# Generated by pormake.
# Topology upc, (4)-cn, num edge types: 1
# Building blocks:
#     Node 0, Type 0, BuildingBlock: ICAMEG_clean_sbu_1, # of connection points: 4
#     Node 1, Type 0, BuildingBlock: ICAMEG_clean_sbu_1, # of connection points: 4
#     Node 2, Type 0, BuildingBlock: ICAMEG_clean_sbu_1, # of connection points: 4
#     Node 3, Type 0, BuildingBlock: ICAMEG_clean_sbu_1, # of connection points: 4
#     Node 4, Type 0, BuildingBlock: ICAMEG_clean_sbu_1, # of connection points: 4
#     Node 5, Type 0, BuildingBlock: ICAMEG_clean_sbu_1, # of connection points: 4
#     Node 6, Type 0, BuildingBlock: ICAMEG_clean_sbu_1, # of connection points: 4
#     Node 7, Type 0, BuildingBlock: ICAMEG_clean_sbu_1, # of connection points: 4
#     Node 8, Type 0, BuildingBlock: ICAMEG_clean_sbu_1, # of connection points: 4
#     Node 9, Type 0, BuildingBlock: ICAMEG_clean_sbu_1, # of connection points: 4
#     Node 10, Type 0, BuildingBlock: ICAMEG_clean_sbu_1, # of connection points: 4
#     Node 11, Type 0, BuildingBlock: ICAMEG_clean_sbu_1, # of connection points: 4
#     Node 12, Type 0, BuildingBlock: ICAMEG_clean_sbu_1, # of connection points: 4
#     Node 13, Type 0, BuildingBlock: ICAMEG_clean_sbu_1, # of connection points: 4
#     Node 14, Type 0, BuildingBlock: ICAMEG_clean_sbu_1, # of connection points: 4
#     Node 15, Type 0, BuildingBlock: ICAMEG_clean_sbu_1, # of connection points: 4
#     Edge 16, Type (0, 0), BuildingBlock: UVAHIK_clean_linker_0, # of connection points: 2
#     Edge 17, Type (0, 0), BuildingBlock: UVAHIK_clean_linker_0, # of connection points: 2
#     Edge 18, Type (0, 0), BuildingBlock: UVAHIK_clean_linker_0, # of connection points: 2
#     Edge 19, Type (0, 0), BuildingBlock: UVAHIK_clean_linker_0, # of connection points: 2
#     Edge 20, Type (0, 0), BuildingBlock: UVAHIK_clean_linker_0, # of connection points: 2
#     Edge 21, Type (0, 0), BuildingBlock: UVAHIK_clean_linker_0, # of connection points: 2
#     Edge 22, Type (0, 0), BuildingBlock: UVAHIK_clean_linker_0, # of connection points: 2
#     Edge 23, Type (0, 0), BuildingBlock: UVAHIK_clean_linker_0, # of connection points: 2
#     Edge 24, Type (0, 0), BuildingBlock: UVAHIK_clean_linker_0, # of connection points: 2
#     Edge 25, Type (0, 0), BuildingBlock: UVAHIK_clean_linker_0, # of connection points: 2
#     Edge 26, Type (0, 0), BuildingBlock: UVAHIK_clean_linker_0, # of connection points: 2
#     Edge 27, Type (0, 0), BuildingBlock: UVAHIK_clean_linker_0, # of connection points: 2
#     Edge 28, Type (0, 0), BuildingBlock: UVAHIK_clean_linker_0, # of connection points: 2
#     Edge 29, Type (0, 0), BuildingBlock: UVAHIK_clean_linker_0, # of connection points: 2
#     Edge 30, Type (0, 0), BuildingBlock: UVAHIK_clean_linker_0, # of connection points: 2
#     Edge 31, Type (0, 0), BuildingBlock: UVAHIK_clean_linker_0, # of connection points: 2
#     Edge 32, Type (0, 0), BuildingBlock: UVAHIK_clean_linker_0, # of connection points: 2
#     Edge 33, Type (0, 0), BuildingBlock: UVAHIK_clean_linker_0, # of connection points: 2
#     Edge 34, Type (0, 0), BuildingBlock: UVAHIK_clean_linker_0, # of connection points: 2
#     Edge 35, Type (0, 0), BuildingBlock: UVAHIK_clean_linker_0, # of connection points: 2
#     Edge 36, Type (0, 0), BuildingBlock: UVAHIK_clean_linker_0, # of connection points: 2
#     Edge 37, Type (0, 0), BuildingBlock: UVAHIK_clean_linker_0, # of connection points: 2
#     Edge 38, Type (0, 0), BuildingBlock: UVAHIK_clean_linker_0, # of connection points: 2
#     Edge 39, Type (0, 0), BuildingBlock: UVAHIK_clean_linker_0, # of connection points: 2
#     Edge 40, Type (0, 0), BuildingBlock: UVAHIK_clean_linker_0, # of connection points: 2
#     Edge 41, Type (0, 0), BuildingBlock: UVAHIK_clean_linker_0, # of connection points: 2
#     Edge 42, Type (0, 0), BuildingBlock: UVAHIK_clean_linker_0, # of connection points: 2
#     Edge 43, Type (0, 0), BuildingBlock: UVAHIK_clean_linker_0, # of connection points: 2
#     Edge 44, Type (0, 0), BuildingBlock: UVAHIK_clean_linker_0, # of connection points: 2
#     Edge 45, Type (0, 0), BuildingBlock: UVAHIK_clean_linker_0, # of connection points: 2
#     Edge 46, Type (0, 0), BuildingBlock: UVAHIK_clean_linker_0, # of connection points: 2
#     Edge 47, Type (0, 0), BuildingBlock: UVAHIK_clean_linker_0, # of connection points: 2
# Relax obj value: 0.215
# Max RMSD: 0.207
# Mean RMSD: 0.207
data_MOF--net-upc--node1-ICAMEG_clean_sbu_1--edge1-UVAHIK_clean_linker_0
_symmetry_space_group_name_H-M    P1
_symmetry_Int_Tables_number       1
_symmetry_cell_setting            triclinic
loop_
_symmetry_equiv_pos_as_xyz
'x, y, z'
_cell_length_a     45.262414
_cell_length_b     45.263536
_cell_length_c     60.430048
_cell_angle_alpha  89.990869
_cell_angle_beta   89.996174
_cell_angle_gamma 90.008231
loop_
_atom_site_label
_atom_site_type_symbol
_atom_site_fract_x
_atom_site_fract_y
_atom_site_fract_z
_atom_type_partial_charge
Co0 Co 0.11965 0.60163 0.13345 0.0
Co1 Co 0.06891 0.64517 0.10579 0.0
O2 O 0.08351 0.60742 0.11662 0.0
C3 C 0.07194 0.58036 0.16202 0.0
O4 O 0.05834 0.60479 0.15634 0.0
C5 C 0.07608 0.607 0.06688 0.0
O6 O 0.10317 0.60237 0.07381 0.0
O7 O 0.10884 0.65662 0.0948 0.0
O8 O 0.14181 0.62887 0.11339 0.0
H9 H 0.0704 0.75515 0.09461 0.0
H10 H 0.08596 0.54983 0.11717 0.0
O11 O 0.09754 0.57478 0.15423 0.0
H12 H 0.1842 0.54208 0.08238 0.0
H13 H 0.19281 0.54057 0.17631 0.0
H14 H 0.1681 0.64038 0.14934 0.0
H15 H 0.17295 0.58287 0.10813 0.0
H16 H 0.14762 0.54907 0.15437 0.0
O17 O 0.05967 0.62557 0.07689 0.0
H18 H 0.08857 0.70749 0.10904 0.0
H19 H 0.01752 0.66253 0.07785 0.0
H20 H 0.21361 0.63286 0.17107 0.0
H21 H 0.09627 0.50867 0.09156 0.0
H22 H 0.22622 0.58265 0.18472 0.0
H23 H 0.14567 0.50466 0.07393 0.0
O24 O 0.11048 0.63571 0.15296 0.0
H25 H 0.98286 0.57661 0.11739 0.0
H26 H 0.02274 0.67602 0.13227 0.0
H27 H 0.97402 0.66217 0.14732 0.0
H28 H 0.95376 0.61214 0.13989 0.0
H29 H 0.0316 0.59126 0.10287 0.0
H30 H 0.99868 0.70967 0.06295 0.0
H31 H 0.02513 0.75641 0.07139 0.0
O32 O 0.07775 0.66453 0.13487 0.0
C33 C 0.13532 0.64929 0.09963 0.0
C34 C 0.05862 0.73494 0.09089 0.0
C35 C 0.01839 0.70941 0.07309 0.0
N36 N 0.05397 0.68233 0.09444 0.0
C37 C 0.06875 0.70792 0.09907 0.0
C38 C 0.02919 0.68279 0.08153 0.0
C39 C 0.03324 0.73563 0.07784 0.0
C40 C 0.10761 0.54804 0.10975 0.0
N41 N 0.1289 0.56858 0.11425 0.0
C42 C 0.11328 0.52476 0.09519 0.0
C43 C 0.14099 0.52256 0.08527 0.0
C44 C 0.16261 0.54356 0.09 0.0
C45 C 0.15612 0.5666 0.10458 0.0
C46 C 0.18759 0.56254 0.17042 0.0
C47 C 0.17354 0.61844 0.1551 0.0
C48 C 0.16202 0.56749 0.15802 0.0
N49 N 0.15539 0.59514 0.15043 0.0
C50 C 0.19929 0.61433 0.16745 0.0
C51 C 0.20633 0.58616 0.17512 0.0
C52 C 0.09423 0.65866 0.15148 0.0
C53 C 0.99142 0.59849 0.12071 0.0
C54 C 0.01412 0.65418 0.12904 0.0
C55 C 0.98649 0.64649 0.13755 0.0
C56 C 0.97513 0.61842 0.13335 0.0
N57 N 0.03 0.6345 0.11668 0.0
C58 C 0.01896 0.60697 0.11245 0.0
Co59 Co 0.89629 0.11836 0.13386 0.0
Co60 Co 0.85433 0.06748 0.10499 0.0
O61 O 0.89135 0.08179 0.11737 0.0
C62 C 0.91406 0.07145 0.16452 0.0
O63 O 0.89013 0.0578 0.15779 0.0
C64 C 0.8955 0.07351 0.06768 0.0
O65 O 0.90027 0.1005 0.07475 0.0
O66 O 0.84429 0.10731 0.09306 0.0
O67 O 0.87134 0.14034 0.11214 0.0
H68 H 0.74546 0.07013 0.08892 0.0
H69 H 0.94884 0.08337 0.12084 0.0
O70 O 0.9208 0.09655 0.15633 0.0
H71 H 0.96141 0.18033 0.08483 0.0
H72 H 0.95464 0.19193 0.17841 0.0
H73 H 0.85701 0.16782 0.14703 0.0
H74 H 0.91821 0.17054 0.10864 0.0
H75 H 0.94736 0.14621 0.15685 0.0
O76 O 0.87602 0.05748 0.07706 0.0
H77 H 0.79212 0.08797 0.10527 0.0
H78 H 0.83851 0.01579 0.07684 0.0
H79 H 0.86334 0.21387 0.16833 0.0
H80 H 0.9924 0.09222 0.09721 0.0
H81 H 0.91246 0.22617 0.18419 0.0
H82 H 0.99884 0.14097 0.07896 0.0
O83 O 0.86037 0.11033 0.15178 0.0
H84 H 0.92057 0.98068 0.12032 0.0
H85 H 0.82081 0.02226 0.13055 0.0
H86 H 0.83271 0.97357 0.14657 0.0
H87 H 0.8829 0.95246 0.14147 0.0
H88 H 0.90783 0.02942 0.1048 0.0
H89 H 0.7924 0.99726 0.06006 0.0
H90 H 0.74542 0.02445 0.06613 0.0
O91 O 0.83283 0.07714 0.13307 0.0
C92 C 0.85183 0.13379 0.09767 0.0
C93 C 0.76576 0.05803 0.08622 0.0
C94 C 0.79212 0.01716 0.06999 0.0
N95 N 0.81793 0.05279 0.09216 0.0
C96 C 0.79222 0.06797 0.09549 0.0
C97 C 0.81816 0.02778 0.0795 0.0
C98 C 0.76577 0.03242 0.07342 0.0
C99 C 0.95167 0.10474 0.11315 0.0
N100 N 0.93114 0.12648 0.11623 0.0
C101 C 0.97631 0.10958 0.09971 0.0
C102 C 0.97988 0.13693 0.08945 0.0
C103 C 0.95888 0.15902 0.09273 0.0
C104 C 0.93447 0.15335 0.10622 0.0
C105 C 0.93316 0.18685 0.17154 0.0
C106 C 0.87849 0.17312 0.15375 0.0
C107 C 0.92889 0.16098 0.15935 0.0
N108 N 0.90186 0.15452 0.15053 0.0
C109 C 0.88192 0.19918 0.16586 0.0
C110 C 0.90948 0.20606 0.17477 0.0
C111 C 0.83745 0.09417 0.14958 0.0
C112 C 0.8986 0.98962 0.12262 0.0
C113 C 0.84273 0.01327 0.12835 0.0
C114 C 0.84932 0.98566 0.1374 0.0
C115 C 0.87747 0.97382 0.13451 0.0
N116 N 0.86357 0.02866 0.11672 0.0
C117 C 0.89122 0.01717 0.1138 0.0
Co118 Co 0.37956 0.90587 0.13556 0.0
Co119 Co 0.42919 0.8608 0.10828 0.0
O120 O 0.41558 0.89905 0.11882 0.0
C121 C 0.42746 0.92741 0.16374 0.0
O122 O 0.44057 0.90246 0.15869 0.0
C123 C 0.42441 0.89897 0.06917 0.0
O124 O 0.39722 0.90426 0.07559 0.0
O125 O 0.38931 0.85084 0.09655 0.0
O126 O 0.35696 0.87817 0.11607 0.0
H127 H 0.42429 0.75094 0.09701 0.0
H128 H 0.41372 0.95673 0.11821 0.0
O129 O 0.40202 0.93318 0.15574 0.0
H130 H 0.31546 0.96429 0.08344 0.0
H131 H 0.3071 0.96919 0.17723 0.0
H132 H 0.33102 0.86812 0.15258 0.0
H133 H 0.32637 0.92429 0.10996 0.0
H134 H 0.35209 0.95947 0.15534 0.0
O135 O 0.44007 0.88012 0.07956 0.0
H136 H 0.40723 0.79919 0.11106 0.0
H137 H 0.48092 0.84168 0.08138 0.0
H138 H 0.28569 0.87685 0.17429 0.0
H139 H 0.40375 0.99712 0.09184 0.0
H140 H 0.27349 0.9277 0.18676 0.0
H141 H 0.35434 0.00102 0.07421 0.0
O142 O 0.38852 0.87247 0.15573 0.0
H143 H 0.51751 0.92597 0.12121 0.0
H144 H 0.47299 0.82853 0.13608 0.0
H145 H 0.52169 0.84058 0.15199 0.0
H146 H 0.54428 0.88961 0.14456 0.0
H147 H 0.46874 0.91312 0.10581 0.0
H148 H 0.49869 0.79391 0.06687 0.0
H149 H 0.47034 0.74811 0.07474 0.0
O150 O 0.41862 0.8416 0.13714 0.0
C151 C 0.363 0.8582 0.10182 0.0
C152 C 0.43689 0.77073 0.09353 0.0
C153 C 0.47862 0.79486 0.07659 0.0
N154 N 0.4432 0.82314 0.09719 0.0
C155 C 0.42739 0.79809 0.1015 0.0
C156 C 0.46843 0.82184 0.08481 0.0
C157 C 0.46271 0.76916 0.08102 0.0
C158 C 0.39207 0.95849 0.1108 0.0
N159 N 0.37059 0.93832 0.11573 0.0
C160 C 0.38659 0.98133 0.0958 0.0
C161 C 0.35887 0.98347 0.08589 0.0
C162 C 0.33705 0.96286 0.09105 0.0
C163 C 0.34336 0.94025 0.10606 0.0
C164 C 0.31213 0.94695 0.17184 0.0
C165 C 0.32573 0.89034 0.1578 0.0
C166 C 0.33758 0.94132 0.15946 0.0
N167 N 0.34397 0.91332 0.1525 0.0
C168 C 0.30009 0.89513 0.17016 0.0
C169 C 0.29328 0.92366 0.17717 0.0
C170 C 0.40327 0.84855 0.15413 0.0
C171 C 0.50793 0.9045 0.12451 0.0
C172 C 0.48264 0.84992 0.13281 0.0
C173 C 0.51025 0.8566 0.14182 0.0
C174 C 0.52292 0.88411 0.13764 0.0
N175 N 0.46807 0.87004 0.11994 0.0
C176 C 0.48038 0.89704 0.11574 0.0
Co177 Co 0.60411 0.37863 0.13302 0.0
Co178 Co 0.646 0.42922 0.10382 0.0
O179 O 0.60901 0.41496 0.11625 0.0
C180 C 0.58578 0.42604 0.16299 0.0
O181 O 0.61002 0.43938 0.15654 0.0
C182 C 0.60467 0.42325 0.0666 0.0
O183 O 0.59997 0.39621 0.07359 0.0
O184 O 0.65594 0.38932 0.09196 0.0
O185 O 0.62937 0.35647 0.1116 0.0
H186 H 0.75482 0.4264 0.08757 0.0
H187 H 0.55151 0.41316 0.11938 0.0
O188 O 0.57923 0.40072 0.1551 0.0
H189 H 0.53972 0.31553 0.08427 0.0
H190 H 0.54569 0.30552 0.17798 0.0
H191 H 0.64345 0.32948 0.14674 0.0
H192 H 0.58268 0.32594 0.10818 0.0
H193 H 0.55297 0.35095 0.15606 0.0
O194 O 0.62424 0.43921 0.07593 0.0
H195 H 0.70818 0.40865 0.10402 0.0
H196 H 0.6618 0.48083 0.07558 0.0
H197 H 0.63713 0.28373 0.1684 0.0
H198 H 0.50819 0.40369 0.09565 0.0
H199 H 0.58795 0.2715 0.1842 0.0
H200 H 0.50214 0.3546 0.07785 0.0
O201 O 0.63983 0.38707 0.15104 0.0
H202 H 0.57975 0.51594 0.11935 0.0
H203 H 0.67966 0.47455 0.12916 0.0
H204 H 0.66778 0.5232 0.14525 0.0
H205 H 0.6175 0.5442 0.14037 0.0
H206 H 0.59249 0.46726 0.10375 0.0
H207 H 0.7079 0.49927 0.05869 0.0
H208 H 0.75485 0.47203 0.06472 0.0
O209 O 0.66759 0.41964 0.13188 0.0
C210 C 0.64864 0.36288 0.09692 0.0
C211 C 0.73452 0.43852 0.08489 0.0
C212 C 0.70818 0.47939 0.06865 0.0
N213 N 0.68238 0.44383 0.0909 0.0
C214 C 0.70808 0.42863 0.09421 0.0
C215 C 0.68214 0.46882 0.07821 0.0
C216 C 0.73452 0.4641 0.07205 0.0
C217 C 0.54885 0.39164 0.11189 0.0
N218 N 0.56946 0.37006 0.11528 0.0
C219 C 0.52435 0.38645 0.09839 0.0
C220 C 0.521 0.35891 0.08838 0.0
C221 C 0.54208 0.33699 0.09197 0.0
C222 C 0.56636 0.34301 0.10551 0.0
C223 C 0.56721 0.31057 0.17115 0.0
C224 C 0.62195 0.32421 0.15344 0.0
C225 C 0.57147 0.33628 0.15876 0.0
N226 N 0.59855 0.3427 0.14998 0.0
C227 C 0.61852 0.29832 0.16575 0.0
C228 C 0.59093 0.29149 0.17462 0.0
C229 C 0.66286 0.40301 0.14862 0.0
C230 C 0.60175 0.50705 0.12156 0.0
C231 C 0.65771 0.4835 0.12705 0.0
C232 C 0.65113 0.51109 0.13614 0.0
C233 C 0.62293 0.52287 0.13337 0.0
N234 N 0.63682 0.46808 0.11551 0.0
C235 C 0.60914 0.47953 0.11268 0.0
Co236 Co 0.11595 0.89548 0.36449 0.0
Co237 Co 0.06614 0.85182 0.39299 0.0
O238 O 0.08 0.88952 0.38153 0.0
C239 C 0.06784 0.9154 0.3357 0.0
O240 O 0.05458 0.89086 0.3416 0.0
C241 C 0.0729 0.89108 0.43133 0.0
O242 O 0.09981 0.89608 0.42417 0.0
O243 O 0.10632 0.84136 0.40403 0.0
O244 O 0.13866 0.86911 0.38483 0.0
H245 H 0.0696 0.74221 0.40582 0.0
H246 H 0.08157 0.94713 0.38019 0.0
O247 O 0.09334 0.92149 0.34346 0.0
H248 H 0.17993 0.95731 0.41444 0.0
H249 H 0.18791 0.95658 0.3205 0.0
H250 H 0.16492 0.8571 0.34899 0.0
H251 H 0.16912 0.91569 0.38933 0.0
H252 H 0.14299 0.94794 0.34273 0.0
O253 O 0.05673 0.872 0.42164 0.0
H254 H 0.08685 0.78977 0.39061 0.0
H255 H 0.01521 0.83431 0.42137 0.0
H256 H 0.21017 0.86478 0.32698 0.0
H257 H 0.09144 0.98911 0.40515 0.0
H258 H 0.22191 0.91483 0.31257 0.0
H259 H 0.1409 0.99434 0.42251 0.0
O260 O 0.10719 0.86076 0.34548 0.0
H261 H 0.97884 0.91853 0.38068 0.0
H262 H 0.02037 0.81946 0.36715 0.0
H263 H 0.97131 0.83204 0.35207 0.0
H264 H 0.95023 0.88189 0.35883 0.0
H265 H 0.02792 0.90513 0.39523 0.0
H266 H 0.99728 0.78727 0.43705 0.0
H267 H 0.0245 0.74077 0.42922 0.0
O268 O 0.07516 0.83185 0.36419 0.0
C269 C 0.13263 0.849 0.39896 0.0
C270 C 0.05749 0.7623 0.40928 0.0
C271 C 0.01692 0.7876 0.42684 0.0
N272 N 0.05191 0.81471 0.40495 0.0
C273 C 0.0671 0.78927 0.40066 0.0
C274 C 0.02721 0.81417 0.41796 0.0
C275 C 0.0322 0.76152 0.42243 0.0
C276 C 0.10325 0.94945 0.38749 0.0
N277 N 0.12481 0.92913 0.38319 0.0
C278 C 0.10866 0.97319 0.40168 0.0
C279 C 0.13641 0.97608 0.41145 0.0
C280 C 0.15831 0.9553 0.40694 0.0
C281 C 0.15207 0.93178 0.39272 0.0
C282 C 0.18307 0.93469 0.32673 0.0
C283 C 0.16998 0.87897 0.34289 0.0
C284 C 0.15765 0.92965 0.33928 0.0
N285 N 0.15149 0.90209 0.34729 0.0
C286 C 0.19559 0.88317 0.33039 0.0
C287 C 0.20214 0.91125 0.32229 0.0
C288 C 0.09137 0.83757 0.34741 0.0
C289 C 0.98776 0.89672 0.37765 0.0
C290 C 0.01139 0.84123 0.37008 0.0
C291 C 0.98357 0.8482 0.36156 0.0
C292 C 0.97174 0.87617 0.36537 0.0
N293 N 0.02699 0.86151 0.38208 0.0
C294 C 0.0155 0.88895 0.38593 0.0
Co295 Co 0.60619 0.11933 0.36714 0.0
Co296 Co 0.64873 0.06518 0.39195 0.0
O297 O 0.61121 0.08156 0.38206 0.0
C298 C 0.58498 0.075 0.3356 0.0
O299 O 0.60859 0.06003 0.34129 0.0
C300 C 0.6113 0.07057 0.43149 0.0
O301 O 0.60669 0.09802 0.42541 0.0
O302 O 0.66165 0.10397 0.40426 0.0
O303 O 0.6332 0.13908 0.38869 0.0
H304 H 0.75897 0.06241 0.40145 0.0
H305 H 0.55368 0.08479 0.3809 0.0
O306 O 0.57957 0.09979 0.34481 0.0
H307 H 0.54624 0.17941 0.42094 0.0
H308 H 0.54706 0.19741 0.32777 0.0
H309 H 0.6459 0.16873 0.35457 0.0
H310 H 0.58745 0.17024 0.39511 0.0
H311 H 0.55448 0.15002 0.34719 0.0
O312 O 0.62949 0.05456 0.42075 0.0
H313 H 0.7116 0.08296 0.38837 0.0
H314 H 0.66509 0.01163 0.4179 0.0
H315 H 0.63945 0.2164 0.33539 0.0
H316 H 0.51206 0.09305 0.40653 0.0
H317 H 0.58974 0.23101 0.32184 0.0
H318 H 0.50822 0.14061 0.42681 0.0
O319 O 0.64056 0.11164 0.34744 0.0
H320 H 0.57754 0.98187 0.37821 0.0
H321 H 0.67767 0.01997 0.36343 0.0
H322 H 0.66218 0.97261 0.34691 0.0
H323 H 0.61179 0.95325 0.35431 0.0
H324 H 0.59381 0.02928 0.39417 0.0
H325 H 0.71193 0.9904 0.43144 0.0
H326 H 0.75932 0.0158 0.42316 0.0
O327 O 0.6677 0.07541 0.36303 0.0
C328 C 0.65421 0.13093 0.40141 0.0
C329 C 0.73848 0.05109 0.40511 0.0
C330 C 0.71207 0.0107 0.42198 0.0
N331 N 0.68566 0.04841 0.40225 0.0
C332 C 0.71161 0.06258 0.3977 0.0
C333 C 0.68562 0.02286 0.41432 0.0
C334 C 0.73865 0.02496 0.41731 0.0
C335 C 0.55197 0.10566 0.38949 0.0
N336 N 0.57284 0.12708 0.38642 0.0
C337 C 0.52842 0.11017 0.40405 0.0
C338 C 0.52631 0.13684 0.41545 0.0
C339 C 0.54765 0.15862 0.41217 0.0
C340 C 0.57094 0.1533 0.39754 0.0
C341 C 0.56882 0.19132 0.33363 0.0
C342 C 0.62417 0.17502 0.34884 0.0
C343 C 0.57316 0.1645 0.3446 0.0
N344 N 0.60054 0.15675 0.35214 0.0
C345 C 0.62067 0.202 0.33794 0.0
C346 C 0.59277 0.21017 0.33032 0.0
C347 C 0.66262 0.09408 0.34763 0.0
C348 C 0.59957 0.99005 0.3749 0.0
C349 C 0.65568 0.01175 0.36664 0.0
C350 C 0.64705 0.98488 0.3573 0.0
C351 C 0.61878 0.97402 0.36147 0.0
N352 N 0.63671 0.02736 0.37978 0.0
C353 C 0.60896 0.01684 0.38397 0.0
Co354 Co 0.38354 0.60081 0.36351 0.0
Co355 Co 0.43221 0.64659 0.39114 0.0
O356 O 0.41953 0.60822 0.38015 0.0
C357 C 0.43153 0.58164 0.3344 0.0
O358 O 0.44433 0.60651 0.34009 0.0
C359 C 0.42791 0.60766 0.42983 0.0
O360 O 0.40091 0.60194 0.42318 0.0
O361 O 0.39207 0.65552 0.40287 0.0
O362 O 0.36034 0.62719 0.3836 0.0
H363 H 0.42493 0.75612 0.40344 0.0
H364 H 0.41943 0.55051 0.37972 0.0
O365 O 0.40648 0.57486 0.34265 0.0
H366 H 0.32193 0.53891 0.41508 0.0
H367 H 0.31243 0.53661 0.32129 0.0
H368 H 0.33374 0.63761 0.34741 0.0
H369 H 0.33126 0.57999 0.38916 0.0
H370 H 0.35738 0.54701 0.34305 0.0
O371 O 0.44332 0.62698 0.41972 0.0
H372 H 0.40898 0.70777 0.38887 0.0
H373 H 0.48333 0.66634 0.41844 0.0
H374 H 0.28843 0.62818 0.32585 0.0
H375 H 0.41106 0.50908 0.4055 0.0
H376 H 0.27754 0.57737 0.31264 0.0
H377 H 0.36204 0.50314 0.42343 0.0
O378 O 0.39128 0.63509 0.34388 0.0
H379 H 0.52213 0.58374 0.37801 0.0
H380 H 0.4754 0.6803 0.36379 0.0
H381 H 0.52452 0.6697 0.34802 0.0
H382 H 0.54822 0.62112 0.35513 0.0
H383 H 0.47291 0.59514 0.39326 0.0
H384 H 0.49999 0.71422 0.43347 0.0
H385 H 0.47075 0.75955 0.42592 0.0
O386 O 0.42135 0.66603 0.36245 0.0
C387 C 0.36594 0.64731 0.39782 0.0
C388 C 0.43791 0.73655 0.40678 0.0
C389 C 0.48002 0.71302 0.42367 0.0
N390 N 0.44534 0.68434 0.40265 0.0
C391 C 0.42904 0.70913 0.39852 0.0
C392 C 0.47045 0.68597 0.41515 0.0
C393 C 0.46361 0.73844 0.41942 0.0
C394 C 0.39794 0.54786 0.38727 0.0
N395 N 0.3758 0.5675 0.38283 0.0
C396 C 0.39337 0.52444 0.40192 0.0
C397 C 0.36587 0.52116 0.412 0.0
C398 C 0.34337 0.54123 0.40734 0.0
C399 C 0.34877 0.56445 0.39266 0.0
C400 C 0.31689 0.55883 0.32701 0.0
C401 C 0.32902 0.6154 0.34186 0.0
C402 C 0.34231 0.56484 0.33931 0.0
N403 N 0.34798 0.59281 0.34669 0.0
C404 C 0.30339 0.61022 0.3296 0.0
C405 C 0.29732 0.5817 0.32216 0.0
C406 C 0.40574 0.65918 0.34557 0.0
C407 C 0.51206 0.60502 0.37485 0.0
C408 C 0.48553 0.65909 0.36691 0.0
C409 C 0.51338 0.65323 0.35797 0.0
C410 C 0.52667 0.62598 0.36198 0.0
N411 N 0.47134 0.63843 0.37952 0.0
C412 C 0.48425 0.61166 0.38353 0.0
Co413 Co 0.89696 0.38362 0.36522 0.0
Co414 Co 0.85207 0.43559 0.39029 0.0
O415 O 0.89029 0.42091 0.3804 0.0
C416 C 0.91649 0.42927 0.33405 0.0
O417 O 0.89233 0.44329 0.3398 0.0
C418 C 0.88928 0.43053 0.42994 0.0
O419 O 0.8948 0.4034 0.42351 0.0
O420 O 0.84043 0.39602 0.40202 0.0
O421 O 0.87088 0.36245 0.38665 0.0
H422 H 0.74165 0.4343 0.39891 0.0
H423 H 0.94782 0.42029 0.37935 0.0
O424 O 0.92276 0.40455 0.34305 0.0
H425 H 0.95949 0.32546 0.41857 0.0
H426 H 0.9594 0.30867 0.3253 0.0
H427 H 0.85943 0.33274 0.35227 0.0
H428 H 0.91801 0.33314 0.39272 0.0
H429 H 0.94996 0.35543 0.34507 0.0
O430 O 0.87065 0.44621 0.41934 0.0
H431 H 0.78988 0.41579 0.38588 0.0
H432 H 0.8335 0.48775 0.41695 0.0
H433 H 0.86791 0.28564 0.33273 0.0
H434 H 0.98968 0.41355 0.40501 0.0
H435 H 0.91821 0.27336 0.3191 0.0
H436 H 0.99564 0.36589 0.42488 0.0
O437 O 0.86229 0.3901 0.34554 0.0
H438 H 0.92016 0.52187 0.37811 0.0
H439 H 0.82176 0.48028 0.36211 0.0
H440 H 0.8356 0.52859 0.34633 0.0
H441 H 0.88511 0.54972 0.35434 0.0
H442 H 0.90555 0.4735 0.39334 0.0
H443 H 0.78577 0.50695 0.43046 0.0
H444 H 0.73941 0.4802 0.42138 0.0
O445 O 0.83383 0.4253 0.36114 0.0
C446 C 0.84928 0.36949 0.39917 0.0
C447 C 0.7617 0.44619 0.40293 0.0
C448 C 0.78646 0.48693 0.42067 0.0
N449 N 0.81443 0.45074 0.40058 0.0
C450 C 0.78905 0.43585 0.39556 0.0
C451 C 0.81343 0.47591 0.41304 0.0
C452 C 0.76046 0.47193 0.41556 0.0
C453 C 0.95047 0.39938 0.38776 0.0
N454 N 0.93062 0.37707 0.38445 0.0
C455 C 0.97413 0.39573 0.40233 0.0
C456 C 0.97744 0.369 0.41351 0.0
C457 C 0.95715 0.34632 0.40998 0.0
C458 C 0.9337 0.35079 0.39534 0.0
C459 C 0.93741 0.31374 0.3312 0.0
C460 C 0.88141 0.32745 0.3465 0.0
C461 C 0.93192 0.3402 0.34236 0.0
N462 N 0.90423 0.34667 0.34995 0.0
C463 C 0.88606 0.3008 0.3354 0.0
C464 C 0.91428 0.29394 0.32773 0.0
C465 C 0.83966 0.40693 0.34569 0.0
C466 C 0.8985 0.51293 0.37453 0.0
C467 C 0.84338 0.48928 0.3656 0.0
C468 C 0.85106 0.51668 0.35666 0.0
C469 C 0.87884 0.52852 0.36117 0.0
N470 N 0.86278 0.47411 0.37868 0.0
C471 C 0.89005 0.48559 0.38319 0.0
Co472 Co 0.88608 0.39412 0.86754 0.0
Co473 Co 0.93993 0.35139 0.89251 0.0
O474 O 0.92354 0.38898 0.88283 0.0
C475 C 0.93108 0.41589 0.83674 0.0
O476 O 0.94592 0.39223 0.84248 0.0
C477 C 0.93334 0.38809 0.93229 0.0
O478 O 0.90593 0.39237 0.926 0.0
O479 O 0.90094 0.33797 0.90416 0.0
O480 O 0.86597 0.36665 0.88863 0.0
H481 H 0.94336 0.24099 0.90083 0.0
H482 H 0.92018 0.44651 0.88213 0.0
O483 O 0.90604 0.42113 0.84564 0.0
H484 H 0.82474 0.45302 0.92119 0.0
H485 H 0.80869 0.45366 0.82776 0.0
H486 H 0.837 0.3545 0.85411 0.0
H487 H 0.83456 0.41225 0.8951 0.0
H488 H 0.85569 0.44604 0.84765 0.0
O489 O 0.94976 0.3702 0.92161 0.0
H490 H 0.92276 0.28844 0.88798 0.0
H491 H 0.99295 0.33493 0.919 0.0
H492 H 0.78971 0.36114 0.83444 0.0
H493 H 0.91128 0.48768 0.90804 0.0
H494 H 0.77529 0.41101 0.82111 0.0
H495 H 0.8633 0.49106 0.92782 0.0
O496 O 0.89424 0.36006 0.84767 0.0
H497 H 0.02313 0.42329 0.88057 0.0
H498 H 0.98585 0.32331 0.86415 0.0
H499 H 0.03347 0.33939 0.84838 0.0
H500 H 0.05242 0.3897 0.8566 0.0
H501 H 0.97548 0.40645 0.89578 0.0
H502 H 0.01422 0.28799 0.93233 0.0
H503 H 0.98942 0.24058 0.92318 0.0
O504 O 0.93041 0.33288 0.8633 0.0
C505 C 0.87399 0.34531 0.90109 0.0
C506 C 0.95441 0.26149 0.90487 0.0
C507 C 0.99415 0.28788 0.92258 0.0
N508 N 0.95673 0.31438 0.90264 0.0
C509 C 0.94289 0.28842 0.89759 0.0
C510 C 0.98197 0.31439 0.91505 0.0
C511 C 0.98024 0.26128 0.91743 0.0
C512 C 0.89913 0.44802 0.8905 0.0
N513 N 0.87784 0.42714 0.88701 0.0
C514 C 0.89426 0.47131 0.90522 0.0
C515 C 0.86735 0.47316 0.91634 0.0
C516 C 0.84571 0.45181 0.91264 0.0
C517 C 0.8514 0.42878 0.89786 0.0
C518 C 0.8147 0.43183 0.83352 0.0
C519 C 0.83079 0.3763 0.84848 0.0
C520 C 0.8413 0.42738 0.84475 0.0
N521 N 0.84894 0.3999 0.85217 0.0
C522 C 0.80402 0.37991 0.8373 0.0
C523 C 0.79596 0.40789 0.82981 0.0
C524 C 0.91189 0.33808 0.84783 0.0
C525 C 0.01514 0.40129 0.87691 0.0
C526 C 0.9939 0.34527 0.86773 0.0
C527 C 0.02091 0.35422 0.8588 0.0
C528 C 0.03154 0.38245 0.86343 0.0
N529 N 0.97793 0.36387 0.88093 0.0
C530 C 0.98822 0.39158 0.88556 0.0
Co531 Co 0.10419 0.88503 0.86527 0.0
Co532 Co 0.14926 0.93583 0.89148 0.0
O533 O 0.11107 0.92171 0.88117 0.0
C534 C 0.08496 0.93216 0.83529 0.0
O535 O 0.10961 0.94536 0.84097 0.0
C536 C 0.11158 0.92988 0.93079 0.0
O537 O 0.10627 0.90287 0.92399 0.0
O538 O 0.16039 0.89587 0.9027 0.0
O539 O 0.13013 0.86295 0.8863 0.0
H540 H 0.25954 0.93351 0.90089 0.0
H541 H 0.05358 0.92152 0.88019 0.0
O542 O 0.07853 0.90705 0.84361 0.0
H543 H 0.0412 0.82531 0.91734 0.0
H544 H 0.04132 0.8121 0.82368 0.0
H545 H 0.14135 0.8343 0.85143 0.0
H546 H 0.08276 0.83369 0.89167 0.0
H547 H 0.05106 0.85804 0.84442 0.0
O548 O 0.13032 0.94585 0.92054 0.0
H549 H 0.21136 0.91568 0.88725 0.0
H550 H 0.16785 0.98716 0.919 0.0
H551 H 0.13256 0.788 0.83092 0.0
H552 H 0.01166 0.91409 0.90569 0.0
H553 H 0.08223 0.77667 0.81689 0.0
H554 H 0.00534 0.86573 0.92452 0.0
O555 O 0.13897 0.89195 0.84581 0.0
H556 H 0.08193 0.02283 0.87983 0.0
H557 H 0.18026 0.98091 0.86409 0.0
H558 H 0.16694 0.02961 0.84872 0.0
H559 H 0.11745 0.05087 0.85658 0.0
H560 H 0.09605 0.9741 0.89467 0.0
H561 H 0.21553 0.00567 0.93313 0.0
H562 H 0.26182 0.97882 0.92402 0.0
O563 O 0.16783 0.92607 0.86233 0.0
C564 C 0.15153 0.86949 0.89919 0.0
C565 C 0.23953 0.94544 0.90494 0.0
C566 C 0.21482 0.98591 0.92306 0.0
N567 N 0.18687 0.95043 0.90225 0.0
C568 C 0.2122 0.93548 0.89721 0.0
C569 C 0.18789 0.97528 0.91507 0.0
C570 C 0.24079 0.97085 0.91793 0.0
C571 C 0.05078 0.90032 0.88814 0.0
N572 N 0.07047 0.87801 0.88435 0.0
C573 C 0.02707 0.89627 0.90263 0.0
C574 C 0.02357 0.86915 0.91321 0.0
C575 C 0.04369 0.84647 0.90921 0.0
C576 C 0.06719 0.85134 0.89467 0.0
C577 C 0.06333 0.81677 0.82974 0.0
C578 C 0.11936 0.82942 0.84549 0.0
C579 C 0.06898 0.84276 0.84145 0.0
N580 N 0.09669 0.84871 0.84925 0.0
C581 C 0.11453 0.80322 0.83384 0.0
C582 C 0.08629 0.79689 0.82595 0.0
C583 C 0.16191 0.90834 0.84649 0.0
C584 C 0.10358 0.01382 0.87633 0.0
C585 C 0.15867 0.98999 0.86753 0.0
C586 C 0.15127 0.0176 0.85883 0.0
C587 C 0.12351 0.02953 0.86326 0.0
N588 N 0.13901 0.9747 0.88032 0.0
C589 C 0.11176 0.98629 0.88477 0.0
Co590 Co 0.61686 0.09966 0.86419 0.0
Co591 Co 0.5683 0.14663 0.89081 0.0
O592 O 0.58114 0.10776 0.88095 0.0
C593 C 0.5684 0.07804 0.83649 0.0
O594 O 0.5555 0.10318 0.8413 0.0
C595 C 0.57324 0.10976 0.93059 0.0
O596 O 0.60031 0.10408 0.92407 0.0
O597 O 0.60849 0.15655 0.90193 0.0
O598 O 0.64018 0.12741 0.88322 0.0
H599 H 0.5742 0.25692 0.89927 0.0
H600 H 0.58172 0.05025 0.8827 0.0
O601 O 0.59378 0.07217 0.84455 0.0
H602 H 0.68024 0.0413 0.91687 0.0
H603 H 0.68772 0.03379 0.8232 0.0
H604 H 0.66617 0.13589 0.84666 0.0
H605 H 0.66998 0.08065 0.88967 0.0
H606 H 0.64304 0.04499 0.84505 0.0
O607 O 0.55762 0.12847 0.92001 0.0
H608 H 0.59058 0.20798 0.88618 0.0
H609 H 0.51745 0.16731 0.91797 0.0
H610 H 0.71123 0.12566 0.82499 0.0
H611 H 0.59102 0.01051 0.90976 0.0
H612 H 0.72223 0.07429 0.81311 0.0
H613 H 0.64056 0.00592 0.92709 0.0
O614 O 0.60822 0.13253 0.84338 0.0
H615 H 0.47869 0.08247 0.88018 0.0
H616 H 0.52474 0.17836 0.8625 0.0
H617 H 0.47557 0.16651 0.84732 0.0
H618 H 0.45222 0.11827 0.85616 0.0
H619 H 0.52792 0.09508 0.89484 0.0
H620 H 0.50037 0.21579 0.93157 0.0
H621 H 0.52879 0.26104 0.92215 0.0
O622 O 0.57879 0.16455 0.86154 0.0
C623 C 0.63459 0.14822 0.8969 0.0
C624 C 0.56159 0.23738 0.90344 0.0
C625 C 0.52018 0.21429 0.9216 0.0
N626 N 0.55491 0.18486 0.90122 0.0
C627 C 0.57072 0.20962 0.89603 0.0
C628 C 0.53 0.18689 0.91391 0.0
C629 C 0.53613 0.23967 0.9163 0.0
C630 C 0.60342 0.04819 0.89 0.0
N631 N 0.62533 0.06764 0.88454 0.0
C632 C 0.60852 0.02572 0.90537 0.0
C633 C 0.63631 0.02319 0.91512 0.0
C634 C 0.65858 0.04305 0.9094 0.0
C635 C 0.65264 0.0653 0.89402 0.0
C636 C 0.6832 0.05625 0.82832 0.0
C637 C 0.67094 0.11346 0.84167 0.0
C638 C 0.65792 0.06273 0.84065 0.0
N639 N 0.65218 0.09102 0.84727 0.0
C640 C 0.69642 0.10781 0.82935 0.0
C641 C 0.70256 0.07898 0.82267 0.0
C642 C 0.59373 0.15666 0.8446 0.0
C643 C 0.4886 0.1036 0.87627 0.0
C644 C 0.51474 0.15731 0.86642 0.0
C645 C 0.48687 0.15074 0.85779 0.0
C646 C 0.47377 0.12368 0.86277 0.0
N647 N 0.52913 0.13752 0.87967 0.0
C648 C 0.51641 0.11094 0.88463 0.0
Co649 Co 0.39277 0.61606 0.86736 0.0
Co650 Co 0.34944 0.56285 0.89254 0.0
O651 O 0.38717 0.57867 0.88265 0.0
C652 C 0.41398 0.57058 0.83679 0.0
O653 O 0.38972 0.55645 0.84213 0.0
C654 C 0.38679 0.56827 0.9321 0.0
O655 O 0.39155 0.59565 0.92592 0.0
O656 O 0.33704 0.60194 0.9046 0.0
O657 O 0.36565 0.63652 0.88849 0.0
H658 H 0.23916 0.56155 0.90198 0.0
H659 H 0.44471 0.58126 0.88198 0.0
O660 O 0.41952 0.59564 0.84553 0.0
H661 H 0.45264 0.67673 0.92083 0.0
H662 H 0.45328 0.69255 0.8274 0.0
H663 H 0.35383 0.66571 0.85401 0.0
H664 H 0.41167 0.66738 0.89481 0.0
H665 H 0.44505 0.64567 0.84733 0.0
O666 O 0.36852 0.55228 0.92141 0.0
H667 H 0.2868 0.58139 0.88883 0.0
H668 H 0.33237 0.50975 0.91874 0.0
H669 H 0.36108 0.7129 0.83432 0.0
H670 H 0.48608 0.5897 0.90779 0.0
H671 H 0.41111 0.72657 0.82086 0.0
H672 H 0.49017 0.63769 0.92747 0.0
O673 O 0.35855 0.60836 0.84753 0.0
H674 H 0.4197 0.47869 0.87912 0.0
H675 H 0.32 0.51778 0.86418 0.0
H676 H 0.33501 0.4702 0.84777 0.0
H677 H 0.38519 0.45035 0.85523 0.0
H678 H 0.4039 0.5263 0.895 0.0
H679 H 0.28524 0.48923 0.93236 0.0
H680 H 0.2382 0.51514 0.92392 0.0
O681 O 0.33061 0.57307 0.86356 0.0
C682 C 0.34464 0.62878 0.90137 0.0
C683 C 0.2595 0.55001 0.90571 0.0
C684 C 0.28537 0.50944 0.92279 0.0
N685 N 0.31229 0.54664 0.9029 0.0
C686 C 0.28653 0.56109 0.89825 0.0
C687 C 0.31199 0.5212 0.91509 0.0
C688 C 0.25898 0.52399 0.91804 0.0
C689 C 0.44654 0.60232 0.8903 0.0
N690 N 0.42594 0.62388 0.88679 0.0
C691 C 0.46993 0.60692 0.90496 0.0
C692 C 0.47219 0.63384 0.91603 0.0
C693 C 0.45112 0.65575 0.91232 0.0
C694 C 0.42797 0.65033 0.89758 0.0
C695 C 0.43139 0.68686 0.83322 0.0
C696 C 0.37569 0.6716 0.84832 0.0
C697 C 0.42659 0.66033 0.84446 0.0
N698 N 0.39904 0.65309 0.85195 0.0
C699 C 0.37965 0.6983 0.83713 0.0
C700 C 0.40772 0.70595 0.82956 0.0
C701 C 0.3361 0.59131 0.84794 0.0
C702 C 0.39776 0.48707 0.87579 0.0
C703 C 0.34189 0.50933 0.86744 0.0
C704 C 0.35025 0.48234 0.85815 0.0
C705 C 0.3784 0.47121 0.86236 0.0
N706 N 0.36101 0.52478 0.88057 0.0
C707 C 0.38863 0.51397 0.88481 0.0
Co708 Co 0.885 0.10565 0.63287 0.0
Co709 Co 0.93586 0.14832 0.60453 0.0
O710 O 0.92136 0.11092 0.61616 0.0
C711 C 0.93217 0.08615 0.6627 0.0
O712 O 0.94608 0.11007 0.65624 0.0
C713 C 0.92894 0.10875 0.56637 0.0
O714 O 0.90198 0.10394 0.5735 0.0
O715 O 0.89594 0.15932 0.59326 0.0
O716 O 0.86295 0.13173 0.61195 0.0
H717 H 0.93413 0.25787 0.59117 0.0
H718 H 0.91926 0.05333 0.61835 0.0
O719 O 0.90687 0.08001 0.65461 0.0
H720 H 0.82164 0.04318 0.58293 0.0
H721 H 0.81151 0.0462 0.67671 0.0
H722 H 0.83611 0.14484 0.64734 0.0
H723 H 0.83223 0.0853 0.60761 0.0
H724 H 0.85698 0.05393 0.65493 0.0
O725 O 0.94521 0.12778 0.57602 0.0
H726 H 0.91606 0.2107 0.60653 0.0
H727 H 0.98725 0.16484 0.57629 0.0
H728 H 0.79032 0.13807 0.66888 0.0
H729 H 0.90961 0.01083 0.59383 0.0
H730 H 0.77777 0.08845 0.68373 0.0
H731 H 0.86052 0.00562 0.57588 0.0
O732 O 0.89367 0.14072 0.65154 0.0
H733 H 0.02221 0.08057 0.61739 0.0
H734 H 0.98186 0.18023 0.63045 0.0
H735 H 0.03069 0.16715 0.64569 0.0
H736 H 0.05118 0.117 0.63915 0.0
H737 H 0.97334 0.09447 0.60268 0.0
H738 H 0.006 0.21148 0.56046 0.0
H739 H 0.97941 0.25844 0.56795 0.0
O740 O 0.92689 0.16867 0.63317 0.0
C741 C 0.86946 0.15187 0.59797 0.0
C742 C 0.94596 0.23757 0.58786 0.0
C743 C 0.98627 0.21152 0.57059 0.0
N744 N 0.95073 0.18512 0.59245 0.0
C745 C 0.93589 0.21081 0.59657 0.0
C746 C 0.97553 0.18518 0.57955 0.0
C747 C 0.97135 0.23786 0.57481 0.0
C748 C 0.89774 0.05102 0.61078 0.0
N749 N 0.87626 0.07163 0.61452 0.0
C750 C 0.89245 0.02698 0.59685 0.0
C751 C 0.86491 0.0241 0.58675 0.0
C752 C 0.84309 0.04518 0.59069 0.0
C753 C 0.84921 0.06898 0.60467 0.0
C754 C 0.81671 0.06791 0.67028 0.0
C755 C 0.8307 0.12314 0.65362 0.0
C756 C 0.84243 0.07242 0.65798 0.0
N757 N 0.84904 0.09975 0.64972 0.0
C758 C 0.80479 0.11946 0.66587 0.0
C759 C 0.79778 0.09162 0.67421 0.0
C760 C 0.91006 0.16354 0.64972 0.0
C761 C 0.01354 0.10251 0.62031 0.0
C762 C 0.99058 0.15834 0.62763 0.0
C763 C 0.01827 0.15108 0.63624 0.0
C764 C 0.02977 0.12295 0.63255 0.0
N765 N 0.97478 0.13817 0.61566 0.0
C766 C 0.98592 0.11055 0.61195 0.0
Co767 Co 0.39787 0.87787 0.63317 0.0
Co768 Co 0.35568 0.92941 0.60513 0.0
O769 O 0.39288 0.91466 0.61695 0.0
C770 C 0.41652 0.92422 0.66397 0.0
O771 O 0.39272 0.93823 0.65741 0.0
C772 C 0.39604 0.9237 0.56727 0.0
O773 O 0.40092 0.8966 0.57406 0.0
O774 O 0.34503 0.88977 0.59311 0.0
O775 O 0.37232 0.85634 0.61159 0.0
H776 H 0.24643 0.92775 0.59053 0.0
H777 H 0.45043 0.91263 0.61983 0.0
O778 O 0.42296 0.89919 0.65555 0.0
H779 H 0.46154 0.81607 0.58298 0.0
H780 H 0.45658 0.80328 0.6765 0.0
H781 H 0.35847 0.82856 0.64649 0.0
H782 H 0.41888 0.82586 0.60733 0.0
H783 H 0.4492 0.84933 0.65535 0.0
O784 O 0.37676 0.9396 0.57699 0.0
H785 H 0.29334 0.90938 0.60613 0.0
H786 H 0.3396 0.98154 0.57751 0.0
H787 H 0.36488 0.78219 0.66739 0.0
H788 H 0.49347 0.90377 0.59566 0.0
H789 H 0.41424 0.76929 0.68256 0.0
H790 H 0.49916 0.85523 0.57699 0.0
O791 O 0.36239 0.88593 0.65156 0.0
H792 H 0.42299 0.01551 0.62009 0.0
H793 H 0.32313 0.97464 0.63136 0.0
H794 H 0.3358 0.02307 0.64749 0.0
H795 H 0.38605 0.04382 0.64186 0.0
H796 H 0.40949 0.96704 0.60448 0.0
H797 H 0.29323 0.00059 0.56147 0.0
H798 H 0.2462 0.97368 0.56802 0.0
O799 O 0.33479 0.91964 0.63343 0.0
C800 C 0.35248 0.86319 0.59747 0.0
C801 C 0.26676 0.93973 0.58763 0.0
C802 C 0.29303 0.98059 0.57129 0.0
N803 N 0.3191 0.94451 0.59288 0.0
C804 C 0.29336 0.92949 0.59647 0.0
C805 C 0.31922 0.96967 0.58037 0.0
C806 C 0.26665 0.96549 0.57498 0.0
C807 C 0.45295 0.89134 0.61195 0.0
N808 N 0.43231 0.86972 0.61509 0.0
C809 C 0.47729 0.8865 0.59821 0.0
C810 C 0.48044 0.85927 0.58771 0.0
C811 C 0.45933 0.8373 0.59105 0.0
C812 C 0.43522 0.84297 0.60485 0.0
C813 C 0.43498 0.80861 0.66993 0.0
C814 C 0.38005 0.823 0.65291 0.0
C815 C 0.43067 0.83467 0.65797 0.0
N816 N 0.4035 0.84146 0.64953 0.0
C817 C 0.38353 0.79676 0.66479 0.0
C818 C 0.41122 0.78955 0.67332 0.0
C819 C 0.33961 0.90236 0.64977 0.0
C820 C 0.40101 0.00673 0.62263 0.0
C821 C 0.34507 0.98347 0.62893 0.0
C822 C 0.3521 0.01094 0.63804 0.0
C823 C 0.38029 0.02258 0.63486 0.0
N824 N 0.36552 0.96803 0.61696 0.0
C825 C 0.39319 0.97933 0.61375 0.0
Co826 Co 0.61939 0.40308 0.63531 0.0
Co827 Co 0.57197 0.35727 0.60655 0.0
O828 O 0.58408 0.39571 0.61785 0.0
C829 C 0.57053 0.42318 0.6632 0.0
O830 O 0.55764 0.39843 0.65731 0.0
C831 C 0.57673 0.39648 0.56805 0.0
O832 O 0.60363 0.40219 0.57493 0.0
O833 O 0.61234 0.34892 0.59519 0.0
O834 O 0.64326 0.37604 0.61609 0.0
H835 H 0.58068 0.24799 0.59354 0.0
H836 H 0.58494 0.4535 0.6177 0.0
O837 O 0.59587 0.42968 0.65534 0.0
H838 H 0.68414 0.46329 0.58477 0.0
H839 H 0.68936 0.46719 0.67867 0.0
H840 H 0.66788 0.36597 0.65311 0.0
H841 H 0.6731 0.42277 0.61081 0.0
H842 H 0.6453 0.45695 0.65586 0.0
O843 O 0.5612 0.37707 0.57798 0.0
H844 H 0.59589 0.29634 0.60856 0.0
H845 H 0.52147 0.33729 0.57872 0.0
H846 H 0.71232 0.37524 0.67572 0.0
H847 H 0.59502 0.4944 0.59178 0.0
H848 H 0.72328 0.42616 0.68865 0.0
H849 H 0.64491 0.49942 0.57507 0.0
O850 O 0.61013 0.36941 0.6551 0.0
H851 H 0.48097 0.41886 0.61883 0.0
H852 H 0.52881 0.32295 0.63351 0.0
H853 H 0.47924 0.33284 0.64875 0.0
H854 H 0.45498 0.38107 0.64141 0.0
H855 H 0.53063 0.4082 0.60411 0.0
H856 H 0.50555 0.28941 0.56323 0.0
H857 H 0.5352 0.24432 0.5707 0.0
O858 O 0.5825 0.33757 0.63525 0.0
C859 C 0.63824 0.35654 0.60126 0.0
C860 C 0.56751 0.26746 0.59024 0.0
C861 C 0.52537 0.29072 0.5732 0.0
N862 N 0.55943 0.31952 0.59468 0.0
C863 C 0.57596 0.29487 0.59876 0.0
C864 C 0.53451 0.31776 0.58198 0.0
C865 C 0.54201 0.26542 0.57741 0.0
C866 C 0.60679 0.45575 0.61068 0.0
N867 N 0.62846 0.43592 0.61586 0.0
C868 C 0.61233 0.47887 0.59595 0.0
C869 C 0.64031 0.48164 0.58655 0.0
C870 C 0.66233 0.46136 0.59197 0.0
C871 C 0.65595 0.43846 0.60671 0.0
C872 C 0.68487 0.44493 0.67307 0.0
C873 C 0.67265 0.38822 0.65854 0.0
C874 C 0.65995 0.439 0.66019 0.0
N875 N 0.65424 0.41096 0.65297 0.0
C876 C 0.69777 0.39332 0.6714 0.0
C877 C 0.70389 0.42189 0.67867 0.0
C878 C 0.59637 0.34501 0.65282 0.0
C879 C 0.49128 0.39773 0.62209 0.0
C880 C 0.51843 0.34402 0.63028 0.0
C881 C 0.49033 0.34947 0.63892 0.0
C882 C 0.47672 0.37653 0.63478 0.0
N883 N 0.53255 0.36491 0.61782 0.0
C884 C 0.51934 0.3915 0.6137 0.0
Co885 Co 0.09938 0.62116 0.63528 0.0
Co886 Co 0.14158 0.57033 0.60656 0.0
O887 O 0.10436 0.58491 0.61841 0.0
C888 C 0.07942 0.57366 0.66459 0.0
O889 O 0.10369 0.56009 0.65849 0.0
C890 C 0.1015 0.57684 0.5686 0.0
O891 O 0.09664 0.60383 0.57563 0.0
O892 O 0.15222 0.61017 0.59497 0.0
O893 O 0.12563 0.64321 0.61442 0.0
H894 H 0.25088 0.57222 0.59216 0.0
H895 H 0.0468 0.58743 0.6205 0.0
O896 O 0.07349 0.59918 0.6568 0.0
H897 H 0.03744 0.68551 0.58567 0.0
H898 H 0.04044 0.6946 0.67951 0.0
H899 H 0.13889 0.66966 0.64997 0.0
H900 H 0.07946 0.67434 0.61031 0.0
H901 H 0.04786 0.64929 0.6575 0.0
O902 O 0.12062 0.56069 0.57827 0.0
H903 H 0.20392 0.59032 0.60785 0.0
H904 H 0.15774 0.51869 0.57846 0.0
H905 H 0.13244 0.7153 0.67175 0.0
H906 H 0.0044 0.59768 0.59603 0.0
H907 H 0.08292 0.72801 0.68669 0.0
H908 H 0.99958 0.64699 0.57837 0.0
O909 O 0.13438 0.6121 0.65391 0.0
H910 H 0.07398 0.48421 0.62071 0.0
H911 H 0.174 0.52449 0.6323 0.0
H912 H 0.16113 0.47589 0.64805 0.0
H913 H 0.11079 0.45544 0.64227 0.0
H914 H 0.08769 0.53284 0.60547 0.0
H915 H 0.20416 0.49991 0.56232 0.0
H916 H 0.25117 0.52669 0.56921 0.0
O917 O 0.16241 0.57954 0.635 0.0
C918 C 0.14516 0.63666 0.59996 0.0
C919 C 0.23055 0.56029 0.58911 0.0
C920 C 0.20432 0.51973 0.57233 0.0
N921 N 0.1782 0.55543 0.59423 0.0
C922 C 0.20392 0.57038 0.59801 0.0
C923 C 0.17811 0.5305 0.58147 0.0
C924 C 0.23069 0.53477 0.57621 0.0
C925 C 0.04467 0.60905 0.61307 0.0
N926 N 0.06544 0.63033 0.61695 0.0
C927 C 0.02068 0.61468 0.59916 0.0
C928 C 0.01803 0.64234 0.58923 0.0
C929 C 0.03927 0.66396 0.5933 0.0
C930 C 0.06301 0.6575 0.60726 0.0
C931 C 0.06211 0.68933 0.67305 0.0
C932 C 0.11724 0.67515 0.6563 0.0
C933 C 0.06645 0.66369 0.66061 0.0
N934 N 0.09372 0.657 0.65231 0.0
C935 C 0.11374 0.70097 0.66867 0.0
C936 C 0.08595 0.70808 0.67707 0.0
C937 C 0.15733 0.59598 0.65177 0.0
C938 C 0.096 0.49286 0.62331 0.0
C939 C 0.15203 0.51579 0.62981 0.0
C940 C 0.14489 0.48822 0.6387 0.0
C941 C 0.11665 0.47675 0.63543 0.0
N942 N 0.13165 0.5315 0.61797 0.0
C943 C 0.10394 0.52034 0.61464 0.0
C944 C 0.1888 0.66359 0.09824 0.0
C945 C 0.15978 0.66737 0.09043 0.0
C946 C 0.21093 0.68378 0.09269 0.0
C947 C 0.25749 0.72502 0.07468 0.0
H948 H 0.23266 0.80693 0.07674 0.0
C949 C 0.34358 0.81843 0.0767 0.0
C950 C 0.33825 0.84066 0.09248 0.0
C951 C 0.32116 0.79878 0.07059 0.0
C952 C 0.24003 0.78418 0.07615 0.0
H953 H 0.13194 0.69419 0.06915 0.0
H954 H 0.17076 0.72887 0.05895 0.0
H955 H 0.19571 0.76801 0.07699 0.0
H956 H 0.3045 0.86067 0.11315 0.0
H957 H 0.2659 0.82614 0.10303 0.0
H958 H 0.30183 0.74112 0.07547 0.0
C959 C 0.17619 0.71078 0.06995 0.0
C960 C 0.21876 0.76178 0.07595 0.0
C961 C 0.15396 0.69071 0.07567 0.0
C962 C 0.30951 0.84381 0.101 0.0
C963 C 0.28721 0.82402 0.09504 0.0
C964 C 0.27876 0.74741 0.07511 0.0
C965 C 0.20474 0.70813 0.07896 0.0
C966 C 0.22722 0.73186 0.07581 0.0
C967 C 0.29292 0.80074 0.08021 0.0
C968 C 0.27032 0.77729 0.07645 0.0
H969 H 0.19421 0.64588 0.10959 0.0
H970 H 0.23249 0.68108 0.10017 0.0
H971 H 0.26486 0.70227 0.07412 0.0
H972 H 0.36537 0.81548 0.06962 0.0
H973 H 0.32622 0.78156 0.05875 0.0
C974 C 0.8389 0.18748 0.09477 0.0
C975 C 0.83501 0.15831 0.08731 0.0
C976 C 0.81955 0.20981 0.08814 0.0
C977 C 0.78 0.2566 0.06862 0.0
H978 H 0.69776 0.23274 0.06873 0.0
C979 C 0.68793 0.34392 0.07116 0.0
C980 C 0.66553 0.33827 0.08674 0.0
C981 C 0.70718 0.32142 0.0645 0.0
C982 C 0.7206 0.23984 0.06866 0.0
H983 H 0.80909 0.13037 0.0655 0.0
H984 H 0.77592 0.16955 0.05341 0.0
H985 H 0.73616 0.19534 0.06969 0.0
H986 H 0.64465 0.3039 0.10635 0.0
H987 H 0.67846 0.2652 0.09535 0.0
H988 H 0.76443 0.30111 0.06937 0.0
C989 C 0.79338 0.17496 0.06496 0.0
C990 C 0.74274 0.21831 0.06886 0.0
C991 C 0.81259 0.15251 0.07177 0.0
C992 C 0.66169 0.30919 0.0944 0.0
C993 C 0.68106 0.28681 0.08791 0.0
C994 C 0.75786 0.27813 0.06869 0.0
C995 C 0.79598 0.20369 0.07365 0.0
C996 C 0.77275 0.22641 0.06956 0.0
C997 C 0.70461 0.29279 0.07338 0.0
C998 C 0.72786 0.27004 0.06943 0.0
H999 H 0.85594 0.19288 0.10667 0.0
H1000 H 0.82218 0.2315 0.09542 0.0
H1001 H 0.80285 0.2637 0.06865 0.0
H1002 H 0.6914 0.36599 0.06473 0.0
H1003 H 0.72463 0.32672 0.05291 0.0
C1004 C 0.18644 0.83611 0.40056 0.0
C1005 C 0.15751 0.8317 0.40837 0.0
C1006 C 0.20909 0.81666 0.40639 0.0
C1007 C 0.25671 0.77718 0.42493 0.0
H1008 H 0.23426 0.69456 0.42361 0.0
C1009 C 0.34556 0.68649 0.42303 0.0
C1010 C 0.34075 0.66399 0.40737 0.0
C1011 C 0.32259 0.70543 0.42925 0.0
C1012 C 0.24097 0.71752 0.424 0.0
H1013 H 0.13031 0.80455 0.42988 0.0
H1014 H 0.17003 0.77116 0.44055 0.0
H1015 H 0.1962 0.73237 0.42305 0.0
H1016 H 0.30738 0.64271 0.38707 0.0
H1017 H 0.26782 0.67602 0.39734 0.0
H1018 H 0.30149 0.76239 0.42421 0.0
C1019 C 0.17501 0.78917 0.42936 0.0
C1020 C 0.21906 0.73929 0.42402 0.0
C1021 C 0.15225 0.8085 0.42337 0.0
C1022 C 0.31201 0.65981 0.39912 0.0
C1023 C 0.28915 0.67889 0.40516 0.0
C1024 C 0.27862 0.75542 0.42467 0.0
C1025 C 0.20352 0.79245 0.42039 0.0
C1026 C 0.22665 0.76944 0.42385 0.0
C1027 C 0.2943 0.70248 0.41984 0.0
C1028 C 0.27105 0.72529 0.42357 0.0
H1029 H 0.19143 0.85374 0.38903 0.0
H1030 H 0.2306 0.81981 0.39892 0.0
H1031 H 0.26342 0.80014 0.42527 0.0
H1032 H 0.36734 0.69022 0.42992 0.0
H1033 H 0.32724 0.72291 0.44097 0.0
C1034 C 0.80201 0.34942 0.4145 0.0
C1035 C 0.832 0.34526 0.40934 0.0
C1036 C 0.7842 0.32541 0.4203 0.0
C1037 C 0.78222 0.24407 0.41296 0.0
H1038 H 0.70943 0.25137 0.44637 0.0
C1039 C 0.70112 0.14723 0.41979 0.0
C1040 C 0.67288 0.15422 0.41156 0.0
C1041 C 0.72104 0.16962 0.42535 0.0
C1042 C 0.72979 0.24902 0.43712 0.0
H1043 H 0.86739 0.31306 0.4081 0.0
H1044 H 0.83679 0.27146 0.41933 0.0
H1045 H 0.74485 0.29214 0.44624 0.0
H1046 H 0.64268 0.19027 0.40449 0.0
H1047 H 0.6774 0.22927 0.41456 0.0
H1048 H 0.76709 0.20098 0.40389 0.0
C1049 C 0.82659 0.29301 0.41794 0.0
C1050 C 0.75004 0.27241 0.43689 0.0
C1051 C 0.84427 0.31693 0.41169 0.0
C1052 C 0.66428 0.18407 0.41066 0.0
C1053 C 0.68411 0.20645 0.41652 0.0
C1054 C 0.76227 0.22058 0.41353 0.0
C1055 C 0.79605 0.29669 0.4215 0.0
C1056 C 0.77624 0.27055 0.42434 0.0
C1057 C 0.71301 0.19944 0.42315 0.0
C1058 C 0.73557 0.22304 0.42519 0.0
H1059 H 0.79181 0.37093 0.41278 0.0
H1060 H 0.76081 0.32928 0.42263 0.0
H1061 H 0.80169 0.24182 0.4027 0.0
H1062 H 0.70851 0.12452 0.42079 0.0
H1063 H 0.74313 0.16364 0.4306 0.0
C1064 C 0.82078 0.33454 0.90976 0.0
C1065 C 0.85066 0.32601 0.9105 0.0
C1066 C 0.79843 0.31426 0.91479 0.0
C1067 C 0.784 0.23696 0.90819 0.0
H1068 H 0.71454 0.24984 0.94442 0.0
C1069 C 0.68853 0.15356 0.9057 0.0
C1070 C 0.65979 0.16527 0.90595 0.0
C1071 C 0.71275 0.17116 0.91145 0.0
C1072 C 0.73362 0.24596 0.93402 0.0
H1073 H 0.88041 0.28988 0.91849 0.0
H1074 H 0.84134 0.25447 0.92671 0.0
H1075 H 0.75488 0.28573 0.94514 0.0
H1076 H 0.6339 0.20437 0.91333 0.0
H1077 H 0.67589 0.23533 0.92217 0.0
H1078 H 0.76247 0.19856 0.89575 0.0
C1079 C 0.83534 0.27689 0.92233 0.0
C1080 C 0.75679 0.26645 0.93461 0.0
C1081 C 0.85769 0.29726 0.91768 0.0
C1082 C 0.65572 0.19458 0.91299 0.0
C1083 C 0.67995 0.21236 0.91825 0.0
C1084 C 0.76067 0.21683 0.90722 0.0
C1085 C 0.80553 0.28498 0.92034 0.0
C1086 C 0.78205 0.26224 0.92154 0.0
C1087 C 0.70892 0.20114 0.91707 0.0
C1088 C 0.73492 0.22117 0.9199 0.0
H1089 H 0.81457 0.35651 0.90437 0.0
H1090 H 0.77558 0.32099 0.91305 0.0
H1091 H 0.80309 0.23343 0.89769 0.0
H1092 H 0.6924 0.13095 0.9006 0.0
H1093 H 0.73454 0.16134 0.91096 0.0
C1094 C 0.335 0.68215 0.91015 0.0
C1095 C 0.32616 0.65237 0.9113 0.0
C1096 C 0.31536 0.70475 0.91587 0.0
C1097 C 0.23752 0.71965 0.91263 0.0
H1098 H 0.25495 0.79069 0.94596 0.0
C1099 C 0.15612 0.81655 0.91089 0.0
C1100 C 0.16856 0.84487 0.90907 0.0
C1101 C 0.17358 0.7924 0.917 0.0
C1102 C 0.24977 0.77113 0.93642 0.0
H1103 H 0.29029 0.62308 0.92076 0.0
H1104 H 0.25599 0.6626 0.93028 0.0
H1105 H 0.29013 0.74972 0.94606 0.0
H1106 H 0.20881 0.87028 0.91322 0.0
H1107 H 0.23945 0.82827 0.92275 0.0
H1108 H 0.1984 0.74126 0.90162 0.0
C1109 C 0.27813 0.66832 0.92498 0.0
C1110 C 0.26987 0.74762 0.93664 0.0
C1111 C 0.29787 0.64572 0.91959 0.0
C1112 C 0.19848 0.84877 0.91454 0.0
C1113 C 0.21609 0.82455 0.92017 0.0
C1114 C 0.21774 0.74328 0.91205 0.0
C1115 C 0.28641 0.69804 0.92258 0.0
C1116 C 0.26406 0.72182 0.92452 0.0
C1117 C 0.20408 0.79586 0.9209 0.0
C1118 C 0.22373 0.76958 0.92367 0.0
H1119 H 0.35664 0.68809 0.90393 0.0
H1120 H 0.32224 0.7275 0.91377 0.0
H1121 H 0.23271 0.70017 0.90285 0.0
H1122 H 0.13304 0.81288 0.90705 0.0
H1123 H 0.16325 0.77088 0.91803 0.0
C1124 C 0.69194 0.34288 0.60146 0.0
C1125 C 0.66368 0.33987 0.59208 0.0
C1126 C 0.71481 0.32377 0.59543 0.0
C1127 C 0.72526 0.24856 0.57323 0.0
H1128 H 0.8079 0.2702 0.57741 0.0
C1129 C 0.85082 0.19368 0.5744 0.0
C1130 C 0.84495 0.16968 0.58855 0.0
C1131 C 0.82843 0.21364 0.5688 0.0
C1132 C 0.78499 0.26372 0.57573 0.0
H1133 H 0.63801 0.31572 0.5677 0.0
H1134 H 0.67811 0.283 0.55676 0.0
H1135 H 0.77037 0.30858 0.57775 0.0
H1136 H 0.8103 0.14684 0.6066 0.0
H1137 H 0.77174 0.18179 0.59733 0.0
H1138 H 0.73988 0.20372 0.57109 0.0
C1139 C 0.68237 0.29957 0.56929 0.0
C1140 C 0.76338 0.28579 0.57626 0.0
C1141 C 0.6594 0.31853 0.57545 0.0
C1142 C 0.81576 0.16509 0.59575 0.0
C1143 C 0.79347 0.18513 0.59028 0.0
C1144 C 0.74687 0.22652 0.5725 0.0
C1145 C 0.71011 0.30133 0.57969 0.0
C1146 C 0.7332 0.27844 0.57571 0.0
C1147 C 0.79969 0.21017 0.57728 0.0
C1148 C 0.77698 0.23373 0.57443 0.0
H1149 H 0.69613 0.35906 0.61428 0.0
H1150 H 0.73571 0.32568 0.60402 0.0
H1151 H 0.70228 0.24193 0.57292 0.0
H1152 H 0.87297 0.19782 0.56837 0.0
H1153 H 0.83389 0.23231 0.55836 0.0
C1154 C 0.15943 0.69011 0.59799 0.0
C1155 C 0.16249 0.66111 0.58997 0.0
C1156 C 0.17907 0.71224 0.59145 0.0
C1157 C 0.25538 0.72011 0.57073 0.0
H1158 H 0.2349 0.80319 0.57251 0.0
C1159 C 0.31191 0.84503 0.5725 0.0
C1160 C 0.33502 0.8389 0.58739 0.0
C1161 C 0.2921 0.82284 0.5662 0.0
C1162 C 0.24111 0.78014 0.57146 0.0
H1163 H 0.18732 0.63331 0.56735 0.0
H1164 H 0.22098 0.67217 0.55544 0.0
H1165 H 0.19595 0.76632 0.57242 0.0
H1166 H 0.35651 0.80396 0.60603 0.0
H1167 H 0.32173 0.76581 0.59567 0.0
H1168 H 0.30053 0.73394 0.56955 0.0
C1169 C 0.20395 0.67758 0.56735 0.0
C1170 C 0.21868 0.75891 0.57177 0.0
C1171 C 0.18445 0.65532 0.57406 0.0
C1172 C 0.33895 0.80963 0.59463 0.0
C1173 C 0.319 0.78757 0.58851 0.0
C1174 C 0.2778 0.74135 0.57014 0.0
C1175 C 0.20212 0.70611 0.5765 0.0
C1176 C 0.22553 0.7286 0.57223 0.0
C1177 C 0.29476 0.79405 0.57476 0.0
C1178 C 0.27102 0.77164 0.57132 0.0
H1179 H 0.14278 0.6955 0.61021 0.0
H1180 H 0.17706 0.73377 0.59911 0.0
H1181 H 0.26166 0.69704 0.57116 0.0
H1182 H 0.30834 0.86725 0.56639 0.0
H1183 H 0.27412 0.82852 0.55517 0.0
C1184 C 0.92583 0.46692 0.30475 0.0
C1185 C 0.93518 0.44156 0.3162 0.0
C1186 C 0.94226 0.47797 0.2871 0.0
C1187 C 0.01583 0.481 0.26272 0.0
H1188 H 0.97259 0.50407 0.21006 0.0
C1189 C 0.02852 0.56571 0.1849 0.0
C1190 C 0.05753 0.56 0.17784 0.0
C1191 C 0.01489 0.54749 0.20042 0.0
C1192 C 0.985 0.49787 0.22467 0.0
H1193 H 0.9696 0.40834 0.31843 0.0
H1194 H 0.99869 0.42809 0.28752 0.0
H1195 H 0.94673 0.47958 0.24026 0.0
H1196 H 0.09488 0.53034 0.18132 0.0
H1197 H 0.07082 0.49821 0.20853 0.0
H1198 H 0.05395 0.50026 0.24736 0.0
C1199 C 0.97846 0.43918 0.29227 0.0
C1200 C 0.97019 0.48381 0.24194 0.0
C1201 C 0.96179 0.42788 0.3099 0.0
C1202 C 0.0725 0.53533 0.18646 0.0
C1203 C 0.0588 0.51704 0.20211 0.0
C1204 C 0.03069 0.49529 0.24542 0.0
C1205 C 0.96858 0.46409 0.28052 0.0
C1206 C 0.98527 0.47588 0.26135 0.0
C1207 C 0.02984 0.523 0.20929 0.0
C1208 C 0.01523 0.50455 0.22645 0.0
H1209 H 0.90553 0.47812 0.3092 0.0
H1210 H 0.93439 0.49752 0.2786 0.0
H1211 H 0.02796 0.47518 0.27754 0.0
H1212 H 0.0163 0.58451 0.17861 0.0
H1213 H 0.99277 0.55306 0.20585 0.0
C1214 C 0.95834 0.07158 0.18969 0.0
C1215 C 0.93209 0.05814 0.18233 0.0
C1216 C 0.97449 0.05919 0.20716 0.0
C1217 C 0.96521 0.01057 0.25537 0.0
H1218 H 0.04969 0.99745 0.25127 0.0
C1219 C 0.02473 0.92863 0.31197 0.0
C1220 C 0.05321 0.93537 0.31973 0.0
C1221 C 0.01093 0.94668 0.29641 0.0
C1222 C 0.02619 0.00143 0.25285 0.0
H1223 H 0.90255 0.02089 0.18728 0.0
H1224 H 0.93055 0.99957 0.21761 0.0
H1225 H 0.024 0.02352 0.22146 0.0
H1226 H 0.0894 0.96664 0.31741 0.0
H1227 H 0.06502 0.99847 0.29023 0.0
H1228 H 0.96713 0.98841 0.28655 0.0
C1229 C 0.93852 0.01978 0.21008 0.0
C1230 C 0.0115 0.01629 0.23576 0.0
C1231 C 0.92257 0.03194 0.19258 0.0
C1232 C 0.06746 0.96083 0.31173 0.0
C1233 C 0.05358 0.97896 0.29608 0.0
C1234 C 0.97985 0.99591 0.27245 0.0
C1235 C 0.96448 0.03337 0.21769 0.0
C1236 C 0.98075 0.02037 0.23664 0.0
C1237 C 0.02515 0.97203 0.28822 0.0
C1238 C 0.01038 0.99051 0.27116 0.0
H1239 H 0.96627 0.09175 0.18209 0.0
H1240 H 0.99443 0.07013 0.21273 0.0
H1241 H 0.94158 0.01395 0.2567 0.0
H1242 H 0.01309 0.90919 0.31775 0.0
H1243 H 0.98926 0.94037 0.29045 0.0
C1244 C 0.5398 0.07819 0.3114 0.0
C1245 C 0.56605 0.0637 0.31754 0.0
C1246 C 0.52292 0.06775 0.2936 0.0
C1247 C 0.53021 0.02421 0.24268 0.0
H1248 H 0.4464 0.00815 0.24831 0.0
C1249 C 0.42735 0.97292 0.18764 0.0
C1250 C 0.44216 0.94806 0.17917 0.0
C1251 C 0.44124 0.99138 0.20308 0.0
C1252 C 0.46967 0.01304 0.24631 0.0
H1253 H 0.59483 0.02662 0.31005 0.0
H1254 H 0.56564 0.00874 0.27915 0.0
H1255 H 0.47273 0.03267 0.27857 0.0
H1256 H 0.48333 0.92346 0.17988 0.0
H1257 H 0.50721 0.95522 0.20674 0.0
H1258 H 0.5275 0.00431 0.21069 0.0
C1259 C 0.5582 0.02825 0.28791 0.0
C1260 C 0.48471 0.02702 0.26365 0.0
C1261 C 0.57483 0.03843 0.30574 0.0
C1262 C 0.47123 0.94238 0.18608 0.0
C1263 C 0.48507 0.96078 0.20138 0.0
C1264 C 0.51521 0.01045 0.22537 0.0
C1265 C 0.53225 0.04291 0.28151 0.0
C1266 C 0.5153 0.0319 0.26222 0.0
C1267 C 0.47024 0.98541 0.21016 0.0
C1268 C 0.48497 0.00387 0.22724 0.0
H1269 H 0.53245 0.09769 0.32021 0.0
H1270 H 0.50295 0.07941 0.28899 0.0
H1271 H 0.5537 0.02825 0.24098 0.0
H1272 H 0.40493 0.97788 0.1826 0.0
H1273 H 0.42933 0.0103 0.20944 0.0
C1274 C 0.57395 0.46867 0.18757 0.0
C1275 C 0.56658 0.44047 0.17958 0.0
C1276 C 0.55651 0.48242 0.20353 0.0
C1277 C 0.50218 0.46754 0.24749 0.0
H1278 H 0.49045 0.55228 0.2438 0.0
C1279 C 0.43209 0.53642 0.3102 0.0
C1280 C 0.44548 0.56278 0.31736 0.0
C1281 C 0.44475 0.51983 0.29308 0.0
C1282 C 0.49363 0.52862 0.24509 0.0
H1283 H 0.53491 0.40464 0.18199 0.0
H1284 H 0.50412 0.42894 0.20989 0.0
H1285 H 0.5155 0.52658 0.21381 0.0
H1286 H 0.48312 0.59188 0.31264 0.0
H1287 H 0.50495 0.5631 0.28293 0.0
H1288 H 0.48028 0.46986 0.27895 0.0
C1289 C 0.52365 0.4402 0.20389 0.0
C1290 C 0.50802 0.51389 0.22794 0.0
C1291 C 0.54118 0.42638 0.18784 0.0
C1292 C 0.47206 0.57182 0.30744 0.0
C1293 C 0.48453 0.55542 0.29031 0.0
C1294 C 0.48758 0.48233 0.26466 0.0
C1295 C 0.53114 0.46841 0.21189 0.0
C1296 C 0.51309 0.4833 0.22915 0.0
C1297 C 0.47084 0.52948 0.28274 0.0
C1298 C 0.48379 0.51312 0.26383 0.0
H1299 H 0.59339 0.48018 0.18162 0.0
H1300 H 0.56325 0.5039 0.20961 0.0
H1301 H 0.5059 0.444 0.24898 0.0
H1302 H 0.41162 0.52884 0.31756 0.0
H1303 H 0.43375 0.4999 0.28754 0.0
C1304 C 0.06571 0.5304 0.68798 0.0
C1305 C 0.0595 0.55922 0.68071 0.0
C1306 C 0.04772 0.51665 0.70359 0.0
C1307 C 0.99483 0.53177 0.74832 0.0
H1308 H 0.98066 0.44754 0.74323 0.0
C1309 C 0.92835 0.46118 0.81256 0.0
C1310 C 0.94288 0.43507 0.81899 0.0
C1311 C 0.93929 0.4782 0.79498 0.0
C1312 C 0.98443 0.47107 0.74487 0.0
H1313 H 0.02924 0.59612 0.68399 0.0
H1314 H 0.99751 0.57184 0.71135 0.0
H1315 H 0.00494 0.47374 0.7131 0.0
H1316 H 0.98059 0.40675 0.8123 0.0
H1317 H 0.99929 0.43615 0.78178 0.0
H1318 H 0.97447 0.52876 0.78035 0.0
C1319 C 0.01655 0.56007 0.70502 0.0
C1320 C 0.99839 0.48608 0.72765 0.0
C1321 C 0.03462 0.5739 0.68928 0.0
C1322 C 0.96871 0.42662 0.80775 0.0
C1323 C 0.97938 0.44337 0.79015 0.0
C1324 C 0.98063 0.51671 0.76557 0.0
C1325 C 0.02294 0.53126 0.71234 0.0
C1326 C 0.00456 0.51642 0.72943 0.0
C1327 C 0.96467 0.46914 0.78341 0.0
C1328 C 0.97609 0.48606 0.76423 0.0
H1329 H 0.08469 0.51841 0.68175 0.0
H1330 H 0.05362 0.49467 0.70914 0.0
H1331 H 0.99937 0.55512 0.75025 0.0
H1332 H 0.90844 0.46829 0.82095 0.0
H1333 H 0.92757 0.49802 0.79011 0.0
C1334 C 0.0397 0.93232 0.81108 0.0
C1335 C 0.06523 0.94653 0.81901 0.0
C1336 C 0.0218 0.94604 0.7952 0.0
C1337 C 0.00567 0.01955 0.77089 0.0
H1338 H 0.97821 0.97516 0.71999 0.0
C1339 C 0.9717 0.07655 0.69053 0.0
C1340 C 0.94526 0.06764 0.68033 0.0
C1341 C 0.9835 0.06039 0.70806 0.0
C1342 C 0.9854 0.98773 0.73426 0.0
H1343 H 0.0918 0.98635 0.81662 0.0
H1344 H 0.06104 0.00987 0.78894 0.0
H1345 H 0.0036 0.9495 0.75017 0.0
H1346 H 0.9109 0.03421 0.68014 0.0
H1347 H 0.93189 0.00564 0.71083 0.0
H1348 H 0.98832 0.05785 0.75476 0.0
C1349 C 0.05449 0.98839 0.79513 0.0
C1350 C 0.99987 0.97306 0.75155 0.0
C1351 C 0.0723 0.97475 0.81091 0.0
C1352 C 0.93127 0.04168 0.6877 0.0
C1353 C 0.94329 0.0253 0.7052 0.0
C1354 C 0.99142 0.03417 0.75361 0.0
C1355 C 0.02904 0.97425 0.78705 0.0
C1356 C 0.01077 0.98895 0.76983 0.0
C1357 C 0.96928 0.0348 0.71575 0.0
C1358 C 0.98172 0.01854 0.7349 0.0
H1359 H 0.03366 0.91056 0.81702 0.0
H1360 H 0.00222 0.93467 0.7894 0.0
H1361 H 0.01314 0.03235 0.78497 0.0
H1362 H 0.98319 0.09632 0.68521 0.0
H1363 H 0.00385 0.06794 0.71561 0.0
C1364 C 0.52514 0.06361 0.81334 0.0
C1365 C 0.55376 0.05738 0.82103 0.0
C1366 C 0.51152 0.04522 0.79791 0.0
C1367 C 0.48124 0.99577 0.77365 0.0
H1368 H 0.52604 0.97001 0.72245 0.0
C1369 C 0.42506 0.96278 0.69273 0.0
C1370 C 0.43454 0.93688 0.68205 0.0
C1371 C 0.44084 0.9742 0.71059 0.0
C1372 C 0.51337 0.97669 0.73681 0.0
H1373 H 0.59035 0.02658 0.81884 0.0
H1374 H 0.56632 0.99417 0.79185 0.0
H1375 H 0.55126 0.99547 0.75277 0.0
H1376 H 0.46849 0.90306 0.68141 0.0
H1377 H 0.49641 0.92345 0.71266 0.0
H1378 H 0.44325 0.97791 0.75742 0.0
C1379 C 0.55461 0.01353 0.79767 0.0
C1380 C 0.52779 0.9912 0.75419 0.0
C1381 C 0.56829 0.03198 0.81321 0.0
C1382 C 0.46061 0.92302 0.68933 0.0
C1383 C 0.4766 0.93469 0.70716 0.0
C1384 C 0.46687 0.98147 0.75628 0.0
C1385 C 0.52611 0.02005 0.78978 0.0
C1386 C 0.51173 0.00153 0.77257 0.0
C1387 C 0.4666 0.96017 0.71813 0.0
C1388 C 0.48264 0.9724 0.73746 0.0
H1389 H 0.51328 0.08297 0.81901 0.0
H1390 H 0.48977 0.05121 0.79193 0.0
H1391 H 0.46834 0.00282 0.78779 0.0
H1392 H 0.40518 0.97413 0.68752 0.0
H1393 H 0.43289 0.99418 0.71847 0.0
C1394 C 0.57007 0.46807 0.68778 0.0
C1395 C 0.55662 0.44183 0.68038 0.0
C1396 C 0.55766 0.48421 0.70525 0.0
C1397 C 0.51052 0.47359 0.75382 0.0
H1398 H 0.49537 0.55784 0.75116 0.0
C1399 C 0.4282 0.52899 0.81199 0.0
C1400 C 0.43422 0.55731 0.82035 0.0
C1401 C 0.44641 0.51634 0.79601 0.0
C1402 C 0.49995 0.53441 0.75232 0.0
H1403 H 0.51909 0.41257 0.68504 0.0
H1404 H 0.49777 0.44051 0.7154 0.0
H1405 H 0.52113 0.53346 0.72052 0.0
H1406 H 0.46435 0.59451 0.81863 0.0
H1407 H 0.49653 0.57213 0.79063 0.0
H1408 H 0.48933 0.47422 0.78539 0.0
C1409 C 0.51801 0.44845 0.70789 0.0
C1410 C 0.51461 0.52048 0.73477 0.0
C1411 C 0.53018 0.43254 0.69039 0.0
C1412 C 0.45914 0.57264 0.81249 0.0
C1413 C 0.47745 0.55991 0.79639 0.0
C1414 C 0.49611 0.48747 0.77135 0.0
C1415 C 0.53182 0.47417 0.71573 0.0
C1416 C 0.51929 0.4898 0.73513 0.0
C1417 C 0.47124 0.53159 0.78799 0.0
C1418 C 0.48991 0.51787 0.77056 0.0
H1419 H 0.59043 0.47583 0.68036 0.0
H1420 H 0.56871 0.504 0.71099 0.0
H1421 H 0.51442 0.45001 0.75473 0.0
H1422 H 0.4092 0.51653 0.81764 0.0
H1423 H 0.44063 0.49474 0.78963 0.0
C1424 C 0.1189 0.68234 0.18374 0.0
C1425 C 0.09352 0.6786 0.17073 0.0
C1426 C 0.11796 0.69955 0.20287 0.0
C1427 C 0.07156 0.75459 0.2331 0.0
H1428 H 0.12148 0.73113 0.28225 0.0
C1429 C 0.06497 0.80194 0.32271 0.0
C1430 C 0.09101 0.81692 0.32858 0.0
C1431 C 0.06423 0.78416 0.3038 0.0
C1432 C 0.10742 0.73779 0.26862 0.0
H1433 H 0.04724 0.68985 0.16741 0.0
H1434 H 0.04509 0.71882 0.20133 0.0
H1435 H 0.12172 0.70201 0.24833 0.0
H1436 H 0.13686 0.82441 0.31981 0.0
H1437 H 0.1358 0.79233 0.28722 0.0
H1438 H 0.05663 0.78982 0.25408 0.0
C1439 C 0.06607 0.70936 0.19647 0.0
C1440 C 0.10773 0.72138 0.24908 0.0
C1441 C 0.06721 0.69267 0.17703 0.0
C1442 C 0.1165 0.81315 0.31561 0.0
C1443 C 0.11594 0.79482 0.29706 0.0
C1444 C 0.0708 0.7706 0.25286 0.0
C1445 C 0.09139 0.71283 0.20977 0.0
C1446 C 0.09014 0.72979 0.2309 0.0
C1447 C 0.08972 0.78055 0.29088 0.0
C1448 C 0.08899 0.76249 0.27062 0.0
H1449 H 0.13956 0.67194 0.17912 0.0
H1450 H 0.13816 0.70235 0.21223 0.0
H1451 H 0.05805 0.76209 0.21943 0.0
H1452 H 0.04497 0.80469 0.33231 0.0
H1453 H 0.04382 0.77325 0.29925 0.0
C1454 C 0.81165 0.1198 0.18054 0.0
C1455 C 0.81612 0.09406 0.16799 0.0
C1456 C 0.79333 0.11929 0.19911 0.0
C1457 C 0.77042 0.07278 0.24352 0.0
H1458 H 0.70397 0.12591 0.25079 0.0
C1459 C 0.69497 0.06772 0.32055 0.0
C1460 C 0.68198 0.09405 0.32801 0.0
C1461 C 0.71096 0.06719 0.30078 0.0
C1462 C 0.72276 0.11127 0.24927 0.0
H1463 H 0.80493 0.04767 0.1649 0.0
H1464 H 0.77348 0.04662 0.19794 0.0
H1465 H 0.73179 0.12614 0.21625 0.0
H1466 H 0.67649 0.14072 0.32122 0.0
H1467 H 0.70573 0.1403 0.28746 0.0
H1468 H 0.76267 0.05882 0.27677 0.0
C1469 C 0.78385 0.0672 0.19308 0.0
C1470 C 0.73845 0.11125 0.22937 0.0
C1471 C 0.80163 0.06787 0.17417 0.0
C1472 C 0.68609 0.12005 0.31574 0.0
C1473 C 0.70261 0.11969 0.29624 0.0
C1474 C 0.75516 0.07322 0.26362 0.0
C1475 C 0.77974 0.09288 0.20573 0.0
C1476 C 0.76235 0.092 0.22636 0.0
C1477 C 0.71484 0.09315 0.28825 0.0
C1478 C 0.73112 0.09251 0.2668 0.0
H1479 H 0.82254 0.14027 0.17611 0.0
H1480 H 0.79052 0.1393 0.20872 0.0
H1481 H 0.78907 0.058 0.24159 0.0
H1482 H 0.69182 0.04726 0.32953 0.0
H1483 H 0.71954 0.04622 0.29507 0.0
C1484 C 0.38586 0.67421 0.3086 0.0
C1485 C 0.4051 0.67963 0.32643 0.0
C1486 C 0.38572 0.69273 0.29016 0.0
C1487 C 0.43147 0.74552 0.25945 0.0
H1488 H 0.35669 0.76957 0.23378 0.0
C1489 C 0.42233 0.80391 0.17438 0.0
C1490 C 0.40323 0.82839 0.17345 0.0
C1491 C 0.4228 0.78566 0.19306 0.0
C1492 C 0.37775 0.76314 0.24081 0.0
H1493 H 0.43912 0.7091 0.33885 0.0
H1494 H 0.43884 0.74148 0.30651 0.0
H1495 H 0.35706 0.7389 0.26696 0.0
H1496 H 0.36934 0.85256 0.19139 0.0
H1497 H 0.3702 0.82074 0.22376 0.0
H1498 H 0.45212 0.76999 0.23331 0.0
C1499 C 0.42404 0.72268 0.30685 0.0
C1500 C 0.37796 0.7454 0.25969 0.0
C1501 C 0.42406 0.70422 0.32542 0.0
C1502 C 0.38438 0.83394 0.19149 0.0
C1503 C 0.38473 0.81561 0.21004 0.0
C1504 C 0.43126 0.76314 0.24043 0.0
C1505 C 0.40488 0.71708 0.28903 0.0
C1506 C 0.40481 0.73641 0.26922 0.0
C1507 C 0.404 0.79136 0.21107 0.0
C1508 C 0.40438 0.77217 0.23096 0.0
H1509 H 0.37092 0.65551 0.30876 0.0
H1510 H 0.37092 0.68769 0.27659 0.0
H1511 H 0.45249 0.7387 0.26632 0.0
H1512 H 0.4371 0.79893 0.16078 0.0
H1513 H 0.43767 0.76691 0.19332 0.0
C1514 C 0.68872 0.37781 0.17976 0.0
C1515 C 0.68426 0.40335 0.16698 0.0
C1516 C 0.70722 0.37855 0.19823 0.0
C1517 C 0.73036 0.42525 0.24221 0.0
H1518 H 0.79807 0.37361 0.24897 0.0
C1519 C 0.80663 0.43237 0.31862 0.0
C1520 C 0.82038 0.40642 0.32604 0.0
C1521 C 0.79046 0.43242 0.29893 0.0
C1522 C 0.77893 0.38783 0.2476 0.0
H1523 H 0.69567 0.44962 0.16337 0.0
H1524 H 0.7274 0.45109 0.19623 0.0
H1525 H 0.76969 0.37265 0.21468 0.0
H1526 H 0.82714 0.35992 0.31927 0.0
H1527 H 0.79757 0.35947 0.28566 0.0
H1528 H 0.7383 0.43947 0.27536 0.0
C1529 C 0.71689 0.43048 0.19163 0.0
C1530 C 0.76293 0.38744 0.22784 0.0
C1531 C 0.69894 0.42957 0.17282 0.0
C1532 C 0.81693 0.38031 0.3138 0.0
C1533 C 0.80021 0.38017 0.29439 0.0
C1534 C 0.74593 0.4252 0.26217 0.0
C1535 C 0.721 0.405 0.20451 0.0
C1536 C 0.73859 0.40617 0.22502 0.0
C1537 C 0.78713 0.40634 0.28646 0.0
C1538 C 0.77046 0.40647 0.26517 0.0
H1539 H 0.67769 0.35731 0.17559 0.0
H1540 H 0.71004 0.3587 0.20803 0.0
H1541 H 0.71138 0.43964 0.24041 0.0
H1542 H 0.80927 0.45292 0.32757 0.0
H1543 H 0.78125 0.45315 0.29325 0.0
C1544 C 0.93679 0.19878 0.67449 0.0
C1545 C 0.91055 0.18425 0.6685 0.0
C1546 C 0.93775 0.21634 0.6935 0.0
C1547 C 0.89422 0.26168 0.72993 0.0
H1548 H 0.94707 0.23785 0.77718 0.0
C1549 C 0.88593 0.31449 0.81606 0.0
C1550 C 0.912 0.31879 0.8282 0.0
C1551 C 0.88624 0.29786 0.79663 0.0
C1552 C 0.93256 0.24523 0.76406 0.0
H1553 H 0.86454 0.17746 0.67711 0.0
H1554 H 0.866 0.20911 0.70991 0.0
H1555 H 0.94752 0.2111 0.74213 0.0
H1556 H 0.95884 0.30921 0.82961 0.0
H1557 H 0.95979 0.28127 0.79521 0.0
H1558 H 0.87981 0.29638 0.75123 0.0
C1559 C 0.88584 0.20648 0.70007 0.0
C1560 C 0.93278 0.22978 0.74405 0.0
C1561 C 0.88506 0.18837 0.6814 0.0
C1562 C 0.93835 0.30592 0.8207 0.0
C1563 C 0.93882 0.28981 0.80098 0.0
C1564 C 0.89441 0.27755 0.74973 0.0
C1565 C 0.91229 0.2202 0.70643 0.0
C1566 C 0.91338 0.23771 0.72697 0.0
C1567 C 0.91279 0.28573 0.78857 0.0
C1568 C 0.91331 0.26931 0.76721 0.0
H1569 H 0.9568 0.19577 0.66494 0.0
H1570 H 0.95834 0.22683 0.69816 0.0
H1571 H 0.87921 0.26823 0.71685 0.0
H1572 H 0.86524 0.32398 0.8216 0.0
H1573 H 0.86558 0.29456 0.78795 0.0
C1574 C 0.30505 0.92898 0.67509 0.0
C1575 C 0.31882 0.90264 0.66851 0.0
C1576 C 0.28787 0.92981 0.6943 0.0
C1577 C 0.2743 0.88697 0.74612 0.0
H1578 H 0.20778 0.94041 0.75187 0.0
C1579 C 0.18507 0.88161 0.81485 0.0
C1580 C 0.18178 0.90771 0.82718 0.0
C1581 C 0.20268 0.88125 0.79589 0.0
C1582 C 0.22644 0.92554 0.75044 0.0
H1583 H 0.32435 0.85621 0.6761 0.0
H1584 H 0.29303 0.85709 0.70879 0.0
H1585 H 0.23509 0.93844 0.71707 0.0
H1586 H 0.19413 0.95391 0.82937 0.0
H1587 H 0.22431 0.95343 0.79567 0.0
H1588 H 0.2645 0.87324 0.77928 0.0
C1589 C 0.29645 0.87752 0.69983 0.0
C1590 C 0.24222 0.92446 0.73058 0.0
C1591 C 0.31417 0.87688 0.68095 0.0
C1592 C 0.1965 0.93344 0.82027 0.0
C1593 C 0.21356 0.93325 0.80098 0.0
C1594 C 0.25811 0.88761 0.76577 0.0
C1595 C 0.28357 0.90413 0.70708 0.0
C1596 C 0.26642 0.90517 0.72813 0.0
C1597 C 0.21671 0.90715 0.78868 0.0
C1598 C 0.23415 0.90695 0.76808 0.0
H1599 H 0.30859 0.94924 0.66595 0.0
H1600 H 0.27877 0.95083 0.69943 0.0
H1601 H 0.29321 0.87238 0.74518 0.0
H1602 H 0.174 0.86146 0.81985 0.0
H1603 H 0.20481 0.86093 0.78656 0.0
C1604 C 0.59873 0.16396 0.80378 0.0
C1605 C 0.59334 0.17592 0.82488 0.0
C1606 C 0.59806 0.18196 0.78503 0.0
C1607 C 0.61071 0.25668 0.76666 0.0
H1608 H 0.56126 0.23703 0.71635 0.0
C1609 C 0.59854 0.33668 0.69354 0.0
C1610 C 0.59538 0.32506 0.67212 0.0
C1611 C 0.59753 0.31823 0.71199 0.0
C1612 C 0.5756 0.24262 0.73006 0.0
H1613 H 0.58313 0.21611 0.84287 0.0
H1614 H 0.58287 0.24777 0.81001 0.0
H1615 H 0.5612 0.20514 0.74895 0.0
H1616 H 0.58867 0.28497 0.65319 0.0
H1617 H 0.58825 0.25239 0.68539 0.0
H1618 H 0.62615 0.29337 0.74777 0.0
C1619 C 0.5873 0.22438 0.8081 0.0
C1620 C 0.57536 0.22444 0.74877 0.0
C1621 C 0.58737 0.20628 0.82684 0.0
C1622 C 0.59111 0.29453 0.66952 0.0
C1623 C 0.59066 0.27592 0.68802 0.0
C1624 C 0.6114 0.27455 0.74784 0.0
C1625 C 0.59255 0.21233 0.78705 0.0
C1626 C 0.59276 0.23146 0.76725 0.0
C1627 C 0.59391 0.28754 0.70952 0.0
C1628 C 0.59367 0.26793 0.72933 0.0
H1629 H 0.60317 0.1406 0.80172 0.0
H1630 H 0.60232 0.17224 0.76896 0.0
H1631 H 0.62463 0.26228 0.78063 0.0
H1632 H 0.60135 0.36021 0.6961 0.0
H1633 H 0.59928 0.32819 0.72822 0.0
C1634 C 0.31247 0.61779 0.8164 0.0
C1635 C 0.31646 0.59163 0.82849 0.0
C1636 C 0.29536 0.61788 0.79719 0.0
C1637 C 0.24099 0.5726 0.76529 0.0
H1638 H 0.26352 0.62587 0.71789 0.0
C1639 C 0.19314 0.56913 0.67604 0.0
C1640 C 0.17832 0.59535 0.6704 0.0
C1641 C 0.21103 0.56803 0.69488 0.0
C1642 C 0.25709 0.6109 0.73103 0.0
H1643 H 0.30587 0.54502 0.83 0.0
H1644 H 0.27715 0.54472 0.79596 0.0
H1645 H 0.29252 0.62474 0.75187 0.0
H1646 H 0.17133 0.64117 0.67947 0.0
H1647 H 0.20357 0.63945 0.71196 0.0
H1648 H 0.20616 0.55815 0.74377 0.0
C1649 C 0.28627 0.56549 0.80162 0.0
C1650 C 0.27345 0.6104 0.75061 0.0
C1651 C 0.30284 0.56558 0.82114 0.0
C1652 C 0.18246 0.62067 0.68349 0.0
C1653 C 0.2009 0.61974 0.70198 0.0
C1654 C 0.22506 0.57267 0.74549 0.0
C1655 C 0.28244 0.59163 0.78929 0.0
C1656 C 0.26542 0.59151 0.76816 0.0
C1657 C 0.21493 0.59331 0.70799 0.0
C1658 C 0.23283 0.59203 0.72834 0.0
H1659 H 0.32253 0.63826 0.82184 0.0
H1660 H 0.29232 0.63863 0.78858 0.0
H1661 H 0.23373 0.55812 0.77847 0.0
H1662 H 0.19013 0.54925 0.66635 0.0
H1663 H 0.22174 0.54744 0.69927 0.0
C1664 C 0.07902 0.56282 0.04206 0.0
C1665 C 0.06284 0.58692 0.05031 0.0
C1666 C 0.06532 0.54151 0.02885 0.0
C1667 C 0.99886 0.52689 0.9948 0.0
H1668 H 0.01598 0.44494 0.00852 0.0
C1669 C 0.93063 0.43185 0.95751 0.0
C1670 C 0.94678 0.40794 0.94892 0.0
C1671 C 0.94447 0.45307 0.97071 0.0
C1672 C 0.01115 0.46771 0.00437 0.0
H1673 H 0.01982 0.60813 0.05046 0.0
H1674 H 0.99597 0.57095 0.0275 0.0
H1675 H 0.04167 0.48413 0.02844 0.0
H1676 H 0.98986 0.38691 0.94823 0.0
H1677 H 0.01395 0.42391 0.97126 0.0
H1678 H 0.9683 0.51047 0.97076 0.0
C1679 C 0.01929 0.56859 0.0311 0.0
C1680 C 0.02593 0.49017 0.01572 0.0
C1681 C 0.03297 0.58989 0.04432 0.0
C1682 C 0.97675 0.40502 0.95462 0.0
C1683 C 0.99056 0.4262 0.96787 0.0
C1684 C 0.98406 0.50443 0.98347 0.0
C1685 C 0.03515 0.54385 0.02358 0.0
C1686 C 0.01997 0.52003 0.01106 0.0
C1687 C 0.97473 0.45079 0.97568 0.0
C1688 C 0.99001 0.47459 0.98814 0.0
H1689 H 0.10206 0.55985 0.04636 0.0
H1690 H 0.07827 0.52297 0.02301 0.0
H1691 H 0.99403 0.54966 0.99062 0.0
H1692 H 0.90751 0.43479 0.95344 0.0
H1693 H 0.93156 0.47152 0.97678 0.0
C1694 C 0.09568 0.97329 0.95359 0.0
C1695 C 0.09208 0.9435 0.94757 0.0
C1696 C 0.07489 0.98726 0.96711 0.0
C1697 C 0.99668 0.98191 0.98311 0.0
H1698 H 0.0185 0.03774 0.02893 0.0
C1699 C 0.91243 0.03041 0.04501 0.0
C1700 C 0.91582 0.0601 0.05135 0.0
C1701 C 0.93357 0.01669 0.03168 0.0
C1702 C 0.01203 0.02251 0.01598 0.0
H1703 H 0.06442 0.90471 0.95178 0.0
H1704 H 0.02842 0.92901 0.97556 0.0
H1705 H 0.05701 0.01205 0.00826 0.0
H1706 H 0.94362 0.09894 0.04804 0.0
H1707 H 0.98023 0.07509 0.02448 0.0
H1708 H 0.95172 0.99238 0.99076 0.0
C1709 C 0.04707 0.94168 0.96954 0.0
C1710 C 0.03411 0.00773 0.0042 0.0
C1711 C 0.06788 0.92769 0.95608 0.0
C1712 C 0.94031 0.07604 0.04345 0.0
C1713 C 0.96146 0.0623 0.03012 0.0
C1714 C 0.97461 0.99671 0.99486 0.0
C1715 C 0.05003 0.97176 0.97486 0.0
C1716 C 0.02668 0.9872 0.98767 0.0
C1717 C 0.95858 0.03233 0.02438 0.0
C1718 C 0.98202 0.01715 0.01146 0.0
H1719 H 0.11402 0.98614 0.94726 0.0
H1720 H 0.0777 0.01051 0.97079 0.0
H1721 H 0.99022 0.96665 0.97018 0.0
H1722 H 0.8939 0.01745 0.05089 0.0
H1723 H 0.93082 0.99352 0.02773 0.0
C1724 C 0.4684 0.91464 0.04692 0.0
C1725 C 0.43848 0.91837 0.05251 0.0
C1726 C 0.48273 0.93517 0.03338 0.0
C1727 C 0.47785 0.013 0.01592 0.0
H1728 H 0.53532 0.98948 0.97174 0.0
C1729 C 0.52924 0.09455 0.95302 0.0
C1730 C 0.55916 0.09072 0.94747 0.0
C1731 C 0.51486 0.07418 0.96667 0.0
C1732 C 0.51962 0.99643 0.98422 0.0
H1733 H 0.39988 0.94606 0.0476 0.0
H1734 H 0.4248 0.98159 0.02373 0.0
H1735 H 0.50877 0.95177 0.99258 0.0
H1736 H 0.59773 0.06307 0.95262 0.0
H1737 H 0.57273 0.0278 0.97665 0.0
H1738 H 0.48869 0.05766 0.00754 0.0
C1739 C 0.4373 0.96304 0.03011 0.0
C1740 C 0.50435 0.9748 0.99612 0.0
C1741 C 0.42294 0.9425 0.04362 0.0
C1742 C 0.57466 0.0667 0.95655 0.0
C1743 C 0.56027 0.0463 0.97016 0.0
C1744 C 0.49312 0.03463 0.00402 0.0
C1745 C 0.46748 0.95989 0.02515 0.0
C1746 C 0.48328 0.98283 0.01211 0.0
C1747 C 0.53006 0.0495 0.97503 0.0
C1748 C 0.51421 0.02659 0.98805 0.0
H1749 H 0.48106 0.89637 0.05357 0.0
H1750 H 0.50605 0.93221 0.03004 0.0
H1751 H 0.46215 0.01994 0.02841 0.0
H1752 H 0.5166 0.11275 0.94624 0.0
H1753 H 0.49153 0.07717 0.96996 0.0
C1754 C 0.40255 0.52457 0.95462 0.0
C1755 C 0.40629 0.5544 0.94877 0.0
C1756 C 0.42326 0.51035 0.96805 0.0
C1757 C 0.48538 0.52356 0.00676 0.0
H1758 H 0.5097 0.44504 0.98858 0.0
C1759 C 0.58739 0.46664 0.0444 0.0
C1760 C 0.58406 0.43687 0.05057 0.0
C1761 C 0.56594 0.48062 0.03149 0.0
C1762 C 0.50296 0.46684 0.99399 0.0
H1763 H 0.43425 0.59294 0.95307 0.0
H1764 H 0.47041 0.56809 0.97635 0.0
H1765 H 0.47062 0.4704 0.96832 0.0
H1766 H 0.556 0.39821 0.04744 0.0
H1767 H 0.51862 0.42263 0.02491 0.0
H1768 H 0.51785 0.52004 0.03236 0.0
C1769 C 0.45132 0.55574 0.97075 0.0
C1770 C 0.4805 0.48134 0.98243 0.0
C1771 C 0.43059 0.56999 0.95735 0.0
C1772 C 0.55934 0.42111 0.04288 0.0
C1773 C 0.53791 0.4351 0.02994 0.0
C1774 C 0.50787 0.50907 0.01829 0.0
C1775 C 0.4482 0.52561 0.97591 0.0
C1776 C 0.47147 0.5099 0.98866 0.0
C1777 C 0.54071 0.46515 0.02444 0.0
C1778 C 0.51697 0.48057 0.01201 0.0
H1779 H 0.38403 0.51193 0.94834 0.0
H1780 H 0.41992 0.48726 0.97205 0.0
H1781 H 0.47869 0.54536 0.01217 0.0
H1782 H 0.60618 0.47943 0.05001 0.0
H1783 H 0.56899 0.50365 0.0272 0.0
C1784 C 0.02995 0.90735 0.4544 0.0
C1785 C 0.05953 0.91109 0.44787 0.0
C1786 C 0.01605 0.92845 0.46767 0.0
C1787 C 0.02072 0.00727 0.48209 0.0
H1788 H 0.96579 0.9861 0.52871 0.0
C1789 C 0.97178 0.09232 0.54325 0.0
C1790 C 0.94222 0.08863 0.54985 0.0
C1791 C 0.98559 0.07118 0.52997 0.0
C1792 C 0.98076 0.99237 0.51554 0.0
H1793 H 0.09804 0.93939 0.45087 0.0
H1794 H 0.07387 0.97598 0.47427 0.0
H1795 H 0.99184 0.94733 0.50861 0.0
H1796 H 0.90366 0.06038 0.54698 0.0
H1797 H 0.92768 0.02373 0.52354 0.0
H1798 H 0.00964 0.0523 0.48902 0.0
C1799 C 0.0613 0.95694 0.46884 0.0
C1800 C 0.99576 0.97015 0.50408 0.0
C1801 C 0.07523 0.93582 0.4556 0.0
C1802 C 0.92645 0.06392 0.54219 0.0
C1803 C 0.94029 0.04275 0.52893 0.0
C1804 C 0.00572 0.02948 0.49355 0.0
C1805 C 0.0314 0.95378 0.47467 0.0
C1806 C 0.01593 0.97735 0.48724 0.0
C1807 C 0.97017 0.04587 0.52302 0.0
C1808 C 0.98557 0.02229 0.5104 0.0
H1809 H 0.01718 0.88861 0.44868 0.0
H1810 H 0.99294 0.92546 0.47173 0.0
H1811 H 0.0357 0.01353 0.46893 0.0
H1812 H 0.9846 0.11106 0.54892 0.0
H1813 H 0.00869 0.07413 0.52586 0.0
C1814 C 0.59531 0.02678 0.45381 0.0
C1815 C 0.59174 0.05669 0.44812 0.0
C1816 C 0.57455 0.01257 0.46722 0.0
C1817 C 0.49642 0.01751 0.48345 0.0
H1818 H 0.51857 0.96073 0.52853 0.0
C1819 C 0.41256 0.96722 0.54489 0.0
C1820 C 0.41614 0.93744 0.55093 0.0
C1821 C 0.43356 0.98131 0.53163 0.0
C1822 C 0.51201 0.97623 0.51579 0.0
H1823 H 0.56412 0.09541 0.45273 0.0
H1824 H 0.52814 0.07066 0.47633 0.0
H1825 H 0.55693 0.98704 0.50814 0.0
H1826 H 0.44411 0.89882 0.54715 0.0
H1827 H 0.48048 0.92331 0.52372 0.0
H1828 H 0.45153 0.00667 0.49102 0.0
C1829 C 0.54677 0.05811 0.47016 0.0
C1830 C 0.534 0.99137 0.50417 0.0
C1831 C 0.56756 0.07236 0.45681 0.0
C1832 C 0.44065 0.92178 0.54279 0.0
C1833 C 0.46167 0.93589 0.52954 0.0
C1834 C 0.47444 0.00235 0.49504 0.0
C1835 C 0.54974 0.02793 0.47518 0.0
C1836 C 0.52645 0.01222 0.48789 0.0
C1837 C 0.45862 0.96595 0.52412 0.0
C1838 C 0.48197 0.98154 0.51136 0.0
H1839 H 0.61363 0.01404 0.44734 0.0
H1840 H 0.57737 0.98926 0.47065 0.0
H1841 H 0.48988 0.03304 0.47072 0.0
H1842 H 0.39399 0.97998 0.55094 0.0
H1843 H 0.43067 0.00454 0.52794 0.0
C1844 C 0.53301 0.41187 0.5454 0.0
C1845 C 0.56276 0.41591 0.55137 0.0
C1846 C 0.51873 0.43237 0.53182 0.0
C1847 C 0.52309 0.51046 0.51495 0.0
H1848 H 0.46687 0.48684 0.46991 0.0
C1849 C 0.47189 0.59236 0.45225 0.0
C1850 C 0.44209 0.58828 0.44645 0.0
C1851 C 0.48632 0.57188 0.46577 0.0
C1852 C 0.48222 0.49381 0.48262 0.0
H1853 H 0.60113 0.44411 0.54709 0.0
H1854 H 0.57631 0.47959 0.52315 0.0
H1855 H 0.49341 0.44917 0.49079 0.0
H1856 H 0.40379 0.56004 0.45096 0.0
H1857 H 0.42889 0.5246 0.47477 0.0
H1858 H 0.51191 0.5551 0.50677 0.0
C1859 C 0.5639 0.46083 0.52926 0.0
C1860 C 0.49749 0.47221 0.49455 0.0
C1861 C 0.5782 0.44032 0.54282 0.0
C1862 C 0.42676 0.56386 0.4551 0.0
C1863 C 0.44121 0.54338 0.46858 0.0
C1864 C 0.50784 0.53206 0.50302 0.0
C1865 C 0.53387 0.45737 0.52392 0.0
C1866 C 0.5181 0.48028 0.51085 0.0
C1867 C 0.47129 0.54687 0.47375 0.0
C1868 C 0.48719 0.52398 0.48674 0.0
H1869 H 0.52043 0.39337 0.55177 0.0
H1870 H 0.49553 0.42918 0.52817 0.0
H1871 H 0.53843 0.51742 0.52768 0.0
H1872 H 0.48438 0.61087 0.44579 0.0
H1873 H 0.50956 0.57511 0.4693 0.0
C1874 C 0.9043 0.47438 0.4526 0.0
C1875 C 0.90839 0.44459 0.44677 0.0
C1876 C 0.9247 0.48878 0.4662 0.0
C1877 C 0.00275 0.48474 0.48277 0.0
H1878 H 0.97956 0.54036 0.52835 0.0
C1879 C 0.08539 0.53388 0.54549 0.0
C1880 C 0.08161 0.56348 0.55195 0.0
C1881 C 0.06463 0.52009 0.53187 0.0
C1882 C 0.9864 0.52521 0.51547 0.0
H1883 H 0.93654 0.40624 0.45138 0.0
H1884 H 0.97188 0.43129 0.47529 0.0
H1885 H 0.94168 0.51411 0.50742 0.0
H1886 H 0.05354 0.60209 0.54857 0.0
H1887 H 0.01757 0.57811 0.52449 0.0
H1888 H 0.04745 0.49584 0.49075 0.0
C1889 C 0.95313 0.44363 0.46907 0.0
C1890 C 0.96469 0.5101 0.50353 0.0
C1891 C 0.9327 0.4292 0.45553 0.0
C1892 C 0.05714 0.57927 0.54388 0.0
C1893 C 0.03636 0.56545 0.53026 0.0
C1894 C 0.02445 0.49987 0.49467 0.0
C1895 C 0.94967 0.47372 0.47421 0.0
C1896 C 0.97263 0.48961 0.48711 0.0
C1897 C 0.03962 0.53556 0.52439 0.0
C1898 C 0.01655 0.52022 0.5112 0.0
H1899 H 0.88586 0.4869 0.44608 0.0
H1900 H 0.92151 0.51201 0.46974 0.0
H1901 H 0.00959 0.46952 0.46992 0.0
H1902 H 0.10393 0.52103 0.55148 0.0
H1903 H 0.06767 0.49698 0.52785 0.0
loop_
_geom_bond_atom_site_label_1
_geom_bond_atom_site_label_2
_geom_bond_distance
_geom_bond_site_symmetry_2
_ccdc_geom_bond_type
Co0 O2 2.143 . S
Co0 O8 2.074 . S
Co0 O11 2.093 . S
Co0 O24 2.097 . S
Co0 N41 2.151 . S
Co0 N49 2.214 . S
Co1 O2 2.160 . S
Co1 O7 2.058 . S
Co1 O17 2.057 . S
Co1 O32 2.037 . S
Co1 N36 2.145 . S
Co1 N57 2.257 1_455 S
O2 Co0 2.143 . S
O2 Co1 2.160 . S
C3 O4 1.278 . S
C3 O11 1.224 . S
O4 C3 1.278 . S
C5 O6 1.245 . S
C5 O17 1.232 . S
O6 C5 1.245 . S
O7 Co1 2.058 . S
O7 C33 1.269 . S
O8 Co0 2.074 . S
O8 C33 1.257 . S
H9 C34 0.930 . S
H10 C40 0.930 . S
O11 Co0 2.093 . S
O11 C3 1.224 . S
H12 C44 0.929 . S
H13 C46 0.930 . S
H14 C47 0.930 . S
H15 C45 0.929 . S
H16 C48 0.928 . S
O17 Co1 2.057 . S
O17 C5 1.232 . S
H18 C37 0.929 . S
H19 C38 0.929 . S
H20 C50 0.931 . S
H21 C42 0.929 . S
H22 C51 0.930 . S
H23 C43 0.931 . S
O24 Co0 2.097 . S
O24 C52 1.214 . S
H25 C53 0.929 . S
H26 C54 0.929 . S
H27 C55 0.930 . S
H28 C56 0.929 . S
H29 C58 0.930 . S
H30 C35 0.930 . S
H31 C39 0.930 . S
O32 Co1 2.037 . S
O32 C52 1.234 . S
C33 O7 1.269 . S
C33 O8 1.257 . S
C34 H9 0.930 . S
C34 C37 1.388 . S
C34 C39 1.418 . S
C35 H30 0.930 . S
C35 C38 1.404 . S
C35 C39 1.353 . S
N36 Co1 2.145 . S
N36 C37 1.397 . S
N36 C38 1.334 . S
C37 H18 0.929 . S
C37 C34 1.388 . S
C37 N36 1.397 . S
C38 H19 0.929 . S
C38 C35 1.404 . S
C38 N36 1.334 . S
C39 H31 0.930 . S
C39 C34 1.418 . S
C39 C35 1.353 . S
C40 H10 0.930 . S
C40 N41 1.330 . S
C40 C42 1.446 . S
N41 Co0 2.151 . S
N41 C40 1.330 . S
N41 C45 1.418 . S
C42 H21 0.929 . S
C42 C40 1.446 . S
C42 C43 1.332 . S
C43 H23 0.931 . S
C43 C42 1.332 . S
C43 C44 1.267 . S
C44 H12 0.929 . S
C44 C43 1.267 . S
C44 C45 1.251 . S
C45 H15 0.929 . S
C45 N41 1.418 . S
C45 C44 1.251 . S
C46 H13 0.930 . S
C46 C48 1.406 . S
C46 C51 1.261 . S
C47 H14 0.930 . S
C47 N49 1.325 . S
C47 C50 1.357 . S
C48 H16 0.928 . S
C48 C46 1.406 . S
C48 N49 1.261 . S
N49 Co0 2.214 . S
N49 C47 1.325 . S
N49 C48 1.261 . S
C50 H20 0.931 . S
C50 C47 1.357 . S
C50 C51 1.312 . S
C51 H22 0.930 . S
C51 C46 1.261 . S
C51 C50 1.312 . S
C52 O24 1.214 . S
C52 O32 1.234 . S
C53 H25 0.929 . S
C53 C56 1.391 . S
C53 C58 1.391 . S
C54 H26 0.929 . S
C54 C55 1.390 . S
C54 N57 1.391 . S
C55 H27 0.930 . S
C55 C54 1.390 . S
C55 C56 1.392 . S
C56 H28 0.929 . S
C56 C53 1.391 . S
C56 C55 1.392 . S
N57 Co1 2.257 1_655 S
N57 C54 1.391 . S
N57 C58 1.388 . S
C58 H29 0.930 . S
C58 C53 1.391 . S
C58 N57 1.388 . S
Co59 O61 2.143 . S
Co59 O67 2.074 . S
Co59 O70 2.093 . S
Co59 O83 2.097 . S
Co59 N100 2.151 . S
Co59 N108 2.214 . S
Co60 O61 2.160 . S
Co60 O66 2.058 . S
Co60 O76 2.057 . S
Co60 O91 2.037 . S
Co60 N95 2.145 . S
Co60 N116 2.257 1_545 S
O61 Co59 2.143 . S
O61 Co60 2.160 . S
C62 O63 1.278 . S
C62 O70 1.224 . S
O63 C62 1.278 . S
C64 O65 1.245 . S
C64 O76 1.232 . S
O65 C64 1.245 . S
O66 Co60 2.058 . S
O66 C92 1.269 . S
O67 Co59 2.074 . S
O67 C92 1.257 . S
H68 C93 0.930 . S
H69 C99 0.930 . S
O70 Co59 2.093 . S
O70 C62 1.224 . S
H71 C103 0.929 . S
H72 C105 0.930 . S
H73 C106 0.930 . S
H74 C104 0.929 . S
H75 C107 0.928 . S
O76 Co60 2.057 . S
O76 C64 1.232 . S
H77 C96 0.929 . S
H78 C97 0.929 . S
H79 C109 0.931 . S
H80 C101 0.929 . S
H81 C110 0.930 . S
H82 C102 0.931 . S
O83 Co59 2.097 . S
O83 C111 1.214 . S
H84 C112 0.929 . S
H85 C113 0.929 . S
H86 C114 0.930 . S
H87 C115 0.929 . S
H88 C117 0.930 . S
H89 C94 0.930 . S
H90 C98 0.930 . S
O91 Co60 2.037 . S
O91 C111 1.234 . S
C92 O66 1.269 . S
C92 O67 1.257 . S
C93 H68 0.930 . S
C93 C96 1.388 . S
C93 C98 1.418 . S
C94 H89 0.930 . S
C94 C97 1.404 . S
C94 C98 1.353 . S
N95 Co60 2.145 . S
N95 C96 1.397 . S
N95 C97 1.334 . S
C96 H77 0.929 . S
C96 C93 1.388 . S
C96 N95 1.397 . S
C97 H78 0.929 . S
C97 C94 1.404 . S
C97 N95 1.334 . S
C98 H90 0.930 . S
C98 C93 1.418 . S
C98 C94 1.353 . S
C99 H69 0.930 . S
C99 N100 1.330 . S
C99 C101 1.446 . S
N100 Co59 2.151 . S
N100 C99 1.330 . S
N100 C104 1.418 . S
C101 H80 0.929 . S
C101 C99 1.446 . S
C101 C102 1.332 . S
C102 H82 0.931 . S
C102 C101 1.332 . S
C102 C103 1.267 . S
C103 H71 0.929 . S
C103 C102 1.267 . S
C103 C104 1.251 . S
C104 H74 0.929 . S
C104 N100 1.418 . S
C104 C103 1.251 . S
C105 H72 0.930 . S
C105 C107 1.406 . S
C105 C110 1.261 . S
C106 H73 0.930 . S
C106 N108 1.325 . S
C106 C109 1.357 . S
C107 H75 0.928 . S
C107 C105 1.406 . S
C107 N108 1.261 . S
N108 Co59 2.214 . S
N108 C106 1.325 . S
N108 C107 1.261 . S
C109 H79 0.931 . S
C109 C106 1.357 . S
C109 C110 1.312 . S
C110 H81 0.930 . S
C110 C105 1.261 . S
C110 C109 1.312 . S
C111 O83 1.214 . S
C111 O91 1.234 . S
C112 H84 0.929 . S
C112 C115 1.391 . S
C112 C117 1.391 . S
C113 H85 0.929 . S
C113 C114 1.390 . S
C113 N116 1.391 . S
C114 H86 0.930 . S
C114 C113 1.390 . S
C114 C115 1.392 . S
C115 H87 0.929 . S
C115 C112 1.391 . S
C115 C114 1.392 . S
N116 Co60 2.257 1_565 S
N116 C113 1.391 . S
N116 C117 1.388 . S
C117 H88 0.930 . S
C117 C112 1.391 . S
C117 N116 1.388 . S
Co118 O120 2.143 . S
Co118 O126 2.074 . S
Co118 O129 2.093 . S
Co118 O142 2.097 . S
Co118 N159 2.151 . S
Co118 N167 2.214 . S
Co119 O120 2.160 . S
Co119 O125 2.058 . S
Co119 O135 2.057 . S
Co119 O150 2.037 . S
Co119 N154 2.145 . S
Co119 N175 2.257 . S
O120 Co118 2.143 . S
O120 Co119 2.160 . S
C121 O122 1.278 . S
C121 O129 1.224 . S
O122 C121 1.278 . S
C123 O124 1.245 . S
C123 O135 1.232 . S
O124 C123 1.245 . S
O125 Co119 2.058 . S
O125 C151 1.269 . S
O126 Co118 2.074 . S
O126 C151 1.257 . S
H127 C152 0.930 . S
H128 C158 0.930 . S
O129 Co118 2.093 . S
O129 C121 1.224 . S
H130 C162 0.929 . S
H131 C164 0.930 . S
H132 C165 0.930 . S
H133 C163 0.929 . S
H134 C166 0.928 . S
O135 Co119 2.057 . S
O135 C123 1.232 . S
H136 C155 0.929 . S
H137 C156 0.929 . S
H138 C168 0.931 . S
H139 C160 0.929 . S
H140 C169 0.930 . S
H141 C161 0.931 . S
O142 Co118 2.097 . S
O142 C170 1.214 . S
H143 C171 0.929 . S
H144 C172 0.929 . S
H145 C173 0.930 . S
H146 C174 0.929 . S
H147 C176 0.930 . S
H148 C153 0.930 . S
H149 C157 0.930 . S
O150 Co119 2.037 . S
O150 C170 1.234 . S
C151 O125 1.269 . S
C151 O126 1.257 . S
C152 H127 0.930 . S
C152 C155 1.388 . S
C152 C157 1.418 . S
C153 H148 0.930 . S
C153 C156 1.404 . S
C153 C157 1.353 . S
N154 Co119 2.145 . S
N154 C155 1.397 . S
N154 C156 1.334 . S
C155 H136 0.929 . S
C155 C152 1.388 . S
C155 N154 1.397 . S
C156 H137 0.929 . S
C156 C153 1.404 . S
C156 N154 1.334 . S
C157 H149 0.930 . S
C157 C152 1.418 . S
C157 C153 1.353 . S
C158 H128 0.930 . S
C158 N159 1.330 . S
C158 C160 1.446 . S
N159 Co118 2.151 . S
N159 C158 1.330 . S
N159 C163 1.418 . S
C160 H139 0.929 . S
C160 C158 1.446 . S
C160 C161 1.332 . S
C161 H141 0.931 . S
C161 C160 1.332 . S
C161 C162 1.267 . S
C162 H130 0.929 . S
C162 C161 1.267 . S
C162 C163 1.251 . S
C163 H133 0.929 . S
C163 N159 1.418 . S
C163 C162 1.251 . S
C164 H131 0.930 . S
C164 C166 1.406 . S
C164 C169 1.261 . S
C165 H132 0.930 . S
C165 N167 1.325 . S
C165 C168 1.357 . S
C166 H134 0.928 . S
C166 C164 1.406 . S
C166 N167 1.261 . S
N167 Co118 2.214 . S
N167 C165 1.325 . S
N167 C166 1.261 . S
C168 H138 0.931 . S
C168 C165 1.357 . S
C168 C169 1.312 . S
C169 H140 0.930 . S
C169 C164 1.261 . S
C169 C168 1.312 . S
C170 O142 1.214 . S
C170 O150 1.234 . S
C171 H143 0.929 . S
C171 C174 1.391 . S
C171 C176 1.391 . S
C172 H144 0.929 . S
C172 C173 1.390 . S
C172 N175 1.391 . S
C173 H145 0.930 . S
C173 C172 1.390 . S
C173 C174 1.392 . S
C174 H146 0.929 . S
C174 C171 1.391 . S
C174 C173 1.392 . S
N175 Co119 2.257 . S
N175 C172 1.391 . S
N175 C176 1.388 . S
C176 H147 0.930 . S
C176 C171 1.391 . S
C176 N175 1.388 . S
Co177 O179 2.143 . S
Co177 O185 2.074 . S
Co177 O188 2.093 . S
Co177 O201 2.097 . S
Co177 N218 2.151 . S
Co177 N226 2.214 . S
Co178 O179 2.160 . S
Co178 O184 2.058 . S
Co178 O194 2.057 . S
Co178 O209 2.037 . S
Co178 N213 2.145 . S
Co178 N234 2.257 . S
O179 Co177 2.143 . S
O179 Co178 2.160 . S
C180 O181 1.278 . S
C180 O188 1.224 . S
O181 C180 1.278 . S
C182 O183 1.245 . S
C182 O194 1.232 . S
O183 C182 1.245 . S
O184 Co178 2.058 . S
O184 C210 1.269 . S
O185 Co177 2.074 . S
O185 C210 1.257 . S
H186 C211 0.930 . S
H187 C217 0.930 . S
O188 Co177 2.093 . S
O188 C180 1.224 . S
H189 C221 0.929 . S
H190 C223 0.930 . S
H191 C224 0.930 . S
H192 C222 0.929 . S
H193 C225 0.928 . S
O194 Co178 2.057 . S
O194 C182 1.232 . S
H195 C214 0.929 . S
H196 C215 0.929 . S
H197 C227 0.931 . S
H198 C219 0.929 . S
H199 C228 0.930 . S
H200 C220 0.931 . S
O201 Co177 2.097 . S
O201 C229 1.214 . S
H202 C230 0.929 . S
H203 C231 0.929 . S
H204 C232 0.930 . S
H205 C233 0.929 . S
H206 C235 0.930 . S
H207 C212 0.930 . S
H208 C216 0.930 . S
O209 Co178 2.037 . S
O209 C229 1.234 . S
C210 O184 1.269 . S
C210 O185 1.257 . S
C211 H186 0.930 . S
C211 C214 1.388 . S
C211 C216 1.418 . S
C212 H207 0.930 . S
C212 C215 1.404 . S
C212 C216 1.353 . S
N213 Co178 2.145 . S
N213 C214 1.397 . S
N213 C215 1.334 . S
C214 H195 0.929 . S
C214 C211 1.388 . S
C214 N213 1.397 . S
C215 H196 0.929 . S
C215 C212 1.404 . S
C215 N213 1.334 . S
C216 H208 0.930 . S
C216 C211 1.418 . S
C216 C212 1.353 . S
C217 H187 0.930 . S
C217 N218 1.330 . S
C217 C219 1.446 . S
N218 Co177 2.151 . S
N218 C217 1.330 . S
N218 C222 1.418 . S
C219 H198 0.929 . S
C219 C217 1.446 . S
C219 C220 1.332 . S
C220 H200 0.931 . S
C220 C219 1.332 . S
C220 C221 1.267 . S
C221 H189 0.929 . S
C221 C220 1.267 . S
C221 C222 1.251 . S
C222 H192 0.929 . S
C222 N218 1.418 . S
C222 C221 1.251 . S
C223 H190 0.930 . S
C223 C225 1.406 . S
C223 C228 1.261 . S
C224 H191 0.930 . S
C224 N226 1.325 . S
C224 C227 1.357 . S
C225 H193 0.928 . S
C225 C223 1.406 . S
C225 N226 1.261 . S
N226 Co177 2.214 . S
N226 C224 1.325 . S
N226 C225 1.261 . S
C227 H197 0.931 . S
C227 C224 1.357 . S
C227 C228 1.312 . S
C228 H199 0.930 . S
C228 C223 1.261 . S
C228 C227 1.312 . S
C229 O201 1.214 . S
C229 O209 1.234 . S
C230 H202 0.929 . S
C230 C233 1.391 . S
C230 C235 1.391 . S
C231 H203 0.929 . S
C231 C232 1.390 . S
C231 N234 1.391 . S
C232 H204 0.930 . S
C232 C231 1.390 . S
C232 C233 1.392 . S
C233 H205 0.929 . S
C233 C230 1.391 . S
C233 C232 1.392 . S
N234 Co178 2.257 . S
N234 C231 1.391 . S
N234 C235 1.388 . S
C235 H206 0.930 . S
C235 C230 1.391 . S
C235 N234 1.388 . S
Co236 O238 2.143 . S
Co236 O244 2.074 . S
Co236 O247 2.093 . S
Co236 O260 2.097 . S
Co236 N277 2.151 . S
Co236 N285 2.214 . S
Co237 O238 2.160 . S
Co237 O243 2.058 . S
Co237 O253 2.057 . S
Co237 O268 2.037 . S
Co237 N272 2.145 . S
Co237 N293 2.257 1_455 S
O238 Co236 2.143 . S
O238 Co237 2.160 . S
C239 O240 1.278 . S
C239 O247 1.224 . S
O240 C239 1.278 . S
C241 O242 1.245 . S
C241 O253 1.232 . S
O242 C241 1.245 . S
O243 Co237 2.058 . S
O243 C269 1.269 . S
O244 Co236 2.074 . S
O244 C269 1.257 . S
H245 C270 0.930 . S
H246 C276 0.930 . S
O247 Co236 2.093 . S
O247 C239 1.224 . S
H248 C280 0.929 . S
H249 C282 0.930 . S
H250 C283 0.930 . S
H251 C281 0.929 . S
H252 C284 0.928 . S
O253 Co237 2.057 . S
O253 C241 1.232 . S
H254 C273 0.929 . S
H255 C274 0.929 . S
H256 C286 0.931 . S
H257 C278 0.929 . S
H258 C287 0.930 . S
H259 C279 0.931 . S
O260 Co236 2.097 . S
O260 C288 1.214 . S
H261 C289 0.929 . S
H262 C290 0.929 . S
H263 C291 0.930 . S
H264 C292 0.929 . S
H265 C294 0.930 . S
H266 C271 0.930 . S
H267 C275 0.930 . S
O268 Co237 2.037 . S
O268 C288 1.234 . S
C269 O243 1.269 . S
C269 O244 1.257 . S
C270 H245 0.930 . S
C270 C273 1.388 . S
C270 C275 1.418 . S
C271 H266 0.930 . S
C271 C274 1.404 . S
C271 C275 1.353 . S
N272 Co237 2.145 . S
N272 C273 1.397 . S
N272 C274 1.334 . S
C273 H254 0.929 . S
C273 C270 1.388 . S
C273 N272 1.397 . S
C274 H255 0.929 . S
C274 C271 1.404 . S
C274 N272 1.334 . S
C275 H267 0.930 . S
C275 C270 1.418 . S
C275 C271 1.353 . S
C276 H246 0.930 . S
C276 N277 1.330 . S
C276 C278 1.446 . S
N277 Co236 2.151 . S
N277 C276 1.330 . S
N277 C281 1.418 . S
C278 H257 0.929 . S
C278 C276 1.446 . S
C278 C279 1.332 . S
C279 H259 0.931 . S
C279 C278 1.332 . S
C279 C280 1.267 . S
C280 H248 0.929 . S
C280 C279 1.267 . S
C280 C281 1.251 . S
C281 H251 0.929 . S
C281 N277 1.418 . S
C281 C280 1.251 . S
C282 H249 0.930 . S
C282 C284 1.406 . S
C282 C287 1.261 . S
C283 H250 0.930 . S
C283 N285 1.325 . S
C283 C286 1.357 . S
C284 H252 0.928 . S
C284 C282 1.406 . S
C284 N285 1.261 . S
N285 Co236 2.214 . S
N285 C283 1.325 . S
N285 C284 1.261 . S
C286 H256 0.931 . S
C286 C283 1.357 . S
C286 C287 1.312 . S
C287 H258 0.930 . S
C287 C282 1.261 . S
C287 C286 1.312 . S
C288 O260 1.214 . S
C288 O268 1.234 . S
C289 H261 0.929 . S
C289 C292 1.391 . S
C289 C294 1.391 . S
C290 H262 0.929 . S
C290 C291 1.390 . S
C290 N293 1.391 . S
C291 H263 0.930 . S
C291 C290 1.390 . S
C291 C292 1.392 . S
C292 H264 0.929 . S
C292 C289 1.391 . S
C292 C291 1.392 . S
N293 Co237 2.257 1_655 S
N293 C290 1.391 . S
N293 C294 1.388 . S
C294 H265 0.930 . S
C294 C289 1.391 . S
C294 N293 1.388 . S
Co295 O297 2.143 . S
Co295 O303 2.074 . S
Co295 O306 2.093 . S
Co295 O319 2.097 . S
Co295 N336 2.151 . S
Co295 N344 2.214 . S
Co296 O297 2.160 . S
Co296 O302 2.058 . S
Co296 O312 2.057 . S
Co296 O327 2.037 . S
Co296 N331 2.145 . S
Co296 N352 2.257 1_545 S
O297 Co295 2.143 . S
O297 Co296 2.160 . S
C298 O299 1.278 . S
C298 O306 1.224 . S
O299 C298 1.278 . S
C300 O301 1.245 . S
C300 O312 1.232 . S
O301 C300 1.245 . S
O302 Co296 2.058 . S
O302 C328 1.269 . S
O303 Co295 2.074 . S
O303 C328 1.257 . S
H304 C329 0.930 . S
H305 C335 0.930 . S
O306 Co295 2.093 . S
O306 C298 1.224 . S
H307 C339 0.929 . S
H308 C341 0.930 . S
H309 C342 0.930 . S
H310 C340 0.929 . S
H311 C343 0.928 . S
O312 Co296 2.057 . S
O312 C300 1.232 . S
H313 C332 0.929 . S
H314 C333 0.929 . S
H315 C345 0.931 . S
H316 C337 0.929 . S
H317 C346 0.930 . S
H318 C338 0.931 . S
O319 Co295 2.097 . S
O319 C347 1.214 . S
H320 C348 0.929 . S
H321 C349 0.929 . S
H322 C350 0.930 . S
H323 C351 0.929 . S
H324 C353 0.930 . S
H325 C330 0.930 . S
H326 C334 0.930 . S
O327 Co296 2.037 . S
O327 C347 1.234 . S
C328 O302 1.269 . S
C328 O303 1.257 . S
C329 H304 0.930 . S
C329 C332 1.388 . S
C329 C334 1.418 . S
C330 H325 0.930 . S
C330 C333 1.404 . S
C330 C334 1.353 . S
N331 Co296 2.145 . S
N331 C332 1.397 . S
N331 C333 1.334 . S
C332 H313 0.929 . S
C332 C329 1.388 . S
C332 N331 1.397 . S
C333 H314 0.929 . S
C333 C330 1.404 . S
C333 N331 1.334 . S
C334 H326 0.930 . S
C334 C329 1.418 . S
C334 C330 1.353 . S
C335 H305 0.930 . S
C335 N336 1.330 . S
C335 C337 1.446 . S
N336 Co295 2.151 . S
N336 C335 1.330 . S
N336 C340 1.418 . S
C337 H316 0.929 . S
C337 C335 1.446 . S
C337 C338 1.332 . S
C338 H318 0.931 . S
C338 C337 1.332 . S
C338 C339 1.267 . S
C339 H307 0.929 . S
C339 C338 1.267 . S
C339 C340 1.251 . S
C340 H310 0.929 . S
C340 N336 1.418 . S
C340 C339 1.251 . S
C341 H308 0.930 . S
C341 C343 1.406 . S
C341 C346 1.261 . S
C342 H309 0.930 . S
C342 N344 1.325 . S
C342 C345 1.357 . S
C343 H311 0.928 . S
C343 C341 1.406 . S
C343 N344 1.261 . S
N344 Co295 2.214 . S
N344 C342 1.325 . S
N344 C343 1.261 . S
C345 H315 0.931 . S
C345 C342 1.357 . S
C345 C346 1.312 . S
C346 H317 0.930 . S
C346 C341 1.261 . S
C346 C345 1.312 . S
C347 O319 1.214 . S
C347 O327 1.234 . S
C348 H320 0.929 . S
C348 C351 1.391 . S
C348 C353 1.391 . S
C349 H321 0.929 . S
C349 C350 1.390 . S
C349 N352 1.391 . S
C350 H322 0.930 . S
C350 C349 1.390 . S
C350 C351 1.392 . S
C351 H323 0.929 . S
C351 C348 1.391 . S
C351 C350 1.392 . S
N352 Co296 2.257 1_565 S
N352 C349 1.391 . S
N352 C353 1.388 . S
C353 H324 0.930 . S
C353 C348 1.391 . S
C353 N352 1.388 . S
Co354 O356 2.143 . S
Co354 O362 2.074 . S
Co354 O365 2.093 . S
Co354 O378 2.097 . S
Co354 N395 2.151 . S
Co354 N403 2.214 . S
Co355 O356 2.160 . S
Co355 O361 2.058 . S
Co355 O371 2.057 . S
Co355 O386 2.037 . S
Co355 N390 2.145 . S
Co355 N411 2.257 . S
O356 Co354 2.143 . S
O356 Co355 2.160 . S
C357 O358 1.278 . S
C357 O365 1.224 . S
O358 C357 1.278 . S
C359 O360 1.245 . S
C359 O371 1.232 . S
O360 C359 1.245 . S
O361 Co355 2.058 . S
O361 C387 1.269 . S
O362 Co354 2.074 . S
O362 C387 1.257 . S
H363 C388 0.930 . S
H364 C394 0.930 . S
O365 Co354 2.093 . S
O365 C357 1.224 . S
H366 C398 0.929 . S
H367 C400 0.930 . S
H368 C401 0.930 . S
H369 C399 0.929 . S
H370 C402 0.928 . S
O371 Co355 2.057 . S
O371 C359 1.232 . S
H372 C391 0.929 . S
H373 C392 0.929 . S
H374 C404 0.931 . S
H375 C396 0.929 . S
H376 C405 0.930 . S
H377 C397 0.931 . S
O378 Co354 2.097 . S
O378 C406 1.214 . S
H379 C407 0.929 . S
H380 C408 0.929 . S
H381 C409 0.930 . S
H382 C410 0.929 . S
H383 C412 0.930 . S
H384 C389 0.930 . S
H385 C393 0.930 . S
O386 Co355 2.037 . S
O386 C406 1.234 . S
C387 O361 1.269 . S
C387 O362 1.257 . S
C388 H363 0.930 . S
C388 C391 1.388 . S
C388 C393 1.418 . S
C389 H384 0.930 . S
C389 C392 1.404 . S
C389 C393 1.353 . S
N390 Co355 2.145 . S
N390 C391 1.397 . S
N390 C392 1.334 . S
C391 H372 0.929 . S
C391 C388 1.388 . S
C391 N390 1.397 . S
C392 H373 0.929 . S
C392 C389 1.404 . S
C392 N390 1.334 . S
C393 H385 0.930 . S
C393 C388 1.418 . S
C393 C389 1.353 . S
C394 H364 0.930 . S
C394 N395 1.330 . S
C394 C396 1.446 . S
N395 Co354 2.151 . S
N395 C394 1.330 . S
N395 C399 1.418 . S
C396 H375 0.929 . S
C396 C394 1.446 . S
C396 C397 1.332 . S
C397 H377 0.931 . S
C397 C396 1.332 . S
C397 C398 1.267 . S
C398 H366 0.929 . S
C398 C397 1.267 . S
C398 C399 1.251 . S
C399 H369 0.929 . S
C399 N395 1.418 . S
C399 C398 1.251 . S
C400 H367 0.930 . S
C400 C402 1.406 . S
C400 C405 1.261 . S
C401 H368 0.930 . S
C401 N403 1.325 . S
C401 C404 1.357 . S
C402 H370 0.928 . S
C402 C400 1.406 . S
C402 N403 1.261 . S
N403 Co354 2.214 . S
N403 C401 1.325 . S
N403 C402 1.261 . S
C404 H374 0.931 . S
C404 C401 1.357 . S
C404 C405 1.312 . S
C405 H376 0.930 . S
C405 C400 1.261 . S
C405 C404 1.312 . S
C406 O378 1.214 . S
C406 O386 1.234 . S
C407 H379 0.929 . S
C407 C410 1.391 . S
C407 C412 1.391 . S
C408 H380 0.929 . S
C408 C409 1.390 . S
C408 N411 1.391 . S
C409 H381 0.930 . S
C409 C408 1.390 . S
C409 C410 1.392 . S
C410 H382 0.929 . S
C410 C407 1.391 . S
C410 C409 1.392 . S
N411 Co355 2.257 . S
N411 C408 1.391 . S
N411 C412 1.388 . S
C412 H383 0.930 . S
C412 C407 1.391 . S
C412 N411 1.388 . S
Co413 O415 2.143 . S
Co413 O421 2.074 . S
Co413 O424 2.093 . S
Co413 O437 2.097 . S
Co413 N454 2.151 . S
Co413 N462 2.214 . S
Co414 O415 2.160 . S
Co414 O420 2.058 . S
Co414 O430 2.057 . S
Co414 O445 2.037 . S
Co414 N449 2.145 . S
Co414 N470 2.257 . S
O415 Co413 2.143 . S
O415 Co414 2.160 . S
C416 O417 1.278 . S
C416 O424 1.224 . S
O417 C416 1.278 . S
C418 O419 1.245 . S
C418 O430 1.232 . S
O419 C418 1.245 . S
O420 Co414 2.058 . S
O420 C446 1.269 . S
O421 Co413 2.074 . S
O421 C446 1.257 . S
H422 C447 0.930 . S
H423 C453 0.930 . S
O424 Co413 2.093 . S
O424 C416 1.224 . S
H425 C457 0.929 . S
H426 C459 0.930 . S
H427 C460 0.930 . S
H428 C458 0.929 . S
H429 C461 0.928 . S
O430 Co414 2.057 . S
O430 C418 1.232 . S
H431 C450 0.929 . S
H432 C451 0.929 . S
H433 C463 0.931 . S
H434 C455 0.929 . S
H435 C464 0.930 . S
H436 C456 0.931 . S
O437 Co413 2.097 . S
O437 C465 1.214 . S
H438 C466 0.929 . S
H439 C467 0.929 . S
H440 C468 0.930 . S
H441 C469 0.929 . S
H442 C471 0.930 . S
H443 C448 0.930 . S
H444 C452 0.930 . S
O445 Co414 2.037 . S
O445 C465 1.234 . S
C446 O420 1.269 . S
C446 O421 1.257 . S
C447 H422 0.930 . S
C447 C450 1.388 . S
C447 C452 1.418 . S
C448 H443 0.930 . S
C448 C451 1.404 . S
C448 C452 1.353 . S
N449 Co414 2.145 . S
N449 C450 1.397 . S
N449 C451 1.334 . S
C450 H431 0.929 . S
C450 C447 1.388 . S
C450 N449 1.397 . S
C451 H432 0.929 . S
C451 C448 1.404 . S
C451 N449 1.334 . S
C452 H444 0.930 . S
C452 C447 1.418 . S
C452 C448 1.353 . S
C453 H423 0.930 . S
C453 N454 1.330 . S
C453 C455 1.446 . S
N454 Co413 2.151 . S
N454 C453 1.330 . S
N454 C458 1.418 . S
C455 H434 0.929 . S
C455 C453 1.446 . S
C455 C456 1.332 . S
C456 H436 0.931 . S
C456 C455 1.332 . S
C456 C457 1.267 . S
C457 H425 0.929 . S
C457 C456 1.267 . S
C457 C458 1.251 . S
C458 H428 0.929 . S
C458 N454 1.418 . S
C458 C457 1.251 . S
C459 H426 0.930 . S
C459 C461 1.406 . S
C459 C464 1.261 . S
C460 H427 0.930 . S
C460 N462 1.325 . S
C460 C463 1.357 . S
C461 H429 0.928 . S
C461 C459 1.406 . S
C461 N462 1.261 . S
N462 Co413 2.214 . S
N462 C460 1.325 . S
N462 C461 1.261 . S
C463 H433 0.931 . S
C463 C460 1.357 . S
C463 C464 1.312 . S
C464 H435 0.930 . S
C464 C459 1.261 . S
C464 C463 1.312 . S
C465 O437 1.214 . S
C465 O445 1.234 . S
C466 H438 0.929 . S
C466 C469 1.391 . S
C466 C471 1.391 . S
C467 H439 0.929 . S
C467 C468 1.390 . S
C467 N470 1.391 . S
C468 H440 0.930 . S
C468 C467 1.390 . S
C468 C469 1.392 . S
C469 H441 0.929 . S
C469 C466 1.391 . S
C469 C468 1.392 . S
N470 Co414 2.257 . S
N470 C467 1.391 . S
N470 C471 1.388 . S
C471 H442 0.930 . S
C471 C466 1.391 . S
C471 N470 1.388 . S
Co472 O474 2.143 . S
Co472 O480 2.074 . S
Co472 O483 2.093 . S
Co472 O496 2.097 . S
Co472 N513 2.151 . S
Co472 N521 2.214 . S
Co473 O474 2.160 . S
Co473 O479 2.058 . S
Co473 O489 2.057 . S
Co473 O504 2.037 . S
Co473 N508 2.145 . S
Co473 N529 2.257 1_655 S
O474 Co472 2.143 . S
O474 Co473 2.160 . S
C475 O476 1.278 . S
C475 O483 1.224 . S
O476 C475 1.278 . S
C477 O478 1.245 . S
C477 O489 1.232 . S
O478 C477 1.245 . S
O479 Co473 2.058 . S
O479 C505 1.269 . S
O480 Co472 2.074 . S
O480 C505 1.257 . S
H481 C506 0.930 . S
H482 C512 0.930 . S
O483 Co472 2.093 . S
O483 C475 1.224 . S
H484 C516 0.929 . S
H485 C518 0.930 . S
H486 C519 0.930 . S
H487 C517 0.929 . S
H488 C520 0.928 . S
O489 Co473 2.057 . S
O489 C477 1.232 . S
H490 C509 0.929 . S
H491 C510 0.929 . S
H492 C522 0.931 . S
H493 C514 0.929 . S
H494 C523 0.930 . S
H495 C515 0.931 . S
O496 Co472 2.097 . S
O496 C524 1.214 . S
H497 C525 0.929 . S
H498 C526 0.929 . S
H499 C527 0.930 . S
H500 C528 0.929 . S
H501 C530 0.930 . S
H502 C507 0.930 . S
H503 C511 0.930 . S
O504 Co473 2.037 . S
O504 C524 1.234 . S
C505 O479 1.269 . S
C505 O480 1.257 . S
C506 H481 0.930 . S
C506 C509 1.388 . S
C506 C511 1.418 . S
C507 H502 0.930 . S
C507 C510 1.404 . S
C507 C511 1.353 . S
N508 Co473 2.145 . S
N508 C509 1.397 . S
N508 C510 1.334 . S
C509 H490 0.929 . S
C509 C506 1.388 . S
C509 N508 1.397 . S
C510 H491 0.929 . S
C510 C507 1.404 . S
C510 N508 1.334 . S
C511 H503 0.930 . S
C511 C506 1.418 . S
C511 C507 1.353 . S
C512 H482 0.930 . S
C512 N513 1.330 . S
C512 C514 1.446 . S
N513 Co472 2.151 . S
N513 C512 1.330 . S
N513 C517 1.418 . S
C514 H493 0.929 . S
C514 C512 1.446 . S
C514 C515 1.332 . S
C515 H495 0.931 . S
C515 C514 1.332 . S
C515 C516 1.267 . S
C516 H484 0.929 . S
C516 C515 1.267 . S
C516 C517 1.251 . S
C517 H487 0.929 . S
C517 N513 1.418 . S
C517 C516 1.251 . S
C518 H485 0.930 . S
C518 C520 1.406 . S
C518 C523 1.261 . S
C519 H486 0.930 . S
C519 N521 1.325 . S
C519 C522 1.357 . S
C520 H488 0.928 . S
C520 C518 1.406 . S
C520 N521 1.261 . S
N521 Co472 2.214 . S
N521 C519 1.325 . S
N521 C520 1.261 . S
C522 H492 0.931 . S
C522 C519 1.357 . S
C522 C523 1.312 . S
C523 H494 0.930 . S
C523 C518 1.261 . S
C523 C522 1.312 . S
C524 O496 1.214 . S
C524 O504 1.234 . S
C525 H497 0.929 . S
C525 C528 1.391 . S
C525 C530 1.391 . S
C526 H498 0.929 . S
C526 C527 1.390 . S
C526 N529 1.391 . S
C527 H499 0.930 . S
C527 C526 1.390 . S
C527 C528 1.392 . S
C528 H500 0.929 . S
C528 C525 1.391 . S
C528 C527 1.392 . S
N529 Co473 2.257 1_455 S
N529 C526 1.391 . S
N529 C530 1.388 . S
C530 H501 0.930 . S
C530 C525 1.391 . S
C530 N529 1.388 . S
Co531 O533 2.143 . S
Co531 O539 2.074 . S
Co531 O542 2.093 . S
Co531 O555 2.097 . S
Co531 N572 2.151 . S
Co531 N580 2.214 . S
Co532 O533 2.160 . S
Co532 O538 2.058 . S
Co532 O548 2.057 . S
Co532 O563 2.037 . S
Co532 N567 2.145 . S
Co532 N588 2.257 1_565 S
O533 Co531 2.143 . S
O533 Co532 2.160 . S
C534 O535 1.278 . S
C534 O542 1.224 . S
O535 C534 1.278 . S
C536 O537 1.245 . S
C536 O548 1.232 . S
O537 C536 1.245 . S
O538 Co532 2.058 . S
O538 C564 1.269 . S
O539 Co531 2.074 . S
O539 C564 1.257 . S
H540 C565 0.930 . S
H541 C571 0.930 . S
O542 Co531 2.093 . S
O542 C534 1.224 . S
H543 C575 0.929 . S
H544 C577 0.930 . S
H545 C578 0.930 . S
H546 C576 0.929 . S
H547 C579 0.928 . S
O548 Co532 2.057 . S
O548 C536 1.232 . S
H549 C568 0.929 . S
H550 C569 0.929 . S
H551 C581 0.931 . S
H552 C573 0.929 . S
H553 C582 0.930 . S
H554 C574 0.931 . S
O555 Co531 2.097 . S
O555 C583 1.214 . S
H556 C584 0.929 . S
H557 C585 0.929 . S
H558 C586 0.930 . S
H559 C587 0.929 . S
H560 C589 0.930 . S
H561 C566 0.930 . S
H562 C570 0.930 . S
O563 Co532 2.037 . S
O563 C583 1.234 . S
C564 O538 1.269 . S
C564 O539 1.257 . S
C565 H540 0.930 . S
C565 C568 1.388 . S
C565 C570 1.418 . S
C566 H561 0.930 . S
C566 C569 1.404 . S
C566 C570 1.353 . S
N567 Co532 2.145 . S
N567 C568 1.397 . S
N567 C569 1.334 . S
C568 H549 0.929 . S
C568 C565 1.388 . S
C568 N567 1.397 . S
C569 H550 0.929 . S
C569 C566 1.404 . S
C569 N567 1.334 . S
C570 H562 0.930 . S
C570 C565 1.418 . S
C570 C566 1.353 . S
C571 H541 0.930 . S
C571 N572 1.330 . S
C571 C573 1.446 . S
N572 Co531 2.151 . S
N572 C571 1.330 . S
N572 C576 1.418 . S
C573 H552 0.929 . S
C573 C571 1.446 . S
C573 C574 1.332 . S
C574 H554 0.931 . S
C574 C573 1.332 . S
C574 C575 1.267 . S
C575 H543 0.929 . S
C575 C574 1.267 . S
C575 C576 1.251 . S
C576 H546 0.929 . S
C576 N572 1.418 . S
C576 C575 1.251 . S
C577 H544 0.930 . S
C577 C579 1.406 . S
C577 C582 1.261 . S
C578 H545 0.930 . S
C578 N580 1.325 . S
C578 C581 1.357 . S
C579 H547 0.928 . S
C579 C577 1.406 . S
C579 N580 1.261 . S
N580 Co531 2.214 . S
N580 C578 1.325 . S
N580 C579 1.261 . S
C581 H551 0.931 . S
C581 C578 1.357 . S
C581 C582 1.312 . S
C582 H553 0.930 . S
C582 C577 1.261 . S
C582 C581 1.312 . S
C583 O555 1.214 . S
C583 O563 1.234 . S
C584 H556 0.929 . S
C584 C587 1.391 . S
C584 C589 1.391 . S
C585 H557 0.929 . S
C585 C586 1.390 . S
C585 N588 1.391 . S
C586 H558 0.930 . S
C586 C585 1.390 . S
C586 C587 1.392 . S
C587 H559 0.929 . S
C587 C584 1.391 . S
C587 C586 1.392 . S
N588 Co532 2.257 1_545 S
N588 C585 1.391 . S
N588 C589 1.388 . S
C589 H560 0.930 . S
C589 C584 1.391 . S
C589 N588 1.388 . S
Co590 O592 2.143 . S
Co590 O598 2.074 . S
Co590 O601 2.093 . S
Co590 O614 2.097 . S
Co590 N631 2.151 . S
Co590 N639 2.214 . S
Co591 O592 2.160 . S
Co591 O597 2.058 . S
Co591 O607 2.057 . S
Co591 O622 2.037 . S
Co591 N626 2.145 . S
Co591 N647 2.257 . S
O592 Co590 2.143 . S
O592 Co591 2.160 . S
C593 O594 1.278 . S
C593 O601 1.224 . S
O594 C593 1.278 . S
C595 O596 1.245 . S
C595 O607 1.232 . S
O596 C595 1.245 . S
O597 Co591 2.058 . S
O597 C623 1.269 . S
O598 Co590 2.074 . S
O598 C623 1.257 . S
H599 C624 0.930 . S
H600 C630 0.930 . S
O601 Co590 2.093 . S
O601 C593 1.224 . S
H602 C634 0.929 . S
H603 C636 0.930 . S
H604 C637 0.930 . S
H605 C635 0.929 . S
H606 C638 0.928 . S
O607 Co591 2.057 . S
O607 C595 1.232 . S
H608 C627 0.929 . S
H609 C628 0.929 . S
H610 C640 0.931 . S
H611 C632 0.929 . S
H612 C641 0.930 . S
H613 C633 0.931 . S
O614 Co590 2.097 . S
O614 C642 1.214 . S
H615 C643 0.929 . S
H616 C644 0.929 . S
H617 C645 0.930 . S
H618 C646 0.929 . S
H619 C648 0.930 . S
H620 C625 0.930 . S
H621 C629 0.930 . S
O622 Co591 2.037 . S
O622 C642 1.234 . S
C623 O597 1.269 . S
C623 O598 1.257 . S
C624 H599 0.930 . S
C624 C627 1.388 . S
C624 C629 1.418 . S
C625 H620 0.930 . S
C625 C628 1.404 . S
C625 C629 1.353 . S
N626 Co591 2.145 . S
N626 C627 1.397 . S
N626 C628 1.334 . S
C627 H608 0.929 . S
C627 C624 1.388 . S
C627 N626 1.397 . S
C628 H609 0.929 . S
C628 C625 1.404 . S
C628 N626 1.334 . S
C629 H621 0.930 . S
C629 C624 1.418 . S
C629 C625 1.353 . S
C630 H600 0.930 . S
C630 N631 1.330 . S
C630 C632 1.446 . S
N631 Co590 2.151 . S
N631 C630 1.330 . S
N631 C635 1.418 . S
C632 H611 0.929 . S
C632 C630 1.446 . S
C632 C633 1.332 . S
C633 H613 0.931 . S
C633 C632 1.332 . S
C633 C634 1.267 . S
C634 H602 0.929 . S
C634 C633 1.267 . S
C634 C635 1.251 . S
C635 H605 0.929 . S
C635 N631 1.418 . S
C635 C634 1.251 . S
C636 H603 0.930 . S
C636 C638 1.406 . S
C636 C641 1.261 . S
C637 H604 0.930 . S
C637 N639 1.325 . S
C637 C640 1.357 . S
C638 H606 0.928 . S
C638 C636 1.406 . S
C638 N639 1.261 . S
N639 Co590 2.214 . S
N639 C637 1.325 . S
N639 C638 1.261 . S
C640 H610 0.931 . S
C640 C637 1.357 . S
C640 C641 1.312 . S
C641 H612 0.930 . S
C641 C636 1.261 . S
C641 C640 1.312 . S
C642 O614 1.214 . S
C642 O622 1.234 . S
C643 H615 0.929 . S
C643 C646 1.391 . S
C643 C648 1.391 . S
C644 H616 0.929 . S
C644 C645 1.390 . S
C644 N647 1.391 . S
C645 H617 0.930 . S
C645 C644 1.390 . S
C645 C646 1.392 . S
C646 H618 0.929 . S
C646 C643 1.391 . S
C646 C645 1.392 . S
N647 Co591 2.257 . S
N647 C644 1.391 . S
N647 C648 1.388 . S
C648 H619 0.930 . S
C648 C643 1.391 . S
C648 N647 1.388 . S
Co649 O651 2.143 . S
Co649 O657 2.074 . S
Co649 O660 2.093 . S
Co649 O673 2.097 . S
Co649 N690 2.151 . S
Co649 N698 2.214 . S
Co650 O651 2.160 . S
Co650 O656 2.058 . S
Co650 O666 2.057 . S
Co650 O681 2.037 . S
Co650 N685 2.145 . S
Co650 N706 2.257 . S
O651 Co649 2.143 . S
O651 Co650 2.160 . S
C652 O653 1.278 . S
C652 O660 1.224 . S
O653 C652 1.278 . S
C654 O655 1.245 . S
C654 O666 1.232 . S
O655 C654 1.245 . S
O656 Co650 2.058 . S
O656 C682 1.269 . S
O657 Co649 2.074 . S
O657 C682 1.257 . S
H658 C683 0.930 . S
H659 C689 0.930 . S
O660 Co649 2.093 . S
O660 C652 1.224 . S
H661 C693 0.929 . S
H662 C695 0.930 . S
H663 C696 0.930 . S
H664 C694 0.929 . S
H665 C697 0.928 . S
O666 Co650 2.057 . S
O666 C654 1.232 . S
H667 C686 0.929 . S
H668 C687 0.929 . S
H669 C699 0.931 . S
H670 C691 0.929 . S
H671 C700 0.930 . S
H672 C692 0.931 . S
O673 Co649 2.097 . S
O673 C701 1.214 . S
H674 C702 0.929 . S
H675 C703 0.929 . S
H676 C704 0.930 . S
H677 C705 0.929 . S
H678 C707 0.930 . S
H679 C684 0.930 . S
H680 C688 0.930 . S
O681 Co650 2.037 . S
O681 C701 1.234 . S
C682 O656 1.269 . S
C682 O657 1.257 . S
C683 H658 0.930 . S
C683 C686 1.388 . S
C683 C688 1.418 . S
C684 H679 0.930 . S
C684 C687 1.404 . S
C684 C688 1.353 . S
N685 Co650 2.145 . S
N685 C686 1.397 . S
N685 C687 1.334 . S
C686 H667 0.929 . S
C686 C683 1.388 . S
C686 N685 1.397 . S
C687 H668 0.929 . S
C687 C684 1.404 . S
C687 N685 1.334 . S
C688 H680 0.930 . S
C688 C683 1.418 . S
C688 C684 1.353 . S
C689 H659 0.930 . S
C689 N690 1.330 . S
C689 C691 1.446 . S
N690 Co649 2.151 . S
N690 C689 1.330 . S
N690 C694 1.418 . S
C691 H670 0.929 . S
C691 C689 1.446 . S
C691 C692 1.332 . S
C692 H672 0.931 . S
C692 C691 1.332 . S
C692 C693 1.267 . S
C693 H661 0.929 . S
C693 C692 1.267 . S
C693 C694 1.251 . S
C694 H664 0.929 . S
C694 N690 1.418 . S
C694 C693 1.251 . S
C695 H662 0.930 . S
C695 C697 1.406 . S
C695 C700 1.261 . S
C696 H663 0.930 . S
C696 N698 1.325 . S
C696 C699 1.357 . S
C697 H665 0.928 . S
C697 C695 1.406 . S
C697 N698 1.261 . S
N698 Co649 2.214 . S
N698 C696 1.325 . S
N698 C697 1.261 . S
C699 H669 0.931 . S
C699 C696 1.357 . S
C699 C700 1.312 . S
C700 H671 0.930 . S
C700 C695 1.261 . S
C700 C699 1.312 . S
C701 O673 1.214 . S
C701 O681 1.234 . S
C702 H674 0.929 . S
C702 C705 1.391 . S
C702 C707 1.391 . S
C703 H675 0.929 . S
C703 C704 1.390 . S
C703 N706 1.391 . S
C704 H676 0.930 . S
C704 C703 1.390 . S
C704 C705 1.392 . S
C705 H677 0.929 . S
C705 C702 1.391 . S
C705 C704 1.392 . S
N706 Co650 2.257 . S
N706 C703 1.391 . S
N706 C707 1.388 . S
C707 H678 0.930 . S
C707 C702 1.391 . S
C707 N706 1.388 . S
Co708 O710 2.143 . S
Co708 O716 2.074 . S
Co708 O719 2.093 . S
Co708 O732 2.097 . S
Co708 N749 2.151 . S
Co708 N757 2.214 . S
Co709 O710 2.160 . S
Co709 O715 2.058 . S
Co709 O725 2.057 . S
Co709 O740 2.037 . S
Co709 N744 2.145 . S
Co709 N765 2.257 1_655 S
O710 Co708 2.143 . S
O710 Co709 2.160 . S
C711 O712 1.278 . S
C711 O719 1.224 . S
O712 C711 1.278 . S
C713 O714 1.245 . S
C713 O725 1.232 . S
O714 C713 1.245 . S
O715 Co709 2.058 . S
O715 C741 1.269 . S
O716 Co708 2.074 . S
O716 C741 1.257 . S
H717 C742 0.930 . S
H718 C748 0.930 . S
O719 Co708 2.093 . S
O719 C711 1.224 . S
H720 C752 0.929 . S
H721 C754 0.930 . S
H722 C755 0.930 . S
H723 C753 0.929 . S
H724 C756 0.928 . S
O725 Co709 2.057 . S
O725 C713 1.232 . S
H726 C745 0.929 . S
H727 C746 0.929 . S
H728 C758 0.931 . S
H729 C750 0.929 . S
H730 C759 0.930 . S
H731 C751 0.931 . S
O732 Co708 2.097 . S
O732 C760 1.214 . S
H733 C761 0.929 . S
H734 C762 0.929 . S
H735 C763 0.930 . S
H736 C764 0.929 . S
H737 C766 0.930 . S
H738 C743 0.930 . S
H739 C747 0.930 . S
O740 Co709 2.037 . S
O740 C760 1.234 . S
C741 O715 1.269 . S
C741 O716 1.257 . S
C742 H717 0.930 . S
C742 C745 1.388 . S
C742 C747 1.418 . S
C743 H738 0.930 . S
C743 C746 1.404 . S
C743 C747 1.353 . S
N744 Co709 2.145 . S
N744 C745 1.397 . S
N744 C746 1.334 . S
C745 H726 0.929 . S
C745 C742 1.388 . S
C745 N744 1.397 . S
C746 H727 0.929 . S
C746 C743 1.404 . S
C746 N744 1.334 . S
C747 H739 0.930 . S
C747 C742 1.418 . S
C747 C743 1.353 . S
C748 H718 0.930 . S
C748 N749 1.330 . S
C748 C750 1.446 . S
N749 Co708 2.151 . S
N749 C748 1.330 . S
N749 C753 1.418 . S
C750 H729 0.929 . S
C750 C748 1.446 . S
C750 C751 1.332 . S
C751 H731 0.931 . S
C751 C750 1.332 . S
C751 C752 1.267 . S
C752 H720 0.929 . S
C752 C751 1.267 . S
C752 C753 1.251 . S
C753 H723 0.929 . S
C753 N749 1.418 . S
C753 C752 1.251 . S
C754 H721 0.930 . S
C754 C756 1.406 . S
C754 C759 1.261 . S
C755 H722 0.930 . S
C755 N757 1.325 . S
C755 C758 1.357 . S
C756 H724 0.928 . S
C756 C754 1.406 . S
C756 N757 1.261 . S
N757 Co708 2.214 . S
N757 C755 1.325 . S
N757 C756 1.261 . S
C758 H728 0.931 . S
C758 C755 1.357 . S
C758 C759 1.312 . S
C759 H730 0.930 . S
C759 C754 1.261 . S
C759 C758 1.312 . S
C760 O732 1.214 . S
C760 O740 1.234 . S
C761 H733 0.929 . S
C761 C764 1.391 . S
C761 C766 1.391 . S
C762 H734 0.929 . S
C762 C763 1.390 . S
C762 N765 1.391 . S
C763 H735 0.930 . S
C763 C762 1.390 . S
C763 C764 1.392 . S
C764 H736 0.929 . S
C764 C761 1.391 . S
C764 C763 1.392 . S
N765 Co709 2.257 1_455 S
N765 C762 1.391 . S
N765 C766 1.388 . S
C766 H737 0.930 . S
C766 C761 1.391 . S
C766 N765 1.388 . S
Co767 O769 2.143 . S
Co767 O775 2.074 . S
Co767 O778 2.093 . S
Co767 O791 2.097 . S
Co767 N808 2.151 . S
Co767 N816 2.214 . S
Co768 O769 2.160 . S
Co768 O774 2.058 . S
Co768 O784 2.057 . S
Co768 O799 2.037 . S
Co768 N803 2.145 . S
Co768 N824 2.257 1_565 S
O769 Co767 2.143 . S
O769 Co768 2.160 . S
C770 O771 1.278 . S
C770 O778 1.224 . S
O771 C770 1.278 . S
C772 O773 1.245 . S
C772 O784 1.232 . S
O773 C772 1.245 . S
O774 Co768 2.058 . S
O774 C800 1.269 . S
O775 Co767 2.074 . S
O775 C800 1.257 . S
H776 C801 0.930 . S
H777 C807 0.930 . S
O778 Co767 2.093 . S
O778 C770 1.224 . S
H779 C811 0.929 . S
H780 C813 0.930 . S
H781 C814 0.930 . S
H782 C812 0.929 . S
H783 C815 0.928 . S
O784 Co768 2.057 . S
O784 C772 1.232 . S
H785 C804 0.929 . S
H786 C805 0.929 . S
H787 C817 0.931 . S
H788 C809 0.929 . S
H789 C818 0.930 . S
H790 C810 0.931 . S
O791 Co767 2.097 . S
O791 C819 1.214 . S
H792 C820 0.929 . S
H793 C821 0.929 . S
H794 C822 0.930 . S
H795 C823 0.929 . S
H796 C825 0.930 . S
H797 C802 0.930 . S
H798 C806 0.930 . S
O799 Co768 2.037 . S
O799 C819 1.234 . S
C800 O774 1.269 . S
C800 O775 1.257 . S
C801 H776 0.930 . S
C801 C804 1.388 . S
C801 C806 1.418 . S
C802 H797 0.930 . S
C802 C805 1.404 . S
C802 C806 1.353 . S
N803 Co768 2.145 . S
N803 C804 1.397 . S
N803 C805 1.334 . S
C804 H785 0.929 . S
C804 C801 1.388 . S
C804 N803 1.397 . S
C805 H786 0.929 . S
C805 C802 1.404 . S
C805 N803 1.334 . S
C806 H798 0.930 . S
C806 C801 1.418 . S
C806 C802 1.353 . S
C807 H777 0.930 . S
C807 N808 1.330 . S
C807 C809 1.446 . S
N808 Co767 2.151 . S
N808 C807 1.330 . S
N808 C812 1.418 . S
C809 H788 0.929 . S
C809 C807 1.446 . S
C809 C810 1.332 . S
C810 H790 0.931 . S
C810 C809 1.332 . S
C810 C811 1.267 . S
C811 H779 0.929 . S
C811 C810 1.267 . S
C811 C812 1.251 . S
C812 H782 0.929 . S
C812 N808 1.418 . S
C812 C811 1.251 . S
C813 H780 0.930 . S
C813 C815 1.406 . S
C813 C818 1.261 . S
C814 H781 0.930 . S
C814 N816 1.325 . S
C814 C817 1.357 . S
C815 H783 0.928 . S
C815 C813 1.406 . S
C815 N816 1.261 . S
N816 Co767 2.214 . S
N816 C814 1.325 . S
N816 C815 1.261 . S
C817 H787 0.931 . S
C817 C814 1.357 . S
C817 C818 1.312 . S
C818 H789 0.930 . S
C818 C813 1.261 . S
C818 C817 1.312 . S
C819 O791 1.214 . S
C819 O799 1.234 . S
C820 H792 0.929 . S
C820 C823 1.391 . S
C820 C825 1.391 . S
C821 H793 0.929 . S
C821 C822 1.390 . S
C821 N824 1.391 . S
C822 H794 0.930 . S
C822 C821 1.390 . S
C822 C823 1.392 . S
C823 H795 0.929 . S
C823 C820 1.391 . S
C823 C822 1.392 . S
N824 Co768 2.257 1_545 S
N824 C821 1.391 . S
N824 C825 1.388 . S
C825 H796 0.930 . S
C825 C820 1.391 . S
C825 N824 1.388 . S
Co826 O828 2.143 . S
Co826 O834 2.074 . S
Co826 O837 2.093 . S
Co826 O850 2.097 . S
Co826 N867 2.151 . S
Co826 N875 2.214 . S
Co827 O828 2.160 . S
Co827 O833 2.058 . S
Co827 O843 2.057 . S
Co827 O858 2.037 . S
Co827 N862 2.145 . S
Co827 N883 2.257 . S
O828 Co826 2.143 . S
O828 Co827 2.160 . S
C829 O830 1.278 . S
C829 O837 1.224 . S
O830 C829 1.278 . S
C831 O832 1.245 . S
C831 O843 1.232 . S
O832 C831 1.245 . S
O833 Co827 2.058 . S
O833 C859 1.269 . S
O834 Co826 2.074 . S
O834 C859 1.257 . S
H835 C860 0.930 . S
H836 C866 0.930 . S
O837 Co826 2.093 . S
O837 C829 1.224 . S
H838 C870 0.929 . S
H839 C872 0.930 . S
H840 C873 0.930 . S
H841 C871 0.929 . S
H842 C874 0.928 . S
O843 Co827 2.057 . S
O843 C831 1.232 . S
H844 C863 0.929 . S
H845 C864 0.929 . S
H846 C876 0.931 . S
H847 C868 0.929 . S
H848 C877 0.930 . S
H849 C869 0.931 . S
O850 Co826 2.097 . S
O850 C878 1.214 . S
H851 C879 0.929 . S
H852 C880 0.929 . S
H853 C881 0.930 . S
H854 C882 0.929 . S
H855 C884 0.930 . S
H856 C861 0.930 . S
H857 C865 0.930 . S
O858 Co827 2.037 . S
O858 C878 1.234 . S
C859 O833 1.269 . S
C859 O834 1.257 . S
C860 H835 0.930 . S
C860 C863 1.388 . S
C860 C865 1.418 . S
C861 H856 0.930 . S
C861 C864 1.404 . S
C861 C865 1.353 . S
N862 Co827 2.145 . S
N862 C863 1.397 . S
N862 C864 1.334 . S
C863 H844 0.929 . S
C863 C860 1.388 . S
C863 N862 1.397 . S
C864 H845 0.929 . S
C864 C861 1.404 . S
C864 N862 1.334 . S
C865 H857 0.930 . S
C865 C860 1.418 . S
C865 C861 1.353 . S
C866 H836 0.930 . S
C866 N867 1.330 . S
C866 C868 1.446 . S
N867 Co826 2.151 . S
N867 C866 1.330 . S
N867 C871 1.418 . S
C868 H847 0.929 . S
C868 C866 1.446 . S
C868 C869 1.332 . S
C869 H849 0.931 . S
C869 C868 1.332 . S
C869 C870 1.267 . S
C870 H838 0.929 . S
C870 C869 1.267 . S
C870 C871 1.251 . S
C871 H841 0.929 . S
C871 N867 1.418 . S
C871 C870 1.251 . S
C872 H839 0.930 . S
C872 C874 1.406 . S
C872 C877 1.261 . S
C873 H840 0.930 . S
C873 N875 1.325 . S
C873 C876 1.357 . S
C874 H842 0.928 . S
C874 C872 1.406 . S
C874 N875 1.261 . S
N875 Co826 2.214 . S
N875 C873 1.325 . S
N875 C874 1.261 . S
C876 H846 0.931 . S
C876 C873 1.357 . S
C876 C877 1.312 . S
C877 H848 0.930 . S
C877 C872 1.261 . S
C877 C876 1.312 . S
C878 O850 1.214 . S
C878 O858 1.234 . S
C879 H851 0.929 . S
C879 C882 1.391 . S
C879 C884 1.391 . S
C880 H852 0.929 . S
C880 C881 1.390 . S
C880 N883 1.391 . S
C881 H853 0.930 . S
C881 C880 1.390 . S
C881 C882 1.392 . S
C882 H854 0.929 . S
C882 C879 1.391 . S
C882 C881 1.392 . S
N883 Co827 2.257 . S
N883 C880 1.391 . S
N883 C884 1.388 . S
C884 H855 0.930 . S
C884 C879 1.391 . S
C884 N883 1.388 . S
Co885 O887 2.143 . S
Co885 O893 2.074 . S
Co885 O896 2.093 . S
Co885 O909 2.097 . S
Co885 N926 2.151 . S
Co885 N934 2.214 . S
Co886 O887 2.160 . S
Co886 O892 2.058 . S
Co886 O902 2.057 . S
Co886 O917 2.037 . S
Co886 N921 2.145 . S
Co886 N942 2.257 . S
O887 Co885 2.143 . S
O887 Co886 2.160 . S
C888 O889 1.278 . S
C888 O896 1.224 . S
O889 C888 1.278 . S
C890 O891 1.245 . S
C890 O902 1.232 . S
O891 C890 1.245 . S
O892 Co886 2.058 . S
O892 C918 1.269 . S
O893 Co885 2.074 . S
O893 C918 1.257 . S
H894 C919 0.930 . S
H895 C925 0.930 . S
O896 Co885 2.093 . S
O896 C888 1.224 . S
H897 C929 0.929 . S
H898 C931 0.930 . S
H899 C932 0.930 . S
H900 C930 0.929 . S
H901 C933 0.928 . S
O902 Co886 2.057 . S
O902 C890 1.232 . S
H903 C922 0.929 . S
H904 C923 0.929 . S
H905 C935 0.931 . S
H906 C927 0.929 . S
H907 C936 0.930 . S
H908 C928 0.931 . S
O909 Co885 2.097 . S
O909 C937 1.214 . S
H910 C938 0.929 . S
H911 C939 0.929 . S
H912 C940 0.930 . S
H913 C941 0.929 . S
H914 C943 0.930 . S
H915 C920 0.930 . S
H916 C924 0.930 . S
O917 Co886 2.037 . S
O917 C937 1.234 . S
C918 O892 1.269 . S
C918 O893 1.257 . S
C919 H894 0.930 . S
C919 C922 1.388 . S
C919 C924 1.418 . S
C920 H915 0.930 . S
C920 C923 1.404 . S
C920 C924 1.353 . S
N921 Co886 2.145 . S
N921 C922 1.397 . S
N921 C923 1.334 . S
C922 H903 0.929 . S
C922 C919 1.388 . S
C922 N921 1.397 . S
C923 H904 0.929 . S
C923 C920 1.404 . S
C923 N921 1.334 . S
C924 H916 0.930 . S
C924 C919 1.418 . S
C924 C920 1.353 . S
C925 H895 0.930 . S
C925 N926 1.330 . S
C925 C927 1.446 . S
N926 Co885 2.151 . S
N926 C925 1.330 . S
N926 C930 1.418 . S
C927 H906 0.929 . S
C927 C925 1.446 . S
C927 C928 1.332 . S
C928 H908 0.931 . S
C928 C927 1.332 . S
C928 C929 1.267 . S
C929 H897 0.929 . S
C929 C928 1.267 . S
C929 C930 1.251 . S
C930 H900 0.929 . S
C930 N926 1.418 . S
C930 C929 1.251 . S
C931 H898 0.930 . S
C931 C933 1.406 . S
C931 C936 1.261 . S
C932 H899 0.930 . S
C932 N934 1.325 . S
C932 C935 1.357 . S
C933 H901 0.928 . S
C933 C931 1.406 . S
C933 N934 1.261 . S
N934 Co885 2.214 . S
N934 C932 1.325 . S
N934 C933 1.261 . S
C935 H905 0.931 . S
C935 C932 1.357 . S
C935 C936 1.312 . S
C936 H907 0.930 . S
C936 C931 1.261 . S
C936 C935 1.312 . S
C937 O909 1.214 . S
C937 O917 1.234 . S
C938 H910 0.929 . S
C938 C941 1.391 . S
C938 C943 1.391 . S
C939 H911 0.929 . S
C939 C940 1.390 . S
C939 N942 1.391 . S
C940 H912 0.930 . S
C940 C939 1.390 . S
C940 C941 1.392 . S
C941 H913 0.929 . S
C941 C938 1.391 . S
C941 C940 1.392 . S
N942 Co886 2.257 . S
N942 C939 1.391 . S
N942 C943 1.388 . S
C943 H914 0.930 . S
C943 C938 1.391 . S
C943 N942 1.388 . S
C944 C945 1.349 . S
C944 C946 1.327 . S
C944 H969 0.950 . S
C945 C944 1.349 . S
C945 C961 1.349 . S
C946 C944 1.327 . S
C946 C965 1.429 . S
C946 H970 0.950 . S
C947 C964 1.574 . S
C947 C966 1.368 . S
C947 H971 0.949 . S
H948 C952 0.949 . S
C949 C950 1.349 . S
C949 C951 1.327 . S
C949 H972 0.950 . S
C950 C949 1.349 . S
C950 C962 1.349 . S
C951 C949 1.327 . S
C951 C967 1.429 . S
C951 H973 0.950 . S
C952 H948 0.949 . S
C952 C960 1.574 . S
C952 C968 1.368 . S
H953 C961 0.950 . S
H954 C959 0.950 . S
H955 C960 0.949 . S
H956 C962 0.950 . S
H957 C963 0.950 . S
H958 C964 0.949 . S
C959 H954 0.950 . S
C959 C961 1.327 . S
C959 C965 1.429 . S
C960 C952 1.574 . S
C960 H955 0.949 . S
C960 C966 1.368 . S
C961 C945 1.349 . S
C961 H953 0.950 . S
C961 C959 1.327 . S
C962 C950 1.349 . S
C962 H956 0.950 . S
C962 C963 1.327 . S
C963 H957 0.950 . S
C963 C962 1.327 . S
C963 C967 1.429 . S
C964 C947 1.574 . S
C964 H958 0.949 . S
C964 C968 1.368 . S
C965 C946 1.429 . S
C965 C959 1.429 . S
C965 C966 1.523 . S
C966 C947 1.368 . S
C966 C960 1.368 . S
C966 C965 1.523 . S
C967 C951 1.429 . S
C967 C963 1.429 . S
C967 C968 1.523 . S
C968 C952 1.368 . S
C968 C964 1.368 . S
C968 C967 1.523 . S
H969 C944 0.950 . S
H970 C946 0.950 . S
H971 C947 0.949 . S
H972 C949 0.950 . S
H973 C951 0.950 . S
C974 C975 1.349 . S
C974 C976 1.327 . S
C974 H999 0.950 . S
C975 C974 1.349 . S
C975 C991 1.349 . S
C976 C974 1.327 . S
C976 C995 1.429 . S
C976 H1000 0.950 . S
C977 C994 1.574 . S
C977 C996 1.368 . S
C977 H1001 0.949 . S
H978 C982 0.949 . S
C979 C980 1.349 . S
C979 C981 1.327 . S
C979 H1002 0.950 . S
C980 C979 1.349 . S
C980 C992 1.349 . S
C981 C979 1.327 . S
C981 C997 1.429 . S
C981 H1003 0.950 . S
C982 H978 0.949 . S
C982 C990 1.574 . S
C982 C998 1.368 . S
H983 C991 0.950 . S
H984 C989 0.950 . S
H985 C990 0.949 . S
H986 C992 0.950 . S
H987 C993 0.950 . S
H988 C994 0.949 . S
C989 H984 0.950 . S
C989 C991 1.327 . S
C989 C995 1.429 . S
C990 C982 1.574 . S
C990 H985 0.949 . S
C990 C996 1.368 . S
C991 C975 1.349 . S
C991 H983 0.950 . S
C991 C989 1.327 . S
C992 C980 1.349 . S
C992 H986 0.950 . S
C992 C993 1.327 . S
C993 H987 0.950 . S
C993 C992 1.327 . S
C993 C997 1.429 . S
C994 C977 1.574 . S
C994 H988 0.949 . S
C994 C998 1.368 . S
C995 C976 1.429 . S
C995 C989 1.429 . S
C995 C996 1.523 . S
C996 C977 1.368 . S
C996 C990 1.368 . S
C996 C995 1.523 . S
C997 C981 1.429 . S
C997 C993 1.429 . S
C997 C998 1.523 . S
C998 C982 1.368 . S
C998 C994 1.368 . S
C998 C997 1.523 . S
H999 C974 0.950 . S
H1000 C976 0.950 . S
H1001 C977 0.949 . S
H1002 C979 0.950 . S
H1003 C981 0.950 . S
C1004 C1005 1.349 . S
C1004 C1006 1.327 . S
C1004 H1029 0.950 . S
C1005 C1004 1.349 . S
C1005 C1021 1.349 . S
C1006 C1004 1.327 . S
C1006 C1025 1.429 . S
C1006 H1030 0.950 . S
C1007 C1024 1.574 . S
C1007 C1026 1.368 . S
C1007 H1031 0.949 . S
H1008 C1012 0.949 . S
C1009 C1010 1.349 . S
C1009 C1011 1.327 . S
C1009 H1032 0.950 . S
C1010 C1009 1.349 . S
C1010 C1022 1.349 . S
C1011 C1009 1.327 . S
C1011 C1027 1.429 . S
C1011 H1033 0.950 . S
C1012 H1008 0.949 . S
C1012 C1020 1.574 . S
C1012 C1028 1.368 . S
H1013 C1021 0.950 . S
H1014 C1019 0.950 . S
H1015 C1020 0.949 . S
H1016 C1022 0.950 . S
H1017 C1023 0.950 . S
H1018 C1024 0.949 . S
C1019 H1014 0.950 . S
C1019 C1021 1.327 . S
C1019 C1025 1.429 . S
C1020 C1012 1.574 . S
C1020 H1015 0.949 . S
C1020 C1026 1.368 . S
C1021 C1005 1.349 . S
C1021 H1013 0.950 . S
C1021 C1019 1.327 . S
C1022 C1010 1.349 . S
C1022 H1016 0.950 . S
C1022 C1023 1.327 . S
C1023 H1017 0.950 . S
C1023 C1022 1.327 . S
C1023 C1027 1.429 . S
C1024 C1007 1.574 . S
C1024 H1018 0.949 . S
C1024 C1028 1.368 . S
C1025 C1006 1.429 . S
C1025 C1019 1.429 . S
C1025 C1026 1.523 . S
C1026 C1007 1.368 . S
C1026 C1020 1.368 . S
C1026 C1025 1.523 . S
C1027 C1011 1.429 . S
C1027 C1023 1.429 . S
C1027 C1028 1.523 . S
C1028 C1012 1.368 . S
C1028 C1024 1.368 . S
C1028 C1027 1.523 . S
H1029 C1004 0.950 . S
H1030 C1006 0.950 . S
H1031 C1007 0.949 . S
H1032 C1009 0.950 . S
H1033 C1011 0.950 . S
C1034 C1035 1.349 . S
C1034 C1036 1.327 . S
C1034 H1059 0.950 . S
C1035 C1034 1.349 . S
C1035 C1051 1.349 . S
C1036 C1034 1.327 . S
C1036 C1055 1.429 . S
C1036 H1060 0.950 . S
C1037 C1054 1.574 . S
C1037 C1056 1.368 . S
C1037 H1061 0.949 . S
H1038 C1042 0.949 . S
C1039 C1040 1.349 . S
C1039 C1041 1.327 . S
C1039 H1062 0.950 . S
C1040 C1039 1.349 . S
C1040 C1052 1.349 . S
C1041 C1039 1.327 . S
C1041 C1057 1.429 . S
C1041 H1063 0.950 . S
C1042 H1038 0.949 . S
C1042 C1050 1.574 . S
C1042 C1058 1.368 . S
H1043 C1051 0.950 . S
H1044 C1049 0.950 . S
H1045 C1050 0.949 . S
H1046 C1052 0.950 . S
H1047 C1053 0.950 . S
H1048 C1054 0.949 . S
C1049 H1044 0.950 . S
C1049 C1051 1.327 . S
C1049 C1055 1.429 . S
C1050 C1042 1.574 . S
C1050 H1045 0.949 . S
C1050 C1056 1.368 . S
C1051 C1035 1.349 . S
C1051 H1043 0.950 . S
C1051 C1049 1.327 . S
C1052 C1040 1.349 . S
C1052 H1046 0.950 . S
C1052 C1053 1.327 . S
C1053 H1047 0.950 . S
C1053 C1052 1.327 . S
C1053 C1057 1.429 . S
C1054 C1037 1.574 . S
C1054 H1048 0.949 . S
C1054 C1058 1.368 . S
C1055 C1036 1.429 . S
C1055 C1049 1.429 . S
C1055 C1056 1.523 . S
C1056 C1037 1.368 . S
C1056 C1050 1.368 . S
C1056 C1055 1.523 . S
C1057 C1041 1.429 . S
C1057 C1053 1.429 . S
C1057 C1058 1.523 . S
C1058 C1042 1.368 . S
C1058 C1054 1.368 . S
C1058 C1057 1.523 . S
H1059 C1034 0.950 . S
H1060 C1036 0.950 . S
H1061 C1037 0.949 . S
H1062 C1039 0.950 . S
H1063 C1041 0.950 . S
C1064 C1065 1.349 . S
C1064 C1066 1.327 . S
C1064 H1089 0.950 . S
C1065 C1064 1.349 . S
C1065 C1081 1.349 . S
C1066 C1064 1.327 . S
C1066 C1085 1.429 . S
C1066 H1090 0.950 . S
C1067 C1084 1.574 . S
C1067 C1086 1.368 . S
C1067 H1091 0.949 . S
H1068 C1072 0.949 . S
C1069 C1070 1.349 . S
C1069 C1071 1.327 . S
C1069 H1092 0.950 . S
C1070 C1069 1.349 . S
C1070 C1082 1.349 . S
C1071 C1069 1.327 . S
C1071 C1087 1.429 . S
C1071 H1093 0.950 . S
C1072 H1068 0.949 . S
C1072 C1080 1.574 . S
C1072 C1088 1.368 . S
H1073 C1081 0.950 . S
H1074 C1079 0.950 . S
H1075 C1080 0.949 . S
H1076 C1082 0.950 . S
H1077 C1083 0.950 . S
H1078 C1084 0.949 . S
C1079 H1074 0.950 . S
C1079 C1081 1.327 . S
C1079 C1085 1.429 . S
C1080 C1072 1.574 . S
C1080 H1075 0.949 . S
C1080 C1086 1.368 . S
C1081 C1065 1.349 . S
C1081 H1073 0.950 . S
C1081 C1079 1.327 . S
C1082 C1070 1.349 . S
C1082 H1076 0.950 . S
C1082 C1083 1.327 . S
C1083 H1077 0.950 . S
C1083 C1082 1.327 . S
C1083 C1087 1.429 . S
C1084 C1067 1.574 . S
C1084 H1078 0.949 . S
C1084 C1088 1.368 . S
C1085 C1066 1.429 . S
C1085 C1079 1.429 . S
C1085 C1086 1.523 . S
C1086 C1067 1.368 . S
C1086 C1080 1.368 . S
C1086 C1085 1.523 . S
C1087 C1071 1.429 . S
C1087 C1083 1.429 . S
C1087 C1088 1.523 . S
C1088 C1072 1.368 . S
C1088 C1084 1.368 . S
C1088 C1087 1.523 . S
H1089 C1064 0.950 . S
H1090 C1066 0.950 . S
H1091 C1067 0.949 . S
H1092 C1069 0.950 . S
H1093 C1071 0.950 . S
C1094 C1095 1.349 . S
C1094 C1096 1.327 . S
C1094 H1119 0.950 . S
C1095 C1094 1.349 . S
C1095 C1111 1.349 . S
C1096 C1094 1.327 . S
C1096 C1115 1.429 . S
C1096 H1120 0.950 . S
C1097 C1114 1.574 . S
C1097 C1116 1.368 . S
C1097 H1121 0.949 . S
H1098 C1102 0.949 . S
C1099 C1100 1.349 . S
C1099 C1101 1.327 . S
C1099 H1122 0.950 . S
C1100 C1099 1.349 . S
C1100 C1112 1.349 . S
C1101 C1099 1.327 . S
C1101 C1117 1.429 . S
C1101 H1123 0.950 . S
C1102 H1098 0.949 . S
C1102 C1110 1.574 . S
C1102 C1118 1.368 . S
H1103 C1111 0.950 . S
H1104 C1109 0.950 . S
H1105 C1110 0.949 . S
H1106 C1112 0.950 . S
H1107 C1113 0.950 . S
H1108 C1114 0.949 . S
C1109 H1104 0.950 . S
C1109 C1111 1.327 . S
C1109 C1115 1.429 . S
C1110 C1102 1.574 . S
C1110 H1105 0.949 . S
C1110 C1116 1.368 . S
C1111 C1095 1.349 . S
C1111 H1103 0.950 . S
C1111 C1109 1.327 . S
C1112 C1100 1.349 . S
C1112 H1106 0.950 . S
C1112 C1113 1.327 . S
C1113 H1107 0.950 . S
C1113 C1112 1.327 . S
C1113 C1117 1.429 . S
C1114 C1097 1.574 . S
C1114 H1108 0.949 . S
C1114 C1118 1.368 . S
C1115 C1096 1.429 . S
C1115 C1109 1.429 . S
C1115 C1116 1.523 . S
C1116 C1097 1.368 . S
C1116 C1110 1.368 . S
C1116 C1115 1.523 . S
C1117 C1101 1.429 . S
C1117 C1113 1.429 . S
C1117 C1118 1.523 . S
C1118 C1102 1.368 . S
C1118 C1114 1.368 . S
C1118 C1117 1.523 . S
H1119 C1094 0.950 . S
H1120 C1096 0.950 . S
H1121 C1097 0.949 . S
H1122 C1099 0.950 . S
H1123 C1101 0.950 . S
C1124 C1125 1.349 . S
C1124 C1126 1.327 . S
C1124 H1149 0.950 . S
C1125 C1124 1.349 . S
C1125 C1141 1.349 . S
C1126 C1124 1.327 . S
C1126 C1145 1.429 . S
C1126 H1150 0.950 . S
C1127 C1144 1.574 . S
C1127 C1146 1.368 . S
C1127 H1151 0.949 . S
H1128 C1132 0.949 . S
C1129 C1130 1.349 . S
C1129 C1131 1.327 . S
C1129 H1152 0.950 . S
C1130 C1129 1.349 . S
C1130 C1142 1.349 . S
C1131 C1129 1.327 . S
C1131 C1147 1.429 . S
C1131 H1153 0.950 . S
C1132 H1128 0.949 . S
C1132 C1140 1.574 . S
C1132 C1148 1.368 . S
H1133 C1141 0.950 . S
H1134 C1139 0.950 . S
H1135 C1140 0.949 . S
H1136 C1142 0.950 . S
H1137 C1143 0.950 . S
H1138 C1144 0.949 . S
C1139 H1134 0.950 . S
C1139 C1141 1.327 . S
C1139 C1145 1.429 . S
C1140 C1132 1.574 . S
C1140 H1135 0.949 . S
C1140 C1146 1.368 . S
C1141 C1125 1.349 . S
C1141 H1133 0.950 . S
C1141 C1139 1.327 . S
C1142 C1130 1.349 . S
C1142 H1136 0.950 . S
C1142 C1143 1.327 . S
C1143 H1137 0.950 . S
C1143 C1142 1.327 . S
C1143 C1147 1.429 . S
C1144 C1127 1.574 . S
C1144 H1138 0.949 . S
C1144 C1148 1.368 . S
C1145 C1126 1.429 . S
C1145 C1139 1.429 . S
C1145 C1146 1.523 . S
C1146 C1127 1.368 . S
C1146 C1140 1.368 . S
C1146 C1145 1.523 . S
C1147 C1131 1.429 . S
C1147 C1143 1.429 . S
C1147 C1148 1.523 . S
C1148 C1132 1.368 . S
C1148 C1144 1.368 . S
C1148 C1147 1.523 . S
H1149 C1124 0.950 . S
H1150 C1126 0.950 . S
H1151 C1127 0.949 . S
H1152 C1129 0.950 . S
H1153 C1131 0.950 . S
C1154 C1155 1.349 . S
C1154 C1156 1.327 . S
C1154 H1179 0.950 . S
C1155 C1154 1.349 . S
C1155 C1171 1.349 . S
C1156 C1154 1.327 . S
C1156 C1175 1.429 . S
C1156 H1180 0.950 . S
C1157 C1174 1.574 . S
C1157 C1176 1.368 . S
C1157 H1181 0.949 . S
H1158 C1162 0.949 . S
C1159 C1160 1.349 . S
C1159 C1161 1.327 . S
C1159 H1182 0.950 . S
C1160 C1159 1.349 . S
C1160 C1172 1.349 . S
C1161 C1159 1.327 . S
C1161 C1177 1.429 . S
C1161 H1183 0.950 . S
C1162 H1158 0.949 . S
C1162 C1170 1.574 . S
C1162 C1178 1.368 . S
H1163 C1171 0.950 . S
H1164 C1169 0.950 . S
H1165 C1170 0.949 . S
H1166 C1172 0.950 . S
H1167 C1173 0.950 . S
H1168 C1174 0.949 . S
C1169 H1164 0.950 . S
C1169 C1171 1.327 . S
C1169 C1175 1.429 . S
C1170 C1162 1.574 . S
C1170 H1165 0.949 . S
C1170 C1176 1.368 . S
C1171 C1155 1.349 . S
C1171 H1163 0.950 . S
C1171 C1169 1.327 . S
C1172 C1160 1.349 . S
C1172 H1166 0.950 . S
C1172 C1173 1.327 . S
C1173 H1167 0.950 . S
C1173 C1172 1.327 . S
C1173 C1177 1.429 . S
C1174 C1157 1.574 . S
C1174 H1168 0.949 . S
C1174 C1178 1.368 . S
C1175 C1156 1.429 . S
C1175 C1169 1.429 . S
C1175 C1176 1.523 . S
C1176 C1157 1.368 . S
C1176 C1170 1.368 . S
C1176 C1175 1.523 . S
C1177 C1161 1.429 . S
C1177 C1173 1.429 . S
C1177 C1178 1.523 . S
C1178 C1162 1.368 . S
C1178 C1174 1.368 . S
C1178 C1177 1.523 . S
H1179 C1154 0.950 . S
H1180 C1156 0.950 . S
H1181 C1157 0.949 . S
H1182 C1159 0.950 . S
H1183 C1161 0.950 . S
C1184 C1185 1.349 . S
C1184 C1186 1.327 . S
C1184 H1209 0.950 . S
C1185 C1184 1.349 . S
C1185 C1201 1.349 . S
C1186 C1184 1.327 . S
C1186 C1205 1.429 . S
C1186 H1210 0.950 . S
C1187 C1204 1.574 . S
C1187 C1206 1.368 . S
C1187 H1211 0.949 . S
H1188 C1192 0.949 . S
C1189 C1190 1.349 . S
C1189 C1191 1.327 . S
C1189 H1212 0.950 . S
C1190 C1189 1.349 . S
C1190 C1202 1.349 1_455 S
C1191 C1189 1.327 . S
C1191 C1207 1.429 1_455 S
C1191 H1213 0.950 . S
C1192 H1188 0.949 . S
C1192 C1200 1.574 . S
C1192 C1208 1.368 . S
H1193 C1201 0.950 . S
H1194 C1199 0.950 . S
H1195 C1200 0.949 . S
H1196 C1202 0.950 . S
H1197 C1203 0.950 . S
H1198 C1204 0.949 1_455 S
C1199 H1194 0.950 . S
C1199 C1201 1.327 . S
C1199 C1205 1.429 . S
C1200 C1192 1.574 . S
C1200 H1195 0.949 . S
C1200 C1206 1.368 . S
C1201 C1185 1.349 . S
C1201 H1193 0.950 . S
C1201 C1199 1.327 . S
C1202 C1190 1.349 1_655 S
C1202 H1196 0.950 . S
C1202 C1203 1.327 . S
C1203 H1197 0.950 . S
C1203 C1202 1.327 . S
C1203 C1207 1.429 . S
C1204 C1187 1.574 . S
C1204 H1198 0.949 1_655 S
C1204 C1208 1.368 . S
C1205 C1186 1.429 . S
C1205 C1199 1.429 . S
C1205 C1206 1.523 . S
C1206 C1187 1.368 . S
C1206 C1200 1.368 . S
C1206 C1205 1.523 . S
C1207 C1191 1.429 1_655 S
C1207 C1203 1.429 . S
C1207 C1208 1.523 . S
C1208 C1192 1.368 . S
C1208 C1204 1.368 . S
C1208 C1207 1.523 . S
H1209 C1184 0.950 . S
H1210 C1186 0.950 . S
H1211 C1187 0.949 . S
H1212 C1189 0.950 . S
H1213 C1191 0.950 . S
C1214 C1215 1.349 . S
C1214 C1216 1.327 1_545 S
C1214 H1239 0.949 1_545 S
C1215 C1214 1.349 . S
C1215 C1231 1.349 . S
C1216 C1214 1.327 1_565 S
C1216 C1235 1.429 . S
C1216 H1240 0.950 . S
C1217 C1234 1.574 . S
C1217 C1236 1.368 . S
C1217 H1241 0.949 . S
H1218 C1222 0.949 1_455 S
C1219 C1220 1.349 1_655 S
C1219 C1221 1.327 . S
C1219 H1242 0.950 . S
C1220 C1219 1.349 1_455 S
C1220 C1232 1.349 . S
C1221 C1219 1.327 . S
C1221 C1237 1.429 . S
C1221 H1243 0.950 . S
C1222 H1218 0.949 1_655 S
C1222 C1230 1.574 . S
C1222 C1238 1.368 . S
H1223 C1231 0.950 . S
H1224 C1229 0.950 . S
H1225 C1230 0.949 . S
H1226 C1232 0.950 . S
H1227 C1233 0.950 . S
H1228 C1234 0.949 . S
C1229 H1224 0.950 . S
C1229 C1231 1.327 . S
C1229 C1235 1.429 1_545 S
C1230 C1222 1.574 . S
C1230 H1225 0.949 . S
C1230 C1236 1.368 . S
C1231 C1215 1.349 . S
C1231 H1223 0.950 . S
C1231 C1229 1.327 . S
C1232 C1220 1.349 . S
C1232 H1226 0.950 . S
C1232 C1233 1.327 . S
C1233 H1227 0.950 . S
C1233 C1232 1.327 . S
C1233 C1237 1.429 1_455 S
C1234 C1217 1.574 . S
C1234 H1228 0.949 . S
C1234 C1238 1.368 . S
C1235 C1216 1.429 . S
C1235 C1229 1.429 1_565 S
C1235 C1236 1.523 . S
C1236 C1217 1.368 . S
C1236 C1230 1.368 . S
C1236 C1235 1.523 . S
C1237 C1221 1.429 . S
C1237 C1233 1.429 1_655 S
C1237 C1238 1.523 . S
C1238 C1222 1.368 . S
C1238 C1234 1.368 . S
C1238 C1237 1.523 . S
H1239 C1214 0.949 1_565 S
H1240 C1216 0.950 . S
H1241 C1217 0.949 . S
H1242 C1219 0.950 . S
H1243 C1221 0.950 . S
C1244 C1245 1.349 1_565 S
C1244 C1246 1.327 . S
C1244 H1269 0.950 . S
C1245 C1244 1.349 1_545 S
C1245 C1261 1.349 . S
C1246 C1244 1.327 . S
C1246 C1265 1.429 . S
C1246 H1270 0.950 . S
C1247 C1264 1.574 . S
C1247 C1266 1.368 . S
C1247 H1271 0.949 1_565 S
H1248 C1252 0.949 . S
C1249 C1250 1.349 . S
C1249 C1251 1.327 . S
C1249 H1272 0.950 . S
C1250 C1249 1.349 . S
C1250 C1262 1.349 . S
C1251 C1249 1.327 . S
C1251 C1267 1.429 . S
C1251 H1273 0.950 . S
C1252 H1248 0.949 . S
C1252 C1260 1.574 . S
C1252 C1268 1.368 . S
H1253 C1261 0.950 . S
H1254 C1259 0.950 . S
H1255 C1260 0.949 . S
H1256 C1262 0.950 . S
H1257 C1263 0.950 . S
H1258 C1264 0.949 . S
C1259 H1254 0.950 . S
C1259 C1261 1.327 . S
C1259 C1265 1.429 1_545 S
C1260 C1252 1.574 . S
C1260 H1255 0.949 . S
C1260 C1266 1.368 . S
C1261 C1245 1.349 . S
C1261 H1253 0.950 . S
C1261 C1259 1.327 . S
C1262 C1250 1.349 . S
C1262 H1256 0.950 . S
C1262 C1263 1.327 . S
C1263 H1257 0.950 . S
C1263 C1262 1.327 . S
C1263 C1267 1.429 . S
C1264 C1247 1.574 . S
C1264 H1258 0.949 . S
C1264 C1268 1.368 . S
C1265 C1246 1.429 . S
C1265 C1259 1.429 1_565 S
C1265 C1266 1.523 . S
C1266 C1247 1.368 . S
C1266 C1260 1.368 . S
C1266 C1265 1.523 . S
C1267 C1251 1.429 . S
C1267 C1263 1.429 . S
C1267 C1268 1.523 . S
C1268 C1252 1.368 . S
C1268 C1264 1.368 . S
C1268 C1267 1.523 . S
H1269 C1244 0.950 . S
H1270 C1246 0.950 . S
H1271 C1247 0.949 1_545 S
H1272 C1249 0.950 . S
H1273 C1251 0.950 . S
C1274 C1275 1.349 . S
C1274 C1276 1.327 . S
C1274 H1299 0.950 . S
C1275 C1274 1.349 . S
C1275 C1291 1.349 . S
C1276 C1274 1.327 . S
C1276 C1295 1.429 . S
C1276 H1300 0.950 . S
C1277 C1294 1.574 . S
C1277 C1296 1.368 . S
C1277 H1301 0.949 . S
H1278 C1282 0.949 . S
C1279 C1280 1.349 . S
C1279 C1281 1.327 . S
C1279 H1302 0.950 . S
C1280 C1279 1.349 . S
C1280 C1292 1.349 . S
C1281 C1279 1.327 . S
C1281 C1297 1.429 . S
C1281 H1303 0.950 . S
C1282 H1278 0.949 . S
C1282 C1290 1.574 . S
C1282 C1298 1.368 . S
H1283 C1291 0.950 . S
H1284 C1289 0.950 . S
H1285 C1290 0.949 . S
H1286 C1292 0.950 . S
H1287 C1293 0.950 . S
H1288 C1294 0.949 . S
C1289 H1284 0.950 . S
C1289 C1291 1.327 . S
C1289 C1295 1.429 . S
C1290 C1282 1.574 . S
C1290 H1285 0.949 . S
C1290 C1296 1.368 . S
C1291 C1275 1.349 . S
C1291 H1283 0.950 . S
C1291 C1289 1.327 . S
C1292 C1280 1.349 . S
C1292 H1286 0.950 . S
C1292 C1293 1.327 . S
C1293 H1287 0.950 . S
C1293 C1292 1.327 . S
C1293 C1297 1.429 . S
C1294 C1277 1.574 . S
C1294 H1288 0.949 . S
C1294 C1298 1.368 . S
C1295 C1276 1.429 . S
C1295 C1289 1.429 . S
C1295 C1296 1.523 . S
C1296 C1277 1.368 . S
C1296 C1290 1.368 . S
C1296 C1295 1.523 . S
C1297 C1281 1.429 . S
C1297 C1293 1.429 . S
C1297 C1298 1.523 . S
C1298 C1282 1.368 . S
C1298 C1294 1.368 . S
C1298 C1297 1.523 . S
H1299 C1274 0.950 . S
H1300 C1276 0.950 . S
H1301 C1277 0.949 . S
H1302 C1279 0.950 . S
H1303 C1281 0.950 . S
C1304 C1305 1.349 . S
C1304 C1306 1.327 . S
C1304 H1329 0.950 . S
C1305 C1304 1.349 . S
C1305 C1321 1.349 . S
C1306 C1304 1.327 . S
C1306 C1325 1.429 . S
C1306 H1330 0.950 . S
C1307 C1324 1.574 . S
C1307 C1326 1.368 . S
C1307 H1331 0.949 . S
H1308 C1312 0.949 . S
C1309 C1310 1.349 . S
C1309 C1311 1.327 . S
C1309 H1332 0.950 . S
C1310 C1309 1.349 . S
C1310 C1322 1.349 1_655 S
C1311 C1309 1.327 . S
C1311 C1327 1.429 1_655 S
C1311 H1333 0.950 . S
C1312 H1308 0.949 . S
C1312 C1320 1.574 . S
C1312 C1328 1.368 . S
H1313 C1321 0.950 . S
H1314 C1319 0.950 . S
H1315 C1320 0.949 . S
H1316 C1322 0.950 . S
H1317 C1323 0.950 . S
H1318 C1324 0.949 1_655 S
C1319 H1314 0.950 . S
C1319 C1321 1.327 . S
C1319 C1325 1.429 . S
C1320 C1312 1.574 . S
C1320 H1315 0.949 . S
C1320 C1326 1.368 . S
C1321 C1305 1.349 . S
C1321 H1313 0.950 . S
C1321 C1319 1.327 . S
C1322 C1310 1.349 1_455 S
C1322 H1316 0.950 . S
C1322 C1323 1.327 . S
C1323 H1317 0.950 . S
C1323 C1322 1.327 . S
C1323 C1327 1.429 . S
C1324 C1307 1.574 . S
C1324 H1318 0.949 1_455 S
C1324 C1328 1.368 . S
C1325 C1306 1.429 . S
C1325 C1319 1.429 . S
C1325 C1326 1.523 . S
C1326 C1307 1.368 . S
C1326 C1320 1.368 . S
C1326 C1325 1.523 . S
C1327 C1311 1.429 1_455 S
C1327 C1323 1.429 . S
C1327 C1328 1.523 . S
C1328 C1312 1.368 . S
C1328 C1324 1.368 . S
C1328 C1327 1.523 . S
H1329 C1304 0.950 . S
H1330 C1306 0.950 . S
H1331 C1307 0.949 . S
H1332 C1309 0.950 . S
H1333 C1311 0.950 . S
C1334 C1335 1.349 . S
C1334 C1336 1.327 . S
C1334 H1359 0.950 . S
C1335 C1334 1.349 . S
C1335 C1351 1.349 1_565 S
C1336 C1334 1.327 . S
C1336 C1355 1.429 1_565 S
C1336 H1360 0.950 . S
C1337 C1354 1.574 . S
C1337 C1356 1.368 . S
C1337 H1361 0.949 . S
H1338 C1342 0.949 . S
C1339 C1340 1.349 . S
C1339 C1341 1.327 . S
C1339 H1362 0.950 . S
C1340 C1339 1.349 . S
C1340 C1352 1.335 1_655 S
C1341 C1339 1.327 . S
C1341 C1357 1.429 1_655 S
C1341 H1363 0.950 . S
C1342 H1338 0.949 . S
C1342 C1350 1.574 . S
C1342 C1358 1.368 . S
H1343 C1351 0.950 . S
H1344 C1349 0.950 . S
H1345 C1350 0.949 1_565 S
H1346 C1352 0.953 . S
H1347 C1353 0.950 . S
H1348 C1354 0.949 . S
C1349 H1344 0.950 . S
C1349 C1351 1.327 . S
C1349 C1355 1.429 . S
C1350 C1342 1.574 . S
C1350 H1345 0.949 1_545 S
C1350 C1356 1.368 . S
C1351 C1335 1.349 1_545 S
C1351 H1343 0.950 . S
C1351 C1349 1.327 . S
C1352 C1340 1.335 1_455 S
C1352 H1346 0.953 . S
C1352 C1353 1.338 . S
C1353 H1347 0.950 . S
C1353 C1352 1.338 . S
C1353 C1357 1.429 . S
C1354 C1337 1.574 . S
C1354 H1348 0.949 . S
C1354 C1358 1.368 . S
C1355 C1336 1.429 1_545 S
C1355 C1349 1.429 . S
C1355 C1356 1.523 . S
C1356 C1337 1.368 . S
C1356 C1350 1.368 . S
C1356 C1355 1.523 . S
C1357 C1341 1.429 1_455 S
C1357 C1353 1.429 . S
C1357 C1358 1.523 . S
C1358 C1342 1.368 . S
C1358 C1354 1.368 . S
C1358 C1357 1.523 . S
H1359 C1334 0.950 . S
H1360 C1336 0.950 . S
H1361 C1337 0.949 . S
H1362 C1339 0.950 . S
H1363 C1341 0.950 . S
C1364 C1365 1.349 . S
C1364 C1366 1.327 . S
C1364 H1389 0.950 . S
C1365 C1364 1.349 . S
C1365 C1381 1.349 . S
C1366 C1364 1.327 . S
C1366 C1385 1.429 . S
C1366 H1390 0.950 . S
C1367 C1384 1.574 . S
C1367 C1386 1.368 . S
C1367 H1391 0.949 . S
H1368 C1372 0.949 . S
C1369 C1370 1.349 . S
C1369 C1371 1.327 . S
C1369 H1392 0.950 . S
C1370 C1369 1.349 . S
C1370 C1382 1.349 1_565 S
C1371 C1369 1.327 . S
C1371 C1387 1.429 1_565 S
C1371 H1393 0.950 . S
C1372 H1368 0.949 . S
C1372 C1380 1.574 . S
C1372 C1388 1.368 . S
H1373 C1381 0.950 . S
H1374 C1379 0.950 . S
H1375 C1380 0.949 . S
H1376 C1382 0.950 . S
H1377 C1383 0.950 . S
H1378 C1384 0.949 1_565 S
C1379 H1374 0.950 . S
C1379 C1381 1.327 . S
C1379 C1385 1.429 . S
C1380 C1372 1.574 . S
C1380 H1375 0.949 . S
C1380 C1386 1.368 . S
C1381 C1365 1.349 . S
C1381 H1373 0.950 . S
C1381 C1379 1.327 . S
C1382 C1370 1.349 1_545 S
C1382 H1376 0.950 . S
C1382 C1383 1.327 . S
C1383 H1377 0.950 . S
C1383 C1382 1.327 . S
C1383 C1387 1.429 . S
C1384 C1367 1.574 . S
C1384 H1378 0.949 1_545 S
C1384 C1388 1.368 . S
C1385 C1366 1.429 . S
C1385 C1379 1.429 . S
C1385 C1386 1.523 . S
C1386 C1367 1.368 . S
C1386 C1380 1.368 . S
C1386 C1385 1.523 . S
C1387 C1371 1.429 1_545 S
C1387 C1383 1.429 . S
C1387 C1388 1.523 . S
C1388 C1372 1.368 . S
C1388 C1384 1.368 . S
C1388 C1387 1.523 . S
H1389 C1364 0.950 . S
H1390 C1366 0.950 . S
H1391 C1367 0.949 . S
H1392 C1369 0.950 . S
H1393 C1371 0.950 . S
C1394 C1395 1.349 . S
C1394 C1396 1.327 . S
C1394 H1419 0.950 . S
C1395 C1394 1.349 . S
C1395 C1411 1.349 . S
C1396 C1394 1.327 . S
C1396 C1415 1.429 . S
C1396 H1420 0.950 . S
C1397 C1414 1.574 . S
C1397 C1416 1.368 . S
C1397 H1421 0.949 . S
H1398 C1402 0.949 . S
C1399 C1400 1.349 . S
C1399 C1401 1.327 . S
C1399 H1422 0.950 . S
C1400 C1399 1.349 . S
C1400 C1412 1.349 . S
C1401 C1399 1.327 . S
C1401 C1417 1.429 . S
C1401 H1423 0.950 . S
C1402 H1398 0.949 . S
C1402 C1410 1.574 . S
C1402 C1418 1.368 . S
H1403 C1411 0.950 . S
H1404 C1409 0.950 . S
H1405 C1410 0.949 . S
H1406 C1412 0.950 . S
H1407 C1413 0.950 . S
H1408 C1414 0.949 . S
C1409 H1404 0.950 . S
C1409 C1411 1.327 . S
C1409 C1415 1.429 . S
C1410 C1402 1.574 . S
C1410 H1405 0.949 . S
C1410 C1416 1.368 . S
C1411 C1395 1.349 . S
C1411 H1403 0.950 . S
C1411 C1409 1.327 . S
C1412 C1400 1.349 . S
C1412 H1406 0.950 . S
C1412 C1413 1.327 . S
C1413 H1407 0.950 . S
C1413 C1412 1.327 . S
C1413 C1417 1.429 . S
C1414 C1397 1.574 . S
C1414 H1408 0.949 . S
C1414 C1418 1.368 . S
C1415 C1396 1.429 . S
C1415 C1409 1.429 . S
C1415 C1416 1.523 . S
C1416 C1397 1.368 . S
C1416 C1410 1.368 . S
C1416 C1415 1.523 . S
C1417 C1401 1.429 . S
C1417 C1413 1.429 . S
C1417 C1418 1.523 . S
C1418 C1402 1.368 . S
C1418 C1414 1.368 . S
C1418 C1417 1.523 . S
H1419 C1394 0.950 . S
H1420 C1396 0.950 . S
H1421 C1397 0.949 . S
H1422 C1399 0.950 . S
H1423 C1401 0.950 . S
C1424 C1425 1.349 . S
C1424 C1426 1.327 . S
C1424 H1449 0.950 . S
C1425 C1424 1.349 . S
C1425 C1441 1.349 . S
C1426 C1424 1.327 . S
C1426 C1445 1.429 . S
C1426 H1450 0.950 . S
C1427 C1444 1.574 . S
C1427 C1446 1.368 . S
C1427 H1451 0.949 . S
H1428 C1432 0.949 . S
C1429 C1430 1.349 . S
C1429 C1431 1.327 . S
C1429 H1452 0.950 . S
C1430 C1429 1.349 . S
C1430 C1442 1.349 . S
C1431 C1429 1.327 . S
C1431 C1447 1.429 . S
C1431 H1453 0.950 . S
C1432 H1428 0.949 . S
C1432 C1440 1.574 . S
C1432 C1448 1.368 . S
H1433 C1441 0.950 . S
H1434 C1439 0.950 . S
H1435 C1440 0.949 . S
H1436 C1442 0.950 . S
H1437 C1443 0.950 . S
H1438 C1444 0.949 . S
C1439 H1434 0.950 . S
C1439 C1441 1.327 . S
C1439 C1445 1.429 . S
C1440 C1432 1.574 . S
C1440 H1435 0.949 . S
C1440 C1446 1.368 . S
C1441 C1425 1.349 . S
C1441 H1433 0.950 . S
C1441 C1439 1.327 . S
C1442 C1430 1.349 . S
C1442 H1436 0.950 . S
C1442 C1443 1.327 . S
C1443 H1437 0.950 . S
C1443 C1442 1.327 . S
C1443 C1447 1.429 . S
C1444 C1427 1.574 . S
C1444 H1438 0.949 . S
C1444 C1448 1.368 . S
C1445 C1426 1.429 . S
C1445 C1439 1.429 . S
C1445 C1446 1.523 . S
C1446 C1427 1.368 . S
C1446 C1440 1.368 . S
C1446 C1445 1.523 . S
C1447 C1431 1.429 . S
C1447 C1443 1.429 . S
C1447 C1448 1.523 . S
C1448 C1432 1.368 . S
C1448 C1444 1.368 . S
C1448 C1447 1.523 . S
H1449 C1424 0.950 . S
H1450 C1426 0.950 . S
H1451 C1427 0.949 . S
H1452 C1429 0.950 . S
H1453 C1431 0.950 . S
C1454 C1455 1.349 . S
C1454 C1456 1.327 . S
C1454 H1479 0.950 . S
C1455 C1454 1.349 . S
C1455 C1471 1.349 . S
C1456 C1454 1.327 . S
C1456 C1475 1.429 . S
C1456 H1480 0.950 . S
C1457 C1474 1.574 . S
C1457 C1476 1.368 . S
C1457 H1481 0.949 . S
H1458 C1462 0.949 . S
C1459 C1460 1.349 . S
C1459 C1461 1.327 . S
C1459 H1482 0.950 . S
C1460 C1459 1.349 . S
C1460 C1472 1.349 . S
C1461 C1459 1.327 . S
C1461 C1477 1.429 . S
C1461 H1483 0.950 . S
C1462 H1458 0.949 . S
C1462 C1470 1.574 . S
C1462 C1478 1.368 . S
H1463 C1471 0.950 . S
H1464 C1469 0.950 . S
H1465 C1470 0.949 . S
H1466 C1472 0.950 . S
H1467 C1473 0.950 . S
H1468 C1474 0.949 . S
C1469 H1464 0.950 . S
C1469 C1471 1.327 . S
C1469 C1475 1.429 . S
C1470 C1462 1.574 . S
C1470 H1465 0.949 . S
C1470 C1476 1.368 . S
C1471 C1455 1.349 . S
C1471 H1463 0.950 . S
C1471 C1469 1.327 . S
C1472 C1460 1.349 . S
C1472 H1466 0.950 . S
C1472 C1473 1.327 . S
C1473 H1467 0.950 . S
C1473 C1472 1.327 . S
C1473 C1477 1.429 . S
C1474 C1457 1.574 . S
C1474 H1468 0.949 . S
C1474 C1478 1.368 . S
C1475 C1456 1.429 . S
C1475 C1469 1.429 . S
C1475 C1476 1.523 . S
C1476 C1457 1.368 . S
C1476 C1470 1.368 . S
C1476 C1475 1.523 . S
C1477 C1461 1.429 . S
C1477 C1473 1.429 . S
C1477 C1478 1.523 . S
C1478 C1462 1.368 . S
C1478 C1474 1.368 . S
C1478 C1477 1.523 . S
H1479 C1454 0.950 . S
H1480 C1456 0.950 . S
H1481 C1457 0.949 . S
H1482 C1459 0.950 . S
H1483 C1461 0.950 . S
C1484 C1485 1.349 . S
C1484 C1486 1.327 . S
C1484 H1509 0.950 . S
C1485 C1484 1.349 . S
C1485 C1501 1.349 . S
C1486 C1484 1.327 . S
C1486 C1505 1.429 . S
C1486 H1510 0.950 . S
C1487 C1504 1.574 . S
C1487 C1506 1.368 . S
C1487 H1511 0.949 . S
H1488 C1492 0.949 . S
C1489 C1490 1.349 . S
C1489 C1491 1.327 . S
C1489 H1512 0.950 . S
C1490 C1489 1.349 . S
C1490 C1502 1.349 . S
C1491 C1489 1.327 . S
C1491 C1507 1.429 . S
C1491 H1513 0.950 . S
C1492 H1488 0.949 . S
C1492 C1500 1.574 . S
C1492 C1508 1.368 . S
H1493 C1501 0.950 . S
H1494 C1499 0.950 . S
H1495 C1500 0.949 . S
H1496 C1502 0.950 . S
H1497 C1503 0.950 . S
H1498 C1504 0.949 . S
C1499 H1494 0.950 . S
C1499 C1501 1.327 . S
C1499 C1505 1.429 . S
C1500 C1492 1.574 . S
C1500 H1495 0.949 . S
C1500 C1506 1.368 . S
C1501 C1485 1.349 . S
C1501 H1493 0.950 . S
C1501 C1499 1.327 . S
C1502 C1490 1.349 . S
C1502 H1496 0.950 . S
C1502 C1503 1.327 . S
C1503 H1497 0.950 . S
C1503 C1502 1.327 . S
C1503 C1507 1.429 . S
C1504 C1487 1.574 . S
C1504 H1498 0.949 . S
C1504 C1508 1.368 . S
C1505 C1486 1.429 . S
C1505 C1499 1.429 . S
C1505 C1506 1.523 . S
C1506 C1487 1.368 . S
C1506 C1500 1.368 . S
C1506 C1505 1.523 . S
C1507 C1491 1.429 . S
C1507 C1503 1.429 . S
C1507 C1508 1.523 . S
C1508 C1492 1.368 . S
C1508 C1504 1.368 . S
C1508 C1507 1.523 . S
H1509 C1484 0.950 . S
H1510 C1486 0.950 . S
H1511 C1487 0.949 . S
H1512 C1489 0.950 . S
H1513 C1491 0.950 . S
C1514 C1515 1.349 . S
C1514 C1516 1.327 . S
C1514 H1539 0.950 . S
C1515 C1514 1.349 . S
C1515 C1531 1.349 . S
C1516 C1514 1.327 . S
C1516 C1535 1.429 . S
C1516 H1540 0.950 . S
C1517 C1534 1.574 . S
C1517 C1536 1.368 . S
C1517 H1541 0.949 . S
H1518 C1522 0.949 . S
C1519 C1520 1.349 . S
C1519 C1521 1.327 . S
C1519 H1542 0.950 . S
C1520 C1519 1.349 . S
C1520 C1532 1.349 . S
C1521 C1519 1.327 . S
C1521 C1537 1.429 . S
C1521 H1543 0.950 . S
C1522 H1518 0.949 . S
C1522 C1530 1.574 . S
C1522 C1538 1.368 . S
H1523 C1531 0.950 . S
H1524 C1529 0.950 . S
H1525 C1530 0.949 . S
H1526 C1532 0.950 . S
H1527 C1533 0.950 . S
H1528 C1534 0.949 . S
C1529 H1524 0.950 . S
C1529 C1531 1.327 . S
C1529 C1535 1.429 . S
C1530 C1522 1.574 . S
C1530 H1525 0.949 . S
C1530 C1536 1.368 . S
C1531 C1515 1.349 . S
C1531 H1523 0.950 . S
C1531 C1529 1.327 . S
C1532 C1520 1.349 . S
C1532 H1526 0.950 . S
C1532 C1533 1.327 . S
C1533 H1527 0.950 . S
C1533 C1532 1.327 . S
C1533 C1537 1.429 . S
C1534 C1517 1.574 . S
C1534 H1528 0.949 . S
C1534 C1538 1.368 . S
C1535 C1516 1.429 . S
C1535 C1529 1.429 . S
C1535 C1536 1.523 . S
C1536 C1517 1.368 . S
C1536 C1530 1.368 . S
C1536 C1535 1.523 . S
C1537 C1521 1.429 . S
C1537 C1533 1.429 . S
C1537 C1538 1.523 . S
C1538 C1522 1.368 . S
C1538 C1534 1.368 . S
C1538 C1537 1.523 . S
H1539 C1514 0.950 . S
H1540 C1516 0.950 . S
H1541 C1517 0.949 . S
H1542 C1519 0.950 . S
H1543 C1521 0.950 . S
C1544 C1545 1.349 . S
C1544 C1546 1.327 . S
C1544 H1569 0.950 . S
C1545 C1544 1.349 . S
C1545 C1561 1.349 . S
C1546 C1544 1.327 . S
C1546 C1565 1.429 . S
C1546 H1570 0.950 . S
C1547 C1564 1.574 . S
C1547 C1566 1.368 . S
C1547 H1571 0.949 . S
H1548 C1552 0.949 . S
C1549 C1550 1.349 . S
C1549 C1551 1.327 . S
C1549 H1572 0.950 . S
C1550 C1549 1.349 . S
C1550 C1562 1.349 . S
C1551 C1549 1.327 . S
C1551 C1567 1.429 . S
C1551 H1573 0.950 . S
C1552 H1548 0.949 . S
C1552 C1560 1.574 . S
C1552 C1568 1.368 . S
H1553 C1561 0.950 . S
H1554 C1559 0.950 . S
H1555 C1560 0.949 . S
H1556 C1562 0.950 . S
H1557 C1563 0.950 . S
H1558 C1564 0.949 . S
C1559 H1554 0.950 . S
C1559 C1561 1.327 . S
C1559 C1565 1.429 . S
C1560 C1552 1.574 . S
C1560 H1555 0.949 . S
C1560 C1566 1.368 . S
C1561 C1545 1.349 . S
C1561 H1553 0.950 . S
C1561 C1559 1.327 . S
C1562 C1550 1.349 . S
C1562 H1556 0.950 . S
C1562 C1563 1.327 . S
C1563 H1557 0.950 . S
C1563 C1562 1.327 . S
C1563 C1567 1.429 . S
C1564 C1547 1.574 . S
C1564 H1558 0.949 . S
C1564 C1568 1.368 . S
C1565 C1546 1.429 . S
C1565 C1559 1.429 . S
C1565 C1566 1.523 . S
C1566 C1547 1.368 . S
C1566 C1560 1.368 . S
C1566 C1565 1.523 . S
C1567 C1551 1.429 . S
C1567 C1563 1.429 . S
C1567 C1568 1.523 . S
C1568 C1552 1.368 . S
C1568 C1564 1.368 . S
C1568 C1567 1.523 . S
H1569 C1544 0.950 . S
H1570 C1546 0.950 . S
H1571 C1547 0.949 . S
H1572 C1549 0.950 . S
H1573 C1551 0.950 . S
C1574 C1575 1.349 . S
C1574 C1576 1.327 . S
C1574 H1599 0.950 . S
C1575 C1574 1.349 . S
C1575 C1591 1.349 . S
C1576 C1574 1.327 . S
C1576 C1595 1.429 . S
C1576 H1600 0.950 . S
C1577 C1594 1.574 . S
C1577 C1596 1.368 . S
C1577 H1601 0.949 . S
H1578 C1582 0.949 . S
C1579 C1580 1.349 . S
C1579 C1581 1.327 . S
C1579 H1602 0.950 . S
C1580 C1579 1.349 . S
C1580 C1592 1.349 . S
C1581 C1579 1.327 . S
C1581 C1597 1.429 . S
C1581 H1603 0.950 . S
C1582 H1578 0.949 . S
C1582 C1590 1.574 . S
C1582 C1598 1.368 . S
H1583 C1591 0.950 . S
H1584 C1589 0.950 . S
H1585 C1590 0.949 . S
H1586 C1592 0.950 . S
H1587 C1593 0.950 . S
H1588 C1594 0.949 . S
C1589 H1584 0.950 . S
C1589 C1591 1.327 . S
C1589 C1595 1.429 . S
C1590 C1582 1.574 . S
C1590 H1585 0.949 . S
C1590 C1596 1.368 . S
C1591 C1575 1.349 . S
C1591 H1583 0.950 . S
C1591 C1589 1.327 . S
C1592 C1580 1.349 . S
C1592 H1586 0.950 . S
C1592 C1593 1.327 . S
C1593 H1587 0.950 . S
C1593 C1592 1.327 . S
C1593 C1597 1.429 . S
C1594 C1577 1.574 . S
C1594 H1588 0.949 . S
C1594 C1598 1.368 . S
C1595 C1576 1.429 . S
C1595 C1589 1.429 . S
C1595 C1596 1.523 . S
C1596 C1577 1.368 . S
C1596 C1590 1.368 . S
C1596 C1595 1.523 . S
C1597 C1581 1.429 . S
C1597 C1593 1.429 . S
C1597 C1598 1.523 . S
C1598 C1582 1.368 . S
C1598 C1594 1.368 . S
C1598 C1597 1.523 . S
H1599 C1574 0.950 . S
H1600 C1576 0.950 . S
H1601 C1577 0.949 . S
H1602 C1579 0.950 . S
H1603 C1581 0.950 . S
C1604 C1605 1.349 . S
C1604 C1606 1.327 . S
C1604 H1629 0.950 . S
C1605 C1604 1.349 . S
C1605 C1621 1.349 . S
C1606 C1604 1.327 . S
C1606 C1625 1.429 . S
C1606 H1630 0.950 . S
C1607 C1624 1.574 . S
C1607 C1626 1.368 . S
C1607 H1631 0.949 . S
H1608 C1612 0.949 . S
C1609 C1610 1.349 . S
C1609 C1611 1.327 . S
C1609 H1632 0.950 . S
C1610 C1609 1.349 . S
C1610 C1622 1.349 . S
C1611 C1609 1.327 . S
C1611 C1627 1.429 . S
C1611 H1633 0.950 . S
C1612 H1608 0.949 . S
C1612 C1620 1.574 . S
C1612 C1628 1.368 . S
H1613 C1621 0.950 . S
H1614 C1619 0.950 . S
H1615 C1620 0.949 . S
H1616 C1622 0.950 . S
H1617 C1623 0.950 . S
H1618 C1624 0.949 . S
C1619 H1614 0.950 . S
C1619 C1621 1.327 . S
C1619 C1625 1.429 . S
C1620 C1612 1.574 . S
C1620 H1615 0.949 . S
C1620 C1626 1.368 . S
C1621 C1605 1.349 . S
C1621 H1613 0.950 . S
C1621 C1619 1.327 . S
C1622 C1610 1.349 . S
C1622 H1616 0.950 . S
C1622 C1623 1.327 . S
C1623 H1617 0.950 . S
C1623 C1622 1.327 . S
C1623 C1627 1.429 . S
C1624 C1607 1.574 . S
C1624 H1618 0.949 . S
C1624 C1628 1.368 . S
C1625 C1606 1.429 . S
C1625 C1619 1.429 . S
C1625 C1626 1.523 . S
C1626 C1607 1.368 . S
C1626 C1620 1.368 . S
C1626 C1625 1.523 . S
C1627 C1611 1.429 . S
C1627 C1623 1.429 . S
C1627 C1628 1.523 . S
C1628 C1612 1.368 . S
C1628 C1624 1.368 . S
C1628 C1627 1.523 . S
H1629 C1604 0.950 . S
H1630 C1606 0.950 . S
H1631 C1607 0.949 . S
H1632 C1609 0.950 . S
H1633 C1611 0.950 . S
C1634 C1635 1.349 . S
C1634 C1636 1.327 . S
C1634 H1659 0.950 . S
C1635 C1634 1.349 . S
C1635 C1651 1.349 . S
C1636 C1634 1.327 . S
C1636 C1655 1.429 . S
C1636 H1660 0.950 . S
C1637 C1654 1.574 . S
C1637 C1656 1.368 . S
C1637 H1661 0.949 . S
H1638 C1642 0.949 . S
C1639 C1640 1.349 . S
C1639 C1641 1.327 . S
C1639 H1662 0.950 . S
C1640 C1639 1.349 . S
C1640 C1652 1.349 . S
C1641 C1639 1.327 . S
C1641 C1657 1.429 . S
C1641 H1663 0.950 . S
C1642 H1638 0.949 . S
C1642 C1650 1.574 . S
C1642 C1658 1.368 . S
H1643 C1651 0.950 . S
H1644 C1649 0.950 . S
H1645 C1650 0.949 . S
H1646 C1652 0.950 . S
H1647 C1653 0.950 . S
H1648 C1654 0.949 . S
C1649 H1644 0.950 . S
C1649 C1651 1.327 . S
C1649 C1655 1.429 . S
C1650 C1642 1.574 . S
C1650 H1645 0.949 . S
C1650 C1656 1.368 . S
C1651 C1635 1.349 . S
C1651 H1643 0.950 . S
C1651 C1649 1.327 . S
C1652 C1640 1.349 . S
C1652 H1646 0.950 . S
C1652 C1653 1.327 . S
C1653 H1647 0.950 . S
C1653 C1652 1.327 . S
C1653 C1657 1.429 . S
C1654 C1637 1.574 . S
C1654 H1648 0.949 . S
C1654 C1658 1.368 . S
C1655 C1636 1.429 . S
C1655 C1649 1.429 . S
C1655 C1656 1.523 . S
C1656 C1637 1.368 . S
C1656 C1650 1.368 . S
C1656 C1655 1.523 . S
C1657 C1641 1.429 . S
C1657 C1653 1.429 . S
C1657 C1658 1.523 . S
C1658 C1642 1.368 . S
C1658 C1654 1.368 . S
C1658 C1657 1.523 . S
H1659 C1634 0.950 . S
H1660 C1636 0.950 . S
H1661 C1637 0.949 . S
H1662 C1639 0.950 . S
H1663 C1641 0.950 . S
C1664 C1665 1.349 . S
C1664 C1666 1.327 . S
C1664 H1689 0.950 . S
C1665 C1664 1.349 . S
C1665 C1681 1.349 . S
C1666 C1664 1.327 . S
C1666 C1685 1.429 . S
C1666 H1690 0.950 . S
C1667 C1684 1.574 1_455 S
C1667 C1686 1.368 1_556 S
C1667 H1691 0.949 . S
H1668 C1672 0.949 . S
C1669 C1670 1.349 . S
C1669 C1671 1.327 . S
C1669 H1692 0.950 . S
C1670 C1669 1.349 . S
C1670 C1682 1.349 . S
C1671 C1669 1.327 . S
C1671 C1687 1.429 . S
C1671 H1693 0.950 . S
C1672 H1668 0.949 . S
C1672 C1680 1.574 1_655 S
C1672 C1688 1.368 1_554 S
H1673 C1681 0.950 . S
H1674 C1679 0.950 . S
H1675 C1680 0.949 . S
H1676 C1682 0.950 . S
H1677 C1683 0.950 . S
H1678 C1684 0.949 . S
C1679 H1674 0.950 . S
C1679 C1681 1.327 . S
C1679 C1685 1.429 . S
C1680 C1672 1.574 1_455 S
C1680 H1675 0.949 . S
C1680 C1686 1.368 . S
C1681 C1665 1.349 . S
C1681 H1673 0.950 . S
C1681 C1679 1.327 . S
C1682 C1670 1.349 . S
C1682 H1676 0.950 . S
C1682 C1683 1.327 . S
C1683 H1677 0.950 . S
C1683 C1682 1.327 . S
C1683 C1687 1.429 . S
C1684 C1667 1.574 1_655 S
C1684 H1678 0.949 . S
C1684 C1688 1.368 . S
C1685 C1666 1.429 . S
C1685 C1679 1.429 . S
C1685 C1686 1.523 . S
C1686 C1667 1.368 1_554 S
C1686 C1680 1.368 . S
C1686 C1685 1.523 . S
C1687 C1671 1.429 . S
C1687 C1683 1.429 . S
C1687 C1688 1.523 . S
C1688 C1672 1.368 1_556 S
C1688 C1684 1.368 . S
C1688 C1687 1.523 . S
H1689 C1664 0.950 . S
H1690 C1666 0.950 . S
H1691 C1667 0.949 . S
H1692 C1669 0.950 . S
H1693 C1671 0.950 . S
C1694 C1695 1.349 . S
C1694 C1696 1.327 1_565 S
C1694 H1719 0.950 1_565 S
C1695 C1694 1.349 . S
C1695 C1711 1.349 . S
C1696 C1694 1.327 1_545 S
C1696 C1715 1.429 1_545 S
C1696 H1720 0.950 . S
C1697 C1714 1.574 1_455 S
C1697 C1716 1.368 1_554 S
C1697 H1721 0.949 . S
H1698 C1702 0.949 . S
C1699 C1700 1.349 . S
C1699 C1701 1.327 1_545 S
C1699 H1722 0.950 1_545 S
C1700 C1699 1.349 . S
C1700 C1712 1.349 . S
C1701 C1699 1.327 1_565 S
C1701 C1717 1.429 1_565 S
C1701 H1723 0.950 . S
C1702 H1698 0.949 . S
C1702 C1710 1.574 1_655 S
C1702 C1718 1.368 1_556 S
H1703 C1711 0.950 . S
H1704 C1709 0.950 . S
H1705 C1710 0.949 . S
H1706 C1712 0.950 . S
H1707 C1713 0.950 . S
H1708 C1714 0.949 . S
C1709 H1704 0.950 . S
C1709 C1711 1.327 . S
C1709 C1715 1.429 . S
C1710 C1702 1.574 1_455 S
C1710 H1705 0.949 . S
C1710 C1716 1.368 1_545 S
C1711 C1695 1.349 . S
C1711 H1703 0.950 . S
C1711 C1709 1.327 . S
C1712 C1700 1.349 . S
C1712 H1706 0.950 . S
C1712 C1713 1.327 . S
C1713 H1707 0.950 . S
C1713 C1712 1.327 . S
C1713 C1717 1.429 . S
C1714 C1697 1.574 1_655 S
C1714 H1708 0.949 . S
C1714 C1718 1.368 1_565 S
C1715 C1696 1.429 1_565 S
C1715 C1709 1.429 . S
C1715 C1716 1.523 . S
C1716 C1697 1.368 1_556 S
C1716 C1710 1.368 1_565 S
C1716 C1715 1.523 . S
C1717 C1701 1.429 1_545 S
C1717 C1713 1.429 . S
C1717 C1718 1.523 . S
C1718 C1702 1.368 1_554 S
C1718 C1714 1.368 1_545 S
C1718 C1717 1.523 . S
H1719 C1694 0.950 1_545 S
H1720 C1696 0.950 . S
H1721 C1697 0.949 . S
H1722 C1699 0.950 1_565 S
H1723 C1701 0.950 . S
C1724 C1725 1.349 . S
C1724 C1726 1.327 . S
C1724 H1749 0.950 . S
C1725 C1724 1.349 . S
C1725 C1741 1.349 . S
C1726 C1724 1.327 . S
C1726 C1745 1.429 . S
C1726 H1750 0.950 . S
C1727 C1744 1.574 1_565 S
C1727 C1746 1.368 . S
C1727 H1751 0.949 . S
H1728 C1732 0.949 . S
C1729 C1730 1.349 . S
C1729 C1731 1.327 . S
C1729 H1752 0.950 . S
C1730 C1729 1.349 . S
C1730 C1742 1.349 . S
C1731 C1729 1.327 . S
C1731 C1747 1.429 . S
C1731 H1753 0.950 . S
C1732 H1728 0.949 . S
C1732 C1740 1.574 1_545 S
C1732 C1748 1.368 . S
H1733 C1741 0.950 . S
H1734 C1739 0.950 . S
H1735 C1740 0.949 . S
H1736 C1742 0.950 . S
H1737 C1743 0.950 . S
H1738 C1744 0.949 . S
C1739 H1734 0.950 . S
C1739 C1741 1.327 . S
C1739 C1745 1.429 . S
C1740 C1732 1.574 1_565 S
C1740 H1735 0.949 . S
C1740 C1746 1.368 1_556 S
C1741 C1725 1.349 . S
C1741 H1733 0.950 . S
C1741 C1739 1.327 . S
C1742 C1730 1.349 . S
C1742 H1736 0.950 . S
C1742 C1743 1.327 . S
C1743 H1737 0.950 . S
C1743 C1742 1.327 . S
C1743 C1747 1.429 . S
C1744 C1727 1.574 1_545 S
C1744 H1738 0.949 . S
C1744 C1748 1.368 1_554 S
C1745 C1726 1.429 . S
C1745 C1739 1.429 . S
C1745 C1746 1.523 . S
C1746 C1727 1.368 . S
C1746 C1740 1.368 1_554 S
C1746 C1745 1.523 . S
C1747 C1731 1.429 . S
C1747 C1743 1.429 . S
C1747 C1748 1.523 . S
C1748 C1732 1.368 . S
C1748 C1744 1.368 1_556 S
C1748 C1747 1.523 . S
H1749 C1724 0.950 . S
H1750 C1726 0.950 . S
H1751 C1727 0.949 . S
H1752 C1729 0.950 . S
H1753 C1731 0.950 . S
C1754 C1755 1.349 . S
C1754 C1756 1.327 . S
C1754 H1779 0.950 . S
C1755 C1754 1.349 . S
C1755 C1771 1.349 . S
C1756 C1754 1.327 . S
C1756 C1775 1.429 . S
C1756 H1780 0.950 . S
C1757 C1774 1.574 1_556 S
C1757 C1776 1.368 . S
C1757 H1781 0.949 . S
H1758 C1762 0.949 . S
C1759 C1760 1.349 . S
C1759 C1761 1.327 . S
C1759 H1782 0.950 . S
C1760 C1759 1.349 . S
C1760 C1772 1.349 . S
C1761 C1759 1.327 . S
C1761 C1777 1.429 . S
C1761 H1783 0.950 . S
C1762 H1758 0.949 . S
C1762 C1770 1.574 1_554 S
C1762 C1778 1.368 . S
H1763 C1771 0.950 . S
H1764 C1769 0.950 . S
H1765 C1770 0.949 . S
H1766 C1772 0.950 . S
H1767 C1773 0.950 . S
H1768 C1774 0.949 . S
C1769 H1764 0.950 . S
C1769 C1771 1.327 . S
C1769 C1775 1.429 . S
C1770 C1762 1.574 1_556 S
C1770 H1765 0.949 . S
C1770 C1776 1.368 . S
C1771 C1755 1.349 . S
C1771 H1763 0.950 . S
C1771 C1769 1.327 . S
C1772 C1760 1.349 . S
C1772 H1766 0.950 . S
C1772 C1773 1.327 . S
C1773 H1767 0.950 . S
C1773 C1772 1.327 . S
C1773 C1777 1.429 . S
C1774 C1757 1.574 1_554 S
C1774 H1768 0.949 . S
C1774 C1778 1.368 . S
C1775 C1756 1.429 . S
C1775 C1769 1.429 . S
C1775 C1776 1.523 . S
C1776 C1757 1.368 . S
C1776 C1770 1.368 . S
C1776 C1775 1.523 . S
C1777 C1761 1.429 . S
C1777 C1773 1.429 . S
C1777 C1778 1.523 . S
C1778 C1762 1.368 . S
C1778 C1774 1.368 . S
C1778 C1777 1.523 . S
H1779 C1754 0.950 . S
H1780 C1756 0.950 . S
H1781 C1757 0.949 . S
H1782 C1759 0.950 . S
H1783 C1761 0.950 . S
C1784 C1785 1.349 . S
C1784 C1786 1.327 . S
C1784 H1809 0.950 . S
C1785 C1784 1.349 . S
C1785 C1801 1.349 . S
C1786 C1784 1.327 . S
C1786 C1805 1.429 . S
C1786 H1810 0.950 . S
C1787 C1804 1.579 . S
C1787 C1806 1.368 1_545 S
C1787 H1811 0.949 . S
H1788 C1792 0.949 . S
C1789 C1790 1.349 . S
C1789 C1791 1.327 . S
C1789 H1812 0.950 . S
C1790 C1789 1.349 . S
C1790 C1802 1.349 . S
C1791 C1789 1.327 . S
C1791 C1807 1.429 . S
C1791 H1813 0.950 . S
C1792 H1788 0.949 . S
C1792 C1800 1.579 . S
C1792 C1808 1.368 1_565 S
H1793 C1801 0.950 . S
H1794 C1799 0.950 . S
H1795 C1800 0.949 . S
H1796 C1802 0.950 . S
H1797 C1803 0.950 . S
H1798 C1804 0.949 . S
C1799 H1794 0.950 . S
C1799 C1801 1.327 . S
C1799 C1805 1.429 . S
C1800 C1792 1.579 . S
C1800 H1795 0.949 . S
C1800 C1806 1.363 1_655 S
C1801 C1785 1.349 . S
C1801 H1793 0.950 . S
C1801 C1799 1.327 . S
C1802 C1790 1.349 . S
C1802 H1796 0.950 . S
C1802 C1803 1.327 . S
C1803 H1797 0.950 . S
C1803 C1802 1.327 . S
C1803 C1807 1.429 . S
C1804 C1787 1.579 . S
C1804 H1798 0.949 . S
C1804 C1808 1.363 1_455 S
C1805 C1786 1.429 . S
C1805 C1799 1.429 . S
C1805 C1806 1.523 . S
C1806 C1787 1.368 1_565 S
C1806 C1800 1.363 1_455 S
C1806 C1805 1.523 . S
C1807 C1791 1.429 . S
C1807 C1803 1.429 . S
C1807 C1808 1.523 . S
C1808 C1792 1.368 1_545 S
C1808 C1804 1.363 1_655 S
C1808 C1807 1.523 . S
H1809 C1784 0.950 . S
H1810 C1786 0.950 . S
H1811 C1787 0.949 . S
H1812 C1789 0.950 . S
H1813 C1791 0.950 . S
C1814 C1815 1.349 . S
C1814 C1816 1.327 1_545 S
C1814 H1839 0.950 1_545 S
C1815 C1814 1.349 . S
C1815 C1831 1.349 . S
C1816 C1814 1.327 1_565 S
C1816 C1835 1.429 1_565 S
C1816 H1840 0.950 . S
C1817 C1834 1.574 . S
C1817 C1836 1.368 . S
C1817 H1841 0.949 . S
H1818 C1822 0.949 . S
C1819 C1820 1.349 . S
C1819 C1821 1.327 1_565 S
C1819 H1842 0.950 1_565 S
C1820 C1819 1.349 . S
C1820 C1832 1.349 . S
C1821 C1819 1.327 1_545 S
C1821 C1837 1.429 1_545 S
C1821 H1843 0.950 . S
C1822 H1818 0.949 . S
C1822 C1830 1.574 . S
C1822 C1838 1.368 . S
H1823 C1831 0.950 . S
H1824 C1829 0.950 . S
H1825 C1830 0.949 . S
H1826 C1832 0.950 . S
H1827 C1833 0.950 . S
H1828 C1834 0.949 . S
C1829 H1824 0.950 . S
C1829 C1831 1.327 . S
C1829 C1835 1.429 . S
C1830 C1822 1.574 . S
C1830 H1825 0.949 . S
C1830 C1836 1.368 1_565 S
C1831 C1815 1.349 . S
C1831 H1823 0.950 . S
C1831 C1829 1.327 . S
C1832 C1820 1.349 . S
C1832 H1826 0.950 . S
C1832 C1833 1.327 . S
C1833 H1827 0.950 . S
C1833 C1832 1.327 . S
C1833 C1837 1.429 . S
C1834 C1817 1.574 . S
C1834 H1828 0.949 . S
C1834 C1838 1.368 1_545 S
C1835 C1816 1.429 1_545 S
C1835 C1829 1.429 . S
C1835 C1836 1.523 . S
C1836 C1817 1.368 . S
C1836 C1830 1.368 1_545 S
C1836 C1835 1.523 . S
C1837 C1821 1.429 1_565 S
C1837 C1833 1.429 . S
C1837 C1838 1.523 . S
C1838 C1822 1.368 . S
C1838 C1834 1.368 1_565 S
C1838 C1837 1.523 . S
H1839 C1814 0.950 1_565 S
H1840 C1816 0.950 . S
H1841 C1817 0.949 . S
H1842 C1819 0.950 1_545 S
H1843 C1821 0.950 . S
C1844 C1845 1.349 . S
C1844 C1846 1.327 . S
C1844 H1869 0.950 . S
C1845 C1844 1.349 . S
C1845 C1861 1.349 . S
C1846 C1844 1.327 . S
C1846 C1865 1.429 . S
C1846 H1870 0.950 . S
C1847 C1864 1.574 . S
C1847 C1866 1.368 . S
C1847 H1871 0.949 . S
H1848 C1852 0.949 . S
C1849 C1850 1.349 . S
C1849 C1851 1.327 . S
C1849 H1872 0.950 . S
C1850 C1849 1.349 . S
C1850 C1862 1.349 . S
C1851 C1849 1.327 . S
C1851 C1867 1.429 . S
C1851 H1873 0.950 . S
C1852 H1848 0.949 . S
C1852 C1860 1.574 . S
C1852 C1868 1.368 . S
H1853 C1861 0.950 . S
H1854 C1859 0.950 . S
H1855 C1860 0.949 . S
H1856 C1862 0.950 . S
H1857 C1863 0.950 . S
H1858 C1864 0.949 . S
C1859 H1854 0.950 . S
C1859 C1861 1.327 . S
C1859 C1865 1.429 . S
C1860 C1852 1.574 . S
C1860 H1855 0.949 . S
C1860 C1866 1.368 . S
C1861 C1845 1.349 . S
C1861 H1853 0.950 . S
C1861 C1859 1.327 . S
C1862 C1850 1.349 . S
C1862 H1856 0.950 . S
C1862 C1863 1.327 . S
C1863 H1857 0.950 . S
C1863 C1862 1.327 . S
C1863 C1867 1.429 . S
C1864 C1847 1.574 . S
C1864 H1858 0.949 . S
C1864 C1868 1.368 . S
C1865 C1846 1.429 . S
C1865 C1859 1.429 . S
C1865 C1866 1.523 . S
C1866 C1847 1.368 . S
C1866 C1860 1.368 . S
C1866 C1865 1.523 . S
C1867 C1851 1.429 . S
C1867 C1863 1.429 . S
C1867 C1868 1.523 . S
C1868 C1852 1.368 . S
C1868 C1864 1.368 . S
C1868 C1867 1.523 . S
H1869 C1844 0.950 . S
H1870 C1846 0.950 . S
H1871 C1847 0.949 . S
H1872 C1849 0.950 . S
H1873 C1851 0.950 . S
C1874 C1875 1.349 . S
C1874 C1876 1.327 . S
C1874 H1899 0.950 . S
C1875 C1874 1.349 . S
C1875 C1891 1.349 . S
C1876 C1874 1.327 . S
C1876 C1895 1.429 . S
C1876 H1900 0.950 . S
C1877 C1894 1.574 . S
C1877 C1896 1.368 1_455 S
C1877 H1901 0.949 1_455 S
H1878 C1882 0.949 1_455 S
C1879 C1880 1.349 . S
C1879 C1881 1.327 . S
C1879 H1902 0.950 . S
C1880 C1879 1.349 . S
C1880 C1892 1.349 . S
C1881 C1879 1.327 . S
C1881 C1897 1.429 . S
C1881 H1903 0.950 . S
C1882 H1878 0.949 1_655 S
C1882 C1890 1.574 . S
C1882 C1898 1.368 1_655 S
H1883 C1891 0.950 . S
H1884 C1889 0.950 . S
H1885 C1890 0.949 . S
H1886 C1892 0.950 . S
H1887 C1893 0.950 . S
H1888 C1894 0.949 . S
C1889 H1884 0.950 . S
C1889 C1891 1.327 . S
C1889 C1895 1.429 . S
C1890 C1882 1.574 . S
C1890 H1885 0.949 . S
C1890 C1896 1.368 . S
C1891 C1875 1.349 . S
C1891 H1883 0.950 . S
C1891 C1889 1.327 . S
C1892 C1880 1.349 . S
C1892 H1886 0.950 . S
C1892 C1893 1.327 . S
C1893 H1887 0.950 . S
C1893 C1892 1.327 . S
C1893 C1897 1.429 . S
C1894 C1877 1.574 . S
C1894 H1888 0.949 . S
C1894 C1898 1.368 . S
C1895 C1876 1.429 . S
C1895 C1889 1.429 . S
C1895 C1896 1.523 . S
C1896 C1877 1.368 1_655 S
C1896 C1890 1.368 . S
C1896 C1895 1.523 . S
C1897 C1881 1.429 . S
C1897 C1893 1.429 . S
C1897 C1898 1.523 . S
C1898 C1882 1.368 1_455 S
C1898 C1894 1.368 . S
C1898 C1897 1.523 . S
H1899 C1874 0.950 . S
H1900 C1876 0.950 . S
H1901 C1877 0.949 1_655 S
H1902 C1879 0.950 . S
H1903 C1881 0.950 . S
C945 C33 1.695 . S
C950 C151 1.695 . S
C975 C92 1.695 . S
C980 C210 1.695 . S
C1005 C269 1.695 . S
C1010 C387 1.695 . S
C1035 C446 1.695 . S
C1040 C328 1.695 . S
C1065 C505 1.695 . S
C1070 C623 1.695 . S
C1095 C682 1.695 . S
C1100 C564 1.695 . S
C1125 C859 1.695 . S
C1130 C741 1.695 . S
C1155 C918 1.695 . S
C1160 C800 1.695 . S
C1185 C416 0.719 . S
C1190 C3 0.719 . S
C1215 C62 0.719 . S
C1220 C239 0.719 . S
C1245 C298 0.719 . S
C1250 C121 0.719 . S
C1275 C180 0.719 . S
C1280 C357 0.719 . S
C1305 C888 0.719 . S
C1310 C475 0.719 . S
C1335 C534 0.719 . S
C1340 C711 0.719 . S
C1365 C593 0.719 . S
C1370 C770 0.719 . S
C1395 C829 0.719 . S
C1400 C652 0.719 . S
C1425 C52 0.702 . S
C1430 C288 0.702 . S
C1455 C111 0.702 . S
C1460 C347 0.702 . S
C1485 C406 0.702 . S
C1490 C170 0.702 . S
C1515 C229 0.702 . S
C1520 C465 0.702 . S
C1545 C760 0.702 . S
C1550 C524 0.702 . S
C1575 C819 0.702 . S
C1580 C583 0.702 . S
C1605 C642 0.702 . S
C1610 C878 0.702 . S
C1635 C701 0.702 . S
C1640 C937 0.702 . S
C1665 C5 1.826 . S
C1670 C477 1.826 . S
C1695 C536 1.826 . S
C1700 C64 1.826 . S
C1725 C123 1.826 . S
C1730 C595 1.826 . S
C1755 C654 1.826 . S
C1760 C182 1.826 . S
C1785 C241 1.826 . S
C1790 C713 1.826 . S
C1815 C300 1.826 . S
C1820 C772 1.826 . S
C1845 C831 1.826 . S
C1850 C359 1.826 . S
C1875 C418 1.826 . S
C1880 C890 1.826 . S
