# Generated by pormake.
# Topology unh, (4)-cn, num edge types: 1
# Building blocks:
#     Node 0, Type 0, BuildingBlock: QUQFOY_clean_sbu_1, # of connection points: 4
#     Node 1, Type 0, BuildingBlock: QUQFOY_clean_sbu_1, # of connection points: 4
#     Node 2, Type 0, BuildingBlock: QUQFOY_clean_sbu_1, # of connection points: 4
#     Node 3, Type 0, BuildingBlock: QUQFOY_clean_sbu_1, # of connection points: 4
#     Node 4, Type 0, BuildingBlock: QUQFOY_clean_sbu_1, # of connection points: 4
#     Node 5, Type 0, BuildingBlock: QUQFOY_clean_sbu_1, # of connection points: 4
#     Edge 6, Type (0, 0), BuildingBlock: TEMPAE_clean_linker_10, # of connection points: 2
#     Edge 7, Type (0, 0), BuildingBlock: TEMPAE_clean_linker_10, # of connection points: 2
#     Edge 8, Type (0, 0), BuildingBlock: TEMPAE_clean_linker_10, # of connection points: 2
#     Edge 9, Type (0, 0), BuildingBlock: TEMPAE_clean_linker_10, # of connection points: 2
#     Edge 10, Type (0, 0), BuildingBlock: TEMPAE_clean_linker_10, # of connection points: 2
#     Edge 11, Type (0, 0), BuildingBlock: TEMPAE_clean_linker_10, # of connection points: 2
#     Edge 12, Type (0, 0), BuildingBlock: TEMPAE_clean_linker_10, # of connection points: 2
#     Edge 13, Type (0, 0), BuildingBlock: TEMPAE_clean_linker_10, # of connection points: 2
#     Edge 14, Type (0, 0), BuildingBlock: TEMPAE_clean_linker_10, # of connection points: 2
#     Edge 15, Type (0, 0), BuildingBlock: TEMPAE_clean_linker_10, # of connection points: 2
#     Edge 16, Type (0, 0), BuildingBlock: TEMPAE_clean_linker_10, # of connection points: 2
#     Edge 17, Type (0, 0), BuildingBlock: TEMPAE_clean_linker_10, # of connection points: 2
# Relax obj value: 0.055
# Max RMSD: 0.146
# Mean RMSD: 0.146
data_MOF--net-unh--node1-QUQFOY_clean_sbu_1--edge1-TEMPAE_clean_linker_10
_symmetry_space_group_name_H-M    P1
_symmetry_Int_Tables_number       1
_symmetry_cell_setting            triclinic
loop_
_symmetry_equiv_pos_as_xyz
'x, y, z'
_cell_length_a     44.482445
_cell_length_b     44.478939
_cell_length_c     23.103404
_cell_angle_alpha  89.996322
_cell_angle_beta   89.937989
_cell_angle_gamma 119.97908
loop_
_atom_site_label
_atom_site_type_symbol
_atom_site_fract_x
_atom_site_fract_y
_atom_site_fract_z
_atom_type_partial_charge
O0 O 0.07694 0.54254 0.0183 0.0
Cd1 Cd 0.10971 0.5804 0.07556 0.0
Cd2 Cd 0.15076 0.55391 0.04869 0.0
O3 O 0.10947 0.51918 0.99889 0.0
O4 O 0.07826 0.58949 0.12468 0.0
O5 O 0.10911 0.56666 0.15829 0.0
C6 C 0.08611 0.57581 0.16712 0.0
C7 C 0.17869 0.53549 0.11314 0.0
C8 C 0.08153 0.51998 0.99229 0.0
C9 C 0.17648 0.62908 0.01765 0.0
O10 O 0.18094 0.60301 0.01537 0.0
O11 O 0.14963 0.62649 0.04213 0.0
O12 O 0.18285 0.5351 0.05793 0.0
O13 O 0.15741 0.54511 0.13178 0.0
O14 O 0.51651 0.07902 0.18145 0.0
Cd15 Cd 0.51688 0.1132 0.24211 0.0
Cd16 Cd 0.58536 0.14931 0.21351 0.0
O17 O 0.57315 0.10553 0.1654 0.0
O18 O 0.4788 0.08636 0.29932 0.0
O19 O 0.53483 0.10938 0.31889 0.0
C20 C 0.50292 0.09044 0.33494 0.0
C21 C 0.63191 0.17454 0.27813 0.0
C22 C 0.54269 0.0802 0.15693 0.0
C23 C 0.54187 0.18231 0.18643 0.0
O24 O 0.57046 0.18269 0.18036 0.0
O25 O 0.51674 0.15747 0.21337 0.0
O26 O 0.63694 0.17764 0.2229 0.0
O27 O 0.6005 0.15561 0.29644 0.0
O28 O 0.4571 0.53333 0.34901 0.0
Cd29 Cd 0.41983 0.52865 0.40743 0.0
Cd30 Cd 0.44747 0.59646 0.38141 0.0
O31 O 0.48189 0.58951 0.33112 0.0
O32 O 0.41057 0.48778 0.45573 0.0
O33 O 0.43424 0.54139 0.48995 0.0
C34 C 0.42478 0.50913 0.4982 0.0
C35 C 0.46552 0.64177 0.4478 0.0
C36 C 0.48019 0.56041 0.32355 0.0
C37 C 0.3719 0.54838 0.35153 0.0
O38 O 0.39851 0.5785 0.34843 0.0
O39 O 0.37388 0.52375 0.37588 0.0
O40 O 0.46671 0.64727 0.39279 0.0
O41 O 0.4556 0.61057 0.46507 0.0
O42 O 0.91967 0.42711 0.51009 0.0
Cd43 Cd 0.88855 0.3968 0.57651 0.0
Cd44 Cd 0.85624 0.43285 0.55807 0.0
O45 O 0.9025 0.46585 0.51556 0.0
O46 O 0.91594 0.38606 0.63316 0.0
O47 O 0.89598 0.42202 0.65065 0.0
C48 C 0.91394 0.40807 0.66721 0.0
C49 C 0.82933 0.45285 0.62243 0.0
C50 C 0.92303 0.45621 0.49553 0.0
C51 C 0.81943 0.35674 0.52488 0.0
O52 O 0.8221 0.38639 0.51833 0.0
O53 O 0.84225 0.35386 0.5535 0.0
O54 O 0.8291 0.45747 0.56734 0.0
O55 O 0.84643 0.43846 0.64118 0.0
O56 O 0.46754 0.92058 0.68196 0.0
Cd57 Cd 0.46762 0.88668 0.74283 0.0
Cd58 Cd 0.40014 0.8483 0.71032 0.0
O59 O 0.41147 0.89157 0.66125 0.0
O60 O 0.50536 0.9142 0.79983 0.0
O61 O 0.4492 0.8896 0.81992 0.0
C62 C 0.48102 0.90911 0.83583 0.0
C63 C 0.35285 0.82185 0.77349 0.0
C64 C 0.44148 0.91805 0.65494 0.0
C65 C 0.44678 0.81835 0.68735 0.0
O66 O 0.41752 0.81629 0.67962 0.0
O67 O 0.4707 0.84396 0.71472 0.0
O68 O 0.34864 0.81823 0.71815 0.0
O69 O 0.38382 0.84201 0.79268 0.0
O70 O 0.57238 0.48909 0.84134 0.0
Cd71 Cd 0.60199 0.48742 0.90816 0.0
Cd72 Cd 0.5654 0.41905 0.88862 0.0
O73 O 0.53361 0.43316 0.8446 0.0
O74 O 0.613 0.52567 0.96471 0.0
O75 O 0.57636 0.46993 0.98221 0.0
C76 C 0.59065 0.50189 0.9987 0.0
C77 C 0.54296 0.37162 0.95218 0.0
C78 C 0.54349 0.46356 0.82552 0.0
C79 C 0.64205 0.45761 0.85801 0.0
O80 O 0.61237 0.43075 0.85108 0.0
O81 O 0.64481 0.48349 0.88598 0.0
O82 O 0.53973 0.36725 0.89687 0.0
O83 O 0.55756 0.403 0.97151 0.0
C84 C 0.06541 0.4906 0.89653 0.0
C85 C 0.05517 0.4965 0.95066 0.0
C86 C 0.04082 0.47282 0.85302 0.0
C87 C 0.00511 0.45958 0.86488 0.0
C88 C 0.99455 0.46341 0.92093 0.0
C89 C 0.01981 0.48253 0.96284 0.0
C90 C 0.05327 0.4703 0.79334 0.0
C91 C 0.9567 0.44853 0.93595 0.0
C92 C 0.94806 0.45417 0.73898 0.0
C93 C 0.93446 0.41972 0.72098 0.0
C94 C 0.97093 0.46734 0.78595 0.0
C95 C 0.97937 0.44511 0.81706 0.0
C96 C 0.96436 0.4098 0.80078 0.0
C97 C 0.94259 0.39766 0.75202 0.0
C98 C 0.98713 0.5054 0.80075 0.0
C99 C 0.97165 0.38503 0.83433 0.0
H100 H 0.09282 0.50173 0.88705 0.0
H101 H 0.01194 0.48694 0.00496 0.0
H102 H 0.03968 0.443 0.77823 0.0
H103 H 0.04709 0.48549 0.7623 0.0
H104 H 0.08169 0.48031 0.79206 0.0
H105 H 0.9526 0.44908 0.9833 0.0
H106 H 0.94645 0.46374 0.91403 0.0
H107 H 0.94131 0.42134 0.9205 0.0
H108 H 0.94209 0.47136 0.71458 0.0
H109 H 0.93192 0.37095 0.73821 0.0
H110 H 0.01582 0.51809 0.79759 0.0
H111 H 0.98076 0.50851 0.84596 0.0
H112 H 0.97819 0.51924 0.77165 0.0
H113 H 0.99927 0.39239 0.82906 0.0
H114 H 0.95521 0.35775 0.81976 0.0
H115 H 0.96709 0.38655 0.88121 0.0
C116 C 0.46765 0.94087 0.91027 0.0
C117 C 0.48928 0.9285 0.8907 0.0
C118 C 0.47743 0.96395 0.957 0.0
C119 C 0.50896 0.97377 0.98629 0.0
C120 C 0.52983 0.95956 0.96896 0.0
C121 C 0.52012 0.93767 0.92038 0.0
C122 C 0.45496 0.97934 0.97282 0.0
C123 C 0.56283 0.96822 0.00069 0.0
C124 C 0.55119 0.06175 0.05983 0.0
C125 C 0.5372 0.0528 0.11558 0.0
C126 C 0.54276 0.03614 0.01751 0.0
C127 C 0.52099 0.00073 0.03224 0.0
C128 C 0.50854 0.99154 0.08966 0.0
C129 C 0.51612 0.01781 0.13038 0.0
C130 C 0.55559 0.04714 0.95634 0.0
C131 C 0.48653 0.95406 0.10767 0.0
H132 H 0.44398 0.93409 0.88686 0.0
H133 H 0.53677 0.92796 0.90529 0.0
H134 H 0.44723 0.97424 0.01898 0.0
H135 H 0.46992 0.00793 0.96699 0.0
H136 H 0.4311 0.96872 0.946 0.0
H137 H 0.57338 0.95135 0.98705 0.0
H138 H 0.5828 0.99561 0.9922 0.0
H139 H 0.55816 0.96543 0.0481 0.0
H140 H 0.56725 0.08893 0.04852 0.0
H141 H 0.50554 0.01104 0.17381 0.0
H142 H 0.53312 0.03884 0.92684 0.0
H143 H 0.57011 0.03432 0.9414 0.0
H144 H 0.57273 0.07568 0.95231 0.0
H145 H 0.46054 0.94275 0.08736 0.0
H146 H 0.48307 0.95119 0.15537 0.0
H147 H 0.49847 0.93871 0.09256 0.0
C148 C 0.51717 0.53558 0.29398 0.0
C149 C 0.50336 0.55709 0.28168 0.0
C150 C 0.53597 0.52899 0.25198 0.0
C151 C 0.53963 0.54303 0.19569 0.0
C152 C 0.52649 0.56557 0.18365 0.0
C153 C 0.50905 0.57286 0.22725 0.0
C154 C 0.55074 0.50595 0.2672 0.0
C155 C 0.52882 0.58017 0.12374 0.0
C156 C 0.60124 0.54145 0.08287 0.0
C157 C 0.57908 0.51111 0.05232 0.0
C158 C 0.58922 0.55148 0.13138 0.0
C159 C 0.55391 0.5314 0.14796 0.0
C160 C 0.53159 0.50059 0.11736 0.0
C161 C 0.54463 0.4905 0.0706 0.0
C162 C 0.6141 0.58372 0.16436 0.0
C163 C 0.49355 0.47894 0.13252 0.0
H164 H 0.51288 0.52357 0.33632 0.0
H165 H 0.49802 0.58922 0.21769 0.0
H166 H 0.53542 0.48042 0.24561 0.0
H167 H 0.57789 0.51758 0.25154 0.0
H168 H 0.55027 0.50151 0.3146 0.0
H169 H 0.51886 0.59862 0.12225 0.0
H170 H 0.55607 0.59372 0.10827 0.0
H171 H 0.5135 0.55863 0.0931 0.0
H172 H 0.62794 0.55731 0.06885 0.0
H173 H 0.52736 0.46722 0.04661 0.0
H174 H 0.6127 0.57791 0.21133 0.0
H175 H 0.60675 0.60397 0.15881 0.0
H176 H 0.64134 0.59442 0.14954 0.0
H177 H 0.49049 0.46972 0.17789 0.0
H178 H 0.4796 0.456 0.10379 0.0
H179 H 0.48094 0.495 0.1291 0.0
C180 C 0.9659 0.51417 0.454 0.0
C181 C 0.94979 0.47787 0.45258 0.0
C182 C 0.99104 0.5346 0.41248 0.0
C183 C 0.99919 0.5182 0.3675 0.0
C184 C 0.98284 0.48152 0.36597 0.0
C185 C 0.95879 0.46187 0.40907 0.0
C186 C 0.00878 0.57364 0.41658 0.0
C187 C 0.99 0.46291 0.31788 0.0
C188 C 0.03232 0.56132 0.2218 0.0
C189 C 0.06629 0.56701 0.22187 0.0
C190 C 0.01059 0.54686 0.27004 0.0
C191 C 0.02352 0.53889 0.3202 0.0
C192 C 0.05866 0.54711 0.32207 0.0
C193 C 0.0795 0.56053 0.27244 0.0
C194 C 0.97308 0.5377 0.2656 0.0
C195 C 0.07374 0.5401 0.37543 0.0
H196 H 0.95914 0.52656 0.48797 0.0
H197 H 0.94615 0.43378 0.40765 0.0
H198 H 0.03738 0.58494 0.41583 0.0
H199 H 0.00183 0.58419 0.37865 0.0
H200 H 0.00149 0.58235 0.45658 0.0
H201 H 0.97464 0.43423 0.32254 0.0
H202 H 0.98375 0.47013 0.27543 0.0
H203 H 0.01794 0.4709 0.31718 0.0
H204 H 0.02191 0.56606 0.18265 0.0
H205 H 0.10584 0.56514 0.27276 0.0
H206 H 0.9656 0.54789 0.3034 0.0
H207 H 0.95619 0.50904 0.26581 0.0
H208 H 0.96782 0.54805 0.22547 0.0
H209 H 0.0663 0.54916 0.41479 0.0
H210 H 0.1025 0.553 0.37329 0.0
H211 H 0.0632 0.51175 0.38011 0.0
C212 C 0.46319 0.06071 0.41865 0.0
C213 C 0.49434 0.07048 0.38937 0.0
C214 C 0.45335 0.03842 0.46681 0.0
C215 C 0.47445 0.02449 0.48417 0.0
C216 C 0.50624 0.03485 0.45523 0.0
C217 C 0.5161 0.05826 0.40892 0.0
C218 C 0.42002 0.02912 0.49814 0.0
C219 C 0.52899 0.01982 0.4711 0.0
C220 C 0.4673 0.98041 0.62831 0.0
C221 C 0.44674 0.94536 0.61343 0.0
C222 C 0.47469 0.00666 0.58758 0.0
C223 C 0.46255 0.99744 0.53007 0.0
C224 C 0.4413 0.96198 0.51522 0.0
C225 C 0.43305 0.93636 0.55753 0.0
C226 C 0.49621 0.04416 0.60569 0.0
C227 C 0.42883 0.95097 0.45396 0.0
H228 H 0.44642 0.07027 0.40363 0.0
H229 H 0.54001 0.06548 0.38585 0.0
H230 H 0.4005 0.00159 0.4897 0.0
H231 H 0.42448 0.03201 0.54558 0.0
H232 H 0.40903 0.04555 0.4842 0.0
H233 H 0.55298 0.03075 0.44444 0.0
H234 H 0.53654 0.02486 0.51732 0.0
H235 H 0.51434 0.99124 0.46513 0.0
H236 H 0.47764 0.98726 0.67183 0.0
H237 H 0.4174 0.90917 0.5461 0.0
H238 H 0.48398 0.05921 0.59048 0.0
H239 H 0.52229 0.05582 0.58555 0.0
H240 H 0.49947 0.04698 0.65341 0.0
H241 H 0.41418 0.96358 0.43873 0.0
H242 H 0.41194 0.9224 0.44987 0.0
H243 H 0.45149 0.9595 0.42472 0.0
C244 C 0.53835 0.49566 0.74142 0.0
C245 C 0.52218 0.46918 0.78262 0.0
C246 C 0.51902 0.50046 0.69827 0.0
C247 C 0.48246 0.47894 0.69738 0.0
C248 C 0.46582 0.45289 0.74012 0.0
C249 C 0.48598 0.44791 0.78173 0.0
C250 C 0.5379 0.52792 0.65259 0.0
C251 C 0.42684 0.43022 0.74164 0.0
C252 C 0.43882 0.51618 0.6039 0.0
C253 C 0.43387 0.49781 0.55222 0.0
C254 C 0.45225 0.50852 0.65319 0.0
C255 C 0.46218 0.48286 0.64977 0.0
C256 C 0.45599 0.46339 0.59825 0.0
C257 C 0.44136 0.47074 0.55041 0.0
C258 C 0.45727 0.52895 0.70801 0.0
C259 C 0.46709 0.43652 0.59215 0.0
H260 H 0.56636 0.51198 0.74177 0.0
H261 H 0.4734 0.42761 0.81392 0.0
H262 H 0.53225 0.51574 0.60908 0.0
H263 H 0.52867 0.54692 0.65291 0.0
H264 H 0.56646 0.54218 0.65912 0.0
H265 H 0.41777 0.41317 0.78043 0.0
H266 H 0.41445 0.44655 0.74137 0.0
H267 H 0.4178 0.41365 0.70245 0.0
H268 H 0.43285 0.53701 0.60545 0.0
H269 H 0.43786 0.4567 0.51031 0.0
H270 H 0.48531 0.54747 0.71453 0.0
H271 H 0.44796 0.51137 0.74607 0.0
H272 H 0.44338 0.54389 0.70652 0.0
H273 H 0.49582 0.44945 0.59433 0.0
H274 H 0.45842 0.42214 0.55059 0.0
H275 H 0.4566 0.41759 0.62825 0.0
C276 C 0.22473 0.52018 0.13165 0.0
C277 C 0.20014 0.52819 0.15352 0.0
C278 C 0.24914 0.5187 0.16812 0.0
C279 C 0.24889 0.52525 0.22804 0.0
C280 C 0.22257 0.53086 0.25102 0.0
C281 C 0.19852 0.53237 0.21343 0.0
C282 C 0.27673 0.51259 0.14178 0.0
C283 C 0.22116 0.53754 0.31475 0.0
C284 C 0.30953 0.50905 0.32263 0.0
C285 C 0.33909 0.54226 0.32425 0.0
C286 C 0.27937 0.50315 0.29318 0.0
C287 C 0.27891 0.53107 0.26451 0.0
C288 C 0.30828 0.56478 0.26755 0.0
C289 C 0.33786 0.56995 0.29741 0.0
C290 C 0.24839 0.46693 0.29133 0.0
C291 C 0.30895 0.59532 0.23758 0.0
H292 H 0.22601 0.51661 0.08548 0.0
H293 H 0.17944 0.53832 0.23078 0.0
H294 H 0.30216 0.53699 0.14346 0.0
H295 H 0.27931 0.49272 0.16677 0.0
H296 H 0.27102 0.50404 0.09595 0.0
H297 H 0.19626 0.53596 0.32706 0.0
H298 H 0.22462 0.51866 0.34117 0.0
H299 H 0.24267 0.56385 0.3257 0.0
H300 H 0.31016 0.48752 0.34341 0.0
H301 H 0.3604 0.59578 0.29861 0.0
H302 H 0.24455 0.45675 0.24649 0.0
H303 H 0.2245 0.46729 0.30394 0.0
H304 H 0.25158 0.44881 0.32038 0.0
H305 H 0.30632 0.59082 0.19014 0.0
H306 H 0.33332 0.62009 0.24604 0.0
H307 H 0.28671 0.59814 0.25212 0.0
C308 C 0.69426 0.21727 0.29812 0.0
C309 C 0.66072 0.19477 0.31902 0.0
C310 C 0.7206 0.24054 0.33523 0.0
C311 C 0.71321 0.24134 0.39467 0.0
C312 C 0.68001 0.21725 0.41666 0.0
C313 C 0.65414 0.19423 0.37855 0.0
C314 C 0.75573 0.26568 0.31013 0.0
C315 C 0.67118 0.21713 0.4798 0.0
C316 C 0.78988 0.29411 0.49463 0.0
C317 C 0.79069 0.32607 0.49593 0.0
C318 C 0.7643 0.26589 0.46303 0.0
C319 C 0.73897 0.26977 0.43213 0.0
C320 C 0.73902 0.30159 0.43482 0.0
C321 C 0.76483 0.32929 0.46661 0.0
C322 C 0.76497 0.23231 0.46132 0.0
C323 C 0.71234 0.30674 0.40274 0.0
H324 H 0.69964 0.21773 0.25226 0.0
H325 H 0.62834 0.17681 0.39514 0.0
H326 H 0.75972 0.29237 0.31152 0.0
H327 H 0.77665 0.26567 0.33622 0.0
H328 H 0.75841 0.2594 0.26454 0.0
H329 H 0.64586 0.19413 0.49135 0.0
H330 H 0.69165 0.21753 0.50768 0.0
H331 H 0.66987 0.24087 0.48967 0.0
H332 H 0.80973 0.29135 0.51715 0.0
H333 H 0.76506 0.35377 0.46756 0.0
H334 H 0.77079 0.22753 0.41666 0.0
H335 H 0.73916 0.21022 0.47318 0.0
H336 H 0.78475 0.23263 0.49102 0.0
H337 H 0.71494 0.30417 0.35549 0.0
H338 H 0.71511 0.33259 0.41123 0.0
H339 H 0.68579 0.28643 0.41544 0.0
C340 C 0.42613 0.76318 0.63224 0.0
C341 C 0.45313 0.79149 0.66134 0.0
C342 C 0.43194 0.73906 0.60266 0.0
C343 C 0.46559 0.74312 0.60219 0.0
C344 C 0.4927 0.77075 0.6334 0.0
C345 C 0.48617 0.7947 0.66257 0.0
C346 C 0.40224 0.70992 0.57003 0.0
C347 C 0.52882 0.77571 0.63431 0.0
C348 C 0.46589 0.66258 0.54882 0.0
C349 C 0.47191 0.6697 0.48943 0.0
C350 C 0.46613 0.68724 0.58716 0.0
C351 C 0.47241 0.71966 0.56545 0.0
C352 C 0.48086 0.72782 0.50628 0.0
C353 C 0.48057 0.70277 0.46904 0.0
C354 C 0.45742 0.67771 0.65008 0.0
C355 C 0.48782 0.7621 0.48135 0.0
H356 H 0.40043 0.76023 0.6313 0.0
H357 H 0.50717 0.81639 0.68509 0.0
H358 H 0.40804 0.71282 0.52297 0.0
H359 H 0.39899 0.68453 0.58356 0.0
H360 H 0.37728 0.70942 0.57707 0.0
H361 H 0.546 0.79609 0.6655 0.0
H362 H 0.52789 0.75104 0.64578 0.0
H363 H 0.54052 0.78326 0.59053 0.0
H364 H 0.45939 0.63716 0.56504 0.0
H365 H 0.48555 0.70863 0.42331 0.0
H366 H 0.43078 0.67268 0.65896 0.0
H367 H 0.4754 0.69941 0.67845 0.0
H368 H 0.45862 0.65411 0.66186 0.0
H369 H 0.46344 0.76322 0.48151 0.0
H370 H 0.4977 0.76593 0.43621 0.0
H371 H 0.50697 0.78395 0.50825 0.0
C372 C 0.66967 0.43046 0.79974 0.0
C373 C 0.67299 0.45921 0.83039 0.0
C374 C 0.69783 0.43213 0.76953 0.0
C375 C 0.73025 0.46331 0.7699 0.0
C376 C 0.73414 0.49214 0.80206 0.0
C377 C 0.70545 0.48977 0.83193 0.0
C378 C 0.69258 0.40073 0.73592 0.0
C379 C 0.76834 0.52576 0.80367 0.0
C380 C 0.80603 0.45271 0.72128 0.0
C381 C 0.80793 0.46069 0.66214 0.0
C382 C 0.78206 0.45519 0.75775 0.0
C383 C 0.75942 0.46583 0.73447 0.0
C384 C 0.76256 0.47576 0.67555 0.0
C385 C 0.78679 0.4731 0.64012 0.0
C386 C 0.7797 0.44462 0.82042 0.0
C387 C 0.73901 0.48737 0.64907 0.0
H388 H 0.64479 0.40668 0.7984 0.0
H389 H 0.70833 0.51212 0.8555 0.0
H390 H 0.69686 0.40709 0.68912 0.0
H391 H 0.7118 0.39321 0.74974 0.0
H392 H 0.66611 0.37807 0.74177 0.0
H393 H 0.76776 0.54497 0.83369 0.0
H394 H 0.78944 0.52087 0.8172 0.0
H395 H 0.77492 0.53728 0.75967 0.0
H396 H 0.82236 0.44324 0.73876 0.0
H397 H 0.78816 0.47947 0.59455 0.0
H398 H 0.75512 0.4199 0.8277 0.0
H399 H 0.77929 0.46443 0.84904 0.0
H400 H 0.80167 0.4409 0.83341 0.0
H401 H 0.712 0.46522 0.64801 0.0
H402 H 0.74687 0.49725 0.60423 0.0
H403 H 0.73891 0.50805 0.67575 0.0
C404 C 0.29161 0.77527 0.79186 0.0
C405 C 0.32383 0.80066 0.81366 0.0
C406 C 0.26593 0.75077 0.82867 0.0
C407 C 0.27257 0.75178 0.88879 0.0
C408 C 0.30398 0.77897 0.91158 0.0
C409 C 0.3293 0.80305 0.8737 0.0
C410 C 0.23277 0.72225 0.80257 0.0
C411 C 0.31189 0.78122 0.97546 0.0
C412 C 0.19705 0.69051 0.98552 0.0
C413 C 0.20216 0.66185 0.98885 0.0
C414 C 0.22026 0.72051 0.95445 0.0
C415 C 0.24905 0.72173 0.92593 0.0
C416 C 0.2548 0.69327 0.93055 0.0
C417 C 0.23141 0.66383 0.96198 0.0
C418 C 0.21351 0.75051 0.9509 0.0
C419 C 0.28519 0.69345 0.90088 0.0
H420 H 0.28705 0.77335 0.74558 0.0
H421 H 0.35402 0.82276 0.89101 0.0
H422 H 0.23281 0.69734 0.80481 0.0
H423 H 0.20992 0.71889 0.82734 0.0
H424 H 0.22973 0.72752 0.75657 0.0
H425 H 0.3346 0.80665 0.98738 0.0
H426 H 0.28916 0.77717 0.00141 0.0
H427 H 0.31762 0.76045 0.98745 0.0
H428 H 0.17459 0.68929 0.00622 0.0
H429 H 0.2358 0.64198 0.96444 0.0
H430 H 0.20707 0.75353 0.90569 0.0
H431 H 0.23715 0.77506 0.9631 0.0
H432 H 0.19178 0.74676 0.97944 0.0
H433 H 0.28316 0.69554 0.85334 0.0
H434 H 0.28654 0.66965 0.91017 0.0
H435 H 0.30987 0.71633 0.91494 0.0
C436 C 0.53885 0.34723 0.05152 0.0
C437 C 0.53344 0.34191 0.99167 0.0
C438 C 0.53545 0.32049 0.08819 0.0
C439 C 0.52665 0.28778 0.06436 0.0
C440 C 0.51883 0.2816 0.00464 0.0
C441 C 0.52224 0.30871 0.96906 0.0
C442 C 0.5436 0.32803 0.15173 0.0
C443 C 0.50933 0.2471 0.97745 0.0
C444 C 0.56631 0.23771 0.13067 0.0
C445 C 0.53792 0.21043 0.15929 0.0
C446 C 0.563 0.26331 0.10084 0.0
C447 C 0.5305 0.26187 0.09962 0.0
C448 C 0.50192 0.23508 0.12982 0.0
C449 C 0.50594 0.20958 0.15927 0.0
C450 C 0.59419 0.29143 0.06927 0.0
C451 C 0.46696 0.23289 0.12983 0.0
H452 H 0.54724 0.37272 0.06948 0.0
H453 H 0.51777 0.30428 0.92294 0.0
H454 H 0.52391 0.30646 0.17858 0.0
H455 H 0.56913 0.33033 0.16108 0.0
H456 H 0.54467 0.35255 0.16502 0.0
H457 H 0.49996 0.24507 0.93228 0.0
H458 H 0.53244 0.24376 0.97699 0.0
H459 H 0.48892 0.22545 0.00318 0.0
H460 H 0.59121 0.23881 0.13057 0.0
H461 H 0.48387 0.18866 0.18131 0.0
H462 H 0.59965 0.31738 0.08421 0.0
H463 H 0.58873 0.28984 0.02217 0.0
H464 H 0.61786 0.28941 0.07587 0.0
H465 H 0.46966 0.25806 0.14333 0.0
H466 H 0.44815 0.21219 0.15912 0.0
H467 H 0.45614 0.22748 0.08536 0.0
loop_
_geom_bond_atom_site_label_1
_geom_bond_atom_site_label_2
_geom_bond_distance
_geom_bond_site_symmetry_2
_ccdc_geom_bond_type
O0 Cd1 2.223 . S
O0 C8 1.315 . S
Cd1 O0 2.223 . S
Cd1 O4 2.297 . S
Cd1 O5 2.439 . S
Cd1 O11 2.240 . S
Cd2 O3 2.240 . S
Cd2 O10 2.223 1_554 S
Cd2 O12 2.297 . S
Cd2 O13 2.439 . S
O3 Cd2 2.240 . S
O3 C8 1.279 . S
O4 Cd1 2.297 . S
O4 C6 1.247 . S
O5 Cd1 2.439 . S
O5 C6 1.208 . S
C6 O4 1.247 . S
C6 O5 1.208 . S
C7 O12 1.247 . S
C7 O13 1.208 . S
C8 O0 1.315 . S
C8 O3 1.279 . S
C9 O10 1.315 1_554 S
C9 O11 1.279 . S
O10 Cd2 2.223 1_556 S
O10 C9 1.315 1_556 S
O11 Cd1 2.240 . S
O11 C9 1.279 . S
O12 Cd2 2.297 . S
O12 C7 1.247 . S
O13 Cd2 2.439 . S
O13 C7 1.208 . S
O14 Cd15 2.223 . S
O14 C22 1.315 . S
Cd15 O14 2.223 . S
Cd15 O18 2.297 . S
Cd15 O19 2.439 . S
Cd15 O25 2.240 . S
Cd16 O17 2.240 . S
Cd16 O24 2.223 . S
Cd16 O26 2.297 . S
Cd16 O27 2.439 . S
O17 Cd16 2.240 . S
O17 C22 1.279 . S
O18 Cd15 2.297 . S
O18 C20 1.247 . S
O19 Cd15 2.439 . S
O19 C20 1.208 . S
C20 O18 1.247 . S
C20 O19 1.208 . S
C21 O26 1.247 . S
C21 O27 1.208 . S
C22 O14 1.315 . S
C22 O17 1.279 . S
C23 O24 1.315 . S
C23 O25 1.279 . S
O24 Cd16 2.223 . S
O24 C23 1.315 . S
O25 Cd15 2.240 . S
O25 C23 1.279 . S
O26 Cd16 2.297 . S
O26 C21 1.247 . S
O27 Cd16 2.439 . S
O27 C21 1.208 . S
O28 Cd29 2.223 . S
O28 C36 1.315 . S
Cd29 O28 2.223 . S
Cd29 O32 2.297 . S
Cd29 O33 2.439 . S
Cd29 O39 2.240 . S
Cd30 O31 2.240 . S
Cd30 O38 2.223 . S
Cd30 O40 2.297 . S
Cd30 O41 2.439 . S
O31 Cd30 2.240 . S
O31 C36 1.279 . S
O32 Cd29 2.297 . S
O32 C34 1.247 . S
O33 Cd29 2.439 . S
O33 C34 1.208 . S
C34 O32 1.247 . S
C34 O33 1.208 . S
C35 O40 1.247 . S
C35 O41 1.208 . S
C36 O28 1.315 . S
C36 O31 1.279 . S
C37 O38 1.315 . S
C37 O39 1.279 . S
O38 Cd30 2.223 . S
O38 C37 1.315 . S
O39 Cd29 2.240 . S
O39 C37 1.279 . S
O40 Cd30 2.297 . S
O40 C35 1.247 . S
O41 Cd30 2.439 . S
O41 C35 1.208 . S
O42 Cd43 2.223 . S
O42 C50 1.315 . S
Cd43 O42 2.223 . S
Cd43 O46 2.297 . S
Cd43 O47 2.439 . S
Cd43 O53 2.240 . S
Cd44 O45 2.240 . S
Cd44 O52 2.223 . S
Cd44 O54 2.297 . S
Cd44 O55 2.439 . S
O45 Cd44 2.240 . S
O45 C50 1.279 . S
O46 Cd43 2.297 . S
O46 C48 1.247 . S
O47 Cd43 2.439 . S
O47 C48 1.208 . S
C48 O46 1.247 . S
C48 O47 1.208 . S
C49 O54 1.247 . S
C49 O55 1.208 . S
C50 O42 1.315 . S
C50 O45 1.279 . S
C51 O52 1.315 . S
C51 O53 1.279 . S
O52 Cd44 2.223 . S
O52 C51 1.315 . S
O53 Cd43 2.240 . S
O53 C51 1.279 . S
O54 Cd44 2.297 . S
O54 C49 1.247 . S
O55 Cd44 2.439 . S
O55 C49 1.208 . S
O56 Cd57 2.223 . S
O56 C64 1.315 . S
Cd57 O56 2.223 . S
Cd57 O60 2.297 . S
Cd57 O61 2.439 . S
Cd57 O67 2.240 . S
Cd58 O59 2.240 . S
Cd58 O66 2.223 . S
Cd58 O68 2.297 . S
Cd58 O69 2.439 . S
O59 Cd58 2.240 . S
O59 C64 1.279 . S
O60 Cd57 2.297 . S
O60 C62 1.247 . S
O61 Cd57 2.439 . S
O61 C62 1.208 . S
C62 O60 1.247 . S
C62 O61 1.208 . S
C63 O68 1.247 . S
C63 O69 1.208 . S
C64 O56 1.315 . S
C64 O59 1.279 . S
C65 O66 1.315 . S
C65 O67 1.279 . S
O66 Cd58 2.223 . S
O66 C65 1.315 . S
O67 Cd57 2.240 . S
O67 C65 1.279 . S
O68 Cd58 2.297 . S
O68 C63 1.247 . S
O69 Cd58 2.439 . S
O69 C63 1.208 . S
O70 Cd71 2.223 . S
O70 C78 1.315 . S
Cd71 O70 2.223 . S
Cd71 O74 2.297 . S
Cd71 O75 2.439 1_556 S
Cd71 O81 2.240 . S
Cd72 O73 2.240 . S
Cd72 O80 2.223 . S
Cd72 O82 2.297 . S
Cd72 O83 2.439 . S
O73 Cd72 2.240 . S
O73 C78 1.279 . S
O74 Cd71 2.297 . S
O74 C76 1.247 1_556 S
O75 Cd71 2.439 1_554 S
O75 C76 1.208 . S
C76 O74 1.247 1_554 S
C76 O75 1.208 . S
C77 O82 1.247 . S
C77 O83 1.208 . S
C78 O70 1.315 . S
C78 O73 1.279 . S
C79 O80 1.315 . S
C79 O81 1.279 . S
O80 Cd72 2.223 . S
O80 C79 1.315 . S
O81 Cd71 2.240 . S
O81 C79 1.279 . S
O82 Cd72 2.297 . S
O82 C77 1.247 . S
O83 Cd72 2.439 . S
O83 C77 1.208 . S
C84 C85 1.391 . S
C84 C86 1.394 . S
C84 H100 0.931 . S
C85 C84 1.391 . S
C85 C89 1.376 . S
C86 C84 1.394 . S
C86 C87 1.369 . S
C86 C90 1.531 . S
C87 C86 1.369 . S
C87 C88 1.410 . S
C87 C95 1.503 1_455 S
C88 C87 1.410 . S
C88 C89 1.392 . S
C88 C91 1.511 1_455 S
C89 C85 1.376 . S
C89 C88 1.392 . S
C89 H101 0.913 1_556 S
C90 C86 1.531 . S
C90 H102 0.960 . S
C90 H103 0.962 . S
C90 H104 0.960 . S
C91 C88 1.511 1_655 S
C91 H105 0.961 . S
C91 H106 0.961 . S
C91 H107 0.961 . S
C92 C93 1.370 . S
C92 C94 1.363 1_655 S
C92 H108 0.931 . S
C93 C92 1.370 . S
C93 C97 1.408 . S
C94 C92 1.363 1_455 S
C94 C95 1.370 1_455 S
C94 C98 1.524 . S
C95 C87 1.503 1_655 S
C95 C94 1.370 1_655 S
C95 C96 1.403 . S
C96 C95 1.403 . S
C96 C97 1.404 . S
C96 C99 1.539 . S
C97 C93 1.408 . S
C97 C96 1.404 . S
C97 H109 0.930 . S
C98 C94 1.524 . S
C98 H110 0.956 . S
C98 H111 0.961 . S
C98 H112 0.961 . S
C99 C96 1.539 . S
C99 H113 0.958 . S
C99 H114 0.961 . S
C99 H115 0.960 . S
H100 C84 0.931 . S
H101 C89 0.913 1_554 S
H102 C90 0.960 . S
H103 C90 0.962 . S
H104 C90 0.960 . S
H105 C91 0.961 . S
H106 C91 0.961 . S
H107 C91 0.961 . S
H108 C92 0.931 . S
H109 C97 0.930 . S
H110 C98 0.956 . S
H111 C98 0.961 . S
H112 C98 0.961 . S
H113 C99 0.958 . S
H114 C99 0.961 . S
H115 C99 0.960 . S
C116 C117 1.391 . S
C116 C118 1.394 . S
C116 H132 0.931 . S
C117 C116 1.391 . S
C117 C121 1.376 . S
C118 C116 1.394 . S
C118 C119 1.369 . S
C118 C122 1.531 1_566 S
C119 C118 1.369 . S
C119 C120 1.410 . S
C119 C127 1.503 1_566 S
C120 C119 1.410 . S
C120 C121 1.392 . S
C120 C123 1.511 . S
C121 C117 1.376 . S
C121 C120 1.392 . S
C121 H133 0.929 . S
C122 C118 1.531 1_544 S
C122 H134 0.960 . S
C122 H135 0.962 . S
C122 H136 0.960 1_545 S
C123 C120 1.511 . S
C123 H137 0.961 . S
C123 H138 0.961 1_565 S
C123 H139 0.961 . S
C124 C125 1.370 . S
C124 C126 1.363 . S
C124 H140 0.931 . S
C125 C124 1.370 . S
C125 C129 1.408 . S
C126 C124 1.363 . S
C126 C127 1.370 . S
C126 C130 1.524 1_554 S
C127 C119 1.503 1_544 S
C127 C126 1.370 . S
C127 C128 1.403 . S
C128 C127 1.403 . S
C128 C129 1.404 . S
C128 C131 1.539 1_545 S
C129 C125 1.408 . S
C129 C128 1.404 . S
C129 H141 0.930 . S
C130 C126 1.524 1_556 S
C130 H142 0.956 . S
C130 H143 0.961 . S
C130 H144 0.961 . S
C131 C128 1.539 1_565 S
C131 H145 0.958 . S
C131 H146 0.961 . S
C131 H147 0.960 . S
H132 C116 0.931 . S
H133 C121 0.929 . S
H134 C122 0.960 . S
H135 C122 0.962 . S
H136 C122 0.960 1_565 S
H137 C123 0.961 . S
H138 C123 0.961 1_545 S
H139 C123 0.961 . S
H140 C124 0.931 . S
H141 C129 0.930 . S
H142 C130 0.956 . S
H143 C130 0.961 . S
H144 C130 0.961 . S
H145 C131 0.958 . S
H146 C131 0.961 . S
H147 C131 0.960 . S
C148 C149 1.391 . S
C148 C150 1.394 . S
C148 H164 0.931 . S
C149 C148 1.391 . S
C149 C153 1.376 . S
C150 C148 1.394 . S
C150 C151 1.369 . S
C150 C154 1.531 . S
C151 C150 1.369 . S
C151 C152 1.410 . S
C151 C159 1.503 . S
C152 C151 1.410 . S
C152 C153 1.392 . S
C152 C155 1.511 . S
C153 C149 1.376 . S
C153 C152 1.392 . S
C153 H165 0.929 . S
C154 C150 1.531 . S
C154 H166 0.960 . S
C154 H167 0.962 . S
C154 H168 0.960 . S
C155 C152 1.511 . S
C155 H169 0.961 . S
C155 H170 0.961 . S
C155 H171 0.961 . S
C156 C157 1.370 . S
C156 C158 1.363 . S
C156 H172 0.931 . S
C157 C156 1.370 . S
C157 C161 1.408 . S
C158 C156 1.363 . S
C158 C159 1.370 . S
C158 C162 1.524 . S
C159 C151 1.503 . S
C159 C158 1.370 . S
C159 C160 1.403 . S
C160 C159 1.403 . S
C160 C161 1.404 . S
C160 C163 1.539 . S
C161 C157 1.408 . S
C161 C160 1.404 . S
C161 H173 0.930 . S
C162 C158 1.524 . S
C162 H174 0.956 . S
C162 H175 0.961 . S
C162 H176 0.961 . S
C163 C160 1.539 . S
C163 H177 0.958 . S
C163 H178 0.961 . S
C163 H179 0.960 . S
H164 C148 0.931 . S
H165 C153 0.929 . S
H166 C154 0.960 . S
H167 C154 0.962 . S
H168 C154 0.960 . S
H169 C155 0.961 . S
H170 C155 0.961 . S
H171 C155 0.961 . S
H172 C156 0.931 . S
H173 C161 0.930 . S
H174 C162 0.956 . S
H175 C162 0.961 . S
H176 C162 0.961 . S
H177 C163 0.958 . S
H178 C163 0.961 . S
H179 C163 0.960 . S
C180 C181 1.391 . S
C180 C182 1.394 . S
C180 H196 0.931 . S
C181 C180 1.391 . S
C181 C185 1.376 . S
C182 C180 1.394 . S
C182 C183 1.369 . S
C182 C186 1.531 1_655 S
C183 C182 1.369 . S
C183 C184 1.410 . S
C183 C191 1.503 1_655 S
C184 C183 1.410 . S
C184 C185 1.392 . S
C184 C187 1.511 . S
C185 C181 1.376 . S
C185 C184 1.392 . S
C185 H197 0.929 . S
C186 C182 1.531 1_455 S
C186 H198 0.960 . S
C186 H199 0.962 . S
C186 H200 0.960 . S
C187 C184 1.511 . S
C187 H201 0.961 . S
C187 H202 0.961 . S
C187 H203 0.961 . S
C188 C189 1.370 . S
C188 C190 1.363 1_455 S
C188 H204 0.931 . S
C189 C188 1.370 . S
C189 C193 1.408 . S
C190 C188 1.363 1_655 S
C190 C191 1.370 1_655 S
C190 C194 1.524 . S
C191 C183 1.503 1_455 S
C191 C190 1.370 1_455 S
C191 C192 1.403 . S
C192 C191 1.403 . S
C192 C193 1.404 . S
C192 C195 1.539 . S
C193 C189 1.408 . S
C193 C192 1.404 . S
C193 H205 0.930 . S
C194 C190 1.524 . S
C194 H206 0.956 . S
C194 H207 0.961 . S
C194 H208 0.961 . S
C195 C192 1.539 . S
C195 H209 0.958 . S
C195 H210 0.961 . S
C195 H211 0.960 . S
H196 C180 0.931 . S
H197 C185 0.929 . S
H198 C186 0.960 . S
H199 C186 0.962 . S
H200 C186 0.960 . S
H201 C187 0.961 . S
H202 C187 0.961 . S
H203 C187 0.961 . S
H204 C188 0.931 . S
H205 C193 0.930 . S
H206 C194 0.956 . S
H207 C194 0.961 . S
H208 C194 0.961 . S
H209 C195 0.958 . S
H210 C195 0.961 . S
H211 C195 0.960 . S
C212 C213 1.391 . S
C212 C214 1.394 . S
C212 H228 0.931 . S
C213 C212 1.391 . S
C213 C217 1.376 . S
C214 C212 1.394 . S
C214 C215 1.369 1_545 S
C214 C218 1.531 1_545 S
C215 C214 1.369 1_565 S
C215 C216 1.410 1_565 S
C215 C223 1.503 . S
C216 C215 1.410 1_545 S
C216 C217 1.392 . S
C216 C219 1.511 1_545 S
C217 C213 1.376 . S
C217 C216 1.392 . S
C217 H229 0.929 . S
C218 C214 1.531 1_565 S
C218 H230 0.960 . S
C218 H231 0.962 1_565 S
C218 H232 0.960 . S
C219 C216 1.511 1_565 S
C219 H233 0.961 1_565 S
C219 H234 0.961 . S
C219 H235 0.961 . S
C220 C221 1.370 . S
C220 C222 1.363 . S
C220 H236 0.931 . S
C221 C220 1.370 . S
C221 C225 1.408 . S
C222 C220 1.363 . S
C222 C223 1.370 . S
C222 C226 1.524 1_565 S
C223 C215 1.503 . S
C223 C222 1.370 . S
C223 C224 1.403 . S
C224 C223 1.403 . S
C224 C225 1.404 . S
C224 C227 1.539 . S
C225 C221 1.408 . S
C225 C224 1.404 . S
C225 H237 0.930 . S
C226 C222 1.524 1_545 S
C226 H238 0.956 . S
C226 H239 0.961 . S
C226 H240 0.961 . S
C227 C224 1.539 . S
C227 H241 0.958 . S
C227 H242 0.961 . S
C227 H243 0.960 . S
H228 C212 0.931 . S
H229 C217 0.929 . S
H230 C218 0.960 . S
H231 C218 0.962 1_545 S
H232 C218 0.960 . S
H233 C219 0.961 1_545 S
H234 C219 0.961 . S
H235 C219 0.961 . S
H236 C220 0.931 . S
H237 C225 0.930 . S
H238 C226 0.956 . S
H239 C226 0.961 . S
H240 C226 0.961 . S
H241 C227 0.958 . S
H242 C227 0.961 . S
H243 C227 0.960 . S
C244 C245 1.391 . S
C244 C246 1.394 . S
C244 H260 0.931 . S
C245 C244 1.391 . S
C245 C249 1.376 . S
C246 C244 1.394 . S
C246 C247 1.369 . S
C246 C250 1.531 . S
C247 C246 1.369 . S
C247 C248 1.410 . S
C247 C255 1.503 . S
C248 C247 1.410 . S
C248 C249 1.392 . S
C248 C251 1.511 . S
C249 C245 1.376 . S
C249 C248 1.392 . S
C249 H261 0.929 . S
C250 C246 1.531 . S
C250 H262 0.960 . S
C250 H263 0.962 . S
C250 H264 0.960 . S
C251 C248 1.511 . S
C251 H265 0.961 . S
C251 H266 0.961 . S
C251 H267 0.961 . S
C252 C253 1.370 . S
C252 C254 1.363 . S
C252 H268 0.931 . S
C253 C252 1.370 . S
C253 C257 1.408 . S
C254 C252 1.363 . S
C254 C255 1.370 . S
C254 C258 1.524 . S
C255 C247 1.503 . S
C255 C254 1.370 . S
C255 C256 1.403 . S
C256 C255 1.403 . S
C256 C257 1.404 . S
C256 C259 1.539 . S
C257 C253 1.408 . S
C257 C256 1.404 . S
C257 H269 0.930 . S
C258 C254 1.524 . S
C258 H270 0.956 . S
C258 H271 0.961 . S
C258 H272 0.961 . S
C259 C256 1.539 . S
C259 H273 0.958 . S
C259 H274 0.961 . S
C259 H275 0.960 . S
H260 C244 0.931 . S
H261 C249 0.929 . S
H262 C250 0.960 . S
H263 C250 0.962 . S
H264 C250 0.960 . S
H265 C251 0.961 . S
H266 C251 0.961 . S
H267 C251 0.961 . S
H268 C252 0.931 . S
H269 C257 0.930 . S
H270 C258 0.956 . S
H271 C258 0.961 . S
H272 C258 0.961 . S
H273 C259 0.958 . S
H274 C259 0.961 . S
H275 C259 0.960 . S
C276 C277 1.391 . S
C276 C278 1.394 . S
C276 H292 0.931 . S
C277 C276 1.391 . S
C277 C281 1.376 . S
C278 C276 1.394 . S
C278 C279 1.369 . S
C278 C282 1.531 . S
C279 C278 1.369 . S
C279 C280 1.410 . S
C279 C287 1.503 . S
C280 C279 1.410 . S
C280 C281 1.392 . S
C280 C283 1.511 . S
C281 C277 1.376 . S
C281 C280 1.392 . S
C281 H293 0.929 . S
C282 C278 1.531 . S
C282 H294 0.960 . S
C282 H295 0.962 . S
C282 H296 0.960 . S
C283 C280 1.511 . S
C283 H297 0.961 . S
C283 H298 0.961 . S
C283 H299 0.961 . S
C284 C285 1.370 . S
C284 C286 1.363 . S
C284 H300 0.931 . S
C285 C284 1.370 . S
C285 C289 1.408 . S
C286 C284 1.363 . S
C286 C287 1.370 . S
C286 C290 1.524 . S
C287 C279 1.503 . S
C287 C286 1.370 . S
C287 C288 1.403 . S
C288 C287 1.403 . S
C288 C289 1.404 . S
C288 C291 1.539 . S
C289 C285 1.408 . S
C289 C288 1.404 . S
C289 H301 0.930 . S
C290 C286 1.524 . S
C290 H302 0.956 . S
C290 H303 0.961 . S
C290 H304 0.961 . S
C291 C288 1.539 . S
C291 H305 0.958 . S
C291 H306 0.961 . S
C291 H307 0.960 . S
H292 C276 0.931 . S
H293 C281 0.929 . S
H294 C282 0.960 . S
H295 C282 0.962 . S
H296 C282 0.960 . S
H297 C283 0.961 . S
H298 C283 0.961 . S
H299 C283 0.961 . S
H300 C284 0.931 . S
H301 C289 0.930 . S
H302 C290 0.956 . S
H303 C290 0.961 . S
H304 C290 0.961 . S
H305 C291 0.958 . S
H306 C291 0.961 . S
H307 C291 0.960 . S
C308 C309 1.391 . S
C308 C310 1.394 . S
C308 H324 0.931 . S
C309 C308 1.391 . S
C309 C313 1.376 . S
C310 C308 1.394 . S
C310 C311 1.369 . S
C310 C314 1.531 . S
C311 C310 1.369 . S
C311 C312 1.410 . S
C311 C319 1.503 . S
C312 C311 1.410 . S
C312 C313 1.392 . S
C312 C315 1.511 . S
C313 C309 1.376 . S
C313 C312 1.392 . S
C313 H325 0.929 . S
C314 C310 1.531 . S
C314 H326 0.960 . S
C314 H327 0.962 . S
C314 H328 0.960 . S
C315 C312 1.511 . S
C315 H329 0.961 . S
C315 H330 0.961 . S
C315 H331 0.961 . S
C316 C317 1.370 . S
C316 C318 1.363 . S
C316 H332 0.931 . S
C317 C316 1.370 . S
C317 C321 1.408 . S
C318 C316 1.363 . S
C318 C319 1.370 . S
C318 C322 1.524 . S
C319 C311 1.503 . S
C319 C318 1.370 . S
C319 C320 1.403 . S
C320 C319 1.403 . S
C320 C321 1.404 . S
C320 C323 1.539 . S
C321 C317 1.408 . S
C321 C320 1.404 . S
C321 H333 0.930 . S
C322 C318 1.524 . S
C322 H334 0.956 . S
C322 H335 0.961 . S
C322 H336 0.961 . S
C323 C320 1.539 . S
C323 H337 0.958 . S
C323 H338 0.961 . S
C323 H339 0.960 . S
H324 C308 0.931 . S
H325 C313 0.929 . S
H326 C314 0.960 . S
H327 C314 0.962 . S
H328 C314 0.960 . S
H329 C315 0.961 . S
H330 C315 0.961 . S
H331 C315 0.961 . S
H332 C316 0.931 . S
H333 C321 0.930 . S
H334 C322 0.956 . S
H335 C322 0.961 . S
H336 C322 0.961 . S
H337 C323 0.958 . S
H338 C323 0.961 . S
H339 C323 0.960 . S
C340 C341 1.391 . S
C340 C342 1.394 . S
C340 H356 0.931 . S
C341 C340 1.391 . S
C341 C345 1.376 . S
C342 C340 1.394 . S
C342 C343 1.369 . S
C342 C346 1.531 . S
C343 C342 1.369 . S
C343 C344 1.410 . S
C343 C351 1.503 . S
C344 C343 1.410 . S
C344 C345 1.392 . S
C344 C347 1.511 . S
C345 C341 1.376 . S
C345 C344 1.392 . S
C345 H357 0.929 . S
C346 C342 1.531 . S
C346 H358 0.960 . S
C346 H359 0.962 . S
C346 H360 0.960 . S
C347 C344 1.511 . S
C347 H361 0.961 . S
C347 H362 0.961 . S
C347 H363 0.961 . S
C348 C349 1.370 . S
C348 C350 1.363 . S
C348 H364 0.931 . S
C349 C348 1.370 . S
C349 C353 1.408 . S
C350 C348 1.363 . S
C350 C351 1.370 . S
C350 C354 1.524 . S
C351 C343 1.503 . S
C351 C350 1.370 . S
C351 C352 1.403 . S
C352 C351 1.403 . S
C352 C353 1.404 . S
C352 C355 1.539 . S
C353 C349 1.408 . S
C353 C352 1.404 . S
C353 H365 0.930 . S
C354 C350 1.524 . S
C354 H366 0.956 . S
C354 H367 0.961 . S
C354 H368 0.961 . S
C355 C352 1.539 . S
C355 H369 0.958 . S
C355 H370 0.961 . S
C355 H371 0.960 . S
H356 C340 0.931 . S
H357 C345 0.929 . S
H358 C346 0.960 . S
H359 C346 0.962 . S
H360 C346 0.960 . S
H361 C347 0.961 . S
H362 C347 0.961 . S
H363 C347 0.961 . S
H364 C348 0.931 . S
H365 C353 0.930 . S
H366 C354 0.956 . S
H367 C354 0.961 . S
H368 C354 0.961 . S
H369 C355 0.958 . S
H370 C355 0.961 . S
H371 C355 0.960 . S
C372 C373 1.391 . S
C372 C374 1.394 . S
C372 H388 0.931 . S
C373 C372 1.391 . S
C373 C377 1.376 . S
C374 C372 1.394 . S
C374 C375 1.369 . S
C374 C378 1.531 . S
C375 C374 1.369 . S
C375 C376 1.410 . S
C375 C383 1.503 . S
C376 C375 1.410 . S
C376 C377 1.392 . S
C376 C379 1.511 . S
C377 C373 1.376 . S
C377 C376 1.392 . S
C377 H389 0.929 . S
C378 C374 1.531 . S
C378 H390 0.960 . S
C378 H391 0.962 . S
C378 H392 0.960 . S
C379 C376 1.511 . S
C379 H393 0.961 . S
C379 H394 0.961 . S
C379 H395 0.961 . S
C380 C381 1.370 . S
C380 C382 1.363 . S
C380 H396 0.931 . S
C381 C380 1.370 . S
C381 C385 1.408 . S
C382 C380 1.363 . S
C382 C383 1.370 . S
C382 C386 1.524 . S
C383 C375 1.503 . S
C383 C382 1.370 . S
C383 C384 1.403 . S
C384 C383 1.403 . S
C384 C385 1.404 . S
C384 C387 1.539 . S
C385 C381 1.408 . S
C385 C384 1.404 . S
C385 H397 0.930 . S
C386 C382 1.524 . S
C386 H398 0.956 . S
C386 H399 0.961 . S
C386 H400 0.961 . S
C387 C384 1.539 . S
C387 H401 0.958 . S
C387 H402 0.961 . S
C387 H403 0.960 . S
H388 C372 0.931 . S
H389 C377 0.929 . S
H390 C378 0.960 . S
H391 C378 0.962 . S
H392 C378 0.960 . S
H393 C379 0.961 . S
H394 C379 0.961 . S
H395 C379 0.961 . S
H396 C380 0.931 . S
H397 C385 0.930 . S
H398 C386 0.956 . S
H399 C386 0.961 . S
H400 C386 0.961 . S
H401 C387 0.958 . S
H402 C387 0.961 . S
H403 C387 0.960 . S
C404 C405 1.391 . S
C404 C406 1.394 . S
C404 H420 0.931 . S
C405 C404 1.391 . S
C405 C409 1.376 . S
C406 C404 1.394 . S
C406 C407 1.369 . S
C406 C410 1.531 . S
C407 C406 1.369 . S
C407 C408 1.410 . S
C407 C415 1.503 . S
C408 C407 1.410 . S
C408 C409 1.392 . S
C408 C411 1.511 . S
C409 C405 1.376 . S
C409 C408 1.392 . S
C409 H421 0.929 . S
C410 C406 1.531 . S
C410 H422 0.960 . S
C410 H423 0.962 . S
C410 H424 0.960 . S
C411 C408 1.511 . S
C411 H425 0.961 . S
C411 H426 0.961 . S
C411 H427 0.961 . S
C412 C413 1.370 1_554 S
C412 C414 1.363 1_554 S
C412 H428 0.931 . S
C413 C412 1.370 1_556 S
C413 C417 1.408 . S
C414 C412 1.363 1_556 S
C414 C415 1.370 . S
C414 C418 1.524 . S
C415 C407 1.503 . S
C415 C414 1.370 . S
C415 C416 1.403 . S
C416 C415 1.403 . S
C416 C417 1.404 . S
C416 C419 1.539 . S
C417 C413 1.408 . S
C417 C416 1.404 . S
C417 H429 0.930 . S
C418 C414 1.524 . S
C418 H430 0.956 . S
C418 H431 0.961 . S
C418 H432 0.961 1_556 S
C419 C416 1.539 . S
C419 H433 0.958 . S
C419 H434 0.961 . S
C419 H435 0.960 . S
H420 C404 0.931 . S
H421 C409 0.929 . S
H422 C410 0.960 . S
H423 C410 0.962 . S
H424 C410 0.960 . S
H425 C411 0.961 . S
H426 C411 0.961 . S
H427 C411 0.961 . S
H428 C412 0.931 . S
H429 C417 0.930 . S
H430 C418 0.956 . S
H431 C418 0.961 . S
H432 C418 0.961 1_554 S
H433 C419 0.958 . S
H434 C419 0.961 . S
H435 C419 0.960 . S
C436 C437 1.372 1_554 S
C436 C438 1.394 . S
C436 H452 0.931 . S
C437 C436 1.372 1_556 S
C437 C441 1.385 . S
C438 C436 1.394 . S
C438 C439 1.369 . S
C438 C442 1.531 . S
C439 C438 1.369 . S
C439 C440 1.410 . S
C439 C447 1.503 . S
C440 C439 1.410 . S
C440 C441 1.392 1_554 S
C440 C443 1.511 1_554 S
C441 C437 1.385 . S
C441 C440 1.392 1_556 S
C441 H453 0.929 . S
C442 C438 1.531 . S
C442 H454 0.960 . S
C442 H455 0.962 . S
C442 H456 0.960 . S
C443 C440 1.511 1_556 S
C443 H457 0.961 . S
C443 H458 0.961 . S
C443 H459 0.961 . S
C444 C445 1.370 . S
C444 C446 1.363 . S
C444 H460 0.931 . S
C445 C444 1.370 . S
C445 C449 1.408 . S
C446 C444 1.363 . S
C446 C447 1.370 . S
C446 C450 1.524 . S
C447 C439 1.503 . S
C447 C446 1.370 . S
C447 C448 1.403 . S
C448 C447 1.403 . S
C448 C449 1.404 . S
C448 C451 1.539 . S
C449 C445 1.408 . S
C449 C448 1.404 . S
C449 H461 0.930 . S
C450 C446 1.524 . S
C450 H462 0.956 . S
C450 H463 0.961 . S
C450 H464 0.961 . S
C451 C448 1.539 . S
C451 H465 0.958 . S
C451 H466 0.961 . S
C451 H467 0.960 . S
H452 C436 0.931 . S
H453 C441 0.929 . S
H454 C442 0.960 . S
H455 C442 0.962 . S
H456 C442 0.960 . S
H457 C443 0.961 . S
H458 C443 0.961 . S
H459 C443 0.961 . S
H460 C444 0.931 . S
H461 C449 0.930 . S
H462 C450 0.956 . S
H463 C450 0.961 . S
H464 C450 0.961 . S
H465 C451 0.958 . S
H466 C451 0.961 . S
H467 C451 0.960 . S
C85 C8 1.447 1_556 S
C93 C48 1.465 . S
C117 C62 1.468 . S
C125 C22 1.430 . S
C149 C36 1.394 . S
C157 C76 1.484 . S
C181 C50 1.396 . S
C189 C6 1.481 . S
C213 C20 1.473 . S
C221 C64 1.434 . S
C245 C78 1.426 . S
C253 C34 1.476 . S
C277 C7 1.372 . S
C285 C37 1.373 . S
C309 C21 1.360 . S
C317 C51 1.372 . S
C341 C65 1.394 . S
C349 C35 1.387 . S
C373 C79 1.368 . S
C381 C49 1.375 . S
C405 C63 1.360 . S
C413 C9 1.372 1_556 S
C437 C77 1.401 . S
C445 C23 1.386 . S
