# Generated by pormake.
# Topology wjo, (5)-cn, num edge types: 1
# Building blocks:
#     Node 0, Type 0, BuildingBlock: XOMCOT_clean_sbu_1, # of connection points: 5
#     Node 1, Type 0, BuildingBlock: XOMCOT_clean_sbu_1, # of connection points: 5
#     Node 2, Type 0, BuildingBlock: XOMCOT_clean_sbu_1, # of connection points: 5
#     Node 3, Type 0, BuildingBlock: XOMCOT_clean_sbu_1, # of connection points: 5
#     Node 4, Type 0, BuildingBlock: XOMCOT_clean_sbu_1, # of connection points: 5
#     Node 5, Type 0, BuildingBlock: XOMCOT_clean_sbu_1, # of connection points: 5
#     Node 6, Type 0, BuildingBlock: XOMCOT_clean_sbu_1, # of connection points: 5
#     Node 7, Type 0, BuildingBlock: XOMCOT_clean_sbu_1, # of connection points: 5
#     Node 8, Type 0, BuildingBlock: XOMCOT_clean_sbu_1, # of connection points: 5
#     Node 9, Type 0, BuildingBlock: XOMCOT_clean_sbu_1, # of connection points: 5
#     Node 10, Type 0, BuildingBlock: XOMCOT_clean_sbu_1, # of connection points: 5
#     Node 11, Type 0, BuildingBlock: XOMCOT_clean_sbu_1, # of connection points: 5
#     Edge 12, Type (0, 0), BuildingBlock: OJICUG_clean_linker_0, # of connection points: 2
#     Edge 13, Type (0, 0), BuildingBlock: OJICUG_clean_linker_0, # of connection points: 2
#     Edge 14, Type (0, 0), BuildingBlock: OJICUG_clean_linker_0, # of connection points: 2
#     Edge 15, Type (0, 0), BuildingBlock: OJICUG_clean_linker_0, # of connection points: 2
#     Edge 16, Type (0, 0), BuildingBlock: OJICUG_clean_linker_0, # of connection points: 2
#     Edge 17, Type (0, 0), BuildingBlock: OJICUG_clean_linker_0, # of connection points: 2
#     Edge 18, Type (0, 0), BuildingBlock: OJICUG_clean_linker_0, # of connection points: 2
#     Edge 19, Type (0, 0), BuildingBlock: OJICUG_clean_linker_0, # of connection points: 2
#     Edge 20, Type (0, 0), BuildingBlock: OJICUG_clean_linker_0, # of connection points: 2
#     Edge 21, Type (0, 0), BuildingBlock: OJICUG_clean_linker_0, # of connection points: 2
#     Edge 22, Type (0, 0), BuildingBlock: OJICUG_clean_linker_0, # of connection points: 2
#     Edge 23, Type (0, 0), BuildingBlock: OJICUG_clean_linker_0, # of connection points: 2
#     Edge 24, Type (0, 0), BuildingBlock: OJICUG_clean_linker_0, # of connection points: 2
#     Edge 25, Type (0, 0), BuildingBlock: OJICUG_clean_linker_0, # of connection points: 2
#     Edge 26, Type (0, 0), BuildingBlock: OJICUG_clean_linker_0, # of connection points: 2
#     Edge 27, Type (0, 0), BuildingBlock: OJICUG_clean_linker_0, # of connection points: 2
#     Edge 28, Type (0, 0), BuildingBlock: OJICUG_clean_linker_0, # of connection points: 2
#     Edge 29, Type (0, 0), BuildingBlock: OJICUG_clean_linker_0, # of connection points: 2
#     Edge 30, Type (0, 0), BuildingBlock: OJICUG_clean_linker_0, # of connection points: 2
#     Edge 31, Type (0, 0), BuildingBlock: OJICUG_clean_linker_0, # of connection points: 2
#     Edge 32, Type (0, 0), BuildingBlock: OJICUG_clean_linker_0, # of connection points: 2
#     Edge 33, Type (0, 0), BuildingBlock: OJICUG_clean_linker_0, # of connection points: 2
#     Edge 34, Type (0, 0), BuildingBlock: OJICUG_clean_linker_0, # of connection points: 2
#     Edge 35, Type (0, 0), BuildingBlock: OJICUG_clean_linker_0, # of connection points: 2
#     Edge 36, Type (0, 0), BuildingBlock: OJICUG_clean_linker_0, # of connection points: 2
#     Edge 37, Type (0, 0), BuildingBlock: OJICUG_clean_linker_0, # of connection points: 2
#     Edge 38, Type (0, 0), BuildingBlock: OJICUG_clean_linker_0, # of connection points: 2
#     Edge 39, Type (0, 0), BuildingBlock: OJICUG_clean_linker_0, # of connection points: 2
#     Edge 40, Type (0, 0), BuildingBlock: OJICUG_clean_linker_0, # of connection points: 2
#     Edge 41, Type (0, 0), BuildingBlock: OJICUG_clean_linker_0, # of connection points: 2
# Relax obj value: 0.387
# Max RMSD: 0.207
# Mean RMSD: 0.204
data_MOF--net-wjo--node1-XOMCOT_clean_sbu_1--edge1-OJICUG_clean_linker_0
_symmetry_space_group_name_H-M    P1
_symmetry_Int_Tables_number       1
_symmetry_cell_setting            triclinic
loop_
_symmetry_equiv_pos_as_xyz
'x, y, z'
_cell_length_a     36.294118
_cell_length_b     36.317665
_cell_length_c     21.795232
_cell_angle_alpha  89.864392
_cell_angle_beta   90.10523
_cell_angle_gamma 120.03815
loop_
_atom_site_label
_atom_site_type_symbol
_atom_site_fract_x
_atom_site_fract_y
_atom_site_fract_z
_atom_type_partial_charge
C0 C 0.23516 0.32325 0.8562 0.0
C1 C 0.24233 0.29468 0.825 0.0
N2 N 0.25975 0.27886 0.86412 0.0
N3 N 0.24787 0.32557 0.91482 0.0
C4 C 0.26249 0.2979 0.91857 0.0
H5 H 0.22256 0.34216 0.83695 0.0
Co6 Co 0.24613 0.36364 0.96954 0.0
C7 C 0.29479 0.36561 0.07849 0.0
O8 O 0.31171 0.40719 0.07707 0.0
N9 N 0.242 0.40185 0.02414 0.0
C10 C 0.24027 0.45473 0.07333 0.0
C11 C 0.25037 0.44247 0.01911 0.0
C12 C 0.22503 0.38985 0.0808 0.0
N13 N 0.22445 0.42146 0.11214 0.0
O14 O 0.18857 0.32269 0.99018 0.0
H15 H 0.26238 0.46239 0.97906 0.0
H16 H 0.21456 0.35853 0.09949 0.0
O17 O 0.26744 0.34269 0.03754 0.0
C18 C 0.16098 0.32702 0.95978 0.0
O19 O 0.17415 0.35582 0.91607 0.0
N20 N 0.30223 0.40454 0.94539 0.0
C21 C 0.38314 0.4722 0.91797 0.0
C22 C 0.37809 0.43437 0.94327 0.0
C23 C 0.33727 0.40048 0.95517 0.0
C24 C 0.30626 0.43801 0.91183 0.0
C25 C 0.34638 0.4729 0.89942 0.0
H26 H 0.33418 0.37159 0.97414 0.0
H27 H 0.27809 0.43827 0.89635 0.0
H28 H 0.27671 0.29329 0.95942 0.0
H29 H 0.23595 0.28679 0.77684 0.0
H30 H 0.24399 0.48562 0.08309 0.0
H31 H 0.40538 0.43112 0.95462 0.0
H32 H 0.34828 0.50059 0.87761 0.0
C33 C 0.91567 0.22693 0.02113 0.0
C34 C 0.95105 0.23366 0.98909 0.0
N35 N 0.98497 0.25227 0.02686 0.0
N36 N 0.92699 0.24109 0.07896 0.0
C37 C 0.96945 0.25622 0.08135 0.0
H38 H 0.88378 0.21353 0.00296 0.0
Co39 Co 0.88829 0.24037 0.13516 0.0
C40 C 0.93638 0.28714 0.2439 0.0
O41 O 0.9147 0.30726 0.24202 0.0
N42 N 0.84737 0.23758 0.192 0.0
C43 C 0.79782 0.24212 0.24621 0.0
C44 C 0.81735 0.24919 0.18983 0.0
C45 C 0.84352 0.22145 0.24917 0.0
N46 N 0.81488 0.22518 0.28394 0.0
O47 O 0.87065 0.18259 0.15577 0.0
H48 H 0.80983 0.2624 0.15071 0.0
H49 H 0.86353 0.20941 0.26589 0.0
O50 O 0.93116 0.26034 0.20181 0.0
C51 C 0.83774 0.15554 0.12662 0.0
O52 O 0.8218 0.16933 0.08419 0.0
N53 N 0.90396 0.29638 0.11073 0.0
C54 C 0.91643 0.37616 0.07806 0.0
C55 C 0.94916 0.37226 0.10608 0.0
C56 C 0.94273 0.33189 0.12034 0.0
C57 C 0.87433 0.29928 0.07594 0.0
C58 C 0.87932 0.33886 0.06046 0.0
H59 H 0.96857 0.3295 0.14077 0.0
H60 H 0.84579 0.27059 0.06209 0.0
H61 H 0.98892 0.27152 0.12124 0.0
H62 H 0.95178 0.22602 0.94129 0.0
H63 H 0.77334 0.24948 0.25834 0.0
H64 H 0.9793 0.40012 0.11734 0.0
H65 H 0.85363 0.34008 0.03701 0.0
C66 C 0.68901 0.91095 0.18982 0.0
C67 C 0.71768 0.94599 0.15705 0.0
N68 N 0.73443 0.97993 0.19473 0.0
N69 N 0.68755 0.92252 0.248 0.0
C70 C 0.71576 0.96478 0.24985 0.0
H71 H 0.66954 0.87915 0.17198 0.0
Co72 Co 0.65003 0.88445 0.30545 0.0
C73 C 0.65079 0.93569 0.41009 0.0
O74 O 0.60904 0.91217 0.41062 0.0
N75 N 0.61242 0.8442 0.36322 0.0
C76 C 0.55968 0.79085 0.41477 0.0
C77 C 0.57215 0.81115 0.35894 0.0
C78 C 0.6241 0.84168 0.42132 0.0
N79 N 0.59243 0.81041 0.45422 0.0
O80 O 0.69097 0.8682 0.32773 0.0
H81 H 0.55272 0.80119 0.31826 0.0
H82 H 0.65531 0.86345 0.43953 0.0
O83 O 0.67234 0.92887 0.36975 0.0
C84 C 0.68539 0.83543 0.29866 0.0
O85 O 0.65563 0.81933 0.25632 0.0
N86 N 0.60881 0.89869 0.27943 0.0
C87 C 0.53992 0.90901 0.24716 0.0
C88 C 0.57734 0.94309 0.27149 0.0
C89 C 0.61186 0.93756 0.28597 0.0
C90 C 0.57577 0.86781 0.24697 0.0
C91 C 0.54032 0.87155 0.23237 0.0
H92 H 0.64046 0.9643 0.30395 0.0
H93 H 0.57634 0.83941 0.23397 0.0
H94 H 0.72115 0.98442 0.28987 0.0
H95 H 0.72509 0.94652 0.10886 0.0
H96 H 0.52901 0.76344 0.42502 0.0
H97 H 0.5799 0.97365 0.27997 0.0
H98 H 0.51308 0.84457 0.21173 0.0
C99 C 0.78524 0.68972 0.35556 0.0
C100 C 0.77809 0.7183 0.32407 0.0
N101 N 0.7608 0.73427 0.36295 0.0
N102 N 0.7727 0.68755 0.41418 0.0
C103 C 0.75812 0.71527 0.41759 0.0
H104 H 0.79774 0.67074 0.33649 0.0
Co105 Co 0.77469 0.64967 0.46956 0.0
C106 C 0.72556 0.64776 0.5776 0.0
O107 O 0.7086 0.60617 0.57667 0.0
N108 N 0.77902 0.61172 0.52495 0.0
C109 C 0.78126 0.55901 0.57427 0.0
C110 C 0.77156 0.57143 0.51974 0.0
C111 C 0.79517 0.62344 0.58213 0.0
N112 N 0.79595 0.59185 0.61359 0.0
O113 O 0.83213 0.69086 0.49039 0.0
H114 H 0.76057 0.55189 0.4793 0.0
H115 H 0.80501 0.65453 0.60099 0.0
O116 O 0.75305 0.67056 0.53675 0.0
C117 C 0.85991 0.68721 0.45958 0.0
O118 O 0.847 0.65894 0.41531 0.0
N119 N 0.71875 0.60836 0.44518 0.0
C120 C 0.63837 0.53984 0.41696 0.0
C121 C 0.64276 0.57753 0.44165 0.0
C122 C 0.68331 0.61181 0.45411 0.0
C123 C 0.71541 0.57511 0.41209 0.0
C124 C 0.67564 0.5398 0.39949 0.0
H125 H 0.68588 0.64053 0.47269 0.0
H126 H 0.74389 0.57537 0.39705 0.0
H127 H 0.74405 0.72 0.45837 0.0
H128 H 0.78444 0.72613 0.27586 0.0
H129 H 0.77814 0.52832 0.58383 0.0
H130 H 0.61518 0.58046 0.45206 0.0
H131 H 0.67449 0.51234 0.37828 0.0
C132 C 0.10479 0.78506 0.52422 0.0
C133 C 0.0699 0.77995 0.4921 0.0
N134 N 0.03529 0.75911 0.52818 0.0
N135 N 0.09233 0.76743 0.58019 0.0
C136 C 0.04983 0.75207 0.58156 0.0
H137 H 0.1372 0.80013 0.50767 0.0
Co138 Co 0.12975 0.76588 0.63654 0.0
C139 C 0.08061 0.71965 0.7449 0.0
O140 O 0.10092 0.69818 0.74306 0.0
N141 N 0.16928 0.76608 0.69437 0.0
C142 C 0.21486 0.75674 0.75195 0.0
C143 C 0.19582 0.74998 0.6951 0.0
C144 C 0.17455 0.78404 0.75037 0.0
N145 N 0.2011 0.778 0.78667 0.0
O146 O 0.14898 0.82398 0.65747 0.0
H147 H 0.20088 0.73351 0.65796 0.0
H148 H 0.1568 0.79895 0.76568 0.0
O149 O 0.08663 0.74672 0.70263 0.0
C150 C 0.18702 0.85015 0.64117 0.0
O151 O 0.2084 0.83603 0.61004 0.0
N152 N 0.11257 0.70995 0.61129 0.0
C153 C 0.09963 0.63042 0.57726 0.0
C154 C 0.06704 0.63422 0.60577 0.0
C155 C 0.07373 0.67454 0.62084 0.0
C156 C 0.14202 0.70723 0.57608 0.0
C157 C 0.1368 0.66777 0.5599 0.0
H158 H 0.04814 0.67693 0.64197 0.0
H159 H 0.17098 0.73597 0.56347 0.0
H160 H 0.02969 0.73472 0.61997 0.0
H161 H 0.06998 0.79046 0.44555 0.0
H162 H 0.23658 0.74623 0.76679 0.0
H163 H 0.0369 0.60633 0.61699 0.0
H164 H 0.16251 0.66666 0.53649 0.0
C165 C 0.31278 0.09407 0.7079 0.0
C166 C 0.28264 0.05651 0.68164 0.0
N167 N 0.27994 0.0243 0.71558 0.0
N168 N 0.32871 0.08555 0.75848 0.0
C169 C 0.30813 0.04262 0.76181 0.0
H170 H 0.32261 0.12562 0.69087 0.0
Co171 Co 0.36909 0.12698 0.80984 0.0
C172 C 0.37102 0.08313 0.92313 0.0
O173 O 0.41265 0.10769 0.9232 0.0
N174 N 0.40912 0.17026 0.86159 0.0
C175 C 0.46485 0.22184 0.91094 0.0
C176 C 0.45108 0.19908 0.85701 0.0
C177 C 0.39805 0.17774 0.91734 0.0
N178 N 0.43128 0.208 0.94897 0.0
O179 O 0.32924 0.14495 0.83079 0.0
H180 H 0.47105 0.20335 0.818 0.0
H181 H 0.36633 0.15899 0.93601 0.0
O182 O 0.34892 0.08661 0.87988 0.0
C183 C 0.33543 0.17799 0.80164 0.0
O184 O 0.36542 0.19396 0.75965 0.0
N185 N 0.40921 0.11094 0.78517 0.0
C186 C 0.47906 0.10169 0.75534 0.0
C187 C 0.44496 0.07046 0.78976 0.0
C188 C 0.4097 0.07495 0.80225 0.0
C189 C 0.43886 0.13834 0.74471 0.0
C190 C 0.4743 0.13465 0.72966 0.0
H191 H 0.38386 0.05005 0.82785 0.0
H192 H 0.43617 0.16467 0.72665 0.0
H193 H 0.3133 0.02495 0.79748 0.0
H194 H 0.26502 0.05306 0.63984 0.0
H195 H 0.49715 0.24615 0.92153 0.0
H196 H 0.44591 0.04356 0.80936 0.0
H197 H 0.49818 0.15817 0.6995 0.0
C198 C 0.69297 0.77645 0.97458 0.0
C199 C 0.72192 0.77072 0.00772 0.0
N200 N 0.73977 0.75464 0.97011 0.0
N201 N 0.69241 0.76414 0.91621 0.0
C202 C 0.72145 0.75115 0.91462 0.0
H203 H 0.67273 0.78789 0.99228 0.0
Co204 Co 0.65466 0.76446 0.85884 0.0
C205 C 0.65525 0.71409 0.7538 0.0
O206 O 0.6135 0.6959 0.75365 0.0
N207 N 0.61666 0.767 0.80152 0.0
C208 C 0.56366 0.76867 0.75225 0.0
C209 C 0.57703 0.76125 0.80759 0.0
C210 C 0.62725 0.78026 0.74283 0.0
N211 N 0.59526 0.78028 0.71125 0.0
O212 O 0.6951 0.82177 0.83678 0.0
H213 H 0.55883 0.75344 0.84933 0.0
H214 H 0.65791 0.78892 0.72337 0.0
O215 O 0.67706 0.74261 0.79397 0.0
C216 C 0.68866 0.84837 0.86593 0.0
O217 O 0.65884 0.83393 0.90817 0.0
N218 N 0.6138 0.70876 0.88446 0.0
C219 C 0.5445 0.62918 0.90946 0.0
C220 C 0.58236 0.63278 0.88755 0.0
C221 C 0.61737 0.67325 0.87699 0.0
C222 C 0.57993 0.70563 0.91584 0.0
C223 C 0.54404 0.66599 0.92673 0.0
H224 H 0.64644 0.67574 0.85996 0.0
H225 H 0.58016 0.73413 0.93046 0.0
H226 H 0.72775 0.73772 0.87445 0.0
H227 H 0.72883 0.77736 0.05608 0.0
H228 H 0.53324 0.7664 0.74347 0.0
H229 H 0.58428 0.60474 0.87636 0.0
H230 H 0.51588 0.66414 0.94682 0.0
C231 C 0.92328 0.68115 0.14805 0.0
C232 C 0.95555 0.71261 0.18203 0.0
N233 N 0.98564 0.74042 0.14336 0.0
N234 N 0.93321 0.68757 0.08792 0.0
C235 C 0.97017 0.72535 0.0867 0.0
H236 H 0.89387 0.65573 0.16646 0.0
Co237 Co 0.89766 0.65305 0.02339 0.0
C238 C 0.98199 0.68815 0.96473 0.0
O239 O 0.99529 0.677 0.01376 0.0
N240 N 0.86114 0.6199 0.96176 0.0
C241 C 0.80709 0.56725 0.91235 0.0
C242 C 0.82576 0.58173 0.96886 0.0
C243 C 0.86317 0.62836 0.90126 0.0
N244 N 0.8308 0.5967 0.8698 0.0
O245 O 0.8801 0.69382 0.00872 0.0
H246 H 0.8144 0.56558 0.01237 0.0
H247 H 0.88823 0.65711 0.8807 0.0
O248 O 0.944 0.6818 0.96319 0.0
C249 C 0.84762 0.68767 0.0392 0.0
O250 O 0.83255 0.65786 0.08154 0.0
N251 N 0.9121 0.60961 0.03711 0.0
C252 C 0.9201 0.53699 0.05091 0.0
C253 C 0.92817 0.55803 0.99443 0.0
C254 C 0.92319 0.5935 0.98821 0.0
C255 C 0.90333 0.58892 0.09219 0.0
C256 C 0.90785 0.55311 0.10039 0.0
H257 H 0.92672 0.60694 0.94291 0.0
H258 H 0.89025 0.59815 0.12926 0.0
H259 H 0.98517 0.74208 0.04493 0.0
H260 H 0.95656 0.71419 0.23156 0.0
H261 H 0.77798 0.53768 0.90364 0.0
H262 H 0.93729 0.54661 0.95466 0.0
H263 H 0.89963 0.53692 0.14429 0.0
C264 C 0.25315 0.92184 0.31258 0.0
C265 C 0.25988 0.95725 0.34436 0.0
N266 N 0.26117 0.98624 0.30412 0.0
N267 N 0.25048 0.9282 0.25235 0.0
C268 C 0.25509 0.96748 0.24841 0.0
H269 H 0.25141 0.89354 0.33187 0.0
Co270 Co 0.24346 0.8886 0.19273 0.0
C271 C 0.29971 0.94309 0.09391 0.0
O272 O 0.31702 0.91879 0.09269 0.0
N273 N 0.23359 0.84681 0.13334 0.0
C274 C 0.20992 0.78329 0.08989 0.0
C275 C 0.21781 0.80494 0.14451 0.0
C276 C 0.23157 0.84893 0.07152 0.0
N277 N 0.21881 0.81125 0.04392 0.0
O278 O 0.18775 0.87884 0.17434 0.0
H279 H 0.21031 0.79049 0.18955 0.0
H280 H 0.23753 0.87711 0.04682 0.0
O281 O 0.26866 0.9342 0.13032 0.0
C282 C 0.15837 0.85511 0.21169 0.0
O283 O 0.16889 0.84398 0.26332 0.0
N284 N 0.29843 0.89662 0.21353 0.0
C285 C 0.37885 0.90574 0.23117 0.0
C286 C 0.37417 0.94165 0.22697 0.0
C287 C 0.33353 0.93641 0.21885 0.0
C288 C 0.30232 0.86182 0.22544 0.0
C289 C 0.34226 0.86553 0.23246 0.0
H290 H 0.33063 0.96444 0.21358 0.0
H291 H 0.2747 0.8308 0.22933 0.0
H292 H 0.25459 0.98211 0.20541 0.0
H293 H 0.26498 0.96155 0.39333 0.0
H294 H 0.1967 0.74935 0.08457 0.0
H295 H 0.40173 0.97336 0.22744 0.0
H296 H 0.34453 0.83712 0.23876 0.0
C297 C 0.33185 0.23868 0.47499 0.0
C298 C 0.30302 0.24431 0.50833 0.0
N299 N 0.28228 0.25683 0.46982 0.0
N300 N 0.32941 0.24737 0.41553 0.0
C301 C 0.29872 0.25818 0.41358 0.0
H302 H 0.35416 0.22994 0.4932 0.0
Co303 Co 0.36606 0.2463 0.3569 0.0
C304 C 0.36594 0.29987 0.25528 0.0
O305 O 0.4077 0.31826 0.25516 0.0
N306 N 0.40286 0.24304 0.2983 0.0
C307 C 0.45386 0.23768 0.24939 0.0
C308 C 0.43989 0.24308 0.30543 0.0
C309 C 0.39381 0.23446 0.23801 0.0
N310 N 0.42495 0.23276 0.20662 0.0
O311 O 0.32415 0.18962 0.33383 0.0
H312 H 0.45538 0.24489 0.34839 0.0
H313 H 0.36457 0.22954 0.21762 0.0
O314 O 0.34415 0.27 0.29377 0.0
C315 C 0.32445 0.16076 0.36673 0.0
O316 O 0.35009 0.17208 0.41428 0.0
N317 N 0.40837 0.30151 0.38299 0.0
C318 C 0.4782 0.3811 0.4071 0.0
C319 C 0.43929 0.37738 0.39008 0.0
C320 C 0.4042 0.33691 0.37967 0.0
C321 C 0.44365 0.30454 0.41003 0.0
C322 C 0.47972 0.34417 0.42012 0.0
H323 H 0.37442 0.33437 0.36584 0.0
H324 H 0.44413 0.27614 0.42295 0.0
H325 H 0.28999 0.2687 0.37241 0.0
H326 H 0.29829 0.24019 0.55743 0.0
H327 H 0.48252 0.23626 0.24145 0.0
H328 H 0.43655 0.40539 0.3823 0.0
H329 H 0.50869 0.34597 0.43695 0.0
C330 C 0.0995 0.32683 0.64522 0.0
C331 C 0.06744 0.29657 0.681 0.0
N332 N 0.03487 0.27072 0.64412 0.0
N333 N 0.08705 0.3214 0.58598 0.0
C334 C 0.04845 0.28539 0.58676 0.0
H335 H 0.13022 0.35126 0.66164 0.0
Co336 Co 0.1221 0.35596 0.52122 0.0
C337 C 0.03789 0.32213 0.46205 0.0
O338 O 0.02515 0.33426 0.5105 0.0
N339 N 0.15848 0.38936 0.45965 0.0
C340 C 0.2128 0.44233 0.41108 0.0
C341 C 0.19421 0.42715 0.46742 0.0
C342 C 0.15615 0.3818 0.39891 0.0
N343 N 0.18867 0.41372 0.36795 0.0
O344 O 0.13985 0.31532 0.50643 0.0
H345 H 0.20584 0.44256 0.51128 0.0
H346 H 0.13073 0.35358 0.37785 0.0
O347 O 0.07546 0.32727 0.46106 0.0
C348 C 0.1732 0.32277 0.53589 0.0
O349 O 0.18882 0.3537 0.57637 0.0
N350 N 0.10752 0.39917 0.53527 0.0
C351 C 0.09812 0.47084 0.54966 0.0
C352 C 0.09173 0.45101 0.49257 0.0
C353 C 0.09746 0.41609 0.48609 0.0
C354 C 0.11429 0.41839 0.5912 0.0
C355 C 0.1092 0.45383 0.5996 0.0
H356 H 0.09482 0.40338 0.44055 0.0
H357 H 0.12587 0.40804 0.6291 0.0
H358 H 0.03023 0.26995 0.54625 0.0
H359 H 0.06811 0.29413 0.73042 0.0
H360 H 0.24214 0.47179 0.40289 0.0
H361 H 0.08324 0.4629 0.45254 0.0
H362 H 0.11591 0.46896 0.64417 0.0
C363 C 0.78073 0.09269 0.80685 0.0
C364 C 0.77353 0.05725 0.83913 0.0
N365 N 0.75832 0.02406 0.80013 0.0
N366 N 0.77036 0.08224 0.74759 0.0
C367 C 0.75689 0.04014 0.74463 0.0
H368 H 0.79198 0.12406 0.82566 0.0
Co369 Co 0.77419 0.12213 0.69081 0.0
C370 C 0.72474 0.07442 0.58269 0.0
O371 O 0.70883 0.09996 0.58174 0.0
N372 N 0.78024 0.16446 0.63419 0.0
C373 C 0.7822 0.21913 0.58472 0.0
C374 C 0.7744 0.19822 0.64006 0.0
C375 C 0.79411 0.16738 0.57583 0.0
N376 N 0.79401 0.19922 0.54386 0.0
O377 O 0.83126 0.13632 0.67171 0.0
H378 H 0.76533 0.20781 0.68141 0.0
H379 H 0.80228 0.14501 0.55656 0.0
O380 O 0.75169 0.07885 0.62438 0.0
C381 C 0.8586 0.16665 0.70474 0.0
O382 O 0.84484 0.18232 0.74741 0.0
N383 N 0.71874 0.10968 0.71402 0.0
C384 C 0.63983 0.10197 0.74045 0.0
C385 C 0.64242 0.06813 0.71373 0.0
C386 C 0.6822 0.07199 0.70344 0.0
C387 C 0.71687 0.13988 0.74854 0.0
C388 C 0.67786 0.13709 0.76144 0.0
H389 H 0.68332 0.04511 0.68462 0.0
H390 H 0.74597 0.16687 0.76496 0.0
H391 H 0.74477 0.02135 0.70332 0.0
H392 H 0.77867 0.05599 0.88784 0.0
H393 H 0.7792 0.2468 0.57563 0.0
H394 H 0.61435 0.03941 0.69875 0.0
H395 H 0.67776 0.1626 0.78687 0.0
C396 C 0.22292 0.45543 0.27404 0.0
C397 C 0.19612 0.41616 0.3027 0.0
H398 H 0.25306 0.48795 0.19096 0.0
C399 C 0.17689 0.37917 0.26656 0.0
H400 H 0.23771 0.48468 0.30006 0.0
C401 C 0.18496 0.38122 0.20382 0.0
C402 C 0.21284 0.42022 0.17556 0.0
H403 H 0.15629 0.34828 0.28665 0.0
H404 H 0.1696 0.35203 0.17762 0.0
C405 C 0.23124 0.45742 0.21118 0.0
C406 C 0.82309 0.19338 0.38012 0.0
C407 C 0.80849 0.21774 0.3493 0.0
H408 H 0.83171 0.16984 0.46524 0.0
C409 C 0.78963 0.2365 0.38408 0.0
H410 H 0.83738 0.17792 0.35541 0.0
C411 C 0.78544 0.23098 0.4477 0.0
C412 C 0.80028 0.2068 0.47851 0.0
H413 H 0.77845 0.25595 0.36255 0.0
H414 H 0.77002 0.24534 0.47235 0.0
C415 C 0.81941 0.18832 0.4437 0.0
C416 C 0.63187 0.81697 0.55012 0.0
C417 C 0.59304 0.80195 0.51882 0.0
H418 H 0.66321 0.82332 0.6354 0.0
C419 C 0.55493 0.77997 0.55224 0.0
H420 H 0.66192 0.83356 0.52612 0.0
C421 C 0.55564 0.77323 0.61525 0.0
C422 C 0.59451 0.78851 0.64658 0.0
H423 H 0.52441 0.76837 0.53006 0.0
H424 H 0.52562 0.75557 0.63907 0.0
C425 C 0.6326 0.81061 0.61313 0.0
C426 C 0.83368 0.63144 0.70673 0.0
C427 C 0.80692 0.59261 0.67732 0.0
H428 H 0.86138 0.66343 0.79054 0.0
C429 C 0.78924 0.5549 0.71199 0.0
H430 H 0.84843 0.66105 0.68138 0.0
C431 C 0.79734 0.55614 0.77489 0.0
C432 C 0.82322 0.59514 0.80461 0.0
H433 H 0.76824 0.52446 0.69097 0.0
H434 H 0.78322 0.52649 0.80009 0.0
C435 C 0.84155 0.63273 0.76954 0.0
C436 C 0.20466 0.8216 0.87542 0.0
C437 C 0.20804 0.78762 0.85115 0.0
H438 H 0.20419 0.85506 0.9553 0.0
C439 C 0.21535 0.76164 0.89136 0.0
H440 H 0.19936 0.8424 0.84564 0.0
C441 C 0.21857 0.76916 0.9546 0.0
C442 C 0.2147 0.80291 0.97889 0.0
H443 H 0.21757 0.73488 0.87416 0.0
H444 H 0.22439 0.74874 0.98442 0.0
C445 C 0.20782 0.82909 0.93843 0.0
C446 C 0.46751 0.23217 0.04937 0.0
C447 C 0.43092 0.21786 0.0129 0.0
H448 H 0.49454 0.24839 0.13908 0.0
C449 C 0.39279 0.2099 0.04093 0.0
H450 H 0.49734 0.23833 0.02942 0.0
C451 C 0.39078 0.21446 0.10408 0.0
C452 C 0.42707 0.22782 0.14112 0.0
H453 H 0.36414 0.19959 0.01418 0.0
H454 H 0.36037 0.20675 0.12344 0.0
C455 C 0.46565 0.23721 0.11268 0.0
C456 C 0.29277 0.25339 0.78926 0.0
C457 C 0.27651 0.25153 0.84838 0.0
H458 H 0.32377 0.23151 0.72841 0.0
C459 C 0.27776 0.22334 0.89161 0.0
H460 H 0.29285 0.27511 0.75511 0.0
C461 C 0.29531 0.19785 0.876 0.0
C462 C 0.3125 0.20075 0.81723 0.0
H463 H 0.26525 0.22107 0.93737 0.0
H464 H 0.29667 0.17698 0.9104 0.0
C465 C 0.31072 0.22852 0.77402 0.0
C466 C 0.08505 0.30036 0.93333 0.0
C467 C 0.11539 0.30397 0.97657 0.0
H468 H 0.02015 0.2814 0.9154 0.0
C469 C 0.10199 0.2888 0.03651 0.0
H470 H 0.09441 0.31185 0.88682 0.0
C471 C 0.05912 0.27155 0.0532 0.0
C472 C 0.0289 0.26858 0.00996 0.0
H473 H 0.1248 0.29161 0.07097 0.0
H474 H 0.04962 0.26067 0.09984 0.0
C475 C 0.04237 0.2827 0.94968 0.0
C476 C 0.81732 0.09621 0.20279 0.0
C477 C 0.81462 0.10994 0.14344 0.0
H478 H 0.79336 0.04372 0.266 0.0
C479 C 0.78647 0.08001 0.10099 0.0
H480 H 0.83846 0.11871 0.23664 0.0
C481 C 0.76098 0.03743 0.11761 0.0
C482 C 0.76256 0.02367 0.17739 0.0
H483 H 0.78361 0.08962 0.05495 0.0
H484 H 0.73897 0.01554 0.08402 0.0
C485 C 0.79123 0.05346 0.21977 0.0
C486 C 0.72842 0.76028 0.28741 0.0
C487 C 0.74421 0.76177 0.34684 0.0
H488 H 0.69792 0.78252 0.22588 0.0
C489 C 0.7427 0.78981 0.38991 0.0
H490 H 0.72852 0.73873 0.25332 0.0
C491 C 0.72529 0.81543 0.37386 0.0
C492 C 0.70852 0.81285 0.31477 0.0
H493 H 0.75487 0.79183 0.4359 0.0
H494 H 0.72366 0.8361 0.40816 0.0
C495 C 0.71065 0.7853 0.27173 0.0
C496 C 0.97871 0.73274 0.44962 0.0
C497 C 0.99166 0.74406 0.51081 0.0
H498 H 0.92705 0.70613 0.38572 0.0
C499 C 0.96111 0.7393 0.55461 0.0
H500 H 1.00127 0.73559 0.41487 0.0
C501 C 0.91839 0.7228 0.53764 0.0
C502 C 0.90543 0.71012 0.47678 0.0
H503 H 0.97023 0.74808 0.60198 0.0
H504 H 0.8953 0.71842 0.57252 0.0
C505 C 0.93611 0.7157 0.43294 0.0
C506 C 0.27409 0.95427 0.70402 0.0
C507 C 0.25525 0.9798 0.70139 0.0
H508 H 0.26716 0.89321 0.68576 0.0
C509 C 0.21286 0.96189 0.68138 0.0
H510 H 0.3068 0.96754 0.7189 0.0
C511 C 0.18978 0.91909 0.66377 0.0
C512 C 0.20936 0.89418 0.66401 0.0
H513 H 0.19778 0.98113 0.67921 0.0
H514 H 0.15727 0.90591 0.648 0.0
C515 C 0.25155 0.912 0.68468 0.0
C516 C 0.82582 0.72558 0.96328 0.0
C517 C 0.82333 0.70901 0.02252 0.0
H518 H 0.80064 0.75281 0.89981 0.0
C519 C 0.79416 0.70923 0.06449 0.0
H520 H 0.84772 0.72541 0.92973 0.0
C521 C 0.76747 0.72488 0.04748 0.0
C522 C 0.76889 0.74032 0.98779 0.0
H523 H 0.79136 0.69655 0.11038 0.0
H524 H 0.74472 0.72357 0.08069 0.0
C525 C 0.79859 0.7408 0.94593 0.0
C526 C 0.05955 0.79536 0.11422 0.0
C527 C 0.02761 0.77521 0.15927 0.0
H528 H 0.12582 0.83705 0.09534 0.0
C529 C 0.03883 0.78705 0.22103 0.0
H530 H 0.05282 0.78761 0.06619 0.0
C531 C 0.08105 0.81516 0.23759 0.0
C532 C 0.11311 0.83294 0.19289 0.0
H533 H 0.01554 0.77346 0.25732 0.0
H534 H 0.08887 0.82172 0.28581 0.0
C535 C 0.10172 0.82405 0.13085 0.0
C536 C 0.28373 0.06061 0.27193 0.0
C537 C 0.27115 0.02931 0.31817 0.0
H538 H 0.30978 0.12698 0.25098 0.0
C539 C 0.27116 0.04163 0.37943 0.0
H540 H 0.28424 0.05278 0.22425 0.0
C541 C 0.28648 0.08417 0.39453 0.0
C542 C 0.30109 0.11551 0.34878 0.0
H543 H 0.26055 0.01875 0.41645 0.0
H544 H 0.28801 0.09277 0.44243 0.0
C545 C 0.29828 0.10327 0.28712 0.0
C546 C 0.25512 0.28795 0.54551 0.0
C547 C 0.2526 0.27053 0.48705 0.0
H548 H 0.23186 0.31756 0.60665 0.0
C549 C 0.22143 0.26777 0.44579 0.0
H550 H 0.27898 0.29112 0.57825 0.0
C551 C 0.19397 0.28282 0.46242 0.0
C552 C 0.19763 0.30144 0.52029 0.0
H553 H 0.21846 0.2542 0.40064 0.0
H554 H 0.17097 0.28128 0.42926 0.0
C555 C 0.22816 0.30333 0.56178 0.0
C556 C 0.9635 0.2089 0.62042 0.0
C557 C 0.99207 0.23943 0.66232 0.0
H558 H 0.89877 0.16146 0.60097 0.0
C559 C 0.97675 0.24174 0.72058 0.0
H560 H 0.97417 0.20556 0.57555 0.0
C561 C 0.93374 0.21638 0.73508 0.0
C562 C 0.90481 0.18784 0.69191 0.0
H563 H 0.99738 0.26478 0.75413 0.0
H564 H 0.9229 0.22037 0.77954 0.0
C565 C 0.92029 0.1833 0.63511 0.0
C566 C 0.74362 0.95127 0.77432 0.0
C567 C 0.74303 0.98023 0.81658 0.0
H568 H 0.72763 0.88663 0.75709 0.0
C569 C 0.72666 0.96563 0.87564 0.0
H570 H 0.75632 0.96165 0.72865 0.0
C571 C 0.71046 0.92314 0.89179 0.0
C572 C 0.71039 0.89401 0.84953 0.0
H573 H 0.72513 0.98677 0.90912 0.0
H574 H 0.69727 0.91295 0.93733 0.0
C575 C 0.72769 0.90852 0.79081 0.0
C576 C 0.35195 0.37358 0.14896 0.0
C577 C 0.31139 0.34723 0.12386 0.0
H578 H 0.4005 0.37914 0.20979 0.0
C579 C 0.28778 0.30466 0.14346 0.0
H580 H 0.37109 0.40647 0.13473 0.0
C581 C 0.30463 0.28901 0.1879 0.0
C582 C 0.3456 0.31554 0.21194 0.0
H583 H 0.25634 0.28376 0.12498 0.0
H584 H 0.28617 0.25611 0.20234 0.0
C585 C 0.36892 0.35788 0.19197 0.0
C586 C 0.94704 0.29875 0.35558 0.0
C587 C 0.96126 0.29151 0.29955 0.0
H588 H 0.95939 0.31291 0.45057 0.0
C589 C 0.99928 0.29025 0.29791 0.0
H590 H 0.91731 0.29892 0.3584 0.0
C591 C 0.02397 0.29873 0.35129 0.0
C592 C 0.01046 0.30788 0.40688 0.0
H593 H 0.01066 0.28445 0.25514 0.0
H594 H 0.05404 0.29929 0.34862 0.0
C595 C 0.97114 0.30655 0.40859 0.0
C596 C 0.64753 0.98914 0.47649 0.0
C597 C 0.67132 0.97144 0.45363 0.0
H598 H 0.64589 0.03527 0.53479 0.0
C599 C 0.71339 0.98744 0.47417 0.0
H600 H 0.6151 0.97763 0.46145 0.0
C601 C 0.73103 0.02042 0.51763 0.0
C602 C 0.70706 0.0383 0.53961 0.0
H603 H 0.73228 0.97408 0.45742 0.0
H604 H 0.76343 0.03241 0.53311 0.0
C605 C 0.66526 0.02232 0.51846 0.0
C606 C 0.66821 0.64041 0.64674 0.0
C607 C 0.70911 0.66636 0.62253 0.0
H608 H 0.61962 0.63527 0.70679 0.0
C609 C 0.73323 0.7087 0.64277 0.0
H610 H 0.6487 0.60771 0.63199 0.0
C611 C 0.71658 0.72449 0.68708 0.0
C612 C 0.6753 0.69835 0.71029 0.0
H613 H 0.76495 0.72927 0.62498 0.0
H614 H 0.73546 0.75718 0.70214 0.0
C615 C 0.65145 0.65626 0.68959 0.0
C616 C 0.0717 0.71024 0.85706 0.0
C617 C 0.05673 0.7166 0.80093 0.0
H618 H 0.06052 0.69747 0.95261 0.0
C619 C 0.01878 0.71797 0.79957 0.0
H620 H 0.10142 0.70999 0.85956 0.0
C621 C 0.99479 0.71031 0.8534 0.0
C622 C 1.00896 0.7019 0.90914 0.0
H623 H 1.00685 0.7231 0.75671 0.0
H624 H 0.96471 0.70974 0.85097 0.0
C625 C 0.0483 0.70328 0.91054 0.0
C626 C 0.36027 1.00066 0.03774 0.0
C627 C 0.31696 0.98028 0.05286 0.0
H628 H 0.41104 0.04906 0.98566 0.0
C629 C 0.291 0.99449 0.02617 0.0
H630 H 0.38103 0.99046 0.0579 0.0
C631 C 0.30817 0.02795 0.98337 0.0
C632 C 0.35163 0.04811 0.96821 0.0
H633 H 0.2574 0.97901 0.037 0.0
H634 H 0.28763 0.03808 0.96237 0.0
C635 C 0.37747 0.03437 0.99643 0.0
C636 C 0.47479 0.57808 0.86324 0.0
C637 C 0.50477 0.5878 0.91009 0.0
H638 H 0.4136 0.53338 0.82746 0.0
C639 C 0.4959 0.55866 0.95779 0.0
H640 H 0.48136 0.60023 0.82583 0.0
C641 C 0.4568 0.52064 0.95953 0.0
C642 C 0.42607 0.51098 0.91322 0.0
H643 H 0.51871 0.56581 0.99442 0.0
H644 H 0.45018 0.49953 0.99828 0.0
C645 C 0.43595 0.53995 0.86451 0.0
C646 C 0.93732 0.44942 0.1158 0.0
C647 C 0.92019 0.41855 0.06918 0.0
H648 H 0.9509 0.511 0.1466 0.0
C649 C 0.90445 0.42763 0.01576 0.0
H650 H 0.94926 0.44326 0.15786 0.0
C651 C 0.90503 0.46622 0.00961 0.0
C652 C 0.92136 0.49678 0.05671 0.0
H653 H 0.89137 0.40475 0.97877 0.0
H654 H 0.89162 0.47161 0.96846 0.0
C655 C 0.93779 0.48804 0.1097 0.0
C656 C 0.49032 0.93491 0.28136 0.0
C657 C 0.50037 0.91169 0.23946 0.0
H658 H 0.4441 0.95151 0.31127 0.0
C659 C 0.47086 0.88878 0.19276 0.0
H660 H 0.51175 0.95247 0.31853 0.0
C661 C 0.43172 0.88739 0.18991 0.0
C662 C 0.42144 0.90961 0.23275 0.0
H663 H 0.47765 0.87146 0.15853 0.0
H664 H 0.40931 0.86876 0.15421 0.0
C665 C 0.45142 0.93418 0.27765 0.0
C666 C 0.54892 0.43217 0.36332 0.0
C667 C 0.51765 0.42285 0.4079 0.0
H668 H 0.61045 0.47695 0.32907 0.0
C669 C 0.52487 0.45292 0.45336 0.0
H670 H 0.54363 0.40943 0.32744 0.0
C671 C 0.56366 0.49129 0.45552 0.0
C672 C 0.59569 0.50059 0.41154 0.0
H673 H 0.50106 0.44618 0.48822 0.0
H674 H 0.56896 0.51294 0.49294 0.0
C675 C 0.58731 0.47076 0.36467 0.0
C676 C 0.11241 0.57975 0.51499 0.0
C677 C 0.09599 0.58814 0.56808 0.0
H678 H 0.12675 0.53692 0.46813 0.0
C679 C 0.07874 0.5569 0.61433 0.0
H680 H 0.12557 0.6029 0.47823 0.0
C681 C 0.07889 0.51861 0.60821 0.0
C682 C 0.09619 0.51067 0.55565 0.0
H683 H 0.06628 0.56253 0.65617 0.0
H684 H 0.06562 0.49532 0.64478 0.0
C685 C 0.11263 0.54161 0.50893 0.0
C686 C 0.59738 0.13962 0.74181 0.0
C687 C 0.59837 0.1014 0.74474 0.0
H688 H 0.56012 0.16993 0.7446 0.0
C689 C 0.55937 0.06297 0.74944 0.0
H690 H 0.62634 0.16994 0.73666 0.0
C691 C 0.52074 0.06283 0.75086 0.0
C692 C 0.51989 0.10118 0.74914 0.0
H693 H 0.55839 0.03276 0.75258 0.0
H694 H 0.49161 0.03245 0.75326 0.0
C695 C 0.55891 0.13955 0.74476 0.0
loop_
_geom_bond_atom_site_label_1
_geom_bond_atom_site_label_2
_geom_bond_distance
_geom_bond_site_symmetry_2
_ccdc_geom_bond_type
C0 C1 1.351 . S
C0 N3 1.368 . S
C0 H5 0.931 . S
C1 C0 1.351 . S
C1 N2 1.373 . S
C1 H29 0.930 . S
N2 C1 1.373 . S
N2 C4 1.340 . S
N3 C0 1.368 . S
N3 C4 1.321 . S
N3 Co6 2.135 1_556 S
C4 N2 1.340 . S
C4 N3 1.321 . S
C4 H28 0.930 . S
H5 C0 0.931 . S
Co6 N3 2.135 1_554 S
Co6 N9 2.121 . S
Co6 O14 2.055 . S
Co6 O17 2.039 . S
Co6 N20 2.140 1_554 S
C7 O8 1.227 . S
C7 O17 1.265 . S
O8 C7 1.227 . S
N9 Co6 2.121 . S
N9 C11 1.375 . S
N9 C12 1.313 . S
C10 C11 1.338 . S
C10 N13 1.377 . S
C10 H30 0.930 . S
C11 N9 1.375 . S
C11 C10 1.338 . S
C11 H15 0.931 . S
C12 N9 1.313 . S
C12 N13 1.344 . S
C12 H16 0.930 . S
N13 C10 1.377 . S
N13 C12 1.344 . S
O14 Co6 2.055 . S
O14 C18 1.253 1_554 S
H15 C11 0.931 . S
H16 C12 0.930 . S
O17 Co6 2.039 . S
O17 C7 1.265 . S
C18 O14 1.253 1_556 S
C18 O19 1.227 . S
O19 C18 1.227 . S
N20 Co6 2.140 1_556 S
N20 C23 1.346 . S
N20 C24 1.345 . S
C21 C22 1.387 . S
C21 C25 1.391 . S
C22 C21 1.387 . S
C22 C23 1.369 . S
C22 H31 0.929 . S
C23 N20 1.346 . S
C23 C22 1.369 . S
C23 H26 0.928 . S
C24 N20 1.345 . S
C24 C25 1.371 . S
C24 H27 0.931 . S
C25 C21 1.391 . S
C25 C24 1.371 . S
C25 H32 0.930 . S
H26 C23 0.928 . S
H27 C24 0.931 . S
H28 C4 0.930 . S
H29 C1 0.930 . S
H30 C10 0.930 . S
H31 C22 0.929 . S
H32 C25 0.930 . S
C33 C34 1.351 1_554 S
C33 N36 1.368 . S
C33 H38 0.931 . S
C34 C33 1.351 1_556 S
C34 N35 1.373 1_556 S
C34 H62 0.930 . S
N35 C34 1.373 1_554 S
N35 C37 1.340 . S
N36 C33 1.368 . S
N36 C37 1.321 . S
N36 Co39 2.135 . S
C37 N35 1.340 . S
C37 N36 1.321 . S
C37 H61 0.930 . S
H38 C33 0.931 . S
Co39 N36 2.135 . S
Co39 N42 2.121 . S
Co39 O47 2.055 . S
Co39 O50 2.039 . S
Co39 N53 2.140 . S
C40 O41 1.227 . S
C40 O50 1.265 . S
O41 C40 1.227 . S
N42 Co39 2.121 . S
N42 C44 1.375 . S
N42 C45 1.313 . S
C43 C44 1.338 . S
C43 N46 1.377 . S
C43 H63 0.930 . S
C44 N42 1.375 . S
C44 C43 1.338 . S
C44 H48 0.931 . S
C45 N42 1.313 . S
C45 N46 1.344 . S
C45 H49 0.930 . S
N46 C43 1.377 . S
N46 C45 1.344 . S
O47 Co39 2.055 . S
O47 C51 1.253 . S
H48 C44 0.931 . S
H49 C45 0.930 . S
O50 Co39 2.039 . S
O50 C40 1.265 . S
C51 O47 1.253 . S
C51 O52 1.227 . S
O52 C51 1.227 . S
N53 Co39 2.140 . S
N53 C56 1.346 . S
N53 C57 1.345 . S
C54 C55 1.387 . S
C54 C58 1.391 . S
C55 C54 1.387 . S
C55 C56 1.369 . S
C55 H64 0.929 . S
C56 N53 1.346 . S
C56 C55 1.369 . S
C56 H59 0.928 . S
C57 N53 1.345 . S
C57 C58 1.371 . S
C57 H60 0.931 . S
C58 C54 1.391 . S
C58 C57 1.371 . S
C58 H65 0.930 . S
H59 C56 0.928 . S
H60 C57 0.931 . S
H61 C37 0.930 . S
H62 C34 0.930 . S
H63 C43 0.930 . S
H64 C55 0.929 . S
H65 C58 0.930 . S
C66 C67 1.351 . S
C66 N69 1.368 . S
C66 H71 0.931 . S
C67 C66 1.351 . S
C67 N68 1.373 . S
C67 H95 0.930 . S
N68 C67 1.373 . S
N68 C70 1.340 . S
N69 C66 1.368 . S
N69 C70 1.321 . S
N69 Co72 2.135 . S
C70 N68 1.340 . S
C70 N69 1.321 . S
C70 H94 0.930 . S
H71 C66 0.931 . S
Co72 N69 2.135 . S
Co72 N75 2.121 . S
Co72 O80 2.055 . S
Co72 O83 2.039 . S
Co72 N86 2.140 . S
C73 O74 1.227 . S
C73 O83 1.265 . S
O74 C73 1.227 . S
N75 Co72 2.121 . S
N75 C77 1.375 . S
N75 C78 1.313 . S
C76 C77 1.338 . S
C76 N79 1.377 . S
C76 H96 0.930 . S
C77 N75 1.375 . S
C77 C76 1.338 . S
C77 H81 0.931 . S
C78 N75 1.313 . S
C78 N79 1.344 . S
C78 H82 0.930 . S
N79 C76 1.377 . S
N79 C78 1.344 . S
O80 Co72 2.055 . S
O80 C84 1.253 . S
H81 C77 0.931 . S
H82 C78 0.930 . S
O83 Co72 2.039 . S
O83 C73 1.265 . S
C84 O80 1.253 . S
C84 O85 1.227 . S
O85 C84 1.227 . S
N86 Co72 2.140 . S
N86 C89 1.346 . S
N86 C90 1.345 . S
C87 C88 1.387 . S
C87 C91 1.391 . S
C88 C87 1.387 . S
C88 C89 1.369 . S
C88 H97 0.929 . S
C89 N86 1.346 . S
C89 C88 1.369 . S
C89 H92 0.928 . S
C90 N86 1.345 . S
C90 C91 1.371 . S
C90 H93 0.931 . S
C91 C87 1.391 . S
C91 C90 1.371 . S
C91 H98 0.930 . S
H92 C89 0.928 . S
H93 C90 0.931 . S
H94 C70 0.930 . S
H95 C67 0.930 . S
H96 C76 0.930 . S
H97 C88 0.929 . S
H98 C91 0.930 . S
C99 C100 1.351 . S
C99 N102 1.368 . S
C99 H104 0.931 . S
C100 C99 1.351 . S
C100 N101 1.373 . S
C100 H128 0.930 . S
N101 C100 1.373 . S
N101 C103 1.340 . S
N102 C99 1.368 . S
N102 C103 1.321 . S
N102 Co105 2.135 . S
C103 N101 1.340 . S
C103 N102 1.321 . S
C103 H127 0.930 . S
H104 C99 0.931 . S
Co105 N102 2.135 . S
Co105 N108 2.121 . S
Co105 O113 2.055 . S
Co105 O116 2.039 . S
Co105 N119 2.140 . S
C106 O107 1.227 . S
C106 O116 1.265 . S
O107 C106 1.227 . S
N108 Co105 2.121 . S
N108 C110 1.375 . S
N108 C111 1.313 . S
C109 C110 1.338 . S
C109 N112 1.377 . S
C109 H129 0.930 . S
C110 N108 1.375 . S
C110 C109 1.338 . S
C110 H114 0.931 . S
C111 N108 1.313 . S
C111 N112 1.344 . S
C111 H115 0.930 . S
N112 C109 1.377 . S
N112 C111 1.344 . S
O113 Co105 2.055 . S
O113 C117 1.253 . S
H114 C110 0.931 . S
H115 C111 0.930 . S
O116 Co105 2.039 . S
O116 C106 1.265 . S
C117 O113 1.253 . S
C117 O118 1.227 . S
O118 C117 1.227 . S
N119 Co105 2.140 . S
N119 C122 1.346 . S
N119 C123 1.345 . S
C120 C121 1.387 . S
C120 C124 1.391 . S
C121 C120 1.387 . S
C121 C122 1.369 . S
C121 H130 0.929 . S
C122 N119 1.346 . S
C122 C121 1.369 . S
C122 H125 0.928 . S
C123 N119 1.345 . S
C123 C124 1.371 . S
C123 H126 0.931 . S
C124 C120 1.391 . S
C124 C123 1.371 . S
C124 H131 0.930 . S
H125 C122 0.928 . S
H126 C123 0.931 . S
H127 C103 0.930 . S
H128 C100 0.930 . S
H129 C109 0.930 . S
H130 C121 0.929 . S
H131 C124 0.930 . S
C132 C133 1.351 . S
C132 N135 1.368 . S
C132 H137 0.931 . S
C133 C132 1.351 . S
C133 N134 1.373 . S
C133 H161 0.930 . S
N134 C133 1.373 . S
N134 C136 1.340 . S
N135 C132 1.368 . S
N135 C136 1.321 . S
N135 Co138 2.135 . S
C136 N134 1.340 . S
C136 N135 1.321 . S
C136 H160 0.930 . S
H137 C132 0.931 . S
Co138 N135 2.135 . S
Co138 N141 2.121 . S
Co138 O146 2.055 . S
Co138 O149 2.039 . S
Co138 N152 2.140 . S
C139 O140 1.227 . S
C139 O149 1.265 . S
O140 C139 1.227 . S
N141 Co138 2.121 . S
N141 C143 1.375 . S
N141 C144 1.313 . S
C142 C143 1.338 . S
C142 N145 1.377 . S
C142 H162 0.930 . S
C143 N141 1.375 . S
C143 C142 1.338 . S
C143 H147 0.931 . S
C144 N141 1.313 . S
C144 N145 1.344 . S
C144 H148 0.930 . S
N145 C142 1.377 . S
N145 C144 1.344 . S
O146 Co138 2.055 . S
O146 C150 1.253 . S
H147 C143 0.931 . S
H148 C144 0.930 . S
O149 Co138 2.039 . S
O149 C139 1.265 . S
C150 O146 1.253 . S
C150 O151 1.227 . S
O151 C150 1.227 . S
N152 Co138 2.140 . S
N152 C155 1.346 . S
N152 C156 1.345 . S
C153 C154 1.387 . S
C153 C157 1.391 . S
C154 C153 1.387 . S
C154 C155 1.369 . S
C154 H163 0.929 . S
C155 N152 1.346 . S
C155 C154 1.369 . S
C155 H158 0.928 . S
C156 N152 1.345 . S
C156 C157 1.371 . S
C156 H159 0.931 . S
C157 C153 1.391 . S
C157 C156 1.371 . S
C157 H164 0.930 . S
H158 C155 0.928 . S
H159 C156 0.931 . S
H160 C136 0.930 . S
H161 C133 0.930 . S
H162 C142 0.930 . S
H163 C154 0.929 . S
H164 C157 0.930 . S
C165 C166 1.351 . S
C165 N168 1.368 . S
C165 H170 0.931 . S
C166 C165 1.351 . S
C166 N167 1.373 . S
C166 H194 0.930 . S
N167 C166 1.373 . S
N167 C169 1.340 . S
N168 C165 1.368 . S
N168 C169 1.321 . S
N168 Co171 2.135 . S
C169 N167 1.340 . S
C169 N168 1.321 . S
C169 H193 0.930 . S
H170 C165 0.931 . S
Co171 N168 2.135 . S
Co171 N174 2.121 . S
Co171 O179 2.055 . S
Co171 O182 2.039 . S
Co171 N185 2.140 . S
C172 O173 1.227 . S
C172 O182 1.265 . S
O173 C172 1.227 . S
N174 Co171 2.121 . S
N174 C176 1.375 . S
N174 C177 1.313 . S
C175 C176 1.338 . S
C175 N178 1.377 . S
C175 H195 0.930 1_556 S
C176 N174 1.375 . S
C176 C175 1.338 . S
C176 H180 0.931 . S
C177 N174 1.313 . S
C177 N178 1.344 . S
C177 H181 0.930 . S
N178 C175 1.377 . S
N178 C177 1.344 . S
O179 Co171 2.055 . S
O179 C183 1.253 . S
H180 C176 0.931 . S
H181 C177 0.930 . S
O182 Co171 2.039 . S
O182 C172 1.265 . S
C183 O179 1.253 . S
C183 O184 1.227 . S
O184 C183 1.227 . S
N185 Co171 2.140 . S
N185 C188 1.346 . S
N185 C189 1.345 . S
C186 C187 1.387 . S
C186 C190 1.391 . S
C187 C186 1.387 . S
C187 C188 1.369 . S
C187 H196 0.929 . S
C188 N185 1.346 . S
C188 C187 1.369 . S
C188 H191 0.928 . S
C189 N185 1.345 . S
C189 C190 1.371 . S
C189 H192 0.931 . S
C190 C186 1.391 . S
C190 C189 1.371 . S
C190 H197 0.930 . S
H191 C188 0.928 . S
H192 C189 0.931 . S
H193 C169 0.930 . S
H194 C166 0.930 . S
H195 C175 0.930 1_554 S
H196 C187 0.929 . S
H197 C190 0.930 . S
C198 C199 1.351 1_556 S
C198 N201 1.368 . S
C198 H203 0.931 . S
C199 C198 1.351 1_554 S
C199 N200 1.373 1_554 S
C199 H227 0.930 . S
N200 C199 1.373 1_556 S
N200 C202 1.340 . S
N201 C198 1.368 . S
N201 C202 1.321 . S
N201 Co204 2.135 . S
C202 N200 1.340 . S
C202 N201 1.321 . S
C202 H226 0.930 . S
H203 C198 0.931 . S
Co204 N201 2.135 . S
Co204 N207 2.121 . S
Co204 O212 2.055 . S
Co204 O215 2.039 . S
Co204 N218 2.140 . S
C205 O206 1.227 . S
C205 O215 1.265 . S
O206 C205 1.227 . S
N207 Co204 2.121 . S
N207 C209 1.375 . S
N207 C210 1.313 . S
C208 C209 1.338 . S
C208 N211 1.377 . S
C208 H228 0.930 . S
C209 N207 1.375 . S
C209 C208 1.338 . S
C209 H213 0.931 . S
C210 N207 1.313 . S
C210 N211 1.344 . S
C210 H214 0.930 . S
N211 C208 1.377 . S
N211 C210 1.344 . S
O212 Co204 2.055 . S
O212 C216 1.253 . S
H213 C209 0.931 . S
H214 C210 0.930 . S
O215 Co204 2.039 . S
O215 C205 1.265 . S
C216 O212 1.253 . S
C216 O217 1.227 . S
O217 C216 1.227 . S
N218 Co204 2.140 . S
N218 C221 1.346 . S
N218 C222 1.345 . S
C219 C220 1.387 . S
C219 C223 1.391 . S
C220 C219 1.387 . S
C220 C221 1.369 . S
C220 H229 0.929 . S
C221 N218 1.346 . S
C221 C220 1.369 . S
C221 H224 0.928 . S
C222 N218 1.345 . S
C222 C223 1.371 . S
C222 H225 0.931 . S
C223 C219 1.391 . S
C223 C222 1.371 . S
C223 H230 0.930 . S
H224 C221 0.928 . S
H225 C222 0.931 . S
H226 C202 0.930 . S
H227 C199 0.930 . S
H228 C208 0.930 . S
H229 C220 0.929 . S
H230 C223 0.930 . S
C231 C232 1.351 . S
C231 N234 1.368 . S
C231 H236 0.931 . S
C232 C231 1.351 . S
C232 N233 1.373 . S
C232 H260 0.930 . S
N233 C232 1.373 . S
N233 C235 1.340 . S
N234 C231 1.368 . S
N234 C235 1.321 . S
N234 Co237 2.135 1_554 S
C235 N233 1.340 . S
C235 N234 1.321 . S
C235 H259 0.930 . S
H236 C231 0.931 . S
Co237 N234 2.135 1_556 S
Co237 N240 2.121 . S
Co237 O245 2.055 . S
Co237 O248 2.039 . S
Co237 N251 2.140 1_556 S
C238 O239 1.227 . S
C238 O248 1.265 . S
O239 C238 1.227 . S
N240 Co237 2.121 . S
N240 C242 1.375 . S
N240 C243 1.313 . S
C241 C242 1.338 . S
C241 N244 1.377 . S
C241 H261 0.930 . S
C242 N240 1.375 . S
C242 C241 1.338 . S
C242 H246 0.931 . S
C243 N240 1.313 . S
C243 N244 1.344 . S
C243 H247 0.930 . S
N244 C241 1.377 . S
N244 C243 1.344 . S
O245 Co237 2.055 . S
O245 C249 1.253 1_556 S
H246 C242 0.931 . S
H247 C243 0.930 . S
O248 Co237 2.039 . S
O248 C238 1.265 . S
C249 O245 1.253 1_554 S
C249 O250 1.227 . S
O250 C249 1.227 . S
N251 Co237 2.140 1_554 S
N251 C254 1.346 . S
N251 C255 1.345 . S
C252 C253 1.387 . S
C252 C256 1.391 . S
C253 C252 1.387 . S
C253 C254 1.369 . S
C253 H262 0.929 . S
C254 N251 1.346 . S
C254 C253 1.369 . S
C254 H257 0.928 . S
C255 N251 1.345 . S
C255 C256 1.371 . S
C255 H258 0.931 . S
C256 C252 1.391 . S
C256 C255 1.371 . S
C256 H263 0.930 . S
H257 C254 0.928 . S
H258 C255 0.931 . S
H259 C235 0.930 . S
H260 C232 0.930 . S
H261 C241 0.930 . S
H262 C253 0.929 . S
H263 C256 0.930 . S
C264 C265 1.351 . S
C264 N267 1.368 . S
C264 H269 0.931 . S
C265 C264 1.351 . S
C265 N266 1.373 . S
C265 H293 0.930 . S
N266 C265 1.373 . S
N266 C268 1.340 . S
N267 C264 1.368 . S
N267 C268 1.321 . S
N267 Co270 2.135 . S
C268 N266 1.340 . S
C268 N267 1.321 . S
C268 H292 0.930 . S
H269 C264 0.931 . S
Co270 N267 2.135 . S
Co270 N273 2.121 . S
Co270 O278 2.055 . S
Co270 O281 2.039 . S
Co270 N284 2.140 . S
C271 O272 1.227 . S
C271 O281 1.265 . S
O272 C271 1.227 . S
N273 Co270 2.121 . S
N273 C275 1.375 . S
N273 C276 1.313 . S
C274 C275 1.338 . S
C274 N277 1.377 . S
C274 H294 0.930 1_554 S
C275 N273 1.375 . S
C275 C274 1.338 . S
C275 H279 0.931 . S
C276 N273 1.313 . S
C276 N277 1.344 . S
C276 H280 0.930 . S
N277 C274 1.377 . S
N277 C276 1.344 . S
O278 Co270 2.055 . S
O278 C282 1.253 . S
H279 C275 0.931 . S
H280 C276 0.930 . S
O281 Co270 2.039 . S
O281 C271 1.265 . S
C282 O278 1.253 . S
C282 O283 1.227 . S
O283 C282 1.227 . S
N284 Co270 2.140 . S
N284 C287 1.346 . S
N284 C288 1.345 . S
C285 C286 1.387 . S
C285 C289 1.391 . S
C286 C285 1.387 . S
C286 C287 1.369 . S
C286 H295 0.929 . S
C287 N284 1.346 . S
C287 C286 1.369 . S
C287 H290 0.928 . S
C288 N284 1.345 . S
C288 C289 1.371 . S
C288 H291 0.931 . S
C289 C285 1.391 . S
C289 C288 1.371 . S
C289 H296 0.930 . S
H290 C287 0.928 . S
H291 C288 0.931 . S
H292 C268 0.930 . S
H293 C265 0.930 . S
H294 C274 0.930 1_556 S
H295 C286 0.929 . S
H296 C289 0.930 . S
C297 C298 1.351 . S
C297 N300 1.368 . S
C297 H302 0.931 . S
C298 C297 1.351 . S
C298 N299 1.373 . S
C298 H326 0.930 . S
N299 C298 1.373 . S
N299 C301 1.340 . S
N300 C297 1.368 . S
N300 C301 1.321 . S
N300 Co303 2.135 . S
C301 N299 1.340 . S
C301 N300 1.321 . S
C301 H325 0.930 . S
H302 C297 0.931 . S
Co303 N300 2.135 . S
Co303 N306 2.121 . S
Co303 O311 2.055 . S
Co303 O314 2.039 . S
Co303 N317 2.140 . S
C304 O305 1.227 . S
C304 O314 1.265 . S
O305 C304 1.227 . S
N306 Co303 2.121 . S
N306 C308 1.375 . S
N306 C309 1.313 . S
C307 C308 1.338 . S
C307 N310 1.377 . S
C307 H327 0.930 . S
C308 N306 1.375 . S
C308 C307 1.338 . S
C308 H312 0.931 . S
C309 N306 1.313 . S
C309 N310 1.344 . S
C309 H313 0.930 . S
N310 C307 1.377 . S
N310 C309 1.344 . S
O311 Co303 2.055 . S
O311 C315 1.253 . S
H312 C308 0.931 . S
H313 C309 0.930 . S
O314 Co303 2.039 . S
O314 C304 1.265 . S
C315 O311 1.253 . S
C315 O316 1.227 . S
O316 C315 1.227 . S
N317 Co303 2.140 . S
N317 C320 1.346 . S
N317 C321 1.345 . S
C318 C319 1.387 . S
C318 C322 1.391 . S
C319 C318 1.387 . S
C319 C320 1.369 . S
C319 H328 0.929 . S
C320 N317 1.346 . S
C320 C319 1.369 . S
C320 H323 0.928 . S
C321 N317 1.345 . S
C321 C322 1.371 . S
C321 H324 0.931 . S
C322 C318 1.391 . S
C322 C321 1.371 . S
C322 H329 0.930 . S
H323 C320 0.928 . S
H324 C321 0.931 . S
H325 C301 0.930 . S
H326 C298 0.930 . S
H327 C307 0.930 . S
H328 C319 0.929 . S
H329 C322 0.930 . S
C330 C331 1.351 . S
C330 N333 1.368 . S
C330 H335 0.931 . S
C331 C330 1.351 . S
C331 N332 1.373 . S
C331 H359 0.930 . S
N332 C331 1.373 . S
N332 C334 1.340 . S
N333 C330 1.368 . S
N333 C334 1.321 . S
N333 Co336 2.135 . S
C334 N332 1.340 . S
C334 N333 1.321 . S
C334 H358 0.930 . S
H335 C330 0.931 . S
Co336 N333 2.135 . S
Co336 N339 2.121 . S
Co336 O344 2.055 . S
Co336 O347 2.039 . S
Co336 N350 2.140 . S
C337 O338 1.227 . S
C337 O347 1.265 . S
O338 C337 1.227 . S
N339 Co336 2.121 . S
N339 C341 1.375 . S
N339 C342 1.313 . S
C340 C341 1.338 . S
C340 N343 1.377 . S
C340 H360 0.930 . S
C341 N339 1.375 . S
C341 C340 1.338 . S
C341 H345 0.931 . S
C342 N339 1.313 . S
C342 N343 1.344 . S
C342 H346 0.930 . S
N343 C340 1.377 . S
N343 C342 1.344 . S
O344 Co336 2.055 . S
O344 C348 1.253 . S
H345 C341 0.931 . S
H346 C342 0.930 . S
O347 Co336 2.039 . S
O347 C337 1.265 . S
C348 O344 1.253 . S
C348 O349 1.227 . S
O349 C348 1.227 . S
N350 Co336 2.140 . S
N350 C353 1.346 . S
N350 C354 1.345 . S
C351 C352 1.387 . S
C351 C355 1.391 . S
C352 C351 1.387 . S
C352 C353 1.369 . S
C352 H361 0.929 . S
C353 N350 1.346 . S
C353 C352 1.369 . S
C353 H356 0.928 . S
C354 N350 1.345 . S
C354 C355 1.371 . S
C354 H357 0.931 . S
C355 C351 1.391 . S
C355 C354 1.371 . S
C355 H362 0.930 . S
H356 C353 0.928 . S
H357 C354 0.931 . S
H358 C334 0.930 . S
H359 C331 0.930 . S
H360 C340 0.930 . S
H361 C352 0.929 . S
H362 C355 0.930 . S
C363 C364 1.351 . S
C363 N366 1.368 . S
C363 H368 0.931 . S
C364 C363 1.351 . S
C364 N365 1.373 . S
C364 H392 0.930 . S
N365 C364 1.373 . S
N365 C367 1.340 . S
N366 C363 1.368 . S
N366 C367 1.321 . S
N366 Co369 2.135 . S
C367 N365 1.340 . S
C367 N366 1.321 . S
C367 H391 0.930 . S
H368 C363 0.931 . S
Co369 N366 2.135 . S
Co369 N372 2.121 . S
Co369 O377 2.055 . S
Co369 O380 2.039 . S
Co369 N383 2.140 . S
C370 O371 1.227 . S
C370 O380 1.265 . S
O371 C370 1.227 . S
N372 Co369 2.121 . S
N372 C374 1.375 . S
N372 C375 1.313 . S
C373 C374 1.338 . S
C373 N376 1.377 . S
C373 H393 0.930 . S
C374 N372 1.375 . S
C374 C373 1.338 . S
C374 H378 0.931 . S
C375 N372 1.313 . S
C375 N376 1.344 . S
C375 H379 0.930 . S
N376 C373 1.377 . S
N376 C375 1.344 . S
O377 Co369 2.055 . S
O377 C381 1.253 . S
H378 C374 0.931 . S
H379 C375 0.930 . S
O380 Co369 2.039 . S
O380 C370 1.265 . S
C381 O377 1.253 . S
C381 O382 1.227 . S
O382 C381 1.227 . S
N383 Co369 2.140 . S
N383 C386 1.346 . S
N383 C387 1.345 . S
C384 C385 1.387 . S
C384 C388 1.391 . S
C385 C384 1.387 . S
C385 C386 1.369 . S
C385 H394 0.929 . S
C386 N383 1.346 . S
C386 C385 1.369 . S
C386 H389 0.928 . S
C387 N383 1.345 . S
C387 C388 1.371 . S
C387 H390 0.931 . S
C388 C384 1.391 . S
C388 C387 1.371 . S
C388 H395 0.930 . S
H389 C386 0.928 . S
H390 C387 0.931 . S
H391 C367 0.930 . S
H392 C364 0.930 . S
H393 C373 0.930 . S
H394 C385 0.929 . S
H395 C388 0.930 . S
C396 C397 1.387 . S
C396 H400 0.950 . S
C396 C405 1.390 . S
C397 C396 1.387 . S
C397 C399 1.387 . S
H398 C405 0.950 . S
C399 C397 1.387 . S
C399 C401 1.390 . S
C399 H403 0.950 . S
H400 C396 0.950 . S
C401 C399 1.390 . S
C401 C402 1.387 . S
C401 H404 0.950 . S
C402 C401 1.387 . S
C402 C405 1.387 . S
H403 C399 0.950 . S
H404 C401 0.950 . S
C405 C396 1.390 . S
C405 H398 0.950 . S
C405 C402 1.387 . S
C406 C407 1.387 . S
C406 H410 0.950 . S
C406 C415 1.390 . S
C407 C406 1.387 . S
C407 C409 1.387 . S
H408 C415 0.950 . S
C409 C407 1.387 . S
C409 C411 1.390 . S
C409 H413 0.950 . S
H410 C406 0.950 . S
C411 C409 1.390 . S
C411 C412 1.387 . S
C411 H414 0.950 . S
C412 C411 1.387 . S
C412 C415 1.387 . S
H413 C409 0.950 . S
H414 C411 0.950 . S
C415 C406 1.390 . S
C415 H408 0.950 . S
C415 C412 1.387 . S
C416 C417 1.387 . S
C416 H420 0.950 . S
C416 C425 1.390 . S
C417 C416 1.387 . S
C417 C419 1.387 . S
H418 C425 0.950 . S
C419 C417 1.387 . S
C419 C421 1.390 . S
C419 H423 0.950 . S
H420 C416 0.950 . S
C421 C419 1.390 . S
C421 C422 1.387 . S
C421 H424 0.950 . S
C422 C421 1.387 . S
C422 C425 1.387 . S
H423 C419 0.950 . S
H424 C421 0.950 . S
C425 C416 1.390 . S
C425 H418 0.950 . S
C425 C422 1.387 . S
C426 C427 1.387 . S
C426 H430 0.950 . S
C426 C435 1.390 . S
C427 C426 1.387 . S
C427 C429 1.387 . S
H428 C435 0.950 . S
C429 C427 1.387 . S
C429 C431 1.390 . S
C429 H433 0.950 . S
H430 C426 0.950 . S
C431 C429 1.390 . S
C431 C432 1.387 . S
C431 H434 0.950 . S
C432 C431 1.387 . S
C432 C435 1.387 . S
H433 C429 0.950 . S
H434 C431 0.950 . S
C435 C426 1.390 . S
C435 H428 0.950 . S
C435 C432 1.387 . S
C436 C437 1.387 . S
C436 H440 0.950 . S
C436 C445 1.390 . S
C437 C436 1.387 . S
C437 C439 1.387 . S
H438 C445 0.950 . S
C439 C437 1.387 . S
C439 C441 1.390 . S
C439 H443 0.950 . S
H440 C436 0.950 . S
C441 C439 1.390 . S
C441 C442 1.387 . S
C441 H444 0.950 . S
C442 C441 1.387 . S
C442 C445 1.387 . S
H443 C439 0.950 . S
H444 C441 0.950 . S
C445 C436 1.390 . S
C445 H438 0.950 . S
C445 C442 1.387 . S
C446 C447 1.387 . S
C446 H450 0.950 . S
C446 C455 1.390 . S
C447 C446 1.387 . S
C447 C449 1.387 . S
H448 C455 0.950 . S
C449 C447 1.387 . S
C449 C451 1.390 . S
C449 H453 0.950 . S
H450 C446 0.950 . S
C451 C449 1.390 . S
C451 C452 1.387 . S
C451 H454 0.950 . S
C452 C451 1.387 . S
C452 C455 1.387 . S
H453 C449 0.950 . S
H454 C451 0.950 . S
C455 C446 1.390 . S
C455 H448 0.950 . S
C455 C452 1.387 . S
C456 C457 1.387 . S
C456 H460 0.950 . S
C456 C465 1.390 . S
C457 C456 1.387 . S
C457 C459 1.387 . S
H458 C465 0.950 . S
C459 C457 1.387 . S
C459 C461 1.390 . S
C459 H463 0.950 . S
H460 C456 0.950 . S
C461 C459 1.390 . S
C461 C462 1.387 . S
C461 H464 0.950 . S
C462 C461 1.387 . S
C462 C465 1.387 . S
H463 C459 0.950 . S
H464 C461 0.950 . S
C465 C456 1.390 . S
C465 H458 0.950 . S
C465 C462 1.387 . S
C466 C467 1.387 . S
C466 H470 0.950 . S
C466 C475 1.390 . S
C467 C466 1.387 . S
C467 C469 1.387 1_556 S
H468 C475 0.950 . S
C469 C467 1.387 1_554 S
C469 C471 1.390 . S
C469 H473 0.950 . S
H470 C466 0.950 . S
C471 C469 1.390 . S
C471 C472 1.387 1_554 S
C471 H474 0.950 . S
C472 C471 1.387 1_556 S
C472 C475 1.387 . S
H473 C469 0.950 . S
H474 C471 0.950 . S
C475 C466 1.390 . S
C475 H468 0.950 . S
C475 C472 1.387 . S
C476 C477 1.387 . S
C476 H480 0.950 . S
C476 C485 1.390 . S
C477 C476 1.387 . S
C477 C479 1.387 . S
H478 C485 0.950 . S
C479 C477 1.387 . S
C479 C481 1.390 . S
C479 H483 0.950 . S
H480 C476 0.950 . S
C481 C479 1.390 . S
C481 C482 1.387 . S
C481 H484 0.950 . S
C482 C481 1.387 . S
C482 C485 1.387 . S
H483 C479 0.950 . S
H484 C481 0.950 . S
C485 C476 1.390 . S
C485 H478 0.950 . S
C485 C482 1.387 . S
C486 C487 1.387 . S
C486 H490 0.950 . S
C486 C495 1.390 . S
C487 C486 1.387 . S
C487 C489 1.387 . S
H488 C495 0.950 . S
C489 C487 1.387 . S
C489 C491 1.390 . S
C489 H493 0.950 . S
H490 C486 0.950 . S
C491 C489 1.390 . S
C491 C492 1.387 . S
C491 H494 0.950 . S
C492 C491 1.387 . S
C492 C495 1.387 . S
H493 C489 0.950 . S
H494 C491 0.950 . S
C495 C486 1.390 . S
C495 H488 0.950 . S
C495 C492 1.387 . S
C496 C497 1.387 . S
C496 H500 0.950 . S
C496 C505 1.390 . S
C497 C496 1.387 . S
C497 C499 1.387 . S
H498 C505 0.950 . S
C499 C497 1.387 . S
C499 C501 1.390 . S
C499 H503 0.950 . S
H500 C496 0.950 . S
C501 C499 1.390 . S
C501 C502 1.387 . S
C501 H504 0.950 . S
C502 C501 1.387 . S
C502 C505 1.387 . S
H503 C499 0.950 . S
H504 C501 0.950 . S
C505 C496 1.390 . S
C505 H498 0.950 . S
C505 C502 1.387 . S
C506 C507 1.387 . S
C506 H510 0.950 . S
C506 C515 1.390 . S
C507 C506 1.387 . S
C507 C509 1.387 . S
H508 C515 0.950 . S
C509 C507 1.387 . S
C509 C511 1.390 . S
C509 H513 0.950 . S
H510 C506 0.950 . S
C511 C509 1.390 . S
C511 C512 1.387 . S
C511 H514 0.950 . S
C512 C511 1.387 . S
C512 C515 1.387 . S
H513 C509 0.950 . S
H514 C511 0.950 . S
C515 C506 1.390 . S
C515 H508 0.950 . S
C515 C512 1.387 . S
C516 C517 1.387 1_556 S
C516 H520 0.950 . S
C516 C525 1.390 . S
C517 C516 1.387 1_554 S
C517 C519 1.387 . S
H518 C525 0.950 . S
C519 C517 1.387 . S
C519 C521 1.390 . S
C519 H523 0.950 . S
H520 C516 0.950 . S
C521 C519 1.390 . S
C521 C522 1.387 . S
C521 H524 0.950 . S
C522 C521 1.387 . S
C522 C525 1.387 1_554 S
H523 C519 0.950 . S
H524 C521 0.950 . S
C525 C516 1.390 . S
C525 H518 0.950 . S
C525 C522 1.387 1_556 S
C526 C527 1.387 . S
C526 H530 0.950 . S
C526 C535 1.390 . S
C527 C526 1.387 . S
C527 C529 1.387 . S
H528 C535 0.950 . S
C529 C527 1.387 . S
C529 C531 1.390 . S
C529 H533 0.950 . S
H530 C526 0.950 . S
C531 C529 1.390 . S
C531 C532 1.387 . S
C531 H534 0.950 . S
C532 C531 1.387 . S
C532 C535 1.387 . S
H533 C529 0.950 . S
H534 C531 0.950 . S
C535 C526 1.390 . S
C535 H528 0.950 . S
C535 C532 1.387 . S
C536 C537 1.387 . S
C536 H540 0.950 . S
C536 C545 1.390 . S
C537 C536 1.387 . S
C537 C539 1.387 . S
H538 C545 0.950 . S
C539 C537 1.387 . S
C539 C541 1.390 . S
C539 H543 0.950 . S
H540 C536 0.950 . S
C541 C539 1.390 . S
C541 C542 1.387 . S
C541 H544 0.950 . S
C542 C541 1.387 . S
C542 C545 1.387 . S
H543 C539 0.950 . S
H544 C541 0.950 . S
C545 C536 1.390 . S
C545 H538 0.950 . S
C545 C542 1.387 . S
C546 C547 1.387 . S
C546 H550 0.950 . S
C546 C555 1.390 . S
C547 C546 1.387 . S
C547 C549 1.387 . S
H548 C555 0.950 . S
C549 C547 1.387 . S
C549 C551 1.390 . S
C549 H553 0.950 . S
H550 C546 0.950 . S
C551 C549 1.390 . S
C551 C552 1.387 . S
C551 H554 0.950 . S
C552 C551 1.387 . S
C552 C555 1.387 . S
H553 C549 0.950 . S
H554 C551 0.950 . S
C555 C546 1.390 . S
C555 H548 0.950 . S
C555 C552 1.387 . S
C556 C557 1.387 . S
C556 H560 0.950 . S
C556 C565 1.390 . S
C557 C556 1.387 . S
C557 C559 1.387 . S
H558 C565 0.950 . S
C559 C557 1.387 . S
C559 C561 1.390 . S
C559 H563 0.950 . S
H560 C556 0.950 . S
C561 C559 1.390 . S
C561 C562 1.387 . S
C561 H564 0.950 . S
C562 C561 1.387 . S
C562 C565 1.387 . S
H563 C559 0.950 . S
H564 C561 0.950 . S
C565 C556 1.390 . S
C565 H558 0.950 . S
C565 C562 1.387 . S
C566 C567 1.387 . S
C566 H570 0.950 . S
C566 C575 1.390 . S
C567 C566 1.387 . S
C567 C569 1.387 . S
H568 C575 0.950 . S
C569 C567 1.387 . S
C569 C571 1.390 . S
C569 H573 0.950 . S
H570 C566 0.950 . S
C571 C569 1.390 . S
C571 C572 1.387 . S
C571 H574 0.950 . S
C572 C571 1.387 . S
C572 C575 1.387 . S
H573 C569 0.950 . S
H574 C571 0.950 . S
C575 C566 1.390 . S
C575 H568 0.950 . S
C575 C572 1.387 . S
C576 C577 1.387 . S
C576 H580 0.950 . S
C576 C585 1.390 . S
C577 C576 1.387 . S
C577 C579 1.387 . S
H578 C585 0.950 . S
C579 C577 1.387 . S
C579 C581 1.390 . S
C579 H583 0.950 . S
H580 C576 0.950 . S
C581 C579 1.390 . S
C581 C582 1.387 . S
C581 H584 0.950 . S
C582 C581 1.387 . S
C582 C585 1.387 . S
H583 C579 0.950 . S
H584 C581 0.950 . S
C585 C576 1.390 . S
C585 H578 0.950 . S
C585 C582 1.387 . S
C586 C587 1.387 . S
C586 H590 0.950 . S
C586 C595 1.390 . S
C587 C586 1.387 . S
C587 C589 1.387 1_655 S
H588 C595 0.950 . S
C589 C587 1.387 1_455 S
C589 C591 1.390 . S
C589 H593 0.950 . S
H590 C586 0.950 . S
C591 C589 1.390 . S
C591 C592 1.387 . S
C591 H594 0.950 . S
C592 C591 1.387 . S
C592 C595 1.387 1_455 S
H593 C589 0.950 . S
H594 C591 0.950 . S
C595 C586 1.390 . S
C595 H588 0.950 . S
C595 C592 1.387 1_655 S
C596 C597 1.387 . S
C596 H600 0.950 . S
C596 C605 1.390 1_565 S
C597 C596 1.387 . S
C597 C599 1.387 . S
H598 C605 0.950 . S
C599 C597 1.387 . S
C599 C601 1.390 1_565 S
C599 H603 0.950 . S
H600 C596 0.950 . S
C601 C599 1.390 1_545 S
C601 C602 1.387 . S
C601 H604 0.950 . S
C602 C601 1.387 . S
C602 C605 1.387 . S
H603 C599 0.950 . S
H604 C601 0.950 . S
C605 C596 1.390 1_545 S
C605 H598 0.950 . S
C605 C602 1.387 . S
C606 C607 1.387 . S
C606 H610 0.950 . S
C606 C615 1.390 . S
C607 C606 1.387 . S
C607 C609 1.387 . S
H608 C615 0.950 . S
C609 C607 1.387 . S
C609 C611 1.390 . S
C609 H613 0.950 . S
H610 C606 0.950 . S
C611 C609 1.390 . S
C611 C612 1.387 . S
C611 H614 0.950 . S
C612 C611 1.387 . S
C612 C615 1.387 . S
H613 C609 0.950 . S
H614 C611 0.950 . S
C615 C606 1.390 . S
C615 H608 0.950 . S
C615 C612 1.387 . S
C616 C617 1.387 . S
C616 H620 0.950 . S
C616 C625 1.390 . S
C617 C616 1.387 . S
C617 C619 1.387 1_455 S
H618 C625 0.950 . S
C619 C617 1.387 1_655 S
C619 C621 1.390 . S
C619 H623 0.950 . S
H620 C616 0.950 . S
C621 C619 1.390 . S
C621 C622 1.387 . S
C621 H624 0.950 . S
C622 C621 1.387 . S
C622 C625 1.387 1_655 S
H623 C619 0.950 . S
H624 C621 0.950 . S
C625 C616 1.390 . S
C625 H618 0.950 . S
C625 C622 1.387 1_455 S
C626 C627 1.387 . S
C626 H630 0.950 . S
C626 C635 1.390 1_564 S
C627 C626 1.387 . S
C627 C629 1.387 . S
H628 C635 0.950 . S
C629 C627 1.387 . S
C629 C631 1.390 1_564 S
C629 H633 0.950 . S
H630 C626 0.950 . S
C631 C629 1.390 1_546 S
C631 C632 1.387 . S
C631 H634 0.950 . S
C632 C631 1.387 . S
C632 C635 1.387 . S
H633 C629 0.950 . S
H634 C631 0.950 . S
C635 C626 1.390 1_546 S
C635 H628 0.950 . S
C635 C632 1.387 . S
C636 C637 1.387 . S
C636 H640 0.950 . S
C636 C645 1.390 . S
C637 C636 1.387 . S
C637 C639 1.387 . S
H638 C645 0.950 . S
C639 C637 1.387 . S
C639 C641 1.390 . S
C639 H643 0.950 1_556 S
H640 C636 0.950 . S
C641 C639 1.390 . S
C641 C642 1.387 . S
C641 H644 0.950 1_556 S
C642 C641 1.387 . S
C642 C645 1.387 . S
H643 C639 0.950 1_554 S
H644 C641 0.950 1_554 S
C645 C636 1.390 . S
C645 H638 0.950 . S
C645 C642 1.387 . S
C646 C647 1.387 . S
C646 H650 0.950 . S
C646 C655 1.390 . S
C647 C646 1.387 . S
C647 C649 1.387 . S
H648 C655 0.950 . S
C649 C647 1.387 . S
C649 C651 1.390 . S
C649 H653 0.950 1_554 S
H650 C646 0.950 . S
C651 C649 1.390 . S
C651 C652 1.387 . S
C651 H654 0.950 . S
C652 C651 1.387 . S
C652 C655 1.387 . S
H653 C649 0.950 1_556 S
H654 C651 0.950 . S
C655 C646 1.390 . S
C655 H648 0.950 . S
C655 C652 1.387 . S
C656 C657 1.387 . S
C656 H660 0.950 . S
C656 C665 1.390 . S
C657 C656 1.387 . S
C657 C659 1.387 . S
H658 C665 0.950 . S
C659 C657 1.387 . S
C659 C661 1.390 . S
C659 H663 0.950 . S
H660 C656 0.950 . S
C661 C659 1.390 . S
C661 C662 1.387 . S
C661 H664 0.950 . S
C662 C661 1.387 . S
C662 C665 1.387 . S
H663 C659 0.950 . S
H664 C661 0.950 . S
C665 C656 1.390 . S
C665 H658 0.950 . S
C665 C662 1.387 . S
C666 C667 1.387 . S
C666 H670 0.950 . S
C666 C675 1.390 . S
C667 C666 1.387 . S
C667 C669 1.387 . S
H668 C675 0.950 . S
C669 C667 1.387 . S
C669 C671 1.390 . S
C669 H673 0.950 . S
H670 C666 0.950 . S
C671 C669 1.390 . S
C671 C672 1.387 . S
C671 H674 0.950 . S
C672 C671 1.387 . S
C672 C675 1.387 . S
H673 C669 0.950 . S
H674 C671 0.950 . S
C675 C666 1.390 . S
C675 H668 0.950 . S
C675 C672 1.387 . S
C676 C677 1.387 . S
C676 H680 0.950 . S
C676 C685 1.390 . S
C677 C676 1.387 . S
C677 C679 1.387 . S
H678 C685 0.950 . S
C679 C677 1.387 . S
C679 C681 1.390 . S
C679 H683 0.950 . S
H680 C676 0.950 . S
C681 C679 1.390 . S
C681 C682 1.387 . S
C681 H684 0.950 . S
C682 C681 1.387 . S
C682 C685 1.387 . S
H683 C679 0.950 . S
H684 C681 0.950 . S
C685 C676 1.390 . S
C685 H678 0.950 . S
C685 C682 1.387 . S
C686 C687 1.387 . S
C686 H690 0.950 . S
C686 C695 1.390 . S
C687 C686 1.387 . S
C687 C689 1.387 . S
H688 C695 0.950 . S
C689 C687 1.387 . S
C689 C691 1.390 . S
C689 H693 0.950 . S
H690 C686 0.950 . S
C691 C689 1.390 . S
C691 C692 1.387 . S
C691 H694 0.950 . S
C692 C691 1.387 . S
C692 C695 1.387 . S
H693 C689 0.950 . S
H694 C691 0.950 . S
C695 C686 1.390 . S
C695 H688 0.950 . S
C695 C692 1.387 . S
C397 N343 1.101 . S
C402 N13 1.098 . S
C407 N46 1.179 . S
C412 N376 1.181 . S
C417 N79 1.181 . S
C422 N211 1.176 . S
C427 N112 1.105 . S
C432 N244 1.105 . S
C437 N145 1.170 . S
C442 N277 1.167 1_556 S
C447 N178 1.169 1_554 S
C452 N310 1.167 . S
C457 N2 1.761 . S
C462 C183 1.745 . S
C467 C18 1.777 . S
C472 N35 1.768 1_456 S
C477 C51 1.783 . S
C482 N68 1.785 1_545 S
C487 N101 1.780 . S
C492 C84 1.782 . S
C497 N134 1.834 1_655 S
C502 C117 1.832 . S
C507 N167 1.798 1_565 S
C512 C150 1.784 . S
C517 C249 1.777 . S
C522 N200 1.770 1_554 S
C527 N233 1.762 1_455 S
C532 C282 1.746 . S
C537 N266 1.798 1_545 S
C542 C315 1.784 . S
C547 N299 1.835 . S
C552 C348 1.832 . S
C557 N332 1.781 1_655 S
C562 C381 1.783 . S
C567 N365 1.784 1_565 S
C572 C216 1.785 . S
C577 C7 1.102 . S
C582 C304 1.098 . S
C587 C40 1.201 . S
C592 C337 1.200 . S
C597 C73 1.176 . S
C602 C370 1.176 . S
C607 C106 1.201 . S
C612 C205 1.203 . S
C617 C139 1.098 . S
C622 C238 1.099 . S
C627 C271 1.157 . S
C632 C172 1.157 . S
C637 C219 1.509 . S
C642 C21 1.511 . S
C647 C54 1.509 . S
C652 C252 1.512 . S
C657 C87 1.539 . S
C662 C285 1.538 . S
C667 C318 1.580 . S
C672 C120 1.583 . S
C677 C153 1.578 . S
C682 C351 1.582 . S
C687 C384 1.542 . S
C692 C186 1.541 . S
