# Generated by pormake.
# Topology unf, (4)-cn, num edge types: 1
# Building blocks:
#     Node 0, Type 0, BuildingBlock: QUQFOY_clean_sbu_3, # of connection points: 4
#     Node 1, Type 0, BuildingBlock: QUQFOY_clean_sbu_3, # of connection points: 4
#     Node 2, Type 0, BuildingBlock: QUQFOY_clean_sbu_3, # of connection points: 4
#     Node 3, Type 0, BuildingBlock: QUQFOY_clean_sbu_3, # of connection points: 4
#     Node 4, Type 0, BuildingBlock: QUQFOY_clean_sbu_3, # of connection points: 4
#     Node 5, Type 0, BuildingBlock: QUQFOY_clean_sbu_3, # of connection points: 4
#     Node 6, Type 0, BuildingBlock: QUQFOY_clean_sbu_3, # of connection points: 4
#     Node 7, Type 0, BuildingBlock: QUQFOY_clean_sbu_3, # of connection points: 4
#     Node 8, Type 0, BuildingBlock: QUQFOY_clean_sbu_3, # of connection points: 4
#     Node 9, Type 0, BuildingBlock: QUQFOY_clean_sbu_3, # of connection points: 4
#     Node 10, Type 0, BuildingBlock: QUQFOY_clean_sbu_3, # of connection points: 4
#     Node 11, Type 0, BuildingBlock: QUQFOY_clean_sbu_3, # of connection points: 4
#     Edge 12, Type (0, 0), BuildingBlock: AJUNOK_clean_linker_0, # of connection points: 2
#     Edge 13, Type (0, 0), BuildingBlock: AJUNOK_clean_linker_0, # of connection points: 2
#     Edge 14, Type (0, 0), BuildingBlock: AJUNOK_clean_linker_0, # of connection points: 2
#     Edge 15, Type (0, 0), BuildingBlock: AJUNOK_clean_linker_0, # of connection points: 2
#     Edge 16, Type (0, 0), BuildingBlock: AJUNOK_clean_linker_0, # of connection points: 2
#     Edge 17, Type (0, 0), BuildingBlock: AJUNOK_clean_linker_0, # of connection points: 2
#     Edge 18, Type (0, 0), BuildingBlock: AJUNOK_clean_linker_0, # of connection points: 2
#     Edge 19, Type (0, 0), BuildingBlock: AJUNOK_clean_linker_0, # of connection points: 2
#     Edge 20, Type (0, 0), BuildingBlock: AJUNOK_clean_linker_0, # of connection points: 2
#     Edge 21, Type (0, 0), BuildingBlock: AJUNOK_clean_linker_0, # of connection points: 2
#     Edge 22, Type (0, 0), BuildingBlock: AJUNOK_clean_linker_0, # of connection points: 2
#     Edge 23, Type (0, 0), BuildingBlock: AJUNOK_clean_linker_0, # of connection points: 2
#     Edge 24, Type (0, 0), BuildingBlock: AJUNOK_clean_linker_0, # of connection points: 2
#     Edge 25, Type (0, 0), BuildingBlock: AJUNOK_clean_linker_0, # of connection points: 2
#     Edge 26, Type (0, 0), BuildingBlock: AJUNOK_clean_linker_0, # of connection points: 2
#     Edge 27, Type (0, 0), BuildingBlock: AJUNOK_clean_linker_0, # of connection points: 2
#     Edge 28, Type (0, 0), BuildingBlock: AJUNOK_clean_linker_0, # of connection points: 2
#     Edge 29, Type (0, 0), BuildingBlock: AJUNOK_clean_linker_0, # of connection points: 2
#     Edge 30, Type (0, 0), BuildingBlock: AJUNOK_clean_linker_0, # of connection points: 2
#     Edge 31, Type (0, 0), BuildingBlock: AJUNOK_clean_linker_0, # of connection points: 2
#     Edge 32, Type (0, 0), BuildingBlock: AJUNOK_clean_linker_0, # of connection points: 2
#     Edge 33, Type (0, 0), BuildingBlock: AJUNOK_clean_linker_0, # of connection points: 2
#     Edge 34, Type (0, 0), BuildingBlock: AJUNOK_clean_linker_0, # of connection points: 2
#     Edge 35, Type (0, 0), BuildingBlock: AJUNOK_clean_linker_0, # of connection points: 2
# Relax obj value: 0.221
# Max RMSD: 0.170
# Mean RMSD: 0.170
data_MOF--net-unf--node1-QUQFOY_clean_sbu_3--edge1-AJUNOK_clean_linker_0
_symmetry_space_group_name_H-M    P1
_symmetry_Int_Tables_number       1
_symmetry_cell_setting            triclinic
loop_
_symmetry_equiv_pos_as_xyz
'x, y, z'
_cell_length_a     29.237335
_cell_length_b     29.289235
_cell_length_c     29.21701
_cell_angle_alpha  89.948967
_cell_angle_beta   89.827263
_cell_angle_gamma 119.82693
loop_
_atom_site_label
_atom_site_type_symbol
_atom_site_fract_x
_atom_site_fract_y
_atom_site_fract_z
_atom_type_partial_charge
C0 C 0.06036 0.48625 0.01276 0.0
O1 O 0.09527 0.50462 0.9816 0.0
Cd2 Cd 0.10807 0.43496 0.95535 0.0
O3 O 0.0548 0.44752 0.03655 0.0
Cd4 Cd 0.10094 0.39693 0.04465 0.0
C5 C -0.00899 0.32892 -0.00705 0.0
O6 O 0.17408 0.42177 -0.00846 0.0
O7 O 0.11835 0.33842 -9e-05 0.0
O8 O 0.1569 0.4434 0.10935 0.0
C9 C 0.16334 0.37432 0.98657 0.0
O10 O 0.01767 0.36075 0.96094 0.0
C11 C 0.14207 0.40223 0.13345 0.0
O12 O 0.01173 0.33069 0.03152 0.0
O13 O 0.10567 0.35924 0.11712 0.0
C14 C 0.49649 0.59919 0.00756 0.0
O15 O 0.49252 0.62509 0.97442 0.0
Cd16 Cd 0.55079 0.71861 0.9696 0.0
O17 O 0.52045 0.62269 0.0439 0.0
Cd18 Cd 0.56836 0.71043 0.07732 0.0
C19 C 0.65091 0.69791 0.00596 0.0
O20 O 0.55108 0.76965 0.03272 0.0
O21 O 0.62939 0.80024 0.06141 0.0
O22 O 0.51603 0.70149 0.14598 0.0
C23 C 0.59673 0.80884 0.04 0.0
O24 O 0.62998 0.71156 0.9745 0.0
C25 C 0.5548 0.71532 0.173 0.0
O26 O 0.63485 0.69226 0.0473 0.0
O27 O 0.59756 0.72203 0.15544 0.0
C28 C 0.35237 0.88077 0.98198 0.0
O29 O 0.33421 0.85178 0.94689 0.0
Cd30 Cd 0.25031 0.84296 0.93054 0.0
O31 O 0.32047 0.88009 0.01198 0.0
Cd32 Cd 0.2254 0.83543 0.02965 0.0
C33 C 0.27225 0.95394 -0.00899 0.0
O34 O 0.17342 0.77516 0.96817 0.0
O35 O 0.14833 0.82823 -0.0052 0.0
O36 O 0.216 0.77434 0.09225 0.0
C37 C 0.13804 0.78835 0.97059 0.0
O38 O 0.27211 0.93199 0.95334 0.0
C39 C 0.19391 0.79175 0.11917 0.0
O40 O 0.25517 0.92748 0.02773 0.0
O41 O 0.18889 0.8299 0.1047 0.0
C42 C 0.484 0.87652 0.5037 0.0
O43 O 0.48389 0.85275 0.54003 0.0
Cd44 Cd 0.55133 0.83066 0.55018 0.0
O45 O 0.50688 0.87284 0.46793 0.0
Cd46 Cd 0.55688 0.8288 0.4463 0.0
C47 C 0.64302 0.94098 0.4926 0.0
O48 O 0.54992 0.7639 0.50334 0.0
O49 O 0.62685 0.81761 0.47516 0.0
O50 O 0.50814 0.77101 0.38121 0.0
C51 C 0.59813 0.7767 0.49861 0.0
O52 O 0.62745 0.9156 0.53019 0.0
C53 C 0.54838 0.79205 0.35502 0.0
O54 O 0.62162 0.91982 0.4548 0.0
O55 O 0.58941 0.83172 0.37044 0.0
C56 C 0.05086 0.59209 0.46305 0.0
O57 O 0.08128 0.61504 0.49659 0.0
Cd58 Cd 0.11903 0.70878 0.50562 0.0
O59 O 0.05174 0.61839 0.42814 0.0
Cd60 Cd 0.09573 0.70831 0.39858 0.0
C61 C 0.00055 0.69437 0.47015 0.0
O62 O 0.17153 0.76512 0.44536 0.0
O63 O 0.12381 0.79675 0.41845 0.0
O64 O 0.13945 0.69959 0.33019 0.0
C65 C 0.1645 0.80442 0.44025 0.0
O66 O 0.03447 0.70534 0.5017 0.0
C67 C 0.11641 0.71553 0.30296 0.0
O68 O 0.01115 0.69039 0.42847 0.0
O69 O 0.08167 0.72455 0.32022 0.0
C70 C 0.38167 0.47 0.45015 0.0
O71 O 0.36019 0.48055 0.48317 0.0
Cd72 Cd 0.26976 0.41844 0.49825 0.0
O73 O 0.35323 0.43902 0.41878 0.0
Cd74 Cd 0.25997 0.38947 0.3986 0.0
C75 C 0.28482 0.31422 0.46423 0.0
O76 O 0.20596 0.41316 0.44516 0.0
O77 O 0.17593 0.33006 0.43181 0.0
O78 O 0.26152 0.43907 0.3316 0.0
C79 C 0.16747 0.36622 0.44578 0.0
O80 O 0.27619 0.33852 0.49626 0.0
C81 C 0.23961 0.39912 0.30558 0.0
O82 O 0.28389 0.32566 0.42236 0.0
O83 O 0.23113 0.35541 0.32223 0.0
C84 C 0.87344 0.50496 -0.00827 0.0
O85 O 0.85707 0.521 0.02492 0.0
Cd86 Cd 0.82261 0.57902 0.01082 0.0
O87 O 0.86063 0.50847 0.95081 0.0
Cd88 Cd 0.81125 0.53963 0.90561 0.0
C89 C 0.92206 0.64901 0.93178 0.0
O90 O 0.7533 0.55091 0.95757 0.0
O91 O 0.78797 0.60734 0.90234 0.0
O92 O 0.74182 0.46497 0.86362 0.0
C93 C 0.757 0.59067 0.93652 0.0
O94 O 0.89972 0.64576 0.97017 0.0
C95 C 0.76308 0.48223 0.8247 0.0
O96 O 0.9002 0.61372 0.9012 0.0
O97 O 0.80792 0.52384 0.82405 0.0
C98 C 0.47151 0.39187 0.97728 0.0
O99 O 0.48386 0.37194 0.01019 0.0
Cd100 Cd 0.40927 0.28757 0.02231 0.0
O101 O 0.43918 0.36155 0.94741 0.0
Cd102 Cd 0.39162 0.26651 0.92978 0.0
C103 C 0.31351 0.30397 0.96712 0.0
O104 O 0.40693 0.21351 0.98493 0.0
O105 O 0.32554 0.1889 0.96891 0.0
O106 O 0.44531 0.26037 0.86739 0.0
C107 C 0.35891 0.17736 0.98459 0.0
O108 O 0.33789 0.306 0.0038 0.0
C109 C 0.40571 0.23451 0.84156 0.0
O110 O 0.3234 0.28814 0.93 0.0
O111 O 0.36155 0.22725 0.85588 0.0
C112 C 0.55951 0.06718 0.96219 0.0
O113 O 0.58113 0.09727 -0.00389 0.0
Cd114 Cd 0.6743 0.13462 0.0069 0.0
O115 O 0.58746 0.06844 0.92828 0.0
Cd116 Cd 0.68068 0.11505 0.90608 0.0
C117 C 0.66462 0.01848 0.9738 0.0
O118 O 0.73624 0.19275 0.9516 0.0
O119 O 0.76486 0.1385 0.93674 0.0
O120 O 0.68221 0.1618 0.83612 0.0
C121 C 0.77426 0.18321 0.95101 0.0
O122 O 0.67466 0.05171 0.00576 0.0
C123 C 0.70256 0.14039 0.81185 0.0
O124 O 0.66139 0.02963 0.93227 0.0
O125 O 0.70791 0.10423 0.83076 0.0
C126 C 0.4574 0.06036 0.51264 0.0
O127 O 0.4597 0.08469 0.47592 0.0
Cd128 Cd 0.40586 0.12541 0.4664 0.0
O129 O 0.43581 0.06642 0.54807 0.0
Cd130 Cd 0.39002 0.11168 0.57329 0.0
C131 C 0.30363 0.01232 0.50912 0.0
O132 O 0.40549 0.18415 0.5227 0.0
O133 O 0.32771 0.13706 0.55317 0.0
O134 O 0.44411 0.16227 0.63816 0.0
C135 C 0.35942 0.17724 0.53006 0.0
O136 O 0.3231 0.04419 0.47555 0.0
C137 C 0.40641 0.14056 0.66688 0.0
O138 O 0.3224 0.0248 0.54938 0.0
O139 O 0.363 0.10301 0.65224 0.0
C140 C 0.8762 0.37994 0.49322 0.0
O141 O 0.84391 0.356 0.46117 0.0
Cd142 Cd 0.83258 0.26999 0.45094 0.0
O143 O 0.88187 0.35342 0.52487 0.0
Cd144 Cd 0.84326 0.26086 0.54787 0.0
C145 C 0.95305 0.29803 0.49479 0.0
O146 O 0.77362 0.19679 0.49808 0.0
O147 O 0.83535 0.18117 0.52081 0.0
O148 O 0.78456 0.25385 0.61098 0.0
C149 C 0.78938 0.16383 0.50487 0.0
O150 O 0.92418 0.29244 0.46034 0.0
C151 C 0.80446 0.23509 0.63872 0.0
O152 O 0.93441 0.28858 0.5352 0.0
O153 O 0.84527 0.23393 0.62541 0.0
C154 C 0.58831 0.49448 0.48186 0.0
O155 O 0.62197 0.51154 0.44959 0.0
Cd156 Cd 0.71305 0.57223 0.46457 0.0
O157 O 0.60299 0.49867 0.52338 0.0
Cd158 Cd 0.68254 0.53302 0.57023 0.0
C159 C 0.67785 0.6401 0.54098 0.0
O160 O 0.75306 0.54526 0.51981 0.0
O161 O 0.77281 0.60275 0.57354 0.0
O162 O 0.67837 0.45953 0.61365 0.0
C163 C 0.78816 0.58583 0.5403 0.0
O164 O 0.69889 0.6376 0.50345 0.0
C165 C 0.67536 0.4779 0.65226 0.0
O166 O 0.66372 0.60474 0.57176 0.0
O167 O 0.67116 0.51906 0.65209 0.0
C168 C 0.25437 0.38975 -0.00729 0.0
C169 C 0.20363 0.36068 0.9741 0.0
C170 C 0.29003 0.37116 -0.01017 0.0
C171 C 0.27634 0.32371 0.96731 0.0
H172 H 0.26552 0.42541 0.01187 0.0
H173 H 0.32831 0.39368 0.00582 0.0
S174 S 0.15044 0.23624 0.90879 0.0
N175 N 0.14252 0.28412 0.93006 0.0
N176 N 0.21068 0.25025 0.92306 0.0
C177 C 0.22704 0.29604 0.94611 0.0
C178 C 0.19028 0.31428 0.94997 0.0
C179 C 0.6584 0.90511 0.03951 0.0
C180 C 0.61381 0.8614 0.02088 0.0
C181 C 0.67578 0.95585 0.02294 0.0
C182 C 0.64989 0.96447 0.9865 0.0
H183 H 0.67947 0.90032 0.06786 0.0
H184 H 0.70934 -0.01135 0.03911 0.0
S185 S 0.53183 0.86361 0.92518 0.0
N186 N 0.54434 0.83002 0.96372 0.0
N187 N 0.57776 0.92576 0.93197 0.0
C188 C 0.606 0.92117 0.96676 0.0
C189 C 0.58766 0.86948 0.98419 0.0
C190 C 0.04735 0.77237 0.95776 0.0
C191 C 0.08544 0.7572 0.94968 0.0
C192 C -0.00558 0.73888 0.94727 0.0
C193 C -0.02223 0.68948 0.92757 0.0
H194 H 0.05769 0.8089 0.97513 0.0
H195 H 0.96579 0.75023 0.95748 0.0
S196 S 0.06272 0.63489 0.89203 0.0
N197 N 0.10379 0.69231 0.91524 0.0
N198 N 0.00379 0.62948 0.89486 0.0
C199 C 0.01594 0.67602 0.91486 0.0
C200 C 0.07002 0.7099 0.92615 0.0
C201 C 0.60742 0.66292 0.54974 0.0
C202 C 0.66118 0.67954 0.54377 0.0
C203 C 0.58739 0.69592 0.53768 0.0
C204 C 0.6207 0.74641 0.51953 0.0
H205 H 0.58004 0.62278 0.56001 0.0
H206 H 0.54523 0.6805 0.53986 0.0
S207 S 0.76628 0.81112 0.50639 0.0
N208 N 0.74828 0.75122 0.52485 0.0
N209 N 0.71147 0.81414 0.50331 0.0
C210 C 0.67538 0.76503 0.51785 0.0
C211 C 0.69544 0.73127 0.52969 0.0
C212 C 0.19025 0.8982 0.45132 0.0
C213 C 0.19859 0.85595 0.46186 0.0
C214 C 0.22277 0.94836 0.46904 0.0
C215 C 0.26411 0.95791 0.49868 0.0
H216 H 0.15926 0.89305 0.42806 0.0
H217 H 0.21645 -0.01972 0.45847 0.0
S218 S 0.30265 0.86149 0.53802 0.0
N219 N 0.25118 0.82716 0.50466 0.0
N220 N 0.31207 0.92196 0.53847 0.0
C221 C 0.27211 0.91603 0.51091 0.0
C222 C 0.23941 0.86488 0.4923 0.0
C223 C 0.03241 0.28839 0.49885 0.0
C224 C 0.00928 0.31874 0.48728 0.0
C225 C 0.08464 0.30504 0.48646 0.0
C226 C 0.11535 0.3531 0.46336 0.0
H227 H 0.00936 0.25062 0.51566 0.0
H228 H 0.10079 0.2797 0.49423 0.0
S229 S 0.07326 0.44841 0.42907 0.0
N230 N 0.02063 0.3996 0.45362 0.0
N231 N 0.11976 0.43207 0.43181 0.0
C232 C 0.0933 0.38502 0.45386 0.0
C233 C 0.03981 0.36742 0.46541 0.0
C234 C 0.68397 0.63504 0.0158 0.0
C235 C 0.68611 0.67786 -0.00799 0.0
C236 C 0.70739 0.60733 -0.00225 0.0
C237 C 0.73411 0.62165 0.9555 0.0
H238 H 0.66164 0.62097 0.04729 0.0
H239 H 0.70349 0.57371 0.01671 0.0
S240 S 0.75564 0.73461 0.88237 0.0
N241 N 0.7204 0.73596 0.92603 0.0
N242 N 0.76473 0.68416 0.89205 0.0
C243 C 0.73879 0.66612 0.93252 0.0
C244 C 0.71476 0.69415 0.95087 0.0
C245 C 0.29556 0.09001 0.01679 0.0
C246 C 0.34276 0.12219 -0.00698 0.0
C247 C 0.27361 0.03528 0.01742 0.0
C248 C 0.29724 0.01136 -0.0073 0.0
H249 H 0.2748 0.1072 0.03389 0.0
H250 H 0.23684 0.01147 0.03559 0.0
S251 S 0.42218 0.07863 0.92654 0.0
N252 N 0.4139 0.12681 0.9464 0.0
N253 N 0.37143 0.02365 0.94579 0.0
C254 C 0.34517 0.04323 0.96984 0.0
C255 C 0.36833 0.09889 0.97048 0.0
C256 C 0.90412 0.30865 0.96162 0.0
C257 C 0.93483 0.29197 0.98571 0.0
C258 C 0.85076 0.27386 0.95292 0.0
C259 C 0.82713 0.22118 0.9671 0.0
H260 H 0.92154 0.34878 0.94923 0.0
H261 H 0.8286 0.28759 0.93321 0.0
S262 S 0.88978 0.15901 0.03333 0.0
N263 N 0.93722 0.22052 0.02584 0.0
N264 N 0.83719 0.1544 0.00805 0.0
C265 C 0.85702 0.20441 -0.00779 0.0
C266 C 0.91093 0.24009 0.00197 0.0
C267 C 0.29539 0.20937 0.52954 0.0
C268 C 0.34111 0.21191 0.51095 0.0
C269 C 0.27644 0.24154 0.51312 0.0
C270 C 0.30181 0.27657 0.47687 0.0
H271 H 0.27449 0.18302 0.55772 0.0
H272 H 0.24197 0.23938 0.52923 0.0
S273 S 0.4229 0.29907 0.41628 0.0
N274 N 0.41151 0.25284 0.45438 0.0
N275 N 0.37503 0.31299 0.42293 0.0
C276 C 0.34701 0.27918 0.45732 0.0
C277 C 0.36698 0.24697 0.4746 0.0
C278 C 0.71475 0.08675 0.4666 0.0
C279 C 0.75423 0.10685 0.50011 0.0
C280 C 0.68015 0.03247 0.46305 0.0
C281 C 0.6833 -0.00303 0.49365 0.0
H282 H 0.71055 0.11307 0.44313 0.0
H283 H 0.64961 0.01841 0.43725 0.0
S284 S 0.77948 0.03008 0.58767 0.0
N285 N 0.79479 0.08726 0.56425 0.0
N286 N 0.7291 -0.01452 0.55799 0.0
C287 C 0.72279 0.01663 0.52707 0.0
C288 C 0.75848 0.07159 0.53019 0.0
C289 C 0.90485 0.63276 0.45991 0.0
C290 C 0.94548 0.67474 0.48411 0.0
C291 C 0.85394 0.60448 0.4782 0.0
C292 C 0.84173 0.61757 0.52108 0.0
H293 H 0.91302 0.61959 0.42786 0.0
H294 H 0.82431 0.57143 0.45894 0.0
S295 S 0.933 0.72835 0.59542 0.0
N296 N 0.96942 0.73097 0.55113 0.0
N297 N 0.87356 0.67823 0.58552 0.0
C298 C 0.88136 0.66141 0.54441 0.0
C299 C 0.93325 0.68995 0.52587 0.0
C300 C 0.18362 0.35493 0.23764 0.0
C301 C 0.21907 0.40186 0.25999 0.0
C302 C 0.15853 0.35563 0.19718 0.0
C303 C 0.16816 0.40329 0.17712 0.0
H304 H 0.17403 0.31707 0.25201 0.0
H305 H 0.13141 0.31832 0.18151 0.0
S306 S 0.25931 0.53744 0.22091 0.0
N307 N 0.26371 0.49759 0.25839 0.0
N308 N 0.21687 0.49891 0.18198 0.0
C309 C 0.20439 0.45067 0.19852 0.0
C310 C 0.22977 0.44995 0.23999 0.0
C311 C 0.50464 0.72133 0.24064 0.0
C312 C 0.55245 0.72952 0.2214 0.0
C313 C 0.50308 0.74069 0.28431 0.0
C314 C 0.54944 0.7698 0.30981 0.0
H315 H 0.46828 0.70078 0.22148 0.0
H316 H 0.46564 0.73411 0.29758 0.0
S317 S 0.68398 0.79843 0.27692 0.0
N318 N 0.64669 0.7657 0.23307 0.0
N319 N 0.64379 0.8026 0.31424 0.0
C320 C 0.59712 0.77679 0.29162 0.0
C321 C 0.59861 0.75647 0.2477 0.0
C322 C 0.1362 0.779 0.18634 0.0
C323 C 0.17299 0.76836 0.16482 0.0
C324 C 0.11646 0.75955 0.23001 0.0
C325 C 0.13311 0.72908 0.25449 0.0
H326 H 0.12262 0.80302 0.16946 0.0
H327 H 0.08911 0.77005 0.24518 0.0
S328 S 0.22662 0.68722 0.21259 0.0
N329 N 0.22337 0.72294 0.17028 0.0
N330 N 0.18691 0.68697 0.25305 0.0
C331 C 0.16883 0.71678 0.23298 0.0
C332 C 0.18857 0.73622 0.18801 0.0
C333 C 0.68374 0.46002 0.77873 0.0
C334 C 0.73298 0.46265 0.78199 0.0
C335 C 0.66205 0.45984 0.73593 0.0
C336 C 0.68802 0.46031 0.69524 0.0
H337 H 0.66451 0.4636 0.80919 0.0
H338 H 0.62673 0.46307 0.73464 0.0
S339 S 0.81335 0.45797 0.68591 0.0
N340 N 0.80413 0.45992 0.74153 0.0
N341 N 0.76202 0.45659 0.66102 0.0
C342 C 0.73422 0.45689 0.69827 0.0
C343 C 0.75715 0.45888 0.74177 0.0
C344 C 0.36307 0.16722 0.78085 0.0
C345 C 0.40907 0.21038 0.79814 0.0
C346 C 0.36357 0.14334 0.73967 0.0
C347 C 0.40998 0.16198 0.71353 0.0
H348 H 0.326 0.15168 0.79919 0.0
H349 H 0.32664 0.11097 0.7276 0.0
S350 S 0.54201 0.27232 0.74496 0.0
N351 N 0.50311 0.2693 0.78739 0.0
N352 N 0.50405 0.22501 0.70909 0.0
C353 C 0.45682 0.20422 0.73105 0.0
C354 C 0.45637 0.22825 0.77354 0.0
C355 C 0.72044 0.20265 0.74633 0.0
C356 C 0.72483 0.16091 0.76573 0.0
C357 C 0.74629 0.22667 0.70522 0.0
C358 C 0.77826 0.21048 0.68252 0.0
H359 H 0.69754 0.21751 0.76334 0.0
H360 H 0.74193 0.25869 0.69157 0.0
S361 S 0.79932 0.10016 0.71651 0.0
N362 N 0.76099 0.10228 0.75703 0.0
N363 N 0.80998 0.14791 0.68051 0.0
C364 C 0.78197 0.16804 0.70087 0.0
C365 C 0.7551 0.14309 0.74222 0.0
C366 C 0.00323 0.51059 0.96881 0.0
C367 C 0.01591 0.49675 0.01101 0.0
C368 C 0.95572 0.51017 0.96266 0.0
C369 C 0.91913 0.49702 -0.00131 0.0
H370 H 0.02918 0.51981 0.9395 0.0
H371 H 0.94828 0.52135 0.92935 0.0
S372 S 0.93421 0.4596 0.11662 0.0
N373 N -0.01165 0.46987 0.08976 0.0
N374 N 0.89947 0.47117 0.0786 0.0
C375 C 0.9317 0.48423 0.04147 0.0
C376 C -0.02007 0.48367 0.04753 0.0
C377 C 0.50993 0.52435 0.0291 0.0
C378 C 0.48608 0.54477 -8e-05 0.0
C379 C 0.50794 0.47661 0.0198 0.0
C380 C 0.48157 0.44665 0.98111 0.0
H381 H 0.53146 0.54587 0.05914 0.0
H382 H 0.52633 0.46262 0.0439 0.0
S383 S 0.41237 0.48224 0.8936 0.0
N384 N 0.4354 0.53134 0.93044 0.0
N385 N 0.43114 0.4412 0.91296 0.0
C386 C 0.45778 0.46668 0.95132 0.0
C387 C 0.45994 0.51559 0.96082 0.0
C388 C 0.44044 0.93194 0.94381 0.0
C389 C 0.40709 0.92622 0.98081 0.0
C390 C 0.48824 -0.02137 0.93691 0.0
C391 C 0.50515 0.02179 0.96681 0.0
H392 H 0.42913 0.90048 0.91924 0.0
H393 H 0.51251 -0.01966 0.90815 0.0
S394 S 0.43235 0.02797 0.06874 0.0
N395 N 0.39459 0.96842 0.04792 0.0
N396 N 0.48431 0.05598 0.03468 0.0
C397 C 0.47242 0.01668 0.00412 0.0
C398 C 0.42369 0.96899 0.01131 0.0
C399 C 0.47556 0.94915 0.46683 0.0
C400 C 0.47128 0.91967 0.50636 0.0
C401 C 0.4738 -0.00396 0.46937 0.0
C402 C 0.4678 0.01564 0.51159 0.0
H403 H 0.48134 0.9365 0.43354 0.0
H404 H 0.47627 0.01653 0.43777 0.0
S405 S 0.45509 0.95387 0.62561 0.0
N406 N 0.46036 0.91367 0.58928 0.0
N407 N 0.45797 0.00195 0.59407 0.0
C408 C 0.46343 -0.01343 0.55145 0.0
C409 C 0.46463 0.93853 0.54882 0.0
C410 C 0.96289 0.45708 0.51488 0.0
C411 C 0.91714 0.43611 0.48762 0.0
C412 C 0.00661 0.50654 0.50566 0.0
C413 C 0.00662 0.53735 0.46877 0.0
H414 H 0.96586 0.43451 0.54295 0.0
H415 H 0.04069 0.52066 0.52771 0.0
S416 S 0.89493 0.50277 0.38916 0.0
N417 N 0.87346 0.45152 0.42371 0.0
N418 N 0.95535 0.54447 0.40624 0.0
C419 C 0.96063 0.51745 0.44177 0.0
C420 C 0.91599 0.46705 0.45133 0.0
C421 C 0.46149 0.49694 0.49766 0.0
C422 C 0.4368 0.48131 0.45479 0.0
C423 C 0.50895 0.49812 0.50648 0.0
C424 C 0.53445 0.48457 0.47264 0.0
H425 H 0.44336 0.50691 0.52537 0.0
H426 H 0.52633 0.51109 0.54001 0.0
S427 S 0.48784 0.4428 0.35403 0.0
N428 N 0.44215 0.45279 0.37758 0.0
N429 N 0.53243 0.45637 0.39415 0.0
C430 C 0.51103 0.46993 0.42927 0.0
C431 C 0.46212 0.46811 0.42033 0.0
loop_
_geom_bond_atom_site_label_1
_geom_bond_atom_site_label_2
_geom_bond_distance
_geom_bond_site_symmetry_2
_ccdc_geom_bond_type
C0 O1 1.306 . S
C0 O3 1.160 . S
O1 C0 1.306 . S
O1 Cd2 2.228 1_554 S
Cd2 O1 2.228 1_556 S
Cd2 O6 2.273 1_556 S
Cd2 O10 2.277 1_556 S
O3 C0 1.160 . S
O3 Cd4 2.203 . S
Cd4 O3 2.203 . S
Cd4 O6 2.411 . S
Cd4 O7 2.333 . S
Cd4 O8 2.352 . S
Cd4 O12 2.277 1_455 S
Cd4 O13 2.356 . S
C5 O10 1.209 1_655 S
C5 O12 1.226 . S
O6 Cd2 2.273 1_554 S
O6 Cd4 2.411 . S
O6 C9 1.320 . S
O7 Cd4 2.333 . S
O7 C9 1.214 . S
O8 Cd4 2.352 . S
O8 C11 1.258 . S
C9 O6 1.320 . S
C9 O7 1.214 . S
O10 Cd2 2.277 1_554 S
O10 C5 1.209 1_455 S
C11 O8 1.258 . S
C11 O13 1.282 . S
O12 Cd4 2.277 1_655 S
O12 C5 1.226 . S
O13 Cd4 2.356 . S
O13 C11 1.282 . S
C14 O15 1.306 . S
C14 O17 1.160 . S
O15 C14 1.306 . S
O15 Cd16 2.228 1_554 S
Cd16 O15 2.228 1_556 S
Cd16 O20 2.273 1_556 S
Cd16 O24 2.277 1_556 S
O17 C14 1.160 . S
O17 Cd18 2.203 . S
Cd18 O17 2.203 . S
Cd18 O20 2.411 . S
Cd18 O21 2.333 . S
Cd18 O22 2.352 . S
Cd18 O26 2.277 . S
Cd18 O27 2.356 . S
C19 O24 1.209 . S
C19 O26 1.226 . S
O20 Cd16 2.273 1_554 S
O20 Cd18 2.411 . S
O20 C23 1.320 . S
O21 Cd18 2.333 . S
O21 C23 1.214 . S
O22 Cd18 2.352 . S
O22 C25 1.258 . S
C23 O20 1.320 . S
C23 O21 1.214 . S
O24 Cd16 2.277 1_554 S
O24 C19 1.209 . S
C25 O22 1.258 . S
C25 O27 1.282 . S
O26 Cd18 2.277 . S
O26 C19 1.226 . S
O27 Cd18 2.356 . S
O27 C25 1.282 . S
C28 O29 1.306 . S
C28 O31 1.160 . S
O29 C28 1.306 . S
O29 Cd30 2.228 1_554 S
Cd30 O29 2.228 1_556 S
Cd30 O34 2.273 1_556 S
Cd30 O38 2.277 1_556 S
O31 C28 1.160 . S
O31 Cd32 2.203 . S
Cd32 O31 2.203 . S
Cd32 O34 2.411 . S
Cd32 O35 2.333 . S
Cd32 O36 2.352 . S
Cd32 O40 2.277 1_565 S
Cd32 O41 2.356 . S
C33 O38 1.209 1_545 S
C33 O40 1.226 . S
O34 Cd30 2.273 1_554 S
O34 Cd32 2.411 . S
O34 C37 1.320 . S
O35 Cd32 2.333 . S
O35 C37 1.214 . S
O36 Cd32 2.352 . S
O36 C39 1.258 . S
C37 O34 1.320 . S
C37 O35 1.214 . S
O38 Cd30 2.277 1_554 S
O38 C33 1.209 1_565 S
C39 O36 1.258 . S
C39 O41 1.282 . S
O40 Cd32 2.277 1_545 S
O40 C33 1.226 . S
O41 Cd32 2.356 . S
O41 C39 1.282 . S
C42 O43 1.306 . S
C42 O45 1.160 . S
O43 C42 1.306 . S
O43 Cd44 2.228 . S
Cd44 O43 2.228 . S
Cd44 O48 2.273 . S
Cd44 O52 2.277 . S
O45 C42 1.160 . S
O45 Cd46 2.203 . S
Cd46 O45 2.203 . S
Cd46 O48 2.411 . S
Cd46 O49 2.333 . S
Cd46 O50 2.352 . S
Cd46 O54 2.277 1_565 S
Cd46 O55 2.356 . S
C47 O52 1.209 1_545 S
C47 O54 1.226 . S
O48 Cd44 2.273 . S
O48 Cd46 2.411 . S
O48 C51 1.320 . S
O49 Cd46 2.333 . S
O49 C51 1.214 . S
O50 Cd46 2.352 . S
O50 C53 1.258 . S
C51 O48 1.320 . S
C51 O49 1.214 . S
O52 Cd44 2.277 . S
O52 C47 1.209 1_565 S
C53 O50 1.258 . S
C53 O55 1.282 . S
O54 Cd46 2.277 1_545 S
O54 C47 1.226 . S
O55 Cd46 2.356 . S
O55 C53 1.282 . S
C56 O57 1.306 . S
C56 O59 1.160 . S
O57 C56 1.306 . S
O57 Cd58 2.228 . S
Cd58 O57 2.228 . S
Cd58 O62 2.273 . S
Cd58 O66 2.277 . S
O59 C56 1.160 . S
O59 Cd60 2.203 . S
Cd60 O59 2.203 . S
Cd60 O62 2.411 . S
Cd60 O63 2.333 . S
Cd60 O64 2.352 . S
Cd60 O68 2.277 1_455 S
Cd60 O69 2.356 . S
C61 O66 1.209 1_655 S
C61 O68 1.226 . S
O62 Cd58 2.273 . S
O62 Cd60 2.411 . S
O62 C65 1.320 . S
O63 Cd60 2.333 . S
O63 C65 1.214 . S
O64 Cd60 2.352 . S
O64 C67 1.258 . S
C65 O62 1.320 . S
C65 O63 1.214 . S
O66 Cd58 2.277 . S
O66 C61 1.209 1_455 S
C67 O64 1.258 . S
C67 O69 1.282 . S
O68 Cd60 2.277 1_655 S
O68 C61 1.226 . S
O69 Cd60 2.356 . S
O69 C67 1.282 . S
C70 O71 1.306 . S
C70 O73 1.160 . S
O71 C70 1.306 . S
O71 Cd72 2.228 . S
Cd72 O71 2.228 . S
Cd72 O76 2.273 . S
Cd72 O80 2.277 . S
O73 C70 1.160 . S
O73 Cd74 2.203 . S
Cd74 O73 2.203 . S
Cd74 O76 2.411 . S
Cd74 O77 2.333 . S
Cd74 O78 2.352 . S
Cd74 O82 2.277 . S
Cd74 O83 2.356 . S
C75 O80 1.209 . S
C75 O82 1.226 . S
O76 Cd72 2.273 . S
O76 Cd74 2.411 . S
O76 C79 1.320 . S
O77 Cd74 2.333 . S
O77 C79 1.214 . S
O78 Cd74 2.352 . S
O78 C81 1.258 . S
C79 O76 1.320 . S
C79 O77 1.214 . S
O80 Cd72 2.277 . S
O80 C75 1.209 . S
C81 O78 1.258 . S
C81 O83 1.282 . S
O82 Cd74 2.277 . S
O82 C75 1.226 . S
O83 Cd74 2.356 . S
O83 C81 1.282 . S
C84 O85 1.306 . S
C84 O87 1.160 . S
O85 C84 1.306 . S
O85 Cd86 2.228 1_556 S
Cd86 O85 2.228 1_554 S
Cd86 O90 2.273 1_554 S
Cd86 O94 2.277 1_554 S
O87 C84 1.160 . S
O87 Cd88 2.203 . S
Cd88 O87 2.203 . S
Cd88 O90 2.411 . S
Cd88 O91 2.333 . S
Cd88 O92 2.352 . S
Cd88 O96 2.277 1_655 S
Cd88 O97 2.356 . S
C89 O94 1.209 1_455 S
C89 O96 1.226 . S
O90 Cd86 2.273 1_556 S
O90 Cd88 2.411 . S
O90 C93 1.320 . S
O91 Cd88 2.333 . S
O91 C93 1.214 . S
O92 Cd88 2.352 . S
O92 C95 1.258 . S
C93 O90 1.320 . S
C93 O91 1.214 . S
O94 Cd86 2.277 1_556 S
O94 C89 1.209 1_655 S
C95 O92 1.258 . S
C95 O97 1.282 . S
O96 Cd88 2.277 1_455 S
O96 C89 1.226 . S
O97 Cd88 2.356 . S
O97 C95 1.282 . S
C98 O99 1.306 . S
C98 O101 1.160 . S
O99 C98 1.306 . S
O99 Cd100 2.228 1_556 S
Cd100 O99 2.228 1_554 S
Cd100 O104 2.273 1_554 S
Cd100 O108 2.277 1_554 S
O101 C98 1.160 . S
O101 Cd102 2.203 . S
Cd102 O101 2.203 . S
Cd102 O104 2.411 . S
Cd102 O105 2.333 . S
Cd102 O106 2.352 . S
Cd102 O110 2.277 . S
Cd102 O111 2.356 . S
C103 O108 1.209 . S
C103 O110 1.226 . S
O104 Cd100 2.273 1_556 S
O104 Cd102 2.411 . S
O104 C107 1.320 . S
O105 Cd102 2.333 . S
O105 C107 1.214 . S
O106 Cd102 2.352 . S
O106 C109 1.258 . S
C107 O104 1.320 . S
C107 O105 1.214 . S
O108 Cd100 2.277 1_556 S
O108 C103 1.209 . S
C109 O106 1.258 . S
C109 O111 1.282 . S
O110 Cd102 2.277 . S
O110 C103 1.226 . S
O111 Cd102 2.356 . S
O111 C109 1.282 . S
C112 O113 1.306 . S
C112 O115 1.160 . S
O113 C112 1.306 . S
O113 Cd114 2.228 1_556 S
Cd114 O113 2.228 1_554 S
Cd114 O118 2.273 1_554 S
Cd114 O122 2.277 1_554 S
O115 C112 1.160 . S
O115 Cd116 2.203 . S
Cd116 O115 2.203 . S
Cd116 O118 2.411 . S
Cd116 O119 2.333 . S
Cd116 O120 2.352 . S
Cd116 O124 2.277 1_545 S
Cd116 O125 2.356 . S
C117 O122 1.209 1_565 S
C117 O124 1.226 . S
O118 Cd114 2.273 1_556 S
O118 Cd116 2.411 . S
O118 C121 1.320 . S
O119 Cd116 2.333 . S
O119 C121 1.214 . S
O120 Cd116 2.352 . S
O120 C123 1.258 . S
C121 O118 1.320 . S
C121 O119 1.214 . S
O122 Cd114 2.277 1_556 S
O122 C117 1.209 1_545 S
C123 O120 1.258 . S
C123 O125 1.282 . S
O124 Cd116 2.277 1_565 S
O124 C117 1.226 . S
O125 Cd116 2.356 . S
O125 C123 1.282 . S
C126 O127 1.306 . S
C126 O129 1.160 . S
O127 C126 1.306 . S
O127 Cd128 2.228 . S
Cd128 O127 2.228 . S
Cd128 O132 2.273 . S
Cd128 O136 2.277 . S
O129 C126 1.160 . S
O129 Cd130 2.203 . S
Cd130 O129 2.203 . S
Cd130 O132 2.411 . S
Cd130 O133 2.333 . S
Cd130 O134 2.352 . S
Cd130 O138 2.277 1_545 S
Cd130 O139 2.356 . S
C131 O136 1.209 1_565 S
C131 O138 1.226 . S
O132 Cd128 2.273 . S
O132 Cd130 2.411 . S
O132 C135 1.320 . S
O133 Cd130 2.333 . S
O133 C135 1.214 . S
O134 Cd130 2.352 . S
O134 C137 1.258 . S
C135 O132 1.320 . S
C135 O133 1.214 . S
O136 Cd128 2.277 . S
O136 C131 1.209 1_545 S
C137 O134 1.258 . S
C137 O139 1.282 . S
O138 Cd130 2.277 1_565 S
O138 C131 1.226 . S
O139 Cd130 2.356 . S
O139 C137 1.282 . S
C140 O141 1.306 . S
C140 O143 1.160 . S
O141 C140 1.306 . S
O141 Cd142 2.228 . S
Cd142 O141 2.228 . S
Cd142 O146 2.273 . S
Cd142 O150 2.277 . S
O143 C140 1.160 . S
O143 Cd144 2.203 . S
Cd144 O143 2.203 . S
Cd144 O146 2.411 . S
Cd144 O147 2.333 . S
Cd144 O148 2.352 . S
Cd144 O152 2.277 1_655 S
Cd144 O153 2.356 . S
C145 O150 1.209 1_455 S
C145 O152 1.226 . S
O146 Cd142 2.273 . S
O146 Cd144 2.411 . S
O146 C149 1.320 . S
O147 Cd144 2.333 . S
O147 C149 1.214 . S
O148 Cd144 2.352 . S
O148 C151 1.258 . S
C149 O146 1.320 . S
C149 O147 1.214 . S
O150 Cd142 2.277 . S
O150 C145 1.209 1_655 S
C151 O148 1.258 . S
C151 O153 1.282 . S
O152 Cd144 2.277 1_455 S
O152 C145 1.226 . S
O153 Cd144 2.356 . S
O153 C151 1.282 . S
C154 O155 1.306 . S
C154 O157 1.160 . S
O155 C154 1.306 . S
O155 Cd156 2.228 . S
Cd156 O155 2.228 . S
Cd156 O160 2.273 . S
Cd156 O164 2.277 . S
O157 C154 1.160 . S
O157 Cd158 2.203 . S
Cd158 O157 2.203 . S
Cd158 O160 2.411 . S
Cd158 O161 2.333 . S
Cd158 O162 2.352 . S
Cd158 O166 2.277 . S
Cd158 O167 2.356 . S
C159 O164 1.209 . S
C159 O166 1.226 . S
O160 Cd156 2.273 . S
O160 Cd158 2.411 . S
O160 C163 1.320 . S
O161 Cd158 2.333 . S
O161 C163 1.214 . S
O162 Cd158 2.352 . S
O162 C165 1.258 . S
C163 O160 1.320 . S
C163 O161 1.214 . S
O164 Cd156 2.277 . S
O164 C159 1.209 . S
C165 O162 1.258 . S
C165 O167 1.282 . S
O166 Cd158 2.277 . S
O166 C159 1.226 . S
O167 Cd158 2.356 . S
O167 C165 1.282 . S
C168 C169 1.369 . S
C168 C170 1.419 . S
C168 H172 0.930 . S
C169 C168 1.369 . S
C169 C178 1.429 1_554 S
C170 C168 1.419 . S
C170 C171 1.363 1_554 S
C170 H173 0.929 . S
C171 C170 1.363 1_556 S
C171 C177 1.428 . S
H172 C168 0.930 . S
H173 C170 0.929 . S
S174 N175 1.613 . S
S174 N176 1.610 . S
N175 S174 1.613 . S
N175 C178 1.350 . S
N176 S174 1.610 . S
N176 C177 1.351 . S
C177 C171 1.428 . S
C177 N176 1.351 . S
C177 C178 1.434 . S
C178 C169 1.429 1_556 S
C178 N175 1.350 . S
C178 C177 1.434 . S
C179 C180 1.369 . S
C179 C181 1.420 . S
C179 H183 0.930 . S
C180 C179 1.369 . S
C180 C189 1.429 1_554 S
C181 C179 1.420 . S
C181 C182 1.362 1_554 S
C181 H184 0.930 . S
C182 C181 1.362 1_556 S
C182 C188 1.428 . S
H183 C179 0.930 . S
H184 C181 0.930 . S
S185 N186 1.613 . S
S185 N187 1.610 . S
N186 S185 1.613 . S
N186 C189 1.350 . S
N187 S185 1.610 . S
N187 C188 1.351 . S
C188 C182 1.428 . S
C188 N187 1.351 . S
C188 C189 1.434 . S
C189 C180 1.429 1_556 S
C189 N186 1.350 . S
C189 C188 1.434 . S
C190 C191 1.369 . S
C190 C192 1.419 1_554 S
C190 H194 0.930 . S
C191 C190 1.369 . S
C191 C200 1.429 1_554 S
C192 C190 1.419 1_556 S
C192 C193 1.363 . S
C192 H195 0.929 . S
C193 C192 1.363 . S
C193 C199 1.428 . S
H194 C190 0.930 . S
H195 C192 0.929 . S
S196 N197 1.613 . S
S196 N198 1.610 . S
N197 S196 1.613 . S
N197 C200 1.350 . S
N198 S196 1.610 . S
N198 C199 1.351 . S
C199 C193 1.428 . S
C199 N198 1.351 . S
C199 C200 1.434 . S
C200 C191 1.429 1_556 S
C200 N197 1.350 . S
C200 C199 1.434 . S
C201 C202 1.369 . S
C201 C203 1.419 . S
C201 H205 0.930 . S
C202 C201 1.369 . S
C202 C211 1.429 . S
C203 C201 1.419 . S
C203 C204 1.363 . S
C203 H206 0.929 . S
C204 C203 1.363 . S
C204 C210 1.428 . S
H205 C201 0.930 . S
H206 C203 0.929 . S
S207 N208 1.613 . S
S207 N209 1.610 . S
N208 S207 1.613 . S
N208 C211 1.350 . S
N209 S207 1.610 . S
N209 C210 1.351 . S
C210 C204 1.428 . S
C210 N209 1.351 . S
C210 C211 1.434 . S
C211 C202 1.429 . S
C211 N208 1.350 . S
C211 C210 1.434 . S
C212 C213 1.369 . S
C212 C214 1.419 . S
C212 H216 0.930 . S
C213 C212 1.369 . S
C213 C222 1.429 . S
C214 C212 1.419 . S
C214 C215 1.363 . S
C214 H217 0.929 . S
C215 C214 1.363 . S
C215 C221 1.428 . S
H216 C212 0.930 . S
H217 C214 0.929 . S
S218 N219 1.613 . S
S218 N220 1.610 . S
N219 S218 1.613 . S
N219 C222 1.350 . S
N220 S218 1.610 . S
N220 C221 1.351 . S
C221 C215 1.428 . S
C221 N220 1.351 . S
C221 C222 1.434 . S
C222 C213 1.429 . S
C222 N219 1.350 . S
C222 C221 1.434 . S
C223 C224 1.369 . S
C223 C225 1.419 . S
C223 H227 0.930 . S
C224 C223 1.369 . S
C224 C233 1.429 . S
C225 C223 1.419 . S
C225 C226 1.363 . S
C225 H228 0.929 . S
C226 C225 1.363 . S
C226 C232 1.428 . S
H227 C223 0.930 . S
H228 C225 0.929 . S
S229 N230 1.613 . S
S229 N231 1.610 . S
N230 S229 1.613 . S
N230 C233 1.350 . S
N231 S229 1.610 . S
N231 C232 1.351 . S
C232 C226 1.428 . S
C232 N231 1.351 . S
C232 C233 1.434 . S
C233 C224 1.429 . S
C233 N230 1.350 . S
C233 C232 1.434 . S
C234 C235 1.369 . S
C234 C236 1.419 . S
C234 H238 0.930 . S
C235 C234 1.369 . S
C235 C244 1.429 1_554 S
C236 C234 1.419 . S
C236 C237 1.363 1_554 S
C236 H239 0.929 . S
C237 C236 1.363 1_556 S
C237 C243 1.428 . S
H238 C234 0.930 . S
H239 C236 0.929 . S
S240 N241 1.613 . S
S240 N242 1.610 . S
N241 S240 1.613 . S
N241 C244 1.350 . S
N242 S240 1.610 . S
N242 C243 1.351 . S
C243 C237 1.428 . S
C243 N242 1.351 . S
C243 C244 1.434 . S
C244 C235 1.429 1_556 S
C244 N241 1.350 . S
C244 C243 1.434 . S
C245 C246 1.369 1_554 S
C245 C247 1.419 . S
C245 H249 0.930 . S
C246 C245 1.369 1_556 S
C246 C255 1.429 . S
C247 C245 1.419 . S
C247 C248 1.363 . S
C247 H250 0.929 . S
C248 C247 1.363 . S
C248 C254 1.428 1_554 S
H249 C245 0.930 . S
H250 C247 0.929 . S
S251 N252 1.613 . S
S251 N253 1.610 . S
N252 S251 1.613 . S
N252 C255 1.350 . S
N253 S251 1.610 . S
N253 C254 1.351 . S
C254 C248 1.428 1_556 S
C254 N253 1.351 . S
C254 C255 1.434 . S
C255 C246 1.429 . S
C255 N252 1.350 . S
C255 C254 1.434 . S
C256 C257 1.369 1_556 S
C256 C258 1.419 . S
C256 H260 0.930 . S
C257 C256 1.369 1_554 S
C257 C266 1.429 . S
C258 C256 1.419 . S
C258 C259 1.363 . S
C258 H261 0.929 . S
C259 C258 1.363 . S
C259 C265 1.428 1_556 S
H260 C256 0.930 . S
H261 C258 0.929 . S
S262 N263 1.613 . S
S262 N264 1.610 . S
N263 S262 1.613 . S
N263 C266 1.350 . S
N264 S262 1.610 . S
N264 C265 1.351 . S
C265 C259 1.428 1_554 S
C265 N264 1.351 . S
C265 C266 1.434 . S
C266 C257 1.429 . S
C266 N263 1.350 . S
C266 C265 1.434 . S
C267 C268 1.369 . S
C267 C269 1.419 . S
C267 H271 0.930 . S
C268 C267 1.369 . S
C268 C277 1.429 . S
C269 C267 1.419 . S
C269 C270 1.363 . S
C269 H272 0.929 . S
C270 C269 1.363 . S
C270 C276 1.428 . S
H271 C267 0.930 . S
H272 C269 0.929 . S
S273 N274 1.613 . S
S273 N275 1.610 . S
N274 S273 1.613 . S
N274 C277 1.350 . S
N275 S273 1.610 . S
N275 C276 1.351 . S
C276 C270 1.428 . S
C276 N275 1.351 . S
C276 C277 1.434 . S
C277 C268 1.429 . S
C277 N274 1.350 . S
C277 C276 1.434 . S
C278 C279 1.369 . S
C278 C280 1.419 . S
C278 H282 0.930 . S
C279 C278 1.369 . S
C279 C288 1.429 . S
C280 C278 1.419 . S
C280 C281 1.363 . S
C280 H283 0.929 . S
C281 C280 1.363 . S
C281 C287 1.428 . S
H282 C278 0.930 . S
H283 C280 0.929 . S
S284 N285 1.613 . S
S284 N286 1.610 . S
N285 S284 1.613 . S
N285 C288 1.350 . S
N286 S284 1.610 . S
N286 C287 1.351 . S
C287 C281 1.428 . S
C287 N286 1.351 . S
C287 C288 1.434 . S
C288 C279 1.429 . S
C288 N285 1.350 . S
C288 C287 1.434 . S
C289 C290 1.369 . S
C289 C291 1.419 . S
C289 H293 0.930 . S
C290 C289 1.369 . S
C290 C299 1.429 . S
C291 C289 1.419 . S
C291 C292 1.363 . S
C291 H294 0.929 . S
C292 C291 1.363 . S
C292 C298 1.428 . S
H293 C289 0.930 . S
H294 C291 0.929 . S
S295 N296 1.613 . S
S295 N297 1.610 . S
N296 S295 1.613 . S
N296 C299 1.350 . S
N297 S295 1.610 . S
N297 C298 1.351 . S
C298 C292 1.428 . S
C298 N297 1.351 . S
C298 C299 1.434 . S
C299 C290 1.429 . S
C299 N296 1.350 . S
C299 C298 1.434 . S
C300 C301 1.369 . S
C300 C302 1.419 . S
C300 H304 0.930 . S
C301 C300 1.369 . S
C301 C310 1.429 . S
C302 C300 1.419 . S
C302 C303 1.363 . S
C302 H305 0.929 . S
C303 C302 1.363 . S
C303 C309 1.428 . S
H304 C300 0.930 . S
H305 C302 0.929 . S
S306 N307 1.613 . S
S306 N308 1.610 . S
N307 S306 1.613 . S
N307 C310 1.350 . S
N308 S306 1.610 . S
N308 C309 1.351 . S
C309 C303 1.428 . S
C309 N308 1.351 . S
C309 C310 1.434 . S
C310 C301 1.429 . S
C310 N307 1.350 . S
C310 C309 1.434 . S
C311 C312 1.369 . S
C311 C313 1.419 . S
C311 H315 0.930 . S
C312 C311 1.369 . S
C312 C321 1.429 . S
C313 C311 1.419 . S
C313 C314 1.363 . S
C313 H316 0.929 . S
C314 C313 1.363 . S
C314 C320 1.428 . S
H315 C311 0.930 . S
H316 C313 0.929 . S
S317 N318 1.613 . S
S317 N319 1.610 . S
N318 S317 1.613 . S
N318 C321 1.350 . S
N319 S317 1.610 . S
N319 C320 1.351 . S
C320 C314 1.428 . S
C320 N319 1.351 . S
C320 C321 1.434 . S
C321 C312 1.429 . S
C321 N318 1.350 . S
C321 C320 1.434 . S
C322 C323 1.369 . S
C322 C324 1.419 . S
C322 H326 0.930 . S
C323 C322 1.369 . S
C323 C332 1.429 . S
C324 C322 1.419 . S
C324 C325 1.363 . S
C324 H327 0.929 . S
C325 C324 1.363 . S
C325 C331 1.428 . S
H326 C322 0.930 . S
H327 C324 0.929 . S
S328 N329 1.613 . S
S328 N330 1.610 . S
N329 S328 1.613 . S
N329 C332 1.350 . S
N330 S328 1.610 . S
N330 C331 1.351 . S
C331 C325 1.428 . S
C331 N330 1.351 . S
C331 C332 1.434 . S
C332 C323 1.429 . S
C332 N329 1.350 . S
C332 C331 1.434 . S
C333 C334 1.369 . S
C333 C335 1.419 . S
C333 H337 0.930 . S
C334 C333 1.369 . S
C334 C343 1.429 . S
C335 C333 1.419 . S
C335 C336 1.363 . S
C335 H338 0.929 . S
C336 C335 1.363 . S
C336 C342 1.428 . S
H337 C333 0.930 . S
H338 C335 0.929 . S
S339 N340 1.613 . S
S339 N341 1.610 . S
N340 S339 1.613 . S
N340 C343 1.350 . S
N341 S339 1.610 . S
N341 C342 1.351 . S
C342 C336 1.428 . S
C342 N341 1.351 . S
C342 C343 1.434 . S
C343 C334 1.429 . S
C343 N340 1.350 . S
C343 C342 1.434 . S
C344 C345 1.369 . S
C344 C346 1.419 . S
C344 H348 0.930 . S
C345 C344 1.369 . S
C345 C354 1.429 . S
C346 C344 1.419 . S
C346 C347 1.363 . S
C346 H349 0.929 . S
C347 C346 1.363 . S
C347 C353 1.428 . S
H348 C344 0.930 . S
H349 C346 0.929 . S
S350 N351 1.613 . S
S350 N352 1.610 . S
N351 S350 1.613 . S
N351 C354 1.350 . S
N352 S350 1.610 . S
N352 C353 1.351 . S
C353 C347 1.428 . S
C353 N352 1.351 . S
C353 C354 1.434 . S
C354 C345 1.429 . S
C354 N351 1.350 . S
C354 C353 1.434 . S
C355 C356 1.369 . S
C355 C357 1.419 . S
C355 H359 0.930 . S
C356 C355 1.369 . S
C356 C365 1.429 . S
C357 C355 1.419 . S
C357 C358 1.363 . S
C357 H360 0.929 . S
C358 C357 1.363 . S
C358 C364 1.428 . S
H359 C355 0.930 . S
H360 C357 0.929 . S
S361 N362 1.613 . S
S361 N363 1.610 . S
N362 S361 1.613 . S
N362 C365 1.350 . S
N363 S361 1.610 . S
N363 C364 1.351 . S
C364 C358 1.428 . S
C364 N363 1.351 . S
C364 C365 1.434 . S
C365 C356 1.429 . S
C365 N362 1.350 . S
C365 C364 1.434 . S
C366 C367 1.369 1_556 S
C366 C368 1.419 . S
C366 H370 0.930 . S
C367 C366 1.369 1_554 S
C367 C376 1.429 1_455 S
C368 C366 1.419 . S
C368 C369 1.363 1_455 S
C368 H371 0.929 . S
C369 C368 1.363 1_655 S
C369 C375 1.428 1_556 S
H370 C366 0.930 . S
H371 C368 0.929 . S
S372 N373 1.613 . S
S372 N374 1.610 . S
N373 S372 1.613 . S
N373 C376 1.350 . S
N374 S372 1.610 . S
N374 C375 1.351 . S
C375 C369 1.428 1_554 S
C375 N374 1.351 . S
C375 C376 1.434 . S
C376 C367 1.429 1_655 S
C376 N373 1.350 . S
C376 C375 1.434 . S
C377 C378 1.369 . S
C377 C379 1.419 . S
C377 H381 0.930 . S
C378 C377 1.369 . S
C378 C387 1.429 1_554 S
C379 C377 1.419 . S
C379 C380 1.363 1_554 S
C379 H382 0.929 . S
C380 C379 1.363 1_556 S
C380 C386 1.428 . S
H381 C377 0.930 . S
H382 C379 0.929 . S
S383 N384 1.613 . S
S383 N385 1.610 . S
N384 S383 1.613 . S
N384 C387 1.350 . S
N385 S383 1.610 . S
N385 C386 1.351 . S
C386 C380 1.428 . S
C386 N385 1.351 . S
C386 C387 1.434 . S
C387 C378 1.429 1_556 S
C387 N384 1.350 . S
C387 C386 1.434 . S
C388 C389 1.369 . S
C388 C390 1.419 1_554 S
C388 H392 0.930 . S
C389 C388 1.369 . S
C389 C398 1.429 1_565 S
C390 C388 1.419 1_556 S
C390 C391 1.363 1_565 S
C390 H393 0.929 . S
C391 C390 1.363 1_545 S
C391 C397 1.428 . S
H392 C388 0.930 . S
H393 C390 0.929 . S
S394 N395 1.613 . S
S394 N396 1.610 1_554 S
N395 S394 1.613 . S
N395 C398 1.350 . S
N396 S394 1.610 1_556 S
N396 C397 1.351 . S
C397 C391 1.428 . S
C397 N396 1.351 . S
C397 C398 1.434 1_556 S
C398 C389 1.429 1_545 S
C398 N395 1.350 . S
C398 C397 1.434 1_554 S
C399 C400 1.369 . S
C399 C401 1.419 . S
C399 H403 0.930 . S
C400 C399 1.369 . S
C400 C409 1.429 1_565 S
C401 C399 1.419 . S
C401 C402 1.363 1_565 S
C401 H404 0.929 . S
C402 C401 1.363 1_545 S
C402 C408 1.428 . S
H403 C399 0.930 . S
H404 C401 0.929 . S
S405 N406 1.613 . S
S405 N407 1.610 . S
N406 S405 1.613 . S
N406 C409 1.350 . S
N407 S405 1.610 . S
N407 C408 1.351 . S
C408 C402 1.428 . S
C408 N407 1.351 . S
C408 C409 1.434 . S
C409 C400 1.429 1_545 S
C409 N406 1.350 . S
C409 C408 1.434 . S
C410 C411 1.369 1_455 S
C410 C412 1.419 . S
C410 H414 0.930 . S
C411 C410 1.369 1_655 S
C411 C420 1.429 . S
C412 C410 1.419 . S
C412 C413 1.363 . S
C412 H415 0.929 . S
C413 C412 1.363 . S
C413 C419 1.428 1_455 S
H414 C410 0.930 . S
H415 C412 0.929 . S
S416 N417 1.613 . S
S416 N418 1.610 . S
N417 S416 1.613 . S
N417 C420 1.350 . S
N418 S416 1.610 . S
N418 C419 1.351 . S
C419 C413 1.428 1_655 S
C419 N418 1.351 . S
C419 C420 1.434 . S
C420 C411 1.429 . S
C420 N417 1.350 . S
C420 C419 1.434 . S
C421 C422 1.369 . S
C421 C423 1.419 . S
C421 H425 0.930 . S
C422 C421 1.369 . S
C422 C431 1.429 . S
C423 C421 1.419 . S
C423 C424 1.363 . S
C423 H426 0.929 . S
C424 C423 1.363 . S
C424 C430 1.428 . S
H425 C421 0.930 . S
H426 C423 0.929 . S
S427 N428 1.613 . S
S427 N429 1.610 . S
N428 S427 1.613 . S
N428 C431 1.350 . S
N429 S427 1.610 . S
N429 C430 1.351 . S
C430 C424 1.428 . S
C430 N429 1.351 . S
C430 C431 1.434 . S
C431 C422 1.429 . S
C431 N428 1.350 . S
C431 C430 1.434 . S
C169 C9 0.968 . S
C171 C103 0.974 . S
C180 C23 0.970 . S
C182 C117 0.972 . S
C191 C37 0.970 . S
C193 C89 0.972 . S
C202 C159 0.975 . S
C204 C51 0.968 . S
C213 C65 0.968 . S
C215 C131 0.972 . S
C224 C145 0.974 . S
C226 C79 0.963 . S
C235 C19 0.973 . S
C237 C93 0.964 . S
C246 C107 0.963 . S
C248 C33 0.973 . S
C257 C5 0.975 . S
C259 C121 0.968 . S
C268 C135 0.968 . S
C270 C75 0.972 . S
C279 C149 0.962 . S
C281 C47 0.975 . S
C290 C61 0.973 . S
C292 C163 0.964 . S
C301 C81 1.621 . S
C303 C11 1.616 . S
C312 C25 1.613 . S
C314 C53 1.617 . S
C323 C39 1.619 . S
C325 C67 1.619 . S
C334 C95 1.618 . S
C336 C165 1.614 . S
C345 C109 1.620 . S
C347 C137 1.619 . S
C356 C123 1.616 . S
C358 C151 1.614 . S
C367 C0 1.631 . S
C369 C84 1.630 . S
C378 C14 1.628 . S
C380 C98 1.634 . S
C389 C28 1.626 . S
C391 C112 1.634 . S
C400 C42 1.625 . S
C402 C126 1.635 . S
C411 C140 1.634 . S
C413 C56 1.628 . S
C422 C70 1.630 . S
C424 C154 1.631 . S
