# Generated by pormake.
# Topology ske, (6)-cn, num edge types: 1
# Building blocks:
#     Node 0, Type 0, BuildingBlock: BETDAH_clean_sbu_0, # of connection points: 6
#     Node 1, Type 0, BuildingBlock: BETDAH_clean_sbu_0, # of connection points: 6
#     Node 2, Type 0, BuildingBlock: BETDAH_clean_sbu_0, # of connection points: 6
#     Node 3, Type 0, BuildingBlock: BETDAH_clean_sbu_0, # of connection points: 6
#     Node 4, Type 0, BuildingBlock: BETDAH_clean_sbu_0, # of connection points: 6
#     Node 5, Type 0, BuildingBlock: BETDAH_clean_sbu_0, # of connection points: 6
#     Node 6, Type 0, BuildingBlock: BETDAH_clean_sbu_0, # of connection points: 6
#     Node 7, Type 0, BuildingBlock: BETDAH_clean_sbu_0, # of connection points: 6
#     Edge 8, Type (0, 0), BuildingBlock: EZIPEK_clean_linker_0, # of connection points: 2
#     Edge 9, Type (0, 0), BuildingBlock: EZIPEK_clean_linker_0, # of connection points: 2
#     Edge 10, Type (0, 0), BuildingBlock: EZIPEK_clean_linker_0, # of connection points: 2
#     Edge 11, Type (0, 0), BuildingBlock: EZIPEK_clean_linker_0, # of connection points: 2
#     Edge 12, Type (0, 0), BuildingBlock: EZIPEK_clean_linker_0, # of connection points: 2
#     Edge 13, Type (0, 0), BuildingBlock: EZIPEK_clean_linker_0, # of connection points: 2
#     Edge 14, Type (0, 0), BuildingBlock: EZIPEK_clean_linker_0, # of connection points: 2
#     Edge 15, Type (0, 0), BuildingBlock: EZIPEK_clean_linker_0, # of connection points: 2
#     Edge 16, Type (0, 0), BuildingBlock: EZIPEK_clean_linker_0, # of connection points: 2
#     Edge 17, Type (0, 0), BuildingBlock: EZIPEK_clean_linker_0, # of connection points: 2
#     Edge 18, Type (0, 0), BuildingBlock: EZIPEK_clean_linker_0, # of connection points: 2
#     Edge 19, Type (0, 0), BuildingBlock: EZIPEK_clean_linker_0, # of connection points: 2
#     Edge 20, Type (0, 0), BuildingBlock: EZIPEK_clean_linker_0, # of connection points: 2
#     Edge 21, Type (0, 0), BuildingBlock: EZIPEK_clean_linker_0, # of connection points: 2
#     Edge 22, Type (0, 0), BuildingBlock: EZIPEK_clean_linker_0, # of connection points: 2
#     Edge 23, Type (0, 0), BuildingBlock: EZIPEK_clean_linker_0, # of connection points: 2
#     Edge 24, Type (0, 0), BuildingBlock: EZIPEK_clean_linker_0, # of connection points: 2
#     Edge 25, Type (0, 0), BuildingBlock: EZIPEK_clean_linker_0, # of connection points: 2
#     Edge 26, Type (0, 0), BuildingBlock: EZIPEK_clean_linker_0, # of connection points: 2
#     Edge 27, Type (0, 0), BuildingBlock: EZIPEK_clean_linker_0, # of connection points: 2
#     Edge 28, Type (0, 0), BuildingBlock: EZIPEK_clean_linker_0, # of connection points: 2
#     Edge 29, Type (0, 0), BuildingBlock: EZIPEK_clean_linker_0, # of connection points: 2
#     Edge 30, Type (0, 0), BuildingBlock: EZIPEK_clean_linker_0, # of connection points: 2
#     Edge 31, Type (0, 0), BuildingBlock: EZIPEK_clean_linker_0, # of connection points: 2
# Relax obj value: 0.204
# Max RMSD: 0.215
# Mean RMSD: 0.208
data_MOF--net-ske--node1-BETDAH_clean_sbu_0--edge1-EZIPEK_clean_linker_0
_symmetry_space_group_name_H-M    P1
_symmetry_Int_Tables_number       1
_symmetry_cell_setting            triclinic
loop_
_symmetry_equiv_pos_as_xyz
'x, y, z'
_cell_length_a     87.13289
_cell_length_b     21.161163
_cell_length_c     11.531267
_cell_angle_alpha  89.935924
_cell_angle_beta   89.924893
_cell_angle_gamma 84.204646
loop_
_atom_site_label
_atom_site_type_symbol
_atom_site_fract_x
_atom_site_fract_y
_atom_site_fract_z
_atom_type_partial_charge
Ho0 Ho 0.16568 0.26192 0.51512 0.0
Ho1 Ho 0.1291 0.265 0.519 0.0
C2 C 0.14717 0.25895 0.76313 0.0
C3 C 0.19337 0.29561 0.51744 0.0
C4 C 0.20886 0.2802 0.56879 0.0
C5 C 0.21128 0.27995 0.68945 0.0
C6 C 0.22629 0.27148 0.73438 0.0
C7 C 0.23906 0.26309 0.65948 0.0
C8 C 0.23663 0.26169 0.53936 0.0
C9 C 0.22166 0.27032 0.49449 0.0
C10 C 0.15664 0.14102 0.52553 0.0
C11 C 0.14757 0.25927 0.27318 0.0
C12 C 0.10032 0.2511 0.49452 0.0
C13 C 0.08362 0.24608 0.48039 0.0
C14 C 0.07772 0.18667 0.48064 0.0
C15 C 0.06181 0.18278 0.47068 0.0
C16 C 0.05157 0.23831 0.46227 0.0
C17 C 0.05747 0.29757 0.46119 0.0
C18 C 0.07335 0.30142 0.46946 0.0
C19 C 0.14097 0.37872 0.54468 0.0
O20 O 0.15989 0.27136 0.70701 0.0
O21 O 0.13428 0.24778 0.70861 0.0
O22 O 0.18872 0.25493 0.44277 0.0
O23 O 0.18227 0.32075 0.58525 0.0
O24 O 0.17092 0.15318 0.51886 0.0
O25 O 0.14866 0.19382 0.5253 0.0
O26 O 0.13558 0.24144 0.33166 0.0
O27 O 0.15956 0.27955 0.32706 0.0
O28 O 0.10667 0.3001 0.45393 0.0
O29 O 0.10979 0.20835 0.54761 0.0
O30 O 0.12839 0.36408 0.59316 0.0
O31 O 0.14603 0.33368 0.47858 0.0
H32 H 0.20164 0.28757 0.74892 0.0
H33 H 0.22797 0.27266 0.82738 0.0
H34 H 0.24634 0.25526 0.48034 0.0
H35 H 0.2201 0.27076 0.40126 0.0
H36 H 0.0854 0.14333 0.48877 0.0
H37 H 0.05743 0.13665 0.4717 0.0
H38 H 0.04974 0.34088 0.45492 0.0
H39 H 0.07758 0.34785 0.4696 0.0
Ho40 Ho 0.87406 0.25303 0.52211 0.0
Ho41 Ho 0.90843 0.25784 0.53118 0.0
C42 C 0.89072 0.25882 0.77205 0.0
C43 C 0.84586 0.22417 0.53634 0.0
C44 C 0.83117 0.2345 0.60152 0.0
C45 C 0.82454 0.18152 0.64539 0.0
C46 C 0.80963 0.18814 0.69194 0.0
C47 C 0.80107 0.24789 0.69525 0.0
C48 C 0.80781 0.30136 0.65523 0.0
C49 C 0.82274 0.29477 0.60854 0.0
C50 C 0.88302 0.37324 0.51658 0.0
C51 C 0.89156 0.25408 0.28016 0.0
C52 C 0.93663 0.2869 0.5249 0.0
C53 C 0.9526 0.27143 0.48313 0.0
C54 C 0.96119 0.32164 0.45283 0.0
C55 C 0.97717 0.31103 0.43727 0.0
C56 C 0.98481 0.24997 0.45187 0.0
C57 C 0.97615 0.19891 0.47536 0.0
C58 C 0.96014 0.20955 0.49105 0.0
C59 C 0.89952 0.13753 0.53512 0.0
O60 O 0.87923 0.23736 0.71393 0.0
O61 O 0.90207 0.28261 0.71614 0.0
O62 O 0.85007 0.27126 0.47451 0.0
O63 O 0.85753 0.19091 0.58593 0.0
O64 O 0.87098 0.35601 0.4646 0.0
O65 O 0.88894 0.32745 0.57705 0.0
O66 O 0.90335 0.27313 0.3388 0.0
O67 O 0.8798 0.23252 0.33478 0.0
O68 O 0.93143 0.24847 0.60081 0.0
O69 O 0.92602 0.31055 0.45233 0.0
O70 O 0.91164 0.15446 0.58644 0.0
O71 O 0.8936 0.18365 0.47553 0.0
H72 H 0.8307 0.1345 0.63989 0.0
H73 H 0.8046 0.1464 0.7225 0.0
H74 H 0.80134 0.34783 0.65713 0.0
H75 H 0.82747 0.33648 0.57477 0.0
H76 H 0.95567 0.36979 0.44749 0.0
H77 H 0.98367 0.35096 0.41933 0.0
H78 H 0.98188 0.15148 0.48691 0.0
H79 H 0.9538 0.17001 0.51495 0.0
Ho80 Ho 0.12923 0.76546 0.5264 0.0
Ho81 Ho 0.16581 0.76135 0.52972 0.0
C82 C 0.14767 0.75907 0.77198 0.0
C83 C 0.10039 0.75279 0.55183 0.0
C84 C 0.08365 0.74883 0.56635 0.0
C85 C 0.07755 0.68984 0.5683 0.0
C86 C 0.0616 0.68694 0.57904 0.0
C87 C 0.05153 0.74303 0.58601 0.0
C88 C 0.05763 0.80187 0.5847 0.0
C89 C 0.07355 0.80475 0.5757 0.0
C90 C 0.14122 0.87882 0.50012 0.0
C91 C 0.14732 0.75882 0.28201 0.0
C92 C 0.19355 0.79466 0.52735 0.0
C93 C 0.20909 0.77998 0.47616 0.0
C94 C 0.21168 0.78289 0.35585 0.0
C95 C 0.22675 0.77592 0.31165 0.0
C96 C 0.23943 0.76594 0.38691 0.0
C97 C 0.23684 0.7612 0.50652 0.0
C98 C 0.22181 0.76832 0.55069 0.0
C99 C 0.15658 0.64076 0.5197 0.0
O100 O 0.13565 0.74165 0.71371 0.0
O101 O 0.15972 0.77892 0.71788 0.0
O102 O 0.1069 0.80136 0.59218 0.0
O103 O 0.10974 0.7097 0.49844 0.0
O104 O 0.12863 0.86435 0.45181 0.0
O105 O 0.14628 0.83377 0.56633 0.0
O106 O 0.16007 0.77094 0.33789 0.0
O107 O 0.13441 0.748 0.33679 0.0
O108 O 0.18888 0.75354 0.60137 0.0
O109 O 0.18246 0.82016 0.4599 0.0
O110 O 0.17089 0.65257 0.52568 0.0
O111 O 0.14866 0.69369 0.52049 0.0
H112 H 0.0851 0.64607 0.5614 0.0
H113 H 0.05707 0.64111 0.5798 0.0
H114 H 0.05004 0.84559 0.58977 0.0
H115 H 0.07793 0.85086 0.57382 0.0
H116 H 0.20212 0.79201 0.29618 0.0
H117 H 0.22855 0.77965 0.21903 0.0
H118 H 0.24648 0.75349 0.56583 0.0
H119 H 0.22014 0.7664 0.64372 0.0
Ho120 Ho 0.90848 0.75398 0.51537 0.0
Ho121 Ho 0.87408 0.75688 0.53184 0.0
C122 C 0.89267 0.75127 0.77132 0.0
C123 C 0.93671 0.78285 0.51788 0.0
C124 C 0.95254 0.77105 0.56448 0.0
C125 C 0.96077 0.82341 0.58726 0.0
C126 C 0.97674 0.81509 0.6045 0.0
C127 C 0.98473 0.75421 0.59901 0.0
C128 C 0.97643 0.70133 0.58355 0.0
C129 C 0.96043 0.70964 0.56642 0.0
C130 C 0.89862 0.63648 0.5073 0.0
C131 C 0.88972 0.76034 0.27626 0.0
C132 C 0.84585 0.72836 0.52372 0.0
C133 C 0.8313 0.73554 0.45696 0.0
C134 C 0.82336 0.68183 0.43938 0.0
C135 C 0.8085 0.68801 0.39232 0.0
C136 C 0.80132 0.74811 0.36238 0.0
C137 C 0.80942 0.80172 0.37579 0.0
C138 C 0.82432 0.79554 0.42276 0.0
C139 C 0.88415 0.87393 0.54346 0.0
O140 O 0.90548 0.75355 0.71033 0.0
O141 O 0.87927 0.74657 0.72063 0.0
O142 O 0.93179 0.73867 0.45284 0.0
O143 O 0.9258 0.81246 0.58158 0.0
O144 O 0.91089 0.65228 0.45605 0.0
O145 O 0.89302 0.68206 0.57066 0.0
O146 O 0.87696 0.75723 0.33715 0.0
O147 O 0.90304 0.766 0.32713 0.0
O148 O 0.85006 0.77891 0.57475 0.0
O149 O 0.85751 0.69166 0.48141 0.0
O150 O 0.87207 0.85749 0.59668 0.0
O151 O 0.88955 0.82902 0.47761 0.0
H152 H 0.95498 0.8712 0.58482 0.0
H153 H 0.98297 0.85641 0.61607 0.0
H154 H 0.98244 0.65402 0.57898 0.0
H155 H 0.95441 0.6684 0.54842 0.0
H156 H 0.82845 0.63523 0.46595 0.0
H157 H 0.80242 0.64615 0.38231 0.0
H158 H 0.80405 0.84843 0.35269 0.0
H159 H 0.83015 0.83783 0.43563 0.0
Ho160 Ho 0.66493 0.74511 0.02883 0.0
Ho161 Ho 0.63037 0.75573 0.0387 0.0
C162 C 0.64806 0.746 0.27877 0.0
C163 C 0.69437 0.75471 0.03695 0.0
C164 C 0.70816 0.76288 0.10794 0.0
C165 C 0.71744 0.81087 0.07735 0.0
C166 C 0.73209 0.81233 0.12604 0.0
C167 C 0.73772 0.76568 0.206 0.0
C168 C 0.7282 0.71952 0.24134 0.0
C169 C 0.71352 0.71805 0.19265 0.0
C170 C 0.65244 0.63319 1.00424 0.0
C171 C 0.64753 0.75316 0.78521 0.0
C172 C 0.60128 0.73892 0.03501 0.0
C173 C 0.58538 0.7565 0.99297 0.0
C174 C 0.57812 0.71272 0.9259 0.0
C175 C 0.56213 0.72036 0.90946 0.0
C176 C 0.55315 0.7717 0.96043 0.0
C177 C 0.56042 0.81759 1.02143 0.0
C178 C 0.57641 0.81013 0.03756 0.0
C179 C 0.64232 0.86941 0.05493 0.0
O180 O 0.66029 0.76135 0.2211 0.0
O181 O 0.63588 0.72916 0.22353 0.0
O182 O 0.68823 0.70108 0.04532 0.0
O183 O 0.68411 0.80346 1.0213 0.0
O184 O 0.66452 0.64832 0.94978 0.0
O185 O 0.64803 0.67669 0.07539 0.0
O186 O 0.63452 0.74868 0.84339 0.0
O187 O 0.66069 0.75938 0.83841 0.0
O188 O 0.60735 0.77784 0.10524 0.0
O189 O 0.61145 0.70869 0.96621 0.0
O190 O 0.62968 0.85617 0.10377 0.0
O191 O 0.64711 0.82391 0.9893 0.0
H192 H 0.71366 0.84548 1.01136 0.0
H193 H 0.7393 0.84827 0.09784 0.0
H194 H 0.73238 0.68318 0.30306 0.0
H195 H 0.70668 0.68022 0.21753 0.0
H196 H 0.58467 0.67046 0.89217 0.0
H197 H 0.55667 0.68434 0.86268 0.0
H198 H 0.55362 0.85736 0.06167 0.0
H199 H 0.58158 0.84441 0.09075 0.0
Ho200 Ho 0.37436 0.75529 1.01068 0.0
Ho201 Ho 0.40886 0.74706 1.01669 0.0
C202 C 0.39188 0.75318 0.26254 0.0
C203 C 0.34548 0.73611 0.02775 0.0
C204 C 0.33112 0.74776 0.09715 0.0
C205 C 0.32867 0.71171 0.19701 0.0
C206 C 0.31414 0.71626 0.25055 0.0
C207 C 0.30184 0.75658 0.20483 0.0
C208 C 0.30438 0.79403 0.10763 0.0
C209 C 0.31886 0.78953 0.05416 0.0
C210 C 0.38593 0.86973 0.98979 0.0
C211 C 0.39128 0.75066 0.76944 0.0
C212 C 0.43788 0.75833 0.99448 0.0
C213 C 0.45458 0.76374 0.98112 0.0
C214 C 0.46082 0.82057 1.00882 0.0
C215 C 0.47674 0.82441 1.00109 0.0
C216 C 0.48663 0.77143 0.96596 0.0
C217 C 0.48043 0.71498 0.93669 0.0
C218 C 0.46453 0.71119 0.94387 0.0
C219 C 0.39713 0.63388 0.04205 0.0
O220 O 0.37879 0.75069 0.2049 0.0
O221 O 0.40519 0.75656 0.20876 0.0
O222 O 0.35035 0.78423 0.97249 0.0
O223 O 0.35678 0.69708 0.06875 0.0
O224 O 0.37344 0.85501 0.94061 0.0
O225 O 0.39093 0.82496 0.05653 0.0
O226 O 0.40307 0.76911 0.82792 0.0
O227 O 0.3794 0.73069 0.82432 0.0
O228 O 0.43147 0.7091 0.9566 0.0
O229 O 0.42838 0.80202 0.04409 0.0
O230 O 0.4093 0.6496 0.09429 0.0
O231 O 0.39233 0.67745 0.97197 0.0
H232 H 0.33779 0.67846 0.23161 0.0
H233 H 0.31238 0.68702 0.3256 0.0
H234 H 0.29501 0.82534 0.07113 0.0
H235 H 0.3203 0.81713 0.97641 0.0
H236 H 0.45343 0.86182 0.03763 0.0
H237 H 0.48138 0.86825 0.02442 0.0
H238 H 0.48793 0.6736 0.9099 0.0
H239 H 0.46007 0.66672 0.92225 0.0
Ho240 Ho 0.62903 0.24975 1.01577 0.0
Ho241 Ho 0.66468 0.25317 1.02281 0.0
C242 C 0.64631 0.2492 0.26598 0.0
C243 C 0.60104 0.21775 1.02159 0.0
C244 C 0.58489 0.23253 0.06174 0.0
C245 C 0.57768 0.18576 0.12185 0.0
C246 C 0.56168 0.19247 0.13942 0.0
C247 C 0.55261 0.24596 0.09667 0.0
C248 C 0.55984 0.29428 0.04179 0.0
C249 C 0.57584 0.28772 0.02453 0.0
C250 C 0.6387 0.36858 1.01228 0.0
C251 C 0.64762 0.24907 0.77253 0.0
C252 C 0.69242 0.28703 1.00965 0.0
C253 C 0.70734 0.27644 0.94689 0.0
C254 C 0.71258 0.32631 0.88192 0.0
C255 C 0.7275 0.32079 0.83539 0.0
C256 C 0.73749 0.26548 0.85383 0.0
C257 C 0.73221 0.21488 0.91588 0.0
C258 C 0.71726 0.22023 0.96204 0.0
C259 C 0.65511 0.13465 0.03237 0.0
O260 O 0.63375 0.23769 0.20804 0.0
O261 O 0.65889 0.26483 0.21296 0.0
O262 O 0.60619 0.25496 0.94322 0.0
O263 O 0.61166 0.19629 0.09601 0.0
O264 O 0.62539 0.3547 0.97537 0.0
O265 O 0.64475 0.32074 0.06653 0.0
O266 O 0.66022 0.26045 0.82978 0.0
O267 O 0.63498 0.23498 0.82646 0.0
O268 O 0.68849 0.24142 0.07675 0.0
O269 O 0.68064 0.31663 0.95491 0.0
O270 O 0.66842 0.14935 0.06805 0.0
O271 O 0.649 0.18142 0.97491 0.0
H272 H 0.58432 0.1424 0.14995 0.0
H273 H 0.55629 0.15455 0.18142 0.0
H274 H 0.55301 0.3358 1.00786 0.0
H275 H 0.58098 0.32446 0.97709 0.0
H276 H 0.70529 0.37046 0.87026 0.0
H277 H 0.73142 0.36034 0.78788 0.0
H278 H 0.73978 0.17184 0.93084 0.0
H279 H 0.71367 0.18108 1.01244 0.0
Ho280 Ho 0.40955 0.25308 1.00852 0.0
Ho281 Ho 0.37391 0.25129 1.01828 0.0
C282 C 0.3927 0.25221 0.2605 0.0
C283 C 0.43744 0.28598 1.01087 0.0
C284 C 0.4534 0.27614 0.05576 0.0
C285 C 0.46142 0.32961 0.07367 0.0
C286 C 0.47736 0.32275 0.09286 0.0
C287 C 0.48556 0.26219 0.09458 0.0
C288 C 0.47745 0.20839 0.08309 0.0
C289 C 0.46148 0.21527 0.06354 0.0
C290 C 0.39955 0.13483 1.00327 0.0
C291 C 0.39084 0.2535 0.76664 0.0
C292 C 0.34589 0.22033 1.00767 0.0
C293 C 0.33107 0.23256 0.94414 0.0
C294 C 0.3283 0.19961 0.84144 0.0
C295 C 0.31363 0.20586 0.79047 0.0
C296 C 0.30148 0.24481 0.84162 0.0
C297 C 0.30427 0.27871 0.94249 0.0
C298 C 0.3189 0.2725 0.99346 0.0
C299 C 0.38386 0.36912 0.02616 0.0
O300 O 0.40536 0.26172 0.20186 0.0
O301 O 0.37985 0.23909 0.20822 0.0
O302 O 0.43282 0.24211 0.94329 0.0
O303 O 0.42645 0.31253 0.07765 0.0
O304 O 0.41284 0.14866 0.96532 0.0
O305 O 0.39366 0.18239 0.05943 0.0
O306 O 0.37821 0.24313 0.8248 0.0
O307 O 0.40357 0.26701 0.81946 0.0
O308 O 0.35009 0.26625 0.07245 0.0
O309 O 0.35757 0.18864 0.95494 0.0
O310 O 0.37063 0.35512 0.06473 0.0
O311 O 0.38972 0.3221 0.96818 0.0
H312 H 0.45548 0.37699 0.06675 0.0
H313 H 0.48341 0.36479 0.1012 0.0
H314 H 0.48359 0.16126 0.084 0.0
H315 H 0.4556 0.17323 0.04926 0.0
H316 H 0.33733 0.16777 0.802 0.0
H317 H 0.31165 0.17928 0.7126 0.0
H318 H 0.29502 0.30886 0.98324 0.0
H319 H 0.32056 0.29769 0.07347 0.0
C320 C 0.26145 0.20086 0.75931 0.0
C321 C 0.25507 0.25811 0.70625 0.0
C322 C 0.27971 0.30365 0.73011 0.0
C323 C 0.28562 0.24864 0.79228 0.0
N324 N 0.28147 0.14877 0.88219 0.0
N325 N 0.25714 0.36776 0.65712 0.0
C326 C 0.27631 0.19821 0.81125 0.0
C327 C 0.26394 0.31059 0.69594 0.0
N328 N 0.25348 0.14843 0.757 0.0
N329 N 0.2893 0.3485 0.70105 0.0
H330 H 0.24561 0.37479 0.63144 0.0
H331 H 0.26248 0.40957 0.65954 0.0
H332 H 0.30089 0.34512 0.72508 0.0
H333 H 0.28616 0.38623 0.64507 0.0
H334 H 0.25819 0.10341 0.78259 0.0
H335 H 0.24252 0.14872 0.72055 0.0
H336 H 0.27458 0.1143 0.91 0.0
H337 H 0.29233 0.14484 0.92115 0.0
C338 C 0.75751 0.23937 0.69905 0.0
C339 C 0.75376 0.26165 0.81261 0.0
C340 C 0.78113 0.27221 0.85139 0.0
C341 C 0.78474 0.25374 0.73549 0.0
N342 N 0.77638 0.22829 0.54339 0.0
N343 N 0.76138 0.30725 0.99253 0.0
C344 C 0.77292 0.23968 0.65769 0.0
C345 C 0.76541 0.28038 0.88759 0.0
N346 N 0.74639 0.21653 0.63185 0.0
N347 N 0.79278 0.28011 0.92768 0.0
H348 H 0.75006 0.31241 1.02336 0.0
H349 H 0.76901 0.32851 0.04577 0.0
H350 H 0.80439 0.27583 0.90354 0.0
H351 H 0.79113 0.28649 1.01646 0.0
H352 H 0.74867 0.1929 0.55364 0.0
H353 H 0.73492 0.21717 0.65815 0.0
H354 H 0.76811 0.22463 0.47942 0.0
H355 H 0.78755 0.22718 0.51027 0.0
C356 C 0.27691 0.70735 0.23129 0.0
C357 C 0.28604 0.7578 0.25505 0.0
C358 C 0.2642 0.81563 0.35681 0.0
C359 C 0.2555 0.76299 0.3412 0.0
N360 N 0.2543 0.65465 0.28054 0.0
N361 N 0.2894 0.85503 0.35605 0.0
C362 C 0.26207 0.70762 0.28319 0.0
C363 C 0.27997 0.81057 0.32242 0.0
N364 N 0.28221 0.66032 0.15577 0.0
N365 N 0.25722 0.87129 0.40081 0.0
H366 H 0.30099 0.85293 0.33211 0.0
H367 H 0.28614 0.8909 0.41554 0.0
H368 H 0.24569 0.87695 0.42684 0.0
H369 H 0.26243 0.91344 0.4025 0.0
H370 H 0.27542 0.62627 0.12471 0.0
H371 H 0.29304 0.65817 0.11646 0.0
H372 H 0.25916 0.61063 0.25099 0.0
H373 H 0.24337 0.65324 0.31684 0.0
C374 C 0.75747 0.78426 0.35827 0.0
C375 C 0.75403 0.76236 0.24597 0.0
C376 C 0.78169 0.7382 0.2056 0.0
C377 C 0.78504 0.75482 0.32126 0.0
N378 N 0.7762 0.78513 0.51355 0.0
N379 N 0.76251 0.70956 0.06836 0.0
C380 C 0.77295 0.77566 0.39927 0.0
C381 C 0.76605 0.73694 0.17101 0.0
N382 N 0.74598 0.81471 0.4245 0.0
N383 N 0.79347 0.72514 0.12804 0.0
H384 H 0.75121 0.7079 0.03958 0.0
H385 H 0.77064 0.6839 1.01601 0.0
H386 H 0.80506 0.72512 0.15064 0.0
H387 H 0.79177 0.71951 0.03945 0.0
H388 H 0.74796 0.83799 0.5017 0.0
H389 H 0.73449 0.82109 0.39774 0.0
H390 H 0.76778 0.7933 0.57738 0.0
H391 H 0.78739 0.77998 0.54669 0.0
C392 C 0.15097 0.97579 0.40904 0.0
C393 C 0.14516 0.94609 0.5082 0.0
C394 C 0.14587 0.04591 0.61803 0.0
C395 C 0.15119 0.07609 0.51767 0.0
N396 N 0.15578 0.07388 0.31206 0.0
N397 N 0.13408 0.95662 0.69981 0.0
C398 C 0.1529 0.04204 0.41161 0.0
C399 C 0.14181 0.98218 0.61089 0.0
N400 N 0.15505 0.94022 0.31294 0.0
N401 N 0.14503 0.07769 0.72118 0.0
H402 H 0.13076 0.91072 0.69747 0.0
H403 H 0.12977 0.98241 0.77163 0.0
H404 H 0.14702 0.1252 0.72799 0.0
H405 H 0.14322 0.05625 0.80066 0.0
H406 H 0.16102 0.95677 0.24279 0.0
H407 H 0.15346 0.89223 0.30672 0.0
H408 H 0.15565 0.054 0.22959 0.0
H409 H 0.1568 0.12247 0.31104 0.0
C410 C 0.88957 0.47323 0.62154 0.0
C411 C 0.88758 0.43998 0.51625 0.0
C412 C 0.89179 0.5371 0.40678 0.0
C413 C 0.89465 0.56904 0.51178 0.0
N414 N 0.90102 0.5597 0.71476 0.0
N415 N 0.89022 0.43694 0.30808 0.0
C416 C 0.89484 0.535 0.61813 0.0
C417 C 0.88959 0.47115 0.4087 0.0
N418 N 0.88581 0.44734 0.72505 0.0
N419 N 0.89099 0.56999 0.30456 0.0
H420 H 0.88916 0.38847 0.30598 0.0
H421 H 0.89336 0.45482 0.2283 0.0
H422 H 0.8933 0.61721 0.29813 0.0
H423 H 0.887 0.55196 0.22749 0.0
H424 H 0.88552 0.47236 0.80294 0.0
H425 H 0.8815 0.40336 0.73177 0.0
H426 H 0.90294 0.53421 0.79162 0.0
H427 H 0.90566 0.60323 0.71458 0.0
C428 C 0.88731 0.97623 0.43374 0.0
C429 C 0.88797 0.9416 0.53947 0.0
C430 C 0.89339 0.03904 0.64295 0.0
C431 C 0.89491 0.07086 0.53536 0.0
N432 N 0.89562 0.06491 0.32608 0.0
N433 N 0.89221 0.93969 0.74602 0.0
C434 C 0.89244 0.03823 0.43009 0.0
C435 C 0.89114 0.97309 0.6444 0.0
N436 N 0.88084 0.9518 0.33803 0.0
N437 N 0.89335 0.0726 0.74426 0.0
H438 H 0.88983 0.89258 0.75224 0.0
H439 H 0.89645 0.95718 0.8227 0.0
H440 H 0.8947 0.12088 0.74739 0.0
H441 H 0.89052 0.05438 0.8245 0.0
H442 H 0.87854 0.97767 0.262 0.0
H443 H 0.87631 0.90803 0.33838 0.0
H444 H 0.89567 0.04035 0.24778 0.0
H445 H 0.89967 0.1093 0.3189 0.0
C446 C 0.14594 0.5457 0.42657 0.0
C447 C 0.15106 0.57593 0.52733 0.0
C448 C 0.15053 0.47579 0.63639 0.0
C449 C 0.14494 0.44599 0.53671 0.0
N450 N 0.13432 0.45638 0.34382 0.0
N451 N 0.15518 0.57392 0.7334 0.0
C452 C 0.14185 0.48199 0.43349 0.0
C453 C 0.1525 0.54201 0.63371 0.0
N454 N 0.14529 0.57749 0.32331 0.0
N455 N 0.15437 0.44031 0.7331 0.0
H456 H 0.15626 0.62247 0.73427 0.0
H457 H 0.15485 0.55417 0.81595 0.0
H458 H 0.15277 0.39234 0.73934 0.0
H459 H 0.16019 0.4569 0.80385 0.0
H460 H 0.14366 0.55604 0.24367 0.0
H461 H 0.14722 0.62508 0.31674 0.0
H462 H 0.1302 0.48209 0.27137 0.0
H463 H 0.13098 0.41053 0.34596 0.0
C464 C 0.65643 0.52352 0.09195 0.0
C465 C 0.64865 0.56603 1.01118 0.0
C466 C 0.63745 0.47678 0.9185 0.0
C467 C 0.64408 0.43435 1.00509 0.0
N468 N 0.66462 0.41501 0.14628 0.0
N469 N 0.62996 0.58499 0.85873 0.0
C470 C 0.65485 0.45695 0.08489 0.0
C471 C 0.63869 0.54308 0.92773 0.0
N472 N 0.6652 0.54707 0.17689 0.0
N473 N 0.6312 0.45323 0.82079 0.0
H474 H 0.63086 0.63353 0.8606 0.0
H475 H 0.62093 0.57245 0.80721 0.0
H476 H 0.63145 0.40488 0.80337 0.0
H477 H 0.62772 0.481 0.7491 0.0
H478 H 0.66938 0.52099 0.24874 0.0
H479 H 0.66732 0.59464 0.18102 0.0
H480 H 0.67354 0.42792 0.19827 0.0
H481 H 0.66544 0.36647 0.13357 0.0
C482 C 0.37989 0.98117 0.06794 0.0
C483 C 0.38954 0.93708 1.00086 0.0
C484 C 0.40171 0.02546 0.91461 0.0
C485 C 0.39408 0.06912 0.99492 0.0
N486 N 0.37451 0.08725 0.14469 0.0
N487 N 0.41175 0.917 0.87709 0.0
C488 C 0.38273 0.04672 0.07055 0.0
C489 C 0.40112 0.9592 0.92989 0.0
N490 N 0.36767 0.96074 0.12676 0.0
N491 N 0.40864 0.04709 0.81799 0.0
H492 H 0.4119 0.86828 0.88872 0.0
H493 H 0.42136 0.9307 0.83335 0.0
H494 H 0.40784 0.09491 0.79489 0.0
H495 H 0.41319 0.01713 0.75204 0.0
H496 H 0.35895 0.99111 0.16474 0.0
H497 H 0.3657 0.91304 0.13213 0.0
H498 H 0.3685 0.07221 0.21605 0.0
H499 H 0.37346 0.13606 0.13488 0.0
C500 C 0.39945 0.45887 0.95436 0.0
C501 C 0.38931 0.43455 0.03672 0.0
C502 C 0.38476 0.54145 0.12435 0.0
C503 C 0.39364 0.56638 0.03548 0.0
N504 N 0.40839 0.55092 0.85949 0.0
N505 N 0.37743 0.44899 0.22582 0.0
C506 C 0.40065 0.52564 0.94863 0.0
C507 C 0.3833 0.47497 0.12867 0.0
N508 N 0.40907 0.41834 0.88891 0.0
N509 N 0.37731 0.58182 0.20336 0.0
H510 H 0.37746 0.40028 0.23861 0.0
H511 H 0.37435 0.47447 0.30083 0.0
H512 H 0.37861 0.63014 0.2059 0.0
H513 H 0.36892 0.5688 0.26047 0.0
H514 H 0.41759 0.43284 0.83447 0.0
H515 H 0.41029 0.36964 0.90112 0.0
H516 H 0.41186 0.52594 0.78463 0.0
H517 H 0.41033 0.59861 0.8562 0.0
C518 C 0.65775 0.0262 0.12521 0.0
C519 C 0.65002 0.06853 0.04296 0.0
C520 C 0.63696 0.97859 0.96644 0.0
C521 C 0.64599 0.93638 0.04117 0.0
N522 N 0.66717 0.91829 0.1744 0.0
N523 N 0.6283 0.08704 0.91202 0.0
C524 C 0.65703 0.95975 0.11505 0.0
C525 C 0.63855 0.04537 0.97 0.0
N526 N 0.66463 0.04962 0.22037 0.0
N527 N 0.62706 0.95431 0.89019 0.0
H528 H 0.62761 0.1357 0.92354 0.0
H529 H 0.61907 0.07413 0.86358 0.0
H530 H 0.62526 0.90634 0.88828 0.0
H531 H 0.6215 0.97997 0.82279 0.0
H532 H 0.66907 0.02115 0.28866 0.0
H533 H 0.66387 0.09778 0.24048 0.0
H534 H 0.67667 0.93214 0.21902 0.0
H535 H 0.66698 0.86934 0.16917 0.0
C536 C 0.1353 0.2939 0.08033 0.0
C537 C 0.1474 0.25838 0.14243 0.0
C538 C 0.15873 0.21941 0.95559 0.0
C539 C 0.1473 0.25874 0.89382 0.0
N540 N 0.12669 0.34379 0.89938 0.0
N541 N 0.17199 0.19401 0.13696 0.0
C542 C 0.13606 0.29841 0.9568 0.0
C543 C 0.15954 0.22343 0.07931 0.0
N544 N 0.12307 0.32442 0.1389 0.0
N545 N 0.16842 0.17571 0.89669 0.0
H546 H 0.17278 0.19147 0.2269 0.0
H547 H 0.18208 0.1755 0.09553 0.0
H548 H 0.16837 0.17113 0.80677 0.0
H549 H 0.17561 0.14009 0.93723 0.0
H550 H 0.11293 0.34304 0.09829 0.0
H551 H 0.12253 0.32815 0.22877 0.0
H552 H 0.1196 0.37937 0.94089 0.0
H553 H 0.12712 0.35024 0.81009 0.0
C554 C 0.87911 0.2909 0.09012 0.0
C555 C 0.89151 0.25597 0.14995 0.0
C556 C 0.90367 0.22517 0.96209 0.0
C557 C 0.89086 0.25738 0.90226 0.0
N558 N 0.86577 0.31715 0.90892 0.0
N559 N 0.91467 0.18334 0.14343 0.0
C560 C 0.87838 0.28879 0.96632 0.0
C561 C 0.90362 0.22187 0.08599 0.0
N562 N 0.8684 0.3291 0.15147 0.0
N563 N 0.91594 0.19714 0.90039 0.0
H564 H 0.91532 0.18031 0.23346 0.0
H565 H 0.92263 0.15067 0.1027 0.0
H566 H 0.91587 0.19172 0.81068 0.0
H567 H 0.92654 0.18145 0.93721 0.0
H568 H 0.86025 0.36213 0.11371 0.0
H569 H 0.86832 0.33182 0.24156 0.0
H570 H 0.85537 0.3324 0.94936 0.0
H571 H 0.86533 0.32301 0.81927 0.0
C572 C 0.15882 0.71895 0.08943 0.0
C573 C 0.14747 0.75862 0.15132 0.0
C574 C 0.13548 0.79402 0.96499 0.0
C575 C 0.14751 0.75809 0.90272 0.0
N576 N 0.17196 0.6928 0.90765 0.0
N577 N 0.12702 0.84433 0.14588 0.0
C578 C 0.1596 0.72277 0.96562 0.0
C579 C 0.13628 0.79859 0.08846 0.0
N580 N 0.16849 0.67519 0.14834 0.0
N581 N 0.12327 0.82484 0.90667 0.0
H582 H 0.12751 0.8509 0.23508 0.0
H583 H 0.11998 0.88008 0.10438 0.0
H584 H 0.12271 0.82845 0.81679 0.0
H585 H 0.11318 0.84384 0.94753 0.0
H586 H 0.17561 0.63931 0.10787 0.0
H587 H 0.16851 0.67088 0.23833 0.0
H588 H 0.18204 0.67401 0.94873 0.0
H589 H 0.17269 0.68998 0.8177 0.0
C590 C 0.90042 0.79715 0.96424 0.0
C591 C 0.893 0.75104 0.90116 0.0
C592 C 0.88207 0.71376 0.08364 0.0
C593 C 0.8894 0.76027 0.14646 0.0
N594 N 0.90182 0.85713 0.14152 0.0
N595 N 0.88027 0.65491 0.9053 0.0
C596 C 0.89766 0.80451 0.08538 0.0
C597 C 0.88465 0.70694 0.96209 0.0
N598 N 0.91051 0.83319 0.91053 0.0
N599 N 0.87225 0.67681 0.13818 0.0
H600 H 0.88227 0.64646 0.8175 0.0
H601 H 0.87617 0.61626 0.94683 0.0
H602 H 0.87059 0.67523 0.22716 0.0
H603 H 0.86471 0.65021 0.09396 0.0
H604 H 0.91799 0.85969 0.95559 0.0
H605 H 0.9125 0.8338 0.82187 0.0
H606 H 0.90589 0.89566 0.09934 0.0
H607 H 0.89958 0.86618 0.22888 0.0
C608 C 0.64814 0.69065 0.47302 0.0
C609 C 0.64787 0.74798 0.40855 0.0
C610 C 0.64627 0.80921 0.5913 0.0
C611 C 0.64748 0.75158 0.65542 0.0
N612 N 0.65262 0.63756 0.65796 0.0
N613 N 0.64716 0.86211 0.40432 0.0
C614 C 0.64919 0.69234 0.59638 0.0
C615 C 0.64713 0.80737 0.46736 0.0
N616 N 0.64726 0.63437 0.41645 0.0
N617 N 0.64398 0.86572 0.64931 0.0
H618 H 0.64633 0.86312 0.31427 0.0
H619 H 0.64853 0.90632 0.43993 0.0
H620 H 0.644 0.86863 0.73953 0.0
H621 H 0.64133 0.90957 0.60945 0.0
H622 H 0.64548 0.59213 0.45838 0.0
H623 H 0.64719 0.63052 0.32642 0.0
H624 H 0.65571 0.59345 0.62016 0.0
H625 H 0.65379 0.63701 0.74764 0.0
C626 C 0.38066 0.79407 0.57766 0.0
C627 C 0.3915 0.75203 0.6397 0.0
C628 C 0.40131 0.70636 0.45477 0.0
C629 C 0.39162 0.75263 0.3925 0.0
N630 N 0.37421 0.84872 0.39644 0.0
N631 N 0.41412 0.67596 0.63537 0.0
C632 C 0.38181 0.79859 0.45445 0.0
C633 C 0.40249 0.71089 0.57761 0.0
N634 N 0.36928 0.83011 0.63608 0.0
N635 N 0.40874 0.65564 0.39761 0.0
H636 H 0.41525 0.67626 0.72517 0.0
H637 H 0.42342 0.65087 0.59344 0.0
H638 H 0.40759 0.64877 0.30893 0.0
H639 H 0.4146 0.61685 0.43967 0.0
H640 H 0.35998 0.85564 0.59497 0.0
H641 H 0.36849 0.83115 0.72612 0.0
H642 H 0.36822 0.88743 0.4378 0.0
H643 H 0.37515 0.85494 0.30715 0.0
C644 C 0.64849 0.30579 0.45659 0.0
C645 C 0.64602 0.24927 0.39591 0.0
C646 C 0.64514 0.19208 0.58213 0.0
C647 C 0.64782 0.24851 0.6426 0.0
N648 N 0.65456 0.35643 0.63715 0.0
N649 N 0.63961 0.14098 0.40031 0.0
C650 C 0.65027 0.30452 0.57966 0.0
C651 C 0.64362 0.19311 0.45862 0.0
N652 N 0.64792 0.36197 0.39708 0.0
N653 N 0.64519 0.13632 0.64249 0.0
H654 H 0.63901 0.13852 0.3103 0.0
H655 H 0.63585 0.10128 0.44048 0.0
H656 H 0.64698 0.13317 0.73177 0.0
H657 H 0.64489 0.09199 0.6042 0.0
H658 H 0.64798 0.40621 0.43628 0.0
H659 H 0.64573 0.36541 0.30836 0.0
H660 H 0.65846 0.39556 0.59589 0.0
H661 H 0.65534 0.35906 0.72704 0.0
C662 C 0.39577 0.3075 0.45304 0.0
C663 C 0.39306 0.25179 0.39047 0.0
C664 C 0.38829 0.19731 0.5746 0.0
C665 C 0.39066 0.25354 0.63679 0.0
N666 N 0.39323 0.36571 0.63458 0.0
N667 N 0.39047 0.13972 0.39197 0.0
C668 C 0.39361 0.30944 0.57579 0.0
C669 C 0.39016 0.19575 0.45141 0.0
N670 N 0.40078 0.3582 0.39581 0.0
N671 N 0.38407 0.14551 0.63311 0.0
H672 H 0.39293 0.1362 0.30361 0.0
H673 H 0.38988 0.09561 0.43066 0.0
H674 H 0.38332 0.14329 0.72312 0.0
H675 H 0.38032 0.10586 0.59292 0.0
H676 H 0.40477 0.39698 0.43743 0.0
H677 H 0.40218 0.35979 0.30625 0.0
H678 H 0.39363 0.40965 0.59474 0.0
H679 H 0.39084 0.36955 0.72304 0.0
C680 C 0.02669 0.24105 0.35031 0.0
C681 C 0.03457 0.23519 0.45816 0.0
C682 C 1.00986 0.23774 0.56147 0.0
C683 C 1.00199 0.24114 0.45342 0.0
N684 N 1.00268 0.23619 0.24497 0.0
N685 N 0.03411 0.21796 0.66484 0.0
C686 C 1.01036 0.23989 0.34769 0.0
C687 C 0.02627 0.23016 0.56323 0.0
N688 N 0.03481 0.24911 0.25074 0.0
N689 N 1.00162 0.24492 0.66256 0.0
H690 H 0.0461 0.21504 0.6708 0.0
H691 H 0.02885 0.20615 0.7419 0.0
H692 H 0.9896 0.24997 0.66545 0.0
H693 H 1.00661 0.25062 0.74334 0.0
H694 H 0.02969 0.2613 0.17128 0.0
H695 H 0.04682 0.24705 0.24862 0.0
H696 H 1.00814 0.22878 0.16512 0.0
H697 H 0.99073 0.23567 0.24033 0.0
C698 C 1.0103 0.74755 0.70246 0.0
C699 C 1.00192 0.74686 0.59716 0.0
C700 C 0.02617 0.73451 0.48659 0.0
C701 C 0.0345 0.74084 0.59099 0.0
N702 N 0.03479 0.75786 0.79755 0.0
N703 N 1.00147 0.74699 0.38797 0.0
C704 C 0.02664 0.74847 0.69889 0.0
C705 C 1.00976 0.74186 0.4889 0.0
N706 N 1.00262 0.74591 0.80575 0.0
N707 N 0.03399 0.72114 0.38515 0.0
H708 H 0.98945 0.75143 0.3856 0.0
H709 H 1.0064 0.75147 0.30651 0.0
H710 H 0.04597 0.71847 0.37859 0.0
H711 H 0.02873 0.7083 0.3089 0.0
H712 H 1.00807 0.73987 0.88578 0.0
H713 H 0.99066 0.74598 0.81108 0.0
H714 H 0.02971 0.77127 0.87663 0.0
H715 H 0.04681 0.75563 0.79917 0.0
C716 C 0.52875 0.74647 0.05776 0.0
C717 C 0.53605 0.77325 0.96188 0.0
C718 C 0.51098 0.79699 0.86621 0.0
C719 C 0.50362 0.77377 0.96522 0.0
N720 N 0.50499 0.7354 0.16223 0.0
N721 N 0.53435 0.83132 0.78196 0.0
C722 C 0.51238 0.7511 0.0631 0.0
C723 C 0.52722 0.80066 0.868 0.0
N724 N 0.53751 0.71488 0.14212 0.0
N725 N 0.50247 0.81385 0.76947 0.0
H726 H 0.54625 0.83365 0.77965 0.0
H727 H 0.52845 0.85819 0.71738 0.0
H728 H 0.49052 0.81316 0.76622 0.0
H729 H 0.50727 0.82449 0.69003 0.0
H730 H 0.53298 0.68784 0.20678 0.0
H731 H 0.54953 0.71162 0.14302 0.0
H732 H 0.51059 0.72554 0.24085 0.0
H733 H 0.49301 0.73697 0.16879 0.0
C734 C 0.51069 0.26711 0.20177 0.0
C735 C 0.50278 0.25575 0.09738 0.0
C736 C 0.52758 0.23129 0.99733 0.0
C737 C 0.53544 0.24844 0.09852 0.0
N738 N 0.53466 0.28969 0.29318 0.0
N739 N 0.50353 0.23747 0.89074 0.0
C740 C 0.52704 0.26822 0.1999 0.0
C741 C 0.51119 0.2405 0.99377 0.0
N742 N 0.50259 0.27516 0.30317 0.0
N743 N 0.53578 0.20469 0.90534 0.0
H744 H 0.49154 0.24403 0.88387 0.0
H745 H 0.50906 0.23389 0.81056 0.0
H746 H 0.5478 0.19784 0.90374 0.0
H747 H 0.53069 0.18444 0.83469 0.0
H748 H 0.50776 0.27716 0.38423 0.0
H749 H 0.49063 0.2748 0.30736 0.0
H750 H 0.52911 0.31133 0.36495 0.0
H751 H 0.54662 0.29006 0.29529 0.0
loop_
_geom_bond_atom_site_label_1
_geom_bond_atom_site_label_2
_geom_bond_distance
_geom_bond_site_symmetry_2
_ccdc_geom_bond_type
Ho0 C3 2.811 . S
Ho0 O20 2.322 . S
Ho0 O22 2.378 . S
Ho0 O23 2.524 . S
Ho0 O24 2.381 . S
Ho0 O25 2.669 . S
Ho0 O27 2.346 . S
Ho0 O31 2.305 . S
Ho1 C12 2.811 . S
Ho1 O21 2.346 . S
Ho1 O25 2.305 . S
Ho1 O26 2.322 . S
Ho1 O28 2.378 . S
Ho1 O29 2.524 . S
Ho1 O30 2.381 . S
Ho1 O31 2.669 . S
C2 O20 1.259 . S
C2 O21 1.268 . S
C3 Ho0 2.811 . S
C3 C4 1.488 . S
C3 O22 1.215 . S
C3 O23 1.289 . S
C4 C3 1.488 . S
C4 C5 1.348 . S
C4 C9 1.413 . S
C5 C4 1.348 . S
C5 C6 1.442 . S
C5 H32 0.930 . S
C6 C5 1.442 . S
C6 C7 1.381 . S
C6 H33 0.931 . S
C7 C6 1.381 . S
C7 C8 1.321 . S
C8 C7 1.321 . S
C8 C9 1.403 . S
C8 H34 0.934 . S
C9 C4 1.413 . S
C9 C8 1.403 . S
C9 H35 0.930 . S
C10 O24 1.275 . S
C10 O25 1.256 . S
C11 O26 1.259 . S
C11 O27 1.268 . S
C12 Ho1 2.811 . S
C12 C13 1.488 . S
C12 O28 1.215 . S
C12 O29 1.289 . S
C13 C12 1.488 . S
C13 C14 1.348 . S
C13 C18 1.413 . S
C14 C13 1.348 . S
C14 C15 1.442 . S
C14 H36 0.930 . S
C15 C14 1.442 . S
C15 C16 1.381 . S
C15 H37 0.931 . S
C16 C15 1.381 . S
C16 C17 1.321 . S
C17 C16 1.321 . S
C17 C18 1.403 . S
C17 H38 0.934 . S
C18 C13 1.413 . S
C18 C17 1.403 . S
C18 H39 0.930 . S
C19 O30 1.275 . S
C19 O31 1.256 . S
O20 Ho0 2.322 . S
O20 C2 1.259 . S
O21 Ho1 2.346 . S
O21 C2 1.268 . S
O22 Ho0 2.378 . S
O22 C3 1.215 . S
O23 Ho0 2.524 . S
O23 C3 1.289 . S
O24 Ho0 2.381 . S
O24 C10 1.275 . S
O25 Ho0 2.669 . S
O25 Ho1 2.305 . S
O25 C10 1.256 . S
O26 Ho1 2.322 . S
O26 C11 1.259 . S
O27 Ho0 2.346 . S
O27 C11 1.268 . S
O28 Ho1 2.378 . S
O28 C12 1.215 . S
O29 Ho1 2.524 . S
O29 C12 1.289 . S
O30 Ho1 2.381 . S
O30 C19 1.275 . S
O31 Ho0 2.305 . S
O31 Ho1 2.669 . S
O31 C19 1.256 . S
H32 C5 0.930 . S
H33 C6 0.931 . S
H34 C8 0.934 . S
H35 C9 0.930 . S
H36 C14 0.930 . S
H37 C15 0.931 . S
H38 C17 0.934 . S
H39 C18 0.930 . S
Ho40 C43 2.811 . S
Ho40 O60 2.322 . S
Ho40 O62 2.378 . S
Ho40 O63 2.524 . S
Ho40 O64 2.381 . S
Ho40 O65 2.669 . S
Ho40 O67 2.346 . S
Ho40 O71 2.305 . S
Ho41 C52 2.811 . S
Ho41 O61 2.346 . S
Ho41 O65 2.305 . S
Ho41 O66 2.322 . S
Ho41 O68 2.378 . S
Ho41 O69 2.524 . S
Ho41 O70 2.381 . S
Ho41 O71 2.669 . S
C42 O60 1.259 . S
C42 O61 1.268 . S
C43 Ho40 2.811 . S
C43 C44 1.488 . S
C43 O62 1.215 . S
C43 O63 1.289 . S
C44 C43 1.488 . S
C44 C45 1.348 . S
C44 C49 1.413 . S
C45 C44 1.348 . S
C45 C46 1.442 . S
C45 H72 0.930 . S
C46 C45 1.442 . S
C46 C47 1.381 . S
C46 H73 0.931 . S
C47 C46 1.381 . S
C47 C48 1.321 . S
C48 C47 1.321 . S
C48 C49 1.403 . S
C48 H74 0.934 . S
C49 C44 1.413 . S
C49 C48 1.403 . S
C49 H75 0.930 . S
C50 O64 1.275 . S
C50 O65 1.256 . S
C51 O66 1.259 . S
C51 O67 1.268 . S
C52 Ho41 2.811 . S
C52 C53 1.488 . S
C52 O68 1.215 . S
C52 O69 1.289 . S
C53 C52 1.488 . S
C53 C54 1.348 . S
C53 C58 1.413 . S
C54 C53 1.348 . S
C54 C55 1.442 . S
C54 H76 0.930 . S
C55 C54 1.442 . S
C55 C56 1.381 . S
C55 H77 0.931 . S
C56 C55 1.381 . S
C56 C57 1.321 . S
C57 C56 1.321 . S
C57 C58 1.403 . S
C57 H78 0.934 . S
C58 C53 1.413 . S
C58 C57 1.403 . S
C58 H79 0.930 . S
C59 O70 1.275 . S
C59 O71 1.256 . S
O60 Ho40 2.322 . S
O60 C42 1.259 . S
O61 Ho41 2.346 . S
O61 C42 1.268 . S
O62 Ho40 2.378 . S
O62 C43 1.215 . S
O63 Ho40 2.524 . S
O63 C43 1.289 . S
O64 Ho40 2.381 . S
O64 C50 1.275 . S
O65 Ho40 2.669 . S
O65 Ho41 2.305 . S
O65 C50 1.256 . S
O66 Ho41 2.322 . S
O66 C51 1.259 . S
O67 Ho40 2.346 . S
O67 C51 1.268 . S
O68 Ho41 2.378 . S
O68 C52 1.215 . S
O69 Ho41 2.524 . S
O69 C52 1.289 . S
O70 Ho41 2.381 . S
O70 C59 1.275 . S
O71 Ho40 2.305 . S
O71 Ho41 2.669 . S
O71 C59 1.256 . S
H72 C45 0.930 . S
H73 C46 0.931 . S
H74 C48 0.934 . S
H75 C49 0.930 . S
H76 C54 0.930 . S
H77 C55 0.931 . S
H78 C57 0.934 . S
H79 C58 0.930 . S
Ho80 C83 2.811 . S
Ho80 O100 2.322 . S
Ho80 O102 2.378 . S
Ho80 O103 2.524 . S
Ho80 O104 2.381 . S
Ho80 O105 2.669 . S
Ho80 O107 2.346 . S
Ho80 O111 2.305 . S
Ho81 C92 2.811 . S
Ho81 O101 2.346 . S
Ho81 O105 2.305 . S
Ho81 O106 2.322 . S
Ho81 O108 2.378 . S
Ho81 O109 2.524 . S
Ho81 O110 2.381 . S
Ho81 O111 2.669 . S
C82 O100 1.259 . S
C82 O101 1.268 . S
C83 Ho80 2.811 . S
C83 C84 1.488 . S
C83 O102 1.215 . S
C83 O103 1.289 . S
C84 C83 1.488 . S
C84 C85 1.348 . S
C84 C89 1.413 . S
C85 C84 1.348 . S
C85 C86 1.442 . S
C85 H112 0.930 . S
C86 C85 1.442 . S
C86 C87 1.381 . S
C86 H113 0.931 . S
C87 C86 1.381 . S
C87 C88 1.321 . S
C88 C87 1.321 . S
C88 C89 1.403 . S
C88 H114 0.934 . S
C89 C84 1.413 . S
C89 C88 1.403 . S
C89 H115 0.930 . S
C90 O104 1.275 . S
C90 O105 1.256 . S
C91 O106 1.259 . S
C91 O107 1.268 . S
C92 Ho81 2.811 . S
C92 C93 1.488 . S
C92 O108 1.215 . S
C92 O109 1.289 . S
C93 C92 1.488 . S
C93 C94 1.348 . S
C93 C98 1.413 . S
C94 C93 1.348 . S
C94 C95 1.442 . S
C94 H116 0.930 . S
C95 C94 1.442 . S
C95 C96 1.381 . S
C95 H117 0.931 . S
C96 C95 1.381 . S
C96 C97 1.321 . S
C97 C96 1.321 . S
C97 C98 1.403 . S
C97 H118 0.934 . S
C98 C93 1.413 . S
C98 C97 1.403 . S
C98 H119 0.930 . S
C99 O110 1.275 . S
C99 O111 1.256 . S
O100 Ho80 2.322 . S
O100 C82 1.259 . S
O101 Ho81 2.346 . S
O101 C82 1.268 . S
O102 Ho80 2.378 . S
O102 C83 1.215 . S
O103 Ho80 2.524 . S
O103 C83 1.289 . S
O104 Ho80 2.381 . S
O104 C90 1.275 . S
O105 Ho80 2.669 . S
O105 Ho81 2.305 . S
O105 C90 1.256 . S
O106 Ho81 2.322 . S
O106 C91 1.259 . S
O107 Ho80 2.346 . S
O107 C91 1.268 . S
O108 Ho81 2.378 . S
O108 C92 1.215 . S
O109 Ho81 2.524 . S
O109 C92 1.289 . S
O110 Ho81 2.381 . S
O110 C99 1.275 . S
O111 Ho80 2.305 . S
O111 Ho81 2.669 . S
O111 C99 1.256 . S
H112 C85 0.930 . S
H113 C86 0.931 . S
H114 C88 0.934 . S
H115 C89 0.930 . S
H116 C94 0.930 . S
H117 C95 0.931 . S
H118 C97 0.934 . S
H119 C98 0.930 . S
Ho120 C123 2.811 . S
Ho120 O140 2.322 . S
Ho120 O142 2.378 . S
Ho120 O143 2.524 . S
Ho120 O144 2.381 . S
Ho120 O145 2.669 . S
Ho120 O147 2.346 . S
Ho120 O151 2.305 . S
Ho121 C132 2.811 . S
Ho121 O141 2.346 . S
Ho121 O145 2.305 . S
Ho121 O146 2.322 . S
Ho121 O148 2.378 . S
Ho121 O149 2.524 . S
Ho121 O150 2.381 . S
Ho121 O151 2.669 . S
C122 O140 1.259 . S
C122 O141 1.268 . S
C123 Ho120 2.811 . S
C123 C124 1.488 . S
C123 O142 1.215 . S
C123 O143 1.289 . S
C124 C123 1.488 . S
C124 C125 1.348 . S
C124 C129 1.413 . S
C125 C124 1.348 . S
C125 C126 1.442 . S
C125 H152 0.930 . S
C126 C125 1.442 . S
C126 C127 1.381 . S
C126 H153 0.931 . S
C127 C126 1.381 . S
C127 C128 1.321 . S
C128 C127 1.321 . S
C128 C129 1.403 . S
C128 H154 0.934 . S
C129 C124 1.413 . S
C129 C128 1.403 . S
C129 H155 0.930 . S
C130 O144 1.275 . S
C130 O145 1.256 . S
C131 O146 1.259 . S
C131 O147 1.268 . S
C132 Ho121 2.811 . S
C132 C133 1.488 . S
C132 O148 1.215 . S
C132 O149 1.289 . S
C133 C132 1.488 . S
C133 C134 1.348 . S
C133 C138 1.413 . S
C134 C133 1.348 . S
C134 C135 1.442 . S
C134 H156 0.930 . S
C135 C134 1.442 . S
C135 C136 1.381 . S
C135 H157 0.931 . S
C136 C135 1.381 . S
C136 C137 1.321 . S
C137 C136 1.321 . S
C137 C138 1.403 . S
C137 H158 0.934 . S
C138 C133 1.413 . S
C138 C137 1.403 . S
C138 H159 0.930 . S
C139 O150 1.275 . S
C139 O151 1.256 . S
O140 Ho120 2.322 . S
O140 C122 1.259 . S
O141 Ho121 2.346 . S
O141 C122 1.268 . S
O142 Ho120 2.378 . S
O142 C123 1.215 . S
O143 Ho120 2.524 . S
O143 C123 1.289 . S
O144 Ho120 2.381 . S
O144 C130 1.275 . S
O145 Ho120 2.669 . S
O145 Ho121 2.305 . S
O145 C130 1.256 . S
O146 Ho121 2.322 . S
O146 C131 1.259 . S
O147 Ho120 2.346 . S
O147 C131 1.268 . S
O148 Ho121 2.378 . S
O148 C132 1.215 . S
O149 Ho121 2.524 . S
O149 C132 1.289 . S
O150 Ho121 2.381 . S
O150 C139 1.275 . S
O151 Ho120 2.305 . S
O151 Ho121 2.669 . S
O151 C139 1.256 . S
H152 C125 0.930 . S
H153 C126 0.931 . S
H154 C128 0.934 . S
H155 C129 0.930 . S
H156 C134 0.930 . S
H157 C135 0.931 . S
H158 C137 0.934 . S
H159 C138 0.930 . S
Ho160 C163 2.811 1_556 S
Ho160 O180 2.322 1_556 S
Ho160 O182 2.378 1_556 S
Ho160 O183 2.524 1_556 S
Ho160 O184 2.381 . S
Ho160 O185 2.669 . S
Ho160 O187 2.346 . S
Ho160 O191 2.305 1_556 S
Ho161 C172 2.811 1_554 S
Ho161 O181 2.346 . S
Ho161 O185 2.305 1_554 S
Ho161 O186 2.322 1_554 S
Ho161 O188 2.378 1_554 S
Ho161 O189 2.524 1_554 S
Ho161 O190 2.381 . S
Ho161 O191 2.669 . S
C162 O180 1.259 . S
C162 O181 1.268 . S
C163 Ho160 2.811 1_554 S
C163 C164 1.488 . S
C163 O182 1.215 . S
C163 O183 1.289 . S
C164 C163 1.488 . S
C164 C165 1.348 . S
C164 C169 1.413 . S
C165 C164 1.348 . S
C165 C166 1.442 . S
C165 H192 0.930 . S
C166 C165 1.442 . S
C166 C167 1.381 . S
C166 H193 0.931 . S
C167 C166 1.381 . S
C167 C168 1.321 . S
C168 C167 1.321 . S
C168 C169 1.403 . S
C168 H194 0.934 . S
C169 C164 1.413 . S
C169 C168 1.403 . S
C169 H195 0.930 . S
C170 O184 1.275 . S
C170 O185 1.256 . S
C171 O186 1.259 . S
C171 O187 1.268 . S
C172 Ho161 2.811 1_556 S
C172 C173 1.488 . S
C172 O188 1.215 . S
C172 O189 1.289 . S
C173 C172 1.488 . S
C173 C174 1.348 . S
C173 C178 1.413 . S
C174 C173 1.348 . S
C174 C175 1.442 . S
C174 H196 0.930 . S
C175 C174 1.442 . S
C175 C176 1.381 . S
C175 H197 0.931 . S
C176 C175 1.381 . S
C176 C177 1.321 . S
C177 C176 1.321 . S
C177 C178 1.403 . S
C177 H198 0.934 . S
C178 C173 1.413 . S
C178 C177 1.403 . S
C178 H199 0.930 . S
C179 O190 1.275 . S
C179 O191 1.256 . S
O180 Ho160 2.322 1_554 S
O180 C162 1.259 . S
O181 Ho161 2.346 . S
O181 C162 1.268 . S
O182 Ho160 2.378 1_554 S
O182 C163 1.215 . S
O183 Ho160 2.524 1_554 S
O183 C163 1.289 . S
O184 Ho160 2.381 . S
O184 C170 1.275 . S
O185 Ho160 2.669 . S
O185 Ho161 2.305 1_556 S
O185 C170 1.256 . S
O186 Ho161 2.322 1_556 S
O186 C171 1.259 . S
O187 Ho160 2.346 . S
O187 C171 1.268 . S
O188 Ho161 2.378 1_556 S
O188 C172 1.215 . S
O189 Ho161 2.524 1_556 S
O189 C172 1.289 . S
O190 Ho161 2.381 . S
O190 C179 1.275 . S
O191 Ho160 2.305 1_554 S
O191 Ho161 2.669 . S
O191 C179 1.256 . S
H192 C165 0.930 . S
H193 C166 0.931 . S
H194 C168 0.934 . S
H195 C169 0.930 . S
H196 C174 0.930 . S
H197 C175 0.931 . S
H198 C177 0.934 . S
H199 C178 0.930 . S
Ho200 C203 2.811 1_556 S
Ho200 O220 2.322 1_556 S
Ho200 O222 2.378 1_556 S
Ho200 O223 2.524 1_556 S
Ho200 O224 2.381 . S
Ho200 O225 2.669 . S
Ho200 O227 2.346 . S
Ho200 O231 2.305 1_556 S
Ho201 C212 2.811 1_554 S
Ho201 O221 2.346 . S
Ho201 O225 2.305 1_554 S
Ho201 O226 2.322 1_554 S
Ho201 O228 2.378 1_554 S
Ho201 O229 2.524 1_554 S
Ho201 O230 2.381 . S
Ho201 O231 2.669 . S
C202 O220 1.259 . S
C202 O221 1.268 . S
C203 Ho200 2.811 1_554 S
C203 C204 1.488 . S
C203 O222 1.215 . S
C203 O223 1.289 . S
C204 C203 1.488 . S
C204 C205 1.348 . S
C204 C209 1.413 . S
C205 C204 1.348 . S
C205 C206 1.442 . S
C205 H232 0.930 . S
C206 C205 1.442 . S
C206 C207 1.381 . S
C206 H233 0.931 . S
C207 C206 1.381 . S
C207 C208 1.321 . S
C208 C207 1.321 . S
C208 C209 1.403 . S
C208 H234 0.934 . S
C209 C204 1.413 . S
C209 C208 1.403 . S
C209 H235 0.930 . S
C210 O224 1.275 . S
C210 O225 1.256 . S
C211 O226 1.259 . S
C211 O227 1.268 . S
C212 Ho201 2.811 1_556 S
C212 C213 1.488 . S
C212 O228 1.215 . S
C212 O229 1.289 . S
C213 C212 1.488 . S
C213 C214 1.348 . S
C213 C218 1.413 . S
C214 C213 1.348 . S
C214 C215 1.442 . S
C214 H236 0.930 . S
C215 C214 1.442 . S
C215 C216 1.381 . S
C215 H237 0.931 . S
C216 C215 1.381 . S
C216 C217 1.321 . S
C217 C216 1.321 . S
C217 C218 1.403 . S
C217 H238 0.934 . S
C218 C213 1.413 . S
C218 C217 1.403 . S
C218 H239 0.930 . S
C219 O230 1.275 . S
C219 O231 1.256 . S
O220 Ho200 2.322 1_554 S
O220 C202 1.259 . S
O221 Ho201 2.346 . S
O221 C202 1.268 . S
O222 Ho200 2.378 1_554 S
O222 C203 1.215 . S
O223 Ho200 2.524 1_554 S
O223 C203 1.289 . S
O224 Ho200 2.381 . S
O224 C210 1.275 . S
O225 Ho200 2.669 . S
O225 Ho201 2.305 1_556 S
O225 C210 1.256 . S
O226 Ho201 2.322 1_556 S
O226 C211 1.259 . S
O227 Ho200 2.346 . S
O227 C211 1.268 . S
O228 Ho201 2.378 1_556 S
O228 C212 1.215 . S
O229 Ho201 2.524 1_556 S
O229 C212 1.289 . S
O230 Ho201 2.381 . S
O230 C219 1.275 . S
O231 Ho200 2.305 1_554 S
O231 Ho201 2.669 . S
O231 C219 1.256 . S
H232 C205 0.930 . S
H233 C206 0.931 . S
H234 C208 0.934 . S
H235 C209 0.930 . S
H236 C214 0.930 . S
H237 C215 0.931 . S
H238 C217 0.934 . S
H239 C218 0.930 . S
Ho240 C243 2.811 1_556 S
Ho240 O260 2.322 1_556 S
Ho240 O262 2.378 1_556 S
Ho240 O263 2.524 1_556 S
Ho240 O264 2.381 . S
Ho240 O265 2.669 . S
Ho240 O267 2.346 . S
Ho240 O271 2.305 1_556 S
Ho241 C252 2.811 1_554 S
Ho241 O261 2.346 . S
Ho241 O265 2.305 1_554 S
Ho241 O266 2.322 1_554 S
Ho241 O268 2.378 1_554 S
Ho241 O269 2.524 1_554 S
Ho241 O270 2.381 . S
Ho241 O271 2.669 . S
C242 O260 1.259 . S
C242 O261 1.268 . S
C243 Ho240 2.811 1_554 S
C243 C244 1.488 . S
C243 O262 1.215 . S
C243 O263 1.289 . S
C244 C243 1.488 . S
C244 C245 1.348 . S
C244 C249 1.413 . S
C245 C244 1.348 . S
C245 C246 1.442 . S
C245 H272 0.930 . S
C246 C245 1.442 . S
C246 C247 1.381 . S
C246 H273 0.931 . S
C247 C246 1.381 . S
C247 C248 1.321 . S
C248 C247 1.321 . S
C248 C249 1.403 . S
C248 H274 0.934 . S
C249 C244 1.413 . S
C249 C248 1.403 . S
C249 H275 0.930 . S
C250 O264 1.275 . S
C250 O265 1.256 . S
C251 O266 1.259 . S
C251 O267 1.268 . S
C252 Ho241 2.811 1_556 S
C252 C253 1.488 . S
C252 O268 1.215 . S
C252 O269 1.289 . S
C253 C252 1.488 . S
C253 C254 1.348 . S
C253 C258 1.413 . S
C254 C253 1.348 . S
C254 C255 1.442 . S
C254 H276 0.930 . S
C255 C254 1.442 . S
C255 C256 1.381 . S
C255 H277 0.931 . S
C256 C255 1.381 . S
C256 C257 1.321 . S
C257 C256 1.321 . S
C257 C258 1.403 . S
C257 H278 0.934 . S
C258 C253 1.413 . S
C258 C257 1.403 . S
C258 H279 0.930 . S
C259 O270 1.275 . S
C259 O271 1.256 . S
O260 Ho240 2.322 1_554 S
O260 C242 1.259 . S
O261 Ho241 2.346 . S
O261 C242 1.268 . S
O262 Ho240 2.378 1_554 S
O262 C243 1.215 . S
O263 Ho240 2.524 1_554 S
O263 C243 1.289 . S
O264 Ho240 2.381 . S
O264 C250 1.275 . S
O265 Ho240 2.669 . S
O265 Ho241 2.305 1_556 S
O265 C250 1.256 . S
O266 Ho241 2.322 1_556 S
O266 C251 1.259 . S
O267 Ho240 2.346 . S
O267 C251 1.268 . S
O268 Ho241 2.378 1_556 S
O268 C252 1.215 . S
O269 Ho241 2.524 1_556 S
O269 C252 1.289 . S
O270 Ho241 2.381 . S
O270 C259 1.275 . S
O271 Ho240 2.305 1_554 S
O271 Ho241 2.669 . S
O271 C259 1.256 . S
H272 C245 0.930 . S
H273 C246 0.931 . S
H274 C248 0.934 . S
H275 C249 0.930 . S
H276 C254 0.930 . S
H277 C255 0.931 . S
H278 C257 0.934 . S
H279 C258 0.930 . S
Ho280 C283 2.811 1_556 S
Ho280 O300 2.322 1_556 S
Ho280 O302 2.378 1_556 S
Ho280 O303 2.524 1_556 S
Ho280 O304 2.381 . S
Ho280 O305 2.669 . S
Ho280 O307 2.346 . S
Ho280 O311 2.305 1_556 S
Ho281 C292 2.811 1_554 S
Ho281 O301 2.346 . S
Ho281 O305 2.305 1_554 S
Ho281 O306 2.322 1_554 S
Ho281 O308 2.378 1_554 S
Ho281 O309 2.524 1_554 S
Ho281 O310 2.381 . S
Ho281 O311 2.669 . S
C282 O300 1.259 . S
C282 O301 1.268 . S
C283 Ho280 2.811 1_554 S
C283 C284 1.488 . S
C283 O302 1.215 . S
C283 O303 1.289 . S
C284 C283 1.488 . S
C284 C285 1.348 . S
C284 C289 1.413 . S
C285 C284 1.348 . S
C285 C286 1.442 . S
C285 H312 0.930 . S
C286 C285 1.442 . S
C286 C287 1.381 . S
C286 H313 0.931 . S
C287 C286 1.381 . S
C287 C288 1.321 . S
C288 C287 1.321 . S
C288 C289 1.403 . S
C288 H314 0.934 . S
C289 C284 1.413 . S
C289 C288 1.403 . S
C289 H315 0.930 . S
C290 O304 1.275 . S
C290 O305 1.256 . S
C291 O306 1.259 . S
C291 O307 1.268 . S
C292 Ho281 2.811 1_556 S
C292 C293 1.488 . S
C292 O308 1.215 . S
C292 O309 1.289 . S
C293 C292 1.488 . S
C293 C294 1.348 . S
C293 C298 1.413 . S
C294 C293 1.348 . S
C294 C295 1.442 . S
C294 H316 0.930 . S
C295 C294 1.442 . S
C295 C296 1.381 . S
C295 H317 0.931 . S
C296 C295 1.381 . S
C296 C297 1.321 . S
C297 C296 1.321 . S
C297 C298 1.403 . S
C297 H318 0.934 . S
C298 C293 1.413 . S
C298 C297 1.403 . S
C298 H319 0.930 . S
C299 O310 1.275 . S
C299 O311 1.256 . S
O300 Ho280 2.322 1_554 S
O300 C282 1.259 . S
O301 Ho281 2.346 . S
O301 C282 1.268 . S
O302 Ho280 2.378 1_554 S
O302 C283 1.215 . S
O303 Ho280 2.524 1_554 S
O303 C283 1.289 . S
O304 Ho280 2.381 . S
O304 C290 1.275 . S
O305 Ho280 2.669 . S
O305 Ho281 2.305 1_556 S
O305 C290 1.256 . S
O306 Ho281 2.322 1_556 S
O306 C291 1.259 . S
O307 Ho280 2.346 . S
O307 C291 1.268 . S
O308 Ho281 2.378 1_556 S
O308 C292 1.215 . S
O309 Ho281 2.524 1_556 S
O309 C292 1.289 . S
O310 Ho281 2.381 . S
O310 C299 1.275 . S
O311 Ho280 2.305 1_554 S
O311 Ho281 2.669 . S
O311 C299 1.256 . S
H312 C285 0.930 . S
H313 C286 0.931 . S
H314 C288 0.934 . S
H315 C289 0.930 . S
H316 C294 0.930 . S
H317 C295 0.931 . S
H318 C297 0.934 . S
H319 C298 0.930 . S
C320 C321 1.363 . S
C320 C326 1.379 . S
C320 N328 1.356 . S
C321 C320 1.363 . S
C321 C327 1.363 . S
C322 C323 1.363 . S
C322 C327 1.379 . S
C322 N329 1.356 . S
C323 C322 1.363 . S
C323 C326 1.363 . S
N324 C326 1.356 . S
N324 H336 0.984 . S
N324 H337 0.985 . S
N325 C327 1.356 . S
N325 H330 0.984 . S
N325 H331 0.985 . S
C326 C320 1.379 . S
C326 C323 1.363 . S
C326 N324 1.356 . S
C327 C321 1.363 . S
C327 C322 1.379 . S
C327 N325 1.356 . S
N328 C320 1.356 . S
N328 H334 0.984 . S
N328 H335 0.984 . S
N329 C322 1.356 . S
N329 H332 0.984 . S
N329 H333 0.985 . S
H330 N325 0.984 . S
H331 N325 0.985 . S
H332 N329 0.984 . S
H333 N329 0.985 . S
H334 N328 0.984 . S
H335 N328 0.984 . S
H336 N324 0.984 . S
H337 N324 0.985 . S
C338 C339 1.363 . S
C338 C344 1.379 . S
C338 N346 1.356 . S
C339 C338 1.363 . S
C339 C345 1.363 . S
C340 C341 1.363 . S
C340 C345 1.379 . S
C340 N347 1.356 . S
C341 C340 1.363 . S
C341 C344 1.363 . S
N342 C344 1.356 . S
N342 H354 0.984 . S
N342 H355 0.985 . S
N343 C345 1.356 . S
N343 H348 0.984 . S
N343 H349 0.985 . S
C344 C338 1.379 . S
C344 C341 1.363 . S
C344 N342 1.356 . S
C345 C339 1.363 . S
C345 C340 1.379 . S
C345 N343 1.356 . S
N346 C338 1.356 . S
N346 H352 0.984 . S
N346 H353 0.984 . S
N347 C340 1.356 . S
N347 H350 0.984 . S
N347 H351 0.985 . S
H348 N343 0.984 . S
H349 N343 0.985 . S
H350 N347 0.984 . S
H351 N347 0.985 . S
H352 N346 0.984 . S
H353 N346 0.984 . S
H354 N342 0.984 . S
H355 N342 0.985 . S
C356 C357 1.363 . S
C356 C362 1.379 . S
C356 N364 1.356 . S
C357 C356 1.363 . S
C357 C363 1.363 . S
C358 C359 1.363 . S
C358 C363 1.379 . S
C358 N365 1.356 . S
C359 C358 1.363 . S
C359 C362 1.363 . S
N360 C362 1.356 . S
N360 H372 0.984 . S
N360 H373 0.985 . S
N361 C363 1.356 . S
N361 H366 0.984 . S
N361 H367 0.985 . S
C362 C356 1.379 . S
C362 C359 1.363 . S
C362 N360 1.356 . S
C363 C357 1.363 . S
C363 C358 1.379 . S
C363 N361 1.356 . S
N364 C356 1.356 . S
N364 H370 0.984 . S
N364 H371 0.984 . S
N365 C358 1.356 . S
N365 H368 0.984 . S
N365 H369 0.985 . S
H366 N361 0.984 . S
H367 N361 0.985 . S
H368 N365 0.984 . S
H369 N365 0.985 . S
H370 N364 0.984 . S
H371 N364 0.984 . S
H372 N360 0.984 . S
H373 N360 0.985 . S
C374 C375 1.363 . S
C374 C380 1.379 . S
C374 N382 1.356 . S
C375 C374 1.363 . S
C375 C381 1.363 . S
C376 C377 1.363 . S
C376 C381 1.379 . S
C376 N383 1.356 . S
C377 C376 1.363 . S
C377 C380 1.363 . S
N378 C380 1.356 . S
N378 H390 0.984 . S
N378 H391 0.985 . S
N379 C381 1.356 . S
N379 H384 0.984 . S
N379 H385 0.985 . S
C380 C374 1.379 . S
C380 C377 1.363 . S
C380 N378 1.356 . S
C381 C375 1.363 . S
C381 C376 1.379 . S
C381 N379 1.356 . S
N382 C374 1.356 . S
N382 H388 0.984 . S
N382 H389 0.984 . S
N383 C376 1.356 . S
N383 H386 0.984 . S
N383 H387 0.985 . S
H384 N379 0.984 . S
H385 N379 0.985 . S
H386 N383 0.984 . S
H387 N383 0.985 . S
H388 N382 0.984 . S
H389 N382 0.984 . S
H390 N378 0.984 . S
H391 N378 0.985 . S
C392 C393 1.363 . S
C392 C398 1.379 1_565 S
C392 N400 1.356 . S
C393 C392 1.363 . S
C393 C399 1.363 . S
C394 C395 1.363 . S
C394 C399 1.379 1_545 S
C394 N401 1.356 . S
C395 C394 1.363 . S
C395 C398 1.363 . S
N396 C398 1.356 . S
N396 H408 0.984 . S
N396 H409 0.985 . S
N397 C399 1.356 . S
N397 H402 0.984 . S
N397 H403 0.985 . S
C398 C392 1.379 1_545 S
C398 C395 1.363 . S
C398 N396 1.356 . S
C399 C393 1.363 . S
C399 C394 1.379 1_565 S
C399 N397 1.356 . S
N400 C392 1.356 . S
N400 H406 0.984 . S
N400 H407 0.984 . S
N401 C394 1.356 . S
N401 H404 0.984 . S
N401 H405 0.985 . S
H402 N397 0.984 . S
H403 N397 0.985 . S
H404 N401 0.984 . S
H405 N401 0.985 . S
H406 N400 0.984 . S
H407 N400 0.984 . S
H408 N396 0.984 . S
H409 N396 0.985 . S
C410 C411 1.363 . S
C410 C416 1.379 . S
C410 N418 1.356 . S
C411 C410 1.363 . S
C411 C417 1.363 . S
C412 C413 1.363 . S
C412 C417 1.379 . S
C412 N419 1.356 . S
C413 C412 1.363 . S
C413 C416 1.363 . S
N414 C416 1.356 . S
N414 H426 0.984 . S
N414 H427 0.985 . S
N415 C417 1.356 . S
N415 H420 0.984 . S
N415 H421 0.985 . S
C416 C410 1.379 . S
C416 C413 1.363 . S
C416 N414 1.356 . S
C417 C411 1.363 . S
C417 C412 1.379 . S
C417 N415 1.356 . S
N418 C410 1.356 . S
N418 H424 0.984 . S
N418 H425 0.984 . S
N419 C412 1.356 . S
N419 H422 0.984 . S
N419 H423 0.985 . S
H420 N415 0.984 . S
H421 N415 0.985 . S
H422 N419 0.984 . S
H423 N419 0.985 . S
H424 N418 0.984 . S
H425 N418 0.984 . S
H426 N414 0.984 . S
H427 N414 0.985 . S
C428 C429 1.363 . S
C428 C434 1.379 1_565 S
C428 N436 1.356 . S
C429 C428 1.363 . S
C429 C435 1.363 . S
C430 C431 1.363 . S
C430 C435 1.379 1_545 S
C430 N437 1.356 . S
C431 C430 1.363 . S
C431 C434 1.363 . S
N432 C434 1.356 . S
N432 H444 0.984 . S
N432 H445 0.985 . S
N433 C435 1.356 . S
N433 H438 0.984 . S
N433 H439 0.985 . S
C434 C428 1.379 1_545 S
C434 C431 1.363 . S
C434 N432 1.356 . S
C435 C429 1.363 . S
C435 C430 1.379 1_565 S
C435 N433 1.356 . S
N436 C428 1.356 . S
N436 H442 0.984 . S
N436 H443 0.984 . S
N437 C430 1.356 . S
N437 H440 0.984 . S
N437 H441 0.985 . S
H438 N433 0.984 . S
H439 N433 0.985 . S
H440 N437 0.984 . S
H441 N437 0.985 . S
H442 N436 0.984 . S
H443 N436 0.984 . S
H444 N432 0.984 . S
H445 N432 0.985 . S
C446 C447 1.363 . S
C446 C452 1.379 . S
C446 N454 1.356 . S
C447 C446 1.363 . S
C447 C453 1.363 . S
C448 C449 1.363 . S
C448 C453 1.379 . S
C448 N455 1.356 . S
C449 C448 1.363 . S
C449 C452 1.363 . S
N450 C452 1.356 . S
N450 H462 0.984 . S
N450 H463 0.985 . S
N451 C453 1.356 . S
N451 H456 0.984 . S
N451 H457 0.985 . S
C452 C446 1.379 . S
C452 C449 1.363 . S
C452 N450 1.356 . S
C453 C447 1.363 . S
C453 C448 1.379 . S
C453 N451 1.356 . S
N454 C446 1.356 . S
N454 H460 0.984 . S
N454 H461 0.984 . S
N455 C448 1.356 . S
N455 H458 0.984 . S
N455 H459 0.985 . S
H456 N451 0.984 . S
H457 N451 0.985 . S
H458 N455 0.984 . S
H459 N455 0.985 . S
H460 N454 0.984 . S
H461 N454 0.984 . S
H462 N450 0.984 . S
H463 N450 0.985 . S
C464 C465 1.363 1_554 S
C464 C470 1.379 . S
C464 N472 1.356 . S
C465 C464 1.363 1_556 S
C465 C471 1.363 . S
C466 C467 1.363 . S
C466 C471 1.379 . S
C466 N473 1.356 . S
C467 C466 1.363 . S
C467 C470 1.363 1_556 S
N468 C470 1.356 . S
N468 H480 0.984 . S
N468 H481 0.985 . S
N469 C471 1.356 . S
N469 H474 0.984 . S
N469 H475 0.985 . S
C470 C464 1.379 . S
C470 C467 1.363 1_554 S
C470 N468 1.356 . S
C471 C465 1.363 . S
C471 C466 1.379 . S
C471 N469 1.356 . S
N472 C464 1.356 . S
N472 H478 0.984 . S
N472 H479 0.984 . S
N473 C466 1.356 . S
N473 H476 0.984 . S
N473 H477 0.985 . S
H474 N469 0.984 . S
H475 N469 0.985 . S
H476 N473 0.984 . S
H477 N473 0.985 . S
H478 N472 0.984 . S
H479 N472 0.984 . S
H480 N468 0.984 . S
H481 N468 0.985 . S
C482 C483 1.363 1_554 S
C482 C488 1.379 1_565 S
C482 N490 1.356 . S
C483 C482 1.363 1_556 S
C483 C489 1.363 . S
C484 C485 1.363 . S
C484 C489 1.379 1_545 S
C484 N491 1.356 . S
C485 C484 1.363 . S
C485 C488 1.363 1_556 S
N486 C488 1.356 . S
N486 H498 0.984 . S
N486 H499 0.985 . S
N487 C489 1.356 . S
N487 H492 0.984 . S
N487 H493 0.985 . S
C488 C482 1.379 1_545 S
C488 C485 1.363 1_554 S
C488 N486 1.356 . S
C489 C483 1.363 . S
C489 C484 1.379 1_565 S
C489 N487 1.356 . S
N490 C482 1.356 . S
N490 H496 0.984 . S
N490 H497 0.984 . S
N491 C484 1.356 . S
N491 H494 0.984 . S
N491 H495 0.985 . S
H492 N487 0.984 . S
H493 N487 0.985 . S
H494 N491 0.984 . S
H495 N491 0.985 . S
H496 N490 0.984 . S
H497 N490 0.984 . S
H498 N486 0.984 . S
H499 N486 0.985 . S
C500 C501 1.363 1_556 S
C500 C506 1.379 . S
C500 N508 1.356 . S
C501 C500 1.363 1_554 S
C501 C507 1.363 . S
C502 C503 1.363 . S
C502 C507 1.379 . S
C502 N509 1.356 . S
C503 C502 1.363 . S
C503 C506 1.363 1_554 S
N504 C506 1.356 . S
N504 H516 0.984 . S
N504 H517 0.985 . S
N505 C507 1.356 . S
N505 H510 0.984 . S
N505 H511 0.985 . S
C506 C500 1.379 . S
C506 C503 1.363 1_556 S
C506 N504 1.356 . S
C507 C501 1.363 . S
C507 C502 1.379 . S
C507 N505 1.356 . S
N508 C500 1.356 . S
N508 H514 0.984 . S
N508 H515 0.984 . S
N509 C502 1.356 . S
N509 H512 0.984 . S
N509 H513 0.985 . S
H510 N505 0.984 . S
H511 N505 0.985 . S
H512 N509 0.984 . S
H513 N509 0.985 . S
H514 N508 0.984 . S
H515 N508 0.984 . S
H516 N504 0.984 . S
H517 N504 0.985 . S
C518 C519 1.363 . S
C518 C524 1.379 1_545 S
C518 N526 1.356 . S
C519 C518 1.363 . S
C519 C525 1.363 1_554 S
C520 C521 1.363 1_556 S
C520 C525 1.379 1_565 S
C520 N527 1.356 . S
C521 C520 1.363 1_554 S
C521 C524 1.363 . S
N522 C524 1.356 . S
N522 H534 0.984 . S
N522 H535 0.985 . S
N523 C525 1.356 . S
N523 H528 0.984 . S
N523 H529 0.985 . S
C524 C518 1.379 1_565 S
C524 C521 1.363 . S
C524 N522 1.356 . S
C525 C519 1.363 1_556 S
C525 C520 1.379 1_545 S
C525 N523 1.356 . S
N526 C518 1.356 . S
N526 H532 0.984 . S
N526 H533 0.984 . S
N527 C520 1.356 . S
N527 H530 0.984 . S
N527 H531 0.985 . S
H528 N523 0.984 . S
H529 N523 0.985 . S
H530 N527 0.984 . S
H531 N527 0.985 . S
H532 N526 0.984 . S
H533 N526 0.984 . S
H534 N522 0.984 . S
H535 N522 0.985 . S
C536 C537 1.363 1_556 S
C536 C542 1.379 . S
C536 N544 1.356 1_556 S
C537 C536 1.363 1_554 S
C537 C543 1.363 1_554 S
C538 C539 1.363 . S
C538 C543 1.379 . S
C538 N545 1.356 . S
C539 C538 1.363 . S
C539 C542 1.363 . S
N540 C542 1.356 . S
N540 H552 0.984 . S
N540 H553 0.985 . S
N541 C543 1.356 1_554 S
N541 H546 0.984 . S
N541 H547 0.985 . S
C542 C536 1.379 . S
C542 C539 1.363 . S
C542 N540 1.356 . S
C543 C537 1.363 1_556 S
C543 C538 1.379 . S
C543 N541 1.356 1_556 S
N544 C536 1.356 1_554 S
N544 H550 0.984 1_554 S
N544 H551 0.984 . S
N545 C538 1.356 . S
N545 H548 0.984 . S
N545 H549 0.985 . S
H546 N541 0.984 . S
H547 N541 0.985 . S
H548 N545 0.984 . S
H549 N545 0.985 . S
H550 N544 0.984 1_556 S
H551 N544 0.984 . S
H552 N540 0.984 . S
H553 N540 0.985 . S
C554 C555 1.363 1_556 S
C554 C560 1.379 . S
C554 N562 1.356 1_556 S
C555 C554 1.363 1_554 S
C555 C561 1.363 1_554 S
C556 C557 1.363 . S
C556 C561 1.379 . S
C556 N563 1.356 . S
C557 C556 1.363 . S
C557 C560 1.363 . S
N558 C560 1.356 . S
N558 H570 0.984 . S
N558 H571 0.985 . S
N559 C561 1.356 1_554 S
N559 H564 0.984 . S
N559 H565 0.985 1_554 S
C560 C554 1.379 . S
C560 C557 1.363 . S
C560 N558 1.356 . S
C561 C555 1.363 1_556 S
C561 C556 1.379 . S
C561 N559 1.356 1_556 S
N562 C554 1.356 1_554 S
N562 H568 0.984 . S
N562 H569 0.984 . S
N563 C556 1.356 . S
N563 H566 0.984 . S
N563 H567 0.985 . S
H564 N559 0.984 . S
H565 N559 0.985 1_556 S
H566 N563 0.984 . S
H567 N563 0.985 . S
H568 N562 0.984 . S
H569 N562 0.984 . S
H570 N558 0.984 . S
H571 N558 0.985 . S
C572 C573 1.363 . S
C572 C578 1.379 . S
C572 N580 1.356 . S
C573 C572 1.363 . S
C573 C579 1.363 . S
C574 C575 1.363 1_554 S
C574 C579 1.379 . S
C574 N581 1.356 1_554 S
C575 C574 1.363 1_556 S
C575 C578 1.363 1_556 S
N576 C578 1.356 1_556 S
N576 H588 0.984 . S
N576 H589 0.985 . S
N577 C579 1.356 . S
N577 H582 0.984 . S
N577 H583 0.985 . S
C578 C572 1.379 . S
C578 C575 1.363 1_554 S
C578 N576 1.356 1_554 S
C579 C573 1.363 . S
C579 C574 1.379 . S
C579 N577 1.356 . S
N580 C572 1.356 . S
N580 H586 0.984 . S
N580 H587 0.984 . S
N581 C574 1.356 1_556 S
N581 H584 0.984 . S
N581 H585 0.985 . S
H582 N577 0.984 . S
H583 N577 0.985 . S
H584 N581 0.984 . S
H585 N581 0.985 . S
H586 N580 0.984 . S
H587 N580 0.984 . S
H588 N576 0.984 . S
H589 N576 0.985 . S
C590 C591 1.363 1_554 S
C590 C596 1.379 . S
C590 N598 1.356 1_554 S
C591 C590 1.363 1_556 S
C591 C597 1.363 1_556 S
C592 C593 1.363 . S
C592 C597 1.379 . S
C592 N599 1.356 . S
C593 C592 1.363 . S
C593 C596 1.363 . S
N594 C596 1.356 . S
N594 H606 0.984 . S
N594 H607 0.985 . S
N595 C597 1.356 1_556 S
N595 H600 0.984 . S
N595 H601 0.985 . S
C596 C590 1.379 . S
C596 C593 1.363 . S
C596 N594 1.356 . S
C597 C591 1.363 1_554 S
C597 C592 1.379 . S
C597 N595 1.356 1_554 S
N598 C590 1.356 1_556 S
N598 H604 0.984 1_556 S
N598 H605 0.984 . S
N599 C592 1.356 . S
N599 H602 0.984 . S
N599 H603 0.985 . S
H600 N595 0.984 . S
H601 N595 0.985 . S
H602 N599 0.984 . S
H603 N599 0.985 . S
H604 N598 0.984 1_554 S
H605 N598 0.984 . S
H606 N594 0.984 . S
H607 N594 0.985 . S
C608 C609 1.363 . S
C608 C614 1.379 . S
C608 N616 1.356 . S
C609 C608 1.363 . S
C609 C615 1.363 . S
C610 C611 1.363 . S
C610 C615 1.379 . S
C610 N617 1.356 . S
C611 C610 1.363 . S
C611 C614 1.363 . S
N612 C614 1.356 . S
N612 H624 0.984 . S
N612 H625 0.985 . S
N613 C615 1.356 . S
N613 H618 0.984 . S
N613 H619 0.985 . S
C614 C608 1.379 . S
C614 C611 1.363 . S
C614 N612 1.356 . S
C615 C609 1.363 . S
C615 C610 1.379 . S
C615 N613 1.356 . S
N616 C608 1.356 . S
N616 H622 0.984 . S
N616 H623 0.984 . S
N617 C610 1.356 . S
N617 H620 0.984 . S
N617 H621 0.985 . S
H618 N613 0.984 . S
H619 N613 0.985 . S
H620 N617 0.984 . S
H621 N617 0.985 . S
H622 N616 0.984 . S
H623 N616 0.984 . S
H624 N612 0.984 . S
H625 N612 0.985 . S
C626 C627 1.363 . S
C626 C632 1.379 . S
C626 N634 1.356 . S
C627 C626 1.363 . S
C627 C633 1.363 . S
C628 C629 1.363 . S
C628 C633 1.379 . S
C628 N635 1.356 . S
C629 C628 1.363 . S
C629 C632 1.363 . S
N630 C632 1.356 . S
N630 H642 0.984 . S
N630 H643 0.985 . S
N631 C633 1.356 . S
N631 H636 0.984 . S
N631 H637 0.985 . S
C632 C626 1.379 . S
C632 C629 1.363 . S
C632 N630 1.356 . S
C633 C627 1.363 . S
C633 C628 1.379 . S
C633 N631 1.356 . S
N634 C626 1.356 . S
N634 H640 0.984 . S
N634 H641 0.984 . S
N635 C628 1.356 . S
N635 H638 0.984 . S
N635 H639 0.985 . S
H636 N631 0.984 . S
H637 N631 0.985 . S
H638 N635 0.984 . S
H639 N635 0.985 . S
H640 N634 0.984 . S
H641 N634 0.984 . S
H642 N630 0.984 . S
H643 N630 0.985 . S
C644 C645 1.363 . S
C644 C650 1.379 . S
C644 N652 1.356 . S
C645 C644 1.363 . S
C645 C651 1.363 . S
C646 C647 1.363 . S
C646 C651 1.379 . S
C646 N653 1.356 . S
C647 C646 1.363 . S
C647 C650 1.363 . S
N648 C650 1.356 . S
N648 H660 0.984 . S
N648 H661 0.985 . S
N649 C651 1.356 . S
N649 H654 0.984 . S
N649 H655 0.985 . S
C650 C644 1.379 . S
C650 C647 1.363 . S
C650 N648 1.356 . S
C651 C645 1.363 . S
C651 C646 1.379 . S
C651 N649 1.356 . S
N652 C644 1.356 . S
N652 H658 0.984 . S
N652 H659 0.984 . S
N653 C646 1.356 . S
N653 H656 0.984 . S
N653 H657 0.985 . S
H654 N649 0.984 . S
H655 N649 0.985 . S
H656 N653 0.984 . S
H657 N653 0.985 . S
H658 N652 0.984 . S
H659 N652 0.984 . S
H660 N648 0.984 . S
H661 N648 0.985 . S
C662 C663 1.363 . S
C662 C668 1.379 . S
C662 N670 1.356 . S
C663 C662 1.363 . S
C663 C669 1.363 . S
C664 C665 1.363 . S
C664 C669 1.379 . S
C664 N671 1.356 . S
C665 C664 1.363 . S
C665 C668 1.363 . S
N666 C668 1.356 . S
N666 H678 0.984 . S
N666 H679 0.985 . S
N667 C669 1.356 . S
N667 H672 0.984 . S
N667 H673 0.985 . S
C668 C662 1.379 . S
C668 C665 1.363 . S
C668 N666 1.356 . S
C669 C663 1.363 . S
C669 C664 1.379 . S
C669 N667 1.356 . S
N670 C662 1.356 . S
N670 H676 0.984 . S
N670 H677 0.984 . S
N671 C664 1.356 . S
N671 H674 0.984 . S
N671 H675 0.985 . S
H672 N667 0.984 . S
H673 N667 0.985 . S
H674 N671 0.984 . S
H675 N671 0.985 . S
H676 N670 0.984 . S
H677 N670 0.984 . S
H678 N666 0.984 . S
H679 N666 0.985 . S
C680 C681 1.363 . S
C680 C686 1.379 1_455 S
C680 N688 1.356 1_554 S
C681 C680 1.363 . S
C681 C687 1.363 . S
C682 C683 1.363 . S
C682 C687 1.379 1_655 S
C682 N689 1.356 . S
C683 C682 1.363 . S
C683 C686 1.363 . S
N684 C686 1.356 1_556 S
N684 H696 0.984 . S
N684 H697 0.985 . S
N685 C687 1.356 . S
N685 H690 0.984 . S
N685 H691 0.985 . S
C686 C680 1.379 1_655 S
C686 C683 1.363 . S
C686 N684 1.356 1_554 S
C687 C681 1.363 . S
C687 C682 1.379 1_455 S
C687 N685 1.356 . S
N688 C680 1.356 1_556 S
N688 H694 0.984 . S
N688 H695 0.984 . S
N689 C682 1.356 . S
N689 H692 0.984 . S
N689 H693 0.985 . S
H690 N685 0.984 . S
H691 N685 0.985 . S
H692 N689 0.984 . S
H693 N689 0.985 . S
H694 N688 0.984 . S
H695 N688 0.984 . S
H696 N684 0.984 . S
H697 N684 0.985 . S
C698 C699 1.363 . S
C698 C704 1.379 1_655 S
C698 N706 1.356 1_556 S
C699 C698 1.363 . S
C699 C705 1.363 . S
C700 C701 1.363 . S
C700 C705 1.379 1_455 S
C700 N707 1.356 . S
C701 C700 1.363 . S
C701 C704 1.363 . S
N702 C704 1.356 1_554 S
N702 H714 0.984 . S
N702 H715 0.985 . S
N703 C705 1.356 . S
N703 H708 0.984 . S
N703 H709 0.985 . S
C704 C698 1.379 1_455 S
C704 C701 1.363 . S
C704 N702 1.356 1_556 S
C705 C699 1.363 . S
C705 C700 1.379 1_655 S
C705 N703 1.356 . S
N706 C698 1.356 1_554 S
N706 H712 0.984 . S
N706 H713 0.984 . S
N707 C700 1.356 . S
N707 H710 0.984 . S
N707 H711 0.985 . S
H708 N703 0.984 . S
H709 N703 0.985 . S
H710 N707 0.984 . S
H711 N707 0.985 . S
H712 N706 0.984 . S
H713 N706 0.984 . S
H714 N702 0.984 . S
H715 N702 0.985 . S
C716 C717 1.363 . S
C716 C722 1.379 . S
C716 N724 1.356 . S
C717 C716 1.363 . S
C717 C723 1.363 . S
C718 C719 1.363 . S
C718 C723 1.379 . S
C718 N725 1.356 . S
C719 C718 1.363 . S
C719 C722 1.363 . S
N720 C722 1.356 . S
N720 H732 0.984 . S
N720 H733 0.985 . S
N721 C723 1.356 . S
N721 H726 0.984 . S
N721 H727 0.985 . S
C722 C716 1.379 . S
C722 C719 1.363 . S
C722 N720 1.356 . S
C723 C717 1.363 . S
C723 C718 1.379 . S
C723 N721 1.356 . S
N724 C716 1.356 . S
N724 H730 0.984 . S
N724 H731 0.984 . S
N725 C718 1.356 . S
N725 H728 0.984 . S
N725 H729 0.985 . S
H726 N721 0.984 . S
H727 N721 0.985 . S
H728 N725 0.984 . S
H729 N725 0.985 . S
H730 N724 0.984 . S
H731 N724 0.984 . S
H732 N720 0.984 . S
H733 N720 0.985 . S
C734 C735 1.363 . S
C734 C740 1.379 . S
C734 N742 1.356 . S
C735 C734 1.363 . S
C735 C741 1.363 . S
C736 C737 1.363 . S
C736 C741 1.379 . S
C736 N743 1.356 . S
C737 C736 1.363 . S
C737 C740 1.363 . S
N738 C740 1.356 . S
N738 H750 0.984 . S
N738 H751 0.985 . S
N739 C741 1.356 . S
N739 H744 0.984 . S
N739 H745 0.985 . S
C740 C734 1.379 . S
C740 C737 1.363 . S
C740 N738 1.356 . S
C741 C735 1.363 . S
C741 C736 1.379 . S
C741 N739 1.356 . S
N742 C734 1.356 . S
N742 H748 0.984 . S
N742 H749 0.984 . S
N743 C736 1.356 . S
N743 H746 0.984 . S
N743 H747 0.985 . S
H744 N739 0.984 . S
H745 N739 0.985 . S
H746 N743 0.984 . S
H747 N743 0.985 . S
H748 N742 0.984 . S
H749 N742 0.984 . S
H750 N738 0.984 . S
H751 N738 0.985 . S
C321 C7 1.714 . S
C323 C296 1.713 . S
C339 C256 1.713 . S
C341 C47 1.713 . S
C357 C207 1.714 . S
C359 C96 1.713 . S
C375 C167 1.713 . S
C377 C136 1.713 . S
C393 C90 1.627 . S
C395 C10 1.648 . S
C411 C50 1.648 . S
C413 C130 1.627 . S
C429 C139 1.648 . S
C431 C59 1.627 . S
C447 C99 1.648 . S
C449 C19 1.627 . S
C465 C170 1.447 . S
C467 C250 1.447 . S
C483 C210 1.447 . S
C485 C290 1.447 . S
C501 C299 1.447 . S
C503 C219 1.447 . S
C519 C259 1.447 . S
C521 C179 1.447 . S
C537 C11 2.077 . S
C539 C2 2.077 . S
C555 C51 2.077 . S
C557 C42 2.077 . S
C573 C91 2.077 . S
C575 C82 2.077 . S
C591 C122 2.077 . S
C593 C131 2.077 . S
C609 C162 2.076 . S
C611 C171 2.076 . S
C627 C211 2.076 . S
C629 C202 2.076 . S
C645 C242 2.076 . S
C647 C251 2.076 . S
C663 C282 2.076 . S
C665 C291 2.076 . S
C681 C16 2.251 . S
C683 C56 2.251 . S
C699 C127 2.251 . S
C701 C87 2.251 . S
C717 C176 2.253 . S
C719 C216 2.253 . S
C735 C287 2.253 . S
C737 C247 2.253 . S
