# Generated by pormake.
# Topology whz, (6)-cn, num edge types: 1
# Building blocks:
#     Node 0, Type 0, BuildingBlock: IZENUY_clean_sbu_0, # of connection points: 6
#     Node 1, Type 0, BuildingBlock: IZENUY_clean_sbu_0, # of connection points: 6
#     Node 2, Type 0, BuildingBlock: IZENUY_clean_sbu_0, # of connection points: 6
#     Node 3, Type 0, BuildingBlock: IZENUY_clean_sbu_0, # of connection points: 6
#     Node 4, Type 0, BuildingBlock: IZENUY_clean_sbu_0, # of connection points: 6
#     Node 5, Type 0, BuildingBlock: IZENUY_clean_sbu_0, # of connection points: 6
#     Node 6, Type 0, BuildingBlock: IZENUY_clean_sbu_0, # of connection points: 6
#     Node 7, Type 0, BuildingBlock: IZENUY_clean_sbu_0, # of connection points: 6
#     Node 8, Type 0, BuildingBlock: IZENUY_clean_sbu_0, # of connection points: 6
#     Node 9, Type 0, BuildingBlock: IZENUY_clean_sbu_0, # of connection points: 6
#     Node 10, Type 0, BuildingBlock: IZENUY_clean_sbu_0, # of connection points: 6
#     Node 11, Type 0, BuildingBlock: IZENUY_clean_sbu_0, # of connection points: 6
#     Node 12, Type 0, BuildingBlock: IZENUY_clean_sbu_0, # of connection points: 6
#     Node 13, Type 0, BuildingBlock: IZENUY_clean_sbu_0, # of connection points: 6
#     Node 14, Type 0, BuildingBlock: IZENUY_clean_sbu_0, # of connection points: 6
#     Node 15, Type 0, BuildingBlock: IZENUY_clean_sbu_0, # of connection points: 6
#     Edge 16, Type (0, 0), BuildingBlock: XIVTED_clean_linker_0, # of connection points: 2
#     Edge 17, Type (0, 0), BuildingBlock: XIVTED_clean_linker_0, # of connection points: 2
#     Edge 18, Type (0, 0), BuildingBlock: XIVTED_clean_linker_0, # of connection points: 2
#     Edge 19, Type (0, 0), BuildingBlock: XIVTED_clean_linker_0, # of connection points: 2
#     Edge 20, Type (0, 0), BuildingBlock: XIVTED_clean_linker_0, # of connection points: 2
#     Edge 21, Type (0, 0), BuildingBlock: XIVTED_clean_linker_0, # of connection points: 2
#     Edge 22, Type (0, 0), BuildingBlock: XIVTED_clean_linker_0, # of connection points: 2
#     Edge 23, Type (0, 0), BuildingBlock: XIVTED_clean_linker_0, # of connection points: 2
#     Edge 24, Type (0, 0), BuildingBlock: XIVTED_clean_linker_0, # of connection points: 2
#     Edge 25, Type (0, 0), BuildingBlock: XIVTED_clean_linker_0, # of connection points: 2
#     Edge 26, Type (0, 0), BuildingBlock: XIVTED_clean_linker_0, # of connection points: 2
#     Edge 27, Type (0, 0), BuildingBlock: XIVTED_clean_linker_0, # of connection points: 2
#     Edge 28, Type (0, 0), BuildingBlock: XIVTED_clean_linker_0, # of connection points: 2
#     Edge 29, Type (0, 0), BuildingBlock: XIVTED_clean_linker_0, # of connection points: 2
#     Edge 30, Type (0, 0), BuildingBlock: XIVTED_clean_linker_0, # of connection points: 2
#     Edge 31, Type (0, 0), BuildingBlock: XIVTED_clean_linker_0, # of connection points: 2
#     Edge 32, Type (0, 0), BuildingBlock: XIVTED_clean_linker_0, # of connection points: 2
#     Edge 33, Type (0, 0), BuildingBlock: XIVTED_clean_linker_0, # of connection points: 2
#     Edge 34, Type (0, 0), BuildingBlock: XIVTED_clean_linker_0, # of connection points: 2
#     Edge 35, Type (0, 0), BuildingBlock: XIVTED_clean_linker_0, # of connection points: 2
#     Edge 36, Type (0, 0), BuildingBlock: XIVTED_clean_linker_0, # of connection points: 2
#     Edge 37, Type (0, 0), BuildingBlock: XIVTED_clean_linker_0, # of connection points: 2
#     Edge 38, Type (0, 0), BuildingBlock: XIVTED_clean_linker_0, # of connection points: 2
#     Edge 39, Type (0, 0), BuildingBlock: XIVTED_clean_linker_0, # of connection points: 2
#     Edge 40, Type (0, 0), BuildingBlock: XIVTED_clean_linker_0, # of connection points: 2
#     Edge 41, Type (0, 0), BuildingBlock: XIVTED_clean_linker_0, # of connection points: 2
#     Edge 42, Type (0, 0), BuildingBlock: XIVTED_clean_linker_0, # of connection points: 2
#     Edge 43, Type (0, 0), BuildingBlock: XIVTED_clean_linker_0, # of connection points: 2
#     Edge 44, Type (0, 0), BuildingBlock: XIVTED_clean_linker_0, # of connection points: 2
#     Edge 45, Type (0, 0), BuildingBlock: XIVTED_clean_linker_0, # of connection points: 2
#     Edge 46, Type (0, 0), BuildingBlock: XIVTED_clean_linker_0, # of connection points: 2
#     Edge 47, Type (0, 0), BuildingBlock: XIVTED_clean_linker_0, # of connection points: 2
#     Edge 48, Type (0, 0), BuildingBlock: XIVTED_clean_linker_0, # of connection points: 2
#     Edge 49, Type (0, 0), BuildingBlock: XIVTED_clean_linker_0, # of connection points: 2
#     Edge 50, Type (0, 0), BuildingBlock: XIVTED_clean_linker_0, # of connection points: 2
#     Edge 51, Type (0, 0), BuildingBlock: XIVTED_clean_linker_0, # of connection points: 2
#     Edge 52, Type (0, 0), BuildingBlock: XIVTED_clean_linker_0, # of connection points: 2
#     Edge 53, Type (0, 0), BuildingBlock: XIVTED_clean_linker_0, # of connection points: 2
#     Edge 54, Type (0, 0), BuildingBlock: XIVTED_clean_linker_0, # of connection points: 2
#     Edge 55, Type (0, 0), BuildingBlock: XIVTED_clean_linker_0, # of connection points: 2
#     Edge 56, Type (0, 0), BuildingBlock: XIVTED_clean_linker_0, # of connection points: 2
#     Edge 57, Type (0, 0), BuildingBlock: XIVTED_clean_linker_0, # of connection points: 2
#     Edge 58, Type (0, 0), BuildingBlock: XIVTED_clean_linker_0, # of connection points: 2
#     Edge 59, Type (0, 0), BuildingBlock: XIVTED_clean_linker_0, # of connection points: 2
#     Edge 60, Type (0, 0), BuildingBlock: XIVTED_clean_linker_0, # of connection points: 2
#     Edge 61, Type (0, 0), BuildingBlock: XIVTED_clean_linker_0, # of connection points: 2
#     Edge 62, Type (0, 0), BuildingBlock: XIVTED_clean_linker_0, # of connection points: 2
#     Edge 63, Type (0, 0), BuildingBlock: XIVTED_clean_linker_0, # of connection points: 2
# Relax obj value: 0.407
# Max RMSD: 0.253
# Mean RMSD: 0.253
data_MOF--net-whz--node1-IZENUY_clean_sbu_0--edge1-XIVTED_clean_linker_0
_symmetry_space_group_name_H-M    P1
_symmetry_Int_Tables_number       1
_symmetry_cell_setting            triclinic
loop_
_symmetry_equiv_pos_as_xyz
'x, y, z'
_cell_length_a     34.387033
_cell_length_b     34.373694
_cell_length_c     51.667293
_cell_angle_alpha  90.084036
_cell_angle_beta   89.894989
_cell_angle_gamma 90.025505
loop_
_atom_site_label
_atom_site_type_symbol
_atom_site_fract_x
_atom_site_fract_y
_atom_site_fract_z
_atom_type_partial_charge
Fe0 Fe 0.33083 0.21152 0.14018 0.0
Fe1 Fe 0.25424 0.18947 0.11347 0.0
O2 O 0.30397 0.1798 0.11979 0.0
Fe3 Fe 0.32689 0.1381 0.10612 0.0
O4 O 0.3597 0.12945 0.13396 0.0
O5 O 0.34059 0.17258 0.16269 0.0
O6 O 0.29001 0.22454 0.16075 0.0
C7 C 0.25868 0.20678 0.16513 0.0
C8 C 0.38269 0.19474 0.09999 0.0
O9 O 0.24186 0.18729 0.14777 0.0
C10 C 0.27664 0.16439 0.06553 0.0
O11 O 0.32229 0.2532 0.11946 0.0
O12 O 0.25962 0.24252 0.11442 0.0
O13 O 0.36252 0.1686 0.08916 0.0
O14 O 0.37665 0.20413 0.12326 0.0
C15 C 0.25623 0.10827 0.12075 0.0
O16 O 0.26282 0.19203 0.07879 0.0
O17 O 0.2975 0.13843 0.07615 0.0
C18 C 0.28884 0.26492 0.11322 0.0
O19 O 0.24004 0.13823 0.1116 0.0
O20 O 0.29275 0.10551 0.12218 0.0
C21 C 0.35618 0.14041 0.15736 0.0
Fe22 Fe 0.55426 0.59537 0.38859 0.0
Fe23 Fe 0.5657 0.51165 0.37124 0.0
O24 O 0.581 0.56057 0.37085 0.0
Fe25 Fe 0.62314 0.57472 0.3534 0.0
O26 O 0.64618 0.59242 0.3828 0.0
O27 O 0.5965 0.62644 0.39632 0.0
O28 O 0.56387 0.57071 0.41852 0.0
C29 C 0.55181 0.53691 0.42301 0.0
C30 C 0.56789 0.63499 0.34408 0.0
O31 O 0.54499 0.51367 0.40441 0.0
C32 C 0.59272 0.52201 0.31922 0.0
O33 O 0.50683 0.57077 0.38452 0.0
O34 O 0.51948 0.52417 0.35673 0.0
O35 O 0.60324 0.62363 0.34465 0.0
O36 O 0.54325 0.62133 0.35956 0.0
C37 C 0.64406 0.50294 0.37683 0.0
O38 O 0.58371 0.50046 0.33829 0.0
O39 O 0.60347 0.55676 0.32293 0.0
C40 C 0.49533 0.54624 0.36782 0.0
O41 O 0.61064 0.49687 0.38595 0.0
O42 O 0.64955 0.52842 0.35934 0.0
C43 C 0.63167 0.61607 0.39874 0.0
Fe44 Fe 0.25479 0.8153 0.61583 0.0
Fe45 Fe 0.1848 0.86904 0.60472 0.0
O46 O 0.20477 0.82685 0.61969 0.0
Fe47 Fe 0.1747 0.79626 0.63894 0.0
O48 O 0.2128 0.78215 0.66121 0.0
O49 O 0.26332 0.81778 0.6506 0.0
O50 O 0.27118 0.86572 0.61429 0.0
C51 C 0.25529 0.89671 0.62206 0.0
C52 C 0.21769 0.74124 0.61388 0.0
O53 O 0.21887 0.90108 0.62144 0.0
C54 C 0.12704 0.81447 0.59698 0.0
O55 O 0.25022 0.81237 0.5809 0.0
O56 O 0.21638 0.86618 0.57568 0.0
O57 O 0.18403 0.75409 0.61861 0.0
O58 O 0.24742 0.76255 0.61675 0.0
C59 C 0.15063 0.86864 0.65498 0.0
O60 O 0.14921 0.83958 0.58685 0.0
O61 O 0.13083 0.80489 0.62034 0.0
C62 C 0.23793 0.83939 0.56653 0.0
O63 O 0.1504 0.87994 0.63153 0.0
O64 O 0.16382 0.83568 0.66093 0.0
C65 C 0.24371 0.79949 0.66723 0.0
Fe66 Fe 0.96244 0.42097 0.88742 0.0
Fe67 Fe 0.94618 0.50205 0.86504 0.0
O68 O 0.93229 0.45263 0.86904 0.0
Fe69 Fe 0.8881 0.43502 0.85528 0.0
O70 O 0.87677 0.40138 0.88238 0.0
O71 O 0.92379 0.41203 0.91033 0.0
O72 O 0.97963 0.45823 0.90945 0.0
C73 C 0.96415 0.48989 0.91606 0.0
C74 C 0.93805 0.37376 0.84619 0.0
O75 O 0.94597 0.51047 0.89993 0.0
C76 C 0.91843 0.48651 0.81635 0.0
O77 O 1.0041 0.42834 0.86619 0.0
O78 O 0.9984 0.49208 0.86477 0.0
O79 O 0.91411 0.39769 0.83674 0.0
O80 O 0.95064 0.37755 0.86892 0.0
C81 C 0.86542 0.50699 0.87326 0.0
O82 O 0.94688 0.49753 0.83 0.0
O83 O 0.89118 0.46624 0.82617 0.0
C84 C 0.01831 0.4615 0.86153 0.0
O85 O 0.89678 0.52105 0.86471 0.0
O86 O 0.85895 0.47088 0.87271 0.0
C87 C 0.88971 0.40083 0.90543 0.0
Fe88 Fe 0.67347 0.80592 0.88206 0.0
Fe89 Fe 0.75559 0.82341 0.90037 0.0
O90 O 0.70562 0.83476 0.90055 0.0
Fe91 Fe 0.6879 0.87521 0.91845 0.0
O92 O 0.66912 0.89773 0.88915 0.0
O93 O 0.63973 0.84595 0.87432 0.0
O94 O 0.69835 0.81789 0.85244 0.0
C95 C 0.73329 0.80923 0.8483 0.0
C96 C 0.63096 0.8154 0.92601 0.0
O97 O 0.75621 0.80348 0.86711 0.0
C98 C 0.74225 0.84766 0.95258 0.0
O99 O 0.70126 0.76039 0.88618 0.0
O100 O 0.74653 0.7759 0.91425 0.0
O101 O 0.64032 0.85138 0.92646 0.0
O102 O 0.64724 0.7923 0.91058 0.0
C103 C 0.75791 0.90249 0.89558 0.0
O104 O 0.76459 0.84131 0.93346 0.0
O105 O 0.70683 0.85612 0.94895 0.0
C106 C 0.72604 0.75044 0.90311 0.0
O107 O 0.76695 0.86985 0.88626 0.0
O108 O 0.73212 0.90542 0.91319 0.0
C109 C 0.64734 0.88192 0.87261 0.0
Fe110 Fe 0.38215 0.43064 0.66125 0.0
Fe111 Fe 0.45473 0.42522 0.62632 0.0
O112 O 0.42307 0.45313 0.64624 0.0
Fe113 Fe 0.43229 0.50353 0.6506 0.0
O114 O 0.38112 0.51747 0.65283 0.0
O115 O 0.34839 0.4636 0.64529 0.0
O116 O 0.3724 0.39675 0.6338 0.0
C117 C 0.38335 0.39874 0.61024 0.0
C118 C 0.40985 0.48449 0.6999 0.0
O119 O 0.41562 0.4137 0.60444 0.0
C120 C 0.50789 0.46967 0.65168 0.0
O121 O 0.41344 0.39579 0.67831 0.0
O122 O 0.44811 0.38024 0.64416 0.0
O123 O 0.43605 0.49814 0.68537 0.0
O124 O 0.38407 0.46154 0.69087 0.0
C125 C 0.44804 0.49481 0.59901 0.0
O126 O 0.49651 0.43559 0.64661 0.0
O127 O 0.48534 0.49857 0.64916 0.0
C128 C 0.43925 0.3751 0.66756 0.0
O129 O 0.46708 0.46477 0.60462 0.0
O130 O 0.42879 0.51289 0.61595 0.0
C131 C 0.35079 0.50018 0.6453 0.0
Fe132 Fe 0.82155 0.13255 0.4176 0.0
Fe133 Fe 0.83848 0.20169 0.38181 0.0
O134 O 0.80518 0.17384 0.40011 0.0
Fe135 Fe 0.75568 0.18706 0.40005 0.0
O136 O 0.74235 0.14098 0.38616 0.0
O137 O 0.77652 0.10389 0.41234 0.0
O138 O 0.83971 0.10993 0.38791 0.0
C139 C 0.86248 0.12546 0.3718 0.0
C140 C 0.76807 0.16148 0.4522 0.0
O141 O 0.87143 0.16095 0.37437 0.0
C142 C 0.78729 0.25915 0.40205 0.0
O143 O 0.86964 0.15493 0.42575 0.0
O144 O 0.86434 0.21458 0.41061 0.0
O145 O 0.74613 0.16988 0.43327 0.0
O146 O 0.80311 0.15156 0.44835 0.0
C147 C 0.77897 0.19955 0.34791 0.0
O148 O 0.812 0.24792 0.38543 0.0
O149 O 0.76634 0.23458 0.41369 0.0
C150 C 0.87963 0.19074 0.42595 0.0
O151 O 0.81374 0.19021 0.35208 0.0
O152 O 0.75602 0.20628 0.36666 0.0
C153 C 0.75017 0.10802 0.39535 0.0
Fe154 Fe 0.0726 0.5141 0.14601 0.0
Fe155 Fe 0.12777 0.57827 0.16522 0.0
O156 O 0.08638 0.5634 0.14724 0.0
Fe157 Fe 0.05896 0.59795 0.1298 0.0
O158 O 0.06962 0.57451 0.0995 0.0
O159 O 0.05281 0.51638 0.11273 0.0
O160 O 0.11838 0.50109 0.13153 0.0
C161 C 0.1514 0.50786 0.14101 0.0
C162 C 1.00112 0.54669 0.14949 0.0
O163 O 0.15568 0.53292 0.15894 0.0
C164 C 0.07072 0.6369 0.17486 0.0
O165 O 0.08998 0.50262 0.17892 0.0
O166 O 0.10796 0.55889 0.19539 0.0
O167 O 0.01222 0.57199 0.13323 0.0
O168 O 0.02561 0.52473 0.16025 0.0
C169 C 0.13581 0.6206 0.12022 0.0
O170 O 0.10635 0.62643 0.1744 0.0
O171 O 0.04672 0.62275 0.15915 0.0
C172 C 0.09767 0.52381 0.19842 0.0
O173 O 0.15085 0.59726 0.13609 0.0
O174 O 0.10047 0.63027 0.12283 0.0
C175 C 0.05916 0.54033 0.09451 0.0
Fe176 Fe 0.84322 0.69871 0.63742 0.0
Fe177 Fe 0.75941 0.68677 0.62043 0.0
O178 O 0.80839 0.67186 0.61974 0.0
Fe179 Fe 0.82266 0.62989 0.60206 0.0
O180 O 0.84046 0.60681 0.63144 0.0
O181 O 0.87454 0.6566 0.64475 0.0
O182 O 0.81879 0.68903 0.66763 0.0
C183 C 0.78453 0.69992 0.67216 0.0
C184 C 0.88306 0.68529 0.59289 0.0
O185 O 0.76129 0.70664 0.65365 0.0
C186 C 0.7697 0.66083 0.56822 0.0
O187 O 0.81844 0.74592 0.63374 0.0
O188 O 0.77142 0.73353 0.60634 0.0
O189 O 0.8715 0.65 0.59335 0.0
O190 O 0.86898 0.71001 0.6082 0.0
C191 C 0.75121 0.60809 0.62553 0.0
O192 O 0.74836 0.66944 0.58747 0.0
O193 O 0.80443 0.64969 0.5716 0.0
C194 C 0.79348 0.75762 0.61748 0.0
O195 O 0.74491 0.64139 0.6348 0.0
O196 O 0.77661 0.60305 0.60792 0.0
C197 C 0.86431 0.62139 0.64721 0.0
Fe198 Fe 0.06869 1.0038 0.86684 0.0
Fe199 Fe 0.12368 0.07243 0.85423 0.0
O200 O 0.08174 0.05345 0.87023 0.0
Fe201 Fe 0.05337 0.08441 0.89038 0.0
O202 O 0.03843 0.04694 0.91293 0.0
O203 O 0.07173 0.99529 0.90166 0.0
O204 O 0.11865 0.98616 0.86487 0.0
C205 C 0.15047 1.00157 0.87152 0.0
C206 C 0.99575 0.04367 0.86643 0.0
O207 O 0.15574 0.03789 0.8704 0.0
C208 C 0.07097 0.13159 0.84787 0.0
O209 O 0.06512 0.00778 0.83186 0.0
O210 O 0.11932 0.04053 0.82552 0.0
O211 O 0.00974 0.07694 0.8712 0.0
O212 O 0.01627 0.01316 0.86836 0.0
C213 C 0.12738 0.10509 0.90433 0.0
O214 O 0.09405 0.10816 0.8369 0.0
O215 O 0.06293 0.12823 0.87158 0.0
C216 C 0.09212 0.01901 0.81703 0.0
O217 O 0.13623 0.10724 0.88049 0.0
O218 O 0.09466 0.09248 0.91129 0.0
C219 C 0.05444 0.01525 0.91858 0.0
Fe220 Fe 0.66673 0.31047 0.13822 0.0
Fe221 Fe 0.75039 0.32468 0.12164 0.0
O222 O 0.70112 0.33847 0.12099 0.0
Fe223 Fe 0.68606 0.3805 0.10377 0.0
O224 O 0.66773 0.40262 0.13349 0.0
O225 O 0.6345 0.35177 0.1459 0.0
O226 O 0.69049 0.32016 0.16858 0.0
C227 C 0.725 0.3103 0.17315 0.0
C228 C 0.62692 0.3242 0.09391 0.0
O229 O 0.74867 0.30433 0.1547 0.0
C230 C 0.7397 0.35116 0.06964 0.0
O231 O 0.69259 0.26385 0.1342 0.0
O232 O 0.73967 0.27783 0.10713 0.0
O233 O 0.63766 0.3597 0.095 0.0
O234 O 0.64162 0.29926 0.10873 0.0
C235 C 0.75725 0.40337 0.12705 0.0
O236 O 0.76108 0.34274 0.08885 0.0
O237 O 0.70472 0.36159 0.07306 0.0
C238 C 0.71809 0.25303 0.11798 0.0
O239 O 0.76382 0.37022 0.13638 0.0
O240 O 0.73157 0.40806 0.10968 0.0
C241 C 0.64415 0.38702 0.14907 0.0
Fe242 Fe 0.44767 0.91581 0.38904 0.0
Fe243 Fe 0.43473 0.9996 0.37255 0.0
O244 O 0.42114 0.95033 0.37093 0.0
Fe245 Fe 0.38081 0.93551 0.35191 0.0
O246 O 0.35631 0.91638 0.38045 0.0
O247 O 0.40594 0.88328 0.39483 0.0
O248 O 0.43532 0.9393 0.41917 0.0
C249 C 0.44512 0.97371 0.42424 0.0
C250 C 0.43857 0.87738 0.34345 0.0
O251 O 0.45274 0.99735 0.4061 0.0
C252 C 0.41214 0.9903 0.31968 0.0
O253 O 0.49445 0.94186 0.38678 0.0
O254 O 0.48248 0.98902 0.35938 0.0
O255 O 0.40286 0.88752 0.34314 0.0
O256 O 0.46159 0.89109 0.35995 0.0
C257 C 0.35579 0.00605 0.37545 0.0
O258 O 0.41898 0.01111 0.33945 0.0
O259 O 0.40204 0.95509 0.32221 0.0
C260 C 0.50637 0.96697 0.37066 0.0
O261 O 0.38816 0.01257 0.38597 0.0
O262 O 0.35252 0.98078 0.35757 0.0
C263 C 0.37046 0.89278 0.39651 0.0
Fe264 Fe 0.16079 0.30951 0.37692 0.0
Fe265 Fe 0.24505 0.32203 0.39248 0.0
O266 O 0.19591 0.33604 0.3945 0.0
Fe267 Fe 0.18174 0.37689 0.41333 0.0
O268 O 0.16255 0.40113 0.38473 0.0
O269 O 0.12866 0.35151 0.3711 0.0
O270 O 0.18366 0.32134 0.34662 0.0
C271 C 0.21754 0.31064 0.34102 0.0
C272 C 0.12323 0.31988 0.42266 0.0
O273 O 0.24187 0.30334 0.35885 0.0
C274 C 0.23661 0.3456 0.44548 0.0
O275 O 0.18648 0.26244 0.37914 0.0
O276 O 0.23439 0.27455 0.40594 0.0
O277 O 0.13363 0.35553 0.4225 0.0
O278 O 0.13657 0.29629 0.40632 0.0
C279 C 0.25222 0.40091 0.38929 0.0
O280 O 0.25722 0.33819 0.42561 0.0
O281 O 0.20146 0.35591 0.443 0.0
C282 C 0.2121 0.25057 0.39491 0.0
O283 O 0.2582 0.36837 0.37877 0.0
O284 O 0.22719 0.40459 0.4073 0.0
C285 C 0.13879 0.38678 0.36882 0.0
Fe286 Fe 0.9425 1.00236 0.14823 0.0
Fe287 Fe 0.88605 0.93916 0.16748 0.0
O288 O 0.92769 0.95331 0.14947 0.0
Fe289 Fe 0.9543 0.91815 0.13193 0.0
O290 O 0.94346 0.94159 0.10176 0.0
O291 O 0.9618 0.99954 0.11464 0.0
O292 O 0.89682 0.01647 0.13417 0.0
C293 C 0.86377 0.01045 0.14389 0.0
C294 C 0.01347 0.96863 0.15088 0.0
O295 O 0.85899 0.98501 0.16147 0.0
C296 C 0.94226 0.87997 0.17711 0.0
O297 O 0.92565 0.01408 0.18145 0.0
O298 O 0.90617 0.95806 0.19757 0.0
O299 O 1.0015 0.94336 0.13486 0.0
O300 O 0.98956 0.99089 0.16204 0.0
C301 C 0.87707 0.89653 0.12274 0.0
O302 O 0.9067 0.89065 0.17653 0.0
O303 O 0.96647 0.89347 0.16128 0.0
C304 C 0.91681 0.99297 0.20081 0.0
O305 O 0.86256 0.9206 0.13841 0.0
O306 O 0.91224 0.88632 0.12533 0.0
C307 C 0.95449 0.9755 0.09654 0.0
Fe308 Fe 0.32381 0.63191 0.91539 0.0
Fe309 Fe 0.34272 0.69966 0.87889 0.0
O310 O 0.30856 0.67273 0.89705 0.0
Fe311 Fe 0.25915 0.68621 0.896 0.0
O312 O 0.24626 0.63993 0.8821 0.0
O313 O 0.27847 0.6036 0.90983 0.0
O314 O 0.34223 0.60801 0.88643 0.0
C315 C 0.36519 0.6225 0.87005 0.0
C316 C 0.26973 0.66256 0.94863 0.0
O317 O 0.37499 0.65792 0.87206 0.0
C318 C 0.29142 0.75801 0.89834 0.0
O319 O 0.37214 0.65377 0.92386 0.0
O320 O 0.36817 0.71288 0.90775 0.0
O321 O 0.2482 0.66952 0.92921 0.0
O322 O 0.30485 0.65256 0.94543 0.0
C323 C 0.28461 0.69859 0.84418 0.0
O324 O 0.31671 0.74652 0.88209 0.0
O325 O 0.2697 0.73369 0.90958 0.0
C326 C 0.38271 0.68942 0.9236 0.0
O327 O 0.31869 0.68791 0.84906 0.0
O328 O 0.26091 0.70538 0.86251 0.0
C329 C 0.25351 0.60715 0.89182 0.0
Fe330 Fe 0.55501 0.08805 0.63323 0.0
Fe331 Fe 0.56758 0.00491 0.65144 0.0
O332 O 0.58226 0.05406 0.65123 0.0
Fe333 Fe 0.62449 0.06924 0.66823 0.0
O334 O 0.64709 0.08618 0.63834 0.0
O335 O 0.59688 0.11925 0.6248 0.0
O336 O 0.56444 0.06249 0.60346 0.0
C337 C 0.55391 0.02798 0.59953 0.0
C338 C 0.56908 0.12996 0.67676 0.0
O339 O 0.54715 0.00541 0.6184 0.0
C340 C 0.59455 0.01721 0.7032 0.0
O341 O 0.50792 0.06315 0.63784 0.0
O342 O 0.52092 0.01702 0.66576 0.0
O343 O 0.60434 0.11834 0.67627 0.0
O344 O 0.54409 0.115 0.66207 0.0
C345 C 0.64619 0.99721 0.64561 0.0
O346 O 0.58557 0.9952 0.68438 0.0
O347 O 0.60534 0.05194 0.69919 0.0
C348 C 0.49653 0.03852 0.65448 0.0
O349 O 0.61278 0.99024 0.63685 0.0
O350 O 0.6514 0.02315 0.66283 0.0
C351 C 0.63215 0.10923 0.62223 0.0
H352 H 0.28271 0.17236 0.20883 0.0
H353 H 0.17831 0.33189 0.29754 0.0
H354 H 0.20059 0.25579 0.17945 0.0
H355 H 0.27055 0.25677 0.32408 0.0
H356 H 0.18186 0.30109 0.25501 0.0
H357 H 0.2715 0.19695 0.25265 0.0
C358 C 0.26111 0.19488 0.21188 0.0
C359 C 0.24186 0.21168 0.19084 0.0
C360 C 0.20146 0.29147 0.27007 0.0
C361 C 0.23038 0.24132 0.24043 0.0
C362 C 0.19969 0.30923 0.29429 0.0
C363 C 0.22428 0.29692 0.31435 0.0
C364 C 0.22787 0.26101 0.26588 0.0
C365 C 0.25133 0.26742 0.30911 0.0
C366 C 0.25522 0.20937 0.23676 0.0
C367 C 0.21519 0.24161 0.19542 0.0
N368 N 0.25223 0.25029 0.2854 0.0
N369 N 0.2105 0.25585 0.21978 0.0
H370 H 0.48116 0.56254 0.58251 0.0
H371 H 0.50136 0.47936 0.43813 0.0
H372 H 0.42652 0.45702 0.55596 0.0
H373 H 0.56573 0.5781 0.46716 0.0
H374 H 0.46893 0.47384 0.48011 0.0
H375 H 0.50495 0.57431 0.53833 0.0
C376 C 0.47302 0.54273 0.56711 0.0
C377 C 0.45175 0.50904 0.57253 0.0
C378 C 0.49026 0.49664 0.47729 0.0
C379 C 0.47978 0.52117 0.52263 0.0
C380 C 0.5091 0.49949 0.45343 0.0
C381 C 0.53631 0.52917 0.44914 0.0
C382 C 0.49874 0.52365 0.49696 0.0
C383 C 0.54485 0.55479 0.46959 0.0
C384 C 0.48706 0.549 0.54206 0.0
C385 C 0.44271 0.48349 0.55228 0.0
N386 N 0.52604 0.55151 0.49257 0.0
N387 N 0.45709 0.48987 0.52822 0.0
H388 H 0.31185 0.76806 0.68461 0.0
H389 H 0.22541 0.74605 0.82802 0.0
H390 H 0.20343 0.81834 0.70984 0.0
H391 H 0.32715 0.68485 0.80052 0.0
H392 H 0.21964 0.77722 0.78574 0.0
H393 H 0.32301 0.74447 0.72889 0.0
C394 C 0.29117 0.77521 0.69973 0.0
C395 C 0.25685 0.79512 0.69391 0.0
C396 C 0.24314 0.75684 0.78895 0.0
C397 C 0.26844 0.7675 0.74388 0.0
C398 C 0.24615 0.73871 0.81299 0.0
C399 C 0.27677 0.71283 0.8178 0.0
C400 C 0.27093 0.74899 0.76963 0.0
C401 C 0.30312 0.70474 0.79767 0.0
C402 C 0.29713 0.76131 0.72482 0.0
C403 C 0.23031 0.80305 0.71381 0.0
N404 N 0.29968 0.72288 0.7745 0.0
N405 N 0.23647 0.78892 0.7379 0.0
H406 H 0.98704 0.56142 0.93452 0.0
H407 H 0.01965 0.47612 0.07725 0.0
H408 H 0.95571 0.44531 0.95818 0.0
H409 H 0.06686 0.58601 0.05151 0.0
H410 H 0.99095 0.46683 0.03453 0.0
H411 H 0.00919 0.57488 0.97896 0.0
C412 C 0.98399 0.53922 0.94925 0.0
C413 C 0.96987 0.50224 0.94291 0.0
C414 C 0.0077 0.49294 0.03822 0.0
C415 C 0.99542 0.51685 0.99311 0.0
C416 C 0.02436 0.49808 0.06255 0.0
C417 C 0.04568 0.53185 0.06799 0.0
C418 C 0.01237 0.52178 0.01918 0.0
C419 C 0.05055 0.55951 0.0482 0.0
C420 C 0.99698 0.54664 0.97443 0.0
C421 C 0.9668 0.47413 0.96242 0.0
N422 N 0.03391 0.55391 0.0247 0.0
N423 N 0.97971 0.48192 0.98659 0.0
H424 H 0.7984 0.7693 0.83278 0.0
H425 H 0.72024 0.74047 0.68814 0.0
H426 H 0.6926 0.82074 0.80367 0.0
H427 H 0.82738 0.69059 0.71629 0.0
H428 H 0.70923 0.76927 0.73071 0.0
H429 H 0.81057 0.74151 0.78995 0.0
C430 C 0.77802 0.7752 0.81732 0.0
C431 C 0.74428 0.79711 0.82187 0.0
C432 C 0.73507 0.7519 0.7276 0.0
C433 C 0.7577 0.76495 0.77299 0.0
C434 C 0.74123 0.73519 0.70334 0.0
C435 C 0.77487 0.71324 0.69859 0.0
C436 C 0.76273 0.74659 0.74727 0.0
C437 C 0.80113 0.70749 0.71903 0.0
C438 C 0.78483 0.75907 0.79292 0.0
C439 C 0.71882 0.80373 0.80111 0.0
N440 N 0.79457 0.72422 0.74245 0.0
N441 N 0.72594 0.7875 0.77764 0.0
H442 H 0.68317 0.32238 0.21742 0.0
H443 H 0.81896 0.18525 0.30322 0.0
H444 H 0.788 0.26781 0.18893 0.0
H445 H 0.71557 0.24174 0.33238 0.0
H446 H 0.80664 0.21337 0.26077 0.0
H447 H 0.69462 0.29325 0.2597 0.0
C448 C 0.70881 0.30455 0.22012 0.0
C449 C 0.73459 0.29733 0.19956 0.0
C450 C 0.78654 0.21947 0.2764 0.0
C451 C 0.74756 0.26354 0.24785 0.0
C452 C 0.79343 0.20326 0.30063 0.0
C453 C 0.76841 0.21144 0.32144 0.0
C454 C 0.75444 0.24408 0.27293 0.0
C455 C 0.73563 0.2347 0.3169 0.0
C456 C 0.7152 0.28778 0.24425 0.0
C457 C 0.76741 0.27418 0.20422 0.0
N458 N 0.72976 0.25048 0.29315 0.0
N459 N 0.77282 0.25789 0.22786 0.0
H460 H 0.93466 0.93513 0.05313 0.0
H461 H 0.08094 0.05099 0.96124 0.0
H462 H 0.00579 0.03099 0.07919 0.0
H463 H 0.01437 0.95185 0.93598 0.0
H464 H 0.05758 0.04092 1.00538 0.0
H465 H 0.96445 0.93992 0.01042 0.0
C466 C 0.95628 0.95752 0.04978 0.0
C467 C 0.96779 0.98273 0.06979 0.0
C468 C 0.04858 0.02084 0.99037 0.0
C469 C 1.00248 0.9879 0.02095 0.0
C470 C 0.06231 0.02628 0.96529 0.0
C471 C 0.04986 1.00183 0.94524 0.0
C472 C 0.02155 0.99115 0.99529 0.0
C473 C 0.02509 0.9708 0.95113 0.0
C474 C 0.9735 0.96 0.02542 0.0
C475 C 0.99584 0.01117 0.0643 0.0
N476 N 0.01127 0.9666 0.97567 0.0
N477 N 0.01237 0.01286 0.0404 0.0
H478 H 0.4331 0.93054 0.46802 0.0
H479 H 0.56861 0.06706 0.55471 0.0
H480 H 0.48461 0.03787 0.44123 0.0
H481 H 0.50985 0.96539 0.58447 0.0
H482 H 0.5402 0.05468 0.5124 0.0
H483 H 0.46099 0.9422 0.51075 0.0
C484 C 0.44994 0.95676 0.47118 0.0
C485 C 0.4568 0.98315 0.45096 0.0
C486 C 0.53359 0.03498 0.52813 0.0
C487 C 0.48914 0.99632 0.49967 0.0
C488 C 0.54997 0.0419 0.55228 0.0
C489 C 0.54133 0.01736 0.57321 0.0
C490 C 0.50835 1.00329 0.52482 0.0
C491 C 0.51726 0.98504 0.56888 0.0
C492 C 0.46598 0.96328 0.49555 0.0
C493 C 0.47863 0.0167 0.45621 0.0
N494 N 0.50138 0.97906 0.54515 0.0
N495 N 0.49428 0.02216 0.48001 0.0
H496 H 0.15401 0.05633 0.94094 0.0
H497 H 0.24202 0.21742 0.03289 0.0
H498 H 0.16452 0.17475 0.91469 0.0
H499 H 0.27693 0.09703 0.03706 0.0
H500 H 0.21097 0.20407 0.99099 0.0
H501 H 0.19593 0.07162 0.9778 0.0
C502 C 0.16558 0.08553 0.94287 0.0
C503 C 0.15607 0.11429 0.92475 0.0
C504 C 0.22592 0.18077 1.00095 0.0
C505 C 0.20336 0.13235 0.96729 0.0
C506 C 0.24359 0.18832 0.02489 0.0
C507 C 0.26208 0.15829 0.03866 0.0
C508 C 0.22594 0.14275 0.99094 0.0
C509 C 0.26316 0.12116 0.02724 0.0
C510 C 0.18954 0.09424 0.96387 0.0
C511 C 0.17156 0.15173 0.92816 0.0
N512 N 0.24487 0.11436 1.00432 0.0
N513 N 0.19404 0.15989 0.94928 0.0
H514 H 0.62056 0.55545 0.27431 0.0
H515 H 0.59906 0.36047 0.18939 0.0
H516 H 0.57164 0.44846 0.30345 0.0
H517 H 0.65814 0.46349 0.16233 0.0
H518 H 0.58304 0.39447 0.22962 0.0
H519 H 0.62897 0.52452 0.23193 0.0
C520 C 0.61129 0.52557 0.27183 0.0
C521 C 0.59549 0.5046 0.29272 0.0
C522 C 0.5992 0.4098 0.21481 0.0
C523 C 0.60517 0.46882 0.24394 0.0
C524 C 0.60821 0.39043 0.19168 0.0
C525 C 0.62998 0.40904 0.17223 0.0
C526 C 0.61196 0.44824 0.21873 0.0
C527 C 0.64124 0.44787 0.17663 0.0
C528 C 0.61621 0.50786 0.24756 0.0
C529 C 0.5841 0.46587 0.28809 0.0
N530 N 0.63227 0.46603 0.19937 0.0
N531 N 0.58926 0.44931 0.26434 0.0
H532 H 0.29378 0.79428 0.54296 0.0
H533 H 0.29762 0.91731 0.41108 0.0
H534 H 0.21807 0.89193 0.52844 0.0
H535 H 0.38896 0.83836 0.43366 0.0
H536 H 0.26247 0.90136 0.45089 0.0
H537 H 0.32299 0.80335 0.50023 0.0
C538 C 0.28296 0.81744 0.53074 0.0
C539 C 0.2534 0.84251 0.53956 0.0
C540 C 0.29002 0.88724 0.44702 0.0
C541 C 0.28704 0.85302 0.49028 0.0
C542 C 0.31006 0.89611 0.42415 0.0
C543 C 0.34645 0.87915 0.41884 0.0
C544 C 0.3062 0.86096 0.46481 0.0
C545 C 0.36107 0.85217 0.4368 0.0
C546 C 0.29984 0.82266 0.50631 0.0
C547 C 0.24081 0.87196 0.52265 0.0
N548 N 0.341 0.84404 0.45894 0.0
N549 N 0.25772 0.87643 0.49893 0.0
H550 H 0.92011 0.64046 0.68332 0.0
H551 H 0.86437 0.46654 0.77935 0.0
H552 H 0.83889 0.54959 0.66334 0.0
H553 H 0.9625 0.5425 0.79192 0.0
H554 H 0.85472 0.49638 0.73684 0.0
H555 H 0.93635 0.60503 0.72296 0.0
C556 C 0.90603 0.61284 0.68705 0.0
C557 C 0.87812 0.59807 0.66978 0.0
C558 C 0.87855 0.50632 0.74881 0.0
C559 C 0.89618 0.5575 0.71559 0.0
C560 C 0.8841 0.48926 0.77315 0.0
C561 C 0.91426 0.50197 0.78945 0.0
C562 C 0.90303 0.53674 0.74064 0.0
C563 C 0.93886 0.53161 0.78016 0.0
C564 C 0.91529 0.59262 0.70977 0.0
C565 C 0.86073 0.56214 0.67589 0.0
N566 N 0.93249 0.54815 0.75657 0.0
N567 N 0.86976 0.54337 0.69832 0.0
H568 H 0.80038 0.9118 0.11123 0.0
H569 H 0.81471 0.82387 0.96771 0.0
H570 H 0.9011 0.85153 0.08157 0.0
H571 H 0.71007 0.87616 0.99807 0.0
H572 H 0.84528 0.8313 0.00997 0.0
H573 H 0.76561 0.89639 0.07117 0.0
C574 C 0.81508 0.89483 0.0965 0.0
C575 C 0.85388 0.8829 0.09999 0.0
C576 C 0.81556 0.84099 1.00753 0.0
C577 C 0.81411 0.8656 0.05363 0.0
C578 C 0.79798 0.83678 0.98328 0.0
C579 C 0.75965 0.84958 0.97908 0.0
C580 C 0.79498 0.85841 0.028 0.0
C581 C 0.73961 0.86585 1.00026 0.0
C582 C 0.79516 0.88617 0.07352 0.0
C583 C 0.87127 0.86124 0.07996 0.0
N584 N 0.75757 0.87006 0.02368 0.0
N585 N 0.85143 0.85358 0.0577 0.0
H586 H 0.41805 0.64125 0.83175 0.0
H587 H 0.3572 0.46492 0.73839 0.0
H588 H 0.339 0.55032 0.85515 0.0
H589 H 0.45446 0.54093 0.7231 0.0
H590 H 0.34952 0.49575 0.78099 0.0
H591 H 0.43142 0.60514 0.79177 0.0
C592 C 0.40389 0.61348 0.82871 0.0
C593 C 0.37751 0.59887 0.84709 0.0
C594 C 0.37272 0.50545 0.76837 0.0
C595 C 0.39215 0.5575 0.80084 0.0
C596 C 0.37715 0.48779 0.74399 0.0
C597 C 0.40649 0.50023 0.72689 0.0
C598 C 0.3975 0.53615 0.77575 0.0
C599 C 0.43136 0.53021 0.73543 0.0
C600 C 0.41146 0.59287 0.80577 0.0
C601 C 0.3598 0.56275 0.84176 0.0
N602 N 0.4261 0.54722 0.75902 0.0
N603 N 0.36715 0.54358 0.81914 0.0
H604 H 0.69586 0.18592 0.46788 0.0
H605 H 0.70872 0.09349 0.61021 0.0
H606 H 0.79941 0.13061 0.49715 0.0
H607 H 0.60816 0.15432 0.58118 0.0
H608 H 0.74361 0.1094 0.57021 0.0
H609 H 0.66488 0.17715 0.50999 0.0
C610 C 0.71229 0.1721 0.48319 0.0
C611 C 0.75045 0.15888 0.4787 0.0
C612 C 0.71405 0.1196 0.57267 0.0
C613 C 0.7146 0.14846 0.52745 0.0
C614 C 0.69406 0.11064 0.59562 0.0
C615 C 0.65528 0.12263 0.59931 0.0
C616 C 0.69523 0.14058 0.553 0.0
C617 C 0.63797 0.14453 0.57943 0.0
C618 C 0.69446 0.16709 0.50734 0.0
C619 C 0.77004 0.14133 0.49955 0.0
N620 N 0.6579 0.15254 0.55721 0.0
N621 N 0.75185 0.13642 0.52287 0.0
H622 H 0.15383 0.46377 0.35794 0.0
H623 H 0.07395 0.4505 0.21239 0.0
H624 H 0.09617 0.36268 0.32662 0.0
H625 H 0.12423 0.55487 0.24461 0.0
H626 H 0.07948 0.41917 0.2546 0.0
H627 H 0.14051 0.49866 0.31765 0.0
C628 C 0.13784 0.44901 0.34279 0.0
C629 C 0.12602 0.41009 0.34591 0.0
C630 C 0.08914 0.44899 0.25254 0.0
C631 C 0.11118 0.45 0.29924 0.0
C632 C 0.08602 0.46701 0.22834 0.0
C633 C 0.09879 0.50551 0.2247 0.0
C634 C 0.10537 0.46934 0.27352 0.0
C635 C 0.11401 0.5252 0.24634 0.0
C636 C 0.13039 0.469 0.31967 0.0
C637 C 0.10568 0.39263 0.32533 0.0
N638 N 0.11708 0.50687 0.26969 0.0
N639 N 0.09921 0.41255 0.30292 0.0
H640 H 0.69761 0.68684 0.55371 0.0
H641 H 0.70846 0.60063 0.40956 0.0
H642 H 0.8001 0.63151 0.52249 0.0
H643 H 0.60817 0.66009 0.44058 0.0
H644 H 0.74385 0.61505 0.44948 0.0
H645 H 0.66611 0.68046 0.51165 0.0
C646 C 0.71368 0.6735 0.538 0.0
C647 C 0.75168 0.65952 0.54189 0.0
C648 C 0.71425 0.62531 0.44748 0.0
C649 C 0.7153 0.65195 0.49324 0.0
C650 C 0.69397 0.61721 0.42457 0.0
C651 C 0.65511 0.6292 0.4215 0.0
C652 C 0.69564 0.6454 0.46771 0.0
C653 C 0.63803 0.65037 0.44187 0.0
C654 C 0.69556 0.66988 0.51388 0.0
C655 C 0.77085 0.6427 0.52055 0.0
N656 N 0.65825 0.65752 0.46407 0.0
N657 N 0.7524 0.63917 0.49727 0.0
H658 H 0.13884 0.04197 0.77628 0.0
H659 H 0.11312 0.84501 0.6987 0.0
H660 H 0.05327 0.95575 0.7974 0.0
H661 H 0.15383 0.94849 0.66017 0.0
H662 H 0.09453 0.88445 0.73613 0.0
H663 H 0.14829 0.00826 0.73473 0.0
C664 C 0.12174 0.01624 0.77213 0.0
C665 C 0.09526 1.00173 0.79054 0.0
C666 C 0.10706 0.8987 0.7194 0.0
C667 C 0.10653 0.96263 0.74314 0.0
C668 C 0.11769 0.87618 0.69799 0.0
C669 C 0.1348 0.89348 0.67615 0.0
C670 C 0.11447 0.93888 0.71945 0.0
C671 C 0.14027 0.93403 0.67646 0.0
C672 C 0.12713 0.99707 0.74837 0.0
C673 C 0.07397 0.96819 0.78394 0.0
N674 N 0.13069 0.9553 0.69792 0.0
N675 N 0.08046 0.94959 0.76105 0.0
H676 H 0.70851 0.37742 0.02321 0.0
H677 H 0.91488 0.37168 0.9514 0.0
H678 H 0.81362 0.33018 0.05611 0.0
H679 H 0.80936 0.39912 0.91032 0.0
H680 H 0.87663 0.35591 0.98957 0.0
H681 H 0.74278 0.38512 0.98161 0.0
C682 C 0.73858 0.36836 0.02171 0.0
C683 C 0.75816 0.35338 0.04343 0.0
C684 C 0.86157 0.36501 0.97222 0.0
C685 C 0.7976 0.36234 0.99587 0.0
C686 C 0.88351 0.37403 0.95029 0.0
C687 C 0.86542 0.38672 0.92747 0.0
C688 C 0.82093 0.36914 0.97177 0.0
C689 C 0.82455 0.38915 0.92739 0.0
C690 C 0.75813 0.37279 0.99793 0.0
C691 C 0.79719 0.34216 0.04016 0.0
N692 N 0.80369 0.38086 0.94928 0.0
N693 N 0.81549 0.34711 0.01705 0.0
H694 H 0.36825 0.06089 0.159 0.0
H695 H 0.43157 0.06535 0.3083 0.0
H696 H 0.37668 0.16468 0.20568 0.0
H697 H 0.38884 0.96045 0.27211 0.0
H698 H 0.42283 0.09988 0.26773 0.0
H699 H 0.38616 0.02187 0.1972 0.0
C700 C 0.37444 0.07551 0.17711 0.0
C701 C 0.37098 0.11618 0.17909 0.0
C702 C 0.41548 0.06926 0.26854 0.0
C703 C 0.39146 0.07182 0.22272 0.0
C704 C 0.42057 0.04935 0.29178 0.0
C705 C 0.41054 0.00983 0.2939 0.0
C706 C 0.40035 0.04978 0.24689 0.0
C707 C 0.39677 0.99091 0.27151 0.0
C708 C 0.38437 0.05321 0.19892 0.0
C709 C 0.37887 0.13349 0.20316 0.0
N710 N 0.39188 0.01109 0.24897 0.0
N711 N 0.38872 0.11131 0.22388 0.0
H712 H 0.30311 0.3911 0.60707 0.0
H713 H 0.31199 0.32733 0.45727 0.0
H714 H 0.40847 0.37243 0.5634 0.0
H715 H 0.20596 0.36781 0.49308 0.0
H716 H 0.34544 0.33492 0.49842 0.0
H717 H 0.26508 0.37407 0.56815 0.0
C718 C 0.31824 0.38271 0.58952 0.0
C719 C 0.35912 0.38319 0.58859 0.0
C720 C 0.3148 0.34203 0.49742 0.0
C721 C 0.31587 0.36394 0.544 0.0
C722 C 0.29553 0.33762 0.47381 0.0
C723 C 0.25597 0.34721 0.47142 0.0
C724 C 0.29466 0.35614 0.51919 0.0
C725 C 0.23647 0.36018 0.49385 0.0
C726 C 0.29653 0.37333 0.56725 0.0
C727 C 0.37709 0.37262 0.56514 0.0
N728 N 0.25601 0.36446 0.51672 0.0
N729 N 0.35548 0.36357 0.54396 0.0
H730 H 0.93753 0.06703 0.21583 0.0
H731 H 0.84934 0.04848 0.35937 0.0
H732 H 0.88917 0.96055 0.24615 0.0
H733 H 0.90615 0.15175 0.33067 0.0
H734 H 0.86591 0.01497 0.31893 0.0
H735 H 0.92839 0.09756 0.2582 0.0
C736 C 0.92521 0.0499 0.23139 0.0
C737 C 0.91404 0.01103 0.22717 0.0
C738 C 0.87509 0.04484 0.32156 0.0
C739 C 0.90318 0.04621 0.2761 0.0
C740 C 0.86575 0.06402 0.34476 0.0
C741 C 0.87642 0.10312 0.34866 0.0
C742 C 0.89506 0.06483 0.30185 0.0
C743 C 0.89741 0.12163 0.32875 0.0
C744 C 0.91997 0.06744 0.25567 0.0
C745 C 0.89825 0.99053 0.24831 0.0
N746 N 0.90576 0.10248 0.30628 0.0
N747 N 0.8931 0.00837 0.27169 0.0
H748 H 0.21283 0.60683 0.10874 0.0
H749 H 0.1963 0.68544 0.96306 0.0
H750 H 0.11042 0.66263 0.07814 0.0
H751 H 0.30181 0.63725 0.9947 0.0
H752 H 0.16564 0.67988 1.00556 0.0
H753 H 0.24693 0.62061 0.06815 0.0
C754 C 0.19761 0.62251 0.09368 0.0
C755 C 0.15855 0.63365 0.09708 0.0
C756 C 0.19556 0.6707 1.00331 0.0
C757 C 0.19755 0.64903 0.05008 0.0
C758 C 0.21319 0.67385 0.97894 0.0
C759 C 0.25182 0.66164 0.97506 0.0
C760 C 0.21644 0.65501 0.0242 0.0
C761 C 0.27204 0.64702 0.99662 0.0
C762 C 0.21714 0.63023 0.07039 0.0
C763 C 0.14049 0.65363 0.07662 0.0
N764 N 0.25408 0.64389 0.02012 0.0
N765 N 0.15998 0.66037 0.05404 0.0
H766 H 0.56924 0.94543 0.71894 0.0
H767 H 0.66034 0.95922 0.86153 0.0
H768 H 0.62561 0.04871 0.7481 0.0
H769 H 0.60325 0.85706 0.83128 0.0
H770 H 0.64396 0.9941 0.82173 0.0
H771 H 0.57764 0.91468 0.76104 0.0
C772 C 0.58322 0.96185 0.73422 0.0
C773 C 0.59691 0.99983 0.72971 0.0
C774 C 0.63466 0.96419 0.82389 0.0
C775 C 0.60683 0.96427 0.77845 0.0
C776 C 0.64385 0.9442 0.84673 0.0
C777 C 0.63313 0.90497 0.84998 0.0
C778 C 0.61465 0.94493 0.80392 0.0
C779 C 0.61207 0.88721 0.82986 0.0
C780 C 0.58802 0.94414 0.75837 0.0
C781 C 0.61459 0.01944 0.75053 0.0
N782 N 0.60378 0.90718 0.80775 0.0
N783 N 0.61925 1.00138 0.77387 0.0
H784 H 0.44366 0.16465 0.07135 0.0
H785 H 0.55877 0.36473 0.08747 0.0
H786 H 0.39393 0.27211 0.09884 0.0
H787 H 0.61339 0.25463 0.07087 0.0
H788 H 0.49531 0.33528 0.07823 0.0
H789 H 0.50261 0.20062 0.05844 0.0
C790 C 0.44474 0.1959 0.07394 0.0
C791 C 0.41429 0.21545 0.08642 0.0
C792 C 0.52128 0.31779 0.07594 0.0
C793 C 0.48116 0.25661 0.07202 0.0
C794 C 0.55753 0.3348 0.08092 0.0
C795 C 0.59121 0.31191 0.08028 0.0
C796 C 0.51888 0.27769 0.07038 0.0
C797 C 0.58793 0.27311 0.07192 0.0
C798 C 0.47836 0.21643 0.06674 0.0
C799 C 0.4171 0.25593 0.08955 0.0
N800 N 0.55239 0.25701 0.06779 0.0
N801 N 0.45004 0.27506 0.08271 0.0
H802 H 0.60647 0.70401 0.33544 0.0
H803 H 0.50663 0.87437 0.3174 0.0
H804 H 0.49826 0.6447 0.32093 0.0
H805 H 0.40678 0.80461 0.33698 0.0
H806 H 0.5424 0.81546 0.30598 0.0
H807 H 0.57513 0.76562 0.3244 0.0
C808 C 0.57662 0.70379 0.32877 0.0
C809 C 0.55488 0.66935 0.32924 0.0
C810 C 0.51262 0.81283 0.31252 0.0
C811 C 0.51831 0.73971 0.31684 0.0
C812 C 0.49189 0.84654 0.31856 0.0
C813 C 0.45379 0.84425 0.3283 0.0
C814 C 0.49532 0.7764 0.31672 0.0
C815 C 0.43603 0.80764 0.32945 0.0
C816 C 0.55847 0.73908 0.32254 0.0
C817 C 0.51596 0.67078 0.32099 0.0
N818 N 0.45722 0.77504 0.32421 0.0
N819 N 0.49872 0.70539 0.31573 0.0
H820 H 0.95157 0.64522 0.58586 0.0
H821 H 0.06394 0.84654 0.57199 0.0
H822 H 0.89579 0.75478 0.56981 0.0
H823 H 0.11829 0.73731 0.59073 0.0
H824 H 0.00459 0.81099 0.55972 0.0
H825 H 0.01466 0.67517 0.57593 0.0
C826 C 0.95246 0.67512 0.57928 0.0
C827 C 0.91855 0.69768 0.57892 0.0
C828 C 0.02987 0.79471 0.56586 0.0
C829 C 0.99049 0.73254 0.56828 0.0
C830 C 0.0638 0.81504 0.57261 0.0
C831 C 0.09583 0.79476 0.58243 0.0
C832 C 0.02816 0.75399 0.56915 0.0
C833 C 0.09403 0.75398 0.58335 0.0
C834 C 0.98851 0.69243 0.5739 0.0
C835 C 0.92141 0.73651 0.57059 0.0
N836 N 0.06067 0.735 0.57718 0.0
N837 N 0.95673 0.75289 0.56609 0.0
H838 H 0.00872 0.36669 0.82415 0.0
H839 H 0.99514 0.13672 0.83557 0.0
H840 H 0.90244 0.30381 0.83791 0.0
H841 H 0.10299 0.19992 0.83057 0.0
H842 H 0.9597 0.19593 0.8243 0.0
H843 H 0.04163 0.30533 0.81413 0.0
C844 C 0.99194 0.33998 0.82395 0.0
C845 C 0.95273 0.34019 0.83145 0.0
C846 C 0.99115 0.1968 0.82499 0.0
C847 C 0.99049 0.2697 0.82114 0.0
C848 C 0.01141 0.16292 0.83122 0.0
C849 C 0.05198 0.16353 0.83377 0.0
C850 C 0.01159 0.23184 0.82176 0.0
C851 C 0.07172 0.19825 0.82844 0.0
C852 C 0.01084 0.30492 0.81855 0.0
C853 C 0.93252 0.30484 0.83172 0.0
N854 N 0.05127 0.23124 0.82306 0.0
N855 N 0.95178 0.27091 0.82704 0.0
H856 H 0.62194 0.74283 0.94532 0.0
H857 H 0.39113 0.76084 0.94477 0.0
H858 H 0.56031 0.85102 0.93579 0.0
H859 H 0.45289 0.65309 0.93334 0.0
H860 H 0.45235 0.79311 0.95536 0.0
H861 H 0.56053 0.71009 0.95476 0.0
C862 C 0.59551 0.75998 0.94598 0.0
C863 C 0.59622 0.79971 0.93949 0.0
C864 C 0.45251 0.76223 0.95115 0.0
C865 C 0.52554 0.76206 0.94992 0.0
C866 C 0.41753 0.74365 0.9453 0.0
C867 C 0.41696 0.70423 0.93796 0.0
C868 C 0.48742 0.74136 0.94961 0.0
C869 C 0.45196 0.68342 0.93898 0.0
C870 C 0.56043 0.74113 0.9512 0.0
C871 C 0.56116 0.82044 0.94073 0.0
N872 N 0.48593 0.70242 0.94422 0.0
N873 N 0.5271 0.80121 0.94536 0.0
H874 H 0.4098 0.31481 0.69714 0.0
H875 H 0.60956 0.19869 0.6808 0.0
H876 H 0.51662 0.36379 0.66807 0.0
H877 H 0.50013 0.14489 0.7002 0.0
H878 H 0.58014 0.26269 0.68862 0.0
H879 H 0.44598 0.25614 0.71018 0.0
C880 C 0.44098 0.31366 0.69424 0.0
C881 C 0.46025 0.34386 0.68133 0.0
C882 C 0.56282 0.23683 0.69184 0.0
C883 C 0.50168 0.27717 0.69582 0.0
C884 C 0.57983 0.20028 0.68769 0.0
C885 C 0.55714 0.16655 0.68962 0.0
C886 C 0.52288 0.23949 0.69786 0.0
C887 C 0.51851 0.17032 0.69826 0.0
C888 C 0.46163 0.28015 0.70149 0.0
C889 C 0.50064 0.34087 0.67775 0.0
N890 N 0.50241 0.20608 0.7016 0.0
N891 N 0.51988 0.30803 0.68466 0.0
H892 H 0.11991 0.2528 0.4497 0.0
H893 H 0.94868 0.15274 0.43542 0.0
H894 H 0.05075 0.3523 0.4288 0.0
H895 H 0.89035 0.26254 0.44623 0.0
H896 H 0.01051 0.18444 0.44531 0.0
H897 H 0.06088 0.21791 0.46194 0.0
C898 C 0.09219 0.26766 0.4484 0.0
C899 C 0.0901 0.30539 0.43809 0.0
C900 C 0.98416 0.20149 0.44658 0.0
C901 C 0.02204 0.26476 0.45054 0.0
C902 C 0.94872 0.18314 0.44098 0.0
C903 C 0.91446 0.20508 0.43979 0.0
C904 C 0.98516 0.24206 0.45097 0.0
C905 C 0.91627 0.24464 0.44668 0.0
C906 C 0.05838 0.24741 0.4549 0.0
C907 C 0.05362 0.32333 0.43676 0.0
N908 N 0.95102 0.26198 0.4514 0.0
N909 N 0.02092 0.30257 0.44244 0.0
H910 H 0.10863 0.70573 0.18559 0.0
H911 H 0.0081 0.8755 0.20532 0.0
H912 H 0.99949 0.64612 0.19617 0.0
H913 H 0.90957 0.80725 0.1811 0.0
H914 H 0.0429 0.81584 0.2162 0.0
H915 H 0.07668 0.76695 0.19708 0.0
C916 C 0.07837 0.7053 0.19144 0.0
C917 C 0.05664 0.67093 0.18975 0.0
C918 C 0.01357 0.81371 0.20879 0.0
C919 C 0.01942 0.74087 0.20269 0.0
C920 C 0.99336 0.84782 0.20307 0.0
C921 C 0.95598 0.84622 0.19218 0.0
C922 C 0.99652 0.7776 0.20313 0.0
C923 C 0.93824 0.80976 0.18957 0.0
C924 C 0.05989 0.74037 0.19795 0.0
C925 C 0.01722 0.67214 0.19703 0.0
N926 N 0.95897 0.77681 0.19455 0.0
N927 N 0.99973 0.70657 0.20258 0.0
H928 H 0.23865 0.29967 0.08013 0.0
H929 H 0.21601 0.48468 0.16879 0.0
H930 H 0.32024 0.32489 0.14112 0.0
H931 H 0.15924 0.47111 0.09493 0.0
H932 H 0.26003 0.43092 0.15729 0.0
H933 H 0.21465 0.36631 0.08276 0.0
C934 C 0.25213 0.31967 0.09365 0.0
C935 C 0.28137 0.30691 0.11041 0.0
C936 C 0.23844 0.44033 0.14342 0.0
C937 C 0.25313 0.38291 0.11434 0.0
C938 C 0.21342 0.47105 0.14995 0.0
C939 C 0.18345 0.48176 0.13301 0.0
C940 C 0.23318 0.42037 0.11986 0.0
C941 C 0.18139 0.46318 0.10883 0.0
C942 C 0.23838 0.35771 0.09525 0.0
C943 C 0.29778 0.33381 0.12772 0.0
N944 N 0.20543 0.43312 0.10317 0.0
N945 N 0.28282 0.3704 0.12967 0.0
H946 H 0.27291 0.46443 0.41892 0.0
H947 H 0.45839 0.50409 0.3303 0.0
H948 H 0.29412 0.40958 0.34506 0.0
H949 H 0.43721 0.56469 0.40217 0.0
H950 H 0.39272 0.47748 0.33227 0.0
H951 H 0.32698 0.50931 0.41029 0.0
C952 C 0.28839 0.46235 0.40069 0.0
C953 C 0.27949 0.43281 0.38288 0.0
C954 C 0.40214 0.49703 0.34745 0.0
C955 C 0.34134 0.48368 0.37297 0.0
C956 C 0.43968 0.5123 0.34629 0.0
C957 C 0.45351 0.53625 0.36625 0.0
C958 C 0.37833 0.50525 0.36893 0.0
C959 C 0.42782 0.54619 0.3864 0.0
C960 C 0.31934 0.48785 0.39581 0.0
C961 C 0.30047 0.43144 0.35956 0.0
N962 N 0.39169 0.5301 0.38747 0.0
N963 N 0.33062 0.45613 0.35544 0.0
H964 H 0.17994 0.68132 0.63822 0.0
H965 H 0.34881 0.5333 0.59827 0.0
H966 H 0.27172 0.70582 0.58368 0.0
H967 H 0.28351 0.52352 0.66916 0.0
H968 H 0.3059 0.58605 0.58441 0.0
H969 H 0.20326 0.61385 0.6413 0.0
C970 C 0.20413 0.67212 0.62623 0.0
C971 C 0.22416 0.69908 0.61077 0.0
C972 C 0.30031 0.57183 0.60274 0.0
C973 C 0.25093 0.62249 0.6143 0.0
C974 C 0.3246 0.54163 0.61055 0.0
C975 C 0.31935 0.52421 0.63476 0.0
C976 C 0.2709 0.58505 0.61948 0.0
C977 C 0.28807 0.5362 0.65023 0.0
C978 C 0.21762 0.6338 0.62818 0.0
C979 C 0.25566 0.68592 0.59593 0.0
N980 N 0.2652 0.56637 0.64247 0.0
N981 N 0.26827 0.64867 0.59822 0.0
H982 H 0.07545 0.43076 0.89195 0.0
H983 H 0.22131 0.59671 0.8446 0.0
H984 H 0.0564 0.50703 0.82712 0.0
H985 H 0.22935 0.54279 0.91972 0.0
H986 H 0.17163 0.54975 0.83236 0.0
H987 H 0.14161 0.4572 0.89641 0.0
C988 C 0.08582 0.45183 0.87797 0.0
C989 C 0.06067 0.46671 0.85904 0.0
C990 C 0.1845 0.54775 0.85143 0.0
C991 C 0.13558 0.49746 0.86432 0.0
C992 C 0.21289 0.57459 0.85845 0.0
C993 C 0.22891 0.57413 0.88341 0.0
C994 C 0.17145 0.52032 0.86955 0.0
C995 C 0.21748 0.54433 0.90035 0.0
C996 C 0.12333 0.46727 0.88075 0.0
C997 C 0.07503 0.49473 0.84187 0.0
N998 N 0.18884 0.51896 0.89329 0.0
N999 N 0.11135 0.50943 0.84507 0.0
H1000 H 0.77825 0.71818 0.93677 0.0
H1001 H 0.7878 0.51496 0.86115 0.0
H1002 H 0.69988 0.68802 0.87468 0.0
H1003 H 0.87894 0.56215 0.90896 0.0
H1004 H 0.74573 0.56997 0.87386 0.0
H1005 H 0.80506 0.65259 0.93508 0.0
C1006 C 0.76626 0.69763 0.92301 0.0
C1007 C 0.73731 0.70897 0.90547 0.0
C1008 C 0.77469 0.56776 0.88193 0.0
C1009 C 0.76821 0.63371 0.9033 0.0
C1010 C 0.79848 0.53635 0.87481 0.0
C1011 C 0.83679 0.53446 0.88393 0.0
C1012 C 0.78942 0.59683 0.89846 0.0
C1013 C 0.84961 0.56291 0.90137 0.0
C1014 C 0.78165 0.66015 0.92202 0.0
C1015 C 0.72256 0.68075 0.88835 0.0
N1016 N 0.82611 0.59299 0.90794 0.0
N1017 N 0.73858 0.64458 0.8874 0.0
H1018 H 0.72923 0.54232 0.59836 0.0
H1019 H 0.54099 0.52156 0.68434 0.0
H1020 H 0.71191 0.60243 0.67083 0.0
H1021 H 0.56896 0.43797 0.62493 0.0
H1022 H 0.60738 0.54627 0.68227 0.0
H1023 H 0.67521 0.49846 0.60957 0.0
C1024 C 0.71466 0.54574 0.61683 0.0
C1025 C 0.72445 0.57655 0.63344 0.0
C1026 C 0.59945 0.52197 0.67001 0.0
C1027 C 0.66282 0.52694 0.64627 0.0
C1028 C 0.56155 0.50782 0.6713 0.0
C1029 C 0.54966 0.47779 0.65481 0.0
C1030 C 0.6254 0.5068 0.6515 0.0
C1031 C 0.57724 0.46105 0.6381 0.0
C1032 C 0.68382 0.52078 0.62321 0.0
C1033 C 0.70473 0.57963 0.65717 0.0
N1034 N 0.6137 0.47638 0.63643 0.0
N1035 N 0.67461 0.55558 0.66267 0.0
H1036 H 0.81203 0.31789 0.37014 0.0
H1037 H 0.64967 0.46406 0.42225 0.0
H1038 H 0.73721 0.29553 0.43567 0.0
H1039 H 0.70846 0.47894 0.34909 0.0
H1040 H 0.69275 0.41001 0.43231 0.0
H1041 H 0.78527 0.38358 0.36719 0.0
C1042 C 0.7905 0.32696 0.38423 0.0
C1043 C 0.77644 0.30085 0.40299 0.0
C1044 C 0.69664 0.42529 0.41417 0.0
C1045 C 0.74569 0.3761 0.39959 0.0
C1046 C 0.67208 0.45623 0.40841 0.0
C1047 C 0.67507 0.47557 0.38458 0.0
C1048 C 0.72434 0.41321 0.39591 0.0
C1049 C 0.70504 0.46464 0.36761 0.0
C1050 C 0.77514 0.36447 0.38242 0.0
C1051 C 0.7486 0.31441 0.42071 0.0
N1052 N 0.72818 0.43369 0.37342 0.0
N1053 N 0.73391 0.35093 0.41841 0.0
H1054 H 0.77743 0.46843 0.09888 0.0
H1055 H 0.96506 0.50193 0.18606 0.0
H1056 H 0.79966 0.40972 0.1711 0.0
H1057 H 0.94227 0.56724 0.11644 0.0
H1058 H 0.89922 0.47578 0.18423 0.0
H1059 H 0.83184 0.51261 0.10806 0.0
C1060 C 0.79319 0.46537 0.11689 0.0
C1061 C 0.78451 0.43495 0.13403 0.0
C1062 C 0.90834 0.49624 0.16952 0.0
C1063 C 0.84675 0.48497 0.14456 0.0
C1064 C 0.946 0.51121 0.17058 0.0
C1065 C 0.9594 0.53637 0.15119 0.0
C1066 C 0.88399 0.506 0.14868 0.0
C1067 C 0.93324 0.54772 0.13173 0.0
C1068 C 0.82435 0.49046 0.12208 0.0
C1069 C 0.80585 0.4323 0.1571 0.0
N1070 N 0.89699 0.53193 0.13071 0.0
N1071 N 0.8362 0.4566 0.16151 0.0
H1072 H 0.81731 0.8156 0.65041 0.0
H1073 H 0.65267 0.95947 0.59979 0.0
H1074 H 0.74549 0.79491 0.58332 0.0
H1075 H 0.71132 0.97457 0.67285 0.0
H1076 H 0.69759 0.90729 0.5888 0.0
H1077 H 0.78986 0.88099 0.65401 0.0
C1078 C 0.7964 0.82504 0.63608 0.0
C1079 C 0.78322 0.79944 0.61673 0.0
C1080 C 0.70105 0.92221 0.60712 0.0
C1081 C 0.75162 0.87422 0.62091 0.0
C1082 C 0.6754 0.95205 0.61342 0.0
C1083 C 0.67787 0.97086 0.63749 0.0
C1084 C 0.72924 0.91062 0.62512 0.0
C1085 C 0.70829 0.96059 0.65418 0.0
C1086 C 0.78061 0.86236 0.63827 0.0
C1087 C 0.75612 0.8134 0.59875 0.0
N1088 N 0.73247 0.93062 0.64787 0.0
N1089 N 0.74094 0.84964 0.60145 0.0
H1090 H 0.78791 0.91526 0.84804 0.0
H1091 H 0.93895 0.07553 0.89693 0.0
H1092 H 0.7831 0.96532 0.92454 0.0
H1093 H 0.95707 0.99719 0.83287 0.0
H1094 H 0.87193 0.05108 0.90117 0.0
H1095 H 0.83869 0.96146 0.83634 0.0
C1096 C 0.79715 0.93654 0.86226 0.0
C1097 C 0.78183 0.93606 0.88744 0.0
C1098 C 0.89028 0.04008 0.88575 0.0
C1099 C 0.84057 0.98873 0.87427 0.0
C1100 C 0.92829 0.0543 0.88314 0.0
C1101 C 0.95336 0.03828 0.86448 0.0
C1102 C 0.8774 0.0101 0.86936 0.0
C1103 C 0.93856 0.01025 0.84747 0.0
C1104 C 0.8262 0.96286 0.85558 0.0
C1105 C 0.79438 0.96463 0.90497 0.0
N1106 N 0.90169 0.99686 0.85043 0.0
N1107 N 0.82368 0.98944 0.89822 0.0
H1108 H 0.79867 0.03165 0.17193 0.0
H1109 H 0.76532 0.21714 0.08255 0.0
H1110 H 0.85778 0.05202 0.09947 0.0
H1111 H 0.69717 0.19428 0.1511 0.0
H1112 H 0.79268 0.15186 0.08551 0.0
H1113 H 0.75453 0.08581 0.16203 0.0
C1114 C 0.80186 0.04696 0.15375 0.0
C1115 C 0.83235 0.03779 0.13672 0.0
C1116 C 0.77133 0.16084 0.09973 0.0
C1117 C 0.78237 0.09974 0.12536 0.0
C1118 C 0.75565 0.19817 0.098 0.0
C1119 C 0.72928 0.21143 0.11676 0.0
C1120 C 0.76105 0.13666 0.1206 0.0
C1121 C 0.71758 0.18539 0.13626 0.0
C1122 C 0.77679 0.07796 0.14814 0.0
C1123 C 0.83516 0.05858 0.11341 0.0
N1124 N 0.73404 0.14949 0.13793 0.0
N1125 N 0.81087 0.08877 0.10859 0.0
H1126 H 0.54451 0.01034 0.33428 0.0
H1127 H 0.72818 0.04462 0.42459 0.0
H1128 H 0.56353 0.94638 0.40496 0.0
H1129 H 0.7115 0.09878 0.35018 0.0
H1130 H 0.67384 1.00042 0.41505 0.0
H1131 H 0.61083 0.03511 0.33682 0.0
C1132 C 0.56284 1.00109 0.35016 0.0
C1133 C 0.54826 0.97672 0.36961 0.0
C1134 C 0.6826 0.0215 0.40063 0.0
C1135 C 0.6242 0.0055 0.37295 0.0
C1136 C 0.71372 0.04656 0.40603 0.0
C1137 C 0.7238 0.07579 0.38834 0.0
C1138 C 0.66167 0.02591 0.37741 0.0
C1139 C 0.70414 0.07712 0.36458 0.0
C1140 C 0.60078 0.01524 0.35163 0.0
C1141 C 0.57349 0.96533 0.3896 0.0
N1142 N 0.67376 0.05296 0.35997 0.0
N1143 N 0.61002 0.98037 0.39101 0.0
H1144 H 0.19119 0.19309 0.36069 0.0
H1145 H 0.34398 0.04391 0.42083 0.0
H1146 H 0.25664 0.21277 0.4307 0.0
H1147 H 0.29538 0.03053 0.34443 0.0
H1148 H 0.29994 0.09808 0.42882 0.0
H1149 H 0.21737 0.1269 0.35857 0.0
C1150 C 0.21043 0.18327 0.37592 0.0
C1151 C 0.22212 0.2087 0.39577 0.0
C1152 C 0.29845 0.08308 0.41041 0.0
C1153 C 0.25219 0.13307 0.39336 0.0
C1154 C 0.32354 0.05206 0.40584 0.0
C1155 C 0.32374 0.03312 0.38177 0.0
C1156 C 0.27351 0.0957 0.39067 0.0
C1157 C 0.29627 0.04449 0.36321 0.0
C1158 C 0.22549 0.14553 0.3746 0.0
C1159 C 0.24719 0.19437 0.41489 0.0
N1160 N 0.27264 0.07556 0.36788 0.0
N1161 N 0.2616 0.15769 0.41308 0.0
H1162 H 0.07157 0.94171 0.11914 0.0
H1163 H 0.22194 0.10331 0.16754 0.0
H1164 H 0.05109 0.01878 0.1838 0.0
H1165 H 0.23104 0.0445 0.09415 0.0
H1166 H 0.1677 0.06057 0.17939 0.0
H1167 H 0.13769 0.96726 0.11552 0.0
C1168 C 0.08115 0.96346 0.13291 0.0
C1169 C 0.05544 0.97854 0.15158 0.0
C1170 C 0.18204 0.05636 0.16092 0.0
C1171 C 0.13118 0.00797 0.14742 0.0
C1172 C 0.21314 0.08049 0.15429 0.0
C1173 C 0.23096 0.07688 0.13003 0.0
C1174 C 0.16844 0.02881 0.14297 0.0
C1175 C 0.21818 0.04763 0.11319 0.0
C1176 C 0.1189 0.97814 0.13073 0.0
C1177 C 0.06967 0.00664 0.1689 0.0
N1178 N 0.18736 0.02488 0.11987 0.0
N1179 N 0.10641 0.02072 0.16622 0.0
H1180 H 0.14771 0.95839 0.91477 0.0
H1181 H 0.31728 0.81753 0.86724 0.0
H1182 H 0.22071 0.98378 0.84913 0.0
H1183 H 0.24117 0.79398 0.9319 0.0
H1184 H 0.2909 0.88353 0.86486 0.0
H1185 H 0.19022 0.90417 0.92606 0.0
C1186 C 0.17338 0.95295 0.90311 0.0
C1187 C 0.18098 0.97543 0.8811 0.0
C1188 C 0.28042 0.86411 0.87982 0.0
C1189 C 0.22911 0.91262 0.89327 0.0
C1190 C 0.29556 0.8264 0.88127 0.0
C1191 C 0.28101 0.79987 0.89958 0.0
C1192 C 0.25055 0.87541 0.89681 0.0
C1193 C 0.25292 0.81316 0.91724 0.0
C1194 C 0.19754 0.92189 0.90944 0.0
C1195 C 0.21424 0.96718 0.8664 0.0
N1196 N 0.23835 0.84976 0.91521 0.0
N1197 N 0.23686 0.93596 0.87252 0.0
H1198 H 0.29766 0.89174 0.66555 0.0
H1199 H 0.43672 0.06641 0.6246 0.0
H1200 H 0.2727 0.96858 0.60197 0.0
H1201 H 0.46077 0.98597 0.68663 0.0
H1202 H 0.37111 0.0395 0.62115 0.0
H1203 H 0.351 0.93427 0.67869 0.0
C1204 C 0.30298 0.91822 0.65474 0.0
C1205 C 0.28089 0.92693 0.63277 0.0
C1206 C 0.39054 0.02818 0.63579 0.0
C1207 C 0.3427 0.97516 0.64708 0.0
C1208 C 0.42804 0.04362 0.63786 0.0
C1209 C 0.45467 0.02802 0.65568 0.0
C1210 C 0.3795 0.9969 0.65164 0.0
C1211 C 0.44154 0.99861 0.67237 0.0
C1212 C 0.33354 0.9424 0.66214 0.0
C1213 C 0.289 0.96123 0.61919 0.0
N1214 N 0.40513 0.98373 0.66972 0.0
N1215 N 0.31973 0.98389 0.62634 0.0
loop_
_geom_bond_atom_site_label_1
_geom_bond_atom_site_label_2
_geom_bond_distance
_geom_bond_site_symmetry_2
_ccdc_geom_bond_type
Fe0 O2 1.918 . S
Fe0 O5 1.997 . S
Fe0 O6 2.002 . S
Fe0 O11 1.976 . S
Fe0 O14 1.996 . S
Fe1 O2 1.918 . S
Fe1 O9 1.997 . S
Fe1 O12 1.996 . S
Fe1 O16 1.976 . S
Fe1 O19 2.002 . S
O2 Fe0 1.918 . S
O2 Fe1 1.918 . S
O2 Fe3 1.918 . S
Fe3 O2 1.918 . S
Fe3 O4 2.002 . S
Fe3 O13 1.976 . S
Fe3 O17 1.996 . S
Fe3 O20 1.997 . S
O4 Fe3 2.002 . S
O4 C21 1.295 . S
O5 Fe0 1.997 . S
O5 C21 1.235 . S
O6 Fe0 2.002 . S
O6 C7 1.295 . S
C7 O6 1.295 . S
C7 O9 1.235 . S
C8 O13 1.287 . S
C8 O14 1.255 . S
O9 Fe1 1.997 . S
O9 C7 1.235 . S
C10 O16 1.287 . S
C10 O17 1.255 . S
O11 Fe0 1.976 . S
O11 C18 1.287 . S
O12 Fe1 1.996 . S
O12 C18 1.255 . S
O13 Fe3 1.976 . S
O13 C8 1.287 . S
O14 Fe0 1.996 . S
O14 C8 1.255 . S
C15 O19 1.295 . S
C15 O20 1.235 . S
O16 Fe1 1.976 . S
O16 C10 1.287 . S
O17 Fe3 1.996 . S
O17 C10 1.255 . S
C18 O11 1.287 . S
C18 O12 1.255 . S
O19 Fe1 2.002 . S
O19 C15 1.295 . S
O20 Fe3 1.997 . S
O20 C15 1.235 . S
C21 O4 1.295 . S
C21 O5 1.235 . S
Fe22 O24 1.918 . S
Fe22 O27 1.997 . S
Fe22 O28 2.002 . S
Fe22 O33 1.976 . S
Fe22 O36 1.996 . S
Fe23 O24 1.918 . S
Fe23 O31 1.997 . S
Fe23 O34 1.996 . S
Fe23 O38 1.976 . S
Fe23 O41 2.002 . S
O24 Fe22 1.918 . S
O24 Fe23 1.918 . S
O24 Fe25 1.918 . S
Fe25 O24 1.918 . S
Fe25 O26 2.002 . S
Fe25 O35 1.976 . S
Fe25 O39 1.996 . S
Fe25 O42 1.997 . S
O26 Fe25 2.002 . S
O26 C43 1.295 . S
O27 Fe22 1.997 . S
O27 C43 1.235 . S
O28 Fe22 2.002 . S
O28 C29 1.295 . S
C29 O28 1.295 . S
C29 O31 1.235 . S
C30 O35 1.287 . S
C30 O36 1.255 . S
O31 Fe23 1.997 . S
O31 C29 1.235 . S
C32 O38 1.287 . S
C32 O39 1.255 . S
O33 Fe22 1.976 . S
O33 C40 1.287 . S
O34 Fe23 1.996 . S
O34 C40 1.255 . S
O35 Fe25 1.976 . S
O35 C30 1.287 . S
O36 Fe22 1.996 . S
O36 C30 1.255 . S
C37 O41 1.295 . S
C37 O42 1.235 . S
O38 Fe23 1.976 . S
O38 C32 1.287 . S
O39 Fe25 1.996 . S
O39 C32 1.255 . S
C40 O33 1.287 . S
C40 O34 1.255 . S
O41 Fe23 2.002 . S
O41 C37 1.295 . S
O42 Fe25 1.997 . S
O42 C37 1.235 . S
C43 O26 1.295 . S
C43 O27 1.235 . S
Fe44 O46 1.918 . S
Fe44 O49 1.997 . S
Fe44 O50 2.002 . S
Fe44 O55 1.976 . S
Fe44 O58 1.996 . S
Fe45 O46 1.918 . S
Fe45 O53 1.997 . S
Fe45 O56 1.996 . S
Fe45 O60 1.976 . S
Fe45 O63 2.002 . S
O46 Fe44 1.918 . S
O46 Fe45 1.918 . S
O46 Fe47 1.918 . S
Fe47 O46 1.918 . S
Fe47 O48 2.002 . S
Fe47 O57 1.976 . S
Fe47 O61 1.996 . S
Fe47 O64 1.997 . S
O48 Fe47 2.002 . S
O48 C65 1.295 . S
O49 Fe44 1.997 . S
O49 C65 1.235 . S
O50 Fe44 2.002 . S
O50 C51 1.295 . S
C51 O50 1.295 . S
C51 O53 1.235 . S
C52 O57 1.287 . S
C52 O58 1.255 . S
O53 Fe45 1.997 . S
O53 C51 1.235 . S
C54 O60 1.287 . S
C54 O61 1.255 . S
O55 Fe44 1.976 . S
O55 C62 1.287 . S
O56 Fe45 1.996 . S
O56 C62 1.255 . S
O57 Fe47 1.976 . S
O57 C52 1.287 . S
O58 Fe44 1.996 . S
O58 C52 1.255 . S
C59 O63 1.295 . S
C59 O64 1.235 . S
O60 Fe45 1.976 . S
O60 C54 1.287 . S
O61 Fe47 1.996 . S
O61 C54 1.255 . S
C62 O55 1.287 . S
C62 O56 1.255 . S
O63 Fe45 2.002 . S
O63 C59 1.295 . S
O64 Fe47 1.997 . S
O64 C59 1.235 . S
C65 O48 1.295 . S
C65 O49 1.235 . S
Fe66 O68 1.918 . S
Fe66 O71 1.997 . S
Fe66 O72 2.002 . S
Fe66 O77 1.976 1_655 S
Fe66 O80 1.996 . S
Fe67 O68 1.918 . S
Fe67 O75 1.997 . S
Fe67 O78 1.996 . S
Fe67 O82 1.976 . S
Fe67 O85 2.002 . S
O68 Fe66 1.918 . S
O68 Fe67 1.918 . S
O68 Fe69 1.918 . S
Fe69 O68 1.918 . S
Fe69 O70 2.002 . S
Fe69 O79 1.976 . S
Fe69 O83 1.996 . S
Fe69 O86 1.997 . S
O70 Fe69 2.002 . S
O70 C87 1.295 . S
O71 Fe66 1.997 . S
O71 C87 1.235 . S
O72 Fe66 2.002 . S
O72 C73 1.295 . S
C73 O72 1.295 . S
C73 O75 1.235 . S
C74 O79 1.287 . S
C74 O80 1.255 . S
O75 Fe67 1.997 . S
O75 C73 1.235 . S
C76 O82 1.287 . S
C76 O83 1.255 . S
O77 Fe66 1.976 1_455 S
O77 C84 1.287 . S
O78 Fe67 1.996 . S
O78 C84 1.255 1_655 S
O79 Fe69 1.976 . S
O79 C74 1.287 . S
O80 Fe66 1.996 . S
O80 C74 1.255 . S
C81 O85 1.295 . S
C81 O86 1.235 . S
O82 Fe67 1.976 . S
O82 C76 1.287 . S
O83 Fe69 1.996 . S
O83 C76 1.255 . S
C84 O77 1.287 . S
C84 O78 1.255 1_455 S
O85 Fe67 2.002 . S
O85 C81 1.295 . S
O86 Fe69 1.997 . S
O86 C81 1.235 . S
C87 O70 1.295 . S
C87 O71 1.235 . S
Fe88 O90 1.918 . S
Fe88 O93 1.997 . S
Fe88 O94 2.002 . S
Fe88 O99 1.976 . S
Fe88 O102 1.996 . S
Fe89 O90 1.918 . S
Fe89 O97 1.997 . S
Fe89 O100 1.996 . S
Fe89 O104 1.976 . S
Fe89 O107 2.002 . S
O90 Fe88 1.918 . S
O90 Fe89 1.918 . S
O90 Fe91 1.918 . S
Fe91 O90 1.918 . S
Fe91 O92 2.002 . S
Fe91 O101 1.976 . S
Fe91 O105 1.996 . S
Fe91 O108 1.997 . S
O92 Fe91 2.002 . S
O92 C109 1.295 . S
O93 Fe88 1.997 . S
O93 C109 1.235 . S
O94 Fe88 2.002 . S
O94 C95 1.295 . S
C95 O94 1.295 . S
C95 O97 1.235 . S
C96 O101 1.287 . S
C96 O102 1.255 . S
O97 Fe89 1.997 . S
O97 C95 1.235 . S
C98 O104 1.287 . S
C98 O105 1.255 . S
O99 Fe88 1.976 . S
O99 C106 1.287 . S
O100 Fe89 1.996 . S
O100 C106 1.255 . S
O101 Fe91 1.976 . S
O101 C96 1.287 . S
O102 Fe88 1.996 . S
O102 C96 1.255 . S
C103 O107 1.295 . S
C103 O108 1.235 . S
O104 Fe89 1.976 . S
O104 C98 1.287 . S
O105 Fe91 1.996 . S
O105 C98 1.255 . S
C106 O99 1.287 . S
C106 O100 1.255 . S
O107 Fe89 2.002 . S
O107 C103 1.295 . S
O108 Fe91 1.997 . S
O108 C103 1.235 . S
C109 O92 1.295 . S
C109 O93 1.235 . S
Fe110 O112 1.918 . S
Fe110 O115 1.997 . S
Fe110 O116 2.002 . S
Fe110 O121 1.976 . S
Fe110 O124 1.996 . S
Fe111 O112 1.918 . S
Fe111 O119 1.997 . S
Fe111 O122 1.996 . S
Fe111 O126 1.976 . S
Fe111 O129 2.002 . S
O112 Fe110 1.918 . S
O112 Fe111 1.918 . S
O112 Fe113 1.918 . S
Fe113 O112 1.918 . S
Fe113 O114 2.002 . S
Fe113 O123 1.976 . S
Fe113 O127 1.996 . S
Fe113 O130 1.997 . S
O114 Fe113 2.002 . S
O114 C131 1.295 . S
O115 Fe110 1.997 . S
O115 C131 1.235 . S
O116 Fe110 2.002 . S
O116 C117 1.295 . S
C117 O116 1.295 . S
C117 O119 1.235 . S
C118 O123 1.287 . S
C118 O124 1.255 . S
O119 Fe111 1.997 . S
O119 C117 1.235 . S
C120 O126 1.287 . S
C120 O127 1.255 . S
O121 Fe110 1.976 . S
O121 C128 1.287 . S
O122 Fe111 1.996 . S
O122 C128 1.255 . S
O123 Fe113 1.976 . S
O123 C118 1.287 . S
O124 Fe110 1.996 . S
O124 C118 1.255 . S
C125 O129 1.295 . S
C125 O130 1.235 . S
O126 Fe111 1.976 . S
O126 C120 1.287 . S
O127 Fe113 1.996 . S
O127 C120 1.255 . S
C128 O121 1.287 . S
C128 O122 1.255 . S
O129 Fe111 2.002 . S
O129 C125 1.295 . S
O130 Fe113 1.997 . S
O130 C125 1.235 . S
C131 O114 1.295 . S
C131 O115 1.235 . S
Fe132 O134 1.918 . S
Fe132 O137 1.997 . S
Fe132 O138 2.002 . S
Fe132 O143 1.976 . S
Fe132 O146 1.996 . S
Fe133 O134 1.918 . S
Fe133 O141 1.997 . S
Fe133 O144 1.996 . S
Fe133 O148 1.976 . S
Fe133 O151 2.002 . S
O134 Fe132 1.918 . S
O134 Fe133 1.918 . S
O134 Fe135 1.918 . S
Fe135 O134 1.918 . S
Fe135 O136 2.002 . S
Fe135 O145 1.976 . S
Fe135 O149 1.996 . S
Fe135 O152 1.997 . S
O136 Fe135 2.002 . S
O136 C153 1.295 . S
O137 Fe132 1.997 . S
O137 C153 1.235 . S
O138 Fe132 2.002 . S
O138 C139 1.295 . S
C139 O138 1.295 . S
C139 O141 1.235 . S
C140 O145 1.287 . S
C140 O146 1.255 . S
O141 Fe133 1.997 . S
O141 C139 1.235 . S
C142 O148 1.287 . S
C142 O149 1.255 . S
O143 Fe132 1.976 . S
O143 C150 1.287 . S
O144 Fe133 1.996 . S
O144 C150 1.255 . S
O145 Fe135 1.976 . S
O145 C140 1.287 . S
O146 Fe132 1.996 . S
O146 C140 1.255 . S
C147 O151 1.295 . S
C147 O152 1.235 . S
O148 Fe133 1.976 . S
O148 C142 1.287 . S
O149 Fe135 1.996 . S
O149 C142 1.255 . S
C150 O143 1.287 . S
C150 O144 1.255 . S
O151 Fe133 2.002 . S
O151 C147 1.295 . S
O152 Fe135 1.997 . S
O152 C147 1.235 . S
C153 O136 1.295 . S
C153 O137 1.235 . S
Fe154 O156 1.918 . S
Fe154 O159 1.997 . S
Fe154 O160 2.002 . S
Fe154 O165 1.976 . S
Fe154 O168 1.996 . S
Fe155 O156 1.918 . S
Fe155 O163 1.997 . S
Fe155 O166 1.996 . S
Fe155 O170 1.976 . S
Fe155 O173 2.002 . S
O156 Fe154 1.918 . S
O156 Fe155 1.918 . S
O156 Fe157 1.918 . S
Fe157 O156 1.918 . S
Fe157 O158 2.002 . S
Fe157 O167 1.976 1_455 S
Fe157 O171 1.996 . S
Fe157 O174 1.997 . S
O158 Fe157 2.002 . S
O158 C175 1.295 . S
O159 Fe154 1.997 . S
O159 C175 1.235 . S
O160 Fe154 2.002 . S
O160 C161 1.295 . S
C161 O160 1.295 . S
C161 O163 1.235 . S
C162 O167 1.287 . S
C162 O168 1.255 1_655 S
O163 Fe155 1.997 . S
O163 C161 1.235 . S
C164 O170 1.287 . S
C164 O171 1.255 . S
O165 Fe154 1.976 . S
O165 C172 1.287 . S
O166 Fe155 1.996 . S
O166 C172 1.255 . S
O167 Fe157 1.976 1_655 S
O167 C162 1.287 . S
O168 Fe154 1.996 . S
O168 C162 1.255 1_455 S
C169 O173 1.295 . S
C169 O174 1.235 . S
O170 Fe155 1.976 . S
O170 C164 1.287 . S
O171 Fe157 1.996 . S
O171 C164 1.255 . S
C172 O165 1.287 . S
C172 O166 1.255 . S
O173 Fe155 2.002 . S
O173 C169 1.295 . S
O174 Fe157 1.997 . S
O174 C169 1.235 . S
C175 O158 1.295 . S
C175 O159 1.235 . S
Fe176 O178 1.918 . S
Fe176 O181 1.997 . S
Fe176 O182 2.002 . S
Fe176 O187 1.976 . S
Fe176 O190 1.996 . S
Fe177 O178 1.918 . S
Fe177 O185 1.997 . S
Fe177 O188 1.996 . S
Fe177 O192 1.976 . S
Fe177 O195 2.002 . S
O178 Fe176 1.918 . S
O178 Fe177 1.918 . S
O178 Fe179 1.918 . S
Fe179 O178 1.918 . S
Fe179 O180 2.002 . S
Fe179 O189 1.976 . S
Fe179 O193 1.996 . S
Fe179 O196 1.997 . S
O180 Fe179 2.002 . S
O180 C197 1.295 . S
O181 Fe176 1.997 . S
O181 C197 1.235 . S
O182 Fe176 2.002 . S
O182 C183 1.295 . S
C183 O182 1.295 . S
C183 O185 1.235 . S
C184 O189 1.287 . S
C184 O190 1.255 . S
O185 Fe177 1.997 . S
O185 C183 1.235 . S
C186 O192 1.287 . S
C186 O193 1.255 . S
O187 Fe176 1.976 . S
O187 C194 1.287 . S
O188 Fe177 1.996 . S
O188 C194 1.255 . S
O189 Fe179 1.976 . S
O189 C184 1.287 . S
O190 Fe176 1.996 . S
O190 C184 1.255 . S
C191 O195 1.295 . S
C191 O196 1.235 . S
O192 Fe177 1.976 . S
O192 C186 1.287 . S
O193 Fe179 1.996 . S
O193 C186 1.255 . S
C194 O187 1.287 . S
C194 O188 1.255 . S
O195 Fe177 2.002 . S
O195 C191 1.295 . S
O196 Fe179 1.997 . S
O196 C191 1.235 . S
C197 O180 1.295 . S
C197 O181 1.235 . S
Fe198 O200 1.918 . S
Fe198 O203 2.001 . S
Fe198 O204 2.002 1_545 S
Fe198 O209 1.976 . S
Fe198 O212 1.996 . S
Fe199 O200 1.918 . S
Fe199 O207 1.997 . S
Fe199 O210 1.996 . S
Fe199 O214 1.976 . S
Fe199 O217 2.002 . S
O200 Fe198 1.918 . S
O200 Fe199 1.918 . S
O200 Fe201 1.918 . S
Fe201 O200 1.918 . S
Fe201 O202 2.002 . S
Fe201 O211 1.976 1_455 S
Fe201 O215 1.996 . S
Fe201 O218 1.997 . S
O202 Fe201 2.002 . S
O202 C219 1.295 . S
O203 Fe198 2.001 . S
O203 C219 1.249 . S
O204 Fe198 2.002 1_565 S
O204 C205 1.295 1_565 S
C205 O204 1.295 1_545 S
C205 O207 1.235 . S
C206 O211 1.287 . S
C206 O212 1.255 1_655 S
O207 Fe199 1.997 . S
O207 C205 1.235 . S
C208 O214 1.287 . S
C208 O215 1.255 . S
O209 Fe198 1.976 . S
O209 C216 1.287 . S
O210 Fe199 1.996 . S
O210 C216 1.255 . S
O211 Fe201 1.976 1_655 S
O211 C206 1.287 . S
O212 Fe198 1.996 . S
O212 C206 1.255 1_455 S
C213 O217 1.295 . S
C213 O218 1.235 . S
O214 Fe199 1.976 . S
O214 C208 1.287 . S
O215 Fe201 1.996 . S
O215 C208 1.255 . S
C216 O209 1.287 . S
C216 O210 1.255 . S
O217 Fe199 2.002 . S
O217 C213 1.295 . S
O218 Fe201 1.997 . S
O218 C213 1.235 . S
C219 O202 1.295 . S
C219 O203 1.249 . S
Fe220 O222 1.918 . S
Fe220 O225 1.997 . S
Fe220 O226 2.002 . S
Fe220 O231 1.976 . S
Fe220 O234 1.996 . S
Fe221 O222 1.918 . S
Fe221 O229 1.997 . S
Fe221 O232 1.996 . S
Fe221 O236 1.976 . S
Fe221 O239 2.002 . S
O222 Fe220 1.918 . S
O222 Fe221 1.918 . S
O222 Fe223 1.918 . S
Fe223 O222 1.918 . S
Fe223 O224 2.002 . S
Fe223 O233 1.976 . S
Fe223 O237 1.996 . S
Fe223 O240 1.997 . S
O224 Fe223 2.002 . S
O224 C241 1.295 . S
O225 Fe220 1.997 . S
O225 C241 1.235 . S
O226 Fe220 2.002 . S
O226 C227 1.295 . S
C227 O226 1.295 . S
C227 O229 1.235 . S
C228 O233 1.287 . S
C228 O234 1.255 . S
O229 Fe221 1.997 . S
O229 C227 1.235 . S
C230 O236 1.287 . S
C230 O237 1.255 . S
O231 Fe220 1.976 . S
O231 C238 1.287 . S
O232 Fe221 1.996 . S
O232 C238 1.255 . S
O233 Fe223 1.976 . S
O233 C228 1.287 . S
O234 Fe220 1.996 . S
O234 C228 1.255 . S
C235 O239 1.295 . S
C235 O240 1.235 . S
O236 Fe221 1.976 . S
O236 C230 1.287 . S
O237 Fe223 1.996 . S
O237 C230 1.255 . S
C238 O231 1.287 . S
C238 O232 1.255 . S
O239 Fe221 2.002 . S
O239 C235 1.295 . S
O240 Fe223 1.997 . S
O240 C235 1.235 . S
C241 O224 1.295 . S
C241 O225 1.235 . S
Fe242 O244 1.918 . S
Fe242 O247 1.997 . S
Fe242 O248 2.002 . S
Fe242 O253 1.976 . S
Fe242 O256 1.996 . S
Fe243 O244 1.918 . S
Fe243 O251 2.001 . S
Fe243 O254 1.996 . S
Fe243 O258 1.976 . S
Fe243 O261 2.002 1_565 S
O244 Fe242 1.918 . S
O244 Fe243 1.918 . S
O244 Fe245 1.918 . S
Fe245 O244 1.918 . S
Fe245 O246 2.002 . S
Fe245 O255 1.976 . S
Fe245 O259 1.996 . S
Fe245 O262 1.997 . S
O246 Fe245 2.002 . S
O246 C263 1.295 . S
O247 Fe242 1.997 . S
O247 C263 1.235 . S
O248 Fe242 2.002 . S
O248 C249 1.295 . S
C249 O248 1.295 . S
C249 O251 1.249 . S
C250 O255 1.287 . S
C250 O256 1.255 . S
O251 Fe243 2.001 . S
O251 C249 1.249 . S
C252 O258 1.287 . S
C252 O259 1.255 . S
O253 Fe242 1.976 . S
O253 C260 1.287 . S
O254 Fe243 1.996 . S
O254 C260 1.255 . S
O255 Fe245 1.976 . S
O255 C250 1.287 . S
O256 Fe242 1.996 . S
O256 C250 1.255 . S
C257 O261 1.295 1_565 S
C257 O262 1.235 . S
O258 Fe243 1.976 . S
O258 C252 1.287 . S
O259 Fe245 1.996 . S
O259 C252 1.255 . S
C260 O253 1.287 . S
C260 O254 1.255 . S
O261 Fe243 2.002 1_545 S
O261 C257 1.295 1_545 S
O262 Fe245 1.997 . S
O262 C257 1.235 . S
C263 O246 1.295 . S
C263 O247 1.235 . S
Fe264 O266 1.918 . S
Fe264 O269 1.997 . S
Fe264 O270 2.002 . S
Fe264 O275 1.976 . S
Fe264 O278 1.996 . S
Fe265 O266 1.918 . S
Fe265 O273 1.997 . S
Fe265 O276 1.996 . S
Fe265 O280 1.976 . S
Fe265 O283 2.002 . S
O266 Fe264 1.918 . S
O266 Fe265 1.918 . S
O266 Fe267 1.918 . S
Fe267 O266 1.918 . S
Fe267 O268 2.002 . S
Fe267 O277 1.976 . S
Fe267 O281 1.996 . S
Fe267 O284 1.997 . S
O268 Fe267 2.002 . S
O268 C285 1.295 . S
O269 Fe264 1.997 . S
O269 C285 1.235 . S
O270 Fe264 2.002 . S
O270 C271 1.295 . S
C271 O270 1.295 . S
C271 O273 1.235 . S
C272 O277 1.287 . S
C272 O278 1.255 . S
O273 Fe265 1.997 . S
O273 C271 1.235 . S
C274 O280 1.287 . S
C274 O281 1.255 . S
O275 Fe264 1.976 . S
O275 C282 1.287 . S
O276 Fe265 1.996 . S
O276 C282 1.255 . S
O277 Fe267 1.976 . S
O277 C272 1.287 . S
O278 Fe264 1.996 . S
O278 C272 1.255 . S
C279 O283 1.295 . S
C279 O284 1.235 . S
O280 Fe265 1.976 . S
O280 C274 1.287 . S
O281 Fe267 1.996 . S
O281 C274 1.255 . S
C282 O275 1.287 . S
C282 O276 1.255 . S
O283 Fe265 2.002 . S
O283 C279 1.295 . S
O284 Fe267 1.997 . S
O284 C279 1.235 . S
C285 O268 1.295 . S
C285 O269 1.235 . S
Fe286 O288 1.918 . S
Fe286 O291 2.001 . S
Fe286 O292 2.002 1_565 S
Fe286 O297 1.976 . S
Fe286 O300 1.996 . S
Fe287 O288 1.918 . S
Fe287 O295 1.997 . S
Fe287 O298 1.996 . S
Fe287 O302 1.976 . S
Fe287 O305 2.002 . S
O288 Fe286 1.918 . S
O288 Fe287 1.918 . S
O288 Fe289 1.918 . S
Fe289 O288 1.918 . S
Fe289 O290 2.002 . S
Fe289 O299 1.976 1_655 S
Fe289 O303 1.996 . S
Fe289 O306 1.997 . S
O290 Fe289 2.002 . S
O290 C307 1.295 . S
O291 Fe286 2.001 . S
O291 C307 1.249 . S
O292 Fe286 2.002 1_545 S
O292 C293 1.295 1_545 S
C293 O292 1.295 1_565 S
C293 O295 1.235 . S
C294 O299 1.287 . S
C294 O300 1.255 1_455 S
O295 Fe287 1.997 . S
O295 C293 1.235 . S
C296 O302 1.287 . S
C296 O303 1.255 . S
O297 Fe286 1.976 . S
O297 C304 1.287 . S
O298 Fe287 1.996 . S
O298 C304 1.255 . S
O299 Fe289 1.976 1_455 S
O299 C294 1.287 . S
O300 Fe286 1.996 . S
O300 C294 1.255 1_655 S
C301 O305 1.295 . S
C301 O306 1.235 . S
O302 Fe287 1.976 . S
O302 C296 1.287 . S
O303 Fe289 1.996 . S
O303 C296 1.255 . S
C304 O297 1.287 . S
C304 O298 1.255 . S
O305 Fe287 2.002 . S
O305 C301 1.295 . S
O306 Fe289 1.997 . S
O306 C301 1.235 . S
C307 O290 1.295 . S
C307 O291 1.249 . S
Fe308 O310 1.918 . S
Fe308 O313 1.997 . S
Fe308 O314 2.002 . S
Fe308 O319 1.976 . S
Fe308 O322 1.996 . S
Fe309 O310 1.918 . S
Fe309 O317 1.997 . S
Fe309 O320 1.996 . S
Fe309 O324 1.976 . S
Fe309 O327 2.002 . S
O310 Fe308 1.918 . S
O310 Fe309 1.918 . S
O310 Fe311 1.918 . S
Fe311 O310 1.918 . S
Fe311 O312 2.002 . S
Fe311 O321 1.976 . S
Fe311 O325 1.996 . S
Fe311 O328 1.997 . S
O312 Fe311 2.002 . S
O312 C329 1.295 . S
O313 Fe308 1.997 . S
O313 C329 1.235 . S
O314 Fe308 2.002 . S
O314 C315 1.295 . S
C315 O314 1.295 . S
C315 O317 1.235 . S
C316 O321 1.287 . S
C316 O322 1.255 . S
O317 Fe309 1.997 . S
O317 C315 1.235 . S
C318 O324 1.287 . S
C318 O325 1.255 . S
O319 Fe308 1.976 . S
O319 C326 1.287 . S
O320 Fe309 1.996 . S
O320 C326 1.255 . S
O321 Fe311 1.976 . S
O321 C316 1.287 . S
O322 Fe308 1.996 . S
O322 C316 1.255 . S
C323 O327 1.295 . S
C323 O328 1.235 . S
O324 Fe309 1.976 . S
O324 C318 1.287 . S
O325 Fe311 1.996 . S
O325 C318 1.255 . S
C326 O319 1.287 . S
C326 O320 1.255 . S
O327 Fe309 2.002 . S
O327 C323 1.295 . S
O328 Fe311 1.997 . S
O328 C323 1.235 . S
C329 O312 1.295 . S
C329 O313 1.235 . S
Fe330 O332 1.918 . S
Fe330 O335 1.997 . S
Fe330 O336 2.002 . S
Fe330 O341 1.976 . S
Fe330 O344 1.996 . S
Fe331 O332 1.918 . S
Fe331 O339 2.001 . S
Fe331 O342 1.996 . S
Fe331 O346 1.976 . S
Fe331 O349 2.002 1_545 S
O332 Fe330 1.918 . S
O332 Fe331 1.918 . S
O332 Fe333 1.918 . S
Fe333 O332 1.918 . S
Fe333 O334 2.002 . S
Fe333 O343 1.976 . S
Fe333 O347 1.996 . S
Fe333 O350 1.997 . S
O334 Fe333 2.002 . S
O334 C351 1.295 . S
O335 Fe330 1.997 . S
O335 C351 1.235 . S
O336 Fe330 2.002 . S
O336 C337 1.295 . S
C337 O336 1.295 . S
C337 O339 1.249 . S
C338 O343 1.287 . S
C338 O344 1.255 . S
O339 Fe331 2.001 . S
O339 C337 1.249 . S
C340 O346 1.287 . S
C340 O347 1.255 . S
O341 Fe330 1.976 . S
O341 C348 1.287 . S
O342 Fe331 1.996 . S
O342 C348 1.255 . S
O343 Fe333 1.976 . S
O343 C338 1.287 . S
O344 Fe330 1.996 . S
O344 C338 1.255 . S
C345 O349 1.295 1_545 S
C345 O350 1.235 . S
O346 Fe331 1.976 . S
O346 C340 1.287 . S
O347 Fe333 1.996 . S
O347 C340 1.255 . S
C348 O341 1.287 . S
C348 O342 1.255 . S
O349 Fe331 2.002 1_565 S
O349 C345 1.295 1_565 S
O350 Fe333 1.997 . S
O350 C345 1.235 . S
C351 O334 1.295 . S
C351 O335 1.235 . S
H352 C358 0.930 . S
H353 C362 0.930 . S
H354 C367 0.929 . S
H355 C365 0.929 . S
H356 C360 0.929 . S
H357 C366 0.929 . S
C358 H352 0.930 . S
C358 C359 1.367 . S
C358 C366 1.378 . S
C359 C358 1.367 . S
C359 C367 1.433 . S
C360 H356 0.929 . S
C360 C362 1.378 . S
C360 C364 1.350 . S
C361 C364 1.463 . S
C361 C366 1.350 . S
C361 N369 1.427 . S
C362 H353 0.930 . S
C362 C360 1.378 . S
C362 C363 1.367 . S
C363 C362 1.367 . S
C363 C365 1.433 . S
C364 C360 1.350 . S
C364 C361 1.463 . S
C364 N368 1.427 . S
C365 H355 0.929 . S
C365 C363 1.433 . S
C365 N368 1.384 . S
C366 H357 0.929 . S
C366 C358 1.378 . S
C366 C361 1.350 . S
C367 H354 0.929 . S
C367 C359 1.433 . S
C367 N369 1.384 . S
N368 C364 1.427 . S
N368 C365 1.384 . S
N369 C361 1.427 . S
N369 C367 1.384 . S
H370 C376 0.930 . S
H371 C380 0.930 . S
H372 C385 0.929 . S
H373 C383 0.929 . S
H374 C378 0.929 . S
H375 C384 0.929 . S
C376 H370 0.930 . S
C376 C377 1.367 . S
C376 C384 1.378 . S
C377 C376 1.367 . S
C377 C385 1.433 . S
C378 H374 0.929 . S
C378 C380 1.378 . S
C378 C382 1.350 . S
C379 C382 1.463 . S
C379 C384 1.350 . S
C379 N387 1.427 . S
C380 H371 0.930 . S
C380 C378 1.378 . S
C380 C381 1.367 . S
C381 C380 1.367 . S
C381 C383 1.433 . S
C382 C378 1.350 . S
C382 C379 1.463 . S
C382 N386 1.427 . S
C383 H373 0.929 . S
C383 C381 1.433 . S
C383 N386 1.384 . S
C384 H375 0.929 . S
C384 C376 1.378 . S
C384 C379 1.350 . S
C385 H372 0.929 . S
C385 C377 1.433 . S
C385 N387 1.384 . S
N386 C382 1.427 . S
N386 C383 1.384 . S
N387 C379 1.427 . S
N387 C385 1.384 . S
H388 C394 0.930 . S
H389 C398 0.930 . S
H390 C403 0.929 . S
H391 C401 0.929 . S
H392 C396 0.929 . S
H393 C402 0.929 . S
C394 H388 0.930 . S
C394 C395 1.367 . S
C394 C402 1.378 . S
C395 C394 1.367 . S
C395 C403 1.433 . S
C396 H392 0.929 . S
C396 C398 1.378 . S
C396 C400 1.350 . S
C397 C400 1.463 . S
C397 C402 1.350 . S
C397 N405 1.427 . S
C398 H389 0.930 . S
C398 C396 1.378 . S
C398 C399 1.367 . S
C399 C398 1.367 . S
C399 C401 1.433 . S
C400 C396 1.350 . S
C400 C397 1.463 . S
C400 N404 1.427 . S
C401 H391 0.929 . S
C401 C399 1.433 . S
C401 N404 1.384 . S
C402 H393 0.929 . S
C402 C394 1.378 . S
C402 C397 1.350 . S
C403 H390 0.929 . S
C403 C395 1.433 . S
C403 N405 1.384 . S
N404 C400 1.427 . S
N404 C401 1.384 . S
N405 C397 1.427 . S
N405 C403 1.384 . S
H406 C412 0.930 . S
H407 C416 0.930 . S
H408 C421 0.929 . S
H409 C419 0.929 . S
H410 C414 0.929 . S
H411 C420 0.929 . S
C412 H406 0.930 . S
C412 C413 1.367 . S
C412 C420 1.378 . S
C413 C412 1.367 . S
C413 C421 1.433 . S
C414 H410 0.929 . S
C414 C416 1.378 . S
C414 C418 1.350 . S
C415 C418 1.463 1_656 S
C415 C420 1.350 . S
C415 N423 1.427 . S
C416 H407 0.930 . S
C416 C414 1.378 . S
C416 C417 1.367 . S
C417 C416 1.367 . S
C417 C419 1.433 . S
C418 C414 1.350 . S
C418 C415 1.463 1_454 S
C418 N422 1.427 . S
C419 H409 0.929 . S
C419 C417 1.433 . S
C419 N422 1.384 . S
C420 H411 0.929 . S
C420 C412 1.378 . S
C420 C415 1.350 . S
C421 H408 0.929 . S
C421 C413 1.433 . S
C421 N423 1.384 . S
N422 C418 1.427 . S
N422 C419 1.384 . S
N423 C415 1.427 . S
N423 C421 1.384 . S
H424 C430 0.930 . S
H425 C434 0.930 . S
H426 C439 0.929 . S
H427 C437 0.929 . S
H428 C432 0.929 . S
H429 C438 0.929 . S
C430 H424 0.930 . S
C430 C431 1.367 . S
C430 C438 1.378 . S
C431 C430 1.367 . S
C431 C439 1.433 . S
C432 H428 0.929 . S
C432 C434 1.378 . S
C432 C436 1.350 . S
C433 C436 1.463 . S
C433 C438 1.350 . S
C433 N441 1.427 . S
C434 H425 0.930 . S
C434 C432 1.378 . S
C434 C435 1.367 . S
C435 C434 1.367 . S
C435 C437 1.433 . S
C436 C432 1.350 . S
C436 C433 1.463 . S
C436 N440 1.427 . S
C437 H427 0.929 . S
C437 C435 1.433 . S
C437 N440 1.384 . S
C438 H429 0.929 . S
C438 C430 1.378 . S
C438 C433 1.350 . S
C439 H426 0.929 . S
C439 C431 1.433 . S
C439 N441 1.384 . S
N440 C436 1.427 . S
N440 C437 1.384 . S
N441 C433 1.427 . S
N441 C439 1.384 . S
H442 C448 0.930 . S
H443 C452 0.930 . S
H444 C457 0.929 . S
H445 C455 0.929 . S
H446 C450 0.929 . S
H447 C456 0.929 . S
C448 H442 0.930 . S
C448 C449 1.367 . S
C448 C456 1.378 . S
C449 C448 1.367 . S
C449 C457 1.433 . S
C450 H446 0.929 . S
C450 C452 1.378 . S
C450 C454 1.350 . S
C451 C454 1.463 . S
C451 C456 1.350 . S
C451 N459 1.427 . S
C452 H443 0.930 . S
C452 C450 1.378 . S
C452 C453 1.367 . S
C453 C452 1.367 . S
C453 C455 1.433 . S
C454 C450 1.350 . S
C454 C451 1.463 . S
C454 N458 1.427 . S
C455 H445 0.929 . S
C455 C453 1.433 . S
C455 N458 1.384 . S
C456 H447 0.929 . S
C456 C448 1.378 . S
C456 C451 1.350 . S
C457 H444 0.929 . S
C457 C449 1.433 . S
C457 N459 1.384 . S
N458 C454 1.427 . S
N458 C455 1.384 . S
N459 C451 1.427 . S
N459 C457 1.384 . S
H460 C466 0.930 . S
H461 C470 0.930 . S
H462 C475 0.929 . S
H463 C473 0.929 . S
H464 C468 0.929 . S
H465 C474 0.929 . S
C466 H460 0.930 . S
C466 C467 1.367 . S
C466 C474 1.378 . S
C467 C466 1.367 . S
C467 C475 1.433 1_565 S
C468 H464 0.929 . S
C468 C470 1.378 . S
C468 C472 1.350 . S
C469 C472 1.463 1_664 S
C469 C474 1.350 . S
C469 N477 1.427 1_565 S
C470 H461 0.930 . S
C470 C468 1.378 . S
C470 C471 1.367 . S
C471 C470 1.367 . S
C471 C473 1.433 1_545 S
C472 C468 1.350 . S
C472 C469 1.463 1_446 S
C472 N476 1.427 1_545 S
C473 H463 0.929 . S
C473 C471 1.433 1_565 S
C473 N476 1.384 . S
C474 H465 0.929 . S
C474 C466 1.378 . S
C474 C469 1.350 . S
C475 H462 0.929 . S
C475 C467 1.433 1_545 S
C475 N477 1.384 . S
N476 C472 1.427 1_565 S
N476 C473 1.384 . S
N477 C469 1.427 1_545 S
N477 C475 1.384 . S
H478 C484 0.930 . S
H479 C488 0.930 . S
H480 C493 0.929 . S
H481 C491 0.929 . S
H482 C486 0.929 . S
H483 C492 0.929 . S
C484 H478 0.930 . S
C484 C485 1.367 . S
C484 C492 1.378 . S
C485 C484 1.367 . S
C485 C493 1.433 1_565 S
C486 H482 0.929 . S
C486 C488 1.378 . S
C486 C490 1.350 . S
C487 C490 1.463 1_565 S
C487 C492 1.350 . S
C487 N495 1.427 1_565 S
C488 H479 0.930 . S
C488 C486 1.378 . S
C488 C489 1.367 . S
C489 C488 1.367 . S
C489 C491 1.433 1_545 S
C490 C486 1.350 . S
C490 C487 1.463 1_545 S
C490 N494 1.427 1_545 S
C491 H481 0.929 . S
C491 C489 1.433 1_565 S
C491 N494 1.384 . S
C492 H483 0.929 . S
C492 C484 1.378 . S
C492 C487 1.350 . S
C493 H480 0.929 . S
C493 C485 1.433 1_545 S
C493 N495 1.384 . S
N494 C490 1.427 1_565 S
N494 C491 1.384 . S
N495 C487 1.427 1_545 S
N495 C493 1.384 . S
H496 C502 0.930 . S
H497 C506 0.930 . S
H498 C511 0.929 . S
H499 C509 0.929 . S
H500 C504 0.929 1_556 S
H501 C510 0.929 . S
C502 H496 0.930 . S
C502 C503 1.367 . S
C502 C510 1.378 . S
C503 C502 1.367 . S
C503 C511 1.433 . S
C504 H500 0.929 1_554 S
C504 C506 1.378 . S
C504 C508 1.350 1_554 S
C505 C508 1.463 . S
C505 C510 1.350 . S
C505 N513 1.427 . S
C506 H497 0.930 . S
C506 C504 1.378 . S
C506 C507 1.367 . S
C507 C506 1.367 . S
C507 C509 1.433 . S
C508 C504 1.350 1_556 S
C508 C505 1.463 . S
C508 N512 1.427 1_556 S
C509 H499 0.929 . S
C509 C507 1.433 . S
C509 N512 1.384 . S
C510 H501 0.929 . S
C510 C502 1.378 . S
C510 C505 1.350 . S
C511 H498 0.929 . S
C511 C503 1.433 . S
C511 N513 1.384 . S
N512 C508 1.427 1_554 S
N512 C509 1.384 . S
N513 C505 1.427 . S
N513 C511 1.384 . S
H514 C520 0.930 . S
H515 C524 0.930 . S
H516 C529 0.929 . S
H517 C527 0.929 . S
H518 C522 0.929 . S
H519 C528 0.929 . S
C520 H514 0.930 . S
C520 C521 1.367 . S
C520 C528 1.378 . S
C521 C520 1.367 . S
C521 C529 1.433 . S
C522 H518 0.929 . S
C522 C524 1.378 . S
C522 C526 1.350 . S
C523 C526 1.463 . S
C523 C528 1.350 . S
C523 N531 1.427 . S
C524 H515 0.930 . S
C524 C522 1.378 . S
C524 C525 1.367 . S
C525 C524 1.367 . S
C525 C527 1.433 . S
C526 C522 1.350 . S
C526 C523 1.463 . S
C526 N530 1.427 . S
C527 H517 0.929 . S
C527 C525 1.433 . S
C527 N530 1.384 . S
C528 H519 0.929 . S
C528 C520 1.378 . S
C528 C523 1.350 . S
C529 H516 0.929 . S
C529 C521 1.433 . S
C529 N531 1.384 . S
N530 C526 1.427 . S
N530 C527 1.384 . S
N531 C523 1.427 . S
N531 C529 1.384 . S
H532 C538 0.930 . S
H533 C542 0.930 . S
H534 C547 0.929 . S
H535 C545 0.929 . S
H536 C540 0.929 . S
H537 C546 0.929 . S
C538 H532 0.930 . S
C538 C539 1.367 . S
C538 C546 1.378 . S
C539 C538 1.367 . S
C539 C547 1.433 . S
C540 H536 0.929 . S
C540 C542 1.378 . S
C540 C544 1.350 . S
C541 C544 1.463 . S
C541 C546 1.350 . S
C541 N549 1.427 . S
C542 H533 0.930 . S
C542 C540 1.378 . S
C542 C543 1.367 . S
C543 C542 1.367 . S
C543 C545 1.433 . S
C544 C540 1.350 . S
C544 C541 1.463 . S
C544 N548 1.427 . S
C545 H535 0.929 . S
C545 C543 1.433 . S
C545 N548 1.384 . S
C546 H537 0.929 . S
C546 C538 1.378 . S
C546 C541 1.350 . S
C547 H534 0.929 . S
C547 C539 1.433 . S
C547 N549 1.384 . S
N548 C544 1.427 . S
N548 C545 1.384 . S
N549 C541 1.427 . S
N549 C547 1.384 . S
H550 C556 0.930 . S
H551 C560 0.930 . S
H552 C565 0.929 . S
H553 C563 0.929 . S
H554 C558 0.929 . S
H555 C564 0.929 . S
C556 H550 0.930 . S
C556 C557 1.367 . S
C556 C564 1.378 . S
C557 C556 1.367 . S
C557 C565 1.433 . S
C558 H554 0.929 . S
C558 C560 1.378 . S
C558 C562 1.350 . S
C559 C562 1.463 . S
C559 C564 1.350 . S
C559 N567 1.427 . S
C560 H551 0.930 . S
C560 C558 1.378 . S
C560 C561 1.367 . S
C561 C560 1.367 . S
C561 C563 1.433 . S
C562 C558 1.350 . S
C562 C559 1.463 . S
C562 N566 1.427 . S
C563 H553 0.929 . S
C563 C561 1.433 . S
C563 N566 1.384 . S
C564 H555 0.929 . S
C564 C556 1.378 . S
C564 C559 1.350 . S
C565 H552 0.929 . S
C565 C557 1.433 . S
C565 N567 1.384 . S
N566 C562 1.427 . S
N566 C563 1.384 . S
N567 C559 1.427 . S
N567 C565 1.384 . S
H568 C574 0.930 . S
H569 C578 0.930 . S
H570 C583 0.929 . S
H571 C581 0.929 . S
H572 C576 0.929 . S
H573 C582 0.929 . S
C574 H568 0.930 . S
C574 C575 1.367 . S
C574 C582 1.378 . S
C575 C574 1.367 . S
C575 C583 1.433 . S
C576 H572 0.929 . S
C576 C578 1.378 . S
C576 C580 1.350 1_556 S
C577 C580 1.463 . S
C577 C582 1.350 . S
C577 N585 1.427 . S
C578 H569 0.930 . S
C578 C576 1.378 . S
C578 C579 1.367 . S
C579 C578 1.367 . S
C579 C581 1.433 . S
C580 C576 1.350 1_554 S
C580 C577 1.463 . S
C580 N584 1.427 . S
C581 H571 0.929 . S
C581 C579 1.433 . S
C581 N584 1.384 1_556 S
C582 H573 0.929 . S
C582 C574 1.378 . S
C582 C577 1.350 . S
C583 H570 0.929 . S
C583 C575 1.433 . S
C583 N585 1.384 . S
N584 C580 1.427 . S
N584 C581 1.384 1_554 S
N585 C577 1.427 . S
N585 C583 1.384 . S
H586 C592 0.930 . S
H587 C596 0.930 . S
H588 C601 0.929 . S
H589 C599 0.929 . S
H590 C594 0.929 . S
H591 C600 0.929 . S
C592 H586 0.930 . S
C592 C593 1.367 . S
C592 C600 1.378 . S
C593 C592 1.367 . S
C593 C601 1.433 . S
C594 H590 0.929 . S
C594 C596 1.378 . S
C594 C598 1.350 . S
C595 C598 1.463 . S
C595 C600 1.350 . S
C595 N603 1.427 . S
C596 H587 0.930 . S
C596 C594 1.378 . S
C596 C597 1.367 . S
C597 C596 1.367 . S
C597 C599 1.433 . S
C598 C594 1.350 . S
C598 C595 1.463 . S
C598 N602 1.427 . S
C599 H589 0.929 . S
C599 C597 1.433 . S
C599 N602 1.384 . S
C600 H591 0.929 . S
C600 C592 1.378 . S
C600 C595 1.350 . S
C601 H588 0.929 . S
C601 C593 1.433 . S
C601 N603 1.384 . S
N602 C598 1.427 . S
N602 C599 1.384 . S
N603 C595 1.427 . S
N603 C601 1.384 . S
H604 C610 0.930 . S
H605 C614 0.930 . S
H606 C619 0.929 . S
H607 C617 0.929 . S
H608 C612 0.929 . S
H609 C618 0.929 . S
C610 H604 0.930 . S
C610 C611 1.367 . S
C610 C618 1.378 . S
C611 C610 1.367 . S
C611 C619 1.433 . S
C612 H608 0.929 . S
C612 C614 1.378 . S
C612 C616 1.350 . S
C613 C616 1.463 . S
C613 C618 1.350 . S
C613 N621 1.427 . S
C614 H605 0.930 . S
C614 C612 1.378 . S
C614 C615 1.367 . S
C615 C614 1.367 . S
C615 C617 1.433 . S
C616 C612 1.350 . S
C616 C613 1.463 . S
C616 N620 1.427 . S
C617 H607 0.929 . S
C617 C615 1.433 . S
C617 N620 1.384 . S
C618 H609 0.929 . S
C618 C610 1.378 . S
C618 C613 1.350 . S
C619 H606 0.929 . S
C619 C611 1.433 . S
C619 N621 1.384 . S
N620 C616 1.427 . S
N620 C617 1.384 . S
N621 C613 1.427 . S
N621 C619 1.384 . S
H622 C628 0.930 . S
H623 C632 0.930 . S
H624 C637 0.929 . S
H625 C635 0.929 . S
H626 C630 0.929 . S
H627 C636 0.929 . S
C628 H622 0.930 . S
C628 C629 1.367 . S
C628 C636 1.378 . S
C629 C628 1.367 . S
C629 C637 1.433 . S
C630 H626 0.929 . S
C630 C632 1.378 . S
C630 C634 1.350 . S
C631 C634 1.463 . S
C631 C636 1.350 . S
C631 N639 1.427 . S
C632 H623 0.930 . S
C632 C630 1.378 . S
C632 C633 1.367 . S
C633 C632 1.367 . S
C633 C635 1.433 . S
C634 C630 1.350 . S
C634 C631 1.463 . S
C634 N638 1.427 . S
C635 H625 0.929 . S
C635 C633 1.433 . S
C635 N638 1.384 . S
C636 H627 0.929 . S
C636 C628 1.378 . S
C636 C631 1.350 . S
C637 H624 0.929 . S
C637 C629 1.433 . S
C637 N639 1.384 . S
N638 C634 1.427 . S
N638 C635 1.384 . S
N639 C631 1.427 . S
N639 C637 1.384 . S
H640 C646 0.930 . S
H641 C650 0.930 . S
H642 C655 0.929 . S
H643 C653 0.929 . S
H644 C648 0.929 . S
H645 C654 0.929 . S
C646 H640 0.930 . S
C646 C647 1.367 . S
C646 C654 1.378 . S
C647 C646 1.367 . S
C647 C655 1.433 . S
C648 H644 0.929 . S
C648 C650 1.378 . S
C648 C652 1.350 . S
C649 C652 1.463 . S
C649 C654 1.350 . S
C649 N657 1.427 . S
C650 H641 0.930 . S
C650 C648 1.378 . S
C650 C651 1.367 . S
C651 C650 1.367 . S
C651 C653 1.433 . S
C652 C648 1.350 . S
C652 C649 1.463 . S
C652 N656 1.427 . S
C653 H643 0.929 . S
C653 C651 1.433 . S
C653 N656 1.384 . S
C654 H645 0.929 . S
C654 C646 1.378 . S
C654 C649 1.350 . S
C655 H642 0.929 . S
C655 C647 1.433 . S
C655 N657 1.384 . S
N656 C652 1.427 . S
N656 C653 1.384 . S
N657 C649 1.427 . S
N657 C655 1.384 . S
H658 C664 0.930 . S
H659 C668 0.930 . S
H660 C673 0.929 . S
H661 C671 0.929 . S
H662 C666 0.929 . S
H663 C672 0.929 . S
C664 H658 0.930 . S
C664 C665 1.367 . S
C664 C672 1.378 . S
C665 C664 1.367 . S
C665 C673 1.433 1_545 S
C666 H662 0.929 . S
C666 C668 1.378 . S
C666 C670 1.350 . S
C667 C670 1.463 . S
C667 C672 1.350 1_565 S
C667 N675 1.427 . S
C668 H659 0.930 . S
C668 C666 1.378 . S
C668 C669 1.367 . S
C669 C668 1.367 . S
C669 C671 1.433 . S
C670 C666 1.350 . S
C670 C667 1.463 . S
C670 N674 1.427 . S
C671 H661 0.929 . S
C671 C669 1.433 . S
C671 N674 1.384 . S
C672 H663 0.929 . S
C672 C664 1.378 . S
C672 C667 1.350 1_545 S
C673 H660 0.929 . S
C673 C665 1.433 1_565 S
C673 N675 1.384 . S
N674 C670 1.427 . S
N674 C671 1.384 . S
N675 C667 1.427 . S
N675 C673 1.384 . S
H676 C682 0.930 . S
H677 C686 0.930 . S
H678 C691 0.929 . S
H679 C689 0.929 . S
H680 C684 0.929 . S
H681 C690 0.929 . S
C682 H676 0.930 . S
C682 C683 1.367 . S
C682 C690 1.378 1_554 S
C683 C682 1.367 . S
C683 C691 1.433 . S
C684 H680 0.929 . S
C684 C686 1.378 . S
C684 C688 1.350 . S
C685 C688 1.463 . S
C685 C690 1.350 . S
C685 N693 1.427 1_556 S
C686 H677 0.930 . S
C686 C684 1.378 . S
C686 C687 1.367 . S
C687 C686 1.367 . S
C687 C689 1.433 . S
C688 C684 1.350 . S
C688 C685 1.463 . S
C688 N692 1.427 . S
C689 H679 0.929 . S
C689 C687 1.433 . S
C689 N692 1.384 . S
C690 H681 0.929 . S
C690 C682 1.378 1_556 S
C690 C685 1.350 . S
C691 H678 0.929 . S
C691 C683 1.433 . S
C691 N693 1.384 . S
N692 C688 1.427 . S
N692 C689 1.384 . S
N693 C685 1.427 1_554 S
N693 C691 1.384 . S
H694 C700 0.930 . S
H695 C704 0.930 . S
H696 C709 0.929 . S
H697 C707 0.929 . S
H698 C702 0.929 . S
H699 C708 0.929 . S
C700 H694 0.930 . S
C700 C701 1.367 . S
C700 C708 1.378 . S
C701 C700 1.367 . S
C701 C709 1.433 . S
C702 H698 0.929 . S
C702 C704 1.378 1_545 S
C702 C706 1.350 . S
C703 C706 1.463 . S
C703 C708 1.350 . S
C703 N711 1.427 . S
C704 H695 0.930 . S
C704 C702 1.378 1_565 S
C704 C705 1.367 . S
C705 C704 1.367 . S
C705 C707 1.433 . S
C706 C702 1.350 . S
C706 C703 1.463 . S
C706 N710 1.427 . S
C707 H697 0.929 . S
C707 C705 1.433 . S
C707 N710 1.384 1_565 S
C708 H699 0.929 . S
C708 C700 1.378 . S
C708 C703 1.350 . S
C709 H696 0.929 . S
C709 C701 1.433 . S
C709 N711 1.384 . S
N710 C706 1.427 . S
N710 C707 1.384 1_545 S
N711 C703 1.427 . S
N711 C709 1.384 . S
H712 C718 0.930 . S
H713 C722 0.930 . S
H714 C727 0.929 . S
H715 C725 0.929 . S
H716 C720 0.929 . S
H717 C726 0.929 . S
C718 H712 0.930 . S
C718 C719 1.367 . S
C718 C726 1.378 . S
C719 C718 1.367 . S
C719 C727 1.433 . S
C720 H716 0.929 . S
C720 C722 1.378 . S
C720 C724 1.350 . S
C721 C724 1.463 . S
C721 C726 1.350 . S
C721 N729 1.427 . S
C722 H713 0.930 . S
C722 C720 1.378 . S
C722 C723 1.367 . S
C723 C722 1.367 . S
C723 C725 1.433 . S
C724 C720 1.350 . S
C724 C721 1.463 . S
C724 N728 1.427 . S
C725 H715 0.929 . S
C725 C723 1.433 . S
C725 N728 1.384 . S
C726 H717 0.929 . S
C726 C718 1.378 . S
C726 C721 1.350 . S
C727 H714 0.929 . S
C727 C719 1.433 . S
C727 N729 1.384 . S
N728 C724 1.427 . S
N728 C725 1.384 . S
N729 C721 1.427 . S
N729 C727 1.384 . S
H730 C736 0.930 . S
H731 C740 0.930 . S
H732 C745 0.929 . S
H733 C743 0.929 . S
H734 C738 0.929 . S
H735 C744 0.929 . S
C736 H730 0.930 . S
C736 C737 1.367 1_545 S
C736 C744 1.378 . S
C737 C736 1.367 1_565 S
C737 C745 1.433 . S
C738 H734 0.929 . S
C738 C740 1.378 . S
C738 C742 1.350 . S
C739 C742 1.463 . S
C739 C744 1.350 . S
C739 N747 1.427 1_545 S
C740 H731 0.930 . S
C740 C738 1.378 . S
C740 C741 1.367 . S
C741 C740 1.367 . S
C741 C743 1.433 . S
C742 C738 1.350 . S
C742 C739 1.463 . S
C742 N746 1.427 . S
C743 H733 0.929 . S
C743 C741 1.433 . S
C743 N746 1.384 . S
C744 H735 0.929 . S
C744 C736 1.378 . S
C744 C739 1.350 . S
C745 H732 0.929 . S
C745 C737 1.433 . S
C745 N747 1.384 . S
N746 C742 1.427 . S
N746 C743 1.384 . S
N747 C739 1.427 1_565 S
N747 C745 1.384 . S
H748 C754 0.930 . S
H749 C758 0.930 . S
H750 C763 0.929 . S
H751 C761 0.929 . S
H752 C756 0.929 . S
H753 C762 0.929 . S
C754 H748 0.930 . S
C754 C755 1.367 . S
C754 C762 1.378 . S
C755 C754 1.367 . S
C755 C763 1.433 . S
C756 H752 0.929 . S
C756 C758 1.378 . S
C756 C760 1.350 1_556 S
C757 C760 1.463 . S
C757 C762 1.350 . S
C757 N765 1.427 . S
C758 H749 0.930 . S
C758 C756 1.378 . S
C758 C759 1.367 . S
C759 C758 1.367 . S
C759 C761 1.433 . S
C760 C756 1.350 1_554 S
C760 C757 1.463 . S
C760 N764 1.427 . S
C761 H751 0.929 . S
C761 C759 1.433 . S
C761 N764 1.384 1_556 S
C762 H753 0.929 . S
C762 C754 1.378 . S
C762 C757 1.350 . S
C763 H750 0.929 . S
C763 C755 1.433 . S
C763 N765 1.384 . S
N764 C760 1.427 . S
N764 C761 1.384 1_554 S
N765 C757 1.427 . S
N765 C763 1.384 . S
H766 C772 0.930 . S
H767 C776 0.930 . S
H768 C781 0.929 . S
H769 C779 0.929 . S
H770 C774 0.929 . S
H771 C780 0.929 . S
C772 H766 0.930 . S
C772 C773 1.367 1_565 S
C772 C780 1.378 . S
C773 C772 1.367 1_545 S
C773 C781 1.433 . S
C774 H770 0.929 . S
C774 C776 1.378 . S
C774 C778 1.350 . S
C775 C778 1.463 . S
C775 C780 1.350 . S
C775 N783 1.427 1_565 S
C776 H767 0.930 . S
C776 C774 1.378 . S
C776 C777 1.367 . S
C777 C776 1.367 . S
C777 C779 1.433 . S
C778 C774 1.350 . S
C778 C775 1.463 . S
C778 N782 1.427 . S
C779 H769 0.929 . S
C779 C777 1.433 . S
C779 N782 1.384 . S
C780 H771 0.929 . S
C780 C772 1.378 . S
C780 C775 1.350 . S
C781 H768 0.929 . S
C781 C773 1.433 . S
C781 N783 1.384 . S
N782 C778 1.427 . S
N782 C779 1.384 . S
N783 C775 1.427 1_545 S
N783 C781 1.384 . S
H784 C790 0.930 . S
H785 C794 0.930 . S
H786 C799 0.929 . S
H787 C797 0.929 . S
H788 C792 0.929 . S
H789 C798 0.929 . S
C790 H784 0.930 . S
C790 C791 1.367 . S
C790 C798 1.378 . S
C791 C790 1.367 . S
C791 C799 1.433 . S
C792 H788 0.929 . S
C792 C794 1.378 . S
C792 C796 1.350 . S
C793 C796 1.463 . S
C793 C798 1.350 . S
C793 N801 1.427 . S
C794 H785 0.930 . S
C794 C792 1.378 . S
C794 C795 1.367 . S
C795 C794 1.367 . S
C795 C797 1.433 . S
C796 C792 1.350 . S
C796 C793 1.463 . S
C796 N800 1.427 . S
C797 H787 0.929 . S
C797 C795 1.433 . S
C797 N800 1.384 . S
C798 H789 0.929 . S
C798 C790 1.378 . S
C798 C793 1.350 . S
C799 H786 0.929 . S
C799 C791 1.433 . S
C799 N801 1.384 . S
N800 C796 1.427 . S
N800 C797 1.384 . S
N801 C793 1.427 . S
N801 C799 1.384 . S
H802 C808 0.930 . S
H803 C812 0.930 . S
H804 C817 0.929 . S
H805 C815 0.929 . S
H806 C810 0.929 . S
H807 C816 0.929 . S
C808 H802 0.930 . S
C808 C809 1.367 . S
C808 C816 1.378 . S
C809 C808 1.367 . S
C809 C817 1.433 . S
C810 H806 0.929 . S
C810 C812 1.378 . S
C810 C814 1.350 . S
C811 C814 1.463 . S
C811 C816 1.350 . S
C811 N819 1.427 . S
C812 H803 0.930 . S
C812 C810 1.378 . S
C812 C813 1.367 . S
C813 C812 1.367 . S
C813 C815 1.433 . S
C814 C810 1.350 . S
C814 C811 1.463 . S
C814 N818 1.427 . S
C815 H805 0.929 . S
C815 C813 1.433 . S
C815 N818 1.384 . S
C816 H807 0.929 . S
C816 C808 1.378 . S
C816 C811 1.350 . S
C817 H804 0.929 . S
C817 C809 1.433 . S
C817 N819 1.384 . S
N818 C814 1.427 . S
N818 C815 1.384 . S
N819 C811 1.427 . S
N819 C817 1.384 . S
H820 C826 0.930 . S
H821 C830 0.930 . S
H822 C835 0.929 . S
H823 C833 0.929 . S
H824 C828 0.929 1_655 S
H825 C834 0.929 1_455 S
C826 H820 0.930 . S
C826 C827 1.367 . S
C826 C834 1.378 . S
C827 C826 1.367 . S
C827 C835 1.433 . S
C828 H824 0.929 1_455 S
C828 C830 1.378 . S
C828 C832 1.350 . S
C829 C832 1.463 1_655 S
C829 C834 1.350 . S
C829 N837 1.427 . S
C830 H821 0.930 . S
C830 C828 1.378 . S
C830 C831 1.367 . S
C831 C830 1.367 . S
C831 C833 1.433 . S
C832 C828 1.350 . S
C832 C829 1.463 1_455 S
C832 N836 1.427 . S
C833 H823 0.929 . S
C833 C831 1.433 . S
C833 N836 1.384 . S
C834 H825 0.929 1_655 S
C834 C826 1.378 . S
C834 C829 1.350 . S
C835 H822 0.929 . S
C835 C827 1.433 . S
C835 N837 1.384 . S
N836 C832 1.427 . S
N836 C833 1.384 . S
N837 C829 1.427 . S
N837 C835 1.384 . S
H838 C844 0.930 . S
H839 C848 0.930 . S
H840 C853 0.929 . S
H841 C851 0.929 . S
H842 C846 0.929 . S
H843 C852 0.929 . S
C844 H838 0.930 . S
C844 C845 1.367 . S
C844 C852 1.378 1_655 S
C845 C844 1.367 . S
C845 C853 1.433 . S
C846 H842 0.929 . S
C846 C848 1.378 1_655 S
C846 C850 1.350 1_655 S
C847 C850 1.463 1_655 S
C847 C852 1.350 1_655 S
C847 N855 1.427 . S
C848 H839 0.930 . S
C848 C846 1.378 1_455 S
C848 C849 1.367 . S
C849 C848 1.367 . S
C849 C851 1.433 . S
C850 C846 1.350 1_455 S
C850 C847 1.463 1_455 S
C850 N854 1.427 . S
C851 H841 0.929 . S
C851 C849 1.433 . S
C851 N854 1.384 . S
C852 H843 0.929 . S
C852 C844 1.378 1_455 S
C852 C847 1.350 1_455 S
C853 H840 0.929 . S
C853 C845 1.433 . S
C853 N855 1.384 . S
N854 C850 1.427 . S
N854 C851 1.384 . S
N855 C847 1.427 . S
N855 C853 1.384 . S
H856 C862 0.930 . S
H857 C866 0.930 . S
H858 C871 0.929 . S
H859 C869 0.929 . S
H860 C864 0.929 . S
H861 C870 0.929 . S
C862 H856 0.930 . S
C862 C863 1.367 . S
C862 C870 1.378 . S
C863 C862 1.367 . S
C863 C871 1.433 . S
C864 H860 0.929 . S
C864 C866 1.378 . S
C864 C868 1.350 . S
C865 C868 1.463 . S
C865 C870 1.350 . S
C865 N873 1.427 . S
C866 H857 0.930 . S
C866 C864 1.378 . S
C866 C867 1.367 . S
C867 C866 1.367 . S
C867 C869 1.433 . S
C868 C864 1.350 . S
C868 C865 1.463 . S
C868 N872 1.427 . S
C869 H859 0.929 . S
C869 C867 1.433 . S
C869 N872 1.384 . S
C870 H861 0.929 . S
C870 C862 1.378 . S
C870 C865 1.350 . S
C871 H858 0.929 . S
C871 C863 1.433 . S
C871 N873 1.384 . S
N872 C868 1.427 . S
N872 C869 1.384 . S
N873 C865 1.427 . S
N873 C871 1.384 . S
H874 C880 0.930 . S
H875 C884 0.930 . S
H876 C889 0.929 . S
H877 C887 0.929 . S
H878 C882 0.929 . S
H879 C888 0.929 . S
C880 H874 0.930 . S
C880 C881 1.367 . S
C880 C888 1.378 . S
C881 C880 1.367 . S
C881 C889 1.433 . S
C882 H878 0.929 . S
C882 C884 1.378 . S
C882 C886 1.350 . S
C883 C886 1.463 . S
C883 C888 1.350 . S
C883 N891 1.427 . S
C884 H875 0.930 . S
C884 C882 1.378 . S
C884 C885 1.367 . S
C885 C884 1.367 . S
C885 C887 1.433 . S
C886 C882 1.350 . S
C886 C883 1.463 . S
C886 N890 1.427 . S
C887 H877 0.929 . S
C887 C885 1.433 . S
C887 N890 1.384 . S
C888 H879 0.929 . S
C888 C880 1.378 . S
C888 C883 1.350 . S
C889 H876 0.929 . S
C889 C881 1.433 . S
C889 N891 1.384 . S
N890 C886 1.427 . S
N890 C887 1.384 . S
N891 C883 1.427 . S
N891 C889 1.384 . S
H892 C898 0.930 . S
H893 C902 0.930 . S
H894 C907 0.929 . S
H895 C905 0.929 . S
H896 C900 0.929 . S
H897 C906 0.929 . S
C898 H892 0.930 . S
C898 C899 1.367 . S
C898 C906 1.378 . S
C899 C898 1.367 . S
C899 C907 1.433 . S
C900 H896 0.929 . S
C900 C902 1.378 . S
C900 C904 1.350 . S
C901 C904 1.463 1_455 S
C901 C906 1.350 . S
C901 N909 1.427 . S
C902 H893 0.930 . S
C902 C900 1.378 . S
C902 C903 1.367 . S
C903 C902 1.367 . S
C903 C905 1.433 . S
C904 C900 1.350 . S
C904 C901 1.463 1_655 S
C904 N908 1.427 . S
C905 H895 0.929 . S
C905 C903 1.433 . S
C905 N908 1.384 . S
C906 H897 0.929 . S
C906 C898 1.378 . S
C906 C901 1.350 . S
C907 H894 0.929 . S
C907 C899 1.433 . S
C907 N909 1.384 . S
N908 C904 1.427 . S
N908 C905 1.384 . S
N909 C901 1.427 . S
N909 C907 1.384 . S
H910 C916 0.930 . S
H911 C920 0.930 . S
H912 C925 0.929 . S
H913 C923 0.929 . S
H914 C918 0.929 . S
H915 C924 0.929 . S
C916 H910 0.930 . S
C916 C917 1.367 . S
C916 C924 1.378 . S
C917 C916 1.367 . S
C917 C925 1.433 . S
C918 H914 0.929 . S
C918 C920 1.378 . S
C918 C922 1.350 . S
C919 C922 1.463 1_455 S
C919 C924 1.350 . S
C919 N927 1.427 . S
C920 H911 0.930 . S
C920 C918 1.378 . S
C920 C921 1.367 . S
C921 C920 1.367 . S
C921 C923 1.433 . S
C922 C918 1.350 . S
C922 C919 1.463 1_655 S
C922 N926 1.427 . S
C923 H913 0.929 . S
C923 C921 1.433 . S
C923 N926 1.384 . S
C924 H915 0.929 . S
C924 C916 1.378 . S
C924 C919 1.350 . S
C925 H912 0.929 . S
C925 C917 1.433 . S
C925 N927 1.384 . S
N926 C922 1.427 . S
N926 C923 1.384 . S
N927 C919 1.427 . S
N927 C925 1.384 . S
H928 C934 0.930 . S
H929 C938 0.930 . S
H930 C943 0.929 . S
H931 C941 0.929 . S
H932 C936 0.929 . S
H933 C942 0.929 . S
C934 H928 0.930 . S
C934 C935 1.367 . S
C934 C942 1.378 . S
C935 C934 1.367 . S
C935 C943 1.433 . S
C936 H932 0.929 . S
C936 C938 1.378 . S
C936 C940 1.350 . S
C937 C940 1.463 . S
C937 C942 1.350 . S
C937 N945 1.427 . S
C938 H929 0.930 . S
C938 C936 1.378 . S
C938 C939 1.367 . S
C939 C938 1.367 . S
C939 C941 1.433 . S
C940 C936 1.350 . S
C940 C937 1.463 . S
C940 N944 1.427 . S
C941 H931 0.929 . S
C941 C939 1.433 . S
C941 N944 1.384 . S
C942 H933 0.929 . S
C942 C934 1.378 . S
C942 C937 1.350 . S
C943 H930 0.929 . S
C943 C935 1.433 . S
C943 N945 1.384 . S
N944 C940 1.427 . S
N944 C941 1.384 . S
N945 C937 1.427 . S
N945 C943 1.384 . S
H946 C952 0.930 . S
H947 C956 0.930 . S
H948 C961 0.929 . S
H949 C959 0.929 . S
H950 C954 0.929 . S
H951 C960 0.929 . S
C952 H946 0.930 . S
C952 C953 1.367 . S
C952 C960 1.378 . S
C953 C952 1.367 . S
C953 C961 1.433 . S
C954 H950 0.929 . S
C954 C956 1.378 . S
C954 C958 1.350 . S
C955 C958 1.463 . S
C955 C960 1.350 . S
C955 N963 1.427 . S
C956 H947 0.930 . S
C956 C954 1.378 . S
C956 C957 1.367 . S
C957 C956 1.367 . S
C957 C959 1.433 . S
C958 C954 1.350 . S
C958 C955 1.463 . S
C958 N962 1.427 . S
C959 H949 0.929 . S
C959 C957 1.433 . S
C959 N962 1.384 . S
C960 H951 0.929 . S
C960 C952 1.378 . S
C960 C955 1.350 . S
C961 H948 0.929 . S
C961 C953 1.433 . S
C961 N963 1.384 . S
N962 C958 1.427 . S
N962 C959 1.384 . S
N963 C955 1.427 . S
N963 C961 1.384 . S
H964 C970 0.930 . S
H965 C974 0.930 . S
H966 C979 0.929 . S
H967 C977 0.929 . S
H968 C972 0.929 . S
H969 C978 0.929 . S
C970 H964 0.930 . S
C970 C971 1.367 . S
C970 C978 1.378 . S
C971 C970 1.367 . S
C971 C979 1.433 . S
C972 H968 0.929 . S
C972 C974 1.378 . S
C972 C976 1.350 . S
C973 C976 1.463 . S
C973 C978 1.350 . S
C973 N981 1.427 . S
C974 H965 0.930 . S
C974 C972 1.378 . S
C974 C975 1.367 . S
C975 C974 1.367 . S
C975 C977 1.433 . S
C976 C972 1.350 . S
C976 C973 1.463 . S
C976 N980 1.427 . S
C977 H967 0.929 . S
C977 C975 1.433 . S
C977 N980 1.384 . S
C978 H969 0.929 . S
C978 C970 1.378 . S
C978 C973 1.350 . S
C979 H966 0.929 . S
C979 C971 1.433 . S
C979 N981 1.384 . S
N980 C976 1.427 . S
N980 C977 1.384 . S
N981 C973 1.427 . S
N981 C979 1.384 . S
H982 C988 0.930 . S
H983 C992 0.930 . S
H984 C997 0.929 . S
H985 C995 0.929 . S
H986 C990 0.929 . S
H987 C996 0.929 . S
C988 H982 0.930 . S
C988 C989 1.367 . S
C988 C996 1.378 . S
C989 C988 1.367 . S
C989 C997 1.433 . S
C990 H986 0.929 . S
C990 C992 1.378 . S
C990 C994 1.350 . S
C991 C994 1.463 . S
C991 C996 1.350 . S
C991 N999 1.427 . S
C992 H983 0.930 . S
C992 C990 1.378 . S
C992 C993 1.367 . S
C993 C992 1.367 . S
C993 C995 1.433 . S
C994 C990 1.350 . S
C994 C991 1.463 . S
C994 N998 1.427 . S
C995 H985 0.929 . S
C995 C993 1.433 . S
C995 N998 1.384 . S
C996 H987 0.929 . S
C996 C988 1.378 . S
C996 C991 1.350 . S
C997 H984 0.929 . S
C997 C989 1.433 . S
C997 N999 1.384 . S
N998 C994 1.427 . S
N998 C995 1.384 . S
N999 C991 1.427 . S
N999 C997 1.384 . S
H1000 C1006 0.930 . S
H1001 C1010 0.930 . S
H1002 C1015 0.929 . S
H1003 C1013 0.929 . S
H1004 C1008 0.929 . S
H1005 C1014 0.929 . S
C1006 H1000 0.930 . S
C1006 C1007 1.367 . S
C1006 C1014 1.378 . S
C1007 C1006 1.367 . S
C1007 C1015 1.433 . S
C1008 H1004 0.929 . S
C1008 C1010 1.378 . S
C1008 C1012 1.350 . S
C1009 C1012 1.463 . S
C1009 C1014 1.350 . S
C1009 N1017 1.427 . S
C1010 H1001 0.930 . S
C1010 C1008 1.378 . S
C1010 C1011 1.367 . S
C1011 C1010 1.367 . S
C1011 C1013 1.433 . S
C1012 C1008 1.350 . S
C1012 C1009 1.463 . S
C1012 N1016 1.427 . S
C1013 H1003 0.929 . S
C1013 C1011 1.433 . S
C1013 N1016 1.384 . S
C1014 H1005 0.929 . S
C1014 C1006 1.378 . S
C1014 C1009 1.350 . S
C1015 H1002 0.929 . S
C1015 C1007 1.433 . S
C1015 N1017 1.384 . S
N1016 C1012 1.427 . S
N1016 C1013 1.384 . S
N1017 C1009 1.427 . S
N1017 C1015 1.384 . S
H1018 C1024 0.930 . S
H1019 C1028 0.930 . S
H1020 C1033 0.929 . S
H1021 C1031 0.929 . S
H1022 C1026 0.929 . S
H1023 C1032 0.929 . S
C1024 H1018 0.930 . S
C1024 C1025 1.367 . S
C1024 C1032 1.378 . S
C1025 C1024 1.367 . S
C1025 C1033 1.433 . S
C1026 H1022 0.929 . S
C1026 C1028 1.378 . S
C1026 C1030 1.350 . S
C1027 C1030 1.463 . S
C1027 C1032 1.350 . S
C1027 N1035 1.427 . S
C1028 H1019 0.930 . S
C1028 C1026 1.378 . S
C1028 C1029 1.367 . S
C1029 C1028 1.367 . S
C1029 C1031 1.433 . S
C1030 C1026 1.350 . S
C1030 C1027 1.463 . S
C1030 N1034 1.427 . S
C1031 H1021 0.929 . S
C1031 C1029 1.433 . S
C1031 N1034 1.384 . S
C1032 H1023 0.929 . S
C1032 C1024 1.378 . S
C1032 C1027 1.350 . S
C1033 H1020 0.929 . S
C1033 C1025 1.433 . S
C1033 N1035 1.384 . S
N1034 C1030 1.427 . S
N1034 C1031 1.384 . S
N1035 C1027 1.427 . S
N1035 C1033 1.384 . S
H1036 C1042 0.930 . S
H1037 C1046 0.930 . S
H1038 C1051 0.929 . S
H1039 C1049 0.929 . S
H1040 C1044 0.929 . S
H1041 C1050 0.929 . S
C1042 H1036 0.930 . S
C1042 C1043 1.367 . S
C1042 C1050 1.378 . S
C1043 C1042 1.367 . S
C1043 C1051 1.433 . S
C1044 H1040 0.929 . S
C1044 C1046 1.378 . S
C1044 C1048 1.350 . S
C1045 C1048 1.463 . S
C1045 C1050 1.350 . S
C1045 N1053 1.427 . S
C1046 H1037 0.930 . S
C1046 C1044 1.378 . S
C1046 C1047 1.367 . S
C1047 C1046 1.367 . S
C1047 C1049 1.433 . S
C1048 C1044 1.350 . S
C1048 C1045 1.463 . S
C1048 N1052 1.427 . S
C1049 H1039 0.929 . S
C1049 C1047 1.433 . S
C1049 N1052 1.384 . S
C1050 H1041 0.929 . S
C1050 C1042 1.378 . S
C1050 C1045 1.350 . S
C1051 H1038 0.929 . S
C1051 C1043 1.433 . S
C1051 N1053 1.384 . S
N1052 C1048 1.427 . S
N1052 C1049 1.384 . S
N1053 C1045 1.427 . S
N1053 C1051 1.384 . S
H1054 C1060 0.930 . S
H1055 C1064 0.930 . S
H1056 C1069 0.929 . S
H1057 C1067 0.929 . S
H1058 C1062 0.929 . S
H1059 C1068 0.929 . S
C1060 H1054 0.930 . S
C1060 C1061 1.367 . S
C1060 C1068 1.378 . S
C1061 C1060 1.367 . S
C1061 C1069 1.433 . S
C1062 H1058 0.929 . S
C1062 C1064 1.378 . S
C1062 C1066 1.350 . S
C1063 C1066 1.463 . S
C1063 C1068 1.350 . S
C1063 N1071 1.427 . S
C1064 H1055 0.930 . S
C1064 C1062 1.378 . S
C1064 C1065 1.367 . S
C1065 C1064 1.367 . S
C1065 C1067 1.433 . S
C1066 C1062 1.350 . S
C1066 C1063 1.463 . S
C1066 N1070 1.427 . S
C1067 H1057 0.929 . S
C1067 C1065 1.433 . S
C1067 N1070 1.384 . S
C1068 H1059 0.929 . S
C1068 C1060 1.378 . S
C1068 C1063 1.350 . S
C1069 H1056 0.929 . S
C1069 C1061 1.433 . S
C1069 N1071 1.384 . S
N1070 C1066 1.427 . S
N1070 C1067 1.384 . S
N1071 C1063 1.427 . S
N1071 C1069 1.384 . S
H1072 C1078 0.930 . S
H1073 C1082 0.930 . S
H1074 C1087 0.929 . S
H1075 C1085 0.929 . S
H1076 C1080 0.929 . S
H1077 C1086 0.929 . S
C1078 H1072 0.930 . S
C1078 C1079 1.367 . S
C1078 C1086 1.378 . S
C1079 C1078 1.367 . S
C1079 C1087 1.433 . S
C1080 H1076 0.929 . S
C1080 C1082 1.378 . S
C1080 C1084 1.350 . S
C1081 C1084 1.463 . S
C1081 C1086 1.350 . S
C1081 N1089 1.427 . S
C1082 H1073 0.930 . S
C1082 C1080 1.378 . S
C1082 C1083 1.367 . S
C1083 C1082 1.367 . S
C1083 C1085 1.433 . S
C1084 C1080 1.350 . S
C1084 C1081 1.463 . S
C1084 N1088 1.427 . S
C1085 H1075 0.929 . S
C1085 C1083 1.433 . S
C1085 N1088 1.384 . S
C1086 H1077 0.929 . S
C1086 C1078 1.378 . S
C1086 C1081 1.350 . S
C1087 H1074 0.929 . S
C1087 C1079 1.433 . S
C1087 N1089 1.384 . S
N1088 C1084 1.427 . S
N1088 C1085 1.384 . S
N1089 C1081 1.427 . S
N1089 C1087 1.384 . S
H1090 C1096 0.930 . S
H1091 C1100 0.930 1_565 S
H1092 C1105 0.929 . S
H1093 C1103 0.929 . S
H1094 C1098 0.929 . S
H1095 C1104 0.929 1_545 S
C1096 H1090 0.930 . S
C1096 C1097 1.367 . S
C1096 C1104 1.378 . S
C1097 C1096 1.367 . S
C1097 C1105 1.433 . S
C1098 H1094 0.929 . S
C1098 C1100 1.378 1_565 S
C1098 C1102 1.350 . S
C1099 C1102 1.463 . S
C1099 C1104 1.350 . S
C1099 N1107 1.427 . S
C1100 H1091 0.930 1_545 S
C1100 C1098 1.378 1_545 S
C1100 C1101 1.367 . S
C1101 C1100 1.367 . S
C1101 C1103 1.433 . S
C1102 C1098 1.350 . S
C1102 C1099 1.463 . S
C1102 N1106 1.427 1_565 S
C1103 H1093 0.929 . S
C1103 C1101 1.433 . S
C1103 N1106 1.384 . S
C1104 H1095 0.929 1_565 S
C1104 C1096 1.378 . S
C1104 C1099 1.350 . S
C1105 H1092 0.929 . S
C1105 C1097 1.433 . S
C1105 N1107 1.384 . S
N1106 C1102 1.427 1_545 S
N1106 C1103 1.384 . S
N1107 C1099 1.427 . S
N1107 C1105 1.384 . S
H1108 C1114 0.930 . S
H1109 C1118 0.930 . S
H1110 C1123 0.929 . S
H1111 C1121 0.929 . S
H1112 C1116 0.929 . S
H1113 C1122 0.929 . S
C1114 H1108 0.930 . S
C1114 C1115 1.367 . S
C1114 C1122 1.378 . S
C1115 C1114 1.367 . S
C1115 C1123 1.433 . S
C1116 H1112 0.929 . S
C1116 C1118 1.378 . S
C1116 C1120 1.350 . S
C1117 C1120 1.463 . S
C1117 C1122 1.350 . S
C1117 N1125 1.427 . S
C1118 H1109 0.930 . S
C1118 C1116 1.378 . S
C1118 C1119 1.367 . S
C1119 C1118 1.367 . S
C1119 C1121 1.433 . S
C1120 C1116 1.350 . S
C1120 C1117 1.463 . S
C1120 N1124 1.427 . S
C1121 H1111 0.929 . S
C1121 C1119 1.433 . S
C1121 N1124 1.384 . S
C1122 H1113 0.929 . S
C1122 C1114 1.378 . S
C1122 C1117 1.350 . S
C1123 H1110 0.929 . S
C1123 C1115 1.433 . S
C1123 N1125 1.384 . S
N1124 C1120 1.427 . S
N1124 C1121 1.384 . S
N1125 C1117 1.427 . S
N1125 C1123 1.384 . S
H1126 C1132 0.930 . S
H1127 C1136 0.930 . S
H1128 C1141 0.929 . S
H1129 C1139 0.929 . S
H1130 C1134 0.929 . S
H1131 C1140 0.929 . S
C1132 H1126 0.930 . S
C1132 C1133 1.367 . S
C1132 C1140 1.378 1_565 S
C1133 C1132 1.367 . S
C1133 C1141 1.433 . S
C1134 H1130 0.929 . S
C1134 C1136 1.378 . S
C1134 C1138 1.350 . S
C1135 C1138 1.463 . S
C1135 C1140 1.350 . S
C1135 N1143 1.427 1_545 S
C1136 H1127 0.930 . S
C1136 C1134 1.378 . S
C1136 C1137 1.367 . S
C1137 C1136 1.367 . S
C1137 C1139 1.433 . S
C1138 C1134 1.350 . S
C1138 C1135 1.463 . S
C1138 N1142 1.427 . S
C1139 H1129 0.929 . S
C1139 C1137 1.433 . S
C1139 N1142 1.384 . S
C1140 H1131 0.929 . S
C1140 C1132 1.378 1_545 S
C1140 C1135 1.350 . S
C1141 H1128 0.929 . S
C1141 C1133 1.433 . S
C1141 N1143 1.384 . S
N1142 C1138 1.427 . S
N1142 C1139 1.384 . S
N1143 C1135 1.427 1_565 S
N1143 C1141 1.384 . S
H1144 C1150 0.930 . S
H1145 C1154 0.930 . S
H1146 C1159 0.929 . S
H1147 C1157 0.929 . S
H1148 C1152 0.929 . S
H1149 C1158 0.929 . S
C1150 H1144 0.930 . S
C1150 C1151 1.367 . S
C1150 C1158 1.378 . S
C1151 C1150 1.367 . S
C1151 C1159 1.433 . S
C1152 H1148 0.929 . S
C1152 C1154 1.378 . S
C1152 C1156 1.350 . S
C1153 C1156 1.463 . S
C1153 C1158 1.350 . S
C1153 N1161 1.427 . S
C1154 H1145 0.930 . S
C1154 C1152 1.378 . S
C1154 C1155 1.367 . S
C1155 C1154 1.367 . S
C1155 C1157 1.433 . S
C1156 C1152 1.350 . S
C1156 C1153 1.463 . S
C1156 N1160 1.427 . S
C1157 H1147 0.929 . S
C1157 C1155 1.433 . S
C1157 N1160 1.384 . S
C1158 H1149 0.929 . S
C1158 C1150 1.378 . S
C1158 C1153 1.350 . S
C1159 H1146 0.929 . S
C1159 C1151 1.433 . S
C1159 N1161 1.384 . S
N1160 C1156 1.427 . S
N1160 C1157 1.384 . S
N1161 C1153 1.427 . S
N1161 C1159 1.384 . S
H1162 C1168 0.930 . S
H1163 C1172 0.930 . S
H1164 C1177 0.929 . S
H1165 C1175 0.929 . S
H1166 C1170 0.929 . S
H1167 C1176 0.929 . S
C1168 H1162 0.930 . S
C1168 C1169 1.367 . S
C1168 C1176 1.378 . S
C1169 C1168 1.367 . S
C1169 C1177 1.433 1_565 S
C1170 H1166 0.929 . S
C1170 C1172 1.378 . S
C1170 C1174 1.350 . S
C1171 C1174 1.463 . S
C1171 C1176 1.350 1_545 S
C1171 N1179 1.427 . S
C1172 H1163 0.930 . S
C1172 C1170 1.378 . S
C1172 C1173 1.367 . S
C1173 C1172 1.367 . S
C1173 C1175 1.433 . S
C1174 C1170 1.350 . S
C1174 C1171 1.463 . S
C1174 N1178 1.427 . S
C1175 H1165 0.929 . S
C1175 C1173 1.433 . S
C1175 N1178 1.384 . S
C1176 H1167 0.929 . S
C1176 C1168 1.378 . S
C1176 C1171 1.350 1_565 S
C1177 H1164 0.929 . S
C1177 C1169 1.433 1_545 S
C1177 N1179 1.384 . S
N1178 C1174 1.427 . S
N1178 C1175 1.384 . S
N1179 C1171 1.427 . S
N1179 C1177 1.384 . S
H1180 C1186 0.930 . S
H1181 C1190 0.930 . S
H1182 C1195 0.929 . S
H1183 C1193 0.929 . S
H1184 C1188 0.929 . S
H1185 C1194 0.929 . S
C1186 H1180 0.930 . S
C1186 C1187 1.367 . S
C1186 C1194 1.378 . S
C1187 C1186 1.367 . S
C1187 C1195 1.433 . S
C1188 H1184 0.929 . S
C1188 C1190 1.378 . S
C1188 C1192 1.350 . S
C1189 C1192 1.463 . S
C1189 C1194 1.350 . S
C1189 N1197 1.427 . S
C1190 H1181 0.930 . S
C1190 C1188 1.378 . S
C1190 C1191 1.367 . S
C1191 C1190 1.367 . S
C1191 C1193 1.433 . S
C1192 C1188 1.350 . S
C1192 C1189 1.463 . S
C1192 N1196 1.427 . S
C1193 H1183 0.929 . S
C1193 C1191 1.433 . S
C1193 N1196 1.384 . S
C1194 H1185 0.929 . S
C1194 C1186 1.378 . S
C1194 C1189 1.350 . S
C1195 H1182 0.929 . S
C1195 C1187 1.433 . S
C1195 N1197 1.384 . S
N1196 C1192 1.427 . S
N1196 C1193 1.384 . S
N1197 C1189 1.427 . S
N1197 C1195 1.384 . S
H1198 C1204 0.930 . S
H1199 C1208 0.930 . S
H1200 C1213 0.929 . S
H1201 C1211 0.929 . S
H1202 C1206 0.929 . S
H1203 C1212 0.929 . S
C1204 H1198 0.930 . S
C1204 C1205 1.367 . S
C1204 C1212 1.378 . S
C1205 C1204 1.367 . S
C1205 C1213 1.433 . S
C1206 H1202 0.929 . S
C1206 C1208 1.378 . S
C1206 C1210 1.350 1_545 S
C1207 C1210 1.463 . S
C1207 C1212 1.350 . S
C1207 N1215 1.427 . S
C1208 H1199 0.930 . S
C1208 C1206 1.378 . S
C1208 C1209 1.367 . S
C1209 C1208 1.367 . S
C1209 C1211 1.433 . S
C1210 C1206 1.350 1_565 S
C1210 C1207 1.463 . S
C1210 N1214 1.427 . S
C1211 H1201 0.929 . S
C1211 C1209 1.433 . S
C1211 N1214 1.384 1_545 S
C1212 H1203 0.929 . S
C1212 C1204 1.378 . S
C1212 C1207 1.350 . S
C1213 H1200 0.929 . S
C1213 C1205 1.433 . S
C1213 N1215 1.384 . S
N1214 C1210 1.427 . S
N1214 C1211 1.384 1_565 S
N1215 C1207 1.427 . S
N1215 C1213 1.384 . S
C359 C7 1.023 . S
C363 C271 1.023 . S
C377 C125 1.032 . S
C381 C29 1.032 . S
C395 C65 1.024 . S
C399 C323 1.024 . S
C413 C73 1.035 . S
C417 C175 1.035 . S
C431 C95 1.015 . S
C435 C183 1.015 . S
C449 C227 1.014 . S
C453 C147 1.014 . S
C467 C307 1.017 . S
C471 C219 1.017 . S
C485 C249 1.015 . S
C489 C337 1.015 . S
C503 C213 1.567 . S
C507 C10 1.551 . S
C521 C32 1.553 . S
C525 C241 1.571 . S
C539 C62 1.552 . S
C543 C263 1.567 . S
C557 C197 1.573 . S
C561 C76 1.548 . S
C575 C301 1.572 . S
C579 C98 1.545 . S
C593 C315 1.570 . S
C597 C118 1.554 . S
C611 C140 1.547 . S
C615 C351 1.568 . S
C629 C285 1.571 . S
C633 C172 1.544 . S
C647 C186 1.544 . S
C651 C43 1.570 . S
C665 C216 1.553 . S
C669 C59 1.571 . S
C683 C230 1.554 . S
C687 C87 1.568 . S
C701 C21 1.567 . S
C705 C252 1.552 . S
C719 C117 1.567 . S
C723 C274 1.551 . S
C737 C304 1.544 . S
C741 C139 1.571 . S
C755 C169 1.570 . S
C759 C316 1.544 . S
C773 C340 1.547 . S
C777 C109 1.567 . S
C791 C8 0.816 . S
C795 C228 0.815 . S
C809 C30 0.794 . S
C813 C250 0.816 . S
C827 C184 0.816 . S
C831 C54 0.816 . S
C845 C74 0.793 . S
C849 C208 0.793 . S
C863 C96 0.788 . S
C867 C326 0.806 . S
C881 C128 0.820 . S
C885 C338 0.809 . S
C899 C272 0.812 . S
C903 C150 0.790 . S
C917 C164 0.802 . S
C921 C296 0.820 . S
C935 C18 1.513 . S
C939 C161 1.542 . S
C953 C279 1.540 . S
C957 C40 1.515 . S
C971 C52 1.514 . S
C975 C131 1.540 . S
C989 C84 1.513 . S
C993 C329 1.541 . S
C1007 C106 1.512 . S
C1011 C81 1.542 . S
C1025 C191 1.545 . S
C1029 C120 1.509 . S
C1043 C142 1.506 . S
C1047 C37 1.546 . S
C1061 C235 1.546 . S
C1065 C162 1.507 . S
C1079 C194 1.509 . S
C1083 C345 1.544 1_565 S
C1097 C103 1.549 . S
C1101 C206 1.502 . S
C1115 C293 1.539 1_545 S
C1119 C238 1.517 . S
C1133 C260 1.512 . S
C1137 C153 1.542 . S
C1151 C282 1.517 . S
C1155 C257 1.539 1_545 S
C1169 C294 1.517 . S
C1173 C15 1.539 . S
C1187 C205 1.544 1_565 S
C1191 C318 1.510 . S
C1205 C51 1.544 . S
C1209 C348 1.510 . S
