# Generated by pormake.
# Topology ana, (4)-cn, num edge types: 1
# Building blocks:
#     Node 0, Type 0, BuildingBlock: NAHDIM_clean_sbu_0, # of connection points: 4
#     Node 1, Type 0, BuildingBlock: NAHDIM_clean_sbu_0, # of connection points: 4
#     Node 2, Type 0, BuildingBlock: NAHDIM_clean_sbu_0, # of connection points: 4
#     Node 3, Type 0, BuildingBlock: NAHDIM_clean_sbu_0, # of connection points: 4
#     Node 4, Type 0, BuildingBlock: NAHDIM_clean_sbu_0, # of connection points: 4
#     Node 5, Type 0, BuildingBlock: NAHDIM_clean_sbu_0, # of connection points: 4
#     Node 6, Type 0, BuildingBlock: NAHDIM_clean_sbu_0, # of connection points: 4
#     Node 7, Type 0, BuildingBlock: NAHDIM_clean_sbu_0, # of connection points: 4
#     Node 8, Type 0, BuildingBlock: NAHDIM_clean_sbu_0, # of connection points: 4
#     Node 9, Type 0, BuildingBlock: NAHDIM_clean_sbu_0, # of connection points: 4
#     Node 10, Type 0, BuildingBlock: NAHDIM_clean_sbu_0, # of connection points: 4
#     Node 11, Type 0, BuildingBlock: NAHDIM_clean_sbu_0, # of connection points: 4
#     Node 12, Type 0, BuildingBlock: NAHDIM_clean_sbu_0, # of connection points: 4
#     Node 13, Type 0, BuildingBlock: NAHDIM_clean_sbu_0, # of connection points: 4
#     Node 14, Type 0, BuildingBlock: NAHDIM_clean_sbu_0, # of connection points: 4
#     Node 15, Type 0, BuildingBlock: NAHDIM_clean_sbu_0, # of connection points: 4
#     Node 16, Type 0, BuildingBlock: NAHDIM_clean_sbu_0, # of connection points: 4
#     Node 17, Type 0, BuildingBlock: NAHDIM_clean_sbu_0, # of connection points: 4
#     Node 18, Type 0, BuildingBlock: NAHDIM_clean_sbu_0, # of connection points: 4
#     Node 19, Type 0, BuildingBlock: NAHDIM_clean_sbu_0, # of connection points: 4
#     Node 20, Type 0, BuildingBlock: NAHDIM_clean_sbu_0, # of connection points: 4
#     Node 21, Type 0, BuildingBlock: NAHDIM_clean_sbu_0, # of connection points: 4
#     Node 22, Type 0, BuildingBlock: NAHDIM_clean_sbu_0, # of connection points: 4
#     Node 23, Type 0, BuildingBlock: NAHDIM_clean_sbu_0, # of connection points: 4
#     Node 24, Type 0, BuildingBlock: NAHDIM_clean_sbu_0, # of connection points: 4
#     Node 25, Type 0, BuildingBlock: NAHDIM_clean_sbu_0, # of connection points: 4
#     Node 26, Type 0, BuildingBlock: NAHDIM_clean_sbu_0, # of connection points: 4
#     Node 27, Type 0, BuildingBlock: NAHDIM_clean_sbu_0, # of connection points: 4
#     Node 28, Type 0, BuildingBlock: NAHDIM_clean_sbu_0, # of connection points: 4
#     Node 29, Type 0, BuildingBlock: NAHDIM_clean_sbu_0, # of connection points: 4
#     Node 30, Type 0, BuildingBlock: NAHDIM_clean_sbu_0, # of connection points: 4
#     Node 31, Type 0, BuildingBlock: NAHDIM_clean_sbu_0, # of connection points: 4
#     Node 32, Type 0, BuildingBlock: NAHDIM_clean_sbu_0, # of connection points: 4
#     Node 33, Type 0, BuildingBlock: NAHDIM_clean_sbu_0, # of connection points: 4
#     Node 34, Type 0, BuildingBlock: NAHDIM_clean_sbu_0, # of connection points: 4
#     Node 35, Type 0, BuildingBlock: NAHDIM_clean_sbu_0, # of connection points: 4
#     Node 36, Type 0, BuildingBlock: NAHDIM_clean_sbu_0, # of connection points: 4
#     Node 37, Type 0, BuildingBlock: NAHDIM_clean_sbu_0, # of connection points: 4
#     Node 38, Type 0, BuildingBlock: NAHDIM_clean_sbu_0, # of connection points: 4
#     Node 39, Type 0, BuildingBlock: NAHDIM_clean_sbu_0, # of connection points: 4
#     Node 40, Type 0, BuildingBlock: NAHDIM_clean_sbu_0, # of connection points: 4
#     Node 41, Type 0, BuildingBlock: NAHDIM_clean_sbu_0, # of connection points: 4
#     Node 42, Type 0, BuildingBlock: NAHDIM_clean_sbu_0, # of connection points: 4
#     Node 43, Type 0, BuildingBlock: NAHDIM_clean_sbu_0, # of connection points: 4
#     Node 44, Type 0, BuildingBlock: NAHDIM_clean_sbu_0, # of connection points: 4
#     Node 45, Type 0, BuildingBlock: NAHDIM_clean_sbu_0, # of connection points: 4
#     Node 46, Type 0, BuildingBlock: NAHDIM_clean_sbu_0, # of connection points: 4
#     Node 47, Type 0, BuildingBlock: NAHDIM_clean_sbu_0, # of connection points: 4
#     Edge 48, Type (0, 0), BuildingBlock: UVAHIK_clean_linker_0, # of connection points: 2
#     Edge 49, Type (0, 0), BuildingBlock: UVAHIK_clean_linker_0, # of connection points: 2
#     Edge 50, Type (0, 0), BuildingBlock: UVAHIK_clean_linker_0, # of connection points: 2
#     Edge 51, Type (0, 0), BuildingBlock: UVAHIK_clean_linker_0, # of connection points: 2
#     Edge 52, Type (0, 0), BuildingBlock: UVAHIK_clean_linker_0, # of connection points: 2
#     Edge 53, Type (0, 0), BuildingBlock: UVAHIK_clean_linker_0, # of connection points: 2
#     Edge 54, Type (0, 0), BuildingBlock: UVAHIK_clean_linker_0, # of connection points: 2
#     Edge 55, Type (0, 0), BuildingBlock: UVAHIK_clean_linker_0, # of connection points: 2
#     Edge 56, Type (0, 0), BuildingBlock: UVAHIK_clean_linker_0, # of connection points: 2
#     Edge 57, Type (0, 0), BuildingBlock: UVAHIK_clean_linker_0, # of connection points: 2
#     Edge 58, Type (0, 0), BuildingBlock: UVAHIK_clean_linker_0, # of connection points: 2
#     Edge 59, Type (0, 0), BuildingBlock: UVAHIK_clean_linker_0, # of connection points: 2
#     Edge 60, Type (0, 0), BuildingBlock: UVAHIK_clean_linker_0, # of connection points: 2
#     Edge 61, Type (0, 0), BuildingBlock: UVAHIK_clean_linker_0, # of connection points: 2
#     Edge 62, Type (0, 0), BuildingBlock: UVAHIK_clean_linker_0, # of connection points: 2
#     Edge 63, Type (0, 0), BuildingBlock: UVAHIK_clean_linker_0, # of connection points: 2
#     Edge 64, Type (0, 0), BuildingBlock: UVAHIK_clean_linker_0, # of connection points: 2
#     Edge 65, Type (0, 0), BuildingBlock: UVAHIK_clean_linker_0, # of connection points: 2
#     Edge 66, Type (0, 0), BuildingBlock: UVAHIK_clean_linker_0, # of connection points: 2
#     Edge 67, Type (0, 0), BuildingBlock: UVAHIK_clean_linker_0, # of connection points: 2
#     Edge 68, Type (0, 0), BuildingBlock: UVAHIK_clean_linker_0, # of connection points: 2
#     Edge 69, Type (0, 0), BuildingBlock: UVAHIK_clean_linker_0, # of connection points: 2
#     Edge 70, Type (0, 0), BuildingBlock: UVAHIK_clean_linker_0, # of connection points: 2
#     Edge 71, Type (0, 0), BuildingBlock: UVAHIK_clean_linker_0, # of connection points: 2
#     Edge 72, Type (0, 0), BuildingBlock: UVAHIK_clean_linker_0, # of connection points: 2
#     Edge 73, Type (0, 0), BuildingBlock: UVAHIK_clean_linker_0, # of connection points: 2
#     Edge 74, Type (0, 0), BuildingBlock: UVAHIK_clean_linker_0, # of connection points: 2
#     Edge 75, Type (0, 0), BuildingBlock: UVAHIK_clean_linker_0, # of connection points: 2
#     Edge 76, Type (0, 0), BuildingBlock: UVAHIK_clean_linker_0, # of connection points: 2
#     Edge 77, Type (0, 0), BuildingBlock: UVAHIK_clean_linker_0, # of connection points: 2
#     Edge 78, Type (0, 0), BuildingBlock: UVAHIK_clean_linker_0, # of connection points: 2
#     Edge 79, Type (0, 0), BuildingBlock: UVAHIK_clean_linker_0, # of connection points: 2
#     Edge 80, Type (0, 0), BuildingBlock: UVAHIK_clean_linker_0, # of connection points: 2
#     Edge 81, Type (0, 0), BuildingBlock: UVAHIK_clean_linker_0, # of connection points: 2
#     Edge 82, Type (0, 0), BuildingBlock: UVAHIK_clean_linker_0, # of connection points: 2
#     Edge 83, Type (0, 0), BuildingBlock: UVAHIK_clean_linker_0, # of connection points: 2
#     Edge 84, Type (0, 0), BuildingBlock: UVAHIK_clean_linker_0, # of connection points: 2
#     Edge 85, Type (0, 0), BuildingBlock: UVAHIK_clean_linker_0, # of connection points: 2
#     Edge 86, Type (0, 0), BuildingBlock: UVAHIK_clean_linker_0, # of connection points: 2
#     Edge 87, Type (0, 0), BuildingBlock: UVAHIK_clean_linker_0, # of connection points: 2
#     Edge 88, Type (0, 0), BuildingBlock: UVAHIK_clean_linker_0, # of connection points: 2
#     Edge 89, Type (0, 0), BuildingBlock: UVAHIK_clean_linker_0, # of connection points: 2
#     Edge 90, Type (0, 0), BuildingBlock: UVAHIK_clean_linker_0, # of connection points: 2
#     Edge 91, Type (0, 0), BuildingBlock: UVAHIK_clean_linker_0, # of connection points: 2
#     Edge 92, Type (0, 0), BuildingBlock: UVAHIK_clean_linker_0, # of connection points: 2
#     Edge 93, Type (0, 0), BuildingBlock: UVAHIK_clean_linker_0, # of connection points: 2
#     Edge 94, Type (0, 0), BuildingBlock: UVAHIK_clean_linker_0, # of connection points: 2
#     Edge 95, Type (0, 0), BuildingBlock: UVAHIK_clean_linker_0, # of connection points: 2
#     Edge 96, Type (0, 0), BuildingBlock: UVAHIK_clean_linker_0, # of connection points: 2
#     Edge 97, Type (0, 0), BuildingBlock: UVAHIK_clean_linker_0, # of connection points: 2
#     Edge 98, Type (0, 0), BuildingBlock: UVAHIK_clean_linker_0, # of connection points: 2
#     Edge 99, Type (0, 0), BuildingBlock: UVAHIK_clean_linker_0, # of connection points: 2
#     Edge 100, Type (0, 0), BuildingBlock: UVAHIK_clean_linker_0, # of connection points: 2
#     Edge 101, Type (0, 0), BuildingBlock: UVAHIK_clean_linker_0, # of connection points: 2
#     Edge 102, Type (0, 0), BuildingBlock: UVAHIK_clean_linker_0, # of connection points: 2
#     Edge 103, Type (0, 0), BuildingBlock: UVAHIK_clean_linker_0, # of connection points: 2
#     Edge 104, Type (0, 0), BuildingBlock: UVAHIK_clean_linker_0, # of connection points: 2
#     Edge 105, Type (0, 0), BuildingBlock: UVAHIK_clean_linker_0, # of connection points: 2
#     Edge 106, Type (0, 0), BuildingBlock: UVAHIK_clean_linker_0, # of connection points: 2
#     Edge 107, Type (0, 0), BuildingBlock: UVAHIK_clean_linker_0, # of connection points: 2
#     Edge 108, Type (0, 0), BuildingBlock: UVAHIK_clean_linker_0, # of connection points: 2
#     Edge 109, Type (0, 0), BuildingBlock: UVAHIK_clean_linker_0, # of connection points: 2
#     Edge 110, Type (0, 0), BuildingBlock: UVAHIK_clean_linker_0, # of connection points: 2
#     Edge 111, Type (0, 0), BuildingBlock: UVAHIK_clean_linker_0, # of connection points: 2
#     Edge 112, Type (0, 0), BuildingBlock: UVAHIK_clean_linker_0, # of connection points: 2
#     Edge 113, Type (0, 0), BuildingBlock: UVAHIK_clean_linker_0, # of connection points: 2
#     Edge 114, Type (0, 0), BuildingBlock: UVAHIK_clean_linker_0, # of connection points: 2
#     Edge 115, Type (0, 0), BuildingBlock: UVAHIK_clean_linker_0, # of connection points: 2
#     Edge 116, Type (0, 0), BuildingBlock: UVAHIK_clean_linker_0, # of connection points: 2
#     Edge 117, Type (0, 0), BuildingBlock: UVAHIK_clean_linker_0, # of connection points: 2
#     Edge 118, Type (0, 0), BuildingBlock: UVAHIK_clean_linker_0, # of connection points: 2
#     Edge 119, Type (0, 0), BuildingBlock: UVAHIK_clean_linker_0, # of connection points: 2
#     Edge 120, Type (0, 0), BuildingBlock: UVAHIK_clean_linker_0, # of connection points: 2
#     Edge 121, Type (0, 0), BuildingBlock: UVAHIK_clean_linker_0, # of connection points: 2
#     Edge 122, Type (0, 0), BuildingBlock: UVAHIK_clean_linker_0, # of connection points: 2
#     Edge 123, Type (0, 0), BuildingBlock: UVAHIK_clean_linker_0, # of connection points: 2
#     Edge 124, Type (0, 0), BuildingBlock: UVAHIK_clean_linker_0, # of connection points: 2
#     Edge 125, Type (0, 0), BuildingBlock: UVAHIK_clean_linker_0, # of connection points: 2
#     Edge 126, Type (0, 0), BuildingBlock: UVAHIK_clean_linker_0, # of connection points: 2
#     Edge 127, Type (0, 0), BuildingBlock: UVAHIK_clean_linker_0, # of connection points: 2
#     Edge 128, Type (0, 0), BuildingBlock: UVAHIK_clean_linker_0, # of connection points: 2
#     Edge 129, Type (0, 0), BuildingBlock: UVAHIK_clean_linker_0, # of connection points: 2
#     Edge 130, Type (0, 0), BuildingBlock: UVAHIK_clean_linker_0, # of connection points: 2
#     Edge 131, Type (0, 0), BuildingBlock: UVAHIK_clean_linker_0, # of connection points: 2
#     Edge 132, Type (0, 0), BuildingBlock: UVAHIK_clean_linker_0, # of connection points: 2
#     Edge 133, Type (0, 0), BuildingBlock: UVAHIK_clean_linker_0, # of connection points: 2
#     Edge 134, Type (0, 0), BuildingBlock: UVAHIK_clean_linker_0, # of connection points: 2
#     Edge 135, Type (0, 0), BuildingBlock: UVAHIK_clean_linker_0, # of connection points: 2
#     Edge 136, Type (0, 0), BuildingBlock: UVAHIK_clean_linker_0, # of connection points: 2
#     Edge 137, Type (0, 0), BuildingBlock: UVAHIK_clean_linker_0, # of connection points: 2
#     Edge 138, Type (0, 0), BuildingBlock: UVAHIK_clean_linker_0, # of connection points: 2
#     Edge 139, Type (0, 0), BuildingBlock: UVAHIK_clean_linker_0, # of connection points: 2
#     Edge 140, Type (0, 0), BuildingBlock: UVAHIK_clean_linker_0, # of connection points: 2
#     Edge 141, Type (0, 0), BuildingBlock: UVAHIK_clean_linker_0, # of connection points: 2
#     Edge 142, Type (0, 0), BuildingBlock: UVAHIK_clean_linker_0, # of connection points: 2
#     Edge 143, Type (0, 0), BuildingBlock: UVAHIK_clean_linker_0, # of connection points: 2
# Relax obj value: 0.186
# Max RMSD: 0.211
# Mean RMSD: 0.198
data_MOF--net-ana--node1-NAHDIM_clean_sbu_0--edge1-UVAHIK_clean_linker_0
_symmetry_space_group_name_H-M    P1
_symmetry_Int_Tables_number       1
_symmetry_cell_setting            triclinic
loop_
_symmetry_equiv_pos_as_xyz
'x, y, z'
_cell_length_a     83.973563
_cell_length_b     80.953804
_cell_length_c     80.858429
_cell_angle_alpha  90.020333
_cell_angle_beta   90.081228
_cell_angle_gamma 90.499873
loop_
_atom_site_label
_atom_site_type_symbol
_atom_site_fract_x
_atom_site_fract_y
_atom_site_fract_z
_atom_type_partial_charge
C0 C 0.1345 0.19249 0.41113 0.0
O1 O 0.14665 0.18254 0.41298 0.0
O2 O 0.13315 0.14885 0.40456 0.0
Zn3 Zn 0.11557 0.16248 0.414 0.0
O4 O 0.09489 0.15718 0.40275 0.0
C5 C 0.10088 0.15799 0.44627 0.0
O6 O 0.08742 0.15968 0.43818 0.0
O7 O 0.12044 0.18656 0.41093 0.0
C8 C 0.08925 0.1426 0.402 0.0
O9 O 0.09731 0.1304 0.40857 0.0
C10 C 0.13764 0.15068 0.38968 0.0
O11 O 0.13029 0.1614 0.38022 0.0
O12 O 0.11398 0.15843 0.43841 0.0
C13 C 0.10418 0.88139 0.68022 0.0
O14 O 0.09626 0.8937 0.67367 0.0
O15 O 0.11017 0.84865 0.63728 0.0
Zn16 Zn 0.10415 0.87061 0.6467 0.0
O17 O 0.11623 0.88947 0.63636 0.0
C18 C 0.07146 0.87023 0.63332 0.0
O19 O 0.07747 0.8627 0.6204 0.0
O20 O 0.10925 0.86998 0.67087 0.0
C21 C 0.11127 0.89707 0.62362 0.0
O22 O 0.09815 0.89198 0.61631 0.0
C23 C 0.11195 0.84497 0.62213 0.0
O24 O 0.10989 0.85628 0.61071 0.0
O25 O 0.08052 0.87441 0.64522 0.0
C26 C 0.38704 0.81162 0.877 0.0
O27 O 0.39133 0.8217 0.86504 0.0
O28 O 0.35326 0.84532 0.88546 0.0
Zn29 Zn 0.3757 0.84145 0.89283 0.0
O30 O 0.39155 0.85528 0.88036 0.0
C31 C 0.36978 0.83729 0.92712 0.0
O32 O 0.36106 0.82502 0.92134 0.0
O33 O 0.38038 0.81742 0.8898 0.0
C34 C 0.39542 0.86972 0.88516 0.0
O35 O 0.38835 0.87603 0.89816 0.0
C36 C 0.34808 0.85854 0.87903 0.0
O37 O 0.35793 0.87095 0.87642 0.0
O38 O 0.37735 0.84644 0.91702 0.0
C39 C 0.39398 0.14326 0.16779 0.0
O40 O 0.3984 0.1573 0.16097 0.0
O41 O 0.38569 0.15348 0.12691 0.0
Zn42 Zn 0.3955 0.13231 0.13428 0.0
O43 O 0.38507 0.11261 0.1236 0.0
C44 C 0.42756 0.12155 0.13712 0.0
O45 O 0.42042 0.10899 0.14437 0.0
O46 O 0.3919 0.13063 0.15869 0.0
C47 C 0.39165 0.10314 0.11316 0.0
O48 O 0.40612 0.10655 0.10797 0.0
C49 C 0.3809 0.15738 0.11255 0.0
O50 O 0.38228 0.1468 0.10033 0.0
O51 O 0.41916 0.13302 0.13101 0.0
C52 C 0.12014 0.87164 0.08002 0.0
O53 O 0.12691 0.88311 0.08921 0.0
O54 O 0.09759 0.86126 0.12262 0.0
Zn55 Zn 0.11741 0.85396 0.11105 0.0
O56 O 0.13727 0.86508 0.1194 0.0
C57 C 0.13161 0.82164 0.10932 0.0
O58 O 0.14421 0.82996 0.1043 0.0
O59 O 0.11513 0.85843 0.08678 0.0
C60 C 0.14437 0.86091 0.13261 0.0
O61 O 0.13802 0.84942 0.14206 0.0
C62 C 0.09196 0.87572 0.12137 0.0
O63 O 0.1 0.88704 0.11317 0.0
O64 O 0.11912 0.82942 0.11334 0.0
C65 C 0.43013 0.8906 0.35632 0.0
O66 O 0.42079 0.90351 0.35694 0.0
O67 O 0.38754 0.89145 0.35742 0.0
Zn68 Zn 0.40069 0.87197 0.35094 0.0
O69 O 0.39376 0.8514 0.36266 0.0
C70 C 0.40169 0.87932 0.31654 0.0
O71 O 0.4079 0.89315 0.32224 0.0
O72 O 0.42408 0.87628 0.35444 0.0
C73 C 0.37955 0.84627 0.36065 0.0
O74 O 0.36962 0.85528 0.35199 0.0
C75 C 0.38685 0.89768 0.37182 0.0
O76 O 0.39494 0.89094 0.38394 0.0
O77 O 0.39748 0.86815 0.32669 0.0
C78 C 0.38804 0.14165 0.54892 0.0
O79 O 0.40209 0.14459 0.5555 0.0
O80 O 0.39964 0.12949 0.5889 0.0
Zn81 Zn 0.37861 0.13952 0.58295 0.0
O82 O 0.35989 0.12769 0.59308 0.0
C83 C 0.38621 0.16905 0.60191 0.0
O84 O 0.39514 0.15902 0.6106 0.0
O85 O 0.37619 0.13893 0.55832 0.0
C86 C 0.35483 0.13111 0.60748 0.0
O87 O 0.36271 0.14187 0.61656 0.0
C88 C 0.40312 0.12207 0.60224 0.0
O89 O 0.39215 0.11995 0.61362 0.0
O90 O 0.37827 0.1634 0.58976 0.0
C91 C 0.06236 0.11684 0.86382 0.0
O92 O 0.07093 0.1037 0.86691 0.0
O93 O 0.10246 0.11383 0.875 0.0
Zn94 Zn 0.09318 0.13296 0.86252 0.0
O95 O 0.09929 0.15481 0.87254 0.0
C96 C 0.10023 0.11931 0.83068 0.0
O97 O 0.09464 0.10579 0.83764 0.0
O98 O 0.06929 0.13072 0.86184 0.0
C99 C 0.11304 0.16096 0.86996 0.0
O100 O 0.12342 0.15248 0.86138 0.0
C101 C 0.11665 0.10904 0.8727 0.0
O102 O 0.12596 0.11746 0.86268 0.0
O103 O 0.10091 0.13256 0.83907 0.0
C104 C 0.18756 0.40451 0.11262 0.0
O105 O 0.18187 0.41492 0.10169 0.0
O106 O 0.14313 0.3853 0.13489 0.0
Zn107 Zn 0.15452 0.39611 0.116 0.0
O108 O 0.14899 0.3854 0.09439 0.0
C109 C 0.14483 0.42778 0.10233 0.0
O110 O 0.14452 0.41982 0.08817 0.0
O111 O 0.17804 0.39484 0.12015 0.0
C112 C 0.13478 0.38121 0.09085 0.0
O113 O 0.12355 0.38314 0.10196 0.0
C114 C 0.14721 0.37125 0.14036 0.0
O115 O 0.15864 0.36319 0.13286 0.0
O116 O 0.14855 0.42011 0.11548 0.0
C117 C 0.6413 0.06244 0.89765 0.0
O118 O 0.64624 0.06852 0.91184 0.0
O119 O 0.63577 0.10305 0.91124 0.0
Zn120 Zn 0.64159 0.0966 0.88817 0.0
O121 O 0.62819 0.10796 0.87118 0.0
C122 C 0.67096 0.10225 0.87015 0.0
O123 O 0.66168 0.10178 0.85706 0.0
O124 O 0.6383 0.07221 0.88577 0.0
C125 C 0.63046 0.12272 0.86636 0.0
O126 O 0.6418 0.13166 0.87323 0.0
C127 C 0.62146 0.10332 0.9163 0.0
O128 O 0.60982 0.10035 0.90581 0.0
O129 O 0.66487 0.10087 0.88447 0.0
C130 C 0.8562 0.91665 0.36005 0.0
O131 O 0.84933 0.90876 0.34771 0.0
O132 O 0.8566 0.8762 0.39707 0.0
Zn133 Zn 0.85086 0.88555 0.37488 0.0
O134 O 0.86079 0.873 0.35628 0.0
C135 C 0.81921 0.89753 0.37873 0.0
O136 O 0.82674 0.90835 0.38808 0.0
O137 O 0.85864 0.90898 0.37351 0.0
C138 C 0.85321 0.86192 0.34831 0.0
O139 O 0.83885 0.8576 0.3532 0.0
C140 C 0.84652 0.8683 0.40579 0.0
O141 O 0.8322 0.86547 0.39982 0.0
O142 O 0.82709 0.88612 0.37182 0.0
C143 C 0.84469 0.07073 0.11458 0.0
O144 O 0.83904 0.07741 0.12815 0.0
O145 O 0.8486 0.11452 0.0823 0.0
Zn146 Zn 0.84533 0.10445 0.10467 0.0
O147 O 0.86103 0.11304 0.12138 0.0
C148 C 0.81894 0.11192 0.12701 0.0
O149 O 0.83015 0.1145 0.13806 0.0
O150 O 0.84846 0.08003 0.10254 0.0
C151 C 0.86213 0.12803 0.12591 0.0
O152 O 0.85295 0.1391 0.11894 0.0
C153 C 0.8624 0.11754 0.07659 0.0
O154 O 0.87492 0.11493 0.08597 0.0
O155 O 0.82274 0.10798 0.11231 0.0
C156 C 0.35766 0.55955 0.62208 0.0
O157 O 0.34996 0.56666 0.63425 0.0
O158 O 0.37211 0.60455 0.59448 0.0
Zn159 Zn 0.36149 0.59297 0.61339 0.0
O160 O 0.37026 0.60019 0.63545 0.0
C161 C 0.33036 0.59937 0.59926 0.0
O162 O 0.33799 0.59888 0.5851 0.0
O163 O 0.36421 0.56855 0.61112 0.0
C164 C 0.36175 0.60864 0.64526 0.0
O165 O 0.34767 0.61361 0.64036 0.0
C166 C 0.36966 0.61977 0.59175 0.0
O167 O 0.36098 0.62819 0.60226 0.0
O168 O 0.33797 0.59718 0.61264 0.0
C169 C 0.14082 0.5785 0.35654 0.0
O170 O 0.14849 0.58516 0.34403 0.0
O171 O 0.13208 0.62108 0.38939 0.0
Zn172 Zn 0.14257 0.61157 0.36938 0.0
O173 O 0.13512 0.62246 0.34859 0.0
C174 C 0.17529 0.61546 0.35888 0.0
O175 O 0.16875 0.61754 0.34427 0.0
O176 O 0.13683 0.58754 0.36865 0.0
C177 C 0.12091 0.62036 0.34359 0.0
O178 O 0.11095 0.61169 0.3527 0.0
C179 C 0.13857 0.63233 0.39809 0.0
O180 O 0.15225 0.63873 0.39332 0.0
O181 O 0.16641 0.61314 0.37139 0.0
C182 C 0.30637 0.39291 0.86928 0.0
O183 O 0.31573 0.39636 0.85671 0.0
O184 O 0.34849 0.38162 0.86853 0.0
Zn185 Zn 0.33603 0.3918 0.88703 0.0
O186 O 0.34202 0.38266 0.90916 0.0
C187 C 0.35511 0.42119 0.89031 0.0
O188 O 0.36662 0.41047 0.89222 0.0
O189 O 0.31247 0.38987 0.88334 0.0
C190 C 0.35503 0.37532 0.91213 0.0
O191 O 0.36487 0.37227 0.89991 0.0
C192 C 0.34373 0.36932 0.86004 0.0
O193 O 0.33013 0.36209 0.86374 0.0
O194 O 0.34102 0.41599 0.88769 0.0
C195 C 0.85153 0.88196 0.62082 0.0
O196 O 0.85777 0.88929 0.60783 0.0
O197 O 0.8781 0.8352 0.61877 0.0
Zn198 Zn 0.87613 0.85926 0.61366 0.0
O199 O 0.87115 0.86056 0.58946 0.0
C200 C 0.90283 0.8734 0.63208 0.0
O201 O 0.89444 0.86969 0.64529 0.0
O202 O 0.85806 0.869 0.62639 0.0
C203 C 0.88218 0.85881 0.57888 0.0
O204 O 0.89687 0.8567 0.58402 0.0
C205 C 0.86593 0.82592 0.61711 0.0
O206 O 0.85222 0.83258 0.61315 0.0
O207 O 0.89701 0.87054 0.61786 0.0
C208 C 0.92655 0.12486 0.34924 0.0
O209 O 0.91533 0.12941 0.35954 0.0
O210 O 0.89103 0.09681 0.3305 0.0
Zn211 Zn 0.89977 0.11975 0.32756 0.0
O212 O 0.88755 0.13608 0.34103 0.0
C213 C 0.90615 0.11843 0.29279 0.0
O214 O 0.91473 0.10569 0.29728 0.0
O215 O 0.92272 0.12021 0.33474 0.0
C216 C 0.87363 0.14086 0.33733 0.0
O217 O 0.86639 0.13444 0.3244 0.0
C218 C 0.8908 0.09029 0.34479 0.0
O219 O 0.89577 0.09899 0.35753 0.0
O220 O 0.89854 0.12637 0.30372 0.0
C221 C 0.65239 0.12876 0.14321 0.0
O222 O 0.64652 0.14235 0.14956 0.0
O223 O 0.63023 0.15601 0.11801 0.0
Zn224 Zn 0.62566 0.1317 0.12121 0.0
O225 O 0.62248 0.12161 0.09879 0.0
C226 C 0.59729 0.14058 0.13885 0.0
O227 O 0.60332 0.1555 0.13708 0.0
O228 O 0.64484 0.12149 0.13165 0.0
C229 C 0.60943 0.1234 0.09103 0.0
O230 O 0.59771 0.13129 0.0982 0.0
C231 C 0.63435 0.16208 0.10414 0.0
O232 O 0.636 0.15228 0.09132 0.0
O233 O 0.60536 0.12824 0.13409 0.0
C234 C 0.55387 0.89553 0.84417 0.0
O235 O 0.56406 0.90718 0.84841 0.0
O236 O 0.59584 0.89463 0.8447 0.0
Zn237 Zn 0.58204 0.87595 0.83673 0.0
O238 O 0.58653 0.85527 0.84934 0.0
C239 C 0.58565 0.8842 0.80287 0.0
O240 O 0.58303 0.89902 0.80887 0.0
O241 O 0.55897 0.88165 0.83921 0.0
C242 C 0.60003 0.84842 0.84828 0.0
O243 O 0.61115 0.8553 0.8391 0.0
C244 C 0.59956 0.8965 0.85982 0.0
O245 O 0.59464 0.88556 0.87072 0.0
O246 O 0.58606 0.87198 0.81269 0.0
C247 C 0.89244 0.11846 0.86165 0.0
O248 O 0.88443 0.10813 0.8711 0.0
O249 O 0.86553 0.1345 0.89187 0.0
Zn250 Zn 0.86534 0.13912 0.8675 0.0
O251 O 0.86322 0.16366 0.86563 0.0
C252 C 0.84057 0.11505 0.86424 0.0
O253 O 0.84866 0.10818 0.87629 0.0
O254 O 0.88617 0.13214 0.85772 0.0
C255 C 0.84974 0.17042 0.86747 0.0
O256 O 0.83702 0.16108 0.86949 0.0
C257 C 0.8773 0.13872 0.90085 0.0
O258 O 0.8898 0.1457 0.89393 0.0
O259 O 0.84611 0.12802 0.85744 0.0
C260 C 0.56881 0.12333 0.64291 0.0
O261 O 0.57923 0.12866 0.632 0.0
O262 O 0.60817 0.10352 0.6609 0.0
Zn263 Zn 0.59605 0.12444 0.66458 0.0
O264 O 0.6053 0.14354 0.6518 0.0
C265 C 0.58763 0.12303 0.69927 0.0
O266 O 0.5778 0.11127 0.6944 0.0
O267 O 0.57331 0.12074 0.65768 0.0
C268 C 0.6149 0.15351 0.65886 0.0
O269 O 0.61954 0.15047 0.67407 0.0
C270 C 0.61083 0.098 0.64646 0.0
O271 O 0.60627 0.10664 0.63358 0.0
O272 O 0.59648 0.13016 0.6887 0.0
C273 C 0.59864 0.88801 0.36724 0.0
O274 O 0.60625 0.89722 0.37811 0.0
O275 O 0.62273 0.87007 0.39835 0.0
Zn276 Zn 0.62405 0.86535 0.37403 0.0
O277 O 0.62407 0.84062 0.37174 0.0
C278 C 0.65005 0.88841 0.371 0.0
O279 O 0.64161 0.89671 0.3818 0.0
O280 O 0.60453 0.87424 0.363 0.0
C281 C 0.63654 0.83231 0.3689 0.0
O282 O 0.65014 0.84008 0.36649 0.0
C283 C 0.63316 0.8639 0.40786 0.0
O284 O 0.64462 0.85503 0.40142 0.0
O285 O 0.64445 0.87498 0.36519 0.0
C286 C 0.92288 0.88775 0.14071 0.0
O287 O 0.91525 0.90181 0.14164 0.0
O288 O 0.88071 0.89363 0.13833 0.0
Zn289 Zn 0.89143 0.8726 0.14479 0.0
O290 O 0.88297 0.85341 0.13181 0.0
C291 C 0.89672 0.87094 0.18026 0.0
O292 O 0.91026 0.8784 0.17675 0.0
O293 O 0.91512 0.87422 0.14151 0.0
C294 C 0.86905 0.84798 0.13492 0.0
O295 O 0.86016 0.85599 0.14554 0.0
C296 C 0.88139 0.89931 0.12371 0.0
O297 O 0.88905 0.89099 0.11231 0.0
O298 O 0.88694 0.86767 0.16869 0.0
C299 C 0.82429 0.61884 0.86842 0.0
O300 O 0.83309 0.63103 0.8742 0.0
O301 O 0.86602 0.60464 0.84848 0.0
Zn302 Zn 0.85395 0.60115 0.86957 0.0
O303 O 0.86143 0.61603 0.8878 0.0
C304 C 0.86879 0.56948 0.8746 0.0
O305 O 0.88063 0.57634 0.86643 0.0
O306 O 0.83072 0.60501 0.86541 0.0
C307 C 0.87585 0.61759 0.89231 0.0
O308 O 0.887 0.60984 0.88408 0.0
C309 C 0.86528 0.61821 0.84065 0.0
O310 O 0.85714 0.63046 0.84698 0.0
O311 O 0.85628 0.57776 0.87726 0.0
C312 C 0.31199 0.89468 0.1391 0.0
O313 O 0.32075 0.89302 0.15246 0.0
O314 O 0.35449 0.89563 0.14233 0.0
Zn315 Zn 0.34218 0.90155 0.12199 0.0
O316 O 0.34906 0.88766 0.10285 0.0
C317 C 0.33648 0.93672 0.11951 0.0
O318 O 0.3228 0.9328 0.1264 0.0
O319 O 0.31863 0.89806 0.12538 0.0
C320 C 0.36147 0.89143 0.09467 0.0
O321 O 0.37014 0.90421 0.09933 0.0
C322 C 0.35565 0.88089 0.14754 0.0
O323 O 0.34866 0.86886 0.13928 0.0
O324 O 0.3465 0.92543 0.11656 0.0
C325 C 0.18918 0.10541 0.64091 0.0
O326 O 0.18289 0.10762 0.6556 0.0
O327 O 0.1482 0.10163 0.65271 0.0
Zn328 Zn 0.1565 0.0986 0.62972 0.0
O329 O 0.14608 0.11394 0.61372 0.0
C330 C 0.16011 0.06377 0.62861 0.0
O331 O 0.1713 0.06735 0.63944 0.0
O332 O 0.18022 0.10191 0.6287 0.0
C333 C 0.13117 0.11342 0.61108 0.0
O334 O 0.12226 0.10318 0.61972 0.0
C335 C 0.14633 0.11566 0.65943 0.0
O336 O 0.14986 0.1291 0.65104 0.0
O337 O 0.15183 0.07537 0.62259 0.0
C338 C 0.17978 0.88459 0.87843 0.0
O339 O 0.17044 0.87401 0.88612 0.0
O340 O 0.1379 0.8985 0.85927 0.0
Zn341 Zn 0.15161 0.90466 0.87868 0.0
O342 O 0.14482 0.89389 0.89987 0.0
C343 C 0.13872 0.93652 0.88676 0.0
O344 O 0.12588 0.92774 0.88998 0.0
O345 O 0.17423 0.89844 0.87395 0.0
C346 C 0.13071 0.89022 0.90424 0.0
O347 O 0.11881 0.8929 0.89405 0.0
C348 C 0.13773 0.884 0.85325 0.0
O349 O 0.14586 0.87234 0.86062 0.0
O350 O 0.15114 0.92926 0.88168 0.0
C351 C 0.69358 0.40499 0.37241 0.0
O352 O 0.68726 0.41107 0.38594 0.0
O353 O 0.65144 0.40008 0.33962 0.0
Zn354 Zn 0.66119 0.40589 0.36148 0.0
O355 O 0.65181 0.39223 0.37976 0.0
C356 C 0.65435 0.43594 0.37998 0.0
O357 O 0.65268 0.42595 0.39267 0.0
O358 O 0.68461 0.4017 0.36017 0.0
C359 C 0.63691 0.3912 0.38234 0.0
O360 O 0.62709 0.39897 0.37242 0.0
C361 C 0.64833 0.38529 0.33539 0.0
O362 O 0.65103 0.37326 0.3459 0.0
O363 O 0.65784 0.43004 0.36588 0.0
C364 C 0.81517 0.37863 0.62176 0.0
O365 O 0.82424 0.36699 0.61567 0.0
O366 O 0.85485 0.39016 0.64738 0.0
Zn367 Zn 0.84512 0.39596 0.62556 0.0
O368 O 0.85374 0.38227 0.607 0.0
C369 C 0.85772 0.42689 0.61113 0.0
O370 O 0.86691 0.41754 0.60201 0.0
O371 O 0.82154 0.39195 0.62694 0.0
C372 C 0.8682 0.37884 0.60414 0.0
O373 O 0.87944 0.38468 0.61391 0.0
C374 C 0.85439 0.37556 0.65311 0.0
O375 O 0.84821 0.36365 0.64405 0.0
O376 O 0.8482 0.42025 0.62141 0.0
C377 C 0.67568 0.59287 0.14103 0.0
O378 O 0.66831 0.58862 0.15473 0.0
O379 O 0.63353 0.59749 0.14781 0.0
Zn380 Zn 0.64397 0.59192 0.12629 0.0
O381 O 0.6357 0.60601 0.10796 0.0
C382 C 0.64965 0.55976 0.11263 0.0
O383 O 0.66336 0.56661 0.10864 0.0
O384 O 0.66764 0.59522 0.12793 0.0
C385 C 0.62154 0.60415 0.1027 0.0
O386 O 0.61205 0.59351 0.11012 0.0
C387 C 0.6355 0.61159 0.15444 0.0
O388 O 0.64422 0.62277 0.1468 0.0
O389 O 0.6394 0.56821 0.12042 0.0
C390 C 0.61647 0.68051 0.90134 0.0
O391 O 0.60466 0.67268 0.90865 0.0
O392 O 0.65153 0.64019 0.89611 0.0
Zn393 Zn 0.6299 0.64829 0.90216 0.0
O394 O 0.61329 0.6365 0.88876 0.0
C395 C 0.61264 0.64087 0.93245 0.0
O396 O 0.60057 0.63819 0.92243 0.0
O397 O 0.62879 0.6725 0.89725 0.0
C398 C 0.6116 0.6209 0.88885 0.0
O399 O 0.62121 0.6119 0.89789 0.0
C400 C 0.65681 0.64272 0.88161 0.0
O401 O 0.64776 0.65029 0.87078 0.0
O402 O 0.6261 0.64497 0.92648 0.0
C403 C 0.61258 0.35435 0.1642 0.0
O404 O 0.60667 0.3402 0.15897 0.0
O405 O 0.61934 0.34118 0.12278 0.0
Zn406 Zn 0.60934 0.36228 0.13007 0.0
O407 O 0.61719 0.38186 0.11701 0.0
C408 C 0.57701 0.37084 0.13616 0.0
O409 O 0.58397 0.3836 0.14326 0.0
O410 O 0.61505 0.36588 0.15384 0.0
C411 C 0.60827 0.39025 0.10755 0.0
O412 O 0.59348 0.38544 0.10511 0.0
C413 C 0.61927 0.33566 0.10808 0.0
O414 O 0.61271 0.34442 0.09625 0.0
O415 O 0.58554 0.36001 0.12914 0.0
C416 C 0.85641 0.30267 0.39435 0.0
O417 O 0.84466 0.31318 0.39302 0.0
O418 O 0.85796 0.3466 0.39682 0.0
Zn419 Zn 0.87594 0.33163 0.40284 0.0
O420 O 0.89581 0.33763 0.3905 0.0
C421 C 0.87023 0.3288 0.43747 0.0
O422 O 0.85686 0.32217 0.43207 0.0
O423 O 0.87026 0.30789 0.39819 0.0
C424 C 0.90186 0.35201 0.39175 0.0
O425 O 0.89447 0.3632 0.40058 0.0
C426 C 0.85359 0.34898 0.38197 0.0
O427 O 0.86133 0.34172 0.36992 0.0
O428 O 0.88044 0.33393 0.42707 0.0
C429 C 0.90719 0.61357 0.66881 0.0
O430 O 0.91495 0.60081 0.66296 0.0
O431 O 0.90458 0.64622 0.62502 0.0
Zn432 Zn 0.9103 0.62453 0.63535 0.0
O433 O 0.90001 0.60507 0.62398 0.0
C434 C 0.941 0.60854 0.63228 0.0
O435 O 0.93247 0.59556 0.62797 0.0
O436 O 0.90354 0.62526 0.65909 0.0
C437 C 0.8866 0.59945 0.62873 0.0
O438 O 0.87892 0.60717 0.64053 0.0
C439 C 0.89028 0.65121 0.625 0.0
O440 O 0.879 0.64145 0.63073 0.0
O441 O 0.93408 0.62207 0.63545 0.0
C442 C 0.60658 0.3505 0.54916 0.0
O443 O 0.59289 0.35012 0.557 0.0
O444 O 0.60048 0.361 0.59088 0.0
Zn445 Zn 0.61976 0.34935 0.58219 0.0
O446 O 0.64037 0.35962 0.59001 0.0
C447 C 0.61392 0.3203 0.60247 0.0
O448 O 0.60833 0.331 0.61316 0.0
O449 O 0.61947 0.35036 0.55742 0.0
C450 C 0.64677 0.35607 0.60381 0.0
O451 O 0.63929 0.34605 0.61399 0.0
C452 C 0.59921 0.36853 0.60459 0.0
O453 O 0.61151 0.36946 0.6146 0.0
O454 O 0.61914 0.32535 0.58861 0.0
C455 C 0.91585 0.36165 0.8541 0.0
O456 O 0.9086 0.35044 0.845 0.0
O457 O 0.87453 0.3904 0.87169 0.0
Zn458 Zn 0.88369 0.37026 0.86114 0.0
O459 O 0.87599 0.3493 0.87165 0.0
C460 C 0.87495 0.35759 0.82849 0.0
O461 O 0.87486 0.34309 0.83577 0.0
O462 O 0.90755 0.37154 0.86264 0.0
C463 C 0.86142 0.34496 0.87178 0.0
O464 O 0.8507 0.35504 0.86572 0.0
C465 C 0.88042 0.39656 0.88482 0.0
O466 O 0.89201 0.38878 0.89238 0.0
O467 O 0.87801 0.37048 0.83695 0.0
C468 C 0.87945 0.64522 0.06386 0.0
O469 O 0.89117 0.64983 0.07365 0.0
O470 O 0.88217 0.63646 0.10661 0.0
Zn471 Zn 0.86246 0.6434 0.09454 0.0
O472 O 0.8434 0.63 0.10131 0.0
C473 C 0.86182 0.67455 0.11229 0.0
O474 O 0.8688 0.66618 0.12414 0.0
O475 O 0.86601 0.64142 0.07009 0.0
C476 C 0.84006 0.62754 0.11643 0.0
O477 O 0.84974 0.63324 0.1279 0.0
C478 C 0.88905 0.623 0.10309 0.0
O479 O 0.88258 0.6131 0.09204 0.0
O480 O 0.85808 0.66726 0.09892 0.0
C481 C 0.56593 0.61194 0.36603 0.0
O482 O 0.57532 0.59909 0.36714 0.0
O483 O 0.60868 0.6116 0.36732 0.0
Zn484 Zn 0.5953 0.63045 0.35954 0.0
O485 O 0.60208 0.65194 0.36968 0.0
C486 C 0.59442 0.62051 0.32572 0.0
O487 O 0.5882 0.60713 0.33236 0.0
O488 O 0.57192 0.62617 0.36338 0.0
C489 C 0.61626 0.65702 0.36742 0.0
O490 O 0.62631 0.64744 0.35958 0.0
C491 C 0.60884 0.60543 0.38175 0.0
O492 O 0.59995 0.61193 0.39338 0.0
O493 O 0.59849 0.63244 0.33505 0.0
C494 C 0.68397 0.88953 0.62994 0.0
O495 O 0.67479 0.88439 0.64206 0.0
O496 O 0.64282 0.88329 0.6314 0.0
Zn497 Zn 0.654 0.89553 0.6132 0.0
O498 O 0.64822 0.88679 0.59073 0.0
C499 C 0.64999 0.92661 0.6287 0.0
O500 O 0.65509 0.91803 0.6414 0.0
O501 O 0.67769 0.89434 0.61649 0.0
C502 C 0.63668 0.89285 0.58264 0.0
O503 O 0.6281 0.90454 0.58941 0.0
C504 C 0.62787 0.8841 0.63355 0.0
O505 O 0.61917 0.89213 0.62275 0.0
O506 O 0.64828 0.91946 0.61482 0.0
C507 C 0.35474 0.38579 0.12233 0.0
O508 O 0.36278 0.39267 0.11018 0.0
O509 O 0.37067 0.33551 0.11746 0.0
Zn510 Zn 0.37717 0.3595 0.11756 0.0
O511 O 0.37924 0.36642 0.09384 0.0
C512 C 0.40731 0.35017 0.13091 0.0
O513 O 0.40168 0.33543 0.12724 0.0
O514 O 0.35946 0.37213 0.12822 0.0
C515 C 0.38943 0.3597 0.08445 0.0
O516 O 0.3992 0.34873 0.09065 0.0
C517 C 0.36242 0.32947 0.10569 0.0
O518 O 0.35763 0.33916 0.09368 0.0
O519 O 0.39852 0.36269 0.12864 0.0
C520 C 0.45307 0.5908 0.84769 0.0
O521 O 0.44416 0.57744 0.84888 0.0
O522 O 0.41305 0.58883 0.85921 0.0
Zn523 Zn 0.42279 0.60736 0.84609 0.0
O524 O 0.41755 0.62976 0.85532 0.0
C525 C 0.4023 0.60144 0.81744 0.0
O526 O 0.3916 0.59684 0.82838 0.0
O527 O 0.44649 0.60483 0.84651 0.0
C528 C 0.40489 0.63733 0.85141 0.0
O529 O 0.39445 0.63003 0.84169 0.0
C530 C 0.39955 0.58861 0.86627 0.0
O531 O 0.39041 0.60167 0.86552 0.0
O532 O 0.41603 0.60609 0.82227 0.0
C533 C 0.16356 0.63743 0.59953 0.0
O534 O 0.1586 0.64811 0.58846 0.0
O535 O 0.12883 0.66148 0.60821 0.0
Zn536 Zn 0.13105 0.63723 0.60332 0.0
O537 O 0.12845 0.63482 0.57876 0.0
C538 C 0.10714 0.62982 0.62759 0.0
O539 O 0.11226 0.64381 0.63399 0.0
O540 O 0.15335 0.63038 0.6088 0.0
C541 C 0.11631 0.62931 0.5711 0.0
O542 O 0.10404 0.62366 0.5795 0.0
C543 C 0.11884 0.66982 0.59995 0.0
O544 O 0.10961 0.66224 0.58919 0.0
O545 O 0.11406 0.62406 0.61491 0.0
C546 C 0.06855 0.37019 0.35867 0.0
O547 O 0.07819 0.36573 0.37064 0.0
O548 O 0.10706 0.39664 0.34407 0.0
Zn549 Zn 0.09803 0.37387 0.34094 0.0
O550 O 0.10787 0.35769 0.3566 0.0
C551 C 0.11487 0.37041 0.31038 0.0
O552 O 0.12546 0.37949 0.31828 0.0
O553 O 0.07437 0.37434 0.34477 0.0
C554 C 0.1227 0.35561 0.35877 0.0
O555 O 0.13294 0.36486 0.35061 0.0
C556 C 0.10536 0.40454 0.35751 0.0
O557 O 0.09791 0.39744 0.36992 0.0
O558 O 0.10201 0.3664 0.31765 0.0
C559 C 0.39772 0.61608 0.38023 0.0
O560 O 0.39006 0.60781 0.39177 0.0
O561 O 0.37469 0.63799 0.40995 0.0
Zn562 Zn 0.37266 0.63965 0.38521 0.0
O563 O 0.37266 0.66387 0.37975 0.0
C564 C 0.34358 0.62031 0.38674 0.0
O565 O 0.34873 0.61679 0.40166 0.0
O566 O 0.39199 0.62957 0.37499 0.0
C567 C 0.36022 0.67169 0.37559 0.0
O568 O 0.34669 0.66362 0.37386 0.0
C569 C 0.36761 0.64832 0.41915 0.0
O570 O 0.35854 0.65957 0.41233 0.0
O571 O 0.35221 0.62916 0.37729 0.0
C572 C 0.05517 0.62898 0.13865 0.0
O573 O 0.0601 0.64114 0.14819 0.0
O574 O 0.10127 0.60427 0.13086 0.0
Zn575 Zn 0.08837 0.62383 0.13752 0.0
O576 O 0.09556 0.64479 0.12655 0.0
C577 C 0.10131 0.63376 0.16939 0.0
O578 O 0.11318 0.63967 0.16057 0.0
O579 O 0.06541 0.6196 0.13205 0.0
C580 C 0.10972 0.64797 0.12194 0.0
O581 O 0.12077 0.63673 0.12373 0.0
C582 C 0.09986 0.59762 0.11671 0.0
O583 O 0.09034 0.6043 0.10573 0.0
O584 O 0.08978 0.62653 0.16215 0.0
C585 C 0.08588 0.36925 0.86235 0.0
O586 O 0.09452 0.35855 0.85417 0.0
O587 O 0.11398 0.37202 0.90832 0.0
Zn588 Zn 0.11267 0.36821 0.88389 0.0
O589 O 0.11381 0.34368 0.88112 0.0
C590 C 0.13861 0.39086 0.87959 0.0
O591 O 0.1327 0.39703 0.89327 0.0
O592 O 0.09163 0.37591 0.87529 0.0
C593 C 0.12701 0.33617 0.88184 0.0
O594 O 0.14025 0.34475 0.88361 0.0
C595 C 0.10281 0.36708 0.91772 0.0
O596 O 0.09001 0.36031 0.91114 0.0
O597 O 0.13141 0.37888 0.8726 0.0
C598 C 0.4359 0.37236 0.64341 0.0
O599 O 0.42696 0.36757 0.63094 0.0
O600 O 0.39338 0.38629 0.65282 0.0
Zn601 Zn 0.40668 0.36745 0.66089 0.0
O602 O 0.40144 0.34658 0.64869 0.0
C603 C 0.39929 0.37608 0.69429 0.0
O604 O 0.3989 0.39095 0.68781 0.0
O605 O 0.4298 0.37318 0.65775 0.0
C606 C 0.38871 0.33868 0.65199 0.0
O607 O 0.37883 0.34473 0.66298 0.0
C608 C 0.39011 0.38899 0.63773 0.0
O609 O 0.39502 0.37863 0.62636 0.0
O610 O 0.40254 0.36386 0.68507 0.0
C611 C 0.29559 0.0948 0.36654 0.0
O612 O 0.30149 0.08617 0.37883 0.0
O613 O 0.33965 0.10364 0.33745 0.0
Zn614 Zn 0.32838 0.09655 0.35806 0.0
O615 O 0.33669 0.10904 0.37769 0.0
C616 C 0.33546 0.06572 0.37502 0.0
O617 O 0.33681 0.07512 0.3882 0.0
O618 O 0.30499 0.10069 0.35571 0.0
C619 C 0.35148 0.11129 0.38021 0.0
O620 O 0.36176 0.10572 0.36937 0.0
C621 C 0.3426 0.11865 0.33392 0.0
O622 O 0.33816 0.13032 0.34418 0.0
O623 O 0.33192 0.07221 0.3612 0.0
C624 C 0.14402 0.33637 0.36852 0.0
C625 C 0.12815 0.34172 0.36911 0.0
C626 C 0.14852 0.32192 0.37672 0.0
C627 C 0.13466 0.29084 0.4076 0.0
H628 H 0.15641 0.25955 0.37939 0.0
C629 C 0.12411 0.22125 0.41114 0.0
C630 C 0.13703 0.21048 0.40943 0.0
C631 C 0.12626 0.23823 0.40923 0.0
C632 C 0.15063 0.26823 0.38758 0.0
H633 H 0.10482 0.33674 0.37959 0.0
H634 H 0.11258 0.31163 0.39366 0.0
H635 H 0.15469 0.28841 0.37101 0.0
H636 H 0.16238 0.20907 0.40458 0.0
H637 H 0.16606 0.23891 0.4009 0.0
H638 H 0.12984 0.27041 0.42369 0.0
C639 C 0.12162 0.31855 0.38701 0.0
C640 C 0.14967 0.28478 0.3828 0.0
C641 C 0.11712 0.3329 0.37879 0.0
C642 C 0.1522 0.21708 0.40596 0.0
C643 C 0.15431 0.23411 0.40384 0.0
C644 C 0.13555 0.27429 0.41232 0.0
C645 C 0.13727 0.31266 0.38576 0.0
C646 C 0.14115 0.29612 0.39246 0.0
C647 C 0.14133 0.24483 0.40542 0.0
C648 C 0.14304 0.26273 0.40205 0.0
H649 H 0.15281 0.34296 0.36122 0.0
H650 H 0.1607 0.31776 0.37566 0.0
H651 H 0.1283 0.29936 0.41547 0.0
H652 H 0.11228 0.21657 0.41388 0.0
H653 H 0.11598 0.24617 0.41026 0.0
C654 C 0.04468 0.8725 0.61994 0.0
C655 C 0.05429 0.87389 0.63411 0.0
C656 C 0.02841 0.87583 0.62079 0.0
C657 C 0.9951 0.87503 0.64934 0.0
H658 H 0.97378 0.90105 0.61584 0.0
C659 C 0.92689 0.88083 0.64908 0.0
C660 C 0.91969 0.87863 0.63353 0.0
C661 C 0.9433 0.88372 0.65031 0.0
C662 C 0.97953 0.89368 0.62525 0.0
H663 H 0.05441 0.87995 0.66027 0.0
H664 H 0.0259 0.88545 0.66177 0.0
H665 H 0.00275 0.89888 0.61549 0.0
H666 H 0.92394 0.87858 0.60704 0.0
H667 H 0.95239 0.88312 0.60919 0.0
H668 H 0.97198 0.86909 0.65867 0.0
C669 C 0.03101 0.88187 0.65002 0.0
C670 C 0.99611 0.89248 0.62505 0.0
C671 C 0.04731 0.87876 0.64913 0.0
C672 C 0.92909 0.88018 0.61924 0.0
C673 C 0.94545 0.88293 0.62046 0.0
C674 C 0.97852 0.87605 0.64944 0.0
C675 C 0.02141 0.8804 0.63586 0.0
C676 C 0.00401 0.88291 0.63692 0.0
C677 C 0.95283 0.88437 0.63602 0.0
C678 C 0.9705 0.88512 0.6372 0.0
H679 H 0.04972 0.86884 0.60818 0.0
H680 H 0.02122 0.87444 0.60973 0.0
H681 H 0.00091 0.86746 0.65856 0.0
H682 H 0.91994 0.87985 0.66032 0.0
H683 H 0.94856 0.88507 0.66247 0.0
C684 C 0.38393 0.78287 0.88789 0.0
C685 C 0.3895 0.79363 0.87549 0.0
C686 C 0.38584 0.76583 0.88635 0.0
C687 C 0.40942 0.73425 0.865 0.0
H688 H 0.37355 0.70551 0.87523 0.0
C689 C 0.41474 0.66332 0.86492 0.0
C690 C 0.40261 0.65468 0.85649 0.0
C691 C 0.41312 0.68011 0.86847 0.0
C692 C 0.38365 0.71339 0.8723 0.0
H693 H 0.40162 0.79495 0.85185 0.0
H694 H 0.40491 0.76514 0.84914 0.0
H695 H 0.37099 0.73534 0.87855 0.0
H696 H 0.37904 0.65675 0.84569 0.0
H697 H 0.37623 0.68603 0.8519 0.0
H698 H 0.42198 0.71233 0.85844 0.0
C699 C 0.39917 0.76993 0.8601 0.0
C700 C 0.38224 0.73044 0.87434 0.0
C701 C 0.3972 0.78699 0.86161 0.0
C702 C 0.38862 0.66305 0.85218 0.0
C703 C 0.38697 0.67981 0.8558 0.0
C704 C 0.41086 0.71719 0.86304 0.0
C705 C 0.39341 0.75918 0.87241 0.0
C706 C 0.39507 0.74105 0.87061 0.0
C707 C 0.3993 0.68857 0.86376 0.0
C708 C 0.39796 0.7066 0.86657 0.0
H709 H 0.37799 0.78757 0.89877 0.0
H710 H 0.38147 0.75786 0.89613 0.0
H711 H 0.41956 0.74212 0.86218 0.0
H712 H 0.42566 0.65723 0.86846 0.0
H713 H 0.42272 0.6865 0.87482 0.0
C714 C 0.45257 0.1382 0.13399 0.0
C715 C 0.4451 0.12296 0.13728 0.0
C716 C 0.46908 0.13986 0.13521 0.0
C717 C 0.5047 0.11967 0.1533 0.0
H718 H 0.52713 0.14891 0.12314 0.0
C719 C 0.57344 0.12256 0.14435 0.0
C720 C 0.58026 0.13844 0.14301 0.0
C721 C 0.55692 0.12057 0.14552 0.0
C722 C 0.52099 0.14083 0.13176 0.0
H723 H 0.4491 0.09742 0.14402 0.0
H724 H 0.478 0.10014 0.14555 0.0
H725 H 0.49848 0.14517 0.12034 0.0
H726 H 0.57515 0.16469 0.14288 0.0
H727 H 0.54637 0.16115 0.14476 0.0
H728 H 0.5275 0.115 0.1643 0.0
C729 C 0.47108 0.11095 0.1425 0.0
C730 C 0.50455 0.1387 0.13019 0.0
C731 C 0.45452 0.10934 0.14149 0.0
C732 C 0.5703 0.15228 0.14381 0.0
C733 C 0.55381 0.15028 0.14479 0.0
C734 C 0.52121 0.12164 0.15471 0.0
C735 C 0.47857 0.12628 0.13953 0.0
C736 C 0.49616 0.12818 0.141 0.0
C737 C 0.54695 0.13441 0.14521 0.0
C738 C 0.52947 0.13233 0.14402 0.0
H739 H 0.44562 0.14898 0.13088 0.0
H740 H 0.47436 0.15193 0.13312 0.0
H741 H 0.49862 0.11167 0.16201 0.0
H742 H 0.58079 0.11165 0.14382 0.0
H743 H 0.5519 0.1082 0.14582 0.0
C744 C 0.10179 0.67661 0.11433 0.0
C745 C 0.11385 0.66485 0.11632 0.0
C746 C 0.10559 0.69298 0.11064 0.0
C747 C 0.13787 0.72335 0.11541 0.0
H748 H 0.10982 0.75014 0.08857 0.0
C749 C 0.14548 0.79445 0.10637 0.0
C750 C 0.13143 0.80339 0.10906 0.0
C751 C 0.14501 0.77718 0.10543 0.0
C752 C 0.11776 0.7428 0.09608 0.0
H753 H 0.13935 0.66094 0.11536 0.0
H754 H 0.146 0.68967 0.10874 0.0
H755 H 0.10621 0.72023 0.08905 0.0
H756 H 0.10593 0.80123 0.11301 0.0
H757 H 0.10515 0.77124 0.11127 0.0
H758 H 0.14925 0.74607 0.12259 0.0
C759 C 0.13361 0.68618 0.11025 0.0
C760 C 0.1157 0.72569 0.09638 0.0
C761 C 0.12979 0.66972 0.11394 0.0
C762 C 0.11697 0.79474 0.11093 0.0
C763 C 0.11648 0.77756 0.10979 0.0
C764 C 0.14001 0.7405 0.115 0.0
C765 C 0.12154 0.69803 0.1088 0.0
C766 C 0.1254 0.71581 0.10645 0.0
C767 C 0.13046 0.76862 0.10693 0.0
C768 C 0.12966 0.75039 0.10572 0.0
H769 H 0.08938 0.67329 0.11606 0.0
H770 H 0.096 0.70181 0.10987 0.0
H771 H 0.14546 0.71611 0.1234 0.0
H772 H 0.1568 0.80077 0.10491 0.0
H773 H 0.15595 0.77055 0.10323 0.0
C774 C 0.45749 0.87975 0.35155 0.0
C775 C 0.44762 0.89278 0.35644 0.0
C776 C 0.47397 0.88194 0.35086 0.0
C777 C 0.50673 0.90572 0.36837 0.0
H778 H 0.53002 0.88965 0.33031 0.0
C779 C 0.57522 0.907 0.36742 0.0
C780 C 0.58229 0.89227 0.36204 0.0
C781 C 0.55906 0.90986 0.3645 0.0
C782 C 0.52372 0.89413 0.34106 0.0
H783 H 0.44729 0.91828 0.3647 0.0
H784 H 0.47625 0.92198 0.36383 0.0
H785 H 0.50098 0.8889 0.33014 0.0
H786 H 0.57816 0.86943 0.34859 0.0
H787 H 0.55007 0.87421 0.34384 0.0
H788 H 0.52937 0.91023 0.37966 0.0
C789 C 0.47114 0.91013 0.3604 0.0
C790 C 0.5071 0.89373 0.34093 0.0
C791 C 0.45459 0.90801 0.36087 0.0
C792 C 0.5731 0.8809 0.35292 0.0
C793 C 0.55696 0.88371 0.3501 0.0
C794 C 0.52337 0.90596 0.36857 0.0
C795 C 0.48095 0.89715 0.35524 0.0
C796 C 0.49846 0.8992 0.35472 0.0
C797 C 0.54964 0.89803 0.3562 0.0
C798 C 0.53207 0.89983 0.35506 0.0
H799 H 0.4525 0.86788 0.34801 0.0
H800 H 0.48129 0.87166 0.34707 0.0
H801 H 0.50035 0.90991 0.37919 0.0
H802 H 0.58202 0.91608 0.37436 0.0
H803 H 0.55388 0.92117 0.36909 0.0
C804 C 0.37643 0.19767 0.59647 0.0
C805 C 0.38515 0.18671 0.60639 0.0
C806 C 0.3754 0.21435 0.60071 0.0
C807 C 0.37933 0.24283 0.63596 0.0
H808 H 0.38571 0.2763 0.60223 0.0
C809 C 0.3964 0.31583 0.63285 0.0
C810 C 0.3859 0.32215 0.64475 0.0
C811 C 0.39465 0.29965 0.62711 0.0
C812 C 0.3839 0.26708 0.61177 0.0
H813 H 0.39957 0.18463 0.62857 0.0
H814 H 0.39779 0.21377 0.63594 0.0
H815 H 0.38628 0.2471 0.59462 0.0
H816 H 0.36493 0.31666 0.65948 0.0
H817 H 0.36187 0.28838 0.64942 0.0
H818 H 0.37734 0.26277 0.65318 0.0
C819 C 0.39165 0.20942 0.62496 0.0
C820 C 0.3841 0.25039 0.6074 0.0
C821 C 0.39276 0.19276 0.62067 0.0
C822 C 0.37326 0.31214 0.65036 0.0
C823 C 0.37155 0.29592 0.64468 0.0
C824 C 0.37905 0.25951 0.64031 0.0
C825 C 0.38298 0.22039 0.61501 0.0
C826 C 0.38201 0.2381 0.61949 0.0
C827 C 0.38239 0.28943 0.6332 0.0
C828 C 0.38151 0.27181 0.6283 0.0
H829 H 0.37041 0.1934 0.58539 0.0
H830 H 0.36852 0.2225 0.5929 0.0
H831 H 0.37751 0.23363 0.64551 0.0
H832 H 0.40624 0.32324 0.62824 0.0
H833 H 0.40326 0.29495 0.61837 0.0
C834 C 0.03698 0.10049 0.86593 0.0
C835 C 0.04486 0.11541 0.86215 0.0
C836 C 0.02046 0.09911 0.86422 0.0
C837 C 0.98611 0.11767 0.8431 0.0
H838 H 0.96161 0.09885 0.87918 0.0
C839 C 0.91878 0.12792 0.85058 0.0
C840 C 0.90941 0.11546 0.8579 0.0
C841 C 0.93523 0.12608 0.84914 0.0
C842 C 0.96826 0.10383 0.86883 0.0
H843 H 0.0416 0.14053 0.8535 0.0
H844 H 0.01278 0.13808 0.85053 0.0
H845 H 0.99057 0.09923 0.88071 0.0
H846 H 0.90983 0.09087 0.86852 0.0
H847 H 0.93853 0.0875 0.86567 0.0
H848 H 0.96382 0.12238 0.83124 0.0
C849 C 0.0194 0.12744 0.85471 0.0
C850 C 0.98486 0.1041 0.86975 0.0
C851 C 0.03589 0.12887 0.85654 0.0
C852 C 0.91673 0.10075 0.86294 0.0
C853 C 0.9332 0.09887 0.86141 0.0
C854 C 0.9695 0.1173 0.84212 0.0
C855 C 0.01151 0.11256 0.85856 0.0
C856 C 0.99395 0.11125 0.85702 0.0
C857 C 0.94269 0.11169 0.85488 0.0
C858 C 0.96036 0.11062 0.85509 0.0
H859 H 0.04355 0.08988 0.87025 0.0
H860 H 0.01469 0.08746 0.86717 0.0
H861 H 0.99284 0.12302 0.83298 0.0
H862 H 0.91353 0.13942 0.84657 0.0
H863 H 0.94216 0.13628 0.8442 0.0
C864 C 0.39094 0.15655 0.19558 0.0
C865 C 0.39125 0.14219 0.18579 0.0
C866 C 0.38788 0.1555 0.21253 0.0
C867 C 0.38826 0.12659 0.24768 0.0
H868 H 0.35546 0.15461 0.26598 0.0
C869 C 0.35502 0.11012 0.30725 0.0
C870 C 0.35058 0.12278 0.31815 0.0
C871 C 0.36201 0.11387 0.29207 0.0
C872 C 0.36486 0.14691 0.26117 0.0
H873 H 0.38889 0.11548 0.18615 0.0
H874 H 0.38358 0.11368 0.21569 0.0
H875 H 0.36416 0.15872 0.23749 0.0
H876 H 0.35031 0.14933 0.32182 0.0
H877 H 0.36267 0.15588 0.29524 0.0
H878 H 0.38883 0.1146 0.27122 0.0
C879 C 0.38578 0.12572 0.21028 0.0
C880 C 0.36982 0.14925 0.24485 0.0
C881 C 0.3887 0.12677 0.19334 0.0
C882 C 0.35354 0.1393 0.31366 0.0
C883 C 0.36056 0.14305 0.29842 0.0
C884 C 0.38337 0.1243 0.26401 0.0
C885 C 0.38523 0.14007 0.22003 0.0
C886 C 0.38129 0.13885 0.23783 0.0
C887 C 0.36477 0.13037 0.28742 0.0
C888 C 0.37134 0.13416 0.27081 0.0
H889 H 0.39287 0.16861 0.19012 0.0
H890 H 0.3876 0.16675 0.21979 0.0
H891 H 0.39734 0.11859 0.24267 0.0
H892 H 0.3529 0.09727 0.31031 0.0
H893 H 0.36484 0.10381 0.28378 0.0
C894 C 0.08688 0.15224 0.47306 0.0
C895 C 0.10094 0.15613 0.46444 0.0
C896 C 0.08713 0.15031 0.49025 0.0
C897 C 0.11041 0.16086 0.52742 0.0
H898 H 0.09407 0.11967 0.54535 0.0
C899 C 0.13434 0.13252 0.58704 0.0
C900 C 0.1244 0.1226 0.59695 0.0
C901 C 0.12861 0.13943 0.57244 0.0
C902 C 0.09836 0.13143 0.54068 0.0
H903 H 0.12621 0.16138 0.46707 0.0
H904 H 0.12659 0.15814 0.49699 0.0
H905 H 0.08921 0.12645 0.51643 0.0
H906 H 0.10035 0.11305 0.59985 0.0
H907 H 0.09026 0.12535 0.57437 0.0
H908 H 0.11985 0.16573 0.55152 0.0
C909 C 0.11538 0.15662 0.4905 0.0
C910 C 0.0956 0.13527 0.52409 0.0
C911 C 0.11518 0.15832 0.47334 0.0
C912 C 0.10834 0.12053 0.59241 0.0
C913 C 0.10259 0.12749 0.57777 0.0
C914 C 0.11304 0.1571 0.54404 0.0
C915 C 0.10139 0.15251 0.49911 0.0
C916 C 0.10206 0.14976 0.51719 0.0
C917 C 0.11278 0.13667 0.56741 0.0
C918 C 0.10753 0.14207 0.55072 0.0
H919 H 0.07573 0.15047 0.46652 0.0
H920 H 0.07618 0.14715 0.49663 0.0
H921 H 0.11529 0.17225 0.52245 0.0
H922 H 0.14676 0.13442 0.5902 0.0
H923 H 0.13687 0.14624 0.56468 0.0
C924 C 0.13323 0.8662 0.82832 0.0
C925 C 0.1305 0.88105 0.83682 0.0
C926 C 0.1284 0.86438 0.81188 0.0
C927 C 0.10304 0.88228 0.77907 0.0
H928 H 0.13611 0.86652 0.74975 0.0
C929 C 0.10132 0.89318 0.70867 0.0
C930 C 0.10649 0.88038 0.69831 0.0
C931 C 0.10319 0.89204 0.7258 0.0
C932 C 0.12664 0.8707 0.75776 0.0
H933 H 0.11966 0.90523 0.83508 0.0
H934 H 0.11128 0.90205 0.80642 0.0
H935 H 0.14035 0.86596 0.77952 0.0
H936 H 0.11761 0.85628 0.6978 0.0
H937 H 0.12071 0.85423 0.72768 0.0
H938 H 0.08941 0.88721 0.75727 0.0
C939 C 0.11713 0.89181 0.81245 0.0
C940 C 0.12906 0.87036 0.77483 0.0
C941 C 0.12202 0.89366 0.82886 0.0
C942 C 0.11358 0.86641 0.70543 0.0
C943 C 0.11541 0.86525 0.72256 0.0
C944 C 0.10059 0.88257 0.76198 0.0
C945 C 0.12065 0.87733 0.80365 0.0
C946 C 0.11737 0.87633 0.78566 0.0
C947 C 0.11023 0.87806 0.73294 0.0
C948 C 0.11245 0.87698 0.75112 0.0
H949 H 0.13966 0.85622 0.83414 0.0
H950 H 0.13106 0.85299 0.80547 0.0
H951 H 0.09375 0.8868 0.78713 0.0
H952 H 0.09584 0.90412 0.70356 0.0
H953 H 0.09931 0.90224 0.73342 0.0
C954 C 0.3803 0.85335 0.9513 0.0
C955 C 0.3706 0.84054 0.94508 0.0
C956 C 0.38073 0.85672 0.96823 0.0
C957 C 0.35652 0.85226 0.00557 0.0
H958 H 0.39572 0.8638 0.0284 0.0
C959 C 0.35624 0.86853 0.07458 0.0
C960 C 0.36503 0.88268 0.07909 0.0
C961 C 0.35834 0.86129 0.05908 0.0
C962 C 0.38467 0.86069 0.02217 0.0
H963 H 0.354 0.82099 0.95179 0.0
H964 H 0.35475 0.82688 0.98136 0.0
H965 H 0.39661 0.85519 -0.00055 0.0
H966 H 0.38342 0.8999 0.07118 0.0
H967 H 0.38687 0.88748 0.044 0.0
H968 H 0.34448 0.85816 0.02802 0.0
C969 C 0.36192 0.8344 0.9731 0.0
C970 C 0.38519 0.85576 0.00562 0.0
C971 C 0.36153 0.831 0.95618 0.0
C972 C 0.37646 0.88901 0.06807 0.0
C973 C 0.3785 0.88182 0.05251 0.0
C974 C 0.35599 0.85725 0.02207 0.0
C975 C 0.37142 0.84737 0.97929 0.0
C976 C 0.37109 0.85165 0.99711 0.0
C977 C 0.3692 0.8681 0.0477 0.0
C978 C 0.37004 0.86167 0.03053 0.0
H979 H 0.38745 0.86093 0.94307 0.0
H980 H 0.38802 0.86692 0.97261 0.0
H981 H 0.34543 0.84942 -0.00072 0.0
H982 H 0.34746 0.86324 0.08288 0.0
H983 H 0.35123 0.85053 0.05588 0.0
C984 C 0.39291 0.86205 0.29243 0.0
C985 C 0.39936 0.87692 0.29858 0.0
C986 C 0.39029 0.86 0.27548 0.0
C987 C 0.4009 0.87739 0.23449 0.0
H988 H 0.36007 0.85906 0.22105 0.0
C989 C 0.37223 0.89034 0.17144 0.0
C990 C 0.3636 0.87767 0.16351 0.0
C991 C 0.37863 0.88789 0.18715 0.0
C992 C 0.37165 0.86391 0.22457 0.0
H993 H 0.40836 0.90117 0.29176 0.0
H994 H 0.40356 0.89769 0.26228 0.0
H995 H 0.36738 0.85923 0.25021 0.0
H996 H 0.35541 0.85226 0.16559 0.0
H997 H 0.3666 0.848 0.19319 0.0
H998 H 0.4049 0.88257 0.20886 0.0
C999 C 0.40075 0.88752 0.2705 0.0
C1000 C 0.37585 0.86402 0.24129 0.0
C1001 C 0.40338 0.88956 0.28742 0.0
C1002 C 0.36197 0.86228 0.1714 0.0
C1003 C 0.3683 0.85986 0.18721 0.0
C1004 C 0.39669 0.87732 0.21778 0.0
C1005 C 0.39406 0.87276 0.26434 0.0
C1006 C 0.39037 0.87108 0.24647 0.0
C1007 C 0.3765 0.87273 0.19533 0.0
C1008 C 0.38187 0.8709 0.21269 0.0
H1009 H 0.38977 0.85202 0.3007 0.0
H1010 H 0.38529 0.84841 0.27111 0.0
H1011 H 0.41232 0.88262 0.23805 0.0
H1012 H 0.37375 0.90233 0.16566 0.0
H1013 H 0.38473 0.89811 0.19316 0.0
C1014 C 0.37059 0.14095 0.52387 0.0
C1015 C 0.38594 0.14154 0.53077 0.0
C1016 C 0.36853 0.14064 0.50675 0.0
C1017 C 0.3882 0.12813 0.46875 0.0
H1018 H 0.35486 0.15357 0.44778 0.0
C1019 C 0.3733 0.12029 0.39951 0.0
C1020 C 0.35697 0.11866 0.39597 0.0
C1021 C 0.37837 0.12591 0.41503 0.0
C1022 C 0.36419 0.14635 0.45346 0.0
H1023 H 0.4112 0.1424 0.52514 0.0
H1024 H 0.40755 0.14166 0.49513 0.0
H1025 H 0.36088 0.15793 0.47699 0.0
H1026 H 0.33317 0.1222 0.4057 0.0
H1027 H 0.34196 0.13166 0.4327 0.0
H1028 H 0.39109 0.11604 0.44545 0.0
C1029 C 0.39714 0.14146 0.50303 0.0
C1030 C 0.36764 0.14887 0.47016 0.0
C1031 C 0.39921 0.14193 0.52019 0.0
C1032 C 0.34584 0.1233 0.40802 0.0
C1033 C 0.35089 0.12887 0.42349 0.0
C1034 C 0.38468 0.12553 0.45205 0.0
C1035 C 0.38178 0.14079 0.49616 0.0
C1036 C 0.37943 0.13952 0.47805 0.0
C1037 C 0.36721 0.12999 0.42728 0.0
C1038 C 0.37237 0.13433 0.44432 0.0
H1039 H 0.36012 0.14067 0.53168 0.0
H1040 H 0.35655 0.13989 0.5018 0.0
H1041 H 0.39727 0.12066 0.47456 0.0
H1042 H 0.38218 0.1169 0.39045 0.0
H1043 H 0.39103 0.12684 0.4175 0.0
C1044 C 0.10527 0.10445 0.80408 0.0
C1045 C 0.10538 0.11921 0.81321 0.0
C1046 C 0.1099 0.10441 0.7875 0.0
C1047 C 0.11404 0.13149 0.75123 0.0
H1048 H 0.14115 0.09663 0.73479 0.0
C1049 C 0.14064 0.13186 0.68518 0.0
C1050 C 0.14104 0.11665 0.67683 0.0
C1051 C 0.13625 0.13256 0.70184 0.0
C1052 C 0.13342 0.10635 0.73914 0.0
H1053 H 0.11049 0.14552 0.81213 0.0
H1054 H 0.1186 0.14542 0.78318 0.0
H1055 H 0.1337 0.09703 0.7639 0.0
H1056 H 0.13678 0.09027 0.67931 0.0
H1057 H 0.12892 0.09153 0.70819 0.0
H1058 H 0.11366 0.14073 0.72643 0.0
C1059 C 0.11481 0.13391 0.78883 0.0
C1060 C 0.12918 0.10658 0.75582 0.0
C1061 C 0.11025 0.13394 0.80543 0.0
C1062 C 0.13671 0.10219 0.6854 0.0
C1063 C 0.1323 0.10289 0.702 0.0
C1064 C 0.11825 0.13123 0.73452 0.0
C1065 C 0.11466 0.11915 0.77968 0.0
C1066 C 0.11939 0.11911 0.76203 0.0
C1067 C 0.13216 0.11805 0.71047 0.0
C1068 C 0.12792 0.1186 0.72827 0.0
H1069 H 0.10156 0.0929 0.80971 0.0
H1070 H 0.1095 0.09288 0.78071 0.0
H1071 H 0.10632 0.1412 0.75563 0.0
H1072 H 0.14394 0.14322 0.67893 0.0
H1073 H 0.13639 0.14441 0.70805 0.0
C1074 C 0.12428 0.88832 0.05429 0.0
C1075 C 0.11906 0.87365 0.06189 0.0
C1076 C 0.12407 0.88983 0.03709 0.0
C1077 C 0.10739 0.87137 -0.00128 0.0
H1078 H 0.14473 0.89152 0.97876 0.0
C1079 C 0.11271 0.88688 0.92875 0.0
C1080 C 0.1278 0.88512 0.92151 0.0
C1081 C 0.11068 0.88437 0.94574 0.0
C1082 C 0.13428 0.8857 0.98411 0.0
H1083 H 0.10914 0.84919 0.0574 0.0
H1084 H 0.10903 0.85175 0.0274 0.0
H1085 H 0.14278 0.8899 0.00867 0.0
H1086 H 0.1523 0.87815 0.92608 0.0
H1087 H 0.14869 0.8734 0.95552 0.0
H1088 H 0.09912 0.86683 0.97403 0.0
C1089 C 0.11309 0.86217 0.03473 0.0
C1090 C 0.13305 0.88501 0.00129 0.0
C1091 C 0.11326 0.86067 0.05194 0.0
C1092 C 0.14057 0.87984 0.93135 0.0
C1093 C 0.13853 0.87722 0.94825 0.0
C1094 C 0.10864 0.87204 0.98149 0.0
C1095 C 0.11869 0.87668 0.02711 0.0
C1096 C 0.11962 0.87782 0.00881 0.0
C1097 C 0.1237 0.87995 0.95574 0.0
C1098 C 0.12216 0.87913 0.974 0.0
H1099 H 0.12871 0.89859 0.06161 0.0
H1100 H 0.12821 0.90128 0.0316 0.0
H1101 H 0.09683 0.86587 0.00415 0.0
H1102 H 0.10265 0.89096 0.92147 0.0
H1103 H 0.09911 0.88662 0.95115 0.0
C1104 C 0.32961 0.38373 0.13881 0.0
C1105 C 0.33872 0.39186 0.12667 0.0
C1106 C 0.31347 0.38725 0.14069 0.0
C1107 C 0.28124 0.41599 0.1284 0.0
H1108 H 0.25536 0.37607 0.12875 0.0
C1109 C 0.21544 0.41459 0.10774 0.0
C1110 C 0.20479 0.40428 0.11639 0.0
C1111 C 0.23173 0.41431 0.11125 0.0
C1112 C 0.26236 0.38737 0.12894 0.0
H1113 H 0.33833 0.41102 0.10791 0.0
H1114 H 0.31015 0.41701 0.11106 0.0
H1115 H 0.28405 0.37411 0.13186 0.0
H1116 H 0.20286 0.38581 0.13576 0.0
H1117 H 0.23125 0.38542 0.14196 0.0
H1118 H 0.25947 0.42918 0.12507 0.0
C1119 C 0.31547 0.40797 0.11919 0.0
C1120 C 0.27883 0.38625 0.13076 0.0
C1121 C 0.33164 0.40448 0.11733 0.0
C1122 C 0.21076 0.39383 0.12877 0.0
C1123 C 0.22704 0.39357 0.1323 0.0
C1124 C 0.26472 0.4171 0.12659 0.0
C1125 C 0.30609 0.39896 0.13046 0.0
C1126 C 0.28849 0.40052 0.13029 0.0
C1127 C 0.23772 0.40373 0.12351 0.0
C1128 C 0.25512 0.40277 0.12661 0.0
H1129 H 0.33475 0.37408 0.14635 0.0
H1130 H 0.30662 0.38036 0.14974 0.0
H1131 H 0.28835 0.42721 0.12815 0.0
H1132 H 0.21123 0.42279 0.09813 0.0
H1133 H 0.23967 0.42211 0.10409 0.0
C1134 C 0.69539 0.10848 0.85341 0.0
C1135 C 0.68843 0.10317 0.8683 0.0
C1136 C 0.71197 0.10898 0.8517 0.0
C1137 C 0.74913 0.10849 0.87685 0.0
H1138 H 0.76916 0.098 0.83498 0.0
C1139 C 0.81622 0.09902 0.87213 0.0
C1140 C 0.82386 0.10999 0.86118 0.0
C1141 C 0.79976 0.09667 0.87139 0.0
C1142 C 0.76366 0.10096 0.84671 0.0
H1143 H 0.69332 0.09385 0.89291 0.0
H1144 H 0.72203 0.09411 0.88976 0.0
H1145 H 0.74008 0.09734 0.83721 0.0
H1146 H 0.82041 0.12602 0.84 0.0
H1147 H 0.79156 0.12161 0.83855 0.0
H1148 H 0.77272 0.11169 0.88642 0.0
C1149 C 0.71484 0.09847 0.87956 0.0
C1150 C 0.74704 0.10071 0.848 0.0
C1151 C 0.69833 0.09823 0.88136 0.0
C1152 C 0.81485 0.11756 0.84866 0.0
C1153 C 0.79837 0.11502 0.84779 0.0
C1154 C 0.76568 0.10845 0.87563 0.0
C1155 C 0.72191 0.10395 0.86476 0.0
C1156 C 0.73956 0.10444 0.86312 0.0
C1157 C 0.79065 0.10504 0.85955 0.0
C1158 C 0.77309 0.10465 0.86059 0.0
H1159 H 0.68803 0.1124 0.84314 0.0
H1160 H 0.71696 0.1135 0.84021 0.0
H1161 H 0.74387 0.11188 0.88858 0.0
H1162 H 0.8228 0.09293 0.88188 0.0
H1163 H 0.79405 0.08877 0.88047 0.0
C1164 C 0.13517 0.45381 0.08906 0.0
C1165 C 0.14123 0.4456 0.10299 0.0
C1166 C 0.13167 0.47065 0.08981 0.0
C1167 C 0.1232 0.50376 0.11996 0.0
H1168 H 0.13185 0.53296 0.08296 0.0
C1169 C 0.11628 0.57374 0.12595 0.0
C1170 C 0.10728 0.58143 0.11352 0.0
C1171 C 0.12168 0.55763 0.12385 0.0
C1172 C 0.12931 0.52491 0.09334 0.0
H1173 H 0.1487 0.44866 0.12851 0.0
H1174 H 0.14292 0.478 0.12972 0.0
H1175 H 0.13866 0.50372 0.08097 0.0
H1176 H 0.09765 0.57857 0.08876 0.0
H1177 H 0.10714 0.55036 0.0851 0.0
H1178 H 0.11393 0.5249 0.13236 0.0
C1179 C 0.14051 0.47141 0.11832 0.0
C1180 C 0.13315 0.50817 0.0922 0.0
C1181 C 0.1439 0.45459 0.1176 0.0
C1182 C 0.1045 0.57297 0.09859 0.0
C1183 C 0.10998 0.55684 0.09647 0.0
C1184 C 0.11947 0.52046 0.12114 0.0
C1185 C 0.13424 0.47962 0.10448 0.0
C1186 C 0.13016 0.49741 0.10552 0.0
C1187 C 0.11827 0.54888 0.10926 0.0
C1188 C 0.12251 0.53122 0.10787 0.0
H1189 H 0.13295 0.44721 0.07762 0.0
H1190 H 0.12667 0.47655 0.07899 0.0
H1191 H 0.1204 0.49577 0.13032 0.0
H1192 H 0.11876 0.57995 0.13755 0.0
H1193 H 0.12828 0.5519 0.1338 0.0
C1194 C 0.67663 0.88277 0.35835 0.0
C1195 C 0.66682 0.89309 0.36781 0.0
C1196 C 0.693 0.88579 0.35742 0.0
C1197 C 0.72484 0.90484 0.38204 0.0
H1198 H 0.75078 0.89571 0.34352 0.0
C1199 C 0.79319 0.91157 0.38352 0.0
C1200 C 0.80183 0.89872 0.37617 0.0
C1201 C 0.77675 0.91266 0.38121 0.0
C1202 C 0.74369 0.89821 0.3544 0.0
H1203 H 0.66633 0.91533 0.38279 0.0
H1204 H 0.69488 0.9207 0.38099 0.0
H1205 H 0.72178 0.89515 0.3411 0.0
H1206 H 0.80001 0.87703 0.36048 0.0
H1207 H 0.77128 0.87881 0.35664 0.0
H1208 H 0.74667 0.90755 0.39544 0.0
C1209 C 0.68995 0.91008 0.37457 0.0
C1210 C 0.72709 0.89792 0.353 0.0
C1211 C 0.67358 0.90705 0.37551 0.0
C1212 C 0.7937 0.88708 0.36632 0.0
C1213 C 0.77725 0.88817 0.36401 0.0
C1214 C 0.74141 0.90513 0.38343 0.0
C1215 C 0.69991 0.89922 0.36591 0.0
C1216 C 0.71749 0.90103 0.36687 0.0
C1217 C 0.76858 0.90092 0.3715 0.0
C1218 C 0.75101 0.90162 0.36968 0.0
H1219 H 0.6718 0.87192 0.35224 0.0
H1220 H 0.70034 0.87711 0.35075 0.0
H1221 H 0.7178 0.90698 0.39304 0.0
H1222 H 0.79911 0.92079 0.3911 0.0
H1223 H 0.77044 0.92273 0.38699 0.0
C1224 C 0.87762 0.92346 0.10474 0.0
C1225 C 0.87483 0.9158 0.12007 0.0
C1226 C 0.87253 0.93962 0.10191 0.0
C1227 C 0.84571 0.97204 0.11787 0.0
H1228 H 0.87703 0.00227 0.0994 0.0
C1229 C 0.84233 0.04239 0.12667 0.0
C1230 C 0.84667 0.05265 0.11339 0.0
C1231 C 0.8444 0.02533 0.12569 0.0
C1232 C 0.86804 0.99396 0.10432 0.0
H1233 H 0.86401 0.91885 0.14423 0.0
H1234 H 0.85527 0.94697 0.13934 0.0
H1235 H 0.88271 0.97283 0.10053 0.0
H1236 H 0.8564 0.05302 0.08853 0.0
H1237 H 0.85995 0.02319 0.08681 0.0
H1238 H 0.83118 0.99323 0.122 0.0
C1239 C 0.86126 0.9405 0.12944 0.0
C1240 C 0.87129 0.97708 0.10495 0.0
C1241 C 0.86638 0.9244 0.13229 0.0
C1242 C 0.85299 0.04546 0.09902 0.0
C1243 C 0.85508 0.02838 0.09804 0.0
C1244 C 0.84245 0.98891 0.11724 0.0
C1245 C 0.86449 0.94838 0.11433 0.0
C1246 C 0.86028 0.96599 0.11202 0.0
C1247 C 0.85087 0.01814 0.1114 0.0
C1248 C 0.85371 9e-05 0.11074 0.0
H1249 H 0.88405 0.91714 0.09505 0.0
H1250 H 0.87504 0.94532 0.09007 0.0
H1251 H 0.83689 0.96375 0.12315 0.0
H1252 H 0.83744 0.04753 0.13792 0.0
H1253 H 0.84126 0.01781 0.13629 0.0
C1254 C 0.18679 0.62436 0.6139 0.0
C1255 C 0.18065 0.63343 0.60057 0.0
C1256 C 0.20304 0.62072 0.61462 0.0
C1257 C 0.24198 0.63358 0.59667 0.0
H1258 H 0.25588 0.59077 0.61229 0.0
C1259 C 0.30532 0.60914 0.5858 0.0
C1260 C 0.31313 0.60277 0.59975 0.0
C1261 C 0.28912 0.61284 0.58648 0.0
C1262 C 0.25214 0.60281 0.60801 0.0
H1263 H 0.18661 0.64553 0.57741 0.0
H1264 H 0.21465 0.63879 0.57841 0.0
H1265 H 0.22756 0.5974 0.61261 0.0
H1266 H 0.31007 0.59497 0.62524 0.0
H1267 H 0.28168 0.60121 0.62629 0.0
H1268 H 0.26655 0.63876 0.59166 0.0
C1269 C 0.20714 0.63488 0.58858 0.0
C1270 C 0.23595 0.60666 0.60826 0.0
C1271 C 0.191 0.63866 0.58795 0.0
C1272 C 0.30438 0.59991 0.6143 0.0
C1273 C 0.28814 0.6034 0.6149 0.0
C1274 C 0.25811 0.62965 0.59624 0.0
C1275 C 0.2134 0.62595 0.60195 0.0
C1276 C 0.23066 0.62205 0.60247 0.0
C1277 C 0.2804 0.61002 0.60104 0.0
C1278 C 0.26332 0.61421 0.60181 0.0
H1279 H 0.17909 0.62022 0.62383 0.0
H1280 H 0.2075 0.61397 0.6252 0.0
H1281 H 0.2384 0.6457 0.59248 0.0
H1282 H 0.31176 0.61149 0.57443 0.0
H1283 H 0.28338 0.61782 0.57559 0.0
C1284 C 0.10722 0.43147 0.3727 0.0
C1285 C 0.11069 0.42195 0.35864 0.0
C1286 C 0.11128 0.44824 0.37321 0.0
C1287 C 0.1369 0.47997 0.35362 0.0
H1288 H 0.10471 0.51026 0.36924 0.0
C1289 C 0.1418 0.55039 0.34363 0.0
C1290 C 0.13735 0.56057 0.35689 0.0
C1291 C 0.13886 0.53338 0.34421 0.0
C1292 C 0.1139 0.50196 0.36503 0.0
H1293 H 0.12156 0.42245 0.33429 0.0
H1294 H 0.12854 0.45168 0.33519 0.0
H1295 H 0.09955 0.48061 0.37012 0.0
H1296 H 0.12629 0.5609 0.38114 0.0
H1297 H 0.12133 0.53126 0.3822 0.0
H1298 H 0.15123 0.50133 0.34847 0.0
C1299 C 0.12278 0.44618 0.34585 0.0
C1300 C 0.11095 0.48497 0.36556 0.0
C1301 C 0.11869 0.42944 0.34531 0.0
C1302 C 0.12982 0.55341 0.37069 0.0
C1303 C 0.1269 0.53643 0.37127 0.0
C1304 C 0.13986 0.49696 0.35312 0.0
C1305 C 0.11893 0.4558 0.35971 0.0
C1306 C 0.12239 0.4738 0.35979 0.0
C1307 C 0.13142 0.52621 0.35806 0.0
C1308 C 0.12836 0.50815 0.35875 0.0
H1309 H 0.10111 0.42605 0.38319 0.0
H1310 H 0.10835 0.4553 0.38416 0.0
H1311 H 0.14602 0.47164 0.34929 0.0
H1312 H 0.14758 0.55553 0.33281 0.0
H1313 H 0.14228 0.52587 0.33374 0.0
C1314 C 0.37746 0.57054 0.87697 0.0
C1315 C 0.39375 0.57308 0.8738 0.0
C1316 C 0.3719 0.55507 0.88223 0.0
C1317 C 0.38467 0.51498 0.89959 0.0
H1318 H 0.35042 0.49673 0.87286 0.0
C1319 C 0.37414 0.44505 0.89256 0.0
C1320 C 0.35843 0.43912 0.89119 0.0
C1321 C 0.37727 0.46202 0.893 0.0
C1322 C 0.35979 0.5017 0.88068 0.0
H1323 H 0.41708 0.56178 0.87458 0.0
H1324 H 0.4074 0.53493 0.88377 0.0
H1325 H 0.35776 0.52574 0.86995 0.0
H1326 H 0.33363 0.44633 0.88963 0.0
H1327 H 0.33909 0.47591 0.89061 0.0
H1328 H 0.38693 0.49086 0.91009 0.0
C1329 C 0.39892 0.54481 0.88221 0.0
C1330 C 0.36397 0.51834 0.87902 0.0
C1331 C 0.40444 0.56017 0.87682 0.0
C1332 C 0.34589 0.4505 0.89056 0.0
C1333 C 0.34901 0.46746 0.89107 0.0
C1334 C 0.38044 0.49836 0.90132 0.0
C1335 C 0.38256 0.54199 0.88461 0.0
C1336 C 0.37669 0.52505 0.88818 0.0
C1337 C 0.36475 0.47342 0.89215 0.0
C1338 C 0.36819 0.49143 0.89161 0.0
H1339 H 0.36895 0.58027 0.87478 0.0
H1340 H 0.35924 0.55325 0.88412 0.0
H1341 H 0.3944 0.5199 0.90696 0.0
H1342 H 0.38406 0.43661 0.89305 0.0
H1343 H 0.38955 0.46619 0.89357 0.0
C1344 C 0.89918 0.67991 0.61796 0.0
C1345 C 0.88672 0.66855 0.62075 0.0
C1346 C 0.89598 0.69668 0.61593 0.0
C1347 C 0.86547 0.7275 0.62622 0.0
H1348 H 0.8911 0.75574 0.5979 0.0
C1349 C 0.85398 0.79747 0.61725 0.0
C1350 C 0.86752 0.80778 0.61801 0.0
C1351 C 0.85559 0.7803 0.61701 0.0
C1352 C 0.88391 0.74799 0.60593 0.0
H1353 H 0.86108 0.66574 0.6227 0.0
H1354 H 0.85547 0.69498 0.61875 0.0
H1355 H 0.89489 0.72591 0.59721 0.0
H1356 H 0.89334 0.80818 0.61939 0.0
H1357 H 0.8961 0.77823 0.61892 0.0
H1358 H 0.85447 0.74966 0.63486 0.0
C1359 C 0.86775 0.69098 0.61856 0.0
C1360 C 0.88608 0.73092 0.60555 0.0
C1361 C 0.87095 0.67421 0.6207 0.0
C1362 C 0.88267 0.80058 0.61879 0.0
C1363 C 0.88427 0.78344 0.61839 0.0
C1364 C 0.86321 0.74457 0.62649 0.0
C1365 C 0.88025 0.70246 0.6165 0.0
C1366 C 0.87705 0.72048 0.61587 0.0
C1367 C 0.87076 0.77315 0.61736 0.0
C1368 C 0.87257 0.75499 0.61652 0.0
H1369 H 0.91147 0.67597 0.61796 0.0
H1370 H 0.90593 0.70517 0.61457 0.0
H1371 H 0.85848 0.71987 0.63453 0.0
H1372 H 0.84214 0.80265 0.61664 0.0
H1373 H 0.84498 0.77264 0.61615 0.0
C1374 C 0.95557 0.1209 0.34336 0.0
C1375 C 0.94344 0.12543 0.35439 0.0
C1376 C 0.97155 0.12189 0.34815 0.0
C1377 C 0.99779 0.14326 0.3778 0.0
H1378 H 0.02816 0.1094 0.36604 0.0
C1379 C 0.06483 0.15287 0.38779 0.0
C1380 C 0.07324 0.13972 0.39489 0.0
C1381 C 0.0493 0.15055 0.38207 0.0
C1382 C 0.01979 0.1189 0.36948 0.0
H1383 H 0.93855 0.13421 0.37921 0.0
H1384 H 0.96637 0.13582 0.38758 0.0
H1385 H 0.0002 0.10609 0.35812 0.0
H1386 H 0.07211 0.11366 0.40108 0.0
H1387 H 0.04485 0.10964 0.39119 0.0
H1388 H 0.01723 0.15595 0.38938 0.0
C1389 C 0.96355 0.13173 0.37516 0.0
C1390 C 0.00383 0.11709 0.36482 0.0
C1391 C 0.9476 0.13072 0.37038 0.0
C1392 C 0.06594 0.12405 0.39569 0.0
C1393 C 0.05035 0.12172 0.38996 0.0
C1394 C 0.01372 0.14509 0.38241 0.0
C1395 C 0.97571 0.12746 0.36406 0.0
C1396 C 0.99266 0.12924 0.36896 0.0
C1397 C 0.04179 0.13503 0.38333 0.0
C1398 C 0.0249 0.13295 0.37829 0.0
H1399 H 0.95276 0.11675 0.33094 0.0
H1400 H 0.98065 0.11866 0.33927 0.0
H1401 H 0.98952 0.15293 0.38101 0.0
H1402 H 0.07015 0.16508 0.38686 0.0
H1403 H 0.04312 0.16097 0.37674 0.0
C1404 C 0.63689 0.18738 0.08652 0.0
C1405 C 0.63657 0.1801 0.1023 0.0
C1406 C 0.63804 0.20453 0.08483 0.0
C1407 C 0.64994 0.24253 0.1066 0.0
H1408 H 0.617 0.26356 0.08059 0.0
C1409 C 0.6309 0.30917 0.11797 0.0
C1410 C 0.62521 0.31883 0.10482 0.0
C1411 C 0.63511 0.29276 0.11543 0.0
C1412 C 0.62653 0.25795 0.0876 0.0
H1413 H 0.63771 0.18499 0.12865 0.0
H1414 H 0.6399 0.21491 0.12568 0.0
H1415 H 0.61933 0.23358 0.08024 0.0
H1416 H 0.62021 0.31903 0.0785 0.0
H1417 H 0.62785 0.29032 0.07399 0.0
H1418 H 0.65706 0.26681 0.11414 0.0
C1419 C 0.63925 0.20736 0.11463 0.0
C1420 C 0.62781 0.24075 0.08743 0.0
C1421 C 0.63788 0.19025 0.11633 0.0
C1422 C 0.62445 0.31188 0.08891 0.0
C1423 C 0.62875 0.29541 0.08634 0.0
C1424 C 0.64878 0.25972 0.10663 0.0
C1425 C 0.63914 0.21467 0.09888 0.0
C1426 C 0.63924 0.23288 0.0973 0.0
C1427 C 0.63386 0.28558 0.09965 0.0
C1428 C 0.63674 0.26761 0.09754 0.0
H1429 H 0.63588 0.17987 0.07547 0.0
H1430 H 0.63798 0.20988 0.07255 0.0
H1431 H 0.65901 0.23675 0.11412 0.0
H1432 H 0.63164 0.31412 0.1304 0.0
H1433 H 0.63873 0.28553 0.12603 0.0
C1434 C 0.41485 0.89337 0.88389 0.0
C1435 C 0.40901 0.87841 0.87734 0.0
C1436 C 0.42896 0.90038 0.87786 0.0
C1437 C 0.45892 0.89732 0.84402 0.0
H1438 H 0.48911 0.90769 0.87893 0.0
C1439 C 0.52583 0.88701 0.83816 0.0
C1440 C 0.53655 0.89828 0.84543 0.0
C1441 C 0.50946 0.889 0.84 0.0
C1442 C 0.48076 0.90522 0.86899 0.0
H1443 H 0.41282 0.85964 0.85862 0.0
H1444 H 0.43744 0.87166 0.84832 0.0
H1445 H 0.46114 0.90354 0.8857 0.0
H1446 H 0.53853 0.92077 0.85992 0.0
H1447 H 0.50977 0.92409 0.86335 0.0
H1448 H 0.47879 0.89809 0.82747 0.0
C1449 C 0.43111 0.87812 0.85799 0.0
C1450 C 0.46471 0.90286 0.87286 0.0
C1451 C 0.41704 0.87113 0.86401 0.0
C1452 C 0.53055 0.91185 0.85422 0.0
C1453 C 0.51412 0.91375 0.8562 0.0
C1454 C 0.47499 0.8996 0.84017 0.0
C1455 C 0.43747 0.89258 0.86514 0.0
C1456 C 0.45371 0.89829 0.8605 0.0
C1457 C 0.50343 0.90223 0.84924 0.0
C1458 C 0.48614 0.90299 0.85271 0.0
H1459 H 0.40886 0.89936 0.89409 0.0
H1460 H 0.43345 0.91164 0.88347 0.0
H1461 H 0.45068 0.89415 0.83418 0.0
H1462 H 0.53007 0.87648 0.83123 0.0
H1463 H 0.50153 0.87978 0.83469 0.0
C1464 C 0.8338 0.19643 0.86875 0.0
C1465 C 0.84866 0.18856 0.86897 0.0
C1466 C 0.83282 0.21351 0.87107 0.0
C1467 C 0.85435 0.24829 0.88976 0.0
H1468 H 0.83227 0.27573 0.858 0.0
C1469 C 0.86899 0.31679 0.88131 0.0
C1470 C 0.85712 0.32776 0.87612 0.0
C1471 C 0.86561 0.30001 0.88314 0.0
C1472 C 0.83818 0.26826 0.86722 0.0
H1473 H 0.87414 0.19242 0.87171 0.0
H1474 H 0.87239 0.22215 0.8759 0.0
H1475 H 0.83076 0.24571 0.85548 0.0
H1476 H 0.83211 0.32987 0.86977 0.0
H1477 H 0.82612 0.30049 0.87326 0.0
H1478 H 0.86191 0.2707 0.90145 0.0
C1479 C 0.86151 0.2151 0.87398 0.0
C1480 C 0.83736 0.25107 0.86571 0.0
C1481 C 0.86251 0.19811 0.87143 0.0
C1482 C 0.84155 0.32172 0.87369 0.0
C1483 C 0.83814 0.30487 0.87558 0.0
C1484 C 0.85503 0.26543 0.89138 0.0
C1485 C 0.84667 0.22294 0.87392 0.0
C1486 C 0.84583 0.24097 0.87668 0.0
C1487 C 0.85024 0.29377 0.87994 0.0
C1488 C 0.84736 0.27564 0.87983 0.0
H1489 H 0.82292 0.18939 0.86686 0.0
H1490 H 0.82124 0.21931 0.87096 0.0
H1491 H 0.86075 0.24073 0.89855 0.0
H1492 H 0.88112 0.32103 0.88332 0.0
H1493 H 0.87529 0.29183 0.8863 0.0
C1494 C 0.43131 0.11945 0.59294 0.0
C1495 C 0.41992 0.1179 0.60558 0.0
C1496 C 0.44746 0.11758 0.59639 0.0
C1497 C 0.47643 0.10256 0.62729 0.0
H1498 H 0.50324 0.13711 0.60872 0.0
C1499 C 0.54057 0.11616 0.65005 0.0
C1500 C 0.55199 0.12065 0.63814 0.0
C1501 C 0.52458 0.11418 0.64562 0.0
C1502 C 0.49599 0.12721 0.61381 0.0
H1503 H 0.41648 0.11233 0.63158 0.0
H1504 H 0.44481 0.10924 0.63764 0.0
H1505 H 0.47511 0.13604 0.60173 0.0
H1506 H 0.55568 0.12609 0.61215 0.0
H1507 H 0.52784 0.12245 0.60439 0.0
H1508 H 0.4974 0.09387 0.63953 0.0
C1509 C 0.44119 0.11179 0.62504 0.0
C1510 C 0.47985 0.1266 0.6098 0.0
C1511 C 0.42497 0.11361 0.62158 0.0
C1512 C 0.54715 0.12277 0.62165 0.0
C1513 C 0.53118 0.12075 0.61721 0.0
C1514 C 0.49264 0.10316 0.6313 0.0
C1515 C 0.45262 0.11419 0.61255 0.0
C1516 C 0.46987 0.11429 0.61651 0.0
C1517 C 0.51968 0.11662 0.62917 0.0
C1518 C 0.50258 0.11553 0.62462 0.0
H1519 H 0.4278 0.12255 0.58043 0.0
H1520 H 0.45596 0.11916 0.58643 0.0
H1521 H 0.46905 0.09286 0.63255 0.0
H1522 H 0.54391 0.11443 0.66287 0.0
H1523 H 0.51599 0.11118 0.65516 0.0
C1524 C 0.62176 0.80589 0.37415 0.0
C1525 C 0.6359 0.81407 0.36954 0.0
C1526 C 0.62127 0.78871 0.37551 0.0
C1527 C 0.64083 0.75107 0.36123 0.0
H1528 H 0.61863 0.73089 0.39821 0.0
C1529 C 0.63599 0.6804 0.36767 0.0
C1530 C 0.62069 0.67429 0.37139 0.0
C1531 C 0.63954 0.69721 0.36946 0.0
C1532 C 0.62481 0.73633 0.38777 0.0
H1533 H 0.66059 0.81059 0.36255 0.0
H1534 H 0.65967 0.7805 0.36483 0.0
H1535 H 0.62142 0.76088 0.39687 0.0
H1536 H 0.59736 0.68089 0.38067 0.0
H1537 H 0.60346 0.71015 0.38356 0.0
H1538 H 0.64384 0.7266 0.35186 0.0
C1539 C 0.64897 0.78744 0.36738 0.0
C1540 C 0.62639 0.7535 0.387 0.0
C1541 C 0.6495 0.80466 0.36611 0.0
C1542 C 0.60926 0.68519 0.37768 0.0
C1543 C 0.61279 0.70198 0.37942 0.0
C1544 C 0.63918 0.7339 0.36195 0.0
C1545 C 0.63488 0.77931 0.37221 0.0
C1546 C 0.6342 0.76106 0.3736 0.0
C1547 C 0.62786 0.70825 0.37499 0.0
C1548 C 0.63094 0.72635 0.3751 0.0
H1549 H 0.61106 0.81275 0.37688 0.0
H1550 H 0.61016 0.78277 0.37899 0.0
H1551 H 0.64678 0.75655 0.35067 0.0
H1552 H 0.64511 0.67231 0.36291 0.0
H1553 H 0.65134 0.70161 0.36622 0.0
C1554 C 0.06637 0.86605 0.13393 0.0
C1555 C 0.07546 0.87887 0.12684 0.0
C1556 C 0.05015 0.86809 0.13686 0.0
C1557 C 0.01793 0.89816 0.14119 0.0
H1558 H 0.99185 0.8626 0.12334 0.0
C1559 C 0.94914 0.90206 0.13621 0.0
C1560 C 0.94043 0.88753 0.13953 0.0
C1561 C 0.96576 0.9017 0.13515 0.0
C1562 C -0.00108 0.87254 0.12862 0.0
H1563 H 0.07485 0.90426 0.11826 0.0
H1564 H 0.0464 0.90782 0.12351 0.0
H1565 H 0.02068 0.8609 0.12176 0.0
H1566 H 0.94234 0.86132 0.1447 0.0
H1567 H 0.9712 0.86077 0.14323 0.0
H1568 H 0.99611 0.90971 0.14824 0.0
C1569 C 0.05189 0.89619 0.12671 0.0
C1570 C 0.01545 0.87156 0.12768 0.0
C1571 C 0.06816 0.89412 0.12368 0.0
C1572 C 0.94868 0.8727 0.14193 0.0
C1573 C 0.96525 0.87237 0.14101 0.0
C1574 C 0.00132 0.89908 0.14227 0.0
C1575 C 0.04266 0.88301 0.13287 0.0
C1576 C 0.02513 0.8843 0.13403 0.0
C1577 C 0.974 0.88683 0.13748 0.0
C1578 C 0.99163 0.88621 0.13608 0.0
H1579 H 0.07163 0.85419 0.13667 0.0
H1580 H 0.04335 0.85783 0.14189 0.0
H1581 H 0.02514 0.90813 0.14621 0.0
H1582 H 0.94311 0.91367 0.13428 0.0
H1583 H 0.97211 0.91302 0.13222 0.0
C1584 C 0.60453 0.88016 0.65245 0.0
C1585 C 0.6209 0.87855 0.6494 0.0
C1586 C 0.5984 0.87732 0.66827 0.0
C1587 C 0.60878 0.86109 0.71014 0.0
H1588 H 0.58005 0.89527 0.72495 0.0
C1589 C 0.58831 0.86575 0.77818 0.0
C1590 C 0.58786 0.88174 0.78492 0.0
C1591 C 0.59034 0.86347 0.76118 0.0
C1592 C 0.58812 0.88567 0.72104 0.0
H1593 H 0.64354 0.87168 0.6603 0.0
H1594 H 0.63299 0.86715 0.68782 0.0
H1595 H 0.58723 0.89369 0.69591 0.0
H1596 H 0.58924 0.90788 0.77916 0.0
H1597 H 0.59322 0.90392 0.74965 0.0
H1598 H 0.61043 0.85373 0.73547 0.0
C1599 C 0.62477 0.87036 0.67803 0.0
C1600 C 0.59203 0.88458 0.70431 0.0
C1601 C 0.63086 0.87308 0.66222 0.0
C1602 C 0.58946 0.8954 0.77434 0.0
C1603 C 0.5916 0.89312 0.75739 0.0
C1604 C 0.60496 0.86227 0.72691 0.0
C1605 C 0.60855 0.8729 0.68137 0.0
C1606 C 0.60269 0.87251 0.6987 0.0
C1607 C 0.59207 0.87713 0.75059 0.0
C1608 C 0.59487 0.87481 0.7326 0.0
H1609 H 0.59651 0.8842 0.64278 0.0
H1610 H 0.58579 0.87906 0.67034 0.0
H1611 H 0.61683 0.85149 0.70621 0.0
H1612 H 0.587 0.85497 0.78601 0.0
H1613 H 0.59045 0.85099 0.75635 0.0
C1614 C 0.86253 0.8575 0.55565 0.0
C1615 C 0.87841 0.85861 0.56104 0.0
C1616 C 0.85895 0.857 0.53879 0.0
C1617 C 0.87709 0.84918 0.49768 0.0
H1618 H 0.84026 0.87306 0.48182 0.0
C1619 C 0.866 0.8657 0.42907 0.0
C1620 C 0.85035 0.86398 0.42308 0.0
C1621 C 0.86935 0.86316 0.44579 0.0
C1622 C 0.85046 0.86616 0.4861 0.0
H1623 H 0.90301 0.86019 0.55301 0.0
H1624 H 0.89676 0.85982 0.52358 0.0
H1625 H 0.84633 0.87288 0.51126 0.0
H1626 H 0.82604 0.85766 0.42981 0.0
H1627 H 0.83191 0.85336 0.45906 0.0
H1628 H 0.88143 0.84294 0.47233 0.0
C1629 C 0.88707 0.85892 0.53236 0.0
C1630 C 0.85394 0.86602 0.50298 0.0
C1631 C 0.89065 0.85927 0.54923 0.0
C1632 C 0.83822 0.85912 0.43404 0.0
C1633 C 0.84154 0.85675 0.45079 0.0
C1634 C 0.87368 0.84946 0.48077 0.0
C1635 C 0.87117 0.85776 0.52693 0.0
C1636 C 0.86733 0.85758 0.50898 0.0
C1637 C 0.85709 0.859 0.45686 0.0
C1638 C 0.86036 0.85798 0.47482 0.0
H1639 H 0.85283 0.85683 0.56445 0.0
H1640 H 0.8466 0.85582 0.53508 0.0
H1641 H 0.88733 0.84231 0.5019 0.0
H1642 H 0.87562 0.86938 0.42091 0.0
H1643 H 0.88142 0.86508 0.45017 0.0
C1644 C 0.86868 0.14674 0.14971 0.0
C1645 C 0.87153 0.13213 0.14085 0.0
C1646 C 0.87549 0.14914 0.16533 0.0
C1647 C 0.90565 0.13311 0.19479 0.0
H1648 H 0.87372 0.14306 0.22782 0.0
C1649 C 0.91142 0.11314 0.26279 0.0
C1650 C 0.90496 0.12321 0.27519 0.0
C1651 C 0.90954 0.11721 0.24612 0.0
C1652 C 0.88291 0.14061 0.2188 0.0
H1653 H 0.88473 0.1092 0.14078 0.0
H1654 H 0.89656 0.11338 0.16794 0.0
H1655 H 0.86718 0.14568 0.19867 0.0
H1656 H 0.89204 0.14583 0.27986 0.0
H1657 H 0.88898 0.15307 0.25079 0.0
H1658 H 0.92126 0.1276 0.21496 0.0
C1659 C 0.88909 0.12299 0.16289 0.0
C1660 C 0.87915 0.14213 0.20205 0.0
C1661 C 0.88221 0.12054 0.14736 0.0
C1662 C 0.89702 0.13771 0.27059 0.0
C1663 C 0.89522 0.14184 0.25393 0.0
C1664 C 0.90944 0.13165 0.21156 0.0
C1665 C 0.88538 0.13704 0.17228 0.0
C1666 C 0.89034 0.138 0.18987 0.0
C1667 C 0.90124 0.13151 0.24148 0.0
C1668 C 0.89798 0.13498 0.22375 0.0
H1669 H 0.86055 0.15592 0.14499 0.0
H1670 H 0.87258 0.16018 0.17222 0.0
H1671 H 0.91457 0.13002 0.18565 0.0
H1672 H 0.9176 0.10187 0.26593 0.0
H1673 H 0.91413 0.10884 0.23687 0.0
C1674 C 0.60257 0.10689 0.94004 0.0
C1675 C 0.61821 0.10517 0.93415 0.0
C1676 C 0.5996 0.10763 0.95706 0.0
C1677 C 0.61658 0.09499 0.99671 0.0
H1678 H 0.59201 0.13046 0.01596 0.0
C1679 C 0.62157 0.11229 0.06518 0.0
C1680 C 0.60816 0.11831 0.07353 0.0
C1681 C 0.62087 0.10891 0.04829 0.0
C1682 C 0.59863 0.12026 0.01078 0.0
H1683 H 0.64301 0.10309 0.94147 0.0
H1684 H 0.63778 0.10426 0.97102 0.0
H1685 H 0.59425 0.12827 0.98592 0.0
H1686 H 0.5833 0.12487 0.07083 0.0
H1687 H 0.582 0.11864 0.04131 0.0
H1688 H 0.62107 0.08696 0.02144 0.0
C1689 C 0.62783 0.10496 0.96251 0.0
C1690 C 0.59994 0.11907 0.99359 0.0
C1691 C 0.63082 0.10442 0.94558 0.0
C1692 C 0.59386 0.12033 0.06472 0.0
C1693 C 0.59314 0.11686 0.0478 0.0
C1694 C 0.61516 0.09608 0.01386 0.0
C1695 C 0.6122 0.10642 0.96842 0.0
C1696 C 0.60927 0.10668 0.98644 0.0
C1697 C 0.60672 0.11134 0.03934 0.0
C1698 C 0.60651 0.10898 0.02112 0.0
H1699 H 0.59262 0.10751 0.93154 0.0
H1700 H 0.58744 0.10878 0.96134 0.0
H1701 H 0.62362 0.08514 0.99147 0.0
H1702 H 0.63279 0.11065 0.07158 0.0
H1703 H 0.63163 0.10494 0.04215 0.0
C1704 C 0.60948 0.11923 0.84471 0.0
C1705 C 0.62207 0.12861 0.85143 0.0
C1706 C 0.60319 0.12313 0.82923 0.0
C1707 C 0.61648 0.14123 0.79048 0.0
H1708 H 0.57265 0.13358 0.77715 0.0
C1709 C 0.59867 0.14086 0.72189 0.0
C1710 C 0.58894 0.12752 0.71695 0.0
C1711 C 0.60076 0.1445 0.73863 0.0
C1712 C 0.58494 0.13573 0.78068 0.0
H1713 H 0.63717 0.15017 0.84774 0.0
H1714 H 0.62614 0.157 0.82064 0.0
H1715 H 0.57947 0.13442 0.80652 0.0
H1716 H 0.57332 0.10792 0.72567 0.0
H1717 H 0.57724 0.11405 0.75491 0.0
H1718 H 0.62213 0.14185 0.76475 0.0
C1719 C 0.62128 0.1465 0.82729 0.0
C1720 C 0.58883 0.13627 0.79749 0.0
C1721 C 0.62754 0.14264 0.84284 0.0
C1722 C 0.58092 0.11825 0.72908 0.0
C1723 C 0.58307 0.12186 0.74584 0.0
C1724 C 0.61261 0.14066 0.7737 0.0
C1725 C 0.60938 0.13648 0.82012 0.0
C1726 C 0.60471 0.13862 0.80255 0.0
C1727 C 0.59322 0.13486 0.75081 0.0
C1728 C 0.59686 0.1375 0.7686 0.0
H1729 H 0.60491 0.10841 0.85107 0.0
H1730 H 0.59413 0.11507 0.82402 0.0
H1731 H 0.62887 0.1428 0.79394 0.0
H1732 H 0.60489 0.14836 0.71283 0.0
H1733 H 0.60847 0.15475 0.74204 0.0
C1734 C 0.62015 0.87607 0.43286 0.0
C1735 C 0.63219 0.86631 0.42594 0.0
C1736 C 0.61916 0.87815 0.44997 0.0
C1737 C 0.63168 0.85948 0.48947 0.0
H1738 H 0.6248 0.90336 0.50717 0.0
C1739 C 0.64399 0.87654 0.55751 0.0
C1740 C 0.63386 0.88788 0.56528 0.0
C1741 C 0.64219 0.87292 0.54073 0.0
C1742 C 0.62646 0.89098 0.50244 0.0
H1743 H 0.65264 0.85108 0.43155 0.0
H1744 H 0.65098 0.85483 0.46138 0.0
H1745 H 0.62482 0.89914 0.47734 0.0
H1746 H 0.61346 0.90376 0.56169 0.0
H1747 H 0.61021 0.89727 0.53243 0.0
H1748 H 0.63349 0.85135 0.51458 0.0
C1749 C 0.64219 0.86071 0.45359 0.0
C1750 C 0.6265 0.88857 0.48535 0.0
C1751 C 0.64321 0.85866 0.43648 0.0
C1752 C 0.62154 0.89506 0.55605 0.0
C1753 C 0.61973 0.89142 0.53926 0.0
C1754 C 0.6316 0.86188 0.50658 0.0
C1755 C 0.63016 0.87047 0.46052 0.0
C1756 C 0.62929 0.87284 0.47868 0.0
C1757 C 0.6302 0.88052 0.53135 0.0
C1758 C 0.62917 0.87769 0.51325 0.0
H1759 H 0.61145 0.88209 0.42506 0.0
H1760 H 0.60967 0.88563 0.45497 0.0
H1761 H 0.6336 0.84716 0.48469 0.0
H1762 H 0.6536 0.87079 0.56427 0.0
H1763 H 0.65056 0.8646 0.53498 0.0
C1764 C 0.84965 0.84698 0.32141 0.0
C1765 C 0.85938 0.85624 0.33218 0.0
C1766 C 0.85442 0.84414 0.30511 0.0
C1767 C 0.88858 0.84729 0.27605 0.0
H1768 H 0.85605 0.85982 0.24448 0.0
C1769 C 0.90324 0.87055 0.21048 0.0
C1770 C 0.89294 0.86617 0.19746 0.0
C1771 C 0.89951 0.86625 0.22676 0.0
C1772 C 0.86521 0.85597 0.25306 0.0
H1773 H 0.88227 0.86866 0.33471 0.0
H1774 H 0.89049 0.86382 0.30632 0.0
H1775 H 0.84911 0.85661 0.27347 0.0
H1776 H 0.87087 0.85345 0.19126 0.0
H1777 H 0.86446 0.84583 0.21963 0.0
H1778 H 0.90477 0.84712 0.25562 0.0
C1779 C 0.87921 0.8587 0.31043 0.0
C1780 C 0.86122 0.8541 0.2697 0.0
C1781 C 0.87444 0.86157 0.32669 0.0
C1782 C 0.87899 0.85714 0.20103 0.0
C1783 C 0.87529 0.85281 0.21729 0.0
C1784 C 0.89257 0.84914 0.25938 0.0
C1785 C 0.86903 0.85044 0.29931 0.0
C1786 C 0.87292 0.85007 0.28143 0.0
C1787 C 0.88544 0.85743 0.23036 0.0
C1788 C 0.88099 0.85384 0.24776 0.0
H1789 H 0.83802 0.84259 0.3253 0.0
H1790 H 0.84643 0.83751 0.29688 0.0
H1791 H 0.89781 0.84399 0.28479 0.0
H1792 H 0.91408 0.8775 0.20815 0.0
H1793 H 0.90747 0.87022 0.23657 0.0
C1794 C 0.88997 0.13957 0.92893 0.0
C1795 C 0.87655 0.13648 0.91897 0.0
C1796 C 0.88905 0.13784 0.94611 0.0
C1797 C 0.86426 0.11864 0.97896 0.0
H1798 H 0.88575 0.15023 0.00756 0.0
C1799 C 0.85107 0.12206 0.04837 0.0
C1800 C 0.86434 0.12206 0.05898 0.0
C1801 C 0.85299 0.12461 0.03143 0.0
C1802 C 0.87979 0.14127 -0.0003 0.0
H1803 H 0.85161 0.12925 0.91922 0.0
H1804 H 0.8499 0.12661 0.94908 0.0
H1805 H 0.88839 0.15274 0.97756 0.0
H1806 H 0.88997 0.12549 0.06023 0.0
H1807 H 0.89329 0.1301 0.03053 0.0
H1808 H 0.85543 0.10737 0.00108 0.0
C1809 C 0.86126 0.13 0.94367 0.0
C1810 C 0.88134 0.14265 0.98253 0.0
C1811 C 0.86221 0.1316 0.92652 0.0
C1812 C 0.87952 0.12536 0.05237 0.0
C1813 C 0.88142 0.12805 0.03539 0.0
C1814 C 0.8626 0.11737 0.99607 0.0
C1815 C 0.87466 0.13308 0.95369 0.0
C1816 C 0.87351 0.13139 0.97195 0.0
C1817 C 0.86821 0.12734 0.02474 0.0
C1818 C 0.87026 0.12872 0.0066 0.0
H1819 H 0.90121 0.14329 0.92347 0.0
H1820 H 0.89966 0.14009 0.95343 0.0
H1821 H 0.85836 0.10954 0.97122 0.0
H1822 H 0.8392 0.11963 0.05305 0.0
H1823 H 0.84258 0.12425 0.02351 0.0
C1824 C 0.79742 0.60764 0.86061 0.0
C1825 C 0.80694 0.62087 0.86625 0.0
C1826 C 0.78091 0.60923 0.85953 0.0
C1827 C 0.74657 0.61246 0.87058 0.0
H1828 H 0.72666 0.65317 0.85653 0.0
C1829 C 0.68287 0.62996 0.88899 0.0
C1830 C 0.67331 0.63817 0.87738 0.0
C1831 C 0.69877 0.6266 0.88549 0.0
C1832 C 0.73202 0.64164 0.86028 0.0
H1833 H 0.80663 0.6463 0.87469 0.0
H1834 H 0.77781 0.64902 0.87298 0.0
H1835 H 0.7554 0.65003 0.85366 0.0
H1836 H 0.67282 0.64884 0.85278 0.0
H1837 H 0.70065 0.64291 0.84664 0.0
H1838 H 0.72322 0.6041 0.87729 0.0
C1839 C 0.78313 0.63747 0.86923 0.0
C1840 C 0.74849 0.63991 0.85881 0.0
C1841 C 0.79964 0.63587 0.87032 0.0
C1842 C 0.67989 0.64256 0.86201 0.0
C1843 C 0.69584 0.63924 0.85852 0.0
C1844 C 0.73011 0.6142 0.87208 0.0
C1845 C 0.77357 0.6241 0.86404 0.0
C1846 C 0.75597 0.62541 0.8642 0.0
C1847 C 0.70549 0.63139 0.8703 0.0
C1848 C 0.7227 0.62891 0.86721 0.0
H1849 H 0.80269 0.59594 0.85727 0.0
H1850 H 0.77388 0.59878 0.85528 0.0
H1851 H 0.75198 0.60118 0.87497 0.0
H1852 H 0.67816 0.62639 0.90095 0.0
H1853 H 0.70594 0.62072 0.8949 0.0
C1854 C 0.28716 0.88549 0.15378 0.0
C1855 C 0.29451 0.89267 0.1399 0.0
C1856 C 0.27064 0.88312 0.15416 0.0
C1857 C 0.23597 0.87998 0.12596 0.0
H1858 H 0.21128 0.88542 0.16607 0.0
C1859 C 0.16797 0.8781 0.12458 0.0
C1860 C 0.16065 0.86724 0.13588 0.0
C1861 C 0.18398 0.88243 0.12632 0.0
C1862 C 0.21807 0.88379 0.15482 0.0
H1863 H 0.29026 0.90355 0.11579 0.0
H1864 H 0.26154 0.89984 0.11662 0.0
H1865 H 0.24004 0.8906 0.16659 0.0
H1866 H 0.16419 0.85321 0.15842 0.0
H1867 H 0.19228 0.86091 0.16148 0.0
H1868 H 0.21405 0.87335 0.11416 0.0
C1869 C 0.26851 0.89557 0.12703 0.0
C1870 C 0.23453 0.88669 0.15511 0.0
C1871 C 0.28499 0.89778 0.12659 0.0
C1872 C 0.1695 0.86154 0.14948 0.0
C1873 C 0.18555 0.86598 0.15127 0.0
C1874 C 0.21957 0.87724 0.12565 0.0
C1875 C 0.26114 0.888 0.14071 0.0
C1876 C 0.24366 0.88487 0.14065 0.0
C1877 C 0.19304 0.8761 0.13944 0.0
C1878 C 0.21044 0.87918 0.14004 0.0
H1879 H 0.2942 0.8814 0.16422 0.0
H1880 H 0.26539 0.8771 0.16482 0.0
H1881 H 0.24265 0.87804 0.11469 0.0
H1882 H 0.16148 0.88283 0.11403 0.0
H1883 H 0.1894 0.89047 0.11717 0.0
C1884 C 0.88246 0.54215 0.87528 0.0
C1885 C 0.86974 0.55215 0.88021 0.0
C1886 C 0.88292 0.52553 0.87988 0.0
C1887 C 0.85636 0.4914 0.89248 0.0
H1888 H 0.89638 0.4691 0.90002 0.0
C1889 C 0.88433 0.42164 0.90262 0.0
C1890 C 0.87611 0.41352 0.88978 0.0
C1891 C 0.88204 0.43849 0.90545 0.0
C1892 C 0.88504 0.47514 0.89828 0.0
H1893 H 0.84782 0.55273 0.89439 0.0
H1894 H 0.84876 0.52381 0.90264 0.0
H1895 H 0.89604 0.49906 0.89781 0.0
H1896 H 0.85823 0.41646 0.87062 0.0
H1897 H 0.85447 0.44574 0.87534 0.0
H1898 H 0.84537 0.46747 0.89292 0.0
C1899 C 0.85822 0.52872 0.89493 0.0
C1900 C 0.88489 0.49231 0.89675 0.0
C1901 C 0.85772 0.54531 0.89025 0.0
C1902 C 0.86482 0.42234 0.88056 0.0
C1903 C 0.86257 0.43916 0.88335 0.0
C1904 C 0.8565 0.47423 0.89409 0.0
C1905 C 0.87072 0.51857 0.88962 0.0
C1906 C 0.87062 0.50061 0.89337 0.0
C1907 C 0.8715 0.44755 0.8955 0.0
C1908 C 0.8709 0.46586 0.89653 0.0
H1909 H 0.8919 0.54703 0.86753 0.0
H1910 H 0.89259 0.51803 0.87535 0.0
H1911 H 0.84515 0.49736 0.88979 0.0
H1912 H 0.89301 0.41516 0.91004 0.0
H1913 H 0.88889 0.44454 0.9151 0.0
C1914 C 0.21655 0.11292 0.65101 0.0
C1915 C 0.20659 0.10656 0.63852 0.0
C1916 C 0.233 0.11415 0.64851 0.0
C1917 C 0.26276 0.11565 0.61486 0.0
H1918 H 0.29298 0.107 0.65006 0.0
C1919 C 0.32975 0.11505 0.60225 0.0
C1920 C 0.33909 0.12486 0.61291 0.0
C1921 C 0.31405 0.11106 0.60633 0.0
C1922 C 0.28465 0.1095 0.64015 0.0
H1923 H 0.2061 0.09606 0.61382 0.0
H1924 H 0.23468 0.09787 0.60963 0.0
H1925 H 0.26444 0.10371 0.65528 0.0
H1926 H 0.33958 0.13731 0.63669 0.0
H1927 H 0.31209 0.1303 0.64379 0.0
H1928 H 0.28289 0.12141 0.59974 0.0
C1929 C 0.22982 0.10231 0.62119 0.0
C1930 C 0.26832 0.10769 0.64314 0.0
C1931 C 0.21342 0.10121 0.62362 0.0
C1932 C 0.33267 0.12979 0.62817 0.0
C1933 C 0.31695 0.12573 0.63228 0.0
C1934 C 0.27903 0.11734 0.61186 0.0
C1935 C 0.23981 0.10895 0.63352 0.0
C1936 C 0.25719 0.11075 0.63051 0.0
C1937 C 0.30736 0.11672 0.62118 0.0
C1938 C 0.29015 0.11429 0.62445 0.0
H1939 H 0.21164 0.11716 0.66262 0.0
H1940 H 0.24033 0.1195 0.6582 0.0
H1941 H 0.25453 0.11848 0.60495 0.0
H1942 H 0.33436 0.11093 0.59046 0.0
H1943 H 0.30699 0.10385 0.59767 0.0
C1944 C 0.15227 0.96412 0.88481 0.0
C1945 C 0.13865 0.95467 0.88866 0.0
C1946 C 0.15199 0.98133 0.88595 0.0
C1947 C 0.12962 0.01626 0.90375 0.0
H1948 H 0.14621 0.04026 0.86594 0.0
C1949 C 0.11075 0.08235 0.88709 0.0
C1950 C 0.12175 0.09286 0.87917 0.0
C1951 C 0.11486 0.06616 0.89106 0.0
C1952 C 0.14182 0.03383 0.87678 0.0
H1953 H 0.11418 0.95585 0.89715 0.0
H1954 H 0.11365 0.98589 0.89897 0.0
H1955 H 0.14953 0.01051 0.86749 0.0
H1956 H 0.14604 0.095 0.87027 0.0
H1957 H 0.15329 0.0668 0.87747 0.0
H1958 H 0.1216 0.03959 0.91286 0.0
C1959 C 0.1246 0.97998 0.89523 0.0
C1960 C 0.1437 0.01675 0.87764 0.0
C1961 C 0.12487 0.96277 0.89406 0.0
C1962 C 0.13724 0.08716 0.87621 0.0
C1963 C 0.14137 0.07097 0.88025 0.0
C1964 C 0.12778 0.03338 0.90292 0.0
C1965 C 0.1381 0.98945 0.89101 0.0
C1966 C 0.13737 0.00774 0.89098 0.0
C1967 C 0.13008 0.06014 0.88728 0.0
C1968 C 0.13361 0.04232 0.88927 0.0
H1969 H 0.16311 0.95825 0.88071 0.0
H1970 H 0.16263 0.98829 0.88279 0.0
H1971 H 0.12482 0.00966 0.91431 0.0
H1972 H 0.09872 0.08636 0.88957 0.0
H1973 H 0.10582 0.05812 0.89632 0.0
C1974 C 0.83192 0.35817 0.3628 0.0
C1975 C 0.83888 0.3583 0.37861 0.0
C1976 C 0.81714 0.36556 0.36015 0.0
C1977 C 0.78815 0.39463 0.37832 0.0
H1978 H 0.75679 0.3673 0.35578 0.0
C1979 C 0.72066 0.40437 0.38536 0.0
C1980 C 0.71085 0.40174 0.3715 0.0
C1981 C 0.73689 0.40081 0.38464 0.0
C1982 C 0.76545 0.37524 0.36185 0.0
H1983 H 0.83619 0.36697 0.40385 0.0
H1984 H 0.81048 0.37978 0.39924 0.0
H1985 H 0.7844 0.35846 0.35696 0.0
H1986 H 0.71045 0.39371 0.34589 0.0
H1987 H 0.7388 0.38767 0.34461 0.0
H1988 H 0.76912 0.41126 0.38348 0.0
C1989 C 0.81642 0.37404 0.38886 0.0
C1990 C 0.78128 0.37017 0.36251 0.0
C1991 C 0.83112 0.36659 0.39153 0.0
C1992 C 0.71767 0.39577 0.35683 0.0
C1993 C 0.7339 0.39224 0.3561 0.0
C1994 C 0.77232 0.39972 0.37762 0.0
C1995 C 0.80913 0.37333 0.37323 0.0
C1996 C 0.79275 0.37967 0.371 0.0
C1997 C 0.74367 0.39459 0.37005 0.0
C1998 C 0.76073 0.38994 0.36963 0.0
H1999 H 0.83762 0.35192 0.35258 0.0
H2000 H 0.81188 0.36497 0.34793 0.0
H2001 H 0.79678 0.40231 0.38476 0.0
H2002 H 0.71578 0.40895 0.39685 0.0
H2003 H 0.74403 0.40254 0.39568 0.0
C2004 C 0.84737 0.45487 0.61808 0.0
C2005 C 0.85866 0.44509 0.60992 0.0
C2006 C 0.84862 0.47205 0.61779 0.0
C2007 C 0.86834 0.50736 0.59671 0.0
H2008 H 0.8614 0.52906 0.63882 0.0
C2009 C 0.89035 0.57352 0.61233 0.0
C2010 C 0.88083 0.58321 0.62276 0.0
C2011 C 0.88592 0.55727 0.60858 0.0
C2012 C 0.86311 0.52326 0.62688 0.0
H2013 H 0.87986 0.44569 0.59465 0.0
H2014 H 0.88225 0.47578 0.59444 0.0
H2015 H 0.85714 0.49947 0.63649 0.0
H2016 H 0.85865 0.58384 0.63647 0.0
H2017 H 0.85085 0.55556 0.62977 0.0
H2018 H 0.87472 0.53127 0.58727 0.0
C2019 C 0.8723 0.47013 0.60086 0.0
C2020 C 0.86068 0.50627 0.62555 0.0
C2021 C 0.87098 0.45289 0.60107 0.0
C2022 C 0.86634 0.57664 0.62855 0.0
C2023 C 0.8619 0.56042 0.62478 0.0
C2024 C 0.87083 0.52442 0.59806 0.0
C2025 C 0.86126 0.47988 0.60944 0.0
C2026 C 0.86332 0.49809 0.61048 0.0
C2027 C 0.87186 0.5504 0.61516 0.0
C2028 C 0.8683 0.53253 0.6132 0.0
H2029 H 0.8376 0.44925 0.62485 0.0
H2030 H 0.83973 0.4792 0.62424 0.0
H2031 H 0.87032 0.50145 0.58488 0.0
H2032 H 0.90158 0.57822 0.60763 0.0
H2033 H 0.89389 0.54984 0.60122 0.0
C2034 C 0.63064 0.53612 0.10874 0.0
C2035 C 0.6463 0.54236 0.10831 0.0
C2036 C 0.62753 0.51955 0.10502 0.0
C2037 C 0.64562 0.47933 0.10733 0.0
H2038 H 0.61121 0.4652 0.07843 0.0
C2039 C 0.63002 0.41062 0.10152 0.0
C2040 C 0.61371 0.40665 0.10184 0.0
C2041 C 0.63508 0.42684 0.09862 0.0
C2042 C 0.62079 0.46892 0.08663 0.0
H2043 H 0.67095 0.53623 0.10346 0.0
H2044 H 0.66552 0.50714 0.09734 0.0
H2045 H 0.61774 0.49457 0.08088 0.0
H2046 H 0.58993 0.41635 0.09857 0.0
H2047 H 0.59865 0.44469 0.09419 0.0
H2048 H 0.64819 0.45401 0.11392 0.0
C2049 C 0.65568 0.51514 0.10043 0.0
C2050 C 0.62455 0.48573 0.08796 0.0
C2051 C 0.65876 0.53177 0.1039 0.0
C2052 C 0.60259 0.41902 0.09833 0.0
C2053 C 0.60763 0.4353 0.09574 0.0
C2054 C 0.64171 0.46258 0.10621 0.0
C2055 C 0.64005 0.50888 0.10103 0.0
C2056 C 0.63686 0.49107 0.09848 0.0
C2057 C 0.62392 0.43951 0.09631 0.0
C2058 C 0.6291 0.45715 0.09603 0.0
H2059 H 0.62078 0.54402 0.11202 0.0
H2060 H 0.61539 0.51497 0.10572 0.0
H2061 H 0.65505 0.48317 0.11567 0.0
H2062 H 0.63886 0.40127 0.10398 0.0
H2063 H 0.64773 0.42951 0.09869 0.0
C2064 C 0.62777 0.70664 0.88944 0.0
C2065 C 0.61535 0.69835 0.89772 0.0
C2066 C 0.62653 0.72342 0.88568 0.0
C2067 C 0.5967 0.75572 0.87925 0.0
H2068 H 0.63292 0.78555 0.88317 0.0
C2069 C 0.59081 0.8251 0.86623 0.0
C2070 C 0.60273 0.8323 0.85633 0.0
C2071 C 0.59279 0.80933 0.87283 0.0
C2072 C 0.62274 0.77733 0.88191 0.0
H2073 H 0.59205 0.70124 0.90886 0.0
H2074 H 0.58995 0.73054 0.90241 0.0
H2075 H 0.6355 0.75678 0.89179 0.0
H2076 H 0.62631 0.82882 0.84605 0.0
H2077 H 0.6297 0.80118 0.85744 0.0
H2078 H 0.58399 0.77615 0.86919 0.0
C2079 C 0.60055 0.72401 0.89863 0.0
C2080 C 0.62421 0.76087 0.88683 0.0
C2081 C 0.60178 0.70724 0.90238 0.0
C2082 C 0.6169 0.82361 0.85362 0.0
C2083 C 0.61888 0.80781 0.86022 0.0
C2084 C 0.59523 0.77215 0.87433 0.0
C2085 C 0.61286 0.73225 0.89013 0.0
C2086 C 0.61122 0.74988 0.88548 0.0
C2087 C 0.60673 0.80039 0.86967 0.0
C2088 C 0.60824 0.78312 0.87554 0.0
H2089 H 0.63838 0.70014 0.88567 0.0
H2090 H 0.63613 0.72937 0.87896 0.0
H2091 H 0.58656 0.7475 0.87778 0.0
H2092 H 0.5798 0.83153 0.86868 0.0
H2093 H 0.58333 0.80407 0.88031 0.0
C2094 C 0.54984 0.38215 0.14145 0.0
C2095 C 0.55951 0.36895 0.13657 0.0
C2096 C 0.53328 0.38029 0.14191 0.0
C2097 C 0.50067 0.35353 0.12585 0.0
H2098 H 0.47587 0.37443 0.16034 0.0
C2099 C 0.43451 0.33857 0.13469 0.0
C2100 C 0.42435 0.35227 0.13511 0.0
C2101 C 0.45093 0.34068 0.13638 0.0
C2102 C 0.48267 0.3686 0.15062 0.0
H2103 H 0.55946 0.34335 0.12863 0.0
H2104 H 0.5307 0.33994 0.12988 0.0
H2105 H 0.50482 0.37792 0.16004 0.0
H2106 H 0.42337 0.37882 0.13861 0.0
H2107 H 0.45218 0.38245 0.14175 0.0
H2108 H 0.47856 0.344 0.11661 0.0
C2109 C 0.5358 0.3519 0.13293 0.0
C2110 C 0.49923 0.37064 0.15038 0.0
C2111 C 0.55232 0.35382 0.13229 0.0
C2112 C 0.43089 0.36803 0.13817 0.0
C2113 C 0.44736 0.37011 0.14002 0.0
C2114 C 0.48419 0.35134 0.12621 0.0
C2115 C 0.52605 0.36513 0.13766 0.0
C2116 C 0.50844 0.3631 0.13799 0.0
C2117 C 0.45754 0.3565 0.13868 0.0
C2118 C 0.47504 0.35882 0.1386 0.0
H2119 H 0.55504 0.39399 0.14475 0.0
H2120 H 0.52615 0.39082 0.14537 0.0
H2121 H 0.5073 0.34786 0.11591 0.0
H2122 H 0.42987 0.32625 0.13245 0.0
H2123 H 0.45851 0.32995 0.13556 0.0
C2124 C 0.85227 0.16203 0.34114 0.0
C2125 C 0.86658 0.15485 0.34643 0.0
C2126 C 0.84676 0.1765 0.34857 0.0
C2127 C 0.85334 0.2046 0.38461 0.0
H2128 H 0.84207 0.23893 0.35338 0.0
C2129 C 0.86519 0.27335 0.39606 0.0
C2130 C 0.85372 0.2849 0.39118 0.0
C2131 C 0.86308 0.25661 0.39252 0.0
C2132 C 0.84488 0.22941 0.36231 0.0
H2133 H 0.88585 0.15671 0.36428 0.0
H2134 H 0.87647 0.18194 0.37695 0.0
H2135 H 0.84464 0.21054 0.34382 0.0
H2136 H 0.83089 0.28795 0.37902 0.0
H2137 H 0.82736 0.25858 0.37254 0.0
H2138 H 0.85445 0.22373 0.40289 0.0
C2139 C 0.86934 0.17637 0.36723 0.0
C2140 C 0.84631 0.21312 0.35685 0.0
C2141 C 0.87481 0.16195 0.35984 0.0
C2142 C 0.83994 0.27932 0.38294 0.0
C2143 C 0.83792 0.26256 0.3792 0.0
C2144 C 0.85203 0.2209 0.39002 0.0
C2145 C 0.85545 0.18405 0.36145 0.0
C2146 C 0.85108 0.20061 0.36783 0.0
C2147 C 0.84953 0.25107 0.38388 0.0
C2148 C 0.84827 0.23353 0.37882 0.0
H2149 H 0.8456 0.15679 0.33091 0.0
H2150 H 0.83591 0.182 0.34398 0.0
H2151 H 0.85669 0.1952 0.39345 0.0
H2152 H 0.8759 0.27724 0.4025 0.0
H2153 H 0.87233 0.24807 0.39608 0.0
C2154 C 0.96662 0.59338 0.62831 0.0
C2155 C 0.95846 0.60732 0.63409 0.0
C2156 C 0.98316 0.59238 0.62997 0.0
C2157 C 0.01734 0.60942 0.6532 0.0
H2158 H 0.0414 0.60009 0.61346 0.0
C2159 C 0.08177 0.63143 0.6436 0.0
C2160 C 0.0918 0.62255 0.633 0.0
C2161 C 0.06613 0.62613 0.64631 0.0
C2162 C 0.03495 0.60232 0.62482 0.0
H2163 H 0.9612 0.63098 0.64647 0.0
H2164 H 0.99001 0.62919 0.64937 0.0
H2165 H 0.01256 0.59727 0.61311 0.0
H2166 H 0.09376 0.60038 0.61809 0.0
H2167 H 0.06659 0.59089 0.62318 0.0
H2168 H 0.03969 0.61476 0.66486 0.0
C2169 C 0.98362 0.61901 0.64362 0.0
C2170 C 0.01838 0.60076 0.62457 0.0
C2171 C 0.96714 0.6201 0.64181 0.0
C2172 C 0.08626 0.60761 0.62617 0.0
C2173 C 0.07064 0.60222 0.629 0.0
C2174 C 0.03393 0.61085 0.65351 0.0
C2175 C 0.9918 0.6052 0.63763 0.0
C2176 C 0.0094 0.60472 0.63862 0.0
C2177 C 0.06021 0.61175 0.6386 0.0
C2178 C 0.04291 0.60776 0.63918 0.0
H2179 H 0.96026 0.58331 0.62234 0.0
H2180 H 0.98919 0.58157 0.62528 0.0
H2181 H 0.01069 0.61231 0.66429 0.0
H2182 H 0.08568 0.64299 0.64908 0.0
H2183 H 0.05843 0.63387 0.65366 0.0
C2184 C 0.61534 0.29786 0.62359 0.0
C2185 C 0.61518 0.3027 0.60691 0.0
C2186 C 0.61723 0.28127 0.62782 0.0
C2187 C 0.60988 0.23974 0.6136 0.0
H2188 H 0.64259 0.22707 0.6449 0.0
C2189 C 0.61584 0.1721 0.63414 0.0
C2190 C 0.61878 0.16952 0.65104 0.0
C2191 C 0.6177 0.18783 0.62724 0.0
C2192 C 0.63328 0.23039 0.63628 0.0
H2193 H 0.61658 0.29401 0.58158 0.0
H2194 H 0.61938 0.26486 0.58905 0.0
H2195 H 0.64059 0.25583 0.63619 0.0
H2196 H 0.6265 0.18122 0.67385 0.0
H2197 H 0.62913 0.20864 0.66207 0.0
H2198 H 0.60191 0.21465 0.61427 0.0
C2199 C 0.61826 0.27398 0.59878 0.0
C2200 C 0.63221 0.24684 0.63125 0.0
C2201 C 0.61669 0.29061 0.59454 0.0
C2202 C 0.62421 0.18279 0.66076 0.0
C2203 C 0.62581 0.19855 0.65394 0.0
C2204 C 0.61073 0.22334 0.61885 0.0
C2205 C 0.61868 0.26921 0.61545 0.0
C2206 C 0.6204 0.25166 0.62001 0.0
C2207 C 0.62228 0.20136 0.63716 0.0
C2208 C 0.62233 0.21848 0.63042 0.0
H2209 H 0.61428 0.30692 0.63338 0.0
H2210 H 0.61739 0.27783 0.64077 0.0
H2211 H 0.6006 0.24324 0.60498 0.0
H2212 H 0.61178 0.16205 0.62631 0.0
H2213 H 0.61524 0.18942 0.61419 0.0
C2214 C 0.06176 0.36195 0.8456 0.0
C2215 C 0.06889 0.37147 0.85817 0.0
C2216 C 0.04529 0.36224 0.84323 0.0
C2217 C 0.00856 0.38507 0.8532 0.0
H2218 H 0.98865 0.34173 0.85056 0.0
C2219 C 0.94129 0.37474 0.86397 0.0
C2220 C 0.93339 0.36318 0.85382 0.0
C2221 C 0.95785 0.37637 0.86342 0.0
C2222 C 0.994 0.35395 0.85104 0.0
H2223 H 0.06445 0.38951 0.87744 0.0
H2224 H 0.03572 0.38998 0.8733 0.0
H2225 H 0.01755 0.34414 0.85056 0.0
H2226 H 0.93668 0.34436 0.83505 0.0
H2227 H 0.96552 0.34736 0.83394 0.0
H2228 H 0.98497 0.39486 0.8538 0.0
C2229 C 0.04285 0.38232 0.86527 0.0
C2230 C 0.01057 0.35533 0.85102 0.0
C2231 C 0.05932 0.38199 0.86769 0.0
C2232 C 0.94241 0.35331 0.84311 0.0
C2233 C 0.95895 0.35499 0.84251 0.0
C2234 C 0.99196 0.38369 0.85316 0.0
C2235 C 0.03563 0.37211 0.85332 0.0
C2236 C 0.01803 0.37088 0.85222 0.0
C2237 C 0.96687 0.36653 0.85266 0.0
C2238 C 0.9845 0.3681 0.8522 0.0
H2239 H 0.0688 0.35379 0.83798 0.0
H2240 H 0.04006 0.35444 0.83374 0.0
H2241 H 0.01399 0.39723 0.85399 0.0
H2242 H 0.93468 0.38251 0.87239 0.0
H2243 H 0.96361 0.3852 0.87158 0.0
C2244 C 0.86407 0.70097 0.12829 0.0
C2245 C 0.859 0.69246 0.11406 0.0
C2246 C 0.86215 0.71805 0.1295 0.0
C2247 C 0.85798 0.75493 0.10348 0.0
H2248 H 0.84778 0.77603 0.14515 0.0
C2249 C 0.84998 0.82404 0.13463 0.0
C2250 C 0.8641 0.83149 0.12887 0.0
C2251 C 0.84657 0.80751 0.13102 0.0
C2252 C 0.85039 0.77035 0.13334 0.0
H2253 H 0.84747 0.69512 0.09016 0.0
H2254 H 0.84402 0.72488 0.09238 0.0
H2255 H 0.84676 0.74601 0.14304 0.0
H2256 H 0.88518 0.82775 0.11387 0.0
H2257 H 0.8793 0.79894 0.1077 0.0
H2258 H 0.86173 0.77927 0.09383 0.0
C2259 C 0.84968 0.71839 0.10248 0.0
C2260 C 0.85001 0.75314 0.1322 0.0
C2261 C 0.85161 0.70132 0.10126 0.0
C2262 C 0.87423 0.82237 0.11857 0.0
C2263 C 0.87081 0.80586 0.11494 0.0
C2264 C 0.85838 0.77214 0.10463 0.0
C2265 C 0.8551 0.72697 0.11653 0.0
C2266 C 0.85409 0.74524 0.11735 0.0
C2267 C 0.85718 0.79812 0.12152 0.0
C2268 C 0.85487 0.78002 0.11965 0.0
H2269 H 0.86981 0.69451 0.13836 0.0
H2270 H 0.86662 0.72434 0.14041 0.0
H2271 H 0.8613 0.74921 0.09189 0.0
H2272 H 0.84186 0.83077 0.1425 0.0
H2273 H 0.83584 0.80194 0.13603 0.0
C2274 C 0.42112 0.59709 0.38194 0.0
C2275 C 0.41398 0.61124 0.37526 0.0
C2276 C 0.43721 0.59385 0.37899 0.0
C2277 C 0.472 0.60699 0.35327 0.0
H2278 H 0.49637 0.5948 0.39211 0.0
C2279 C 0.53843 0.62232 0.36096 0.0
C2280 C 0.54846 0.60973 0.36665 0.0
C2281 C 0.52194 0.62005 0.36085 0.0
C2282 C 0.4897 0.59798 0.38111 0.0
H2283 H 0.4179 0.6326 0.35953 0.0
H2284 H 0.44585 0.62721 0.35473 0.0
H2285 H 0.46736 0.59464 0.39334 0.0
H2286 H 0.54908 0.58498 0.3769 0.0
H2287 H 0.52011 0.5812 0.37705 0.0
H2288 H 0.49445 0.61111 0.34135 0.0
C2289 C 0.43908 0.61842 0.36204 0.0
C2290 C 0.47307 0.59782 0.38176 0.0
C2291 C 0.42302 0.6216 0.36489 0.0
C2292 C 0.54164 0.5949 0.37243 0.0
C2293 C 0.5251 0.59273 0.37254 0.0
C2294 C 0.48861 0.60733 0.3527 0.0
C2295 C 0.44648 0.60472 0.36935 0.0
C2296 C 0.46401 0.60269 0.36795 0.0
C2297 C 0.51512 0.60525 0.36661 0.0
C2298 C 0.4976 0.60317 0.36671 0.0
H2299 H 0.41444 0.58879 0.38988 0.0
H2300 H 0.44246 0.58302 0.38458 0.0
H2301 H 0.46542 0.61045 0.3423 0.0
H2302 H 0.54331 0.63386 0.35637 0.0
H2303 H 0.5145 0.62999 0.35642 0.0
C2304 C 0.86928 0.63354 0.81407 0.0
C2305 C 0.87203 0.61948 0.82382 0.0
C2306 C 0.87426 0.63401 0.7976 0.0
C2307 C 0.90084 0.61402 0.76731 0.0
H2308 H 0.86971 0.62901 0.7353 0.0
C2309 C 0.90735 0.60178 0.69742 0.0
C2310 C 0.90329 0.61464 0.68659 0.0
C2311 C 0.90405 0.60301 0.7143 0.0
C2312 C 0.87863 0.62499 0.74409 0.0
H2313 H 0.88273 0.59518 0.82414 0.0
H2314 H 0.89134 0.596 0.79542 0.0
H2315 H 0.86372 0.63059 0.76472 0.0
H2316 H 0.89254 0.63887 0.68495 0.0
H2317 H 0.88694 0.64108 0.71441 0.0
H2318 H 0.91571 0.60829 0.74665 0.0
C2319 C 0.88541 0.60668 0.80051 0.0
C2320 C 0.8752 0.62592 0.76095 0.0
C2321 C 0.8804 0.60618 0.81695 0.0
C2322 C 0.89577 0.62871 0.69296 0.0
C2323 C 0.8925 0.62996 0.70984 0.0
C2324 C 0.90429 0.61311 0.75044 0.0
C2325 C 0.88214 0.62047 0.79057 0.0
C2326 C 0.88622 0.62034 0.77273 0.0
C2327 C 0.89664 0.61714 0.7207 0.0
C2328 C 0.89317 0.61848 0.73864 0.0
H2329 H 0.86292 0.64402 0.81901 0.0
H2330 H 0.87177 0.64491 0.79029 0.0
H2331 H 0.90965 0.60981 0.77612 0.0
H2332 H 0.9131 0.59075 0.69289 0.0
H2333 H 0.90717 0.59282 0.72231 0.0
C2334 C 0.62732 0.62257 0.07861 0.0
C2335 C 0.61663 0.61216 0.0871 0.0
C2336 C 0.62365 0.62836 0.06283 0.0
C2337 C 0.60014 0.61625 0.02662 0.0
H2338 H 0.61533 0.65828 0.00959 0.0
C2339 C 0.59629 0.63329 0.95727 0.0
C2340 C 0.61057 0.63948 0.95054 0.0
C2341 C 0.59449 0.63181 0.9744 0.0
C2342 C 0.61102 0.6465 0.01418 0.0
H2343 H 0.59326 0.60055 0.08611 0.0
H2344 H 0.58679 0.61085 0.05856 0.0
H2345 H 0.6161 0.65303 0.0393 0.0
H2346 H 0.63404 0.64924 0.95649 0.0
H2347 H 0.63091 0.6466 0.98629 0.0
H2348 H 0.59542 0.60958 0.00146 0.0
C2349 C 0.59813 0.61426 0.06403 0.0
C2350 C 0.61146 0.64349 0.03118 0.0
C2351 C 0.60181 0.60844 0.07984 0.0
C2352 C 0.6229 0.64439 0.96127 0.0
C2353 C 0.62106 0.64302 0.97836 0.0
C2354 C 0.59963 0.61929 0.00963 0.0
C2355 C 0.60919 0.62393 0.05518 0.0
C2356 C 0.60643 0.62816 0.03755 0.0
C2357 C 0.60688 0.63663 0.9851 0.0
C2358 C 0.60547 0.63428 0.00321 0.0
H2359 H 0.63882 0.62572 0.08387 0.0
H2360 H 0.63253 0.63563 0.05632 0.0
H2361 H 0.59637 0.60422 0.03107 0.0
H2362 H 0.58655 0.62944 0.94932 0.0
H2363 H 0.58341 0.62692 0.97927 0.0
C2364 C 0.61477 0.34385 0.19325 0.0
C2365 C 0.61598 0.35698 0.18194 0.0
C2366 C 0.61792 0.34641 0.21003 0.0
C2367 C 0.63827 0.37556 0.23848 0.0
H2368 H 0.61202 0.35451 0.27196 0.0
C2369 C 0.64184 0.3945 0.30669 0.0
C2370 C 0.64297 0.38167 0.31834 0.0
C2371 C 0.63796 0.39107 0.29027 0.0
C2372 C 0.61951 0.36035 0.26273 0.0
H2373 H 0.62125 0.38314 0.1794 0.0
H2374 H 0.62644 0.38768 0.20865 0.0
H2375 H 0.60655 0.34928 0.24272 0.0
H2376 H 0.64035 0.35524 0.32199 0.0
H2377 H 0.63348 0.34926 0.29319 0.0
H2378 H 0.65109 0.38677 0.25846 0.0
C2379 C 0.62339 0.37531 0.20454 0.0
C2380 C 0.61642 0.35734 0.246 0.0
C2381 C 0.62033 0.37273 0.18777 0.0
C2382 C 0.63962 0.36538 0.3133 0.0
C2383 C 0.63563 0.36196 0.29684 0.0
C2384 C 0.64128 0.37863 0.25516 0.0
C2385 C 0.62228 0.36218 0.21587 0.0
C2386 C 0.62572 0.36499 0.23368 0.0
C2387 C 0.63504 0.37476 0.28512 0.0
C2388 C 0.63188 0.37115 0.26746 0.0
H2389 H 0.61148 0.33155 0.18913 0.0
H2390 H 0.61715 0.33599 0.2184 0.0
H2391 H 0.64588 0.38137 0.22933 0.0
H2392 H 0.64426 0.4072 0.31017 0.0
H2393 H 0.63734 0.4012 0.28155 0.0
C2394 C 0.88744 0.37042 0.58203 0.0
C2395 C 0.87216 0.36949 0.58905 0.0
C2396 C 0.89043 0.36308 0.56668 0.0
C2397 C 0.87434 0.33306 0.53622 0.0
H2398 H 0.89196 0.36302 0.50349 0.0
C2399 C 0.86135 0.32628 0.46688 0.0
C2400 C 0.87318 0.33068 0.4554 0.0
C2401 C 0.86384 0.32872 0.48378 0.0
C2402 C 0.88733 0.35433 0.5125 0.0
H2403 H 0.84833 0.35934 0.58604 0.0
H2404 H 0.85356 0.34654 0.55944 0.0
H2405 H 0.89221 0.37087 0.53257 0.0
H2406 H 0.89713 0.3406 0.45269 0.0
H2407 H 0.90154 0.34469 0.48223 0.0
H2408 H 0.86907 0.3167 0.51612 0.0
C2409 C 0.86323 0.35291 0.5657 0.0
C2410 C 0.88749 0.35884 0.52917 0.0
C2411 C 0.8602 0.36037 0.58089 0.0
C2412 C 0.88772 0.33719 0.46121 0.0
C2413 C 0.89024 0.33959 0.47813 0.0
C2414 C 0.87424 0.32851 0.51956 0.0
C2415 C 0.87826 0.35449 0.55825 0.0
C2416 C 0.88057 0.34846 0.54113 0.0
C2417 C 0.87826 0.33554 0.4896 0.0
C2418 C 0.88031 0.33931 0.50746 0.0
H2419 H 0.89688 0.37736 0.58805 0.0
H2420 H 0.90215 0.3644 0.56124 0.0
H2421 H 0.86912 0.32472 0.54523 0.0
H2422 H 0.85001 0.32125 0.46281 0.0
H2423 H 0.85426 0.32572 0.49224 0.0
C2424 C 0.87444 0.37419 0.80244 0.0
C2425 C 0.87259 0.35888 0.81042 0.0
C2426 C 0.87285 0.37538 0.78531 0.0
C2427 C 0.87403 0.35056 0.74701 0.0
H2428 H 0.85282 0.38861 0.72833 0.0
C2429 C 0.85677 0.35687 0.6777 0.0
C2430 C 0.85893 0.37254 0.67051 0.0
C2431 C 0.85937 0.35457 0.69463 0.0
C2432 C 0.85894 0.378 0.73335 0.0
H2433 H 0.86744 0.33284 0.8067 0.0
H2434 H 0.86438 0.33499 0.77676 0.0
H2435 H 0.85477 0.38577 0.75821 0.0
H2436 H 0.86631 0.39787 0.67529 0.0
H2437 H 0.8709 0.3938 0.70472 0.0
H2438 H 0.87801 0.34276 0.72201 0.0
C2439 C 0.86733 0.34602 0.78374 0.0
C2440 C 0.86005 0.37637 0.75048 0.0
C2441 C 0.86897 0.34481 0.80091 0.0
C2442 C 0.8644 0.38567 0.68045 0.0
C2443 C 0.86694 0.38338 0.69733 0.0
C2444 C 0.87285 0.35216 0.72983 0.0
C2445 C 0.8693 0.36132 0.77575 0.0
C2446 C 0.86771 0.3627 0.75752 0.0
C2447 C 0.86412 0.3679 0.70467 0.0
C2448 C 0.86539 0.36598 0.72284 0.0
H2449 H 0.87734 0.38526 0.80938 0.0
H2450 H 0.87469 0.38731 0.77953 0.0
H2451 H 0.88018 0.33997 0.75204 0.0
H2452 H 0.85259 0.3465 0.67037 0.0
H2453 H 0.85706 0.34251 0.69996 0.0
C2454 C 0.89499 0.62585 0.91477 0.0
C2455 C 0.87953 0.62602 0.90811 0.0
C2456 C 0.89783 0.6317 0.93081 0.0
C2457 C 0.87887 0.65439 0.96583 0.0
H2458 H 0.90375 0.62467 0.99296 0.0
C2459 C 0.86832 0.64511 0.03522 0.0
C2460 C 0.88163 0.64515 0.04575 0.0
C2461 C 0.87029 0.64547 0.0181 0.0
C2462 C 0.89698 0.63323 0.98549 0.0
H2463 H 0.85513 0.63342 0.91262 0.0
H2464 H 0.85995 0.64316 0.94048 0.0
H2465 H 0.90358 0.62126 0.963 0.0
H2466 H 0.90745 0.64545 0.04665 0.0
H2467 H 0.91088 0.64561 0.01656 0.0
H2468 H 0.87154 0.66567 0.98852 0.0
C2469 C 0.86999 0.63877 0.93339 0.0
C2470 C 0.89693 0.63136 0.96832 0.0
C2471 C 0.86718 0.63302 0.9174 0.0
C2472 C 0.89697 0.64544 0.03882 0.0
C2473 C 0.89895 0.64551 0.02165 0.0
C2474 C 0.87876 0.65611 0.983 0.0
C2475 C 0.88525 0.63779 0.94047 0.0
C2476 C 0.8875 0.64161 0.95831 0.0
C2477 C 0.88561 0.64563 0.01116 0.0
C2478 C 0.88748 0.64527 0.99299 0.0
H2479 H 0.90479 0.62065 0.90787 0.0
H2480 H 0.90978 0.63103 0.93579 0.0
H2481 H 0.87176 0.66275 0.95849 0.0
H2482 H 0.85634 0.64496 0.04019 0.0
H2483 H 0.85982 0.64533 0.01025 0.0
C2484 C 0.59238 0.60836 0.29734 0.0
C2485 C 0.59693 0.62154 0.30766 0.0
C2486 C 0.59511 0.60912 0.28033 0.0
C2487 C 0.62086 0.62936 0.24964 0.0
H2488 H 0.58999 0.61181 0.21837 0.0
C2489 C 0.63242 0.62978 0.17931 0.0
C2490 C 0.62901 0.61485 0.1711 0.0
C2491 C 0.62717 0.63232 0.1955 0.0
C2492 C 0.59875 0.61669 0.22696 0.0
H2493 H 0.6077 0.64601 0.30817 0.0
H2494 H 0.6124 0.64735 0.27844 0.0
H2495 H 0.58332 0.61303 0.24771 0.0
H2496 H 0.61703 0.59109 0.17327 0.0
H2497 H 0.60802 0.59547 0.20149 0.0
H2498 H 0.63642 0.63272 0.22896 0.0
C2499 C 0.60686 0.63636 0.28355 0.0
C2500 C 0.59494 0.61738 0.24375 0.0
C2501 C 0.6041 0.63561 0.30057 0.0
C2502 C 0.61987 0.60273 0.17924 0.0
C2503 C 0.61461 0.60528 0.19539 0.0
C2504 C 0.62468 0.62867 0.23285 0.0
C2505 C 0.60248 0.62308 0.27326 0.0
C2506 C 0.60604 0.62349 0.2553 0.0
C2507 C 0.61836 0.62001 0.20378 0.0
C2508 C 0.61375 0.6221 0.22136 0.0
H2509 H 0.58684 0.59734 0.30241 0.0
H2510 H 0.59179 0.59859 0.27277 0.0
H2511 H 0.62975 0.63394 0.25825 0.0
H2512 H 0.63939 0.63939 0.17335 0.0
H2513 H 0.63009 0.64388 0.20158 0.0
C2514 C 0.62163 0.34944 0.52256 0.0
C2515 C 0.6071 0.35132 0.53091 0.0
C2516 C 0.62232 0.35072 0.50537 0.0
C2517 C 0.6024 0.37027 0.47062 0.0
H2518 H 0.62953 0.34173 0.44463 0.0
C2519 C 0.61478 0.38331 0.40168 0.0
C2520 C 0.63097 0.38276 0.39736 0.0
C2521 C 0.60955 0.37671 0.41674 0.0
C2522 C 0.62191 0.34982 0.45171 0.0
H2523 H 0.58183 0.35575 0.52776 0.0
H2524 H 0.5831 0.35816 0.49763 0.0
H2525 H 0.62463 0.33534 0.47368 0.0
H2526 H 0.65425 0.37422 0.40509 0.0
H2527 H 0.64522 0.36298 0.43129 0.0
H2528 H 0.60022 0.38515 0.4489 0.0
C2529 C 0.59393 0.35569 0.50446 0.0
C2530 C 0.6191 0.34614 0.46832 0.0
C2531 C 0.59321 0.35427 0.52168 0.0
C2532 C 0.6417 0.37489 0.40805 0.0
C2533 C 0.63649 0.36831 0.42305 0.0
C2534 C 0.60527 0.37399 0.45401 0.0
C2535 C 0.60852 0.35401 0.49615 0.0
C2536 C 0.60966 0.35658 0.47805 0.0
C2537 C 0.62041 0.3694 0.42771 0.0
C2538 C 0.61542 0.36405 0.4445 0.0
H2539 H 0.63254 0.34712 0.5293 0.0
H2540 H 0.63377 0.3496 0.49934 0.0
H2541 H 0.59518 0.3786 0.47785 0.0
H2542 H 0.6062 0.38922 0.39367 0.0
H2543 H 0.59706 0.37757 0.4199 0.0
C2544 C 0.70872 0.88306 0.64593 0.0
C2545 C 0.70143 0.89037 0.63213 0.0
C2546 C 0.72524 0.88393 0.64795 0.0
C2547 C 0.7609 0.90738 0.63511 0.0
H2548 H 0.78326 0.86642 0.6429 0.0
C2549 C 0.82653 0.89821 0.618 0.0
C2550 C 0.83567 0.88683 0.62693 0.0
C2551 C 0.81056 0.90069 0.62199 0.0
C2552 C 0.77725 0.87807 0.64112 0.0
H2553 H 0.7057 0.90454 0.60976 0.0
H2554 H 0.73449 0.90607 0.61334 0.0
H2555 H 0.7543 0.86661 0.64345 0.0
H2556 H 0.83566 0.87015 0.64793 0.0
H2557 H 0.80789 0.87481 0.65517 0.0
H2558 H 0.78382 0.91883 0.63255 0.0
C2559 C 0.72743 0.89975 0.62262 0.0
C2560 C 0.76063 0.87813 0.64137 0.0
C2561 C 0.71096 0.89873 0.6205 0.0
C2562 C 0.82886 0.87887 0.64068 0.0
C2563 C 0.81291 0.88145 0.64476 0.0
C2564 C 0.77753 0.90736 0.635 0.0
C2565 C 0.73474 0.8923 0.63632 0.0
C2566 C 0.7523 0.8927 0.63797 0.0
C2567 C 0.80343 0.89196 0.63511 0.0
C2568 C 0.78591 0.89261 0.63759 0.0
H2569 H 0.7017 0.87655 0.65511 0.0
H2570 H 0.73059 0.87813 0.65865 0.0
H2571 H 0.75474 0.91884 0.6327 0.0
H2572 H 0.83142 0.90456 0.60734 0.0
H2573 H 0.80361 0.90876 0.61417 0.0
C2574 C 0.19978 0.61069 0.37585 0.0
C2575 C 0.19281 0.615 0.36065 0.0
C2576 C 0.21631 0.60977 0.37742 0.0
C2577 C 0.25351 0.62508 0.3592 0.0
H2578 H 0.27249 0.58865 0.38308 0.0
C2579 C 0.32143 0.62008 0.36597 0.0
C2580 C 0.32705 0.61615 0.38186 0.0
C2581 C 0.30533 0.61807 0.36203 0.0
C2582 C 0.26737 0.59896 0.37648 0.0
H2583 H 0.19774 0.62183 0.33521 0.0
H2584 H 0.22664 0.62031 0.33801 0.0
H2585 H 0.24369 0.58927 0.37905 0.0
H2586 H 0.32029 0.60636 0.40584 0.0
H2587 H 0.29221 0.60315 0.39908 0.0
H2588 H 0.27705 0.63504 0.35699 0.0
C2589 C 0.21928 0.61768 0.3487 0.0
C2590 C 0.25089 0.59931 0.37417 0.0
C2591 C 0.20274 0.6185 0.34709 0.0
C2592 C 0.31636 0.60949 0.39348 0.0
C2593 C 0.30024 0.60757 0.38957 0.0
C2594 C 0.26998 0.62479 0.36159 0.0
C2595 C 0.22623 0.61323 0.36386 0.0
C2596 C 0.24378 0.61245 0.36565 0.0
C2597 C 0.29448 0.61218 0.37391 0.0
C2598 C 0.2771 0.6118 0.37039 0.0
H2599 H 0.19247 0.60793 0.38654 0.0
H2600 H 0.22134 0.60653 0.38932 0.0
H2601 H 0.24835 0.63547 0.35275 0.0
H2602 H 0.32939 0.62512 0.35669 0.0
H2603 H 0.30134 0.62143 0.34975 0.0
C2604 C 0.61781 0.07385 0.62861 0.0
C2605 C 0.61746 0.08129 0.64431 0.0
C2606 C 0.62262 0.05746 0.62684 0.0
C2607 C 0.62556 0.01899 0.65088 0.0
H2608 H 0.65011 0.00374 0.61336 0.0
C2609 C 0.64827 0.95221 0.64591 0.0
C2610 C 0.64668 0.94442 0.63046 0.0
C2611 C 0.64534 0.96907 0.64757 0.0
C2612 C 0.64313 0.00781 0.62383 0.0
H2613 H 0.62258 0.07762 0.67036 0.0
H2614 H 0.63122 0.04916 0.66721 0.0
H2615 H 0.64453 0.03314 0.61633 0.0
H2616 H 0.64074 0.94823 0.60461 0.0
H2617 H 0.63554 0.97768 0.60756 0.0
H2618 H 0.62412 0.99368 0.65836 0.0
C2619 C 0.62744 0.05586 0.65632 0.0
C2620 C 0.63994 0.02464 0.62554 0.0
C2621 C 0.62259 0.07221 0.6581 0.0
C2622 C 0.64209 0.95387 0.61669 0.0
C2623 C 0.63921 0.97075 0.61835 0.0
C2624 C 0.62878 0.00219 0.6492 0.0
C2625 C 0.62722 0.04819 0.64072 0.0
C2626 C 0.63108 0.03041 0.63907 0.0
C2627 C 0.64079 0.97853 0.63381 0.0
C2628 C 0.63756 0.99641 0.63564 0.0
H2629 H 0.61391 0.0805 0.61774 0.0
H2630 H 0.62218 0.05189 0.61466 0.0
H2631 H 0.61843 0.02297 0.66127 0.0
H2632 H 0.65182 0.94529 0.65675 0.0
H2633 H 0.64682 0.97476 0.65961 0.0
C2634 C 0.16485 0.40457 0.88483 0.0
C2635 C 0.15479 0.39564 0.87414 0.0
C2636 C 0.18092 0.40676 0.88104 0.0
C2637 C 0.21249 0.38695 0.8564 0.0
H2638 H 0.23775 0.42318 0.87412 0.0
C2639 C 0.28171 0.39262 0.85181 0.0
C2640 C 0.28893 0.39389 0.86746 0.0
C2641 C 0.2652 0.39414 0.85016 0.0
C2642 C 0.2308 0.41305 0.86902 0.0
H2643 H 0.15337 0.38312 0.85047 0.0
H2644 H 0.18134 0.3875 0.84351 0.0
H2645 H 0.20876 0.42481 0.87453 0.0
H2646 H 0.28461 0.39789 0.8936 0.0
H2647 H 0.25586 0.40093 0.89062 0.0
H2648 H 0.23471 0.37532 0.85086 0.0
C2649 C 0.17695 0.39231 0.85513 0.0
C2650 C 0.21421 0.41391 0.86934 0.0
C2651 C 0.16089 0.38991 0.85904 0.0
C2652 C 0.27938 0.39676 0.8814 0.0
C2653 C 0.26297 0.39863 0.87969 0.0
C2654 C 0.2291 0.38626 0.85581 0.0
C2655 C 0.1873 0.40029 0.86633 0.0
C2656 C 0.20482 0.40062 0.86353 0.0
C2657 C 0.25576 0.39736 0.86408 0.0
C2658 C 0.23835 0.39908 0.86257 0.0
H2659 H 0.16053 0.40911 0.89659 0.0
H2660 H 0.18848 0.41276 0.89013 0.0
H2661 H 0.20573 0.37637 0.85202 0.0
H2662 H 0.28881 0.39038 0.84087 0.0
H2663 H 0.25984 0.39306 0.83801 0.0
C2664 C 0.38363 0.4107 0.61678 0.0
C2665 C 0.3825 0.40467 0.63304 0.0
C2666 C 0.3783 0.42656 0.61295 0.0
C2667 C 0.35362 0.46099 0.62793 0.0
H2668 H 0.38567 0.48893 0.60735 0.0
C2669 C 0.35324 0.53159 0.6344 0.0
C2670 C 0.35861 0.54136 0.62115 0.0
C2671 C 0.35433 0.51442 0.6337 0.0
C2672 C 0.37643 0.48128 0.6128 0.0
H2673 H 0.37402 0.41007 0.65778 0.0
H2674 H 0.36461 0.43763 0.65105 0.0
H2675 H 0.39004 0.45932 0.60943 0.0
H2676 H 0.36898 0.54078 0.5966 0.0
H2677 H 0.37062 0.51075 0.59526 0.0
H2678 H 0.34009 0.48295 0.63152 0.0
C2679 C 0.36964 0.43016 0.64128 0.0
C2680 C 0.37895 0.4643 0.61399 0.0
C2681 C 0.37513 0.41442 0.64515 0.0
C2682 C 0.36486 0.53359 0.60707 0.0
C2683 C 0.36585 0.51638 0.60633 0.0
C2684 C 0.35103 0.47795 0.62662 0.0
C2685 C 0.37154 0.43655 0.62525 0.0
C2686 C 0.36774 0.45406 0.62191 0.0
C2687 C 0.3607 0.50659 0.61969 0.0
C2688 C 0.36259 0.48836 0.61941 0.0
H2689 H 0.38924 0.40347 0.60718 0.0
H2690 H 0.37978 0.43117 0.60047 0.0
H2691 H 0.34471 0.45332 0.63393 0.0
H2692 H 0.34841 0.53721 0.64544 0.0
H2693 H 0.35053 0.50731 0.64435 0.0
C2694 C 0.79026 0.10526 0.12181 0.0
C2695 C 0.802 0.11267 0.13181 0.0
C2696 C 0.77428 0.10554 0.12651 0.0
C2697 C 0.74563 0.12935 0.14963 0.0
H2698 H 0.71959 0.08964 0.14685 0.0
C2699 C 0.67789 0.13236 0.15905 0.0
C2700 C 0.66885 0.12372 0.14717 0.0
C2701 C 0.69417 0.12934 0.16083 0.0
C2702 C 0.72666 0.10086 0.14762 0.0
H2703 H 0.80621 0.12631 0.15452 0.0
H2704 H 0.77811 0.12716 0.16253 0.0
H2705 H 0.74825 0.088 0.14231 0.0
H2706 H 0.66964 0.10442 0.12856 0.0
H2707 H 0.69791 0.09948 0.13132 0.0
H2708 H 0.72406 0.14243 0.154 0.0
C2709 C 0.78137 0.121 0.15115 0.0
C2710 C 0.74307 0.09989 0.14507 0.0
C2711 C 0.79742 0.12048 0.14657 0.0
C2712 C 0.67623 0.11133 0.13782 0.0
C2713 C 0.6925 0.10841 0.13949 0.0
C2714 C 0.72918 0.13038 0.15196 0.0
C2715 C 0.76968 0.11344 0.14119 0.0
C2716 C 0.75264 0.11418 0.14571 0.0
C2717 C 0.70178 0.11769 0.15069 0.0
C2718 C 0.71943 0.1162 0.15061 0.0
H2719 H 0.79341 0.09908 0.1104 0.0
H2720 H 0.76546 0.09981 0.11852 0.0
H2721 H 0.75275 0.14057 0.15008 0.0
H2722 H 0.67252 0.14189 0.16656 0.0
H2723 H 0.70089 0.13647 0.16982 0.0
C2724 C 0.6405 0.0336 0.90888 0.0
C2725 C 0.63961 0.04442 0.89532 0.0
C2726 C 0.63881 0.01655 0.90657 0.0
C2727 C 0.64172 0.98405 0.87494 0.0
H2728 H 0.61083 0.96031 0.9017 0.0
C2729 C 0.61214 0.92382 0.85349 0.0
C2730 C 0.60795 0.91171 0.86518 0.0
C2731 C 0.61872 0.93886 0.85854 0.0
C2732 C 0.61975 0.96664 0.89434 0.0
H2733 H 0.63647 0.04587 0.86872 0.0
H2734 H 0.63358 0.01619 0.86473 0.0
H2735 H 0.61725 0.98904 0.90816 0.0
H2736 H 0.60803 0.90561 0.8913 0.0
H2737 H 0.61973 0.93191 0.90012 0.0
H2738 H 0.64406 0.9618 0.86094 0.0
C2739 C 0.63565 0.02086 0.87711 0.0
C2740 C 0.62339 0.98311 0.89802 0.0
C2741 C 0.63717 0.03787 0.87942 0.0
C2742 C 0.61105 0.91473 0.882 0.0
C2743 C 0.61767 0.92982 0.88706 0.0
C2744 C 0.63817 0.96757 0.87132 0.0
C2745 C 0.6364 0.01004 0.89065 0.0
C2746 C 0.63408 0.99208 0.88808 0.0
C2747 C 0.62133 0.94215 0.8754 0.0
C2748 C 0.62682 0.95881 0.88069 0.0
H2749 H 0.64237 0.03829 0.92128 0.0
H2750 H 0.63947 0.00846 0.91721 0.0
H2751 H 0.65022 0.99063 0.86725 0.0
H2752 H 0.60991 0.9219 0.84042 0.0
H2753 H 0.62116 0.94816 0.84923 0.0
C2754 C 0.88734 0.06507 0.36236 0.0
C2755 C 0.88598 0.07281 0.34687 0.0
C2756 C 0.88367 0.0483 0.36413 0.0
C2757 C 0.86183 0.01377 0.34456 0.0
H2758 H 0.89122 0.98648 0.36927 0.0
C2759 C 0.85782 0.94273 0.34355 0.0
C2760 C 0.86017 0.93441 0.35858 0.0
C2761 C 0.86094 0.95965 0.3423 0.0
C2762 C 0.88279 0.99396 0.36251 0.0
H2763 H 0.87938 0.0691 0.32117 0.0
H2764 H 0.873 0.03984 0.32428 0.0
H2765 H 0.89619 0.01611 0.36702 0.0
H2766 H 0.86776 0.93729 0.38409 0.0
H2767 H 0.87304 0.96686 0.38196 0.0
H2768 H 0.84841 0.99164 0.34007 0.0
C2769 C 0.87682 0.04676 0.33506 0.0
C2770 C 0.88564 0.01093 0.36122 0.0
C2771 C 0.88055 0.06351 0.33327 0.0
C2772 C 0.86588 0.94333 0.37231 0.0
C2773 C 0.86897 0.96026 0.37107 0.0
C2774 C 0.85896 0.99681 0.34589 0.0
C2775 C 0.8785 0.03894 0.35047 0.0
C2776 C 0.87522 0.021 0.35219 0.0
C2777 C 0.86645 0.96864 0.35607 0.0
C2778 C 0.86944 0.98669 0.35482 0.0
H2779 H 0.89146 0.07189 0.37309 0.0
H2780 H 0.88488 0.04265 0.37621 0.0
H2781 H 0.85348 0.02126 0.33771 0.0
H2782 H 0.85349 0.9362 0.33272 0.0
H2783 H 0.85913 0.96567 0.33049 0.0
C2784 C 0.3547 0.30397 0.08998 0.0
C2785 C 0.35928 0.31152 0.10494 0.0
C2786 C 0.35302 0.2868 0.08899 0.0
C2787 C 0.34759 0.24927 0.11406 0.0
H2788 H 0.37336 0.22772 0.08079 0.0
C2789 C 0.37239 0.18474 0.12335 0.0
C2790 C 0.37429 0.17403 0.10983 0.0
C2791 C 0.36699 0.20078 0.12101 0.0
C2792 C 0.36579 0.23348 0.08991 0.0
H2793 H 0.36507 0.30713 0.1307 0.0
H2794 H 0.36194 0.27721 0.12901 0.0
H2795 H 0.37003 0.25763 0.07991 0.0
H2796 H 0.37156 0.17163 0.08326 0.0
H2797 H 0.36201 0.19984 0.07915 0.0
H2798 H 0.34363 0.22526 0.12432 0.0
C2799 C 0.35967 0.28455 0.11806 0.0
C2800 C 0.36391 0.25062 0.08942 0.0
C2801 C 0.36157 0.30166 0.119 0.0
C2802 C 0.37027 0.17961 0.09391 0.0
C2803 C 0.36485 0.19576 0.09156 0.0
C2804 C 0.34934 0.23216 0.11447 0.0
C2805 C 0.35562 0.27694 0.103 0.0
C2806 C 0.35526 0.2587 0.10183 0.0
C2807 C 0.3633 0.20656 0.10509 0.0
C2808 C 0.35896 0.22415 0.10277 0.0
H2809 H 0.35289 0.31126 0.07892 0.0
H2810 H 0.34986 0.28121 0.07725 0.0
H2811 H 0.34065 0.25521 0.12362 0.0
H2812 H 0.37535 0.18087 0.13579 0.0
H2813 H 0.36624 0.20883 0.13167 0.0
C2814 C 0.58828 0.62299 0.86986 0.0
C2815 C 0.59791 0.61328 0.88014 0.0
C2816 C 0.57437 0.61647 0.86298 0.0
C2817 C 0.54386 0.58552 0.87185 0.0
H2818 H 0.52719 0.60022 0.82964 0.0
C2819 C 0.47813 0.57501 0.85293 0.0
C2820 C 0.4706 0.58968 0.84805 0.0
C2821 C 0.49473 0.57438 0.85414 0.0
C2822 C 0.53173 0.59593 0.84141 0.0
H2823 H 0.60093 0.58884 0.8906 0.0
H2824 H 0.5765 0.57738 0.87851 0.0
H2825 H 0.5552 0.60506 0.83633 0.0
H2826 H 0.47456 0.61495 0.84001 0.0
H2827 H 0.50342 0.61383 0.8421 0.0
H2828 H 0.52023 0.57696 0.87716 0.0
C2829 C 0.57971 0.59011 0.87592 0.0
C2830 C 0.54773 0.59871 0.84525 0.0
C2831 C 0.59371 0.59665 0.88278 0.0
C2832 C 0.47999 0.60349 0.84388 0.0
C2833 C 0.49654 0.60281 0.84492 0.0
C2834 C 0.52786 0.58268 0.86797 0.0
C2835 C 0.56973 0.60006 0.86621 0.0
C2836 C 0.55381 0.59411 0.86077 0.0
C2837 C 0.50407 0.58833 0.85027 0.0
C2838 C 0.52151 0.58842 0.85297 0.0
H2839 H 0.59122 0.63584 0.86751 0.0
H2840 H 0.56686 0.62456 0.85576 0.0
H2841 H 0.54813 0.58195 0.88396 0.0
H2842 H 0.4712 0.56415 0.85619 0.0
H2843 H 0.50026 0.56306 0.85826 0.0
C2844 C 0.12641 0.69605 0.61447 0.0
C2845 C 0.11842 0.68798 0.60148 0.0
C2846 C 0.12651 0.71328 0.61546 0.0
C2847 C 0.10557 0.75034 0.59988 0.0
H2848 H 0.14342 0.77299 0.616 0.0
C2849 C 0.11112 0.82155 0.60189 0.0
C2850 C 0.1152 0.82768 0.6176 0.0
C2851 C 0.11272 0.80473 0.59835 0.0
C2852 C 0.13279 0.7668 0.61145 0.0
H2853 H 0.10433 0.69161 0.57928 0.0
H2854 H 0.10486 0.72161 0.58076 0.0
H2855 H 0.1435 0.743 0.61304 0.0
H2856 H 0.12485 0.82126 0.64164 0.0
H2857 H 0.12789 0.79203 0.63535 0.0
H2858 H 0.09496 0.77425 0.59823 0.0
C2859 C 0.11074 0.71468 0.59042 0.0
C2860 C 0.13277 0.74963 0.60987 0.0
C2861 C 0.11048 0.69747 0.58954 0.0
C2862 C 0.12154 0.81686 0.62944 0.0
C2863 C 0.12337 0.80015 0.62582 0.0
C2864 C 0.10567 0.76753 0.60128 0.0
C2865 C 0.11879 0.72282 0.60337 0.0
C2866 C 0.11907 0.74116 0.60431 0.0
C2867 C 0.1187 0.79387 0.61037 0.0
C2868 C 0.1192 0.77588 0.60731 0.0
H2869 H 0.13256 0.68906 0.62391 0.0
H2870 H 0.13256 0.7191 0.6258 0.0
H2871 H 0.09474 0.74424 0.59578 0.0
H2872 H 0.10617 0.82961 0.59255 0.0
H2873 H 0.10911 0.80016 0.58631 0.0
C2874 C 0.04071 0.3752 0.34871 0.0
C2875 C 0.05111 0.36977 0.36118 0.0
C2876 C 0.02422 0.3742 0.35093 0.0
C2877 C 0.99401 0.3511 0.37426 0.0
H2878 H 0.96586 0.38693 0.36232 0.0
C2879 C 0.92623 0.34294 0.37664 0.0
C2880 C 0.91793 0.35539 0.38502 0.0
C2881 C 0.94207 0.34538 0.37199 0.0
C2882 C 0.97359 0.37684 0.36571 0.0
H2883 H 0.05238 0.35933 0.38586 0.0
H2884 H 0.02365 0.3576 0.38969 0.0
H2885 H 0.99462 0.3901 0.35831 0.0
H2886 H 0.91947 0.38051 0.39429 0.0
H2887 H 0.94721 0.38474 0.38621 0.0
H2888 H 0.97313 0.33793 0.38191 0.0
C2889 C 0.02824 0.36248 0.37815 0.0
C2890 C 0.99001 0.3786 0.36332 0.0
C2891 C 0.0447 0.36356 0.37599 0.0
C2892 C 0.92556 0.37065 0.38791 0.0
C2893 C 0.94142 0.37311 0.38321 0.0
C2894 C 0.97763 0.3493 0.37655 0.0
C2895 C 0.01783 0.36765 0.3656 0.0
C2896 C 0.00038 0.36579 0.3677 0.0
C2897 C 0.94995 0.36034 0.37558 0.0
C2898 C 0.96725 0.36217 0.37238 0.0
H2899 H 0.04528 0.38008 0.33717 0.0
H2900 H 0.01647 0.37818 0.341 0.0
H2901 H 0.00169 0.34094 0.37758 0.0
H2902 H 0.92067 0.33108 0.37409 0.0
H2903 H 0.94827 0.33542 0.36586 0.0
C2904 C 0.35978 0.82299 0.36225 0.0
C2905 C 0.375 0.82939 0.36589 0.0
C2906 C 0.35619 0.80637 0.36524 0.0
C2907 C 0.37053 0.76884 0.38691 0.0
H2908 H 0.34977 0.7457 0.35068 0.0
C2909 C 0.37471 0.69862 0.37863 0.0
C2910 C 0.36074 0.6899 0.37442 0.0
C2911 C 0.375 0.71584 0.37856 0.0
C2912 C 0.35538 0.75202 0.361 0.0
H2913 H 0.39811 0.82359 0.37632 0.0
H2914 H 0.39193 0.79464 0.38133 0.0
H2915 H 0.35243 0.7757 0.34976 0.0
H2916 H 0.33617 0.69245 0.36653 0.0
H2917 H 0.33674 0.72264 0.36629 0.0
H2918 H 0.37387 0.74507 0.39789 0.0
C2919 C 0.3827 0.80245 0.3763 0.0
C2920 C 0.35686 0.76921 0.36051 0.0
C2921 C 0.38628 0.81904 0.37334 0.0
C2922 C 0.34713 0.6988 0.36983 0.0
C2923 C 0.34745 0.71607 0.36966 0.0
C2924 C 0.36911 0.75165 0.38735 0.0
C2925 C 0.36774 0.79582 0.37194 0.0
C2926 C 0.36469 0.77779 0.37334 0.0
C2927 C 0.36135 0.72475 0.37419 0.0
C2928 C 0.36176 0.74305 0.37427 0.0
H2929 H 0.35078 0.83067 0.3566 0.0
H2930 H 0.34446 0.8017 0.36201 0.0
H2931 H 0.37637 0.7751 0.39711 0.0
H2932 H 0.38541 0.69215 0.38222 0.0
H2933 H 0.38596 0.7222 0.38183 0.0
C2934 C 0.03256 0.61283 0.12615 0.0
C2935 C 0.03796 0.62604 0.13603 0.0
C2936 C 0.01626 0.61004 0.12383 0.0
C2937 C 0.97682 0.61977 0.14157 0.0
H2938 H 0.96143 0.61079 0.09721 0.0
C2939 C 0.91213 0.6306 0.12119 0.0
C2940 C 0.90517 0.61977 0.10963 0.0
C2941 C 0.92802 0.62881 0.12589 0.0
C2942 C 0.96554 0.61298 0.10973 0.0
H2943 H 0.03048 0.64665 0.15123 0.0
H2944 H 0.00211 0.64191 0.147 0.0
H2945 H 0.98998 0.61272 0.10232 0.0
H2946 H 0.9092 0.59803 0.09454 0.0
H2947 H 0.93697 0.59486 0.10283 0.0
H2948 H 0.95234 0.62043 0.14888 0.0
C2949 C 0.01045 0.63355 0.14126 0.0
C2950 C 0.98191 0.61411 0.11265 0.0
C2951 C 0.02672 0.63635 0.14357 0.0
C2952 C 0.91423 0.60663 0.10342 0.0
C2953 C 0.93016 0.60487 0.10809 0.0
C2954 C 0.96046 0.61865 0.13864 0.0
C2955 C 0.00503 0.62038 0.13135 0.0
C2956 C 0.98772 0.61781 0.12854 0.0
C2957 C 0.93731 0.61614 0.1191 0.0
C2958 C 0.95463 0.61553 0.12263 0.0
H2959 H 0.04092 0.60462 0.12022 0.0
H2960 H 0.01246 0.5997 0.11624 0.0
H2961 H 0.98095 0.62232 0.15401 0.0
H2962 H 0.90547 0.64083 0.12624 0.0
H2963 H 0.9332 0.6378 0.13428 0.0
C2964 C 0.14172 0.3094 0.88032 0.0
C2965 C 0.12728 0.31793 0.8818 0.0
C2966 C 0.1419 0.29214 0.88076 0.0
C2967 C 0.11896 0.25632 0.89547 0.0
H2968 H 0.14033 0.23215 0.86069 0.0
C2969 C 0.1046 0.18837 0.881 0.0
C2970 C 0.11668 0.17816 0.8749 0.0
C2971 C 0.10757 0.2051 0.88393 0.0
C2972 C 0.13458 0.23866 0.87071 0.0
H2973 H 0.10173 0.31507 0.88495 0.0
H2974 H 0.10211 0.285 0.88581 0.0
H2975 H 0.14251 0.26219 0.86162 0.0
H2976 H 0.1416 0.17727 0.86795 0.0
H2977 H 0.14689 0.20642 0.87343 0.0
H2978 H 0.11096 0.23289 0.90457 0.0
C2979 C 0.11327 0.29167 0.88437 0.0
C2980 C 0.13579 0.25588 0.87118 0.0
C2981 C 0.11305 0.30887 0.88373 0.0
C2982 C 0.132 0.18486 0.87251 0.0
C2983 C 0.13501 0.20159 0.87555 0.0
C2984 C 0.11787 0.23911 0.8951 0.0
C2985 C 0.12768 0.28314 0.88292 0.0
C2986 C 0.1277 0.26487 0.88335 0.0
C2987 C 0.12274 0.21198 0.88096 0.0
C2988 C 0.12537 0.23009 0.8825 0.0
H2989 H 0.15287 0.31605 0.87882 0.0
H2990 H 0.15317 0.28583 0.87964 0.0
H2991 H 0.11282 0.26297 0.90515 0.0
H2992 H 0.09266 0.18359 0.88295 0.0
H2993 H 0.09777 0.21276 0.88788 0.0
C2994 C 0.57089 0.37512 0.59827 0.0
C2995 C 0.58347 0.37472 0.60973 0.0
C2996 C 0.55557 0.37925 0.60331 0.0
C2997 C 0.53015 0.37714 0.63969 0.0
H2998 H 0.50061 0.40056 0.61142 0.0
C2999 C 0.4629 0.38027 0.65427 0.0
C3000 C 0.45291 0.37642 0.64082 0.0
C3001 C 0.47912 0.38345 0.65179 0.0
C3002 C 0.50873 0.39399 0.61945 0.0
H3003 H 0.59 0.37905 0.63534 0.0
H3004 H 0.56308 0.38626 0.64419 0.0
H3005 H 0.52896 0.40072 0.60477 0.0
H3006 H 0.45201 0.37331 0.61418 0.0
H3007 H 0.48023 0.37871 0.60988 0.0
H3008 H 0.50987 0.36992 0.65404 0.0
C3009 C 0.56513 0.38326 0.63131 0.0
C3010 C 0.52494 0.3941 0.61566 0.0
C3011 C 0.58053 0.37921 0.62623 0.0
C3012 C 0.45938 0.3762 0.62481 0.0
C3013 C 0.47554 0.37944 0.62233 0.0
C3014 C 0.51393 0.37703 0.64349 0.0
C3015 C 0.55244 0.38303 0.61995 0.0
C3016 C 0.53576 0.38527 0.62547 0.0
C3017 C 0.48562 0.38294 0.6358 0.0
C3018 C 0.50299 0.38506 0.63313 0.0
H3019 H 0.57276 0.3718 0.58545 0.0
H3020 H 0.54603 0.37875 0.59428 0.0
H3021 H 0.53816 0.37006 0.64739 0.0
H3022 H 0.45827 0.3806 0.66676 0.0
H3023 H 0.48657 0.38624 0.66239 0.0
C3024 C 0.10625 0.35597 0.28438 0.0
C3025 C 0.11762 0.36549 0.29301 0.0
C3026 C 0.10851 0.35209 0.26771 0.0
C3027 C 0.1391 0.35144 0.23457 0.0
H3028 H 0.10317 0.35896 0.20544 0.0
C3029 C 0.12897 0.3744 0.16451 0.0
C3030 C 0.1407 0.36528 0.15627 0.0
C3031 C 0.12445 0.37028 0.18058 0.0
C3032 C 0.1133 0.35673 0.21341 0.0
H3033 H 0.14047 0.37803 0.29103 0.0
H3034 H 0.1443 0.37153 0.26197 0.0
H3035 H 0.09937 0.35979 0.23529 0.0
H3036 H 0.15606 0.34393 0.158 0.0
H3037 H 0.14802 0.33663 0.18609 0.0
H3038 H 0.15324 0.34939 0.21274 0.0
C3039 C 0.13373 0.36682 0.2681 0.0
C3040 C 0.11109 0.35704 0.23053 0.0
C3041 C 0.13148 0.37068 0.28475 0.0
C3042 C 0.14709 0.3513 0.16407 0.0
C3043 C 0.14254 0.34716 0.18019 0.0
C3044 C 0.14132 0.35118 0.21747 0.0
C3045 C 0.1222 0.35765 0.25933 0.0
C3046 C 0.12407 0.35489 0.24129 0.0
C3047 C 0.13151 0.35689 0.18879 0.0
C3048 C 0.12854 0.35431 0.2067 0.0
H3049 H 0.09547 0.35169 0.29043 0.0
H3050 H 0.09949 0.34486 0.26135 0.0
H3051 H 0.14929 0.34945 0.24254 0.0
H3052 H 0.12375 0.38519 0.15883 0.0
H3053 H 0.11604 0.37816 0.18687 0.0
C3054 C 0.35051 0.37847 0.94245 0.0
C3055 C 0.35983 0.37231 0.92945 0.0
C3056 C 0.35568 0.37718 0.95878 0.0
C3057 C 0.38113 0.35422 0.98686 0.0
H3058 H 0.3785 0.39385 0.01369 0.0
C3059 C 0.39964 0.35483 0.05575 0.0
C3060 C 0.389 0.36283 0.06645 0.0
C3061 C 0.39825 0.3567 0.03862 0.0
C3062 C 0.37922 0.38265 0.00641 0.0
H3063 H 0.38161 0.35939 0.92345 0.0
H3064 H 0.39053 0.35692 0.9522 0.0
H3065 H 0.37146 0.39498 0.98447 0.0
H3066 H 0.36886 0.3794 0.06759 0.0
H3067 H 0.36628 0.38242 0.03786 0.0
H3068 H 0.38835 0.34174 0.00893 0.0
C3069 C 0.37928 0.36285 0.94962 0.0
C3070 C 0.37522 0.38332 0.98968 0.0
C3071 C 0.37418 0.36428 0.9332 0.0
C3072 C 0.37727 0.3731 0.0597 0.0
C3073 C 0.37585 0.37491 0.04262 0.0
C3074 C 0.38502 0.35352 0.00367 0.0
C3075 C 0.37021 0.36959 0.96251 0.0
C3076 C 0.37583 0.36905 0.97984 0.0
C3077 C 0.38619 0.36659 0.03186 0.0
C3078 C 0.38379 0.36767 0.0137 0.0
H3079 H 0.33938 0.38468 0.94003 0.0
H3080 H 0.34832 0.38223 0.96852 0.0
H3081 H 0.38165 0.34304 0.97953 0.0
H3082 H 0.40885 0.34688 0.06058 0.0
H3083 H 0.40653 0.35029 0.03067 0.0
C3084 C 0.35539 0.61537 0.67463 0.0
C3085 C 0.36667 0.61085 0.66266 0.0
C3086 C 0.35945 0.61555 0.69136 0.0
C3087 C 0.39237 0.61811 0.72069 0.0
H3088 H 0.36523 0.59149 0.7491 0.0
C3089 C 0.41026 0.60305 0.78774 0.0
C3090 C 0.39819 0.60226 0.79972 0.0
C3091 C 0.40643 0.60443 0.771 0.0
C3092 C 0.3728 0.59922 0.74145 0.0
H3093 H 0.39124 0.60382 0.65874 0.0
H3094 H 0.39841 0.60449 0.68808 0.0
H3095 H 0.35855 0.59452 0.71995 0.0
H3096 H 0.37267 0.60239 0.80365 0.0
H3097 H 0.36595 0.60537 0.77451 0.0
H3098 H 0.40644 0.62319 0.74216 0.0
C3099 C 0.38641 0.60772 0.68444 0.0
C3100 C 0.36898 0.60088 0.72474 0.0
C3101 C 0.38229 0.60729 0.66769 0.0
C3102 C 0.38222 0.60282 0.79466 0.0
C3103 C 0.37838 0.60446 0.77793 0.0
C3104 C 0.39607 0.61666 0.73747 0.0
C3105 C 0.37491 0.61148 0.69642 0.0
C3106 C 0.37877 0.61027 0.71421 0.0
C3107 C 0.39044 0.60531 0.76588 0.0
C3108 C 0.38638 0.60711 0.74806 0.0
H3109 H 0.34325 0.61817 0.67115 0.0
H3110 H 0.35043 0.61863 0.7004 0.0
H3111 H 0.40003 0.62551 0.7128 0.0
H3112 H 0.42269 0.60253 0.79129 0.0
H3113 H 0.41603 0.60467 0.76208 0.0
C3114 C 0.12792 0.63912 0.54445 0.0
C3115 C 0.11564 0.63077 0.5529 0.0
C3116 C 0.12722 0.64115 0.52736 0.0
C3117 C 0.11059 0.62295 0.48994 0.0
H3118 H 0.12406 0.66447 0.47023 0.0
C3119 C 0.11744 0.62915 0.41965 0.0
C3120 C 0.13199 0.6362 0.41456 0.0
C3121 C 0.11235 0.63072 0.436 0.0
C3122 C 0.12029 0.6528 0.47554 0.0
H3123 H 0.09303 0.61794 0.55001 0.0
H3124 H 0.09193 0.62134 0.51993 0.0
H3125 H 0.12101 0.66247 0.50018 0.0
H3126 H 0.15211 0.6513 0.42236 0.0
H3127 H 0.14337 0.65382 0.45091 0.0
H3128 H 0.11048 0.61306 0.46544 0.0
C3129 C 0.10205 0.62633 0.52665 0.0
C3130 C 0.11853 0.65166 0.49267 0.0
C3131 C 0.10268 0.62439 0.54384 0.0
C3132 C 0.14086 0.64569 0.4259 0.0
C3133 C 0.13579 0.64721 0.44226 0.0
C3134 C 0.11241 0.62407 0.47282 0.0
C3135 C 0.11429 0.63482 0.51828 0.0
C3136 C 0.11406 0.63661 0.50006 0.0
C3137 C 0.12171 0.63935 0.44761 0.0
C3138 C 0.11765 0.6389 0.46546 0.0
H3139 H 0.13808 0.6442 0.55103 0.0
H3140 H 0.13697 0.64748 0.52122 0.0
H3141 H 0.10726 0.61117 0.49532 0.0
H3142 H 0.11024 0.62191 0.41116 0.0
H3143 H 0.1013 0.62479 0.43966 0.0
C3144 C 0.0883 0.62959 0.19689 0.0
C3145 C 0.10142 0.63519 0.18761 0.0
C3146 C 0.08857 0.63035 0.21413 0.0
C3147 C 0.10948 0.6496 0.24971 0.0
H3148 H 0.09501 0.61034 0.2729 0.0
C3149 C 0.12743 0.63404 0.31668 0.0
C3150 C 0.11631 0.62586 0.32684 0.0
C3151 C 0.1238 0.63749 0.3002 0.0
C3152 C 0.09882 0.62154 0.26667 0.0
H3153 H 0.12496 0.64634 0.18913 0.0
H3154 H 0.12554 0.64741 0.21927 0.0
H3155 H 0.09222 0.61188 0.24302 0.0
H3156 H 0.09233 0.61573 0.32792 0.0
H3157 H 0.08595 0.62189 0.29915 0.0
H3158 H 0.11644 0.65906 0.27342 0.0
C3159 C 0.11496 0.64263 0.2132 0.0
C3160 C 0.09724 0.62241 0.24952 0.0
C3161 C 0.11468 0.64191 0.19593 0.0
C3162 C 0.1012 0.62194 0.32039 0.0
C3163 C 0.09757 0.62538 0.30389 0.0
C3164 C 0.11107 0.64872 0.2669 0.0
C3165 C 0.10198 0.63669 0.22249 0.0
C3166 C 0.10273 0.63636 0.24082 0.0
C3167 C 0.10897 0.63284 0.29352 0.0
C3168 C 0.10594 0.63458 0.27553 0.0
H3169 H 0.07783 0.62449 0.19086 0.0
H3170 H 0.07829 0.62591 0.22093 0.0
H3171 H 0.1136 0.66062 0.24338 0.0
H3172 H 0.13917 0.63727 0.32128 0.0
H3173 H 0.13289 0.64311 0.2925 0.0
C3174 C 0.11497 0.37213 0.06938 0.0
C3175 C 0.13074 0.37611 0.07378 0.0
C3176 C 0.111 0.36884 0.05289 0.0
C3177 C 0.12876 0.35922 0.01191 0.0
H3178 H 0.09079 0.38015 0.99472 0.0
C3179 C 0.1197 0.37185 0.94276 0.0
C3180 C 0.10482 0.36769 0.93587 0.0
C3181 C 0.12196 0.37146 0.95985 0.0
C3182 C 0.10132 0.37407 -0.0006 0.0
H3183 H 0.15479 0.37927 0.06442 0.0
H3184 H 0.14785 0.37385 0.03579 0.0
H3185 H 0.09643 0.38123 0.02433 0.0
H3186 H 0.08056 0.36022 0.94152 0.0
H3187 H 0.08451 0.35978 0.9715 0.0
H3188 H 0.1339 0.35258 0.98687 0.0
C3189 C 0.13856 0.37299 0.04503 0.0
C3190 C 0.10453 0.37462 0.01636 0.0
C3191 C 0.14253 0.37621 0.06147 0.0
C3192 C 0.09216 0.36347 0.94646 0.0
C3193 C 0.0944 0.36325 0.9636 0.0
C3194 C 0.12561 0.3588 0.99497 0.0
C3195 C 0.12271 0.3695 0.04049 0.0
C3196 C 0.11844 0.36745 0.02277 0.0
C3197 C 0.10938 0.36705 0.97042 0.0
C3198 C 0.11201 0.36646 0.98852 0.0
H3199 H 0.10563 0.37188 0.0786 0.0
H3200 H 0.09873 0.36595 0.04984 0.0
H3201 H 0.13939 0.35327 0.01647 0.0
H3202 H 0.1297 0.37516 0.93495 0.0
H3203 H 0.13358 0.37468 0.9648 0.0
C3204 C 0.368 0.37052 0.84231 0.0
C3205 C 0.35223 0.36511 0.84468 0.0
C3206 C 0.37529 0.36889 0.82691 0.0
C3207 C 0.37072 0.35021 0.78492 0.0
H3208 H 0.39371 0.38974 0.77155 0.0
C3209 C 0.39741 0.35794 0.71934 0.0
C3210 C 0.39565 0.37355 0.71198 0.0
C3211 C 0.39372 0.35557 0.73603 0.0
C3212 C 0.38726 0.37864 0.77504 0.0
H3213 H 0.33203 0.3529 0.83308 0.0
H3214 H 0.34455 0.3505 0.80605 0.0
H3215 H 0.38442 0.38713 0.79982 0.0
H3216 H 0.38857 0.39889 0.71633 0.0
H3217 H 0.38182 0.39469 0.74525 0.0
H3218 H 0.37284 0.34218 0.7598 0.0
C3219 C 0.35144 0.35573 0.81613 0.0
C3220 C 0.38215 0.37701 0.79136 0.0
C3221 C 0.34421 0.35716 0.83162 0.0
C3222 C 0.39016 0.38673 0.72165 0.0
C3223 C 0.38639 0.38434 0.73828 0.0
C3224 C 0.37575 0.35191 0.76852 0.0
C3225 C 0.36689 0.36204 0.81346 0.0
C3226 C 0.37362 0.36288 0.79647 0.0
C3227 C 0.38813 0.36874 0.74569 0.0
C3228 C 0.38384 0.36628 0.76334 0.0
H3229 H 0.37454 0.37649 0.85224 0.0
H3230 H 0.38736 0.37348 0.82542 0.0
H3231 H 0.36435 0.33908 0.78847 0.0
H3232 H 0.40167 0.34754 0.71223 0.0
H3233 H 0.39537 0.34345 0.74139 0.0
C3234 C 0.37888 0.63547 0.44474 0.0
C3235 C 0.3698 0.64793 0.43728 0.0
C3236 C 0.3809 0.63512 0.46188 0.0
C3237 C 0.36215 0.6494 0.50031 0.0
H3238 H 0.402 0.63575 0.52016 0.0
C3239 C 0.3679 0.64225 0.57059 0.0
C3240 C 0.37399 0.62691 0.57553 0.0
C3241 C 0.3697 0.64765 0.55428 0.0
C3242 C 0.3908 0.6396 0.51478 0.0
H3243 H 0.35594 0.66995 0.44194 0.0
H3244 H 0.35958 0.66939 0.47183 0.0
H3245 H 0.40034 0.63956 0.49024 0.0
H3246 H 0.38775 0.60577 0.56759 0.0
H3247 H 0.39079 0.61513 0.53919 0.0
H3248 H 0.35249 0.64906 0.52474 0.0
C3249 C 0.36496 0.65978 0.46445 0.0
C3250 C 0.38983 0.64172 0.49766 0.0
C3251 C 0.36291 0.66011 0.44731 0.0
C3252 C 0.38283 0.61762 0.56415 0.0
C3253 C 0.38467 0.62303 0.54788 0.0
C3254 C 0.36313 0.64732 0.51741 0.0
C3255 C 0.37391 0.64723 0.47194 0.0
C3256 C 0.3754 0.64635 0.49021 0.0
C3257 C 0.37768 0.63784 0.54263 0.0
C3258 C 0.37738 0.6421 0.5248 0.0
H3259 H 0.38433 0.6259 0.43736 0.0
H3260 H 0.38765 0.62513 0.46728 0.0
H3261 H 0.3508 0.65276 0.49496 0.0
H3262 H 0.36111 0.64975 0.57908 0.0
H3263 H 0.3644 0.65925 0.55064 0.0
C3264 C 0.1594 0.1302 0.39371 0.0
C3265 C 0.15193 0.14201 0.38368 0.0
C3266 C 0.17373 0.1231 0.38882 0.0
C3267 C 0.2088 0.13248 0.36384 0.0
H3268 H 0.21952 0.08693 0.37323 0.0
C3269 C 0.27197 0.10754 0.35269 0.0
C3270 C 0.27833 0.09812 0.36568 0.0
C3271 C 0.25577 0.11133 0.35236 0.0
C3272 C 0.21672 0.0997 0.37058 0.0
H3273 H 0.15329 0.15512 0.36032 0.0
H3274 H 0.17837 0.14268 0.35178 0.0
H3275 H 0.19217 0.0962 0.37693 0.0
H3276 H 0.27259 0.08493 0.38829 0.0
H3277 H 0.24444 0.09174 0.38784 0.0
H3278 H 0.23339 0.13616 0.35801 0.0
C3279 C 0.17318 0.13905 0.36349 0.0
C3280 C 0.20106 0.10499 0.37267 0.0
C3281 C 0.15878 0.1461 0.36835 0.0
C3282 C 0.26808 0.09223 0.37811 0.0
C3283 C 0.2519 0.09602 0.37778 0.0
C3284 C 0.22445 0.1272 0.36178 0.0
C3285 C 0.18093 0.12769 0.37382 0.0
C3286 C 0.19701 0.12152 0.36965 0.0
C3287 C 0.24559 0.10577 0.36501 0.0
C3288 C 0.22866 0.11084 0.36546 0.0
H3289 H 0.15441 0.12673 0.40557 0.0
H3290 H 0.17948 0.11453 0.39714 0.0
H3291 H 0.2061 0.14535 0.36162 0.0
H3292 H 0.27954 0.11218 0.34286 0.0
H3293 H 0.25124 0.1187 0.34224 0.0
C3294 C 0.78793 0.38894 0.62863 0.0
C3295 C 0.79765 0.37669 0.62172 0.0
C3296 C 0.77136 0.38753 0.62777 0.0
C3297 C 0.73987 0.36809 0.60293 0.0
H3298 H 0.71256 0.37823 0.64017 0.0
C3299 C 0.67201 0.37054 0.59566 0.0
C3300 C 0.66324 0.36154 0.60745 0.0
C3301 C 0.68814 0.37397 0.59823 0.0
C3302 C 0.72006 0.37535 0.62968 0.0
H3303 H 0.79762 0.35315 0.60887 0.0
H3304 H 0.7687 0.3507 0.6074 0.0
H3305 H 0.74151 0.38017 0.64332 0.0
H3306 H 0.66432 0.34985 0.63158 0.0
H3307 H 0.69251 0.35582 0.636 0.0
H3308 H 0.71854 0.36301 0.58935 0.0
C3309 C 0.77391 0.36148 0.61332 0.0
C3310 C 0.73659 0.37657 0.63145 0.0
C3311 C 0.79047 0.36284 0.61425 0.0
C3312 C 0.67075 0.35676 0.62222 0.0
C3313 C 0.68689 0.36024 0.6248 0.0
C3314 C 0.72338 0.36697 0.60114 0.0
C3315 C 0.76419 0.37389 0.61991 0.0
C3316 C 0.74666 0.37282 0.61811 0.0
C3317 C 0.69583 0.36853 0.61265 0.0
C3318 C 0.7133 0.37052 0.6145 0.0
H3319 H 0.7931 0.39976 0.6345 0.0
H3320 H 0.76416 0.39734 0.63285 0.0
H3321 H 0.74733 0.36533 0.59238 0.0
H3322 H 0.66656 0.37451 0.5842 0.0
H3323 H 0.69469 0.38062 0.58876 0.0
C3324 C 0.38044 0.92273 0.38881 0.0
C3325 C 0.37855 0.91354 0.37417 0.0
C3326 C 0.37408 0.93861 0.39006 0.0
C3327 C 0.36315 0.97312 0.36323 0.0
H3328 H 0.34278 0.99109 0.40221 0.0
C3329 C 0.33571 0.03758 0.36231 0.0
C3330 C 0.33857 0.04781 0.37606 0.0
C3331 C 0.33936 0.02082 0.36292 0.0
C3332 C 0.34858 0.98627 0.3913 0.0
H3333 H 0.36766 0.91336 0.3498 0.0
H3334 H 0.35652 0.94086 0.35207 0.0
H3335 H 0.35117 0.9622 0.40202 0.0
H3336 H 0.34717 0.04838 0.40137 0.0
H3337 H 0.35384 0.01911 0.40231 0.0
H3338 H 0.36088 0.99709 0.35255 0.0
C3339 C 0.36318 0.93598 0.36244 0.0
C3340 C 0.35335 0.96975 0.39119 0.0
C3341 C 0.36951 0.92018 0.36117 0.0
C3342 C 0.34482 0.04082 0.39057 0.0
C3343 C 0.34856 0.02403 0.39115 0.0
C3344 C 0.35845 0.98958 0.36335 0.0
C3345 C 0.36575 0.94554 0.3767 0.0
C3346 C 0.3606 0.963 0.37709 0.0
C3347 C 0.34608 0.0139 0.37724 0.0
C3348 C 0.35103 0.99634 0.37733 0.0
H3349 H 0.38732 0.91793 0.39905 0.0
H3350 H 0.37629 0.94572 0.4012 0.0
H3351 H 0.36904 0.96839 0.35232 0.0
H3352 H 0.33074 0.04254 0.351 0.0
H3353 H 0.337 0.01329 0.3521 0.0
C3354 C 0.82005 0.61841 0.13763 0.0
C3355 C 0.82463 0.61986 0.12097 0.0
C3356 C 0.80482 0.61263 0.14176 0.0
C3357 C 0.76913 0.59129 0.12433 0.0
H3358 H 0.74615 0.61704 0.15681 0.0
C3359 C 0.7011 0.59522 0.12522 0.0
C3360 C 0.69323 0.5942 0.14052 0.0
C3361 C 0.71767 0.59619 0.12454 0.0
C3362 C 0.75249 0.60956 0.14791 0.0
H3363 H 0.81704 0.61577 0.09562 0.0
H3364 H 0.79054 0.60599 0.10277 0.0
H3365 H 0.77455 0.62213 0.15261 0.0
H3366 H 0.69657 0.59349 0.16712 0.0
H3367 H 0.72567 0.59547 0.16589 0.0
H3368 H 0.74689 0.57923 0.11916 0.0
C3369 C 0.79871 0.60909 0.11269 0.0
C3370 C 0.76876 0.61243 0.14552 0.0
C3371 C 0.8139 0.61483 0.10858 0.0
C3372 C 0.7023 0.59425 0.15515 0.0
C3373 C 0.71893 0.59542 0.15446 0.0
C3374 C 0.75286 0.58851 0.12664 0.0
C3375 C 0.79388 0.60817 0.12931 0.0
C3376 C 0.77718 0.6036 0.13341 0.0
C3377 C 0.72675 0.59632 0.13913 0.0
C3378 C 0.74431 0.59789 0.13817 0.0
H3379 H 0.82807 0.62211 0.14748 0.0
H3380 H 0.80153 0.61187 0.15468 0.0
H3381 H 0.77533 0.58404 0.11515 0.0
H3382 H 0.69448 0.59516 0.11372 0.0
H3383 H 0.72337 0.59712 0.11257 0.0
C3384 C 0.61384 0.57982 0.39842 0.0
C3385 C 0.61708 0.58959 0.38444 0.0
C3386 C 0.6198 0.56375 0.39952 0.0
C3387 C 0.63143 0.53035 0.37186 0.0
H3388 H 0.64824 0.50923 0.41113 0.0
C3389 C 0.65587 0.46472 0.36896 0.0
C3390 C 0.65184 0.45388 0.38188 0.0
C3391 C 0.65292 0.48158 0.37035 0.0
C3392 C 0.64342 0.51493 0.40011 0.0
H3393 H 0.6301 0.59069 0.36128 0.0
H3394 H 0.64054 0.56285 0.36329 0.0
H3395 H 0.64112 0.5385 0.41202 0.0
H3396 H 0.64187 0.45228 0.40657 0.0
H3397 H 0.63636 0.48177 0.40885 0.0
H3398 H 0.63333 0.50692 0.35999 0.0
C3399 C 0.63313 0.56742 0.37322 0.0
C3400 C 0.6394 0.53167 0.40062 0.0
C3401 C 0.62719 0.5834 0.37211 0.0
C3402 C 0.64511 0.46033 0.39639 0.0
C3403 C 0.64204 0.47724 0.39774 0.0
C3404 C 0.63535 0.51368 0.37137 0.0
C3405 C 0.62908 0.55724 0.38666 0.0
C3406 C 0.63348 0.53956 0.38644 0.0
C3407 C 0.64572 0.48801 0.38463 0.0
C3408 C 0.6415 0.50578 0.38543 0.0
H3409 H 0.60611 0.58426 0.40814 0.0
H3410 H 0.61648 0.55616 0.41001 0.0
H3411 H 0.62653 0.53597 0.36084 0.0
H3412 H 0.66125 0.46017 0.35769 0.0
H3413 H 0.65622 0.48958 0.36016 0.0
C3414 C 0.20275 0.86518 0.87987 0.0
C3415 C 0.19675 0.88078 0.87573 0.0
C3416 C 0.21896 0.86188 0.8782 0.0
C3417 C 0.25634 0.8771 0.85883 0.0
H3418 H 0.27608 0.85361 0.89516 0.0
C3419 C 0.3245 0.87523 0.87023 0.0
C3420 C 0.33085 0.86019 0.87574 0.0
C3421 C 0.30804 0.87704 0.86845 0.0
C3422 C 0.27072 0.85999 0.8848 0.0
H3423 H 0.20299 0.90504 0.86618 0.0
H3424 H 0.2313 0.89938 0.86357 0.0
H3425 H 0.24747 0.85792 0.89529 0.0
H3426 H 0.32495 0.83505 0.88299 0.0
H3427 H 0.29635 0.83822 0.8798 0.0
H3428 H 0.27978 0.87943 0.84856 0.0
C3429 C 0.22346 0.8896 0.86788 0.0
C3430 C 0.25431 0.86243 0.88486 0.0
C3431 C 0.20723 0.89288 0.86948 0.0
C3432 C 0.32046 0.84685 0.87887 0.0
C3433 C 0.30405 0.84867 0.87711 0.0
C3434 C 0.27281 0.87469 0.85881 0.0
C3435 C 0.22953 0.87413 0.87243 0.0
C3436 C 0.24692 0.87105 0.87191 0.0
C3437 C 0.29765 0.86386 0.87218 0.0
C3438 C 0.28016 0.86613 0.87182 0.0
H3439 H 0.19496 0.85554 0.88457 0.0
H3440 H 0.22322 0.84973 0.88153 0.0
H3441 H 0.25098 0.88362 0.84858 0.0
H3442 H 0.3322 0.88573 0.8677 0.0
H3443 H 0.30343 0.88893 0.86473 0.0
C3444 C 0.35516 0.95842 0.10865 0.0
C3445 C 0.34041 0.95415 0.11572 0.0
C3446 C 0.35915 0.97496 0.10577 0.0
C3447 C 0.34988 0.01648 0.12079 0.0
H3448 H 0.37338 0.031 0.08209 0.0
C3449 C 0.36792 0.08432 0.11334 0.0
C3450 C 0.38386 0.08726 0.10888 0.0
C3451 C 0.36115 0.06863 0.11156 0.0
C3452 C 0.36688 0.02711 0.09299 0.0
H3453 H 0.31807 0.96386 0.12483 0.0
H3454 H 0.32502 0.9927 0.11973 0.0
H3455 H 0.36426 0.0023 0.08407 0.0
H3456 H 0.40492 0.07627 0.09815 0.0
H3457 H 0.39318 0.04875 0.09531 0.0
H3458 H 0.35278 0.04105 0.12996 0.0
C3459 C 0.33357 0.98327 0.11661 0.0
C3460 C 0.36166 0.01069 0.09412 0.0
C3461 C 0.32957 0.96673 0.11948 0.0
C3462 C 0.39261 0.07439 0.10171 0.0
C3463 C 0.38586 0.05863 0.10003 0.0
C3464 C 0.35509 0.03284 0.11968 0.0
C3465 C 0.34848 0.98757 0.10992 0.0
C3466 C 0.35322 0.00518 0.10811 0.0
C3467 C 0.37019 0.05547 0.10539 0.0
C3468 C 0.36376 0.03833 0.10583 0.0
H3469 H 0.36377 0.94902 0.10558 0.0
H3470 H 0.3708 0.97788 0.10078 0.0
H3471 H 0.34366 0.01257 0.13186 0.0
H3472 H 0.36079 0.09404 0.1187 0.0
H3473 H 0.34894 0.06669 0.11545 0.0
C3474 C 0.13271 0.91847 0.62679 0.0
C3475 C 0.11902 0.91271 0.61852 0.0
C3476 C 0.13879 0.93425 0.6236 0.0
C3477 C 0.12468 0.97462 0.61066 0.0
H3478 H 0.16949 0.98647 0.61239 0.0
C3479 C 0.14527 0.0426 0.61189 0.0
C3480 C 0.15694 0.04644 0.6238 0.0
C3481 C 0.14182 0.02616 0.60789 0.0
C3482 C 0.15693 0.98334 0.61192 0.0
H3483 H 0.10159 0.91856 0.59961 0.0
H3484 H 0.11225 0.94613 0.59403 0.0
H3485 H 0.16159 0.95739 0.61079 0.0
H3486 H 0.17444 0.03608 0.64051 0.0
H3487 H 0.16823 0.00744 0.63377 0.0
H3488 H 0.11994 0.00044 0.61242 0.0
C3489 C 0.11814 0.9385 0.60314 0.0
C3490 C 0.15242 0.96672 0.61097 0.0
C3491 C 0.11208 0.92268 0.6063 0.0
C3492 C 0.16537 0.03353 0.6313 0.0
C3493 C 0.1619 0.01711 0.62733 0.0
C3494 C 0.12918 0.99122 0.61165 0.0
C3495 C 0.13129 0.9446 0.61208 0.0
C3496 C 0.13623 0.96217 0.6107 0.0
C3497 C 0.14996 0.01323 0.61572 0.0
C3498 C 0.14534 0.99575 0.61267 0.0
H3499 H 0.1384 0.91106 0.63622 0.0
H3500 H 0.14886 0.93863 0.6308 0.0
H3501 H 0.1121 0.97152 0.61072 0.0
H3502 H 0.13865 0.05227 0.60579 0.0
H3503 H 0.1327 0.02358 0.59875 0.0
loop_
_geom_bond_atom_site_label_1
_geom_bond_atom_site_label_2
_geom_bond_distance
_geom_bond_site_symmetry_2
_ccdc_geom_bond_type
C0 O1 1.160 . S
C0 O7 1.185 . S
O1 C0 1.160 . S
O2 Zn3 1.899 . S
O2 C10 1.284 . S
Zn3 O2 1.899 . S
Zn3 O4 2.032 . S
Zn3 O7 2.086 . S
Zn3 O12 1.977 . S
O4 Zn3 2.032 . S
O4 C8 1.278 . S
C5 O6 1.203 . S
C5 O12 1.267 . S
O6 C5 1.203 . S
O7 C0 1.185 . S
O7 Zn3 2.086 . S
C8 O4 1.278 . S
C8 O9 1.211 . S
O9 C8 1.211 . S
C10 O2 1.284 . S
C10 O11 1.273 . S
O11 C10 1.273 . S
O12 Zn3 1.977 . S
O12 C5 1.267 . S
C13 O14 1.160 . S
C13 O20 1.185 . S
O14 C13 1.160 . S
O15 Zn16 1.899 . S
O15 C23 1.284 . S
Zn16 O15 1.899 . S
Zn16 O17 2.032 . S
Zn16 O20 2.086 . S
Zn16 O25 1.977 . S
O17 Zn16 2.032 . S
O17 C21 1.278 . S
C18 O19 1.203 . S
C18 O25 1.267 . S
O19 C18 1.203 . S
O20 C13 1.185 . S
O20 Zn16 2.086 . S
C21 O17 1.278 . S
C21 O22 1.211 . S
O22 C21 1.211 . S
C23 O15 1.284 . S
C23 O24 1.273 . S
O24 C23 1.273 . S
O25 Zn16 1.977 . S
O25 C18 1.267 . S
C26 O27 1.160 . S
C26 O33 1.185 . S
O27 C26 1.160 . S
O28 Zn29 1.899 . S
O28 C36 1.284 . S
Zn29 O28 1.899 . S
Zn29 O30 2.032 . S
Zn29 O33 2.086 . S
Zn29 O38 1.977 . S
O30 Zn29 2.032 . S
O30 C34 1.278 . S
C31 O32 1.203 . S
C31 O38 1.267 . S
O32 C31 1.203 . S
O33 C26 1.185 . S
O33 Zn29 2.086 . S
C34 O30 1.278 . S
C34 O35 1.211 . S
O35 C34 1.211 . S
C36 O28 1.284 . S
C36 O37 1.273 . S
O37 C36 1.273 . S
O38 Zn29 1.977 . S
O38 C31 1.267 . S
C39 O40 1.160 . S
C39 O46 1.185 . S
O40 C39 1.160 . S
O41 Zn42 1.899 . S
O41 C49 1.284 . S
Zn42 O41 1.899 . S
Zn42 O43 2.032 . S
Zn42 O46 2.086 . S
Zn42 O51 1.977 . S
O43 Zn42 2.032 . S
O43 C47 1.278 . S
C44 O45 1.203 . S
C44 O51 1.267 . S
O45 C44 1.203 . S
O46 C39 1.185 . S
O46 Zn42 2.086 . S
C47 O43 1.278 . S
C47 O48 1.211 . S
O48 C47 1.211 . S
C49 O41 1.284 . S
C49 O50 1.273 . S
O50 C49 1.273 . S
O51 Zn42 1.977 . S
O51 C44 1.267 . S
C52 O53 1.160 . S
C52 O59 1.185 . S
O53 C52 1.160 . S
O54 Zn55 1.899 . S
O54 C62 1.284 . S
Zn55 O54 1.899 . S
Zn55 O56 2.032 . S
Zn55 O59 2.086 . S
Zn55 O64 1.977 . S
O56 Zn55 2.032 . S
O56 C60 1.278 . S
C57 O58 1.203 . S
C57 O64 1.267 . S
O58 C57 1.203 . S
O59 C52 1.185 . S
O59 Zn55 2.086 . S
C60 O56 1.278 . S
C60 O61 1.211 . S
O61 C60 1.211 . S
C62 O54 1.284 . S
C62 O63 1.273 . S
O63 C62 1.273 . S
O64 Zn55 1.977 . S
O64 C57 1.267 . S
C65 O66 1.160 . S
C65 O72 1.185 . S
O66 C65 1.160 . S
O67 Zn68 1.899 . S
O67 C75 1.284 . S
Zn68 O67 1.899 . S
Zn68 O69 2.032 . S
Zn68 O72 2.086 . S
Zn68 O77 1.977 . S
O69 Zn68 2.032 . S
O69 C73 1.278 . S
C70 O71 1.203 . S
C70 O77 1.267 . S
O71 C70 1.203 . S
O72 C65 1.185 . S
O72 Zn68 2.086 . S
C73 O69 1.278 . S
C73 O74 1.211 . S
O74 C73 1.211 . S
C75 O67 1.284 . S
C75 O76 1.273 . S
O76 C75 1.273 . S
O77 Zn68 1.977 . S
O77 C70 1.267 . S
C78 O79 1.160 . S
C78 O85 1.185 . S
O79 C78 1.160 . S
O80 Zn81 1.899 . S
O80 C88 1.284 . S
Zn81 O80 1.899 . S
Zn81 O82 2.032 . S
Zn81 O85 2.086 . S
Zn81 O90 1.977 . S
O82 Zn81 2.032 . S
O82 C86 1.278 . S
C83 O84 1.203 . S
C83 O90 1.267 . S
O84 C83 1.203 . S
O85 C78 1.185 . S
O85 Zn81 2.086 . S
C86 O82 1.278 . S
C86 O87 1.211 . S
O87 C86 1.211 . S
C88 O80 1.284 . S
C88 O89 1.273 . S
O89 C88 1.273 . S
O90 Zn81 1.977 . S
O90 C83 1.267 . S
C91 O92 1.160 . S
C91 O98 1.185 . S
O92 C91 1.160 . S
O93 Zn94 1.899 . S
O93 C101 1.284 . S
Zn94 O93 1.899 . S
Zn94 O95 2.032 . S
Zn94 O98 2.086 . S
Zn94 O103 1.977 . S
O95 Zn94 2.032 . S
O95 C99 1.278 . S
C96 O97 1.203 . S
C96 O103 1.267 . S
O97 C96 1.203 . S
O98 C91 1.185 . S
O98 Zn94 2.086 . S
C99 O95 1.278 . S
C99 O100 1.211 . S
O100 C99 1.211 . S
C101 O93 1.284 . S
C101 O102 1.273 . S
O102 C101 1.273 . S
O103 Zn94 1.977 . S
O103 C96 1.267 . S
C104 O105 1.160 . S
C104 O111 1.185 . S
O105 C104 1.160 . S
O106 Zn107 1.899 . S
O106 C114 1.284 . S
Zn107 O106 1.899 . S
Zn107 O108 2.032 . S
Zn107 O111 2.086 . S
Zn107 O116 1.977 . S
O108 Zn107 2.032 . S
O108 C112 1.278 . S
C109 O110 1.203 . S
C109 O116 1.267 . S
O110 C109 1.203 . S
O111 C104 1.185 . S
O111 Zn107 2.086 . S
C112 O108 1.278 . S
C112 O113 1.211 . S
O113 C112 1.211 . S
C114 O106 1.284 . S
C114 O115 1.273 . S
O115 C114 1.273 . S
O116 Zn107 1.977 . S
O116 C109 1.267 . S
C117 O118 1.160 . S
C117 O124 1.185 . S
O118 C117 1.160 . S
O119 Zn120 1.899 . S
O119 C127 1.284 . S
Zn120 O119 1.899 . S
Zn120 O121 2.032 . S
Zn120 O124 2.086 . S
Zn120 O129 1.977 . S
O121 Zn120 2.032 . S
O121 C125 1.278 . S
C122 O123 1.203 . S
C122 O129 1.267 . S
O123 C122 1.203 . S
O124 C117 1.185 . S
O124 Zn120 2.086 . S
C125 O121 1.278 . S
C125 O126 1.211 . S
O126 C125 1.211 . S
C127 O119 1.284 . S
C127 O128 1.273 . S
O128 C127 1.273 . S
O129 Zn120 1.977 . S
O129 C122 1.267 . S
C130 O131 1.160 . S
C130 O137 1.185 . S
O131 C130 1.160 . S
O132 Zn133 1.899 . S
O132 C140 1.284 . S
Zn133 O132 1.899 . S
Zn133 O134 2.032 . S
Zn133 O137 2.086 . S
Zn133 O142 1.977 . S
O134 Zn133 2.032 . S
O134 C138 1.278 . S
C135 O136 1.203 . S
C135 O142 1.267 . S
O136 C135 1.203 . S
O137 C130 1.185 . S
O137 Zn133 2.086 . S
C138 O134 1.278 . S
C138 O139 1.211 . S
O139 C138 1.211 . S
C140 O132 1.284 . S
C140 O141 1.273 . S
O141 C140 1.273 . S
O142 Zn133 1.977 . S
O142 C135 1.267 . S
C143 O144 1.160 . S
C143 O150 1.185 . S
O144 C143 1.160 . S
O145 Zn146 1.899 . S
O145 C153 1.284 . S
Zn146 O145 1.899 . S
Zn146 O147 2.032 . S
Zn146 O150 2.086 . S
Zn146 O155 1.977 . S
O147 Zn146 2.032 . S
O147 C151 1.278 . S
C148 O149 1.203 . S
C148 O155 1.267 . S
O149 C148 1.203 . S
O150 C143 1.185 . S
O150 Zn146 2.086 . S
C151 O147 1.278 . S
C151 O152 1.211 . S
O152 C151 1.211 . S
C153 O145 1.284 . S
C153 O154 1.273 . S
O154 C153 1.273 . S
O155 Zn146 1.977 . S
O155 C148 1.267 . S
C156 O157 1.160 . S
C156 O163 1.185 . S
O157 C156 1.160 . S
O158 Zn159 1.899 . S
O158 C166 1.284 . S
Zn159 O158 1.899 . S
Zn159 O160 2.032 . S
Zn159 O163 2.086 . S
Zn159 O168 1.977 . S
O160 Zn159 2.032 . S
O160 C164 1.278 . S
C161 O162 1.203 . S
C161 O168 1.267 . S
O162 C161 1.203 . S
O163 C156 1.185 . S
O163 Zn159 2.086 . S
C164 O160 1.278 . S
C164 O165 1.211 . S
O165 C164 1.211 . S
C166 O158 1.284 . S
C166 O167 1.273 . S
O167 C166 1.273 . S
O168 Zn159 1.977 . S
O168 C161 1.267 . S
C169 O170 1.160 . S
C169 O176 1.185 . S
O170 C169 1.160 . S
O171 Zn172 1.899 . S
O171 C179 1.284 . S
Zn172 O171 1.899 . S
Zn172 O173 2.032 . S
Zn172 O176 2.086 . S
Zn172 O181 1.977 . S
O173 Zn172 2.032 . S
O173 C177 1.278 . S
C174 O175 1.203 . S
C174 O181 1.267 . S
O175 C174 1.203 . S
O176 C169 1.185 . S
O176 Zn172 2.086 . S
C177 O173 1.278 . S
C177 O178 1.211 . S
O178 C177 1.211 . S
C179 O171 1.284 . S
C179 O180 1.273 . S
O180 C179 1.273 . S
O181 Zn172 1.977 . S
O181 C174 1.267 . S
C182 O183 1.160 . S
C182 O189 1.185 . S
O183 C182 1.160 . S
O184 Zn185 1.899 . S
O184 C192 1.284 . S
Zn185 O184 1.899 . S
Zn185 O186 2.032 . S
Zn185 O189 2.086 . S
Zn185 O194 1.977 . S
O186 Zn185 2.032 . S
O186 C190 1.278 . S
C187 O188 1.203 . S
C187 O194 1.267 . S
O188 C187 1.203 . S
O189 C182 1.185 . S
O189 Zn185 2.086 . S
C190 O186 1.278 . S
C190 O191 1.211 . S
O191 C190 1.211 . S
C192 O184 1.284 . S
C192 O193 1.273 . S
O193 C192 1.273 . S
O194 Zn185 1.977 . S
O194 C187 1.267 . S
C195 O196 1.160 . S
C195 O202 1.185 . S
O196 C195 1.160 . S
O197 Zn198 1.899 . S
O197 C205 1.284 . S
Zn198 O197 1.899 . S
Zn198 O199 2.032 . S
Zn198 O202 2.086 . S
Zn198 O207 1.977 . S
O199 Zn198 2.032 . S
O199 C203 1.278 . S
C200 O201 1.203 . S
C200 O207 1.267 . S
O201 C200 1.203 . S
O202 C195 1.185 . S
O202 Zn198 2.086 . S
C203 O199 1.278 . S
C203 O204 1.211 . S
O204 C203 1.211 . S
C205 O197 1.284 . S
C205 O206 1.273 . S
O206 C205 1.273 . S
O207 Zn198 1.977 . S
O207 C200 1.267 . S
C208 O209 1.160 . S
C208 O215 1.185 . S
O209 C208 1.160 . S
O210 Zn211 1.899 . S
O210 C218 1.284 . S
Zn211 O210 1.899 . S
Zn211 O212 2.032 . S
Zn211 O215 2.086 . S
Zn211 O220 1.977 . S
O212 Zn211 2.032 . S
O212 C216 1.278 . S
C213 O214 1.203 . S
C213 O220 1.267 . S
O214 C213 1.203 . S
O215 C208 1.185 . S
O215 Zn211 2.086 . S
C216 O212 1.278 . S
C216 O217 1.211 . S
O217 C216 1.211 . S
C218 O210 1.284 . S
C218 O219 1.273 . S
O219 C218 1.273 . S
O220 Zn211 1.977 . S
O220 C213 1.267 . S
C221 O222 1.160 . S
C221 O228 1.185 . S
O222 C221 1.160 . S
O223 Zn224 1.899 . S
O223 C231 1.284 . S
Zn224 O223 1.899 . S
Zn224 O225 2.032 . S
Zn224 O228 2.086 . S
Zn224 O233 1.977 . S
O225 Zn224 2.032 . S
O225 C229 1.278 . S
C226 O227 1.203 . S
C226 O233 1.267 . S
O227 C226 1.203 . S
O228 C221 1.185 . S
O228 Zn224 2.086 . S
C229 O225 1.278 . S
C229 O230 1.211 . S
O230 C229 1.211 . S
C231 O223 1.284 . S
C231 O232 1.273 . S
O232 C231 1.273 . S
O233 Zn224 1.977 . S
O233 C226 1.267 . S
C234 O235 1.160 . S
C234 O241 1.185 . S
O235 C234 1.160 . S
O236 Zn237 1.899 . S
O236 C244 1.284 . S
Zn237 O236 1.899 . S
Zn237 O238 2.032 . S
Zn237 O241 2.086 . S
Zn237 O246 1.977 . S
O238 Zn237 2.032 . S
O238 C242 1.278 . S
C239 O240 1.203 . S
C239 O246 1.267 . S
O240 C239 1.203 . S
O241 C234 1.185 . S
O241 Zn237 2.086 . S
C242 O238 1.278 . S
C242 O243 1.211 . S
O243 C242 1.211 . S
C244 O236 1.284 . S
C244 O245 1.273 . S
O245 C244 1.273 . S
O246 Zn237 1.977 . S
O246 C239 1.267 . S
C247 O248 1.160 . S
C247 O254 1.185 . S
O248 C247 1.160 . S
O249 Zn250 1.899 . S
O249 C257 1.284 . S
Zn250 O249 1.899 . S
Zn250 O251 2.032 . S
Zn250 O254 2.086 . S
Zn250 O259 1.977 . S
O251 Zn250 2.032 . S
O251 C255 1.278 . S
C252 O253 1.203 . S
C252 O259 1.267 . S
O253 C252 1.203 . S
O254 C247 1.185 . S
O254 Zn250 2.086 . S
C255 O251 1.278 . S
C255 O256 1.211 . S
O256 C255 1.211 . S
C257 O249 1.284 . S
C257 O258 1.273 . S
O258 C257 1.273 . S
O259 Zn250 1.977 . S
O259 C252 1.267 . S
C260 O261 1.160 . S
C260 O267 1.185 . S
O261 C260 1.160 . S
O262 Zn263 1.899 . S
O262 C270 1.284 . S
Zn263 O262 1.899 . S
Zn263 O264 2.032 . S
Zn263 O267 2.086 . S
Zn263 O272 1.977 . S
O264 Zn263 2.032 . S
O264 C268 1.278 . S
C265 O266 1.203 . S
C265 O272 1.267 . S
O266 C265 1.203 . S
O267 C260 1.185 . S
O267 Zn263 2.086 . S
C268 O264 1.278 . S
C268 O269 1.211 . S
O269 C268 1.211 . S
C270 O262 1.284 . S
C270 O271 1.273 . S
O271 C270 1.273 . S
O272 Zn263 1.977 . S
O272 C265 1.267 . S
C273 O274 1.160 . S
C273 O280 1.185 . S
O274 C273 1.160 . S
O275 Zn276 1.899 . S
O275 C283 1.284 . S
Zn276 O275 1.899 . S
Zn276 O277 2.032 . S
Zn276 O280 2.086 . S
Zn276 O285 1.977 . S
O277 Zn276 2.032 . S
O277 C281 1.278 . S
C278 O279 1.203 . S
C278 O285 1.267 . S
O279 C278 1.203 . S
O280 C273 1.185 . S
O280 Zn276 2.086 . S
C281 O277 1.278 . S
C281 O282 1.211 . S
O282 C281 1.211 . S
C283 O275 1.284 . S
C283 O284 1.273 . S
O284 C283 1.273 . S
O285 Zn276 1.977 . S
O285 C278 1.267 . S
C286 O287 1.160 . S
C286 O293 1.185 . S
O287 C286 1.160 . S
O288 Zn289 1.899 . S
O288 C296 1.284 . S
Zn289 O288 1.899 . S
Zn289 O290 2.032 . S
Zn289 O293 2.086 . S
Zn289 O298 1.977 . S
O290 Zn289 2.032 . S
O290 C294 1.278 . S
C291 O292 1.203 . S
C291 O298 1.267 . S
O292 C291 1.203 . S
O293 C286 1.185 . S
O293 Zn289 2.086 . S
C294 O290 1.278 . S
C294 O295 1.211 . S
O295 C294 1.211 . S
C296 O288 1.284 . S
C296 O297 1.273 . S
O297 C296 1.273 . S
O298 Zn289 1.977 . S
O298 C291 1.267 . S
C299 O300 1.160 . S
C299 O306 1.185 . S
O300 C299 1.160 . S
O301 Zn302 1.899 . S
O301 C309 1.284 . S
Zn302 O301 1.899 . S
Zn302 O303 2.032 . S
Zn302 O306 2.086 . S
Zn302 O311 1.977 . S
O303 Zn302 2.032 . S
O303 C307 1.278 . S
C304 O305 1.203 . S
C304 O311 1.267 . S
O305 C304 1.203 . S
O306 C299 1.185 . S
O306 Zn302 2.086 . S
C307 O303 1.278 . S
C307 O308 1.211 . S
O308 C307 1.211 . S
C309 O301 1.284 . S
C309 O310 1.273 . S
O310 C309 1.273 . S
O311 Zn302 1.977 . S
O311 C304 1.267 . S
C312 O313 1.160 . S
C312 O319 1.185 . S
O313 C312 1.160 . S
O314 Zn315 1.899 . S
O314 C322 1.284 . S
Zn315 O314 1.899 . S
Zn315 O316 2.032 . S
Zn315 O319 2.086 . S
Zn315 O324 1.977 . S
O316 Zn315 2.032 . S
O316 C320 1.278 . S
C317 O318 1.203 . S
C317 O324 1.267 . S
O318 C317 1.203 . S
O319 C312 1.185 . S
O319 Zn315 2.086 . S
C320 O316 1.278 . S
C320 O321 1.211 . S
O321 C320 1.211 . S
C322 O314 1.284 . S
C322 O323 1.273 . S
O323 C322 1.273 . S
O324 Zn315 1.977 . S
O324 C317 1.267 . S
C325 O326 1.160 . S
C325 O332 1.185 . S
O326 C325 1.160 . S
O327 Zn328 1.899 . S
O327 C335 1.284 . S
Zn328 O327 1.899 . S
Zn328 O329 2.032 . S
Zn328 O332 2.086 . S
Zn328 O337 1.977 . S
O329 Zn328 2.032 . S
O329 C333 1.278 . S
C330 O331 1.203 . S
C330 O337 1.267 . S
O331 C330 1.203 . S
O332 C325 1.185 . S
O332 Zn328 2.086 . S
C333 O329 1.278 . S
C333 O334 1.211 . S
O334 C333 1.211 . S
C335 O327 1.284 . S
C335 O336 1.273 . S
O336 C335 1.273 . S
O337 Zn328 1.977 . S
O337 C330 1.267 . S
C338 O339 1.160 . S
C338 O345 1.185 . S
O339 C338 1.160 . S
O340 Zn341 1.899 . S
O340 C348 1.284 . S
Zn341 O340 1.899 . S
Zn341 O342 2.032 . S
Zn341 O345 2.086 . S
Zn341 O350 1.977 . S
O342 Zn341 2.032 . S
O342 C346 1.278 . S
C343 O344 1.203 . S
C343 O350 1.267 . S
O344 C343 1.203 . S
O345 C338 1.185 . S
O345 Zn341 2.086 . S
C346 O342 1.278 . S
C346 O347 1.211 . S
O347 C346 1.211 . S
C348 O340 1.284 . S
C348 O349 1.273 . S
O349 C348 1.273 . S
O350 Zn341 1.977 . S
O350 C343 1.267 . S
C351 O352 1.160 . S
C351 O358 1.185 . S
O352 C351 1.160 . S
O353 Zn354 1.899 . S
O353 C361 1.284 . S
Zn354 O353 1.899 . S
Zn354 O355 2.032 . S
Zn354 O358 2.086 . S
Zn354 O363 1.977 . S
O355 Zn354 2.032 . S
O355 C359 1.278 . S
C356 O357 1.203 . S
C356 O363 1.267 . S
O357 C356 1.203 . S
O358 C351 1.185 . S
O358 Zn354 2.086 . S
C359 O355 1.278 . S
C359 O360 1.211 . S
O360 C359 1.211 . S
C361 O353 1.284 . S
C361 O362 1.273 . S
O362 C361 1.273 . S
O363 Zn354 1.977 . S
O363 C356 1.267 . S
C364 O365 1.160 . S
C364 O371 1.185 . S
O365 C364 1.160 . S
O366 Zn367 1.899 . S
O366 C374 1.284 . S
Zn367 O366 1.899 . S
Zn367 O368 2.032 . S
Zn367 O371 2.086 . S
Zn367 O376 1.977 . S
O368 Zn367 2.032 . S
O368 C372 1.278 . S
C369 O370 1.203 . S
C369 O376 1.267 . S
O370 C369 1.203 . S
O371 C364 1.185 . S
O371 Zn367 2.086 . S
C372 O368 1.278 . S
C372 O373 1.211 . S
O373 C372 1.211 . S
C374 O366 1.284 . S
C374 O375 1.273 . S
O375 C374 1.273 . S
O376 Zn367 1.977 . S
O376 C369 1.267 . S
C377 O378 1.160 . S
C377 O384 1.185 . S
O378 C377 1.160 . S
O379 Zn380 1.899 . S
O379 C387 1.284 . S
Zn380 O379 1.899 . S
Zn380 O381 2.032 . S
Zn380 O384 2.086 . S
Zn380 O389 1.977 . S
O381 Zn380 2.032 . S
O381 C385 1.278 . S
C382 O383 1.203 . S
C382 O389 1.267 . S
O383 C382 1.203 . S
O384 C377 1.185 . S
O384 Zn380 2.086 . S
C385 O381 1.278 . S
C385 O386 1.211 . S
O386 C385 1.211 . S
C387 O379 1.284 . S
C387 O388 1.273 . S
O388 C387 1.273 . S
O389 Zn380 1.977 . S
O389 C382 1.267 . S
C390 O391 1.160 . S
C390 O397 1.185 . S
O391 C390 1.160 . S
O392 Zn393 1.899 . S
O392 C400 1.284 . S
Zn393 O392 1.899 . S
Zn393 O394 2.032 . S
Zn393 O397 2.086 . S
Zn393 O402 1.977 . S
O394 Zn393 2.032 . S
O394 C398 1.278 . S
C395 O396 1.203 . S
C395 O402 1.267 . S
O396 C395 1.203 . S
O397 C390 1.185 . S
O397 Zn393 2.086 . S
C398 O394 1.278 . S
C398 O399 1.211 . S
O399 C398 1.211 . S
C400 O392 1.284 . S
C400 O401 1.273 . S
O401 C400 1.273 . S
O402 Zn393 1.977 . S
O402 C395 1.267 . S
C403 O404 1.160 . S
C403 O410 1.185 . S
O404 C403 1.160 . S
O405 Zn406 1.899 . S
O405 C413 1.284 . S
Zn406 O405 1.899 . S
Zn406 O407 2.032 . S
Zn406 O410 2.086 . S
Zn406 O415 1.977 . S
O407 Zn406 2.032 . S
O407 C411 1.278 . S
C408 O409 1.203 . S
C408 O415 1.267 . S
O409 C408 1.203 . S
O410 C403 1.185 . S
O410 Zn406 2.086 . S
C411 O407 1.278 . S
C411 O412 1.211 . S
O412 C411 1.211 . S
C413 O405 1.284 . S
C413 O414 1.273 . S
O414 C413 1.273 . S
O415 Zn406 1.977 . S
O415 C408 1.267 . S
C416 O417 1.160 . S
C416 O423 1.185 . S
O417 C416 1.160 . S
O418 Zn419 1.899 . S
O418 C426 1.284 . S
Zn419 O418 1.899 . S
Zn419 O420 2.032 . S
Zn419 O423 2.086 . S
Zn419 O428 1.977 . S
O420 Zn419 2.032 . S
O420 C424 1.278 . S
C421 O422 1.203 . S
C421 O428 1.267 . S
O422 C421 1.203 . S
O423 C416 1.185 . S
O423 Zn419 2.086 . S
C424 O420 1.278 . S
C424 O425 1.211 . S
O425 C424 1.211 . S
C426 O418 1.284 . S
C426 O427 1.273 . S
O427 C426 1.273 . S
O428 Zn419 1.977 . S
O428 C421 1.267 . S
C429 O430 1.160 . S
C429 O436 1.185 . S
O430 C429 1.160 . S
O431 Zn432 1.899 . S
O431 C439 1.284 . S
Zn432 O431 1.899 . S
Zn432 O433 2.032 . S
Zn432 O436 2.086 . S
Zn432 O441 1.977 . S
O433 Zn432 2.032 . S
O433 C437 1.278 . S
C434 O435 1.203 . S
C434 O441 1.267 . S
O435 C434 1.203 . S
O436 C429 1.185 . S
O436 Zn432 2.086 . S
C437 O433 1.278 . S
C437 O438 1.211 . S
O438 C437 1.211 . S
C439 O431 1.284 . S
C439 O440 1.273 . S
O440 C439 1.273 . S
O441 Zn432 1.977 . S
O441 C434 1.267 . S
C442 O443 1.160 . S
C442 O449 1.185 . S
O443 C442 1.160 . S
O444 Zn445 1.899 . S
O444 C452 1.284 . S
Zn445 O444 1.899 . S
Zn445 O446 2.032 . S
Zn445 O449 2.086 . S
Zn445 O454 1.977 . S
O446 Zn445 2.032 . S
O446 C450 1.278 . S
C447 O448 1.203 . S
C447 O454 1.267 . S
O448 C447 1.203 . S
O449 C442 1.185 . S
O449 Zn445 2.086 . S
C450 O446 1.278 . S
C450 O451 1.211 . S
O451 C450 1.211 . S
C452 O444 1.284 . S
C452 O453 1.273 . S
O453 C452 1.273 . S
O454 Zn445 1.977 . S
O454 C447 1.267 . S
C455 O456 1.160 . S
C455 O462 1.185 . S
O456 C455 1.160 . S
O457 Zn458 1.899 . S
O457 C465 1.284 . S
Zn458 O457 1.899 . S
Zn458 O459 2.032 . S
Zn458 O462 2.086 . S
Zn458 O467 1.977 . S
O459 Zn458 2.032 . S
O459 C463 1.278 . S
C460 O461 1.203 . S
C460 O467 1.267 . S
O461 C460 1.203 . S
O462 C455 1.185 . S
O462 Zn458 2.086 . S
C463 O459 1.278 . S
C463 O464 1.211 . S
O464 C463 1.211 . S
C465 O457 1.284 . S
C465 O466 1.273 . S
O466 C465 1.273 . S
O467 Zn458 1.977 . S
O467 C460 1.267 . S
C468 O469 1.160 . S
C468 O475 1.185 . S
O469 C468 1.160 . S
O470 Zn471 1.899 . S
O470 C478 1.284 . S
Zn471 O470 1.899 . S
Zn471 O472 2.032 . S
Zn471 O475 2.086 . S
Zn471 O480 1.977 . S
O472 Zn471 2.032 . S
O472 C476 1.278 . S
C473 O474 1.203 . S
C473 O480 1.267 . S
O474 C473 1.203 . S
O475 C468 1.185 . S
O475 Zn471 2.086 . S
C476 O472 1.278 . S
C476 O477 1.211 . S
O477 C476 1.211 . S
C478 O470 1.284 . S
C478 O479 1.273 . S
O479 C478 1.273 . S
O480 Zn471 1.977 . S
O480 C473 1.267 . S
C481 O482 1.160 . S
C481 O488 1.185 . S
O482 C481 1.160 . S
O483 Zn484 1.899 . S
O483 C491 1.284 . S
Zn484 O483 1.899 . S
Zn484 O485 2.032 . S
Zn484 O488 2.086 . S
Zn484 O493 1.977 . S
O485 Zn484 2.032 . S
O485 C489 1.278 . S
C486 O487 1.203 . S
C486 O493 1.267 . S
O487 C486 1.203 . S
O488 C481 1.185 . S
O488 Zn484 2.086 . S
C489 O485 1.278 . S
C489 O490 1.211 . S
O490 C489 1.211 . S
C491 O483 1.284 . S
C491 O492 1.273 . S
O492 C491 1.273 . S
O493 Zn484 1.977 . S
O493 C486 1.267 . S
C494 O495 1.160 . S
C494 O501 1.185 . S
O495 C494 1.160 . S
O496 Zn497 1.899 . S
O496 C504 1.284 . S
Zn497 O496 1.899 . S
Zn497 O498 2.032 . S
Zn497 O501 2.086 . S
Zn497 O506 1.977 . S
O498 Zn497 2.032 . S
O498 C502 1.278 . S
C499 O500 1.203 . S
C499 O506 1.267 . S
O500 C499 1.203 . S
O501 C494 1.185 . S
O501 Zn497 2.086 . S
C502 O498 1.278 . S
C502 O503 1.211 . S
O503 C502 1.211 . S
C504 O496 1.284 . S
C504 O505 1.273 . S
O505 C504 1.273 . S
O506 Zn497 1.977 . S
O506 C499 1.267 . S
C507 O508 1.160 . S
C507 O514 1.185 . S
O508 C507 1.160 . S
O509 Zn510 1.899 . S
O509 C517 1.284 . S
Zn510 O509 1.899 . S
Zn510 O511 2.032 . S
Zn510 O514 2.086 . S
Zn510 O519 1.977 . S
O511 Zn510 2.032 . S
O511 C515 1.278 . S
C512 O513 1.203 . S
C512 O519 1.267 . S
O513 C512 1.203 . S
O514 C507 1.185 . S
O514 Zn510 2.086 . S
C515 O511 1.278 . S
C515 O516 1.211 . S
O516 C515 1.211 . S
C517 O509 1.284 . S
C517 O518 1.273 . S
O518 C517 1.273 . S
O519 Zn510 1.977 . S
O519 C512 1.267 . S
C520 O521 1.160 . S
C520 O527 1.185 . S
O521 C520 1.160 . S
O522 Zn523 1.899 . S
O522 C530 1.284 . S
Zn523 O522 1.899 . S
Zn523 O524 2.032 . S
Zn523 O527 2.086 . S
Zn523 O532 1.977 . S
O524 Zn523 2.032 . S
O524 C528 1.278 . S
C525 O526 1.203 . S
C525 O532 1.267 . S
O526 C525 1.203 . S
O527 C520 1.185 . S
O527 Zn523 2.086 . S
C528 O524 1.278 . S
C528 O529 1.211 . S
O529 C528 1.211 . S
C530 O522 1.284 . S
C530 O531 1.273 . S
O531 C530 1.273 . S
O532 Zn523 1.977 . S
O532 C525 1.267 . S
C533 O534 1.160 . S
C533 O540 1.185 . S
O534 C533 1.160 . S
O535 Zn536 1.899 . S
O535 C543 1.284 . S
Zn536 O535 1.899 . S
Zn536 O537 2.032 . S
Zn536 O540 2.086 . S
Zn536 O545 1.977 . S
O537 Zn536 2.032 . S
O537 C541 1.278 . S
C538 O539 1.203 . S
C538 O545 1.267 . S
O539 C538 1.203 . S
O540 C533 1.185 . S
O540 Zn536 2.086 . S
C541 O537 1.278 . S
C541 O542 1.211 . S
O542 C541 1.211 . S
C543 O535 1.284 . S
C543 O544 1.273 . S
O544 C543 1.273 . S
O545 Zn536 1.977 . S
O545 C538 1.267 . S
C546 O547 1.160 . S
C546 O553 1.185 . S
O547 C546 1.160 . S
O548 Zn549 1.899 . S
O548 C556 1.284 . S
Zn549 O548 1.899 . S
Zn549 O550 2.032 . S
Zn549 O553 2.086 . S
Zn549 O558 1.977 . S
O550 Zn549 2.032 . S
O550 C554 1.278 . S
C551 O552 1.203 . S
C551 O558 1.267 . S
O552 C551 1.203 . S
O553 C546 1.185 . S
O553 Zn549 2.086 . S
C554 O550 1.278 . S
C554 O555 1.211 . S
O555 C554 1.211 . S
C556 O548 1.284 . S
C556 O557 1.273 . S
O557 C556 1.273 . S
O558 Zn549 1.977 . S
O558 C551 1.267 . S
C559 O560 1.160 . S
C559 O566 1.185 . S
O560 C559 1.160 . S
O561 Zn562 1.899 . S
O561 C569 1.284 . S
Zn562 O561 1.899 . S
Zn562 O563 2.032 . S
Zn562 O566 2.086 . S
Zn562 O571 1.977 . S
O563 Zn562 2.032 . S
O563 C567 1.278 . S
C564 O565 1.203 . S
C564 O571 1.267 . S
O565 C564 1.203 . S
O566 C559 1.185 . S
O566 Zn562 2.086 . S
C567 O563 1.278 . S
C567 O568 1.211 . S
O568 C567 1.211 . S
C569 O561 1.284 . S
C569 O570 1.273 . S
O570 C569 1.273 . S
O571 Zn562 1.977 . S
O571 C564 1.267 . S
C572 O573 1.160 . S
C572 O579 1.185 . S
O573 C572 1.160 . S
O574 Zn575 1.899 . S
O574 C582 1.284 . S
Zn575 O574 1.899 . S
Zn575 O576 2.032 . S
Zn575 O579 2.086 . S
Zn575 O584 1.977 . S
O576 Zn575 2.032 . S
O576 C580 1.278 . S
C577 O578 1.203 . S
C577 O584 1.267 . S
O578 C577 1.203 . S
O579 C572 1.185 . S
O579 Zn575 2.086 . S
C580 O576 1.278 . S
C580 O581 1.211 . S
O581 C580 1.211 . S
C582 O574 1.284 . S
C582 O583 1.273 . S
O583 C582 1.273 . S
O584 Zn575 1.977 . S
O584 C577 1.267 . S
C585 O586 1.160 . S
C585 O592 1.185 . S
O586 C585 1.160 . S
O587 Zn588 1.899 . S
O587 C595 1.284 . S
Zn588 O587 1.899 . S
Zn588 O589 2.032 . S
Zn588 O592 2.086 . S
Zn588 O597 1.977 . S
O589 Zn588 2.032 . S
O589 C593 1.278 . S
C590 O591 1.203 . S
C590 O597 1.267 . S
O591 C590 1.203 . S
O592 C585 1.185 . S
O592 Zn588 2.086 . S
C593 O589 1.278 . S
C593 O594 1.211 . S
O594 C593 1.211 . S
C595 O587 1.284 . S
C595 O596 1.273 . S
O596 C595 1.273 . S
O597 Zn588 1.977 . S
O597 C590 1.267 . S
C598 O599 1.160 . S
C598 O605 1.185 . S
O599 C598 1.160 . S
O600 Zn601 1.899 . S
O600 C608 1.284 . S
Zn601 O600 1.899 . S
Zn601 O602 2.032 . S
Zn601 O605 2.086 . S
Zn601 O610 1.977 . S
O602 Zn601 2.032 . S
O602 C606 1.278 . S
C603 O604 1.203 . S
C603 O610 1.267 . S
O604 C603 1.203 . S
O605 C598 1.185 . S
O605 Zn601 2.086 . S
C606 O602 1.278 . S
C606 O607 1.211 . S
O607 C606 1.211 . S
C608 O600 1.284 . S
C608 O609 1.273 . S
O609 C608 1.273 . S
O610 Zn601 1.977 . S
O610 C603 1.267 . S
C611 O612 1.160 . S
C611 O618 1.185 . S
O612 C611 1.160 . S
O613 Zn614 1.899 . S
O613 C621 1.284 . S
Zn614 O613 1.899 . S
Zn614 O615 2.032 . S
Zn614 O618 2.086 . S
Zn614 O623 1.977 . S
O615 Zn614 2.032 . S
O615 C619 1.278 . S
C616 O617 1.203 . S
C616 O623 1.267 . S
O617 C616 1.203 . S
O618 C611 1.185 . S
O618 Zn614 2.086 . S
C619 O615 1.278 . S
C619 O620 1.211 . S
O620 C619 1.211 . S
C621 O613 1.284 . S
C621 O622 1.273 . S
O622 C621 1.273 . S
O623 Zn614 1.977 . S
O623 C616 1.267 . S
C624 C625 1.349 . S
C624 C626 1.327 . S
C624 H649 0.950 . S
C625 C624 1.349 . S
C625 C641 1.349 . S
C626 C624 1.327 . S
C626 C645 1.429 . S
C626 H650 0.950 . S
C627 C644 1.574 . S
C627 C646 1.368 . S
C627 H651 0.949 . S
H628 C632 0.949 . S
C629 C630 1.349 . S
C629 C631 1.327 . S
C629 H652 0.950 . S
C630 C629 1.349 . S
C630 C642 1.349 . S
C631 C629 1.327 . S
C631 C647 1.429 . S
C631 H653 0.950 . S
C632 H628 0.949 . S
C632 C640 1.574 . S
C632 C648 1.368 . S
H633 C641 0.950 . S
H634 C639 0.950 . S
H635 C640 0.949 . S
H636 C642 0.950 . S
H637 C643 0.950 . S
H638 C644 0.949 . S
C639 H634 0.950 . S
C639 C641 1.327 . S
C639 C645 1.429 . S
C640 C632 1.574 . S
C640 H635 0.949 . S
C640 C646 1.368 . S
C641 C625 1.349 . S
C641 H633 0.950 . S
C641 C639 1.327 . S
C642 C630 1.349 . S
C642 H636 0.950 . S
C642 C643 1.327 . S
C643 H637 0.950 . S
C643 C642 1.327 . S
C643 C647 1.429 . S
C644 C627 1.574 . S
C644 H638 0.949 . S
C644 C648 1.368 . S
C645 C626 1.429 . S
C645 C639 1.429 . S
C645 C646 1.523 . S
C646 C627 1.368 . S
C646 C640 1.368 . S
C646 C645 1.523 . S
C647 C631 1.429 . S
C647 C643 1.429 . S
C647 C648 1.523 . S
C648 C632 1.368 . S
C648 C644 1.368 . S
C648 C647 1.523 . S
H649 C624 0.950 . S
H650 C626 0.950 . S
H651 C627 0.949 . S
H652 C629 0.950 . S
H653 C631 0.950 . S
C654 C655 1.349 . S
C654 C656 1.327 . S
C654 H679 0.950 . S
C655 C654 1.349 . S
C655 C671 1.349 . S
C656 C654 1.327 . S
C656 C675 1.429 . S
C656 H680 0.950 . S
C657 C674 1.574 . S
C657 C676 1.368 . S
C657 H681 0.949 . S
H658 C662 0.949 . S
C659 C660 1.349 . S
C659 C661 1.327 . S
C659 H682 0.950 . S
C660 C659 1.349 . S
C660 C672 1.349 . S
C661 C659 1.327 . S
C661 C677 1.429 . S
C661 H683 0.950 . S
C662 H658 0.949 . S
C662 C670 1.574 . S
C662 C678 1.368 . S
H663 C671 0.950 . S
H664 C669 0.950 . S
H665 C670 0.949 1_455 S
H666 C672 0.950 . S
H667 C673 0.950 . S
H668 C674 0.949 . S
C669 H664 0.950 . S
C669 C671 1.327 . S
C669 C675 1.429 . S
C670 C662 1.574 . S
C670 H665 0.949 1_655 S
C670 C676 1.368 . S
C671 C655 1.349 . S
C671 H663 0.950 . S
C671 C669 1.327 . S
C672 C660 1.349 . S
C672 H666 0.950 . S
C672 C673 1.327 . S
C673 H667 0.950 . S
C673 C672 1.327 . S
C673 C677 1.429 . S
C674 C657 1.574 . S
C674 H668 0.949 . S
C674 C678 1.368 . S
C675 C656 1.429 . S
C675 C669 1.429 . S
C675 C676 1.523 1_455 S
C676 C657 1.368 . S
C676 C670 1.368 . S
C676 C675 1.523 1_655 S
C677 C661 1.429 . S
C677 C673 1.429 . S
C677 C678 1.523 . S
C678 C662 1.368 . S
C678 C674 1.368 . S
C678 C677 1.523 . S
H679 C654 0.950 . S
H680 C656 0.950 . S
H681 C657 0.949 . S
H682 C659 0.950 . S
H683 C661 0.950 . S
C684 C685 1.349 . S
C684 C686 1.327 . S
C684 H709 0.950 . S
C685 C684 1.349 . S
C685 C701 1.349 . S
C686 C684 1.327 . S
C686 C705 1.429 . S
C686 H710 0.950 . S
C687 C704 1.574 . S
C687 C706 1.368 . S
C687 H711 0.949 . S
H688 C692 0.949 . S
C689 C690 1.349 . S
C689 C691 1.327 . S
C689 H712 0.950 . S
C690 C689 1.349 . S
C690 C702 1.349 . S
C691 C689 1.327 . S
C691 C707 1.429 . S
C691 H713 0.950 . S
C692 H688 0.949 . S
C692 C700 1.574 . S
C692 C708 1.368 . S
H693 C701 0.950 . S
H694 C699 0.950 . S
H695 C700 0.949 . S
H696 C702 0.950 . S
H697 C703 0.950 . S
H698 C704 0.949 . S
C699 H694 0.950 . S
C699 C701 1.327 . S
C699 C705 1.429 . S
C700 C692 1.574 . S
C700 H695 0.949 . S
C700 C706 1.368 . S
C701 C685 1.349 . S
C701 H693 0.950 . S
C701 C699 1.327 . S
C702 C690 1.349 . S
C702 H696 0.950 . S
C702 C703 1.327 . S
C703 H697 0.950 . S
C703 C702 1.327 . S
C703 C707 1.429 . S
C704 C687 1.574 . S
C704 H698 0.949 . S
C704 C708 1.368 . S
C705 C686 1.429 . S
C705 C699 1.429 . S
C705 C706 1.523 . S
C706 C687 1.368 . S
C706 C700 1.368 . S
C706 C705 1.523 . S
C707 C691 1.429 . S
C707 C703 1.429 . S
C707 C708 1.523 . S
C708 C692 1.368 . S
C708 C704 1.368 . S
C708 C707 1.523 . S
H709 C684 0.950 . S
H710 C686 0.950 . S
H711 C687 0.949 . S
H712 C689 0.950 . S
H713 C691 0.950 . S
C714 C715 1.349 . S
C714 C716 1.327 . S
C714 H739 0.950 . S
C715 C714 1.349 . S
C715 C731 1.349 . S
C716 C714 1.327 . S
C716 C735 1.429 . S
C716 H740 0.950 . S
C717 C734 1.574 . S
C717 C736 1.368 . S
C717 H741 0.949 . S
H718 C722 0.949 . S
C719 C720 1.349 . S
C719 C721 1.327 . S
C719 H742 0.950 . S
C720 C719 1.349 . S
C720 C732 1.349 . S
C721 C719 1.327 . S
C721 C737 1.429 . S
C721 H743 0.950 . S
C722 H718 0.949 . S
C722 C730 1.574 . S
C722 C738 1.368 . S
H723 C731 0.950 . S
H724 C729 0.950 . S
H725 C730 0.949 . S
H726 C732 0.950 . S
H727 C733 0.950 . S
H728 C734 0.949 . S
C729 H724 0.950 . S
C729 C731 1.327 . S
C729 C735 1.429 . S
C730 C722 1.574 . S
C730 H725 0.949 . S
C730 C736 1.368 . S
C731 C715 1.349 . S
C731 H723 0.950 . S
C731 C729 1.327 . S
C732 C720 1.349 . S
C732 H726 0.950 . S
C732 C733 1.327 . S
C733 H727 0.950 . S
C733 C732 1.327 . S
C733 C737 1.429 . S
C734 C717 1.574 . S
C734 H728 0.949 . S
C734 C738 1.368 . S
C735 C716 1.429 . S
C735 C729 1.429 . S
C735 C736 1.523 . S
C736 C717 1.368 . S
C736 C730 1.368 . S
C736 C735 1.523 . S
C737 C721 1.429 . S
C737 C733 1.429 . S
C737 C738 1.523 . S
C738 C722 1.368 . S
C738 C734 1.368 . S
C738 C737 1.523 . S
H739 C714 0.950 . S
H740 C716 0.950 . S
H741 C717 0.949 . S
H742 C719 0.950 . S
H743 C721 0.950 . S
C744 C745 1.349 . S
C744 C746 1.327 . S
C744 H769 0.950 . S
C745 C744 1.349 . S
C745 C761 1.349 . S
C746 C744 1.327 . S
C746 C765 1.429 . S
C746 H770 0.950 . S
C747 C764 1.574 . S
C747 C766 1.368 . S
C747 H771 0.949 . S
H748 C752 0.949 . S
C749 C750 1.349 . S
C749 C751 1.327 . S
C749 H772 0.950 . S
C750 C749 1.349 . S
C750 C762 1.349 . S
C751 C749 1.327 . S
C751 C767 1.429 . S
C751 H773 0.950 . S
C752 H748 0.949 . S
C752 C760 1.574 . S
C752 C768 1.368 . S
H753 C761 0.950 . S
H754 C759 0.950 . S
H755 C760 0.949 . S
H756 C762 0.950 . S
H757 C763 0.950 . S
H758 C764 0.949 . S
C759 H754 0.950 . S
C759 C761 1.327 . S
C759 C765 1.429 . S
C760 C752 1.574 . S
C760 H755 0.949 . S
C760 C766 1.368 . S
C761 C745 1.349 . S
C761 H753 0.950 . S
C761 C759 1.327 . S
C762 C750 1.349 . S
C762 H756 0.950 . S
C762 C763 1.327 . S
C763 H757 0.950 . S
C763 C762 1.327 . S
C763 C767 1.429 . S
C764 C747 1.574 . S
C764 H758 0.949 . S
C764 C768 1.368 . S
C765 C746 1.429 . S
C765 C759 1.429 . S
C765 C766 1.523 . S
C766 C747 1.368 . S
C766 C760 1.368 . S
C766 C765 1.523 . S
C767 C751 1.429 . S
C767 C763 1.429 . S
C767 C768 1.523 . S
C768 C752 1.368 . S
C768 C764 1.368 . S
C768 C767 1.523 . S
H769 C744 0.950 . S
H770 C746 0.950 . S
H771 C747 0.949 . S
H772 C749 0.950 . S
H773 C751 0.950 . S
C774 C775 1.349 . S
C774 C776 1.327 . S
C774 H799 0.950 . S
C775 C774 1.349 . S
C775 C791 1.349 . S
C776 C774 1.327 . S
C776 C795 1.429 . S
C776 H800 0.950 . S
C777 C794 1.574 . S
C777 C796 1.368 . S
C777 H801 0.949 . S
H778 C782 0.949 . S
C779 C780 1.349 . S
C779 C781 1.327 . S
C779 H802 0.950 . S
C780 C779 1.349 . S
C780 C792 1.349 . S
C781 C779 1.327 . S
C781 C797 1.429 . S
C781 H803 0.950 . S
C782 H778 0.949 . S
C782 C790 1.574 . S
C782 C798 1.368 . S
H783 C791 0.950 . S
H784 C789 0.950 . S
H785 C790 0.949 . S
H786 C792 0.950 . S
H787 C793 0.950 . S
H788 C794 0.949 . S
C789 H784 0.950 . S
C789 C791 1.327 . S
C789 C795 1.429 . S
C790 C782 1.574 . S
C790 H785 0.949 . S
C790 C796 1.368 . S
C791 C775 1.349 . S
C791 H783 0.950 . S
C791 C789 1.327 . S
C792 C780 1.349 . S
C792 H786 0.950 . S
C792 C793 1.327 . S
C793 H787 0.950 . S
C793 C792 1.327 . S
C793 C797 1.429 . S
C794 C777 1.574 . S
C794 H788 0.949 . S
C794 C798 1.368 . S
C795 C776 1.429 . S
C795 C789 1.429 . S
C795 C796 1.523 . S
C796 C777 1.368 . S
C796 C790 1.368 . S
C796 C795 1.523 . S
C797 C781 1.429 . S
C797 C793 1.429 . S
C797 C798 1.523 . S
C798 C782 1.368 . S
C798 C794 1.368 . S
C798 C797 1.523 . S
H799 C774 0.950 . S
H800 C776 0.950 . S
H801 C777 0.949 . S
H802 C779 0.950 . S
H803 C781 0.950 . S
C804 C805 1.349 . S
C804 C806 1.327 . S
C804 H829 0.950 . S
C805 C804 1.349 . S
C805 C821 1.349 . S
C806 C804 1.327 . S
C806 C825 1.429 . S
C806 H830 0.950 . S
C807 C824 1.574 . S
C807 C826 1.368 . S
C807 H831 0.949 . S
H808 C812 0.949 . S
C809 C810 1.349 . S
C809 C811 1.327 . S
C809 H832 0.950 . S
C810 C809 1.349 . S
C810 C822 1.349 . S
C811 C809 1.327 . S
C811 C827 1.429 . S
C811 H833 0.950 . S
C812 H808 0.949 . S
C812 C820 1.574 . S
C812 C828 1.368 . S
H813 C821 0.950 . S
H814 C819 0.950 . S
H815 C820 0.949 . S
H816 C822 0.950 . S
H817 C823 0.950 . S
H818 C824 0.949 . S
C819 H814 0.950 . S
C819 C821 1.327 . S
C819 C825 1.429 . S
C820 C812 1.574 . S
C820 H815 0.949 . S
C820 C826 1.368 . S
C821 C805 1.349 . S
C821 H813 0.950 . S
C821 C819 1.327 . S
C822 C810 1.349 . S
C822 H816 0.950 . S
C822 C823 1.327 . S
C823 H817 0.950 . S
C823 C822 1.327 . S
C823 C827 1.429 . S
C824 C807 1.574 . S
C824 H818 0.949 . S
C824 C828 1.368 . S
C825 C806 1.429 . S
C825 C819 1.429 . S
C825 C826 1.523 . S
C826 C807 1.368 . S
C826 C820 1.368 . S
C826 C825 1.523 . S
C827 C811 1.429 . S
C827 C823 1.429 . S
C827 C828 1.523 . S
C828 C812 1.368 . S
C828 C824 1.368 . S
C828 C827 1.523 . S
H829 C804 0.950 . S
H830 C806 0.950 . S
H831 C807 0.949 . S
H832 C809 0.950 . S
H833 C811 0.950 . S
C834 C835 1.349 . S
C834 C836 1.327 . S
C834 H859 0.950 . S
C835 C834 1.349 . S
C835 C851 1.349 . S
C836 C834 1.327 . S
C836 C855 1.429 . S
C836 H860 0.950 . S
C837 C854 1.574 . S
C837 C856 1.368 . S
C837 H861 0.949 . S
H838 C842 0.949 . S
C839 C840 1.349 . S
C839 C841 1.327 . S
C839 H862 0.950 . S
C840 C839 1.349 . S
C840 C852 1.349 . S
C841 C839 1.327 . S
C841 C857 1.429 . S
C841 H863 0.950 . S
C842 H838 0.949 . S
C842 C850 1.574 . S
C842 C858 1.368 . S
H843 C851 0.950 . S
H844 C849 0.950 . S
H845 C850 0.948 . S
H846 C852 0.950 . S
H847 C853 0.950 . S
H848 C854 0.949 . S
C849 H844 0.950 . S
C849 C851 1.327 . S
C849 C855 1.429 . S
C850 C842 1.574 . S
C850 H845 0.948 . S
C850 C856 1.368 . S
C851 C835 1.349 . S
C851 H843 0.950 . S
C851 C849 1.327 . S
C852 C840 1.349 . S
C852 H846 0.950 . S
C852 C853 1.327 . S
C853 H847 0.950 . S
C853 C852 1.327 . S
C853 C857 1.429 . S
C854 C837 1.574 . S
C854 H848 0.949 . S
C854 C858 1.368 . S
C855 C836 1.429 . S
C855 C849 1.429 . S
C855 C856 1.523 1_455 S
C856 C837 1.368 . S
C856 C850 1.368 . S
C856 C855 1.523 1_655 S
C857 C841 1.429 . S
C857 C853 1.429 . S
C857 C858 1.523 . S
C858 C842 1.368 . S
C858 C854 1.368 . S
C858 C857 1.523 . S
H859 C834 0.950 . S
H860 C836 0.950 . S
H861 C837 0.949 . S
H862 C839 0.950 . S
H863 C841 0.950 . S
C864 C865 1.349 . S
C864 C866 1.327 . S
C864 H889 0.950 . S
C865 C864 1.349 . S
C865 C881 1.349 . S
C866 C864 1.327 . S
C866 C885 1.429 . S
C866 H890 0.950 . S
C867 C884 1.574 . S
C867 C886 1.368 . S
C867 H891 0.949 . S
H868 C872 0.949 . S
C869 C870 1.349 . S
C869 C871 1.327 . S
C869 H892 0.950 . S
C870 C869 1.349 . S
C870 C882 1.349 . S
C871 C869 1.327 . S
C871 C887 1.429 . S
C871 H893 0.950 . S
C872 H868 0.949 . S
C872 C880 1.574 . S
C872 C888 1.368 . S
H873 C881 0.950 . S
H874 C879 0.950 . S
H875 C880 0.949 . S
H876 C882 0.950 . S
H877 C883 0.950 . S
H878 C884 0.949 . S
C879 H874 0.950 . S
C879 C881 1.327 . S
C879 C885 1.429 . S
C880 C872 1.574 . S
C880 H875 0.949 . S
C880 C886 1.368 . S
C881 C865 1.349 . S
C881 H873 0.950 . S
C881 C879 1.327 . S
C882 C870 1.349 . S
C882 H876 0.950 . S
C882 C883 1.327 . S
C883 H877 0.950 . S
C883 C882 1.327 . S
C883 C887 1.429 . S
C884 C867 1.574 . S
C884 H878 0.949 . S
C884 C888 1.368 . S
C885 C866 1.429 . S
C885 C879 1.429 . S
C885 C886 1.523 . S
C886 C867 1.368 . S
C886 C880 1.368 . S
C886 C885 1.523 . S
C887 C871 1.429 . S
C887 C883 1.429 . S
C887 C888 1.523 . S
C888 C872 1.368 . S
C888 C884 1.368 . S
C888 C887 1.523 . S
H889 C864 0.950 . S
H890 C866 0.950 . S
H891 C867 0.949 . S
H892 C869 0.950 . S
H893 C871 0.950 . S
C894 C895 1.349 . S
C894 C896 1.327 . S
C894 H919 0.950 . S
C895 C894 1.349 . S
C895 C911 1.349 . S
C896 C894 1.327 . S
C896 C915 1.429 . S
C896 H920 0.950 . S
C897 C914 1.574 . S
C897 C916 1.368 . S
C897 H921 0.949 . S
H898 C902 0.949 . S
C899 C900 1.349 . S
C899 C901 1.327 . S
C899 H922 0.950 . S
C900 C899 1.349 . S
C900 C912 1.349 . S
C901 C899 1.327 . S
C901 C917 1.429 . S
C901 H923 0.950 . S
C902 H898 0.949 . S
C902 C910 1.574 . S
C902 C918 1.368 . S
H903 C911 0.950 . S
H904 C909 0.950 . S
H905 C910 0.949 . S
H906 C912 0.950 . S
H907 C913 0.950 . S
H908 C914 0.949 . S
C909 H904 0.950 . S
C909 C911 1.327 . S
C909 C915 1.429 . S
C910 C902 1.574 . S
C910 H905 0.949 . S
C910 C916 1.368 . S
C911 C895 1.349 . S
C911 H903 0.950 . S
C911 C909 1.327 . S
C912 C900 1.349 . S
C912 H906 0.950 . S
C912 C913 1.327 . S
C913 H907 0.950 . S
C913 C912 1.327 . S
C913 C917 1.429 . S
C914 C897 1.574 . S
C914 H908 0.949 . S
C914 C918 1.368 . S
C915 C896 1.429 . S
C915 C909 1.429 . S
C915 C916 1.523 . S
C916 C897 1.368 . S
C916 C910 1.368 . S
C916 C915 1.523 . S
C917 C901 1.429 . S
C917 C913 1.429 . S
C917 C918 1.523 . S
C918 C902 1.368 . S
C918 C914 1.368 . S
C918 C917 1.523 . S
H919 C894 0.950 . S
H920 C896 0.950 . S
H921 C897 0.949 . S
H922 C899 0.950 . S
H923 C901 0.950 . S
C924 C925 1.349 . S
C924 C926 1.327 . S
C924 H949 0.950 . S
C925 C924 1.349 . S
C925 C941 1.349 . S
C926 C924 1.327 . S
C926 C945 1.429 . S
C926 H950 0.950 . S
C927 C944 1.574 . S
C927 C946 1.368 . S
C927 H951 0.949 . S
H928 C932 0.949 . S
C929 C930 1.349 . S
C929 C931 1.327 . S
C929 H952 0.950 . S
C930 C929 1.349 . S
C930 C942 1.349 . S
C931 C929 1.327 . S
C931 C947 1.429 . S
C931 H953 0.950 . S
C932 H928 0.949 . S
C932 C940 1.574 . S
C932 C948 1.368 . S
H933 C941 0.950 . S
H934 C939 0.950 . S
H935 C940 0.949 . S
H936 C942 0.950 . S
H937 C943 0.950 . S
H938 C944 0.949 . S
C939 H934 0.950 . S
C939 C941 1.327 . S
C939 C945 1.429 . S
C940 C932 1.574 . S
C940 H935 0.949 . S
C940 C946 1.368 . S
C941 C925 1.349 . S
C941 H933 0.950 . S
C941 C939 1.327 . S
C942 C930 1.349 . S
C942 H936 0.950 . S
C942 C943 1.327 . S
C943 H937 0.950 . S
C943 C942 1.327 . S
C943 C947 1.429 . S
C944 C927 1.574 . S
C944 H938 0.949 . S
C944 C948 1.368 . S
C945 C926 1.429 . S
C945 C939 1.429 . S
C945 C946 1.523 . S
C946 C927 1.368 . S
C946 C940 1.368 . S
C946 C945 1.523 . S
C947 C931 1.429 . S
C947 C943 1.429 . S
C947 C948 1.523 . S
C948 C932 1.368 . S
C948 C944 1.368 . S
C948 C947 1.523 . S
H949 C924 0.950 . S
H950 C926 0.950 . S
H951 C927 0.949 . S
H952 C929 0.950 . S
H953 C931 0.950 . S
C954 C955 1.349 . S
C954 C956 1.327 . S
C954 H979 0.950 . S
C955 C954 1.349 . S
C955 C971 1.349 . S
C956 C954 1.327 . S
C956 C975 1.429 . S
C956 H980 0.950 . S
C957 C974 1.574 . S
C957 C976 1.368 . S
C957 H981 0.936 1_554 S
H958 C962 0.949 . S
C959 C960 1.349 . S
C959 C961 1.327 . S
C959 H982 0.950 . S
C960 C959 1.349 . S
C960 C972 1.349 . S
C961 C959 1.327 . S
C961 C977 1.429 . S
C961 H983 0.950 . S
C962 H958 0.949 . S
C962 C970 1.574 . S
C962 C978 1.368 . S
H963 C971 0.950 . S
H964 C969 0.950 . S
H965 C970 0.949 . S
H966 C972 0.950 . S
H967 C973 0.950 . S
H968 C974 0.949 . S
C969 H964 0.950 . S
C969 C971 1.327 . S
C969 C975 1.429 . S
C970 C962 1.574 . S
C970 H965 0.949 . S
C970 C976 1.368 . S
C971 C955 1.349 . S
C971 H963 0.950 . S
C971 C969 1.327 . S
C972 C960 1.349 . S
C972 H966 0.950 . S
C972 C973 1.327 . S
C973 H967 0.950 . S
C973 C972 1.327 . S
C973 C977 1.429 . S
C974 C957 1.574 . S
C974 H968 0.949 . S
C974 C978 1.368 . S
C975 C956 1.429 . S
C975 C969 1.429 . S
C975 C976 1.523 1_556 S
C976 C957 1.368 . S
C976 C970 1.368 . S
C976 C975 1.523 1_554 S
C977 C961 1.429 . S
C977 C973 1.429 . S
C977 C978 1.523 . S
C978 C962 1.368 . S
C978 C974 1.368 . S
C978 C977 1.523 . S
H979 C954 0.950 . S
H980 C956 0.950 . S
H981 C957 0.936 1_556 S
H982 C959 0.950 . S
H983 C961 0.950 . S
C984 C985 1.349 . S
C984 C986 1.327 . S
C984 H1009 0.950 . S
C985 C984 1.349 . S
C985 C1001 1.349 . S
C986 C984 1.327 . S
C986 C1005 1.429 . S
C986 H1010 0.950 . S
C987 C1004 1.574 . S
C987 C1006 1.368 . S
C987 H1011 0.949 . S
H988 C992 0.949 . S
C989 C990 1.349 . S
C989 C991 1.327 . S
C989 H1012 0.950 . S
C990 C989 1.349 . S
C990 C1002 1.349 . S
C991 C989 1.327 . S
C991 C1007 1.429 . S
C991 H1013 0.950 . S
C992 H988 0.949 . S
C992 C1000 1.574 . S
C992 C1008 1.368 . S
H993 C1001 0.950 . S
H994 C999 0.950 . S
H995 C1000 0.949 . S
H996 C1002 0.950 . S
H997 C1003 0.950 . S
H998 C1004 0.949 . S
C999 H994 0.950 . S
C999 C1001 1.327 . S
C999 C1005 1.429 . S
C1000 C992 1.574 . S
C1000 H995 0.949 . S
C1000 C1006 1.368 . S
C1001 C985 1.349 . S
C1001 H993 0.950 . S
C1001 C999 1.327 . S
C1002 C990 1.349 . S
C1002 H996 0.950 . S
C1002 C1003 1.327 . S
C1003 H997 0.950 . S
C1003 C1002 1.327 . S
C1003 C1007 1.429 . S
C1004 C987 1.574 . S
C1004 H998 0.949 . S
C1004 C1008 1.368 . S
C1005 C986 1.429 . S
C1005 C999 1.429 . S
C1005 C1006 1.523 . S
C1006 C987 1.368 . S
C1006 C1000 1.368 . S
C1006 C1005 1.523 . S
C1007 C991 1.429 . S
C1007 C1003 1.429 . S
C1007 C1008 1.523 . S
C1008 C992 1.368 . S
C1008 C1004 1.368 . S
C1008 C1007 1.523 . S
H1009 C984 0.950 . S
H1010 C986 0.950 . S
H1011 C987 0.949 . S
H1012 C989 0.950 . S
H1013 C991 0.950 . S
C1014 C1015 1.349 . S
C1014 C1016 1.327 . S
C1014 H1039 0.950 . S
C1015 C1014 1.349 . S
C1015 C1031 1.349 . S
C1016 C1014 1.327 . S
C1016 C1035 1.429 . S
C1016 H1040 0.950 . S
C1017 C1034 1.574 . S
C1017 C1036 1.368 . S
C1017 H1041 0.949 . S
H1018 C1022 0.949 . S
C1019 C1020 1.349 . S
C1019 C1021 1.327 . S
C1019 H1042 0.950 . S
C1020 C1019 1.349 . S
C1020 C1032 1.349 . S
C1021 C1019 1.327 . S
C1021 C1037 1.429 . S
C1021 H1043 0.950 . S
C1022 H1018 0.949 . S
C1022 C1030 1.574 . S
C1022 C1038 1.368 . S
H1023 C1031 0.950 . S
H1024 C1029 0.950 . S
H1025 C1030 0.949 . S
H1026 C1032 0.950 . S
H1027 C1033 0.950 . S
H1028 C1034 0.949 . S
C1029 H1024 0.950 . S
C1029 C1031 1.327 . S
C1029 C1035 1.429 . S
C1030 C1022 1.574 . S
C1030 H1025 0.949 . S
C1030 C1036 1.368 . S
C1031 C1015 1.349 . S
C1031 H1023 0.950 . S
C1031 C1029 1.327 . S
C1032 C1020 1.349 . S
C1032 H1026 0.950 . S
C1032 C1033 1.327 . S
C1033 H1027 0.950 . S
C1033 C1032 1.327 . S
C1033 C1037 1.429 . S
C1034 C1017 1.574 . S
C1034 H1028 0.949 . S
C1034 C1038 1.368 . S
C1035 C1016 1.429 . S
C1035 C1029 1.429 . S
C1035 C1036 1.523 . S
C1036 C1017 1.368 . S
C1036 C1030 1.368 . S
C1036 C1035 1.523 . S
C1037 C1021 1.429 . S
C1037 C1033 1.429 . S
C1037 C1038 1.523 . S
C1038 C1022 1.368 . S
C1038 C1034 1.368 . S
C1038 C1037 1.523 . S
H1039 C1014 0.950 . S
H1040 C1016 0.950 . S
H1041 C1017 0.949 . S
H1042 C1019 0.950 . S
H1043 C1021 0.950 . S
C1044 C1045 1.349 . S
C1044 C1046 1.327 . S
C1044 H1069 0.950 . S
C1045 C1044 1.349 . S
C1045 C1061 1.349 . S
C1046 C1044 1.327 . S
C1046 C1065 1.429 . S
C1046 H1070 0.950 . S
C1047 C1064 1.574 . S
C1047 C1066 1.368 . S
C1047 H1071 0.949 . S
H1048 C1052 0.949 . S
C1049 C1050 1.349 . S
C1049 C1051 1.327 . S
C1049 H1072 0.950 . S
C1050 C1049 1.349 . S
C1050 C1062 1.349 . S
C1051 C1049 1.327 . S
C1051 C1067 1.429 . S
C1051 H1073 0.950 . S
C1052 H1048 0.949 . S
C1052 C1060 1.574 . S
C1052 C1068 1.368 . S
H1053 C1061 0.950 . S
H1054 C1059 0.950 . S
H1055 C1060 0.949 . S
H1056 C1062 0.950 . S
H1057 C1063 0.950 . S
H1058 C1064 0.949 . S
C1059 H1054 0.950 . S
C1059 C1061 1.327 . S
C1059 C1065 1.429 . S
C1060 C1052 1.574 . S
C1060 H1055 0.949 . S
C1060 C1066 1.368 . S
C1061 C1045 1.349 . S
C1061 H1053 0.950 . S
C1061 C1059 1.327 . S
C1062 C1050 1.349 . S
C1062 H1056 0.950 . S
C1062 C1063 1.327 . S
C1063 H1057 0.950 . S
C1063 C1062 1.327 . S
C1063 C1067 1.429 . S
C1064 C1047 1.574 . S
C1064 H1058 0.949 . S
C1064 C1068 1.368 . S
C1065 C1046 1.429 . S
C1065 C1059 1.429 . S
C1065 C1066 1.523 . S
C1066 C1047 1.368 . S
C1066 C1060 1.368 . S
C1066 C1065 1.523 . S
C1067 C1051 1.429 . S
C1067 C1063 1.429 . S
C1067 C1068 1.523 . S
C1068 C1052 1.368 . S
C1068 C1064 1.368 . S
C1068 C1067 1.523 . S
H1069 C1044 0.950 . S
H1070 C1046 0.950 . S
H1071 C1047 0.949 . S
H1072 C1049 0.950 . S
H1073 C1051 0.950 . S
C1074 C1075 1.349 . S
C1074 C1076 1.327 . S
C1074 H1099 0.950 . S
C1075 C1074 1.349 . S
C1075 C1091 1.349 . S
C1076 C1074 1.327 . S
C1076 C1095 1.429 . S
C1076 H1100 0.950 . S
C1077 C1094 1.574 . S
C1077 C1096 1.368 . S
C1077 H1101 0.949 . S
H1078 C1082 0.949 . S
C1079 C1080 1.349 . S
C1079 C1081 1.327 . S
C1079 H1102 0.950 . S
C1080 C1079 1.349 . S
C1080 C1092 1.349 . S
C1081 C1079 1.327 . S
C1081 C1097 1.429 . S
C1081 H1103 0.950 . S
C1082 H1078 0.949 . S
C1082 C1090 1.574 . S
C1082 C1098 1.368 . S
H1083 C1091 0.950 . S
H1084 C1089 0.950 . S
H1085 C1090 0.949 . S
H1086 C1092 0.950 . S
H1087 C1093 0.950 . S
H1088 C1094 0.949 . S
C1089 H1084 0.950 . S
C1089 C1091 1.327 . S
C1089 C1095 1.429 . S
C1090 C1082 1.574 . S
C1090 H1085 0.949 . S
C1090 C1096 1.368 . S
C1091 C1075 1.349 . S
C1091 H1083 0.950 . S
C1091 C1089 1.327 . S
C1092 C1080 1.349 . S
C1092 H1086 0.950 . S
C1092 C1093 1.327 . S
C1093 H1087 0.950 . S
C1093 C1092 1.327 . S
C1093 C1097 1.429 . S
C1094 C1077 1.574 . S
C1094 H1088 0.949 . S
C1094 C1098 1.368 . S
C1095 C1076 1.429 . S
C1095 C1089 1.429 . S
C1095 C1096 1.523 1_554 S
C1096 C1077 1.368 . S
C1096 C1090 1.368 . S
C1096 C1095 1.523 1_556 S
C1097 C1081 1.429 . S
C1097 C1093 1.429 . S
C1097 C1098 1.523 . S
C1098 C1082 1.368 . S
C1098 C1094 1.368 . S
C1098 C1097 1.523 . S
H1099 C1074 0.950 . S
H1100 C1076 0.950 . S
H1101 C1077 0.949 . S
H1102 C1079 0.950 . S
H1103 C1081 0.950 . S
C1104 C1105 1.349 . S
C1104 C1106 1.327 . S
C1104 H1129 0.950 . S
C1105 C1104 1.349 . S
C1105 C1121 1.349 . S
C1106 C1104 1.327 . S
C1106 C1125 1.429 . S
C1106 H1130 0.950 . S
C1107 C1124 1.574 . S
C1107 C1126 1.368 . S
C1107 H1131 0.949 . S
H1108 C1112 0.949 . S
C1109 C1110 1.349 . S
C1109 C1111 1.327 . S
C1109 H1132 0.950 . S
C1110 C1109 1.349 . S
C1110 C1122 1.349 . S
C1111 C1109 1.327 . S
C1111 C1127 1.429 . S
C1111 H1133 0.950 . S
C1112 H1108 0.949 . S
C1112 C1120 1.574 . S
C1112 C1128 1.368 . S
H1113 C1121 0.950 . S
H1114 C1119 0.950 . S
H1115 C1120 0.949 . S
H1116 C1122 0.950 . S
H1117 C1123 0.950 . S
H1118 C1124 0.949 . S
C1119 H1114 0.950 . S
C1119 C1121 1.327 . S
C1119 C1125 1.429 . S
C1120 C1112 1.574 . S
C1120 H1115 0.949 . S
C1120 C1126 1.368 . S
C1121 C1105 1.349 . S
C1121 H1113 0.950 . S
C1121 C1119 1.327 . S
C1122 C1110 1.349 . S
C1122 H1116 0.950 . S
C1122 C1123 1.327 . S
C1123 H1117 0.950 . S
C1123 C1122 1.327 . S
C1123 C1127 1.429 . S
C1124 C1107 1.574 . S
C1124 H1118 0.949 . S
C1124 C1128 1.368 . S
C1125 C1106 1.429 . S
C1125 C1119 1.429 . S
C1125 C1126 1.523 . S
C1126 C1107 1.368 . S
C1126 C1120 1.368 . S
C1126 C1125 1.523 . S
C1127 C1111 1.429 . S
C1127 C1123 1.429 . S
C1127 C1128 1.523 . S
C1128 C1112 1.368 . S
C1128 C1124 1.368 . S
C1128 C1127 1.523 . S
H1129 C1104 0.950 . S
H1130 C1106 0.950 . S
H1131 C1107 0.949 . S
H1132 C1109 0.950 . S
H1133 C1111 0.950 . S
C1134 C1135 1.349 . S
C1134 C1136 1.327 . S
C1134 H1159 0.950 . S
C1135 C1134 1.349 . S
C1135 C1151 1.349 . S
C1136 C1134 1.327 . S
C1136 C1155 1.429 . S
C1136 H1160 0.950 . S
C1137 C1154 1.574 . S
C1137 C1156 1.368 . S
C1137 H1161 0.949 . S
H1138 C1142 0.949 . S
C1139 C1140 1.349 . S
C1139 C1141 1.327 . S
C1139 H1162 0.950 . S
C1140 C1139 1.349 . S
C1140 C1152 1.349 . S
C1141 C1139 1.327 . S
C1141 C1157 1.429 . S
C1141 H1163 0.950 . S
C1142 H1138 0.949 . S
C1142 C1150 1.574 . S
C1142 C1158 1.368 . S
H1143 C1151 0.950 . S
H1144 C1149 0.950 . S
H1145 C1150 0.949 . S
H1146 C1152 0.950 . S
H1147 C1153 0.950 . S
H1148 C1154 0.949 . S
C1149 H1144 0.950 . S
C1149 C1151 1.327 . S
C1149 C1155 1.429 . S
C1150 C1142 1.574 . S
C1150 H1145 0.949 . S
C1150 C1156 1.368 . S
C1151 C1135 1.349 . S
C1151 H1143 0.950 . S
C1151 C1149 1.327 . S
C1152 C1140 1.349 . S
C1152 H1146 0.950 . S
C1152 C1153 1.327 . S
C1153 H1147 0.950 . S
C1153 C1152 1.327 . S
C1153 C1157 1.429 . S
C1154 C1137 1.574 . S
C1154 H1148 0.949 . S
C1154 C1158 1.368 . S
C1155 C1136 1.429 . S
C1155 C1149 1.429 . S
C1155 C1156 1.523 . S
C1156 C1137 1.368 . S
C1156 C1150 1.368 . S
C1156 C1155 1.523 . S
C1157 C1141 1.429 . S
C1157 C1153 1.429 . S
C1157 C1158 1.523 . S
C1158 C1142 1.368 . S
C1158 C1154 1.368 . S
C1158 C1157 1.523 . S
H1159 C1134 0.950 . S
H1160 C1136 0.950 . S
H1161 C1137 0.949 . S
H1162 C1139 0.950 . S
H1163 C1141 0.950 . S
C1164 C1165 1.349 . S
C1164 C1166 1.327 . S
C1164 H1189 0.950 . S
C1165 C1164 1.349 . S
C1165 C1181 1.349 . S
C1166 C1164 1.327 . S
C1166 C1185 1.429 . S
C1166 H1190 0.950 . S
C1167 C1184 1.574 . S
C1167 C1186 1.368 . S
C1167 H1191 0.949 . S
H1168 C1172 0.949 . S
C1169 C1170 1.349 . S
C1169 C1171 1.327 . S
C1169 H1192 0.950 . S
C1170 C1169 1.349 . S
C1170 C1182 1.349 . S
C1171 C1169 1.327 . S
C1171 C1187 1.429 . S
C1171 H1193 0.950 . S
C1172 H1168 0.949 . S
C1172 C1180 1.574 . S
C1172 C1188 1.368 . S
H1173 C1181 0.950 . S
H1174 C1179 0.950 . S
H1175 C1180 0.949 . S
H1176 C1182 0.950 . S
H1177 C1183 0.950 . S
H1178 C1184 0.949 . S
C1179 H1174 0.950 . S
C1179 C1181 1.327 . S
C1179 C1185 1.429 . S
C1180 C1172 1.574 . S
C1180 H1175 0.949 . S
C1180 C1186 1.368 . S
C1181 C1165 1.349 . S
C1181 H1173 0.950 . S
C1181 C1179 1.327 . S
C1182 C1170 1.349 . S
C1182 H1176 0.950 . S
C1182 C1183 1.327 . S
C1183 H1177 0.950 . S
C1183 C1182 1.327 . S
C1183 C1187 1.429 . S
C1184 C1167 1.574 . S
C1184 H1178 0.949 . S
C1184 C1188 1.368 . S
C1185 C1166 1.429 . S
C1185 C1179 1.429 . S
C1185 C1186 1.523 . S
C1186 C1167 1.368 . S
C1186 C1180 1.368 . S
C1186 C1185 1.523 . S
C1187 C1171 1.429 . S
C1187 C1183 1.429 . S
C1187 C1188 1.523 . S
C1188 C1172 1.368 . S
C1188 C1184 1.368 . S
C1188 C1187 1.523 . S
H1189 C1164 0.950 . S
H1190 C1166 0.950 . S
H1191 C1167 0.949 . S
H1192 C1169 0.950 . S
H1193 C1171 0.950 . S
C1194 C1195 1.349 . S
C1194 C1196 1.327 . S
C1194 H1219 0.950 . S
C1195 C1194 1.349 . S
C1195 C1211 1.349 . S
C1196 C1194 1.327 . S
C1196 C1215 1.429 . S
C1196 H1220 0.950 . S
C1197 C1214 1.574 . S
C1197 C1216 1.368 . S
C1197 H1221 0.949 . S
H1198 C1202 0.949 . S
C1199 C1200 1.349 . S
C1199 C1201 1.327 . S
C1199 H1222 0.950 . S
C1200 C1199 1.349 . S
C1200 C1212 1.349 . S
C1201 C1199 1.327 . S
C1201 C1217 1.429 . S
C1201 H1223 0.950 . S
C1202 H1198 0.949 . S
C1202 C1210 1.574 . S
C1202 C1218 1.368 . S
H1203 C1211 0.950 . S
H1204 C1209 0.950 . S
H1205 C1210 0.949 . S
H1206 C1212 0.950 . S
H1207 C1213 0.950 . S
H1208 C1214 0.949 . S
C1209 H1204 0.950 . S
C1209 C1211 1.327 . S
C1209 C1215 1.429 . S
C1210 C1202 1.574 . S
C1210 H1205 0.949 . S
C1210 C1216 1.368 . S
C1211 C1195 1.349 . S
C1211 H1203 0.950 . S
C1211 C1209 1.327 . S
C1212 C1200 1.349 . S
C1212 H1206 0.950 . S
C1212 C1213 1.327 . S
C1213 H1207 0.950 . S
C1213 C1212 1.327 . S
C1213 C1217 1.429 . S
C1214 C1197 1.574 . S
C1214 H1208 0.949 . S
C1214 C1218 1.368 . S
C1215 C1196 1.429 . S
C1215 C1209 1.429 . S
C1215 C1216 1.523 . S
C1216 C1197 1.368 . S
C1216 C1210 1.368 . S
C1216 C1215 1.523 . S
C1217 C1201 1.429 . S
C1217 C1213 1.429 . S
C1217 C1218 1.523 . S
C1218 C1202 1.368 . S
C1218 C1214 1.368 . S
C1218 C1217 1.523 . S
H1219 C1194 0.950 . S
H1220 C1196 0.950 . S
H1221 C1197 0.949 . S
H1222 C1199 0.950 . S
H1223 C1201 0.950 . S
C1224 C1225 1.349 . S
C1224 C1226 1.327 . S
C1224 H1249 0.950 . S
C1225 C1224 1.349 . S
C1225 C1241 1.349 . S
C1226 C1224 1.327 . S
C1226 C1245 1.429 . S
C1226 H1250 0.950 . S
C1227 C1244 1.574 . S
C1227 C1246 1.368 . S
C1227 H1251 0.949 . S
H1228 C1232 0.949 . S
C1229 C1230 1.349 . S
C1229 C1231 1.327 . S
C1229 H1252 0.950 . S
C1230 C1229 1.349 . S
C1230 C1242 1.349 . S
C1231 C1229 1.327 . S
C1231 C1247 1.429 . S
C1231 H1253 0.950 . S
C1232 H1228 0.949 . S
C1232 C1240 1.574 . S
C1232 C1248 1.368 . S
H1233 C1241 0.950 . S
H1234 C1239 0.950 . S
H1235 C1240 0.949 . S
H1236 C1242 0.950 . S
H1237 C1243 0.950 . S
H1238 C1244 0.949 . S
C1239 H1234 0.950 . S
C1239 C1241 1.327 . S
C1239 C1245 1.429 . S
C1240 C1232 1.574 . S
C1240 H1235 0.949 . S
C1240 C1246 1.368 . S
C1241 C1225 1.349 . S
C1241 H1233 0.950 . S
C1241 C1239 1.327 . S
C1242 C1230 1.349 . S
C1242 H1236 0.950 . S
C1242 C1243 1.327 . S
C1243 H1237 0.950 . S
C1243 C1242 1.327 . S
C1243 C1247 1.429 . S
C1244 C1227 1.574 . S
C1244 H1238 0.949 . S
C1244 C1248 1.368 . S
C1245 C1226 1.429 . S
C1245 C1239 1.429 . S
C1245 C1246 1.523 . S
C1246 C1227 1.368 . S
C1246 C1240 1.368 . S
C1246 C1245 1.523 . S
C1247 C1231 1.429 . S
C1247 C1243 1.429 . S
C1247 C1248 1.523 1_545 S
C1248 C1232 1.368 . S
C1248 C1244 1.368 . S
C1248 C1247 1.523 1_565 S
H1249 C1224 0.950 . S
H1250 C1226 0.950 . S
H1251 C1227 0.949 . S
H1252 C1229 0.950 . S
H1253 C1231 0.950 . S
C1254 C1255 1.349 . S
C1254 C1256 1.327 . S
C1254 H1279 0.950 . S
C1255 C1254 1.349 . S
C1255 C1271 1.349 . S
C1256 C1254 1.327 . S
C1256 C1275 1.429 . S
C1256 H1280 0.950 . S
C1257 C1274 1.574 . S
C1257 C1276 1.368 . S
C1257 H1281 0.949 . S
H1258 C1262 0.949 . S
C1259 C1260 1.349 . S
C1259 C1261 1.327 . S
C1259 H1282 0.950 . S
C1260 C1259 1.349 . S
C1260 C1272 1.349 . S
C1261 C1259 1.327 . S
C1261 C1277 1.429 . S
C1261 H1283 0.950 . S
C1262 H1258 0.949 . S
C1262 C1270 1.574 . S
C1262 C1278 1.368 . S
H1263 C1271 0.950 . S
H1264 C1269 0.950 . S
H1265 C1270 0.949 . S
H1266 C1272 0.950 . S
H1267 C1273 0.950 . S
H1268 C1274 0.949 . S
C1269 H1264 0.950 . S
C1269 C1271 1.327 . S
C1269 C1275 1.429 . S
C1270 C1262 1.574 . S
C1270 H1265 0.949 . S
C1270 C1276 1.368 . S
C1271 C1255 1.349 . S
C1271 H1263 0.950 . S
C1271 C1269 1.327 . S
C1272 C1260 1.349 . S
C1272 H1266 0.950 . S
C1272 C1273 1.327 . S
C1273 H1267 0.950 . S
C1273 C1272 1.327 . S
C1273 C1277 1.429 . S
C1274 C1257 1.574 . S
C1274 H1268 0.949 . S
C1274 C1278 1.368 . S
C1275 C1256 1.429 . S
C1275 C1269 1.429 . S
C1275 C1276 1.523 . S
C1276 C1257 1.368 . S
C1276 C1270 1.368 . S
C1276 C1275 1.523 . S
C1277 C1261 1.429 . S
C1277 C1273 1.429 . S
C1277 C1278 1.523 . S
C1278 C1262 1.368 . S
C1278 C1274 1.368 . S
C1278 C1277 1.523 . S
H1279 C1254 0.950 . S
H1280 C1256 0.950 . S
H1281 C1257 0.949 . S
H1282 C1259 0.950 . S
H1283 C1261 0.950 . S
C1284 C1285 1.349 . S
C1284 C1286 1.327 . S
C1284 H1309 0.950 . S
C1285 C1284 1.349 . S
C1285 C1301 1.349 . S
C1286 C1284 1.327 . S
C1286 C1305 1.429 . S
C1286 H1310 0.950 . S
C1287 C1304 1.574 . S
C1287 C1306 1.368 . S
C1287 H1311 0.949 . S
H1288 C1292 0.949 . S
C1289 C1290 1.349 . S
C1289 C1291 1.327 . S
C1289 H1312 0.950 . S
C1290 C1289 1.349 . S
C1290 C1302 1.349 . S
C1291 C1289 1.327 . S
C1291 C1307 1.429 . S
C1291 H1313 0.950 . S
C1292 H1288 0.949 . S
C1292 C1300 1.574 . S
C1292 C1308 1.368 . S
H1293 C1301 0.950 . S
H1294 C1299 0.950 . S
H1295 C1300 0.949 . S
H1296 C1302 0.950 . S
H1297 C1303 0.950 . S
H1298 C1304 0.949 . S
C1299 H1294 0.950 . S
C1299 C1301 1.327 . S
C1299 C1305 1.429 . S
C1300 C1292 1.574 . S
C1300 H1295 0.949 . S
C1300 C1306 1.368 . S
C1301 C1285 1.349 . S
C1301 H1293 0.950 . S
C1301 C1299 1.327 . S
C1302 C1290 1.349 . S
C1302 H1296 0.950 . S
C1302 C1303 1.327 . S
C1303 H1297 0.950 . S
C1303 C1302 1.327 . S
C1303 C1307 1.429 . S
C1304 C1287 1.574 . S
C1304 H1298 0.949 . S
C1304 C1308 1.368 . S
C1305 C1286 1.429 . S
C1305 C1299 1.429 . S
C1305 C1306 1.523 . S
C1306 C1287 1.368 . S
C1306 C1300 1.368 . S
C1306 C1305 1.523 . S
C1307 C1291 1.429 . S
C1307 C1303 1.429 . S
C1307 C1308 1.523 . S
C1308 C1292 1.368 . S
C1308 C1304 1.368 . S
C1308 C1307 1.523 . S
H1309 C1284 0.950 . S
H1310 C1286 0.950 . S
H1311 C1287 0.949 . S
H1312 C1289 0.950 . S
H1313 C1291 0.950 . S
C1314 C1315 1.349 . S
C1314 C1316 1.327 . S
C1314 H1339 0.950 . S
C1315 C1314 1.349 . S
C1315 C1331 1.349 . S
C1316 C1314 1.327 . S
C1316 C1335 1.429 . S
C1316 H1340 0.950 . S
C1317 C1334 1.574 . S
C1317 C1336 1.368 . S
C1317 H1341 0.949 . S
H1318 C1322 0.949 . S
C1319 C1320 1.349 . S
C1319 C1321 1.327 . S
C1319 H1342 0.950 . S
C1320 C1319 1.349 . S
C1320 C1332 1.349 . S
C1321 C1319 1.327 . S
C1321 C1337 1.429 . S
C1321 H1343 0.950 . S
C1322 H1318 0.949 . S
C1322 C1330 1.574 . S
C1322 C1338 1.368 . S
H1323 C1331 0.950 . S
H1324 C1329 0.950 . S
H1325 C1330 0.949 . S
H1326 C1332 0.950 . S
H1327 C1333 0.950 . S
H1328 C1334 0.949 . S
C1329 H1324 0.950 . S
C1329 C1331 1.327 . S
C1329 C1335 1.429 . S
C1330 C1322 1.574 . S
C1330 H1325 0.949 . S
C1330 C1336 1.368 . S
C1331 C1315 1.349 . S
C1331 H1323 0.950 . S
C1331 C1329 1.327 . S
C1332 C1320 1.349 . S
C1332 H1326 0.950 . S
C1332 C1333 1.327 . S
C1333 H1327 0.950 . S
C1333 C1332 1.327 . S
C1333 C1337 1.429 . S
C1334 C1317 1.574 . S
C1334 H1328 0.949 . S
C1334 C1338 1.368 . S
C1335 C1316 1.429 . S
C1335 C1329 1.429 . S
C1335 C1336 1.523 . S
C1336 C1317 1.368 . S
C1336 C1330 1.368 . S
C1336 C1335 1.523 . S
C1337 C1321 1.429 . S
C1337 C1333 1.429 . S
C1337 C1338 1.523 . S
C1338 C1322 1.368 . S
C1338 C1334 1.368 . S
C1338 C1337 1.523 . S
H1339 C1314 0.950 . S
H1340 C1316 0.950 . S
H1341 C1317 0.949 . S
H1342 C1319 0.950 . S
H1343 C1321 0.950 . S
C1344 C1345 1.349 . S
C1344 C1346 1.327 . S
C1344 H1369 0.950 . S
C1345 C1344 1.349 . S
C1345 C1361 1.349 . S
C1346 C1344 1.327 . S
C1346 C1365 1.429 . S
C1346 H1370 0.950 . S
C1347 C1364 1.574 . S
C1347 C1366 1.368 . S
C1347 H1371 0.949 . S
H1348 C1352 0.949 . S
C1349 C1350 1.349 . S
C1349 C1351 1.327 . S
C1349 H1372 0.950 . S
C1350 C1349 1.349 . S
C1350 C1362 1.349 . S
C1351 C1349 1.327 . S
C1351 C1367 1.429 . S
C1351 H1373 0.950 . S
C1352 H1348 0.949 . S
C1352 C1360 1.574 . S
C1352 C1368 1.368 . S
H1353 C1361 0.950 . S
H1354 C1359 0.950 . S
H1355 C1360 0.949 . S
H1356 C1362 0.950 . S
H1357 C1363 0.950 . S
H1358 C1364 0.949 . S
C1359 H1354 0.950 . S
C1359 C1361 1.327 . S
C1359 C1365 1.429 . S
C1360 C1352 1.574 . S
C1360 H1355 0.949 . S
C1360 C1366 1.368 . S
C1361 C1345 1.349 . S
C1361 H1353 0.950 . S
C1361 C1359 1.327 . S
C1362 C1350 1.349 . S
C1362 H1356 0.950 . S
C1362 C1363 1.327 . S
C1363 H1357 0.950 . S
C1363 C1362 1.327 . S
C1363 C1367 1.429 . S
C1364 C1347 1.574 . S
C1364 H1358 0.949 . S
C1364 C1368 1.368 . S
C1365 C1346 1.429 . S
C1365 C1359 1.429 . S
C1365 C1366 1.523 . S
C1366 C1347 1.368 . S
C1366 C1360 1.368 . S
C1366 C1365 1.523 . S
C1367 C1351 1.429 . S
C1367 C1363 1.429 . S
C1367 C1368 1.523 . S
C1368 C1352 1.368 . S
C1368 C1364 1.368 . S
C1368 C1367 1.523 . S
H1369 C1344 0.950 . S
H1370 C1346 0.950 . S
H1371 C1347 0.949 . S
H1372 C1349 0.950 . S
H1373 C1351 0.950 . S
C1374 C1375 1.349 . S
C1374 C1376 1.327 . S
C1374 H1399 0.950 . S
C1375 C1374 1.349 . S
C1375 C1391 1.349 . S
C1376 C1374 1.327 . S
C1376 C1395 1.429 . S
C1376 H1400 0.950 . S
C1377 C1394 1.574 . S
C1377 C1396 1.368 . S
C1377 H1401 0.949 . S
H1378 C1382 0.949 . S
C1379 C1380 1.349 . S
C1379 C1381 1.327 . S
C1379 H1402 0.950 . S
C1380 C1379 1.349 . S
C1380 C1392 1.349 . S
C1381 C1379 1.327 . S
C1381 C1397 1.429 . S
C1381 H1403 0.950 . S
C1382 H1378 0.949 . S
C1382 C1390 1.574 . S
C1382 C1398 1.368 . S
H1383 C1391 0.950 . S
H1384 C1389 0.950 . S
H1385 C1390 0.949 . S
H1386 C1392 0.950 . S
H1387 C1393 0.950 . S
H1388 C1394 0.949 . S
C1389 H1384 0.950 . S
C1389 C1391 1.327 . S
C1389 C1395 1.429 . S
C1390 C1382 1.574 . S
C1390 H1385 0.949 . S
C1390 C1396 1.368 . S
C1391 C1375 1.349 . S
C1391 H1383 0.950 . S
C1391 C1389 1.327 . S
C1392 C1380 1.349 . S
C1392 H1386 0.950 . S
C1392 C1393 1.327 . S
C1393 H1387 0.950 . S
C1393 C1392 1.327 . S
C1393 C1397 1.429 . S
C1394 C1377 1.574 . S
C1394 H1388 0.949 . S
C1394 C1398 1.368 . S
C1395 C1376 1.429 . S
C1395 C1389 1.429 . S
C1395 C1396 1.523 1_655 S
C1396 C1377 1.368 . S
C1396 C1390 1.368 . S
C1396 C1395 1.523 1_455 S
C1397 C1381 1.429 . S
C1397 C1393 1.429 . S
C1397 C1398 1.523 . S
C1398 C1382 1.368 . S
C1398 C1394 1.368 . S
C1398 C1397 1.523 . S
H1399 C1374 0.950 . S
H1400 C1376 0.950 . S
H1401 C1377 0.949 . S
H1402 C1379 0.950 . S
H1403 C1381 0.950 . S
C1404 C1405 1.349 . S
C1404 C1406 1.327 . S
C1404 H1429 0.950 . S
C1405 C1404 1.349 . S
C1405 C1421 1.349 . S
C1406 C1404 1.327 . S
C1406 C1425 1.429 . S
C1406 H1430 0.950 . S
C1407 C1424 1.574 . S
C1407 C1426 1.368 . S
C1407 H1431 0.949 . S
H1408 C1412 0.949 . S
C1409 C1410 1.349 . S
C1409 C1411 1.327 . S
C1409 H1432 0.950 . S
C1410 C1409 1.349 . S
C1410 C1422 1.349 . S
C1411 C1409 1.327 . S
C1411 C1427 1.429 . S
C1411 H1433 0.950 . S
C1412 H1408 0.949 . S
C1412 C1420 1.574 . S
C1412 C1428 1.368 . S
H1413 C1421 0.950 . S
H1414 C1419 0.950 . S
H1415 C1420 0.949 . S
H1416 C1422 0.950 . S
H1417 C1423 0.950 . S
H1418 C1424 0.949 . S
C1419 H1414 0.950 . S
C1419 C1421 1.327 . S
C1419 C1425 1.429 . S
C1420 C1412 1.574 . S
C1420 H1415 0.949 . S
C1420 C1426 1.368 . S
C1421 C1405 1.349 . S
C1421 H1413 0.950 . S
C1421 C1419 1.327 . S
C1422 C1410 1.349 . S
C1422 H1416 0.950 . S
C1422 C1423 1.327 . S
C1423 H1417 0.950 . S
C1423 C1422 1.327 . S
C1423 C1427 1.429 . S
C1424 C1407 1.574 . S
C1424 H1418 0.949 . S
C1424 C1428 1.368 . S
C1425 C1406 1.429 . S
C1425 C1419 1.429 . S
C1425 C1426 1.523 . S
C1426 C1407 1.368 . S
C1426 C1420 1.368 . S
C1426 C1425 1.523 . S
C1427 C1411 1.429 . S
C1427 C1423 1.429 . S
C1427 C1428 1.523 . S
C1428 C1412 1.368 . S
C1428 C1424 1.368 . S
C1428 C1427 1.523 . S
H1429 C1404 0.950 . S
H1430 C1406 0.950 . S
H1431 C1407 0.949 . S
H1432 C1409 0.950 . S
H1433 C1411 0.950 . S
C1434 C1435 1.349 . S
C1434 C1436 1.327 . S
C1434 H1459 0.950 . S
C1435 C1434 1.349 . S
C1435 C1451 1.349 . S
C1436 C1434 1.327 . S
C1436 C1455 1.429 . S
C1436 H1460 0.950 . S
C1437 C1454 1.574 . S
C1437 C1456 1.368 . S
C1437 H1461 0.949 . S
H1438 C1442 0.949 . S
C1439 C1440 1.349 . S
C1439 C1441 1.327 . S
C1439 H1462 0.950 . S
C1440 C1439 1.349 . S
C1440 C1452 1.349 . S
C1441 C1439 1.327 . S
C1441 C1457 1.429 . S
C1441 H1463 0.950 . S
C1442 H1438 0.949 . S
C1442 C1450 1.574 . S
C1442 C1458 1.368 . S
H1443 C1451 0.950 . S
H1444 C1449 0.950 . S
H1445 C1450 0.949 . S
H1446 C1452 0.950 . S
H1447 C1453 0.950 . S
H1448 C1454 0.949 . S
C1449 H1444 0.950 . S
C1449 C1451 1.327 . S
C1449 C1455 1.429 . S
C1450 C1442 1.574 . S
C1450 H1445 0.949 . S
C1450 C1456 1.368 . S
C1451 C1435 1.349 . S
C1451 H1443 0.950 . S
C1451 C1449 1.327 . S
C1452 C1440 1.349 . S
C1452 H1446 0.950 . S
C1452 C1453 1.327 . S
C1453 H1447 0.950 . S
C1453 C1452 1.327 . S
C1453 C1457 1.429 . S
C1454 C1437 1.574 . S
C1454 H1448 0.949 . S
C1454 C1458 1.368 . S
C1455 C1436 1.429 . S
C1455 C1449 1.429 . S
C1455 C1456 1.523 . S
C1456 C1437 1.368 . S
C1456 C1450 1.368 . S
C1456 C1455 1.523 . S
C1457 C1441 1.429 . S
C1457 C1453 1.429 . S
C1457 C1458 1.523 . S
C1458 C1442 1.368 . S
C1458 C1454 1.368 . S
C1458 C1457 1.523 . S
H1459 C1434 0.950 . S
H1460 C1436 0.950 . S
H1461 C1437 0.949 . S
H1462 C1439 0.950 . S
H1463 C1441 0.950 . S
C1464 C1465 1.349 . S
C1464 C1466 1.327 . S
C1464 H1489 0.950 . S
C1465 C1464 1.349 . S
C1465 C1481 1.349 . S
C1466 C1464 1.327 . S
C1466 C1485 1.429 . S
C1466 H1490 0.950 . S
C1467 C1484 1.574 . S
C1467 C1486 1.368 . S
C1467 H1491 0.949 . S
H1468 C1472 0.949 . S
C1469 C1470 1.349 . S
C1469 C1471 1.327 . S
C1469 H1492 0.950 . S
C1470 C1469 1.349 . S
C1470 C1482 1.349 . S
C1471 C1469 1.327 . S
C1471 C1487 1.429 . S
C1471 H1493 0.950 . S
C1472 H1468 0.949 . S
C1472 C1480 1.574 . S
C1472 C1488 1.368 . S
H1473 C1481 0.950 . S
H1474 C1479 0.950 . S
H1475 C1480 0.949 . S
H1476 C1482 0.950 . S
H1477 C1483 0.950 . S
H1478 C1484 0.949 . S
C1479 H1474 0.950 . S
C1479 C1481 1.327 . S
C1479 C1485 1.429 . S
C1480 C1472 1.574 . S
C1480 H1475 0.949 . S
C1480 C1486 1.368 . S
C1481 C1465 1.349 . S
C1481 H1473 0.950 . S
C1481 C1479 1.327 . S
C1482 C1470 1.349 . S
C1482 H1476 0.950 . S
C1482 C1483 1.327 . S
C1483 H1477 0.950 . S
C1483 C1482 1.327 . S
C1483 C1487 1.429 . S
C1484 C1467 1.574 . S
C1484 H1478 0.949 . S
C1484 C1488 1.368 . S
C1485 C1466 1.429 . S
C1485 C1479 1.429 . S
C1485 C1486 1.523 . S
C1486 C1467 1.368 . S
C1486 C1480 1.368 . S
C1486 C1485 1.523 . S
C1487 C1471 1.429 . S
C1487 C1483 1.429 . S
C1487 C1488 1.523 . S
C1488 C1472 1.368 . S
C1488 C1484 1.368 . S
C1488 C1487 1.523 . S
H1489 C1464 0.950 . S
H1490 C1466 0.950 . S
H1491 C1467 0.949 . S
H1492 C1469 0.950 . S
H1493 C1471 0.950 . S
C1494 C1495 1.349 . S
C1494 C1496 1.327 . S
C1494 H1519 0.950 . S
C1495 C1494 1.349 . S
C1495 C1511 1.349 . S
C1496 C1494 1.327 . S
C1496 C1515 1.429 . S
C1496 H1520 0.950 . S
C1497 C1514 1.574 . S
C1497 C1516 1.368 . S
C1497 H1521 0.949 . S
H1498 C1502 0.949 . S
C1499 C1500 1.349 . S
C1499 C1501 1.327 . S
C1499 H1522 0.950 . S
C1500 C1499 1.349 . S
C1500 C1512 1.349 . S
C1501 C1499 1.327 . S
C1501 C1517 1.429 . S
C1501 H1523 0.950 . S
C1502 H1498 0.949 . S
C1502 C1510 1.574 . S
C1502 C1518 1.368 . S
H1503 C1511 0.950 . S
H1504 C1509 0.950 . S
H1505 C1510 0.949 . S
H1506 C1512 0.950 . S
H1507 C1513 0.950 . S
H1508 C1514 0.949 . S
C1509 H1504 0.950 . S
C1509 C1511 1.327 . S
C1509 C1515 1.429 . S
C1510 C1502 1.574 . S
C1510 H1505 0.949 . S
C1510 C1516 1.368 . S
C1511 C1495 1.349 . S
C1511 H1503 0.950 . S
C1511 C1509 1.327 . S
C1512 C1500 1.349 . S
C1512 H1506 0.950 . S
C1512 C1513 1.327 . S
C1513 H1507 0.950 . S
C1513 C1512 1.327 . S
C1513 C1517 1.429 . S
C1514 C1497 1.574 . S
C1514 H1508 0.949 . S
C1514 C1518 1.368 . S
C1515 C1496 1.429 . S
C1515 C1509 1.429 . S
C1515 C1516 1.523 . S
C1516 C1497 1.368 . S
C1516 C1510 1.368 . S
C1516 C1515 1.523 . S
C1517 C1501 1.429 . S
C1517 C1513 1.429 . S
C1517 C1518 1.523 . S
C1518 C1502 1.368 . S
C1518 C1514 1.368 . S
C1518 C1517 1.523 . S
H1519 C1494 0.950 . S
H1520 C1496 0.950 . S
H1521 C1497 0.949 . S
H1522 C1499 0.950 . S
H1523 C1501 0.950 . S
C1524 C1525 1.349 . S
C1524 C1526 1.327 . S
C1524 H1549 0.950 . S
C1525 C1524 1.349 . S
C1525 C1541 1.349 . S
C1526 C1524 1.327 . S
C1526 C1545 1.429 . S
C1526 H1550 0.950 . S
C1527 C1544 1.574 . S
C1527 C1546 1.368 . S
C1527 H1551 0.949 . S
H1528 C1532 0.949 . S
C1529 C1530 1.349 . S
C1529 C1531 1.327 . S
C1529 H1552 0.950 . S
C1530 C1529 1.349 . S
C1530 C1542 1.349 . S
C1531 C1529 1.327 . S
C1531 C1547 1.429 . S
C1531 H1553 0.950 . S
C1532 H1528 0.949 . S
C1532 C1540 1.574 . S
C1532 C1548 1.368 . S
H1533 C1541 0.950 . S
H1534 C1539 0.950 . S
H1535 C1540 0.949 . S
H1536 C1542 0.950 . S
H1537 C1543 0.950 . S
H1538 C1544 0.949 . S
C1539 H1534 0.950 . S
C1539 C1541 1.327 . S
C1539 C1545 1.429 . S
C1540 C1532 1.574 . S
C1540 H1535 0.949 . S
C1540 C1546 1.368 . S
C1541 C1525 1.349 . S
C1541 H1533 0.950 . S
C1541 C1539 1.327 . S
C1542 C1530 1.349 . S
C1542 H1536 0.950 . S
C1542 C1543 1.327 . S
C1543 H1537 0.950 . S
C1543 C1542 1.327 . S
C1543 C1547 1.429 . S
C1544 C1527 1.574 . S
C1544 H1538 0.949 . S
C1544 C1548 1.368 . S
C1545 C1526 1.429 . S
C1545 C1539 1.429 . S
C1545 C1546 1.523 . S
C1546 C1527 1.368 . S
C1546 C1540 1.368 . S
C1546 C1545 1.523 . S
C1547 C1531 1.429 . S
C1547 C1543 1.429 . S
C1547 C1548 1.523 . S
C1548 C1532 1.368 . S
C1548 C1544 1.368 . S
C1548 C1547 1.523 . S
H1549 C1524 0.950 . S
H1550 C1526 0.950 . S
H1551 C1527 0.949 . S
H1552 C1529 0.950 . S
H1553 C1531 0.950 . S
C1554 C1555 1.349 . S
C1554 C1556 1.327 . S
C1554 H1579 0.950 . S
C1555 C1554 1.349 . S
C1555 C1571 1.349 . S
C1556 C1554 1.327 . S
C1556 C1575 1.429 . S
C1556 H1580 0.950 . S
C1557 C1574 1.574 . S
C1557 C1576 1.368 . S
C1557 H1581 0.949 . S
H1558 C1562 0.949 . S
C1559 C1560 1.349 . S
C1559 C1561 1.327 . S
C1559 H1582 0.950 . S
C1560 C1559 1.349 . S
C1560 C1572 1.349 . S
C1561 C1559 1.327 . S
C1561 C1577 1.429 . S
C1561 H1583 0.950 . S
C1562 H1558 0.949 . S
C1562 C1570 1.574 . S
C1562 C1578 1.368 . S
H1563 C1571 0.950 . S
H1564 C1569 0.950 . S
H1565 C1570 0.949 . S
H1566 C1572 0.950 . S
H1567 C1573 0.950 . S
H1568 C1574 0.949 . S
C1569 H1564 0.950 . S
C1569 C1571 1.327 . S
C1569 C1575 1.429 . S
C1570 C1562 1.574 . S
C1570 H1565 0.949 . S
C1570 C1576 1.368 . S
C1571 C1555 1.349 . S
C1571 H1563 0.950 . S
C1571 C1569 1.327 . S
C1572 C1560 1.349 . S
C1572 H1566 0.950 . S
C1572 C1573 1.327 . S
C1573 H1567 0.950 . S
C1573 C1572 1.327 . S
C1573 C1577 1.429 . S
C1574 C1557 1.574 . S
C1574 H1568 0.949 . S
C1574 C1578 1.368 . S
C1575 C1556 1.429 . S
C1575 C1569 1.429 . S
C1575 C1576 1.523 . S
C1576 C1557 1.368 . S
C1576 C1570 1.368 . S
C1576 C1575 1.523 . S
C1577 C1561 1.429 . S
C1577 C1573 1.429 . S
C1577 C1578 1.523 1_655 S
C1578 C1562 1.368 . S
C1578 C1574 1.368 . S
C1578 C1577 1.523 1_455 S
H1579 C1554 0.950 . S
H1580 C1556 0.950 . S
H1581 C1557 0.949 . S
H1582 C1559 0.950 . S
H1583 C1561 0.950 . S
C1584 C1585 1.349 . S
C1584 C1586 1.327 . S
C1584 H1609 0.950 . S
C1585 C1584 1.349 . S
C1585 C1601 1.349 . S
C1586 C1584 1.327 . S
C1586 C1605 1.429 . S
C1586 H1610 0.950 . S
C1587 C1604 1.574 . S
C1587 C1606 1.368 . S
C1587 H1611 0.949 . S
H1588 C1592 0.949 . S
C1589 C1590 1.349 . S
C1589 C1591 1.327 . S
C1589 H1612 0.950 . S
C1590 C1589 1.349 . S
C1590 C1602 1.349 . S
C1591 C1589 1.327 . S
C1591 C1607 1.429 . S
C1591 H1613 0.950 . S
C1592 H1588 0.949 . S
C1592 C1600 1.574 . S
C1592 C1608 1.368 . S
H1593 C1601 0.950 . S
H1594 C1599 0.950 . S
H1595 C1600 0.949 . S
H1596 C1602 0.950 . S
H1597 C1603 0.950 . S
H1598 C1604 0.949 . S
C1599 H1594 0.950 . S
C1599 C1601 1.327 . S
C1599 C1605 1.429 . S
C1600 C1592 1.574 . S
C1600 H1595 0.949 . S
C1600 C1606 1.368 . S
C1601 C1585 1.349 . S
C1601 H1593 0.950 . S
C1601 C1599 1.327 . S
C1602 C1590 1.349 . S
C1602 H1596 0.950 . S
C1602 C1603 1.327 . S
C1603 H1597 0.950 . S
C1603 C1602 1.327 . S
C1603 C1607 1.429 . S
C1604 C1587 1.574 . S
C1604 H1598 0.949 . S
C1604 C1608 1.368 . S
C1605 C1586 1.429 . S
C1605 C1599 1.429 . S
C1605 C1606 1.523 . S
C1606 C1587 1.368 . S
C1606 C1600 1.368 . S
C1606 C1605 1.523 . S
C1607 C1591 1.429 . S
C1607 C1603 1.429 . S
C1607 C1608 1.523 . S
C1608 C1592 1.368 . S
C1608 C1604 1.368 . S
C1608 C1607 1.523 . S
H1609 C1584 0.950 . S
H1610 C1586 0.950 . S
H1611 C1587 0.949 . S
H1612 C1589 0.950 . S
H1613 C1591 0.950 . S
C1614 C1615 1.349 . S
C1614 C1616 1.327 . S
C1614 H1639 0.950 . S
C1615 C1614 1.349 . S
C1615 C1631 1.349 . S
C1616 C1614 1.327 . S
C1616 C1635 1.429 . S
C1616 H1640 0.950 . S
C1617 C1634 1.574 . S
C1617 C1636 1.368 . S
C1617 H1641 0.949 . S
H1618 C1622 0.949 . S
C1619 C1620 1.349 . S
C1619 C1621 1.327 . S
C1619 H1642 0.950 . S
C1620 C1619 1.349 . S
C1620 C1632 1.349 . S
C1621 C1619 1.327 . S
C1621 C1637 1.429 . S
C1621 H1643 0.950 . S
C1622 H1618 0.949 . S
C1622 C1630 1.574 . S
C1622 C1638 1.368 . S
H1623 C1631 0.950 . S
H1624 C1629 0.950 . S
H1625 C1630 0.949 . S
H1626 C1632 0.950 . S
H1627 C1633 0.950 . S
H1628 C1634 0.949 . S
C1629 H1624 0.950 . S
C1629 C1631 1.327 . S
C1629 C1635 1.429 . S
C1630 C1622 1.574 . S
C1630 H1625 0.949 . S
C1630 C1636 1.368 . S
C1631 C1615 1.349 . S
C1631 H1623 0.950 . S
C1631 C1629 1.327 . S
C1632 C1620 1.349 . S
C1632 H1626 0.950 . S
C1632 C1633 1.327 . S
C1633 H1627 0.950 . S
C1633 C1632 1.327 . S
C1633 C1637 1.429 . S
C1634 C1617 1.574 . S
C1634 H1628 0.949 . S
C1634 C1638 1.368 . S
C1635 C1616 1.429 . S
C1635 C1629 1.429 . S
C1635 C1636 1.523 . S
C1636 C1617 1.368 . S
C1636 C1630 1.368 . S
C1636 C1635 1.523 . S
C1637 C1621 1.429 . S
C1637 C1633 1.429 . S
C1637 C1638 1.523 . S
C1638 C1622 1.368 . S
C1638 C1634 1.368 . S
C1638 C1637 1.523 . S
H1639 C1614 0.950 . S
H1640 C1616 0.950 . S
H1641 C1617 0.949 . S
H1642 C1619 0.950 . S
H1643 C1621 0.950 . S
C1644 C1645 1.349 . S
C1644 C1646 1.327 . S
C1644 H1669 0.950 . S
C1645 C1644 1.349 . S
C1645 C1661 1.349 . S
C1646 C1644 1.327 . S
C1646 C1665 1.429 . S
C1646 H1670 0.950 . S
C1647 C1664 1.574 . S
C1647 C1666 1.368 . S
C1647 H1671 0.949 . S
H1648 C1652 0.949 . S
C1649 C1650 1.349 . S
C1649 C1651 1.327 . S
C1649 H1672 0.950 . S
C1650 C1649 1.349 . S
C1650 C1662 1.349 . S
C1651 C1649 1.327 . S
C1651 C1667 1.429 . S
C1651 H1673 0.950 . S
C1652 H1648 0.949 . S
C1652 C1660 1.574 . S
C1652 C1668 1.368 . S
H1653 C1661 0.950 . S
H1654 C1659 0.950 . S
H1655 C1660 0.949 . S
H1656 C1662 0.950 . S
H1657 C1663 0.950 . S
H1658 C1664 0.949 . S
C1659 H1654 0.950 . S
C1659 C1661 1.327 . S
C1659 C1665 1.429 . S
C1660 C1652 1.574 . S
C1660 H1655 0.949 . S
C1660 C1666 1.368 . S
C1661 C1645 1.349 . S
C1661 H1653 0.950 . S
C1661 C1659 1.327 . S
C1662 C1650 1.349 . S
C1662 H1656 0.950 . S
C1662 C1663 1.327 . S
C1663 H1657 0.950 . S
C1663 C1662 1.327 . S
C1663 C1667 1.429 . S
C1664 C1647 1.574 . S
C1664 H1658 0.949 . S
C1664 C1668 1.368 . S
C1665 C1646 1.429 . S
C1665 C1659 1.429 . S
C1665 C1666 1.523 . S
C1666 C1647 1.368 . S
C1666 C1660 1.368 . S
C1666 C1665 1.523 . S
C1667 C1651 1.429 . S
C1667 C1663 1.429 . S
C1667 C1668 1.523 . S
C1668 C1652 1.368 . S
C1668 C1664 1.368 . S
C1668 C1667 1.523 . S
H1669 C1644 0.950 . S
H1670 C1646 0.950 . S
H1671 C1647 0.949 . S
H1672 C1649 0.950 . S
H1673 C1651 0.950 . S
C1674 C1675 1.349 . S
C1674 C1676 1.327 . S
C1674 H1699 0.950 . S
C1675 C1674 1.349 . S
C1675 C1691 1.349 . S
C1676 C1674 1.327 . S
C1676 C1695 1.429 . S
C1676 H1700 0.950 . S
C1677 C1694 1.574 . S
C1677 C1696 1.368 . S
C1677 H1701 0.949 . S
H1678 C1682 0.949 . S
C1679 C1680 1.349 . S
C1679 C1681 1.327 . S
C1679 H1702 0.950 . S
C1680 C1679 1.349 . S
C1680 C1692 1.349 . S
C1681 C1679 1.327 . S
C1681 C1697 1.429 . S
C1681 H1703 0.950 . S
C1682 H1678 0.949 . S
C1682 C1690 1.574 . S
C1682 C1698 1.368 . S
H1683 C1691 0.950 . S
H1684 C1689 0.950 . S
H1685 C1690 0.949 . S
H1686 C1692 0.950 . S
H1687 C1693 0.950 . S
H1688 C1694 0.949 1_554 S
C1689 H1684 0.950 . S
C1689 C1691 1.327 . S
C1689 C1695 1.429 . S
C1690 C1682 1.574 . S
C1690 H1685 0.949 . S
C1690 C1696 1.368 . S
C1691 C1675 1.349 . S
C1691 H1683 0.950 . S
C1691 C1689 1.327 . S
C1692 C1680 1.349 . S
C1692 H1686 0.950 . S
C1692 C1693 1.327 . S
C1693 H1687 0.950 . S
C1693 C1692 1.327 . S
C1693 C1697 1.429 . S
C1694 C1677 1.574 . S
C1694 H1688 0.949 1_556 S
C1694 C1698 1.368 . S
C1695 C1676 1.429 . S
C1695 C1689 1.429 . S
C1695 C1696 1.523 . S
C1696 C1677 1.368 . S
C1696 C1690 1.368 . S
C1696 C1695 1.523 . S
C1697 C1681 1.429 . S
C1697 C1693 1.429 . S
C1697 C1698 1.523 1_554 S
C1698 C1682 1.368 . S
C1698 C1694 1.368 . S
C1698 C1697 1.523 1_556 S
H1699 C1674 0.950 . S
H1700 C1676 0.950 . S
H1701 C1677 0.949 . S
H1702 C1679 0.950 . S
H1703 C1681 0.950 . S
C1704 C1705 1.349 . S
C1704 C1706 1.327 . S
C1704 H1729 0.950 . S
C1705 C1704 1.349 . S
C1705 C1721 1.349 . S
C1706 C1704 1.327 . S
C1706 C1725 1.429 . S
C1706 H1730 0.950 . S
C1707 C1724 1.574 . S
C1707 C1726 1.368 . S
C1707 H1731 0.949 . S
H1708 C1712 0.949 . S
C1709 C1710 1.349 . S
C1709 C1711 1.327 . S
C1709 H1732 0.950 . S
C1710 C1709 1.349 . S
C1710 C1722 1.349 . S
C1711 C1709 1.327 . S
C1711 C1727 1.429 . S
C1711 H1733 0.950 . S
C1712 H1708 0.949 . S
C1712 C1720 1.574 . S
C1712 C1728 1.368 . S
H1713 C1721 0.950 . S
H1714 C1719 0.950 . S
H1715 C1720 0.949 . S
H1716 C1722 0.950 . S
H1717 C1723 0.950 . S
H1718 C1724 0.949 . S
C1719 H1714 0.950 . S
C1719 C1721 1.327 . S
C1719 C1725 1.429 . S
C1720 C1712 1.574 . S
C1720 H1715 0.949 . S
C1720 C1726 1.368 . S
C1721 C1705 1.349 . S
C1721 H1713 0.950 . S
C1721 C1719 1.327 . S
C1722 C1710 1.349 . S
C1722 H1716 0.950 . S
C1722 C1723 1.327 . S
C1723 H1717 0.950 . S
C1723 C1722 1.327 . S
C1723 C1727 1.429 . S
C1724 C1707 1.574 . S
C1724 H1718 0.949 . S
C1724 C1728 1.368 . S
C1725 C1706 1.429 . S
C1725 C1719 1.429 . S
C1725 C1726 1.523 . S
C1726 C1707 1.368 . S
C1726 C1720 1.368 . S
C1726 C1725 1.523 . S
C1727 C1711 1.429 . S
C1727 C1723 1.429 . S
C1727 C1728 1.523 . S
C1728 C1712 1.368 . S
C1728 C1724 1.368 . S
C1728 C1727 1.523 . S
H1729 C1704 0.950 . S
H1730 C1706 0.950 . S
H1731 C1707 0.949 . S
H1732 C1709 0.950 . S
H1733 C1711 0.950 . S
C1734 C1735 1.349 . S
C1734 C1736 1.327 . S
C1734 H1759 0.950 . S
C1735 C1734 1.349 . S
C1735 C1751 1.349 . S
C1736 C1734 1.327 . S
C1736 C1755 1.429 . S
C1736 H1760 0.950 . S
C1737 C1754 1.574 . S
C1737 C1756 1.368 . S
C1737 H1761 0.949 . S
H1738 C1742 0.949 . S
C1739 C1740 1.349 . S
C1739 C1741 1.327 . S
C1739 H1762 0.950 . S
C1740 C1739 1.349 . S
C1740 C1752 1.349 . S
C1741 C1739 1.327 . S
C1741 C1757 1.429 . S
C1741 H1763 0.950 . S
C1742 H1738 0.949 . S
C1742 C1750 1.574 . S
C1742 C1758 1.368 . S
H1743 C1751 0.950 . S
H1744 C1749 0.950 . S
H1745 C1750 0.949 . S
H1746 C1752 0.950 . S
H1747 C1753 0.950 . S
H1748 C1754 0.949 . S
C1749 H1744 0.950 . S
C1749 C1751 1.327 . S
C1749 C1755 1.429 . S
C1750 C1742 1.574 . S
C1750 H1745 0.949 . S
C1750 C1756 1.368 . S
C1751 C1735 1.349 . S
C1751 H1743 0.950 . S
C1751 C1749 1.327 . S
C1752 C1740 1.349 . S
C1752 H1746 0.950 . S
C1752 C1753 1.327 . S
C1753 H1747 0.950 . S
C1753 C1752 1.327 . S
C1753 C1757 1.429 . S
C1754 C1737 1.574 . S
C1754 H1748 0.949 . S
C1754 C1758 1.368 . S
C1755 C1736 1.429 . S
C1755 C1749 1.429 . S
C1755 C1756 1.523 . S
C1756 C1737 1.368 . S
C1756 C1750 1.368 . S
C1756 C1755 1.523 . S
C1757 C1741 1.429 . S
C1757 C1753 1.429 . S
C1757 C1758 1.523 . S
C1758 C1742 1.368 . S
C1758 C1754 1.368 . S
C1758 C1757 1.523 . S
H1759 C1734 0.950 . S
H1760 C1736 0.950 . S
H1761 C1737 0.949 . S
H1762 C1739 0.950 . S
H1763 C1741 0.950 . S
C1764 C1765 1.349 . S
C1764 C1766 1.327 . S
C1764 H1789 0.950 . S
C1765 C1764 1.349 . S
C1765 C1781 1.349 . S
C1766 C1764 1.327 . S
C1766 C1785 1.429 . S
C1766 H1790 0.950 . S
C1767 C1784 1.574 . S
C1767 C1786 1.368 . S
C1767 H1791 0.949 . S
H1768 C1772 0.949 . S
C1769 C1770 1.349 . S
C1769 C1771 1.327 . S
C1769 H1792 0.950 . S
C1770 C1769 1.349 . S
C1770 C1782 1.349 . S
C1771 C1769 1.327 . S
C1771 C1787 1.429 . S
C1771 H1793 0.950 . S
C1772 H1768 0.949 . S
C1772 C1780 1.574 . S
C1772 C1788 1.368 . S
H1773 C1781 0.950 . S
H1774 C1779 0.950 . S
H1775 C1780 0.949 . S
H1776 C1782 0.950 . S
H1777 C1783 0.950 . S
H1778 C1784 0.949 . S
C1779 H1774 0.950 . S
C1779 C1781 1.327 . S
C1779 C1785 1.429 . S
C1780 C1772 1.574 . S
C1780 H1775 0.949 . S
C1780 C1786 1.368 . S
C1781 C1765 1.349 . S
C1781 H1773 0.950 . S
C1781 C1779 1.327 . S
C1782 C1770 1.349 . S
C1782 H1776 0.950 . S
C1782 C1783 1.327 . S
C1783 H1777 0.950 . S
C1783 C1782 1.327 . S
C1783 C1787 1.429 . S
C1784 C1767 1.574 . S
C1784 H1778 0.949 . S
C1784 C1788 1.368 . S
C1785 C1766 1.429 . S
C1785 C1779 1.429 . S
C1785 C1786 1.523 . S
C1786 C1767 1.368 . S
C1786 C1780 1.368 . S
C1786 C1785 1.523 . S
C1787 C1771 1.429 . S
C1787 C1783 1.429 . S
C1787 C1788 1.523 . S
C1788 C1772 1.368 . S
C1788 C1784 1.368 . S
C1788 C1787 1.523 . S
H1789 C1764 0.950 . S
H1790 C1766 0.950 . S
H1791 C1767 0.949 . S
H1792 C1769 0.950 . S
H1793 C1771 0.950 . S
C1794 C1795 1.349 . S
C1794 C1796 1.327 . S
C1794 H1819 0.950 . S
C1795 C1794 1.349 . S
C1795 C1811 1.349 . S
C1796 C1794 1.327 . S
C1796 C1815 1.429 . S
C1796 H1820 0.950 . S
C1797 C1814 1.574 . S
C1797 C1816 1.384 . S
C1797 H1821 0.949 1_554 S
H1798 C1802 0.949 . S
C1799 C1800 1.349 . S
C1799 C1801 1.327 . S
C1799 H1822 0.950 . S
C1800 C1799 1.349 . S
C1800 C1812 1.349 . S
C1801 C1799 1.327 . S
C1801 C1817 1.429 . S
C1801 H1823 0.950 . S
C1802 H1798 0.949 . S
C1802 C1810 1.574 . S
C1802 C1818 1.368 . S
H1803 C1811 0.950 . S
H1804 C1809 0.950 . S
H1805 C1810 0.949 . S
H1806 C1812 0.950 . S
H1807 C1813 0.950 . S
H1808 C1814 0.949 . S
C1809 H1804 0.950 . S
C1809 C1811 1.327 . S
C1809 C1815 1.429 . S
C1810 C1802 1.574 . S
C1810 H1805 0.949 . S
C1810 C1816 1.399 . S
C1811 C1795 1.349 . S
C1811 H1803 0.950 . S
C1811 C1809 1.327 . S
C1812 C1800 1.349 . S
C1812 H1806 0.950 . S
C1812 C1813 1.327 . S
C1813 H1807 0.950 . S
C1813 C1812 1.327 . S
C1813 C1817 1.429 . S
C1814 C1797 1.574 . S
C1814 H1808 0.949 . S
C1814 C1818 1.368 . S
C1815 C1796 1.429 . S
C1815 C1809 1.429 . S
C1815 C1816 1.466 1_556 S
C1816 C1797 1.384 . S
C1816 C1810 1.399 . S
C1816 C1815 1.466 1_554 S
C1817 C1801 1.429 . S
C1817 C1813 1.429 . S
C1817 C1818 1.523 . S
C1818 C1802 1.368 . S
C1818 C1814 1.368 . S
C1818 C1817 1.523 . S
H1819 C1794 0.950 . S
H1820 C1796 0.950 . S
H1821 C1797 0.949 1_556 S
H1822 C1799 0.950 . S
H1823 C1801 0.950 . S
C1824 C1825 1.349 . S
C1824 C1826 1.327 . S
C1824 H1849 0.950 . S
C1825 C1824 1.349 . S
C1825 C1841 1.349 . S
C1826 C1824 1.327 . S
C1826 C1845 1.429 . S
C1826 H1850 0.950 . S
C1827 C1844 1.574 . S
C1827 C1846 1.368 . S
C1827 H1851 0.949 . S
H1828 C1832 0.949 . S
C1829 C1830 1.349 . S
C1829 C1831 1.327 . S
C1829 H1852 0.950 . S
C1830 C1829 1.349 . S
C1830 C1842 1.349 . S
C1831 C1829 1.327 . S
C1831 C1847 1.429 . S
C1831 H1853 0.950 . S
C1832 H1828 0.949 . S
C1832 C1840 1.574 . S
C1832 C1848 1.368 . S
H1833 C1841 0.950 . S
H1834 C1839 0.950 . S
H1835 C1840 0.949 . S
H1836 C1842 0.950 . S
H1837 C1843 0.950 . S
H1838 C1844 0.949 . S
C1839 H1834 0.950 . S
C1839 C1841 1.327 . S
C1839 C1845 1.429 . S
C1840 C1832 1.574 . S
C1840 H1835 0.949 . S
C1840 C1846 1.368 . S
C1841 C1825 1.349 . S
C1841 H1833 0.950 . S
C1841 C1839 1.327 . S
C1842 C1830 1.349 . S
C1842 H1836 0.950 . S
C1842 C1843 1.327 . S
C1843 H1837 0.950 . S
C1843 C1842 1.327 . S
C1843 C1847 1.429 . S
C1844 C1827 1.574 . S
C1844 H1838 0.949 . S
C1844 C1848 1.368 . S
C1845 C1826 1.429 . S
C1845 C1839 1.429 . S
C1845 C1846 1.523 . S
C1846 C1827 1.368 . S
C1846 C1840 1.368 . S
C1846 C1845 1.523 . S
C1847 C1831 1.429 . S
C1847 C1843 1.429 . S
C1847 C1848 1.523 . S
C1848 C1832 1.368 . S
C1848 C1844 1.368 . S
C1848 C1847 1.523 . S
H1849 C1824 0.950 . S
H1850 C1826 0.950 . S
H1851 C1827 0.949 . S
H1852 C1829 0.950 . S
H1853 C1831 0.950 . S
C1854 C1855 1.349 . S
C1854 C1856 1.327 . S
C1854 H1879 0.950 . S
C1855 C1854 1.349 . S
C1855 C1871 1.349 . S
C1856 C1854 1.327 . S
C1856 C1875 1.429 . S
C1856 H1880 0.950 . S
C1857 C1874 1.574 . S
C1857 C1876 1.368 . S
C1857 H1881 0.949 . S
H1858 C1862 0.949 . S
C1859 C1860 1.349 . S
C1859 C1861 1.327 . S
C1859 H1882 0.950 . S
C1860 C1859 1.349 . S
C1860 C1872 1.349 . S
C1861 C1859 1.327 . S
C1861 C1877 1.429 . S
C1861 H1883 0.950 . S
C1862 H1858 0.949 . S
C1862 C1870 1.574 . S
C1862 C1878 1.368 . S
H1863 C1871 0.950 . S
H1864 C1869 0.950 . S
H1865 C1870 0.949 . S
H1866 C1872 0.950 . S
H1867 C1873 0.950 . S
H1868 C1874 0.949 . S
C1869 H1864 0.950 . S
C1869 C1871 1.327 . S
C1869 C1875 1.429 . S
C1870 C1862 1.574 . S
C1870 H1865 0.949 . S
C1870 C1876 1.368 . S
C1871 C1855 1.349 . S
C1871 H1863 0.950 . S
C1871 C1869 1.327 . S
C1872 C1860 1.349 . S
C1872 H1866 0.950 . S
C1872 C1873 1.327 . S
C1873 H1867 0.950 . S
C1873 C1872 1.327 . S
C1873 C1877 1.429 . S
C1874 C1857 1.574 . S
C1874 H1868 0.949 . S
C1874 C1878 1.368 . S
C1875 C1856 1.429 . S
C1875 C1869 1.429 . S
C1875 C1876 1.523 . S
C1876 C1857 1.368 . S
C1876 C1870 1.368 . S
C1876 C1875 1.523 . S
C1877 C1861 1.429 . S
C1877 C1873 1.429 . S
C1877 C1878 1.523 . S
C1878 C1862 1.368 . S
C1878 C1874 1.368 . S
C1878 C1877 1.523 . S
H1879 C1854 0.950 . S
H1880 C1856 0.950 . S
H1881 C1857 0.949 . S
H1882 C1859 0.950 . S
H1883 C1861 0.950 . S
C1884 C1885 1.349 . S
C1884 C1886 1.327 . S
C1884 H1909 0.950 . S
C1885 C1884 1.349 . S
C1885 C1901 1.349 . S
C1886 C1884 1.327 . S
C1886 C1905 1.429 . S
C1886 H1910 0.950 . S
C1887 C1904 1.574 . S
C1887 C1906 1.368 . S
C1887 H1911 0.949 . S
H1888 C1892 0.949 . S
C1889 C1890 1.349 . S
C1889 C1891 1.327 . S
C1889 H1912 0.950 . S
C1890 C1889 1.349 . S
C1890 C1902 1.349 . S
C1891 C1889 1.327 . S
C1891 C1907 1.429 . S
C1891 H1913 0.950 . S
C1892 H1888 0.949 . S
C1892 C1900 1.574 . S
C1892 C1908 1.368 . S
H1893 C1901 0.950 . S
H1894 C1899 0.950 . S
H1895 C1900 0.949 . S
H1896 C1902 0.950 . S
H1897 C1903 0.950 . S
H1898 C1904 0.949 . S
C1899 H1894 0.950 . S
C1899 C1901 1.327 . S
C1899 C1905 1.429 . S
C1900 C1892 1.574 . S
C1900 H1895 0.949 . S
C1900 C1906 1.368 . S
C1901 C1885 1.349 . S
C1901 H1893 0.950 . S
C1901 C1899 1.327 . S
C1902 C1890 1.349 . S
C1902 H1896 0.950 . S
C1902 C1903 1.327 . S
C1903 H1897 0.950 . S
C1903 C1902 1.327 . S
C1903 C1907 1.429 . S
C1904 C1887 1.574 . S
C1904 H1898 0.949 . S
C1904 C1908 1.368 . S
C1905 C1886 1.429 . S
C1905 C1899 1.429 . S
C1905 C1906 1.523 . S
C1906 C1887 1.368 . S
C1906 C1900 1.368 . S
C1906 C1905 1.523 . S
C1907 C1891 1.429 . S
C1907 C1903 1.429 . S
C1907 C1908 1.523 . S
C1908 C1892 1.368 . S
C1908 C1904 1.368 . S
C1908 C1907 1.523 . S
H1909 C1884 0.950 . S
H1910 C1886 0.950 . S
H1911 C1887 0.949 . S
H1912 C1889 0.950 . S
H1913 C1891 0.950 . S
C1914 C1915 1.349 . S
C1914 C1916 1.327 . S
C1914 H1939 0.950 . S
C1915 C1914 1.349 . S
C1915 C1931 1.349 . S
C1916 C1914 1.327 . S
C1916 C1935 1.429 . S
C1916 H1940 0.950 . S
C1917 C1934 1.574 . S
C1917 C1936 1.368 . S
C1917 H1941 0.949 . S
H1918 C1922 0.949 . S
C1919 C1920 1.349 . S
C1919 C1921 1.327 . S
C1919 H1942 0.950 . S
C1920 C1919 1.349 . S
C1920 C1932 1.349 . S
C1921 C1919 1.327 . S
C1921 C1937 1.429 . S
C1921 H1943 0.950 . S
C1922 H1918 0.949 . S
C1922 C1930 1.574 . S
C1922 C1938 1.368 . S
H1923 C1931 0.950 . S
H1924 C1929 0.950 . S
H1925 C1930 0.949 . S
H1926 C1932 0.950 . S
H1927 C1933 0.950 . S
H1928 C1934 0.949 . S
C1929 H1924 0.950 . S
C1929 C1931 1.327 . S
C1929 C1935 1.429 . S
C1930 C1922 1.574 . S
C1930 H1925 0.949 . S
C1930 C1936 1.368 . S
C1931 C1915 1.349 . S
C1931 H1923 0.950 . S
C1931 C1929 1.327 . S
C1932 C1920 1.349 . S
C1932 H1926 0.950 . S
C1932 C1933 1.327 . S
C1933 H1927 0.950 . S
C1933 C1932 1.327 . S
C1933 C1937 1.429 . S
C1934 C1917 1.574 . S
C1934 H1928 0.949 . S
C1934 C1938 1.368 . S
C1935 C1916 1.429 . S
C1935 C1929 1.429 . S
C1935 C1936 1.523 . S
C1936 C1917 1.368 . S
C1936 C1930 1.368 . S
C1936 C1935 1.523 . S
C1937 C1921 1.429 . S
C1937 C1933 1.429 . S
C1937 C1938 1.523 . S
C1938 C1922 1.368 . S
C1938 C1934 1.368 . S
C1938 C1937 1.523 . S
H1939 C1914 0.950 . S
H1940 C1916 0.950 . S
H1941 C1917 0.949 . S
H1942 C1919 0.950 . S
H1943 C1921 0.950 . S
C1944 C1945 1.349 . S
C1944 C1946 1.327 . S
C1944 H1969 0.950 . S
C1945 C1944 1.349 . S
C1945 C1961 1.349 . S
C1946 C1944 1.327 . S
C1946 C1965 1.429 . S
C1946 H1970 0.950 . S
C1947 C1964 1.574 . S
C1947 C1966 1.368 . S
C1947 H1971 0.949 . S
H1948 C1952 0.949 . S
C1949 C1950 1.349 . S
C1949 C1951 1.327 . S
C1949 H1972 0.950 . S
C1950 C1949 1.349 . S
C1950 C1962 1.349 . S
C1951 C1949 1.327 . S
C1951 C1967 1.429 . S
C1951 H1973 0.950 . S
C1952 H1948 0.949 . S
C1952 C1960 1.574 . S
C1952 C1968 1.368 . S
H1953 C1961 0.950 . S
H1954 C1959 0.950 . S
H1955 C1960 0.949 . S
H1956 C1962 0.950 . S
H1957 C1963 0.950 . S
H1958 C1964 0.949 . S
C1959 H1954 0.950 . S
C1959 C1961 1.327 . S
C1959 C1965 1.429 . S
C1960 C1952 1.574 . S
C1960 H1955 0.949 . S
C1960 C1966 1.368 . S
C1961 C1945 1.349 . S
C1961 H1953 0.950 . S
C1961 C1959 1.327 . S
C1962 C1950 1.349 . S
C1962 H1956 0.950 . S
C1962 C1963 1.327 . S
C1963 H1957 0.950 . S
C1963 C1962 1.327 . S
C1963 C1967 1.429 . S
C1964 C1947 1.574 . S
C1964 H1958 0.949 . S
C1964 C1968 1.368 . S
C1965 C1946 1.429 . S
C1965 C1959 1.429 . S
C1965 C1966 1.523 1_565 S
C1966 C1947 1.368 . S
C1966 C1960 1.368 . S
C1966 C1965 1.523 1_545 S
C1967 C1951 1.429 . S
C1967 C1963 1.429 . S
C1967 C1968 1.523 . S
C1968 C1952 1.368 . S
C1968 C1964 1.368 . S
C1968 C1967 1.523 . S
H1969 C1944 0.950 . S
H1970 C1946 0.950 . S
H1971 C1947 0.949 . S
H1972 C1949 0.950 . S
H1973 C1951 0.950 . S
C1974 C1975 1.349 . S
C1974 C1976 1.327 . S
C1974 H1999 0.950 . S
C1975 C1974 1.349 . S
C1975 C1991 1.349 . S
C1976 C1974 1.327 . S
C1976 C1995 1.429 . S
C1976 H2000 0.950 . S
C1977 C1994 1.574 . S
C1977 C1996 1.368 . S
C1977 H2001 0.949 . S
H1978 C1982 0.949 . S
C1979 C1980 1.349 . S
C1979 C1981 1.327 . S
C1979 H2002 0.950 . S
C1980 C1979 1.349 . S
C1980 C1992 1.349 . S
C1981 C1979 1.327 . S
C1981 C1997 1.429 . S
C1981 H2003 0.950 . S
C1982 H1978 0.949 . S
C1982 C1990 1.574 . S
C1982 C1998 1.368 . S
H1983 C1991 0.950 . S
H1984 C1989 0.950 . S
H1985 C1990 0.949 . S
H1986 C1992 0.950 . S
H1987 C1993 0.950 . S
H1988 C1994 0.949 . S
C1989 H1984 0.950 . S
C1989 C1991 1.327 . S
C1989 C1995 1.429 . S
C1990 C1982 1.574 . S
C1990 H1985 0.949 . S
C1990 C1996 1.368 . S
C1991 C1975 1.349 . S
C1991 H1983 0.950 . S
C1991 C1989 1.327 . S
C1992 C1980 1.349 . S
C1992 H1986 0.950 . S
C1992 C1993 1.327 . S
C1993 H1987 0.950 . S
C1993 C1992 1.327 . S
C1993 C1997 1.429 . S
C1994 C1977 1.574 . S
C1994 H1988 0.949 . S
C1994 C1998 1.368 . S
C1995 C1976 1.429 . S
C1995 C1989 1.429 . S
C1995 C1996 1.523 . S
C1996 C1977 1.368 . S
C1996 C1990 1.368 . S
C1996 C1995 1.523 . S
C1997 C1981 1.429 . S
C1997 C1993 1.429 . S
C1997 C1998 1.523 . S
C1998 C1982 1.368 . S
C1998 C1994 1.368 . S
C1998 C1997 1.523 . S
H1999 C1974 0.950 . S
H2000 C1976 0.950 . S
H2001 C1977 0.949 . S
H2002 C1979 0.950 . S
H2003 C1981 0.950 . S
C2004 C2005 1.349 . S
C2004 C2006 1.327 . S
C2004 H2029 0.950 . S
C2005 C2004 1.349 . S
C2005 C2021 1.349 . S
C2006 C2004 1.327 . S
C2006 C2025 1.429 . S
C2006 H2030 0.950 . S
C2007 C2024 1.574 . S
C2007 C2026 1.368 . S
C2007 H2031 0.949 . S
H2008 C2012 0.949 . S
C2009 C2010 1.349 . S
C2009 C2011 1.327 . S
C2009 H2032 0.950 . S
C2010 C2009 1.349 . S
C2010 C2022 1.349 . S
C2011 C2009 1.327 . S
C2011 C2027 1.429 . S
C2011 H2033 0.950 . S
C2012 H2008 0.949 . S
C2012 C2020 1.574 . S
C2012 C2028 1.368 . S
H2013 C2021 0.950 . S
H2014 C2019 0.950 . S
H2015 C2020 0.949 . S
H2016 C2022 0.950 . S
H2017 C2023 0.950 . S
H2018 C2024 0.949 . S
C2019 H2014 0.950 . S
C2019 C2021 1.327 . S
C2019 C2025 1.429 . S
C2020 C2012 1.574 . S
C2020 H2015 0.949 . S
C2020 C2026 1.368 . S
C2021 C2005 1.349 . S
C2021 H2013 0.950 . S
C2021 C2019 1.327 . S
C2022 C2010 1.349 . S
C2022 H2016 0.950 . S
C2022 C2023 1.327 . S
C2023 H2017 0.950 . S
C2023 C2022 1.327 . S
C2023 C2027 1.429 . S
C2024 C2007 1.574 . S
C2024 H2018 0.949 . S
C2024 C2028 1.368 . S
C2025 C2006 1.429 . S
C2025 C2019 1.429 . S
C2025 C2026 1.523 . S
C2026 C2007 1.368 . S
C2026 C2020 1.368 . S
C2026 C2025 1.523 . S
C2027 C2011 1.429 . S
C2027 C2023 1.429 . S
C2027 C2028 1.523 . S
C2028 C2012 1.368 . S
C2028 C2024 1.368 . S
C2028 C2027 1.523 . S
H2029 C2004 0.950 . S
H2030 C2006 0.950 . S
H2031 C2007 0.949 . S
H2032 C2009 0.950 . S
H2033 C2011 0.950 . S
C2034 C2035 1.349 . S
C2034 C2036 1.327 . S
C2034 H2059 0.950 . S
C2035 C2034 1.349 . S
C2035 C2051 1.349 . S
C2036 C2034 1.327 . S
C2036 C2055 1.429 . S
C2036 H2060 0.950 . S
C2037 C2054 1.574 . S
C2037 C2056 1.368 . S
C2037 H2061 0.949 . S
H2038 C2042 0.949 . S
C2039 C2040 1.349 . S
C2039 C2041 1.327 . S
C2039 H2062 0.950 . S
C2040 C2039 1.349 . S
C2040 C2052 1.349 . S
C2041 C2039 1.327 . S
C2041 C2057 1.429 . S
C2041 H2063 0.950 . S
C2042 H2038 0.949 . S
C2042 C2050 1.574 . S
C2042 C2058 1.368 . S
H2043 C2051 0.950 . S
H2044 C2049 0.950 . S
H2045 C2050 0.949 . S
H2046 C2052 0.950 . S
H2047 C2053 0.950 . S
H2048 C2054 0.949 . S
C2049 H2044 0.950 . S
C2049 C2051 1.327 . S
C2049 C2055 1.429 . S
C2050 C2042 1.574 . S
C2050 H2045 0.949 . S
C2050 C2056 1.368 . S
C2051 C2035 1.349 . S
C2051 H2043 0.950 . S
C2051 C2049 1.327 . S
C2052 C2040 1.349 . S
C2052 H2046 0.950 . S
C2052 C2053 1.327 . S
C2053 H2047 0.950 . S
C2053 C2052 1.327 . S
C2053 C2057 1.429 . S
C2054 C2037 1.574 . S
C2054 H2048 0.949 . S
C2054 C2058 1.368 . S
C2055 C2036 1.429 . S
C2055 C2049 1.429 . S
C2055 C2056 1.523 . S
C2056 C2037 1.368 . S
C2056 C2050 1.368 . S
C2056 C2055 1.523 . S
C2057 C2041 1.429 . S
C2057 C2053 1.429 . S
C2057 C2058 1.523 . S
C2058 C2042 1.368 . S
C2058 C2054 1.368 . S
C2058 C2057 1.523 . S
H2059 C2034 0.950 . S
H2060 C2036 0.950 . S
H2061 C2037 0.949 . S
H2062 C2039 0.950 . S
H2063 C2041 0.950 . S
C2064 C2065 1.349 . S
C2064 C2066 1.327 . S
C2064 H2089 0.950 . S
C2065 C2064 1.349 . S
C2065 C2081 1.349 . S
C2066 C2064 1.327 . S
C2066 C2085 1.429 . S
C2066 H2090 0.950 . S
C2067 C2084 1.574 . S
C2067 C2086 1.368 . S
C2067 H2091 0.949 . S
H2068 C2072 0.949 . S
C2069 C2070 1.349 . S
C2069 C2071 1.327 . S
C2069 H2092 0.950 . S
C2070 C2069 1.349 . S
C2070 C2082 1.349 . S
C2071 C2069 1.327 . S
C2071 C2087 1.429 . S
C2071 H2093 0.950 . S
C2072 H2068 0.949 . S
C2072 C2080 1.574 . S
C2072 C2088 1.368 . S
H2073 C2081 0.950 . S
H2074 C2079 0.950 . S
H2075 C2080 0.949 . S
H2076 C2082 0.950 . S
H2077 C2083 0.950 . S
H2078 C2084 0.949 . S
C2079 H2074 0.950 . S
C2079 C2081 1.327 . S
C2079 C2085 1.429 . S
C2080 C2072 1.574 . S
C2080 H2075 0.949 . S
C2080 C2086 1.368 . S
C2081 C2065 1.349 . S
C2081 H2073 0.950 . S
C2081 C2079 1.327 . S
C2082 C2070 1.349 . S
C2082 H2076 0.950 . S
C2082 C2083 1.327 . S
C2083 H2077 0.950 . S
C2083 C2082 1.327 . S
C2083 C2087 1.429 . S
C2084 C2067 1.574 . S
C2084 H2078 0.949 . S
C2084 C2088 1.368 . S
C2085 C2066 1.429 . S
C2085 C2079 1.429 . S
C2085 C2086 1.523 . S
C2086 C2067 1.368 . S
C2086 C2080 1.368 . S
C2086 C2085 1.523 . S
C2087 C2071 1.429 . S
C2087 C2083 1.429 . S
C2087 C2088 1.523 . S
C2088 C2072 1.368 . S
C2088 C2084 1.368 . S
C2088 C2087 1.523 . S
H2089 C2064 0.950 . S
H2090 C2066 0.950 . S
H2091 C2067 0.949 . S
H2092 C2069 0.950 . S
H2093 C2071 0.950 . S
C2094 C2095 1.349 . S
C2094 C2096 1.327 . S
C2094 H2119 0.950 . S
C2095 C2094 1.349 . S
C2095 C2111 1.349 . S
C2096 C2094 1.327 . S
C2096 C2115 1.429 . S
C2096 H2120 0.950 . S
C2097 C2114 1.574 . S
C2097 C2116 1.368 . S
C2097 H2121 0.949 . S
H2098 C2102 0.949 . S
C2099 C2100 1.349 . S
C2099 C2101 1.327 . S
C2099 H2122 0.950 . S
C2100 C2099 1.349 . S
C2100 C2112 1.349 . S
C2101 C2099 1.327 . S
C2101 C2117 1.429 . S
C2101 H2123 0.950 . S
C2102 H2098 0.949 . S
C2102 C2110 1.574 . S
C2102 C2118 1.368 . S
H2103 C2111 0.950 . S
H2104 C2109 0.950 . S
H2105 C2110 0.949 . S
H2106 C2112 0.950 . S
H2107 C2113 0.950 . S
H2108 C2114 0.949 . S
C2109 H2104 0.950 . S
C2109 C2111 1.327 . S
C2109 C2115 1.429 . S
C2110 C2102 1.574 . S
C2110 H2105 0.949 . S
C2110 C2116 1.368 . S
C2111 C2095 1.349 . S
C2111 H2103 0.950 . S
C2111 C2109 1.327 . S
C2112 C2100 1.349 . S
C2112 H2106 0.950 . S
C2112 C2113 1.327 . S
C2113 H2107 0.950 . S
C2113 C2112 1.327 . S
C2113 C2117 1.429 . S
C2114 C2097 1.574 . S
C2114 H2108 0.949 . S
C2114 C2118 1.368 . S
C2115 C2096 1.429 . S
C2115 C2109 1.429 . S
C2115 C2116 1.523 . S
C2116 C2097 1.368 . S
C2116 C2110 1.368 . S
C2116 C2115 1.523 . S
C2117 C2101 1.429 . S
C2117 C2113 1.429 . S
C2117 C2118 1.523 . S
C2118 C2102 1.368 . S
C2118 C2114 1.368 . S
C2118 C2117 1.523 . S
H2119 C2094 0.950 . S
H2120 C2096 0.950 . S
H2121 C2097 0.949 . S
H2122 C2099 0.950 . S
H2123 C2101 0.950 . S
C2124 C2125 1.349 . S
C2124 C2126 1.327 . S
C2124 H2149 0.950 . S
C2125 C2124 1.349 . S
C2125 C2141 1.349 . S
C2126 C2124 1.327 . S
C2126 C2145 1.429 . S
C2126 H2150 0.950 . S
C2127 C2144 1.574 . S
C2127 C2146 1.368 . S
C2127 H2151 0.949 . S
H2128 C2132 0.949 . S
C2129 C2130 1.349 . S
C2129 C2131 1.327 . S
C2129 H2152 0.950 . S
C2130 C2129 1.349 . S
C2130 C2142 1.349 . S
C2131 C2129 1.327 . S
C2131 C2147 1.429 . S
C2131 H2153 0.950 . S
C2132 H2128 0.949 . S
C2132 C2140 1.574 . S
C2132 C2148 1.368 . S
H2133 C2141 0.950 . S
H2134 C2139 0.950 . S
H2135 C2140 0.949 . S
H2136 C2142 0.950 . S
H2137 C2143 0.950 . S
H2138 C2144 0.949 . S
C2139 H2134 0.950 . S
C2139 C2141 1.327 . S
C2139 C2145 1.429 . S
C2140 C2132 1.574 . S
C2140 H2135 0.949 . S
C2140 C2146 1.368 . S
C2141 C2125 1.349 . S
C2141 H2133 0.950 . S
C2141 C2139 1.327 . S
C2142 C2130 1.349 . S
C2142 H2136 0.950 . S
C2142 C2143 1.327 . S
C2143 H2137 0.950 . S
C2143 C2142 1.327 . S
C2143 C2147 1.429 . S
C2144 C2127 1.574 . S
C2144 H2138 0.949 . S
C2144 C2148 1.368 . S
C2145 C2126 1.429 . S
C2145 C2139 1.429 . S
C2145 C2146 1.523 . S
C2146 C2127 1.368 . S
C2146 C2140 1.368 . S
C2146 C2145 1.523 . S
C2147 C2131 1.429 . S
C2147 C2143 1.429 . S
C2147 C2148 1.523 . S
C2148 C2132 1.368 . S
C2148 C2144 1.368 . S
C2148 C2147 1.523 . S
H2149 C2124 0.950 . S
H2150 C2126 0.950 . S
H2151 C2127 0.949 . S
H2152 C2129 0.950 . S
H2153 C2131 0.950 . S
C2154 C2155 1.349 . S
C2154 C2156 1.327 . S
C2154 H2179 0.950 . S
C2155 C2154 1.349 . S
C2155 C2171 1.349 . S
C2156 C2154 1.327 . S
C2156 C2175 1.429 . S
C2156 H2180 0.950 . S
C2157 C2174 1.574 . S
C2157 C2176 1.368 . S
C2157 H2181 0.949 . S
H2158 C2162 0.949 . S
C2159 C2160 1.349 . S
C2159 C2161 1.327 . S
C2159 H2182 0.950 . S
C2160 C2159 1.349 . S
C2160 C2172 1.349 . S
C2161 C2159 1.327 . S
C2161 C2177 1.429 . S
C2161 H2183 0.950 . S
C2162 H2158 0.949 . S
C2162 C2170 1.574 . S
C2162 C2178 1.368 . S
H2163 C2171 0.950 . S
H2164 C2169 0.950 . S
H2165 C2170 0.949 1_655 S
H2166 C2172 0.950 . S
H2167 C2173 0.950 . S
H2168 C2174 0.949 . S
C2169 H2164 0.950 . S
C2169 C2171 1.327 . S
C2169 C2175 1.429 . S
C2170 C2162 1.574 . S
C2170 H2165 0.949 1_455 S
C2170 C2176 1.368 . S
C2171 C2155 1.349 . S
C2171 H2163 0.950 . S
C2171 C2169 1.327 . S
C2172 C2160 1.349 . S
C2172 H2166 0.950 . S
C2172 C2173 1.327 . S
C2173 H2167 0.950 . S
C2173 C2172 1.327 . S
C2173 C2177 1.429 . S
C2174 C2157 1.574 . S
C2174 H2168 0.949 . S
C2174 C2178 1.368 . S
C2175 C2156 1.429 . S
C2175 C2169 1.429 . S
C2175 C2176 1.523 1_655 S
C2176 C2157 1.368 . S
C2176 C2170 1.368 . S
C2176 C2175 1.523 1_455 S
C2177 C2161 1.429 . S
C2177 C2173 1.429 . S
C2177 C2178 1.523 . S
C2178 C2162 1.368 . S
C2178 C2174 1.368 . S
C2178 C2177 1.523 . S
H2179 C2154 0.950 . S
H2180 C2156 0.950 . S
H2181 C2157 0.949 . S
H2182 C2159 0.950 . S
H2183 C2161 0.950 . S
C2184 C2185 1.349 . S
C2184 C2186 1.327 . S
C2184 H2209 0.950 . S
C2185 C2184 1.349 . S
C2185 C2201 1.349 . S
C2186 C2184 1.327 . S
C2186 C2205 1.429 . S
C2186 H2210 0.950 . S
C2187 C2204 1.574 . S
C2187 C2206 1.368 . S
C2187 H2211 0.949 . S
H2188 C2192 0.949 . S
C2189 C2190 1.349 . S
C2189 C2191 1.327 . S
C2189 H2212 0.950 . S
C2190 C2189 1.349 . S
C2190 C2202 1.349 . S
C2191 C2189 1.327 . S
C2191 C2207 1.429 . S
C2191 H2213 0.950 . S
C2192 H2188 0.949 . S
C2192 C2200 1.574 . S
C2192 C2208 1.368 . S
H2193 C2201 0.950 . S
H2194 C2199 0.950 . S
H2195 C2200 0.949 . S
H2196 C2202 0.950 . S
H2197 C2203 0.950 . S
H2198 C2204 0.949 . S
C2199 H2194 0.950 . S
C2199 C2201 1.327 . S
C2199 C2205 1.429 . S
C2200 C2192 1.574 . S
C2200 H2195 0.949 . S
C2200 C2206 1.368 . S
C2201 C2185 1.349 . S
C2201 H2193 0.950 . S
C2201 C2199 1.327 . S
C2202 C2190 1.349 . S
C2202 H2196 0.950 . S
C2202 C2203 1.327 . S
C2203 H2197 0.950 . S
C2203 C2202 1.327 . S
C2203 C2207 1.429 . S
C2204 C2187 1.574 . S
C2204 H2198 0.949 . S
C2204 C2208 1.368 . S
C2205 C2186 1.429 . S
C2205 C2199 1.429 . S
C2205 C2206 1.523 . S
C2206 C2187 1.368 . S
C2206 C2200 1.368 . S
C2206 C2205 1.523 . S
C2207 C2191 1.429 . S
C2207 C2203 1.429 . S
C2207 C2208 1.523 . S
C2208 C2192 1.368 . S
C2208 C2204 1.368 . S
C2208 C2207 1.523 . S
H2209 C2184 0.950 . S
H2210 C2186 0.950 . S
H2211 C2187 0.949 . S
H2212 C2189 0.950 . S
H2213 C2191 0.950 . S
C2214 C2215 1.349 . S
C2214 C2216 1.327 . S
C2214 H2239 0.950 . S
C2215 C2214 1.349 . S
C2215 C2231 1.349 . S
C2216 C2214 1.327 . S
C2216 C2235 1.429 . S
C2216 H2240 0.950 . S
C2217 C2234 1.574 . S
C2217 C2236 1.368 . S
C2217 H2241 0.949 . S
H2218 C2222 0.949 1_655 S
C2219 C2220 1.349 . S
C2219 C2221 1.327 . S
C2219 H2242 0.950 . S
C2220 C2219 1.349 . S
C2220 C2232 1.349 . S
C2221 C2219 1.327 . S
C2221 C2237 1.429 . S
C2221 H2243 0.950 . S
C2222 H2218 0.949 1_455 S
C2222 C2230 1.574 . S
C2222 C2238 1.369 . S
H2223 C2231 0.950 . S
H2224 C2229 0.950 . S
H2225 C2230 0.949 . S
H2226 C2232 0.950 . S
H2227 C2233 0.950 . S
H2228 C2234 0.949 . S
C2229 H2224 0.950 . S
C2229 C2231 1.327 . S
C2229 C2235 1.429 . S
C2230 C2222 1.574 . S
C2230 H2225 0.949 . S
C2230 C2236 1.368 . S
C2231 C2215 1.349 . S
C2231 H2223 0.950 . S
C2231 C2229 1.327 . S
C2232 C2220 1.349 . S
C2232 H2226 0.950 . S
C2232 C2233 1.327 . S
C2233 H2227 0.950 . S
C2233 C2232 1.327 . S
C2233 C2237 1.429 . S
C2234 C2217 1.574 . S
C2234 H2228 0.949 . S
C2234 C2238 1.371 . S
C2235 C2216 1.429 . S
C2235 C2229 1.429 . S
C2235 C2236 1.523 . S
C2236 C2217 1.368 . S
C2236 C2230 1.368 . S
C2236 C2235 1.523 . S
C2237 C2221 1.429 . S
C2237 C2233 1.429 . S
C2237 C2238 1.518 1_655 S
C2238 C2222 1.369 . S
C2238 C2234 1.371 . S
C2238 C2237 1.518 1_455 S
H2239 C2214 0.950 . S
H2240 C2216 0.950 . S
H2241 C2217 0.949 . S
H2242 C2219 0.950 . S
H2243 C2221 0.950 . S
C2244 C2245 1.349 . S
C2244 C2246 1.327 . S
C2244 H2269 0.950 . S
C2245 C2244 1.349 . S
C2245 C2261 1.349 . S
C2246 C2244 1.327 . S
C2246 C2265 1.429 . S
C2246 H2270 0.950 . S
C2247 C2264 1.574 . S
C2247 C2266 1.368 . S
C2247 H2271 0.949 . S
H2248 C2252 0.949 . S
C2249 C2250 1.349 . S
C2249 C2251 1.327 . S
C2249 H2272 0.950 . S
C2250 C2249 1.349 . S
C2250 C2262 1.349 . S
C2251 C2249 1.327 . S
C2251 C2267 1.429 . S
C2251 H2273 0.950 . S
C2252 H2248 0.949 . S
C2252 C2260 1.574 . S
C2252 C2268 1.368 . S
H2253 C2261 0.950 . S
H2254 C2259 0.950 . S
H2255 C2260 0.949 . S
H2256 C2262 0.950 . S
H2257 C2263 0.950 . S
H2258 C2264 0.949 . S
C2259 H2254 0.950 . S
C2259 C2261 1.327 . S
C2259 C2265 1.429 . S
C2260 C2252 1.574 . S
C2260 H2255 0.949 . S
C2260 C2266 1.368 . S
C2261 C2245 1.349 . S
C2261 H2253 0.950 . S
C2261 C2259 1.327 . S
C2262 C2250 1.349 . S
C2262 H2256 0.950 . S
C2262 C2263 1.327 . S
C2263 H2257 0.950 . S
C2263 C2262 1.327 . S
C2263 C2267 1.429 . S
C2264 C2247 1.574 . S
C2264 H2258 0.949 . S
C2264 C2268 1.368 . S
C2265 C2246 1.429 . S
C2265 C2259 1.429 . S
C2265 C2266 1.523 . S
C2266 C2247 1.368 . S
C2266 C2260 1.368 . S
C2266 C2265 1.523 . S
C2267 C2251 1.429 . S
C2267 C2263 1.429 . S
C2267 C2268 1.523 . S
C2268 C2252 1.368 . S
C2268 C2264 1.368 . S
C2268 C2267 1.523 . S
H2269 C2244 0.950 . S
H2270 C2246 0.950 . S
H2271 C2247 0.949 . S
H2272 C2249 0.950 . S
H2273 C2251 0.950 . S
C2274 C2275 1.349 . S
C2274 C2276 1.327 . S
C2274 H2299 0.950 . S
C2275 C2274 1.349 . S
C2275 C2291 1.349 . S
C2276 C2274 1.327 . S
C2276 C2295 1.429 . S
C2276 H2300 0.950 . S
C2277 C2294 1.574 . S
C2277 C2296 1.368 . S
C2277 H2301 0.949 . S
H2278 C2282 0.949 . S
C2279 C2280 1.349 . S
C2279 C2281 1.327 . S
C2279 H2302 0.950 . S
C2280 C2279 1.349 . S
C2280 C2292 1.349 . S
C2281 C2279 1.327 . S
C2281 C2297 1.429 . S
C2281 H2303 0.950 . S
C2282 H2278 0.949 . S
C2282 C2290 1.574 . S
C2282 C2298 1.368 . S
H2283 C2291 0.950 . S
H2284 C2289 0.950 . S
H2285 C2290 0.949 . S
H2286 C2292 0.950 . S
H2287 C2293 0.950 . S
H2288 C2294 0.949 . S
C2289 H2284 0.950 . S
C2289 C2291 1.327 . S
C2289 C2295 1.429 . S
C2290 C2282 1.574 . S
C2290 H2285 0.949 . S
C2290 C2296 1.368 . S
C2291 C2275 1.349 . S
C2291 H2283 0.950 . S
C2291 C2289 1.327 . S
C2292 C2280 1.349 . S
C2292 H2286 0.950 . S
C2292 C2293 1.327 . S
C2293 H2287 0.950 . S
C2293 C2292 1.327 . S
C2293 C2297 1.429 . S
C2294 C2277 1.574 . S
C2294 H2288 0.949 . S
C2294 C2298 1.368 . S
C2295 C2276 1.429 . S
C2295 C2289 1.429 . S
C2295 C2296 1.523 . S
C2296 C2277 1.368 . S
C2296 C2290 1.368 . S
C2296 C2295 1.523 . S
C2297 C2281 1.429 . S
C2297 C2293 1.429 . S
C2297 C2298 1.523 . S
C2298 C2282 1.368 . S
C2298 C2294 1.368 . S
C2298 C2297 1.523 . S
H2299 C2274 0.950 . S
H2300 C2276 0.950 . S
H2301 C2277 0.949 . S
H2302 C2279 0.950 . S
H2303 C2281 0.950 . S
C2304 C2305 1.349 . S
C2304 C2306 1.327 . S
C2304 H2329 0.950 . S
C2305 C2304 1.349 . S
C2305 C2321 1.349 . S
C2306 C2304 1.327 . S
C2306 C2325 1.429 . S
C2306 H2330 0.950 . S
C2307 C2324 1.574 . S
C2307 C2326 1.368 . S
C2307 H2331 0.949 . S
H2308 C2312 0.949 . S
C2309 C2310 1.349 . S
C2309 C2311 1.327 . S
C2309 H2332 0.950 . S
C2310 C2309 1.349 . S
C2310 C2322 1.349 . S
C2311 C2309 1.327 . S
C2311 C2327 1.429 . S
C2311 H2333 0.950 . S
C2312 H2308 0.949 . S
C2312 C2320 1.574 . S
C2312 C2328 1.368 . S
H2313 C2321 0.950 . S
H2314 C2319 0.950 . S
H2315 C2320 0.949 . S
H2316 C2322 0.950 . S
H2317 C2323 0.950 . S
H2318 C2324 0.949 . S
C2319 H2314 0.950 . S
C2319 C2321 1.327 . S
C2319 C2325 1.429 . S
C2320 C2312 1.574 . S
C2320 H2315 0.949 . S
C2320 C2326 1.368 . S
C2321 C2305 1.349 . S
C2321 H2313 0.950 . S
C2321 C2319 1.327 . S
C2322 C2310 1.349 . S
C2322 H2316 0.950 . S
C2322 C2323 1.327 . S
C2323 H2317 0.950 . S
C2323 C2322 1.327 . S
C2323 C2327 1.429 . S
C2324 C2307 1.574 . S
C2324 H2318 0.949 . S
C2324 C2328 1.368 . S
C2325 C2306 1.429 . S
C2325 C2319 1.429 . S
C2325 C2326 1.523 . S
C2326 C2307 1.368 . S
C2326 C2320 1.368 . S
C2326 C2325 1.523 . S
C2327 C2311 1.429 . S
C2327 C2323 1.429 . S
C2327 C2328 1.523 . S
C2328 C2312 1.368 . S
C2328 C2324 1.368 . S
C2328 C2327 1.523 . S
H2329 C2304 0.950 . S
H2330 C2306 0.950 . S
H2331 C2307 0.949 . S
H2332 C2309 0.950 . S
H2333 C2311 0.950 . S
C2334 C2335 1.349 . S
C2334 C2336 1.327 . S
C2334 H2359 0.950 . S
C2335 C2334 1.349 . S
C2335 C2351 1.349 . S
C2336 C2334 1.327 . S
C2336 C2355 1.429 . S
C2336 H2360 0.950 . S
C2337 C2354 1.574 . S
C2337 C2356 1.368 . S
C2337 H2361 0.949 . S
H2338 C2342 0.949 . S
C2339 C2340 1.349 . S
C2339 C2341 1.327 . S
C2339 H2362 0.950 . S
C2340 C2339 1.349 . S
C2340 C2352 1.349 . S
C2341 C2339 1.327 . S
C2341 C2357 1.429 . S
C2341 H2363 0.950 . S
C2342 H2338 0.949 . S
C2342 C2350 1.574 . S
C2342 C2358 1.368 . S
H2343 C2351 0.950 . S
H2344 C2349 0.950 . S
H2345 C2350 0.949 . S
H2346 C2352 0.950 . S
H2347 C2353 0.950 . S
H2348 C2354 0.949 . S
C2349 H2344 0.950 . S
C2349 C2351 1.327 . S
C2349 C2355 1.429 . S
C2350 C2342 1.574 . S
C2350 H2345 0.949 . S
C2350 C2356 1.368 . S
C2351 C2335 1.349 . S
C2351 H2343 0.950 . S
C2351 C2349 1.327 . S
C2352 C2340 1.349 . S
C2352 H2346 0.950 . S
C2352 C2353 1.327 . S
C2353 H2347 0.950 . S
C2353 C2352 1.327 . S
C2353 C2357 1.429 . S
C2354 C2337 1.574 . S
C2354 H2348 0.949 . S
C2354 C2358 1.368 . S
C2355 C2336 1.429 . S
C2355 C2349 1.429 . S
C2355 C2356 1.523 . S
C2356 C2337 1.368 . S
C2356 C2350 1.368 . S
C2356 C2355 1.523 . S
C2357 C2341 1.429 . S
C2357 C2353 1.429 . S
C2357 C2358 1.523 1_556 S
C2358 C2342 1.368 . S
C2358 C2354 1.368 . S
C2358 C2357 1.523 1_554 S
H2359 C2334 0.950 . S
H2360 C2336 0.950 . S
H2361 C2337 0.949 . S
H2362 C2339 0.950 . S
H2363 C2341 0.950 . S
C2364 C2365 1.349 . S
C2364 C2366 1.327 . S
C2364 H2389 0.950 . S
C2365 C2364 1.349 . S
C2365 C2381 1.349 . S
C2366 C2364 1.327 . S
C2366 C2385 1.429 . S
C2366 H2390 0.950 . S
C2367 C2384 1.574 . S
C2367 C2386 1.368 . S
C2367 H2391 0.949 . S
H2368 C2372 0.949 . S
C2369 C2370 1.349 . S
C2369 C2371 1.327 . S
C2369 H2392 0.950 . S
C2370 C2369 1.349 . S
C2370 C2382 1.349 . S
C2371 C2369 1.327 . S
C2371 C2387 1.429 . S
C2371 H2393 0.950 . S
C2372 H2368 0.949 . S
C2372 C2380 1.574 . S
C2372 C2388 1.368 . S
H2373 C2381 0.950 . S
H2374 C2379 0.950 . S
H2375 C2380 0.949 . S
H2376 C2382 0.950 . S
H2377 C2383 0.950 . S
H2378 C2384 0.949 . S
C2379 H2374 0.950 . S
C2379 C2381 1.327 . S
C2379 C2385 1.429 . S
C2380 C2372 1.574 . S
C2380 H2375 0.949 . S
C2380 C2386 1.368 . S
C2381 C2365 1.349 . S
C2381 H2373 0.950 . S
C2381 C2379 1.327 . S
C2382 C2370 1.349 . S
C2382 H2376 0.950 . S
C2382 C2383 1.327 . S
C2383 H2377 0.950 . S
C2383 C2382 1.327 . S
C2383 C2387 1.429 . S
C2384 C2367 1.574 . S
C2384 H2378 0.949 . S
C2384 C2388 1.368 . S
C2385 C2366 1.429 . S
C2385 C2379 1.429 . S
C2385 C2386 1.523 . S
C2386 C2367 1.368 . S
C2386 C2380 1.368 . S
C2386 C2385 1.523 . S
C2387 C2371 1.429 . S
C2387 C2383 1.429 . S
C2387 C2388 1.523 . S
C2388 C2372 1.368 . S
C2388 C2384 1.368 . S
C2388 C2387 1.523 . S
H2389 C2364 0.950 . S
H2390 C2366 0.950 . S
H2391 C2367 0.949 . S
H2392 C2369 0.950 . S
H2393 C2371 0.950 . S
C2394 C2395 1.349 . S
C2394 C2396 1.327 . S
C2394 H2419 0.950 . S
C2395 C2394 1.349 . S
C2395 C2411 1.349 . S
C2396 C2394 1.327 . S
C2396 C2415 1.429 . S
C2396 H2420 0.950 . S
C2397 C2414 1.574 . S
C2397 C2416 1.368 . S
C2397 H2421 0.949 . S
H2398 C2402 0.949 . S
C2399 C2400 1.349 . S
C2399 C2401 1.327 . S
C2399 H2422 0.950 . S
C2400 C2399 1.349 . S
C2400 C2412 1.349 . S
C2401 C2399 1.327 . S
C2401 C2417 1.429 . S
C2401 H2423 0.950 . S
C2402 H2398 0.949 . S
C2402 C2410 1.574 . S
C2402 C2418 1.368 . S
H2403 C2411 0.950 . S
H2404 C2409 0.950 . S
H2405 C2410 0.949 . S
H2406 C2412 0.950 . S
H2407 C2413 0.950 . S
H2408 C2414 0.949 . S
C2409 H2404 0.950 . S
C2409 C2411 1.327 . S
C2409 C2415 1.429 . S
C2410 C2402 1.574 . S
C2410 H2405 0.949 . S
C2410 C2416 1.368 . S
C2411 C2395 1.349 . S
C2411 H2403 0.950 . S
C2411 C2409 1.327 . S
C2412 C2400 1.349 . S
C2412 H2406 0.950 . S
C2412 C2413 1.327 . S
C2413 H2407 0.950 . S
C2413 C2412 1.327 . S
C2413 C2417 1.429 . S
C2414 C2397 1.574 . S
C2414 H2408 0.949 . S
C2414 C2418 1.368 . S
C2415 C2396 1.429 . S
C2415 C2409 1.429 . S
C2415 C2416 1.523 . S
C2416 C2397 1.368 . S
C2416 C2410 1.368 . S
C2416 C2415 1.523 . S
C2417 C2401 1.429 . S
C2417 C2413 1.429 . S
C2417 C2418 1.523 . S
C2418 C2402 1.368 . S
C2418 C2414 1.368 . S
C2418 C2417 1.523 . S
H2419 C2394 0.950 . S
H2420 C2396 0.950 . S
H2421 C2397 0.949 . S
H2422 C2399 0.950 . S
H2423 C2401 0.950 . S
C2424 C2425 1.349 . S
C2424 C2426 1.327 . S
C2424 H2449 0.950 . S
C2425 C2424 1.349 . S
C2425 C2441 1.349 . S
C2426 C2424 1.327 . S
C2426 C2445 1.429 . S
C2426 H2450 0.950 . S
C2427 C2444 1.574 . S
C2427 C2446 1.368 . S
C2427 H2451 0.949 . S
H2428 C2432 0.949 . S
C2429 C2430 1.349 . S
C2429 C2431 1.327 . S
C2429 H2452 0.950 . S
C2430 C2429 1.349 . S
C2430 C2442 1.349 . S
C2431 C2429 1.327 . S
C2431 C2447 1.429 . S
C2431 H2453 0.950 . S
C2432 H2428 0.949 . S
C2432 C2440 1.574 . S
C2432 C2448 1.368 . S
H2433 C2441 0.950 . S
H2434 C2439 0.950 . S
H2435 C2440 0.949 . S
H2436 C2442 0.950 . S
H2437 C2443 0.950 . S
H2438 C2444 0.949 . S
C2439 H2434 0.950 . S
C2439 C2441 1.327 . S
C2439 C2445 1.429 . S
C2440 C2432 1.574 . S
C2440 H2435 0.949 . S
C2440 C2446 1.368 . S
C2441 C2425 1.349 . S
C2441 H2433 0.950 . S
C2441 C2439 1.327 . S
C2442 C2430 1.349 . S
C2442 H2436 0.950 . S
C2442 C2443 1.327 . S
C2443 H2437 0.950 . S
C2443 C2442 1.327 . S
C2443 C2447 1.429 . S
C2444 C2427 1.574 . S
C2444 H2438 0.949 . S
C2444 C2448 1.368 . S
C2445 C2426 1.429 . S
C2445 C2439 1.429 . S
C2445 C2446 1.523 . S
C2446 C2427 1.368 . S
C2446 C2440 1.368 . S
C2446 C2445 1.523 . S
C2447 C2431 1.429 . S
C2447 C2443 1.429 . S
C2447 C2448 1.523 . S
C2448 C2432 1.368 . S
C2448 C2444 1.368 . S
C2448 C2447 1.523 . S
H2449 C2424 0.950 . S
H2450 C2426 0.950 . S
H2451 C2427 0.949 . S
H2452 C2429 0.950 . S
H2453 C2431 0.950 . S
C2454 C2455 1.349 . S
C2454 C2456 1.327 . S
C2454 H2479 0.950 . S
C2455 C2454 1.349 . S
C2455 C2471 1.349 . S
C2456 C2454 1.327 . S
C2456 C2475 1.429 . S
C2456 H2480 0.950 . S
C2457 C2474 1.574 . S
C2457 C2476 1.368 . S
C2457 H2481 0.949 . S
H2458 C2462 0.949 . S
C2459 C2460 1.349 . S
C2459 C2461 1.327 . S
C2459 H2482 0.950 . S
C2460 C2459 1.349 . S
C2460 C2472 1.349 . S
C2461 C2459 1.327 . S
C2461 C2477 1.429 . S
C2461 H2483 0.950 . S
C2462 H2458 0.949 . S
C2462 C2470 1.574 . S
C2462 C2478 1.368 . S
H2463 C2471 0.950 . S
H2464 C2469 0.950 . S
H2465 C2470 0.949 . S
H2466 C2472 0.950 . S
H2467 C2473 0.950 . S
H2468 C2474 0.949 . S
C2469 H2464 0.950 . S
C2469 C2471 1.327 . S
C2469 C2475 1.429 . S
C2470 C2462 1.574 . S
C2470 H2465 0.949 . S
C2470 C2476 1.368 . S
C2471 C2455 1.349 . S
C2471 H2463 0.950 . S
C2471 C2469 1.327 . S
C2472 C2460 1.349 . S
C2472 H2466 0.950 . S
C2472 C2473 1.327 . S
C2473 H2467 0.950 . S
C2473 C2472 1.327 . S
C2473 C2477 1.429 . S
C2474 C2457 1.574 . S
C2474 H2468 0.949 . S
C2474 C2478 1.368 . S
C2475 C2456 1.429 . S
C2475 C2469 1.429 . S
C2475 C2476 1.523 . S
C2476 C2457 1.368 . S
C2476 C2470 1.368 . S
C2476 C2475 1.523 . S
C2477 C2461 1.429 . S
C2477 C2473 1.429 . S
C2477 C2478 1.523 1_554 S
C2478 C2462 1.368 . S
C2478 C2474 1.368 . S
C2478 C2477 1.523 1_556 S
H2479 C2454 0.950 . S
H2480 C2456 0.950 . S
H2481 C2457 0.949 . S
H2482 C2459 0.950 . S
H2483 C2461 0.950 . S
C2484 C2485 1.349 . S
C2484 C2486 1.327 . S
C2484 H2509 0.950 . S
C2485 C2484 1.349 . S
C2485 C2501 1.349 . S
C2486 C2484 1.327 . S
C2486 C2505 1.429 . S
C2486 H2510 0.950 . S
C2487 C2504 1.574 . S
C2487 C2506 1.368 . S
C2487 H2511 0.949 . S
H2488 C2492 0.949 . S
C2489 C2490 1.349 . S
C2489 C2491 1.327 . S
C2489 H2512 0.950 . S
C2490 C2489 1.349 . S
C2490 C2502 1.349 . S
C2491 C2489 1.327 . S
C2491 C2507 1.429 . S
C2491 H2513 0.950 . S
C2492 H2488 0.949 . S
C2492 C2500 1.574 . S
C2492 C2508 1.368 . S
H2493 C2501 0.950 . S
H2494 C2499 0.950 . S
H2495 C2500 0.949 . S
H2496 C2502 0.950 . S
H2497 C2503 0.950 . S
H2498 C2504 0.949 . S
C2499 H2494 0.950 . S
C2499 C2501 1.327 . S
C2499 C2505 1.429 . S
C2500 C2492 1.574 . S
C2500 H2495 0.949 . S
C2500 C2506 1.368 . S
C2501 C2485 1.349 . S
C2501 H2493 0.950 . S
C2501 C2499 1.327 . S
C2502 C2490 1.349 . S
C2502 H2496 0.950 . S
C2502 C2503 1.327 . S
C2503 H2497 0.950 . S
C2503 C2502 1.327 . S
C2503 C2507 1.429 . S
C2504 C2487 1.574 . S
C2504 H2498 0.949 . S
C2504 C2508 1.368 . S
C2505 C2486 1.429 . S
C2505 C2499 1.429 . S
C2505 C2506 1.523 . S
C2506 C2487 1.368 . S
C2506 C2500 1.368 . S
C2506 C2505 1.523 . S
C2507 C2491 1.429 . S
C2507 C2503 1.429 . S
C2507 C2508 1.523 . S
C2508 C2492 1.368 . S
C2508 C2504 1.368 . S
C2508 C2507 1.523 . S
H2509 C2484 0.950 . S
H2510 C2486 0.950 . S
H2511 C2487 0.949 . S
H2512 C2489 0.950 . S
H2513 C2491 0.950 . S
C2514 C2515 1.349 . S
C2514 C2516 1.327 . S
C2514 H2539 0.950 . S
C2515 C2514 1.349 . S
C2515 C2531 1.349 . S
C2516 C2514 1.327 . S
C2516 C2535 1.429 . S
C2516 H2540 0.950 . S
C2517 C2534 1.574 . S
C2517 C2536 1.368 . S
C2517 H2541 0.949 . S
H2518 C2522 0.949 . S
C2519 C2520 1.349 . S
C2519 C2521 1.327 . S
C2519 H2542 0.950 . S
C2520 C2519 1.349 . S
C2520 C2532 1.349 . S
C2521 C2519 1.327 . S
C2521 C2537 1.429 . S
C2521 H2543 0.950 . S
C2522 H2518 0.949 . S
C2522 C2530 1.574 . S
C2522 C2538 1.368 . S
H2523 C2531 0.950 . S
H2524 C2529 0.950 . S
H2525 C2530 0.949 . S
H2526 C2532 0.950 . S
H2527 C2533 0.950 . S
H2528 C2534 0.949 . S
C2529 H2524 0.950 . S
C2529 C2531 1.327 . S
C2529 C2535 1.429 . S
C2530 C2522 1.574 . S
C2530 H2525 0.949 . S
C2530 C2536 1.368 . S
C2531 C2515 1.349 . S
C2531 H2523 0.950 . S
C2531 C2529 1.327 . S
C2532 C2520 1.349 . S
C2532 H2526 0.950 . S
C2532 C2533 1.327 . S
C2533 H2527 0.950 . S
C2533 C2532 1.327 . S
C2533 C2537 1.429 . S
C2534 C2517 1.574 . S
C2534 H2528 0.949 . S
C2534 C2538 1.368 . S
C2535 C2516 1.429 . S
C2535 C2529 1.429 . S
C2535 C2536 1.523 . S
C2536 C2517 1.368 . S
C2536 C2530 1.368 . S
C2536 C2535 1.523 . S
C2537 C2521 1.429 . S
C2537 C2533 1.429 . S
C2537 C2538 1.523 . S
C2538 C2522 1.368 . S
C2538 C2534 1.368 . S
C2538 C2537 1.523 . S
H2539 C2514 0.950 . S
H2540 C2516 0.950 . S
H2541 C2517 0.949 . S
H2542 C2519 0.950 . S
H2543 C2521 0.950 . S
C2544 C2545 1.349 . S
C2544 C2546 1.327 . S
C2544 H2569 0.950 . S
C2545 C2544 1.349 . S
C2545 C2561 1.349 . S
C2546 C2544 1.327 . S
C2546 C2565 1.429 . S
C2546 H2570 0.950 . S
C2547 C2564 1.574 . S
C2547 C2566 1.368 . S
C2547 H2571 0.949 . S
H2548 C2552 0.949 . S
C2549 C2550 1.349 . S
C2549 C2551 1.327 . S
C2549 H2572 0.950 . S
C2550 C2549 1.349 . S
C2550 C2562 1.349 . S
C2551 C2549 1.327 . S
C2551 C2567 1.429 . S
C2551 H2573 0.950 . S
C2552 H2548 0.949 . S
C2552 C2560 1.574 . S
C2552 C2568 1.368 . S
H2553 C2561 0.950 . S
H2554 C2559 0.950 . S
H2555 C2560 0.949 . S
H2556 C2562 0.950 . S
H2557 C2563 0.950 . S
H2558 C2564 0.949 . S
C2559 H2554 0.950 . S
C2559 C2561 1.327 . S
C2559 C2565 1.429 . S
C2560 C2552 1.574 . S
C2560 H2555 0.949 . S
C2560 C2566 1.368 . S
C2561 C2545 1.349 . S
C2561 H2553 0.950 . S
C2561 C2559 1.327 . S
C2562 C2550 1.349 . S
C2562 H2556 0.950 . S
C2562 C2563 1.327 . S
C2563 H2557 0.950 . S
C2563 C2562 1.327 . S
C2563 C2567 1.429 . S
C2564 C2547 1.574 . S
C2564 H2558 0.949 . S
C2564 C2568 1.368 . S
C2565 C2546 1.429 . S
C2565 C2559 1.429 . S
C2565 C2566 1.523 . S
C2566 C2547 1.368 . S
C2566 C2560 1.368 . S
C2566 C2565 1.523 . S
C2567 C2551 1.429 . S
C2567 C2563 1.429 . S
C2567 C2568 1.523 . S
C2568 C2552 1.368 . S
C2568 C2564 1.368 . S
C2568 C2567 1.523 . S
H2569 C2544 0.950 . S
H2570 C2546 0.950 . S
H2571 C2547 0.949 . S
H2572 C2549 0.950 . S
H2573 C2551 0.950 . S
C2574 C2575 1.349 . S
C2574 C2576 1.327 . S
C2574 H2599 0.950 . S
C2575 C2574 1.349 . S
C2575 C2591 1.349 . S
C2576 C2574 1.327 . S
C2576 C2595 1.429 . S
C2576 H2600 0.950 . S
C2577 C2594 1.574 . S
C2577 C2596 1.368 . S
C2577 H2601 0.949 . S
H2578 C2582 0.949 . S
C2579 C2580 1.349 . S
C2579 C2581 1.327 . S
C2579 H2602 0.950 . S
C2580 C2579 1.349 . S
C2580 C2592 1.349 . S
C2581 C2579 1.327 . S
C2581 C2597 1.429 . S
C2581 H2603 0.950 . S
C2582 H2578 0.949 . S
C2582 C2590 1.574 . S
C2582 C2598 1.368 . S
H2583 C2591 0.950 . S
H2584 C2589 0.950 . S
H2585 C2590 0.949 . S
H2586 C2592 0.950 . S
H2587 C2593 0.950 . S
H2588 C2594 0.949 . S
C2589 H2584 0.950 . S
C2589 C2591 1.327 . S
C2589 C2595 1.429 . S
C2590 C2582 1.574 . S
C2590 H2585 0.949 . S
C2590 C2596 1.368 . S
C2591 C2575 1.349 . S
C2591 H2583 0.950 . S
C2591 C2589 1.327 . S
C2592 C2580 1.349 . S
C2592 H2586 0.950 . S
C2592 C2593 1.327 . S
C2593 H2587 0.950 . S
C2593 C2592 1.327 . S
C2593 C2597 1.429 . S
C2594 C2577 1.574 . S
C2594 H2588 0.949 . S
C2594 C2598 1.368 . S
C2595 C2576 1.429 . S
C2595 C2589 1.429 . S
C2595 C2596 1.523 . S
C2596 C2577 1.368 . S
C2596 C2590 1.368 . S
C2596 C2595 1.523 . S
C2597 C2581 1.429 . S
C2597 C2593 1.429 . S
C2597 C2598 1.523 . S
C2598 C2582 1.368 . S
C2598 C2594 1.368 . S
C2598 C2597 1.523 . S
H2599 C2574 0.950 . S
H2600 C2576 0.950 . S
H2601 C2577 0.949 . S
H2602 C2579 0.950 . S
H2603 C2581 0.950 . S
C2604 C2605 1.349 . S
C2604 C2606 1.327 . S
C2604 H2629 0.950 . S
C2605 C2604 1.349 . S
C2605 C2621 1.349 . S
C2606 C2604 1.327 . S
C2606 C2625 1.429 . S
C2606 H2630 0.950 . S
C2607 C2624 1.574 . S
C2607 C2626 1.368 . S
C2607 H2631 0.949 . S
H2608 C2612 0.949 . S
C2609 C2610 1.349 . S
C2609 C2611 1.327 . S
C2609 H2632 0.950 . S
C2610 C2609 1.349 . S
C2610 C2622 1.349 . S
C2611 C2609 1.327 . S
C2611 C2627 1.429 . S
C2611 H2633 0.950 . S
C2612 H2608 0.949 . S
C2612 C2620 1.574 . S
C2612 C2628 1.368 . S
H2613 C2621 0.950 . S
H2614 C2619 0.950 . S
H2615 C2620 0.949 . S
H2616 C2622 0.950 . S
H2617 C2623 0.950 . S
H2618 C2624 0.949 1_565 S
C2619 H2614 0.950 . S
C2619 C2621 1.327 . S
C2619 C2625 1.429 . S
C2620 C2612 1.574 . S
C2620 H2615 0.949 . S
C2620 C2626 1.368 . S
C2621 C2605 1.349 . S
C2621 H2613 0.950 . S
C2621 C2619 1.327 . S
C2622 C2610 1.349 . S
C2622 H2616 0.950 . S
C2622 C2623 1.327 . S
C2623 H2617 0.950 . S
C2623 C2622 1.327 . S
C2623 C2627 1.429 . S
C2624 C2607 1.574 . S
C2624 H2618 0.949 1_545 S
C2624 C2628 1.368 . S
C2625 C2606 1.429 . S
C2625 C2619 1.429 . S
C2625 C2626 1.523 . S
C2626 C2607 1.368 . S
C2626 C2620 1.368 . S
C2626 C2625 1.523 . S
C2627 C2611 1.429 . S
C2627 C2623 1.429 . S
C2627 C2628 1.523 1_565 S
C2628 C2612 1.368 . S
C2628 C2624 1.368 . S
C2628 C2627 1.523 1_545 S
H2629 C2604 0.950 . S
H2630 C2606 0.950 . S
H2631 C2607 0.949 . S
H2632 C2609 0.950 . S
H2633 C2611 0.950 . S
C2634 C2635 1.349 . S
C2634 C2636 1.327 . S
C2634 H2659 0.950 . S
C2635 C2634 1.349 . S
C2635 C2651 1.349 . S
C2636 C2634 1.327 . S
C2636 C2655 1.429 . S
C2636 H2660 0.950 . S
C2637 C2654 1.574 . S
C2637 C2656 1.368 . S
C2637 H2661 0.949 . S
H2638 C2642 0.949 . S
C2639 C2640 1.349 . S
C2639 C2641 1.327 . S
C2639 H2662 0.950 . S
C2640 C2639 1.349 . S
C2640 C2652 1.349 . S
C2641 C2639 1.327 . S
C2641 C2657 1.429 . S
C2641 H2663 0.950 . S
C2642 H2638 0.949 . S
C2642 C2650 1.574 . S
C2642 C2658 1.368 . S
H2643 C2651 0.950 . S
H2644 C2649 0.950 . S
H2645 C2650 0.949 . S
H2646 C2652 0.950 . S
H2647 C2653 0.950 . S
H2648 C2654 0.949 . S
C2649 H2644 0.950 . S
C2649 C2651 1.327 . S
C2649 C2655 1.429 . S
C2650 C2642 1.574 . S
C2650 H2645 0.949 . S
C2650 C2656 1.368 . S
C2651 C2635 1.349 . S
C2651 H2643 0.950 . S
C2651 C2649 1.327 . S
C2652 C2640 1.349 . S
C2652 H2646 0.950 . S
C2652 C2653 1.327 . S
C2653 H2647 0.950 . S
C2653 C2652 1.327 . S
C2653 C2657 1.429 . S
C2654 C2637 1.574 . S
C2654 H2648 0.949 . S
C2654 C2658 1.368 . S
C2655 C2636 1.429 . S
C2655 C2649 1.429 . S
C2655 C2656 1.523 . S
C2656 C2637 1.368 . S
C2656 C2650 1.368 . S
C2656 C2655 1.523 . S
C2657 C2641 1.429 . S
C2657 C2653 1.429 . S
C2657 C2658 1.523 . S
C2658 C2642 1.368 . S
C2658 C2654 1.368 . S
C2658 C2657 1.523 . S
H2659 C2634 0.950 . S
H2660 C2636 0.950 . S
H2661 C2637 0.949 . S
H2662 C2639 0.950 . S
H2663 C2641 0.950 . S
C2664 C2665 1.349 . S
C2664 C2666 1.327 . S
C2664 H2689 0.950 . S
C2665 C2664 1.349 . S
C2665 C2681 1.349 . S
C2666 C2664 1.327 . S
C2666 C2685 1.429 . S
C2666 H2690 0.950 . S
C2667 C2684 1.574 . S
C2667 C2686 1.368 . S
C2667 H2691 0.949 . S
H2668 C2672 0.949 . S
C2669 C2670 1.349 . S
C2669 C2671 1.327 . S
C2669 H2692 0.950 . S
C2670 C2669 1.349 . S
C2670 C2682 1.349 . S
C2671 C2669 1.327 . S
C2671 C2687 1.429 . S
C2671 H2693 0.950 . S
C2672 H2668 0.949 . S
C2672 C2680 1.574 . S
C2672 C2688 1.368 . S
H2673 C2681 0.950 . S
H2674 C2679 0.950 . S
H2675 C2680 0.949 . S
H2676 C2682 0.950 . S
H2677 C2683 0.950 . S
H2678 C2684 0.949 . S
C2679 H2674 0.950 . S
C2679 C2681 1.327 . S
C2679 C2685 1.429 . S
C2680 C2672 1.574 . S
C2680 H2675 0.949 . S
C2680 C2686 1.368 . S
C2681 C2665 1.349 . S
C2681 H2673 0.950 . S
C2681 C2679 1.327 . S
C2682 C2670 1.349 . S
C2682 H2676 0.950 . S
C2682 C2683 1.327 . S
C2683 H2677 0.950 . S
C2683 C2682 1.327 . S
C2683 C2687 1.429 . S
C2684 C2667 1.574 . S
C2684 H2678 0.949 . S
C2684 C2688 1.368 . S
C2685 C2666 1.429 . S
C2685 C2679 1.429 . S
C2685 C2686 1.523 . S
C2686 C2667 1.368 . S
C2686 C2680 1.368 . S
C2686 C2685 1.523 . S
C2687 C2671 1.429 . S
C2687 C2683 1.429 . S
C2687 C2688 1.523 . S
C2688 C2672 1.368 . S
C2688 C2684 1.368 . S
C2688 C2687 1.523 . S
H2689 C2664 0.950 . S
H2690 C2666 0.950 . S
H2691 C2667 0.949 . S
H2692 C2669 0.950 . S
H2693 C2671 0.950 . S
C2694 C2695 1.349 . S
C2694 C2696 1.327 . S
C2694 H2719 0.950 . S
C2695 C2694 1.349 . S
C2695 C2711 1.349 . S
C2696 C2694 1.327 . S
C2696 C2715 1.429 . S
C2696 H2720 0.950 . S
C2697 C2714 1.574 . S
C2697 C2716 1.368 . S
C2697 H2721 0.949 . S
H2698 C2702 0.949 . S
C2699 C2700 1.349 . S
C2699 C2701 1.327 . S
C2699 H2722 0.950 . S
C2700 C2699 1.349 . S
C2700 C2712 1.349 . S
C2701 C2699 1.327 . S
C2701 C2717 1.429 . S
C2701 H2723 0.950 . S
C2702 H2698 0.949 . S
C2702 C2710 1.574 . S
C2702 C2718 1.368 . S
H2703 C2711 0.950 . S
H2704 C2709 0.950 . S
H2705 C2710 0.949 . S
H2706 C2712 0.950 . S
H2707 C2713 0.950 . S
H2708 C2714 0.949 . S
C2709 H2704 0.950 . S
C2709 C2711 1.327 . S
C2709 C2715 1.429 . S
C2710 C2702 1.574 . S
C2710 H2705 0.949 . S
C2710 C2716 1.368 . S
C2711 C2695 1.349 . S
C2711 H2703 0.950 . S
C2711 C2709 1.327 . S
C2712 C2700 1.349 . S
C2712 H2706 0.950 . S
C2712 C2713 1.327 . S
C2713 H2707 0.950 . S
C2713 C2712 1.327 . S
C2713 C2717 1.429 . S
C2714 C2697 1.574 . S
C2714 H2708 0.949 . S
C2714 C2718 1.368 . S
C2715 C2696 1.429 . S
C2715 C2709 1.429 . S
C2715 C2716 1.523 . S
C2716 C2697 1.368 . S
C2716 C2710 1.368 . S
C2716 C2715 1.523 . S
C2717 C2701 1.429 . S
C2717 C2713 1.429 . S
C2717 C2718 1.523 . S
C2718 C2702 1.368 . S
C2718 C2714 1.368 . S
C2718 C2717 1.523 . S
H2719 C2694 0.950 . S
H2720 C2696 0.950 . S
H2721 C2697 0.949 . S
H2722 C2699 0.950 . S
H2723 C2701 0.950 . S
C2724 C2725 1.349 . S
C2724 C2726 1.327 . S
C2724 H2749 0.950 . S
C2725 C2724 1.349 . S
C2725 C2741 1.349 . S
C2726 C2724 1.327 . S
C2726 C2745 1.429 . S
C2726 H2750 0.950 . S
C2727 C2744 1.574 . S
C2727 C2746 1.368 . S
C2727 H2751 0.949 . S
H2728 C2732 0.949 . S
C2729 C2730 1.349 . S
C2729 C2731 1.327 . S
C2729 H2752 0.950 . S
C2730 C2729 1.349 . S
C2730 C2742 1.349 . S
C2731 C2729 1.327 . S
C2731 C2747 1.429 . S
C2731 H2753 0.950 . S
C2732 H2728 0.949 . S
C2732 C2740 1.574 . S
C2732 C2748 1.368 . S
H2733 C2741 0.950 . S
H2734 C2739 0.950 . S
H2735 C2740 0.971 . S
H2736 C2742 0.950 . S
H2737 C2743 0.950 . S
H2738 C2744 0.949 . S
C2739 H2734 0.950 . S
C2739 C2741 1.327 . S
C2739 C2745 1.429 . S
C2740 C2732 1.574 . S
C2740 H2735 0.971 . S
C2740 C2746 1.368 . S
C2741 C2725 1.349 . S
C2741 H2733 0.950 . S
C2741 C2739 1.327 . S
C2742 C2730 1.349 . S
C2742 H2736 0.950 . S
C2742 C2743 1.327 . S
C2743 H2737 0.950 . S
C2743 C2742 1.327 . S
C2743 C2747 1.429 . S
C2744 C2727 1.574 . S
C2744 H2738 0.949 . S
C2744 C2748 1.368 . S
C2745 C2726 1.429 . S
C2745 C2739 1.429 . S
C2745 C2746 1.523 1_545 S
C2746 C2727 1.368 . S
C2746 C2740 1.368 . S
C2746 C2745 1.523 1_565 S
C2747 C2731 1.429 . S
C2747 C2743 1.429 . S
C2747 C2748 1.523 . S
C2748 C2732 1.368 . S
C2748 C2744 1.368 . S
C2748 C2747 1.523 . S
H2749 C2724 0.950 . S
H2750 C2726 0.950 . S
H2751 C2727 0.949 . S
H2752 C2729 0.950 . S
H2753 C2731 0.950 . S
C2754 C2755 1.349 . S
C2754 C2756 1.327 . S
C2754 H2779 0.950 . S
C2755 C2754 1.349 . S
C2755 C2771 1.349 . S
C2756 C2754 1.327 . S
C2756 C2775 1.429 . S
C2756 H2780 0.950 . S
C2757 C2774 1.574 . S
C2757 C2776 1.368 . S
C2757 H2781 0.949 . S
H2758 C2762 0.949 . S
C2759 C2760 1.349 . S
C2759 C2761 1.327 . S
C2759 H2782 0.950 . S
C2760 C2759 1.349 . S
C2760 C2772 1.349 . S
C2761 C2759 1.327 . S
C2761 C2777 1.429 . S
C2761 H2783 0.950 . S
C2762 H2758 0.949 . S
C2762 C2770 1.574 . S
C2762 C2778 1.368 . S
H2763 C2771 0.950 . S
H2764 C2769 0.950 . S
H2765 C2770 0.949 . S
H2766 C2772 0.950 . S
H2767 C2773 0.950 . S
H2768 C2774 0.949 1_565 S
C2769 H2764 0.950 . S
C2769 C2771 1.327 . S
C2769 C2775 1.429 . S
C2770 C2762 1.574 . S
C2770 H2765 0.949 . S
C2770 C2776 1.368 . S
C2771 C2755 1.349 . S
C2771 H2763 0.950 . S
C2771 C2769 1.327 . S
C2772 C2760 1.349 . S
C2772 H2766 0.950 . S
C2772 C2773 1.327 . S
C2773 H2767 0.950 . S
C2773 C2772 1.327 . S
C2773 C2777 1.429 . S
C2774 C2757 1.574 . S
C2774 H2768 0.949 1_545 S
C2774 C2778 1.368 . S
C2775 C2756 1.429 . S
C2775 C2769 1.429 . S
C2775 C2776 1.523 . S
C2776 C2757 1.368 . S
C2776 C2770 1.368 . S
C2776 C2775 1.523 . S
C2777 C2761 1.429 . S
C2777 C2773 1.429 . S
C2777 C2778 1.523 1_565 S
C2778 C2762 1.368 . S
C2778 C2774 1.368 . S
C2778 C2777 1.523 1_545 S
H2779 C2754 0.950 . S
H2780 C2756 0.950 . S
H2781 C2757 0.949 . S
H2782 C2759 0.950 . S
H2783 C2761 0.950 . S
C2784 C2785 1.349 . S
C2784 C2786 1.327 . S
C2784 H2809 0.950 . S
C2785 C2784 1.349 . S
C2785 C2801 1.349 . S
C2786 C2784 1.327 . S
C2786 C2805 1.429 . S
C2786 H2810 0.950 . S
C2787 C2804 1.574 . S
C2787 C2806 1.368 . S
C2787 H2811 0.949 . S
H2788 C2792 0.949 . S
C2789 C2790 1.349 . S
C2789 C2791 1.327 . S
C2789 H2812 0.950 . S
C2790 C2789 1.349 . S
C2790 C2802 1.349 . S
C2791 C2789 1.327 . S
C2791 C2807 1.429 . S
C2791 H2813 0.950 . S
C2792 H2788 0.949 . S
C2792 C2800 1.574 . S
C2792 C2808 1.368 . S
H2793 C2801 0.950 . S
H2794 C2799 0.950 . S
H2795 C2800 0.949 . S
H2796 C2802 0.950 . S
H2797 C2803 0.950 . S
H2798 C2804 0.949 . S
C2799 H2794 0.950 . S
C2799 C2801 1.327 . S
C2799 C2805 1.429 . S
C2800 C2792 1.574 . S
C2800 H2795 0.949 . S
C2800 C2806 1.368 . S
C2801 C2785 1.349 . S
C2801 H2793 0.950 . S
C2801 C2799 1.327 . S
C2802 C2790 1.349 . S
C2802 H2796 0.950 . S
C2802 C2803 1.327 . S
C2803 H2797 0.950 . S
C2803 C2802 1.327 . S
C2803 C2807 1.429 . S
C2804 C2787 1.574 . S
C2804 H2798 0.949 . S
C2804 C2808 1.368 . S
C2805 C2786 1.429 . S
C2805 C2799 1.429 . S
C2805 C2806 1.523 . S
C2806 C2787 1.368 . S
C2806 C2800 1.368 . S
C2806 C2805 1.523 . S
C2807 C2791 1.429 . S
C2807 C2803 1.429 . S
C2807 C2808 1.523 . S
C2808 C2792 1.368 . S
C2808 C2804 1.368 . S
C2808 C2807 1.523 . S
H2809 C2784 0.950 . S
H2810 C2786 0.950 . S
H2811 C2787 0.949 . S
H2812 C2789 0.950 . S
H2813 C2791 0.950 . S
C2814 C2815 1.349 . S
C2814 C2816 1.327 . S
C2814 H2839 0.950 . S
C2815 C2814 1.349 . S
C2815 C2831 1.349 . S
C2816 C2814 1.327 . S
C2816 C2835 1.429 . S
C2816 H2840 0.950 . S
C2817 C2834 1.574 . S
C2817 C2836 1.368 . S
C2817 H2841 0.949 . S
H2818 C2822 0.949 . S
C2819 C2820 1.349 . S
C2819 C2821 1.327 . S
C2819 H2842 0.950 . S
C2820 C2819 1.349 . S
C2820 C2832 1.349 . S
C2821 C2819 1.327 . S
C2821 C2837 1.429 . S
C2821 H2843 0.950 . S
C2822 H2818 0.949 . S
C2822 C2830 1.574 . S
C2822 C2838 1.368 . S
H2823 C2831 0.950 . S
H2824 C2829 0.950 . S
H2825 C2830 0.949 . S
H2826 C2832 0.950 . S
H2827 C2833 0.950 . S
H2828 C2834 0.949 . S
C2829 H2824 0.950 . S
C2829 C2831 1.327 . S
C2829 C2835 1.429 . S
C2830 C2822 1.574 . S
C2830 H2825 0.949 . S
C2830 C2836 1.368 . S
C2831 C2815 1.349 . S
C2831 H2823 0.950 . S
C2831 C2829 1.327 . S
C2832 C2820 1.349 . S
C2832 H2826 0.950 . S
C2832 C2833 1.327 . S
C2833 H2827 0.950 . S
C2833 C2832 1.327 . S
C2833 C2837 1.429 . S
C2834 C2817 1.574 . S
C2834 H2828 0.949 . S
C2834 C2838 1.368 . S
C2835 C2816 1.429 . S
C2835 C2829 1.429 . S
C2835 C2836 1.523 . S
C2836 C2817 1.368 . S
C2836 C2830 1.368 . S
C2836 C2835 1.523 . S
C2837 C2821 1.429 . S
C2837 C2833 1.429 . S
C2837 C2838 1.523 . S
C2838 C2822 1.368 . S
C2838 C2834 1.368 . S
C2838 C2837 1.523 . S
H2839 C2814 0.950 . S
H2840 C2816 0.950 . S
H2841 C2817 0.949 . S
H2842 C2819 0.950 . S
H2843 C2821 0.950 . S
C2844 C2845 1.349 . S
C2844 C2846 1.327 . S
C2844 H2869 0.950 . S
C2845 C2844 1.349 . S
C2845 C2861 1.349 . S
C2846 C2844 1.327 . S
C2846 C2865 1.429 . S
C2846 H2870 0.950 . S
C2847 C2864 1.574 . S
C2847 C2866 1.368 . S
C2847 H2871 0.949 . S
H2848 C2852 0.949 . S
C2849 C2850 1.349 . S
C2849 C2851 1.327 . S
C2849 H2872 0.950 . S
C2850 C2849 1.349 . S
C2850 C2862 1.349 . S
C2851 C2849 1.327 . S
C2851 C2867 1.429 . S
C2851 H2873 0.950 . S
C2852 H2848 0.949 . S
C2852 C2860 1.574 . S
C2852 C2868 1.368 . S
H2853 C2861 0.950 . S
H2854 C2859 0.950 . S
H2855 C2860 0.949 . S
H2856 C2862 0.950 . S
H2857 C2863 0.950 . S
H2858 C2864 0.949 . S
C2859 H2854 0.950 . S
C2859 C2861 1.327 . S
C2859 C2865 1.429 . S
C2860 C2852 1.574 . S
C2860 H2855 0.949 . S
C2860 C2866 1.368 . S
C2861 C2845 1.349 . S
C2861 H2853 0.950 . S
C2861 C2859 1.327 . S
C2862 C2850 1.349 . S
C2862 H2856 0.950 . S
C2862 C2863 1.327 . S
C2863 H2857 0.950 . S
C2863 C2862 1.327 . S
C2863 C2867 1.429 . S
C2864 C2847 1.574 . S
C2864 H2858 0.949 . S
C2864 C2868 1.368 . S
C2865 C2846 1.429 . S
C2865 C2859 1.429 . S
C2865 C2866 1.523 . S
C2866 C2847 1.368 . S
C2866 C2860 1.368 . S
C2866 C2865 1.523 . S
C2867 C2851 1.429 . S
C2867 C2863 1.429 . S
C2867 C2868 1.523 . S
C2868 C2852 1.368 . S
C2868 C2864 1.368 . S
C2868 C2867 1.523 . S
H2869 C2844 0.950 . S
H2870 C2846 0.950 . S
H2871 C2847 0.949 . S
H2872 C2849 0.950 . S
H2873 C2851 0.950 . S
C2874 C2875 1.349 . S
C2874 C2876 1.327 . S
C2874 H2899 0.950 . S
C2875 C2874 1.349 . S
C2875 C2891 1.349 . S
C2876 C2874 1.327 . S
C2876 C2895 1.429 . S
C2876 H2900 0.950 . S
C2877 C2894 1.574 . S
C2877 C2896 1.368 . S
C2877 H2901 0.949 . S
H2878 C2882 0.949 . S
C2879 C2880 1.349 . S
C2879 C2881 1.327 . S
C2879 H2902 0.950 . S
C2880 C2879 1.349 . S
C2880 C2892 1.349 . S
C2881 C2879 1.327 . S
C2881 C2897 1.429 . S
C2881 H2903 0.950 . S
C2882 H2878 0.949 . S
C2882 C2890 1.574 . S
C2882 C2898 1.368 . S
H2883 C2891 0.950 . S
H2884 C2889 0.950 . S
H2885 C2890 0.949 . S
H2886 C2892 0.950 . S
H2887 C2893 0.950 . S
H2888 C2894 0.949 . S
C2889 H2884 0.950 . S
C2889 C2891 1.327 . S
C2889 C2895 1.429 . S
C2890 C2882 1.574 . S
C2890 H2885 0.949 . S
C2890 C2896 1.368 . S
C2891 C2875 1.349 . S
C2891 H2883 0.950 . S
C2891 C2889 1.327 . S
C2892 C2880 1.349 . S
C2892 H2886 0.950 . S
C2892 C2893 1.327 . S
C2893 H2887 0.950 . S
C2893 C2892 1.327 . S
C2893 C2897 1.429 . S
C2894 C2877 1.574 . S
C2894 H2888 0.949 . S
C2894 C2898 1.368 . S
C2895 C2876 1.429 . S
C2895 C2889 1.429 . S
C2895 C2896 1.523 1_455 S
C2896 C2877 1.368 . S
C2896 C2890 1.368 . S
C2896 C2895 1.523 1_655 S
C2897 C2881 1.429 . S
C2897 C2893 1.429 . S
C2897 C2898 1.523 . S
C2898 C2882 1.368 . S
C2898 C2894 1.368 . S
C2898 C2897 1.523 . S
H2899 C2874 0.950 . S
H2900 C2876 0.950 . S
H2901 C2877 0.949 . S
H2902 C2879 0.950 . S
H2903 C2881 0.950 . S
C2904 C2905 1.349 . S
C2904 C2906 1.327 . S
C2904 H2929 0.950 . S
C2905 C2904 1.349 . S
C2905 C2921 1.349 . S
C2906 C2904 1.327 . S
C2906 C2925 1.429 . S
C2906 H2930 0.950 . S
C2907 C2924 1.574 . S
C2907 C2926 1.368 . S
C2907 H2931 0.949 . S
H2908 C2912 0.949 . S
C2909 C2910 1.349 . S
C2909 C2911 1.327 . S
C2909 H2932 0.950 . S
C2910 C2909 1.349 . S
C2910 C2922 1.349 . S
C2911 C2909 1.327 . S
C2911 C2927 1.429 . S
C2911 H2933 0.950 . S
C2912 H2908 0.949 . S
C2912 C2920 1.574 . S
C2912 C2928 1.368 . S
H2913 C2921 0.950 . S
H2914 C2919 0.950 . S
H2915 C2920 0.949 . S
H2916 C2922 0.950 . S
H2917 C2923 0.950 . S
H2918 C2924 0.949 . S
C2919 H2914 0.950 . S
C2919 C2921 1.327 . S
C2919 C2925 1.429 . S
C2920 C2912 1.574 . S
C2920 H2915 0.949 . S
C2920 C2926 1.368 . S
C2921 C2905 1.349 . S
C2921 H2913 0.950 . S
C2921 C2919 1.327 . S
C2922 C2910 1.349 . S
C2922 H2916 0.950 . S
C2922 C2923 1.327 . S
C2923 H2917 0.950 . S
C2923 C2922 1.327 . S
C2923 C2927 1.429 . S
C2924 C2907 1.574 . S
C2924 H2918 0.949 . S
C2924 C2928 1.368 . S
C2925 C2906 1.429 . S
C2925 C2919 1.429 . S
C2925 C2926 1.523 . S
C2926 C2907 1.368 . S
C2926 C2920 1.368 . S
C2926 C2925 1.523 . S
C2927 C2911 1.429 . S
C2927 C2923 1.429 . S
C2927 C2928 1.523 . S
C2928 C2912 1.368 . S
C2928 C2924 1.368 . S
C2928 C2927 1.523 . S
H2929 C2904 0.950 . S
H2930 C2906 0.950 . S
H2931 C2907 0.949 . S
H2932 C2909 0.950 . S
H2933 C2911 0.950 . S
C2934 C2935 1.349 . S
C2934 C2936 1.327 . S
C2934 H2959 0.950 . S
C2935 C2934 1.349 . S
C2935 C2951 1.349 . S
C2936 C2934 1.327 . S
C2936 C2955 1.429 . S
C2936 H2960 0.950 . S
C2937 C2954 1.574 . S
C2937 C2956 1.368 . S
C2937 H2961 0.949 . S
H2938 C2942 0.949 . S
C2939 C2940 1.349 . S
C2939 C2941 1.327 . S
C2939 H2962 0.950 . S
C2940 C2939 1.349 . S
C2940 C2952 1.349 . S
C2941 C2939 1.327 . S
C2941 C2957 1.429 . S
C2941 H2963 0.950 . S
C2942 H2938 0.949 . S
C2942 C2950 1.574 . S
C2942 C2958 1.368 . S
H2943 C2951 0.950 . S
H2944 C2949 0.950 . S
H2945 C2950 0.949 . S
H2946 C2952 0.950 . S
H2947 C2953 0.950 . S
H2948 C2954 0.949 . S
C2949 H2944 0.950 . S
C2949 C2951 1.327 . S
C2949 C2955 1.429 . S
C2950 C2942 1.574 . S
C2950 H2945 0.949 . S
C2950 C2956 1.368 . S
C2951 C2935 1.349 . S
C2951 H2943 0.950 . S
C2951 C2949 1.327 . S
C2952 C2940 1.349 . S
C2952 H2946 0.950 . S
C2952 C2953 1.327 . S
C2953 H2947 0.950 . S
C2953 C2952 1.327 . S
C2953 C2957 1.429 . S
C2954 C2937 1.574 . S
C2954 H2948 0.949 . S
C2954 C2958 1.368 . S
C2955 C2936 1.429 . S
C2955 C2949 1.429 . S
C2955 C2956 1.523 1_455 S
C2956 C2937 1.368 . S
C2956 C2950 1.368 . S
C2956 C2955 1.523 1_655 S
C2957 C2941 1.429 . S
C2957 C2953 1.429 . S
C2957 C2958 1.523 . S
C2958 C2942 1.368 . S
C2958 C2954 1.368 . S
C2958 C2957 1.523 . S
H2959 C2934 0.950 . S
H2960 C2936 0.950 . S
H2961 C2937 0.949 . S
H2962 C2939 0.950 . S
H2963 C2941 0.950 . S
C2964 C2965 1.349 . S
C2964 C2966 1.327 . S
C2964 H2989 0.950 . S
C2965 C2964 1.349 . S
C2965 C2981 1.349 . S
C2966 C2964 1.327 . S
C2966 C2985 1.429 . S
C2966 H2990 0.950 . S
C2967 C2984 1.574 . S
C2967 C2986 1.368 . S
C2967 H2991 0.949 . S
H2968 C2972 0.949 . S
C2969 C2970 1.349 . S
C2969 C2971 1.327 . S
C2969 H2992 0.950 . S
C2970 C2969 1.349 . S
C2970 C2982 1.349 . S
C2971 C2969 1.327 . S
C2971 C2987 1.429 . S
C2971 H2993 0.950 . S
C2972 H2968 0.949 . S
C2972 C2980 1.574 . S
C2972 C2988 1.368 . S
H2973 C2981 0.950 . S
H2974 C2979 0.950 . S
H2975 C2980 0.949 . S
H2976 C2982 0.950 . S
H2977 C2983 0.950 . S
H2978 C2984 0.949 . S
C2979 H2974 0.950 . S
C2979 C2981 1.327 . S
C2979 C2985 1.429 . S
C2980 C2972 1.574 . S
C2980 H2975 0.949 . S
C2980 C2986 1.368 . S
C2981 C2965 1.349 . S
C2981 H2973 0.950 . S
C2981 C2979 1.327 . S
C2982 C2970 1.349 . S
C2982 H2976 0.950 . S
C2982 C2983 1.327 . S
C2983 H2977 0.950 . S
C2983 C2982 1.327 . S
C2983 C2987 1.429 . S
C2984 C2967 1.574 . S
C2984 H2978 0.949 . S
C2984 C2988 1.368 . S
C2985 C2966 1.429 . S
C2985 C2979 1.429 . S
C2985 C2986 1.523 . S
C2986 C2967 1.368 . S
C2986 C2980 1.368 . S
C2986 C2985 1.523 . S
C2987 C2971 1.429 . S
C2987 C2983 1.429 . S
C2987 C2988 1.523 . S
C2988 C2972 1.368 . S
C2988 C2984 1.368 . S
C2988 C2987 1.523 . S
H2989 C2964 0.950 . S
H2990 C2966 0.950 . S
H2991 C2967 0.949 . S
H2992 C2969 0.950 . S
H2993 C2971 0.950 . S
C2994 C2995 1.349 . S
C2994 C2996 1.327 . S
C2994 H3019 0.950 . S
C2995 C2994 1.349 . S
C2995 C3011 1.349 . S
C2996 C2994 1.327 . S
C2996 C3015 1.429 . S
C2996 H3020 0.950 . S
C2997 C3014 1.574 . S
C2997 C3016 1.368 . S
C2997 H3021 0.949 . S
H2998 C3002 0.949 . S
C2999 C3000 1.349 . S
C2999 C3001 1.327 . S
C2999 H3022 0.950 . S
C3000 C2999 1.349 . S
C3000 C3012 1.349 . S
C3001 C2999 1.327 . S
C3001 C3017 1.429 . S
C3001 H3023 0.950 . S
C3002 H2998 0.949 . S
C3002 C3010 1.574 . S
C3002 C3018 1.368 . S
H3003 C3011 0.950 . S
H3004 C3009 0.950 . S
H3005 C3010 0.949 . S
H3006 C3012 0.950 . S
H3007 C3013 0.950 . S
H3008 C3014 0.949 . S
C3009 H3004 0.950 . S
C3009 C3011 1.327 . S
C3009 C3015 1.429 . S
C3010 C3002 1.574 . S
C3010 H3005 0.949 . S
C3010 C3016 1.368 . S
C3011 C2995 1.349 . S
C3011 H3003 0.950 . S
C3011 C3009 1.327 . S
C3012 C3000 1.349 . S
C3012 H3006 0.950 . S
C3012 C3013 1.327 . S
C3013 H3007 0.950 . S
C3013 C3012 1.327 . S
C3013 C3017 1.429 . S
C3014 C2997 1.574 . S
C3014 H3008 0.949 . S
C3014 C3018 1.368 . S
C3015 C2996 1.429 . S
C3015 C3009 1.429 . S
C3015 C3016 1.523 . S
C3016 C2997 1.368 . S
C3016 C3010 1.368 . S
C3016 C3015 1.523 . S
C3017 C3001 1.429 . S
C3017 C3013 1.429 . S
C3017 C3018 1.523 . S
C3018 C3002 1.368 . S
C3018 C3014 1.368 . S
C3018 C3017 1.523 . S
H3019 C2994 0.950 . S
H3020 C2996 0.950 . S
H3021 C2997 0.949 . S
H3022 C2999 0.950 . S
H3023 C3001 0.950 . S
C3024 C3025 1.349 . S
C3024 C3026 1.327 . S
C3024 H3049 0.950 . S
C3025 C3024 1.349 . S
C3025 C3041 1.349 . S
C3026 C3024 1.327 . S
C3026 C3045 1.429 . S
C3026 H3050 0.950 . S
C3027 C3044 1.574 . S
C3027 C3046 1.368 . S
C3027 H3051 0.949 . S
H3028 C3032 0.949 . S
C3029 C3030 1.349 . S
C3029 C3031 1.327 . S
C3029 H3052 0.950 . S
C3030 C3029 1.349 . S
C3030 C3042 1.349 . S
C3031 C3029 1.327 . S
C3031 C3047 1.429 . S
C3031 H3053 0.950 . S
C3032 H3028 0.949 . S
C3032 C3040 1.574 . S
C3032 C3048 1.368 . S
H3033 C3041 0.950 . S
H3034 C3039 0.950 . S
H3035 C3040 0.949 . S
H3036 C3042 0.950 . S
H3037 C3043 0.950 . S
H3038 C3044 0.949 . S
C3039 H3034 0.950 . S
C3039 C3041 1.327 . S
C3039 C3045 1.429 . S
C3040 C3032 1.574 . S
C3040 H3035 0.949 . S
C3040 C3046 1.368 . S
C3041 C3025 1.349 . S
C3041 H3033 0.950 . S
C3041 C3039 1.327 . S
C3042 C3030 1.349 . S
C3042 H3036 0.950 . S
C3042 C3043 1.327 . S
C3043 H3037 0.950 . S
C3043 C3042 1.327 . S
C3043 C3047 1.429 . S
C3044 C3027 1.574 . S
C3044 H3038 0.949 . S
C3044 C3048 1.368 . S
C3045 C3026 1.429 . S
C3045 C3039 1.429 . S
C3045 C3046 1.523 . S
C3046 C3027 1.368 . S
C3046 C3040 1.368 . S
C3046 C3045 1.523 . S
C3047 C3031 1.429 . S
C3047 C3043 1.429 . S
C3047 C3048 1.523 . S
C3048 C3032 1.368 . S
C3048 C3044 1.368 . S
C3048 C3047 1.523 . S
H3049 C3024 0.950 . S
H3050 C3026 0.950 . S
H3051 C3027 0.949 . S
H3052 C3029 0.950 . S
H3053 C3031 0.950 . S
C3054 C3055 1.349 . S
C3054 C3056 1.327 . S
C3054 H3079 0.950 . S
C3055 C3054 1.349 . S
C3055 C3071 1.349 . S
C3056 C3054 1.327 . S
C3056 C3075 1.429 . S
C3056 H3080 0.950 . S
C3057 C3074 1.574 . S
C3057 C3076 1.368 . S
C3057 H3081 0.949 . S
H3058 C3062 0.949 1_554 S
C3059 C3060 1.349 . S
C3059 C3061 1.327 . S
C3059 H3082 0.950 . S
C3060 C3059 1.349 . S
C3060 C3072 1.349 . S
C3061 C3059 1.327 . S
C3061 C3077 1.429 . S
C3061 H3083 0.950 . S
C3062 H3058 0.949 1_556 S
C3062 C3070 1.574 . S
C3062 C3078 1.368 . S
H3063 C3071 0.950 . S
H3064 C3069 0.950 . S
H3065 C3070 0.949 . S
H3066 C3072 0.950 . S
H3067 C3073 0.950 . S
H3068 C3074 0.949 . S
C3069 H3064 0.950 . S
C3069 C3071 1.327 . S
C3069 C3075 1.429 . S
C3070 C3062 1.574 . S
C3070 H3065 0.949 . S
C3070 C3076 1.368 . S
C3071 C3055 1.349 . S
C3071 H3063 0.950 . S
C3071 C3069 1.327 . S
C3072 C3060 1.349 . S
C3072 H3066 0.950 . S
C3072 C3073 1.327 . S
C3073 H3067 0.950 . S
C3073 C3072 1.327 . S
C3073 C3077 1.429 . S
C3074 C3057 1.574 . S
C3074 H3068 0.949 . S
C3074 C3078 1.368 . S
C3075 C3056 1.429 . S
C3075 C3069 1.429 . S
C3075 C3076 1.523 . S
C3076 C3057 1.368 . S
C3076 C3070 1.368 . S
C3076 C3075 1.523 . S
C3077 C3061 1.429 . S
C3077 C3073 1.429 . S
C3077 C3078 1.523 1_554 S
C3078 C3062 1.368 . S
C3078 C3074 1.368 . S
C3078 C3077 1.523 1_556 S
H3079 C3054 0.950 . S
H3080 C3056 0.950 . S
H3081 C3057 0.949 . S
H3082 C3059 0.950 . S
H3083 C3061 0.950 . S
C3084 C3085 1.349 . S
C3084 C3086 1.327 . S
C3084 H3109 0.950 . S
C3085 C3084 1.349 . S
C3085 C3101 1.349 . S
C3086 C3084 1.327 . S
C3086 C3105 1.429 . S
C3086 H3110 0.950 . S
C3087 C3104 1.574 . S
C3087 C3106 1.368 . S
C3087 H3111 0.949 . S
H3088 C3092 0.949 . S
C3089 C3090 1.349 . S
C3089 C3091 1.327 . S
C3089 H3112 0.950 . S
C3090 C3089 1.349 . S
C3090 C3102 1.349 . S
C3091 C3089 1.327 . S
C3091 C3107 1.429 . S
C3091 H3113 0.950 . S
C3092 H3088 0.949 . S
C3092 C3100 1.574 . S
C3092 C3108 1.368 . S
H3093 C3101 0.950 . S
H3094 C3099 0.950 . S
H3095 C3100 0.949 . S
H3096 C3102 0.950 . S
H3097 C3103 0.950 . S
H3098 C3104 0.949 . S
C3099 H3094 0.950 . S
C3099 C3101 1.327 . S
C3099 C3105 1.429 . S
C3100 C3092 1.574 . S
C3100 H3095 0.949 . S
C3100 C3106 1.368 . S
C3101 C3085 1.349 . S
C3101 H3093 0.950 . S
C3101 C3099 1.327 . S
C3102 C3090 1.349 . S
C3102 H3096 0.950 . S
C3102 C3103 1.327 . S
C3103 H3097 0.950 . S
C3103 C3102 1.327 . S
C3103 C3107 1.429 . S
C3104 C3087 1.574 . S
C3104 H3098 0.949 . S
C3104 C3108 1.368 . S
C3105 C3086 1.429 . S
C3105 C3099 1.429 . S
C3105 C3106 1.523 . S
C3106 C3087 1.368 . S
C3106 C3100 1.368 . S
C3106 C3105 1.523 . S
C3107 C3091 1.429 . S
C3107 C3103 1.429 . S
C3107 C3108 1.523 . S
C3108 C3092 1.368 . S
C3108 C3104 1.368 . S
C3108 C3107 1.523 . S
H3109 C3084 0.950 . S
H3110 C3086 0.950 . S
H3111 C3087 0.949 . S
H3112 C3089 0.950 . S
H3113 C3091 0.950 . S
C3114 C3115 1.349 . S
C3114 C3116 1.327 . S
C3114 H3139 0.950 . S
C3115 C3114 1.349 . S
C3115 C3131 1.349 . S
C3116 C3114 1.327 . S
C3116 C3135 1.429 . S
C3116 H3140 0.950 . S
C3117 C3134 1.574 . S
C3117 C3136 1.368 . S
C3117 H3141 0.949 . S
H3118 C3122 0.949 . S
C3119 C3120 1.349 . S
C3119 C3121 1.327 . S
C3119 H3142 0.950 . S
C3120 C3119 1.349 . S
C3120 C3132 1.349 . S
C3121 C3119 1.327 . S
C3121 C3137 1.429 . S
C3121 H3143 0.950 . S
C3122 H3118 0.949 . S
C3122 C3130 1.574 . S
C3122 C3138 1.368 . S
H3123 C3131 0.950 . S
H3124 C3129 0.950 . S
H3125 C3130 0.949 . S
H3126 C3132 0.950 . S
H3127 C3133 0.950 . S
H3128 C3134 0.949 . S
C3129 H3124 0.950 . S
C3129 C3131 1.327 . S
C3129 C3135 1.429 . S
C3130 C3122 1.574 . S
C3130 H3125 0.949 . S
C3130 C3136 1.368 . S
C3131 C3115 1.349 . S
C3131 H3123 0.950 . S
C3131 C3129 1.327 . S
C3132 C3120 1.349 . S
C3132 H3126 0.950 . S
C3132 C3133 1.327 . S
C3133 H3127 0.950 . S
C3133 C3132 1.327 . S
C3133 C3137 1.429 . S
C3134 C3117 1.574 . S
C3134 H3128 0.949 . S
C3134 C3138 1.368 . S
C3135 C3116 1.429 . S
C3135 C3129 1.429 . S
C3135 C3136 1.523 . S
C3136 C3117 1.368 . S
C3136 C3130 1.368 . S
C3136 C3135 1.523 . S
C3137 C3121 1.429 . S
C3137 C3133 1.429 . S
C3137 C3138 1.523 . S
C3138 C3122 1.368 . S
C3138 C3134 1.368 . S
C3138 C3137 1.523 . S
H3139 C3114 0.950 . S
H3140 C3116 0.950 . S
H3141 C3117 0.949 . S
H3142 C3119 0.950 . S
H3143 C3121 0.950 . S
C3144 C3145 1.349 . S
C3144 C3146 1.327 . S
C3144 H3169 0.950 . S
C3145 C3144 1.349 . S
C3145 C3161 1.349 . S
C3146 C3144 1.327 . S
C3146 C3165 1.429 . S
C3146 H3170 0.950 . S
C3147 C3164 1.574 . S
C3147 C3166 1.368 . S
C3147 H3171 0.949 . S
H3148 C3152 0.949 . S
C3149 C3150 1.349 . S
C3149 C3151 1.327 . S
C3149 H3172 0.950 . S
C3150 C3149 1.349 . S
C3150 C3162 1.349 . S
C3151 C3149 1.327 . S
C3151 C3167 1.429 . S
C3151 H3173 0.950 . S
C3152 H3148 0.949 . S
C3152 C3160 1.574 . S
C3152 C3168 1.368 . S
H3153 C3161 0.950 . S
H3154 C3159 0.950 . S
H3155 C3160 0.949 . S
H3156 C3162 0.950 . S
H3157 C3163 0.950 . S
H3158 C3164 0.949 . S
C3159 H3154 0.950 . S
C3159 C3161 1.327 . S
C3159 C3165 1.429 . S
C3160 C3152 1.574 . S
C3160 H3155 0.949 . S
C3160 C3166 1.368 . S
C3161 C3145 1.349 . S
C3161 H3153 0.950 . S
C3161 C3159 1.327 . S
C3162 C3150 1.349 . S
C3162 H3156 0.950 . S
C3162 C3163 1.327 . S
C3163 H3157 0.950 . S
C3163 C3162 1.327 . S
C3163 C3167 1.429 . S
C3164 C3147 1.574 . S
C3164 H3158 0.949 . S
C3164 C3168 1.368 . S
C3165 C3146 1.429 . S
C3165 C3159 1.429 . S
C3165 C3166 1.523 . S
C3166 C3147 1.368 . S
C3166 C3160 1.368 . S
C3166 C3165 1.523 . S
C3167 C3151 1.429 . S
C3167 C3163 1.429 . S
C3167 C3168 1.523 . S
C3168 C3152 1.368 . S
C3168 C3164 1.368 . S
C3168 C3167 1.523 . S
H3169 C3144 0.950 . S
H3170 C3146 0.950 . S
H3171 C3147 0.949 . S
H3172 C3149 0.950 . S
H3173 C3151 0.950 . S
C3174 C3175 1.349 . S
C3174 C3176 1.327 . S
C3174 H3199 0.950 . S
C3175 C3174 1.349 . S
C3175 C3191 1.349 . S
C3176 C3174 1.327 . S
C3176 C3195 1.429 . S
C3176 H3200 0.950 . S
C3177 C3194 1.574 . S
C3177 C3196 1.368 . S
C3177 H3201 0.949 . S
H3178 C3182 0.949 . S
C3179 C3180 1.349 . S
C3179 C3181 1.327 . S
C3179 H3202 0.950 . S
C3180 C3179 1.349 . S
C3180 C3192 1.349 . S
C3181 C3179 1.327 . S
C3181 C3197 1.429 . S
C3181 H3203 0.950 . S
C3182 H3178 0.949 . S
C3182 C3190 1.574 . S
C3182 C3198 1.368 . S
H3183 C3191 0.950 . S
H3184 C3189 0.950 . S
H3185 C3190 0.949 . S
H3186 C3192 0.950 . S
H3187 C3193 0.950 . S
H3188 C3194 0.949 1_556 S
C3189 H3184 0.950 . S
C3189 C3191 1.327 . S
C3189 C3195 1.429 . S
C3190 C3182 1.574 . S
C3190 H3185 0.949 . S
C3190 C3196 1.368 . S
C3191 C3175 1.349 . S
C3191 H3183 0.950 . S
C3191 C3189 1.327 . S
C3192 C3180 1.349 . S
C3192 H3186 0.950 . S
C3192 C3193 1.327 . S
C3193 H3187 0.950 . S
C3193 C3192 1.327 . S
C3193 C3197 1.429 . S
C3194 C3177 1.574 . S
C3194 H3188 0.949 1_554 S
C3194 C3198 1.368 . S
C3195 C3176 1.429 . S
C3195 C3189 1.429 . S
C3195 C3196 1.523 . S
C3196 C3177 1.368 . S
C3196 C3190 1.368 . S
C3196 C3195 1.523 . S
C3197 C3181 1.429 . S
C3197 C3193 1.429 . S
C3197 C3198 1.523 1_556 S
C3198 C3182 1.368 . S
C3198 C3194 1.368 . S
C3198 C3197 1.523 1_554 S
H3199 C3174 0.950 . S
H3200 C3176 0.950 . S
H3201 C3177 0.949 . S
H3202 C3179 0.950 . S
H3203 C3181 0.950 . S
C3204 C3205 1.349 . S
C3204 C3206 1.327 . S
C3204 H3229 0.950 . S
C3205 C3204 1.349 . S
C3205 C3221 1.349 . S
C3206 C3204 1.327 . S
C3206 C3225 1.429 . S
C3206 H3230 0.950 . S
C3207 C3224 1.574 . S
C3207 C3226 1.368 . S
C3207 H3231 0.949 . S
H3208 C3212 0.949 . S
C3209 C3210 1.349 . S
C3209 C3211 1.327 . S
C3209 H3232 0.950 . S
C3210 C3209 1.349 . S
C3210 C3222 1.349 . S
C3211 C3209 1.327 . S
C3211 C3227 1.429 . S
C3211 H3233 0.950 . S
C3212 H3208 0.949 . S
C3212 C3220 1.574 . S
C3212 C3228 1.368 . S
H3213 C3221 0.950 . S
H3214 C3219 0.950 . S
H3215 C3220 0.949 . S
H3216 C3222 0.950 . S
H3217 C3223 0.950 . S
H3218 C3224 0.949 . S
C3219 H3214 0.950 . S
C3219 C3221 1.327 . S
C3219 C3225 1.429 . S
C3220 C3212 1.574 . S
C3220 H3215 0.949 . S
C3220 C3226 1.368 . S
C3221 C3205 1.349 . S
C3221 H3213 0.950 . S
C3221 C3219 1.327 . S
C3222 C3210 1.349 . S
C3222 H3216 0.950 . S
C3222 C3223 1.327 . S
C3223 H3217 0.950 . S
C3223 C3222 1.327 . S
C3223 C3227 1.429 . S
C3224 C3207 1.574 . S
C3224 H3218 0.949 . S
C3224 C3228 1.368 . S
C3225 C3206 1.429 . S
C3225 C3219 1.429 . S
C3225 C3226 1.523 . S
C3226 C3207 1.368 . S
C3226 C3220 1.368 . S
C3226 C3225 1.523 . S
C3227 C3211 1.429 . S
C3227 C3223 1.429 . S
C3227 C3228 1.523 . S
C3228 C3212 1.368 . S
C3228 C3224 1.368 . S
C3228 C3227 1.523 . S
H3229 C3204 0.950 . S
H3230 C3206 0.950 . S
H3231 C3207 0.949 . S
H3232 C3209 0.950 . S
H3233 C3211 0.950 . S
C3234 C3235 1.349 . S
C3234 C3236 1.327 . S
C3234 H3259 0.950 . S
C3235 C3234 1.349 . S
C3235 C3251 1.349 . S
C3236 C3234 1.327 . S
C3236 C3255 1.429 . S
C3236 H3260 0.950 . S
C3237 C3254 1.574 . S
C3237 C3256 1.368 . S
C3237 H3261 0.949 . S
H3238 C3242 0.949 . S
C3239 C3240 1.349 . S
C3239 C3241 1.327 . S
C3239 H3262 0.950 . S
C3240 C3239 1.349 . S
C3240 C3252 1.349 . S
C3241 C3239 1.327 . S
C3241 C3257 1.429 . S
C3241 H3263 0.950 . S
C3242 H3238 0.949 . S
C3242 C3250 1.574 . S
C3242 C3258 1.368 . S
H3243 C3251 0.950 . S
H3244 C3249 0.950 . S
H3245 C3250 0.949 . S
H3246 C3252 0.950 . S
H3247 C3253 0.950 . S
H3248 C3254 0.949 . S
C3249 H3244 0.950 . S
C3249 C3251 1.327 . S
C3249 C3255 1.429 . S
C3250 C3242 1.574 . S
C3250 H3245 0.949 . S
C3250 C3256 1.368 . S
C3251 C3235 1.349 . S
C3251 H3243 0.950 . S
C3251 C3249 1.327 . S
C3252 C3240 1.349 . S
C3252 H3246 0.950 . S
C3252 C3253 1.327 . S
C3253 H3247 0.950 . S
C3253 C3252 1.327 . S
C3253 C3257 1.429 . S
C3254 C3237 1.574 . S
C3254 H3248 0.949 . S
C3254 C3258 1.368 . S
C3255 C3236 1.429 . S
C3255 C3249 1.429 . S
C3255 C3256 1.523 . S
C3256 C3237 1.368 . S
C3256 C3250 1.368 . S
C3256 C3255 1.523 . S
C3257 C3241 1.429 . S
C3257 C3253 1.429 . S
C3257 C3258 1.523 . S
C3258 C3242 1.368 . S
C3258 C3254 1.368 . S
C3258 C3257 1.523 . S
H3259 C3234 0.950 . S
H3260 C3236 0.950 . S
H3261 C3237 0.949 . S
H3262 C3239 0.950 . S
H3263 C3241 0.950 . S
C3264 C3265 1.349 . S
C3264 C3266 1.327 . S
C3264 H3289 0.950 . S
C3265 C3264 1.349 . S
C3265 C3281 1.349 . S
C3266 C3264 1.327 . S
C3266 C3285 1.429 . S
C3266 H3290 0.950 . S
C3267 C3284 1.574 . S
C3267 C3286 1.368 . S
C3267 H3291 0.949 . S
H3268 C3272 0.949 . S
C3269 C3270 1.349 . S
C3269 C3271 1.327 . S
C3269 H3292 0.950 . S
C3270 C3269 1.349 . S
C3270 C3282 1.349 . S
C3271 C3269 1.327 . S
C3271 C3287 1.429 . S
C3271 H3293 0.950 . S
C3272 H3268 0.949 . S
C3272 C3280 1.574 . S
C3272 C3288 1.368 . S
H3273 C3281 0.950 . S
H3274 C3279 0.950 . S
H3275 C3280 0.949 . S
H3276 C3282 0.950 . S
H3277 C3283 0.950 . S
H3278 C3284 0.949 . S
C3279 H3274 0.950 . S
C3279 C3281 1.327 . S
C3279 C3285 1.429 . S
C3280 C3272 1.574 . S
C3280 H3275 0.949 . S
C3280 C3286 1.368 . S
C3281 C3265 1.349 . S
C3281 H3273 0.950 . S
C3281 C3279 1.327 . S
C3282 C3270 1.349 . S
C3282 H3276 0.950 . S
C3282 C3283 1.327 . S
C3283 H3277 0.950 . S
C3283 C3282 1.327 . S
C3283 C3287 1.429 . S
C3284 C3267 1.574 . S
C3284 H3278 0.949 . S
C3284 C3288 1.368 . S
C3285 C3266 1.429 . S
C3285 C3279 1.429 . S
C3285 C3286 1.523 . S
C3286 C3267 1.368 . S
C3286 C3280 1.368 . S
C3286 C3285 1.523 . S
C3287 C3271 1.429 . S
C3287 C3283 1.429 . S
C3287 C3288 1.523 . S
C3288 C3272 1.368 . S
C3288 C3284 1.368 . S
C3288 C3287 1.523 . S
H3289 C3264 0.950 . S
H3290 C3266 0.950 . S
H3291 C3267 0.949 . S
H3292 C3269 0.950 . S
H3293 C3271 0.950 . S
C3294 C3295 1.349 . S
C3294 C3296 1.327 . S
C3294 H3319 0.950 . S
C3295 C3294 1.349 . S
C3295 C3311 1.349 . S
C3296 C3294 1.327 . S
C3296 C3315 1.429 . S
C3296 H3320 0.950 . S
C3297 C3314 1.574 . S
C3297 C3316 1.368 . S
C3297 H3321 0.949 . S
H3298 C3302 0.949 . S
C3299 C3300 1.349 . S
C3299 C3301 1.327 . S
C3299 H3322 0.950 . S
C3300 C3299 1.349 . S
C3300 C3312 1.349 . S
C3301 C3299 1.327 . S
C3301 C3317 1.429 . S
C3301 H3323 0.950 . S
C3302 H3298 0.949 . S
C3302 C3310 1.574 . S
C3302 C3318 1.368 . S
H3303 C3311 0.950 . S
H3304 C3309 0.950 . S
H3305 C3310 0.949 . S
H3306 C3312 0.950 . S
H3307 C3313 0.950 . S
H3308 C3314 0.949 . S
C3309 H3304 0.950 . S
C3309 C3311 1.327 . S
C3309 C3315 1.429 . S
C3310 C3302 1.574 . S
C3310 H3305 0.949 . S
C3310 C3316 1.368 . S
C3311 C3295 1.349 . S
C3311 H3303 0.950 . S
C3311 C3309 1.327 . S
C3312 C3300 1.349 . S
C3312 H3306 0.950 . S
C3312 C3313 1.327 . S
C3313 H3307 0.950 . S
C3313 C3312 1.327 . S
C3313 C3317 1.429 . S
C3314 C3297 1.574 . S
C3314 H3308 0.949 . S
C3314 C3318 1.368 . S
C3315 C3296 1.429 . S
C3315 C3309 1.429 . S
C3315 C3316 1.523 . S
C3316 C3297 1.368 . S
C3316 C3310 1.368 . S
C3316 C3315 1.523 . S
C3317 C3301 1.429 . S
C3317 C3313 1.429 . S
C3317 C3318 1.523 . S
C3318 C3302 1.368 . S
C3318 C3314 1.368 . S
C3318 C3317 1.523 . S
H3319 C3294 0.950 . S
H3320 C3296 0.950 . S
H3321 C3297 0.949 . S
H3322 C3299 0.950 . S
H3323 C3301 0.950 . S
C3324 C3325 1.349 . S
C3324 C3326 1.327 . S
C3324 H3349 0.950 . S
C3325 C3324 1.349 . S
C3325 C3341 1.349 . S
C3326 C3324 1.327 . S
C3326 C3345 1.429 . S
C3326 H3350 0.950 . S
C3327 C3344 1.574 . S
C3327 C3346 1.368 . S
C3327 H3351 0.949 . S
H3328 C3332 0.949 . S
C3329 C3330 1.349 . S
C3329 C3331 1.327 . S
C3329 H3352 0.950 . S
C3330 C3329 1.349 . S
C3330 C3342 1.349 . S
C3331 C3329 1.327 . S
C3331 C3347 1.429 . S
C3331 H3353 0.950 . S
C3332 H3328 0.949 . S
C3332 C3340 1.574 . S
C3332 C3348 1.368 . S
H3333 C3341 0.950 . S
H3334 C3339 0.950 . S
H3335 C3340 0.949 . S
H3336 C3342 0.950 . S
H3337 C3343 0.950 . S
H3338 C3344 0.949 . S
C3339 H3334 0.950 . S
C3339 C3341 1.327 . S
C3339 C3345 1.429 . S
C3340 C3332 1.574 . S
C3340 H3335 0.949 . S
C3340 C3346 1.368 . S
C3341 C3325 1.349 . S
C3341 H3333 0.950 . S
C3341 C3339 1.327 . S
C3342 C3330 1.349 . S
C3342 H3336 0.950 . S
C3342 C3343 1.327 . S
C3343 H3337 0.950 . S
C3343 C3342 1.327 . S
C3343 C3347 1.429 . S
C3344 C3327 1.574 . S
C3344 H3338 0.949 . S
C3344 C3348 1.368 . S
C3345 C3326 1.429 . S
C3345 C3339 1.429 . S
C3345 C3346 1.523 . S
C3346 C3327 1.368 . S
C3346 C3340 1.368 . S
C3346 C3345 1.523 . S
C3347 C3331 1.429 . S
C3347 C3343 1.429 . S
C3347 C3348 1.523 1_545 S
C3348 C3332 1.368 . S
C3348 C3344 1.368 . S
C3348 C3347 1.523 1_565 S
H3349 C3324 0.950 . S
H3350 C3326 0.950 . S
H3351 C3327 0.949 . S
H3352 C3329 0.950 . S
H3353 C3331 0.950 . S
C3354 C3355 1.349 . S
C3354 C3356 1.327 . S
C3354 H3379 0.950 . S
C3355 C3354 1.349 . S
C3355 C3371 1.349 . S
C3356 C3354 1.327 . S
C3356 C3375 1.429 . S
C3356 H3380 0.950 . S
C3357 C3374 1.574 . S
C3357 C3376 1.368 . S
C3357 H3381 0.949 . S
H3358 C3362 0.949 . S
C3359 C3360 1.349 . S
C3359 C3361 1.327 . S
C3359 H3382 0.950 . S
C3360 C3359 1.349 . S
C3360 C3372 1.349 . S
C3361 C3359 1.327 . S
C3361 C3377 1.429 . S
C3361 H3383 0.950 . S
C3362 H3358 0.949 . S
C3362 C3370 1.574 . S
C3362 C3378 1.368 . S
H3363 C3371 0.950 . S
H3364 C3369 0.950 . S
H3365 C3370 0.949 . S
H3366 C3372 0.950 . S
H3367 C3373 0.950 . S
H3368 C3374 0.949 . S
C3369 H3364 0.950 . S
C3369 C3371 1.327 . S
C3369 C3375 1.429 . S
C3370 C3362 1.574 . S
C3370 H3365 0.949 . S
C3370 C3376 1.368 . S
C3371 C3355 1.349 . S
C3371 H3363 0.950 . S
C3371 C3369 1.327 . S
C3372 C3360 1.349 . S
C3372 H3366 0.950 . S
C3372 C3373 1.327 . S
C3373 H3367 0.950 . S
C3373 C3372 1.327 . S
C3373 C3377 1.429 . S
C3374 C3357 1.574 . S
C3374 H3368 0.949 . S
C3374 C3378 1.368 . S
C3375 C3356 1.429 . S
C3375 C3369 1.429 . S
C3375 C3376 1.523 . S
C3376 C3357 1.368 . S
C3376 C3370 1.368 . S
C3376 C3375 1.523 . S
C3377 C3361 1.429 . S
C3377 C3373 1.429 . S
C3377 C3378 1.523 . S
C3378 C3362 1.368 . S
C3378 C3374 1.368 . S
C3378 C3377 1.523 . S
H3379 C3354 0.950 . S
H3380 C3356 0.950 . S
H3381 C3357 0.949 . S
H3382 C3359 0.950 . S
H3383 C3361 0.950 . S
C3384 C3385 1.349 . S
C3384 C3386 1.327 . S
C3384 H3409 0.950 . S
C3385 C3384 1.349 . S
C3385 C3401 1.349 . S
C3386 C3384 1.327 . S
C3386 C3405 1.429 . S
C3386 H3410 0.950 . S
C3387 C3404 1.574 . S
C3387 C3406 1.368 . S
C3387 H3411 0.949 . S
H3388 C3392 0.949 . S
C3389 C3390 1.349 . S
C3389 C3391 1.327 . S
C3389 H3412 0.950 . S
C3390 C3389 1.349 . S
C3390 C3402 1.349 . S
C3391 C3389 1.327 . S
C3391 C3407 1.429 . S
C3391 H3413 0.950 . S
C3392 H3388 0.949 . S
C3392 C3400 1.574 . S
C3392 C3408 1.368 . S
H3393 C3401 0.950 . S
H3394 C3399 0.950 . S
H3395 C3400 0.949 . S
H3396 C3402 0.950 . S
H3397 C3403 0.950 . S
H3398 C3404 0.949 . S
C3399 H3394 0.950 . S
C3399 C3401 1.327 . S
C3399 C3405 1.429 . S
C3400 C3392 1.574 . S
C3400 H3395 0.949 . S
C3400 C3406 1.368 . S
C3401 C3385 1.349 . S
C3401 H3393 0.950 . S
C3401 C3399 1.327 . S
C3402 C3390 1.349 . S
C3402 H3396 0.950 . S
C3402 C3403 1.327 . S
C3403 H3397 0.950 . S
C3403 C3402 1.327 . S
C3403 C3407 1.429 . S
C3404 C3387 1.574 . S
C3404 H3398 0.949 . S
C3404 C3408 1.368 . S
C3405 C3386 1.429 . S
C3405 C3399 1.429 . S
C3405 C3406 1.523 . S
C3406 C3387 1.368 . S
C3406 C3400 1.368 . S
C3406 C3405 1.523 . S
C3407 C3391 1.429 . S
C3407 C3403 1.429 . S
C3407 C3408 1.523 . S
C3408 C3392 1.368 . S
C3408 C3404 1.368 . S
C3408 C3407 1.523 . S
H3409 C3384 0.950 . S
H3410 C3386 0.950 . S
H3411 C3387 0.949 . S
H3412 C3389 0.950 . S
H3413 C3391 0.950 . S
C3414 C3415 1.349 . S
C3414 C3416 1.327 . S
C3414 H3439 0.950 . S
C3415 C3414 1.349 . S
C3415 C3431 1.349 . S
C3416 C3414 1.327 . S
C3416 C3435 1.429 . S
C3416 H3440 0.950 . S
C3417 C3434 1.574 . S
C3417 C3436 1.368 . S
C3417 H3441 0.949 . S
H3418 C3422 0.949 . S
C3419 C3420 1.349 . S
C3419 C3421 1.327 . S
C3419 H3442 0.950 . S
C3420 C3419 1.349 . S
C3420 C3432 1.349 . S
C3421 C3419 1.327 . S
C3421 C3437 1.429 . S
C3421 H3443 0.950 . S
C3422 H3418 0.949 . S
C3422 C3430 1.574 . S
C3422 C3438 1.368 . S
H3423 C3431 0.950 . S
H3424 C3429 0.950 . S
H3425 C3430 0.949 . S
H3426 C3432 0.950 . S
H3427 C3433 0.950 . S
H3428 C3434 0.949 . S
C3429 H3424 0.950 . S
C3429 C3431 1.327 . S
C3429 C3435 1.429 . S
C3430 C3422 1.574 . S
C3430 H3425 0.949 . S
C3430 C3436 1.368 . S
C3431 C3415 1.349 . S
C3431 H3423 0.950 . S
C3431 C3429 1.327 . S
C3432 C3420 1.349 . S
C3432 H3426 0.950 . S
C3432 C3433 1.327 . S
C3433 H3427 0.950 . S
C3433 C3432 1.327 . S
C3433 C3437 1.429 . S
C3434 C3417 1.574 . S
C3434 H3428 0.949 . S
C3434 C3438 1.368 . S
C3435 C3416 1.429 . S
C3435 C3429 1.429 . S
C3435 C3436 1.523 . S
C3436 C3417 1.368 . S
C3436 C3430 1.368 . S
C3436 C3435 1.523 . S
C3437 C3421 1.429 . S
C3437 C3433 1.429 . S
C3437 C3438 1.523 . S
C3438 C3422 1.368 . S
C3438 C3434 1.368 . S
C3438 C3437 1.523 . S
H3439 C3414 0.950 . S
H3440 C3416 0.950 . S
H3441 C3417 0.949 . S
H3442 C3419 0.950 . S
H3443 C3421 0.950 . S
C3444 C3445 1.349 . S
C3444 C3446 1.327 . S
C3444 H3469 0.950 . S
C3445 C3444 1.349 . S
C3445 C3461 1.349 . S
C3446 C3444 1.327 . S
C3446 C3465 1.429 . S
C3446 H3470 0.950 . S
C3447 C3464 1.574 . S
C3447 C3466 1.368 . S
C3447 H3471 0.965 . S
H3448 C3452 0.949 . S
C3449 C3450 1.349 . S
C3449 C3451 1.327 . S
C3449 H3472 0.950 . S
C3450 C3449 1.349 . S
C3450 C3462 1.349 . S
C3451 C3449 1.327 . S
C3451 C3467 1.429 . S
C3451 H3473 0.950 . S
C3452 H3448 0.949 . S
C3452 C3460 1.574 . S
C3452 C3468 1.368 . S
H3453 C3461 0.950 . S
H3454 C3459 0.950 . S
H3455 C3460 0.949 . S
H3456 C3462 0.950 . S
H3457 C3463 0.950 . S
H3458 C3464 0.949 . S
C3459 H3454 0.950 . S
C3459 C3461 1.327 . S
C3459 C3465 1.429 . S
C3460 C3452 1.574 . S
C3460 H3455 0.949 . S
C3460 C3466 1.368 . S
C3461 C3445 1.349 . S
C3461 H3453 0.950 . S
C3461 C3459 1.327 . S
C3462 C3450 1.349 . S
C3462 H3456 0.950 . S
C3462 C3463 1.327 . S
C3463 H3457 0.950 . S
C3463 C3462 1.327 . S
C3463 C3467 1.429 . S
C3464 C3447 1.574 . S
C3464 H3458 0.949 . S
C3464 C3468 1.368 . S
C3465 C3446 1.429 . S
C3465 C3459 1.429 . S
C3465 C3466 1.523 1_565 S
C3466 C3447 1.368 . S
C3466 C3460 1.368 . S
C3466 C3465 1.523 1_545 S
C3467 C3451 1.429 . S
C3467 C3463 1.429 . S
C3467 C3468 1.523 . S
C3468 C3452 1.368 . S
C3468 C3464 1.368 . S
C3468 C3467 1.523 . S
H3469 C3444 0.950 . S
H3470 C3446 0.950 . S
H3471 C3447 0.965 . S
H3472 C3449 0.950 . S
H3473 C3451 0.950 . S
C3474 C3475 1.349 . S
C3474 C3476 1.327 . S
C3474 H3499 0.950 . S
C3475 C3474 1.349 . S
C3475 C3491 1.349 . S
C3476 C3474 1.327 . S
C3476 C3495 1.429 . S
C3476 H3500 0.950 . S
C3477 C3494 1.574 . S
C3477 C3496 1.368 . S
C3477 H3501 0.949 . S
H3478 C3482 0.949 . S
C3479 C3480 1.349 . S
C3479 C3481 1.327 . S
C3479 H3502 0.950 . S
C3480 C3479 1.349 . S
C3480 C3492 1.349 . S
C3481 C3479 1.327 . S
C3481 C3497 1.429 . S
C3481 H3503 0.950 . S
C3482 H3478 0.949 . S
C3482 C3490 1.574 . S
C3482 C3498 1.368 . S
H3483 C3491 0.950 . S
H3484 C3489 0.950 . S
H3485 C3490 0.949 . S
H3486 C3492 0.950 . S
H3487 C3493 0.950 . S
H3488 C3494 0.949 . S
C3489 H3484 0.950 . S
C3489 C3491 1.327 . S
C3489 C3495 1.429 . S
C3490 C3482 1.574 . S
C3490 H3485 0.949 . S
C3490 C3496 1.368 . S
C3491 C3475 1.349 . S
C3491 H3483 0.950 . S
C3491 C3489 1.327 . S
C3492 C3480 1.349 . S
C3492 H3486 0.950 . S
C3492 C3493 1.327 . S
C3493 H3487 0.950 . S
C3493 C3492 1.327 . S
C3493 C3497 1.429 . S
C3494 C3477 1.574 . S
C3494 H3488 0.949 . S
C3494 C3498 1.368 . S
C3495 C3476 1.429 . S
C3495 C3489 1.429 . S
C3495 C3496 1.523 . S
C3496 C3477 1.368 . S
C3496 C3490 1.368 . S
C3496 C3495 1.523 . S
C3497 C3481 1.429 . S
C3497 C3493 1.429 . S
C3497 C3498 1.523 1_545 S
C3498 C3482 1.368 . S
C3498 C3494 1.368 . S
C3498 C3497 1.523 1_565 S
H3499 C3474 0.950 . S
H3500 C3476 0.950 . S
H3501 C3477 0.949 . S
H3502 C3479 0.950 . S
H3503 C3481 0.950 . S
C625 C554 1.018 . S
C630 C0 1.029 . S
C655 C18 1.164 . S
C660 C200 1.124 . S
C685 C26 1.051 . S
C690 C528 1.039 . S
C715 C44 1.180 . S
C720 C226 1.138 . S
C745 C580 1.047 . S
C750 C57 1.051 . S
C775 C65 1.159 . S
C780 C273 1.134 . S
C805 C83 1.044 . S
C810 C606 1.041 . S
C835 C91 1.161 . S
C840 C247 1.135 . S
C865 C39 1.060 . S
C870 C621 1.073 . S
C895 C5 1.095 . S
C900 C333 1.090 . S
C925 C348 1.058 . S
C930 C13 1.045 . S
C955 C31 1.082 . S
C960 C320 1.077 . S
C985 C70 1.117 . S
C990 C322 1.136 . S
C1015 C78 1.004 . S
C1020 C619 0.994 . S
C1045 C96 1.133 . S
C1050 C335 1.154 . S
C1075 C52 1.004 . S
C1080 C346 0.996 . S
C1105 C507 1.106 . S
C1110 C104 1.126 . S
C1135 C122 1.184 . S
C1140 C252 1.135 . S
C1165 C109 1.134 . S
C1170 C582 1.156 . S
C1195 C278 1.166 . S
C1200 C135 1.217 . S
C1225 C296 1.109 . S
C1230 C143 1.095 . S
C1255 C533 1.134 . S
C1260 C161 1.149 . S
C1285 C556 1.049 . S
C1290 C169 1.038 . S
C1315 C530 1.132 . S
C1320 C187 1.114 . S
C1345 C439 1.129 . S
C1350 C205 1.126 . S
C1375 C208 1.087 . S
C1380 C8 1.080 . S
C1405 C231 1.135 . S
C1410 C413 1.139 . S
C1435 C34 1.057 . S
C1440 C234 1.065 . S
C1465 C255 1.107 . S
C1470 C463 1.093 . S
C1495 C88 1.126 . S
C1500 C260 1.113 . S
C1525 C281 1.136 . S
C1530 C489 1.122 . S
C1555 C62 1.120 . S
C1560 C286 1.106 . S
C1585 C504 1.138 . S
C1590 C239 1.119 . S
C1615 C203 1.092 . S
C1620 C140 1.104 . S
C1645 C151 1.116 . S
C1650 C213 1.122 . S
C1675 C127 1.116 . S
C1680 C229 1.103 . S
C1705 C125 1.105 . S
C1710 C265 1.117 . S
C1735 C283 1.168 . S
C1740 C502 1.141 . S
C1765 C138 1.098 . S
C1770 C291 1.106 . S
C1795 C257 1.165 . S
C1800 C153 1.166 . S
C1825 C299 1.083 . S
C1830 C400 1.096 . S
C1855 C312 1.101 . S
C1860 C60 1.089 . S
C1885 C304 1.084 . S
C1890 C465 1.102 . S
C1915 C325 1.113 . S
C1920 C86 1.099 . S
C1945 C343 1.104 . S
C1950 C101 1.124 . S
C1975 C426 1.075 . S
C1980 C351 1.062 . S
C2005 C369 1.141 . S
C2010 C437 1.134 . S
C2035 C382 1.130 . S
C2040 C411 1.119 . S
C2065 C390 1.039 . S
C2070 C242 1.028 . S
C2095 C408 1.147 . S
C2100 C512 1.107 . S
C2125 C216 1.015 . S
C2130 C416 1.025 . S
C2155 C434 1.188 . S
C2160 C538 1.146 . S
C2185 C447 1.059 . S
C2190 C268 1.056 . S
C2215 C585 1.111 . S
C2220 C455 1.134 . S
C2245 C473 1.025 . S
C2250 C294 1.023 . S
C2275 C559 1.143 . S
C2280 C481 1.169 . S
C2305 C309 1.074 . S
C2310 C429 1.060 . S
C2335 C385 1.082 . S
C2340 C395 1.086 . S
C2365 C403 1.051 . S
C2370 C361 1.064 . S
C2395 C372 1.070 . S
C2400 C421 1.076 . S
C2425 C460 1.113 . S
C2430 C374 1.131 . S
C2455 C307 1.000 . S
C2460 C468 1.010 . S
C2485 C486 1.125 . S
C2490 C387 1.146 . S
C2515 C442 1.004 . S
C2520 C359 0.996 . S
C2545 C494 1.106 . S
C2550 C195 1.088 . S
C2575 C174 1.190 . S
C2580 C564 1.142 . S
C2605 C270 1.165 . S
C2610 C499 1.142 . S
C2635 C590 1.118 . S
C2640 C182 1.168 . S
C2665 C608 1.089 . S
C2670 C156 1.076 . S
C2695 C148 1.141 . S
C2700 C221 1.126 . S
C2725 C117 1.046 . S
C2730 C244 1.057 . S
C2755 C218 1.081 . S
C2760 C130 1.069 . S
C2785 C517 1.153 . S
C2790 C49 1.156 . S
C2815 C398 1.089 . S
C2820 C520 1.098 . S
C2845 C543 1.132 . S
C2850 C23 1.136 . S
C2875 C546 1.060 . S
C2880 C424 1.052 . S
C2905 C73 1.098 . S
C2910 C567 1.112 . S
C2935 C572 1.117 . S
C2940 C478 1.130 . S
C2965 C593 1.126 . S
C2970 C99 1.114 . S
C2995 C452 1.093 . S
C3000 C598 1.080 . S
C3025 C551 1.118 . S
C3030 C114 1.137 . S
C3055 C190 1.080 . S
C3060 C515 1.096 . S
C3085 C164 1.125 . S
C3090 C525 1.134 . S
C3115 C541 1.101 . S
C3120 C179 1.113 . S
C3145 C577 1.120 . S
C3150 C177 1.109 . S
C3175 C112 1.133 . S
C3180 C595 1.159 . S
C3205 C192 1.120 . S
C3210 C603 1.102 . S
C3235 C569 1.167 . S
C3240 C166 1.168 . S
C3265 C10 1.099 . S
C3270 C611 1.086 . S
C3295 C364 1.089 . S
C3300 C450 1.078 . S
C3325 C75 1.111 . S
C3330 C616 1.092 . S
C3355 C476 1.080 . S
C3360 C377 1.094 . S
C3385 C491 1.120 . S
C3390 C356 1.101 . S
C3415 C338 1.070 . S
C3420 C36 1.084 . S
C3445 C317 1.153 . S
C3450 C47 1.144 . S
C3475 C21 1.138 . S
C3480 C330 1.148 . S
