# Generated by pormake.
# Topology ukr, (4)-cn, num edge types: 1
# Building blocks:
#     Node 0, Type 0, BuildingBlock: TATPOV_clean_sbu_0, # of connection points: 4
#     Node 1, Type 0, BuildingBlock: TATPOV_clean_sbu_0, # of connection points: 4
#     Node 2, Type 0, BuildingBlock: TATPOV_clean_sbu_0, # of connection points: 4
#     Node 3, Type 0, BuildingBlock: TATPOV_clean_sbu_0, # of connection points: 4
#     Node 4, Type 0, BuildingBlock: TATPOV_clean_sbu_0, # of connection points: 4
#     Node 5, Type 0, BuildingBlock: TATPOV_clean_sbu_0, # of connection points: 4
#     Node 6, Type 0, BuildingBlock: TATPOV_clean_sbu_0, # of connection points: 4
#     Node 7, Type 0, BuildingBlock: TATPOV_clean_sbu_0, # of connection points: 4
#     Node 8, Type 0, BuildingBlock: TATPOV_clean_sbu_0, # of connection points: 4
#     Node 9, Type 0, BuildingBlock: TATPOV_clean_sbu_0, # of connection points: 4
#     Node 10, Type 0, BuildingBlock: TATPOV_clean_sbu_0, # of connection points: 4
#     Node 11, Type 0, BuildingBlock: TATPOV_clean_sbu_0, # of connection points: 4
#     Node 12, Type 0, BuildingBlock: TATPOV_clean_sbu_0, # of connection points: 4
#     Node 13, Type 0, BuildingBlock: TATPOV_clean_sbu_0, # of connection points: 4
#     Node 14, Type 0, BuildingBlock: TATPOV_clean_sbu_0, # of connection points: 4
#     Node 15, Type 0, BuildingBlock: TATPOV_clean_sbu_0, # of connection points: 4
#     Node 16, Type 0, BuildingBlock: TATPOV_clean_sbu_0, # of connection points: 4
#     Node 17, Type 0, BuildingBlock: TATPOV_clean_sbu_0, # of connection points: 4
#     Node 18, Type 0, BuildingBlock: TATPOV_clean_sbu_0, # of connection points: 4
#     Node 19, Type 0, BuildingBlock: TATPOV_clean_sbu_0, # of connection points: 4
#     Node 20, Type 0, BuildingBlock: TATPOV_clean_sbu_0, # of connection points: 4
#     Node 21, Type 0, BuildingBlock: TATPOV_clean_sbu_0, # of connection points: 4
#     Node 22, Type 0, BuildingBlock: TATPOV_clean_sbu_0, # of connection points: 4
#     Node 23, Type 0, BuildingBlock: TATPOV_clean_sbu_0, # of connection points: 4
#     Node 24, Type 0, BuildingBlock: TATPOV_clean_sbu_0, # of connection points: 4
#     Node 25, Type 0, BuildingBlock: TATPOV_clean_sbu_0, # of connection points: 4
#     Node 26, Type 0, BuildingBlock: TATPOV_clean_sbu_0, # of connection points: 4
#     Node 27, Type 0, BuildingBlock: TATPOV_clean_sbu_0, # of connection points: 4
#     Node 28, Type 0, BuildingBlock: TATPOV_clean_sbu_0, # of connection points: 4
#     Node 29, Type 0, BuildingBlock: TATPOV_clean_sbu_0, # of connection points: 4
#     Node 30, Type 0, BuildingBlock: TATPOV_clean_sbu_0, # of connection points: 4
#     Node 31, Type 0, BuildingBlock: TATPOV_clean_sbu_0, # of connection points: 4
#     Node 32, Type 0, BuildingBlock: TATPOV_clean_sbu_0, # of connection points: 4
#     Node 33, Type 0, BuildingBlock: TATPOV_clean_sbu_0, # of connection points: 4
#     Node 34, Type 0, BuildingBlock: TATPOV_clean_sbu_0, # of connection points: 4
#     Node 35, Type 0, BuildingBlock: TATPOV_clean_sbu_0, # of connection points: 4
#     Node 36, Type 0, BuildingBlock: TATPOV_clean_sbu_0, # of connection points: 4
#     Node 37, Type 0, BuildingBlock: TATPOV_clean_sbu_0, # of connection points: 4
#     Node 38, Type 0, BuildingBlock: TATPOV_clean_sbu_0, # of connection points: 4
#     Node 39, Type 0, BuildingBlock: TATPOV_clean_sbu_0, # of connection points: 4
#     Node 40, Type 0, BuildingBlock: TATPOV_clean_sbu_0, # of connection points: 4
#     Node 41, Type 0, BuildingBlock: TATPOV_clean_sbu_0, # of connection points: 4
#     Node 42, Type 0, BuildingBlock: TATPOV_clean_sbu_0, # of connection points: 4
#     Node 43, Type 0, BuildingBlock: TATPOV_clean_sbu_0, # of connection points: 4
#     Node 44, Type 0, BuildingBlock: TATPOV_clean_sbu_0, # of connection points: 4
#     Node 45, Type 0, BuildingBlock: TATPOV_clean_sbu_0, # of connection points: 4
#     Node 46, Type 0, BuildingBlock: TATPOV_clean_sbu_0, # of connection points: 4
#     Node 47, Type 0, BuildingBlock: TATPOV_clean_sbu_0, # of connection points: 4
#     Edge 48, Type (0, 0), BuildingBlock: XIVTED_clean_linker_0, # of connection points: 2
#     Edge 49, Type (0, 0), BuildingBlock: XIVTED_clean_linker_0, # of connection points: 2
#     Edge 50, Type (0, 0), BuildingBlock: XIVTED_clean_linker_0, # of connection points: 2
#     Edge 51, Type (0, 0), BuildingBlock: XIVTED_clean_linker_0, # of connection points: 2
#     Edge 52, Type (0, 0), BuildingBlock: XIVTED_clean_linker_0, # of connection points: 2
#     Edge 53, Type (0, 0), BuildingBlock: XIVTED_clean_linker_0, # of connection points: 2
#     Edge 54, Type (0, 0), BuildingBlock: XIVTED_clean_linker_0, # of connection points: 2
#     Edge 55, Type (0, 0), BuildingBlock: XIVTED_clean_linker_0, # of connection points: 2
#     Edge 56, Type (0, 0), BuildingBlock: XIVTED_clean_linker_0, # of connection points: 2
#     Edge 57, Type (0, 0), BuildingBlock: XIVTED_clean_linker_0, # of connection points: 2
#     Edge 58, Type (0, 0), BuildingBlock: XIVTED_clean_linker_0, # of connection points: 2
#     Edge 59, Type (0, 0), BuildingBlock: XIVTED_clean_linker_0, # of connection points: 2
#     Edge 60, Type (0, 0), BuildingBlock: XIVTED_clean_linker_0, # of connection points: 2
#     Edge 61, Type (0, 0), BuildingBlock: XIVTED_clean_linker_0, # of connection points: 2
#     Edge 62, Type (0, 0), BuildingBlock: XIVTED_clean_linker_0, # of connection points: 2
#     Edge 63, Type (0, 0), BuildingBlock: XIVTED_clean_linker_0, # of connection points: 2
#     Edge 64, Type (0, 0), BuildingBlock: XIVTED_clean_linker_0, # of connection points: 2
#     Edge 65, Type (0, 0), BuildingBlock: XIVTED_clean_linker_0, # of connection points: 2
#     Edge 66, Type (0, 0), BuildingBlock: XIVTED_clean_linker_0, # of connection points: 2
#     Edge 67, Type (0, 0), BuildingBlock: XIVTED_clean_linker_0, # of connection points: 2
#     Edge 68, Type (0, 0), BuildingBlock: XIVTED_clean_linker_0, # of connection points: 2
#     Edge 69, Type (0, 0), BuildingBlock: XIVTED_clean_linker_0, # of connection points: 2
#     Edge 70, Type (0, 0), BuildingBlock: XIVTED_clean_linker_0, # of connection points: 2
#     Edge 71, Type (0, 0), BuildingBlock: XIVTED_clean_linker_0, # of connection points: 2
#     Edge 72, Type (0, 0), BuildingBlock: XIVTED_clean_linker_0, # of connection points: 2
#     Edge 73, Type (0, 0), BuildingBlock: XIVTED_clean_linker_0, # of connection points: 2
#     Edge 74, Type (0, 0), BuildingBlock: XIVTED_clean_linker_0, # of connection points: 2
#     Edge 75, Type (0, 0), BuildingBlock: XIVTED_clean_linker_0, # of connection points: 2
#     Edge 76, Type (0, 0), BuildingBlock: XIVTED_clean_linker_0, # of connection points: 2
#     Edge 77, Type (0, 0), BuildingBlock: XIVTED_clean_linker_0, # of connection points: 2
#     Edge 78, Type (0, 0), BuildingBlock: XIVTED_clean_linker_0, # of connection points: 2
#     Edge 79, Type (0, 0), BuildingBlock: XIVTED_clean_linker_0, # of connection points: 2
#     Edge 80, Type (0, 0), BuildingBlock: XIVTED_clean_linker_0, # of connection points: 2
#     Edge 81, Type (0, 0), BuildingBlock: XIVTED_clean_linker_0, # of connection points: 2
#     Edge 82, Type (0, 0), BuildingBlock: XIVTED_clean_linker_0, # of connection points: 2
#     Edge 83, Type (0, 0), BuildingBlock: XIVTED_clean_linker_0, # of connection points: 2
#     Edge 84, Type (0, 0), BuildingBlock: XIVTED_clean_linker_0, # of connection points: 2
#     Edge 85, Type (0, 0), BuildingBlock: XIVTED_clean_linker_0, # of connection points: 2
#     Edge 86, Type (0, 0), BuildingBlock: XIVTED_clean_linker_0, # of connection points: 2
#     Edge 87, Type (0, 0), BuildingBlock: XIVTED_clean_linker_0, # of connection points: 2
#     Edge 88, Type (0, 0), BuildingBlock: XIVTED_clean_linker_0, # of connection points: 2
#     Edge 89, Type (0, 0), BuildingBlock: XIVTED_clean_linker_0, # of connection points: 2
#     Edge 90, Type (0, 0), BuildingBlock: XIVTED_clean_linker_0, # of connection points: 2
#     Edge 91, Type (0, 0), BuildingBlock: XIVTED_clean_linker_0, # of connection points: 2
#     Edge 92, Type (0, 0), BuildingBlock: XIVTED_clean_linker_0, # of connection points: 2
#     Edge 93, Type (0, 0), BuildingBlock: XIVTED_clean_linker_0, # of connection points: 2
#     Edge 94, Type (0, 0), BuildingBlock: XIVTED_clean_linker_0, # of connection points: 2
#     Edge 95, Type (0, 0), BuildingBlock: XIVTED_clean_linker_0, # of connection points: 2
#     Edge 96, Type (0, 0), BuildingBlock: XIVTED_clean_linker_0, # of connection points: 2
#     Edge 97, Type (0, 0), BuildingBlock: XIVTED_clean_linker_0, # of connection points: 2
#     Edge 98, Type (0, 0), BuildingBlock: XIVTED_clean_linker_0, # of connection points: 2
#     Edge 99, Type (0, 0), BuildingBlock: XIVTED_clean_linker_0, # of connection points: 2
#     Edge 100, Type (0, 0), BuildingBlock: XIVTED_clean_linker_0, # of connection points: 2
#     Edge 101, Type (0, 0), BuildingBlock: XIVTED_clean_linker_0, # of connection points: 2
#     Edge 102, Type (0, 0), BuildingBlock: XIVTED_clean_linker_0, # of connection points: 2
#     Edge 103, Type (0, 0), BuildingBlock: XIVTED_clean_linker_0, # of connection points: 2
#     Edge 104, Type (0, 0), BuildingBlock: XIVTED_clean_linker_0, # of connection points: 2
#     Edge 105, Type (0, 0), BuildingBlock: XIVTED_clean_linker_0, # of connection points: 2
#     Edge 106, Type (0, 0), BuildingBlock: XIVTED_clean_linker_0, # of connection points: 2
#     Edge 107, Type (0, 0), BuildingBlock: XIVTED_clean_linker_0, # of connection points: 2
#     Edge 108, Type (0, 0), BuildingBlock: XIVTED_clean_linker_0, # of connection points: 2
#     Edge 109, Type (0, 0), BuildingBlock: XIVTED_clean_linker_0, # of connection points: 2
#     Edge 110, Type (0, 0), BuildingBlock: XIVTED_clean_linker_0, # of connection points: 2
#     Edge 111, Type (0, 0), BuildingBlock: XIVTED_clean_linker_0, # of connection points: 2
#     Edge 112, Type (0, 0), BuildingBlock: XIVTED_clean_linker_0, # of connection points: 2
#     Edge 113, Type (0, 0), BuildingBlock: XIVTED_clean_linker_0, # of connection points: 2
#     Edge 114, Type (0, 0), BuildingBlock: XIVTED_clean_linker_0, # of connection points: 2
#     Edge 115, Type (0, 0), BuildingBlock: XIVTED_clean_linker_0, # of connection points: 2
#     Edge 116, Type (0, 0), BuildingBlock: XIVTED_clean_linker_0, # of connection points: 2
#     Edge 117, Type (0, 0), BuildingBlock: XIVTED_clean_linker_0, # of connection points: 2
#     Edge 118, Type (0, 0), BuildingBlock: XIVTED_clean_linker_0, # of connection points: 2
#     Edge 119, Type (0, 0), BuildingBlock: XIVTED_clean_linker_0, # of connection points: 2
#     Edge 120, Type (0, 0), BuildingBlock: XIVTED_clean_linker_0, # of connection points: 2
#     Edge 121, Type (0, 0), BuildingBlock: XIVTED_clean_linker_0, # of connection points: 2
#     Edge 122, Type (0, 0), BuildingBlock: XIVTED_clean_linker_0, # of connection points: 2
#     Edge 123, Type (0, 0), BuildingBlock: XIVTED_clean_linker_0, # of connection points: 2
#     Edge 124, Type (0, 0), BuildingBlock: XIVTED_clean_linker_0, # of connection points: 2
#     Edge 125, Type (0, 0), BuildingBlock: XIVTED_clean_linker_0, # of connection points: 2
#     Edge 126, Type (0, 0), BuildingBlock: XIVTED_clean_linker_0, # of connection points: 2
#     Edge 127, Type (0, 0), BuildingBlock: XIVTED_clean_linker_0, # of connection points: 2
#     Edge 128, Type (0, 0), BuildingBlock: XIVTED_clean_linker_0, # of connection points: 2
#     Edge 129, Type (0, 0), BuildingBlock: XIVTED_clean_linker_0, # of connection points: 2
#     Edge 130, Type (0, 0), BuildingBlock: XIVTED_clean_linker_0, # of connection points: 2
#     Edge 131, Type (0, 0), BuildingBlock: XIVTED_clean_linker_0, # of connection points: 2
#     Edge 132, Type (0, 0), BuildingBlock: XIVTED_clean_linker_0, # of connection points: 2
#     Edge 133, Type (0, 0), BuildingBlock: XIVTED_clean_linker_0, # of connection points: 2
#     Edge 134, Type (0, 0), BuildingBlock: XIVTED_clean_linker_0, # of connection points: 2
#     Edge 135, Type (0, 0), BuildingBlock: XIVTED_clean_linker_0, # of connection points: 2
#     Edge 136, Type (0, 0), BuildingBlock: XIVTED_clean_linker_0, # of connection points: 2
#     Edge 137, Type (0, 0), BuildingBlock: XIVTED_clean_linker_0, # of connection points: 2
#     Edge 138, Type (0, 0), BuildingBlock: XIVTED_clean_linker_0, # of connection points: 2
#     Edge 139, Type (0, 0), BuildingBlock: XIVTED_clean_linker_0, # of connection points: 2
#     Edge 140, Type (0, 0), BuildingBlock: XIVTED_clean_linker_0, # of connection points: 2
#     Edge 141, Type (0, 0), BuildingBlock: XIVTED_clean_linker_0, # of connection points: 2
#     Edge 142, Type (0, 0), BuildingBlock: XIVTED_clean_linker_0, # of connection points: 2
#     Edge 143, Type (0, 0), BuildingBlock: XIVTED_clean_linker_0, # of connection points: 2
# Relax obj value: 0.368
# Max RMSD: 0.165
# Mean RMSD: 0.165
data_MOF--net-ukr--node1-TATPOV_clean_sbu_0--edge1-XIVTED_clean_linker_0
_symmetry_space_group_name_H-M    P1
_symmetry_Int_Tables_number       1
_symmetry_cell_setting            triclinic
loop_
_symmetry_equiv_pos_as_xyz
'x, y, z'
_cell_length_a     68.52983
_cell_length_b     68.338
_cell_length_c     68.431475
_cell_angle_alpha  89.979908
_cell_angle_beta   90.013665
_cell_angle_gamma 89.986381
loop_
_atom_site_label
_atom_site_type_symbol
_atom_site_fract_x
_atom_site_fract_y
_atom_site_fract_z
_atom_type_partial_charge
Zn0 Zn 0.1199 0.29168 0.25816 0.0
Zn1 Zn 0.10353 0.29167 0.22341 0.0
O2 O 0.08979 0.27005 0.23952 0.0
O3 O 0.10185 0.27133 0.2692 0.0
O4 O 0.08668 0.2924 0.19939 0.0
O5 O 0.11496 0.32033 0.26232 0.0
O6 O 0.10415 0.32066 0.23211 0.0
C7 C 0.09034 0.2636 0.257 0.0
C8 C 0.1456 0.28002 0.2254 0.0
O9 O 0.13057 0.28263 0.21474 0.0
O10 O 0.14464 0.28298 0.2437 0.0
C11 C 0.08352 0.27694 0.18957 0.0
O12 O 0.09279 0.26079 0.19433 0.0
C13 C 0.10875 0.32979 0.24769 0.0
Zn14 Zn 0.19889 0.65502 0.67615 0.0
Zn15 Zn 0.21254 0.62087 0.68216 0.0
O16 O 0.23498 0.6348 0.69597 0.0
O17 O 0.22301 0.66436 0.69126 0.0
O18 O 0.21797 0.59173 0.68334 0.0
O19 O 0.17375 0.65196 0.69018 0.0
O20 O 0.18721 0.62419 0.69899 0.0
C21 C 0.23627 0.65329 0.69806 0.0
C22 C 0.2095 0.6405 0.64062 0.0
O23 O 0.21504 0.62709 0.65238 0.0
O24 O 0.1997 0.65474 0.6471 0.0
C25 C 0.21719 0.58199 0.69916 0.0
O26 O 0.21348 0.5912 0.71559 0.0
C27 C 0.17343 0.6367 0.70057 0.0
Zn28 Zn 0.8605 0.75032 0.24226 0.0
Zn29 Zn 0.88043 0.7452 0.21055 0.0
O30 O 0.89143 0.76949 0.22516 0.0
O31 O 0.87656 0.77209 0.25339 0.0
O32 O 0.90222 0.73963 0.19146 0.0
O33 O 0.86327 0.72299 0.25229 0.0
O34 O 0.87597 0.71785 0.22329 0.0
C35 C 0.88904 0.77842 0.24135 0.0
C36 C 0.83975 0.75766 0.20439 0.0
O37 O 0.85582 0.75354 0.19594 0.0
O38 O 0.83853 0.75694 0.22292 0.0
C39 C 0.91139 0.75333 0.18288 0.0
O40 O 0.90474 0.77131 0.18427 0.0
C41 C 0.86971 0.71127 0.23957 0.0
Zn42 Zn 0.75743 0.3741 0.76779 0.0
Zn43 Zn 0.76069 0.39333 0.73604 0.0
O44 O 0.73842 0.40485 0.75328 0.0
O45 O 0.73784 0.3906 0.78192 0.0
O46 O 0.76534 0.41622 0.71765 0.0
O47 O 0.78558 0.37407 0.77539 0.0
O48 O 0.78866 0.38524 0.74547 0.0
C49 C 0.73091 0.40312 0.77024 0.0
C50 C 0.74534 0.35385 0.73056 0.0
O51 O 0.74948 0.3697 0.72159 0.0
O52 O 0.74767 0.35275 0.74898 0.0
C53 C 0.75091 0.4253 0.71021 0.0
O54 O 0.73333 0.41793 0.7123 0.0
C55 C 0.79635 0.37835 0.76103 0.0
Zn56 Zn 0.14652 0.7363 0.83619 0.0
Zn57 Zn 0.10893 0.7296 0.8417 0.0
O58 O 0.10934 0.75772 0.83022 0.0
O59 O 0.14074 0.76361 0.82677 0.0
O60 O 0.08031 0.72493 0.84539 0.0
O61 O 0.14807 0.71308 0.81807 0.0
O62 O 0.1166 0.7079 0.82209 0.0
C63 C 0.12319 0.76922 0.82545 0.0
C64 C 0.13782 0.72784 0.87599 0.0
O65 O 0.12035 0.72625 0.86977 0.0
O66 O 0.15157 0.73209 0.86445 0.0
C67 C 0.07049 0.73563 0.85693 0.0
O68 O 0.07944 0.74947 0.8668 0.0
C69 C 0.13288 0.70319 0.81442 0.0
Zn70 Zn 0.7454 0.61318 0.29158 0.0
Zn71 Zn 0.76121 0.57968 0.29959 0.0
O72 O 0.73649 0.57395 0.28238 0.0
O73 O 0.7214 0.60223 0.27983 0.0
O74 O 0.77027 0.55218 0.30491 0.0
O75 O 0.76904 0.61952 0.27483 0.0
O76 O 0.7839 0.59273 0.28484 0.0
C77 C 0.72192 0.58406 0.27664 0.0
C78 C 0.75134 0.60877 0.33239 0.0
O79 O 0.75825 0.59222 0.32722 0.0
O80 O 0.74479 0.62053 0.31973 0.0
C81 C 0.75839 0.54091 0.31368 0.0
O82 O 0.74168 0.54808 0.3198 0.0
C83 C 0.78405 0.60869 0.27521 0.0
Zn84 Zn 0.87088 0.23236 0.79306 0.0
Zn85 Zn 0.90696 0.24156 0.80192 0.0
O86 O 0.90875 0.21489 0.78674 0.0
O87 O 0.87814 0.20727 0.78047 0.0
O88 O 0.93531 0.24761 0.80671 0.0
O89 O 0.86765 0.25718 0.77738 0.0
O90 O 0.8968 0.26626 0.78741 0.0
C91 C 0.89608 0.20317 0.77968 0.0
C92 C 0.87764 0.23573 0.8346 0.0
O93 O 0.89504 0.23998 0.82961 0.0
O94 O 0.86484 0.23198 0.82181 0.0
C95 C 0.94594 0.23526 0.81564 0.0
O96 O 0.93801 0.21898 0.82205 0.0
C97 C 0.88101 0.26993 0.77823 0.0
Zn98 Zn 0.24575 0.40019 0.23897 0.0
Zn99 Zn 0.24395 0.41966 0.27225 0.0
O100 O 0.26763 0.43072 0.2571 0.0
O101 O 0.26817 0.41613 0.22854 0.0
O102 O 0.24175 0.43906 0.2942 0.0
O103 O 0.21801 0.4065 0.23178 0.0
O104 O 0.2161 0.4204 0.26064 0.0
C105 C 0.27546 0.42832 0.24038 0.0
C106 C 0.2524 0.37681 0.27493 0.0
O107 O 0.25006 0.39288 0.28409 0.0
O108 O 0.25121 0.37643 0.25641 0.0
C109 C 0.25668 0.44551 0.30315 0.0
O110 O 0.2737 0.4373 0.29986 0.0
C111 C 0.20797 0.41495 0.2448 0.0
Zn112 Zn 0.17203 0.14841 0.27226 0.0
Zn113 Zn 0.16175 0.11222 0.28028 0.0
O114 O 0.17768 0.10931 0.25476 0.0
O115 O 0.18525 0.13978 0.24752 0.0
O116 O 0.15292 0.08462 0.28467 0.0
O117 O 0.18659 0.14923 0.29789 0.0
O118 O 0.17982 0.11823 0.30365 0.0
C119 C 0.1858 0.12172 0.24352 0.0
C120 C 0.13128 0.14538 0.27491 0.0
O121 O 0.13536 0.12767 0.27913 0.0
O122 O 0.14465 0.15746 0.27101 0.0
C123 C 0.14073 0.07755 0.2726 0.0
O124 O 0.1341 0.08875 0.25846 0.0
C125 C 0.1882 0.13414 0.30851 0.0
Zn126 Zn 0.37618 0.7609 0.75473 0.0
Zn127 Zn 0.39702 0.72835 0.75577 0.0
O128 O 0.40664 0.74423 0.7319 0.0
O129 O 0.39091 0.77219 0.73182 0.0
O130 O 0.41728 0.70708 0.75701 0.0
O131 O 0.38287 0.76806 0.78251 0.0
O132 O 0.39768 0.73958 0.78386 0.0
C133 C 0.40327 0.76082 0.72409 0.0
C134 C 0.35439 0.72395 0.74777 0.0
O135 O 0.37082 0.71544 0.74979 0.0
O136 O 0.35319 0.74243 0.74939 0.0
C137 C 0.42277 0.69803 0.74175 0.0
O138 O 0.41345 0.7011 0.72525 0.0
C139 C 0.39187 0.75518 0.79227 0.0
Zn140 Zn 0.799 0.89217 0.23496 0.0
Zn141 Zn 0.80833 0.92626 0.24922 0.0
O142 O 0.79122 0.93166 0.22435 0.0
O143 O 0.78659 0.90271 0.21107 0.0
O144 O 0.81417 0.95393 0.25741 0.0
O145 O 0.78321 0.88668 0.25933 0.0
O146 O 0.79424 0.91377 0.27285 0.0
C147 C 0.78455 0.92105 0.21055 0.0
C148 C 0.84026 0.89671 0.23898 0.0
O149 O 0.83567 0.91358 0.24546 0.0
O150 O 0.82718 0.88481 0.23363 0.0
C151 C 0.82308 0.96445 0.24496 0.0
O152 O 0.82888 0.95638 0.22852 0.0
C153 C 0.78445 0.89795 0.27397 0.0
Zn154 Zn 0.60965 0.32565 0.75851 0.0
Zn155 Zn 0.57644 0.33527 0.77327 0.0
O156 O 0.57069 0.32108 0.74666 0.0
O157 O 0.59932 0.31835 0.73246 0.0
O158 O 0.549 0.34113 0.78202 0.0
O159 O 0.61297 0.30525 0.77972 0.0
O160 O 0.58733 0.31729 0.79494 0.0
C161 C 0.58102 0.31638 0.73188 0.0
C162 C 0.60841 0.36607 0.76841 0.0
O163 O 0.59079 0.36221 0.77306 0.0
O164 O 0.6196 0.35273 0.76227 0.0
C165 C 0.538 0.35101 0.77077 0.0
O166 O 0.54545 0.35856 0.75476 0.0
C167 C 0.6018 0.30559 0.79446 0.0
Zn168 Zn 0.18851 0.8483 0.72377 0.0
Zn169 Zn 0.19833 0.88207 0.73408 0.0
O170 O 0.2149 0.86895 0.75522 0.0
O171 O 0.20629 0.83925 0.74614 0.0
O172 O 0.20193 0.91161 0.73636 0.0
O173 O 0.19791 0.84795 0.69657 0.0
O174 O 0.21038 0.8759 0.70626 0.0
C175 C 0.2157 0.85046 0.75758 0.0
C176 C 0.15622 0.86411 0.73963 0.0
O177 O 0.16936 0.877 0.74284 0.0
O178 O 0.16009 0.84985 0.72858 0.0
C179 C 0.19405 0.92212 0.74954 0.0
O180 O 0.18346 0.91363 0.76311 0.0
C181 C 0.20867 0.86254 0.69328 0.0
Zn182 Zn 0.66324 0.67025 0.17348 0.0
Zn183 Zn 0.62813 0.67208 0.18957 0.0
O184 O 0.64315 0.6869 0.21065 0.0
O185 O 0.67237 0.68609 0.19727 0.0
O186 O 0.60018 0.67226 0.19838 0.0
O187 O 0.65468 0.68436 0.14907 0.0
O188 O 0.62649 0.68784 0.16392 0.0
C189 C 0.66122 0.69123 0.21117 0.0
C190 C 0.64984 0.63257 0.18408 0.0
O191 O 0.63549 0.64281 0.19006 0.0
O192 O 0.66378 0.64078 0.17512 0.0
C193 C 0.59402 0.66264 0.21302 0.0
O194 O 0.60641 0.65228 0.2234 0.0
C195 C 0.63761 0.6914 0.14942 0.0
Zn196 Zn 0.80629 0.12217 0.69703 0.0
Zn197 Zn 0.80043 0.08997 0.71369 0.0
O198 O 0.78728 0.10544 0.73552 0.0
O199 O 0.79144 0.13362 0.72045 0.0
O200 O 0.79793 0.06102 0.7199 0.0
O201 O 0.79229 0.11806 0.67205 0.0
O202 O 0.78271 0.09244 0.68876 0.0
C203 C 0.78501 0.12394 0.73495 0.0
C204 C 0.842 0.10891 0.70828 0.0
O205 O 0.83051 0.09601 0.71542 0.0
O206 O 0.83515 0.12212 0.69735 0.0
C207 C 0.80761 0.05176 0.73279 0.0
O208 O 0.82001 0.06136 0.74386 0.0
C209 C 0.78114 0.10347 0.67376 0.0
Zn210 Zn 0.38085 0.34408 0.2416 0.0
Zn211 Zn 0.41825 0.34798 0.23404 0.0
O212 O 0.41753 0.33364 0.26078 0.0
O213 O 0.38618 0.33122 0.26737 0.0
O214 O 0.44713 0.35045 0.22976 0.0
O215 O 0.37778 0.32827 0.21686 0.0
O216 O 0.40947 0.32976 0.21165 0.0
C217 C 0.40377 0.32824 0.27208 0.0
C218 C 0.39096 0.38382 0.2363 0.0
O219 O 0.40782 0.37679 0.2326 0.0
O220 O 0.37699 0.37271 0.24093 0.0
C221 C 0.45785 0.35716 0.24336 0.0
O222 O 0.44957 0.36369 0.25941 0.0
C223 C 0.39258 0.32369 0.20676 0.0
Zn224 Zn 0.30301 0.19313 0.18264 0.0
Zn225 Zn 0.29146 0.19557 0.14626 0.0
O226 O 0.27037 0.21321 0.15767 0.0
O227 O 0.28031 0.21194 0.18828 0.0
O228 O 0.28615 0.19368 0.11735 0.0
O229 O 0.32972 0.20371 0.17714 0.0
O230 O 0.31855 0.20911 0.14752 0.0
C231 C 0.26835 0.21815 0.17551 0.0
C232 C 0.28925 0.15688 0.17075 0.0
O233 O 0.28623 0.16724 0.15555 0.0
O234 O 0.29816 0.16428 0.18514 0.0
C235 C 0.27109 0.18475 0.11117 0.0
O236 O 0.25853 0.17778 0.12389 0.0
C237 C 0.33201 0.21091 0.16028 0.0
Zn238 Zn 0.27941 0.74226 0.89478 0.0
Zn239 Zn 0.27996 0.77335 0.91582 0.0
O240 O 0.25832 0.75449 0.92578 0.0
O241 O 0.2599 0.72669 0.90997 0.0
O242 O 0.28133 0.79161 0.93899 0.0
O243 O 0.30788 0.73652 0.89688 0.0
O244 O 0.30893 0.76552 0.91063 0.0
C245 C 0.25199 0.73719 0.92292 0.0
C246 C 0.26729 0.77965 0.87521 0.0
O247 O 0.27013 0.78796 0.89166 0.0
O248 O 0.27014 0.76134 0.87346 0.0
C249 C 0.26555 0.79833 0.94613 0.0
O250 O 0.24921 0.79578 0.93642 0.0
C251 C 0.31773 0.75073 0.9034 0.0
Zn252 Zn 0.76282 0.75577 0.35217 0.0
Zn253 Zn 0.72998 0.76021 0.37082 0.0
O254 O 0.74441 0.7361 0.38216 0.0
O255 O 0.77321 0.73364 0.36849 0.0
O256 O 0.70934 0.76429 0.39146 0.0
O257 O 0.77173 0.78349 0.35601 0.0
O258 O 0.7422 0.78787 0.36768 0.0
C259 C 0.76064 0.72716 0.38036 0.0
C260 C 0.72625 0.74836 0.32945 0.0
O261 O 0.71704 0.75218 0.34519 0.0
O262 O 0.74478 0.74923 0.32909 0.0
C263 C 0.69927 0.74994 0.39763 0.0
O264 O 0.70074 0.73299 0.38868 0.0
C265 C 0.75853 0.79488 0.36211 0.0
Zn266 Zn 0.73474 0.24694 0.86287 0.0
Zn267 Zn 0.7275 0.2177 0.88603 0.0
O268 O 0.75353 0.23067 0.89474 0.0
O269 O 0.75845 0.25674 0.87674 0.0
O270 O 0.7228 0.19989 0.90907 0.0
O271 O 0.70907 0.2599 0.86726 0.0
O272 O 0.70126 0.23306 0.88319 0.0
C273 C 0.76394 0.24548 0.8903 0.0
C274 C 0.73643 0.20734 0.84488 0.0
O275 O 0.73255 0.20083 0.8619 0.0
O276 O 0.73764 0.22566 0.84196 0.0
C277 C 0.73679 0.18954 0.91558 0.0
O278 O 0.75305 0.18861 0.90545 0.0
C279 C 0.69648 0.24962 0.87599 0.0
Zn280 Zn 0.32238 0.21692 0.33421 0.0
Zn281 Zn 0.31772 0.23018 0.3697 0.0
O282 O 0.30209 0.25175 0.35631 0.0
O283 O 0.30516 0.24025 0.32637 0.0
O284 O 0.31652 0.23512 0.3987 0.0
O285 O 0.3103 0.19066 0.33917 0.0
O286 O 0.30345 0.2035 0.36775 0.0
C287 C 0.29866 0.25314 0.33805 0.0
C288 C 0.35808 0.23019 0.34854 0.0
O289 O 0.34683 0.23435 0.36279 0.0
O290 O 0.35143 0.22071 0.33413 0.0
C291 C 0.32695 0.24753 0.40777 0.0
O292 O 0.3388 0.25892 0.39785 0.0
C293 C 0.30186 0.18949 0.35555 0.0
Zn294 Zn 0.6873 0.83947 0.13909 0.0
Zn295 Zn 0.70311 0.83806 0.10451 0.0
O296 O 0.72473 0.82292 0.11845 0.0
O297 O 0.71112 0.82338 0.14761 0.0
O298 O 0.7096 0.83826 0.07581 0.0
O299 O 0.66254 0.82557 0.13203 0.0
O300 O 0.67772 0.82159 0.10411 0.0
C301 C 0.72507 0.81829 0.13648 0.0
C302 C 0.69809 0.87717 0.1273 0.0
O303 O 0.70432 0.86723 0.11279 0.0
O304 O 0.68857 0.86872 0.14069 0.0
C305 C 0.72639 0.83772 0.06797 0.0
O306 O 0.742 0.83746 0.07912 0.0
C307 C 0.66322 0.81797 0.11521 0.0
Zn308 Zn 0.65394 0.20482 0.67154 0.0
Zn309 Zn 0.65906 0.21718 0.63542 0.0
O310 O 0.67678 0.23694 0.64933 0.0
O311 O 0.67318 0.22629 0.6795 0.0
O312 O 0.6617 0.22321 0.60672 0.0
O313 O 0.66331 0.17758 0.66596 0.0
O314 O 0.6695 0.18864 0.63647 0.0
C315 C 0.68063 0.23834 0.66749 0.0
C316 C 0.61894 0.22044 0.65617 0.0
O317 O 0.63018 0.22358 0.64164 0.0
O318 O 0.62534 0.21127 0.67091 0.0
C319 C 0.65404 0.23802 0.59851 0.0
O320 O 0.64412 0.25057 0.60913 0.0
C321 C 0.67007 0.17483 0.649 0.0
Zn322 Zn 0.31608 0.75053 0.62011 0.0
Zn323 Zn 0.31719 0.76334 0.58446 0.0
O324 O 0.30307 0.73628 0.58296 0.0
O325 O 0.30178 0.72611 0.61344 0.0
O326 O 0.31826 0.77037 0.55584 0.0
O327 O 0.30242 0.77563 0.62795 0.0
O328 O 0.30054 0.78511 0.59722 0.0
C329 C 0.29817 0.72342 0.59554 0.0
C330 C 0.35481 0.75715 0.60868 0.0
O331 O 0.34643 0.76442 0.59367 0.0
O332 O 0.34483 0.74901 0.62188 0.0
C333 C 0.32635 0.75815 0.54441 0.0
O334 O 0.33445 0.7424 0.55189 0.0
C335 C 0.29689 0.78795 0.61527 0.0
Zn336 Zn 0.85077 0.73218 0.82682 0.0
Zn337 Zn 0.88789 0.72391 0.833 0.0
O338 O 0.88859 0.75147 0.82021 0.0
O339 O 0.85755 0.75878 0.81633 0.0
O340 O 0.91632 0.71926 0.83814 0.0
O341 O 0.84894 0.70831 0.80946 0.0
O342 O 0.88015 0.70188 0.81382 0.0
C343 C 0.87535 0.76342 0.81483 0.0
C344 C 0.85821 0.72454 0.86684 0.0
O345 O 0.87554 0.72155 0.86078 0.0
O346 O 0.84487 0.72949 0.8551 0.0
C347 C 0.92489 0.73068 0.85001 0.0
O348 O 0.91472 0.74447 0.85869 0.0
C349 C 0.86373 0.6977 0.80611 0.0
Zn350 Zn 0.81404 0.32392 0.31936 0.0
Zn351 Zn 0.80138 0.35946 0.31117 0.0
O352 O 0.77867 0.34472 0.29904 0.0
O353 O 0.7892 0.31486 0.30517 0.0
O354 O 0.79556 0.38812 0.30768 0.0
O355 O 0.83883 0.32719 0.30387 0.0
O356 O 0.82619 0.35524 0.29458 0.0
C357 C 0.77641 0.32625 0.298 0.0
C358 C 0.80482 0.34352 0.35391 0.0
O359 O 0.80026 0.35629 0.34112 0.0
O360 O 0.81286 0.32774 0.34855 0.0
C361 C 0.78107 0.3958 0.31636 0.0
O362 O 0.76948 0.38461 0.3268 0.0
C363 C 0.83948 0.34227 0.29316 0.0
Zn364 Zn 0.1613 0.29352 0.83319 0.0
Zn365 Zn 0.12592 0.2794 0.82654 0.0
O366 O 0.14181 0.25881 0.81158 0.0
O367 O 0.17126 0.27078 0.81643 0.0
O368 O 0.09782 0.27182 0.82266 0.0
O369 O 0.15516 0.31958 0.82104 0.0
O370 O 0.12651 0.30702 0.81394 0.0
C371 C 0.16022 0.25776 0.80915 0.0
C372 C 0.14341 0.2807 0.86829 0.0
O373 O 0.12996 0.27607 0.85627 0.0
O374 O 0.15848 0.28951 0.86221 0.0
C375 C 0.09018 0.25674 0.83037 0.0
O376 O 0.10109 0.24501 0.84098 0.0
C377 C 0.13858 0.3212 0.81307 0.0
Zn378 Zn 0.23864 0.62452 0.22689 0.0
Zn379 Zn 0.23713 0.60632 0.26138 0.0
O380 O 0.26067 0.59485 0.24663 0.0
O381 O 0.26166 0.60841 0.21758 0.0
O382 O 0.23577 0.58837 0.2846 0.0
O383 O 0.21077 0.61718 0.22057 0.0
O384 O 0.20928 0.60456 0.25007 0.0
C385 C 0.26885 0.59675 0.23003 0.0
C386 C 0.24568 0.64931 0.2618 0.0
O387 O 0.24349 0.63361 0.27161 0.0
O388 O 0.24403 0.64906 0.24331 0.0
C389 C 0.25108 0.58378 0.29405 0.0
O390 O 0.26753 0.59274 0.28992 0.0
C391 C 0.20097 0.60912 0.23403 0.0
Zn392 Zn 0.87688 0.25028 0.15312 0.0
Zn393 Zn 0.91238 0.26298 0.14623 0.0
O394 O 0.91636 0.23614 0.16 0.0
O395 O 0.88655 0.22526 0.16481 0.0
O396 O 0.94013 0.27127 0.14149 0.0
O397 O 0.87226 0.27421 0.17014 0.0
O398 O 0.90279 0.2834 0.166 0.0
C399 C 0.9048 0.223 0.16636 0.0
C400 C 0.88203 0.25845 0.11304 0.0
O401 O 0.89866 0.26456 0.11884 0.0
O402 O 0.87018 0.25087 0.12497 0.0
C403 C 0.95255 0.25933 0.13455 0.0
O404 O 0.94665 0.24193 0.12889 0.0
C405 C 0.88613 0.28591 0.17382 0.0
Zn406 Zn 0.18852 0.36496 0.67564 0.0
Zn407 Zn 0.20546 0.3974 0.68057 0.0
O408 O 0.2259 0.38214 0.69585 0.0
O409 O 0.21107 0.35381 0.69201 0.0
O410 O 0.21315 0.42603 0.68148 0.0
O411 O 0.16324 0.37063 0.68851 0.0
O412 O 0.17961 0.39685 0.69694 0.0
C413 C 0.22516 0.36376 0.69887 0.0
C414 C 0.20172 0.3763 0.63986 0.0
O415 O 0.2086 0.38956 0.65107 0.0
O416 O 0.19007 0.36376 0.64675 0.0
C417 C 0.21356 0.43513 0.69769 0.0
O418 O 0.20988 0.42544 0.71386 0.0
C419 C 0.1645 0.38603 0.6986 0.0
Zn420 Zn 0.09673 0.71981 0.24961 0.0
Zn421 Zn 0.0791 0.72075 0.21634 0.0
O422 O 0.06677 0.74129 0.23501 0.0
O423 O 0.07959 0.73851 0.2642 0.0
O424 O 0.05854 0.72021 0.19523 0.0
O425 O 0.09447 0.69088 0.25331 0.0
O426 O 0.08354 0.69142 0.22317 0.0
C427 C 0.06774 0.74687 0.25276 0.0
C428 C 0.11991 0.73435 0.21551 0.0
O429 O 0.10456 0.73165 0.20531 0.0
O430 O 0.11978 0.73048 0.23368 0.0
C431 C 0.05236 0.7363 0.18823 0.0
O432 O 0.06164 0.75252 0.19268 0.0
C433 C 0.0894 0.68179 0.23804 0.0
Zn434 Zn 0.789 0.6412 0.67243 0.0
Zn435 Zn 0.77604 0.60783 0.68153 0.0
O436 O 0.75378 0.62215 0.69522 0.0
O437 O 0.76546 0.65132 0.68803 0.0
O438 O 0.77232 0.57862 0.68572 0.0
O439 O 0.81503 0.64017 0.68503 0.0
O440 O 0.80189 0.6135 0.69708 0.0
C441 C 0.75249 0.64073 0.69607 0.0
C442 C 0.77635 0.62465 0.63863 0.0
O443 O 0.77147 0.61202 0.65151 0.0
O444 O 0.7867 0.6391 0.64359 0.0
C445 C 0.75822 0.56866 0.67882 0.0
O446 O 0.74459 0.57759 0.66869 0.0
C447 C 0.81573 0.62604 0.69689 0.0
Zn448 Zn 0.80901 0.83156 0.70696 0.0
Zn449 Zn 0.79903 0.8658 0.71727 0.0
O450 O 0.7833 0.85241 0.73872 0.0
O451 O 0.79175 0.82261 0.72979 0.0
O452 O 0.79539 0.89517 0.72048 0.0
O453 O 0.79856 0.83182 0.68 0.0
O454 O 0.78616 0.85973 0.68996 0.0
C455 C 0.78256 0.83395 0.74128 0.0
C456 C 0.84157 0.84852 0.72157 0.0
O457 O 0.82833 0.86132 0.72468 0.0
O458 O 0.83757 0.8337 0.71132 0.0
C459 C 0.80338 0.90464 0.73435 0.0
O460 O 0.81362 0.89504 0.74746 0.0
C461 C 0.78754 0.84631 0.67701 0.0
Zn462 Zn 0.62789 0.23046 0.23962 0.0
Zn463 Zn 0.61104 0.26557 0.23785 0.0
O464 O 0.59884 0.25143 0.26139 0.0
O465 O 0.61086 0.22167 0.26225 0.0
O466 O 0.59407 0.28936 0.23526 0.0
O467 O 0.62176 0.22451 0.21121 0.0
O468 O 0.61029 0.25448 0.20999 0.0
C469 C 0.59993 0.23471 0.26955 0.0
C470 C 0.65351 0.26465 0.24756 0.0
O471 O 0.6383 0.275 0.24474 0.0
O472 O 0.65265 0.24613 0.24608 0.0
C473 C 0.58943 0.30008 0.24969 0.0
O474 O 0.59712 0.29644 0.2669 0.0
C475 C 0.61476 0.23857 0.2014 0.0
Zn476 Zn 0.27065 0.12141 0.75015 0.0
Zn477 Zn 0.24014 0.10065 0.74475 0.0
O478 O 0.25518 0.09151 0.76956 0.0
O479 O 0.28304 0.1069 0.77242 0.0
O480 O 0.22367 0.07641 0.73958 0.0
O481 O 0.28127 0.12011 0.72294 0.0
O482 O 0.25235 0.10743 0.7175 0.0
C483 C 0.27104 0.09443 0.77886 0.0
C484 C 0.23153 0.1407 0.7568 0.0
O485 O 0.2236 0.12428 0.7528 0.0
O486 O 0.25002 0.14239 0.75634 0.0
C487 C 0.21522 0.06767 0.75367 0.0
O488 O 0.2148 0.07617 0.77089 0.0
C489 C 0.26833 0.11454 0.71101 0.0
Zn490 Zn 0.37659 0.67947 0.25726 0.0
Zn491 Zn 0.41125 0.67791 0.24217 0.0
O492 O 0.41508 0.69185 0.26897 0.0
O493 O 0.38557 0.69279 0.28155 0.0
O494 O 0.43897 0.67513 0.23303 0.0
O495 O 0.36827 0.69498 0.23314 0.0
O496 O 0.39851 0.69629 0.22225 0.0
C497 C 0.40357 0.69661 0.28281 0.0
C498 C 0.38553 0.64087 0.24788 0.0
O499 O 0.40022 0.64936 0.24015 0.0
O500 O 0.37341 0.65065 0.25775 0.0
C501 C 0.45082 0.66553 0.24364 0.0
O502 O 0.44438 0.65732 0.25976 0.0
C503 C 0.38057 0.70091 0.22063 0.0
Zn504 Zn 0.83301 0.18477 0.2853 0.0
Zn505 Zn 0.82438 0.14826 0.27704 0.0
O506 O 0.80921 0.16068 0.25467 0.0
O507 O 0.81566 0.19146 0.26175 0.0
O508 O 0.82081 0.11916 0.27407 0.0
O509 O 0.82141 0.18361 0.31221 0.0
O510 O 0.8113 0.1543 0.30371 0.0
C511 C 0.80744 0.17884 0.25089 0.0
C512 C 0.86664 0.16516 0.2734 0.0
O513 O 0.85386 0.15172 0.27161 0.0
O514 O 0.8618 0.18144 0.28074 0.0
C515 C 0.8279 0.11052 0.25924 0.0
O516 O 0.83669 0.12095 0.24572 0.0
C517 C 0.81155 0.16842 0.3159 0.0
Zn518 Zn 0.35416 0.24933 0.7668 0.0
Zn519 Zn 0.37348 0.28081 0.77584 0.0
O520 O 0.38646 0.26852 0.75133 0.0
O521 O 0.37212 0.24043 0.74555 0.0
O522 O 0.39351 0.30104 0.7832 0.0
O523 O 0.35589 0.2376 0.79348 0.0
O524 O 0.36857 0.26591 0.80191 0.0
C525 C 0.38484 0.25305 0.74106 0.0
C526 C 0.33324 0.28708 0.76119 0.0
O527 O 0.34887 0.29512 0.76728 0.0
O528 O 0.3321 0.26855 0.76009 0.0
C529 C 0.39936 0.31339 0.77062 0.0
O530 O 0.39075 0.31399 0.75347 0.0
C531 C 0.36206 0.24906 0.80657 0.0
Zn532 Zn 0.15221 0.85777 0.25598 0.0
Zn533 Zn 0.14452 0.89443 0.26586 0.0
O534 O 0.15676 0.89735 0.23835 0.0
O535 O 0.16207 0.86676 0.22976 0.0
O536 O 0.13909 0.92225 0.27314 0.0
O537 O 0.1702 0.85538 0.27934 0.0
O538 O 0.16482 0.88634 0.28651 0.0
C539 C 0.1627 0.88485 0.22589 0.0
C540 C 0.11196 0.86339 0.26414 0.0
O541 O 0.11727 0.88089 0.26781 0.0
O542 O 0.12423 0.85073 0.25866 0.0
C543 C 0.12817 0.93292 0.26259 0.0
O544 O 0.11978 0.92527 0.24711 0.0
C545 C 0.17338 0.87017 0.29002 0.0
Zn546 Zn 0.61312 0.7509 0.74823 0.0
Zn547 Zn 0.5915 0.71901 0.75027 0.0
O548 O 0.58205 0.73473 0.72617 0.0
O549 O 0.59835 0.76235 0.72545 0.0
O550 O 0.57031 0.69878 0.75268 0.0
O551 O 0.60729 0.75897 0.77591 0.0
O552 O 0.59193 0.73085 0.77811 0.0
C553 C 0.58563 0.75115 0.71808 0.0
C554 C 0.63374 0.71303 0.74185 0.0
O555 O 0.61712 0.70499 0.74427 0.0
O556 O 0.6354 0.73152 0.74296 0.0
C557 C 0.56293 0.69051 0.73778 0.0
O558 O 0.57105 0.69329 0.72061 0.0
C559 C 0.59826 0.74646 0.78611 0.0
Zn560 Zn 0.71638 0.73325 0.88339 0.0
Zn561 Zn 0.71609 0.76637 0.90238 0.0
O562 O 0.73721 0.74839 0.91462 0.0
O563 O 0.73585 0.71962 0.90056 0.0
O564 O 0.71509 0.78806 0.9223 0.0
O565 O 0.68765 0.72873 0.88645 0.0
O566 O 0.68709 0.75832 0.89895 0.0
C567 C 0.74352 0.73092 0.913 0.0
C568 C 0.7289 0.76845 0.86098 0.0
O569 O 0.72593 0.77792 0.87674 0.0
O570 O 0.72598 0.75009 0.86044 0.0
C571 C 0.73086 0.79492 0.92932 0.0
O572 O 0.74758 0.78923 0.92183 0.0
C573 C 0.67805 0.74323 0.89272 0.0
Zn574 Zn 0.7347 0.26158 0.10151 0.0
Zn575 Zn 0.73446 0.22714 0.08525 0.0
O576 O 0.75581 0.2441 0.07214 0.0
O577 O 0.75438 0.27403 0.08352 0.0
O578 O 0.73145 0.20532 0.06566 0.0
O579 O 0.70575 0.26622 0.09932 0.0
O580 O 0.70587 0.23564 0.08963 0.0
C581 C 0.76229 0.26159 0.07237 0.0
C582 C 0.74809 0.22755 0.12595 0.0
O583 O 0.74501 0.21674 0.11107 0.0
O584 O 0.7448 0.24585 0.12504 0.0
C585 C 0.74603 0.19776 0.05701 0.0
O586 O 0.76368 0.20216 0.06307 0.0
C587 C 0.69647 0.25085 0.09487 0.0
Zn588 Zn 0.29433 0.25614 0.62612 0.0
Zn589 Zn 0.30767 0.24552 0.59176 0.0
O590 O 0.29028 0.27038 0.58728 0.0
O591 O 0.27827 0.27811 0.61611 0.0
O592 O 0.31492 0.23948 0.56389 0.0
O593 O 0.28235 0.22955 0.6302 0.0
O594 O 0.29497 0.21986 0.60222 0.0
C595 C 0.27969 0.28134 0.59801 0.0
C596 C 0.3366 0.25741 0.6229 0.0
O597 O 0.3338 0.2505 0.60585 0.0
O598 O 0.32228 0.26136 0.63392 0.0
C599 C 0.324 0.25258 0.55432 0.0
O600 O 0.32951 0.26859 0.5634 0.0
C601 C 0.28534 0.21619 0.61776 0.0
Zn602 Zn 0.27559 0.82083 0.16703 0.0
Zn603 Zn 0.26801 0.81236 0.13146 0.0
O604 O 0.24562 0.79601 0.14231 0.0
O605 O 0.2523 0.80289 0.17306 0.0
O606 O 0.26796 0.80958 0.10203 0.0
O607 O 0.30264 0.81039 0.16824 0.0
O608 O 0.29466 0.79946 0.13914 0.0
C609 C 0.24174 0.79427 0.16045 0.0
C610 C 0.26228 0.85424 0.14949 0.0
O611 O 0.26034 0.84153 0.13596 0.0
O612 O 0.27096 0.84955 0.1651 0.0
C613 C 0.25512 0.81709 0.09088 0.0
O614 O 0.24034 0.82655 0.09864 0.0
C615 C 0.30663 0.80012 0.15343 0.0
Zn616 Zn 0.66993 0.73662 0.61438 0.0
Zn617 Zn 0.6693 0.74761 0.57805 0.0
O618 O 0.68224 0.71982 0.57771 0.0
O619 O 0.68294 0.71123 0.60871 0.0
O620 O 0.66875 0.75425 0.54928 0.0
O621 O 0.68491 0.76117 0.62127 0.0
O622 O 0.68689 0.76908 0.59012 0.0
C623 C 0.68649 0.70743 0.591 0.0
C624 C 0.63148 0.74427 0.60244 0.0
O625 O 0.64007 0.75016 0.58696 0.0
O626 O 0.64117 0.73675 0.61622 0.0
C627 C 0.66041 0.74263 0.53741 0.0
O628 O 0.65159 0.72702 0.54434 0.0
C629 C 0.69089 0.77259 0.60798 0.0
Zn630 Zn 0.23797 0.17604 0.89363 0.0
Zn631 Zn 0.25304 0.17033 0.9278 0.0
O632 O 0.22605 0.18428 0.93188 0.0
O633 O 0.21181 0.18386 0.90311 0.0
O634 O 0.26181 0.16748 0.95573 0.0
O635 O 0.25898 0.1964 0.88839 0.0
O636 O 0.27398 0.18795 0.91558 0.0
C637 C 0.21119 0.18763 0.92115 0.0
C638 C 0.24966 0.13643 0.89864 0.0
O639 O 0.2546 0.14234 0.91563 0.0
O640 O 0.24226 0.14818 0.88645 0.0
C641 C 0.25008 0.16017 0.96814 0.0
O642 O 0.23331 0.15314 0.96203 0.0
C643 C 0.27346 0.19784 0.89982 0.0
Zn644 Zn 0.32048 0.8069 0.32815 0.0
Zn645 Zn 0.31223 0.79171 0.36217 0.0
O646 O 0.29986 0.7697 0.34639 0.0
O647 O 0.30662 0.78243 0.31756 0.0
O648 O 0.30932 0.78509 0.39075 0.0
O649 O 0.30487 0.83144 0.33223 0.0
O650 O 0.2954 0.81667 0.3591 0.0
C651 C 0.29918 0.76882 0.32779 0.0
C652 C 0.35496 0.7964 0.34612 0.0
O653 O 0.34216 0.79056 0.35832 0.0
O654 O 0.34962 0.80613 0.33133 0.0
C655 C 0.31872 0.77096 0.39833 0.0
O656 O 0.32942 0.75974 0.38702 0.0
C657 C 0.29391 0.83086 0.34709 0.0
Zn658 Zn 0.68408 0.26367 0.37979 0.0
Zn659 Zn 0.68139 0.24976 0.41468 0.0
O660 O 0.69613 0.27632 0.41763 0.0
O661 O 0.69743 0.28824 0.38783 0.0
O662 O 0.67708 0.24244 0.44287 0.0
O663 O 0.69974 0.23918 0.37303 0.0
O664 O 0.70006 0.22912 0.40365 0.0
C665 C 0.70129 0.28978 0.40581 0.0
C666 C 0.64544 0.2548 0.38704 0.0
O667 O 0.65335 0.2475 0.4023 0.0
O668 O 0.65563 0.26439 0.37503 0.0
C669 C 0.66727 0.25436 0.45322 0.0
O670 O 0.66005 0.27011 0.4449 0.0
C671 C 0.70527 0.22702 0.38591 0.0
H672 H 0.98338 0.23478 0.12747 0.0
H673 H 0.0593 0.30693 0.17866 0.0
H674 H 0.96982 0.29375 0.14555 0.0
H675 H 0.07024 0.24556 0.16846 0.0
H676 H 0.02915 0.3043 0.15987 0.0
H677 H 0.0176 0.24057 0.13568 0.0
C678 C 0.98763 0.24906 0.13285 0.0
C679 C 0.97364 0.2637 0.13615 0.0
C680 C 0.03827 0.29146 0.16152 0.0
C681 C 0.01277 0.27037 0.14567 0.0
C682 C 0.05554 0.29296 0.17222 0.0
C683 C 0.06716 0.27635 0.17545 0.0
C684 C 0.03255 0.27322 0.15401 0.0
C685 C 0.06161 0.25869 0.16657 0.0
C686 C 0.00718 0.25233 0.1376 0.0
C687 C 0.98005 0.28195 0.14303 0.0
N688 N 0.04457 0.25753 0.15647 0.0
N689 N 0.9991 0.28469 0.14778 0.0
H690 H 0.22315 0.55802 0.66751 0.0
H691 H 0.21418 0.45907 0.72977 0.0
H692 H 0.21544 0.55654 0.7301 0.0
H693 H 0.2197 0.46028 0.66695 0.0
H694 H 0.21699 0.49468 0.73034 0.0
H695 H 0.22425 0.52226 0.6672 0.0
C696 C 0.2218 0.5502 0.68121 0.0
C697 C 0.2191 0.56035 0.69886 0.0
C698 C 0.21768 0.48717 0.71642 0.0
C699 C 0.2203 0.51932 0.69858 0.0
C700 C 0.2161 0.4668 0.71609 0.0
C701 C 0.2166 0.45662 0.69827 0.0
C702 C 0.21976 0.49754 0.69882 0.0
C703 C 0.21917 0.46748 0.68102 0.0
C704 C 0.22241 0.52976 0.68102 0.0
C705 C 0.21748 0.54938 0.71614 0.0
N706 N 0.22056 0.48734 0.68172 0.0
N707 N 0.21802 0.52949 0.71555 0.0
H708 H 0.02659 0.70624 0.18162 0.0
H709 H 0.9376 0.78012 0.16867 0.0
H710 H 0.03293 0.76874 0.17496 0.0
H711 H 0.93111 0.71844 0.18068 0.0
H712 H 0.97245 0.77498 0.1633 0.0
H713 H 0.99197 0.70933 0.17367 0.0
C714 C 0.02082 0.72057 0.17811 0.0
C715 C 0.03265 0.73731 0.17934 0.0
C716 C 0.96335 0.76251 0.1668 0.0
C717 C 0.99292 0.74095 0.1704 0.0
C718 C 0.9434 0.76542 0.16981 0.0
C719 C 0.93143 0.74975 0.17551 0.0
C720 C 0.97143 0.74381 0.16956 0.0
C721 C 0.9398 0.73101 0.17659 0.0
C722 C 0.001 0.72233 0.17363 0.0
C723 C 0.02434 0.75546 0.17447 0.0
N724 N 0.95932 0.72862 0.17395 0.0
N725 N 0.00494 0.75683 0.17052 0.0
H726 H 0.78385 0.44826 0.71033 0.0
H727 H 0.72884 0.54326 0.66887 0.0
H728 H 0.72337 0.44852 0.69271 0.0
H729 H 0.78583 0.54492 0.69569 0.0
H730 H 0.72779 0.50787 0.67424 0.0
H731 H 0.78618 0.48283 0.7013 0.0
C732 C 0.77112 0.45549 0.70432 0.0
C733 C 0.75335 0.44544 0.70238 0.0
C734 C 0.74054 0.51598 0.67893 0.0
C735 C 0.7559 0.48514 0.69215 0.0
C736 C 0.74115 0.5362 0.67587 0.0
C737 C 0.7574 0.54715 0.68192 0.0
C738 C 0.75635 0.50653 0.68801 0.0
C739 C 0.77294 0.53714 0.69087 0.0
C740 C 0.77244 0.47528 0.69928 0.0
C741 C 0.73735 0.45565 0.69455 0.0
N742 N 0.77202 0.51743 0.69363 0.0
N743 N 0.73898 0.47492 0.68982 0.0
H744 H 0.95058 0.70485 0.83338 0.0
H745 H 0.04474 0.75704 0.87885 0.0
H746 H 0.94782 0.75366 0.87334 0.0
H747 H 0.04743 0.70908 0.83787 0.0
H748 H 0.0092 0.75436 0.87903 0.0
H749 H 0.98604 0.7045 0.83687 0.0
C750 C 0.95741 0.71542 0.84299 0.0
C751 C 0.94621 0.7294 0.85298 0.0
C752 C 0.01757 0.74435 0.87008 0.0
C753 C 0.98683 0.72912 0.85698 0.0
C754 C 0.03788 0.74587 0.86998 0.0
C755 C 0.04908 0.73336 0.85822 0.0
C756 C 0.00839 0.73024 0.85831 0.0
C757 C 0.03938 0.71911 0.84708 0.0
C758 C 0.97767 0.71522 0.84496 0.0
C759 C 0.95587 0.74269 0.86527 0.0
N760 N 0.0196 0.71801 0.84733 0.0
N761 N 0.97562 0.74229 0.86684 0.0
H762 H 0.73624 0.51313 0.33198 0.0
H763 H 0.80338 0.42351 0.29789 0.0
H764 H 0.78954 0.52028 0.29912 0.0
H765 H 0.75173 0.41697 0.33341 0.0
H766 H 0.79849 0.45894 0.29794 0.0
H767 H 0.74185 0.47789 0.3328 0.0
C768 C 0.7492 0.50731 0.32502 0.0
C769 C 0.76242 0.5197 0.31542 0.0
C770 C 0.78822 0.44975 0.30572 0.0
C771 C 0.76886 0.47926 0.31619 0.0
C772 C 0.79097 0.4295 0.30565 0.0
C773 C 0.77793 0.41722 0.31565 0.0
C774 C 0.7723 0.45781 0.31583 0.0
C775 C 0.76215 0.42584 0.32549 0.0
C776 C 0.75237 0.48715 0.32547 0.0
C777 C 0.77896 0.51129 0.30669 0.0
N778 N 0.75978 0.44558 0.32532 0.0
N779 N 0.78166 0.49159 0.30721 0.0
H780 H 0.06875 0.22608 0.84485 0.0
H781 H 0.96735 0.26657 0.80274 0.0
H782 H 0.06334 0.27896 0.81072 0.0
H783 H 0.97282 0.212 0.83408 0.0
H784 H 0.00244 0.27166 0.80621 0.0
H785 H 0.0336 0.22083 0.84154 0.0
C786 C 0.0602 0.23656 0.83662 0.0
C787 C 0.06903 0.25299 0.82806 0.0
C788 C 0.99597 0.25857 0.81235 0.0
C789 C 0.02877 0.24711 0.82428 0.0
C790 C 0.97591 0.25567 0.8104 0.0
C791 C 0.96711 0.23881 0.81811 0.0
C792 C 0.00736 0.24454 0.82211 0.0
C793 C 0.97897 0.2252 0.82788 0.0
C794 C 0.04012 0.23356 0.83475 0.0
C795 C 0.05719 0.26608 0.81757 0.0
N796 N 0.99848 0.22836 0.82959 0.0
N797 N 0.03769 0.26287 0.81601 0.0
H798 H 0.28688 0.46857 0.31586 0.0
H799 H 0.2198 0.56196 0.3061 0.0
H800 H 0.22405 0.46705 0.3116 0.0
H801 H 0.28273 0.56375 0.30821 0.0
H802 H 0.22074 0.52819 0.31763 0.0
H803 H 0.28518 0.5036 0.32268 0.0
C804 C 0.27269 0.47547 0.31685 0.0
C805 C 0.25561 0.46496 0.31258 0.0
C806 C 0.23434 0.53607 0.31596 0.0
C807 C 0.25359 0.5051 0.32012 0.0
C808 C 0.23381 0.55539 0.30939 0.0
C809 C 0.25124 0.56552 0.30567 0.0
C810 C 0.25243 0.52674 0.31859 0.0
C811 C 0.26894 0.55638 0.31052 0.0
C812 C 0.27173 0.49553 0.32068 0.0
C813 C 0.23763 0.47466 0.31433 0.0
N814 N 0.2691 0.53736 0.31632 0.0
N815 N 0.23712 0.49426 0.31756 0.0
H816 H 0.14397 0.95332 0.29313 0.0
H817 H 0.11629 0.05756 0.24809 0.0
H818 H 0.10901 0.96084 0.24115 0.0
H819 H 0.15319 0.04978 0.29866 0.0
H820 H 0.1102 0.02237 0.24762 0.0
H821 H 0.14416 0.98872 0.29767 0.0
C822 C 0.13618 0.9624 0.28275 0.0
C823 C 0.12664 0.95411 0.2666 0.0
C824 C 0.1195 0.02837 0.25892 0.0
C825 C 0.12689 0.99469 0.27168 0.0
C826 C 0.12299 0.04848 0.25921 0.0
C827 C 0.13545 0.0566 0.27331 0.0
C828 C 0.12858 0.01628 0.2728 0.0
C829 C 0.14361 0.04413 0.28742 0.0
C830 C 0.13631 0.98263 0.28535 0.0
C831 C 0.11668 0.9666 0.25373 0.0
N832 N 0.14016 0.02458 0.2867 0.0
N833 N 0.11721 0.98629 0.25645 0.0
H834 H 0.54163 0.6829 0.77079 0.0
H835 H 0.44284 0.6832 0.7104 0.0
H836 H 0.53865 0.67953 0.70787 0.0
H837 H 0.44643 0.69 0.77302 0.0
H838 H 0.47712 0.67341 0.70989 0.0
H839 H 0.50658 0.67692 0.77241 0.0
C840 C 0.53368 0.68051 0.75731 0.0
C841 C 0.54303 0.6822 0.73914 0.0
C842 C 0.47031 0.67669 0.72379 0.0
C843 C 0.50279 0.6756 0.74089 0.0
C844 C 0.4507 0.68224 0.7241 0.0
C845 C 0.44186 0.68788 0.74173 0.0
C846 C 0.48117 0.67686 0.74121 0.0
C847 C 0.45274 0.68615 0.75903 0.0
C848 C 0.51363 0.67713 0.75825 0.0
C849 C 0.53201 0.67866 0.7222 0.0
N850 N 0.4719 0.68112 0.7583 0.0
N851 N 0.51241 0.67592 0.72346 0.0
H852 H 0.81153 0.08432 0.28484 0.0
H853 H 0.84131 0.99073 0.22105 0.0
H854 H 0.84265 0.08749 0.23008 0.0
H855 H 0.80973 0.98685 0.2755 0.0
H856 H 0.84284 0.02616 0.22482 0.0
H857 H 0.81123 0.04863 0.28216 0.0
C858 C 0.81826 0.07753 0.27223 0.0
C859 C 0.8271 0.08894 0.25764 0.0
C860 C 0.83563 0.01758 0.236 0.0
C861 C 0.82689 0.04808 0.25454 0.0
C862 C 0.83478 0.99731 0.23388 0.0
C863 C 0.82531 0.98578 0.24795 0.0
C864 C 0.8269 0.02648 0.2523 0.0
C865 C 0.81716 0.99516 0.26428 0.0
C866 C 0.81812 0.05714 0.27073 0.0
C867 C 0.83563 0.07932 0.24166 0.0
N868 N 0.81807 0.01497 0.26596 0.0
N869 N 0.83531 0.05948 0.24055 0.0
H870 H 0.5099 0.36741 0.74748 0.0
H871 H 0.42327 0.31231 0.80275 0.0
H872 H 0.51727 0.33466 0.80094 0.0
H873 H 0.41755 0.33915 0.74591 0.0
H874 H 0.45604 0.32607 0.80551 0.0
H875 H 0.47465 0.36286 0.75 0.0
C876 C 0.50411 0.3595 0.75992 0.0
C877 C 0.51661 0.35114 0.77386 0.0
C878 C 0.44752 0.32916 0.79254 0.0
C879 C 0.47622 0.34577 0.77675 0.0
C880 C 0.42877 0.32135 0.79097 0.0
C881 C 0.41773 0.32432 0.77393 0.0
C882 C 0.45534 0.34 0.77697 0.0
C883 C 0.4256 0.33628 0.75922 0.0
C884 C 0.48395 0.35687 0.76131 0.0
C885 C 0.50822 0.34118 0.78973 0.0
N886 N 0.444 0.34348 0.76098 0.0
N887 N 0.48857 0.33858 0.79061 0.0
H888 H 0.19569 0.04515 0.78039 0.0
H889 H 0.21235 0.94497 0.722 0.0
H890 H 0.22123 0.04257 0.72281 0.0
H891 H 0.18079 0.94874 0.77645 0.0
H892 H 0.2156 0.98063 0.72188 0.0
H893 H 0.18946 0.01 0.77882 0.0
C894 C 0.1998 0.03725 0.7673 0.0
C895 C 0.20907 0.0469 0.75173 0.0
C896 C 0.20792 0.97366 0.73383 0.0
C897 C 0.2022 0.00641 0.74995 0.0
C898 C 0.20611 0.95327 0.73395 0.0
C899 C 0.19633 0.94377 0.7493 0.0
C900 C 0.19998 0.98472 0.74921 0.0
C901 C 0.18849 0.95537 0.76432 0.0
C902 C 0.19628 0.01712 0.76644 0.0
C903 C 0.21404 0.03581 0.73517 0.0
N904 N 0.19054 0.97517 0.76393 0.0
N905 N 0.21071 0.01616 0.73479 0.0
H906 H 0.46931 0.68209 0.21224 0.0
H907 H 0.57547 0.64387 0.24322 0.0
H908 H 0.48006 0.64661 0.26334 0.0
H909 H 0.56457 0.68157 0.19375 0.0
H910 H 0.54052 0.64398 0.25048 0.0
H911 H 0.50412 0.68114 0.20471 0.0
C912 C 0.47898 0.67404 0.22185 0.0
C913 C 0.47175 0.66445 0.23847 0.0
C914 C 0.54579 0.65223 0.23804 0.0
C915 C 0.51168 0.66335 0.22997 0.0
C916 C 0.56575 0.65219 0.2339 0.0
C917 C 0.57298 0.66274 0.21787 0.0
C918 C 0.53296 0.66287 0.22604 0.0
C919 C 0.55968 0.67323 0.20628 0.0
C920 C 0.49887 0.67353 0.21756 0.0
C921 C 0.48498 0.65424 0.25039 0.0
N922 N 0.54034 0.67302 0.21059 0.0
N923 N 0.5043 0.65399 0.24592 0.0
H924 H 0.82584 0.0271 0.75872 0.0
H925 H 0.78334 0.92937 0.70983 0.0
H926 H 0.78516 0.02708 0.71055 0.0
H927 H 0.82102 0.92947 0.7604 0.0
H928 H 0.7832 0.96515 0.71035 0.0
H929 H 0.82366 0.9914 0.76007 0.0
C930 C 0.81638 0.01962 0.74848 0.0
C931 C 0.80572 0.03016 0.73446 0.0
C932 C 0.79143 0.95735 0.72139 0.0
C933 C 0.80321 0.98919 0.73587 0.0
C934 C 0.79151 0.93689 0.72111 0.0
C935 C 0.80226 0.92634 0.73506 0.0
C936 C 0.80223 0.96741 0.73568 0.0
C937 C 0.81254 0.93694 0.74932 0.0
C938 C 0.81514 0.99921 0.74925 0.0
C939 C 0.79368 0.01961 0.72159 0.0
N940 N 0.81234 0.95685 0.74921 0.0
N941 N 0.79283 0.99975 0.72255 0.0
H942 H 0.57249 0.3226 0.27823 0.0
H943 H 0.47989 0.34555 0.21208 0.0
H944 H 0.56911 0.30955 0.21658 0.0
H945 H 0.48459 0.3628 0.27258 0.0
H946 H 0.51433 0.33653 0.21234 0.0
H947 H 0.54236 0.34154 0.27545 0.0
C948 C 0.56559 0.32396 0.26405 0.0
C949 C 0.57317 0.31419 0.24769 0.0
C950 C 0.50792 0.34253 0.2255 0.0
C951 C 0.53859 0.3357 0.24444 0.0
C952 C 0.48823 0.34769 0.22535 0.0
C953 C 0.47926 0.35465 0.24242 0.0
C954 C 0.5187 0.34414 0.2429 0.0
C955 C 0.49085 0.35731 0.25913 0.0
C956 C 0.54836 0.33476 0.26247 0.0
C957 C 0.56367 0.3166 0.22966 0.0
N958 N 0.5099 0.35177 0.25904 0.0
N959 N 0.54675 0.32688 0.22858 0.0
H960 H 0.2949 0.19587 0.08092 0.0
H961 H 0.22761 0.14712 0.99853 0.0
H962 H 0.24121 0.16519 0.09318 0.0
H963 H 0.28159 0.17723 0.9861 0.0
H964 H 0.23298 0.15263 0.03336 0.0
H965 H 0.29062 0.18871 0.0462 0.0
C966 C 0.28218 0.18768 0.07632 0.0
C967 C 0.26837 0.18116 0.09001 0.0
C968 C 0.24371 0.15795 0.02303 0.0
C969 C 0.26344 0.17281 0.05025 0.0
C970 C 0.24068 0.15476 0.00312 0.0
C971 C 0.25413 0.16179 0.98933 0.0
C972 C 0.26028 0.16831 0.02926 0.0
C973 C 0.27081 0.17157 0.99618 0.0
C974 C 0.27977 0.18355 0.05648 0.0
C975 C 0.25221 0.17056 0.08317 0.0
N976 N 0.27335 0.17463 0.01565 0.0
N977 N 0.2502 0.16672 0.06379 0.0
H978 H 0.28617 0.80283 0.07007 0.0
H979 H 0.23448 0.81378 0.96606 0.0
H980 H 0.22911 0.82854 0.06257 0.0
H981 H 0.29501 0.79783 0.97331 0.0
H982 H 0.23234 0.82005 0.00116 0.0
H983 H 0.28959 0.80099 0.03461 0.0
C984 C 0.27433 0.80807 0.06098 0.0
C985 C 0.25728 0.81577 0.06936 0.0
C986 C 0.24615 0.81538 0.99504 0.0
C987 C 0.26114 0.81373 0.02862 0.0
C988 C 0.24741 0.81185 0.97497 0.0
C989 C 0.26493 0.80515 0.9667 0.0
C990 C 0.26247 0.81201 0.007 0.0
C991 C 0.28119 0.80294 0.97901 0.0
C992 C 0.27635 0.8071 0.0407 0.0
C993 C 0.2425 0.82245 0.05678 0.0
N994 N 0.2795 0.80615 0.99855 0.0
N995 N 0.24473 0.82118 0.03706 0.0
H996 H 0.64748 0.7186 0.50812 0.0
H997 H 0.69844 0.78086 0.4232 0.0
H998 H 0.67748 0.77328 0.51788 0.0
H999 H 0.67699 0.72195 0.41565 0.0
H1000 H 0.68572 0.78081 0.45657 0.0
H1001 H 0.65327 0.72211 0.47308 0.0
C1002 C 0.65513 0.73145 0.5029 0.0
C1003 C 0.66218 0.74557 0.51602 0.0
C1004 C 0.68361 0.76798 0.44753 0.0
C1005 C 0.66888 0.74965 0.47584 0.0
C1006 C 0.69079 0.76802 0.42843 0.0
C1007 C 0.68898 0.75129 0.41664 0.0
C1008 C 0.6745 0.75112 0.45492 0.0
C1009 C 0.67888 0.73511 0.42424 0.0
C1010 C 0.65845 0.73342 0.48287 0.0
C1011 C 0.67191 0.76194 0.50834 0.0
N1012 N 0.67218 0.73537 0.44293 0.0
N1013 N 0.67508 0.76347 0.48878 0.0
H1014 H 0.71166 0.19077 0.03767 0.0
H1015 H 0.76663 0.17307 0.93658 0.0
H1016 H 0.774 0.1835 0.03212 0.0
H1017 H 0.70627 0.19049 0.94153 0.0
H1018 H 0.76776 0.16826 0.97193 0.0
H1019 H 0.70796 0.18203 0.00328 0.0
C1020 C 0.72456 0.18696 0.02935 0.0
C1021 C 0.74323 0.18827 0.03773 0.0
C1022 C 0.75418 0.17282 0.96524 0.0
C1023 C 0.73905 0.1784 0.99825 0.0
C1024 C 0.75348 0.17551 0.94502 0.0
C1025 C 0.73642 0.18257 0.93609 0.0
C1026 C 0.7377 0.17721 0.97663 0.0
C1027 C 0.71982 0.18532 0.94781 0.0
C1028 C 0.72242 0.18203 0.00967 0.0
C1029 C 0.75935 0.18296 0.02623 0.0
N1030 N 0.72096 0.1829 0.9675 0.0
N1031 N 0.75692 0.17855 0.00701 0.0
H1032 H 0.34356 0.27738 0.52975 0.0
H1033 H 0.30662 0.22374 0.43269 0.0
H1034 H 0.3095 0.22424 0.52994 0.0
H1035 H 0.34662 0.27254 0.43221 0.0
H1036 H 0.30702 0.22419 0.46833 0.0
H1037 H 0.34482 0.27602 0.4941 0.0
C1038 C 0.33646 0.26533 0.52232 0.0
C1039 C 0.32635 0.25093 0.53287 0.0
C1040 C 0.31573 0.2348 0.46045 0.0
C1041 C 0.32758 0.2494 0.492 0.0
C1042 C 0.31545 0.23461 0.44006 0.0
C1043 C 0.32659 0.24816 0.4294 0.0
C1044 C 0.32716 0.24869 0.47032 0.0
C1045 C 0.33779 0.26184 0.43981 0.0
C1046 C 0.33717 0.26459 0.50194 0.0
C1047 C 0.31746 0.23567 0.52243 0.0
N1048 N 0.33777 0.26177 0.45968 0.0
N1049 N 0.31818 0.23538 0.50258 0.0
H1050 H 0.7595 0.83264 0.04584 0.0
H1051 H 0.69904 0.80939 0.94877 0.0
H1052 H 0.69691 0.83806 0.04106 0.0
H1053 H 0.76185 0.80591 0.95214 0.0
H1054 H 0.69845 0.82353 0.9815 0.0
H1055 H 0.76116 0.8262 0.01068 0.0
C1056 C 0.74613 0.83266 0.03739 0.0
C1057 C 0.72802 0.83568 0.04648 0.0
C1058 C 0.71239 0.81988 0.97502 0.0
C1059 C 0.7298 0.82826 0.00627 0.0
C1060 C 0.71274 0.81183 0.95628 0.0
C1061 C 0.7305 0.80624 0.94776 0.0
C1062 C 0.72993 0.82223 0.98541 0.0
C1063 C 0.7478 0.80988 0.95817 0.0
C1064 C 0.74709 0.82898 0.01731 0.0
C1065 C 0.71119 0.83563 0.03476 0.0
N1066 N 0.74706 0.81742 0.97654 0.0
N1067 N 0.71248 0.83181 0.01534 0.0
H1068 H 0.63903 0.26753 0.57588 0.0
H1069 H 0.68137 0.22417 0.47562 0.0
H1070 H 0.67308 0.21449 0.57231 0.0
H1071 H 0.64764 0.2774 0.47932 0.0
H1072 H 0.67804 0.22005 0.51096 0.0
H1073 H 0.64178 0.27124 0.54046 0.0
C1074 C 0.64711 0.25668 0.56767 0.0
C1075 C 0.65584 0.24068 0.57711 0.0
C1076 C 0.67134 0.23262 0.50404 0.0
C1077 C 0.65901 0.2448 0.53651 0.0
C1078 C 0.67321 0.23496 0.48384 0.0
C1079 C 0.6648 0.25117 0.47448 0.0
C1080 C 0.66099 0.2466 0.51497 0.0
C1081 C 0.65439 0.26468 0.4859 0.0
C1082 C 0.64866 0.25879 0.54743 0.0
C1083 C 0.66612 0.22707 0.56568 0.0
N1084 N 0.65282 0.26211 0.50552 0.0
N1085 N 0.66741 0.22944 0.546 0.0
H1086 H 0.33754 0.74257 0.41937 0.0
H1087 H 0.30821 0.78733 0.52358 0.0
H1088 H 0.30082 0.79344 0.42631 0.0
H1089 H 0.34236 0.73475 0.51624 0.0
H1090 H 0.3058 0.79024 0.48802 0.0
H1091 H 0.33954 0.7396 0.45487 0.0
C1092 C 0.32981 0.75306 0.42835 0.0
C1093 C 0.31901 0.76829 0.41982 0.0
C1094 C 0.31384 0.77808 0.4942 0.0
C1095 C 0.32136 0.76506 0.46056 0.0
C1096 C 0.31528 0.77645 0.51451 0.0
C1097 C 0.3255 0.76076 0.52293 0.0
C1098 C 0.3227 0.76395 0.48221 0.0
C1099 C 0.33432 0.74708 0.51043 0.0
C1100 C 0.33099 0.75138 0.44865 0.0
C1101 C 0.30931 0.78146 0.43223 0.0
N1102 N 0.33271 0.74899 0.49073 0.0
N1103 N 0.31077 0.77958 0.45196 0.0
H1104 H 0.18078 0.42439 0.27284 0.0
H1105 H 0.11358 0.35443 0.27879 0.0
H1106 H 0.18576 0.40441 0.21324 0.0
H1107 H 0.11102 0.35401 0.21583 0.0
H1108 H 0.13063 0.38541 0.27767 0.0
H1109 H 0.14705 0.41306 0.27341 0.0
C1110 C 0.17467 0.41797 0.25972 0.0
C1111 C 0.18641 0.41452 0.24326 0.0
C1112 C 0.12576 0.37914 0.26402 0.0
C1113 C 0.14809 0.40062 0.24411 0.0
C1114 C 0.11596 0.36127 0.2647 0.0
C1115 C 0.1115 0.35126 0.24737 0.0
C1116 C 0.13136 0.38692 0.24581 0.0
C1117 C 0.11461 0.36098 0.22957 0.0
C1118 C 0.15543 0.41121 0.26015 0.0
C1119 C 0.1775 0.40671 0.22652 0.0
N1120 N 0.12493 0.37795 0.22923 0.0
N1121 N 0.15905 0.39956 0.22755 0.0
H1122 H 0.16348 0.67841 0.81017 0.0
H1123 H 0.17765 0.61634 0.73486 0.0
H1124 H 0.10592 0.69028 0.78767 0.0
H1125 H 0.13933 0.65692 0.70546 0.0
H1126 H 0.1631 0.62587 0.76607 0.0
H1127 H 0.16825 0.65417 0.78458 0.0
C1128 C 0.15168 0.67558 0.80002 0.0
C1129 C 0.13437 0.68645 0.80088 0.0
C1130 C 0.15766 0.63243 0.75274 0.0
C1131 C 0.13964 0.65859 0.77147 0.0
C1132 C 0.16574 0.62677 0.73486 0.0
C1133 C 0.16013 0.63634 0.7176 0.0
C1134 C 0.14399 0.64777 0.75324 0.0
C1135 C 0.14446 0.64957 0.71851 0.0
C1136 C 0.1543 0.66152 0.78553 0.0
C1137 C 0.1195 0.68218 0.78744 0.0
N1138 N 0.13722 0.65524 0.7361 0.0
N1139 N 0.12268 0.66893 0.77292 0.0
H1140 H 0.82067 0.60827 0.29082 0.0
H1141 H 0.86011 0.68442 0.2117 0.0
H1142 H 0.78826 0.62687 0.24011 0.0
H1143 H 0.86982 0.69049 0.27368 0.0
H1144 H 0.84407 0.65291 0.21773 0.0
H1145 H 0.84845 0.62824 0.27979 0.0
C1146 C 0.81969 0.61598 0.27702 0.0
C1147 C 0.80219 0.61613 0.26639 0.0
C1148 C 0.85032 0.66088 0.2299 0.0
C1149 C 0.83373 0.63861 0.25371 0.0
C1150 C 0.85959 0.67876 0.22649 0.0
C1151 C 0.86603 0.69016 0.24227 0.0
C1152 C 0.84786 0.65427 0.24916 0.0
C1153 C 0.86482 0.68222 0.26115 0.0
C1154 C 0.83545 0.6274 0.27082 0.0
C1155 C 0.8015 0.62653 0.24875 0.0
N1156 N 0.85564 0.66484 0.26412 0.0
N1157 N 0.81701 0.63749 0.24301 0.0
H1158 H 0.86105 0.28003 0.74533 0.0
H1159 H 0.82099 0.37316 0.79206 0.0
H1160 H 0.89013 0.30487 0.79535 0.0
H1161 H 0.81692 0.36453 0.72978 0.0
H1162 H 0.84866 0.35055 0.79303 0.0
H1163 H 0.84693 0.31209 0.73804 0.0
C1164 C 0.86487 0.2924 0.75446 0.0
C1165 C 0.87669 0.28983 0.77098 0.0
C1166 C 0.84212 0.35407 0.77905 0.0
C1167 C 0.86007 0.32638 0.76316 0.0
C1168 C 0.82636 0.36703 0.77849 0.0
C1169 C 0.81651 0.37057 0.76085 0.0
C1170 C 0.84767 0.34416 0.76195 0.0
C1171 C 0.82405 0.36219 0.7437 0.0
C1172 C 0.85683 0.3107 0.7503 0.0
C1173 C 0.88113 0.30629 0.78242 0.0
N1174 N 0.83881 0.34891 0.74476 0.0
N1175 N 0.87238 0.32378 0.77861 0.0
H1176 H 0.27039 0.19023 0.38011 0.0
H1177 H 0.21748 0.10844 0.31672 0.0
H1178 H 0.29913 0.15394 0.33728 0.0
H1179 H 0.19106 0.16212 0.3365 0.0
H1180 H 0.24635 0.11579 0.33675 0.0
H1181 H 0.24104 0.17014 0.37674 0.0
C1182 C 0.27081 0.17761 0.37054 0.0
C1183 C 0.28704 0.17405 0.35855 0.0
C1184 C 0.23391 0.12556 0.33724 0.0
C1185 C 0.25358 0.1511 0.35471 0.0
C1186 C 0.21742 0.12132 0.32595 0.0
C1187 C 0.20207 0.13484 0.32489 0.0
C1188 C 0.23476 0.14325 0.34764 0.0
C1189 C 0.20274 0.15145 0.33686 0.0
C1190 C 0.25401 0.16622 0.36858 0.0
C1191 C 0.28676 0.15744 0.34648 0.0
N1192 N 0.21895 0.15533 0.34758 0.0
N1193 N 0.27013 0.14678 0.34458 0.0
H1194 H 0.34303 0.72084 0.89536 0.0
H1195 H 0.38569 0.78772 0.8148 0.0
H1196 H 0.33924 0.78381 0.89682 0.0
H1197 H 0.39814 0.72598 0.81905 0.0
H1198 H 0.3766 0.78791 0.84925 0.0
H1199 H 0.37089 0.72335 0.87335 0.0
C1200 C 0.34851 0.73523 0.89161 0.0
C1201 C 0.33845 0.75213 0.89748 0.0
C1202 C 0.38179 0.77439 0.84283 0.0
C1203 C 0.3699 0.75512 0.8717 0.0
C1204 C 0.387 0.77429 0.82311 0.0
C1205 C 0.39215 0.75669 0.81387 0.0
C1206 C 0.38133 0.75669 0.85329 0.0
C1207 C 0.39391 0.73982 0.82546 0.0
C1208 C 0.36438 0.73667 0.87891 0.0
C1209 C 0.34635 0.77038 0.89239 0.0
N1210 N 0.38799 0.74012 0.84443 0.0
N1211 N 0.36122 0.77139 0.87927 0.0
H1212 H 0.79226 0.81623 0.36055 0.0
H1213 H 0.74942 0.88066 0.28084 0.0
H1214 H 0.72985 0.82154 0.35442 0.0
H1215 H 0.80267 0.89814 0.30941 0.0
H1216 H 0.74078 0.86117 0.30953 0.0
H1217 H 0.79613 0.84811 0.34475 0.0
C1218 C 0.77934 0.82439 0.35643 0.0
C1219 C 0.76073 0.81611 0.35854 0.0
C1220 C 0.75408 0.86972 0.30982 0.0
C1221 C 0.76507 0.85225 0.33994 0.0
C1222 C 0.75899 0.88083 0.29344 0.0
C1223 C 0.77677 0.89092 0.29282 0.0
C1224 C 0.7674 0.86811 0.32533 0.0
C1225 C 0.78877 0.8906 0.30942 0.0
C1226 C 0.78155 0.84259 0.34741 0.0
C1227 C 0.74448 0.82733 0.35299 0.0
N1228 N 0.78415 0.87887 0.32483 0.0
N1229 N 0.74704 0.84457 0.34339 0.0
H1230 H 0.68099 0.28598 0.8806 0.0
H1231 H 0.6141 0.26783 0.79515 0.0
H1232 H 0.66577 0.22675 0.86533 0.0
H1233 H 0.60284 0.31723 0.8326 0.0
H1234 H 0.63068 0.25139 0.82222 0.0
H1235 H 0.65038 0.29733 0.86611 0.0
C1236 C 0.6708 0.2753 0.87485 0.0
C1237 C 0.67588 0.25544 0.87403 0.0
C1238 C 0.62408 0.26557 0.82474 0.0
C1239 C 0.64136 0.26836 0.8567 0.0
C1240 C 0.61468 0.27495 0.80928 0.0
C1241 C 0.60724 0.29389 0.8117 0.0
C1242 C 0.6267 0.27554 0.84249 0.0
C1243 C 0.60839 0.30258 0.83023 0.0
C1244 C 0.65337 0.28177 0.86654 0.0
C1245 C 0.66232 0.24219 0.86628 0.0
N1246 N 0.6185 0.29357 0.84481 0.0
N1247 N 0.64593 0.24895 0.85731 0.0
H1248 H 0.26567 0.80605 0.59771 0.0
H1249 H 0.2469 0.87357 0.6913 0.0
H1250 H 0.30341 0.80926 0.64803 0.0
H1251 H 0.20067 0.84789 0.65714 0.0
H1252 H 0.27069 0.86102 0.66763 0.0
H1253 H 0.24492 0.83164 0.61229 0.0
C1254 C 0.26982 0.81249 0.61157 0.0
C1255 C 0.28605 0.80541 0.62187 0.0
C1256 C 0.25528 0.85869 0.66502 0.0
C1257 C 0.26279 0.8347 0.63831 0.0
C1258 C 0.24169 0.86603 0.67839 0.0
C1259 C 0.22185 0.86153 0.67625 0.0
C1260 C 0.24887 0.84703 0.64936 0.0
C1261 C 0.2159 0.85148 0.65937 0.0
C1262 C 0.25801 0.82701 0.61986 0.0
C1263 C 0.29083 0.81414 0.63979 0.0
N1264 N 0.22938 0.8443 0.6467 0.0
N1265 N 0.2792 0.82825 0.64749 0.0
H1266 H 0.62878 0.80832 0.13313 0.0
H1267 H 0.6554 0.70029 0.11467 0.0
H1268 H 0.66776 0.78961 0.08729 0.0
H1269 H 0.60814 0.71836 0.15221 0.0
H1270 H 0.65351 0.73165 0.09781 0.0
H1271 H 0.61425 0.77578 0.13351 0.0
C1272 C 0.63389 0.79755 0.12272 0.0
C1273 C 0.64996 0.8015 0.11064 0.0
C1274 C 0.64317 0.72861 0.10938 0.0
C1275 C 0.63376 0.76402 0.11136 0.0
C1276 C 0.64425 0.71064 0.11902 0.0
C1277 C 0.63234 0.70694 0.13529 0.0
C1278 C 0.63042 0.74312 0.11637 0.0
C1279 C 0.61792 0.72075 0.14002 0.0
C1280 C 0.62561 0.77889 0.12297 0.0
C1281 C 0.6557 0.78709 0.09719 0.0
N1282 N 0.61774 0.73846 0.13099 0.0
N1283 N 0.64802 0.76879 0.09833 0.0
H1284 H 0.77589 0.11941 0.63748 0.0
H1285 H 0.66891 0.14023 0.66908 0.0
H1286 H 0.74571 0.08711 0.6824 0.0
H1287 H 0.69705 0.16826 0.62011 0.0
H1288 H 0.69326 0.11424 0.66789 0.0
H1289 H 0.74454 0.12995 0.62432 0.0
C1290 C 0.76263 0.11396 0.64417 0.0
C1291 C 0.76342 0.10287 0.66142 0.0
C1292 C 0.69389 0.12581 0.65709 0.0
C1293 C 0.72748 0.1154 0.64683 0.0
C1294 C 0.67997 0.14069 0.65778 0.0
C1295 C 0.68127 0.15673 0.64502 0.0
C1296 C 0.70947 0.12717 0.64381 0.0
C1297 C 0.69568 0.15635 0.63045 0.0
C1298 C 0.74469 0.12009 0.63671 0.0
C1299 C 0.7458 0.09597 0.66928 0.0
N1300 N 0.70952 0.14208 0.63056 0.0
N1301 N 0.72854 0.10286 0.66229 0.0
H1302 H 0.36771 0.2113 0.17808 0.0
H1303 H 0.36328 0.32219 0.18008 0.0
H1304 H 0.33256 0.24297 0.13643 0.0
H1305 H 0.41563 0.29227 0.19812 0.0
H1306 H 0.35447 0.294 0.16001 0.0
H1307 H 0.38871 0.23996 0.18154 0.0
C1308 C 0.3648 0.22408 0.16917 0.0
C1309 C 0.34815 0.22492 0.15726 0.0
C1310 C 0.36819 0.29376 0.16786 0.0
C1311 C 0.37172 0.25794 0.16161 0.0
C1312 C 0.37318 0.30985 0.17934 0.0
C1313 C 0.39007 0.30939 0.19087 0.0
C1314 C 0.37981 0.27684 0.16852 0.0
C1315 C 0.40245 0.29311 0.18943 0.0
C1316 C 0.37679 0.24047 0.17115 0.0
C1317 C 0.34514 0.24178 0.14593 0.0
N1318 N 0.39678 0.27719 0.17892 0.0
N1319 N 0.35644 0.25786 0.14885 0.0
H1320 H 0.85173 0.6432 0.69689 0.0
H1321 H 0.89125 0.68167 0.7816 0.0
H1322 H 0.81109 0.6129 0.73429 0.0
H1323 H 0.83137 0.67559 0.80005 0.0
H1324 H 0.88536 0.65713 0.75596 0.0
H1325 H 0.8688 0.65526 0.72577 0.0
C1326 C 0.84688 0.63844 0.71119 0.0
C1327 C 0.82983 0.62723 0.7132 0.0
C1328 C 0.8736 0.66107 0.76576 0.0
C1329 C 0.84909 0.64124 0.74635 0.0
C1330 C 0.87698 0.67494 0.78045 0.0
C1331 C 0.86164 0.68093 0.79265 0.0
C1332 C 0.85482 0.65306 0.76353 0.0
C1333 C 0.84348 0.67168 0.79067 0.0
C1334 C 0.85667 0.64532 0.72772 0.0
C1335 C 0.82413 0.62155 0.73206 0.0
N1336 N 0.84055 0.6583 0.77632 0.0
N1337 N 0.83337 0.62915 0.74793 0.0
H1338 H 0.85351 0.30769 0.18018 0.0
H1339 H 0.87396 0.32242 0.28871 0.0
H1340 H 0.91188 0.29821 0.20169 0.0
H1341 H 0.83462 0.36134 0.25845 0.0
H1342 H 0.88963 0.3147 0.25751 0.0
H1343 H 0.8468 0.32847 0.20851 0.0
C1344 C 0.86502 0.31033 0.19071 0.0
C1345 C 0.88322 0.30121 0.18872 0.0
C1346 C 0.87796 0.32538 0.2578 0.0
C1347 C 0.87553 0.32445 0.22135 0.0
C1348 C 0.86902 0.32981 0.2756 0.0
C1349 C 0.85278 0.34232 0.27614 0.0
C1350 C 0.87022 0.3331 0.24044 0.0
C1351 C 0.84701 0.35151 0.25871 0.0
C1352 C 0.86124 0.32223 0.20681 0.0
C1353 C 0.89767 0.30505 0.20274 0.0
N1354 N 0.85534 0.34627 0.24147 0.0
N1355 N 0.89336 0.316 0.21878 0.0
H1356 H 0.15769 0.35634 0.81261 0.0
H1357 H 0.12817 0.37028 0.70373 0.0
H1358 H 0.11055 0.32519 0.7847 0.0
H1359 H 0.17178 0.40502 0.73306 0.0
H1360 H 0.11446 0.36136 0.73537 0.0
H1361 H 0.1564 0.38088 0.78678 0.0
C1362 C 0.14677 0.35487 0.80125 0.0
C1363 C 0.13458 0.33839 0.80051 0.0
C1364 C 0.12667 0.37141 0.73493 0.0
C1365 C 0.13323 0.36631 0.77065 0.0
C1366 C 0.13443 0.37663 0.71681 0.0
C1367 C 0.15155 0.38787 0.71579 0.0
C1368 C 0.13634 0.3772 0.75209 0.0
C1369 C 0.15882 0.39597 0.73317 0.0
C1370 C 0.14601 0.36894 0.78649 0.0
C1371 C 0.12047 0.33748 0.78567 0.0
N1372 N 0.15157 0.38996 0.75066 0.0
N1373 N 0.12051 0.35097 0.77105 0.0
H1374 H 0.17431 0.60069 0.26276 0.0
H1375 H 0.09576 0.66115 0.20429 0.0
H1376 H 0.17831 0.61644 0.2018 0.0
H1377 H 0.09791 0.65554 0.26706 0.0
H1378 H 0.11807 0.63344 0.20146 0.0
H1379 H 0.1397 0.60921 0.26225 0.0
C1380 C 0.16782 0.6054 0.24911 0.0
C1381 C 0.1794 0.60847 0.23245 0.0
C1382 C 0.11318 0.63788 0.21584 0.0
C1383 C 0.13981 0.61839 0.23186 0.0
C1384 C 0.10027 0.65363 0.21748 0.0
C1385 C 0.0955 0.66111 0.23598 0.0
C1386 C 0.12131 0.62965 0.23281 0.0
C1387 C 0.10166 0.6506 0.25251 0.0
C1388 C 0.14804 0.61031 0.24885 0.0
C1389 C 0.17008 0.61434 0.21514 0.0
N1390 N 0.11467 0.63572 0.25056 0.0
N1391 N 0.15094 0.61953 0.2154 0.0
H1392 H 0.79333 0.82993 0.64114 0.0
H1393 H 0.6865 0.79522 0.64022 0.0
H1394 H 0.74952 0.85824 0.6764 0.0
H1395 H 0.72226 0.78868 0.58882 0.0
H1396 H 0.70871 0.8204 0.65224 0.0
H1397 H 0.76768 0.81757 0.6196 0.0
C1398 C 0.77834 0.83412 0.64394 0.0
C1399 C 0.7735 0.84494 0.66068 0.0
C1400 C 0.71155 0.81379 0.63814 0.0
C1401 C 0.74407 0.83027 0.63654 0.0
C1402 C 0.69893 0.79932 0.63134 0.0
C1403 C 0.70272 0.78974 0.61363 0.0
C1404 C 0.72843 0.81832 0.62744 0.0
C1405 C 0.71891 0.7957 0.6026 0.0
C1406 C 0.76369 0.827 0.63167 0.0
C1407 C 0.75387 0.84992 0.66366 0.0
N1408 N 0.73147 0.80931 0.60991 0.0
N1409 N 0.7398 0.84207 0.65203 0.0
H1410 H 0.6236 0.20746 0.17758 0.0
H1411 H 0.67104 0.28011 0.1052 0.0
H1412 H 0.60912 0.2689 0.1758 0.0
H1413 H 0.6747 0.21742 0.09852 0.0
H1414 H 0.64204 0.27586 0.12539 0.0
H1415 H 0.6355 0.20971 0.14407 0.0
C1416 C 0.62241 0.22131 0.16998 0.0
C1417 C 0.61592 0.23815 0.17977 0.0
C1418 C 0.64884 0.26303 0.11909 0.0
C1419 C 0.62995 0.24095 0.14149 0.0
C1420 C 0.66541 0.26547 0.10747 0.0
C1421 C 0.6757 0.24907 0.10066 0.0
C1422 C 0.64278 0.24406 0.12425 0.0
C1423 C 0.66751 0.23049 0.10382 0.0
C1424 C 0.62926 0.22262 0.1508 0.0
C1425 C 0.61443 0.25562 0.16902 0.0
N1426 N 0.65188 0.22845 0.11587 0.0
N1427 N 0.62191 0.2567 0.15067 0.0
H1428 H 0.25117 0.204 0.6338 0.0
H1429 H 0.30163 0.12118 0.68991 0.0
H1430 H 0.30739 0.183 0.61498 0.0
H1431 H 0.23888 0.12341 0.68554 0.0
H1432 H 0.30401 0.14116 0.66033 0.0
H1433 H 0.24549 0.17287 0.65048 0.0
C1434 C 0.26207 0.19256 0.63272 0.0
C1435 C 0.27975 0.19601 0.62303 0.0
C1436 C 0.28973 0.13679 0.6655 0.0
C1437 C 0.27372 0.16066 0.64271 0.0
C1438 C 0.28836 0.12534 0.68237 0.0
C1439 C 0.27003 0.12081 0.69035 0.0
C1440 C 0.27266 0.1442 0.65687 0.0
C1441 C 0.25332 0.12661 0.67996 0.0
C1442 C 0.25885 0.17479 0.64225 0.0
C1443 C 0.2935 0.18081 0.6222 0.0
N1444 N 0.25502 0.13847 0.66408 0.0
N1445 N 0.29043 0.16396 0.63239 0.0
H1446 H 0.30831 0.76304 0.13885 0.0
H1447 H 0.39939 0.73264 0.20514 0.0
H1448 H 0.3414 0.80497 0.17232 0.0
H1449 H 0.34652 0.69878 0.20038 0.0
H1450 H 0.3855 0.75683 0.18234 0.0
H1451 H 0.33039 0.73713 0.15013 0.0
C1452 C 0.32067 0.76692 0.14793 0.0
C1453 C 0.32295 0.7861 0.15487 0.0
C1454 C 0.37719 0.74385 0.186 0.0
C1455 C 0.3481 0.75667 0.16772 0.0
C1456 C 0.38508 0.73009 0.19892 0.0
C1457 C 0.37394 0.71389 0.20475 0.0
C1458 C 0.35831 0.74103 0.17855 0.0
C1459 C 0.35544 0.71124 0.1964 0.0
C1460 C 0.33312 0.75212 0.15449 0.0
C1461 C 0.33907 0.7903 0.16681 0.0
N1462 N 0.34817 0.7247 0.18375 0.0
N1463 N 0.35094 0.77564 0.17306 0.0
H1464 H 0.70418 0.20479 0.35306 0.0
H1465 H 0.81437 0.18891 0.3501 0.0
H1466 H 0.73783 0.21461 0.40537 0.0
H1467 H 0.77617 0.15023 0.31822 0.0
H1468 H 0.78727 0.19721 0.37188 0.0
H1469 H 0.73016 0.18362 0.34064 0.0
C1470 C 0.71691 0.20213 0.36208 0.0
C1471 C 0.71898 0.21145 0.38019 0.0
C1472 C 0.78498 0.18647 0.36048 0.0
C1473 C 0.74892 0.18777 0.36589 0.0
C1474 C 0.80043 0.18173 0.34805 0.0
C1475 C 0.79744 0.16904 0.33221 0.0
C1476 C 0.76633 0.17891 0.35664 0.0
C1477 C 0.7791 0.16013 0.33021 0.0
C1478 C 0.73168 0.19 0.35504 0.0
C1479 C 0.73572 0.20759 0.39134 0.0
N1480 N 0.76406 0.16566 0.34193 0.0
N1481 N 0.75034 0.19642 0.38379 0.0
H1482 H 0.27339 0.23342 0.88202 0.0
H1483 H 0.36474 0.21349 0.82439 0.0
H1484 H 0.31192 0.18798 0.90257 0.0
H1485 H 0.34789 0.27339 0.83465 0.0
H1486 H 0.34735 0.20381 0.85412 0.0
H1487 H 0.30102 0.24908 0.86559 0.0
C1488 C 0.28779 0.22702 0.88342 0.0
C1489 C 0.29046 0.2094 0.89353 0.0
C1490 C 0.34803 0.21917 0.85023 0.0
C1491 C 0.32189 0.22682 0.87438 0.0
C1492 C 0.35796 0.22468 0.83331 0.0
C1493 C 0.35763 0.24422 0.82707 0.0
C1494 C 0.33713 0.23319 0.86049 0.0
C1495 C 0.34851 0.25817 0.83902 0.0
C1496 C 0.30355 0.23598 0.87414 0.0
C1497 C 0.30936 0.20162 0.89492 0.0
N1498 N 0.33806 0.2523 0.85486 0.0
N1499 N 0.32431 0.21009 0.88494 0.0
H1500 H 0.28809 0.86562 0.32791 0.0
H1501 H 0.18077 0.83915 0.31375 0.0
H1502 H 0.25967 0.82469 0.36659 0.0
H1503 H 0.20012 0.89779 0.30094 0.0
H1504 H 0.20904 0.83475 0.33508 0.0
H1505 H 0.25628 0.8799 0.32018 0.0
C1506 C 0.27524 0.86004 0.33527 0.0
C1507 C 0.2765 0.84366 0.34759 0.0
C1508 C 0.2069 0.84876 0.32799 0.0
C1509 C 0.2401 0.85956 0.33839 0.0
C1510 C 0.19082 0.85122 0.31575 0.0
C1511 C 0.18827 0.86878 0.30551 0.0
C1512 C 0.22086 0.86373 0.32946 0.0
C1513 C 0.20164 0.88401 0.30862 0.0
C1514 C 0.25708 0.86819 0.33082 0.0
C1515 C 0.25938 0.83714 0.35682 0.0
N1516 N 0.21769 0.88097 0.31994 0.0
N1517 N 0.24181 0.84472 0.35157 0.0
H1518 H 0.60528 0.77926 0.80799 0.0
H1519 H 0.65273 0.71304 0.88591 0.0
H1520 H 0.59284 0.71761 0.81341 0.0
H1521 H 0.65577 0.77606 0.88742 0.0
H1522 H 0.6235 0.71527 0.86573 0.0
H1523 H 0.616 0.77972 0.84196 0.0
C1524 C 0.6043 0.76591 0.81649 0.0
C1525 C 0.59871 0.74825 0.80767 0.0
C1526 C 0.63017 0.72866 0.87093 0.0
C1527 C 0.61143 0.74855 0.84649 0.0
C1528 C 0.64685 0.72737 0.88256 0.0
C1529 C 0.65705 0.74438 0.88784 0.0
C1530 C 0.62395 0.74706 0.86418 0.0
C1531 C 0.64859 0.76254 0.88336 0.0
C1532 C 0.61045 0.76617 0.83594 0.0
C1533 C 0.5974 0.7315 0.81949 0.0
N1534 N 0.63289 0.76342 0.87124 0.0
N1535 N 0.60426 0.73193 0.83813 0.0
H1536 H 0.07421 0.23677 0.2319 0.0
H1537 H 0.11051 0.15836 0.30596 0.0
H1538 H 0.08627 0.24654 0.29302 0.0
H1539 H 0.10805 0.15135 0.24353 0.0
H1540 H 0.08687 0.18508 0.30361 0.0
H1541 H 0.07151 0.20176 0.23843 0.0
C1542 C 0.0756 0.23168 0.24683 0.0
C1543 C 0.08129 0.24451 0.26181 0.0
C1544 C 0.09081 0.17717 0.29048 0.0
C1545 C 0.07851 0.20444 0.26929 0.0
C1546 C 0.10411 0.16173 0.29188 0.0
C1547 C 0.11124 0.15284 0.27489 0.0
C1548 C 0.08506 0.1839 0.27192 0.0
C1549 C 0.10286 0.15796 0.25694 0.0
C1550 C 0.07413 0.21163 0.25054 0.0
C1551 C 0.08253 0.23708 0.2809 0.0
N1552 N 0.09059 0.17353 0.25584 0.0
N1553 N 0.08171 0.21747 0.28401 0.0
H1554 H 0.31706 0.73749 0.74479 0.0
H1555 H 0.27103 0.63594 0.7088 0.0
H1556 H 0.35108 0.68457 0.73949 0.0
H1557 H 0.24057 0.69124 0.70945 0.0
H1558 H 0.29973 0.65222 0.72288 0.0
H1559 H 0.28817 0.71948 0.73484 0.0
C1560 C 0.31847 0.72204 0.7416 0.0
C1561 C 0.33662 0.71259 0.74286 0.0
C1562 C 0.2867 0.66072 0.72002 0.0
C1563 C 0.30336 0.69176 0.73129 0.0
C1564 C 0.27031 0.65143 0.71204 0.0
C1565 C 0.25339 0.66226 0.70781 0.0
C1566 C 0.28609 0.68091 0.72387 0.0
C1567 C 0.2533 0.6823 0.71229 0.0
C1568 C 0.30191 0.71173 0.73589 0.0
C1569 C 0.33742 0.69247 0.73866 0.0
N1570 N 0.26936 0.69094 0.72 0.0
N1571 N 0.32103 0.68273 0.73295 0.0
H1572 H 0.86302 0.88534 0.2087 0.0
H1573 H 0.88998 0.8005 0.27478 0.0
H1574 H 0.86179 0.88944 0.27143 0.0
H1575 H 0.90494 0.80255 0.21359 0.0
H1576 H 0.88987 0.83614 0.27559 0.0
H1577 H 0.88804 0.86007 0.21105 0.0
C1578 C 0.86876 0.88153 0.22296 0.0
C1579 C 0.86033 0.88929 0.2399 0.0
C1580 C 0.89379 0.82886 0.26209 0.0
C1581 C 0.88801 0.85953 0.24286 0.0
C1582 C 0.8939 0.80844 0.26165 0.0
C1583 C 0.89669 0.79852 0.2439 0.0
C1584 C 0.89602 0.83937 0.24457 0.0
C1585 C 0.90214 0.80957 0.22749 0.0
C1586 C 0.88294 0.86695 0.22436 0.0
C1587 C 0.868 0.88374 0.25804 0.0
N1588 N 0.90097 0.82942 0.22804 0.0
N1589 N 0.88096 0.8687 0.2591 0.0
H1590 H 0.61894 0.39284 0.74122 0.0
H1591 H 0.71045 0.40285 0.80473 0.0
H1592 H 0.61984 0.38139 0.80304 0.0
H1593 H 0.70674 0.42278 0.74501 0.0
H1594 H 0.67512 0.4058 0.80753 0.0
H1595 H 0.64691 0.41459 0.74505 0.0
C1596 C 0.62444 0.39576 0.75578 0.0
C1597 C 0.61721 0.38532 0.77183 0.0
C1598 C 0.68203 0.41008 0.79396 0.0
C1599 C 0.64998 0.40912 0.77623 0.0
C1600 C 0.70229 0.40844 0.79237 0.0
C1601 C 0.71151 0.41181 0.77435 0.0
C1602 C 0.67093 0.41475 0.77731 0.0
C1603 C 0.70021 0.41944 0.75902 0.0
C1604 C 0.6406 0.408 0.75798 0.0
C1605 C 0.62503 0.38927 0.79033 0.0
N1606 N 0.68045 0.42006 0.76064 0.0
N1607 N 0.64142 0.40037 0.79196 0.0
H1608 H 0.09429 0.78032 0.8 0.0
H1609 H 0.1536 0.87722 0.77726 0.0
H1610 H 0.14339 0.80261 0.83245 0.0
H1611 H 0.12216 0.84393 0.73397 0.0
H1612 H 0.13701 0.85882 0.8029 0.0
H1613 H 0.09305 0.81124 0.78155 0.0
C1614 C 0.10439 0.79195 0.80364 0.0
C1615 C 0.11921 0.78887 0.81745 0.0
C1616 C 0.13318 0.85605 0.78779 0.0
C1617 C 0.1177 0.82412 0.79677 0.0
C1618 C 0.14247 0.86676 0.77309 0.0
C1619 C 0.1398 0.86156 0.75343 0.0
C1620 C 0.12111 0.84024 0.78269 0.0
C1621 C 0.12505 0.84798 0.74899 0.0
C1622 C 0.10369 0.80953 0.79313 0.0
C1623 C 0.13197 0.80433 0.82165 0.0
N1624 N 0.11668 0.83731 0.76351 0.0
N1625 N 0.13106 0.82119 0.81121 0.0
H1626 H 0.62832 0.61346 0.21201 0.0
H1627 H 0.72694 0.56441 0.24239 0.0
H1628 H 0.67861 0.60621 0.17476 0.0
H1629 H 0.68276 0.58664 0.28122 0.0
H1630 H 0.70303 0.5644 0.21571 0.0
H1631 H 0.64133 0.5884 0.23381 0.0
C1632 C 0.64173 0.6061 0.20797 0.0
C1633 C 0.65286 0.6126 0.192 0.0
C1634 C 0.69834 0.56848 0.23027 0.0
C1635 C 0.66792 0.58415 0.21707 0.0
C1636 C 0.71194 0.5683 0.24552 0.0
C1637 C 0.70678 0.57585 0.26384 0.0
C1638 C 0.67962 0.57628 0.23353 0.0
C1639 C 0.68727 0.58095 0.26716 0.0
C1640 C 0.64921 0.59182 0.22052 0.0
C1641 C 0.66989 0.60217 0.18732 0.0
N1642 N 0.67447 0.58148 0.25204 0.0
N1643 N 0.67723 0.58887 0.20013 0.0
H1644 H 0.91289 0.19644 0.74418 0.0
H1645 H 0.85586 0.09711 0.74397 0.0
H1646 H 0.88992 0.16735 0.79501 0.0
H1647 H 0.87237 0.12939 0.69241 0.0
H1648 H 0.88032 0.11516 0.76262 0.0
H1649 H 0.91007 0.16572 0.72582 0.0
C1650 C 0.90809 0.18332 0.75168 0.0
C1651 C 0.90155 0.18429 0.77102 0.0
C1652 C 0.87906 0.11787 0.74708 0.0
C1653 C 0.89765 0.14942 0.75013 0.0
C1654 C 0.86521 0.10736 0.73634 0.0
C1655 C 0.86159 0.11227 0.71676 0.0
C1656 C 0.88919 0.13338 0.73813 0.0
C1657 C 0.8743 0.12558 0.70765 0.0
C1658 C 0.90631 0.16583 0.74119 0.0
C1659 C 0.89508 0.16708 0.78005 0.0
N1660 N 0.88713 0.13611 0.71853 0.0
N1661 N 0.89293 0.15043 0.76944 0.0
H1662 H 0.38363 0.40291 0.20243 0.0
H1663 H 0.30041 0.44665 0.2659 0.0
H1664 H 0.38521 0.41066 0.26479 0.0
H1665 H 0.29565 0.42818 0.20579 0.0
H1666 H 0.33575 0.4488 0.26203 0.0
H1667 H 0.35784 0.42753 0.2003 0.0
C1668 C 0.37941 0.41072 0.21555 0.0
C1669 C 0.38625 0.4046 0.23385 0.0
C1670 C 0.32693 0.44488 0.2495 0.0
C1671 C 0.3562 0.43195 0.2317 0.0
C1672 C 0.30669 0.44367 0.25169 0.0
C1673 C 0.29512 0.43642 0.23637 0.0
C1674 C 0.33559 0.43866 0.23195 0.0
C1675 C 0.30408 0.43319 0.2182 0.0
C1676 C 0.36443 0.42455 0.21439 0.0
C1677 C 0.38011 0.41492 0.25042 0.0
N1678 N 0.32383 0.43382 0.21664 0.0
N1679 N 0.36496 0.42767 0.24906 0.0
H1680 H 0.29302 0.12968 0.20002 0.0
H1681 H 0.18389 0.13441 0.20605 0.0
H1682 H 0.25817 0.14357 0.14937 0.0
H1683 H 0.21598 0.09582 0.24405 0.0
H1684 H 0.20992 0.13192 0.18186 0.0
H1685 H 0.26602 0.11038 0.21292 0.0
C1686 C 0.27997 0.12807 0.19123 0.0
C1687 C 0.27756 0.13894 0.17398 0.0
C1688 C 0.21108 0.12342 0.19517 0.0
C1689 C 0.24643 0.11733 0.18892 0.0
C1690 C 0.19618 0.12487 0.20896 0.0
C1691 C 0.19796 0.11541 0.22701 0.0
C1692 C 0.22823 0.11315 0.19988 0.0
C1693 C 0.21416 0.10331 0.23023 0.0
C1694 C 0.26448 0.11705 0.19865 0.0
C1695 C 0.26048 0.13594 0.16303 0.0
N1696 N 0.22902 0.10301 0.21704 0.0
N1697 N 0.24527 0.12601 0.17103 0.0
H1698 H 0.3717 0.79254 0.61441 0.0
H1699 H 0.42304 0.73623 0.69928 0.0
H1700 H 0.3834 0.7307 0.61601 0.0
H1701 H 0.39898 0.7945 0.70263 0.0
H1702 H 0.42334 0.73884 0.66371 0.0
H1703 H 0.39639 0.79755 0.63975 0.0
C1704 C 0.38034 0.78016 0.61921 0.0
C1705 C 0.37532 0.76114 0.61346 0.0
C1706 C 0.41856 0.7513 0.67225 0.0
C1707 C 0.40294 0.7666 0.64284 0.0
C1708 C 0.41842 0.74985 0.69261 0.0
C1709 C 0.4102 0.76488 0.70395 0.0
C1710 C 0.41033 0.76783 0.66321 0.0
C1711 C 0.40484 0.78229 0.69445 0.0
C1712 C 0.39424 0.78298 0.63393 0.0
C1713 C 0.38675 0.74557 0.6203 0.0
N1714 N 0.40449 0.78309 0.6746 0.0
N1715 N 0.39965 0.74855 0.63507 0.0
H1716 H 0.74999 0.94068 0.21246 0.0
H1717 H 0.72916 0.8952 0.10954 0.0
H1718 H 0.79279 0.91863 0.17202 0.0
H1719 H 0.68642 0.90364 0.15504 0.0
H1720 H 0.75041 0.91879 0.12573 0.0
H1721 H 0.72604 0.94192 0.18579 0.0
C1722 C 0.75458 0.93703 0.19775 0.0
C1723 C 0.77321 0.92933 0.19434 0.0
C1724 C 0.7361 0.91598 0.13184 0.0
C1725 C 0.74601 0.93027 0.16404 0.0
C1726 C 0.72386 0.90258 0.1225 0.0
C1727 C 0.70635 0.89677 0.13144 0.0
C1728 C 0.73078 0.92346 0.15022 0.0
C1729 C 0.70014 0.90716 0.14803 0.0
C1730 C 0.7409 0.93758 0.18257 0.0
C1731 C 0.77845 0.9245 0.17517 0.0
N1732 N 0.7126 0.91955 0.15724 0.0
N1733 N 0.76481 0.92468 0.16079 0.0
H1734 H 0.55572 0.28555 0.73251 0.0
H1735 H 0.60707 0.25271 0.63551 0.0
H1736 H 0.58864 0.32233 0.69345 0.0
H1737 H 0.58927 0.21434 0.6823 0.0
H1738 H 0.58555 0.27801 0.64852 0.0
H1739 H 0.55345 0.26076 0.70669 0.0
C1740 C 0.56164 0.28879 0.71819 0.0
C1741 C 0.57272 0.30575 0.71513 0.0
C1742 C 0.58583 0.26381 0.65555 0.0
C1743 C 0.57047 0.27753 0.68579 0.0
C1744 C 0.59804 0.24927 0.64804 0.0
C1745 C 0.60058 0.23167 0.65833 0.0
C1746 C 0.57622 0.26067 0.67342 0.0
C1747 C 0.58825 0.22797 0.6743 0.0
C1748 C 0.56048 0.27459 0.70351 0.0
C1749 C 0.58025 0.30924 0.69641 0.0
N1750 N 0.57702 0.24257 0.68172 0.0
N1751 N 0.57934 0.29507 0.68255 0.0
H1752 H 0.22863 0.86821 0.79146 0.0
H1753 H 0.26102 0.76581 0.83844 0.0
H1754 H 0.22655 0.81243 0.76199 0.0
H1755 H 0.25937 0.81928 0.872 0.0
H1756 H 0.25079 0.78384 0.80972 0.0
H1757 H 0.24257 0.85184 0.8203 0.0
C1758 C 0.23135 0.85261 0.79094 0.0
C1759 C 0.22631 0.84166 0.7743 0.0
C1760 C 0.25264 0.79173 0.82332 0.0
C1761 C 0.24207 0.8229 0.80718 0.0
C1762 C 0.25849 0.78139 0.83982 0.0
C1763 C 0.26099 0.79098 0.85779 0.0
C1764 C 0.24916 0.81193 0.82458 0.0
C1765 C 0.25755 0.81126 0.85849 0.0
C1766 C 0.23918 0.84327 0.80744 0.0
C1767 C 0.23004 0.82147 0.77449 0.0
N1768 N 0.25175 0.82108 0.84212 0.0
N1769 N 0.23759 0.8128 0.79064 0.0
H1770 H 0.643 0.70155 0.24555 0.0
H1771 H 0.74138 0.74321 0.29297 0.0
H1772 H 0.69847 0.70469 0.21581 0.0
H1773 H 0.68722 0.73938 0.32496 0.0
H1774 H 0.72486 0.73114 0.26399 0.0
H1775 H 0.65789 0.71725 0.27411 0.0
C1776 C 0.65825 0.70563 0.24495 0.0
C1777 C 0.66952 0.70168 0.22825 0.0
C1778 C 0.7165 0.73298 0.27729 0.0
C1779 C 0.68661 0.71962 0.26088 0.0
C1780 C 0.72596 0.7399 0.29391 0.0
C1781 C 0.71572 0.74221 0.31153 0.0
C1782 C 0.6966 0.72819 0.27815 0.0
C1783 C 0.6957 0.73778 0.31172 0.0
C1784 C 0.66674 0.71457 0.26128 0.0
C1785 C 0.68921 0.70732 0.22835 0.0
N1786 N 0.6868 0.73086 0.2953 0.0
N1787 N 0.6971 0.71591 0.24439 0.0
H1788 H 0.77479 0.1104 0.77161 0.0
H1789 H 0.7391 0.21649 0.80626 0.0
H1790 H 0.77308 0.16193 0.73512 0.0
H1791 H 0.74312 0.16749 0.84588 0.0
H1792 H 0.74856 0.19524 0.77948 0.0
H1793 H 0.76052 0.12961 0.79843 0.0
C1794 C 0.7713 0.12567 0.76918 0.0
C1795 C 0.77529 0.13459 0.75112 0.0
C1796 C 0.74732 0.18902 0.79398 0.0
C1797 C 0.75899 0.15655 0.78163 0.0
C1798 C 0.74189 0.2012 0.80934 0.0
C1799 C 0.74047 0.19383 0.82842 0.0
C1800 C 0.75154 0.16924 0.79761 0.0
C1801 C 0.74408 0.1738 0.83141 0.0
C1802 C 0.76319 0.13661 0.7845 0.0
C1803 C 0.77046 0.15442 0.7488 0.0
N1804 N 0.74963 0.1622 0.81617 0.0
N1805 N 0.76266 0.16467 0.76384 0.0
H1806 H 0.38811 0.33292 0.30814 0.0
H1807 H 0.38732 0.22348 0.322 0.0
H1808 H 0.42747 0.29632 0.2754 0.0
H1809 H 0.37045 0.26268 0.36842 0.0
H1810 H 0.4084 0.24895 0.30871 0.0
H1811 H 0.38709 0.30827 0.33392 0.0
C1812 C 0.39702 0.31989 0.30672 0.0
C1813 C 0.40773 0.31648 0.28965 0.0
C1814 C 0.40064 0.25179 0.3222 0.0
C1815 C 0.40606 0.28782 0.31864 0.0
C1816 C 0.38862 0.23717 0.32985 0.0
C1817 C 0.37651 0.2412 0.34592 0.0
C1818 C 0.40019 0.27059 0.33047 0.0
C1819 C 0.37911 0.25908 0.35569 0.0
C1820 C 0.39647 0.3058 0.32143 0.0
C1821 C 0.41901 0.29941 0.2884 0.0
N1822 N 0.39012 0.27339 0.34741 0.0
N1823 N 0.41741 0.28539 0.30245 0.0
H1824 H 0.262 0.23458 0.21132 0.0
H1825 H 0.15303 0.26934 0.1873 0.0
H1826 H 0.23599 0.22878 0.15414 0.0
H1827 H 0.18063 0.27487 0.24376 0.0
H1828 H 0.18369 0.25645 0.17406 0.0
H1829 H 0.23287 0.25155 0.22254 0.0
C1830 C 0.2502 0.23698 0.20106 0.0
C1831 C 0.25143 0.2301 0.18178 0.0
C1832 C 0.18303 0.2606 0.18931 0.0
C1833 C 0.21778 0.24948 0.19464 0.0
C1834 C 0.16553 0.26796 0.19689 0.0
C1835 C 0.16418 0.27309 0.21672 0.0
C1836 C 0.19927 0.25836 0.20166 0.0
C1837 C 0.18089 0.271 0.22843 0.0
C1838 C 0.23352 0.24669 0.2075 0.0
C1839 C 0.23568 0.23379 0.16914 0.0
N1840 N 0.19765 0.26375 0.22075 0.0
N1841 N 0.21943 0.2431 0.17584 0.0
H1842 H 0.23566 0.70058 0.92326 0.0
H1843 H 0.14002 0.75461 0.90507 0.0
H1844 H 0.22442 0.76018 0.94069 0.0
H1845 H 0.14979 0.69381 0.89214 0.0
H1846 H 0.16501 0.75298 0.93044 0.0
H1847 H 0.20077 0.69392 0.92464 0.0
C1848 C 0.2259 0.71213 0.92797 0.0
C1849 C 0.23288 0.73119 0.93103 0.0
C1850 C 0.16118 0.73971 0.9227 0.0
C1851 C 0.19283 0.72385 0.93203 0.0
C1852 C 0.14666 0.74061 0.90839 0.0
C1853 C 0.14309 0.72437 0.89644 0.0
C1854 C 0.17251 0.72262 0.92448 0.0
C1855 C 0.15227 0.70666 0.90105 0.0
C1856 C 0.20591 0.70834 0.92873 0.0
C1857 C 0.21963 0.74541 0.9376 0.0
N1858 N 0.16704 0.70639 0.91429 0.0
N1859 N 0.20016 0.74164 0.93723 0.0
H1860 H 0.73299 0.70479 0.39886 0.0
H1861 H 0.78502 0.61337 0.3528 0.0
H1862 H 0.7926 0.70295 0.37858 0.0
H1863 H 0.72302 0.62298 0.35613 0.0
H1864 H 0.78995 0.63919 0.37718 0.0
H1865 H 0.73227 0.66909 0.39873 0.0
C1866 C 0.74618 0.69693 0.39506 0.0
C1867 C 0.76263 0.70691 0.3879 0.0
C1868 C 0.77521 0.63505 0.37323 0.0
C1869 C 0.76177 0.66605 0.38759 0.0
C1870 C 0.77239 0.62015 0.3595 0.0
C1871 C 0.75361 0.61629 0.35238 0.0
C1872 C 0.75911 0.646 0.37975 0.0
C1873 C 0.73774 0.6257 0.36121 0.0
C1874 C 0.74571 0.6765 0.39493 0.0
C1875 C 0.77938 0.69587 0.38359 0.0
N1876 N 0.74086 0.64043 0.37415 0.0
N1877 N 0.77835 0.67601 0.38296 0.0
H1878 H 0.78622 0.21667 0.90699 0.0
H1879 H 0.87564 0.26827 0.85724 0.0
H1880 H 0.78856 0.277 0.88854 0.0
H1881 H 0.86328 0.20651 0.85712 0.0
H1882 H 0.85214 0.27259 0.88394 0.0
H1883 H 0.82175 0.21501 0.90482 0.0
C1884 C 0.79421 0.22983 0.90328 0.0
C1885 C 0.78439 0.24678 0.89713 0.0
C1886 C 0.85523 0.25797 0.87867 0.0
C1887 C 0.82494 0.24487 0.89448 0.0
C1888 C 0.86875 0.25549 0.86357 0.0
C1889 C 0.87114 0.23705 0.85497 0.0
C1890 C 0.84413 0.24187 0.885 0.0
C1891 C 0.86167 0.22097 0.86338 0.0
C1892 C 0.81453 0.22882 0.90195 0.0
C1893 C 0.79556 0.26343 0.89277 0.0
N1894 N 0.84826 0.2238 0.8777 0.0
N1895 N 0.81524 0.26192 0.89099 0.0
H1896 H 0.28431 0.2579 0.30117 0.0
H1897 H 0.25959 0.37165 0.31427 0.0
H1898 H 0.28981 0.2879 0.3564 0.0
H1899 H 0.25517 0.33994 0.25988 0.0
H1900 H 0.26824 0.34099 0.33084 0.0
H1901 H 0.27083 0.28751 0.2868 0.0
C1902 C 0.28255 0.27069 0.31035 0.0
C1903 C 0.28837 0.27043 0.33 0.0
C1904 C 0.26526 0.34078 0.3153 0.0
C1905 C 0.27304 0.30465 0.3135 0.0
C1906 C 0.26033 0.35827 0.30583 0.0
C1907 C 0.25679 0.35844 0.28561 0.0
C1908 C 0.26662 0.32336 0.30446 0.0
C1909 C 0.25791 0.34062 0.27545 0.0
C1910 C 0.27484 0.28765 0.3021 0.0
C1911 C 0.28555 0.28745 0.34118 0.0
N1912 N 0.26278 0.3239 0.28495 0.0
N1913 N 0.27826 0.30395 0.33272 0.0
H1914 H 0.76011 0.80864 0.11907 0.0
H1915 H 0.80249 0.76166 0.21756 0.0
H1916 H 0.72816 0.80298 0.17314 0.0
H1917 H 0.83743 0.76832 0.16548 0.0
H1918 H 0.77449 0.77449 0.20005 0.0
H1919 H 0.78793 0.7919 0.13438 0.0
C1920 C 0.75888 0.80379 0.13408 0.0
C1921 C 0.74179 0.80735 0.14486 0.0
C1922 C 0.78822 0.77312 0.19235 0.0
C1923 C 0.77348 0.78821 0.1624 0.0
C1924 C 0.80428 0.76576 0.20237 0.0
C1925 C 0.82244 0.76404 0.19304 0.0
C1926 C 0.79018 0.77898 0.17278 0.0
C1927 C 0.82372 0.76944 0.17326 0.0
C1928 C 0.77477 0.79426 0.14281 0.0
C1929 C 0.74103 0.80072 0.16426 0.0
N1930 N 0.80782 0.77682 0.1638 0.0
N1931 N 0.75662 0.79157 0.17237 0.0
H1932 H 0.73916 0.31746 0.74544 0.0
H1933 H 0.69304 0.27155 0.6482 0.0
H1934 H 0.73418 0.35035 0.69178 0.0
H1935 H 0.69565 0.2425 0.70417 0.0
H1936 H 0.71046 0.29957 0.66241 0.0
H1937 H 0.72561 0.2891 0.72912 0.0
C1938 C 0.73523 0.31876 0.73016 0.0
C1939 C 0.73771 0.33646 0.72004 0.0
C1940 C 0.70731 0.28698 0.67149 0.0
C1941 C 0.72199 0.30367 0.70109 0.0
C1942 C 0.69745 0.27095 0.66339 0.0
C1943 C 0.69276 0.25466 0.67503 0.0
C1944 C 0.71258 0.28665 0.69134 0.0
C1945 C 0.69879 0.25475 0.69463 0.0
C1946 C 0.72747 0.30246 0.72081 0.0
C1947 C 0.73246 0.33704 0.70018 0.0
N1948 N 0.70828 0.27046 0.70212 0.0
N1949 N 0.72474 0.3209 0.69136 0.0
H1950 H 0.24241 0.62205 0.62724 0.0
H1951 H 0.26543 0.72089 0.57279 0.0
H1952 H 0.19942 0.66506 0.61056 0.0
H1953 H 0.30569 0.68615 0.60649 0.0
H1954 H 0.24245 0.69325 0.57269 0.0
H1955 H 0.26558 0.63722 0.60482 0.0
C1956 C 0.23751 0.63414 0.61825 0.0
C1957 C 0.21924 0.64287 0.62144 0.0
C1958 C 0.25661 0.69146 0.57948 0.0
C1959 C 0.2458 0.66047 0.59609 0.0
C1960 C 0.26972 0.70717 0.57947 0.0
C1961 C 0.28722 0.70577 0.58997 0.0
C1962 C 0.26124 0.67434 0.58994 0.0
C1963 C 0.29214 0.68781 0.5985 0.0
C1964 C 0.25084 0.64292 0.60555 0.0
C1965 C 0.21364 0.6583 0.60907 0.0
N1966 N 0.2791 0.67288 0.59856 0.0
N1967 N 0.22709 0.66705 0.59738 0.0
H1968 H 0.84658 0.86613 0.75713 0.0
H1969 H 0.90403 0.77069 0.78792 0.0
H1970 H 0.87489 0.82682 0.7168 0.0
H1971 H 0.85749 0.79847 0.81991 0.0
H1972 H 0.90585 0.79952 0.76646 0.0
H1973 H 0.86439 0.85081 0.78394 0.0
C1974 C 0.85724 0.85493 0.75373 0.0
C1975 C 0.85862 0.84715 0.73479 0.0
C1976 C 0.89571 0.79954 0.7786 0.0
C1977 C 0.87874 0.8294 0.76544 0.0
C1978 C 0.8947 0.78314 0.79084 0.0
C1979 C 0.88032 0.78215 0.80539 0.0
C1980 C 0.88244 0.81501 0.78121 0.0
C1981 C 0.86853 0.79859 0.80859 0.0
C1982 C 0.86726 0.84603 0.76913 0.0
C1983 C 0.87291 0.83282 0.73131 0.0
N1984 N 0.86967 0.81424 0.79644 0.0
N1985 N 0.88197 0.82393 0.74659 0.0
H1986 H 0.68851 0.24687 0.25483 0.0
H1987 H 0.74396 0.34566 0.28444 0.0
H1988 H 0.6611 0.30376 0.25324 0.0
H1989 H 0.76838 0.28774 0.29081 0.0
H1990 H 0.71433 0.33111 0.27068 0.0
H1991 H 0.71872 0.26216 0.26562 0.0
C1992 C 0.68884 0.26261 0.25667 0.0
C1993 C 0.67216 0.27402 0.2532 0.0
C1994 C 0.72622 0.32162 0.27504 0.0
C1995 C 0.70686 0.29168 0.26565 0.0
C1996 C 0.74315 0.32991 0.28287 0.0
C1997 C 0.75867 0.3179 0.28888 0.0
C1998 C 0.72483 0.30119 0.27315 0.0
C1999 C 0.75678 0.29759 0.28648 0.0
C2000 C 0.70613 0.27134 0.26287 0.0
C2001 C 0.67357 0.29437 0.2558 0.0
N2002 N 0.74018 0.2899 0.27886 0.0
N2003 N 0.6906 0.30255 0.26193 0.0
H2004 H 0.24434 0.17814 0.76077 0.0
H2005 H 0.14296 0.22301 0.79795 0.0
H2006 H 0.19199 0.14326 0.7652 0.0
H2007 H 0.1979 0.25388 0.79692 0.0
H2008 H 0.15919 0.19445 0.78336 0.0
H2009 H 0.22612 0.20662 0.77127 0.0
C2010 C 0.22894 0.17642 0.76393 0.0
C2011 C 0.21976 0.15813 0.76224 0.0
C2012 C 0.16761 0.20754 0.78623 0.0
C2013 C 0.19861 0.19108 0.77446 0.0
C2014 C 0.15836 0.22387 0.79449 0.0
C2015 C 0.1691 0.24087 0.79878 0.0
C2016 C 0.1877 0.20828 0.78216 0.0
C2017 C 0.18902 0.24111 0.79403 0.0
C2018 C 0.2185 0.1928 0.76994 0.0
C2019 C 0.19969 0.15704 0.76637 0.0
N2020 N 0.19762 0.2251 0.78607 0.0
N2021 N 0.18978 0.17329 0.77242 0.0
H2022 H 0.37508 0.61083 0.27163 0.0
H2023 H 0.29258 0.60054 0.19786 0.0
H2024 H 0.38043 0.62698 0.21107 0.0
H2025 H 0.29135 0.57602 0.25597 0.0
H2026 H 0.3281 0.59928 0.19849 0.0
H2027 H 0.35008 0.58705 0.26286 0.0
C2028 C 0.37165 0.60862 0.25632 0.0
C2029 C 0.3795 0.62107 0.24208 0.0
C2030 C 0.3201 0.59362 0.21091 0.0
C2031 C 0.35002 0.59486 0.23203 0.0
C2032 C 0.29973 0.5943 0.21053 0.0
C2033 C 0.28896 0.58919 0.22723 0.0
C2034 C 0.32972 0.58813 0.22822 0.0
C2035 C 0.29905 0.58077 0.243 0.0
C2036 C 0.35717 0.5952 0.2513 0.0
C2037 C 0.37456 0.61773 0.22249 0.0
N2038 N 0.31887 0.58108 0.24336 0.0
N2039 N 0.35956 0.60546 0.21809 0.0
H2040 H 0.87649 0.13833 0.24529 0.0
H2041 H 0.93282 0.2247 0.1946 0.0
H2042 H 0.89811 0.19002 0.2743 0.0
H2043 H 0.89199 0.18534 0.16726 0.0
H2044 H 0.93464 0.20257 0.22278 0.0
H2045 H 0.89733 0.14575 0.21737 0.0
C2046 C 0.88622 0.15079 0.24621 0.0
C2047 C 0.88486 0.16411 0.26179 0.0
C2048 C 0.92593 0.19839 0.21025 0.0
C2049 C 0.90858 0.17268 0.2298 0.0
C2050 C 0.92498 0.21094 0.19411 0.0
C2051 C 0.91192 0.20695 0.17885 0.0
C2052 C 0.91384 0.18179 0.21089 0.0
C2053 C 0.90198 0.18904 0.17896 0.0
C2054 C 0.89805 0.15506 0.23016 0.0
C2055 C 0.89816 0.17974 0.26226 0.0
N2056 N 0.90285 0.17728 0.19492 0.0
N2057 N 0.90905 0.18396 0.24621 0.0
H2058 H 0.25944 0.379 0.71351 0.0
H2059 H 0.29679 0.27455 0.75121 0.0
H2060 H 0.22641 0.32534 0.7096 0.0
H2061 H 0.33165 0.32699 0.75561 0.0
H2062 H 0.27015 0.29383 0.73782 0.0
H2063 H 0.28539 0.36111 0.73062 0.0
C2064 C 0.25759 0.36352 0.71631 0.0
C2065 C 0.24075 0.35365 0.70999 0.0
C2066 C 0.28357 0.30121 0.74177 0.0
C2067 C 0.27032 0.33315 0.72953 0.0
C2068 C 0.29883 0.29017 0.74945 0.0
C2069 C 0.31657 0.29913 0.75445 0.0
C2070 C 0.28597 0.32141 0.73892 0.0
C2071 C 0.31824 0.31947 0.75193 0.0
C2072 C 0.2724 0.35332 0.72607 0.0
C2073 C 0.23914 0.33358 0.71406 0.0
N2074 N 0.30317 0.32993 0.74421 0.0
N2075 N 0.25372 0.32404 0.72349 0.0
H2076 H 0.09478 0.85159 0.29776 0.0
H2077 H 0.04851 0.77349 0.22965 0.0
H2078 H 0.08475 0.85801 0.23602 0.0
H2079 H 0.06756 0.76401 0.28902 0.0
H2080 H 0.04677 0.80853 0.23618 0.0
H2081 H 0.07031 0.82555 0.29877 0.0
C2082 C 0.08658 0.84827 0.28463 0.0
C2083 C 0.09181 0.85674 0.26675 0.0
C2084 C 0.05074 0.79873 0.24798 0.0
C2085 C 0.06462 0.82644 0.26753 0.0
C2086 C 0.05168 0.77865 0.24428 0.0
C2087 C 0.05909 0.76588 0.25856 0.0
C2088 C 0.05741 0.80601 0.26599 0.0
C2089 C 0.06247 0.77341 0.27735 0.0
C2090 C 0.07279 0.83321 0.28513 0.0
C2091 C 0.08109 0.85171 0.25008 0.0
N2092 N 0.06218 0.79306 0.28036 0.0
N2093 N 0.06836 0.83649 0.25074 0.0
H2094 H 0.74917 0.67905 0.70638 0.0
H2095 H 0.6363 0.67317 0.73569 0.0
H2096 H 0.71729 0.62459 0.70722 0.0
H2097 H 0.67123 0.72572 0.73758 0.0
H2098 H 0.66557 0.65452 0.72665 0.0
H2099 H 0.72069 0.69573 0.71935 0.0
C2100 C 0.73618 0.67054 0.70939 0.0
C2101 C 0.73561 0.65038 0.70557 0.0
C2102 C 0.66679 0.67012 0.72916 0.0
C2103 C 0.70265 0.66955 0.72039 0.0
C2104 C 0.65009 0.68077 0.73432 0.0
C2105 C 0.65124 0.70109 0.73729 0.0
C2106 C 0.68471 0.67987 0.72696 0.0
C2107 C 0.66953 0.71014 0.73533 0.0
C2108 C 0.71987 0.68011 0.71683 0.0
C2109 C 0.71837 0.64015 0.70994 0.0
N2110 N 0.68544 0.6995 0.73023 0.0
N2111 N 0.70248 0.64989 0.71697 0.0
H2112 H 0.73689 0.75227 0.82541 0.0
H2113 H 0.76797 0.85278 0.77377 0.0
H2114 H 0.73612 0.8078 0.85551 0.0
H2115 H 0.77369 0.79559 0.7476 0.0
H2116 H 0.75365 0.83745 0.80288 0.0
H2117 H 0.74799 0.76875 0.79599 0.0
C2118 C 0.73905 0.76797 0.82587 0.0
C2119 C 0.73563 0.77863 0.84305 0.0
C2120 C 0.75795 0.82831 0.7907 0.0
C2121 C 0.7484 0.79772 0.80915 0.0
C2122 C 0.76603 0.83706 0.77404 0.0
C2123 C 0.77214 0.82545 0.75824 0.0
C2124 C 0.7559 0.80786 0.79147 0.0
C2125 C 0.76933 0.80514 0.75944 0.0
C2126 C 0.7454 0.77739 0.80899 0.0
C2127 C 0.73864 0.79898 0.84262 0.0
N2128 N 0.7615 0.79703 0.77575 0.0
N2129 N 0.7449 0.80787 0.82594 0.0
H2130 H 0.60373 0.20294 0.29396 0.0
H2131 H 0.61581 0.2785 0.37554 0.0
H2132 H 0.58008 0.26144 0.29191 0.0
H2133 H 0.63176 0.21789 0.38171 0.0
H2134 H 0.59224 0.2695 0.35043 0.0
H2135 H 0.60348 0.20448 0.32954 0.0
C2136 C 0.59786 0.21589 0.30095 0.0
C2137 C 0.5927 0.23241 0.28988 0.0
C2138 C 0.60031 0.25798 0.35771 0.0
C2139 C 0.5928 0.23442 0.33069 0.0
C2140 C 0.61362 0.26314 0.37225 0.0
C2141 C 0.62587 0.24893 0.38046 0.0
C2142 C 0.59987 0.23859 0.35084 0.0
C2143 C 0.6226 0.22928 0.37562 0.0
C2144 C 0.59779 0.21679 0.32136 0.0
C2145 C 0.58482 0.24857 0.29982 0.0
N2146 N 0.61041 0.22473 0.36059 0.0
N2147 N 0.58568 0.2494 0.31964 0.0
H2148 H 0.30196 0.09913 0.80401 0.0
H2149 H 0.22575 0.10798 0.88497 0.0
H2150 H 0.24447 0.07363 0.8005 0.0
H2151 H 0.28629 0.12242 0.89333 0.0
H2152 H 0.23488 0.08563 0.85875 0.0
H2153 H 0.29988 0.09805 0.83955 0.0
C2154 C 0.28912 0.09273 0.81068 0.0
C2155 C 0.27304 0.0872 0.79922 0.0
C2156 C 0.24634 0.09305 0.86674 0.0
C2157 C 0.27038 0.08633 0.83999 0.0
C2158 C 0.24109 0.10564 0.88191 0.0
C2159 C 0.25529 0.11709 0.89117 0.0
C2160 C 0.26583 0.09259 0.86032 0.0
C2161 C 0.27493 0.11379 0.88651 0.0
C2162 C 0.28792 0.09215 0.83105 0.0
C2163 C 0.257 0.07864 0.80872 0.0
N2164 N 0.2796 0.10234 0.87093 0.0
N2165 N 0.25582 0.07903 0.82854 0.0
H2166 H 0.38569 0.80343 0.3213 0.0
H2167 H 0.39486 0.69317 0.32135 0.0
H2168 H 0.36871 0.76736 0.37018 0.0
H2169 H 0.42566 0.72967 0.28035 0.0
H2170 H 0.39457 0.72009 0.34469 0.0
H2171 H 0.40961 0.7788 0.31197 0.0
C2172 C 0.38746 0.79066 0.33052 0.0
C2173 C 0.37446 0.78701 0.34597 0.0
C2174 C 0.402 0.72214 0.33088 0.0
C2175 C 0.40148 0.75849 0.33505 0.0
C2176 C 0.40222 0.70669 0.31758 0.0
C2177 C 0.40999 0.70939 0.29885 0.0
C2178 C 0.40883 0.74065 0.32502 0.0
C2179 C 0.41939 0.72711 0.29465 0.0
C2180 C 0.40113 0.7765 0.32513 0.0
C2181 C 0.37788 0.77047 0.35768 0.0
N2182 N 0.41796 0.74234 0.30738 0.0
N2183 N 0.39057 0.75648 0.35158 0.0
H2184 H 0.75722 0.18912 0.13457 0.0
H2185 H 0.79675 0.2161 0.24134 0.0
H2186 H 0.75605 0.24706 0.15975 0.0
H2187 H 0.79385 0.15666 0.22019 0.0
H2188 H 0.78124 0.22724 0.21138 0.0
H2189 H 0.77023 0.17645 0.16555 0.0
C2190 C 0.75965 0.19916 0.14657 0.0
C2191 C 0.7556 0.21921 0.14448 0.0
C2192 C 0.78387 0.21173 0.21327 0.0
C2193 C 0.77042 0.20484 0.17987 0.0
C2194 C 0.79276 0.20535 0.23042 0.0
C2195 C 0.79669 0.18541 0.23329 0.0
C2196 C 0.77895 0.19814 0.19868 0.0
C2197 C 0.79108 0.17217 0.2186 0.0
C2198 C 0.76703 0.19192 0.16425 0.0
C2199 C 0.75899 0.23151 0.16056 0.0
N2200 N 0.7826 0.17879 0.20185 0.0
N2201 N 0.76623 0.22415 0.17747 0.0
H2202 H 0.38911 0.22114 0.71719 0.0
H2203 H 0.35414 0.28924 0.63864 0.0
H2204 H 0.39952 0.28334 0.71938 0.0
H2205 H 0.36255 0.22775 0.62789 0.0
H2206 H 0.37948 0.28812 0.66362 0.0
H2207 H 0.38919 0.22272 0.68163 0.0
C2208 C 0.39216 0.23503 0.71019 0.0
C2209 C 0.39348 0.25227 0.72126 0.0
C2210 C 0.3764 0.27496 0.65538 0.0
C2211 C 0.39294 0.25431 0.68056 0.0
C2212 C 0.36197 0.27566 0.64103 0.0
C2213 C 0.35622 0.25853 0.63144 0.0
C2214 C 0.38442 0.25678 0.66074 0.0
C2215 C 0.36662 0.24126 0.63509 0.0
C2216 C 0.39214 0.23596 0.68981 0.0
C2217 C 0.39785 0.26976 0.71142 0.0
N2218 N 0.3798 0.24065 0.64995 0.0
N2219 N 0.3967 0.27047 0.69161 0.0
H2220 H 0.15859 0.86924 0.18967 0.0
H2221 H 0.26556 0.88698 0.17237 0.0
H2222 H 0.18979 0.91381 0.22134 0.0
H2223 H 0.2286 0.86035 0.12887 0.0
H2224 H 0.23745 0.90478 0.18498 0.0
H2225 H 0.18155 0.87262 0.16268 0.0
C2226 C 0.17 0.88018 0.19064 0.0
C2227 C 0.17255 0.89104 0.20779 0.0
C2228 C 0.23555 0.89562 0.17221 0.0
C2229 C 0.19941 0.89449 0.17733 0.0
C2230 C 0.25169 0.88552 0.1649 0.0
C2231 C 0.24925 0.8715 0.1501 0.0
C2232 C 0.21689 0.89129 0.16488 0.0
C2233 C 0.23106 0.87055 0.14071 0.0
C2234 C 0.18313 0.88215 0.17522 0.0
C2235 C 0.18746 0.90508 0.20835 0.0
N2236 N 0.21538 0.87968 0.14876 0.0
N2237 N 0.20074 0.90598 0.19359 0.0
H2238 H 0.60157 0.71903 0.60844 0.0
H2239 H 0.58863 0.78515 0.69694 0.0
H2240 H 0.61617 0.78024 0.6088 0.0
H2241 H 0.56645 0.72619 0.69322 0.0
H2242 H 0.58744 0.78749 0.66143 0.0
H2243 H 0.57722 0.72492 0.63369 0.0
C2244 C 0.59882 0.73394 0.61306 0.0
C2245 C 0.61108 0.74912 0.60684 0.0
C2246 C 0.58229 0.77421 0.66834 0.0
C2247 C 0.58425 0.75582 0.63668 0.0
C2248 C 0.58296 0.77287 0.6887 0.0
C2249 C 0.5784 0.75516 0.69805 0.0
C2250 C 0.57745 0.75757 0.65727 0.0
C2251 C 0.57068 0.73995 0.68662 0.0
C2252 C 0.5851 0.7373 0.62776 0.0
C2253 C 0.60707 0.76812 0.61338 0.0
N2254 N 0.57104 0.74128 0.6668 0.0
N2255 N 0.59452 0.77084 0.62854 0.0
H2256 H 0.85433 0.75182 0.89525 0.0
H2257 H 0.76085 0.69474 0.91424 0.0
H2258 H 0.84705 0.69044 0.88346 0.0
H2259 H 0.77007 0.75483 0.93118 0.0
H2260 H 0.79593 0.68924 0.91581 0.0
H2261 H 0.82943 0.74966 0.92065 0.0
C2262 C 0.84822 0.73764 0.8988 0.0
C2263 C 0.85251 0.72132 0.88722 0.0
C2264 C 0.7903 0.70351 0.91976 0.0
C2265 C 0.82317 0.71892 0.91528 0.0
C2266 C 0.77019 0.70665 0.91892 0.0
C2267 C 0.76259 0.72552 0.92166 0.0
C2268 C 0.80285 0.71949 0.92289 0.0
C2269 C 0.77534 0.7402 0.92824 0.0
C2270 C 0.83378 0.73641 0.91315 0.0
C2271 C 0.84401 0.70335 0.89211 0.0
N2272 N 0.79492 0.73706 0.92796 0.0
N2273 N 0.82926 0.70273 0.90535 0.0
H2274 H 0.87357 0.29378 0.09709 0.0
H2275 H 0.78586 0.23696 0.0512 0.0
H2276 H 0.87148 0.2319 0.08563 0.0
H2277 H 0.78357 0.29562 0.07444 0.0
H2278 H 0.82129 0.23962 0.04905 0.0
H2279 H 0.84634 0.2986 0.07441 0.0
C2280 C 0.86814 0.28136 0.08889 0.0
C2281 C 0.87456 0.26239 0.09332 0.0
C2282 C 0.81299 0.25214 0.05406 0.0
C2283 C 0.84306 0.26764 0.06802 0.0
C2284 C 0.7927 0.25066 0.05525 0.0
C2285 C 0.78176 0.26578 0.06383 0.0
C2286 C 0.82238 0.26878 0.06163 0.0
C2287 C 0.79145 0.28333 0.06833 0.0
C2288 C 0.85239 0.28407 0.07615 0.0
C2289 C 0.86681 0.24674 0.08262 0.0
N2290 N 0.81126 0.28414 0.06773 0.0
N2291 N 0.85113 0.24963 0.07083 0.0
H2292 H 0.18698 0.35489 0.60954 0.0
H2293 H 0.29412 0.31803 0.59452 0.0
H2294 H 0.23854 0.38613 0.6277 0.0
H2295 H 0.24216 0.28381 0.58565 0.0
H2296 H 0.27436 0.34793 0.59363 0.0
H2297 H 0.20693 0.33527 0.58747 0.0
C2298 C 0.2024 0.35817 0.6083 0.0
C2299 C 0.21122 0.37168 0.62099 0.0
C2300 C 0.26734 0.33396 0.59114 0.0
C2301 C 0.23421 0.34887 0.59623 0.0
C2302 C 0.27864 0.31693 0.59148 0.0
C2303 C 0.26965 0.29857 0.59012 0.0
C2304 C 0.24692 0.33247 0.58979 0.0
C2305 C 0.24956 0.29777 0.58665 0.0
C2306 C 0.21383 0.34683 0.5958 0.0
C2307 C 0.23117 0.37557 0.6185 0.0
N2308 N 0.23878 0.31447 0.58697 0.0
N2309 N 0.24214 0.36374 0.60687 0.0
H2310 H 0.21055 0.7808 0.13876 0.0
H2311 H 0.15465 0.74115 0.23362 0.0
H2312 H 0.23334 0.78259 0.19755 0.0
H2313 H 0.12692 0.74468 0.17705 0.0
H2314 H 0.18451 0.75382 0.21946 0.0
H2315 H 0.18088 0.76496 0.1513 0.0
C2316 C 0.20942 0.77769 0.15424 0.0
C2317 C 0.22444 0.78313 0.16714 0.0
C2318 C 0.17194 0.75185 0.21007 0.0
C2319 C 0.19061 0.76513 0.18153 0.0
C2320 C 0.1548 0.74459 0.21817 0.0
C2321 C 0.13813 0.74191 0.20655 0.0
C2322 C 0.17261 0.75656 0.19011 0.0
C2323 C 0.13938 0.74658 0.18658 0.0
C2324 C 0.19246 0.76875 0.16139 0.0
C2325 C 0.22214 0.77882 0.18706 0.0
N2326 N 0.15634 0.75373 0.17898 0.0
N2327 N 0.20558 0.77015 0.19359 0.0
H2328 H 0.78594 0.64563 0.6059 0.0
H2329 H 0.67688 0.67109 0.60334 0.0
H2330 H 0.74101 0.60832 0.6295 0.0
H2331 H 0.71983 0.70231 0.56961 0.0
H2332 H 0.69863 0.64289 0.60477 0.0
H2333 H 0.76196 0.66031 0.58404 0.0
C2334 C 0.77118 0.63994 0.60593 0.0
C2335 C 0.76531 0.62625 0.62008 0.0
C2336 C 0.7032 0.65563 0.59654 0.0
C2337 C 0.73764 0.64344 0.59552 0.0
C2338 C 0.69072 0.67172 0.5957 0.0
C2339 C 0.69673 0.68903 0.58655 0.0
C2340 C 0.72214 0.65715 0.58882 0.0
C2341 C 0.71474 0.68918 0.57687 0.0
C2342 C 0.75741 0.64845 0.59351 0.0
C2343 C 0.74611 0.61918 0.61917 0.0
N2344 N 0.72709 0.67367 0.57874 0.0
N2345 N 0.73279 0.62834 0.60762 0.0
H2346 H 0.16691 0.29037 0.89922 0.0
H2347 H 0.17268 0.18069 0.91504 0.0
H2348 H 0.12164 0.25002 0.8821 0.0
H2349 H 0.2122 0.22161 0.94189 0.0
H2350 H 0.14778 0.2061 0.91363 0.0
H2351 H 0.17691 0.26771 0.92482 0.0
C2352 C 0.15862 0.27702 0.90127 0.0
C2353 C 0.14397 0.27169 0.88796 0.0
C2354 C 0.16162 0.20947 0.92049 0.0
C2355 C 0.15571 0.2454 0.91687 0.0
C2356 C 0.1758 0.19486 0.92141 0.0
C2357 C 0.19457 0.19925 0.92822 0.0
C2358 C 0.16661 0.22875 0.92564 0.0
C2359 C 0.19791 0.21776 0.93634 0.0
C2360 C 0.16438 0.26402 0.91591 0.0
C2361 C 0.13342 0.25448 0.89165 0.0
N2362 N 0.18429 0.23208 0.93419 0.0
N2363 N 0.13993 0.24162 0.90533 0.0
H2364 H 0.2956 0.76277 0.28856 0.0
H2365 H 0.24588 0.68612 0.24631 0.0
H2366 H 0.2821 0.73614 0.34416 0.0
H2367 H 0.25765 0.65479 0.29982 0.0
H2368 H 0.25687 0.71614 0.26174 0.0
H2369 H 0.28148 0.73481 0.27205 0.0
C2370 C 0.2894 0.75113 0.29734 0.0
C2371 C 0.28996 0.75192 0.31783 0.0
C2372 C 0.25744 0.70271 0.27008 0.0
C2373 C 0.27303 0.7198 0.29885 0.0
C2374 C 0.25092 0.68553 0.2613 0.0
C2375 C 0.2511 0.66781 0.27168 0.0
C2376 C 0.26455 0.70222 0.28935 0.0
C2377 C 0.2574 0.66809 0.29122 0.0
C2378 C 0.28108 0.73517 0.28784 0.0
C2379 C 0.2819 0.73622 0.32835 0.0
N2380 N 0.26399 0.68501 0.29939 0.0
N2381 N 0.27384 0.72075 0.31873 0.0
H2382 H 0.80976 0.31843 0.38492 0.0
H2383 H 0.70071 0.32819 0.39551 0.0
H2384 H 0.77834 0.37033 0.36759 0.0
H2385 H 0.73383 0.28588 0.42833 0.0
H2386 H 0.72937 0.34922 0.39398 0.0
H2387 H 0.78486 0.3119 0.40944 0.0
C2388 C 0.79801 0.32888 0.38672 0.0
C2389 C 0.79566 0.34444 0.37352 0.0
C2390 C 0.73032 0.33567 0.40213 0.0
C2391 C 0.76678 0.33675 0.40124 0.0
C2392 C 0.71387 0.32371 0.40308 0.0
C2393 C 0.71508 0.30519 0.41175 0.0
C2394 C 0.74828 0.32863 0.40919 0.0
C2395 C 0.7324 0.30004 0.42136 0.0
C2396 C 0.78368 0.32509 0.40075 0.0
C2397 C 0.7804 0.35773 0.37696 0.0
N2398 N 0.74857 0.31139 0.41923 0.0
N2399 N 0.76615 0.35321 0.39 0.0
loop_
_geom_bond_atom_site_label_1
_geom_bond_atom_site_label_2
_geom_bond_distance
_geom_bond_site_symmetry_2
_ccdc_geom_bond_type
Zn0 O3 2.031 . S
Zn0 O5 2.049 . S
Zn0 O10 2.067 . S
Zn1 O2 1.962 . S
Zn1 O4 1.986 . S
Zn1 O6 1.996 . S
Zn1 O9 1.943 . S
O2 Zn1 1.962 . S
O2 C7 1.254 . S
O3 Zn0 2.031 . S
O3 C7 1.269 . S
O4 Zn1 1.986 . S
O4 C11 1.262 . S
O5 Zn0 2.049 . S
O5 C13 1.260 . S
O6 Zn1 1.996 . S
O6 C13 1.257 . S
C7 O2 1.254 . S
C7 O3 1.269 . S
C8 O9 1.249 . S
C8 O10 1.270 . S
O9 Zn1 1.943 . S
O9 C8 1.249 . S
O10 Zn0 2.067 . S
O10 C8 1.270 . S
C11 O4 1.262 . S
C11 O12 1.232 . S
O12 C11 1.232 . S
C13 O5 1.260 . S
C13 O6 1.257 . S
Zn14 O17 2.031 . S
Zn14 O19 2.049 . S
Zn14 O24 2.067 . S
Zn15 O16 1.962 . S
Zn15 O18 1.986 . S
Zn15 O20 1.996 . S
Zn15 O23 1.943 . S
O16 Zn15 1.962 . S
O16 C21 1.254 . S
O17 Zn14 2.031 . S
O17 C21 1.269 . S
O18 Zn15 1.986 . S
O18 C25 1.262 . S
O19 Zn14 2.049 . S
O19 C27 1.260 . S
O20 Zn15 1.996 . S
O20 C27 1.257 . S
C21 O16 1.254 . S
C21 O17 1.269 . S
C22 O23 1.249 . S
C22 O24 1.270 . S
O23 Zn15 1.943 . S
O23 C22 1.249 . S
O24 Zn14 2.067 . S
O24 C22 1.270 . S
C25 O18 1.262 . S
C25 O26 1.232 . S
O26 C25 1.232 . S
C27 O19 1.260 . S
C27 O20 1.257 . S
Zn28 O31 2.031 . S
Zn28 O33 2.049 . S
Zn28 O38 2.067 . S
Zn29 O30 1.962 . S
Zn29 O32 1.986 . S
Zn29 O34 1.996 . S
Zn29 O37 1.943 . S
O30 Zn29 1.962 . S
O30 C35 1.254 . S
O31 Zn28 2.031 . S
O31 C35 1.269 . S
O32 Zn29 1.986 . S
O32 C39 1.262 . S
O33 Zn28 2.049 . S
O33 C41 1.260 . S
O34 Zn29 1.996 . S
O34 C41 1.257 . S
C35 O30 1.254 . S
C35 O31 1.269 . S
C36 O37 1.249 . S
C36 O38 1.270 . S
O37 Zn29 1.943 . S
O37 C36 1.249 . S
O38 Zn28 2.067 . S
O38 C36 1.270 . S
C39 O32 1.262 . S
C39 O40 1.232 . S
O40 C39 1.232 . S
C41 O33 1.260 . S
C41 O34 1.257 . S
Zn42 O45 2.031 . S
Zn42 O47 2.049 . S
Zn42 O52 2.067 . S
Zn43 O44 1.962 . S
Zn43 O46 1.986 . S
Zn43 O48 1.996 . S
Zn43 O51 1.943 . S
O44 Zn43 1.962 . S
O44 C49 1.254 . S
O45 Zn42 2.031 . S
O45 C49 1.269 . S
O46 Zn43 1.986 . S
O46 C53 1.262 . S
O47 Zn42 2.049 . S
O47 C55 1.260 . S
O48 Zn43 1.996 . S
O48 C55 1.257 . S
C49 O44 1.254 . S
C49 O45 1.269 . S
C50 O51 1.249 . S
C50 O52 1.270 . S
O51 Zn43 1.943 . S
O51 C50 1.249 . S
O52 Zn42 2.067 . S
O52 C50 1.270 . S
C53 O46 1.262 . S
C53 O54 1.232 . S
O54 C53 1.232 . S
C55 O47 1.260 . S
C55 O48 1.257 . S
Zn56 O59 2.031 . S
Zn56 O61 2.049 . S
Zn56 O66 2.067 . S
Zn57 O58 1.962 . S
Zn57 O60 1.986 . S
Zn57 O62 1.996 . S
Zn57 O65 1.943 . S
O58 Zn57 1.962 . S
O58 C63 1.254 . S
O59 Zn56 2.031 . S
O59 C63 1.269 . S
O60 Zn57 1.986 . S
O60 C67 1.262 . S
O61 Zn56 2.049 . S
O61 C69 1.260 . S
O62 Zn57 1.996 . S
O62 C69 1.257 . S
C63 O58 1.254 . S
C63 O59 1.269 . S
C64 O65 1.249 . S
C64 O66 1.270 . S
O65 Zn57 1.943 . S
O65 C64 1.249 . S
O66 Zn56 2.067 . S
O66 C64 1.270 . S
C67 O60 1.262 . S
C67 O68 1.232 . S
O68 C67 1.232 . S
C69 O61 1.260 . S
C69 O62 1.257 . S
Zn70 O73 2.031 . S
Zn70 O75 2.049 . S
Zn70 O80 2.067 . S
Zn71 O72 1.962 . S
Zn71 O74 1.986 . S
Zn71 O76 1.996 . S
Zn71 O79 1.943 . S
O72 Zn71 1.962 . S
O72 C77 1.254 . S
O73 Zn70 2.031 . S
O73 C77 1.269 . S
O74 Zn71 1.986 . S
O74 C81 1.262 . S
O75 Zn70 2.049 . S
O75 C83 1.260 . S
O76 Zn71 1.996 . S
O76 C83 1.257 . S
C77 O72 1.254 . S
C77 O73 1.269 . S
C78 O79 1.249 . S
C78 O80 1.270 . S
O79 Zn71 1.943 . S
O79 C78 1.249 . S
O80 Zn70 2.067 . S
O80 C78 1.270 . S
C81 O74 1.262 . S
C81 O82 1.232 . S
O82 C81 1.232 . S
C83 O75 1.260 . S
C83 O76 1.257 . S
Zn84 O87 2.031 . S
Zn84 O89 2.049 . S
Zn84 O94 2.067 . S
Zn85 O86 1.962 . S
Zn85 O88 1.986 . S
Zn85 O90 1.996 . S
Zn85 O93 1.943 . S
O86 Zn85 1.962 . S
O86 C91 1.254 . S
O87 Zn84 2.031 . S
O87 C91 1.269 . S
O88 Zn85 1.986 . S
O88 C95 1.262 . S
O89 Zn84 2.049 . S
O89 C97 1.260 . S
O90 Zn85 1.996 . S
O90 C97 1.257 . S
C91 O86 1.254 . S
C91 O87 1.269 . S
C92 O93 1.249 . S
C92 O94 1.270 . S
O93 Zn85 1.943 . S
O93 C92 1.249 . S
O94 Zn84 2.067 . S
O94 C92 1.270 . S
C95 O88 1.262 . S
C95 O96 1.232 . S
O96 C95 1.232 . S
C97 O89 1.260 . S
C97 O90 1.257 . S
Zn98 O101 2.031 . S
Zn98 O103 2.049 . S
Zn98 O108 2.067 . S
Zn99 O100 1.962 . S
Zn99 O102 1.986 . S
Zn99 O104 1.996 . S
Zn99 O107 1.943 . S
O100 Zn99 1.962 . S
O100 C105 1.254 . S
O101 Zn98 2.031 . S
O101 C105 1.269 . S
O102 Zn99 1.986 . S
O102 C109 1.262 . S
O103 Zn98 2.049 . S
O103 C111 1.260 . S
O104 Zn99 1.996 . S
O104 C111 1.257 . S
C105 O100 1.254 . S
C105 O101 1.269 . S
C106 O107 1.249 . S
C106 O108 1.270 . S
O107 Zn99 1.943 . S
O107 C106 1.249 . S
O108 Zn98 2.067 . S
O108 C106 1.270 . S
C109 O102 1.262 . S
C109 O110 1.232 . S
O110 C109 1.232 . S
C111 O103 1.260 . S
C111 O104 1.257 . S
Zn112 O115 2.031 . S
Zn112 O117 2.049 . S
Zn112 O122 2.067 . S
Zn113 O114 1.962 . S
Zn113 O116 1.986 . S
Zn113 O118 1.996 . S
Zn113 O121 1.943 . S
O114 Zn113 1.962 . S
O114 C119 1.254 . S
O115 Zn112 2.031 . S
O115 C119 1.269 . S
O116 Zn113 1.986 . S
O116 C123 1.262 . S
O117 Zn112 2.049 . S
O117 C125 1.260 . S
O118 Zn113 1.996 . S
O118 C125 1.257 . S
C119 O114 1.254 . S
C119 O115 1.269 . S
C120 O121 1.249 . S
C120 O122 1.270 . S
O121 Zn113 1.943 . S
O121 C120 1.249 . S
O122 Zn112 2.067 . S
O122 C120 1.270 . S
C123 O116 1.262 . S
C123 O124 1.232 . S
O124 C123 1.232 . S
C125 O117 1.260 . S
C125 O118 1.257 . S
Zn126 O129 2.031 . S
Zn126 O131 2.049 . S
Zn126 O136 2.067 . S
Zn127 O128 1.962 . S
Zn127 O130 1.986 . S
Zn127 O132 1.996 . S
Zn127 O135 1.943 . S
O128 Zn127 1.962 . S
O128 C133 1.254 . S
O129 Zn126 2.031 . S
O129 C133 1.269 . S
O130 Zn127 1.986 . S
O130 C137 1.262 . S
O131 Zn126 2.049 . S
O131 C139 1.260 . S
O132 Zn127 1.996 . S
O132 C139 1.257 . S
C133 O128 1.254 . S
C133 O129 1.269 . S
C134 O135 1.249 . S
C134 O136 1.270 . S
O135 Zn127 1.943 . S
O135 C134 1.249 . S
O136 Zn126 2.067 . S
O136 C134 1.270 . S
C137 O130 1.262 . S
C137 O138 1.232 . S
O138 C137 1.232 . S
C139 O131 1.260 . S
C139 O132 1.257 . S
Zn140 O143 2.031 . S
Zn140 O145 2.049 . S
Zn140 O150 2.067 . S
Zn141 O142 1.962 . S
Zn141 O144 1.986 . S
Zn141 O146 1.996 . S
Zn141 O149 1.943 . S
O142 Zn141 1.962 . S
O142 C147 1.254 . S
O143 Zn140 2.031 . S
O143 C147 1.269 . S
O144 Zn141 1.986 . S
O144 C151 1.262 . S
O145 Zn140 2.049 . S
O145 C153 1.260 . S
O146 Zn141 1.996 . S
O146 C153 1.257 . S
C147 O142 1.254 . S
C147 O143 1.269 . S
C148 O149 1.249 . S
C148 O150 1.270 . S
O149 Zn141 1.943 . S
O149 C148 1.249 . S
O150 Zn140 2.067 . S
O150 C148 1.270 . S
C151 O144 1.262 . S
C151 O152 1.232 . S
O152 C151 1.232 . S
C153 O145 1.260 . S
C153 O146 1.257 . S
Zn154 O157 2.031 . S
Zn154 O159 2.049 . S
Zn154 O164 2.067 . S
Zn155 O156 1.962 . S
Zn155 O158 1.986 . S
Zn155 O160 1.996 . S
Zn155 O163 1.943 . S
O156 Zn155 1.962 . S
O156 C161 1.254 . S
O157 Zn154 2.031 . S
O157 C161 1.269 . S
O158 Zn155 1.986 . S
O158 C165 1.262 . S
O159 Zn154 2.049 . S
O159 C167 1.260 . S
O160 Zn155 1.996 . S
O160 C167 1.257 . S
C161 O156 1.254 . S
C161 O157 1.269 . S
C162 O163 1.249 . S
C162 O164 1.270 . S
O163 Zn155 1.943 . S
O163 C162 1.249 . S
O164 Zn154 2.067 . S
O164 C162 1.270 . S
C165 O158 1.262 . S
C165 O166 1.232 . S
O166 C165 1.232 . S
C167 O159 1.260 . S
C167 O160 1.257 . S
Zn168 O171 2.031 . S
Zn168 O173 2.049 . S
Zn168 O178 2.067 . S
Zn169 O170 1.962 . S
Zn169 O172 1.986 . S
Zn169 O174 1.996 . S
Zn169 O177 1.943 . S
O170 Zn169 1.962 . S
O170 C175 1.254 . S
O171 Zn168 2.031 . S
O171 C175 1.269 . S
O172 Zn169 1.986 . S
O172 C179 1.262 . S
O173 Zn168 2.049 . S
O173 C181 1.260 . S
O174 Zn169 1.996 . S
O174 C181 1.257 . S
C175 O170 1.254 . S
C175 O171 1.269 . S
C176 O177 1.249 . S
C176 O178 1.270 . S
O177 Zn169 1.943 . S
O177 C176 1.249 . S
O178 Zn168 2.067 . S
O178 C176 1.270 . S
C179 O172 1.262 . S
C179 O180 1.232 . S
O180 C179 1.232 . S
C181 O173 1.260 . S
C181 O174 1.257 . S
Zn182 O185 2.031 . S
Zn182 O187 2.049 . S
Zn182 O192 2.067 . S
Zn183 O184 1.962 . S
Zn183 O186 1.986 . S
Zn183 O188 1.996 . S
Zn183 O191 1.943 . S
O184 Zn183 1.962 . S
O184 C189 1.254 . S
O185 Zn182 2.031 . S
O185 C189 1.269 . S
O186 Zn183 1.986 . S
O186 C193 1.262 . S
O187 Zn182 2.049 . S
O187 C195 1.260 . S
O188 Zn183 1.996 . S
O188 C195 1.257 . S
C189 O184 1.254 . S
C189 O185 1.269 . S
C190 O191 1.249 . S
C190 O192 1.270 . S
O191 Zn183 1.943 . S
O191 C190 1.249 . S
O192 Zn182 2.067 . S
O192 C190 1.270 . S
C193 O186 1.262 . S
C193 O194 1.232 . S
O194 C193 1.232 . S
C195 O187 1.260 . S
C195 O188 1.257 . S
Zn196 O199 2.031 . S
Zn196 O201 2.049 . S
Zn196 O206 2.067 . S
Zn197 O198 1.962 . S
Zn197 O200 1.986 . S
Zn197 O202 1.996 . S
Zn197 O205 1.943 . S
O198 Zn197 1.962 . S
O198 C203 1.254 . S
O199 Zn196 2.031 . S
O199 C203 1.269 . S
O200 Zn197 1.986 . S
O200 C207 1.262 . S
O201 Zn196 2.049 . S
O201 C209 1.260 . S
O202 Zn197 1.996 . S
O202 C209 1.257 . S
C203 O198 1.254 . S
C203 O199 1.269 . S
C204 O205 1.249 . S
C204 O206 1.270 . S
O205 Zn197 1.943 . S
O205 C204 1.249 . S
O206 Zn196 2.067 . S
O206 C204 1.270 . S
C207 O200 1.262 . S
C207 O208 1.232 . S
O208 C207 1.232 . S
C209 O201 1.260 . S
C209 O202 1.257 . S
Zn210 O213 2.031 . S
Zn210 O215 2.049 . S
Zn210 O220 2.067 . S
Zn211 O212 1.962 . S
Zn211 O214 1.986 . S
Zn211 O216 1.996 . S
Zn211 O219 1.943 . S
O212 Zn211 1.962 . S
O212 C217 1.254 . S
O213 Zn210 2.031 . S
O213 C217 1.269 . S
O214 Zn211 1.986 . S
O214 C221 1.262 . S
O215 Zn210 2.049 . S
O215 C223 1.260 . S
O216 Zn211 1.996 . S
O216 C223 1.257 . S
C217 O212 1.254 . S
C217 O213 1.269 . S
C218 O219 1.249 . S
C218 O220 1.270 . S
O219 Zn211 1.943 . S
O219 C218 1.249 . S
O220 Zn210 2.067 . S
O220 C218 1.270 . S
C221 O214 1.262 . S
C221 O222 1.232 . S
O222 C221 1.232 . S
C223 O215 1.260 . S
C223 O216 1.257 . S
Zn224 O227 2.031 . S
Zn224 O229 2.049 . S
Zn224 O234 2.067 . S
Zn225 O226 1.962 . S
Zn225 O228 1.986 . S
Zn225 O230 1.996 . S
Zn225 O233 1.943 . S
O226 Zn225 1.962 . S
O226 C231 1.254 . S
O227 Zn224 2.031 . S
O227 C231 1.269 . S
O228 Zn225 1.986 . S
O228 C235 1.262 . S
O229 Zn224 2.049 . S
O229 C237 1.260 . S
O230 Zn225 1.996 . S
O230 C237 1.257 . S
C231 O226 1.254 . S
C231 O227 1.269 . S
C232 O233 1.249 . S
C232 O234 1.270 . S
O233 Zn225 1.943 . S
O233 C232 1.249 . S
O234 Zn224 2.067 . S
O234 C232 1.270 . S
C235 O228 1.262 . S
C235 O236 1.232 . S
O236 C235 1.232 . S
C237 O229 1.260 . S
C237 O230 1.257 . S
Zn238 O241 2.031 . S
Zn238 O243 2.049 . S
Zn238 O248 2.067 . S
Zn239 O240 1.962 . S
Zn239 O242 1.986 . S
Zn239 O244 1.996 . S
Zn239 O247 1.943 . S
O240 Zn239 1.962 . S
O240 C245 1.254 . S
O241 Zn238 2.031 . S
O241 C245 1.269 . S
O242 Zn239 1.986 . S
O242 C249 1.262 . S
O243 Zn238 2.049 . S
O243 C251 1.260 . S
O244 Zn239 1.996 . S
O244 C251 1.257 . S
C245 O240 1.254 . S
C245 O241 1.269 . S
C246 O247 1.249 . S
C246 O248 1.270 . S
O247 Zn239 1.943 . S
O247 C246 1.249 . S
O248 Zn238 2.067 . S
O248 C246 1.270 . S
C249 O242 1.262 . S
C249 O250 1.232 . S
O250 C249 1.232 . S
C251 O243 1.260 . S
C251 O244 1.257 . S
Zn252 O255 2.031 . S
Zn252 O257 2.049 . S
Zn252 O262 2.067 . S
Zn253 O254 1.962 . S
Zn253 O256 1.986 . S
Zn253 O258 1.996 . S
Zn253 O261 1.943 . S
O254 Zn253 1.962 . S
O254 C259 1.254 . S
O255 Zn252 2.031 . S
O255 C259 1.269 . S
O256 Zn253 1.986 . S
O256 C263 1.262 . S
O257 Zn252 2.049 . S
O257 C265 1.260 . S
O258 Zn253 1.996 . S
O258 C265 1.257 . S
C259 O254 1.254 . S
C259 O255 1.269 . S
C260 O261 1.249 . S
C260 O262 1.270 . S
O261 Zn253 1.943 . S
O261 C260 1.249 . S
O262 Zn252 2.067 . S
O262 C260 1.270 . S
C263 O256 1.262 . S
C263 O264 1.232 . S
O264 C263 1.232 . S
C265 O257 1.260 . S
C265 O258 1.257 . S
Zn266 O269 2.031 . S
Zn266 O271 2.049 . S
Zn266 O276 2.067 . S
Zn267 O268 1.962 . S
Zn267 O270 1.986 . S
Zn267 O272 1.996 . S
Zn267 O275 1.943 . S
O268 Zn267 1.962 . S
O268 C273 1.254 . S
O269 Zn266 2.031 . S
O269 C273 1.269 . S
O270 Zn267 1.986 . S
O270 C277 1.262 . S
O271 Zn266 2.049 . S
O271 C279 1.260 . S
O272 Zn267 1.996 . S
O272 C279 1.257 . S
C273 O268 1.254 . S
C273 O269 1.269 . S
C274 O275 1.249 . S
C274 O276 1.270 . S
O275 Zn267 1.943 . S
O275 C274 1.249 . S
O276 Zn266 2.067 . S
O276 C274 1.270 . S
C277 O270 1.262 . S
C277 O278 1.232 . S
O278 C277 1.232 . S
C279 O271 1.260 . S
C279 O272 1.257 . S
Zn280 O283 2.031 . S
Zn280 O285 2.049 . S
Zn280 O290 2.067 . S
Zn281 O282 1.962 . S
Zn281 O284 1.986 . S
Zn281 O286 1.996 . S
Zn281 O289 1.943 . S
O282 Zn281 1.962 . S
O282 C287 1.254 . S
O283 Zn280 2.031 . S
O283 C287 1.269 . S
O284 Zn281 1.986 . S
O284 C291 1.262 . S
O285 Zn280 2.049 . S
O285 C293 1.260 . S
O286 Zn281 1.996 . S
O286 C293 1.257 . S
C287 O282 1.254 . S
C287 O283 1.269 . S
C288 O289 1.249 . S
C288 O290 1.270 . S
O289 Zn281 1.943 . S
O289 C288 1.249 . S
O290 Zn280 2.067 . S
O290 C288 1.270 . S
C291 O284 1.262 . S
C291 O292 1.232 . S
O292 C291 1.232 . S
C293 O285 1.260 . S
C293 O286 1.257 . S
Zn294 O297 2.031 . S
Zn294 O299 2.049 . S
Zn294 O304 2.067 . S
Zn295 O296 1.962 . S
Zn295 O298 1.986 . S
Zn295 O300 1.996 . S
Zn295 O303 1.943 . S
O296 Zn295 1.962 . S
O296 C301 1.254 . S
O297 Zn294 2.031 . S
O297 C301 1.269 . S
O298 Zn295 1.986 . S
O298 C305 1.262 . S
O299 Zn294 2.049 . S
O299 C307 1.260 . S
O300 Zn295 1.996 . S
O300 C307 1.257 . S
C301 O296 1.254 . S
C301 O297 1.269 . S
C302 O303 1.249 . S
C302 O304 1.270 . S
O303 Zn295 1.943 . S
O303 C302 1.249 . S
O304 Zn294 2.067 . S
O304 C302 1.270 . S
C305 O298 1.262 . S
C305 O306 1.232 . S
O306 C305 1.232 . S
C307 O299 1.260 . S
C307 O300 1.257 . S
Zn308 O311 2.031 . S
Zn308 O313 2.049 . S
Zn308 O318 2.067 . S
Zn309 O310 1.962 . S
Zn309 O312 1.986 . S
Zn309 O314 1.996 . S
Zn309 O317 1.943 . S
O310 Zn309 1.962 . S
O310 C315 1.254 . S
O311 Zn308 2.031 . S
O311 C315 1.269 . S
O312 Zn309 1.986 . S
O312 C319 1.262 . S
O313 Zn308 2.049 . S
O313 C321 1.260 . S
O314 Zn309 1.996 . S
O314 C321 1.257 . S
C315 O310 1.254 . S
C315 O311 1.269 . S
C316 O317 1.249 . S
C316 O318 1.270 . S
O317 Zn309 1.943 . S
O317 C316 1.249 . S
O318 Zn308 2.067 . S
O318 C316 1.270 . S
C319 O312 1.262 . S
C319 O320 1.232 . S
O320 C319 1.232 . S
C321 O313 1.260 . S
C321 O314 1.257 . S
Zn322 O325 2.031 . S
Zn322 O327 2.049 . S
Zn322 O332 2.067 . S
Zn323 O324 1.962 . S
Zn323 O326 1.986 . S
Zn323 O328 1.996 . S
Zn323 O331 1.943 . S
O324 Zn323 1.962 . S
O324 C329 1.254 . S
O325 Zn322 2.031 . S
O325 C329 1.269 . S
O326 Zn323 1.986 . S
O326 C333 1.262 . S
O327 Zn322 2.049 . S
O327 C335 1.260 . S
O328 Zn323 1.996 . S
O328 C335 1.257 . S
C329 O324 1.254 . S
C329 O325 1.269 . S
C330 O331 1.249 . S
C330 O332 1.270 . S
O331 Zn323 1.943 . S
O331 C330 1.249 . S
O332 Zn322 2.067 . S
O332 C330 1.270 . S
C333 O326 1.262 . S
C333 O334 1.232 . S
O334 C333 1.232 . S
C335 O327 1.260 . S
C335 O328 1.257 . S
Zn336 O339 2.031 . S
Zn336 O341 2.049 . S
Zn336 O346 2.067 . S
Zn337 O338 1.962 . S
Zn337 O340 1.986 . S
Zn337 O342 1.996 . S
Zn337 O345 1.943 . S
O338 Zn337 1.962 . S
O338 C343 1.254 . S
O339 Zn336 2.031 . S
O339 C343 1.269 . S
O340 Zn337 1.986 . S
O340 C347 1.262 . S
O341 Zn336 2.049 . S
O341 C349 1.260 . S
O342 Zn337 1.996 . S
O342 C349 1.257 . S
C343 O338 1.254 . S
C343 O339 1.269 . S
C344 O345 1.249 . S
C344 O346 1.270 . S
O345 Zn337 1.943 . S
O345 C344 1.249 . S
O346 Zn336 2.067 . S
O346 C344 1.270 . S
C347 O340 1.262 . S
C347 O348 1.232 . S
O348 C347 1.232 . S
C349 O341 1.260 . S
C349 O342 1.257 . S
Zn350 O353 2.031 . S
Zn350 O355 2.049 . S
Zn350 O360 2.067 . S
Zn351 O352 1.962 . S
Zn351 O354 1.986 . S
Zn351 O356 1.996 . S
Zn351 O359 1.943 . S
O352 Zn351 1.962 . S
O352 C357 1.254 . S
O353 Zn350 2.031 . S
O353 C357 1.269 . S
O354 Zn351 1.986 . S
O354 C361 1.262 . S
O355 Zn350 2.049 . S
O355 C363 1.260 . S
O356 Zn351 1.996 . S
O356 C363 1.257 . S
C357 O352 1.254 . S
C357 O353 1.269 . S
C358 O359 1.249 . S
C358 O360 1.270 . S
O359 Zn351 1.943 . S
O359 C358 1.249 . S
O360 Zn350 2.067 . S
O360 C358 1.270 . S
C361 O354 1.262 . S
C361 O362 1.232 . S
O362 C361 1.232 . S
C363 O355 1.260 . S
C363 O356 1.257 . S
Zn364 O367 2.031 . S
Zn364 O369 2.049 . S
Zn364 O374 2.067 . S
Zn365 O366 1.962 . S
Zn365 O368 1.986 . S
Zn365 O370 1.996 . S
Zn365 O373 1.943 . S
O366 Zn365 1.962 . S
O366 C371 1.254 . S
O367 Zn364 2.031 . S
O367 C371 1.269 . S
O368 Zn365 1.986 . S
O368 C375 1.262 . S
O369 Zn364 2.049 . S
O369 C377 1.260 . S
O370 Zn365 1.996 . S
O370 C377 1.257 . S
C371 O366 1.254 . S
C371 O367 1.269 . S
C372 O373 1.249 . S
C372 O374 1.270 . S
O373 Zn365 1.943 . S
O373 C372 1.249 . S
O374 Zn364 2.067 . S
O374 C372 1.270 . S
C375 O368 1.262 . S
C375 O376 1.232 . S
O376 C375 1.232 . S
C377 O369 1.260 . S
C377 O370 1.257 . S
Zn378 O381 2.031 . S
Zn378 O383 2.049 . S
Zn378 O388 2.067 . S
Zn379 O380 1.962 . S
Zn379 O382 1.986 . S
Zn379 O384 1.996 . S
Zn379 O387 1.943 . S
O380 Zn379 1.962 . S
O380 C385 1.254 . S
O381 Zn378 2.031 . S
O381 C385 1.269 . S
O382 Zn379 1.986 . S
O382 C389 1.262 . S
O383 Zn378 2.049 . S
O383 C391 1.260 . S
O384 Zn379 1.996 . S
O384 C391 1.257 . S
C385 O380 1.254 . S
C385 O381 1.269 . S
C386 O387 1.249 . S
C386 O388 1.270 . S
O387 Zn379 1.943 . S
O387 C386 1.249 . S
O388 Zn378 2.067 . S
O388 C386 1.270 . S
C389 O382 1.262 . S
C389 O390 1.232 . S
O390 C389 1.232 . S
C391 O383 1.260 . S
C391 O384 1.257 . S
Zn392 O395 2.031 . S
Zn392 O397 2.049 . S
Zn392 O402 2.067 . S
Zn393 O394 1.962 . S
Zn393 O396 1.986 . S
Zn393 O398 1.996 . S
Zn393 O401 1.943 . S
O394 Zn393 1.962 . S
O394 C399 1.254 . S
O395 Zn392 2.031 . S
O395 C399 1.269 . S
O396 Zn393 1.986 . S
O396 C403 1.262 . S
O397 Zn392 2.049 . S
O397 C405 1.260 . S
O398 Zn393 1.996 . S
O398 C405 1.257 . S
C399 O394 1.254 . S
C399 O395 1.269 . S
C400 O401 1.249 . S
C400 O402 1.270 . S
O401 Zn393 1.943 . S
O401 C400 1.249 . S
O402 Zn392 2.067 . S
O402 C400 1.270 . S
C403 O396 1.262 . S
C403 O404 1.232 . S
O404 C403 1.232 . S
C405 O397 1.260 . S
C405 O398 1.257 . S
Zn406 O409 2.031 . S
Zn406 O411 2.049 . S
Zn406 O416 2.067 . S
Zn407 O408 1.962 . S
Zn407 O410 1.986 . S
Zn407 O412 1.996 . S
Zn407 O415 1.943 . S
O408 Zn407 1.962 . S
O408 C413 1.254 . S
O409 Zn406 2.031 . S
O409 C413 1.269 . S
O410 Zn407 1.986 . S
O410 C417 1.262 . S
O411 Zn406 2.049 . S
O411 C419 1.260 . S
O412 Zn407 1.996 . S
O412 C419 1.257 . S
C413 O408 1.254 . S
C413 O409 1.269 . S
C414 O415 1.249 . S
C414 O416 1.270 . S
O415 Zn407 1.943 . S
O415 C414 1.249 . S
O416 Zn406 2.067 . S
O416 C414 1.270 . S
C417 O410 1.262 . S
C417 O418 1.232 . S
O418 C417 1.232 . S
C419 O411 1.260 . S
C419 O412 1.257 . S
Zn420 O423 2.031 . S
Zn420 O425 2.049 . S
Zn420 O430 2.067 . S
Zn421 O422 1.962 . S
Zn421 O424 1.986 . S
Zn421 O426 1.996 . S
Zn421 O429 1.943 . S
O422 Zn421 1.962 . S
O422 C427 1.254 . S
O423 Zn420 2.031 . S
O423 C427 1.269 . S
O424 Zn421 1.986 . S
O424 C431 1.262 . S
O425 Zn420 2.049 . S
O425 C433 1.260 . S
O426 Zn421 1.996 . S
O426 C433 1.257 . S
C427 O422 1.254 . S
C427 O423 1.269 . S
C428 O429 1.249 . S
C428 O430 1.270 . S
O429 Zn421 1.943 . S
O429 C428 1.249 . S
O430 Zn420 2.067 . S
O430 C428 1.270 . S
C431 O424 1.262 . S
C431 O432 1.232 . S
O432 C431 1.232 . S
C433 O425 1.260 . S
C433 O426 1.257 . S
Zn434 O437 2.031 . S
Zn434 O439 2.049 . S
Zn434 O444 2.067 . S
Zn435 O436 1.962 . S
Zn435 O438 1.986 . S
Zn435 O440 1.996 . S
Zn435 O443 1.943 . S
O436 Zn435 1.962 . S
O436 C441 1.254 . S
O437 Zn434 2.031 . S
O437 C441 1.269 . S
O438 Zn435 1.986 . S
O438 C445 1.262 . S
O439 Zn434 2.049 . S
O439 C447 1.260 . S
O440 Zn435 1.996 . S
O440 C447 1.257 . S
C441 O436 1.254 . S
C441 O437 1.269 . S
C442 O443 1.249 . S
C442 O444 1.270 . S
O443 Zn435 1.943 . S
O443 C442 1.249 . S
O444 Zn434 2.067 . S
O444 C442 1.270 . S
C445 O438 1.262 . S
C445 O446 1.232 . S
O446 C445 1.232 . S
C447 O439 1.260 . S
C447 O440 1.257 . S
Zn448 O451 2.031 . S
Zn448 O453 2.049 . S
Zn448 O458 2.067 . S
Zn449 O450 1.962 . S
Zn449 O452 1.986 . S
Zn449 O454 1.996 . S
Zn449 O457 1.943 . S
O450 Zn449 1.962 . S
O450 C455 1.254 . S
O451 Zn448 2.031 . S
O451 C455 1.269 . S
O452 Zn449 1.986 . S
O452 C459 1.262 . S
O453 Zn448 2.049 . S
O453 C461 1.260 . S
O454 Zn449 1.996 . S
O454 C461 1.257 . S
C455 O450 1.254 . S
C455 O451 1.269 . S
C456 O457 1.249 . S
C456 O458 1.270 . S
O457 Zn449 1.943 . S
O457 C456 1.249 . S
O458 Zn448 2.067 . S
O458 C456 1.270 . S
C459 O452 1.262 . S
C459 O460 1.232 . S
O460 C459 1.232 . S
C461 O453 1.260 . S
C461 O454 1.257 . S
Zn462 O465 2.031 . S
Zn462 O467 2.049 . S
Zn462 O472 2.067 . S
Zn463 O464 1.962 . S
Zn463 O466 1.986 . S
Zn463 O468 1.996 . S
Zn463 O471 1.943 . S
O464 Zn463 1.962 . S
O464 C469 1.254 . S
O465 Zn462 2.031 . S
O465 C469 1.269 . S
O466 Zn463 1.986 . S
O466 C473 1.262 . S
O467 Zn462 2.049 . S
O467 C475 1.260 . S
O468 Zn463 1.996 . S
O468 C475 1.257 . S
C469 O464 1.254 . S
C469 O465 1.269 . S
C470 O471 1.249 . S
C470 O472 1.270 . S
O471 Zn463 1.943 . S
O471 C470 1.249 . S
O472 Zn462 2.067 . S
O472 C470 1.270 . S
C473 O466 1.262 . S
C473 O474 1.232 . S
O474 C473 1.232 . S
C475 O467 1.260 . S
C475 O468 1.257 . S
Zn476 O479 2.031 . S
Zn476 O481 2.049 . S
Zn476 O486 2.067 . S
Zn477 O478 1.962 . S
Zn477 O480 1.986 . S
Zn477 O482 1.996 . S
Zn477 O485 1.943 . S
O478 Zn477 1.962 . S
O478 C483 1.254 . S
O479 Zn476 2.031 . S
O479 C483 1.269 . S
O480 Zn477 1.986 . S
O480 C487 1.262 . S
O481 Zn476 2.049 . S
O481 C489 1.260 . S
O482 Zn477 1.996 . S
O482 C489 1.257 . S
C483 O478 1.254 . S
C483 O479 1.269 . S
C484 O485 1.249 . S
C484 O486 1.270 . S
O485 Zn477 1.943 . S
O485 C484 1.249 . S
O486 Zn476 2.067 . S
O486 C484 1.270 . S
C487 O480 1.262 . S
C487 O488 1.232 . S
O488 C487 1.232 . S
C489 O481 1.260 . S
C489 O482 1.257 . S
Zn490 O493 2.031 . S
Zn490 O495 2.049 . S
Zn490 O500 2.067 . S
Zn491 O492 1.962 . S
Zn491 O494 1.986 . S
Zn491 O496 1.996 . S
Zn491 O499 1.943 . S
O492 Zn491 1.962 . S
O492 C497 1.254 . S
O493 Zn490 2.031 . S
O493 C497 1.269 . S
O494 Zn491 1.986 . S
O494 C501 1.262 . S
O495 Zn490 2.049 . S
O495 C503 1.260 . S
O496 Zn491 1.996 . S
O496 C503 1.257 . S
C497 O492 1.254 . S
C497 O493 1.269 . S
C498 O499 1.249 . S
C498 O500 1.270 . S
O499 Zn491 1.943 . S
O499 C498 1.249 . S
O500 Zn490 2.067 . S
O500 C498 1.270 . S
C501 O494 1.262 . S
C501 O502 1.232 . S
O502 C501 1.232 . S
C503 O495 1.260 . S
C503 O496 1.257 . S
Zn504 O507 2.031 . S
Zn504 O509 2.049 . S
Zn504 O514 2.067 . S
Zn505 O506 1.962 . S
Zn505 O508 1.986 . S
Zn505 O510 1.996 . S
Zn505 O513 1.943 . S
O506 Zn505 1.962 . S
O506 C511 1.254 . S
O507 Zn504 2.031 . S
O507 C511 1.269 . S
O508 Zn505 1.986 . S
O508 C515 1.262 . S
O509 Zn504 2.049 . S
O509 C517 1.260 . S
O510 Zn505 1.996 . S
O510 C517 1.257 . S
C511 O506 1.254 . S
C511 O507 1.269 . S
C512 O513 1.249 . S
C512 O514 1.270 . S
O513 Zn505 1.943 . S
O513 C512 1.249 . S
O514 Zn504 2.067 . S
O514 C512 1.270 . S
C515 O508 1.262 . S
C515 O516 1.232 . S
O516 C515 1.232 . S
C517 O509 1.260 . S
C517 O510 1.257 . S
Zn518 O521 2.031 . S
Zn518 O523 2.049 . S
Zn518 O528 2.067 . S
Zn519 O520 1.962 . S
Zn519 O522 1.986 . S
Zn519 O524 1.996 . S
Zn519 O527 1.943 . S
O520 Zn519 1.962 . S
O520 C525 1.254 . S
O521 Zn518 2.031 . S
O521 C525 1.269 . S
O522 Zn519 1.986 . S
O522 C529 1.262 . S
O523 Zn518 2.049 . S
O523 C531 1.260 . S
O524 Zn519 1.996 . S
O524 C531 1.257 . S
C525 O520 1.254 . S
C525 O521 1.269 . S
C526 O527 1.249 . S
C526 O528 1.270 . S
O527 Zn519 1.943 . S
O527 C526 1.249 . S
O528 Zn518 2.067 . S
O528 C526 1.270 . S
C529 O522 1.262 . S
C529 O530 1.232 . S
O530 C529 1.232 . S
C531 O523 1.260 . S
C531 O524 1.257 . S
Zn532 O535 2.031 . S
Zn532 O537 2.049 . S
Zn532 O542 2.067 . S
Zn533 O534 1.962 . S
Zn533 O536 1.986 . S
Zn533 O538 1.996 . S
Zn533 O541 1.943 . S
O534 Zn533 1.962 . S
O534 C539 1.254 . S
O535 Zn532 2.031 . S
O535 C539 1.269 . S
O536 Zn533 1.986 . S
O536 C543 1.262 . S
O537 Zn532 2.049 . S
O537 C545 1.260 . S
O538 Zn533 1.996 . S
O538 C545 1.257 . S
C539 O534 1.254 . S
C539 O535 1.269 . S
C540 O541 1.249 . S
C540 O542 1.270 . S
O541 Zn533 1.943 . S
O541 C540 1.249 . S
O542 Zn532 2.067 . S
O542 C540 1.270 . S
C543 O536 1.262 . S
C543 O544 1.232 . S
O544 C543 1.232 . S
C545 O537 1.260 . S
C545 O538 1.257 . S
Zn546 O549 2.031 . S
Zn546 O551 2.049 . S
Zn546 O556 2.067 . S
Zn547 O548 1.962 . S
Zn547 O550 1.986 . S
Zn547 O552 1.996 . S
Zn547 O555 1.943 . S
O548 Zn547 1.962 . S
O548 C553 1.254 . S
O549 Zn546 2.031 . S
O549 C553 1.269 . S
O550 Zn547 1.986 . S
O550 C557 1.262 . S
O551 Zn546 2.049 . S
O551 C559 1.260 . S
O552 Zn547 1.996 . S
O552 C559 1.257 . S
C553 O548 1.254 . S
C553 O549 1.269 . S
C554 O555 1.249 . S
C554 O556 1.270 . S
O555 Zn547 1.943 . S
O555 C554 1.249 . S
O556 Zn546 2.067 . S
O556 C554 1.270 . S
C557 O550 1.262 . S
C557 O558 1.232 . S
O558 C557 1.232 . S
C559 O551 1.260 . S
C559 O552 1.257 . S
Zn560 O563 2.031 . S
Zn560 O565 2.049 . S
Zn560 O570 2.067 . S
Zn561 O562 1.962 . S
Zn561 O564 1.986 . S
Zn561 O566 1.996 . S
Zn561 O569 1.943 . S
O562 Zn561 1.962 . S
O562 C567 1.254 . S
O563 Zn560 2.031 . S
O563 C567 1.269 . S
O564 Zn561 1.986 . S
O564 C571 1.262 . S
O565 Zn560 2.049 . S
O565 C573 1.260 . S
O566 Zn561 1.996 . S
O566 C573 1.257 . S
C567 O562 1.254 . S
C567 O563 1.269 . S
C568 O569 1.249 . S
C568 O570 1.270 . S
O569 Zn561 1.943 . S
O569 C568 1.249 . S
O570 Zn560 2.067 . S
O570 C568 1.270 . S
C571 O564 1.262 . S
C571 O572 1.232 . S
O572 C571 1.232 . S
C573 O565 1.260 . S
C573 O566 1.257 . S
Zn574 O577 2.031 . S
Zn574 O579 2.049 . S
Zn574 O584 2.067 . S
Zn575 O576 1.962 . S
Zn575 O578 1.986 . S
Zn575 O580 1.996 . S
Zn575 O583 1.943 . S
O576 Zn575 1.962 . S
O576 C581 1.254 . S
O577 Zn574 2.031 . S
O577 C581 1.269 . S
O578 Zn575 1.986 . S
O578 C585 1.262 . S
O579 Zn574 2.049 . S
O579 C587 1.260 . S
O580 Zn575 1.996 . S
O580 C587 1.257 . S
C581 O576 1.254 . S
C581 O577 1.269 . S
C582 O583 1.249 . S
C582 O584 1.270 . S
O583 Zn575 1.943 . S
O583 C582 1.249 . S
O584 Zn574 2.067 . S
O584 C582 1.270 . S
C585 O578 1.262 . S
C585 O586 1.232 . S
O586 C585 1.232 . S
C587 O579 1.260 . S
C587 O580 1.257 . S
Zn588 O591 2.031 . S
Zn588 O593 2.049 . S
Zn588 O598 2.067 . S
Zn589 O590 1.962 . S
Zn589 O592 1.986 . S
Zn589 O594 1.996 . S
Zn589 O597 1.943 . S
O590 Zn589 1.962 . S
O590 C595 1.254 . S
O591 Zn588 2.031 . S
O591 C595 1.269 . S
O592 Zn589 1.986 . S
O592 C599 1.262 . S
O593 Zn588 2.049 . S
O593 C601 1.260 . S
O594 Zn589 1.996 . S
O594 C601 1.257 . S
C595 O590 1.254 . S
C595 O591 1.269 . S
C596 O597 1.249 . S
C596 O598 1.270 . S
O597 Zn589 1.943 . S
O597 C596 1.249 . S
O598 Zn588 2.067 . S
O598 C596 1.270 . S
C599 O592 1.262 . S
C599 O600 1.232 . S
O600 C599 1.232 . S
C601 O593 1.260 . S
C601 O594 1.257 . S
Zn602 O605 2.031 . S
Zn602 O607 2.049 . S
Zn602 O612 2.067 . S
Zn603 O604 1.962 . S
Zn603 O606 1.986 . S
Zn603 O608 1.996 . S
Zn603 O611 1.943 . S
O604 Zn603 1.962 . S
O604 C609 1.254 . S
O605 Zn602 2.031 . S
O605 C609 1.269 . S
O606 Zn603 1.986 . S
O606 C613 1.262 . S
O607 Zn602 2.049 . S
O607 C615 1.260 . S
O608 Zn603 1.996 . S
O608 C615 1.257 . S
C609 O604 1.254 . S
C609 O605 1.269 . S
C610 O611 1.249 . S
C610 O612 1.270 . S
O611 Zn603 1.943 . S
O611 C610 1.249 . S
O612 Zn602 2.067 . S
O612 C610 1.270 . S
C613 O606 1.262 . S
C613 O614 1.232 . S
O614 C613 1.232 . S
C615 O607 1.260 . S
C615 O608 1.257 . S
Zn616 O619 2.031 . S
Zn616 O621 2.049 . S
Zn616 O626 2.067 . S
Zn617 O618 1.962 . S
Zn617 O620 1.986 . S
Zn617 O622 1.996 . S
Zn617 O625 1.943 . S
O618 Zn617 1.962 . S
O618 C623 1.254 . S
O619 Zn616 2.031 . S
O619 C623 1.269 . S
O620 Zn617 1.986 . S
O620 C627 1.262 . S
O621 Zn616 2.049 . S
O621 C629 1.260 . S
O622 Zn617 1.996 . S
O622 C629 1.257 . S
C623 O618 1.254 . S
C623 O619 1.269 . S
C624 O625 1.249 . S
C624 O626 1.270 . S
O625 Zn617 1.943 . S
O625 C624 1.249 . S
O626 Zn616 2.067 . S
O626 C624 1.270 . S
C627 O620 1.262 . S
C627 O628 1.232 . S
O628 C627 1.232 . S
C629 O621 1.260 . S
C629 O622 1.257 . S
Zn630 O633 2.031 . S
Zn630 O635 2.049 . S
Zn630 O640 2.067 . S
Zn631 O632 1.962 . S
Zn631 O634 1.986 . S
Zn631 O636 1.996 . S
Zn631 O639 1.943 . S
O632 Zn631 1.962 . S
O632 C637 1.254 . S
O633 Zn630 2.031 . S
O633 C637 1.269 . S
O634 Zn631 1.986 . S
O634 C641 1.262 . S
O635 Zn630 2.049 . S
O635 C643 1.260 . S
O636 Zn631 1.996 . S
O636 C643 1.257 . S
C637 O632 1.254 . S
C637 O633 1.269 . S
C638 O639 1.249 . S
C638 O640 1.270 . S
O639 Zn631 1.943 . S
O639 C638 1.249 . S
O640 Zn630 2.067 . S
O640 C638 1.270 . S
C641 O634 1.262 . S
C641 O642 1.232 . S
O642 C641 1.232 . S
C643 O635 1.260 . S
C643 O636 1.257 . S
Zn644 O647 2.031 . S
Zn644 O649 2.049 . S
Zn644 O654 2.067 . S
Zn645 O646 1.962 . S
Zn645 O648 1.986 . S
Zn645 O650 1.996 . S
Zn645 O653 1.943 . S
O646 Zn645 1.962 . S
O646 C651 1.254 . S
O647 Zn644 2.031 . S
O647 C651 1.269 . S
O648 Zn645 1.986 . S
O648 C655 1.262 . S
O649 Zn644 2.049 . S
O649 C657 1.260 . S
O650 Zn645 1.996 . S
O650 C657 1.257 . S
C651 O646 1.254 . S
C651 O647 1.269 . S
C652 O653 1.249 . S
C652 O654 1.270 . S
O653 Zn645 1.943 . S
O653 C652 1.249 . S
O654 Zn644 2.067 . S
O654 C652 1.270 . S
C655 O648 1.262 . S
C655 O656 1.232 . S
O656 C655 1.232 . S
C657 O649 1.260 . S
C657 O650 1.257 . S
Zn658 O661 2.031 . S
Zn658 O663 2.049 . S
Zn658 O668 2.067 . S
Zn659 O660 1.962 . S
Zn659 O662 1.986 . S
Zn659 O664 1.996 . S
Zn659 O667 1.943 . S
O660 Zn659 1.962 . S
O660 C665 1.254 . S
O661 Zn658 2.031 . S
O661 C665 1.269 . S
O662 Zn659 1.986 . S
O662 C669 1.262 . S
O663 Zn658 2.049 . S
O663 C671 1.260 . S
O664 Zn659 1.996 . S
O664 C671 1.257 . S
C665 O660 1.254 . S
C665 O661 1.269 . S
C666 O667 1.249 . S
C666 O668 1.270 . S
O667 Zn659 1.943 . S
O667 C666 1.249 . S
O668 Zn658 2.067 . S
O668 C666 1.270 . S
C669 O662 1.262 . S
C669 O670 1.232 . S
O670 C669 1.232 . S
C671 O663 1.260 . S
C671 O664 1.257 . S
H672 C678 0.930 . S
H673 C682 0.930 . S
H674 C687 0.929 . S
H675 C685 0.929 . S
H676 C680 0.929 . S
H677 C686 0.929 . S
C678 H672 0.930 . S
C678 C679 1.367 . S
C678 C686 1.378 . S
C679 C678 1.367 . S
C679 C687 1.433 . S
C680 H676 0.929 . S
C680 C682 1.378 . S
C680 C684 1.350 . S
C681 C684 1.463 1_655 S
C681 C686 1.350 . S
C681 N689 1.427 . S
C682 H673 0.930 . S
C682 C680 1.378 . S
C682 C683 1.367 . S
C683 C682 1.367 . S
C683 C685 1.433 . S
C684 C680 1.350 . S
C684 C681 1.463 1_455 S
C684 N688 1.427 . S
C685 H675 0.929 . S
C685 C683 1.433 . S
C685 N688 1.384 . S
C686 H677 0.929 . S
C686 C678 1.378 . S
C686 C681 1.350 . S
C687 H674 0.929 . S
C687 C679 1.433 . S
C687 N689 1.384 . S
N688 C684 1.427 . S
N688 C685 1.384 . S
N689 C681 1.427 . S
N689 C687 1.384 . S
H690 C696 0.930 . S
H691 C700 0.930 . S
H692 C705 0.929 . S
H693 C703 0.929 . S
H694 C698 0.929 . S
H695 C704 0.929 . S
C696 H690 0.930 . S
C696 C697 1.367 . S
C696 C704 1.378 . S
C697 C696 1.367 . S
C697 C705 1.433 . S
C698 H694 0.929 . S
C698 C700 1.378 . S
C698 C702 1.350 . S
C699 C702 1.463 . S
C699 C704 1.350 . S
C699 N707 1.427 . S
C700 H691 0.930 . S
C700 C698 1.378 . S
C700 C701 1.367 . S
C701 C700 1.367 . S
C701 C703 1.433 . S
C702 C698 1.350 . S
C702 C699 1.463 . S
C702 N706 1.427 . S
C703 H693 0.929 . S
C703 C701 1.433 . S
C703 N706 1.384 . S
C704 H695 0.929 . S
C704 C696 1.378 . S
C704 C699 1.350 . S
C705 H692 0.929 . S
C705 C697 1.433 . S
C705 N707 1.384 . S
N706 C702 1.427 . S
N706 C703 1.384 . S
N707 C699 1.427 . S
N707 C705 1.384 . S
H708 C714 0.930 . S
H709 C718 0.930 . S
H710 C723 0.929 . S
H711 C721 0.929 . S
H712 C716 0.929 . S
H713 C722 0.929 . S
C714 H708 0.930 . S
C714 C715 1.367 . S
C714 C722 1.378 . S
C715 C714 1.367 . S
C715 C723 1.433 . S
C716 H712 0.929 . S
C716 C718 1.378 . S
C716 C720 1.350 . S
C717 C720 1.463 1_455 S
C717 C722 1.350 . S
C717 N725 1.427 . S
C718 H709 0.930 . S
C718 C716 1.378 . S
C718 C719 1.367 . S
C719 C718 1.367 . S
C719 C721 1.433 . S
C720 C716 1.350 . S
C720 C717 1.463 1_655 S
C720 N724 1.427 . S
C721 H711 0.929 . S
C721 C719 1.433 . S
C721 N724 1.384 . S
C722 H713 0.929 . S
C722 C714 1.378 . S
C722 C717 1.350 . S
C723 H710 0.929 . S
C723 C715 1.433 . S
C723 N725 1.384 . S
N724 C720 1.427 . S
N724 C721 1.384 . S
N725 C717 1.427 . S
N725 C723 1.384 . S
H726 C732 0.930 . S
H727 C736 0.930 . S
H728 C741 0.929 . S
H729 C739 0.929 . S
H730 C734 0.929 . S
H731 C740 0.929 . S
C732 H726 0.930 . S
C732 C733 1.367 . S
C732 C740 1.378 . S
C733 C732 1.367 . S
C733 C741 1.433 . S
C734 H730 0.929 . S
C734 C736 1.378 . S
C734 C738 1.350 . S
C735 C738 1.463 . S
C735 C740 1.350 . S
C735 N743 1.427 . S
C736 H727 0.930 . S
C736 C734 1.378 . S
C736 C737 1.367 . S
C737 C736 1.367 . S
C737 C739 1.433 . S
C738 C734 1.350 . S
C738 C735 1.463 . S
C738 N742 1.427 . S
C739 H729 0.929 . S
C739 C737 1.433 . S
C739 N742 1.384 . S
C740 H731 0.929 . S
C740 C732 1.378 . S
C740 C735 1.350 . S
C741 H728 0.929 . S
C741 C733 1.433 . S
C741 N743 1.384 . S
N742 C738 1.427 . S
N742 C739 1.384 . S
N743 C735 1.427 . S
N743 C741 1.384 . S
H744 C750 0.930 . S
H745 C754 0.930 . S
H746 C759 0.929 . S
H747 C757 0.929 . S
H748 C752 0.929 . S
H749 C758 0.929 . S
C750 H744 0.930 . S
C750 C751 1.367 . S
C750 C758 1.378 . S
C751 C750 1.367 . S
C751 C759 1.433 . S
C752 H748 0.929 . S
C752 C754 1.378 . S
C752 C756 1.350 . S
C753 C756 1.463 1_655 S
C753 C758 1.350 . S
C753 N761 1.427 . S
C754 H745 0.930 . S
C754 C752 1.378 . S
C754 C755 1.367 . S
C755 C754 1.367 . S
C755 C757 1.433 . S
C756 C752 1.350 . S
C756 C753 1.463 1_455 S
C756 N760 1.427 . S
C757 H747 0.929 . S
C757 C755 1.433 . S
C757 N760 1.384 . S
C758 H749 0.929 . S
C758 C750 1.378 . S
C758 C753 1.350 . S
C759 H746 0.929 . S
C759 C751 1.433 . S
C759 N761 1.384 . S
N760 C756 1.427 . S
N760 C757 1.384 . S
N761 C753 1.427 . S
N761 C759 1.384 . S
H762 C768 0.930 . S
H763 C772 0.930 . S
H764 C777 0.929 . S
H765 C775 0.929 . S
H766 C770 0.929 . S
H767 C776 0.929 . S
C768 H762 0.930 . S
C768 C769 1.367 . S
C768 C776 1.378 . S
C769 C768 1.367 . S
C769 C777 1.433 . S
C770 H766 0.929 . S
C770 C772 1.378 . S
C770 C774 1.350 . S
C771 C774 1.463 . S
C771 C776 1.350 . S
C771 N779 1.427 . S
C772 H763 0.930 . S
C772 C770 1.378 . S
C772 C773 1.367 . S
C773 C772 1.367 . S
C773 C775 1.433 . S
C774 C770 1.350 . S
C774 C771 1.463 . S
C774 N778 1.427 . S
C775 H765 0.929 . S
C775 C773 1.433 . S
C775 N778 1.384 . S
C776 H767 0.929 . S
C776 C768 1.378 . S
C776 C771 1.350 . S
C777 H764 0.929 . S
C777 C769 1.433 . S
C777 N779 1.384 . S
N778 C774 1.427 . S
N778 C775 1.384 . S
N779 C771 1.427 . S
N779 C777 1.384 . S
H780 C786 0.930 . S
H781 C790 0.930 . S
H782 C795 0.929 . S
H783 C793 0.929 . S
H784 C788 0.929 . S
H785 C794 0.929 . S
C786 H780 0.930 . S
C786 C787 1.367 . S
C786 C794 1.378 . S
C787 C786 1.367 . S
C787 C795 1.433 . S
C788 H784 0.929 . S
C788 C790 1.378 . S
C788 C792 1.350 . S
C789 C792 1.463 1_455 S
C789 C794 1.350 . S
C789 N797 1.427 . S
C790 H781 0.930 . S
C790 C788 1.378 . S
C790 C791 1.367 . S
C791 C790 1.367 . S
C791 C793 1.433 . S
C792 C788 1.350 . S
C792 C789 1.463 1_655 S
C792 N796 1.427 . S
C793 H783 0.929 . S
C793 C791 1.433 . S
C793 N796 1.384 . S
C794 H785 0.929 . S
C794 C786 1.378 . S
C794 C789 1.350 . S
C795 H782 0.929 . S
C795 C787 1.433 . S
C795 N797 1.384 . S
N796 C792 1.427 . S
N796 C793 1.384 . S
N797 C789 1.427 . S
N797 C795 1.384 . S
H798 C804 0.930 . S
H799 C808 0.930 . S
H800 C813 0.929 . S
H801 C811 0.929 . S
H802 C806 0.929 . S
H803 C812 0.929 . S
C804 H798 0.930 . S
C804 C805 1.367 . S
C804 C812 1.378 . S
C805 C804 1.367 . S
C805 C813 1.433 . S
C806 H802 0.929 . S
C806 C808 1.378 . S
C806 C810 1.350 . S
C807 C810 1.463 . S
C807 C812 1.350 . S
C807 N815 1.427 . S
C808 H799 0.930 . S
C808 C806 1.378 . S
C808 C809 1.367 . S
C809 C808 1.367 . S
C809 C811 1.433 . S
C810 C806 1.350 . S
C810 C807 1.463 . S
C810 N814 1.427 . S
C811 H801 0.929 . S
C811 C809 1.433 . S
C811 N814 1.384 . S
C812 H803 0.929 . S
C812 C804 1.378 . S
C812 C807 1.350 . S
C813 H800 0.929 . S
C813 C805 1.433 . S
C813 N815 1.384 . S
N814 C810 1.427 . S
N814 C811 1.384 . S
N815 C807 1.427 . S
N815 C813 1.384 . S
H816 C822 0.930 . S
H817 C826 0.930 . S
H818 C831 0.929 . S
H819 C829 0.929 . S
H820 C824 0.929 . S
H821 C830 0.929 . S
C822 H816 0.930 . S
C822 C823 1.367 . S
C822 C830 1.378 . S
C823 C822 1.367 . S
C823 C831 1.433 . S
C824 H820 0.929 . S
C824 C826 1.378 . S
C824 C828 1.350 . S
C825 C828 1.463 1_565 S
C825 C830 1.350 . S
C825 N833 1.427 . S
C826 H817 0.930 . S
C826 C824 1.378 . S
C826 C827 1.367 . S
C827 C826 1.367 . S
C827 C829 1.433 . S
C828 C824 1.350 . S
C828 C825 1.463 1_545 S
C828 N832 1.427 . S
C829 H819 0.929 . S
C829 C827 1.433 . S
C829 N832 1.384 . S
C830 H821 0.929 . S
C830 C822 1.378 . S
C830 C825 1.350 . S
C831 H818 0.929 . S
C831 C823 1.433 . S
C831 N833 1.384 . S
N832 C828 1.427 . S
N832 C829 1.384 . S
N833 C825 1.427 . S
N833 C831 1.384 . S
H834 C840 0.930 . S
H835 C844 0.930 . S
H836 C849 0.929 . S
H837 C847 0.929 . S
H838 C842 0.929 . S
H839 C848 0.929 . S
C840 H834 0.930 . S
C840 C841 1.367 . S
C840 C848 1.378 . S
C841 C840 1.367 . S
C841 C849 1.433 . S
C842 H838 0.929 . S
C842 C844 1.378 . S
C842 C846 1.350 . S
C843 C846 1.463 . S
C843 C848 1.350 . S
C843 N851 1.427 . S
C844 H835 0.930 . S
C844 C842 1.378 . S
C844 C845 1.367 . S
C845 C844 1.367 . S
C845 C847 1.433 . S
C846 C842 1.350 . S
C846 C843 1.463 . S
C846 N850 1.427 . S
C847 H837 0.929 . S
C847 C845 1.433 . S
C847 N850 1.384 . S
C848 H839 0.929 . S
C848 C840 1.378 . S
C848 C843 1.350 . S
C849 H836 0.929 . S
C849 C841 1.433 . S
C849 N851 1.384 . S
N850 C846 1.427 . S
N850 C847 1.384 . S
N851 C843 1.427 . S
N851 C849 1.384 . S
H852 C858 0.930 . S
H853 C862 0.930 . S
H854 C867 0.929 . S
H855 C865 0.929 . S
H856 C860 0.929 . S
H857 C866 0.929 . S
C858 H852 0.930 . S
C858 C859 1.367 . S
C858 C866 1.378 . S
C859 C858 1.367 . S
C859 C867 1.433 . S
C860 H856 0.929 . S
C860 C862 1.378 . S
C860 C864 1.350 . S
C861 C864 1.463 1_545 S
C861 C866 1.350 . S
C861 N869 1.427 . S
C862 H853 0.930 . S
C862 C860 1.378 . S
C862 C863 1.367 . S
C863 C862 1.367 . S
C863 C865 1.433 . S
C864 C860 1.350 . S
C864 C861 1.463 1_565 S
C864 N868 1.427 . S
C865 H855 0.929 . S
C865 C863 1.433 . S
C865 N868 1.384 . S
C866 H857 0.929 . S
C866 C858 1.378 . S
C866 C861 1.350 . S
C867 H854 0.929 . S
C867 C859 1.433 . S
C867 N869 1.384 . S
N868 C864 1.427 . S
N868 C865 1.384 . S
N869 C861 1.427 . S
N869 C867 1.384 . S
H870 C876 0.930 . S
H871 C880 0.930 . S
H872 C885 0.929 . S
H873 C883 0.929 . S
H874 C878 0.929 . S
H875 C884 0.929 . S
C876 H870 0.930 . S
C876 C877 1.367 . S
C876 C884 1.378 . S
C877 C876 1.367 . S
C877 C885 1.433 . S
C878 H874 0.929 . S
C878 C880 1.378 . S
C878 C882 1.350 . S
C879 C882 1.463 . S
C879 C884 1.350 . S
C879 N887 1.427 . S
C880 H871 0.930 . S
C880 C878 1.378 . S
C880 C881 1.367 . S
C881 C880 1.367 . S
C881 C883 1.433 . S
C882 C878 1.350 . S
C882 C879 1.463 . S
C882 N886 1.427 . S
C883 H873 0.929 . S
C883 C881 1.433 . S
C883 N886 1.384 . S
C884 H875 0.929 . S
C884 C876 1.378 . S
C884 C879 1.350 . S
C885 H872 0.929 . S
C885 C877 1.433 . S
C885 N887 1.384 . S
N886 C882 1.427 . S
N886 C883 1.384 . S
N887 C879 1.427 . S
N887 C885 1.384 . S
H888 C894 0.930 . S
H889 C898 0.930 . S
H890 C903 0.929 . S
H891 C901 0.929 . S
H892 C896 0.929 . S
H893 C902 0.929 . S
C894 H888 0.930 . S
C894 C895 1.367 . S
C894 C902 1.378 . S
C895 C894 1.367 . S
C895 C903 1.433 . S
C896 H892 0.929 . S
C896 C898 1.378 . S
C896 C900 1.350 . S
C897 C900 1.463 1_545 S
C897 C902 1.350 . S
C897 N905 1.427 . S
C898 H889 0.930 . S
C898 C896 1.378 . S
C898 C899 1.367 . S
C899 C898 1.367 . S
C899 C901 1.433 . S
C900 C896 1.350 . S
C900 C897 1.463 1_565 S
C900 N904 1.427 . S
C901 H891 0.929 . S
C901 C899 1.433 . S
C901 N904 1.384 . S
C902 H893 0.929 . S
C902 C894 1.378 . S
C902 C897 1.350 . S
C903 H890 0.929 . S
C903 C895 1.433 . S
C903 N905 1.384 . S
N904 C900 1.427 . S
N904 C901 1.384 . S
N905 C897 1.427 . S
N905 C903 1.384 . S
H906 C912 0.930 . S
H907 C916 0.930 . S
H908 C921 0.929 . S
H909 C919 0.929 . S
H910 C914 0.929 . S
H911 C920 0.929 . S
C912 H906 0.930 . S
C912 C913 1.367 . S
C912 C920 1.378 . S
C913 C912 1.367 . S
C913 C921 1.433 . S
C914 H910 0.929 . S
C914 C916 1.378 . S
C914 C918 1.350 . S
C915 C918 1.463 . S
C915 C920 1.350 . S
C915 N923 1.427 . S
C916 H907 0.930 . S
C916 C914 1.378 . S
C916 C917 1.367 . S
C917 C916 1.367 . S
C917 C919 1.433 . S
C918 C914 1.350 . S
C918 C915 1.463 . S
C918 N922 1.427 . S
C919 H909 0.929 . S
C919 C917 1.433 . S
C919 N922 1.384 . S
C920 H911 0.929 . S
C920 C912 1.378 . S
C920 C915 1.350 . S
C921 H908 0.929 . S
C921 C913 1.433 . S
C921 N923 1.384 . S
N922 C918 1.427 . S
N922 C919 1.384 . S
N923 C915 1.427 . S
N923 C921 1.384 . S
H924 C930 0.930 . S
H925 C934 0.930 . S
H926 C939 0.929 . S
H927 C937 0.929 . S
H928 C932 0.929 . S
H929 C938 0.929 . S
C930 H924 0.930 . S
C930 C931 1.367 . S
C930 C938 1.378 . S
C931 C930 1.367 . S
C931 C939 1.433 . S
C932 H928 0.929 . S
C932 C934 1.378 . S
C932 C936 1.350 . S
C933 C936 1.463 1_545 S
C933 C938 1.350 . S
C933 N941 1.427 . S
C934 H925 0.930 . S
C934 C932 1.378 . S
C934 C935 1.367 . S
C935 C934 1.367 . S
C935 C937 1.433 . S
C936 C932 1.350 . S
C936 C933 1.463 1_565 S
C936 N940 1.427 . S
C937 H927 0.929 . S
C937 C935 1.433 . S
C937 N940 1.384 . S
C938 H929 0.929 . S
C938 C930 1.378 . S
C938 C933 1.350 . S
C939 H926 0.929 . S
C939 C931 1.433 . S
C939 N941 1.384 . S
N940 C936 1.427 . S
N940 C937 1.384 . S
N941 C933 1.427 . S
N941 C939 1.384 . S
H942 C948 0.930 . S
H943 C952 0.930 . S
H944 C957 0.929 . S
H945 C955 0.929 . S
H946 C950 0.929 . S
H947 C956 0.929 . S
C948 H942 0.930 . S
C948 C949 1.367 . S
C948 C956 1.378 . S
C949 C948 1.367 . S
C949 C957 1.433 . S
C950 H946 0.929 . S
C950 C952 1.378 . S
C950 C954 1.350 . S
C951 C954 1.463 . S
C951 C956 1.350 . S
C951 N959 1.427 . S
C952 H943 0.930 . S
C952 C950 1.378 . S
C952 C953 1.367 . S
C953 C952 1.367 . S
C953 C955 1.433 . S
C954 C950 1.350 . S
C954 C951 1.463 . S
C954 N958 1.427 . S
C955 H945 0.929 . S
C955 C953 1.433 . S
C955 N958 1.384 . S
C956 H947 0.929 . S
C956 C948 1.378 . S
C956 C951 1.350 . S
C957 H944 0.929 . S
C957 C949 1.433 . S
C957 N959 1.384 . S
N958 C954 1.427 . S
N958 C955 1.384 . S
N959 C951 1.427 . S
N959 C957 1.384 . S
H960 C966 0.930 . S
H961 C970 0.930 . S
H962 C975 0.929 . S
H963 C973 0.929 . S
H964 C968 0.929 . S
H965 C974 0.929 . S
C966 H960 0.930 . S
C966 C967 1.367 . S
C966 C974 1.378 . S
C967 C966 1.367 . S
C967 C975 1.433 . S
C968 H964 0.929 . S
C968 C970 1.378 . S
C968 C972 1.350 . S
C969 C972 1.463 1_554 S
C969 C974 1.350 . S
C969 N977 1.427 . S
C970 H961 0.930 . S
C970 C968 1.378 . S
C970 C971 1.367 . S
C971 C970 1.367 . S
C971 C973 1.433 . S
C972 C968 1.350 . S
C972 C969 1.463 1_556 S
C972 N976 1.427 . S
C973 H963 0.929 . S
C973 C971 1.433 . S
C973 N976 1.384 . S
C974 H965 0.929 . S
C974 C966 1.378 . S
C974 C969 1.350 . S
C975 H962 0.929 . S
C975 C967 1.433 . S
C975 N977 1.384 . S
N976 C972 1.427 . S
N976 C973 1.384 . S
N977 C969 1.427 . S
N977 C975 1.384 . S
H978 C984 0.930 . S
H979 C988 0.930 . S
H980 C993 0.929 . S
H981 C991 0.929 . S
H982 C986 0.929 . S
H983 C992 0.929 . S
C984 H978 0.930 . S
C984 C985 1.367 . S
C984 C992 1.378 . S
C985 C984 1.367 . S
C985 C993 1.433 . S
C986 H982 0.929 . S
C986 C988 1.378 . S
C986 C990 1.350 . S
C987 C990 1.463 1_554 S
C987 C992 1.350 . S
C987 N995 1.427 . S
C988 H979 0.930 . S
C988 C986 1.378 . S
C988 C989 1.367 . S
C989 C988 1.367 . S
C989 C991 1.433 . S
C990 C986 1.350 . S
C990 C987 1.463 1_556 S
C990 N994 1.427 . S
C991 H981 0.929 . S
C991 C989 1.433 . S
C991 N994 1.384 . S
C992 H983 0.929 . S
C992 C984 1.378 . S
C992 C987 1.350 . S
C993 H980 0.929 . S
C993 C985 1.433 . S
C993 N995 1.384 . S
N994 C990 1.427 . S
N994 C991 1.384 . S
N995 C987 1.427 . S
N995 C993 1.384 . S
H996 C1002 0.930 . S
H997 C1006 0.930 . S
H998 C1011 0.929 . S
H999 C1009 0.929 . S
H1000 C1004 0.929 . S
H1001 C1010 0.929 . S
C1002 H996 0.930 . S
C1002 C1003 1.367 . S
C1002 C1010 1.378 . S
C1003 C1002 1.367 . S
C1003 C1011 1.433 . S
C1004 H1000 0.929 . S
C1004 C1006 1.378 . S
C1004 C1008 1.350 . S
C1005 C1008 1.463 . S
C1005 C1010 1.350 . S
C1005 N1013 1.427 . S
C1006 H997 0.930 . S
C1006 C1004 1.378 . S
C1006 C1007 1.367 . S
C1007 C1006 1.367 . S
C1007 C1009 1.433 . S
C1008 C1004 1.350 . S
C1008 C1005 1.463 . S
C1008 N1012 1.427 . S
C1009 H999 0.929 . S
C1009 C1007 1.433 . S
C1009 N1012 1.384 . S
C1010 H1001 0.929 . S
C1010 C1002 1.378 . S
C1010 C1005 1.350 . S
C1011 H998 0.929 . S
C1011 C1003 1.433 . S
C1011 N1013 1.384 . S
N1012 C1008 1.427 . S
N1012 C1009 1.384 . S
N1013 C1005 1.427 . S
N1013 C1011 1.384 . S
H1014 C1020 0.930 . S
H1015 C1024 0.930 . S
H1016 C1029 0.929 . S
H1017 C1027 0.929 . S
H1018 C1022 0.929 . S
H1019 C1028 0.929 . S
C1020 H1014 0.930 . S
C1020 C1021 1.367 . S
C1020 C1028 1.378 . S
C1021 C1020 1.367 . S
C1021 C1029 1.433 . S
C1022 H1018 0.929 . S
C1022 C1024 1.378 . S
C1022 C1026 1.350 . S
C1023 C1026 1.463 1_554 S
C1023 C1028 1.350 . S
C1023 N1031 1.427 . S
C1024 H1015 0.930 . S
C1024 C1022 1.378 . S
C1024 C1025 1.367 . S
C1025 C1024 1.367 . S
C1025 C1027 1.433 . S
C1026 C1022 1.350 . S
C1026 C1023 1.463 1_556 S
C1026 N1030 1.427 . S
C1027 H1017 0.929 . S
C1027 C1025 1.433 . S
C1027 N1030 1.384 . S
C1028 H1019 0.929 . S
C1028 C1020 1.378 . S
C1028 C1023 1.350 . S
C1029 H1016 0.929 . S
C1029 C1021 1.433 . S
C1029 N1031 1.384 . S
N1030 C1026 1.427 . S
N1030 C1027 1.384 . S
N1031 C1023 1.427 . S
N1031 C1029 1.384 . S
H1032 C1038 0.930 . S
H1033 C1042 0.930 . S
H1034 C1047 0.929 . S
H1035 C1045 0.929 . S
H1036 C1040 0.929 . S
H1037 C1046 0.929 . S
C1038 H1032 0.930 . S
C1038 C1039 1.367 . S
C1038 C1046 1.378 . S
C1039 C1038 1.367 . S
C1039 C1047 1.433 . S
C1040 H1036 0.929 . S
C1040 C1042 1.378 . S
C1040 C1044 1.350 . S
C1041 C1044 1.463 . S
C1041 C1046 1.350 . S
C1041 N1049 1.427 . S
C1042 H1033 0.930 . S
C1042 C1040 1.378 . S
C1042 C1043 1.367 . S
C1043 C1042 1.367 . S
C1043 C1045 1.433 . S
C1044 C1040 1.350 . S
C1044 C1041 1.463 . S
C1044 N1048 1.427 . S
C1045 H1035 0.929 . S
C1045 C1043 1.433 . S
C1045 N1048 1.384 . S
C1046 H1037 0.929 . S
C1046 C1038 1.378 . S
C1046 C1041 1.350 . S
C1047 H1034 0.929 . S
C1047 C1039 1.433 . S
C1047 N1049 1.384 . S
N1048 C1044 1.427 . S
N1048 C1045 1.384 . S
N1049 C1041 1.427 . S
N1049 C1047 1.384 . S
H1050 C1056 0.930 . S
H1051 C1060 0.930 . S
H1052 C1065 0.929 . S
H1053 C1063 0.929 . S
H1054 C1058 0.929 . S
H1055 C1064 0.929 . S
C1056 H1050 0.930 . S
C1056 C1057 1.367 . S
C1056 C1064 1.378 . S
C1057 C1056 1.367 . S
C1057 C1065 1.433 . S
C1058 H1054 0.929 . S
C1058 C1060 1.378 . S
C1058 C1062 1.350 . S
C1059 C1062 1.463 1_554 S
C1059 C1064 1.350 . S
C1059 N1067 1.427 . S
C1060 H1051 0.930 . S
C1060 C1058 1.378 . S
C1060 C1061 1.367 . S
C1061 C1060 1.367 . S
C1061 C1063 1.433 . S
C1062 C1058 1.350 . S
C1062 C1059 1.463 1_556 S
C1062 N1066 1.427 . S
C1063 H1053 0.929 . S
C1063 C1061 1.433 . S
C1063 N1066 1.384 . S
C1064 H1055 0.929 . S
C1064 C1056 1.378 . S
C1064 C1059 1.350 . S
C1065 H1052 0.929 . S
C1065 C1057 1.433 . S
C1065 N1067 1.384 . S
N1066 C1062 1.427 . S
N1066 C1063 1.384 . S
N1067 C1059 1.427 . S
N1067 C1065 1.384 . S
H1068 C1074 0.930 . S
H1069 C1078 0.930 . S
H1070 C1083 0.929 . S
H1071 C1081 0.929 . S
H1072 C1076 0.929 . S
H1073 C1082 0.929 . S
C1074 H1068 0.930 . S
C1074 C1075 1.367 . S
C1074 C1082 1.378 . S
C1075 C1074 1.367 . S
C1075 C1083 1.433 . S
C1076 H1072 0.929 . S
C1076 C1078 1.378 . S
C1076 C1080 1.350 . S
C1077 C1080 1.463 . S
C1077 C1082 1.350 . S
C1077 N1085 1.427 . S
C1078 H1069 0.930 . S
C1078 C1076 1.378 . S
C1078 C1079 1.367 . S
C1079 C1078 1.367 . S
C1079 C1081 1.433 . S
C1080 C1076 1.350 . S
C1080 C1077 1.463 . S
C1080 N1084 1.427 . S
C1081 H1071 0.929 . S
C1081 C1079 1.433 . S
C1081 N1084 1.384 . S
C1082 H1073 0.929 . S
C1082 C1074 1.378 . S
C1082 C1077 1.350 . S
C1083 H1070 0.929 . S
C1083 C1075 1.433 . S
C1083 N1085 1.384 . S
N1084 C1080 1.427 . S
N1084 C1081 1.384 . S
N1085 C1077 1.427 . S
N1085 C1083 1.384 . S
H1086 C1092 0.930 . S
H1087 C1096 0.930 . S
H1088 C1101 0.929 . S
H1089 C1099 0.929 . S
H1090 C1094 0.929 . S
H1091 C1100 0.929 . S
C1092 H1086 0.930 . S
C1092 C1093 1.367 . S
C1092 C1100 1.378 . S
C1093 C1092 1.367 . S
C1093 C1101 1.433 . S
C1094 H1090 0.929 . S
C1094 C1096 1.378 . S
C1094 C1098 1.350 . S
C1095 C1098 1.463 . S
C1095 C1100 1.350 . S
C1095 N1103 1.427 . S
C1096 H1087 0.930 . S
C1096 C1094 1.378 . S
C1096 C1097 1.367 . S
C1097 C1096 1.367 . S
C1097 C1099 1.433 . S
C1098 C1094 1.350 . S
C1098 C1095 1.463 . S
C1098 N1102 1.427 . S
C1099 H1089 0.929 . S
C1099 C1097 1.433 . S
C1099 N1102 1.384 . S
C1100 H1091 0.929 . S
C1100 C1092 1.378 . S
C1100 C1095 1.350 . S
C1101 H1088 0.929 . S
C1101 C1093 1.433 . S
C1101 N1103 1.384 . S
N1102 C1098 1.427 . S
N1102 C1099 1.384 . S
N1103 C1095 1.427 . S
N1103 C1101 1.384 . S
H1104 C1110 0.930 . S
H1105 C1114 0.930 . S
H1106 C1119 0.929 . S
H1107 C1117 0.929 . S
H1108 C1112 0.929 . S
H1109 C1118 0.929 . S
C1110 H1104 0.930 . S
C1110 C1111 1.367 . S
C1110 C1118 1.378 . S
C1111 C1110 1.367 . S
C1111 C1119 1.433 . S
C1112 H1108 0.929 . S
C1112 C1114 1.378 . S
C1112 C1116 1.350 . S
C1113 C1116 1.463 . S
C1113 C1118 1.350 . S
C1113 N1121 1.427 . S
C1114 H1105 0.930 . S
C1114 C1112 1.378 . S
C1114 C1115 1.367 . S
C1115 C1114 1.367 . S
C1115 C1117 1.433 . S
C1116 C1112 1.350 . S
C1116 C1113 1.463 . S
C1116 N1120 1.427 . S
C1117 H1107 0.929 . S
C1117 C1115 1.433 . S
C1117 N1120 1.384 . S
C1118 H1109 0.929 . S
C1118 C1110 1.378 . S
C1118 C1113 1.350 . S
C1119 H1106 0.929 . S
C1119 C1111 1.433 . S
C1119 N1121 1.384 . S
N1120 C1116 1.427 . S
N1120 C1117 1.384 . S
N1121 C1113 1.427 . S
N1121 C1119 1.384 . S
H1122 C1128 0.930 . S
H1123 C1132 0.930 . S
H1124 C1137 0.929 . S
H1125 C1135 0.929 . S
H1126 C1130 0.929 . S
H1127 C1136 0.929 . S
C1128 H1122 0.930 . S
C1128 C1129 1.367 . S
C1128 C1136 1.378 . S
C1129 C1128 1.367 . S
C1129 C1137 1.433 . S
C1130 H1126 0.929 . S
C1130 C1132 1.378 . S
C1130 C1134 1.350 . S
C1131 C1134 1.463 . S
C1131 C1136 1.350 . S
C1131 N1139 1.427 . S
C1132 H1123 0.930 . S
C1132 C1130 1.378 . S
C1132 C1133 1.367 . S
C1133 C1132 1.367 . S
C1133 C1135 1.433 . S
C1134 C1130 1.350 . S
C1134 C1131 1.463 . S
C1134 N1138 1.427 . S
C1135 H1125 0.929 . S
C1135 C1133 1.433 . S
C1135 N1138 1.384 . S
C1136 H1127 0.929 . S
C1136 C1128 1.378 . S
C1136 C1131 1.350 . S
C1137 H1124 0.929 . S
C1137 C1129 1.433 . S
C1137 N1139 1.384 . S
N1138 C1134 1.427 . S
N1138 C1135 1.384 . S
N1139 C1131 1.427 . S
N1139 C1137 1.384 . S
H1140 C1146 0.930 . S
H1141 C1150 0.930 . S
H1142 C1155 0.929 . S
H1143 C1153 0.929 . S
H1144 C1148 0.929 . S
H1145 C1154 0.929 . S
C1146 H1140 0.930 . S
C1146 C1147 1.367 . S
C1146 C1154 1.378 . S
C1147 C1146 1.367 . S
C1147 C1155 1.433 . S
C1148 H1144 0.929 . S
C1148 C1150 1.378 . S
C1148 C1152 1.350 . S
C1149 C1152 1.463 . S
C1149 C1154 1.350 . S
C1149 N1157 1.427 . S
C1150 H1141 0.930 . S
C1150 C1148 1.378 . S
C1150 C1151 1.367 . S
C1151 C1150 1.367 . S
C1151 C1153 1.433 . S
C1152 C1148 1.350 . S
C1152 C1149 1.463 . S
C1152 N1156 1.427 . S
C1153 H1143 0.929 . S
C1153 C1151 1.433 . S
C1153 N1156 1.384 . S
C1154 H1145 0.929 . S
C1154 C1146 1.378 . S
C1154 C1149 1.350 . S
C1155 H1142 0.929 . S
C1155 C1147 1.433 . S
C1155 N1157 1.384 . S
N1156 C1152 1.427 . S
N1156 C1153 1.384 . S
N1157 C1149 1.427 . S
N1157 C1155 1.384 . S
H1158 C1164 0.930 . S
H1159 C1168 0.930 . S
H1160 C1173 0.929 . S
H1161 C1171 0.929 . S
H1162 C1166 0.929 . S
H1163 C1172 0.929 . S
C1164 H1158 0.930 . S
C1164 C1165 1.367 . S
C1164 C1172 1.378 . S
C1165 C1164 1.367 . S
C1165 C1173 1.433 . S
C1166 H1162 0.929 . S
C1166 C1168 1.378 . S
C1166 C1170 1.350 . S
C1167 C1170 1.463 . S
C1167 C1172 1.350 . S
C1167 N1175 1.427 . S
C1168 H1159 0.930 . S
C1168 C1166 1.378 . S
C1168 C1169 1.367 . S
C1169 C1168 1.367 . S
C1169 C1171 1.433 . S
C1170 C1166 1.350 . S
C1170 C1167 1.463 . S
C1170 N1174 1.427 . S
C1171 H1161 0.929 . S
C1171 C1169 1.433 . S
C1171 N1174 1.384 . S
C1172 H1163 0.929 . S
C1172 C1164 1.378 . S
C1172 C1167 1.350 . S
C1173 H1160 0.929 . S
C1173 C1165 1.433 . S
C1173 N1175 1.384 . S
N1174 C1170 1.427 . S
N1174 C1171 1.384 . S
N1175 C1167 1.427 . S
N1175 C1173 1.384 . S
H1176 C1182 0.930 . S
H1177 C1186 0.930 . S
H1178 C1191 0.929 . S
H1179 C1189 0.929 . S
H1180 C1184 0.929 . S
H1181 C1190 0.929 . S
C1182 H1176 0.930 . S
C1182 C1183 1.367 . S
C1182 C1190 1.378 . S
C1183 C1182 1.367 . S
C1183 C1191 1.433 . S
C1184 H1180 0.929 . S
C1184 C1186 1.378 . S
C1184 C1188 1.350 . S
C1185 C1188 1.463 . S
C1185 C1190 1.350 . S
C1185 N1193 1.427 . S
C1186 H1177 0.930 . S
C1186 C1184 1.378 . S
C1186 C1187 1.367 . S
C1187 C1186 1.367 . S
C1187 C1189 1.433 . S
C1188 C1184 1.350 . S
C1188 C1185 1.463 . S
C1188 N1192 1.427 . S
C1189 H1179 0.929 . S
C1189 C1187 1.433 . S
C1189 N1192 1.384 . S
C1190 H1181 0.929 . S
C1190 C1182 1.378 . S
C1190 C1185 1.350 . S
C1191 H1178 0.929 . S
C1191 C1183 1.433 . S
C1191 N1193 1.384 . S
N1192 C1188 1.427 . S
N1192 C1189 1.384 . S
N1193 C1185 1.427 . S
N1193 C1191 1.384 . S
H1194 C1200 0.930 . S
H1195 C1204 0.930 . S
H1196 C1209 0.929 . S
H1197 C1207 0.929 . S
H1198 C1202 0.929 . S
H1199 C1208 0.929 . S
C1200 H1194 0.930 . S
C1200 C1201 1.367 . S
C1200 C1208 1.378 . S
C1201 C1200 1.367 . S
C1201 C1209 1.433 . S
C1202 H1198 0.929 . S
C1202 C1204 1.378 . S
C1202 C1206 1.350 . S
C1203 C1206 1.463 . S
C1203 C1208 1.350 . S
C1203 N1211 1.427 . S
C1204 H1195 0.930 . S
C1204 C1202 1.378 . S
C1204 C1205 1.367 . S
C1205 C1204 1.367 . S
C1205 C1207 1.433 . S
C1206 C1202 1.350 . S
C1206 C1203 1.463 . S
C1206 N1210 1.427 . S
C1207 H1197 0.929 . S
C1207 C1205 1.433 . S
C1207 N1210 1.384 . S
C1208 H1199 0.929 . S
C1208 C1200 1.378 . S
C1208 C1203 1.350 . S
C1209 H1196 0.929 . S
C1209 C1201 1.433 . S
C1209 N1211 1.384 . S
N1210 C1206 1.427 . S
N1210 C1207 1.384 . S
N1211 C1203 1.427 . S
N1211 C1209 1.384 . S
H1212 C1218 0.930 . S
H1213 C1222 0.930 . S
H1214 C1227 0.929 . S
H1215 C1225 0.929 . S
H1216 C1220 0.929 . S
H1217 C1226 0.929 . S
C1218 H1212 0.930 . S
C1218 C1219 1.367 . S
C1218 C1226 1.378 . S
C1219 C1218 1.367 . S
C1219 C1227 1.433 . S
C1220 H1216 0.929 . S
C1220 C1222 1.378 . S
C1220 C1224 1.350 . S
C1221 C1224 1.463 . S
C1221 C1226 1.350 . S
C1221 N1229 1.427 . S
C1222 H1213 0.930 . S
C1222 C1220 1.378 . S
C1222 C1223 1.367 . S
C1223 C1222 1.367 . S
C1223 C1225 1.433 . S
C1224 C1220 1.350 . S
C1224 C1221 1.463 . S
C1224 N1228 1.427 . S
C1225 H1215 0.929 . S
C1225 C1223 1.433 . S
C1225 N1228 1.384 . S
C1226 H1217 0.929 . S
C1226 C1218 1.378 . S
C1226 C1221 1.350 . S
C1227 H1214 0.929 . S
C1227 C1219 1.433 . S
C1227 N1229 1.384 . S
N1228 C1224 1.427 . S
N1228 C1225 1.384 . S
N1229 C1221 1.427 . S
N1229 C1227 1.384 . S
H1230 C1236 0.930 . S
H1231 C1240 0.930 . S
H1232 C1245 0.929 . S
H1233 C1243 0.929 . S
H1234 C1238 0.929 . S
H1235 C1244 0.929 . S
C1236 H1230 0.930 . S
C1236 C1237 1.367 . S
C1236 C1244 1.378 . S
C1237 C1236 1.367 . S
C1237 C1245 1.433 . S
C1238 H1234 0.929 . S
C1238 C1240 1.378 . S
C1238 C1242 1.350 . S
C1239 C1242 1.463 . S
C1239 C1244 1.350 . S
C1239 N1247 1.427 . S
C1240 H1231 0.930 . S
C1240 C1238 1.378 . S
C1240 C1241 1.367 . S
C1241 C1240 1.367 . S
C1241 C1243 1.433 . S
C1242 C1238 1.350 . S
C1242 C1239 1.463 . S
C1242 N1246 1.427 . S
C1243 H1233 0.929 . S
C1243 C1241 1.433 . S
C1243 N1246 1.384 . S
C1244 H1235 0.929 . S
C1244 C1236 1.378 . S
C1244 C1239 1.350 . S
C1245 H1232 0.929 . S
C1245 C1237 1.433 . S
C1245 N1247 1.384 . S
N1246 C1242 1.427 . S
N1246 C1243 1.384 . S
N1247 C1239 1.427 . S
N1247 C1245 1.384 . S
H1248 C1254 0.930 . S
H1249 C1258 0.930 . S
H1250 C1263 0.929 . S
H1251 C1261 0.929 . S
H1252 C1256 0.929 . S
H1253 C1262 0.929 . S
C1254 H1248 0.930 . S
C1254 C1255 1.367 . S
C1254 C1262 1.378 . S
C1255 C1254 1.367 . S
C1255 C1263 1.433 . S
C1256 H1252 0.929 . S
C1256 C1258 1.378 . S
C1256 C1260 1.350 . S
C1257 C1260 1.463 . S
C1257 C1262 1.350 . S
C1257 N1265 1.427 . S
C1258 H1249 0.930 . S
C1258 C1256 1.378 . S
C1258 C1259 1.367 . S
C1259 C1258 1.367 . S
C1259 C1261 1.433 . S
C1260 C1256 1.350 . S
C1260 C1257 1.463 . S
C1260 N1264 1.427 . S
C1261 H1251 0.929 . S
C1261 C1259 1.433 . S
C1261 N1264 1.384 . S
C1262 H1253 0.929 . S
C1262 C1254 1.378 . S
C1262 C1257 1.350 . S
C1263 H1250 0.929 . S
C1263 C1255 1.433 . S
C1263 N1265 1.384 . S
N1264 C1260 1.427 . S
N1264 C1261 1.384 . S
N1265 C1257 1.427 . S
N1265 C1263 1.384 . S
H1266 C1272 0.930 . S
H1267 C1276 0.930 . S
H1268 C1281 0.929 . S
H1269 C1279 0.929 . S
H1270 C1274 0.929 . S
H1271 C1280 0.929 . S
C1272 H1266 0.930 . S
C1272 C1273 1.367 . S
C1272 C1280 1.378 . S
C1273 C1272 1.367 . S
C1273 C1281 1.433 . S
C1274 H1270 0.929 . S
C1274 C1276 1.378 . S
C1274 C1278 1.350 . S
C1275 C1278 1.463 . S
C1275 C1280 1.350 . S
C1275 N1283 1.427 . S
C1276 H1267 0.930 . S
C1276 C1274 1.378 . S
C1276 C1277 1.367 . S
C1277 C1276 1.367 . S
C1277 C1279 1.433 . S
C1278 C1274 1.350 . S
C1278 C1275 1.463 . S
C1278 N1282 1.427 . S
C1279 H1269 0.929 . S
C1279 C1277 1.433 . S
C1279 N1282 1.384 . S
C1280 H1271 0.929 . S
C1280 C1272 1.378 . S
C1280 C1275 1.350 . S
C1281 H1268 0.929 . S
C1281 C1273 1.433 . S
C1281 N1283 1.384 . S
N1282 C1278 1.427 . S
N1282 C1279 1.384 . S
N1283 C1275 1.427 . S
N1283 C1281 1.384 . S
H1284 C1290 0.930 . S
H1285 C1294 0.930 . S
H1286 C1299 0.929 . S
H1287 C1297 0.929 . S
H1288 C1292 0.929 . S
H1289 C1298 0.929 . S
C1290 H1284 0.930 . S
C1290 C1291 1.367 . S
C1290 C1298 1.378 . S
C1291 C1290 1.367 . S
C1291 C1299 1.433 . S
C1292 H1288 0.929 . S
C1292 C1294 1.378 . S
C1292 C1296 1.350 . S
C1293 C1296 1.463 . S
C1293 C1298 1.350 . S
C1293 N1301 1.427 . S
C1294 H1285 0.930 . S
C1294 C1292 1.378 . S
C1294 C1295 1.367 . S
C1295 C1294 1.367 . S
C1295 C1297 1.433 . S
C1296 C1292 1.350 . S
C1296 C1293 1.463 . S
C1296 N1300 1.427 . S
C1297 H1287 0.929 . S
C1297 C1295 1.433 . S
C1297 N1300 1.384 . S
C1298 H1289 0.929 . S
C1298 C1290 1.378 . S
C1298 C1293 1.350 . S
C1299 H1286 0.929 . S
C1299 C1291 1.433 . S
C1299 N1301 1.384 . S
N1300 C1296 1.427 . S
N1300 C1297 1.384 . S
N1301 C1293 1.427 . S
N1301 C1299 1.384 . S
H1302 C1308 0.930 . S
H1303 C1312 0.930 . S
H1304 C1317 0.929 . S
H1305 C1315 0.929 . S
H1306 C1310 0.929 . S
H1307 C1316 0.929 . S
C1308 H1302 0.930 . S
C1308 C1309 1.367 . S
C1308 C1316 1.378 . S
C1309 C1308 1.367 . S
C1309 C1317 1.433 . S
C1310 H1306 0.929 . S
C1310 C1312 1.378 . S
C1310 C1314 1.350 . S
C1311 C1314 1.463 . S
C1311 C1316 1.350 . S
C1311 N1319 1.427 . S
C1312 H1303 0.930 . S
C1312 C1310 1.378 . S
C1312 C1313 1.367 . S
C1313 C1312 1.367 . S
C1313 C1315 1.433 . S
C1314 C1310 1.350 . S
C1314 C1311 1.463 . S
C1314 N1318 1.427 . S
C1315 H1305 0.929 . S
C1315 C1313 1.433 . S
C1315 N1318 1.384 . S
C1316 H1307 0.929 . S
C1316 C1308 1.378 . S
C1316 C1311 1.350 . S
C1317 H1304 0.929 . S
C1317 C1309 1.433 . S
C1317 N1319 1.384 . S
N1318 C1314 1.427 . S
N1318 C1315 1.384 . S
N1319 C1311 1.427 . S
N1319 C1317 1.384 . S
H1320 C1326 0.930 . S
H1321 C1330 0.930 . S
H1322 C1335 0.929 . S
H1323 C1333 0.929 . S
H1324 C1328 0.929 . S
H1325 C1334 0.929 . S
C1326 H1320 0.930 . S
C1326 C1327 1.367 . S
C1326 C1334 1.378 . S
C1327 C1326 1.367 . S
C1327 C1335 1.433 . S
C1328 H1324 0.929 . S
C1328 C1330 1.378 . S
C1328 C1332 1.350 . S
C1329 C1332 1.463 . S
C1329 C1334 1.350 . S
C1329 N1337 1.427 . S
C1330 H1321 0.930 . S
C1330 C1328 1.378 . S
C1330 C1331 1.367 . S
C1331 C1330 1.367 . S
C1331 C1333 1.433 . S
C1332 C1328 1.350 . S
C1332 C1329 1.463 . S
C1332 N1336 1.427 . S
C1333 H1323 0.929 . S
C1333 C1331 1.433 . S
C1333 N1336 1.384 . S
C1334 H1325 0.929 . S
C1334 C1326 1.378 . S
C1334 C1329 1.350 . S
C1335 H1322 0.929 . S
C1335 C1327 1.433 . S
C1335 N1337 1.384 . S
N1336 C1332 1.427 . S
N1336 C1333 1.384 . S
N1337 C1329 1.427 . S
N1337 C1335 1.384 . S
H1338 C1344 0.930 . S
H1339 C1348 0.930 . S
H1340 C1353 0.929 . S
H1341 C1351 0.929 . S
H1342 C1346 0.929 . S
H1343 C1352 0.929 . S
C1344 H1338 0.930 . S
C1344 C1345 1.367 . S
C1344 C1352 1.378 . S
C1345 C1344 1.367 . S
C1345 C1353 1.433 . S
C1346 H1342 0.929 . S
C1346 C1348 1.378 . S
C1346 C1350 1.350 . S
C1347 C1350 1.463 . S
C1347 C1352 1.350 . S
C1347 N1355 1.427 . S
C1348 H1339 0.930 . S
C1348 C1346 1.378 . S
C1348 C1349 1.367 . S
C1349 C1348 1.367 . S
C1349 C1351 1.433 . S
C1350 C1346 1.350 . S
C1350 C1347 1.463 . S
C1350 N1354 1.427 . S
C1351 H1341 0.929 . S
C1351 C1349 1.433 . S
C1351 N1354 1.384 . S
C1352 H1343 0.929 . S
C1352 C1344 1.378 . S
C1352 C1347 1.350 . S
C1353 H1340 0.929 . S
C1353 C1345 1.433 . S
C1353 N1355 1.384 . S
N1354 C1350 1.427 . S
N1354 C1351 1.384 . S
N1355 C1347 1.427 . S
N1355 C1353 1.384 . S
H1356 C1362 0.930 . S
H1357 C1366 0.930 . S
H1358 C1371 0.929 . S
H1359 C1369 0.929 . S
H1360 C1364 0.929 . S
H1361 C1370 0.929 . S
C1362 H1356 0.930 . S
C1362 C1363 1.367 . S
C1362 C1370 1.378 . S
C1363 C1362 1.367 . S
C1363 C1371 1.433 . S
C1364 H1360 0.929 . S
C1364 C1366 1.378 . S
C1364 C1368 1.350 . S
C1365 C1368 1.463 . S
C1365 C1370 1.350 . S
C1365 N1373 1.427 . S
C1366 H1357 0.930 . S
C1366 C1364 1.378 . S
C1366 C1367 1.367 . S
C1367 C1366 1.367 . S
C1367 C1369 1.433 . S
C1368 C1364 1.350 . S
C1368 C1365 1.463 . S
C1368 N1372 1.427 . S
C1369 H1359 0.929 . S
C1369 C1367 1.433 . S
C1369 N1372 1.384 . S
C1370 H1361 0.929 . S
C1370 C1362 1.378 . S
C1370 C1365 1.350 . S
C1371 H1358 0.929 . S
C1371 C1363 1.433 . S
C1371 N1373 1.384 . S
N1372 C1368 1.427 . S
N1372 C1369 1.384 . S
N1373 C1365 1.427 . S
N1373 C1371 1.384 . S
H1374 C1380 0.930 . S
H1375 C1384 0.930 . S
H1376 C1389 0.929 . S
H1377 C1387 0.929 . S
H1378 C1382 0.929 . S
H1379 C1388 0.929 . S
C1380 H1374 0.930 . S
C1380 C1381 1.367 . S
C1380 C1388 1.378 . S
C1381 C1380 1.367 . S
C1381 C1389 1.433 . S
C1382 H1378 0.929 . S
C1382 C1384 1.378 . S
C1382 C1386 1.350 . S
C1383 C1386 1.463 . S
C1383 C1388 1.350 . S
C1383 N1391 1.427 . S
C1384 H1375 0.930 . S
C1384 C1382 1.378 . S
C1384 C1385 1.367 . S
C1385 C1384 1.367 . S
C1385 C1387 1.433 . S
C1386 C1382 1.350 . S
C1386 C1383 1.463 . S
C1386 N1390 1.427 . S
C1387 H1377 0.929 . S
C1387 C1385 1.433 . S
C1387 N1390 1.384 . S
C1388 H1379 0.929 . S
C1388 C1380 1.378 . S
C1388 C1383 1.350 . S
C1389 H1376 0.929 . S
C1389 C1381 1.433 . S
C1389 N1391 1.384 . S
N1390 C1386 1.427 . S
N1390 C1387 1.384 . S
N1391 C1383 1.427 . S
N1391 C1389 1.384 . S
H1392 C1398 0.930 . S
H1393 C1402 0.930 . S
H1394 C1407 0.929 . S
H1395 C1405 0.929 . S
H1396 C1400 0.929 . S
H1397 C1406 0.929 . S
C1398 H1392 0.930 . S
C1398 C1399 1.367 . S
C1398 C1406 1.378 . S
C1399 C1398 1.367 . S
C1399 C1407 1.433 . S
C1400 H1396 0.929 . S
C1400 C1402 1.378 . S
C1400 C1404 1.350 . S
C1401 C1404 1.463 . S
C1401 C1406 1.350 . S
C1401 N1409 1.427 . S
C1402 H1393 0.930 . S
C1402 C1400 1.378 . S
C1402 C1403 1.367 . S
C1403 C1402 1.367 . S
C1403 C1405 1.433 . S
C1404 C1400 1.350 . S
C1404 C1401 1.463 . S
C1404 N1408 1.427 . S
C1405 H1395 0.929 . S
C1405 C1403 1.433 . S
C1405 N1408 1.384 . S
C1406 H1397 0.929 . S
C1406 C1398 1.378 . S
C1406 C1401 1.350 . S
C1407 H1394 0.929 . S
C1407 C1399 1.433 . S
C1407 N1409 1.384 . S
N1408 C1404 1.427 . S
N1408 C1405 1.384 . S
N1409 C1401 1.427 . S
N1409 C1407 1.384 . S
H1410 C1416 0.930 . S
H1411 C1420 0.930 . S
H1412 C1425 0.929 . S
H1413 C1423 0.929 . S
H1414 C1418 0.929 . S
H1415 C1424 0.929 . S
C1416 H1410 0.930 . S
C1416 C1417 1.367 . S
C1416 C1424 1.378 . S
C1417 C1416 1.367 . S
C1417 C1425 1.433 . S
C1418 H1414 0.929 . S
C1418 C1420 1.378 . S
C1418 C1422 1.350 . S
C1419 C1422 1.463 . S
C1419 C1424 1.350 . S
C1419 N1427 1.427 . S
C1420 H1411 0.930 . S
C1420 C1418 1.378 . S
C1420 C1421 1.367 . S
C1421 C1420 1.367 . S
C1421 C1423 1.433 . S
C1422 C1418 1.350 . S
C1422 C1419 1.463 . S
C1422 N1426 1.427 . S
C1423 H1413 0.929 . S
C1423 C1421 1.433 . S
C1423 N1426 1.384 . S
C1424 H1415 0.929 . S
C1424 C1416 1.378 . S
C1424 C1419 1.350 . S
C1425 H1412 0.929 . S
C1425 C1417 1.433 . S
C1425 N1427 1.384 . S
N1426 C1422 1.427 . S
N1426 C1423 1.384 . S
N1427 C1419 1.427 . S
N1427 C1425 1.384 . S
H1428 C1434 0.930 . S
H1429 C1438 0.930 . S
H1430 C1443 0.929 . S
H1431 C1441 0.929 . S
H1432 C1436 0.929 . S
H1433 C1442 0.929 . S
C1434 H1428 0.930 . S
C1434 C1435 1.367 . S
C1434 C1442 1.378 . S
C1435 C1434 1.367 . S
C1435 C1443 1.433 . S
C1436 H1432 0.929 . S
C1436 C1438 1.378 . S
C1436 C1440 1.350 . S
C1437 C1440 1.463 . S
C1437 C1442 1.350 . S
C1437 N1445 1.427 . S
C1438 H1429 0.930 . S
C1438 C1436 1.378 . S
C1438 C1439 1.367 . S
C1439 C1438 1.367 . S
C1439 C1441 1.433 . S
C1440 C1436 1.350 . S
C1440 C1437 1.463 . S
C1440 N1444 1.427 . S
C1441 H1431 0.929 . S
C1441 C1439 1.433 . S
C1441 N1444 1.384 . S
C1442 H1433 0.929 . S
C1442 C1434 1.378 . S
C1442 C1437 1.350 . S
C1443 H1430 0.929 . S
C1443 C1435 1.433 . S
C1443 N1445 1.384 . S
N1444 C1440 1.427 . S
N1444 C1441 1.384 . S
N1445 C1437 1.427 . S
N1445 C1443 1.384 . S
H1446 C1452 0.930 . S
H1447 C1456 0.930 . S
H1448 C1461 0.929 . S
H1449 C1459 0.929 . S
H1450 C1454 0.929 . S
H1451 C1460 0.929 . S
C1452 H1446 0.930 . S
C1452 C1453 1.367 . S
C1452 C1460 1.378 . S
C1453 C1452 1.367 . S
C1453 C1461 1.433 . S
C1454 H1450 0.929 . S
C1454 C1456 1.378 . S
C1454 C1458 1.350 . S
C1455 C1458 1.463 . S
C1455 C1460 1.350 . S
C1455 N1463 1.427 . S
C1456 H1447 0.930 . S
C1456 C1454 1.378 . S
C1456 C1457 1.367 . S
C1457 C1456 1.367 . S
C1457 C1459 1.433 . S
C1458 C1454 1.350 . S
C1458 C1455 1.463 . S
C1458 N1462 1.427 . S
C1459 H1449 0.929 . S
C1459 C1457 1.433 . S
C1459 N1462 1.384 . S
C1460 H1451 0.929 . S
C1460 C1452 1.378 . S
C1460 C1455 1.350 . S
C1461 H1448 0.929 . S
C1461 C1453 1.433 . S
C1461 N1463 1.384 . S
N1462 C1458 1.427 . S
N1462 C1459 1.384 . S
N1463 C1455 1.427 . S
N1463 C1461 1.384 . S
H1464 C1470 0.930 . S
H1465 C1474 0.930 . S
H1466 C1479 0.929 . S
H1467 C1477 0.929 . S
H1468 C1472 0.929 . S
H1469 C1478 0.929 . S
C1470 H1464 0.930 . S
C1470 C1471 1.367 . S
C1470 C1478 1.378 . S
C1471 C1470 1.367 . S
C1471 C1479 1.433 . S
C1472 H1468 0.929 . S
C1472 C1474 1.378 . S
C1472 C1476 1.350 . S
C1473 C1476 1.463 . S
C1473 C1478 1.350 . S
C1473 N1481 1.427 . S
C1474 H1465 0.930 . S
C1474 C1472 1.378 . S
C1474 C1475 1.367 . S
C1475 C1474 1.367 . S
C1475 C1477 1.433 . S
C1476 C1472 1.350 . S
C1476 C1473 1.463 . S
C1476 N1480 1.427 . S
C1477 H1467 0.929 . S
C1477 C1475 1.433 . S
C1477 N1480 1.384 . S
C1478 H1469 0.929 . S
C1478 C1470 1.378 . S
C1478 C1473 1.350 . S
C1479 H1466 0.929 . S
C1479 C1471 1.433 . S
C1479 N1481 1.384 . S
N1480 C1476 1.427 . S
N1480 C1477 1.384 . S
N1481 C1473 1.427 . S
N1481 C1479 1.384 . S
H1482 C1488 0.930 . S
H1483 C1492 0.930 . S
H1484 C1497 0.929 . S
H1485 C1495 0.929 . S
H1486 C1490 0.929 . S
H1487 C1496 0.929 . S
C1488 H1482 0.930 . S
C1488 C1489 1.367 . S
C1488 C1496 1.378 . S
C1489 C1488 1.367 . S
C1489 C1497 1.433 . S
C1490 H1486 0.929 . S
C1490 C1492 1.378 . S
C1490 C1494 1.350 . S
C1491 C1494 1.463 . S
C1491 C1496 1.350 . S
C1491 N1499 1.427 . S
C1492 H1483 0.930 . S
C1492 C1490 1.378 . S
C1492 C1493 1.367 . S
C1493 C1492 1.367 . S
C1493 C1495 1.433 . S
C1494 C1490 1.350 . S
C1494 C1491 1.463 . S
C1494 N1498 1.427 . S
C1495 H1485 0.929 . S
C1495 C1493 1.433 . S
C1495 N1498 1.384 . S
C1496 H1487 0.929 . S
C1496 C1488 1.378 . S
C1496 C1491 1.350 . S
C1497 H1484 0.929 . S
C1497 C1489 1.433 . S
C1497 N1499 1.384 . S
N1498 C1494 1.427 . S
N1498 C1495 1.384 . S
N1499 C1491 1.427 . S
N1499 C1497 1.384 . S
H1500 C1506 0.930 . S
H1501 C1510 0.930 . S
H1502 C1515 0.929 . S
H1503 C1513 0.929 . S
H1504 C1508 0.929 . S
H1505 C1514 0.929 . S
C1506 H1500 0.930 . S
C1506 C1507 1.367 . S
C1506 C1514 1.378 . S
C1507 C1506 1.367 . S
C1507 C1515 1.433 . S
C1508 H1504 0.929 . S
C1508 C1510 1.378 . S
C1508 C1512 1.350 . S
C1509 C1512 1.463 . S
C1509 C1514 1.350 . S
C1509 N1517 1.427 . S
C1510 H1501 0.930 . S
C1510 C1508 1.378 . S
C1510 C1511 1.367 . S
C1511 C1510 1.367 . S
C1511 C1513 1.433 . S
C1512 C1508 1.350 . S
C1512 C1509 1.463 . S
C1512 N1516 1.427 . S
C1513 H1503 0.929 . S
C1513 C1511 1.433 . S
C1513 N1516 1.384 . S
C1514 H1505 0.929 . S
C1514 C1506 1.378 . S
C1514 C1509 1.350 . S
C1515 H1502 0.929 . S
C1515 C1507 1.433 . S
C1515 N1517 1.384 . S
N1516 C1512 1.427 . S
N1516 C1513 1.384 . S
N1517 C1509 1.427 . S
N1517 C1515 1.384 . S
H1518 C1524 0.930 . S
H1519 C1528 0.930 . S
H1520 C1533 0.929 . S
H1521 C1531 0.929 . S
H1522 C1526 0.929 . S
H1523 C1532 0.929 . S
C1524 H1518 0.930 . S
C1524 C1525 1.367 . S
C1524 C1532 1.378 . S
C1525 C1524 1.367 . S
C1525 C1533 1.433 . S
C1526 H1522 0.929 . S
C1526 C1528 1.378 . S
C1526 C1530 1.350 . S
C1527 C1530 1.463 . S
C1527 C1532 1.350 . S
C1527 N1535 1.427 . S
C1528 H1519 0.930 . S
C1528 C1526 1.378 . S
C1528 C1529 1.367 . S
C1529 C1528 1.367 . S
C1529 C1531 1.433 . S
C1530 C1526 1.350 . S
C1530 C1527 1.463 . S
C1530 N1534 1.427 . S
C1531 H1521 0.929 . S
C1531 C1529 1.433 . S
C1531 N1534 1.384 . S
C1532 H1523 0.929 . S
C1532 C1524 1.378 . S
C1532 C1527 1.350 . S
C1533 H1520 0.929 . S
C1533 C1525 1.433 . S
C1533 N1535 1.384 . S
N1534 C1530 1.427 . S
N1534 C1531 1.384 . S
N1535 C1527 1.427 . S
N1535 C1533 1.384 . S
H1536 C1542 0.930 . S
H1537 C1546 0.930 . S
H1538 C1551 0.929 . S
H1539 C1549 0.929 . S
H1540 C1544 0.929 . S
H1541 C1550 0.929 . S
C1542 H1536 0.930 . S
C1542 C1543 1.367 . S
C1542 C1550 1.378 . S
C1543 C1542 1.367 . S
C1543 C1551 1.433 . S
C1544 H1540 0.929 . S
C1544 C1546 1.378 . S
C1544 C1548 1.350 . S
C1545 C1548 1.463 . S
C1545 C1550 1.350 . S
C1545 N1553 1.427 . S
C1546 H1537 0.930 . S
C1546 C1544 1.378 . S
C1546 C1547 1.367 . S
C1547 C1546 1.367 . S
C1547 C1549 1.433 . S
C1548 C1544 1.350 . S
C1548 C1545 1.463 . S
C1548 N1552 1.427 . S
C1549 H1539 0.929 . S
C1549 C1547 1.433 . S
C1549 N1552 1.384 . S
C1550 H1541 0.929 . S
C1550 C1542 1.378 . S
C1550 C1545 1.350 . S
C1551 H1538 0.929 . S
C1551 C1543 1.433 . S
C1551 N1553 1.384 . S
N1552 C1548 1.427 . S
N1552 C1549 1.384 . S
N1553 C1545 1.427 . S
N1553 C1551 1.384 . S
H1554 C1560 0.930 . S
H1555 C1564 0.930 . S
H1556 C1569 0.929 . S
H1557 C1567 0.929 . S
H1558 C1562 0.929 . S
H1559 C1568 0.929 . S
C1560 H1554 0.930 . S
C1560 C1561 1.367 . S
C1560 C1568 1.378 . S
C1561 C1560 1.367 . S
C1561 C1569 1.433 . S
C1562 H1558 0.929 . S
C1562 C1564 1.378 . S
C1562 C1566 1.350 . S
C1563 C1566 1.463 . S
C1563 C1568 1.350 . S
C1563 N1571 1.427 . S
C1564 H1555 0.930 . S
C1564 C1562 1.378 . S
C1564 C1565 1.367 . S
C1565 C1564 1.367 . S
C1565 C1567 1.433 . S
C1566 C1562 1.350 . S
C1566 C1563 1.463 . S
C1566 N1570 1.427 . S
C1567 H1557 0.929 . S
C1567 C1565 1.433 . S
C1567 N1570 1.384 . S
C1568 H1559 0.929 . S
C1568 C1560 1.378 . S
C1568 C1563 1.350 . S
C1569 H1556 0.929 . S
C1569 C1561 1.433 . S
C1569 N1571 1.384 . S
N1570 C1566 1.427 . S
N1570 C1567 1.384 . S
N1571 C1563 1.427 . S
N1571 C1569 1.384 . S
H1572 C1578 0.930 . S
H1573 C1582 0.930 . S
H1574 C1587 0.929 . S
H1575 C1585 0.929 . S
H1576 C1580 0.929 . S
H1577 C1586 0.929 . S
C1578 H1572 0.930 . S
C1578 C1579 1.367 . S
C1578 C1586 1.378 . S
C1579 C1578 1.367 . S
C1579 C1587 1.433 . S
C1580 H1576 0.929 . S
C1580 C1582 1.378 . S
C1580 C1584 1.350 . S
C1581 C1584 1.463 . S
C1581 C1586 1.350 . S
C1581 N1589 1.427 . S
C1582 H1573 0.930 . S
C1582 C1580 1.378 . S
C1582 C1583 1.367 . S
C1583 C1582 1.367 . S
C1583 C1585 1.433 . S
C1584 C1580 1.350 . S
C1584 C1581 1.463 . S
C1584 N1588 1.427 . S
C1585 H1575 0.929 . S
C1585 C1583 1.433 . S
C1585 N1588 1.384 . S
C1586 H1577 0.929 . S
C1586 C1578 1.378 . S
C1586 C1581 1.350 . S
C1587 H1574 0.929 . S
C1587 C1579 1.433 . S
C1587 N1589 1.384 . S
N1588 C1584 1.427 . S
N1588 C1585 1.384 . S
N1589 C1581 1.427 . S
N1589 C1587 1.384 . S
H1590 C1596 0.930 . S
H1591 C1600 0.930 . S
H1592 C1605 0.929 . S
H1593 C1603 0.929 . S
H1594 C1598 0.929 . S
H1595 C1604 0.929 . S
C1596 H1590 0.930 . S
C1596 C1597 1.367 . S
C1596 C1604 1.378 . S
C1597 C1596 1.367 . S
C1597 C1605 1.433 . S
C1598 H1594 0.929 . S
C1598 C1600 1.378 . S
C1598 C1602 1.350 . S
C1599 C1602 1.463 . S
C1599 C1604 1.350 . S
C1599 N1607 1.427 . S
C1600 H1591 0.930 . S
C1600 C1598 1.378 . S
C1600 C1601 1.367 . S
C1601 C1600 1.367 . S
C1601 C1603 1.433 . S
C1602 C1598 1.350 . S
C1602 C1599 1.463 . S
C1602 N1606 1.427 . S
C1603 H1593 0.929 . S
C1603 C1601 1.433 . S
C1603 N1606 1.384 . S
C1604 H1595 0.929 . S
C1604 C1596 1.378 . S
C1604 C1599 1.350 . S
C1605 H1592 0.929 . S
C1605 C1597 1.433 . S
C1605 N1607 1.384 . S
N1606 C1602 1.427 . S
N1606 C1603 1.384 . S
N1607 C1599 1.427 . S
N1607 C1605 1.384 . S
H1608 C1614 0.930 . S
H1609 C1618 0.930 . S
H1610 C1623 0.929 . S
H1611 C1621 0.929 . S
H1612 C1616 0.929 . S
H1613 C1622 0.929 . S
C1614 H1608 0.930 . S
C1614 C1615 1.367 . S
C1614 C1622 1.378 . S
C1615 C1614 1.367 . S
C1615 C1623 1.433 . S
C1616 H1612 0.929 . S
C1616 C1618 1.378 . S
C1616 C1620 1.350 . S
C1617 C1620 1.463 . S
C1617 C1622 1.350 . S
C1617 N1625 1.427 . S
C1618 H1609 0.930 . S
C1618 C1616 1.378 . S
C1618 C1619 1.367 . S
C1619 C1618 1.367 . S
C1619 C1621 1.433 . S
C1620 C1616 1.350 . S
C1620 C1617 1.463 . S
C1620 N1624 1.427 . S
C1621 H1611 0.929 . S
C1621 C1619 1.433 . S
C1621 N1624 1.384 . S
C1622 H1613 0.929 . S
C1622 C1614 1.378 . S
C1622 C1617 1.350 . S
C1623 H1610 0.929 . S
C1623 C1615 1.433 . S
C1623 N1625 1.384 . S
N1624 C1620 1.427 . S
N1624 C1621 1.384 . S
N1625 C1617 1.427 . S
N1625 C1623 1.384 . S
H1626 C1632 0.930 . S
H1627 C1636 0.930 . S
H1628 C1641 0.929 . S
H1629 C1639 0.929 . S
H1630 C1634 0.929 . S
H1631 C1640 0.929 . S
C1632 H1626 0.930 . S
C1632 C1633 1.367 . S
C1632 C1640 1.378 . S
C1633 C1632 1.367 . S
C1633 C1641 1.433 . S
C1634 H1630 0.929 . S
C1634 C1636 1.378 . S
C1634 C1638 1.350 . S
C1635 C1638 1.463 . S
C1635 C1640 1.350 . S
C1635 N1643 1.427 . S
C1636 H1627 0.930 . S
C1636 C1634 1.378 . S
C1636 C1637 1.367 . S
C1637 C1636 1.367 . S
C1637 C1639 1.433 . S
C1638 C1634 1.350 . S
C1638 C1635 1.463 . S
C1638 N1642 1.427 . S
C1639 H1629 0.929 . S
C1639 C1637 1.433 . S
C1639 N1642 1.384 . S
C1640 H1631 0.929 . S
C1640 C1632 1.378 . S
C1640 C1635 1.350 . S
C1641 H1628 0.929 . S
C1641 C1633 1.433 . S
C1641 N1643 1.384 . S
N1642 C1638 1.427 . S
N1642 C1639 1.384 . S
N1643 C1635 1.427 . S
N1643 C1641 1.384 . S
H1644 C1650 0.930 . S
H1645 C1654 0.930 . S
H1646 C1659 0.929 . S
H1647 C1657 0.929 . S
H1648 C1652 0.929 . S
H1649 C1658 0.929 . S
C1650 H1644 0.930 . S
C1650 C1651 1.367 . S
C1650 C1658 1.378 . S
C1651 C1650 1.367 . S
C1651 C1659 1.433 . S
C1652 H1648 0.929 . S
C1652 C1654 1.378 . S
C1652 C1656 1.350 . S
C1653 C1656 1.463 . S
C1653 C1658 1.350 . S
C1653 N1661 1.427 . S
C1654 H1645 0.930 . S
C1654 C1652 1.378 . S
C1654 C1655 1.367 . S
C1655 C1654 1.367 . S
C1655 C1657 1.433 . S
C1656 C1652 1.350 . S
C1656 C1653 1.463 . S
C1656 N1660 1.427 . S
C1657 H1647 0.929 . S
C1657 C1655 1.433 . S
C1657 N1660 1.384 . S
C1658 H1649 0.929 . S
C1658 C1650 1.378 . S
C1658 C1653 1.350 . S
C1659 H1646 0.929 . S
C1659 C1651 1.433 . S
C1659 N1661 1.384 . S
N1660 C1656 1.427 . S
N1660 C1657 1.384 . S
N1661 C1653 1.427 . S
N1661 C1659 1.384 . S
H1662 C1668 0.930 . S
H1663 C1672 0.930 . S
H1664 C1677 0.929 . S
H1665 C1675 0.929 . S
H1666 C1670 0.929 . S
H1667 C1676 0.929 . S
C1668 H1662 0.930 . S
C1668 C1669 1.367 . S
C1668 C1676 1.378 . S
C1669 C1668 1.367 . S
C1669 C1677 1.433 . S
C1670 H1666 0.929 . S
C1670 C1672 1.378 . S
C1670 C1674 1.350 . S
C1671 C1674 1.463 . S
C1671 C1676 1.350 . S
C1671 N1679 1.427 . S
C1672 H1663 0.930 . S
C1672 C1670 1.378 . S
C1672 C1673 1.367 . S
C1673 C1672 1.367 . S
C1673 C1675 1.433 . S
C1674 C1670 1.350 . S
C1674 C1671 1.463 . S
C1674 N1678 1.427 . S
C1675 H1665 0.929 . S
C1675 C1673 1.433 . S
C1675 N1678 1.384 . S
C1676 H1667 0.929 . S
C1676 C1668 1.378 . S
C1676 C1671 1.350 . S
C1677 H1664 0.929 . S
C1677 C1669 1.433 . S
C1677 N1679 1.384 . S
N1678 C1674 1.427 . S
N1678 C1675 1.384 . S
N1679 C1671 1.427 . S
N1679 C1677 1.384 . S
H1680 C1686 0.930 . S
H1681 C1690 0.930 . S
H1682 C1695 0.929 . S
H1683 C1693 0.929 . S
H1684 C1688 0.929 . S
H1685 C1694 0.929 . S
C1686 H1680 0.930 . S
C1686 C1687 1.367 . S
C1686 C1694 1.378 . S
C1687 C1686 1.367 . S
C1687 C1695 1.433 . S
C1688 H1684 0.929 . S
C1688 C1690 1.378 . S
C1688 C1692 1.350 . S
C1689 C1692 1.463 . S
C1689 C1694 1.350 . S
C1689 N1697 1.427 . S
C1690 H1681 0.930 . S
C1690 C1688 1.378 . S
C1690 C1691 1.367 . S
C1691 C1690 1.367 . S
C1691 C1693 1.433 . S
C1692 C1688 1.350 . S
C1692 C1689 1.463 . S
C1692 N1696 1.427 . S
C1693 H1683 0.929 . S
C1693 C1691 1.433 . S
C1693 N1696 1.384 . S
C1694 H1685 0.929 . S
C1694 C1686 1.378 . S
C1694 C1689 1.350 . S
C1695 H1682 0.929 . S
C1695 C1687 1.433 . S
C1695 N1697 1.384 . S
N1696 C1692 1.427 . S
N1696 C1693 1.384 . S
N1697 C1689 1.427 . S
N1697 C1695 1.384 . S
H1698 C1704 0.930 . S
H1699 C1708 0.930 . S
H1700 C1713 0.929 . S
H1701 C1711 0.929 . S
H1702 C1706 0.929 . S
H1703 C1712 0.929 . S
C1704 H1698 0.930 . S
C1704 C1705 1.367 . S
C1704 C1712 1.378 . S
C1705 C1704 1.367 . S
C1705 C1713 1.433 . S
C1706 H1702 0.929 . S
C1706 C1708 1.378 . S
C1706 C1710 1.350 . S
C1707 C1710 1.463 . S
C1707 C1712 1.350 . S
C1707 N1715 1.427 . S
C1708 H1699 0.930 . S
C1708 C1706 1.378 . S
C1708 C1709 1.367 . S
C1709 C1708 1.367 . S
C1709 C1711 1.433 . S
C1710 C1706 1.350 . S
C1710 C1707 1.463 . S
C1710 N1714 1.427 . S
C1711 H1701 0.929 . S
C1711 C1709 1.433 . S
C1711 N1714 1.384 . S
C1712 H1703 0.929 . S
C1712 C1704 1.378 . S
C1712 C1707 1.350 . S
C1713 H1700 0.929 . S
C1713 C1705 1.433 . S
C1713 N1715 1.384 . S
N1714 C1710 1.427 . S
N1714 C1711 1.384 . S
N1715 C1707 1.427 . S
N1715 C1713 1.384 . S
H1716 C1722 0.930 . S
H1717 C1726 0.930 . S
H1718 C1731 0.929 . S
H1719 C1729 0.929 . S
H1720 C1724 0.929 . S
H1721 C1730 0.929 . S
C1722 H1716 0.930 . S
C1722 C1723 1.367 . S
C1722 C1730 1.378 . S
C1723 C1722 1.367 . S
C1723 C1731 1.433 . S
C1724 H1720 0.929 . S
C1724 C1726 1.378 . S
C1724 C1728 1.350 . S
C1725 C1728 1.463 . S
C1725 C1730 1.350 . S
C1725 N1733 1.427 . S
C1726 H1717 0.930 . S
C1726 C1724 1.378 . S
C1726 C1727 1.367 . S
C1727 C1726 1.367 . S
C1727 C1729 1.433 . S
C1728 C1724 1.350 . S
C1728 C1725 1.463 . S
C1728 N1732 1.427 . S
C1729 H1719 0.929 . S
C1729 C1727 1.433 . S
C1729 N1732 1.384 . S
C1730 H1721 0.929 . S
C1730 C1722 1.378 . S
C1730 C1725 1.350 . S
C1731 H1718 0.929 . S
C1731 C1723 1.433 . S
C1731 N1733 1.384 . S
N1732 C1728 1.427 . S
N1732 C1729 1.384 . S
N1733 C1725 1.427 . S
N1733 C1731 1.384 . S
H1734 C1740 0.930 . S
H1735 C1744 0.930 . S
H1736 C1749 0.929 . S
H1737 C1747 0.929 . S
H1738 C1742 0.929 . S
H1739 C1748 0.929 . S
C1740 H1734 0.930 . S
C1740 C1741 1.367 . S
C1740 C1748 1.378 . S
C1741 C1740 1.367 . S
C1741 C1749 1.433 . S
C1742 H1738 0.929 . S
C1742 C1744 1.378 . S
C1742 C1746 1.350 . S
C1743 C1746 1.463 . S
C1743 C1748 1.350 . S
C1743 N1751 1.427 . S
C1744 H1735 0.930 . S
C1744 C1742 1.378 . S
C1744 C1745 1.367 . S
C1745 C1744 1.367 . S
C1745 C1747 1.433 . S
C1746 C1742 1.350 . S
C1746 C1743 1.463 . S
C1746 N1750 1.427 . S
C1747 H1737 0.929 . S
C1747 C1745 1.433 . S
C1747 N1750 1.384 . S
C1748 H1739 0.929 . S
C1748 C1740 1.378 . S
C1748 C1743 1.350 . S
C1749 H1736 0.929 . S
C1749 C1741 1.433 . S
C1749 N1751 1.384 . S
N1750 C1746 1.427 . S
N1750 C1747 1.384 . S
N1751 C1743 1.427 . S
N1751 C1749 1.384 . S
H1752 C1758 0.930 . S
H1753 C1762 0.930 . S
H1754 C1767 0.929 . S
H1755 C1765 0.929 . S
H1756 C1760 0.929 . S
H1757 C1766 0.929 . S
C1758 H1752 0.930 . S
C1758 C1759 1.367 . S
C1758 C1766 1.378 . S
C1759 C1758 1.367 . S
C1759 C1767 1.433 . S
C1760 H1756 0.929 . S
C1760 C1762 1.378 . S
C1760 C1764 1.350 . S
C1761 C1764 1.463 . S
C1761 C1766 1.350 . S
C1761 N1769 1.427 . S
C1762 H1753 0.930 . S
C1762 C1760 1.378 . S
C1762 C1763 1.367 . S
C1763 C1762 1.367 . S
C1763 C1765 1.433 . S
C1764 C1760 1.350 . S
C1764 C1761 1.463 . S
C1764 N1768 1.427 . S
C1765 H1755 0.929 . S
C1765 C1763 1.433 . S
C1765 N1768 1.384 . S
C1766 H1757 0.929 . S
C1766 C1758 1.378 . S
C1766 C1761 1.350 . S
C1767 H1754 0.929 . S
C1767 C1759 1.433 . S
C1767 N1769 1.384 . S
N1768 C1764 1.427 . S
N1768 C1765 1.384 . S
N1769 C1761 1.427 . S
N1769 C1767 1.384 . S
H1770 C1776 0.930 . S
H1771 C1780 0.930 . S
H1772 C1785 0.929 . S
H1773 C1783 0.929 . S
H1774 C1778 0.929 . S
H1775 C1784 0.929 . S
C1776 H1770 0.930 . S
C1776 C1777 1.367 . S
C1776 C1784 1.378 . S
C1777 C1776 1.367 . S
C1777 C1785 1.433 . S
C1778 H1774 0.929 . S
C1778 C1780 1.378 . S
C1778 C1782 1.350 . S
C1779 C1782 1.463 . S
C1779 C1784 1.350 . S
C1779 N1787 1.427 . S
C1780 H1771 0.930 . S
C1780 C1778 1.378 . S
C1780 C1781 1.367 . S
C1781 C1780 1.367 . S
C1781 C1783 1.433 . S
C1782 C1778 1.350 . S
C1782 C1779 1.463 . S
C1782 N1786 1.427 . S
C1783 H1773 0.929 . S
C1783 C1781 1.433 . S
C1783 N1786 1.384 . S
C1784 H1775 0.929 . S
C1784 C1776 1.378 . S
C1784 C1779 1.350 . S
C1785 H1772 0.929 . S
C1785 C1777 1.433 . S
C1785 N1787 1.384 . S
N1786 C1782 1.427 . S
N1786 C1783 1.384 . S
N1787 C1779 1.427 . S
N1787 C1785 1.384 . S
H1788 C1794 0.930 . S
H1789 C1798 0.930 . S
H1790 C1803 0.929 . S
H1791 C1801 0.929 . S
H1792 C1796 0.929 . S
H1793 C1802 0.929 . S
C1794 H1788 0.930 . S
C1794 C1795 1.367 . S
C1794 C1802 1.378 . S
C1795 C1794 1.367 . S
C1795 C1803 1.433 . S
C1796 H1792 0.929 . S
C1796 C1798 1.378 . S
C1796 C1800 1.350 . S
C1797 C1800 1.463 . S
C1797 C1802 1.350 . S
C1797 N1805 1.427 . S
C1798 H1789 0.930 . S
C1798 C1796 1.378 . S
C1798 C1799 1.367 . S
C1799 C1798 1.367 . S
C1799 C1801 1.433 . S
C1800 C1796 1.350 . S
C1800 C1797 1.463 . S
C1800 N1804 1.427 . S
C1801 H1791 0.929 . S
C1801 C1799 1.433 . S
C1801 N1804 1.384 . S
C1802 H1793 0.929 . S
C1802 C1794 1.378 . S
C1802 C1797 1.350 . S
C1803 H1790 0.929 . S
C1803 C1795 1.433 . S
C1803 N1805 1.384 . S
N1804 C1800 1.427 . S
N1804 C1801 1.384 . S
N1805 C1797 1.427 . S
N1805 C1803 1.384 . S
H1806 C1812 0.930 . S
H1807 C1816 0.930 . S
H1808 C1821 0.929 . S
H1809 C1819 0.929 . S
H1810 C1814 0.929 . S
H1811 C1820 0.929 . S
C1812 H1806 0.930 . S
C1812 C1813 1.367 . S
C1812 C1820 1.378 . S
C1813 C1812 1.367 . S
C1813 C1821 1.433 . S
C1814 H1810 0.929 . S
C1814 C1816 1.378 . S
C1814 C1818 1.350 . S
C1815 C1818 1.463 . S
C1815 C1820 1.350 . S
C1815 N1823 1.427 . S
C1816 H1807 0.930 . S
C1816 C1814 1.378 . S
C1816 C1817 1.367 . S
C1817 C1816 1.367 . S
C1817 C1819 1.433 . S
C1818 C1814 1.350 . S
C1818 C1815 1.463 . S
C1818 N1822 1.427 . S
C1819 H1809 0.929 . S
C1819 C1817 1.433 . S
C1819 N1822 1.384 . S
C1820 H1811 0.929 . S
C1820 C1812 1.378 . S
C1820 C1815 1.350 . S
C1821 H1808 0.929 . S
C1821 C1813 1.433 . S
C1821 N1823 1.384 . S
N1822 C1818 1.427 . S
N1822 C1819 1.384 . S
N1823 C1815 1.427 . S
N1823 C1821 1.384 . S
H1824 C1830 0.930 . S
H1825 C1834 0.930 . S
H1826 C1839 0.929 . S
H1827 C1837 0.929 . S
H1828 C1832 0.929 . S
H1829 C1838 0.929 . S
C1830 H1824 0.930 . S
C1830 C1831 1.367 . S
C1830 C1838 1.378 . S
C1831 C1830 1.367 . S
C1831 C1839 1.433 . S
C1832 H1828 0.929 . S
C1832 C1834 1.378 . S
C1832 C1836 1.350 . S
C1833 C1836 1.463 . S
C1833 C1838 1.350 . S
C1833 N1841 1.427 . S
C1834 H1825 0.930 . S
C1834 C1832 1.378 . S
C1834 C1835 1.367 . S
C1835 C1834 1.367 . S
C1835 C1837 1.433 . S
C1836 C1832 1.350 . S
C1836 C1833 1.463 . S
C1836 N1840 1.427 . S
C1837 H1827 0.929 . S
C1837 C1835 1.433 . S
C1837 N1840 1.384 . S
C1838 H1829 0.929 . S
C1838 C1830 1.378 . S
C1838 C1833 1.350 . S
C1839 H1826 0.929 . S
C1839 C1831 1.433 . S
C1839 N1841 1.384 . S
N1840 C1836 1.427 . S
N1840 C1837 1.384 . S
N1841 C1833 1.427 . S
N1841 C1839 1.384 . S
H1842 C1848 0.930 . S
H1843 C1852 0.930 . S
H1844 C1857 0.929 . S
H1845 C1855 0.929 . S
H1846 C1850 0.929 . S
H1847 C1856 0.929 . S
C1848 H1842 0.930 . S
C1848 C1849 1.367 . S
C1848 C1856 1.378 . S
C1849 C1848 1.367 . S
C1849 C1857 1.433 . S
C1850 H1846 0.929 . S
C1850 C1852 1.378 . S
C1850 C1854 1.350 . S
C1851 C1854 1.463 . S
C1851 C1856 1.350 . S
C1851 N1859 1.427 . S
C1852 H1843 0.930 . S
C1852 C1850 1.378 . S
C1852 C1853 1.367 . S
C1853 C1852 1.367 . S
C1853 C1855 1.433 . S
C1854 C1850 1.350 . S
C1854 C1851 1.463 . S
C1854 N1858 1.427 . S
C1855 H1845 0.929 . S
C1855 C1853 1.433 . S
C1855 N1858 1.384 . S
C1856 H1847 0.929 . S
C1856 C1848 1.378 . S
C1856 C1851 1.350 . S
C1857 H1844 0.929 . S
C1857 C1849 1.433 . S
C1857 N1859 1.384 . S
N1858 C1854 1.427 . S
N1858 C1855 1.384 . S
N1859 C1851 1.427 . S
N1859 C1857 1.384 . S
H1860 C1866 0.930 . S
H1861 C1870 0.930 . S
H1862 C1875 0.929 . S
H1863 C1873 0.929 . S
H1864 C1868 0.929 . S
H1865 C1874 0.929 . S
C1866 H1860 0.930 . S
C1866 C1867 1.367 . S
C1866 C1874 1.378 . S
C1867 C1866 1.367 . S
C1867 C1875 1.433 . S
C1868 H1864 0.929 . S
C1868 C1870 1.378 . S
C1868 C1872 1.350 . S
C1869 C1872 1.463 . S
C1869 C1874 1.350 . S
C1869 N1877 1.427 . S
C1870 H1861 0.930 . S
C1870 C1868 1.378 . S
C1870 C1871 1.367 . S
C1871 C1870 1.367 . S
C1871 C1873 1.433 . S
C1872 C1868 1.350 . S
C1872 C1869 1.463 . S
C1872 N1876 1.427 . S
C1873 H1863 0.929 . S
C1873 C1871 1.433 . S
C1873 N1876 1.384 . S
C1874 H1865 0.929 . S
C1874 C1866 1.378 . S
C1874 C1869 1.350 . S
C1875 H1862 0.929 . S
C1875 C1867 1.433 . S
C1875 N1877 1.384 . S
N1876 C1872 1.427 . S
N1876 C1873 1.384 . S
N1877 C1869 1.427 . S
N1877 C1875 1.384 . S
H1878 C1884 0.930 . S
H1879 C1888 0.930 . S
H1880 C1893 0.929 . S
H1881 C1891 0.929 . S
H1882 C1886 0.929 . S
H1883 C1892 0.929 . S
C1884 H1878 0.930 . S
C1884 C1885 1.367 . S
C1884 C1892 1.378 . S
C1885 C1884 1.367 . S
C1885 C1893 1.433 . S
C1886 H1882 0.929 . S
C1886 C1888 1.378 . S
C1886 C1890 1.350 . S
C1887 C1890 1.463 . S
C1887 C1892 1.350 . S
C1887 N1895 1.427 . S
C1888 H1879 0.930 . S
C1888 C1886 1.378 . S
C1888 C1889 1.367 . S
C1889 C1888 1.367 . S
C1889 C1891 1.433 . S
C1890 C1886 1.350 . S
C1890 C1887 1.463 . S
C1890 N1894 1.427 . S
C1891 H1881 0.929 . S
C1891 C1889 1.433 . S
C1891 N1894 1.384 . S
C1892 H1883 0.929 . S
C1892 C1884 1.378 . S
C1892 C1887 1.350 . S
C1893 H1880 0.929 . S
C1893 C1885 1.433 . S
C1893 N1895 1.384 . S
N1894 C1890 1.427 . S
N1894 C1891 1.384 . S
N1895 C1887 1.427 . S
N1895 C1893 1.384 . S
H1896 C1902 0.930 . S
H1897 C1906 0.930 . S
H1898 C1911 0.929 . S
H1899 C1909 0.929 . S
H1900 C1904 0.929 . S
H1901 C1910 0.929 . S
C1902 H1896 0.930 . S
C1902 C1903 1.367 . S
C1902 C1910 1.378 . S
C1903 C1902 1.367 . S
C1903 C1911 1.433 . S
C1904 H1900 0.929 . S
C1904 C1906 1.378 . S
C1904 C1908 1.350 . S
C1905 C1908 1.463 . S
C1905 C1910 1.350 . S
C1905 N1913 1.427 . S
C1906 H1897 0.930 . S
C1906 C1904 1.378 . S
C1906 C1907 1.367 . S
C1907 C1906 1.367 . S
C1907 C1909 1.433 . S
C1908 C1904 1.350 . S
C1908 C1905 1.463 . S
C1908 N1912 1.427 . S
C1909 H1899 0.929 . S
C1909 C1907 1.433 . S
C1909 N1912 1.384 . S
C1910 H1901 0.929 . S
C1910 C1902 1.378 . S
C1910 C1905 1.350 . S
C1911 H1898 0.929 . S
C1911 C1903 1.433 . S
C1911 N1913 1.384 . S
N1912 C1908 1.427 . S
N1912 C1909 1.384 . S
N1913 C1905 1.427 . S
N1913 C1911 1.384 . S
H1914 C1920 0.930 . S
H1915 C1924 0.930 . S
H1916 C1929 0.929 . S
H1917 C1927 0.929 . S
H1918 C1922 0.929 . S
H1919 C1928 0.929 . S
C1920 H1914 0.930 . S
C1920 C1921 1.367 . S
C1920 C1928 1.378 . S
C1921 C1920 1.367 . S
C1921 C1929 1.433 . S
C1922 H1918 0.929 . S
C1922 C1924 1.378 . S
C1922 C1926 1.350 . S
C1923 C1926 1.463 . S
C1923 C1928 1.350 . S
C1923 N1931 1.427 . S
C1924 H1915 0.930 . S
C1924 C1922 1.378 . S
C1924 C1925 1.367 . S
C1925 C1924 1.367 . S
C1925 C1927 1.433 . S
C1926 C1922 1.350 . S
C1926 C1923 1.463 . S
C1926 N1930 1.427 . S
C1927 H1917 0.929 . S
C1927 C1925 1.433 . S
C1927 N1930 1.384 . S
C1928 H1919 0.929 . S
C1928 C1920 1.378 . S
C1928 C1923 1.350 . S
C1929 H1916 0.929 . S
C1929 C1921 1.433 . S
C1929 N1931 1.384 . S
N1930 C1926 1.427 . S
N1930 C1927 1.384 . S
N1931 C1923 1.427 . S
N1931 C1929 1.384 . S
H1932 C1938 0.930 . S
H1933 C1942 0.930 . S
H1934 C1947 0.929 . S
H1935 C1945 0.929 . S
H1936 C1940 0.929 . S
H1937 C1946 0.929 . S
C1938 H1932 0.930 . S
C1938 C1939 1.367 . S
C1938 C1946 1.378 . S
C1939 C1938 1.367 . S
C1939 C1947 1.433 . S
C1940 H1936 0.929 . S
C1940 C1942 1.378 . S
C1940 C1944 1.350 . S
C1941 C1944 1.463 . S
C1941 C1946 1.350 . S
C1941 N1949 1.427 . S
C1942 H1933 0.930 . S
C1942 C1940 1.378 . S
C1942 C1943 1.367 . S
C1943 C1942 1.367 . S
C1943 C1945 1.433 . S
C1944 C1940 1.350 . S
C1944 C1941 1.463 . S
C1944 N1948 1.427 . S
C1945 H1935 0.929 . S
C1945 C1943 1.433 . S
C1945 N1948 1.384 . S
C1946 H1937 0.929 . S
C1946 C1938 1.378 . S
C1946 C1941 1.350 . S
C1947 H1934 0.929 . S
C1947 C1939 1.433 . S
C1947 N1949 1.384 . S
N1948 C1944 1.427 . S
N1948 C1945 1.384 . S
N1949 C1941 1.427 . S
N1949 C1947 1.384 . S
H1950 C1956 0.930 . S
H1951 C1960 0.930 . S
H1952 C1965 0.929 . S
H1953 C1963 0.929 . S
H1954 C1958 0.929 . S
H1955 C1964 0.929 . S
C1956 H1950 0.930 . S
C1956 C1957 1.367 . S
C1956 C1964 1.378 . S
C1957 C1956 1.367 . S
C1957 C1965 1.433 . S
C1958 H1954 0.929 . S
C1958 C1960 1.378 . S
C1958 C1962 1.350 . S
C1959 C1962 1.463 . S
C1959 C1964 1.350 . S
C1959 N1967 1.427 . S
C1960 H1951 0.930 . S
C1960 C1958 1.378 . S
C1960 C1961 1.367 . S
C1961 C1960 1.367 . S
C1961 C1963 1.433 . S
C1962 C1958 1.350 . S
C1962 C1959 1.463 . S
C1962 N1966 1.427 . S
C1963 H1953 0.929 . S
C1963 C1961 1.433 . S
C1963 N1966 1.384 . S
C1964 H1955 0.929 . S
C1964 C1956 1.378 . S
C1964 C1959 1.350 . S
C1965 H1952 0.929 . S
C1965 C1957 1.433 . S
C1965 N1967 1.384 . S
N1966 C1962 1.427 . S
N1966 C1963 1.384 . S
N1967 C1959 1.427 . S
N1967 C1965 1.384 . S
H1968 C1974 0.930 . S
H1969 C1978 0.930 . S
H1970 C1983 0.929 . S
H1971 C1981 0.929 . S
H1972 C1976 0.929 . S
H1973 C1982 0.929 . S
C1974 H1968 0.930 . S
C1974 C1975 1.367 . S
C1974 C1982 1.378 . S
C1975 C1974 1.367 . S
C1975 C1983 1.433 . S
C1976 H1972 0.929 . S
C1976 C1978 1.378 . S
C1976 C1980 1.350 . S
C1977 C1980 1.463 . S
C1977 C1982 1.350 . S
C1977 N1985 1.427 . S
C1978 H1969 0.930 . S
C1978 C1976 1.378 . S
C1978 C1979 1.367 . S
C1979 C1978 1.367 . S
C1979 C1981 1.433 . S
C1980 C1976 1.350 . S
C1980 C1977 1.463 . S
C1980 N1984 1.427 . S
C1981 H1971 0.929 . S
C1981 C1979 1.433 . S
C1981 N1984 1.384 . S
C1982 H1973 0.929 . S
C1982 C1974 1.378 . S
C1982 C1977 1.350 . S
C1983 H1970 0.929 . S
C1983 C1975 1.433 . S
C1983 N1985 1.384 . S
N1984 C1980 1.427 . S
N1984 C1981 1.384 . S
N1985 C1977 1.427 . S
N1985 C1983 1.384 . S
H1986 C1992 0.930 . S
H1987 C1996 0.930 . S
H1988 C2001 0.929 . S
H1989 C1999 0.929 . S
H1990 C1994 0.929 . S
H1991 C2000 0.929 . S
C1992 H1986 0.930 . S
C1992 C1993 1.367 . S
C1992 C2000 1.378 . S
C1993 C1992 1.367 . S
C1993 C2001 1.433 . S
C1994 H1990 0.929 . S
C1994 C1996 1.378 . S
C1994 C1998 1.350 . S
C1995 C1998 1.463 . S
C1995 C2000 1.350 . S
C1995 N2003 1.427 . S
C1996 H1987 0.930 . S
C1996 C1994 1.378 . S
C1996 C1997 1.367 . S
C1997 C1996 1.367 . S
C1997 C1999 1.433 . S
C1998 C1994 1.350 . S
C1998 C1995 1.463 . S
C1998 N2002 1.427 . S
C1999 H1989 0.929 . S
C1999 C1997 1.433 . S
C1999 N2002 1.384 . S
C2000 H1991 0.929 . S
C2000 C1992 1.378 . S
C2000 C1995 1.350 . S
C2001 H1988 0.929 . S
C2001 C1993 1.433 . S
C2001 N2003 1.384 . S
N2002 C1998 1.427 . S
N2002 C1999 1.384 . S
N2003 C1995 1.427 . S
N2003 C2001 1.384 . S
H2004 C2010 0.930 . S
H2005 C2014 0.930 . S
H2006 C2019 0.929 . S
H2007 C2017 0.929 . S
H2008 C2012 0.929 . S
H2009 C2018 0.929 . S
C2010 H2004 0.930 . S
C2010 C2011 1.367 . S
C2010 C2018 1.378 . S
C2011 C2010 1.367 . S
C2011 C2019 1.433 . S
C2012 H2008 0.929 . S
C2012 C2014 1.378 . S
C2012 C2016 1.350 . S
C2013 C2016 1.463 . S
C2013 C2018 1.350 . S
C2013 N2021 1.427 . S
C2014 H2005 0.930 . S
C2014 C2012 1.378 . S
C2014 C2015 1.367 . S
C2015 C2014 1.367 . S
C2015 C2017 1.433 . S
C2016 C2012 1.350 . S
C2016 C2013 1.463 . S
C2016 N2020 1.427 . S
C2017 H2007 0.929 . S
C2017 C2015 1.433 . S
C2017 N2020 1.384 . S
C2018 H2009 0.929 . S
C2018 C2010 1.378 . S
C2018 C2013 1.350 . S
C2019 H2006 0.929 . S
C2019 C2011 1.433 . S
C2019 N2021 1.384 . S
N2020 C2016 1.427 . S
N2020 C2017 1.384 . S
N2021 C2013 1.427 . S
N2021 C2019 1.384 . S
H2022 C2028 0.930 . S
H2023 C2032 0.930 . S
H2024 C2037 0.929 . S
H2025 C2035 0.929 . S
H2026 C2030 0.929 . S
H2027 C2036 0.929 . S
C2028 H2022 0.930 . S
C2028 C2029 1.367 . S
C2028 C2036 1.378 . S
C2029 C2028 1.367 . S
C2029 C2037 1.433 . S
C2030 H2026 0.929 . S
C2030 C2032 1.378 . S
C2030 C2034 1.350 . S
C2031 C2034 1.463 . S
C2031 C2036 1.350 . S
C2031 N2039 1.427 . S
C2032 H2023 0.930 . S
C2032 C2030 1.378 . S
C2032 C2033 1.367 . S
C2033 C2032 1.367 . S
C2033 C2035 1.433 . S
C2034 C2030 1.350 . S
C2034 C2031 1.463 . S
C2034 N2038 1.427 . S
C2035 H2025 0.929 . S
C2035 C2033 1.433 . S
C2035 N2038 1.384 . S
C2036 H2027 0.929 . S
C2036 C2028 1.378 . S
C2036 C2031 1.350 . S
C2037 H2024 0.929 . S
C2037 C2029 1.433 . S
C2037 N2039 1.384 . S
N2038 C2034 1.427 . S
N2038 C2035 1.384 . S
N2039 C2031 1.427 . S
N2039 C2037 1.384 . S
H2040 C2046 0.930 . S
H2041 C2050 0.930 . S
H2042 C2055 0.929 . S
H2043 C2053 0.929 . S
H2044 C2048 0.929 . S
H2045 C2054 0.929 . S
C2046 H2040 0.930 . S
C2046 C2047 1.367 . S
C2046 C2054 1.378 . S
C2047 C2046 1.367 . S
C2047 C2055 1.433 . S
C2048 H2044 0.929 . S
C2048 C2050 1.378 . S
C2048 C2052 1.350 . S
C2049 C2052 1.463 . S
C2049 C2054 1.350 . S
C2049 N2057 1.427 . S
C2050 H2041 0.930 . S
C2050 C2048 1.378 . S
C2050 C2051 1.367 . S
C2051 C2050 1.367 . S
C2051 C2053 1.433 . S
C2052 C2048 1.350 . S
C2052 C2049 1.463 . S
C2052 N2056 1.427 . S
C2053 H2043 0.929 . S
C2053 C2051 1.433 . S
C2053 N2056 1.384 . S
C2054 H2045 0.929 . S
C2054 C2046 1.378 . S
C2054 C2049 1.350 . S
C2055 H2042 0.929 . S
C2055 C2047 1.433 . S
C2055 N2057 1.384 . S
N2056 C2052 1.427 . S
N2056 C2053 1.384 . S
N2057 C2049 1.427 . S
N2057 C2055 1.384 . S
H2058 C2064 0.930 . S
H2059 C2068 0.930 . S
H2060 C2073 0.929 . S
H2061 C2071 0.929 . S
H2062 C2066 0.929 . S
H2063 C2072 0.929 . S
C2064 H2058 0.930 . S
C2064 C2065 1.367 . S
C2064 C2072 1.378 . S
C2065 C2064 1.367 . S
C2065 C2073 1.433 . S
C2066 H2062 0.929 . S
C2066 C2068 1.378 . S
C2066 C2070 1.350 . S
C2067 C2070 1.463 . S
C2067 C2072 1.350 . S
C2067 N2075 1.427 . S
C2068 H2059 0.930 . S
C2068 C2066 1.378 . S
C2068 C2069 1.367 . S
C2069 C2068 1.367 . S
C2069 C2071 1.433 . S
C2070 C2066 1.350 . S
C2070 C2067 1.463 . S
C2070 N2074 1.427 . S
C2071 H2061 0.929 . S
C2071 C2069 1.433 . S
C2071 N2074 1.384 . S
C2072 H2063 0.929 . S
C2072 C2064 1.378 . S
C2072 C2067 1.350 . S
C2073 H2060 0.929 . S
C2073 C2065 1.433 . S
C2073 N2075 1.384 . S
N2074 C2070 1.427 . S
N2074 C2071 1.384 . S
N2075 C2067 1.427 . S
N2075 C2073 1.384 . S
H2076 C2082 0.930 . S
H2077 C2086 0.930 . S
H2078 C2091 0.929 . S
H2079 C2089 0.929 . S
H2080 C2084 0.929 . S
H2081 C2090 0.929 . S
C2082 H2076 0.930 . S
C2082 C2083 1.367 . S
C2082 C2090 1.378 . S
C2083 C2082 1.367 . S
C2083 C2091 1.433 . S
C2084 H2080 0.929 . S
C2084 C2086 1.378 . S
C2084 C2088 1.350 . S
C2085 C2088 1.463 . S
C2085 C2090 1.350 . S
C2085 N2093 1.427 . S
C2086 H2077 0.930 . S
C2086 C2084 1.378 . S
C2086 C2087 1.367 . S
C2087 C2086 1.367 . S
C2087 C2089 1.433 . S
C2088 C2084 1.350 . S
C2088 C2085 1.463 . S
C2088 N2092 1.427 . S
C2089 H2079 0.929 . S
C2089 C2087 1.433 . S
C2089 N2092 1.384 . S
C2090 H2081 0.929 . S
C2090 C2082 1.378 . S
C2090 C2085 1.350 . S
C2091 H2078 0.929 . S
C2091 C2083 1.433 . S
C2091 N2093 1.384 . S
N2092 C2088 1.427 . S
N2092 C2089 1.384 . S
N2093 C2085 1.427 . S
N2093 C2091 1.384 . S
H2094 C2100 0.930 . S
H2095 C2104 0.930 . S
H2096 C2109 0.929 . S
H2097 C2107 0.929 . S
H2098 C2102 0.929 . S
H2099 C2108 0.929 . S
C2100 H2094 0.930 . S
C2100 C2101 1.367 . S
C2100 C2108 1.378 . S
C2101 C2100 1.367 . S
C2101 C2109 1.433 . S
C2102 H2098 0.929 . S
C2102 C2104 1.378 . S
C2102 C2106 1.350 . S
C2103 C2106 1.463 . S
C2103 C2108 1.350 . S
C2103 N2111 1.427 . S
C2104 H2095 0.930 . S
C2104 C2102 1.378 . S
C2104 C2105 1.367 . S
C2105 C2104 1.367 . S
C2105 C2107 1.433 . S
C2106 C2102 1.350 . S
C2106 C2103 1.463 . S
C2106 N2110 1.427 . S
C2107 H2097 0.929 . S
C2107 C2105 1.433 . S
C2107 N2110 1.384 . S
C2108 H2099 0.929 . S
C2108 C2100 1.378 . S
C2108 C2103 1.350 . S
C2109 H2096 0.929 . S
C2109 C2101 1.433 . S
C2109 N2111 1.384 . S
N2110 C2106 1.427 . S
N2110 C2107 1.384 . S
N2111 C2103 1.427 . S
N2111 C2109 1.384 . S
H2112 C2118 0.930 . S
H2113 C2122 0.930 . S
H2114 C2127 0.929 . S
H2115 C2125 0.929 . S
H2116 C2120 0.929 . S
H2117 C2126 0.929 . S
C2118 H2112 0.930 . S
C2118 C2119 1.367 . S
C2118 C2126 1.378 . S
C2119 C2118 1.367 . S
C2119 C2127 1.433 . S
C2120 H2116 0.929 . S
C2120 C2122 1.378 . S
C2120 C2124 1.350 . S
C2121 C2124 1.463 . S
C2121 C2126 1.350 . S
C2121 N2129 1.427 . S
C2122 H2113 0.930 . S
C2122 C2120 1.378 . S
C2122 C2123 1.367 . S
C2123 C2122 1.367 . S
C2123 C2125 1.433 . S
C2124 C2120 1.350 . S
C2124 C2121 1.463 . S
C2124 N2128 1.427 . S
C2125 H2115 0.929 . S
C2125 C2123 1.433 . S
C2125 N2128 1.384 . S
C2126 H2117 0.929 . S
C2126 C2118 1.378 . S
C2126 C2121 1.350 . S
C2127 H2114 0.929 . S
C2127 C2119 1.433 . S
C2127 N2129 1.384 . S
N2128 C2124 1.427 . S
N2128 C2125 1.384 . S
N2129 C2121 1.427 . S
N2129 C2127 1.384 . S
H2130 C2136 0.930 . S
H2131 C2140 0.930 . S
H2132 C2145 0.929 . S
H2133 C2143 0.929 . S
H2134 C2138 0.929 . S
H2135 C2144 0.929 . S
C2136 H2130 0.930 . S
C2136 C2137 1.367 . S
C2136 C2144 1.378 . S
C2137 C2136 1.367 . S
C2137 C2145 1.433 . S
C2138 H2134 0.929 . S
C2138 C2140 1.378 . S
C2138 C2142 1.350 . S
C2139 C2142 1.463 . S
C2139 C2144 1.350 . S
C2139 N2147 1.427 . S
C2140 H2131 0.930 . S
C2140 C2138 1.378 . S
C2140 C2141 1.367 . S
C2141 C2140 1.367 . S
C2141 C2143 1.433 . S
C2142 C2138 1.350 . S
C2142 C2139 1.463 . S
C2142 N2146 1.427 . S
C2143 H2133 0.929 . S
C2143 C2141 1.433 . S
C2143 N2146 1.384 . S
C2144 H2135 0.929 . S
C2144 C2136 1.378 . S
C2144 C2139 1.350 . S
C2145 H2132 0.929 . S
C2145 C2137 1.433 . S
C2145 N2147 1.384 . S
N2146 C2142 1.427 . S
N2146 C2143 1.384 . S
N2147 C2139 1.427 . S
N2147 C2145 1.384 . S
H2148 C2154 0.930 . S
H2149 C2158 0.930 . S
H2150 C2163 0.929 . S
H2151 C2161 0.929 . S
H2152 C2156 0.929 . S
H2153 C2162 0.929 . S
C2154 H2148 0.930 . S
C2154 C2155 1.367 . S
C2154 C2162 1.378 . S
C2155 C2154 1.367 . S
C2155 C2163 1.433 . S
C2156 H2152 0.929 . S
C2156 C2158 1.378 . S
C2156 C2160 1.350 . S
C2157 C2160 1.463 . S
C2157 C2162 1.350 . S
C2157 N2165 1.427 . S
C2158 H2149 0.930 . S
C2158 C2156 1.378 . S
C2158 C2159 1.367 . S
C2159 C2158 1.367 . S
C2159 C2161 1.433 . S
C2160 C2156 1.350 . S
C2160 C2157 1.463 . S
C2160 N2164 1.427 . S
C2161 H2151 0.929 . S
C2161 C2159 1.433 . S
C2161 N2164 1.384 . S
C2162 H2153 0.929 . S
C2162 C2154 1.378 . S
C2162 C2157 1.350 . S
C2163 H2150 0.929 . S
C2163 C2155 1.433 . S
C2163 N2165 1.384 . S
N2164 C2160 1.427 . S
N2164 C2161 1.384 . S
N2165 C2157 1.427 . S
N2165 C2163 1.384 . S
H2166 C2172 0.930 . S
H2167 C2176 0.930 . S
H2168 C2181 0.929 . S
H2169 C2179 0.929 . S
H2170 C2174 0.929 . S
H2171 C2180 0.929 . S
C2172 H2166 0.930 . S
C2172 C2173 1.367 . S
C2172 C2180 1.378 . S
C2173 C2172 1.367 . S
C2173 C2181 1.433 . S
C2174 H2170 0.929 . S
C2174 C2176 1.378 . S
C2174 C2178 1.350 . S
C2175 C2178 1.463 . S
C2175 C2180 1.350 . S
C2175 N2183 1.427 . S
C2176 H2167 0.930 . S
C2176 C2174 1.378 . S
C2176 C2177 1.367 . S
C2177 C2176 1.367 . S
C2177 C2179 1.433 . S
C2178 C2174 1.350 . S
C2178 C2175 1.463 . S
C2178 N2182 1.427 . S
C2179 H2169 0.929 . S
C2179 C2177 1.433 . S
C2179 N2182 1.384 . S
C2180 H2171 0.929 . S
C2180 C2172 1.378 . S
C2180 C2175 1.350 . S
C2181 H2168 0.929 . S
C2181 C2173 1.433 . S
C2181 N2183 1.384 . S
N2182 C2178 1.427 . S
N2182 C2179 1.384 . S
N2183 C2175 1.427 . S
N2183 C2181 1.384 . S
H2184 C2190 0.930 . S
H2185 C2194 0.930 . S
H2186 C2199 0.929 . S
H2187 C2197 0.929 . S
H2188 C2192 0.929 . S
H2189 C2198 0.929 . S
C2190 H2184 0.930 . S
C2190 C2191 1.367 . S
C2190 C2198 1.378 . S
C2191 C2190 1.367 . S
C2191 C2199 1.433 . S
C2192 H2188 0.929 . S
C2192 C2194 1.378 . S
C2192 C2196 1.350 . S
C2193 C2196 1.463 . S
C2193 C2198 1.350 . S
C2193 N2201 1.427 . S
C2194 H2185 0.930 . S
C2194 C2192 1.378 . S
C2194 C2195 1.367 . S
C2195 C2194 1.367 . S
C2195 C2197 1.433 . S
C2196 C2192 1.350 . S
C2196 C2193 1.463 . S
C2196 N2200 1.427 . S
C2197 H2187 0.929 . S
C2197 C2195 1.433 . S
C2197 N2200 1.384 . S
C2198 H2189 0.929 . S
C2198 C2190 1.378 . S
C2198 C2193 1.350 . S
C2199 H2186 0.929 . S
C2199 C2191 1.433 . S
C2199 N2201 1.384 . S
N2200 C2196 1.427 . S
N2200 C2197 1.384 . S
N2201 C2193 1.427 . S
N2201 C2199 1.384 . S
H2202 C2208 0.930 . S
H2203 C2212 0.930 . S
H2204 C2217 0.929 . S
H2205 C2215 0.929 . S
H2206 C2210 0.929 . S
H2207 C2216 0.929 . S
C2208 H2202 0.930 . S
C2208 C2209 1.367 . S
C2208 C2216 1.378 . S
C2209 C2208 1.367 . S
C2209 C2217 1.433 . S
C2210 H2206 0.929 . S
C2210 C2212 1.378 . S
C2210 C2214 1.350 . S
C2211 C2214 1.463 . S
C2211 C2216 1.350 . S
C2211 N2219 1.427 . S
C2212 H2203 0.930 . S
C2212 C2210 1.378 . S
C2212 C2213 1.367 . S
C2213 C2212 1.367 . S
C2213 C2215 1.433 . S
C2214 C2210 1.350 . S
C2214 C2211 1.463 . S
C2214 N2218 1.427 . S
C2215 H2205 0.929 . S
C2215 C2213 1.433 . S
C2215 N2218 1.384 . S
C2216 H2207 0.929 . S
C2216 C2208 1.378 . S
C2216 C2211 1.350 . S
C2217 H2204 0.929 . S
C2217 C2209 1.433 . S
C2217 N2219 1.384 . S
N2218 C2214 1.427 . S
N2218 C2215 1.384 . S
N2219 C2211 1.427 . S
N2219 C2217 1.384 . S
H2220 C2226 0.930 . S
H2221 C2230 0.930 . S
H2222 C2235 0.929 . S
H2223 C2233 0.929 . S
H2224 C2228 0.929 . S
H2225 C2234 0.929 . S
C2226 H2220 0.930 . S
C2226 C2227 1.367 . S
C2226 C2234 1.378 . S
C2227 C2226 1.367 . S
C2227 C2235 1.433 . S
C2228 H2224 0.929 . S
C2228 C2230 1.378 . S
C2228 C2232 1.350 . S
C2229 C2232 1.463 . S
C2229 C2234 1.350 . S
C2229 N2237 1.427 . S
C2230 H2221 0.930 . S
C2230 C2228 1.378 . S
C2230 C2231 1.367 . S
C2231 C2230 1.367 . S
C2231 C2233 1.433 . S
C2232 C2228 1.350 . S
C2232 C2229 1.463 . S
C2232 N2236 1.427 . S
C2233 H2223 0.929 . S
C2233 C2231 1.433 . S
C2233 N2236 1.384 . S
C2234 H2225 0.929 . S
C2234 C2226 1.378 . S
C2234 C2229 1.350 . S
C2235 H2222 0.929 . S
C2235 C2227 1.433 . S
C2235 N2237 1.384 . S
N2236 C2232 1.427 . S
N2236 C2233 1.384 . S
N2237 C2229 1.427 . S
N2237 C2235 1.384 . S
H2238 C2244 0.930 . S
H2239 C2248 0.930 . S
H2240 C2253 0.929 . S
H2241 C2251 0.929 . S
H2242 C2246 0.929 . S
H2243 C2252 0.929 . S
C2244 H2238 0.930 . S
C2244 C2245 1.367 . S
C2244 C2252 1.378 . S
C2245 C2244 1.367 . S
C2245 C2253 1.433 . S
C2246 H2242 0.929 . S
C2246 C2248 1.378 . S
C2246 C2250 1.350 . S
C2247 C2250 1.463 . S
C2247 C2252 1.350 . S
C2247 N2255 1.427 . S
C2248 H2239 0.930 . S
C2248 C2246 1.378 . S
C2248 C2249 1.367 . S
C2249 C2248 1.367 . S
C2249 C2251 1.433 . S
C2250 C2246 1.350 . S
C2250 C2247 1.463 . S
C2250 N2254 1.427 . S
C2251 H2241 0.929 . S
C2251 C2249 1.433 . S
C2251 N2254 1.384 . S
C2252 H2243 0.929 . S
C2252 C2244 1.378 . S
C2252 C2247 1.350 . S
C2253 H2240 0.929 . S
C2253 C2245 1.433 . S
C2253 N2255 1.384 . S
N2254 C2250 1.427 . S
N2254 C2251 1.384 . S
N2255 C2247 1.427 . S
N2255 C2253 1.384 . S
H2256 C2262 0.930 . S
H2257 C2266 0.930 . S
H2258 C2271 0.929 . S
H2259 C2269 0.929 . S
H2260 C2264 0.929 . S
H2261 C2270 0.929 . S
C2262 H2256 0.930 . S
C2262 C2263 1.367 . S
C2262 C2270 1.378 . S
C2263 C2262 1.367 . S
C2263 C2271 1.433 . S
C2264 H2260 0.929 . S
C2264 C2266 1.378 . S
C2264 C2268 1.350 . S
C2265 C2268 1.463 . S
C2265 C2270 1.350 . S
C2265 N2273 1.427 . S
C2266 H2257 0.930 . S
C2266 C2264 1.378 . S
C2266 C2267 1.367 . S
C2267 C2266 1.367 . S
C2267 C2269 1.433 . S
C2268 C2264 1.350 . S
C2268 C2265 1.463 . S
C2268 N2272 1.427 . S
C2269 H2259 0.929 . S
C2269 C2267 1.433 . S
C2269 N2272 1.384 . S
C2270 H2261 0.929 . S
C2270 C2262 1.378 . S
C2270 C2265 1.350 . S
C2271 H2258 0.929 . S
C2271 C2263 1.433 . S
C2271 N2273 1.384 . S
N2272 C2268 1.427 . S
N2272 C2269 1.384 . S
N2273 C2265 1.427 . S
N2273 C2271 1.384 . S
H2274 C2280 0.930 . S
H2275 C2284 0.930 . S
H2276 C2289 0.929 . S
H2277 C2287 0.929 . S
H2278 C2282 0.929 . S
H2279 C2288 0.929 . S
C2280 H2274 0.930 . S
C2280 C2281 1.367 . S
C2280 C2288 1.378 . S
C2281 C2280 1.367 . S
C2281 C2289 1.433 . S
C2282 H2278 0.929 . S
C2282 C2284 1.378 . S
C2282 C2286 1.350 . S
C2283 C2286 1.463 . S
C2283 C2288 1.350 . S
C2283 N2291 1.427 . S
C2284 H2275 0.930 . S
C2284 C2282 1.378 . S
C2284 C2285 1.367 . S
C2285 C2284 1.367 . S
C2285 C2287 1.433 . S
C2286 C2282 1.350 . S
C2286 C2283 1.463 . S
C2286 N2290 1.427 . S
C2287 H2277 0.929 . S
C2287 C2285 1.433 . S
C2287 N2290 1.384 . S
C2288 H2279 0.929 . S
C2288 C2280 1.378 . S
C2288 C2283 1.350 . S
C2289 H2276 0.929 . S
C2289 C2281 1.433 . S
C2289 N2291 1.384 . S
N2290 C2286 1.427 . S
N2290 C2287 1.384 . S
N2291 C2283 1.427 . S
N2291 C2289 1.384 . S
H2292 C2298 0.930 . S
H2293 C2302 0.930 . S
H2294 C2307 0.929 . S
H2295 C2305 0.929 . S
H2296 C2300 0.929 . S
H2297 C2306 0.929 . S
C2298 H2292 0.930 . S
C2298 C2299 1.367 . S
C2298 C2306 1.378 . S
C2299 C2298 1.367 . S
C2299 C2307 1.433 . S
C2300 H2296 0.929 . S
C2300 C2302 1.378 . S
C2300 C2304 1.350 . S
C2301 C2304 1.463 . S
C2301 C2306 1.350 . S
C2301 N2309 1.427 . S
C2302 H2293 0.930 . S
C2302 C2300 1.378 . S
C2302 C2303 1.367 . S
C2303 C2302 1.367 . S
C2303 C2305 1.433 . S
C2304 C2300 1.350 . S
C2304 C2301 1.463 . S
C2304 N2308 1.427 . S
C2305 H2295 0.929 . S
C2305 C2303 1.433 . S
C2305 N2308 1.384 . S
C2306 H2297 0.929 . S
C2306 C2298 1.378 . S
C2306 C2301 1.350 . S
C2307 H2294 0.929 . S
C2307 C2299 1.433 . S
C2307 N2309 1.384 . S
N2308 C2304 1.427 . S
N2308 C2305 1.384 . S
N2309 C2301 1.427 . S
N2309 C2307 1.384 . S
H2310 C2316 0.930 . S
H2311 C2320 0.930 . S
H2312 C2325 0.929 . S
H2313 C2323 0.929 . S
H2314 C2318 0.929 . S
H2315 C2324 0.929 . S
C2316 H2310 0.930 . S
C2316 C2317 1.367 . S
C2316 C2324 1.378 . S
C2317 C2316 1.367 . S
C2317 C2325 1.433 . S
C2318 H2314 0.929 . S
C2318 C2320 1.378 . S
C2318 C2322 1.350 . S
C2319 C2322 1.463 . S
C2319 C2324 1.350 . S
C2319 N2327 1.427 . S
C2320 H2311 0.930 . S
C2320 C2318 1.378 . S
C2320 C2321 1.367 . S
C2321 C2320 1.367 . S
C2321 C2323 1.433 . S
C2322 C2318 1.350 . S
C2322 C2319 1.463 . S
C2322 N2326 1.427 . S
C2323 H2313 0.929 . S
C2323 C2321 1.433 . S
C2323 N2326 1.384 . S
C2324 H2315 0.929 . S
C2324 C2316 1.378 . S
C2324 C2319 1.350 . S
C2325 H2312 0.929 . S
C2325 C2317 1.433 . S
C2325 N2327 1.384 . S
N2326 C2322 1.427 . S
N2326 C2323 1.384 . S
N2327 C2319 1.427 . S
N2327 C2325 1.384 . S
H2328 C2334 0.930 . S
H2329 C2338 0.930 . S
H2330 C2343 0.929 . S
H2331 C2341 0.929 . S
H2332 C2336 0.929 . S
H2333 C2342 0.929 . S
C2334 H2328 0.930 . S
C2334 C2335 1.367 . S
C2334 C2342 1.378 . S
C2335 C2334 1.367 . S
C2335 C2343 1.433 . S
C2336 H2332 0.929 . S
C2336 C2338 1.378 . S
C2336 C2340 1.350 . S
C2337 C2340 1.463 . S
C2337 C2342 1.350 . S
C2337 N2345 1.427 . S
C2338 H2329 0.930 . S
C2338 C2336 1.378 . S
C2338 C2339 1.367 . S
C2339 C2338 1.367 . S
C2339 C2341 1.433 . S
C2340 C2336 1.350 . S
C2340 C2337 1.463 . S
C2340 N2344 1.427 . S
C2341 H2331 0.929 . S
C2341 C2339 1.433 . S
C2341 N2344 1.384 . S
C2342 H2333 0.929 . S
C2342 C2334 1.378 . S
C2342 C2337 1.350 . S
C2343 H2330 0.929 . S
C2343 C2335 1.433 . S
C2343 N2345 1.384 . S
N2344 C2340 1.427 . S
N2344 C2341 1.384 . S
N2345 C2337 1.427 . S
N2345 C2343 1.384 . S
H2346 C2352 0.930 . S
H2347 C2356 0.930 . S
H2348 C2361 0.929 . S
H2349 C2359 0.929 . S
H2350 C2354 0.929 . S
H2351 C2360 0.929 . S
C2352 H2346 0.930 . S
C2352 C2353 1.367 . S
C2352 C2360 1.378 . S
C2353 C2352 1.367 . S
C2353 C2361 1.433 . S
C2354 H2350 0.929 . S
C2354 C2356 1.378 . S
C2354 C2358 1.350 . S
C2355 C2358 1.463 . S
C2355 C2360 1.350 . S
C2355 N2363 1.427 . S
C2356 H2347 0.930 . S
C2356 C2354 1.378 . S
C2356 C2357 1.367 . S
C2357 C2356 1.367 . S
C2357 C2359 1.433 . S
C2358 C2354 1.350 . S
C2358 C2355 1.463 . S
C2358 N2362 1.427 . S
C2359 H2349 0.929 . S
C2359 C2357 1.433 . S
C2359 N2362 1.384 . S
C2360 H2351 0.929 . S
C2360 C2352 1.378 . S
C2360 C2355 1.350 . S
C2361 H2348 0.929 . S
C2361 C2353 1.433 . S
C2361 N2363 1.384 . S
N2362 C2358 1.427 . S
N2362 C2359 1.384 . S
N2363 C2355 1.427 . S
N2363 C2361 1.384 . S
H2364 C2370 0.930 . S
H2365 C2374 0.930 . S
H2366 C2379 0.929 . S
H2367 C2377 0.929 . S
H2368 C2372 0.929 . S
H2369 C2378 0.929 . S
C2370 H2364 0.930 . S
C2370 C2371 1.367 . S
C2370 C2378 1.378 . S
C2371 C2370 1.367 . S
C2371 C2379 1.433 . S
C2372 H2368 0.929 . S
C2372 C2374 1.378 . S
C2372 C2376 1.350 . S
C2373 C2376 1.463 . S
C2373 C2378 1.350 . S
C2373 N2381 1.427 . S
C2374 H2365 0.930 . S
C2374 C2372 1.378 . S
C2374 C2375 1.367 . S
C2375 C2374 1.367 . S
C2375 C2377 1.433 . S
C2376 C2372 1.350 . S
C2376 C2373 1.463 . S
C2376 N2380 1.427 . S
C2377 H2367 0.929 . S
C2377 C2375 1.433 . S
C2377 N2380 1.384 . S
C2378 H2369 0.929 . S
C2378 C2370 1.378 . S
C2378 C2373 1.350 . S
C2379 H2366 0.929 . S
C2379 C2371 1.433 . S
C2379 N2381 1.384 . S
N2380 C2376 1.427 . S
N2380 C2377 1.384 . S
N2381 C2373 1.427 . S
N2381 C2379 1.384 . S
H2382 C2388 0.930 . S
H2383 C2392 0.930 . S
H2384 C2397 0.929 . S
H2385 C2395 0.929 . S
H2386 C2390 0.929 . S
H2387 C2396 0.929 . S
C2388 H2382 0.930 . S
C2388 C2389 1.367 . S
C2388 C2396 1.378 . S
C2389 C2388 1.367 . S
C2389 C2397 1.433 . S
C2390 H2386 0.929 . S
C2390 C2392 1.378 . S
C2390 C2394 1.350 . S
C2391 C2394 1.463 . S
C2391 C2396 1.350 . S
C2391 N2399 1.427 . S
C2392 H2383 0.930 . S
C2392 C2390 1.378 . S
C2392 C2393 1.367 . S
C2393 C2392 1.367 . S
C2393 C2395 1.433 . S
C2394 C2390 1.350 . S
C2394 C2391 1.463 . S
C2394 N2398 1.427 . S
C2395 H2385 0.929 . S
C2395 C2393 1.433 . S
C2395 N2398 1.384 . S
C2396 H2387 0.929 . S
C2396 C2388 1.378 . S
C2396 C2391 1.350 . S
C2397 H2384 0.929 . S
C2397 C2389 1.433 . S
C2397 N2399 1.384 . S
N2398 C2394 1.427 . S
N2398 C2395 1.384 . S
N2399 C2391 1.427 . S
N2399 C2397 1.384 . S
C679 C403 1.019 . S
C683 C11 1.034 . S
C697 C25 1.028 . S
C701 C417 1.025 . S
C715 C431 1.031 . S
C719 C39 1.023 . S
C733 C53 1.035 . S
C737 C445 1.019 . S
C751 C347 1.035 . S
C755 C67 1.019 . S
C769 C81 1.026 . S
C773 C361 1.027 . S
C787 C375 1.027 . S
C791 C95 1.026 . S
C805 C109 1.030 . S
C809 C389 1.023 . S
C823 C543 1.033 . S
C827 C123 1.020 . S
C841 C557 1.028 . S
C845 C137 1.025 . S
C859 C515 1.028 . S
C863 C151 1.026 . S
C877 C165 1.028 . S
C881 C529 1.026 . S
C895 C487 1.025 . S
C899 C179 1.029 . S
C913 C501 1.035 . S
C917 C193 1.019 . S
C931 C207 1.024 . S
C935 C459 1.030 . S
C949 C473 1.025 . S
C953 C221 1.028 . S
C967 C235 1.025 . S
C971 C641 1.028 . S
C985 C613 1.032 . S
C989 C249 1.021 . S
C1003 C627 1.023 . S
C1007 C263 1.031 . S
C1021 C585 1.034 . S
C1025 C277 1.019 . S
C1039 C599 1.023 . S
C1043 C291 1.030 . S
C1057 C305 1.028 . S
C1061 C571 1.026 . S
C1075 C319 1.021 . S
C1079 C669 1.032 . S
C1093 C655 1.024 . S
C1097 C333 1.030 . S
C1111 C111 1.251 . S
C1115 C13 1.280 . S
C1129 C69 1.252 . S
C1133 C27 1.280 . S
C1147 C83 1.256 . S
C1151 C41 1.278 . S
C1165 C97 1.252 . S
C1169 C55 1.278 . S
C1183 C293 1.277 . S
C1187 C125 1.252 . S
C1201 C251 1.260 . S
C1205 C139 1.267 . S
C1219 C265 1.257 . S
C1223 C153 1.270 . S
C1237 C279 1.277 . S
C1241 C167 1.252 . S
C1255 C335 1.279 . S
C1259 C181 1.251 . S
C1273 C307 1.261 . S
C1277 C195 1.274 . S
C1291 C209 1.262 . S
C1295 C321 1.274 . S
C1309 C237 1.270 . S
C1313 C223 1.266 . S
C1327 C447 1.252 . S
C1331 C349 1.280 . S
C1345 C405 1.279 . S
C1349 C363 1.255 . S
C1363 C377 1.260 . S
C1367 C419 1.276 . S
C1381 C391 1.256 . S
C1385 C433 1.279 . S
C1399 C461 1.261 . S
C1403 C629 1.275 . S
C1417 C475 1.272 . S
C1421 C587 1.255 . S
C1435 C601 1.252 . S
C1439 C489 1.278 . S
C1453 C615 1.275 . S
C1457 C503 1.253 . S
C1471 C671 1.267 . S
C1475 C517 1.269 . S
C1489 C643 1.251 . S
C1493 C531 1.279 . S
C1507 C657 1.260 . S
C1511 C545 1.276 . S
C1525 C559 1.255 . S
C1529 C573 1.272 . S
C1543 C7 1.021 . S
C1547 C120 0.967 . S
C1561 C134 0.972 . S
C1565 C21 1.018 . S
C1579 C148 0.967 . S
C1583 C35 1.019 . S
C1597 C162 0.947 . S
C1601 C49 1.030 . S
C1615 C63 1.023 . S
C1619 C176 0.959 . S
C1633 C190 0.979 . S
C1637 C77 1.014 . S
C1651 C91 1.019 . S
C1655 C204 0.968 . S
C1669 C218 0.975 . S
C1673 C105 1.017 . S
C1687 C232 0.975 . S
C1691 C119 1.017 . S
C1705 C330 0.949 . S
C1709 C133 1.029 . S
C1723 C147 1.029 . S
C1727 C302 0.948 . S
C1741 C161 1.026 . S
C1745 C316 0.953 . S
C1759 C175 1.030 . S
C1763 C246 0.947 . S
C1777 C189 1.020 . S
C1781 C260 0.969 . S
C1795 C203 1.030 . S
C1799 C274 0.947 . S
C1813 C217 1.021 . S
C1817 C288 0.968 . S
C1831 C231 1.029 . S
C1835 C8 0.948 . S
C1849 C245 1.030 . S
C1853 C64 0.946 . S
C1867 C259 1.028 . S
C1871 C78 0.952 . S
C1885 C273 1.026 . S
C1889 C92 0.955 . S
C1903 C287 1.016 . S
C1907 C106 0.976 . S
C1921 C301 1.020 . S
C1925 C36 0.970 . S
C1939 C50 0.950 . S
C1943 C315 1.029 . S
C1957 C22 0.978 . S
C1961 C329 1.015 . S
C1975 C456 0.964 . S
C1979 C343 1.021 . S
C1993 C470 0.946 . S
C1997 C357 1.030 . S
C2011 C484 0.959 . S
C2015 C371 1.025 . S
C2029 C498 0.979 . S
C2033 C385 1.015 . S
C2047 C512 0.952 . S
C2051 C399 1.027 . S
C2065 C413 1.030 . S
C2069 C526 0.947 . S
C2083 C540 0.960 . S
C2087 C427 1.024 . S
C2101 C441 1.025 . S
C2105 C554 0.955 . S
C2119 C568 0.946 . S
C2123 C455 1.030 . S
C2137 C469 1.018 . S
C2141 C666 0.969 . S
C2155 C483 1.028 . S
C2159 C638 0.949 . S
C2173 C652 0.955 . S
C2177 C497 1.027 . S
C2191 C582 0.976 . S
C2195 C511 1.016 . S
C2209 C525 1.025 . S
C2213 C596 0.955 . S
C2227 C539 1.016 . S
C2231 C610 0.977 . S
C2245 C624 0.951 . S
C2249 C553 1.027 . S
C2263 C344 0.963 . S
C2267 C567 1.021 . S
C2281 C400 0.948 . S
C2285 C581 1.030 . S
C2299 C414 0.979 . S
C2303 C595 1.015 . S
C2317 C609 1.018 . S
C2321 C428 0.972 . S
C2335 C442 0.967 . S
C2339 C623 1.021 . S
C2353 C372 0.979 . S
C2357 C637 1.015 . S
C2371 C651 1.015 . S
C2375 C386 0.979 . S
C2389 C358 0.949 . S
C2393 C665 1.029 . S
