# Generated by pormake.
# Topology wjf, (4)-cn, num edge types: 1
# Building blocks:
#     Node 0, Type 0, BuildingBlock: ICAMEG_clean_sbu_1, # of connection points: 4
#     Node 1, Type 0, BuildingBlock: ICAMEG_clean_sbu_1, # of connection points: 4
#     Node 2, Type 0, BuildingBlock: ICAMEG_clean_sbu_1, # of connection points: 4
#     Node 3, Type 0, BuildingBlock: ICAMEG_clean_sbu_1, # of connection points: 4
#     Node 4, Type 0, BuildingBlock: ICAMEG_clean_sbu_1, # of connection points: 4
#     Node 5, Type 0, BuildingBlock: ICAMEG_clean_sbu_1, # of connection points: 4
#     Node 6, Type 0, BuildingBlock: ICAMEG_clean_sbu_1, # of connection points: 4
#     Node 7, Type 0, BuildingBlock: ICAMEG_clean_sbu_1, # of connection points: 4
#     Node 8, Type 0, BuildingBlock: ICAMEG_clean_sbu_1, # of connection points: 4
#     Node 9, Type 0, BuildingBlock: ICAMEG_clean_sbu_1, # of connection points: 4
#     Node 10, Type 0, BuildingBlock: ICAMEG_clean_sbu_1, # of connection points: 4
#     Node 11, Type 0, BuildingBlock: ICAMEG_clean_sbu_1, # of connection points: 4
#     Edge 12, Type (0, 0), BuildingBlock: XUDNAN_clean_linker_2, # of connection points: 2
#     Edge 13, Type (0, 0), BuildingBlock: XUDNAN_clean_linker_2, # of connection points: 2
#     Edge 14, Type (0, 0), BuildingBlock: XUDNAN_clean_linker_2, # of connection points: 2
#     Edge 15, Type (0, 0), BuildingBlock: XUDNAN_clean_linker_2, # of connection points: 2
#     Edge 16, Type (0, 0), BuildingBlock: XUDNAN_clean_linker_2, # of connection points: 2
#     Edge 17, Type (0, 0), BuildingBlock: XUDNAN_clean_linker_2, # of connection points: 2
#     Edge 18, Type (0, 0), BuildingBlock: XUDNAN_clean_linker_2, # of connection points: 2
#     Edge 19, Type (0, 0), BuildingBlock: XUDNAN_clean_linker_2, # of connection points: 2
#     Edge 20, Type (0, 0), BuildingBlock: XUDNAN_clean_linker_2, # of connection points: 2
#     Edge 21, Type (0, 0), BuildingBlock: XUDNAN_clean_linker_2, # of connection points: 2
#     Edge 22, Type (0, 0), BuildingBlock: XUDNAN_clean_linker_2, # of connection points: 2
#     Edge 23, Type (0, 0), BuildingBlock: XUDNAN_clean_linker_2, # of connection points: 2
#     Edge 24, Type (0, 0), BuildingBlock: XUDNAN_clean_linker_2, # of connection points: 2
#     Edge 25, Type (0, 0), BuildingBlock: XUDNAN_clean_linker_2, # of connection points: 2
#     Edge 26, Type (0, 0), BuildingBlock: XUDNAN_clean_linker_2, # of connection points: 2
#     Edge 27, Type (0, 0), BuildingBlock: XUDNAN_clean_linker_2, # of connection points: 2
#     Edge 28, Type (0, 0), BuildingBlock: XUDNAN_clean_linker_2, # of connection points: 2
#     Edge 29, Type (0, 0), BuildingBlock: XUDNAN_clean_linker_2, # of connection points: 2
#     Edge 30, Type (0, 0), BuildingBlock: XUDNAN_clean_linker_2, # of connection points: 2
#     Edge 31, Type (0, 0), BuildingBlock: XUDNAN_clean_linker_2, # of connection points: 2
#     Edge 32, Type (0, 0), BuildingBlock: XUDNAN_clean_linker_2, # of connection points: 2
#     Edge 33, Type (0, 0), BuildingBlock: XUDNAN_clean_linker_2, # of connection points: 2
#     Edge 34, Type (0, 0), BuildingBlock: XUDNAN_clean_linker_2, # of connection points: 2
#     Edge 35, Type (0, 0), BuildingBlock: XUDNAN_clean_linker_2, # of connection points: 2
# Relax obj value: 0.055
# Max RMSD: 0.073
# Mean RMSD: 0.073
data_MOF--net-wjf--node1-ICAMEG_clean_sbu_1--edge1-XUDNAN_clean_linker_2
_symmetry_space_group_name_H-M    P1
_symmetry_Int_Tables_number       1
_symmetry_cell_setting            triclinic
loop_
_symmetry_equiv_pos_as_xyz
'x, y, z'
_cell_length_a     54.648205
_cell_length_b     54.648747
_cell_length_c     29.966838
_cell_angle_alpha  90.031606
_cell_angle_beta   89.991655
_cell_angle_gamma 120.04459
loop_
_atom_site_label
_atom_site_type_symbol
_atom_site_fract_x
_atom_site_fract_y
_atom_site_fract_z
_atom_type_partial_charge
Co0 Co 0.34366 0.36322 0.09898 0.0
Co1 Co 0.34576 0.42211 0.05268 0.0
O2 O 0.33021 0.38999 0.09338 0.0
C3 C 0.35009 0.38569 0.19046 0.0
O4 O 0.36306 0.41122 0.1733 0.0
C5 C 0.28603 0.38791 0.02502 0.0
O6 O 0.29052 0.36654 0.02169 0.0
O7 O 0.34653 0.39876 0.00189 0.0
O8 O 0.34742 0.36194 0.03338 0.0
H9 H 0.41182 0.48708 0.93502 0.0
H10 H 0.29031 0.3514 0.1432 0.0
O11 O 0.34047 0.36408 0.16523 0.0
H12 H 0.26366 0.27193 0.03937 0.0
H13 H 0.34376 0.27867 0.16539 0.0
H14 H 0.38874 0.35621 0.05604 0.0
H15 H 0.31337 0.30997 0.04605 0.0
H16 H 0.327 0.31274 0.15635 0.0
O17 O 0.30608 0.41224 0.03653 0.0
H18 H 0.39279 0.44683 0.98727 0.0
H19 H 0.33017 0.46577 0.03096 0.0
H20 H 0.40601 0.3225 0.06373 0.0
H21 H 0.24038 0.31372 0.13778 0.0
H22 H 0.38347 0.28338 0.11874 0.0
H23 H 0.22678 0.27365 0.08548 0.0
O24 O 0.38371 0.3944 0.10205 0.0
H25 H 0.30306 0.44405 0.18443 0.0
H26 H 0.38789 0.47819 0.09004 0.0
H27 H 0.38849 0.50723 0.15351 0.0
H28 H 0.34581 0.49021 0.20116 0.0
H29 H 0.3035 0.41555 0.12092 0.0
H30 H 0.34842 0.50615 0.97898 0.0
H31 H 0.38959 0.51706 0.93065 0.0
O32 O 0.38539 0.43214 0.06859 0.0
C33 C 0.34836 0.3764 -0.00051 0.0
C34 C 0.39394 0.4826 0.95602 0.0
C35 C 0.35832 0.49328 0.98065 0.0
N36 N 0.36055 0.45412 0.01237 0.0
C37 C 0.38313 0.4599 0.98577 0.0
C38 C 0.34805 0.47036 0.00995 0.0
C39 C 0.38143 0.49939 0.95355 0.0
C40 C 0.28458 0.3339 0.12067 0.0
N41 N 0.30474 0.33279 0.09519 0.0
C42 C 0.25627 0.31268 0.11762 0.0
C43 C 0.24865 0.29023 0.08822 0.0
C44 C 0.26933 0.28925 0.06232 0.0
C45 C 0.29743 0.31087 0.0662 0.0
C46 C 0.35373 0.2956 0.14126 0.0
C47 C 0.37872 0.33916 0.07989 0.0
C48 C 0.34438 0.315 0.13607 0.0
N49 N 0.35678 0.33635 0.10551 0.0
C50 C 0.38864 0.32018 0.08417 0.0
C51 C 0.376 0.29825 0.11507 0.0
C52 C 0.39721 0.41979 0.08758 0.0
C53 C 0.32176 0.45172 0.16386 0.0
C54 C 0.3693 0.47059 0.11074 0.0
C55 C 0.36973 0.48716 0.14656 0.0
C56 C 0.34577 0.4776 0.17326 0.0
N57 N 0.34566 0.44525 0.1017 0.0
C58 C 0.3221 0.43572 0.12775 0.0
Co59 Co 0.99186 0.34892 0.38602 0.0
Co60 Co 0.9265 0.34437 0.37697 0.0
O61 O 0.95155 0.3313 0.39974 0.0
C62 C 0.98991 0.35346 0.48348 0.0
O63 O 0.96917 0.35863 0.47713 0.0
C64 C 0.9001 0.28547 0.34322 0.0
O65 O 0.92514 0.29166 0.32832 0.0
O66 O 0.94174 0.34827 0.31522 0.0
O67 O 0.9842 0.35137 0.32182 0.0
H68 H 0.90219 0.4083 0.29112 0.0
H69 H 0.96396 0.29539 0.43709 0.0
O70 O 1.00088 0.34772 0.45051 0.0
H71 H 0.99956 0.2739 0.29999 0.0
H72 H 0.08895 0.36042 0.3986 0.0
H73 H 0.03161 0.39656 0.32864 0.0
H74 H 0.00765 0.32193 0.3136 0.0
H75 H 0.03805 0.33858 0.41533 0.0
O76 O 0.89687 0.30409 0.36387 0.0
H77 H 0.9338 0.39187 0.31983 0.0
H78 H 0.86473 0.32317 0.3856 0.0
H79 H 0.08233 0.41879 0.31051 0.0
H80 H 0.95556 0.2471 0.42499 0.0
H81 H 0.11137 0.40072 0.34564 0.0
H82 H 0.97337 0.23611 0.35597 0.0
O83 O 0.99767 0.38737 0.39598 0.0
H84 H 0.8877 0.29483 0.52305 0.0
H85 H 0.91604 0.38184 0.43682 0.0
H86 H 0.89872 0.37817 0.51391 0.0
H87 H 0.88442 0.33442 0.55757 0.0
H88 H 0.90541 0.2995 0.446 0.0
H89 H 0.8323 0.33866 0.35717 0.0
H90 H 0.85103 0.3816 0.30975 0.0
O91 O 0.95548 0.38477 0.38965 0.0
C92 C 0.96462 0.35128 0.29864 0.0
C93 C 0.89378 0.3896 0.31185 0.0
C94 C 0.85456 0.3505 0.34888 0.0
N95 N 0.90116 0.35673 0.35464 0.0
C96 C 0.9116 0.38025 0.32831 0.0
C97 C 0.87301 0.34179 0.36478 0.0
C98 C 0.86508 0.3746 0.32229 0.0
C99 C 0.97198 0.2908 0.40718 0.0
N100 N 0.98642 0.31145 0.37624 0.0
C101 C 0.96707 0.26341 0.40042 0.0
C102 C 0.97704 0.25725 0.36165 0.0
C103 C 0.99172 0.27844 0.33022 0.0
C104 C 0.9962 0.30558 0.33808 0.0
C105 C 0.07651 0.36843 0.38298 0.0
C106 C 0.04406 0.38843 0.34377 0.0
C107 C 0.0477 0.35619 0.39239 0.0
N108 N 0.03183 0.36609 0.37259 0.0
C109 C 0.07279 0.40118 0.33351 0.0
C110 C 0.08907 0.39104 0.35326 0.0
C111 C 0.98214 0.39865 0.39624 0.0
C112 C 0.89381 0.31398 0.50433 0.0
C113 C 0.9099 0.36275 0.45562 0.0
C114 C 0.90005 0.36077 0.49923 0.0
C115 C 0.89201 0.33621 0.5237 0.0
N116 N 0.91164 0.34086 0.43688 0.0
C117 C 0.90372 0.31669 0.46062 0.0
Co118 Co 0.6168 0.97824 0.76828 0.0
Co119 Co 0.57403 0.91748 0.70945 0.0
O120 O 0.59918 0.93728 0.75978 0.0
C121 C 0.59121 0.95526 0.85655 0.0
O122 O 0.56868 0.93566 0.83596 0.0
C123 C 0.61533 0.89742 0.70493 0.0
O124 O 0.63553 0.9239 0.70851 0.0
O125 O 0.60292 0.94352 0.66619 0.0
O126 O 0.62167 0.98494 0.70244 0.0
H127 H 0.52666 0.911 0.56266 0.0
H128 H 0.63902 0.9466 0.81767 0.0
O129 O 0.61253 0.97324 0.83442 0.0
H130 H 0.71899 0.01658 0.72736 0.0
H131 H 0.68052 0.07072 0.84526 0.0
H132 H 0.61157 0.0239 0.72383 0.0
H133 H 0.67288 0.0145 0.72502 0.0
H134 H 0.65895 0.01942 0.8327 0.0
O135 O 0.58955 0.89119 0.70565 0.0
H136 H 0.55692 0.93548 0.62744 0.0
H137 H 0.53866 0.8568 0.68375 0.0
H138 H 0.63286 0.07531 0.73492 0.0
H139 H 0.68486 0.94809 0.82132 0.0
H140 H 0.66758 0.09905 0.79603 0.0
H141 H 0.72521 0.98322 0.77583 0.0
O142 O 0.57928 0.97584 0.76495 0.0
H143 H 0.53914 0.85245 0.84186 0.0
H144 H 0.51263 0.89697 0.72265 0.0
H145 H 0.47666 0.86571 0.77709 0.0
H146 H 0.48983 0.84315 0.83716 0.0
H147 H 0.57453 0.88413 0.78701 0.0
H148 H 0.50828 0.83145 0.61945 0.0
H149 H 0.50207 0.85859 0.55837 0.0
O150 O 0.55774 0.94312 0.71137 0.0
C151 C 0.61751 0.97044 0.66699 0.0
C152 C 0.52908 0.89892 0.58916 0.0
C153 C 0.51881 0.85429 0.62101 0.0
N154 N 0.54936 0.89759 0.65955 0.0
C155 C 0.54612 0.91267 0.62601 0.0
C156 C 0.53606 0.86876 0.65731 0.0
C157 C 0.51533 0.86952 0.58675 0.0
C158 C 0.65657 0.96211 0.7981 0.0
N159 N 0.65333 0.98051 0.77132 0.0
C160 C 0.68244 0.96278 0.80016 0.0
C161 C 0.70506 0.98248 0.77458 0.0
C162 C 0.70157 0.00118 0.74735 0.0
C163 C 0.67539 0.99986 0.74608 0.0
C164 C 0.66547 0.06064 0.81844 0.0
C165 C 0.62682 0.03411 0.75029 0.0
C166 C 0.65314 0.03158 0.81122 0.0
N167 N 0.63418 0.01871 0.77734 0.0
C168 C 0.63874 0.06321 0.75649 0.0
C169 C 0.6582 0.07652 0.79081 0.0
C170 C 0.55972 0.96298 0.73625 0.0
C171 C 0.53313 0.86209 0.81575 0.0
C172 C 0.51855 0.88734 0.74883 0.0
C173 C 0.49807 0.86959 0.77947 0.0
C174 C 0.50547 0.85692 0.81315 0.0
N175 N 0.54563 0.89229 0.75159 0.0
C176 C 0.55304 0.87994 0.7845 0.0
Co177 Co 0.64375 0.61157 0.10303 0.0
Co178 Co 0.66212 0.56761 0.04722 0.0
O179 O 0.6678 0.59504 0.09377 0.0
C180 C 0.62574 0.59697 0.19649 0.0
O181 O 0.59967 0.58563 0.18169 0.0
C182 C 0.71688 0.59493 -0.00104 0.0
O183 O 0.70234 0.58899 0.96169 0.0
O184 O 0.65727 0.59124 0.00071 0.0
O185 O 0.64105 0.61589 0.03803 0.0
H186 H 0.61438 0.507 0.91322 0.0
H187 H 0.69848 0.6354 0.15084 0.0
O188 O 0.64635 0.60745 0.16906 0.0
H189 H 0.70521 0.71389 0.06034 0.0
H190 H 0.61503 0.67589 0.17847 0.0
H191 H 0.59116 0.6039 0.06148 0.0
H192 H 0.66195 0.66707 0.05884 0.0
H193 H 0.64547 0.65517 0.16548 0.0
O194 O 0.70417 0.58869 0.03653 0.0
H195 H 0.6216 0.54112 0.97286 0.0
H196 H 0.69133 0.53542 0.0227 0.0
H197 H 0.56011 0.62402 0.07336 0.0
H198 H 0.74203 0.68197 0.15367 0.0
H199 H 0.57198 0.66029 0.13224 0.0
H200 H 0.74559 0.72161 0.10816 0.0
O201 O 0.60906 0.57355 0.10013 0.0
H202 H 0.70962 0.55192 0.17886 0.0
H203 H 0.63115 0.50633 0.07125 0.0
H204 H 0.63632 0.47752 0.12972 0.0
H205 H 0.6759 0.50031 0.18395 0.0
H206 H 0.70336 0.57998 0.12025 0.0
H207 H 0.68487 0.50125 0.96361 0.0
H208 H 0.64618 0.48685 0.90831 0.0
O209 O 0.62035 0.54632 0.05845 0.0
C210 C 0.64759 0.60822 0.00202 0.0
C211 C 0.6313 0.51309 0.93715 0.0
C212 C 0.67085 0.50985 0.96544 0.0
N213 N 0.65683 0.54024 0.00125 0.0
C214 C 0.63547 0.53238 0.971 0.0
C215 C 0.67438 0.52918 -0.00116 0.0
C216 C 0.64915 0.50179 0.93441 0.0
C217 C 0.69978 0.6526 0.1312 0.0
N218 N 0.6776 0.64856 0.10499 0.0
C219 C 0.72454 0.6789 0.13282 0.0
C220 C 0.72654 0.70112 0.10723 0.0
C221 C 0.70389 0.69679 0.08038 0.0
C222 C 0.67948 0.67021 0.07957 0.0
C223 C 0.60964 0.66012 0.15269 0.0
C224 C 0.59647 0.61968 0.08714 0.0
C225 C 0.6268 0.64833 0.14515 0.0
N226 N 0.62009 0.62834 0.11273 0.0
C227 C 0.57882 0.63101 0.09371 0.0
C228 C 0.58549 0.65135 0.12675 0.0
C229 C 0.60265 0.55043 0.08034 0.0
C230 C 0.69228 0.54174 0.15544 0.0
C231 C 0.64814 0.51645 0.0951 0.0
C232 C 0.65111 0.5 0.12795 0.0
C233 C 0.67334 0.51279 0.15831 0.0
N234 N 0.66681 0.54483 0.09245 0.0
C235 C 0.68866 0.55752 0.12212 0.0
Co236 Co 0.02134 0.6391 0.4003 0.0
Co237 Co 0.08953 0.65949 0.3681 0.0
O238 O 0.06208 0.66591 0.40032 0.0
C239 C 0.03402 0.64841 0.49716 0.0
O240 O 0.05526 0.64395 0.49078 0.0
C241 C 0.10338 0.71683 0.33685 0.0
O242 O 0.07628 0.70764 0.33175 0.0
O243 O 0.06717 0.65108 0.31155 0.0
O244 O 0.02242 0.62967 0.33662 0.0
H245 H 0.11963 0.60648 0.26586 0.0
H246 H 0.04256 0.69759 0.43267 0.0
O247 O 0.01891 0.64773 0.46437 0.0
H248 H 0.98101 0.68611 0.30461 0.0
H249 H 0.92006 0.60672 0.43994 0.0
H250 H 0.98443 0.5815 0.36402 0.0
H251 H 0.9876 0.64669 0.32897 0.0
H252 H 0.9714 0.64021 0.43821 0.0
O253 O 0.11174 0.70036 0.3513 0.0
H254 H 0.08545 0.61479 0.30734 0.0
H255 H 0.15246 0.69135 0.35986 0.0
H256 H 0.93325 0.5474 0.36473 0.0
H257 H 0.03632 0.73748 0.40972 0.0
H258 H 0.90066 0.55995 0.4029 0.0
H259 H 0.00544 0.73189 0.34515 0.0
O260 O 0.02735 0.6073 0.41791 0.0
H261 H 0.13425 0.71476 0.50785 0.0
H262 H 0.11808 0.63292 0.41664 0.0
H263 H 0.14415 0.64241 0.48761 0.0
H264 H 0.15242 0.68365 0.53375 0.0
H265 H 0.10796 0.70419 0.43693 0.0
H266 H 0.18731 0.68406 0.31852 0.0
H267 H 0.17096 0.64129 0.27129 0.0
O268 O 0.06854 0.61846 0.3846 0.0
C269 C 0.0405 0.6367 0.30539 0.0
C270 C 0.12702 0.62516 0.28642 0.0
C271 C 0.165 0.66872 0.31592 0.0
N272 N 0.11695 0.65344 0.33617 0.0
C273 C 0.10777 0.62994 0.31008 0.0
C274 C 0.14515 0.67279 0.33912 0.0
C275 C 0.15581 0.64471 0.28944 0.0
C276 C 0.02884 0.69491 0.40485 0.0
N277 N 0.01535 0.66981 0.38235 0.0
C278 C 0.02549 0.71761 0.39188 0.0
C279 C 0.0082 0.71447 0.35561 0.0
C280 C 0.9945 0.6888 0.33283 0.0
C281 C 0.99837 0.66657 0.34671 0.0
C282 C 0.93404 0.60101 0.42315 0.0
C283 C 0.97039 0.58716 0.3805 0.0
C284 C 0.96314 0.61987 0.42215 0.0
N285 N 0.9809 0.61287 0.40084 0.0
C286 C 0.94142 0.56774 0.38088 0.0
C287 C 0.92316 0.57478 0.40235 0.0
C288 C 0.04604 0.60124 0.40551 0.0
C289 C 0.13074 0.69669 0.4881 0.0
C290 C 0.12127 0.65063 0.4368 0.0
C291 C 0.13623 0.65605 0.47681 0.0
C292 C 0.1409 0.67921 0.50263 0.0
N293 N 0.11123 0.66776 0.42288 0.0
C294 C 0.11591 0.69063 0.44787 0.0
Co295 Co 0.36904 0.01883 0.75942 0.0
Co296 Co 0.41224 0.07878 0.69975 0.0
O297 O 0.38707 0.05978 0.75031 0.0
C298 C 0.39412 0.04306 0.84743 0.0
O299 O 0.41648 0.06287 0.82685 0.0
C300 C 0.37233 0.1008 0.69563 0.0
O301 O 0.35124 0.07486 0.70056 0.0
O302 O 0.38268 0.053 0.65734 0.0
O303 O 0.36421 0.01163 0.69352 0.0
H304 H 0.45772 0.08272 0.55215 0.0
H305 H 0.34704 0.05116 0.80743 0.0
O306 O 0.37319 0.02434 0.82545 0.0
H307 H 0.26702 0.98076 0.71759 0.0
H308 H 0.30478 0.92709 0.83775 0.0
H309 H 0.37399 0.97263 0.71631 0.0
H310 H 0.31301 0.98252 0.71603 0.0
H311 H 0.32661 0.97831 0.82415 0.0
O312 O 0.39772 0.1058 0.69559 0.0
H313 H 0.42777 0.05932 0.61769 0.0
H314 H 0.44893 0.1391 0.67307 0.0
H315 H 0.35245 0.92129 0.72844 0.0
H316 H 0.30134 0.04999 0.8103 0.0
H317 H 0.31759 0.8982 0.78957 0.0
H318 H 0.26096 0.01463 0.76505 0.0
O319 O 0.40641 0.02095 0.75706 0.0
H320 H 0.44943 0.14532 0.83028 0.0
H321 H 0.47342 0.09787 0.71237 0.0
H322 H 0.51013 0.12919 0.76584 0.0
H323 H 0.49824 0.15324 0.82524 0.0
H324 H 0.41326 0.1135 0.77648 0.0
H325 H 0.47904 0.16337 0.60803 0.0
H326 H 0.48364 0.13513 0.54702 0.0
O327 O 0.42773 0.05244 0.70198 0.0
C328 C 0.36793 0.02611 0.6582 0.0
C329 C 0.45601 0.09527 0.57862 0.0
C330 C 0.46794 0.14053 0.60995 0.0
N331 N 0.43679 0.09782 0.64937 0.0
C332 C 0.43914 0.08214 0.61589 0.0
C333 C 0.45083 0.12666 0.64668 0.0
C334 C 0.4705 0.12467 0.57573 0.0
C335 C 0.32948 0.03557 0.78796 0.0
N336 N 0.33265 0.01688 0.76175 0.0
C337 C 0.30369 0.03507 0.78959 0.0
C338 C 0.28106 0.01525 0.76414 0.0
C339 C 0.28446 0.99625 0.73748 0.0
C340 C 0.31056 0.9974 0.73664 0.0
C341 C 0.31988 0.93689 0.81092 0.0
C342 C 0.35867 0.9627 0.74274 0.0
C343 C 0.33235 0.9659 0.8031 0.0
N344 N 0.35138 0.97841 0.76921 0.0
C345 C 0.34661 0.93364 0.74955 0.0
C346 C 0.32708 0.9207 0.78388 0.0
C347 C 0.42588 0.03314 0.72808 0.0
C348 C 0.45489 0.13502 0.80447 0.0
C349 C 0.46802 0.1081 0.73831 0.0
C350 C 0.48893 0.1259 0.76839 0.0
C351 C 0.48226 0.13941 0.80168 0.0
N352 N 0.44122 0.10389 0.74128 0.0
C353 C 0.43453 0.11709 0.77379 0.0
Co354 Co 0.64541 0.65799 0.60637 0.0
Co355 Co 0.58523 0.66219 0.62689 0.0
O356 O 0.62101 0.67409 0.5962 0.0
C357 C 0.62987 0.64624 0.51181 0.0
O358 O 0.6041 0.63893 0.5244 0.0
C359 C 0.62088 0.72262 0.64967 0.0
O360 O 0.64133 0.71706 0.65631 0.0
O361 O 0.6019 0.6617 0.68571 0.0
O362 O 0.64103 0.65909 0.6722 0.0
H363 H 0.50553 0.60277 0.73183 0.0
H364 H 0.66534 0.70818 0.54808 0.0
O365 O 0.64983 0.65575 0.54036 0.0
H366 H 0.73405 0.73869 0.67165 0.0
H367 H 0.73051 0.64769 0.57704 0.0
H368 H 0.64359 0.61385 0.6661 0.0
H369 H 0.69405 0.68974 0.66825 0.0
H370 H 0.69932 0.66772 0.56566 0.0
O371 O 0.5966 0.70298 0.63707 0.0
H372 H 0.55063 0.61772 0.6929 0.0
H373 H 0.54386 0.68261 0.62609 0.0
H374 H 0.67432 0.59348 0.679 0.0
H375 H 0.70515 0.75728 0.54997 0.0
H376 H 0.71815 0.6104 0.63424 0.0
H377 H 0.73978 0.77282 0.61219 0.0
O378 O 0.61265 0.6189 0.6052 0.0
H379 H 0.58287 0.70357 0.47837 0.0
H380 H 0.53263 0.6216 0.57856 0.0
H381 H 0.51231 0.62101 0.50482 0.0
H382 H 0.53748 0.66223 0.45416 0.0
H383 H 0.60257 0.70314 0.55226 0.0
H384 H 0.49886 0.66858 0.66468 0.0
H385 H 0.47934 0.6283 0.71782 0.0
O386 O 0.57335 0.62134 0.61778 0.0
C387 C 0.62326 0.66004 0.69866 0.0
C388 C 0.51377 0.6203 0.70864 0.0
C389 C 0.51004 0.65726 0.671 0.0
N390 N 0.54973 0.65085 0.657 0.0
C391 C 0.53925 0.6288 0.6864 0.0
C392 C 0.53556 0.66515 0.64933 0.0
C393 C 0.4991 0.63465 0.7008 0.0
C394 C 0.6805 0.71473 0.57499 0.0
N395 N 0.67749 0.69611 0.60785 0.0
C396 C 0.70292 0.74258 0.576 0.0
C397 C 0.72233 0.7513 0.61096 0.0
C398 C 0.71911 0.73216 0.64434 0.0
C399 C 0.69641 0.70449 0.64228 0.0
C400 C 0.71154 0.64022 0.59687 0.0
C401 C 0.66278 0.62153 0.64685 0.0
C402 C 0.69379 0.65146 0.59054 0.0
N403 N 0.66989 0.64225 0.61567 0.0
C404 C 0.68002 0.60982 0.65414 0.0
C405 C 0.70459 0.6193 0.62898 0.0
C406 C 0.58598 0.6074 0.61033 0.0
C407 C 0.57167 0.68552 0.50019 0.0
C408 C 0.54373 0.63959 0.55668 0.0
C409 C 0.53209 0.63916 0.515 0.0
C410 C 0.54622 0.6623 0.4866 0.0
N411 N 0.5687 0.66244 0.56975 0.0
C412 C 0.58266 0.68521 0.54213 0.0
Co413 Co 0.99294 0.64126 0.90947 0.0
Co414 Co 0.92889 0.57945 0.92283 0.0
O415 O 0.95234 0.61755 0.89939 0.0
C416 C 0.98666 0.63302 0.81272 0.0
O417 O 0.96893 0.60637 0.82151 0.0
C418 C 0.90264 0.61093 0.96082 0.0
O419 O 0.92799 0.62999 0.97435 0.0
O420 O 0.94637 0.59133 0.98303 0.0
O421 O 0.98806 0.6315 0.97428 0.0
H422 H 0.90974 0.49215 0.00715 0.0
H423 H 0.96156 0.66497 0.86297 0.0
O424 O 0.99856 0.65084 0.84414 0.0
H425 H 0.00162 0.72363 0.99767 0.0
H426 H 0.08799 0.72842 0.88751 0.0
H427 H 0.03584 0.636 0.96281 0.0
H428 H 0.01054 0.68453 0.9814 0.0
H429 H 0.03666 0.69778 0.87592 0.0
O430 O 0.89908 0.5892 0.93945 0.0
H431 H 0.9394 0.54024 0.97714 0.0
H432 H 0.86717 0.53766 0.91931 0.0
H433 H 0.08706 0.66608 0.97575 0.0
H434 H 0.95226 0.70399 0.87777 0.0
H435 H 0.1135 0.71265 0.93791 0.0
H436 H 0.97231 0.73359 0.94559 0.0
O437 O 0.99965 0.60925 0.89811 0.0
H438 H 0.88428 0.5883 0.78172 0.0
H439 H 0.91723 0.53148 0.86229 0.0
H440 H 0.89698 0.51692 0.78686 0.0
H441 H 0.88031 0.54541 0.74608 0.0
H442 H 0.90484 0.6022 0.85708 0.0
H443 H 0.83667 0.48964 0.94918 0.0
H444 H 0.85797 0.46653 0.99326 0.0
O445 O 0.95811 0.56907 0.90683 0.0
C446 C 0.9696 0.61147 0.99831 0.0
C447 C 0.90022 0.50196 0.98788 0.0
C448 C 0.8592 0.50057 0.95539 0.0
N449 N 0.90506 0.54164 0.94619 0.0
C450 C 0.91692 0.52916 0.97067 0.0
C451 C 0.87657 0.52779 0.93867 0.0
C452 C 0.87117 0.48761 0.98011 0.0
C453 C 0.97056 0.67792 0.89234 0.0
N454 N 0.98672 0.67262 0.92113 0.0
C455 C 0.96513 0.69992 0.90064 0.0
C456 C 0.97636 0.71649 0.93873 0.0
C457 C 0.9928 0.71091 0.96797 0.0
C458 C 0.99774 0.68872 0.95862 0.0
C459 C 0.0767 0.70819 0.90423 0.0
C460 C 0.04715 0.65632 0.94646 0.0
C461 C 0.04766 0.69073 0.89771 0.0
N462 N 0.03325 0.66524 0.91891 0.0
C463 C 0.07618 0.67322 0.9538 0.0
C464 C 0.091 0.69934 0.93253 0.0
C465 C 0.98462 0.58235 0.89887 0.0
C466 C 0.89139 0.57566 0.79921 0.0
C467 C 0.91006 0.544 0.84473 0.0
C468 C 0.89857 0.53563 0.80206 0.0
C469 C 0.8892 0.55162 0.77921 0.0
N470 N 0.91206 0.56758 0.86415 0.0
C471 C 0.90294 0.58336 0.84196 0.0
Co472 Co 0.34431 0.99155 0.25846 0.0
Co473 Co 0.33686 0.92514 0.27231 0.0
O474 O 0.32744 0.95147 0.24311 0.0
C475 C 0.35808 0.99159 0.16332 0.0
O476 O 0.36176 0.97014 0.17212 0.0
C477 C 0.27525 0.90004 0.28668 0.0
O478 O 0.28015 0.92571 0.29484 0.0
O479 O 0.3345 0.9391 0.33275 0.0
O480 O 0.33971 0.98225 0.32319 0.0
H481 H 0.38924 0.89716 0.37951 0.0
H482 H 0.29683 0.9661 0.19416 0.0
O483 O 0.35005 0.00227 0.19377 0.0
H484 H 0.26275 0.99954 0.31953 0.0
H485 H 0.35972 0.08994 0.24123 0.0
H486 H 0.386 0.02912 0.32577 0.0
H487 H 0.31105 0.0067 0.32011 0.0
H488 H 0.33864 0.03937 0.22253 0.0
O489 O 0.29558 0.89597 0.27635 0.0
H490 H 0.37733 0.9302 0.34257 0.0
H491 H 0.3153 0.86329 0.2636 0.0
H492 H 0.4073 0.07947 0.34598 0.0
H493 H 0.24843 0.95868 0.19205 0.0
H494 H 0.39419 0.11025 0.30353 0.0
H495 H 0.23109 0.97538 0.25514 0.0
O496 O 0.38282 0.99649 0.25984 0.0
H497 H 0.30262 0.89018 0.11695 0.0
H498 H 0.37896 0.9144 0.22608 0.0
H499 H 0.38276 0.89842 0.15075 0.0
H500 H 0.34441 0.88619 0.09558 0.0
H501 H 0.2998 0.90649 0.19256 0.0
H502 H 0.32628 0.82946 0.30008 0.0
H503 H 0.3636 0.84639 0.35833 0.0
O504 O 0.37825 0.95361 0.26924 0.0
C505 C 0.33628 0.96177 0.34782 0.0
C506 C 0.373 0.88955 0.35409 0.0
C507 C 0.33764 0.85154 0.30954 0.0
N508 N 0.34581 0.89872 0.30074 0.0
C509 C 0.36623 0.90817 0.33296 0.0
C510 C 0.33146 0.87078 0.28909 0.0
C511 C 0.35858 0.86106 0.34221 0.0
C512 C 0.2895 0.97367 0.2215 0.0
N513 N 0.30676 0.98695 0.25706 0.0
C514 C 0.26205 0.96931 0.22022 0.0
C515 C 0.25232 0.97865 0.25567 0.0
C516 C 0.27007 0.99219 0.29182 0.0
C517 C 0.29738 0.99614 0.29199 0.0
C518 C 0.36553 0.07673 0.26006 0.0
C519 C 0.38 0.04233 0.30742 0.0
C520 C 0.3537 0.0481 0.24959 0.0
N521 N 0.36083 0.03125 0.27341 0.0
C522 C 0.39222 0.07085 0.31889 0.0
C523 C 0.38487 0.08811 0.29503 0.0
C524 C 0.39326 0.98036 0.26447 0.0
C525 C 0.31944 0.89538 0.14073 0.0
C526 C 0.3622 0.90916 0.20225 0.0
C527 C 0.36444 0.90006 0.15967 0.0
C528 C 0.34291 0.89318 0.12874 0.0
N529 N 0.33913 0.91129 0.21373 0.0
C530 C 0.31789 0.9045 0.18365 0.0
Co531 Co 0.38304 0.36699 0.6035 0.0
Co532 Co 0.42921 0.34212 0.62092 0.0
O533 O 0.39655 0.34054 0.59164 0.0
C534 C 0.3836 0.38772 0.51194 0.0
O535 O 0.39926 0.41363 0.52696 0.0
C536 C 0.38384 0.28333 0.64044 0.0
O537 O 0.36724 0.29325 0.65172 0.0
O538 O 0.41443 0.34435 0.68053 0.0
O539 O 0.39023 0.36707 0.66865 0.0
H540 H 0.50993 0.38001 0.7298 0.0
H541 H 0.34708 0.31418 0.55284 0.0
O542 O 0.37554 0.3667 0.53814 0.0
H543 H 0.29111 0.30887 0.68534 0.0
H544 H 0.3163 0.40469 0.58436 0.0
H545 H 0.40288 0.41856 0.65859 0.0
H546 H 0.33834 0.35034 0.67307 0.0
H547 H 0.3337 0.37145 0.57112 0.0
O548 O 0.4087 0.29995 0.62599 0.0
H549 H 0.46915 0.3782 0.69126 0.0
H550 H 0.45819 0.30826 0.61389 0.0
H551 H 0.38622 0.45226 0.67285 0.0
H552 H 0.29979 0.27248 0.56358 0.0
H553 H 0.34261 0.44542 0.6356 0.0
H554 H 0.2715 0.26959 0.6303 0.0
O555 O 0.42176 0.40001 0.59542 0.0
H556 H 0.42079 0.30231 0.46694 0.0
H557 H 0.48518 0.37345 0.57513 0.0
H558 H 0.50307 0.37105 0.50067 0.0
H559 H 0.47078 0.33519 0.44601 0.0
H560 H 0.40375 0.30569 0.54169 0.0
H561 H 0.49858 0.30906 0.65199 0.0
H562 H 0.52485 0.34523 0.71025 0.0
O563 O 0.4508 0.38421 0.6166 0.0
C564 C 0.40075 0.35615 0.69435 0.0
C565 C 0.49871 0.3642 0.70437 0.0
C566 C 0.49232 0.32436 0.66075 0.0
N567 N 0.46144 0.34328 0.65017 0.0
C568 C 0.47567 0.36314 0.68235 0.0
C569 C 0.46941 0.32396 0.63939 0.0
C570 C 0.50705 0.34466 0.69342 0.0
C571 C 0.33478 0.31325 0.58169 0.0
N572 N 0.3454 0.3348 0.61207 0.0
C573 C 0.30806 0.28951 0.58771 0.0
C574 C 0.29222 0.28788 0.62519 0.0
C575 C 0.30321 0.30991 0.65609 0.0
C576 C 0.33001 0.33331 0.649 0.0
C577 C 0.3353 0.40787 0.60083 0.0
C578 C 0.38385 0.4154 0.64235 0.0
C579 C 0.34525 0.38914 0.59346 0.0
N580 N 0.36922 0.39302 0.61419 0.0
C581 C 0.37453 0.43457 0.65052 0.0
C582 C 0.35008 0.43072 0.62959 0.0
C583 C 0.44625 0.40399 0.60468 0.0
C584 C 0.43507 0.31801 0.49047 0.0
C585 C 0.47096 0.35799 0.55142 0.0
C586 C 0.48123 0.35663 0.50936 0.0
C587 C 0.46311 0.33649 0.47873 0.0
N588 N 0.44345 0.33977 0.56271 0.0
C589 C 0.42555 0.31999 0.53285 0.0
Co590 Co 0.02047 0.37938 0.88832 0.0
Co591 Co 0.08607 0.42234 0.93627 0.0
O592 O 0.06066 0.39204 0.89589 0.0
C593 C 0.04403 0.39473 0.79738 0.0
O594 O 0.06609 0.41687 0.81453 0.0
C595 C 0.11184 0.39606 0.99091 0.0
O596 O 0.10543 0.40605 0.02614 0.0
O597 O 0.05867 0.40464 0.98678 0.0
O598 O 0.01603 0.3812 0.95373 0.0
H599 H 0.11018 0.49533 0.05602 0.0
H600 H 0.04426 0.34632 0.84774 0.0
O601 O 0.02395 0.37738 0.82225 0.0
H602 H 0.97008 0.28066 0.95097 0.0
H603 H 0.92406 0.32011 0.81993 0.0
H604 H 0.98098 0.39583 0.92763 0.0
H605 H 0.97988 0.32964 0.94235 0.0
H606 H 0.97448 0.33576 0.83142 0.0
O607 O 0.10435 0.39938 0.95209 0.0
H608 H 0.07869 0.45744 0.00424 0.0
H609 H 0.14846 0.45195 0.95392 0.0
H610 H 0.9306 0.38074 0.9174 0.0
H611 H 0.03501 0.29743 0.85505 0.0
H612 H 0.90177 0.3426 0.8632 0.0
H613 H 0.99769 0.26424 0.907 0.0
O614 O 0.02824 0.41888 0.88231 0.0
H615 H 0.14218 0.42072 0.80454 0.0
H616 H 0.11901 0.48056 0.89807 0.0
H617 H 0.15119 0.50171 0.83404 0.0
H618 H 0.16305 0.47172 0.78682 0.0
H619 H 0.10971 0.40036 0.86844 0.0
H620 H 0.18067 0.48971 0.0052 0.0
H621 H 0.16155 0.51167 0.05676 0.0
O622 O 0.06844 0.44567 0.92048 0.0
C623 C 0.03166 0.39029 0.98826 0.0
C624 C 0.11876 0.48594 0.03369 0.0
C625 C 0.15833 0.48281 0.00514 0.0
N626 N 0.11169 0.45248 0.97607 0.0
C627 C 0.10104 0.46449 0.00428 0.0
C628 C 0.13999 0.46146 0.97613 0.0
C629 C 0.14758 0.4951 0.03408 0.0
C630 C 0.02788 0.33193 0.8702 0.0
N631 N 0.01252 0.34076 0.89438 0.0
C632 C 0.02279 0.30431 0.8743 0.0
C633 C 0.00186 0.28571 0.90349 0.0
C634 C 0.98637 0.29491 0.92818 0.0
C635 C 0.99206 0.32269 0.92324 0.0
C636 C 0.93637 0.3367 0.84373 0.0
C637 C 0.96853 0.3791 0.90423 0.0
C638 C 0.96494 0.34568 0.85033 0.0
N639 N 0.98061 0.36656 0.88043 0.0
C640 C 0.94003 0.37069 0.89848 0.0
C641 C 0.92388 0.34932 0.86802 0.0
C642 C 0.04697 0.44244 0.89863 0.0
C643 C 0.13721 0.43402 0.82489 0.0
C644 C 0.12377 0.46732 0.87738 0.0
C645 C 0.14217 0.47944 0.84133 0.0
C646 C 0.14886 0.46262 0.81491 0.0
N647 N 0.11236 0.43924 0.88693 0.0
C648 C 0.11892 0.42264 0.86126 0.0
Co649 Co 0.63025 0.00796 0.26957 0.0
Co650 Co 0.65772 0.08038 0.28161 0.0
O651 O 0.6579 0.04753 0.25522 0.0
C652 C 0.62336 0.01101 0.17201 0.0
O653 O 0.62678 0.03634 0.17787 0.0
C654 C 0.71364 0.11384 0.32338 0.0
O655 O 0.69943 0.11232 0.3596 0.0
O656 O 0.65339 0.06419 0.343 0.0
O657 O 0.63436 0.01731 0.33405 0.0
H658 H 0.62159 0.12844 0.38328 0.0
H659 H 0.67916 0.02064 0.21178 0.0
O660 O 0.62511 0.99726 0.20491 0.0
H661 H 0.68847 0.9712 0.34263 0.0
H662 H 0.58567 0.90233 0.25471 0.0
H663 H 0.58234 0.98004 0.33288 0.0
H664 H 0.64846 0.9799 0.33663 0.0
H665 H 0.62009 0.95202 0.23682 0.0
O666 O 0.7003 0.10055 0.28822 0.0
H667 H 0.62278 0.08776 0.34995 0.0
H668 H 0.69189 0.14303 0.26772 0.0
H669 H 0.54771 0.93067 0.35212 0.0
H670 H 0.71941 0.01215 0.21621 0.0
H671 H 0.54923 0.8914 0.31288 0.0
H672 H 0.72425 0.98729 0.28204 0.0
O673 O 0.59779 0.01491 0.26526 0.0
H674 H 0.70089 0.10685 0.12876 0.0
H675 H 0.62793 0.10414 0.22879 0.0
H676 H 0.63193 0.1218 0.15193 0.0
H677 H 0.66865 0.12327 0.10132 0.0
H678 H 0.69592 0.08903 0.20576 0.0
H679 H 0.69151 0.1843 0.30027 0.0
H680 H 0.65617 0.17713 0.35849 0.0
O681 O 0.61587 0.06146 0.27571 0.0
C682 C 0.64369 0.03924 0.35849 0.0
C683 C 0.63708 0.13183 0.35792 0.0
C684 C 0.67631 0.16318 0.31131 0.0
N685 N 0.65734 0.11298 0.30689 0.0
C686 C 0.63784 0.10888 0.3389 0.0
C687 C 0.6764 0.13973 0.29297 0.0
C688 C 0.65649 0.15914 0.34399 0.0
C689 C 0.68106 0.00966 0.24038 0.0
N690 N 0.66144 1.00067 0.27378 0.0
C691 C 0.70392 0.00498 0.24277 0.0
C692 C 0.70664 0.99105 0.27974 0.0
C693 C 0.68658 0.98203 0.31376 0.0
C694 C 0.66402 0.98709 0.31024 0.0
C695 C 0.58482 0.91925 0.27209 0.0
C696 C 0.58325 0.96306 0.31585 0.0
C697 C 0.60421 0.94742 0.26203 0.0
N698 N 0.60334 0.9689 0.28401 0.0
C699 C 0.56353 0.93515 0.3268 0.0
C700 C 0.56439 0.91314 0.30474 0.0
C701 C 0.5951 0.03666 0.26927 0.0
C702 C 0.68486 0.10639 0.15053 0.0
C703 C 0.64387 0.10459 0.20696 0.0
C704 C 0.64611 0.11471 0.16349 0.0
C705 C 0.66673 0.11555 0.13513 0.0
N706 N 0.66174 0.09565 0.22184 0.0
C707 C 0.68204 0.09646 0.19424 0.0
H708 H 0.37902 0.4254 0.25549 0.0
H709 H 0.31809 0.33642 0.23559 0.0
H710 H 0.31865 0.32803 0.31619 0.0
H711 H 0.42037 0.41539 0.33522 0.0
H712 H 0.42769 0.44565 0.36889 0.0
H713 H 0.42075 0.44556 0.31015 0.0
H714 H 0.38009 0.45553 0.3274 0.0
H715 H 0.38707 0.45591 0.38625 0.0
H716 H 0.35214 0.43246 0.3648 0.0
H717 H 0.32822 0.32827 0.39701 0.0
H718 H 0.34499 0.33741 0.4747 0.0
H719 H 0.39987 0.42628 0.44332 0.0
C720 C 0.36539 0.40428 0.26823 0.0
C721 C 0.34847 0.38158 0.23927 0.0
C722 C 0.33125 0.35414 0.25713 0.0
C723 C 0.33138 0.34914 0.30288 0.0
C724 C 0.34877 0.3718 0.33035 0.0
C725 C 0.36534 0.39887 0.31391 0.0
C726 C 0.38312 0.41913 0.35056 0.0
C727 C 0.41486 0.43219 0.3406 0.0
C728 C 0.37511 0.44211 0.35767 0.0
C729 C 0.37425 0.39909 0.38993 0.0
C730 C 0.35434 0.37194 0.37744 0.0
C731 C 0.34361 0.34948 0.40737 0.0
C732 C 0.35339 0.3549 0.45141 0.0
C733 C 0.37373 0.38258 0.46516 0.0
C734 C 0.3842 0.40494 0.43392 0.0
H735 H 0.96428 0.34764 0.5641 0.0
H736 H 0.04479 0.36991 0.50305 0.0
H737 H 0.06773 0.38263 0.57718 0.0
H738 H 0.98953 0.4016 0.64476 0.0
H739 H 0.96593 0.37993 0.68841 0.0
H740 H 0.95565 0.37159 0.63087 0.0
H741 H 0.94733 0.32099 0.64254 0.0
H742 H 0.95733 0.32909 0.70028 0.0
H743 H 0.97535 0.31639 0.66507 0.0
H744 H 0.08258 0.39761 0.6571 0.0
H745 H 0.08697 0.4074 0.73843 0.0
H746 H 0.99614 0.37149 0.74736 0.0
C747 C 0.98667 0.35486 0.56649 0.0
C748 C 0.00283 0.35788 0.52804 0.0
C749 C 0.03203 0.36728 0.53228 0.0
C750 C 0.04525 0.3747 0.57415 0.0
C751 C 0.02883 0.37201 0.6114 0.0
C752 C 1.00005 0.36173 0.60807 0.0
C753 C 0.98713 0.36057 0.65322 0.0
C754 C 0.97379 0.37956 0.65435 0.0
C755 C 0.96551 0.32994 0.66603 0.0
C756 C 0.01321 0.37232 0.68233 0.0
C757 C 0.03712 0.37911 0.65759 0.0
C758 C 0.06395 0.39192 0.67695 0.0
C759 C 0.06628 0.39754 0.72297 0.0
C760 C 0.04187 0.38987 0.74891 0.0
C761 C 0.01508 0.37711 0.72827 0.0
H762 H 0.61981 0.00329 0.90596 0.0
H763 H 0.56379 0.91273 0.91756 0.0
H764 H 0.56637 0.9171 4e-05 0.0
H765 H 0.66431 0.01274 -0.00072 0.0
H766 H 0.66747 0.04587 0.01615 0.0
H767 H 0.66157 0.03543 0.95835 0.0
H768 H 0.61712 0.04085 0.95742 0.0
H769 H 0.6229 0.05139 0.01519 0.0
H770 H 0.58949 0.02197 0.99781 0.0
H771 H 0.57744 0.93134 0.08098 0.0
H772 H 0.59179 0.95466 0.1546 0.0
H773 H 0.63741 0.03647 0.08977 0.0
C774 C 0.60815 0.98436 0.9259 0.0
C775 C 0.59182 0.95759 0.90562 0.0
C776 C 0.57643 0.93338 0.93263 0.0
C777 C 0.57786 0.93568 0.97937 0.0
C778 C 0.59434 0.9624 0.99833 0.0
C779 C 0.60884 0.98637 0.97241 0.0
C780 C 0.62416 0.01272 0.0009 0.0
C781 C 0.65628 0.02756 0.99321 0.0
C782 C 0.61272 0.03292 0.99232 0.0
C783 C 0.61632 0.99985 0.04705 0.0
C784 C 0.59939 0.97076 0.04483 0.0
C785 C 0.59042 0.9541 0.0831 0.0
C786 C 0.59879 0.96753 0.12472 0.0
C787 C 0.61553 0.99735 0.12775 0.0
C788 C 0.62432 0.01367 0.08836 0.0
H789 H 0.58822 0.5905 0.2623 0.0
H790 H 0.67656 0.6172 0.23929 0.0
H791 H 0.68723 0.63211 0.31807 0.0
H792 H 0.60031 0.64749 0.33109 0.0
H793 H 0.57088 0.62706 0.36784 0.0
H794 H 0.56955 0.61607 0.31083 0.0
H795 H 0.56006 0.56693 0.33731 0.0
H796 H 0.56094 0.57762 0.39444 0.0
H797 H 0.58395 0.56476 0.37647 0.0
H798 H 0.68868 0.64665 0.3982 0.0
H799 H 0.68043 0.65786 0.47464 0.0
H800 H 0.5913 0.62248 0.44415 0.0
C801 C 0.60972 0.59893 0.27397 0.0
C802 C 0.63154 0.60253 0.24469 0.0
C803 C 0.65948 0.61413 0.26118 0.0
C804 C 0.66576 0.6227 0.30584 0.0
C805 C 0.64387 0.61955 0.33349 0.0
C806 C 0.61638 0.60776 0.31828 0.0
C807 C 0.59694 0.60782 0.35421 0.0
C808 C 0.58365 0.62568 0.34013 0.0
C809 C 0.57413 0.57748 0.36633 0.0
C810 C 0.61783 0.62171 0.39189 0.0
C811 C 0.64477 0.62825 0.37936 0.0
C812 C 0.66764 0.6415 0.40847 0.0
C813 C 0.66276 0.64788 0.45175 0.0
C814 C 0.63523 0.64107 0.46539 0.0
C815 C 0.6126 0.628 0.4348 0.0
H816 H 0.032 0.64166 0.76337 0.0
H817 H 0.95314 0.64225 0.75732 0.0
H818 H 0.95968 0.65162 0.67603 0.0
H819 H 0.07029 0.69581 0.67488 0.0
H820 H 0.08708 0.67706 0.65332 0.0
H821 H 0.07843 0.67482 0.7118 0.0
H822 H 0.04979 0.62019 0.70593 0.0
H823 H 0.05819 0.62225 0.64752 0.0
H824 H 0.02179 0.60382 0.66531 0.0
H825 H 0.97257 0.65674 0.59566 0.0
H826 H 0.98947 0.6552 0.52029 0.0
H827 H 0.05943 0.64925 0.57724 0.0
C828 C 0.01666 0.64466 0.74488 0.0
C829 C 0.99244 0.64202 0.76611 0.0
C830 C 0.97208 0.64487 0.74127 0.0
C831 C 0.97566 0.65018 0.69529 0.0
C832 C 0.99962 0.65233 0.67494 0.0
C833 C 0.01979 0.64964 0.69884 0.0
C834 C 0.04207 0.65005 0.66817 0.0
C835 C 0.0712 0.67598 0.67761 0.0
C836 C 0.04299 0.62243 0.67197 0.0
C837 C 0.03079 0.65248 0.6232 0.0
C838 C 0.00659 0.6543 0.62804 0.0
C839 C 0.99164 0.6556 0.59143 0.0
C840 C 0.00143 0.65464 0.54868 0.0
C841 C 0.02579 0.65204 0.54272 0.0
C842 C 0.04085 0.65137 0.58062 0.0
H843 H 0.35127 0.96537 0.08293 0.0
H844 H 0.38114 0.04752 0.14387 0.0
H845 H 0.39566 0.07022 0.06969 0.0
H846 H 0.40418 0.98639 0.99781 0.0
H847 H 0.37988 0.96361 0.9557 0.0
H848 H 0.37294 0.954 0.01373 0.0
H849 H 0.32384 0.95012 0.00676 0.0
H850 H 0.33057 0.95956 0.94866 0.0
H851 H 0.32151 0.9798 0.98574 0.0
H852 H 0.4092 0.08401 0.98889 0.0
H853 H 0.41438 0.08715 0.90646 0.0
H854 H 0.37131 0.9957 0.89842 0.0
C855 C 0.36091 0.98814 0.08052 0.0
C856 C 0.36534 0.0048 0.11888 0.0
C857 C 0.37757 0.03445 0.11466 0.0
C858 C 0.38601 0.04751 0.07279 0.0
C859 C 0.38153 0.03052 0.03551 0.0
C860 C 0.36875 0.00142 0.03889 0.0
C861 C 0.36485 0.98784 0.99348 0.0
C862 C 0.38146 0.97203 0.98999 0.0
C863 C 0.33332 0.96818 0.98306 0.0
C864 C 0.37759 0.01383 0.96408 0.0
C865 C 0.38759 0.0383 0.98893 0.0
C866 C 0.40117 0.06498 0.96903 0.0
C867 C 0.40415 0.0666 0.92238 0.0
C868 C 0.393 0.04168 0.89644 0.0
C869 C 0.37971 0.01505 0.91763 0.0
H870 H 0.15885 0.41991 0.04315 0.0
H871 H 0.1143 0.35432 0.94444 0.0
H872 H 0.15318 0.34334 0.94521 0.0
H873 H 0.22607 0.44564 0.99449 0.0
H874 H 0.24506 0.45437 0.04662 0.0
H875 H 0.21229 0.45457 0.04259 0.0
H876 H 0.19174 0.41922 0.10842 0.0
H877 H 0.22455 0.41906 0.11288 0.0
H878 H 0.19179 0.38628 0.10558 0.0
H879 H 0.19747 0.34024 0.95626 0.0
H880 H 0.24507 0.34747 0.97207 0.0
H881 H 0.26248 0.41827 0.05809 0.0
C882 C 0.15696 0.4027 0.02267 0.0
C883 C 0.13332 0.38736 0.99461 0.0
C884 C 0.13207 0.36589 0.96671 0.0
C885 C 0.15403 0.35957 0.96695 0.0
C886 C 0.1773 0.37536 0.99458 0.0
C887 C 0.17901 0.39667 0.02162 0.0
C888 C 0.20735 0.41222 0.04511 0.0
C889 C 0.22365 0.44355 0.03136 0.0
C890 C 0.20362 0.40899 0.09602 0.0
C891 C 0.22137 0.39636 0.02708 0.0
C892 C 0.20353 0.37489 -0.00145 0.0
C893 C 0.21164 0.35705 0.97841 0.0
C894 C 0.23869 0.36131 0.98759 0.0
C895 C 0.25751 0.38357 0.01595 0.0
C896 C 0.24866 0.40129 0.03584 0.0
H897 H 0.84899 0.26084 0.38609 0.0
H898 H 0.89517 0.24587 0.28206 0.0
H899 H 0.85303 0.19929 0.26658 0.0
H900 H 0.8111 0.18868 0.427 0.0
H901 H 0.77935 0.18986 0.43861 0.0
H902 H 0.81327 0.22174 0.44149 0.0
H903 H 0.7962 0.24585 0.38483 0.0
H904 H 0.76224 0.21408 0.38181 0.0
H905 H 0.78237 0.22925 0.33161 0.0
H906 H 0.804 0.15538 0.25916 0.0
H907 H 0.75387 0.11711 0.26431 0.0
H908 H 0.74176 0.16022 0.37637 0.0
C909 C 0.8503 0.24774 0.36014 0.0
C910 C 0.87533 0.25705 0.33513 0.0
C911 C 0.87623 0.23915 0.3017 0.0
C912 C 0.85238 0.21268 0.29261 0.0
C913 C 0.82793 0.20422 0.3177 0.0
C914 C 0.8269 0.22115 0.35113 0.0
C915 C 0.79824 0.20725 0.37349 0.0
C916 C 0.80065 0.20154 0.42308 0.0
C917 C 0.78393 0.22517 0.36756 0.0
C918 C 0.78314 0.18001 0.34712 0.0
C919 C 0.80045 0.17863 0.31483 0.0
C920 C 0.79041 0.15606 0.28481 0.0
C921 C 0.76195 0.13444 0.28792 0.0
C922 C 0.74406 0.1354 0.3212 0.0
C923 C 0.75503 0.15846 0.35122 0.0
H924 H 0.5786 0.84156 0.68622 0.0
H925 H 0.66752 0.90156 0.70853 0.0
H926 H 0.6787 0.86345 0.69622 0.0
H927 H 0.57709 0.78217 0.74041 0.0
H928 H 0.55285 0.75682 0.70074 0.0
H929 H 0.55198 0.78878 0.7117 0.0
H930 H 0.55875 0.80092 0.62741 0.0
H931 H 0.55972 0.76903 0.61619 0.0
H932 H 0.58854 0.80272 0.5985 0.0
H933 H 0.68001 0.81851 0.68179 0.0
H934 H 0.6715 0.7705 0.66617 0.0
H935 H 0.58173 0.74024 0.65205 0.0
C936 C 0.60045 0.84675 0.68871 0.0
C937 C 0.6222 0.87461 0.69845 0.0
C938 C 0.6505 0.88042 0.70111 0.0
C939 C 0.65705 0.85891 0.69416 0.0
C940 C 0.63509 0.83173 0.68443 0.0
C941 C 0.60736 0.82562 0.68166 0.0
C942 C 0.58767 0.79477 0.67039 0.0
C943 C 0.56613 0.77976 0.70806 0.0
C944 C 0.5728 0.79169 0.62545 0.0
C945 C 0.60864 0.78439 0.66735 0.0
C946 C 0.63587 0.80601 0.67563 0.0
C947 C 0.65878 0.80145 0.67521 0.0
C948 C 0.65371 0.77407 0.66634 0.0
C949 C 0.62595 0.75156 0.65784 0.0
C950 C 0.60321 0.75697 0.65818 0.0
H951 H 0.74409 0.58028 0.93738 0.0
H952 H 0.75771 0.62864 0.05877 0.0
H953 H 0.80784 0.64058 0.05964 0.0
H954 H 0.78447 0.54949 0.9711 0.0
H955 H 0.79813 0.54961 0.91629 0.0
H956 H 0.76445 0.54775 0.92219 0.0
H957 H 0.78188 0.59215 0.87235 0.0
H958 H 0.8156 0.59408 0.86611 0.0
H959 H 0.81394 0.62416 0.88692 0.0
H960 H 0.85629 0.64633 0.04777 0.0
H961 H 0.89811 0.64241 0.02784 0.0
H962 H 0.85148 0.58692 0.91774 0.0
C963 C 0.75784 0.59396 0.96351 0.0
C964 C 0.7473 0.6041 0.99752 0.0
C965 C 0.76556 0.62101 0.03214 0.0
C966 C 0.79402 0.6279 0.03284 0.0
C967 C 0.8037 0.61727 -0.00092 0.0
C968 C 0.78608 0.60045 0.96528 0.0
C969 C 0.80098 0.58969 0.93522 0.0
C970 C 0.78612 0.55721 0.93629 0.0
C971 C 0.80323 0.60069 0.88731 0.0
C972 C 0.8297 0.60296 0.95748 0.0
C973 C 0.831 0.61917 0.99381 0.0
C974 C 0.85547 0.63366 0.01943 0.0
C975 C 0.87913 0.63135 0.00782 0.0
C976 C 0.87799 0.61425 0.97143 0.0
C977 C 0.85292 0.59998 0.94595 0.0
H978 H 0.16006 0.73835 0.32535 0.0
H979 H 0.09538 0.76229 0.32428 0.0
H980 H 0.13219 0.81199 0.30947 0.0
H981 H 0.21333 0.79936 0.38024 0.0
H982 H 0.24187 0.80098 0.34779 0.0
H983 H 0.21032 0.7675 0.35715 0.0
H984 H 0.20394 0.75895 0.27184 0.0
H985 H 0.2355 0.79241 0.26217 0.0
H986 H 0.20264 0.78498 0.23652 0.0
H987 H 0.17707 0.85974 0.29866 0.0
H988 H 0.22535 0.90063 0.28924 0.0
H989 H 0.25962 0.8442 0.29491 0.0
C990 C 0.15352 0.75397 0.32193 0.0
C991 C 0.12482 0.74645 0.32616 0.0
C992 C 0.11723 0.76756 0.32106 0.0
C993 C 0.138 0.79583 0.31274 0.0
C994 C 0.16616 0.80251 0.30915 0.0
C995 C 0.17383 0.78206 0.31323 0.0
C996 C 0.20542 0.7945 0.3081 0.0
C997 C 0.2185 0.79034 0.35087 0.0
C998 C 0.21227 0.78196 0.26722 0.0
C999 C 0.2145 0.82528 0.30093 0.0
C1000 C 0.19163 0.82958 0.3018 0.0
C1001 C 0.19507 0.85654 0.29754 0.0
C1002 C 0.22257 0.87964 0.29232 0.0
C1003 C 0.24623 0.8756 0.29105 0.0
C1004 C 0.24196 0.84798 0.29518 0.0
H1005 H 0.41057 0.15424 0.66891 0.0
H1006 H 0.32244 0.1014 0.70589 0.0
H1007 H 0.31483 0.14203 0.69395 0.0
H1008 H 0.42183 0.21752 0.72091 0.0
H1009 H 0.44467 0.24009 0.67727 0.0
H1010 H 0.4426 0.20675 0.68844 0.0
H1011 H 0.42927 0.19202 0.60582 0.0
H1012 H 0.43121 0.22531 0.59442 0.0
H1013 H 0.39933 0.19265 0.58182 0.0
H1014 H 0.31793 0.18992 0.67996 0.0
H1015 H 0.33117 0.23959 0.66408 0.0
H1016 H 0.4168 0.259 0.63445 0.0
C1017 C 0.38961 0.15108 0.67462 0.0
C1018 C 0.36711 0.12464 0.68853 0.0
C1019 C 0.34 0.12147 0.69521 0.0
C1020 C 0.3355 0.14442 0.68852 0.0
C1021 C 0.35827 0.17024 0.67481 0.0
C1022 C 0.38475 0.17353 0.66778 0.0
C1023 C 0.40583 0.20322 0.6531 0.0
C1024 C 0.43016 0.21775 0.68696 0.0
C1025 C 0.41706 0.20329 0.60599 0.0
C1026 C 0.38723 0.21636 0.6533 0.0
C1027 C 0.35986 0.19716 0.66594 0.0
C1028 C 0.33927 0.20504 0.66974 0.0
C1029 C 0.34696 0.23327 0.66068 0.0
C1030 C 0.37497 0.25319 0.64778 0.0
C1031 C 0.39513 0.24435 0.64378 0.0
H1032 H 0.38616 0.39039 0.73999 0.0
H1033 H 0.4019 0.32054 0.75736 0.0
H1034 H 0.38817 0.31706 0.83662 0.0
H1035 H 0.41349 0.42264 0.84775 0.0
H1036 H 0.38749 0.4334 0.85505 0.0
H1037 H 0.39863 0.43036 0.79975 0.0
H1038 H 0.3465 0.39597 0.77796 0.0
H1039 H 0.33518 0.39862 0.83333 0.0
H1040 H 0.32582 0.36448 0.81062 0.0
H1041 H 0.37082 0.31972 0.91234 0.0
H1042 H 0.35624 0.33162 0.98272 0.0
H1043 H 0.35346 0.40116 0.91713 0.0
C1044 C 0.38688 0.37445 0.76051 0.0
C1045 C 0.39504 0.35567 0.74254 0.0
C1046 C 0.39588 0.33525 0.77052 0.0
C1047 C 0.38794 0.33298 0.81545 0.0
C1048 C 0.37952 0.35149 0.83185 0.0
C1049 C 0.37936 0.37212 0.80549 0.0
C1050 C 0.37009 0.38979 0.83169 0.0
C1051 C 0.39384 0.42089 0.83368 0.0
C1052 C 0.34277 0.38704 0.81223 0.0
C1053 C 0.36492 0.37576 0.87694 0.0
C1054 C 0.37022 0.35354 0.87606 0.0
C1055 C 0.36679 0.33718 0.91357 0.0
C1056 C 0.3584 0.34413 0.95343 0.0
C1057 C 0.35381 0.36749 0.95571 0.0
C1058 C 0.35675 0.3832 0.91661 0.0
H1059 H 0.01413 0.36925 0.25261 0.0
H1060 H 0.92534 0.34257 0.23427 0.0
H1061 H 0.93324 0.34997 0.15307 0.0
H1062 H 0.0407 0.42444 0.17042 0.0
H1063 H 0.06856 0.41825 0.1521 0.0
H1064 H 0.05588 0.41026 0.20871 0.0
H1065 H 0.04525 0.35878 0.19863 0.0
H1066 H 0.05795 0.36658 0.14203 0.0
H1067 H 0.02287 0.33774 0.15333 0.0
H1068 H 0.95041 0.35936 0.0745 0.0
H1069 H 0.97573 0.37137 0.00307 0.0
H1070 H 0.05412 0.39394 0.0724 0.0
C1071 C 0.99626 0.36484 0.23162 0.0
C1072 C 0.96904 0.35521 0.24987 0.0
C1073 C 0.94635 0.34995 0.22112 0.0
C1074 C 0.95063 0.35407 0.17497 0.0
C1075 C 0.97774 0.36369 0.15823 0.0
C1076 C 1.0002 0.36914 0.18563 0.0
C1077 C 0.02733 0.3798 0.1592 0.0
C1078 C 0.04941 0.40998 0.17346 0.0
C1079 C 0.03903 0.35951 0.16356 0.0
C1080 C 0.01655 0.37933 0.11248 0.0
C1081 C 0.98786 0.36984 0.1128 0.0
C1082 C 0.97289 0.36693 0.07382 0.0
C1083 C 0.98756 0.37381 0.03333 0.0
C1084 C 0.01704 0.38372 0.03195 0.0
C1085 C 0.03169 0.38663 0.07226 0.0
H1086 H 0.60759 0.94856 0.58189 0.0
H1087 H 0.65013 0.02775 0.65529 0.0
H1088 H 0.66226 0.05408 0.58446 0.0
H1089 H 0.65681 0.97157 0.48736 0.0
H1090 H 0.62899 0.95209 0.4475 0.0
H1091 H 0.62545 0.93948 0.504 0.0
H1092 H 0.57797 0.939 0.51125 0.0
H1093 H 0.58149 0.95193 0.45501 0.0
H1094 H 0.57695 0.97093 0.50044 0.0
H1095 H 0.66655 0.07199 0.50572 0.0
H1096 H 0.66559 0.07978 0.4247 0.0
H1097 H 0.62096 0.9889 0.40345 0.0
C1098 C 0.61991 0.97141 0.58316 0.0
C1099 C 0.62788 0.98599 0.62432 0.0
C1100 C 0.64376 0.01599 0.62429 0.0
C1101 C 0.65074 0.0312 0.58419 0.0
C1102 C 0.64187 0.01618 0.54433 0.0
C1103 C 0.62709 0.98695 0.54348 0.0
C1104 C 0.61931 0.97591 0.49626 0.0
C1105 C 0.6335 0.95876 0.48301 0.0
C1106 C 0.58701 0.95842 0.49042 0.0
C1107 C 0.63176 0.00349 0.47082 0.0
C1108 C 0.64465 0.02649 0.49905 0.0
C1109 C 0.65683 0.05413 0.48317 0.0
C1110 C 0.65616 0.05836 0.43707 0.0
C1111 C 0.64354 0.03505 0.4074 0.0
C1112 C 0.63107 0.0073 0.42491 0.0
H1113 H 0.65211 0.63723 0.73966 0.0
H1114 H 0.60195 0.677 0.76687 0.0
H1115 H 0.60496 0.66992 0.84759 0.0
H1116 H 0.61915 0.58343 0.82044 0.0
H1117 H 0.65079 0.58297 0.8359 0.0
H1118 H 0.64731 0.59364 0.78052 0.0
H1119 H 0.69394 0.64115 0.7907 0.0
H1120 H 0.69772 0.6306 0.84607 0.0
H1121 H 0.69786 0.66335 0.83785 0.0
H1122 H 0.61169 0.65712 0.92405 0.0
H1123 H 0.62036 0.63828 0.99262 0.0
H1124 H 0.66429 0.60427 0.91623 0.0
C1125 C 0.64214 0.64488 0.76258 0.0
C1126 C 0.62694 0.65785 0.74701 0.0
C1127 C 0.61375 0.66708 0.77809 0.0
C1128 C 0.6154 0.6632 0.82395 0.0
C1129 C 0.63009 0.64986 0.83807 0.0
C1130 C 0.64318 0.64075 0.80841 0.0
C1131 C 0.65602 0.62538 0.83225 0.0
C1132 C 0.6425 0.59453 0.81633 0.0
C1133 C 0.68831 0.64107 0.82637 0.0
C1134 C 0.64789 0.62708 0.88 0.0
C1135 C 0.63322 0.64157 0.88245 0.0
C1136 C 0.62322 0.64581 0.92263 0.0
C1137 C 0.62829 0.63493 0.96147 0.0
C1138 C 0.64305 0.61969 0.96002 0.0
C1139 C 0.65296 0.61577 0.91856 0.0
H1140 H 0.05962 0.66477 0.22497 0.0
H1141 H 0.99459 0.58675 0.28457 0.0
H1142 H 0.97013 0.57183 0.21241 0.0
H1143 H 0.01379 0.67628 0.15681 0.0
H1144 H 0.03708 0.6898 0.10934 0.0
H1145 H 0.05154 0.69375 0.16462 0.0
H1146 H 0.07877 0.66855 0.13991 0.0
H1147 H 0.06469 0.66484 0.08434 0.0
H1148 H 0.05974 0.6341 0.11433 0.0
H1149 H 0.95053 0.56667 0.13678 0.0
H1150 H 0.93843 0.56987 0.05883 0.0
H1151 H 0.01575 0.65108 0.0461 0.0
C1152 C 0.04063 0.64428 0.22235 0.0
C1153 C 0.02894 0.62689 0.26028 0.0
C1154 C 0.00376 0.60046 0.25597 0.0
C1155 C 0.98972 0.59175 0.21512 0.0
C1156 C 1.00114 0.6097 0.17871 0.0
C1157 C 0.02614 0.63525 0.18155 0.0
C1158 C 0.0329 0.65087 0.13735 0.0
C1159 C 0.03388 0.67936 0.14235 0.0
C1160 C 0.06068 0.65481 0.11783 0.0
C1161 C 0.00763 0.6302 0.10975 0.0
C1162 C 0.98964 0.60664 0.1344 0.0
C1163 C 0.96454 0.5849 0.11687 0.0
C1164 C 0.95778 0.58702 0.07256 0.0
C1165 C 0.97608 0.61071 0.04612 0.0
C1166 C 0.00127 0.63266 0.06528 0.0
H1167 H 0.35382 0.0109 0.39427 0.0
H1168 H 0.31701 0.92032 0.41197 0.0
H1169 H 0.31743 0.92664 0.49375 0.0
H1170 H 0.40132 0.03045 0.48445 0.0
H1171 H 0.39853 0.06084 0.49988 0.0
H1172 H 0.39275 0.04884 0.44288 0.0
H1173 H 0.34341 0.04471 0.44412 0.0
H1174 H 0.349 0.05671 0.5012 0.0
H1175 H 0.31824 0.02358 0.48652 0.0
H1176 H 0.32384 0.94321 0.57354 0.0
H1177 H 0.33825 0.9687 0.64519 0.0
H1178 H 0.37247 0.04864 0.57454 0.0
C1179 C 0.34545 0.99228 0.41518 0.0
C1180 C 0.33518 0.96506 0.39666 0.0
C1181 C 0.32491 0.94137 0.4254 0.0
C1182 C 0.32497 0.94474 0.47185 0.0
C1183 C 0.33551 0.97193 0.48894 0.0
C1184 C 0.34572 0.9953 0.46146 0.0
C1185 C 0.35778 0.02243 0.48813 0.0
C1186 C 0.38947 0.04177 0.47824 0.0
C1187 C 0.3411 0.03775 0.47948 0.0
C1188 C 0.35301 0.01071 0.53503 0.0
C1189 C 0.33985 0.98154 0.53481 0.0
C1190 C 0.33403 0.96604 0.57413 0.0
C1191 C 0.34231 0.98077 0.6147 0.0
C1192 C 0.35653 0.01074 0.61565 0.0
C1193 C 0.3615 0.02575 0.57515 0.0
H1194 H 0.43395 0.47741 0.08563 0.0
H1195 H 0.43133 0.39688 0.09668 0.0
H1196 H 0.48335 0.42164 0.09662 0.0
H1197 H 0.49344 0.51138 0.01376 0.0
H1198 H 0.50842 0.54543 0.04054 0.0
H1199 H 0.47081 0.52155 0.04214 0.0
H1200 H 0.4717 0.52416 0.1285 0.0
H1201 H 0.50931 0.54817 0.12712 0.0
H1202 H 0.4951 0.51601 0.15916 0.0
H1203 H 0.53533 0.45449 0.08928 0.0
H1204 H 0.58437 0.49394 0.08362 0.0
H1205 H 0.55409 0.55371 0.0834 0.0
C1206 C 0.44432 0.465 0.08837 0.0
C1207 C 0.42848 0.43515 0.09098 0.0
C1208 C 0.44291 0.41973 0.09477 0.0
C1209 C 0.4725 0.4336 0.09461 0.0
C1210 C 0.48744 0.46295 0.09146 0.0
C1211 C 0.47393 0.47856 0.0892 0.0
C1212 C 0.49515 0.50997 0.0868 0.0
C1213 C 0.49175 0.52283 0.04321 0.0
C1214 C 0.49266 0.52549 0.12785 0.0
C1215 C 0.52266 0.50948 0.08732 0.0
C1216 C 0.51765 0.4821 0.08956 0.0
C1217 C 0.53956 0.47606 0.08813 0.0
C1218 C 0.56736 0.49861 0.08466 0.0
C1219 C 0.57311 0.5269 0.08338 0.0
C1220 C 0.55038 0.53233 0.08493 0.0
H1221 H 0.99515 0.55122 0.41066 0.0
H1222 H 0.08593 0.5857 0.41615 0.0
H1223 H 0.07878 0.53771 0.42073 0.0
H1224 H 0.97473 0.48897 0.4833 0.0
H1225 H 0.94453 0.46613 0.44941 0.0
H1226 H 0.95636 0.50336 0.45284 0.0
H1227 H 0.96049 0.50707 0.36676 0.0
H1228 H 0.94888 0.46995 0.36301 0.0
H1229 H 0.98202 0.49554 0.33828 0.0
H1230 H 0.06266 0.48669 0.41889 0.0
H1231 H 0.03854 0.4352 0.40908 0.0
H1232 H 0.95775 0.43247 0.40084 0.0
C1233 C 0.01347 0.54868 0.41389 0.0
C1234 C 0.04115 0.57238 0.41353 0.0
C1235 C 0.06457 0.56805 0.41668 0.0
C1236 C 0.06072 0.54079 0.41937 0.0
C1237 C 0.03328 0.51792 0.41845 0.0
C1238 C 0.01 0.52145 0.41573 0.0
C1239 C 0.98297 0.49311 0.41128 0.0
C1240 C 0.9635 0.48757 0.45162 0.0
C1241 C 0.9677 0.49132 0.36721 0.0
C1242 C 0.99486 0.47325 0.41115 0.0
C1243 C 0.02389 0.4881 0.41594 0.0
C1244 C 0.03989 0.47475 0.41548 0.0
C1245 C 0.02592 0.44542 0.40977 0.0
C1246 C 0.99615 0.42959 0.40418 0.0
C1247 C 0.98047 0.44383 0.40521 0.0
H1248 H 0.53155 0.97773 0.79715 0.0
H1249 H 0.54365 0.97154 0.6554 0.0
H1250 H 0.51138 0.98958 0.63846 0.0
H1251 H 0.45667 0.95367 0.78843 0.0
H1252 H 0.45702 0.97677 0.8317 0.0
H1253 H 0.48209 0.96451 0.83313 0.0
H1254 H 0.52332 0.01632 0.83629 0.0
H1255 H 0.49838 0.02874 0.8348 0.0
H1256 H 0.52612 0.04089 0.79369 0.0
H1257 H 0.47996 0.01005 0.63649 0.0
H1258 H 0.44667 0.02739 0.64928 0.0
H1259 H 0.45079 0.01658 0.79202 0.0
C1260 C 0.52737 0.98031 0.76265 0.0
C1261 C 0.54003 0.97339 0.72748 0.0
C1262 C 0.53394 0.9766 0.6827 0.0
C1263 C 0.51579 0.98695 0.67277 0.0
C1264 C 0.50352 0.99351 0.70804 0.0
C1265 C 0.50864 0.98997 0.75208 0.0
C1266 C 0.49152 0.99744 0.78338 0.0
C1267 C 0.47058 0.97155 0.81077 0.0
C1268 C 0.511 0.02233 0.81383 0.0
C1269 C 0.47625 0.00594 0.74999 0.0
C1270 C 0.48387 0.00386 0.70678 0.0
C1271 C 0.47358 0.01154 0.67011 0.0
C1272 C 0.45481 0.02146 0.67771 0.0
C1273 C 0.44613 0.02313 0.72155 0.0
C1274 C 0.45689 0.01516 0.75815 0.0
H1275 H 0.52779 0.5734 0.60627 0.0
H1276 H 0.60583 0.57043 0.60806 0.0
H1277 H 0.57845 0.51859 0.60467 0.0
H1278 H 0.48725 0.51236 0.67436 0.0
H1279 H 0.45493 0.5 0.64326 0.0
H1280 H 0.48054 0.5372 0.64503 0.0
H1281 H 0.4824 0.53865 0.55863 0.0
H1282 H 0.4568 0.50143 0.55662 0.0
H1283 H 0.49037 0.5148 0.52888 0.0
H1284 H 0.54336 0.46749 0.60474 0.0
H1285 H 0.5022 0.41952 0.60558 0.0
H1286 H 0.4462 0.45448 0.60042 0.0
C1287 C 0.53913 0.56187 0.6058 0.0
C1288 C 0.56904 0.57614 0.60743 0.0
C1289 C 0.58299 0.56015 0.60669 0.0
C1290 C 0.56763 0.53062 0.6048 0.0
C1291 C 0.53828 0.51726 0.6033 0.0
C1292 C 0.5241 0.53225 0.6035 0.0
C1293 C 0.49234 0.51243 0.60174 0.0
C1294 C 0.47792 0.5157 0.6436 0.0
C1295 C 0.47974 0.51711 0.55891 0.0
C1296 C 0.49102 0.48403 0.60105 0.0
C1297 C 0.51782 0.48743 0.60207 0.0
C1298 C 0.52224 0.4645 0.60343 0.0
C1299 C 0.49864 0.43727 0.60386 0.0
C1300 C 0.47085 0.43307 0.60251 0.0
C1301 C 0.46711 0.45689 0.60084 0.0
H1302 H 0.96061 0.52454 0.89034 0.0
H1303 H 0.0416 0.60264 0.89324 0.0
H1304 H 0.06611 0.57529 0.88909 0.0
H1305 H 0.98005 0.48469 0.95826 0.0
H1306 H 0.96034 0.45214 0.92759 0.0
H1307 H 0.94886 0.47779 0.92759 0.0
H1308 H 0.95036 0.4791 0.84115 0.0
H1309 H 0.96176 0.45334 0.84094 0.0
H1310 H 0.98248 0.48666 0.81272 0.0
H1311 H 0.08196 0.53979 0.89277 0.0
H1312 H 0.08812 0.49822 0.89821 0.0
H1313 H 0.99728 0.44297 0.88838 0.0
C1314 C 0.98349 0.53595 0.88942 0.0
C1315 C 0.9991 0.56582 0.89212 0.0
C1316 C 0.02906 0.57983 0.89105 0.0
C1317 C 0.04325 0.56447 0.88874 0.0
C1318 C 0.02725 0.53512 0.88693 0.0
C1319 C 0.99804 0.52096 0.88664 0.0
C1320 C 0.98597 0.48921 0.88569 0.0
C1321 C 0.96773 0.47514 0.92726 0.0
C1322 C 0.96915 0.47632 0.84255 0.0
C1323 C 0.01297 0.48779 0.88647 0.0
C1324 C 0.03651 0.51453 0.88731 0.0
C1325 C 0.06373 0.51873 0.89126 0.0
C1326 C 0.06702 0.49495 0.89446 0.0
C1327 C 0.04326 0.46731 0.89311 0.0
C1328 C 0.01591 0.4638 0.88862 0.0
H1329 H 0.54338 0.9871 0.26727 0.0
H1330 H 0.58169 0.0786 0.26656 0.0
H1331 H 0.53454 0.07372 0.26404 0.0
H1332 H 0.48508 0.97212 0.193 0.0
H1333 H 0.4599 0.94109 0.22314 0.0
H1334 H 0.49682 0.95145 0.22352 0.0
H1335 H 0.49685 0.9524 0.30993 0.0
H1336 H 0.45995 0.94208 0.30985 0.0
H1337 H 0.48519 0.97377 0.33855 0.0
H1338 H 0.48384 0.05958 0.26221 0.0
H1339 H 0.43203 0.03687 0.26241 0.0
H1340 H 0.42552 0.95425 0.26604 0.0
C1341 C 0.54188 0.00612 0.26624 0.0
C1342 C 0.56642 0.03326 0.26675 0.0
C1343 C 0.56339 0.05756 0.26592 0.0
C1344 C 0.53663 0.05504 0.26451 0.0
C1345 C 0.51298 0.02809 0.2642 0.0
C1346 C 0.51522 0.00402 0.26515 0.0
C1347 C 0.48621 0.97761 0.26563 0.0
C1348 C 0.48175 0.9595 0.22383 0.0
C1349 C 0.4818 0.96046 0.30855 0.0
C1350 C 0.46742 0.99071 0.26483 0.0
C1351 C 0.48339 0.01985 0.26384 0.0
C1352 C 0.47105 0.03676 0.26294 0.0
C1353 C 0.44152 0.02359 0.26304 0.0
C1354 C 0.42452 0.9937 0.2642 0.0
C1355 C 0.4378 0.97711 0.26515 0.0
loop_
_geom_bond_atom_site_label_1
_geom_bond_atom_site_label_2
_geom_bond_distance
_geom_bond_site_symmetry_2
_ccdc_geom_bond_type
Co0 O2 2.143 . S
Co0 O8 2.074 . S
Co0 O11 2.093 . S
Co0 O24 2.097 . S
Co0 N41 2.151 . S
Co0 N49 2.214 . S
Co1 O2 2.160 . S
Co1 O7 2.058 1_554 S
Co1 O17 2.057 . S
Co1 O32 2.037 . S
Co1 N36 2.145 1_554 S
Co1 N57 2.257 . S
O2 Co0 2.143 . S
O2 Co1 2.160 . S
C3 O4 1.278 . S
C3 O11 1.224 . S
O4 C3 1.278 . S
C5 O6 1.245 . S
C5 O17 1.232 . S
O6 C5 1.245 . S
O7 Co1 2.058 1_556 S
O7 C33 1.269 . S
O8 Co0 2.074 . S
O8 C33 1.257 1_554 S
H9 C34 0.930 . S
H10 C40 0.930 . S
O11 Co0 2.093 . S
O11 C3 1.224 . S
H12 C44 0.929 . S
H13 C46 0.930 . S
H14 C47 0.930 . S
H15 C45 0.929 . S
H16 C48 0.928 . S
O17 Co1 2.057 . S
O17 C5 1.232 . S
H18 C37 0.929 . S
H19 C38 0.929 . S
H20 C50 0.931 . S
H21 C42 0.929 . S
H22 C51 0.930 . S
H23 C43 0.931 . S
O24 Co0 2.097 . S
O24 C52 1.214 . S
H25 C53 0.929 . S
H26 C54 0.929 . S
H27 C55 0.930 . S
H28 C56 0.929 . S
H29 C58 0.930 . S
H30 C35 0.930 . S
H31 C39 0.930 . S
O32 Co1 2.037 . S
O32 C52 1.234 . S
C33 O7 1.269 . S
C33 O8 1.257 1_556 S
C34 H9 0.930 . S
C34 C37 1.388 . S
C34 C39 1.418 . S
C35 H30 0.930 . S
C35 C38 1.404 . S
C35 C39 1.353 . S
N36 Co1 2.145 1_556 S
N36 C37 1.397 . S
N36 C38 1.334 . S
C37 H18 0.929 . S
C37 C34 1.388 . S
C37 N36 1.397 . S
C38 H19 0.929 . S
C38 C35 1.404 . S
C38 N36 1.334 . S
C39 H31 0.930 . S
C39 C34 1.418 . S
C39 C35 1.353 . S
C40 H10 0.930 . S
C40 N41 1.330 . S
C40 C42 1.446 . S
N41 Co0 2.151 . S
N41 C40 1.330 . S
N41 C45 1.418 . S
C42 H21 0.929 . S
C42 C40 1.446 . S
C42 C43 1.332 . S
C43 H23 0.931 . S
C43 C42 1.332 . S
C43 C44 1.267 . S
C44 H12 0.929 . S
C44 C43 1.267 . S
C44 C45 1.251 . S
C45 H15 0.929 . S
C45 N41 1.418 . S
C45 C44 1.251 . S
C46 H13 0.930 . S
C46 C48 1.406 . S
C46 C51 1.261 . S
C47 H14 0.930 . S
C47 N49 1.325 . S
C47 C50 1.357 . S
C48 H16 0.928 . S
C48 C46 1.406 . S
C48 N49 1.261 . S
N49 Co0 2.214 . S
N49 C47 1.325 . S
N49 C48 1.261 . S
C50 H20 0.931 . S
C50 C47 1.357 . S
C50 C51 1.312 . S
C51 H22 0.930 . S
C51 C46 1.261 . S
C51 C50 1.312 . S
C52 O24 1.214 . S
C52 O32 1.234 . S
C53 H25 0.929 . S
C53 C56 1.391 . S
C53 C58 1.391 . S
C54 H26 0.929 . S
C54 C55 1.390 . S
C54 N57 1.391 . S
C55 H27 0.930 . S
C55 C54 1.390 . S
C55 C56 1.392 . S
C56 H28 0.929 . S
C56 C53 1.391 . S
C56 C55 1.392 . S
N57 Co1 2.257 . S
N57 C54 1.391 . S
N57 C58 1.388 . S
C58 H29 0.930 . S
C58 C53 1.391 . S
C58 N57 1.388 . S
Co59 O61 2.174 . S
Co59 O67 2.076 . S
Co59 O70 2.091 1_655 S
Co59 O83 2.123 . S
Co59 N100 2.123 1_655 S
Co59 N108 2.185 1_655 S
Co60 O61 2.160 . S
Co60 O66 2.058 . S
Co60 O76 2.057 . S
Co60 O91 2.037 . S
Co60 N95 2.145 . S
Co60 N116 2.257 . S
O61 Co59 2.174 . S
O61 Co60 2.160 . S
C62 O63 1.278 . S
C62 O70 1.226 1_655 S
O63 C62 1.278 . S
C64 O65 1.245 . S
C64 O76 1.232 . S
O65 C64 1.245 . S
O66 Co60 2.058 . S
O66 C92 1.269 . S
O67 Co59 2.076 . S
O67 C92 1.257 . S
H68 C93 0.930 . S
H69 C99 0.930 1_655 S
O70 Co59 2.091 1_455 S
O70 C62 1.226 1_455 S
H71 C103 0.929 . S
H72 C105 0.930 . S
H73 C106 0.930 . S
H74 C104 0.929 . S
H75 C107 0.928 . S
O76 Co60 2.057 . S
O76 C64 1.232 . S
H77 C96 0.929 . S
H78 C97 0.929 . S
H79 C109 0.931 . S
H80 C101 0.929 . S
H81 C110 0.930 . S
H82 C102 0.931 . S
O83 Co59 2.123 . S
O83 C111 1.214 . S
H84 C112 0.929 . S
H85 C113 0.929 . S
H86 C114 0.930 . S
H87 C115 0.929 . S
H88 C117 0.930 . S
H89 C94 0.930 . S
H90 C98 0.930 . S
O91 Co60 2.037 . S
O91 C111 1.234 . S
C92 O66 1.269 . S
C92 O67 1.257 . S
C93 H68 0.930 . S
C93 C96 1.388 . S
C93 C98 1.418 . S
C94 H89 0.930 . S
C94 C97 1.404 . S
C94 C98 1.353 . S
N95 Co60 2.145 . S
N95 C96 1.397 . S
N95 C97 1.334 . S
C96 H77 0.929 . S
C96 C93 1.388 . S
C96 N95 1.397 . S
C97 H78 0.929 . S
C97 C94 1.404 . S
C97 N95 1.334 . S
C98 H90 0.930 . S
C98 C93 1.418 . S
C98 C94 1.353 . S
C99 H69 0.930 1_455 S
C99 N100 1.330 . S
C99 C101 1.446 . S
N100 Co59 2.123 1_455 S
N100 C99 1.330 . S
N100 C104 1.418 . S
C101 H80 0.929 . S
C101 C99 1.446 . S
C101 C102 1.332 . S
C102 H82 0.931 . S
C102 C101 1.332 . S
C102 C103 1.267 . S
C103 H71 0.929 . S
C103 C102 1.267 . S
C103 C104 1.251 . S
C104 H74 0.929 . S
C104 N100 1.418 . S
C104 C103 1.251 . S
C105 H72 0.930 . S
C105 C107 1.406 . S
C105 C110 1.261 . S
C106 H73 0.930 . S
C106 N108 1.325 . S
C106 C109 1.357 . S
C107 H75 0.928 . S
C107 C105 1.406 . S
C107 N108 1.261 . S
N108 Co59 2.185 1_455 S
N108 C106 1.325 . S
N108 C107 1.261 . S
C109 H79 0.931 . S
C109 C106 1.357 . S
C109 C110 1.312 . S
C110 H81 0.930 . S
C110 C105 1.261 . S
C110 C109 1.312 . S
C111 O83 1.214 . S
C111 O91 1.234 . S
C112 H84 0.929 . S
C112 C115 1.391 . S
C112 C117 1.391 . S
C113 H85 0.929 . S
C113 C114 1.390 . S
C113 N116 1.391 . S
C114 H86 0.930 . S
C114 C113 1.390 . S
C114 C115 1.392 . S
C115 H87 0.929 . S
C115 C112 1.391 . S
C115 C114 1.392 . S
N116 Co60 2.257 . S
N116 C113 1.391 . S
N116 C117 1.388 . S
C117 H88 0.930 . S
C117 C112 1.391 . S
C117 N116 1.388 . S
Co118 O120 2.180 . S
Co118 O126 2.073 . S
Co118 O129 2.094 1_565 S
Co118 O142 2.084 . S
Co118 N159 2.162 1_565 S
Co118 N167 2.176 1_565 S
Co119 O120 2.160 . S
Co119 O125 2.058 . S
Co119 O135 2.057 . S
Co119 O150 2.037 . S
Co119 N154 2.145 . S
Co119 N175 2.257 . S
O120 Co118 2.180 . S
O120 Co119 2.160 . S
C121 O122 1.278 . S
C121 O129 1.226 1_565 S
O122 C121 1.278 . S
C123 O124 1.245 . S
C123 O135 1.232 . S
O124 C123 1.245 . S
O125 Co119 2.058 . S
O125 C151 1.269 . S
O126 Co118 2.073 . S
O126 C151 1.257 . S
H127 C152 0.930 . S
H128 C158 0.930 1_565 S
O129 Co118 2.094 1_545 S
O129 C121 1.226 1_545 S
H130 C162 0.929 . S
H131 C164 0.930 . S
H132 C165 0.930 . S
H133 C163 0.929 . S
H134 C166 0.928 . S
O135 Co119 2.057 . S
O135 C123 1.232 . S
H136 C155 0.929 . S
H137 C156 0.929 . S
H138 C168 0.931 . S
H139 C160 0.929 . S
H140 C169 0.930 . S
H141 C161 0.931 . S
O142 Co118 2.084 . S
O142 C170 1.214 . S
H143 C171 0.929 . S
H144 C172 0.929 . S
H145 C173 0.930 . S
H146 C174 0.929 . S
H147 C176 0.930 . S
H148 C153 0.930 . S
H149 C157 0.930 . S
O150 Co119 2.037 . S
O150 C170 1.234 . S
C151 O125 1.269 . S
C151 O126 1.257 . S
C152 H127 0.930 . S
C152 C155 1.388 . S
C152 C157 1.418 . S
C153 H148 0.930 . S
C153 C156 1.404 . S
C153 C157 1.353 . S
N154 Co119 2.145 . S
N154 C155 1.397 . S
N154 C156 1.334 . S
C155 H136 0.929 . S
C155 C152 1.388 . S
C155 N154 1.397 . S
C156 H137 0.929 . S
C156 C153 1.404 . S
C156 N154 1.334 . S
C157 H149 0.930 . S
C157 C152 1.418 . S
C157 C153 1.353 . S
C158 H128 0.930 1_545 S
C158 N159 1.330 . S
C158 C160 1.446 . S
N159 Co118 2.162 1_545 S
N159 C158 1.330 . S
N159 C163 1.418 . S
C160 H139 0.929 . S
C160 C158 1.446 . S
C160 C161 1.332 . S
C161 H141 0.931 . S
C161 C160 1.332 . S
C161 C162 1.267 . S
C162 H130 0.929 . S
C162 C161 1.267 . S
C162 C163 1.251 . S
C163 H133 0.929 . S
C163 N159 1.418 . S
C163 C162 1.251 . S
C164 H131 0.930 . S
C164 C166 1.406 . S
C164 C169 1.261 . S
C165 H132 0.930 . S
C165 N167 1.325 . S
C165 C168 1.357 . S
C166 H134 0.928 . S
C166 C164 1.406 . S
C166 N167 1.261 . S
N167 Co118 2.176 1_545 S
N167 C165 1.325 . S
N167 C166 1.261 . S
C168 H138 0.931 . S
C168 C165 1.357 . S
C168 C169 1.312 . S
C169 H140 0.930 . S
C169 C164 1.261 . S
C169 C168 1.312 . S
C170 O142 1.214 . S
C170 O150 1.234 . S
C171 H143 0.929 . S
C171 C174 1.391 . S
C171 C176 1.391 . S
C172 H144 0.929 . S
C172 C173 1.390 . S
C172 N175 1.391 . S
C173 H145 0.930 . S
C173 C172 1.390 . S
C173 C174 1.392 . S
C174 H146 0.929 . S
C174 C171 1.391 . S
C174 C173 1.392 . S
N175 Co119 2.257 . S
N175 C172 1.391 . S
N175 C176 1.388 . S
C176 H147 0.930 . S
C176 C171 1.391 . S
C176 N175 1.388 . S
Co177 O179 2.143 . S
Co177 O185 2.074 . S
Co177 O188 2.093 . S
Co177 O201 2.097 . S
Co177 N218 2.151 . S
Co177 N226 2.214 . S
Co178 O179 2.160 . S
Co178 O184 2.058 1_554 S
Co178 O194 2.057 . S
Co178 O209 2.037 . S
Co178 N213 2.145 1_554 S
Co178 N234 2.257 . S
O179 Co177 2.143 . S
O179 Co178 2.160 . S
C180 O181 1.278 . S
C180 O188 1.224 . S
O181 C180 1.278 . S
C182 O183 1.245 . S
C182 O194 1.232 . S
O183 C182 1.245 . S
O184 Co178 2.058 1_556 S
O184 C210 1.269 . S
O185 Co177 2.074 . S
O185 C210 1.257 1_554 S
H186 C211 0.930 . S
H187 C217 0.930 . S
O188 Co177 2.093 . S
O188 C180 1.224 . S
H189 C221 0.929 . S
H190 C223 0.930 . S
H191 C224 0.930 . S
H192 C222 0.929 . S
H193 C225 0.928 . S
O194 Co178 2.057 . S
O194 C182 1.232 . S
H195 C214 0.929 . S
H196 C215 0.929 . S
H197 C227 0.931 . S
H198 C219 0.929 . S
H199 C228 0.930 . S
H200 C220 0.931 . S
O201 Co177 2.097 . S
O201 C229 1.214 . S
H202 C230 0.929 . S
H203 C231 0.929 . S
H204 C232 0.930 . S
H205 C233 0.929 . S
H206 C235 0.930 . S
H207 C212 0.930 . S
H208 C216 0.930 . S
O209 Co178 2.037 . S
O209 C229 1.234 . S
C210 O184 1.269 . S
C210 O185 1.257 1_556 S
C211 H186 0.930 . S
C211 C214 1.388 . S
C211 C216 1.418 . S
C212 H207 0.930 . S
C212 C215 1.404 . S
C212 C216 1.353 . S
N213 Co178 2.145 1_556 S
N213 C214 1.397 . S
N213 C215 1.334 . S
C214 H195 0.929 . S
C214 C211 1.388 . S
C214 N213 1.397 . S
C215 H196 0.929 . S
C215 C212 1.404 . S
C215 N213 1.334 . S
C216 H208 0.930 . S
C216 C211 1.418 . S
C216 C212 1.353 . S
C217 H187 0.930 . S
C217 N218 1.330 . S
C217 C219 1.446 . S
N218 Co177 2.151 . S
N218 C217 1.330 . S
N218 C222 1.418 . S
C219 H198 0.929 . S
C219 C217 1.446 . S
C219 C220 1.332 . S
C220 H200 0.931 . S
C220 C219 1.332 . S
C220 C221 1.267 . S
C221 H189 0.929 . S
C221 C220 1.267 . S
C221 C222 1.251 . S
C222 H192 0.929 . S
C222 N218 1.418 . S
C222 C221 1.251 . S
C223 H190 0.930 . S
C223 C225 1.406 . S
C223 C228 1.261 . S
C224 H191 0.930 . S
C224 N226 1.325 . S
C224 C227 1.357 . S
C225 H193 0.928 . S
C225 C223 1.406 . S
C225 N226 1.261 . S
N226 Co177 2.214 . S
N226 C224 1.325 . S
N226 C225 1.261 . S
C227 H197 0.931 . S
C227 C224 1.357 . S
C227 C228 1.312 . S
C228 H199 0.930 . S
C228 C223 1.261 . S
C228 C227 1.312 . S
C229 O201 1.214 . S
C229 O209 1.234 . S
C230 H202 0.929 . S
C230 C233 1.391 . S
C230 C235 1.391 . S
C231 H203 0.929 . S
C231 C232 1.390 . S
C231 N234 1.391 . S
C232 H204 0.930 . S
C232 C231 1.390 . S
C232 C233 1.392 . S
C233 H205 0.929 . S
C233 C230 1.391 . S
C233 C232 1.392 . S
N234 Co178 2.257 . S
N234 C231 1.391 . S
N234 C235 1.388 . S
C235 H206 0.930 . S
C235 C230 1.391 . S
C235 N234 1.388 . S
Co236 O238 2.174 . S
Co236 O244 2.076 . S
Co236 O247 2.091 1_455 S
Co236 O260 2.123 . S
Co236 N277 2.123 1_455 S
Co236 N285 2.185 1_455 S
Co237 O238 2.160 . S
Co237 O243 2.058 . S
Co237 O253 2.057 . S
Co237 O268 2.037 . S
Co237 N272 2.145 . S
Co237 N293 2.257 . S
O238 Co236 2.174 . S
O238 Co237 2.160 . S
C239 O240 1.278 . S
C239 O247 1.226 1_455 S
O240 C239 1.278 . S
C241 O242 1.245 . S
C241 O253 1.232 . S
O242 C241 1.245 . S
O243 Co237 2.058 . S
O243 C269 1.269 . S
O244 Co236 2.076 . S
O244 C269 1.257 . S
H245 C270 0.930 . S
H246 C276 0.930 1_455 S
O247 Co236 2.091 1_655 S
O247 C239 1.226 1_655 S
H248 C280 0.929 . S
H249 C282 0.930 . S
H250 C283 0.930 . S
H251 C281 0.929 . S
H252 C284 0.928 . S
O253 Co237 2.057 . S
O253 C241 1.232 . S
H254 C273 0.929 . S
H255 C274 0.929 . S
H256 C286 0.931 . S
H257 C278 0.929 . S
H258 C287 0.930 . S
H259 C279 0.931 . S
O260 Co236 2.123 . S
O260 C288 1.214 . S
H261 C289 0.929 . S
H262 C290 0.929 . S
H263 C291 0.930 . S
H264 C292 0.929 . S
H265 C294 0.930 . S
H266 C271 0.930 . S
H267 C275 0.930 . S
O268 Co237 2.037 . S
O268 C288 1.234 . S
C269 O243 1.269 . S
C269 O244 1.257 . S
C270 H245 0.930 . S
C270 C273 1.388 . S
C270 C275 1.418 . S
C271 H266 0.930 . S
C271 C274 1.404 . S
C271 C275 1.353 . S
N272 Co237 2.145 . S
N272 C273 1.397 . S
N272 C274 1.334 . S
C273 H254 0.929 . S
C273 C270 1.388 . S
C273 N272 1.397 . S
C274 H255 0.929 . S
C274 C271 1.404 . S
C274 N272 1.334 . S
C275 H267 0.930 . S
C275 C270 1.418 . S
C275 C271 1.353 . S
C276 H246 0.930 1_655 S
C276 N277 1.330 . S
C276 C278 1.446 . S
N277 Co236 2.123 1_655 S
N277 C276 1.330 . S
N277 C281 1.418 . S
C278 H257 0.929 . S
C278 C276 1.446 . S
C278 C279 1.332 . S
C279 H259 0.931 . S
C279 C278 1.332 . S
C279 C280 1.267 . S
C280 H248 0.929 . S
C280 C279 1.267 . S
C280 C281 1.251 . S
C281 H251 0.929 . S
C281 N277 1.418 . S
C281 C280 1.251 . S
C282 H249 0.930 . S
C282 C284 1.406 . S
C282 C287 1.261 . S
C283 H250 0.930 . S
C283 N285 1.325 . S
C283 C286 1.357 . S
C284 H252 0.928 . S
C284 C282 1.406 . S
C284 N285 1.261 . S
N285 Co236 2.185 1_655 S
N285 C283 1.325 . S
N285 C284 1.261 . S
C286 H256 0.931 . S
C286 C283 1.357 . S
C286 C287 1.312 . S
C287 H258 0.930 . S
C287 C282 1.261 . S
C287 C286 1.312 . S
C288 O260 1.214 . S
C288 O268 1.234 . S
C289 H261 0.929 . S
C289 C292 1.391 . S
C289 C294 1.391 . S
C290 H262 0.929 . S
C290 C291 1.390 . S
C290 N293 1.391 . S
C291 H263 0.930 . S
C291 C290 1.390 . S
C291 C292 1.392 . S
C292 H264 0.929 . S
C292 C289 1.391 . S
C292 C291 1.392 . S
N293 Co237 2.257 . S
N293 C290 1.391 . S
N293 C294 1.388 . S
C294 H265 0.930 . S
C294 C289 1.391 . S
C294 N293 1.388 . S
Co295 O297 2.180 . S
Co295 O303 2.073 . S
Co295 O306 2.094 1_545 S
Co295 O319 2.084 . S
Co295 N336 2.162 1_545 S
Co295 N344 2.176 1_545 S
Co296 O297 2.160 . S
Co296 O302 2.058 . S
Co296 O312 2.057 . S
Co296 O327 2.037 . S
Co296 N331 2.145 . S
Co296 N352 2.257 . S
O297 Co295 2.180 . S
O297 Co296 2.160 . S
C298 O299 1.278 . S
C298 O306 1.226 1_545 S
O299 C298 1.278 . S
C300 O301 1.245 . S
C300 O312 1.232 . S
O301 C300 1.245 . S
O302 Co296 2.058 . S
O302 C328 1.269 . S
O303 Co295 2.073 . S
O303 C328 1.257 . S
H304 C329 0.930 . S
H305 C335 0.930 1_545 S
O306 Co295 2.094 1_565 S
O306 C298 1.226 1_565 S
H307 C339 0.929 . S
H308 C341 0.930 . S
H309 C342 0.930 . S
H310 C340 0.929 . S
H311 C343 0.928 . S
O312 Co296 2.057 . S
O312 C300 1.232 . S
H313 C332 0.929 . S
H314 C333 0.929 . S
H315 C345 0.931 . S
H316 C337 0.929 . S
H317 C346 0.930 . S
H318 C338 0.931 . S
O319 Co295 2.084 . S
O319 C347 1.214 . S
H320 C348 0.929 . S
H321 C349 0.929 . S
H322 C350 0.930 . S
H323 C351 0.929 . S
H324 C353 0.930 . S
H325 C330 0.930 . S
H326 C334 0.930 . S
O327 Co296 2.037 . S
O327 C347 1.234 . S
C328 O302 1.269 . S
C328 O303 1.257 . S
C329 H304 0.930 . S
C329 C332 1.388 . S
C329 C334 1.418 . S
C330 H325 0.930 . S
C330 C333 1.404 . S
C330 C334 1.353 . S
N331 Co296 2.145 . S
N331 C332 1.397 . S
N331 C333 1.334 . S
C332 H313 0.929 . S
C332 C329 1.388 . S
C332 N331 1.397 . S
C333 H314 0.929 . S
C333 C330 1.404 . S
C333 N331 1.334 . S
C334 H326 0.930 . S
C334 C329 1.418 . S
C334 C330 1.353 . S
C335 H305 0.930 1_565 S
C335 N336 1.330 . S
C335 C337 1.446 . S
N336 Co295 2.162 1_565 S
N336 C335 1.330 . S
N336 C340 1.418 . S
C337 H316 0.929 . S
C337 C335 1.446 . S
C337 C338 1.332 . S
C338 H318 0.931 . S
C338 C337 1.332 . S
C338 C339 1.267 . S
C339 H307 0.929 . S
C339 C338 1.267 . S
C339 C340 1.251 . S
C340 H310 0.929 . S
C340 N336 1.418 . S
C340 C339 1.251 . S
C341 H308 0.930 . S
C341 C343 1.406 . S
C341 C346 1.261 . S
C342 H309 0.930 . S
C342 N344 1.325 . S
C342 C345 1.357 . S
C343 H311 0.928 . S
C343 C341 1.406 . S
C343 N344 1.261 . S
N344 Co295 2.176 1_565 S
N344 C342 1.325 . S
N344 C343 1.261 . S
C345 H315 0.931 . S
C345 C342 1.357 . S
C345 C346 1.312 . S
C346 H317 0.930 . S
C346 C341 1.261 . S
C346 C345 1.312 . S
C347 O319 1.214 . S
C347 O327 1.234 . S
C348 H320 0.929 . S
C348 C351 1.391 . S
C348 C353 1.391 . S
C349 H321 0.929 . S
C349 C350 1.390 . S
C349 N352 1.391 . S
C350 H322 0.930 . S
C350 C349 1.390 . S
C350 C351 1.392 . S
C351 H323 0.929 . S
C351 C348 1.391 . S
C351 C350 1.392 . S
N352 Co296 2.257 . S
N352 C349 1.391 . S
N352 C353 1.388 . S
C353 H324 0.930 . S
C353 C348 1.391 . S
C353 N352 1.388 . S
Co354 O356 2.143 . S
Co354 O362 2.074 . S
Co354 O365 2.093 . S
Co354 O378 2.097 . S
Co354 N395 2.151 . S
Co354 N403 2.214 . S
Co355 O356 2.160 . S
Co355 O361 2.058 . S
Co355 O371 2.057 . S
Co355 O386 2.037 . S
Co355 N390 2.145 . S
Co355 N411 2.257 . S
O356 Co354 2.143 . S
O356 Co355 2.160 . S
C357 O358 1.278 . S
C357 O365 1.224 . S
O358 C357 1.278 . S
C359 O360 1.245 . S
C359 O371 1.232 . S
O360 C359 1.245 . S
O361 Co355 2.058 . S
O361 C387 1.269 . S
O362 Co354 2.074 . S
O362 C387 1.257 . S
H363 C388 0.930 . S
H364 C394 0.930 . S
O365 Co354 2.093 . S
O365 C357 1.224 . S
H366 C398 0.929 . S
H367 C400 0.930 . S
H368 C401 0.930 . S
H369 C399 0.929 . S
H370 C402 0.928 . S
O371 Co355 2.057 . S
O371 C359 1.232 . S
H372 C391 0.929 . S
H373 C392 0.929 . S
H374 C404 0.931 . S
H375 C396 0.929 . S
H376 C405 0.930 . S
H377 C397 0.931 . S
O378 Co354 2.097 . S
O378 C406 1.214 . S
H379 C407 0.929 . S
H380 C408 0.929 . S
H381 C409 0.930 . S
H382 C410 0.929 . S
H383 C412 0.930 . S
H384 C389 0.930 . S
H385 C393 0.930 . S
O386 Co355 2.037 . S
O386 C406 1.234 . S
C387 O361 1.269 . S
C387 O362 1.257 . S
C388 H363 0.930 . S
C388 C391 1.388 . S
C388 C393 1.418 . S
C389 H384 0.930 . S
C389 C392 1.404 . S
C389 C393 1.353 . S
N390 Co355 2.145 . S
N390 C391 1.397 . S
N390 C392 1.334 . S
C391 H372 0.929 . S
C391 C388 1.388 . S
C391 N390 1.397 . S
C392 H373 0.929 . S
C392 C389 1.404 . S
C392 N390 1.334 . S
C393 H385 0.930 . S
C393 C388 1.418 . S
C393 C389 1.353 . S
C394 H364 0.930 . S
C394 N395 1.330 . S
C394 C396 1.446 . S
N395 Co354 2.151 . S
N395 C394 1.330 . S
N395 C399 1.418 . S
C396 H375 0.929 . S
C396 C394 1.446 . S
C396 C397 1.332 . S
C397 H377 0.931 . S
C397 C396 1.332 . S
C397 C398 1.267 . S
C398 H366 0.929 . S
C398 C397 1.267 . S
C398 C399 1.251 . S
C399 H369 0.929 . S
C399 N395 1.418 . S
C399 C398 1.251 . S
C400 H367 0.930 . S
C400 C402 1.406 . S
C400 C405 1.261 . S
C401 H368 0.930 . S
C401 N403 1.325 . S
C401 C404 1.357 . S
C402 H370 0.928 . S
C402 C400 1.406 . S
C402 N403 1.261 . S
N403 Co354 2.214 . S
N403 C401 1.325 . S
N403 C402 1.261 . S
C404 H374 0.931 . S
C404 C401 1.357 . S
C404 C405 1.312 . S
C405 H376 0.930 . S
C405 C400 1.261 . S
C405 C404 1.312 . S
C406 O378 1.214 . S
C406 O386 1.234 . S
C407 H379 0.929 . S
C407 C410 1.391 . S
C407 C412 1.391 . S
C408 H380 0.929 . S
C408 C409 1.390 . S
C408 N411 1.391 . S
C409 H381 0.930 . S
C409 C408 1.390 . S
C409 C410 1.392 . S
C410 H382 0.929 . S
C410 C407 1.391 . S
C410 C409 1.392 . S
N411 Co355 2.257 . S
N411 C408 1.391 . S
N411 C412 1.388 . S
C412 H383 0.930 . S
C412 C407 1.391 . S
C412 N411 1.388 . S
Co413 O415 2.180 . S
Co413 O421 2.073 . S
Co413 O424 2.094 1_655 S
Co413 O437 2.084 . S
Co413 N454 2.162 1_655 S
Co413 N462 2.176 1_655 S
Co414 O415 2.160 . S
Co414 O420 2.058 1_556 S
Co414 O430 2.057 . S
Co414 O445 2.037 . S
Co414 N449 2.145 1_556 S
Co414 N470 2.257 . S
O415 Co413 2.180 . S
O415 Co414 2.160 . S
C416 O417 1.278 . S
C416 O424 1.226 1_655 S
O417 C416 1.278 . S
C418 O419 1.245 . S
C418 O430 1.232 . S
O419 C418 1.245 . S
O420 Co414 2.058 1_554 S
O420 C446 1.269 . S
O421 Co413 2.073 . S
O421 C446 1.257 1_556 S
H422 C447 0.930 . S
H423 C453 0.930 1_655 S
O424 Co413 2.094 1_455 S
O424 C416 1.226 1_455 S
H425 C457 0.929 . S
H426 C459 0.930 . S
H427 C460 0.930 . S
H428 C458 0.929 . S
H429 C461 0.928 . S
O430 Co414 2.057 . S
O430 C418 1.232 . S
H431 C450 0.929 . S
H432 C451 0.929 . S
H433 C463 0.931 . S
H434 C455 0.929 . S
H435 C464 0.930 . S
H436 C456 0.931 . S
O437 Co413 2.084 . S
O437 C465 1.214 . S
H438 C466 0.929 . S
H439 C467 0.929 . S
H440 C468 0.930 . S
H441 C469 0.929 . S
H442 C471 0.930 . S
H443 C448 0.930 . S
H444 C452 0.930 . S
O445 Co414 2.037 . S
O445 C465 1.234 . S
C446 O420 1.269 . S
C446 O421 1.257 1_554 S
C447 H422 0.930 . S
C447 C450 1.388 . S
C447 C452 1.418 . S
C448 H443 0.930 . S
C448 C451 1.404 . S
C448 C452 1.353 . S
N449 Co414 2.145 1_554 S
N449 C450 1.397 . S
N449 C451 1.334 . S
C450 H431 0.929 . S
C450 C447 1.388 . S
C450 N449 1.397 . S
C451 H432 0.929 . S
C451 C448 1.404 . S
C451 N449 1.334 . S
C452 H444 0.930 . S
C452 C447 1.418 . S
C452 C448 1.353 . S
C453 H423 0.930 1_455 S
C453 N454 1.330 . S
C453 C455 1.446 . S
N454 Co413 2.162 1_455 S
N454 C453 1.330 . S
N454 C458 1.418 . S
C455 H434 0.929 . S
C455 C453 1.446 . S
C455 C456 1.332 . S
C456 H436 0.931 . S
C456 C455 1.332 . S
C456 C457 1.267 . S
C457 H425 0.929 . S
C457 C456 1.267 . S
C457 C458 1.251 . S
C458 H428 0.929 . S
C458 N454 1.418 . S
C458 C457 1.251 . S
C459 H426 0.930 . S
C459 C461 1.406 . S
C459 C464 1.261 . S
C460 H427 0.930 . S
C460 N462 1.325 . S
C460 C463 1.357 . S
C461 H429 0.928 . S
C461 C459 1.406 . S
C461 N462 1.261 . S
N462 Co413 2.176 1_455 S
N462 C460 1.325 . S
N462 C461 1.261 . S
C463 H433 0.931 . S
C463 C460 1.357 . S
C463 C464 1.312 . S
C464 H435 0.930 . S
C464 C459 1.261 . S
C464 C463 1.312 . S
C465 O437 1.214 . S
C465 O445 1.234 . S
C466 H438 0.929 . S
C466 C469 1.391 . S
C466 C471 1.391 . S
C467 H439 0.929 . S
C467 C468 1.390 . S
C467 N470 1.391 . S
C468 H440 0.930 . S
C468 C467 1.390 . S
C468 C469 1.392 . S
C469 H441 0.929 . S
C469 C466 1.391 . S
C469 C468 1.392 . S
N470 Co414 2.257 . S
N470 C467 1.391 . S
N470 C471 1.388 . S
C471 H442 0.930 . S
C471 C466 1.391 . S
C471 N470 1.388 . S
Co472 O474 2.173 . S
Co472 O480 2.076 . S
Co472 O483 2.091 1_565 S
Co472 O496 2.123 . S
Co472 N513 2.123 1_565 S
Co472 N521 2.185 1_565 S
Co473 O474 2.160 . S
Co473 O479 2.058 . S
Co473 O489 2.057 . S
Co473 O504 2.037 . S
Co473 N508 2.145 . S
Co473 N529 2.257 . S
O474 Co472 2.173 . S
O474 Co473 2.160 . S
C475 O476 1.278 . S
C475 O483 1.226 1_565 S
O476 C475 1.278 . S
C477 O478 1.245 . S
C477 O489 1.232 . S
O478 C477 1.245 . S
O479 Co473 2.058 . S
O479 C505 1.269 . S
O480 Co472 2.076 . S
O480 C505 1.257 . S
H481 C506 0.930 . S
H482 C512 0.930 1_565 S
O483 Co472 2.091 1_545 S
O483 C475 1.226 1_545 S
H484 C516 0.929 . S
H485 C518 0.930 . S
H486 C519 0.930 . S
H487 C517 0.929 . S
H488 C520 0.928 . S
O489 Co473 2.057 . S
O489 C477 1.232 . S
H490 C509 0.929 . S
H491 C510 0.929 . S
H492 C522 0.931 . S
H493 C514 0.929 . S
H494 C523 0.930 . S
H495 C515 0.931 . S
O496 Co472 2.123 . S
O496 C524 1.214 . S
H497 C525 0.929 . S
H498 C526 0.929 . S
H499 C527 0.930 . S
H500 C528 0.929 . S
H501 C530 0.930 . S
H502 C507 0.930 . S
H503 C511 0.930 . S
O504 Co473 2.037 . S
O504 C524 1.234 . S
C505 O479 1.269 . S
C505 O480 1.257 . S
C506 H481 0.930 . S
C506 C509 1.388 . S
C506 C511 1.418 . S
C507 H502 0.930 . S
C507 C510 1.404 . S
C507 C511 1.353 . S
N508 Co473 2.145 . S
N508 C509 1.397 . S
N508 C510 1.334 . S
C509 H490 0.929 . S
C509 C506 1.388 . S
C509 N508 1.397 . S
C510 H491 0.929 . S
C510 C507 1.404 . S
C510 N508 1.334 . S
C511 H503 0.930 . S
C511 C506 1.418 . S
C511 C507 1.353 . S
C512 H482 0.930 1_545 S
C512 N513 1.330 . S
C512 C514 1.446 . S
N513 Co472 2.123 1_545 S
N513 C512 1.330 . S
N513 C517 1.418 . S
C514 H493 0.929 . S
C514 C512 1.446 . S
C514 C515 1.332 . S
C515 H495 0.931 . S
C515 C514 1.332 . S
C515 C516 1.267 . S
C516 H484 0.929 . S
C516 C515 1.267 . S
C516 C517 1.251 . S
C517 H487 0.929 . S
C517 N513 1.418 . S
C517 C516 1.251 . S
C518 H485 0.930 . S
C518 C520 1.406 . S
C518 C523 1.261 . S
C519 H486 0.930 . S
C519 N521 1.325 . S
C519 C522 1.357 . S
C520 H488 0.928 . S
C520 C518 1.406 . S
C520 N521 1.261 . S
N521 Co472 2.185 1_545 S
N521 C519 1.325 . S
N521 C520 1.261 . S
C522 H492 0.931 . S
C522 C519 1.357 . S
C522 C523 1.312 . S
C523 H494 0.930 . S
C523 C518 1.261 . S
C523 C522 1.312 . S
C524 O496 1.214 . S
C524 O504 1.234 . S
C525 H497 0.929 . S
C525 C528 1.391 . S
C525 C530 1.391 . S
C526 H498 0.929 . S
C526 C527 1.390 . S
C526 N529 1.391 . S
C527 H499 0.930 . S
C527 C526 1.390 . S
C527 C528 1.392 . S
C528 H500 0.929 . S
C528 C525 1.391 . S
C528 C527 1.392 . S
N529 Co473 2.257 . S
N529 C526 1.391 . S
N529 C530 1.388 . S
C530 H501 0.930 . S
C530 C525 1.391 . S
C530 N529 1.388 . S
Co531 O533 2.143 . S
Co531 O539 2.074 . S
Co531 O542 2.093 . S
Co531 O555 2.097 . S
Co531 N572 2.151 . S
Co531 N580 2.214 . S
Co532 O533 2.160 . S
Co532 O538 2.058 . S
Co532 O548 2.057 . S
Co532 O563 2.037 . S
Co532 N567 2.145 . S
Co532 N588 2.257 . S
O533 Co531 2.143 . S
O533 Co532 2.160 . S
C534 O535 1.278 . S
C534 O542 1.224 . S
O535 C534 1.278 . S
C536 O537 1.245 . S
C536 O548 1.232 . S
O537 C536 1.245 . S
O538 Co532 2.058 . S
O538 C564 1.269 . S
O539 Co531 2.074 . S
O539 C564 1.257 . S
H540 C565 0.930 . S
H541 C571 0.930 . S
O542 Co531 2.093 . S
O542 C534 1.224 . S
H543 C575 0.929 . S
H544 C577 0.930 . S
H545 C578 0.930 . S
H546 C576 0.929 . S
H547 C579 0.928 . S
O548 Co532 2.057 . S
O548 C536 1.232 . S
H549 C568 0.929 . S
H550 C569 0.929 . S
H551 C581 0.931 . S
H552 C573 0.929 . S
H553 C582 0.930 . S
H554 C574 0.931 . S
O555 Co531 2.097 . S
O555 C583 1.214 . S
H556 C584 0.929 . S
H557 C585 0.929 . S
H558 C586 0.930 . S
H559 C587 0.929 . S
H560 C589 0.930 . S
H561 C566 0.930 . S
H562 C570 0.930 . S
O563 Co532 2.037 . S
O563 C583 1.234 . S
C564 O538 1.269 . S
C564 O539 1.257 . S
C565 H540 0.930 . S
C565 C568 1.388 . S
C565 C570 1.418 . S
C566 H561 0.930 . S
C566 C569 1.404 . S
C566 C570 1.353 . S
N567 Co532 2.145 . S
N567 C568 1.397 . S
N567 C569 1.334 . S
C568 H549 0.929 . S
C568 C565 1.388 . S
C568 N567 1.397 . S
C569 H550 0.929 . S
C569 C566 1.404 . S
C569 N567 1.334 . S
C570 H562 0.930 . S
C570 C565 1.418 . S
C570 C566 1.353 . S
C571 H541 0.930 . S
C571 N572 1.330 . S
C571 C573 1.446 . S
N572 Co531 2.151 . S
N572 C571 1.330 . S
N572 C576 1.418 . S
C573 H552 0.929 . S
C573 C571 1.446 . S
C573 C574 1.332 . S
C574 H554 0.931 . S
C574 C573 1.332 . S
C574 C575 1.267 . S
C575 H543 0.929 . S
C575 C574 1.267 . S
C575 C576 1.251 . S
C576 H546 0.929 . S
C576 N572 1.418 . S
C576 C575 1.251 . S
C577 H544 0.930 . S
C577 C579 1.406 . S
C577 C582 1.261 . S
C578 H545 0.930 . S
C578 N580 1.325 . S
C578 C581 1.357 . S
C579 H547 0.928 . S
C579 C577 1.406 . S
C579 N580 1.261 . S
N580 Co531 2.214 . S
N580 C578 1.325 . S
N580 C579 1.261 . S
C581 H551 0.931 . S
C581 C578 1.357 . S
C581 C582 1.312 . S
C582 H553 0.930 . S
C582 C577 1.261 . S
C582 C581 1.312 . S
C583 O555 1.214 . S
C583 O563 1.234 . S
C584 H556 0.929 . S
C584 C587 1.391 . S
C584 C589 1.391 . S
C585 H557 0.929 . S
C585 C586 1.390 . S
C585 N588 1.391 . S
C586 H558 0.930 . S
C586 C585 1.390 . S
C586 C587 1.392 . S
C587 H559 0.929 . S
C587 C584 1.391 . S
C587 C586 1.392 . S
N588 Co532 2.257 . S
N588 C585 1.391 . S
N588 C589 1.388 . S
C589 H560 0.930 . S
C589 C584 1.391 . S
C589 N588 1.388 . S
Co590 O592 2.180 . S
Co590 O598 2.073 . S
Co590 O601 2.094 1_455 S
Co590 O614 2.084 . S
Co590 N631 2.162 1_455 S
Co590 N639 2.176 1_455 S
Co591 O592 2.160 . S
Co591 O597 2.058 1_556 S
Co591 O607 2.057 . S
Co591 O622 2.037 . S
Co591 N626 2.145 1_556 S
Co591 N647 2.257 . S
O592 Co590 2.180 . S
O592 Co591 2.160 . S
C593 O594 1.278 . S
C593 O601 1.226 1_455 S
O594 C593 1.278 . S
C595 O596 1.245 . S
C595 O607 1.232 . S
O596 C595 1.245 . S
O597 Co591 2.058 1_554 S
O597 C623 1.269 . S
O598 Co590 2.073 . S
O598 C623 1.257 1_556 S
H599 C624 0.930 . S
H600 C630 0.930 1_455 S
O601 Co590 2.094 1_655 S
O601 C593 1.226 1_655 S
H602 C634 0.929 . S
H603 C636 0.930 . S
H604 C637 0.930 . S
H605 C635 0.929 . S
H606 C638 0.928 . S
O607 Co591 2.057 . S
O607 C595 1.232 . S
H608 C627 0.929 . S
H609 C628 0.929 . S
H610 C640 0.931 . S
H611 C632 0.929 . S
H612 C641 0.930 . S
H613 C633 0.931 . S
O614 Co590 2.084 . S
O614 C642 1.214 . S
H615 C643 0.929 . S
H616 C644 0.929 . S
H617 C645 0.930 . S
H618 C646 0.929 . S
H619 C648 0.930 . S
H620 C625 0.930 . S
H621 C629 0.930 . S
O622 Co591 2.037 . S
O622 C642 1.234 . S
C623 O597 1.269 . S
C623 O598 1.257 1_554 S
C624 H599 0.930 . S
C624 C627 1.388 . S
C624 C629 1.418 . S
C625 H620 0.930 . S
C625 C628 1.404 . S
C625 C629 1.353 . S
N626 Co591 2.145 1_554 S
N626 C627 1.397 . S
N626 C628 1.334 . S
C627 H608 0.929 . S
C627 C624 1.388 . S
C627 N626 1.397 . S
C628 H609 0.929 . S
C628 C625 1.404 . S
C628 N626 1.334 . S
C629 H621 0.930 . S
C629 C624 1.418 . S
C629 C625 1.353 . S
C630 H600 0.930 1_655 S
C630 N631 1.330 . S
C630 C632 1.446 . S
N631 Co590 2.162 1_655 S
N631 C630 1.330 . S
N631 C635 1.418 . S
C632 H611 0.929 . S
C632 C630 1.446 . S
C632 C633 1.332 . S
C633 H613 0.931 . S
C633 C632 1.332 . S
C633 C634 1.267 . S
C634 H602 0.929 . S
C634 C633 1.267 . S
C634 C635 1.251 . S
C635 H605 0.929 . S
C635 N631 1.418 . S
C635 C634 1.251 . S
C636 H603 0.930 . S
C636 C638 1.406 . S
C636 C641 1.261 . S
C637 H604 0.930 . S
C637 N639 1.325 . S
C637 C640 1.357 . S
C638 H606 0.928 . S
C638 C636 1.406 . S
C638 N639 1.261 . S
N639 Co590 2.176 1_655 S
N639 C637 1.325 . S
N639 C638 1.261 . S
C640 H610 0.931 . S
C640 C637 1.357 . S
C640 C641 1.312 . S
C641 H612 0.930 . S
C641 C636 1.261 . S
C641 C640 1.312 . S
C642 O614 1.214 . S
C642 O622 1.234 . S
C643 H615 0.929 . S
C643 C646 1.391 . S
C643 C648 1.391 . S
C644 H616 0.929 . S
C644 C645 1.390 . S
C644 N647 1.391 . S
C645 H617 0.930 . S
C645 C644 1.390 . S
C645 C646 1.392 . S
C646 H618 0.929 . S
C646 C643 1.391 . S
C646 C645 1.392 . S
N647 Co591 2.257 . S
N647 C644 1.391 . S
N647 C648 1.388 . S
C648 H619 0.930 . S
C648 C643 1.391 . S
C648 N647 1.388 . S
Co649 O651 2.173 . S
Co649 O657 2.076 . S
Co649 O660 2.091 1_545 S
Co649 O673 2.123 . S
Co649 N690 2.123 1_545 S
Co649 N698 2.185 1_545 S
Co650 O651 2.160 . S
Co650 O656 2.058 . S
Co650 O666 2.057 . S
Co650 O681 2.037 . S
Co650 N685 2.145 . S
Co650 N706 2.257 . S
O651 Co649 2.173 . S
O651 Co650 2.160 . S
C652 O653 1.278 . S
C652 O660 1.226 1_545 S
O653 C652 1.278 . S
C654 O655 1.245 . S
C654 O666 1.232 . S
O655 C654 1.245 . S
O656 Co650 2.058 . S
O656 C682 1.269 . S
O657 Co649 2.076 . S
O657 C682 1.257 . S
H658 C683 0.930 . S
H659 C689 0.930 1_545 S
O660 Co649 2.091 1_565 S
O660 C652 1.226 1_565 S
H661 C693 0.929 . S
H662 C695 0.930 . S
H663 C696 0.930 . S
H664 C694 0.929 . S
H665 C697 0.928 . S
O666 Co650 2.057 . S
O666 C654 1.232 . S
H667 C686 0.929 . S
H668 C687 0.929 . S
H669 C699 0.931 . S
H670 C691 0.929 . S
H671 C700 0.930 . S
H672 C692 0.931 . S
O673 Co649 2.123 . S
O673 C701 1.214 . S
H674 C702 0.929 . S
H675 C703 0.929 . S
H676 C704 0.930 . S
H677 C705 0.929 . S
H678 C707 0.930 . S
H679 C684 0.930 . S
H680 C688 0.930 . S
O681 Co650 2.037 . S
O681 C701 1.234 . S
C682 O656 1.269 . S
C682 O657 1.257 . S
C683 H658 0.930 . S
C683 C686 1.388 . S
C683 C688 1.418 . S
C684 H679 0.930 . S
C684 C687 1.404 . S
C684 C688 1.353 . S
N685 Co650 2.145 . S
N685 C686 1.397 . S
N685 C687 1.334 . S
C686 H667 0.929 . S
C686 C683 1.388 . S
C686 N685 1.397 . S
C687 H668 0.929 . S
C687 C684 1.404 . S
C687 N685 1.334 . S
C688 H680 0.930 . S
C688 C683 1.418 . S
C688 C684 1.353 . S
C689 H659 0.930 1_565 S
C689 N690 1.330 . S
C689 C691 1.446 . S
N690 Co649 2.123 1_565 S
N690 C689 1.330 . S
N690 C694 1.418 . S
C691 H670 0.929 . S
C691 C689 1.446 . S
C691 C692 1.332 . S
C692 H672 0.931 . S
C692 C691 1.332 . S
C692 C693 1.267 . S
C693 H661 0.929 . S
C693 C692 1.267 . S
C693 C694 1.251 . S
C694 H664 0.929 . S
C694 N690 1.418 . S
C694 C693 1.251 . S
C695 H662 0.930 . S
C695 C697 1.406 . S
C695 C700 1.261 . S
C696 H663 0.930 . S
C696 N698 1.325 . S
C696 C699 1.357 . S
C697 H665 0.928 . S
C697 C695 1.406 . S
C697 N698 1.261 . S
N698 Co649 2.185 1_565 S
N698 C696 1.325 . S
N698 C697 1.261 . S
C699 H669 0.931 . S
C699 C696 1.357 . S
C699 C700 1.312 . S
C700 H671 0.930 . S
C700 C695 1.261 . S
C700 C699 1.312 . S
C701 O673 1.214 . S
C701 O681 1.234 . S
C702 H674 0.929 . S
C702 C705 1.391 . S
C702 C707 1.391 . S
C703 H675 0.929 . S
C703 C704 1.390 . S
C703 N706 1.391 . S
C704 H676 0.930 . S
C704 C703 1.390 . S
C704 C705 1.392 . S
C705 H677 0.929 . S
C705 C702 1.391 . S
C705 C704 1.392 . S
N706 Co650 2.257 . S
N706 C703 1.391 . S
N706 C707 1.388 . S
C707 H678 0.930 . S
C707 C702 1.391 . S
C707 N706 1.388 . S
H708 C720 0.930 . S
H709 C722 0.930 . S
H710 C723 0.930 . S
H711 C727 0.959 . S
H712 C727 0.959 . S
H713 C727 0.961 . S
H714 C728 0.960 . S
H715 C728 0.961 . S
H716 C728 0.959 . S
H717 C731 0.929 . S
H718 C732 0.931 . S
H719 C734 0.930 . S
C720 H708 0.930 . S
C720 C721 1.399 . S
C720 C725 1.399 . S
C721 C720 1.399 . S
C721 C722 1.376 . S
C722 H709 0.930 . S
C722 C721 1.376 . S
C722 C723 1.388 . S
C723 H710 0.930 . S
C723 C722 1.388 . S
C723 C724 1.390 . S
C724 C723 1.390 . S
C724 C725 1.394 . S
C724 C730 1.465 . S
C725 C720 1.399 . S
C725 C724 1.394 . S
C725 C726 1.516 . S
C726 C725 1.516 . S
C726 C727 1.502 . S
C726 C728 1.561 . S
C726 C729 1.526 . S
C727 H711 0.959 . S
C727 H712 0.959 . S
C727 H713 0.961 . S
C727 C726 1.502 . S
C728 H714 0.960 . S
C728 H715 0.961 . S
C728 H716 0.959 . S
C728 C726 1.561 . S
C729 C726 1.526 . S
C729 C730 1.396 . S
C729 C734 1.390 . S
C730 C724 1.465 . S
C730 C729 1.396 . S
C730 C731 1.399 . S
C731 H717 0.929 . S
C731 C730 1.399 . S
C731 C732 1.385 . S
C732 H718 0.931 . S
C732 C731 1.385 . S
C732 C733 1.389 . S
C733 C732 1.389 . S
C733 C734 1.387 . S
C734 H719 0.930 . S
C734 C729 1.390 . S
C734 C733 1.387 . S
H735 C747 0.930 . S
H736 C749 0.930 . S
H737 C750 0.930 . S
H738 C754 0.959 . S
H739 C754 0.959 . S
H740 C754 0.961 . S
H741 C755 0.960 . S
H742 C755 0.961 . S
H743 C755 0.959 1_455 S
H744 C758 0.929 . S
H745 C759 0.931 . S
H746 C761 0.930 . S
C747 H735 0.930 . S
C747 C748 1.399 . S
C747 C752 1.399 . S
C748 C747 1.399 . S
C748 C749 1.376 1_655 S
C749 H736 0.930 . S
C749 C748 1.376 1_455 S
C749 C750 1.388 . S
C750 H737 0.930 . S
C750 C749 1.388 . S
C750 C751 1.390 . S
C751 C750 1.390 . S
C751 C752 1.394 1_455 S
C751 C757 1.465 . S
C752 C747 1.399 . S
C752 C751 1.394 1_655 S
C752 C753 1.516 . S
C753 C752 1.516 . S
C753 C754 1.502 . S
C753 C755 1.561 . S
C753 C756 1.526 . S
C754 H738 0.959 . S
C754 H739 0.959 . S
C754 H740 0.961 . S
C754 C753 1.502 . S
C755 H741 0.960 . S
C755 H742 0.961 . S
C755 H743 0.959 1_655 S
C755 C753 1.561 . S
C756 C753 1.526 . S
C756 C757 1.396 1_655 S
C756 C761 1.390 . S
C757 C751 1.465 . S
C757 C756 1.396 1_455 S
C757 C758 1.399 . S
C758 H744 0.929 . S
C758 C757 1.399 . S
C758 C759 1.385 . S
C759 H745 0.931 . S
C759 C758 1.385 . S
C759 C760 1.389 . S
C760 C759 1.389 . S
C760 C761 1.387 1_455 S
C761 H746 0.930 . S
C761 C756 1.390 . S
C761 C760 1.387 1_655 S
H762 C774 0.930 . S
H763 C776 0.930 . S
H764 C777 0.930 . S
H765 C781 0.959 . S
H766 C781 0.959 1_554 S
H767 C781 0.961 . S
H768 C782 0.960 . S
H769 C782 0.961 1_554 S
H770 C782 0.959 . S
H771 C785 0.929 . S
H772 C786 0.931 . S
H773 C788 0.930 . S
C774 H762 0.930 . S
C774 C775 1.399 1_545 S
C774 C779 1.399 . S
C775 C774 1.399 1_565 S
C775 C776 1.376 . S
C776 H763 0.930 . S
C776 C775 1.376 . S
C776 C777 1.388 . S
C777 H764 0.930 . S
C777 C776 1.388 . S
C777 C778 1.390 . S
C778 C777 1.390 . S
C778 C779 1.394 1_565 S
C778 C784 1.465 1_556 S
C779 C774 1.399 . S
C779 C778 1.394 1_545 S
C779 C780 1.516 . S
C780 C779 1.516 . S
C780 C781 1.502 . S
C780 C782 1.561 . S
C780 C783 1.526 1_556 S
C781 H765 0.959 . S
C781 H766 0.959 1_556 S
C781 H767 0.961 . S
C781 C780 1.502 . S
C782 H768 0.960 . S
C782 H769 0.961 1_556 S
C782 H770 0.959 . S
C782 C780 1.561 . S
C783 C780 1.526 1_554 S
C783 C784 1.396 1_545 S
C783 C788 1.390 . S
C784 C778 1.465 1_554 S
C784 C783 1.396 1_565 S
C784 C785 1.399 . S
C785 H771 0.929 . S
C785 C784 1.399 . S
C785 C786 1.385 . S
C786 H772 0.931 . S
C786 C785 1.385 . S
C786 C787 1.389 1_565 S
C787 C786 1.389 1_545 S
C787 C788 1.387 . S
C788 H773 0.930 . S
C788 C783 1.390 . S
C788 C787 1.387 . S
H789 C801 0.930 . S
H790 C803 0.930 . S
H791 C804 0.930 . S
H792 C808 0.959 . S
H793 C808 0.959 . S
H794 C808 0.961 . S
H795 C809 0.960 . S
H796 C809 0.961 . S
H797 C809 0.959 . S
H798 C812 0.929 . S
H799 C813 0.931 . S
H800 C815 0.930 . S
C801 H789 0.930 . S
C801 C802 1.399 . S
C801 C806 1.399 . S
C802 C801 1.399 . S
C802 C803 1.376 . S
C803 H790 0.930 . S
C803 C802 1.376 . S
C803 C804 1.388 . S
C804 H791 0.930 . S
C804 C803 1.388 . S
C804 C805 1.390 . S
C805 C804 1.390 . S
C805 C806 1.394 . S
C805 C811 1.465 . S
C806 C801 1.399 . S
C806 C805 1.394 . S
C806 C807 1.516 . S
C807 C806 1.516 . S
C807 C808 1.502 . S
C807 C809 1.561 . S
C807 C810 1.526 . S
C808 H792 0.959 . S
C808 H793 0.959 . S
C808 H794 0.961 . S
C808 C807 1.502 . S
C809 H795 0.960 . S
C809 H796 0.961 . S
C809 H797 0.959 . S
C809 C807 1.561 . S
C810 C807 1.526 . S
C810 C811 1.396 . S
C810 C815 1.390 . S
C811 C805 1.465 . S
C811 C810 1.396 . S
C811 C812 1.399 . S
C812 H798 0.929 . S
C812 C811 1.399 . S
C812 C813 1.385 . S
C813 H799 0.931 . S
C813 C812 1.385 . S
C813 C814 1.389 . S
C814 C813 1.389 . S
C814 C815 1.387 . S
C815 H800 0.930 . S
C815 C810 1.390 . S
C815 C814 1.387 . S
H816 C828 0.941 1_455 S
H817 C830 0.930 . S
H818 C831 0.930 . S
H819 C835 0.959 1_655 S
H820 C835 0.959 . S
H821 C835 0.961 . S
H822 C836 0.960 . S
H823 C836 0.961 . S
H824 C836 0.959 . S
H825 C839 0.929 . S
H826 C840 0.924 . S
H827 C842 0.930 . S
C828 H816 0.941 1_655 S
C828 C829 1.399 . S
C828 C833 1.399 1_655 S
C829 C828 1.399 . S
C829 C830 1.376 . S
C830 H817 0.930 . S
C830 C829 1.376 . S
C830 C831 1.388 . S
C831 H818 0.930 . S
C831 C830 1.388 . S
C831 C832 1.390 . S
C832 C831 1.390 . S
C832 C833 1.394 1_655 S
C832 C838 1.460 1_655 S
C833 C828 1.399 1_455 S
C833 C832 1.394 1_455 S
C833 C834 1.516 . S
C834 C833 1.516 . S
C834 C835 1.502 . S
C834 C836 1.561 . S
C834 C837 1.526 . S
C835 H819 0.959 1_455 S
C835 H820 0.959 . S
C835 H821 0.961 . S
C835 C834 1.502 . S
C836 H822 0.960 . S
C836 H823 0.961 . S
C836 H824 0.959 . S
C836 C834 1.561 . S
C837 C834 1.526 . S
C837 C838 1.393 . S
C837 C842 1.390 . S
C838 C832 1.460 1_455 S
C838 C837 1.393 . S
C838 C839 1.407 1_455 S
C839 H825 0.929 . S
C839 C838 1.407 1_655 S
C839 C840 1.385 1_655 S
C840 H826 0.924 . S
C840 C839 1.385 1_455 S
C840 C841 1.389 . S
C841 C840 1.389 . S
C841 C842 1.387 . S
C842 H827 0.930 . S
C842 C837 1.390 . S
C842 C841 1.387 . S
H843 C855 0.930 . S
H844 C857 0.930 . S
H845 C858 0.930 . S
H846 C862 0.959 . S
H847 C862 0.959 . S
H848 C862 0.961 1_554 S
H849 C863 0.960 1_554 S
H850 C863 0.961 . S
H851 C863 0.959 . S
H852 C866 0.929 . S
H853 C867 0.931 . S
H854 C869 0.930 . S
C855 H843 0.930 . S
C855 C856 1.399 . S
C855 C860 1.399 . S
C856 C855 1.399 . S
C856 C857 1.376 1_565 S
C857 H844 0.930 . S
C857 C856 1.376 1_545 S
C857 C858 1.388 . S
C858 H845 0.930 . S
C858 C857 1.388 . S
C858 C859 1.390 . S
C859 C858 1.390 . S
C859 C860 1.394 1_545 S
C859 C865 1.465 1_554 S
C860 C855 1.399 . S
C860 C859 1.394 1_565 S
C860 C861 1.516 1_554 S
C861 C860 1.516 1_556 S
C861 C862 1.502 . S
C861 C863 1.561 . S
C861 C864 1.526 . S
C862 H846 0.959 . S
C862 H847 0.959 . S
C862 H848 0.961 1_556 S
C862 C861 1.502 . S
C863 H849 0.960 1_556 S
C863 H850 0.961 . S
C863 H851 0.959 . S
C863 C861 1.561 . S
C864 C861 1.526 . S
C864 C865 1.396 1_565 S
C864 C869 1.390 . S
C865 C859 1.465 1_556 S
C865 C864 1.396 1_545 S
C865 C866 1.399 . S
C866 H852 0.929 . S
C866 C865 1.399 . S
C866 C867 1.385 . S
C867 H853 0.931 . S
C867 C866 1.385 . S
C867 C868 1.389 . S
C868 C867 1.389 . S
C868 C869 1.387 1_545 S
C869 H854 0.930 . S
C869 C864 1.390 . S
C869 C868 1.387 1_565 S
H870 C882 0.930 . S
H871 C884 0.930 . S
H872 C885 0.930 . S
H873 C889 0.959 . S
H874 C889 0.959 . S
H875 C889 0.961 . S
H876 C890 0.960 . S
H877 C890 0.961 . S
H878 C890 0.959 . S
H879 C893 0.929 . S
H880 C894 0.931 . S
H881 C896 0.930 . S
C882 H870 0.930 . S
C882 C883 1.399 . S
C882 C887 1.399 . S
C883 C882 1.399 . S
C883 C884 1.376 . S
C884 H871 0.930 . S
C884 C883 1.376 . S
C884 C885 1.388 . S
C885 H872 0.930 . S
C885 C884 1.388 . S
C885 C886 1.390 . S
C886 C885 1.390 . S
C886 C887 1.394 . S
C886 C892 1.465 . S
C887 C882 1.399 . S
C887 C886 1.394 . S
C887 C888 1.516 1_556 S
C888 C887 1.516 1_554 S
C888 C889 1.502 . S
C888 C890 1.561 1_554 S
C888 C891 1.526 . S
C889 H873 0.959 . S
C889 H874 0.959 . S
C889 H875 0.961 . S
C889 C888 1.502 . S
C890 H876 0.960 . S
C890 H877 0.961 . S
C890 H878 0.959 . S
C890 C888 1.561 1_556 S
C891 C888 1.526 . S
C891 C892 1.396 1_554 S
C891 C896 1.390 . S
C892 C886 1.465 . S
C892 C891 1.396 1_556 S
C892 C893 1.399 . S
C893 H879 0.929 . S
C893 C892 1.399 . S
C893 C894 1.385 1_556 S
C894 H880 0.931 . S
C894 C893 1.385 1_554 S
C894 C895 1.389 . S
C895 C894 1.389 . S
C895 C896 1.387 . S
C896 H881 0.930 . S
C896 C891 1.390 . S
C896 C895 1.387 . S
H897 C909 0.930 . S
H898 C911 0.930 . S
H899 C912 0.930 . S
H900 C916 0.959 . S
H901 C916 0.959 . S
H902 C916 0.961 . S
H903 C917 0.960 . S
H904 C917 0.961 . S
H905 C917 0.959 . S
H906 C920 0.929 . S
H907 C921 0.931 . S
H908 C923 0.930 . S
C909 H897 0.930 . S
C909 C910 1.399 . S
C909 C914 1.399 . S
C910 C909 1.399 . S
C910 C911 1.376 . S
C911 H898 0.930 . S
C911 C910 1.376 . S
C911 C912 1.388 . S
C912 H899 0.930 . S
C912 C911 1.388 . S
C912 C913 1.390 . S
C913 C912 1.390 . S
C913 C914 1.394 . S
C913 C919 1.465 . S
C914 C909 1.399 . S
C914 C913 1.394 . S
C914 C915 1.516 . S
C915 C914 1.516 . S
C915 C916 1.502 . S
C915 C917 1.561 . S
C915 C918 1.526 . S
C916 H900 0.959 . S
C916 H901 0.959 . S
C916 H902 0.961 . S
C916 C915 1.502 . S
C917 H903 0.960 . S
C917 H904 0.961 . S
C917 H905 0.959 . S
C917 C915 1.561 . S
C918 C915 1.526 . S
C918 C919 1.396 . S
C918 C923 1.390 . S
C919 C913 1.465 . S
C919 C918 1.396 . S
C919 C920 1.399 . S
C920 H906 0.929 . S
C920 C919 1.399 . S
C920 C921 1.385 . S
C921 H907 0.931 . S
C921 C920 1.385 . S
C921 C922 1.389 . S
C922 C921 1.389 . S
C922 C923 1.387 . S
C923 H908 0.930 . S
C923 C918 1.390 . S
C923 C922 1.387 . S
H924 C936 0.930 . S
H925 C938 0.930 . S
H926 C939 0.930 . S
H927 C943 0.959 . S
H928 C943 0.959 . S
H929 C943 0.961 . S
H930 C944 0.960 . S
H931 C944 0.961 . S
H932 C944 0.959 . S
H933 C947 0.929 . S
H934 C948 0.931 . S
H935 C950 0.930 . S
C936 H924 0.930 . S
C936 C937 1.399 . S
C936 C941 1.399 . S
C937 C936 1.399 . S
C937 C938 1.376 . S
C938 H925 0.930 . S
C938 C937 1.376 . S
C938 C939 1.388 . S
C939 H926 0.930 . S
C939 C938 1.388 . S
C939 C940 1.390 . S
C940 C939 1.390 . S
C940 C941 1.394 . S
C940 C946 1.465 . S
C941 C936 1.399 . S
C941 C940 1.394 . S
C941 C942 1.516 . S
C942 C941 1.516 . S
C942 C943 1.502 . S
C942 C944 1.561 . S
C942 C945 1.526 . S
C943 H927 0.959 . S
C943 H928 0.959 . S
C943 H929 0.961 . S
C943 C942 1.502 . S
C944 H930 0.960 . S
C944 H931 0.961 . S
C944 H932 0.959 . S
C944 C942 1.561 . S
C945 C942 1.526 . S
C945 C946 1.396 . S
C945 C950 1.390 . S
C946 C940 1.465 . S
C946 C945 1.396 . S
C946 C947 1.399 . S
C947 H933 0.929 . S
C947 C946 1.399 . S
C947 C948 1.385 . S
C948 H934 0.931 . S
C948 C947 1.385 . S
C948 C949 1.389 . S
C949 C948 1.389 . S
C949 C950 1.387 . S
C950 H935 0.930 . S
C950 C945 1.390 . S
C950 C949 1.387 . S
H951 C963 0.930 . S
H952 C965 0.930 . S
H953 C966 0.930 . S
H954 C970 0.959 . S
H955 C970 0.959 . S
H956 C970 0.961 . S
H957 C971 0.960 . S
H958 C971 0.961 . S
H959 C971 0.959 . S
H960 C974 0.929 . S
H961 C975 0.931 . S
H962 C977 0.930 . S
C963 H951 0.930 . S
C963 C964 1.399 . S
C963 C968 1.399 . S
C964 C963 1.399 . S
C964 C965 1.376 . S
C965 H952 0.930 . S
C965 C964 1.376 . S
C965 C966 1.388 . S
C966 H953 0.930 . S
C966 C965 1.388 . S
C966 C967 1.390 . S
C967 C966 1.390 . S
C967 C968 1.394 . S
C967 C973 1.465 . S
C968 C963 1.399 . S
C968 C967 1.394 . S
C968 C969 1.516 1_554 S
C969 C968 1.516 1_556 S
C969 C970 1.502 . S
C969 C971 1.561 1_556 S
C969 C972 1.526 . S
C970 H954 0.959 . S
C970 H955 0.959 . S
C970 H956 0.961 . S
C970 C969 1.502 . S
C971 H957 0.960 . S
C971 H958 0.961 . S
C971 H959 0.959 . S
C971 C969 1.561 1_554 S
C972 C969 1.526 . S
C972 C973 1.396 1_556 S
C972 C977 1.390 . S
C973 C967 1.465 . S
C973 C972 1.396 1_554 S
C973 C974 1.399 . S
C974 H960 0.929 . S
C974 C973 1.399 . S
C974 C975 1.385 1_554 S
C975 H961 0.931 . S
C975 C974 1.385 1_556 S
C975 C976 1.389 . S
C976 C975 1.389 . S
C976 C977 1.387 . S
C977 H962 0.930 . S
C977 C972 1.390 . S
C977 C976 1.387 . S
H978 C990 0.930 . S
H979 C992 0.930 . S
H980 C993 0.930 . S
H981 C997 0.959 . S
H982 C997 0.959 . S
H983 C997 0.961 . S
H984 C998 0.960 . S
H985 C998 0.961 . S
H986 C998 0.959 . S
H987 C1001 0.929 . S
H988 C1002 0.931 . S
H989 C1004 0.930 . S
C990 H978 0.930 . S
C990 C991 1.399 . S
C990 C995 1.399 . S
C991 C990 1.399 . S
C991 C992 1.376 . S
C992 H979 0.930 . S
C992 C991 1.376 . S
C992 C993 1.388 . S
C993 H980 0.930 . S
C993 C992 1.388 . S
C993 C994 1.390 . S
C994 C993 1.390 . S
C994 C995 1.394 . S
C994 C1000 1.465 . S
C995 C990 1.399 . S
C995 C994 1.394 . S
C995 C996 1.516 . S
C996 C995 1.516 . S
C996 C997 1.502 . S
C996 C998 1.561 . S
C996 C999 1.526 . S
C997 H981 0.959 . S
C997 H982 0.959 . S
C997 H983 0.961 . S
C997 C996 1.502 . S
C998 H984 0.960 . S
C998 H985 0.961 . S
C998 H986 0.959 . S
C998 C996 1.561 . S
C999 C996 1.526 . S
C999 C1000 1.396 . S
C999 C1004 1.390 . S
C1000 C994 1.465 . S
C1000 C999 1.396 . S
C1000 C1001 1.399 . S
C1001 H987 0.929 . S
C1001 C1000 1.399 . S
C1001 C1002 1.385 . S
C1002 H988 0.931 . S
C1002 C1001 1.385 . S
C1002 C1003 1.389 . S
C1003 C1002 1.389 . S
C1003 C1004 1.387 . S
C1004 H989 0.930 . S
C1004 C999 1.390 . S
C1004 C1003 1.387 . S
H1005 C1017 0.930 . S
H1006 C1019 0.930 . S
H1007 C1020 0.930 . S
H1008 C1024 0.959 . S
H1009 C1024 0.959 . S
H1010 C1024 0.961 . S
H1011 C1025 0.960 . S
H1012 C1025 0.961 . S
H1013 C1025 0.959 . S
H1014 C1028 0.929 . S
H1015 C1029 0.931 . S
H1016 C1031 0.930 . S
C1017 H1005 0.930 . S
C1017 C1018 1.399 . S
C1017 C1022 1.399 . S
C1018 C1017 1.399 . S
C1018 C1019 1.376 . S
C1019 H1006 0.930 . S
C1019 C1018 1.376 . S
C1019 C1020 1.388 . S
C1020 H1007 0.930 . S
C1020 C1019 1.388 . S
C1020 C1021 1.390 . S
C1021 C1020 1.390 . S
C1021 C1022 1.394 . S
C1021 C1027 1.465 . S
C1022 C1017 1.399 . S
C1022 C1021 1.394 . S
C1022 C1023 1.516 . S
C1023 C1022 1.516 . S
C1023 C1024 1.502 . S
C1023 C1025 1.561 . S
C1023 C1026 1.526 . S
C1024 H1008 0.959 . S
C1024 H1009 0.959 . S
C1024 H1010 0.961 . S
C1024 C1023 1.502 . S
C1025 H1011 0.960 . S
C1025 H1012 0.961 . S
C1025 H1013 0.959 . S
C1025 C1023 1.561 . S
C1026 C1023 1.526 . S
C1026 C1027 1.396 . S
C1026 C1031 1.390 . S
C1027 C1021 1.465 . S
C1027 C1026 1.396 . S
C1027 C1028 1.399 . S
C1028 H1014 0.929 . S
C1028 C1027 1.399 . S
C1028 C1029 1.385 . S
C1029 H1015 0.931 . S
C1029 C1028 1.385 . S
C1029 C1030 1.389 . S
C1030 C1029 1.389 . S
C1030 C1031 1.387 . S
C1031 H1016 0.930 . S
C1031 C1026 1.390 . S
C1031 C1030 1.387 . S
H1032 C1044 0.930 . S
H1033 C1046 0.930 . S
H1034 C1047 0.930 . S
H1035 C1051 0.959 . S
H1036 C1051 0.959 . S
H1037 C1051 0.961 . S
H1038 C1052 0.960 . S
H1039 C1052 0.961 . S
H1040 C1052 0.959 . S
H1041 C1055 0.929 . S
H1042 C1056 0.931 . S
H1043 C1058 0.930 . S
C1044 H1032 0.930 . S
C1044 C1045 1.399 . S
C1044 C1049 1.399 . S
C1045 C1044 1.399 . S
C1045 C1046 1.376 . S
C1046 H1033 0.930 . S
C1046 C1045 1.376 . S
C1046 C1047 1.388 . S
C1047 H1034 0.930 . S
C1047 C1046 1.388 . S
C1047 C1048 1.390 . S
C1048 C1047 1.390 . S
C1048 C1049 1.394 . S
C1048 C1054 1.465 . S
C1049 C1044 1.399 . S
C1049 C1048 1.394 . S
C1049 C1050 1.516 . S
C1050 C1049 1.516 . S
C1050 C1051 1.502 . S
C1050 C1052 1.561 . S
C1050 C1053 1.526 . S
C1051 H1035 0.959 . S
C1051 H1036 0.959 . S
C1051 H1037 0.961 . S
C1051 C1050 1.502 . S
C1052 H1038 0.960 . S
C1052 H1039 0.961 . S
C1052 H1040 0.959 . S
C1052 C1050 1.561 . S
C1053 C1050 1.526 . S
C1053 C1054 1.396 . S
C1053 C1058 1.390 . S
C1054 C1048 1.465 . S
C1054 C1053 1.396 . S
C1054 C1055 1.399 . S
C1055 H1041 0.929 . S
C1055 C1054 1.399 . S
C1055 C1056 1.385 . S
C1056 H1042 0.931 . S
C1056 C1055 1.385 . S
C1056 C1057 1.389 . S
C1057 C1056 1.389 . S
C1057 C1058 1.387 . S
C1058 H1043 0.930 . S
C1058 C1053 1.390 . S
C1058 C1057 1.387 . S
H1059 C1071 0.930 . S
H1060 C1073 0.930 . S
H1061 C1074 0.930 . S
H1062 C1078 0.959 . S
H1063 C1078 0.959 . S
H1064 C1078 0.961 . S
H1065 C1079 0.960 . S
H1066 C1079 0.961 . S
H1067 C1079 0.959 . S
H1068 C1082 0.929 1_655 S
H1069 C1083 0.931 . S
H1070 C1085 0.930 . S
C1071 H1059 0.930 . S
C1071 C1072 1.399 . S
C1071 C1076 1.389 1_655 S
C1072 C1071 1.399 . S
C1072 C1073 1.376 . S
C1073 H1060 0.930 . S
C1073 C1072 1.376 . S
C1073 C1074 1.388 . S
C1074 H1061 0.930 . S
C1074 C1073 1.388 . S
C1074 C1075 1.390 . S
C1075 C1074 1.390 . S
C1075 C1076 1.411 1_655 S
C1075 C1081 1.465 1_655 S
C1076 C1071 1.389 1_455 S
C1076 C1075 1.411 1_455 S
C1076 C1077 1.514 . S
C1077 C1076 1.514 . S
C1077 C1078 1.502 1_455 S
C1077 C1079 1.561 . S
C1077 C1080 1.526 . S
C1078 H1062 0.959 . S
C1078 H1063 0.959 . S
C1078 H1064 0.961 . S
C1078 C1077 1.502 1_655 S
C1079 H1065 0.960 . S
C1079 H1066 0.961 . S
C1079 H1067 0.959 . S
C1079 C1077 1.561 . S
C1080 C1077 1.526 . S
C1080 C1081 1.396 . S
C1080 C1085 1.390 . S
C1081 C1075 1.465 1_455 S
C1081 C1080 1.396 . S
C1081 C1082 1.399 . S
C1082 H1068 0.929 1_455 S
C1082 C1081 1.399 . S
C1082 C1083 1.385 . S
C1083 H1069 0.931 . S
C1083 C1082 1.385 . S
C1083 C1084 1.389 . S
C1084 C1083 1.389 . S
C1084 C1085 1.387 . S
C1085 H1070 0.930 . S
C1085 C1080 1.390 . S
C1085 C1084 1.387 . S
H1086 C1098 0.930 . S
H1087 C1100 0.930 . S
H1088 C1101 0.930 . S
H1089 C1105 0.959 . S
H1090 C1105 0.959 . S
H1091 C1105 0.961 . S
H1092 C1106 0.960 . S
H1093 C1106 0.961 . S
H1094 C1106 0.959 . S
H1095 C1109 0.929 . S
H1096 C1110 0.931 . S
H1097 C1112 0.930 . S
C1098 H1086 0.930 . S
C1098 C1099 1.399 . S
C1098 C1103 1.399 . S
C1099 C1098 1.399 . S
C1099 C1100 1.376 1_565 S
C1100 H1087 0.930 . S
C1100 C1099 1.376 1_545 S
C1100 C1101 1.388 . S
C1101 H1088 0.930 . S
C1101 C1100 1.388 . S
C1101 C1102 1.390 . S
C1102 C1101 1.390 . S
C1102 C1103 1.394 1_545 S
C1102 C1108 1.465 . S
C1103 C1098 1.399 . S
C1103 C1102 1.394 1_565 S
C1103 C1104 1.516 . S
C1104 C1103 1.516 . S
C1104 C1105 1.502 . S
C1104 C1106 1.561 . S
C1104 C1107 1.526 . S
C1105 H1089 0.959 . S
C1105 H1090 0.959 . S
C1105 H1091 0.961 . S
C1105 C1104 1.502 . S
C1106 H1092 0.960 . S
C1106 H1093 0.961 . S
C1106 H1094 0.959 . S
C1106 C1104 1.561 . S
C1107 C1104 1.526 . S
C1107 C1108 1.396 1_565 S
C1107 C1112 1.390 . S
C1108 C1102 1.465 . S
C1108 C1107 1.396 1_545 S
C1108 C1109 1.399 . S
C1109 H1095 0.929 . S
C1109 C1108 1.399 . S
C1109 C1110 1.385 . S
C1110 H1096 0.931 . S
C1110 C1109 1.385 . S
C1110 C1111 1.389 . S
C1111 C1110 1.389 . S
C1111 C1112 1.387 1_545 S
C1112 H1097 0.930 . S
C1112 C1107 1.390 . S
C1112 C1111 1.387 1_565 S
H1113 C1125 0.930 . S
H1114 C1127 0.930 . S
H1115 C1128 0.930 . S
H1116 C1132 0.959 . S
H1117 C1132 0.959 . S
H1118 C1132 0.961 . S
H1119 C1133 0.960 . S
H1120 C1133 0.961 . S
H1121 C1133 0.959 . S
H1122 C1136 0.929 . S
H1123 C1137 0.931 . S
H1124 C1139 0.930 . S
C1125 H1113 0.930 . S
C1125 C1126 1.399 . S
C1125 C1130 1.399 . S
C1126 C1125 1.399 . S
C1126 C1127 1.376 . S
C1127 H1114 0.930 . S
C1127 C1126 1.376 . S
C1127 C1128 1.388 . S
C1128 H1115 0.930 . S
C1128 C1127 1.388 . S
C1128 C1129 1.390 . S
C1129 C1128 1.390 . S
C1129 C1130 1.394 . S
C1129 C1135 1.465 . S
C1130 C1125 1.399 . S
C1130 C1129 1.394 . S
C1130 C1131 1.516 . S
C1131 C1130 1.516 . S
C1131 C1132 1.502 . S
C1131 C1133 1.561 . S
C1131 C1134 1.526 . S
C1132 H1116 0.959 . S
C1132 H1117 0.959 . S
C1132 H1118 0.961 . S
C1132 C1131 1.502 . S
C1133 H1119 0.960 . S
C1133 H1120 0.961 . S
C1133 H1121 0.959 . S
C1133 C1131 1.561 . S
C1134 C1131 1.526 . S
C1134 C1135 1.396 . S
C1134 C1139 1.390 . S
C1135 C1129 1.465 . S
C1135 C1134 1.396 . S
C1135 C1136 1.399 . S
C1136 H1122 0.929 . S
C1136 C1135 1.399 . S
C1136 C1137 1.385 . S
C1137 H1123 0.931 . S
C1137 C1136 1.385 . S
C1137 C1138 1.389 . S
C1138 C1137 1.389 . S
C1138 C1139 1.387 . S
C1139 H1124 0.930 . S
C1139 C1134 1.390 . S
C1139 C1138 1.387 . S
H1140 C1152 0.930 . S
H1141 C1154 0.930 . S
H1142 C1155 0.930 . S
H1143 C1159 0.959 . S
H1144 C1159 0.959 . S
H1145 C1159 0.961 . S
H1146 C1160 0.960 . S
H1147 C1160 0.961 . S
H1148 C1160 0.959 . S
H1149 C1163 0.929 . S
H1150 C1164 0.931 . S
H1151 C1166 0.930 . S
C1152 H1140 0.930 . S
C1152 C1153 1.399 . S
C1152 C1157 1.399 . S
C1153 C1152 1.399 . S
C1153 C1154 1.376 . S
C1154 H1141 0.930 . S
C1154 C1153 1.376 . S
C1154 C1155 1.388 . S
C1155 H1142 0.930 . S
C1155 C1154 1.388 . S
C1155 C1156 1.390 . S
C1156 C1155 1.390 . S
C1156 C1157 1.394 . S
C1156 C1162 1.462 1_455 S
C1157 C1152 1.399 . S
C1157 C1156 1.394 . S
C1157 C1158 1.516 . S
C1158 C1157 1.516 . S
C1158 C1159 1.502 1_455 S
C1158 C1160 1.561 . S
C1158 C1161 1.534 1_455 S
C1159 H1143 0.959 . S
C1159 H1144 0.959 . S
C1159 H1145 0.961 . S
C1159 C1158 1.502 1_655 S
C1160 H1146 0.960 . S
C1160 H1147 0.961 . S
C1160 H1148 0.959 . S
C1160 C1158 1.561 . S
C1161 C1158 1.534 1_655 S
C1161 C1162 1.385 . S
C1161 C1166 1.403 . S
C1162 C1156 1.462 1_655 S
C1162 C1161 1.385 . S
C1162 C1163 1.393 . S
C1163 H1149 0.929 . S
C1163 C1162 1.393 . S
C1163 C1164 1.385 . S
C1164 H1150 0.931 . S
C1164 C1163 1.385 . S
C1164 C1165 1.389 . S
C1165 C1164 1.389 . S
C1165 C1166 1.387 . S
C1166 H1151 0.930 . S
C1166 C1161 1.403 . S
C1166 C1165 1.387 . S
H1167 C1179 0.930 . S
H1168 C1181 0.930 . S
H1169 C1182 0.930 . S
H1170 C1186 0.959 . S
H1171 C1186 0.959 . S
H1172 C1186 0.961 . S
H1173 C1187 0.960 . S
H1174 C1187 0.961 . S
H1175 C1187 0.959 . S
H1176 C1190 0.929 . S
H1177 C1191 0.931 . S
H1178 C1193 0.930 . S
C1179 H1167 0.930 . S
C1179 C1180 1.399 1_545 S
C1179 C1184 1.399 . S
C1180 C1179 1.399 1_565 S
C1180 C1181 1.376 . S
C1181 H1168 0.930 . S
C1181 C1180 1.376 . S
C1181 C1182 1.388 . S
C1182 H1169 0.930 . S
C1182 C1181 1.388 . S
C1182 C1183 1.390 . S
C1183 C1182 1.390 . S
C1183 C1184 1.394 1_565 S
C1183 C1189 1.465 . S
C1184 C1179 1.399 . S
C1184 C1183 1.394 1_545 S
C1184 C1185 1.516 . S
C1185 C1184 1.516 . S
C1185 C1186 1.502 . S
C1185 C1187 1.561 . S
C1185 C1188 1.526 . S
C1186 H1170 0.959 . S
C1186 H1171 0.959 . S
C1186 H1172 0.961 . S
C1186 C1185 1.502 . S
C1187 H1173 0.960 . S
C1187 H1174 0.961 . S
C1187 H1175 0.959 . S
C1187 C1185 1.561 . S
C1188 C1185 1.526 . S
C1188 C1189 1.396 1_545 S
C1188 C1193 1.390 . S
C1189 C1183 1.465 . S
C1189 C1188 1.396 1_565 S
C1189 C1190 1.399 . S
C1190 H1176 0.929 . S
C1190 C1189 1.399 . S
C1190 C1191 1.385 . S
C1191 H1177 0.931 . S
C1191 C1190 1.385 . S
C1191 C1192 1.389 1_565 S
C1192 C1191 1.389 1_545 S
C1192 C1193 1.387 . S
C1193 H1178 0.930 . S
C1193 C1188 1.390 . S
C1193 C1192 1.387 . S
H1194 C1206 0.930 . S
H1195 C1208 0.930 1_556 S
H1196 C1209 0.926 1_556 S
H1197 C1213 0.959 . S
H1198 C1213 0.959 . S
H1199 C1213 0.961 . S
H1200 C1214 0.960 . S
H1201 C1214 0.961 . S
H1202 C1214 0.959 . S
H1203 C1217 0.951 . S
H1204 C1218 0.931 1_556 S
H1205 C1220 0.930 . S
C1206 H1194 0.930 . S
C1206 C1207 1.399 . S
C1206 C1211 1.399 . S
C1207 C1206 1.399 . S
C1207 C1208 1.376 . S
C1208 H1195 0.930 1_554 S
C1208 C1207 1.376 . S
C1208 C1209 1.389 . S
C1209 H1196 0.926 1_554 S
C1209 C1208 1.389 . S
C1209 C1210 1.393 . S
C1210 C1209 1.393 . S
C1210 C1211 1.394 . S
C1210 C1216 1.465 . S
C1211 C1206 1.399 . S
C1211 C1210 1.394 . S
C1211 C1212 1.516 . S
C1212 C1211 1.516 . S
C1212 C1213 1.502 . S
C1212 C1214 1.561 . S
C1212 C1215 1.526 . S
C1213 H1197 0.959 . S
C1213 H1198 0.959 . S
C1213 H1199 0.961 . S
C1213 C1212 1.502 . S
C1214 H1200 0.960 . S
C1214 H1201 0.961 . S
C1214 H1202 0.959 . S
C1214 C1212 1.561 . S
C1215 C1212 1.526 . S
C1215 C1216 1.396 . S
C1215 C1220 1.390 . S
C1216 C1210 1.465 . S
C1216 C1215 1.396 . S
C1216 C1217 1.381 1_554 S
C1217 H1203 0.951 . S
C1217 C1216 1.381 1_556 S
C1217 C1218 1.381 1_556 S
C1218 H1204 0.931 1_554 S
C1218 C1217 1.381 1_554 S
C1218 C1219 1.389 . S
C1219 C1218 1.389 . S
C1219 C1220 1.387 . S
C1220 H1205 0.930 . S
C1220 C1215 1.390 . S
C1220 C1219 1.387 . S
H1221 C1233 0.930 . S
H1222 C1235 0.930 . S
H1223 C1236 0.930 . S
H1224 C1240 0.959 . S
H1225 C1240 0.959 . S
H1226 C1240 0.961 . S
H1227 C1241 0.960 . S
H1228 C1241 0.961 . S
H1229 C1241 0.959 . S
H1230 C1244 0.929 . S
H1231 C1245 0.931 . S
H1232 C1247 0.930 . S
C1233 H1221 0.930 . S
C1233 C1234 1.399 1_655 S
C1233 C1238 1.399 . S
C1234 C1233 1.399 1_455 S
C1234 C1235 1.376 . S
C1235 H1222 0.930 . S
C1235 C1234 1.376 . S
C1235 C1236 1.388 . S
C1236 H1223 0.930 . S
C1236 C1235 1.388 . S
C1236 C1237 1.390 . S
C1237 C1236 1.390 . S
C1237 C1238 1.394 1_455 S
C1237 C1243 1.465 . S
C1238 C1233 1.399 . S
C1238 C1237 1.394 1_655 S
C1238 C1239 1.516 . S
C1239 C1238 1.516 . S
C1239 C1240 1.502 . S
C1239 C1241 1.561 . S
C1239 C1242 1.526 . S
C1240 H1224 0.959 . S
C1240 H1225 0.959 . S
C1240 H1226 0.961 . S
C1240 C1239 1.502 . S
C1241 H1227 0.960 . S
C1241 H1228 0.961 . S
C1241 H1229 0.959 . S
C1241 C1239 1.561 . S
C1242 C1239 1.526 . S
C1242 C1243 1.396 1_655 S
C1242 C1247 1.390 . S
C1243 C1237 1.465 . S
C1243 C1242 1.396 1_455 S
C1243 C1244 1.399 . S
C1244 H1230 0.929 . S
C1244 C1243 1.399 . S
C1244 C1245 1.385 . S
C1245 H1231 0.931 . S
C1245 C1244 1.385 . S
C1245 C1246 1.389 1_455 S
C1246 C1245 1.389 1_655 S
C1246 C1247 1.387 . S
C1247 H1232 0.930 . S
C1247 C1242 1.390 . S
C1247 C1246 1.387 . S
H1248 C1260 0.930 . S
H1249 C1262 0.921 . S
H1250 C1263 0.930 . S
H1251 C1267 0.959 . S
H1252 C1267 0.959 . S
H1253 C1267 0.961 . S
H1254 C1268 0.960 . S
H1255 C1268 0.961 . S
H1256 C1268 0.959 . S
H1257 C1271 0.929 . S
H1258 C1272 0.931 . S
H1259 C1274 0.930 . S
C1260 H1248 0.930 . S
C1260 C1261 1.399 . S
C1260 C1265 1.399 . S
C1261 C1260 1.399 . S
C1261 C1262 1.376 . S
C1262 H1249 0.921 . S
C1262 C1261 1.376 . S
C1262 C1263 1.388 1_565 S
C1263 H1250 0.930 . S
C1263 C1262 1.388 1_545 S
C1263 C1264 1.390 . S
C1264 C1263 1.390 . S
C1264 C1265 1.394 1_545 S
C1264 C1270 1.465 . S
C1265 C1260 1.399 . S
C1265 C1264 1.394 1_565 S
C1265 C1266 1.516 . S
C1266 C1265 1.516 . S
C1266 C1267 1.502 . S
C1266 C1268 1.561 1_565 S
C1266 C1269 1.526 1_565 S
C1267 H1251 0.959 . S
C1267 H1252 0.959 . S
C1267 H1253 0.961 . S
C1267 C1266 1.502 . S
C1268 H1254 0.960 . S
C1268 H1255 0.961 . S
C1268 H1256 0.959 . S
C1268 C1266 1.561 1_545 S
C1269 C1266 1.526 1_545 S
C1269 C1270 1.396 . S
C1269 C1274 1.390 . S
C1270 C1264 1.465 . S
C1270 C1269 1.396 . S
C1270 C1271 1.399 . S
C1271 H1257 0.929 . S
C1271 C1270 1.399 . S
C1271 C1272 1.385 . S
C1272 H1258 0.931 . S
C1272 C1271 1.385 . S
C1272 C1273 1.389 . S
C1273 C1272 1.389 . S
C1273 C1274 1.387 . S
C1274 H1259 0.930 . S
C1274 C1269 1.390 . S
C1274 C1273 1.387 . S
H1275 C1287 0.930 . S
H1276 C1289 0.930 . S
H1277 C1290 0.930 . S
H1278 C1294 0.959 . S
H1279 C1294 0.959 . S
H1280 C1294 0.961 . S
H1281 C1295 0.960 . S
H1282 C1295 0.961 . S
H1283 C1295 0.959 . S
H1284 C1298 0.929 . S
H1285 C1299 0.931 . S
H1286 C1301 0.930 . S
C1287 H1275 0.930 . S
C1287 C1288 1.399 . S
C1287 C1292 1.399 . S
C1288 C1287 1.399 . S
C1288 C1289 1.376 . S
C1289 H1276 0.930 . S
C1289 C1288 1.376 . S
C1289 C1290 1.388 . S
C1290 H1277 0.930 . S
C1290 C1289 1.388 . S
C1290 C1291 1.390 . S
C1291 C1290 1.390 . S
C1291 C1292 1.394 . S
C1291 C1297 1.465 . S
C1292 C1287 1.399 . S
C1292 C1291 1.394 . S
C1292 C1293 1.516 . S
C1293 C1292 1.516 . S
C1293 C1294 1.502 . S
C1293 C1295 1.561 . S
C1293 C1296 1.526 . S
C1294 H1278 0.959 . S
C1294 H1279 0.959 . S
C1294 H1280 0.961 . S
C1294 C1293 1.502 . S
C1295 H1281 0.960 . S
C1295 H1282 0.961 . S
C1295 H1283 0.959 . S
C1295 C1293 1.561 . S
C1296 C1293 1.526 . S
C1296 C1297 1.396 . S
C1296 C1301 1.390 . S
C1297 C1291 1.465 . S
C1297 C1296 1.396 . S
C1297 C1298 1.399 . S
C1298 H1284 0.929 . S
C1298 C1297 1.399 . S
C1298 C1299 1.385 . S
C1299 H1285 0.931 . S
C1299 C1298 1.385 . S
C1299 C1300 1.389 . S
C1300 C1299 1.389 . S
C1300 C1301 1.387 . S
C1301 H1286 0.930 . S
C1301 C1296 1.390 . S
C1301 C1300 1.387 . S
H1302 C1314 0.930 . S
H1303 C1316 0.938 1_454 S
H1304 C1317 0.930 . S
H1305 C1321 0.959 . S
H1306 C1321 0.959 . S
H1307 C1321 0.961 . S
H1308 C1322 0.960 . S
H1309 C1322 0.961 . S
H1310 C1322 0.959 . S
H1311 C1325 0.929 . S
H1312 C1326 0.931 1_554 S
H1313 C1328 0.930 . S
C1314 H1302 0.930 . S
C1314 C1315 1.399 . S
C1314 C1319 1.399 . S
C1315 C1314 1.399 . S
C1315 C1316 1.376 . S
C1316 H1303 0.938 1_656 S
C1316 C1315 1.376 . S
C1316 C1317 1.388 1_656 S
C1317 H1304 0.930 . S
C1317 C1316 1.388 1_454 S
C1317 C1318 1.390 1_554 S
C1318 C1317 1.390 1_556 S
C1318 C1319 1.394 1_455 S
C1318 C1324 1.465 . S
C1319 C1314 1.399 . S
C1319 C1318 1.394 1_655 S
C1319 C1320 1.516 . S
C1320 C1319 1.516 . S
C1320 C1321 1.502 . S
C1320 C1322 1.561 1_655 S
C1320 C1323 1.526 1_655 S
C1321 H1305 0.959 . S
C1321 H1306 0.959 . S
C1321 H1307 0.961 . S
C1321 C1320 1.502 . S
C1322 H1308 0.960 . S
C1322 H1309 0.961 . S
C1322 H1310 0.959 . S
C1322 C1320 1.561 1_455 S
C1323 C1320 1.526 1_455 S
C1323 C1324 1.396 . S
C1323 C1328 1.390 . S
C1324 C1318 1.465 . S
C1324 C1323 1.396 . S
C1324 C1325 1.399 1_556 S
C1325 H1311 0.929 . S
C1325 C1324 1.399 1_554 S
C1325 C1326 1.385 1_554 S
C1326 H1312 0.931 1_556 S
C1326 C1325 1.385 1_556 S
C1326 C1327 1.389 . S
C1327 C1326 1.389 . S
C1327 C1328 1.387 . S
C1328 H1313 0.930 . S
C1328 C1323 1.390 . S
C1328 C1327 1.387 . S
H1329 C1341 0.916 1_565 S
H1330 C1343 0.930 . S
H1331 C1344 0.930 . S
H1332 C1348 0.959 . S
H1333 C1348 0.959 . S
H1334 C1348 0.961 . S
H1335 C1349 0.960 . S
H1336 C1349 0.961 . S
H1337 C1349 0.959 1_545 S
H1338 C1352 0.929 . S
H1339 C1353 0.931 . S
H1340 C1355 0.930 . S
C1341 H1329 0.916 1_545 S
C1341 C1342 1.404 . S
C1341 C1346 1.430 1_545 S
C1342 C1341 1.404 . S
C1342 C1343 1.376 . S
C1343 H1330 0.930 . S
C1343 C1342 1.376 . S
C1343 C1344 1.388 . S
C1344 H1331 0.930 . S
C1344 C1343 1.388 . S
C1344 C1345 1.390 . S
C1345 C1344 1.390 . S
C1345 C1346 1.365 1_545 S
C1345 C1351 1.465 . S
C1346 C1341 1.430 1_565 S
C1346 C1345 1.365 1_565 S
C1346 C1347 1.521 . S
C1347 C1346 1.521 . S
C1347 C1348 1.502 . S
C1347 C1349 1.561 . S
C1347 C1350 1.526 . S
C1348 H1332 0.959 . S
C1348 H1333 0.959 . S
C1348 H1334 0.961 . S
C1348 C1347 1.502 . S
C1349 H1335 0.960 . S
C1349 H1336 0.961 . S
C1349 H1337 0.959 1_565 S
C1349 C1347 1.561 . S
C1350 C1347 1.526 . S
C1350 C1351 1.396 1_565 S
C1350 C1355 1.390 . S
C1351 C1345 1.465 . S
C1351 C1350 1.396 1_545 S
C1351 C1352 1.399 . S
C1352 H1338 0.929 . S
C1352 C1351 1.399 . S
C1352 C1353 1.385 . S
C1353 H1339 0.931 . S
C1353 C1352 1.385 . S
C1353 C1354 1.389 1_545 S
C1354 C1353 1.389 1_565 S
C1354 C1355 1.387 . S
C1355 H1340 0.930 . S
C1355 C1350 1.390 . S
C1355 C1354 1.387 . S
C721 C3 1.602 . S
C733 C534 1.602 . S
C748 C62 1.565 . S
C760 C593 1.566 . S
C775 C121 1.559 . S
C787 C652 1.560 . S
C802 C180 1.602 . S
C814 C357 1.602 . S
C829 C416 1.550 . S
C841 C239 1.551 . S
C856 C475 1.596 . S
C868 C298 1.596 . S
C883 C595 1.598 . S
C895 C5 1.579 . S
C910 C64 1.576 . S
C922 C654 1.601 . S
C937 C123 1.572 . S
C949 C359 1.605 . S
C964 C182 1.598 . S
C976 C418 1.580 . S
C991 C241 1.586 . S
C1003 C477 1.591 . S
C1018 C300 1.597 . S
C1030 C536 1.581 . S
C1045 C564 0.912 . S
C1057 C33 0.898 . S
C1072 C92 0.908 . S
C1084 C623 0.902 . S
C1099 C151 0.898 . S
C1111 C682 0.846 . S
C1126 C387 0.906 . S
C1138 C210 0.905 . S
C1153 C269 0.852 . S
C1165 C446 0.866 . S
C1180 C505 0.871 . S
C1192 C328 0.918 . S
C1207 C52 1.597 . S
C1219 C229 1.592 . S
C1234 C288 1.592 . S
C1246 C111 1.597 . S
C1261 C170 1.597 . S
C1273 C347 1.592 . S
C1288 C406 1.596 . S
C1300 C583 1.587 . S
C1315 C465 1.596 . S
C1327 C642 1.591 . S
C1342 C701 1.579 . S
C1354 C524 1.587 . S
