# Generated by pormake.
# Topology uoe, (4)-cn, num edge types: 1
# Building blocks:
#     Node 0, Type 0, BuildingBlock: MUDLON_clean_sbu_0, # of connection points: 4
#     Node 1, Type 0, BuildingBlock: MUDLON_clean_sbu_0, # of connection points: 4
#     Node 2, Type 0, BuildingBlock: MUDLON_clean_sbu_0, # of connection points: 4
#     Node 3, Type 0, BuildingBlock: MUDLON_clean_sbu_0, # of connection points: 4
#     Node 4, Type 0, BuildingBlock: MUDLON_clean_sbu_0, # of connection points: 4
#     Node 5, Type 0, BuildingBlock: MUDLON_clean_sbu_0, # of connection points: 4
#     Node 6, Type 0, BuildingBlock: MUDLON_clean_sbu_0, # of connection points: 4
#     Node 7, Type 0, BuildingBlock: MUDLON_clean_sbu_0, # of connection points: 4
#     Node 8, Type 0, BuildingBlock: MUDLON_clean_sbu_0, # of connection points: 4
#     Node 9, Type 0, BuildingBlock: MUDLON_clean_sbu_0, # of connection points: 4
#     Node 10, Type 0, BuildingBlock: MUDLON_clean_sbu_0, # of connection points: 4
#     Node 11, Type 0, BuildingBlock: MUDLON_clean_sbu_0, # of connection points: 4
#     Node 12, Type 0, BuildingBlock: MUDLON_clean_sbu_0, # of connection points: 4
#     Node 13, Type 0, BuildingBlock: MUDLON_clean_sbu_0, # of connection points: 4
#     Node 14, Type 0, BuildingBlock: MUDLON_clean_sbu_0, # of connection points: 4
#     Node 15, Type 0, BuildingBlock: MUDLON_clean_sbu_0, # of connection points: 4
#     Node 16, Type 0, BuildingBlock: MUDLON_clean_sbu_0, # of connection points: 4
#     Node 17, Type 0, BuildingBlock: MUDLON_clean_sbu_0, # of connection points: 4
#     Node 18, Type 0, BuildingBlock: MUDLON_clean_sbu_0, # of connection points: 4
#     Node 19, Type 0, BuildingBlock: MUDLON_clean_sbu_0, # of connection points: 4
#     Node 20, Type 0, BuildingBlock: MUDLON_clean_sbu_0, # of connection points: 4
#     Node 21, Type 0, BuildingBlock: MUDLON_clean_sbu_0, # of connection points: 4
#     Node 22, Type 0, BuildingBlock: MUDLON_clean_sbu_0, # of connection points: 4
#     Node 23, Type 0, BuildingBlock: MUDLON_clean_sbu_0, # of connection points: 4
#     Node 24, Type 0, BuildingBlock: MUDLON_clean_sbu_0, # of connection points: 4
#     Node 25, Type 0, BuildingBlock: MUDLON_clean_sbu_0, # of connection points: 4
#     Node 26, Type 0, BuildingBlock: MUDLON_clean_sbu_0, # of connection points: 4
#     Node 27, Type 0, BuildingBlock: MUDLON_clean_sbu_0, # of connection points: 4
#     Node 28, Type 0, BuildingBlock: MUDLON_clean_sbu_0, # of connection points: 4
#     Node 29, Type 0, BuildingBlock: MUDLON_clean_sbu_0, # of connection points: 4
#     Node 30, Type 0, BuildingBlock: MUDLON_clean_sbu_0, # of connection points: 4
#     Node 31, Type 0, BuildingBlock: MUDLON_clean_sbu_0, # of connection points: 4
#     Edge 32, Type (0, 0), BuildingBlock: UVAHIK_clean_linker_0, # of connection points: 2
#     Edge 33, Type (0, 0), BuildingBlock: UVAHIK_clean_linker_0, # of connection points: 2
#     Edge 34, Type (0, 0), BuildingBlock: UVAHIK_clean_linker_0, # of connection points: 2
#     Edge 35, Type (0, 0), BuildingBlock: UVAHIK_clean_linker_0, # of connection points: 2
#     Edge 36, Type (0, 0), BuildingBlock: UVAHIK_clean_linker_0, # of connection points: 2
#     Edge 37, Type (0, 0), BuildingBlock: UVAHIK_clean_linker_0, # of connection points: 2
#     Edge 38, Type (0, 0), BuildingBlock: UVAHIK_clean_linker_0, # of connection points: 2
#     Edge 39, Type (0, 0), BuildingBlock: UVAHIK_clean_linker_0, # of connection points: 2
#     Edge 40, Type (0, 0), BuildingBlock: UVAHIK_clean_linker_0, # of connection points: 2
#     Edge 41, Type (0, 0), BuildingBlock: UVAHIK_clean_linker_0, # of connection points: 2
#     Edge 42, Type (0, 0), BuildingBlock: UVAHIK_clean_linker_0, # of connection points: 2
#     Edge 43, Type (0, 0), BuildingBlock: UVAHIK_clean_linker_0, # of connection points: 2
#     Edge 44, Type (0, 0), BuildingBlock: UVAHIK_clean_linker_0, # of connection points: 2
#     Edge 45, Type (0, 0), BuildingBlock: UVAHIK_clean_linker_0, # of connection points: 2
#     Edge 46, Type (0, 0), BuildingBlock: UVAHIK_clean_linker_0, # of connection points: 2
#     Edge 47, Type (0, 0), BuildingBlock: UVAHIK_clean_linker_0, # of connection points: 2
#     Edge 48, Type (0, 0), BuildingBlock: UVAHIK_clean_linker_0, # of connection points: 2
#     Edge 49, Type (0, 0), BuildingBlock: UVAHIK_clean_linker_0, # of connection points: 2
#     Edge 50, Type (0, 0), BuildingBlock: UVAHIK_clean_linker_0, # of connection points: 2
#     Edge 51, Type (0, 0), BuildingBlock: UVAHIK_clean_linker_0, # of connection points: 2
#     Edge 52, Type (0, 0), BuildingBlock: UVAHIK_clean_linker_0, # of connection points: 2
#     Edge 53, Type (0, 0), BuildingBlock: UVAHIK_clean_linker_0, # of connection points: 2
#     Edge 54, Type (0, 0), BuildingBlock: UVAHIK_clean_linker_0, # of connection points: 2
#     Edge 55, Type (0, 0), BuildingBlock: UVAHIK_clean_linker_0, # of connection points: 2
#     Edge 56, Type (0, 0), BuildingBlock: UVAHIK_clean_linker_0, # of connection points: 2
#     Edge 57, Type (0, 0), BuildingBlock: UVAHIK_clean_linker_0, # of connection points: 2
#     Edge 58, Type (0, 0), BuildingBlock: UVAHIK_clean_linker_0, # of connection points: 2
#     Edge 59, Type (0, 0), BuildingBlock: UVAHIK_clean_linker_0, # of connection points: 2
#     Edge 60, Type (0, 0), BuildingBlock: UVAHIK_clean_linker_0, # of connection points: 2
#     Edge 61, Type (0, 0), BuildingBlock: UVAHIK_clean_linker_0, # of connection points: 2
#     Edge 62, Type (0, 0), BuildingBlock: UVAHIK_clean_linker_0, # of connection points: 2
#     Edge 63, Type (0, 0), BuildingBlock: UVAHIK_clean_linker_0, # of connection points: 2
#     Edge 64, Type (0, 0), BuildingBlock: UVAHIK_clean_linker_0, # of connection points: 2
#     Edge 65, Type (0, 0), BuildingBlock: UVAHIK_clean_linker_0, # of connection points: 2
#     Edge 66, Type (0, 0), BuildingBlock: UVAHIK_clean_linker_0, # of connection points: 2
#     Edge 67, Type (0, 0), BuildingBlock: UVAHIK_clean_linker_0, # of connection points: 2
#     Edge 68, Type (0, 0), BuildingBlock: UVAHIK_clean_linker_0, # of connection points: 2
#     Edge 69, Type (0, 0), BuildingBlock: UVAHIK_clean_linker_0, # of connection points: 2
#     Edge 70, Type (0, 0), BuildingBlock: UVAHIK_clean_linker_0, # of connection points: 2
#     Edge 71, Type (0, 0), BuildingBlock: UVAHIK_clean_linker_0, # of connection points: 2
#     Edge 72, Type (0, 0), BuildingBlock: UVAHIK_clean_linker_0, # of connection points: 2
#     Edge 73, Type (0, 0), BuildingBlock: UVAHIK_clean_linker_0, # of connection points: 2
#     Edge 74, Type (0, 0), BuildingBlock: UVAHIK_clean_linker_0, # of connection points: 2
#     Edge 75, Type (0, 0), BuildingBlock: UVAHIK_clean_linker_0, # of connection points: 2
#     Edge 76, Type (0, 0), BuildingBlock: UVAHIK_clean_linker_0, # of connection points: 2
#     Edge 77, Type (0, 0), BuildingBlock: UVAHIK_clean_linker_0, # of connection points: 2
#     Edge 78, Type (0, 0), BuildingBlock: UVAHIK_clean_linker_0, # of connection points: 2
#     Edge 79, Type (0, 0), BuildingBlock: UVAHIK_clean_linker_0, # of connection points: 2
#     Edge 80, Type (0, 0), BuildingBlock: UVAHIK_clean_linker_0, # of connection points: 2
#     Edge 81, Type (0, 0), BuildingBlock: UVAHIK_clean_linker_0, # of connection points: 2
#     Edge 82, Type (0, 0), BuildingBlock: UVAHIK_clean_linker_0, # of connection points: 2
#     Edge 83, Type (0, 0), BuildingBlock: UVAHIK_clean_linker_0, # of connection points: 2
#     Edge 84, Type (0, 0), BuildingBlock: UVAHIK_clean_linker_0, # of connection points: 2
#     Edge 85, Type (0, 0), BuildingBlock: UVAHIK_clean_linker_0, # of connection points: 2
#     Edge 86, Type (0, 0), BuildingBlock: UVAHIK_clean_linker_0, # of connection points: 2
#     Edge 87, Type (0, 0), BuildingBlock: UVAHIK_clean_linker_0, # of connection points: 2
#     Edge 88, Type (0, 0), BuildingBlock: UVAHIK_clean_linker_0, # of connection points: 2
#     Edge 89, Type (0, 0), BuildingBlock: UVAHIK_clean_linker_0, # of connection points: 2
#     Edge 90, Type (0, 0), BuildingBlock: UVAHIK_clean_linker_0, # of connection points: 2
#     Edge 91, Type (0, 0), BuildingBlock: UVAHIK_clean_linker_0, # of connection points: 2
#     Edge 92, Type (0, 0), BuildingBlock: UVAHIK_clean_linker_0, # of connection points: 2
#     Edge 93, Type (0, 0), BuildingBlock: UVAHIK_clean_linker_0, # of connection points: 2
#     Edge 94, Type (0, 0), BuildingBlock: UVAHIK_clean_linker_0, # of connection points: 2
#     Edge 95, Type (0, 0), BuildingBlock: UVAHIK_clean_linker_0, # of connection points: 2
# Relax obj value: 0.173
# Max RMSD: 0.258
# Mean RMSD: 0.258
data_MOF--net-uoe--node1-MUDLON_clean_sbu_0--edge1-UVAHIK_clean_linker_0
_symmetry_space_group_name_H-M    P1
_symmetry_Int_Tables_number       1
_symmetry_cell_setting            triclinic
loop_
_symmetry_equiv_pos_as_xyz
'x, y, z'
_cell_length_a     99.794472
_cell_length_b     99.811804
_cell_length_c     37.289713
_cell_angle_alpha  89.972185
_cell_angle_beta   90.023461
_cell_angle_gamma 89.993829
loop_
_atom_site_label
_atom_site_type_symbol
_atom_site_fract_x
_atom_site_fract_y
_atom_site_fract_z
_atom_type_partial_charge
Mg0 Mg 0.09853 0.4715 0.07399 0.0
C1 C 0.10017 0.47584 0.15093 0.0
O2 O 0.09285 0.46499 0.14713 0.0
C3 C 0.10909 0.47518 0.99869 0.0
O4 O 0.10968 0.46206 1.00093 0.0
C5 C 0.10361 0.44169 0.0943 0.0
O6 O 0.09066 0.44112 0.1004 0.0
O7 O 0.10859 0.45226 0.08066 0.0
O8 O 0.10437 0.48175 0.1229 0.0
O9 O 0.07663 0.47176 0.07249 0.0
C10 C 0.07134 0.48215 0.08636 0.0
O11 O 0.0792 0.49119 0.10093 0.0
O12 O 0.1053 0.48184 0.02593 0.0
Mg13 Mg 0.78389 0.84715 0.31467 0.0
C14 C 0.77033 0.82087 0.31348 0.0
O15 O 0.76047 0.82942 0.31803 0.0
C16 C 0.80344 0.86468 0.35086 0.0
O17 O 0.79195 0.87086 0.3554 0.0
C18 C 0.7664 0.85649 0.25172 0.0
O19 O 0.75664 0.85337 0.27383 0.0
O20 O 0.77847 0.85552 0.26249 0.0
O21 O 0.78221 0.8254 0.31068 0.0
O22 O 0.77104 0.85247 0.35973 0.0
C23 C 0.77472 0.84616 0.38772 0.0
O24 O 0.78459 0.83751 0.38483 0.0
O25 O 0.80368 0.85403 0.33205 0.0
Mg26 Mg 0.40679 0.53409 0.568 0.0
C27 C 0.40226 0.53024 0.64436 0.0
O28 O 0.40976 0.54103 0.64215 0.0
C29 C 0.39748 0.53289 0.49072 0.0
O30 O 0.3999 0.5458 0.4931 0.0
C31 C 0.38809 0.55692 0.57661 0.0
O32 O 0.38006 0.54715 0.56682 0.0
O33 O 0.40066 0.55479 0.57661 0.0
O34 O 0.39901 0.52425 0.61554 0.0
O35 O 0.42846 0.53116 0.56738 0.0
C36 C 0.43317 0.52114 0.58437 0.0
O37 O 0.4249 0.51342 0.60236 0.0
O38 O 0.39896 0.52561 0.51844 0.0
Mg39 Mg 0.72342 0.15699 0.80658 0.0
C40 C 0.72287 0.18689 0.82738 0.0
O41 O 0.7194 0.18222 0.85899 0.0
C42 C 0.70551 0.1385 0.84547 0.0
O43 O 0.71745 0.13312 0.84883 0.0
C44 C 0.74014 0.14937 0.74209 0.0
O45 O 0.74963 0.15376 0.76352 0.0
O46 O 0.72814 0.14899 0.75363 0.0
O47 O 0.72435 0.17875 0.80144 0.0
O48 O 0.73789 0.15102 0.84748 0.0
C49 C 0.74598 0.1591 0.86246 0.0
O50 O 0.74729 0.17126 0.84946 0.0
O51 O 0.70431 0.14913 0.82678 0.0
Mg52 Mg 0.0982 0.53714 0.57118 0.0
C53 C 0.11421 0.52793 0.5066 0.0
O54 O 0.12091 0.53898 0.51331 0.0
C55 C 0.10282 0.53621 0.65094 0.0
O56 O 0.09559 0.54718 0.6486 0.0
C57 C 0.10135 0.56302 0.52949 0.0
O58 O 0.09172 0.55748 0.51058 0.0
O59 O 0.10531 0.5572 0.55797 0.0
O60 O 0.10485 0.5244 0.5277 0.0
O61 O 0.07654 0.53457 0.57196 0.0
C62 C 0.07284 0.52277 0.58039 0.0
O63 O 0.08209 0.51393 0.58881 0.0
O64 O 0.10593 0.53004 0.62231 0.0
Mg65 Mg 0.71924 0.84807 0.81128 0.0
C66 C 0.73372 0.8222 0.80776 0.0
O67 O 0.74333 0.83105 0.80343 0.0
C68 C 0.69596 0.85252 0.76175 0.0
O69 O 0.70418 0.84586 0.74078 0.0
C70 C 0.73617 0.85724 0.87488 0.0
O71 O 0.74587 0.85556 0.85151 0.0
O72 O 0.72412 0.85539 0.86489 0.0
O73 O 0.72176 0.82637 0.81188 0.0
O74 O 0.73265 0.85504 0.76931 0.0
C75 C 0.72996 0.86506 0.7495 0.0
O76 O 0.7198 0.87281 0.75793 0.0
O77 O 0.69925 0.85433 0.79439 0.0
Mg78 Mg 0.4033 0.47061 0.06308 0.0
C79 C 0.38712 0.47902 0.99818 0.0
O80 O 0.38033 0.46824 0.00692 0.0
C81 C 0.39737 0.47192 0.14244 0.0
O82 O 0.40265 0.45987 0.1407 0.0
C83 C 0.40047 0.44452 0.02377 0.0
O84 O 0.41045 0.44998 0.00602 0.0
O85 O 0.39601 0.45049 0.05144 0.0
O86 O 0.39675 0.48279 0.01814 0.0
O87 O 0.42503 0.47248 0.0641 0.0
C88 C 0.42919 0.48454 0.06398 0.0
O89 O 0.42029 0.49425 0.06341 0.0
O90 O 0.39588 0.47858 0.11363 0.0
Mg91 Mg 0.78386 0.15722 0.29967 0.0
C92 C 0.76882 0.18274 0.30015 0.0
O93 O 0.75939 0.17375 0.29513 0.0
C94 C 0.80921 0.14091 0.2908 0.0
O95 O 0.80296 0.13337 0.31437 0.0
C96 C 0.76743 0.14732 0.36391 0.0
O97 O 0.75735 0.14985 0.34228 0.0
O98 O 0.77934 0.1488 0.35237 0.0
O99 O 0.78089 0.17878 0.30336 0.0
O100 O 0.77102 0.15122 0.2555 0.0
C101 C 0.77368 0.14118 0.23576 0.0
O102 O 0.78302 0.13273 0.24599 0.0
O103 O 0.80394 0.15198 0.28152 0.0
Mg104 Mg 0.90712 0.53404 0.06342 0.0
C105 C 0.93515 0.52692 0.04023 0.0
O106 O 0.92829 0.52283 0.01225 0.0
C107 C 0.90244 0.56019 0.02403 0.0
O108 O 0.91226 0.55539 0.0044 0.0
C109 C 0.90099 0.53259 0.1426 0.0
O110 O 0.90619 0.54466 0.14107 0.0
O111 O 0.89969 0.52593 0.11374 0.0
O112 O 0.92901 0.53294 0.06544 0.0
O113 O 0.90104 0.52145 0.01899 0.0
C114 C 0.89164 0.52459 0.99759 0.0
O115 O 0.88416 0.53509 0.00471 0.0
O116 O 0.89887 0.55381 0.052 0.0
Mg117 Mg 0.22057 0.15628 0.81565 0.0
C118 C 0.22844 0.15652 0.74179 0.0
O119 O 0.21799 0.16445 0.74505 0.0
C120 C 0.23856 0.14803 0.87849 0.0
O121 O 0.24801 0.15224 0.85673 0.0
C122 C 0.20215 0.13676 0.78507 0.0
O123 O 0.21375 0.13059 0.78752 0.0
O124 O 0.20116 0.1485 0.79816 0.0
O125 O 0.23308 0.15099 0.76995 0.0
O126 O 0.22186 0.17809 0.81907 0.0
C127 C 0.23354 0.18283 0.81375 0.0
O128 O 0.24337 0.17446 0.80691 0.0
O129 O 0.22647 0.14799 0.86758 0.0
Mg130 Mg 0.59796 0.47 0.57421 0.0
C131 C 0.57018 0.47715 0.54898 0.0
O132 O 0.57732 0.48162 0.52192 0.0
C133 C 0.60159 0.44343 0.53635 0.0
O134 O 0.59129 0.44804 0.51817 0.0
C135 C 0.60601 0.4703 0.65276 0.0
O136 O 0.60362 0.45742 0.64939 0.0
O137 O 0.60487 0.47783 0.62541 0.0
O138 O 0.57611 0.47104 0.57443 0.0
O139 O 0.60474 0.48275 0.53066 0.0
C140 C 0.61366 0.47895 0.50854 0.0
O141 O 0.61999 0.46761 0.51426 0.0
O142 O 0.60589 0.45012 0.56302 0.0
Mg143 Mg 0.28679 0.84822 0.31399 0.0
C144 C 0.27769 0.86443 0.24931 0.0
O145 O 0.28932 0.87027 0.25442 0.0
C146 C 0.2703 0.85857 0.37745 0.0
O147 O 0.26062 0.85828 0.35355 0.0
C148 C 0.31181 0.8649 0.30771 0.0
O149 O 0.30477 0.87225 0.33006 0.0
O150 O 0.30711 0.85364 0.29786 0.0
O151 O 0.27366 0.85576 0.27189 0.0
O152 O 0.28339 0.82664 0.3139 0.0
C153 C 0.27118 0.82301 0.31213 0.0
O154 O 0.26186 0.8323 0.31071 0.0
O155 O 0.28212 0.85543 0.36784 0.0
Mg156 Mg 0.909 0.46769 0.56498 0.0
C157 C 0.93497 0.4802 0.55405 0.0
O158 O 0.92606 0.48964 0.54808 0.0
C159 C 0.90379 0.43965 0.59661 0.0
O160 O 0.91573 0.44126 0.61082 0.0
C161 C 0.8991 0.47006 0.4887 0.0
O162 O 0.90059 0.457 0.49066 0.0
O163 O 0.90136 0.4771 0.51646 0.0
O164 O 0.9308 0.46847 0.56156 0.0
O165 O 0.904 0.47916 0.61249 0.0
C166 C 0.91146 0.47669 0.63934 0.0
O167 O 0.92151 0.46833 0.63528 0.0
O168 O 0.89942 0.44837 0.57459 0.0
Mg169 Mg 0.28655 0.15528 0.31802 0.0
C170 C 0.27713 0.13933 0.38276 0.0
O171 O 0.28854 0.13311 0.37734 0.0
C172 C 0.26994 0.14514 0.25462 0.0
O173 O 0.26026 0.14575 0.27843 0.0
C174 C 0.31155 0.13847 0.32534 0.0
O175 O 0.3047 0.13108 0.30265 0.0
O176 O 0.30675 0.14973 0.33486 0.0
O177 O 0.27329 0.14813 0.36028 0.0
O178 O 0.28349 0.1769 0.31729 0.0
C179 C 0.27134 0.18074 0.31883 0.0
O180 O 0.26187 0.17163 0.32064 0.0
O181 O 0.28184 0.14794 0.26429 0.0
Mg182 Mg 0.59507 0.5344 0.07609 0.0
C183 C 0.56947 0.5199 0.07389 0.0
O184 O 0.5785 0.51036 0.07632 0.0
C185 C 0.61451 0.55663 0.08454 0.0
O186 O 0.62222 0.54665 0.07445 0.0
C187 C 0.60392 0.53199 0.99922 0.0
O188 O 0.5999 0.54452 0.99952 0.0
O189 O 0.60359 0.52532 0.02827 0.0
O190 O 0.57343 0.53201 0.073 0.0
O191 O 0.60117 0.52435 0.1249 0.0
C192 C 0.59719 0.53047 0.15283 0.0
O193 O 0.59001 0.54141 0.14883 0.0
O194 O 0.60188 0.55486 0.08492 0.0
Mg195 Mg 0.22084 0.8493 0.81598 0.0
C196 C 0.22814 0.84908 0.89048 0.0
O197 O 0.21778 0.84106 0.88674 0.0
C198 C 0.23912 0.85746 0.7536 0.0
O199 O 0.2485 0.8531 0.77542 0.0
C200 C 0.2012 0.8677 0.84761 0.0
O201 O 0.21274 0.87394 0.85078 0.0
O202 O 0.20092 0.85653 0.83112 0.0
O203 O 0.23288 0.85468 0.86256 0.0
O204 O 0.22257 0.82752 0.81244 0.0
C205 C 0.23428 0.82297 0.8184 0.0
O206 O 0.2439 0.8315 0.826 0.0
O207 O 0.22703 0.85765 0.76438 0.0
Mg208 Mg 0.5969 0.96893 0.56133 0.0
C209 C 0.59275 0.98304 0.63093 0.0
O210 O 0.58066 0.97849 0.62422 0.0
C211 C 0.60646 0.97025 0.48428 0.0
O212 O 0.60251 0.9577 0.48524 0.0
C213 C 0.60214 0.94439 0.60514 0.0
O214 O 0.59399 0.95114 0.62608 0.0
O215 O 0.60468 0.94903 0.57407 0.0
O216 O 0.60196 0.98105 0.60795 0.0
O217 O 0.5751 0.9699 0.55604 0.0
C218 C 0.56974 0.97578 0.52936 0.0
O219 O 0.57742 0.98 0.50311 0.0
O220 O 0.60582 0.9772 0.51281 0.0
Mg221 Mg 0.28078 0.34959 0.82041 0.0
C222 C 0.26596 0.32375 0.82615 0.0
O223 O 0.25659 0.33254 0.83372 0.0
C224 C 0.30588 0.36622 0.82752 0.0
O225 O 0.29909 0.37359 0.80464 0.0
C226 C 0.26454 0.35683 0.75363 0.0
O227 O 0.25464 0.35266 0.774 0.0
O228 O 0.27632 0.35722 0.76668 0.0
O229 O 0.27774 0.32795 0.81931 0.0
O230 O 0.26794 0.35685 0.86344 0.0
C231 C 0.27057 0.36742 0.88113 0.0
O232 O 0.28024 0.37532 0.87004 0.0
O233 O 0.301 0.35502 0.8373 0.0
Mg234 Mg 0.90436 0.03197 0.07472 0.0
C235 C 0.90543 0.02903 0.15211 0.0
O236 O 0.91361 0.03891 0.14436 0.0
C237 C 0.89519 0.02743 0.99936 0.0
O238 O 0.89764 0.04036 0.99897 0.0
C239 C 0.90173 0.06206 0.09127 0.0
O240 O 0.91461 0.06116 0.09811 0.0
O241 O 0.89563 0.05196 0.0784 0.0
O242 O 0.89946 0.0231 0.12648 0.0
O243 O 0.92613 0.03096 0.07035 0.0
C244 C 0.93117 0.02018 0.08268 0.0
O245 O 0.92313 0.01121 0.09684 0.0
O246 O 0.89652 0.02106 0.02871 0.0
Mg247 Mg 0.21954 0.65733 0.31101 0.0
C248 C 0.23353 0.68331 0.31031 0.0
O249 O 0.24314 0.67451 0.3153 0.0
C250 C 0.19996 0.63932 0.34469 0.0
O251 O 0.21147 0.63305 0.34789 0.0
C252 C 0.23741 0.6478 0.24892 0.0
O253 O 0.24708 0.65085 0.27139 0.0
O254 O 0.2253 0.64888 0.2592 0.0
O255 O 0.22155 0.67908 0.30711 0.0
O256 O 0.23191 0.65197 0.35696 0.0
C257 C 0.22762 0.65799 0.38478 0.0
O258 O 0.21754 0.66635 0.38114 0.0
O259 O 0.19966 0.65034 0.32745 0.0
Mg260 Mg 0.59766 0.03499 0.06216 0.0
C261 C 0.61155 0.02448 0.99532 0.0
O262 O 0.62102 0.03277 0.00566 0.0
C263 C 0.6071 0.03309 0.1388 0.0
O264 O 0.60437 0.04595 0.13698 0.0
C265 C 0.60395 0.06053 0.02177 0.0
O266 O 0.59403 0.05606 1.00195 0.0
O267 O 0.607 0.05424 0.05035 0.0
O268 O 0.60132 0.02284 0.01515 0.0
O269 O 0.5759 0.03499 0.0671 0.0
C270 C 0.57111 0.02445 0.08145 0.0
O271 O 0.57947 0.01534 0.09359 0.0
O272 O 0.60579 0.02597 0.11073 0.0
Mg273 Mg 0.2213 0.34678 0.3114 0.0
C274 C 0.23528 0.32086 0.31369 0.0
O275 O 0.24498 0.32968 0.31065 0.0
C276 C 0.19927 0.36614 0.29796 0.0
O277 O 0.20839 0.3736 0.31364 0.0
C278 C 0.23878 0.35693 0.37419 0.0
O279 O 0.24863 0.35517 0.35132 0.0
O280 O 0.22679 0.35487 0.36391 0.0
O281 O 0.22325 0.32507 0.31492 0.0
O282 O 0.23387 0.35215 0.26593 0.0
C283 C 0.23643 0.36384 0.25425 0.0
O284 O 0.23278 0.37433 0.27311 0.0
O285 O 0.2014 0.35361 0.2953 0.0
Mg286 Mg 0.90688 0.96522 0.57471 0.0
C287 C 0.90468 0.98798 0.52054 0.0
O288 O 0.91368 0.99354 0.54151 0.0
C289 C 0.89968 0.96536 0.65324 0.0
O290 O 0.90443 0.95313 0.65023 0.0
C291 C 0.9032 0.9396 0.53364 0.0
O292 O 0.91234 0.9455 0.51378 0.0
O293 O 0.89968 0.94512 0.56292 0.0
O294 O 0.89973 0.97672 0.52929 0.0
O295 O 0.92865 0.96742 0.57526 0.0
C296 C 0.9334 0.977 0.59385 0.0
O297 O 0.92513 0.98432 0.61302 0.0
O298 O 0.899 0.97268 0.62537 0.0
Mg299 Mg 0.2845 0.65713 0.80902 0.0
C300 C 0.26912 0.68263 0.80665 0.0
O301 O 0.25972 0.6736 0.80171 0.0
C302 C 0.31014 0.64117 0.79953 0.0
O303 O 0.30432 0.63374 0.82409 0.0
C304 C 0.26824 0.64712 0.87257 0.0
O305 O 0.25846 0.64869 0.84932 0.0
O306 O 0.28022 0.64931 0.86252 0.0
O307 O 0.28116 0.67871 0.81074 0.0
O308 O 0.27113 0.64993 0.76713 0.0
C309 C 0.27479 0.64084 0.7453 0.0
O310 O 0.28601 0.63435 0.75139 0.0
O311 O 0.30456 0.65208 0.79013 0.0
Mg312 Mg 0.40745 0.03319 0.5647 0.0
C313 C 0.4355 0.02885 0.5368 0.0
O314 O 0.4288 0.02838 0.50651 0.0
C315 C 0.4045 0.05957 0.52642 0.0
O316 O 0.41484 0.05453 0.50933 0.0
C317 C 0.39768 0.03223 0.64194 0.0
O318 O 0.39894 0.04529 0.63884 0.0
O319 O 0.40007 0.02487 0.61486 0.0
O320 O 0.42924 0.0315 0.56566 0.0
O321 O 0.40107 0.02127 0.51927 0.0
C322 C 0.3912 0.02495 0.50009 0.0
O323 O 0.38386 0.03513 0.51067 0.0
O324 O 0.39986 0.05327 0.55338 0.0
Mg325 Mg 0.72114 0.65475 0.31384 0.0
C326 C 0.73058 0.63637 0.25429 0.0
O327 O 0.72031 0.6293 0.26551 0.0
C328 C 0.73641 0.64607 0.38115 0.0
O329 O 0.74675 0.64864 0.36047 0.0
C330 C 0.69491 0.63969 0.30488 0.0
O331 O 0.70025 0.63237 0.33046 0.0
O332 O 0.701 0.65021 0.29466 0.0
O333 O 0.73403 0.64673 0.27188 0.0
O334 O 0.72486 0.67625 0.31443 0.0
C335 C 0.7369 0.68014 0.31003 0.0
O336 O 0.74629 0.67108 0.30533 0.0
O337 O 0.72466 0.64717 0.36813 0.0
Mg338 Mg 0.09653 0.97097 0.06199 0.0
C339 C 0.06891 0.97979 0.03999 0.0
O340 O 0.07624 0.98581 0.01561 0.0
C341 C 0.10093 0.9448 0.02384 0.0
O342 O 0.09131 0.9499 1.00399 0.0
C343 C 0.10336 0.97265 0.14095 0.0
O344 O 0.09943 0.96009 0.13939 0.0
O345 O 0.10365 0.97951 0.11222 0.0
O346 O 0.07465 0.97215 0.06264 0.0
O347 O 0.10326 0.98267 0.01645 0.0
C348 C 0.11364 0.97956 0.99852 0.0
O349 O 0.12143 0.96988 0.01013 0.0
O350 O 0.10451 0.95102 0.05205 0.0
Mg351 Mg 0.78335 0.34831 0.8206 0.0
C352 C 0.76111 0.34889 0.76329 0.0
O353 O 0.75777 0.33724 0.77708 0.0
C354 C 0.76684 0.3569 0.88514 0.0
O355 O 0.75705 0.35344 0.86348 0.0
C356 C 0.80259 0.36693 0.78941 0.0
O357 O 0.79129 0.37361 0.79192 0.0
O358 O 0.80302 0.35507 0.80198 0.0
O359 O 0.77024 0.35577 0.7783 0.0
O360 O 0.78079 0.32663 0.8242 0.0
C361 C 0.78127 0.31875 0.79743 0.0
O362 O 0.78458 0.32357 0.76586 0.0
O363 O 0.77884 0.35634 0.87372 0.0
Mg364 Mg 0.40672 0.97088 0.06966 0.0
C365 C 0.43302 0.98332 0.05119 0.0
O366 O 0.42456 0.99085 0.03319 0.0
C367 C 0.40424 0.94527 0.11062 0.0
O368 O 0.41359 0.95148 0.12903 0.0
C369 C 0.40049 0.97184 0.99046 0.0
O370 O 0.40651 0.96014 0.99211 0.0
O371 O 0.39868 0.9784 0.01928 0.0
O372 O 0.42845 0.97343 0.06895 0.0
O373 O 0.39905 0.98217 0.11486 0.0
C374 C 0.4057 0.9915 0.1297 0.0
O375 O 0.41709 0.99533 0.11533 0.0
O376 O 0.40002 0.9506 0.08174 0.0
Mg377 Mg 0.78017 0.65511 0.82279 0.0
C378 C 0.76127 0.64062 0.87919 0.0
O379 O 0.75932 0.63094 0.85592 0.0
C380 C 0.76174 0.64628 0.76081 0.0
O381 O 0.75224 0.6503 0.78269 0.0
C382 C 0.80033 0.63689 0.85371 0.0
O383 O 0.78899 0.63035 0.8569 0.0
O384 O 0.80026 0.64816 0.83765 0.0
O385 O 0.76835 0.6507 0.87048 0.0
O386 O 0.77857 0.67683 0.81741 0.0
C387 C 0.76683 0.68147 0.82253 0.0
O388 O 0.75716 0.67306 0.83048 0.0
O389 O 0.77385 0.64647 0.77155 0.0
Mg390 Mg 0.09646 0.03455 0.56863 0.0
C391 C 0.07043 0.02114 0.55624 0.0
O392 O 0.07908 0.0128 0.54189 0.0
C393 C 0.11556 0.05753 0.56993 0.0
O394 O 0.12271 0.04811 0.55443 0.0
C395 C 0.10348 0.03363 0.48963 0.0
O396 O 0.0999 0.04627 0.49218 0.0
O397 O 0.10351 0.02642 0.51775 0.0
O398 O 0.07477 0.03203 0.5697 0.0
O399 O 0.10396 0.02294 0.61403 0.0
C400 C 0.10995 0.02892 0.63957 0.0
O401 O 0.112 0.04188 0.63723 0.0
O402 O 0.1033 0.05513 0.57679 0.0
Mg403 Mg 0.72077 0.34894 0.32411 0.0
C404 C 0.7392 0.36169 0.38517 0.0
O405 O 0.74096 0.3725 0.3656 0.0
C406 C 0.73918 0.35894 0.26304 0.0
O407 O 0.74885 0.35491 0.28438 0.0
C408 C 0.70087 0.36711 0.35556 0.0
O409 O 0.71224 0.37367 0.35775 0.0
O410 O 0.70079 0.35581 0.33975 0.0
O411 O 0.73249 0.35192 0.37272 0.0
O412 O 0.72218 0.32738 0.3159 0.0
C413 C 0.73403 0.32282 0.31936 0.0
O414 O 0.74372 0.33125 0.32701 0.0
O415 O 0.72712 0.3584 0.27401 0.0
C416 C 0.95707 0.52709 0.07374 0.0
C417 C 0.94944 0.52301 0.044 0.0
C418 C 0.97019 0.5224 0.07842 0.0
C419 C 0.99832 0.5056 0.03005 0.0
H420 H 0.01029 0.49709 0.12633 0.0
C421 C 0.04869 0.47857 0.05819 0.0
C422 C 0.05676 0.48481 0.08415 0.0
C423 C 0.03526 0.4824 0.05391 0.0
C424 C 0.00709 0.49945 0.09929 0.0
H425 H 0.94973 0.51096 0.99557 0.0
H426 H 0.97234 0.50262 1.00408 0.0
H427 H 0.98781 0.50604 0.11708 0.0
H428 H 0.05694 0.49951 0.12698 0.0
H429 H 0.03358 0.50601 0.11985 0.0
H430 H 0.0176 0.49885 0.01236 0.0
C431 C 0.96837 0.50962 0.02352 0.0
C432 C 0.99424 0.50468 0.09397 0.0
C433 C 0.95532 0.51438 0.01872 0.0
C434 C 0.051 0.49454 0.10664 0.0
C435 C 0.03759 0.49822 0.10269 0.0
C436 C 0.01113 0.50025 0.03536 0.0
C437 C 0.97595 0.51346 0.0536 0.0
C438 C 0.98969 0.50792 0.05929 0.0
C439 C 0.02962 0.49238 0.07588 0.0
C440 C 0.01569 0.49721 0.07006 0.0
H441 H 0.95285 0.53376 0.09367 0.0
H442 H 0.9758 0.52579 0.10156 0.0
H443 H 0.99529 0.50815 1.00301 0.0
H444 H 0.05285 0.47107 0.0404 0.0
H445 H 0.02931 0.47765 0.0332 0.0
C446 C 0.75416 0.80179 0.31597 0.0
C447 C 0.76744 0.8063 0.31251 0.0
C448 C 0.7512 0.78812 0.31576 0.0
C449 C 0.76435 0.75517 0.2881 0.0
H450 H 0.73777 0.74175 0.35494 0.0
C451 C 0.75384 0.69859 0.30605 0.0
C452 C 0.74043 0.69457 0.31027 0.0
C453 C 0.7573 0.71216 0.30635 0.0
C454 C 0.7451 0.74535 0.33581 0.0
H455 H 0.78806 0.79993 0.30583 0.0
H456 H 0.78289 0.77595 0.30564 0.0
H457 H 0.74375 0.76541 0.35565 0.0
H458 H 0.72011 0.70171 0.31796 0.0
H459 H 0.72613 0.72542 0.31813 0.0
H460 H 0.76566 0.7351 0.26817 0.0
C461 C 0.77475 0.78306 0.30825 0.0
C462 C 0.74855 0.75892 0.33625 0.0
C463 C 0.77772 0.79679 0.30852 0.0
C464 C 0.73054 0.70446 0.31475 0.0
C465 C 0.73401 0.71805 0.31504 0.0
C466 C 0.76089 0.74158 0.28764 0.0
C467 C 0.76145 0.77857 0.31208 0.0
C468 C 0.75816 0.76402 0.31228 0.0
C469 C 0.74744 0.72206 0.31087 0.0
C470 C 0.75118 0.73651 0.3114 0.0
H471 H 0.74596 0.80881 0.31892 0.0
H472 H 0.74083 0.78504 0.31813 0.0
H473 H 0.77167 0.7588 0.26897 0.0
H474 H 0.76173 0.69125 0.30265 0.0
H475 H 0.76776 0.71487 0.30356 0.0
C476 C 0.45597 0.5233 0.55623 0.0
C477 C 0.44756 0.51756 0.58229 0.0
C478 C 0.46929 0.51906 0.55282 0.0
C479 C 0.49672 0.50211 0.60127 0.0
H480 H 0.50988 0.49355 0.5062 0.0
C481 C 0.54787 0.47607 0.58026 0.0
C482 C 0.55574 0.48056 0.55141 0.0
C483 C 0.53452 0.48023 0.58369 0.0
C484 C 0.50645 0.49605 0.53292 0.0
H485 H 0.44667 0.50318 0.62588 0.0
H486 H 0.46987 0.49592 0.62012 0.0
H487 H 0.48726 0.50236 0.51344 0.0
H488 H 0.55566 0.49276 0.5032 0.0
H489 H 0.53262 0.50017 0.50955 0.0
H490 H 0.51593 0.49601 0.62082 0.0
C491 C 0.46619 0.50366 0.60231 0.0
C492 C 0.49347 0.5011 0.53703 0.0
C493 C 0.45286 0.50778 0.60546 0.0
C494 C 0.54989 0.48905 0.52571 0.0
C495 C 0.53661 0.49326 0.52925 0.0
C496 C 0.50974 0.49716 0.59716 0.0
C497 C 0.4745 0.50912 0.57567 0.0
C498 C 0.48845 0.50416 0.57125 0.0
C499 C 0.52877 0.48902 0.55846 0.0
C500 C 0.51479 0.49404 0.56292 0.0
H501 H 0.45218 0.53083 0.53794 0.0
H502 H 0.47551 0.52354 0.53226 0.0
H503 H 0.49318 0.50451 0.62796 0.0
H504 H 0.55206 0.46949 0.60047 0.0
H505 H 0.52873 0.47656 0.6062 0.0
C506 C 0.72788 0.20961 0.85318 0.0
C507 C 0.7272 0.20105 0.82329 0.0
C508 C 0.73337 0.22247 0.85005 0.0
C509 C 0.75653 0.24207 0.79292 0.0
H510 H 0.74206 0.27247 0.84468 0.0
C511 C 0.77537 0.29639 0.77078 0.0
C512 C 0.77635 0.30477 0.80098 0.0
C513 C 0.76959 0.28365 0.77357 0.0
C514 C 0.74633 0.26405 0.83038 0.0
H515 H 0.73131 0.19955 0.76629 0.0
H516 H 0.74066 0.222 0.76075 0.0
H517 H 0.73095 0.25076 0.84884 0.0
H518 H 0.77236 0.3061 0.85807 0.0
H519 H 0.76247 0.28386 0.86298 0.0
H520 H 0.77191 0.25535 0.77446 0.0
C521 C 0.7372 0.21869 0.7868 0.0
C522 C 0.73994 0.25159 0.83273 0.0
C523 C 0.73173 0.20584 0.78994 0.0
C524 C 0.77174 0.29995 0.83421 0.0
C525 C 0.76596 0.28722 0.83698 0.0
C526 C 0.76291 0.25452 0.79054 0.0
C527 C 0.73831 0.22709 0.81693 0.0
C528 C 0.74495 0.24043 0.81403 0.0
C529 C 0.76465 0.27897 0.80662 0.0
C530 C 0.75791 0.26567 0.80928 0.0
H531 H 0.72454 0.20624 0.87931 0.0
H532 H 0.73415 0.22861 0.87389 0.0
H533 H 0.76082 0.23365 0.77867 0.0
H534 H 0.77877 0.29979 0.74474 0.0
H535 H 0.76865 0.27762 0.74956 0.0
C536 C 0.05492 0.50554 0.58895 0.0
C537 C 0.05857 0.51863 0.57895 0.0
C538 C 0.04164 0.50124 0.58614 0.0
C539 C 0.00995 0.50858 0.53901 0.0
H540 H 0.99433 0.48602 0.61266 0.0
C541 C 0.9535 0.49657 0.54377 0.0
C542 C 0.94943 0.48365 0.55414 0.0
C543 C 0.96694 0.50036 0.54569 0.0
C544 C 0.9986 0.49215 0.59159 0.0
H545 H 0.05104 0.53754 0.55863 0.0
H546 H 0.02776 0.53005 0.55402 0.0
H547 H 0.01728 0.49403 0.61938 0.0
H548 H 0.95639 0.46448 0.57411 0.0
H549 H 0.98 0.47108 0.57722 0.0
H550 H 0.99127 0.50674 0.51127 0.0
C551 C 0.03525 0.52306 0.56364 0.0
C552 C 0.01175 0.49678 0.59549 0.0
C553 C 0.04857 0.52739 0.56652 0.0
C554 C 0.95919 0.4745 0.56591 0.0
C555 C 0.9727 0.47832 0.56794 0.0
C556 C 0.99681 0.50395 0.53511 0.0
C557 C 0.03164 0.5099 0.57324 0.0
C558 C 0.01758 0.50509 0.5693 0.0
C559 C 0.97671 0.49134 0.55806 0.0
C560 C 0.99093 0.49572 0.56143 0.0
H561 H 0.06236 0.4985 0.59859 0.0
H562 H 0.03928 0.49099 0.59336 0.0
H563 H 0.0142 0.51475 0.51799 0.0
H564 H 0.94626 0.5039 0.53459 0.0
H565 H 0.96962 0.51051 0.53833 0.0
C566 C 0.77396 0.70539 0.81213 0.0
C567 C 0.76386 0.696 0.81973 0.0
C568 C 0.7709 0.71908 0.80978 0.0
C569 C 0.74241 0.7424 0.79584 0.0
H570 H 0.7659 0.76856 0.83997 0.0
C571 C 0.72707 0.79797 0.81414 0.0
C572 C 0.73699 0.8077 0.80811 0.0
C573 C 0.73039 0.78433 0.81483 0.0
C574 C 0.7593 0.76141 0.82713 0.0
H575 H 0.74263 0.69365 0.83083 0.0
H576 H 0.73739 0.71735 0.82702 0.0
H577 H 0.77186 0.74488 0.84174 0.0
H578 H 0.75819 0.81068 0.79768 0.0
H579 H 0.76391 0.78702 0.79847 0.0
H580 H 0.72983 0.75891 0.78129 0.0
C581 C 0.74763 0.7142 0.8224 0.0
C582 C 0.76274 0.74782 0.82812 0.0
C583 C 0.75067 0.70058 0.82483 0.0
C584 C 0.75028 0.80348 0.80258 0.0
C585 C 0.75359 0.78989 0.80326 0.0
C586 C 0.73898 0.75598 0.79482 0.0
C587 C 0.75768 0.72363 0.81483 0.0
C588 C 0.75431 0.73814 0.81264 0.0
C589 C 0.74372 0.78013 0.80951 0.0
C590 C 0.74736 0.76566 0.81055 0.0
H591 H 0.78422 0.70219 0.80802 0.0
H592 H 0.77887 0.72608 0.80359 0.0
H593 H 0.73579 0.73523 0.78315 0.0
H594 H 0.71674 0.80089 0.81856 0.0
H595 H 0.72255 0.7771 0.8201 0.0
C596 C 0.54512 0.52635 0.06978 0.0
C597 C 0.55503 0.5164 0.07241 0.0
C598 C 0.53153 0.52285 0.06853 0.0
C599 C 0.50818 0.49513 0.09058 0.0
H600 H 0.48415 0.51365 0.02564 0.0
C601 C 0.45348 0.47769 0.06624 0.0
C602 C 0.44369 0.4878 0.0644 0.0
C603 C 0.46713 0.481 0.06679 0.0
C604 C 0.4907 0.50846 0.04418 0.0
H605 H 0.55841 0.49494 0.07565 0.0
H606 H 0.53484 0.48888 0.07314 0.0
H607 H 0.50773 0.52 0.02787 0.0
H608 H 0.4406 0.50931 0.06166 0.0
H609 H 0.46426 0.51502 0.06287 0.0
H610 H 0.49114 0.4836 0.10691 0.0
C611 C 0.53751 0.4994 0.07253 0.0
C612 C 0.50422 0.51212 0.04549 0.0
C613 C 0.55105 0.50289 0.07373 0.0
C614 C 0.44786 0.50125 0.06301 0.0
C615 C 0.46145 0.50454 0.06346 0.0
C616 C 0.49466 0.49147 0.08925 0.0
C617 C 0.52756 0.50932 0.06997 0.0
C618 C 0.51313 0.50551 0.06874 0.0
C619 C 0.47127 0.49448 0.06535 0.0
C620 C 0.48574 0.49811 0.06611 0.0
H621 H 0.54784 0.53685 0.06878 0.0
H622 H 0.52412 0.53076 0.06694 0.0
H623 H 0.51472 0.48996 0.10919 0.0
H624 H 0.45061 0.46724 0.06729 0.0
H625 H 0.47444 0.47299 0.06791 0.0
C626 C 0.72695 0.29886 0.3096 0.0
C627 C 0.7371 0.30837 0.31552 0.0
C628 C 0.7301 0.28521 0.30679 0.0
C629 C 0.75847 0.26218 0.28867 0.0
H630 H 0.73651 0.23594 0.33783 0.0
C631 C 0.77512 0.20703 0.30644 0.0
C632 C 0.76526 0.19714 0.30171 0.0
C633 C 0.77158 0.2206 0.30761 0.0
C634 C 0.74267 0.24312 0.32361 0.0
H635 H 0.75853 0.31097 0.3229 0.0
H636 H 0.76395 0.28734 0.3183 0.0
H637 H 0.73024 0.25955 0.33967 0.0
H638 H 0.74394 0.19377 0.29446 0.0
H639 H 0.73782 0.21734 0.29618 0.0
H640 H 0.77093 0.24578 0.27272 0.0
C641 C 0.75358 0.29037 0.31539 0.0
C642 C 0.73905 0.25666 0.32462 0.0
C643 C 0.75044 0.30395 0.31828 0.0
C644 C 0.7518 0.20112 0.29825 0.0
C645 C 0.74827 0.21464 0.29945 0.0
C646 C 0.76209 0.24866 0.28766 0.0
C647 C 0.74347 0.28083 0.30967 0.0
C648 C 0.74695 0.26636 0.30732 0.0
C649 C 0.7581 0.22456 0.30413 0.0
C650 C 0.75426 0.23896 0.30523 0.0
H651 H 0.71658 0.30194 0.30732 0.0
H652 H 0.72209 0.27811 0.30207 0.0
H653 H 0.76467 0.26937 0.27459 0.0
H654 H 0.78558 0.20431 0.30927 0.0
H655 H 0.77938 0.22799 0.31166 0.0
C656 C 0.27241 0.29962 0.81678 0.0
C657 C 0.26265 0.30926 0.82521 0.0
C658 C 0.26906 0.28599 0.81557 0.0
C659 C 0.2435 0.26161 0.84665 0.0
H660 H 0.25799 0.23939 0.77079 0.0
C661 C 0.22615 0.20675 0.82285 0.0
C662 C 0.23629 0.19743 0.81496 0.0
C663 C 0.22903 0.2205 0.82391 0.0
C664 C 0.25395 0.24543 0.79235 0.0
H665 H 0.24171 0.31212 0.83901 0.0
H666 H 0.2359 0.28849 0.83654 0.0
H667 H 0.26393 0.26305 0.77349 0.0
H668 H 0.2574 0.19527 0.80214 0.0
H669 H 0.26237 0.21905 0.80427 0.0
H670 H 0.23352 0.24396 0.86551 0.0
C671 C 0.24617 0.29139 0.83133 0.0
C672 C 0.25738 0.25899 0.79393 0.0
C673 C 0.2495 0.30497 0.83253 0.0
C674 C 0.24932 0.20215 0.80818 0.0
C675 C 0.25217 0.21583 0.80916 0.0
C676 C 0.24005 0.24803 0.84505 0.0
C677 C 0.25589 0.28172 0.82279 0.0
C678 C 0.25224 0.26726 0.82117 0.0
C679 C 0.24208 0.22519 0.81696 0.0
C680 C 0.2453 0.23976 0.81799 0.0
H681 H 0.28263 0.30257 0.81109 0.0
H682 H 0.27684 0.2788 0.80933 0.0
H683 H 0.23948 0.26764 0.86827 0.0
H684 H 0.21601 0.20345 0.82817 0.0
H685 H 0.221 0.22747 0.82972 0.0
C686 C 0.27701 0.79846 0.31306 0.0
C687 C 0.26731 0.80865 0.3114 0.0
C688 C 0.27317 0.78496 0.31223 0.0
C689 C 0.24396 0.76266 0.32757 0.0
H690 H 0.26473 0.73717 0.2723 0.0
C691 C 0.22684 0.70763 0.30578 0.0
C692 C 0.23685 0.69779 0.30895 0.0
C693 C 0.23025 0.72126 0.3051 0.0
C694 C 0.25888 0.74414 0.28812 0.0
H695 H 0.24597 0.81262 0.30745 0.0
H696 H 0.23934 0.7892 0.30563 0.0
H697 H 0.27148 0.76064 0.27367 0.0
H698 H 0.2583 0.6946 0.3138 0.0
H699 H 0.26417 0.71819 0.31287 0.0
H700 H 0.23138 0.74613 0.34207 0.0
C701 C 0.24989 0.79158 0.30809 0.0
C702 C 0.26277 0.75759 0.28896 0.0
C703 C 0.25372 0.80504 0.30891 0.0
C704 C 0.25031 0.70188 0.31123 0.0
C705 C 0.25371 0.71544 0.31046 0.0
C706 C 0.24006 0.74919 0.3267 0.0
C707 C 0.25955 0.78136 0.30975 0.0
C708 C 0.2554 0.76702 0.30881 0.0
C709 C 0.24374 0.72531 0.30741 0.0
C710 C 0.24752 0.73975 0.30713 0.0
H711 H 0.28756 0.80089 0.31507 0.0
H712 H 0.28086 0.77733 0.31398 0.0
H713 H 0.23814 0.76961 0.34352 0.0
H714 H 0.21638 0.70481 0.30394 0.0
H715 H 0.22234 0.72862 0.30242 0.0
C716 C 0.27759 0.20518 0.3169 0.0
C717 C 0.26772 0.19516 0.31871 0.0
C718 C 0.27398 0.21874 0.31684 0.0
C719 C 0.24528 0.24138 0.2988 0.0
H720 H 0.26592 0.26692 0.35426 0.0
C721 C 0.22846 0.29659 0.31773 0.0
C722 C 0.23855 0.30637 0.31528 0.0
C723 C 0.2318 0.28295 0.31886 0.0
C724 C 0.26012 0.25994 0.33835 0.0
H725 H 0.24629 0.19158 0.32202 0.0
H726 H 0.24006 0.21512 0.32226 0.0
H727 H 0.27239 0.24337 0.35424 0.0
H728 H 0.26006 0.30946 0.31207 0.0
H729 H 0.2658 0.28583 0.31369 0.0
H730 H 0.23303 0.25797 0.28284 0.0
C731 C 0.25058 0.21254 0.32038 0.0
C732 C 0.26385 0.24644 0.3383 0.0
C733 C 0.25418 0.19902 0.32047 0.0
C734 C 0.25201 0.30222 0.31409 0.0
C735 C 0.25533 0.28864 0.31525 0.0
C736 C 0.24155 0.25489 0.29885 0.0
C737 C 0.26042 0.22258 0.31853 0.0
C738 C 0.25649 0.23699 0.31847 0.0
C739 C 0.24529 0.27882 0.31766 0.0
C740 C 0.24896 0.26435 0.31851 0.0
H741 H 0.28811 0.20255 0.31544 0.0
H742 H 0.28181 0.22622 0.315 0.0
H743 H 0.2395 0.2344 0.28283 0.0
H744 H 0.218 0.29945 0.31876 0.0
H745 H 0.22382 0.27564 0.32106 0.0
C746 C 0.2522 0.70106 0.80191 0.0
C747 C 0.26555 0.69705 0.80755 0.0
C748 C 0.24865 0.7146 0.80294 0.0
C749 C 0.25983 0.74735 0.83763 0.0
H750 H 0.23477 0.76163 0.76786 0.0
C751 C 0.25048 0.80397 0.82312 0.0
C752 C 0.23731 0.80843 0.81703 0.0
C753 C 0.25359 0.79035 0.8221 0.0
C754 C 0.24164 0.75777 0.78783 0.0
H755 H 0.28565 0.70417 0.81857 0.0
H756 H 0.27946 0.72786 0.8202 0.0
H757 H 0.24109 0.73803 0.76539 0.0
H758 H 0.21705 0.80201 0.80502 0.0
H759 H 0.22247 0.77809 0.80354 0.0
H760 H 0.26039 0.76705 0.86012 0.0
C761 C 0.27171 0.72048 0.81531 0.0
C762 C 0.24529 0.74424 0.78638 0.0
C763 C 0.27528 0.70692 0.81419 0.0
C764 C 0.2273 0.79891 0.80978 0.0
C765 C 0.23042 0.78521 0.80876 0.0
C766 C 0.25618 0.76086 0.83912 0.0
C767 C 0.25834 0.72448 0.80971 0.0
C768 C 0.25447 0.73888 0.81118 0.0
C769 C 0.24362 0.78078 0.81504 0.0
C770 C 0.24709 0.76626 0.81412 0.0
H771 H 0.24442 0.69374 0.79679 0.0
H772 H 0.23824 0.71729 0.79898 0.0
H773 H 0.26674 0.7435 0.85755 0.0
H774 H 0.25848 0.81101 0.82861 0.0
H775 H 0.26389 0.78733 0.82641 0.0
C776 C 0.45697 0.02334 0.5054 0.0
C777 C 0.4498 0.02482 0.53759 0.0
C778 C 0.47006 0.01835 0.50558 0.0
C779 C 0.49265 0.99701 0.55798 0.0
H780 H 0.52036 0.01273 0.49857 0.0
C781 C 0.54801 0.97917 0.56212 0.0
C782 C 0.55538 0.97957 0.53001 0.0
C783 C 0.53499 0.98438 0.56356 0.0
C784 C 0.51271 0.00807 0.51491 0.0
H785 H 0.45087 0.02246 0.59535 0.0
H786 H 0.47375 0.01366 0.5956 0.0
H787 H 0.49825 0.02301 0.50065 0.0
H788 H 0.5546 0.98511 0.47383 0.0
H789 H 0.53181 0.99375 0.476 0.0
H790 H 0.507 0.9819 0.57174 0.0
C791 C 0.46919 0.01633 0.57023 0.0
C792 C 0.50004 0.01402 0.51623 0.0
C793 C 0.45613 0.02147 0.57009 0.0
C794 C 0.54924 0.98475 0.49906 0.0
C795 C 0.5362 0.98983 0.50041 0.0
C796 C 0.5053 0.99096 0.55644 0.0
C797 C 0.47624 0.0146 0.53793 0.0
C798 C 0.48986 0.00854 0.53768 0.0
C799 C 0.52899 0.98999 0.53285 0.0
C800 C 0.51549 0.99638 0.53474 0.0
H801 H 0.45239 0.02582 0.4799 0.0
H802 H 0.47519 0.01704 0.48023 0.0
H803 H 0.48495 0.99245 0.57441 0.0
H804 H 0.55248 0.97533 0.58652 0.0
H805 H 0.52982 0.98442 0.58908 0.0
C806 C 0.95121 0.0068 0.10052 0.0
C807 C 0.94568 0.01727 0.08005 0.0
C808 C 0.96467 0.00325 0.09673 0.0
C809 C 0.99218 0.00388 0.03211 0.0
H810 H 0.01434 0.99585 0.11485 0.0
C811 C 0.04871 0.99253 0.0196 0.0
C812 C 0.05445 0.98307 0.04296 0.0
C813 C 0.03541 0.99657 0.02382 0.0
C814 C 0.00824 0.99785 0.09142 0.0
H815 H 0.95001 0.03239 0.03997 0.0
H816 H 0.97362 0.02607 0.03306 0.0
H817 H 0.99149 0.00388 0.1235 0.0
H818 H 0.05055 0.97012 0.08847 0.0
H819 H 0.02718 0.97694 0.09536 0.0
H820 H 0.00878 0.99762 0.99996 0.0
C821 C 0.96746 0.02063 0.05202 0.0
C822 C 0.99517 0.00253 0.09641 0.0
C823 C 0.95399 0.0243 0.05614 0.0
C824 C 0.04645 0.97746 0.07008 0.0
C825 C 0.03308 0.98147 0.07421 0.0
C826 C 0.00522 0.9991 0.0271 0.0
C827 C 0.97291 0.01 0.07212 0.0
C828 C 0.98699 0.00559 0.06682 0.0
C829 C 0.02744 0.9912 0.05138 0.0
C830 C 0.01343 0.99601 0.05669 0.0
H831 H 0.9451 1.00121 0.11928 0.0
H832 H 0.96852 0.99496 0.11237 0.0
H833 H 0.98604 0.00594 0.00879 0.0
H834 H 0.05457 0.99709 0.99845 0.0
H835 H 0.0315 0.0042 0.00601 0.0
C836 C 0.55158 0.01037 0.09992 0.0
C837 C 0.55651 0.02166 0.0816 0.0
C838 C 0.53806 0.00685 0.09774 0.0
C839 C 0.50858 0.01058 0.03935 0.0
H840 H 0.48932 0.99667 0.12166 0.0
C841 C 0.45197 0.99854 0.03464 0.0
C842 C 0.44735 0.98719 0.05326 0.0
C843 C 0.46524 0.00281 0.03806 0.0
C844 C 0.4946 1.00037 0.0983 0.0
H845 H 0.55098 0.03834 0.04739 0.0
H846 H 0.52726 0.03221 0.04371 0.0
H847 H 0.51224 0.0047 0.12888 0.0
H848 H 0.4532 0.97126 0.0896 0.0
H849 H 0.47646 0.9786 0.09517 0.0
H850 H 0.49101 0.00614 0.00868 0.0
C851 C 0.53394 0.02601 0.05948 0.0
C852 C 0.50773 0.00502 0.10247 0.0
C853 C 0.5475 0.02958 0.06182 0.0
C854 C 0.45641 0.98006 0.07492 0.0
C855 C 0.46973 0.98434 0.07834 0.0
C856 C 0.49546 0.0059 0.03516 0.0
C857 C 0.5291 0.0145 0.0771 0.0
C858 C 0.5149 0.01015 0.07303 0.0
C859 C 0.47428 0.99584 0.06015 0.0
C860 C 0.48831 1.0007 0.06456 0.0
H861 H 0.55822 0.00404 0.11545 0.0
H862 H 0.53472 0.99786 0.11135 0.0
H863 H 0.51389 0.01424 0.01599 0.0
H864 H 0.44527 0.00431 0.01779 0.0
H865 H 0.46832 0.0118 0.02401 0.0
C866 C 0.04696 0.02488 0.57891 0.0
C867 C 0.05607 0.01737 0.55839 0.0
C868 C 0.03362 0.02068 0.58249 0.0
C869 C 0.00786 0.99893 0.54091 0.0
H870 H 0.99163 0.99963 0.63532 0.0
C871 C 0.95669 0.97376 0.56938 0.0
C872 C 0.94775 0.9808 0.59159 0.0
C873 C 0.97001 0.97801 0.56576 0.0
C874 C 0.99594 0.99949 0.60868 0.0
H875 H 0.05823 0.99972 0.5249 0.0
H876 H 0.03509 0.99246 0.53113 0.0
H877 H 0.01434 0.00811 0.62722 0.0
H878 H 0.94589 0.99771 0.6278 0.0
H879 H 0.96892 0.00517 0.62115 0.0
H880 H 0.98945 0.9904 0.52227 0.0
C881 C 0.03818 1.00161 0.54433 0.0
C882 C 0.00897 0.00438 0.60405 0.0
C883 C 0.05149 0.00575 0.54093 0.0
C884 C 0.95249 0.99201 0.61054 0.0
C885 C 0.96576 0.99627 0.60688 0.0
C886 C 0.99481 0.99409 0.54551 0.0
C887 C 0.02911 0.00894 0.56541 0.0
C888 C 0.01509 0.00413 0.57012 0.0
C889 C 0.97468 0.9894 0.58424 0.0
C890 C 0.98868 0.9943 0.57946 0.0
H891 H 0.05016 0.03387 0.5927 0.0
H892 H 0.02684 0.02663 0.5986 0.0
H893 H 0.01222 0.99874 0.51432 0.0
H894 H 0.95338 0.96507 0.55444 0.0
H895 H 0.97665 0.97236 0.54849 0.0
C896 C 0.11603 0.47463 0.93408 0.0
C897 C 0.11148 0.48196 0.96386 0.0
C898 C 0.11714 0.48071 0.90041 0.0
C899 C 0.11771 0.51382 0.85416 0.0
H900 H 0.10493 0.49313 0.77307 0.0
C901 C 0.10306 0.53756 0.71808 0.0
C902 C 0.10628 0.53056 0.68655 0.0
C903 C 0.10539 0.53184 0.75175 0.0
C904 C 0.10872 0.49899 0.79531 0.0
H905 H 0.10489 0.50156 0.98177 0.0
H906 H 0.1066 0.51209 0.92301 0.0
H907 H 0.10596 0.48281 0.83212 0.0
H908 H 0.11487 0.51216 0.66574 0.0
H909 H 0.11895 0.50219 0.72453 0.0
H910 H 0.12013 0.53012 0.81726 0.0
C911 C 0.10951 0.50169 0.9257 0.0
C912 C 0.10934 0.49307 0.82923 0.0
C913 C 0.10846 0.49562 0.95942 0.0
C914 C 0.11223 0.51783 0.68948 0.0
C915 C 0.11449 0.51207 0.72317 0.0
C916 C 0.11703 0.51977 0.82021 0.0
C917 C 0.11366 0.49426 0.89562 0.0
C918 C 0.11374 0.50043 0.85919 0.0
C919 C 0.11095 0.51894 0.75469 0.0
C920 C 0.11243 0.51246 0.79043 0.0
H921 H 0.11853 0.46412 0.93659 0.0
H922 H 0.12062 0.47474 0.87803 0.0
H923 H 0.12134 0.51973 0.87647 0.0
H924 H 0.09847 0.54739 0.71682 0.0
H925 H 0.10242 0.53735 0.77547 0.0
C926 C 0.75268 0.86169 0.92427 0.0
C927 C 0.73933 0.85998 0.91312 0.0
C928 C 0.75581 0.86317 0.96065 0.0
C929 C 0.74103 0.87064 0.05015 0.0
H930 H 0.77174 0.85073 0.08509 0.0
C931 C 0.75017 0.85964 0.20087 0.0
C932 C 0.76345 0.8596 0.21354 0.0
C933 C 0.74745 0.86127 0.1643 0.0
C934 C 0.76325 0.85653 0.07578 0.0
H935 H 0.71875 0.85887 0.93157 0.0
H936 H 0.72421 0.86128 0.99497 0.0
H937 H 0.76659 0.85071 0.02133 0.0
H938 H 0.78425 0.86179 0.19768 0.0
H939 H 0.77948 0.86476 0.13403 0.0
H940 H 0.73758 0.87625 0.10486 0.0
C941 C 0.73227 0.86163 0.97558 0.0
C942 C 0.76029 0.85652 0.03912 0.0
C943 C 0.72914 0.86018 0.93917 0.0
C944 C 0.77391 0.86169 0.18889 0.0
C945 C 0.77118 0.86331 0.15231 0.0
C946 C 0.74398 0.87063 0.08688 0.0
C947 C 0.74567 0.86295 0.98685 0.0
C948 C 0.7491 0.8635 0.0258 0.0
C949 C 0.75793 0.8629 0.13945 0.0
C950 C 0.75509 0.86351 0.1002 0.0
H951 H 0.76079 0.86167 0.90496 0.0
H952 H 0.76621 0.8644 0.96825 0.0
H953 H 0.73244 0.87628 0.04082 0.0
H954 H 0.74187 0.85805 0.21906 0.0
H955 H 0.73713 0.86078 0.15536 0.0
C956 C 0.39107 0.49175 0.18033 0.0
C957 C 0.39442 0.47809 0.17776 0.0
C958 C 0.38946 0.49782 0.21387 0.0
C959 C 0.38385 0.49081 0.31031 0.0
H960 H 0.40211 0.52469 0.32437 0.0
C961 C 0.39452 0.51276 0.45111 0.0
C962 C 0.39443 0.52675 0.45541 0.0
C963 C 0.3929 0.50702 0.41714 0.0
C964 C 0.39673 0.51536 0.32087 0.0
H965 H 0.39825 0.46003 0.20848 0.0
H966 H 0.39541 0.47063 0.2669 0.0
H967 H 0.40199 0.51436 0.26529 0.0
H968 H 0.39197 0.54567 0.42753 0.0
H969 H 0.38885 0.53568 0.36852 0.0
H970 H 0.37864 0.49177 0.36596 0.0
C971 C 0.39398 0.47663 0.24299 0.0
C972 C 0.39669 0.50942 0.28692 0.0
C973 C 0.39568 0.47057 0.20947 0.0
C974 C 0.3922 0.53485 0.42515 0.0
C975 C 0.3905 0.52912 0.39123 0.0
C976 C 0.38382 0.49679 0.34427 0.0
C977 C 0.39107 0.49037 0.24561 0.0
C978 C 0.39036 0.49702 0.28129 0.0
C979 C 0.39107 0.51514 0.38664 0.0
C980 C 0.39038 0.50909 0.35009 0.0
H981 H 0.39 0.49784 0.15646 0.0
H982 H 0.38705 0.5084 0.21497 0.0
H983 H 0.37874 0.48133 0.30676 0.0
H984 H 0.39625 0.50621 0.47382 0.0
H985 H 0.39355 0.49624 0.41468 0.0
C986 C 0.73288 0.14418 0.67899 0.0
C987 C 0.74321 0.14624 0.70404 0.0
C988 C 0.7358 0.14248 0.64253 0.0
C989 C 0.76249 0.14991 0.57626 0.0
H990 H 0.74156 0.12682 0.51419 0.0
C991 C 0.7757 0.14347 0.42674 0.0
C992 C 0.76496 0.14438 0.40242 0.0
C993 C 0.77333 0.14214 0.46356 0.0
C994 C 0.74745 0.13336 0.53116 0.0
H995 H 0.76477 0.14751 0.71053 0.0
H996 H 0.76988 0.14427 0.64729 0.0
H997 H 0.73696 0.12723 0.57853 0.0
H998 H 0.74329 0.14405 0.39778 0.0
H999 H 0.73918 0.14173 0.46196 0.0
H1000 H 0.77292 0.1561 0.52897 0.0
C1001 C 0.75948 0.1443 0.65557 0.0
C1002 C 0.7448 0.13362 0.56806 0.0
C1003 C 0.75655 0.14607 0.69195 0.0
C1004 C 0.75181 0.14339 0.41571 0.0
C1005 C 0.74944 0.142 0.45254 0.0
C1006 C 0.76517 0.1496 0.53948 0.0
C1007 C 0.74914 0.14273 0.63024 0.0
C1008 C 0.75224 0.14196 0.5911 0.0
C1009 C 0.76017 0.14162 0.47699 0.0
C1010 C 0.75764 0.14139 0.5164 0.0
H1011 H 0.72249 0.14429 0.68734 0.0
H1012 H 0.72756 0.14144 0.62384 0.0
H1013 H 0.76825 0.15667 0.59293 0.0
H1014 H 0.78597 0.14414 0.41748 0.0
H1015 H 0.78183 0.14166 0.48159 0.0
C1016 C 0.89393 0.51288 0.18001 0.0
C1017 C 0.89782 0.5264 0.17777 0.0
C1018 C 0.89206 0.50675 0.21338 0.0
C1019 C 0.88687 0.51364 0.31013 0.0
H1020 H 0.90346 0.47884 0.32285 0.0
C1021 C 0.8971 0.49052 0.44987 0.0
C1022 C 0.89619 0.47654 0.45376 0.0
C1023 C 0.8956 0.49651 0.41616 0.0
C1024 C 0.89855 0.48845 0.31971 0.0
H1025 H 0.90231 0.54419 0.20894 0.0
H1026 H 0.89907 0.53349 0.26707 0.0
H1027 H 0.90373 0.48943 0.2641 0.0
H1028 H 0.89239 0.45794 0.42546 0.0
H1029 H 0.88952 0.46838 0.36689 0.0
H1030 H 0.8818 0.5127 0.36588 0.0
C1031 C 0.89741 0.52764 0.24302 0.0
C1032 C 0.89872 0.49453 0.28595 0.0
C1033 C 0.89934 0.53375 0.20966 0.0
C1034 C 0.89326 0.46873 0.42339 0.0
C1035 C 0.8917 0.47472 0.38973 0.0
C1036 C 0.88665 0.50753 0.34391 0.0
C1037 C 0.89396 0.51401 0.2453 0.0
C1038 C 0.893 0.50726 0.2808 0.0
C1039 C 0.8931 0.48866 0.38554 0.0
C1040 C 0.8926 0.4949 0.34922 0.0
H1041 H 0.89262 0.50692 0.15599 0.0
H1042 H 0.88922 0.49628 0.2142 0.0
H1043 H 0.88222 0.52338 0.30695 0.0
H1044 H 0.89938 0.49684 0.47268 0.0
H1045 H 0.89689 0.50725 0.41395 0.0
C1046 C 0.23154 0.14159 0.94094 0.0
C1047 C 0.24177 0.14477 0.91643 0.0
C1048 C 0.23444 0.13975 0.97736 0.0
C1049 C 0.26227 0.13366 0.04179 0.0
H1050 H 0.23841 0.15092 0.10954 0.0
C1051 C 0.27686 0.14343 0.18994 0.0
C1052 C 0.26681 0.14255 0.21627 0.0
C1053 C 0.27369 0.14216 0.15352 0.0
C1054 C 0.24509 0.14584 0.09112 0.0
H1055 H 0.26316 0.14805 0.91097 0.0
H1056 H 0.26819 0.14492 0.97436 0.0
H1057 H 0.23307 0.15131 0.04589 0.0
H1058 H 0.24559 0.13913 0.22486 0.0
H1059 H 0.2401 0.13672 0.16151 0.0
H1060 H 0.27437 0.12833 0.0871 0.0
C1061 C 0.25793 0.14375 0.96544 0.0
C1062 C 0.24201 0.14607 0.05452 0.0
C1063 C 0.25502 0.14561 0.92905 0.0
C1064 C 0.25358 0.13994 0.20534 0.0
C1065 C 0.25041 0.13865 0.16893 0.0
C1066 C 0.26534 0.13341 0.07845 0.0
C1067 C 0.24765 0.14101 0.99018 0.0
C1068 C 0.25061 0.14008 0.02932 0.0
C1069 C 0.26038 0.13995 0.14249 0.0
C1070 C 0.25684 0.13959 0.10359 0.0
H1071 H 0.22122 0.14081 0.93218 0.0
H1072 H 0.2263 0.13744 0.99554 0.0
H1073 H 0.26903 0.12878 0.02321 0.0
H1074 H 0.28716 0.14546 0.19736 0.0
H1075 H 0.28161 0.14336 0.13396 0.0
C1076 C 0.60776 0.5328 0.93281 0.0
C1077 C 0.60744 0.52538 0.96486 0.0
C1078 C 0.60984 0.52642 0.8999 0.0
C1079 C 0.60536 0.49369 0.8566 0.0
H1080 H 0.62618 0.5096 0.77984 0.0
C1081 C 0.61015 0.46786 0.71884 0.0
C1082 C 0.60886 0.47615 0.68854 0.0
C1083 C 0.61179 0.47342 0.753 0.0
C1084 C 0.62025 0.50507 0.80091 0.0
H1085 H 0.60953 0.50547 0.98751 0.0
H1086 H 0.61319 0.49435 0.93005 0.0
H1087 H 0.62591 0.52016 0.83888 0.0
H1088 H 0.60866 0.4968 0.67034 0.0
H1089 H 0.61129 0.50647 0.72984 0.0
H1090 H 0.59941 0.47881 0.8186 0.0
C1091 C 0.61169 0.50509 0.93038 0.0
C1092 C 0.62011 0.51111 0.83476 0.0
C1093 C 0.60967 0.51148 0.96334 0.0
C1094 C 0.60964 0.49011 0.69308 0.0
C1095 C 0.61123 0.49567 0.72724 0.0
C1096 C 0.60546 0.48768 0.82276 0.0
C1097 C 0.61158 0.51246 0.89822 0.0
C1098 C 0.61255 0.50557 0.86292 0.0
C1099 C 0.61213 0.4874 0.75772 0.0
C1100 C 0.61279 0.49336 0.79434 0.0
H1101 H 0.60609 0.54353 0.93299 0.0
H1102 H 0.60957 0.53238 0.87563 0.0
H1103 H 0.59926 0.48927 0.87751 0.0
H1104 H 0.60968 0.45706 0.7163 0.0
H1105 H 0.61268 0.46674 0.77577 0.0
C1106 C 0.25563 0.85947 0.70304 0.0
C1107 C 0.2424 0.86064 0.71566 0.0
C1108 C 0.25855 0.86118 0.66661 0.0
C1109 C 0.24249 0.85894 0.57767 0.0
H1110 H 0.27525 0.87574 0.54449 0.0
C1111 C 0.25408 0.86424 0.42666 0.0
C1112 C 0.26724 0.86127 0.41577 0.0
C1113 C 0.25097 0.86573 0.46304 0.0
C1114 C 0.2661 0.87092 0.55331 0.0
H1115 H 0.22194 0.86504 0.6999 0.0
H1116 H 0.22705 0.86815 0.63648 0.0
H1117 H 0.26995 0.87567 0.60841 0.0
H1118 H 0.28752 0.85788 0.43471 0.0
H1119 H 0.28206 0.86031 0.49807 0.0
H1120 H 0.23872 0.85397 0.5228 0.0
C1121 C 0.23515 0.8657 0.65468 0.0
C1122 C 0.26306 0.87089 0.58999 0.0
C1123 C 0.23223 0.864 0.69113 0.0
C1124 C 0.27728 0.86019 0.4421 0.0
C1125 C 0.27416 0.86165 0.47849 0.0
C1126 C 0.24553 0.85895 0.54106 0.0
C1127 C 0.24831 0.86409 0.64185 0.0
C1128 C 0.25126 0.86481 0.60267 0.0
C1129 C 0.26092 0.86425 0.48949 0.0
C1130 C 0.25742 0.86486 0.52838 0.0
H1131 H 0.26371 0.85688 0.72114 0.0
H1132 H 0.26877 0.85974 0.65769 0.0
H1133 H 0.23343 0.85395 0.58648 0.0
H1134 H 0.24611 0.86522 0.40712 0.0
H1135 H 0.24072 0.86795 0.47044 0.0
C1136 C 0.61064 0.01277 0.17751 0.0
C1137 C 0.61025 0.02679 0.17385 0.0
C1138 C 0.61232 0.00687 0.21128 0.0
C1139 C 0.6074 0.01438 0.30744 0.0
H1140 H 0.62702 0.98127 0.32173 0.0
C1141 C 0.61236 0.99051 0.44758 0.0
C1142 C 0.60989 0.97666 0.44956 0.0
C1143 C 0.61419 0.99679 0.41438 0.0
C1144 C 0.62144 0.99049 0.31812 0.0
H1145 H 0.61193 0.04559 0.20268 0.0
H1146 H 0.61511 0.03532 0.26133 0.0
H1147 H 0.62707 0.99199 0.26281 0.0
H1148 H 0.60795 0.95847 0.41817 0.0
H1149 H 0.61109 0.96942 0.36034 0.0
H1150 H 0.60164 0.01282 0.36252 0.0
C1151 C 0.61381 0.02886 0.23825 0.0
C1152 C 0.62146 0.99662 0.28434 0.0
C1153 C 0.61208 0.03476 0.20454 0.0
C1154 C 0.60982 0.96916 0.41765 0.0
C1155 C 0.61169 0.97543 0.38446 0.0
C1156 C 0.60742 0.00827 0.34117 0.0
C1157 C 0.6137 0.01484 0.24218 0.0
C1158 C 0.61434 0.0086 0.27849 0.0
C1159 C 0.61364 0.98936 0.38236 0.0
C1160 C 0.61435 0.99619 0.34689 0.0
H1161 H 0.60923 0.00633 0.15444 0.0
H1162 H 0.61205 0.99605 0.21327 0.0
H1163 H 0.60159 0.02345 0.30385 0.0
H1164 H 0.61253 0.9966 0.47162 0.0
H1165 H 0.61588 0.0075 0.41376 0.0
C1166 C 0.23128 0.36004 0.43801 0.0
C1167 C 0.24167 0.35986 0.41253 0.0
C1168 C 0.2341 0.36157 0.47456 0.0
C1169 C 0.26167 0.35699 0.54007 0.0
H1170 H 0.23767 0.37598 0.60406 0.0
C1171 C 0.27295 0.36226 0.69167 0.0
C1172 C 0.26218 0.35973 0.71502 0.0
C1173 C 0.27079 0.36381 0.65477 0.0
C1174 C 0.24444 0.37057 0.58658 0.0
H1175 H 0.26316 0.36167 0.40558 0.0
H1176 H 0.26806 0.36458 0.46917 0.0
H1177 H 0.23334 0.37607 0.53965 0.0
H1178 H 0.2406 0.35729 0.71785 0.0
H1179 H 0.23684 0.35998 0.65368 0.0
H1180 H 0.2727 0.3514 0.58701 0.0
C1181 C 0.25774 0.36326 0.461 0.0
C1182 C 0.24195 0.3706 0.5496 0.0
C1183 C 0.25491 0.36168 0.42444 0.0
C1184 C 0.24914 0.35922 0.7007 0.0
C1185 C 0.24697 0.36083 0.66386 0.0
C1186 C 0.26418 0.35699 0.577 0.0
C1187 C 0.24739 0.36301 0.48664 0.0
C1188 C 0.25045 0.36369 0.52585 0.0
C1189 C 0.25778 0.36295 0.64032 0.0
C1190 C 0.25553 0.36367 0.6008 0.0
H1191 H 0.22095 0.35863 0.42987 0.0
H1192 H 0.22587 0.36117 0.49345 0.0
H1193 H 0.26832 0.35136 0.52279 0.0
H1194 H 0.28312 0.36274 0.70174 0.0
H1195 H 0.27932 0.3656 0.6375 0.0
C1196 C 0.89238 0.00617 0.96394 0.0
C1197 C 0.89241 0.02025 0.96531 0.0
C1198 C 0.89115 0.9995 0.93109 0.0
C1199 C 0.88116 0.00403 0.83586 0.0
H1200 H 0.90655 0.97538 0.81848 0.0
C1201 C 0.89343 0.98456 0.69345 0.0
C1202 C 0.89633 0.97087 0.68908 0.0
C1203 C 0.89137 0.98993 0.72768 0.0
C1204 C 0.89922 0.98319 0.82298 0.0
H1205 H 0.89063 0.03833 0.93331 0.0
H1206 H 0.8885 0.02671 0.87621 0.0
H1207 H 0.9055 0.98576 0.87743 0.0
H1208 H 0.8988 0.952 0.71721 0.0
H1209 H 0.89497 0.96131 0.77671 0.0
H1210 H 0.87498 1.00156 0.78124 0.0
C1211 C 0.88936 0.02081 0.90048 0.0
C1212 C 0.89862 0.98916 0.85686 0.0
C1213 C 0.89067 0.02748 0.93326 0.0
C1214 C 0.89669 0.96261 0.71961 0.0
C1215 C 0.89457 0.96797 0.75379 0.0
C1216 C 0.88172 0.99803 0.80197 0.0
C1217 C 0.88983 0.00674 0.8989 0.0
C1218 C 0.8897 0.99976 0.86361 0.0
C1219 C 0.8921 0.98174 0.75835 0.0
C1220 C 0.89087 0.98763 0.79497 0.0
H1221 H 0.89369 1.0003 0.98812 0.0
H1222 H 0.89138 0.98865 0.93084 0.0
H1223 H 0.87404 0.01206 0.84031 0.0
H1224 H 0.89312 0.99122 0.67053 0.0
H1225 H 0.88964 1.0006 0.73013 0.0
C1226 C 0.27536 0.6443 0.93687 0.0
C1227 C 0.26517 0.64424 0.91079 0.0
C1228 C 0.27225 0.64281 0.97329 0.0
C1229 C 0.24408 0.64749 0.03647 0.0
H1230 H 0.26704 0.62834 0.10291 0.0
C1231 C 0.23018 0.64239 0.18598 0.0
C1232 C 0.24053 0.64465 0.21087 0.0
C1233 C 0.23305 0.64075 0.1495 0.0
C1234 C 0.26057 0.6338 0.08474 0.0
H1235 H 0.24377 0.64199 0.90257 0.0
H1236 H 0.23839 0.63921 0.96584 0.0
H1237 H 0.27232 0.6283 0.03895 0.0
H1238 H 0.26207 0.6465 0.2169 0.0
H1239 H 0.26705 0.64375 0.15335 0.0
H1240 H 0.23243 0.65315 0.08215 0.0
C1241 C 0.24877 0.64068 0.95827 0.0
C1242 C 0.2636 0.63378 0.04805 0.0
C1243 C 0.25187 0.64219 0.92191 0.0
C1244 C 0.25385 0.64476 0.19853 0.0
C1245 C 0.25671 0.64312 0.16204 0.0
C1246 C 0.24105 0.6475 0.07308 0.0
C1247 C 0.25888 0.64121 0.98452 0.0
C1248 C 0.25543 0.64069 0.02345 0.0
C1249 C 0.24633 0.64133 0.13695 0.0
C1250 C 0.24929 0.64072 0.09776 0.0
H1251 H 0.28572 0.64588 0.9293 0.0
H1252 H 0.2803 0.64339 0.99273 0.0
H1253 H 0.2377 0.65313 0.01849 0.0
H1254 H 0.21981 0.64217 0.19453 0.0
H1255 H 0.22482 0.63915 0.13105 0.0
C1256 C 0.39292 0.99127 0.95274 0.0
C1257 C 0.3971 0.97785 0.95522 0.0
C1258 C 0.39089 0.99727 0.91925 0.0
C1259 C 0.38565 0.99 0.8228 0.0
H1260 H 0.40196 0.02486 0.80871 0.0
C1261 C 0.39572 0.01215 0.68213 0.0
C1262 C 0.39483 0.0261 0.67738 0.0
C1263 C 0.39423 0.00646 0.71618 0.0
C1264 C 0.39712 0.01524 0.81224 0.0
H1265 H 0.40196 0.96007 0.92439 0.0
H1266 H 0.39841 0.97053 0.86606 0.0
H1267 H 0.40235 0.01458 0.86788 0.0
H1268 H 0.39111 0.04494 0.70455 0.0
H1269 H 0.38824 0.035 0.76377 0.0
H1270 H 0.3805 0.99062 0.76708 0.0
C1271 C 0.39665 0.97641 0.89 0.0
C1272 C 0.39737 0.00933 0.84623 0.0
C1273 C 0.39876 0.97043 0.92347 0.0
C1274 C 0.39196 0.03417 0.70728 0.0
C1275 C 0.3904 0.02847 0.74131 0.0
C1276 C 0.38534 0.99595 0.78881 0.0
C1277 C 0.39291 0.98996 0.88748 0.0
C1278 C 0.39178 0.99658 0.85184 0.0
C1279 C 0.39174 0.01456 0.74633 0.0
C1280 C 0.39122 0.00858 0.78297 0.0
H1281 H 0.39153 0.99727 0.97665 0.0
H1282 H 0.38785 0.00768 0.91821 0.0
H1283 H 0.3811 0.98024 0.82636 0.0
H1284 H 0.39796 0.00563 0.65971 0.0
H1285 H 0.3955 0.99573 0.71899 0.0
C1286 C 0.72741 0.64251 0.44349 0.0
C1287 C 0.7384 0.64327 0.41996 0.0
C1288 C 0.72938 0.64104 0.48048 0.0
C1289 C 0.75456 0.63131 0.54926 0.0
H1290 H 0.73365 0.65434 0.61145 0.0
C1291 C 0.76887 0.64114 0.69759 0.0
C1292 C 0.75856 0.64319 0.72272 0.0
C1293 C 0.76593 0.63963 0.66107 0.0
C1294 C 0.73944 0.64765 0.59465 0.0
H1295 H 0.7601 0.64262 0.41698 0.0
H1296 H 0.76353 0.64007 0.48134 0.0
H1297 H 0.72934 0.65432 0.54722 0.0
H1298 H 0.73702 0.64468 0.72916 0.0
H1299 H 0.73189 0.64179 0.66573 0.0
H1300 H 0.76472 0.6247 0.59669 0.0
C1301 C 0.75337 0.64055 0.47121 0.0
C1302 C 0.73696 0.64766 0.5577 0.0
C1303 C 0.75139 0.64208 0.43425 0.0
C1304 C 0.74522 0.64321 0.71057 0.0
C1305 C 0.74228 0.64165 0.67408 0.0
C1306 C 0.757 0.63126 0.58627 0.0
C1307 C 0.7424 0.64021 0.49488 0.0
C1308 C 0.74457 0.63958 0.53446 0.0
C1309 C 0.75261 0.64008 0.64871 0.0
C1310 C 0.74956 0.63952 0.60947 0.0
H1311 H 0.71726 0.64336 0.43344 0.0
H1312 H 0.7207 0.64064 0.49787 0.0
H1313 H 0.76048 0.62482 0.53221 0.0
H1314 H 0.77927 0.64111 0.70592 0.0
H1315 H 0.77418 0.63859 0.64241 0.0
C1316 C 0.10717 0.01368 0.44981 0.0
C1317 C 0.10627 0.02765 0.454 0.0
C1318 C 0.10865 0.00801 0.41571 0.0
C1319 C 0.10271 0.01585 0.31984 0.0
H1320 H 0.12315 0.98337 0.30382 0.0
C1321 C 0.10841 0.99289 0.17863 0.0
C1322 C 0.1062 0.97901 0.17612 0.0
C1323 C 0.10994 0.99903 0.21211 0.0
C1324 C 0.11735 0.99241 0.30792 0.0
H1325 H 0.1068 0.04663 0.42573 0.0
H1326 H 0.10968 0.03679 0.36648 0.0
H1327 H 0.12322 0.99379 0.36305 0.0
H1328 H 0.10434 0.96064 0.20686 0.0
H1329 H 0.10701 0.97136 0.26517 0.0
H1330 H 0.0968 0.01444 0.26481 0.0
C1331 C 0.10891 0.03017 0.3894 0.0
C1332 C 0.11736 0.99838 0.3419 0.0
C1333 C 0.10734 0.03583 0.42345 0.0
C1334 C 0.10601 0.97136 0.2078 0.0
C1335 C 0.10761 0.97749 0.24125 0.0
C1336 C 0.10276 0.00993 0.28588 0.0
C1337 C 0.10935 0.01617 0.38497 0.0
C1338 C 0.10994 0.01012 0.3484 0.0
C1339 C 0.10938 0.99144 0.24385 0.0
C1340 C 0.10999 0.99808 0.27956 0.0
H1341 H 0.10633 0.00708 0.47276 0.0
H1342 H 0.10879 0.9972 0.41339 0.0
H1343 H 0.09667 0.02473 0.32391 0.0
H1344 H 0.10865 0.99908 0.15478 0.0
H1345 H 0.11146 0.00977 0.21316 0.0
C1346 C 0.73154 0.36451 0.20055 0.0
C1347 C 0.74207 0.36221 0.2249 0.0
C1348 C 0.73411 0.36593 0.16386 0.0
C1349 C 0.76083 0.37239 0.09676 0.0
H1350 H 0.73786 0.35164 0.03398 0.0
C1351 C 0.77444 0.36109 0.9485 0.0
C1352 C 0.764 0.3601 0.92331 0.0
C1353 C 0.77164 0.36287 0.98501 0.0
C1354 C 0.74426 0.3577 0.05092 0.0
H1355 H 0.76364 0.36023 0.22973 0.0
H1356 H 0.76811 0.36273 0.16574 0.0
H1357 H 0.7332 0.35234 0.09792 0.0
H1358 H 0.74242 0.3608 0.91667 0.0
H1359 H 0.73755 0.36421 0.97999 0.0
H1360 H 0.77193 0.37771 0.04967 0.0
C1361 C 0.75786 0.36346 0.17507 0.0
C1362 C 0.74158 0.35808 0.08771 0.0
C1363 C 0.75529 0.36197 0.21179 0.0
C1364 C 0.75071 0.36141 0.93534 0.0
C1365 C 0.74792 0.36327 0.97177 0.0
C1366 C 0.76348 0.37208 0.05985 0.0
C1367 C 0.74728 0.36515 0.15055 0.0
C1368 C 0.74987 0.36536 0.11116 0.0
C1369 C 0.75832 0.36377 0.99724 0.0
C1370 C 0.75527 0.36465 0.03642 0.0
H1371 H 0.72124 0.36481 0.20965 0.0
H1372 H 0.72575 0.36744 0.14579 0.0
H1373 H 0.76734 0.37821 0.11402 0.0
H1374 H 0.78479 0.36008 0.94021 0.0
H1375 H 0.77993 0.36306 1.00376 0.0
C1376 C 0.12325 0.52691 0.444 0.0
C1377 C 0.11591 0.52094 0.47195 0.0
C1378 C 0.12309 0.52136 0.40957 0.0
C1379 C 0.10135 0.50029 0.35346 0.0
H1380 H 0.13139 0.50017 0.28747 0.0
C1381 C 0.0982 0.47406 0.21737 0.0
C1382 C 0.10319 0.48092 0.18729 0.0
C1383 C 0.1007 0.47877 0.25188 0.0
C1384 C 0.1229 0.50027 0.30555 0.0
H1385 H 0.10347 0.50396 0.48636 0.0
H1386 H 0.10345 0.49413 0.42662 0.0
H1387 H 0.13459 0.50807 0.34904 0.0
H1388 H 0.11495 0.49799 0.16988 0.0
H1389 H 0.11928 0.50632 0.23062 0.0
H1390 H 0.08965 0.49255 0.31022 0.0
C1391 C 0.10901 0.5033 0.431 0.0
C1392 C 0.12473 0.50476 0.34078 0.0
C1393 C 0.1091 0.50888 0.46531 0.0
C1394 C 0.11094 0.49251 0.19254 0.0
C1395 C 0.11348 0.49723 0.22727 0.0
C1396 C 0.09954 0.49579 0.31843 0.0
C1397 C 0.11565 0.5097 0.40248 0.0
C1398 C 0.11398 0.50475 0.36518 0.0
C1399 C 0.10826 0.49046 0.25726 0.0
C1400 C 0.11029 0.49565 0.29413 0.0
H1401 H 0.1286 0.53622 0.44824 0.0
H1402 H 0.12827 0.52657 0.38819 0.0
H1403 H 0.09277 0.50048 0.37121 0.0
H1404 H 0.09228 0.46504 0.21436 0.0
H1405 H 0.09673 0.47321 0.27446 0.0
C1406 C 0.73105 0.8749 0.68756 0.0
C1407 C 0.73618 0.86602 0.71349 0.0
C1408 C 0.73523 0.87406 0.65179 0.0
C1409 C 0.74812 0.84891 0.58927 0.0
H1410 H 0.75601 0.87882 0.52633 0.0
C1411 C 0.77297 0.84111 0.45293 0.0
C1412 C 0.76888 0.84888 0.42348 0.0
C1413 C 0.76822 0.84384 0.48727 0.0
C1414 C 0.75363 0.87039 0.54345 0.0
H1415 H 0.75044 0.84995 0.72261 0.0
H1416 H 0.75777 0.84858 0.66047 0.0
H1417 H 0.75001 0.88301 0.58907 0.0
H1418 H 0.75646 0.86562 0.40701 0.0
H1419 H 0.74798 0.87034 0.46749 0.0
H1420 H 0.75162 0.83627 0.54405 0.0
C1421 C 0.75032 0.85601 0.66764 0.0
C1422 C 0.75026 0.87278 0.57938 0.0
C1423 C 0.74619 0.85687 0.70331 0.0
C1424 C 0.75977 0.85942 0.42916 0.0
C1425 C 0.755 0.86218 0.46379 0.0
C1426 C 0.7514 0.84653 0.5535 0.0
C1427 C 0.74458 0.86429 0.64128 0.0
C1428 C 0.74772 0.86204 0.6028 0.0
C1429 C 0.7592 0.8544 0.49323 0.0
C1430 C 0.75445 0.8572 0.53029 0.0
H1431 H 0.72333 0.88207 0.69449 0.0
H1432 H 0.73064 0.88058 0.63207 0.0
H1433 H 0.74585 0.84043 0.60637 0.0
H1434 H 0.78002 0.83294 0.44964 0.0
H1435 H 0.77187 0.83779 0.50934 0.0
C1436 C 0.38977 0.51388 0.68335 0.0
C1437 C 0.39798 0.52525 0.67993 0.0
C1438 C 0.386 0.50923 0.71734 0.0
C1439 C 0.38426 0.51966 0.8131 0.0
H1440 H 0.38645 0.48155 0.83219 0.0
C1441 C 0.39166 0.49746 0.95427 0.0
C1442 C 0.38488 0.48557 0.96308 0.0
C1443 C 0.39077 0.5028 0.91971 0.0
C1444 C 0.38557 0.4922 0.82716 0.0
H1445 H 0.40859 0.54069 0.70948 0.0
H1446 H 0.40228 0.53249 0.76828 0.0
H1447 H 0.38957 0.48976 0.77118 0.0
H1448 H 0.37143 0.47023 0.9429 0.0
H1449 H 0.36995 0.47955 0.88248 0.0
H1450 H 0.38076 0.52211 0.86939 0.0
C1451 C 0.3985 0.52728 0.7449 0.0
C1452 C 0.38734 0.49691 0.79218 0.0
C1453 C 0.40223 0.53192 0.71108 0.0
C1454 C 0.37679 0.47941 0.93698 0.0
C1455 C 0.37599 0.48469 0.90231 0.0
C1456 C 0.38257 0.51496 0.84809 0.0
C1457 C 0.39037 0.51587 0.74852 0.0
C1458 C 0.38699 0.51073 0.78486 0.0
C1459 C 0.38316 0.49631 0.89316 0.0
C1460 C 0.38346 0.5012 0.85559 0.0
H1461 H 0.38629 0.50855 0.65983 0.0
H1462 H 0.37964 0.50047 0.71918 0.0
H1463 H 0.38364 0.53035 0.80828 0.0
H1464 H 0.39797 0.50245 0.97377 0.0
H1465 H 0.3965 0.51171 0.91338 0.0
C1466 C 0.76348 0.15263 0.18272 0.0
C1467 C 0.76877 0.14092 0.19827 0.0
C1468 C 0.7612 0.15332 0.14583 0.0
C1469 C 0.75429 0.13534 0.06449 0.0
H1470 H 0.77528 0.1628 0.01695 0.0
C1471 C 0.75136 0.14252 0.91096 0.0
C1472 C 0.75149 0.15578 0.89824 0.0
C1473 C 0.75469 0.13968 0.94663 0.0
C1474 C 0.76918 0.1552 0.02969 0.0
H1475 H 0.77494 0.12047 0.18759 0.0
H1476 H 0.77043 0.12159 0.12295 0.0
H1477 H 0.77719 0.15982 0.08158 0.0
H1478 H 0.75556 0.17641 0.91277 0.0
H1479 H 0.76086 0.1716 0.97486 0.0
H1480 H 0.7457 0.13111 0.01321 0.0
C1481 C 0.76832 0.13025 0.13949 0.0
C1482 C 0.77037 0.15346 0.06671 0.0
C1483 C 0.77087 0.12963 0.17641 0.0
C1484 C 0.75549 0.16606 0.92157 0.0
C1485 C 0.75859 0.16327 0.95733 0.0
C1486 C 0.75287 0.13726 0.02748 0.0
C1487 C 0.76387 0.14225 0.12383 0.0
C1488 C 0.76285 0.1436 0.08444 0.0
C1489 C 0.75802 0.15006 0.9706 0.0
C1490 C 0.76021 0.14732 0.00957 0.0
H1491 H 0.76177 0.16153 0.1987 0.0
H1492 H 0.75766 0.16264 0.13429 0.0
H1493 H 0.74838 0.12769 0.07772 0.0
H1494 H 0.74837 0.13436 0.89356 0.0
H1495 H 0.75444 0.12935 0.95548 0.0
C1496 C 0.89771 0.49106 0.68081 0.0
C1497 C 0.90857 0.48234 0.67517 0.0
C1498 C 0.89489 0.4959 0.71526 0.0
C1499 C 0.91068 0.50052 0.80434 0.0
H1500 H 0.87414 0.50205 0.83959 0.0
C1501 C 0.89995 0.50778 0.95324 0.0
C1502 C 0.89089 0.51804 0.96205 0.0
C1503 C 0.90089 0.50311 0.9181 0.0
C1504 C 0.88438 0.50175 0.82996 0.0
H1505 H 0.92493 0.47182 0.70127 0.0
H1506 H 0.91993 0.48003 0.76089 0.0
H1507 H 0.87843 0.49517 0.77758 0.0
H1508 H 0.87506 0.5308 0.9413 0.0
H1509 H 0.87669 0.52252 0.87975 0.0
H1510 H 0.91667 0.50688 0.85663 0.0
C1511 C 0.91372 0.48338 0.73881 0.0
C1512 C 0.88684 0.49788 0.79447 0.0
C1513 C 0.91655 0.4786 0.70455 0.0
C1514 C 0.88218 0.52291 0.93538 0.0
C1515 C 0.88309 0.51817 0.90014 0.0
C1516 C 0.90823 0.50428 0.83971 0.0
C1517 C 0.90289 0.4921 0.74464 0.0
C1518 C 0.90004 0.49705 0.78143 0.0
C1519 C 0.89276 0.50853 0.89099 0.0
C1520 C 0.89509 0.50477 0.85305 0.0
H1521 H 0.89136 0.49411 0.65869 0.0
H1522 H 0.88654 0.5027 0.71883 0.0
H1523 H 0.92095 0.50031 0.79495 0.0
H1524 H 0.90674 0.50372 0.97316 0.0
H1525 H 0.90826 0.49547 0.91192 0.0
C1526 C 0.2285 0.16049 0.67587 0.0
C1527 C 0.23399 0.15384 0.70568 0.0
C1528 C 0.2332 0.15792 0.6414 0.0
C1529 C 0.25112 0.13311 0.58637 0.0
H1530 H 0.25495 0.16326 0.52155 0.0
C1531 C 0.27581 0.13009 0.4452 0.0
C1532 C 0.27031 0.13815 0.41793 0.0
C1533 C 0.27083 0.13076 0.48022 0.0
C1534 C 0.25376 0.1547 0.53912 0.0
H1535 H 0.24877 0.13922 0.72259 0.0
H1536 H 0.25715 0.13479 0.66186 0.0
H1537 H 0.24829 0.16715 0.58333 0.0
H1538 H 0.25465 0.15251 0.40559 0.0
H1539 H 0.24588 0.15353 0.46649 0.0
H1540 H 0.25671 0.12069 0.54185 0.0
C1541 C 0.24909 0.14193 0.66541 0.0
C1542 C 0.24998 0.15693 0.57461 0.0
C1543 C 0.24436 0.14453 0.70016 0.0
C1544 C 0.25919 0.14625 0.42597 0.0
C1545 C 0.25423 0.14691 0.46096 0.0
C1546 C 0.25495 0.13087 0.55071 0.0
C1547 C 0.24357 0.14866 0.63566 0.0
C1548 C 0.24845 0.14617 0.59859 0.0
C1549 C 0.26026 0.1395 0.48871 0.0
C1550 C 0.25616 0.14165 0.5266 0.0
H1551 H 0.22045 0.16767 0.67902 0.0
H1552 H 0.22855 0.1631 0.61909 0.0
H1553 H 0.24992 0.12459 0.60409 0.0
H1554 H 0.28436 0.12372 0.43993 0.0
H1555 H 0.27571 0.12494 0.50097 0.0
C1556 C 0.59575 0.53266 0.21932 0.0
C1557 C 0.60045 0.52559 0.18927 0.0
C1558 C 0.5985 0.52814 0.25391 0.0
C1559 C 0.62098 0.50668 0.30712 0.0
H1560 H 0.59143 0.50701 0.37462 0.0
C1561 C 0.62219 0.48002 0.44543 0.0
C1562 C 0.61514 0.48601 0.47387 0.0
C1563 C 0.62181 0.48564 0.41108 0.0
C1564 C 0.59987 0.50706 0.35635 0.0
H1565 H 0.61196 0.50833 0.172 0.0
H1566 H 0.61672 0.50034 0.23282 0.0
H1567 H 0.58789 0.51487 0.3137 0.0
H1568 H 0.60297 0.50308 0.48915 0.0
H1569 H 0.60257 0.51302 0.42953 0.0
H1570 H 0.63295 0.4988 0.34998 0.0
C1571 C 0.61096 0.50945 0.22941 0.0
C1572 C 0.59781 0.51152 0.32135 0.0
C1573 C 0.60817 0.51398 0.19462 0.0
C1574 C 0.6084 0.49815 0.46775 0.0
C1575 C 0.60808 0.50379 0.4335 0.0
C1576 C 0.62306 0.50224 0.3423 0.0
C1577 C 0.60603 0.51643 0.25939 0.0
C1578 C 0.60834 0.51143 0.29636 0.0
C1579 C 0.61442 0.49738 0.40452 0.0
C1580 C 0.61252 0.50242 0.36735 0.0
H1581 H 0.58986 0.54171 0.21622 0.0
H1582 H 0.59475 0.53386 0.27645 0.0
H1583 H 0.62931 0.50661 0.28851 0.0
H1584 H 0.62749 0.47066 0.44925 0.0
H1585 H 0.62675 0.48041 0.38936 0.0
C1586 C 0.22769 0.84531 0.9565 0.0
C1587 C 0.23352 0.85173 0.9268 0.0
C1588 C 0.23234 0.84776 0.9911 0.0
C1589 C 0.25109 0.87188 0.04653 0.0
H1590 H 0.25389 0.84153 0.11107 0.0
C1591 C 0.27638 0.87379 0.18701 0.0
C1592 C 0.27075 0.86589 0.21437 0.0
C1593 C 0.27121 0.87336 0.15216 0.0
C1594 C 0.25298 0.85015 0.09359 0.0
H1595 H 0.24881 0.86586 0.91026 0.0
H1596 H 0.25711 0.87007 0.97118 0.0
H1597 H 0.24695 0.83798 0.04936 0.0
H1598 H 0.25465 0.85208 0.22711 0.0
H1599 H 0.24553 0.85148 0.16651 0.0
H1600 H 0.25726 0.88402 0.09104 0.0
C1601 C 0.24882 0.8632 0.96746 0.0
C1602 C 0.24904 0.84811 0.05813 0.0
C1603 C 0.24414 0.86073 0.93259 0.0
C1604 C 0.25931 0.85821 0.20664 0.0
C1605 C 0.25414 0.85778 0.17182 0.0
C1606 C 0.25507 0.87393 0.08215 0.0
C1607 C 0.24299 0.85667 0.99708 0.0
C1608 C 0.24791 0.85895 0.03423 0.0
C1609 C 0.26029 0.86502 0.14394 0.0
C1610 C 0.25594 0.86308 0.10616 0.0
H1611 H 0.21943 0.83838 0.95315 0.0
H1612 H 0.22745 0.84275 0.0133 0.0
H1613 H 0.2502 0.88045 0.02887 0.0
H1614 H 0.28519 0.87985 0.19205 0.0
H1615 H 0.2762 0.87904 0.13131 0.0
C1616 C 0.58557 0.98987 0.69228 0.0
C1617 C 0.59574 0.98901 0.66636 0.0
C1618 C 0.58838 0.99448 0.72674 0.0
C1619 C 0.61615 0.99886 0.79115 0.0
H1620 H 0.58921 0.01908 0.84294 0.0
C1621 C 0.62251 0.02113 0.93535 0.0
C1622 C 0.61159 0.01894 0.9585 0.0
C1623 C 0.62172 0.01744 0.89918 0.0
C1624 C 0.5968 0.01338 0.82883 0.0
H1625 H 0.61682 0.99264 0.65608 0.0
H1626 H 0.62169 1.00101 0.71636 0.0
H1627 H 0.58574 0.01393 0.77984 0.0
H1628 H 0.59155 0.01057 0.96216 0.0
H1629 H 0.59019 0.00428 0.89922 0.0
H1630 H 0.62724 0.99852 0.84054 0.0
C1631 C 0.61157 0.99788 0.71008 0.0
C1632 C 0.59481 0.0104 0.7927 0.0
C1633 C 0.60877 0.99318 0.67548 0.0
C1634 C 0.60013 0.01247 0.9451 0.0
C1635 C 0.5993 0.00893 0.90899 0.0
C1636 C 0.61821 1.00199 0.82735 0.0
C1637 C 0.60142 0.99848 0.73621 0.0
C1638 C 0.60431 0.00283 0.77358 0.0
C1639 C 0.60995 0.01165 0.88552 0.0
C1640 C 0.6084 0.00903 0.84667 0.0
H1641 H 0.57544 0.98668 0.68629 0.0
H1642 H 0.58035 0.99455 0.74626 0.0
H1643 H 0.62362 0.99292 0.77735 0.0
H1644 H 0.63149 0.02607 0.94487 0.0
H1645 H 0.63008 0.01963 0.8816 0.0
C1646 C 0.24159 0.35434 0.19375 0.0
C1647 C 0.24126 0.36547 0.21687 0.0
C1648 C 0.24436 0.35596 0.15733 0.0
C1649 C 0.26034 0.37713 0.0906 0.0
H1650 H 0.23482 0.36103 0.02504 0.0
C1651 C 0.26738 0.38103 0.93708 0.0
C1652 C 0.26465 0.36938 0.91722 0.0
C1653 C 0.26341 0.38204 0.97299 0.0
C1654 C 0.24214 0.36547 0.04286 0.0
H1655 H 0.24424 0.38696 0.22001 0.0
H1656 H 0.24946 0.38971 0.15614 0.0
H1657 H 0.23106 0.35958 0.08947 0.0
H1658 H 0.25517 0.34983 0.91922 0.0
H1659 H 0.24861 0.35141 0.98167 0.0
H1660 H 0.27176 0.38252 0.04427 0.0
C1661 C 0.24738 0.37977 0.16643 0.0
C1662 C 0.23994 0.36468 0.07979 0.0
C1663 C 0.2444 0.37819 0.20293 0.0
C1664 C 0.25738 0.35899 0.93363 0.0
C1665 C 0.25355 0.35994 0.96957 0.0
C1666 C 0.26267 0.37775 0.05359 0.0
C1667 C 0.24706 0.3687 0.14318 0.0
C1668 C 0.2491 0.37035 0.10403 0.0
C1669 C 0.25672 0.37137 0.99 0.0
C1670 C 0.25368 0.37176 0.02921 0.0
H1671 H 0.23924 0.34438 0.20348 0.0
H1672 H 0.24423 0.34723 0.14006 0.0
H1673 H 0.26758 0.38154 0.10875 0.0
H1674 H 0.2729 0.38925 0.92519 0.0
H1675 H 0.26577 0.39112 0.98755 0.0
C1676 C 0.89398 0.98656 0.45982 0.0
C1677 C 0.90187 0.99366 0.48464 0.0
C1678 C 0.89284 0.99097 0.42436 0.0
C1679 C 0.91173 0.01074 0.35855 0.0
H1680 H 0.87944 0.00827 0.30098 0.0
C1681 C 0.90956 0.03273 0.21719 0.0
C1682 C 0.90353 0.02507 0.19001 0.0
C1683 C 0.90834 0.02903 0.25305 0.0
C1684 C 0.88856 0.00888 0.31667 0.0
H1685 H 0.91406 0.01143 0.49221 0.0
H1686 H 0.9119 0.01923 0.43055 0.0
H1687 H 0.87873 1.00218 0.36458 0.0
H1688 H 0.8912 0.00765 0.17927 0.0
H1689 H 0.88916 1.00105 0.24242 0.0
H1690 H 0.92161 0.01732 0.31092 0.0
C1691 C 0.90684 0.01007 0.4383 0.0
C1692 C 0.88815 0.00543 0.35307 0.0
C1693 C 0.908 0.00565 0.47372 0.0
C1694 C 0.89598 0.01373 0.19962 0.0
C1695 C 0.89476 0.01 0.23574 0.0
C1696 C 0.91214 0.01417 0.32234 0.0
C1697 C 0.89955 0.00259 0.41298 0.0
C1698 C 0.89973 0.00642 0.37446 0.0
C1699 C 0.90109 0.01754 0.26277 0.0
C1700 C 0.90055 0.01338 0.301 0.0
H1701 H 0.8891 0.97728 0.46736 0.0
H1702 H 0.8872 0.98494 0.40551 0.0
H1703 H 0.92091 0.01128 0.37398 0.0
H1704 H 0.91533 0.04161 0.21085 0.0
H1705 H 0.9131 0.03522 0.27324 0.0
C1706 C 0.25721 0.64797 0.7013 0.0
C1707 C 0.26808 0.63963 0.70999 0.0
C1708 C 0.25242 0.64862 0.66613 0.0
C1709 C 0.25297 0.63224 0.57699 0.0
H1710 H 0.24783 0.66861 0.54305 0.0
C1711 C 0.24304 0.64558 0.42696 0.0
C1712 C 0.23309 0.65531 0.421 0.0
C1713 C 0.24765 0.64298 0.46184 0.0
C1714 C 0.24909 0.65838 0.55213 0.0
H1715 H 0.28183 0.62472 0.68898 0.0
H1716 H 0.27346 0.62589 0.62758 0.0
H1717 H 0.25417 0.66473 0.6051 0.0
H1718 H 0.22019 0.66988 0.44702 0.0
H1719 H 0.22807 0.66529 0.50715 0.0
H1720 H 0.24781 0.62594 0.52373 0.0
C1721 C 0.26866 0.63193 0.64798 0.0
C1722 C 0.25269 0.65615 0.58777 0.0
C1723 C 0.27346 0.63129 0.6832 0.0
C1724 C 0.22792 0.66237 0.4505 0.0
C1725 C 0.2325 0.65979 0.4851 0.0
C1726 C 0.24931 0.63448 0.54119 0.0
C1727 C 0.25838 0.64094 0.63885 0.0
C1728 C 0.25453 0.64307 0.60076 0.0
C1729 C 0.24243 0.6501 0.49127 0.0
C1730 C 0.24718 0.64758 0.52849 0.0
H1731 H 0.25274 0.65445 0.7213 0.0
H1732 H 0.24429 0.65545 0.66007 0.0
H1733 H 0.25431 0.62204 0.58623 0.0
H1734 H 0.2472 0.63994 0.40479 0.0
H1735 H 0.25539 0.6355 0.46571 0.0
C1736 C 0.40956 0.00609 0.18328 0.0
C1737 C 0.40172 0.99646 0.16554 0.0
C1738 C 0.4069 0.00945 0.21892 0.0
C1739 C 0.38167 0.00705 0.29162 0.0
H1740 H 0.41307 0.00889 0.35272 0.0
C1741 C 0.38078 0.02563 0.43899 0.0
C1742 C 0.38964 0.01954 0.46338 0.0
C1743 C 0.38091 0.02202 0.40277 0.0
C1744 C 0.40418 0.00826 0.33614 0.0
H1745 H 0.3845 0.98332 0.17077 0.0
H1746 H 0.37995 0.98912 0.23305 0.0
H1747 H 0.41578 0.00505 0.2888 0.0
H1748 H 0.40493 0.00423 0.46935 0.0
H1749 H 0.40498 0.99779 0.40637 0.0
H1750 H 0.37008 0.01005 0.33934 0.0
C1751 C 0.3881 0.99413 0.21935 0.0
C1752 C 0.40575 0.00627 0.29937 0.0
C1753 C 0.39075 0.99077 0.18366 0.0
C1754 C 0.39805 0.00921 0.45122 0.0
C1755 C 0.39815 0.00558 0.41506 0.0
C1756 C 0.3801 0.00906 0.32853 0.0
C1757 C 0.39636 0.00326 0.23765 0.0
C1758 C 0.39453 0.00568 0.27664 0.0
C1759 C 0.38989 0.01223 0.39023 0.0
C1760 C 0.39135 0.00966 0.35119 0.0
H1761 H 0.41803 0.01074 0.17002 0.0
H1762 H 0.41328 0.01673 0.23206 0.0
H1763 H 0.37283 0.00669 0.27479 0.0
H1764 H 0.37417 0.03363 0.44748 0.0
H1765 H 0.37446 0.02738 0.38433 0.0
C1766 C 0.74495 0.64326 0.20228 0.0
C1767 C 0.73617 0.63394 0.218 0.0
C1768 C 0.74846 0.6422 0.16609 0.0
C1769 C 0.73576 0.62792 0.08107 0.0
H1770 H 0.77017 0.63979 0.04491 0.0
C1771 C 0.75067 0.62746 0.92951 0.0
C1772 C 0.75716 0.6391 0.91724 0.0
C1773 C 0.74811 0.62564 0.96619 0.0
C1774 C 0.76049 0.6365 0.05461 0.0
H1775 H 0.72488 0.61572 0.2085 0.0
H1776 H 0.73127 0.61369 0.14564 0.0
H1777 H 0.76663 0.63809 0.1094 0.0
H1778 H 0.7656 0.65817 0.93395 0.0
H1779 H 0.76117 0.65498 0.99738 0.0
H1780 H 0.72967 0.62638 0.02603 0.0
C1781 C 0.73516 0.62202 0.16103 0.0
C1782 C 0.75844 0.63553 0.09159 0.0
C1783 C 0.7316 0.62312 0.1972 0.0
C1784 C 0.76066 0.64903 0.94233 0.0
C1785 C 0.75821 0.64717 0.97882 0.0
C1786 C 0.73784 0.62879 0.04401 0.0
C1787 C 0.74336 0.63174 0.14475 0.0
C1788 C 0.74597 0.63148 0.10537 0.0
C1789 C 0.75211 0.63538 0.99127 0.0
C1790 C 0.75015 0.63335 0.03041 0.0
H1791 H 0.74863 0.65175 0.21744 0.0
H1792 H 0.75469 0.64995 0.15451 0.0
H1793 H 0.72596 0.62493 0.09063 0.0
H1794 H 0.74785 0.61961 0.91093 0.0
H1795 H 0.74338 0.61646 0.97504 0.0
C1796 C 0.10586 0.9938 0.9474 0.0
C1797 C 0.1156 0.98527 0.96226 0.0
C1798 C 0.10671 0.99781 0.91163 0.0
C1799 C 0.12942 1.00169 0.83504 0.0
H1800 H 0.09661 0.99897 0.77965 0.0
C1801 C 0.12079 0.02846 0.69991 0.0
C1802 C 0.11329 0.02187 0.67331 0.0
C1803 C 0.12266 0.02261 0.73352 0.0
C1804 C 0.1059 0.99962 0.79459 0.0
H1805 H 0.13423 0.97478 0.95162 0.0
H1806 H 0.13578 0.98197 0.88906 0.0
H1807 H 0.09675 0.99204 0.84233 0.0
H1808 H 0.10243 0.00367 0.66053 0.0
H1809 H 0.1057 0.99343 0.71949 0.0
H1810 H 0.13851 0.00945 0.78726 0.0
C1811 C 0.12746 0.98547 0.90518 0.0
C1812 C 0.10593 0.99582 0.8306 0.0
C1813 C 0.12655 0.98135 0.94098 0.0
C1814 C 0.10822 0.00902 0.6805 0.0
C1815 C 0.11002 0.00319 0.71429 0.0
C1816 C 0.12936 0.00561 0.79901 0.0
C1817 C 0.11737 0.99348 0.88996 0.0
C1818 C 0.11763 0.99698 0.85133 0.0
C1819 C 0.11703 0.01006 0.74138 0.0
C1820 C 0.11755 0.00474 0.77852 0.0
H1821 H 0.09731 0.99705 0.96303 0.0
H1822 H 0.09892 0.0042 0.90077 0.0
H1823 H 0.13858 0.0027 0.85041 0.0
H1824 H 0.12489 0.03835 0.69518 0.0
H1825 H 0.12801 0.0282 0.75389 0.0
C1826 C 0.76062 0.36479 0.71113 0.0
C1827 C 0.7564 0.3527 0.72696 0.0
C1828 C 0.75796 0.36744 0.67497 0.0
C1829 C 0.73771 0.35589 0.59675 0.0
H1830 H 0.76709 0.37059 0.54107 0.0
C1831 C 0.74013 0.34999 0.44435 0.0
C1832 C 0.7429 0.36147 0.42373 0.0
C1833 C 0.74182 0.35011 0.48146 0.0
C1834 C 0.75875 0.36662 0.55633 0.0
H1835 H 0.74558 0.3342 0.71747 0.0
H1836 H 0.74112 0.33871 0.65456 0.0
H1837 H 0.76909 0.36897 0.60623 0.0
H1838 H 0.75025 0.3819 0.426 0.0
H1839 H 0.75341 0.38201 0.49125 0.0
H1840 H 0.72757 0.35316 0.54671 0.0
C1841 C 0.74633 0.34625 0.67007 0.0
C1842 C 0.75985 0.36573 0.59371 0.0
C1843 C 0.74893 0.34363 0.70624 0.0
C1844 C 0.74802 0.37289 0.44106 0.0
C1845 C 0.74982 0.37296 0.47839 0.0
C1846 C 0.73667 0.35668 0.55946 0.0
C1847 C 0.75106 0.35806 0.65373 0.0
C1848 C 0.74942 0.36015 0.61436 0.0
C1849 C 0.74641 0.36166 0.49902 0.0
C1850 C 0.74726 0.36184 0.53879 0.0
H1851 H 0.76635 0.37204 0.72635 0.0
H1852 H 0.76152 0.37675 0.66351 0.0
H1853 H 0.72937 0.35182 0.61176 0.0
H1854 H 0.73628 0.34095 0.43199 0.0
H1855 H 0.73938 0.34115 0.49654 0.0
C1856 C 0.10772 0.41942 0.12431 0.0
C1857 C 0.11272 0.43151 0.11017 0.0
C1858 C 0.11611 0.4108 0.14384 0.0
C1859 C 0.14324 0.41221 0.20562 0.0
H1860 H 0.15373 0.37605 0.18018 0.0
C1861 C 0.1875 0.38656 0.27547 0.0
C1862 C 0.1877 0.37258 0.27979 0.0
C1863 C 0.1773 0.39279 0.256 0.0
C1864 C 0.15071 0.38602 0.18817 0.0
H1865 H 0.13061 0.44372 0.10445 0.0
H1866 H 0.14502 0.42888 0.13919 0.0
H1867 H 0.13778 0.38825 0.14232 0.0
H1868 H 0.17709 0.35419 0.26766 0.0
H1869 H 0.15892 0.36513 0.23468 0.0
H1870 H 0.15573 0.41011 0.25171 0.0
C1871 C 0.13466 0.42605 0.13484 0.0
C1872 C 0.14163 0.39301 0.1663 0.0
C1873 C 0.12639 0.43451 0.11482 0.0
C1874 C 0.17723 0.36499 0.2648 0.0
C1875 C 0.16688 0.37126 0.24562 0.0
C1876 C 0.15206 0.40518 0.22779 0.0
C1877 C 0.12955 0.41426 0.15007 0.0
C1878 C 0.13808 0.40626 0.17448 0.0
C1879 C 0.16683 0.38527 0.24069 0.0
C1880 C 0.15624 0.39211 0.21894 0.0
H1881 H 0.09725 0.41681 0.12121 0.0
H1882 H 0.11197 0.40175 0.15543 0.0
H1883 H 0.14049 0.42237 0.21268 0.0
H1884 H 0.19546 0.39274 0.28626 0.0
H1885 H 0.17789 0.40353 0.2522 0.0
C1886 C 0.89985 0.9215 0.48782 0.0
C1887 C 0.89551 0.92811 0.51901 0.0
C1888 C 0.8917 0.91197 0.47103 0.0
C1889 C 0.86023 0.89188 0.48303 0.0
H1890 H 0.85873 0.89398 0.37922 0.0
C1891 C 0.81381 0.87771 0.40058 0.0
C1892 C 0.81546 0.86963 0.37005 0.0
C1893 C 0.82489 0.8826 0.41923 0.0
C1894 C 0.85919 0.89312 0.40816 0.0
H1895 H 0.87939 0.92948 0.55779 0.0
H1896 H 0.86506 0.91324 0.52819 0.0
H1897 H 0.8758 0.90657 0.4117 0.0
H1898 H 0.83008 0.86029 0.33512 0.0
H1899 H 0.84964 0.8693 0.36735 0.0
H1900 H 0.84307 0.87904 0.47931 0.0
C1901 C 0.87487 0.91513 0.51691 0.0
C1902 C 0.86901 0.9003 0.42688 0.0
C1903 C 0.88309 0.92454 0.5339 0.0
C1904 C 0.82851 0.8665 0.35857 0.0
C1905 C 0.83967 0.87165 0.37691 0.0
C1906 C 0.85031 0.88487 0.46433 0.0
C1907 C 0.87893 0.9089 0.48479 0.0
C1908 C 0.86949 0.90002 0.46467 0.0
C1909 C 0.83793 0.87972 0.40751 0.0
C1910 C 0.84953 0.88564 0.42677 0.0
H1911 H 0.90943 0.92395 0.47579 0.0
H1912 H 0.89533 0.90719 0.44685 0.0
H1913 H 0.86046 0.89111 0.51198 0.0
H1914 H 0.80389 0.88024 0.41031 0.0
H1915 H 0.82325 0.8889 0.44247 0.0
C1916 C 0.36859 0.57174 0.59068 0.0
C1917 C 0.38239 0.56914 0.59333 0.0
C1918 C 0.3627 0.58201 0.61069 0.0
C1919 C 0.35316 0.60768 0.64626 0.0
H1920 H 0.36298 0.60831 0.74688 0.0
C1921 C 0.32581 0.64207 0.74681 0.0
C1922 C 0.32152 0.63571 0.77847 0.0
C1923 C 0.33514 0.6359 0.72418 0.0
C1924 C 0.36014 0.60829 0.71885 0.0
H1925 H 0.40096 0.57569 0.61797 0.0
H1926 H 0.39065 0.59368 0.65295 0.0
H1927 H 0.37549 0.59417 0.70531 0.0
H1928 H 0.32426 0.61816 0.81203 0.0
H1929 H 0.34049 0.60742 0.77267 0.0
H1930 H 0.33747 0.62135 0.66001 0.0
C1931 C 0.38437 0.58768 0.63552 0.0
C1932 C 0.36741 0.60029 0.69492 0.0
C1933 C 0.39029 0.57745 0.61524 0.0
C1934 C 0.32732 0.62335 0.78786 0.0
C1935 C 0.33669 0.61721 0.76533 0.0
C1936 C 0.34594 0.61571 0.67014 0.0
C1937 C 0.37046 0.5899 0.63404 0.0
C1938 C 0.36382 0.59967 0.65847 0.0
C1939 C 0.34047 0.62325 0.73278 0.0
C1940 C 0.34916 0.61591 0.70687 0.0
H1941 H 0.36221 0.56553 0.57405 0.0
H1942 H 0.35195 0.58334 0.60911 0.0
H1943 H 0.35022 0.60753 0.6183 0.0
H1944 H 0.32157 0.6516 0.73875 0.0
H1945 H 0.33798 0.64091 0.69956 0.0
C1946 C 0.69661 0.12385 0.89391 0.0
C1947 C 0.69405 0.13236 0.86471 0.0
C1948 C 0.68616 0.11741 0.91178 0.0
C1949 C 0.6491 0.11692 0.92442 0.0
H1950 H 0.65672 0.08095 0.95813 0.0
C1951 C 0.60931 0.07858 0.977 0.0
C1952 C 0.61288 0.07123 0.00777 0.0
C1953 C 0.61848 0.08735 0.96088 0.0
C1954 C 0.65447 0.09103 0.94921 0.0
H1955 H 0.67842 0.14105 0.8318 0.0
H1956 H 0.66003 0.12938 0.86234 0.0
H1957 H 0.67385 0.09335 0.92604 0.0
H1958 H 0.62872 0.06778 0.04657 0.0
H1959 H 0.64471 0.08293 0.01822 0.0
H1960 H 0.62944 0.11421 0.94688 0.0
C1961 C 0.67017 0.12789 0.87186 0.0
C1962 C 0.66432 0.0982 0.93086 0.0
C1963 C 0.68069 0.13453 0.85421 0.0
C1964 C 0.62562 0.07327 0.02291 0.0
C1965 C 0.63482 0.08189 0.00655 0.0
C1966 C 0.63914 0.10963 0.94245 0.0
C1967 C 0.6728 0.11908 0.90061 0.0
C1968 C 0.66188 0.11134 0.91865 0.0
C1969 C 0.63146 0.0888 0.97493 0.0
C1970 C 0.6418 0.09667 0.95544 0.0
H1971 H 0.70676 0.12214 0.90317 0.0
H1972 H 0.68862 0.1111 0.93445 0.0
H1973 H 0.64686 0.12702 0.91569 0.0
H1974 H 0.59956 0.07727 0.96469 0.0
H1975 H 0.61562 0.09251 0.93649 0.0
C1976 C 0.18997 0.62545 0.39332 0.0
C1977 C 0.18808 0.63406 0.36391 0.0
C1978 C 0.17904 0.62031 0.4121 0.0
C1979 C 0.14459 0.61011 0.40274 0.0
H1980 H 0.1444 0.61101 0.50672 0.0
C1981 C 0.1045 0.58124 0.48378 0.0
C1982 C 0.10909 0.5744 0.51438 0.0
C1983 C 0.1126 0.59077 0.46673 0.0
C1984 C 0.14432 0.61054 0.47771 0.0
H1985 H 0.17319 0.64404 0.33108 0.0
H1986 H 0.15387 0.63458 0.36351 0.0
H1987 H 0.1615 0.62335 0.47373 0.0
H1988 H 0.12567 0.57252 0.55164 0.0
H1989 H 0.13988 0.58874 0.5216 0.0
H1990 H 0.12794 0.5967 0.40648 0.0
C1991 C 0.16392 0.63201 0.3721 0.0
C1992 C 0.15407 0.61771 0.45885 0.0
C1993 C 0.17494 0.63743 0.35365 0.0
C1994 C 0.12176 0.57766 0.52828 0.0
C1995 C 0.12992 0.58706 0.51104 0.0
C1996 C 0.13493 0.60276 0.42162 0.0
C1997 C 0.1659 0.62345 0.40164 0.0
C1998 C 0.15447 0.61736 0.42121 0.0
C1999 C 0.12556 0.5936 0.47962 0.0
C2000 C 0.13484 0.60264 0.45944 0.0
H2001 H 0.19995 0.62273 0.40211 0.0
H2002 H 0.18086 0.61363 0.4345 0.0
H2003 H 0.14475 0.60958 0.37372 0.0
H2004 H 0.09475 0.57902 0.47247 0.0
H2005 H 0.10876 0.59577 0.44308 0.0
C2006 C 0.61889 0.92566 0.59852 0.0
C2007 C 0.60953 0.93266 0.61958 0.0
C2008 C 0.62682 0.91553 0.61367 0.0
C2009 C 0.64094 0.90549 0.70042 0.0
H2010 H 0.64899 0.87187 0.65317 0.0
C2011 C 0.67493 0.86619 0.7682 0.0
C2012 C 0.6842 0.85953 0.74618 0.0
C2013 C 0.66462 0.87387 0.75312 0.0
C2014 C 0.64696 0.88126 0.66661 0.0
H2015 H 0.60082 0.93409 0.67279 0.0
H2016 H 0.61464 0.91653 0.69902 0.0
H2017 H 0.63336 0.88759 0.62534 0.0
H2018 H 0.68971 0.8555 0.69095 0.0
H2019 H 0.67205 0.8691 0.66478 0.0
H2020 H 0.65479 0.89951 0.74106 0.0
C2021 C 0.61594 0.91895 0.67091 0.0
C2022 C 0.63797 0.89025 0.65065 0.0
C2023 C 0.60796 0.92897 0.65576 0.0
C2024 C 0.6827 0.86042 0.70876 0.0
C2025 C 0.67249 0.8682 0.69369 0.0
C2026 C 0.65001 0.89659 0.71619 0.0
C2027 C 0.62563 0.91228 0.65025 0.0
C2028 C 0.63488 0.90248 0.66736 0.0
C2029 C 0.66341 0.87521 0.71563 0.0
C2030 C 0.65321 0.88436 0.69949 0.0
H2031 H 0.62036 0.92824 0.57058 0.0
H2032 H 0.63424 0.91061 0.59709 0.0
H2033 H 0.63894 0.91493 0.71371 0.0
H2034 H 0.67575 0.86565 0.79713 0.0
H2035 H 0.65767 0.87888 0.77093 0.0
C2036 C 0.32429 0.36485 0.87356 0.0
C2037 C 0.31795 0.37178 0.84541 0.0
C2038 C 0.33477 0.37081 0.89282 0.0
C2039 C 0.35919 0.39905 0.89006 0.0
H2040 H 0.35854 0.39566 0.99362 0.0
C2041 C 0.38021 0.42963 0.02053 0.0
C2042 C 0.39301 0.43311 0.00784 0.0
C2043 C 0.37233 0.4203 1.00204 0.0
C2044 C 0.35886 0.39675 0.96474 0.0
H2045 H 0.31799 0.39027 0.8148 0.0
H2046 H 0.33607 0.40066 0.84841 0.0
H2047 H 0.34246 0.38317 0.95746 0.0
H2048 H 0.40788 0.42887 0.96701 0.0
H2049 H 0.39431 0.4124 0.93534 0.0
H2050 H 0.37514 0.41308 0.89728 0.0
C2051 C 0.33309 0.39056 0.85546 0.0
C2052 C 0.34973 0.38944 0.94394 0.0
C2053 C 0.32264 0.38462 0.83624 0.0
C2054 C 0.39802 0.42651 0.97738 0.0
C2055 C 0.39019 0.41713 0.95903 0.0
C2056 C 0.36828 0.40637 0.91082 0.0
C2057 C 0.33918 0.38383 0.88435 0.0
C2058 C 0.34965 0.39066 0.90633 0.0
C2059 C 0.37709 0.41417 0.97053 0.0
C2060 C 0.36812 0.40547 0.94849 0.0
H2061 H 0.32095 0.35495 0.88133 0.0
H2062 H 0.33935 0.36526 0.91457 0.0
H2063 H 0.35955 0.40011 0.86117 0.0
H2064 H 0.376 0.43455 0.04383 0.0
H2065 H 0.36226 0.41839 0.01158 0.0
C2066 C 0.8258 0.14192 0.24017 0.0
C2067 C 0.82107 0.13561 0.27145 0.0
C2068 C 0.83594 0.13602 0.21958 0.0
C2069 C 0.86284 0.11041 0.22176 0.0
H2070 H 0.85642 0.10795 0.11937 0.0
C2071 C 0.88 0.07442 0.09859 0.0
C2072 C 0.89386 0.07358 0.1051 0.0
C2073 C 0.87216 0.08398 0.11625 0.0
C2074 C 0.85838 0.10858 0.14789 0.0
H2075 H 0.8237 0.11841 0.30632 0.0
H2076 H 0.84139 0.10819 0.27058 0.0
H2077 H 0.84105 0.12079 0.157 0.0
H2078 H 0.91044 0.08265 0.13389 0.0
H2079 H 0.89674 0.09934 0.16458 0.0
H2080 H 0.87991 0.09786 0.21288 0.0
C2081 C 0.83729 0.11771 0.26197 0.0
C2082 C 0.84964 0.11604 0.16942 0.0
C2083 C 0.82709 0.12355 0.2824 0.0
C2084 C 0.89979 0.08298 0.12827 0.0
C2085 C 0.89193 0.09249 0.14611 0.0
C2086 C 0.87162 0.10303 0.20022 0.0
C2087 C 0.84166 0.12374 0.22996 0.0
C2088 C 0.85164 0.11686 0.2067 0.0
C2089 C 0.87798 0.09289 0.14097 0.0
C2090 C 0.86937 0.10184 0.16311 0.0
H2091 H 0.82138 0.15121 0.23091 0.0
H2092 H 0.83919 0.141 0.19527 0.0
H2093 H 0.86473 0.11094 0.25033 0.0
H2094 H 0.8751 0.06735 0.08089 0.0
H2095 H 0.86143 0.08395 0.11182 0.0
C2096 C 0.88149 0.57405 0.02512 0.0
C2097 C 0.89419 0.57148 0.01042 0.0
C2098 C 0.87293 0.58347 0.00937 0.0
C2099 C 0.86691 0.60067 0.92239 0.0
H2100 H 0.8401 0.61946 0.97831 0.0
C2101 C 0.82547 0.63549 0.86114 0.0
C2102 C 0.8125 0.63155 0.87147 0.0
C2103 C 0.83676 0.63002 0.87825 0.0
C2104 C 0.84759 0.61433 0.96237 0.0
H2105 H 0.90813 0.57731 0.96867 0.0
H2106 H 0.89341 0.59407 0.9419 0.0
H2107 H 0.85775 0.60702 0.00888 0.0
H2108 H 0.80123 0.61906 0.90837 0.0
H2109 H 0.82079 0.60986 0.93846 0.0
H2110 H 0.8566 0.6081 0.87588 0.0
C2111 C 0.88987 0.58854 0.965 0.0
C2112 C 0.85766 0.6071 0.97985 0.0
C2113 C 0.89837 0.57899 0.98056 0.0
C2114 C 0.81107 0.62226 0.89957 0.0
C2115 C 0.82227 0.61705 0.91704 0.0
C2116 C 0.85692 0.60809 0.90492 0.0
C2117 C 0.8769 0.5907 0.97871 0.0
C2118 C 0.86724 0.59983 0.96014 0.0
C2119 C 0.83523 0.6208 0.90653 0.0
C2120 C 0.84696 0.61468 0.92476 0.0
H2121 H 0.87789 0.56838 0.04795 0.0
H2122 H 0.86298 0.58463 0.02048 0.0
H2123 H 0.87397 0.59511 0.90617 0.0
H2124 H 0.82687 0.64262 0.83956 0.0
H2125 H 0.84667 0.63306 0.86965 0.0
C2126 C 0.1363 0.07093 0.58128 0.0
C2127 C 0.12241 0.06934 0.58578 0.0
C2128 C 0.14329 0.08074 0.60031 0.0
C2129 C 0.14104 0.1009 0.68339 0.0
H2130 H 0.17371 0.11642 0.64547 0.0
C2131 C 0.17812 0.13571 0.76357 0.0
C2132 C 0.19131 0.13072 0.76313 0.0
C2133 C 0.16827 0.13008 0.74123 0.0
C2134 C 0.16456 0.11222 0.65634 0.0
H2135 H 0.10487 0.07733 0.61259 0.0
H2136 H 0.11705 0.09473 0.64527 0.0
H2137 H 0.15887 0.10394 0.60576 0.0
H2138 H 0.20446 0.11595 0.73883 0.0
H2139 H 0.18746 0.10645 0.69978 0.0
H2140 H 0.14693 0.10924 0.73414 0.0
C2141 C 0.12259 0.08816 0.62753 0.0
C2142 C 0.15608 0.10499 0.63368 0.0
C2143 C 0.11557 0.07827 0.60852 0.0
C2144 C 0.19441 0.12003 0.74004 0.0
C2145 C 0.1847 0.11462 0.71741 0.0
C2146 C 0.14947 0.10832 0.706 0.0
C2147 C 0.1366 0.08935 0.62424 0.0
C2148 C 0.14443 0.09882 0.64711 0.0
C2149 C 0.17156 0.1196 0.71758 0.0
C2150 C 0.16151 0.11368 0.69289 0.0
H2151 H 0.14192 0.06423 0.56409 0.0
H2152 H 0.15408 0.08114 0.59737 0.0
H2153 H 0.13223 0.09623 0.69484 0.0
H2154 H 0.17544 0.14394 0.78104 0.0
H2155 H 0.15818 0.13407 0.74187 0.0
C2156 C 0.69069 0.38174 0.40222 0.0
C2157 C 0.68893 0.3724 0.37441 0.0
C2158 C 0.67971 0.3868 0.4209 0.0
C2159 C 0.64483 0.39532 0.4128 0.0
H2160 H 0.64569 0.39628 0.51677 0.0
C2161 C 0.60471 0.42438 0.49317 0.0
C2162 C 0.60949 0.43201 0.52217 0.0
C2163 C 0.61289 0.41475 0.4768 0.0
C2164 C 0.64531 0.39621 0.48775 0.0
H2165 H 0.67422 0.36109 0.34423 0.0
H2166 H 0.65479 0.37041 0.37644 0.0
H2167 H 0.6629 0.38397 0.48413 0.0
H2168 H 0.62649 0.43518 0.55742 0.0
H2169 H 0.6408 0.41878 0.52854 0.0
H2170 H 0.62775 0.40821 0.41608 0.0
C2171 C 0.66479 0.3736 0.38388 0.0
C2172 C 0.65513 0.38906 0.46911 0.0
C2173 C 0.67587 0.36827 0.36555 0.0
C2174 C 0.62244 0.42944 0.53528 0.0
C2175 C 0.63065 0.41993 0.51873 0.0
C2176 C 0.6351 0.40266 0.43143 0.0
C2177 C 0.66665 0.38284 0.4119 0.0
C2178 C 0.65515 0.38878 0.43146 0.0
C2179 C 0.62609 0.41261 0.48884 0.0
C2180 C 0.6354 0.40346 0.46918 0.0
H2181 H 0.70062 0.38507 0.4099 0.0
H2182 H 0.68142 0.39403 0.44209 0.0
H2183 H 0.6447 0.39535 0.38375 0.0
H2184 H 0.59476 0.42605 0.48252 0.0
H2185 H 0.60892 0.40915 0.45433 0.0
C2186 C 0.38467 0.92946 0.11353 0.0
C2187 C 0.39721 0.93361 0.12664 0.0
C2188 C 0.3771 0.91991 0.13215 0.0
C2189 C 0.37323 0.90641 0.22404 0.0
H2190 H 0.34833 0.88211 0.17789 0.0
C2191 C 0.32819 0.88362 0.29883 0.0
C2192 C 0.32383 0.87065 0.28997 0.0
C2193 C 0.33852 0.88976 0.27956 0.0
C2194 C 0.35535 0.88869 0.1913 0.0
H2195 H 0.41202 0.93029 0.16828 0.0
H2196 H 0.39902 0.9134 0.20012 0.0
H2197 H 0.36407 0.89492 0.14153 0.0
H2198 H 0.3273 0.85376 0.25459 0.0
H2199 H 0.34551 0.86439 0.22131 0.0
H2200 H 0.36462 0.90012 0.27379 0.0
C2201 C 0.39482 0.9178 0.17606 0.0
C2202 C 0.36428 0.89618 0.17036 0.0
C2203 C 0.40234 0.92742 0.15761 0.0
C2204 C 0.33039 0.86377 0.26212 0.0
C2205 C 0.34076 0.86992 0.24282 0.0
C2206 C 0.36436 0.89889 0.24494 0.0
C2207 C 0.38193 0.9142 0.1642 0.0
C2208 C 0.3732 0.9053 0.18641 0.0
C2209 C 0.34482 0.88308 0.25094 0.0
C2210 C 0.35513 0.89011 0.22885 0.0
H2211 H 0.3804 0.93405 0.08981 0.0
H2212 H 0.36718 0.9175 0.12229 0.0
H2213 H 0.37981 0.91343 0.23746 0.0
H2214 H 0.32336 0.88925 0.32003 0.0
H2215 H 0.34122 0.89995 0.28634 0.0
C2216 C 0.82709 0.3678 0.77194 0.0
C2217 C 0.81402 0.373 0.76977 0.0
C2218 C 0.83765 0.37395 0.75318 0.0
C2219 C 0.84611 0.40628 0.70786 0.0
H2220 H 0.87472 0.38593 0.6634 0.0
C2221 C 0.88073 0.43007 0.6036 0.0
C2222 C 0.89451 0.4294 0.61134 0.0
C2223 C 0.8716 0.42197 0.62196 0.0
C2224 C 0.8668 0.39171 0.67585 0.0
H2225 H 0.80172 0.38839 0.74507 0.0
H2226 H 0.81977 0.39867 0.71187 0.0
H2227 H 0.85749 0.37426 0.69844 0.0
H2228 H 0.90955 0.41898 0.64282 0.0
H2229 H 0.89352 0.4046 0.67442 0.0
H2230 H 0.85515 0.42364 0.68446 0.0
C2231 C 0.82213 0.39022 0.72896 0.0
C2232 C 0.85697 0.38506 0.69609 0.0
C2233 C 0.8117 0.38423 0.74794 0.0
C2234 C 0.899 0.41979 0.63628 0.0
C2235 C 0.88985 0.41154 0.65434 0.0
C2236 C 0.85575 0.41285 0.68728 0.0
C2237 C 0.8353 0.38533 0.73163 0.0
C2238 C 0.84637 0.39226 0.71197 0.0
C2239 C 0.87603 0.41287 0.64815 0.0
C2240 C 0.86611 0.40564 0.6707 0.0
H2241 H 0.82918 0.35912 0.78848 0.0
H2242 H 0.84767 0.36992 0.75607 0.0
H2243 H 0.8384 0.41227 0.72053 0.0
H2244 H 0.87689 0.43731 0.58453 0.0
H2245 H 0.861 0.42309 0.61637 0.0
C2246 C 0.40223 0.07785 0.48076 0.0
C2247 C 0.39697 0.07092 0.5104 0.0
C2248 C 0.39443 0.08718 0.46209 0.0
C2249 C 0.36275 0.10699 0.46577 0.0
H2250 H 0.36477 0.10427 0.36218 0.0
C2251 C 0.32814 0.11995 0.33468 0.0
C2252 C 0.32343 0.13277 0.34384 0.0
C2253 C 0.33834 0.11384 0.35456 0.0
C2254 C 0.36404 0.10515 0.39106 0.0
H2255 H 0.37953 0.06882 0.54463 0.0
H2256 H 0.36586 0.08494 0.51185 0.0
H2257 H 0.37999 0.09118 0.39917 0.0
H2258 H 0.32612 0.14942 0.3805 0.0
H2259 H 0.34406 0.13883 0.41495 0.0
H2260 H 0.3464 0.12055 0.45755 0.0
C2261 C 0.37608 0.0833 0.50321 0.0
C2262 C 0.37291 0.09776 0.41234 0.0
C2263 C 0.38392 0.07401 0.522 0.0
C2264 C 0.3295 0.13953 0.37269 0.0
C2265 C 0.3397 0.13341 0.39265 0.0
C2266 C 0.35386 0.11438 0.44445 0.0
C2267 C 0.38112 0.08976 0.47246 0.0
C2268 C 0.37229 0.09845 0.45 0.0
C2269 C 0.34412 0.1204 0.38416 0.0
C2270 C 0.35427 0.11341 0.40681 0.0
H2271 H 0.41227 0.07579 0.47124 0.0
H2272 H 0.39875 0.09216 0.43904 0.0
H2273 H 0.36207 0.10789 0.49465 0.0
H2274 H 0.32369 0.11442 0.3127 0.0
H2275 H 0.34134 0.10376 0.34746 0.0
C2276 C 0.6345 0.57082 0.09837 0.0
C2277 C 0.62061 0.5687 0.101 0.0
C2278 C 0.64071 0.58099 0.11805 0.0
C2279 C 0.63652 0.59997 0.20143 0.0
H2280 H 0.66721 0.61974 0.16591 0.0
C2281 C 0.67715 0.62239 0.29387 0.0
C2282 C 0.6834 0.63444 0.28387 0.0
C2283 C 0.66763 0.61639 0.2715 0.0
C2284 C 0.65854 0.61447 0.1762 0.0
H2285 H 0.60226 0.576 0.12525 0.0
H2286 H 0.61314 0.59382 0.15962 0.0
H2287 H 0.65406 0.60607 0.12472 0.0
H2288 H 0.68401 0.64999 0.24321 0.0
H2289 H 0.66734 0.63956 0.20432 0.0
H2290 H 0.64113 0.60821 0.25303 0.0
C2291 C 0.61922 0.58752 0.14249 0.0
C2292 C 0.65109 0.60651 0.15262 0.0
C2293 C 0.61298 0.57738 0.12256 0.0
C2294 C 0.67943 0.64069 0.25174 0.0
C2295 C 0.66994 0.63466 0.22929 0.0
C2296 C 0.64401 0.60789 0.22505 0.0
C2297 C 0.63321 0.58926 0.14102 0.0
C2298 C 0.64014 0.59896 0.16507 0.0
C2299 C 0.66414 0.62228 0.23851 0.0
C2300 C 0.65527 0.61504 0.21286 0.0
H2301 H 0.64068 0.56433 0.082 0.0
H2302 H 0.65151 0.58195 0.1165 0.0
H2303 H 0.62822 0.5942 0.21201 0.0
H2304 H 0.67996 0.6173 0.31841 0.0
H2305 H 0.66347 0.6068 0.27934 0.0
C2306 C 0.19104 0.88224 0.89456 0.0
C2307 C 0.18926 0.87318 0.8661 0.0
C2308 C 0.18005 0.88752 0.91278 0.0
C2309 C 0.14539 0.89698 0.90245 0.0
H2310 H 0.14528 0.89768 0.00645 0.0
C2311 C 0.1046 0.92598 0.98033 0.0
C2312 C 0.10899 0.93342 0.0101 0.0
C2313 C 0.11295 0.91642 0.96436 0.0
C2314 C 0.14518 0.8977 0.97742 0.0
H2315 H 0.1745 0.86256 0.83436 0.0
H2316 H 0.15507 0.87224 0.86578 0.0
H2317 H 0.16264 0.88523 0.97476 0.0
H2318 H 0.1255 0.93634 0.04709 0.0
H2319 H 0.14016 0.92005 0.01889 0.0
H2320 H 0.12844 0.91006 0.90479 0.0
C2321 C 0.16508 0.87506 0.87406 0.0
C2322 C 0.15508 0.89047 0.9593 0.0
C2323 C 0.17617 0.86952 0.85619 0.0
C2324 C 0.12174 0.93072 0.02436 0.0
C2325 C 0.13016 0.92129 0.00817 0.0
C2326 C 0.13558 0.90439 0.92055 0.0
C2327 C 0.16696 0.88405 0.90268 0.0
C2328 C 0.15544 0.89025 0.92165 0.0
C2329 C 0.12599 0.91417 0.97753 0.0
C2330 C 0.1355 0.90509 0.95833 0.0
H2331 H 0.20099 0.8852 0.90308 0.0
H2332 H 0.18179 0.89453 0.93445 0.0
H2333 H 0.14551 0.89708 0.8734 0.0
H2334 H 0.09479 0.92775 0.96879 0.0
H2335 H 0.10926 0.91096 0.94132 0.0
loop_
_geom_bond_atom_site_label_1
_geom_bond_atom_site_label_2
_geom_bond_distance
_geom_bond_site_symmetry_2
_ccdc_geom_bond_type
Mg0 O7 2.141 . S
Mg0 O8 2.048 . S
Mg0 O9 2.048 . S
Mg0 O12 2.141 . S
C1 O2 1.313 . S
C1 O8 1.195 . S
O2 C1 1.313 . S
C3 O4 1.245 . S
C3 O12 1.289 . S
O4 C3 1.245 . S
C5 O6 1.245 . S
C5 O7 1.289 . S
O6 C5 1.245 . S
O7 Mg0 2.141 . S
O7 C5 1.289 . S
O8 Mg0 2.048 . S
O8 C1 1.195 . S
O9 Mg0 2.048 . S
O9 C10 1.195 . S
C10 O9 1.195 . S
C10 O11 1.313 . S
O11 C10 1.313 . S
O12 Mg0 2.141 . S
O12 C3 1.289 . S
Mg13 O20 2.141 . S
Mg13 O21 2.048 . S
Mg13 O22 2.048 . S
Mg13 O25 2.141 . S
C14 O15 1.313 . S
C14 O21 1.195 . S
O15 C14 1.313 . S
C16 O17 1.245 . S
C16 O25 1.289 . S
O17 C16 1.245 . S
C18 O19 1.245 . S
C18 O20 1.289 . S
O19 C18 1.245 . S
O20 Mg13 2.141 . S
O20 C18 1.289 . S
O21 Mg13 2.048 . S
O21 C14 1.195 . S
O22 Mg13 2.048 . S
O22 C23 1.195 . S
C23 O22 1.195 . S
C23 O24 1.313 . S
O24 C23 1.313 . S
O25 Mg13 2.141 . S
O25 C16 1.289 . S
Mg26 O33 2.141 . S
Mg26 O34 2.048 . S
Mg26 O35 2.048 . S
Mg26 O38 2.141 . S
C27 O28 1.313 . S
C27 O34 1.195 . S
O28 C27 1.313 . S
C29 O30 1.245 . S
C29 O38 1.289 . S
O30 C29 1.245 . S
C31 O32 1.245 . S
C31 O33 1.289 . S
O32 C31 1.245 . S
O33 Mg26 2.141 . S
O33 C31 1.289 . S
O34 Mg26 2.048 . S
O34 C27 1.195 . S
O35 Mg26 2.048 . S
O35 C36 1.195 . S
C36 O35 1.195 . S
C36 O37 1.313 . S
O37 C36 1.313 . S
O38 Mg26 2.141 . S
O38 C29 1.289 . S
Mg39 O46 2.141 . S
Mg39 O47 2.048 . S
Mg39 O48 2.048 . S
Mg39 O51 2.141 . S
C40 O41 1.313 . S
C40 O47 1.195 . S
O41 C40 1.313 . S
C42 O43 1.245 . S
C42 O51 1.289 . S
O43 C42 1.245 . S
C44 O45 1.245 . S
C44 O46 1.289 . S
O45 C44 1.245 . S
O46 Mg39 2.141 . S
O46 C44 1.289 . S
O47 Mg39 2.048 . S
O47 C40 1.195 . S
O48 Mg39 2.048 . S
O48 C49 1.195 . S
C49 O48 1.195 . S
C49 O50 1.313 . S
O50 C49 1.313 . S
O51 Mg39 2.141 . S
O51 C42 1.289 . S
Mg52 O59 2.141 . S
Mg52 O60 2.048 . S
Mg52 O61 2.048 . S
Mg52 O64 2.141 . S
C53 O54 1.313 . S
C53 O60 1.195 . S
O54 C53 1.313 . S
C55 O56 1.245 . S
C55 O64 1.289 . S
O56 C55 1.245 . S
C57 O58 1.245 . S
C57 O59 1.289 . S
O58 C57 1.245 . S
O59 Mg52 2.141 . S
O59 C57 1.289 . S
O60 Mg52 2.048 . S
O60 C53 1.195 . S
O61 Mg52 2.048 . S
O61 C62 1.195 . S
C62 O61 1.195 . S
C62 O63 1.313 . S
O63 C62 1.313 . S
O64 Mg52 2.141 . S
O64 C55 1.289 . S
Mg65 O72 2.141 . S
Mg65 O73 2.048 . S
Mg65 O74 2.048 . S
Mg65 O77 2.141 . S
C66 O67 1.313 . S
C66 O73 1.195 . S
O67 C66 1.313 . S
C68 O69 1.245 . S
C68 O77 1.289 . S
O69 C68 1.245 . S
C70 O71 1.245 . S
C70 O72 1.289 . S
O71 C70 1.245 . S
O72 Mg65 2.141 . S
O72 C70 1.289 . S
O73 Mg65 2.048 . S
O73 C66 1.195 . S
O74 Mg65 2.048 . S
O74 C75 1.195 . S
C75 O74 1.195 . S
C75 O76 1.313 . S
O76 C75 1.313 . S
O77 Mg65 2.141 . S
O77 C68 1.289 . S
Mg78 O85 2.141 . S
Mg78 O86 2.048 1_554 S
Mg78 O87 2.048 . S
Mg78 O90 2.141 . S
C79 O80 1.313 . S
C79 O86 1.195 . S
O80 C79 1.313 . S
C81 O82 1.245 . S
C81 O90 1.289 . S
O82 C81 1.245 . S
C83 O84 1.245 . S
C83 O85 1.289 . S
O84 C83 1.245 . S
O85 Mg78 2.141 . S
O85 C83 1.289 . S
O86 Mg78 2.048 1_556 S
O86 C79 1.195 . S
O87 Mg78 2.048 . S
O87 C88 1.195 . S
C88 O87 1.195 . S
C88 O89 1.313 . S
O89 C88 1.313 . S
O90 Mg78 2.141 . S
O90 C81 1.289 . S
Mg91 O98 2.141 . S
Mg91 O99 2.048 . S
Mg91 O100 2.048 . S
Mg91 O103 2.141 . S
C92 O93 1.313 . S
C92 O99 1.195 . S
O93 C92 1.313 . S
C94 O95 1.245 . S
C94 O103 1.289 . S
O95 C94 1.245 . S
C96 O97 1.245 . S
C96 O98 1.289 . S
O97 C96 1.245 . S
O98 Mg91 2.141 . S
O98 C96 1.289 . S
O99 Mg91 2.048 . S
O99 C92 1.195 . S
O100 Mg91 2.048 . S
O100 C101 1.195 . S
C101 O100 1.195 . S
C101 O102 1.313 . S
O102 C101 1.313 . S
O103 Mg91 2.141 . S
O103 C94 1.289 . S
Mg104 O111 2.141 . S
Mg104 O112 2.048 . S
Mg104 O113 2.048 1_554 S
Mg104 O116 2.141 . S
C105 O106 1.313 . S
C105 O112 1.195 . S
O106 C105 1.313 . S
C107 O108 1.245 . S
C107 O116 1.289 . S
O108 C107 1.245 . S
C109 O110 1.245 . S
C109 O111 1.289 . S
O110 C109 1.245 . S
O111 Mg104 2.141 . S
O111 C109 1.289 . S
O112 Mg104 2.048 . S
O112 C105 1.195 . S
O113 Mg104 2.048 1_556 S
O113 C114 1.195 . S
C114 O113 1.195 . S
C114 O115 1.313 . S
O115 C114 1.313 . S
O116 Mg104 2.141 . S
O116 C107 1.289 . S
Mg117 O124 2.141 . S
Mg117 O125 2.048 . S
Mg117 O126 2.048 . S
Mg117 O129 2.141 . S
C118 O119 1.313 . S
C118 O125 1.195 . S
O119 C118 1.313 . S
C120 O121 1.245 . S
C120 O129 1.289 . S
O121 C120 1.245 . S
C122 O123 1.245 . S
C122 O124 1.289 . S
O123 C122 1.245 . S
O124 Mg117 2.141 . S
O124 C122 1.289 . S
O125 Mg117 2.048 . S
O125 C118 1.195 . S
O126 Mg117 2.048 . S
O126 C127 1.195 . S
C127 O126 1.195 . S
C127 O128 1.313 . S
O128 C127 1.313 . S
O129 Mg117 2.141 . S
O129 C120 1.289 . S
Mg130 O137 2.141 . S
Mg130 O138 2.048 . S
Mg130 O139 2.048 . S
Mg130 O142 2.141 . S
C131 O132 1.313 . S
C131 O138 1.195 . S
O132 C131 1.313 . S
C133 O134 1.245 . S
C133 O142 1.289 . S
O134 C133 1.245 . S
C135 O136 1.245 . S
C135 O137 1.289 . S
O136 C135 1.245 . S
O137 Mg130 2.141 . S
O137 C135 1.289 . S
O138 Mg130 2.048 . S
O138 C131 1.195 . S
O139 Mg130 2.048 . S
O139 C140 1.195 . S
C140 O139 1.195 . S
C140 O141 1.313 . S
O141 C140 1.313 . S
O142 Mg130 2.141 . S
O142 C133 1.289 . S
Mg143 O150 2.141 . S
Mg143 O151 2.048 . S
Mg143 O152 2.048 . S
Mg143 O155 2.141 . S
C144 O145 1.313 . S
C144 O151 1.195 . S
O145 C144 1.313 . S
C146 O147 1.245 . S
C146 O155 1.289 . S
O147 C146 1.245 . S
C148 O149 1.245 . S
C148 O150 1.289 . S
O149 C148 1.245 . S
O150 Mg143 2.141 . S
O150 C148 1.289 . S
O151 Mg143 2.048 . S
O151 C144 1.195 . S
O152 Mg143 2.048 . S
O152 C153 1.195 . S
C153 O152 1.195 . S
C153 O154 1.313 . S
O154 C153 1.313 . S
O155 Mg143 2.141 . S
O155 C146 1.289 . S
Mg156 O163 2.141 . S
Mg156 O164 2.048 . S
Mg156 O165 2.048 . S
Mg156 O168 2.141 . S
C157 O158 1.313 . S
C157 O164 1.195 . S
O158 C157 1.313 . S
C159 O160 1.245 . S
C159 O168 1.289 . S
O160 C159 1.245 . S
C161 O162 1.245 . S
C161 O163 1.289 . S
O162 C161 1.245 . S
O163 Mg156 2.141 . S
O163 C161 1.289 . S
O164 Mg156 2.048 . S
O164 C157 1.195 . S
O165 Mg156 2.048 . S
O165 C166 1.195 . S
C166 O165 1.195 . S
C166 O167 1.313 . S
O167 C166 1.313 . S
O168 Mg156 2.141 . S
O168 C159 1.289 . S
Mg169 O176 2.141 . S
Mg169 O177 2.048 . S
Mg169 O178 2.048 . S
Mg169 O181 2.141 . S
C170 O171 1.313 . S
C170 O177 1.195 . S
O171 C170 1.313 . S
C172 O173 1.245 . S
C172 O181 1.289 . S
O173 C172 1.245 . S
C174 O175 1.245 . S
C174 O176 1.289 . S
O175 C174 1.245 . S
O176 Mg169 2.141 . S
O176 C174 1.289 . S
O177 Mg169 2.048 . S
O177 C170 1.195 . S
O178 Mg169 2.048 . S
O178 C179 1.195 . S
C179 O178 1.195 . S
C179 O180 1.313 . S
O180 C179 1.313 . S
O181 Mg169 2.141 . S
O181 C172 1.289 . S
Mg182 O189 2.141 . S
Mg182 O190 2.048 . S
Mg182 O191 2.048 . S
Mg182 O194 2.141 . S
C183 O184 1.313 . S
C183 O190 1.195 . S
O184 C183 1.313 . S
C185 O186 1.245 . S
C185 O194 1.289 . S
O186 C185 1.245 . S
C187 O188 1.245 . S
C187 O189 1.289 . S
O188 C187 1.245 . S
O189 Mg182 2.141 . S
O189 C187 1.289 . S
O190 Mg182 2.048 . S
O190 C183 1.195 . S
O191 Mg182 2.048 . S
O191 C192 1.195 . S
C192 O191 1.195 . S
C192 O193 1.313 . S
O193 C192 1.313 . S
O194 Mg182 2.141 . S
O194 C185 1.289 . S
Mg195 O202 2.141 . S
Mg195 O203 2.048 . S
Mg195 O204 2.048 . S
Mg195 O207 2.141 . S
C196 O197 1.313 . S
C196 O203 1.195 . S
O197 C196 1.313 . S
C198 O199 1.245 . S
C198 O207 1.289 . S
O199 C198 1.245 . S
C200 O201 1.245 . S
C200 O202 1.289 . S
O201 C200 1.245 . S
O202 Mg195 2.141 . S
O202 C200 1.289 . S
O203 Mg195 2.048 . S
O203 C196 1.195 . S
O204 Mg195 2.048 . S
O204 C205 1.195 . S
C205 O204 1.195 . S
C205 O206 1.313 . S
O206 C205 1.313 . S
O207 Mg195 2.141 . S
O207 C198 1.289 . S
Mg208 O215 2.141 . S
Mg208 O216 2.048 . S
Mg208 O217 2.048 1_565 S
Mg208 O220 2.141 . S
C209 O210 1.313 . S
C209 O216 1.195 . S
O210 C209 1.313 . S
C211 O212 1.245 . S
C211 O220 1.289 . S
O212 C211 1.245 . S
C213 O214 1.245 . S
C213 O215 1.289 . S
O214 C213 1.245 . S
O215 Mg208 2.141 . S
O215 C213 1.289 . S
O216 Mg208 2.048 . S
O216 C209 1.195 . S
O217 Mg208 2.048 1_545 S
O217 C218 1.172 1_545 S
C218 O217 1.172 1_565 S
C218 O219 1.383 . S
O219 C218 1.383 . S
O220 Mg208 2.141 . S
O220 C211 1.289 . S
Mg221 O228 2.141 . S
Mg221 O229 2.048 . S
Mg221 O230 2.048 . S
Mg221 O233 2.141 . S
C222 O223 1.313 . S
C222 O229 1.195 . S
O223 C222 1.313 . S
C224 O225 1.245 . S
C224 O233 1.289 . S
O225 C224 1.245 . S
C226 O227 1.245 . S
C226 O228 1.289 . S
O227 C226 1.245 . S
O228 Mg221 2.141 . S
O228 C226 1.289 . S
O229 Mg221 2.048 . S
O229 C222 1.195 . S
O230 Mg221 2.048 . S
O230 C231 1.195 . S
C231 O230 1.195 . S
C231 O232 1.313 . S
O232 C231 1.313 . S
O233 Mg221 2.141 . S
O233 C224 1.289 . S
Mg234 O241 2.141 . S
Mg234 O242 2.048 . S
Mg234 O243 2.048 1_545 S
Mg234 O246 2.141 . S
C235 O236 1.313 . S
C235 O242 1.195 . S
O236 C235 1.313 . S
C237 O238 1.245 . S
C237 O246 1.289 . S
O238 C237 1.245 . S
C239 O240 1.245 . S
C239 O241 1.289 . S
O240 C239 1.245 . S
O241 Mg234 2.141 . S
O241 C239 1.289 . S
O242 Mg234 2.048 . S
O242 C235 1.195 . S
O243 Mg234 2.048 1_565 S
O243 C244 1.173 1_565 S
C244 O243 1.173 1_545 S
C244 O245 1.382 . S
O245 C244 1.382 . S
O246 Mg234 2.141 . S
O246 C237 1.289 . S
Mg247 O254 2.141 . S
Mg247 O255 2.048 . S
Mg247 O256 2.048 . S
Mg247 O259 2.141 . S
C248 O249 1.313 . S
C248 O255 1.195 . S
O249 C248 1.313 . S
C250 O251 1.245 . S
C250 O259 1.289 . S
O251 C250 1.245 . S
C252 O253 1.245 . S
C252 O254 1.289 . S
O253 C252 1.245 . S
O254 Mg247 2.141 . S
O254 C252 1.289 . S
O255 Mg247 2.048 . S
O255 C248 1.195 . S
O256 Mg247 2.048 . S
O256 C257 1.195 . S
C257 O256 1.195 . S
C257 O258 1.313 . S
O258 C257 1.313 . S
O259 Mg247 2.141 . S
O259 C250 1.289 . S
Mg260 O267 2.141 . S
Mg260 O268 2.048 1_554 S
Mg260 O269 2.048 1_545 S
Mg260 O272 2.141 . S
C261 O262 1.313 . S
C261 O268 1.195 . S
O262 C261 1.313 . S
C263 O264 1.245 . S
C263 O272 1.289 . S
O264 C263 1.245 . S
C265 O266 1.245 . S
C265 O267 1.289 . S
O266 C265 1.245 . S
O267 Mg260 2.141 . S
O267 C265 1.289 . S
O268 Mg260 2.048 1_556 S
O268 C261 1.195 . S
O269 Mg260 2.048 1_565 S
O269 C270 1.173 1_565 S
C270 O269 1.173 1_545 S
C270 O271 1.382 . S
O271 C270 1.382 . S
O272 Mg260 2.141 . S
O272 C263 1.289 . S
Mg273 O280 2.141 . S
Mg273 O281 2.048 . S
Mg273 O282 2.048 . S
Mg273 O285 2.141 . S
C274 O275 1.313 . S
C274 O281 1.195 . S
O275 C274 1.313 . S
C276 O277 1.245 . S
C276 O285 1.289 . S
O277 C276 1.245 . S
C278 O279 1.245 . S
C278 O280 1.289 . S
O279 C278 1.245 . S
O280 Mg273 2.141 . S
O280 C278 1.289 . S
O281 Mg273 2.048 . S
O281 C274 1.195 . S
O282 Mg273 2.048 . S
O282 C283 1.195 . S
C283 O282 1.195 . S
C283 O284 1.313 . S
O284 C283 1.313 . S
O285 Mg273 2.141 . S
O285 C276 1.289 . S
Mg286 O293 2.141 . S
Mg286 O294 2.048 . S
Mg286 O295 2.048 1_565 S
Mg286 O298 2.141 . S
C287 O288 1.313 . S
C287 O294 1.195 . S
O288 C287 1.313 . S
C289 O290 1.245 . S
C289 O298 1.289 . S
O290 C289 1.245 . S
C291 O292 1.245 . S
C291 O293 1.289 . S
O292 C291 1.245 . S
O293 Mg286 2.141 . S
O293 C291 1.289 . S
O294 Mg286 2.048 . S
O294 C287 1.195 . S
O295 Mg286 2.048 1_545 S
O295 C296 1.172 1_545 S
C296 O295 1.172 1_565 S
C296 O297 1.384 . S
O297 C296 1.384 . S
O298 Mg286 2.141 . S
O298 C289 1.289 . S
Mg299 O306 2.141 . S
Mg299 O307 2.048 . S
Mg299 O308 2.048 . S
Mg299 O311 2.141 . S
C300 O301 1.313 . S
C300 O307 1.195 . S
O301 C300 1.313 . S
C302 O303 1.245 . S
C302 O311 1.289 . S
O303 C302 1.245 . S
C304 O305 1.245 . S
C304 O306 1.289 . S
O305 C304 1.245 . S
O306 Mg299 2.141 . S
O306 C304 1.289 . S
O307 Mg299 2.048 . S
O307 C300 1.195 . S
O308 Mg299 2.048 . S
O308 C309 1.195 . S
C309 O308 1.195 . S
C309 O310 1.313 . S
O310 C309 1.313 . S
O311 Mg299 2.141 . S
O311 C302 1.289 . S
Mg312 O319 2.141 . S
Mg312 O320 2.048 1_545 S
Mg312 O321 2.048 . S
Mg312 O324 2.141 . S
C313 O314 1.384 . S
C313 O320 1.172 1_545 S
O314 C313 1.384 . S
C315 O316 1.245 . S
C315 O324 1.289 . S
O316 C315 1.245 . S
C317 O318 1.245 . S
C317 O319 1.289 . S
O318 C317 1.245 . S
O319 Mg312 2.141 . S
O319 C317 1.289 . S
O320 Mg312 2.048 1_565 S
O320 C313 1.172 1_565 S
O321 Mg312 2.048 . S
O321 C322 1.195 . S
C322 O321 1.195 . S
C322 O323 1.313 . S
O323 C322 1.313 . S
O324 Mg312 2.141 . S
O324 C315 1.289 . S
Mg325 O332 2.141 . S
Mg325 O333 2.048 . S
Mg325 O334 2.048 . S
Mg325 O337 2.141 . S
C326 O327 1.313 . S
C326 O333 1.195 . S
O327 C326 1.313 . S
C328 O329 1.245 . S
C328 O337 1.289 . S
O329 C328 1.245 . S
C330 O331 1.245 . S
C330 O332 1.289 . S
O331 C330 1.245 . S
O332 Mg325 2.141 . S
O332 C330 1.289 . S
O333 Mg325 2.048 . S
O333 C326 1.195 . S
O334 Mg325 2.048 . S
O334 C335 1.195 . S
C335 O334 1.195 . S
C335 O336 1.313 . S
O336 C335 1.313 . S
O337 Mg325 2.141 . S
O337 C328 1.289 . S
Mg338 O345 2.141 . S
Mg338 O346 2.048 1_565 S
Mg338 O347 2.048 1_554 S
Mg338 O350 2.141 . S
C339 O340 1.382 . S
C339 O346 1.173 1_565 S
O340 C339 1.382 . S
C341 O342 1.245 . S
C341 O350 1.289 . S
O342 C341 1.245 . S
C343 O344 1.245 . S
C343 O345 1.289 . S
O344 C343 1.245 . S
O345 Mg338 2.141 . S
O345 C343 1.289 . S
O346 Mg338 2.048 1_545 S
O346 C339 1.173 1_545 S
O347 Mg338 2.048 1_556 S
O347 C348 1.195 . S
C348 O347 1.195 . S
C348 O349 1.313 . S
O349 C348 1.313 . S
O350 Mg338 2.141 . S
O350 C341 1.289 . S
Mg351 O358 2.141 . S
Mg351 O359 2.048 . S
Mg351 O360 2.048 . S
Mg351 O363 2.141 . S
C352 O353 1.313 . S
C352 O359 1.195 . S
O353 C352 1.313 . S
C354 O355 1.245 . S
C354 O363 1.289 . S
O355 C354 1.245 . S
C356 O357 1.245 . S
C356 O358 1.289 . S
O357 C356 1.245 . S
O358 Mg351 2.141 . S
O358 C356 1.289 . S
O359 Mg351 2.048 . S
O359 C352 1.195 . S
O360 Mg351 2.048 . S
O360 C361 1.195 . S
C361 O360 1.195 . S
C361 O362 1.313 . S
O362 C361 1.313 . S
O363 Mg351 2.141 . S
O363 C354 1.289 . S
Mg364 O371 2.141 . S
Mg364 O372 2.048 1_565 S
Mg364 O373 2.048 . S
Mg364 O376 2.141 . S
C365 O366 1.382 . S
C365 O372 1.173 1_565 S
O366 C365 1.382 . S
C367 O368 1.245 . S
C367 O376 1.289 . S
O368 C367 1.245 . S
C369 O370 1.245 . S
C369 O371 1.289 . S
O370 C369 1.245 . S
O371 Mg364 2.141 . S
O371 C369 1.289 . S
O372 Mg364 2.048 1_545 S
O372 C365 1.173 1_545 S
O373 Mg364 2.048 . S
O373 C374 1.195 . S
C374 O373 1.195 . S
C374 O375 1.313 . S
O375 C374 1.313 . S
O376 Mg364 2.141 . S
O376 C367 1.289 . S
Mg377 O384 2.141 . S
Mg377 O385 2.048 . S
Mg377 O386 2.048 . S
Mg377 O389 2.141 . S
C378 O379 1.313 . S
C378 O385 1.195 . S
O379 C378 1.313 . S
C380 O381 1.245 . S
C380 O389 1.289 . S
O381 C380 1.245 . S
C382 O383 1.245 . S
C382 O384 1.289 . S
O383 C382 1.245 . S
O384 Mg377 2.141 . S
O384 C382 1.289 . S
O385 Mg377 2.048 . S
O385 C378 1.195 . S
O386 Mg377 2.048 . S
O386 C387 1.195 . S
C387 O386 1.195 . S
C387 O388 1.313 . S
O388 C387 1.313 . S
O389 Mg377 2.141 . S
O389 C380 1.289 . S
Mg390 O397 2.141 . S
Mg390 O398 2.048 1_545 S
Mg390 O399 2.048 . S
Mg390 O402 2.141 . S
C391 O392 1.383 . S
C391 O398 1.172 1_545 S
O392 C391 1.383 . S
C393 O394 1.245 . S
C393 O402 1.289 . S
O394 C393 1.245 . S
C395 O396 1.245 . S
C395 O397 1.289 . S
O396 C395 1.245 . S
O397 Mg390 2.141 . S
O397 C395 1.289 . S
O398 Mg390 2.048 1_565 S
O398 C391 1.172 1_565 S
O399 Mg390 2.048 . S
O399 C400 1.195 . S
C400 O399 1.195 . S
C400 O401 1.313 . S
O401 C400 1.313 . S
O402 Mg390 2.141 . S
O402 C393 1.289 . S
Mg403 O410 2.141 . S
Mg403 O411 2.048 . S
Mg403 O412 2.048 . S
Mg403 O415 2.141 . S
C404 O405 1.313 . S
C404 O411 1.195 . S
O405 C404 1.313 . S
C406 O407 1.245 . S
C406 O415 1.289 . S
O407 C406 1.245 . S
C408 O409 1.245 . S
C408 O410 1.289 . S
O409 C408 1.245 . S
O410 Mg403 2.141 . S
O410 C408 1.289 . S
O411 Mg403 2.048 . S
O411 C404 1.195 . S
O412 Mg403 2.048 . S
O412 C413 1.195 . S
C413 O412 1.195 . S
C413 O414 1.313 . S
O414 C413 1.313 . S
O415 Mg403 2.141 . S
O415 C406 1.289 . S
C416 C417 1.349 . S
C416 C418 1.327 . S
C416 H441 0.950 . S
C417 C416 1.349 . S
C417 C433 1.349 . S
C418 C416 1.327 . S
C418 C437 1.429 . S
C418 H442 0.950 . S
C419 C436 1.574 1_655 S
C419 C438 1.368 . S
C419 H443 0.949 . S
H420 C424 0.949 . S
C421 C422 1.349 . S
C421 C423 1.327 . S
C421 H444 0.950 . S
C422 C421 1.349 . S
C422 C434 1.349 . S
C423 C421 1.327 . S
C423 C439 1.429 . S
C423 H445 0.950 . S
C424 H420 0.949 . S
C424 C432 1.574 1_455 S
C424 C440 1.368 . S
H425 C433 0.950 . S
H426 C431 0.950 . S
H427 C432 0.949 . S
H428 C434 0.950 . S
H429 C435 0.950 . S
H430 C436 0.949 . S
C431 H426 0.950 . S
C431 C433 1.327 . S
C431 C437 1.429 . S
C432 C424 1.574 1_655 S
C432 H427 0.949 . S
C432 C438 1.368 . S
C433 C417 1.349 . S
C433 H425 0.950 . S
C433 C431 1.327 . S
C434 C422 1.349 . S
C434 H428 0.950 . S
C434 C435 1.327 . S
C435 H429 0.950 . S
C435 C434 1.327 . S
C435 C439 1.429 . S
C436 C419 1.574 1_455 S
C436 H430 0.949 . S
C436 C440 1.368 . S
C437 C418 1.429 . S
C437 C431 1.429 . S
C437 C438 1.523 . S
C438 C419 1.368 . S
C438 C432 1.368 . S
C438 C437 1.523 . S
C439 C423 1.429 . S
C439 C435 1.429 . S
C439 C440 1.523 . S
C440 C424 1.368 . S
C440 C436 1.368 . S
C440 C439 1.523 . S
H441 C416 0.950 . S
H442 C418 0.950 . S
H443 C419 0.949 . S
H444 C421 0.950 . S
H445 C423 0.950 . S
C446 C447 1.349 . S
C446 C448 1.327 . S
C446 H471 0.950 . S
C447 C446 1.349 . S
C447 C463 1.349 . S
C448 C446 1.327 . S
C448 C467 1.429 . S
C448 H472 0.950 . S
C449 C466 1.574 . S
C449 C468 1.368 . S
C449 H473 0.949 . S
H450 C454 0.949 . S
C451 C452 1.349 . S
C451 C453 1.327 . S
C451 H474 0.950 . S
C452 C451 1.349 . S
C452 C464 1.349 . S
C453 C451 1.327 . S
C453 C469 1.429 . S
C453 H475 0.950 . S
C454 H450 0.949 . S
C454 C462 1.574 . S
C454 C470 1.368 . S
H455 C463 0.950 . S
H456 C461 0.950 . S
H457 C462 0.949 . S
H458 C464 0.950 . S
H459 C465 0.950 . S
H460 C466 0.949 . S
C461 H456 0.950 . S
C461 C463 1.327 . S
C461 C467 1.429 . S
C462 C454 1.574 . S
C462 H457 0.949 . S
C462 C468 1.368 . S
C463 C447 1.349 . S
C463 H455 0.950 . S
C463 C461 1.327 . S
C464 C452 1.349 . S
C464 H458 0.950 . S
C464 C465 1.327 . S
C465 H459 0.950 . S
C465 C464 1.327 . S
C465 C469 1.429 . S
C466 C449 1.574 . S
C466 H460 0.949 . S
C466 C470 1.368 . S
C467 C448 1.429 . S
C467 C461 1.429 . S
C467 C468 1.523 . S
C468 C449 1.368 . S
C468 C462 1.368 . S
C468 C467 1.523 . S
C469 C453 1.429 . S
C469 C465 1.429 . S
C469 C470 1.523 . S
C470 C454 1.368 . S
C470 C466 1.368 . S
C470 C469 1.523 . S
H471 C446 0.950 . S
H472 C448 0.950 . S
H473 C449 0.949 . S
H474 C451 0.950 . S
H475 C453 0.950 . S
C476 C477 1.349 . S
C476 C478 1.327 . S
C476 H501 0.950 . S
C477 C476 1.349 . S
C477 C493 1.349 . S
C478 C476 1.327 . S
C478 C497 1.429 . S
C478 H502 0.950 . S
C479 C496 1.574 . S
C479 C498 1.368 . S
C479 H503 0.949 . S
H480 C484 0.949 . S
C481 C482 1.349 . S
C481 C483 1.327 . S
C481 H504 0.950 . S
C482 C481 1.349 . S
C482 C494 1.349 . S
C483 C481 1.327 . S
C483 C499 1.429 . S
C483 H505 0.950 . S
C484 H480 0.949 . S
C484 C492 1.574 . S
C484 C500 1.368 . S
H485 C493 0.950 . S
H486 C491 0.950 . S
H487 C492 0.949 . S
H488 C494 0.950 . S
H489 C495 0.950 . S
H490 C496 0.949 . S
C491 H486 0.950 . S
C491 C493 1.327 . S
C491 C497 1.429 . S
C492 C484 1.574 . S
C492 H487 0.949 . S
C492 C498 1.368 . S
C493 C477 1.349 . S
C493 H485 0.950 . S
C493 C491 1.327 . S
C494 C482 1.349 . S
C494 H488 0.950 . S
C494 C495 1.327 . S
C495 H489 0.950 . S
C495 C494 1.327 . S
C495 C499 1.429 . S
C496 C479 1.574 . S
C496 H490 0.949 . S
C496 C500 1.368 . S
C497 C478 1.429 . S
C497 C491 1.429 . S
C497 C498 1.523 . S
C498 C479 1.368 . S
C498 C492 1.368 . S
C498 C497 1.523 . S
C499 C483 1.429 . S
C499 C495 1.429 . S
C499 C500 1.523 . S
C500 C484 1.368 . S
C500 C496 1.368 . S
C500 C499 1.523 . S
H501 C476 0.950 . S
H502 C478 0.950 . S
H503 C479 0.949 . S
H504 C481 0.950 . S
H505 C483 0.950 . S
C506 C507 1.349 . S
C506 C508 1.327 . S
C506 H531 0.950 . S
C507 C506 1.349 . S
C507 C523 1.349 . S
C508 C506 1.327 . S
C508 C527 1.429 . S
C508 H532 0.950 . S
C509 C526 1.574 . S
C509 C528 1.368 . S
C509 H533 0.949 . S
H510 C514 0.949 . S
C511 C512 1.349 . S
C511 C513 1.327 . S
C511 H534 0.950 . S
C512 C511 1.349 . S
C512 C524 1.349 . S
C513 C511 1.327 . S
C513 C529 1.429 . S
C513 H535 0.950 . S
C514 H510 0.949 . S
C514 C522 1.574 . S
C514 C530 1.368 . S
H515 C523 0.950 . S
H516 C521 0.950 . S
H517 C522 0.949 . S
H518 C524 0.950 . S
H519 C525 0.950 . S
H520 C526 0.949 . S
C521 H516 0.950 . S
C521 C523 1.327 . S
C521 C527 1.429 . S
C522 C514 1.574 . S
C522 H517 0.949 . S
C522 C528 1.368 . S
C523 C507 1.349 . S
C523 H515 0.950 . S
C523 C521 1.327 . S
C524 C512 1.349 . S
C524 H518 0.950 . S
C524 C525 1.327 . S
C525 H519 0.950 . S
C525 C524 1.327 . S
C525 C529 1.429 . S
C526 C509 1.574 . S
C526 H520 0.949 . S
C526 C530 1.368 . S
C527 C508 1.429 . S
C527 C521 1.429 . S
C527 C528 1.523 . S
C528 C509 1.368 . S
C528 C522 1.368 . S
C528 C527 1.523 . S
C529 C513 1.429 . S
C529 C525 1.429 . S
C529 C530 1.523 . S
C530 C514 1.368 . S
C530 C526 1.368 . S
C530 C529 1.523 . S
H531 C506 0.950 . S
H532 C508 0.950 . S
H533 C509 0.949 . S
H534 C511 0.950 . S
H535 C513 0.950 . S
C536 C537 1.349 . S
C536 C538 1.327 . S
C536 H561 0.950 . S
C537 C536 1.349 . S
C537 C553 1.349 . S
C538 C536 1.327 . S
C538 C557 1.429 . S
C538 H562 0.950 . S
C539 C556 1.574 1_455 S
C539 C558 1.368 . S
C539 H563 0.949 . S
H540 C544 0.949 . S
C541 C542 1.349 . S
C541 C543 1.327 . S
C541 H564 0.950 . S
C542 C541 1.349 . S
C542 C554 1.349 . S
C543 C541 1.327 . S
C543 C559 1.429 . S
C543 H565 0.950 . S
C544 H540 0.949 . S
C544 C552 1.574 1_655 S
C544 C560 1.368 . S
H545 C553 0.950 . S
H546 C551 0.950 . S
H547 C552 0.949 . S
H548 C554 0.950 . S
H549 C555 0.950 . S
H550 C556 0.949 . S
C551 H546 0.950 . S
C551 C553 1.327 . S
C551 C557 1.429 . S
C552 C544 1.574 1_455 S
C552 H547 0.949 . S
C552 C558 1.368 . S
C553 C537 1.349 . S
C553 H545 0.950 . S
C553 C551 1.327 . S
C554 C542 1.349 . S
C554 H548 0.950 . S
C554 C555 1.327 . S
C555 H549 0.950 . S
C555 C554 1.327 . S
C555 C559 1.429 . S
C556 C539 1.574 1_655 S
C556 H550 0.949 . S
C556 C560 1.368 . S
C557 C538 1.429 . S
C557 C551 1.429 . S
C557 C558 1.523 . S
C558 C539 1.368 . S
C558 C552 1.368 . S
C558 C557 1.523 . S
C559 C543 1.429 . S
C559 C555 1.429 . S
C559 C560 1.523 . S
C560 C544 1.368 . S
C560 C556 1.368 . S
C560 C559 1.523 . S
H561 C536 0.950 . S
H562 C538 0.950 . S
H563 C539 0.949 . S
H564 C541 0.950 . S
H565 C543 0.950 . S
C566 C567 1.349 . S
C566 C568 1.327 . S
C566 H591 0.950 . S
C567 C566 1.349 . S
C567 C583 1.349 . S
C568 C566 1.327 . S
C568 C587 1.429 . S
C568 H592 0.950 . S
C569 C586 1.574 . S
C569 C588 1.368 . S
C569 H593 0.949 . S
H570 C574 0.949 . S
C571 C572 1.349 . S
C571 C573 1.327 . S
C571 H594 0.950 . S
C572 C571 1.349 . S
C572 C584 1.349 . S
C573 C571 1.327 . S
C573 C589 1.429 . S
C573 H595 0.950 . S
C574 H570 0.949 . S
C574 C582 1.574 . S
C574 C590 1.368 . S
H575 C583 0.950 . S
H576 C581 0.950 . S
H577 C582 0.949 . S
H578 C584 0.950 . S
H579 C585 0.950 . S
H580 C586 0.949 . S
C581 H576 0.950 . S
C581 C583 1.327 . S
C581 C587 1.429 . S
C582 C574 1.574 . S
C582 H577 0.949 . S
C582 C588 1.368 . S
C583 C567 1.349 . S
C583 H575 0.950 . S
C583 C581 1.327 . S
C584 C572 1.349 . S
C584 H578 0.950 . S
C584 C585 1.327 . S
C585 H579 0.950 . S
C585 C584 1.327 . S
C585 C589 1.429 . S
C586 C569 1.574 . S
C586 H580 0.949 . S
C586 C590 1.368 . S
C587 C568 1.429 . S
C587 C581 1.429 . S
C587 C588 1.523 . S
C588 C569 1.368 . S
C588 C582 1.368 . S
C588 C587 1.523 . S
C589 C573 1.429 . S
C589 C585 1.429 . S
C589 C590 1.523 . S
C590 C574 1.368 . S
C590 C586 1.368 . S
C590 C589 1.523 . S
H591 C566 0.950 . S
H592 C568 0.950 . S
H593 C569 0.949 . S
H594 C571 0.950 . S
H595 C573 0.950 . S
C596 C597 1.349 . S
C596 C598 1.327 . S
C596 H621 0.950 . S
C597 C596 1.349 . S
C597 C613 1.349 . S
C598 C596 1.327 . S
C598 C617 1.429 . S
C598 H622 0.950 . S
C599 C616 1.574 . S
C599 C618 1.368 . S
C599 H623 0.949 . S
H600 C604 0.949 . S
C601 C602 1.349 . S
C601 C603 1.327 . S
C601 H624 0.950 . S
C602 C601 1.349 . S
C602 C614 1.349 . S
C603 C601 1.327 . S
C603 C619 1.429 . S
C603 H625 0.950 . S
C604 H600 0.949 . S
C604 C612 1.574 . S
C604 C620 1.368 . S
H605 C613 0.950 . S
H606 C611 0.950 . S
H607 C612 0.949 . S
H608 C614 0.950 . S
H609 C615 0.950 . S
H610 C616 0.949 . S
C611 H606 0.950 . S
C611 C613 1.327 . S
C611 C617 1.429 . S
C612 C604 1.574 . S
C612 H607 0.949 . S
C612 C618 1.368 . S
C613 C597 1.349 . S
C613 H605 0.950 . S
C613 C611 1.327 . S
C614 C602 1.349 . S
C614 H608 0.950 . S
C614 C615 1.327 . S
C615 H609 0.950 . S
C615 C614 1.327 . S
C615 C619 1.429 . S
C616 C599 1.574 . S
C616 H610 0.949 . S
C616 C620 1.368 . S
C617 C598 1.429 . S
C617 C611 1.429 . S
C617 C618 1.523 . S
C618 C599 1.368 . S
C618 C612 1.368 . S
C618 C617 1.523 . S
C619 C603 1.429 . S
C619 C615 1.429 . S
C619 C620 1.523 . S
C620 C604 1.368 . S
C620 C616 1.368 . S
C620 C619 1.523 . S
H621 C596 0.950 . S
H622 C598 0.950 . S
H623 C599 0.949 . S
H624 C601 0.950 . S
H625 C603 0.950 . S
C626 C627 1.349 . S
C626 C628 1.327 . S
C626 H651 0.950 . S
C627 C626 1.349 . S
C627 C643 1.349 . S
C628 C626 1.327 . S
C628 C647 1.429 . S
C628 H652 0.950 . S
C629 C646 1.574 . S
C629 C648 1.368 . S
C629 H653 0.949 . S
H630 C634 0.949 . S
C631 C632 1.349 . S
C631 C633 1.327 . S
C631 H654 0.950 . S
C632 C631 1.349 . S
C632 C644 1.349 . S
C633 C631 1.327 . S
C633 C649 1.429 . S
C633 H655 0.950 . S
C634 H630 0.949 . S
C634 C642 1.574 . S
C634 C650 1.368 . S
H635 C643 0.950 . S
H636 C641 0.950 . S
H637 C642 0.949 . S
H638 C644 0.950 . S
H639 C645 0.950 . S
H640 C646 0.949 . S
C641 H636 0.950 . S
C641 C643 1.327 . S
C641 C647 1.429 . S
C642 C634 1.574 . S
C642 H637 0.949 . S
C642 C648 1.368 . S
C643 C627 1.349 . S
C643 H635 0.950 . S
C643 C641 1.327 . S
C644 C632 1.349 . S
C644 H638 0.950 . S
C644 C645 1.327 . S
C645 H639 0.950 . S
C645 C644 1.327 . S
C645 C649 1.429 . S
C646 C629 1.574 . S
C646 H640 0.949 . S
C646 C650 1.368 . S
C647 C628 1.429 . S
C647 C641 1.429 . S
C647 C648 1.523 . S
C648 C629 1.368 . S
C648 C642 1.368 . S
C648 C647 1.523 . S
C649 C633 1.429 . S
C649 C645 1.429 . S
C649 C650 1.523 . S
C650 C634 1.368 . S
C650 C646 1.368 . S
C650 C649 1.523 . S
H651 C626 0.950 . S
H652 C628 0.950 . S
H653 C629 0.949 . S
H654 C631 0.950 . S
H655 C633 0.950 . S
C656 C657 1.349 . S
C656 C658 1.327 . S
C656 H681 0.950 . S
C657 C656 1.349 . S
C657 C673 1.349 . S
C658 C656 1.327 . S
C658 C677 1.429 . S
C658 H682 0.950 . S
C659 C676 1.574 . S
C659 C678 1.368 . S
C659 H683 0.949 . S
H660 C664 0.949 . S
C661 C662 1.349 . S
C661 C663 1.327 . S
C661 H684 0.950 . S
C662 C661 1.349 . S
C662 C674 1.349 . S
C663 C661 1.327 . S
C663 C679 1.429 . S
C663 H685 0.950 . S
C664 H660 0.949 . S
C664 C672 1.574 . S
C664 C680 1.368 . S
H665 C673 0.950 . S
H666 C671 0.950 . S
H667 C672 0.949 . S
H668 C674 0.950 . S
H669 C675 0.950 . S
H670 C676 0.949 . S
C671 H666 0.950 . S
C671 C673 1.327 . S
C671 C677 1.429 . S
C672 C664 1.574 . S
C672 H667 0.949 . S
C672 C678 1.368 . S
C673 C657 1.349 . S
C673 H665 0.950 . S
C673 C671 1.327 . S
C674 C662 1.349 . S
C674 H668 0.950 . S
C674 C675 1.327 . S
C675 H669 0.950 . S
C675 C674 1.327 . S
C675 C679 1.429 . S
C676 C659 1.574 . S
C676 H670 0.949 . S
C676 C680 1.368 . S
C677 C658 1.429 . S
C677 C671 1.429 . S
C677 C678 1.523 . S
C678 C659 1.368 . S
C678 C672 1.368 . S
C678 C677 1.523 . S
C679 C663 1.429 . S
C679 C675 1.429 . S
C679 C680 1.523 . S
C680 C664 1.368 . S
C680 C676 1.368 . S
C680 C679 1.523 . S
H681 C656 0.950 . S
H682 C658 0.950 . S
H683 C659 0.949 . S
H684 C661 0.950 . S
H685 C663 0.950 . S
C686 C687 1.349 . S
C686 C688 1.327 . S
C686 H711 0.950 . S
C687 C686 1.349 . S
C687 C703 1.349 . S
C688 C686 1.327 . S
C688 C707 1.429 . S
C688 H712 0.950 . S
C689 C706 1.574 . S
C689 C708 1.368 . S
C689 H713 0.949 . S
H690 C694 0.949 . S
C691 C692 1.349 . S
C691 C693 1.327 . S
C691 H714 0.950 . S
C692 C691 1.349 . S
C692 C704 1.349 . S
C693 C691 1.327 . S
C693 C709 1.429 . S
C693 H715 0.950 . S
C694 H690 0.949 . S
C694 C702 1.574 . S
C694 C710 1.368 . S
H695 C703 0.950 . S
H696 C701 0.950 . S
H697 C702 0.949 . S
H698 C704 0.950 . S
H699 C705 0.950 . S
H700 C706 0.949 . S
C701 H696 0.950 . S
C701 C703 1.327 . S
C701 C707 1.429 . S
C702 C694 1.574 . S
C702 H697 0.949 . S
C702 C708 1.368 . S
C703 C687 1.349 . S
C703 H695 0.950 . S
C703 C701 1.327 . S
C704 C692 1.349 . S
C704 H698 0.950 . S
C704 C705 1.327 . S
C705 H699 0.950 . S
C705 C704 1.327 . S
C705 C709 1.429 . S
C706 C689 1.574 . S
C706 H700 0.949 . S
C706 C710 1.368 . S
C707 C688 1.429 . S
C707 C701 1.429 . S
C707 C708 1.523 . S
C708 C689 1.368 . S
C708 C702 1.368 . S
C708 C707 1.523 . S
C709 C693 1.429 . S
C709 C705 1.429 . S
C709 C710 1.523 . S
C710 C694 1.368 . S
C710 C706 1.368 . S
C710 C709 1.523 . S
H711 C686 0.950 . S
H712 C688 0.950 . S
H713 C689 0.949 . S
H714 C691 0.950 . S
H715 C693 0.950 . S
C716 C717 1.349 . S
C716 C718 1.327 . S
C716 H741 0.950 . S
C717 C716 1.349 . S
C717 C733 1.349 . S
C718 C716 1.327 . S
C718 C737 1.429 . S
C718 H742 0.950 . S
C719 C736 1.574 . S
C719 C738 1.368 . S
C719 H743 0.949 . S
H720 C724 0.949 . S
C721 C722 1.349 . S
C721 C723 1.327 . S
C721 H744 0.950 . S
C722 C721 1.349 . S
C722 C734 1.349 . S
C723 C721 1.327 . S
C723 C739 1.429 . S
C723 H745 0.950 . S
C724 H720 0.949 . S
C724 C732 1.574 . S
C724 C740 1.368 . S
H725 C733 0.950 . S
H726 C731 0.950 . S
H727 C732 0.949 . S
H728 C734 0.950 . S
H729 C735 0.950 . S
H730 C736 0.949 . S
C731 H726 0.950 . S
C731 C733 1.327 . S
C731 C737 1.429 . S
C732 C724 1.574 . S
C732 H727 0.949 . S
C732 C738 1.368 . S
C733 C717 1.349 . S
C733 H725 0.950 . S
C733 C731 1.327 . S
C734 C722 1.349 . S
C734 H728 0.950 . S
C734 C735 1.327 . S
C735 H729 0.950 . S
C735 C734 1.327 . S
C735 C739 1.429 . S
C736 C719 1.574 . S
C736 H730 0.949 . S
C736 C740 1.368 . S
C737 C718 1.429 . S
C737 C731 1.429 . S
C737 C738 1.523 . S
C738 C719 1.368 . S
C738 C732 1.368 . S
C738 C737 1.523 . S
C739 C723 1.429 . S
C739 C735 1.429 . S
C739 C740 1.523 . S
C740 C724 1.368 . S
C740 C736 1.368 . S
C740 C739 1.523 . S
H741 C716 0.950 . S
H742 C718 0.950 . S
H743 C719 0.949 . S
H744 C721 0.950 . S
H745 C723 0.950 . S
C746 C747 1.349 . S
C746 C748 1.327 . S
C746 H771 0.950 . S
C747 C746 1.349 . S
C747 C763 1.349 . S
C748 C746 1.327 . S
C748 C767 1.429 . S
C748 H772 0.950 . S
C749 C766 1.574 . S
C749 C768 1.368 . S
C749 H773 0.949 . S
H750 C754 0.949 . S
C751 C752 1.349 . S
C751 C753 1.327 . S
C751 H774 0.950 . S
C752 C751 1.349 . S
C752 C764 1.349 . S
C753 C751 1.327 . S
C753 C769 1.429 . S
C753 H775 0.950 . S
C754 H750 0.949 . S
C754 C762 1.574 . S
C754 C770 1.368 . S
H755 C763 0.950 . S
H756 C761 0.950 . S
H757 C762 0.949 . S
H758 C764 0.950 . S
H759 C765 0.950 . S
H760 C766 0.949 . S
C761 H756 0.950 . S
C761 C763 1.327 . S
C761 C767 1.429 . S
C762 C754 1.574 . S
C762 H757 0.949 . S
C762 C768 1.368 . S
C763 C747 1.349 . S
C763 H755 0.950 . S
C763 C761 1.327 . S
C764 C752 1.349 . S
C764 H758 0.950 . S
C764 C765 1.327 . S
C765 H759 0.950 . S
C765 C764 1.327 . S
C765 C769 1.429 . S
C766 C749 1.574 . S
C766 H760 0.949 . S
C766 C770 1.368 . S
C767 C748 1.429 . S
C767 C761 1.429 . S
C767 C768 1.523 . S
C768 C749 1.368 . S
C768 C762 1.368 . S
C768 C767 1.523 . S
C769 C753 1.429 . S
C769 C765 1.429 . S
C769 C770 1.523 . S
C770 C754 1.368 . S
C770 C766 1.368 . S
C770 C769 1.523 . S
H771 C746 0.950 . S
H772 C748 0.950 . S
H773 C749 0.949 . S
H774 C751 0.950 . S
H775 C753 0.950 . S
C776 C777 1.349 1_545 S
C776 C778 1.327 . S
C776 H801 0.950 . S
C777 C776 1.349 1_565 S
C777 C793 1.349 . S
C778 C776 1.327 . S
C778 C797 1.429 1_545 S
C778 H802 0.950 . S
C779 C796 1.574 . S
C779 C798 1.416 . S
C779 H803 0.949 . S
H780 C784 0.949 . S
C781 C782 1.349 1_565 S
C781 C783 1.327 . S
C781 H804 0.950 . S
C782 C781 1.349 1_545 S
C782 C794 1.349 . S
C783 C781 1.327 . S
C783 C799 1.429 1_565 S
C783 H805 0.950 . S
C784 H780 0.949 . S
C784 C792 1.574 . S
C784 C800 1.417 . S
H785 C793 0.950 . S
H786 C791 0.950 . S
H787 C792 0.949 . S
H788 C794 0.950 . S
H789 C795 0.950 . S
H790 C796 0.949 . S
C791 H786 0.950 . S
C791 C793 1.327 . S
C791 C797 1.429 . S
C792 C784 1.574 . S
C792 H787 0.949 . S
C792 C798 1.319 1_545 S
C793 C777 1.349 . S
C793 H785 0.950 . S
C793 C791 1.327 . S
C794 C782 1.349 . S
C794 H788 0.950 . S
C794 C795 1.327 . S
C795 H789 0.950 . S
C795 C794 1.327 . S
C795 C799 1.429 . S
C796 C779 1.574 . S
C796 H790 0.949 . S
C796 C800 1.318 1_565 S
C797 C778 1.429 1_565 S
C797 C791 1.429 . S
C797 C798 1.526 . S
C798 C779 1.416 . S
C798 C792 1.319 1_565 S
C798 C797 1.526 . S
C799 C783 1.429 1_545 S
C799 C795 1.429 . S
C799 C800 1.527 . S
C800 C784 1.417 . S
C800 C796 1.318 1_545 S
C800 C799 1.527 . S
H801 C776 0.950 . S
H802 C778 0.950 . S
H803 C779 0.949 . S
H804 C781 0.950 . S
H805 C783 0.950 . S
C806 C807 1.349 1_545 S
C806 C808 1.327 . S
C806 H831 0.950 . S
C807 C806 1.349 1_565 S
C807 C823 1.349 . S
C808 C806 1.327 . S
C808 C827 1.429 1_545 S
C808 H832 0.950 . S
C809 C826 1.574 1_655 S
C809 C828 1.387 . S
C809 H833 0.949 . S
H810 C814 0.949 . S
C811 C812 1.349 1_565 S
C811 C813 1.327 . S
C811 H834 0.950 . S
C812 C811 1.349 1_545 S
C812 C824 1.349 . S
C813 C811 1.327 . S
C813 C829 1.429 1_565 S
C813 H835 0.950 . S
C814 H810 0.949 . S
C814 C822 1.574 1_455 S
C814 C830 1.387 . S
H815 C823 0.950 . S
H816 C821 0.950 . S
H817 C822 0.949 . S
H818 C824 0.950 . S
H819 C825 0.950 . S
H820 C826 0.949 . S
C821 H816 0.950 . S
C821 C823 1.327 . S
C821 C827 1.429 . S
C822 C814 1.574 1_655 S
C822 H817 0.949 . S
C822 C828 1.350 1_545 S
C823 C807 1.349 . S
C823 H815 0.950 . S
C823 C821 1.327 . S
C824 C812 1.349 . S
C824 H818 0.950 . S
C824 C825 1.327 . S
C825 H819 0.950 . S
C825 C824 1.327 . S
C825 C829 1.429 . S
C826 C809 1.574 1_455 S
C826 H820 0.949 . S
C826 C830 1.350 1_565 S
C827 C808 1.429 1_565 S
C827 C821 1.429 . S
C827 C828 1.527 . S
C828 C809 1.387 . S
C828 C822 1.350 1_565 S
C828 C827 1.527 . S
C829 C813 1.429 1_545 S
C829 C825 1.429 . S
C829 C830 1.527 . S
C830 C814 1.387 . S
C830 C826 1.350 1_545 S
C830 C829 1.527 . S
H831 C806 0.950 . S
H832 C808 0.950 . S
H833 C809 0.949 . S
H834 C811 0.950 . S
H835 C813 0.950 . S
C836 C837 1.349 . S
C836 C838 1.327 . S
C836 H861 0.950 . S
C837 C836 1.349 . S
C837 C853 1.349 1_565 S
C838 C836 1.327 . S
C838 C857 1.429 . S
C838 H862 0.950 . S
C839 C856 1.574 . S
C839 C858 1.323 1_545 S
C839 H863 0.949 . S
H840 C844 0.949 . S
C841 C842 1.349 . S
C841 C843 1.327 . S
C841 H864 0.950 . S
C842 C841 1.349 . S
C842 C854 1.349 1_545 S
C843 C841 1.327 . S
C843 C859 1.429 . S
C843 H865 0.950 . S
C844 H840 0.949 . S
C844 C852 1.574 . S
C844 C860 1.322 1_565 S
H845 C853 0.950 . S
H846 C851 0.950 . S
H847 C852 0.949 . S
H848 C854 0.950 . S
H849 C855 0.950 . S
H850 C856 0.949 . S
C851 H846 0.950 . S
C851 C853 1.327 . S
C851 C857 1.429 1_545 S
C852 C844 1.574 . S
C852 H847 0.949 . S
C852 C858 1.413 . S
C853 C837 1.349 1_545 S
C853 H845 0.950 . S
C853 C851 1.327 . S
C854 C842 1.349 1_565 S
C854 H848 0.950 . S
C854 C855 1.327 . S
C855 H849 0.950 . S
C855 C854 1.327 . S
C855 C859 1.429 1_565 S
C856 C839 1.574 . S
C856 H850 0.949 . S
C856 C860 1.413 . S
C857 C838 1.429 . S
C857 C851 1.429 1_565 S
C857 C858 1.527 . S
C858 C839 1.323 1_565 S
C858 C852 1.413 . S
C858 C857 1.527 . S
C859 C843 1.429 . S
C859 C855 1.429 1_545 S
C859 C860 1.527 . S
C860 C844 1.322 1_545 S
C860 C856 1.413 . S
C860 C859 1.527 . S
H861 C836 0.950 . S
H862 C838 0.950 . S
H863 C839 0.949 . S
H864 C841 0.950 . S
H865 C843 0.950 . S
C866 C867 1.349 1_545 S
C866 C868 1.327 . S
C866 H891 0.950 . S
C867 C866 1.349 1_565 S
C867 C883 1.349 . S
C868 C866 1.327 . S
C868 C887 1.429 1_545 S
C868 H892 0.950 . S
C869 C886 1.574 1_455 S
C869 C888 1.416 . S
C869 H893 0.949 . S
H870 C874 0.949 . S
C871 C872 1.349 1_565 S
C871 C873 1.327 . S
C871 H894 0.950 . S
C872 C871 1.349 1_545 S
C872 C884 1.349 . S
C873 C871 1.327 . S
C873 C889 1.429 1_565 S
C873 H895 0.950 . S
C874 H870 0.949 . S
C874 C882 1.574 1_655 S
C874 C890 1.415 . S
H875 C883 0.950 . S
H876 C881 0.950 . S
H877 C882 0.949 . S
H878 C884 0.950 . S
H879 C885 0.950 . S
H880 C886 0.949 . S
C881 H876 0.950 . S
C881 C883 1.327 . S
C881 C887 1.429 . S
C882 C874 1.574 1_455 S
C882 H877 0.949 . S
C882 C888 1.319 1_545 S
C883 C867 1.349 . S
C883 H875 0.950 . S
C883 C881 1.327 . S
C884 C872 1.349 . S
C884 H878 0.950 . S
C884 C885 1.327 . S
C885 H879 0.950 . S
C885 C884 1.327 . S
C885 C889 1.429 . S
C886 C869 1.574 1_655 S
C886 H880 0.949 . S
C886 C890 1.320 1_565 S
C887 C868 1.429 1_565 S
C887 C881 1.429 . S
C887 C888 1.527 . S
C888 C869 1.416 . S
C888 C882 1.319 1_565 S
C888 C887 1.527 . S
C889 C873 1.429 1_545 S
C889 C885 1.429 . S
C889 C890 1.526 . S
C890 C874 1.415 . S
C890 C886 1.320 1_545 S
C890 C889 1.526 . S
H891 C866 0.950 . S
H892 C868 0.950 . S
H893 C869 0.949 . S
H894 C871 0.950 . S
H895 C873 0.950 . S
C896 C897 1.349 . S
C896 C898 1.327 . S
C896 H921 0.950 . S
C897 C896 1.349 . S
C897 C913 1.349 . S
C898 C896 1.327 . S
C898 C917 1.429 . S
C898 H922 0.950 . S
C899 C916 1.574 . S
C899 C918 1.368 . S
C899 H923 0.949 . S
H900 C904 0.949 . S
C901 C902 1.349 . S
C901 C903 1.327 . S
C901 H924 0.950 . S
C902 C901 1.349 . S
C902 C914 1.349 . S
C903 C901 1.327 . S
C903 C919 1.429 . S
C903 H925 0.950 . S
C904 H900 0.949 . S
C904 C912 1.574 . S
C904 C920 1.368 . S
H905 C913 0.950 . S
H906 C911 0.950 . S
H907 C912 0.949 . S
H908 C914 0.950 . S
H909 C915 0.950 . S
H910 C916 0.949 . S
C911 H906 0.950 . S
C911 C913 1.327 . S
C911 C917 1.429 . S
C912 C904 1.574 . S
C912 H907 0.949 . S
C912 C918 1.368 . S
C913 C897 1.349 . S
C913 H905 0.950 . S
C913 C911 1.327 . S
C914 C902 1.349 . S
C914 H908 0.950 . S
C914 C915 1.327 . S
C915 H909 0.950 . S
C915 C914 1.327 . S
C915 C919 1.429 . S
C916 C899 1.574 . S
C916 H910 0.949 . S
C916 C920 1.368 . S
C917 C898 1.429 . S
C917 C911 1.429 . S
C917 C918 1.523 . S
C918 C899 1.368 . S
C918 C912 1.368 . S
C918 C917 1.523 . S
C919 C903 1.429 . S
C919 C915 1.429 . S
C919 C920 1.523 . S
C920 C904 1.368 . S
C920 C916 1.368 . S
C920 C919 1.523 . S
H921 C896 0.950 . S
H922 C898 0.950 . S
H923 C899 0.949 . S
H924 C901 0.950 . S
H925 C903 0.950 . S
C926 C927 1.349 . S
C926 C928 1.327 . S
C926 H951 0.950 . S
C927 C926 1.349 . S
C927 C943 1.349 . S
C928 C926 1.327 . S
C928 C947 1.429 . S
C928 H952 0.950 . S
C929 C946 1.574 . S
C929 C948 1.368 . S
C929 H953 0.949 . S
H930 C934 0.949 . S
C931 C932 1.349 . S
C931 C933 1.327 . S
C931 H954 0.950 . S
C932 C931 1.349 . S
C932 C944 1.349 . S
C933 C931 1.327 . S
C933 C949 1.429 . S
C933 H955 0.950 . S
C934 H930 0.949 . S
C934 C942 1.574 . S
C934 C950 1.368 . S
H935 C943 0.950 . S
H936 C941 0.950 . S
H937 C942 0.949 . S
H938 C944 0.950 . S
H939 C945 0.950 . S
H940 C946 0.949 . S
C941 H936 0.950 . S
C941 C943 1.327 . S
C941 C947 1.429 . S
C942 C934 1.574 . S
C942 H937 0.949 . S
C942 C948 1.368 . S
C943 C927 1.349 . S
C943 H935 0.950 . S
C943 C941 1.327 . S
C944 C932 1.349 . S
C944 H938 0.950 . S
C944 C945 1.327 . S
C945 H939 0.950 . S
C945 C944 1.327 . S
C945 C949 1.429 . S
C946 C929 1.574 . S
C946 H940 0.949 . S
C946 C950 1.368 . S
C947 C928 1.429 . S
C947 C941 1.429 . S
C947 C948 1.523 1_556 S
C948 C929 1.368 . S
C948 C942 1.368 . S
C948 C947 1.523 1_554 S
C949 C933 1.429 . S
C949 C945 1.429 . S
C949 C950 1.523 . S
C950 C934 1.368 . S
C950 C946 1.368 . S
C950 C949 1.523 . S
H951 C926 0.950 . S
H952 C928 0.950 . S
H953 C929 0.949 . S
H954 C931 0.950 . S
H955 C933 0.950 . S
C956 C957 1.349 . S
C956 C958 1.327 . S
C956 H981 0.950 . S
C957 C956 1.349 . S
C957 C973 1.349 . S
C958 C956 1.327 . S
C958 C977 1.429 . S
C958 H982 0.950 . S
C959 C976 1.574 . S
C959 C978 1.368 . S
C959 H983 0.949 . S
H960 C964 0.949 . S
C961 C962 1.349 . S
C961 C963 1.327 . S
C961 H984 0.950 . S
C962 C961 1.349 . S
C962 C974 1.349 . S
C963 C961 1.327 . S
C963 C979 1.429 . S
C963 H985 0.950 . S
C964 H960 0.949 . S
C964 C972 1.574 . S
C964 C980 1.368 . S
H965 C973 0.950 . S
H966 C971 0.950 . S
H967 C972 0.949 . S
H968 C974 0.950 . S
H969 C975 0.950 . S
H970 C976 0.949 . S
C971 H966 0.950 . S
C971 C973 1.327 . S
C971 C977 1.429 . S
C972 C964 1.574 . S
C972 H967 0.949 . S
C972 C978 1.368 . S
C973 C957 1.349 . S
C973 H965 0.950 . S
C973 C971 1.327 . S
C974 C962 1.349 . S
C974 H968 0.950 . S
C974 C975 1.327 . S
C975 H969 0.950 . S
C975 C974 1.327 . S
C975 C979 1.429 . S
C976 C959 1.574 . S
C976 H970 0.949 . S
C976 C980 1.368 . S
C977 C958 1.429 . S
C977 C971 1.429 . S
C977 C978 1.523 . S
C978 C959 1.368 . S
C978 C972 1.368 . S
C978 C977 1.523 . S
C979 C963 1.429 . S
C979 C975 1.429 . S
C979 C980 1.523 . S
C980 C964 1.368 . S
C980 C976 1.368 . S
C980 C979 1.523 . S
H981 C956 0.950 . S
H982 C958 0.950 . S
H983 C959 0.949 . S
H984 C961 0.950 . S
H985 C963 0.950 . S
C986 C987 1.349 . S
C986 C988 1.327 . S
C986 H1011 0.950 . S
C987 C986 1.349 . S
C987 C1003 1.349 . S
C988 C986 1.327 . S
C988 C1007 1.429 . S
C988 H1012 0.950 . S
C989 C1006 1.574 . S
C989 C1008 1.368 . S
C989 H1013 0.949 . S
H990 C994 0.949 . S
C991 C992 1.349 . S
C991 C993 1.327 . S
C991 H1014 0.950 . S
C992 C991 1.349 . S
C992 C1004 1.349 . S
C993 C991 1.327 . S
C993 C1009 1.429 . S
C993 H1015 0.950 . S
C994 H990 0.949 . S
C994 C1002 1.574 . S
C994 C1010 1.368 . S
H995 C1003 0.950 . S
H996 C1001 0.950 . S
H997 C1002 0.949 . S
H998 C1004 0.950 . S
H999 C1005 0.950 . S
H1000 C1006 0.949 . S
C1001 H996 0.950 . S
C1001 C1003 1.327 . S
C1001 C1007 1.429 . S
C1002 C994 1.574 . S
C1002 H997 0.949 . S
C1002 C1008 1.368 . S
C1003 C987 1.349 . S
C1003 H995 0.950 . S
C1003 C1001 1.327 . S
C1004 C992 1.349 . S
C1004 H998 0.950 . S
C1004 C1005 1.327 . S
C1005 H999 0.950 . S
C1005 C1004 1.327 . S
C1005 C1009 1.429 . S
C1006 C989 1.574 . S
C1006 H1000 0.949 . S
C1006 C1010 1.368 . S
C1007 C988 1.429 . S
C1007 C1001 1.429 . S
C1007 C1008 1.523 . S
C1008 C989 1.368 . S
C1008 C1002 1.368 . S
C1008 C1007 1.523 . S
C1009 C993 1.429 . S
C1009 C1005 1.429 . S
C1009 C1010 1.523 . S
C1010 C994 1.368 . S
C1010 C1006 1.368 . S
C1010 C1009 1.523 . S
H1011 C986 0.950 . S
H1012 C988 0.950 . S
H1013 C989 0.949 . S
H1014 C991 0.950 . S
H1015 C993 0.950 . S
C1016 C1017 1.349 . S
C1016 C1018 1.327 . S
C1016 H1041 0.950 . S
C1017 C1016 1.349 . S
C1017 C1033 1.349 . S
C1018 C1016 1.327 . S
C1018 C1037 1.429 . S
C1018 H1042 0.950 . S
C1019 C1036 1.574 . S
C1019 C1038 1.368 . S
C1019 H1043 0.949 . S
H1020 C1024 0.949 . S
C1021 C1022 1.349 . S
C1021 C1023 1.327 . S
C1021 H1044 0.950 . S
C1022 C1021 1.349 . S
C1022 C1034 1.349 . S
C1023 C1021 1.327 . S
C1023 C1039 1.429 . S
C1023 H1045 0.950 . S
C1024 H1020 0.949 . S
C1024 C1032 1.574 . S
C1024 C1040 1.368 . S
H1025 C1033 0.950 . S
H1026 C1031 0.950 . S
H1027 C1032 0.949 . S
H1028 C1034 0.950 . S
H1029 C1035 0.950 . S
H1030 C1036 0.949 . S
C1031 H1026 0.950 . S
C1031 C1033 1.327 . S
C1031 C1037 1.429 . S
C1032 C1024 1.574 . S
C1032 H1027 0.949 . S
C1032 C1038 1.368 . S
C1033 C1017 1.349 . S
C1033 H1025 0.950 . S
C1033 C1031 1.327 . S
C1034 C1022 1.349 . S
C1034 H1028 0.950 . S
C1034 C1035 1.327 . S
C1035 H1029 0.950 . S
C1035 C1034 1.327 . S
C1035 C1039 1.429 . S
C1036 C1019 1.574 . S
C1036 H1030 0.949 . S
C1036 C1040 1.368 . S
C1037 C1018 1.429 . S
C1037 C1031 1.429 . S
C1037 C1038 1.523 . S
C1038 C1019 1.368 . S
C1038 C1032 1.368 . S
C1038 C1037 1.523 . S
C1039 C1023 1.429 . S
C1039 C1035 1.429 . S
C1039 C1040 1.523 . S
C1040 C1024 1.368 . S
C1040 C1036 1.368 . S
C1040 C1039 1.523 . S
H1041 C1016 0.950 . S
H1042 C1018 0.950 . S
H1043 C1019 0.949 . S
H1044 C1021 0.950 . S
H1045 C1023 0.950 . S
C1046 C1047 1.349 . S
C1046 C1048 1.327 . S
C1046 H1071 0.950 . S
C1047 C1046 1.349 . S
C1047 C1063 1.349 . S
C1048 C1046 1.327 . S
C1048 C1067 1.429 . S
C1048 H1072 0.950 . S
C1049 C1066 1.574 . S
C1049 C1068 1.368 . S
C1049 H1073 0.949 . S
H1050 C1054 0.949 . S
C1051 C1052 1.349 . S
C1051 C1053 1.327 . S
C1051 H1074 0.950 . S
C1052 C1051 1.349 . S
C1052 C1064 1.349 . S
C1053 C1051 1.327 . S
C1053 C1069 1.429 . S
C1053 H1075 0.950 . S
C1054 H1050 0.949 . S
C1054 C1062 1.574 . S
C1054 C1070 1.368 . S
H1055 C1063 0.950 . S
H1056 C1061 0.950 . S
H1057 C1062 0.949 . S
H1058 C1064 0.950 . S
H1059 C1065 0.950 . S
H1060 C1066 0.949 . S
C1061 H1056 0.950 . S
C1061 C1063 1.327 . S
C1061 C1067 1.429 . S
C1062 C1054 1.574 . S
C1062 H1057 0.949 . S
C1062 C1068 1.368 . S
C1063 C1047 1.349 . S
C1063 H1055 0.950 . S
C1063 C1061 1.327 . S
C1064 C1052 1.349 . S
C1064 H1058 0.950 . S
C1064 C1065 1.327 . S
C1065 H1059 0.950 . S
C1065 C1064 1.327 . S
C1065 C1069 1.429 . S
C1066 C1049 1.574 . S
C1066 H1060 0.949 . S
C1066 C1070 1.368 . S
C1067 C1048 1.429 . S
C1067 C1061 1.429 . S
C1067 C1068 1.523 1_556 S
C1068 C1049 1.368 . S
C1068 C1062 1.368 . S
C1068 C1067 1.523 1_554 S
C1069 C1053 1.429 . S
C1069 C1065 1.429 . S
C1069 C1070 1.523 . S
C1070 C1054 1.368 . S
C1070 C1066 1.368 . S
C1070 C1069 1.523 . S
H1071 C1046 0.950 . S
H1072 C1048 0.950 . S
H1073 C1049 0.949 . S
H1074 C1051 0.950 . S
H1075 C1053 0.950 . S
C1076 C1077 1.349 . S
C1076 C1078 1.327 . S
C1076 H1101 0.950 . S
C1077 C1076 1.349 . S
C1077 C1093 1.349 . S
C1078 C1076 1.327 . S
C1078 C1097 1.429 . S
C1078 H1102 0.950 . S
C1079 C1096 1.574 . S
C1079 C1098 1.368 . S
C1079 H1103 0.949 . S
H1080 C1084 0.949 . S
C1081 C1082 1.349 . S
C1081 C1083 1.327 . S
C1081 H1104 0.950 . S
C1082 C1081 1.349 . S
C1082 C1094 1.349 . S
C1083 C1081 1.327 . S
C1083 C1099 1.429 . S
C1083 H1105 0.950 . S
C1084 H1080 0.949 . S
C1084 C1092 1.574 . S
C1084 C1100 1.368 . S
H1085 C1093 0.950 . S
H1086 C1091 0.950 . S
H1087 C1092 0.949 . S
H1088 C1094 0.950 . S
H1089 C1095 0.950 . S
H1090 C1096 0.949 . S
C1091 H1086 0.950 . S
C1091 C1093 1.327 . S
C1091 C1097 1.429 . S
C1092 C1084 1.574 . S
C1092 H1087 0.949 . S
C1092 C1098 1.368 . S
C1093 C1077 1.349 . S
C1093 H1085 0.950 . S
C1093 C1091 1.327 . S
C1094 C1082 1.349 . S
C1094 H1088 0.950 . S
C1094 C1095 1.327 . S
C1095 H1089 0.950 . S
C1095 C1094 1.327 . S
C1095 C1099 1.429 . S
C1096 C1079 1.574 . S
C1096 H1090 0.949 . S
C1096 C1100 1.368 . S
C1097 C1078 1.429 . S
C1097 C1091 1.429 . S
C1097 C1098 1.523 . S
C1098 C1079 1.368 . S
C1098 C1092 1.368 . S
C1098 C1097 1.523 . S
C1099 C1083 1.429 . S
C1099 C1095 1.429 . S
C1099 C1100 1.523 . S
C1100 C1084 1.368 . S
C1100 C1096 1.368 . S
C1100 C1099 1.523 . S
H1101 C1076 0.950 . S
H1102 C1078 0.950 . S
H1103 C1079 0.949 . S
H1104 C1081 0.950 . S
H1105 C1083 0.950 . S
C1106 C1107 1.349 . S
C1106 C1108 1.327 . S
C1106 H1131 0.950 . S
C1107 C1106 1.349 . S
C1107 C1123 1.349 . S
C1108 C1106 1.327 . S
C1108 C1127 1.429 . S
C1108 H1132 0.950 . S
C1109 C1126 1.574 . S
C1109 C1128 1.368 . S
C1109 H1133 0.949 . S
H1110 C1114 0.949 . S
C1111 C1112 1.349 . S
C1111 C1113 1.327 . S
C1111 H1134 0.950 . S
C1112 C1111 1.349 . S
C1112 C1124 1.349 . S
C1113 C1111 1.327 . S
C1113 C1129 1.429 . S
C1113 H1135 0.950 . S
C1114 H1110 0.949 . S
C1114 C1122 1.574 . S
C1114 C1130 1.368 . S
H1115 C1123 0.950 . S
H1116 C1121 0.950 . S
H1117 C1122 0.949 . S
H1118 C1124 0.950 . S
H1119 C1125 0.950 . S
H1120 C1126 0.949 . S
C1121 H1116 0.950 . S
C1121 C1123 1.327 . S
C1121 C1127 1.429 . S
C1122 C1114 1.574 . S
C1122 H1117 0.949 . S
C1122 C1128 1.368 . S
C1123 C1107 1.349 . S
C1123 H1115 0.950 . S
C1123 C1121 1.327 . S
C1124 C1112 1.349 . S
C1124 H1118 0.950 . S
C1124 C1125 1.327 . S
C1125 H1119 0.950 . S
C1125 C1124 1.327 . S
C1125 C1129 1.429 . S
C1126 C1109 1.574 . S
C1126 H1120 0.949 . S
C1126 C1130 1.368 . S
C1127 C1108 1.429 . S
C1127 C1121 1.429 . S
C1127 C1128 1.523 . S
C1128 C1109 1.368 . S
C1128 C1122 1.368 . S
C1128 C1127 1.523 . S
C1129 C1113 1.429 . S
C1129 C1125 1.429 . S
C1129 C1130 1.523 . S
C1130 C1114 1.368 . S
C1130 C1126 1.368 . S
C1130 C1129 1.523 . S
H1131 C1106 0.950 . S
H1132 C1108 0.950 . S
H1133 C1109 0.949 . S
H1134 C1111 0.950 . S
H1135 C1113 0.950 . S
C1136 C1137 1.344 . S
C1136 C1138 1.328 1_545 S
C1136 H1161 0.953 1_545 S
C1137 C1136 1.344 . S
C1137 C1153 1.349 . S
C1138 C1136 1.328 1_565 S
C1138 C1157 1.429 1_565 S
C1138 H1162 0.950 . S
C1139 C1156 1.574 . S
C1139 C1158 1.368 . S
C1139 H1163 0.949 . S
H1140 C1144 0.949 . S
C1141 C1142 1.345 . S
C1141 C1143 1.328 1_565 S
C1141 H1164 0.952 1_565 S
C1142 C1141 1.345 . S
C1142 C1154 1.349 . S
C1143 C1141 1.328 1_545 S
C1143 C1159 1.429 1_545 S
C1143 H1165 0.950 . S
C1144 H1140 0.949 . S
C1144 C1152 1.574 . S
C1144 C1160 1.368 . S
H1145 C1153 0.950 . S
H1146 C1151 0.950 . S
H1147 C1152 0.949 . S
H1148 C1154 0.950 . S
H1149 C1155 0.950 . S
H1150 C1156 0.949 . S
C1151 H1146 0.950 . S
C1151 C1153 1.327 . S
C1151 C1157 1.429 . S
C1152 C1144 1.574 . S
C1152 H1147 0.949 . S
C1152 C1158 1.368 1_565 S
C1153 C1137 1.349 . S
C1153 H1145 0.950 . S
C1153 C1151 1.327 . S
C1154 C1142 1.349 . S
C1154 H1148 0.950 . S
C1154 C1155 1.327 . S
C1155 H1149 0.950 . S
C1155 C1154 1.327 . S
C1155 C1159 1.429 . S
C1156 C1139 1.574 . S
C1156 H1150 0.949 . S
C1156 C1160 1.368 1_545 S
C1157 C1138 1.429 1_545 S
C1157 C1151 1.429 . S
C1157 C1158 1.523 . S
C1158 C1139 1.368 . S
C1158 C1152 1.368 1_545 S
C1158 C1157 1.523 . S
C1159 C1143 1.429 1_565 S
C1159 C1155 1.429 . S
C1159 C1160 1.523 . S
C1160 C1144 1.368 . S
C1160 C1156 1.368 1_565 S
C1160 C1159 1.523 . S
H1161 C1136 0.953 1_565 S
H1162 C1138 0.950 . S
H1163 C1139 0.949 . S
H1164 C1141 0.952 1_545 S
H1165 C1143 0.950 . S
C1166 C1167 1.349 . S
C1166 C1168 1.327 . S
C1166 H1191 0.950 . S
C1167 C1166 1.349 . S
C1167 C1183 1.349 . S
C1168 C1166 1.327 . S
C1168 C1187 1.429 . S
C1168 H1192 0.950 . S
C1169 C1186 1.574 . S
C1169 C1188 1.368 . S
C1169 H1193 0.949 . S
H1170 C1174 0.949 . S
C1171 C1172 1.349 . S
C1171 C1173 1.327 . S
C1171 H1194 0.950 . S
C1172 C1171 1.349 . S
C1172 C1184 1.349 . S
C1173 C1171 1.327 . S
C1173 C1189 1.429 . S
C1173 H1195 0.950 . S
C1174 H1170 0.949 . S
C1174 C1182 1.574 . S
C1174 C1190 1.368 . S
H1175 C1183 0.950 . S
H1176 C1181 0.950 . S
H1177 C1182 0.949 . S
H1178 C1184 0.950 . S
H1179 C1185 0.950 . S
H1180 C1186 0.949 . S
C1181 H1176 0.950 . S
C1181 C1183 1.327 . S
C1181 C1187 1.429 . S
C1182 C1174 1.574 . S
C1182 H1177 0.949 . S
C1182 C1188 1.368 . S
C1183 C1167 1.349 . S
C1183 H1175 0.950 . S
C1183 C1181 1.327 . S
C1184 C1172 1.349 . S
C1184 H1178 0.950 . S
C1184 C1185 1.327 . S
C1185 H1179 0.950 . S
C1185 C1184 1.327 . S
C1185 C1189 1.429 . S
C1186 C1169 1.574 . S
C1186 H1180 0.949 . S
C1186 C1190 1.368 . S
C1187 C1168 1.429 . S
C1187 C1181 1.429 . S
C1187 C1188 1.523 . S
C1188 C1169 1.368 . S
C1188 C1182 1.368 . S
C1188 C1187 1.523 . S
C1189 C1173 1.429 . S
C1189 C1185 1.429 . S
C1189 C1190 1.523 . S
C1190 C1174 1.368 . S
C1190 C1186 1.368 . S
C1190 C1189 1.523 . S
H1191 C1166 0.950 . S
H1192 C1168 0.950 . S
H1193 C1169 0.949 . S
H1194 C1171 0.950 . S
H1195 C1173 0.950 . S
C1196 C1197 1.335 1_565 S
C1196 C1198 1.331 . S
C1196 H1221 0.961 . S
C1197 C1196 1.335 1_545 S
C1197 C1213 1.349 . S
C1198 C1196 1.331 . S
C1198 C1217 1.429 1_565 S
C1198 H1222 0.950 . S
C1199 C1216 1.574 . S
C1199 C1218 1.368 . S
C1199 H1223 0.949 . S
H1200 C1204 0.949 . S
C1201 C1202 1.338 1_545 S
C1201 C1203 1.330 . S
C1201 H1224 0.958 . S
C1202 C1201 1.338 1_565 S
C1202 C1214 1.349 . S
C1203 C1201 1.330 . S
C1203 C1219 1.429 1_545 S
C1203 H1225 0.950 . S
C1204 H1200 0.949 . S
C1204 C1212 1.574 . S
C1204 C1220 1.368 . S
H1205 C1213 0.950 . S
H1206 C1211 0.950 . S
H1207 C1212 0.949 . S
H1208 C1214 0.950 . S
H1209 C1215 0.950 . S
H1210 C1216 0.949 . S
C1211 H1206 0.950 . S
C1211 C1213 1.327 . S
C1211 C1217 1.429 . S
C1212 C1204 1.574 . S
C1212 H1207 0.949 . S
C1212 C1218 1.368 1_565 S
C1213 C1197 1.349 . S
C1213 H1205 0.950 . S
C1213 C1211 1.327 . S
C1214 C1202 1.349 . S
C1214 H1208 0.950 . S
C1214 C1215 1.327 . S
C1215 H1209 0.950 . S
C1215 C1214 1.327 . S
C1215 C1219 1.429 . S
C1216 C1199 1.574 . S
C1216 H1210 0.949 . S
C1216 C1220 1.368 1_545 S
C1217 C1198 1.429 1_545 S
C1217 C1211 1.429 . S
C1217 C1218 1.523 . S
C1218 C1199 1.368 . S
C1218 C1212 1.368 1_545 S
C1218 C1217 1.523 . S
C1219 C1203 1.429 1_565 S
C1219 C1215 1.429 . S
C1219 C1220 1.523 . S
C1220 C1204 1.368 . S
C1220 C1216 1.368 1_565 S
C1220 C1219 1.523 . S
H1221 C1196 0.961 . S
H1222 C1198 0.950 . S
H1223 C1199 0.949 . S
H1224 C1201 0.958 . S
H1225 C1203 0.950 . S
C1226 C1227 1.349 . S
C1226 C1228 1.327 . S
C1226 H1251 0.950 . S
C1227 C1226 1.349 . S
C1227 C1243 1.349 . S
C1228 C1226 1.327 . S
C1228 C1247 1.429 . S
C1228 H1252 0.950 . S
C1229 C1246 1.574 . S
C1229 C1248 1.368 . S
C1229 H1253 0.949 . S
H1230 C1234 0.949 . S
C1231 C1232 1.349 . S
C1231 C1233 1.327 . S
C1231 H1254 0.950 . S
C1232 C1231 1.349 . S
C1232 C1244 1.349 . S
C1233 C1231 1.327 . S
C1233 C1249 1.429 . S
C1233 H1255 0.950 . S
C1234 H1230 0.949 . S
C1234 C1242 1.574 . S
C1234 C1250 1.368 . S
H1235 C1243 0.950 . S
H1236 C1241 0.950 . S
H1237 C1242 0.949 . S
H1238 C1244 0.950 . S
H1239 C1245 0.950 . S
H1240 C1246 0.949 . S
C1241 H1236 0.950 . S
C1241 C1243 1.327 . S
C1241 C1247 1.429 . S
C1242 C1234 1.574 . S
C1242 H1237 0.949 . S
C1242 C1248 1.368 . S
C1243 C1227 1.349 . S
C1243 H1235 0.950 . S
C1243 C1241 1.327 . S
C1244 C1232 1.349 . S
C1244 H1238 0.950 . S
C1244 C1245 1.327 . S
C1245 H1239 0.950 . S
C1245 C1244 1.327 . S
C1245 C1249 1.429 . S
C1246 C1229 1.574 . S
C1246 H1240 0.949 . S
C1246 C1250 1.368 . S
C1247 C1228 1.429 . S
C1247 C1241 1.429 . S
C1247 C1248 1.523 1_556 S
C1248 C1229 1.368 . S
C1248 C1242 1.368 . S
C1248 C1247 1.523 1_554 S
C1249 C1233 1.429 . S
C1249 C1245 1.429 . S
C1249 C1250 1.523 . S
C1250 C1234 1.368 . S
C1250 C1246 1.368 . S
C1250 C1249 1.523 . S
H1251 C1226 0.950 . S
H1252 C1228 0.950 . S
H1253 C1229 0.949 . S
H1254 C1231 0.950 . S
H1255 C1233 0.950 . S
C1256 C1257 1.349 . S
C1256 C1258 1.327 1_565 S
C1256 H1281 0.950 1_565 S
C1257 C1256 1.349 . S
C1257 C1273 1.349 . S
C1258 C1256 1.327 1_545 S
C1258 C1277 1.429 1_545 S
C1258 H1282 0.950 . S
C1259 C1276 1.574 . S
C1259 C1278 1.368 . S
C1259 H1283 0.949 . S
H1260 C1264 0.949 . S
C1261 C1262 1.349 . S
C1261 C1263 1.327 1_545 S
C1261 H1284 0.950 1_545 S
C1262 C1261 1.349 . S
C1262 C1274 1.349 . S
C1263 C1261 1.327 1_565 S
C1263 C1279 1.429 1_565 S
C1263 H1285 0.950 . S
C1264 H1260 0.949 . S
C1264 C1272 1.574 . S
C1264 C1280 1.368 . S
H1265 C1273 0.950 . S
H1266 C1271 0.950 . S
H1267 C1272 0.949 . S
H1268 C1274 0.950 . S
H1269 C1275 0.950 . S
H1270 C1276 0.949 . S
C1271 H1266 0.950 . S
C1271 C1273 1.327 . S
C1271 C1277 1.429 . S
C1272 C1264 1.574 . S
C1272 H1267 0.949 . S
C1272 C1278 1.368 1_545 S
C1273 C1257 1.349 . S
C1273 H1265 0.950 . S
C1273 C1271 1.327 . S
C1274 C1262 1.349 . S
C1274 H1268 0.950 . S
C1274 C1275 1.327 . S
C1275 H1269 0.950 . S
C1275 C1274 1.327 . S
C1275 C1279 1.429 . S
C1276 C1259 1.574 . S
C1276 H1270 0.949 . S
C1276 C1280 1.368 1_565 S
C1277 C1258 1.429 1_565 S
C1277 C1271 1.429 . S
C1277 C1278 1.523 . S
C1278 C1259 1.368 . S
C1278 C1272 1.368 1_565 S
C1278 C1277 1.523 . S
C1279 C1263 1.429 1_545 S
C1279 C1275 1.429 . S
C1279 C1280 1.523 . S
C1280 C1264 1.368 . S
C1280 C1276 1.368 1_545 S
C1280 C1279 1.523 . S
H1281 C1256 0.950 1_545 S
H1282 C1258 0.950 . S
H1283 C1259 0.949 . S
H1284 C1261 0.950 1_565 S
H1285 C1263 0.950 . S
C1286 C1287 1.349 . S
C1286 C1288 1.327 . S
C1286 H1311 0.950 . S
C1287 C1286 1.349 . S
C1287 C1303 1.349 . S
C1288 C1286 1.327 . S
C1288 C1307 1.429 . S
C1288 H1312 0.950 . S
C1289 C1306 1.574 . S
C1289 C1308 1.368 . S
C1289 H1313 0.949 . S
H1290 C1294 0.949 . S
C1291 C1292 1.349 . S
C1291 C1293 1.327 . S
C1291 H1314 0.950 . S
C1292 C1291 1.349 . S
C1292 C1304 1.349 . S
C1293 C1291 1.327 . S
C1293 C1309 1.429 . S
C1293 H1315 0.950 . S
C1294 H1290 0.949 . S
C1294 C1302 1.574 . S
C1294 C1310 1.368 . S
H1295 C1303 0.950 . S
H1296 C1301 0.950 . S
H1297 C1302 0.949 . S
H1298 C1304 0.950 . S
H1299 C1305 0.950 . S
H1300 C1306 0.949 . S
C1301 H1296 0.950 . S
C1301 C1303 1.327 . S
C1301 C1307 1.429 . S
C1302 C1294 1.574 . S
C1302 H1297 0.949 . S
C1302 C1308 1.368 . S
C1303 C1287 1.349 . S
C1303 H1295 0.950 . S
C1303 C1301 1.327 . S
C1304 C1292 1.349 . S
C1304 H1298 0.950 . S
C1304 C1305 1.327 . S
C1305 H1299 0.950 . S
C1305 C1304 1.327 . S
C1305 C1309 1.429 . S
C1306 C1289 1.574 . S
C1306 H1300 0.949 . S
C1306 C1310 1.368 . S
C1307 C1288 1.429 . S
C1307 C1301 1.429 . S
C1307 C1308 1.523 . S
C1308 C1289 1.368 . S
C1308 C1302 1.368 . S
C1308 C1307 1.523 . S
C1309 C1293 1.429 . S
C1309 C1305 1.429 . S
C1309 C1310 1.523 . S
C1310 C1294 1.368 . S
C1310 C1306 1.368 . S
C1310 C1309 1.523 . S
H1311 C1286 0.950 . S
H1312 C1288 0.950 . S
H1313 C1289 0.949 . S
H1314 C1291 0.950 . S
H1315 C1293 0.950 . S
C1316 C1317 1.265 1_565 S
C1316 C1318 1.350 . S
C1316 H1341 1.016 . S
C1317 C1316 1.265 1_545 S
C1317 C1333 1.349 . S
C1318 C1316 1.350 . S
C1318 C1337 1.429 1_565 S
C1318 H1342 0.950 . S
C1319 C1336 1.574 . S
C1319 C1338 1.368 . S
C1319 H1343 0.949 . S
H1320 C1324 0.949 . S
C1321 C1322 1.264 1_545 S
C1321 C1323 1.351 . S
C1321 H1344 1.017 . S
C1322 C1321 1.264 1_565 S
C1322 C1334 1.349 . S
C1323 C1321 1.351 . S
C1323 C1339 1.429 1_545 S
C1323 H1345 0.950 . S
C1324 H1320 0.949 . S
C1324 C1332 1.574 . S
C1324 C1340 1.368 . S
H1325 C1333 0.950 . S
H1326 C1331 0.950 . S
H1327 C1332 0.949 . S
H1328 C1334 0.950 . S
H1329 C1335 0.950 . S
H1330 C1336 0.949 . S
C1331 H1326 0.950 . S
C1331 C1333 1.327 . S
C1331 C1337 1.429 . S
C1332 C1324 1.574 . S
C1332 H1327 0.949 . S
C1332 C1338 1.368 1_565 S
C1333 C1317 1.349 . S
C1333 H1325 0.950 . S
C1333 C1331 1.327 . S
C1334 C1322 1.349 . S
C1334 H1328 0.950 . S
C1334 C1335 1.327 . S
C1335 H1329 0.950 . S
C1335 C1334 1.327 . S
C1335 C1339 1.429 . S
C1336 C1319 1.574 . S
C1336 H1330 0.949 . S
C1336 C1340 1.368 1_545 S
C1337 C1318 1.429 1_545 S
C1337 C1331 1.429 . S
C1337 C1338 1.523 . S
C1338 C1319 1.368 . S
C1338 C1332 1.368 1_545 S
C1338 C1337 1.523 . S
C1339 C1323 1.429 1_565 S
C1339 C1335 1.429 . S
C1339 C1340 1.523 . S
C1340 C1324 1.368 . S
C1340 C1336 1.368 1_565 S
C1340 C1339 1.523 . S
H1341 C1316 1.016 . S
H1342 C1318 0.950 . S
H1343 C1319 0.949 . S
H1344 C1321 1.017 . S
H1345 C1323 0.950 . S
C1346 C1347 1.349 . S
C1346 C1348 1.327 . S
C1346 H1371 0.950 . S
C1347 C1346 1.349 . S
C1347 C1363 1.349 . S
C1348 C1346 1.327 . S
C1348 C1367 1.429 . S
C1348 H1372 0.950 . S
C1349 C1366 1.574 . S
C1349 C1368 1.368 . S
C1349 H1373 0.949 . S
H1350 C1354 0.949 . S
C1351 C1352 1.349 . S
C1351 C1353 1.327 . S
C1351 H1374 0.950 . S
C1352 C1351 1.349 . S
C1352 C1364 1.349 . S
C1353 C1351 1.327 . S
C1353 C1369 1.429 . S
C1353 H1375 0.950 . S
C1354 H1350 0.949 . S
C1354 C1362 1.574 . S
C1354 C1370 1.368 . S
H1355 C1363 0.950 . S
H1356 C1361 0.950 . S
H1357 C1362 0.949 . S
H1358 C1364 0.950 . S
H1359 C1365 0.950 . S
H1360 C1366 0.949 . S
C1361 H1356 0.950 . S
C1361 C1363 1.327 . S
C1361 C1367 1.429 . S
C1362 C1354 1.574 . S
C1362 H1357 0.949 . S
C1362 C1368 1.368 . S
C1363 C1347 1.349 . S
C1363 H1355 0.950 . S
C1363 C1361 1.327 . S
C1364 C1352 1.349 . S
C1364 H1358 0.950 . S
C1364 C1365 1.327 . S
C1365 H1359 0.950 . S
C1365 C1364 1.327 . S
C1365 C1369 1.429 . S
C1366 C1349 1.574 . S
C1366 H1360 0.949 . S
C1366 C1370 1.368 . S
C1367 C1348 1.429 . S
C1367 C1361 1.429 . S
C1367 C1368 1.523 . S
C1368 C1349 1.368 . S
C1368 C1362 1.368 . S
C1368 C1367 1.523 . S
C1369 C1353 1.429 . S
C1369 C1365 1.429 . S
C1369 C1370 1.523 1_556 S
C1370 C1354 1.368 . S
C1370 C1366 1.368 . S
C1370 C1369 1.523 1_554 S
H1371 C1346 0.950 . S
H1372 C1348 0.950 . S
H1373 C1349 0.949 . S
H1374 C1351 0.950 . S
H1375 C1353 0.950 . S
C1376 C1377 1.349 . S
C1376 C1378 1.327 . S
C1376 H1401 0.950 . S
C1377 C1376 1.349 . S
C1377 C1393 1.349 . S
C1378 C1376 1.327 . S
C1378 C1397 1.429 . S
C1378 H1402 0.950 . S
C1379 C1396 1.574 . S
C1379 C1398 1.368 . S
C1379 H1403 0.949 . S
H1380 C1384 0.949 . S
C1381 C1382 1.349 . S
C1381 C1383 1.327 . S
C1381 H1404 0.950 . S
C1382 C1381 1.349 . S
C1382 C1394 1.349 . S
C1383 C1381 1.327 . S
C1383 C1399 1.429 . S
C1383 H1405 0.950 . S
C1384 H1380 0.949 . S
C1384 C1392 1.574 . S
C1384 C1400 1.368 . S
H1385 C1393 0.950 . S
H1386 C1391 0.950 . S
H1387 C1392 0.949 . S
H1388 C1394 0.950 . S
H1389 C1395 0.950 . S
H1390 C1396 0.949 . S
C1391 H1386 0.950 . S
C1391 C1393 1.327 . S
C1391 C1397 1.429 . S
C1392 C1384 1.574 . S
C1392 H1387 0.949 . S
C1392 C1398 1.368 . S
C1393 C1377 1.349 . S
C1393 H1385 0.950 . S
C1393 C1391 1.327 . S
C1394 C1382 1.349 . S
C1394 H1388 0.950 . S
C1394 C1395 1.327 . S
C1395 H1389 0.950 . S
C1395 C1394 1.327 . S
C1395 C1399 1.429 . S
C1396 C1379 1.574 . S
C1396 H1390 0.949 . S
C1396 C1400 1.368 . S
C1397 C1378 1.429 . S
C1397 C1391 1.429 . S
C1397 C1398 1.523 . S
C1398 C1379 1.368 . S
C1398 C1392 1.368 . S
C1398 C1397 1.523 . S
C1399 C1383 1.429 . S
C1399 C1395 1.429 . S
C1399 C1400 1.523 . S
C1400 C1384 1.368 . S
C1400 C1396 1.368 . S
C1400 C1399 1.523 . S
H1401 C1376 0.950 . S
H1402 C1378 0.950 . S
H1403 C1379 0.949 . S
H1404 C1381 0.950 . S
H1405 C1383 0.950 . S
C1406 C1407 1.349 . S
C1406 C1408 1.327 . S
C1406 H1431 0.950 . S
C1407 C1406 1.349 . S
C1407 C1423 1.349 . S
C1408 C1406 1.327 . S
C1408 C1427 1.429 . S
C1408 H1432 0.950 . S
C1409 C1426 1.574 . S
C1409 C1428 1.368 . S
C1409 H1433 0.949 . S
H1410 C1414 0.949 . S
C1411 C1412 1.349 . S
C1411 C1413 1.327 . S
C1411 H1434 0.950 . S
C1412 C1411 1.349 . S
C1412 C1424 1.349 . S
C1413 C1411 1.327 . S
C1413 C1429 1.429 . S
C1413 H1435 0.950 . S
C1414 H1410 0.949 . S
C1414 C1422 1.574 . S
C1414 C1430 1.368 . S
H1415 C1423 0.950 . S
H1416 C1421 0.950 . S
H1417 C1422 0.949 . S
H1418 C1424 0.950 . S
H1419 C1425 0.950 . S
H1420 C1426 0.949 . S
C1421 H1416 0.950 . S
C1421 C1423 1.327 . S
C1421 C1427 1.429 . S
C1422 C1414 1.574 . S
C1422 H1417 0.949 . S
C1422 C1428 1.368 . S
C1423 C1407 1.349 . S
C1423 H1415 0.950 . S
C1423 C1421 1.327 . S
C1424 C1412 1.349 . S
C1424 H1418 0.950 . S
C1424 C1425 1.327 . S
C1425 H1419 0.950 . S
C1425 C1424 1.327 . S
C1425 C1429 1.429 . S
C1426 C1409 1.574 . S
C1426 H1420 0.949 . S
C1426 C1430 1.368 . S
C1427 C1408 1.429 . S
C1427 C1421 1.429 . S
C1427 C1428 1.523 . S
C1428 C1409 1.368 . S
C1428 C1422 1.368 . S
C1428 C1427 1.523 . S
C1429 C1413 1.429 . S
C1429 C1425 1.429 . S
C1429 C1430 1.523 . S
C1430 C1414 1.368 . S
C1430 C1426 1.368 . S
C1430 C1429 1.523 . S
H1431 C1406 0.950 . S
H1432 C1408 0.950 . S
H1433 C1409 0.949 . S
H1434 C1411 0.950 . S
H1435 C1413 0.950 . S
C1436 C1437 1.349 . S
C1436 C1438 1.327 . S
C1436 H1461 0.950 . S
C1437 C1436 1.349 . S
C1437 C1453 1.349 . S
C1438 C1436 1.327 . S
C1438 C1457 1.429 . S
C1438 H1462 0.950 . S
C1439 C1456 1.574 . S
C1439 C1458 1.368 . S
C1439 H1463 0.949 . S
H1440 C1444 0.949 . S
C1441 C1442 1.349 . S
C1441 C1443 1.327 . S
C1441 H1464 0.950 . S
C1442 C1441 1.349 . S
C1442 C1454 1.349 . S
C1443 C1441 1.327 . S
C1443 C1459 1.429 . S
C1443 H1465 0.950 . S
C1444 H1440 0.949 . S
C1444 C1452 1.574 . S
C1444 C1460 1.368 . S
H1445 C1453 0.950 . S
H1446 C1451 0.950 . S
H1447 C1452 0.949 . S
H1448 C1454 0.950 . S
H1449 C1455 0.950 . S
H1450 C1456 0.949 . S
C1451 H1446 0.950 . S
C1451 C1453 1.327 . S
C1451 C1457 1.429 . S
C1452 C1444 1.574 . S
C1452 H1447 0.949 . S
C1452 C1458 1.368 . S
C1453 C1437 1.349 . S
C1453 H1445 0.950 . S
C1453 C1451 1.327 . S
C1454 C1442 1.349 . S
C1454 H1448 0.950 . S
C1454 C1455 1.327 . S
C1455 H1449 0.950 . S
C1455 C1454 1.327 . S
C1455 C1459 1.429 . S
C1456 C1439 1.574 . S
C1456 H1450 0.949 . S
C1456 C1460 1.368 . S
C1457 C1438 1.429 . S
C1457 C1451 1.429 . S
C1457 C1458 1.523 . S
C1458 C1439 1.368 . S
C1458 C1452 1.368 . S
C1458 C1457 1.523 . S
C1459 C1443 1.429 . S
C1459 C1455 1.429 . S
C1459 C1460 1.523 . S
C1460 C1444 1.368 . S
C1460 C1456 1.368 . S
C1460 C1459 1.523 . S
H1461 C1436 0.950 . S
H1462 C1438 0.950 . S
H1463 C1439 0.949 . S
H1464 C1441 0.950 . S
H1465 C1443 0.950 . S
C1466 C1467 1.349 . S
C1466 C1468 1.327 . S
C1466 H1491 0.950 . S
C1467 C1466 1.349 . S
C1467 C1483 1.349 . S
C1468 C1466 1.327 . S
C1468 C1487 1.429 . S
C1468 H1492 0.950 . S
C1469 C1486 1.574 . S
C1469 C1488 1.368 . S
C1469 H1493 0.949 . S
H1470 C1474 0.949 . S
C1471 C1472 1.349 . S
C1471 C1473 1.327 . S
C1471 H1494 0.950 . S
C1472 C1471 1.349 . S
C1472 C1484 1.349 . S
C1473 C1471 1.327 . S
C1473 C1489 1.429 . S
C1473 H1495 0.950 . S
C1474 H1470 0.949 . S
C1474 C1482 1.574 . S
C1474 C1490 1.368 . S
H1475 C1483 0.950 . S
H1476 C1481 0.950 . S
H1477 C1482 0.949 . S
H1478 C1484 0.950 . S
H1479 C1485 0.950 . S
H1480 C1486 0.949 . S
C1481 H1476 0.950 . S
C1481 C1483 1.327 . S
C1481 C1487 1.429 . S
C1482 C1474 1.574 . S
C1482 H1477 0.949 . S
C1482 C1488 1.368 . S
C1483 C1467 1.349 . S
C1483 H1475 0.950 . S
C1483 C1481 1.327 . S
C1484 C1472 1.349 . S
C1484 H1478 0.950 . S
C1484 C1485 1.327 . S
C1485 H1479 0.950 . S
C1485 C1484 1.327 . S
C1485 C1489 1.429 . S
C1486 C1469 1.574 . S
C1486 H1480 0.949 . S
C1486 C1490 1.368 . S
C1487 C1468 1.429 . S
C1487 C1481 1.429 . S
C1487 C1488 1.523 . S
C1488 C1469 1.368 . S
C1488 C1482 1.368 . S
C1488 C1487 1.523 . S
C1489 C1473 1.429 . S
C1489 C1485 1.429 . S
C1489 C1490 1.523 1_556 S
C1490 C1474 1.368 . S
C1490 C1486 1.368 . S
C1490 C1489 1.523 1_554 S
H1491 C1466 0.950 . S
H1492 C1468 0.950 . S
H1493 C1469 0.949 . S
H1494 C1471 0.950 . S
H1495 C1473 0.950 . S
C1496 C1497 1.349 . S
C1496 C1498 1.327 . S
C1496 H1521 0.950 . S
C1497 C1496 1.349 . S
C1497 C1513 1.349 . S
C1498 C1496 1.327 . S
C1498 C1517 1.429 . S
C1498 H1522 0.950 . S
C1499 C1516 1.574 . S
C1499 C1518 1.368 . S
C1499 H1523 0.949 . S
H1500 C1504 0.949 . S
C1501 C1502 1.349 . S
C1501 C1503 1.327 . S
C1501 H1524 0.950 . S
C1502 C1501 1.349 . S
C1502 C1514 1.349 . S
C1503 C1501 1.327 . S
C1503 C1519 1.429 . S
C1503 H1525 0.950 . S
C1504 H1500 0.949 . S
C1504 C1512 1.574 . S
C1504 C1520 1.368 . S
H1505 C1513 0.950 . S
H1506 C1511 0.950 . S
H1507 C1512 0.949 . S
H1508 C1514 0.950 . S
H1509 C1515 0.950 . S
H1510 C1516 0.949 . S
C1511 H1506 0.950 . S
C1511 C1513 1.327 . S
C1511 C1517 1.429 . S
C1512 C1504 1.574 . S
C1512 H1507 0.949 . S
C1512 C1518 1.368 . S
C1513 C1497 1.349 . S
C1513 H1505 0.950 . S
C1513 C1511 1.327 . S
C1514 C1502 1.349 . S
C1514 H1508 0.950 . S
C1514 C1515 1.327 . S
C1515 H1509 0.950 . S
C1515 C1514 1.327 . S
C1515 C1519 1.429 . S
C1516 C1499 1.574 . S
C1516 H1510 0.949 . S
C1516 C1520 1.368 . S
C1517 C1498 1.429 . S
C1517 C1511 1.429 . S
C1517 C1518 1.523 . S
C1518 C1499 1.368 . S
C1518 C1512 1.368 . S
C1518 C1517 1.523 . S
C1519 C1503 1.429 . S
C1519 C1515 1.429 . S
C1519 C1520 1.523 . S
C1520 C1504 1.368 . S
C1520 C1516 1.368 . S
C1520 C1519 1.523 . S
H1521 C1496 0.950 . S
H1522 C1498 0.950 . S
H1523 C1499 0.949 . S
H1524 C1501 0.950 . S
H1525 C1503 0.950 . S
C1526 C1527 1.349 . S
C1526 C1528 1.327 . S
C1526 H1551 0.950 . S
C1527 C1526 1.349 . S
C1527 C1543 1.349 . S
C1528 C1526 1.327 . S
C1528 C1547 1.429 . S
C1528 H1552 0.950 . S
C1529 C1546 1.574 . S
C1529 C1548 1.368 . S
C1529 H1553 0.949 . S
H1530 C1534 0.949 . S
C1531 C1532 1.349 . S
C1531 C1533 1.327 . S
C1531 H1554 0.950 . S
C1532 C1531 1.349 . S
C1532 C1544 1.349 . S
C1533 C1531 1.327 . S
C1533 C1549 1.429 . S
C1533 H1555 0.950 . S
C1534 H1530 0.949 . S
C1534 C1542 1.574 . S
C1534 C1550 1.368 . S
H1535 C1543 0.950 . S
H1536 C1541 0.950 . S
H1537 C1542 0.949 . S
H1538 C1544 0.950 . S
H1539 C1545 0.950 . S
H1540 C1546 0.949 . S
C1541 H1536 0.950 . S
C1541 C1543 1.327 . S
C1541 C1547 1.429 . S
C1542 C1534 1.574 . S
C1542 H1537 0.949 . S
C1542 C1548 1.368 . S
C1543 C1527 1.349 . S
C1543 H1535 0.950 . S
C1543 C1541 1.327 . S
C1544 C1532 1.349 . S
C1544 H1538 0.950 . S
C1544 C1545 1.327 . S
C1545 H1539 0.950 . S
C1545 C1544 1.327 . S
C1545 C1549 1.429 . S
C1546 C1529 1.574 . S
C1546 H1540 0.949 . S
C1546 C1550 1.368 . S
C1547 C1528 1.429 . S
C1547 C1541 1.429 . S
C1547 C1548 1.523 . S
C1548 C1529 1.368 . S
C1548 C1542 1.368 . S
C1548 C1547 1.523 . S
C1549 C1533 1.429 . S
C1549 C1545 1.429 . S
C1549 C1550 1.523 . S
C1550 C1534 1.368 . S
C1550 C1546 1.368 . S
C1550 C1549 1.523 . S
H1551 C1526 0.950 . S
H1552 C1528 0.950 . S
H1553 C1529 0.949 . S
H1554 C1531 0.950 . S
H1555 C1533 0.950 . S
C1556 C1557 1.349 . S
C1556 C1558 1.327 . S
C1556 H1581 0.950 . S
C1557 C1556 1.349 . S
C1557 C1573 1.349 . S
C1558 C1556 1.327 . S
C1558 C1577 1.429 . S
C1558 H1582 0.950 . S
C1559 C1576 1.574 . S
C1559 C1578 1.368 . S
C1559 H1583 0.949 . S
H1560 C1564 0.949 . S
C1561 C1562 1.349 . S
C1561 C1563 1.327 . S
C1561 H1584 0.950 . S
C1562 C1561 1.349 . S
C1562 C1574 1.349 . S
C1563 C1561 1.327 . S
C1563 C1579 1.429 . S
C1563 H1585 0.950 . S
C1564 H1560 0.949 . S
C1564 C1572 1.574 . S
C1564 C1580 1.368 . S
H1565 C1573 0.950 . S
H1566 C1571 0.950 . S
H1567 C1572 0.949 . S
H1568 C1574 0.950 . S
H1569 C1575 0.950 . S
H1570 C1576 0.949 . S
C1571 H1566 0.950 . S
C1571 C1573 1.327 . S
C1571 C1577 1.429 . S
C1572 C1564 1.574 . S
C1572 H1567 0.949 . S
C1572 C1578 1.368 . S
C1573 C1557 1.349 . S
C1573 H1565 0.950 . S
C1573 C1571 1.327 . S
C1574 C1562 1.349 . S
C1574 H1568 0.950 . S
C1574 C1575 1.327 . S
C1575 H1569 0.950 . S
C1575 C1574 1.327 . S
C1575 C1579 1.429 . S
C1576 C1559 1.574 . S
C1576 H1570 0.949 . S
C1576 C1580 1.368 . S
C1577 C1558 1.429 . S
C1577 C1571 1.429 . S
C1577 C1578 1.523 . S
C1578 C1559 1.368 . S
C1578 C1572 1.368 . S
C1578 C1577 1.523 . S
C1579 C1563 1.429 . S
C1579 C1575 1.429 . S
C1579 C1580 1.523 . S
C1580 C1564 1.368 . S
C1580 C1576 1.368 . S
C1580 C1579 1.523 . S
H1581 C1556 0.950 . S
H1582 C1558 0.950 . S
H1583 C1559 0.949 . S
H1584 C1561 0.950 . S
H1585 C1563 0.950 . S
C1586 C1587 1.349 . S
C1586 C1588 1.327 . S
C1586 H1611 0.950 . S
C1587 C1586 1.349 . S
C1587 C1603 1.349 . S
C1588 C1586 1.327 . S
C1588 C1607 1.429 . S
C1588 H1612 0.950 . S
C1589 C1606 1.574 . S
C1589 C1608 1.368 . S
C1589 H1613 0.949 . S
H1590 C1594 0.949 . S
C1591 C1592 1.349 . S
C1591 C1593 1.327 . S
C1591 H1614 0.950 . S
C1592 C1591 1.349 . S
C1592 C1604 1.349 . S
C1593 C1591 1.327 . S
C1593 C1609 1.429 . S
C1593 H1615 0.950 . S
C1594 H1590 0.949 . S
C1594 C1602 1.574 . S
C1594 C1610 1.368 . S
H1595 C1603 0.950 . S
H1596 C1601 0.950 . S
H1597 C1602 0.949 . S
H1598 C1604 0.950 . S
H1599 C1605 0.950 . S
H1600 C1606 0.949 . S
C1601 H1596 0.950 . S
C1601 C1603 1.327 . S
C1601 C1607 1.429 . S
C1602 C1594 1.574 . S
C1602 H1597 0.949 . S
C1602 C1608 1.368 . S
C1603 C1587 1.349 . S
C1603 H1595 0.950 . S
C1603 C1601 1.327 . S
C1604 C1592 1.349 . S
C1604 H1598 0.950 . S
C1604 C1605 1.327 . S
C1605 H1599 0.950 . S
C1605 C1604 1.327 . S
C1605 C1609 1.429 . S
C1606 C1589 1.574 . S
C1606 H1600 0.949 . S
C1606 C1610 1.368 . S
C1607 C1588 1.429 . S
C1607 C1601 1.429 . S
C1607 C1608 1.523 1_556 S
C1608 C1589 1.368 . S
C1608 C1602 1.368 . S
C1608 C1607 1.523 1_554 S
C1609 C1593 1.429 . S
C1609 C1605 1.429 . S
C1609 C1610 1.523 . S
C1610 C1594 1.368 . S
C1610 C1606 1.368 . S
C1610 C1609 1.523 . S
H1611 C1586 0.950 . S
H1612 C1588 0.950 . S
H1613 C1589 0.949 . S
H1614 C1591 0.950 . S
H1615 C1593 0.950 . S
C1616 C1617 1.349 . S
C1616 C1618 1.327 . S
C1616 H1641 0.950 . S
C1617 C1616 1.349 . S
C1617 C1633 1.364 . S
C1618 C1616 1.327 . S
C1618 C1637 1.429 . S
C1618 H1642 0.950 . S
C1619 C1636 1.574 . S
C1619 C1638 1.368 1_545 S
C1619 H1643 0.949 . S
H1620 C1624 0.949 . S
C1621 C1622 1.349 . S
C1621 C1623 1.327 . S
C1621 H1644 0.950 . S
C1622 C1621 1.349 . S
C1622 C1634 1.363 . S
C1623 C1621 1.327 . S
C1623 C1639 1.429 . S
C1623 H1645 0.950 . S
C1624 H1620 0.949 . S
C1624 C1632 1.574 . S
C1624 C1640 1.368 1_565 S
H1625 C1633 0.939 1_545 S
H1626 C1631 0.950 . S
H1627 C1632 0.949 . S
H1628 C1634 0.939 1_565 S
H1629 C1635 0.950 . S
H1630 C1636 0.949 . S
C1631 H1626 0.950 . S
C1631 C1633 1.323 1_545 S
C1631 C1637 1.429 1_545 S
C1632 C1624 1.574 . S
C1632 H1627 0.949 . S
C1632 C1638 1.368 . S
C1633 C1617 1.364 . S
C1633 H1625 0.939 1_565 S
C1633 C1631 1.323 1_565 S
C1634 C1622 1.363 . S
C1634 H1628 0.939 1_545 S
C1634 C1635 1.323 1_545 S
C1635 H1629 0.950 . S
C1635 C1634 1.323 1_565 S
C1635 C1639 1.429 1_565 S
C1636 C1619 1.574 . S
C1636 H1630 0.949 . S
C1636 C1640 1.368 . S
C1637 C1618 1.429 . S
C1637 C1631 1.429 1_565 S
C1637 C1638 1.523 . S
C1638 C1619 1.368 1_565 S
C1638 C1632 1.368 . S
C1638 C1637 1.523 . S
C1639 C1623 1.429 . S
C1639 C1635 1.429 1_545 S
C1639 C1640 1.523 . S
C1640 C1624 1.368 1_545 S
C1640 C1636 1.368 . S
C1640 C1639 1.523 . S
H1641 C1616 0.950 . S
H1642 C1618 0.950 . S
H1643 C1619 0.949 . S
H1644 C1621 0.950 . S
H1645 C1623 0.950 . S
C1646 C1647 1.349 . S
C1646 C1648 1.327 . S
C1646 H1671 0.950 . S
C1647 C1646 1.349 . S
C1647 C1663 1.349 . S
C1648 C1646 1.327 . S
C1648 C1667 1.429 . S
C1648 H1672 0.950 . S
C1649 C1666 1.574 . S
C1649 C1668 1.368 . S
C1649 H1673 0.949 . S
H1650 C1654 0.949 . S
C1651 C1652 1.349 . S
C1651 C1653 1.327 . S
C1651 H1674 0.950 . S
C1652 C1651 1.349 . S
C1652 C1664 1.349 . S
C1653 C1651 1.327 . S
C1653 C1669 1.429 . S
C1653 H1675 0.950 . S
C1654 H1650 0.949 . S
C1654 C1662 1.574 . S
C1654 C1670 1.368 . S
H1655 C1663 0.950 . S
H1656 C1661 0.950 . S
H1657 C1662 0.949 . S
H1658 C1664 0.950 . S
H1659 C1665 0.950 . S
H1660 C1666 0.949 . S
C1661 H1656 0.950 . S
C1661 C1663 1.327 . S
C1661 C1667 1.429 . S
C1662 C1654 1.574 . S
C1662 H1657 0.949 . S
C1662 C1668 1.368 . S
C1663 C1647 1.349 . S
C1663 H1655 0.950 . S
C1663 C1661 1.327 . S
C1664 C1652 1.349 . S
C1664 H1658 0.950 . S
C1664 C1665 1.327 . S
C1665 H1659 0.950 . S
C1665 C1664 1.327 . S
C1665 C1669 1.429 . S
C1666 C1649 1.574 . S
C1666 H1660 0.949 . S
C1666 C1670 1.368 . S
C1667 C1648 1.429 . S
C1667 C1661 1.429 . S
C1667 C1668 1.523 . S
C1668 C1649 1.368 . S
C1668 C1662 1.368 . S
C1668 C1667 1.523 . S
C1669 C1653 1.429 . S
C1669 C1665 1.429 . S
C1669 C1670 1.523 1_556 S
C1670 C1654 1.368 . S
C1670 C1666 1.368 . S
C1670 C1669 1.523 1_554 S
H1671 C1646 0.950 . S
H1672 C1648 0.950 . S
H1673 C1649 0.949 . S
H1674 C1651 0.950 . S
H1675 C1653 0.950 . S
C1676 C1677 1.349 . S
C1676 C1678 1.327 . S
C1676 H1701 0.950 . S
C1677 C1676 1.349 . S
C1677 C1693 1.315 1_565 S
C1678 C1676 1.327 . S
C1678 C1697 1.429 . S
C1678 H1702 0.950 . S
C1679 C1696 1.574 . S
C1679 C1698 1.368 1_545 S
C1679 H1703 0.949 . S
H1680 C1684 0.949 . S
C1681 C1682 1.349 . S
C1681 C1683 1.327 . S
C1681 H1704 0.950 . S
C1682 C1681 1.349 . S
C1682 C1694 1.312 1_545 S
C1683 C1681 1.327 . S
C1683 C1699 1.429 . S
C1683 H1705 0.950 . S
C1684 H1680 0.949 . S
C1684 C1692 1.574 . S
C1684 C1700 1.368 1_565 S
H1685 C1693 0.977 . S
H1686 C1691 0.950 . S
H1687 C1692 0.949 . S
H1688 C1694 0.979 . S
H1689 C1695 0.950 . S
H1690 C1696 0.949 . S
C1691 H1686 0.950 . S
C1691 C1693 1.336 . S
C1691 C1697 1.429 1_545 S
C1692 C1684 1.574 . S
C1692 H1687 0.949 . S
C1692 C1698 1.368 . S
C1693 C1677 1.315 1_545 S
C1693 H1685 0.977 . S
C1693 C1691 1.336 . S
C1694 C1682 1.312 1_565 S
C1694 H1688 0.979 . S
C1694 C1695 1.337 . S
C1695 H1689 0.950 . S
C1695 C1694 1.337 . S
C1695 C1699 1.429 1_565 S
C1696 C1679 1.574 . S
C1696 H1690 0.949 . S
C1696 C1700 1.368 . S
C1697 C1678 1.429 . S
C1697 C1691 1.429 1_565 S
C1697 C1698 1.523 . S
C1698 C1679 1.368 1_565 S
C1698 C1692 1.368 . S
C1698 C1697 1.523 . S
C1699 C1683 1.429 . S
C1699 C1695 1.429 1_545 S
C1699 C1700 1.523 . S
C1700 C1684 1.368 1_545 S
C1700 C1696 1.368 . S
C1700 C1699 1.523 . S
H1701 C1676 0.950 . S
H1702 C1678 0.950 . S
H1703 C1679 0.949 . S
H1704 C1681 0.950 . S
H1705 C1683 0.950 . S
C1706 C1707 1.349 . S
C1706 C1708 1.327 . S
C1706 H1731 0.950 . S
C1707 C1706 1.349 . S
C1707 C1723 1.349 . S
C1708 C1706 1.327 . S
C1708 C1727 1.429 . S
C1708 H1732 0.950 . S
C1709 C1726 1.574 . S
C1709 C1728 1.368 . S
C1709 H1733 0.949 . S
H1710 C1714 0.949 . S
C1711 C1712 1.349 . S
C1711 C1713 1.327 . S
C1711 H1734 0.950 . S
C1712 C1711 1.349 . S
C1712 C1724 1.349 . S
C1713 C1711 1.327 . S
C1713 C1729 1.429 . S
C1713 H1735 0.950 . S
C1714 H1710 0.949 . S
C1714 C1722 1.574 . S
C1714 C1730 1.368 . S
H1715 C1723 0.950 . S
H1716 C1721 0.950 . S
H1717 C1722 0.949 . S
H1718 C1724 0.950 . S
H1719 C1725 0.950 . S
H1720 C1726 0.949 . S
C1721 H1716 0.950 . S
C1721 C1723 1.327 . S
C1721 C1727 1.429 . S
C1722 C1714 1.574 . S
C1722 H1717 0.949 . S
C1722 C1728 1.368 . S
C1723 C1707 1.349 . S
C1723 H1715 0.950 . S
C1723 C1721 1.327 . S
C1724 C1712 1.349 . S
C1724 H1718 0.950 . S
C1724 C1725 1.327 . S
C1725 H1719 0.950 . S
C1725 C1724 1.327 . S
C1725 C1729 1.429 . S
C1726 C1709 1.574 . S
C1726 H1720 0.949 . S
C1726 C1730 1.368 . S
C1727 C1708 1.429 . S
C1727 C1721 1.429 . S
C1727 C1728 1.523 . S
C1728 C1709 1.368 . S
C1728 C1722 1.368 . S
C1728 C1727 1.523 . S
C1729 C1713 1.429 . S
C1729 C1725 1.429 . S
C1729 C1730 1.523 . S
C1730 C1714 1.368 . S
C1730 C1726 1.368 . S
C1730 C1729 1.523 . S
H1731 C1706 0.950 . S
H1732 C1708 0.950 . S
H1733 C1709 0.949 . S
H1734 C1711 0.950 . S
H1735 C1713 0.950 . S
C1736 C1737 1.349 . S
C1736 C1738 1.327 . S
C1736 H1761 0.950 . S
C1737 C1736 1.349 . S
C1737 C1753 1.349 . S
C1738 C1736 1.327 . S
C1738 C1757 1.429 . S
C1738 H1762 0.950 . S
C1739 C1756 1.574 . S
C1739 C1758 1.368 1_545 S
C1739 H1763 0.949 . S
H1740 C1744 0.949 . S
C1741 C1742 1.349 . S
C1741 C1743 1.327 . S
C1741 H1764 0.950 . S
C1742 C1741 1.349 . S
C1742 C1754 1.349 . S
C1743 C1741 1.327 . S
C1743 C1759 1.429 . S
C1743 H1765 0.950 . S
C1744 H1740 0.949 . S
C1744 C1752 1.574 . S
C1744 C1760 1.368 1_565 S
H1745 C1753 0.947 1_545 S
H1746 C1751 0.930 1_545 S
H1747 C1752 0.949 . S
H1748 C1754 0.948 1_565 S
H1749 C1755 0.929 1_565 S
H1750 C1756 0.949 . S
C1751 H1746 0.930 1_565 S
C1751 C1753 1.335 . S
C1751 C1757 1.441 . S
C1752 C1744 1.574 . S
C1752 H1747 0.949 . S
C1752 C1758 1.368 . S
C1753 C1737 1.349 . S
C1753 H1745 0.947 1_565 S
C1753 C1751 1.335 . S
C1754 C1742 1.349 . S
C1754 H1748 0.948 1_545 S
C1754 C1755 1.336 . S
C1755 H1749 0.929 1_545 S
C1755 C1754 1.336 . S
C1755 C1759 1.442 . S
C1756 C1739 1.574 . S
C1756 H1750 0.949 . S
C1756 C1760 1.368 . S
C1757 C1738 1.429 . S
C1757 C1751 1.441 . S
C1757 C1758 1.523 . S
C1758 C1739 1.368 1_565 S
C1758 C1752 1.368 . S
C1758 C1757 1.523 . S
C1759 C1743 1.429 . S
C1759 C1755 1.442 . S
C1759 C1760 1.523 . S
C1760 C1744 1.368 1_545 S
C1760 C1756 1.368 . S
C1760 C1759 1.523 . S
H1761 C1736 0.950 . S
H1762 C1738 0.950 . S
H1763 C1739 0.949 . S
H1764 C1741 0.950 . S
H1765 C1743 0.950 . S
C1766 C1767 1.349 . S
C1766 C1768 1.327 . S
C1766 H1791 0.950 . S
C1767 C1766 1.349 . S
C1767 C1783 1.349 . S
C1768 C1766 1.327 . S
C1768 C1787 1.429 . S
C1768 H1792 0.950 . S
C1769 C1786 1.574 . S
C1769 C1788 1.368 . S
C1769 H1793 0.949 . S
H1770 C1774 0.949 . S
C1771 C1772 1.349 . S
C1771 C1773 1.327 . S
C1771 H1794 0.950 . S
C1772 C1771 1.349 . S
C1772 C1784 1.349 . S
C1773 C1771 1.327 . S
C1773 C1789 1.429 . S
C1773 H1795 0.950 . S
C1774 H1770 0.949 . S
C1774 C1782 1.574 . S
C1774 C1790 1.368 . S
H1775 C1783 0.950 . S
H1776 C1781 0.950 . S
H1777 C1782 0.949 . S
H1778 C1784 0.950 . S
H1779 C1785 0.950 . S
H1780 C1786 0.949 . S
C1781 H1776 0.950 . S
C1781 C1783 1.327 . S
C1781 C1787 1.429 . S
C1782 C1774 1.574 . S
C1782 H1777 0.949 . S
C1782 C1788 1.368 . S
C1783 C1767 1.349 . S
C1783 H1775 0.950 . S
C1783 C1781 1.327 . S
C1784 C1772 1.349 . S
C1784 H1778 0.950 . S
C1784 C1785 1.327 . S
C1785 H1779 0.950 . S
C1785 C1784 1.327 . S
C1785 C1789 1.429 . S
C1786 C1769 1.574 . S
C1786 H1780 0.949 . S
C1786 C1790 1.368 . S
C1787 C1768 1.429 . S
C1787 C1781 1.429 . S
C1787 C1788 1.523 . S
C1788 C1769 1.368 . S
C1788 C1782 1.368 . S
C1788 C1787 1.523 . S
C1789 C1773 1.429 . S
C1789 C1785 1.429 . S
C1789 C1790 1.523 1_556 S
C1790 C1774 1.368 . S
C1790 C1786 1.368 . S
C1790 C1789 1.523 1_554 S
H1791 C1766 0.950 . S
H1792 C1768 0.950 . S
H1793 C1769 0.949 . S
H1794 C1771 0.950 . S
H1795 C1773 0.950 . S
C1796 C1797 1.349 . S
C1796 C1798 1.327 . S
C1796 H1821 0.950 . S
C1797 C1796 1.349 . S
C1797 C1813 1.339 1_565 S
C1798 C1796 1.327 . S
C1798 C1817 1.429 . S
C1798 H1822 0.950 . S
C1799 C1816 1.574 . S
C1799 C1818 1.368 1_545 S
C1799 H1823 0.949 . S
H1800 C1804 0.949 . S
C1801 C1802 1.349 . S
C1801 C1803 1.327 . S
C1801 H1824 0.950 . S
C1802 C1801 1.349 . S
C1802 C1814 1.340 1_545 S
C1803 C1801 1.327 . S
C1803 C1819 1.429 . S
C1803 H1825 0.950 . S
C1804 H1800 0.949 . S
C1804 C1812 1.574 . S
C1804 C1820 1.368 1_565 S
H1805 C1813 0.957 . S
H1806 C1811 0.950 . S
H1807 C1812 0.949 . S
H1808 C1814 0.956 . S
H1809 C1815 0.950 . S
H1810 C1816 0.949 . S
C1811 H1806 0.950 . S
C1811 C1813 1.330 . S
C1811 C1817 1.429 1_545 S
C1812 C1804 1.574 . S
C1812 H1807 0.949 . S
C1812 C1818 1.368 . S
C1813 C1797 1.339 1_545 S
C1813 H1805 0.957 . S
C1813 C1811 1.330 . S
C1814 C1802 1.340 1_565 S
C1814 H1808 0.956 . S
C1814 C1815 1.329 . S
C1815 H1809 0.950 . S
C1815 C1814 1.329 . S
C1815 C1819 1.429 1_565 S
C1816 C1799 1.574 . S
C1816 H1810 0.949 . S
C1816 C1820 1.368 . S
C1817 C1798 1.429 . S
C1817 C1811 1.429 1_565 S
C1817 C1818 1.523 . S
C1818 C1799 1.368 1_565 S
C1818 C1812 1.368 . S
C1818 C1817 1.523 . S
C1819 C1803 1.429 . S
C1819 C1815 1.429 1_545 S
C1819 C1820 1.523 . S
C1820 C1804 1.368 1_545 S
C1820 C1816 1.368 . S
C1820 C1819 1.523 . S
H1821 C1796 0.950 . S
H1822 C1798 0.950 . S
H1823 C1799 0.949 . S
H1824 C1801 0.950 . S
H1825 C1803 0.950 . S
C1826 C1827 1.349 . S
C1826 C1828 1.327 . S
C1826 H1851 0.950 . S
C1827 C1826 1.349 . S
C1827 C1843 1.349 . S
C1828 C1826 1.327 . S
C1828 C1847 1.429 . S
C1828 H1852 0.950 . S
C1829 C1846 1.574 . S
C1829 C1848 1.368 . S
C1829 H1853 0.949 . S
H1830 C1834 0.949 . S
C1831 C1832 1.349 . S
C1831 C1833 1.327 . S
C1831 H1854 0.950 . S
C1832 C1831 1.349 . S
C1832 C1844 1.349 . S
C1833 C1831 1.327 . S
C1833 C1849 1.429 . S
C1833 H1855 0.950 . S
C1834 H1830 0.949 . S
C1834 C1842 1.574 . S
C1834 C1850 1.368 . S
H1835 C1843 0.950 . S
H1836 C1841 0.950 . S
H1837 C1842 0.949 . S
H1838 C1844 0.950 . S
H1839 C1845 0.950 . S
H1840 C1846 0.949 . S
C1841 H1836 0.950 . S
C1841 C1843 1.327 . S
C1841 C1847 1.429 . S
C1842 C1834 1.574 . S
C1842 H1837 0.949 . S
C1842 C1848 1.368 . S
C1843 C1827 1.349 . S
C1843 H1835 0.950 . S
C1843 C1841 1.327 . S
C1844 C1832 1.349 . S
C1844 H1838 0.950 . S
C1844 C1845 1.327 . S
C1845 H1839 0.950 . S
C1845 C1844 1.327 . S
C1845 C1849 1.429 . S
C1846 C1829 1.574 . S
C1846 H1840 0.949 . S
C1846 C1850 1.368 . S
C1847 C1828 1.429 . S
C1847 C1841 1.429 . S
C1847 C1848 1.523 . S
C1848 C1829 1.368 . S
C1848 C1842 1.368 . S
C1848 C1847 1.523 . S
C1849 C1833 1.429 . S
C1849 C1845 1.429 . S
C1849 C1850 1.523 . S
C1850 C1834 1.368 . S
C1850 C1846 1.368 . S
C1850 C1849 1.523 . S
H1851 C1826 0.950 . S
H1852 C1828 0.950 . S
H1853 C1829 0.949 . S
H1854 C1831 0.950 . S
H1855 C1833 0.950 . S
C1856 C1857 1.349 . S
C1856 C1858 1.327 . S
C1856 H1881 0.950 . S
C1857 C1856 1.349 . S
C1857 C1873 1.349 . S
C1858 C1856 1.327 . S
C1858 C1877 1.429 . S
C1858 H1882 0.950 . S
C1859 C1876 1.574 . S
C1859 C1878 1.368 . S
C1859 H1883 0.949 . S
H1860 C1864 0.949 . S
C1861 C1862 1.349 . S
C1861 C1863 1.327 . S
C1861 H1884 0.950 . S
C1862 C1861 1.349 . S
C1862 C1874 1.349 . S
C1863 C1861 1.327 . S
C1863 C1879 1.429 . S
C1863 H1885 0.950 . S
C1864 H1860 0.949 . S
C1864 C1872 1.574 . S
C1864 C1880 1.368 . S
H1865 C1873 0.950 . S
H1866 C1871 0.950 . S
H1867 C1872 0.949 . S
H1868 C1874 0.950 . S
H1869 C1875 0.950 . S
H1870 C1876 0.949 . S
C1871 H1866 0.950 . S
C1871 C1873 1.327 . S
C1871 C1877 1.429 . S
C1872 C1864 1.574 . S
C1872 H1867 0.949 . S
C1872 C1878 1.368 . S
C1873 C1857 1.349 . S
C1873 H1865 0.950 . S
C1873 C1871 1.327 . S
C1874 C1862 1.349 . S
C1874 H1868 0.950 . S
C1874 C1875 1.327 . S
C1875 H1869 0.950 . S
C1875 C1874 1.327 . S
C1875 C1879 1.429 . S
C1876 C1859 1.574 . S
C1876 H1870 0.949 . S
C1876 C1880 1.368 . S
C1877 C1858 1.429 . S
C1877 C1871 1.429 . S
C1877 C1878 1.523 . S
C1878 C1859 1.368 . S
C1878 C1872 1.368 . S
C1878 C1877 1.523 . S
C1879 C1863 1.429 . S
C1879 C1875 1.429 . S
C1879 C1880 1.523 . S
C1880 C1864 1.368 . S
C1880 C1876 1.368 . S
C1880 C1879 1.523 . S
H1881 C1856 0.950 . S
H1882 C1858 0.950 . S
H1883 C1859 0.949 . S
H1884 C1861 0.950 . S
H1885 C1863 0.950 . S
C1886 C1887 1.349 . S
C1886 C1888 1.327 . S
C1886 H1911 0.950 . S
C1887 C1886 1.349 . S
C1887 C1903 1.349 . S
C1888 C1886 1.327 . S
C1888 C1907 1.429 . S
C1888 H1912 0.950 . S
C1889 C1906 1.574 . S
C1889 C1908 1.368 . S
C1889 H1913 0.949 . S
H1890 C1894 0.949 . S
C1891 C1892 1.349 . S
C1891 C1893 1.327 . S
C1891 H1914 0.950 . S
C1892 C1891 1.349 . S
C1892 C1904 1.349 . S
C1893 C1891 1.327 . S
C1893 C1909 1.429 . S
C1893 H1915 0.950 . S
C1894 H1890 0.949 . S
C1894 C1902 1.574 . S
C1894 C1910 1.368 . S
H1895 C1903 0.950 . S
H1896 C1901 0.950 . S
H1897 C1902 0.949 . S
H1898 C1904 0.950 . S
H1899 C1905 0.950 . S
H1900 C1906 0.949 . S
C1901 H1896 0.950 . S
C1901 C1903 1.327 . S
C1901 C1907 1.429 . S
C1902 C1894 1.574 . S
C1902 H1897 0.949 . S
C1902 C1908 1.368 . S
C1903 C1887 1.349 . S
C1903 H1895 0.950 . S
C1903 C1901 1.327 . S
C1904 C1892 1.349 . S
C1904 H1898 0.950 . S
C1904 C1905 1.327 . S
C1905 H1899 0.950 . S
C1905 C1904 1.327 . S
C1905 C1909 1.429 . S
C1906 C1889 1.574 . S
C1906 H1900 0.949 . S
C1906 C1910 1.368 . S
C1907 C1888 1.429 . S
C1907 C1901 1.429 . S
C1907 C1908 1.523 . S
C1908 C1889 1.368 . S
C1908 C1902 1.368 . S
C1908 C1907 1.523 . S
C1909 C1893 1.429 . S
C1909 C1905 1.429 . S
C1909 C1910 1.523 . S
C1910 C1894 1.368 . S
C1910 C1906 1.368 . S
C1910 C1909 1.523 . S
H1911 C1886 0.950 . S
H1912 C1888 0.950 . S
H1913 C1889 0.949 . S
H1914 C1891 0.950 . S
H1915 C1893 0.950 . S
C1916 C1917 1.349 . S
C1916 C1918 1.327 . S
C1916 H1941 0.950 . S
C1917 C1916 1.349 . S
C1917 C1933 1.349 . S
C1918 C1916 1.327 . S
C1918 C1937 1.429 . S
C1918 H1942 0.950 . S
C1919 C1936 1.574 . S
C1919 C1938 1.368 . S
C1919 H1943 0.949 . S
H1920 C1924 0.949 . S
C1921 C1922 1.349 . S
C1921 C1923 1.327 . S
C1921 H1944 0.950 . S
C1922 C1921 1.349 . S
C1922 C1934 1.349 . S
C1923 C1921 1.327 . S
C1923 C1939 1.429 . S
C1923 H1945 0.950 . S
C1924 H1920 0.949 . S
C1924 C1932 1.574 . S
C1924 C1940 1.368 . S
H1925 C1933 0.950 . S
H1926 C1931 0.950 . S
H1927 C1932 0.949 . S
H1928 C1934 0.950 . S
H1929 C1935 0.950 . S
H1930 C1936 0.949 . S
C1931 H1926 0.950 . S
C1931 C1933 1.327 . S
C1931 C1937 1.429 . S
C1932 C1924 1.574 . S
C1932 H1927 0.949 . S
C1932 C1938 1.368 . S
C1933 C1917 1.349 . S
C1933 H1925 0.950 . S
C1933 C1931 1.327 . S
C1934 C1922 1.349 . S
C1934 H1928 0.950 . S
C1934 C1935 1.327 . S
C1935 H1929 0.950 . S
C1935 C1934 1.327 . S
C1935 C1939 1.429 . S
C1936 C1919 1.574 . S
C1936 H1930 0.949 . S
C1936 C1940 1.368 . S
C1937 C1918 1.429 . S
C1937 C1931 1.429 . S
C1937 C1938 1.523 . S
C1938 C1919 1.368 . S
C1938 C1932 1.368 . S
C1938 C1937 1.523 . S
C1939 C1923 1.429 . S
C1939 C1935 1.429 . S
C1939 C1940 1.523 . S
C1940 C1924 1.368 . S
C1940 C1936 1.368 . S
C1940 C1939 1.523 . S
H1941 C1916 0.950 . S
H1942 C1918 0.950 . S
H1943 C1919 0.949 . S
H1944 C1921 0.950 . S
H1945 C1923 0.950 . S
C1946 C1947 1.349 . S
C1946 C1948 1.327 . S
C1946 H1971 0.950 . S
C1947 C1946 1.349 . S
C1947 C1963 1.349 . S
C1948 C1946 1.327 . S
C1948 C1967 1.429 . S
C1948 H1972 0.950 . S
C1949 C1966 1.574 . S
C1949 C1968 1.368 . S
C1949 H1973 0.949 . S
H1950 C1954 0.949 . S
C1951 C1952 1.349 1_556 S
C1951 C1953 1.327 . S
C1951 H1974 0.948 1_556 S
C1952 C1951 1.349 1_554 S
C1952 C1964 1.349 . S
C1953 C1951 1.327 . S
C1953 C1969 1.429 . S
C1953 H1975 0.950 . S
C1954 H1950 0.949 . S
C1954 C1962 1.574 . S
C1954 C1970 1.368 . S
H1955 C1963 0.950 . S
H1956 C1961 0.950 . S
H1957 C1962 0.949 . S
H1958 C1964 0.950 . S
H1959 C1965 0.950 . S
H1960 C1966 0.949 . S
C1961 H1956 0.950 . S
C1961 C1963 1.327 . S
C1961 C1967 1.429 . S
C1962 C1954 1.574 . S
C1962 H1957 0.949 . S
C1962 C1968 1.368 . S
C1963 C1947 1.349 . S
C1963 H1955 0.950 . S
C1963 C1961 1.327 . S
C1964 C1952 1.349 . S
C1964 H1958 0.950 . S
C1964 C1965 1.327 1_554 S
C1965 H1959 0.950 . S
C1965 C1964 1.327 1_556 S
C1965 C1969 1.429 . S
C1966 C1949 1.574 . S
C1966 H1960 0.949 . S
C1966 C1970 1.368 . S
C1967 C1948 1.429 . S
C1967 C1961 1.429 . S
C1967 C1968 1.523 . S
C1968 C1949 1.368 . S
C1968 C1962 1.368 . S
C1968 C1967 1.523 . S
C1969 C1953 1.429 . S
C1969 C1965 1.429 . S
C1969 C1970 1.523 . S
C1970 C1954 1.368 . S
C1970 C1966 1.368 . S
C1970 C1969 1.523 . S
H1971 C1946 0.950 . S
H1972 C1948 0.950 . S
H1973 C1949 0.949 . S
H1974 C1951 0.948 1_554 S
H1975 C1953 0.950 . S
C1976 C1977 1.349 . S
C1976 C1978 1.327 . S
C1976 H2001 0.950 . S
C1977 C1976 1.349 . S
C1977 C1993 1.349 . S
C1978 C1976 1.327 . S
C1978 C1997 1.429 . S
C1978 H2002 0.950 . S
C1979 C1996 1.574 . S
C1979 C1998 1.368 . S
C1979 H2003 0.949 . S
H1980 C1984 0.949 . S
C1981 C1982 1.349 . S
C1981 C1983 1.327 . S
C1981 H2004 0.950 . S
C1982 C1981 1.349 . S
C1982 C1994 1.349 . S
C1983 C1981 1.327 . S
C1983 C1999 1.429 . S
C1983 H2005 0.950 . S
C1984 H1980 0.949 . S
C1984 C1992 1.574 . S
C1984 C2000 1.368 . S
H1985 C1993 0.950 . S
H1986 C1991 0.950 . S
H1987 C1992 0.949 . S
H1988 C1994 0.950 . S
H1989 C1995 0.950 . S
H1990 C1996 0.949 . S
C1991 H1986 0.950 . S
C1991 C1993 1.327 . S
C1991 C1997 1.429 . S
C1992 C1984 1.574 . S
C1992 H1987 0.949 . S
C1992 C1998 1.368 . S
C1993 C1977 1.349 . S
C1993 H1985 0.950 . S
C1993 C1991 1.327 . S
C1994 C1982 1.349 . S
C1994 H1988 0.950 . S
C1994 C1995 1.327 . S
C1995 H1989 0.950 . S
C1995 C1994 1.327 . S
C1995 C1999 1.429 . S
C1996 C1979 1.574 . S
C1996 H1990 0.949 . S
C1996 C2000 1.368 . S
C1997 C1978 1.429 . S
C1997 C1991 1.429 . S
C1997 C1998 1.523 . S
C1998 C1979 1.368 . S
C1998 C1992 1.368 . S
C1998 C1997 1.523 . S
C1999 C1983 1.429 . S
C1999 C1995 1.429 . S
C1999 C2000 1.523 . S
C2000 C1984 1.368 . S
C2000 C1996 1.368 . S
C2000 C1999 1.523 . S
H2001 C1976 0.950 . S
H2002 C1978 0.950 . S
H2003 C1979 0.949 . S
H2004 C1981 0.950 . S
H2005 C1983 0.950 . S
C2006 C2007 1.349 . S
C2006 C2008 1.327 . S
C2006 H2031 0.950 . S
C2007 C2006 1.349 . S
C2007 C2023 1.349 . S
C2008 C2006 1.327 . S
C2008 C2027 1.429 . S
C2008 H2032 0.950 . S
C2009 C2026 1.574 . S
C2009 C2028 1.368 . S
C2009 H2033 0.949 . S
H2010 C2014 0.949 . S
C2011 C2012 1.349 . S
C2011 C2013 1.327 . S
C2011 H2034 0.950 . S
C2012 C2011 1.349 . S
C2012 C2024 1.349 . S
C2013 C2011 1.327 . S
C2013 C2029 1.429 . S
C2013 H2035 0.950 . S
C2014 H2010 0.949 . S
C2014 C2022 1.574 . S
C2014 C2030 1.368 . S
H2015 C2023 0.950 . S
H2016 C2021 0.950 . S
H2017 C2022 0.949 . S
H2018 C2024 0.950 . S
H2019 C2025 0.950 . S
H2020 C2026 0.949 . S
C2021 H2016 0.950 . S
C2021 C2023 1.327 . S
C2021 C2027 1.429 . S
C2022 C2014 1.574 . S
C2022 H2017 0.949 . S
C2022 C2028 1.368 . S
C2023 C2007 1.349 . S
C2023 H2015 0.950 . S
C2023 C2021 1.327 . S
C2024 C2012 1.349 . S
C2024 H2018 0.950 . S
C2024 C2025 1.327 . S
C2025 H2019 0.950 . S
C2025 C2024 1.327 . S
C2025 C2029 1.429 . S
C2026 C2009 1.574 . S
C2026 H2020 0.949 . S
C2026 C2030 1.368 . S
C2027 C2008 1.429 . S
C2027 C2021 1.429 . S
C2027 C2028 1.523 . S
C2028 C2009 1.368 . S
C2028 C2022 1.368 . S
C2028 C2027 1.523 . S
C2029 C2013 1.429 . S
C2029 C2025 1.429 . S
C2029 C2030 1.523 . S
C2030 C2014 1.368 . S
C2030 C2026 1.368 . S
C2030 C2029 1.523 . S
H2031 C2006 0.950 . S
H2032 C2008 0.950 . S
H2033 C2009 0.949 . S
H2034 C2011 0.950 . S
H2035 C2013 0.950 . S
C2036 C2037 1.349 . S
C2036 C2038 1.327 . S
C2036 H2061 0.950 . S
C2037 C2036 1.349 . S
C2037 C2053 1.349 . S
C2038 C2036 1.327 . S
C2038 C2057 1.429 . S
C2038 H2062 0.950 . S
C2039 C2056 1.574 . S
C2039 C2058 1.368 . S
C2039 H2063 0.949 . S
H2040 C2044 0.949 . S
C2041 C2042 1.349 . S
C2041 C2043 1.327 1_554 S
C2041 H2064 0.950 . S
C2042 C2041 1.349 . S
C2042 C2054 1.349 1_554 S
C2043 C2041 1.327 1_556 S
C2043 C2059 1.429 . S
C2043 H2065 0.950 . S
C2044 H2040 0.949 . S
C2044 C2052 1.574 . S
C2044 C2060 1.368 . S
H2045 C2053 0.950 . S
H2046 C2051 0.950 . S
H2047 C2052 0.949 . S
H2048 C2054 0.952 . S
H2049 C2055 0.950 . S
H2050 C2056 0.949 . S
C2051 H2046 0.950 . S
C2051 C2053 1.327 . S
C2051 C2057 1.429 . S
C2052 C2044 1.574 . S
C2052 H2047 0.949 . S
C2052 C2058 1.368 . S
C2053 C2037 1.349 . S
C2053 H2045 0.950 . S
C2053 C2051 1.327 . S
C2054 C2042 1.349 1_556 S
C2054 H2048 0.952 . S
C2054 C2055 1.327 . S
C2055 H2049 0.950 . S
C2055 C2054 1.327 . S
C2055 C2059 1.429 . S
C2056 C2039 1.574 . S
C2056 H2050 0.949 . S
C2056 C2060 1.368 . S
C2057 C2038 1.429 . S
C2057 C2051 1.429 . S
C2057 C2058 1.523 . S
C2058 C2039 1.368 . S
C2058 C2052 1.368 . S
C2058 C2057 1.523 . S
C2059 C2043 1.429 . S
C2059 C2055 1.429 . S
C2059 C2060 1.523 . S
C2060 C2044 1.368 . S
C2060 C2056 1.368 . S
C2060 C2059 1.523 . S
H2061 C2036 0.950 . S
H2062 C2038 0.950 . S
H2063 C2039 0.949 . S
H2064 C2041 0.950 . S
H2065 C2043 0.950 . S
C2066 C2067 1.349 . S
C2066 C2068 1.327 . S
C2066 H2091 0.950 . S
C2067 C2066 1.349 . S
C2067 C2083 1.349 . S
C2068 C2066 1.327 . S
C2068 C2087 1.429 . S
C2068 H2092 0.950 . S
C2069 C2086 1.574 . S
C2069 C2088 1.368 . S
C2069 H2093 0.949 . S
H2070 C2074 0.949 . S
C2071 C2072 1.349 . S
C2071 C2073 1.327 . S
C2071 H2094 0.950 . S
C2072 C2071 1.349 . S
C2072 C2084 1.349 . S
C2073 C2071 1.327 . S
C2073 C2089 1.429 . S
C2073 H2095 0.950 . S
C2074 H2070 0.949 . S
C2074 C2082 1.574 . S
C2074 C2090 1.368 . S
H2075 C2083 0.950 . S
H2076 C2081 0.950 . S
H2077 C2082 0.949 . S
H2078 C2084 0.950 . S
H2079 C2085 0.950 . S
H2080 C2086 0.949 . S
C2081 H2076 0.950 . S
C2081 C2083 1.327 . S
C2081 C2087 1.429 . S
C2082 C2074 1.574 . S
C2082 H2077 0.949 . S
C2082 C2088 1.368 . S
C2083 C2067 1.349 . S
C2083 H2075 0.950 . S
C2083 C2081 1.327 . S
C2084 C2072 1.349 . S
C2084 H2078 0.950 . S
C2084 C2085 1.327 . S
C2085 H2079 0.950 . S
C2085 C2084 1.327 . S
C2085 C2089 1.429 . S
C2086 C2069 1.574 . S
C2086 H2080 0.949 . S
C2086 C2090 1.368 . S
C2087 C2068 1.429 . S
C2087 C2081 1.429 . S
C2087 C2088 1.523 . S
C2088 C2069 1.368 . S
C2088 C2082 1.368 . S
C2088 C2087 1.523 . S
C2089 C2073 1.429 . S
C2089 C2085 1.429 . S
C2089 C2090 1.523 . S
C2090 C2074 1.368 . S
C2090 C2086 1.368 . S
C2090 C2089 1.523 . S
H2091 C2066 0.950 . S
H2092 C2068 0.950 . S
H2093 C2069 0.949 . S
H2094 C2071 0.950 . S
H2095 C2073 0.950 . S
C2096 C2097 1.349 1_556 S
C2096 C2098 1.327 . S
C2096 H2121 0.950 . S
C2097 C2096 1.349 1_554 S
C2097 C2113 1.349 . S
C2098 C2096 1.327 . S
C2098 C2117 1.429 . S
C2098 H2122 0.950 . S
C2099 C2116 1.574 . S
C2099 C2118 1.368 . S
C2099 H2123 0.949 . S
H2100 C2104 0.949 . S
C2101 C2102 1.349 . S
C2101 C2103 1.327 . S
C2101 H2124 0.950 . S
C2102 C2101 1.349 . S
C2102 C2114 1.349 . S
C2103 C2101 1.327 . S
C2103 C2119 1.429 . S
C2103 H2125 0.950 . S
C2104 H2100 0.949 . S
C2104 C2112 1.574 . S
C2104 C2120 1.368 . S
H2105 C2113 0.950 . S
H2106 C2111 0.950 . S
H2107 C2112 0.949 . S
H2108 C2114 0.950 . S
H2109 C2115 0.950 . S
H2110 C2116 0.949 . S
C2111 H2106 0.950 . S
C2111 C2113 1.327 1_556 S
C2111 C2117 1.429 . S
C2112 C2104 1.574 . S
C2112 H2107 0.949 . S
C2112 C2118 1.368 . S
C2113 C2097 1.349 . S
C2113 H2105 0.950 . S
C2113 C2111 1.327 1_554 S
C2114 C2102 1.349 . S
C2114 H2108 0.950 . S
C2114 C2115 1.327 . S
C2115 H2109 0.950 . S
C2115 C2114 1.327 . S
C2115 C2119 1.429 . S
C2116 C2099 1.574 . S
C2116 H2110 0.949 . S
C2116 C2120 1.368 . S
C2117 C2098 1.429 . S
C2117 C2111 1.429 . S
C2117 C2118 1.523 . S
C2118 C2099 1.368 . S
C2118 C2112 1.368 . S
C2118 C2117 1.523 . S
C2119 C2103 1.429 . S
C2119 C2115 1.429 . S
C2119 C2120 1.523 . S
C2120 C2104 1.368 . S
C2120 C2116 1.368 . S
C2120 C2119 1.523 . S
H2121 C2096 0.950 . S
H2122 C2098 0.950 . S
H2123 C2099 0.949 . S
H2124 C2101 0.950 . S
H2125 C2103 0.950 . S
C2126 C2127 1.349 . S
C2126 C2128 1.327 . S
C2126 H2151 0.950 . S
C2127 C2126 1.349 . S
C2127 C2143 1.349 . S
C2128 C2126 1.327 . S
C2128 C2147 1.429 . S
C2128 H2152 0.950 . S
C2129 C2146 1.574 . S
C2129 C2148 1.368 . S
C2129 H2153 0.949 . S
H2130 C2134 0.949 . S
C2131 C2132 1.349 . S
C2131 C2133 1.327 . S
C2131 H2154 0.950 . S
C2132 C2131 1.349 . S
C2132 C2144 1.349 . S
C2133 C2131 1.327 . S
C2133 C2149 1.429 . S
C2133 H2155 0.950 . S
C2134 H2130 0.949 . S
C2134 C2142 1.574 . S
C2134 C2150 1.368 . S
H2135 C2143 0.950 . S
H2136 C2141 0.950 . S
H2137 C2142 0.949 . S
H2138 C2144 0.950 . S
H2139 C2145 0.950 . S
H2140 C2146 0.949 . S
C2141 H2136 0.950 . S
C2141 C2143 1.327 . S
C2141 C2147 1.429 . S
C2142 C2134 1.574 . S
C2142 H2137 0.949 . S
C2142 C2148 1.368 . S
C2143 C2127 1.349 . S
C2143 H2135 0.950 . S
C2143 C2141 1.327 . S
C2144 C2132 1.349 . S
C2144 H2138 0.950 . S
C2144 C2145 1.327 . S
C2145 H2139 0.950 . S
C2145 C2144 1.327 . S
C2145 C2149 1.429 . S
C2146 C2129 1.574 . S
C2146 H2140 0.949 . S
C2146 C2150 1.368 . S
C2147 C2128 1.429 . S
C2147 C2141 1.429 . S
C2147 C2148 1.523 . S
C2148 C2129 1.368 . S
C2148 C2142 1.368 . S
C2148 C2147 1.523 . S
C2149 C2133 1.429 . S
C2149 C2145 1.429 . S
C2149 C2150 1.523 . S
C2150 C2134 1.368 . S
C2150 C2146 1.368 . S
C2150 C2149 1.523 . S
H2151 C2126 0.950 . S
H2152 C2128 0.950 . S
H2153 C2129 0.949 . S
H2154 C2131 0.950 . S
H2155 C2133 0.950 . S
C2156 C2157 1.349 . S
C2156 C2158 1.327 . S
C2156 H2181 0.950 . S
C2157 C2156 1.349 . S
C2157 C2173 1.349 . S
C2158 C2156 1.327 . S
C2158 C2177 1.429 . S
C2158 H2182 0.950 . S
C2159 C2176 1.574 . S
C2159 C2178 1.368 . S
C2159 H2183 0.949 . S
H2160 C2164 0.949 . S
C2161 C2162 1.349 . S
C2161 C2163 1.327 . S
C2161 H2184 0.950 . S
C2162 C2161 1.349 . S
C2162 C2174 1.349 . S
C2163 C2161 1.327 . S
C2163 C2179 1.429 . S
C2163 H2185 0.950 . S
C2164 H2160 0.949 . S
C2164 C2172 1.574 . S
C2164 C2180 1.368 . S
H2165 C2173 0.950 . S
H2166 C2171 0.950 . S
H2167 C2172 0.949 . S
H2168 C2174 0.950 . S
H2169 C2175 0.950 . S
H2170 C2176 0.949 . S
C2171 H2166 0.950 . S
C2171 C2173 1.327 . S
C2171 C2177 1.429 . S
C2172 C2164 1.574 . S
C2172 H2167 0.949 . S
C2172 C2178 1.368 . S
C2173 C2157 1.349 . S
C2173 H2165 0.950 . S
C2173 C2171 1.327 . S
C2174 C2162 1.349 . S
C2174 H2168 0.950 . S
C2174 C2175 1.327 . S
C2175 H2169 0.950 . S
C2175 C2174 1.327 . S
C2175 C2179 1.429 . S
C2176 C2159 1.574 . S
C2176 H2170 0.949 . S
C2176 C2180 1.368 . S
C2177 C2158 1.429 . S
C2177 C2171 1.429 . S
C2177 C2178 1.523 . S
C2178 C2159 1.368 . S
C2178 C2172 1.368 . S
C2178 C2177 1.523 . S
C2179 C2163 1.429 . S
C2179 C2175 1.429 . S
C2179 C2180 1.523 . S
C2180 C2164 1.368 . S
C2180 C2176 1.368 . S
C2180 C2179 1.523 . S
H2181 C2156 0.950 . S
H2182 C2158 0.950 . S
H2183 C2159 0.949 . S
H2184 C2161 0.950 . S
H2185 C2163 0.950 . S
C2186 C2187 1.349 . S
C2186 C2188 1.327 . S
C2186 H2211 0.950 . S
C2187 C2186 1.349 . S
C2187 C2203 1.349 . S
C2188 C2186 1.327 . S
C2188 C2207 1.429 . S
C2188 H2212 0.950 . S
C2189 C2206 1.574 . S
C2189 C2208 1.368 . S
C2189 H2213 0.949 . S
H2190 C2194 0.949 . S
C2191 C2192 1.349 . S
C2191 C2193 1.327 . S
C2191 H2214 0.950 . S
C2192 C2191 1.349 . S
C2192 C2204 1.349 . S
C2193 C2191 1.327 . S
C2193 C2209 1.429 . S
C2193 H2215 0.950 . S
C2194 H2190 0.949 . S
C2194 C2202 1.574 . S
C2194 C2210 1.368 . S
H2195 C2203 0.950 . S
H2196 C2201 0.950 . S
H2197 C2202 0.949 . S
H2198 C2204 0.950 . S
H2199 C2205 0.950 . S
H2200 C2206 0.949 . S
C2201 H2196 0.950 . S
C2201 C2203 1.327 . S
C2201 C2207 1.429 . S
C2202 C2194 1.574 . S
C2202 H2197 0.949 . S
C2202 C2208 1.368 . S
C2203 C2187 1.349 . S
C2203 H2195 0.950 . S
C2203 C2201 1.327 . S
C2204 C2192 1.349 . S
C2204 H2198 0.950 . S
C2204 C2205 1.327 . S
C2205 H2199 0.950 . S
C2205 C2204 1.327 . S
C2205 C2209 1.429 . S
C2206 C2189 1.574 . S
C2206 H2200 0.949 . S
C2206 C2210 1.368 . S
C2207 C2188 1.429 . S
C2207 C2201 1.429 . S
C2207 C2208 1.523 . S
C2208 C2189 1.368 . S
C2208 C2202 1.368 . S
C2208 C2207 1.523 . S
C2209 C2193 1.429 . S
C2209 C2205 1.429 . S
C2209 C2210 1.523 . S
C2210 C2194 1.368 . S
C2210 C2206 1.368 . S
C2210 C2209 1.523 . S
H2211 C2186 0.950 . S
H2212 C2188 0.950 . S
H2213 C2189 0.949 . S
H2214 C2191 0.950 . S
H2215 C2193 0.950 . S
C2216 C2217 1.349 . S
C2216 C2218 1.327 . S
C2216 H2241 0.950 . S
C2217 C2216 1.349 . S
C2217 C2233 1.349 . S
C2218 C2216 1.327 . S
C2218 C2237 1.429 . S
C2218 H2242 0.950 . S
C2219 C2236 1.574 . S
C2219 C2238 1.368 . S
C2219 H2243 0.949 . S
H2220 C2224 0.949 . S
C2221 C2222 1.349 . S
C2221 C2223 1.327 . S
C2221 H2244 0.950 . S
C2222 C2221 1.349 . S
C2222 C2234 1.349 . S
C2223 C2221 1.327 . S
C2223 C2239 1.429 . S
C2223 H2245 0.950 . S
C2224 H2220 0.949 . S
C2224 C2232 1.574 . S
C2224 C2240 1.368 . S
H2225 C2233 0.950 . S
H2226 C2231 0.950 . S
H2227 C2232 0.949 . S
H2228 C2234 0.950 . S
H2229 C2235 0.950 . S
H2230 C2236 0.949 . S
C2231 H2226 0.950 . S
C2231 C2233 1.327 . S
C2231 C2237 1.429 . S
C2232 C2224 1.574 . S
C2232 H2227 0.949 . S
C2232 C2238 1.368 . S
C2233 C2217 1.349 . S
C2233 H2225 0.950 . S
C2233 C2231 1.327 . S
C2234 C2222 1.349 . S
C2234 H2228 0.950 . S
C2234 C2235 1.327 . S
C2235 H2229 0.950 . S
C2235 C2234 1.327 . S
C2235 C2239 1.429 . S
C2236 C2219 1.574 . S
C2236 H2230 0.949 . S
C2236 C2240 1.368 . S
C2237 C2218 1.429 . S
C2237 C2231 1.429 . S
C2237 C2238 1.523 . S
C2238 C2219 1.368 . S
C2238 C2232 1.368 . S
C2238 C2237 1.523 . S
C2239 C2223 1.429 . S
C2239 C2235 1.429 . S
C2239 C2240 1.523 . S
C2240 C2224 1.368 . S
C2240 C2236 1.368 . S
C2240 C2239 1.523 . S
H2241 C2216 0.950 . S
H2242 C2218 0.950 . S
H2243 C2219 0.949 . S
H2244 C2221 0.950 . S
H2245 C2223 0.950 . S
C2246 C2247 1.349 . S
C2246 C2248 1.327 . S
C2246 H2271 0.950 . S
C2247 C2246 1.349 . S
C2247 C2263 1.349 . S
C2248 C2246 1.327 . S
C2248 C2267 1.429 . S
C2248 H2272 0.950 . S
C2249 C2266 1.574 . S
C2249 C2268 1.368 . S
C2249 H2273 0.949 . S
H2250 C2254 0.949 . S
C2251 C2252 1.349 . S
C2251 C2253 1.327 . S
C2251 H2274 0.950 . S
C2252 C2251 1.349 . S
C2252 C2264 1.349 . S
C2253 C2251 1.327 . S
C2253 C2269 1.429 . S
C2253 H2275 0.950 . S
C2254 H2250 0.949 . S
C2254 C2262 1.574 . S
C2254 C2270 1.368 . S
H2255 C2263 0.950 . S
H2256 C2261 0.950 . S
H2257 C2262 0.949 . S
H2258 C2264 0.950 . S
H2259 C2265 0.950 . S
H2260 C2266 0.949 . S
C2261 H2256 0.950 . S
C2261 C2263 1.327 . S
C2261 C2267 1.429 . S
C2262 C2254 1.574 . S
C2262 H2257 0.949 . S
C2262 C2268 1.368 . S
C2263 C2247 1.349 . S
C2263 H2255 0.950 . S
C2263 C2261 1.327 . S
C2264 C2252 1.349 . S
C2264 H2258 0.950 . S
C2264 C2265 1.327 . S
C2265 H2259 0.950 . S
C2265 C2264 1.327 . S
C2265 C2269 1.429 . S
C2266 C2249 1.574 . S
C2266 H2260 0.949 . S
C2266 C2270 1.368 . S
C2267 C2248 1.429 . S
C2267 C2261 1.429 . S
C2267 C2268 1.523 . S
C2268 C2249 1.368 . S
C2268 C2262 1.368 . S
C2268 C2267 1.523 . S
C2269 C2253 1.429 . S
C2269 C2265 1.429 . S
C2269 C2270 1.523 . S
C2270 C2254 1.368 . S
C2270 C2266 1.368 . S
C2270 C2269 1.523 . S
H2271 C2246 0.950 . S
H2272 C2248 0.950 . S
H2273 C2249 0.949 . S
H2274 C2251 0.950 . S
H2275 C2253 0.950 . S
C2276 C2277 1.349 . S
C2276 C2278 1.327 . S
C2276 H2301 0.950 . S
C2277 C2276 1.349 . S
C2277 C2293 1.349 . S
C2278 C2276 1.327 . S
C2278 C2297 1.429 . S
C2278 H2302 0.950 . S
C2279 C2296 1.574 . S
C2279 C2298 1.368 . S
C2279 H2303 0.949 . S
H2280 C2284 0.949 . S
C2281 C2282 1.349 . S
C2281 C2283 1.327 . S
C2281 H2304 0.950 . S
C2282 C2281 1.349 . S
C2282 C2294 1.349 . S
C2283 C2281 1.327 . S
C2283 C2299 1.429 . S
C2283 H2305 0.950 . S
C2284 H2280 0.949 . S
C2284 C2292 1.574 . S
C2284 C2300 1.368 . S
H2285 C2293 0.950 . S
H2286 C2291 0.950 . S
H2287 C2292 0.949 . S
H2288 C2294 0.950 . S
H2289 C2295 0.950 . S
H2290 C2296 0.949 . S
C2291 H2286 0.950 . S
C2291 C2293 1.327 . S
C2291 C2297 1.429 . S
C2292 C2284 1.574 . S
C2292 H2287 0.949 . S
C2292 C2298 1.368 . S
C2293 C2277 1.349 . S
C2293 H2285 0.950 . S
C2293 C2291 1.327 . S
C2294 C2282 1.349 . S
C2294 H2288 0.950 . S
C2294 C2295 1.327 . S
C2295 H2289 0.950 . S
C2295 C2294 1.327 . S
C2295 C2299 1.429 . S
C2296 C2279 1.574 . S
C2296 H2290 0.949 . S
C2296 C2300 1.368 . S
C2297 C2278 1.429 . S
C2297 C2291 1.429 . S
C2297 C2298 1.523 . S
C2298 C2279 1.368 . S
C2298 C2292 1.368 . S
C2298 C2297 1.523 . S
C2299 C2283 1.429 . S
C2299 C2295 1.429 . S
C2299 C2300 1.523 . S
C2300 C2284 1.368 . S
C2300 C2296 1.368 . S
C2300 C2299 1.523 . S
H2301 C2276 0.950 . S
H2302 C2278 0.950 . S
H2303 C2279 0.949 . S
H2304 C2281 0.950 . S
H2305 C2283 0.950 . S
C2306 C2307 1.349 . S
C2306 C2308 1.327 . S
C2306 H2331 0.950 . S
C2307 C2306 1.349 . S
C2307 C2323 1.349 . S
C2308 C2306 1.327 . S
C2308 C2327 1.429 . S
C2308 H2332 0.950 . S
C2309 C2326 1.574 . S
C2309 C2328 1.368 . S
C2309 H2333 0.949 . S
H2310 C2314 0.949 1_554 S
C2311 C2312 1.349 1_556 S
C2311 C2313 1.327 . S
C2311 H2334 0.950 . S
C2312 C2311 1.349 1_554 S
C2312 C2324 1.349 . S
C2313 C2311 1.327 . S
C2313 C2329 1.429 . S
C2313 H2335 0.950 . S
C2314 H2310 0.949 1_556 S
C2314 C2322 1.574 . S
C2314 C2330 1.368 . S
H2315 C2323 0.950 . S
H2316 C2321 0.950 . S
H2317 C2322 0.949 . S
H2318 C2324 0.950 . S
H2319 C2325 0.950 . S
H2320 C2326 0.949 . S
C2321 H2316 0.950 . S
C2321 C2323 1.327 . S
C2321 C2327 1.429 . S
C2322 C2314 1.574 . S
C2322 H2317 0.949 . S
C2322 C2328 1.368 . S
C2323 C2307 1.349 . S
C2323 H2315 0.950 . S
C2323 C2321 1.327 . S
C2324 C2312 1.349 . S
C2324 H2318 0.950 . S
C2324 C2325 1.327 . S
C2325 H2319 0.950 . S
C2325 C2324 1.327 . S
C2325 C2329 1.429 1_554 S
C2326 C2309 1.574 . S
C2326 H2320 0.949 . S
C2326 C2330 1.368 . S
C2327 C2308 1.429 . S
C2327 C2321 1.429 . S
C2327 C2328 1.523 . S
C2328 C2309 1.368 . S
C2328 C2322 1.368 . S
C2328 C2327 1.523 . S
C2329 C2313 1.429 . S
C2329 C2325 1.429 1_556 S
C2329 C2330 1.523 . S
C2330 C2314 1.368 . S
C2330 C2326 1.368 . S
C2330 C2329 1.523 . S
H2331 C2306 0.950 . S
H2332 C2308 0.950 . S
H2333 C2309 0.949 . S
H2334 C2311 0.950 . S
H2335 C2313 0.950 . S
C417 C105 1.996 . S
C422 C10 1.996 . S
C447 C14 2.079 . S
C452 C335 2.079 . S
C477 C36 1.996 . S
C482 C131 1.996 . S
C507 C40 2.079 . S
C512 C361 2.079 . S
C537 C62 1.996 . S
C542 C157 1.996 . S
C567 C387 2.079 . S
C572 C66 2.079 . S
C597 C183 1.996 . S
C602 C88 1.996 . S
C627 C413 2.079 . S
C632 C92 2.079 . S
C657 C222 2.079 . S
C662 C127 2.079 . S
C687 C153 2.079 . S
C692 C248 2.079 . S
C717 C179 2.079 . S
C722 C274 2.079 . S
C747 C300 2.079 . S
C752 C205 2.079 . S
C777 C313 1.983 1_565 S
C782 C218 1.983 1_545 S
C807 C244 1.984 1_565 S
C812 C339 1.984 1_545 S
C837 C270 1.984 1_565 S
C842 C365 1.984 1_545 S
C867 C391 1.983 1_565 S
C872 C296 1.983 1_545 S
C897 C3 1.792 1_556 S
C902 C55 1.792 . S
C927 C70 1.747 . S
C932 C18 1.747 . S
C957 C81 1.791 . S
C962 C29 1.791 . S
C987 C44 1.747 . S
C992 C96 1.747 . S
C1017 C109 1.791 . S
C1022 C161 1.791 . S
C1047 C120 1.747 . S
C1052 C172 1.747 . S
C1077 C187 1.792 1_556 S
C1082 C135 1.792 . S
C1107 C198 1.747 . S
C1112 C146 1.747 . S
C1137 C263 1.791 . S
C1142 C211 1.791 . S
C1167 C278 1.747 . S
C1172 C226 1.747 . S
C1197 C237 1.791 1_556 S
C1202 C289 1.791 . S
C1227 C304 1.747 . S
C1232 C252 1.747 . S
C1257 C369 1.791 1_556 S
C1262 C317 1.791 . S
C1287 C328 1.747 . S
C1292 C380 1.747 . S
C1317 C395 1.791 . S
C1322 C343 1.791 . S
C1347 C406 1.747 . S
C1352 C354 1.747 . S
C1377 C53 0.233 . S
C1382 C1 0.233 . S
C1407 C75 0.304 . S
C1412 C23 0.304 . S
C1437 C27 0.233 . S
C1442 C79 0.233 . S
C1467 C101 0.304 . S
C1472 C49 0.304 . S
C1497 C166 0.233 . S
C1502 C114 0.233 . S
C1527 C118 0.304 . S
C1532 C170 0.304 . S
C1557 C192 0.233 . S
C1562 C140 0.233 . S
C1587 C196 0.304 . S
C1592 C144 0.304 . S
C1617 C209 0.233 . S
C1622 C261 0.233 . S
C1647 C283 0.304 . S
C1652 C231 0.304 . S
C1677 C287 0.233 . S
C1682 C235 0.233 . S
C1707 C309 0.304 . S
C1712 C257 0.304 . S
C1737 C374 0.233 . S
C1742 C322 0.233 . S
C1767 C326 0.304 . S
C1772 C378 0.304 . S
C1797 C348 0.233 . S
C1802 C400 0.233 . S
C1827 C352 0.304 . S
C1832 C404 0.304 . S
C1857 C5 2.098 . S
C1862 C276 2.172 . S
C1887 C291 2.098 . S
C1892 C16 2.172 . S
C1917 C31 2.098 . S
C1922 C302 2.172 . S
C1947 C42 2.172 . S
C1952 C265 2.098 . S
C1977 C250 2.172 . S
C1982 C57 2.098 . S
C2007 C213 2.098 . S
C2012 C68 2.172 . S
C2037 C224 2.172 . S
C2042 C83 2.098 . S
C2067 C94 2.172 . S
C2072 C239 2.098 . S
C2097 C107 2.098 . S
C2102 C382 2.172 . S
C2127 C393 2.098 . S
C2132 C122 2.172 . S
C2157 C408 2.172 . S
C2162 C133 2.098 . S
C2187 C367 2.098 . S
C2192 C148 2.172 . S
C2217 C356 2.172 . S
C2222 C159 2.098 . S
C2247 C315 2.098 . S
C2252 C174 2.172 . S
C2277 C185 2.098 . S
C2282 C330 2.172 . S
C2307 C200 2.172 . S
C2312 C341 2.098 . S
