# Generated by pormake.
# Topology unf, (4)-cn, num edge types: 1
# Building blocks:
#     Node 0, Type 0, BuildingBlock: ICAMEG_clean_sbu_1, # of connection points: 4
#     Node 1, Type 0, BuildingBlock: ICAMEG_clean_sbu_1, # of connection points: 4
#     Node 2, Type 0, BuildingBlock: ICAMEG_clean_sbu_1, # of connection points: 4
#     Node 3, Type 0, BuildingBlock: ICAMEG_clean_sbu_1, # of connection points: 4
#     Node 4, Type 0, BuildingBlock: ICAMEG_clean_sbu_1, # of connection points: 4
#     Node 5, Type 0, BuildingBlock: ICAMEG_clean_sbu_1, # of connection points: 4
#     Node 6, Type 0, BuildingBlock: ICAMEG_clean_sbu_1, # of connection points: 4
#     Node 7, Type 0, BuildingBlock: ICAMEG_clean_sbu_1, # of connection points: 4
#     Node 8, Type 0, BuildingBlock: ICAMEG_clean_sbu_1, # of connection points: 4
#     Node 9, Type 0, BuildingBlock: ICAMEG_clean_sbu_1, # of connection points: 4
#     Node 10, Type 0, BuildingBlock: ICAMEG_clean_sbu_1, # of connection points: 4
#     Node 11, Type 0, BuildingBlock: ICAMEG_clean_sbu_1, # of connection points: 4
#     Edge 12, Type (0, 0), None
#     Edge 13, Type (0, 0), None
#     Edge 14, Type (0, 0), None
#     Edge 15, Type (0, 0), None
#     Edge 16, Type (0, 0), None
#     Edge 17, Type (0, 0), None
#     Edge 18, Type (0, 0), None
#     Edge 19, Type (0, 0), None
#     Edge 20, Type (0, 0), None
#     Edge 21, Type (0, 0), None
#     Edge 22, Type (0, 0), None
#     Edge 23, Type (0, 0), None
#     Edge 24, Type (0, 0), None
#     Edge 25, Type (0, 0), None
#     Edge 26, Type (0, 0), None
#     Edge 27, Type (0, 0), None
#     Edge 28, Type (0, 0), None
#     Edge 29, Type (0, 0), None
#     Edge 30, Type (0, 0), None
#     Edge 31, Type (0, 0), None
#     Edge 32, Type (0, 0), None
#     Edge 33, Type (0, 0), None
#     Edge 34, Type (0, 0), None
#     Edge 35, Type (0, 0), None
# Relax obj value: 0.245
# Max RMSD: 0.200
# Mean RMSD: 0.200
data_MOF--net-unf--node1-ICAMEG_clean_sbu_1--edge1-none
_symmetry_space_group_name_H-M    P1
_symmetry_Int_Tables_number       1
_symmetry_cell_setting            triclinic
loop_
_symmetry_equiv_pos_as_xyz
'x, y, z'
_cell_length_a     19.579958
_cell_length_b     19.693113
_cell_length_c     21.795005
_cell_angle_alpha  90.068745
_cell_angle_beta   88.828203
_cell_angle_gamma 120.20355
loop_
_atom_site_label
_atom_site_type_symbol
_atom_site_fract_x
_atom_site_fract_y
_atom_site_fract_z
_atom_type_partial_charge
Co0 Co 0.02099 0.33235 0.94833 0.0
Co1 Co -0.02 0.32599 0.09794 0.0
O2 O 0.05041 0.3293 0.03372 0.0
C3 C 0.1114 0.25098 0.95793 0.0
O4 O 0.06058 0.2063 0.00073 0.0
C5 C 0.14087 0.41453 0.20617 0.0
O6 O 0.18307 0.49122 0.21089 0.0
O7 O -0.02174 0.42803 0.05048 0.0
O8 O -0.0554 0.37091 0.96217 0.0
H9 H 0.7414 0.33309 0.16936 0.0
H10 H 0.12329 0.46296 0.03626 0.0
O11 O 0.09562 0.29383 0.92377 0.0
H12 H 0.2739 0.51369 0.84476 0.0
H13 H 0.93188 0.45556 0.79385 0.0
H14 H 0.91059 0.20989 0.86232 0.0
H15 H 0.13006 0.43233 0.84451 0.0
H16 H 0.03247 0.45977 0.86247 0.0
O17 O 0.08164 0.38661 0.16432 0.0
H18 H 0.85143 0.35609 0.09793 0.0
H19 H -0.06007 0.26388 0.22787 0.0
H20 H 0.79223 0.21546 0.83071 0.0
H21 H 0.26086 0.49601 0.0402 0.0
H22 H 0.80612 0.33499 0.78729 0.0
H23 H 0.33355 0.50702 0.94006 0.0
O24 O 0.93393 0.22453 0.96431 0.0
H25 H 0.08517 0.14817 0.15832 0.0
H26 H 0.84385 0.16223 0.13242 0.0
H27 H 0.83411 0.0401 0.17032 0.0
H28 H -0.04434 0.03402 0.1869 0.0
H29 H 0.08939 0.26584 0.1138 0.0
H30 H 0.81281 0.2067 0.28488 0.0
H31 H 0.72648 0.26395 0.2674 0.0
O32 O 0.88544 0.25642 0.04538 0.0
C33 C -0.04713 0.42748 -0.0069 0.0
C34 C 0.78511 0.31815 0.18242 0.0
C35 C 0.8254 0.24769 0.24756 0.0
N36 N 0.90519 0.31783 0.1604 0.0
C37 C 0.84786 0.33273 0.14289 0.0
C38 C 0.89607 0.27826 0.21394 0.0
C39 C 0.77544 0.27729 0.2365 0.0
C40 C 0.1541 0.46642 -0.0063 0.0
N41 N 0.1141 0.43644 0.94034 0.0
C42 C 0.23337 0.48866 -0.00371 0.0
C43 C 0.27479 0.49837 0.94138 0.0
C44 C 0.23921 0.49563 0.88683 0.0
C45 C 0.15731 0.45614 0.88669 0.0
C46 C 0.92724 0.4031 0.8122 0.0
C47 C 0.91621 0.26552 0.85072 0.0
C48 C -0.01329 0.40351 0.84718 0.0
N49 N -0.01836 0.33423 0.86688 0.0
C50 C 0.84957 0.26625 0.82948 0.0
C51 C 0.85613 0.33473 0.80736 0.0
C52 C 0.88042 0.2067 0.0051 0.0
C53 C 0.03206 0.15146 0.15356 0.0
C54 C 0.89747 0.16037 0.13828 0.0
C55 C 0.89116 0.09061 0.15988 0.0
C56 C -0.04077 0.08693 0.16896 0.0
N57 N -0.03002 0.22616 0.12732 0.0
C58 C 0.0355 0.21964 0.1312 0.0
Co59 Co 0.54863 0.6589 0.94789 0.0
Co60 Co 0.56598 0.62754 0.09548 0.0
O61 O 0.55306 0.68702 0.03258 0.0
C62 C 0.63739 0.83133 0.95614 0.0
O63 O 0.68714 0.82839 -0.00637 0.0
C64 C 0.48119 0.69923 0.20508 0.0
O65 O 0.40561 0.66919 0.21804 0.0
O66 O 0.47209 0.51323 0.05247 0.0
O67 O 0.5054 0.54392 0.95514 0.0
H68 H 0.59273 0.41362 0.19879 0.0
H69 H 0.40349 0.57295 0.03095 0.0
O70 O 0.59141 0.77165 0.92509 0.0
H71 H 0.41168 0.80113 0.93962 0.0
H72 H 0.40002 0.49236 0.77265 0.0
H73 H 0.65588 0.63706 0.86326 0.0
H74 H 0.46021 0.72592 0.87849 0.0
H75 H 0.41877 0.58602 0.85356 0.0
O76 O 0.49986 0.66159 0.16138 0.0
H77 H 0.55052 0.47127 0.11465 0.0
H78 H 0.63183 0.67739 0.21877 0.0
H79 H 0.62 0.51375 0.81626 0.0
H80 H 0.36066 0.64757 0.09096 0.0
H81 H 0.49157 0.43931 0.76587 0.0
H82 H 0.38063 0.77244 0.04894 0.0
O83 O 0.65877 0.67795 0.95702 0.0
H84 H 0.73524 0.92133 0.12973 0.0
H85 H 0.73449 0.67232 0.11824 0.0
H86 H 0.85846 0.79347 0.1281 0.0
H87 H 0.86038 0.92053 0.13603 0.0
H88 H 0.61048 0.7961 0.11054 0.0
H89 H 0.71379 0.64168 0.27846 0.0
H90 H 0.67697 0.50308 0.28003 0.0
O91 O 0.63285 0.60316 0.0407 0.0
C92 C 0.4666 0.49044 -0.00718 0.0
C93 C 0.60757 0.47434 0.1988 0.0
C94 C 0.67366 0.60152 0.24507 0.0
N95 N 0.5871 0.57633 0.16168 0.0
C96 C 0.57975 0.50467 0.15422 0.0
C97 C 0.62789 0.62157 0.21028 0.0
C98 C 0.65716 0.52465 0.24314 0.0
C99 C 0.40581 0.6219 0.00869 0.0
N100 N 0.44369 0.64887 0.95268 0.0
C101 C 0.38211 0.66526 0.04422 0.0
C102 C 0.39139 0.73399 0.02018 0.0
C103 C 0.41148 0.75105 0.95843 0.0
C104 C 0.43522 0.70587 0.92403 0.0
C105 C 0.45135 0.51618 0.80017 0.0
C106 C 0.59746 0.6038 0.84776 0.0
C107 C 0.46613 0.57532 0.84223 0.0
N108 N 0.54032 0.6212 0.86495 0.0
C109 C 0.57841 0.53405 0.81829 0.0
C110 C 0.50534 0.4909 0.79235 0.0
C111 C 0.67942 0.64548 -0.00237 0.0
C112 C 0.7347 0.86644 0.12676 0.0
C113 C 0.73327 0.72645 0.1195 0.0
C114 C 0.80461 0.79563 0.12654 0.0
C115 C 0.80532 0.86624 0.13065 0.0
N116 N 0.66321 0.72617 0.11525 0.0
C117 C 0.66419 0.79562 0.11737 0.0
Co118 Co 0.22584 0.86232 0.94092 0.0
Co119 Co 0.24402 0.88893 0.09461 0.0
O120 O 0.18965 0.82361 0.026 0.0
C121 C 0.05605 0.77571 0.95201 0.0
O122 O 0.06274 0.8232 -0.00323 0.0
C123 C 0.18431 0.72689 0.19807 0.0
O124 O 0.20295 0.67203 0.19048 0.0
O125 O 0.35849 0.90865 0.05058 0.0
O126 O 0.33866 0.93615 0.95663 0.0
H127 H 0.33542 0.13964 0.14475 0.0
H128 H 0.27451 0.77508 0.0226 0.0
O129 O 0.11479 0.79122 0.91656 0.0
H130 H 0.15008 0.606 0.84875 0.0
H131 H 0.4362 0.9539 0.77626 0.0
H132 H 0.22486 -0.01416 0.86192 0.0
H133 H 0.20322 0.74902 0.83786 0.0
H134 H 0.33219 0.84712 0.84228 0.0
O135 O 0.21249 0.78412 0.15414 0.0
H136 H 0.37768 0.04827 0.10951 0.0
H137 H 0.21138 0.87647 0.22907 0.0
H138 H 0.35821 0.10306 0.84223 0.0
H139 H 0.19139 0.63506 0.03965 0.0
H140 H 0.45803 0.08542 0.78736 0.0
H141 H 0.10881 0.555 0.95322 0.0
O142 O 0.20094 0.94634 0.95866 0.0
H143 H -0.03003 0.76917 0.20119 0.0
H144 H 0.18047 0.00385 0.10208 0.0
H145 H 0.06299 0.00277 0.13324 0.0
H146 H -0.04335 0.88682 0.18751 0.0
H147 H 0.09043 0.77427 0.17054 0.0
H148 H 0.17887 -0.0304 0.27485 0.0
H149 H 0.23314 0.10082 0.22724 0.0
O150 O 0.26896 -0.01397 0.04368 0.0
C151 C 0.3858 0.93334 -0.00759 0.0
C152 C 0.31232 0.08468 0.16693 0.0
C153 C 0.22241 -0.01212 0.23857 0.0
N154 N 0.29217 0.95597 0.16325 0.0
C155 C 0.33641 0.03265 0.14734 0.0
C156 C 0.24462 0.93603 0.21448 0.0
C157 C 0.25368 0.06181 0.21224 0.0
C158 C 0.2472 0.73983 -0.01668 0.0
N159 N 0.242 0.77321 0.92991 0.0
C160 C 0.19921 0.65969 -0.00608 0.0
C161 C 0.15679 0.61341 0.94554 0.0
C162 C 0.17321 0.64471 0.88695 0.0
C163 C 0.21013 0.72586 0.88026 0.0
C164 C 0.39303 -0.03908 0.80165 0.0
C165 C 0.27323 -0.02198 0.84876 0.0
C166 C 0.33026 0.89966 0.83527 0.0
N167 N 0.26932 0.90787 0.85952 0.0
C168 C 0.3457 0.04458 0.83272 0.0
C169 C 0.40427 0.03539 0.80528 0.0
C170 C 0.23371 -0.00293 -0.00014 0.0
C171 C 0.01533 0.82002 0.17682 0.0
C172 C 0.13312 0.94817 0.11628 0.0
C173 C 0.06644 0.94984 0.13776 0.0
C174 C 0.00707 0.88511 0.1683 0.0
N175 N 0.14192 0.8833 0.12266 0.0
C176 C 0.08374 0.82132 0.15562 0.0
Co177 Co 0.56445 0.87917 0.50111 0.0
Co178 Co 0.58049 0.91559 0.34921 0.0
O179 O 0.5645 0.84498 0.41695 0.0
C180 C 0.65128 0.7934 0.49892 0.0
O181 O 0.70083 0.84311 0.45786 0.0
C182 C 0.53739 0.77579 0.24273 0.0
O183 O 0.61199 0.80412 0.23019 0.0
O184 O 0.48311 0.93142 0.38965 0.0
O185 O 0.5274 0.95434 0.48449 0.0
H186 H 0.608 0.15724 0.24797 0.0
H187 H 0.3975 0.81131 0.43709 0.0
O188 O 0.60406 0.80842 0.52848 0.0
H189 H 0.45081 0.61878 0.52702 0.0
H190 H 0.43831 0.95252 0.66837 0.0
H191 H 0.6883 -0.00201 0.58279 0.0
H192 H 0.47345 0.73532 0.58628 0.0
H193 H 0.44131 0.85379 0.59715 0.0
O194 O 0.51545 0.81141 0.28618 0.0
H195 H 0.55231 0.04953 0.32546 0.0
H196 H 0.64833 0.93427 0.22288 0.0
H197 H 0.67646 0.10877 0.62268 0.0
H198 H 0.38623 0.70437 0.37307 0.0
H199 H 0.55094 0.08405 0.66997 0.0
H200 H 0.42178 0.61013 0.41744 0.0
O201 O 0.67439 -0.03795 0.48479 0.0
H202 H 0.74784 0.79334 0.30788 0.0
H203 H 0.74986 0.04294 0.31688 0.0
H204 H 0.86981 0.04325 0.28423 0.0
H205 H 0.86686 0.91664 0.27145 0.0
H206 H 0.63252 0.79941 0.34856 0.0
H207 H 0.72235 0.04819 0.15794 0.0
H208 H 0.70255 0.15909 0.1686 0.0
O209 O 0.65144 0.01004 0.40049 0.0
C210 C 0.48016 0.95527 0.44744 0.0
C211 C 0.62049 0.10992 0.24537 0.0
C212 C 0.68405 0.04854 0.19407 0.0
N213 N 0.59882 -0.01407 0.28099 0.0
C214 C 0.58675 0.0477 0.28757 0.0
C215 C 0.64017 -0.01693 0.23089 0.0
C216 C 0.67172 0.11086 0.19992 0.0
C217 C 0.41478 0.77273 0.45616 0.0
N218 N 0.45613 0.79009 0.50929 0.0
C219 C 0.4083 0.71187 0.41917 0.0
C220 C 0.42788 0.65916 0.444 0.0
C221 C 0.44413 0.66394 0.50625 0.0
C222 C 0.4517 0.72781 0.54015 0.0
C223 C 0.49048 -0.03611 0.64332 0.0
C224 C 0.63159 -0.01175 0.59688 0.0
C225 C 0.49414 0.90779 0.60583 0.0
N226 N 0.56474 0.92024 0.58207 0.0
C227 C 0.62671 0.05056 0.62284 0.0
C228 C 0.55569 0.03773 0.64734 0.0
C229 C 0.69752 0.01365 0.44292 0.0
C230 C 0.74992 0.84879 0.31107 0.0
C231 C 0.74873 -0.01249 0.31567 0.0
C232 C 0.81745 -0.01158 0.29655 0.0
C233 C 0.81652 0.91777 0.29114 0.0
N234 N 0.68003 0.91783 0.32819 0.0
C235 C 0.68382 0.85139 0.33281 0.0
Co236 Co 0.03156 0.6687 0.50326 0.0
Co237 Co -0.0163 0.62577 0.35842 0.0
O238 O 0.06458 0.68976 0.41662 0.0
C239 C 0.12394 0.84597 0.48826 0.0
O240 O 0.06629 0.84674 0.4597 0.0
C241 C 0.13689 0.71853 0.2607 0.0
O242 O 0.176 0.77533 0.2992 0.0
O243 O -0.02549 0.52238 0.40486 0.0
O244 O -0.04988 0.55318 0.49681 0.0
H245 H 0.73336 0.38163 0.30984 0.0
H246 H 0.08504 0.53198 0.47538 0.0
O247 O 0.11082 0.78484 0.5189 0.0
H248 H 0.28718 0.80665 0.47969 0.0
H249 H -0.04372 0.48853 0.68287 0.0
H250 H 0.90388 0.67435 0.58087 0.0
H251 H 0.19059 0.74194 0.56561 0.0
H252 H 0.06029 0.59001 0.61173 0.0
O253 O 0.07439 0.65217 0.28358 0.0
H254 H 0.84312 0.47097 0.37339 0.0
H255 H -0.0611 0.63934 0.22978 0.0
H256 H 0.79314 0.54966 0.62165 0.0
H257 H 0.16769 0.59081 0.38082 0.0
H258 H 0.82076 0.45749 0.67492 0.0
H259 H 0.26874 0.73386 0.38202 0.0
O260 O -0.04745 0.70039 0.48582 0.0
H261 H 0.08715 0.91757 0.34532 0.0
H262 H 0.85483 0.65821 0.32028 0.0
H263 H 0.84571 0.7733 0.29928 0.0
H264 H -0.0376 0.90618 0.31484 0.0
H265 H 0.09761 0.80186 0.35788 0.0
H266 H 0.80841 0.56928 0.18101 0.0
H267 H 0.7182 0.42804 0.20926 0.0
O268 O 0.89506 0.60955 0.41655 0.0
C269 C -0.0518 0.50086 0.46287 0.0
C270 C 0.77723 0.43886 0.29251 0.0
C271 C 0.82176 0.5424 0.21837 0.0
N272 N 0.90044 0.5585 0.30427 0.0
C273 C 0.84045 0.48947 0.32803 0.0
C274 C 0.89334 0.58346 0.24799 0.0
C275 C 0.76938 0.46498 0.2359 0.0
C276 C 0.11996 0.59484 0.47037 0.0
N277 N 0.11622 0.64345 0.51342 0.0
C278 C 0.17045 0.62716 0.41906 0.0
C279 C 0.22889 0.70623 0.42091 0.0
C280 C 0.23982 0.74671 0.4759 0.0
C281 C 0.18608 0.70927 0.52485 0.0
C282 C -0.05569 0.5235 0.65228 0.0
C283 C 0.916 0.63022 0.5965 0.0
C284 C 0.00315 0.58439 0.61557 0.0
N285 N -0.01092 0.63778 0.58663 0.0
C286 C 0.85295 0.56156 0.62228 0.0
C287 C 0.8676 0.5081 0.65091 0.0
C288 C 0.89505 0.66119 0.45144 0.0
C289 C 0.03848 0.86097 0.33294 0.0
C290 C 0.90908 0.71409 0.31883 0.0
C291 C 0.90205 0.78023 0.31006 0.0
C292 C -0.03281 0.85423 0.31795 0.0
N293 N -0.01925 0.72005 0.33037 0.0
C294 C 0.0444 0.79358 0.33852 0.0
Co295 Co 0.23439 0.34506 0.5191 0.0
Co296 Co 0.26766 0.34283 0.36787 0.0
O297 O 0.20405 0.35472 0.43395 0.0
C298 C 0.06379 0.2608 0.50977 0.0
O299 O 0.06696 0.20763 0.47583 0.0
C300 C 0.16875 0.36713 0.25013 0.0
O301 O 0.13262 0.29172 0.23972 0.0
O302 O 0.37232 0.4452 0.41122 0.0
O303 O 0.34951 0.38812 0.50221 0.0
H304 H 0.51238 0.34324 0.30045 0.0
H305 H 0.27884 0.49089 0.44492 0.0
O306 O 0.12142 0.3052 0.54392 0.0
H307 H 0.24077 0.55259 0.65608 0.0
H308 H 0.44379 0.45501 0.67572 0.0
H309 H 0.23973 0.21366 0.5865 0.0
H310 H 0.20481 0.41784 0.62779 0.0
H311 H 0.33724 0.45533 0.62585 0.0
O312 O 0.22346 0.39672 0.29594 0.0
H313 H 0.4257 0.36544 0.37247 0.0
H314 H 0.24852 0.28117 0.24007 0.0
H315 H 0.36552 0.2247 0.61416 0.0
H316 H 0.27723 0.6105 0.46587 0.0
H317 H 0.46609 0.3441 0.66407 0.0
H318 H 0.26986 0.649 0.57268 0.0
O319 O 0.20708 0.23671 0.49661 0.0
H320 H -0.02392 0.14671 0.3442 0.0
H321 H 0.24162 0.18077 0.33034 0.0
H322 H 0.12715 0.05409 0.30612 0.0
H323 H -0.00677 0.03718 0.31131 0.0
H324 H 0.09543 0.27644 0.36729 0.0
H325 H 0.31536 0.2251 0.18497 0.0
H326 H 0.45769 0.27233 0.20588 0.0
O327 O 0.29546 0.27836 0.4225 0.0
C328 C 0.39647 0.44493 0.46901 0.0
C329 C 0.45231 0.32469 0.28969 0.0
C330 C 0.34451 0.26301 0.22216 0.0
N331 N 0.33468 0.33111 0.30838 0.0
C332 C 0.40442 0.3403 0.32838 0.0
C333 C 0.30593 0.29484 0.25437 0.0
C334 C 0.42174 0.28557 0.23585 0.0
C335 C 0.26719 0.5017 0.49128 0.0
N336 N 0.25057 0.4487 0.53749 0.0
C337 C 0.2671 0.57103 0.50276 0.0
C338 C 0.26112 0.59172 0.56251 0.0
C339 C 0.24361 0.53744 0.60887 0.0
C340 C 0.22756 0.46247 0.59338 0.0
C341 C 0.39952 0.40253 0.65446 0.0
C342 C 0.28591 0.26932 0.60063 0.0
C343 C 0.33418 0.40021 0.62755 0.0
N344 N 0.27728 0.33439 0.59801 0.0
C345 C 0.35566 0.27335 0.61984 0.0
C346 C 0.41262 0.34044 0.64752 0.0
C347 C 0.2462 0.22313 0.45721 0.0
C348 C 0.03504 0.15583 0.33917 0.0
C349 C 0.18447 0.17638 0.33056 0.0
C350 C 0.11941 0.10319 0.31762 0.0
C351 C 0.04428 0.09339 0.3211 0.0
N352 N 0.17619 0.24014 0.34457 0.0
C353 C 0.10195 0.22856 0.35177 0.0
Co354 Co 0.84688 0.57235 0.00821 0.0
Co355 Co 0.88387 0.5824 0.85794 0.0
O356 O 0.81318 0.56759 0.92442 0.0
C357 C 0.75765 0.65307 -0.00487 0.0
O358 O 0.81377 0.7063 0.95977 0.0
C359 C 0.72541 0.50025 0.75188 0.0
O360 O 0.68127 0.42514 0.74014 0.0
O361 O 0.90041 0.48645 0.90164 0.0
O362 O 0.9245 0.53538 -0.00507 0.0
H363 H 0.13468 0.62914 0.75361 0.0
H364 H 0.76197 0.4341 0.92584 0.0
O365 O 0.77087 0.60848 0.02928 0.0
H366 H 0.58819 0.38542 0.1023 0.0
H367 H -0.04566 0.47078 0.15953 0.0
H368 H -0.04605 0.70443 0.08973 0.0
H369 H 0.73136 0.47866 0.11197 0.0
H370 H 0.83527 0.45751 0.10876 0.0
O371 O 0.78235 0.51888 0.79425 0.0
H372 H 0.02716 0.5698 0.83501 0.0
H373 H 0.89546 0.645 0.73372 0.0
H374 H 0.08062 0.70448 0.09278 0.0
H375 H 0.62182 0.37937 0.91042 0.0
H376 H 0.07982 0.58785 0.13627 0.0
H377 H 0.53956 0.3799 -0.00114 0.0
O378 O 0.93039 0.68137 -0.01122 0.0
H379 H 0.75389 0.74598 0.82512 0.0
H380 H 0.00742 0.75253 0.82991 0.0
H381 H 0.00591 0.87352 0.81356 0.0
H382 H 0.87882 0.87129 0.81136 0.0
H383 H 0.75785 0.62282 0.84558 0.0
H384 H 0.01499 0.73857 0.67635 0.0
H385 H 0.12745 0.71832 0.67603 0.0
O386 O -0.02099 0.65088 0.9079 0.0
C387 C 0.92421 0.48515 0.95982 0.0
C388 C 0.08515 0.63875 0.75376 0.0
C389 C 0.01707 0.69854 0.70898 0.0
N390 N -0.04452 0.60362 0.78946 0.0
C391 C 0.02277 0.60095 0.79638 0.0
C392 C -0.05025 0.64504 0.74162 0.0
C393 C 0.08318 0.69086 0.71178 0.0
C394 C 0.72575 0.4278 0.96561 0.0
N395 N 0.75829 0.46579 0.0193 0.0
C396 C 0.64557 0.39574 0.95595 0.0
C397 C 0.59803 0.39045 0.00539 0.0
C398 C 0.62806 0.40328 0.06363 0.0
C399 C 0.70947 0.44866 0.06962 0.0
C400 C -0.04593 0.5198 0.13843 0.0
C401 C -0.04657 0.65067 0.10003 0.0
C402 C 0.88623 0.51441 0.1132 0.0
N403 N 0.88725 0.57996 0.0902 0.0
C404 C 0.02558 0.65314 0.10595 0.0
C405 C 0.02554 0.58748 0.12818 0.0
C406 C -0.01583 0.69944 0.94853 0.0
C407 C 0.80926 0.74668 0.82654 0.0
C408 C -0.04913 0.74955 0.83 0.0
C409 C -0.04922 0.81909 0.81992 0.0
C410 C 0.87942 0.81756 0.81841 0.0
N411 N 0.88167 0.67895 0.83771 0.0
C412 C 0.81167 0.67761 0.837 0.0
Co413 Co 0.31549 0.24239 0.00805 0.0
Co414 Co 0.30827 0.26943 0.8577 0.0
O415 O 0.31525 0.20965 0.92345 0.0
C416 C 0.23227 0.07132 -0.00372 0.0
O417 O 0.18916 0.07872 0.95454 0.0
C418 C 0.39982 0.19892 0.74875 0.0
O419 O 0.47671 0.23127 0.74171 0.0
O420 O 0.40857 0.3799 0.90058 0.0
O421 O 0.35536 0.35569 -0.00687 0.0
H422 H 0.21558 0.436 0.76806 0.0
H423 H 0.45016 0.27191 0.91812 0.0
O424 O 0.27472 0.12898 0.03152 0.0
H425 H 0.48712 0.16742 0.10971 0.0
H426 H 0.43676 0.45667 0.16172 0.0
H427 H 0.19067 0.23088 0.09606 0.0
H428 H 0.42569 0.24742 0.11093 0.0
H429 H 0.4416 0.36147 0.09074 0.0
O430 O 0.37444 0.23203 0.79208 0.0
H431 H 0.29919 0.41377 0.84128 0.0
H432 H 0.2741 0.22715 0.73104 0.0
H433 H 0.19701 0.35466 0.12992 0.0
H434 H 0.48373 0.16792 0.91342 0.0
H435 H 0.31623 0.46086 0.17078 0.0
H436 H 0.48331 0.10187 0.01128 0.0
O437 O 0.20651 0.2211 -0.00612 0.0
H438 H 0.13564 -0.01367 0.7924 0.0
H439 H 0.13934 0.23258 0.83461 0.0
H440 H 0.01743 0.11879 0.80285 0.0
H441 H 0.01431 -0.00581 0.77949 0.0
H442 H 0.25613 0.104 0.82916 0.0
H443 H 0.16578 0.22483 0.67851 0.0
H444 H 0.13606 0.32876 0.69454 0.0
O445 O 0.23851 0.29658 0.91053 0.0
C446 C 0.41029 0.40398 0.9595 0.0
C447 C 0.22488 0.38744 0.76295 0.0
C448 C 0.19939 0.27094 0.71045 0.0
N449 N 0.29373 0.32145 0.78979 0.0
C450 C 0.27584 0.37827 0.80119 0.0
C451 C 0.26327 0.27467 0.73975 0.0
C452 C 0.18175 0.32915 0.7208 0.0
C453 C 0.45185 0.24438 0.96047 0.0
N454 N 0.42092 0.25516 0.01428 0.0
C455 C 0.47333 0.18718 0.95734 0.0
C456 C 0.47749 0.15316 0.01176 0.0
C457 C 0.47417 0.18623 0.06705 0.0
C458 C 0.44171 0.23465 0.06756 0.0
C459 C 0.38441 0.40818 0.14418 0.0
C460 C 0.24654 0.28092 0.1072 0.0
C461 C 0.38507 0.34912 0.10866 0.0
N462 N 0.31575 0.28444 0.08969 0.0
C463 C 0.24739 0.3481 0.12948 0.0
C464 C 0.31597 0.41057 0.15036 0.0
C465 C 0.18882 0.25505 0.95291 0.0
C466 C 0.13559 0.03985 0.80346 0.0
C467 C 0.13913 0.17819 0.82888 0.0
C468 C 0.06914 0.11371 0.80934 0.0
C469 C 0.06756 0.04409 0.79612 0.0
N470 N 0.20722 0.17478 0.83487 0.0
C471 C 0.2043 0.10598 0.82368 0.0
Co472 Co 0.63517 0.03906 0.00496 0.0
Co473 Co 0.60731 -0.00472 0.85704 0.0
O474 O 0.6712 0.06679 0.91947 0.0
C475 C 0.80759 0.13047 -0.00039 0.0
O476 O 0.80488 0.08064 0.95842 0.0
C477 C 0.68126 0.15662 0.74921 0.0
O478 O 0.64467 0.19614 0.74043 0.0
O479 O 0.4985 -0.01327 0.90216 0.0
O480 O 0.52182 -0.04048 -0.00657 0.0
H481 H 0.36586 0.758 0.78562 0.0
H482 H 0.58235 0.11791 0.91096 0.0
O483 O 0.74562 0.11599 0.03011 0.0
H484 H 0.73359 0.30624 0.06617 0.0
H485 H 0.42236 -0.03459 0.15991 0.0
H486 H 0.63278 0.92041 0.08997 0.0
H487 H 0.64233 0.16909 0.09607 0.0
H488 H 0.52731 0.06323 0.09569 0.0
O489 O 0.64705 0.09681 0.79114 0.0
H490 H 0.45011 0.86074 0.85773 0.0
H491 H 0.6361 -0.03752 0.72662 0.0
H492 H 0.51193 0.81357 0.13351 0.0
H493 H 0.68574 0.24702 0.87926 0.0
H494 H 0.41029 0.83814 0.17822 0.0
H495 H 0.77948 0.3346 0.95723 0.0
O496 O 0.66164 0.95455 -0.00721 0.0
H497 H 0.89498 0.10623 0.7987 0.0
H498 H 0.63822 0.86372 0.82284 0.0
H499 H 0.75158 0.85636 0.78289 0.0
H500 H 0.88168 -0.02078 0.7679 0.0
H501 H 0.77888 0.10779 0.8421 0.0
H502 H 0.56812 0.84006 0.66682 0.0
H503 H 0.42294 0.75437 0.68391 0.0
O504 O 0.58413 0.90381 0.9122 0.0
C505 C 0.47299 -0.03697 0.96028 0.0
C506 C 0.42534 0.80258 0.77242 0.0
C507 C 0.53841 0.84984 0.70517 0.0
N508 N 0.54486 0.92061 0.79548 0.0
C509 C 0.47285 0.86035 0.81336 0.0
C510 C 0.57735 0.91705 0.74053 0.0
C511 C 0.458 0.79977 0.71621 0.0
C512 C 0.61708 0.15643 0.94658 0.0
N513 N 0.61778 0.12895 0.00449 0.0
C514 C 0.67706 0.2303 0.92732 0.0
C515 C 0.72761 0.28033 0.97087 0.0
C516 C 0.7069 0.26185 0.0323 0.0
C517 C 0.65229 0.18452 0.04872 0.0
C518 C 0.47024 0.95754 0.14596 0.0
C519 C 0.58708 0.93215 0.10285 0.0
C520 C 0.53334 0.01481 0.11062 0.0
N521 N 0.59177 0.00193 0.08761 0.0
C522 C 0.52018 0.87138 0.13165 0.0
C523 C 0.46237 0.88474 0.15521 0.0
C524 C 0.63001 0.90171 0.95217 0.0
C525 C 0.83867 0.05262 0.80332 0.0
C526 C 0.69406 0.91758 0.81704 0.0
C527 C 0.75857 0.91277 0.79456 0.0
C528 C 0.83118 -0.01873 0.78644 0.0
N529 N 0.70003 -0.01106 0.82858 0.0
C530 C 0.77242 0.05452 0.82573 0.0
Co531 Co 0.33291 0.06454 0.43727 0.0
Co532 Co 0.3204 0.00612 0.58422 0.0
O533 O 0.33716 0.08645 0.52537 0.0
C534 C 0.24169 0.14634 0.45663 0.0
O535 O 0.18701 0.08701 0.48866 0.0
C536 C 0.35 0.12572 0.70441 0.0
O537 O 0.27457 0.08615 0.7174 0.0
O538 O 0.42093 0.00396 0.53759 0.0
O539 O 0.37695 -0.00921 0.44268 0.0
H540 H 0.3129 0.75567 0.63395 0.0
H541 H 0.4105 0.23122 0.47526 0.0
O542 O 0.29307 0.13927 0.42546 0.0
H543 H 0.59737 0.21048 0.33394 0.0
H544 H 0.46099 0.17433 0.24587 0.0
H545 H 0.29514 0.92589 0.35735 0.0
H546 H 0.48447 0.09152 0.37958 0.0
H547 H 0.36697 0.16547 0.32735 0.0
O548 O 0.3783 0.10007 0.65738 0.0
H549 H 0.33592 0.86774 0.56938 0.0
H550 H 0.25791 0.95674 0.71434 0.0
H551 H 0.38974 0.93378 0.27704 0.0
H552 H 0.51166 0.34568 0.42021 0.0
H553 H 0.47473 0.06262 0.22295 0.0
H554 H 0.61332 0.33956 0.35638 0.0
O555 O 0.22221 -0.0267 0.44897 0.0
H556 H 0.13284 0.10755 0.6258 0.0
H557 H 0.15634 0.87105 0.62126 0.0
H558 H 0.03261 0.86176 0.65678 0.0
H559 H 0.02079 -0.01881 0.6597 0.0
H560 H 0.2591 0.11525 0.59447 0.0
H561 H 0.2038 0.83066 0.76725 0.0
H562 H 0.25211 0.73946 0.73666 0.0
O563 O 0.25481 0.9204 0.52459 0.0
C564 C 0.42363 -0.01467 0.47842 0.0
C565 C 0.30035 0.79953 0.65161 0.0
C566 C 0.24292 0.84344 0.72808 0.0
N567 N 0.30452 0.92269 0.63944 0.0
C568 C 0.31407 0.86373 0.6156 0.0
C569 C 0.27102 0.9138 0.69628 0.0
C570 C 0.26651 0.7907 0.70934 0.0
C571 C 0.45223 0.22542 0.44578 0.0
N572 N 0.43946 0.15348 0.42884 0.0
C573 C 0.51277 0.29234 0.4178 0.0
C574 C 0.5674 0.28771 0.37941 0.0
C575 C 0.55776 0.215 0.36634 0.0
C576 C 0.4945 0.14801 0.39333 0.0
C577 C 0.42251 0.11975 0.26912 0.0
C578 C 0.33011 -0.01967 0.33198 0.0
C579 C 0.36772 0.11316 0.31399 0.0
N580 N 0.33103 0.04728 0.35012 0.0
C581 C 0.38463 -0.01524 0.28769 0.0
C582 C 0.43209 0.05605 0.25738 0.0
C583 C 0.20355 0.91801 0.48818 0.0
C584 C 0.13905 0.05619 0.62661 0.0
C585 C 0.15387 0.92444 0.62493 0.0
C586 C 0.08231 0.91799 0.6438 0.0
C587 C 0.07537 -0.01532 0.64519 0.0
N588 N 0.21912 -0.00363 0.61158 0.0
C589 C 0.21011 0.06042 0.6089 0.0
Co590 Co 0.85712 0.25643 0.44639 0.0
Co591 Co 0.89275 0.28854 0.59618 0.0
O592 O 0.82042 0.22402 0.53199 0.0
C593 C 0.77564 0.08376 0.4495 0.0
O594 O 0.82315 0.08595 0.49173 0.0
C595 C 0.76184 0.18835 0.7099 0.0
O596 O 0.80383 0.15651 0.72445 0.0
O597 O 0.89607 0.39242 0.55338 0.0
O598 O 0.92776 0.37033 0.46106 0.0
H599 H 0.12292 0.54158 0.65882 0.0
H600 H 0.77812 0.34592 0.50751 0.0
O601 O 0.79256 0.14491 0.41903 0.0
H602 H 0.59728 0.0956 0.41734 0.0
H603 H 0.93413 0.45486 0.27858 0.0
H604 H -0.02233 0.25458 0.36482 0.0
H605 H 0.71857 0.18855 0.36169 0.0
H606 H 0.83168 0.35217 0.35027 0.0
O607 O 0.78988 0.24405 0.66445 0.0
H608 H 0.02531 0.44985 0.58792 0.0
H609 H 0.93742 0.27095 0.72433 0.0
H610 H 0.09231 0.38218 0.33484 0.0
H611 H 0.65278 0.26176 0.55994 0.0
H612 H 0.06898 0.4805 0.28319 0.0
H613 H 0.56418 0.12946 0.51867 0.0
O614 O -0.05495 0.23665 0.46433 0.0
H615 H 0.79349 -0.0011 0.62345 0.0
H616 H 0.02688 0.26153 0.63645 0.0
H617 H 0.0367 0.14621 0.66408 0.0
H618 H 0.91976 0.01366 0.65716 0.0
H619 H 0.78595 0.11685 0.59913 0.0
H620 H 0.06157 0.3458 0.77678 0.0
H621 H 0.14541 0.49181 0.75372 0.0
O622 O -0.01239 0.31756 0.5421 0.0
C623 C 0.92214 0.4176 0.4957 0.0
C624 C 0.08502 0.48085 0.67168 0.0
C625 C 0.04782 0.37343 0.74035 0.0
N626 N -0.0311 0.35672 0.65441 0.0
C627 C 0.02615 0.42921 0.63334 0.0
C628 C -0.02161 0.32963 0.70881 0.0
C629 C 0.09696 0.45249 0.72547 0.0
C630 C 0.73945 0.29244 0.48632 0.0
N631 N 0.76313 0.26633 0.4366 0.0
C632 C 0.66774 0.24382 0.5172 0.0
C633 C 0.61812 0.16993 0.49417 0.0
C634 C 0.63696 0.1507 0.43747 0.0
C635 C 0.70517 0.20548 0.4054 0.0
C636 C -0.05491 0.4154 0.30458 0.0
C637 C -0.03096 0.30115 0.35123 0.0
C638 C 0.88695 0.35468 0.34168 0.0
N639 N 0.89935 0.29732 0.36519 0.0
C640 C 0.03345 0.37106 0.32967 0.0
C641 C 0.02088 0.42772 0.30382 0.0
C642 C -0.00547 0.27073 0.50617 0.0
C643 C 0.84436 0.05666 0.62837 0.0
C644 C -0.02597 0.20484 0.63676 0.0
C645 C -0.01914 0.13943 0.65108 0.0
C646 C 0.91532 0.06487 0.64701 0.0
N647 N 0.90271 0.19732 0.6219 0.0
C648 C 0.83992 0.12363 0.61493 0.0
Co649 Co 0.64814 0.58369 0.45467 0.0
Co650 Co 0.61358 0.59783 0.60238 0.0
O651 O 0.67542 0.58259 0.53974 0.0
C652 C 0.82349 0.66732 0.45894 0.0
O653 O 0.82215 0.71723 0.49796 0.0
C654 C 0.70237 0.55506 0.71369 0.0
O655 O 0.73785 0.6282 0.73005 0.0
O656 O 0.50477 0.5022 0.55872 0.0
O657 O 0.53372 0.55131 0.46519 0.0
H658 H 0.37078 0.59594 0.68012 0.0
H659 H 0.52327 0.40659 0.51163 0.0
O660 O 0.76142 0.61965 0.43082 0.0
H661 H 0.78699 0.45839 0.46125 0.0
H662 H 0.4719 0.46441 0.27466 0.0
H663 H 0.65258 0.70572 0.37223 0.0
H664 H 0.71381 0.49254 0.38774 0.0
H665 H 0.56444 0.46275 0.35358 0.0
O666 O 0.64787 0.53222 0.66891 0.0
H667 H 0.44882 0.56412 0.61017 0.0
H668 H 0.64301 0.67261 0.7287 0.0
H669 H 0.52937 0.68941 0.33141 0.0
H670 H 0.59294 0.3761 0.58824 0.0
H671 H 0.43927 0.56715 0.2786 0.0
H672 H 0.73118 0.41051 0.56552 0.0
O673 O 0.67799 0.69464 0.46774 0.0
H674 H 0.90399 0.76659 0.64706 0.0
H675 H 0.65409 0.76596 0.63127 0.0
H676 H 0.77102 0.88374 0.66636 0.0
H677 H 0.89637 0.88338 0.67903 0.0
H678 H 0.7841 0.65031 0.60973 0.0
H679 H 0.57723 0.73138 0.7852 0.0
H680 H 0.43326 0.67473 0.77109 0.0
O681 O 0.59529 0.66838 0.54702 0.0
C682 C 0.48134 0.5032 0.50097 0.0
C683 C 0.43189 0.61609 0.68872 0.0
C684 C 0.54771 0.6917 0.74791 0.0
N685 N 0.55091 0.61444 0.66443 0.0
C686 C 0.47598 0.59594 0.65034 0.0
C687 C 0.58484 0.65824 0.71527 0.0
C688 C 0.46809 0.66343 0.73824 0.0
C689 C 0.58539 0.42994 0.50446 0.0
N690 N 0.62491 0.47435 0.45326 0.0
C691 C 0.62273 0.40658 0.54608 0.0
C692 C 0.69876 0.42306 0.5322 0.0
C693 C 0.72975 0.44967 0.47335 0.0
C694 C 0.68723 0.46771 0.43198 0.0
C695 C 0.5035 0.51137 0.3059 0.0
C696 C 0.60864 0.64918 0.35784 0.0
C697 C 0.56062 0.51462 0.34597 0.0
N698 N 0.61403 0.58439 0.37182 0.0
C699 C 0.54123 0.64201 0.33112 0.0
C700 C 0.48868 0.57253 0.30385 0.0
C701 C 0.64354 0.71597 0.50643 0.0
C702 C 0.84926 0.76683 0.6439 0.0
C703 C 0.70816 0.76439 0.63552 0.0
C704 C 0.77481 0.83243 0.65498 0.0
C705 C 0.84525 0.83259 0.66123 0.0
N706 N 0.70978 0.69616 0.62575 0.0
C707 C 0.7812 0.70039 0.62371 0.0
loop_
_geom_bond_atom_site_label_1
_geom_bond_atom_site_label_2
_geom_bond_distance
_geom_bond_site_symmetry_2
_ccdc_geom_bond_type
Co0 O2 2.143 1_556 S
Co0 O8 2.074 . S
Co0 O11 2.093 . S
Co0 O24 2.097 . S
Co0 N41 2.151 . S
Co0 N49 2.214 . S
Co1 O2 2.160 . S
Co1 O7 2.058 . S
Co1 O17 2.057 . S
Co1 O32 2.037 1_455 S
Co1 N36 2.145 1_455 S
Co1 N57 2.257 . S
O2 Co0 2.143 1_554 S
O2 Co1 2.160 . S
C3 O4 1.278 1_556 S
C3 O11 1.224 . S
O4 C3 1.278 1_554 S
C5 O6 1.245 . S
C5 O17 1.232 . S
O6 C5 1.245 . S
O7 Co1 2.058 . S
O7 C33 1.269 . S
O8 Co0 2.074 . S
O8 C33 1.257 1_556 S
H9 C34 0.930 . S
H10 C40 0.930 1_554 S
O11 Co0 2.093 . S
O11 C3 1.224 . S
H12 C44 0.929 . S
H13 C46 0.930 . S
H14 C47 0.930 . S
H15 C45 0.929 . S
H16 C48 0.928 . S
O17 Co1 2.057 . S
O17 C5 1.232 . S
H18 C37 0.929 . S
H19 C38 0.929 . S
H20 C50 0.931 1_655 S
H21 C42 0.929 1_554 S
H22 C51 0.930 . S
H23 C43 0.931 . S
O24 Co0 2.097 . S
O24 C52 1.214 1_455 S
H25 C53 0.929 . S
H26 C54 0.929 . S
H27 C55 0.930 . S
H28 C56 0.929 . S
H29 C58 0.930 . S
H30 C35 0.930 . S
H31 C39 0.930 . S
O32 Co1 2.037 1_655 S
O32 C52 1.234 1_554 S
C33 O7 1.269 . S
C33 O8 1.257 1_554 S
C34 H9 0.930 . S
C34 C37 1.388 . S
C34 C39 1.418 . S
C35 H30 0.930 . S
C35 C38 1.404 . S
C35 C39 1.353 . S
N36 Co1 2.145 1_655 S
N36 C37 1.397 . S
N36 C38 1.334 . S
C37 H18 0.929 . S
C37 C34 1.388 . S
C37 N36 1.397 . S
C38 H19 0.929 . S
C38 C35 1.404 . S
C38 N36 1.334 . S
C39 H31 0.930 . S
C39 C34 1.418 . S
C39 C35 1.353 . S
C40 H10 0.930 1_556 S
C40 N41 1.330 . S
C40 C42 1.446 . S
N41 Co0 2.151 . S
N41 C40 1.330 . S
N41 C45 1.418 . S
C42 H21 0.929 1_556 S
C42 C40 1.446 . S
C42 C43 1.332 . S
C43 H23 0.931 . S
C43 C42 1.332 . S
C43 C44 1.267 . S
C44 H12 0.929 . S
C44 C43 1.267 . S
C44 C45 1.251 . S
C45 H15 0.929 . S
C45 N41 1.418 . S
C45 C44 1.251 . S
C46 H13 0.930 . S
C46 C48 1.406 . S
C46 C51 1.261 . S
C47 H14 0.930 . S
C47 N49 1.325 . S
C47 C50 1.357 . S
C48 H16 0.928 . S
C48 C46 1.406 . S
C48 N49 1.261 . S
N49 Co0 2.214 . S
N49 C47 1.325 . S
N49 C48 1.261 . S
C50 H20 0.931 1_455 S
C50 C47 1.357 . S
C50 C51 1.312 . S
C51 H22 0.930 . S
C51 C46 1.261 . S
C51 C50 1.312 . S
C52 O24 1.214 1_655 S
C52 O32 1.234 1_556 S
C53 H25 0.929 . S
C53 C56 1.391 . S
C53 C58 1.391 . S
C54 H26 0.929 . S
C54 C55 1.390 . S
C54 N57 1.391 1_655 S
C55 H27 0.930 . S
C55 C54 1.390 . S
C55 C56 1.392 1_655 S
C56 H28 0.929 . S
C56 C53 1.391 . S
C56 C55 1.392 1_455 S
N57 Co1 2.257 . S
N57 C54 1.391 1_455 S
N57 C58 1.388 . S
C58 H29 0.930 . S
C58 C53 1.391 . S
C58 N57 1.388 . S
Co59 O61 2.143 1_556 S
Co59 O67 2.074 . S
Co59 O70 2.093 . S
Co59 O83 2.097 . S
Co59 N100 2.151 . S
Co59 N108 2.214 . S
Co60 O61 2.160 . S
Co60 O66 2.058 . S
Co60 O76 2.057 . S
Co60 O91 2.037 . S
Co60 N95 2.145 . S
Co60 N116 2.257 . S
O61 Co59 2.143 1_554 S
O61 Co60 2.160 . S
C62 O63 1.278 1_556 S
C62 O70 1.224 . S
O63 C62 1.278 1_554 S
C64 O65 1.245 . S
C64 O76 1.232 . S
O65 C64 1.245 . S
O66 Co60 2.058 . S
O66 C92 1.269 . S
O67 Co59 2.074 . S
O67 C92 1.257 1_556 S
H68 C93 0.930 . S
H69 C99 0.930 1_554 S
O70 Co59 2.093 . S
O70 C62 1.224 . S
H71 C103 0.929 . S
H72 C105 0.930 . S
H73 C106 0.930 . S
H74 C104 0.929 . S
H75 C107 0.928 . S
O76 Co60 2.057 . S
O76 C64 1.232 . S
H77 C96 0.929 . S
H78 C97 0.929 . S
H79 C109 0.931 . S
H80 C101 0.929 1_554 S
H81 C110 0.930 . S
H82 C102 0.931 . S
O83 Co59 2.097 . S
O83 C111 1.214 . S
H84 C112 0.929 . S
H85 C113 0.929 . S
H86 C114 0.930 . S
H87 C115 0.929 . S
H88 C117 0.930 . S
H89 C94 0.930 . S
H90 C98 0.930 . S
O91 Co60 2.037 . S
O91 C111 1.234 1_554 S
C92 O66 1.269 . S
C92 O67 1.257 1_554 S
C93 H68 0.930 . S
C93 C96 1.388 . S
C93 C98 1.418 . S
C94 H89 0.930 . S
C94 C97 1.404 . S
C94 C98 1.353 . S
N95 Co60 2.145 . S
N95 C96 1.397 . S
N95 C97 1.334 . S
C96 H77 0.929 . S
C96 C93 1.388 . S
C96 N95 1.397 . S
C97 H78 0.929 . S
C97 C94 1.404 . S
C97 N95 1.334 . S
C98 H90 0.930 . S
C98 C93 1.418 . S
C98 C94 1.353 . S
C99 H69 0.930 1_556 S
C99 N100 1.330 . S
C99 C101 1.446 . S
N100 Co59 2.151 . S
N100 C99 1.330 . S
N100 C104 1.418 . S
C101 H80 0.929 1_556 S
C101 C99 1.446 . S
C101 C102 1.332 . S
C102 H82 0.931 . S
C102 C101 1.332 . S
C102 C103 1.267 . S
C103 H71 0.929 . S
C103 C102 1.267 . S
C103 C104 1.251 . S
C104 H74 0.929 . S
C104 N100 1.418 . S
C104 C103 1.251 . S
C105 H72 0.930 . S
C105 C107 1.406 . S
C105 C110 1.261 . S
C106 H73 0.930 . S
C106 N108 1.325 . S
C106 C109 1.357 . S
C107 H75 0.928 . S
C107 C105 1.406 . S
C107 N108 1.261 . S
N108 Co59 2.214 . S
N108 C106 1.325 . S
N108 C107 1.261 . S
C109 H79 0.931 . S
C109 C106 1.357 . S
C109 C110 1.312 . S
C110 H81 0.930 . S
C110 C105 1.261 . S
C110 C109 1.312 . S
C111 O83 1.214 . S
C111 O91 1.234 1_556 S
C112 H84 0.929 . S
C112 C115 1.391 . S
C112 C117 1.391 . S
C113 H85 0.929 . S
C113 C114 1.390 . S
C113 N116 1.391 . S
C114 H86 0.930 . S
C114 C113 1.390 . S
C114 C115 1.392 . S
C115 H87 0.929 . S
C115 C112 1.391 . S
C115 C114 1.392 . S
N116 Co60 2.257 . S
N116 C113 1.391 . S
N116 C117 1.388 . S
C117 H88 0.930 . S
C117 C112 1.391 . S
C117 N116 1.388 . S
Co118 O120 2.143 1_556 S
Co118 O126 2.074 . S
Co118 O129 2.093 . S
Co118 O142 2.097 . S
Co118 N159 2.151 . S
Co118 N167 2.214 . S
Co119 O120 2.160 . S
Co119 O125 2.058 . S
Co119 O135 2.057 . S
Co119 O150 2.037 1_565 S
Co119 N154 2.145 1_565 S
Co119 N175 2.257 . S
O120 Co118 2.143 1_554 S
O120 Co119 2.160 . S
C121 O122 1.278 1_556 S
C121 O129 1.224 . S
O122 C121 1.278 1_554 S
C123 O124 1.245 . S
C123 O135 1.232 . S
O124 C123 1.245 . S
O125 Co119 2.058 . S
O125 C151 1.269 . S
O126 Co118 2.074 . S
O126 C151 1.257 1_556 S
H127 C152 0.930 . S
H128 C158 0.930 1_554 S
O129 Co118 2.093 . S
O129 C121 1.224 . S
H130 C162 0.929 . S
H131 C164 0.930 . S
H132 C165 0.930 . S
H133 C163 0.929 . S
H134 C166 0.928 . S
O135 Co119 2.057 . S
O135 C123 1.232 . S
H136 C155 0.929 . S
H137 C156 0.929 . S
H138 C168 0.931 1_545 S
H139 C160 0.929 1_554 S
H140 C169 0.930 . S
H141 C161 0.931 . S
O142 Co118 2.097 . S
O142 C170 1.214 1_565 S
H143 C171 0.929 . S
H144 C172 0.929 . S
H145 C173 0.930 . S
H146 C174 0.929 . S
H147 C176 0.930 . S
H148 C153 0.930 . S
H149 C157 0.930 . S
O150 Co119 2.037 1_545 S
O150 C170 1.234 1_554 S
C151 O125 1.269 . S
C151 O126 1.257 1_554 S
C152 H127 0.930 . S
C152 C155 1.388 . S
C152 C157 1.418 . S
C153 H148 0.930 . S
C153 C156 1.404 . S
C153 C157 1.353 . S
N154 Co119 2.145 1_545 S
N154 C155 1.397 . S
N154 C156 1.334 . S
C155 H136 0.929 . S
C155 C152 1.388 . S
C155 N154 1.397 . S
C156 H137 0.929 . S
C156 C153 1.404 . S
C156 N154 1.334 . S
C157 H149 0.930 . S
C157 C152 1.418 . S
C157 C153 1.353 . S
C158 H128 0.930 1_556 S
C158 N159 1.330 . S
C158 C160 1.446 . S
N159 Co118 2.151 . S
N159 C158 1.330 . S
N159 C163 1.418 . S
C160 H139 0.929 1_556 S
C160 C158 1.446 . S
C160 C161 1.332 . S
C161 H141 0.931 . S
C161 C160 1.332 . S
C161 C162 1.267 . S
C162 H130 0.929 . S
C162 C161 1.267 . S
C162 C163 1.251 . S
C163 H133 0.929 . S
C163 N159 1.418 . S
C163 C162 1.251 . S
C164 H131 0.930 . S
C164 C166 1.406 . S
C164 C169 1.261 . S
C165 H132 0.930 . S
C165 N167 1.325 . S
C165 C168 1.357 . S
C166 H134 0.928 . S
C166 C164 1.406 . S
C166 N167 1.261 . S
N167 Co118 2.214 . S
N167 C165 1.325 . S
N167 C166 1.261 . S
C168 H138 0.931 1_565 S
C168 C165 1.357 . S
C168 C169 1.312 . S
C169 H140 0.930 . S
C169 C164 1.261 . S
C169 C168 1.312 . S
C170 O142 1.214 1_545 S
C170 O150 1.234 1_556 S
C171 H143 0.929 . S
C171 C174 1.391 . S
C171 C176 1.391 . S
C172 H144 0.929 . S
C172 C173 1.390 . S
C172 N175 1.391 1_545 S
C173 H145 0.930 . S
C173 C172 1.390 . S
C173 C174 1.392 1_545 S
C174 H146 0.929 . S
C174 C171 1.391 . S
C174 C173 1.392 1_565 S
N175 Co119 2.257 . S
N175 C172 1.391 1_565 S
N175 C176 1.388 . S
C176 H147 0.930 . S
C176 C171 1.391 . S
C176 N175 1.388 . S
Co177 O179 2.143 . S
Co177 O185 2.074 . S
Co177 O188 2.093 . S
Co177 O201 2.097 . S
Co177 N218 2.151 . S
Co177 N226 2.214 . S
Co178 O179 2.160 . S
Co178 O184 2.058 . S
Co178 O194 2.057 . S
Co178 O209 2.037 1_565 S
Co178 N213 2.145 1_565 S
Co178 N234 2.257 . S
O179 Co177 2.143 . S
O179 Co178 2.160 . S
C180 O181 1.278 . S
C180 O188 1.224 . S
O181 C180 1.278 . S
C182 O183 1.245 . S
C182 O194 1.232 . S
O183 C182 1.245 . S
O184 Co178 2.058 . S
O184 C210 1.269 . S
O185 Co177 2.074 . S
O185 C210 1.257 . S
H186 C211 0.930 . S
H187 C217 0.930 . S
O188 Co177 2.093 . S
O188 C180 1.224 . S
H189 C221 0.929 . S
H190 C223 0.930 . S
H191 C224 0.930 . S
H192 C222 0.929 . S
H193 C225 0.928 . S
O194 Co178 2.057 . S
O194 C182 1.232 . S
H195 C214 0.929 . S
H196 C215 0.929 . S
H197 C227 0.931 1_545 S
H198 C219 0.929 . S
H199 C228 0.930 . S
H200 C220 0.931 . S
O201 Co177 2.097 . S
O201 C229 1.214 1_565 S
H202 C230 0.929 . S
H203 C231 0.929 . S
H204 C232 0.930 . S
H205 C233 0.929 . S
H206 C235 0.930 . S
H207 C212 0.930 . S
H208 C216 0.930 . S
O209 Co178 2.037 1_545 S
O209 C229 1.234 . S
C210 O184 1.269 . S
C210 O185 1.257 . S
C211 H186 0.930 . S
C211 C214 1.388 . S
C211 C216 1.418 . S
C212 H207 0.930 . S
C212 C215 1.404 . S
C212 C216 1.353 . S
N213 Co178 2.145 1_545 S
N213 C214 1.397 . S
N213 C215 1.334 . S
C214 H195 0.929 . S
C214 C211 1.388 . S
C214 N213 1.397 . S
C215 H196 0.929 . S
C215 C212 1.404 . S
C215 N213 1.334 . S
C216 H208 0.930 . S
C216 C211 1.418 . S
C216 C212 1.353 . S
C217 H187 0.930 . S
C217 N218 1.330 . S
C217 C219 1.446 . S
N218 Co177 2.151 . S
N218 C217 1.330 . S
N218 C222 1.418 . S
C219 H198 0.929 . S
C219 C217 1.446 . S
C219 C220 1.332 . S
C220 H200 0.931 . S
C220 C219 1.332 . S
C220 C221 1.267 . S
C221 H189 0.929 . S
C221 C220 1.267 . S
C221 C222 1.251 . S
C222 H192 0.929 . S
C222 N218 1.418 . S
C222 C221 1.251 . S
C223 H190 0.930 . S
C223 C225 1.406 . S
C223 C228 1.261 . S
C224 H191 0.930 . S
C224 N226 1.325 . S
C224 C227 1.357 . S
C225 H193 0.928 . S
C225 C223 1.406 . S
C225 N226 1.261 . S
N226 Co177 2.214 . S
N226 C224 1.325 . S
N226 C225 1.261 . S
C227 H197 0.931 1_565 S
C227 C224 1.357 . S
C227 C228 1.312 . S
C228 H199 0.930 . S
C228 C223 1.261 . S
C228 C227 1.312 . S
C229 O201 1.214 1_545 S
C229 O209 1.234 . S
C230 H202 0.929 . S
C230 C233 1.391 . S
C230 C235 1.391 . S
C231 H203 0.929 . S
C231 C232 1.390 . S
C231 N234 1.391 1_545 S
C232 H204 0.930 . S
C232 C231 1.390 . S
C232 C233 1.392 1_545 S
C233 H205 0.929 . S
C233 C230 1.391 . S
C233 C232 1.392 1_565 S
N234 Co178 2.257 . S
N234 C231 1.391 1_565 S
N234 C235 1.388 . S
C235 H206 0.930 . S
C235 C230 1.391 . S
C235 N234 1.388 . S
Co236 O238 2.143 . S
Co236 O244 2.074 . S
Co236 O247 2.093 . S
Co236 O260 2.097 . S
Co236 N277 2.151 . S
Co236 N285 2.214 . S
Co237 O238 2.160 . S
Co237 O243 2.058 . S
Co237 O253 2.057 . S
Co237 O268 2.037 1_455 S
Co237 N272 2.145 1_455 S
Co237 N293 2.257 . S
O238 Co236 2.143 . S
O238 Co237 2.160 . S
C239 O240 1.278 . S
C239 O247 1.224 . S
O240 C239 1.278 . S
C241 O242 1.245 . S
C241 O253 1.232 . S
O242 C241 1.245 . S
O243 Co237 2.058 . S
O243 C269 1.269 . S
O244 Co236 2.074 . S
O244 C269 1.257 . S
H245 C270 0.930 . S
H246 C276 0.930 . S
O247 Co236 2.093 . S
O247 C239 1.224 . S
H248 C280 0.929 . S
H249 C282 0.930 . S
H250 C283 0.930 . S
H251 C281 0.929 . S
H252 C284 0.928 . S
O253 Co237 2.057 . S
O253 C241 1.232 . S
H254 C273 0.929 . S
H255 C274 0.929 . S
H256 C286 0.931 1_655 S
H257 C278 0.929 . S
H258 C287 0.930 . S
H259 C279 0.931 . S
O260 Co236 2.097 . S
O260 C288 1.214 1_455 S
H261 C289 0.929 . S
H262 C290 0.929 . S
H263 C291 0.930 . S
H264 C292 0.929 . S
H265 C294 0.930 . S
H266 C271 0.930 . S
H267 C275 0.930 . S
O268 Co237 2.037 1_655 S
O268 C288 1.234 . S
C269 O243 1.269 . S
C269 O244 1.257 . S
C270 H245 0.930 . S
C270 C273 1.388 . S
C270 C275 1.418 . S
C271 H266 0.930 . S
C271 C274 1.404 . S
C271 C275 1.353 . S
N272 Co237 2.145 1_655 S
N272 C273 1.397 . S
N272 C274 1.334 . S
C273 H254 0.929 . S
C273 C270 1.388 . S
C273 N272 1.397 . S
C274 H255 0.929 . S
C274 C271 1.404 . S
C274 N272 1.334 . S
C275 H267 0.930 . S
C275 C270 1.418 . S
C275 C271 1.353 . S
C276 H246 0.930 . S
C276 N277 1.330 . S
C276 C278 1.446 . S
N277 Co236 2.151 . S
N277 C276 1.330 . S
N277 C281 1.418 . S
C278 H257 0.929 . S
C278 C276 1.446 . S
C278 C279 1.332 . S
C279 H259 0.931 . S
C279 C278 1.332 . S
C279 C280 1.267 . S
C280 H248 0.929 . S
C280 C279 1.267 . S
C280 C281 1.251 . S
C281 H251 0.929 . S
C281 N277 1.418 . S
C281 C280 1.251 . S
C282 H249 0.930 . S
C282 C284 1.406 . S
C282 C287 1.261 . S
C283 H250 0.930 . S
C283 N285 1.325 . S
C283 C286 1.357 . S
C284 H252 0.928 . S
C284 C282 1.406 . S
C284 N285 1.261 . S
N285 Co236 2.214 . S
N285 C283 1.325 . S
N285 C284 1.261 . S
C286 H256 0.931 1_455 S
C286 C283 1.357 . S
C286 C287 1.312 . S
C287 H258 0.930 . S
C287 C282 1.261 . S
C287 C286 1.312 . S
C288 O260 1.214 1_655 S
C288 O268 1.234 . S
C289 H261 0.929 . S
C289 C292 1.391 . S
C289 C294 1.391 . S
C290 H262 0.929 . S
C290 C291 1.390 . S
C290 N293 1.391 1_655 S
C291 H263 0.930 . S
C291 C290 1.390 . S
C291 C292 1.392 1_655 S
C292 H264 0.929 . S
C292 C289 1.391 . S
C292 C291 1.392 1_455 S
N293 Co237 2.257 . S
N293 C290 1.391 1_455 S
N293 C294 1.388 . S
C294 H265 0.930 . S
C294 C289 1.391 . S
C294 N293 1.388 . S
Co295 O297 2.143 . S
Co295 O303 2.074 . S
Co295 O306 2.093 . S
Co295 O319 2.097 . S
Co295 N336 2.151 . S
Co295 N344 2.214 . S
Co296 O297 2.160 . S
Co296 O302 2.058 . S
Co296 O312 2.057 . S
Co296 O327 2.037 . S
Co296 N331 2.145 . S
Co296 N352 2.257 . S
O297 Co295 2.143 . S
O297 Co296 2.160 . S
C298 O299 1.278 . S
C298 O306 1.224 . S
O299 C298 1.278 . S
C300 O301 1.245 . S
C300 O312 1.232 . S
O301 C300 1.245 . S
O302 Co296 2.058 . S
O302 C328 1.269 . S
O303 Co295 2.074 . S
O303 C328 1.257 . S
H304 C329 0.930 . S
H305 C335 0.930 . S
O306 Co295 2.093 . S
O306 C298 1.224 . S
H307 C339 0.929 . S
H308 C341 0.930 . S
H309 C342 0.930 . S
H310 C340 0.929 . S
H311 C343 0.928 . S
O312 Co296 2.057 . S
O312 C300 1.232 . S
H313 C332 0.929 . S
H314 C333 0.929 . S
H315 C345 0.931 . S
H316 C337 0.929 . S
H317 C346 0.930 . S
H318 C338 0.931 . S
O319 Co295 2.097 . S
O319 C347 1.214 . S
H320 C348 0.929 . S
H321 C349 0.929 . S
H322 C350 0.930 . S
H323 C351 0.929 . S
H324 C353 0.930 . S
H325 C330 0.930 . S
H326 C334 0.930 . S
O327 Co296 2.037 . S
O327 C347 1.234 . S
C328 O302 1.269 . S
C328 O303 1.257 . S
C329 H304 0.930 . S
C329 C332 1.388 . S
C329 C334 1.418 . S
C330 H325 0.930 . S
C330 C333 1.404 . S
C330 C334 1.353 . S
N331 Co296 2.145 . S
N331 C332 1.397 . S
N331 C333 1.334 . S
C332 H313 0.929 . S
C332 C329 1.388 . S
C332 N331 1.397 . S
C333 H314 0.929 . S
C333 C330 1.404 . S
C333 N331 1.334 . S
C334 H326 0.930 . S
C334 C329 1.418 . S
C334 C330 1.353 . S
C335 H305 0.930 . S
C335 N336 1.330 . S
C335 C337 1.446 . S
N336 Co295 2.151 . S
N336 C335 1.330 . S
N336 C340 1.418 . S
C337 H316 0.929 . S
C337 C335 1.446 . S
C337 C338 1.332 . S
C338 H318 0.931 . S
C338 C337 1.332 . S
C338 C339 1.267 . S
C339 H307 0.929 . S
C339 C338 1.267 . S
C339 C340 1.251 . S
C340 H310 0.929 . S
C340 N336 1.418 . S
C340 C339 1.251 . S
C341 H308 0.930 . S
C341 C343 1.406 . S
C341 C346 1.261 . S
C342 H309 0.930 . S
C342 N344 1.325 . S
C342 C345 1.357 . S
C343 H311 0.928 . S
C343 C341 1.406 . S
C343 N344 1.261 . S
N344 Co295 2.214 . S
N344 C342 1.325 . S
N344 C343 1.261 . S
C345 H315 0.931 . S
C345 C342 1.357 . S
C345 C346 1.312 . S
C346 H317 0.930 . S
C346 C341 1.261 . S
C346 C345 1.312 . S
C347 O319 1.214 . S
C347 O327 1.234 . S
C348 H320 0.929 . S
C348 C351 1.391 . S
C348 C353 1.391 . S
C349 H321 0.929 . S
C349 C350 1.390 . S
C349 N352 1.391 . S
C350 H322 0.930 . S
C350 C349 1.390 . S
C350 C351 1.392 . S
C351 H323 0.929 . S
C351 C348 1.391 . S
C351 C350 1.392 . S
N352 Co296 2.257 . S
N352 C349 1.391 . S
N352 C353 1.388 . S
C353 H324 0.930 . S
C353 C348 1.391 . S
C353 N352 1.388 . S
Co354 O356 2.143 1_554 S
Co354 O362 2.074 . S
Co354 O365 2.093 . S
Co354 O378 2.097 . S
Co354 N395 2.151 . S
Co354 N403 2.214 . S
Co355 O356 2.160 . S
Co355 O361 2.058 . S
Co355 O371 2.057 . S
Co355 O386 2.037 1_655 S
Co355 N390 2.145 1_655 S
Co355 N411 2.257 . S
O356 Co354 2.143 1_556 S
O356 Co355 2.160 . S
C357 O358 1.278 1_554 S
C357 O365 1.224 . S
O358 C357 1.278 1_556 S
C359 O360 1.245 . S
C359 O371 1.232 . S
O360 C359 1.245 . S
O361 Co355 2.058 . S
O361 C387 1.269 . S
O362 Co354 2.074 . S
O362 C387 1.257 1_554 S
H363 C388 0.930 . S
H364 C394 0.930 1_556 S
O365 Co354 2.093 . S
O365 C357 1.224 . S
H366 C398 0.929 . S
H367 C400 0.930 . S
H368 C401 0.930 . S
H369 C399 0.929 . S
H370 C402 0.928 . S
O371 Co355 2.057 . S
O371 C359 1.232 . S
H372 C391 0.929 . S
H373 C392 0.929 . S
H374 C404 0.931 1_455 S
H375 C396 0.929 1_556 S
H376 C405 0.930 . S
H377 C397 0.931 . S
O378 Co354 2.097 . S
O378 C406 1.214 1_655 S
H379 C407 0.929 . S
H380 C408 0.929 . S
H381 C409 0.930 . S
H382 C410 0.929 . S
H383 C412 0.930 . S
H384 C389 0.930 . S
H385 C393 0.930 . S
O386 Co355 2.037 1_455 S
O386 C406 1.234 1_556 S
C387 O361 1.269 . S
C387 O362 1.257 1_556 S
C388 H363 0.930 . S
C388 C391 1.388 . S
C388 C393 1.418 . S
C389 H384 0.930 . S
C389 C392 1.404 . S
C389 C393 1.353 . S
N390 Co355 2.145 1_455 S
N390 C391 1.397 . S
N390 C392 1.334 . S
C391 H372 0.929 . S
C391 C388 1.388 . S
C391 N390 1.397 . S
C392 H373 0.929 . S
C392 C389 1.404 . S
C392 N390 1.334 . S
C393 H385 0.930 . S
C393 C388 1.418 . S
C393 C389 1.353 . S
C394 H364 0.930 1_554 S
C394 N395 1.330 . S
C394 C396 1.446 . S
N395 Co354 2.151 . S
N395 C394 1.330 . S
N395 C399 1.418 . S
C396 H375 0.929 1_554 S
C396 C394 1.446 . S
C396 C397 1.332 . S
C397 H377 0.931 . S
C397 C396 1.332 . S
C397 C398 1.267 . S
C398 H366 0.929 . S
C398 C397 1.267 . S
C398 C399 1.251 . S
C399 H369 0.929 . S
C399 N395 1.418 . S
C399 C398 1.251 . S
C400 H367 0.930 . S
C400 C402 1.406 . S
C400 C405 1.261 . S
C401 H368 0.930 . S
C401 N403 1.325 . S
C401 C404 1.357 . S
C402 H370 0.928 . S
C402 C400 1.406 . S
C402 N403 1.261 . S
N403 Co354 2.214 . S
N403 C401 1.325 . S
N403 C402 1.261 . S
C404 H374 0.931 1_655 S
C404 C401 1.357 . S
C404 C405 1.312 . S
C405 H376 0.930 . S
C405 C400 1.261 . S
C405 C404 1.312 . S
C406 O378 1.214 1_455 S
C406 O386 1.234 1_554 S
C407 H379 0.929 . S
C407 C410 1.391 . S
C407 C412 1.391 . S
C408 H380 0.929 . S
C408 C409 1.390 . S
C408 N411 1.391 1_455 S
C409 H381 0.930 . S
C409 C408 1.390 . S
C409 C410 1.392 1_455 S
C410 H382 0.929 . S
C410 C407 1.391 . S
C410 C409 1.392 1_655 S
N411 Co355 2.257 . S
N411 C408 1.391 1_655 S
N411 C412 1.388 . S
C412 H383 0.930 . S
C412 C407 1.391 . S
C412 N411 1.388 . S
Co413 O415 2.143 1_554 S
Co413 O421 2.074 . S
Co413 O424 2.093 . S
Co413 O437 2.097 . S
Co413 N454 2.151 . S
Co413 N462 2.214 . S
Co414 O415 2.160 . S
Co414 O420 2.058 . S
Co414 O430 2.057 . S
Co414 O445 2.037 . S
Co414 N449 2.145 . S
Co414 N470 2.257 . S
O415 Co413 2.143 1_556 S
O415 Co414 2.160 . S
C416 O417 1.278 1_554 S
C416 O424 1.224 . S
O417 C416 1.278 1_556 S
C418 O419 1.245 . S
C418 O430 1.232 . S
O419 C418 1.245 . S
O420 Co414 2.058 . S
O420 C446 1.269 . S
O421 Co413 2.074 . S
O421 C446 1.257 1_554 S
H422 C447 0.930 . S
H423 C453 0.930 1_556 S
O424 Co413 2.093 . S
O424 C416 1.224 . S
H425 C457 0.929 . S
H426 C459 0.930 . S
H427 C460 0.930 . S
H428 C458 0.929 . S
H429 C461 0.928 . S
O430 Co414 2.057 . S
O430 C418 1.232 . S
H431 C450 0.929 . S
H432 C451 0.929 . S
H433 C463 0.931 . S
H434 C455 0.929 1_556 S
H435 C464 0.930 . S
H436 C456 0.931 . S
O437 Co413 2.097 . S
O437 C465 1.214 . S
H438 C466 0.929 . S
H439 C467 0.929 . S
H440 C468 0.930 . S
H441 C469 0.929 . S
H442 C471 0.930 . S
H443 C448 0.930 . S
H444 C452 0.930 . S
O445 Co414 2.037 . S
O445 C465 1.234 1_556 S
C446 O420 1.269 . S
C446 O421 1.257 1_556 S
C447 H422 0.930 . S
C447 C450 1.388 . S
C447 C452 1.418 . S
C448 H443 0.930 . S
C448 C451 1.404 . S
C448 C452 1.353 . S
N449 Co414 2.145 . S
N449 C450 1.397 . S
N449 C451 1.334 . S
C450 H431 0.929 . S
C450 C447 1.388 . S
C450 N449 1.397 . S
C451 H432 0.929 . S
C451 C448 1.404 . S
C451 N449 1.334 . S
C452 H444 0.930 . S
C452 C447 1.418 . S
C452 C448 1.353 . S
C453 H423 0.930 1_554 S
C453 N454 1.330 . S
C453 C455 1.446 . S
N454 Co413 2.151 . S
N454 C453 1.330 . S
N454 C458 1.418 . S
C455 H434 0.929 1_554 S
C455 C453 1.446 . S
C455 C456 1.332 . S
C456 H436 0.931 . S
C456 C455 1.332 . S
C456 C457 1.267 . S
C457 H425 0.929 . S
C457 C456 1.267 . S
C457 C458 1.251 . S
C458 H428 0.929 . S
C458 N454 1.418 . S
C458 C457 1.251 . S
C459 H426 0.930 . S
C459 C461 1.406 . S
C459 C464 1.261 . S
C460 H427 0.930 . S
C460 N462 1.325 . S
C460 C463 1.357 . S
C461 H429 0.928 . S
C461 C459 1.406 . S
C461 N462 1.261 . S
N462 Co413 2.214 . S
N462 C460 1.325 . S
N462 C461 1.261 . S
C463 H433 0.931 . S
C463 C460 1.357 . S
C463 C464 1.312 . S
C464 H435 0.930 . S
C464 C459 1.261 . S
C464 C463 1.312 . S
C465 O437 1.214 . S
C465 O445 1.234 1_554 S
C466 H438 0.929 . S
C466 C469 1.391 . S
C466 C471 1.391 . S
C467 H439 0.929 . S
C467 C468 1.390 . S
C467 N470 1.391 . S
C468 H440 0.930 . S
C468 C467 1.390 . S
C468 C469 1.392 . S
C469 H441 0.929 . S
C469 C466 1.391 . S
C469 C468 1.392 . S
N470 Co414 2.257 . S
N470 C467 1.391 . S
N470 C471 1.388 . S
C471 H442 0.930 . S
C471 C466 1.391 . S
C471 N470 1.388 . S
Co472 O474 2.143 1_554 S
Co472 O480 2.074 . S
Co472 O483 2.093 . S
Co472 O496 2.097 . S
Co472 N513 2.151 . S
Co472 N521 2.214 . S
Co473 O474 2.160 . S
Co473 O479 2.058 . S
Co473 O489 2.057 . S
Co473 O504 2.037 1_545 S
Co473 N508 2.145 1_545 S
Co473 N529 2.257 . S
O474 Co472 2.143 1_556 S
O474 Co473 2.160 . S
C475 O476 1.278 1_554 S
C475 O483 1.224 . S
O476 C475 1.278 1_556 S
C477 O478 1.245 . S
C477 O489 1.232 . S
O478 C477 1.245 . S
O479 Co473 2.058 . S
O479 C505 1.269 . S
O480 Co472 2.074 . S
O480 C505 1.257 1_554 S
H481 C506 0.930 . S
H482 C512 0.930 1_556 S
O483 Co472 2.093 . S
O483 C475 1.224 . S
H484 C516 0.929 . S
H485 C518 0.930 . S
H486 C519 0.930 . S
H487 C517 0.929 . S
H488 C520 0.928 . S
O489 Co473 2.057 . S
O489 C477 1.232 . S
H490 C509 0.929 . S
H491 C510 0.929 . S
H492 C522 0.931 1_565 S
H493 C514 0.929 1_556 S
H494 C523 0.930 . S
H495 C515 0.931 . S
O496 Co472 2.097 . S
O496 C524 1.214 1_545 S
H497 C525 0.929 . S
H498 C526 0.929 . S
H499 C527 0.930 . S
H500 C528 0.929 . S
H501 C530 0.930 . S
H502 C507 0.930 . S
H503 C511 0.930 . S
O504 Co473 2.037 1_565 S
O504 C524 1.234 1_556 S
C505 O479 1.269 . S
C505 O480 1.257 1_556 S
C506 H481 0.930 . S
C506 C509 1.388 . S
C506 C511 1.418 . S
C507 H502 0.930 . S
C507 C510 1.404 . S
C507 C511 1.353 . S
N508 Co473 2.145 1_565 S
N508 C509 1.397 . S
N508 C510 1.334 . S
C509 H490 0.929 . S
C509 C506 1.388 . S
C509 N508 1.397 . S
C510 H491 0.929 . S
C510 C507 1.404 . S
C510 N508 1.334 . S
C511 H503 0.930 . S
C511 C506 1.418 . S
C511 C507 1.353 . S
C512 H482 0.930 1_554 S
C512 N513 1.330 . S
C512 C514 1.446 . S
N513 Co472 2.151 . S
N513 C512 1.330 . S
N513 C517 1.418 . S
C514 H493 0.929 1_554 S
C514 C512 1.446 . S
C514 C515 1.332 . S
C515 H495 0.931 . S
C515 C514 1.332 . S
C515 C516 1.267 . S
C516 H484 0.929 . S
C516 C515 1.267 . S
C516 C517 1.251 . S
C517 H487 0.929 . S
C517 N513 1.418 . S
C517 C516 1.251 . S
C518 H485 0.930 . S
C518 C520 1.406 . S
C518 C523 1.261 . S
C519 H486 0.930 . S
C519 N521 1.325 . S
C519 C522 1.357 . S
C520 H488 0.928 . S
C520 C518 1.406 . S
C520 N521 1.261 . S
N521 Co472 2.214 . S
N521 C519 1.325 . S
N521 C520 1.261 . S
C522 H492 0.931 1_545 S
C522 C519 1.357 . S
C522 C523 1.312 . S
C523 H494 0.930 . S
C523 C518 1.261 . S
C523 C522 1.312 . S
C524 O496 1.214 1_565 S
C524 O504 1.234 1_554 S
C525 H497 0.929 . S
C525 C528 1.391 . S
C525 C530 1.391 . S
C526 H498 0.929 . S
C526 C527 1.390 . S
C526 N529 1.391 1_565 S
C527 H499 0.930 . S
C527 C526 1.390 . S
C527 C528 1.392 1_565 S
C528 H500 0.929 . S
C528 C525 1.391 . S
C528 C527 1.392 1_545 S
N529 Co473 2.257 . S
N529 C526 1.391 1_545 S
N529 C530 1.388 . S
C530 H501 0.930 . S
C530 C525 1.391 . S
C530 N529 1.388 . S
Co531 O533 2.143 . S
Co531 O539 2.074 . S
Co531 O542 2.093 . S
Co531 O555 2.097 . S
Co531 N572 2.151 . S
Co531 N580 2.214 . S
Co532 O533 2.160 . S
Co532 O538 2.058 . S
Co532 O548 2.057 . S
Co532 O563 2.037 1_545 S
Co532 N567 2.145 1_545 S
Co532 N588 2.257 . S
O533 Co531 2.143 . S
O533 Co532 2.160 . S
C534 O535 1.278 . S
C534 O542 1.224 . S
O535 C534 1.278 . S
C536 O537 1.245 . S
C536 O548 1.232 . S
O537 C536 1.245 . S
O538 Co532 2.058 . S
O538 C564 1.269 . S
O539 Co531 2.074 . S
O539 C564 1.257 . S
H540 C565 0.930 . S
H541 C571 0.930 . S
O542 Co531 2.093 . S
O542 C534 1.224 . S
H543 C575 0.929 . S
H544 C577 0.930 . S
H545 C578 0.930 . S
H546 C576 0.929 . S
H547 C579 0.928 . S
O548 Co532 2.057 . S
O548 C536 1.232 . S
H549 C568 0.929 . S
H550 C569 0.929 . S
H551 C581 0.931 1_565 S
H552 C573 0.929 . S
H553 C582 0.930 . S
H554 C574 0.931 . S
O555 Co531 2.097 . S
O555 C583 1.214 1_545 S
H556 C584 0.929 . S
H557 C585 0.929 . S
H558 C586 0.930 . S
H559 C587 0.929 . S
H560 C589 0.930 . S
H561 C566 0.930 . S
H562 C570 0.930 . S
O563 Co532 2.037 1_565 S
O563 C583 1.234 . S
C564 O538 1.269 . S
C564 O539 1.257 . S
C565 H540 0.930 . S
C565 C568 1.388 . S
C565 C570 1.418 . S
C566 H561 0.930 . S
C566 C569 1.404 . S
C566 C570 1.353 . S
N567 Co532 2.145 1_565 S
N567 C568 1.397 . S
N567 C569 1.334 . S
C568 H549 0.929 . S
C568 C565 1.388 . S
C568 N567 1.397 . S
C569 H550 0.929 . S
C569 C566 1.404 . S
C569 N567 1.334 . S
C570 H562 0.930 . S
C570 C565 1.418 . S
C570 C566 1.353 . S
C571 H541 0.930 . S
C571 N572 1.330 . S
C571 C573 1.446 . S
N572 Co531 2.151 . S
N572 C571 1.330 . S
N572 C576 1.418 . S
C573 H552 0.929 . S
C573 C571 1.446 . S
C573 C574 1.332 . S
C574 H554 0.931 . S
C574 C573 1.332 . S
C574 C575 1.267 . S
C575 H543 0.929 . S
C575 C574 1.267 . S
C575 C576 1.251 . S
C576 H546 0.929 . S
C576 N572 1.418 . S
C576 C575 1.251 . S
C577 H544 0.930 . S
C577 C579 1.406 . S
C577 C582 1.261 . S
C578 H545 0.930 . S
C578 N580 1.325 . S
C578 C581 1.357 . S
C579 H547 0.928 . S
C579 C577 1.406 . S
C579 N580 1.261 . S
N580 Co531 2.214 . S
N580 C578 1.325 . S
N580 C579 1.261 . S
C581 H551 0.931 1_545 S
C581 C578 1.357 . S
C581 C582 1.312 . S
C582 H553 0.930 . S
C582 C577 1.261 . S
C582 C581 1.312 . S
C583 O555 1.214 1_565 S
C583 O563 1.234 . S
C584 H556 0.929 . S
C584 C587 1.391 . S
C584 C589 1.391 . S
C585 H557 0.929 . S
C585 C586 1.390 . S
C585 N588 1.391 1_565 S
C586 H558 0.930 . S
C586 C585 1.390 . S
C586 C587 1.392 1_565 S
C587 H559 0.929 . S
C587 C584 1.391 . S
C587 C586 1.392 1_545 S
N588 Co532 2.257 . S
N588 C585 1.391 1_545 S
N588 C589 1.388 . S
C589 H560 0.930 . S
C589 C584 1.391 . S
C589 N588 1.388 . S
Co590 O592 2.143 . S
Co590 O598 2.074 . S
Co590 O601 2.093 . S
Co590 O614 2.097 . S
Co590 N631 2.151 . S
Co590 N639 2.214 . S
Co591 O592 2.160 . S
Co591 O597 2.058 . S
Co591 O607 2.057 . S
Co591 O622 2.037 1_655 S
Co591 N626 2.145 1_655 S
Co591 N647 2.257 . S
O592 Co590 2.143 . S
O592 Co591 2.160 . S
C593 O594 1.278 . S
C593 O601 1.224 . S
O594 C593 1.278 . S
C595 O596 1.245 . S
C595 O607 1.232 . S
O596 C595 1.245 . S
O597 Co591 2.058 . S
O597 C623 1.269 . S
O598 Co590 2.074 . S
O598 C623 1.257 . S
H599 C624 0.930 . S
H600 C630 0.930 . S
O601 Co590 2.093 . S
O601 C593 1.224 . S
H602 C634 0.929 . S
H603 C636 0.930 . S
H604 C637 0.930 . S
H605 C635 0.929 . S
H606 C638 0.928 . S
O607 Co591 2.057 . S
O607 C595 1.232 . S
H608 C627 0.929 . S
H609 C628 0.929 . S
H610 C640 0.931 1_455 S
H611 C632 0.929 . S
H612 C641 0.930 . S
H613 C633 0.931 . S
O614 Co590 2.097 . S
O614 C642 1.214 1_655 S
H615 C643 0.929 . S
H616 C644 0.929 . S
H617 C645 0.930 . S
H618 C646 0.929 . S
H619 C648 0.930 . S
H620 C625 0.930 . S
H621 C629 0.930 . S
O622 Co591 2.037 1_455 S
O622 C642 1.234 . S
C623 O597 1.269 . S
C623 O598 1.257 . S
C624 H599 0.930 . S
C624 C627 1.388 . S
C624 C629 1.418 . S
C625 H620 0.930 . S
C625 C628 1.404 . S
C625 C629 1.353 . S
N626 Co591 2.145 1_455 S
N626 C627 1.397 . S
N626 C628 1.334 . S
C627 H608 0.929 . S
C627 C624 1.388 . S
C627 N626 1.397 . S
C628 H609 0.929 . S
C628 C625 1.404 . S
C628 N626 1.334 . S
C629 H621 0.930 . S
C629 C624 1.418 . S
C629 C625 1.353 . S
C630 H600 0.930 . S
C630 N631 1.330 . S
C630 C632 1.446 . S
N631 Co590 2.151 . S
N631 C630 1.330 . S
N631 C635 1.418 . S
C632 H611 0.929 . S
C632 C630 1.446 . S
C632 C633 1.332 . S
C633 H613 0.931 . S
C633 C632 1.332 . S
C633 C634 1.267 . S
C634 H602 0.929 . S
C634 C633 1.267 . S
C634 C635 1.251 . S
C635 H605 0.929 . S
C635 N631 1.418 . S
C635 C634 1.251 . S
C636 H603 0.930 . S
C636 C638 1.406 . S
C636 C641 1.261 . S
C637 H604 0.930 . S
C637 N639 1.325 . S
C637 C640 1.357 . S
C638 H606 0.928 . S
C638 C636 1.406 . S
C638 N639 1.261 . S
N639 Co590 2.214 . S
N639 C637 1.325 . S
N639 C638 1.261 . S
C640 H610 0.931 1_655 S
C640 C637 1.357 . S
C640 C641 1.312 . S
C641 H612 0.930 . S
C641 C636 1.261 . S
C641 C640 1.312 . S
C642 O614 1.214 1_455 S
C642 O622 1.234 . S
C643 H615 0.929 . S
C643 C646 1.391 . S
C643 C648 1.391 . S
C644 H616 0.929 . S
C644 C645 1.390 . S
C644 N647 1.391 1_455 S
C645 H617 0.930 . S
C645 C644 1.390 . S
C645 C646 1.392 1_455 S
C646 H618 0.929 . S
C646 C643 1.391 . S
C646 C645 1.392 1_655 S
N647 Co591 2.257 . S
N647 C644 1.391 1_655 S
N647 C648 1.388 . S
C648 H619 0.930 . S
C648 C643 1.391 . S
C648 N647 1.388 . S
Co649 O651 2.143 . S
Co649 O657 2.074 . S
Co649 O660 2.093 . S
Co649 O673 2.097 . S
Co649 N690 2.151 . S
Co649 N698 2.214 . S
Co650 O651 2.160 . S
Co650 O656 2.058 . S
Co650 O666 2.057 . S
Co650 O681 2.037 . S
Co650 N685 2.145 . S
Co650 N706 2.257 . S
O651 Co649 2.143 . S
O651 Co650 2.160 . S
C652 O653 1.278 . S
C652 O660 1.224 . S
O653 C652 1.278 . S
C654 O655 1.245 . S
C654 O666 1.232 . S
O655 C654 1.245 . S
O656 Co650 2.058 . S
O656 C682 1.269 . S
O657 Co649 2.074 . S
O657 C682 1.257 . S
H658 C683 0.930 . S
H659 C689 0.930 . S
O660 Co649 2.093 . S
O660 C652 1.224 . S
H661 C693 0.929 . S
H662 C695 0.930 . S
H663 C696 0.930 . S
H664 C694 0.929 . S
H665 C697 0.928 . S
O666 Co650 2.057 . S
O666 C654 1.232 . S
H667 C686 0.929 . S
H668 C687 0.929 . S
H669 C699 0.931 . S
H670 C691 0.929 . S
H671 C700 0.930 . S
H672 C692 0.931 . S
O673 Co649 2.097 . S
O673 C701 1.214 . S
H674 C702 0.929 . S
H675 C703 0.929 . S
H676 C704 0.930 . S
H677 C705 0.929 . S
H678 C707 0.930 . S
H679 C684 0.930 . S
H680 C688 0.930 . S
O681 Co650 2.037 . S
O681 C701 1.234 . S
C682 O656 1.269 . S
C682 O657 1.257 . S
C683 H658 0.930 . S
C683 C686 1.388 . S
C683 C688 1.418 . S
C684 H679 0.930 . S
C684 C687 1.404 . S
C684 C688 1.353 . S
N685 Co650 2.145 . S
N685 C686 1.397 . S
N685 C687 1.334 . S
C686 H667 0.929 . S
C686 C683 1.388 . S
C686 N685 1.397 . S
C687 H668 0.929 . S
C687 C684 1.404 . S
C687 N685 1.334 . S
C688 H680 0.930 . S
C688 C683 1.418 . S
C688 C684 1.353 . S
C689 H659 0.930 . S
C689 N690 1.330 . S
C689 C691 1.446 . S
N690 Co649 2.151 . S
N690 C689 1.330 . S
N690 C694 1.418 . S
C691 H670 0.929 . S
C691 C689 1.446 . S
C691 C692 1.332 . S
C692 H672 0.931 . S
C692 C691 1.332 . S
C692 C693 1.267 . S
C693 H661 0.929 . S
C693 C692 1.267 . S
C693 C694 1.251 . S
C694 H664 0.929 . S
C694 N690 1.418 . S
C694 C693 1.251 . S
C695 H662 0.930 . S
C695 C697 1.406 . S
C695 C700 1.261 . S
C696 H663 0.930 . S
C696 N698 1.325 . S
C696 C699 1.357 . S
C697 H665 0.928 . S
C697 C695 1.406 . S
C697 N698 1.261 . S
N698 Co649 2.214 . S
N698 C696 1.325 . S
N698 C697 1.261 . S
C699 H669 0.931 . S
C699 C696 1.357 . S
C699 C700 1.312 . S
C700 H671 0.930 . S
C700 C695 1.261 . S
C700 C699 1.312 . S
C701 O673 1.214 . S
C701 O681 1.234 . S
C702 H674 0.929 . S
C702 C705 1.391 . S
C702 C707 1.391 . S
C703 H675 0.929 . S
C703 C704 1.390 . S
C703 N706 1.391 . S
C704 H676 0.930 . S
C704 C703 1.390 . S
C704 C705 1.392 . S
C705 H677 0.929 . S
C705 C702 1.391 . S
C705 C704 1.392 . S
N706 Co650 2.257 . S
N706 C703 1.391 . S
N706 C707 1.388 . S
C707 H678 0.930 . S
C707 C702 1.391 . S
C707 N706 1.388 . S
C3 C465 1.149 1_556 S
C62 C524 1.149 1_556 S
C121 C406 1.149 1_556 S
C701 C180 1.149 . S
C239 C583 1.149 . S
C642 C298 1.149 . S
C111 C357 1.149 1_556 S
C416 C170 1.149 1_554 S
C52 C475 1.149 1_556 S
C534 C347 1.149 . S
C593 C229 1.149 . S
C288 C652 1.149 . S
C300 C5 1.987 . S
C64 C182 1.987 . S
C123 C241 1.987 . S
C359 C654 1.987 . S
C418 C536 1.987 . S
C477 C595 1.987 . S
C33 C387 2.579 1_454 S
C92 C446 2.579 1_554 S
C151 C505 2.579 1_564 S
C210 C564 2.579 1_565 S
C623 C269 2.579 1_655 S
C328 C682 2.579 . S
