# Generated by pormake.
# Topology ske, (6)-cn, num edge types: 1
# Building blocks:
#     Node 0, Type 0, BuildingBlock: KUMBOL_clean_sbu_0, # of connection points: 6
#     Node 1, Type 0, BuildingBlock: KUMBOL_clean_sbu_0, # of connection points: 6
#     Node 2, Type 0, BuildingBlock: KUMBOL_clean_sbu_0, # of connection points: 6
#     Node 3, Type 0, BuildingBlock: KUMBOL_clean_sbu_0, # of connection points: 6
#     Node 4, Type 0, BuildingBlock: KUMBOL_clean_sbu_0, # of connection points: 6
#     Node 5, Type 0, BuildingBlock: KUMBOL_clean_sbu_0, # of connection points: 6
#     Node 6, Type 0, BuildingBlock: KUMBOL_clean_sbu_0, # of connection points: 6
#     Node 7, Type 0, BuildingBlock: KUMBOL_clean_sbu_0, # of connection points: 6
#     Edge 8, Type (0, 0), BuildingBlock: AJUNOK_clean_linker_0, # of connection points: 2
#     Edge 9, Type (0, 0), BuildingBlock: AJUNOK_clean_linker_0, # of connection points: 2
#     Edge 10, Type (0, 0), BuildingBlock: AJUNOK_clean_linker_0, # of connection points: 2
#     Edge 11, Type (0, 0), BuildingBlock: AJUNOK_clean_linker_0, # of connection points: 2
#     Edge 12, Type (0, 0), BuildingBlock: AJUNOK_clean_linker_0, # of connection points: 2
#     Edge 13, Type (0, 0), BuildingBlock: AJUNOK_clean_linker_0, # of connection points: 2
#     Edge 14, Type (0, 0), BuildingBlock: AJUNOK_clean_linker_0, # of connection points: 2
#     Edge 15, Type (0, 0), BuildingBlock: AJUNOK_clean_linker_0, # of connection points: 2
#     Edge 16, Type (0, 0), BuildingBlock: AJUNOK_clean_linker_0, # of connection points: 2
#     Edge 17, Type (0, 0), BuildingBlock: AJUNOK_clean_linker_0, # of connection points: 2
#     Edge 18, Type (0, 0), BuildingBlock: AJUNOK_clean_linker_0, # of connection points: 2
#     Edge 19, Type (0, 0), BuildingBlock: AJUNOK_clean_linker_0, # of connection points: 2
#     Edge 20, Type (0, 0), BuildingBlock: AJUNOK_clean_linker_0, # of connection points: 2
#     Edge 21, Type (0, 0), BuildingBlock: AJUNOK_clean_linker_0, # of connection points: 2
#     Edge 22, Type (0, 0), BuildingBlock: AJUNOK_clean_linker_0, # of connection points: 2
#     Edge 23, Type (0, 0), BuildingBlock: AJUNOK_clean_linker_0, # of connection points: 2
#     Edge 24, Type (0, 0), BuildingBlock: AJUNOK_clean_linker_0, # of connection points: 2
#     Edge 25, Type (0, 0), BuildingBlock: AJUNOK_clean_linker_0, # of connection points: 2
#     Edge 26, Type (0, 0), BuildingBlock: AJUNOK_clean_linker_0, # of connection points: 2
#     Edge 27, Type (0, 0), BuildingBlock: AJUNOK_clean_linker_0, # of connection points: 2
#     Edge 28, Type (0, 0), BuildingBlock: AJUNOK_clean_linker_0, # of connection points: 2
#     Edge 29, Type (0, 0), BuildingBlock: AJUNOK_clean_linker_0, # of connection points: 2
#     Edge 30, Type (0, 0), BuildingBlock: AJUNOK_clean_linker_0, # of connection points: 2
#     Edge 31, Type (0, 0), BuildingBlock: AJUNOK_clean_linker_0, # of connection points: 2
# Relax obj value: 0.111
# Max RMSD: 0.193
# Mean RMSD: 0.188
data_MOF--net-ske--node1-KUMBOL_clean_sbu_0--edge1-AJUNOK_clean_linker_0
_symmetry_space_group_name_H-M    P1
_symmetry_Int_Tables_number       1
_symmetry_cell_setting            triclinic
loop_
_symmetry_equiv_pos_as_xyz
'x, y, z'
_cell_length_a     82.700553
_cell_length_b     22.403839
_cell_length_c     10.78127
_cell_angle_alpha  90.264449
_cell_angle_beta   89.317527
_cell_angle_gamma 115.13757
loop_
_atom_site_label
_atom_site_type_symbol
_atom_site_fract_x
_atom_site_fract_y
_atom_site_fract_z
_atom_type_partial_charge
Gd0 Gd 0.1577 0.26894 0.55201 0.0
Gd1 Gd 0.10994 0.20205 0.557 0.0
C2 C 0.09154 0.19973 0.96046 0.0
C3 C 0.07834 0.08303 1.00982 0.0
C4 C 0.09086 0.12078 0.80369 0.0
C5 C 0.09566 0.18539 0.83944 0.0
C6 C 0.08168 0.06876 0.88785 0.0
C7 C 0.08325 0.1484 0.04606 0.0
C8 C 0.09565 0.26519 0.99153 0.0
C9 C 0.10321 0.31427 0.90209 0.0
N10 N 0.10391 0.23419 0.75527 0.0
C11 C 0.10708 0.29775 0.78372 0.0
H12 H 0.11237 0.33623 0.71577 0.0
C13 C 0.08671 0.0449 0.64138 0.0
N14 N 0.09419 0.10848 0.68492 0.0
C15 C 0.07795 0.99187 0.72171 0.0
C16 C 0.0757 0.00378 0.84616 0.0
H17 H 0.08736 0.03451 0.54388 0.0
H18 H 0.08028 0.15865 0.13982 0.0
H19 H 0.15743 0.13443 0.40325 0.0
H20 H 0.09273 0.27815 0.08337 0.0
H21 H 0.10604 0.36491 0.92408 0.0
H22 H 0.07157 0.04375 0.07598 0.0
H23 H 0.18058 0.43576 0.55716 0.0
H24 H 0.17502 0.18676 0.03028 0.0
H25 H 0.1634 0.10317 0.19654 0.0
H26 H 0.194 0.4202 1.02268 0.0
H27 H 0.07269 0.94187 0.6869 0.0
H28 H 0.0687 0.96258 0.90802 0.0
H29 H 0.18605 0.30482 0.96564 0.0
H30 H 0.19466 0.52696 0.40938 0.0
N31 N 0.16399 0.23448 0.35597 0.0
C32 C 0.17215 0.20082 0.12135 0.0
C33 C 0.16553 0.15351 0.21472 0.0
C34 C 0.17554 0.26616 0.14786 0.0
C35 C 0.17149 0.28186 0.26804 0.0
C36 C 0.16175 0.17142 0.33221 0.0
N37 N 0.17324 0.3604 0.41912 0.0
C38 C 0.17593 0.34667 0.30001 0.0
C39 C 0.18918 0.47651 0.37669 0.0
C40 C 0.1907 0.46309 0.25187 0.0
C41 C 0.18087 0.42441 0.45987 0.0
C42 C 0.18458 0.39761 0.2128 0.0
H43 H 0.19738 0.50353 0.18781 0.0
O44 O 0.18423 0.32509 0.62772 0.0
O45 O 0.13386 0.22255 0.68326 0.0
O46 O 0.12155 0.31089 0.51152 0.0
O47 O 0.15056 0.35406 0.58394 0.0
O48 O 0.15544 0.30611 0.74474 0.0
O49 O 0.17451 0.22027 0.60474 0.0
O50 O 0.08452 0.14914 0.46586 0.0
O51 O 0.1338 0.24863 0.42588 0.0
O52 O 0.14603 0.15974 0.59201 0.0
O53 O 0.11686 0.11668 0.52317 0.0
O54 O 0.11201 0.16661 0.36264 0.0
O55 O 0.09146 0.24774 0.53181 0.0
C56 C 0.14009 0.26068 0.77831 0.0
C57 C 0.18762 0.38181 0.09118 0.0
C58 C 0.18316 0.31619 0.05884 0.0
C59 C 0.18804 0.27456 0.63541 0.0
C60 C 0.20578 0.28329 0.58757 0.0
C61 C 0.21132 0.30776 0.46753 0.0
C62 C 0.21729 0.267 0.66189 0.0
C63 C 0.23431 0.27569 0.61662 0.0
C64 C 0.22798 0.31586 0.42183 0.0
C65 C 0.23939 0.30009 0.49546 0.0
C66 C 0.13646 0.36107 0.54473 0.0
C67 C 0.12758 0.21092 0.33026 0.0
C68 C 0.07897 0.1948 0.48516 0.0
C69 C 0.06055 0.17322 0.53623 0.0
C70 C 0.05232 0.11342 0.60163 0.0
C71 C 0.05068 0.21053 0.51484 0.0
C72 C 0.03271 0.18713 0.55579 0.0
C73 C 0.03466 0.09061 0.64288 0.0
C74 C 0.02487 0.12683 0.61942 0.0
C75 C 0.13103 0.10972 0.55999 0.0
H76 H 0.20283 0.32089 0.40916 0.0
H77 H 0.21293 0.24712 0.75403 0.0
H78 H 0.23212 0.33487 0.32901 0.0
H79 H 0.25235 0.30791 0.45799 0.0
H80 H 0.05938 0.0835 0.61958 0.0
H81 H 0.0568 0.25669 0.46439 0.0
H82 H 0.02848 0.04429 0.69248 0.0
H83 H 0.01115 0.108 0.65211 0.0
Gd84 Gd 0.85899 0.20378 0.5405 0.0
Gd85 Gd 0.90706 0.28982 0.55461 0.0
C86 C 0.93691 0.39446 0.9021 0.0
C87 C 0.94922 0.5097 0.84085 0.0
C88 C 0.93148 0.42396 0.69576 0.0
C89 C 0.92901 0.37629 0.78439 0.0
C90 C 0.94178 0.49122 0.72261 0.0
C91 C 0.9468 0.46143 0.9304 0.0
C92 C 0.93487 0.34471 0.98721 0.0
C93 C 0.9256 0.27877 0.95274 0.0
N94 N 0.9193 0.31203 0.7545 0.0
C95 C 0.91805 0.26326 0.83484 0.0
H96 H 0.91089 0.21212 0.80909 0.0
C97 C 0.92717 0.44975 0.48978 0.0
N98 N 0.92403 0.40443 0.5825 0.0
C99 C 0.93726 0.51695 0.51225 0.0
C100 C 0.94449 0.53787 0.62938 0.0
H101 H 0.92165 0.43464 0.39884 0.0
H102 H 0.95283 0.47634 1.02065 0.0
H103 H 0.85395 0.28132 0.29002 0.0
H104 H 0.94065 0.35662 0.07875 0.0
H105 H 0.92417 0.23986 1.01709 0.0
H106 H 0.95708 0.56114 0.86341 0.0
H107 H 0.84455 0.05864 0.69254 0.0
H108 H 0.82607 0.13825 1.01363 0.0
H109 H 0.84096 0.2546 0.08143 0.0
H110 H 0.81167 0.93267 0.22078 0.0
H111 H 0.93943 0.5526 0.43915 0.0
H112 H 0.95232 0.58999 0.64635 0.0
H113 H 0.81537 0.01814 0.06607 0.0
H114 H 0.82798 0.94027 0.64826 0.0
N115 N 0.84683 0.18181 0.33994 0.0
C116 C 0.83172 0.14981 0.10557 0.0
C117 C 0.84005 0.21549 0.14364 0.0
C118 C 0.83038 0.09979 0.18795 0.0
C119 C 0.83803 0.11761 0.30644 0.0
C120 C 0.84738 0.23054 0.26226 0.0
N121 N 0.84248 0.08917 0.50875 0.0
C122 C 0.83569 0.06968 0.39383 0.0
C123 C 0.83006 0.97616 0.5758 0.0
C124 C 0.82344 0.9554 0.45711 0.0
C125 C 0.83942 0.04353 0.60061 0.0
C126 C 0.82603 0.00234 0.36469 0.0
H127 H 0.81614 0.90317 0.43832 0.0
O128 O 0.83596 0.17636 0.66474 0.0
O129 O 0.88189 0.25601 0.67322 0.0
O130 O 0.89679 0.18062 0.59798 0.0
O131 O 0.87072 0.13358 0.48657 0.0
O132 O 0.86128 0.17399 0.74042 0.0
O133 O 0.84149 0.25386 0.53032 0.0
O134 O 0.92712 0.30316 0.41273 0.0
O135 O 0.8841 0.23767 0.42223 0.0
O136 O 0.86926 0.31286 0.4944 0.0
O137 O 0.89588 0.36259 0.60055 0.0
O138 O 0.90476 0.31994 0.3552 0.0
O139 O 0.92752 0.25344 0.58269 0.0
C140 C 0.87636 0.22034 0.77165 0.0
C141 C 0.81905 0.98415 0.24515 0.0
C142 C 0.82119 0.0328 0.157 0.0
C143 C 0.83051 0.21768 0.61612 0.0
C144 C 0.81117 0.19221 0.58988 0.0
C145 C 0.80361 0.14667 0.49404 0.0
C146 C 0.80014 0.21379 0.66031 0.0
C147 C 0.7817 0.1901 0.63444 0.0
C148 C 0.78547 0.12333 0.46766 0.0
C149 C 0.7746 0.14487 0.5369 0.0
C150 C 0.88461 0.13004 0.53882 0.0
C151 C 0.8896 0.27376 0.32412 0.0
C152 C 0.93587 0.27854 0.47932 0.0
C153 C 0.9556 0.31687 0.48364 0.0
C154 C 0.96334 0.38522 0.46265 0.0
C155 C 0.9669 0.28484 0.50159 0.0
C156 C 0.98575 0.32064 0.49637 0.0
C157 C 0.98184 0.42062 0.45606 0.0
C158 C 0.99294 0.38867 0.47089 0.0
C159 C 0.88197 0.36508 0.54648 0.0
H160 H 0.81169 0.12911 0.43941 0.0
H161 H 0.80594 0.2495 0.73376 0.0
H162 H 0.7798 0.08823 0.39324 0.0
H163 H 0.76053 0.12546 0.51509 0.0
H164 H 0.95511 0.41126 0.44821 0.0
H165 H 0.961 0.23221 0.51887 0.0
H166 H 0.9876 0.47302 0.43698 0.0
H167 H 1.0072 0.4173 0.45982 0.0
Gd168 Gd 0.11124 0.69566 0.51216 0.0
Gd169 Gd 0.15922 0.7812 0.52387 0.0
C170 C 0.18938 0.88647 0.8707 0.0
C171 C 0.20111 0.00182 0.81078 0.0
C172 C 0.18344 0.91586 0.66582 0.0
C173 C 0.18134 0.86823 0.75344 0.0
C174 C 0.19351 0.98324 0.693 0.0
C175 C 0.19904 0.95352 0.89949 0.0
C176 C 0.1878 0.83672 0.9545 0.0
C177 C 0.17879 0.7708 0.9192 0.0
N178 N 0.17201 0.80392 0.72235 0.0
C179 C 0.17111 0.7553 0.80167 0.0
H180 H 0.16403 0.70431 0.77598 0.0
C181 C 0.17853 0.94147 0.46123 0.0
N182 N 0.17593 0.89605 0.5528 0.0
C183 C 0.18824 0.00885 0.48433 0.0
C184 C 0.1957 0.0299 0.60084 0.0
H185 H 0.17281 0.92637 0.37082 0.0
H186 H 0.20519 0.96849 0.98936 0.0
H187 H 0.10754 0.77739 0.2632 0.0
H188 H 0.19371 0.84864 0.04564 0.0
H189 H 0.17763 0.73188 0.98269 0.0
H190 H 0.20877 0.05334 0.83367 0.0
H191 H 0.09669 0.54914 0.66015 0.0
H192 H 0.07771 0.63695 0.98744 0.0
H193 H 0.0943 0.75274 0.05463 0.0
H194 H 0.06108 0.42929 0.19179 0.0
H195 H 0.18995 0.04453 0.41215 0.0
H196 H 0.20325 0.08214 0.61831 0.0
H197 H 0.06538 0.51638 0.03946 0.0
H198 H 0.07898 0.43161 0.61415 0.0
N199 N 0.09907 0.67664 0.31214 0.0
C200 C 0.08349 0.64748 0.07911 0.0
C201 C 0.09284 0.71289 0.1167 0.0
C202 C 0.08139 0.59646 0.16132 0.0
C203 C 0.08931 0.61285 0.27926 0.0
C204 C 0.10037 0.72664 0.23484 0.0
N205 N 0.09429 0.5817 0.47864 0.0
C206 C 0.08683 0.56387 0.36505 0.0
C207 C 0.08108 0.46829 0.54324 0.0
C208 C 0.07378 0.44908 0.42572 0.0
C209 C 0.09113 0.53514 0.56895 0.0
C210 C 0.07647 0.49706 0.33518 0.0
H211 H 0.06592 0.39723 0.40638 0.0
O212 O 0.09042 0.67631 0.65103 0.0
O213 O 0.13425 0.7471 0.64411 0.0
O214 O 0.14902 0.67231 0.57013 0.0
O215 O 0.12246 0.62313 0.46375 0.0
O216 O 0.11362 0.66455 0.71059 0.0
O217 O 0.09131 0.73502 0.49057 0.0
O218 O 0.18074 0.80315 0.38895 0.0
O219 O 0.1362 0.72879 0.39221 0.0
O220 O 0.12145 0.8058 0.47543 0.0
O221 O 0.14785 0.85148 0.58376 0.0
O222 O 0.15646 0.81204 0.32578 0.0
O223 O 0.17775 0.73539 0.53842 0.0
C224 C 0.12878 0.71067 0.74177 0.0
C225 C 0.06898 0.48035 0.2167 0.0
C226 C 0.07143 0.52994 0.12995 0.0
C227 C 0.08226 0.70494 0.58882 0.0
C228 C 0.06259 0.6679 0.57672 0.0
C229 C 0.05455 0.59873 0.58301 0.0
C230 C 0.05161 0.70162 0.56414 0.0
C231 C 0.03275 0.66654 0.56054 0.0
C232 C 0.03603 0.5639 0.57864 0.0
C233 C 0.02522 0.59729 0.56828 0.0
C234 C 0.13636 0.62028 0.51749 0.0
C235 C 0.1415 0.76505 0.29437 0.0
C236 C 0.18741 0.7669 0.44322 0.0
C237 C 0.20705 0.797 0.45794 0.0
C238 C 0.2155 0.85549 0.52576 0.0
C239 C 0.21758 0.76882 0.39997 0.0
C240 C 0.23641 0.79995 0.40795 0.0
C241 C 0.23406 0.88582 0.5354 0.0
C242 C 0.24446 0.85851 0.47663 0.0
C243 C 0.13372 0.85538 0.53652 0.0
H244 H 0.06251 0.57135 0.59318 0.0
H245 H 0.0578 0.75488 0.55665 0.0
H246 H 0.03002 0.51069 0.58481 0.0
H247 H 0.01087 0.56872 0.56783 0.0
H248 H 0.20779 0.87815 0.57029 0.0
H249 H 0.21119 0.72382 0.34667 0.0
H250 H 0.24042 0.93098 0.58802 0.0
H251 H 0.25886 0.883 0.48536 0.0
Gd252 Gd 0.90866 0.7829 0.49705 0.0
Gd253 Gd 0.86091 0.71643 0.50308 0.0
C254 C 0.84167 0.70333 0.9075 0.0
C255 C 0.82805 0.58532 0.94461 0.0
C256 C 0.84092 0.6288 0.74201 0.0
C257 C 0.84601 0.69227 0.78488 0.0
C258 C 0.83136 0.57448 0.82041 0.0
C259 C 0.83318 0.64968 0.98808 0.0
C260 C 0.84558 0.76782 0.94453 0.0
C261 C 0.853 0.819 0.85891 0.0
N262 N 0.85422 0.74306 0.7046 0.0
C263 C 0.85704 0.80559 0.7386 0.0
H264 H 0.86225 0.84569 0.67387 0.0
C265 C 0.8359 0.55844 0.56938 0.0
N266 N 0.84392 0.62013 0.62076 0.0
C267 C 0.82671 0.50301 0.64362 0.0
C268 C 0.82474 0.51094 0.77037 0.0
H269 H 0.83679 0.55168 0.47058 0.0
H270 H 0.83007 0.65737 0.08309 0.0
H271 H 0.9074 0.64552 0.35423 0.0
H272 H 0.84248 0.77834 0.03776 0.0
H273 H 0.85559 0.86889 0.88534 0.0
H274 H 0.82099 0.54423 1.00658 0.0
H275 H 0.93042 0.95107 0.48997 0.0
H276 H 0.92513 0.69297 0.98039 0.0
H277 H 0.91324 0.6114 0.14973 0.0
H278 H 0.94382 0.92588 0.9593 0.0
H279 H 0.82097 0.4543 0.60265 0.0
H280 H 0.8174 0.468 0.82754 0.0
H281 H 0.93619 0.80993 0.9098 0.0
H282 H 0.94375 0.03904 0.33618 0.0
N283 N 0.91443 0.74537 0.30281 0.0
C284 C 0.92237 0.70834 0.07056 0.0
C285 C 0.91557 0.66215 0.16562 0.0
C286 C 0.92592 0.77413 0.09387 0.0
C287 C 0.922 0.79162 0.213 0.0
C288 C 0.91189 0.68171 0.2818 0.0
N289 N 0.92317 0.87255 0.35792 0.0
C290 C 0.92617 0.85685 0.24068 0.0
C291 C 0.93851 0.988 0.3072 0.0
C292 C 0.9402 0.97233 0.18405 0.0
C293 C 0.93045 0.93747 0.39379 0.0
C294 C 0.93454 0.9063 0.15016 0.0
H295 H 0.94666 0.01161 0.11734 0.0
O296 O 0.93462 0.84082 0.57742 0.0
O297 O 0.88485 0.73656 0.62853 0.0
O298 O 0.87259 0.8265 0.47302 0.0
O299 O 0.90204 0.86838 0.536 0.0
O300 O 0.90677 0.81775 0.69267 0.0
O301 O 0.92733 0.73907 0.53109 0.0
O302 O 0.83501 0.66598 0.41507 0.0
O303 O 0.88473 0.76288 0.37141 0.0
O304 O 0.89713 0.67459 0.5468 0.0
O305 O 0.86807 0.63115 0.47527 0.0
O306 O 0.86315 0.67927 0.31069 0.0
O307 O 0.84457 0.76864 0.46129 0.0
C308 C 0.89116 0.77359 0.72483 0.0
C309 C 0.93766 0.88866 0.03016 0.0
C310 C 0.93339 0.82271 1.00213 0.0
C311 C 0.94008 0.7944 0.56685 0.0
C312 C 0.95807 0.81307 0.51072 0.0
C313 C 0.96564 0.86815 0.43184 0.0
C314 C 0.96814 0.7774 0.53918 0.0
C315 C 0.98565 0.79778 0.49123 0.0
C316 C 0.98289 0.88794 0.3839 0.0
C317 C 0.99288 0.85331 0.41386 0.0
C318 C 0.88766 0.87582 0.5062 0.0
C319 C 0.87852 0.72433 0.27686 0.0
C320 C 0.8313 0.71683 0.41846 0.0
C321 C 0.81323 0.70532 0.46339 0.0
C322 C 0.80714 0.6771 0.58031 0.0
C323 C 0.80189 0.72236 0.38891 0.0
C324 C 0.78448 0.71042 0.4305 0.0
C325 C 0.79007 0.66578 0.62255 0.0
C326 C 0.77881 0.6821 0.54847 0.0
C327 C 0.88216 0.62429 0.51485 0.0
H328 H 0.95836 0.89662 0.40812 0.0
H329 H 0.96252 0.73477 0.5997 0.0
H330 H 0.98857 0.93063 0.32381 0.0
H331 H 1.00628 0.86964 0.37604 0.0
H332 H 0.81553 0.66354 0.63885 0.0
H333 H 0.80671 0.74533 0.29949 0.0
H334 H 0.7855 0.64384 0.71294 0.0
H335 H 0.76553 0.67171 0.58305 0.0
Gd336 Gd 0.66088 0.78636 0.0574 0.0
Gd337 Gd 0.61274 0.70856 0.0788 0.0
C338 C 0.58611 0.64117 0.45753 0.0
C339 C 0.57244 0.52195 0.43524 0.0
C340 C 0.58917 0.59167 0.2633 0.0
C341 C 0.59289 0.64733 0.3351 0.0
C342 C 0.57864 0.5284 0.31196 0.0
C343 C 0.57616 0.5782 0.50785 0.0
C344 C 0.58928 0.69849 0.52505 0.0
C345 C 0.59852 0.75994 0.46905 0.0
N346 N 0.60263 0.70753 0.28413 0.0
C347 C 0.60495 0.76358 0.34743 0.0
H348 H 0.61217 0.8115 0.30594 0.0
C349 C 0.59016 0.54647 0.06589 0.0
N350 N 0.59524 0.5995 0.1442 0.0
C351 C 0.58005 0.48272 0.1107 0.0
C352 C 0.57436 0.47357 0.23448 0.0
H353 H 0.59451 0.55352 0.96992 0.0
H354 H 0.57103 0.57252 0.60212 0.0
H355 H 0.66452 0.7092 0.79964 0.0
H356 H 0.58438 0.69584 0.61949 0.0
H357 H 0.6008 0.80458 0.51976 0.0
H358 H 0.56447 0.47373 0.4746 0.0
H359 H 0.67995 0.92833 0.21951 0.0
H360 H 0.69361 0.85253 0.52459 0.0
H361 H 0.67716 0.73596 0.58852 0.0
H362 H 0.71295 0.05672 0.74636 0.0
H363 H 0.57667 0.44068 0.04989 0.0
H364 H 0.56639 0.42413 0.26859 0.0
H365 H 0.70675 0.97237 0.58407 0.0
H366 H 0.69899 0.0457 0.18131 0.0
N367 N 0.67297 0.80886 0.85437 0.0
C368 C 0.68801 0.84091 0.61748 0.0
C369 C 0.6788 0.77511 0.65334 0.0
C370 C 0.69048 0.89083 0.70367 0.0
C371 C 0.68285 0.87291 0.82329 0.0
C372 C 0.67159 0.76002 0.77334 0.0
N373 N 0.67994 0.89987 0.03047 0.0
C374 C 0.68659 0.92003 0.91464 0.0
C375 C 0.69555 0.01092 0.10528 0.0
C376 C 0.70191 0.0326 0.98569 0.0
C377 C 0.68474 0.94403 0.12653 0.0
C378 C 0.69767 0.98687 0.88883 0.0
H379 H 0.71036 0.0844 0.96967 0.0
O380 O 0.68337 0.80496 0.17983 0.0
O381 O 0.63766 0.73721 0.19308 0.0
O382 O 0.62297 0.81982 0.09417 0.0
O383 O 0.65223 0.86664 1.01823 0.0
O384 O 0.65895 0.81655 0.25858 0.0
O385 O 0.67651 0.72925 0.04057 0.0
O386 O 0.5898 0.67454 0.95725 0.0
O387 O 0.63574 0.75751 0.94228 0.0
O388 O 0.64927 0.67794 1.00291 0.0
O389 O 0.62316 0.63247 0.11814 0.0
O390 O 0.61456 0.67513 0.88025 0.0
O391 O 0.59403 0.7541 0.08574 0.0
C392 C 0.64351 0.7725 0.29118 0.0
C393 C 0.70451 0.00557 0.7682 0.0
C394 C 0.70094 0.95758 0.67576 0.0
C395 C 0.68779 0.7617 0.12649 0.0
C396 C 0.70695 0.78281 0.09632 0.0
C397 C 0.71465 0.82317 0.99307 0.0
C398 C 0.7176 0.76132 0.16876 0.0
C399 C 0.7357 0.77928 0.13629 0.0
C400 C 0.73253 0.84151 0.9614 0.0
C401 C 0.74298 0.81969 0.03211 0.0
C402 C 0.6374 0.8705 0.05347 0.0
C403 C 0.62976 0.72079 0.84556 0.0
C404 C 0.58324 0.71326 1.00548 0.0
C405 C 0.56388 0.68295 0.03759 0.0
C406 C 0.55533 0.61641 0.07309 0.0
C407 C 0.55363 0.71976 0.02902 0.0
C408 C 0.53501 0.68974 0.05403 0.0
C409 C 0.53706 0.58694 0.09895 0.0
C410 C 0.52694 0.62303 0.08896 0.0
C411 C 0.63619 0.62663 0.05539 0.0
H412 H 0.70685 0.84035 0.93642 0.0
H413 H 0.71178 0.73 0.24867 0.0
H414 H 0.73831 0.87276 0.88152 0.0
H415 H 0.75688 0.83507 1.00618 0.0
H416 H 0.56266 0.58663 0.07958 0.0
H417 H 0.56002 0.77099 1.00054 0.0
H418 H 0.5307 0.5357 0.12622 0.0
H419 H 0.51276 0.59887 0.10956 0.0
Gd420 Gd 0.3612 0.71469 0.07266 0.0
Gd421 Gd 0.40923 0.796 0.08311 0.0
C422 C 0.44025 0.89237 0.43166 0.0
C423 C 0.45475 0.0079 0.37242 0.0
C424 C 0.43526 0.92603 0.2276 0.0
C425 C 0.43199 0.87688 0.31469 0.0
C426 C 0.44694 0.99196 0.25481 0.0
C427 C 0.45136 0.95825 0.4608 0.0
C428 C 0.4375 0.84096 0.51456 0.0
C429 C 0.42733 0.7759 0.47813 0.0
N430 N 0.42138 0.81357 0.28318 0.0
C431 C 0.41959 0.763 0.36065 0.0
H432 H 0.41186 0.71248 0.33304 0.0
C433 C 0.43114 0.95565 1.02387 0.0
N434 N 0.42737 0.90914 0.11506 0.0
C435 C 0.44267 0.02156 0.04658 0.0
C436 C 0.45059 0.03985 0.16255 0.0
H437 H 0.4252 0.94227 0.9336 0.0
H438 H 0.45772 0.97112 0.55044 0.0
H439 H 0.35756 0.7997 0.82744 0.0
H440 H 0.44354 0.85084 0.60547 0.0
H441 H 0.42543 0.73565 0.54042 0.0
H442 H 0.46363 0.05836 0.39534 0.0
H443 H 0.34509 0.56712 0.21629 0.0
H444 H 0.32827 0.66307 0.54526 0.0
H445 H 0.34469 0.77787 0.61823 0.0
H446 H 0.31113 0.45273 0.74017 0.0
H447 H 0.44545 0.0582 0.97452 0.0
H448 H 0.45952 0.09095 0.1798 0.0
H449 H 0.31591 0.54182 0.59134 0.0
H450 H 0.32711 0.45015 0.16591 0.0
N451 N 0.34899 0.69834 0.87236 0.0
C452 C 0.33389 0.67234 0.63747 0.0
C453 C 0.34312 0.73718 0.67839 0.0
C454 C 0.33168 0.62023 0.71711 0.0
C455 C 0.3394 0.63503 0.83585 0.0
C456 C 0.35042 0.74934 0.79729 0.0
N457 N 0.34376 0.60144 0.0344 0.0
C458 C 0.33674 0.58495 0.91925 0.0
C459 C 0.32976 0.48755 0.09554 0.0
C460 C 0.32304 0.46965 0.97617 0.0
C461 C 0.33994 0.55404 0.1238 0.0
C462 C 0.32628 0.5186 0.88672 0.0
H463 H 0.31509 0.41811 0.95476 0.0
O464 O 0.33979 0.69167 0.2091 0.0
O465 O 0.38438 0.76544 0.20453 0.0
O466 O 0.39855 0.68573 0.12067 0.0
O467 O 0.37165 0.64081 1.01784 0.0
O468 O 0.36383 0.6818 0.2688 0.0
O469 O 0.34253 0.76021 0.06195 0.0
O470 O 0.42933 0.8106 0.94059 0.0
O471 O 0.38606 0.74551 0.95216 0.0
O472 O 0.37192 0.82433 0.03131 0.0
O473 O 0.39917 0.87228 0.13041 0.0
O474 O 0.40675 0.82781 0.88524 0.0
O475 O 0.42923 0.75694 0.10626 0.0
C476 C 0.37887 0.72817 0.30107 0.0
C477 C 0.31909 0.50343 0.7672 0.0
C478 C 0.32179 0.55415 0.68253 0.0
C479 C 0.3329 0.72765 0.15647 0.0
C480 C 0.31321 0.69664 0.1418 0.0
C481 C 0.30481 0.63579 0.08119 0.0
C482 C 0.30255 0.72617 0.19318 0.0
C483 C 0.28368 0.69425 0.18539 0.0
C484 C 0.28626 0.60452 0.07216 0.0
C485 C 0.27575 0.63322 0.12434 0.0
C486 C 0.38566 0.63571 0.06474 0.0
C487 C 0.39156 0.78176 0.85427 0.0
C488 C 0.43781 0.78385 1.00451 0.0
C489 C 0.45759 0.82114 1.01096 0.0
C490 C 0.4656 0.88991 0.99539 0.0
C491 C 0.46869 0.78803 1.02621 0.0
C492 C 0.48758 0.82337 1.02475 0.0
C493 C 0.48412 0.9249 0.99334 0.0
C494 C 0.49502 0.89205 1.0064 0.0
C495 C 0.38503 0.8759 0.08179 0.0
H496 H 0.31254 0.61181 0.0422 0.0
H497 H 0.30886 0.77283 0.24152 0.0
H498 H 0.27998 0.55745 1.02536 0.0
H499 H 0.26136 0.60779 0.11648 0.0
H500 H 0.4576 0.91677 0.98181 0.0
H501 H 0.46264 0.73499 0.03842 0.0
H502 H 0.49008 0.97775 0.97927 0.0
H503 H 0.50934 0.92053 0.99932 0.0
Gd504 Gd 0.61129 0.20645 0.98701 0.0
Gd505 Gd 0.65933 0.28483 1.00157 0.0
C506 C 0.68806 0.37927 0.36023 0.0
C507 C 0.70142 0.4959 0.30817 0.0
C508 C 0.68416 0.41427 0.1551 0.0
C509 C 0.6807 0.36447 0.24045 0.0
C510 C 0.69482 0.48052 0.18711 0.0
C511 C 0.69805 0.44533 0.39459 0.0
C512 C 0.68568 0.32715 0.4403 0.0
C513 C 0.67674 0.26235 0.39849 0.0
N514 N 0.67119 0.30121 0.2034 0.0
C515 C 0.66976 0.25025 0.27862 0.0
H516 H 0.66282 0.1999 0.24829 0.0
C517 C 0.68253 0.4442 0.94727 0.0
N518 N 0.6778 0.39741 0.03851 0.0
C519 C 0.69289 0.51066 0.97483 0.0
C520 C 0.69891 0.52904 0.0956 0.0
H521 H 0.67802 0.43064 0.85354 0.0
H522 H 0.70364 0.4577 0.48662 0.0
H523 H 0.60922 0.29456 0.74244 0.0
H524 H 0.69107 0.33638 0.53317 0.0
H525 H 0.6751 0.22163 0.45877 0.0
H526 H 0.70953 0.54654 0.33487 0.0
H527 H 0.5939 0.05888 0.12875 0.0
H528 H 0.57925 0.16126 0.45759 0.0
H529 H 0.59653 0.27521 0.53239 0.0
H530 H 0.5592 0.94954 0.65184 0.0
H531 H 0.69624 0.54763 0.9028 0.0
H532 H 0.70704 0.58052 0.11648 0.0
H533 H 0.56548 0.03975 0.50273 0.0
H534 H 0.5743 0.94305 0.07849 0.0
N535 N 0.59991 0.19258 0.78475 0.0
C536 C 0.58484 0.16944 0.54986 0.0
C537 C 0.59455 0.23382 0.59181 0.0
C538 C 0.582 0.11647 0.62894 0.0
C539 C 0.58971 0.12982 0.7478 0.0
C540 C 0.60177 0.24455 0.71095 0.0
N541 N 0.59331 0.09414 0.94651 0.0
C542 C 0.58628 0.07902 0.83122 0.0
C543 C 0.57758 0.98078 1.00809 0.0
C544 C 0.57071 0.96413 0.88878 0.0
C545 C 0.58871 0.04645 0.03613 0.0
C546 C 0.57491 0.01351 0.79881 0.0
H547 H 0.56202 0.91323 0.86759 0.0
O548 O 0.5886 0.18108 0.11305 0.0
O549 O 0.63431 0.25578 0.12013 0.0
O550 O 0.64782 0.176 0.05016 0.0
O551 O 0.62131 0.12936 0.94318 0.0
O552 O 0.61296 0.17545 0.18684 0.0
O553 O 0.59352 0.2556 0.973 0.0
O554 O 0.68197 0.308 0.87511 0.0
O555 O 0.63627 0.2357 0.86831 0.0
O556 O 0.62218 0.31723 0.95393 0.0
O557 O 0.64973 0.36209 0.05073 0.0
O558 O 0.65724 0.31732 0.80322 0.0
O559 O 0.6754 0.22897 1.00698 0.0
C560 C 0.62835 0.22009 0.21821 0.0
C561 C 0.56779 -0.00036 0.67894 0.0
C562 C 0.57136 0.05101 0.59407 0.0
C563 C 0.58253 0.21916 0.05842 0.0
C564 C 0.56321 0.18959 1.0283 0.0
C565 C 0.55452 0.12335 0.99152 0.0
C566 C 0.55321 0.22725 0.03806 0.0
C567 C 0.53475 0.19896 1.01018 0.0
C568 C 0.53643 0.09545 0.96244 0.0
C569 C 0.52662 0.1328 0.97137 0.0
C570 C 0.63493 0.1247 0.99764 0.0
C571 C 0.64202 0.27207 0.77097 0.0
C572 C 0.68663 0.2641 0.92153 0.0
C573 C 0.70584 0.2859 0.94792 0.0
C574 C 0.7141 0.33407 0.03842 0.0
C575 C 0.71606 0.25847 0.88324 0.0
C576 C 0.73435 0.27882 0.91021 0.0
C577 C 0.73215 0.3547 0.06473 0.0
C578 C 0.74222 0.32751 1.00122 0.0
C579 C 0.63559 0.367 1.0062 0.0
H580 H 0.5616 0.09266 0.98639 0.0
H581 H 0.5597 0.27783 0.0699 0.0
H582 H 0.52996 0.04443 0.93344 0.0
H583 H 0.5126 0.10978 0.94767 0.0
H584 H 0.70665 0.35602 0.0885 0.0
H585 H 0.70977 0.22112 0.81317 0.0
H586 H 0.73839 0.39225 0.13433 0.0
H587 H 0.75628 0.34542 1.022 0.0
Gd588 Gd 0.40999 0.29162 0.96729 0.0
Gd589 Gd 0.36138 0.22062 0.9803 0.0
C590 C 0.34023 0.18241 0.38007 0.0
C591 C 0.32674 0.06281 0.39099 0.0
C592 C 0.34022 0.11878 0.19808 0.0
C593 C 0.34518 0.17908 0.25533 0.0
C594 C 0.33055 0.05989 0.26438 0.0
C595 C 0.33149 0.12404 0.44864 0.0
C596 C 0.34374 0.24418 0.43097 0.0
C597 C 0.35152 0.30035 0.35675 0.0
N598 N 0.35375 0.23448 0.18659 0.0
C599 C 0.35641 0.29456 0.23412 0.0
H600 H 0.36229 0.33841 0.17843 0.0
C601 C 0.33571 0.06017 1.00953 0.0
N602 N 0.34351 0.11794 0.07482 0.0
C603 C 0.32662 0.00027 0.07167 0.0
C604 C 0.32437 2e-05 0.20026 0.0
H605 H 0.33752 0.06019 0.90995 0.0
H606 H 0.32793 0.12568 0.54523 0.0
H607 H 0.40994 0.14694 0.85189 0.0
H608 H 0.34013 0.24885 0.52628 0.0
H609 H 0.35393 0.34826 0.39423 0.0
H610 H 0.31954 0.01808 0.44385 0.0
H611 H 0.42331 0.45697 0.91119 0.0
H612 H 0.42653 0.17862 0.47519 0.0
H613 H 0.41592 0.10558 0.65736 0.0
H614 H 0.43996 0.40418 0.40266 0.0
H615 H 0.32134 0.95442 1.02036 0.0
H616 H 0.31722 0.95365 0.24838 0.0
H617 H 0.43547 0.28924 0.38188 0.0
H618 H 0.43341 0.53262 0.73693 0.0
N619 N 0.41523 0.24328 0.78323 0.0
C620 C 0.4235 0.1973 0.56091 0.0
C621 C 0.41744 0.15594 0.66328 0.0
C622 C 0.42595 0.26269 0.57081 0.0
C623 C 0.4218 0.28503 0.68479 0.0
C624 C 0.41363 0.17991 0.77431 0.0
N625 N 0.4201 0.37118 0.80598 0.0
C626 C 0.42421 0.35021 0.69627 0.0
C627 C 0.43056 0.48121 0.72335 0.0
C628 C 0.43375 0.45955 0.60857 0.0
C629 C 0.42418 0.43681 0.82195 0.0
C630 C 0.43099 0.39395 0.5944 0.0
H631 H 0.43883 0.4943 0.53251 0.0
O632 O 0.43527 0.36978 1.02126 0.0
O633 O 0.38608 0.25642 0.09627 0.0
O634 O 0.37293 0.33183 0.96637 0.0
O635 O 0.40262 0.37307 1.02629 0.0
O636 O 0.41039 0.29595 0.17982 0.0
O637 O 0.43301 0.26897 0.99731 0.0
O638 O 0.33689 0.17941 0.87202 0.0
O639 O 0.38517 0.26696 0.84707 0.0
O640 O 0.40051 0.18528 1.02252 0.0
O641 O 0.36968 0.13689 0.99311 0.0
O642 O 0.36384 0.18178 0.79011 0.0
O643 O 0.34488 0.27399 0.9587 0.0
C644 C 0.3935 0.26871 0.20414 0.0
C645 C 0.43491 0.37134 0.48155 0.0
C646 C 0.43238 0.30593 0.46976 0.0
C647 C 0.44315 0.33022 1.02617 0.0
C648 C 0.46216 0.35449 0.06198 0.0
C649 C 0.47042 0.41544 0.12306 0.0
C650 C 0.47213 0.31754 0.0384 0.0
C651 C 0.49023 0.34222 0.07385 0.0
C652 C 0.48814 0.43912 0.16043 0.0
C653 C 0.49797 0.40285 0.13631 0.0
C654 C 0.38795 0.38042 1.0035 0.0
C655 C 0.37904 0.22705 0.7544 0.0
C656 C 0.33255 0.22773 0.89564 0.0
C657 C 0.31389 0.21012 0.9359 0.0
C658 C 0.30749 0.1768 0.04836 0.0
C659 C 0.30251 0.22846 0.86423 0.0
C660 C 0.28498 0.21432 0.90614 0.0
C661 C 0.29015 0.1621 0.08944 0.0
C662 C 0.27897 0.18072 1.01922 0.0
C663 C 0.38485 0.13373 1.01878 0.0
H664 H 0.4631 0.44461 0.14362 0.0
H665 H 0.46595 0.27046 0.99131 0.0
H666 H 0.49426 0.48566 0.20907 0.0
H667 H 0.51162 0.42172 0.16805 0.0
H668 H 0.3159 0.16233 0.10478 0.0
H669 H 0.30738 0.25454 0.77745 0.0
H670 H 0.28535 0.1362 0.1763 0.0
H671 H 0.26552 0.16816 0.05273 0.0
C672 C 0.25626 0.22552 0.64069 0.0
C673 C 0.24698 0.25992 0.69355 0.0
C674 C 0.26884 0.21254 0.70858 0.0
C675 C 0.27262 0.23301 0.83255 0.0
H676 H 0.25366 0.20789 0.54603 0.0
H677 H 0.27538 0.18499 0.66448 0.0
S678 S 0.2532 0.32901 1.01226 0.0
N679 N 0.24336 0.31737 0.87612 0.0
N680 N 0.26675 0.29217 1.0038 0.0
C681 C 0.26364 0.26808 0.88624 0.0
C682 C 0.25089 0.28158 0.817 0.0
C683 C 0.74606 0.25146 0.71135 0.0
C684 C 0.74564 0.25181 0.84186 0.0
C685 C 0.75782 0.23199 0.64547 0.0
C686 C 0.76966 0.21203 0.70722 0.0
H687 H 0.73758 0.26804 0.65965 0.0
H688 H 0.75782 0.23353 0.54506 0.0
S689 S 0.77241 0.19701 0.04803 0.0
N690 N 0.75716 0.22558 0.03031 0.0
N691 N 0.77919 0.18922 0.90667 0.0
C692 C 0.76903 0.21052 0.83762 0.0
C693 C 0.75704 0.23019 0.90471 0.0
C694 C 0.25794 0.68444 0.32382 0.0
C695 C 0.27195 0.72274 0.2421 0.0
C696 C 0.24617 0.70881 0.3746 0.0
C697 C 0.24795 0.77243 0.34552 0.0
H698 H 0.25616 0.6353 0.34944 0.0
H699 H 0.23584 0.6782 0.43893 0.0
S700 S 0.28068 0.88888 0.124 0.0
N701 N 0.28582 0.82523 0.12656 0.0
N702 N 0.26378 0.87101 0.22213 0.0
C703 C 0.26156 0.81048 0.26156 0.0
C704 C 0.27354 0.78573 0.20999 0.0
C705 C 0.74978 0.77262 0.33808 0.0
C706 C 0.74733 0.75768 0.21099 0.0
C707 C 0.76193 0.75789 0.40749 0.0
C708 C 0.77204 0.72714 0.35296 0.0
H709 H 0.7426 0.79746 0.38353 0.0
H710 H 0.76357 0.77158 0.50458 0.0
S711 S 0.76926 0.67243 1.02511 0.0
N712 N 0.75528 0.7074 0.03449 0.0
N713 N 0.77778 0.67853 0.16492 0.0
C714 C 0.76938 0.71065 0.2263 0.0
C715 C 0.7571 0.72605 0.15556 0.0
C716 C 0.12163 0.93482 0.46578 0.0
C717 C 0.13204 0.91836 0.54942 0.0
C718 C 0.12086 -0.00384 0.47217 0.0
C719 C 0.13055 0.04313 0.56192 0.0
H720 H 0.11441 0.9009 0.39279 0.0
H721 H 0.11313 0.00771 0.40373 0.0
S722 S 0.15758 0.02065 0.81394 0.0
N723 N 0.15049 0.95134 0.73402 0.0
N724 N 0.14948 0.06699 0.74296 0.0
C725 C 0.14041 0.02632 0.64897 0.0
C726 C 0.14103 0.9638 0.64356 0.0
C727 C 0.89152 0.48102 0.61989 0.0
C728 C 0.88121 0.42992 0.53865 0.0
C729 C 0.89164 0.54359 0.61209 0.0
C730 C 0.88138 0.55738 0.5233 0.0
H731 H 0.8996 0.47282 0.69023 0.0
H732 H 0.89979 0.58134 0.67656 0.0
S733 S 0.85302 0.44269 0.28355 0.0
N734 N 0.86097 0.39863 0.36347 0.0
N735 N 0.86132 0.51624 0.3488 0.0
C736 C 0.87107 0.50708 0.44131 0.0
C737 C 0.87094 0.44334 0.44908 0.0
C738 C 0.8762 0.95686 0.43936 0.0
C739 C 0.88798 0.94226 0.51283 0.0
C740 C 0.87542 0.01786 0.44779 0.0
C741 C 0.88626 0.06673 0.53102 0.0
H742 H 0.86747 0.92084 0.37443 0.0
H743 H 0.86619 0.02652 0.38816 0.0
S744 S 0.91901 0.05211 0.74753 0.0
N745 N 0.91052 0.98092 0.67349 0.0
N746 N 0.9091 0.09588 0.6895 0.0
C747 C 0.8982 0.05293 0.60479 0.0
C748 C 0.89904 0.99064 0.59575 0.0
C749 C 0.12645 0.50387 0.44542 0.0
C750 C 0.13717 0.55545 0.52425 0.0
C751 C 0.12639 0.44137 0.45237 0.0
C752 C 0.13715 0.42802 0.53776 0.0
H753 H 0.11797 0.51163 0.37754 0.0
H754 H 0.11788 0.40332 0.38973 0.0
S755 S 0.16705 0.54453 0.76926 0.0
N756 N 0.15855 0.58798 0.69284 0.0
N757 N 0.15832 0.47047 0.70604 0.0
C758 C 0.14795 0.47889 0.61715 0.0
C759 C 0.14801 0.54261 0.61024 0.0
C760 C 0.62765 0.51102 0.1306 0.0
C761 C 0.63571 0.55988 0.03923 0.0
C762 C 0.62741 0.44809 0.11852 0.0
C763 C 0.63495 0.43161 1.01385 0.0
H764 H 0.62179 0.52183 0.21318 0.0
H765 H 0.62145 0.41232 0.19203 0.0
S766 S 0.65614 0.53839 0.74331 0.0
N767 N 0.65051 0.58508 0.83708 0.0
N768 N 0.6497 0.46673 0.81454 0.0
C769 C 0.64254 0.47884 0.92049 0.0
C770 C 0.64301 0.54305 0.93315 0.0
C771 C 0.37294 0.95096 0.98889 0.0
C772 C 0.38445 0.94125 0.07372 0.0
C773 C 0.37287 0.01301 0.97361 0.0
C774 C 0.38445 0.06799 0.04142 0.0
H775 H 0.36413 0.9107 0.93168 0.0
H776 H 0.36406 0.01833 0.9054 0.0
S777 S 0.41537 0.0677 0.28733 0.0
N778 N 0.40616 0.99086 0.23709 0.0
N779 N 0.40679 0.10811 0.20279 0.0
C780 C 0.39568 0.05885 0.12872 0.0
C781 C 0.39546 -0.00465 0.14646 0.0
C782 C 0.37548 0.46169 0.95775 0.0
C783 C 0.38807 0.44641 1.0203 0.0
C784 C 0.37493 0.52284 0.97281 0.0
C785 C 0.38682 0.57146 0.05211 0.0
H786 H 0.36601 0.4263 0.89542 0.0
H787 H 0.3651 0.53195 0.92069 0.0
S788 S 0.42196 0.55516 0.24164 0.0
N789 N 0.41252 0.48431 0.16712 0.0
N790 N 0.41144 0.59933 0.19607 0.0
C791 C 0.39948 0.55682 0.11581 0.0
C792 C 0.4001 0.49437 0.09985 0.0
C793 C 0.64628 0.04939 0.09865 0.0
C794 C 0.63536 0.05912 1.00874 0.0
C795 C 0.64687 0.98813 0.11306 0.0
C796 C 0.63646 0.93419 0.03892 0.0
H797 H 0.65438 0.0892 0.15943 0.0
H798 H 0.65537 0.98274 0.18364 0.0
S799 S 0.60704 0.93365 0.78252 0.0
N800 N 0.61494 0.00952 0.83799 0.0
N801 N 0.61572 0.8941 0.86861 0.0
C802 C 0.62568 0.94286 0.94797 0.0
C803 C 0.62521 0.00539 0.93195 0.0
C804 C 0.13758 0.28799 0.13619 0.0
C805 C 0.13191 0.2248 0.19047 0.0
C806 C 0.13985 0.29816 1.00478 0.0
C807 C 0.13605 0.24582 0.91819 0.0
H808 H 0.1402 0.33013 0.19559 0.0
H809 H 0.14451 0.34809 0.97025 0.0
S810 S 0.12186 0.07103 1.01011 0.0
N811 N 0.123 0.10904 0.14364 0.0
N812 N 0.12751 0.12845 0.90168 0.0
C813 C 0.13061 0.18269 0.97153 0.0
C814 C 0.12831 0.17225 0.10503 0.0
C815 C 0.87881 0.19534 0.13099 0.0
C816 C 0.88507 0.25902 0.18439 0.0
C817 C 0.87647 0.18453 0.99961 0.0
C818 C 0.8806 0.23644 0.91142 0.0
H819 H 0.8758 0.15324 0.19099 0.0
H820 H 0.87139 0.13423 0.96637 0.0
S821 S 0.89649 0.4126 1.00036 0.0
N822 N 0.89486 0.37495 0.13451 0.0
N823 N 0.89032 0.35441 0.89319 0.0
C824 C 0.88664 0.30011 0.96388 0.0
C825 C 0.889 0.31122 0.09742 0.0
C826 C 0.14191 0.80049 0.06562 0.0
C827 C 0.13748 0.7487 0.15443 0.0
C828 C 0.13971 0.78943 0.93426 0.0
C829 C 0.13322 0.72556 0.88154 0.0
H830 H 0.14714 0.85092 0.09831 0.0
H831 H 0.14298 0.83147 0.87375 0.0
S832 S 0.12106 0.5721 0.06736 0.0
N833 N 0.12734 0.63058 0.17396 0.0
N834 N 0.12296 0.60956 0.93268 0.0
C835 C 0.12902 0.67346 0.96911 0.0
C836 C 0.13128 0.68483 0.10263 0.0
C837 C 0.89062 0.81094 0.95071 0.0
C838 C 0.88681 0.75854 0.86428 0.0
C839 C 0.88831 0.80087 0.08208 0.0
C840 C 0.8826 0.73774 0.13662 0.0
H841 H 0.89538 0.86088 0.91607 0.0
H842 H 0.89097 0.84311 0.14129 0.0
S843 S 0.87238 0.58367 0.95657 0.0
N844 N 0.87815 0.64106 0.84801 0.0
N845 N 0.87354 0.62181 0.09 0.0
C846 C 0.87893 0.68504 0.05129 0.0
C847 C 0.88129 0.69539 0.91774 0.0
C848 C 0.64354 0.80904 0.51963 0.0
C849 C 0.63902 0.75684 0.43143 0.0
C850 C 0.64102 0.7985 0.65122 0.0
C851 C 0.63415 0.73475 0.70487 0.0
H852 H 0.6491 0.85938 0.48622 0.0
H853 H 0.64441 0.8409 0.71127 0.0
S854 S 0.6217 0.58035 0.52091 0.0
N855 N 0.62845 0.63847 0.41349 0.0
N856 N 0.62343 0.6184 0.65513 0.0
C857 C 0.62982 0.68223 0.61789 0.0
C858 C 0.63241 0.6931 0.48413 0.0
C859 C 0.392 0.81767 0.6257 0.0
C860 C 0.38732 0.76573 0.71446 0.0
C861 C 0.38978 0.80676 0.49426 0.0
C862 C 0.38296 0.74283 0.44148 0.0
H863 H 0.3975 0.86812 0.65848 0.0
H864 H 0.39335 0.84899 0.4337 0.0
S865 S 0.37023 0.58898 0.62709 0.0
N866 N 0.37673 0.64744 0.73372 0.0
N867 N 0.37222 0.62663 0.49254 0.0
C868 C 0.37849 0.69057 0.52904 0.0
C869 C 0.38081 0.70183 0.66255 0.0
C870 C 0.64006 0.29822 0.41123 0.0
C871 C 0.63301 0.23439 0.35788 0.0
C872 C 0.64255 0.30883 0.54261 0.0
C873 C 0.63786 0.25661 0.6308 0.0
H874 H 0.64354 0.3406 0.35121 0.0
H875 H 0.64818 0.3592 0.57585 0.0
S876 S 0.61994 0.0799 0.5416 0.0
N877 N 0.62192 0.118 0.40762 0.0
N878 N 0.62684 0.13808 0.64878 0.0
C879 C 0.63108 0.19279 0.57826 0.0
C880 C 0.62852 0.1819 0.44479 0.0
C881 C 0.39029 0.30924 0.42311 0.0
C882 C 0.38675 0.2558 0.33968 0.0
C883 C 0.38782 0.30085 0.55491 0.0
C884 C 0.38276 0.23887 0.6133 0.0
H885 H 0.39519 0.35873 0.3859 0.0
H886 H 0.39015 0.34369 0.61157 0.0
S887 S 0.37281 0.08266 0.44166 0.0
N888 N 0.37825 0.13838 0.33024 0.0
N889 N 0.37414 0.12268 0.573 0.0
C890 C 0.37926 0.18519 0.53091 0.0
C891 C 0.38141 0.19365 0.39695 0.0
C892 C 1.00564 0.19477 0.46822 0.0
C893 C 0.02175 0.22436 0.53393 0.0
C894 C 0.9941 0.22586 0.45692 0.0
C895 C 0.99803 0.28749 0.51255 0.0
H896 H 1.0019 0.1469 0.42558 0.0
H897 H 0.98205 0.2015 0.40332 0.0
S898 S 0.03791 0.38264 0.70451 0.0
N899 N 0.04078 0.31726 0.65914 0.0
N900 N 0.01889 0.37465 0.64316 0.0
C901 C 0.01405 0.31699 0.58035 0.0
C902 C 0.02593 0.28577 0.5897 0.0
C903 C 0.99402 0.70405 0.45486 0.0
C904 C 0.99671 0.76197 0.51947 0.0
C905 C 1.00578 0.67408 0.46829 0.0
C906 C 0.02068 0.70063 0.5475 0.0
H907 H 0.98303 0.68281 0.39077 0.0
H908 H 1.00333 0.63031 0.41411 0.0
S909 S 0.03261 0.84966 0.74419 0.0
N910 N 0.0148 0.84397 0.66805 0.0
N911 N 0.03658 0.78677 0.69736 0.0
C912 C 0.02319 0.75797 0.61482 0.0
C913 C 0.01128 0.78873 0.59995 0.0
C914 C 0.50776 0.69971 0.97494 0.0
C915 C 0.52364 0.72645 0.04399 0.0
C916 C 0.49609 0.73057 0.97074 0.0
C917 C 0.4997 0.78931 0.03631 0.0
H918 H 0.50434 0.65446 0.92318 0.0
H919 H 0.48428 0.70866 0.91399 0.0
S920 S 0.53876 0.87627 0.24018 0.0
N921 N 0.54196 0.81342 0.18377 0.0
N922 N 0.51994 0.87062 0.17924 0.0
C923 C 0.51543 0.81592 0.1076 0.0
C924 C 0.5274 0.78482 0.11046 0.0
C925 C 0.49553 0.24017 0.09229 0.0
C926 C 0.50123 0.30515 0.04936 0.0
C927 C 0.50651 0.20674 0.08014 0.0
C928 C 0.52361 0.2367 1.0237 0.0
H929 H 0.48269 0.21563 0.13868 0.0
H930 H 0.50163 0.15719 0.11708 0.0
S931 S 0.5439 0.40406 0.88421 0.0
N932 N 0.52457 0.39701 0.94161 0.0
N933 N 0.54502 0.33392 0.91647 0.0
C934 C 0.52924 0.3012 0.9776 0.0
C935 C 0.5181 0.33534 0.99073 0.0
loop_
_geom_bond_atom_site_label_1
_geom_bond_atom_site_label_2
_geom_bond_distance
_geom_bond_site_symmetry_2
_ccdc_geom_bond_type
Gd0 N31 2.661 . S
Gd0 N37 2.601 . S
Gd0 O44 2.545 . S
Gd0 O45 2.606 . S
Gd0 O47 2.429 . S
Gd0 O48 2.545 . S
Gd0 O49 2.412 . S
Gd0 O51 2.362 . S
Gd0 O52 2.324 . S
Gd0 C59 2.828 . S
Gd1 N10 2.661 . S
Gd1 N14 2.601 . S
Gd1 O45 2.362 . S
Gd1 O46 2.324 . S
Gd1 O50 2.545 . S
Gd1 O51 2.606 . S
Gd1 O53 2.429 . S
Gd1 O54 2.545 . S
Gd1 O55 2.412 . S
Gd1 C68 2.828 . S
C2 C5 1.417 . S
C2 C7 1.431 . S
C2 C8 1.412 . S
C3 C6 1.437 . S
C3 C7 1.317 . S
C3 H22 0.929 . S
C4 C5 1.426 . S
C4 C6 1.413 . S
C4 N14 1.359 . S
C5 C2 1.417 . S
C5 C4 1.426 . S
C5 N10 1.350 . S
C6 C3 1.437 . S
C6 C4 1.413 . S
C6 C16 1.391 . S
C7 C2 1.431 . S
C7 C3 1.317 . S
C7 H18 0.930 1_556 S
C8 C2 1.412 . S
C8 C9 1.355 . S
C8 H20 0.930 . S
C9 C8 1.355 . S
C9 C11 1.402 . S
C9 H21 0.930 . S
N10 Gd1 2.661 . S
N10 C5 1.350 . S
N10 C11 1.307 . S
C11 C9 1.402 . S
C11 N10 1.307 . S
C11 H12 0.930 . S
H12 C11 0.930 . S
C13 N14 1.334 . S
C13 C15 1.394 . S
C13 H17 0.930 . S
N14 Gd1 2.601 . S
N14 C4 1.359 . S
N14 C13 1.334 . S
C15 C13 1.394 . S
C15 C16 1.359 . S
C15 H27 0.930 1_545 S
C16 C6 1.391 . S
C16 C15 1.359 . S
C16 H28 0.929 1_545 S
H17 C13 0.930 . S
H18 C7 0.930 1_554 S
H19 C36 0.930 . S
H20 C8 0.930 . S
H21 C9 0.930 . S
H22 C3 0.929 . S
H23 C41 0.930 . S
H24 C32 0.930 . S
H25 C33 0.930 . S
H26 C57 0.929 . S
H27 C15 0.930 1_565 S
H28 C16 0.929 1_565 S
H29 C58 0.930 . S
H30 C39 0.930 . S
N31 Gd0 2.661 . S
N31 C35 1.350 . S
N31 C36 1.307 . S
C32 H24 0.930 . S
C32 C33 1.355 1_556 S
C32 C34 1.412 1_556 S
C33 H25 0.930 . S
C33 C32 1.355 1_554 S
C33 C36 1.402 . S
C34 C32 1.412 1_554 S
C34 C35 1.417 . S
C34 C58 1.431 1_554 S
C35 N31 1.350 . S
C35 C34 1.417 . S
C35 C38 1.426 . S
C36 H19 0.930 . S
C36 N31 1.307 . S
C36 C33 1.402 . S
N37 Gd0 2.601 . S
N37 C38 1.359 . S
N37 C41 1.334 . S
C38 C35 1.426 . S
C38 N37 1.359 . S
C38 C42 1.413 . S
C39 H30 0.930 . S
C39 C40 1.359 . S
C39 C41 1.394 . S
C40 C39 1.359 . S
C40 C42 1.391 . S
C40 H43 0.929 . S
C41 H23 0.930 . S
C41 N37 1.334 . S
C41 C39 1.394 . S
C42 C38 1.413 . S
C42 C40 1.391 . S
C42 C57 1.437 1_554 S
H43 C40 0.929 . S
O44 Gd0 2.545 . S
O44 C59 1.258 . S
O45 Gd0 2.606 . S
O45 Gd1 2.362 . S
O45 C56 1.284 . S
O46 Gd1 2.324 . S
O46 C66 1.254 . S
O47 Gd0 2.429 . S
O47 C66 1.268 . S
O48 Gd0 2.545 . S
O48 C56 1.250 . S
O49 Gd0 2.412 . S
O49 C59 1.252 . S
O50 Gd1 2.545 . S
O50 C68 1.258 . S
O51 Gd0 2.362 . S
O51 Gd1 2.606 . S
O51 C67 1.284 . S
O52 Gd0 2.324 . S
O52 C75 1.254 . S
O53 Gd1 2.429 . S
O53 C75 1.268 . S
O54 Gd1 2.545 . S
O54 C67 1.250 . S
O55 Gd1 2.412 . S
O55 C68 1.252 . S
C56 O45 1.284 . S
C56 O48 1.250 . S
C57 H26 0.929 . S
C57 C42 1.437 1_556 S
C57 C58 1.317 . S
C58 H29 0.930 . S
C58 C34 1.431 1_556 S
C58 C57 1.317 . S
C59 Gd0 2.828 . S
C59 O44 1.258 . S
C59 O49 1.252 . S
C59 C60 1.497 . S
C60 C59 1.497 . S
C60 C61 1.395 . S
C60 C62 1.380 . S
C61 C60 1.395 . S
C61 C64 1.398 . S
C61 H76 0.930 . S
C62 C60 1.380 . S
C62 C63 1.391 . S
C62 H77 0.930 . S
C63 C62 1.391 . S
C63 C65 1.387 . S
C64 C61 1.398 . S
C64 C65 1.380 . S
C64 H78 0.930 . S
C65 C63 1.387 . S
C65 C64 1.380 . S
C65 H79 0.930 . S
C66 O46 1.254 . S
C66 O47 1.268 . S
C67 O51 1.284 . S
C67 O54 1.250 . S
C68 Gd1 2.828 . S
C68 O50 1.258 . S
C68 O55 1.252 . S
C68 C69 1.497 . S
C69 C68 1.497 . S
C69 C70 1.395 . S
C69 C71 1.380 . S
C70 C69 1.395 . S
C70 C73 1.398 . S
C70 H80 0.930 . S
C71 C69 1.380 . S
C71 C72 1.391 . S
C71 H81 0.930 . S
C72 C71 1.391 . S
C72 C74 1.387 . S
C73 C70 1.398 . S
C73 C74 1.380 . S
C73 H82 0.930 . S
C74 C72 1.387 . S
C74 C73 1.380 . S
C74 H83 0.930 . S
C75 O52 1.254 . S
C75 O53 1.268 . S
H76 C61 0.930 . S
H77 C62 0.930 . S
H78 C64 0.930 . S
H79 C65 0.930 . S
H80 C70 0.930 . S
H81 C71 0.930 . S
H82 C73 0.930 . S
H83 C74 0.930 . S
Gd84 N115 2.661 . S
Gd84 N121 2.601 . S
Gd84 O128 2.545 . S
Gd84 O129 2.606 . S
Gd84 O131 2.429 . S
Gd84 O132 2.545 . S
Gd84 O133 2.412 . S
Gd84 O135 2.362 . S
Gd84 O136 2.324 . S
Gd84 C143 2.828 . S
Gd85 N94 2.661 . S
Gd85 N98 2.601 . S
Gd85 O129 2.362 . S
Gd85 O130 2.324 . S
Gd85 O134 2.545 . S
Gd85 O135 2.606 . S
Gd85 O137 2.429 . S
Gd85 O138 2.545 . S
Gd85 O139 2.412 . S
Gd85 C152 2.828 . S
C86 C89 1.417 . S
C86 C91 1.431 . S
C86 C92 1.412 . S
C87 C90 1.437 . S
C87 C91 1.317 . S
C87 H106 0.929 . S
C88 C89 1.426 . S
C88 C90 1.413 . S
C88 N98 1.359 . S
C89 C86 1.417 . S
C89 C88 1.426 . S
C89 N94 1.350 . S
C90 C87 1.437 . S
C90 C88 1.413 . S
C90 C100 1.391 . S
C91 C86 1.431 . S
C91 C87 1.317 . S
C91 H102 0.930 1_556 S
C92 C86 1.412 . S
C92 C93 1.355 . S
C92 H104 0.930 . S
C93 C92 1.355 . S
C93 C95 1.402 . S
C93 H105 0.930 . S
N94 Gd85 2.661 . S
N94 C89 1.350 . S
N94 C95 1.307 . S
C95 C93 1.402 . S
C95 N94 1.307 . S
C95 H96 0.930 . S
H96 C95 0.930 . S
C97 N98 1.334 . S
C97 C99 1.394 . S
C97 H101 0.930 . S
N98 Gd85 2.601 . S
N98 C88 1.359 . S
N98 C97 1.334 . S
C99 C97 1.394 . S
C99 C100 1.359 . S
C99 H111 0.930 . S
C100 C90 1.391 . S
C100 C99 1.359 . S
C100 H112 0.929 . S
H101 C97 0.930 . S
H102 C91 0.930 1_554 S
H103 C120 0.930 . S
H104 C92 0.930 . S
H105 C93 0.930 . S
H106 C87 0.929 . S
H107 C125 0.930 . S
H108 C116 0.930 . S
H109 C117 0.930 . S
H110 C141 0.929 . S
H111 C99 0.930 . S
H112 C100 0.929 . S
H113 C142 0.930 . S
H114 C123 0.930 . S
N115 Gd84 2.661 . S
N115 C119 1.350 . S
N115 C120 1.307 . S
C116 H108 0.930 . S
C116 C117 1.355 1_556 S
C116 C118 1.412 1_556 S
C117 H109 0.930 . S
C117 C116 1.355 1_554 S
C117 C120 1.402 . S
C118 C116 1.412 1_554 S
C118 C119 1.417 . S
C118 C142 1.431 1_554 S
C119 N115 1.350 . S
C119 C118 1.417 . S
C119 C122 1.426 . S
C120 H103 0.930 . S
C120 N115 1.307 . S
C120 C117 1.402 . S
N121 Gd84 2.601 . S
N121 C122 1.359 . S
N121 C125 1.334 . S
C122 C119 1.426 . S
C122 N121 1.359 . S
C122 C126 1.413 . S
C123 H114 0.930 . S
C123 C124 1.359 1_565 S
C123 C125 1.394 1_565 S
C124 C123 1.359 1_545 S
C124 C126 1.391 . S
C124 H127 0.929 1_545 S
C125 H107 0.930 . S
C125 N121 1.334 . S
C125 C123 1.394 1_545 S
C126 C122 1.413 . S
C126 C124 1.391 . S
C126 C141 1.437 1_554 S
H127 C124 0.929 1_565 S
O128 Gd84 2.545 . S
O128 C143 1.258 . S
O129 Gd84 2.606 . S
O129 Gd85 2.362 . S
O129 C140 1.284 . S
O130 Gd85 2.324 . S
O130 C150 1.254 . S
O131 Gd84 2.429 . S
O131 C150 1.268 . S
O132 Gd84 2.545 . S
O132 C140 1.250 . S
O133 Gd84 2.412 . S
O133 C143 1.252 . S
O134 Gd85 2.545 . S
O134 C152 1.258 . S
O135 Gd84 2.362 . S
O135 Gd85 2.606 . S
O135 C151 1.284 . S
O136 Gd84 2.324 . S
O136 C159 1.254 . S
O137 Gd85 2.429 . S
O137 C159 1.268 . S
O138 Gd85 2.545 . S
O138 C151 1.250 . S
O139 Gd85 2.412 . S
O139 C152 1.252 . S
C140 O129 1.284 . S
C140 O132 1.250 . S
C141 H110 0.929 . S
C141 C126 1.437 1_556 S
C141 C142 1.317 . S
C142 H113 0.930 . S
C142 C118 1.431 1_556 S
C142 C141 1.317 . S
C143 Gd84 2.828 . S
C143 O128 1.258 . S
C143 O133 1.252 . S
C143 C144 1.497 . S
C144 C143 1.497 . S
C144 C145 1.395 . S
C144 C146 1.380 . S
C145 C144 1.395 . S
C145 C148 1.398 . S
C145 H160 0.930 . S
C146 C144 1.380 . S
C146 C147 1.391 . S
C146 H161 0.930 . S
C147 C146 1.391 . S
C147 C149 1.387 . S
C148 C145 1.398 . S
C148 C149 1.380 . S
C148 H162 0.930 . S
C149 C147 1.387 . S
C149 C148 1.380 . S
C149 H163 0.930 . S
C150 O130 1.254 . S
C150 O131 1.268 . S
C151 O135 1.284 . S
C151 O138 1.250 . S
C152 Gd85 2.828 . S
C152 O134 1.258 . S
C152 O139 1.252 . S
C152 C153 1.497 . S
C153 C152 1.497 . S
C153 C154 1.395 . S
C153 C155 1.380 . S
C154 C153 1.395 . S
C154 C157 1.398 . S
C154 H164 0.930 . S
C155 C153 1.380 . S
C155 C156 1.391 . S
C155 H165 0.930 . S
C156 C155 1.391 . S
C156 C158 1.387 . S
C157 C154 1.398 . S
C157 C158 1.380 . S
C157 H166 0.930 . S
C158 C156 1.387 . S
C158 C157 1.380 . S
C158 H167 0.930 . S
C159 O136 1.254 . S
C159 O137 1.268 . S
H160 C145 0.930 . S
H161 C146 0.930 . S
H162 C148 0.930 . S
H163 C149 0.930 . S
H164 C154 0.930 . S
H165 C155 0.930 . S
H166 C157 0.930 . S
H167 C158 0.930 . S
Gd168 N199 2.661 . S
Gd168 N205 2.601 . S
Gd168 O212 2.545 . S
Gd168 O213 2.606 . S
Gd168 O215 2.429 . S
Gd168 O216 2.545 . S
Gd168 O217 2.412 . S
Gd168 O219 2.362 . S
Gd168 O220 2.324 . S
Gd168 C227 2.828 . S
Gd169 N178 2.661 . S
Gd169 N182 2.601 . S
Gd169 O213 2.362 . S
Gd169 O214 2.324 . S
Gd169 O218 2.545 . S
Gd169 O219 2.606 . S
Gd169 O221 2.429 . S
Gd169 O222 2.545 . S
Gd169 O223 2.412 . S
Gd169 C236 2.828 . S
C170 C173 1.417 . S
C170 C175 1.431 1_556 S
C170 C176 1.412 1_556 S
C171 C174 1.437 1_554 S
C171 C175 1.317 . S
C171 H190 0.929 . S
C172 C173 1.426 . S
C172 C174 1.413 . S
C172 N182 1.359 . S
C173 C170 1.417 . S
C173 C172 1.426 . S
C173 N178 1.350 . S
C174 C171 1.437 1_556 S
C174 C172 1.413 . S
C174 C184 1.391 . S
C175 C170 1.431 1_554 S
C175 C171 1.317 . S
C175 H186 0.930 . S
C176 C170 1.412 1_554 S
C176 C177 1.355 1_554 S
C176 H188 0.930 . S
C177 C176 1.355 1_556 S
C177 C179 1.402 . S
C177 H189 0.930 . S
N178 Gd169 2.661 . S
N178 C173 1.350 . S
N178 C179 1.307 . S
C179 C177 1.402 . S
C179 N178 1.307 . S
C179 H180 0.930 . S
H180 C179 0.930 . S
C181 N182 1.334 . S
C181 C183 1.394 1_565 S
C181 H185 0.930 . S
N182 Gd169 2.601 . S
N182 C172 1.359 . S
N182 C181 1.334 . S
C183 C181 1.394 1_545 S
C183 C184 1.359 1_545 S
C183 H195 0.930 . S
C184 C174 1.391 . S
C184 C183 1.359 1_565 S
C184 H196 0.929 1_565 S
H185 C181 0.930 . S
H186 C175 0.930 . S
H187 C204 0.930 . S
H188 C176 0.930 . S
H189 C177 0.930 . S
H190 C171 0.929 . S
H191 C209 0.930 . S
H192 C200 0.930 . S
H193 C201 0.930 . S
H194 C225 0.929 . S
H195 C183 0.930 . S
H196 C184 0.929 1_545 S
H197 C226 0.930 1_556 S
H198 C207 0.930 . S
N199 Gd168 2.661 . S
N199 C203 1.350 . S
N199 C204 1.307 . S
C200 H192 0.930 . S
C200 C201 1.355 . S
C200 C202 1.412 . S
C201 H193 0.930 . S
C201 C200 1.355 . S
C201 C204 1.402 . S
C202 C200 1.412 . S
C202 C203 1.417 . S
C202 C226 1.431 . S
C203 N199 1.350 . S
C203 C202 1.417 . S
C203 C206 1.426 . S
C204 H187 0.930 . S
C204 N199 1.307 . S
C204 C201 1.402 . S
N205 Gd168 2.601 . S
N205 C206 1.359 . S
N205 C209 1.334 . S
C206 C203 1.426 . S
C206 N205 1.359 . S
C206 C210 1.413 . S
C207 H198 0.930 . S
C207 C208 1.359 . S
C207 C209 1.394 . S
C208 C207 1.359 . S
C208 C210 1.391 . S
C208 H211 0.929 . S
C209 H191 0.930 . S
C209 N205 1.334 . S
C209 C207 1.394 . S
C210 C206 1.413 . S
C210 C208 1.391 . S
C210 C225 1.437 . S
H211 C208 0.929 . S
O212 Gd168 2.545 . S
O212 C227 1.258 . S
O213 Gd168 2.606 . S
O213 Gd169 2.362 . S
O213 C224 1.284 . S
O214 Gd169 2.324 . S
O214 C234 1.254 . S
O215 Gd168 2.429 . S
O215 C234 1.268 . S
O216 Gd168 2.545 . S
O216 C224 1.250 . S
O217 Gd168 2.412 . S
O217 C227 1.252 . S
O218 Gd169 2.545 . S
O218 C236 1.258 . S
O219 Gd168 2.362 . S
O219 Gd169 2.606 . S
O219 C235 1.284 . S
O220 Gd168 2.324 . S
O220 C243 1.254 . S
O221 Gd169 2.429 . S
O221 C243 1.268 . S
O222 Gd169 2.545 . S
O222 C235 1.250 . S
O223 Gd169 2.412 . S
O223 C236 1.252 . S
C224 O213 1.284 . S
C224 O216 1.250 . S
C225 H194 0.929 . S
C225 C210 1.437 . S
C225 C226 1.317 . S
C226 H197 0.930 1_554 S
C226 C202 1.431 . S
C226 C225 1.317 . S
C227 Gd168 2.828 . S
C227 O212 1.258 . S
C227 O217 1.252 . S
C227 C228 1.497 . S
C228 C227 1.497 . S
C228 C229 1.395 . S
C228 C230 1.380 . S
C229 C228 1.395 . S
C229 C232 1.398 . S
C229 H244 0.930 . S
C230 C228 1.380 . S
C230 C231 1.391 . S
C230 H245 0.930 . S
C231 C230 1.391 . S
C231 C233 1.387 . S
C232 C229 1.398 . S
C232 C233 1.380 . S
C232 H246 0.930 . S
C233 C231 1.387 . S
C233 C232 1.380 . S
C233 H247 0.930 . S
C234 O214 1.254 . S
C234 O215 1.268 . S
C235 O219 1.284 . S
C235 O222 1.250 . S
C236 Gd169 2.828 . S
C236 O218 1.258 . S
C236 O223 1.252 . S
C236 C237 1.497 . S
C237 C236 1.497 . S
C237 C238 1.395 . S
C237 C239 1.380 . S
C238 C237 1.395 . S
C238 C241 1.398 . S
C238 H248 0.930 . S
C239 C237 1.380 . S
C239 C240 1.391 . S
C239 H249 0.930 . S
C240 C239 1.391 . S
C240 C242 1.387 . S
C241 C238 1.398 . S
C241 C242 1.380 . S
C241 H250 0.930 . S
C242 C240 1.387 . S
C242 C241 1.380 . S
C242 H251 0.930 . S
C243 O220 1.254 . S
C243 O221 1.268 . S
H244 C229 0.930 . S
H245 C230 0.930 . S
H246 C232 0.930 . S
H247 C233 0.930 . S
H248 C238 0.930 . S
H249 C239 0.930 . S
H250 C241 0.930 . S
H251 C242 0.930 . S
Gd252 N283 2.661 . S
Gd252 N289 2.601 . S
Gd252 O296 2.545 . S
Gd252 O297 2.606 . S
Gd252 O299 2.429 . S
Gd252 O300 2.545 . S
Gd252 O301 2.412 . S
Gd252 O303 2.362 . S
Gd252 O304 2.324 . S
Gd252 C311 2.828 . S
Gd253 N262 2.661 . S
Gd253 N266 2.601 . S
Gd253 O297 2.362 . S
Gd253 O298 2.324 . S
Gd253 O302 2.545 . S
Gd253 O303 2.606 . S
Gd253 O305 2.429 . S
Gd253 O306 2.545 . S
Gd253 O307 2.412 . S
Gd253 C320 2.828 . S
C254 C257 1.417 . S
C254 C259 1.431 1_556 S
C254 C260 1.412 1_556 S
C255 C258 1.437 1_554 S
C255 C259 1.317 . S
C255 H274 0.929 . S
C256 C257 1.426 . S
C256 C258 1.413 . S
C256 N266 1.359 . S
C257 C254 1.417 . S
C257 C256 1.426 . S
C257 N262 1.350 . S
C258 C255 1.437 1_556 S
C258 C256 1.413 . S
C258 C268 1.391 . S
C259 C254 1.431 1_554 S
C259 C255 1.317 . S
C259 H270 0.930 . S
C260 C254 1.412 1_554 S
C260 C261 1.355 1_554 S
C260 H272 0.930 . S
C261 C260 1.355 1_556 S
C261 C263 1.402 . S
C261 H273 0.930 . S
N262 Gd253 2.661 . S
N262 C257 1.350 . S
N262 C263 1.307 . S
C263 C261 1.402 . S
C263 N262 1.307 . S
C263 H264 0.930 . S
H264 C263 0.930 . S
C265 N266 1.334 . S
C265 C267 1.394 . S
C265 H269 0.930 . S
N266 Gd253 2.601 . S
N266 C256 1.359 . S
N266 C265 1.334 . S
C267 C265 1.394 . S
C267 C268 1.359 . S
C267 H279 0.930 . S
C268 C258 1.391 . S
C268 C267 1.359 . S
C268 H280 0.929 . S
H269 C265 0.930 . S
H270 C259 0.930 . S
H271 C288 0.930 . S
H272 C260 0.930 . S
H273 C261 0.930 . S
H274 C255 0.929 . S
H275 C293 0.930 . S
H276 C284 0.930 . S
H277 C285 0.930 . S
H278 C309 0.929 . S
H279 C267 0.930 . S
H280 C268 0.929 . S
H281 C310 0.930 1_556 S
H282 C291 0.930 1_545 S
N283 Gd252 2.661 . S
N283 C287 1.350 . S
N283 C288 1.307 . S
C284 H276 0.930 . S
C284 C285 1.355 . S
C284 C286 1.412 . S
C285 H277 0.930 . S
C285 C284 1.355 . S
C285 C288 1.402 . S
C286 C284 1.412 . S
C286 C287 1.417 . S
C286 C310 1.431 . S
C287 N283 1.350 . S
C287 C286 1.417 . S
C287 C290 1.426 . S
C288 H271 0.930 . S
C288 N283 1.307 . S
C288 C285 1.402 . S
N289 Gd252 2.601 . S
N289 C290 1.359 . S
N289 C293 1.334 . S
C290 C287 1.426 . S
C290 N289 1.359 . S
C290 C294 1.413 . S
C291 H282 0.930 1_565 S
C291 C292 1.359 . S
C291 C293 1.394 . S
C292 C291 1.359 . S
C292 C294 1.391 . S
C292 H295 0.929 1_565 S
C293 H275 0.930 . S
C293 N289 1.334 . S
C293 C291 1.394 . S
C294 C290 1.413 . S
C294 C292 1.391 . S
C294 C309 1.437 . S
H295 C292 0.929 1_545 S
O296 Gd252 2.545 . S
O296 C311 1.258 . S
O297 Gd252 2.606 . S
O297 Gd253 2.362 . S
O297 C308 1.284 . S
O298 Gd253 2.324 . S
O298 C318 1.254 . S
O299 Gd252 2.429 . S
O299 C318 1.268 . S
O300 Gd252 2.545 . S
O300 C308 1.250 . S
O301 Gd252 2.412 . S
O301 C311 1.252 . S
O302 Gd253 2.545 . S
O302 C320 1.258 . S
O303 Gd252 2.362 . S
O303 Gd253 2.606 . S
O303 C319 1.284 . S
O304 Gd252 2.324 . S
O304 C327 1.254 . S
O305 Gd253 2.429 . S
O305 C327 1.268 . S
O306 Gd253 2.545 . S
O306 C319 1.250 . S
O307 Gd253 2.412 . S
O307 C320 1.252 . S
C308 O297 1.284 . S
C308 O300 1.250 . S
C309 H278 0.929 . S
C309 C294 1.437 . S
C309 C310 1.317 . S
C310 H281 0.930 1_554 S
C310 C286 1.431 . S
C310 C309 1.317 . S
C311 Gd252 2.828 . S
C311 O296 1.258 . S
C311 O301 1.252 . S
C311 C312 1.497 . S
C312 C311 1.497 . S
C312 C313 1.395 . S
C312 C314 1.380 . S
C313 C312 1.395 . S
C313 C316 1.398 . S
C313 H328 0.930 . S
C314 C312 1.380 . S
C314 C315 1.391 . S
C314 H329 0.930 . S
C315 C314 1.391 . S
C315 C317 1.387 . S
C316 C313 1.398 . S
C316 C317 1.380 . S
C316 H330 0.930 . S
C317 C315 1.387 . S
C317 C316 1.380 . S
C317 H331 0.930 . S
C318 O298 1.254 . S
C318 O299 1.268 . S
C319 O303 1.284 . S
C319 O306 1.250 . S
C320 Gd253 2.828 . S
C320 O302 1.258 . S
C320 O307 1.252 . S
C320 C321 1.497 . S
C321 C320 1.497 . S
C321 C322 1.395 . S
C321 C323 1.380 . S
C322 C321 1.395 . S
C322 C325 1.398 . S
C322 H332 0.930 . S
C323 C321 1.380 . S
C323 C324 1.391 . S
C323 H333 0.930 . S
C324 C323 1.391 . S
C324 C326 1.387 . S
C325 C322 1.398 . S
C325 C326 1.380 . S
C325 H334 0.930 . S
C326 C324 1.387 . S
C326 C325 1.380 . S
C326 H335 0.930 . S
C327 O304 1.254 . S
C327 O305 1.268 . S
H328 C313 0.930 . S
H329 C314 0.930 . S
H330 C316 0.930 . S
H331 C317 0.930 . S
H332 C322 0.930 . S
H333 C323 0.930 . S
H334 C325 0.930 . S
H335 C326 0.930 . S
Gd336 N367 2.661 . S
Gd336 N373 2.601 . S
Gd336 O380 2.545 1_556 S
Gd336 O381 2.606 1_556 S
Gd336 O383 2.429 1_556 S
Gd336 O384 2.545 1_556 S
Gd336 O385 2.412 1_556 S
Gd336 O387 2.362 . S
Gd336 O388 2.324 . S
Gd336 C395 2.828 1_556 S
Gd337 N346 2.661 . S
Gd337 N350 2.601 . S
Gd337 O381 2.362 . S
Gd337 O382 2.324 . S
Gd337 O386 2.545 1_554 S
Gd337 O387 2.606 1_554 S
Gd337 O389 2.429 1_554 S
Gd337 O390 2.545 1_554 S
Gd337 O391 2.412 1_554 S
Gd337 C404 2.828 1_554 S
C338 C341 1.417 . S
C338 C343 1.431 . S
C338 C344 1.412 . S
C339 C342 1.437 . S
C339 C343 1.317 . S
C339 H358 0.929 . S
C340 C341 1.426 . S
C340 C342 1.413 . S
C340 N350 1.359 . S
C341 C338 1.417 . S
C341 C340 1.426 . S
C341 N346 1.350 . S
C342 C339 1.437 . S
C342 C340 1.413 . S
C342 C352 1.391 . S
C343 C338 1.431 . S
C343 C339 1.317 . S
C343 H354 0.930 . S
C344 C338 1.412 . S
C344 C345 1.355 . S
C344 H356 0.930 . S
C345 C344 1.355 . S
C345 C347 1.402 . S
C345 H357 0.930 . S
N346 Gd337 2.661 . S
N346 C341 1.350 . S
N346 C347 1.307 . S
C347 C345 1.402 . S
C347 N346 1.307 . S
C347 H348 0.930 . S
H348 C347 0.930 . S
C349 N350 1.334 . S
C349 C351 1.394 . S
C349 H353 0.930 . S
N350 Gd337 2.601 . S
N350 C340 1.359 . S
N350 C349 1.334 . S
C351 C349 1.394 . S
C351 C352 1.359 . S
C351 H363 0.930 . S
C352 C342 1.391 . S
C352 C351 1.359 . S
C352 H364 0.929 . S
H353 C349 0.930 . S
H354 C343 0.930 . S
H355 C372 0.930 . S
H356 C344 0.930 . S
H357 C345 0.930 . S
H358 C339 0.929 . S
H359 C377 0.930 . S
H360 C368 0.930 . S
H361 C369 0.930 . S
H362 C393 0.929 . S
H363 C351 0.930 . S
H364 C352 0.929 . S
H365 C394 0.930 . S
H366 C375 0.930 . S
N367 Gd336 2.661 . S
N367 C371 1.350 . S
N367 C372 1.307 . S
C368 H360 0.930 . S
C368 C369 1.355 . S
C368 C370 1.412 . S
C369 H361 0.930 . S
C369 C368 1.355 . S
C369 C372 1.402 . S
C370 C368 1.412 . S
C370 C371 1.417 . S
C370 C394 1.431 . S
C371 N367 1.350 . S
C371 C370 1.417 . S
C371 C374 1.426 . S
C372 H355 0.930 . S
C372 N367 1.307 . S
C372 C369 1.402 . S
N373 Gd336 2.601 . S
N373 C374 1.359 . S
N373 C377 1.334 . S
C374 C371 1.426 . S
C374 N373 1.359 . S
C374 C378 1.413 . S
C375 H366 0.930 . S
C375 C376 1.359 1_545 S
C375 C377 1.394 1_545 S
C376 C375 1.359 1_565 S
C376 C378 1.391 . S
C376 H379 0.929 1_565 S
C377 H359 0.930 . S
C377 N373 1.334 . S
C377 C375 1.394 1_565 S
C378 C374 1.413 . S
C378 C376 1.391 . S
C378 C393 1.437 . S
H379 C376 0.929 1_545 S
O380 Gd336 2.545 1_554 S
O380 C395 1.258 . S
O381 Gd336 2.606 1_554 S
O381 Gd337 2.362 . S
O381 C392 1.284 . S
O382 Gd337 2.324 . S
O382 C402 1.254 1_554 S
O383 Gd336 2.429 1_554 S
O383 C402 1.268 1_554 S
O384 Gd336 2.545 1_554 S
O384 C392 1.250 . S
O385 Gd336 2.412 1_554 S
O385 C395 1.252 . S
O386 Gd337 2.545 1_556 S
O386 C404 1.258 . S
O387 Gd336 2.362 . S
O387 Gd337 2.606 1_556 S
O387 C403 1.284 . S
O388 Gd336 2.324 . S
O388 C411 1.254 1_556 S
O389 Gd337 2.429 1_556 S
O389 C411 1.268 1_556 S
O390 Gd337 2.545 1_556 S
O390 C403 1.250 . S
O391 Gd337 2.412 1_556 S
O391 C404 1.252 . S
C392 O381 1.284 . S
C392 O384 1.250 . S
C393 H362 0.929 . S
C393 C378 1.437 . S
C393 C394 1.317 . S
C394 H365 0.930 . S
C394 C370 1.431 . S
C394 C393 1.317 . S
C395 Gd336 2.828 1_554 S
C395 O380 1.258 . S
C395 O385 1.252 . S
C395 C396 1.497 . S
C396 C395 1.497 . S
C396 C397 1.395 . S
C396 C398 1.380 . S
C397 C396 1.395 . S
C397 C400 1.398 . S
C397 H412 0.930 . S
C398 C396 1.380 . S
C398 C399 1.391 . S
C398 H413 0.930 . S
C399 C398 1.391 . S
C399 C401 1.387 . S
C400 C397 1.398 . S
C400 C401 1.380 . S
C400 H414 0.930 . S
C401 C399 1.387 . S
C401 C400 1.380 . S
C401 H415 0.930 . S
C402 O382 1.254 1_556 S
C402 O383 1.268 1_556 S
C403 O387 1.284 . S
C403 O390 1.250 . S
C404 Gd337 2.828 1_556 S
C404 O386 1.258 . S
C404 O391 1.252 . S
C404 C405 1.497 . S
C405 C404 1.497 . S
C405 C406 1.395 . S
C405 C407 1.380 . S
C406 C405 1.395 . S
C406 C409 1.398 . S
C406 H416 0.930 . S
C407 C405 1.380 . S
C407 C408 1.391 . S
C407 H417 0.930 . S
C408 C407 1.391 . S
C408 C410 1.387 . S
C409 C406 1.398 . S
C409 C410 1.380 . S
C409 H418 0.930 . S
C410 C408 1.387 . S
C410 C409 1.380 . S
C410 H419 0.930 . S
C411 O388 1.254 1_554 S
C411 O389 1.268 1_554 S
H412 C397 0.930 . S
H413 C398 0.930 . S
H414 C400 0.930 . S
H415 C401 0.930 . S
H416 C406 0.930 . S
H417 C407 0.930 . S
H418 C409 0.930 . S
H419 C410 0.930 . S
Gd420 N451 2.661 . S
Gd420 N457 2.601 . S
Gd420 O464 2.545 1_556 S
Gd420 O465 2.606 1_556 S
Gd420 O467 2.429 1_556 S
Gd420 O468 2.545 1_556 S
Gd420 O469 2.412 1_556 S
Gd420 O471 2.362 . S
Gd420 O472 2.324 . S
Gd420 C479 2.828 1_556 S
Gd421 N430 2.661 . S
Gd421 N434 2.601 . S
Gd421 O465 2.362 . S
Gd421 O466 2.324 . S
Gd421 O470 2.545 1_554 S
Gd421 O471 2.606 1_554 S
Gd421 O473 2.429 1_554 S
Gd421 O474 2.545 1_554 S
Gd421 O475 2.412 1_554 S
Gd421 C488 2.828 1_554 S
C422 C425 1.417 . S
C422 C427 1.431 . S
C422 C428 1.412 . S
C423 C426 1.437 . S
C423 C427 1.317 . S
C423 H442 0.929 . S
C424 C425 1.426 . S
C424 C426 1.413 . S
C424 N434 1.359 . S
C425 C422 1.417 . S
C425 C424 1.426 . S
C425 N430 1.350 . S
C426 C423 1.437 . S
C426 C424 1.413 . S
C426 C436 1.391 . S
C427 C422 1.431 . S
C427 C423 1.317 . S
C427 H438 0.930 . S
C428 C422 1.412 . S
C428 C429 1.355 . S
C428 H440 0.930 . S
C429 C428 1.355 . S
C429 C431 1.402 . S
C429 H441 0.930 . S
N430 Gd421 2.661 . S
N430 C425 1.350 . S
N430 C431 1.307 . S
C431 C429 1.402 . S
C431 N430 1.307 . S
C431 H432 0.930 . S
H432 C431 0.930 . S
C433 N434 1.334 . S
C433 C435 1.394 . S
C433 H437 0.930 . S
N434 Gd421 2.601 . S
N434 C424 1.359 . S
N434 C433 1.334 . S
C435 C433 1.394 . S
C435 C436 1.359 . S
C435 H447 0.930 1_565 S
C436 C426 1.391 . S
C436 C435 1.359 . S
C436 H448 0.929 1_565 S
H437 C433 0.930 . S
H438 C427 0.930 . S
H439 C456 0.930 . S
H440 C428 0.930 . S
H441 C429 0.930 . S
H442 C423 0.929 . S
H443 C461 0.930 . S
H444 C452 0.930 . S
H445 C453 0.930 . S
H446 C477 0.929 . S
H447 C435 0.930 1_545 S
H448 C436 0.929 1_545 S
H449 C478 0.930 . S
H450 C459 0.930 . S
N451 Gd420 2.661 . S
N451 C455 1.350 . S
N451 C456 1.307 . S
C452 H444 0.930 . S
C452 C453 1.355 . S
C452 C454 1.412 . S
C453 H445 0.930 . S
C453 C452 1.355 . S
C453 C456 1.402 . S
C454 C452 1.412 . S
C454 C455 1.417 . S
C454 C478 1.431 . S
C455 N451 1.350 . S
C455 C454 1.417 . S
C455 C458 1.426 . S
C456 H439 0.930 . S
C456 N451 1.307 . S
C456 C453 1.402 . S
N457 Gd420 2.601 . S
N457 C458 1.359 . S
N457 C461 1.334 . S
C458 C455 1.426 . S
C458 N457 1.359 . S
C458 C462 1.413 . S
C459 H450 0.930 . S
C459 C460 1.359 . S
C459 C461 1.394 . S
C460 C459 1.359 . S
C460 C462 1.391 . S
C460 H463 0.929 . S
C461 H443 0.930 . S
C461 N457 1.334 . S
C461 C459 1.394 . S
C462 C458 1.413 . S
C462 C460 1.391 . S
C462 C477 1.437 . S
H463 C460 0.929 . S
O464 Gd420 2.545 1_554 S
O464 C479 1.258 . S
O465 Gd420 2.606 1_554 S
O465 Gd421 2.362 . S
O465 C476 1.284 . S
O466 Gd421 2.324 . S
O466 C486 1.254 1_554 S
O467 Gd420 2.429 1_554 S
O467 C486 1.268 1_554 S
O468 Gd420 2.545 1_554 S
O468 C476 1.250 . S
O469 Gd420 2.412 1_554 S
O469 C479 1.252 . S
O470 Gd421 2.545 1_556 S
O470 C488 1.258 . S
O471 Gd420 2.362 . S
O471 Gd421 2.606 1_556 S
O471 C487 1.284 . S
O472 Gd420 2.324 . S
O472 C495 1.254 1_556 S
O473 Gd421 2.429 1_556 S
O473 C495 1.268 1_556 S
O474 Gd421 2.545 1_556 S
O474 C487 1.250 . S
O475 Gd421 2.412 1_556 S
O475 C488 1.252 . S
C476 O465 1.284 . S
C476 O468 1.250 . S
C477 H446 0.929 . S
C477 C462 1.437 . S
C477 C478 1.317 . S
C478 H449 0.930 . S
C478 C454 1.431 . S
C478 C477 1.317 . S
C479 Gd420 2.828 1_554 S
C479 O464 1.258 . S
C479 O469 1.252 . S
C479 C480 1.497 . S
C480 C479 1.497 . S
C480 C481 1.395 . S
C480 C482 1.380 . S
C481 C480 1.395 . S
C481 C484 1.398 . S
C481 H496 0.930 . S
C482 C480 1.380 . S
C482 C483 1.391 . S
C482 H497 0.930 . S
C483 C482 1.391 . S
C483 C485 1.387 . S
C484 C481 1.398 . S
C484 C485 1.380 . S
C484 H498 0.930 . S
C485 C483 1.387 . S
C485 C484 1.380 . S
C485 H499 0.930 . S
C486 O466 1.254 1_556 S
C486 O467 1.268 1_556 S
C487 O471 1.284 . S
C487 O474 1.250 . S
C488 Gd421 2.828 1_556 S
C488 O470 1.258 . S
C488 O475 1.252 . S
C488 C489 1.497 . S
C489 C488 1.497 . S
C489 C490 1.395 . S
C489 C491 1.380 . S
C490 C489 1.395 . S
C490 C493 1.398 . S
C490 H500 0.930 . S
C491 C489 1.380 . S
C491 C492 1.391 . S
C491 H501 0.930 . S
C492 C491 1.391 . S
C492 C494 1.387 . S
C493 C490 1.398 . S
C493 C494 1.380 . S
C493 H502 0.930 . S
C494 C492 1.387 . S
C494 C493 1.380 . S
C494 H503 0.930 . S
C495 O472 1.254 1_554 S
C495 O473 1.268 1_554 S
H496 C481 0.930 . S
H497 C482 0.930 . S
H498 C484 0.930 . S
H499 C485 0.930 . S
H500 C490 0.930 . S
H501 C491 0.930 . S
H502 C493 0.930 . S
H503 C494 0.930 . S
Gd504 N535 2.661 . S
Gd504 N541 2.601 . S
Gd504 O548 2.545 1_556 S
Gd504 O549 2.606 1_556 S
Gd504 O551 2.429 1_556 S
Gd504 O552 2.545 1_556 S
Gd504 O553 2.412 1_556 S
Gd504 O555 2.362 . S
Gd504 O556 2.324 . S
Gd504 C563 2.828 1_556 S
Gd505 N514 2.661 . S
Gd505 N518 2.601 . S
Gd505 O549 2.362 . S
Gd505 O550 2.324 . S
Gd505 O554 2.545 1_554 S
Gd505 O555 2.606 1_554 S
Gd505 O557 2.429 1_554 S
Gd505 O558 2.545 1_554 S
Gd505 O559 2.412 1_554 S
Gd505 C572 2.828 1_554 S
C506 C509 1.417 . S
C506 C511 1.431 . S
C506 C512 1.412 . S
C507 C510 1.437 . S
C507 C511 1.317 . S
C507 H526 0.929 . S
C508 C509 1.426 . S
C508 C510 1.413 . S
C508 N518 1.359 . S
C509 C506 1.417 . S
C509 C508 1.426 . S
C509 N514 1.350 . S
C510 C507 1.437 . S
C510 C508 1.413 . S
C510 C520 1.391 . S
C511 C506 1.431 . S
C511 C507 1.317 . S
C511 H522 0.930 . S
C512 C506 1.412 . S
C512 C513 1.355 . S
C512 H524 0.930 . S
C513 C512 1.355 . S
C513 C515 1.402 . S
C513 H525 0.930 . S
N514 Gd505 2.661 . S
N514 C509 1.350 . S
N514 C515 1.307 . S
C515 C513 1.402 . S
C515 N514 1.307 . S
C515 H516 0.930 . S
H516 C515 0.930 . S
C517 N518 1.334 . S
C517 C519 1.394 . S
C517 H521 0.930 . S
N518 Gd505 2.601 . S
N518 C508 1.359 . S
N518 C517 1.334 . S
C519 C517 1.394 . S
C519 C520 1.359 . S
C519 H531 0.930 . S
C520 C510 1.391 . S
C520 C519 1.359 . S
C520 H532 0.929 . S
H521 C517 0.930 . S
H522 C511 0.930 . S
H523 C540 0.930 . S
H524 C512 0.930 . S
H525 C513 0.930 . S
H526 C507 0.929 . S
H527 C545 0.930 . S
H528 C536 0.930 . S
H529 C537 0.930 . S
H530 C561 0.929 . S
H531 C519 0.930 . S
H532 C520 0.929 . S
H533 C562 0.930 . S
H534 C543 0.930 1_565 S
N535 Gd504 2.661 . S
N535 C539 1.350 . S
N535 C540 1.307 . S
C536 H528 0.930 . S
C536 C537 1.355 . S
C536 C538 1.412 . S
C537 H529 0.930 . S
C537 C536 1.355 . S
C537 C540 1.402 . S
C538 C536 1.412 . S
C538 C539 1.417 . S
C538 C562 1.431 . S
C539 N535 1.350 . S
C539 C538 1.417 . S
C539 C542 1.426 . S
C540 H523 0.930 . S
C540 N535 1.307 . S
C540 C537 1.402 . S
N541 Gd504 2.601 . S
N541 C542 1.359 . S
N541 C545 1.334 . S
C542 C539 1.426 . S
C542 N541 1.359 . S
C542 C546 1.413 . S
C543 H534 0.930 1_545 S
C543 C544 1.359 . S
C543 C545 1.394 . S
C544 C543 1.359 . S
C544 C546 1.391 . S
C544 H547 0.929 1_545 S
C545 H527 0.930 . S
C545 N541 1.334 . S
C545 C543 1.394 . S
C546 C542 1.413 . S
C546 C544 1.391 . S
C546 C561 1.437 . S
H547 C544 0.929 1_565 S
O548 Gd504 2.545 1_554 S
O548 C563 1.258 . S
O549 Gd504 2.606 1_554 S
O549 Gd505 2.362 . S
O549 C560 1.284 . S
O550 Gd505 2.324 . S
O550 C570 1.254 1_554 S
O551 Gd504 2.429 1_554 S
O551 C570 1.268 1_554 S
O552 Gd504 2.545 1_554 S
O552 C560 1.250 . S
O553 Gd504 2.412 1_554 S
O553 C563 1.252 . S
O554 Gd505 2.545 1_556 S
O554 C572 1.258 . S
O555 Gd504 2.362 . S
O555 Gd505 2.606 1_556 S
O555 C571 1.284 . S
O556 Gd504 2.324 . S
O556 C579 1.254 1_556 S
O557 Gd505 2.429 1_556 S
O557 C579 1.268 1_556 S
O558 Gd505 2.545 1_556 S
O558 C571 1.250 . S
O559 Gd505 2.412 1_556 S
O559 C572 1.252 . S
C560 O549 1.284 . S
C560 O552 1.250 . S
C561 H530 0.929 . S
C561 C546 1.437 . S
C561 C562 1.317 . S
C562 H533 0.930 . S
C562 C538 1.431 . S
C562 C561 1.317 . S
C563 Gd504 2.828 1_554 S
C563 O548 1.258 . S
C563 O553 1.252 . S
C563 C564 1.497 . S
C564 C563 1.497 . S
C564 C565 1.395 . S
C564 C566 1.380 . S
C565 C564 1.395 . S
C565 C568 1.398 . S
C565 H580 0.930 . S
C566 C564 1.380 . S
C566 C567 1.391 . S
C566 H581 0.930 . S
C567 C566 1.391 . S
C567 C569 1.387 . S
C568 C565 1.398 . S
C568 C569 1.380 . S
C568 H582 0.930 . S
C569 C567 1.387 . S
C569 C568 1.380 . S
C569 H583 0.930 . S
C570 O550 1.254 1_556 S
C570 O551 1.268 1_556 S
C571 O555 1.284 . S
C571 O558 1.250 . S
C572 Gd505 2.828 1_556 S
C572 O554 1.258 . S
C572 O559 1.252 . S
C572 C573 1.497 . S
C573 C572 1.497 . S
C573 C574 1.395 . S
C573 C575 1.380 . S
C574 C573 1.395 . S
C574 C577 1.398 . S
C574 H584 0.930 . S
C575 C573 1.380 . S
C575 C576 1.391 . S
C575 H585 0.930 . S
C576 C575 1.391 . S
C576 C578 1.387 . S
C577 C574 1.398 . S
C577 C578 1.380 . S
C577 H586 0.930 . S
C578 C576 1.387 . S
C578 C577 1.380 . S
C578 H587 0.930 . S
C579 O556 1.254 1_554 S
C579 O557 1.268 1_554 S
H580 C565 0.930 . S
H581 C566 0.930 . S
H582 C568 0.930 . S
H583 C569 0.930 . S
H584 C574 0.930 . S
H585 C575 0.930 . S
H586 C577 0.930 . S
H587 C578 0.930 . S
Gd588 N619 2.661 . S
Gd588 N625 2.601 . S
Gd588 O632 2.545 1_556 S
Gd588 O633 2.606 1_556 S
Gd588 O635 2.429 1_556 S
Gd588 O636 2.545 1_556 S
Gd588 O637 2.412 1_556 S
Gd588 O639 2.362 . S
Gd588 O640 2.324 . S
Gd588 C647 2.828 1_556 S
Gd589 N598 2.661 . S
Gd589 N602 2.601 . S
Gd589 O633 2.362 . S
Gd589 O634 2.324 . S
Gd589 O638 2.545 1_554 S
Gd589 O639 2.606 1_554 S
Gd589 O641 2.429 1_554 S
Gd589 O642 2.545 1_554 S
Gd589 O643 2.412 1_554 S
Gd589 C656 2.828 1_554 S
C590 C593 1.417 . S
C590 C595 1.431 . S
C590 C596 1.412 . S
C591 C594 1.437 . S
C591 C595 1.317 . S
C591 H610 0.929 . S
C592 C593 1.426 . S
C592 C594 1.413 . S
C592 N602 1.359 . S
C593 C590 1.417 . S
C593 C592 1.426 . S
C593 N598 1.350 . S
C594 C591 1.437 . S
C594 C592 1.413 . S
C594 C604 1.391 . S
C595 C590 1.431 . S
C595 C591 1.317 . S
C595 H606 0.930 . S
C596 C590 1.412 . S
C596 C597 1.355 . S
C596 H608 0.930 . S
C597 C596 1.355 . S
C597 C599 1.402 . S
C597 H609 0.930 . S
N598 Gd589 2.661 . S
N598 C593 1.350 . S
N598 C599 1.307 . S
C599 C597 1.402 . S
C599 N598 1.307 . S
C599 H600 0.930 . S
H600 C599 0.930 . S
C601 N602 1.334 . S
C601 C603 1.394 1_545 S
C601 H605 0.930 . S
N602 Gd589 2.601 . S
N602 C592 1.359 . S
N602 C601 1.334 . S
C603 C601 1.394 1_565 S
C603 C604 1.359 1_565 S
C603 H615 0.930 . S
C604 C594 1.391 . S
C604 C603 1.359 1_545 S
C604 H616 0.929 1_545 S
H605 C601 0.930 . S
H606 C595 0.930 . S
H607 C624 0.930 . S
H608 C596 0.930 . S
H609 C597 0.930 . S
H610 C591 0.929 . S
H611 C629 0.930 . S
H612 C620 0.930 . S
H613 C621 0.930 . S
H614 C645 0.929 . S
H615 C603 0.930 . S
H616 C604 0.929 1_565 S
H617 C646 0.930 . S
H618 C627 0.930 . S
N619 Gd588 2.661 . S
N619 C623 1.350 . S
N619 C624 1.307 . S
C620 H612 0.930 . S
C620 C621 1.355 . S
C620 C622 1.412 . S
C621 H613 0.930 . S
C621 C620 1.355 . S
C621 C624 1.402 . S
C622 C620 1.412 . S
C622 C623 1.417 . S
C622 C646 1.431 . S
C623 N619 1.350 . S
C623 C622 1.417 . S
C623 C626 1.426 . S
C624 H607 0.930 . S
C624 N619 1.307 . S
C624 C621 1.402 . S
N625 Gd588 2.601 . S
N625 C626 1.359 . S
N625 C629 1.334 . S
C626 C623 1.426 . S
C626 N625 1.359 . S
C626 C630 1.413 . S
C627 H618 0.930 . S
C627 C628 1.359 . S
C627 C629 1.394 . S
C628 C627 1.359 . S
C628 C630 1.391 . S
C628 H631 0.929 . S
C629 H611 0.930 . S
C629 N625 1.334 . S
C629 C627 1.394 . S
C630 C626 1.413 . S
C630 C628 1.391 . S
C630 C645 1.437 . S
H631 C628 0.929 . S
O632 Gd588 2.545 1_554 S
O632 C647 1.258 . S
O633 Gd588 2.606 1_554 S
O633 Gd589 2.362 . S
O633 C644 1.284 . S
O634 Gd589 2.324 . S
O634 C654 1.254 1_554 S
O635 Gd588 2.429 1_554 S
O635 C654 1.268 1_554 S
O636 Gd588 2.545 1_554 S
O636 C644 1.250 . S
O637 Gd588 2.412 1_554 S
O637 C647 1.252 . S
O638 Gd589 2.545 1_556 S
O638 C656 1.258 . S
O639 Gd588 2.362 . S
O639 Gd589 2.606 1_556 S
O639 C655 1.284 . S
O640 Gd588 2.324 . S
O640 C663 1.254 1_556 S
O641 Gd589 2.429 1_556 S
O641 C663 1.268 1_556 S
O642 Gd589 2.545 1_556 S
O642 C655 1.250 . S
O643 Gd589 2.412 1_556 S
O643 C656 1.252 . S
C644 O633 1.284 . S
C644 O636 1.250 . S
C645 H614 0.929 . S
C645 C630 1.437 . S
C645 C646 1.317 . S
C646 H617 0.930 . S
C646 C622 1.431 . S
C646 C645 1.317 . S
C647 Gd588 2.828 1_554 S
C647 O632 1.258 . S
C647 O637 1.252 . S
C647 C648 1.497 . S
C648 C647 1.497 . S
C648 C649 1.395 . S
C648 C650 1.380 . S
C649 C648 1.395 . S
C649 C652 1.398 . S
C649 H664 0.930 . S
C650 C648 1.380 . S
C650 C651 1.391 . S
C650 H665 0.930 . S
C651 C650 1.391 . S
C651 C653 1.387 . S
C652 C649 1.398 . S
C652 C653 1.380 . S
C652 H666 0.930 . S
C653 C651 1.387 . S
C653 C652 1.380 . S
C653 H667 0.930 . S
C654 O634 1.254 1_556 S
C654 O635 1.268 1_556 S
C655 O639 1.284 . S
C655 O642 1.250 . S
C656 Gd589 2.828 1_556 S
C656 O638 1.258 . S
C656 O643 1.252 . S
C656 C657 1.497 . S
C657 C656 1.497 . S
C657 C658 1.395 . S
C657 C659 1.380 . S
C658 C657 1.395 . S
C658 C661 1.398 . S
C658 H668 0.930 . S
C659 C657 1.380 . S
C659 C660 1.391 . S
C659 H669 0.930 . S
C660 C659 1.391 . S
C660 C662 1.387 . S
C661 C658 1.398 . S
C661 C662 1.380 . S
C661 H670 0.930 . S
C662 C660 1.387 . S
C662 C661 1.380 . S
C662 H671 0.930 . S
C663 O640 1.254 1_554 S
C663 O641 1.268 1_554 S
H664 C649 0.930 . S
H665 C650 0.930 . S
H666 C652 0.930 . S
H667 C653 0.930 . S
H668 C658 0.930 . S
H669 C659 0.930 . S
H670 C661 0.930 . S
H671 C662 0.930 . S
C672 C673 1.369 . S
C672 C674 1.419 . S
C672 H676 0.930 . S
C673 C672 1.369 . S
C673 C682 1.429 . S
C674 C672 1.419 . S
C674 C675 1.363 . S
C674 H677 0.929 . S
C675 C674 1.363 . S
C675 C681 1.428 . S
H676 C672 0.930 . S
H677 C674 0.929 . S
S678 N679 1.613 . S
S678 N680 1.610 . S
N679 S678 1.613 . S
N679 C682 1.350 . S
N680 S678 1.610 . S
N680 C681 1.351 . S
C681 C675 1.428 . S
C681 N680 1.351 . S
C681 C682 1.434 . S
C682 C673 1.429 . S
C682 N679 1.350 . S
C682 C681 1.434 . S
C683 C684 1.369 . S
C683 C685 1.419 . S
C683 H687 0.930 . S
C684 C683 1.369 . S
C684 C693 1.429 . S
C685 C683 1.419 . S
C685 C686 1.363 . S
C685 H688 0.929 . S
C686 C685 1.363 . S
C686 C692 1.428 . S
H687 C683 0.930 . S
H688 C685 0.929 . S
S689 N690 1.613 . S
S689 N691 1.610 . S
N690 S689 1.613 . S
N690 C693 1.350 . S
N691 S689 1.610 . S
N691 C692 1.351 . S
C692 C686 1.428 . S
C692 N691 1.351 . S
C692 C693 1.434 . S
C693 C684 1.429 . S
C693 N690 1.350 . S
C693 C692 1.434 . S
C694 C695 1.369 . S
C694 C696 1.419 . S
C694 H698 0.930 . S
C695 C694 1.369 . S
C695 C704 1.429 . S
C696 C694 1.419 . S
C696 C697 1.363 . S
C696 H699 0.929 . S
C697 C696 1.363 . S
C697 C703 1.428 . S
H698 C694 0.930 . S
H699 C696 0.929 . S
S700 N701 1.613 . S
S700 N702 1.610 . S
N701 S700 1.613 . S
N701 C704 1.350 . S
N702 S700 1.610 . S
N702 C703 1.351 . S
C703 C697 1.428 . S
C703 N702 1.351 . S
C703 C704 1.434 . S
C704 C695 1.429 . S
C704 N701 1.350 . S
C704 C703 1.434 . S
C705 C706 1.369 . S
C705 C707 1.419 . S
C705 H709 0.930 . S
C706 C705 1.369 . S
C706 C715 1.429 . S
C707 C705 1.419 . S
C707 C708 1.363 . S
C707 H710 0.929 . S
C708 C707 1.363 . S
C708 C714 1.428 . S
H709 C705 0.930 . S
H710 C707 0.929 . S
S711 N712 1.613 . S
S711 N713 1.610 . S
N712 S711 1.613 . S
N712 C715 1.350 . S
N713 S711 1.610 . S
N713 C714 1.351 . S
C714 C708 1.428 . S
C714 N713 1.351 . S
C714 C715 1.434 . S
C715 C706 1.429 . S
C715 N712 1.350 . S
C715 C714 1.434 . S
C716 C717 1.369 . S
C716 C718 1.419 1_565 S
C716 H720 0.930 . S
C717 C716 1.369 . S
C717 C726 1.431 . S
C718 C716 1.419 1_545 S
C718 C719 1.363 . S
C718 H721 0.929 . S
C719 C718 1.363 . S
C719 C725 1.428 . S
H720 C716 0.930 . S
H721 C718 0.929 . S
S722 N723 1.613 . S
S722 N724 1.610 . S
N723 S722 1.613 . S
N723 C726 1.350 1_545 S
N724 S722 1.610 . S
N724 C725 1.351 . S
C725 C719 1.428 . S
C725 N724 1.351 . S
C725 C726 1.431 1_545 S
C726 C717 1.431 . S
C726 N723 1.350 1_565 S
C726 C725 1.431 1_565 S
C727 C728 1.369 . S
C727 C729 1.419 . S
C727 H731 0.930 . S
C728 C727 1.369 . S
C728 C737 1.429 . S
C729 C727 1.419 . S
C729 C730 1.363 . S
C729 H732 0.929 . S
C730 C729 1.363 . S
C730 C736 1.428 . S
H731 C727 0.930 . S
H732 C729 0.929 . S
S733 N734 1.613 . S
S733 N735 1.610 . S
N734 S733 1.613 . S
N734 C737 1.350 . S
N735 S733 1.610 . S
N735 C736 1.351 . S
C736 C730 1.428 . S
C736 N735 1.351 . S
C736 C737 1.434 . S
C737 C728 1.429 . S
C737 N734 1.350 . S
C737 C736 1.434 . S
C738 C739 1.369 . S
C738 C740 1.419 . S
C738 H742 0.930 . S
C739 C738 1.369 . S
C739 C748 1.429 . S
C740 C738 1.419 . S
C740 C741 1.363 1_565 S
C740 H743 0.929 . S
C741 C740 1.363 1_545 S
C741 C747 1.428 . S
H742 C738 0.930 . S
H743 C740 0.929 . S
S744 N745 1.613 . S
S744 N746 1.610 . S
N745 S744 1.613 . S
N745 C748 1.350 1_545 S
N746 S744 1.610 . S
N746 C747 1.351 . S
C747 C741 1.428 . S
C747 N746 1.351 . S
C747 C748 1.434 1_545 S
C748 C739 1.429 . S
C748 N745 1.350 1_565 S
C748 C747 1.434 1_565 S
C749 C750 1.369 . S
C749 C751 1.419 . S
C749 H753 0.930 . S
C750 C749 1.369 . S
C750 C759 1.429 . S
C751 C749 1.419 . S
C751 C752 1.363 . S
C751 H754 0.929 . S
C752 C751 1.363 . S
C752 C758 1.428 . S
H753 C749 0.930 . S
H754 C751 0.929 . S
S755 N756 1.613 . S
S755 N757 1.610 . S
N756 S755 1.613 . S
N756 C759 1.350 . S
N757 S755 1.610 . S
N757 C758 1.351 . S
C758 C752 1.428 . S
C758 N757 1.351 . S
C758 C759 1.434 . S
C759 C750 1.429 . S
C759 N756 1.350 . S
C759 C758 1.434 . S
C760 C761 1.369 . S
C760 C762 1.419 . S
C760 H764 0.930 . S
C761 C760 1.369 . S
C761 C770 1.429 . S
C762 C760 1.419 . S
C762 C763 1.363 . S
C762 H765 0.929 . S
C763 C762 1.363 . S
C763 C769 1.428 . S
H764 C760 0.930 . S
H765 C762 0.929 . S
S766 N767 1.613 1_556 S
S766 N768 1.610 1_556 S
N767 S766 1.613 1_554 S
N767 C770 1.350 . S
N768 S766 1.610 1_554 S
N768 C769 1.351 . S
C769 C763 1.428 . S
C769 N768 1.351 . S
C769 C770 1.434 . S
C770 C761 1.429 . S
C770 N767 1.350 . S
C770 C769 1.434 . S
C771 C772 1.369 . S
C771 C773 1.419 1_565 S
C771 H775 0.930 1_554 S
C772 C771 1.369 . S
C772 C781 1.429 . S
C773 C771 1.419 1_545 S
C773 C774 1.363 . S
C773 H776 0.929 1_554 S
C774 C773 1.363 . S
C774 C780 1.428 . S
H775 C771 0.930 1_556 S
H776 C773 0.929 1_556 S
S777 N778 1.613 1_545 S
S777 N779 1.610 . S
N778 S777 1.613 1_565 S
N778 C781 1.350 . S
N779 S777 1.610 . S
N779 C780 1.351 . S
C780 C774 1.428 . S
C780 N779 1.351 . S
C780 C781 1.434 1_545 S
C781 C772 1.429 . S
C781 N778 1.350 . S
C781 C780 1.434 1_565 S
C782 C783 1.369 . S
C782 C784 1.419 . S
C782 H786 0.930 . S
C783 C782 1.369 . S
C783 C792 1.429 1_556 S
C784 C782 1.419 . S
C784 C785 1.363 . S
C784 H787 0.929 . S
C785 C784 1.363 . S
C785 C791 1.428 1_556 S
H786 C782 0.930 . S
H787 C784 0.929 . S
S788 N789 1.613 . S
S788 N790 1.610 . S
N789 S788 1.613 . S
N789 C792 1.350 . S
N790 S788 1.610 . S
N790 C791 1.351 . S
C791 C785 1.428 1_554 S
C791 N790 1.351 . S
C791 C792 1.434 . S
C792 C783 1.429 1_554 S
C792 N789 1.350 . S
C792 C791 1.434 . S
C793 C794 1.369 . S
C793 C795 1.419 1_545 S
C793 H797 0.930 . S
C794 C793 1.369 . S
C794 C803 1.429 . S
C795 C793 1.419 1_565 S
C795 C796 1.363 . S
C795 H798 0.929 . S
C796 C795 1.363 . S
C796 C802 1.428 . S
H797 C793 0.930 . S
H798 C795 0.929 . S
S799 N800 1.613 1_565 S
S799 N801 1.610 . S
N800 S799 1.613 1_545 S
N800 C803 1.350 . S
N801 S799 1.610 . S
N801 C802 1.351 . S
C802 C796 1.428 . S
C802 N801 1.351 . S
C802 C803 1.434 1_565 S
C803 C794 1.429 . S
C803 N800 1.350 . S
C803 C802 1.434 1_545 S
C804 C805 1.369 1_556 S
C804 C806 1.419 . S
C804 H808 0.930 1_556 S
C805 C804 1.369 1_554 S
C805 C814 1.429 . S
C806 C804 1.419 . S
C806 C807 1.363 . S
C806 H809 0.929 . S
C807 C806 1.363 . S
C807 C813 1.428 . S
H808 C804 0.930 1_554 S
H809 C806 0.929 . S
S810 N811 1.613 1_556 S
S810 N812 1.610 . S
N811 S810 1.613 1_554 S
N811 C814 1.350 . S
N812 S810 1.610 . S
N812 C813 1.351 . S
C813 C807 1.428 . S
C813 N812 1.351 . S
C813 C814 1.434 1_556 S
C814 C805 1.429 . S
C814 N811 1.350 . S
C814 C813 1.434 1_554 S
C815 C816 1.369 . S
C815 C817 1.419 1_554 S
C815 H819 0.930 . S
C816 C815 1.369 . S
C816 C825 1.429 1_554 S
C817 C815 1.419 1_556 S
C817 C818 1.363 . S
C817 H820 0.929 . S
C818 C817 1.363 . S
C818 C824 1.428 . S
H819 C815 0.930 . S
H820 C817 0.929 . S
S821 N822 1.613 1_556 S
S821 N823 1.610 . S
N822 S821 1.613 1_554 S
N822 C825 1.350 1_554 S
N823 S821 1.610 . S
N823 C824 1.351 . S
C824 C818 1.428 . S
C824 N823 1.351 . S
C824 C825 1.434 . S
C825 C816 1.429 1_556 S
C825 N822 1.350 1_556 S
C825 C824 1.434 . S
C826 C827 1.369 . S
C826 C828 1.419 . S
C826 H830 0.930 . S
C827 C826 1.369 . S
C827 C836 1.429 . S
C828 C826 1.419 . S
C828 C829 1.363 1_554 S
C828 H831 0.929 1_554 S
C829 C828 1.363 1_556 S
C829 C835 1.428 . S
H830 C826 0.930 . S
H831 C828 0.929 1_556 S
S832 N833 1.613 . S
S832 N834 1.610 1_554 S
N833 S832 1.613 . S
N833 C836 1.350 . S
N834 S832 1.610 1_556 S
N834 C835 1.351 . S
C835 C829 1.428 . S
C835 N834 1.351 . S
C835 C836 1.434 1_556 S
C836 C827 1.429 . S
C836 N833 1.350 . S
C836 C835 1.434 1_554 S
C837 C838 1.369 . S
C837 C839 1.419 1_556 S
C837 H841 0.930 . S
C838 C837 1.369 . S
C838 C847 1.429 1_556 S
C839 C837 1.419 1_554 S
C839 C840 1.363 . S
C839 H842 0.929 . S
C840 C839 1.363 . S
C840 C846 1.428 . S
H841 C837 0.930 . S
H842 C839 0.929 . S
S843 N844 1.613 . S
S843 N845 1.610 . S
N844 S843 1.613 . S
N844 C847 1.350 . S
N845 S843 1.610 . S
N845 C846 1.351 . S
C846 C840 1.428 . S
C846 N845 1.351 . S
C846 C847 1.434 . S
C847 C838 1.429 1_554 S
C847 N844 1.350 . S
C847 C846 1.434 . S
C848 C849 1.369 . S
C848 C850 1.419 . S
C848 H852 0.930 . S
C849 C848 1.369 . S
C849 C858 1.429 . S
C850 C848 1.419 . S
C850 C851 1.363 . S
C850 H853 0.929 . S
C851 C850 1.363 . S
C851 C857 1.428 . S
H852 C848 0.930 . S
H853 C850 0.929 . S
S854 N855 1.613 . S
S854 N856 1.610 . S
N855 S854 1.613 . S
N855 C858 1.350 . S
N856 S854 1.610 . S
N856 C857 1.351 . S
C857 C851 1.428 . S
C857 N856 1.351 . S
C857 C858 1.434 . S
C858 C849 1.429 . S
C858 N855 1.350 . S
C858 C857 1.434 . S
C859 C860 1.369 . S
C859 C861 1.419 . S
C859 H863 0.930 . S
C860 C859 1.369 . S
C860 C869 1.429 . S
C861 C859 1.419 . S
C861 C862 1.363 . S
C861 H864 0.929 . S
C862 C861 1.363 . S
C862 C868 1.428 . S
H863 C859 0.930 . S
H864 C861 0.929 . S
S865 N866 1.613 . S
S865 N867 1.610 . S
N866 S865 1.613 . S
N866 C869 1.350 . S
N867 S865 1.610 . S
N867 C868 1.351 . S
C868 C862 1.428 . S
C868 N867 1.351 . S
C868 C869 1.434 . S
C869 C860 1.429 . S
C869 N866 1.350 . S
C869 C868 1.434 . S
C870 C871 1.369 . S
C870 C872 1.419 . S
C870 H874 0.930 . S
C871 C870 1.369 . S
C871 C880 1.429 . S
C872 C870 1.419 . S
C872 C873 1.363 . S
C872 H875 0.929 . S
C873 C872 1.363 . S
C873 C879 1.428 . S
H874 C870 0.930 . S
H875 C872 0.929 . S
S876 N877 1.613 . S
S876 N878 1.610 . S
N877 S876 1.613 . S
N877 C880 1.350 . S
N878 S876 1.610 . S
N878 C879 1.351 . S
C879 C873 1.428 . S
C879 N878 1.351 . S
C879 C880 1.434 . S
C880 C871 1.429 . S
C880 N877 1.350 . S
C880 C879 1.434 . S
C881 C882 1.369 . S
C881 C883 1.419 . S
C881 H885 0.930 . S
C882 C881 1.369 . S
C882 C891 1.429 . S
C883 C881 1.419 . S
C883 C884 1.363 . S
C883 H886 0.929 . S
C884 C883 1.363 . S
C884 C890 1.428 . S
H885 C881 0.930 . S
H886 C883 0.929 . S
S887 N888 1.613 . S
S887 N889 1.610 . S
N888 S887 1.613 . S
N888 C891 1.350 . S
N889 S887 1.610 . S
N889 C890 1.351 . S
C890 C884 1.428 . S
C890 N889 1.351 . S
C890 C891 1.434 . S
C891 C882 1.429 . S
C891 N888 1.350 . S
C891 C890 1.434 . S
C892 C893 1.369 . S
C892 C894 1.419 1_455 S
C892 H896 0.930 . S
C893 C892 1.369 . S
C893 C902 1.429 . S
C894 C892 1.419 1_655 S
C894 C895 1.363 . S
C894 H897 0.929 . S
C895 C894 1.363 . S
C895 C901 1.428 . S
H896 C892 0.930 . S
H897 C894 0.929 . S
S898 N899 1.613 . S
S898 N900 1.610 1_455 S
N899 S898 1.613 . S
N899 C902 1.350 . S
N900 S898 1.610 1_655 S
N900 C901 1.351 . S
C901 C895 1.428 . S
C901 N900 1.351 . S
C901 C902 1.434 1_655 S
C902 C893 1.429 . S
C902 N899 1.350 . S
C902 C901 1.434 1_455 S
C903 C904 1.369 . S
C903 C905 1.419 1_655 S
C903 H907 0.930 . S
C904 C903 1.369 . S
C904 C913 1.429 . S
C905 C903 1.419 1_455 S
C905 C906 1.363 . S
C905 H908 0.929 . S
C906 C905 1.363 . S
C906 C912 1.428 . S
H907 C903 0.930 . S
H908 C905 0.929 . S
S909 N910 1.571 1_455 S
S909 N911 1.610 . S
N910 S909 1.571 1_655 S
N910 C913 1.328 . S
N911 S909 1.610 . S
N911 C912 1.351 . S
C912 C906 1.428 . S
C912 N911 1.351 . S
C912 C913 1.434 1_455 S
C913 C904 1.429 . S
C913 N910 1.328 . S
C913 C912 1.434 1_655 S
C914 C915 1.369 . S
C914 C916 1.419 . S
C914 H918 0.930 . S
C915 C914 1.369 . S
C915 C924 1.429 . S
C916 C914 1.419 . S
C916 C917 1.363 . S
C916 H919 0.929 . S
C917 C916 1.363 . S
C917 C923 1.428 . S
H918 C914 0.930 . S
H919 C916 0.929 . S
S920 N921 1.613 . S
S920 N922 1.610 . S
N921 S920 1.613 . S
N921 C924 1.350 . S
N922 S920 1.610 . S
N922 C923 1.351 . S
C923 C917 1.428 . S
C923 N922 1.351 . S
C923 C924 1.434 . S
C924 C915 1.429 . S
C924 N921 1.350 . S
C924 C923 1.434 . S
C925 C926 1.369 . S
C925 C927 1.419 . S
C925 H929 0.930 . S
C926 C925 1.369 . S
C926 C935 1.429 . S
C927 C925 1.419 . S
C927 C928 1.363 . S
C927 H930 0.929 . S
C928 C927 1.363 . S
C928 C934 1.428 . S
H929 C925 0.930 . S
H930 C927 0.929 . S
S931 N932 1.613 . S
S931 N933 1.610 . S
N932 S931 1.613 . S
N932 C935 1.350 . S
N933 S931 1.610 . S
N933 C934 1.351 . S
C934 C928 1.428 . S
C934 N933 1.351 . S
C934 C935 1.434 . S
C935 C926 1.429 . S
C935 N932 1.350 . S
C935 C934 1.434 . S
C673 C63 1.426 . S
C675 C660 1.437 . S
C684 C576 1.425 . S
C686 C147 1.438 . S
C695 C483 1.440 . S
C697 C240 1.427 . S
C706 C399 1.435 . S
C708 C324 1.431 . S
C717 C243 1.503 . S
C719 C75 1.612 . S
C728 C159 1.610 . S
C730 C327 1.492 . S
C739 C318 1.609 . S
C741 C150 1.495 . S
C750 C234 1.612 . S
C752 C66 1.496 . S
C761 C411 1.468 . S
C763 C579 1.468 . S
C772 C495 1.471 . S
C774 C663 1.472 . S
C783 C654 1.466 . S
C785 C486 1.467 . S
C794 C570 1.467 . S
C796 C402 1.469 . S
C805 C67 1.924 . S
C807 C56 1.929 . S
C816 C151 1.923 . S
C818 C140 1.929 . S
C827 C235 1.930 . S
C829 C224 1.924 . S
C838 C308 1.930 . S
C840 C319 1.924 . S
C849 C392 1.930 . S
C851 C403 1.924 . S
C860 C487 1.928 . S
C862 C476 1.925 . S
C871 C560 1.926 . S
C873 C571 1.927 . S
C882 C644 1.929 . S
C884 C655 1.924 . S
C893 C72 1.700 . S
C895 C156 1.697 . S
C904 C315 1.695 . S
C906 C231 1.706 . S
C915 C408 1.704 . S
C917 C492 1.698 . S
C926 C651 1.696 . S
C928 C567 1.706 . S
