# Generated by pormake.
# Topology ums, (4)-cn, num edge types: 1
# Building blocks:
#     Node 0, Type 0, BuildingBlock: NAHDIM_clean_sbu_0, # of connection points: 4
#     Node 1, Type 0, BuildingBlock: NAHDIM_clean_sbu_0, # of connection points: 4
#     Node 2, Type 0, BuildingBlock: NAHDIM_clean_sbu_0, # of connection points: 4
#     Node 3, Type 0, BuildingBlock: NAHDIM_clean_sbu_0, # of connection points: 4
#     Node 4, Type 0, BuildingBlock: NAHDIM_clean_sbu_0, # of connection points: 4
#     Node 5, Type 0, BuildingBlock: NAHDIM_clean_sbu_0, # of connection points: 4
#     Node 6, Type 0, BuildingBlock: NAHDIM_clean_sbu_0, # of connection points: 4
#     Node 7, Type 0, BuildingBlock: NAHDIM_clean_sbu_0, # of connection points: 4
#     Node 8, Type 0, BuildingBlock: NAHDIM_clean_sbu_0, # of connection points: 4
#     Node 9, Type 0, BuildingBlock: NAHDIM_clean_sbu_0, # of connection points: 4
#     Node 10, Type 0, BuildingBlock: NAHDIM_clean_sbu_0, # of connection points: 4
#     Node 11, Type 0, BuildingBlock: NAHDIM_clean_sbu_0, # of connection points: 4
#     Node 12, Type 0, BuildingBlock: NAHDIM_clean_sbu_0, # of connection points: 4
#     Node 13, Type 0, BuildingBlock: NAHDIM_clean_sbu_0, # of connection points: 4
#     Node 14, Type 0, BuildingBlock: NAHDIM_clean_sbu_0, # of connection points: 4
#     Node 15, Type 0, BuildingBlock: NAHDIM_clean_sbu_0, # of connection points: 4
#     Node 16, Type 0, BuildingBlock: NAHDIM_clean_sbu_0, # of connection points: 4
#     Node 17, Type 0, BuildingBlock: NAHDIM_clean_sbu_0, # of connection points: 4
#     Node 18, Type 0, BuildingBlock: NAHDIM_clean_sbu_0, # of connection points: 4
#     Node 19, Type 0, BuildingBlock: NAHDIM_clean_sbu_0, # of connection points: 4
#     Node 20, Type 0, BuildingBlock: NAHDIM_clean_sbu_0, # of connection points: 4
#     Node 21, Type 0, BuildingBlock: NAHDIM_clean_sbu_0, # of connection points: 4
#     Node 22, Type 0, BuildingBlock: NAHDIM_clean_sbu_0, # of connection points: 4
#     Node 23, Type 0, BuildingBlock: NAHDIM_clean_sbu_0, # of connection points: 4
#     Node 24, Type 0, BuildingBlock: NAHDIM_clean_sbu_0, # of connection points: 4
#     Node 25, Type 0, BuildingBlock: NAHDIM_clean_sbu_0, # of connection points: 4
#     Node 26, Type 0, BuildingBlock: NAHDIM_clean_sbu_0, # of connection points: 4
#     Node 27, Type 0, BuildingBlock: NAHDIM_clean_sbu_0, # of connection points: 4
#     Node 28, Type 0, BuildingBlock: NAHDIM_clean_sbu_0, # of connection points: 4
#     Node 29, Type 0, BuildingBlock: NAHDIM_clean_sbu_0, # of connection points: 4
#     Node 30, Type 0, BuildingBlock: NAHDIM_clean_sbu_0, # of connection points: 4
#     Node 31, Type 0, BuildingBlock: NAHDIM_clean_sbu_0, # of connection points: 4
#     Node 32, Type 0, BuildingBlock: NAHDIM_clean_sbu_0, # of connection points: 4
#     Node 33, Type 0, BuildingBlock: NAHDIM_clean_sbu_0, # of connection points: 4
#     Node 34, Type 0, BuildingBlock: NAHDIM_clean_sbu_0, # of connection points: 4
#     Node 35, Type 0, BuildingBlock: NAHDIM_clean_sbu_0, # of connection points: 4
#     Edge 36, Type (0, 0), BuildingBlock: KIFKEQ_clean_linker_1, # of connection points: 2
#     Edge 37, Type (0, 0), BuildingBlock: KIFKEQ_clean_linker_1, # of connection points: 2
#     Edge 38, Type (0, 0), BuildingBlock: KIFKEQ_clean_linker_1, # of connection points: 2
#     Edge 39, Type (0, 0), BuildingBlock: KIFKEQ_clean_linker_1, # of connection points: 2
#     Edge 40, Type (0, 0), BuildingBlock: KIFKEQ_clean_linker_1, # of connection points: 2
#     Edge 41, Type (0, 0), BuildingBlock: KIFKEQ_clean_linker_1, # of connection points: 2
#     Edge 42, Type (0, 0), BuildingBlock: KIFKEQ_clean_linker_1, # of connection points: 2
#     Edge 43, Type (0, 0), BuildingBlock: KIFKEQ_clean_linker_1, # of connection points: 2
#     Edge 44, Type (0, 0), BuildingBlock: KIFKEQ_clean_linker_1, # of connection points: 2
#     Edge 45, Type (0, 0), BuildingBlock: KIFKEQ_clean_linker_1, # of connection points: 2
#     Edge 46, Type (0, 0), BuildingBlock: KIFKEQ_clean_linker_1, # of connection points: 2
#     Edge 47, Type (0, 0), BuildingBlock: KIFKEQ_clean_linker_1, # of connection points: 2
#     Edge 48, Type (0, 0), BuildingBlock: KIFKEQ_clean_linker_1, # of connection points: 2
#     Edge 49, Type (0, 0), BuildingBlock: KIFKEQ_clean_linker_1, # of connection points: 2
#     Edge 50, Type (0, 0), BuildingBlock: KIFKEQ_clean_linker_1, # of connection points: 2
#     Edge 51, Type (0, 0), BuildingBlock: KIFKEQ_clean_linker_1, # of connection points: 2
#     Edge 52, Type (0, 0), BuildingBlock: KIFKEQ_clean_linker_1, # of connection points: 2
#     Edge 53, Type (0, 0), BuildingBlock: KIFKEQ_clean_linker_1, # of connection points: 2
#     Edge 54, Type (0, 0), BuildingBlock: KIFKEQ_clean_linker_1, # of connection points: 2
#     Edge 55, Type (0, 0), BuildingBlock: KIFKEQ_clean_linker_1, # of connection points: 2
#     Edge 56, Type (0, 0), BuildingBlock: KIFKEQ_clean_linker_1, # of connection points: 2
#     Edge 57, Type (0, 0), BuildingBlock: KIFKEQ_clean_linker_1, # of connection points: 2
#     Edge 58, Type (0, 0), BuildingBlock: KIFKEQ_clean_linker_1, # of connection points: 2
#     Edge 59, Type (0, 0), BuildingBlock: KIFKEQ_clean_linker_1, # of connection points: 2
#     Edge 60, Type (0, 0), BuildingBlock: KIFKEQ_clean_linker_1, # of connection points: 2
#     Edge 61, Type (0, 0), BuildingBlock: KIFKEQ_clean_linker_1, # of connection points: 2
#     Edge 62, Type (0, 0), BuildingBlock: KIFKEQ_clean_linker_1, # of connection points: 2
#     Edge 63, Type (0, 0), BuildingBlock: KIFKEQ_clean_linker_1, # of connection points: 2
#     Edge 64, Type (0, 0), BuildingBlock: KIFKEQ_clean_linker_1, # of connection points: 2
#     Edge 65, Type (0, 0), BuildingBlock: KIFKEQ_clean_linker_1, # of connection points: 2
#     Edge 66, Type (0, 0), BuildingBlock: KIFKEQ_clean_linker_1, # of connection points: 2
#     Edge 67, Type (0, 0), BuildingBlock: KIFKEQ_clean_linker_1, # of connection points: 2
#     Edge 68, Type (0, 0), BuildingBlock: KIFKEQ_clean_linker_1, # of connection points: 2
#     Edge 69, Type (0, 0), BuildingBlock: KIFKEQ_clean_linker_1, # of connection points: 2
#     Edge 70, Type (0, 0), BuildingBlock: KIFKEQ_clean_linker_1, # of connection points: 2
#     Edge 71, Type (0, 0), BuildingBlock: KIFKEQ_clean_linker_1, # of connection points: 2
#     Edge 72, Type (0, 0), BuildingBlock: KIFKEQ_clean_linker_1, # of connection points: 2
#     Edge 73, Type (0, 0), BuildingBlock: KIFKEQ_clean_linker_1, # of connection points: 2
#     Edge 74, Type (0, 0), BuildingBlock: KIFKEQ_clean_linker_1, # of connection points: 2
#     Edge 75, Type (0, 0), BuildingBlock: KIFKEQ_clean_linker_1, # of connection points: 2
#     Edge 76, Type (0, 0), BuildingBlock: KIFKEQ_clean_linker_1, # of connection points: 2
#     Edge 77, Type (0, 0), BuildingBlock: KIFKEQ_clean_linker_1, # of connection points: 2
#     Edge 78, Type (0, 0), BuildingBlock: KIFKEQ_clean_linker_1, # of connection points: 2
#     Edge 79, Type (0, 0), BuildingBlock: KIFKEQ_clean_linker_1, # of connection points: 2
#     Edge 80, Type (0, 0), BuildingBlock: KIFKEQ_clean_linker_1, # of connection points: 2
#     Edge 81, Type (0, 0), BuildingBlock: KIFKEQ_clean_linker_1, # of connection points: 2
#     Edge 82, Type (0, 0), BuildingBlock: KIFKEQ_clean_linker_1, # of connection points: 2
#     Edge 83, Type (0, 0), BuildingBlock: KIFKEQ_clean_linker_1, # of connection points: 2
#     Edge 84, Type (0, 0), BuildingBlock: KIFKEQ_clean_linker_1, # of connection points: 2
#     Edge 85, Type (0, 0), BuildingBlock: KIFKEQ_clean_linker_1, # of connection points: 2
#     Edge 86, Type (0, 0), BuildingBlock: KIFKEQ_clean_linker_1, # of connection points: 2
#     Edge 87, Type (0, 0), BuildingBlock: KIFKEQ_clean_linker_1, # of connection points: 2
#     Edge 88, Type (0, 0), BuildingBlock: KIFKEQ_clean_linker_1, # of connection points: 2
#     Edge 89, Type (0, 0), BuildingBlock: KIFKEQ_clean_linker_1, # of connection points: 2
#     Edge 90, Type (0, 0), BuildingBlock: KIFKEQ_clean_linker_1, # of connection points: 2
#     Edge 91, Type (0, 0), BuildingBlock: KIFKEQ_clean_linker_1, # of connection points: 2
#     Edge 92, Type (0, 0), BuildingBlock: KIFKEQ_clean_linker_1, # of connection points: 2
#     Edge 93, Type (0, 0), BuildingBlock: KIFKEQ_clean_linker_1, # of connection points: 2
#     Edge 94, Type (0, 0), BuildingBlock: KIFKEQ_clean_linker_1, # of connection points: 2
#     Edge 95, Type (0, 0), BuildingBlock: KIFKEQ_clean_linker_1, # of connection points: 2
#     Edge 96, Type (0, 0), BuildingBlock: KIFKEQ_clean_linker_1, # of connection points: 2
#     Edge 97, Type (0, 0), BuildingBlock: KIFKEQ_clean_linker_1, # of connection points: 2
#     Edge 98, Type (0, 0), BuildingBlock: KIFKEQ_clean_linker_1, # of connection points: 2
#     Edge 99, Type (0, 0), BuildingBlock: KIFKEQ_clean_linker_1, # of connection points: 2
#     Edge 100, Type (0, 0), BuildingBlock: KIFKEQ_clean_linker_1, # of connection points: 2
#     Edge 101, Type (0, 0), BuildingBlock: KIFKEQ_clean_linker_1, # of connection points: 2
#     Edge 102, Type (0, 0), BuildingBlock: KIFKEQ_clean_linker_1, # of connection points: 2
#     Edge 103, Type (0, 0), BuildingBlock: KIFKEQ_clean_linker_1, # of connection points: 2
#     Edge 104, Type (0, 0), BuildingBlock: KIFKEQ_clean_linker_1, # of connection points: 2
#     Edge 105, Type (0, 0), BuildingBlock: KIFKEQ_clean_linker_1, # of connection points: 2
#     Edge 106, Type (0, 0), BuildingBlock: KIFKEQ_clean_linker_1, # of connection points: 2
#     Edge 107, Type (0, 0), BuildingBlock: KIFKEQ_clean_linker_1, # of connection points: 2
# Relax obj value: 0.131
# Max RMSD: 0.119
# Mean RMSD: 0.114
data_MOF--net-ums--node1-NAHDIM_clean_sbu_0--edge1-KIFKEQ_clean_linker_1
_symmetry_space_group_name_H-M    P1
_symmetry_Int_Tables_number       1
_symmetry_cell_setting            triclinic
loop_
_symmetry_equiv_pos_as_xyz
'x, y, z'
_cell_length_a     102.94629
_cell_length_b     102.93782
_cell_length_c     24.160276
_cell_angle_alpha  89.97983
_cell_angle_beta   90.032837
_cell_angle_gamma 119.9725
loop_
_atom_site_label
_atom_site_type_symbol
_atom_site_fract_x
_atom_site_fract_y
_atom_site_fract_z
_atom_type_partial_charge
C0 C 0.18438 0.24043 0.16048 0.0
O1 O 0.18302 0.25016 0.1915 0.0
O2 O 0.17911 0.26896 0.08244 0.0
Zn3 Zn 0.16578 0.24672 0.09497 0.0
O4 O 0.1524 0.24317 0.16015 0.0
C5 C 0.15846 0.24267 0.9798 0.0
O6 O 0.17278 0.25266 0.97539 0.0
O7 O 0.1781 0.23713 0.11322 0.0
C8 C 0.14005 0.24311 0.15859 0.0
O9 O 0.13527 0.24551 0.11135 0.0
C10 C 0.18103 0.27875 0.11856 0.0
O11 O 0.17447 0.27435 0.167 0.0
O12 O 0.15301 0.23779 0.02748 0.0
C13 C 0.75973 0.946 0.16268 0.0
O14 O 0.74939 0.93498 0.19229 0.0
O15 O 0.72786 0.9179 0.07515 0.0
Zn16 Zn 0.74905 0.92222 0.08691 0.0
O17 O 0.749 0.90821 0.14483 0.0
C18 C 0.74684 0.90486 0.99715 0.0
O19 O 0.73453 0.89643 0.0254 0.0
O20 O 0.76196 0.94339 0.11319 0.0
C21 C 0.76093 0.90979 0.16666 0.0
O22 O 0.77396 0.92086 0.15033 0.0
C23 C 0.71778 0.91095 0.11144 0.0
O24 O 0.72147 0.90725 0.15849 0.0
O25 O 0.7561 0.9178 0.0157 0.0
C26 C 0.04778 0.81278 0.1731 0.0
O27 O 0.05694 0.80867 0.19402 0.0
O28 O 0.07964 0.81597 0.10827 0.0
Zn29 Zn 0.07487 0.83252 0.12223 0.0
O30 O 0.08605 0.8442 0.18964 0.0
C31 C 0.09506 0.84951 0.04015 0.0
O32 O 0.10259 0.84482 0.06992 0.0
O33 O 0.05281 0.82342 0.13809 0.0
C34 C 0.09291 0.85841 0.19358 0.0
O35 O 0.09309 0.86648 0.15117 0.0
C36 C 0.08582 0.81185 0.14444 0.0
O37 O 0.08891 0.81822 0.19347 0.0
O38 O 0.08181 0.84586 0.05495 0.0
C39 C 0.23338 0.18465 0.31748 0.0
O40 O 0.24241 0.18222 0.28637 0.0
O41 O 0.2639 0.18369 0.38892 0.0
Zn42 Zn 0.24174 0.16871 0.38744 0.0
O43 O 0.23661 0.15279 0.32983 0.0
C44 C 0.2461 0.15774 0.48878 0.0
O45 O 0.25956 0.16376 0.46701 0.0
O46 O 0.23089 0.1797 0.36685 0.0
C47 C 0.24256 0.14459 0.3266 0.0
O48 O 0.25303 0.14648 0.36216 0.0
C49 C 0.27358 0.18568 0.35232 0.0
O50 O 0.26924 0.17802 0.30593 0.0
O51 O 0.23584 0.15857 0.46242 0.0
C52 C 0.81818 0.04988 0.32476 0.0
O53 O 0.82111 0.06145 0.2934 0.0
O54 O 0.8236 0.08367 0.40069 0.0
Zn55 Zn 0.83634 0.0739 0.39366 0.0
O56 O 0.85148 0.08362 0.33324 0.0
C57 C 0.84173 0.0769 0.51068 0.0
O58 O 0.82755 0.07326 0.51219 0.0
O59 O 0.82348 0.05219 0.3736 0.0
C60 C 0.86133 0.09745 0.33337 0.0
O61 O 0.86172 0.10597 0.37456 0.0
C62 C 0.8221 0.09128 0.36237 0.0
O63 O 0.82888 0.09282 0.31478 0.0
O64 O 0.84763 0.07702 0.46442 0.0
C65 C 0.94243 0.75964 0.32074 0.0
O66 O 0.93234 0.74718 0.29689 0.0
O67 O 0.91306 0.72988 0.39501 0.0
Zn68 Zn 0.91709 0.75107 0.38377 0.0
O69 O 0.90486 0.7515 0.31978 0.0
C70 C 0.89837 0.74707 0.47224 0.0
O71 O 0.89085 0.73458 0.44395 0.0
O72 O 0.93871 0.76431 0.36321 0.0
C73 C 0.89771 0.75859 0.31769 0.0
O74 O 0.89772 0.76637 0.36079 0.0
C75 C 0.90506 0.71934 0.36156 0.0
O76 O 0.89977 0.72235 0.31691 0.0
O77 O 0.911 0.75718 0.45392 0.0
C78 C 0.80082 0.7582 0.85419 0.0
O79 O 0.79128 0.74474 0.87268 0.0
O80 O 0.80567 0.72857 0.8982 0.0
Zn81 Zn 0.82258 0.74959 0.88401 0.0
O82 O 0.83511 0.74888 0.82176 0.0
C83 C 0.83868 0.74706 0.97007 0.0
O84 O 0.83447 0.73484 0.94072 0.0
O85 O 0.8148 0.76302 0.85857 0.0
C86 C 0.84915 0.75762 0.81672 0.0
O87 O 0.85647 0.76776 0.85498 0.0
C88 C 0.8009 0.71855 0.86083 0.0
O89 O 0.80657 0.72215 0.81076 0.0
O90 O 0.835 0.7565 0.95342 0.0
C91 C 0.23968 0.05764 0.81908 0.0
O92 O 0.25142 0.06931 0.79744 0.0
O93 O 0.26648 0.08707 0.90693 0.0
Zn94 Zn 0.2446 0.08008 0.89582 0.0
O95 O 0.24319 0.09414 0.84152 0.0
C96 C 0.22898 0.08812 0.97581 0.0
O97 O 0.22526 0.09299 0.93169 0.0
O98 O 0.23431 0.05927 0.86419 0.0
C99 C 0.23228 0.09012 0.80816 0.0
O100 O 0.22121 0.07617 0.80885 0.0
C101 C 0.27431 0.09951 0.93168 0.0
O102 O 0.2678 0.10702 0.94829 0.0
O103 O 0.23635 0.08134 0.96997 0.0
C104 C 0.94463 0.18233 0.81824 0.0
O105 O 0.93355 0.1809 0.78696 0.0
O106 O 0.91307 0.18047 0.90477 0.0
Zn107 Zn 0.92034 0.16591 0.89128 0.0
O108 O 0.90765 0.15163 0.83151 0.0
C109 C 0.90726 0.14135 0.96861 0.0
O110 O 0.89846 0.1345 0.92632 0.0
O111 O 0.94178 0.17681 0.8667 0.0
C112 C 0.91083 0.14234 0.80968 0.0
O113 O 0.92297 0.14222 0.82568 0.0
C114 C 0.89966 0.17485 0.92198 0.0
O115 O 0.89158 0.16025 0.92838 0.0
O116 O 0.91789 0.15478 0.96287 0.0
C117 C 0.76026 0.80789 0.60457 0.0
O118 O 0.74725 0.79934 0.58058 0.0
O119 O 0.73086 0.81529 0.58183 0.0
Zn120 Zn 0.75266 0.83107 0.58792 0.0
O121 O 0.75416 0.84422 0.6516 0.0
C122 C 0.75016 0.84822 0.50538 0.0
O123 O 0.73902 0.84543 0.53893 0.0
O124 O 0.76522 0.8219 0.60818 0.0
C125 C 0.76203 0.85842 0.65458 0.0
O126 O 0.77036 0.86608 0.61232 0.0
C127 C 0.72339 0.80927 0.62552 0.0
O128 O 0.73031 0.81282 0.67354 0.0
O129 O 0.75874 0.84305 0.5175 0.0
C130 C 0.19397 0.95568 0.64139 0.0
O131 O 0.20256 0.94979 0.6331 0.0
O132 O 0.18607 0.9195 0.60654 0.0
Zn133 Zn 0.17035 0.92528 0.62193 0.0
O134 O 0.15863 0.91438 0.68976 0.0
C135 C 0.15216 0.90517 0.5414 0.0
O136 O 0.15618 0.8971 0.57138 0.0
O137 O 0.17984 0.94744 0.63656 0.0
C138 C 0.14451 0.90858 0.69439 0.0
O139 O 0.13675 0.90951 0.65293 0.0
C140 C 0.19014 0.91312 0.64196 0.0
O141 O 0.18448 0.91069 0.69211 0.0
O142 O 0.15674 0.91867 0.55554 0.0
C143 C 0.05067 0.23624 0.67395 0.0
O144 O 0.06153 0.24608 0.70555 0.0
O145 O 0.0806 0.26776 0.58989 0.0
Zn146 Zn 0.07526 0.24635 0.60202 0.0
O147 O 0.08864 0.24555 0.66085 0.0
C148 C 0.09367 0.24641 0.51966 0.0
O149 O 0.10296 0.25649 0.55495 0.0
O150 O 0.05376 0.23408 0.62511 0.0
C151 C 0.08717 0.23328 0.67877 0.0
O152 O 0.07626 0.22054 0.65949 0.0
C153 C 0.08759 0.27798 0.62563 0.0
O154 O 0.09087 0.27442 0.6738 0.0
O155 O 0.07974 0.23941 0.53076 0.0
C156 C 0.85467 0.56958 0.44779 0.0
O157 O 0.86198 0.58043 0.41189 0.0
O158 O 0.85059 0.60142 0.43252 0.0
Zn159 Zn 0.83371 0.58039 0.44587 0.0
O160 O 0.82168 0.58056 0.51091 0.0
C161 C 0.81768 0.58371 0.36049 0.0
O162 O 0.82243 0.59611 0.38923 0.0
O163 O 0.84201 0.56708 0.46541 0.0
C164 C 0.80751 0.57261 0.51479 0.0
O165 O 0.79979 0.56371 0.47376 0.0
C166 C 0.856 0.61126 0.47047 0.0
O167 O 0.85103 0.60749 0.52135 0.0
O168 O 0.82093 0.57397 0.37729 0.0
C169 C 0.41953 0.27157 0.52418 0.0
O170 O 0.40689 0.26099 0.54532 0.0
O171 O 0.39234 0.24162 0.43706 0.0
Zn172 Zn 0.41364 0.2473 0.45524 0.0
O173 O 0.41379 0.23374 0.51472 0.0
C174 C 0.41721 0.23017 0.37501 0.0
O175 O 0.40752 0.22005 0.40922 0.0
O176 O 0.42507 0.26853 0.48254 0.0
C177 C 0.42592 0.23445 0.53025 0.0
O178 O 0.43864 0.24449 0.50782 0.0
C179 C 0.38144 0.23338 0.46874 0.0
O180 O 0.38412 0.22883 0.51596 0.0
O181 O 0.42238 0.24396 0.38608 0.0
C182 C 0.72345 0.13924 0.55113 0.0
O183 O 0.73384 0.1399 0.58452 0.0
O184 O 0.75723 0.14423 0.46739 0.0
Zn185 Zn 0.74926 0.15793 0.48746 0.0
O186 O 0.75999 0.16938 0.55572 0.0
C187 C 0.76336 0.18566 0.4255 0.0
O188 O 0.7712 0.19086 0.47119 0.0
O189 O 0.72732 0.14598 0.50484 0.0
C190 C 0.75603 0.17762 0.58138 0.0
O191 O 0.74478 0.17893 0.56234 0.0
C192 C 0.77033 0.15016 0.44682 0.0
O193 O 0.77794 0.16475 0.43963 0.0
O194 O 0.75306 0.17199 0.42337 0.0
C195 C 0.91056 0.52746 0.65306 0.0
O196 O 0.92525 0.53477 0.64975 0.0
O197 O 0.93776 0.52127 0.71569 0.0
Zn198 Zn 0.91603 0.5057 0.70526 0.0
O199 O 0.91427 0.49043 0.64966 0.0
C200 C 0.91614 0.48863 0.79185 0.0
O201 O 0.92652 0.48944 0.75807 0.0
O202 O 0.90396 0.51485 0.67754 0.0
C203 C 0.90149 0.48034 0.63259 0.0
O204 O 0.8894 0.48015 0.65107 0.0
C205 C 0.94781 0.52341 0.68053 0.0
O206 O 0.94393 0.51569 0.63424 0.0
O207 O 0.90888 0.49514 0.77819 0.0
C208 C 0.47028 0.37658 0.67603 0.0
O209 O 0.46454 0.385 0.66196 0.0
O210 O 0.47817 0.41156 0.72721 0.0
Zn211 Zn 0.49327 0.40489 0.71257 0.0
O212 O 0.50478 0.41481 0.64328 0.0
C213 C 0.5133 0.42592 0.7862 0.0
O214 O 0.51059 0.43402 0.75104 0.0
O215 O 0.48284 0.38257 0.70089 0.0
C216 C 0.51881 0.42022 0.63705 0.0
O217 O 0.52681 0.41941 0.67786 0.0
C218 C 0.47533 0.41907 0.69241 0.0
O219 O 0.48187 0.42209 0.64372 0.0
O220 O 0.50714 0.41186 0.77814 0.0
C221 C 0.61516 0.09009 0.66775 0.0
O222 O 0.60465 0.08121 0.63291 0.0
O223 O 0.57944 0.06171 0.72598 0.0
Zn224 Zn 0.58906 0.08427 0.72226 0.0
O225 O 0.58141 0.08979 0.65463 0.0
C226 C 0.56929 0.08663 0.79515 0.0
O227 O 0.56021 0.07842 0.75527 0.0
O228 O 0.61131 0.09334 0.71335 0.0
C229 C 0.57744 0.09961 0.65002 0.0
O230 O 0.57815 0.10774 0.69305 0.0
C231 C 0.57233 0.05342 0.68505 0.0
O232 O 0.57145 0.05968 0.63889 0.0
O233 O 0.5832 0.09106 0.79104 0.0
C234 C 0.47923 0.09028 0.1598 0.0
O235 O 0.47935 0.07943 0.13163 0.0
O236 O 0.48408 0.06279 0.23905 0.0
Zn237 Zn 0.49857 0.08467 0.22428 0.0
O238 O 0.51231 0.0867 0.16152 0.0
C239 C 0.51767 0.08569 0.30506 0.0
O240 O 0.5154 0.07433 0.2736 0.0
O241 O 0.48692 0.09487 0.20404 0.0
C242 C 0.51768 0.09771 0.12815 0.0
O243 O 0.51429 0.10834 0.13431 0.0
C244 C 0.48195 0.05261 0.20446 0.0
O245 O 0.48902 0.05643 0.15679 0.0
O246 O 0.51127 0.09311 0.2923 0.0
C247 C 0.89969 0.38074 0.21299 0.0
O248 O 0.91014 0.38484 0.25105 0.0
O249 O 0.92909 0.41839 0.23066 0.0
Zn250 Zn 0.90746 0.41193 0.21551 0.0
O251 O 0.90621 0.42324 0.15023 0.0
C252 C 0.90295 0.4146 0.33041 0.0
O253 O 0.91164 0.40868 0.33461 0.0
O254 O 0.89638 0.39026 0.19444 0.0
C255 C 0.90601 0.43546 0.15214 0.0
O256 O 0.90671 0.44171 0.20029 0.0
C257 C 0.93902 0.42346 0.19299 0.0
O258 O 0.93513 0.42442 0.14202 0.0
O259 O 0.89891 0.41639 0.28266 0.0
C260 C 0.61329 0.52353 0.18536 0.0
O261 O 0.60864 0.5325 0.20383 0.0
O262 O 0.57822 0.51677 0.23095 0.0
Zn263 Zn 0.58316 0.50062 0.21276 0.0
O264 O 0.57023 0.48831 0.14972 0.0
C265 C 0.56457 0.48253 0.29527 0.0
O266 O 0.5562 0.48656 0.26732 0.0
O267 O 0.60459 0.50943 0.18818 0.0
C268 C 0.57164 0.47763 0.13014 0.0
O269 O 0.58148 0.47461 0.15241 0.0
C270 C 0.57311 0.52205 0.19492 0.0
O271 O 0.5715 0.51727 0.14359 0.0
O272 O 0.57795 0.48725 0.27931 0.0
C273 C 0.42348 0.14078 0.01752 0.0
O274 O 0.41531 0.14362 0.05181 0.0
O275 O 0.39416 0.14682 0.94917 0.0
Zn276 Zn 0.41675 0.15919 0.95285 0.0
O277 O 0.42277 0.1739 0.01525 0.0
C278 C 0.41758 0.16481 0.8366 0.0
O279 O 0.40652 0.15086 0.83656 0.0
O280 O 0.42562 0.14608 0.96872 0.0
C281 C 0.4215 0.18554 0.01397 0.0
O282 O 0.41621 0.18852 0.96921 0.0
C283 C 0.38577 0.14573 0.98959 0.0
O284 O 0.39191 0.1525 0.03642 0.0
O285 O 0.42428 0.17063 0.8818 0.0
C286 C 0.8574 0.27901 0.03519 0.0
O287 O 0.86274 0.27043 0.05167 0.0
O288 O 0.84932 0.24349 0.98461 0.0
Zn289 Zn 0.83473 0.25101 0.9955 0.0
O290 O 0.82271 0.24194 0.06436 0.0
C291 C 0.81385 0.22982 0.92495 0.0
O292 O 0.81591 0.22176 0.96241 0.0
O293 O 0.84545 0.27328 0.0065 0.0
C294 C 0.80929 0.23902 0.07123 0.0
O295 O 0.8024 0.24182 0.03116 0.0
C296 C 0.85112 0.23569 0.02137 0.0
O297 O 0.84398 0.23318 0.06868 0.0
O298 O 0.82093 0.24401 0.9299 0.0
C299 C 0.70775 0.56949 0.95779 0.0
O300 O 0.71142 0.58191 0.9306 0.0
O301 O 0.74299 0.60042 0.93286 0.0
Zn302 Zn 0.73917 0.57944 0.94565 0.0
O303 O 0.75156 0.57977 0.01037 0.0
C304 C 0.75864 0.58312 0.86044 0.0
O305 O 0.76614 0.59548 0.8895 0.0
O306 O 0.71762 0.56573 0.96585 0.0
C307 C 0.758 0.57202 0.01429 0.0
O308 O 0.75697 0.56316 0.97333 0.0
C309 C 0.74796 0.61035 0.97056 0.0
O310 O 0.7501 0.60675 0.02055 0.0
O311 O 0.74567 0.57326 0.87689 0.0
C312 C 0.51423 0.90269 0.83657 0.0
O313 O 0.51351 0.9135 0.86273 0.0
O314 O 0.51576 0.9332 0.74872 0.0
Zn315 Zn 0.50047 0.9113 0.75477 0.0
O316 O 0.48434 0.90976 0.80582 0.0
C317 C 0.47804 0.89616 0.67015 0.0
O318 O 0.46896 0.89092 0.71283 0.0
O319 O 0.50952 0.89968 0.78698 0.0
C320 C 0.47647 0.89854 0.83677 0.0
O321 O 0.47849 0.88691 0.83527 0.0
C322 C 0.5108 0.94117 0.72745 0.0
O323 O 0.49669 0.93461 0.71178 0.0
O324 O 0.49205 0.90428 0.67845 0.0
C325 C 0.09691 0.61623 0.83001 0.0
O326 O 0.08624 0.60572 0.86033 0.0
O327 O 0.0668 0.58487 0.75339 0.0
Zn328 Zn 0.08826 0.59053 0.76827 0.0
O329 O 0.08895 0.57947 0.83573 0.0
C330 C 0.08713 0.56989 0.69336 0.0
O331 O 0.07621 0.56184 0.72817 0.0
O332 O 0.10032 0.61257 0.78432 0.0
C333 C 0.09733 0.5738 0.84261 0.0
O334 O 0.10663 0.57495 0.80321 0.0
C335 C 0.05645 0.578 0.7888 0.0
O336 O 0.05985 0.57501 0.83779 0.0
O337 O 0.09518 0.58391 0.70184 0.0
C338 C 0.38251 0.47216 0.83904 0.0
O339 O 0.39167 0.46768 0.85699 0.0
O340 O 0.41572 0.47812 0.77554 0.0
Zn341 Zn 0.40959 0.49364 0.79027 0.0
O342 O 0.42054 0.50585 0.85716 0.0
C343 C 0.42901 0.51182 0.70831 0.0
O344 O 0.43746 0.50833 0.73849 0.0
O345 O 0.38754 0.48343 0.8069 0.0
C346 C 0.42629 0.51998 0.86111 0.0
O347 O 0.42535 0.52759 0.81917 0.0
C348 C 0.42367 0.47556 0.80918 0.0
O349 O 0.42763 0.48278 0.85654 0.0
O350 O 0.41547 0.50687 0.72283 0.0
C351 C 0.55278 0.84087 0.02093 0.0
O352 O 0.54734 0.82677 0.00671 0.0
O353 O 0.5991 0.85382 0.06197 0.0
Zn354 Zn 0.57742 0.83764 0.05941 0.0
O355 O 0.57361 0.82335 0.99651 0.0
C356 C 0.58292 0.82522 0.15479 0.0
O357 O 0.59634 0.83218 0.13245 0.0
O358 O 0.56519 0.84759 0.04669 0.0
C359 C 0.58115 0.8168 0.98884 0.0
O360 O 0.59226 0.81957 0.0225 0.0
C361 C 0.60815 0.85827 0.02139 0.0
O362 O 0.60331 0.85246 0.97211 0.0
O363 O 0.5723 0.82605 0.1312 0.0
C364 C 0.14665 0.723 0.96557 0.0
O365 O 0.14869 0.73373 0.93112 0.0
O366 O 0.14469 0.75366 0.05841 0.0
Zn367 Zn 0.16008 0.74797 0.03777 0.0
O368 O 0.17217 0.7608 0.97421 0.0
C369 C 0.17881 0.76678 0.11798 0.0
O370 O 0.17501 0.77516 0.08891 0.0
O371 O 0.15058 0.72627 0.01587 0.0
C372 C 0.18322 0.75989 0.95551 0.0
O373 O 0.18675 0.75053 0.97872 0.0
C374 C 0.13216 0.74991 0.03575 0.0
O375 O 0.12762 0.74068 0.99341 0.0
O376 O 0.17379 0.75324 0.10332 0.0
C377 C 0.27753 0.42339 0.99141 0.0
O378 O 0.26721 0.4104 0.97161 0.0
O379 O 0.24264 0.39871 0.05627 0.0
Zn380 Zn 0.25177 0.42096 0.04257 0.0
O381 O 0.2422 0.42456 0.97663 0.0
C382 C 0.24945 0.42578 0.15737 0.0
O383 O 0.25455 0.41639 0.16164 0.0
O384 O 0.27371 0.43025 0.02561 0.0
C385 C 0.22993 0.42469 0.97833 0.0
O386 O 0.22281 0.42231 0.02566 0.0
C387 C 0.23422 0.38879 0.02147 0.0
O388 O 0.23146 0.39299 0.97366 0.0
O389 O 0.24801 0.43005 0.1096 0.0
C390 C 0.14568 0.42578 0.45695 0.0
O391 O 0.14707 0.4154 0.43052 0.0
O392 O 0.14536 0.3966 0.5462 0.0
Zn393 Zn 0.16096 0.41819 0.53361 0.0
O394 O 0.17585 0.41947 0.47706 0.0
C395 C 0.17914 0.41918 0.61783 0.0
O396 O 0.17862 0.40903 0.58348 0.0
O397 O 0.15105 0.42945 0.50551 0.0
C398 C 0.18624 0.43199 0.4593 0.0
O399 O 0.18712 0.44444 0.47743 0.0
C400 C 0.1433 0.3862 0.51286 0.0
O401 O 0.15122 0.38959 0.4671 0.0
O402 O 0.17195 0.42586 0.60558 0.0
C403 C 0.57181 0.72224 0.49107 0.0
O404 O 0.5824 0.73281 0.46069 0.0
O405 O 0.60313 0.75218 0.57157 0.0
Zn406 Zn 0.58157 0.74696 0.56355 0.0
O407 O 0.58094 0.76065 0.50556 0.0
C408 C 0.56825 0.75839 0.64105 0.0
O409 O 0.56466 0.76291 0.59573 0.0
O410 O 0.5692 0.72556 0.53889 0.0
C411 C 0.5697 0.75713 0.4744 0.0
O412 O 0.55762 0.7439 0.47975 0.0
C413 C 0.61164 0.76307 0.60291 0.0
O414 O 0.60604 0.77036 0.62907 0.0
O415 O 0.57469 0.75063 0.63712 0.0
C416 C 0.28114 0.85522 0.47712 0.0
O417 O 0.27106 0.8563 0.44721 0.0
O418 O 0.24988 0.85473 0.55194 0.0
Zn419 Zn 0.25512 0.8386 0.53761 0.0
O420 O 0.24426 0.82679 0.47 0.0
C421 C 0.2343 0.81907 0.61262 0.0
O422 O 0.22615 0.82183 0.5778 0.0
O423 O 0.2771 0.84793 0.5223 0.0
C424 C 0.23908 0.8128 0.46369 0.0
O425 O 0.24046 0.80495 0.50379 0.0
C426 C 0.24212 0.85759 0.5184 0.0
O427 O 0.23789 0.85032 0.47118 0.0
O428 O 0.24832 0.82512 0.60405 0.0
C429 C 0.08773 0.47054 0.28479 0.0
O430 O 0.07437 0.46167 0.26388 0.0
O431 O 0.058 0.47746 0.25692 0.0
Zn432 Zn 0.07955 0.49341 0.26965 0.0
O433 O 0.08036 0.50644 0.33258 0.0
C434 C 0.07807 0.51055 0.18393 0.0
O435 O 0.06561 0.5066 0.21133 0.0
O436 O 0.09235 0.48447 0.28937 0.0
C437 C 0.09262 0.51718 0.35075 0.0
O438 O 0.10529 0.52005 0.32729 0.0
C439 C 0.04822 0.47368 0.29485 0.0
O440 O 0.05241 0.47964 0.34429 0.0
O441 O 0.08686 0.50613 0.20137 0.0
C442 C 0.51716 0.61559 0.35343 0.0
O443 O 0.51711 0.6052 0.38523 0.0
O444 O 0.51772 0.58471 0.27948 0.0
Zn445 Zn 0.50131 0.58975 0.29079 0.0
O446 O 0.48893 0.57856 0.35716 0.0
C447 C 0.48487 0.56983 0.20726 0.0
O448 O 0.48927 0.56217 0.23778 0.0
O449 O 0.51073 0.61179 0.30652 0.0
C450 C 0.47471 0.57104 0.35973 0.0
O451 O 0.4667 0.57001 0.31587 0.0
C452 C 0.52043 0.57709 0.31422 0.0
O453 O 0.51287 0.57296 0.36084 0.0
O454 O 0.48851 0.58308 0.22209 0.0
C455 C 0.38685 0.90136 0.33288 0.0
O456 O 0.39819 0.90919 0.36635 0.0
O457 O 0.41842 0.9335 0.26048 0.0
Zn458 Zn 0.4112 0.91134 0.26094 0.0
O459 O 0.42228 0.90605 0.31672 0.0
C460 C 0.42598 0.91552 0.15861 0.0
O461 O 0.43386 0.92893 0.18046 0.0
O462 O 0.38947 0.90036 0.28211 0.0
C463 C 0.43644 0.9128 0.32185 0.0
O464 O 0.44483 0.92424 0.28952 0.0
C465 C 0.42513 0.9428 0.29935 0.0
O466 O 0.4274 0.93801 0.34678 0.0
O467 O 0.41487 0.90544 0.18543 0.0
H468 H 0.23639 0.196 0.2134 0.0
H469 H 0.21438 0.19209 0.36989 0.0
H470 H 0.22493 0.20976 0.17521 0.0
H471 H 0.2027 0.2057 0.33117 0.0
H472 H 0.19788 0.24439 0.26111 0.0
H473 H 0.20981 0.23102 0.29899 0.0
H474 H 0.2002 0.20544 0.14776 0.0
H475 H 0.18843 0.21898 0.10937 0.0
C476 C 0.22907 0.19803 0.23966 0.0
C477 C 0.2263 0.19295 0.29474 0.0
C478 C 0.22243 0.20585 0.21759 0.0
C479 C 0.2129 0.20879 0.25011 0.0
C480 C 0.21014 0.20374 0.30526 0.0
C481 C 0.21676 0.19588 0.32736 0.0
C482 C 0.19836 0.23596 0.23577 0.0
C483 C 0.1922 0.23274 0.18219 0.0
C484 C 0.20511 0.22823 0.25769 0.0
C485 C 0.20588 0.21712 0.2265 0.0
C486 C 0.1999 0.21403 0.17263 0.0
C487 C 0.19312 0.22176 0.1507 0.0
H488 H 0.80571 0.04169 0.22217 0.0
H489 H 0.81085 0.02336 0.37628 0.0
H490 H 0.79173 0.01654 0.18366 0.0
H491 H 0.79703 0.99815 0.3372 0.0
H492 H 0.75754 0.95484 0.26697 0.0
H493 H 0.77163 0.97986 0.30674 0.0
H494 H 0.79611 0.99638 0.15354 0.0
H495 H 0.78182 0.97139 0.11327 0.0
C496 C 0.80388 0.03229 0.24785 0.0
C497 C 0.80939 0.03452 0.30231 0.0
C498 C 0.79596 0.01789 0.22559 0.0
C499 C 0.79335 0.00537 0.25726 0.0
C500 C 0.79875 0.00757 0.31193 0.0
C501 C 0.8067 0.02201 0.33424 0.0
C502 C 0.76593 0.9638 0.24172 0.0
C503 C 0.76853 0.96115 0.18687 0.0
C504 C 0.77407 0.97812 0.26469 0.0
C505 C 0.78496 0.99009 0.23328 0.0
C506 C 0.78764 0.98742 0.17854 0.0
C507 C 0.77951 0.97308 0.15557 0.0
H508 H 0.95518 0.74922 0.24801 0.0
H509 H 0.96423 0.78868 0.3415 0.0
H510 H 0.98046 0.76254 0.2099 0.0
H511 H 0.98962 0.80208 0.3025 0.0
H512 H 0.02785 0.82307 0.16682 0.0
H513 H 0.00204 0.81063 0.20228 0.0
H514 H 0.0066 0.77313 0.25631 0.0
H515 H 0.03226 0.7855 0.22185 0.0
C516 C 0.96255 0.76076 0.26027 0.0
C517 C 0.95776 0.7679 0.29796 0.0
C518 C 0.97701 0.76835 0.23849 0.0
C519 C 0.98691 0.78329 0.25332 0.0
C520 C 0.98211 0.79057 0.29022 0.0
C521 C 0.96766 0.78288 0.31277 0.0
C522 C 0.02327 0.81214 0.18604 0.0
C523 C 0.03203 0.80523 0.19158 0.0
C524 C 0.0086 0.80511 0.20659 0.0
C525 C 0.00242 0.79096 0.23191 0.0
C526 C 0.01111 0.784 0.23664 0.0
C527 C 0.02579 0.79111 0.21706 0.0
H528 H 0.77182 0.75087 0.83469 0.0
H529 H 0.8176 0.78442 0.79746 0.0
H530 H 0.76287 0.76322 0.77202 0.0
H531 H 0.80863 0.79657 0.7338 0.0
H532 H 0.78544 0.82214 0.66877 0.0
H533 H 0.79555 0.81067 0.73049 0.0
H534 H 0.76213 0.76676 0.6728 0.0
H535 H 0.75178 0.7782 0.61194 0.0
C536 C 0.77998 0.76092 0.81339 0.0
C537 C 0.79542 0.76663 0.82096 0.0
C538 C 0.77485 0.76791 0.77701 0.0
C539 C 0.78504 0.78075 0.74732 0.0
C540 C 0.80048 0.78674 0.75623 0.0
C541 C 0.80562 0.77976 0.79271 0.0
C542 C 0.78035 0.81004 0.66871 0.0
C543 C 0.76772 0.80107 0.63571 0.0
C544 C 0.78617 0.80347 0.70408 0.0
C545 C 0.77952 0.7878 0.70711 0.0
C546 C 0.7673 0.77886 0.67232 0.0
C547 C 0.76146 0.78542 0.63702 0.0
H548 H 0.21425 0.03175 0.84836 0.0
H549 H 0.24942 0.05038 0.72539 0.0
H550 H 0.20304 0.00752 0.8016 0.0
H551 H 0.2381 0.02622 0.6784 0.0
H552 H 0.22361 0.97619 0.65545 0.0
H553 H 0.23442 0.00107 0.69643 0.0
H554 H 0.19012 0.99538 0.71421 0.0
H555 H 0.17924 0.97037 0.67382 0.0
C556 C 0.21956 0.03069 0.81129 0.0
C557 C 0.23275 0.04297 0.79071 0.0
C558 C 0.21308 0.01684 0.78429 0.0
C559 C 0.21969 0.01497 0.7363 0.0
C560 C 0.23284 0.02727 0.7156 0.0
C561 C 0.23928 0.04113 0.74244 0.0
C562 C 0.21617 0.98027 0.66764 0.0
C563 C 0.20056 0.97127 0.66158 0.0
C564 C 0.22238 0.99456 0.69093 0.0
C565 C 0.21311 0.00014 0.70879 0.0
C566 C 0.19753 0.99129 0.70152 0.0
C567 C 0.19131 0.97701 0.67802 0.0
H568 H 0.04072 0.23829 0.77636 0.0
H569 H 0.02547 0.21563 0.61907 0.0
H570 H 0.01508 0.22515 0.81082 0.0
H571 H -0.00019 0.20227 0.65404 0.0
H572 H 0.95436 0.19486 0.71616 0.0
H573 H 0.98 0.20768 0.68121 0.0
H574 H 0.99562 0.19983 0.83685 0.0
H575 H 0.97003 0.18723 0.87221 0.0
C576 C 0.03191 0.23045 0.74919 0.0
C577 C 0.03513 0.22802 0.69494 0.0
C578 C 0.01723 0.22286 0.76909 0.0
C579 C 0.00543 0.21267 0.73517 0.0
C580 C 0.00864 0.21019 0.68094 0.0
C581 C 0.02335 0.21778 0.66103 0.0
C582 C 0.96326 0.19588 0.74296 0.0
C583 C 0.96017 0.19006 0.79702 0.0
C584 C 0.97794 0.20314 0.72278 0.0
C585 C 0.98982 0.20476 0.75627 0.0
C586 C 0.98672 0.19892 0.81029 0.0
C587 C 0.97205 0.19163 0.83044 0.0
H588 H 0.8442 0.54955 0.53324 0.0
H589 H 0.88165 0.57214 0.42092 0.0
H590 H 0.85741 0.53907 0.58278 0.0
H591 H 0.8947 0.56125 0.46951 0.0
H592 H 0.921 0.55529 0.60884 0.0
H593 H 0.90698 0.56451 0.55704 0.0
H594 H 0.86648 0.52173 0.57809 0.0
H595 H 0.88045 0.51266 0.63149 0.0
C596 C 0.85516 0.55208 0.51851 0.0
C597 C 0.86193 0.56178 0.47336 0.0
C598 C 0.86272 0.54602 0.54685 0.0
C599 C 0.87718 0.54943 0.53048 0.0
C600 C 0.8837 0.55865 0.48393 0.0
C601 C 0.87617 0.56479 0.45576 0.0
C602 C 0.90909 0.54787 0.60265 0.0
C603 C 0.90183 0.53326 0.62429 0.0
C604 C 0.90107 0.55311 0.57249 0.0
C605 C 0.88563 0.54381 0.5629 0.0
C606 C 0.87833 0.52924 0.58514 0.0
C607 C 0.88634 0.52403 0.61569 0.0
H608 H 0.4083 0.28275 0.60079 0.0
H609 H 0.44796 0.29458 0.50374 0.0
H610 H 0.42068 0.30778 0.64148 0.0
H611 H 0.46032 0.31965 0.54472 0.0
H612 H 0.48185 0.35773 0.67407 0.0
H613 H 0.46966 0.33195 0.63947 0.0
H614 H 0.42951 0.33389 0.6048 0.0
H615 H 0.44162 0.35957 0.63912 0.0
C616 C 0.41967 0.29068 0.58823 0.0
C617 C 0.42714 0.28672 0.54889 0.0
C618 C 0.42672 0.30501 0.61143 0.0
C619 C 0.44144 0.31562 0.59623 0.0
C620 C 0.44901 0.31162 0.55751 0.0
C621 C 0.44189 0.29732 0.53379 0.0
C622 C 0.47038 0.35259 0.65953 0.0
C623 C 0.46269 0.36067 0.65921 0.0
C624 C 0.46346 0.3379 0.63941 0.0
C625 C 0.44868 0.33097 0.61937 0.0
C626 C 0.44088 0.33893 0.6204 0.0
C627 C 0.44784 0.35365 0.63985 0.0
H628 H 0.71182 0.12592 0.65075 0.0
H629 H 0.69915 0.13491 0.49079 0.0
H630 H 0.68566 0.11355 0.6801 0.0
H631 H 0.67306 0.1227 0.52046 0.0
H632 H 0.62646 0.08606 0.57155 0.0
H633 H 0.65263 0.09739 0.54422 0.0
H634 H 0.66621 0.12038 0.70133 0.0
H635 H 0.63993 0.10888 0.7292 0.0
C636 C 0.70346 0.12523 0.62181 0.0
C637 C 0.70756 0.13137 0.56839 0.0
C638 C 0.6885 0.11824 0.63879 0.0
C639 C 0.67733 0.11717 0.60259 0.0
C640 C 0.68141 0.12321 0.54905 0.0
C641 C 0.69637 0.13026 0.53215 0.0
C642 C 0.635 0.09348 0.60046 0.0
C643 C 0.63112 0.09661 0.65252 0.0
C644 C 0.65 0.10004 0.5846 0.0
C645 C 0.66145 0.10983 0.62049 0.0
C646 C 0.65761 0.11277 0.67298 0.0
C647 C 0.64257 0.10625 0.68882 0.0
H648 H 0.46354 0.08428 0.06317 0.0
H649 H 0.47559 0.11214 0.20938 0.0
H650 H 0.44957 0.09592 0.02825 0.0
H651 H 0.46173 0.1239 0.174 0.0
H652 H 0.4224 0.12976 0.12105 0.0
H653 H 0.43552 0.11718 0.15516 0.0
H654 H 0.45462 0.1206 0.99299 0.0
H655 H 0.44134 0.13307 0.95848 0.0
C656 C 0.46322 0.09289 0.08788 0.0
C657 C 0.47066 0.09728 0.13911 0.0
C658 C 0.45528 0.09962 0.06766 0.0
C659 C 0.45456 0.11082 0.09836 0.0
C660 C 0.46194 0.11517 0.14971 0.0
C661 C 0.46994 0.10849 0.16984 0.0
C662 C 0.42933 0.12777 0.09251 0.0
C663 C 0.43086 0.13245 0.03705 0.0
C664 C 0.43692 0.12065 0.11221 0.0
C665 C 0.44617 0.11799 0.07686 0.0
C666 C 0.44748 0.1224 0.02111 0.0
C667 C 0.43992 0.12959 0.0014 0.0
H668 H 0.88476 0.29581 0.08361 0.0
H669 H 0.84502 0.29709 0.03499 0.0
H670 H 0.89492 0.32049 0.12565 0.0
H671 H 0.85487 0.32149 0.07894 0.0
H672 H 0.88295 0.37117 0.11872 0.0
H673 H 0.87332 0.34711 0.07276 0.0
H674 H 0.89112 0.33204 0.20434 0.0
H675 H 0.90132 0.35642 0.24919 0.0
C676 C 0.87821 0.30139 0.08183 0.0
C677 C 0.8641 0.29452 0.05603 0.0
C678 C 0.88396 0.31548 0.10642 0.0
C679 C 0.87565 0.32293 0.10629 0.0
C680 C 0.86167 0.31617 0.07932 0.0
C681 C 0.856 0.30215 0.05418 0.0
C682 C 0.88475 0.3627 0.13804 0.0
C683 C 0.89292 0.3657 0.1876 0.0
C684 C 0.87917 0.34886 0.11173 0.0
C685 C 0.88148 0.33762 0.13466 0.0
C686 C 0.8894 0.34054 0.18489 0.0
C687 C 0.89513 0.35446 0.21091 0.0
H688 H 0.63386 0.55299 0.16797 0.0
H689 H 0.62502 0.5081 0.13312 0.0
H690 H 0.65629 0.56323 0.11071 0.0
H691 H 0.64736 0.51838 0.07502 0.0
H692 H 0.69749 0.5447 0.02392 0.0
H693 H 0.67479 0.53322 0.08002 0.0
H694 H 0.66215 0.56415 0.01204 0.0
H695 H 0.68496 0.57583 0.95664 0.0
C696 C 0.63674 0.54531 0.14834 0.0
C697 C 0.62763 0.52973 0.15498 0.0
C698 C 0.64952 0.55117 0.1151 0.0
C699 C 0.65348 0.5416 0.08777 0.0
C700 C 0.64463 0.52604 0.09571 0.0
C701 C 0.63183 0.52016 0.12896 0.0
C702 C 0.68979 0.54895 0.02044 0.0
C703 C 0.69309 0.56126 0.9861 0.0
C704 C 0.67677 0.54234 0.05254 0.0
C705 C 0.66678 0.54791 0.05098 0.0
C706 C 0.66979 0.55982 0.01498 0.0
C707 C 0.6828 0.56642 0.98286 0.0
H708 H 0.52338 0.9052 0.94408 0.0
H709 H 0.51691 0.87944 0.79501 0.0
H710 H 0.53144 0.88971 0.99287 0.0
H711 H 0.52527 0.86416 0.84355 0.0
H712 H 0.52738 0.83058 0.95831 0.0
H713 H 0.51737 0.8453 0.91638 0.0
H714 H 0.55252 0.88532 0.99385 0.0
H715 H 0.56235 0.87059 0.03667 0.0
C716 C 0.52376 0.89629 0.92162 0.0
C717 C 0.51954 0.89357 0.86562 0.0
C718 C 0.52841 0.88744 0.94958 0.0
C719 C 0.52895 0.87568 0.92215 0.0
C720 C 0.52474 0.87298 0.86611 0.0
C721 C 0.52008 0.88182 0.83816 0.0
C722 C 0.53286 0.84248 0.96697 0.0
C723 C 0.54571 0.84942 0.00058 0.0
C724 C 0.52719 0.85094 0.94258 0.0
C725 C 0.53425 0.8665 0.95133 0.0
C726 C 0.54676 0.87333 0.98661 0.0
C727 C 0.55242 0.86489 0.01101 0.0
H728 H 0.11925 0.64098 0.77788 0.0
H729 H 0.0922 0.62697 0.92631 0.0
H730 H 0.13198 0.66688 0.81102 0.0
H731 H 0.1047 0.65276 0.95874 0.0
H732 H 0.1405 0.698 0.02546 0.0
H733 H 0.12921 0.67223 0.99219 0.0
H734 H 0.12611 0.68694 0.82769 0.0
H735 H 0.13761 0.7127 0.86058 0.0
C736 C 0.11601 0.64342 0.81746 0.0
C737 C 0.10472 0.63193 0.84944 0.0
C738 C 0.12325 0.65825 0.83631 0.0
C739 C 0.11935 0.66184 0.88754 0.0
C740 C 0.1081 0.65032 0.9195 0.0
C741 C 0.10087 0.63555 0.90066 0.0
C742 C 0.13744 0.69573 0.98219 0.0
C743 C 0.13991 0.70738 0.94571 0.0
C744 C 0.13092 0.68097 0.96318 0.0
C745 C 0.12676 0.67757 0.90733 0.0
C746 C 0.12936 0.68924 0.87079 0.0
C747 C 0.13586 0.70398 0.88978 0.0
H748 H 0.29011 0.41009 0.93136 0.0
H749 H 0.30005 0.45242 0.00432 0.0
H750 H 0.31539 0.42181 0.89303 0.0
H751 H 0.32536 0.46412 0.96574 0.0
H752 H 0.36241 0.48214 0.83127 0.0
H753 H 0.33698 0.47022 0.86902 0.0
H754 H 0.34194 0.43348 0.92974 0.0
H755 H 0.36731 0.44533 0.89228 0.0
C756 C 0.2977 0.42188 0.93941 0.0
C757 C 0.2931 0.43033 0.97087 0.0
C758 C 0.31218 0.42856 0.91758 0.0
C759 C 0.32228 0.44387 0.92625 0.0
C760 C 0.31772 0.45233 0.95796 0.0
C761 C 0.30329 0.4456 0.98038 0.0
C762 C 0.35803 0.47147 0.85237 0.0
C763 C 0.36685 0.46467 0.85887 0.0
C764 C 0.34354 0.46473 0.87429 0.0
C765 C 0.33755 0.45097 0.90243 0.0
C766 C 0.34626 0.44404 0.90795 0.0
C767 C 0.36079 0.45086 0.88666 0.0
H768 H 0.11498 0.4856 0.33624 0.0
H769 H 0.08111 0.44131 0.28334 0.0
H770 H 0.12945 0.4751 0.37652 0.0
H771 H 0.09549 0.43082 0.32437 0.0
H772 H 0.1325 0.41961 0.3552 0.0
H773 H 0.11911 0.43079 0.31152 0.0
H774 H 0.12732 0.45886 0.45511 0.0
H775 H 0.14095 0.44782 0.4987 0.0
C776 C 0.11064 0.47363 0.33303 0.0
C777 C 0.09688 0.46428 0.30661 0.0
C778 C 0.11889 0.46762 0.35647 0.0
C779 C 0.11358 0.45213 0.35382 0.0
C780 C 0.09995 0.44282 0.3266 0.0
C781 C 0.09168 0.44883 0.30328 0.0
C782 C 0.13149 0.42819 0.37749 0.0
C783 C 0.13776 0.43281 0.4305 0.0
C784 C 0.12375 0.43454 0.35252 0.0
C785 C 0.12212 0.44567 0.37993 0.0
C786 C 0.12852 0.45041 0.43273 0.0
C787 C 0.13625 0.44403 0.45781 0.0
H788 H 0.52975 0.62632 0.45427 0.0
H789 H 0.5214 0.64042 0.2961 0.0
H790 H 0.54235 0.65215 0.48637 0.0
H791 H 0.53394 0.66638 0.32874 0.0
H792 H 0.57356 0.71195 0.38873 0.0
H793 H 0.55972 0.68624 0.35455 0.0
H794 H 0.53636 0.67182 0.51069 0.0
H795 H 0.5503 0.69748 0.54522 0.0
C796 C 0.53055 0.63493 0.42636 0.0
C797 C 0.52459 0.63132 0.37257 0.0
C798 C 0.53769 0.64973 0.44496 0.0
C799 C 0.53909 0.66128 0.41016 0.0
C800 C 0.53313 0.65771 0.35632 0.0
C801 C 0.52589 0.64285 0.33774 0.0
C802 C 0.56544 0.7033 0.41575 0.0
C803 C 0.56309 0.70673 0.46982 0.0
C804 C 0.55745 0.6886 0.39599 0.0
C805 C 0.54699 0.67702 0.42999 0.0
C806 C 0.54449 0.68049 0.48378 0.0
C807 C 0.55243 0.69519 0.50346 0.0
H808 H 0.3779 0.90135 0.43905 0.0
H809 H 0.36074 0.88488 0.27509 0.0
H810 H 0.35238 0.88999 0.47428 0.0
H811 H 0.33517 0.87328 0.31071 0.0
H812 H 0.2927 0.87076 0.38143 0.0
H813 H 0.31822 0.8815 0.34694 0.0
H814 H 0.33033 0.86532 0.49192 0.0
H815 H 0.30479 0.85474 0.52708 0.0
C816 C 0.36868 0.89523 0.41056 0.0
C817 C 0.37134 0.89406 0.35421 0.0
C818 C 0.35406 0.88864 0.43088 0.0
C819 C 0.34178 0.88076 0.39528 0.0
C820 C 0.34443 0.87946 0.33901 0.0
C821 C 0.35906 0.88603 0.31867 0.0
C822 C 0.3008 0.8695 0.40608 0.0
C823 C 0.29673 0.86191 0.45705 0.0
C824 C 0.31539 0.87556 0.38606 0.0
C825 C 0.32626 0.87419 0.41657 0.0
C826 C 0.32223 0.86667 0.46771 0.0
C827 C 0.30759 0.86057 0.48775 0.0
H828 H 0.11255 0.25762 0.7172 0.0
H829 H 0.08597 0.20944 0.73393 0.0
H830 H 0.13006 0.2582 0.78611 0.0
H831 H 0.10367 0.21006 0.80296 0.0
H832 H 0.12824 0.22313 0.97541 0.0
H833 H 0.11123 0.21968 0.89931 0.0
H834 H 0.1489 0.25017 0.79859 0.0
H835 H 0.16592 0.25376 0.87474 0.0
C836 C 0.11047 0.24713 0.73542 0.0
C837 C 0.09784 0.23348 0.7202 0.0
C838 C 0.12058 0.24746 0.77458 0.0
C839 C 0.11828 0.23416 0.79967 0.0
C840 C 0.10568 0.22048 0.78443 0.0
C841 C 0.09558 0.22014 0.74485 0.0
C842 C 0.13292 0.22893 0.93676 0.0
C843 C 0.14842 0.23886 0.93134 0.0
C844 C 0.12317 0.2269 0.8931 0.0
C845 C 0.12873 0.23479 0.84326 0.0
C846 C 0.14429 0.24413 0.83689 0.0
C847 C 0.15404 0.24611 0.88043 0.0
H848 H 0.77258 0.91729 0.93463 0.0
H849 H 0.72753 0.87939 0.94254 0.0
H850 H 0.7773 0.90669 0.85142 0.0
H851 H 0.7321 0.8691 0.85943 0.0
H852 H 0.74933 0.84554 0.75292 0.0
H853 H 0.7467 0.85757 0.835 0.0
H854 H 0.77002 0.90062 0.75322 0.0
H855 H 0.77303 0.88854 0.6708 0.0
C856 C 0.76367 0.90678 0.91841 0.0
C857 C 0.74974 0.8991 0.94542 0.0
C858 C 0.76636 0.90075 0.8707 0.0
C859 C 0.75514 0.88697 0.84927 0.0
C860 C 0.7411 0.87956 0.8756 0.0
C861 C 0.73846 0.88551 0.92315 0.0
C862 C 0.75397 0.85759 0.75233 0.0
C863 C 0.76127 0.86607 0.70513 0.0
C864 C 0.75238 0.86448 0.79936 0.0
C865 C 0.75794 0.88002 0.80032 0.0
C866 C 0.76566 0.88862 0.75377 0.0
C867 C 0.76733 0.88171 0.70655 0.0
H868 H 0.08442 0.86401 0.97481 0.0
H869 H 0.12123 0.85537 0.99161 0.0
H870 H 0.09621 0.87904 0.89209 0.0
H871 H 0.13268 0.86985 0.90863 0.0
H872 H 0.15755 0.90849 0.79245 0.0
H873 H 0.14532 0.89503 0.87666 0.0
H874 H 0.10211 0.8769 0.79691 0.0
H875 H 0.11437 0.89085 0.71294 0.0
C876 C 0.09498 0.86527 0.96074 0.0
C877 C 0.10193 0.85858 0.9899 0.0
C878 C 0.1017 0.8738 0.91322 0.0
C879 C 0.11545 0.87574 0.89386 0.0
C880 C 0.12226 0.8689 0.92295 0.0
C881 C 0.11563 0.86049 0.97045 0.0
C882 C 0.14543 0.90168 0.79288 0.0
C883 C 0.13693 0.90067 0.7459 0.0
C884 C 0.13842 0.89389 0.84112 0.0
C885 C 0.12273 0.88475 0.84345 0.0
C886 C 0.11419 0.88395 0.79675 0.0
C887 C 0.12123 0.89187 0.74851 0.0
H888 H 0.21366 0.08438 0.71934 0.0
H889 H 0.25143 0.1203 0.80474 0.0
H890 H 0.21587 0.10188 0.64679 0.0
H891 H 0.25338 0.13782 0.73314 0.0
H892 H 0.26643 0.15662 0.55713 0.0
H893 H 0.26172 0.14111 0.63835 0.0
H894 H 0.21412 0.12414 0.62145 0.0
H895 H 0.21885 0.13961 0.53857 0.0
C896 C 0.22227 0.09605 0.7231 0.0
C897 C 0.23252 0.10092 0.76729 0.0
C898 C 0.22347 0.1061 0.68172 0.0
C899 C 0.2349 0.12121 0.68393 0.0
C900 C 0.24463 0.12619 0.72969 0.0
C901 C 0.2435 0.11615 0.77079 0.0
C902 C 0.25494 0.1497 0.57083 0.0
C903 C 0.243 0.14929 0.54118 0.0
C904 C 0.25225 0.14088 0.6178 0.0
C905 C 0.23755 0.13141 0.6365 0.0
C906 C 0.22557 0.13125 0.60776 0.0
C907 C 0.22828 0.14016 0.56057 0.0
H908 H 0.83339 0.08066 0.61418 0.0
H909 H 0.87193 0.08791 0.51854 0.0
H910 H 0.84985 0.09478 0.69074 0.0
H911 H 0.88836 0.10228 0.59454 0.0
H912 H 0.9136 0.12034 0.75662 0.0
H913 H 0.89632 0.10211 0.68961 0.0
H914 H 0.86758 0.12138 0.7034 0.0
H915 H 0.8846 0.13933 0.77082 0.0
C916 C 0.84534 0.08509 0.60973 0.0
C917 C 0.85136 0.08331 0.56003 0.0
C918 C 0.85478 0.09327 0.65345 0.0
C919 C 0.87042 0.09984 0.64836 0.0
C920 C 0.87636 0.0973 0.59991 0.0
C921 C 0.86693 0.08911 0.55622 0.0
C922 C 0.90356 0.12064 0.74543 0.0
C923 C 0.9005 0.13131 0.76889 0.0
C924 C 0.89369 0.11022 0.70701 0.0
C925 C 0.88055 0.11025 0.69143 0.0
C926 C 0.87746 0.12086 0.71527 0.0
C927 C 0.88731 0.13126 0.75354 0.0
H928 H 0.8365 0.74083 0.72446 0.0
H929 H 0.87941 0.77203 0.79655 0.0
H930 H 0.849 0.73898 0.64235 0.0
H931 H 0.89205 0.76978 0.7145 0.0
H932 H 0.90764 0.7729 0.53228 0.0
H933 H 0.8962 0.77588 0.61656 0.0
H934 H 0.86392 0.72843 0.61494 0.0
H935 H 0.87495 0.72559 0.53043 0.0
C936 C 0.84863 0.74721 0.72299 0.0
C937 C 0.85696 0.75653 0.76718 0.0
C938 C 0.85582 0.74609 0.67593 0.0
C939 C 0.87155 0.75412 0.67199 0.0
C940 C 0.87991 0.76354 0.71602 0.0
C941 C 0.87268 0.76476 0.76314 0.0
C942 C 0.89811 0.76314 0.55012 0.0
C943 C 0.89209 0.74905 0.52443 0.0
C944 C 0.89161 0.76482 0.59851 0.0
C945 C 0.87904 0.75242 0.6222 0.0
C946 C 0.87335 0.73829 0.59713 0.0
C947 C 0.87973 0.73664 0.54874 0.0
H948 H 0.84522 0.72738 0.01989 0.0
H949 H 0.85153 0.77197 0.0371 0.0
H950 H 0.85939 0.73083 0.10411 0.0
H951 H 0.86619 0.7756 0.1214 0.0
H952 H 0.87818 0.76908 0.30141 0.0
H953 H 0.86392 0.76691 0.21748 0.0
H954 H 0.8849 0.74494 0.13467 0.0
H955 H 0.89873 0.74671 0.21834 0.0
C956 C 0.84972 0.73798 0.04148 0.0
C957 C 0.84732 0.74944 0.02161 0.0
C958 C 0.85793 0.73999 0.08971 0.0
C959 C 0.86406 0.75355 0.11919 0.0
C960 C 0.86153 0.76498 0.09979 0.0
C961 C 0.85321 0.76294 0.05141 0.0
C962 C 0.87974 0.76382 0.26518 0.0
C963 C 0.88946 0.75794 0.26669 0.0
C964 C 0.87164 0.76266 0.21705 0.0
C965 C 0.87317 0.75563 0.16957 0.0
C966 C 0.88321 0.75012 0.17086 0.0
C967 C 0.8912 0.75121 0.21884 0.0
H968 H 0.23496 0.07987 0.07617 0.0
H969 H 0.21936 0.10773 0.00122 0.0
H970 H 0.23585 0.09104 0.16611 0.0
H971 H 0.2208 0.11926 0.09018 0.0
H972 H 0.21784 0.1338 0.26058 0.0
H973 H 0.21164 0.11721 0.18109 0.0
H974 H 0.25178 0.11459 0.20876 0.0
H975 H 0.2576 0.13067 0.28964 0.0
C976 C 0.23156 0.08825 0.07899 0.0
C977 C 0.22722 0.09301 0.03146 0.0
C978 C 0.23219 0.09474 0.13046 0.0
C979 C 0.2286 0.1062 0.13539 0.0
C980 C 0.2235 0.11036 0.08826 0.0
C981 C 0.22274 0.10378 0.03699 0.0
C982 C 0.22526 0.12954 0.24998 0.0
C983 C 0.23829 0.13365 0.28101 0.0
C984 C 0.22173 0.12008 0.20426 0.0
C985 C 0.23127 0.11465 0.18806 0.0
C986 C 0.24405 0.11837 0.22036 0.0
C987 C 0.24747 0.12769 0.26655 0.0
H988 H 0.87808 0.12705 0.30502 0.0
H989 H 0.86686 0.08255 0.25214 0.0
H990 H 0.89168 0.13735 0.21876 0.0
H991 H 0.88087 0.09286 0.1669 0.0
H992 H 0.88459 0.11341 0.99433 0.0
H993 H 0.87596 0.10286 0.08561 0.0
H994 H 0.91269 0.1424 0.15975 0.0
H995 H 0.92113 0.15323 0.06777 0.0
C996 C 0.87879 0.11952 0.27549 0.0
C997 C 0.87122 0.10398 0.2849 0.0
C998 C 0.88667 0.12542 0.22618 0.0
C999 C 0.88722 0.1159 0.18563 0.0
C1000 C 0.88038 0.10046 0.19673 0.0
C1001 C 0.8724 0.09456 0.24566 0.0
C1002 C 0.89097 0.11981 0.02996 0.0
C1003 C 0.90346 0.13422 0.02379 0.0
C1004 C 0.88608 0.11369 0.08245 0.0
C1005 C 0.8936 0.12181 0.13009 0.0
C1006 C 0.90652 0.13596 0.12387 0.0
C1007 C 0.91141 0.14211 0.07119 0.0
H1008 H 0.78382 0.91151 0.23016 0.0
H1009 H 0.73579 0.8856 0.20721 0.0
H1010 H 0.78169 0.89623 0.31083 0.0
H1011 H 0.73375 0.87025 0.28684 0.0
H1012 H 0.73345 0.86032 0.47003 0.0
H1013 H 0.73663 0.87467 0.38639 0.0
H1014 H 0.77498 0.87051 0.34108 0.0
H1015 H 0.77194 0.85622 0.4259 0.0
C1016 C 0.77285 0.90246 0.24191 0.0
C1017 C 0.75996 0.89986 0.21263 0.0
C1018 C 0.77165 0.89367 0.28793 0.0
C1019 C 0.75754 0.88215 0.30549 0.0
C1020 C 0.74474 0.87924 0.27496 0.0
C1021 C 0.74593 0.888 0.22914 0.0
C1022 C 0.74258 0.86244 0.44236 0.0
C1023 C 0.75242 0.85708 0.45453 0.0
C1024 C 0.74434 0.87059 0.39418 0.0
C1025 C 0.75596 0.87359 0.35687 0.0
C1026 C 0.76595 0.86841 0.36922 0.0
C1027 C 0.76417 0.8602 0.41761 0.0
H1028 H 0.1127 0.8882 0.21173 0.0
H1029 H 0.09085 0.84502 0.29296 0.0
H1030 H 0.12659 0.8998 0.29656 0.0
H1031 H 0.10428 0.85663 0.37792 0.0
H1032 H 0.14383 0.87804 0.49519 0.0
H1033 H 0.12924 0.86727 0.41183 0.0
H1034 H 0.12455 0.90643 0.39099 0.0
H1035 H 0.13967 0.9175 0.47411 0.0
C1036 C 0.11075 0.88122 0.24783 0.0
C1037 C 0.10079 0.86568 0.2455 0.0
C1038 C 0.11864 0.88788 0.29655 0.0
C1039 C 0.11664 0.87913 0.34395 0.0
C1040 C 0.10634 0.86366 0.34186 0.0
C1041 C 0.09858 0.857 0.29318 0.0
C1042 C 0.13967 0.88437 0.47303 0.0
C1043 C 0.14289 0.89863 0.49133 0.0
C1044 C 0.1312 0.87813 0.42531 0.0
C1045 C 0.12562 0.88593 0.39485 0.0
C1046 C 0.12881 0.9002 0.41319 0.0
C1047 C 0.13739 0.9065 0.46095 0.0
H1048 H 0.07767 0.22992 0.42949 0.0
H1049 H 0.12282 0.2575 0.49105 0.0
H1050 H 0.08775 0.2272 0.34114 0.0
H1051 H 0.13278 0.25492 0.40332 0.0
H1052 H 0.14664 0.23696 0.26103 0.0
H1053 H 0.13424 0.23571 0.34804 0.0
H1054 H 0.10226 0.24384 0.26149 0.0
H1055 H 0.11457 0.24488 0.17372 0.0
C1056 C 0.08971 0.23531 0.42431 0.0
C1057 C 0.09946 0.24394 0.46717 0.0
C1058 C 0.09547 0.23382 0.37372 0.0
C1059 C 0.11104 0.24082 0.36544 0.0
C1060 C 0.12072 0.24922 0.4087 0.0
C1061 C 0.115 0.25078 0.4589 0.0
C1062 C 0.13689 0.23837 0.26032 0.0
C1063 C 0.13169 0.24119 0.2105 0.0
C1064 C 0.12982 0.23769 0.31026 0.0
C1065 C 0.11739 0.23984 0.31162 0.0
C1066 C 0.11177 0.24205 0.26161 0.0
C1067 C 0.11887 0.24274 0.21145 0.0
H1068 H 0.80318 0.55831 0.29665 0.0
H1069 H 0.81257 0.6041 0.30828 0.0
H1070 H 0.78843 0.55485 0.21287 0.0
H1071 H 0.79833 0.60081 0.22432 0.0
H1072 H 0.75887 0.58612 0.11069 0.0
H1073 H 0.77287 0.58809 0.19415 0.0
H1074 H 0.79064 0.56244 0.11635 0.0
H1075 H 0.77617 0.56005 0.0329 0.0
C1076 C 0.80216 0.56764 0.28119 0.0
C1077 C 0.80894 0.58144 0.30929 0.0
C1078 C 0.79379 0.56569 0.23306 0.0
C1079 C 0.79211 0.57752 0.21211 0.0
C1080 C 0.79911 0.59136 0.23992 0.0
C1081 C 0.80736 0.59327 0.28799 0.0
C1082 C 0.76574 0.58087 0.11127 0.0
C1083 C 0.76647 0.57299 0.06503 0.0
C1084 C 0.77384 0.58207 0.15911 0.0
C1085 C 0.783 0.57555 0.1618 0.0
C1086 C 0.78359 0.56748 0.1158 0.0
C1087 C 0.77537 0.56619 0.0679 0.0
H1088 H 0.41644 0.20894 0.03163 0.0
H1089 H 0.43321 0.18261 0.11124 0.0
H1090 H 0.41825 0.22152 0.1194 0.0
H1091 H 0.43521 0.19532 0.19838 0.0
H1092 H 0.41158 0.2022 0.34886 0.0
H1093 H 0.41543 0.19338 0.26059 0.0
H1094 H 0.43524 0.23829 0.19437 0.0
H1095 H 0.43125 0.24719 0.28333 0.0
C1096 C 0.42076 0.20603 0.06754 0.0
C1097 C 0.42445 0.19462 0.06469 0.0
C1098 C 0.42188 0.2133 0.11771 0.0
C1099 C 0.42672 0.20927 0.16583 0.0
C1100 C 0.43121 0.19847 0.16215 0.0
C1101 C 0.43009 0.19122 0.11216 0.0
C1102 C 0.4169 0.21026 0.31574 0.0
C1103 C 0.42103 0.22537 0.32292 0.0
C1104 C 0.41921 0.20522 0.26524 0.0
C1105 C 0.42565 0.21515 0.22058 0.0
C1106 C 0.43017 0.23037 0.22804 0.0
C1107 C 0.42796 0.23547 0.27896 0.0
H1108 H 0.82177 0.23615 0.16631 0.0
H1109 H 0.77943 0.22696 0.09551 0.0
H1110 H 0.80923 0.22458 0.25264 0.0
H1111 H 0.76683 0.21535 0.18272 0.0
H1112 H 0.75136 0.17778 0.32139 0.0
H1113 H 0.7615 0.19203 0.23605 0.0
H1114 H 0.79586 0.22887 0.33007 0.0
H1115 H 0.78587 0.21466 0.41524 0.0
C1116 C 0.80979 0.23173 0.16927 0.0
C1117 C 0.80158 0.23243 0.12403 0.0
C1118 C 0.80262 0.22521 0.21893 0.0
C1119 C 0.78708 0.21915 0.22446 0.0
C1120 C 0.77883 0.21991 0.17943 0.0
C1121 C 0.78605 0.22659 0.12969 0.0
C1122 C 0.76092 0.18901 0.32395 0.0
C1123 C 0.76795 0.195 0.37498 0.0
C1124 C 0.76668 0.19719 0.2751 0.0
C1125 C 0.77957 0.21146 0.27646 0.0
C1126 C 0.78605 0.21778 0.3278 0.0
C1127 C 0.78028 0.20965 0.37656 0.0
H1128 H 0.89771 0.48689 0.87733 0.0
H1129 H 0.92845 0.47207 0.82631 0.0
H1130 H 0.89381 0.4736 0.96544 0.0
H1131 H 0.92469 0.45908 0.91372 0.0
H1132 H 0.90358 0.42472 0.04747 0.0
H1133 H 0.9045 0.43714 0.9609 0.0
H1134 H 0.90859 0.47521 0.05121 0.0
H1135 H 0.90745 0.46264 0.1386 0.0
C1136 C 0.90359 0.48079 0.88483 0.0
C1137 C 0.91336 0.4805 0.84483 0.0
C1138 C 0.90142 0.47327 0.93529 0.0
C1139 C 0.90888 0.46524 0.94625 0.0
C1140 C 0.9186 0.46497 0.90613 0.0
C1141 C 0.92082 0.4725 0.8561 0.0
C1142 C 0.90458 0.4357 0.04909 0.0
C1143 C 0.90561 0.44276 0.09997 0.0
C1144 C 0.90515 0.44283 -0.00059 0.0
C1145 C 0.90678 0.45721 -0.00069 0.0
C1146 C 0.90725 0.46409 0.0501 0.0
C1147 C 0.90669 0.45693 0.10006 0.0
H1148 H 0.55056 0.48127 0.07495 0.0
H1149 H 0.5727 0.45496 0.07478 0.0
H1150 H 0.5367 0.46822 0.99227 0.0
H1151 H 0.55895 0.44205 0.99116 0.0
H1152 H 0.51931 0.41243 0.87273 0.0
H1153 H 0.53335 0.42441 0.95714 0.0
H1154 H 0.54253 0.46753 0.89488 0.0
H1155 H 0.52839 0.45563 0.81145 0.0
C1156 C 0.55247 0.47269 0.05729 0.0
C1157 C 0.56279 0.46921 0.08128 0.0
C1158 C 0.54459 0.46528 0.00969 0.0
C1159 C 0.54685 0.45421 0.98489 0.0
C1160 C 0.55692 0.45047 0.00952 0.0
C1161 C 0.56483 0.45791 0.05725 0.0
C1162 C 0.52441 0.42447 0.87702 0.0
C1163 C 0.52265 0.43306 0.83561 0.0
C1164 C 0.53248 0.43133 0.92524 0.0
C1165 C 0.5389 0.44689 0.93288 0.0
C1166 C 0.53745 0.45548 0.89073 0.0
C1167 C 0.52942 0.44866 0.84272 0.0
H1168 H 0.54295 0.08661 0.80253 0.0
H1169 H 0.58191 0.09502 0.89799 0.0
H1170 H 0.53201 0.09124 0.88448 0.0
H1171 H 0.57077 0.09945 0.98041 0.0
H1172 H 0.53245 0.08204 0.11717 0.0
H1173 H 0.54656 0.08137 0.03699 0.0
H1174 H 0.53789 0.11324 0.95261 0.0
H1175 H 0.52392 0.11411 0.03309 0.0
C1176 C 0.5492 0.08952 0.84098 0.0
C1177 C 0.56324 0.09039 0.84403 0.0
C1178 C 0.54298 0.09227 0.8877 0.0
C1179 C 0.55057 0.09569 0.93858 0.0
C1180 C 0.56471 0.09678 0.94158 0.0
C1181 C 0.57107 0.0943 0.8945 0.0
C1182 C 0.53368 0.08902 0.08172 0.0
C1183 C 0.52703 0.09807 0.08122 0.0
C1184 C 0.54183 0.0887 0.03609 0.0
C1185 C 0.54327 0.09725 0.9888 0.0
C1186 C 0.53687 0.10652 0.98862 0.0
C1187 C 0.52894 0.10703 0.03465 0.0
H1188 H 0.52815 0.11042 0.37264 0.0
H1189 H 0.52881 0.06911 0.34976 0.0
H1190 H 0.54429 0.11612 0.45411 0.0
H1191 H 0.54432 0.07448 0.43128 0.0
H1192 H 0.58214 0.09183 0.54796 0.0
H1193 H 0.56907 0.09061 0.46263 0.0
H1194 H 0.54406 0.10794 0.54831 0.0
H1195 H 0.55772 0.10977 0.63349 0.0
C1196 C 0.5317 0.10256 0.38508 0.0
C1197 C 0.52729 0.08936 0.35463 0.0
C1198 C 0.54089 0.10579 0.43179 0.0
C1199 C 0.54575 0.09585 0.44891 0.0
C1200 C 0.54115 0.08261 0.41855 0.0
C1201 C 0.53212 0.07945 0.37192 0.0
C1202 C 0.574 0.09557 0.54838 0.0
C1203 C 0.5708 0.10072 0.59742 0.0
C1204 C 0.56643 0.09479 0.49958 0.0
C1205 C 0.55527 0.09886 0.49887 0.0
C1206 C 0.55262 0.10476 0.54733 0.0
C1207 C 0.5604 0.10577 0.59617 0.0
H1208 H 0.8861 0.42835 0.3357 0.0
H1209 H 0.91314 0.41612 0.43594 0.0
H1210 H 0.88436 0.44264 0.41295 0.0
H1211 H 0.91126 0.43031 0.51323 0.0
H1212 H 0.92393 0.47575 0.59604 0.0
H1213 H 0.92232 0.45772 0.52733 0.0
H1214 H 0.87485 0.44118 0.50915 0.0
H1215 H 0.87645 0.45935 0.57791 0.0
C1216 C 0.89144 0.42848 0.3745 0.0
C1217 C 0.89991 0.42125 0.37947 0.0
C1218 C 0.89038 0.43661 0.41882 0.0
C1219 C 0.89782 0.43772 0.46888 0.0
C1220 C 0.90562 0.42984 0.4748 0.0
C1221 C 0.90661 0.42164 0.4306 0.0
C1222 C 0.91312 0.46824 0.57763 0.0
C1223 C 0.90033 0.46903 0.59221 0.0
C1224 C 0.91218 0.45782 0.5386 0.0
C1225 C 0.89844 0.44801 0.51304 0.0
C1226 C 0.8856 0.44867 0.528 0.0
C1227 C 0.88651 0.45904 0.56743 0.0
H1228 H 0.54874 0.43895 0.61742 0.0
H1229 H 0.5052 0.41921 0.53933 0.0
H1230 H 0.56025 0.45355 0.53379 0.0
H1231 H 0.5167 0.43332 0.45543 0.0
H1232 H 0.5381 0.47438 0.34625 0.0
H1233 H 0.52766 0.45879 0.42757 0.0
H1234 H 0.56631 0.45286 0.43732 0.0
H1235 H 0.57707 0.46901 0.35623 0.0
C1236 C 0.54166 0.43757 0.58213 0.0
C1237 C 0.52605 0.42808 0.58514 0.0
C1238 C 0.54826 0.44587 0.53412 0.0
C1239 C 0.53938 0.44474 0.48812 0.0
C1240 C 0.52383 0.43474 0.49055 0.0
C1241 C 0.51724 0.42659 0.53858 0.0
C1242 C 0.54439 0.46975 0.36555 0.0
C1243 C 0.5584 0.47289 0.34468 0.0
C1244 C 0.53834 0.4607 0.41206 0.0
C1245 C 0.54606 0.45442 0.43868 0.0
C1246 C 0.56013 0.45761 0.41801 0.0
C1247 C 0.56626 0.46679 0.37146 0.0
H1248 H 0.40129 0.21105 0.57757 0.0
H1249 H 0.44974 0.23381 0.57785 0.0
H1250 H 0.40058 0.1937 0.64752 0.0
H1251 H 0.44898 0.21626 0.64772 0.0
H1252 H 0.43896 0.19431 0.82396 0.0
H1253 H 0.44182 0.21073 0.74655 0.0
H1254 H 0.40621 0.17322 0.65917 0.0
H1255 H 0.4032 0.1568 0.7368 0.0
C1256 C 0.4118 0.21232 0.59237 0.0
C1257 C 0.42558 0.22384 0.57228 0.0
C1258 C 0.41138 0.20229 0.63213 0.0
C1259 C 0.42472 0.20357 0.65289 0.0
C1260 C 0.43852 0.21506 0.6327 0.0
C1261 C 0.43894 0.22507 0.59262 0.0
C1262 C 0.43188 0.18951 0.78793 0.0
C1263 C 0.42075 0.17428 0.78677 0.0
C1264 C 0.43357 0.19891 0.74348 0.0
C1265 C 0.42413 0.19328 0.69707 0.0
C1266 C 0.41348 0.17791 0.69482 0.0
C1267 C 0.41182 0.1685 0.73916 0.0
H1268 H 0.77766 0.17492 0.63639 0.0
H1269 H 0.75275 0.1985 0.64062 0.0
H1270 H 0.79092 0.18786 0.72015 0.0
H1271 H 0.76607 0.21143 0.72509 0.0
H1272 H 0.8071 0.24281 0.83875 0.0
H1273 H 0.79251 0.23036 0.75574 0.0
H1274 H 0.78423 0.18767 0.81927 0.0
H1275 H 0.79878 0.19999 0.90159 0.0
C1276 C 0.775 0.18286 0.6552 0.0
C1277 C 0.76412 0.18565 0.63197 0.0
C1278 C 0.78254 0.19021 0.70336 0.0
C1279 C 0.77944 0.20057 0.72927 0.0
C1280 C 0.76871 0.20354 0.70575 0.0
C1281 C 0.76106 0.19609 0.65763 0.0
C1282 C 0.80207 0.23076 0.83509 0.0
C1283 C 0.8042 0.2224 0.87649 0.0
C1284 C 0.79368 0.22364 0.78774 0.0
C1285 C 0.78738 0.20808 0.78092 0.0
C1286 C 0.78917 0.19972 0.82305 0.0
C1287 C 0.79745 0.20678 0.87033 0.0
H1288 H 0.74812 0.55783 0.79621 0.0
H1289 H 0.7841 0.60378 0.80888 0.0
H1290 H 0.75965 0.55464 0.71264 0.0
H1291 H 0.79528 0.60076 0.72511 0.0
H1292 H 0.82054 0.58668 0.61147 0.0
H1293 H 0.80833 0.58837 0.69486 0.0
H1294 H 0.76506 0.56236 0.61637 0.0
H1295 H 0.77733 0.56026 0.53303 0.0
C1296 C 0.75843 0.56726 0.78101 0.0
C1297 C 0.76525 0.58102 0.80933 0.0
C1298 C 0.76498 0.56546 0.73301 0.0
C1299 C 0.77845 0.57742 0.7124 0.0
C1300 C 0.78509 0.59122 0.74045 0.0
C1301 C 0.77862 0.59297 0.7884 0.0
C1302 C 0.80842 0.5813 0.6119 0.0
C1303 C 0.79991 0.57341 0.56549 0.0
C1304 C 0.80141 0.58233 0.65969 0.0
C1305 C 0.78572 0.57562 0.66216 0.0
C1306 C 0.77717 0.56754 0.616 0.0
C1307 C 0.7842 0.56641 0.56815 0.0
H1308 H 0.42333 0.88671 0.3805 0.0
H1309 H 0.46483 0.92873 0.36378 0.0
H1310 H 0.43371 0.88002 0.45876 0.0
H1311 H 0.47503 0.92235 0.4435 0.0
H1312 H 0.49344 0.90498 0.57231 0.0
H1313 H 0.48375 0.90683 0.48233 0.0
H1314 H 0.43925 0.88759 0.55215 0.0
H1315 H 0.44881 0.88523 0.64108 0.0
C1316 C 0.4347 0.89451 0.39352 0.0
C1317 C 0.44323 0.90831 0.36636 0.0
C1318 C 0.44062 0.8907 0.43854 0.0
C1319 C 0.45515 0.90069 0.45789 0.0
C1320 C 0.46387 0.91428 0.42936 0.0
C1321 C 0.45799 0.91801 0.38386 0.0
C1322 C 0.48153 0.90087 0.56807 0.0
C1323 C 0.47191 0.89508 0.61394 0.0
C1324 C 0.476 0.90204 0.51661 0.0
C1325 C 0.46075 0.89755 0.51006 0.0
C1326 C 0.45102 0.89102 0.55534 0.0
C1327 C 0.45653 0.88973 0.60658 0.0
H1328 H 0.10655 0.58326 0.6065 0.0
H1329 H 0.07261 0.54015 0.66901 0.0
H1330 H 0.10852 0.5711 0.52235 0.0
H1331 H 0.07476 0.52811 0.58596 0.0
H1332 H 0.06826 0.51408 0.40666 0.0
H1333 H 0.06789 0.52746 0.4889 0.0
H1334 H 0.1163 0.55317 0.48807 0.0
H1335 H 0.11671 0.5399 0.40471 0.0
C1336 C 0.09963 0.5712 0.60253 0.0
C1337 C 0.08932 0.56269 0.64415 0.0
C1338 C 0.1008 0.56425 0.55449 0.0
C1339 C 0.09166 0.54868 0.54729 0.0
C1340 C 0.08172 0.54016 0.58975 0.0
C1341 C 0.08055 0.54708 0.63753 0.0
C1342 C 0.07885 0.52262 0.42377 0.0
C1343 C 0.09253 0.52586 0.39933 0.0
C1344 C 0.07863 0.53023 0.47113 0.0
C1345 C 0.09208 0.54124 0.49532 0.0
C1346 C 0.10576 0.54478 0.47019 0.0
C1347 C 0.10599 0.53713 0.42264 0.0
H1348 H 0.45651 0.52148 0.66319 0.0
H1349 H 0.41559 0.52282 0.63905 0.0
H1350 H 0.46689 0.53609 0.57963 0.0
H1351 H 0.42623 0.53793 0.55553 0.0
H1352 H 0.44516 0.55004 0.37637 0.0
H1353 H 0.43366 0.53614 0.46135 0.0
H1354 H 0.47622 0.56099 0.54567 0.0
H1355 H 0.48774 0.57447 0.46077 0.0
C1356 C 0.44976 0.52501 0.64029 0.0
C1357 C 0.43523 0.52101 0.65787 0.0
C1358 C 0.45576 0.53349 0.59244 0.0
C1359 C 0.44745 0.5383 0.56106 0.0
C1360 C 0.43288 0.5343 0.57854 0.0
C1361 C 0.42682 0.52572 0.6265 0.0
C1362 C 0.45202 0.55256 0.41317 0.0
C1363 C 0.46739 0.56324 0.4117 0.0
C1364 C 0.44542 0.54466 0.46194 0.0
C1365 C 0.45405 0.54735 0.51018 0.0
C1366 C 0.46931 0.55839 0.50897 0.0
C1367 C 0.47591 0.56618 0.4603 0.0
H1368 H 0.6035 0.82146 0.21222 0.0
H1369 H 0.55645 0.8081 0.21067 0.0
H1370 H 0.5994 0.80551 0.29173 0.0
H1371 H 0.5524 0.79226 0.2918 0.0
H1372 H 0.5499 0.75194 0.39011 0.0
H1373 H 0.5524 0.76908 0.31562 0.0
H1374 H 0.59358 0.80361 0.38885 0.0
H1375 H 0.5913 0.78642 0.46222 0.0
C1376 C 0.59228 0.81523 0.22921 0.0
C1377 C 0.58029 0.81604 0.20504 0.0
C1378 C 0.58996 0.80615 0.27515 0.0
C1379 C 0.57559 0.79767 0.29832 0.0
C1380 C 0.56358 0.79857 0.27458 0.0
C1381 C 0.56592 0.8077 0.22836 0.0
C1382 C 0.55942 0.76323 0.39046 0.0
C1383 C 0.5705 0.76777 0.43164 0.0
C1384 C 0.5608 0.77307 0.34798 0.0
C1385 C 0.57326 0.78766 0.34606 0.0
C1386 C 0.58401 0.79235 0.38853 0.0
C1387 C 0.58267 0.7825 0.4307 0.0
H1388 H 0.24041 0.82636 0.36569 0.0
H1389 H 0.22039 0.78286 0.44414 0.0
H1390 H 0.22687 0.8148 0.28091 0.0
H1391 H 0.20629 0.77126 0.35955 0.0
H1392 H 0.19196 0.75432 0.18134 0.0
H1393 H 0.20755 0.76513 0.26377 0.0
H1394 H 0.20174 0.80381 0.25024 0.0
H1395 H 0.18677 0.79335 0.16763 0.0
C1396 C 0.23305 0.8143 0.36485 0.0
C1397 C 0.23134 0.80552 0.41171 0.0
C1398 C 0.22523 0.80768 0.3163 0.0
C1399 C 0.21531 0.79212 0.31363 0.0
C1400 C 0.21392 0.78326 0.36006 0.0
C1401 C 0.22192 0.7899 0.4086 0.0
C1402 C 0.19411 0.76516 0.19601 0.0
C1403 C 0.18823 0.77303 0.16782 0.0
C1404 C 0.20296 0.77132 0.24333 0.0
C1405 C 0.20601 0.7854 0.26339 0.0
C1406 C 0.19995 0.79312 0.23529 0.0
C1407 C 0.19126 0.78706 0.18799 0.0
H1408 H 0.23731 0.44408 0.1622 0.0
H1409 H 0.24737 0.41553 0.26315 0.0
H1410 H 0.22368 0.44696 0.23928 0.0
H1411 H 0.23386 0.41856 0.34032 0.0
H1412 H 0.18927 0.40856 0.42322 0.0
H1413 H 0.20674 0.40898 0.35457 0.0
H1414 H 0.22562 0.45679 0.33504 0.0
H1415 H 0.20799 0.45639 0.40376 0.0
C1416 C 0.23685 0.43864 0.20112 0.0
C1417 C 0.24326 0.42942 0.20634 0.0
C1418 C 0.2291 0.44035 0.24535 0.0
C1419 C 0.22756 0.43284 0.29558 0.0
C1420 C 0.23466 0.42428 0.30175 0.0
C1421 C 0.24247 0.42262 0.25762 0.0
C1422 C 0.19718 0.41919 0.40452 0.0
C1423 C 0.1972 0.43244 0.41874 0.0
C1424 C 0.20728 0.41945 0.36553 0.0
C1425 C 0.2176 0.43293 0.33964 0.0
C1426 C 0.21774 0.44622 0.35417 0.0
C1427 C 0.20767 0.44599 0.39357 0.0
H1428 H 0.24268 0.43125 0.87591 0.0
H1429 H 0.20245 0.42241 0.96347 0.0
H1430 H 0.23129 0.43221 0.78898 0.0
H1431 H 0.19095 0.42314 0.87582 0.0
H1432 H 0.17917 0.43575 0.70713 0.0
H1433 H 0.19232 0.43927 0.79537 0.0
H1434 H 0.21088 0.41251 0.73457 0.0
H1435 H 0.19803 0.40915 0.64711 0.0
C1436 C 0.23142 0.42959 0.87669 0.0
C1437 C 0.22339 0.42655 0.92653 0.0
C1438 C 0.2249 0.43011 0.82682 0.0
C1439 C 0.21017 0.42758 0.82554 0.0
C1440 C 0.20235 0.42522 0.87561 0.0
C1441 C 0.20891 0.42471 0.92571 0.0
C1442 C 0.18618 0.43075 0.71261 0.0
C1443 C 0.18755 0.42216 0.67024 0.0
C1444 C 0.19362 0.4327 0.76312 0.0
C1445 C 0.20267 0.42621 0.77174 0.0
C1446 C 0.20419 0.41785 0.72893 0.0
C1447 C 0.19672 0.41583 0.67887 0.0
H1448 H 0.55688 0.80588 0.92006 0.0
H1449 H 0.59746 0.80435 0.95066 0.0
H1450 H 0.55151 0.78957 0.84009 0.0
H1451 H 0.59236 0.78846 0.86966 0.0
H1452 H 0.57502 0.75177 0.74306 0.0
H1453 H 0.57636 0.76414 0.83064 0.0
H1454 H 0.56106 0.79141 0.74879 0.0
H1455 H 0.55925 0.77874 0.66195 0.0
C1456 C 0.56467 0.80207 0.90967 0.0
C1457 C 0.57764 0.80648 0.94149 0.0
C1458 C 0.56161 0.79276 0.8637 0.0
C1459 C 0.57153 0.78774 0.84824 0.0
C1460 C 0.58436 0.79192 0.8808 0.0
C1461 C 0.58735 0.80114 0.92703 0.0
C1462 C 0.5717 0.76023 0.74401 0.0
C1463 C 0.56713 0.76434 0.69544 0.0
C1464 C 0.57259 0.76741 0.79412 0.0
C1465 C 0.56899 0.7789 0.79668 0.0
C1466 C 0.56377 0.78252 0.74856 0.0
C1467 C 0.5628 0.77528 0.69858 0.0
H1468 H 0.20609 0.7593 0.89987 0.0
H1469 H 0.17903 0.78063 0.90052 0.0
H1470 H 0.21881 0.77322 0.81631 0.0
H1471 H 0.19191 0.79468 0.81803 0.0
H1472 H 0.2046 0.80367 0.63777 0.0
H1473 H 0.1928 0.78922 0.72071 0.0
H1474 H 0.23609 0.79886 0.78274 0.0
H1475 H 0.24796 0.81318 0.69878 0.0
C1476 C 0.20294 0.76703 0.88246 0.0
C1477 C 0.19149 0.76879 0.9066 0.0
C1478 C 0.21027 0.77504 0.83476 0.0
C1479 C 0.20627 0.78494 0.81035 0.0
C1480 C 0.19504 0.78691 0.83524 0.0
C1481 C 0.18772 0.77892 0.88275 0.0
C1482 C 0.21163 0.80268 0.66891 0.0
C1483 C 0.22723 0.80966 0.66187 0.0
C1484 C 0.20486 0.79447 0.71663 0.0
C1485 C 0.21353 0.79306 0.75856 0.0
C1486 C 0.22911 0.7997 0.751 0.0
C1487 C 0.2359 0.80793 0.70305 0.0
H1488 H 0.08342 0.57395 0.93801 0.0
H1489 H 0.10819 0.5548 0.86329 0.0
H1490 H 0.07982 0.55924 0.02106 0.0
H1491 H 0.10414 0.53961 0.94616 0.0
H1492 H 0.10437 0.52416 0.12514 0.0
H1493 H 0.11012 0.54018 0.04358 0.0
H1494 H 0.06523 0.53358 0.04735 0.0
H1495 H 0.05969 0.51807 0.12929 0.0
C1496 C 0.08807 0.56656 0.93929 0.0
C1497 C 0.09599 0.56544 0.89394 0.0
C1498 C 0.08594 0.55805 0.98683 0.0
C1499 C 0.09151 0.54808 0.99 0.0
C1500 C 0.09979 0.54726 0.9452 0.0
C1501 C 0.10205 0.5559 0.89765 0.0
C1502 C 0.09576 0.52616 0.10845 0.0
C1503 C 0.08162 0.51994 0.13382 0.0
C1504 C 0.09903 0.53528 0.06162 0.0
C1505 C 0.08817 0.53827 0.03921 0.0
C1506 C 0.07397 0.53181 0.06423 0.0
C1507 C 0.07076 0.52282 0.11108 0.0
H1508 H 0.42621 0.50722 0.95991 0.0
H1509 H 0.44409 0.55018 0.87859 0.0
H1510 H 0.43966 0.51964 0.04388 0.0
H1511 H 0.45803 0.56265 0.96243 0.0
H1512 H 0.47069 0.58058 0.1407 0.0
H1513 H 0.45585 0.56878 0.05757 0.0
H1514 H 0.4649 0.53226 0.07551 0.0
H1515 H 0.47921 0.54372 0.15881 0.0
C1516 C 0.43308 0.51933 0.95989 0.0
C1517 C 0.43417 0.52771 0.91247 0.0
C1518 C 0.44086 0.52646 0.008 0.0
C1519 C 0.45007 0.54214 0.00977 0.0
C1520 C 0.45093 0.55057 0.96265 0.0
C1521 C 0.44302 0.54342 0.91451 0.0
C1522 C 0.46946 0.57002 0.12681 0.0
C1523 C 0.47604 0.56304 0.1565 0.0
C1524 C 0.46102 0.56329 0.07907 0.0
C1525 C 0.45908 0.54951 0.06008 0.0
C1526 C 0.46586 0.54269 0.08957 0.0
C1527 C 0.47416 0.54933 0.13726 0.0
H1528 H 0.46696 0.91892 0.8407 0.0
H1529 H 0.46238 0.87966 0.92381 0.0
H1530 H 0.45207 0.9218 0.91271 0.0
H1531 H 0.44779 0.88279 0.99676 0.0
H1532 H 0.41504 0.88821 0.10722 0.0
H1533 H 0.42473 0.88277 0.02315 0.0
H1534 H 0.45773 0.9298 0.00783 0.0
H1535 H 0.44795 0.93523 0.09038 0.0
C1536 C 0.46269 0.91084 0.87417 0.0
C1537 C 0.46602 0.89919 0.87702 0.0
C1538 C 0.45419 0.91252 0.9155 0.0
C1539 C 0.44893 0.90265 0.96083 0.0
C1540 C 0.45159 0.89052 0.96219 0.0
C1541 C 0.46003 0.88878 0.92056 0.0
C1542 C 0.42423 0.89738 0.08536 0.0
C1543 C 0.43078 0.91213 0.10557 0.0
C1544 C 0.42982 0.89426 0.03746 0.0
C1545 C 0.44199 0.90585 0.00883 0.0
C1546 C 0.44819 0.92063 0.02832 0.0
C1547 C 0.44265 0.92373 0.07602 0.0
H1548 H 0.21559 0.36479 0.95706 0.0
H1549 H 0.23723 0.37629 0.11715 0.0
H1550 H 0.20351 0.33828 0.98097 0.0
H1551 H 0.22534 0.34975 0.14062 0.0
H1552 H 0.18683 0.3025 0.18523 0.0
H1553 H 0.20032 0.32905 0.16148 0.0
H1554 H 0.20903 0.31819 0.99798 0.0
H1555 H 0.19529 0.2916 0.02132 0.0
C1556 C 0.21786 0.36167 0.9972 0.0
C1557 C 0.22734 0.37266 0.03524 0.0
C1558 C 0.211 0.34646 0.01078 0.0
C1559 C 0.21346 0.3419 0.06272 0.0
C1560 C 0.22307 0.3529 0.10053 0.0
C1561 C 0.22994 0.36811 0.08694 0.0
C1562 C 0.19168 0.30577 0.14429 0.0
C1563 C 0.18993 0.29492 0.10511 0.0
C1564 C 0.19949 0.321 0.13079 0.0
C1565 C 0.20572 0.32574 0.07779 0.0
C1566 C 0.20418 0.3149 0.03891 0.0
C1567 C 0.19638 0.29966 0.05242 0.0
H1568 H 0.706 0.91539 0.01632 0.0
H1569 H 0.69354 0.89453 0.1776 0.0
H1570 H 0.67955 0.90491 0.99305 0.0
H1571 H 0.66722 0.88381 0.15391 0.0
H1572 H 0.62107 0.87448 0.1148 0.0
H1573 H 0.64768 0.88952 0.13571 0.0
H1574 H 0.65835 0.88032 0.97261 0.0
H1575 H 0.63167 0.86558 0.9511 0.0
C1576 C 0.69764 0.90866 0.04694 0.0
C1577 C 0.70187 0.90574 0.09876 0.0
C1578 C 0.68248 0.90259 0.03346 0.0
C1579 C 0.67127 0.89348 0.07152 0.0
C1580 C 0.67555 0.89094 0.12387 0.0
C1581 C 0.69067 0.89702 0.13736 0.0
C1582 C 0.62909 0.87581 0.08311 0.0
C1583 C 0.62427 0.86871 0.03145 0.0
C1584 C 0.64435 0.88437 0.09523 0.0
C1585 C 0.65515 0.88597 0.05612 0.0
C1586 C 0.65033 0.87942 0.00354 0.0
C1587 C 0.63504 0.87091 0.99127 0.0
H1588 H 0.10526 0.7456 0.99618 0.0
H1589 H 0.13948 0.77026 0.11882 0.0
H1590 H 0.09198 0.75861 0.02513 0.0
H1591 H 0.12654 0.78344 0.1464 0.0
H1592 H 0.09568 0.79793 0.21499 0.0
H1593 H 0.10474 0.78083 0.19145 0.0
H1594 H 0.09539 0.78359 0.01876 0.0
H1595 H 0.08589 0.80032 0.04256 0.0
C1596 C 0.10991 0.75372 0.02942 0.0
C1597 C 0.12345 0.75692 0.05503 0.0
C1598 C 0.10235 0.76123 0.0458 0.0
C1599 C 0.1082 0.77208 0.08808 0.0
C1600 C 0.12156 0.77499 0.11437 0.0
C1601 C 0.12906 0.76749 0.09819 0.0
C1602 C 0.09543 0.79477 0.17206 0.0
C1603 C 0.09021 0.80059 0.13058 0.0
C1604 C 0.10067 0.78502 0.15853 0.0
C1605 C 0.10095 0.78096 0.10313 0.0
C1606 C 0.0952 0.78635 0.06189 0.0
C1607 C 0.08985 0.79603 0.0755 0.0
H1608 H 0.29768 0.19035 0.2893 0.0
H1609 H 0.28598 0.20226 0.44559 0.0
H1610 H 0.32404 0.20347 0.31662 0.0
H1611 H 0.31228 0.21549 0.47236 0.0
H1612 H 0.35584 0.21698 0.52852 0.0
H1613 H 0.33007 0.20719 0.49796 0.0
H1614 H 0.3459 0.22836 0.33872 0.0
H1615 H 0.37177 0.23805 0.36905 0.0
C1616 C 0.30074 0.19596 0.32905 0.0
C1617 C 0.28971 0.19513 0.36545 0.0
C1618 C 0.31585 0.20352 0.34461 0.0
C1619 C 0.32021 0.21038 0.39689 0.0
C1620 C 0.30924 0.21009 0.43222 0.0
C1621 C 0.29417 0.20257 0.41668 0.0
C1622 C 0.35385 0.21964 0.48712 0.0
C1623 C 0.36585 0.22825 0.45119 0.0
C1624 C 0.33908 0.2141 0.46971 0.0
C1625 C 0.33596 0.21701 0.41592 0.0
C1626 C 0.34796 0.22582 0.38022 0.0
C1627 C 0.36276 0.23143 0.39774 0.0
H1628 H 0.79701 0.15925 0.39484 0.0
H1629 H 0.75898 0.12012 0.46513 0.0
H1630 H 0.80863 0.14431 0.3725 0.0
H1631 H 0.7706 0.10512 0.44214 0.0
H1632 H 0.80591 0.08966 0.45447 0.0
H1633 H 0.79265 0.10331 0.47263 0.0
H1634 H 0.80515 0.12373 0.31082 0.0
H1635 H 0.81856 0.11023 0.29275 0.0
C1636 C 0.79109 0.14744 0.40529 0.0
C1637 C 0.77709 0.14089 0.43192 0.0
C1638 C 0.79771 0.13886 0.39213 0.0
C1639 C 0.79052 0.12354 0.4055 0.0
C1640 C 0.77647 0.11693 0.43179 0.0
C1641 C 0.76979 0.12551 0.4447 0.0
C1642 C 0.80577 0.097 0.42262 0.0
C1643 C 0.81336 0.09891 0.37226 0.0
C1644 C 0.79809 0.10474 0.43293 0.0
C1645 C 0.7979 0.11463 0.39323 0.0
C1646 C 0.80526 0.11633 0.34249 0.0
C1647 C 0.81288 0.10853 0.33206 0.0
H1648 H 0.91299 0.70894 0.45251 0.0
H1649 H 0.88686 0.69419 0.30195 0.0
H1650 H 0.90373 0.68287 0.47868 0.0
H1651 H 0.87736 0.66824 0.32868 0.0
H1652 H 0.86919 0.62258 0.37044 0.0
H1653 H 0.8836 0.64885 0.34331 0.0
H1654 H 0.88006 0.66212 0.50978 0.0
H1655 H 0.866 0.63587 0.53728 0.0
C1656 C 0.90536 0.70015 0.4248 0.0
C1657 C 0.90059 0.70364 0.37529 0.0
C1658 C 0.9 0.68521 0.43996 0.0
C1659 C 0.88976 0.67346 0.40592 0.0
C1660 C 0.8854 0.677 0.35555 0.0
C1661 C 0.89077 0.69191 0.34037 0.0
C1662 C 0.87167 0.63111 0.40147 0.0
C1663 C 0.86631 0.62714 0.4559 0.0
C1664 C 0.87986 0.64616 0.38582 0.0
C1665 C 0.88283 0.65759 0.42417 0.0
C1666 C 0.87809 0.65362 0.47928 0.0
C1667 C 0.86995 0.63855 0.495 0.0
H1668 H 0.78564 0.70755 0.95793 0.0
H1669 H 0.79237 0.69377 0.79658 0.0
H1670 H 0.77028 0.68134 0.98492 0.0
H1671 H 0.77746 0.66764 0.82406 0.0
H1672 H 0.74304 0.62119 0.87432 0.0
H1673 H 0.75328 0.64734 0.8477 0.0
H1674 H 0.77469 0.66129 0.00767 0.0
H1675 H 0.76404 0.63518 0.03484 0.0
C1676 C 0.78376 0.69893 0.9281 0.0
C1677 C 0.79032 0.70274 0.87525 0.0
C1678 C 0.77503 0.6839 0.94368 0.0
C1679 C 0.77273 0.67236 0.90689 0.0
C1680 C 0.77882 0.67621 0.85329 0.0
C1681 C 0.78746 0.69122 0.83758 0.0
C1682 C 0.74977 0.62985 0.90405 0.0
C1683 C 0.75283 0.62612 0.95654 0.0
C1684 C 0.75571 0.64484 0.88867 0.0
C1685 C 0.76494 0.65645 0.9253 0.0
C1686 C 0.76749 0.65267 0.9786 0.0
C1687 C 0.76146 0.63767 0.99411 0.0
H1688 H 0.36476 0.14223 0.06625 0.0
H1689 H 0.36944 0.1311 0.8977 0.0
H1690 H 0.3377 0.13018 0.05377 0.0
H1691 H 0.34238 0.11926 0.88505 0.0
H1692 H 0.29163 0.08755 0.89899 0.0
H1693 H 0.31842 0.09776 0.91496 0.0
H1694 H 0.32041 0.13538 0.00182 0.0
H1695 H 0.29367 0.12512 0.9867 0.0
C1696 C 0.36002 0.13717 0.02659 0.0
C1697 C 0.36927 0.13769 0.9829 0.0
C1698 C 0.34452 0.13034 0.01936 0.0
C1699 C 0.3379 0.12385 0.96832 0.0
C1700 C 0.34711 0.12404 0.92503 0.0
C1701 C 0.36263 0.1309 0.93222 0.0
C1702 C 0.29778 0.09798 0.92164 0.0
C1703 C 0.29051 0.10553 0.94154 0.0
C1704 C 0.31314 0.10385 0.93055 0.0
C1705 C 0.32153 0.11736 0.95973 0.0
C1706 C 0.31422 0.12484 0.97988 0.0
C1707 C 0.2989 0.11901 0.97086 0.0
H1708 H 0.91233 0.2052 0.90703 0.0
H1709 H 0.87262 0.16629 0.96971 0.0
H1710 H 0.90175 0.221 0.93285 0.0
H1711 H 0.86211 0.18202 0.99499 0.0
H1712 H 0.85461 0.216 0.08647 0.0
H1713 H 0.8673 0.20211 0.06314 0.0
H1714 H 0.8802 0.2246 0.90499 0.0
H1715 H 0.86759 0.23863 0.92837 0.0
C1716 C 0.90136 0.20003 0.92621 0.0
C1717 C 0.89332 0.1845 0.93641 0.0
C1718 C 0.89529 0.20906 0.94078 0.0
C1719 C 0.88116 0.20275 0.96626 0.0
C1720 C 0.87313 0.18723 0.97622 0.0
C1721 C 0.87912 0.17821 0.96134 0.0
C1722 C 0.86027 0.21811 0.04692 0.0
C1723 C 0.86 0.22834 0.00911 0.0
C1724 C 0.86746 0.21009 0.03347 0.0
C1725 C 0.87461 0.21217 0.98205 0.0
C1726 C 0.87484 0.22282 0.94504 0.0
C1727 C 0.86757 0.2308 0.95837 0.0
H1728 H 0.7056 0.79972 0.53327 0.0
H1729 H 0.70379 0.79752 0.71199 0.0
H1730 H 0.67827 0.78671 0.52964 0.0
H1731 H 0.67648 0.7844 0.70817 0.0
H1732 H 0.63171 0.7836 0.67518 0.0
H1733 H 0.65848 0.79267 0.6817 0.0
H1734 H 0.65487 0.7626 0.55031 0.0
H1735 H 0.62797 0.75353 0.54339 0.0
C1736 C 0.69938 0.79627 0.57174 0.0
C1737 C 0.70687 0.79979 0.62295 0.0
C1738 C 0.68372 0.78875 0.56962 0.0
C1739 C 0.67525 0.78466 0.61864 0.0
C1740 C 0.68273 0.78761 0.66974 0.0
C1741 C 0.69837 0.79506 0.67187 0.0
C1742 C 0.63658 0.77884 0.64786 0.0
C1743 C 0.62773 0.76789 0.60859 0.0
C1744 C 0.65191 0.78396 0.65191 0.0
C1745 C 0.65877 0.77833 0.61658 0.0
C1746 C 0.6499 0.76722 0.57782 0.0
C1747 C 0.6345 0.76199 0.57404 0.0
H1748 H 0.20385 0.9164 0.54193 0.0
H1749 H 0.19879 0.89647 0.70369 0.0
H1750 H 0.21838 0.90493 0.51159 0.0
H1751 H 0.21303 0.88474 0.67293 0.0
H1752 H 0.2481 0.87382 0.61412 0.0
H1753 H 0.2375 0.88919 0.64402 0.0
H1754 H 0.21297 0.87973 0.49017 0.0
H1755 H 0.2238 0.86466 0.45978 0.0
C1756 C 0.20591 0.90965 0.57114 0.0
C1757 C 0.20007 0.90727 0.62515 0.0
C1758 C 0.21417 0.90301 0.55362 0.0
C1759 C 0.21677 0.89383 0.58967 0.0
C1760 C 0.21137 0.89188 0.64427 0.0
C1761 C 0.20313 0.89854 0.66183 0.0
C1762 C 0.24057 0.87516 0.58641 0.0
C1763 C 0.23673 0.86794 0.53467 0.0
C1764 C 0.23443 0.8839 0.60371 0.0
C1765 C 0.22432 0.88563 0.56965 0.0
C1766 C 0.22086 0.87879 0.51719 0.0
C1767 C 0.22701 0.87007 0.49988 0.0
H1768 H 0.12665 0.37531 0.60727 0.0
H1769 H 0.1367 0.36124 0.45231 0.0
H1770 H 0.11118 0.34914 0.63478 0.0
H1771 H 0.12144 0.33513 0.48027 0.0
H1772 H 0.08412 0.28916 0.52757 0.0
H1773 H 0.0957 0.31538 0.49988 0.0
H1774 H 0.11599 0.32895 0.66162 0.0
H1775 H 0.10423 0.30276 0.68972 0.0
C1776 C 0.12548 0.36664 0.5789 0.0
C1777 C 0.13298 0.37036 0.52771 0.0
C1778 C 0.11668 0.35166 0.59483 0.0
C1779 C 0.11514 0.34008 0.55983 0.0
C1780 C 0.12226 0.34379 0.50792 0.0
C1781 C 0.13109 0.35876 0.49203 0.0
C1782 C 0.09091 0.29774 0.55748 0.0
C1783 C 0.09335 0.29387 0.61074 0.0
C1784 C 0.0976 0.31275 0.54146 0.0
C1785 C 0.10685 0.32423 0.57839 0.0
C1786 C 0.10882 0.32038 0.63235 0.0
C1787 C 0.10214 0.30536 0.64836 0.0
H1788 H 0.04537 0.58075 0.68919 0.0
H1789 H 0.03165 0.56208 0.85325 0.0
H1790 H 0.01913 0.56948 0.66172 0.0
H1791 H 0.00549 0.55061 0.82546 0.0
H1792 H 0.95951 0.54075 0.77288 0.0
H1793 H 0.98585 0.55593 0.79828 0.0
H1794 H -0.00141 0.54406 0.64426 0.0
H1795 H 0.97227 0.52912 0.61831 0.0
C1796 C 0.03677 0.57433 0.7195 0.0
C1797 C 0.0406 0.57224 0.77334 0.0
C1798 C 0.02174 0.56781 0.70365 0.0
C1799 C 0.01023 0.55909 0.74131 0.0
C1800 C 0.01408 0.5574 0.79562 0.0
C1801 C 0.02909 0.56391 0.81146 0.0
C1802 C 0.96793 0.5415 0.74415 0.0
C1803 C 0.96379 0.53363 0.69373 0.0
C1804 C 0.98302 0.55014 0.75886 0.0
C1805 C 0.9943 0.55111 0.72349 0.0
C1806 C 0.99018 0.54367 0.6722 0.0
C1807 C 0.97508 0.53503 0.65747 0.0
H1808 H 0.44158 0.46834 0.86979 0.0
H1809 H 0.41857 0.45979 0.71277 0.0
H1810 H 0.45249 0.4532 0.84101 0.0
H1811 H 0.42928 0.44439 0.68444 0.0
H1812 H 0.46808 0.43668 0.63002 0.0
H1813 H 0.45409 0.44884 0.65893 0.0
H1814 H 0.44664 0.42772 0.81934 0.0
H1815 H 0.46088 0.41577 0.79085 0.0
C1816 C 0.4387 0.46309 0.8294 0.0
C1817 C 0.42928 0.46536 0.79345 0.0
C1818 C 0.44488 0.45432 0.81303 0.0
C1819 C 0.44179 0.44763 0.76035 0.0
C1820 C 0.43204 0.44956 0.72499 0.0
C1821 C 0.42584 0.45832 0.74137 0.0
C1822 C 0.46335 0.43452 0.6713 0.0
C1823 C 0.46569 0.42534 0.70825 0.0
C1824 C 0.45525 0.44142 0.68776 0.0
C1825 C 0.44931 0.4393 0.74153 0.0
C1826 C 0.45126 0.42975 0.77791 0.0
C1827 C 0.45936 0.42284 0.76145 0.0
H1828 H 0.53996 0.95887 0.76125 0.0
H1829 H 0.50365 0.96054 0.67795 0.0
H1830 H 0.55578 0.986 0.7497 0.0
H1831 H 0.51933 0.98752 0.66715 0.0
H1832 H 0.55559 0.03276 0.60643 0.0
H1833 H 0.54162 0.00558 0.61566 0.0
H1834 H 0.55719 0.00942 0.78414 0.0
H1835 H 0.57139 0.03668 0.77478 0.0
C1836 C 0.53536 0.96501 0.7405 0.0
C1837 C 0.52056 0.95755 0.72046 0.0
C1838 C 0.54439 0.98054 0.73414 0.0
C1839 C 0.53882 0.98888 0.70733 0.0
C1840 C 0.52403 0.98138 0.68724 0.0
C1841 C 0.51501 0.96592 0.69377 0.0
C1842 C 0.55612 0.02783 0.64538 0.0
C1843 C 0.56453 0.03689 0.68999 0.0
C1844 C 0.54805 0.01225 0.65072 0.0
C1845 C 0.54822 0.00537 0.70075 0.0
C1846 C 0.55694 0.01439 0.74493 0.0
C1847 C 0.565 0.03001 0.73964 0.0
H1848 H 0.46708 0.04078 0.30183 0.0
H1849 H 0.47493 0.02824 0.13983 0.0
H1850 H 0.45192 0.01432 0.32654 0.0
H1851 H 0.46004 0.00189 0.16487 0.0
H1852 H 0.42192 0.95603 0.20653 0.0
H1853 H 0.43433 0.98265 0.18492 0.0
H1854 H 0.45573 0.99299 0.34537 0.0
H1855 H 0.44307 0.96629 0.36757 0.0
C1856 C 0.46554 0.03239 0.27143 0.0
C1857 C 0.47223 0.03661 0.21885 0.0
C1858 C 0.45692 0.01724 0.28574 0.0
C1859 C 0.45477 0.00602 0.24769 0.0
C1860 C 0.46129 0.01026 0.19488 0.0
C1861 C 0.46992 0.02538 0.18063 0.0
C1862 C 0.42916 0.96397 0.2375 0.0
C1863 C 0.4316 0.95903 0.28866 0.0
C1864 C 0.43633 0.97923 0.22493 0.0
C1865 C 0.44614 0.98992 0.26316 0.0
C1866 C 0.44816 0.98503 0.31516 0.0
C1867 C 0.44095 0.96973 0.3278 0.0
H1868 H 0.03577 0.45823 0.1991 0.0
H1869 H 0.02425 0.46745 0.36066 0.0
H1870 H 0.00926 0.44424 0.17462 0.0
H1871 H -0.00215 0.45393 0.33565 0.0
H1872 H 0.95033 0.42004 0.29078 0.0
H1873 H 0.97657 0.43011 0.3157 0.0
H1874 H 0.98985 0.4497 0.15271 0.0
H1875 H 0.96362 0.4392 0.12727 0.0
C1876 C 0.02757 0.45721 0.22949 0.0
C1877 C 0.03212 0.46402 0.28173 0.0
C1878 C 0.01238 0.44928 0.21532 0.0
C1879 C 0.0014 0.44805 0.25295 0.0
C1880 C 0.00596 0.45447 0.30583 0.0
C1881 C 0.02113 0.46231 0.32011 0.0
C1882 C 0.95886 0.42641 0.26013 0.0
C1883 C 0.9549 0.4289 0.20713 0.0
C1884 C 0.97391 0.43224 0.27451 0.0
C1885 C 0.98536 0.4408 0.23636 0.0
C1886 C 0.98135 0.44299 0.18292 0.0
C1887 C 0.96629 0.43705 0.16841 0.0
H1888 H 0.576 0.53504 0.29623 0.0
H1889 H 0.55833 0.53261 0.13186 0.0
H1890 H 0.56556 0.55053 0.32613 0.0
H1891 H 0.54755 0.54775 0.16213 0.0
H1892 H 0.53769 0.58334 0.22114 0.0
H1893 H 0.55265 0.57214 0.19285 0.0
H1894 H 0.54086 0.54653 0.34466 0.0
H1895 H 0.52627 0.558 0.37356 0.0
C1896 C 0.56995 0.53787 0.26639 0.0
C1897 C 0.5679 0.5325 0.21175 0.0
C1898 C 0.5639 0.54669 0.28362 0.0
C1899 C 0.55562 0.55029 0.24668 0.0
C1900 C 0.55402 0.54534 0.19153 0.0
C1901 C 0.56012 0.53657 0.17423 0.0
C1902 C 0.53846 0.57547 0.2488 0.0
C1903 C 0.53071 0.57149 0.29946 0.0
C1904 C 0.54696 0.56898 0.23241 0.0
C1905 C 0.54787 0.55835 0.26626 0.0
C1906 C 0.54056 0.5548 0.31783 0.0
C1907 C 0.5321 0.56132 0.33428 0.0
loop_
_geom_bond_atom_site_label_1
_geom_bond_atom_site_label_2
_geom_bond_distance
_geom_bond_site_symmetry_2
_ccdc_geom_bond_type
C0 O1 1.160 . S
C0 O7 1.185 . S
O1 C0 1.160 . S
O2 Zn3 1.899 . S
O2 C10 1.284 . S
Zn3 O2 1.899 . S
Zn3 O4 2.032 . S
Zn3 O7 2.086 . S
Zn3 O12 1.977 . S
O4 Zn3 2.032 . S
O4 C8 1.278 . S
C5 O6 1.203 . S
C5 O12 1.267 . S
O6 C5 1.203 . S
O7 C0 1.185 . S
O7 Zn3 2.086 . S
C8 O4 1.278 . S
C8 O9 1.211 . S
O9 C8 1.211 . S
C10 O2 1.284 . S
C10 O11 1.273 . S
O11 C10 1.273 . S
O12 Zn3 1.977 . S
O12 C5 1.267 . S
C13 O14 1.160 . S
C13 O20 1.185 . S
O14 C13 1.160 . S
O15 Zn16 1.899 . S
O15 C23 1.284 . S
Zn16 O15 1.899 . S
Zn16 O17 2.032 . S
Zn16 O20 2.086 . S
Zn16 O25 1.977 . S
O17 Zn16 2.032 . S
O17 C21 1.278 . S
C18 O19 1.203 . S
C18 O25 1.267 . S
O19 C18 1.203 . S
O20 C13 1.185 . S
O20 Zn16 2.086 . S
C21 O17 1.278 . S
C21 O22 1.211 . S
O22 C21 1.211 . S
C23 O15 1.284 . S
C23 O24 1.273 . S
O24 C23 1.273 . S
O25 Zn16 1.977 . S
O25 C18 1.267 . S
C26 O27 1.160 . S
C26 O33 1.185 . S
O27 C26 1.160 . S
O28 Zn29 1.899 . S
O28 C36 1.284 . S
Zn29 O28 1.899 . S
Zn29 O30 2.032 . S
Zn29 O33 2.086 . S
Zn29 O38 1.977 . S
O30 Zn29 2.032 . S
O30 C34 1.278 . S
C31 O32 1.203 . S
C31 O38 1.267 . S
O32 C31 1.203 . S
O33 C26 1.185 . S
O33 Zn29 2.086 . S
C34 O30 1.278 . S
C34 O35 1.211 . S
O35 C34 1.211 . S
C36 O28 1.284 . S
C36 O37 1.273 . S
O37 C36 1.273 . S
O38 Zn29 1.977 . S
O38 C31 1.267 . S
C39 O40 1.160 . S
C39 O46 1.185 . S
O40 C39 1.160 . S
O41 Zn42 1.899 . S
O41 C49 1.284 . S
Zn42 O41 1.899 . S
Zn42 O43 2.032 . S
Zn42 O46 2.086 . S
Zn42 O51 1.977 . S
O43 Zn42 2.032 . S
O43 C47 1.278 . S
C44 O45 1.203 . S
C44 O51 1.267 . S
O45 C44 1.203 . S
O46 C39 1.185 . S
O46 Zn42 2.086 . S
C47 O43 1.278 . S
C47 O48 1.211 . S
O48 C47 1.211 . S
C49 O41 1.284 . S
C49 O50 1.273 . S
O50 C49 1.273 . S
O51 Zn42 1.977 . S
O51 C44 1.267 . S
C52 O53 1.160 . S
C52 O59 1.185 . S
O53 C52 1.160 . S
O54 Zn55 1.899 . S
O54 C62 1.284 . S
Zn55 O54 1.899 . S
Zn55 O56 2.032 . S
Zn55 O59 2.086 . S
Zn55 O64 1.977 . S
O56 Zn55 2.032 . S
O56 C60 1.278 . S
C57 O58 1.203 . S
C57 O64 1.267 . S
O58 C57 1.203 . S
O59 C52 1.185 . S
O59 Zn55 2.086 . S
C60 O56 1.278 . S
C60 O61 1.211 . S
O61 C60 1.211 . S
C62 O54 1.284 . S
C62 O63 1.273 . S
O63 C62 1.273 . S
O64 Zn55 1.977 . S
O64 C57 1.267 . S
C65 O66 1.160 . S
C65 O72 1.185 . S
O66 C65 1.160 . S
O67 Zn68 1.899 . S
O67 C75 1.284 . S
Zn68 O67 1.899 . S
Zn68 O69 2.032 . S
Zn68 O72 2.086 . S
Zn68 O77 1.977 . S
O69 Zn68 2.032 . S
O69 C73 1.278 . S
C70 O71 1.203 . S
C70 O77 1.267 . S
O71 C70 1.203 . S
O72 C65 1.185 . S
O72 Zn68 2.086 . S
C73 O69 1.278 . S
C73 O74 1.211 . S
O74 C73 1.211 . S
C75 O67 1.284 . S
C75 O76 1.273 . S
O76 C75 1.273 . S
O77 Zn68 1.977 . S
O77 C70 1.267 . S
C78 O79 1.160 . S
C78 O85 1.185 . S
O79 C78 1.160 . S
O80 Zn81 1.899 . S
O80 C88 1.284 . S
Zn81 O80 1.899 . S
Zn81 O82 2.032 . S
Zn81 O85 2.086 . S
Zn81 O90 1.977 . S
O82 Zn81 2.032 . S
O82 C86 1.278 . S
C83 O84 1.203 . S
C83 O90 1.267 . S
O84 C83 1.203 . S
O85 C78 1.185 . S
O85 Zn81 2.086 . S
C86 O82 1.278 . S
C86 O87 1.211 . S
O87 C86 1.211 . S
C88 O80 1.284 . S
C88 O89 1.273 . S
O89 C88 1.273 . S
O90 Zn81 1.977 . S
O90 C83 1.267 . S
C91 O92 1.160 . S
C91 O98 1.185 . S
O92 C91 1.160 . S
O93 Zn94 1.899 . S
O93 C101 1.284 . S
Zn94 O93 1.899 . S
Zn94 O95 2.032 . S
Zn94 O98 2.086 . S
Zn94 O103 1.977 . S
O95 Zn94 2.032 . S
O95 C99 1.278 . S
C96 O97 1.203 . S
C96 O103 1.267 . S
O97 C96 1.203 . S
O98 C91 1.185 . S
O98 Zn94 2.086 . S
C99 O95 1.278 . S
C99 O100 1.211 . S
O100 C99 1.211 . S
C101 O93 1.284 . S
C101 O102 1.273 . S
O102 C101 1.273 . S
O103 Zn94 1.977 . S
O103 C96 1.267 . S
C104 O105 1.160 . S
C104 O111 1.185 . S
O105 C104 1.160 . S
O106 Zn107 1.899 . S
O106 C114 1.284 . S
Zn107 O106 1.899 . S
Zn107 O108 2.032 . S
Zn107 O111 2.086 . S
Zn107 O116 1.977 . S
O108 Zn107 2.032 . S
O108 C112 1.278 . S
C109 O110 1.203 . S
C109 O116 1.267 . S
O110 C109 1.203 . S
O111 C104 1.185 . S
O111 Zn107 2.086 . S
C112 O108 1.278 . S
C112 O113 1.211 . S
O113 C112 1.211 . S
C114 O106 1.284 . S
C114 O115 1.273 . S
O115 C114 1.273 . S
O116 Zn107 1.977 . S
O116 C109 1.267 . S
C117 O118 1.160 . S
C117 O124 1.185 . S
O118 C117 1.160 . S
O119 Zn120 1.899 . S
O119 C127 1.284 . S
Zn120 O119 1.899 . S
Zn120 O121 2.032 . S
Zn120 O124 2.086 . S
Zn120 O129 1.977 . S
O121 Zn120 2.032 . S
O121 C125 1.278 . S
C122 O123 1.203 . S
C122 O129 1.267 . S
O123 C122 1.203 . S
O124 C117 1.185 . S
O124 Zn120 2.086 . S
C125 O121 1.278 . S
C125 O126 1.211 . S
O126 C125 1.211 . S
C127 O119 1.284 . S
C127 O128 1.273 . S
O128 C127 1.273 . S
O129 Zn120 1.977 . S
O129 C122 1.267 . S
C130 O131 1.160 . S
C130 O137 1.185 . S
O131 C130 1.160 . S
O132 Zn133 1.899 . S
O132 C140 1.284 . S
Zn133 O132 1.899 . S
Zn133 O134 2.032 . S
Zn133 O137 2.086 . S
Zn133 O142 1.977 . S
O134 Zn133 2.032 . S
O134 C138 1.278 . S
C135 O136 1.203 . S
C135 O142 1.267 . S
O136 C135 1.203 . S
O137 C130 1.185 . S
O137 Zn133 2.086 . S
C138 O134 1.278 . S
C138 O139 1.211 . S
O139 C138 1.211 . S
C140 O132 1.284 . S
C140 O141 1.273 . S
O141 C140 1.273 . S
O142 Zn133 1.977 . S
O142 C135 1.267 . S
C143 O144 1.160 . S
C143 O150 1.185 . S
O144 C143 1.160 . S
O145 Zn146 1.899 . S
O145 C153 1.284 . S
Zn146 O145 1.899 . S
Zn146 O147 2.032 . S
Zn146 O150 2.086 . S
Zn146 O155 1.977 . S
O147 Zn146 2.032 . S
O147 C151 1.278 . S
C148 O149 1.203 . S
C148 O155 1.267 . S
O149 C148 1.203 . S
O150 C143 1.185 . S
O150 Zn146 2.086 . S
C151 O147 1.278 . S
C151 O152 1.211 . S
O152 C151 1.211 . S
C153 O145 1.284 . S
C153 O154 1.273 . S
O154 C153 1.273 . S
O155 Zn146 1.977 . S
O155 C148 1.267 . S
C156 O157 1.160 . S
C156 O163 1.185 . S
O157 C156 1.160 . S
O158 Zn159 1.899 . S
O158 C166 1.284 . S
Zn159 O158 1.899 . S
Zn159 O160 2.032 . S
Zn159 O163 2.086 . S
Zn159 O168 1.977 . S
O160 Zn159 2.032 . S
O160 C164 1.278 . S
C161 O162 1.203 . S
C161 O168 1.267 . S
O162 C161 1.203 . S
O163 C156 1.185 . S
O163 Zn159 2.086 . S
C164 O160 1.278 . S
C164 O165 1.211 . S
O165 C164 1.211 . S
C166 O158 1.284 . S
C166 O167 1.273 . S
O167 C166 1.273 . S
O168 Zn159 1.977 . S
O168 C161 1.267 . S
C169 O170 1.160 . S
C169 O176 1.185 . S
O170 C169 1.160 . S
O171 Zn172 1.899 . S
O171 C179 1.284 . S
Zn172 O171 1.899 . S
Zn172 O173 2.032 . S
Zn172 O176 2.086 . S
Zn172 O181 1.977 . S
O173 Zn172 2.032 . S
O173 C177 1.278 . S
C174 O175 1.203 . S
C174 O181 1.267 . S
O175 C174 1.203 . S
O176 C169 1.185 . S
O176 Zn172 2.086 . S
C177 O173 1.278 . S
C177 O178 1.211 . S
O178 C177 1.211 . S
C179 O171 1.284 . S
C179 O180 1.273 . S
O180 C179 1.273 . S
O181 Zn172 1.977 . S
O181 C174 1.267 . S
C182 O183 1.160 . S
C182 O189 1.185 . S
O183 C182 1.160 . S
O184 Zn185 1.899 . S
O184 C192 1.284 . S
Zn185 O184 1.899 . S
Zn185 O186 2.032 . S
Zn185 O189 2.086 . S
Zn185 O194 1.977 . S
O186 Zn185 2.032 . S
O186 C190 1.278 . S
C187 O188 1.203 . S
C187 O194 1.267 . S
O188 C187 1.203 . S
O189 C182 1.185 . S
O189 Zn185 2.086 . S
C190 O186 1.278 . S
C190 O191 1.211 . S
O191 C190 1.211 . S
C192 O184 1.284 . S
C192 O193 1.273 . S
O193 C192 1.273 . S
O194 Zn185 1.977 . S
O194 C187 1.267 . S
C195 O196 1.160 . S
C195 O202 1.185 . S
O196 C195 1.160 . S
O197 Zn198 1.899 . S
O197 C205 1.284 . S
Zn198 O197 1.899 . S
Zn198 O199 2.032 . S
Zn198 O202 2.086 . S
Zn198 O207 1.977 . S
O199 Zn198 2.032 . S
O199 C203 1.278 . S
C200 O201 1.203 . S
C200 O207 1.267 . S
O201 C200 1.203 . S
O202 C195 1.185 . S
O202 Zn198 2.086 . S
C203 O199 1.278 . S
C203 O204 1.211 . S
O204 C203 1.211 . S
C205 O197 1.284 . S
C205 O206 1.273 . S
O206 C205 1.273 . S
O207 Zn198 1.977 . S
O207 C200 1.267 . S
C208 O209 1.160 . S
C208 O215 1.185 . S
O209 C208 1.160 . S
O210 Zn211 1.899 . S
O210 C218 1.284 . S
Zn211 O210 1.899 . S
Zn211 O212 2.032 . S
Zn211 O215 2.086 . S
Zn211 O220 1.977 . S
O212 Zn211 2.032 . S
O212 C216 1.278 . S
C213 O214 1.203 . S
C213 O220 1.267 . S
O214 C213 1.203 . S
O215 C208 1.185 . S
O215 Zn211 2.086 . S
C216 O212 1.278 . S
C216 O217 1.211 . S
O217 C216 1.211 . S
C218 O210 1.284 . S
C218 O219 1.273 . S
O219 C218 1.273 . S
O220 Zn211 1.977 . S
O220 C213 1.267 . S
C221 O222 1.160 . S
C221 O228 1.185 . S
O222 C221 1.160 . S
O223 Zn224 1.899 . S
O223 C231 1.284 . S
Zn224 O223 1.899 . S
Zn224 O225 2.032 . S
Zn224 O228 2.086 . S
Zn224 O233 1.977 . S
O225 Zn224 2.032 . S
O225 C229 1.278 . S
C226 O227 1.203 . S
C226 O233 1.267 . S
O227 C226 1.203 . S
O228 C221 1.185 . S
O228 Zn224 2.086 . S
C229 O225 1.278 . S
C229 O230 1.211 . S
O230 C229 1.211 . S
C231 O223 1.284 . S
C231 O232 1.273 . S
O232 C231 1.273 . S
O233 Zn224 1.977 . S
O233 C226 1.267 . S
C234 O235 1.160 . S
C234 O241 1.185 . S
O235 C234 1.160 . S
O236 Zn237 1.899 . S
O236 C244 1.284 . S
Zn237 O236 1.899 . S
Zn237 O238 2.032 . S
Zn237 O241 2.086 . S
Zn237 O246 1.977 . S
O238 Zn237 2.032 . S
O238 C242 1.278 . S
C239 O240 1.203 . S
C239 O246 1.267 . S
O240 C239 1.203 . S
O241 C234 1.185 . S
O241 Zn237 2.086 . S
C242 O238 1.278 . S
C242 O243 1.211 . S
O243 C242 1.211 . S
C244 O236 1.284 . S
C244 O245 1.273 . S
O245 C244 1.273 . S
O246 Zn237 1.977 . S
O246 C239 1.267 . S
C247 O248 1.160 . S
C247 O254 1.185 . S
O248 C247 1.160 . S
O249 Zn250 1.899 . S
O249 C257 1.284 . S
Zn250 O249 1.899 . S
Zn250 O251 2.032 . S
Zn250 O254 2.086 . S
Zn250 O259 1.977 . S
O251 Zn250 2.032 . S
O251 C255 1.278 . S
C252 O253 1.203 . S
C252 O259 1.267 . S
O253 C252 1.203 . S
O254 C247 1.185 . S
O254 Zn250 2.086 . S
C255 O251 1.278 . S
C255 O256 1.211 . S
O256 C255 1.211 . S
C257 O249 1.284 . S
C257 O258 1.273 . S
O258 C257 1.273 . S
O259 Zn250 1.977 . S
O259 C252 1.267 . S
C260 O261 1.160 . S
C260 O267 1.185 . S
O261 C260 1.160 . S
O262 Zn263 1.899 . S
O262 C270 1.284 . S
Zn263 O262 1.899 . S
Zn263 O264 2.032 . S
Zn263 O267 2.086 . S
Zn263 O272 1.977 . S
O264 Zn263 2.032 . S
O264 C268 1.278 . S
C265 O266 1.203 . S
C265 O272 1.267 . S
O266 C265 1.203 . S
O267 C260 1.185 . S
O267 Zn263 2.086 . S
C268 O264 1.278 . S
C268 O269 1.211 . S
O269 C268 1.211 . S
C270 O262 1.284 . S
C270 O271 1.273 . S
O271 C270 1.273 . S
O272 Zn263 1.977 . S
O272 C265 1.267 . S
C273 O274 1.160 . S
C273 O280 1.185 1_554 S
O274 C273 1.160 . S
O275 Zn276 1.899 . S
O275 C283 1.284 . S
Zn276 O275 1.899 . S
Zn276 O277 2.032 1_556 S
Zn276 O280 2.086 . S
Zn276 O285 1.977 . S
O277 Zn276 2.032 1_554 S
O277 C281 1.278 . S
C278 O279 1.203 . S
C278 O285 1.267 . S
O279 C278 1.203 . S
O280 C273 1.185 1_556 S
O280 Zn276 2.086 . S
C281 O277 1.278 . S
C281 O282 1.211 . S
O282 C281 1.211 . S
C283 O275 1.284 . S
C283 O284 1.273 1_556 S
O284 C283 1.273 1_554 S
O285 Zn276 1.977 . S
O285 C278 1.267 . S
C286 O287 1.160 . S
C286 O293 1.185 1_554 S
O287 C286 1.160 . S
O288 Zn289 1.899 . S
O288 C296 1.284 . S
Zn289 O288 1.899 . S
Zn289 O290 2.032 1_556 S
Zn289 O293 2.086 . S
Zn289 O298 1.977 . S
O290 Zn289 2.032 1_554 S
O290 C294 1.278 . S
C291 O292 1.203 . S
C291 O298 1.267 . S
O292 C291 1.203 . S
O293 C286 1.185 1_556 S
O293 Zn289 2.086 . S
C294 O290 1.278 . S
C294 O295 1.211 . S
O295 C294 1.211 . S
C296 O288 1.284 . S
C296 O297 1.273 1_556 S
O297 C296 1.273 1_554 S
O298 Zn289 1.977 . S
O298 C291 1.267 . S
C299 O300 1.160 . S
C299 O306 1.185 1_554 S
O300 C299 1.160 . S
O301 Zn302 1.899 . S
O301 C309 1.284 . S
Zn302 O301 1.899 . S
Zn302 O303 2.032 1_556 S
Zn302 O306 2.086 . S
Zn302 O311 1.977 . S
O303 Zn302 2.032 1_554 S
O303 C307 1.278 . S
C304 O305 1.203 . S
C304 O311 1.267 . S
O305 C304 1.203 . S
O306 C299 1.185 1_556 S
O306 Zn302 2.086 . S
C307 O303 1.278 . S
C307 O308 1.211 . S
O308 C307 1.211 . S
C309 O301 1.284 . S
C309 O310 1.273 1_556 S
O310 C309 1.273 1_554 S
O311 Zn302 1.977 . S
O311 C304 1.267 . S
C312 O313 1.160 . S
C312 O319 1.185 . S
O313 C312 1.160 . S
O314 Zn315 1.899 . S
O314 C322 1.284 . S
Zn315 O314 1.899 . S
Zn315 O316 2.032 . S
Zn315 O319 2.086 . S
Zn315 O324 1.977 . S
O316 Zn315 2.032 . S
O316 C320 1.278 . S
C317 O318 1.203 . S
C317 O324 1.267 . S
O318 C317 1.203 . S
O319 C312 1.185 . S
O319 Zn315 2.086 . S
C320 O316 1.278 . S
C320 O321 1.211 . S
O321 C320 1.211 . S
C322 O314 1.284 . S
C322 O323 1.273 . S
O323 C322 1.273 . S
O324 Zn315 1.977 . S
O324 C317 1.267 . S
C325 O326 1.160 . S
C325 O332 1.185 . S
O326 C325 1.160 . S
O327 Zn328 1.899 . S
O327 C335 1.284 . S
Zn328 O327 1.899 . S
Zn328 O329 2.032 . S
Zn328 O332 2.086 . S
Zn328 O337 1.977 . S
O329 Zn328 2.032 . S
O329 C333 1.278 . S
C330 O331 1.203 . S
C330 O337 1.267 . S
O331 C330 1.203 . S
O332 C325 1.185 . S
O332 Zn328 2.086 . S
C333 O329 1.278 . S
C333 O334 1.211 . S
O334 C333 1.211 . S
C335 O327 1.284 . S
C335 O336 1.273 . S
O336 C335 1.273 . S
O337 Zn328 1.977 . S
O337 C330 1.267 . S
C338 O339 1.160 . S
C338 O345 1.185 . S
O339 C338 1.160 . S
O340 Zn341 1.899 . S
O340 C348 1.284 . S
Zn341 O340 1.899 . S
Zn341 O342 2.032 . S
Zn341 O345 2.086 . S
Zn341 O350 1.977 . S
O342 Zn341 2.032 . S
O342 C346 1.278 . S
C343 O344 1.203 . S
C343 O350 1.267 . S
O344 C343 1.203 . S
O345 C338 1.185 . S
O345 Zn341 2.086 . S
C346 O342 1.278 . S
C346 O347 1.211 . S
O347 C346 1.211 . S
C348 O340 1.284 . S
C348 O349 1.273 . S
O349 C348 1.273 . S
O350 Zn341 1.977 . S
O350 C343 1.267 . S
C351 O352 1.160 . S
C351 O358 1.185 1_556 S
O352 C351 1.160 . S
O353 Zn354 1.899 . S
O353 C361 1.284 . S
Zn354 O353 1.899 . S
Zn354 O355 2.032 1_554 S
Zn354 O358 2.086 . S
Zn354 O363 1.977 . S
O355 Zn354 2.032 1_556 S
O355 C359 1.278 . S
C356 O357 1.203 . S
C356 O363 1.267 . S
O357 C356 1.203 . S
O358 C351 1.185 1_554 S
O358 Zn354 2.086 . S
C359 O355 1.278 . S
C359 O360 1.211 . S
O360 C359 1.211 . S
C361 O353 1.284 . S
C361 O362 1.273 1_554 S
O362 C361 1.273 1_556 S
O363 Zn354 1.977 . S
O363 C356 1.267 . S
C364 O365 1.160 . S
C364 O371 1.185 1_556 S
O365 C364 1.160 . S
O366 Zn367 1.899 . S
O366 C374 1.284 . S
Zn367 O366 1.899 . S
Zn367 O368 2.032 1_554 S
Zn367 O371 2.086 . S
Zn367 O376 1.977 . S
O368 Zn367 2.032 1_556 S
O368 C372 1.278 . S
C369 O370 1.203 . S
C369 O376 1.267 . S
O370 C369 1.203 . S
O371 C364 1.185 1_554 S
O371 Zn367 2.086 . S
C372 O368 1.278 . S
C372 O373 1.211 . S
O373 C372 1.211 . S
C374 O366 1.284 . S
C374 O375 1.273 1_554 S
O375 C374 1.273 1_556 S
O376 Zn367 1.977 . S
O376 C369 1.267 . S
C377 O378 1.160 . S
C377 O384 1.185 1_556 S
O378 C377 1.160 . S
O379 Zn380 1.899 . S
O379 C387 1.284 . S
Zn380 O379 1.899 . S
Zn380 O381 2.032 1_554 S
Zn380 O384 2.086 . S
Zn380 O389 1.977 . S
O381 Zn380 2.032 1_556 S
O381 C385 1.278 . S
C382 O383 1.203 . S
C382 O389 1.267 . S
O383 C382 1.203 . S
O384 C377 1.185 1_554 S
O384 Zn380 2.086 . S
C385 O381 1.278 . S
C385 O386 1.211 . S
O386 C385 1.211 . S
C387 O379 1.284 . S
C387 O388 1.273 1_554 S
O388 C387 1.273 1_556 S
O389 Zn380 1.977 . S
O389 C382 1.267 . S
C390 O391 1.160 . S
C390 O397 1.185 . S
O391 C390 1.160 . S
O392 Zn393 1.899 . S
O392 C400 1.284 . S
Zn393 O392 1.899 . S
Zn393 O394 2.032 . S
Zn393 O397 2.086 . S
Zn393 O402 1.977 . S
O394 Zn393 2.032 . S
O394 C398 1.278 . S
C395 O396 1.203 . S
C395 O402 1.267 . S
O396 C395 1.203 . S
O397 C390 1.185 . S
O397 Zn393 2.086 . S
C398 O394 1.278 . S
C398 O399 1.211 . S
O399 C398 1.211 . S
C400 O392 1.284 . S
C400 O401 1.273 . S
O401 C400 1.273 . S
O402 Zn393 1.977 . S
O402 C395 1.267 . S
C403 O404 1.160 . S
C403 O410 1.185 . S
O404 C403 1.160 . S
O405 Zn406 1.899 . S
O405 C413 1.284 . S
Zn406 O405 1.899 . S
Zn406 O407 2.032 . S
Zn406 O410 2.086 . S
Zn406 O415 1.977 . S
O407 Zn406 2.032 . S
O407 C411 1.278 . S
C408 O409 1.203 . S
C408 O415 1.267 . S
O409 C408 1.203 . S
O410 C403 1.185 . S
O410 Zn406 2.086 . S
C411 O407 1.278 . S
C411 O412 1.211 . S
O412 C411 1.211 . S
C413 O405 1.284 . S
C413 O414 1.273 . S
O414 C413 1.273 . S
O415 Zn406 1.977 . S
O415 C408 1.267 . S
C416 O417 1.160 . S
C416 O423 1.185 . S
O417 C416 1.160 . S
O418 Zn419 1.899 . S
O418 C426 1.284 . S
Zn419 O418 1.899 . S
Zn419 O420 2.032 . S
Zn419 O423 2.086 . S
Zn419 O428 1.977 . S
O420 Zn419 2.032 . S
O420 C424 1.278 . S
C421 O422 1.203 . S
C421 O428 1.267 . S
O422 C421 1.203 . S
O423 C416 1.185 . S
O423 Zn419 2.086 . S
C424 O420 1.278 . S
C424 O425 1.211 . S
O425 C424 1.211 . S
C426 O418 1.284 . S
C426 O427 1.273 . S
O427 C426 1.273 . S
O428 Zn419 1.977 . S
O428 C421 1.267 . S
C429 O430 1.160 . S
C429 O436 1.185 . S
O430 C429 1.160 . S
O431 Zn432 1.899 . S
O431 C439 1.284 . S
Zn432 O431 1.899 . S
Zn432 O433 2.032 . S
Zn432 O436 2.086 . S
Zn432 O441 1.977 . S
O433 Zn432 2.032 . S
O433 C437 1.278 . S
C434 O435 1.203 . S
C434 O441 1.267 . S
O435 C434 1.203 . S
O436 C429 1.185 . S
O436 Zn432 2.086 . S
C437 O433 1.278 . S
C437 O438 1.211 . S
O438 C437 1.211 . S
C439 O431 1.284 . S
C439 O440 1.273 . S
O440 C439 1.273 . S
O441 Zn432 1.977 . S
O441 C434 1.267 . S
C442 O443 1.160 . S
C442 O449 1.185 . S
O443 C442 1.160 . S
O444 Zn445 1.899 . S
O444 C452 1.284 . S
Zn445 O444 1.899 . S
Zn445 O446 2.032 . S
Zn445 O449 2.086 . S
Zn445 O454 1.977 . S
O446 Zn445 2.032 . S
O446 C450 1.278 . S
C447 O448 1.203 . S
C447 O454 1.267 . S
O448 C447 1.203 . S
O449 C442 1.185 . S
O449 Zn445 2.086 . S
C450 O446 1.278 . S
C450 O451 1.211 . S
O451 C450 1.211 . S
C452 O444 1.284 . S
C452 O453 1.273 . S
O453 C452 1.273 . S
O454 Zn445 1.977 . S
O454 C447 1.267 . S
C455 O456 1.160 . S
C455 O462 1.185 . S
O456 C455 1.160 . S
O457 Zn458 1.899 . S
O457 C465 1.284 . S
Zn458 O457 1.899 . S
Zn458 O459 2.032 . S
Zn458 O462 2.086 . S
Zn458 O467 1.977 . S
O459 Zn458 2.032 . S
O459 C463 1.278 . S
C460 O461 1.203 . S
C460 O467 1.267 . S
O461 C460 1.203 . S
O462 C455 1.185 . S
O462 Zn458 2.086 . S
C463 O459 1.278 . S
C463 O464 1.211 . S
O464 C463 1.211 . S
C465 O457 1.284 . S
C465 O466 1.273 . S
O466 C465 1.273 . S
O467 Zn458 1.977 . S
O467 C460 1.267 . S
H468 C476 0.950 . S
H469 C481 0.950 . S
H470 C478 0.950 . S
H471 C480 0.950 . S
H472 C482 0.950 . S
H473 C484 0.950 . S
H474 C486 0.950 . S
H475 C487 0.950 . S
C476 H468 0.950 . S
C476 C477 1.386 . S
C476 C478 1.391 . S
C477 C476 1.386 . S
C477 C481 1.393 . S
C478 H470 0.950 . S
C478 C476 1.391 . S
C478 C479 1.400 . S
C479 C478 1.400 . S
C479 C480 1.398 . S
C479 C485 1.491 . S
C480 H471 0.950 . S
C480 C479 1.398 . S
C480 C481 1.391 . S
C481 H469 0.950 . S
C481 C477 1.393 . S
C481 C480 1.391 . S
C482 H472 0.950 . S
C482 C483 1.386 . S
C482 C484 1.391 . S
C483 C482 1.386 . S
C483 C487 1.393 . S
C484 H473 0.950 . S
C484 C482 1.391 . S
C484 C485 1.400 . S
C485 C479 1.491 . S
C485 C484 1.400 . S
C485 C486 1.398 . S
C486 H474 0.950 . S
C486 C485 1.398 . S
C486 C487 1.391 . S
C487 H475 0.950 . S
C487 C483 1.393 . S
C487 C486 1.391 . S
H488 C496 0.950 . S
H489 C501 0.950 . S
H490 C498 0.950 . S
H491 C500 0.950 . S
H492 C502 0.950 . S
H493 C504 0.950 . S
H494 C506 0.950 . S
H495 C507 0.950 . S
C496 H488 0.950 . S
C496 C497 1.386 . S
C496 C498 1.391 . S
C497 C496 1.386 . S
C497 C501 1.393 . S
C498 H490 0.950 . S
C498 C496 1.391 . S
C498 C499 1.400 . S
C499 C498 1.400 . S
C499 C500 1.398 . S
C499 C505 1.491 1_545 S
C500 H491 0.950 . S
C500 C499 1.398 . S
C500 C501 1.391 . S
C501 H489 0.950 . S
C501 C497 1.393 . S
C501 C500 1.391 . S
C502 H492 0.950 . S
C502 C503 1.386 . S
C502 C504 1.391 . S
C503 C502 1.386 . S
C503 C507 1.393 . S
C504 H493 0.950 . S
C504 C502 1.391 . S
C504 C505 1.400 . S
C505 C499 1.491 1_565 S
C505 C504 1.400 . S
C505 C506 1.398 . S
C506 H494 0.950 . S
C506 C505 1.398 . S
C506 C507 1.391 . S
C507 H495 0.950 . S
C507 C503 1.393 . S
C507 C506 1.391 . S
H508 C516 0.950 . S
H509 C521 0.950 . S
H510 C518 0.950 . S
H511 C520 0.950 . S
H512 C522 0.950 . S
H513 C524 0.950 . S
H514 C526 0.950 . S
H515 C527 0.950 . S
C516 H508 0.950 . S
C516 C517 1.386 . S
C516 C518 1.391 . S
C517 C516 1.386 . S
C517 C521 1.393 . S
C518 H510 0.950 . S
C518 C516 1.391 . S
C518 C519 1.400 . S
C519 C518 1.400 . S
C519 C520 1.398 . S
C519 C525 1.491 1_655 S
C520 H511 0.950 . S
C520 C519 1.398 . S
C520 C521 1.391 . S
C521 H509 0.950 . S
C521 C517 1.393 . S
C521 C520 1.391 . S
C522 H512 0.950 . S
C522 C523 1.386 . S
C522 C524 1.391 . S
C523 C522 1.386 . S
C523 C527 1.393 . S
C524 H513 0.950 . S
C524 C522 1.391 . S
C524 C525 1.400 . S
C525 C519 1.491 1_455 S
C525 C524 1.400 . S
C525 C526 1.398 . S
C526 H514 0.950 . S
C526 C525 1.398 . S
C526 C527 1.391 . S
C527 H515 0.950 . S
C527 C523 1.393 . S
C527 C526 1.391 . S
H528 C536 0.950 . S
H529 C541 0.950 . S
H530 C538 0.950 . S
H531 C540 0.950 . S
H532 C542 0.950 . S
H533 C544 0.950 . S
H534 C546 0.950 . S
H535 C547 0.950 . S
C536 H528 0.950 . S
C536 C537 1.386 . S
C536 C538 1.391 . S
C537 C536 1.386 . S
C537 C541 1.393 . S
C538 H530 0.950 . S
C538 C536 1.391 . S
C538 C539 1.400 . S
C539 C538 1.400 . S
C539 C540 1.398 . S
C539 C545 1.491 . S
C540 H531 0.950 . S
C540 C539 1.398 . S
C540 C541 1.391 . S
C541 H529 0.950 . S
C541 C537 1.393 . S
C541 C540 1.391 . S
C542 H532 0.950 . S
C542 C543 1.386 . S
C542 C544 1.391 . S
C543 C542 1.386 . S
C543 C547 1.393 . S
C544 H533 0.950 . S
C544 C542 1.391 . S
C544 C545 1.400 . S
C545 C539 1.491 . S
C545 C544 1.400 . S
C545 C546 1.398 . S
C546 H534 0.950 . S
C546 C545 1.398 . S
C546 C547 1.391 . S
C547 H535 0.950 . S
C547 C543 1.393 . S
C547 C546 1.391 . S
H548 C556 0.950 . S
H549 C561 0.950 . S
H550 C558 0.950 . S
H551 C560 0.950 . S
H552 C562 0.950 . S
H553 C564 0.950 . S
H554 C566 0.950 . S
H555 C567 0.950 . S
C556 H548 0.950 . S
C556 C557 1.386 . S
C556 C558 1.391 . S
C557 C556 1.386 . S
C557 C561 1.393 . S
C558 H550 0.950 . S
C558 C556 1.391 . S
C558 C559 1.400 . S
C559 C558 1.400 . S
C559 C560 1.398 . S
C559 C565 1.491 1_545 S
C560 H551 0.950 . S
C560 C559 1.398 . S
C560 C561 1.391 . S
C561 H549 0.950 . S
C561 C557 1.393 . S
C561 C560 1.391 . S
C562 H552 0.950 . S
C562 C563 1.386 . S
C562 C564 1.391 . S
C563 C562 1.386 . S
C563 C567 1.393 . S
C564 H553 0.950 . S
C564 C562 1.391 . S
C564 C565 1.400 . S
C565 C559 1.491 1_565 S
C565 C564 1.400 . S
C565 C566 1.398 . S
C566 H554 0.950 . S
C566 C565 1.398 . S
C566 C567 1.391 . S
C567 H555 0.950 . S
C567 C563 1.393 . S
C567 C566 1.391 . S
H568 C576 0.950 . S
H569 C581 0.950 . S
H570 C578 0.950 . S
H571 C580 0.996 . S
H572 C582 0.950 . S
H573 C584 0.950 . S
H574 C586 0.999 . S
H575 C587 0.950 . S
C576 H568 0.950 . S
C576 C577 1.386 . S
C576 C578 1.391 . S
C577 C576 1.386 . S
C577 C581 1.393 . S
C578 H570 0.950 . S
C578 C576 1.391 . S
C578 C579 1.400 . S
C579 C578 1.400 . S
C579 C580 1.398 . S
C579 C585 1.491 1_455 S
C580 H571 0.996 . S
C580 C579 1.398 . S
C580 C581 1.391 . S
C581 H569 0.950 . S
C581 C577 1.393 . S
C581 C580 1.391 . S
C582 H572 0.950 . S
C582 C583 1.386 . S
C582 C584 1.391 . S
C583 C582 1.386 . S
C583 C587 1.393 . S
C584 H573 0.950 . S
C584 C582 1.391 . S
C584 C585 1.400 . S
C585 C579 1.491 1_655 S
C585 C584 1.400 . S
C585 C586 1.398 . S
C586 H574 0.999 . S
C586 C585 1.398 . S
C586 C587 1.391 . S
C587 H575 0.950 . S
C587 C583 1.393 . S
C587 C586 1.391 . S
H588 C596 0.950 . S
H589 C601 0.950 . S
H590 C598 0.950 . S
H591 C600 0.950 . S
H592 C602 0.950 . S
H593 C604 0.950 . S
H594 C606 0.950 . S
H595 C607 0.950 . S
C596 H588 0.950 . S
C596 C597 1.386 . S
C596 C598 1.391 . S
C597 C596 1.386 . S
C597 C601 1.393 . S
C598 H590 0.950 . S
C598 C596 1.391 . S
C598 C599 1.400 . S
C599 C598 1.400 . S
C599 C600 1.398 . S
C599 C605 1.491 . S
C600 H591 0.950 . S
C600 C599 1.398 . S
C600 C601 1.391 . S
C601 H589 0.950 . S
C601 C597 1.393 . S
C601 C600 1.391 . S
C602 H592 0.950 . S
C602 C603 1.386 . S
C602 C604 1.391 . S
C603 C602 1.386 . S
C603 C607 1.393 . S
C604 H593 0.950 . S
C604 C602 1.391 . S
C604 C605 1.400 . S
C605 C599 1.491 . S
C605 C604 1.400 . S
C605 C606 1.398 . S
C606 H594 0.950 . S
C606 C605 1.398 . S
C606 C607 1.391 . S
C607 H595 0.950 . S
C607 C603 1.393 . S
C607 C606 1.391 . S
H608 C616 0.950 . S
H609 C621 0.950 . S
H610 C618 0.950 . S
H611 C620 0.950 . S
H612 C622 0.950 . S
H613 C624 0.950 . S
H614 C626 0.950 . S
H615 C627 0.950 . S
C616 H608 0.950 . S
C616 C617 1.386 . S
C616 C618 1.391 . S
C617 C616 1.386 . S
C617 C621 1.393 . S
C618 H610 0.950 . S
C618 C616 1.391 . S
C618 C619 1.400 . S
C619 C618 1.400 . S
C619 C620 1.398 . S
C619 C625 1.491 . S
C620 H611 0.950 . S
C620 C619 1.398 . S
C620 C621 1.391 . S
C621 H609 0.950 . S
C621 C617 1.393 . S
C621 C620 1.391 . S
C622 H612 0.950 . S
C622 C623 1.386 . S
C622 C624 1.391 . S
C623 C622 1.386 . S
C623 C627 1.393 . S
C624 H613 0.950 . S
C624 C622 1.391 . S
C624 C625 1.400 . S
C625 C619 1.491 . S
C625 C624 1.400 . S
C625 C626 1.398 . S
C626 H614 0.950 . S
C626 C625 1.398 . S
C626 C627 1.391 . S
C627 H615 0.950 . S
C627 C623 1.393 . S
C627 C626 1.391 . S
H628 C636 0.950 . S
H629 C641 0.950 . S
H630 C638 0.950 . S
H631 C640 0.950 . S
H632 C642 0.950 . S
H633 C644 0.950 . S
H634 C646 0.950 . S
H635 C647 0.950 . S
C636 H628 0.950 . S
C636 C637 1.386 . S
C636 C638 1.391 . S
C637 C636 1.386 . S
C637 C641 1.393 . S
C638 H630 0.950 . S
C638 C636 1.391 . S
C638 C639 1.400 . S
C639 C638 1.400 . S
C639 C640 1.398 . S
C639 C645 1.491 . S
C640 H631 0.950 . S
C640 C639 1.398 . S
C640 C641 1.391 . S
C641 H629 0.950 . S
C641 C637 1.393 . S
C641 C640 1.391 . S
C642 H632 0.950 . S
C642 C643 1.386 . S
C642 C644 1.391 . S
C643 C642 1.386 . S
C643 C647 1.393 . S
C644 H633 0.950 . S
C644 C642 1.391 . S
C644 C645 1.400 . S
C645 C639 1.491 . S
C645 C644 1.400 . S
C645 C646 1.398 . S
C646 H634 0.950 . S
C646 C645 1.398 . S
C646 C647 1.391 . S
C647 H635 0.950 . S
C647 C643 1.393 . S
C647 C646 1.391 . S
H648 C656 0.950 . S
H649 C661 0.950 . S
H650 C658 0.950 . S
H651 C660 0.950 . S
H652 C662 0.950 . S
H653 C664 0.950 . S
H654 C666 0.964 . S
H655 C667 0.950 1_556 S
C656 H648 0.950 . S
C656 C657 1.386 . S
C656 C658 1.391 . S
C657 C656 1.386 . S
C657 C661 1.393 . S
C658 H650 0.950 . S
C658 C656 1.391 . S
C658 C659 1.400 . S
C659 C658 1.400 . S
C659 C660 1.398 . S
C659 C665 1.491 . S
C660 H651 0.950 . S
C660 C659 1.398 . S
C660 C661 1.391 . S
C661 H649 0.950 . S
C661 C657 1.393 . S
C661 C660 1.391 . S
C662 H652 0.950 . S
C662 C663 1.386 . S
C662 C664 1.391 . S
C663 C662 1.386 . S
C663 C667 1.393 . S
C664 H653 0.950 . S
C664 C662 1.391 . S
C664 C665 1.400 . S
C665 C659 1.491 . S
C665 C664 1.400 . S
C665 C666 1.398 . S
C666 H654 0.964 . S
C666 C665 1.398 . S
C666 C667 1.391 . S
C667 H655 0.950 1_554 S
C667 C663 1.393 . S
C667 C666 1.391 . S
H668 C676 0.950 . S
H669 C681 0.950 . S
H670 C678 0.950 . S
H671 C680 0.950 . S
H672 C682 0.950 . S
H673 C684 0.950 . S
H674 C686 0.950 . S
H675 C687 0.950 . S
C676 H668 0.950 . S
C676 C677 1.386 . S
C676 C678 1.391 . S
C677 C676 1.386 . S
C677 C681 1.393 . S
C678 H670 0.950 . S
C678 C676 1.391 . S
C678 C679 1.400 . S
C679 C678 1.400 . S
C679 C680 1.398 . S
C679 C685 1.491 . S
C680 H671 0.950 . S
C680 C679 1.398 . S
C680 C681 1.391 . S
C681 H669 0.950 . S
C681 C677 1.393 . S
C681 C680 1.391 . S
C682 H672 0.950 . S
C682 C683 1.386 . S
C682 C684 1.391 . S
C683 C682 1.386 . S
C683 C687 1.393 . S
C684 H673 0.950 . S
C684 C682 1.391 . S
C684 C685 1.400 . S
C685 C679 1.491 . S
C685 C684 1.400 . S
C685 C686 1.398 . S
C686 H674 0.950 . S
C686 C685 1.398 . S
C686 C687 1.391 . S
C687 H675 0.950 . S
C687 C683 1.393 . S
C687 C686 1.391 . S
H688 C696 0.950 . S
H689 C701 0.950 . S
H690 C698 0.950 . S
H691 C700 0.950 . S
H692 C702 0.950 . S
H693 C704 0.950 . S
H694 C706 0.950 . S
H695 C707 0.950 . S
C696 H688 0.950 . S
C696 C697 1.386 . S
C696 C698 1.391 . S
C697 C696 1.386 . S
C697 C701 1.393 . S
C698 H690 0.950 . S
C698 C696 1.391 . S
C698 C699 1.400 . S
C699 C698 1.400 . S
C699 C700 1.398 . S
C699 C705 1.491 . S
C700 H691 0.950 . S
C700 C699 1.398 . S
C700 C701 1.391 . S
C701 H689 0.950 . S
C701 C697 1.393 . S
C701 C700 1.391 . S
C702 H692 0.950 . S
C702 C703 1.386 . S
C702 C704 1.391 . S
C703 C702 1.386 . S
C703 C707 1.393 . S
C704 H693 0.950 . S
C704 C702 1.391 . S
C704 C705 1.400 . S
C705 C699 1.491 . S
C705 C704 1.400 . S
C705 C706 1.398 . S
C706 H694 0.950 . S
C706 C705 1.398 . S
C706 C707 1.391 . S
C707 H695 0.950 . S
C707 C703 1.393 . S
C707 C706 1.391 . S
H708 C716 0.950 . S
H709 C721 0.950 . S
H710 C718 0.950 . S
H711 C720 0.950 . S
H712 C722 0.950 . S
H713 C724 0.950 . S
H714 C726 0.950 . S
H715 C727 0.950 1_554 S
C716 H708 0.950 . S
C716 C717 1.386 . S
C716 C718 1.391 . S
C717 C716 1.386 . S
C717 C721 1.393 . S
C718 H710 0.950 . S
C718 C716 1.391 . S
C718 C719 1.400 . S
C719 C718 1.400 . S
C719 C720 1.398 . S
C719 C725 1.491 . S
C720 H711 0.950 . S
C720 C719 1.398 . S
C720 C721 1.391 . S
C721 H709 0.950 . S
C721 C717 1.393 . S
C721 C720 1.391 . S
C722 H712 0.950 . S
C722 C723 1.386 . S
C722 C724 1.391 . S
C723 C722 1.386 . S
C723 C727 1.393 . S
C724 H713 0.950 . S
C724 C722 1.391 . S
C724 C725 1.400 . S
C725 C719 1.491 . S
C725 C724 1.400 . S
C725 C726 1.398 . S
C726 H714 0.950 . S
C726 C725 1.398 . S
C726 C727 1.391 . S
C727 H715 0.950 1_556 S
C727 C723 1.393 . S
C727 C726 1.391 . S
H728 C736 0.950 . S
H729 C741 0.950 . S
H730 C738 0.950 . S
H731 C740 0.950 . S
H732 C742 0.950 1_554 S
H733 C744 0.950 . S
H734 C746 0.950 . S
H735 C747 0.950 . S
C736 H728 0.950 . S
C736 C737 1.386 . S
C736 C738 1.391 . S
C737 C736 1.386 . S
C737 C741 1.393 . S
C738 H730 0.950 . S
C738 C736 1.391 . S
C738 C739 1.400 . S
C739 C738 1.400 . S
C739 C740 1.398 . S
C739 C745 1.491 . S
C740 H731 0.950 . S
C740 C739 1.398 . S
C740 C741 1.391 . S
C741 H729 0.950 . S
C741 C737 1.393 . S
C741 C740 1.391 . S
C742 H732 0.950 1_556 S
C742 C743 1.386 . S
C742 C744 1.391 . S
C743 C742 1.386 . S
C743 C747 1.393 . S
C744 H733 0.950 . S
C744 C742 1.391 . S
C744 C745 1.400 . S
C745 C739 1.491 . S
C745 C744 1.400 . S
C745 C746 1.398 . S
C746 H734 0.950 . S
C746 C745 1.398 . S
C746 C747 1.391 . S
C747 H735 0.950 . S
C747 C743 1.393 . S
C747 C746 1.391 . S
H748 C756 0.950 . S
H749 C761 0.950 . S
H750 C758 0.950 . S
H751 C760 0.950 . S
H752 C762 0.950 . S
H753 C764 0.950 . S
H754 C766 0.950 . S
H755 C767 0.950 . S
C756 H748 0.950 . S
C756 C757 1.386 . S
C756 C758 1.391 . S
C757 C756 1.386 . S
C757 C761 1.393 . S
C758 H750 0.950 . S
C758 C756 1.391 . S
C758 C759 1.400 . S
C759 C758 1.400 . S
C759 C760 1.398 . S
C759 C765 1.491 . S
C760 H751 0.950 . S
C760 C759 1.398 . S
C760 C761 1.391 . S
C761 H749 0.950 . S
C761 C757 1.393 . S
C761 C760 1.391 . S
C762 H752 0.950 . S
C762 C763 1.386 . S
C762 C764 1.391 . S
C763 C762 1.386 . S
C763 C767 1.393 . S
C764 H753 0.950 . S
C764 C762 1.391 . S
C764 C765 1.400 . S
C765 C759 1.491 . S
C765 C764 1.400 . S
C765 C766 1.398 . S
C766 H754 0.950 . S
C766 C765 1.398 . S
C766 C767 1.391 . S
C767 H755 0.950 . S
C767 C763 1.393 . S
C767 C766 1.391 . S
H768 C776 0.950 . S
H769 C781 0.950 . S
H770 C778 0.950 . S
H771 C780 0.950 . S
H772 C782 0.950 . S
H773 C784 0.950 . S
H774 C786 0.950 . S
H775 C787 0.950 . S
C776 H768 0.950 . S
C776 C777 1.386 . S
C776 C778 1.391 . S
C777 C776 1.386 . S
C777 C781 1.393 . S
C778 H770 0.950 . S
C778 C776 1.391 . S
C778 C779 1.400 . S
C779 C778 1.400 . S
C779 C780 1.398 . S
C779 C785 1.491 . S
C780 H771 0.950 . S
C780 C779 1.398 . S
C780 C781 1.391 . S
C781 H769 0.950 . S
C781 C777 1.393 . S
C781 C780 1.391 . S
C782 H772 0.950 . S
C782 C783 1.386 . S
C782 C784 1.391 . S
C783 C782 1.386 . S
C783 C787 1.393 . S
C784 H773 0.950 . S
C784 C782 1.391 . S
C784 C785 1.400 . S
C785 C779 1.491 . S
C785 C784 1.400 . S
C785 C786 1.398 . S
C786 H774 0.950 . S
C786 C785 1.398 . S
C786 C787 1.391 . S
C787 H775 0.950 . S
C787 C783 1.393 . S
C787 C786 1.391 . S
H788 C796 0.950 . S
H789 C801 0.950 . S
H790 C798 0.950 . S
H791 C800 0.950 . S
H792 C802 0.950 . S
H793 C804 0.950 . S
H794 C806 0.950 . S
H795 C807 0.950 . S
C796 H788 0.950 . S
C796 C797 1.386 . S
C796 C798 1.391 . S
C797 C796 1.386 . S
C797 C801 1.393 . S
C798 H790 0.950 . S
C798 C796 1.391 . S
C798 C799 1.400 . S
C799 C798 1.400 . S
C799 C800 1.398 . S
C799 C805 1.491 . S
C800 H791 0.950 . S
C800 C799 1.398 . S
C800 C801 1.391 . S
C801 H789 0.950 . S
C801 C797 1.393 . S
C801 C800 1.391 . S
C802 H792 0.950 . S
C802 C803 1.386 . S
C802 C804 1.391 . S
C803 C802 1.386 . S
C803 C807 1.393 . S
C804 H793 0.950 . S
C804 C802 1.391 . S
C804 C805 1.400 . S
C805 C799 1.491 . S
C805 C804 1.400 . S
C805 C806 1.398 . S
C806 H794 0.950 . S
C806 C805 1.398 . S
C806 C807 1.391 . S
C807 H795 0.950 . S
C807 C803 1.393 . S
C807 C806 1.391 . S
H808 C816 0.950 . S
H809 C821 0.950 . S
H810 C818 0.950 . S
H811 C820 0.950 . S
H812 C822 0.950 . S
H813 C824 0.950 . S
H814 C826 0.950 . S
H815 C827 0.950 . S
C816 H808 0.950 . S
C816 C817 1.386 . S
C816 C818 1.391 . S
C817 C816 1.386 . S
C817 C821 1.393 . S
C818 H810 0.950 . S
C818 C816 1.391 . S
C818 C819 1.400 . S
C819 C818 1.400 . S
C819 C820 1.398 . S
C819 C825 1.491 . S
C820 H811 0.950 . S
C820 C819 1.398 . S
C820 C821 1.391 . S
C821 H809 0.950 . S
C821 C817 1.393 . S
C821 C820 1.391 . S
C822 H812 0.950 . S
C822 C823 1.386 . S
C822 C824 1.391 . S
C823 C822 1.386 . S
C823 C827 1.393 . S
C824 H813 0.950 . S
C824 C822 1.391 . S
C824 C825 1.400 . S
C825 C819 1.491 . S
C825 C824 1.400 . S
C825 C826 1.398 . S
C826 H814 0.950 . S
C826 C825 1.398 . S
C826 C827 1.391 . S
C827 H815 0.950 . S
C827 C823 1.393 . S
C827 C826 1.391 . S
H828 C836 0.950 . S
H829 C841 0.950 . S
H830 C838 0.950 . S
H831 C840 0.950 . S
H832 C842 0.949 1_554 S
H833 C844 0.950 . S
H834 C846 0.950 . S
H835 C847 0.950 . S
C836 H828 0.950 . S
C836 C837 1.386 . S
C836 C838 1.391 . S
C837 C836 1.386 . S
C837 C841 1.393 . S
C838 H830 0.950 . S
C838 C836 1.391 . S
C838 C839 1.400 . S
C839 C838 1.400 . S
C839 C840 1.398 . S
C839 C845 1.491 . S
C840 H831 0.950 . S
C840 C839 1.398 . S
C840 C841 1.391 . S
C841 H829 0.950 . S
C841 C837 1.393 . S
C841 C840 1.391 . S
C842 H832 0.949 1_556 S
C842 C843 1.386 1_556 S
C842 C844 1.391 . S
C843 C842 1.386 1_554 S
C843 C847 1.393 1_554 S
C844 H833 0.950 . S
C844 C842 1.391 . S
C844 C845 1.400 . S
C845 C839 1.491 . S
C845 C844 1.400 . S
C845 C846 1.398 . S
C846 H834 0.950 . S
C846 C845 1.398 . S
C846 C847 1.391 . S
C847 H835 0.950 . S
C847 C843 1.393 1_556 S
C847 C846 1.391 . S
H848 C856 0.950 . S
H849 C861 0.950 . S
H850 C858 0.950 . S
H851 C860 0.950 . S
H852 C862 0.950 . S
H853 C864 0.950 . S
H854 C866 0.950 . S
H855 C867 0.950 . S
C856 H848 0.950 . S
C856 C857 1.386 1_556 S
C856 C858 1.391 . S
C857 C856 1.386 1_554 S
C857 C861 1.393 . S
C858 H850 0.950 . S
C858 C856 1.391 . S
C858 C859 1.400 . S
C859 C858 1.400 . S
C859 C860 1.398 . S
C859 C865 1.491 . S
C860 H851 0.950 . S
C860 C859 1.398 . S
C860 C861 1.391 1_556 S
C861 H849 0.950 . S
C861 C857 1.393 . S
C861 C860 1.391 1_554 S
C862 H852 0.950 . S
C862 C863 1.386 . S
C862 C864 1.391 . S
C863 C862 1.386 . S
C863 C867 1.393 . S
C864 H853 0.950 . S
C864 C862 1.391 . S
C864 C865 1.400 . S
C865 C859 1.491 . S
C865 C864 1.400 . S
C865 C866 1.398 . S
C866 H854 0.950 . S
C866 C865 1.398 . S
C866 C867 1.391 . S
C867 H855 0.950 . S
C867 C863 1.393 . S
C867 C866 1.391 . S
H868 C876 0.950 . S
H869 C881 0.950 . S
H870 C878 0.950 . S
H871 C880 0.950 . S
H872 C882 0.950 . S
H873 C884 0.950 . S
H874 C886 0.950 . S
H875 C887 0.950 . S
C876 H868 0.950 . S
C876 C877 1.386 1_556 S
C876 C878 1.391 . S
C877 C876 1.386 1_554 S
C877 C881 1.393 . S
C878 H870 0.950 . S
C878 C876 1.391 . S
C878 C879 1.400 . S
C879 C878 1.400 . S
C879 C880 1.398 . S
C879 C885 1.491 . S
C880 H871 0.950 . S
C880 C879 1.398 . S
C880 C881 1.391 1_556 S
C881 H869 0.950 . S
C881 C877 1.393 . S
C881 C880 1.391 1_554 S
C882 H872 0.950 . S
C882 C883 1.386 . S
C882 C884 1.391 . S
C883 C882 1.386 . S
C883 C887 1.393 . S
C884 H873 0.950 . S
C884 C882 1.391 . S
C884 C885 1.400 . S
C885 C879 1.491 . S
C885 C884 1.400 . S
C885 C886 1.398 . S
C886 H874 0.950 . S
C886 C885 1.398 . S
C886 C887 1.391 . S
C887 H875 0.950 . S
C887 C883 1.393 . S
C887 C886 1.391 . S
H888 C896 0.950 . S
H889 C901 0.950 . S
H890 C898 0.950 . S
H891 C900 0.950 . S
H892 C902 0.950 . S
H893 C904 0.950 . S
H894 C906 0.950 . S
H895 C907 0.950 . S
C896 H888 0.950 . S
C896 C897 1.386 . S
C896 C898 1.391 . S
C897 C896 1.386 . S
C897 C901 1.393 . S
C898 H890 0.950 . S
C898 C896 1.391 . S
C898 C899 1.400 . S
C899 C898 1.400 . S
C899 C900 1.398 . S
C899 C905 1.491 . S
C900 H891 0.950 . S
C900 C899 1.398 . S
C900 C901 1.391 . S
C901 H889 0.950 . S
C901 C897 1.393 . S
C901 C900 1.391 . S
C902 H892 0.950 . S
C902 C903 1.386 . S
C902 C904 1.391 . S
C903 C902 1.386 . S
C903 C907 1.393 . S
C904 H893 0.950 . S
C904 C902 1.391 . S
C904 C905 1.400 . S
C905 C899 1.491 . S
C905 C904 1.400 . S
C905 C906 1.398 . S
C906 H894 0.950 . S
C906 C905 1.398 . S
C906 C907 1.391 . S
C907 H895 0.950 . S
C907 C903 1.393 . S
C907 C906 1.391 . S
H908 C916 0.950 . S
H909 C921 0.950 . S
H910 C918 0.950 . S
H911 C920 0.950 . S
H912 C922 0.950 . S
H913 C924 0.950 . S
H914 C926 0.950 . S
H915 C927 0.950 . S
C916 H908 0.950 . S
C916 C917 1.386 . S
C916 C918 1.391 . S
C917 C916 1.386 . S
C917 C921 1.393 . S
C918 H910 0.950 . S
C918 C916 1.391 . S
C918 C919 1.400 . S
C919 C918 1.400 . S
C919 C920 1.398 . S
C919 C925 1.491 . S
C920 H911 0.950 . S
C920 C919 1.398 . S
C920 C921 1.391 . S
C921 H909 0.950 . S
C921 C917 1.393 . S
C921 C920 1.391 . S
C922 H912 0.950 . S
C922 C923 1.386 . S
C922 C924 1.391 . S
C923 C922 1.386 . S
C923 C927 1.393 . S
C924 H913 0.950 . S
C924 C922 1.391 . S
C924 C925 1.400 . S
C925 C919 1.491 . S
C925 C924 1.400 . S
C925 C926 1.398 . S
C926 H914 0.950 . S
C926 C925 1.398 . S
C926 C927 1.391 . S
C927 H915 0.950 . S
C927 C923 1.393 . S
C927 C926 1.391 . S
H928 C936 0.950 . S
H929 C941 0.950 . S
H930 C938 0.950 . S
H931 C940 0.950 . S
H932 C942 0.950 . S
H933 C944 0.950 . S
H934 C946 0.950 . S
H935 C947 0.950 . S
C936 H928 0.950 . S
C936 C937 1.386 . S
C936 C938 1.391 . S
C937 C936 1.386 . S
C937 C941 1.393 . S
C938 H930 0.950 . S
C938 C936 1.391 . S
C938 C939 1.400 . S
C939 C938 1.400 . S
C939 C940 1.398 . S
C939 C945 1.491 . S
C940 H931 0.950 . S
C940 C939 1.398 . S
C940 C941 1.391 . S
C941 H929 0.950 . S
C941 C937 1.393 . S
C941 C940 1.391 . S
C942 H932 0.950 . S
C942 C943 1.386 . S
C942 C944 1.391 . S
C943 C942 1.386 . S
C943 C947 1.393 . S
C944 H933 0.950 . S
C944 C942 1.391 . S
C944 C945 1.400 . S
C945 C939 1.491 . S
C945 C944 1.400 . S
C945 C946 1.398 . S
C946 H934 0.950 . S
C946 C945 1.398 . S
C946 C947 1.391 . S
C947 H935 0.950 . S
C947 C943 1.393 . S
C947 C946 1.391 . S
H948 C956 0.950 . S
H949 C961 0.950 . S
H950 C958 0.950 . S
H951 C960 0.950 . S
H952 C962 0.950 . S
H953 C964 0.950 . S
H954 C966 0.950 . S
H955 C967 0.950 . S
C956 H948 0.950 . S
C956 C957 1.386 . S
C956 C958 1.391 1_556 S
C957 C956 1.386 . S
C957 C961 1.393 1_556 S
C958 H950 0.950 . S
C958 C956 1.391 1_554 S
C958 C959 1.400 . S
C959 C958 1.400 . S
C959 C960 1.398 . S
C959 C965 1.491 . S
C960 H951 0.950 . S
C960 C959 1.398 . S
C960 C961 1.391 . S
C961 H949 0.950 . S
C961 C957 1.393 1_554 S
C961 C960 1.391 . S
C962 H952 0.950 . S
C962 C963 1.386 . S
C962 C964 1.391 . S
C963 C962 1.386 . S
C963 C967 1.393 . S
C964 H953 0.950 . S
C964 C962 1.391 . S
C964 C965 1.400 . S
C965 C959 1.491 . S
C965 C964 1.400 . S
C965 C966 1.398 . S
C966 H954 0.950 . S
C966 C965 1.398 . S
C966 C967 1.391 . S
C967 H955 0.950 . S
C967 C963 1.393 . S
C967 C966 1.391 . S
H968 C976 0.950 . S
H969 C981 0.950 . S
H970 C978 0.950 . S
H971 C980 0.950 . S
H972 C982 0.950 . S
H973 C984 0.950 . S
H974 C986 0.950 . S
H975 C987 0.950 . S
C976 H968 0.950 . S
C976 C977 1.386 1_554 S
C976 C978 1.391 . S
C977 C976 1.386 1_556 S
C977 C981 1.393 . S
C978 H970 0.950 . S
C978 C976 1.391 . S
C978 C979 1.400 . S
C979 C978 1.400 . S
C979 C980 1.398 . S
C979 C985 1.491 . S
C980 H971 0.950 . S
C980 C979 1.398 . S
C980 C981 1.391 1_554 S
C981 H969 0.950 . S
C981 C977 1.393 . S
C981 C980 1.391 1_556 S
C982 H972 0.950 . S
C982 C983 1.386 . S
C982 C984 1.391 . S
C983 C982 1.386 . S
C983 C987 1.393 . S
C984 H973 0.950 . S
C984 C982 1.391 . S
C984 C985 1.400 . S
C985 C979 1.491 . S
C985 C984 1.400 . S
C985 C986 1.398 . S
C986 H974 0.950 . S
C986 C985 1.398 . S
C986 C987 1.391 . S
C987 H975 0.950 . S
C987 C983 1.393 . S
C987 C986 1.391 . S
H988 C996 0.950 . S
H989 C1001 0.950 . S
H990 C998 0.950 . S
H991 C1000 0.950 . S
H992 C1002 0.950 . S
H993 C1004 0.950 . S
H994 C1006 0.950 . S
H995 C1007 0.950 . S
C996 H988 0.950 . S
C996 C997 1.386 . S
C996 C998 1.391 . S
C997 C996 1.386 . S
C997 C1001 1.393 . S
C998 H990 0.950 . S
C998 C996 1.391 . S
C998 C999 1.400 . S
C999 C998 1.400 . S
C999 C1000 1.398 . S
C999 C1005 1.491 . S
C1000 H991 0.950 . S
C1000 C999 1.398 . S
C1000 C1001 1.391 . S
C1001 H989 0.950 . S
C1001 C997 1.393 . S
C1001 C1000 1.391 . S
C1002 H992 0.950 . S
C1002 C1003 1.386 . S
C1002 C1004 1.391 1_556 S
C1003 C1002 1.386 . S
C1003 C1007 1.393 1_556 S
C1004 H993 0.950 . S
C1004 C1002 1.391 1_554 S
C1004 C1005 1.400 . S
C1005 C999 1.491 . S
C1005 C1004 1.400 . S
C1005 C1006 1.398 . S
C1006 H994 0.950 . S
C1006 C1005 1.398 . S
C1006 C1007 1.391 . S
C1007 H995 0.950 . S
C1007 C1003 1.393 1_554 S
C1007 C1006 1.391 . S
H1008 C1016 0.950 . S
H1009 C1021 0.950 . S
H1010 C1018 0.950 . S
H1011 C1020 0.950 . S
H1012 C1022 0.950 . S
H1013 C1024 0.950 . S
H1014 C1026 0.950 . S
H1015 C1027 0.950 . S
C1016 H1008 0.950 . S
C1016 C1017 1.386 . S
C1016 C1018 1.391 . S
C1017 C1016 1.386 . S
C1017 C1021 1.393 . S
C1018 H1010 0.950 . S
C1018 C1016 1.391 . S
C1018 C1019 1.400 . S
C1019 C1018 1.400 . S
C1019 C1020 1.398 . S
C1019 C1025 1.491 . S
C1020 H1011 0.950 . S
C1020 C1019 1.398 . S
C1020 C1021 1.391 . S
C1021 H1009 0.950 . S
C1021 C1017 1.393 . S
C1021 C1020 1.391 . S
C1022 H1012 0.950 . S
C1022 C1023 1.386 . S
C1022 C1024 1.391 . S
C1023 C1022 1.386 . S
C1023 C1027 1.393 . S
C1024 H1013 0.950 . S
C1024 C1022 1.391 . S
C1024 C1025 1.400 . S
C1025 C1019 1.491 . S
C1025 C1024 1.400 . S
C1025 C1026 1.398 . S
C1026 H1014 0.950 . S
C1026 C1025 1.398 . S
C1026 C1027 1.391 . S
C1027 H1015 0.950 . S
C1027 C1023 1.393 . S
C1027 C1026 1.391 . S
H1028 C1036 0.950 . S
H1029 C1041 0.950 . S
H1030 C1038 0.950 . S
H1031 C1040 0.950 . S
H1032 C1042 0.950 . S
H1033 C1044 0.950 . S
H1034 C1046 0.950 . S
H1035 C1047 0.950 . S
C1036 H1028 0.950 . S
C1036 C1037 1.386 . S
C1036 C1038 1.391 . S
C1037 C1036 1.386 . S
C1037 C1041 1.393 . S
C1038 H1030 0.950 . S
C1038 C1036 1.391 . S
C1038 C1039 1.400 . S
C1039 C1038 1.400 . S
C1039 C1040 1.398 . S
C1039 C1045 1.491 . S
C1040 H1031 0.950 . S
C1040 C1039 1.398 . S
C1040 C1041 1.391 . S
C1041 H1029 0.950 . S
C1041 C1037 1.393 . S
C1041 C1040 1.391 . S
C1042 H1032 0.950 . S
C1042 C1043 1.386 . S
C1042 C1044 1.391 . S
C1043 C1042 1.386 . S
C1043 C1047 1.393 . S
C1044 H1033 0.950 . S
C1044 C1042 1.391 . S
C1044 C1045 1.400 . S
C1045 C1039 1.491 . S
C1045 C1044 1.400 . S
C1045 C1046 1.398 . S
C1046 H1034 0.950 . S
C1046 C1045 1.398 . S
C1046 C1047 1.391 . S
C1047 H1035 0.950 . S
C1047 C1043 1.393 . S
C1047 C1046 1.391 . S
H1048 C1056 0.950 . S
H1049 C1061 0.950 . S
H1050 C1058 0.950 . S
H1051 C1060 0.950 . S
H1052 C1062 0.950 . S
H1053 C1064 0.950 . S
H1054 C1066 0.950 . S
H1055 C1067 0.950 . S
C1056 H1048 0.950 . S
C1056 C1057 1.386 . S
C1056 C1058 1.391 . S
C1057 C1056 1.386 . S
C1057 C1061 1.393 . S
C1058 H1050 0.950 . S
C1058 C1056 1.391 . S
C1058 C1059 1.400 . S
C1059 C1058 1.400 . S
C1059 C1060 1.398 . S
C1059 C1065 1.491 . S
C1060 H1051 0.950 . S
C1060 C1059 1.398 . S
C1060 C1061 1.391 . S
C1061 H1049 0.950 . S
C1061 C1057 1.393 . S
C1061 C1060 1.391 . S
C1062 H1052 0.950 . S
C1062 C1063 1.386 . S
C1062 C1064 1.391 . S
C1063 C1062 1.386 . S
C1063 C1067 1.393 . S
C1064 H1053 0.950 . S
C1064 C1062 1.391 . S
C1064 C1065 1.400 . S
C1065 C1059 1.491 . S
C1065 C1064 1.400 . S
C1065 C1066 1.398 . S
C1066 H1054 0.950 . S
C1066 C1065 1.398 . S
C1066 C1067 1.391 . S
C1067 H1055 0.950 . S
C1067 C1063 1.393 . S
C1067 C1066 1.391 . S
H1068 C1076 0.950 . S
H1069 C1081 0.950 . S
H1070 C1078 0.950 . S
H1071 C1080 0.950 . S
H1072 C1082 0.950 . S
H1073 C1084 0.950 . S
H1074 C1086 0.950 . S
H1075 C1087 0.950 . S
C1076 H1068 0.950 . S
C1076 C1077 1.386 . S
C1076 C1078 1.391 . S
C1077 C1076 1.386 . S
C1077 C1081 1.393 . S
C1078 H1070 0.950 . S
C1078 C1076 1.391 . S
C1078 C1079 1.400 . S
C1079 C1078 1.400 . S
C1079 C1080 1.398 . S
C1079 C1085 1.491 . S
C1080 H1071 0.950 . S
C1080 C1079 1.398 . S
C1080 C1081 1.391 . S
C1081 H1069 0.950 . S
C1081 C1077 1.393 . S
C1081 C1080 1.391 . S
C1082 H1072 0.950 . S
C1082 C1083 1.386 . S
C1082 C1084 1.391 . S
C1083 C1082 1.386 . S
C1083 C1087 1.393 . S
C1084 H1073 0.950 . S
C1084 C1082 1.391 . S
C1084 C1085 1.400 . S
C1085 C1079 1.491 . S
C1085 C1084 1.400 . S
C1085 C1086 1.398 . S
C1086 H1074 0.950 . S
C1086 C1085 1.398 . S
C1086 C1087 1.391 . S
C1087 H1075 0.950 . S
C1087 C1083 1.393 . S
C1087 C1086 1.391 . S
H1088 C1096 0.950 . S
H1089 C1101 0.950 . S
H1090 C1098 0.950 . S
H1091 C1100 0.950 . S
H1092 C1102 0.950 . S
H1093 C1104 0.950 . S
H1094 C1106 0.950 . S
H1095 C1107 0.950 . S
C1096 H1088 0.950 . S
C1096 C1097 1.386 . S
C1096 C1098 1.391 . S
C1097 C1096 1.386 . S
C1097 C1101 1.393 . S
C1098 H1090 0.950 . S
C1098 C1096 1.391 . S
C1098 C1099 1.400 . S
C1099 C1098 1.400 . S
C1099 C1100 1.398 . S
C1099 C1105 1.491 . S
C1100 H1091 0.950 . S
C1100 C1099 1.398 . S
C1100 C1101 1.391 . S
C1101 H1089 0.950 . S
C1101 C1097 1.393 . S
C1101 C1100 1.391 . S
C1102 H1092 0.950 . S
C1102 C1103 1.386 . S
C1102 C1104 1.391 . S
C1103 C1102 1.386 . S
C1103 C1107 1.393 . S
C1104 H1093 0.950 . S
C1104 C1102 1.391 . S
C1104 C1105 1.400 . S
C1105 C1099 1.491 . S
C1105 C1104 1.400 . S
C1105 C1106 1.398 . S
C1106 H1094 0.950 . S
C1106 C1105 1.398 . S
C1106 C1107 1.391 . S
C1107 H1095 0.950 . S
C1107 C1103 1.393 . S
C1107 C1106 1.391 . S
H1108 C1116 0.950 . S
H1109 C1121 0.950 . S
H1110 C1118 0.950 . S
H1111 C1120 0.950 . S
H1112 C1122 0.950 . S
H1113 C1124 0.950 . S
H1114 C1126 0.950 . S
H1115 C1127 0.950 . S
C1116 H1108 0.950 . S
C1116 C1117 1.386 . S
C1116 C1118 1.391 . S
C1117 C1116 1.386 . S
C1117 C1121 1.393 . S
C1118 H1110 0.950 . S
C1118 C1116 1.391 . S
C1118 C1119 1.400 . S
C1119 C1118 1.400 . S
C1119 C1120 1.398 . S
C1119 C1125 1.491 . S
C1120 H1111 0.950 . S
C1120 C1119 1.398 . S
C1120 C1121 1.391 . S
C1121 H1109 0.950 . S
C1121 C1117 1.393 . S
C1121 C1120 1.391 . S
C1122 H1112 0.950 . S
C1122 C1123 1.386 . S
C1122 C1124 1.391 . S
C1123 C1122 1.386 . S
C1123 C1127 1.393 . S
C1124 H1113 0.950 . S
C1124 C1122 1.391 . S
C1124 C1125 1.400 . S
C1125 C1119 1.491 . S
C1125 C1124 1.400 . S
C1125 C1126 1.398 . S
C1126 H1114 0.950 . S
C1126 C1125 1.398 . S
C1126 C1127 1.391 . S
C1127 H1115 0.950 . S
C1127 C1123 1.393 . S
C1127 C1126 1.391 . S
H1128 C1136 0.950 . S
H1129 C1141 0.950 . S
H1130 C1138 0.950 . S
H1131 C1140 0.950 . S
H1132 C1142 0.950 . S
H1133 C1144 0.950 . S
H1134 C1146 0.950 . S
H1135 C1147 0.950 . S
C1136 H1128 0.950 . S
C1136 C1137 1.386 . S
C1136 C1138 1.391 . S
C1137 C1136 1.386 . S
C1137 C1141 1.393 . S
C1138 H1130 0.950 . S
C1138 C1136 1.391 . S
C1138 C1139 1.400 . S
C1139 C1138 1.400 . S
C1139 C1140 1.398 . S
C1139 C1145 1.491 . S
C1140 H1131 0.950 . S
C1140 C1139 1.398 . S
C1140 C1141 1.391 . S
C1141 H1129 0.950 . S
C1141 C1137 1.393 . S
C1141 C1140 1.391 . S
C1142 H1132 0.950 . S
C1142 C1143 1.386 . S
C1142 C1144 1.391 1_554 S
C1143 C1142 1.386 . S
C1143 C1147 1.393 . S
C1144 H1133 0.950 . S
C1144 C1142 1.391 1_556 S
C1144 C1145 1.400 . S
C1145 C1139 1.491 . S
C1145 C1144 1.400 . S
C1145 C1146 1.398 1_556 S
C1146 H1134 0.950 . S
C1146 C1145 1.398 1_554 S
C1146 C1147 1.391 . S
C1147 H1135 0.950 . S
C1147 C1143 1.393 . S
C1147 C1146 1.391 . S
H1148 C1156 0.950 . S
H1149 C1161 0.950 . S
H1150 C1158 0.950 . S
H1151 C1160 0.950 . S
H1152 C1162 0.950 . S
H1153 C1164 0.950 . S
H1154 C1166 0.950 . S
H1155 C1167 0.950 . S
C1156 H1148 0.950 . S
C1156 C1157 1.386 . S
C1156 C1158 1.391 1_554 S
C1157 C1156 1.386 . S
C1157 C1161 1.393 . S
C1158 H1150 0.950 . S
C1158 C1156 1.391 1_556 S
C1158 C1159 1.400 . S
C1159 C1158 1.400 . S
C1159 C1160 1.398 1_556 S
C1159 C1165 1.491 . S
C1160 H1151 0.950 . S
C1160 C1159 1.398 1_554 S
C1160 C1161 1.391 . S
C1161 H1149 0.950 . S
C1161 C1157 1.393 . S
C1161 C1160 1.391 . S
C1162 H1152 0.950 . S
C1162 C1163 1.386 . S
C1162 C1164 1.391 . S
C1163 C1162 1.386 . S
C1163 C1167 1.393 . S
C1164 H1153 0.950 . S
C1164 C1162 1.391 . S
C1164 C1165 1.400 . S
C1165 C1159 1.491 . S
C1165 C1164 1.400 . S
C1165 C1166 1.398 . S
C1166 H1154 0.950 . S
C1166 C1165 1.398 . S
C1166 C1167 1.391 . S
C1167 H1155 0.950 . S
C1167 C1163 1.393 . S
C1167 C1166 1.391 . S
H1168 C1176 0.950 . S
H1169 C1181 0.950 . S
H1170 C1178 0.950 . S
H1171 C1180 0.950 . S
H1172 C1182 0.950 . S
H1173 C1184 0.950 . S
H1174 C1186 0.950 . S
H1175 C1187 0.950 . S
C1176 H1168 0.950 . S
C1176 C1177 1.386 . S
C1176 C1178 1.391 . S
C1177 C1176 1.386 . S
C1177 C1181 1.393 . S
C1178 H1170 0.950 . S
C1178 C1176 1.391 . S
C1178 C1179 1.400 . S
C1179 C1178 1.400 . S
C1179 C1180 1.398 . S
C1179 C1185 1.491 . S
C1180 H1171 0.950 . S
C1180 C1179 1.398 . S
C1180 C1181 1.391 . S
C1181 H1169 0.950 . S
C1181 C1177 1.393 . S
C1181 C1180 1.391 . S
C1182 H1172 0.950 . S
C1182 C1183 1.386 . S
C1182 C1184 1.391 . S
C1183 C1182 1.386 . S
C1183 C1187 1.393 . S
C1184 H1173 0.950 . S
C1184 C1182 1.391 . S
C1184 C1185 1.400 1_554 S
C1185 C1179 1.491 . S
C1185 C1184 1.400 1_556 S
C1185 C1186 1.398 . S
C1186 H1174 0.950 . S
C1186 C1185 1.398 . S
C1186 C1187 1.391 1_556 S
C1187 H1175 0.950 . S
C1187 C1183 1.393 . S
C1187 C1186 1.391 1_554 S
H1188 C1196 0.950 . S
H1189 C1201 0.950 . S
H1190 C1198 0.950 . S
H1191 C1200 0.950 . S
H1192 C1202 0.950 . S
H1193 C1204 0.950 . S
H1194 C1206 0.950 . S
H1195 C1207 0.950 . S
C1196 H1188 0.950 . S
C1196 C1197 1.386 . S
C1196 C1198 1.391 . S
C1197 C1196 1.386 . S
C1197 C1201 1.393 . S
C1198 H1190 0.950 . S
C1198 C1196 1.391 . S
C1198 C1199 1.400 . S
C1199 C1198 1.400 . S
C1199 C1200 1.398 . S
C1199 C1205 1.491 . S
C1200 H1191 0.950 . S
C1200 C1199 1.398 . S
C1200 C1201 1.391 . S
C1201 H1189 0.950 . S
C1201 C1197 1.393 . S
C1201 C1200 1.391 . S
C1202 H1192 0.950 . S
C1202 C1203 1.386 . S
C1202 C1204 1.391 . S
C1203 C1202 1.386 . S
C1203 C1207 1.393 . S
C1204 H1193 0.950 . S
C1204 C1202 1.391 . S
C1204 C1205 1.400 . S
C1205 C1199 1.491 . S
C1205 C1204 1.400 . S
C1205 C1206 1.398 . S
C1206 H1194 0.950 . S
C1206 C1205 1.398 . S
C1206 C1207 1.391 . S
C1207 H1195 0.950 . S
C1207 C1203 1.393 . S
C1207 C1206 1.391 . S
H1208 C1216 0.950 . S
H1209 C1221 0.950 . S
H1210 C1218 0.950 . S
H1211 C1220 0.950 . S
H1212 C1222 0.950 . S
H1213 C1224 0.950 . S
H1214 C1226 0.950 . S
H1215 C1227 0.950 . S
C1216 H1208 0.950 . S
C1216 C1217 1.386 . S
C1216 C1218 1.391 . S
C1217 C1216 1.386 . S
C1217 C1221 1.393 . S
C1218 H1210 0.950 . S
C1218 C1216 1.391 . S
C1218 C1219 1.400 . S
C1219 C1218 1.400 . S
C1219 C1220 1.398 . S
C1219 C1225 1.491 . S
C1220 H1211 0.950 . S
C1220 C1219 1.398 . S
C1220 C1221 1.391 . S
C1221 H1209 0.950 . S
C1221 C1217 1.393 . S
C1221 C1220 1.391 . S
C1222 H1212 0.950 . S
C1222 C1223 1.386 . S
C1222 C1224 1.391 . S
C1223 C1222 1.386 . S
C1223 C1227 1.393 . S
C1224 H1213 0.950 . S
C1224 C1222 1.391 . S
C1224 C1225 1.400 . S
C1225 C1219 1.491 . S
C1225 C1224 1.400 . S
C1225 C1226 1.398 . S
C1226 H1214 0.950 . S
C1226 C1225 1.398 . S
C1226 C1227 1.391 . S
C1227 H1215 0.950 . S
C1227 C1223 1.393 . S
C1227 C1226 1.391 . S
H1228 C1236 0.950 . S
H1229 C1241 0.950 . S
H1230 C1238 0.950 . S
H1231 C1240 0.950 . S
H1232 C1242 0.950 . S
H1233 C1244 0.950 . S
H1234 C1246 0.950 . S
H1235 C1247 0.950 . S
C1236 H1228 0.950 . S
C1236 C1237 1.386 . S
C1236 C1238 1.391 . S
C1237 C1236 1.386 . S
C1237 C1241 1.393 . S
C1238 H1230 0.950 . S
C1238 C1236 1.391 . S
C1238 C1239 1.400 . S
C1239 C1238 1.400 . S
C1239 C1240 1.398 . S
C1239 C1245 1.491 . S
C1240 H1231 0.950 . S
C1240 C1239 1.398 . S
C1240 C1241 1.391 . S
C1241 H1229 0.950 . S
C1241 C1237 1.393 . S
C1241 C1240 1.391 . S
C1242 H1232 0.950 . S
C1242 C1243 1.386 . S
C1242 C1244 1.391 . S
C1243 C1242 1.386 . S
C1243 C1247 1.393 . S
C1244 H1233 0.950 . S
C1244 C1242 1.391 . S
C1244 C1245 1.400 . S
C1245 C1239 1.491 . S
C1245 C1244 1.400 . S
C1245 C1246 1.398 . S
C1246 H1234 0.950 . S
C1246 C1245 1.398 . S
C1246 C1247 1.391 . S
C1247 H1235 0.950 . S
C1247 C1243 1.393 . S
C1247 C1246 1.391 . S
H1248 C1256 0.950 . S
H1249 C1261 0.950 . S
H1250 C1258 0.950 . S
H1251 C1260 0.950 . S
H1252 C1262 0.950 . S
H1253 C1264 0.950 . S
H1254 C1266 0.950 . S
H1255 C1267 0.950 . S
C1256 H1248 0.950 . S
C1256 C1257 1.386 . S
C1256 C1258 1.391 . S
C1257 C1256 1.386 . S
C1257 C1261 1.393 . S
C1258 H1250 0.950 . S
C1258 C1256 1.391 . S
C1258 C1259 1.400 . S
C1259 C1258 1.400 . S
C1259 C1260 1.398 . S
C1259 C1265 1.491 . S
C1260 H1251 0.950 . S
C1260 C1259 1.398 . S
C1260 C1261 1.391 . S
C1261 H1249 0.950 . S
C1261 C1257 1.393 . S
C1261 C1260 1.391 . S
C1262 H1252 0.950 . S
C1262 C1263 1.386 . S
C1262 C1264 1.391 . S
C1263 C1262 1.386 . S
C1263 C1267 1.393 . S
C1264 H1253 0.950 . S
C1264 C1262 1.391 . S
C1264 C1265 1.400 . S
C1265 C1259 1.491 . S
C1265 C1264 1.400 . S
C1265 C1266 1.398 . S
C1266 H1254 0.950 . S
C1266 C1265 1.398 . S
C1266 C1267 1.391 . S
C1267 H1255 0.950 . S
C1267 C1263 1.393 . S
C1267 C1266 1.391 . S
H1268 C1276 0.950 . S
H1269 C1281 0.950 . S
H1270 C1278 0.950 . S
H1271 C1280 0.950 . S
H1272 C1282 0.950 . S
H1273 C1284 0.950 . S
H1274 C1286 0.950 . S
H1275 C1287 0.950 . S
C1276 H1268 0.950 . S
C1276 C1277 1.386 . S
C1276 C1278 1.391 . S
C1277 C1276 1.386 . S
C1277 C1281 1.393 . S
C1278 H1270 0.950 . S
C1278 C1276 1.391 . S
C1278 C1279 1.400 . S
C1279 C1278 1.400 . S
C1279 C1280 1.398 . S
C1279 C1285 1.491 . S
C1280 H1271 0.950 . S
C1280 C1279 1.398 . S
C1280 C1281 1.391 . S
C1281 H1269 0.950 . S
C1281 C1277 1.393 . S
C1281 C1280 1.391 . S
C1282 H1272 0.950 . S
C1282 C1283 1.386 . S
C1282 C1284 1.391 . S
C1283 C1282 1.386 . S
C1283 C1287 1.393 . S
C1284 H1273 0.950 . S
C1284 C1282 1.391 . S
C1284 C1285 1.400 . S
C1285 C1279 1.491 . S
C1285 C1284 1.400 . S
C1285 C1286 1.398 . S
C1286 H1274 0.950 . S
C1286 C1285 1.398 . S
C1286 C1287 1.391 . S
C1287 H1275 0.950 . S
C1287 C1283 1.393 . S
C1287 C1286 1.391 . S
H1288 C1296 0.950 . S
H1289 C1301 0.950 . S
H1290 C1298 0.950 . S
H1291 C1300 0.950 . S
H1292 C1302 0.950 . S
H1293 C1304 0.950 . S
H1294 C1306 0.950 . S
H1295 C1307 0.950 . S
C1296 H1288 0.950 . S
C1296 C1297 1.386 . S
C1296 C1298 1.391 . S
C1297 C1296 1.386 . S
C1297 C1301 1.393 . S
C1298 H1290 0.950 . S
C1298 C1296 1.391 . S
C1298 C1299 1.400 . S
C1299 C1298 1.400 . S
C1299 C1300 1.398 . S
C1299 C1305 1.491 . S
C1300 H1291 0.950 . S
C1300 C1299 1.398 . S
C1300 C1301 1.391 . S
C1301 H1289 0.950 . S
C1301 C1297 1.393 . S
C1301 C1300 1.391 . S
C1302 H1292 0.950 . S
C1302 C1303 1.386 . S
C1302 C1304 1.391 . S
C1303 C1302 1.386 . S
C1303 C1307 1.393 . S
C1304 H1293 0.950 . S
C1304 C1302 1.391 . S
C1304 C1305 1.400 . S
C1305 C1299 1.491 . S
C1305 C1304 1.400 . S
C1305 C1306 1.398 . S
C1306 H1294 0.950 . S
C1306 C1305 1.398 . S
C1306 C1307 1.391 . S
C1307 H1295 0.950 . S
C1307 C1303 1.393 . S
C1307 C1306 1.391 . S
H1308 C1316 0.950 . S
H1309 C1321 0.950 . S
H1310 C1318 0.950 . S
H1311 C1320 0.950 . S
H1312 C1322 0.950 . S
H1313 C1324 0.950 . S
H1314 C1326 0.950 . S
H1315 C1327 0.950 . S
C1316 H1308 0.950 . S
C1316 C1317 1.386 . S
C1316 C1318 1.391 . S
C1317 C1316 1.386 . S
C1317 C1321 1.393 . S
C1318 H1310 0.950 . S
C1318 C1316 1.391 . S
C1318 C1319 1.400 . S
C1319 C1318 1.400 . S
C1319 C1320 1.398 . S
C1319 C1325 1.491 . S
C1320 H1311 0.950 . S
C1320 C1319 1.398 . S
C1320 C1321 1.391 . S
C1321 H1309 0.950 . S
C1321 C1317 1.393 . S
C1321 C1320 1.391 . S
C1322 H1312 0.950 . S
C1322 C1323 1.386 . S
C1322 C1324 1.391 . S
C1323 C1322 1.386 . S
C1323 C1327 1.393 . S
C1324 H1313 0.950 . S
C1324 C1322 1.391 . S
C1324 C1325 1.400 . S
C1325 C1319 1.491 . S
C1325 C1324 1.400 . S
C1325 C1326 1.398 . S
C1326 H1314 0.950 . S
C1326 C1325 1.398 . S
C1326 C1327 1.391 . S
C1327 H1315 0.950 . S
C1327 C1323 1.393 . S
C1327 C1326 1.391 . S
H1328 C1336 0.950 . S
H1329 C1341 0.950 . S
H1330 C1338 0.950 . S
H1331 C1340 0.950 . S
H1332 C1342 0.950 . S
H1333 C1344 0.950 . S
H1334 C1346 0.950 . S
H1335 C1347 0.950 . S
C1336 H1328 0.950 . S
C1336 C1337 1.386 . S
C1336 C1338 1.391 . S
C1337 C1336 1.386 . S
C1337 C1341 1.393 . S
C1338 H1330 0.950 . S
C1338 C1336 1.391 . S
C1338 C1339 1.400 . S
C1339 C1338 1.400 . S
C1339 C1340 1.398 . S
C1339 C1345 1.491 . S
C1340 H1331 0.950 . S
C1340 C1339 1.398 . S
C1340 C1341 1.391 . S
C1341 H1329 0.950 . S
C1341 C1337 1.393 . S
C1341 C1340 1.391 . S
C1342 H1332 0.950 . S
C1342 C1343 1.386 . S
C1342 C1344 1.391 . S
C1343 C1342 1.386 . S
C1343 C1347 1.393 . S
C1344 H1333 0.950 . S
C1344 C1342 1.391 . S
C1344 C1345 1.400 . S
C1345 C1339 1.491 . S
C1345 C1344 1.400 . S
C1345 C1346 1.398 . S
C1346 H1334 0.950 . S
C1346 C1345 1.398 . S
C1346 C1347 1.391 . S
C1347 H1335 0.950 . S
C1347 C1343 1.393 . S
C1347 C1346 1.391 . S
H1348 C1356 0.950 . S
H1349 C1361 0.950 . S
H1350 C1358 0.950 . S
H1351 C1360 0.950 . S
H1352 C1362 0.950 . S
H1353 C1364 0.950 . S
H1354 C1366 0.950 . S
H1355 C1367 0.950 . S
C1356 H1348 0.950 . S
C1356 C1357 1.386 . S
C1356 C1358 1.391 . S
C1357 C1356 1.386 . S
C1357 C1361 1.393 . S
C1358 H1350 0.950 . S
C1358 C1356 1.391 . S
C1358 C1359 1.400 . S
C1359 C1358 1.400 . S
C1359 C1360 1.398 . S
C1359 C1365 1.491 . S
C1360 H1351 0.950 . S
C1360 C1359 1.398 . S
C1360 C1361 1.391 . S
C1361 H1349 0.950 . S
C1361 C1357 1.393 . S
C1361 C1360 1.391 . S
C1362 H1352 0.950 . S
C1362 C1363 1.386 . S
C1362 C1364 1.391 . S
C1363 C1362 1.386 . S
C1363 C1367 1.393 . S
C1364 H1353 0.950 . S
C1364 C1362 1.391 . S
C1364 C1365 1.400 . S
C1365 C1359 1.491 . S
C1365 C1364 1.400 . S
C1365 C1366 1.398 . S
C1366 H1354 0.950 . S
C1366 C1365 1.398 . S
C1366 C1367 1.391 . S
C1367 H1355 0.950 . S
C1367 C1363 1.393 . S
C1367 C1366 1.391 . S
H1368 C1376 0.950 . S
H1369 C1381 0.950 . S
H1370 C1378 0.950 . S
H1371 C1380 0.950 . S
H1372 C1382 0.950 . S
H1373 C1384 0.950 . S
H1374 C1386 0.950 . S
H1375 C1387 0.950 . S
C1376 H1368 0.950 . S
C1376 C1377 1.386 . S
C1376 C1378 1.391 . S
C1377 C1376 1.386 . S
C1377 C1381 1.393 . S
C1378 H1370 0.950 . S
C1378 C1376 1.391 . S
C1378 C1379 1.400 . S
C1379 C1378 1.400 . S
C1379 C1380 1.398 . S
C1379 C1385 1.491 . S
C1380 H1371 0.950 . S
C1380 C1379 1.398 . S
C1380 C1381 1.391 . S
C1381 H1369 0.950 . S
C1381 C1377 1.393 . S
C1381 C1380 1.391 . S
C1382 H1372 0.950 . S
C1382 C1383 1.386 . S
C1382 C1384 1.391 . S
C1383 C1382 1.386 . S
C1383 C1387 1.393 . S
C1384 H1373 0.950 . S
C1384 C1382 1.391 . S
C1384 C1385 1.400 . S
C1385 C1379 1.491 . S
C1385 C1384 1.400 . S
C1385 C1386 1.398 . S
C1386 H1374 0.950 . S
C1386 C1385 1.398 . S
C1386 C1387 1.391 . S
C1387 H1375 0.950 . S
C1387 C1383 1.393 . S
C1387 C1386 1.391 . S
H1388 C1396 0.950 . S
H1389 C1401 0.950 . S
H1390 C1398 0.950 . S
H1391 C1400 0.950 . S
H1392 C1402 0.950 . S
H1393 C1404 0.950 . S
H1394 C1406 0.950 . S
H1395 C1407 0.950 . S
C1396 H1388 0.950 . S
C1396 C1397 1.386 . S
C1396 C1398 1.391 . S
C1397 C1396 1.386 . S
C1397 C1401 1.393 . S
C1398 H1390 0.950 . S
C1398 C1396 1.391 . S
C1398 C1399 1.400 . S
C1399 C1398 1.400 . S
C1399 C1400 1.398 . S
C1399 C1405 1.491 . S
C1400 H1391 0.950 . S
C1400 C1399 1.398 . S
C1400 C1401 1.391 . S
C1401 H1389 0.950 . S
C1401 C1397 1.393 . S
C1401 C1400 1.391 . S
C1402 H1392 0.950 . S
C1402 C1403 1.386 . S
C1402 C1404 1.391 . S
C1403 C1402 1.386 . S
C1403 C1407 1.393 . S
C1404 H1393 0.950 . S
C1404 C1402 1.391 . S
C1404 C1405 1.400 . S
C1405 C1399 1.491 . S
C1405 C1404 1.400 . S
C1405 C1406 1.398 . S
C1406 H1394 0.950 . S
C1406 C1405 1.398 . S
C1406 C1407 1.391 . S
C1407 H1395 0.950 . S
C1407 C1403 1.393 . S
C1407 C1406 1.391 . S
H1408 C1416 0.950 . S
H1409 C1421 0.950 . S
H1410 C1418 0.950 . S
H1411 C1420 0.950 . S
H1412 C1422 0.950 . S
H1413 C1424 0.950 . S
H1414 C1426 0.950 . S
H1415 C1427 0.950 . S
C1416 H1408 0.950 . S
C1416 C1417 1.386 . S
C1416 C1418 1.391 . S
C1417 C1416 1.386 . S
C1417 C1421 1.393 . S
C1418 H1410 0.950 . S
C1418 C1416 1.391 . S
C1418 C1419 1.400 . S
C1419 C1418 1.400 . S
C1419 C1420 1.398 . S
C1419 C1425 1.491 . S
C1420 H1411 0.950 . S
C1420 C1419 1.398 . S
C1420 C1421 1.391 . S
C1421 H1409 0.950 . S
C1421 C1417 1.393 . S
C1421 C1420 1.391 . S
C1422 H1412 0.950 . S
C1422 C1423 1.386 . S
C1422 C1424 1.391 . S
C1423 C1422 1.386 . S
C1423 C1427 1.393 . S
C1424 H1413 0.950 . S
C1424 C1422 1.391 . S
C1424 C1425 1.400 . S
C1425 C1419 1.491 . S
C1425 C1424 1.400 . S
C1425 C1426 1.398 . S
C1426 H1414 0.950 . S
C1426 C1425 1.398 . S
C1426 C1427 1.391 . S
C1427 H1415 0.950 . S
C1427 C1423 1.393 . S
C1427 C1426 1.391 . S
H1428 C1436 0.950 . S
H1429 C1441 0.950 . S
H1430 C1438 0.950 . S
H1431 C1440 0.950 . S
H1432 C1442 0.950 . S
H1433 C1444 0.950 . S
H1434 C1446 0.950 . S
H1435 C1447 0.950 . S
C1436 H1428 0.950 . S
C1436 C1437 1.386 . S
C1436 C1438 1.391 . S
C1437 C1436 1.386 . S
C1437 C1441 1.393 . S
C1438 H1430 0.950 . S
C1438 C1436 1.391 . S
C1438 C1439 1.400 . S
C1439 C1438 1.400 . S
C1439 C1440 1.398 . S
C1439 C1445 1.491 . S
C1440 H1431 0.950 . S
C1440 C1439 1.398 . S
C1440 C1441 1.391 . S
C1441 H1429 0.950 . S
C1441 C1437 1.393 . S
C1441 C1440 1.391 . S
C1442 H1432 0.950 . S
C1442 C1443 1.386 . S
C1442 C1444 1.391 . S
C1443 C1442 1.386 . S
C1443 C1447 1.393 . S
C1444 H1433 0.950 . S
C1444 C1442 1.391 . S
C1444 C1445 1.400 . S
C1445 C1439 1.491 . S
C1445 C1444 1.400 . S
C1445 C1446 1.398 . S
C1446 H1434 0.950 . S
C1446 C1445 1.398 . S
C1446 C1447 1.391 . S
C1447 H1435 0.950 . S
C1447 C1443 1.393 . S
C1447 C1446 1.391 . S
H1448 C1456 0.950 . S
H1449 C1461 0.950 . S
H1450 C1458 0.950 . S
H1451 C1460 0.950 . S
H1452 C1462 0.950 . S
H1453 C1464 0.950 . S
H1454 C1466 0.950 . S
H1455 C1467 0.950 . S
C1456 H1448 0.950 . S
C1456 C1457 1.386 . S
C1456 C1458 1.391 . S
C1457 C1456 1.386 . S
C1457 C1461 1.393 . S
C1458 H1450 0.950 . S
C1458 C1456 1.391 . S
C1458 C1459 1.400 . S
C1459 C1458 1.400 . S
C1459 C1460 1.398 . S
C1459 C1465 1.491 . S
C1460 H1451 0.950 . S
C1460 C1459 1.398 . S
C1460 C1461 1.391 . S
C1461 H1449 0.950 . S
C1461 C1457 1.393 . S
C1461 C1460 1.391 . S
C1462 H1452 0.950 . S
C1462 C1463 1.386 . S
C1462 C1464 1.391 . S
C1463 C1462 1.386 . S
C1463 C1467 1.393 . S
C1464 H1453 0.950 . S
C1464 C1462 1.391 . S
C1464 C1465 1.400 . S
C1465 C1459 1.491 . S
C1465 C1464 1.400 . S
C1465 C1466 1.398 . S
C1466 H1454 0.950 . S
C1466 C1465 1.398 . S
C1466 C1467 1.391 . S
C1467 H1455 0.950 . S
C1467 C1463 1.393 . S
C1467 C1466 1.391 . S
H1468 C1476 0.950 . S
H1469 C1481 0.950 . S
H1470 C1478 0.950 . S
H1471 C1480 0.950 . S
H1472 C1482 0.950 . S
H1473 C1484 0.950 . S
H1474 C1486 0.950 . S
H1475 C1487 0.950 . S
C1476 H1468 0.950 . S
C1476 C1477 1.386 . S
C1476 C1478 1.391 . S
C1477 C1476 1.386 . S
C1477 C1481 1.393 . S
C1478 H1470 0.950 . S
C1478 C1476 1.391 . S
C1478 C1479 1.400 . S
C1479 C1478 1.400 . S
C1479 C1480 1.398 . S
C1479 C1485 1.491 . S
C1480 H1471 0.950 . S
C1480 C1479 1.398 . S
C1480 C1481 1.391 . S
C1481 H1469 0.950 . S
C1481 C1477 1.393 . S
C1481 C1480 1.391 . S
C1482 H1472 0.950 . S
C1482 C1483 1.386 . S
C1482 C1484 1.391 . S
C1483 C1482 1.386 . S
C1483 C1487 1.393 . S
C1484 H1473 0.950 . S
C1484 C1482 1.391 . S
C1484 C1485 1.400 . S
C1485 C1479 1.491 . S
C1485 C1484 1.400 . S
C1485 C1486 1.398 . S
C1486 H1474 0.950 . S
C1486 C1485 1.398 . S
C1486 C1487 1.391 . S
C1487 H1475 0.950 . S
C1487 C1483 1.393 . S
C1487 C1486 1.391 . S
H1488 C1496 0.950 . S
H1489 C1501 0.950 . S
H1490 C1498 0.950 . S
H1491 C1500 0.950 . S
H1492 C1502 0.950 . S
H1493 C1504 0.950 . S
H1494 C1506 0.950 . S
H1495 C1507 0.950 . S
C1496 H1488 0.950 . S
C1496 C1497 1.386 . S
C1496 C1498 1.391 1_556 S
C1497 C1496 1.386 . S
C1497 C1501 1.393 . S
C1498 H1490 0.950 . S
C1498 C1496 1.391 1_554 S
C1498 C1499 1.400 . S
C1499 C1498 1.400 . S
C1499 C1500 1.398 . S
C1499 C1505 1.491 . S
C1500 H1491 0.950 . S
C1500 C1499 1.398 . S
C1500 C1501 1.391 1_554 S
C1501 H1489 0.950 . S
C1501 C1497 1.393 . S
C1501 C1500 1.391 1_556 S
C1502 H1492 0.950 . S
C1502 C1503 1.386 . S
C1502 C1504 1.391 . S
C1503 C1502 1.386 . S
C1503 C1507 1.393 . S
C1504 H1493 0.950 . S
C1504 C1502 1.391 . S
C1504 C1505 1.400 . S
C1505 C1499 1.491 . S
C1505 C1504 1.400 . S
C1505 C1506 1.398 . S
C1506 H1494 0.950 . S
C1506 C1505 1.398 . S
C1506 C1507 1.391 . S
C1507 H1495 0.950 . S
C1507 C1503 1.393 . S
C1507 C1506 1.391 . S
H1508 C1516 0.950 . S
H1509 C1521 0.950 . S
H1510 C1518 0.950 . S
H1511 C1520 0.950 . S
H1512 C1522 0.950 . S
H1513 C1524 0.950 . S
H1514 C1526 0.950 . S
H1515 C1527 0.950 . S
C1516 H1508 0.950 . S
C1516 C1517 1.386 . S
C1516 C1518 1.391 1_556 S
C1517 C1516 1.386 . S
C1517 C1521 1.393 . S
C1518 H1510 0.950 . S
C1518 C1516 1.391 1_554 S
C1518 C1519 1.400 . S
C1519 C1518 1.400 . S
C1519 C1520 1.398 1_554 S
C1519 C1525 1.491 . S
C1520 H1511 0.950 . S
C1520 C1519 1.398 1_556 S
C1520 C1521 1.391 . S
C1521 H1509 0.950 . S
C1521 C1517 1.393 . S
C1521 C1520 1.391 . S
C1522 H1512 0.950 . S
C1522 C1523 1.386 . S
C1522 C1524 1.391 . S
C1523 C1522 1.386 . S
C1523 C1527 1.393 . S
C1524 H1513 0.950 . S
C1524 C1522 1.391 . S
C1524 C1525 1.400 . S
C1525 C1519 1.491 . S
C1525 C1524 1.400 . S
C1525 C1526 1.398 . S
C1526 H1514 0.950 . S
C1526 C1525 1.398 . S
C1526 C1527 1.391 . S
C1527 H1515 0.950 . S
C1527 C1523 1.393 . S
C1527 C1526 1.391 . S
H1528 C1536 0.950 . S
H1529 C1541 0.950 . S
H1530 C1538 0.950 . S
H1531 C1540 0.951 . S
H1532 C1542 0.950 . S
H1533 C1544 0.950 . S
H1534 C1546 0.950 . S
H1535 C1547 0.950 . S
C1536 H1528 0.950 . S
C1536 C1537 1.386 . S
C1536 C1538 1.391 1_556 S
C1537 C1536 1.386 . S
C1537 C1541 1.393 . S
C1538 H1530 0.950 . S
C1538 C1536 1.391 1_554 S
C1538 C1539 1.400 . S
C1539 C1538 1.400 . S
C1539 C1540 1.402 . S
C1539 C1545 1.491 . S
C1540 H1531 0.951 . S
C1540 C1539 1.402 . S
C1540 C1541 1.386 1_554 S
C1541 H1529 0.950 . S
C1541 C1537 1.393 . S
C1541 C1540 1.386 1_556 S
C1542 H1532 0.950 . S
C1542 C1543 1.386 . S
C1542 C1544 1.391 . S
C1543 C1542 1.386 . S
C1543 C1547 1.393 . S
C1544 H1533 0.950 . S
C1544 C1542 1.391 . S
C1544 C1545 1.400 . S
C1545 C1539 1.491 . S
C1545 C1544 1.400 . S
C1545 C1546 1.398 . S
C1546 H1534 0.950 . S
C1546 C1545 1.398 . S
C1546 C1547 1.391 . S
C1547 H1535 0.950 . S
C1547 C1543 1.393 . S
C1547 C1546 1.391 . S
H1548 C1556 0.950 . S
H1549 C1561 0.950 . S
H1550 C1558 0.950 1_556 S
H1551 C1560 0.950 . S
H1552 C1562 0.950 . S
H1553 C1564 0.950 . S
H1554 C1566 0.950 . S
H1555 C1567 0.950 . S
C1556 H1548 0.950 . S
C1556 C1557 1.386 1_556 S
C1556 C1558 1.391 1_556 S
C1557 C1556 1.386 1_554 S
C1557 C1561 1.393 . S
C1558 H1550 0.950 1_554 S
C1558 C1556 1.391 1_554 S
C1558 C1559 1.400 . S
C1559 C1558 1.400 . S
C1559 C1560 1.398 . S
C1559 C1565 1.491 . S
C1560 H1551 0.950 . S
C1560 C1559 1.398 . S
C1560 C1561 1.391 . S
C1561 H1549 0.950 . S
C1561 C1557 1.393 . S
C1561 C1560 1.391 . S
C1562 H1552 0.950 . S
C1562 C1563 1.386 . S
C1562 C1564 1.391 . S
C1563 C1562 1.386 . S
C1563 C1567 1.393 . S
C1564 H1553 0.950 . S
C1564 C1562 1.391 . S
C1564 C1565 1.400 . S
C1565 C1559 1.491 . S
C1565 C1564 1.400 . S
C1565 C1566 1.398 . S
C1566 H1554 0.950 . S
C1566 C1565 1.398 . S
C1566 C1567 1.391 . S
C1567 H1555 0.950 . S
C1567 C1563 1.393 . S
C1567 C1566 1.391 . S
H1568 C1576 0.950 . S
H1569 C1581 0.950 . S
H1570 C1578 0.950 . S
H1571 C1580 0.950 . S
H1572 C1582 0.950 . S
H1573 C1584 0.950 . S
H1574 C1586 0.950 1_556 S
H1575 C1587 0.950 . S
C1576 H1568 0.950 . S
C1576 C1577 1.386 . S
C1576 C1578 1.391 . S
C1577 C1576 1.386 . S
C1577 C1581 1.393 . S
C1578 H1570 0.950 . S
C1578 C1576 1.391 . S
C1578 C1579 1.400 . S
C1579 C1578 1.400 . S
C1579 C1580 1.398 . S
C1579 C1585 1.491 . S
C1580 H1571 0.950 . S
C1580 C1579 1.398 . S
C1580 C1581 1.391 . S
C1581 H1569 0.950 . S
C1581 C1577 1.393 . S
C1581 C1580 1.391 . S
C1582 H1572 0.950 . S
C1582 C1583 1.386 . S
C1582 C1584 1.391 . S
C1583 C1582 1.386 . S
C1583 C1587 1.393 1_554 S
C1584 H1573 0.950 . S
C1584 C1582 1.391 . S
C1584 C1585 1.400 . S
C1585 C1579 1.491 . S
C1585 C1584 1.400 . S
C1585 C1586 1.398 . S
C1586 H1574 0.950 1_554 S
C1586 C1585 1.398 . S
C1586 C1587 1.391 1_554 S
C1587 H1575 0.950 . S
C1587 C1583 1.393 1_556 S
C1587 C1586 1.391 1_556 S
H1588 C1596 0.950 . S
H1589 C1601 0.950 . S
H1590 C1598 0.950 . S
H1591 C1600 0.950 . S
H1592 C1602 0.950 . S
H1593 C1604 0.950 . S
H1594 C1606 0.950 . S
H1595 C1607 0.950 . S
C1596 H1588 0.950 . S
C1596 C1597 1.386 . S
C1596 C1598 1.391 . S
C1597 C1596 1.386 . S
C1597 C1601 1.393 . S
C1598 H1590 0.950 . S
C1598 C1596 1.391 . S
C1598 C1599 1.400 . S
C1599 C1598 1.400 . S
C1599 C1600 1.398 . S
C1599 C1605 1.491 . S
C1600 H1591 0.950 . S
C1600 C1599 1.398 . S
C1600 C1601 1.391 . S
C1601 H1589 0.950 . S
C1601 C1597 1.393 . S
C1601 C1600 1.391 . S
C1602 H1592 0.950 . S
C1602 C1603 1.386 . S
C1602 C1604 1.391 . S
C1603 C1602 1.386 . S
C1603 C1607 1.393 . S
C1604 H1593 0.950 . S
C1604 C1602 1.391 . S
C1604 C1605 1.400 . S
C1605 C1599 1.491 . S
C1605 C1604 1.400 . S
C1605 C1606 1.398 . S
C1606 H1594 0.950 . S
C1606 C1605 1.398 . S
C1606 C1607 1.391 . S
C1607 H1595 0.950 . S
C1607 C1603 1.393 . S
C1607 C1606 1.391 . S
H1608 C1616 0.950 . S
H1609 C1621 0.950 . S
H1610 C1618 0.950 . S
H1611 C1620 0.950 . S
H1612 C1622 0.950 . S
H1613 C1624 0.950 . S
H1614 C1626 0.950 . S
H1615 C1627 0.950 . S
C1616 H1608 0.950 . S
C1616 C1617 1.386 . S
C1616 C1618 1.391 . S
C1617 C1616 1.386 . S
C1617 C1621 1.393 . S
C1618 H1610 0.950 . S
C1618 C1616 1.391 . S
C1618 C1619 1.400 . S
C1619 C1618 1.400 . S
C1619 C1620 1.398 . S
C1619 C1625 1.491 . S
C1620 H1611 0.950 . S
C1620 C1619 1.398 . S
C1620 C1621 1.391 . S
C1621 H1609 0.950 . S
C1621 C1617 1.393 . S
C1621 C1620 1.391 . S
C1622 H1612 0.950 . S
C1622 C1623 1.386 . S
C1622 C1624 1.391 . S
C1623 C1622 1.386 . S
C1623 C1627 1.393 . S
C1624 H1613 0.950 . S
C1624 C1622 1.391 . S
C1624 C1625 1.400 . S
C1625 C1619 1.491 . S
C1625 C1624 1.400 . S
C1625 C1626 1.398 . S
C1626 H1614 0.950 . S
C1626 C1625 1.398 . S
C1626 C1627 1.391 . S
C1627 H1615 0.950 . S
C1627 C1623 1.393 . S
C1627 C1626 1.391 . S
H1628 C1636 0.950 . S
H1629 C1641 0.950 . S
H1630 C1638 0.950 . S
H1631 C1640 0.950 . S
H1632 C1642 0.950 . S
H1633 C1644 0.950 . S
H1634 C1646 0.950 . S
H1635 C1647 0.950 . S
C1636 H1628 0.950 . S
C1636 C1637 1.386 . S
C1636 C1638 1.391 . S
C1637 C1636 1.386 . S
C1637 C1641 1.393 . S
C1638 H1630 0.950 . S
C1638 C1636 1.391 . S
C1638 C1639 1.400 . S
C1639 C1638 1.400 . S
C1639 C1640 1.398 . S
C1639 C1645 1.491 . S
C1640 H1631 0.950 . S
C1640 C1639 1.398 . S
C1640 C1641 1.391 . S
C1641 H1629 0.950 . S
C1641 C1637 1.393 . S
C1641 C1640 1.391 . S
C1642 H1632 0.950 . S
C1642 C1643 1.386 . S
C1642 C1644 1.391 . S
C1643 C1642 1.386 . S
C1643 C1647 1.393 . S
C1644 H1633 0.950 . S
C1644 C1642 1.391 . S
C1644 C1645 1.400 . S
C1645 C1639 1.491 . S
C1645 C1644 1.400 . S
C1645 C1646 1.398 . S
C1646 H1634 0.950 . S
C1646 C1645 1.398 . S
C1646 C1647 1.391 . S
C1647 H1635 0.950 . S
C1647 C1643 1.393 . S
C1647 C1646 1.391 . S
H1648 C1656 0.950 . S
H1649 C1661 0.950 . S
H1650 C1658 0.950 . S
H1651 C1660 0.950 . S
H1652 C1662 0.950 . S
H1653 C1664 0.950 . S
H1654 C1666 0.950 . S
H1655 C1667 0.950 . S
C1656 H1648 0.950 . S
C1656 C1657 1.386 . S
C1656 C1658 1.391 . S
C1657 C1656 1.386 . S
C1657 C1661 1.393 . S
C1658 H1650 0.950 . S
C1658 C1656 1.391 . S
C1658 C1659 1.400 . S
C1659 C1658 1.400 . S
C1659 C1660 1.398 . S
C1659 C1665 1.491 . S
C1660 H1651 0.950 . S
C1660 C1659 1.398 . S
C1660 C1661 1.391 . S
C1661 H1649 0.950 . S
C1661 C1657 1.393 . S
C1661 C1660 1.391 . S
C1662 H1652 0.950 . S
C1662 C1663 1.386 . S
C1662 C1664 1.391 . S
C1663 C1662 1.386 . S
C1663 C1667 1.393 . S
C1664 H1653 0.950 . S
C1664 C1662 1.391 . S
C1664 C1665 1.400 . S
C1665 C1659 1.491 . S
C1665 C1664 1.400 . S
C1665 C1666 1.398 . S
C1666 H1654 0.950 . S
C1666 C1665 1.398 . S
C1666 C1667 1.391 . S
C1667 H1655 0.950 . S
C1667 C1663 1.393 . S
C1667 C1666 1.391 . S
H1668 C1676 0.950 . S
H1669 C1681 0.950 . S
H1670 C1678 0.950 . S
H1671 C1680 0.950 . S
H1672 C1682 0.950 . S
H1673 C1684 0.950 . S
H1674 C1686 0.950 1_554 S
H1675 C1687 0.950 . S
C1676 H1668 0.950 . S
C1676 C1677 1.386 . S
C1676 C1678 1.391 . S
C1677 C1676 1.386 . S
C1677 C1681 1.393 . S
C1678 H1670 0.950 . S
C1678 C1676 1.391 . S
C1678 C1679 1.400 . S
C1679 C1678 1.400 . S
C1679 C1680 1.398 . S
C1679 C1685 1.491 . S
C1680 H1671 0.950 . S
C1680 C1679 1.398 . S
C1680 C1681 1.391 . S
C1681 H1669 0.950 . S
C1681 C1677 1.393 . S
C1681 C1680 1.391 . S
C1682 H1672 0.950 . S
C1682 C1683 1.386 . S
C1682 C1684 1.391 . S
C1683 C1682 1.386 . S
C1683 C1687 1.393 1_556 S
C1684 H1673 0.950 . S
C1684 C1682 1.391 . S
C1684 C1685 1.400 . S
C1685 C1679 1.491 . S
C1685 C1684 1.400 . S
C1685 C1686 1.398 . S
C1686 H1674 0.950 1_556 S
C1686 C1685 1.398 . S
C1686 C1687 1.391 1_556 S
C1687 H1675 0.950 . S
C1687 C1683 1.393 1_554 S
C1687 C1686 1.391 1_554 S
H1688 C1696 0.950 . S
H1689 C1701 0.950 . S
H1690 C1698 0.950 . S
H1691 C1700 0.950 . S
H1692 C1702 0.950 . S
H1693 C1704 0.950 . S
H1694 C1706 0.950 . S
H1695 C1707 0.950 . S
C1696 H1688 0.950 . S
C1696 C1697 1.386 . S
C1696 C1698 1.391 . S
C1697 C1696 1.386 . S
C1697 C1701 1.393 . S
C1698 H1690 0.950 . S
C1698 C1696 1.391 . S
C1698 C1699 1.400 . S
C1699 C1698 1.400 . S
C1699 C1700 1.398 . S
C1699 C1705 1.491 . S
C1700 H1691 0.950 . S
C1700 C1699 1.398 . S
C1700 C1701 1.391 . S
C1701 H1689 0.950 . S
C1701 C1697 1.393 . S
C1701 C1700 1.391 . S
C1702 H1692 0.950 . S
C1702 C1703 1.386 . S
C1702 C1704 1.391 . S
C1703 C1702 1.386 . S
C1703 C1707 1.393 . S
C1704 H1693 0.950 . S
C1704 C1702 1.391 . S
C1704 C1705 1.400 . S
C1705 C1699 1.491 . S
C1705 C1704 1.400 . S
C1705 C1706 1.398 . S
C1706 H1694 0.950 . S
C1706 C1705 1.398 . S
C1706 C1707 1.391 . S
C1707 H1695 0.950 . S
C1707 C1703 1.393 . S
C1707 C1706 1.391 . S
H1708 C1716 0.950 . S
H1709 C1721 0.950 . S
H1710 C1718 0.950 . S
H1711 C1720 0.950 . S
H1712 C1722 0.950 . S
H1713 C1724 0.950 . S
H1714 C1726 0.950 . S
H1715 C1727 0.950 . S
C1716 H1708 0.950 . S
C1716 C1717 1.386 . S
C1716 C1718 1.391 . S
C1717 C1716 1.386 . S
C1717 C1721 1.393 . S
C1718 H1710 0.950 . S
C1718 C1716 1.391 . S
C1718 C1719 1.400 . S
C1719 C1718 1.400 . S
C1719 C1720 1.398 . S
C1719 C1725 1.491 . S
C1720 H1711 0.950 . S
C1720 C1719 1.398 . S
C1720 C1721 1.391 . S
C1721 H1709 0.950 . S
C1721 C1717 1.393 . S
C1721 C1720 1.391 . S
C1722 H1712 0.950 . S
C1722 C1723 1.386 . S
C1722 C1724 1.391 . S
C1723 C1722 1.386 . S
C1723 C1727 1.393 . S
C1724 H1713 0.950 . S
C1724 C1722 1.391 . S
C1724 C1725 1.400 . S
C1725 C1719 1.491 . S
C1725 C1724 1.400 . S
C1725 C1726 1.398 . S
C1726 H1714 0.950 . S
C1726 C1725 1.398 . S
C1726 C1727 1.391 . S
C1727 H1715 0.950 . S
C1727 C1723 1.393 . S
C1727 C1726 1.391 . S
H1728 C1736 0.950 . S
H1729 C1741 0.950 . S
H1730 C1738 0.950 . S
H1731 C1740 0.950 . S
H1732 C1742 0.950 . S
H1733 C1744 0.950 . S
H1734 C1746 0.950 . S
H1735 C1747 0.950 . S
C1736 H1728 0.950 . S
C1736 C1737 1.386 . S
C1736 C1738 1.391 . S
C1737 C1736 1.386 . S
C1737 C1741 1.393 . S
C1738 H1730 0.950 . S
C1738 C1736 1.391 . S
C1738 C1739 1.400 . S
C1739 C1738 1.400 . S
C1739 C1740 1.398 . S
C1739 C1745 1.491 . S
C1740 H1731 0.950 . S
C1740 C1739 1.398 . S
C1740 C1741 1.391 . S
C1741 H1729 0.950 . S
C1741 C1737 1.393 . S
C1741 C1740 1.391 . S
C1742 H1732 0.950 . S
C1742 C1743 1.386 . S
C1742 C1744 1.391 . S
C1743 C1742 1.386 . S
C1743 C1747 1.393 . S
C1744 H1733 0.950 . S
C1744 C1742 1.391 . S
C1744 C1745 1.400 . S
C1745 C1739 1.491 . S
C1745 C1744 1.400 . S
C1745 C1746 1.398 . S
C1746 H1734 0.950 . S
C1746 C1745 1.398 . S
C1746 C1747 1.391 . S
C1747 H1735 0.950 . S
C1747 C1743 1.393 . S
C1747 C1746 1.391 . S
H1748 C1756 0.950 . S
H1749 C1761 0.950 . S
H1750 C1758 0.950 . S
H1751 C1760 0.950 . S
H1752 C1762 0.950 . S
H1753 C1764 0.950 . S
H1754 C1766 0.950 . S
H1755 C1767 0.950 . S
C1756 H1748 0.950 . S
C1756 C1757 1.386 . S
C1756 C1758 1.391 . S
C1757 C1756 1.386 . S
C1757 C1761 1.393 . S
C1758 H1750 0.950 . S
C1758 C1756 1.391 . S
C1758 C1759 1.400 . S
C1759 C1758 1.400 . S
C1759 C1760 1.398 . S
C1759 C1765 1.491 . S
C1760 H1751 0.950 . S
C1760 C1759 1.398 . S
C1760 C1761 1.391 . S
C1761 H1749 0.950 . S
C1761 C1757 1.393 . S
C1761 C1760 1.391 . S
C1762 H1752 0.950 . S
C1762 C1763 1.386 . S
C1762 C1764 1.391 . S
C1763 C1762 1.386 . S
C1763 C1767 1.393 . S
C1764 H1753 0.950 . S
C1764 C1762 1.391 . S
C1764 C1765 1.400 . S
C1765 C1759 1.491 . S
C1765 C1764 1.400 . S
C1765 C1766 1.398 . S
C1766 H1754 0.950 . S
C1766 C1765 1.398 . S
C1766 C1767 1.391 . S
C1767 H1755 0.950 . S
C1767 C1763 1.393 . S
C1767 C1766 1.391 . S
H1768 C1776 0.950 . S
H1769 C1781 0.950 . S
H1770 C1778 0.950 . S
H1771 C1780 0.950 . S
H1772 C1782 0.950 . S
H1773 C1784 0.950 . S
H1774 C1786 0.950 . S
H1775 C1787 0.950 . S
C1776 H1768 0.950 . S
C1776 C1777 1.386 . S
C1776 C1778 1.391 . S
C1777 C1776 1.386 . S
C1777 C1781 1.393 . S
C1778 H1770 0.950 . S
C1778 C1776 1.391 . S
C1778 C1779 1.400 . S
C1779 C1778 1.400 . S
C1779 C1780 1.398 . S
C1779 C1785 1.491 . S
C1780 H1771 0.950 . S
C1780 C1779 1.398 . S
C1780 C1781 1.391 . S
C1781 H1769 0.950 . S
C1781 C1777 1.393 . S
C1781 C1780 1.391 . S
C1782 H1772 0.950 . S
C1782 C1783 1.386 . S
C1782 C1784 1.391 . S
C1783 C1782 1.386 . S
C1783 C1787 1.393 . S
C1784 H1773 0.950 . S
C1784 C1782 1.391 . S
C1784 C1785 1.400 . S
C1785 C1779 1.491 . S
C1785 C1784 1.400 . S
C1785 C1786 1.398 . S
C1786 H1774 0.950 . S
C1786 C1785 1.398 . S
C1786 C1787 1.391 . S
C1787 H1775 0.950 . S
C1787 C1783 1.393 . S
C1787 C1786 1.391 . S
H1788 C1796 0.950 . S
H1789 C1801 0.950 . S
H1790 C1798 0.950 . S
H1791 C1800 0.950 . S
H1792 C1802 0.950 . S
H1793 C1804 0.950 . S
H1794 C1806 0.950 . S
H1795 C1807 0.950 . S
C1796 H1788 0.950 . S
C1796 C1797 1.386 . S
C1796 C1798 1.391 . S
C1797 C1796 1.386 . S
C1797 C1801 1.393 . S
C1798 H1790 0.950 . S
C1798 C1796 1.391 . S
C1798 C1799 1.400 . S
C1799 C1798 1.400 . S
C1799 C1800 1.398 . S
C1799 C1805 1.491 1_455 S
C1800 H1791 0.950 . S
C1800 C1799 1.398 . S
C1800 C1801 1.391 . S
C1801 H1789 0.950 . S
C1801 C1797 1.393 . S
C1801 C1800 1.391 . S
C1802 H1792 0.950 . S
C1802 C1803 1.386 . S
C1802 C1804 1.391 . S
C1803 C1802 1.386 . S
C1803 C1807 1.393 . S
C1804 H1793 0.950 . S
C1804 C1802 1.391 . S
C1804 C1805 1.400 . S
C1805 C1799 1.491 1_655 S
C1805 C1804 1.400 . S
C1805 C1806 1.398 . S
C1806 H1794 0.950 . S
C1806 C1805 1.398 . S
C1806 C1807 1.391 . S
C1807 H1795 0.950 . S
C1807 C1803 1.393 . S
C1807 C1806 1.391 . S
H1808 C1816 0.950 . S
H1809 C1821 0.950 . S
H1810 C1818 0.950 . S
H1811 C1820 0.950 . S
H1812 C1822 0.950 . S
H1813 C1824 0.950 . S
H1814 C1826 0.950 . S
H1815 C1827 0.950 . S
C1816 H1808 0.950 . S
C1816 C1817 1.386 . S
C1816 C1818 1.391 . S
C1817 C1816 1.386 . S
C1817 C1821 1.393 . S
C1818 H1810 0.950 . S
C1818 C1816 1.391 . S
C1818 C1819 1.400 . S
C1819 C1818 1.400 . S
C1819 C1820 1.398 . S
C1819 C1825 1.491 . S
C1820 H1811 0.950 . S
C1820 C1819 1.398 . S
C1820 C1821 1.391 . S
C1821 H1809 0.950 . S
C1821 C1817 1.393 . S
C1821 C1820 1.391 . S
C1822 H1812 0.950 . S
C1822 C1823 1.386 . S
C1822 C1824 1.391 . S
C1823 C1822 1.386 . S
C1823 C1827 1.393 . S
C1824 H1813 0.950 . S
C1824 C1822 1.391 . S
C1824 C1825 1.400 . S
C1825 C1819 1.491 . S
C1825 C1824 1.400 . S
C1825 C1826 1.398 . S
C1826 H1814 0.950 . S
C1826 C1825 1.398 . S
C1826 C1827 1.391 . S
C1827 H1815 0.950 . S
C1827 C1823 1.393 . S
C1827 C1826 1.391 . S
H1828 C1836 0.950 . S
H1829 C1841 0.950 . S
H1830 C1838 0.950 . S
H1831 C1840 0.950 . S
H1832 C1842 0.950 . S
H1833 C1844 0.950 . S
H1834 C1846 0.950 . S
H1835 C1847 0.950 . S
C1836 H1828 0.950 . S
C1836 C1837 1.386 . S
C1836 C1838 1.391 . S
C1837 C1836 1.386 . S
C1837 C1841 1.393 . S
C1838 H1830 0.950 . S
C1838 C1836 1.391 . S
C1838 C1839 1.400 . S
C1839 C1838 1.400 . S
C1839 C1840 1.398 . S
C1839 C1845 1.491 1_565 S
C1840 H1831 0.950 . S
C1840 C1839 1.398 . S
C1840 C1841 1.391 . S
C1841 H1829 0.950 . S
C1841 C1837 1.393 . S
C1841 C1840 1.391 . S
C1842 H1832 0.950 . S
C1842 C1843 1.386 . S
C1842 C1844 1.391 . S
C1843 C1842 1.386 . S
C1843 C1847 1.393 . S
C1844 H1833 0.950 . S
C1844 C1842 1.391 . S
C1844 C1845 1.400 . S
C1845 C1839 1.491 1_545 S
C1845 C1844 1.400 . S
C1845 C1846 1.398 . S
C1846 H1834 0.950 . S
C1846 C1845 1.398 . S
C1846 C1847 1.391 . S
C1847 H1835 0.950 . S
C1847 C1843 1.393 . S
C1847 C1846 1.391 . S
H1848 C1856 0.950 . S
H1849 C1861 0.950 . S
H1850 C1858 0.950 . S
H1851 C1860 0.950 . S
H1852 C1862 0.950 . S
H1853 C1864 0.950 . S
H1854 C1866 0.950 . S
H1855 C1867 0.950 . S
C1856 H1848 0.950 . S
C1856 C1857 1.386 . S
C1856 C1858 1.391 . S
C1857 C1856 1.386 . S
C1857 C1861 1.393 . S
C1858 H1850 0.950 . S
C1858 C1856 1.391 . S
C1858 C1859 1.400 . S
C1859 C1858 1.400 . S
C1859 C1860 1.398 . S
C1859 C1865 1.491 1_545 S
C1860 H1851 0.950 . S
C1860 C1859 1.398 . S
C1860 C1861 1.391 . S
C1861 H1849 0.950 . S
C1861 C1857 1.393 . S
C1861 C1860 1.391 . S
C1862 H1852 0.950 . S
C1862 C1863 1.386 . S
C1862 C1864 1.391 . S
C1863 C1862 1.386 . S
C1863 C1867 1.393 . S
C1864 H1853 0.950 . S
C1864 C1862 1.391 . S
C1864 C1865 1.400 . S
C1865 C1859 1.491 1_565 S
C1865 C1864 1.400 . S
C1865 C1866 1.398 . S
C1866 H1854 0.950 . S
C1866 C1865 1.398 . S
C1866 C1867 1.391 . S
C1867 H1855 0.950 . S
C1867 C1863 1.393 . S
C1867 C1866 1.391 . S
H1868 C1876 0.950 . S
H1869 C1881 0.950 . S
H1870 C1878 0.950 . S
H1871 C1880 0.950 . S
H1872 C1882 0.950 . S
H1873 C1884 0.950 . S
H1874 C1886 0.950 . S
H1875 C1887 0.950 . S
C1876 H1868 0.950 . S
C1876 C1877 1.386 . S
C1876 C1878 1.391 . S
C1877 C1876 1.386 . S
C1877 C1881 1.393 . S
C1878 H1870 0.950 . S
C1878 C1876 1.391 . S
C1878 C1879 1.400 . S
C1879 C1878 1.400 . S
C1879 C1880 1.398 . S
C1879 C1885 1.491 1_455 S
C1880 H1871 0.950 . S
C1880 C1879 1.398 . S
C1880 C1881 1.391 . S
C1881 H1869 0.950 . S
C1881 C1877 1.393 . S
C1881 C1880 1.391 . S
C1882 H1872 0.950 . S
C1882 C1883 1.386 . S
C1882 C1884 1.391 . S
C1883 C1882 1.386 . S
C1883 C1887 1.393 . S
C1884 H1873 0.950 . S
C1884 C1882 1.391 . S
C1884 C1885 1.400 . S
C1885 C1879 1.491 1_655 S
C1885 C1884 1.400 . S
C1885 C1886 1.398 . S
C1886 H1874 0.950 . S
C1886 C1885 1.398 . S
C1886 C1887 1.391 . S
C1887 H1875 0.950 . S
C1887 C1883 1.393 . S
C1887 C1886 1.391 . S
H1888 C1896 0.950 . S
H1889 C1901 0.950 . S
H1890 C1898 0.950 . S
H1891 C1900 0.950 . S
H1892 C1902 0.950 . S
H1893 C1904 0.950 . S
H1894 C1906 0.950 . S
H1895 C1907 0.950 . S
C1896 H1888 0.950 . S
C1896 C1897 1.386 . S
C1896 C1898 1.391 . S
C1897 C1896 1.386 . S
C1897 C1901 1.393 . S
C1898 H1890 0.950 . S
C1898 C1896 1.391 . S
C1898 C1899 1.400 . S
C1899 C1898 1.400 . S
C1899 C1900 1.398 . S
C1899 C1905 1.491 . S
C1900 H1891 0.950 . S
C1900 C1899 1.398 . S
C1900 C1901 1.391 . S
C1901 H1889 0.950 . S
C1901 C1897 1.393 . S
C1901 C1900 1.391 . S
C1902 H1892 0.950 . S
C1902 C1903 1.386 . S
C1902 C1904 1.391 . S
C1903 C1902 1.386 . S
C1903 C1907 1.393 . S
C1904 H1893 0.950 . S
C1904 C1902 1.391 . S
C1904 C1905 1.400 . S
C1905 C1899 1.491 . S
C1905 C1904 1.400 . S
C1905 C1906 1.398 . S
C1906 H1894 0.950 . S
C1906 C1905 1.398 . S
C1906 C1907 1.391 . S
C1907 H1895 0.950 . S
C1907 C1903 1.393 . S
C1907 C1906 1.391 . S
C477 C39 1.245 . S
C483 C0 1.222 . S
C497 C52 1.245 . S
C503 C13 1.228 . S
C517 C65 1.229 . S
C523 C26 1.228 . S
C537 C78 1.237 . S
C543 C117 1.237 . S
C557 C91 1.224 . S
C563 C130 1.233 . S
C577 C143 1.224 . S
C583 C104 1.245 . S
C597 C156 1.217 . S
C603 C195 1.212 . S
C617 C169 1.214 . S
C623 C208 1.201 . S
C637 C182 1.222 . S
C643 C221 1.197 . S
C657 C234 1.191 . S
C663 C273 1.216 . S
C677 C286 1.209 . S
C683 C247 1.207 . S
C697 C260 1.209 . S
C703 C299 1.206 . S
C717 C312 1.211 . S
C723 C351 1.193 . S
C737 C325 1.192 . S
C743 C364 1.217 . S
C757 C377 1.203 . S
C763 C338 1.197 . S
C777 C429 1.202 . S
C783 C390 1.211 . S
C797 C442 1.211 . S
C803 C403 1.219 . S
C817 C455 1.200 . S
C823 C416 1.224 . S
C837 C151 1.304 . S
C843 C5 1.239 . S
C857 C18 1.254 . S
C863 C125 1.293 . S
C877 C31 1.247 . S
C883 C138 1.286 . S
C897 C99 1.297 . S
C903 C44 1.254 . S
C917 C57 1.240 . S
C923 C112 1.314 . S
C937 C86 1.316 . S
C943 C70 1.243 . S
C957 C83 1.251 . S
C963 C73 1.302 . S
C977 C96 1.218 . S
C983 C47 1.286 . S
C997 C60 1.294 . S
C1003 C109 1.217 . S
C1017 C21 1.315 . S
C1023 C122 1.241 . S
C1037 C34 1.304 . S
C1043 C135 1.230 . S
C1057 C148 1.231 . S
C1063 C8 1.300 . S
C1077 C161 1.211 . S
C1083 C307 1.240 . S
C1097 C281 1.233 . S
C1103 C174 1.189 . S
C1117 C294 1.254 . S
C1123 C187 1.181 . S
C1137 C200 1.249 . S
C1143 C255 1.280 . S
C1157 C268 1.292 . S
C1163 C213 1.223 . S
C1177 C226 1.214 . S
C1183 C242 1.278 . S
C1197 C239 1.207 . S
C1203 C229 1.274 . S
C1217 C252 1.230 . S
C1223 C203 1.288 . S
C1237 C216 1.280 . S
C1243 C265 1.209 . S
C1257 C177 1.316 . S
C1263 C278 1.283 . S
C1277 C190 1.313 . S
C1283 C291 1.276 . S
C1297 C304 1.249 . S
C1303 C164 1.321 . S
C1317 C463 1.271 . S
C1323 C317 1.208 . S
C1337 C330 1.231 . S
C1343 C437 1.267 . S
C1357 C343 1.207 . S
C1363 C450 1.274 . S
C1377 C356 1.262 . S
C1383 C411 1.334 . S
C1397 C424 1.315 . S
C1403 C369 1.252 . S
C1417 C382 1.252 . S
C1423 C398 1.317 . S
C1437 C385 1.246 . S
C1443 C395 1.212 . S
C1457 C359 1.254 . S
C1463 C408 1.208 . S
C1477 C372 1.253 . S
C1483 C421 1.180 . S
C1497 C333 1.273 . S
C1503 C434 1.224 . S
C1517 C346 1.284 . S
C1523 C447 1.251 . S
C1537 C320 1.272 . S
C1543 C460 1.229 . S
C1557 C387 1.412 . S
C1563 C10 1.395 . S
C1577 C23 1.394 . S
C1583 C361 1.412 . S
C1597 C374 1.409 . S
C1603 C36 1.404 . S
C1617 C49 1.411 . S
C1623 C179 1.398 . S
C1637 C192 1.404 . S
C1643 C62 1.396 . S
C1657 C75 1.393 . S
C1663 C166 1.411 . S
C1677 C88 1.411 . S
C1683 C309 1.395 . S
C1697 C283 1.408 . S
C1703 C101 1.406 . S
C1717 C114 1.397 . S
C1723 C296 1.406 . S
C1737 C127 1.399 . S
C1743 C413 1.401 . S
C1757 C140 1.411 . S
C1763 C426 1.397 . S
C1777 C400 1.407 . S
C1783 C153 1.394 . S
C1797 C335 1.386 . S
C1803 C205 1.400 . S
C1817 C348 1.397 . S
C1823 C218 1.382 . S
C1837 C322 1.394 . S
C1843 C231 1.395 . S
C1857 C244 1.395 . S
C1863 C465 1.382 . S
C1877 C439 1.400 . S
C1883 C257 1.386 . S
C1897 C270 1.399 . S
C1903 C452 1.389 . S
