# Generated by pormake.
# Topology snp, (6)-cn, num edge types: 1
# Building blocks:
#     Node 0, Type 0, BuildingBlock: BETFAJ_clean_sbu_0, # of connection points: 6
#     Node 1, Type 0, BuildingBlock: BETFAJ_clean_sbu_0, # of connection points: 6
#     Node 2, Type 0, BuildingBlock: BETFAJ_clean_sbu_0, # of connection points: 6
#     Node 3, Type 0, BuildingBlock: BETFAJ_clean_sbu_0, # of connection points: 6
#     Edge 4, Type (0, 0), BuildingBlock: CIFDUS_clean_linker_0, # of connection points: 2
#     Edge 5, Type (0, 0), BuildingBlock: CIFDUS_clean_linker_0, # of connection points: 2
#     Edge 6, Type (0, 0), BuildingBlock: CIFDUS_clean_linker_0, # of connection points: 2
#     Edge 7, Type (0, 0), BuildingBlock: CIFDUS_clean_linker_0, # of connection points: 2
#     Edge 8, Type (0, 0), BuildingBlock: CIFDUS_clean_linker_0, # of connection points: 2
#     Edge 9, Type (0, 0), BuildingBlock: CIFDUS_clean_linker_0, # of connection points: 2
#     Edge 10, Type (0, 0), BuildingBlock: CIFDUS_clean_linker_0, # of connection points: 2
#     Edge 11, Type (0, 0), BuildingBlock: CIFDUS_clean_linker_0, # of connection points: 2
#     Edge 12, Type (0, 0), BuildingBlock: CIFDUS_clean_linker_0, # of connection points: 2
#     Edge 13, Type (0, 0), BuildingBlock: CIFDUS_clean_linker_0, # of connection points: 2
#     Edge 14, Type (0, 0), BuildingBlock: CIFDUS_clean_linker_0, # of connection points: 2
#     Edge 15, Type (0, 0), BuildingBlock: CIFDUS_clean_linker_0, # of connection points: 2
# Relax obj value: 0.220
# Max RMSD: 0.229
# Mean RMSD: 0.223
data_MOF--net-snp--node1-BETFAJ_clean_sbu_0--edge1-CIFDUS_clean_linker_0
_symmetry_space_group_name_H-M    P1
_symmetry_Int_Tables_number       1
_symmetry_cell_setting            triclinic
loop_
_symmetry_equiv_pos_as_xyz
'x, y, z'
_cell_length_a     22.404969
_cell_length_b     22.779495
_cell_length_c     32.932074
_cell_angle_alpha  82.917264
_cell_angle_beta   104.90202
_cell_angle_gamma 97.262469
loop_
_atom_site_label
_atom_site_type_symbol
_atom_site_fract_x
_atom_site_fract_y
_atom_site_fract_z
_atom_type_partial_charge
Sm0 Sm 0.26518 0.12035 0.14286 0.0
Sm1 Sm 0.27746 0.013 0.09429 0.0
C2 C 0.23537 0.19402 0.18954 0.0
C3 C 0.23217 0.20028 0.23302 0.0
C4 C 0.18551 0.23151 0.23897 0.0
C5 C 0.18213 0.24011 0.27962 0.0
C6 C 0.22546 0.2176 0.31537 0.0
C7 C 0.27169 0.18534 0.30929 0.0
C8 C 0.27494 0.17664 0.26849 0.0
C9 C 0.38373 0.094 0.14705 0.0
C10 C 0.25969 -0.01596 0.18955 0.0
C11 C 0.31626 0.94362 0.0496 0.0
C12 C 0.29887 0.93288 1.00474 0.0
C13 C 0.25083 0.96191 0.97668 0.0
C14 C 0.22877 0.94657 0.93529 0.0
C15 C 0.25444 0.902 0.92115 0.0
C16 C 0.30458 0.87501 0.94879 0.0
C17 C 0.32642 0.89018 0.9904 0.0
C18 C 0.15872 0.02794 0.09351 0.0
C19 C 0.25361 0.14834 0.04245 0.0
O20 O 0.19559 0.15406 0.16934 0.0
O21 O 0.29032 0.19681 0.18205 0.0
O22 O 0.33766 0.05761 0.14905 0.0
O23 O 0.3695 0.14814 0.14435 0.0
O24 O 0.24254 0.03818 0.18572 0.0
O25 O 0.28605 0.96612 0.16203 0.0
O26 O 0.34465 -0.00388 0.05871 0.0
O27 O 0.273 0.92589 0.06988 0.0
O28 O 0.20162 0.06896 0.09155 0.0
O29 O 0.17607 -0.02309 0.08974 0.0
O30 O 0.27257 0.09507 0.04306 0.0
O31 O 0.24311 0.1667 0.07625 0.0
H32 H 0.15199 0.25002 0.21202 0.0
H33 H 0.14641 0.26575 0.28295 0.0
H34 H 0.3053 0.16667 0.33607 0.0
H35 H 0.31101 0.15184 0.26466 0.0
H36 H 0.22902 -0.00494 0.98723 0.0
H37 H 0.1906 0.96864 0.91457 0.0
H38 H 0.32496 0.84029 0.93886 0.0
H39 H 0.36341 0.8672 1.01173 0.0
Sm40 Sm 0.96655 0.2382 0.74256 0.0
Sm41 Sm 0.07821 0.28125 0.70393 0.0
C42 C 0.88947 0.18579 0.78798 0.0
C43 C 0.88799 0.17434 0.83293 0.0
C44 C 0.89018 0.116 0.85232 0.0
C45 C 0.89021 0.10392 0.89487 0.0
C46 C 0.88752 0.14985 0.91903 0.0
C47 C 0.88373 0.20811 0.89951 0.0
C48 C 0.88422 0.22035 0.85683 0.0
C49 C 0.98261 0.35761 0.72098 0.0
C50 C 0.10944 0.26037 0.80424 0.0
C51 C 0.15012 0.33063 0.65398 0.0
C52 C 0.15226 0.31697 0.61176 0.0
C53 C 0.19376 0.35016 0.59031 0.0
C54 C 0.1965 0.33566 0.55068 0.0
C55 C 0.15756 0.28776 0.53174 0.0
C56 C 0.11585 0.25485 0.55347 0.0
C57 C 0.11341 0.26918 0.59307 0.0
C58 C 0.05862 0.16004 0.71988 0.0
C59 C 0.93924 0.24335 0.64119 0.0
O60 O 0.92816 0.15731 0.77586 0.0
O61 O 0.88699 0.24062 0.77072 0.0
O62 O 0.02555 0.32547 0.73881 0.0
O63 O 0.92844 0.32747 0.71563 0.0
O64 O 0.05236 0.23371 0.79932 0.0
O65 O 0.12948 0.29083 0.77273 0.0
O66 O 0.10008 0.35306 0.65605 0.0
O67 O 0.16691 0.28907 0.6845 0.0
O68 O 0.01769 0.19518 0.70595 0.0
O69 O 0.11315 0.1891 0.72418 0.0
O70 O 0.99363 0.27565 0.64568 0.0
O71 O 0.92004 0.21741 0.67441 0.0
H72 H 0.89226 0.07961 0.83457 0.0
H73 H 0.89206 0.05839 0.9089 0.0
H74 H 0.88169 0.24429 0.91745 0.0
H75 H 0.88211 0.26581 0.84275 0.0
H76 H 0.22417 0.38714 0.60425 0.0
H77 H 0.22863 0.36238 0.53465 0.0
H78 H 0.08572 0.21727 0.54022 0.0
H79 H 0.08149 0.24252 0.60932 0.0
Sm80 Sm 0.80483 0.02008 0.23799 0.0
Sm81 Sm 0.81308 0.91051 0.19022 0.0
C82 C 0.76915 0.09555 0.27993 0.0
C83 C 0.78592 0.11637 0.32252 0.0
C84 C 0.79571 0.17774 0.32618 0.0
C85 C 0.81635 0.19938 0.3658 0.0
C86 C 0.82719 0.16006 0.40272 0.0
C87 C 0.8157 0.09849 0.39916 0.0
C88 C 0.79561 0.07675 0.35935 0.0
C89 C 0.92242 0.00313 0.23719 0.0
C90 C 0.82892 0.88584 0.29119 0.0
C91 C 0.83871 0.8351 0.14299 0.0
C92 C 0.83678 0.8267 0.09877 0.0
C93 C 0.8586 0.87226 0.07167 0.0
C94 C 0.8601 0.86142 1.03092 0.0
C95 C 0.8396 0.80491 1.01639 0.0
C96 C 0.81709 0.75985 0.04354 0.0
C97 C 0.81578 0.77065 0.08419 0.0
C98 C 0.69587 0.93909 0.18773 0.0
C99 C 0.82016 0.0453 0.14199 0.0
O100 O 0.74176 0.04146 0.27528 0.0
O101 O 0.81071 0.11034 0.25794 0.0
O102 O 0.87938 0.96258 0.23998 0.0
O103 O 0.90623 0.05449 0.2413 0.0
O104 O 0.8103 0.93936 0.29046 0.0
O105 O 0.83803 0.86652 0.25728 0.0
O106 O 0.87897 0.87675 0.16085 0.0
O107 O 0.78587 0.83089 0.15368 0.0
O108 O 0.74202 -0.0253 0.18442 0.0
O109 O 0.70922 0.88463 0.19064 0.0
O110 O 0.83568 -0.0094 0.14613 0.0
O111 O 0.79518 0.06487 0.16956 0.0
H112 H 0.78854 0.20907 0.29821 0.0
H113 H 0.82419 0.24701 0.36757 0.0
H114 H 0.82415 0.06716 0.42709 0.0
H115 H 0.7889 0.02915 0.35739 0.0
H116 H 0.87509 0.91603 0.08208 0.0
H117 H 0.87709 0.89733 1.01074 0.0
H118 H 0.80181 0.7156 0.03378 0.0
H119 H 0.7993 0.73471 0.10461 0.0
Sm120 Sm 1.00154 0.7499 0.62788 0.0
Sm121 Sm 0.11472 0.78661 0.58958 0.0
C122 C 0.92763 0.70467 0.67756 0.0
C123 C 0.92236 0.7165 0.71976 0.0
C124 C 0.97437 0.71907 0.7544 0.0
C125 C 0.96924 0.73435 0.79322 0.0
C126 C 0.91201 0.74753 0.7984 0.0
C127 C 0.85991 0.74413 0.76377 0.0
C128 C 0.86508 0.72878 0.72497 0.0
C129 C 0.02235 0.86986 0.60707 0.0
C130 C 0.14058 0.79016 0.69033 0.0
C131 C 0.19301 0.83109 0.54267 0.0
C132 C 0.19236 0.83972 0.49752 0.0
C133 C 0.13643 0.83348 0.46647 0.0
C134 C 0.13613 0.84407 0.42368 0.0
C135 C 0.19185 0.8611 0.41113 0.0
C136 C 0.248 0.86543 0.4424 0.0
C137 C 0.24818 0.85486 0.48522 0.0
C138 C 0.09671 0.66896 0.61604 0.0
C139 C 0.97133 0.76554 0.52798 0.0
O140 O 0.97649 0.67986 0.67576 0.0
O141 O 0.91317 0.74716 0.64732 0.0
O142 O 0.06323 0.83503 0.62291 0.0
O143 O 0.96759 0.8412 0.60288 0.0
O144 O 0.08439 0.76151 0.68633 0.0
O145 O 0.16265 0.81024 0.65706 0.0
O146 O 0.15798 0.86342 0.55516 0.0
O147 O 0.19038 0.77607 0.55946 0.0
O148 O 0.0544 0.70073 0.59614 0.0
O149 O 0.15119 0.69838 0.621 0.0
O150 O 0.02885 0.79102 0.53293 0.0
O151 O 0.95046 0.73696 0.55969 0.0
H152 H 0.01925 0.7099 0.75145 0.0
H153 H 0.01019 0.73554 0.81925 0.0
H154 H 0.81528 0.75467 0.76627 0.0
H155 H 0.82438 0.72754 0.69871 0.0
H156 H 0.0929 0.82136 0.47529 0.0
H157 H 0.09214 0.83973 0.40042 0.0
H158 H 0.29159 0.87919 0.43387 0.0
H159 H 0.29184 0.85965 0.50878 0.0
H160 H 0.97387 0.09098 0.19122 0.0
H161 H 0.97646 0.90417 0.23351 0.0
H162 H 0.04695 0.89448 0.1893 0.0
H163 H 0.10619 0.93939 0.13853 0.0
H164 H 0.10265 0.12602 0.09581 0.0
H165 H 0.03182 0.13552 0.13976 0.0
C166 C 0.99059 0.04831 0.19122 0.0
C167 C 0.97043 -0.00179 0.21535 0.0
C168 C 0.02949 0.04302 0.16518 0.0
C169 C 0.9916 0.94309 0.21488 0.0
C170 C 0.03129 0.93754 0.18947 0.0
C171 C 0.0891 -0.01806 0.13834 0.0
C172 C 0.10943 0.03216 0.11438 0.0
C173 C 0.04976 -0.01291 0.16412 0.0
C174 C 0.08754 0.08706 0.11442 0.0
C175 C 0.04766 0.09251 0.13969 0.0
H176 H 0.94734 0.92615 0.63756 0.0
H177 H 0.12502 0.94588 0.60659 0.0
H178 H 0.15556 0.03575 0.6438 0.0
H179 H 0.13279 0.10528 0.68736 0.0
H180 H 0.95547 0.08456 0.71892 0.0
H181 H 0.92447 -0.00434 0.68081 0.0
C182 C 0.99209 0.95102 0.63801 0.0
C183 C 0.03374 0.93051 0.619 0.0
C184 C 0.01018 0.00047 0.661 0.0
C185 C 0.09211 0.96199 0.62056 0.0
C186 C 0.10987 0.0125 0.64236 0.0
C187 C 0.088 0.08041 0.68676 0.0
C188 C 0.04664 0.10029 0.70633 0.0
C189 C 0.0698 0.03116 0.66353 0.0
C190 C 0.98817 0.06891 0.70455 0.0
C191 C 0.97016 0.01893 0.68226 0.0
H192 H 0.66515 0.05188 0.17671 0.0
H193 H 0.58699 0.86901 0.18546 0.0
H194 H 0.48308 0.90155 0.1727 0.0
H195 H 0.41508 -0.01828 0.1585 0.0
H196 H 0.49279 0.16472 0.1499 0.0
H197 H 0.59692 0.13231 0.16279 0.0
C198 C 0.62536 0.01913 0.17591 0.0
C199 C 0.63348 0.95809 0.18195 0.0
C200 C 0.56602 0.03819 0.16836 0.0
C201 C 0.58172 0.91617 0.18094 0.0
C202 C 0.52244 0.93477 0.17354 0.0
C203 C 0.45479 0.01459 0.15937 0.0
C204 C 0.44648 0.07557 0.15326 0.0
C205 C 0.51412 -0.00438 0.16705 0.0
C206 C 0.4982 0.1176 0.15445 0.0
C207 C 0.55759 0.09905 0.16192 0.0
H208 H 0.09287 0.42152 0.72318 0.0
H209 H 0.89559 0.42728 0.67316 0.0
H210 H 0.91364 0.5243 0.63501 0.0
H211 H 0.9858 0.60602 0.61473 0.0
H212 H 0.18304 0.5999 0.66491 0.0
H213 H 0.16482 0.50338 0.70344 0.0
C214 C 0.05389 0.44421 0.70405 0.0
C215 C 0.99314 0.41763 0.70074 0.0
C216 C 0.06464 0.49926 0.68186 0.0
C217 C 0.94285 0.44721 0.67606 0.0
C218 C 0.95311 0.5024 0.65413 0.0
C219 C 0.02468 0.58342 0.6341 0.0
C220 C 0.08552 0.6097 0.6372 0.0
C221 C 0.01384 0.52852 0.65652 0.0
C222 C 0.13571 0.58023 0.66215 0.0
C223 C 0.12537 0.5253 0.68429 0.0
H224 H 0.26031 0.28477 0.5019 0.0
H225 H 0.06038 0.25495 0.46647 0.0
H226 H 0.06379 0.22855 0.39759 0.0
H227 H 0.12328 0.2152 0.34675 0.0
H228 H 0.32306 0.24727 0.38137 0.0
H229 H 0.31988 0.271 0.45105 0.0
C230 C 0.21743 0.27302 0.47899 0.0
C231 C 0.16017 0.27207 0.48953 0.0
C232 C 0.21967 0.25796 0.43922 0.0
C233 C 0.10518 0.25559 0.45957 0.0
C234 C 0.10704 0.2407 0.42 0.0
C235 C 0.16616 0.22772 0.36942 0.0
C236 C 0.22333 0.22948 0.35859 0.0
C237 C 0.164 0.2419 0.4094 0.0
C238 C 0.27841 0.24476 0.38883 0.0
C239 C 0.27663 0.25882 0.42866 0.0
H240 H 0.81249 0.18502 0.96359 0.0
H241 H 0.96791 0.08382 0.97657 0.0
H242 H 0.96443 0.04859 0.04886 0.0
H243 H 0.91077 0.03754 0.10468 0.0
H244 H 0.75454 0.13589 0.0944 0.0
H245 H 0.76541 0.18256 1.02477 0.0
C246 C 0.84622 0.15619 0.98262 0.0
C247 C 0.88966 0.13606 0.96455 0.0
C248 C 0.84365 0.13559 1.02435 0.0
C249 C 0.93323 0.0988 0.98949 0.0
C250 C 0.93146 0.07886 1.03085 0.0
C251 C 0.87975 0.07015 0.08771 0.0
C252 C 0.83162 0.08298 0.1044 0.0
C253 C 0.88582 0.09558 0.04803 0.0
C254 C 0.79201 0.12544 0.08213 0.0
C255 C 0.79799 0.15165 0.04226 0.0
H256 H 0.99066 0.75282 0.45253 0.0
H257 H 0.85783 0.8069 0.51091 0.0
H258 H 0.79897 0.84839 0.44199 0.0
H259 H 0.79219 0.87832 0.36562 0.0
H260 H 0.92389 0.81768 0.30862 0.0
H261 H 0.97599 0.77002 0.37612 0.0
C262 C 0.94795 0.77241 0.44989 0.0
C263 C 0.92837 0.77686 0.48639 0.0
C264 C 0.91457 0.79581 0.41039 0.0
C265 C 0.87314 0.80234 0.48291 0.0
C266 C 0.83996 0.82667 0.44362 0.0
C267 C 0.83167 0.85389 0.36803 0.0
C268 C 0.85405 0.85184 0.33208 0.0
C269 C 0.86122 0.82514 0.40721 0.0
C270 C 0.90518 0.81972 0.3356 0.0
C271 C 0.93539 0.79251 0.3743 0.0
H272 H 0.08851 0.80815 0.75214 0.0
H273 H 0.26603 0.81677 0.72234 0.0
H274 H 0.31782 0.85145 0.79174 0.0
H275 H 0.31153 0.88046 0.86082 0.0
H276 H 0.13173 0.87478 0.88718 0.0
H277 H 0.08192 0.83827 0.81884 0.0
C278 C 0.13868 0.81661 0.76098 0.0
C279 C 0.17355 0.80871 0.73251 0.0
C280 C 0.1676 0.83767 0.80019 0.0
C281 C 0.23828 0.82199 0.74393 0.0
C282 C 0.26779 0.84188 0.78354 0.0
C283 C 0.2615 0.87091 0.85158 0.0
C284 C 0.2254 0.88056 0.87902 0.0
C285 C 0.23282 0.85005 0.81193 0.0
C286 C 0.16053 0.86853 0.8665 0.0
C287 C 0.13198 0.84719 0.82759 0.0
H288 H 0.93253 0.8407 0.97593 0.0
H289 H 0.75282 0.74003 0.96018 0.0
H290 H 0.75929 0.71357 0.89198 0.0
H291 H 0.817 0.71641 0.83754 0.0
H292 H 0.99542 0.81927 0.85214 0.0
H293 H 0.98844 0.84703 0.91984 0.0
C294 C 0.89439 0.81362 0.95736 0.0
C295 C 0.84241 0.79218 0.9735 0.0
C296 C 0.89837 0.79844 0.91797 0.0
C297 C 0.79385 0.75647 0.94903 0.0
C298 C 0.79737 0.74146 0.90985 0.0
C299 C 0.85411 0.74547 0.85521 0.0
C300 C 0.90687 0.76528 0.83956 0.0
C301 C 0.84961 0.76175 0.89414 0.0
C302 C 0.95477 0.80228 0.86351 0.0
C303 C 0.95061 0.81863 0.90221 0.0
H304 H 0.16841 -0.01321 0.22781 0.0
H305 H 0.32876 0.89537 0.23592 0.0
H306 H 0.31943 0.84513 0.3049 0.0
H307 H 0.27084 0.83547 0.36567 0.0
H308 H 0.11085 0.92933 0.35524 0.0
H309 H 0.11429 0.96966 0.2839 0.0
C310 C 0.20078 0.95505 0.24425 0.0
C311 C 0.24952 0.9451 0.22703 0.0
C312 C 0.19528 0.9271 0.28356 0.0
C313 C 0.2908 0.90361 0.24855 0.0
C314 C 0.28568 0.87533 0.28807 0.0
C315 C 0.23655 0.86443 0.34762 0.0
C316 C 0.19086 0.87959 0.36601 0.0
C317 C 0.23903 0.88805 0.3064 0.0
C318 C 0.14614 0.91643 0.34192 0.0
C319 C 0.14828 0.93989 0.30114 0.0
H320 H 0.0948 0.2811 0.87961 0.0
H321 H 0.21899 0.21209 0.82119 0.0
H322 H 0.27832 0.17269 0.89059 0.0
H323 H 0.28727 0.14888 0.9676 0.0
H324 H 0.16574 0.22529 1.02494 0.0
H325 H 0.11377 0.27115 0.9567 0.0
C326 C 0.13591 0.25884 0.88234 0.0
C327 C 0.15285 0.24953 0.84572 0.0
C328 C 0.16993 0.23704 0.92218 0.0
C329 C 0.20581 0.22037 0.84925 0.0
C330 C 0.23928 0.19734 0.88885 0.0
C331 C 0.25021 0.17646 0.96516 0.0
C332 C 0.23035 0.1831 1.00143 0.0
C333 C 0.22073 0.20401 0.92553 0.0
C334 C 0.18241 0.21939 0.99775 0.0
C335 C 0.1522 0.24556 0.95859 0.0
H336 H 0.78784 0.12879 0.47502 0.0
H337 H 0.92453 0.24411 0.42411 0.0
H338 H 0.96803 0.28333 0.49247 0.0
H339 H 0.96954 0.28271 0.56695 0.0
H340 H 0.83415 0.16667 0.61894 0.0
H341 H 0.78738 0.13067 0.54981 0.0
C342 C 0.82721 0.16242 0.47901 0.0
C343 C 0.85283 0.18357 0.44453 0.0
C344 C 0.85197 0.18499 0.51846 0.0
C345 C 0.90351 0.22756 0.45002 0.0
C346 C 0.92855 0.24989 0.48911 0.0
C347 C 0.92939 0.24999 0.56323 0.0
C348 C 0.90554 0.2275 0.59829 0.0
C349 C 0.90328 0.22882 0.52356 0.0
C350 C 0.85343 0.18507 0.59258 0.0
C351 C 0.82684 0.16411 0.55307 0.0
loop_
_geom_bond_atom_site_label_1
_geom_bond_atom_site_label_2
_geom_bond_distance
_geom_bond_site_symmetry_2
_ccdc_geom_bond_type
Sm0 C2 2.846 . S
Sm0 O20 2.543 . S
Sm0 O21 2.450 . S
Sm0 O22 2.681 . S
Sm0 O23 2.464 . S
Sm0 O24 2.396 . S
Sm0 O28 2.386 . S
Sm0 O31 2.408 . S
Sm1 C11 2.846 1_544 S
Sm1 O22 2.386 . S
Sm1 O25 2.408 1_545 S
Sm1 O26 2.543 1_545 S
Sm1 O27 2.450 1_545 S
Sm1 O28 2.681 . S
Sm1 O29 2.464 . S
Sm1 O30 2.396 . S
C2 Sm0 2.846 . S
C2 C3 1.506 . S
C2 O20 1.261 . S
C2 O21 1.242 . S
C3 C2 1.506 . S
C3 C4 1.358 . S
C3 C8 1.382 . S
C4 C3 1.358 . S
C4 C5 1.385 . S
C4 H32 0.930 . S
C5 C4 1.385 . S
C5 C6 1.395 . S
C5 H33 0.929 . S
C6 C5 1.395 . S
C6 C7 1.335 . S
C7 C6 1.335 . S
C7 C8 1.398 . S
C7 H34 0.930 . S
C8 C3 1.382 . S
C8 C7 1.398 . S
C8 H35 0.929 . S
C9 O22 1.271 . S
C9 O23 1.251 . S
C10 O24 1.252 . S
C10 O25 1.272 1_545 S
C11 Sm1 2.846 1_566 S
C11 C12 1.506 . S
C11 O26 1.261 1_556 S
C11 O27 1.242 1_556 S
C12 C11 1.506 . S
C12 C13 1.358 . S
C12 C17 1.382 . S
C13 C12 1.358 . S
C13 C14 1.385 . S
C13 H36 0.930 . S
C14 C13 1.385 . S
C14 C15 1.395 . S
C14 H37 0.929 . S
C15 C14 1.395 . S
C15 C16 1.335 . S
C16 C15 1.335 . S
C16 C17 1.398 . S
C16 H38 0.930 . S
C17 C12 1.382 . S
C17 C16 1.398 . S
C17 H39 0.929 . S
C18 O28 1.271 . S
C18 O29 1.251 . S
C19 O30 1.252 . S
C19 O31 1.272 . S
O20 Sm0 2.543 . S
O20 C2 1.261 . S
O21 Sm0 2.450 . S
O21 C2 1.242 . S
O22 Sm0 2.681 . S
O22 Sm1 2.386 . S
O22 C9 1.271 . S
O23 Sm0 2.464 . S
O23 C9 1.251 . S
O24 Sm0 2.396 . S
O24 C10 1.252 . S
O25 Sm1 2.408 1_565 S
O25 C10 1.272 1_565 S
O26 Sm1 2.543 1_565 S
O26 C11 1.261 1_554 S
O27 Sm1 2.450 1_565 S
O27 C11 1.242 1_554 S
O28 Sm0 2.386 . S
O28 Sm1 2.681 . S
O28 C18 1.271 . S
O29 Sm1 2.464 . S
O29 C18 1.251 . S
O30 Sm1 2.396 . S
O30 C19 1.252 . S
O31 Sm0 2.408 . S
O31 C19 1.272 . S
H32 C4 0.930 . S
H33 C5 0.929 . S
H34 C7 0.930 . S
H35 C8 0.929 . S
H36 C13 0.930 . S
H37 C14 0.929 . S
H38 C16 0.930 . S
H39 C17 0.929 . S
Sm40 C42 2.846 . S
Sm40 O60 2.543 . S
Sm40 O61 2.450 . S
Sm40 O62 2.681 1_655 S
Sm40 O63 2.464 . S
Sm40 O64 2.396 1_655 S
Sm40 O68 2.386 1_655 S
Sm40 O71 2.408 . S
Sm41 C51 2.846 . S
Sm41 O62 2.386 . S
Sm41 O65 2.408 . S
Sm41 O66 2.543 . S
Sm41 O67 2.450 . S
Sm41 O68 2.681 . S
Sm41 O69 2.464 . S
Sm41 O70 2.396 . S
C42 Sm40 2.846 . S
C42 C43 1.506 . S
C42 O60 1.261 . S
C42 O61 1.242 . S
C43 C42 1.506 . S
C43 C44 1.358 . S
C43 C48 1.382 . S
C44 C43 1.358 . S
C44 C45 1.385 . S
C44 H72 0.930 . S
C45 C44 1.385 . S
C45 C46 1.395 . S
C45 H73 0.929 . S
C46 C45 1.395 . S
C46 C47 1.335 . S
C47 C46 1.335 . S
C47 C48 1.398 . S
C47 H74 0.930 . S
C48 C43 1.382 . S
C48 C47 1.398 . S
C48 H75 0.929 . S
C49 O62 1.271 . S
C49 O63 1.251 1_455 S
C50 O64 1.252 . S
C50 O65 1.272 . S
C51 Sm41 2.846 . S
C51 C52 1.506 . S
C51 O66 1.261 . S
C51 O67 1.242 . S
C52 C51 1.506 . S
C52 C53 1.358 . S
C52 C57 1.382 . S
C53 C52 1.358 . S
C53 C54 1.385 . S
C53 H76 0.930 . S
C54 C53 1.385 . S
C54 C55 1.395 . S
C54 H77 0.929 . S
C55 C54 1.395 . S
C55 C56 1.335 . S
C56 C55 1.335 . S
C56 C57 1.398 . S
C56 H78 0.930 . S
C57 C52 1.382 . S
C57 C56 1.398 . S
C57 H79 0.929 . S
C58 O68 1.271 . S
C58 O69 1.251 . S
C59 O70 1.252 1_655 S
C59 O71 1.272 . S
O60 Sm40 2.543 . S
O60 C42 1.261 . S
O61 Sm40 2.450 . S
O61 C42 1.242 . S
O62 Sm40 2.681 1_455 S
O62 Sm41 2.386 . S
O62 C49 1.271 . S
O63 Sm40 2.464 . S
O63 C49 1.251 1_655 S
O64 Sm40 2.396 1_455 S
O64 C50 1.252 . S
O65 Sm41 2.408 . S
O65 C50 1.272 . S
O66 Sm41 2.543 . S
O66 C51 1.261 . S
O67 Sm41 2.450 . S
O67 C51 1.242 . S
O68 Sm40 2.386 1_455 S
O68 Sm41 2.681 . S
O68 C58 1.271 . S
O69 Sm41 2.464 . S
O69 C58 1.251 . S
O70 Sm41 2.396 . S
O70 C59 1.252 1_455 S
O71 Sm40 2.408 . S
O71 C59 1.272 . S
H72 C44 0.930 . S
H73 C45 0.929 . S
H74 C47 0.930 . S
H75 C48 0.929 . S
H76 C53 0.930 . S
H77 C54 0.929 . S
H78 C56 0.930 . S
H79 C57 0.929 . S
Sm80 C82 2.846 . S
Sm80 O100 2.543 . S
Sm80 O101 2.450 . S
Sm80 O102 2.681 1_545 S
Sm80 O103 2.464 . S
Sm80 O104 2.396 1_545 S
Sm80 O108 2.386 . S
Sm80 O111 2.408 . S
Sm81 C91 2.846 . S
Sm81 O102 2.386 . S
Sm81 O105 2.408 . S
Sm81 O106 2.543 . S
Sm81 O107 2.450 . S
Sm81 O108 2.681 1_565 S
Sm81 O109 2.464 . S
Sm81 O110 2.396 1_565 S
C82 Sm80 2.846 . S
C82 C83 1.506 . S
C82 O100 1.261 . S
C82 O101 1.242 . S
C83 C82 1.506 . S
C83 C84 1.358 . S
C83 C88 1.382 . S
C84 C83 1.358 . S
C84 C85 1.385 . S
C84 H112 0.930 . S
C85 C84 1.385 . S
C85 C86 1.395 . S
C85 H113 0.929 . S
C86 C85 1.395 . S
C86 C87 1.335 . S
C87 C86 1.335 . S
C87 C88 1.398 . S
C87 H114 0.930 . S
C88 C83 1.382 . S
C88 C87 1.398 . S
C88 H115 0.929 . S
C89 O102 1.271 1_545 S
C89 O103 1.251 . S
C90 O104 1.252 . S
C90 O105 1.272 . S
C91 Sm81 2.846 . S
C91 C92 1.506 . S
C91 O106 1.261 . S
C91 O107 1.242 . S
C92 C91 1.506 . S
C92 C93 1.358 . S
C92 C97 1.382 . S
C93 C92 1.358 . S
C93 C94 1.385 1_554 S
C93 H116 0.930 . S
C94 C93 1.385 1_556 S
C94 C95 1.395 . S
C94 H117 0.929 . S
C95 C94 1.395 . S
C95 C96 1.335 . S
C96 C95 1.335 . S
C96 C97 1.398 1_556 S
C96 H118 0.930 . S
C97 C92 1.382 . S
C97 C96 1.398 1_554 S
C97 H119 0.929 . S
C98 O108 1.271 1_565 S
C98 O109 1.251 . S
C99 O110 1.252 . S
C99 O111 1.272 . S
O100 Sm80 2.543 . S
O100 C82 1.261 . S
O101 Sm80 2.450 . S
O101 C82 1.242 . S
O102 Sm80 2.681 1_565 S
O102 Sm81 2.386 . S
O102 C89 1.271 1_565 S
O103 Sm80 2.464 . S
O103 C89 1.251 . S
O104 Sm80 2.396 1_565 S
O104 C90 1.252 . S
O105 Sm81 2.408 . S
O105 C90 1.272 . S
O106 Sm81 2.543 . S
O106 C91 1.261 . S
O107 Sm81 2.450 . S
O107 C91 1.242 . S
O108 Sm80 2.386 . S
O108 Sm81 2.681 1_545 S
O108 C98 1.271 1_545 S
O109 Sm81 2.464 . S
O109 C98 1.251 . S
O110 Sm81 2.396 1_545 S
O110 C99 1.252 . S
O111 Sm80 2.408 . S
O111 C99 1.272 . S
H112 C84 0.930 . S
H113 C85 0.929 . S
H114 C87 0.930 . S
H115 C88 0.929 . S
H116 C93 0.930 . S
H117 C94 0.929 . S
H118 C96 0.930 . S
H119 C97 0.929 . S
Sm120 C122 2.846 . S
Sm120 O140 2.543 . S
Sm120 O141 2.450 . S
Sm120 O142 2.681 1_655 S
Sm120 O143 2.464 . S
Sm120 O144 2.396 1_655 S
Sm120 O148 2.386 1_655 S
Sm120 O151 2.408 . S
Sm121 C131 2.846 . S
Sm121 O142 2.386 . S
Sm121 O145 2.408 . S
Sm121 O146 2.543 . S
Sm121 O147 2.450 . S
Sm121 O148 2.681 . S
Sm121 O149 2.464 . S
Sm121 O150 2.396 . S
C122 Sm120 2.846 . S
C122 C123 1.506 . S
C122 O140 1.261 . S
C122 O141 1.242 . S
C123 C122 1.506 . S
C123 C124 1.358 . S
C123 C128 1.382 . S
C124 C123 1.358 . S
C124 C125 1.385 . S
C124 H152 0.930 . S
C125 C124 1.385 . S
C125 C126 1.395 . S
C125 H153 0.929 . S
C126 C125 1.395 . S
C126 C127 1.335 . S
C127 C126 1.335 . S
C127 C128 1.398 . S
C127 H154 0.930 . S
C128 C123 1.382 . S
C128 C127 1.398 . S
C128 H155 0.929 . S
C129 O142 1.271 . S
C129 O143 1.251 1_455 S
C130 O144 1.252 . S
C130 O145 1.272 . S
C131 Sm121 2.846 . S
C131 C132 1.506 . S
C131 O146 1.261 . S
C131 O147 1.242 . S
C132 C131 1.506 . S
C132 C133 1.358 . S
C132 C137 1.382 . S
C133 C132 1.358 . S
C133 C134 1.385 . S
C133 H156 0.930 . S
C134 C133 1.385 . S
C134 C135 1.395 . S
C134 H157 0.929 . S
C135 C134 1.395 . S
C135 C136 1.335 . S
C136 C135 1.335 . S
C136 C137 1.398 . S
C136 H158 0.930 . S
C137 C132 1.382 . S
C137 C136 1.398 . S
C137 H159 0.929 . S
C138 O148 1.271 . S
C138 O149 1.251 . S
C139 O150 1.252 1_655 S
C139 O151 1.272 . S
O140 Sm120 2.543 . S
O140 C122 1.261 . S
O141 Sm120 2.450 . S
O141 C122 1.242 . S
O142 Sm120 2.681 1_455 S
O142 Sm121 2.386 . S
O142 C129 1.271 . S
O143 Sm120 2.464 . S
O143 C129 1.251 1_655 S
O144 Sm120 2.396 1_455 S
O144 C130 1.252 . S
O145 Sm121 2.408 . S
O145 C130 1.272 . S
O146 Sm121 2.543 . S
O146 C131 1.261 . S
O147 Sm121 2.450 . S
O147 C131 1.242 . S
O148 Sm120 2.386 1_455 S
O148 Sm121 2.681 . S
O148 C138 1.271 . S
O149 Sm121 2.464 . S
O149 C138 1.251 . S
O150 Sm121 2.396 . S
O150 C139 1.252 1_455 S
O151 Sm120 2.408 . S
O151 C139 1.272 . S
H152 C124 0.930 . S
H153 C125 0.929 . S
H154 C127 0.930 . S
H155 C128 0.929 . S
H156 C133 0.930 . S
H157 C134 0.929 . S
H158 C136 0.930 . S
H159 C137 0.929 . S
H160 C166 0.930 . S
H161 C169 0.930 . S
H162 C170 0.930 1_565 S
H163 C171 0.930 . S
H164 C174 0.930 . S
H165 C175 0.930 . S
C166 H160 0.930 . S
C166 C167 1.355 . S
C166 C168 1.415 1_655 S
C167 C166 1.355 . S
C167 C169 1.419 1_645 S
C168 C166 1.415 1_455 S
C168 C173 1.425 . S
C168 C175 1.409 1_455 S
C169 H161 0.930 . S
C169 C167 1.419 1_465 S
C169 C170 1.362 1_565 S
C170 H162 0.930 1_545 S
C170 C169 1.362 1_545 S
C170 C173 1.409 . S
C171 H163 0.930 . S
C171 C172 1.355 . S
C171 C173 1.415 . S
C172 C171 1.355 . S
C172 C174 1.419 . S
C173 C168 1.425 . S
C173 C170 1.409 . S
C173 C171 1.415 . S
C174 H164 0.930 . S
C174 C172 1.419 . S
C174 C175 1.362 1_455 S
C175 H165 0.930 . S
C175 C168 1.409 1_655 S
C175 C174 1.362 1_655 S
H176 C182 0.930 . S
H177 C185 0.930 . S
H178 C186 0.930 . S
H179 C187 0.930 . S
H180 C190 0.930 . S
H181 C191 0.930 . S
C182 H176 0.930 . S
C182 C183 1.355 1_545 S
C182 C184 1.415 . S
C183 C182 1.355 1_565 S
C183 C185 1.419 . S
C184 C182 1.415 . S
C184 C189 1.425 . S
C184 C191 1.409 . S
C185 H177 0.930 . S
C185 C183 1.419 . S
C185 C186 1.362 . S
C186 H178 0.930 . S
C186 C185 1.362 . S
C186 C189 1.409 1_565 S
C187 H179 0.930 . S
C187 C188 1.355 . S
C187 C189 1.415 . S
C188 C187 1.355 . S
C188 C190 1.419 . S
C189 C184 1.425 . S
C189 C186 1.409 1_545 S
C189 C187 1.415 . S
C190 H180 0.930 . S
C190 C188 1.419 . S
C190 C191 1.362 . S
C191 H181 0.930 . S
C191 C184 1.409 . S
C191 C190 1.362 . S
H192 C198 0.930 . S
H193 C201 0.934 . S
H194 C202 0.930 . S
H195 C203 0.930 . S
H196 C206 0.930 . S
H197 C207 0.930 . S
C198 H192 0.930 . S
C198 C199 1.355 . S
C198 C200 1.415 . S
C199 C198 1.355 . S
C199 C201 1.419 . S
C200 C198 1.415 . S
C200 C205 1.425 . S
C200 C207 1.409 . S
C201 H193 0.934 . S
C201 C199 1.419 . S
C201 C202 1.362 . S
C202 H194 0.930 . S
C202 C201 1.362 . S
C202 C205 1.409 . S
C203 H195 0.930 . S
C203 C204 1.355 . S
C203 C205 1.415 . S
C204 C203 1.355 . S
C204 C206 1.419 . S
C205 C200 1.425 . S
C205 C202 1.409 . S
C205 C203 1.415 . S
C206 H196 0.930 . S
C206 C204 1.419 . S
C206 C207 1.362 . S
C207 H197 0.930 . S
C207 C200 1.409 . S
C207 C206 1.362 . S
H208 C214 0.930 . S
H209 C217 0.930 1_655 S
H210 C218 0.930 . S
H211 C219 0.930 1_655 S
H212 C222 0.930 . S
H213 C223 0.930 . S
C214 H208 0.930 . S
C214 C215 1.355 . S
C214 C216 1.415 . S
C215 C214 1.355 . S
C215 C217 1.419 . S
C216 C214 1.415 . S
C216 C221 1.425 . S
C216 C223 1.409 . S
C217 H209 0.930 1_455 S
C217 C215 1.419 . S
C217 C218 1.362 1_455 S
C218 H210 0.930 . S
C218 C217 1.362 1_655 S
C218 C221 1.409 1_655 S
C219 H211 0.930 1_455 S
C219 C220 1.355 . S
C219 C221 1.415 . S
C220 C219 1.355 . S
C220 C222 1.419 . S
C221 C216 1.425 . S
C221 C218 1.409 1_455 S
C221 C219 1.415 . S
C222 H212 0.930 . S
C222 C220 1.419 . S
C222 C223 1.362 . S
C223 H213 0.930 . S
C223 C216 1.409 . S
C223 C222 1.362 . S
H224 C230 0.930 . S
H225 C233 0.930 . S
H226 C234 0.930 . S
H227 C235 0.930 . S
H228 C238 0.930 . S
H229 C239 0.930 . S
C230 H224 0.930 . S
C230 C231 1.355 . S
C230 C232 1.415 . S
C231 C230 1.355 . S
C231 C233 1.419 . S
C232 C230 1.415 . S
C232 C237 1.425 . S
C232 C239 1.409 . S
C233 H225 0.930 . S
C233 C231 1.419 . S
C233 C234 1.362 . S
C234 H226 0.930 . S
C234 C233 1.362 . S
C234 C237 1.409 . S
C235 H227 0.930 . S
C235 C236 1.355 . S
C235 C237 1.415 . S
C236 C235 1.355 . S
C236 C238 1.419 . S
C237 C232 1.425 . S
C237 C234 1.409 . S
C237 C235 1.415 . S
C238 H228 0.930 . S
C238 C236 1.419 . S
C238 C239 1.362 . S
C239 H229 0.930 . S
C239 C232 1.409 . S
C239 C238 1.362 . S
H240 C246 0.930 . S
H241 C249 0.930 . S
H242 C250 0.930 . S
H243 C251 0.930 . S
H244 C254 0.930 . S
H245 C255 0.930 1_556 S
C246 H240 0.930 . S
C246 C247 1.355 . S
C246 C248 1.415 . S
C247 C246 1.355 . S
C247 C249 1.419 . S
C248 C246 1.415 . S
C248 C253 1.425 . S
C248 C255 1.409 1_556 S
C249 H241 0.930 . S
C249 C247 1.419 . S
C249 C250 1.362 . S
C250 H242 0.930 . S
C250 C249 1.362 . S
C250 C253 1.409 . S
C251 H243 0.930 . S
C251 C252 1.355 . S
C251 C253 1.415 1_554 S
C252 C251 1.355 . S
C252 C254 1.419 . S
C253 C248 1.425 . S
C253 C250 1.409 . S
C253 C251 1.415 1_556 S
C254 H244 0.930 . S
C254 C252 1.419 . S
C254 C255 1.362 . S
C255 H245 0.930 1_554 S
C255 C248 1.409 1_554 S
C255 C254 1.362 . S
H256 C262 0.930 . S
H257 C265 0.930 . S
H258 C266 0.930 . S
H259 C267 0.930 . S
H260 C270 0.930 . S
H261 C271 0.930 . S
C262 H256 0.930 . S
C262 C263 1.355 . S
C262 C264 1.415 . S
C263 C262 1.355 . S
C263 C265 1.419 . S
C264 C262 1.415 . S
C264 C269 1.425 . S
C264 C271 1.409 . S
C265 H257 0.930 . S
C265 C263 1.419 . S
C265 C266 1.362 . S
C266 H258 0.930 . S
C266 C265 1.362 . S
C266 C269 1.409 . S
C267 H259 0.930 . S
C267 C268 1.355 . S
C267 C269 1.415 . S
C268 C267 1.355 . S
C268 C270 1.419 . S
C269 C264 1.425 . S
C269 C266 1.409 . S
C269 C267 1.415 . S
C270 H260 0.930 . S
C270 C268 1.419 . S
C270 C271 1.362 . S
C271 H261 0.930 . S
C271 C264 1.409 . S
C271 C270 1.362 . S
H272 C278 0.930 . S
H273 C281 0.930 . S
H274 C282 0.930 . S
H275 C283 0.930 . S
H276 C286 0.930 . S
H277 C287 0.930 . S
C278 H272 0.930 . S
C278 C279 1.355 . S
C278 C280 1.415 . S
C279 C278 1.355 . S
C279 C281 1.419 . S
C280 C278 1.415 . S
C280 C285 1.425 . S
C280 C287 1.409 . S
C281 H273 0.930 . S
C281 C279 1.419 . S
C281 C282 1.362 . S
C282 H274 0.930 . S
C282 C281 1.362 . S
C282 C285 1.409 . S
C283 H275 0.930 . S
C283 C284 1.355 . S
C283 C285 1.415 . S
C284 C283 1.355 . S
C284 C286 1.419 . S
C285 C280 1.425 . S
C285 C282 1.409 . S
C285 C283 1.415 . S
C286 H276 0.930 . S
C286 C284 1.419 . S
C286 C287 1.362 . S
C287 H277 0.930 . S
C287 C280 1.409 . S
C287 C286 1.362 . S
H288 C294 0.930 . S
H289 C297 0.930 . S
H290 C298 0.930 . S
H291 C299 0.930 . S
H292 C302 0.930 . S
H293 C303 0.930 . S
C294 H288 0.930 . S
C294 C295 1.355 . S
C294 C296 1.415 . S
C295 C294 1.355 . S
C295 C297 1.419 . S
C296 C294 1.415 . S
C296 C301 1.425 . S
C296 C303 1.409 . S
C297 H289 0.930 . S
C297 C295 1.419 . S
C297 C298 1.362 . S
C298 H290 0.930 . S
C298 C297 1.362 . S
C298 C301 1.409 . S
C299 H291 0.930 . S
C299 C300 1.355 . S
C299 C301 1.415 . S
C300 C299 1.355 . S
C300 C302 1.419 . S
C301 C296 1.425 . S
C301 C298 1.409 . S
C301 C299 1.415 . S
C302 H292 0.930 . S
C302 C300 1.419 . S
C302 C303 1.362 . S
C303 H293 0.930 . S
C303 C296 1.409 . S
C303 C302 1.362 . S
H304 C310 0.930 . S
H305 C313 0.930 . S
H306 C314 0.930 . S
H307 C315 0.930 . S
H308 C318 0.930 . S
H309 C319 0.930 . S
C310 H304 0.930 . S
C310 C311 1.355 1_545 S
C310 C312 1.415 1_545 S
C311 C310 1.355 1_565 S
C311 C313 1.419 . S
C312 C310 1.415 1_565 S
C312 C317 1.425 . S
C312 C319 1.409 1_565 S
C313 H305 0.930 . S
C313 C311 1.419 . S
C313 C314 1.362 . S
C314 H306 0.930 . S
C314 C313 1.362 . S
C314 C317 1.409 . S
C315 H307 0.930 . S
C315 C316 1.355 . S
C315 C317 1.415 . S
C316 C315 1.355 . S
C316 C318 1.419 . S
C317 C312 1.425 . S
C317 C314 1.409 . S
C317 C315 1.415 . S
C318 H308 0.930 . S
C318 C316 1.419 . S
C318 C319 1.362 1_565 S
C319 H309 0.930 . S
C319 C312 1.409 1_545 S
C319 C318 1.362 1_545 S
H320 C326 0.930 . S
H321 C329 0.930 . S
H322 C330 0.930 . S
H323 C331 0.930 . S
H324 C334 0.930 . S
H325 C335 0.930 . S
C326 H320 0.930 . S
C326 C327 1.355 . S
C326 C328 1.415 . S
C327 C326 1.355 . S
C327 C329 1.419 . S
C328 C326 1.415 . S
C328 C333 1.425 . S
C328 C335 1.409 . S
C329 H321 0.930 . S
C329 C327 1.419 . S
C329 C330 1.362 . S
C330 H322 0.930 . S
C330 C329 1.362 . S
C330 C333 1.409 . S
C331 H323 0.930 . S
C331 C332 1.355 . S
C331 C333 1.415 . S
C332 C331 1.355 . S
C332 C334 1.419 . S
C333 C328 1.425 . S
C333 C330 1.409 . S
C333 C331 1.415 . S
C334 H324 0.930 . S
C334 C332 1.419 . S
C334 C335 1.362 . S
C335 H325 0.930 . S
C335 C328 1.409 . S
C335 C334 1.362 . S
H336 C342 0.930 . S
H337 C345 0.930 . S
H338 C346 0.930 . S
H339 C347 0.930 . S
H340 C350 0.940 . S
H341 C351 0.930 1_455 S
C342 H336 0.930 . S
C342 C343 1.355 . S
C342 C344 1.415 . S
C343 C342 1.355 . S
C343 C345 1.419 . S
C344 C342 1.415 . S
C344 C349 1.425 . S
C344 C351 1.409 . S
C345 H337 0.930 . S
C345 C343 1.419 . S
C345 C346 1.362 . S
C346 H338 0.930 . S
C346 C345 1.362 . S
C346 C349 1.409 . S
C347 H339 0.930 . S
C347 C348 1.355 . S
C347 C349 1.415 . S
C348 C347 1.355 . S
C348 C350 1.408 1_655 S
C349 C344 1.425 . S
C349 C346 1.409 . S
C349 C347 1.415 . S
C350 H340 0.940 . S
C350 C348 1.408 1_455 S
C350 C351 1.363 1_455 S
C351 H341 0.930 1_655 S
C351 C344 1.409 . S
C351 C350 1.363 1_655 S
C167 C89 0.917 . S
C172 C18 0.918 . S
C183 C129 0.764 . S
C188 C58 0.764 . S
C199 C98 1.141 1_545 S
C204 C9 1.141 . S
C215 C49 1.053 . S
C220 C138 1.053 . S
C231 C55 1.030 . S
C236 C6 1.093 . S
C247 C46 1.625 . S
C252 C99 1.660 . S
C263 C139 2.138 . S
C268 C90 2.043 . S
C279 C130 1.403 . S
C284 C15 1.375 . S
C295 C95 1.105 . S
C300 C126 1.067 . S
C311 C10 1.660 1_565 S
C316 C135 1.629 . S
C327 C50 2.138 . S
C332 C19 2.046 1_556 S
C343 C86 1.421 . S
C348 C59 1.359 . S
