# Generated by pormake.
# Topology kag, (6)-cn, num edge types: 1
# Building blocks:
#     Node 0, Type 0, BuildingBlock: BETFEN_clean_sbu_0, # of connection points: 6
#     Node 1, Type 0, BuildingBlock: BETFEN_clean_sbu_0, # of connection points: 6
#     Node 2, Type 0, BuildingBlock: BETFEN_clean_sbu_0, # of connection points: 6
#     Edge 3, Type (0, 0), BuildingBlock: MIFKUJ_clean_linker_0, # of connection points: 2
#     Edge 4, Type (0, 0), BuildingBlock: MIFKUJ_clean_linker_0, # of connection points: 2
#     Edge 5, Type (0, 0), BuildingBlock: MIFKUJ_clean_linker_0, # of connection points: 2
#     Edge 6, Type (0, 0), BuildingBlock: MIFKUJ_clean_linker_0, # of connection points: 2
#     Edge 7, Type (0, 0), BuildingBlock: MIFKUJ_clean_linker_0, # of connection points: 2
#     Edge 8, Type (0, 0), BuildingBlock: MIFKUJ_clean_linker_0, # of connection points: 2
#     Edge 9, Type (0, 0), BuildingBlock: MIFKUJ_clean_linker_0, # of connection points: 2
#     Edge 10, Type (0, 0), BuildingBlock: MIFKUJ_clean_linker_0, # of connection points: 2
#     Edge 11, Type (0, 0), BuildingBlock: MIFKUJ_clean_linker_0, # of connection points: 2
# Relax obj value: 0.053
# Max RMSD: 0.167
# Mean RMSD: 0.088
data_MOF--net-kag--node1-BETFEN_clean_sbu_0--edge1-MIFKUJ_clean_linker_0
_symmetry_space_group_name_H-M    P1
_symmetry_Int_Tables_number       1
_symmetry_cell_setting            triclinic
loop_
_symmetry_equiv_pos_as_xyz
'x, y, z'
_cell_length_a     41.234978
_cell_length_b     51.661162
_cell_length_c     19.370868
_cell_angle_alpha  94.713091
_cell_angle_beta   90.675066
_cell_angle_gamma 101.84964
loop_
_atom_site_label
_atom_site_type_symbol
_atom_site_fract_x
_atom_site_fract_y
_atom_site_fract_z
_atom_type_partial_charge
Pr0 Pr 1.02874 0.4755 0.00821 0.0
Pr1 Pr 0.04645 0.54012 0.98986 0.0
C2 C 1.01016 0.4285 0.06146 0.0
C3 C 0.98426 0.4041 0.04863 0.0
C4 C 0.98056 0.38892 0.98431 0.0
C5 C 0.95551 0.3661 0.97337 0.0
C6 C 0.93353 0.35816 0.02626 0.0
C7 C 0.9372 0.37344 0.09038 0.0
C8 C 0.9624 0.39612 0.1015 0.0
C9 C 1.02793 0.48542 0.86623 0.0
C10 C 0.96612 0.50836 0.99173 0.0
C11 C 0.06453 0.58709 0.93599 0.0
C12 C 0.09019 0.6118 0.94696 0.0
C13 C 0.08914 0.6307 0.00298 0.0
C14 C 0.11352 0.65402 0.01191 0.0
C15 C 0.13946 0.65891 0.96514 0.0
C16 C 0.14045 0.64 0.90918 0.0
C17 C 0.116 0.61678 0.90003 0.0
C18 C 0.04728 0.53019 0.13184 0.0
C19 C 0.10908 0.50729 0.00667 0.0
O20 O 0.99992 0.44986 0.08502 0.0
O21 O 1.03364 0.43305 0.01612 0.0
O22 O 1.03339 0.50197 0.91883 0.0
O23 O 1.02207 0.46168 0.88738 0.0
O24 O 0.98768 0.52983 0.97582 0.0
O25 O 0.9758 0.48677 0.00976 0.0
O26 O 0.07471 0.56569 0.91242 0.0
O27 O 0.04144 0.58259 0.98219 0.0
O28 O 0.04173 0.51364 0.07926 0.0
O29 O 0.05323 0.55394 0.1107 0.0
O30 O 0.0875 0.48583 0.02268 0.0
O31 O 0.0994 0.52885 0.98837 0.0
H32 H 0.99688 0.3947 0.94234 0.0
H33 H 0.9531 0.35481 0.92325 0.0
H34 H 0.92091 0.36762 0.13237 0.0
H35 H 0.9648 0.40748 0.15154 0.0
H36 H 0.06954 0.62754 0.04001 0.0
H37 H 0.11223 0.66814 0.05583 0.0
H38 H 0.15981 0.64338 0.87167 0.0
H39 H 0.11724 0.60272 0.85595 0.0
Pr40 Pr 0.57397 0.01327 0.9933 0.0
Pr41 Pr 0.50189 1.00344 0.01086 0.0
C42 C 0.63651 0.03173 0.95523 0.0
C43 C 0.65812 0.05815 0.95365 0.0
C44 C 0.69204 0.06155 0.96926 0.0
C45 C 0.71268 0.0867 0.97075 0.0
C46 C 0.69973 0.10896 0.95654 0.0
C47 C 0.66564 0.10541 0.9407 0.0
C48 C 0.64502 0.08025 0.93931 0.0
C49 C 0.55661 1.00688 0.13084 0.0
C50 C 0.53714 0.06568 0.01724 0.0
C51 C 0.43876 0.98522 0.04577 0.0
C52 C 0.41625 0.95906 0.04518 0.0
C53 C 0.38384 0.95573 0.01825 0.0
C54 C 0.36255 0.93081 0.01397 0.0
C55 C 0.37324 0.90869 0.03685 0.0
C56 C 0.40575 0.91217 0.06433 0.0
C57 C 0.42708 0.93709 0.06829 0.0
C58 C 0.51968 0.00997 0.87356 0.0
C59 C 0.53893 0.95105 0.98964 0.0
O60 O 0.61113 0.02601 0.91153 0.0
O61 O 0.62935 0.02388 0.01666 0.0
O62 O 0.54392 0.02063 0.09107 0.0
O63 O 0.57902 0.99615 0.09995 0.0
O64 O 0.51019 0.04936 0.03497 0.0
O65 O 0.56312 0.05655 0.99474 0.0
O66 O 0.46372 0.99029 0.09055 0.0
O67 O 0.44675 0.99353 0.98515 0.0
O68 O 0.53196 0.99599 0.91333 0.0
O69 O 0.4975 0.02092 0.90441 0.0
O70 O 0.56551 0.96731 0.97001 0.0
O71 O 0.5131 0.9603 0.01272 0.0
H72 H 0.70252 0.04478 0.98111 0.0
H73 H 0.73868 0.08877 0.98437 0.0
H74 H 0.65488 0.12203 0.92896 0.0
H75 H 0.61885 0.07813 0.92731 0.0
H76 H 0.37512 0.97237 0.99957 0.0
H77 H 0.33792 0.9288 0.99139 0.0
H78 H 0.4147 0.89567 0.08317 0.0
H79 H 0.45207 0.93911 0.08898 0.0
Pr80 Pr 0.54618 0.53751 0.99767 0.0
Pr81 Pr 0.52934 0.47874 0.00884 0.0
C82 C 0.55434 0.58868 0.96606 0.0
C83 C 0.54759 0.61596 0.97895 0.0
C84 C 0.57057 0.63581 0.0181 0.0
C85 C 0.56738 0.66239 0.02247 0.0
C86 C 0.54117 0.67002 0.98759 0.0
C87 C 0.51752 0.65004 0.95025 0.0
C88 C 0.52079 0.62339 0.94565 0.0
C89 C 0.54685 0.52401 0.13546 0.0
C90 C 0.46582 0.50824 0.01003 0.0
C91 C 0.52169 0.42769 0.04111 0.0
C92 C 0.53019 0.40094 0.03014 0.0
C93 C 0.51585 0.38278 0.97448 0.0
C94 C 0.51975 0.35635 0.97023 0.0
C95 C 0.53802 0.34722 0.02156 0.0
C96 C 0.55331 0.36563 0.07595 0.0
C97 C 0.54931 0.39207 0.08033 0.0
C98 C 0.52846 0.49239 0.8714 0.0
C99 C 0.60956 0.50771 0.99372 0.0
O100 O 0.5316 0.56942 0.93614 0.0
O101 O 0.57317 0.58054 0.01075 0.0
O102 O 0.52515 0.51315 0.08962 0.0
O103 O 0.56806 0.54299 0.11139 0.0
O104 O 0.47675 0.48808 0.03295 0.0
O105 O 0.48706 0.5283 0.98671 0.0
O106 O 0.54277 0.44737 0.07411 0.0
O107 O 0.50407 0.43536 0.99324 0.0
O108 O 0.55029 0.50312 0.91708 0.0
O109 O 0.50722 0.47337 0.89535 0.0
O110 O 0.59849 0.52792 0.97148 0.0
O111 O 0.58848 0.48771 0.01766 0.0
H112 H 0.59175 0.63097 0.0438 0.0
H113 H 0.5858 0.67706 0.0526 0.0
H114 H 0.49716 0.65513 0.9222 0.0
H115 H 0.50288 0.60876 0.91416 0.0
H116 H 0.50072 0.38873 0.93507 0.0
H117 H 0.50801 0.34294 0.92701 0.0
H118 H 0.56727 0.35936 0.11687 0.0
H119 H 0.56024 0.40535 0.1245 0.0
H120 H 0.04037 0.53383 0.80881 0.0
H121 H 0.04421 0.5416 0.68531 0.0
H122 H 1.02259 0.45707 0.63098 0.0
H123 H 1.01956 0.44937 0.75365 0.0
H124 H 0.0697 0.47853 0.55246 0.0
H125 H 0.96401 0.49772 0.61323 0.0
H126 H 0.92574 0.52012 0.68058 0.0
H127 H 0.97786 0.59568 0.6228 0.0
H128 H 1.01673 0.57375 0.55581 0.0
H129 H 1.03474 0.48176 0.18914 0.0
H130 H 1.03097 0.47395 0.31263 0.0
H131 H 0.05288 0.55847 0.36717 0.0
H132 H 0.05587 0.56621 0.24452 0.0
H133 H 1.0056 0.53698 0.44556 0.0
H134 H 0.1113 0.51767 0.38469 0.0
H135 H 0.1495 0.49517 0.31739 0.0
H136 H 0.0972 0.41969 0.37532 0.0
H137 H 0.0584 0.44172 0.44226 0.0
C138 C 1.03654 0.51695 0.77052 0.0
C139 C 1.02973 0.49099 0.79149 0.0
C140 C 0.03852 0.52137 0.6996 0.0
C141 C 1.03343 0.49993 0.64777 0.0
C142 C 1.02674 0.47404 0.66912 0.0
C143 C 1.02486 0.46966 0.73968 0.0
C144 C 1.03507 0.50417 0.57156 0.0
C145 C 0.05531 0.49108 0.52916 0.0
C146 C 1.01693 0.5209 0.54028 0.0
C147 C 0.99347 0.53412 0.5801 0.0
C148 C 0.96744 0.51913 0.61528 0.0
C149 C 0.94562 0.53174 0.65333 0.0
C150 C 0.94942 0.55931 0.65612 0.0
C151 C 0.97498 0.57433 0.62068 0.0
C152 C 0.9969 0.56182 0.58262 0.0
C153 C 0.03867 0.49863 0.22748 0.0
C154 C 0.04555 0.5246 0.20657 0.0
C155 C 1.03672 0.49418 0.29838 0.0
C156 C 0.0419 0.51561 0.35026 0.0
C157 C 0.04866 0.5415 0.32899 0.0
C158 C 0.05053 0.54591 0.25844 0.0
C159 C 0.04024 0.51135 0.42647 0.0
C160 C 1.01999 0.52443 0.46887 0.0
C161 C 0.05835 0.49459 0.45773 0.0
C162 C 0.08175 0.48132 0.41789 0.0
C163 C 0.10781 0.49626 0.38268 0.0
C164 C 0.12959 0.48359 0.34466 0.0
C165 C 0.12572 0.45601 0.34193 0.0
C166 C 0.10013 0.44105 0.3774 0.0
C167 C 0.07825 0.45362 0.41542 0.0
H168 H 0.1426 0.44625 0.31246 0.0
H169 H 0.93251 0.56904 0.68562 0.0
H170 H 0.58478 0.98022 0.22256 0.0
H171 H 0.57829 0.98085 0.34783 0.0
H172 H 0.51024 0.0337 0.33665 0.0
H173 H 0.517 0.03336 0.2107 0.0
H174 H 0.55426 0.05009 0.4433 0.0
H175 H 0.48276 0.96803 0.36107 0.0
H176 H 0.4676 0.92422 0.29493 0.0
H177 H 0.54105 0.89628 0.41054 0.0
H178 H 0.55702 0.94008 0.47668 0.0
H179 H 0.49207 0.03702 0.78199 0.0
H180 H 0.49886 0.03662 0.65686 0.0
H181 H 0.56646 0.98341 0.66795 0.0
H182 H 0.55934 0.98348 0.79376 0.0
H183 H 0.52277 0.96725 0.56121 0.0
H184 H 0.59368 0.04985 0.64459 0.0
H185 H 0.60877 0.09409 0.70875 0.0
H186 H 0.53565 0.12121 0.59012 0.0
H187 H 0.51972 0.07702 0.52606 0.0
C188 C 0.56831 0.99192 0.24664 0.0
C189 C 0.55139 1.00674 0.20662 0.0
C190 C 0.56452 0.99217 0.3184 0.0
C191 C 0.54352 1.00712 0.352 0.0
C192 C 0.52658 0.02199 0.31209 0.0
C193 C 0.53035 0.02171 0.24007 0.0
C194 C 0.5398 1.0075 0.42877 0.0
C195 C 0.54688 0.03199 0.46896 0.0
C196 C 0.53099 0.98387 0.46275 0.0
C197 C 0.5213 0.95744 0.42339 0.0
C198 C 0.49586 0.95262 0.37204 0.0
C199 C 0.48709 0.92777 0.33459 0.0
C200 C 0.50341 0.9075 0.34841 0.0
C201 C 0.52846 0.91201 0.39983 0.0
C202 C 0.53736 0.93684 0.43736 0.0
C203 C 0.50851 0.0253 0.75793 0.0
C204 C 0.52517 0.01027 0.79788 0.0
C205 C 0.5125 0.02519 0.68624 0.0
C206 C 0.53347 0.01022 0.65263 0.0
C207 C 0.55018 0.99516 0.69249 0.0
C208 C 0.54619 0.99528 0.76444 0.0
C209 C 0.53725 0.00986 0.57586 0.0
C210 C 0.53017 0.98536 0.53563 0.0
C211 C 0.54595 0.0335 0.54183 0.0
C212 C 0.5553 0.06003 0.5809 0.0
C213 C 0.58059 0.06517 0.63263 0.0
C214 C 0.58933 0.09025 0.66891 0.0
C215 C 0.57315 0.11043 0.65353 0.0
C216 C 0.54815 0.10555 0.60198 0.0
C217 C 0.53926 0.0805 0.56566 0.0
H218 H 0.58005 0.12988 0.68131 0.0
H219 H 0.49659 0.88828 0.31936 0.0
H220 H 0.48523 0.46797 0.76727 0.0
H221 H 0.48885 0.47338 0.64325 0.0
H222 H 0.57941 0.5321 0.68134 0.0
H223 H 0.57606 0.52647 0.80593 0.0
H224 H 0.48817 0.51463 0.56951 0.0
H225 H 0.62947 0.52896 0.54145 0.0
H226 H 0.67749 0.51674 0.59783 0.0
H227 H 0.6142 0.44734 0.66623 0.0
H228 H 0.5659 0.45896 0.60951 0.0
H229 H 0.59074 0.54786 0.23893 0.0
H230 H 0.58718 0.54287 0.36312 0.0
H231 H 0.49499 0.48591 0.3269 0.0
H232 H 0.49834 0.49107 0.20205 0.0
H233 H 0.58737 0.50278 0.43827 0.0
H234 H 0.44506 0.49099 0.46889 0.0
H235 H 0.39772 0.50669 0.42033 0.0
H236 H 0.46415 0.57408 0.34997 0.0
H237 H 0.51182 0.55906 0.39916 0.0
C238 C 0.50595 0.48205 0.74932 0.0
C239 C 0.53048 0.49668 0.79647 0.0
C240 C 0.50794 0.48518 0.67827 0.0
C241 C 0.53459 0.50292 0.6524 0.0
C242 C 0.55887 0.51795 0.69962 0.0
C243 C 0.55687 0.51482 0.77092 0.0
C244 C 0.53671 0.50557 0.57614 0.0
C245 C 0.50968 0.51163 0.54063 0.0
C246 C 0.56511 0.50244 0.53848 0.0
C247 C 0.59403 0.495 0.57184 0.0
C248 C 0.62583 0.51104 0.5683 0.0
C249 C 0.6531 0.50423 0.60035 0.0
C250 C 0.64888 0.48133 0.6358 0.0
C251 C 0.61741 0.46513 0.639 0.0
C252 C 0.59008 0.47184 0.60697 0.0
C253 C 0.56967 0.53424 0.25732 0.0
C254 C 0.54473 0.51995 0.21057 0.0
C255 C 0.56772 0.53135 0.32849 0.0
C256 C 0.54067 0.51422 0.35497 0.0
C257 C 0.51589 0.49958 0.30818 0.0
C258 C 0.51789 0.50243 0.23671 0.0
C259 C 0.53869 0.51169 0.43136 0.0
C260 C 0.56577 0.50566 0.46695 0.0
C261 C 0.51041 0.51505 0.46922 0.0
C262 C 0.48204 0.52369 0.437 0.0
C263 C 0.44956 0.50911 0.44287 0.0
C264 C 0.42267 0.51792 0.41534 0.0
C265 C 0.42794 0.54134 0.382 0.0
C266 C 0.46013 0.5559 0.37563 0.0
C267 C 0.4871 0.54722 0.40322 0.0
H268 H 0.40708 0.54833 0.36163 0.0
H269 H 0.67001 0.47611 0.66065 0.0
H270 H 0.16113 0.5462 0.97068 0.0
H271 H 0.22039 0.54616 0.97181 0.0
H272 H 0.2006 0.46845 0.04721 0.0
H273 H 0.14111 0.46846 0.0469 0.0
H274 H 0.25422 0.49794 0.11391 0.0
H275 H 0.22086 0.47897 0.87431 0.0
H276 H 0.19529 0.48625 0.76376 0.0
H277 H 0.26278 0.56141 0.76016 0.0
H278 H 0.28848 0.55474 0.87123 0.0
H279 H 0.41447 0.46989 0.05125 0.0
H280 H 0.35506 0.46949 0.05024 0.0
H281 H 0.37373 0.54623 0.96918 0.0
H282 H 0.43327 0.54649 0.96882 0.0
H283 H 0.32048 0.51701 0.90519 0.0
H284 H 0.3543 0.53603 0.14346 0.0
H285 H 0.38071 0.52878 0.25275 0.0
H286 H 0.31236 0.45424 0.26023 0.0
H287 H 0.28604 0.46072 0.14965 0.0
C288 C 0.16919 0.52901 0.98761 0.0
C289 C 0.14578 0.50727 0.00845 0.0
C290 C 0.20337 0.52897 0.98785 0.0
C291 C 0.21554 0.50714 0.00864 0.0
C292 C 0.19229 0.48559 0.03064 0.0
C293 C 0.15802 0.48558 0.03024 0.0
C294 C 0.25227 0.50686 0.00757 0.0
C295 C 0.2685 0.50173 0.06781 0.0
C296 C 0.27169 0.51244 0.94832 0.0
C297 C 0.25638 0.51647 0.88144 0.0
C298 C 0.23009 0.49714 0.8502 0.0
C299 C 0.2156 0.50115 0.78741 0.0
C300 C 0.22735 0.52431 0.75505 0.0
C301 C 0.25368 0.5435 0.78534 0.0
C302 C 0.26823 0.53961 0.84819 0.0
C303 C 0.4061 0.48678 0.03333 0.0
C304 C 0.42916 0.5083 0.01049 0.0
C305 C 0.37184 0.48658 0.03303 0.0
C306 C 0.3593 0.508 0.01056 0.0
C307 C 0.38228 0.52938 0.98698 0.0
C308 C 0.41658 0.52957 0.9871 0.0
C309 C 0.32248 0.50809 0.01156 0.0
C310 C 0.30623 0.5132 0.95131 0.0
C311 C 0.30306 0.50255 0.07085 0.0
C312 C 0.31843 0.49874 0.13788 0.0
C313 C 0.34504 0.518 0.16813 0.0
C314 C 0.35999 0.51403 0.23038 0.0
C315 C 0.34825 0.49106 0.26353 0.0
C316 C 0.32147 0.47201 0.23446 0.0
C317 C 0.30654 0.47581 0.17192 0.0
H318 H 0.35987 0.48803 0.31174 0.0
H319 H 0.2161 0.52737 0.70643 0.0
H320 H 0.6863 0.15655 0.00866 0.0
H321 H 0.7234 0.20029 0.01619 0.0
H322 H 0.80015 0.16569 0.92011 0.0
H323 H 0.76304 0.12205 0.9106 0.0
H324 H 0.82131 0.19756 0.04148 0.0
H325 H 0.76139 0.20162 0.82926 0.0
H326 H 0.71219 0.19983 0.75406 0.0
H327 H 0.68549 0.26313 0.88401 0.0
H328 H 0.73433 0.26506 0.96061 0.0
H329 H 0.93957 0.30971 0.96673 0.0
H330 H 0.89705 0.26882 0.95313 0.0
H331 H 0.82594 0.3102 0.04802 0.0
H332 H 0.86837 0.35136 0.06112 0.0
H333 H 0.79966 0.27616 0.93212 0.0
H334 H 0.8589 0.27302 0.14303 0.0
H335 H 0.90812 0.27583 0.21893 0.0
H336 H 0.93487 0.21106 0.09495 0.0
H337 H 0.88604 0.20813 0.01759 0.0
C338 C 0.71088 0.15829 0.98804 0.0
C339 C 0.72171 0.13574 0.95915 0.0
C340 C 0.73207 0.1833 0.99262 0.0
C341 C 0.76445 0.1862 0.96851 0.0
C342 C 0.77525 0.16382 0.93919 0.0
C343 C 0.75406 0.13888 0.93417 0.0
C344 C 0.78769 0.2123 0.97648 0.0
C345 C 0.81677 0.21466 0.01685 0.0
C346 C 0.78112 0.2348 0.94629 0.0
C347 C 0.75137 0.23331 0.90107 0.0
C348 C 0.74486 0.21498 0.84222 0.0
C349 C 0.71712 0.21403 0.79914 0.0
C350 C 0.69579 0.23143 0.81409 0.0
C351 C 0.7021 0.24974 0.87234 0.0
C352 C 0.7298 0.25077 0.91561 0.0
C353 C 0.91478 0.31018 0.98394 0.0
C354 C 0.90732 0.33369 0.01527 0.0
C355 C 0.89059 0.28679 0.97653 0.0
C356 C 0.85847 0.28646 0.00018 0.0
C357 C 0.85062 0.31005 0.02962 0.0
C358 C 0.87491 0.33345 0.03752 0.0
C359 C 0.83352 0.26121 0.99603 0.0
C360 C 0.8041 0.25905 0.95682 0.0
C361 C 0.83959 0.23888 0.0277 0.0
C362 C 0.86899 0.24054 0.07409 0.0
C363 C 0.87544 0.25953 0.13156 0.0
C364 C 0.90324 0.26111 0.17492 0.0
C365 C 0.92466 0.24368 0.16166 0.0
C366 C 0.91828 0.22458 0.10509 0.0
C367 C 0.89053 0.22293 0.06149 0.0
H368 H 0.94616 0.24492 0.19532 0.0
H369 H 0.67429 0.23061 0.78077 0.0
H370 H 0.59029 0.92523 0.96702 0.0
H371 H 0.58906 0.87771 0.96603 0.0
H372 H 0.48429 0.86309 0.00425 0.0
H373 H 0.48561 0.91071 0.00742 0.0
H374 H 0.51135 0.83384 0.08014 0.0
H375 H 0.5173 0.84893 0.83975 0.0
H376 H 0.53975 0.87058 0.73665 0.0
H377 H 0.63251 0.8475 0.77088 0.0
H378 H 0.61076 0.826 0.87475 0.0
H379 H 0.48624 0.69281 0.99816 0.0
H380 H 0.48413 0.73989 0.99722 0.0
H381 H 0.59017 0.75953 0.977 0.0
H382 H 0.59238 0.71263 0.97652 0.0
H383 H 0.5602 0.78562 0.88973 0.0
H384 H 0.55351 0.77072 0.13112 0.0
H385 H 0.53054 0.74925 0.23402 0.0
H386 H 0.43786 0.77199 0.19673 0.0
H387 H 0.46001 0.79313 0.09263 0.0
C388 C 0.56693 0.91193 0.97492 0.0
C389 C 0.53803 0.92193 0.98702 0.0
C390 C 0.56621 0.88463 0.97402 0.0
C391 C 0.53646 0.86649 0.98392 0.0
C392 C 0.5076 0.87648 0.99635 0.0
C393 C 0.50837 0.90382 0.99796 0.0
C394 C 0.53555 0.83724 0.98237 0.0
C395 C 0.52156 0.82326 0.03783 0.0
C396 C 0.54939 0.82326 0.92803 0.0
C397 C 0.56249 0.83606 0.86539 0.0
C398 C 0.54256 0.84862 0.82556 0.0
C399 C 0.55515 0.86085 0.76694 0.0
C400 C 0.58756 0.86047 0.74733 0.0
C401 C 0.60742 0.8478 0.78618 0.0
C402 C 0.59497 0.83557 0.84489 0.0
C403 C 0.5091 0.70713 0.99321 0.0
C404 C 0.53951 0.69879 0.98788 0.0
C405 C 0.5079 0.73412 0.99322 0.0
C406 C 0.53704 0.75346 0.9877 0.0
C407 C 0.56732 0.74513 0.98156 0.0
C408 C 0.56857 0.71823 0.98193 0.0
C409 C 0.53617 0.78232 0.98759 0.0
C410 C 0.54982 0.7962 0.93179 0.0
C411 C 0.52183 0.79614 0.04138 0.0
C412 C 0.50831 0.78321 0.10352 0.0
C413 C 0.5281 0.77087 0.14435 0.0
C414 C 0.51523 0.7588 0.20295 0.0
C415 C 0.4827 0.75915 0.22168 0.0
C416 C 0.46298 0.77163 0.18191 0.0
C417 C 0.47568 0.78365 0.1231 0.0
H418 H 0.4728 0.74983 0.26715 0.0
H419 H 0.59726 0.86995 0.70194 0.0
H420 H 0.91411 0.46927 0.02689 0.0
H421 H 0.85489 0.46927 0.02614 0.0
H422 H 0.87453 0.54713 0.95148 0.0
H423 H 0.9341 0.54749 0.95352 0.0
H424 H 0.82893 0.54587 0.04472 0.0
H425 H 0.84008 0.48749 0.84523 0.0
H426 H 0.8569 0.44944 0.78076 0.0
H427 H 0.79591 0.39589 0.90779 0.0
H428 H 0.77904 0.43367 0.97362 0.0
H429 H 0.66067 0.54595 0.95107 0.0
H430 H 0.72 0.54598 0.9492 0.0
H431 H 0.70162 0.46918 0.02985 0.0
H432 H 0.64208 0.46891 0.03111 0.0
H433 H 0.7465 0.47002 0.93255 0.0
H434 H 0.73557 0.52844 0.13214 0.0
H435 H 0.71887 0.5665 0.1968 0.0
H436 H 0.77955 0.62001 0.06923 0.0
H437 H 0.79627 0.58222 0.00315 0.0
C438 C 0.90602 0.48644 0.01 0.0
C439 C 0.92941 0.50834 0.98996 0.0
C440 C 0.8718 0.48636 0.00925 0.0
C441 C 0.85953 0.50803 0.98769 0.0
C442 C 0.88287 0.53004 0.96826 0.0
C443 C 0.91717 0.53018 0.96922 0.0
C444 C 0.82263 0.50783 0.98619 0.0
C445 C 0.81108 0.5294 0.01915 0.0
C446 C 0.79863 0.4862 0.95452 0.0
C447 C 0.80854 0.46343 0.91476 0.0
C448 C 0.83042 0.46761 0.85971 0.0
C449 C 0.83994 0.44609 0.82288 0.0
C450 C 0.82755 0.42027 0.84028 0.0
C451 C 0.80552 0.41591 0.89442 0.0
C452 C 0.79595 0.43736 0.93146 0.0
C453 C 0.6691 0.52899 0.96844 0.0
C454 C 0.64613 0.50746 0.99149 0.0
C455 C 0.70333 0.5291 0.96771 0.0
C456 C 0.71595 0.50775 0.9903 0.0
C457 C 0.69298 0.48601 0.01221 0.0
C458 C 0.65872 0.48591 0.01309 0.0
C459 C 0.75285 0.50806 0.99102 0.0
C460 C 0.76439 0.4865 0.95797 0.0
C461 C 0.77684 0.52971 0.02254 0.0
C462 C 0.7669 0.55247 0.06225 0.0
C463 C 0.74515 0.54831 0.11753 0.0
C464 C 0.73572 0.56983 0.1545 0.0
C465 C 0.74807 0.59565 0.13701 0.0
C466 C 0.76996 0.6 0.08264 0.0
C467 C 0.77945 0.57853 0.04545 0.0
H468 H 0.74073 0.61229 0.1657 0.0
H469 H 0.83496 0.40364 0.81173 0.0
H470 H 0.13019 0.70929 0.99804 0.0
H471 H 0.17215 0.75048 0.00954 0.0
H472 H 0.2484 0.70633 0.96184 0.0
H473 H 0.20656 0.6649 0.95174 0.0
H474 H 0.26781 0.74402 0.06832 0.0
H475 H 0.2225 0.7398 0.84036 0.0
H476 H 0.17901 0.73443 0.74886 0.0
H477 H 0.14666 0.80298 0.84052 0.0
H478 H 0.18968 0.80854 0.93329 0.0
H479 H 0.38852 0.86017 0.0006 0.0
H480 H 0.35085 0.81669 0.98925 0.0
H481 H 0.26914 0.85351 0.04701 0.0
H482 H 0.30664 0.89694 0.06016 0.0
H483 H 0.25519 0.81819 0.92982 0.0
H484 H 0.30241 0.82054 0.16096 0.0
H485 H 0.34839 0.82515 0.24663 0.0
H486 H 0.38024 0.75888 0.14025 0.0
H487 H 0.33477 0.75415 0.05335 0.0
C488 C 0.15593 0.70831 0.99073 0.0
C489 C 0.16506 0.68385 0.97379 0.0
C490 C 0.17984 0.73188 0.99672 0.0
C491 C 0.21334 0.73149 0.98572 0.0
C492 C 0.22267 0.70708 0.97025 0.0
C493 C 0.19872 0.68347 0.964 0.0
C494 C 0.23848 0.75667 0.9899 0.0
C495 C 0.26532 0.76012 0.03736 0.0
C496 C 0.23512 0.7777 0.94974 0.0
C497 C 0.20911 0.77442 0.89422 0.0
C498 C 0.20592 0.75359 0.84141 0.0
C499 C 0.18139 0.75054 0.78923 0.0
C500 C 0.16002 0.76831 0.78899 0.0
C501 C 0.1632 0.7892 0.84086 0.0
C502 C 0.18767 0.79233 0.89323 0.0
C503 C 0.36263 0.85901 0.01191 0.0
C504 C 0.35063 0.88211 0.03127 0.0
C505 C 0.34113 0.83414 0.00508 0.0
C506 C 0.30725 0.8319 0.01751 0.0
C507 C 0.29519 0.85485 0.03688 0.0
C508 C 0.31666 0.87967 0.04407 0.0
C509 C 0.28409 0.80574 0.00924 0.0
C510 C 0.25768 0.80207 0.9607 0.0
C511 C 0.28818 0.78442 0.04766 0.0
C512 C 0.31539 0.78718 0.10023 0.0
C513 C 0.31939 0.8071 0.15551 0.0
C514 C 0.34535 0.80971 0.20435 0.0
C515 C 0.36731 0.79239 0.19878 0.0
C516 C 0.36329 0.77235 0.14446 0.0
C517 C 0.33741 0.76968 0.09542 0.0
H518 H 0.38738 0.79444 0.23667 0.0
H519 H 0.14106 0.76592 0.74851 0.0
H520 H 0.4884 0.3036 0.98657 0.0
H521 H 0.49046 0.25671 0.98708 0.0
H522 H 0.59302 0.27818 0.0557 0.0
H523 H 0.59138 0.3253 0.0538 0.0
H524 H 0.58312 0.23656 0.95652 0.0
H525 H 0.5329 0.25805 0.16925 0.0
H526 H 0.49278 0.27569 0.2432 0.0
H527 H 0.41254 0.21956 0.13801 0.0
H528 H 0.45217 0.20182 0.06273 0.0
H529 H 0.59169 0.10612 0.03736 0.0
H530 H 0.59391 0.15388 0.04284 0.0
H531 H 0.4879 0.13884 0.00685 0.0
H532 H 0.48546 0.0911 0.00645 0.0
H533 H 0.50211 0.17841 0.09328 0.0
H534 H 0.55315 0.15769 0.87695 0.0
H535 H 0.59419 0.13967 0.80647 0.0
H536 H 0.67335 0.1942 0.9193 0.0
H537 H 0.63294 0.2123 0.99107 0.0
C538 C 0.51158 0.29845 0.00096 0.0
C539 C 0.53973 0.31843 0.02014 0.0
C540 C 0.51262 0.27152 0.00189 0.0
C541 C 0.54179 0.26374 0.02223 0.0
C542 C 0.57016 0.28357 0.04004 0.0
C543 C 0.5691 0.31057 0.03943 0.0
C544 C 0.54242 0.23497 0.02563 0.0
C545 C 0.56563 0.22389 0.987 0.0
C546 C 0.51938 0.21821 0.06458 0.0
C547 C 0.49549 0.22878 0.10992 0.0
C548 C 0.50668 0.2496 0.16152 0.0
C549 C 0.48403 0.2596 0.20374 0.0
C550 C 0.45013 0.2488 0.1952 0.0
C551 C 0.43881 0.22793 0.14451 0.0
C552 C 0.46136 0.21788 0.10209 0.0
C553 C 0.56884 0.11302 0.03087 0.0
C554 C 0.53839 0.09477 0.02131 0.0
C555 C 0.57014 0.14044 0.03332 0.0
C556 C 0.54119 0.15034 0.02339 0.0
C557 C 0.51071 0.132 0.01453 0.0
C558 C 0.50929 0.10462 0.01416 0.0
C559 C 0.54235 0.17962 0.0228 0.0
C560 C 0.51954 0.19091 0.06232 0.0
C561 C 0.56574 0.19654 0.98447 0.0
C562 C 0.59 0.18624 0.93965 0.0
C563 C 0.57933 0.16583 0.88669 0.0
C564 C 0.6025 0.15563 0.84644 0.0
C565 C 0.63638 0.1659 0.85806 0.0
C566 C 0.64714 0.18636 0.91005 0.0
C567 C 0.62412 0.19662 0.95051 0.0
H568 H 0.6543 0.15794 0.82699 0.0
H569 H 0.43263 0.25656 0.22795 0.0
loop_
_geom_bond_atom_site_label_1
_geom_bond_atom_site_label_2
_geom_bond_distance
_geom_bond_site_symmetry_2
_ccdc_geom_bond_type
Pr0 C2 2.880 . S
Pr0 O20 2.562 1_556 S
Pr0 O21 2.490 . S
Pr0 O22 2.695 1_655 S
Pr0 O23 2.512 . S
Pr0 O25 2.437 . S
Pr0 O28 2.436 1_556 S
Pr0 O30 2.438 1_655 S
Pr1 C11 2.880 . S
Pr1 O22 2.436 1_554 S
Pr1 O24 2.438 1_455 S
Pr1 O26 2.562 1_554 S
Pr1 O27 2.490 . S
Pr1 O28 2.695 1_455 S
Pr1 O29 2.512 . S
Pr1 O31 2.437 . S
C2 Pr0 2.880 . S
C2 C3 1.491 . S
C2 O20 1.254 1_556 S
C2 O21 1.225 . S
C3 C2 1.491 . S
C3 C4 1.392 . S
C3 C8 1.356 1_556 S
C4 C3 1.392 . S
C4 C5 1.368 . S
C4 H32 0.929 . S
C5 C4 1.368 . S
C5 C6 1.386 . S
C5 H33 0.929 . S
C6 C5 1.386 . S
C6 C7 1.373 1_556 S
C7 C6 1.373 1_554 S
C7 C8 1.409 . S
C7 H34 0.931 . S
C8 C3 1.356 1_554 S
C8 C7 1.409 . S
C8 H35 0.930 . S
C9 O22 1.270 . S
C9 O23 1.249 1_455 S
C10 O24 1.267 1_556 S
C10 O25 1.278 . S
C11 Pr1 2.880 . S
C11 C12 1.491 . S
C11 O26 1.254 1_554 S
C11 O27 1.225 . S
C12 C11 1.491 . S
C12 C13 1.392 . S
C12 C17 1.356 1_554 S
C13 C12 1.392 . S
C13 C14 1.368 . S
C13 H36 0.929 . S
C14 C13 1.368 . S
C14 C15 1.386 . S
C14 H37 0.929 . S
C15 C14 1.386 . S
C15 C16 1.373 1_554 S
C16 C15 1.373 1_556 S
C16 C17 1.409 . S
C16 H38 0.931 . S
C17 C12 1.356 1_556 S
C17 C16 1.409 . S
C17 H39 0.930 . S
C18 O28 1.270 1_455 S
C18 O29 1.248 . S
C19 O30 1.267 1_554 S
C19 O31 1.278 . S
O20 Pr0 2.562 1_554 S
O20 C2 1.254 1_554 S
O21 Pr0 2.490 . S
O21 C2 1.225 . S
O22 Pr0 2.695 1_455 S
O22 Pr1 2.436 1_556 S
O22 C9 1.270 . S
O23 Pr0 2.512 . S
O23 C9 1.249 1_655 S
O24 Pr1 2.438 1_655 S
O24 C10 1.267 1_554 S
O25 Pr0 2.437 . S
O25 C10 1.278 . S
O26 Pr1 2.562 1_556 S
O26 C11 1.254 1_556 S
O27 Pr1 2.490 . S
O27 C11 1.225 . S
O28 Pr0 2.436 1_554 S
O28 Pr1 2.695 1_655 S
O28 C18 1.270 1_655 S
O29 Pr1 2.512 . S
O29 C18 1.248 . S
O30 Pr0 2.438 1_455 S
O30 C19 1.267 1_556 S
O31 Pr1 2.437 . S
O31 C19 1.278 . S
H32 C4 0.929 . S
H33 C5 0.929 . S
H34 C7 0.931 . S
H35 C8 0.930 . S
H36 C13 0.929 . S
H37 C14 0.929 . S
H38 C16 0.931 . S
H39 C17 0.930 . S
Pr40 C42 2.880 . S
Pr40 O60 2.562 1_554 S
Pr40 O61 2.490 . S
Pr40 O62 2.695 1_545 S
Pr40 O63 2.512 . S
Pr40 O65 2.437 . S
Pr40 O68 2.436 1_554 S
Pr40 O70 2.438 1_545 S
Pr41 C51 2.880 . S
Pr41 O62 2.436 1_556 S
Pr41 O64 2.438 1_565 S
Pr41 O66 2.562 1_556 S
Pr41 O67 2.490 . S
Pr41 O68 2.695 1_565 S
Pr41 O69 2.512 . S
Pr41 O71 2.437 . S
C42 Pr40 2.880 . S
C42 C43 1.491 . S
C42 O60 1.254 1_554 S
C42 O61 1.225 . S
C43 C42 1.491 . S
C43 C44 1.392 . S
C43 C48 1.356 1_554 S
C44 C43 1.392 . S
C44 C45 1.368 . S
C44 H72 0.929 . S
C45 C44 1.368 . S
C45 C46 1.386 1_554 S
C45 H73 0.929 . S
C46 C45 1.386 1_556 S
C46 C47 1.373 . S
C47 C46 1.373 . S
C47 C48 1.409 . S
C47 H74 0.931 . S
C48 C43 1.356 1_556 S
C48 C47 1.409 . S
C48 H75 0.930 . S
C49 O62 1.270 1_545 S
C49 O63 1.248 . S
C50 O64 1.266 1_554 S
C50 O65 1.278 . S
C51 Pr41 2.880 . S
C51 C52 1.491 1_556 S
C51 O66 1.254 1_556 S
C51 O67 1.225 . S
C52 C51 1.491 1_554 S
C52 C53 1.392 1_554 S
C52 C57 1.356 . S
C53 C52 1.392 1_556 S
C53 C54 1.368 . S
C53 H76 0.929 . S
C54 C53 1.368 . S
C54 C55 1.386 1_556 S
C54 H77 0.929 . S
C55 C54 1.386 1_554 S
C55 C56 1.373 . S
C56 C55 1.373 . S
C56 C57 1.409 . S
C56 H78 0.931 . S
C57 C52 1.356 . S
C57 C56 1.409 . S
C57 H79 0.930 . S
C58 O68 1.270 1_565 S
C58 O69 1.248 . S
C59 O70 1.265 1_556 S
C59 O71 1.278 . S
O60 Pr40 2.562 1_556 S
O60 C42 1.254 1_556 S
O61 Pr40 2.490 . S
O61 C42 1.225 . S
O62 Pr40 2.695 1_565 S
O62 Pr41 2.436 1_554 S
O62 C49 1.270 1_565 S
O63 Pr40 2.512 . S
O63 C49 1.248 . S
O64 Pr41 2.438 1_545 S
O64 C50 1.266 1_556 S
O65 Pr40 2.437 . S
O65 C50 1.278 . S
O66 Pr41 2.562 1_554 S
O66 C51 1.254 1_554 S
O67 Pr41 2.490 . S
O67 C51 1.225 . S
O68 Pr40 2.436 1_556 S
O68 Pr41 2.695 1_545 S
O68 C58 1.270 1_545 S
O69 Pr41 2.512 . S
O69 C58 1.248 . S
O70 Pr40 2.438 1_565 S
O70 C59 1.265 1_554 S
O71 Pr41 2.437 . S
O71 C59 1.278 . S
H72 C44 0.929 . S
H73 C45 0.929 . S
H74 C47 0.931 . S
H75 C48 0.930 . S
H76 C53 0.929 . S
H77 C54 0.929 . S
H78 C56 0.931 . S
H79 C57 0.930 . S
Pr80 C82 2.880 . S
Pr80 O100 2.562 1_554 S
Pr80 O101 2.490 . S
Pr80 O102 2.695 . S
Pr80 O103 2.512 . S
Pr80 O105 2.437 . S
Pr80 O108 2.436 1_554 S
Pr80 O110 2.438 . S
Pr81 C91 2.880 . S
Pr81 O102 2.436 1_556 S
Pr81 O104 2.438 . S
Pr81 O106 2.562 1_556 S
Pr81 O107 2.490 . S
Pr81 O108 2.695 . S
Pr81 O109 2.512 . S
Pr81 O111 2.437 . S
C82 Pr80 2.880 . S
C82 C83 1.491 . S
C82 O100 1.254 1_554 S
C82 O101 1.225 . S
C83 C82 1.491 . S
C83 C84 1.392 . S
C83 C88 1.356 1_554 S
C84 C83 1.392 . S
C84 C85 1.368 . S
C84 H112 0.929 . S
C85 C84 1.368 . S
C85 C86 1.394 . S
C85 H113 0.929 . S
C86 C85 1.394 . S
C86 C87 1.366 1_554 S
C87 C86 1.366 1_556 S
C87 C88 1.409 . S
C87 H114 0.931 . S
C88 C83 1.356 1_556 S
C88 C87 1.409 . S
C88 H115 0.930 . S
C89 O102 1.270 . S
C89 O103 1.248 . S
C90 O104 1.267 1_554 S
C90 O105 1.278 . S
C91 Pr81 2.880 . S
C91 C92 1.491 . S
C91 O106 1.254 1_556 S
C91 O107 1.225 . S
C92 C91 1.491 . S
C92 C93 1.392 . S
C92 C97 1.356 1_556 S
C93 C92 1.392 . S
C93 C94 1.368 . S
C93 H116 0.929 . S
C94 C93 1.368 . S
C94 C95 1.390 . S
C94 H117 0.929 . S
C95 C94 1.390 . S
C95 C96 1.369 1_556 S
C96 C95 1.369 1_554 S
C96 C97 1.409 . S
C96 H118 0.931 . S
C97 C92 1.356 1_554 S
C97 C96 1.409 . S
C97 H119 0.930 . S
C98 O108 1.270 . S
C98 O109 1.248 . S
C99 O110 1.267 1_556 S
C99 O111 1.278 . S
O100 Pr80 2.562 1_556 S
O100 C82 1.254 1_556 S
O101 Pr80 2.490 . S
O101 C82 1.225 . S
O102 Pr80 2.695 . S
O102 Pr81 2.436 1_554 S
O102 C89 1.270 . S
O103 Pr80 2.512 . S
O103 C89 1.248 . S
O104 Pr81 2.438 . S
O104 C90 1.267 1_556 S
O105 Pr80 2.437 . S
O105 C90 1.278 . S
O106 Pr81 2.562 1_554 S
O106 C91 1.254 1_554 S
O107 Pr81 2.490 . S
O107 C91 1.225 . S
O108 Pr80 2.436 1_556 S
O108 Pr81 2.695 . S
O108 C98 1.270 . S
O109 Pr81 2.512 . S
O109 C98 1.248 . S
O110 Pr80 2.438 . S
O110 C99 1.267 1_554 S
O111 Pr81 2.437 . S
O111 C99 1.278 . S
H112 C84 0.929 . S
H113 C85 0.929 . S
H114 C87 0.931 . S
H115 C88 0.930 . S
H116 C93 0.929 . S
H117 C94 0.929 . S
H118 C96 0.931 . S
H119 C97 0.930 . S
H120 C138 0.951 . S
H121 C140 0.951 . S
H122 C142 0.946 . S
H123 C143 0.954 1_655 S
H124 C145 0.950 . S
H125 C148 0.950 . S
H126 C149 0.950 . S
H127 C151 0.950 . S
H128 C152 0.950 . S
H129 C153 0.951 . S
H130 C155 0.948 . S
H131 C157 0.950 . S
H132 C158 0.950 . S
H133 C160 0.950 . S
H134 C163 0.950 . S
H135 C164 0.950 . S
H136 C166 0.950 . S
H137 C167 0.950 . S
C138 H120 0.951 . S
C138 C139 1.366 . S
C138 C140 1.388 . S
C139 C138 1.366 . S
C139 C143 1.385 . S
C140 H121 0.951 . S
C140 C138 1.388 . S
C140 C141 1.367 1_455 S
C141 C140 1.367 1_655 S
C141 C142 1.416 . S
C141 C144 1.499 . S
C142 H122 0.946 . S
C142 C141 1.416 . S
C142 C143 1.374 1_655 S
C143 H123 0.954 1_455 S
C143 C139 1.385 . S
C143 C142 1.374 1_455 S
C144 C141 1.499 . S
C144 C145 1.346 1_655 S
C144 C146 1.415 . S
C145 H124 0.950 . S
C145 C144 1.346 1_455 S
C145 C161 1.377 . S
C146 C144 1.415 . S
C146 C147 1.524 . S
C146 C160 1.377 . S
C147 C146 1.524 . S
C147 C148 1.397 . S
C147 C152 1.363 . S
C148 H125 0.950 . S
C148 C147 1.397 . S
C148 C149 1.334 . S
C149 H126 0.950 . S
C149 C148 1.334 . S
C149 C150 1.287 . S
C150 C149 1.287 . S
C150 C151 1.524 . S
C150 H169 0.913 . S
C151 H127 0.950 . S
C151 C150 1.524 . S
C151 C152 1.415 . S
C152 H128 0.950 . S
C152 C147 1.363 . S
C152 C151 1.415 . S
C153 H129 0.951 . S
C153 C154 1.362 . S
C153 C155 1.388 . S
C154 C153 1.362 . S
C154 C158 1.389 1_655 S
C155 H130 0.948 . S
C155 C153 1.388 . S
C155 C156 1.368 1_655 S
C156 C155 1.368 1_455 S
C156 C157 1.414 . S
C156 C159 1.499 . S
C157 H131 0.950 . S
C157 C156 1.414 . S
C157 C158 1.374 . S
C158 H132 0.950 . S
C158 C154 1.389 1_455 S
C158 C157 1.374 . S
C159 C156 1.499 . S
C159 C160 1.373 1_455 S
C159 C161 1.389 . S
C160 H133 0.950 . S
C160 C146 1.377 . S
C160 C159 1.373 1_655 S
C161 C145 1.377 . S
C161 C159 1.389 . S
C161 C162 1.524 . S
C162 C161 1.524 . S
C162 C163 1.397 . S
C162 C167 1.363 . S
C163 H134 0.950 . S
C163 C162 1.397 . S
C163 C164 1.334 . S
C164 H135 0.950 . S
C164 C163 1.334 . S
C164 C165 1.287 . S
C165 C164 1.287 . S
C165 C166 1.524 . S
C165 H168 0.999 . S
C166 H136 0.950 . S
C166 C165 1.524 . S
C166 C167 1.415 . S
C167 H137 0.950 . S
C167 C162 1.363 . S
C167 C166 1.415 . S
H168 C165 0.999 . S
H169 C150 0.913 . S
H170 C188 0.951 . S
H171 C190 0.951 . S
H172 C192 0.950 . S
H173 C193 0.950 . S
H174 C195 0.950 . S
H175 C198 0.950 . S
H176 C199 0.950 . S
H177 C201 0.950 . S
H178 C202 0.950 . S
H179 C203 0.951 . S
H180 C205 0.951 . S
H181 C207 0.950 . S
H182 C208 0.950 . S
H183 C210 0.950 . S
H184 C213 0.950 . S
H185 C214 0.950 . S
H186 C216 0.950 . S
H187 C217 0.950 . S
C188 H170 0.951 . S
C188 C189 1.352 1_565 S
C188 C190 1.388 . S
C189 C188 1.352 1_545 S
C189 C193 1.396 . S
C190 H171 0.951 . S
C190 C188 1.388 . S
C190 C191 1.388 . S
C191 C190 1.388 . S
C191 C192 1.387 1_565 S
C191 C194 1.500 . S
C192 H172 0.950 . S
C192 C191 1.387 1_545 S
C192 C193 1.374 . S
C193 H173 0.950 . S
C193 C189 1.396 . S
C193 C192 1.374 . S
C194 C191 1.500 . S
C194 C195 1.350 1_565 S
C194 C196 1.414 . S
C195 H174 0.950 . S
C195 C194 1.350 1_545 S
C195 C211 1.377 . S
C196 C194 1.414 . S
C196 C197 1.524 . S
C196 C210 1.377 . S
C197 C196 1.524 . S
C197 C198 1.397 . S
C197 C202 1.363 . S
C198 H175 0.950 . S
C198 C197 1.397 . S
C198 C199 1.334 . S
C199 H176 0.950 . S
C199 C198 1.334 . S
C199 C200 1.287 . S
C200 C199 1.287 . S
C200 C201 1.524 . S
C200 H219 0.913 . S
C201 H177 0.950 . S
C201 C200 1.524 . S
C201 C202 1.415 . S
C202 H178 0.950 . S
C202 C197 1.363 . S
C202 C201 1.415 . S
C203 H179 0.951 . S
C203 C204 1.359 1_545 S
C203 C205 1.388 . S
C204 C203 1.359 1_565 S
C204 C208 1.390 . S
C205 H180 0.951 . S
C205 C203 1.388 . S
C205 C206 1.366 . S
C206 C205 1.366 . S
C206 C207 1.414 1_545 S
C206 C209 1.496 . S
C207 H181 0.950 . S
C207 C206 1.414 1_565 S
C207 C208 1.374 . S
C208 H182 0.950 . S
C208 C204 1.390 . S
C208 C207 1.374 . S
C209 C206 1.496 . S
C209 C210 1.342 1_545 S
C209 C211 1.424 . S
C210 H183 0.950 . S
C210 C196 1.377 . S
C210 C209 1.342 1_565 S
C211 C195 1.377 . S
C211 C209 1.424 . S
C211 C212 1.524 . S
C212 C211 1.524 . S
C212 C213 1.397 . S
C212 C217 1.363 . S
C213 H184 0.950 . S
C213 C212 1.397 . S
C213 C214 1.334 . S
C214 H185 0.950 . S
C214 C213 1.334 . S
C214 C215 1.287 . S
C215 C214 1.287 . S
C215 C216 1.524 . S
C215 H218 0.999 . S
C216 H186 0.950 . S
C216 C215 1.524 . S
C216 C217 1.415 . S
C217 H187 0.950 . S
C217 C212 1.363 . S
C217 C216 1.415 . S
H218 C215 0.999 . S
H219 C200 0.913 . S
H220 C238 0.951 . S
H221 C240 0.951 . S
H222 C242 0.950 . S
H223 C243 0.950 . S
H224 C245 0.950 . S
H225 C248 0.950 . S
H226 C249 0.950 . S
H227 C251 0.950 . S
H228 C252 0.950 . S
H229 C253 0.951 . S
H230 C255 0.951 . S
H231 C257 0.950 . S
H232 C258 0.950 . S
H233 C260 0.950 . S
H234 C263 0.950 . S
H235 C264 0.950 . S
H236 C266 0.950 . S
H237 C267 0.950 . S
C238 H220 0.951 . S
C238 C239 1.366 . S
C238 C240 1.388 . S
C239 C238 1.366 . S
C239 C243 1.385 . S
C240 H221 0.951 . S
C240 C238 1.388 . S
C240 C241 1.366 . S
C241 C240 1.366 . S
C241 C242 1.414 . S
C241 C244 1.499 . S
C242 H222 0.950 . S
C242 C241 1.414 . S
C242 C243 1.374 . S
C243 H223 0.950 . S
C243 C239 1.385 . S
C243 C242 1.374 . S
C244 C241 1.499 . S
C244 C245 1.373 . S
C244 C246 1.389 . S
C245 H224 0.950 . S
C245 C244 1.373 . S
C245 C261 1.377 . S
C246 C244 1.389 . S
C246 C247 1.524 . S
C246 C260 1.377 . S
C247 C246 1.524 . S
C247 C248 1.397 . S
C247 C252 1.363 . S
C248 H225 0.950 . S
C248 C247 1.397 . S
C248 C249 1.334 . S
C249 H226 0.950 . S
C249 C248 1.334 . S
C249 C250 1.287 . S
C250 C249 1.287 . S
C250 C251 1.524 . S
C250 H269 0.913 . S
C251 H227 0.950 . S
C251 C250 1.524 . S
C251 C252 1.415 . S
C252 H228 0.950 . S
C252 C247 1.363 . S
C252 C251 1.415 . S
C253 H229 0.951 . S
C253 C254 1.366 . S
C253 C255 1.388 . S
C254 C253 1.366 . S
C254 C258 1.385 . S
C255 H230 0.951 . S
C255 C253 1.388 . S
C255 C256 1.366 . S
C256 C255 1.366 . S
C256 C257 1.414 . S
C256 C259 1.499 . S
C257 H231 0.950 . S
C257 C256 1.414 . S
C257 C258 1.374 . S
C258 H232 0.950 . S
C258 C254 1.385 . S
C258 C257 1.374 . S
C259 C256 1.499 . S
C259 C260 1.373 . S
C259 C261 1.389 . S
C260 H233 0.950 . S
C260 C246 1.377 . S
C260 C259 1.373 . S
C261 C245 1.377 . S
C261 C259 1.389 . S
C261 C262 1.524 . S
C262 C261 1.524 . S
C262 C263 1.397 . S
C262 C267 1.363 . S
C263 H234 0.950 . S
C263 C262 1.397 . S
C263 C264 1.334 . S
C264 H235 0.950 . S
C264 C263 1.334 . S
C264 C265 1.287 . S
C265 C264 1.287 . S
C265 C266 1.524 . S
C265 H268 0.999 . S
C266 H236 0.950 . S
C266 C265 1.524 . S
C266 C267 1.415 . S
C267 H237 0.950 . S
C267 C262 1.363 . S
C267 C266 1.415 . S
H268 C265 0.999 . S
H269 C250 0.913 . S
H270 C288 0.951 . S
H271 C290 0.951 . S
H272 C292 0.950 . S
H273 C293 0.950 . S
H274 C295 0.950 . S
H275 C298 0.950 . S
H276 C299 0.950 . S
H277 C301 0.950 . S
H278 C302 0.950 . S
H279 C303 0.951 . S
H280 C305 0.951 . S
H281 C307 0.950 . S
H282 C308 0.950 . S
H283 C310 0.950 . S
H284 C313 0.950 . S
H285 C314 0.950 . S
H286 C316 0.950 . S
H287 C317 0.950 . S
C288 H270 0.951 . S
C288 C289 1.366 . S
C288 C290 1.388 . S
C289 C288 1.366 . S
C289 C293 1.385 1_556 S
C290 H271 0.951 . S
C290 C288 1.388 . S
C290 C291 1.366 . S
C291 C290 1.366 . S
C291 C292 1.414 1_556 S
C291 C294 1.499 . S
C292 H272 0.950 . S
C292 C291 1.414 1_554 S
C292 C293 1.374 . S
C293 H273 0.950 . S
C293 C289 1.385 1_554 S
C293 C292 1.374 . S
C294 C291 1.499 . S
C294 C295 1.373 1_556 S
C294 C296 1.389 . S
C295 H274 0.950 . S
C295 C294 1.373 1_554 S
C295 C311 1.377 . S
C296 C294 1.389 . S
C296 C297 1.524 . S
C296 C310 1.377 . S
C297 C296 1.524 . S
C297 C298 1.397 . S
C297 C302 1.363 . S
C298 H275 0.950 . S
C298 C297 1.397 . S
C298 C299 1.334 . S
C299 H276 0.950 . S
C299 C298 1.334 . S
C299 C300 1.287 . S
C300 C299 1.287 . S
C300 C301 1.524 . S
C300 H319 0.913 . S
C301 H277 0.950 . S
C301 C300 1.524 . S
C301 C302 1.415 . S
C302 H278 0.950 . S
C302 C297 1.363 . S
C302 C301 1.415 . S
C303 H279 0.951 . S
C303 C304 1.366 1_554 S
C303 C305 1.388 . S
C304 C303 1.366 1_556 S
C304 C308 1.385 . S
C305 H280 0.951 . S
C305 C303 1.388 . S
C305 C306 1.366 1_554 S
C306 C305 1.366 1_556 S
C306 C307 1.414 . S
C306 C309 1.499 . S
C307 H281 0.950 . S
C307 C306 1.414 . S
C307 C308 1.374 . S
C308 H282 0.950 . S
C308 C304 1.385 . S
C308 C307 1.374 . S
C309 C306 1.499 . S
C309 C310 1.373 . S
C309 C311 1.389 1_556 S
C310 H283 0.950 . S
C310 C296 1.377 . S
C310 C309 1.373 . S
C311 C295 1.377 . S
C311 C309 1.389 1_554 S
C311 C312 1.524 . S
C312 C311 1.524 . S
C312 C313 1.397 . S
C312 C317 1.363 . S
C313 H284 0.950 . S
C313 C312 1.397 . S
C313 C314 1.334 . S
C314 H285 0.950 . S
C314 C313 1.334 . S
C314 C315 1.287 . S
C315 C314 1.287 . S
C315 C316 1.524 . S
C315 H318 0.999 . S
C316 H286 0.950 . S
C316 C315 1.524 . S
C316 C317 1.415 . S
C317 H287 0.950 . S
C317 C312 1.363 . S
C317 C316 1.415 . S
H318 C315 0.999 . S
H319 C300 0.913 . S
H320 C338 0.951 . S
H321 C340 0.951 . S
H322 C342 0.950 . S
H323 C343 0.950 . S
H324 C345 0.950 . S
H325 C348 0.950 . S
H326 C349 0.950 . S
H327 C351 0.950 . S
H328 C352 0.950 . S
H329 C353 0.951 . S
H330 C355 0.952 . S
H331 C357 0.951 . S
H332 C358 0.950 . S
H333 C360 0.950 . S
H334 C363 0.950 . S
H335 C364 0.950 . S
H336 C366 0.950 . S
H337 C367 0.950 . S
C338 H320 0.951 . S
C338 C339 1.366 . S
C338 C340 1.388 . S
C339 C338 1.366 . S
C339 C343 1.385 . S
C340 H321 0.951 . S
C340 C338 1.388 . S
C340 C341 1.366 . S
C341 C340 1.366 . S
C341 C342 1.414 . S
C341 C344 1.499 . S
C342 H322 0.950 . S
C342 C341 1.414 . S
C342 C343 1.374 . S
C343 H323 0.950 . S
C343 C339 1.385 . S
C343 C342 1.374 . S
C344 C341 1.499 . S
C344 C345 1.373 1_556 S
C344 C346 1.389 . S
C345 H324 0.950 . S
C345 C344 1.373 1_554 S
C345 C361 1.377 . S
C346 C344 1.389 . S
C346 C347 1.524 . S
C346 C360 1.377 . S
C347 C346 1.524 . S
C347 C348 1.397 . S
C347 C352 1.363 . S
C348 H325 0.950 . S
C348 C347 1.397 . S
C348 C349 1.334 . S
C349 H326 0.950 . S
C349 C348 1.334 . S
C349 C350 1.287 . S
C350 C349 1.287 . S
C350 C351 1.524 . S
C350 H369 0.913 . S
C351 H327 0.950 . S
C351 C350 1.524 . S
C351 C352 1.415 . S
C352 H328 0.950 . S
C352 C347 1.363 . S
C352 C351 1.415 . S
C353 H329 0.951 . S
C353 C354 1.366 . S
C353 C355 1.386 1_556 S
C354 C353 1.366 . S
C354 C358 1.385 . S
C355 H330 0.952 . S
C355 C353 1.386 1_554 S
C355 C356 1.366 . S
C356 C355 1.366 . S
C356 C357 1.413 1_554 S
C356 C359 1.499 . S
C357 H331 0.951 . S
C357 C356 1.413 1_556 S
C357 C358 1.375 . S
C358 H332 0.950 . S
C358 C354 1.385 . S
C358 C357 1.375 . S
C359 C356 1.499 . S
C359 C360 1.373 1_554 S
C359 C361 1.389 . S
C360 H333 0.950 . S
C360 C346 1.377 . S
C360 C359 1.373 1_556 S
C361 C345 1.377 . S
C361 C359 1.389 . S
C361 C362 1.524 . S
C362 C361 1.524 . S
C362 C363 1.397 . S
C362 C367 1.363 . S
C363 H334 0.950 . S
C363 C362 1.397 . S
C363 C364 1.334 . S
C364 H335 0.950 . S
C364 C363 1.334 . S
C364 C365 1.287 . S
C365 C364 1.287 . S
C365 C366 1.524 . S
C365 H368 0.999 . S
C366 H336 0.950 . S
C366 C365 1.524 . S
C366 C367 1.415 . S
C367 H337 0.950 . S
C367 C362 1.363 . S
C367 C366 1.415 . S
H368 C365 0.999 . S
H369 C350 0.913 . S
H370 C388 0.951 . S
H371 C390 0.951 . S
H372 C392 0.950 . S
H373 C393 0.950 . S
H374 C395 0.950 . S
H375 C398 0.950 . S
H376 C399 0.950 . S
H377 C401 0.950 . S
H378 C402 0.950 . S
H379 C403 0.951 . S
H380 C405 0.951 . S
H381 C407 0.950 . S
H382 C408 0.950 . S
H383 C410 0.950 . S
H384 C413 0.950 . S
H385 C414 0.950 . S
H386 C416 0.950 . S
H387 C417 0.950 . S
C388 H370 0.951 . S
C388 C389 1.366 . S
C388 C390 1.388 . S
C389 C388 1.366 . S
C389 C393 1.385 1_556 S
C390 H371 0.951 . S
C390 C388 1.388 . S
C390 C391 1.366 . S
C391 C390 1.366 . S
C391 C392 1.414 1_556 S
C391 C394 1.499 . S
C392 H372 0.950 . S
C392 C391 1.414 1_554 S
C392 C393 1.374 . S
C393 H373 0.950 . S
C393 C389 1.385 1_554 S
C393 C392 1.374 . S
C394 C391 1.499 . S
C394 C395 1.373 1_556 S
C394 C396 1.389 . S
C395 H374 0.950 . S
C395 C394 1.373 1_554 S
C395 C411 1.377 . S
C396 C394 1.389 . S
C396 C397 1.524 . S
C396 C410 1.377 . S
C397 C396 1.524 . S
C397 C398 1.397 . S
C397 C402 1.363 . S
C398 H375 0.950 . S
C398 C397 1.397 . S
C398 C399 1.334 . S
C399 H376 0.950 . S
C399 C398 1.334 . S
C399 C400 1.287 . S
C400 C399 1.287 . S
C400 C401 1.524 . S
C400 H419 0.913 . S
C401 H377 0.950 . S
C401 C400 1.524 . S
C401 C402 1.415 . S
C402 H378 0.950 . S
C402 C397 1.363 . S
C402 C401 1.415 . S
C403 H379 0.951 . S
C403 C404 1.364 1_554 S
C403 C405 1.388 . S
C404 C403 1.364 1_556 S
C404 C408 1.388 . S
C405 H380 0.951 . S
C405 C403 1.388 . S
C405 C406 1.366 . S
C406 C405 1.366 . S
C406 C407 1.414 1_554 S
C406 C409 1.499 . S
C407 H381 0.950 . S
C407 C406 1.414 1_556 S
C407 C408 1.374 . S
C408 H382 0.950 . S
C408 C404 1.388 . S
C408 C407 1.374 . S
C409 C406 1.499 . S
C409 C410 1.373 1_554 S
C409 C411 1.389 . S
C410 H383 0.950 . S
C410 C396 1.377 . S
C410 C409 1.373 1_556 S
C411 C395 1.377 . S
C411 C409 1.389 . S
C411 C412 1.524 . S
C412 C411 1.524 . S
C412 C413 1.397 . S
C412 C417 1.363 . S
C413 H384 0.950 . S
C413 C412 1.397 . S
C413 C414 1.334 . S
C414 H385 0.950 . S
C414 C413 1.334 . S
C414 C415 1.287 . S
C415 C414 1.287 . S
C415 C416 1.524 . S
C415 H418 0.999 . S
C416 H386 0.950 . S
C416 C415 1.524 . S
C416 C417 1.415 . S
C417 H387 0.950 . S
C417 C412 1.363 . S
C417 C416 1.415 . S
H418 C415 0.999 . S
H419 C400 0.913 . S
H420 C438 0.951 . S
H421 C440 0.951 . S
H422 C442 0.950 . S
H423 C443 0.950 . S
H424 C445 0.950 . S
H425 C448 0.950 . S
H426 C449 0.950 . S
H427 C451 0.950 . S
H428 C452 0.950 . S
H429 C453 0.951 . S
H430 C455 0.951 . S
H431 C457 0.950 . S
H432 C458 0.950 . S
H433 C460 0.950 . S
H434 C463 0.950 . S
H435 C464 0.950 . S
H436 C466 0.950 . S
H437 C467 0.950 . S
C438 H420 0.951 . S
C438 C439 1.366 . S
C438 C440 1.388 . S
C439 C438 1.366 . S
C439 C443 1.385 1_554 S
C440 H421 0.951 . S
C440 C438 1.388 . S
C440 C441 1.368 . S
C441 C440 1.368 . S
C441 C442 1.412 1_554 S
C441 C444 1.499 . S
C442 H422 0.950 . S
C442 C441 1.412 1_556 S
C442 C443 1.374 . S
C443 H423 0.950 . S
C443 C439 1.385 1_556 S
C443 C442 1.374 . S
C444 C441 1.499 . S
C444 C445 1.374 . S
C444 C446 1.389 1_554 S
C445 H424 0.950 . S
C445 C444 1.374 . S
C445 C461 1.377 . S
C446 C444 1.389 1_556 S
C446 C447 1.524 . S
C446 C460 1.377 . S
C447 C446 1.524 . S
C447 C448 1.397 . S
C447 C452 1.363 . S
C448 H425 0.950 . S
C448 C447 1.397 . S
C448 C449 1.334 . S
C449 H426 0.950 . S
C449 C448 1.334 . S
C449 C450 1.287 . S
C450 C449 1.287 . S
C450 C451 1.524 . S
C450 H469 0.913 . S
C451 H427 0.950 . S
C451 C450 1.524 . S
C451 C452 1.415 . S
C452 H428 0.950 . S
C452 C447 1.363 . S
C452 C451 1.415 . S
C453 H429 0.951 . S
C453 C454 1.366 1_556 S
C453 C455 1.388 . S
C454 C453 1.366 1_554 S
C454 C458 1.385 . S
C455 H430 0.951 . S
C455 C453 1.388 . S
C455 C456 1.366 1_556 S
C456 C455 1.366 1_554 S
C456 C457 1.414 . S
C456 C459 1.499 . S
C457 H431 0.950 . S
C457 C456 1.414 . S
C457 C458 1.374 . S
C458 H432 0.950 . S
C458 C454 1.385 . S
C458 C457 1.374 . S
C459 C456 1.499 . S
C459 C460 1.373 1_554 S
C459 C461 1.389 . S
C460 H433 0.950 . S
C460 C446 1.377 . S
C460 C459 1.373 1_556 S
C461 C445 1.377 . S
C461 C459 1.389 . S
C461 C462 1.524 . S
C462 C461 1.524 . S
C462 C463 1.397 . S
C462 C467 1.363 . S
C463 H434 0.950 . S
C463 C462 1.397 . S
C463 C464 1.334 . S
C464 H435 0.950 . S
C464 C463 1.334 . S
C464 C465 1.287 . S
C465 C464 1.287 . S
C465 C466 1.524 . S
C465 H468 0.999 . S
C466 H436 0.950 . S
C466 C465 1.524 . S
C466 C467 1.415 . S
C467 H437 0.950 . S
C467 C462 1.363 . S
C467 C466 1.415 . S
H468 C465 0.999 . S
H469 C450 0.913 . S
H470 C488 0.951 . S
H471 C490 0.951 . S
H472 C492 0.950 . S
H473 C493 0.950 . S
H474 C495 0.950 . S
H475 C498 0.950 . S
H476 C499 0.950 . S
H477 C501 0.950 . S
H478 C502 0.950 . S
H479 C503 0.951 . S
H480 C505 0.951 . S
H481 C507 0.950 . S
H482 C508 0.950 . S
H483 C510 0.950 . S
H484 C513 0.950 . S
H485 C514 0.950 . S
H486 C516 0.950 . S
H487 C517 0.950 . S
C488 H470 0.951 . S
C488 C489 1.366 1_556 S
C488 C490 1.388 . S
C489 C488 1.366 1_554 S
C489 C493 1.385 . S
C490 H471 0.951 . S
C490 C488 1.388 . S
C490 C491 1.366 . S
C491 C490 1.366 . S
C491 C492 1.414 1_556 S
C491 C494 1.498 . S
C492 H472 0.950 . S
C492 C491 1.414 1_554 S
C492 C493 1.374 . S
C493 H473 0.950 . S
C493 C489 1.385 . S
C493 C492 1.374 . S
C494 C491 1.498 . S
C494 C495 1.362 1_556 S
C494 C496 1.401 . S
C495 H474 0.950 . S
C495 C494 1.362 1_554 S
C495 C511 1.377 . S
C496 C494 1.401 . S
C496 C497 1.524 . S
C496 C510 1.377 . S
C497 C496 1.524 . S
C497 C498 1.397 . S
C497 C502 1.363 . S
C498 H475 0.950 . S
C498 C497 1.397 . S
C498 C499 1.334 . S
C499 H476 0.950 . S
C499 C498 1.334 . S
C499 C500 1.287 . S
C500 C499 1.287 . S
C500 C501 1.524 . S
C500 H519 0.913 . S
C501 H477 0.950 . S
C501 C500 1.524 . S
C501 C502 1.415 . S
C502 H478 0.950 . S
C502 C497 1.363 . S
C502 C501 1.415 . S
C503 H479 0.951 . S
C503 C504 1.366 . S
C503 C505 1.388 . S
C504 C503 1.366 . S
C504 C508 1.385 1_554 S
C505 H480 0.951 . S
C505 C503 1.388 . S
C505 C506 1.366 . S
C506 C505 1.366 . S
C506 C507 1.414 1_554 S
C506 C509 1.499 . S
C507 H481 0.950 . S
C507 C506 1.414 1_556 S
C507 C508 1.374 . S
C508 H482 0.950 . S
C508 C504 1.385 1_556 S
C508 C507 1.374 . S
C509 C506 1.499 . S
C509 C510 1.373 1_554 S
C509 C511 1.389 . S
C510 H483 0.950 . S
C510 C496 1.377 . S
C510 C509 1.373 1_556 S
C511 C495 1.377 . S
C511 C509 1.389 . S
C511 C512 1.524 . S
C512 C511 1.524 . S
C512 C513 1.397 . S
C512 C517 1.363 . S
C513 H484 0.950 . S
C513 C512 1.397 . S
C513 C514 1.334 . S
C514 H485 0.950 . S
C514 C513 1.334 . S
C514 C515 1.287 . S
C515 C514 1.287 . S
C515 C516 1.524 . S
C515 H518 0.999 . S
C516 H486 0.950 . S
C516 C515 1.524 . S
C516 C517 1.415 . S
C517 H487 0.950 . S
C517 C512 1.363 . S
C517 C516 1.415 . S
H518 C515 0.999 . S
H519 C500 0.913 . S
H520 C538 0.951 . S
H521 C540 0.951 . S
H522 C542 0.950 . S
H523 C543 0.950 . S
H524 C545 0.950 . S
H525 C548 0.950 . S
H526 C549 0.950 . S
H527 C551 0.950 . S
H528 C552 0.950 . S
H529 C553 0.951 . S
H530 C555 0.951 . S
H531 C557 0.950 . S
H532 C558 0.950 . S
H533 C560 0.950 . S
H534 C563 0.950 . S
H535 C564 0.950 . S
H536 C566 0.950 . S
H537 C567 0.950 . S
C538 H520 0.951 . S
C538 C539 1.369 . S
C538 C540 1.388 . S
C539 C538 1.369 . S
C539 C543 1.382 1_554 S
C540 H521 0.951 . S
C540 C538 1.388 . S
C540 C541 1.366 . S
C541 C540 1.366 . S
C541 C542 1.414 1_554 S
C541 C544 1.499 . S
C542 H522 0.950 . S
C542 C541 1.414 1_556 S
C542 C543 1.374 . S
C543 H523 0.950 . S
C543 C539 1.382 1_556 S
C543 C542 1.374 . S
C544 C541 1.499 . S
C544 C545 1.373 1_554 S
C544 C546 1.389 . S
C545 H524 0.950 . S
C545 C544 1.373 1_556 S
C545 C561 1.377 . S
C546 C544 1.389 . S
C546 C547 1.524 . S
C546 C560 1.377 . S
C547 C546 1.524 . S
C547 C548 1.397 . S
C547 C552 1.363 . S
C548 H525 0.950 . S
C548 C547 1.397 . S
C548 C549 1.334 . S
C549 H526 0.950 . S
C549 C548 1.334 . S
C549 C550 1.287 . S
C550 C549 1.287 . S
C550 C551 1.524 . S
C550 H569 0.913 . S
C551 H527 0.950 . S
C551 C550 1.524 . S
C551 C552 1.415 . S
C552 H528 0.950 . S
C552 C547 1.363 . S
C552 C551 1.415 . S
C553 H529 0.951 . S
C553 C554 1.366 1_556 S
C553 C555 1.388 . S
C554 C553 1.366 1_554 S
C554 C558 1.385 . S
C555 H530 0.951 . S
C555 C553 1.388 . S
C555 C556 1.366 . S
C556 C555 1.366 . S
C556 C557 1.414 1_556 S
C556 C559 1.499 . S
C557 H531 0.950 . S
C557 C556 1.414 1_554 S
C557 C558 1.374 . S
C558 H532 0.950 . S
C558 C554 1.385 . S
C558 C557 1.374 . S
C559 C556 1.499 . S
C559 C560 1.373 1_556 S
C559 C561 1.389 . S
C560 H533 0.950 . S
C560 C546 1.377 . S
C560 C559 1.373 1_554 S
C561 C545 1.377 . S
C561 C559 1.389 . S
C561 C562 1.524 . S
C562 C561 1.524 . S
C562 C563 1.397 . S
C562 C567 1.363 . S
C563 H534 0.950 . S
C563 C562 1.397 . S
C563 C564 1.334 . S
C564 H535 0.950 . S
C564 C563 1.334 . S
C564 C565 1.287 . S
C565 C564 1.287 . S
C565 C566 1.524 . S
C565 H568 0.999 . S
C566 H536 0.950 . S
C566 C565 1.524 . S
C566 C567 1.415 . S
C567 H537 0.950 . S
C567 C562 1.363 . S
C567 C566 1.415 . S
H568 C565 0.999 . S
H569 C550 0.913 . S
C139 C9 1.452 . S
C154 C18 1.452 1_655 S
C189 C49 1.451 . S
C204 C58 1.450 . S
C239 C98 1.453 . S
C254 C89 1.453 . S
C289 C19 2.605 1_556 S
C304 C90 2.573 1_556 S
C339 C46 0.870 . S
C354 C6 0.867 . S
C389 C59 1.924 . S
C404 C86 1.896 1_556 S
C439 C10 2.605 1_554 S
C454 C99 2.573 1_554 S
C489 C15 0.869 . S
C504 C55 0.871 . S
C539 C95 1.894 1_554 S
C554 C50 1.922 . S
