# Generated by pormake.
# Topology rkf, (6)-cn, num edge types: 1
# Building blocks:
#     Node 0, Type 0, BuildingBlock: HISSIN_clean_sbu_0, # of connection points: 6
#     Node 1, Type 0, BuildingBlock: HISSIN_clean_sbu_0, # of connection points: 6
#     Node 2, Type 0, BuildingBlock: HISSIN_clean_sbu_0, # of connection points: 6
#     Node 3, Type 0, BuildingBlock: HISSIN_clean_sbu_0, # of connection points: 6
#     Node 4, Type 0, BuildingBlock: HISSIN_clean_sbu_0, # of connection points: 6
#     Node 5, Type 0, BuildingBlock: HISSIN_clean_sbu_0, # of connection points: 6
#     Edge 6, Type (0, 0), BuildingBlock: EZIPEK_clean_linker_0, # of connection points: 2
#     Edge 7, Type (0, 0), BuildingBlock: EZIPEK_clean_linker_0, # of connection points: 2
#     Edge 8, Type (0, 0), BuildingBlock: EZIPEK_clean_linker_0, # of connection points: 2
#     Edge 9, Type (0, 0), BuildingBlock: EZIPEK_clean_linker_0, # of connection points: 2
#     Edge 10, Type (0, 0), BuildingBlock: EZIPEK_clean_linker_0, # of connection points: 2
#     Edge 11, Type (0, 0), BuildingBlock: EZIPEK_clean_linker_0, # of connection points: 2
#     Edge 12, Type (0, 0), BuildingBlock: EZIPEK_clean_linker_0, # of connection points: 2
#     Edge 13, Type (0, 0), BuildingBlock: EZIPEK_clean_linker_0, # of connection points: 2
#     Edge 14, Type (0, 0), BuildingBlock: EZIPEK_clean_linker_0, # of connection points: 2
#     Edge 15, Type (0, 0), BuildingBlock: EZIPEK_clean_linker_0, # of connection points: 2
#     Edge 16, Type (0, 0), BuildingBlock: EZIPEK_clean_linker_0, # of connection points: 2
#     Edge 17, Type (0, 0), BuildingBlock: EZIPEK_clean_linker_0, # of connection points: 2
#     Edge 18, Type (0, 0), BuildingBlock: EZIPEK_clean_linker_0, # of connection points: 2
#     Edge 19, Type (0, 0), BuildingBlock: EZIPEK_clean_linker_0, # of connection points: 2
#     Edge 20, Type (0, 0), BuildingBlock: EZIPEK_clean_linker_0, # of connection points: 2
#     Edge 21, Type (0, 0), BuildingBlock: EZIPEK_clean_linker_0, # of connection points: 2
#     Edge 22, Type (0, 0), BuildingBlock: EZIPEK_clean_linker_0, # of connection points: 2
#     Edge 23, Type (0, 0), BuildingBlock: EZIPEK_clean_linker_0, # of connection points: 2
# Relax obj value: 1.023
# Max RMSD: 0.255
# Mean RMSD: 0.255
data_MOF--net-rkf--node1-HISSIN_clean_sbu_0--edge1-EZIPEK_clean_linker_0
_symmetry_space_group_name_H-M    P1
_symmetry_Int_Tables_number       1
_symmetry_cell_setting            triclinic
loop_
_symmetry_equiv_pos_as_xyz
'x, y, z'
_cell_length_a     20.898152
_cell_length_b     20.731787
_cell_length_c     30.152942
_cell_angle_alpha  88.671091
_cell_angle_beta   90.060587
_cell_angle_gamma 121.84976
loop_
_atom_site_label
_atom_site_type_symbol
_atom_site_fract_x
_atom_site_fract_y
_atom_site_fract_z
_atom_type_partial_charge
Eu0 Eu 0.29447 0.07454 0.29199 0.0
Eu1 Eu 0.3838 0.24498 1.2451 0.0
C2 C 0.46029 0.15756 1.27379 0.0
C3 C 0.28702 0.91567 0.36081 0.0
C4 C 0.31451 0.86886 0.35059 0.0
C5 C 0.31552 0.90934 0.43816 0.0
C6 C 0.34002 0.84038 0.38409 0.0
C7 C 0.29042 -0.06205 0.40467 0.0
C8 C 0.33762 0.85716 0.42884 0.0
C9 C 0.25708 -0.05797 0.32514 0.0
O10 O 0.31959 0.16925 1.18761 0.0
O11 O 0.2972 0.05675 1.21826 0.0
C12 C 0.29611 0.09677 1.18413 0.0
O13 O 0.20032 0.08942 1.26962 0.0
O14 O 0.41233 0.33207 1.19384 0.0
O15 O 0.48395 0.35832 1.2512 0.0
O16 O 0.26563 0.21898 1.25249 0.0
C17 C 0.20276 0.15298 1.2595 0.0
O18 O 0.29732 0.14269 0.34981 0.0
O19 O 0.36817 0.26324 0.318 0.0
O20 O 0.45391 0.19221 1.23924 0.0
O21 O 0.2231 -0.02261 0.33633 0.0
O22 O 0.30175 -0.02614 0.29081 0.0
O23 O 0.41564 0.14512 0.30704 0.0
C24 C 0.46378 0.45348 1.22239 0.0
C25 C 0.44646 0.47053 1.26396 0.0
C26 C 0.43812 0.54319 1.18714 0.0
C27 C 0.42174 0.52136 1.26664 0.0
C28 C 0.46443 0.49414 1.18457 0.0
C29 C 0.41124 0.55279 1.22765 0.0
C30 C 0.4676 0.38538 1.21641 0.0
C31 C 0.33032 0.2169 0.35194 0.0
H32 H 0.31468 0.85281 0.31666 0.0
H33 H 0.31286 0.92502 0.47177 0.0
H34 H 0.35891 0.80319 0.37469 0.0
H35 H 0.27166 -0.02422 0.41346 0.0
H36 H 0.44665 0.44066 0.29387 0.0
H37 H 0.43246 0.56826 1.15666 0.0
H38 H 0.40461 0.53068 0.29853 0.0
H39 H 0.47863 0.48269 1.15233 0.0
Eu40 Eu 0.32768 0.37718 0.62233 0.0
Eu41 Eu 0.21791 0.42217 0.56946 0.0
C42 C 0.37894 0.53731 0.59601 0.0
C43 C 0.4956 0.40737 0.69258 0.0
C44 C 0.56978 0.42598 0.68594 0.0
C45 C 0.52125 0.4338 0.77059 0.0
C46 C 0.61902 0.44635 0.72164 0.0
C47 C 0.47258 0.41438 0.73478 0.0
C48 C 0.59477 0.44721 0.7652 0.0
C49 C 0.44212 0.37608 0.65587 0.0
O50 O 0.25225 0.37784 0.5127 0.0
O51 O 0.33306 0.35114 0.5494 0.0
C52 C 0.29777 0.35204 0.51318 0.0
O53 O 0.22573 0.26341 0.6141 0.0
O54 O 0.14204 0.41763 0.51855 0.0
O55 O 0.18481 0.50614 0.56733 0.0
O56 O 0.14544 0.29532 0.58024 0.0
C57 C 0.16089 0.24572 0.597 0.0
O58 O 0.25532 0.37004 0.67995 0.0
O59 O 0.18465 0.41049 0.6431 0.0
O60 O 0.34049 0.51265 0.55995 0.0
O61 O 0.37185 0.32559 0.66623 0.0
O62 O 0.44886 0.42389 0.62446 0.0
O63 O 0.3469 0.49247 0.63015 0.0
C64 C 0.06077 0.45776 0.54 0.0
C65 C 0.03087 0.46075 0.58122 0.0
C66 C -0.06019 0.41396 0.50627 0.0
C67 C -0.04482 0.4393 0.58489 0.0
C68 C 0.01508 0.43612 0.50249 0.0
C69 C -0.09119 0.41352 0.54758 0.0
C70 C 0.13764 0.47282 0.53501 0.0
C71 C 0.20281 0.38712 0.67954 0.0
H72 H 0.58901 0.42229 0.65326 0.0
H73 H 0.49828 0.43276 0.80289 0.0
H74 H 0.6747 0.45786 0.71474 0.0
H75 H 0.41573 0.40134 0.74055 0.0
H76 H 0.06518 0.4777 0.61065 0.0
H77 H -0.09512 0.39466 0.47706 0.0
H78 H -0.06783 0.43998 0.61692 0.0
H79 H 0.03713 0.43416 0.47037 0.0
Eu80 Eu 0.05441 0.37477 0.95438 0.0
Eu81 Eu 0.88958 0.28036 0.90835 0.0
C82 C -0.03756 0.44593 0.93504 0.0
C83 C 0.20817 0.51732 1.03028 0.0
C84 C 0.27704 0.5335 1.04749 0.0
C85 C 0.18576 0.56884 1.09606 0.0
C86 C 0.29861 0.56382 1.08941 0.0
C87 C 0.16309 0.53644 1.05427 0.0
C88 C 0.25199 0.57912 1.11479 0.0
C89 C 0.18209 0.47438 0.9894 0.0
O90 O -0.03544 0.31311 0.84771 0.0
O91 O 0.08087 0.38616 0.87998 0.0
C92 C 0.03854 0.35414 0.84497 0.0
O93 O 0.05087 0.2707 0.93562 0.0
O94 O 0.80489 0.2062 0.86138 0.0
O95 O 0.77684 0.26275 0.91035 0.0
O96 O -0.07609 0.19396 0.91945 0.0
C97 C -0.00845 0.20502 0.926 0.0
O98 O -0.01702 0.294 1.01044 0.0
O99 O 0.86713 0.26116 0.98307 0.0
O100 O -0.0589 0.40627 0.89935 0.0
O101 O 0.15158 0.40106 0.99434 0.0
O102 O 0.14574 0.49245 0.96151 0.0
O103 O -0.02311 0.4152 0.96841 0.0
C104 C 0.68263 0.13765 0.89077 0.0
C105 C 0.66566 0.10724 0.9344 0.0
C106 C 0.59165 0.01414 0.86313 0.0
C107 C 0.61464 0.02931 0.94196 0.0
C108 C 0.64136 0.09163 0.85567 0.0
C109 C 0.58243 -0.0187 0.90583 0.0
C110 C 0.75138 0.21113 0.88007 0.0
C111 C -0.09054 0.26087 1.01547 0.0
H112 H 0.3125 0.51919 1.0294 0.0
H113 H 0.1496 0.58145 1.11474 0.0
H114 H 0.35018 0.57176 1.10299 0.0
H115 H 0.10929 0.52356 1.0415 0.0
H116 H 0.69574 0.14234 0.9622 0.0
H117 H 0.56612 -0.02104 0.8347 0.0
H118 H 0.60551 0.00601 0.97548 0.0
H119 H 0.65281 0.11421 0.82187 0.0
Eu120 Eu 0.77192 0.11029 0.29714 0.0
Eu121 Eu 0.72457 -0.04578 1.24765 0.0
C122 C 0.6094 -0.00751 1.27974 0.0
C123 C 0.74818 0.23864 0.37464 0.0
C124 C 0.75074 0.30682 0.37884 0.0
C125 C 0.69351 0.19945 0.44857 0.0
C126 C 0.72758 0.32277 0.41831 0.0
C127 C 0.7168 0.18381 0.40897 0.0
C128 C 0.70163 0.27091 0.45511 0.0
C129 C 0.77939 0.22596 0.33461 0.0
O130 O 0.77587 0.03992 1.19088 0.0
O131 O 0.77686 0.13996 1.2231 0.0
C132 C 0.78743 0.10868 1.18844 0.0
O133 O 0.8813 0.13196 1.27108 0.0
O134 O 0.73108 0.88382 1.19759 0.0
O135 O 0.63753 0.83399 1.24468 0.0
O136 O 0.84745 0.0071 1.26455 0.0
C137 C 0.89865 0.08032 1.26616 0.0
O138 O 0.78919 0.04393 0.35171 0.0
O139 O 0.7242 0.92532 0.32097 0.0
O140 O 0.63471 -0.01707 1.24258 0.0
O141 O 0.82917 0.2066 0.34074 0.0
O142 O 0.73049 0.18634 0.30423 0.0
O143 O 0.65591 0.01305 0.31238 0.0
C144 C 0.68429 0.7582 1.22121 0.0
C145 C 0.70186 0.74223 1.26353 0.0
C146 C 0.71376 0.67082 1.1893 0.0
C147 C 0.72717 0.69197 1.26842 0.0
C148 C 0.68742 0.71981 1.18454 0.0
C149 C 0.73698 0.65923 1.23086 0.0
C150 C 0.67259 0.82135 1.2135 0.0
C151 C 0.75881 -0.03032 0.35463 0.0
H152 H 0.77345 0.34922 0.35211 0.0
H153 H 0.67312 0.15607 0.47436 0.0
H154 H 0.73515 0.37831 0.42016 0.0
H155 H 0.71255 0.12973 0.4057 0.0
H156 H 0.69987 0.7715 0.2923 0.0
H157 H 0.72043 0.64556 1.15998 0.0
H158 H 0.74416 0.68297 0.30077 0.0
H159 H 0.67391 0.73131 1.15173 0.0
Eu160 Eu 0.76085 0.81483 0.62836 0.0
Eu161 Eu 0.85897 0.75508 0.57988 0.0
C162 C 0.6926 0.65026 0.60722 0.0
C163 C 0.62638 0.82152 0.7106 0.0
C164 C 0.60191 0.8682 0.72569 0.0
C165 C 0.58631 0.74975 0.78064 0.0
C166 C 0.57306 0.85806 0.76859 0.0
C167 C 0.61766 0.76154 0.73797 0.0
C168 C 0.56756 0.80064 0.79708 0.0
C169 C 0.66552 0.84002 0.66762 0.0
O170 O 0.84005 0.81916 0.52454 0.0
O171 O 0.74034 0.8218 0.55469 0.0
C172 C 0.78551 0.83302 0.5209 0.0
O173 O 0.86234 0.9188 0.60083 0.0
O174 O -0.07388 0.75341 0.52584 0.0
O175 O 0.89118 0.67008 0.57977 0.0
O176 O -0.05777 0.87393 0.60142 0.0
C177 C -0.0698 0.93009 0.60091 0.0
O178 O 0.83995 0.82442 0.68263 0.0
O179 O 0.87591 0.74594 0.65404 0.0
O180 O 0.73494 0.67228 0.57171 0.0
O181 O 0.7385 0.88672 0.66865 0.0
O182 O 0.64527 0.78354 0.64113 0.0
O183 O 0.72315 0.69365 0.64088 0.0
C184 C 0.01089 0.71469 0.54538 0.0
C185 C 0.0682 0.77499 0.51974 0.0
C186 C 0.09856 0.67518 0.56556 0.0
C187 C 0.13877 0.78414 0.51619 0.0
C188 C 0.02716 0.66575 0.56914 0.0
C189 C 0.15395 0.73334 0.53798 0.0
C190 C -0.06632 0.70034 0.54436 0.0
C191 C 0.87413 0.78641 0.68666 0.0
H192 H 0.60807 0.91461 0.70496 0.0
H193 H 0.5806 0.70372 0.80151 0.0
H194 H 0.55797 0.89737 0.78013 0.0
H195 H 0.63702 0.72541 0.72683 0.0
H196 H 0.05812 0.81395 0.50103 0.0
H197 H 0.10954 0.63553 0.58263 0.0
H198 H 0.18075 0.82927 0.4947 0.0
H199 H -0.01579 0.61902 0.58937 0.0
Eu200 Eu 0.02991 0.81171 0.96231 0.0
Eu201 Eu 0.18613 0.93046 0.90888 0.0
C202 C 0.14241 0.7691 0.93769 0.0
C203 C 0.89925 0.65906 1.04703 0.0
C204 C 0.82582 0.61728 1.06399 0.0
C205 C -0.05574 0.62943 1.11409 0.0
C206 C 0.81183 0.58421 1.10642 0.0
C207 C -0.04175 0.66367 1.07177 0.0
C208 C 0.8712 0.59184 1.13299 0.0
C209 C -0.08629 0.70075 1.00466 0.0
O210 O 0.09814 0.89198 0.85536 0.0
O211 O 0.00115 0.78402 0.88968 0.0
C212 C 0.03107 0.82928 0.85442 0.0
O213 O 0.01065 0.90095 0.93529 0.0
O214 O 0.25322 0.01271 0.85669 0.0
O215 O 0.30593 -0.02863 0.90149 0.0
O216 O 0.13529 -0.0018 0.92845 0.0
C217 C 0.06286 -0.02686 0.93069 0.0
O218 O 0.09693 0.89907 1.01398 0.0
O219 O 0.21488 -0.04834 0.98223 0.0
O220 O 0.15566 0.80997 0.90157 0.0
O221 O -0.06618 0.77187 1.0072 0.0
O222 O -0.04666 0.69059 0.97536 0.0
O223 O 0.12504 0.79354 0.97215 0.0
C224 C 0.3823 0.0984 0.87231 0.0
C225 C 0.38405 0.1567 0.84665 0.0
C226 C 0.51046 0.18847 0.89622 0.0
C227 C 0.44814 0.22934 0.8453 0.0
C228 C 0.44596 0.11502 0.89745 0.0
C229 C 0.51218 0.24553 0.86934 0.0
C230 C 0.31629 0.02003 0.86972 0.0
C231 C 0.17083 -0.05714 1.01616 0.0
H232 H 0.77957 0.61302 1.04519 0.0
H233 H -0.00859 0.63502 1.13211 0.0
H234 H 0.75469 0.55677 1.11917 0.0
H235 H 0.0154 0.69537 1.05881 0.0
H236 H 0.33657 0.14589 0.82652 0.0
H237 H 0.55959 0.20007 0.9149 0.0
H238 H 0.44865 0.27265 0.82417 0.0
H239 H 0.44661 0.07103 0.91716 0.0
C240 C 0.00322 0.08302 1.22429 0.0
C241 C -0.02109 0.10623 1.26122 0.0
C242 C 0.1093 0.1848 0.2855 0.0
C243 C 0.13029 0.14845 1.25474 0.0
N244 N 0.10094 0.06953 1.19132 0.0
N245 N 0.00826 0.1745 0.32986 0.0
C246 C 0.07819 0.09944 1.22302 0.0
C247 C 0.03185 0.1568 0.2923 0.0
N248 N -0.04399 0.04889 1.18949 0.0
N249 N 0.16275 0.24604 0.30812 0.0
H250 H -0.04807 0.15376 0.3374 0.0
H251 H 0.0441 0.2039 0.35584 0.0
H252 H 0.22025 0.26775 0.30507 0.0
H253 H 0.1503 0.27948 0.32714 0.0
H254 H -0.02722 0.03717 1.15981 0.0
H255 H -0.09832 0.03887 1.18832 0.0
H256 H 0.06403 0.02531 1.17114 0.0
H257 H 0.15749 0.08841 1.18602 0.0
C258 C -0.01172 0.05921 0.63059 0.0
C259 C -0.00631 0.00903 0.6019 0.0
C260 C 0.11449 0.11348 0.57373 0.0
C261 C 0.10223 0.16495 0.59706 0.0
N262 N 0.01988 0.18723 0.64191 0.0
N263 N 0.05608 -0.009 0.53999 0.0
C264 C 0.0365 0.13812 0.6234 0.0
C265 C 0.05544 0.03646 0.57192 0.0
N266 N -0.06021 0.03155 0.66621 0.0
N267 N 0.18198 0.13765 0.5531 0.0
H268 H 0.01311 -0.06535 0.53614 0.0
H269 H 0.09581 0.01153 0.51425 0.0
H270 H 0.22575 0.1943 0.55091 0.0
H271 H 0.19624 0.10044 0.54043 0.0
H272 H -0.06094 0.06622 0.69044 0.0
H273 H -0.09296 -0.02619 0.67455 0.0
H274 H -0.03183 0.16912 0.65724 0.0
H275 H 0.05501 0.24609 0.63953 0.0
C276 C -0.00455 0.03155 0.96277 0.0
C277 C 0.03919 0.02828 0.92795 0.0
C278 C 0.05264 0.14146 0.89242 0.0
C279 C 0.0028 0.14078 0.92469 0.0
N280 N -0.07865 0.08182 0.98883 0.0
N281 N 0.09291 0.06766 0.85419 0.0
C282 C -0.0285 0.08394 0.95893 0.0
C283 C 0.06279 0.07943 0.89109 0.0
N284 N -0.01856 -0.01128 1.00087 0.0
N285 N 0.09298 0.20258 0.86416 0.0
H286 H 0.09972 0.0216 0.85146 0.0
H287 H 0.10366 0.099 0.82464 0.0
H288 H 0.08834 0.2501 0.86396 0.0
H289 H 0.13607 0.20906 0.84352 0.0
H290 H -0.04281 -0.00507 1.02931 0.0
H291 H 0.00026 -0.04845 1.00584 0.0
H292 H 0.88932 0.03625 1.01083 0.0
H293 H -0.09121 0.12402 0.99015 0.0
C294 C 0.28168 0.52819 1.22585 0.0
C295 C 0.36013 0.58246 1.2257 0.0
C296 C 0.34195 0.66104 1.17178 0.0
C297 C 0.27085 0.59635 1.16227 0.0
N298 N 0.16302 0.47845 1.19084 0.0
N299 N 0.46001 0.71086 1.21178 0.0
C300 C 0.23676 0.5348 1.19341 0.0
C301 C 0.38781 0.6538 1.20406 0.0
N302 N 0.25058 0.46673 1.25436 0.0
N303 N 0.36664 0.72613 1.14713 0.0
H304 H 0.4926 0.7038 1.23542 0.0
H305 H 0.48655 0.7642 1.19616 0.0
H306 H 0.33219 0.72981 1.12335 0.0
H307 H 0.41839 0.77612 1.1512 0.0
H308 H 0.19361 0.42399 1.2537 0.0
H309 H 0.28055 0.46076 1.28 0.0
H310 H 0.12566 0.47892 1.16808 0.0
H311 H 0.12566 0.47892 1.16808 0.0
C312 C 0.77839 0.30184 0.56033 0.0
C313 C 0.82648 0.38061 0.55018 0.0
C314 C 0.72573 0.3747 0.50625 0.0
C315 C 0.69769 0.29675 0.50116 0.0
N316 N 0.6568 0.18802 0.54975 0.0
N317 N 0.83696 0.49619 0.52352 0.0
C318 C 0.7097 0.2608 0.53766 0.0
C319 C 0.79603 0.41901 0.52757 0.0
N320 N 0.79826 0.2642 0.58913 0.0
N321 N 0.68675 0.40502 0.48913 0.0
H322 H 0.88832 0.5284 0.53954 0.0
H323 H 0.82076 0.52695 0.50378 0.0
H324 H 0.63579 0.37074 0.47295 0.0
H325 H 0.7024 0.46119 0.49359 0.0
H326 H 0.84821 0.29093 0.60698 0.0
H327 H 0.84821 0.29093 0.60698 0.0
H328 H 0.66442 0.1596 0.57631 0.0
H329 H 0.60479 0.15915 0.53392 0.0
C330 C 0.60963 0.87937 0.90911 0.0
C331 C 0.55391 0.89857 0.90886 0.0
C332 C 0.48268 0.79969 0.85524 0.0
C333 C 0.55008 0.80219 0.84471 0.0
N334 N 0.67029 0.82563 0.87055 0.0
N335 N 0.42582 0.85861 0.89542 0.0
C336 C 0.61012 0.83397 0.87523 0.0
C337 C 0.48495 0.84971 0.88772 0.0
N338 N 0.66651 0.90894 0.93884 0.0
N339 N 0.41947 0.75378 0.83165 0.0
H340 H 0.42969 0.89682 0.91889 0.0
H341 H 0.37433 0.82886 0.87947 0.0
H342 H 0.41912 0.71791 0.80773 0.0
H343 H 0.36763 0.74822 0.83713 0.0
H344 H 0.66925 -0.05838 0.96538 0.0
H345 H 0.66925 -0.05838 0.96538 0.0
H346 H 0.7165 0.85132 0.89159 0.0
H347 H 0.67327 0.7918 0.84673 0.0
C348 C 0.74244 0.54327 1.22042 0.0
C349 C 0.77982 0.62069 1.23218 0.0
C350 C 0.89881 0.6358 1.20975 0.0
C351 C 0.85774 0.57384 1.18187 0.0
N352 N 0.75138 0.44744 1.17968 0.0
N353 N 0.8979 0.73777 1.24606 0.0
C354 C 0.78347 0.51883 1.19554 0.0
C355 C 0.85982 0.66556 1.23079 0.0
N356 N 0.66754 0.49657 1.22989 0.0
N357 N -0.02648 0.66477 1.21613 0.0
H358 H 0.87145 0.76105 1.26269 0.0
H359 H -0.04445 0.77507 1.24068 0.0
H360 H -0.00014 0.63782 1.20379 0.0
H361 H 0.00554 0.70822 1.23806 0.0
H362 H 0.6355 0.44015 1.22073 0.0
H363 H 0.63824 0.51524 1.24825 0.0
H364 H 0.69657 0.4034 1.18703 0.0
H365 H 0.78274 0.43297 1.15986 0.0
C366 C 0.22723 0.69748 0.49073 0.0
C367 C 0.22586 0.73931 0.52688 0.0
C368 C 0.35503 0.84038 0.50878 0.0
C369 C 0.34268 0.81033 0.46595 0.0
N370 N 0.30712 0.6904 0.43518 0.0
N371 N 0.2961 0.83671 0.57947 0.0
C372 C 0.29244 0.73138 0.46339 0.0
C373 C 0.29384 0.80523 0.53988 0.0
N374 N 0.16485 0.6299 0.4802 0.0
N375 N 0.42064 0.90681 0.5165 0.0
H376 H 0.25051 0.81015 0.60173 0.0
H377 H 0.34238 0.88702 0.59039 0.0
H378 H 0.46243 0.93259 0.4918 0.0
H379 H 0.43427 0.93395 0.54672 0.0
H380 H 0.16125 0.60156 0.45131 0.0
H381 H 0.11601 0.60423 0.49973 0.0
H382 H 0.27329 0.63142 0.43364 0.0
H383 H 0.35816 0.71554 0.41766 0.0
C384 C 0.57964 0.38587 0.87577 0.0
C385 C 0.58102 0.32152 0.86225 0.0
C386 C 0.66872 0.4001 0.80315 0.0
C387 C 0.63815 0.44653 0.80515 0.0
N388 N 0.60861 0.51278 0.85734 0.0
N389 N 0.64374 0.27381 0.8189 0.0
C390 C 0.61164 0.45084 0.84729 0.0
C391 C 0.63296 0.33128 0.82857 0.0
N392 N 0.5426 0.38367 0.9133 0.0
N393 N 0.73232 0.42333 0.77878 0.0
H394 H 0.61913 0.22346 0.83781 0.0
H395 H 0.67531 0.27598 0.79152 0.0
H396 H 0.76161 0.47731 0.76356 0.0
H397 H 0.75948 0.39321 0.77828 0.0
H398 H 0.51716 0.33662 0.93514 0.0
H399 H 0.51716 0.33662 0.93514 0.0
H400 H 0.58645 0.51684 0.88743 0.0
H401 H 0.62991 0.55937 0.83522 0.0
C402 C 0.49153 0.06779 1.23593 0.0
C403 C 0.49802 0.11353 1.27274 0.0
C404 C 0.54507 0.04866 0.31838 0.0
C405 C 0.55206 0.01452 1.28025 0.0
N406 N 0.49889 -0.03877 1.21021 0.0
N407 N 0.54537 0.15645 0.34642 0.0
C408 C 0.51602 0.01549 1.24084 0.0
C409 C 0.52851 0.10608 0.3133 0.0
N410 N 0.46361 0.07432 1.19619 0.0
N411 N 0.55026 0.0232 0.3596 0.0
H412 H 0.53999 0.20356 0.34294 0.0
H413 H 0.57271 0.15638 0.3753 0.0
H414 H 0.55452 -0.02449 0.3641 0.0
H415 H 0.53958 0.04219 0.38875 0.0
H416 H 0.46835 0.05108 1.16708 0.0
H417 H 0.43922 0.10605 1.19049 0.0
H418 H 0.4667 -0.04682 1.18217 0.0
H419 H 0.50852 0.91724 1.21605 0.0
C420 C 0.50422 0.58832 0.55698 0.0
C421 C 0.46277 0.583 0.59553 0.0
C422 C 0.56678 0.6028 0.64222 0.0
C423 C 0.60887 0.60865 0.60386 0.0
N424 N 0.60411 0.57505 0.52735 0.0
N425 N 0.46591 0.61391 0.67217 0.0
C426 C 0.5739 0.59239 0.56177 0.0
C427 C 0.49803 0.59964 0.63734 0.0
N428 N 0.4796 0.59436 0.51606 0.0
N429 N 0.59019 0.59517 0.68323 0.0
H430 H 0.41779 0.6168 0.66837 0.0
H431 H 0.49101 0.63072 0.70302 0.0
H432 H 0.6368 0.58993 0.68757 0.0
H433 H 0.55826 0.58406 0.71209 0.0
H434 H 0.50998 0.60287 0.48688 0.0
H435 H 0.43459 0.60221 0.51199 0.0
H436 H 0.57859 0.5583 0.49659 0.0
H437 H 0.64863 0.56647 0.53167 0.0
C438 C 0.02623 0.57308 0.89383 0.0
C439 C -0.00137 0.53009 0.93419 0.0
C440 C 0.08481 0.64271 0.97602 0.0
C441 C 0.11118 0.68588 0.93586 0.0
N442 N 0.13133 0.68335 0.85742 0.0
N443 N -0.01779 0.53148 1.01317 0.0
C444 C 0.08918 0.64862 0.89484 0.0
C445 C 0.02234 0.56729 0.97525 0.0
N446 N -0.01087 0.54449 0.85507 0.0
N447 N 0.12186 0.67333 1.01456 0.0
H448 H -0.06876 0.47928 1.01268 0.0
H449 H -0.0055 0.55672 1.04397 0.0
H450 H 0.17215 0.72618 1.01494 0.0
H451 H 0.10797 0.64352 1.04481 0.0
H452 H 0.00443 0.57598 0.82533 0.0
H453 H -0.06364 0.49457 0.85405 0.0
H454 H 0.12097 0.65628 0.82722 0.0
H455 H 0.18309 0.73459 0.85836 0.0
C456 C 0.24917 0.22579 0.41133 0.0
C457 C 0.32216 0.25001 0.39402 0.0
C458 C 0.37873 0.34554 0.45253 0.0
C459 C 0.30624 0.31807 0.47155 0.0
N460 N 0.17265 0.22422 0.47218 0.0
N461 N 0.4567 0.32267 0.40361 0.0
C462 C 0.24157 0.25622 0.45168 0.0
C463 C 0.38701 0.30725 0.4161 0.0
N464 N 0.18649 0.17545 0.38841 0.0
N465 N 0.43961 0.41035 0.46808 0.0
H466 H 0.46497 0.29475 0.37801 0.0
H467 H 0.50547 0.35753 0.42129 0.0
H468 H 0.43581 0.44037 0.49416 0.0
H469 H 0.49238 0.43824 0.45261 0.0
H470 H 0.13244 0.16297 0.39589 0.0
H471 H 0.18836 0.15062 0.35925 0.0
H472 H 0.12555 0.17283 0.46319 0.0
H473 H 0.16332 0.24488 0.50098 0.0
C474 C 0.11145 0.30623 0.74137 0.0
C475 C 0.16119 0.37939 0.72201 0.0
C476 C 0.12774 0.43657 0.78205 0.0
C477 C 0.0769 0.36288 0.80085 0.0
N478 N 0.00722 0.22662 0.79135 0.0
N479 N 0.22408 0.51525 0.72616 0.0
C480 C 0.06473 0.29759 0.77834 0.0
C481 C 0.17079 0.4449 0.74281 0.0
N482 N 0.11118 0.24461 0.72587 0.0
N483 N 0.13146 0.49818 0.80046 0.0
H484 H 0.25678 0.52317 0.69806 0.0
H485 H 0.23992 0.56605 0.74127 0.0
H486 H 0.09897 0.49372 0.82795 0.0
H487 H 0.16209 0.55316 0.78713 0.0
H488 H 0.08431 0.19182 0.74229 0.0
H489 H 0.14277 0.24718 0.69846 0.0
H490 H -0.01148 0.17883 0.7722 0.0
H491 H -0.02525 0.21511 0.81994 0.0
C492 C -0.09368 0.26399 1.09951 0.0
C493 C 0.87347 0.2245 1.05982 0.0
C494 C 0.77394 0.11788 1.10543 0.0
C495 C 0.81404 0.15203 1.14474 0.0
N496 N -0.0741 0.25505 1.17792 0.0
N497 N 0.77868 0.10782 1.02588 0.0
C498 C 0.88205 0.22462 1.14148 0.0
C499 C 0.80761 0.15 1.06298 0.0
N500 N -0.04138 0.34025 1.09746 0.0
N501 N 0.70226 0.05583 1.1086 0.0
H502 H 0.80056 0.12763 0.99407 0.0
H503 H 0.73678 0.05034 1.02705 0.0
H504 H 0.67502 0.03209 1.13896 0.0
H505 H 0.66705 0.03311 1.08143 0.0
H506 H -0.02091 0.37344 1.12548 0.0
H507 H -0.02492 0.37215 1.06781 0.0
H508 H -0.0198 0.30303 1.17622 0.0
H509 H -0.08889 0.22905 1.20926 0.0
C510 C 0.83676 -0.04123 0.41516 0.0
C511 C 0.76492 0.93418 0.39715 0.0
C512 C 0.70682 0.83627 0.45714 0.0
C513 C 0.77788 0.86735 0.47809 0.0
N514 N -0.09261 -0.0281 0.48124 0.0
N515 N 0.6297 0.85748 0.4058 0.0
C516 C 0.84204 0.93238 0.45821 0.0
C517 C 0.69933 0.87502 0.41948 0.0
N518 N 0.9004 0.00492 0.39045 0.0
N519 N 0.64702 0.76809 0.47192 0.0
H520 H 0.62184 0.88535 0.37909 0.0
H521 H 0.58029 0.82054 0.42351 0.0
H522 H 0.65068 0.7368 0.49828 0.0
H523 H 0.59608 0.73905 0.45525 0.0
H524 H -0.04607 0.01877 0.40029 0.0
H525 H 0.89874 0.02212 0.35795 0.0
H526 H -0.04666 0.02375 0.47002 0.0
H527 H -0.08753 -0.04231 0.51375 0.0
C528 C 0.87258 0.77614 0.77048 0.0
C529 C -0.08786 0.78983 0.72964 0.0
C530 C 0.02295 0.81133 0.77147 0.0
C531 C -0.01239 0.81009 0.81197 0.0
N532 N 0.88087 0.80287 0.84861 0.0
N533 N 0.03085 0.83313 0.69197 0.0
C534 C -0.08725 0.79512 0.81118 0.0
C535 C -0.01118 0.81038 0.73027 0.0
N536 N 0.79603 0.74266 0.77065 0.0
N537 N 0.08818 0.81103 0.77225 0.0
H538 H 0.00961 0.83571 0.66119 0.0
H539 H 0.08891 0.85662 0.69141 0.0
H540 H 0.11343 0.80899 0.80168 0.0
H541 H 0.11247 0.80429 0.74397 0.0
H542 H 0.76335 0.72454 0.79962 0.0
H543 H 0.76427 0.72532 0.74179 0.0
H544 H 0.83016 0.80122 0.8485 0.0
H545 H -0.09201 0.81814 0.87895 0.0
C546 C 0.26396 0.06025 1.05899 0.0
C547 C 0.20548 -0.0179 1.05885 0.0
C548 C 0.20073 -0.01799 1.14038 0.0
C549 C 0.26555 0.05729 1.14079 0.0
N550 N 0.3703 0.15872 1.09873 0.0
N551 N 0.13448 0.86413 1.10111 0.0
C552 C 0.30052 0.09382 1.09957 0.0
C553 C 0.1787 -0.05835 1.10005 0.0
N554 N 0.2828 0.10387 1.02094 0.0
N555 N 0.15728 -0.05041 1.17774 0.0
H556 H 0.12087 0.83189 1.0727 0.0
H557 H 0.11915 0.83169 1.13053 0.0
H558 H 0.16707 -0.02232 1.20748 0.0
H559 H 0.10582 0.89799 1.17759 0.0
H560 H 0.32004 0.16257 1.0204 0.0
H561 H 0.25529 0.08324 0.99101 0.0
H562 H 0.40088 0.18348 1.06942 0.0
H563 H 0.40142 0.18256 1.12725 0.0
loop_
_geom_bond_atom_site_label_1
_geom_bond_atom_site_label_2
_geom_bond_distance
_geom_bond_site_symmetry_2
_ccdc_geom_bond_type
Eu0 C9 2.828 . S
Eu0 O11 2.392 1_554 S
Eu0 O13 2.418 . S
Eu0 O18 2.373 . S
Eu0 O21 2.488 . S
Eu0 O22 2.471 . S
Eu0 O23 2.349 . S
Eu1 O10 2.373 . S
Eu1 O14 2.488 . S
Eu1 O15 2.471 . S
Eu1 O16 2.349 1_556 S
Eu1 O19 2.392 1_556 S
Eu1 O20 2.418 . S
Eu1 C30 2.828 . S
C2 O20 1.244 1_554 S
C2 O23 1.265 . S
C3 C4 1.379 . S
C3 C7 1.373 . S
C3 C9 1.505 . S
C4 C3 1.379 . S
C4 C6 1.369 . S
C4 H32 0.930 . S
C5 C7 1.383 . S
C5 C8 1.382 . S
C5 H33 0.930 1_545 S
C6 C4 1.369 . S
C6 C8 1.392 . S
C6 H34 0.930 . S
C7 C3 1.373 . S
C7 C5 1.383 . S
C7 H35 0.931 . S
C8 C5 1.382 . S
C8 C6 1.392 . S
C9 Eu0 2.828 . S
C9 C3 1.505 . S
C9 O21 1.249 . S
C9 O22 1.244 . S
O10 Eu1 2.373 . S
O10 C12 1.258 . S
O11 Eu0 2.392 1_556 S
O11 C12 1.242 . S
C12 O10 1.258 . S
C12 O11 1.242 . S
O13 Eu0 2.418 . S
O13 C17 1.244 . S
O14 Eu1 2.488 . S
O14 C30 1.249 . S
O15 Eu1 2.471 . S
O15 C30 1.244 . S
O16 Eu1 2.349 1_554 S
O16 C17 1.265 . S
C17 O13 1.244 . S
C17 O16 1.265 . S
O18 Eu0 2.373 . S
O18 C31 1.258 . S
O19 Eu1 2.392 1_554 S
O19 C31 1.242 . S
O20 Eu1 2.418 . S
O20 C2 1.244 1_556 S
O21 Eu0 2.488 . S
O21 C9 1.249 . S
O22 Eu0 2.471 . S
O22 C9 1.244 . S
O23 Eu0 2.349 . S
O23 C2 1.265 . S
C24 C25 1.379 . S
C24 C28 1.373 . S
C24 C30 1.505 . S
C25 C24 1.379 . S
C25 C27 1.369 . S
C25 H36 0.930 . S
C26 C28 1.383 . S
C26 C29 1.382 . S
C26 H37 0.930 . S
C27 C25 1.369 . S
C27 C29 1.392 . S
C27 H38 0.930 . S
C28 C24 1.373 . S
C28 C26 1.383 . S
C28 H39 0.931 . S
C29 C26 1.382 . S
C29 C27 1.392 . S
C30 Eu1 2.828 . S
C30 O14 1.249 . S
C30 O15 1.244 . S
C30 C24 1.505 . S
C31 O18 1.258 . S
C31 O19 1.242 . S
H32 C4 0.930 . S
H33 C5 0.930 1_565 S
H34 C6 0.930 . S
H35 C7 0.931 . S
H36 C25 0.930 . S
H37 C26 0.930 . S
H38 C27 0.930 . S
H39 C28 0.931 . S
Eu40 C49 2.828 . S
Eu40 O51 2.392 . S
Eu40 O53 2.418 . S
Eu40 O58 2.373 . S
Eu40 O61 2.488 . S
Eu40 O62 2.471 . S
Eu40 O63 2.349 . S
Eu41 O50 2.373 . S
Eu41 O54 2.488 . S
Eu41 O55 2.471 . S
Eu41 O56 2.349 . S
Eu41 O59 2.392 . S
Eu41 O60 2.418 . S
Eu41 C70 2.828 . S
C42 O60 1.244 . S
C42 O63 1.265 . S
C43 C44 1.379 . S
C43 C47 1.373 . S
C43 C49 1.505 . S
C44 C43 1.379 . S
C44 C46 1.369 . S
C44 H72 0.930 . S
C45 C47 1.383 . S
C45 C48 1.382 . S
C45 H73 0.930 . S
C46 C44 1.369 . S
C46 C48 1.392 . S
C46 H74 0.930 . S
C47 C43 1.373 . S
C47 C45 1.383 . S
C47 H75 0.931 . S
C48 C45 1.382 . S
C48 C46 1.392 . S
C49 Eu40 2.828 . S
C49 C43 1.505 . S
C49 O61 1.249 . S
C49 O62 1.244 . S
O50 Eu41 2.373 . S
O50 C52 1.258 . S
O51 Eu40 2.392 . S
O51 C52 1.242 . S
C52 O50 1.258 . S
C52 O51 1.242 . S
O53 Eu40 2.418 . S
O53 C57 1.244 . S
O54 Eu41 2.488 . S
O54 C70 1.249 . S
O55 Eu41 2.471 . S
O55 C70 1.244 . S
O56 Eu41 2.349 . S
O56 C57 1.265 . S
C57 O53 1.244 . S
C57 O56 1.265 . S
O58 Eu40 2.373 . S
O58 C71 1.258 . S
O59 Eu41 2.392 . S
O59 C71 1.242 . S
O60 Eu41 2.418 . S
O60 C42 1.244 . S
O61 Eu40 2.488 . S
O61 C49 1.249 . S
O62 Eu40 2.471 . S
O62 C49 1.244 . S
O63 Eu40 2.349 . S
O63 C42 1.265 . S
C64 C65 1.379 . S
C64 C68 1.373 . S
C64 C70 1.505 . S
C65 C64 1.379 . S
C65 C67 1.369 . S
C65 H76 0.930 . S
C66 C68 1.383 . S
C66 C69 1.382 . S
C66 H77 0.930 . S
C67 C65 1.369 . S
C67 C69 1.392 . S
C67 H78 0.930 . S
C68 C64 1.373 . S
C68 C66 1.383 . S
C68 H79 0.931 . S
C69 C66 1.382 . S
C69 C67 1.392 . S
C70 Eu41 2.828 . S
C70 O54 1.249 . S
C70 O55 1.244 . S
C70 C64 1.505 . S
C71 O58 1.258 . S
C71 O59 1.242 . S
H72 C44 0.930 . S
H73 C45 0.930 . S
H74 C46 0.930 . S
H75 C47 0.931 . S
H76 C65 0.930 . S
H77 C66 0.930 . S
H78 C67 0.930 . S
H79 C68 0.931 . S
Eu80 C89 2.828 . S
Eu80 O91 2.392 . S
Eu80 O93 2.418 . S
Eu80 O98 2.373 . S
Eu80 O101 2.488 . S
Eu80 O102 2.471 . S
Eu80 O103 2.349 . S
Eu81 O90 2.373 1_655 S
Eu81 O94 2.488 . S
Eu81 O95 2.471 . S
Eu81 O96 2.349 . S
Eu81 O99 2.392 . S
Eu81 O100 2.418 . S
Eu81 C110 2.828 . S
C82 O100 1.244 . S
C82 O103 1.265 1_655 S
C83 C84 1.379 . S
C83 C87 1.373 . S
C83 C89 1.505 . S
C84 C83 1.379 . S
C84 C86 1.369 . S
C84 H112 0.930 . S
C85 C87 1.383 . S
C85 C88 1.382 . S
C85 H113 0.930 . S
C86 C84 1.369 . S
C86 C88 1.392 . S
C86 H114 0.930 . S
C87 C83 1.373 . S
C87 C85 1.383 . S
C87 H115 0.931 . S
C88 C85 1.382 . S
C88 C86 1.392 . S
C89 Eu80 2.828 . S
C89 C83 1.505 . S
C89 O101 1.249 . S
C89 O102 1.244 . S
O90 Eu81 2.373 1_455 S
O90 C92 1.258 . S
O91 Eu80 2.392 . S
O91 C92 1.242 . S
C92 O90 1.258 . S
C92 O91 1.242 . S
O93 Eu80 2.418 . S
O93 C97 1.244 . S
O94 Eu81 2.488 . S
O94 C110 1.249 . S
O95 Eu81 2.471 . S
O95 C110 1.244 . S
O96 Eu81 2.349 . S
O96 C97 1.265 1_655 S
C97 O93 1.244 . S
C97 O96 1.265 1_455 S
O98 Eu80 2.373 . S
O98 C111 1.258 1_455 S
O99 Eu81 2.392 . S
O99 C111 1.242 . S
O100 Eu81 2.418 . S
O100 C82 1.244 . S
O101 Eu80 2.488 . S
O101 C89 1.249 . S
O102 Eu80 2.471 . S
O102 C89 1.244 . S
O103 Eu80 2.349 . S
O103 C82 1.265 1_455 S
C104 C105 1.379 . S
C104 C108 1.373 . S
C104 C110 1.505 . S
C105 C104 1.379 . S
C105 C107 1.369 . S
C105 H116 0.930 . S
C106 C108 1.383 . S
C106 C109 1.382 . S
C106 H117 0.930 . S
C107 C105 1.369 . S
C107 C109 1.392 . S
C107 H118 0.930 . S
C108 C104 1.373 . S
C108 C106 1.383 . S
C108 H119 0.931 . S
C109 C106 1.382 . S
C109 C107 1.392 . S
C110 Eu81 2.828 . S
C110 O94 1.249 . S
C110 O95 1.244 . S
C110 C104 1.505 . S
C111 O98 1.258 1_655 S
C111 O99 1.242 . S
H112 C84 0.930 . S
H113 C85 0.930 . S
H114 C86 0.930 . S
H115 C87 0.931 . S
H116 C105 0.930 . S
H117 C106 0.930 . S
H118 C107 0.930 . S
H119 C108 0.931 . S
Eu120 C129 2.828 . S
Eu120 O131 2.392 1_554 S
Eu120 O133 2.418 . S
Eu120 O138 2.373 . S
Eu120 O141 2.488 . S
Eu120 O142 2.471 . S
Eu120 O143 2.349 . S
Eu121 O130 2.373 1_565 S
Eu121 O134 2.488 . S
Eu121 O135 2.471 . S
Eu121 O136 2.349 1_566 S
Eu121 O139 2.392 1_556 S
Eu121 O140 2.418 . S
Eu121 C150 2.828 . S
C122 O140 1.244 1_554 S
C122 O143 1.265 1_565 S
C123 C124 1.379 . S
C123 C127 1.373 . S
C123 C129 1.505 . S
C124 C123 1.379 . S
C124 C126 1.369 . S
C124 H152 0.930 . S
C125 C127 1.383 . S
C125 C128 1.382 . S
C125 H153 0.930 1_655 S
C126 C124 1.369 . S
C126 C128 1.392 . S
C126 H154 0.930 . S
C127 C123 1.373 . S
C127 C125 1.383 . S
C127 H155 0.931 1_655 S
C128 C125 1.382 . S
C128 C126 1.392 . S
C129 Eu120 2.828 . S
C129 C123 1.505 . S
C129 O141 1.249 . S
C129 O142 1.244 . S
O130 Eu121 2.373 1_545 S
O130 C132 1.258 . S
O131 Eu120 2.392 1_556 S
O131 C132 1.242 . S
C132 O130 1.258 . S
C132 O131 1.242 . S
O133 Eu120 2.418 . S
O133 C137 1.244 . S
O134 Eu121 2.488 . S
O134 C150 1.249 . S
O135 Eu121 2.471 . S
O135 C150 1.244 . S
O136 Eu121 2.349 1_544 S
O136 C137 1.265 . S
C137 O133 1.244 . S
C137 O136 1.265 . S
O138 Eu120 2.373 . S
O138 C151 1.258 1_545 S
O139 Eu121 2.392 1_554 S
O139 C151 1.242 . S
O140 Eu121 2.418 . S
O140 C122 1.244 1_556 S
O141 Eu120 2.488 . S
O141 C129 1.249 . S
O142 Eu120 2.471 . S
O142 C129 1.244 . S
O143 Eu120 2.349 . S
O143 C122 1.265 1_545 S
C144 C145 1.379 . S
C144 C148 1.373 . S
C144 C150 1.505 . S
C145 C144 1.379 . S
C145 C147 1.369 . S
C145 H156 0.930 . S
C146 C148 1.383 . S
C146 C149 1.382 . S
C146 H157 0.930 . S
C147 C145 1.369 . S
C147 C149 1.392 . S
C147 H158 0.930 . S
C148 C144 1.373 . S
C148 C146 1.383 . S
C148 H159 0.931 . S
C149 C146 1.382 . S
C149 C147 1.392 . S
C150 Eu121 2.828 . S
C150 O134 1.249 . S
C150 O135 1.244 . S
C150 C144 1.505 . S
C151 O138 1.258 1_565 S
C151 O139 1.242 . S
H152 C124 0.930 . S
H153 C125 0.930 1_455 S
H154 C126 0.930 . S
H155 C127 0.931 1_455 S
H156 C145 0.930 . S
H157 C146 0.930 . S
H158 C147 0.930 . S
H159 C148 0.931 . S
Eu160 C169 2.828 . S
Eu160 O171 2.392 . S
Eu160 O173 2.418 1_665 S
Eu160 O178 2.373 . S
Eu160 O181 2.488 . S
Eu160 O182 2.471 . S
Eu160 O183 2.349 . S
Eu161 O170 2.373 1_455 S
Eu161 O174 2.488 . S
Eu161 O175 2.471 . S
Eu161 O176 2.349 . S
Eu161 O179 2.392 . S
Eu161 O180 2.418 1_455 S
Eu161 C190 2.828 . S
C162 O180 1.244 . S
C162 O183 1.265 . S
C163 C164 1.379 . S
C163 C167 1.373 . S
C163 C169 1.505 . S
C164 C163 1.379 . S
C164 C166 1.369 . S
C164 H192 0.930 . S
C165 C167 1.383 . S
C165 C168 1.382 . S
C165 H193 0.930 1_565 S
C166 C164 1.369 . S
C166 C168 1.392 . S
C166 H194 0.930 . S
C167 C163 1.373 . S
C167 C165 1.383 . S
C167 H195 0.931 1_565 S
C168 C165 1.382 . S
C168 C166 1.392 . S
C169 Eu160 2.828 . S
C169 C163 1.505 . S
C169 O181 1.249 . S
C169 O182 1.244 . S
O170 Eu161 2.373 1_655 S
O170 C172 1.258 . S
O171 Eu160 2.392 . S
O171 C172 1.242 . S
C172 O170 1.258 . S
C172 O171 1.242 . S
O173 Eu160 2.418 1_445 S
O173 C177 1.244 1_545 S
O174 Eu161 2.488 . S
O174 C190 1.249 . S
O175 Eu161 2.471 . S
O175 C190 1.244 . S
O176 Eu161 2.349 . S
O176 C177 1.265 . S
C177 O173 1.244 1_565 S
C177 O176 1.265 . S
O178 Eu160 2.373 . S
O178 C191 1.258 1_655 S
O179 Eu161 2.392 . S
O179 C191 1.242 . S
O180 Eu161 2.418 1_655 S
O180 C162 1.244 . S
O181 Eu160 2.488 . S
O181 C169 1.249 . S
O182 Eu160 2.471 . S
O182 C169 1.244 . S
O183 Eu160 2.349 . S
O183 C162 1.265 . S
C184 C185 1.379 . S
C184 C188 1.373 . S
C184 C190 1.505 . S
C185 C184 1.379 . S
C185 C187 1.369 . S
C185 H196 0.930 . S
C186 C188 1.383 . S
C186 C189 1.382 . S
C186 H197 0.930 . S
C187 C185 1.369 . S
C187 C189 1.392 . S
C187 H198 0.930 . S
C188 C184 1.373 . S
C188 C186 1.383 . S
C188 H199 0.931 . S
C189 C186 1.382 . S
C189 C187 1.392 . S
C190 Eu161 2.828 . S
C190 O174 1.249 . S
C190 O175 1.244 . S
C190 C184 1.505 . S
C191 O178 1.258 1_455 S
C191 O179 1.242 . S
H192 C164 0.930 . S
H193 C165 0.930 1_545 S
H194 C166 0.930 . S
H195 C167 0.931 1_545 S
H196 C185 0.930 . S
H197 C186 0.930 . S
H198 C187 0.930 . S
H199 C188 0.931 . S
Eu200 C209 2.828 . S
Eu200 O211 2.392 . S
Eu200 O213 2.418 1_565 S
Eu200 O218 2.373 1_565 S
Eu200 O221 2.488 . S
Eu200 O222 2.471 . S
Eu200 O223 2.349 . S
Eu201 O210 2.373 1_545 S
Eu201 O214 2.488 . S
Eu201 O215 2.471 . S
Eu201 O216 2.349 . S
Eu201 O219 2.392 . S
Eu201 O220 2.418 1_545 S
Eu201 C230 2.828 . S
C202 O220 1.244 . S
C202 O223 1.265 . S
C203 C204 1.379 . S
C203 C207 1.373 . S
C203 C209 1.505 . S
C204 C203 1.379 . S
C204 C206 1.369 . S
C204 H232 0.930 . S
C205 C207 1.383 . S
C205 C208 1.382 . S
C205 H233 0.930 1_455 S
C206 C204 1.369 . S
C206 C208 1.392 . S
C206 H234 0.930 . S
C207 C203 1.373 . S
C207 C205 1.383 . S
C207 H235 0.931 . S
C208 C205 1.382 . S
C208 C206 1.392 . S
C209 Eu200 2.828 . S
C209 C203 1.505 . S
C209 O221 1.249 . S
C209 O222 1.244 . S
O210 Eu201 2.373 1_565 S
O210 C212 1.258 . S
O211 Eu200 2.392 . S
O211 C212 1.242 . S
C212 O210 1.258 . S
C212 O211 1.242 . S
O213 Eu200 2.418 1_545 S
O213 C217 1.244 . S
O214 Eu201 2.488 . S
O214 C230 1.249 . S
O215 Eu201 2.471 . S
O215 C230 1.244 . S
O216 Eu201 2.349 . S
O216 C217 1.265 . S
C217 O213 1.244 . S
C217 O216 1.265 . S
O218 Eu200 2.373 1_545 S
O218 C231 1.258 . S
O219 Eu201 2.392 . S
O219 C231 1.242 . S
O220 Eu201 2.418 1_565 S
O220 C202 1.244 . S
O221 Eu200 2.488 . S
O221 C209 1.249 . S
O222 Eu200 2.471 . S
O222 C209 1.244 . S
O223 Eu200 2.349 . S
O223 C202 1.265 . S
C224 C225 1.379 . S
C224 C228 1.373 . S
C224 C230 1.505 . S
C225 C224 1.379 . S
C225 C227 1.369 . S
C225 H236 0.930 . S
C226 C228 1.383 . S
C226 C229 1.382 . S
C226 H237 0.930 . S
C227 C225 1.369 . S
C227 C229 1.392 . S
C227 H238 0.930 . S
C228 C224 1.373 . S
C228 C226 1.383 . S
C228 H239 0.931 . S
C229 C226 1.382 . S
C229 C227 1.392 . S
C230 Eu201 2.828 . S
C230 O214 1.249 . S
C230 O215 1.244 . S
C230 C224 1.505 . S
C231 O218 1.258 . S
C231 O219 1.242 . S
H232 C204 0.930 . S
H233 C205 0.930 1_655 S
H234 C206 0.930 . S
H235 C207 0.931 . S
H236 C225 0.930 . S
H237 C226 0.930 . S
H238 C227 0.930 . S
H239 C228 0.931 . S
C240 C241 1.363 1_556 S
C240 C246 1.379 . S
C240 N248 1.356 . S
C241 C240 1.363 1_554 S
C241 C247 1.363 . S
C242 C243 1.363 . S
C242 C247 1.379 . S
C242 N249 1.356 . S
C243 C242 1.363 . S
C243 C246 1.363 1_554 S
N244 C246 1.356 . S
N244 H256 0.984 . S
N244 H257 0.985 . S
N245 C247 1.356 . S
N245 H250 0.984 1_455 S
N245 H251 0.985 . S
C246 C240 1.379 . S
C246 C243 1.363 1_556 S
C246 N244 1.356 . S
C247 C241 1.363 . S
C247 C242 1.379 . S
C247 N245 1.356 . S
N248 C240 1.356 . S
N248 H254 0.984 . S
N248 H255 0.984 1_545 S
N249 C242 1.356 . S
N249 H252 0.984 . S
N249 H253 0.985 . S
H250 N245 0.984 1_655 S
H251 N245 0.985 . S
H252 N249 0.984 . S
H253 N249 0.985 . S
H254 N248 0.984 . S
H255 N248 0.984 1_565 S
H256 N244 0.984 . S
H257 N244 0.985 . S
C258 C259 1.363 . S
C258 C264 1.379 . S
C258 N266 1.356 . S
C259 C258 1.363 . S
C259 C265 1.363 . S
C260 C261 1.363 . S
C260 C265 1.379 . S
C260 N267 1.356 . S
C261 C260 1.363 . S
C261 C264 1.363 . S
N262 C264 1.356 . S
N262 H274 0.984 . S
N262 H275 0.985 . S
N263 C265 1.356 . S
N263 H268 0.984 . S
N263 H269 0.985 . S
C264 C258 1.379 . S
C264 C261 1.363 . S
C264 N262 1.356 . S
C265 C259 1.363 . S
C265 C260 1.379 . S
C265 N263 1.356 . S
N266 C258 1.356 . S
N266 H272 0.984 . S
N266 H273 0.984 1_545 S
N267 C260 1.356 . S
N267 H270 0.984 . S
N267 H271 0.985 . S
H268 N263 0.984 . S
H269 N263 0.985 . S
H270 N267 0.984 . S
H271 N267 0.985 . S
H272 N266 0.984 . S
H273 N266 0.984 1_565 S
H274 N262 0.984 . S
H275 N262 0.985 . S
C276 C277 1.363 . S
C276 C282 1.379 . S
C276 N284 1.356 . S
C277 C276 1.363 . S
C277 C283 1.363 . S
C278 C279 1.363 . S
C278 C283 1.379 . S
C278 N285 1.356 . S
C279 C278 1.363 . S
C279 C282 1.363 . S
N280 C282 1.356 . S
N280 H292 0.984 . S
N280 H293 0.985 1_455 S
N281 C283 1.356 . S
N281 H286 0.984 . S
N281 H287 0.985 . S
C282 C276 1.379 . S
C282 C279 1.363 . S
C282 N280 1.356 . S
C283 C277 1.363 . S
C283 C278 1.379 . S
C283 N281 1.356 . S
N284 C276 1.356 . S
N284 H290 0.984 . S
N284 H291 0.984 . S
N285 C278 1.356 . S
N285 H288 0.984 . S
N285 H289 0.985 . S
H286 N281 0.984 . S
H287 N281 0.985 . S
H288 N285 0.984 . S
H289 N285 0.985 . S
H290 N284 0.984 . S
H291 N284 0.984 . S
H292 N280 0.984 . S
H293 N280 0.985 1_655 S
C294 C295 1.363 . S
C294 C300 1.379 . S
C294 N302 1.356 . S
C295 C294 1.363 . S
C295 C301 1.363 . S
C296 C297 1.363 . S
C296 C301 1.379 . S
C296 N303 1.356 . S
C297 C296 1.363 . S
C297 C300 1.363 . S
N298 C300 1.356 . S
N298 H310 0.984 . S
N298 H311 0.985 . S
N299 C301 1.356 . S
N299 H304 0.984 . S
N299 H305 0.985 . S
C300 C294 1.379 . S
C300 C297 1.363 . S
C300 N298 1.356 . S
C301 C295 1.363 . S
C301 C296 1.379 . S
C301 N299 1.356 . S
N302 C294 1.356 . S
N302 H308 0.984 . S
N302 H309 0.984 . S
N303 C296 1.356 . S
N303 H306 0.984 . S
N303 H307 0.985 . S
H304 N299 0.984 . S
H305 N299 0.985 . S
H306 N303 0.984 . S
H307 N303 0.985 . S
H308 N302 0.984 . S
H309 N302 0.984 . S
H310 N298 0.984 . S
H311 N298 0.985 . S
C312 C313 1.363 . S
C312 C318 1.385 . S
C312 N320 1.356 . S
C313 C312 1.363 . S
C313 C319 1.363 1_455 S
C314 C315 1.363 . S
C314 C319 1.379 . S
C314 N321 1.356 . S
C315 C314 1.363 . S
C315 C318 1.352 1_655 S
N316 C318 1.359 1_655 S
N316 H328 0.984 1_655 S
N316 H329 0.985 . S
N317 C319 1.356 1_455 S
N317 H322 0.984 . S
N317 H323 0.985 1_455 S
C318 C312 1.385 . S
C318 C315 1.352 1_455 S
C318 N316 1.359 1_455 S
C319 C313 1.363 1_655 S
C319 C314 1.379 . S
C319 N317 1.356 1_655 S
N320 C312 1.356 . S
N320 H326 0.984 . S
N320 H327 0.984 . S
N321 C314 1.356 . S
N321 H324 0.984 . S
N321 H325 0.985 . S
H322 N317 0.984 . S
H323 N317 0.985 1_655 S
H324 N321 0.984 . S
H325 N321 0.985 . S
H326 N320 0.984 . S
H327 N320 0.984 . S
H328 N316 0.984 1_455 S
H329 N316 0.985 . S
C330 C331 1.363 . S
C330 C336 1.379 . S
C330 N338 1.356 . S
C331 C330 1.363 . S
C331 C337 1.363 . S
C332 C333 1.363 . S
C332 C337 1.379 1_565 S
C332 N339 1.356 . S
C333 C332 1.363 . S
C333 C336 1.363 1_565 S
N334 C336 1.356 1_565 S
N334 H346 0.984 1_565 S
N334 H347 0.985 . S
N335 C337 1.356 . S
N335 H340 0.984 . S
N335 H341 0.985 . S
C336 C330 1.379 . S
C336 C333 1.363 1_545 S
C336 N334 1.356 1_545 S
C337 C331 1.363 . S
C337 C332 1.379 1_545 S
C337 N335 1.356 . S
N338 C330 1.356 . S
N338 H344 0.984 . S
N338 H345 0.984 . S
N339 C332 1.356 . S
N339 H342 0.984 . S
N339 H343 0.985 . S
H340 N335 0.984 . S
H341 N335 0.985 . S
H342 N339 0.984 . S
H343 N339 0.985 . S
H344 N338 0.984 . S
H345 N338 0.984 . S
H346 N334 0.984 1_545 S
H347 N334 0.985 . S
C348 C349 1.363 . S
C348 C354 1.379 . S
C348 N356 1.356 . S
C349 C348 1.363 . S
C349 C355 1.363 . S
C350 C351 1.363 . S
C350 C355 1.379 . S
C350 N357 1.356 1_655 S
C351 C350 1.363 . S
C351 C354 1.363 . S
N352 C354 1.356 . S
N352 H364 0.984 . S
N352 H365 0.985 . S
N353 C355 1.356 . S
N353 H358 0.984 . S
N353 H359 0.985 . S
C354 C348 1.379 . S
C354 C351 1.363 . S
C354 N352 1.356 . S
C355 C349 1.363 . S
C355 C350 1.379 . S
C355 N353 1.356 . S
N356 C348 1.356 . S
N356 H362 0.984 . S
N356 H363 0.984 . S
N357 C350 1.356 1_455 S
N357 H360 0.984 . S
N357 H361 0.985 . S
H358 N353 0.984 . S
H359 N353 0.985 . S
H360 N357 0.984 . S
H361 N357 0.985 . S
H362 N356 0.984 . S
H363 N356 0.984 . S
H364 N352 0.984 . S
H365 N352 0.985 . S
C366 C367 1.363 . S
C366 C372 1.379 . S
C366 N374 1.356 . S
C367 C366 1.363 . S
C367 C373 1.363 . S
C368 C369 1.363 . S
C368 C373 1.379 . S
C368 N375 1.356 1_565 S
C369 C368 1.363 . S
C369 C372 1.363 . S
N370 C372 1.356 . S
N370 H382 0.984 . S
N370 H383 0.985 1_565 S
N371 C373 1.356 . S
N371 H376 0.984 . S
N371 H377 0.985 . S
C372 C366 1.379 . S
C372 C369 1.363 . S
C372 N370 1.356 . S
C373 C367 1.363 . S
C373 C368 1.379 . S
C373 N371 1.356 . S
N374 C366 1.356 . S
N374 H380 0.984 . S
N374 H381 0.984 . S
N375 C368 1.356 1_545 S
N375 H378 0.984 . S
N375 H379 0.987 1_545 S
H376 N371 0.984 . S
H377 N371 0.985 . S
H378 N375 0.984 . S
H379 N375 0.987 1_565 S
H380 N374 0.984 . S
H381 N374 0.984 . S
H382 N370 0.984 . S
H383 N370 0.985 1_545 S
C384 C385 1.363 . S
C384 C390 1.379 . S
C384 N392 1.356 . S
C385 C384 1.363 . S
C385 C391 1.363 . S
C386 C387 1.363 . S
C386 C391 1.379 . S
C386 N393 1.356 . S
C387 C386 1.363 . S
C387 C390 1.363 . S
N388 C390 1.356 . S
N388 H400 0.984 . S
N388 H401 0.985 . S
N389 C391 1.356 . S
N389 H394 0.984 . S
N389 H395 0.985 . S
C390 C384 1.379 . S
C390 C387 1.363 . S
C390 N388 1.356 . S
C391 C385 1.363 . S
C391 C386 1.379 . S
C391 N389 1.356 . S
N392 C384 1.356 . S
N392 H398 0.984 . S
N392 H399 0.984 . S
N393 C386 1.356 . S
N393 H396 0.984 . S
N393 H397 0.985 . S
H394 N389 0.984 . S
H395 N389 0.985 . S
H396 N393 0.984 . S
H397 N393 0.985 . S
H398 N392 0.984 . S
H399 N392 0.984 . S
H400 N388 0.984 . S
H401 N388 0.985 . S
C402 C403 1.363 1_556 S
C402 C408 1.379 . S
C402 N410 1.356 . S
C403 C402 1.363 1_554 S
C403 C409 1.363 . S
C404 C405 1.363 . S
C404 C409 1.379 . S
C404 N411 1.356 . S
C405 C404 1.363 . S
C405 C408 1.363 1_554 S
N406 C408 1.356 . S
N406 H418 0.984 . S
N406 H419 0.985 1_545 S
N407 C409 1.356 . S
N407 H412 0.984 . S
N407 H413 0.985 . S
C408 C402 1.379 . S
C408 C405 1.363 1_556 S
C408 N406 1.356 . S
C409 C403 1.363 . S
C409 C404 1.379 . S
C409 N407 1.356 . S
N410 C402 1.356 . S
N410 H416 0.984 . S
N410 H417 0.984 . S
N411 C404 1.356 . S
N411 H414 0.984 . S
N411 H415 0.985 . S
H412 N407 0.984 . S
H413 N407 0.985 . S
H414 N411 0.984 . S
H415 N411 0.985 . S
H416 N410 0.984 . S
H417 N410 0.984 . S
H418 N406 0.984 . S
H419 N406 0.985 1_565 S
C420 C421 1.363 . S
C420 C426 1.379 . S
C420 N428 1.356 . S
C421 C420 1.363 . S
C421 C427 1.363 . S
C422 C423 1.363 . S
C422 C427 1.379 . S
C422 N429 1.356 . S
C423 C422 1.363 . S
C423 C426 1.363 . S
N424 C426 1.356 . S
N424 H436 0.984 . S
N424 H437 0.985 . S
N425 C427 1.356 . S
N425 H430 0.984 . S
N425 H431 0.985 . S
C426 C420 1.379 . S
C426 C423 1.363 . S
C426 N424 1.356 . S
C427 C421 1.363 . S
C427 C422 1.379 . S
C427 N425 1.356 . S
N428 C420 1.356 . S
N428 H434 0.984 . S
N428 H435 0.984 . S
N429 C422 1.356 . S
N429 H432 0.984 . S
N429 H433 0.985 . S
H430 N425 0.984 . S
H431 N425 0.985 . S
H432 N429 0.984 . S
H433 N429 0.985 . S
H434 N428 0.984 . S
H435 N428 0.984 . S
H436 N424 0.984 . S
H437 N424 0.985 . S
C438 C439 1.363 . S
C438 C444 1.379 . S
C438 N446 1.356 . S
C439 C438 1.363 . S
C439 C445 1.363 . S
C440 C441 1.363 . S
C440 C445 1.379 . S
C440 N447 1.356 . S
C441 C440 1.363 . S
C441 C444 1.363 . S
N442 C444 1.356 . S
N442 H454 0.984 . S
N442 H455 0.985 . S
N443 C445 1.356 . S
N443 H448 0.984 1_455 S
N443 H449 0.985 . S
C444 C438 1.379 . S
C444 C441 1.363 . S
C444 N442 1.356 . S
C445 C439 1.363 . S
C445 C440 1.379 . S
C445 N443 1.356 . S
N446 C438 1.356 . S
N446 H452 0.984 . S
N446 H453 0.984 . S
N447 C440 1.356 . S
N447 H450 0.984 . S
N447 H451 0.985 . S
H448 N443 0.984 1_655 S
H449 N443 0.985 . S
H450 N447 0.984 . S
H451 N447 0.985 . S
H452 N446 0.984 . S
H453 N446 0.984 . S
H454 N442 0.984 . S
H455 N442 0.985 . S
C456 C457 1.363 . S
C456 C462 1.379 . S
C456 N464 1.356 . S
C457 C456 1.363 . S
C457 C463 1.363 . S
C458 C459 1.363 . S
C458 C463 1.379 . S
C458 N465 1.356 . S
C459 C458 1.363 . S
C459 C462 1.363 . S
N460 C462 1.356 . S
N460 H472 0.984 . S
N460 H473 0.985 . S
N461 C463 1.356 . S
N461 H466 0.984 . S
N461 H467 0.985 . S
C462 C456 1.379 . S
C462 C459 1.363 . S
C462 N460 1.356 . S
C463 C457 1.363 . S
C463 C458 1.379 . S
C463 N461 1.356 . S
N464 C456 1.356 . S
N464 H470 0.984 . S
N464 H471 0.984 . S
N465 C458 1.356 . S
N465 H468 0.984 . S
N465 H469 0.985 . S
H466 N461 0.984 . S
H467 N461 0.985 . S
H468 N465 0.984 . S
H469 N465 0.985 . S
H470 N464 0.984 . S
H471 N464 0.984 . S
H472 N460 0.984 . S
H473 N460 0.985 . S
C474 C475 1.363 . S
C474 C480 1.379 . S
C474 N482 1.356 . S
C475 C474 1.363 . S
C475 C481 1.363 . S
C476 C477 1.363 . S
C476 C481 1.379 . S
C476 N483 1.356 . S
C477 C476 1.363 . S
C477 C480 1.363 . S
N478 C480 1.356 . S
N478 H490 0.984 1_455 S
N478 H491 0.985 . S
N479 C481 1.356 . S
N479 H484 0.984 . S
N479 H485 0.985 . S
C480 C474 1.379 . S
C480 C477 1.363 . S
C480 N478 1.356 . S
C481 C475 1.363 . S
C481 C476 1.379 . S
C481 N479 1.356 . S
N482 C474 1.356 . S
N482 H488 0.984 . S
N482 H489 0.984 . S
N483 C476 1.356 . S
N483 H486 0.984 . S
N483 H487 0.985 . S
H484 N479 0.984 . S
H485 N479 0.985 . S
H486 N483 0.984 . S
H487 N483 0.985 . S
H488 N482 0.984 . S
H489 N482 0.984 . S
H490 N478 0.984 1_655 S
H491 N478 0.985 . S
C492 C493 1.363 . S
C492 C498 1.379 . S
C492 N500 1.356 1_655 S
C493 C492 1.363 . S
C493 C499 1.363 . S
C494 C495 1.363 . S
C494 C499 1.379 . S
C494 N501 1.356 . S
C495 C494 1.363 . S
C495 C498 1.363 . S
N496 C498 1.356 . S
N496 H508 0.984 1_655 S
N496 H509 0.985 . S
N497 C499 1.356 . S
N497 H502 0.984 . S
N497 H503 0.985 . S
C498 C492 1.379 . S
C498 C495 1.363 . S
C498 N496 1.356 . S
C499 C493 1.363 . S
C499 C494 1.379 . S
C499 N497 1.356 . S
N500 C492 1.356 1_455 S
N500 H506 0.984 . S
N500 H507 0.984 1_455 S
N501 C494 1.356 . S
N501 H504 0.984 . S
N501 H505 0.985 . S
H502 N497 0.984 . S
H503 N497 0.985 . S
H504 N501 0.984 . S
H505 N501 0.985 . S
H506 N500 0.984 . S
H507 N500 0.984 1_655 S
H508 N496 0.984 1_455 S
H509 N496 0.985 . S
C510 C511 1.363 . S
C510 C516 1.379 . S
C510 N518 1.356 1_565 S
C511 C510 1.363 . S
C511 C517 1.363 . S
C512 C513 1.363 . S
C512 C517 1.379 . S
C512 N519 1.356 . S
C513 C512 1.363 . S
C513 C516 1.363 . S
N514 C516 1.356 . S
N514 H526 0.984 1_665 S
N514 H527 0.985 . S
N515 C517 1.356 . S
N515 H520 0.984 . S
N515 H521 0.985 . S
C516 C510 1.379 . S
C516 C513 1.363 . S
C516 N514 1.356 . S
C517 C511 1.363 . S
C517 C512 1.379 . S
C517 N515 1.356 . S
N518 C510 1.356 1_545 S
N518 H524 0.984 . S
N518 H525 0.984 . S
N519 C512 1.356 . S
N519 H522 0.984 . S
N519 H523 0.985 . S
H520 N515 0.984 . S
H521 N515 0.985 . S
H522 N519 0.984 . S
H523 N519 0.985 . S
H524 N518 0.984 . S
H525 N518 0.984 . S
H526 N514 0.984 1_445 S
H527 N514 0.985 . S
C528 C529 1.363 . S
C528 C534 1.379 . S
C528 N536 1.356 1_455 S
C529 C528 1.363 . S
C529 C535 1.363 . S
C530 C531 1.363 . S
C530 C535 1.379 . S
C530 N537 1.356 . S
C531 C530 1.363 . S
C531 C534 1.363 . S
N532 C534 1.356 . S
N532 H544 0.984 1_455 S
N532 H545 0.985 . S
N533 C535 1.356 . S
N533 H538 0.984 . S
N533 H539 0.985 . S
C534 C528 1.379 . S
C534 C531 1.363 . S
C534 N532 1.356 . S
C535 C529 1.363 . S
C535 C530 1.379 . S
C535 N533 1.356 . S
N536 C528 1.356 1_655 S
N536 H542 0.984 . S
N536 H543 0.984 . S
N537 C530 1.356 . S
N537 H540 0.984 . S
N537 H541 0.985 1_565 S
H538 N533 0.984 . S
H539 N533 0.985 . S
H540 N537 0.984 . S
H541 N537 0.985 1_545 S
H542 N536 0.984 . S
H543 N536 0.984 . S
H544 N532 0.984 1_655 S
H545 N532 0.985 . S
C546 C547 1.363 . S
C546 C552 1.379 . S
C546 N554 1.356 . S
C547 C546 1.363 . S
C547 C553 1.363 . S
C548 C549 1.363 . S
C548 C553 1.379 . S
C548 N555 1.356 . S
C549 C548 1.363 . S
C549 C552 1.363 . S
N550 C552 1.356 . S
N550 H562 0.984 . S
N550 H563 0.985 . S
N551 C553 1.356 1_565 S
N551 H556 0.984 . S
N551 H557 0.985 . S
C552 C546 1.379 . S
C552 C549 1.363 . S
C552 N550 1.356 . S
C553 C547 1.363 . S
C553 C548 1.379 . S
C553 N551 1.356 1_545 S
N554 C546 1.356 . S
N554 H560 0.984 . S
N554 H561 0.984 . S
N555 C548 1.356 . S
N555 H558 0.984 . S
N555 H559 0.985 1_545 S
H556 N551 0.984 . S
H557 N551 0.985 . S
H558 N555 0.984 . S
H559 N555 0.985 1_565 S
H560 N554 0.984 . S
H561 N554 0.984 . S
H562 N550 0.984 . S
H563 N550 0.985 . S
C241 C137 1.397 1_455 S
C243 C17 1.397 . S
C259 C177 1.397 1_545 S
C261 C57 1.397 . S
C277 C217 1.397 . S
C279 C97 1.397 . S
C295 C29 1.198 . S
C297 C88 1.197 . S
C313 C69 1.198 . S
C315 C128 1.198 . S
C331 C109 1.198 . S
C333 C168 1.197 . S
C349 C149 1.198 . S
C351 C208 1.197 1_655 S
C367 C189 1.198 . S
C369 C8 1.197 1_565 S
C385 C229 1.198 . S
C387 C48 1.197 . S
C403 C2 1.986 . S
C405 C122 1.986 1_545 S
C421 C42 1.987 . S
C423 C162 1.987 . S
C439 C82 1.986 1_455 S
C441 C202 1.986 . S
C457 C31 4.206 . S
C459 C52 4.236 . S
C475 C71 4.206 . S
C477 C92 4.237 . S
C493 C111 4.206 . S
C495 C132 4.236 . S
C511 C151 4.206 . S
C513 C172 4.236 . S
C529 C191 4.206 . S
C531 C212 4.236 . S
C547 C231 4.206 . S
C549 C12 4.237 . S
