# Generated by pormake.
# Topology pts-e, (5)-cn, num edge types: 1
# Building blocks:
#     Node 0, Type 0, BuildingBlock: XOMCOT_clean_sbu_1, # of connection points: 5
#     Node 1, Type 0, BuildingBlock: XOMCOT_clean_sbu_1, # of connection points: 5
#     Node 2, Type 0, BuildingBlock: XOMCOT_clean_sbu_1, # of connection points: 5
#     Node 3, Type 0, BuildingBlock: XOMCOT_clean_sbu_1, # of connection points: 5
#     Node 4, Type 0, BuildingBlock: XOMCOT_clean_sbu_1, # of connection points: 5
#     Node 5, Type 0, BuildingBlock: XOMCOT_clean_sbu_1, # of connection points: 5
#     Node 6, Type 0, BuildingBlock: XOMCOT_clean_sbu_1, # of connection points: 5
#     Node 7, Type 0, BuildingBlock: XOMCOT_clean_sbu_1, # of connection points: 5
#     Edge 8, Type (0, 0), BuildingBlock: KIFKEQ_clean_linker_1, # of connection points: 2
#     Edge 9, Type (0, 0), BuildingBlock: KIFKEQ_clean_linker_1, # of connection points: 2
#     Edge 10, Type (0, 0), BuildingBlock: KIFKEQ_clean_linker_1, # of connection points: 2
#     Edge 11, Type (0, 0), BuildingBlock: KIFKEQ_clean_linker_1, # of connection points: 2
#     Edge 12, Type (0, 0), BuildingBlock: KIFKEQ_clean_linker_1, # of connection points: 2
#     Edge 13, Type (0, 0), BuildingBlock: KIFKEQ_clean_linker_1, # of connection points: 2
#     Edge 14, Type (0, 0), BuildingBlock: KIFKEQ_clean_linker_1, # of connection points: 2
#     Edge 15, Type (0, 0), BuildingBlock: KIFKEQ_clean_linker_1, # of connection points: 2
#     Edge 16, Type (0, 0), BuildingBlock: KIFKEQ_clean_linker_1, # of connection points: 2
#     Edge 17, Type (0, 0), BuildingBlock: KIFKEQ_clean_linker_1, # of connection points: 2
#     Edge 18, Type (0, 0), BuildingBlock: KIFKEQ_clean_linker_1, # of connection points: 2
#     Edge 19, Type (0, 0), BuildingBlock: KIFKEQ_clean_linker_1, # of connection points: 2
#     Edge 20, Type (0, 0), BuildingBlock: KIFKEQ_clean_linker_1, # of connection points: 2
#     Edge 21, Type (0, 0), BuildingBlock: KIFKEQ_clean_linker_1, # of connection points: 2
#     Edge 22, Type (0, 0), BuildingBlock: KIFKEQ_clean_linker_1, # of connection points: 2
#     Edge 23, Type (0, 0), BuildingBlock: KIFKEQ_clean_linker_1, # of connection points: 2
#     Edge 24, Type (0, 0), BuildingBlock: KIFKEQ_clean_linker_1, # of connection points: 2
#     Edge 25, Type (0, 0), BuildingBlock: KIFKEQ_clean_linker_1, # of connection points: 2
#     Edge 26, Type (0, 0), BuildingBlock: KIFKEQ_clean_linker_1, # of connection points: 2
#     Edge 27, Type (0, 0), BuildingBlock: KIFKEQ_clean_linker_1, # of connection points: 2
# Relax obj value: 0.508
# Max RMSD: 0.254
# Mean RMSD: 0.254
data_MOF--net-pts-e--node1-XOMCOT_clean_sbu_1--edge1-KIFKEQ_clean_linker_1
_symmetry_space_group_name_H-M    P1
_symmetry_Int_Tables_number       1
_symmetry_cell_setting            triclinic
loop_
_symmetry_equiv_pos_as_xyz
'x, y, z'
_cell_length_a     34.616716
_cell_length_b     34.59847
_cell_length_c     49.148603
_cell_angle_alpha  90.041794
_cell_angle_beta   90.06829
_cell_angle_gamma 90.067753
loop_
_atom_site_label
_atom_site_type_symbol
_atom_site_fract_x
_atom_site_fract_y
_atom_site_fract_z
_atom_type_partial_charge
C0 C 0.20032 0.0502 0.13764 0.0
C1 C 0.16131 0.05554 0.13381 0.0
N2 N 0.1425 0.02567 0.14541 0.0
N3 N 0.20594 0.01733 0.15175 0.0
C4 C 0.17028 0.00295 0.1561 0.0
H5 H 0.22321 0.06878 0.13035 0.0
Co6 Co 0.25348 -0.00293 0.16087 0.0
C7 C 0.23955 0.94609 0.20844 0.0
O8 O 0.27111 0.96006 0.21965 0.0
N9 N 0.30227 0.97616 0.1693 0.0
C10 C 0.35144 0.93464 0.16968 0.0
C11 C 0.3122 0.93863 0.16615 0.0
C12 C 0.33592 0.99418 0.17512 0.0
N13 N 0.36607 0.96971 0.17541 0.0
O14 O 0.24954 0.96404 0.1299 0.0
H15 H 0.29239 0.91589 0.16028 0.0
H16 H 0.33937 0.02497 0.17718 0.0
O17 O 0.22897 0.95828 0.18495 0.0
C18 C 0.26945 0.97965 0.11104 0.0
O19 O 0.29129 0.00955 0.11703 0.0
N20 N 0.25719 0.03418 0.18826 0.0
C21 C 0.24822 0.10635 0.21245 0.0
C22 C 0.22879 0.0739 0.22281 0.0
C23 C 0.233 0.0381 0.21002 0.0
C24 C 0.27718 0.06529 0.17868 0.0
C25 C 0.27388 0.10139 0.19083 0.0
H26 H 0.21357 0.01522 0.21583 0.0
H27 H 0.29287 0.06299 0.15975 0.0
H28 H 0.16471 0.97637 0.16694 0.0
H29 H 0.14798 0.0791 0.1228 0.0
H30 H 0.36813 0.90845 0.16709 0.0
H31 H 0.20745 0.0769 0.23877 0.0
H32 H 0.28877 0.12584 0.1819 0.0
C33 C 0.95246 0.20479 0.66712 0.0
C34 C 0.94521 0.16566 0.66739 0.0
N35 N 0.97928 0.14698 0.66553 0.0
N36 N 0.9909 0.21053 0.66534 0.0
C37 C 0.00637 0.17493 0.66414 0.0
H38 H 0.93115 0.2276 0.66809 0.0
Co39 Co 0.01717 0.25704 0.66302 0.0
C40 C 0.0802 0.24707 0.7034 0.0
O41 O 0.07214 0.28185 0.71255 0.0
N42 N 0.04377 0.30423 0.65896 0.0
C43 C 0.08871 0.34939 0.65184 0.0
C44 C 0.08223 0.3113 0.65853 0.0
C45 C 0.02802 0.33766 0.65021 0.0
N46 N 0.05435 0.36588 0.64663 0.0
O47 O 0.03621 0.24174 0.62806 0.0
H48 H 0.10452 0.28999 0.66184 0.0
H49 H -0.00206 0.34107 0.64525 0.0
O50 O 0.06158 0.23365 0.68285 0.0
C51 C 0.00913 0.25138 0.61173 0.0
O52 O 0.97875 0.26896 0.62194 0.0
N53 N 0.99341 0.27247 0.69611 0.0
C54 C 0.93001 0.27329 0.73099 0.0
C55 C 0.96109 0.24828 0.73589 0.0
C56 C 0.99249 0.24815 0.71809 0.0
C57 C 0.96549 0.30003 0.69336 0.0
C58 C 0.93417 0.30168 0.71103 0.0
H59 H 0.01232 0.22423 0.71966 0.0
H60 H 0.96328 0.31682 0.67522 0.0
H61 H 0.03693 0.16972 0.66143 0.0
H62 H 0.9171 0.15213 0.66892 0.0
H63 H 0.11653 0.3635 0.65027 0.0
H64 H 0.95889 0.22535 0.7508 0.0
H65 H 0.91082 0.32155 0.70661 0.0
C66 C 0.79901 0.95392 0.14973 0.0
C67 C 0.83797 0.94617 0.14869 0.0
N68 N 0.85721 0.97984 0.15139 0.0
N69 N 0.7939 0.99224 0.1532 0.0
C70 C 0.82981 0.00725 0.15393 0.0
H71 H 0.77589 0.93306 0.14776 0.0
Co72 Co 0.74736 0.01845 0.15434 0.0
C73 C 0.75842 0.08237 0.19388 0.0
O74 O 0.72241 0.07756 0.20153 0.0
N75 N 0.69963 0.04536 0.15454 0.0
C76 C 0.65337 0.08692 0.14246 0.0
C77 C 0.69203 0.07807 0.14041 0.0
C78 C 0.6652 0.03582 0.16569 0.0
N79 N 0.63682 0.06029 0.15853 0.0
O80 O 0.75951 0.04002 0.11941 0.0
H81 H 0.71296 0.09397 0.12854 0.0
H82 H 0.65991 0.01071 0.17804 0.0
O83 O 0.77223 0.06136 0.1747 0.0
C84 C 0.74497 0.01536 0.1029 0.0
O85 O 0.72463 0.9868 0.11318 0.0
N86 N 0.73544 0.99156 0.18616 0.0
C87 C 0.73732 0.92566 0.21852 0.0
C88 C 0.75897 0.95855 0.22567 0.0
C89 C 0.75786 0.99129 0.20905 0.0
C90 C 0.71222 0.96083 0.18021 0.0
C91 C 0.7116 0.92824 0.19665 0.0
H92 H 0.77889 0.01372 0.21271 0.0
H93 H 0.69689 0.95996 0.16104 0.0
H94 H 0.83577 0.03787 0.15535 0.0
H95 H 0.85105 0.918 0.14617 0.0
H96 H 0.63839 0.11031 0.13235 0.0
H97 H 0.78001 0.95753 0.24198 0.0
H98 H 0.69424 0.90368 0.19047 0.0
C99 C 0.06116 0.80723 0.65238 0.0
C100 C 0.06646 0.84662 0.6513 0.0
N101 N 0.03144 0.86364 0.65183 0.0
N102 N 0.02303 0.79962 0.65374 0.0
C103 C 0.00569 0.83441 0.65294 0.0
H104 H 0.08365 0.78557 0.65304 0.0
Co105 Co 2e-05 0.75171 0.65817 0.0
C106 C 0.92114 0.77618 0.67595 0.0
O107 O 0.9043 0.75571 0.65678 0.0
N108 N 0.97769 0.70333 0.6625 0.0
C109 C 0.95261 0.64976 0.68002 0.0
C110 C 0.95566 0.68926 0.68287 0.0
C111 C 0.98769 0.67214 0.64772 0.0
N112 N 0.97324 0.63912 0.65804 0.0
O113 O 0.97528 0.75762 0.62354 0.0
H114 H 0.94504 0.70601 0.69985 0.0
H115 H 0.00748 0.67326 0.63078 0.0
O116 O 0.95784 0.7761 0.678 0.0
C117 C 0.00069 0.748 0.60598 0.0
O118 O 0.03499 0.73717 0.61453 0.0
N119 N 0.02784 0.74482 0.69004 0.0
C120 C 0.09256 0.75024 0.72289 0.0
C121 C 0.06003 0.77331 0.72812 0.0
C122 C 0.0277 0.77025 0.71126 0.0
C123 C 0.05708 0.71889 0.68696 0.0
C124 C 0.08976 0.72089 0.70338 0.0
H125 H 0.00505 0.79148 0.71325 0.0
H126 H 0.05725 0.69966 0.66963 0.0
H127 H 0.97471 0.83821 0.65343 0.0
H128 H 0.09398 0.86149 0.65123 0.0
H129 H 0.93908 0.63016 0.69429 0.0
H130 H 0.06122 0.79659 0.74285 0.0
H131 H 0.11419 0.70242 0.6989 0.0
C132 C 0.20944 0.94934 0.85106 0.0
C133 C 0.17033 0.94236 0.84949 0.0
N134 N 0.15157 0.97627 0.8525 0.0
N135 N 0.21524 0.98748 0.85482 0.0
C136 C 0.17961 0.00299 0.8559 0.0
H137 H 0.23222 0.92809 0.84943 0.0
Co138 Co 0.26223 0.01306 0.85845 0.0
C139 C 0.25072 0.08191 0.82346 0.0
O140 O 0.28528 0.07568 0.81332 0.0
N141 N 0.30987 0.03863 0.86387 0.0
C142 C 0.35542 0.08185 0.87442 0.0
C143 C 0.31741 0.07678 0.86696 0.0
C144 C 0.34302 0.02134 0.87176 0.0
N145 N 0.37147 0.04674 0.87743 0.0
O146 O 0.24889 0.02572 0.8953 0.0
H147 H 0.29639 0.09969 0.86524 0.0
H148 H 0.3459 0.99061 0.87466 0.0
O149 O 0.23831 0.0605 0.84292 0.0
C150 C 0.25982 0.99557 0.90823 0.0
O151 O 0.27545 0.96732 0.89413 0.0
N152 N 0.27607 0.9953 0.82319 0.0
C153 C 0.27686 0.93897 0.78269 0.0
C154 C 0.25032 0.96949 0.78153 0.0
C155 C 0.25025 -0.00268 0.80208 0.0
C156 C 0.305 0.96855 0.82238 0.0
C157 C 0.30649 0.94073 0.80196 0.0
H158 H 0.22566 0.0164 0.80306 0.0
H159 H 0.32374 0.96436 0.83938 0.0
H160 H 0.17449 0.0335 0.85885 0.0
H161 H 0.15693 0.9144 0.84659 0.0
H162 H 0.36968 0.10917 0.87826 0.0
H163 H 0.22648 0.96903 0.76723 0.0
H164 H 0.32762 0.91775 0.80347 0.0
C165 C 0.05497 0.19512 0.34634 0.0
C166 C 0.06127 0.15591 0.34463 0.0
N167 N 0.02729 0.13757 0.3485 0.0
N168 N 0.01715 0.20144 0.35099 0.0
C169 C 0.00112 0.16598 0.35235 0.0
H170 H 0.07658 0.21761 0.34474 0.0
Co171 Co 0.99315 0.24867 0.35731 0.0
C172 C 0.92497 0.24256 0.32077 0.0
O173 O 0.9324 0.27775 0.31216 0.0
N174 N 0.96969 0.29626 0.36564 0.0
C175 C 0.93084 0.34543 0.37621 0.0
C176 C 0.93241 0.30787 0.36682 0.0
C177 C 0.98947 0.32603 0.37668 0.0
N178 N 0.96706 0.35685 0.38206 0.0
O179 O 0.97882 0.23109 0.39284 0.0
H180 H 0.90765 0.29027 0.36175 0.0
H181 H 0.02001 0.32497 0.38127 0.0
O182 O 0.94535 0.22811 0.34008 0.0
C183 C 0.00849 0.23568 0.40799 0.0
O184 O 0.04007 0.24963 0.39684 0.0
N185 N 0.01159 0.26666 0.32297 0.0
C186 C 0.0623 0.27823 0.27959 0.0
C187 C 0.03476 0.24845 0.27871 0.0
C188 C 0.00973 0.24314 0.3006 0.0
C189 C 0.03554 0.29807 0.32262 0.0
C190 C 0.0602 0.30502 0.30082 0.0
H191 H 0.99236 0.21718 0.30086 0.0
H192 H 0.03947 0.3158 0.34019 0.0
H193 H 0.9708 0.16126 0.3564 0.0
H194 H 0.08896 0.14211 0.34158 0.0
H195 H 0.90522 0.36316 0.37796 0.0
H196 H 0.03545 0.22655 0.26296 0.0
H197 H 0.08057 0.32874 0.30219 0.0
C198 C 0.81093 0.05928 0.8446 0.0
C199 C 0.85031 0.06455 0.84393 0.0
N200 N 0.86742 0.02951 0.84459 0.0
N201 N 0.80326 0.02113 0.8455 0.0
C202 C 0.83808 0.00379 0.8456 0.0
H203 H 0.78923 0.08176 0.84476 0.0
Co204 Co 0.755 -0.00213 0.84844 0.0
C205 C 0.76089 0.93484 0.80782 0.0
O206 O 0.72688 0.94578 0.79874 0.0
N207 N 0.70628 0.97445 0.85319 0.0
C208 C 0.65896 0.93231 0.86143 0.0
C209 C 0.69664 0.93655 0.85313 0.0
C210 C 0.67479 0.99202 0.86369 0.0
N211 N 0.64515 0.96743 0.86799 0.0
O212 O 0.76936 0.97874 0.88363 0.0
H213 H 0.71607 0.91299 0.84872 0.0
H214 H 0.67417 0.02211 0.86936 0.0
O215 O 0.77522 0.95163 0.82886 0.0
C216 C 0.76365 0.00759 0.8994 0.0
O217 O 0.7498 0.03954 0.88872 0.0
N218 N 0.74048 0.02188 0.81515 0.0
C219 C 0.74082 0.08466 0.77971 0.0
C220 C 0.76599 0.0535 0.77552 0.0
C221 C 0.76546 0.02237 0.79355 0.0
C222 C 0.7126 0.04962 0.81704 0.0
C223 C 0.71171 0.08078 0.79917 0.0
H224 H 0.78913 0.00214 0.79245 0.0
H225 H 0.69432 0.05147 0.83447 0.0
H226 H 0.84166 0.9728 0.84659 0.0
H227 H 0.86502 0.09214 0.8437 0.0
H228 H 0.6435 0.90526 0.86339 0.0
H229 H 0.78934 0.05539 0.76093 0.0
H230 H 0.69151 0.10409 0.80291 0.0
C231 C 0.947 0.79559 0.35469 0.0
C232 C 0.94149 0.8349 0.35548 0.0
N233 N 0.97629 0.85235 0.35387 0.0
N234 N 0.98507 0.78817 0.35254 0.0
C235 C 0.00219 0.82322 0.35232 0.0
H236 H 0.92468 0.77372 0.35537 0.0
Co237 Co 0.00667 0.739 0.35005 0.0
C238 C 0.07219 0.75491 0.31076 0.0
O239 O 0.06151 0.72558 0.29574 0.0
N240 N 0.02743 0.6877 0.34826 0.0
C241 C 0.0396 0.62745 0.3343 0.0
C242 C 0.03191 0.6645 0.32624 0.0
C243 C 0.03138 0.66291 0.36949 0.0
N244 N 0.03905 0.62643 0.36153 0.0
O245 O 0.02718 0.74583 0.38609 0.0
H246 H 0.02437 0.67185 0.30561 0.0
H247 H 0.02504 0.67008 0.39036 0.0
O248 O 0.05391 0.7622 0.33288 0.0
C249 C -0.00098 0.73774 0.40193 0.0
O250 O 0.96666 0.72518 0.391 0.0
N251 N 0.98145 0.73248 0.31686 0.0
C252 C 0.91909 0.73714 0.28151 0.0
C253 C 0.951 0.76182 0.27836 0.0
C254 C 0.98182 0.75937 0.29655 0.0
C255 C 0.95232 0.70604 0.31857 0.0
C256 C 0.92103 0.70749 0.30081 0.0
H257 H 0.00317 0.78214 0.29636 0.0
H258 H 0.95132 0.68623 0.33557 0.0
H259 H 0.033 0.82726 0.35058 0.0
H260 H 0.91391 0.84933 0.35725 0.0
H261 H 0.04013 0.60226 0.32121 0.0
H262 H 0.95019 0.78576 0.26419 0.0
H263 H 0.8969 0.68802 0.30389 0.0
H264 H 0.20172 0.97891 0.08275 0.0
H265 H 0.32485 0.96475 0.07427 0.0
H266 H 0.19517 0.98207 0.03288 0.0
H267 H 0.31845 0.96713 0.02485 0.0
H268 H 0.28905 0.93706 0.93824 0.0
H269 H 0.28668 0.92779 0.98696 0.0
H270 H 0.22097 0.03294 0.99571 0.0
H271 H 0.22324 0.04265 0.94603 0.0
C272 C 0.22708 0.97492 0.07015 0.0
C273 C 0.26369 0.97061 0.08213 0.0
C274 C 0.22345 0.97748 0.04176 0.0
C275 C 0.25633 0.97507 0.02507 0.0
C276 C 0.29258 0.96884 0.03719 0.0
C277 C 0.29626 0.96709 0.06542 0.0
C278 C 0.27382 0.95835 0.95031 0.0
C279 C 0.25656 0.99089 0.93814 0.0
C280 C 0.27252 0.95287 0.97833 0.0
C281 C 0.25375 0.9796 0.9951 0.0
C282 C 0.2354 0.01171 0.98312 0.0
C283 C 0.23698 0.01745 0.9548 0.0
H284 H 0.07 0.23758 0.44221 0.0
H285 H 0.9468 0.2175 0.44109 0.0
H286 H 0.07011 0.2348 0.49142 0.0
H287 H 0.94709 0.21341 0.49084 0.0
H288 H 0.95511 0.27193 0.5746 0.0
H289 H 0.95442 0.26024 0.52619 0.0
H290 H 0.06257 0.19864 0.53271 0.0
H291 H 0.06372 0.21133 0.58185 0.0
C292 C 0.0429 0.23191 0.45247 0.0
C293 C 0.0082 0.22841 0.4377 0.0
C294 C 0.04311 0.2299 0.48081 0.0
C295 C 0.00862 0.22422 0.49523 0.0
C296 C 0.97413 0.21853 0.48039 0.0
C297 C 0.97391 0.22063 0.45188 0.0
C298 C 0.97882 0.25571 0.5659 0.0
C299 C 0.0097 0.24281 0.58217 0.0
C300 C 0.97812 0.24859 0.53801 0.0
C301 C 0.00822 0.22822 0.52544 0.0
C302 C 0.03898 0.21468 0.54172 0.0
C303 C 0.03972 0.22191 0.56985 0.0
H304 H 0.79525 0.06104 0.07317 0.0
H305 H 0.71129 0.96918 0.06528 0.0
H306 H 0.80822 0.05678 0.02412 0.0
H307 H 0.72376 0.96529 0.01701 0.0
H308 H 0.76937 0.94458 0.93357 0.0
H309 H 0.7714 0.94602 0.98348 0.0
H310 H 0.77501 0.07083 0.98167 0.0
H311 H 0.77387 0.0693 0.93237 0.0
C312 C 0.77947 0.0402 0.06103 0.0
C313 C 0.75222 0.01558 0.07317 0.0
C314 C 0.78696 0.03759 0.03299 0.0
C315 C 0.76741 0.01025 0.01666 0.0
C316 C 0.74012 0.98593 0.02896 0.0
C317 C 0.73264 0.98857 0.05673 0.0
C318 C 0.77145 0.97216 0.94391 0.0
C319 C 0.77088 0.00676 0.92908 0.0
C320 C 0.77232 0.97309 0.97246 0.0
C321 C 0.77287 0.00863 0.98661 0.0
C322 C 0.77482 0.04299 0.97157 0.0
C323 C 0.77378 0.04205 0.94322 0.0
H324 H 0.0381 0.78953 0.43461 0.0
H325 H 0.96479 0.68855 0.43669 0.0
H326 H 0.03469 0.79365 0.48468 0.0
H327 H 0.96166 0.69245 0.48603 0.0
H328 H 0.01014 0.68626 0.57384 0.0
H329 H 0.01109 0.68467 0.52422 0.0
H330 H 0.97913 0.80522 0.52195 0.0
H331 H 0.97767 0.80652 0.57214 0.0
C332 C 0.02184 0.768 0.44578 0.0
C333 C 0.00188 0.73865 0.43188 0.0
C334 C 0.01942 0.77064 0.47427 0.0
C335 C -0.00236 0.7435 0.48915 0.0
C336 C 0.97863 0.71372 0.47513 0.0
C337 C 0.98051 0.71149 0.44688 0.0
C338 C 0.00232 0.71213 0.5627 0.0
C339 C 0.99302 0.74627 0.57661 0.0
C340 C 0.00315 0.71132 0.53436 0.0
C341 C 0.99548 0.7449 0.51928 0.0
C342 C 0.98547 0.77904 0.53316 0.0
C343 C 0.98395 0.77965 0.56172 0.0
H344 H 0.07008 0.25579 0.22615 0.0
H345 H 0.13637 0.29132 0.29654 0.0
H346 H 0.12783 0.22662 0.20687 0.0
H347 H 0.19399 0.26374 0.27671 0.0
H348 H 0.23604 0.13423 0.26371 0.0
H349 H 0.20052 0.1925 0.27563 0.0
H350 H 0.19584 0.22508 0.19083 0.0
H351 H 0.23071 0.16637 0.17887 0.0
C352 C 0.09719 0.25883 0.23698 0.0
C353 C 0.09819 0.27482 0.26324 0.0
C354 C 0.13043 0.24243 0.22582 0.0
C355 C 0.16515 0.24205 0.24072 0.0
C356 C 0.16739 0.26301 0.26507 0.0
C357 C 0.13421 0.2792 0.27629 0.0
C358 C 0.22837 0.15441 0.24775 0.0
C359 C 0.23577 0.1456 0.22042 0.0
C360 C 0.20837 0.18801 0.25453 0.0
C361 C 0.1952 0.21323 0.23406 0.0
C362 C 0.2055 0.20605 0.20695 0.0
C363 C 0.2257 0.17255 0.20018 0.0
H364 H 0.74224 0.15157 0.8088 0.0
H365 H 0.76639 0.1053 0.72888 0.0
H366 H 0.77739 0.21013 0.79752 0.0
H367 H 0.80244 0.16384 0.71786 0.0
H368 H 0.86389 0.27072 0.70103 0.0
H369 H 0.8052 0.23572 0.71204 0.0
H370 H 0.84944 0.21306 0.79264 0.0
H371 H 0.90812 0.24903 0.78189 0.0
C372 C 0.75363 0.15447 0.78839 0.0
C373 C 0.75175 0.12358 0.76973 0.0
C374 C 0.77417 0.18795 0.78211 0.0
C375 C 0.79308 0.19128 0.75704 0.0
C376 C 0.78797 0.16214 0.73735 0.0
C377 C 0.76754 0.1285 0.74368 0.0
C378 C 0.8605 0.25993 0.72157 0.0
C379 C 0.89089 0.26246 0.74061 0.0
C380 C 0.82695 0.23946 0.7277 0.0
C381 C 0.82302 0.22124 0.75298 0.0
C382 C 0.85161 0.22699 0.77298 0.0
C383 C 0.88533 0.24738 0.76681 0.0
H384 H 0.75611 0.90587 0.27103 0.0
H385 H 0.74518 0.85858 0.18989 0.0
H386 H 0.79038 0.84772 0.28521 0.0
H387 H 0.77784 0.80023 0.20438 0.0
H388 H 0.90404 0.76022 0.22935 0.0
H389 H 0.84757 0.79639 0.21438 0.0
H390 H 0.79305 0.77664 0.29218 0.0
H391 H 0.84983 0.74128 0.30737 0.0
C392 C 0.75985 0.88263 0.2565 0.0
C393 C 0.74827 0.88716 0.22931 0.0
C394 C 0.77913 0.84913 0.26466 0.0
C395 C 0.78714 0.81967 0.24574 0.0
C396 C 0.77238 0.82267 0.21928 0.0
C397 C 0.75323 0.85608 0.21111 0.0
C398 C 0.87948 0.76258 0.2429 0.0
C399 C 0.88151 0.74828 0.26955 0.0
C400 C 0.84701 0.78308 0.23432 0.0
C401 C 0.81612 0.78972 0.25231 0.0
C402 C 0.81664 0.77227 0.27804 0.0
C403 C 0.84903 0.75165 0.28658 0.0
H404 H 0.25039 0.92549 0.73084 0.0
H405 H 0.27837 0.86804 0.80642 0.0
H406 H 0.21547 0.8679 0.71585 0.0
H407 H 0.2442 0.81067 0.79122 0.0
H408 H 0.11345 0.772 0.77443 0.0
H409 H 0.17107 0.80881 0.78685 0.0
H410 H 0.21508 0.79579 0.70518 0.0
H411 H 0.1575 0.75937 0.69269 0.0
C412 C 0.25035 0.90014 0.74376 0.0
C413 C 0.26686 0.90151 0.76984 0.0
C414 C 0.23056 0.8671 0.73517 0.0
C415 C 0.2268 0.8351 0.75261 0.0
C416 C 0.24647 0.8351 0.77753 0.0
C417 C 0.26641 0.86793 0.78604 0.0
C418 C 0.13603 0.77596 0.75944 0.0
C419 C 0.13094 0.76295 0.73265 0.0
C420 C 0.16908 0.79682 0.76652 0.0
C421 C 0.19733 0.8053 0.74684 0.0
C422 C 0.19364 0.78973 0.72064 0.0
C423 C 0.16081 0.76858 0.71363 0.0
H424 H 0.94485 0.83437 0.70991 0.0
H425 H 0.84458 0.76675 0.68819 0.0
H426 H 0.90666 0.86991 0.74318 0.0
H427 H 0.80664 0.8011 0.72215 0.0
H428 H 0.73899 0.89922 0.76087 0.0
H429 H 0.77767 0.86064 0.73026 0.0
H430 H 0.87437 0.86883 0.78569 0.0
H431 H 0.83564 0.90927 0.81608 0.0
C432 C 0.9147 0.8268 0.71244 0.0
C433 C 0.89775 0.79778 0.69626 0.0
C434 C 0.89278 0.84704 0.73172 0.0
C435 C 0.85335 0.8386 0.73555 0.0
C436 C 0.83665 0.80912 0.71955 0.0
C437 C 0.85846 0.78922 0.70005 0.0
C438 C 0.7684 0.89264 0.76678 0.0
C439 C 0.78411 0.90752 0.79105 0.0
C440 C 0.79067 0.87012 0.74916 0.0
C441 C 0.82937 0.86133 0.7553 0.0
C442 C 0.84489 0.87539 0.77998 0.0
C443 C 0.82256 0.89828 0.7976 0.0
H444 H 0.17679 0.90425 0.19089 0.0
H445 H 0.24592 0.92739 0.26233 0.0
H446 H 0.13712 0.8594 0.21733 0.0
H447 H 0.20615 0.88273 0.28866 0.0
H448 H 0.0972 0.82593 0.3306 0.0
H449 H 0.1371 0.87374 0.30656 0.0
H450 H 0.1493 0.79484 0.2391 0.0
H451 H 0.1102 0.74753 0.2627 0.0
C452 C 0.1835 0.89987 0.2122 0.0
C453 C 0.21479 0.91919 0.22436 0.0
C454 C 0.16082 0.87411 0.22735 0.0
C455 C 0.16858 0.86741 0.2551 0.0
C456 C 0.19926 0.88743 0.26741 0.0
C457 C 0.22223 0.9128 0.2522 0.0
C458 C 0.10867 0.81871 0.31077 0.0
C459 C 0.1 0.78291 0.29859 0.0
C460 C 0.13152 0.84609 0.29698 0.0
C461 C 0.14577 0.8383 0.27068 0.0
C462 C 0.13809 0.80211 0.25902 0.0
C463 C 0.11579 0.77481 0.27278 0.0
H464 H 0.08267 0.16767 0.70663 0.0
H465 H 0.13736 0.27112 0.73732 0.0
H466 H 0.12275 0.12849 0.73728 0.0
H467 H 0.17725 0.23221 0.76763 0.0
H468 H 0.27134 0.14449 0.79349 0.0
H469 H 0.23059 0.18365 0.76386 0.0
H470 H 0.13057 0.11824 0.78899 0.0
H471 H 0.17153 0.07898 0.81891 0.0
C472 C 0.1036 0.18198 0.71959 0.0
C473 C 0.107 0.22249 0.71943 0.0
C474 C 0.12618 0.15961 0.73738 0.0
C475 C 0.15305 0.17727 0.755 0.0
C476 C 0.157 0.21768 0.75426 0.0
C477 C 0.13411 0.23998 0.73687 0.0
C478 C 0.24056 0.13881 0.79304 0.0
C479 C 0.22466 0.10883 0.80876 0.0
C480 C 0.21721 0.16123 0.77602 0.0
C481 C 0.17737 0.15391 0.77391 0.0
C482 C 0.16124 0.12433 0.78997 0.0
C483 C 0.1846 0.10222 0.8074 0.0
H484 H 0.73625 0.142 0.22624 0.0
H485 H 0.83745 0.07907 0.2005 0.0
H486 H 0.77548 0.17944 0.2579 0.0
H487 H 0.877 0.11683 0.23242 0.0
H488 H 0.92383 0.16333 0.31546 0.0
H489 H 0.88455 0.12497 0.28379 0.0
H490 H 0.82727 0.2289 0.25684 0.0
H491 H 0.8663 0.26701 0.28828 0.0
C492 C 0.76701 0.13642 0.22714 0.0
C493 C 0.78371 0.10766 0.2107 0.0
C494 C 0.78952 0.15794 0.24531 0.0
C495 C 0.82937 0.15105 0.24783 0.0
C496 C 0.8463 0.12257 0.23117 0.0
C497 C 0.82375 0.10129 0.21264 0.0
C498 C 0.90237 0.17785 0.30311 0.0
C499 C 0.89799 0.21823 0.30457 0.0
C500 C 0.88025 0.15595 0.2847 0.0
C501 C 0.8529 0.17389 0.26765 0.0
C502 C 0.84787 0.2141 0.26974 0.0
C503 C 0.87026 0.23596 0.28781 0.0
H504 H 0.08575 0.07939 0.1424 0.0
H505 H 0.10592 0.9566 0.14968 0.0
H506 H 0.01631 0.06793 0.14336 0.0
H507 H 0.03667 0.94533 0.15186 0.0
H508 H 0.91037 0.93678 0.12477 0.0
H509 H 0.97988 0.94799 0.12298 0.0
H510 H 0.96667 0.04762 0.17523 0.0
H511 H 0.89721 0.0365 0.17682 0.0
C512 C 0.07542 0.04998 0.14416 0.0
C513 C 0.10145 0.01895 0.146 0.0
C514 C 0.03563 0.04344 0.14504 0.0
C515 C 0.021 0.00572 0.14777 0.0
C516 C 0.04701 0.9747 0.14949 0.0
C517 C 0.08676 0.98123 0.14859 0.0
C518 C 0.92239 0.96083 0.13606 0.0
C519 C 0.89833 0.98581 0.15087 0.0
C520 C 0.96218 0.96728 0.13504 0.0
C521 C 0.97876 -0.00124 0.14891 0.0
C522 C 0.9547 0.02353 0.16391 0.0
C523 C 0.91493 0.01714 0.16486 0.0
H524 H 0.04458 0.10883 0.67966 0.0
H525 H 0.92884 0.09175 0.64876 0.0
H526 H 0.05685 0.03987 0.67563 0.0
H527 H 0.94103 0.0225 0.64523 0.0
H528 H 0.96756 0.89753 0.67314 0.0
H529 H 0.95416 0.96633 0.67629 0.0
H530 H 0.06338 0.99146 0.63779 0.0
H531 H 0.07665 0.92245 0.63409 0.0
C532 C 0.02182 0.09047 0.67183 0.0
C533 C 0.9858 0.10593 0.6643 0.0
C534 C 0.02887 0.05095 0.66957 0.0
C535 C -2e-05 0.02597 0.65994 0.0
C536 C 0.96372 0.04116 0.6529 0.0
C537 C 0.95672 0.08079 0.655 0.0
C538 C 0.9885 0.91756 0.6649 0.0
C539 C 0.02318 0.90437 0.65322 0.0
C540 C 0.98082 0.95702 0.66682 0.0
C541 C 0.00774 0.98414 0.65731 0.0
C542 C 0.04234 0.9711 0.64558 0.0
C543 C 0.04994 0.9316 0.6435 0.0
H544 H 0.92609 0.07727 0.8295 0.0
H545 H 0.90236 0.96279 0.86077 0.0
H546 H 0.99502 0.06378 0.83143 0.0
H547 H 0.97115 0.94928 0.86188 0.0
H548 H 0.09623 0.92938 0.83091 0.0
H549 H 0.02704 0.94181 0.82862 0.0
H550 H 0.04397 0.05134 0.86898 0.0
H551 H 0.11278 0.03875 0.87209 0.0
C552 C 0.93534 0.04934 0.83688 0.0
C553 C 0.9083 0.02125 0.84505 0.0
C554 C 0.9749 0.04161 0.83789 0.0
C555 C 0.98833 0.0055 0.84681 0.0
C556 C 0.96151 0.97721 0.85462 0.0
C557 C 0.92198 0.98504 0.85389 0.0
C558 C 0.08531 0.9559 0.83963 0.0
C559 C 0.11044 0.98306 0.8516 0.0
C560 C 0.04564 0.96304 0.8382 0.0
C561 C 0.03027 -0.00236 0.84846 0.0
C562 C 0.05518 0.02471 0.86051 0.0
C563 C 0.09473 0.01743 0.86221 0.0
H564 H 0.04447 0.88873 0.36471 0.0
H565 H 0.92596 0.90981 0.34102 0.0
H566 H 0.05739 0.95785 0.36289 0.0
H567 H 0.9389 0.9788 0.33984 0.0
H568 H 0.96704 0.10015 0.37234 0.0
H569 H 0.95512 0.031 0.37322 0.0
H570 H 0.06026 0.01142 0.32817 0.0
H571 H 0.072 0.08088 0.32668 0.0
C572 C 0.02118 0.90786 0.35897 0.0
C573 C 0.98406 0.89337 0.3531 0.0
C574 C 0.02865 0.94755 0.35796 0.0
C575 C -0.00087 0.97369 0.35131 0.0
C576 C 0.96209 0.95935 0.34543 0.0
C577 C 0.95468 0.9197 0.3462 0.0
C578 C 0.98747 0.08138 0.36227 0.0
C579 C 0.02046 0.0964 0.3493 0.0
C580 C 0.98063 0.04163 0.36288 0.0
C581 C 0.00671 0.01585 0.35072 0.0
C582 C 0.03986 0.03063 0.33796 0.0
C583 C 0.04659 0.07047 0.33717 0.0
H584 H 0.42265 0.94464 0.14226 0.0
H585 H 0.39864 0.02143 0.20928 0.0
H586 H 0.48839 0.97064 0.13926 0.0
H587 H 0.4647 0.04708 0.20664 0.0
H588 H 0.60351 0.03896 0.20557 0.0
H589 H 0.5366 0.01708 0.21159 0.0
H590 H 0.51308 0.04269 0.12724 0.0
H591 H 0.57977 0.06515 0.12143 0.0
C592 C 0.43181 0.96648 0.15668 0.0
C593 C 0.40591 0.98103 0.17606 0.0
C594 C 0.46909 0.98164 0.15477 0.0
C595 C 0.48119 0.01105 0.17255 0.0
C596 C 0.45585 0.02447 0.1927 0.0
C597 C 0.41831 0.00984 0.19423 0.0
C598 C 0.58366 0.0406 0.18856 0.0
C599 C 0.59646 0.05377 0.1631 0.0
C600 C 0.54561 0.02812 0.19197 0.0
C601 C 0.52011 0.02789 0.16978 0.0
C602 C 0.53248 0.04236 0.14455 0.0
C603 C 0.57032 0.05556 0.14131 0.0
H604 H 0.04202 0.61653 0.6372 0.0
H605 H 0.93053 0.57414 0.663 0.0
H606 H 0.06317 0.55062 0.62851 0.0
H607 H 0.95206 0.50784 0.65478 0.0
H608 H 0.09698 0.42777 0.662 0.0
H609 H 0.07752 0.49534 0.65979 0.0
H610 H 0.9732 0.46258 0.61737 0.0
H611 H 0.99298 0.39507 0.61902 0.0
C612 C 0.02174 0.5932 0.64053 0.0
C613 C 0.98449 0.60048 0.65075 0.0
C614 C 0.03405 0.55544 0.63579 0.0
C615 C 0.00931 0.52419 0.64101 0.0
C616 C 0.97162 0.53146 0.65032 0.0
C617 C 0.95939 0.56928 0.65526 0.0
C618 C 0.07045 0.43502 0.65153 0.0
C619 C 0.04624 0.40593 0.64114 0.0
C620 C 0.05923 0.47373 0.65033 0.0
C621 C 0.02357 0.48404 0.63876 0.0
C622 C 0.00047 0.45527 0.62688 0.0
C623 C 0.0118 0.41663 0.62792 0.0
H624 H 0.4344 0.09105 0.86739 0.0
H625 H 0.39887 0.98147 0.90135 0.0
H626 H 0.50178 0.07143 0.87115 0.0
H627 H 0.4662 0.96167 0.90458 0.0
H628 H 0.57996 0.92557 0.85941 0.0
H629 H 0.51391 0.9457 0.86801 0.0
H630 H 0.55531 0.05242 0.90308 0.0
H631 H 0.62162 0.03205 0.89514 0.0
C632 C 0.44093 0.06316 0.87621 0.0
C633 C 0.41114 0.0376 0.88357 0.0
C634 C 0.47956 0.05189 0.87835 0.0
C635 C 0.48916 0.01482 0.88784 0.0
C636 C 0.45955 0.99015 0.89672 0.0
C637 C 0.42098 0.00148 0.89474 0.0
C638 C 0.57523 0.95289 0.86957 0.0
C639 C 0.60636 0.97731 0.8762 0.0
C640 C 0.53726 0.96445 0.87449 0.0
C641 C 0.52949 0.00077 0.88604 0.0
C642 C 0.56049 0.02451 0.89379 0.0
C643 C 0.59852 0.01282 0.88908 0.0
H644 H 0.03421 0.38875 0.366 0.0
H645 H 0.92975 0.41262 0.41072 0.0
H646 H 0.05361 0.45544 0.37006 0.0
H647 H 0.94991 0.48005 0.41598 0.0
H648 H 0.9692 0.60068 0.37553 0.0
H649 H 0.95328 0.53463 0.38846 0.0
H650 H 0.07527 0.50832 0.39421 0.0
H651 H 0.09039 0.57412 0.37931 0.0
C652 C 0.01592 0.4081 0.37752 0.0
C653 C 0.98035 0.39542 0.38795 0.0
C654 C 0.02718 0.44659 0.38003 0.0
C655 C 0.00343 0.47356 0.39338 0.0
C656 C 0.96869 0.46037 0.40513 0.0
C657 C 0.95711 0.42176 0.40222 0.0
C658 C 0.99237 0.58087 0.38047 0.0
C659 C 0.03089 0.59199 0.37654 0.0
C660 C 0.98341 0.54298 0.38794 0.0
C661 C 0.01295 0.5156 0.39192 0.0
C662 C 0.05169 0.52817 0.39054 0.0
C663 C 0.06053 0.56589 0.38243 0.0
loop_
_geom_bond_atom_site_label_1
_geom_bond_atom_site_label_2
_geom_bond_distance
_geom_bond_site_symmetry_2
_ccdc_geom_bond_type
C0 C1 1.351 . S
C0 N3 1.368 1_545 S
C0 H5 0.931 . S
C1 C0 1.351 . S
C1 N2 1.373 1_545 S
C1 H29 0.930 . S
N2 C1 1.373 1_565 S
N2 C4 1.340 . S
N3 C0 1.368 1_565 S
N3 C4 1.321 . S
N3 Co6 2.135 . S
C4 N2 1.340 . S
C4 N3 1.321 . S
C4 H28 0.930 . S
H5 C0 0.931 . S
Co6 N3 2.135 . S
Co6 N9 2.121 . S
Co6 O14 2.055 . S
Co6 O17 2.039 . S
Co6 N20 2.140 1_565 S
C7 O8 1.227 . S
C7 O17 1.265 . S
O8 C7 1.227 . S
N9 Co6 2.121 . S
N9 C11 1.375 . S
N9 C12 1.313 . S
C10 C11 1.338 . S
C10 N13 1.377 . S
C10 H30 0.930 . S
C11 N9 1.375 . S
C11 C10 1.338 . S
C11 H15 0.931 . S
C12 N9 1.313 . S
C12 N13 1.344 . S
C12 H16 0.930 1_565 S
N13 C10 1.377 . S
N13 C12 1.344 . S
O14 Co6 2.055 . S
O14 C18 1.253 1_565 S
H15 C11 0.931 . S
H16 C12 0.930 1_545 S
O17 Co6 2.039 . S
O17 C7 1.265 . S
C18 O14 1.253 1_545 S
C18 O19 1.227 . S
O19 C18 1.227 . S
N20 Co6 2.140 1_545 S
N20 C23 1.346 . S
N20 C24 1.345 . S
C21 C22 1.387 . S
C21 C25 1.391 . S
C22 C21 1.387 . S
C22 C23 1.369 . S
C22 H31 0.929 . S
C23 N20 1.346 . S
C23 C22 1.369 . S
C23 H26 0.928 . S
C24 N20 1.345 . S
C24 C25 1.371 . S
C24 H27 0.931 . S
C25 C21 1.391 . S
C25 C24 1.371 . S
C25 H32 0.930 . S
H26 C23 0.928 . S
H27 C24 0.931 . S
H28 C4 0.930 . S
H29 C1 0.930 . S
H30 C10 0.930 . S
H31 C22 0.929 . S
H32 C25 0.930 . S
C33 C34 1.351 . S
C33 N36 1.368 1_655 S
C33 H38 0.931 . S
C34 C33 1.351 . S
C34 N35 1.373 1_655 S
C34 H62 0.930 . S
N35 C34 1.373 1_455 S
N35 C37 1.340 . S
N36 C33 1.368 1_455 S
N36 C37 1.321 . S
N36 Co39 2.135 . S
C37 N35 1.340 . S
C37 N36 1.321 . S
C37 H61 0.930 . S
H38 C33 0.931 . S
Co39 N36 2.135 . S
Co39 N42 2.121 . S
Co39 O47 2.055 . S
Co39 O50 2.039 . S
Co39 N53 2.140 1_455 S
C40 O41 1.227 . S
C40 O50 1.265 . S
O41 C40 1.227 . S
N42 Co39 2.121 . S
N42 C44 1.375 . S
N42 C45 1.313 . S
C43 C44 1.338 . S
C43 N46 1.377 . S
C43 H63 0.930 . S
C44 N42 1.375 . S
C44 C43 1.338 . S
C44 H48 0.931 . S
C45 N42 1.313 . S
C45 N46 1.344 . S
C45 H49 0.930 . S
N46 C43 1.377 . S
N46 C45 1.344 . S
O47 Co39 2.055 . S
O47 C51 1.253 . S
H48 C44 0.931 . S
H49 C45 0.930 . S
O50 Co39 2.039 . S
O50 C40 1.265 . S
C51 O47 1.253 . S
C51 O52 1.227 1_455 S
O52 C51 1.227 1_655 S
N53 Co39 2.140 1_655 S
N53 C56 1.346 . S
N53 C57 1.345 . S
C54 C55 1.387 . S
C54 C58 1.391 . S
C55 C54 1.387 . S
C55 C56 1.369 . S
C55 H64 0.929 . S
C56 N53 1.346 . S
C56 C55 1.369 . S
C56 H59 0.928 . S
C57 N53 1.345 . S
C57 C58 1.371 . S
C57 H60 0.931 . S
C58 C54 1.391 . S
C58 C57 1.371 . S
C58 H65 0.930 . S
H59 C56 0.928 . S
H60 C57 0.931 . S
H61 C37 0.930 . S
H62 C34 0.930 . S
H63 C43 0.930 . S
H64 C55 0.929 . S
H65 C58 0.930 . S
C66 C67 1.351 . S
C66 N69 1.368 1_565 S
C66 H71 0.931 . S
C67 C66 1.351 . S
C67 N68 1.373 1_565 S
C67 H95 0.930 . S
N68 C67 1.373 1_545 S
N68 C70 1.340 . S
N69 C66 1.368 1_545 S
N69 C70 1.321 . S
N69 Co72 2.135 . S
C70 N68 1.340 . S
C70 N69 1.321 . S
C70 H94 0.930 . S
H71 C66 0.931 . S
Co72 N69 2.135 . S
Co72 N75 2.121 . S
Co72 O80 2.055 . S
Co72 O83 2.039 . S
Co72 N86 2.140 1_545 S
C73 O74 1.227 . S
C73 O83 1.265 . S
O74 C73 1.227 . S
N75 Co72 2.121 . S
N75 C77 1.375 . S
N75 C78 1.313 . S
C76 C77 1.338 . S
C76 N79 1.377 . S
C76 H96 0.930 . S
C77 N75 1.375 . S
C77 C76 1.338 . S
C77 H81 0.931 . S
C78 N75 1.313 . S
C78 N79 1.344 . S
C78 H82 0.930 . S
N79 C76 1.377 . S
N79 C78 1.344 . S
O80 Co72 2.055 . S
O80 C84 1.253 . S
H81 C77 0.931 . S
H82 C78 0.930 . S
O83 Co72 2.039 . S
O83 C73 1.265 . S
C84 O80 1.253 . S
C84 O85 1.227 1_545 S
O85 C84 1.227 1_565 S
N86 Co72 2.140 1_565 S
N86 C89 1.346 . S
N86 C90 1.345 . S
C87 C88 1.387 . S
C87 C91 1.391 . S
C88 C87 1.387 . S
C88 C89 1.369 . S
C88 H97 0.929 . S
C89 N86 1.346 . S
C89 C88 1.369 . S
C89 H92 0.928 . S
C90 N86 1.345 . S
C90 C91 1.371 . S
C90 H93 0.931 . S
C91 C87 1.391 . S
C91 C90 1.371 . S
C91 H98 0.930 . S
H92 C89 0.928 . S
H93 C90 0.931 . S
H94 C70 0.930 . S
H95 C67 0.930 . S
H96 C76 0.930 . S
H97 C88 0.929 . S
H98 C91 0.930 . S
C99 C100 1.351 . S
C99 N102 1.368 1_455 S
C99 H104 0.931 . S
C100 C99 1.351 . S
C100 N101 1.373 1_455 S
C100 H128 0.930 . S
N101 C100 1.373 1_655 S
N101 C103 1.340 . S
N102 C99 1.368 1_655 S
N102 C103 1.321 . S
N102 Co105 2.135 . S
C103 N101 1.340 . S
C103 N102 1.321 . S
C103 H127 0.930 . S
H104 C99 0.931 . S
Co105 N102 2.135 . S
Co105 N108 2.121 . S
Co105 O113 2.055 . S
Co105 O116 2.039 . S
Co105 N119 2.140 1_655 S
C106 O107 1.227 . S
C106 O116 1.265 . S
O107 C106 1.227 . S
N108 Co105 2.121 . S
N108 C110 1.375 . S
N108 C111 1.313 . S
C109 C110 1.338 . S
C109 N112 1.377 . S
C109 H129 0.930 . S
C110 N108 1.375 . S
C110 C109 1.338 . S
C110 H114 0.931 . S
C111 N108 1.313 . S
C111 N112 1.344 . S
C111 H115 0.930 1_655 S
N112 C109 1.377 . S
N112 C111 1.344 . S
O113 Co105 2.055 . S
O113 C117 1.253 1_655 S
H114 C110 0.931 . S
H115 C111 0.930 1_455 S
O116 Co105 2.039 . S
O116 C106 1.265 . S
C117 O113 1.253 1_455 S
C117 O118 1.227 . S
O118 C117 1.227 . S
N119 Co105 2.140 1_455 S
N119 C122 1.346 . S
N119 C123 1.345 . S
C120 C121 1.387 . S
C120 C124 1.391 . S
C121 C120 1.387 . S
C121 C122 1.369 . S
C121 H130 0.929 . S
C122 N119 1.346 . S
C122 C121 1.369 . S
C122 H125 0.928 . S
C123 N119 1.345 . S
C123 C124 1.371 . S
C123 H126 0.931 . S
C124 C120 1.391 . S
C124 C123 1.371 . S
C124 H131 0.930 . S
H125 C122 0.928 . S
H126 C123 0.931 . S
H127 C103 0.930 . S
H128 C100 0.930 . S
H129 C109 0.930 . S
H130 C121 0.929 . S
H131 C124 0.930 . S
C132 C133 1.351 . S
C132 N135 1.368 1_565 S
C132 H137 0.931 . S
C133 C132 1.351 . S
C133 N134 1.373 1_565 S
C133 H161 0.930 . S
N134 C133 1.373 1_545 S
N134 C136 1.340 . S
N135 C132 1.368 1_545 S
N135 C136 1.321 . S
N135 Co138 2.135 . S
C136 N134 1.340 . S
C136 N135 1.321 . S
C136 H160 0.930 . S
H137 C132 0.931 . S
Co138 N135 2.135 . S
Co138 N141 2.121 . S
Co138 O146 2.055 . S
Co138 O149 2.039 . S
Co138 N152 2.140 1_545 S
C139 O140 1.227 . S
C139 O149 1.265 . S
O140 C139 1.227 . S
N141 Co138 2.121 . S
N141 C143 1.375 . S
N141 C144 1.313 . S
C142 C143 1.338 . S
C142 N145 1.377 . S
C142 H162 0.930 . S
C143 N141 1.375 . S
C143 C142 1.338 . S
C143 H147 0.931 . S
C144 N141 1.313 . S
C144 N145 1.344 . S
C144 H148 0.930 . S
N145 C142 1.377 . S
N145 C144 1.344 . S
O146 Co138 2.055 . S
O146 C150 1.253 . S
H147 C143 0.931 . S
H148 C144 0.930 . S
O149 Co138 2.039 . S
O149 C139 1.265 . S
C150 O146 1.253 . S
C150 O151 1.227 1_545 S
O151 C150 1.227 1_565 S
N152 Co138 2.140 1_565 S
N152 C155 1.346 . S
N152 C156 1.345 . S
C153 C154 1.387 . S
C153 C157 1.391 . S
C154 C153 1.387 . S
C154 C155 1.369 . S
C154 H163 0.929 . S
C155 N152 1.346 . S
C155 C154 1.369 . S
C155 H158 0.928 . S
C156 N152 1.345 . S
C156 C157 1.371 . S
C156 H159 0.931 . S
C157 C153 1.391 . S
C157 C156 1.371 . S
C157 H164 0.930 . S
H158 C155 0.928 . S
H159 C156 0.931 . S
H160 C136 0.930 . S
H161 C133 0.930 . S
H162 C142 0.930 . S
H163 C154 0.929 . S
H164 C157 0.930 . S
C165 C166 1.351 . S
C165 N168 1.368 1_455 S
C165 H170 0.931 . S
C166 C165 1.351 . S
C166 N167 1.373 1_455 S
C166 H194 0.930 . S
N167 C166 1.373 1_655 S
N167 C169 1.340 . S
N168 C165 1.368 1_655 S
N168 C169 1.321 . S
N168 Co171 2.135 . S
C169 N167 1.340 . S
C169 N168 1.321 . S
C169 H193 0.930 . S
H170 C165 0.931 . S
Co171 N168 2.135 . S
Co171 N174 2.121 . S
Co171 O179 2.055 . S
Co171 O182 2.039 . S
Co171 N185 2.140 1_655 S
C172 O173 1.227 . S
C172 O182 1.265 . S
O173 C172 1.227 . S
N174 Co171 2.121 . S
N174 C176 1.375 . S
N174 C177 1.313 . S
C175 C176 1.338 . S
C175 N178 1.377 . S
C175 H195 0.930 . S
C176 N174 1.375 . S
C176 C175 1.338 . S
C176 H180 0.931 . S
C177 N174 1.313 . S
C177 N178 1.344 . S
C177 H181 0.930 1_655 S
N178 C175 1.377 . S
N178 C177 1.344 . S
O179 Co171 2.055 . S
O179 C183 1.253 1_655 S
H180 C176 0.931 . S
H181 C177 0.930 1_455 S
O182 Co171 2.039 . S
O182 C172 1.265 . S
C183 O179 1.253 1_455 S
C183 O184 1.227 . S
O184 C183 1.227 . S
N185 Co171 2.140 1_455 S
N185 C188 1.346 . S
N185 C189 1.345 . S
C186 C187 1.387 . S
C186 C190 1.391 . S
C187 C186 1.387 . S
C187 C188 1.369 . S
C187 H196 0.929 . S
C188 N185 1.346 . S
C188 C187 1.369 . S
C188 H191 0.928 . S
C189 N185 1.345 . S
C189 C190 1.371 . S
C189 H192 0.931 . S
C190 C186 1.391 . S
C190 C189 1.371 . S
C190 H197 0.930 . S
H191 C188 0.928 . S
H192 C189 0.931 . S
H193 C169 0.930 . S
H194 C166 0.930 . S
H195 C175 0.930 . S
H196 C187 0.929 . S
H197 C190 0.930 . S
C198 C199 1.351 . S
C198 N201 1.368 1_545 S
C198 H203 0.931 . S
C199 C198 1.351 . S
C199 N200 1.373 1_545 S
C199 H227 0.930 . S
N200 C199 1.373 1_565 S
N200 C202 1.340 . S
N201 C198 1.368 1_565 S
N201 C202 1.321 . S
N201 Co204 2.135 . S
C202 N200 1.340 . S
C202 N201 1.321 . S
C202 H226 0.930 . S
H203 C198 0.931 . S
Co204 N201 2.135 . S
Co204 N207 2.121 . S
Co204 O212 2.055 . S
Co204 O215 2.039 . S
Co204 N218 2.140 1_565 S
C205 O206 1.227 . S
C205 O215 1.265 . S
O206 C205 1.227 . S
N207 Co204 2.121 . S
N207 C209 1.375 . S
N207 C210 1.313 . S
C208 C209 1.338 . S
C208 N211 1.377 . S
C208 H228 0.930 . S
C209 N207 1.375 . S
C209 C208 1.338 . S
C209 H213 0.931 . S
C210 N207 1.313 . S
C210 N211 1.344 . S
C210 H214 0.930 1_565 S
N211 C208 1.377 . S
N211 C210 1.344 . S
O212 Co204 2.055 . S
O212 C216 1.253 1_565 S
H213 C209 0.931 . S
H214 C210 0.930 1_545 S
O215 Co204 2.039 . S
O215 C205 1.265 . S
C216 O212 1.253 1_545 S
C216 O217 1.227 . S
O217 C216 1.227 . S
N218 Co204 2.140 1_545 S
N218 C221 1.346 . S
N218 C222 1.345 . S
C219 C220 1.387 . S
C219 C223 1.391 . S
C220 C219 1.387 . S
C220 C221 1.369 . S
C220 H229 0.929 . S
C221 N218 1.346 . S
C221 C220 1.369 . S
C221 H224 0.928 . S
C222 N218 1.345 . S
C222 C223 1.371 . S
C222 H225 0.931 . S
C223 C219 1.391 . S
C223 C222 1.371 . S
C223 H230 0.930 . S
H224 C221 0.928 . S
H225 C222 0.931 . S
H226 C202 0.930 . S
H227 C199 0.930 . S
H228 C208 0.930 . S
H229 C220 0.929 . S
H230 C223 0.930 . S
C231 C232 1.351 . S
C231 N234 1.368 1_655 S
C231 H236 0.931 . S
C232 C231 1.351 . S
C232 N233 1.373 1_655 S
C232 H260 0.930 . S
N233 C232 1.373 1_455 S
N233 C235 1.340 . S
N234 C231 1.368 1_455 S
N234 C235 1.321 . S
N234 Co237 2.135 . S
C235 N233 1.340 . S
C235 N234 1.321 . S
C235 H259 0.930 . S
H236 C231 0.931 . S
Co237 N234 2.135 . S
Co237 N240 2.121 . S
Co237 O245 2.055 . S
Co237 O248 2.039 . S
Co237 N251 2.140 1_455 S
C238 O239 1.227 . S
C238 O248 1.265 . S
O239 C238 1.227 . S
N240 Co237 2.121 . S
N240 C242 1.375 . S
N240 C243 1.313 . S
C241 C242 1.338 . S
C241 N244 1.377 . S
C241 H261 0.930 . S
C242 N240 1.375 . S
C242 C241 1.338 . S
C242 H246 0.931 . S
C243 N240 1.313 . S
C243 N244 1.344 . S
C243 H247 0.930 . S
N244 C241 1.377 . S
N244 C243 1.344 . S
O245 Co237 2.055 . S
O245 C249 1.253 . S
H246 C242 0.931 . S
H247 C243 0.930 . S
O248 Co237 2.039 . S
O248 C238 1.265 . S
C249 O245 1.253 . S
C249 O250 1.227 1_455 S
O250 C249 1.227 1_655 S
N251 Co237 2.140 1_655 S
N251 C254 1.346 . S
N251 C255 1.345 . S
C252 C253 1.387 . S
C252 C256 1.391 . S
C253 C252 1.387 . S
C253 C254 1.369 . S
C253 H262 0.929 . S
C254 N251 1.346 . S
C254 C253 1.369 . S
C254 H257 0.928 . S
C255 N251 1.345 . S
C255 C256 1.371 . S
C255 H258 0.931 . S
C256 C252 1.391 . S
C256 C255 1.371 . S
C256 H263 0.930 . S
H257 C254 0.928 . S
H258 C255 0.931 . S
H259 C235 0.930 . S
H260 C232 0.930 . S
H261 C241 0.930 . S
H262 C253 0.929 . S
H263 C256 0.930 . S
H264 C272 0.950 . S
H265 C277 0.950 . S
H266 C274 0.950 . S
H267 C276 0.950 . S
H268 C278 0.950 . S
H269 C280 0.950 . S
H270 C282 0.950 . S
H271 C283 0.950 . S
C272 H264 0.950 . S
C272 C273 1.386 1_565 S
C272 C274 1.391 . S
C273 C272 1.386 1_545 S
C273 C277 1.393 . S
C274 H266 0.950 . S
C274 C272 1.391 . S
C274 C275 1.400 1_565 S
C275 C274 1.400 1_545 S
C275 C276 1.398 . S
C275 C281 1.491 1_554 S
C276 H267 0.950 . S
C276 C275 1.398 . S
C276 C277 1.391 . S
C277 H265 0.950 . S
C277 C273 1.393 . S
C277 C276 1.391 . S
C278 H268 0.950 . S
C278 C279 1.386 . S
C278 C280 1.391 . S
C279 C278 1.386 . S
C279 C283 1.393 1_545 S
C280 H269 0.950 . S
C280 C278 1.391 . S
C280 C281 1.400 . S
C281 C275 1.491 1_556 S
C281 C280 1.400 . S
C281 C282 1.398 1_545 S
C282 H270 0.950 . S
C282 C281 1.398 1_565 S
C282 C283 1.391 . S
C283 H271 0.950 . S
C283 C279 1.393 1_565 S
C283 C282 1.391 . S
H284 C292 0.950 . S
H285 C297 0.950 . S
H286 C294 0.950 . S
H287 C296 0.950 . S
H288 C298 0.950 . S
H289 C300 0.950 . S
H290 C302 0.950 . S
H291 C303 0.950 . S
C292 H284 0.950 . S
C292 C293 1.386 . S
C292 C294 1.391 . S
C293 C292 1.386 . S
C293 C297 1.393 1_455 S
C294 H286 0.950 . S
C294 C292 1.391 . S
C294 C295 1.400 . S
C295 C294 1.400 . S
C295 C296 1.398 1_455 S
C295 C301 1.491 . S
C296 H287 0.950 . S
C296 C295 1.398 1_655 S
C296 C297 1.391 . S
C297 H285 0.950 . S
C297 C293 1.393 1_655 S
C297 C296 1.391 . S
C298 H288 0.950 . S
C298 C299 1.386 1_655 S
C298 C300 1.391 . S
C299 C298 1.386 1_455 S
C299 C303 1.393 . S
C300 H289 0.950 . S
C300 C298 1.391 . S
C300 C301 1.400 1_655 S
C301 C295 1.491 . S
C301 C300 1.400 1_455 S
C301 C302 1.398 . S
C302 H290 0.950 . S
C302 C301 1.398 . S
C302 C303 1.391 . S
C303 H291 0.950 . S
C303 C299 1.393 . S
C303 C302 1.391 . S
H304 C312 0.950 . S
H305 C317 0.950 . S
H306 C314 0.950 . S
H307 C316 0.950 . S
H308 C318 0.950 . S
H309 C320 0.950 . S
H310 C322 0.950 . S
H311 C323 0.950 . S
C312 H304 0.950 . S
C312 C313 1.386 . S
C312 C314 1.391 . S
C313 C312 1.386 . S
C313 C317 1.393 1_545 S
C314 H306 0.950 . S
C314 C312 1.391 . S
C314 C315 1.400 . S
C315 C314 1.400 . S
C315 C316 1.398 1_545 S
C315 C321 1.491 1_554 S
C316 H307 0.950 . S
C316 C315 1.398 1_565 S
C316 C317 1.391 . S
C317 H305 0.950 . S
C317 C313 1.393 1_565 S
C317 C316 1.391 . S
C318 H308 0.950 . S
C318 C319 1.386 1_565 S
C318 C320 1.391 . S
C319 C318 1.386 1_545 S
C319 C323 1.393 . S
C320 H309 0.950 . S
C320 C318 1.391 . S
C320 C321 1.400 1_565 S
C321 C315 1.491 1_556 S
C321 C320 1.400 1_545 S
C321 C322 1.398 . S
C322 H310 0.950 . S
C322 C321 1.398 . S
C322 C323 1.391 . S
C323 H311 0.950 . S
C323 C319 1.393 . S
C323 C322 1.391 . S
H324 C332 0.950 . S
H325 C337 0.950 . S
H326 C334 0.950 . S
H327 C336 0.950 . S
H328 C338 0.950 . S
H329 C340 0.950 . S
H330 C342 0.950 . S
H331 C343 0.950 . S
C332 H324 0.950 . S
C332 C333 1.386 . S
C332 C334 1.391 . S
C333 C332 1.386 . S
C333 C337 1.393 . S
C334 H326 0.950 . S
C334 C332 1.391 . S
C334 C335 1.400 . S
C335 C334 1.400 . S
C335 C336 1.398 . S
C335 C341 1.491 . S
C336 H327 0.950 . S
C336 C335 1.398 . S
C336 C337 1.391 . S
C337 H325 0.950 . S
C337 C333 1.393 . S
C337 C336 1.391 . S
C338 H328 0.950 . S
C338 C339 1.386 . S
C338 C340 1.391 . S
C339 C338 1.386 . S
C339 C343 1.393 . S
C340 H329 0.950 . S
C340 C338 1.391 . S
C340 C341 1.400 . S
C341 C335 1.491 . S
C341 C340 1.400 . S
C341 C342 1.398 . S
C342 H330 0.950 . S
C342 C341 1.398 . S
C342 C343 1.391 . S
C343 H331 0.950 . S
C343 C339 1.393 . S
C343 C342 1.391 . S
H344 C352 0.950 . S
H345 C357 0.950 . S
H346 C354 0.950 . S
H347 C356 0.950 . S
H348 C358 0.950 . S
H349 C360 0.950 . S
H350 C362 0.950 . S
H351 C363 0.950 . S
C352 H344 0.950 . S
C352 C353 1.386 . S
C352 C354 1.391 . S
C353 C352 1.386 . S
C353 C357 1.393 . S
C354 H346 0.950 . S
C354 C352 1.391 . S
C354 C355 1.400 . S
C355 C354 1.400 . S
C355 C356 1.398 . S
C355 C361 1.491 . S
C356 H347 0.950 . S
C356 C355 1.398 . S
C356 C357 1.391 . S
C357 H345 0.950 . S
C357 C353 1.393 . S
C357 C356 1.391 . S
C358 H348 0.950 . S
C358 C359 1.386 . S
C358 C360 1.391 . S
C359 C358 1.386 . S
C359 C363 1.393 . S
C360 H349 0.950 . S
C360 C358 1.391 . S
C360 C361 1.400 . S
C361 C355 1.491 . S
C361 C360 1.400 . S
C361 C362 1.398 . S
C362 H350 0.950 . S
C362 C361 1.398 . S
C362 C363 1.391 . S
C363 H351 0.950 . S
C363 C359 1.393 . S
C363 C362 1.391 . S
H364 C372 0.950 . S
H365 C377 0.950 . S
H366 C374 0.950 . S
H367 C376 0.950 . S
H368 C378 0.950 . S
H369 C380 0.950 . S
H370 C382 0.950 . S
H371 C383 0.950 . S
C372 H364 0.950 . S
C372 C373 1.386 . S
C372 C374 1.391 . S
C373 C372 1.386 . S
C373 C377 1.393 . S
C374 H366 0.950 . S
C374 C372 1.391 . S
C374 C375 1.400 . S
C375 C374 1.400 . S
C375 C376 1.398 . S
C375 C381 1.491 . S
C376 H367 0.950 . S
C376 C375 1.398 . S
C376 C377 1.391 . S
C377 H365 0.950 . S
C377 C373 1.393 . S
C377 C376 1.391 . S
C378 H368 0.950 . S
C378 C379 1.386 . S
C378 C380 1.391 . S
C379 C378 1.386 . S
C379 C383 1.393 . S
C380 H369 0.950 . S
C380 C378 1.391 . S
C380 C381 1.400 . S
C381 C375 1.491 . S
C381 C380 1.400 . S
C381 C382 1.398 . S
C382 H370 0.950 . S
C382 C381 1.398 . S
C382 C383 1.391 . S
C383 H371 0.950 . S
C383 C379 1.393 . S
C383 C382 1.391 . S
H384 C392 0.950 . S
H385 C397 0.950 . S
H386 C394 0.950 . S
H387 C396 0.950 . S
H388 C398 0.950 . S
H389 C400 0.950 . S
H390 C402 0.950 . S
H391 C403 0.950 . S
C392 H384 0.950 . S
C392 C393 1.386 . S
C392 C394 1.391 . S
C393 C392 1.386 . S
C393 C397 1.393 . S
C394 H386 0.950 . S
C394 C392 1.391 . S
C394 C395 1.400 . S
C395 C394 1.400 . S
C395 C396 1.398 . S
C395 C401 1.491 . S
C396 H387 0.950 . S
C396 C395 1.398 . S
C396 C397 1.391 . S
C397 H385 0.950 . S
C397 C393 1.393 . S
C397 C396 1.391 . S
C398 H388 0.950 . S
C398 C399 1.386 . S
C398 C400 1.391 . S
C399 C398 1.386 . S
C399 C403 1.393 . S
C400 H389 0.950 . S
C400 C398 1.391 . S
C400 C401 1.400 . S
C401 C395 1.491 . S
C401 C400 1.400 . S
C401 C402 1.398 . S
C402 H390 0.950 . S
C402 C401 1.398 . S
C402 C403 1.391 . S
C403 H391 0.950 . S
C403 C399 1.393 . S
C403 C402 1.391 . S
H404 C412 0.950 . S
H405 C417 0.950 . S
H406 C414 0.950 . S
H407 C416 0.950 . S
H408 C418 0.950 . S
H409 C420 0.950 . S
H410 C422 0.950 . S
H411 C423 0.950 . S
C412 H404 0.950 . S
C412 C413 1.386 . S
C412 C414 1.391 . S
C413 C412 1.386 . S
C413 C417 1.393 . S
C414 H406 0.950 . S
C414 C412 1.391 . S
C414 C415 1.400 . S
C415 C414 1.400 . S
C415 C416 1.398 . S
C415 C421 1.491 . S
C416 H407 0.950 . S
C416 C415 1.398 . S
C416 C417 1.391 . S
C417 H405 0.950 . S
C417 C413 1.393 . S
C417 C416 1.391 . S
C418 H408 0.950 . S
C418 C419 1.386 . S
C418 C420 1.391 . S
C419 C418 1.386 . S
C419 C423 1.393 . S
C420 H409 0.950 . S
C420 C418 1.391 . S
C420 C421 1.400 . S
C421 C415 1.491 . S
C421 C420 1.400 . S
C421 C422 1.398 . S
C422 H410 0.950 . S
C422 C421 1.398 . S
C422 C423 1.391 . S
C423 H411 0.950 . S
C423 C419 1.393 . S
C423 C422 1.391 . S
H424 C432 0.950 . S
H425 C437 0.950 . S
H426 C434 0.950 . S
H427 C436 0.950 . S
H428 C438 0.950 . S
H429 C440 0.950 . S
H430 C442 0.950 . S
H431 C443 0.950 . S
C432 H424 0.950 . S
C432 C433 1.386 . S
C432 C434 1.391 . S
C433 C432 1.386 . S
C433 C437 1.393 . S
C434 H426 0.950 . S
C434 C432 1.391 . S
C434 C435 1.400 . S
C435 C434 1.400 . S
C435 C436 1.398 . S
C435 C441 1.491 . S
C436 H427 0.950 . S
C436 C435 1.398 . S
C436 C437 1.391 . S
C437 H425 0.950 . S
C437 C433 1.393 . S
C437 C436 1.391 . S
C438 H428 0.950 . S
C438 C439 1.386 . S
C438 C440 1.391 . S
C439 C438 1.386 . S
C439 C443 1.393 . S
C440 H429 0.950 . S
C440 C438 1.391 . S
C440 C441 1.400 . S
C441 C435 1.491 . S
C441 C440 1.400 . S
C441 C442 1.398 . S
C442 H430 0.950 . S
C442 C441 1.398 . S
C442 C443 1.391 . S
C443 H431 0.950 . S
C443 C439 1.393 . S
C443 C442 1.391 . S
H444 C452 0.950 . S
H445 C457 0.950 . S
H446 C454 0.950 . S
H447 C456 0.950 . S
H448 C458 0.950 . S
H449 C460 0.950 . S
H450 C462 0.950 . S
H451 C463 0.950 . S
C452 H444 0.950 . S
C452 C453 1.386 . S
C452 C454 1.391 . S
C453 C452 1.386 . S
C453 C457 1.393 . S
C454 H446 0.950 . S
C454 C452 1.391 . S
C454 C455 1.400 . S
C455 C454 1.400 . S
C455 C456 1.398 . S
C455 C461 1.491 . S
C456 H447 0.950 . S
C456 C455 1.398 . S
C456 C457 1.391 . S
C457 H445 0.950 . S
C457 C453 1.393 . S
C457 C456 1.391 . S
C458 H448 0.950 . S
C458 C459 1.386 . S
C458 C460 1.391 . S
C459 C458 1.386 . S
C459 C463 1.393 . S
C460 H449 0.950 . S
C460 C458 1.391 . S
C460 C461 1.400 . S
C461 C455 1.491 . S
C461 C460 1.400 . S
C461 C462 1.398 . S
C462 H450 0.950 . S
C462 C461 1.398 . S
C462 C463 1.391 . S
C463 H451 0.950 . S
C463 C459 1.393 . S
C463 C462 1.391 . S
H464 C472 0.950 . S
H465 C477 0.950 . S
H466 C474 0.950 . S
H467 C476 0.950 . S
H468 C478 0.950 . S
H469 C480 0.950 . S
H470 C482 0.950 . S
H471 C483 0.950 . S
C472 H464 0.950 . S
C472 C473 1.386 . S
C472 C474 1.391 . S
C473 C472 1.386 . S
C473 C477 1.393 . S
C474 H466 0.950 . S
C474 C472 1.391 . S
C474 C475 1.400 . S
C475 C474 1.400 . S
C475 C476 1.398 . S
C475 C481 1.491 . S
C476 H467 0.950 . S
C476 C475 1.398 . S
C476 C477 1.391 . S
C477 H465 0.950 . S
C477 C473 1.393 . S
C477 C476 1.391 . S
C478 H468 0.950 . S
C478 C479 1.386 . S
C478 C480 1.391 . S
C479 C478 1.386 . S
C479 C483 1.393 . S
C480 H469 0.950 . S
C480 C478 1.391 . S
C480 C481 1.400 . S
C481 C475 1.491 . S
C481 C480 1.400 . S
C481 C482 1.398 . S
C482 H470 0.950 . S
C482 C481 1.398 . S
C482 C483 1.391 . S
C483 H471 0.950 . S
C483 C479 1.393 . S
C483 C482 1.391 . S
H484 C492 0.950 . S
H485 C497 0.950 . S
H486 C494 0.950 . S
H487 C496 0.950 . S
H488 C498 0.950 . S
H489 C500 0.950 . S
H490 C502 0.950 . S
H491 C503 0.950 . S
C492 H484 0.950 . S
C492 C493 1.386 . S
C492 C494 1.391 . S
C493 C492 1.386 . S
C493 C497 1.393 . S
C494 H486 0.950 . S
C494 C492 1.391 . S
C494 C495 1.400 . S
C495 C494 1.400 . S
C495 C496 1.398 . S
C495 C501 1.491 . S
C496 H487 0.950 . S
C496 C495 1.398 . S
C496 C497 1.391 . S
C497 H485 0.950 . S
C497 C493 1.393 . S
C497 C496 1.391 . S
C498 H488 0.950 . S
C498 C499 1.386 . S
C498 C500 1.391 . S
C499 C498 1.386 . S
C499 C503 1.393 . S
C500 H489 0.950 . S
C500 C498 1.391 . S
C500 C501 1.400 . S
C501 C495 1.491 . S
C501 C500 1.400 . S
C501 C502 1.398 . S
C502 H490 0.950 . S
C502 C501 1.398 . S
C502 C503 1.391 . S
C503 H491 0.950 . S
C503 C499 1.393 . S
C503 C502 1.391 . S
H504 C512 0.950 . S
H505 C517 0.950 . S
H506 C514 0.950 . S
H507 C516 0.950 . S
H508 C518 0.950 . S
H509 C520 0.950 . S
H510 C522 0.950 . S
H511 C523 0.950 . S
C512 H504 0.950 . S
C512 C513 1.386 1_545 S
C512 C514 1.391 . S
C513 C512 1.386 1_565 S
C513 C517 1.393 . S
C514 H506 0.950 . S
C514 C512 1.391 . S
C514 C515 1.400 . S
C515 C514 1.400 . S
C515 C516 1.398 1_545 S
C515 C521 1.491 1_455 S
C516 H507 0.950 . S
C516 C515 1.398 1_565 S
C516 C517 1.391 . S
C517 H505 0.950 . S
C517 C513 1.393 . S
C517 C516 1.391 . S
C518 H508 0.950 . S
C518 C519 1.386 1_565 S
C518 C520 1.391 . S
C519 C518 1.386 1_545 S
C519 C523 1.393 . S
C520 H509 0.950 . S
C520 C518 1.391 . S
C520 C521 1.400 1_565 S
C521 C515 1.491 1_655 S
C521 C520 1.400 1_545 S
C521 C522 1.398 . S
C522 H510 0.950 . S
C522 C521 1.398 . S
C522 C523 1.391 . S
C523 H511 0.950 . S
C523 C519 1.393 . S
C523 C522 1.391 . S
H524 C532 0.950 . S
H525 C537 0.950 . S
H526 C534 0.950 . S
H527 C536 0.950 1_655 S
H528 C538 0.950 . S
H529 C540 0.950 . S
H530 C542 0.950 . S
H531 C543 0.950 . S
C532 H524 0.950 . S
C532 C533 1.386 . S
C532 C534 1.391 . S
C533 C532 1.386 . S
C533 C537 1.393 . S
C534 H526 0.950 . S
C534 C532 1.391 . S
C534 C535 1.400 . S
C535 C534 1.400 . S
C535 C536 1.398 . S
C535 C541 1.491 1_545 S
C536 H527 0.950 1_455 S
C536 C535 1.398 . S
C536 C537 1.391 . S
C537 H525 0.950 . S
C537 C533 1.393 . S
C537 C536 1.391 . S
C538 H528 0.950 . S
C538 C539 1.386 . S
C538 C540 1.391 . S
C539 C538 1.386 . S
C539 C543 1.393 1_655 S
C540 H529 0.950 . S
C540 C538 1.391 . S
C540 C541 1.400 1_655 S
C541 C535 1.491 1_565 S
C541 C540 1.400 1_455 S
C541 C542 1.398 . S
C542 H530 0.950 . S
C542 C541 1.398 . S
C542 C543 1.391 . S
C543 H531 0.950 . S
C543 C539 1.393 1_455 S
C543 C542 1.391 . S
H544 C552 0.950 . S
H545 C557 0.950 . S
H546 C554 0.950 . S
H547 C556 0.950 . S
H548 C558 0.950 . S
H549 C560 0.950 . S
H550 C562 0.950 . S
H551 C563 0.950 . S
C552 H544 0.950 . S
C552 C553 1.386 1_545 S
C552 C554 1.391 . S
C553 C552 1.386 1_565 S
C553 C557 1.393 . S
C554 H546 0.950 . S
C554 C552 1.391 . S
C554 C555 1.400 . S
C555 C554 1.400 . S
C555 C556 1.398 1_545 S
C555 C561 1.491 1_655 S
C556 H547 0.950 . S
C556 C555 1.398 1_565 S
C556 C557 1.391 . S
C557 H545 0.950 . S
C557 C553 1.393 . S
C557 C556 1.391 . S
C558 H548 0.950 . S
C558 C559 1.386 1_565 S
C558 C560 1.391 . S
C559 C558 1.386 1_545 S
C559 C563 1.393 . S
C560 H549 0.950 . S
C560 C558 1.391 . S
C560 C561 1.400 1_565 S
C561 C555 1.491 1_455 S
C561 C560 1.400 1_545 S
C561 C562 1.398 . S
C562 H550 0.950 . S
C562 C561 1.398 . S
C562 C563 1.391 . S
C563 H551 0.950 . S
C563 C559 1.393 . S
C563 C562 1.391 . S
H564 C572 0.950 . S
H565 C577 0.950 . S
H566 C574 0.950 . S
H567 C576 0.950 . S
H568 C578 0.950 . S
H569 C580 0.950 . S
H570 C582 0.950 . S
H571 C583 0.950 . S
C572 H564 0.950 . S
C572 C573 1.386 . S
C572 C574 1.391 . S
C573 C572 1.386 . S
C573 C577 1.393 1_455 S
C574 H566 0.950 . S
C574 C572 1.391 . S
C574 C575 1.400 . S
C575 C574 1.400 . S
C575 C576 1.398 1_455 S
C575 C581 1.491 1_565 S
C576 H567 0.950 . S
C576 C575 1.398 1_655 S
C576 C577 1.391 . S
C577 H565 0.950 . S
C577 C573 1.393 1_655 S
C577 C576 1.391 . S
C578 H568 0.950 . S
C578 C579 1.386 . S
C578 C580 1.391 . S
C579 C578 1.386 . S
C579 C583 1.393 1_655 S
C580 H569 0.950 . S
C580 C578 1.391 . S
C580 C581 1.400 1_655 S
C581 C575 1.491 1_545 S
C581 C580 1.400 1_455 S
C581 C582 1.398 . S
C582 H570 0.950 . S
C582 C581 1.398 . S
C582 C583 1.391 . S
C583 H571 0.950 . S
C583 C579 1.393 1_455 S
C583 C582 1.391 . S
H584 C592 0.950 . S
H585 C597 0.950 . S
H586 C594 0.951 . S
H587 C596 0.950 . S
H588 C598 0.950 . S
H589 C600 0.950 . S
H590 C602 0.950 . S
H591 C603 0.950 . S
C592 H584 0.950 . S
C592 C593 1.386 . S
C592 C594 1.391 1_565 S
C593 C592 1.386 . S
C593 C597 1.391 1_565 S
C594 H586 0.951 . S
C594 C592 1.391 1_545 S
C594 C595 1.400 . S
C595 C594 1.400 . S
C595 C596 1.398 . S
C595 C601 1.491 . S
C596 H587 0.950 . S
C596 C595 1.398 . S
C596 C597 1.391 . S
C597 H585 0.950 . S
C597 C593 1.391 1_545 S
C597 C596 1.391 . S
C598 H588 0.950 . S
C598 C599 1.386 . S
C598 C600 1.391 . S
C599 C598 1.386 . S
C599 C603 1.393 . S
C600 H589 0.950 . S
C600 C598 1.391 . S
C600 C601 1.400 . S
C601 C595 1.491 . S
C601 C600 1.400 . S
C601 C602 1.398 . S
C602 H590 0.950 . S
C602 C601 1.398 . S
C602 C603 1.391 . S
C603 H591 0.950 . S
C603 C599 1.393 . S
C603 C602 1.391 . S
H604 C612 0.950 . S
H605 C617 0.950 . S
H606 C614 0.950 . S
H607 C616 0.950 . S
H608 C618 0.950 . S
H609 C620 0.950 . S
H610 C622 0.950 . S
H611 C623 0.950 . S
C612 H604 0.950 . S
C612 C613 1.367 1_455 S
C612 C614 1.391 . S
C613 C612 1.367 1_655 S
C613 C617 1.409 . S
C614 H606 0.950 . S
C614 C612 1.391 . S
C614 C615 1.400 . S
C615 C614 1.400 . S
C615 C616 1.398 1_455 S
C615 C621 1.491 . S
C616 H607 0.950 . S
C616 C615 1.398 1_655 S
C616 C617 1.391 . S
C617 H605 0.950 . S
C617 C613 1.409 . S
C617 C616 1.391 . S
C618 H608 0.950 . S
C618 C619 1.386 1_655 S
C618 C620 1.391 . S
C619 C618 1.386 1_455 S
C619 C623 1.393 . S
C620 H609 0.950 . S
C620 C618 1.391 . S
C620 C621 1.400 1_655 S
C621 C615 1.491 . S
C621 C620 1.400 1_455 S
C621 C622 1.398 . S
C622 H610 0.950 . S
C622 C621 1.398 . S
C622 C623 1.391 . S
C623 H611 0.950 . S
C623 C619 1.393 . S
C623 C622 1.391 . S
H624 C632 0.950 . S
H625 C637 0.950 . S
H626 C634 0.950 . S
H627 C636 0.950 . S
H628 C638 0.950 . S
H629 C640 0.950 . S
H630 C642 0.950 . S
H631 C643 0.950 . S
C632 H624 0.950 . S
C632 C633 1.386 . S
C632 C634 1.391 . S
C633 C632 1.386 . S
C633 C637 1.393 1_545 S
C634 H626 0.950 . S
C634 C632 1.391 . S
C634 C635 1.400 . S
C635 C634 1.400 . S
C635 C636 1.398 1_545 S
C635 C641 1.491 . S
C636 H627 0.950 . S
C636 C635 1.398 1_565 S
C636 C637 1.391 . S
C637 H625 0.950 . S
C637 C633 1.393 1_565 S
C637 C636 1.391 . S
C638 H628 0.950 . S
C638 C639 1.391 . S
C638 C640 1.391 . S
C639 C638 1.391 . S
C639 C643 1.387 1_565 S
C640 H629 0.950 . S
C640 C638 1.391 . S
C640 C641 1.400 1_565 S
C641 C635 1.491 . S
C641 C640 1.400 1_545 S
C641 C642 1.398 . S
C642 H630 0.950 . S
C642 C641 1.398 . S
C642 C643 1.391 . S
C643 H631 0.950 . S
C643 C639 1.387 1_545 S
C643 C642 1.391 . S
H644 C652 0.950 . S
H645 C657 0.950 . S
H646 C654 0.950 . S
H647 C656 0.950 . S
H648 C658 0.950 . S
H649 C660 0.950 . S
H650 C662 0.950 . S
H651 C663 0.950 . S
C652 H644 0.950 . S
C652 C653 1.386 1_455 S
C652 C654 1.391 . S
C653 C652 1.386 1_655 S
C653 C657 1.393 . S
C654 H646 0.950 . S
C654 C652 1.391 . S
C654 C655 1.400 . S
C655 C654 1.400 . S
C655 C656 1.398 1_455 S
C655 C661 1.491 . S
C656 H647 0.950 . S
C656 C655 1.398 1_655 S
C656 C657 1.391 . S
C657 H645 0.950 . S
C657 C653 1.393 . S
C657 C656 1.391 . S
C658 H648 0.950 . S
C658 C659 1.386 1_655 S
C658 C660 1.391 . S
C659 C658 1.386 1_455 S
C659 C663 1.393 . S
C660 H649 0.950 . S
C660 C658 1.391 . S
C660 C661 1.400 1_655 S
C661 C655 1.491 . S
C661 C660 1.400 1_455 S
C661 C662 1.398 . S
C662 H650 0.950 . S
C662 C661 1.398 . S
C662 C663 1.391 . S
C663 H651 0.950 . S
C663 C659 1.393 . S
C663 C662 1.391 . S
C273 C18 1.697 . S
C279 C150 1.700 . S
C293 C183 1.702 . S
C299 C51 1.693 . S
C313 C84 1.696 . S
C319 C216 1.700 . S
C333 C249 1.699 . S
C339 C117 1.698 . S
C353 C186 0.458 . S
C359 C21 0.370 . S
C373 C219 0.387 . S
C379 C54 0.433 . S
C393 C87 0.443 . S
C399 C252 0.376 . S
C413 C153 0.451 . S
C419 C120 0.369 . S
C433 C106 1.153 . S
C439 C205 1.155 . S
C453 C7 1.169 . S
C459 C238 1.141 . S
C473 C40 1.169 . S
C479 C139 1.140 . S
C493 C73 1.149 . S
C499 C172 1.162 . S
C513 N2 0.616 . S
C519 N68 0.643 . S
C533 N35 0.624 . S
C539 N101 0.623 . S
C553 N200 0.634 . S
C559 N134 0.665 . S
C573 N233 0.650 . S
C579 N167 0.617 . S
C593 N13 1.105 . S
C599 N79 1.104 . S
C613 N112 1.099 . S
C619 N46 1.110 . S
C633 N145 1.106 . S
C639 N211 1.102 . S
C653 N178 1.090 . S
C659 N244 1.108 . S
