# Generated by pormake.
# Topology ske, (6)-cn, num edge types: 1
# Building blocks:
#     Node 0, Type 0, BuildingBlock: BETDIP_clean_sbu_0, # of connection points: 6
#     Node 1, Type 0, BuildingBlock: BETDIP_clean_sbu_0, # of connection points: 6
#     Node 2, Type 0, BuildingBlock: BETDIP_clean_sbu_0, # of connection points: 6
#     Node 3, Type 0, BuildingBlock: BETDIP_clean_sbu_0, # of connection points: 6
#     Node 4, Type 0, BuildingBlock: BETDIP_clean_sbu_0, # of connection points: 6
#     Node 5, Type 0, BuildingBlock: BETDIP_clean_sbu_0, # of connection points: 6
#     Node 6, Type 0, BuildingBlock: BETDIP_clean_sbu_0, # of connection points: 6
#     Node 7, Type 0, BuildingBlock: BETDIP_clean_sbu_0, # of connection points: 6
#     Edge 8, Type (0, 0), BuildingBlock: EYOCIG_clean_linker_4, # of connection points: 2
#     Edge 9, Type (0, 0), BuildingBlock: EYOCIG_clean_linker_4, # of connection points: 2
#     Edge 10, Type (0, 0), BuildingBlock: EYOCIG_clean_linker_4, # of connection points: 2
#     Edge 11, Type (0, 0), BuildingBlock: EYOCIG_clean_linker_4, # of connection points: 2
#     Edge 12, Type (0, 0), BuildingBlock: EYOCIG_clean_linker_4, # of connection points: 2
#     Edge 13, Type (0, 0), BuildingBlock: EYOCIG_clean_linker_4, # of connection points: 2
#     Edge 14, Type (0, 0), BuildingBlock: EYOCIG_clean_linker_4, # of connection points: 2
#     Edge 15, Type (0, 0), BuildingBlock: EYOCIG_clean_linker_4, # of connection points: 2
#     Edge 16, Type (0, 0), BuildingBlock: EYOCIG_clean_linker_4, # of connection points: 2
#     Edge 17, Type (0, 0), BuildingBlock: EYOCIG_clean_linker_4, # of connection points: 2
#     Edge 18, Type (0, 0), BuildingBlock: EYOCIG_clean_linker_4, # of connection points: 2
#     Edge 19, Type (0, 0), BuildingBlock: EYOCIG_clean_linker_4, # of connection points: 2
#     Edge 20, Type (0, 0), BuildingBlock: EYOCIG_clean_linker_4, # of connection points: 2
#     Edge 21, Type (0, 0), BuildingBlock: EYOCIG_clean_linker_4, # of connection points: 2
#     Edge 22, Type (0, 0), BuildingBlock: EYOCIG_clean_linker_4, # of connection points: 2
#     Edge 23, Type (0, 0), BuildingBlock: EYOCIG_clean_linker_4, # of connection points: 2
#     Edge 24, Type (0, 0), BuildingBlock: EYOCIG_clean_linker_4, # of connection points: 2
#     Edge 25, Type (0, 0), BuildingBlock: EYOCIG_clean_linker_4, # of connection points: 2
#     Edge 26, Type (0, 0), BuildingBlock: EYOCIG_clean_linker_4, # of connection points: 2
#     Edge 27, Type (0, 0), BuildingBlock: EYOCIG_clean_linker_4, # of connection points: 2
#     Edge 28, Type (0, 0), BuildingBlock: EYOCIG_clean_linker_4, # of connection points: 2
#     Edge 29, Type (0, 0), BuildingBlock: EYOCIG_clean_linker_4, # of connection points: 2
#     Edge 30, Type (0, 0), BuildingBlock: EYOCIG_clean_linker_4, # of connection points: 2
#     Edge 31, Type (0, 0), BuildingBlock: EYOCIG_clean_linker_4, # of connection points: 2
# Relax obj value: 0.221
# Max RMSD: 0.218
# Mean RMSD: 0.212
data_MOF--net-ske--node1-BETDIP_clean_sbu_0--edge1-EYOCIG_clean_linker_4
_symmetry_space_group_name_H-M    P1
_symmetry_Int_Tables_number       1
_symmetry_cell_setting            triclinic
loop_
_symmetry_equiv_pos_as_xyz
'x, y, z'
_cell_length_a     87.397228
_cell_length_b     22.414575
_cell_length_c     12.218914
_cell_angle_alpha  89.988791
_cell_angle_beta   90.012236
_cell_angle_gamma 90.001525
loop_
_atom_site_label
_atom_site_type_symbol
_atom_site_fract_x
_atom_site_fract_y
_atom_site_fract_z
_atom_type_partial_charge
Tb0 Tb 0.17973 0.26599 0.46515 0.0
Tb1 Tb 0.14588 0.26856 0.46386 0.0
C2 C 0.20769 0.28947 0.49013 0.0
C3 C 0.22102 0.28657 0.56444 0.0
C4 C 0.22657 0.33945 0.61207 0.0
C5 C 0.24104 0.34088 0.66073 0.0
C6 C 0.25014 0.28952 0.66205 0.0
C7 C 0.24433 0.23579 0.62107 0.0
C8 C 0.22986 0.23424 0.57241 0.0
C9 C 0.16685 0.1583 0.46099 0.0
C10 C 0.16163 0.26659 0.69105 0.0
C11 C 0.11774 0.24955 0.43511 0.0
C12 C 0.10448 0.25771 0.36064 0.0
C13 C 0.09756 0.20715 0.31387 0.0
C14 C 0.08271 0.21037 0.27125 0.0
C15 C 0.07459 0.2642 0.27477 0.0
C16 C 0.08192 0.31601 0.31173 0.0
C17 C 0.09679 0.31289 0.35426 0.0
C18 C 0.15882 0.37387 0.48354 0.0
C19 C 0.16408 0.2689 0.23797 0.0
O20 O 0.19668 0.32685 0.51382 0.0
O21 O 0.20258 0.23969 0.44795 0.0
O22 O 0.16224 0.20305 0.51366 0.0
O23 O 0.17952 0.17248 0.41311 0.0
O24 O 0.17459 0.27826 0.63964 0.0
O25 O 0.14909 0.25116 0.63765 0.0
O26 O 0.12841 0.21112 0.40847 0.0
O27 O 0.12327 0.29681 0.48365 0.0
O28 O 0.16338 0.33225 0.42223 0.0
O29 O 0.14595 0.35934 0.52752 0.0
O30 O 0.15107 0.25831 0.28917 0.0
O31 O 0.17677 0.28156 0.29114 0.0
H32 H 0.22011 0.38057 0.60613 0.0
H33 H 0.2454 0.38273 0.69237 0.0
H34 H 0.25127 0.19571 0.6219 0.0
H35 H 0.226 0.19288 0.53587 0.0
H36 H 0.10315 0.16407 0.31783 0.0
H37 H 0.07721 0.16992 0.24276 0.0
H38 H 0.07581 0.35804 0.31473 0.0
H39 H 0.10176 0.35284 0.38925 0.0
Tb40 Tb 0.89324 0.26344 0.46516 0.0
Tb41 Tb 0.9271 0.26076 0.4638 0.0
C42 C 0.86528 0.24012 0.49038 0.0
C43 C 0.852 0.24288 0.56523 0.0
C44 C 0.84654 0.18997 0.61328 0.0
C45 C 0.8321 0.1884 0.66246 0.0
C46 C 0.82296 0.23964 0.66388 0.0
C47 C 0.8287 0.29341 0.62253 0.0
C48 C 0.84313 0.2951 0.57337 0.0
C49 C 0.90615 0.37104 0.46109 0.0
C50 C 0.91135 0.26258 0.69102 0.0
C51 C 0.95523 0.27994 0.43509 0.0
C52 C 0.96849 0.27199 0.36066 0.0
C53 C 0.97537 0.32266 0.31395 0.0
C54 C 0.99022 0.31964 0.27136 0.0
C55 C 0.99839 0.26591 0.27486 0.0
C56 C 0.9911 0.214 0.31178 0.0
C57 C 0.97623 0.21691 0.35428 0.0
C58 C 0.91414 0.15548 0.48322 0.0
C59 C 0.90887 0.2606 0.23792 0.0
O60 O 0.87628 0.20251 0.51319 0.0
O61 O 0.87039 0.29003 0.44875 0.0
O62 O 0.91076 0.32625 0.51373 0.0
O63 O 0.89348 0.35697 0.41316 0.0
O64 O 0.89839 0.25098 0.6396 0.0
O65 O 0.9239 0.27798 0.63765 0.0
O66 O 0.94454 0.31835 0.40858 0.0
O67 O 0.94972 0.23257 0.48342 0.0
O68 O 0.90958 0.19718 0.42208 0.0
O69 O 0.92703 0.1699 0.52715 0.0
O70 O 0.92189 0.27103 0.28911 0.0
O71 O 0.89617 0.24807 0.29108 0.0
H72 H 0.85303 0.14892 0.60727 0.0
H73 H 0.8278 0.14652 0.69437 0.0
H74 H 0.82173 0.33341 0.62343 0.0
H75 H 0.84693 0.33648 0.53653 0.0
H76 H 0.96975 0.36567 0.31792 0.0
H77 H 0.99569 0.36017 0.24291 0.0
H78 H 0.99725 0.17204 0.31475 0.0
H79 H 0.97129 0.17689 0.38923 0.0
Tb80 Tb 0.17975 0.76292 0.60071 0.0
Tb81 Tb 0.1459 0.76041 0.60213 0.0
C82 C 0.20771 0.73948 0.57555 0.0
C83 C 0.22101 0.74238 0.50094 0.0
C84 C 0.22652 0.68953 0.45301 0.0
C85 C 0.24097 0.68809 0.4041 0.0
C86 C 0.25009 0.73941 0.40282 0.0
C87 C 0.24431 0.79313 0.44403 0.0
C88 C 0.22985 0.79469 0.49294 0.0
C89 C 0.16688 0.87061 0.60453 0.0
C90 C 0.16164 0.76205 0.37487 0.0
C91 C 0.11778 0.77979 0.63103 0.0
C92 C 0.10452 0.77183 0.70555 0.0
C93 C 0.09767 0.82249 0.75247 0.0
C94 C 0.08282 0.81948 0.79518 0.0
C95 C 0.07464 0.7658 0.7916 0.0
C96 C 0.08191 0.71389 0.75448 0.0
C97 C 0.09677 0.71678 0.71185 0.0
C98 C 0.15881 0.65505 0.58279 0.0
C99 C 0.16413 0.76006 0.82797 0.0
O100 O 0.1967 0.70202 0.55216 0.0
O101 O 0.20261 0.78928 0.61765 0.0
O102 O 0.16226 0.82581 0.55203 0.0
O103 O 0.17956 0.85648 0.65244 0.0
O104 O 0.1746 0.75042 0.4263 0.0
O105 O 0.1491 0.77754 0.42823 0.0
O106 O 0.12849 0.81808 0.65761 0.0
O107 O 0.12326 0.73245 0.58247 0.0
O108 O 0.16339 0.69673 0.64385 0.0
O109 O 0.14592 0.66952 0.53896 0.0
O110 O 0.15112 0.77062 0.77681 0.0
O111 O 0.17682 0.74743 0.77477 0.0
H112 H 0.22005 0.64843 0.45893 0.0
H113 H 0.24531 0.64625 0.37227 0.0
H114 H 0.25125 0.83318 0.44324 0.0
H115 H 0.22602 0.83603 0.52968 0.0
H116 H 0.1033 0.86547 0.74858 0.0
H117 H 0.07737 0.86001 0.8238 0.0
H118 H 0.07574 0.67196 0.75143 0.0
H119 H 0.10169 0.67678 0.67675 0.0
Tb120 Tb 0.89334 0.76623 0.60008 0.0
Tb121 Tb 0.92718 0.76904 0.60158 0.0
C122 C 0.86536 0.7893 0.57474 0.0
C123 C 0.85206 0.78617 0.50012 0.0
C124 C 0.8465 0.83893 0.45208 0.0
C125 C 0.83204 0.84014 0.4031 0.0
C126 C 0.82298 0.78869 0.40185 0.0
C127 C 0.82881 0.73507 0.44319 0.0
C128 C 0.84326 0.73373 0.49217 0.0
C129 C 0.90627 0.65866 0.6043 0.0
C130 C 0.91146 0.76712 0.37428 0.0
C131 C 0.95532 0.75004 0.63062 0.0
C132 C 0.96856 0.75811 0.70527 0.0
C133 C 0.97544 0.70751 0.75227 0.0
C134 C 0.99028 0.71063 0.79508 0.0
C135 C 0.99844 0.76438 0.79152 0.0
C136 C 0.99114 0.81623 0.75433 0.0
C137 C 0.97629 0.81322 0.71161 0.0
C138 C 0.91421 0.87427 0.58183 0.0
C139 C 0.90896 0.76933 0.82736 0.0
O140 O 0.87634 0.82687 0.55127 0.0
O141 O 0.8705 0.73959 0.61702 0.0
O142 O 0.91086 0.70345 0.55163 0.0
O143 O 0.8936 0.67274 0.65221 0.0
O144 O 0.89848 0.77865 0.42564 0.0
O145 O 0.924 0.75179 0.42771 0.0
O146 O 0.94465 0.71156 0.65698 0.0
O147 O 0.9498 0.79737 0.58218 0.0
O148 O 0.90965 0.8326 0.64307 0.0
O149 O 0.92709 0.85986 0.538 0.0
O150 O 0.92197 0.75882 0.77625 0.0
O151 O 0.89626 0.78187 0.7741 0.0
H152 H 0.85293 0.88013 0.45795 0.0
H153 H 0.82767 0.88191 0.37118 0.0
H154 H 0.8219 0.69491 0.44242 0.0
H155 H 0.84713 0.69246 0.529 0.0
H156 H 0.96983 0.66447 0.74836 0.0
H157 H 0.99575 0.67014 0.82374 0.0
H158 H 0.99729 0.85821 0.7513 0.0
H159 H 0.97135 0.85319 0.67646 0.0
Tb160 Tb 0.68049 0.76428 1.02881 0.0
Tb161 Tb 0.64625 0.7673 1.02844 0.0
C162 C 0.70836 0.78812 0.05664 0.0
C163 C 0.72122 0.78574 0.13538 0.0
C164 C 0.72651 0.83881 0.18391 0.0
C165 C 0.74071 0.84038 0.23663 0.0
C166 C 0.74979 0.78897 0.24116 0.0
C167 C 0.74414 0.73505 0.19995 0.0
C168 C 0.72995 0.73335 0.14735 0.0
C169 C 0.66734 0.65908 1.01562 0.0
C170 C 0.66222 0.76387 0.25487 0.0
C171 C 0.61806 0.74899 1.00297 0.0
C172 C 0.60457 0.7574 0.93103 0.0
C173 C 0.59753 0.70693 0.885 0.0
C174 C 0.58259 0.71029 0.84435 0.0
C175 C 0.5745 0.76415 0.8492 0.0
C176 C 0.58191 0.81584 0.88596 0.0
C177 C 0.59687 0.81259 0.92654 0.0
C178 C 0.65983 0.87155 0.04137 0.0
C179 C 0.6645 0.76638 0.80195 0.0
O180 O 0.69732 0.82634 0.07497 0.0
O181 O 0.70336 0.7377 1.01619 0.0
O182 O 0.66279 0.70203 0.07323 0.0
O183 O 0.68033 0.6723 0.97145 0.0
O184 O 0.67521 0.77522 0.2035 0.0
O185 O 0.64958 0.74956 0.20176 0.0
O186 O 0.62861 0.71051 0.9741 0.0
O187 O 0.62375 0.7961 0.05112 0.0
O188 O 0.66396 0.8285 0.98334 0.0
O189 O 0.64687 0.8594 0.08665 0.0
O190 O 0.65145 0.75633 0.85355 0.0
O191 O 0.67727 0.77943 0.8546 0.0
H192 H 0.72011 0.87994 0.17542 0.0
H193 H 0.74494 0.88237 0.26854 0.0
H194 H 0.75104 0.69492 0.20331 0.0
H195 H 0.72627 0.69178 0.11064 0.0
H196 H 0.60312 0.66383 0.88788 0.0
H197 H 0.57701 0.66993 0.81615 0.0
H198 H 0.5758 0.85786 0.89009 0.0
H199 H 0.60193 0.85241 0.96132 0.0
Tb200 Tb 0.39237 0.76397 1.02858 0.0
Tb201 Tb 0.42662 0.76251 1.02836 0.0
C202 C 0.36458 0.739 0.05683 0.0
C203 C 0.35176 0.74162 0.13586 0.0
C204 C 0.34651 0.6887 0.18514 0.0
C205 C 0.33235 0.68728 0.2383 0.0
C206 C 0.32327 0.73868 0.24252 0.0
C207 C 0.32889 0.79251 0.20068 0.0
C208 C 0.34305 0.79406 0.14765 0.0
C209 C 0.4052 0.86977 1.01575 0.0
C210 C 0.41064 0.76516 0.25468 0.0
C211 C 0.45477 0.78187 1.00303 0.0
C212 C 0.46828 0.77337 0.93144 0.0
C213 C 0.47533 0.8238 0.88529 0.0
C214 C 0.49027 0.82039 0.84472 0.0
C215 C 0.49835 0.76653 0.84975 0.0
C216 C 0.49095 0.71488 0.88673 0.0
C217 C 0.47598 0.71817 0.92724 0.0
C218 C 0.41334 0.65767 0.04086 0.0
C219 C 0.40837 0.76257 0.80179 0.0
O220 O 0.37574 0.70143 0.07624 0.0
O221 O 0.36942 0.78925 1.0147 0.0
O222 O 0.40988 0.82697 0.07321 0.0
O223 O 0.39224 0.85604 0.97159 0.0
O224 O 0.3977 0.7531 0.20326 0.0
O225 O 0.42322 0.78026 0.2016 0.0
O226 O 0.44412 0.81967 0.97294 0.0
O227 O 0.44919 0.73492 0.05239 0.0
O228 O 0.40909 0.70061 0.98302 0.0
O229 O 0.42627 0.67026 0.08616 0.0
O230 O 0.42138 0.77342 0.85347 0.0
O231 O 0.39567 0.74872 0.85444 0.0
H232 H 0.35291 0.64755 0.17688 0.0
H233 H 0.32814 0.64537 0.27073 0.0
H234 H 0.32199 0.83264 0.20382 0.0
H235 H 0.34671 0.83554 0.11047 0.0
H236 H 0.46973 0.8669 0.88797 0.0
H237 H 0.49585 0.86072 0.81637 0.0
H238 H 0.49705 0.67285 0.89099 0.0
H239 H 0.47092 0.67838 0.9621 0.0
Tb240 Tb 0.6805 0.26428 0.03625 0.0
Tb241 Tb 0.64626 0.26137 0.03649 0.0
C242 C 0.70837 0.24044 1.00876 0.0
C243 C 0.72122 0.24266 0.93003 0.0
C244 C 0.72646 0.18956 0.88136 0.0
C245 C 0.74066 0.18783 0.82869 0.0
C246 C 0.74979 0.2391 0.82435 0.0
C247 C 0.74419 0.29308 0.86568 0.0
C248 C 0.73 0.29494 0.91823 0.0
C249 C 0.66736 0.36953 0.04873 0.0
C250 C 0.66224 0.26431 0.81013 0.0
C251 C 0.61809 0.28019 0.06176 0.0
C252 C 0.60461 0.27182 0.13363 0.0
C253 C 0.59757 0.32232 0.17954 0.0
C254 C 0.58264 0.31899 0.22027 0.0
C255 C 0.57457 0.26511 0.21566 0.0
C256 C 0.58196 0.21339 0.17898 0.0
C257 C 0.59691 0.21662 0.13829 0.0
C258 C 0.65979 0.15701 1.02442 0.0
C259 C 0.6645 0.26238 0.26309 0.0
O260 O 0.69733 0.20214 0.99071 0.0
O261 O 0.70336 0.29094 0.04879 0.0
O262 O 0.66281 0.32649 0.99135 0.0
O263 O 0.68034 0.35636 0.09314 0.0
O264 O 0.67523 0.25297 0.86162 0.0
O265 O 0.64961 0.27879 0.8631 0.0
O266 O 0.62869 0.31837 0.09111 0.0
O267 O 0.62373 0.2331 1.01318 0.0
O268 O 0.66395 0.2002 0.08202 0.0
O269 O 0.64682 0.16906 0.97923 0.0
O270 O 0.65145 0.27238 0.21141 0.0
O271 O 0.67726 0.24934 0.21051 0.0
H272 H 0.72002 0.14852 0.88971 0.0
H273 H 0.74485 0.1458 0.79668 0.0
H274 H 0.75114 0.33311 0.86246 0.0
H275 H 0.72637 0.33653 0.95505 0.0
H276 H 0.60317 0.36543 0.17651 0.0
H277 H 0.57707 0.35936 0.24839 0.0
H278 H 0.57585 0.17136 0.17502 0.0
H279 H 0.60197 0.17678 0.1036 0.0
Tb280 Tb 0.39249 0.26536 0.03638 0.0
Tb281 Tb 0.42672 0.26738 0.03651 0.0
C282 C 0.36465 0.28955 1.00833 0.0
C283 C 0.35183 0.28707 0.92927 0.0
C284 C 0.34659 0.34004 0.88014 0.0
C285 C 0.33241 0.34155 0.82702 0.0
C286 C 0.32333 0.29018 0.82269 0.0
C287 C 0.32894 0.23632 0.86444 0.0
C288 C 0.3431 0.23468 0.91743 0.0
C289 C 0.40543 0.1598 0.04986 0.0
C290 C 0.41075 0.26443 0.81023 0.0
C291 C 0.45488 0.24841 0.06182 0.0
C292 C 0.46838 0.25668 0.13367 0.0
C293 C 0.47541 0.20612 0.17946 0.0
C294 C 0.49035 0.20937 0.22015 0.0
C295 C 0.49844 0.26323 0.21562 0.0
C296 C 0.49105 0.31499 0.17903 0.0
C297 C 0.47609 0.31185 0.13838 0.0
C298 C 0.41334 0.372 1.02348 0.0
C299 C 0.4085 0.26726 0.26314 0.0
O300 O 0.37573 0.32762 0.98992 0.0
O301 O 0.3696 0.23917 0.04925 0.0
O302 O 0.41005 0.20252 0.99195 0.0
O303 O 0.3925 0.17352 0.09439 0.0
O304 O 0.3978 0.27625 0.86167 0.0
O305 O 0.42335 0.24962 0.86329 0.0
O306 O 0.44428 0.21025 0.09108 0.0
O307 O 0.44926 0.29555 1.01334 0.0
O308 O 0.40914 0.3291 0.08162 0.0
O309 O 0.42626 0.35949 0.97807 0.0
O310 O 0.42152 0.25665 0.21147 0.0
O311 O 0.39577 0.28076 0.21047 0.0
H312 H 0.35299 0.38116 0.88847 0.0
H313 H 0.32821 0.3835 0.79468 0.0
H314 H 0.32202 0.19621 0.86123 0.0
H315 H 0.34674 0.19316 0.95455 0.0
H316 H 0.46981 0.16304 0.17639 0.0
H317 H 0.49591 0.16896 0.24819 0.0
H318 H 0.49717 0.35701 0.17513 0.0
H319 H 0.47104 0.35173 0.10377 0.0
C320 C 0.27905 0.2943 0.72488 0.0
C321 C 0.26586 0.29292 0.69657 0.0
C322 C 0.29461 0.29465 0.75553 0.0
C323 C 0.30772 0.29375 0.78569 0.0
C324 C 0.77852 0.23434 0.75778 0.0
C325 C 0.7654 0.23535 0.78767 0.0
C326 C 0.79408 0.23465 0.7272 0.0
C327 C 0.80726 0.23606 0.69869 0.0
C328 C 0.29454 0.73427 0.30943 0.0
C329 C 0.30767 0.73517 0.27938 0.0
C330 C 0.27899 0.7346 0.33996 0.0
C331 C 0.2658 0.73596 0.36827 0.0
C332 C 0.77853 0.79347 0.30795 0.0
C333 C 0.7654 0.79253 0.27794 0.0
C334 C 0.79408 0.79318 0.33863 0.0
C335 C 0.80727 0.79191 0.36713 0.0
C336 C 0.16208 0.98365 0.5474 0.0
C337 C 0.16379 0.93143 0.57081 0.0
C338 C 0.16207 0.04521 0.51788 0.0
C339 C 0.16377 0.09745 0.49457 0.0
C340 C 0.91102 0.48407 0.51788 0.0
C341 C 0.90928 0.43185 0.49461 0.0
C342 C 0.91105 0.54562 0.54733 0.0
C343 C 0.90936 0.59785 0.57063 0.0
C344 C 0.90479 0.98431 0.54795 0.0
C345 C 0.9076 0.93295 0.57099 0.0
C346 C 0.90477 0.04534 0.5167 0.0
C347 C 0.90756 0.09675 0.49381 0.0
C348 C 0.16819 0.54496 0.54893 0.0
C349 C 0.1654 0.59634 0.57197 0.0
C350 C 0.1682 0.48395 0.51753 0.0
C351 C 0.1654 0.43258 0.49441 0.0
C352 C 0.65979 0.54576 1.03078 0.0
C353 C 0.6623 0.59861 1.02863 0.0
C354 C 0.6598 0.48281 0.03305 0.0
C355 C 0.66231 0.42997 0.03542 0.0
C356 C 0.41256 0.98326 1.03139 0.0
C357 C 0.41009 0.9304 1.02881 0.0
C358 C 0.41264 0.04619 0.03403 0.0
C359 C 0.41027 0.09912 0.03653 0.0
C360 C 0.40455 0.48353 1.03272 0.0
C361 C 0.40762 0.43134 0.03345 0.0
C362 C 0.40456 0.54612 1.03161 0.0
C363 C 0.40763 0.59832 1.03092 0.0
C364 C 0.66873 0.04561 0.03395 0.0
C365 C 0.66563 0.0978 0.03467 0.0
C366 C 0.66874 0.98298 1.0325 0.0
C367 C 0.66565 0.93079 1.03146 0.0
C368 C 0.16345 0.26878 1.02202 0.0
C369 C 0.16411 0.26917 0.12055 0.0
C370 C 0.16232 0.26773 0.90682 0.0
C371 C 0.16163 0.2668 0.80835 0.0
C372 C 0.9095 0.2606 1.02198 0.0
C373 C 0.90884 0.26026 0.12051 0.0
C374 C 0.91064 0.26155 0.90679 0.0
C375 C 0.91135 0.26242 0.80833 0.0
C376 C 0.16235 0.76091 0.1591 0.0
C377 C 0.16164 0.76184 0.25757 0.0
C378 C 0.1635 0.75994 0.04391 0.0
C379 C 0.16416 0.75965 0.94539 0.0
C380 C 0.90959 0.76935 0.04331 0.0
C381 C 0.90892 0.76968 0.94478 0.0
C382 C 0.91075 0.76832 0.1585 0.0
C383 C 0.91146 0.76736 0.25697 0.0
C384 C 0.66282 0.76491 0.47078 0.0
C385 C 0.6622 0.76409 0.37225 0.0
C386 C 0.66385 0.76597 0.58604 0.0
C387 C 0.66447 0.76645 0.68457 0.0
C388 C 0.40904 0.7629 0.58588 0.0
C389 C 0.40841 0.76244 0.68441 0.0
C390 C 0.41006 0.764 0.4706 0.0
C391 C 0.41066 0.76489 0.37207 0.0
C392 C 0.66384 0.26246 0.47898 0.0
C393 C 0.66446 0.26215 0.38045 0.0
C394 C 0.66284 0.26333 0.59424 0.0
C395 C 0.66224 0.26411 0.69276 0.0
C396 C 0.40916 0.26691 0.47905 0.0
C397 C 0.40854 0.26738 0.38051 0.0
C398 C 0.41017 0.26575 0.59432 0.0
C399 C 0.41077 0.26479 0.69285 0.0
C400 C 0.04459 0.26511 0.24127 0.0
C401 C 0.05826 0.26437 0.2564 0.0
C402 C 1.02839 0.26531 0.2413 0.0
C403 C 1.01472 0.26593 0.25644 0.0
C404 C 1.02843 0.76511 0.82529 0.0
C405 C 1.01477 0.76443 0.81004 0.0
C406 C 0.04464 0.76526 0.8253 0.0
C407 C 0.0583 0.76586 0.81009 0.0
C408 C 0.54451 0.7652 0.81735 0.0
C409 C 0.55818 0.76447 0.83176 0.0
C410 C 0.52833 0.76542 0.8175 0.0
C411 C 0.51467 0.76616 0.8321 0.0
C412 C 0.52841 0.26409 0.24786 0.0
C413 C 0.51476 0.26349 0.23325 0.0
C414 C 0.54459 0.26415 0.24787 0.0
C415 C 0.55825 0.26479 0.23327 0.0
loop_
_geom_bond_atom_site_label_1
_geom_bond_atom_site_label_2
_geom_bond_distance
_geom_bond_site_symmetry_2
_ccdc_geom_bond_type
Tb0 C2 2.809 . S
Tb0 O20 2.484 . S
Tb0 O21 2.440 . S
Tb0 O22 2.658 . S
Tb0 O23 2.409 . S
Tb0 O24 2.378 . S
Tb0 O28 2.325 . S
Tb0 O31 2.341 . S
Tb1 C11 2.809 . S
Tb1 O22 2.325 . S
Tb1 O25 2.341 . S
Tb1 O26 2.484 . S
Tb1 O27 2.440 . S
Tb1 O28 2.658 . S
Tb1 O29 2.409 . S
Tb1 O30 2.378 . S
C2 Tb0 2.809 . S
C2 C3 1.514 . S
C2 O20 1.248 . S
C2 O21 1.266 . S
C3 C2 1.514 . S
C3 C4 1.359 . S
C3 C8 1.348 . S
C4 C3 1.359 . S
C4 C5 1.380 . S
C4 H32 0.929 . S
C5 C4 1.380 . S
C5 C6 1.347 . S
C5 H33 0.931 . S
C6 C5 1.347 . S
C6 C7 1.369 . S
C7 C6 1.369 . S
C7 C8 1.408 . S
C7 H34 0.930 . S
C8 C3 1.348 . S
C8 C7 1.408 . S
C8 H35 0.930 . S
C9 O22 1.281 . S
C9 O23 1.254 . S
C10 O24 1.236 . S
C10 O25 1.266 . S
C11 Tb1 2.809 . S
C11 C12 1.514 . S
C11 O26 1.248 . S
C11 O27 1.266 . S
C12 C11 1.514 . S
C12 C13 1.359 . S
C12 C17 1.348 . S
C13 C12 1.359 . S
C13 C14 1.380 . S
C13 H36 0.929 . S
C14 C13 1.380 . S
C14 C15 1.347 . S
C14 H37 0.931 . S
C15 C14 1.347 . S
C15 C16 1.369 . S
C16 C15 1.369 . S
C16 C17 1.408 . S
C16 H38 0.930 . S
C17 C12 1.348 . S
C17 C16 1.408 . S
C17 H39 0.930 . S
C18 O28 1.281 . S
C18 O29 1.254 . S
C19 O30 1.236 . S
C19 O31 1.266 . S
O20 Tb0 2.484 . S
O20 C2 1.248 . S
O21 Tb0 2.440 . S
O21 C2 1.266 . S
O22 Tb0 2.658 . S
O22 Tb1 2.325 . S
O22 C9 1.281 . S
O23 Tb0 2.409 . S
O23 C9 1.254 . S
O24 Tb0 2.378 . S
O24 C10 1.236 . S
O25 Tb1 2.341 . S
O25 C10 1.266 . S
O26 Tb1 2.484 . S
O26 C11 1.248 . S
O27 Tb1 2.440 . S
O27 C11 1.266 . S
O28 Tb0 2.325 . S
O28 Tb1 2.658 . S
O28 C18 1.281 . S
O29 Tb1 2.409 . S
O29 C18 1.254 . S
O30 Tb1 2.378 . S
O30 C19 1.236 . S
O31 Tb0 2.341 . S
O31 C19 1.266 . S
H32 C4 0.929 . S
H33 C5 0.931 . S
H34 C7 0.930 . S
H35 C8 0.930 . S
H36 C13 0.929 . S
H37 C14 0.931 . S
H38 C16 0.930 . S
H39 C17 0.930 . S
Tb40 C42 2.809 . S
Tb40 O60 2.484 . S
Tb40 O61 2.440 . S
Tb40 O62 2.658 . S
Tb40 O63 2.409 . S
Tb40 O64 2.378 . S
Tb40 O68 2.325 . S
Tb40 O71 2.341 . S
Tb41 C51 2.809 . S
Tb41 O62 2.325 . S
Tb41 O65 2.341 . S
Tb41 O66 2.484 . S
Tb41 O67 2.440 . S
Tb41 O68 2.658 . S
Tb41 O69 2.409 . S
Tb41 O70 2.378 . S
C42 Tb40 2.809 . S
C42 C43 1.514 . S
C42 O60 1.248 . S
C42 O61 1.266 . S
C43 C42 1.514 . S
C43 C44 1.359 . S
C43 C48 1.348 . S
C44 C43 1.359 . S
C44 C45 1.380 . S
C44 H72 0.929 . S
C45 C44 1.380 . S
C45 C46 1.347 . S
C45 H73 0.931 . S
C46 C45 1.347 . S
C46 C47 1.369 . S
C47 C46 1.369 . S
C47 C48 1.408 . S
C47 H74 0.930 . S
C48 C43 1.348 . S
C48 C47 1.408 . S
C48 H75 0.930 . S
C49 O62 1.281 . S
C49 O63 1.254 . S
C50 O64 1.236 . S
C50 O65 1.266 . S
C51 Tb41 2.809 . S
C51 C52 1.514 . S
C51 O66 1.248 . S
C51 O67 1.266 . S
C52 C51 1.514 . S
C52 C53 1.359 . S
C52 C57 1.348 . S
C53 C52 1.359 . S
C53 C54 1.380 . S
C53 H76 0.929 . S
C54 C53 1.380 . S
C54 C55 1.347 . S
C54 H77 0.931 . S
C55 C54 1.347 . S
C55 C56 1.369 . S
C56 C55 1.369 . S
C56 C57 1.408 . S
C56 H78 0.930 . S
C57 C52 1.348 . S
C57 C56 1.408 . S
C57 H79 0.930 . S
C58 O68 1.281 . S
C58 O69 1.254 . S
C59 O70 1.236 . S
C59 O71 1.266 . S
O60 Tb40 2.484 . S
O60 C42 1.248 . S
O61 Tb40 2.440 . S
O61 C42 1.266 . S
O62 Tb40 2.658 . S
O62 Tb41 2.325 . S
O62 C49 1.281 . S
O63 Tb40 2.409 . S
O63 C49 1.254 . S
O64 Tb40 2.378 . S
O64 C50 1.236 . S
O65 Tb41 2.341 . S
O65 C50 1.266 . S
O66 Tb41 2.484 . S
O66 C51 1.248 . S
O67 Tb41 2.440 . S
O67 C51 1.266 . S
O68 Tb40 2.325 . S
O68 Tb41 2.658 . S
O68 C58 1.281 . S
O69 Tb41 2.409 . S
O69 C58 1.254 . S
O70 Tb41 2.378 . S
O70 C59 1.236 . S
O71 Tb40 2.341 . S
O71 C59 1.266 . S
H72 C44 0.929 . S
H73 C45 0.931 . S
H74 C47 0.930 . S
H75 C48 0.930 . S
H76 C53 0.929 . S
H77 C54 0.931 . S
H78 C56 0.930 . S
H79 C57 0.930 . S
Tb80 C82 2.809 . S
Tb80 O100 2.484 . S
Tb80 O101 2.440 . S
Tb80 O102 2.658 . S
Tb80 O103 2.409 . S
Tb80 O104 2.378 . S
Tb80 O108 2.325 . S
Tb80 O111 2.341 . S
Tb81 C91 2.809 . S
Tb81 O102 2.325 . S
Tb81 O105 2.341 . S
Tb81 O106 2.484 . S
Tb81 O107 2.440 . S
Tb81 O108 2.658 . S
Tb81 O109 2.409 . S
Tb81 O110 2.378 . S
C82 Tb80 2.809 . S
C82 C83 1.514 . S
C82 O100 1.248 . S
C82 O101 1.266 . S
C83 C82 1.514 . S
C83 C84 1.359 . S
C83 C88 1.348 . S
C84 C83 1.359 . S
C84 C85 1.380 . S
C84 H112 0.929 . S
C85 C84 1.380 . S
C85 C86 1.347 . S
C85 H113 0.931 . S
C86 C85 1.347 . S
C86 C87 1.369 . S
C87 C86 1.369 . S
C87 C88 1.408 . S
C87 H114 0.930 . S
C88 C83 1.348 . S
C88 C87 1.408 . S
C88 H115 0.930 . S
C89 O102 1.281 . S
C89 O103 1.254 . S
C90 O104 1.236 . S
C90 O105 1.266 . S
C91 Tb81 2.809 . S
C91 C92 1.514 . S
C91 O106 1.248 . S
C91 O107 1.266 . S
C92 C91 1.514 . S
C92 C93 1.359 . S
C92 C97 1.348 . S
C93 C92 1.359 . S
C93 C94 1.380 . S
C93 H116 0.929 . S
C94 C93 1.380 . S
C94 C95 1.347 . S
C94 H117 0.931 . S
C95 C94 1.347 . S
C95 C96 1.369 . S
C96 C95 1.369 . S
C96 C97 1.408 . S
C96 H118 0.930 . S
C97 C92 1.348 . S
C97 C96 1.408 . S
C97 H119 0.930 . S
C98 O108 1.281 . S
C98 O109 1.254 . S
C99 O110 1.236 . S
C99 O111 1.266 . S
O100 Tb80 2.484 . S
O100 C82 1.248 . S
O101 Tb80 2.440 . S
O101 C82 1.266 . S
O102 Tb80 2.658 . S
O102 Tb81 2.325 . S
O102 C89 1.281 . S
O103 Tb80 2.409 . S
O103 C89 1.254 . S
O104 Tb80 2.378 . S
O104 C90 1.236 . S
O105 Tb81 2.341 . S
O105 C90 1.266 . S
O106 Tb81 2.484 . S
O106 C91 1.248 . S
O107 Tb81 2.440 . S
O107 C91 1.266 . S
O108 Tb80 2.325 . S
O108 Tb81 2.658 . S
O108 C98 1.281 . S
O109 Tb81 2.409 . S
O109 C98 1.254 . S
O110 Tb81 2.378 . S
O110 C99 1.236 . S
O111 Tb80 2.341 . S
O111 C99 1.266 . S
H112 C84 0.929 . S
H113 C85 0.931 . S
H114 C87 0.930 . S
H115 C88 0.930 . S
H116 C93 0.929 . S
H117 C94 0.931 . S
H118 C96 0.930 . S
H119 C97 0.930 . S
Tb120 C122 2.809 . S
Tb120 O140 2.484 . S
Tb120 O141 2.440 . S
Tb120 O142 2.658 . S
Tb120 O143 2.409 . S
Tb120 O144 2.378 . S
Tb120 O148 2.325 . S
Tb120 O151 2.341 . S
Tb121 C131 2.809 . S
Tb121 O142 2.325 . S
Tb121 O145 2.341 . S
Tb121 O146 2.484 . S
Tb121 O147 2.440 . S
Tb121 O148 2.658 . S
Tb121 O149 2.409 . S
Tb121 O150 2.378 . S
C122 Tb120 2.809 . S
C122 C123 1.514 . S
C122 O140 1.248 . S
C122 O141 1.266 . S
C123 C122 1.514 . S
C123 C124 1.359 . S
C123 C128 1.348 . S
C124 C123 1.359 . S
C124 C125 1.380 . S
C124 H152 0.929 . S
C125 C124 1.380 . S
C125 C126 1.347 . S
C125 H153 0.931 . S
C126 C125 1.347 . S
C126 C127 1.369 . S
C127 C126 1.369 . S
C127 C128 1.408 . S
C127 H154 0.930 . S
C128 C123 1.348 . S
C128 C127 1.408 . S
C128 H155 0.930 . S
C129 O142 1.281 . S
C129 O143 1.254 . S
C130 O144 1.236 . S
C130 O145 1.266 . S
C131 Tb121 2.809 . S
C131 C132 1.514 . S
C131 O146 1.248 . S
C131 O147 1.266 . S
C132 C131 1.514 . S
C132 C133 1.359 . S
C132 C137 1.348 . S
C133 C132 1.359 . S
C133 C134 1.380 . S
C133 H156 0.929 . S
C134 C133 1.380 . S
C134 C135 1.347 . S
C134 H157 0.931 . S
C135 C134 1.347 . S
C135 C136 1.369 . S
C136 C135 1.369 . S
C136 C137 1.408 . S
C136 H158 0.930 . S
C137 C132 1.348 . S
C137 C136 1.408 . S
C137 H159 0.930 . S
C138 O148 1.281 . S
C138 O149 1.254 . S
C139 O150 1.236 . S
C139 O151 1.266 . S
O140 Tb120 2.484 . S
O140 C122 1.248 . S
O141 Tb120 2.440 . S
O141 C122 1.266 . S
O142 Tb120 2.658 . S
O142 Tb121 2.325 . S
O142 C129 1.281 . S
O143 Tb120 2.409 . S
O143 C129 1.254 . S
O144 Tb120 2.378 . S
O144 C130 1.236 . S
O145 Tb121 2.341 . S
O145 C130 1.266 . S
O146 Tb121 2.484 . S
O146 C131 1.248 . S
O147 Tb121 2.440 . S
O147 C131 1.266 . S
O148 Tb120 2.325 . S
O148 Tb121 2.658 . S
O148 C138 1.281 . S
O149 Tb121 2.409 . S
O149 C138 1.254 . S
O150 Tb121 2.378 . S
O150 C139 1.236 . S
O151 Tb120 2.341 . S
O151 C139 1.266 . S
H152 C124 0.929 . S
H153 C125 0.931 . S
H154 C127 0.930 . S
H155 C128 0.930 . S
H156 C133 0.929 . S
H157 C134 0.931 . S
H158 C136 0.930 . S
H159 C137 0.930 . S
Tb160 C162 2.809 1_556 S
Tb160 O180 2.484 1_556 S
Tb160 O181 2.440 1_556 S
Tb160 O182 2.658 . S
Tb160 O183 2.409 . S
Tb160 O184 2.378 1_556 S
Tb160 O188 2.325 1_556 S
Tb160 O191 2.341 . S
Tb161 C171 2.809 1_554 S
Tb161 O182 2.325 1_554 S
Tb161 O185 2.341 . S
Tb161 O186 2.484 1_554 S
Tb161 O187 2.440 1_554 S
Tb161 O188 2.658 . S
Tb161 O189 2.409 . S
Tb161 O190 2.378 1_554 S
C162 Tb160 2.809 1_554 S
C162 C163 1.514 . S
C162 O180 1.248 . S
C162 O181 1.266 . S
C163 C162 1.514 . S
C163 C164 1.359 . S
C163 C168 1.348 . S
C164 C163 1.359 . S
C164 C165 1.380 . S
C164 H192 0.929 . S
C165 C164 1.380 . S
C165 C166 1.347 . S
C165 H193 0.931 . S
C166 C165 1.347 . S
C166 C167 1.369 . S
C167 C166 1.369 . S
C167 C168 1.408 . S
C167 H194 0.930 . S
C168 C163 1.348 . S
C168 C167 1.408 . S
C168 H195 0.930 . S
C169 O182 1.281 . S
C169 O183 1.254 . S
C170 O184 1.236 . S
C170 O185 1.266 . S
C171 Tb161 2.809 1_556 S
C171 C172 1.514 . S
C171 O186 1.248 . S
C171 O187 1.266 . S
C172 C171 1.514 . S
C172 C173 1.359 . S
C172 C177 1.348 . S
C173 C172 1.359 . S
C173 C174 1.380 . S
C173 H196 0.929 . S
C174 C173 1.380 . S
C174 C175 1.347 . S
C174 H197 0.931 . S
C175 C174 1.347 . S
C175 C176 1.369 . S
C176 C175 1.369 . S
C176 C177 1.408 . S
C176 H198 0.930 . S
C177 C172 1.348 . S
C177 C176 1.408 . S
C177 H199 0.930 . S
C178 O188 1.281 . S
C178 O189 1.254 . S
C179 O190 1.236 . S
C179 O191 1.266 . S
O180 Tb160 2.484 1_554 S
O180 C162 1.248 . S
O181 Tb160 2.440 1_554 S
O181 C162 1.266 . S
O182 Tb160 2.658 . S
O182 Tb161 2.325 1_556 S
O182 C169 1.281 . S
O183 Tb160 2.409 . S
O183 C169 1.254 . S
O184 Tb160 2.378 1_554 S
O184 C170 1.236 . S
O185 Tb161 2.341 . S
O185 C170 1.266 . S
O186 Tb161 2.484 1_556 S
O186 C171 1.248 . S
O187 Tb161 2.440 1_556 S
O187 C171 1.266 . S
O188 Tb160 2.325 1_554 S
O188 Tb161 2.658 . S
O188 C178 1.281 . S
O189 Tb161 2.409 . S
O189 C178 1.254 . S
O190 Tb161 2.378 1_556 S
O190 C179 1.236 . S
O191 Tb160 2.341 . S
O191 C179 1.266 . S
H192 C164 0.929 . S
H193 C165 0.931 . S
H194 C167 0.930 . S
H195 C168 0.930 . S
H196 C173 0.929 . S
H197 C174 0.931 . S
H198 C176 0.930 . S
H199 C177 0.930 . S
Tb200 C202 2.809 1_556 S
Tb200 O220 2.484 1_556 S
Tb200 O221 2.440 1_556 S
Tb200 O222 2.658 . S
Tb200 O223 2.409 . S
Tb200 O224 2.378 1_556 S
Tb200 O228 2.325 1_556 S
Tb200 O231 2.341 . S
Tb201 C211 2.809 1_554 S
Tb201 O222 2.325 1_554 S
Tb201 O225 2.341 . S
Tb201 O226 2.484 1_554 S
Tb201 O227 2.440 1_554 S
Tb201 O228 2.658 . S
Tb201 O229 2.409 . S
Tb201 O230 2.378 1_554 S
C202 Tb200 2.809 1_554 S
C202 C203 1.514 . S
C202 O220 1.248 . S
C202 O221 1.266 . S
C203 C202 1.514 . S
C203 C204 1.359 . S
C203 C208 1.348 . S
C204 C203 1.359 . S
C204 C205 1.380 . S
C204 H232 0.929 . S
C205 C204 1.380 . S
C205 C206 1.347 . S
C205 H233 0.931 . S
C206 C205 1.347 . S
C206 C207 1.369 . S
C207 C206 1.369 . S
C207 C208 1.408 . S
C207 H234 0.930 . S
C208 C203 1.348 . S
C208 C207 1.408 . S
C208 H235 0.930 . S
C209 O222 1.281 . S
C209 O223 1.254 . S
C210 O224 1.236 . S
C210 O225 1.266 . S
C211 Tb201 2.809 1_556 S
C211 C212 1.514 . S
C211 O226 1.248 . S
C211 O227 1.266 . S
C212 C211 1.514 . S
C212 C213 1.359 . S
C212 C217 1.348 . S
C213 C212 1.359 . S
C213 C214 1.380 . S
C213 H236 0.929 . S
C214 C213 1.380 . S
C214 C215 1.347 . S
C214 H237 0.931 . S
C215 C214 1.347 . S
C215 C216 1.369 . S
C216 C215 1.369 . S
C216 C217 1.408 . S
C216 H238 0.930 . S
C217 C212 1.348 . S
C217 C216 1.408 . S
C217 H239 0.930 . S
C218 O228 1.281 . S
C218 O229 1.254 . S
C219 O230 1.236 . S
C219 O231 1.266 . S
O220 Tb200 2.484 1_554 S
O220 C202 1.248 . S
O221 Tb200 2.440 1_554 S
O221 C202 1.266 . S
O222 Tb200 2.658 . S
O222 Tb201 2.325 1_556 S
O222 C209 1.281 . S
O223 Tb200 2.409 . S
O223 C209 1.254 . S
O224 Tb200 2.378 1_554 S
O224 C210 1.236 . S
O225 Tb201 2.341 . S
O225 C210 1.266 . S
O226 Tb201 2.484 1_556 S
O226 C211 1.248 . S
O227 Tb201 2.440 1_556 S
O227 C211 1.266 . S
O228 Tb200 2.325 1_554 S
O228 Tb201 2.658 . S
O228 C218 1.281 . S
O229 Tb201 2.409 . S
O229 C218 1.254 . S
O230 Tb201 2.378 1_556 S
O230 C219 1.236 . S
O231 Tb200 2.341 . S
O231 C219 1.266 . S
H232 C204 0.929 . S
H233 C205 0.931 . S
H234 C207 0.930 . S
H235 C208 0.930 . S
H236 C213 0.929 . S
H237 C214 0.931 . S
H238 C216 0.930 . S
H239 C217 0.930 . S
Tb240 C242 2.809 1_554 S
Tb240 O260 2.484 1_554 S
Tb240 O261 2.440 1_554 S
Tb240 O262 2.658 . S
Tb240 O263 2.409 . S
Tb240 O264 2.378 1_554 S
Tb240 O268 2.325 1_554 S
Tb240 O271 2.341 . S
Tb241 C251 2.809 1_556 S
Tb241 O262 2.325 1_556 S
Tb241 O265 2.341 . S
Tb241 O266 2.484 1_556 S
Tb241 O267 2.440 1_556 S
Tb241 O268 2.658 . S
Tb241 O269 2.409 . S
Tb241 O270 2.378 1_556 S
C242 Tb240 2.809 1_556 S
C242 C243 1.514 . S
C242 O260 1.248 . S
C242 O261 1.266 . S
C243 C242 1.514 . S
C243 C244 1.359 . S
C243 C248 1.348 . S
C244 C243 1.359 . S
C244 C245 1.380 . S
C244 H272 0.929 . S
C245 C244 1.380 . S
C245 C246 1.347 . S
C245 H273 0.931 . S
C246 C245 1.347 . S
C246 C247 1.369 . S
C247 C246 1.369 . S
C247 C248 1.408 . S
C247 H274 0.930 . S
C248 C243 1.348 . S
C248 C247 1.408 . S
C248 H275 0.930 . S
C249 O262 1.281 . S
C249 O263 1.254 . S
C250 O264 1.236 . S
C250 O265 1.266 . S
C251 Tb241 2.809 1_554 S
C251 C252 1.514 . S
C251 O266 1.248 . S
C251 O267 1.266 . S
C252 C251 1.514 . S
C252 C253 1.359 . S
C252 C257 1.348 . S
C253 C252 1.359 . S
C253 C254 1.380 . S
C253 H276 0.929 . S
C254 C253 1.380 . S
C254 C255 1.347 . S
C254 H277 0.931 . S
C255 C254 1.347 . S
C255 C256 1.369 . S
C256 C255 1.369 . S
C256 C257 1.408 . S
C256 H278 0.930 . S
C257 C252 1.348 . S
C257 C256 1.408 . S
C257 H279 0.930 . S
C258 O268 1.281 . S
C258 O269 1.254 . S
C259 O270 1.236 . S
C259 O271 1.266 . S
O260 Tb240 2.484 1_556 S
O260 C242 1.248 . S
O261 Tb240 2.440 1_556 S
O261 C242 1.266 . S
O262 Tb240 2.658 . S
O262 Tb241 2.325 1_554 S
O262 C249 1.281 . S
O263 Tb240 2.409 . S
O263 C249 1.254 . S
O264 Tb240 2.378 1_556 S
O264 C250 1.236 . S
O265 Tb241 2.341 . S
O265 C250 1.266 . S
O266 Tb241 2.484 1_554 S
O266 C251 1.248 . S
O267 Tb241 2.440 1_554 S
O267 C251 1.266 . S
O268 Tb240 2.325 1_556 S
O268 Tb241 2.658 . S
O268 C258 1.281 . S
O269 Tb241 2.409 . S
O269 C258 1.254 . S
O270 Tb241 2.378 1_554 S
O270 C259 1.236 . S
O271 Tb240 2.341 . S
O271 C259 1.266 . S
H272 C244 0.929 . S
H273 C245 0.931 . S
H274 C247 0.930 . S
H275 C248 0.930 . S
H276 C253 0.929 . S
H277 C254 0.931 . S
H278 C256 0.930 . S
H279 C257 0.930 . S
Tb280 C282 2.809 1_554 S
Tb280 O300 2.484 1_554 S
Tb280 O301 2.440 1_554 S
Tb280 O302 2.658 . S
Tb280 O303 2.409 . S
Tb280 O304 2.378 1_554 S
Tb280 O308 2.325 1_554 S
Tb280 O311 2.341 . S
Tb281 C291 2.809 1_556 S
Tb281 O302 2.325 1_556 S
Tb281 O305 2.341 . S
Tb281 O306 2.484 1_556 S
Tb281 O307 2.440 1_556 S
Tb281 O308 2.658 . S
Tb281 O309 2.409 . S
Tb281 O310 2.378 1_556 S
C282 Tb280 2.809 1_556 S
C282 C283 1.514 . S
C282 O300 1.248 . S
C282 O301 1.266 . S
C283 C282 1.514 . S
C283 C284 1.359 . S
C283 C288 1.348 . S
C284 C283 1.359 . S
C284 C285 1.380 . S
C284 H312 0.929 . S
C285 C284 1.380 . S
C285 C286 1.347 . S
C285 H313 0.931 . S
C286 C285 1.347 . S
C286 C287 1.369 . S
C287 C286 1.369 . S
C287 C288 1.408 . S
C287 H314 0.930 . S
C288 C283 1.348 . S
C288 C287 1.408 . S
C288 H315 0.930 . S
C289 O302 1.281 . S
C289 O303 1.254 . S
C290 O304 1.236 . S
C290 O305 1.266 . S
C291 Tb281 2.809 1_554 S
C291 C292 1.514 . S
C291 O306 1.248 . S
C291 O307 1.266 . S
C292 C291 1.514 . S
C292 C293 1.359 . S
C292 C297 1.348 . S
C293 C292 1.359 . S
C293 C294 1.380 . S
C293 H316 0.929 . S
C294 C293 1.380 . S
C294 C295 1.347 . S
C294 H317 0.931 . S
C295 C294 1.347 . S
C295 C296 1.369 . S
C296 C295 1.369 . S
C296 C297 1.408 . S
C296 H318 0.930 . S
C297 C292 1.348 . S
C297 C296 1.408 . S
C297 H319 0.930 . S
C298 O308 1.281 . S
C298 O309 1.254 . S
C299 O310 1.236 . S
C299 O311 1.266 . S
O300 Tb280 2.484 1_556 S
O300 C282 1.248 . S
O301 Tb280 2.440 1_556 S
O301 C282 1.266 . S
O302 Tb280 2.658 . S
O302 Tb281 2.325 1_554 S
O302 C289 1.281 . S
O303 Tb280 2.409 . S
O303 C289 1.254 . S
O304 Tb280 2.378 1_556 S
O304 C290 1.236 . S
O305 Tb281 2.341 . S
O305 C290 1.266 . S
O306 Tb281 2.484 1_554 S
O306 C291 1.248 . S
O307 Tb281 2.440 1_554 S
O307 C291 1.266 . S
O308 Tb280 2.325 1_556 S
O308 Tb281 2.658 . S
O308 C298 1.281 . S
O309 Tb281 2.409 . S
O309 C298 1.254 . S
O310 Tb281 2.378 1_554 S
O310 C299 1.236 . S
O311 Tb280 2.341 . S
O311 C299 1.266 . S
H312 C284 0.929 . S
H313 C285 0.931 . S
H314 C287 0.930 . S
H315 C288 0.930 . S
H316 C293 0.929 . S
H317 C294 0.931 . S
H318 C296 0.930 . S
H319 C297 0.930 . S
C320 C321 1.170 . S
C320 C322 1.380 . S
C321 C320 1.170 . S
C322 C320 1.380 . S
C322 C323 1.170 . S
C323 C322 1.170 . S
C324 C325 1.170 . S
C324 C326 1.380 . S
C325 C324 1.170 . S
C326 C324 1.380 . S
C326 C327 1.170 . S
C327 C326 1.170 . S
C328 C329 1.170 . S
C328 C330 1.380 . S
C329 C328 1.170 . S
C330 C328 1.380 . S
C330 C331 1.170 . S
C331 C330 1.170 . S
C332 C333 1.170 . S
C332 C334 1.380 . S
C333 C332 1.170 . S
C334 C332 1.380 . S
C334 C335 1.170 . S
C335 C334 1.170 . S
C336 C337 1.170 . S
C336 C338 1.380 1_565 S
C337 C336 1.170 . S
C338 C336 1.380 1_545 S
C338 C339 1.170 . S
C339 C338 1.170 . S
C340 C341 1.170 . S
C340 C342 1.380 . S
C341 C340 1.170 . S
C342 C340 1.380 . S
C342 C343 1.170 . S
C343 C342 1.170 . S
C344 C345 1.170 . S
C344 C346 1.380 1_565 S
C345 C344 1.170 . S
C346 C344 1.380 1_545 S
C346 C347 1.170 . S
C347 C346 1.170 . S
C348 C349 1.170 . S
C348 C350 1.380 . S
C349 C348 1.170 . S
C350 C348 1.380 . S
C350 C351 1.170 . S
C351 C350 1.170 . S
C352 C353 1.170 . S
C352 C354 1.380 . S
C353 C352 1.170 . S
C354 C352 1.380 . S
C354 C355 1.170 . S
C355 C354 1.170 . S
C356 C357 1.170 . S
C356 C358 1.380 1_565 S
C357 C356 1.170 . S
C358 C356 1.380 1_545 S
C358 C359 1.170 . S
C359 C358 1.170 . S
C360 C361 1.170 . S
C360 C362 1.380 . S
C361 C360 1.170 . S
C362 C360 1.380 . S
C362 C363 1.170 . S
C363 C362 1.170 . S
C364 C365 1.170 . S
C364 C366 1.380 1_545 S
C365 C364 1.170 . S
C366 C364 1.380 1_565 S
C366 C367 1.170 . S
C367 C366 1.170 . S
C368 C369 1.170 1_556 S
C368 C370 1.380 . S
C369 C368 1.170 1_554 S
C370 C368 1.380 . S
C370 C371 1.170 . S
C371 C370 1.170 . S
C372 C373 1.170 1_556 S
C372 C374 1.380 . S
C373 C372 1.170 1_554 S
C374 C372 1.380 . S
C374 C375 1.170 . S
C375 C374 1.170 . S
C376 C377 1.170 . S
C376 C378 1.380 . S
C377 C376 1.170 . S
C378 C376 1.380 . S
C378 C379 1.170 1_554 S
C379 C378 1.170 1_556 S
C380 C381 1.170 1_554 S
C380 C382 1.380 . S
C381 C380 1.170 1_556 S
C382 C380 1.380 . S
C382 C383 1.170 . S
C383 C382 1.170 . S
C384 C385 1.170 . S
C384 C386 1.380 . S
C385 C384 1.170 . S
C386 C384 1.380 . S
C386 C387 1.170 . S
C387 C386 1.170 . S
C388 C389 1.170 . S
C388 C390 1.380 . S
C389 C388 1.170 . S
C390 C388 1.380 . S
C390 C391 1.170 . S
C391 C390 1.170 . S
C392 C393 1.170 . S
C392 C394 1.380 . S
C393 C392 1.170 . S
C394 C392 1.380 . S
C394 C395 1.170 . S
C395 C394 1.170 . S
C396 C397 1.170 . S
C396 C398 1.380 . S
C397 C396 1.170 . S
C398 C396 1.380 . S
C398 C399 1.170 . S
C399 C398 1.170 . S
C400 C401 1.170 . S
C400 C402 1.380 1_455 S
C401 C400 1.170 . S
C402 C400 1.380 1_655 S
C402 C403 1.170 . S
C403 C402 1.170 . S
C404 C405 1.170 . S
C404 C406 1.380 1_655 S
C405 C404 1.170 . S
C406 C404 1.380 1_455 S
C406 C407 1.170 . S
C407 C406 1.170 . S
C408 C409 1.170 . S
C408 C410 1.380 . S
C409 C408 1.170 . S
C410 C408 1.380 . S
C410 C411 1.170 . S
C411 C410 1.170 . S
C412 C413 1.170 . S
C412 C414 1.380 . S
C413 C412 1.170 . S
C414 C412 1.380 . S
C414 C415 1.170 . S
C415 C414 1.170 . S
C321 C6 1.706 . S
C323 C286 1.728 . S
C325 C246 1.715 . S
C327 C46 1.727 . S
C329 C206 1.727 . S
C331 C86 1.716 . S
C333 C166 1.706 . S
C335 C126 1.715 . S
C337 C89 1.834 . S
C339 C9 1.833 . S
C341 C49 1.862 . S
C343 C129 1.863 . S
C345 C138 1.359 . S
C347 C58 1.380 . S
C349 C98 1.380 . S
C351 C18 1.358 . S
C353 C169 1.672 . S
C355 C249 1.691 1_556 S
C357 C209 1.672 1_554 S
C359 C289 1.657 . S
C361 C298 1.163 . S
C363 C218 1.164 1_556 S
C365 C258 1.202 1_554 S
C367 C178 1.201 . S
C369 C19 2.098 . S
C371 C10 2.071 . S
C373 C59 2.075 . S
C375 C50 2.101 . S
C377 C90 2.093 . S
C379 C99 2.072 . S
C381 C139 2.071 . S
C383 C130 2.097 . S
C385 C170 2.093 . S
C387 C179 2.085 . S
C389 C219 2.070 . S
C391 C210 2.095 . S
C393 C259 2.080 . S
C395 C250 2.081 . S
C397 C299 2.081 . S
C399 C290 2.080 . S
C401 C15 2.288 . S
C403 C55 2.288 . S
C405 C135 2.307 . S
C407 C95 2.307 . S
C409 C175 2.306 . S
C411 C215 2.306 . S
C413 C295 2.289 . S
C415 C255 2.288 . S
