# Generated by pormake.
# Topology umn, (4)-cn, num edge types: 1
# Building blocks:
#     Node 0, Type 0, BuildingBlock: NAHDIM_clean_sbu_0, # of connection points: 4
#     Node 1, Type 0, BuildingBlock: NAHDIM_clean_sbu_0, # of connection points: 4
#     Node 2, Type 0, BuildingBlock: NAHDIM_clean_sbu_0, # of connection points: 4
#     Node 3, Type 0, BuildingBlock: NAHDIM_clean_sbu_0, # of connection points: 4
#     Node 4, Type 0, BuildingBlock: NAHDIM_clean_sbu_0, # of connection points: 4
#     Node 5, Type 0, BuildingBlock: NAHDIM_clean_sbu_0, # of connection points: 4
#     Node 6, Type 0, BuildingBlock: NAHDIM_clean_sbu_0, # of connection points: 4
#     Node 7, Type 0, BuildingBlock: NAHDIM_clean_sbu_0, # of connection points: 4
#     Node 8, Type 0, BuildingBlock: NAHDIM_clean_sbu_0, # of connection points: 4
#     Node 9, Type 0, BuildingBlock: NAHDIM_clean_sbu_0, # of connection points: 4
#     Node 10, Type 0, BuildingBlock: NAHDIM_clean_sbu_0, # of connection points: 4
#     Node 11, Type 0, BuildingBlock: NAHDIM_clean_sbu_0, # of connection points: 4
#     Node 12, Type 0, BuildingBlock: NAHDIM_clean_sbu_0, # of connection points: 4
#     Node 13, Type 0, BuildingBlock: NAHDIM_clean_sbu_0, # of connection points: 4
#     Node 14, Type 0, BuildingBlock: NAHDIM_clean_sbu_0, # of connection points: 4
#     Node 15, Type 0, BuildingBlock: NAHDIM_clean_sbu_0, # of connection points: 4
#     Node 16, Type 0, BuildingBlock: NAHDIM_clean_sbu_0, # of connection points: 4
#     Node 17, Type 0, BuildingBlock: NAHDIM_clean_sbu_0, # of connection points: 4
#     Node 18, Type 0, BuildingBlock: NAHDIM_clean_sbu_0, # of connection points: 4
#     Node 19, Type 0, BuildingBlock: NAHDIM_clean_sbu_0, # of connection points: 4
#     Node 20, Type 0, BuildingBlock: NAHDIM_clean_sbu_0, # of connection points: 4
#     Node 21, Type 0, BuildingBlock: NAHDIM_clean_sbu_0, # of connection points: 4
#     Node 22, Type 0, BuildingBlock: NAHDIM_clean_sbu_0, # of connection points: 4
#     Node 23, Type 0, BuildingBlock: NAHDIM_clean_sbu_0, # of connection points: 4
#     Node 24, Type 0, BuildingBlock: NAHDIM_clean_sbu_0, # of connection points: 4
#     Node 25, Type 0, BuildingBlock: NAHDIM_clean_sbu_0, # of connection points: 4
#     Node 26, Type 0, BuildingBlock: NAHDIM_clean_sbu_0, # of connection points: 4
#     Node 27, Type 0, BuildingBlock: NAHDIM_clean_sbu_0, # of connection points: 4
#     Node 28, Type 0, BuildingBlock: NAHDIM_clean_sbu_0, # of connection points: 4
#     Node 29, Type 0, BuildingBlock: NAHDIM_clean_sbu_0, # of connection points: 4
#     Node 30, Type 0, BuildingBlock: NAHDIM_clean_sbu_0, # of connection points: 4
#     Node 31, Type 0, BuildingBlock: NAHDIM_clean_sbu_0, # of connection points: 4
#     Node 32, Type 0, BuildingBlock: NAHDIM_clean_sbu_0, # of connection points: 4
#     Node 33, Type 0, BuildingBlock: NAHDIM_clean_sbu_0, # of connection points: 4
#     Node 34, Type 0, BuildingBlock: NAHDIM_clean_sbu_0, # of connection points: 4
#     Node 35, Type 0, BuildingBlock: NAHDIM_clean_sbu_0, # of connection points: 4
#     Edge 36, Type (0, 0), BuildingBlock: XUDNAN_clean_linker_2, # of connection points: 2
#     Edge 37, Type (0, 0), BuildingBlock: XUDNAN_clean_linker_2, # of connection points: 2
#     Edge 38, Type (0, 0), BuildingBlock: XUDNAN_clean_linker_2, # of connection points: 2
#     Edge 39, Type (0, 0), BuildingBlock: XUDNAN_clean_linker_2, # of connection points: 2
#     Edge 40, Type (0, 0), BuildingBlock: XUDNAN_clean_linker_2, # of connection points: 2
#     Edge 41, Type (0, 0), BuildingBlock: XUDNAN_clean_linker_2, # of connection points: 2
#     Edge 42, Type (0, 0), BuildingBlock: XUDNAN_clean_linker_2, # of connection points: 2
#     Edge 43, Type (0, 0), BuildingBlock: XUDNAN_clean_linker_2, # of connection points: 2
#     Edge 44, Type (0, 0), BuildingBlock: XUDNAN_clean_linker_2, # of connection points: 2
#     Edge 45, Type (0, 0), BuildingBlock: XUDNAN_clean_linker_2, # of connection points: 2
#     Edge 46, Type (0, 0), BuildingBlock: XUDNAN_clean_linker_2, # of connection points: 2
#     Edge 47, Type (0, 0), BuildingBlock: XUDNAN_clean_linker_2, # of connection points: 2
#     Edge 48, Type (0, 0), BuildingBlock: XUDNAN_clean_linker_2, # of connection points: 2
#     Edge 49, Type (0, 0), BuildingBlock: XUDNAN_clean_linker_2, # of connection points: 2
#     Edge 50, Type (0, 0), BuildingBlock: XUDNAN_clean_linker_2, # of connection points: 2
#     Edge 51, Type (0, 0), BuildingBlock: XUDNAN_clean_linker_2, # of connection points: 2
#     Edge 52, Type (0, 0), BuildingBlock: XUDNAN_clean_linker_2, # of connection points: 2
#     Edge 53, Type (0, 0), BuildingBlock: XUDNAN_clean_linker_2, # of connection points: 2
#     Edge 54, Type (0, 0), BuildingBlock: XUDNAN_clean_linker_2, # of connection points: 2
#     Edge 55, Type (0, 0), BuildingBlock: XUDNAN_clean_linker_2, # of connection points: 2
#     Edge 56, Type (0, 0), BuildingBlock: XUDNAN_clean_linker_2, # of connection points: 2
#     Edge 57, Type (0, 0), BuildingBlock: XUDNAN_clean_linker_2, # of connection points: 2
#     Edge 58, Type (0, 0), BuildingBlock: XUDNAN_clean_linker_2, # of connection points: 2
#     Edge 59, Type (0, 0), BuildingBlock: XUDNAN_clean_linker_2, # of connection points: 2
#     Edge 60, Type (0, 0), BuildingBlock: XUDNAN_clean_linker_2, # of connection points: 2
#     Edge 61, Type (0, 0), BuildingBlock: XUDNAN_clean_linker_2, # of connection points: 2
#     Edge 62, Type (0, 0), BuildingBlock: XUDNAN_clean_linker_2, # of connection points: 2
#     Edge 63, Type (0, 0), BuildingBlock: XUDNAN_clean_linker_2, # of connection points: 2
#     Edge 64, Type (0, 0), BuildingBlock: XUDNAN_clean_linker_2, # of connection points: 2
#     Edge 65, Type (0, 0), BuildingBlock: XUDNAN_clean_linker_2, # of connection points: 2
#     Edge 66, Type (0, 0), BuildingBlock: XUDNAN_clean_linker_2, # of connection points: 2
#     Edge 67, Type (0, 0), BuildingBlock: XUDNAN_clean_linker_2, # of connection points: 2
#     Edge 68, Type (0, 0), BuildingBlock: XUDNAN_clean_linker_2, # of connection points: 2
#     Edge 69, Type (0, 0), BuildingBlock: XUDNAN_clean_linker_2, # of connection points: 2
#     Edge 70, Type (0, 0), BuildingBlock: XUDNAN_clean_linker_2, # of connection points: 2
#     Edge 71, Type (0, 0), BuildingBlock: XUDNAN_clean_linker_2, # of connection points: 2
#     Edge 72, Type (0, 0), BuildingBlock: XUDNAN_clean_linker_2, # of connection points: 2
#     Edge 73, Type (0, 0), BuildingBlock: XUDNAN_clean_linker_2, # of connection points: 2
#     Edge 74, Type (0, 0), BuildingBlock: XUDNAN_clean_linker_2, # of connection points: 2
#     Edge 75, Type (0, 0), BuildingBlock: XUDNAN_clean_linker_2, # of connection points: 2
#     Edge 76, Type (0, 0), BuildingBlock: XUDNAN_clean_linker_2, # of connection points: 2
#     Edge 77, Type (0, 0), BuildingBlock: XUDNAN_clean_linker_2, # of connection points: 2
#     Edge 78, Type (0, 0), BuildingBlock: XUDNAN_clean_linker_2, # of connection points: 2
#     Edge 79, Type (0, 0), BuildingBlock: XUDNAN_clean_linker_2, # of connection points: 2
#     Edge 80, Type (0, 0), BuildingBlock: XUDNAN_clean_linker_2, # of connection points: 2
#     Edge 81, Type (0, 0), BuildingBlock: XUDNAN_clean_linker_2, # of connection points: 2
#     Edge 82, Type (0, 0), BuildingBlock: XUDNAN_clean_linker_2, # of connection points: 2
#     Edge 83, Type (0, 0), BuildingBlock: XUDNAN_clean_linker_2, # of connection points: 2
#     Edge 84, Type (0, 0), BuildingBlock: XUDNAN_clean_linker_2, # of connection points: 2
#     Edge 85, Type (0, 0), BuildingBlock: XUDNAN_clean_linker_2, # of connection points: 2
#     Edge 86, Type (0, 0), BuildingBlock: XUDNAN_clean_linker_2, # of connection points: 2
#     Edge 87, Type (0, 0), BuildingBlock: XUDNAN_clean_linker_2, # of connection points: 2
#     Edge 88, Type (0, 0), BuildingBlock: XUDNAN_clean_linker_2, # of connection points: 2
#     Edge 89, Type (0, 0), BuildingBlock: XUDNAN_clean_linker_2, # of connection points: 2
#     Edge 90, Type (0, 0), BuildingBlock: XUDNAN_clean_linker_2, # of connection points: 2
#     Edge 91, Type (0, 0), BuildingBlock: XUDNAN_clean_linker_2, # of connection points: 2
#     Edge 92, Type (0, 0), BuildingBlock: XUDNAN_clean_linker_2, # of connection points: 2
#     Edge 93, Type (0, 0), BuildingBlock: XUDNAN_clean_linker_2, # of connection points: 2
#     Edge 94, Type (0, 0), BuildingBlock: XUDNAN_clean_linker_2, # of connection points: 2
#     Edge 95, Type (0, 0), BuildingBlock: XUDNAN_clean_linker_2, # of connection points: 2
#     Edge 96, Type (0, 0), BuildingBlock: XUDNAN_clean_linker_2, # of connection points: 2
#     Edge 97, Type (0, 0), BuildingBlock: XUDNAN_clean_linker_2, # of connection points: 2
#     Edge 98, Type (0, 0), BuildingBlock: XUDNAN_clean_linker_2, # of connection points: 2
#     Edge 99, Type (0, 0), BuildingBlock: XUDNAN_clean_linker_2, # of connection points: 2
#     Edge 100, Type (0, 0), BuildingBlock: XUDNAN_clean_linker_2, # of connection points: 2
#     Edge 101, Type (0, 0), BuildingBlock: XUDNAN_clean_linker_2, # of connection points: 2
#     Edge 102, Type (0, 0), BuildingBlock: XUDNAN_clean_linker_2, # of connection points: 2
#     Edge 103, Type (0, 0), BuildingBlock: XUDNAN_clean_linker_2, # of connection points: 2
#     Edge 104, Type (0, 0), BuildingBlock: XUDNAN_clean_linker_2, # of connection points: 2
#     Edge 105, Type (0, 0), BuildingBlock: XUDNAN_clean_linker_2, # of connection points: 2
#     Edge 106, Type (0, 0), BuildingBlock: XUDNAN_clean_linker_2, # of connection points: 2
#     Edge 107, Type (0, 0), BuildingBlock: XUDNAN_clean_linker_2, # of connection points: 2
# Relax obj value: 0.321
# Max RMSD: 0.319
# Mean RMSD: 0.319
data_MOF--net-umn--node1-NAHDIM_clean_sbu_0--edge1-XUDNAN_clean_linker_2
_symmetry_space_group_name_H-M    P1
_symmetry_Int_Tables_number       1
_symmetry_cell_setting            triclinic
loop_
_symmetry_equiv_pos_as_xyz
'x, y, z'
_cell_length_a     83.747653
_cell_length_b     83.762315
_cell_length_c     35.080097
_cell_angle_alpha  89.985212
_cell_angle_beta   90.007634
_cell_angle_gamma 119.97478
loop_
_atom_site_label
_atom_site_type_symbol
_atom_site_fract_x
_atom_site_fract_y
_atom_site_fract_z
_atom_type_partial_charge
C0 C 0.35711 0.11248 0.23902 0.0
O1 O 0.37363 0.11748 0.22585 0.0
O2 O 0.3778 0.08369 0.2352 0.0
Zn3 Zn 0.35853 0.08135 0.27277 0.0
O4 O 0.36707 0.08786 0.32701 0.0
C5 C 0.32111 0.05081 0.27951 0.0
O6 O 0.31659 0.06373 0.27897 0.0
O7 O 0.34844 0.0977 0.25814 0.0
C8 C 0.36419 0.07502 0.35021 0.0
O9 O 0.35976 0.0587 0.33664 0.0
C10 C 0.37191 0.07926 0.20125 0.0
O11 O 0.35452 0.07386 0.19416 0.0
O12 O 0.33783 0.05512 0.27477 0.0
C13 C 0.87629 0.23424 0.18125 0.0
O14 O 0.88814 0.24776 0.15956 0.0
O15 O 0.88282 0.28081 0.19208 0.0
Zn16 Zn 0.88309 0.26388 0.23343 0.0
O17 O 0.8704 0.26351 0.28231 0.0
C18 C 0.91811 0.2648 0.24879 0.0
O19 O 0.91145 0.2494 0.22933 0.0
O20 O 0.87205 0.23791 0.21358 0.0
C21 C 0.87581 0.27854 0.30017 0.0
O22 O 0.88666 0.29418 0.28274 0.0
C23 C 0.89678 0.28858 0.17014 0.0
O24 O 0.91086 0.28614 0.17665 0.0
O25 O 0.90887 0.27298 0.25185 0.0
C26 C 0.79406 0.67971 0.11827 0.0
O27 O 0.78009 0.67512 0.09513 0.0
O28 O 0.74716 0.64643 0.15215 0.0
Zn29 Zn 0.76592 0.67139 0.17274 0.0
O30 O 0.76501 0.67335 0.2301 0.0
C31 C 0.74752 0.68586 0.12572 0.0
O32 O 0.74291 0.67129 0.10445 0.0
O33 O 0.79136 0.67894 0.15403 0.0
C34 C 0.75119 0.67415 0.24278 0.0
O35 O 0.73801 0.6716 0.21893 0.0
C36 C 0.73541 0.63259 0.17112 0.0
O37 O 0.7359 0.63325 0.20853 0.0
O38 O 0.75849 0.68927 0.15349 0.0
C39 C 0.11195 0.32791 0.30267 0.0
O40 O 0.11986 0.34317 0.28251 0.0
O41 O 0.08809 0.35515 0.30682 0.0
Zn42 Zn 0.08041 0.33028 0.28381 0.0
O43 O 0.0832 0.32952 0.22673 0.0
C44 C 0.04598 0.3161 0.32463 0.0
O45 O 0.05602 0.32862 0.35014 0.0
O46 O 0.09466 0.31977 0.30796 0.0
C47 C 0.06949 0.32539 0.20506 0.0
O48 O 0.05454 0.32432 0.21964 0.0
C49 C 0.08129 0.36503 0.29646 0.0
O50 O 0.07073 0.36027 0.26606 0.0
O51 O 0.05373 0.31397 0.29554 0.0
C52 C 0.62687 0.74966 0.24371 0.0
O53 O 0.60997 0.74227 0.2305 0.0
O54 O 0.60881 0.6963 0.27177 0.0
Zn55 Zn 0.6229 0.71369 0.2286 0.0
O56 O 0.60841 0.70979 0.18062 0.0
C57 C 0.66025 0.72027 0.21346 0.0
O58 O 0.6663 0.73474 0.23574 0.0
O59 O 0.63458 0.73994 0.24578 0.0
C60 C 0.60629 0.69579 0.16219 0.0
O61 O 0.60336 0.68123 0.18194 0.0
C62 C 0.61811 0.69273 0.29542 0.0
O63 O 0.63594 0.70007 0.29007 0.0
O64 O 0.64304 0.70949 0.20942 0.0
C65 C 0.21983 0.85722 0.38766 0.0
O66 O 0.23557 0.85926 0.39991 0.0
O67 O 0.26574 0.88916 0.35703 0.0
Zn68 Zn 0.24239 0.88696 0.33456 0.0
O69 O 0.24013 0.88197 0.27772 0.0
C70 C 0.25363 0.92318 0.36562 0.0
O71 O 0.26258 0.91897 0.39068 0.0
O72 O 0.2198 0.86735 0.36073 0.0
C73 C 0.24672 0.89566 0.25502 0.0
O74 O 0.25567 0.91242 0.26908 0.0
C75 C 0.28135 0.90231 0.34653 0.0
O76 O 0.282 0.9131 0.31869 0.0
O77 O 0.24326 0.91122 0.3414 0.0
C78 C 0.66531 0.88902 0.79648 0.0
O79 O 0.64941 0.88671 0.78458 0.0
O80 O 0.65289 0.92259 0.79862 0.0
Zn81 Zn 0.67424 0.92354 0.77007 0.0
O82 O 0.66885 0.91687 0.71464 0.0
C83 C 0.69718 0.95984 0.80084 0.0
O84 O 0.68555 0.95298 0.82944 0.0
O85 O 0.67954 0.90491 0.79379 0.0
C86 C 0.67107 0.92861 0.68921 0.0
O87 O 0.67558 0.94543 0.69952 0.0
C88 C 0.63906 0.92313 0.78537 0.0
O89 O 0.63734 0.9241 0.74835 0.0
O90 O 0.69572 0.94937 0.77324 0.0
C91 C 0.12858 0.74446 0.76384 0.0
O92 O 0.13175 0.73204 0.74833 0.0
O93 O 0.09161 0.69556 0.78289 0.0
Zn94 Zn 0.09018 0.7164 0.75638 0.0
O95 O 0.08663 0.71518 0.69895 0.0
C96 C 0.05408 0.70047 0.78614 0.0
O97 O 0.05555 0.68569 0.78183 0.0
O98 O 0.11208 0.74063 0.76967 0.0
C99 C 0.07241 0.70244 0.6825 0.0
O100 O 0.06111 0.68771 0.70208 0.0
C101 C 0.09292 0.69798 0.81888 0.0
O102 O 0.09595 0.71391 0.83225 0.0
O103 O 0.06773 0.71613 0.77789 0.0
C104 C 0.22749 0.36412 0.81762 0.0
O105 O 0.23467 0.35718 0.84109 0.0
O106 O 0.2826 0.39784 0.80045 0.0
Zn107 Zn 0.26118 0.37625 0.77464 0.0
O108 O 0.26174 0.37628 0.71738 0.0
C109 C 0.2772 0.35447 0.7953 0.0
O110 O 0.29197 0.37088 0.79712 0.0
O111 O 0.23674 0.37334 0.78894 0.0
C112 C 0.2727 0.37304 0.69827 0.0
O113 O 0.2871 0.37394 0.71528 0.0
C114 C 0.28062 0.40653 0.82806 0.0
O115 O 0.26403 0.40335 0.83671 0.0
O116 O 0.2617 0.35321 0.78874 0.0
C117 C 0.8844 0.65467 0.70975 0.0
O118 O 0.89856 0.6549 0.69306 0.0
O119 O 0.88718 0.61181 0.71855 0.0
Zn120 Zn 0.89035 0.63132 0.75664 0.0
O121 O 0.88684 0.62469 0.81243 0.0
C122 C 0.92444 0.66404 0.77606 0.0
O123 O 0.91388 0.66895 0.79429 0.0
O124 O 0.87744 0.64468 0.73915 0.0
C125 C 0.8996 0.62195 0.82461 0.0
O126 O 0.9058 0.61403 0.80123 0.0
C127 C 0.88078 0.59453 0.72121 0.0
O128 O 0.87373 0.58612 0.75367 0.0
O129 O 0.91717 0.64943 0.75609 0.0
C130 C 0.33969 0.22825 0.68241 0.0
O131 O 0.35685 0.23685 0.69447 0.0
O132 O 0.36569 0.27904 0.65989 0.0
Zn133 Zn 0.34593 0.26328 0.69736 0.0
O134 O 0.35518 0.2615 0.74912 0.0
C135 C 0.31401 0.26505 0.72204 0.0
O136 O 0.30754 0.24766 0.73098 0.0
O137 O 0.33139 0.23734 0.67853 0.0
C138 C 0.35602 0.2718 0.77651 0.0
O139 O 0.35398 0.28607 0.76937 0.0
C140 C 0.38199 0.29137 0.66847 0.0
O141 O 0.38715 0.29384 0.70437 0.0
O142 O 0.32956 0.27395 0.70559 0.0
C143 C 0.74705 0.14089 0.74777 0.0
O144 O 0.73919 0.13355 0.71504 0.0
O145 O 0.70198 0.108 0.72671 0.0
Zn146 Zn 0.71406 0.10989 0.7776 0.0
O147 O 0.69748 0.11026 0.81918 0.0
C148 C 0.7298 0.08637 0.76537 0.0
O149 O 0.7401 0.09909 0.74045 0.0
O150 O 0.73875 0.13331 0.77857 0.0
C151 C 0.6953 0.10441 0.85338 0.0
O152 O 0.68258 0.10492 0.87439 0.0
C153 C 0.69128 0.09257 0.71112 0.0
O154 O 0.68753 0.07731 0.72903 0.0
O155 O 0.71768 0.08802 0.78396 0.0
C156 C 0.0319 0.46388 0.54856 0.0
O157 O 0.04928 0.47677 0.55175 0.0
O158 O 0.05522 0.43442 0.51925 0.0
Zn159 Zn 0.04484 0.43825 0.56811 0.0
O160 O 0.06495 0.45664 0.60279 0.0
C161 C 0.01324 0.40542 0.59603 0.0
O162 O 0.0045 0.41159 0.57504 0.0
O163 O 0.02739 0.44715 0.5537 0.0
C164 C 0.06382 0.45731 0.63894 0.0
O165 O 0.07855 0.46878 0.65838 0.0
C166 C 0.06289 0.42464 0.51699 0.0
O167 O 0.0649 0.41707 0.54809 0.0
O168 O 0.03075 0.41418 0.59641 0.0
C169 C 0.56318 0.55763 0.53373 0.0
O170 O 0.55566 0.56565 0.55293 0.0
O171 O 0.59602 0.60938 0.52728 0.0
Zn172 Zn 0.59509 0.58919 0.56023 0.0
O173 O 0.58485 0.58705 0.6131 0.0
C174 C 0.6293 0.58666 0.55669 0.0
O175 O 0.6209 0.57243 0.53375 0.0
O176 O 0.58062 0.56514 0.53291 0.0
C177 C 0.59565 0.5979 0.63849 0.0
O178 O 0.61158 0.61187 0.6279 0.0
C179 C 0.58321 0.61304 0.52136 0.0
O180 O 0.56761 0.60393 0.54009 0.0
O181 O 0.62095 0.59483 0.56857 0.0
C182 C 0.45029 0.01028 0.48588 0.0
O183 O 0.44233 0.99395 0.50208 0.0
O184 O 0.39919 0.98676 0.49329 0.0
Zn185 Zn 0.41962 0.00889 0.51978 0.0
O186 O 0.42581 0.0039 0.57229 0.0
C187 C 0.4206 0.04072 0.55099 0.0
O188 O 0.43772 0.04531 0.55862 0.0
O189 O 0.44263 0.02003 0.48847 0.0
C190 C 0.41477 0.00236 0.59877 0.0
O191 O 0.39845 -0.0002 0.58949 0.0
C192 C 0.39115 0.97012 0.50458 0.0
O193 O 0.39643 0.96596 0.53651 0.0
O194 O 0.41096 0.02683 0.52987 0.0
C195 C 0.80893 0.70686 0.6272 0.0
O196 O 0.79434 0.70048 0.6493 0.0
O197 O 0.7773 0.72617 0.61309 0.0
Zn198 Zn 0.78447 0.71118 0.57945 0.0
O199 O 0.78379 0.71599 0.52347 0.0
C200 C 0.7532 0.67825 0.61128 0.0
O201 O 0.75351 0.68944 0.63786 0.0
O202 O 0.80853 0.71342 0.5948 0.0
C203 C 0.76828 0.71294 0.51084 0.0
O204 O 0.75508 0.70954 0.53531 0.0
C205 C 0.7881 0.73859 0.63618 0.0
O206 O 0.80563 0.74343 0.6367 0.0
O207 O 0.76525 0.68452 0.58505 0.0
C208 C 0.29609 0.09597 0.68264 0.0
O209 O 0.28262 0.08249 0.6635 0.0
O210 O 0.28901 0.04865 0.71088 0.0
Zn211 Zn 0.30924 0.07067 0.68396 0.0
O212 O 0.30911 0.06927 0.62664 0.0
C213 C 0.33477 0.05928 0.70467 0.0
O214 O 0.31939 0.04359 0.70972 0.0
O215 O 0.30879 0.09362 0.69647 0.0
C216 C 0.31318 0.05881 0.60786 0.0
O217 O 0.31413 0.04548 0.62554 0.0
C218 C 0.27494 0.03493 0.69642 0.0
O219 O 0.27193 0.0346 0.6596 0.0
O220 O 0.33386 0.0737 0.69804 0.0
C221 C 0.87377 0.23868 0.69815 0.0
O222 O 0.88767 0.24863 0.72101 0.0
O223 O 0.9173 0.24387 0.64754 0.0
Zn224 Zn 0.90105 0.25491 0.63736 0.0
O225 O 0.89666 0.25734 0.58127 0.0
C226 C 0.92536 0.28533 0.68758 0.0
O227 O 0.92672 0.27266 0.70703 0.0
O228 O 0.87646 0.23947 0.66239 0.0
C229 C 0.89086 0.26851 0.57445 0.0
O230 O 0.88831 0.27703 0.60322 0.0
C231 C 0.93456 0.25378 0.64194 0.0
O232 O 0.94078 0.26954 0.62389 0.0
O233 O 0.91442 0.28057 0.65928 0.0
C234 C 0.32079 0.20373 0.17334 0.0
O235 O 0.30878 0.20736 0.18933 0.0
O236 O 0.29861 0.22661 0.14223 0.0
Zn237 Zn 0.32127 0.22868 0.11678 0.0
O238 O 0.31788 0.22331 0.06069 0.0
C239 C 0.35583 0.26065 0.09772 0.0
O240 O 0.35911 0.24853 0.08109 0.0
O241 O 0.32846 0.21169 0.14229 0.0
C242 C 0.31785 0.23581 0.0402 0.0
O243 O 0.31649 0.24911 0.05693 0.0
C244 C 0.29734 0.2409 0.14821 0.0
O245 O 0.31006 0.25678 0.13437 0.0
O246 O 0.34165 0.25503 0.11873 0.0
C247 C 0.80096 0.10233 0.13012 0.0
O248 O 0.78849 0.09477 0.1571 0.0
O249 O 0.77372 0.0493 0.12213 0.0
Zn250 Zn 0.77458 0.0703 0.09139 0.0
O251 O 0.76925 0.06582 0.03475 0.0
C252 C 0.74117 0.06378 0.12988 0.0
O253 O 0.74214 0.05015 0.14604 0.0
O254 O 0.79849 0.09376 0.09885 0.0
C255 C 0.75233 0.05704 0.02509 0.0
O256 O 0.7399 0.04796 0.05141 0.0
C257 C 0.76334 0.03228 0.11468 0.0
O258 O 0.75381 0.02745 0.08289 0.0
O259 O 0.75443 0.07511 0.10916 0.0
C260 C 0.92393 0.72039 0.06647 0.0
O261 O 0.93255 0.72228 0.0989 0.0
O262 O 0.96967 0.73046 0.08555 0.0
Zn263 Zn 0.9566 0.72221 0.03461 0.0
O264 O 0.97291 0.73984 0.99377 0.0
C265 C 0.9429 0.68484 0.05154 0.0
O266 O 0.93694 0.68995 0.08116 0.0
O267 O 0.9319 0.72072 0.03542 0.0
C268 C 0.97661 0.736 0.96103 0.0
O269 O 0.98904 0.74937 0.93984 0.0
C270 C 0.9862 0.73371 0.08708 0.0
O271 O 0.99396 0.73226 0.05571 0.0
O272 O 0.95208 0.69664 0.02598 0.0
C273 C 0.55023 0.98357 0.03581 0.0
O274 O 0.54648 0.96828 0.05364 0.0
O275 O 0.58087 0.96612 0.99514 0.0
Zn276 Zn 0.58501 0.98607 0.03296 0.0
O277 O 0.58486 0.98049 0.08908 0.0
C278 C 0.61664 0.0227 0.03999 0.0
O279 O 0.60491 0.02685 0.05549 0.0
O280 O 0.56649 0.99405 0.02364 0.0
C281 C 0.59928 0.98128 0.10297 0.0
O282 O 0.61165 0.98157 0.0796 0.0
C283 C 0.58596 0.95421 0.99837 0.0
O284 O 0.59305 0.95281 0.0307 0.0
O285 O 0.61069 0.00693 0.02492 0.0
C286 C 0.98566 0.53564 0.02008 0.0
O287 O -0.00068 0.5397 0.04378 0.0
O288 O 0.0166 0.58827 0.01253 0.0
Zn289 Zn 0.99338 0.57139 0.04213 0.0
O290 O 0.99668 0.5668 0.0975 0.0
C291 C 0.97186 0.5885 0.01616 0.0
O292 O 0.97815 0.58884 0.98168 0.0
O293 O 0.98041 0.54729 0.01472 0.0
C294 C 0.99663 0.57784 0.12237 0.0
O295 O 0.99765 0.59325 0.11088 0.0
C296 C 0.02396 0.60572 0.0127 0.0
O297 O 0.01742 0.61341 0.03583 0.0
O298 O 0.97659 0.58184 0.04348 0.0
C299 C 0.43181 0.45705 0.05295 0.0
O300 O 0.41846 0.45577 0.07472 0.0
O301 O 0.38528 0.42413 0.00245 0.0
Zn302 Zn 0.40358 0.42111 0.03449 0.0
O303 O 0.39694 0.41734 0.09021 0.0
C304 C 0.38926 0.38414 0.0107 0.0
O305 O 0.37443 0.3856 0.007 0.0
O306 O 0.42866 0.44367 0.03113 0.0
C307 C 0.38197 0.40473 0.10447 0.0
O308 O 0.36841 0.39374 0.08184 0.0
C309 C 0.3763 0.43171 0.01413 0.0
O310 O 0.37879 0.43806 0.04916 0.0
O311 O 0.40445 0.39842 0.019 0.0
C312 C 0.69668 0.79544 0.87366 0.0
O313 O 0.71451 0.80269 0.87882 0.0
O314 O 0.71617 0.76387 0.85856 0.0
Zn315 Zn 0.69467 0.76044 0.8907 0.0
O316 O 0.69873 0.76071 0.94719 0.0
C317 C 0.6595 0.73089 0.90558 0.0
O318 O 0.65862 0.74434 0.92292 0.0
O319 O 0.68621 0.77815 0.87694 0.0
C320 C 0.69802 0.74595 0.9586 0.0
O321 O 0.70224 0.73675 0.93412 0.0
C322 C 0.71242 0.75671 0.82547 0.0
O323 O 0.69515 0.74788 0.81423 0.0
O324 O 0.67334 0.73483 0.88449 0.0
C325 C 0.20966 0.86818 0.86557 0.0
O326 O 0.19948 0.87484 0.87872 0.0
O327 O 0.22973 0.91772 0.87037 0.0
Zn328 Zn 0.23721 0.90132 0.89797 0.0
O329 O 0.22903 0.89623 0.95286 0.0
C330 C 0.27402 0.92061 0.86718 0.0
O331 O 0.26535 0.91847 0.8347 0.0
O332 O 0.22699 0.87737 0.87028 0.0
C333 C 0.23945 0.90728 0.97843 0.0
O334 O 0.25435 0.9225 0.96808 0.0
C335 C 0.23874 0.935 0.87617 0.0
O336 O 0.25142 0.94148 0.90289 0.0
O337 O 0.26472 0.91388 0.89741 0.0
C338 C 0.09586 0.30991 0.87326 0.0
O339 O 0.09263 0.30593 0.90967 0.0
O340 O 0.03753 0.28201 0.83176 0.0
Zn341 Zn 0.05692 0.29468 0.87254 0.0
O342 O 0.05458 0.27976 0.91923 0.0
C343 C 0.05804 0.33029 0.87781 0.0
O344 O 0.06415 0.33334 0.84255 0.0
O345 O 0.08242 0.30586 0.85091 0.0
C346 C 0.04291 0.27897 0.94341 0.0
O347 O 0.02977 0.282 0.93147 0.0
C348 C 0.02499 0.26516 0.83065 0.0
O349 O 0.02412 0.25396 0.85784 0.0
O350 O 0.05427 0.31529 0.89402 0.0
C351 C 0.47046 0.03223 0.95674 0.0
O352 O 0.48023 0.04806 0.93911 0.0
O353 O 0.43898 0.05463 0.97129 0.0
Zn354 Zn 0.44035 0.03713 0.9336 0.0
O355 O 0.45233 0.04794 0.88323 0.0
C356 C 0.40218 0.00543 0.93885 0.0
O357 O 0.4046 0.00519 0.97581 0.0
O358 O 0.45306 0.02496 0.95816 0.0
C359 C 0.44195 0.0498 0.85936 0.0
O360 O 0.42698 0.04937 0.87201 0.0
C361 C 0.42451 0.05588 0.97434 0.0
O362 O 0.41105 0.0471 0.94979 0.0
O363 O 0.41508 0.01736 0.91831 0.0
C364 C 0.94997 0.41723 0.89851 0.0
O365 O 0.93961 0.40887 0.86875 0.0
O366 O 0.93948 0.36535 0.92372 0.0
Zn367 Zn 0.95883 0.38792 0.8959 0.0
O368 O 0.95882 0.38746 0.83806 0.0
C369 C 0.98732 0.3867 0.94222 0.0
O370 O 0.97564 0.38203 0.9707 0.0
O371 O 0.95896 0.41054 0.91435 0.0
C372 C 0.96818 0.38101 0.82269 0.0
O373 O 0.97318 0.37126 0.84371 0.0
C374 C 0.92564 0.36465 0.94033 0.0
O375 O 0.92194 0.37797 0.9347 0.0
O376 O 0.98312 0.39053 0.9101 0.0
C377 C 0.56198 0.55297 0.03644 0.0
O378 O 0.57147 0.56884 0.05409 0.0
O379 O 0.61386 0.56459 0.01921 0.0
Zn380 Zn 0.59453 0.56731 0.9898 0.0
O381 O 0.59442 0.56365 0.93265 0.0
C382 C 0.61449 0.60658 0.00224 0.0
O383 O 0.62849 0.60376 0.00564 0.0
O384 O 0.56933 0.54916 0.00886 0.0
C385 C 0.60479 0.57693 0.91067 0.0
O386 O 0.61752 0.59249 0.92561 0.0
C387 C 0.62965 0.56869 0.00634 0.0
O388 O 0.63364 0.57378 0.97058 0.0
O389 O 0.59843 0.59294 0.99717 0.0
C390 C 0.95479 0.5186 0.49176 0.0
O391 O 0.93725 0.51089 0.48276 0.0
O392 O 0.93289 0.54749 0.49854 0.0
Zn393 Zn 0.95463 0.55095 0.46674 0.0
O394 O 0.94987 0.54477 0.4106 0.0
C395 C 0.98487 0.58666 0.49563 0.0
O396 O 0.98379 0.57861 0.52842 0.0
O397 O 0.96499 0.53592 0.48817 0.0
C398 C 0.95298 0.55765 0.38726 0.0
O399 O 0.95576 0.57348 0.40068 0.0
C400 C 0.92999 0.56092 0.50269 0.0
O401 O 0.93991 0.57602 0.48282 0.0
O402 O 0.97426 0.57744 0.46846 0.0
C403 C 0.46434 0.44078 0.43425 0.0
O404 O 0.46456 0.42651 0.4193 0.0
O405 O 0.43071 0.39611 0.46945 0.0
Zn406 Zn 0.42628 0.41452 0.44107 0.0
O407 O 0.41956 0.40785 0.38576 0.0
C408 C 0.39479 0.40414 0.48987 0.0
O409 O 0.40035 0.39359 0.50586 0.0
O410 O 0.44909 0.43908 0.44509 0.0
C411 C 0.40282 0.39665 0.37724 0.0
O412 O 0.39074 0.38865 0.40473 0.0
C413 C 0.42276 0.37895 0.46246 0.0
O414 O 0.41158 0.3723 0.43315 0.0
O415 O 0.40472 0.4155 0.46428 0.0
C416 C 0.57519 0.042 0.41051 0.0
O417 O 0.58863 0.05657 0.39385 0.0
O418 O 0.61948 0.04427 0.45944 0.0
Zn419 Zn 0.60253 0.03099 0.41556 0.0
O420 O 0.61301 0.04138 0.36421 0.0
C421 C 0.58703 0.98957 0.41863 0.0
O422 O 0.57244 0.98661 0.43824 0.0
O423 O 0.57806 0.02931 0.42234 0.0
C424 C 0.6263 0.03897 0.35465 0.0
O425 O 0.63516 0.03568 0.38164 0.0
C426 C 0.62855 0.0617 0.4628 0.0
O427 O 0.62734 0.07199 0.43595 0.0
O428 O 0.5994 0.00587 0.41028 0.0
C429 C 0.20398 0.29417 0.37799 0.0
O430 O 0.20217 0.27957 0.39584 0.0
O431 O 0.24464 0.28746 0.35292 0.0
Zn432 Zn 0.24087 0.30404 0.3884 0.0
O433 O 0.23583 0.29598 0.44298 0.0
C434 C 0.26651 0.34122 0.41219 0.0
O435 O 0.25194 0.34058 0.42778 0.0
O436 O 0.22006 0.30725 0.37022 0.0
C437 C 0.24959 0.30069 0.46477 0.0
O438 O 0.26549 0.30474 0.44946 0.0
C439 C 0.23713 0.27001 0.35265 0.0
O440 O 0.2252 0.26024 0.3793 0.0
O441 O 0.26453 0.32806 0.39094 0.0
C442 C 0.67364 0.87873 0.31599 0.0
O443 O 0.68971 0.89114 0.32977 0.0
O444 O 0.68551 0.92739 0.30082 0.0
Zn445 Zn 0.66604 0.90713 0.3336 0.0
O446 O 0.67377 0.90901 0.38846 0.0
C447 C 0.64109 0.92076 0.31663 0.0
O448 O 0.65424 0.93175 0.29314 0.0
O449 O 0.66077 0.88254 0.31394 0.0
C450 C 0.67351 0.92106 0.41005 0.0
O451 O 0.66992 0.93333 0.39518 0.0
C452 C 0.70214 0.93789 0.31097 0.0
O453 O 0.70748 0.9358 0.3449 0.0
O454 O 0.6428 0.90859 0.33481 0.0
C455 C 0.0912 0.76751 0.44561 0.0
O456 O 0.08386 0.75183 0.46425 0.0
O457 O 0.04728 0.75306 0.36387 0.0
Zn458 Zn 0.05374 0.75387 0.41978 0.0
O459 O 0.03967 0.76284 0.45135 0.0
C460 C 0.04381 0.71523 0.41625 0.0
O461 O 0.04222 0.71686 0.37941 0.0
O462 O 0.08092 0.77132 0.42546 0.0
C463 C 0.03484 0.75855 0.48593 0.0
O464 O 0.02545 0.76517 0.50304 0.0
C465 C 0.03126 0.74829 0.35121 0.0
O466 O 0.01763 0.74345 0.3754 0.0
O467 O 0.0482 0.72893 0.43792 0.0
H468 H 0.28847 0.95198 0.36828 0.0
H469 H 0.23221 0.93749 0.34246 0.0
H470 H 0.24317 0.96937 0.31981 0.0
H471 H 0.30576 -0.00052 0.39698 0.0
H472 H 0.32773 0.00785 0.37369 0.0
H473 H 0.31544 0.98465 0.39198 0.0
H474 H 0.31566 0.97122 0.32523 0.0
H475 H 0.32866 0.99439 0.30723 0.0
H476 H 0.30732 0.97804 0.28465 0.0
H477 H 0.26075 0.00256 0.29724 0.0
H478 H 0.28345 0.03396 0.27506 0.0
H479 H 0.32803 0.02512 0.31094 0.0
C480 C 0.27842 0.95572 0.35908 0.0
C481 C 0.25948 0.94257 0.35804 0.0
C482 C 0.24675 0.94761 0.34412 0.0
C483 C 0.25286 0.9656 0.33113 0.0
C484 C 0.27174 0.97816 0.33159 0.0
C485 C 0.28431 0.97338 0.34504 0.0
C486 C 0.30392 0.98876 0.33928 0.0
C487 C 0.31382 0.99561 0.37775 0.0
C488 C 0.31451 0.98274 0.31252 0.0
C489 C 0.30045 0.00299 0.32054 0.0
C490 C 0.28183 0.99674 0.31665 0.0
C491 C 0.27537 0.00759 0.30013 0.0
C492 C 0.28832 0.02535 0.28753 0.0
C493 C 0.30745 0.03186 0.29094 0.0
C494 C 0.3135 0.02045 0.3075 0.0
H495 H 0.02167 0.28889 0.27744 0.0
H496 H 0.02456 0.32304 0.37327 0.0
H497 H 0.99113 0.31135 0.36757 0.0
H498 H 0.99249 0.29672 0.22244 0.0
H499 H 0.9795 0.27378 0.20309 0.0
H500 H 0.00292 0.28248 0.21819 0.0
H501 H 0.99255 0.25461 0.26363 0.0
H502 H 0.96906 0.24563 0.24825 0.0
H503 H 0.97471 0.24948 0.29823 0.0
H504 H 0.95885 0.29975 0.34532 0.0
H505 H 0.92906 0.28683 0.31164 0.0
H506 H 0.94703 0.25961 0.23133 0.0
C507 C 0.0152 0.29355 0.29792 0.0
C508 C 0.02569 0.30686 0.32583 0.0
C509 C 0.01676 0.31275 0.35183 0.0
C510 C 0.99779 0.30622 0.34877 0.0
C511 C 0.988 0.29364 0.31993 0.0
C512 C 0.99633 0.28712 0.29536 0.0
C513 C 0.98305 0.27467 0.26514 0.0
C514 C 0.9899 0.28238 0.22486 0.0
C515 C 0.97964 0.25492 0.26907 0.0
C516 C 0.96609 0.27568 0.27575 0.0
C517 C 0.96922 0.28665 0.30751 0.0
C518 C 0.9561 0.29085 0.32091 0.0
C519 C 0.93931 0.28358 0.30142 0.0
C520 C 0.93579 0.27218 0.26905 0.0
C521 C 0.94929 0.26806 0.25635 0.0
H522 H 0.74818 0.71094 0.17632 0.0
H523 H 0.72106 0.68076 0.07341 0.0
H524 H 0.69776 0.69038 0.08036 0.0
H525 H 0.70975 0.69683 0.22754 0.0
H526 H 0.71675 0.71795 0.25321 0.0
H527 H 0.73385 0.71285 0.23566 0.0
H528 H 0.74982 0.74361 0.19819 0.0
H529 H 0.73298 0.7491 0.21629 0.0
H530 H 0.73654 0.74903 0.16563 0.0
H531 H 0.67427 0.69747 0.10545 0.0
H532 H 0.6535 0.70376 0.14433 0.0
H533 H 0.69582 0.72966 0.23066 0.0
C534 C 0.73781 0.70697 0.15432 0.0
C535 C 0.73647 0.69515 0.12422 0.0
C536 C 0.72242 0.68991 0.09656 0.0
C537 C 0.70912 0.69531 0.10029 0.0
C538 C 0.71022 0.70607 0.13159 0.0
C539 C 0.72439 0.71212 0.1578 0.0
C540 C 0.7212 0.72155 0.1914 0.0
C541 C 0.72033 0.7117 0.22914 0.0
C542 C 0.73602 0.74204 0.19295 0.0
C543 C 0.70259 0.71909 0.1809 0.0
C544 C 0.6966 0.71031 0.14607 0.0
C545 C 0.67901 0.70476 0.13224 0.0
C546 C 0.66725 0.70823 0.15461 0.0
C547 C 0.67314 0.71726 0.19021 0.0
C548 C 0.69113 0.72302 0.2032 0.0
H549 H 0.69705 0.9867 0.84484 0.0
H550 H 0.72367 0.97848 0.74671 0.0
H551 H 0.73916 0.01178 0.73283 0.0
H552 H 0.68545 0.01511 0.80318 0.0
H553 H 0.68961 0.03058 0.8424 0.0
H554 H 0.68419 0.0073 0.85158 0.0
H555 H 0.71382 0.01879 0.89064 0.0
H556 H 0.7204 0.04252 0.88191 0.0
H557 H 0.73588 0.03434 0.86954 0.0
H558 H 0.74745 0.04461 0.72329 0.0
H559 H 0.74779 0.07421 0.71894 0.0
H560 H 0.71513 0.06078 0.82235 0.0
C561 C 0.70669 0.99199 0.82129 0.0
C562 C 0.70923 0.98001 0.79698 0.0
C563 C 0.72159 0.98742 0.76587 0.0
C564 C 0.73051 0.00634 0.75782 0.0
C565 C 0.72704 0.01767 0.78135 0.0
C566 C 0.71559 0.01081 0.81276 0.0
C567 C 0.71236 0.02538 0.83074 0.0
C568 C 0.69169 0.01922 0.83203 0.0
C569 C 0.72113 0.03054 0.87059 0.0
C570 C 0.72267 0.04107 0.80299 0.0
C571 C 0.73152 0.03657 0.77537 0.0
C572 C 0.74087 0.04842 0.74518 0.0
C573 C 0.74094 0.06518 0.74287 0.0
C574 C 0.73142 0.06973 0.77021 0.0
C575 C 0.72253 0.05766 0.80103 0.0
H576 H 0.02111 0.66968 0.77664 0.0
H577 H 0.04612 0.72672 0.81252 0.0
H578 H 0.01499 0.72312 0.81986 0.0
H579 H 0.98881 0.6708 0.71806 0.0
H580 H 0.97099 0.64745 0.72764 0.0
H581 H 0.99481 0.65373 0.73188 0.0
H582 H 0.98905 0.64163 0.80104 0.0
H583 H 0.96519 0.63553 0.7981 0.0
H584 H 0.97966 0.65068 0.83536 0.0
H585 H 0.9805 0.71308 0.81949 0.0
H586 H 0.94694 0.6986 0.80642 0.0
H587 H 0.94662 0.64964 0.76503 0.0
C588 C 0.0201 0.68131 0.78705 0.0
C589 C 0.03593 0.69839 0.79452 0.0
C590 C 0.03405 0.71346 0.80694 0.0
C591 C 0.01647 0.71151 0.81131 0.0
C592 C 0.00108 0.69449 0.80271 0.0
C593 C 0.00284 0.67972 0.79064 0.0
C594 C 0.98463 0.66356 0.77885 0.0
C595 C 0.98483 0.65862 0.73662 0.0
C596 C 0.97931 0.64687 0.8049 0.0
C597 C 0.97231 0.67162 0.78523 0.0
C598 C 0.9818 0.68927 0.7999 0.0
C599 C 0.97298 0.6993 0.80782 0.0
C600 C 0.954 0.69105 0.80013 0.0
C601 C 0.94434 0.67321 0.78388 0.0
C602 C 0.95369 0.66347 0.77664 0.0
H603 H 0.32909 0.30211 0.73012 0.0
H604 H 0.27797 0.25039 0.74478 0.0
H605 H 0.26295 0.26746 0.76902 0.0
H606 H 0.32509 0.32371 0.81513 0.0
H607 H 0.3352 0.34624 0.79364 0.0
H608 H 0.34167 0.32989 0.77718 0.0
H609 H 0.33236 0.33289 0.7081 0.0
H610 H 0.3261 0.34941 0.72426 0.0
H611 H 0.30952 0.32908 0.69905 0.0
H612 H 0.25337 0.29079 0.78853 0.0
H613 H 0.25028 0.31814 0.80246 0.0
H614 H 0.3085 0.35373 0.77871 0.0
C615 C 0.31469 0.29433 0.73816 0.0
C616 C 0.30461 0.27495 0.73524 0.0
C617 C 0.28589 0.26527 0.74668 0.0
C618 C 0.27729 0.27484 0.76053 0.0
C619 C 0.28771 0.29399 0.76326 0.0
C620 C 0.30604 0.30358 0.75253 0.0
C621 C 0.31433 0.32407 0.75828 0.0
C622 C 0.32999 0.3314 0.78782 0.0
C623 C 0.32096 0.33447 0.72016 0.0
C624 C 0.29775 0.32463 0.77347 0.0
C625 C 0.28248 0.30719 0.77607 0.0
C626 C 0.2653 0.30449 0.78711 0.0
C627 C 0.26368 0.32006 0.79502 0.0
C628 C 0.2792 0.338 0.79217 0.0
C629 C 0.29646 0.34019 0.78198 0.0
H630 H 0.97591 0.38513 0.60439 0.0
H631 H 0.02688 0.38896 0.64335 0.0
H632 H 0.009 0.36089 0.68218 0.0
H633 H 0.94891 0.36531 0.69473 0.0
H634 H 0.92823 0.35081 0.66808 0.0
H635 H 0.94512 0.37298 0.64937 0.0
H636 H 0.94702 0.3571 0.5872 0.0
H637 H 0.93025 0.33506 0.60593 0.0
H638 H 0.95237 0.33879 0.59042 0.0
H639 H 0.98579 0.3308 0.71085 0.0
H640 H 0.95945 0.29941 0.72002 0.0
H641 H 0.92379 0.31511 0.66138 0.0
C642 C 0.98336 0.38031 0.6217 0.0
C643 C 0.00277 0.38919 0.6208 0.0
C644 C 0.01199 0.38234 0.64354 0.0
C645 C 0.00196 0.36654 0.66604 0.0
C646 C 0.9828 0.35801 0.66603 0.0
C647 C 0.97359 0.36465 0.64433 0.0
C648 C 0.95298 0.35172 0.64526 0.0
C649 C 0.94324 0.36075 0.66557 0.0
C650 C 0.94522 0.34528 0.60482 0.0
C651 C 0.9521 0.33619 0.66885 0.0
C652 C 0.96936 0.34035 0.68176 0.0
C653 C 0.97217 0.32751 0.70149 0.0
C654 C 0.95711 0.30972 0.70668 0.0
C655 C 0.93961 0.30489 0.69141 0.0
C656 C 0.93699 0.31852 0.67365 0.0
H657 H 0.6472 0.60996 0.61524 0.0
H658 H 0.65536 0.58075 0.52208 0.0
H659 H 0.6889 0.59751 0.53504 0.0
H660 H 0.68274 0.65168 0.59543 0.0
H661 H 0.68929 0.65931 0.6439 0.0
H662 H 0.66596 0.64212 0.63327 0.0
H663 H 0.66787 0.61987 0.68193 0.0
H664 H 0.69131 0.63708 0.69293 0.0
H665 H 0.68607 0.6144 0.67789 0.0
H666 H 0.72138 0.62162 0.54953 0.0
H667 H 0.74989 0.65065 0.56436 0.0
H668 H 0.72034 0.66374 0.64881 0.0
C669 C 0.65597 0.60669 0.59821 0.0
C670 C 0.64876 0.59413 0.56757 0.0
C671 C 0.66064 0.59026 0.54583 0.0
C672 C 0.67968 0.59967 0.5531 0.0
C673 C 0.68644 0.61257 0.58263 0.0
C674 C 0.67487 0.61586 0.6052 0.0
C675 C 0.68556 0.63192 0.63194 0.0
C676 C 0.6806 0.64715 0.62571 0.0
C677 C 0.68252 0.62542 0.67365 0.0
C678 C 0.705 0.63799 0.61914 0.0
C679 C 0.70527 0.62641 0.59131 0.0
C680 C 0.72141 0.6305 0.57197 0.0
C681 C 0.73752 0.64706 0.58047 0.0
C682 C 0.73732 0.65939 0.60786 0.0
C683 C 0.721 0.65442 0.62831 0.0
H684 H 0.33607 0.03127 0.6696 0.0
H685 H 0.37074 0.08728 0.70943 0.0
H686 H 0.39753 0.08853 0.67632 0.0
H687 H 0.37014 0.01588 0.66833 0.0
H688 H 0.36145 0.00369 0.62405 0.0
H689 H 0.34612 0.00601 0.65666 0.0
H690 H 0.33617 0.02034 0.60349 0.0
H691 H 0.35165 0.01875 0.57019 0.0
H692 H 0.35328 0.04073 0.57934 0.0
H693 H 0.42001 0.0838 0.63498 0.0
H694 H 0.43571 0.07392 0.58848 0.0
H695 H 0.38432 0.02288 0.57026 0.0
C696 C 0.34945 0.04354 0.67278 0.0
C697 C 0.3515 0.05904 0.69278 0.0
C698 C 0.36904 0.07516 0.69474 0.0
C699 C 0.38426 0.07599 0.67595 0.0
C700 C 0.38153 0.0607 0.65485 0.0
C701 C 0.36451 0.04478 0.6533 0.0
C702 C 0.36435 0.03117 0.62491 0.0
C703 C 0.36029 0.01313 0.64467 0.0
C704 C 0.35055 0.02754 0.59256 0.0
C705 C 0.38396 0.04182 0.61075 0.0
C706 C 0.39379 0.05872 0.62859 0.0
C707 C 0.41238 0.07066 0.6206 0.0
C708 C 0.42114 0.06502 0.59405 0.0
C709 C 0.41115 0.04782 0.57528 0.0
C710 C 0.39228 0.03628 0.58351 0.0
H711 H 0.35904 0.35306 0.03521 0.0
H712 H 0.41557 0.37424 0.99884 0.0
H713 H 0.41315 0.34428 0.01517 0.0
H714 H 0.36254 0.33116 0.11625 0.0
H715 H 0.33935 0.3119 0.1139 0.0
H716 H 0.34458 0.33378 0.09395 0.0
H717 H 0.33156 0.31832 0.02861 0.0
H718 H 0.3261 0.29629 0.0483 0.0
H719 H 0.34035 0.30487 0.0064 0.0
H720 H 0.40439 0.31188 0.03798 0.0
H721 H 0.39058 0.28077 0.06719 0.0
H722 H 0.34133 0.28326 0.09419 0.0
C723 C 0.37075 0.35123 0.02955 0.0
C724 C 0.38738 0.36578 0.01505 0.0
C725 C 0.40263 0.36311 0.00946 0.0
C726 C 0.40137 0.34618 0.01868 0.0
C727 C 0.38487 0.33226 0.03398 0.0
C728 C 0.36986 0.33469 0.03945 0.0
C729 C 0.35432 0.31842 0.05966 0.0
C730 C 0.34996 0.32417 0.09822 0.0
C731 C 0.33707 0.30892 0.03422 0.0
C732 C 0.36293 0.30648 0.06504 0.0
C733 C 0.38041 0.31446 0.04953 0.0
C734 C 0.39076 0.30558 0.05041 0.0
C735 C 0.38288 0.288 0.06722 0.0
C736 C 0.36507 0.2798 0.08363 0.0
C737 C 0.35514 0.28931 0.08271 0.0
H738 H 0.64005 0.00958 0.05037 0.0
H739 H 0.63742 0.05996 0.05416 0.0
H740 H 0.6695 0.07671 0.07903 0.0
H741 H 0.66191 0.01682 0.13958 0.0
H742 H 0.67548 0.00642 0.12651 0.0
H743 H 0.65358 -0.0011 0.10393 0.0
H744 H 0.66831 0.0056 0.03771 0.0
H745 H 0.69058 0.01304 0.05861 0.0
H746 H 0.68731 0.02814 0.02707 0.0
H747 H 0.70257 0.08761 0.10238 0.0
H748 H 0.73231 0.09116 0.12507 0.0
H749 H 0.70977 0.03219 0.115 0.0
C750 C 0.64621 0.02418 0.05589 0.0
C751 C 0.63636 0.03355 0.04991 0.0
C752 C 0.64488 0.05261 0.05817 0.0
C753 C 0.66301 0.06217 0.07243 0.0
C754 C 0.67207 0.05226 0.07927 0.0
C755 C 0.66379 0.03363 0.07157 0.0
C756 C 0.6756 0.02565 0.08401 0.0
C757 C 0.66607 0.0111 0.11542 0.0
C758 C 0.68077 0.01764 0.04983 0.0
C759 C 0.69205 0.04275 0.0994 0.0
C760 C 0.68998 0.05807 0.09604 0.0
C761 C 0.70415 0.07564 0.1059 0.0
C762 C 0.72089 0.07752 0.11896 0.0
C763 C 0.723 0.06186 0.12295 0.0
C764 C 0.70826 0.04429 0.11367 0.0
H765 H 0.94829 0.66776 0.99047 0.0
H766 H 0.93304 0.66025 0.11004 0.0
H767 H 0.93372 0.6312 0.11059 0.0
H768 H 0.92208 0.61425 0.96825 0.0
H769 H 0.93937 0.6197 0.93213 0.0
H770 H 0.93184 0.6359 0.9439 0.0
H771 H 0.96769 0.65956 0.95347 0.0
H772 H 0.97339 0.64175 0.94714 0.0
H773 H 0.97963 0.6549 0.99074 0.0
H774 H 0.94146 0.60659 0.10154 0.0
H775 H 0.95518 0.58771 0.0834 0.0
H776 H 0.96487 0.6105 0.96897 0.0
C777 C 0.94458 0.65971 0.01642 0.0
C778 C 0.94068 0.66625 0.0502 0.0
C779 C 0.93599 0.65544 0.08376 0.0
C780 C 0.93625 0.63887 0.08432 0.0
C781 C 0.94075 0.63308 0.05083 0.0
C782 C 0.94443 0.64294 0.01726 0.0
C783 C 0.95023 0.63439 0.98608 0.0
C784 C 0.93502 0.62553 0.95572 0.0
C785 C 0.96885 0.64849 0.96837 0.0
C786 C 0.95152 0.61969 0.00866 0.0
C787 C 0.94518 0.61864 0.0455 0.0
C788 C 0.94607 0.60698 0.07256 0.0
C789 C 0.95399 0.59638 0.06198 0.0
C790 C 0.96113 0.59767 0.02475 0.0
C791 C 0.95938 0.6091 0.99749 0.0
H792 H 0.6403 0.63063 0.95399 0.0
H793 H 0.59596 0.62369 0.02833 0.0
H794 H 0.60145 0.65463 0.00918 0.0
H795 H 0.67031 0.67732 0.96786 0.0
H796 H 0.67768 0.68306 0.91898 0.0
H797 H 0.67035 0.66028 0.93679 0.0
H798 H 0.64549 0.64496 0.88531 0.0
H799 H 0.6529 0.66728 0.86469 0.0
H800 H 0.62909 0.6526 0.87779 0.0
H801 H 0.61308 0.68697 0.98321 0.0
H802 H 0.62927 0.71757 0.9523 0.0
H803 H 0.66398 0.70133 0.89121 0.0
C804 C 0.63187 0.63573 0.96652 0.0
C805 C 0.61798 0.62513 0.99312 0.0
C806 C 0.60682 0.63187 0.00819 0.0
C807 C 0.60979 0.6493 0.99734 0.0
C808 C 0.62355 0.65937 0.97058 0.0
C809 C 0.63423 0.65269 0.95509 0.0
C810 C 0.64777 0.66581 0.92617 0.0
C811 C 0.66771 0.67201 0.93816 0.0
C812 C 0.64355 0.65715 0.88613 0.0
C813 C 0.64354 0.68132 0.92866 0.0
C814 C 0.62948 0.67736 0.95425 0.0
C815 C 0.62386 0.69007 0.96259 0.0
C816 C 0.63309 0.70738 0.94478 0.0
C817 C 0.6477 0.71175 0.91887 0.0
C818 C 0.65264 0.69833 0.91024 0.0
H819 H 0.36992 0.98018 0.97375 0.0
H820 H 0.39432 0.0014 0.8627 0.0
H821 H 0.36461 0.9806 0.83195 0.0
H822 H 0.33972 0.93251 0.944 0.0
H823 H 0.32113 0.92947 0.97466 0.0
H824 H 0.34466 0.94526 0.98797 0.0
H825 H 0.33704 0.9716 0.99393 0.0
H826 H 0.31352 0.95588 0.98069 0.0
H827 H 0.3269 0.97684 0.95398 0.0
H828 H 0.33194 0.95867 0.81329 0.0
H829 H 0.29837 0.93738 0.80842 0.0
H830 H 0.29537 0.93046 0.93141 0.0
C831 C 0.36907 0.9803 0.94296 0.0
C832 C 0.38446 0.99237 0.92069 0.0
C833 C 0.38272 0.99225 0.88044 0.0
C834 C 0.36591 0.98045 0.86262 0.0
C835 C 0.35098 0.96882 0.88541 0.0
C836 C 0.35237 0.96863 0.92467 0.0
C837 C 0.334 0.95537 0.94262 0.0
C838 C 0.33494 0.93972 0.96354 0.0
C839 C 0.32749 0.96553 0.96937 0.0
C840 C 0.32206 0.94833 0.90734 0.0
C841 C 0.33212 0.95617 0.87462 0.0
C842 C 0.32392 0.95231 0.83869 0.0
C843 C 0.30486 0.94021 0.8362 0.0
C844 C 0.29426 0.9322 0.86947 0.0
C845 C 0.30309 0.93621 0.90538 0.0
H846 H 0.05238 0.3568 0.84594 0.0
H847 H 0.05243 0.33169 0.95407 0.0
H848 H 0.03969 0.34914 0.98576 0.0
H849 H 0.06095 0.40266 0.88467 0.0
H850 H 0.04506 0.40331 0.85096 0.0
H851 H 0.05827 0.39251 0.83809 0.0
H852 H 0.02835 0.36249 0.8213 0.0
H853 H 0.01478 0.37276 0.83411 0.0
H854 H 0.01042 0.35166 0.85664 0.0
H855 H 0.02157 0.36423 0.00304 0.0
H856 H -0.00089 0.37516 0.00394 0.0
H857 H 0.01094 0.39062 0.88478 0.0
C858 C 0.05042 0.35558 0.87654 0.0
C859 C 0.05351 0.34305 0.89758 0.0
C860 C 0.05021 0.34131 0.9374 0.0
C861 C 0.04309 0.35126 0.95573 0.0
C862 C 0.03945 0.36297 0.93389 0.0
C863 C 0.04314 0.36528 0.89517 0.0
C864 C 0.03535 0.37631 0.87706 0.0
C865 C 0.05084 0.3948 0.8618 0.0
C866 C 0.02141 0.36513 0.84545 0.0
C867 C 0.02597 0.37909 0.9112 0.0
C868 C 0.02879 0.37163 0.94391 0.0
C869 C 0.01964 0.37056 0.97789 0.0
C870 C 0.00688 0.37678 0.97814 0.0
C871 C 0.00332 0.38381 0.94451 0.0
C872 C 0.01354 0.38558 0.91115 0.0
H873 H 0.02349 0.68114 0.3843 0.0
H874 H 0.05436 0.70908 0.48585 0.0
H875 H 0.04422 0.67898 0.51674 0.0
H876 H 0.98523 0.64608 0.43038 0.0
H877 H 0.98146 0.62831 0.3966 0.0
H878 H 0.9925 0.65198 0.38152 0.0
H879 H 0.02054 0.64977 0.35693 0.0
H880 H 0.00948 0.62602 0.37179 0.0
H881 H 0.03228 0.64216 0.38881 0.0
H882 H 0.02839 0.64567 0.53821 0.0
H883 H 0.00881 0.61197 0.54768 0.0
H884 H 0.98931 0.60649 0.43106 0.0
C885 C 0.02842 0.68092 0.41273 0.0
C886 C 0.03946 0.69737 0.43297 0.0
C887 C 0.04553 0.69656 0.47025 0.0
C888 C 0.03999 0.67955 0.48786 0.0
C889 C 0.02863 0.66353 0.46751 0.0
C890 C 0.02308 0.66409 0.4306 0.0
C891 C 0.01014 0.64499 0.41556 0.0
C892 C 0.99122 0.64272 0.40545 0.0
C893 C 0.01862 0.64047 0.38125 0.0
C894 C 0.00894 0.63363 0.45002 0.0
C895 C 0.01976 0.64448 0.47966 0.0
C896 C 0.02005 0.63699 0.51502 0.0
C897 C 0.00887 0.61787 0.52016 0.0
C898 C 0.99757 0.60659 0.49013 0.0
C899 C 0.99786 0.61466 0.45459 0.0
H900 H 0.29485 0.33469 0.42076 0.0
H901 H 0.27962 0.37658 0.43847 0.0
H902 H 0.31062 0.39734 0.46594 0.0
H903 H 0.32002 0.34275 0.50966 0.0
H904 H 0.33647 0.33763 0.48821 0.0
H905 H 0.3132 0.32685 0.47032 0.0
H906 H 0.3262 0.33925 0.40255 0.0
H907 H 0.34934 0.35025 0.42087 0.0
H908 H 0.34129 0.36366 0.3958 0.0
H909 H 0.34493 0.41438 0.48455 0.0
H910 H 0.37793 0.42491 0.49755 0.0
H911 H 0.36771 0.36966 0.47656 0.0
C912 C 0.29799 0.34825 0.43026 0.0
C913 C 0.28503 0.35422 0.4269 0.0
C914 C 0.28954 0.37191 0.44039 0.0
C915 C 0.30703 0.3837 0.45614 0.0
C916 C 0.31947 0.37727 0.45923 0.0
C917 C 0.31496 0.3598 0.44719 0.0
C918 C 0.33043 0.35583 0.45396 0.0
C919 C 0.32467 0.33982 0.48222 0.0
C920 C 0.33721 0.35203 0.41605 0.0
C921 C 0.3446 0.37394 0.47114 0.0
C922 C 0.33823 0.38629 0.47355 0.0
C923 C 0.34987 0.40465 0.48396 0.0
C924 C 0.3685 0.41051 0.4914 0.0
C925 C 0.37502 0.39788 0.48939 0.0
C926 C 0.36281 0.37935 0.48 0.0
H927 H 0.6378 0.95025 0.29482 0.0
H928 H 0.61208 0.90114 0.36538 0.0
H929 H 0.59171 0.91144 0.39346 0.0
H930 H 0.64154 0.97947 0.36323 0.0
H931 H 0.63682 0.99465 0.33528 0.0
H932 H 0.64625 0.98194 0.31274 0.0
H933 H 0.61953 0.96762 0.26503 0.0
H934 H 0.60925 0.97999 0.28611 0.0
H935 H 0.59605 0.9553 0.28184 0.0
H936 H 0.57761 0.92954 0.42104 0.0
H937 H 0.57139 0.95381 0.44495 0.0
H938 H 0.60725 0.99094 0.35725 0.0
C939 C 0.62742 0.94129 0.3151 0.0
C940 C 0.62648 0.92486 0.32775 0.0
C941 C 0.61299 0.91376 0.35507 0.0
C942 C 0.60131 0.91947 0.37114 0.0
C943 C 0.60319 0.93621 0.35932 0.0
C944 C 0.61579 0.94684 0.33152 0.0
C945 C 0.61687 0.9653 0.32721 0.0
C946 C 0.63653 0.98126 0.33508 0.0
C947 C 0.61003 0.96715 0.28768 0.0
C948 C 0.60362 0.96376 0.35809 0.0
C949 C 0.5955 0.94678 0.37582 0.0
C950 C 0.58365 0.94278 0.40691 0.0
C951 C 0.58022 0.95662 0.42038 0.0
C952 C 0.58894 0.97424 0.40315 0.0
C953 C 0.60045 0.97762 0.3712 0.0
H954 H 0.3176 0.03767 0.55331 0.0
H955 H 0.32672 0.09266 0.5751 0.0
H956 H 0.3431 0.10329 0.5139 0.0
H957 H 0.35966 0.04969 0.50769 0.0
H958 H 0.35034 0.03271 0.47022 0.0
H959 H 0.3386 0.02808 0.51522 0.0
H960 H 0.30854 0.02223 0.48422 0.0
H961 H 0.31932 0.02566 0.43823 0.0
H962 H 0.30873 0.03899 0.45164 0.0
H963 H 0.35934 0.10836 0.45148 0.0
H964 H 0.37031 0.10637 0.38734 0.0
H965 H 0.34964 0.04791 0.40459 0.0
C966 C 0.32294 0.05191 0.54503 0.0
C967 C 0.32091 0.06433 0.56904 0.0
C968 C 0.32798 0.08283 0.55711 0.0
C969 C 0.33748 0.08908 0.52254 0.0
C970 C 0.33957 0.07661 0.49991 0.0
C971 C 0.33216 0.05831 0.51018 0.0
C972 C 0.33533 0.04755 0.47929 0.0
C973 C 0.34669 0.03904 0.49404 0.0
C974 C 0.31687 0.03273 0.46236 0.0
C975 C 0.34615 0.06276 0.45074 0.0
C976 C 0.3485 0.07943 0.46325 0.0
C977 C 0.35757 0.09538 0.44132 0.0
C978 C 0.36385 0.09413 0.405 0.0
C979 C 0.36092 0.07701 0.39093 0.0
C980 C 0.35234 0.06126 0.41462 0.0
H981 H 0.88673 0.24838 0.5092 0.0
H982 H 0.88647 0.29706 0.55078 0.0
H983 H 0.88023 0.30368 0.48576 0.0
H984 H 0.90899 0.26741 0.42049 0.0
H985 H 0.89546 0.24649 0.39381 0.0
H986 H 0.89948 0.24535 0.44389 0.0
H987 H 0.86421 0.22611 0.45528 0.0
H988 H 0.86011 0.22735 0.40522 0.0
H989 H 0.84968 0.23511 0.44009 0.0
H990 H 0.87634 0.30639 0.41559 0.0
H991 H 0.87438 0.3044 0.34515 0.0
H992 H 0.875 0.25298 0.34957 0.0
C993 C 0.88532 0.2604 0.5046 0.0
C994 C 0.88711 0.2722 0.53511 0.0
C995 C 0.88509 0.28776 0.52793 0.0
C996 C 0.88153 0.29165 0.49107 0.0
C997 C 0.87977 0.27973 0.46166 0.0
C998 C 0.8815 0.26436 0.46798 0.0
C999 C 0.87923 0.25394 0.4312 0.0
C1000 C 0.89684 0.25327 0.4218 0.0
C1001 C 0.8623 0.23448 0.43307 0.0
C1002 C 0.87625 0.26601 0.40322 0.0
C1003 C 0.87667 0.28085 0.42136 0.0
C1004 C 0.87564 0.29465 0.40111 0.0
C1005 C 0.87449 0.29341 0.36119 0.0
C1006 C 0.87409 0.27835 0.34208 0.0
C1007 C 0.87466 0.26434 0.36352 0.0
H1008 H 0.78823 0.708 0.45447 0.0
H1009 H 0.73823 0.71024 0.47447 0.0
H1010 H 0.72875 0.70101 0.40779 0.0
H1011 H 0.79568 0.72467 0.35538 0.0
H1012 H 0.80373 0.7093 0.34059 0.0
H1013 H 0.80732 0.71766 0.38893 0.0
H1014 H 0.79085 0.684 0.4136 0.0
H1015 H 0.78697 0.67553 0.36538 0.0
H1016 H 0.76778 0.66811 0.3976 0.0
H1017 H 0.7237 0.68965 0.34062 0.0
H1018 H 0.72407 0.67839 0.27599 0.0
H1019 H 0.77716 0.683 0.29939 0.0
C1020 C 0.77549 0.70697 0.4446 0.0
C1021 C 0.76401 0.70996 0.46964 0.0
C1022 C 0.74727 0.70809 0.45578 0.0
C1023 C 0.74176 0.70282 0.41797 0.0
C1024 C 0.75312 0.69945 0.39437 0.0
C1025 C 0.76971 0.70159 0.40697 0.0
C1026 C 0.77894 0.69632 0.37619 0.0
C1027 C 0.79752 0.71298 0.36459 0.0
C1028 C 0.78127 0.68002 0.38897 0.0
C1029 C 0.76486 0.69072 0.34447 0.0
C1030 C 0.7501 0.69268 0.35559 0.0
C1031 C 0.73523 0.68815 0.3315 0.0
C1032 C 0.73554 0.68168 0.29486 0.0
C1033 C 0.75063 0.67976 0.28257 0.0
C1034 C 0.76541 0.68426 0.30793 0.0
H1035 H 0.04287 0.31671 0.15077 0.0
H1036 H 0.09502 0.31872 0.17067 0.0
H1037 H 0.09254 0.30443 0.10772 0.0
H1038 H 0.02015 0.27331 0.10314 0.0
H1039 H 0.00851 0.28016 0.06927 0.0
H1040 H 0.0144 0.29071 0.11572 0.0
H1041 H 0.03251 0.32314 0.08481 0.0
H1042 H 0.02632 0.31269 0.03834 0.0
H1043 H 0.05022 0.32767 0.05026 0.0
H1044 H 0.08407 0.28948 0.04272 0.0
H1045 H 0.07215 0.2785 0.97787 0.0
H1046 H 0.0255 0.28617 0.00126 0.0
C1047 C 0.05386 0.31429 0.14184 0.0
C1048 C 0.06913 0.31882 0.16572 0.0
C1049 C 0.08322 0.31544 0.15284 0.0
C1050 C 0.08186 0.3072 0.11724 0.0
C1051 C 0.06638 0.30248 0.09484 0.0
C1052 C 0.05277 0.30616 0.1064 0.0
C1053 C 0.03781 0.30025 0.07656 0.0
C1054 C 0.01911 0.28521 0.09212 0.0
C1055 C 0.03666 0.31693 0.06161 0.0
C1056 C 0.04511 0.29264 0.04638 0.0
C1057 C 0.06154 0.29392 0.05753 0.0
C1058 C 0.07119 0.28837 0.03372 0.0
C1059 C 0.06424 0.28203 0.997 0.0
C1060 C 0.04785 0.2814 0.9844 0.0
C1061 C 0.03794 0.28626 0.01002 0.0
H1062 H 0.6254 0.72839 0.12278 0.0
H1063 H 0.60944 0.67048 0.118 0.0
H1064 H 0.63183 0.67726 0.06606 0.0
H1065 H 0.63391 0.73743 0.01849 0.0
H1066 H 0.65305 0.76023 0.02704 0.0
H1067 H 0.63404 0.75015 0.06006 0.0
H1068 H 0.6571 0.75579 0.11483 0.0
H1069 H 0.67612 0.76522 0.08187 0.0
H1070 H 0.67192 0.74596 0.11164 0.0
H1071 H 0.65948 0.69121 0.02255 0.0
H1072 H 0.68526 0.71007 0.97895 0.0
H1073 H 0.68236 0.75863 0.01074 0.0
C1074 C 0.62613 0.71699 0.11009 0.0
C1075 C 0.61573 0.69891 0.12483 0.0
C1076 C 0.61727 0.68446 0.10735 0.0
C1077 C 0.63004 0.68818 0.07796 0.0
C1078 C 0.641 0.70638 0.06611 0.0
C1079 C 0.63877 0.72045 0.08076 0.0
C1080 C 0.65263 0.73889 0.06385 0.0
C1081 C 0.64282 0.74716 0.04099 0.0
C1082 C 0.66518 0.75224 0.09491 0.0
C1083 C 0.66325 0.73307 0.03797 0.0
C1084 C 0.65649 0.7143 0.04007 0.0
C1085 C 0.66463 0.70586 0.02006 0.0
C1086 C 0.67939 0.71674 0.99564 0.0
C1087 C 0.68572 0.7358 0.991 0.0
C1088 C 0.67784 0.7441 0.01343 0.0
H1089 H 0.26299 0.92166 0.1995 0.0
H1090 H 0.22232 0.86404 0.21694 0.0
H1091 H 0.21502 0.86086 0.14798 0.0
H1092 H 0.23801 0.9315 0.13027 0.0
H1093 H 0.25812 0.94653 0.10254 0.0
H1094 H 0.26022 0.94415 0.15302 0.0
H1095 H 0.28488 0.93466 0.14068 0.0
H1096 H 0.28301 0.93723 0.09019 0.0
H1097 H 0.27962 0.91572 0.10897 0.0
H1098 H 0.21164 0.86448 0.07698 0.0
H1099 H 0.21441 0.87381 0.0093 0.0
H1100 H 0.25768 0.92891 0.03958 0.0
C1101 C 0.25259 0.90832 0.18889 0.0
C1102 C 0.24318 0.8931 0.21358 0.0
C1103 C 0.22974 0.87587 0.19847 0.0
C1104 C 0.22544 0.87397 0.15942 0.0
C1105 C 0.23478 0.88938 0.13598 0.0
C1106 C 0.24823 0.90617 0.15015 0.0
C1107 C 0.25652 0.92056 0.11909 0.0
C1108 C 0.253 0.93663 0.1267 0.0
C1109 C 0.27723 0.92744 0.11446 0.0
C1110 C 0.24563 0.90929 0.08512 0.0
C1111 C 0.23306 0.89138 0.09538 0.0
C1112 C 0.22148 0.87846 0.06864 0.0
C1113 C 0.22309 0.88391 0.03031 0.0
C1114 C 0.23628 0.90208 0.01916 0.0
C1115 C 0.24747 0.91492 0.04715 0.0
H1116 H 0.67197 0.94903 0.62707 0.0
H1117 H 0.66928 0.89765 0.65906 0.0
H1118 H 0.67081 0.89077 0.59125 0.0
H1119 H 0.64354 0.9312 0.54264 0.0
H1120 H 0.65668 0.9522 0.51592 0.0
H1121 H 0.65537 0.95304 0.56705 0.0
H1122 H 0.69104 0.97048 0.57087 0.0
H1123 H 0.69246 0.96952 0.51977 0.0
H1124 H 0.70358 0.96044 0.5496 0.0
H1125 H 0.67373 0.88994 0.5203 0.0
H1126 H 0.67478 0.89375 0.45045 0.0
H1127 H 0.67469 0.94523 0.46438 0.0
C1128 C 0.67161 0.93629 0.61982 0.0
C1129 C 0.67056 0.9239 0.64841 0.0
C1130 C 0.67004 0.90734 0.63769 0.0
C1131 C 0.67099 0.90334 0.59925 0.0
C1132 C 0.67232 0.91597 0.57184 0.0
C1133 C 0.67238 0.93199 0.58155 0.0
C1134 C 0.67351 0.94304 0.54643 0.0
C1135 C 0.65624 0.94498 0.5428 0.0
C1136 C 0.6912 0.96199 0.5467 0.0
C1137 C 0.67412 0.93075 0.5155 0.0
C1138 C 0.67358 0.91529 0.53081 0.0
C1139 C 0.67408 0.90195 0.50794 0.0
C1140 C 0.67476 0.90429 0.46829 0.0
C1141 C 0.67479 0.91977 0.4519 0.0
C1142 C 0.67468 0.93324 0.47599 0.0
H1143 H 0.06597 0.76782 0.52651 0.0
H1144 H 0.01304 0.72163 0.49463 0.0
H1145 H 0.01884 0.70103 0.53596 0.0
H1146 H 0.09152 0.74223 0.53631 0.0
H1147 H 0.10405 0.75547 0.57739 0.0
H1148 H 0.09679 0.76581 0.54132 0.0
H1149 H 0.07989 0.77404 0.59283 0.0
H1150 H 0.08707 0.76367 0.62883 0.0
H1151 H 0.06293 0.75603 0.62273 0.0
H1152 H 0.02941 0.68614 0.58429 0.0
H1153 H 0.04248 0.67856 0.63985 0.0
H1154 H 0.08841 0.73472 0.64142 0.0
C1155 C 0.05589 0.75326 0.52757 0.0
C1156 C 0.03927 0.74608 0.50694 0.0
C1157 C 0.02599 0.72717 0.50985 0.0
C1158 C 0.02918 0.71544 0.5332 0.0
C1159 C 0.04573 0.7229 0.5534 0.0
C1160 C 0.05885 0.74139 0.55089 0.0
C1161 C 0.07458 0.74632 0.57848 0.0
C1162 C 0.09281 0.75284 0.55707 0.0
C1163 C 0.0762 0.76087 0.60743 0.0
C1164 C 0.06811 0.7278 0.59736 0.0
C1165 C 0.0516 0.71441 0.58202 0.0
C1166 C 0.04242 0.69648 0.59631 0.0
C1167 C 0.04998 0.6923 0.62787 0.0
C1168 C 0.06652 0.70601 0.64503 0.0
C1169 C 0.0759 0.72384 0.62873 0.0
H1170 H 0.27899 0.32187 0.5117 0.0
H1171 H 0.21943 0.2965 0.50359 0.0
H1172 H 0.21937 0.31363 0.56063 0.0
H1173 H 0.2816 0.32215 0.6158 0.0
H1174 H 0.30253 0.34418 0.61715 0.0
H1175 H 0.29772 0.32919 0.57673 0.0
H1176 H 0.3013 0.35542 0.53173 0.0
H1177 H 0.30602 0.37037 0.57213 0.0
H1178 H 0.28754 0.36608 0.53985 0.0
H1179 H 0.2259 0.33551 0.61423 0.0
H1180 H 0.23786 0.35656 0.66907 0.0
H1181 H 0.29309 0.36687 0.64478 0.0
C1182 C 0.26586 0.3195 0.52247 0.0
C1183 C 0.24919 0.30777 0.50317 0.0
C1184 C 0.23237 0.30535 0.51793 0.0
C1185 C 0.2322 0.31513 0.55013 0.0
C1186 C 0.24894 0.32718 0.56742 0.0
C1187 C 0.26542 0.32912 0.5547 0.0
C1188 C 0.28147 0.3431 0.57848 0.0
C1189 C 0.29141 0.33411 0.59822 0.0
C1190 C 0.29487 0.35972 0.55411 0.0
C1191 C 0.27135 0.34848 0.60689 0.0
C1192 C 0.25266 0.33943 0.59937 0.0
C1193 C 0.24048 0.34253 0.62074 0.0
C1194 C 0.24747 0.35467 0.65167 0.0
C1195 C 0.26642 0.36332 0.66137 0.0
C1196 C 0.27854 0.36043 0.63813 0.0
H1197 H 0.93971 0.71151 0.95501 0.0
H1198 H 0.99362 0.71833 0.93243 0.0
H1199 H 0.97904 0.68748 0.90243 0.0
H1200 H 0.91447 0.66095 0.97179 0.0
H1201 H 0.89431 0.6579 0.94697 0.0
H1202 H 0.90904 0.67923 0.97152 0.0
H1203 H 0.91256 0.6971 0.90862 0.0
H1204 H 0.89814 0.67579 0.88404 0.0
H1205 H 0.92099 0.69137 0.8665 0.0
H1206 H 0.95884 0.65665 0.87353 0.0
H1207 H 0.93498 0.62992 0.83854 0.0
H1208 H 0.89395 0.64396 0.87505 0.0
C1209 C 0.94834 0.7062 0.94467 0.0
C1210 C 0.96773 0.71694 0.94682 0.0
C1211 C 0.97873 0.71005 0.93162 0.0
C1212 C 0.97057 0.69256 0.9147 0.0
C1213 C 0.9514 0.68227 0.91286 0.0
C1214 C 0.9404 0.68888 0.92707 0.0
C1215 C 0.92028 0.67593 0.91762 0.0
C1216 C 0.90886 0.66804 0.95416 0.0
C1217 C 0.91255 0.68563 0.89271 0.0
C1218 C 0.92172 0.66115 0.89547 0.0
C1219 C 0.93976 0.66494 0.8938 0.0
C1220 C 0.94468 0.65357 0.87437 0.0
C1221 C 0.93092 0.63828 0.85484 0.0
C1222 C 0.91252 0.63483 0.8537 0.0
C1223 C 0.90782 0.64612 0.87546 0.0
H1224 H 0.32792 0.26561 0.994 0.0
H1225 H 0.32097 0.21064 0.9955 0.0
H1226 H 0.33315 0.21526 0.92977 0.0
H1227 H 0.31443 0.26536 0.89817 0.0
H1228 H 0.33127 0.2892 0.8897 0.0
H1229 H 0.32258 0.2816 0.93709 0.0
H1230 H 0.35605 0.29445 0.96196 0.0
H1231 H 0.36472 0.30206 0.91446 0.0
H1232 H 0.37064 0.28703 0.93986 0.0
H1233 H 0.34567 0.22574 0.86385 0.0
H1234 H 0.3545 0.2399 0.80014 0.0
H1235 H 0.35332 0.28809 0.84214 0.0
C1236 C 0.32877 0.25444 0.98044 0.0
C1237 C 0.32336 0.23769 0.99975 0.0
C1238 C 0.32495 0.22354 0.98114 0.0
C1239 C 0.33198 0.22609 0.94396 0.0
C1240 C 0.3375 0.24291 0.92604 0.0
C1241 C 0.33586 0.25679 0.94356 0.0
C1242 C 0.34233 0.27339 0.91779 0.0
C1243 C 0.32672 0.27762 0.91024 0.0
C1244 C 0.35945 0.29023 0.93451 0.0
C1245 C 0.34718 0.26639 0.88237 0.0
C1246 C 0.34468 0.24895 0.88802 0.0
C1247 C 0.34775 0.23942 0.85911 0.0
C1248 C 0.35283 0.24763 0.82303 0.0
C1249 C 0.35457 0.26511 0.81608 0.0
C1250 C 0.35223 0.27478 0.84655 0.0
H1251 H 0.68445 0.07752 0.90724 0.0
H1252 H 0.73147 0.11516 0.83922 0.0
H1253 H 0.75007 0.10302 0.86845 0.0
H1254 H 0.70997 0.08442 0.99092 0.0
H1255 H 0.69633 0.06111 0.00785 0.0
H1256 H 0.68607 0.07076 0.9774 0.0
H1257 H 0.67614 0.0437 0.93082 0.0
H1258 H 0.68675 0.03388 0.95998 0.0
H1259 H 0.69308 0.03896 0.91068 0.0
H1260 H 0.76439 0.08909 0.91008 0.0
H1261 H 0.7738 0.07644 0.96373 0.0
H1262 H 0.7175 0.04833 0.00525 0.0
C1263 C 0.69856 0.08294 0.89795 0.0
C1264 C 0.70634 0.09675 0.86969 0.0
C1265 C 0.72502 0.10398 0.85939 0.0
C1266 C 0.73571 0.09723 0.87607 0.0
C1267 C 0.72756 0.08344 0.90356 0.0
C1268 C 0.70943 0.0765 0.9147 0.0
C1269 C 0.70451 0.06327 0.94781 0.0
C1270 C 0.6989 0.07032 0.98305 0.0
C1271 C 0.68923 0.04381 0.93665 0.0
C1272 C 0.72279 0.06404 0.95391 0.0
C1273 C 0.73588 0.07563 0.92796 0.0
C1274 C 0.7542 0.07979 0.93026 0.0
C1275 C 0.75943 0.07252 0.96077 0.0
C1276 C 0.74636 0.06126 0.98855 0.0
C1277 C 0.72773 0.05653 0.98409 0.0
H1278 H 0.06007 0.43709 0.70266 0.0
H1279 H 0.02922 0.45118 0.6242 0.0
H1280 H 0.00033 0.43021 0.65825 0.0
H1281 H 0.02692 0.38951 0.72191 0.0
H1282 H 0.03168 0.39142 0.7722 0.0
H1283 H 0.04944 0.40612 0.73913 0.0
H1284 H 0.05376 0.43456 0.77634 0.0
H1285 H 0.03565 0.42015 0.80901 0.0
H1286 H 0.03439 0.43805 0.78319 0.0
H1287 H 0.97499 0.40879 0.70345 0.0
H1288 H 0.95602 0.39089 0.75887 0.0
H1289 H 0.00375 0.39143 0.80791 0.0
C1290 C 0.04715 0.43545 0.69229 0.0
C1291 C 0.04661 0.44489 0.65947 0.0
C1292 C 0.02967 0.44316 0.64779 0.0
C1293 C 0.01326 0.43146 0.66731 0.0
C1294 C 0.01412 0.42181 0.69886 0.0
C1295 C 0.03071 0.42394 0.71165 0.0
C1296 C 0.02827 0.41375 0.74876 0.0
C1297 C 0.03443 0.39934 0.74525 0.0
C1298 C 0.03864 0.42744 0.78122 0.0
C1299 C 0.00761 0.40485 0.75387 0.0
C1300 C -0.00032 0.40981 0.72512 0.0
C1301 C 0.98102 0.40462 0.72587 0.0
C1302 C 0.97033 0.39445 0.7573 0.0
C1303 C 0.97831 0.38935 0.78703 0.0
C1304 C 0.99709 0.39442 0.78481 0.0
H1305 H 0.62445 0.60288 0.85628 0.0
H1306 H 0.57564 0.5492 0.8719 0.0
H1307 H 0.56707 0.54948 0.80461 0.0
H1308 H 0.60416 0.62187 0.79588 0.0
H1309 H 0.62417 0.63416 0.76591 0.0
H1310 H 0.62685 0.6296 0.81497 0.0
H1311 H 0.64485 0.61333 0.79423 0.0
H1312 H 0.64254 0.61812 0.74513 0.0
H1313 H 0.63467 0.59477 0.76012 0.0
H1314 H 0.56331 0.55614 0.73606 0.0
H1315 H 0.56635 0.56716 0.6697 0.0
H1316 H 0.6177 0.6164 0.69933 0.0
C1317 C 0.61206 0.59107 0.84551 0.0
C1318 C 0.60072 0.57601 0.86941 0.0
C1319 C 0.5846 0.56086 0.85413 0.0
C1320 C 0.57954 0.56094 0.816 0.0
C1321 C 0.5908 0.57623 0.79353 0.0
C1322 C 0.60685 0.59089 0.80757 0.0
C1323 C 0.61667 0.60555 0.77742 0.0
C1324 C 0.61803 0.62387 0.78926 0.0
C1325 C 0.63581 0.60808 0.76871 0.0
C1326 C 0.6036 0.59685 0.74418 0.0
C1327 C 0.5887 0.58 0.7541 0.0
C1328 C 0.57493 0.5693 0.72795 0.0
C1329 C 0.57673 0.57573 0.69036 0.0
C1330 C 0.59225 0.59266 0.67925 0.0
C1331 C 0.60562 0.60346 0.70687 0.0
H1332 H 0.41685 0.04376 0.80352 0.0
H1333 H 0.46974 0.04733 0.82296 0.0
H1334 H 0.46874 0.03561 0.75779 0.0
H1335 H 0.39663 0.002 0.75659 0.0
H1336 H 0.38375 0.00732 0.72284 0.0
H1337 H 0.38958 0.01848 0.76863 0.0
H1338 H 0.40588 0.05067 0.73681 0.0
H1339 H 0.39969 0.03979 0.6908 0.0
H1340 H 0.42344 0.05594 0.70139 0.0
H1341 H 0.46057 0.02106 0.69202 0.0
H1342 H 0.44701 0.00711 0.62957 0.0
H1343 H 0.39901 0.0121 0.65559 0.0
C1344 C 0.42851 0.04261 0.79384 0.0
C1345 C 0.44343 0.04657 0.81835 0.0
C1346 C 0.45822 0.04451 0.80462 0.0
C1347 C 0.45773 0.03777 0.7677 0.0
C1348 C 0.44237 0.03319 0.74496 0.0
C1349 C 0.42816 0.03576 0.75738 0.0
C1350 C 0.41272 0.02885 0.72846 0.0
C1351 C 0.39461 0.01324 0.74513 0.0
C1352 C 0.41031 0.04477 0.7135 0.0
C1353 C 0.42032 0.02172 0.69798 0.0
C1354 C 0.43748 0.02442 0.70784 0.0
C1355 C 0.44717 0.01894 0.68396 0.0
C1356 C 0.43932 0.01093 0.64869 0.0
C1357 C 0.42188 0.00833 0.63785 0.0
C1358 C 0.41223 0.0136 0.6632 0.0
H1359 H 0.5838 0.99496 0.15294 0.0
H1360 H 0.627 0.98095 0.14318 0.0
H1361 H 0.64021 0.99664 0.20432 0.0
H1362 H 0.61061 0.03919 0.1919 0.0
H1363 H 0.59328 0.03758 0.22465 0.0
H1364 H 0.58652 0.0245 0.18102 0.0
H1365 H 0.56748 0.99409 0.21885 0.0
H1366 H 0.5737 0.00715 0.26248 0.0
H1367 H 0.57839 0.98849 0.25679 0.0
H1368 H 0.64981 0.01555 0.26429 0.0
H1369 H 0.65208 0.03163 0.32472 0.0
H1370 H 0.60223 0.03274 0.29579 0.0
C1371 C 0.5958 0.99482 0.16403 0.0
C1372 C 0.60456 0.98696 0.14302 0.0
C1373 C 0.62027 0.98717 0.15851 0.0
C1374 C 0.6279 0.99608 0.19314 0.0
C1375 C 0.61951 0.00456 0.21209 0.0
C1376 C 0.60354 0.00359 0.19864 0.0
C1377 C 0.59706 0.01353 0.22493 0.0
C1378 C 0.59686 0.02965 0.20438 0.0
C1379 C 0.57803 1e-05 0.24177 0.0
C1380 C 0.61197 0.02039 0.25508 0.0
C1381 C 0.62489 0.01523 0.24694 0.0
C1382 C 0.63977 0.01967 0.27099 0.0
C1383 C 0.641 0.0289 0.30516 0.0
C1384 C 0.62736 0.03347 0.31506 0.0
C1385 C 0.61301 0.02964 0.28898 0.0
H1386 H 0.96454 0.58446 0.3325 0.0
H1387 H 0.95172 0.52799 0.35068 0.0
H1388 H 0.96271 0.52733 0.28558 0.0
H1389 H 0.95125 0.57945 0.2329 0.0
H1390 H 0.96967 0.60214 0.22058 0.0
H1391 H 0.96006 0.59764 0.26789 0.0
H1392 H 0.99269 0.6095 0.29609 0.0
H1393 H 0.00236 0.61373 0.24884 0.0
H1394 H 0.00599 0.59909 0.28111 0.0
H1395 H 0.97625 0.53337 0.21889 0.0
H1396 H 0.98865 0.54468 0.15437 0.0
H1397 H 0.99283 0.59726 0.18102 0.0
C1398 C 0.96375 0.57182 0.3227 0.0
C1399 C 0.95719 0.55624 0.34674 0.0
C1400 C 0.95659 0.54007 0.33276 0.0
C1401 C 0.9629 0.5396 0.29589 0.0
C1402 C 0.96977 0.5554 0.27338 0.0
C1403 C 0.97003 0.57113 0.28614 0.0
C1404 C 0.97819 0.58632 0.25658 0.0
C1405 C 0.96394 0.5917 0.24372 0.0
C1406 C 0.99585 0.60315 0.27156 0.0
C1407 C 0.98245 0.57667 0.22506 0.0
C1408 C 0.97759 0.55888 0.23531 0.0
C1409 C 0.98008 0.54727 0.21056 0.0
C1410 C 0.98723 0.55386 0.17403 0.0
C1411 C 0.99176 0.57187 0.16256 0.0
C1412 C 0.98961 0.58346 0.18885 0.0
H1413 H 0.40923 0.4226 0.15738 0.0
H1414 H 0.35254 0.37841 0.14521 0.0
H1415 H 0.35185 0.37104 0.21367 0.0
H1416 H 0.42344 0.39892 0.22079 0.0
H1417 H 0.43835 0.41913 0.24838 0.0
H1418 H 0.43414 0.42139 0.19888 0.0
H1419 H 0.42288 0.44417 0.21673 0.0
H1420 H 0.42726 0.44214 0.26625 0.0
H1421 H 0.4047 0.43738 0.25133 0.0
H1422 H 0.35763 0.36835 0.28346 0.0
H1423 H 0.36906 0.3711 0.3494 0.0
H1424 H 0.4222 0.41656 0.31473 0.0
C1425 C 0.39657 0.41148 0.16908 0.0
C1426 C 0.38089 0.40113 0.14594 0.0
C1427 C 0.36469 0.38659 0.16242 0.0
C1428 C 0.36419 0.38226 0.20123 0.0
C1429 C 0.38002 0.39257 0.22304 0.0
C1430 C 0.39588 0.40691 0.20756 0.0
C1431 C 0.41111 0.41572 0.23687 0.0
C1432 C 0.42774 0.41366 0.22554 0.0
C1433 C 0.41681 0.43606 0.24317 0.0
C1434 C 0.40136 0.40411 0.2714 0.0
C1435 C 0.38343 0.39083 0.26288 0.0
C1436 C 0.37164 0.37868 0.29043 0.0
C1437 C 0.37827 0.38034 0.32778 0.0
C1438 C 0.39654 0.39401 0.33718 0.0
C1439 C 0.40824 0.40587 0.3084 0.0
H1440 H 0.34733 0.19532 0.1524 0.0
H1441 H 0.30191 0.17989 0.23122 0.0
H1442 H 0.30633 0.15488 0.25633 0.0
H1443 H 0.33787 0.14988 0.13074 0.0
H1444 H 0.36173 0.15586 0.12898 0.0
H1445 H 0.35534 0.17289 0.11756 0.0
H1446 H 0.37784 0.19472 0.16907 0.0
H1447 H 0.38439 0.1778 0.18049 0.0
H1448 H 0.37587 0.18658 0.21738 0.0
H1449 H 0.31453 0.13072 0.27062 0.0
H1450 H 0.32755 0.11018 0.27677 0.0
H1451 H 0.36838 0.14186 0.19028 0.0
C1452 C 0.33838 0.18675 0.17509 0.0
C1453 C 0.32424 0.18952 0.1898 0.0
C1454 C 0.31286 0.17805 0.21956 0.0
C1455 C 0.31522 0.16377 0.23395 0.0
C1456 C 0.32912 0.16127 0.21849 0.0
C1457 C 0.34065 0.17253 0.19003 0.0
C1458 C 0.35457 0.1669 0.17858 0.0
C1459 C 0.35223 0.16103 0.13647 0.0
C1460 C 0.37434 0.18242 0.18689 0.0
C1461 C 0.34896 0.15061 0.20487 0.0
C1462 C 0.33417 0.14756 0.22746 0.0
C1463 C 0.3262 0.13304 0.25331 0.0
C1464 C 0.33365 0.12141 0.25646 0.0
C1465 C 0.34902 0.12447 0.23409 0.0
C1466 C 0.35671 0.13926 0.20793 0.0
H1467 H 0.80705 0.12611 0.189 0.0
H1468 H 0.82894 0.12213 0.07944 0.0
H1469 H 0.85203 0.15528 0.08254 0.0
H1470 H 0.80994 0.16839 0.1726 0.0
H1471 H 0.81644 0.17693 0.22056 0.0
H1472 H 0.80308 0.15252 0.21208 0.0
H1473 H 0.82768 0.14773 0.24685 0.0
H1474 H 0.84105 0.17214 0.25582 0.0
H1475 H 0.85139 0.16056 0.23166 0.0
H1476 H 0.87071 0.18934 0.09471 0.0
H1477 H 0.88438 0.22161 0.1162 0.0
H1478 H 0.85011 0.20316 0.21765 0.0
C1479 C 0.81694 0.13209 0.16602 0.0
C1480 C 0.81622 0.12152 0.13403 0.0
C1481 C 0.82927 0.12995 0.10431 0.0
C1482 C 0.84244 0.14877 0.10581 0.0
C1483 C 0.84242 0.1589 0.13729 0.0
C1484 C 0.83013 0.15083 0.16702 0.0
C1485 C 0.83226 0.16495 0.19649 0.0
C1486 C 0.81437 0.16574 0.20064 0.0
C1487 C 0.83847 0.16111 0.23498 0.0
C1488 C 0.84739 0.1823 0.17825 0.0
C1489 C 0.85316 0.17852 0.14426 0.0
C1490 C 0.86646 0.19245 0.1215 0.0
C1491 C 0.87408 0.21074 0.13388 0.0
C1492 C 0.86834 0.21491 0.16864 0.0
C1493 C 0.85488 0.20043 0.19107 0.0
H1494 H 0.82599 0.69052 0.15835 0.0
H1495 H 0.80431 0.68337 0.04327 0.0
H1496 H 0.83549 0.69429 0.01741 0.0
H1497 H 0.86935 0.73192 0.14011 0.0
H1498 H 0.88227 0.72542 0.17126 0.0
H1499 H 0.85829 0.71737 0.18078 0.0
H1500 H 0.85147 0.68359 0.18035 0.0
H1501 H 0.87542 0.69153 0.17103 0.0
H1502 H 0.85797 0.67508 0.13946 0.0
H1503 H 0.86889 0.70535 0.00409 0.0
H1504 H 0.90199 0.71507 0.0043 0.0
H1505 H 0.90176 0.7152 0.12812 0.0
C1506 C 0.82778 0.69128 0.1277 0.0
C1507 C 0.81271 0.68611 0.10283 0.0
C1508 C 0.81565 0.68726 0.0629 0.0
C1509 C 0.83331 0.69349 0.04792 0.0
C1510 C 0.84787 0.69853 0.07325 0.0
C1511 C 0.84529 0.69747 0.11228 0.0
C1512 C 0.86317 0.70336 0.13329 0.0
C1513 C 0.86859 0.72054 0.1578 0.0
C1514 C 0.86193 0.68744 0.15745 0.0
C1515 C 0.87619 0.70777 0.09996 0.0
C1516 C 0.86711 0.70496 0.06558 0.0
C1517 C 0.87617 0.70769 0.03084 0.0
C1518 C 0.89498 0.71324 0.03126 0.0
C1519 C 0.9045 0.71598 0.06623 0.0
C1520 C 0.89494 0.71337 0.10093 0.0
H1521 H 0.14932 0.34228 0.29795 0.0
H1522 H 0.09921 0.2953 0.34095 0.0
H1523 H 0.11732 0.28139 0.36417 0.0
H1524 H 0.17093 0.31709 0.2658 0.0
H1525 H 0.19377 0.33458 0.27988 0.0
H1526 H 0.17691 0.34096 0.26685 0.0
H1527 H 0.18146 0.35735 0.33193 0.0
H1528 H 0.19839 0.35109 0.3451 0.0
H1529 H 0.17871 0.34471 0.37535 0.0
H1530 H 0.14071 0.2724 0.38185 0.0
H1531 H 0.16804 0.26942 0.3949 0.0
H1532 H 0.20287 0.3224 0.34077 0.0
C1533 C 0.14215 0.32909 0.31232 0.0
C1534 C 0.12286 0.31986 0.31761 0.0
C1535 C 0.11399 0.30263 0.33661 0.0
C1536 C 0.12414 0.2946 0.34984 0.0
C1537 C 0.14311 0.304 0.34392 0.0
C1538 C 0.15205 0.3209 0.32579 0.0
C1539 C 0.17259 0.32818 0.32324 0.0
C1540 C 0.17891 0.33032 0.28146 0.0
C1541 C 0.18342 0.34641 0.34523 0.0
C1542 C 0.17378 0.3127 0.34274 0.0
C1543 C 0.15663 0.29887 0.35435 0.0
C1544 C 0.15423 0.28315 0.37296 0.0
C1545 C 0.16984 0.28157 0.38018 0.0
C1546 C 0.18759 0.29568 0.36888 0.0
C1547 C 0.1895 0.31138 0.34977 0.0
H1548 H 0.64159 0.84953 0.28883 0.0
H1549 H 0.69821 0.86626 0.31821 0.0
H1550 H 0.69243 0.83515 0.30207 0.0
H1551 H 0.62131 0.80413 0.32697 0.0
H1552 H 0.60437 0.79372 0.28966 0.0
H1553 H 0.61307 0.81749 0.30226 0.0
H1554 H 0.6229 0.82722 0.23216 0.0
H1555 H 0.61416 0.80346 0.2193 0.0
H1556 H 0.63775 0.8204 0.20887 0.0
H1557 H 0.68033 0.80212 0.28481 0.0
H1558 H 0.66291 0.76943 0.26601 0.0
H1559 H 0.61416 0.77419 0.24747 0.0
C1560 C 0.65282 0.84671 0.29164 0.0
C1561 C 0.67036 0.86033 0.30478 0.0
C1562 C 0.68466 0.85605 0.30818 0.0
C1563 C 0.68152 0.83842 0.2991 0.0
C1564 C 0.66403 0.82527 0.28658 0.0
C1565 C 0.64993 0.8292 0.28268 0.0
C1566 C 0.63234 0.8125 0.26914 0.0
C1567 C 0.61686 0.80662 0.29878 0.0
C1568 C 0.62645 0.81612 0.23004 0.0
C1569 C 0.63873 0.79853 0.26625 0.0
C1570 C 0.65705 0.8062 0.27645 0.0
C1571 C 0.66599 0.79597 0.27662 0.0
C1572 C 0.65595 0.77739 0.26597 0.0
C1573 C 0.63716 0.76924 0.25524 0.0
C1574 C 0.6285 0.78002 0.25541 0.0
H1575 H 0.11077 0.79962 0.40571 0.0
H1576 H 0.11727 0.76347 0.48506 0.0
H1577 H 0.15109 0.78353 0.48194 0.0
H1578 H 0.1478 0.80784 0.34624 0.0
H1579 H 0.15464 0.83156 0.33672 0.0
H1580 H 0.13099 0.81529 0.34792 0.0
H1581 H 0.1319 0.83605 0.40367 0.0
H1582 H 0.15555 0.85245 0.39252 0.0
H1583 H 0.1494 0.84293 0.43987 0.0
H1584 H 0.18438 0.80676 0.4671 0.0
H1585 H 0.21425 0.83107 0.44146 0.0
H1586 H 0.18541 0.85129 0.37125 0.0
C1587 C 0.11926 0.79602 0.42288 0.0
C1588 C 0.11136 0.78003 0.44582 0.0
C1589 C 0.123 0.77573 0.46749 0.0
C1590 C 0.14223 0.78703 0.4659 0.0
C1591 C 0.14956 0.80256 0.44253 0.0
C1592 C 0.13841 0.80706 0.42149 0.0
C1593 C 0.14964 0.82393 0.39712 0.0
C1594 C 0.14552 0.81937 0.35449 0.0
C1595 C 0.14643 0.83978 0.40902 0.0
C1596 C 0.16888 0.82807 0.40722 0.0
C1597 C 0.1686 0.81571 0.43369 0.0
C1598 C 0.18477 0.81658 0.44655 0.0
C1599 C 0.20165 0.83042 0.4318 0.0
C1600 C 0.20217 0.84307 0.40434 0.0
C1601 C 0.18552 0.84186 0.39223 0.0
H1602 H 0.6965 0.88758 0.8151 0.0
H1603 H 0.63678 0.85445 0.81055 0.0
H1604 H 0.63845 0.82732 0.83189 0.0
H1605 H 0.70552 0.85326 0.77929 0.0
H1606 H 0.72508 0.85935 0.80973 0.0
H1607 H 0.71931 0.87659 0.79623 0.0
H1608 H 0.71754 0.88383 0.86742 0.0
H1609 H 0.72339 0.86665 0.88115 0.0
H1610 H 0.70266 0.86543 0.8992 0.0
H1611 H 0.64639 0.80359 0.85068 0.0
H1612 H 0.66017 0.78449 0.86685 0.0
H1613 H 0.71486 0.83276 0.85939 0.0
C1614 C 0.68377 0.87466 0.819 0.0
C1615 C 0.6665 0.87313 0.81119 0.0
C1616 C 0.65017 0.85596 0.81632 0.0
C1617 C 0.65096 0.84046 0.82849 0.0
C1618 C 0.66818 0.84237 0.83547 0.0
C1619 C 0.6843 0.85901 0.83108 0.0
C1620 C 0.70103 0.85709 0.83941 0.0
C1621 C 0.71346 0.86185 0.80406 0.0
C1622 C 0.71178 0.86895 0.87385 0.0
C1623 C 0.69175 0.83673 0.8487 0.0
C1624 C 0.6728 0.82856 0.84638 0.0
C1625 C 0.66121 0.80982 0.85282 0.0
C1626 C 0.66919 0.79909 0.86189 0.0
C1627 C 0.6886 0.80713 0.86441 0.0
C1628 C 0.69998 0.82623 0.85784 0.0
H1629 H 0.12599 0.7729 0.79511 0.0
H1630 H 0.16579 0.75731 0.75805 0.0
H1631 H 0.19118 0.7878 0.77833 0.0
H1632 H 0.15189 0.82055 0.76594 0.0
H1633 H 0.1447 0.8286 0.8065 0.0
H1634 H 0.12986 0.8058 0.78796 0.0
H1635 H 0.12862 0.79189 0.85467 0.0
H1636 H 0.14346 0.81462 0.87341 0.0
H1637 H 0.14982 0.7971 0.8782 0.0
H1638 H 0.2121 0.81979 0.80463 0.0
H1639 H 0.22684 0.8506 0.83466 0.0
H1640 H 0.17291 0.84467 0.85383 0.0
C1641 C 0.14003 0.77586 0.79104 0.0
C1642 C 0.14392 0.76272 0.77499 0.0
C1643 C 0.1625 0.76718 0.77026 0.0
C1644 C 0.17699 0.78446 0.78166 0.0
C1645 C 0.17262 0.79705 0.79756 0.0
C1646 C 0.15458 0.79295 0.80215 0.0
C1647 C 0.15346 0.80866 0.8206 0.0
C1648 C 0.14445 0.81636 0.79363 0.0
C1649 C 0.14324 0.80271 0.859 0.0
C1650 C 0.17371 0.82223 0.82609 0.0
C1651 C 0.18458 0.81535 0.81253 0.0
C1652 C 0.20373 0.82535 0.81519 0.0
C1653 C 0.21196 0.84281 0.83231 0.0
C1654 C 0.20102 0.85003 0.84656 0.0
C1655 C 0.18167 0.83958 0.84313 0.0
H1656 H 0.12671 0.31352 0.90815 0.0
H1657 H 0.10808 0.32857 0.80591 0.0
H1658 H 0.14017 0.3458 0.78262 0.0
H1659 H 0.16993 0.3562 0.91922 0.0
H1660 H 0.1824 0.34496 0.93457 0.0
H1661 H 0.15808 0.33449 0.94415 0.0
H1662 H 0.15227 0.30463 0.90995 0.0
H1663 H 0.17656 0.31494 0.90051 0.0
H1664 H 0.16029 0.30595 0.86174 0.0
H1665 H 0.17407 0.36127 0.77047 0.0
H1666 H 0.20724 0.37172 0.76731 0.0
H1667 H 0.2037 0.34567 0.8765 0.0
C1668 C 0.1294 0.32052 0.88095 0.0
C1669 C 0.11495 0.3198 0.85888 0.0
C1670 C 0.11896 0.32893 0.82322 0.0
C1671 C 0.13714 0.33883 0.80987 0.0
C1672 C 0.15108 0.33934 0.83241 0.0
C1673 C 0.14742 0.33028 0.867 0.0
C1674 C 0.16479 0.33224 0.88476 0.0
C1675 C 0.16905 0.34259 0.92294 0.0
C1676 C 0.16339 0.31331 0.8895 0.0
C1677 C 0.17878 0.34371 0.85459 0.0
C1678 C 0.1706 0.34785 0.8249 0.0
C1679 C 0.18064 0.35813 0.79353 0.0
C1680 C 0.1995 0.36404 0.79208 0.0
C1681 C 0.20807 0.35948 0.82164 0.0
C1682 C 0.19757 0.34939 0.8535 0.0
H1683 H 0.85438 0.65641 0.73547 0.0
H1684 H 0.89739 0.67846 0.64938 0.0
H1685 H 0.88443 0.69679 0.62263 0.0
H1686 H 0.81851 0.65101 0.6756 0.0
H1687 H 0.80717 0.65744 0.71105 0.0
H1688 H 0.82084 0.6474 0.72549 0.0
H1689 H 0.84045 0.6756 0.76892 0.0
H1690 H 0.82686 0.68578 0.75445 0.0
H1691 H 0.85155 0.69845 0.74875 0.0
H1692 H 0.86555 0.71086 0.60231 0.0
H1693 H 0.8415 0.71894 0.58886 0.0
H1694 H 0.81108 0.68794 0.68858 0.0
C1695 C 0.8612 0.66525 0.71127 0.0
C1696 C 0.8769 0.66602 0.69454 0.0
C1697 C 0.88534 0.67765 0.6627 0.0
C1698 C 0.87815 0.68819 0.64739 0.0
C1699 C 0.86258 0.68701 0.66439 0.0
C1700 C 0.85421 0.67586 0.69565 0.0
C1701 C 0.837 0.67624 0.70715 0.0
C1702 C 0.81987 0.65688 0.70465 0.0
C1703 C 0.8391 0.68452 0.74719 0.0
C1704 C 0.83673 0.68895 0.67685 0.0
C1705 C 0.85171 0.69519 0.65272 0.0
C1706 C 0.85386 0.70625 0.62126 0.0
C1707 C 0.84013 0.71076 0.61385 0.0
C1708 C 0.82445 0.70412 0.63773 0.0
C1709 C 0.823 0.69341 0.67003 0.0
H1710 H 0.35197 0.20477 0.70185 0.0
H1711 H 0.30478 0.20603 0.65414 0.0
H1712 H 0.28771 0.17194 0.65108 0.0
H1713 H 0.34781 0.16685 0.64683 0.0
H1714 H 0.3548 0.15762 0.68567 0.0
H1715 H 0.3631 0.18199 0.68316 0.0
H1716 H 0.35041 0.18095 0.75111 0.0
H1717 H 0.34187 0.15653 0.75365 0.0
H1718 H 0.32638 0.16534 0.76102 0.0
H1719 H 0.27606 0.13754 0.65298 0.0
H1720 H 0.27112 0.10592 0.6582 0.0
H1721 H 0.32581 0.12798 0.70692 0.0
C1722 C 0.3381 0.19794 0.69044 0.0
C1723 C 0.32972 0.20803 0.67805 0.0
C1724 C 0.31147 0.19853 0.66368 0.0
C1725 C 0.30166 0.1792 0.66195 0.0
C1726 C 0.31029 0.16966 0.67496 0.0
C1727 C 0.32811 0.17875 0.68886 0.0
C1728 C 0.3343 0.16544 0.70134 0.0
C1729 C 0.35098 0.16814 0.67784 0.0
C1730 C 0.33848 0.16717 0.74433 0.0
C1731 C 0.31722 0.14738 0.69202 0.0
C1732 C 0.30349 0.15004 0.67685 0.0
C1733 C 0.28668 0.1353 0.66501 0.0
C1734 C 0.28399 0.11741 0.66816 0.0
C1735 C 0.29804 0.11449 0.68314 0.0
C1736 C 0.31471 0.12971 0.69572 0.0
H1737 H 0.84254 0.21586 0.6581 0.0
H1738 H 0.86311 0.23278 0.77326 0.0
H1739 H 0.83234 0.21058 0.79879 0.0
H1740 H 0.79663 0.20893 0.67438 0.0
H1741 H 0.78582 0.18913 0.64344 0.0
H1742 H 0.80916 0.20708 0.63446 0.0
H1743 H 0.81998 0.18299 0.63634 0.0
H1744 H 0.7967 0.16499 0.64537 0.0
H1745 H 0.8149 0.16843 0.67765 0.0
H1746 H 0.79961 0.18534 0.81158 0.0
H1747 H 0.76765 0.15916 0.8106 0.0
H1748 H 0.76897 0.15917 0.68685 0.0
C1749 C 0.84059 0.21506 0.6887 0.0
C1750 C 0.85523 0.22608 0.7137 0.0
C1751 C 0.85208 0.2245 0.75356 0.0
C1752 C 0.83465 0.21195 0.76832 0.0
C1753 C 0.82056 0.20117 0.74282 0.0
C1754 C 0.82335 0.20266 0.70386 0.0
C1755 C 0.80619 0.18909 0.68253 0.0
C1756 C 0.79903 0.19916 0.65722 0.0
C1757 C 0.80965 0.17557 0.65911 0.0
C1758 C 0.79334 0.17952 0.71559 0.0
C1759 C 0.80182 0.18673 0.75014 0.0
C1760 C 0.79279 0.17968 0.78468 0.0
C1761 C 0.77465 0.16481 0.78382 0.0
C1762 C 0.7658 0.15715 0.74864 0.0
C1763 C 0.77529 0.16476 0.7142 0.0
H1764 H 0.03629 0.49825 0.53621 0.0
H1765 H 0.99472 0.44031 0.54433 0.0
H1766 H 0.9704 0.44813 0.53286 0.0
H1767 H 0.00994 0.51593 0.58309 0.0
H1768 H 0.01826 0.53577 0.5524 0.0
H1769 H 0.03249 0.52569 0.56178 0.0
H1770 H 0.03534 0.52181 0.48922 0.0
H1771 H 0.0212 0.53195 0.47963 0.0
H1772 H 0.01473 0.50948 0.46091 0.0
H1773 H 0.9506 0.46209 0.51947 0.0
H1774 H 0.93676 0.48132 0.50387 0.0
H1775 H 0.9912 0.53009 0.50498 0.0
C1776 C 0.02208 0.4872 0.53561 0.0
C1777 C 0.01743 0.46867 0.54112 0.0
C1778 C -0.00135 0.45462 0.54009 0.0
C1779 C 0.98471 0.45891 0.53369 0.0
C1780 C 0.98976 0.47731 0.52844 0.0
C1781 C 0.00798 0.49123 0.52926 0.0
C1782 C 0.00969 0.50985 0.5222 0.0
C1783 C 0.01809 0.52256 0.55694 0.0
C1784 C 0.0209 0.51879 0.48582 0.0
C1785 C 0.98961 0.50418 0.51703 0.0
C1786 C 0.97833 0.48536 0.52085 0.0
C1787 C 0.95927 0.47686 0.51654 0.0
C1788 C 0.95155 0.48789 0.50769 0.0
C1789 C 0.96288 0.5072 0.50327 0.0
C1790 C 0.98214 0.51539 0.50837 0.0
H1791 H 0.52574 0.5396 0.52647 0.0
H1792 H 0.57411 0.53622 0.49501 0.0
H1793 H 0.55414 0.50667 0.46216 0.0
H1794 H 0.49677 0.49254 0.5468 0.0
H1795 H 0.47629 0.49152 0.52776 0.0
H1796 H 0.49452 0.51285 0.5466 0.0
H1797 H 0.49645 0.52911 0.48243 0.0
H1798 H 0.47821 0.50778 0.46334 0.0
H1799 H 0.5 0.51992 0.43884 0.0
H1800 H 0.52861 0.47668 0.43564 0.0
H1801 H 0.49958 0.4485 0.41846 0.0
H1802 H 0.46836 0.47213 0.46723 0.0
C1803 C 0.53219 0.53274 0.5125 0.0
C1804 C 0.55147 0.54019 0.51331 0.0
C1805 C 0.55934 0.53075 0.49469 0.0
C1806 C 0.54813 0.514 0.4759 0.0
C1807 C 0.52914 0.507 0.47583 0.0
C1808 C 0.52125 0.51611 0.49357 0.0
C1809 C 0.50048 0.50543 0.49057 0.0
C1810 C 0.4915 0.50028 0.53029 0.0
C1811 C 0.49337 0.5162 0.46741 0.0
C1812 C 0.49785 0.48865 0.46909 0.0
C1813 C 0.51452 0.48985 0.46052 0.0
C1814 C 0.51547 0.47565 0.44193 0.0
C1815 C 0.49892 0.45971 0.4323 0.0
C1816 C 0.48171 0.45812 0.44147 0.0
C1817 C 0.48127 0.47293 0.45963 0.0
H1818 H 0.5443 0.01277 0.44049 0.0
H1819 H 0.56477 0.06741 0.39273 0.0
H1820 H 0.53431 0.06465 0.40345 0.0
H1821 H 0.49798 0.99233 0.40171 0.0
H1822 H 0.48754 0.9786 0.44368 0.0
H1823 H 0.51067 0.98462 0.43046 0.0
H1824 H 0.52242 -0.00094 0.4972 0.0
H1825 H 0.49935 0.99306 0.51063 0.0
H1826 H 0.51774 0.01665 0.51405 0.0
H1827 H 0.50196 0.05639 0.42261 0.0
H1828 H 0.47045 0.04334 0.44875 0.0
H1829 H 0.47158 0.99408 0.48288 0.0
C1830 C 0.54239 0.02413 0.43202 0.0
C1831 C 0.55691 0.04031 0.41579 0.0
C1832 C 0.55382 0.05487 0.40517 0.0
C1833 C 0.53657 0.05342 0.41109 0.0
C1834 C 0.52259 0.03729 0.42739 0.0
C1835 C 0.52532 0.0229 0.43758 0.0
C1836 C 0.50829 0.00727 0.45566 0.0
C1837 C 0.50067 0.98967 0.43142 0.0
C1838 C 0.51219 0.00382 0.49682 0.0
C1839 C 0.4956 0.01523 0.45466 0.0
C1840 C 0.50403 0.03251 0.43809 0.0
C1841 C 0.49517 0.04281 0.43534 0.0
C1842 C 0.4773 0.03529 0.45028 0.0
C1843 C 0.46855 0.01768 0.46774 0.0
C1844 C 0.47781 0.00751 0.46946 0.0
H1845 H 0.50706 0.04244 0.95367 0.0
H1846 H 0.45424 0.00025 0.99813 0.0
H1847 H 0.46913 0.98371 0.02499 0.0
H1848 H 0.52318 0.01219 0.92588 0.0
H1849 H 0.5468 0.02775 0.93909 0.0
H1850 H 0.53216 0.03674 0.92488 0.0
H1851 H 0.53909 0.05472 0.98854 0.0
H1852 H 0.55378 0.0458 0.00293 0.0
H1853 H 0.53492 0.04248 0.03303 0.0
H1854 H 0.48951 0.97129 0.04531 0.0
H1855 H 0.51404 0.96377 0.05745 0.0
H1856 H 0.55345 0.01401 0.99941 0.0
C1857 C 0.49863 0.0298 0.9693 0.0
C1858 C 0.4795 0.02265 0.97385 0.0
C1859 C 0.46894 0.006 0.99429 0.0
C1860 C 0.47726 0.99651 0.0097 0.0
C1861 C 0.49613 0.00387 0.00445 0.0
C1862 C 0.5067 0.02014 0.9848 0.0
C1863 C 0.52661 0.02481 0.9823 0.0
C1864 C 0.53253 0.0254 0.94056 0.0
C1865 C 0.53935 0.04303 0.00294 0.0
C1866 C 0.52555 0.00854 0.00332 0.0
C1867 C 0.50787 0.99666 0.01602 0.0
C1868 C 0.50344 0.98051 0.03564 0.0
C1869 C 0.51746 0.97636 0.04237 0.0
C1870 C 0.53566 0.98829 0.02939 0.0
C1871 C 0.53969 0.00462 0.00976 0.0
H1872 H 0.99318 0.50753 0.02647 0.0
H1873 H 0.95845 0.52398 0.96601 0.0
H1874 H 0.94463 0.49489 0.92946 0.0
H1875 H 0.00253 0.48701 0.94773 0.0
H1876 H 0.00197 0.46855 0.97521 0.0
H1877 H 0.0085 0.49029 0.99761 0.0
H1878 H 0.98285 0.47361 0.04826 0.0
H1879 H 0.97625 0.4518 0.02602 0.0
H1880 H 0.95937 0.45889 0.033 0.0
H1881 H 0.93556 0.46446 0.89767 0.0
H1882 H 0.93172 0.43494 0.87387 0.0
H1883 H 0.97228 0.43875 0.95604 0.0
C1884 C 0.98259 0.505 0.00573 0.0
C1885 C 0.97689 0.51801 0.99909 0.0
C1886 C 0.96301 0.51417 0.97162 0.0
C1887 C 0.95508 0.4977 0.95073 0.0
C1888 C 0.96112 0.48522 0.95781 0.0
C1889 C 0.97451 0.48865 0.98475 0.0
C1890 C 0.97888 0.47321 0.98645 0.0
C1891 C -0.00083 0.48019 0.97612 0.0
C1892 C 0.97404 0.46382 0.02577 0.0
C1893 C 0.966 0.46063 0.95595 0.0
C1894 C 0.95583 0.46774 0.93977 0.0
C1895 C 0.94336 0.4587 0.91028 0.0
C1896 C 0.9413 0.44197 0.89694 0.0
C1897 C 0.95166 0.43453 0.91314 0.0
C1898 C 0.96407 0.44401 0.94315 0.0
H1899 H 0.46263 0.46414 0.01216 0.0
H1900 H 0.4432 0.48671 0.10032 0.0
H1901 H 0.47459 0.51336 0.10696 0.0
H1902 H 0.50658 0.47761 0.05429 0.0
H1903 H 0.51866 0.48316 0.0094 0.0
H1904 H 0.49462 0.46585 0.01142 0.0
H1905 H 0.48715 0.48353 0.96031 0.0
H1906 H 0.51118 0.50083 0.95796 0.0
H1907 H 0.49416 0.50742 0.96812 0.0
H1908 H 0.50816 0.53743 0.10436 0.0
H1909 H 0.54126 0.55786 0.0907 0.0
H1910 H 0.53855 0.51947 0.00422 0.0
C1911 C 0.46494 0.4747 0.03279 0.0
C1912 C 0.45046 0.47334 0.05573 0.0
C1913 C 0.45408 0.48747 0.08238 0.0
C1914 C 0.47187 0.50264 0.08645 0.0
C1915 C 0.48587 0.50347 0.06363 0.0
C1916 C 0.4826 0.48994 0.0372 0.0
C1917 C 0.5 0.49422 0.01593 0.0
C1918 C 0.50527 0.47932 0.02321 0.0
C1919 C 0.498 0.49665 0.97304 0.0
C1920 C 0.51356 0.51229 0.0345 0.0
C1921 C 0.50516 0.51737 0.06204 0.0
C1922 C 0.5149 0.53361 0.08285 0.0
C1923 C 0.53369 0.5451 0.07495 0.0
C1924 C 0.54249 0.54027 0.04641 0.0
C1925 C 0.53225 0.52356 0.02626 0.0
H1926 H 0.39329 0.05658 0.99416 0.0
H1927 H 0.44886 0.07389 0.03269 0.0
H1928 H 0.44228 0.08417 0.09373 0.0
H1929 H 0.38869 0.09356 0.04179 0.0
H1930 H 0.36479 0.07809 0.05305 0.0
H1931 H 0.37475 0.07439 0.0108 0.0
H1932 H 0.36438 0.04114 0.0334 0.0
H1933 H 0.35457 0.04478 0.07583 0.0
H1934 H 0.37153 0.03762 0.07962 0.0
H1935 H 0.42844 0.08945 0.15324 0.0
H1936 H 0.40877 0.09012 0.20516 0.0
H1937 H 0.36245 0.06917 0.127 0.0
C1938 C 0.40426 0.06294 0.01499 0.0
C1939 C 0.42162 0.06448 0.00854 0.0
C1940 C 0.43547 0.07264 0.03688 0.0
C1941 C 0.43187 0.07853 0.07167 0.0
C1942 C 0.41439 0.07627 0.07754 0.0
C1943 C 0.40088 0.06883 0.0498 0.0
C1944 C 0.38286 0.06668 0.064 0.0
C1945 C 0.37746 0.07891 0.04104 0.0
C1946 C 0.36744 0.04635 0.06317 0.0
C1947 C 0.38817 0.07361 0.10441 0.0
C1948 C 0.40645 0.07924 0.11168 0.0
C1949 C 0.41417 0.08531 0.14771 0.0
C1950 C 0.40289 0.08559 0.17705 0.0
C1951 C 0.38409 0.07974 0.17015 0.0
C1952 C 0.37679 0.07385 0.13321 0.0
H1953 H 0.92184 0.30116 0.11207 0.0
H1954 H 0.87203 0.29987 0.15112 0.0
H1955 H 0.87263 0.31747 0.09384 0.0
H1956 H 0.94415 0.3466 0.07495 0.0
H1957 H 0.95408 0.34119 0.0349 0.0
H1958 H 0.94923 0.32812 0.07831 0.0
H1959 H 0.9293 0.29794 0.04047 0.0
H1960 H 0.93398 0.31096 0.99695 0.0
H1961 H 0.9105 0.29574 0.01154 0.0
H1962 H 0.8799 0.33682 0.03352 0.0
H1963 H 0.89319 0.35617 0.97606 0.0
H1964 H 0.93738 0.34332 0.97611 0.0
C1965 C 0.91101 0.30453 0.10868 0.0
C1966 C 0.89691 0.29919 0.13619 0.0
C1967 C 0.88297 0.30383 0.13044 0.0
C1968 C 0.88318 0.31378 0.09795 0.0
C1969 C 0.8973 0.3188 0.07136 0.0
C1970 C 0.91092 0.31426 0.0764 0.0
C1971 C 0.92476 0.32149 0.04412 0.0
C1972 C 0.9442 0.33516 0.05897 0.0
C1973 C 0.92462 0.30558 0.02196 0.0
C1974 C 0.91701 0.33111 0.02033 0.0
C1975 C 0.90116 0.3294 0.03639 0.0
C1976 C 0.89218 0.33805 0.02049 0.0
C1977 C 0.89981 0.34899 0.98783 0.0
C1978 C 0.9162 0.35111 0.9713 0.0
C1979 C 0.92464 0.34171 0.98752 0.0
H1980 H 0.66674 0.59127 0.99728 0.0
H1981 H 0.62572 0.55375 0.07749 0.0
H1982 H 0.6499 0.56283 0.12662 0.0
H1983 H 0.70668 0.58696 0.03312 0.0
H1984 H 0.72244 0.61119 0.0259 0.0
H1985 H 0.70272 0.59905 0.99509 0.0
H1986 H 0.69241 0.62275 0.01122 0.0
H1987 H 0.71195 0.63486 0.04218 0.0
H1988 H 0.68902 0.62662 0.06037 0.0
H1989 H 0.67751 0.57923 0.1694 0.0
H1990 H 0.70596 0.60193 0.20237 0.0
H1991 H 0.7287 0.62913 0.09434 0.0
C1992 C 0.66296 0.58443 0.02471 0.0
C1993 C 0.6444 0.57161 0.03343 0.0
C1994 C 0.6399 0.56348 0.07012 0.0
C1995 C 0.65354 0.56852 0.09817 0.0
C1996 C 0.67163 0.58171 0.08907 0.0
C1997 C 0.67636 0.5895 0.05313 0.0
C1998 C 0.69621 0.60499 0.05192 0.0
C1999 C 0.70769 0.60025 0.02491 0.0
C2000 C 0.69745 0.62338 0.04078 0.0
C2001 C 0.70172 0.60513 0.09305 0.0
C2002 C 0.68748 0.59141 0.11392 0.0
C2003 C 0.68888 0.58981 0.1532 0.0
C2004 C 0.70509 0.60279 0.17171 0.0
C2005 C 0.71962 0.61729 0.15098 0.0
C2006 C 0.71798 0.6181 0.111 0.0
H2007 H 0.09013 0.36921 0.37221 0.0
H2008 H 0.07294 0.39208 0.28061 0.0
H2009 H 0.06961 0.41253 0.32683 0.0
H2010 H 0.05792 0.36617 0.43719 0.0
H2011 H 0.0725 0.37178 0.47861 0.0
H2012 H 0.07661 0.36133 0.43783 0.0
H2013 H 0.11026 0.38837 0.43376 0.0
H2014 H 0.10633 0.39887 0.47485 0.0
H2015 H 0.11462 0.41171 0.43108 0.0
H2016 H 0.06497 0.42797 0.3839 0.0
H2017 H 0.05891 0.43683 0.44701 0.0
H2018 H 0.07817 0.40298 0.50146 0.0
C2019 C 0.08625 0.37894 0.36161 0.0
C2020 C 0.08203 0.37923 0.32268 0.0
C2021 C 0.07641 0.39175 0.31023 0.0
C2022 C 0.0745 0.40342 0.33628 0.0
C2023 C 0.07824 0.40237 0.37466 0.0
C2024 C 0.08405 0.39048 0.38726 0.0
C2025 C 0.08533 0.39058 0.43035 0.0
C2026 C 0.07231 0.37133 0.44695 0.0
C2027 C 0.10533 0.39782 0.44326 0.0
C2028 C 0.07889 0.40406 0.44014 0.0
C2029 C 0.07512 0.41091 0.40762 0.0
C2030 C 0.0681 0.42286 0.40953 0.0
C2031 C 0.06467 0.42779 0.44556 0.0
C2032 C 0.06809 0.42063 0.47927 0.0
C2033 C 0.07553 0.40881 0.47632 0.0
H2034 H 0.61336 0.63293 0.47587 0.0
H2035 H 0.55771 0.6222 0.49621 0.0
H2036 H 0.56054 0.6418 0.44093 0.0
H2037 H 0.63294 0.68054 0.446 0.0
H2038 H 0.64742 0.67865 0.41041 0.0
H2039 H 0.64114 0.66451 0.45257 0.0
H2040 H 0.62802 0.63525 0.41034 0.0
H2041 H 0.6341 0.64928 0.36806 0.0
H2042 H 0.61064 0.63115 0.37525 0.0
H2043 H 0.56907 0.66133 0.38075 0.0
H2044 H 0.58317 0.68043 0.32327 0.0
H2045 H 0.63316 0.67824 0.34374 0.0
C2046 C 0.6018 0.63484 0.46909 0.0
C2047 C 0.5853 0.62602 0.49047 0.0
C2048 C 0.57051 0.62885 0.48035 0.0
C2049 C 0.57198 0.63992 0.44894 0.0
C2050 C 0.58834 0.64811 0.42806 0.0
C2051 C 0.60303 0.6458 0.43795 0.0
C2052 C 0.61896 0.65571 0.41053 0.0
C2053 C 0.63613 0.67075 0.43111 0.0
C2054 C 0.62317 0.64203 0.38982 0.0
C2055 C 0.61096 0.66397 0.38354 0.0
C2056 C 0.59326 0.65939 0.39393 0.0
C2057 C 0.58297 0.66509 0.37253 0.0
C2058 C 0.59106 0.67587 0.33986 0.0
C2059 C 0.60929 0.6809 0.3291 0.0
C2060 C 0.61926 0.67478 0.35132 0.0
H2061 H 0.37707 0.97471 0.43781 0.0
H2062 H 0.36897 0.93344 0.52229 0.0
H2063 H 0.34117 0.91046 0.48767 0.0
H2064 H 0.33052 0.96162 0.42751 0.0
H2065 H 0.33201 0.96621 0.3771 0.0
H2066 H 0.35201 0.97876 0.40669 0.0
H2067 H 0.37026 0.96831 0.36354 0.0
H2068 H 0.35022 0.95572 0.33385 0.0
H2069 H 0.36125 0.94408 0.35489 0.0
H2070 H 0.31264 0.8928 0.44652 0.0
H2071 H 0.28615 0.88209 0.40245 0.0
H2072 H 0.31372 0.93505 0.34496 0.0
C2073 C 0.36965 0.96078 0.44884 0.0
C2074 C 0.37524 0.95588 0.48276 0.0
C2075 C 0.365 0.93752 0.49629 0.0
C2076 C 0.3492 0.92436 0.47678 0.0
C2077 C 0.34394 0.92976 0.44369 0.0
C2078 C 0.35394 0.94754 0.42977 0.0
C2079 C 0.34492 0.95022 0.3949 0.0
C2080 C 0.33955 0.96508 0.40202 0.0
C2081 C 0.35741 0.95485 0.35971 0.0
C2082 C 0.32808 0.93127 0.39164 0.0
C2083 C 0.32775 0.9196 0.41989 0.0
C2084 C 0.3129 0.90174 0.42395 0.0
C2085 C 0.29792 0.89577 0.39881 0.0
C2086 C 0.29795 0.90764 0.36998 0.0
C2087 C 0.31341 0.92548 0.36614 0.0
H2088 H 0.63927 0.92151 0.86316 0.0
H2089 H 0.60931 0.92733 0.76821 0.0
H2090 H 0.58928 0.93178 0.81363 0.0
H2091 H 0.59956 0.89794 0.92922 0.0
H2092 H 0.61348 0.91011 0.96992 0.0
H2093 H 0.62371 0.90492 0.93007 0.0
H2094 H 0.64819 0.93954 0.92376 0.0
H2095 H 0.63809 0.94482 0.96349 0.0
H2096 H 0.64074 0.95624 0.91843 0.0
H2097 H 0.57526 0.9395 0.86917 0.0
H2098 H 0.56861 0.95003 0.92982 0.0
H2099 H 0.60741 0.93845 0.98811 0.0
C2100 C 0.62826 0.92333 0.8518 0.0
C2101 C 0.62583 0.92403 0.81208 0.0
C2102 C 0.61139 0.92666 0.79851 0.0
C2103 C 0.59991 0.92915 0.8241 0.0
C2104 C 0.60294 0.92875 0.86311 0.0
C2105 C 0.6167 0.92578 0.87686 0.0
C2106 C 0.61818 0.9275 0.91983 0.0
C2107 C 0.61344 0.90901 0.93834 0.0
C2108 C 0.63743 0.94294 0.93207 0.0
C2109 C 0.60352 0.93252 0.92812 0.0
C2110 C 0.59472 0.93298 0.89511 0.0
C2111 C 0.5818 0.93884 0.89527 0.0
C2112 C 0.57813 0.94482 0.92984 0.0
C2113 C 0.58736 0.94489 0.96376 0.0
C2114 C 0.59982 0.93818 0.96289 0.0
H2115 H 0.04327 0.64337 0.00649 0.0
H2116 H 0.03552 0.59355 0.95166 0.0
H2117 H 0.05537 0.61216 0.89834 0.0
H2118 H 0.04044 0.66499 0.92493 0.0
H2119 H 0.05772 0.68792 0.93893 0.0
H2120 H 0.04485 0.67092 0.97472 0.0
H2121 H 0.07531 0.676 0.00489 0.0
H2122 H 0.0883 0.69308 0.96913 0.0
H2123 H 0.09176 0.67368 0.97571 0.0
H2124 H 0.07263 0.63601 0.84674 0.0
H2125 H 0.08681 0.66304 0.80354 0.0
H2126 H 0.08427 0.69703 0.89397 0.0
C2127 C 0.04607 0.63638 0.98373 0.0
C2128 C 0.03784 0.61699 0.98337 0.0
C2129 C 0.04174 0.6084 0.95276 0.0
C2130 C 0.05301 0.61886 0.92228 0.0
C2131 C 0.06051 0.63793 0.92306 0.0
C2132 C 0.05738 0.64661 0.9533 0.0
C2133 C 0.06607 0.66711 0.94634 0.0
C2134 C 0.05139 0.67307 0.94621 0.0
C2135 C 0.08127 0.67811 0.97577 0.0
C2136 C 0.0741 0.66856 0.907 0.0
C2137 C 0.07085 0.65163 0.89397 0.0
C2138 C 0.07561 0.6494 0.85699 0.0
C2139 C 0.08365 0.66482 0.83263 0.0
C2140 C 0.08691 0.68222 0.84546 0.0
C2141 C 0.08237 0.68405 0.88342 0.0
H2142 H 0.31359 0.40719 0.82971 0.0
H2143 H 0.282 0.42777 0.88888 0.0
H2144 H 0.30518 0.43958 0.94051 0.0
H2145 H 0.32345 0.38982 0.90868 0.0
H2146 H 0.34633 0.39541 0.89438 0.0
H2147 H 0.32937 0.39173 0.85883 0.0
H2148 H 0.35109 0.42396 0.82996 0.0
H2149 H 0.36829 0.42768 0.86517 0.0
H2150 H 0.3604 0.44404 0.86017 0.0
H2151 H 0.32958 0.44546 0.98944 0.0
H2152 H 0.35342 0.44543 0.0309 0.0
H2153 H 0.36826 0.42007 0.94007 0.0
C2154 C 0.31181 0.41471 0.85286 0.0
C2155 C 0.29602 0.41666 0.85512 0.0
C2156 C 0.29405 0.42622 0.88642 0.0
C2157 C 0.30715 0.43298 0.91588 0.0
C2158 C 0.32215 0.43011 0.91353 0.0
C2159 C 0.32461 0.42133 0.88261 0.0
C2160 C 0.34077 0.41826 0.88861 0.0
C2161 C 0.3346 0.39759 0.88758 0.0
C2162 C 0.35604 0.42914 0.85923 0.0
C2163 C 0.34668 0.42616 0.92822 0.0
C2164 C 0.33596 0.43317 0.94195 0.0
C2165 C 0.33823 0.44026 0.97876 0.0
C2166 C 0.35177 0.44013 0.00215 0.0
C2167 C 0.36274 0.43278 0.98874 0.0
C2168 C 0.36021 0.4259 0.95113 0.0
H2169 H 0.89619 0.60875 0.65179 0.0
H2170 H 0.87151 0.55802 0.71738 0.0
H2171 H 0.8786 0.54267 0.66514 0.0
H2172 H 0.88169 0.58755 0.55679 0.0
H2173 H 0.90305 0.60444 0.53515 0.0
H2174 H 0.89409 0.61063 0.57575 0.0
H2175 H 0.92485 0.62139 0.61174 0.0
H2176 H 0.93387 0.61523 0.57138 0.0
H2177 H 0.9334 0.6056 0.61761 0.0
H2178 H 0.89126 0.53387 0.60792 0.0
H2179 H 0.9084 0.53255 0.55171 0.0
H2180 H 0.92449 0.58917 0.52442 0.0
C2181 C 0.89192 0.5943 0.65502 0.0
C2182 C 0.88321 0.58458 0.68873 0.0
C2183 C 0.8781 0.56575 0.69179 0.0
C2184 C 0.88206 0.55691 0.66222 0.0
C2185 C 0.89101 0.56705 0.6297 0.0
C2186 C 0.89577 0.58533 0.62593 0.0
C2187 C 0.90641 0.59361 0.58951 0.0
C2188 C 0.89566 0.59939 0.56272 0.0
C2189 C 0.92578 0.60991 0.59809 0.0
C2190 C 0.90734 0.5773 0.5737 0.0
C2191 C 0.89823 0.56203 0.59701 0.0
C2192 C 0.89821 0.54568 0.58923 0.0
C2193 C 0.90799 0.54505 0.55721 0.0
C2194 C 0.91773 0.56071 0.53346 0.0
C2195 C 0.91703 0.57687 0.54163 0.0
H2196 H 0.37423 0.29098 0.5927 0.0
H2197 H 0.41665 0.3214 0.67713 0.0
H2198 H 0.43455 0.34528 0.629 0.0
H2199 H 0.40552 0.30389 0.50773 0.0
H2200 H 0.38891 0.30558 0.47784 0.0
H2201 H 0.38121 0.28933 0.51673 0.0
H2202 H 0.36238 0.30365 0.54388 0.0
H2203 H 0.37003 0.31991 0.50529 0.0
H2204 H 0.37392 0.32802 0.55384 0.0
H2205 H 0.44514 0.36806 0.57531 0.0
H2206 H 0.44759 0.3877 0.52058 0.0
H2207 H 0.39844 0.34217 0.47105 0.0
C2208 C 0.38753 0.30239 0.60087 0.0
C2209 C 0.39406 0.30429 0.63869 0.0
C2210 C 0.4114 0.31959 0.64829 0.0
C2211 C 0.4217 0.3332 0.6211 0.0
C2212 C 0.41455 0.33119 0.58437 0.0
C2213 C 0.39793 0.31605 0.57415 0.0
C2214 C 0.39228 0.31804 0.53423 0.0
C2215 C 0.39197 0.30333 0.50755 0.0
C2216 C 0.37356 0.31738 0.53435 0.0
C2217 C 0.40789 0.33704 0.52418 0.0
C2218 C 0.42076 0.34429 0.5532 0.0
C2219 C 0.43539 0.36237 0.55204 0.0
C2220 C 0.43664 0.37344 0.52088 0.0
C2221 C 0.4233 0.3664 0.4914 0.0
C2222 C 0.40909 0.34781 0.49268 0.0
H2223 H 0.63248 0.044 0.52469 0.0
H2224 H 0.64994 0.09853 0.47931 0.0
H2225 H 0.66804 0.11246 0.53787 0.0
H2226 H 0.62715 0.05398 0.62128 0.0
H2227 H 0.6356 0.03976 0.64121 0.0
H2228 H 0.62439 0.03416 0.59542 0.0
H2229 H 0.65301 0.03493 0.56518 0.0
H2230 H 0.66429 0.04049 0.61091 0.0
H2231 H 0.67535 0.05526 0.57052 0.0
H2232 H 0.68396 0.12036 0.60194 0.0
H2233 H 0.69662 0.12164 0.66618 0.0
H2234 H 0.66845 0.06184 0.66925 0.0
C2235 C 0.64016 0.05888 0.5269 0.0
C2236 C 0.6398 0.07018 0.49734 0.0
C2237 C 0.65001 0.08959 0.50154 0.0
C2238 C 0.66032 0.09763 0.5347 0.0
C2239 C 0.66027 0.08607 0.56335 0.0
C2240 C 0.65047 0.06711 0.55973 0.0
C2241 C 0.65253 0.05774 0.59476 0.0
C2242 C 0.6338 0.0457 0.61432 0.0
C2243 C 0.66185 0.04644 0.58473 0.0
C2244 C 0.66501 0.07438 0.61875 0.0
C2245 C 0.66934 0.0906 0.60015 0.0
C2246 C 0.68066 0.10775 0.61675 0.0
C2247 C 0.68777 0.10833 0.65328 0.0
C2248 C 0.68351 0.09185 0.67282 0.0
C2249 C 0.67196 0.07469 0.65516 0.0
H2250 H 0.75191 0.72867 0.64715 0.0
H2251 H 0.80693 0.76431 0.69179 0.0
H2252 H 0.79373 0.77395 0.74392 0.0
H2253 H 0.73307 0.75857 0.67005 0.0
H2254 H 0.71082 0.73944 0.6826 0.0
H2255 H 0.72481 0.73648 0.64746 0.0
H2256 H 0.72288 0.7093 0.68652 0.0
H2257 H 0.709 0.71224 0.72188 0.0
H2258 H 0.73003 0.71287 0.73574 0.0
H2259 H 0.77417 0.77799 0.79383 0.0
H2260 H 0.74994 0.77689 0.83596 0.0
H2261 H 0.708 0.73871 0.75787 0.0
C2262 C 0.76126 0.73873 0.66748 0.0
C2263 C 0.78048 0.74579 0.66526 0.0
C2264 C 0.79216 0.75877 0.69278 0.0
C2265 C 0.78479 0.76432 0.72253 0.0
C2266 C 0.76574 0.7568 0.72427 0.0
C2267 C 0.75415 0.74439 0.69729 0.0
C2268 C 0.73413 0.73777 0.70631 0.0
C2269 C 0.72519 0.74341 0.67473 0.0
C2270 C 0.72339 0.71681 0.71302 0.0
C2271 C 0.73622 0.74826 0.74282 0.0
C2272 C 0.75454 0.75918 0.75275 0.0
C2273 C 0.75979 0.76962 0.78614 0.0
C2274 C 0.74593 0.76887 0.80993 0.0
C2275 C 0.72708 0.75779 0.80015 0.0
C2276 C 0.72228 0.74745 0.76603 0.0
H2277 H 0.27973 0.03083 0.77197 0.0
H2278 H 0.24472 0.002 0.67538 0.0
H2279 H 0.22829 0.97379 0.71464 0.0
H2280 H 0.28639 0.99564 0.80147 0.0
H2281 H 0.28649 2e-05 0.8518 0.0
H2282 H 0.29322 0.01851 0.81828 0.0
H2283 H 0.26844 0.02525 0.84574 0.0
H2284 H 0.26163 0.00673 0.87951 0.0
H2285 H 0.24475 0.00699 0.84804 0.0
H2286 H 0.21849 0.94779 0.76214 0.0
H2287 H 0.21672 0.92637 0.81261 0.0
H2288 H 0.25842 0.9726 0.87734 0.0
C2289 C 0.2683 0.01875 0.75922 0.0
C2290 C 0.26346 0.01866 0.72061 0.0
C2291 C 0.24861 0.00243 0.70497 0.0
C2292 C 0.23916 0.98636 0.72709 0.0
C2293 C 0.24466 0.98682 0.76482 0.0
C2294 C 0.25883 0.00266 0.78077 0.0
C2295 C 0.2634 -0.00078 0.82055 0.0
C2296 C 0.28356 0.0036 0.82314 0.0
C2297 C 0.2593 0.0102 0.85021 0.0
C2298 C 0.25005 0.97878 0.82409 0.0
C2299 C 0.23913 0.97189 0.79198 0.0
C2300 C 0.22675 0.9531 0.78767 0.0
C2301 C 0.22585 0.94103 0.81651 0.0
C2302 C 0.23739 0.94781 0.84903 0.0
C2303 C 0.24925 0.96698 0.85311 0.0
H2304 H 0.97052 0.27818 0.65924 0.0
H2305 H 0.92734 0.22155 0.67697 0.0
H2306 H 0.94725 0.21729 0.72307 0.0
H2307 H 0.01059 0.27072 0.67137 0.0
H2308 H 0.0237 0.29233 0.69611 0.0
H2309 H 0.00726 0.28986 0.66011 0.0
H2310 H 0.99119 0.3003 0.70883 0.0
H2311 H 0.00718 0.30244 0.74537 0.0
H2312 H 0.98277 0.28787 0.75304 0.0
H2313 H 0.97051 0.22037 0.77266 0.0
H2314 H 0.99515 0.23044 0.82105 0.0
H2315 H 0.02263 0.28527 0.77147 0.0
C2316 C 0.96546 0.26467 0.67175 0.0
C2317 C 0.94745 0.2501 0.66409 0.0
C2318 C 0.94116 0.23284 0.68211 0.0
C2319 C 0.95238 0.2303 0.70834 0.0
C2320 C 0.96984 0.24516 0.71622 0.0
C2321 C 0.97639 0.26197 0.69821 0.0
C2322 C 0.99489 0.27625 0.71422 0.0
C2323 C 0.01 0.28266 0.68363 0.0
C2324 C 0.99393 0.29267 0.73139 0.0
C2325 C 0.99749 0.265 0.7448 0.0
C2326 C 0.98304 0.24703 0.74521 0.0
C2327 C 0.98201 0.23434 0.77226 0.0
C2328 C 0.99606 0.2402 0.7997 0.0
C2329 C 0.01087 0.25863 0.80008 0.0
C2330 C 0.0116 0.27105 0.77188 0.0
H2331 H 0.29294 0.26964 0.17061 0.0
H2332 H 0.27103 0.21104 0.18823 0.0
H2333 H 0.25113 0.2114 0.23992 0.0
H2334 H 0.29671 0.28152 0.26569 0.0
H2335 H 0.29036 0.29901 0.25985 0.0
H2336 H 0.30086 0.29361 0.22101 0.0
H2337 H 0.27321 0.28683 0.1773 0.0
H2338 H 0.26268 0.29242 0.21595 0.0
H2339 H 0.25014 0.27041 0.19241 0.0
H2340 H 0.23593 0.21907 0.29426 0.0
H2341 H 0.22645 0.23325 0.34492 0.0
H2342 H 0.25904 0.28668 0.29102 0.0
C2343 C 0.28366 0.25676 0.18467 0.0
C2344 C 0.2835 0.24031 0.17527 0.0
C2345 C 0.27131 0.22381 0.19478 0.0
C2346 C 0.25996 0.22388 0.22421 0.0
C2347 C 0.26091 0.24051 0.23354 0.0
C2348 C 0.27235 0.25661 0.21405 0.0
C2349 C 0.27188 0.27293 0.23109 0.0
C2350 C 0.29109 0.28762 0.24525 0.0
C2351 C 0.264 0.28112 0.20248 0.0
C2352 C 0.25877 0.26363 0.2639 0.0
C2353 C 0.25239 0.24491 0.26475 0.0
C2354 C 0.24068 0.23368 0.29359 0.0
C2355 C 0.23541 0.24185 0.32229 0.0
C2356 C 0.242 0.26106 0.32199 0.0
C2357 C 0.25371 0.27195 0.29214 0.0
H2358 H 0.7324 0.99846 0.12154 0.0
H2359 H 0.78419 0.03539 0.17746 0.0
H2360 H 0.77505 0.01402 0.2323 0.0
H2361 H 0.7053 0.98804 0.20313 0.0
H2362 H 0.68965 0.96434 0.19072 0.0
H2363 H 0.70123 0.98115 0.15378 0.0
H2364 H 0.71451 0.96149 0.12615 0.0
H2365 H 0.7028 0.94449 0.16282 0.0
H2366 H 0.72735 0.95465 0.15672 0.0
H2367 H 0.75917 0.98971 0.28305 0.0
H2368 H 0.73781 0.96465 0.32582 0.0
H2369 H 0.696 0.94442 0.23727 0.0
C2370 C 0.74206 0.00181 0.14481 0.0
C2371 C 0.75913 0.01846 0.14502 0.0
C2372 C 0.77112 0.02262 0.17659 0.0
C2373 C 0.76604 0.01057 0.20783 0.0
C2374 C 0.7489 0.99449 0.20714 0.0
C2375 C 0.7371 0.99009 0.17639 0.0
C2376 C 0.71885 0.9728 0.18394 0.0
C2377 C 0.70282 0.97683 0.18283 0.0
C2378 C 0.7157 0.95745 0.15573 0.0
C2379 C 0.7221 0.96826 0.22393 0.0
C2380 C 0.73957 0.98081 0.2367 0.0
C2381 C 0.74551 0.97972 0.27323 0.0
C2382 C 0.73326 0.96544 0.29734 0.0
C2383 C 0.71522 0.95254 0.28495 0.0
C2384 C 0.7097 0.954 0.24763 0.0
H2385 H -0.00121 0.73902 0.31389 0.0
H2386 H 0.05649 0.75678 0.29407 0.0
H2387 H 0.05133 0.75592 0.22474 0.0
H2388 H 0.98085 0.70755 0.23556 0.0
H2389 H 0.96304 0.71287 0.22409 0.0
H2390 H 0.97131 0.71534 0.27233 0.0
H2391 H 0.97901 0.74939 0.27272 0.0
H2392 H 0.97079 0.74703 0.22444 0.0
H2393 H 0.99383 0.76489 0.23626 0.0
H2394 H 0.03987 0.75227 0.15773 0.0
H2395 H 0.02286 0.74613 0.09716 0.0
H2396 H 0.97257 0.73112 0.15982 0.0
C2397 C 0.01036 0.7428 0.295 0.0
C2398 C 0.02807 0.74799 0.30954 0.0
C2399 C 0.04281 0.75278 0.28374 0.0
C2400 C 0.04002 0.75236 0.24426 0.0
C2401 C 0.02243 0.74716 0.23091 0.0
C2402 C 0.00784 0.74249 0.25543 0.0
C2403 C 0.99024 0.73712 0.23351 0.0
C2404 C 0.97549 0.71703 0.24187 0.0
C2405 C 0.98305 0.7504 0.24226 0.0
C2406 C 0.99721 0.73938 0.19286 0.0
C2407 C 0.01582 0.7452 0.19208 0.0
C2408 C 0.02531 0.7478 0.15796 0.0
C2409 C 0.01551 0.74426 0.12368 0.0
C2410 C 0.9964 0.73821 0.12367 0.0
C2411 C 0.9872 0.73589 0.15883 0.0
loop_
_geom_bond_atom_site_label_1
_geom_bond_atom_site_label_2
_geom_bond_distance
_geom_bond_site_symmetry_2
_ccdc_geom_bond_type
C0 O1 1.160 . S
C0 O7 1.185 . S
O1 C0 1.160 . S
O2 Zn3 1.899 . S
O2 C10 1.284 . S
Zn3 O2 1.899 . S
Zn3 O4 2.032 . S
Zn3 O7 2.086 . S
Zn3 O12 1.977 . S
O4 Zn3 2.032 . S
O4 C8 1.278 . S
C5 O6 1.203 . S
C5 O12 1.267 . S
O6 C5 1.203 . S
O7 C0 1.185 . S
O7 Zn3 2.086 . S
C8 O4 1.278 . S
C8 O9 1.211 . S
O9 C8 1.211 . S
C10 O2 1.284 . S
C10 O11 1.273 . S
O11 C10 1.273 . S
O12 Zn3 1.977 . S
O12 C5 1.267 . S
C13 O14 1.160 . S
C13 O20 1.185 . S
O14 C13 1.160 . S
O15 Zn16 1.899 . S
O15 C23 1.284 . S
Zn16 O15 1.899 . S
Zn16 O17 2.032 . S
Zn16 O20 2.086 . S
Zn16 O25 1.977 . S
O17 Zn16 2.032 . S
O17 C21 1.278 . S
C18 O19 1.203 . S
C18 O25 1.267 . S
O19 C18 1.203 . S
O20 C13 1.185 . S
O20 Zn16 2.086 . S
C21 O17 1.278 . S
C21 O22 1.211 . S
O22 C21 1.211 . S
C23 O15 1.284 . S
C23 O24 1.273 . S
O24 C23 1.273 . S
O25 Zn16 1.977 . S
O25 C18 1.267 . S
C26 O27 1.160 . S
C26 O33 1.185 . S
O27 C26 1.160 . S
O28 Zn29 1.899 . S
O28 C36 1.284 . S
Zn29 O28 1.899 . S
Zn29 O30 2.032 . S
Zn29 O33 2.086 . S
Zn29 O38 1.977 . S
O30 Zn29 2.032 . S
O30 C34 1.278 . S
C31 O32 1.203 . S
C31 O38 1.267 . S
O32 C31 1.203 . S
O33 C26 1.185 . S
O33 Zn29 2.086 . S
C34 O30 1.278 . S
C34 O35 1.211 . S
O35 C34 1.211 . S
C36 O28 1.284 . S
C36 O37 1.273 . S
O37 C36 1.273 . S
O38 Zn29 1.977 . S
O38 C31 1.267 . S
C39 O40 1.160 . S
C39 O46 1.185 . S
O40 C39 1.160 . S
O41 Zn42 1.899 . S
O41 C49 1.284 . S
Zn42 O41 1.899 . S
Zn42 O43 2.032 . S
Zn42 O46 2.086 . S
Zn42 O51 1.977 . S
O43 Zn42 2.032 . S
O43 C47 1.278 . S
C44 O45 1.203 . S
C44 O51 1.267 . S
O45 C44 1.203 . S
O46 C39 1.185 . S
O46 Zn42 2.086 . S
C47 O43 1.278 . S
C47 O48 1.211 . S
O48 C47 1.211 . S
C49 O41 1.284 . S
C49 O50 1.273 . S
O50 C49 1.273 . S
O51 Zn42 1.977 . S
O51 C44 1.267 . S
C52 O53 1.160 . S
C52 O59 1.185 . S
O53 C52 1.160 . S
O54 Zn55 1.899 . S
O54 C62 1.284 . S
Zn55 O54 1.899 . S
Zn55 O56 2.032 . S
Zn55 O59 2.086 . S
Zn55 O64 1.977 . S
O56 Zn55 2.032 . S
O56 C60 1.278 . S
C57 O58 1.203 . S
C57 O64 1.267 . S
O58 C57 1.203 . S
O59 C52 1.185 . S
O59 Zn55 2.086 . S
C60 O56 1.278 . S
C60 O61 1.211 . S
O61 C60 1.211 . S
C62 O54 1.284 . S
C62 O63 1.273 . S
O63 C62 1.273 . S
O64 Zn55 1.977 . S
O64 C57 1.267 . S
C65 O66 1.160 . S
C65 O72 1.185 . S
O66 C65 1.160 . S
O67 Zn68 1.899 . S
O67 C75 1.284 . S
Zn68 O67 1.899 . S
Zn68 O69 2.032 . S
Zn68 O72 2.086 . S
Zn68 O77 1.977 . S
O69 Zn68 2.032 . S
O69 C73 1.278 . S
C70 O71 1.203 . S
C70 O77 1.267 . S
O71 C70 1.203 . S
O72 C65 1.185 . S
O72 Zn68 2.086 . S
C73 O69 1.278 . S
C73 O74 1.211 . S
O74 C73 1.211 . S
C75 O67 1.284 . S
C75 O76 1.273 . S
O76 C75 1.273 . S
O77 Zn68 1.977 . S
O77 C70 1.267 . S
C78 O79 1.160 . S
C78 O85 1.185 . S
O79 C78 1.160 . S
O80 Zn81 1.899 . S
O80 C88 1.284 . S
Zn81 O80 1.899 . S
Zn81 O82 2.032 . S
Zn81 O85 2.086 . S
Zn81 O90 1.977 . S
O82 Zn81 2.032 . S
O82 C86 1.278 . S
C83 O84 1.203 . S
C83 O90 1.267 . S
O84 C83 1.203 . S
O85 C78 1.185 . S
O85 Zn81 2.086 . S
C86 O82 1.278 . S
C86 O87 1.211 . S
O87 C86 1.211 . S
C88 O80 1.284 . S
C88 O89 1.273 . S
O89 C88 1.273 . S
O90 Zn81 1.977 . S
O90 C83 1.267 . S
C91 O92 1.160 . S
C91 O98 1.185 . S
O92 C91 1.160 . S
O93 Zn94 1.899 . S
O93 C101 1.284 . S
Zn94 O93 1.899 . S
Zn94 O95 2.032 . S
Zn94 O98 2.086 . S
Zn94 O103 1.977 . S
O95 Zn94 2.032 . S
O95 C99 1.278 . S
C96 O97 1.203 . S
C96 O103 1.267 . S
O97 C96 1.203 . S
O98 C91 1.185 . S
O98 Zn94 2.086 . S
C99 O95 1.278 . S
C99 O100 1.211 . S
O100 C99 1.211 . S
C101 O93 1.284 . S
C101 O102 1.273 . S
O102 C101 1.273 . S
O103 Zn94 1.977 . S
O103 C96 1.267 . S
C104 O105 1.160 . S
C104 O111 1.185 . S
O105 C104 1.160 . S
O106 Zn107 1.899 . S
O106 C114 1.284 . S
Zn107 O106 1.899 . S
Zn107 O108 2.032 . S
Zn107 O111 2.086 . S
Zn107 O116 1.977 . S
O108 Zn107 2.032 . S
O108 C112 1.278 . S
C109 O110 1.203 . S
C109 O116 1.267 . S
O110 C109 1.203 . S
O111 C104 1.185 . S
O111 Zn107 2.086 . S
C112 O108 1.278 . S
C112 O113 1.211 . S
O113 C112 1.211 . S
C114 O106 1.284 . S
C114 O115 1.273 . S
O115 C114 1.273 . S
O116 Zn107 1.977 . S
O116 C109 1.267 . S
C117 O118 1.160 . S
C117 O124 1.185 . S
O118 C117 1.160 . S
O119 Zn120 1.899 . S
O119 C127 1.284 . S
Zn120 O119 1.899 . S
Zn120 O121 2.032 . S
Zn120 O124 2.086 . S
Zn120 O129 1.977 . S
O121 Zn120 2.032 . S
O121 C125 1.278 . S
C122 O123 1.203 . S
C122 O129 1.267 . S
O123 C122 1.203 . S
O124 C117 1.185 . S
O124 Zn120 2.086 . S
C125 O121 1.278 . S
C125 O126 1.211 . S
O126 C125 1.211 . S
C127 O119 1.284 . S
C127 O128 1.273 . S
O128 C127 1.273 . S
O129 Zn120 1.977 . S
O129 C122 1.267 . S
C130 O131 1.160 . S
C130 O137 1.185 . S
O131 C130 1.160 . S
O132 Zn133 1.899 . S
O132 C140 1.284 . S
Zn133 O132 1.899 . S
Zn133 O134 2.032 . S
Zn133 O137 2.086 . S
Zn133 O142 1.977 . S
O134 Zn133 2.032 . S
O134 C138 1.278 . S
C135 O136 1.203 . S
C135 O142 1.267 . S
O136 C135 1.203 . S
O137 C130 1.185 . S
O137 Zn133 2.086 . S
C138 O134 1.278 . S
C138 O139 1.211 . S
O139 C138 1.211 . S
C140 O132 1.284 . S
C140 O141 1.273 . S
O141 C140 1.273 . S
O142 Zn133 1.977 . S
O142 C135 1.267 . S
C143 O144 1.160 . S
C143 O150 1.185 . S
O144 C143 1.160 . S
O145 Zn146 1.899 . S
O145 C153 1.284 . S
Zn146 O145 1.899 . S
Zn146 O147 2.032 . S
Zn146 O150 2.086 . S
Zn146 O155 1.977 . S
O147 Zn146 2.032 . S
O147 C151 1.278 . S
C148 O149 1.203 . S
C148 O155 1.267 . S
O149 C148 1.203 . S
O150 C143 1.185 . S
O150 Zn146 2.086 . S
C151 O147 1.278 . S
C151 O152 1.211 . S
O152 C151 1.211 . S
C153 O145 1.284 . S
C153 O154 1.273 . S
O154 C153 1.273 . S
O155 Zn146 1.977 . S
O155 C148 1.267 . S
C156 O157 1.160 . S
C156 O163 1.185 . S
O157 C156 1.160 . S
O158 Zn159 1.899 . S
O158 C166 1.284 . S
Zn159 O158 1.899 . S
Zn159 O160 2.032 . S
Zn159 O163 2.086 . S
Zn159 O168 1.977 1_455 S
O160 Zn159 2.032 . S
O160 C164 1.278 . S
C161 O162 1.203 1_655 S
C161 O168 1.267 . S
O162 C161 1.203 1_455 S
O163 C156 1.185 . S
O163 Zn159 2.086 . S
C164 O160 1.278 . S
C164 O165 1.211 . S
O165 C164 1.211 . S
C166 O158 1.284 . S
C166 O167 1.273 . S
O167 C166 1.273 . S
O168 Zn159 1.977 1_655 S
O168 C161 1.267 . S
C169 O170 1.160 . S
C169 O176 1.185 . S
O170 C169 1.160 . S
O171 Zn172 1.899 . S
O171 C179 1.284 . S
Zn172 O171 1.899 . S
Zn172 O173 2.032 . S
Zn172 O176 2.086 . S
Zn172 O181 1.977 . S
O173 Zn172 2.032 . S
O173 C177 1.278 . S
C174 O175 1.203 . S
C174 O181 1.267 . S
O175 C174 1.203 . S
O176 C169 1.185 . S
O176 Zn172 2.086 . S
C177 O173 1.278 . S
C177 O178 1.211 . S
O178 C177 1.211 . S
C179 O171 1.284 . S
C179 O180 1.273 . S
O180 C179 1.273 . S
O181 Zn172 1.977 . S
O181 C174 1.267 . S
C182 O183 1.160 . S
C182 O189 1.185 . S
O183 C182 1.160 . S
O184 Zn185 1.899 . S
O184 C192 1.284 . S
Zn185 O184 1.899 . S
Zn185 O186 2.032 . S
Zn185 O189 2.086 . S
Zn185 O194 1.977 1_565 S
O186 Zn185 2.032 . S
O186 C190 1.278 . S
C187 O188 1.203 1_545 S
C187 O194 1.267 . S
O188 C187 1.203 1_565 S
O189 C182 1.185 . S
O189 Zn185 2.086 . S
C190 O186 1.278 . S
C190 O191 1.211 . S
O191 C190 1.211 . S
C192 O184 1.284 . S
C192 O193 1.273 . S
O193 C192 1.273 . S
O194 Zn185 1.977 1_545 S
O194 C187 1.267 . S
C195 O196 1.160 . S
C195 O202 1.185 . S
O196 C195 1.160 . S
O197 Zn198 1.899 . S
O197 C205 1.284 . S
Zn198 O197 1.899 . S
Zn198 O199 2.032 . S
Zn198 O202 2.086 . S
Zn198 O207 1.977 . S
O199 Zn198 2.032 . S
O199 C203 1.278 . S
C200 O201 1.203 . S
C200 O207 1.267 . S
O201 C200 1.203 . S
O202 C195 1.185 . S
O202 Zn198 2.086 . S
C203 O199 1.278 . S
C203 O204 1.211 . S
O204 C203 1.211 . S
C205 O197 1.284 . S
C205 O206 1.273 . S
O206 C205 1.273 . S
O207 Zn198 1.977 . S
O207 C200 1.267 . S
C208 O209 1.160 . S
C208 O215 1.185 . S
O209 C208 1.160 . S
O210 Zn211 1.899 . S
O210 C218 1.284 . S
Zn211 O210 1.899 . S
Zn211 O212 2.032 . S
Zn211 O215 2.086 . S
Zn211 O220 1.977 . S
O212 Zn211 2.032 . S
O212 C216 1.278 . S
C213 O214 1.203 . S
C213 O220 1.267 . S
O214 C213 1.203 . S
O215 C208 1.185 . S
O215 Zn211 2.086 . S
C216 O212 1.278 . S
C216 O217 1.211 . S
O217 C216 1.211 . S
C218 O210 1.284 . S
C218 O219 1.273 . S
O219 C218 1.273 . S
O220 Zn211 1.977 . S
O220 C213 1.267 . S
C221 O222 1.160 . S
C221 O228 1.185 . S
O222 C221 1.160 . S
O223 Zn224 1.899 . S
O223 C231 1.284 . S
Zn224 O223 1.899 . S
Zn224 O225 2.032 . S
Zn224 O228 2.086 . S
Zn224 O233 1.977 . S
O225 Zn224 2.032 . S
O225 C229 1.278 . S
C226 O227 1.203 . S
C226 O233 1.267 . S
O227 C226 1.203 . S
O228 C221 1.185 . S
O228 Zn224 2.086 . S
C229 O225 1.278 . S
C229 O230 1.211 . S
O230 C229 1.211 . S
C231 O223 1.284 . S
C231 O232 1.273 . S
O232 C231 1.273 . S
O233 Zn224 1.977 . S
O233 C226 1.267 . S
C234 O235 1.160 . S
C234 O241 1.185 . S
O235 C234 1.160 . S
O236 Zn237 1.899 . S
O236 C244 1.284 . S
Zn237 O236 1.899 . S
Zn237 O238 2.032 . S
Zn237 O241 2.086 . S
Zn237 O246 1.977 . S
O238 Zn237 2.032 . S
O238 C242 1.278 . S
C239 O240 1.203 . S
C239 O246 1.267 . S
O240 C239 1.203 . S
O241 C234 1.185 . S
O241 Zn237 2.086 . S
C242 O238 1.278 . S
C242 O243 1.211 . S
O243 C242 1.211 . S
C244 O236 1.284 . S
C244 O245 1.273 . S
O245 C244 1.273 . S
O246 Zn237 1.977 . S
O246 C239 1.267 . S
C247 O248 1.160 . S
C247 O254 1.185 . S
O248 C247 1.160 . S
O249 Zn250 1.899 . S
O249 C257 1.284 . S
Zn250 O249 1.899 . S
Zn250 O251 2.032 . S
Zn250 O254 2.086 . S
Zn250 O259 1.977 . S
O251 Zn250 2.032 . S
O251 C255 1.278 . S
C252 O253 1.203 . S
C252 O259 1.267 . S
O253 C252 1.203 . S
O254 C247 1.185 . S
O254 Zn250 2.086 . S
C255 O251 1.278 . S
C255 O256 1.211 . S
O256 C255 1.211 . S
C257 O249 1.284 . S
C257 O258 1.273 . S
O258 C257 1.273 . S
O259 Zn250 1.977 . S
O259 C252 1.267 . S
C260 O261 1.160 . S
C260 O267 1.185 . S
O261 C260 1.160 . S
O262 Zn263 1.899 . S
O262 C270 1.284 . S
Zn263 O262 1.899 . S
Zn263 O264 2.032 . S
Zn263 O267 2.086 . S
Zn263 O272 1.977 . S
O264 Zn263 2.032 . S
O264 C268 1.278 . S
C265 O266 1.203 . S
C265 O272 1.267 . S
O266 C265 1.203 . S
O267 C260 1.185 . S
O267 Zn263 2.086 . S
C268 O264 1.278 . S
C268 O269 1.211 . S
O269 C268 1.211 . S
C270 O262 1.284 . S
C270 O271 1.273 . S
O271 C270 1.273 . S
O272 Zn263 1.977 . S
O272 C265 1.267 . S
C273 O274 1.160 . S
C273 O280 1.185 . S
O274 C273 1.160 . S
O275 Zn276 1.899 . S
O275 C283 1.284 . S
Zn276 O275 1.899 . S
Zn276 O277 2.032 . S
Zn276 O280 2.086 . S
Zn276 O285 1.977 1_565 S
O277 Zn276 2.032 . S
O277 C281 1.278 . S
C278 O279 1.203 1_545 S
C278 O285 1.267 . S
O279 C278 1.203 1_565 S
O280 C273 1.185 . S
O280 Zn276 2.086 . S
C281 O277 1.278 . S
C281 O282 1.211 . S
O282 C281 1.211 . S
C283 O275 1.284 . S
C283 O284 1.273 . S
O284 C283 1.273 . S
O285 Zn276 1.977 1_545 S
O285 C278 1.267 . S
C286 O287 1.160 . S
C286 O293 1.185 . S
O287 C286 1.160 . S
O288 Zn289 1.899 . S
O288 C296 1.284 . S
Zn289 O288 1.899 . S
Zn289 O290 2.032 . S
Zn289 O293 2.086 . S
Zn289 O298 1.977 1_455 S
O290 Zn289 2.032 . S
O290 C294 1.278 . S
C291 O292 1.203 1_655 S
C291 O298 1.267 . S
O292 C291 1.203 1_455 S
O293 C286 1.185 . S
O293 Zn289 2.086 . S
C294 O290 1.278 . S
C294 O295 1.211 . S
O295 C294 1.211 . S
C296 O288 1.284 . S
C296 O297 1.273 . S
O297 C296 1.273 . S
O298 Zn289 1.977 1_655 S
O298 C291 1.267 . S
C299 O300 1.160 . S
C299 O306 1.185 . S
O300 C299 1.160 . S
O301 Zn302 1.899 . S
O301 C309 1.284 . S
Zn302 O301 1.899 . S
Zn302 O303 2.032 . S
Zn302 O306 2.086 . S
Zn302 O311 1.977 . S
O303 Zn302 2.032 . S
O303 C307 1.278 . S
C304 O305 1.203 . S
C304 O311 1.267 . S
O305 C304 1.203 . S
O306 C299 1.185 . S
O306 Zn302 2.086 . S
C307 O303 1.278 . S
C307 O308 1.211 . S
O308 C307 1.211 . S
C309 O301 1.284 . S
C309 O310 1.273 . S
O310 C309 1.273 . S
O311 Zn302 1.977 . S
O311 C304 1.267 . S
C312 O313 1.160 . S
C312 O319 1.185 . S
O313 C312 1.160 . S
O314 Zn315 1.899 . S
O314 C322 1.284 . S
Zn315 O314 1.899 . S
Zn315 O316 2.032 . S
Zn315 O319 2.086 . S
Zn315 O324 1.977 . S
O316 Zn315 2.032 . S
O316 C320 1.278 . S
C317 O318 1.203 . S
C317 O324 1.267 . S
O318 C317 1.203 . S
O319 C312 1.185 . S
O319 Zn315 2.086 . S
C320 O316 1.278 . S
C320 O321 1.211 . S
O321 C320 1.211 . S
C322 O314 1.284 . S
C322 O323 1.273 . S
O323 C322 1.273 . S
O324 Zn315 1.977 . S
O324 C317 1.267 . S
C325 O326 1.160 . S
C325 O332 1.185 . S
O326 C325 1.160 . S
O327 Zn328 1.899 . S
O327 C335 1.284 . S
Zn328 O327 1.899 . S
Zn328 O329 2.032 . S
Zn328 O332 2.086 . S
Zn328 O337 1.977 . S
O329 Zn328 2.032 . S
O329 C333 1.278 . S
C330 O331 1.203 . S
C330 O337 1.267 . S
O331 C330 1.203 . S
O332 C325 1.185 . S
O332 Zn328 2.086 . S
C333 O329 1.278 . S
C333 O334 1.211 . S
O334 C333 1.211 . S
C335 O327 1.284 . S
C335 O336 1.273 . S
O336 C335 1.273 . S
O337 Zn328 1.977 . S
O337 C330 1.267 . S
C338 O339 1.160 . S
C338 O345 1.185 . S
O339 C338 1.160 . S
O340 Zn341 1.899 . S
O340 C348 1.284 . S
Zn341 O340 1.899 . S
Zn341 O342 2.032 . S
Zn341 O345 2.086 . S
Zn341 O350 1.977 . S
O342 Zn341 2.032 . S
O342 C346 1.278 . S
C343 O344 1.203 . S
C343 O350 1.267 . S
O344 C343 1.203 . S
O345 C338 1.185 . S
O345 Zn341 2.086 . S
C346 O342 1.278 . S
C346 O347 1.211 . S
O347 C346 1.211 . S
C348 O340 1.284 . S
C348 O349 1.273 . S
O349 C348 1.273 . S
O350 Zn341 1.977 . S
O350 C343 1.267 . S
C351 O352 1.160 . S
C351 O358 1.185 . S
O352 C351 1.160 . S
O353 Zn354 1.899 . S
O353 C361 1.284 . S
Zn354 O353 1.899 . S
Zn354 O355 2.032 . S
Zn354 O358 2.086 . S
Zn354 O363 1.977 1_545 S
O355 Zn354 2.032 . S
O355 C359 1.278 . S
C356 O357 1.203 1_565 S
C356 O363 1.267 . S
O357 C356 1.203 1_545 S
O358 C351 1.185 . S
O358 Zn354 2.086 . S
C359 O355 1.278 . S
C359 O360 1.211 . S
O360 C359 1.211 . S
C361 O353 1.284 . S
C361 O362 1.273 . S
O362 C361 1.273 . S
O363 Zn354 1.977 1_565 S
O363 C356 1.267 . S
C364 O365 1.160 . S
C364 O371 1.185 . S
O365 C364 1.160 . S
O366 Zn367 1.899 . S
O366 C374 1.284 . S
Zn367 O366 1.899 . S
Zn367 O368 2.032 . S
Zn367 O371 2.086 . S
Zn367 O376 1.977 1_655 S
O368 Zn367 2.032 . S
O368 C372 1.278 . S
C369 O370 1.203 1_455 S
C369 O376 1.267 . S
O370 C369 1.203 1_655 S
O371 C364 1.185 . S
O371 Zn367 2.086 . S
C372 O368 1.278 . S
C372 O373 1.211 . S
O373 C372 1.211 . S
C374 O366 1.284 . S
C374 O375 1.273 . S
O375 C374 1.273 . S
O376 Zn367 1.977 1_455 S
O376 C369 1.267 . S
C377 O378 1.160 . S
C377 O384 1.185 . S
O378 C377 1.160 . S
O379 Zn380 1.899 . S
O379 C387 1.284 . S
Zn380 O379 1.899 . S
Zn380 O381 2.032 . S
Zn380 O384 2.086 . S
Zn380 O389 1.977 . S
O381 Zn380 2.032 . S
O381 C385 1.278 . S
C382 O383 1.203 . S
C382 O389 1.267 . S
O383 C382 1.203 . S
O384 C377 1.185 . S
O384 Zn380 2.086 . S
C385 O381 1.278 . S
C385 O386 1.211 . S
O386 C385 1.211 . S
C387 O379 1.284 . S
C387 O388 1.273 . S
O388 C387 1.273 . S
O389 Zn380 1.977 . S
O389 C382 1.267 . S
C390 O391 1.160 . S
C390 O397 1.185 . S
O391 C390 1.160 . S
O392 Zn393 1.899 . S
O392 C400 1.284 . S
Zn393 O392 1.899 . S
Zn393 O394 2.032 . S
Zn393 O397 2.086 . S
Zn393 O402 1.977 1_655 S
O394 Zn393 2.032 . S
O394 C398 1.278 . S
C395 O396 1.203 1_455 S
C395 O402 1.267 . S
O396 C395 1.203 1_655 S
O397 C390 1.185 . S
O397 Zn393 2.086 . S
C398 O394 1.278 . S
C398 O399 1.211 . S
O399 C398 1.211 . S
C400 O392 1.284 . S
C400 O401 1.273 . S
O401 C400 1.273 . S
O402 Zn393 1.977 1_455 S
O402 C395 1.267 . S
C403 O404 1.160 . S
C403 O410 1.185 . S
O404 C403 1.160 . S
O405 Zn406 1.899 . S
O405 C413 1.284 . S
Zn406 O405 1.899 . S
Zn406 O407 2.032 . S
Zn406 O410 2.086 . S
Zn406 O415 1.977 . S
O407 Zn406 2.032 . S
O407 C411 1.278 . S
C408 O409 1.203 . S
C408 O415 1.267 . S
O409 C408 1.203 . S
O410 C403 1.185 . S
O410 Zn406 2.086 . S
C411 O407 1.278 . S
C411 O412 1.211 . S
O412 C411 1.211 . S
C413 O405 1.284 . S
C413 O414 1.273 . S
O414 C413 1.273 . S
O415 Zn406 1.977 . S
O415 C408 1.267 . S
C416 O417 1.160 . S
C416 O423 1.185 . S
O417 C416 1.160 . S
O418 Zn419 1.899 . S
O418 C426 1.284 . S
Zn419 O418 1.899 . S
Zn419 O420 2.032 . S
Zn419 O423 2.086 . S
Zn419 O428 1.977 1_545 S
O420 Zn419 2.032 . S
O420 C424 1.278 . S
C421 O422 1.203 1_565 S
C421 O428 1.267 . S
O422 C421 1.203 1_545 S
O423 C416 1.185 . S
O423 Zn419 2.086 . S
C424 O420 1.278 . S
C424 O425 1.211 . S
O425 C424 1.211 . S
C426 O418 1.284 . S
C426 O427 1.273 . S
O427 C426 1.273 . S
O428 Zn419 1.977 1_565 S
O428 C421 1.267 . S
C429 O430 1.160 . S
C429 O436 1.185 . S
O430 C429 1.160 . S
O431 Zn432 1.899 . S
O431 C439 1.284 . S
Zn432 O431 1.899 . S
Zn432 O433 2.032 . S
Zn432 O436 2.086 . S
Zn432 O441 1.977 . S
O433 Zn432 2.032 . S
O433 C437 1.278 . S
C434 O435 1.203 . S
C434 O441 1.267 . S
O435 C434 1.203 . S
O436 C429 1.185 . S
O436 Zn432 2.086 . S
C437 O433 1.278 . S
C437 O438 1.211 . S
O438 C437 1.211 . S
C439 O431 1.284 . S
C439 O440 1.273 . S
O440 C439 1.273 . S
O441 Zn432 1.977 . S
O441 C434 1.267 . S
C442 O443 1.160 . S
C442 O449 1.185 . S
O443 C442 1.160 . S
O444 Zn445 1.899 . S
O444 C452 1.284 . S
Zn445 O444 1.899 . S
Zn445 O446 2.032 . S
Zn445 O449 2.086 . S
Zn445 O454 1.977 . S
O446 Zn445 2.032 . S
O446 C450 1.278 . S
C447 O448 1.203 . S
C447 O454 1.267 . S
O448 C447 1.203 . S
O449 C442 1.185 . S
O449 Zn445 2.086 . S
C450 O446 1.278 . S
C450 O451 1.211 . S
O451 C450 1.211 . S
C452 O444 1.284 . S
C452 O453 1.273 . S
O453 C452 1.273 . S
O454 Zn445 1.977 . S
O454 C447 1.267 . S
C455 O456 1.160 . S
C455 O462 1.185 . S
O456 C455 1.160 . S
O457 Zn458 1.899 . S
O457 C465 1.284 . S
Zn458 O457 1.899 . S
Zn458 O459 2.032 . S
Zn458 O462 2.086 . S
Zn458 O467 1.977 . S
O459 Zn458 2.032 . S
O459 C463 1.278 . S
C460 O461 1.203 . S
C460 O467 1.267 . S
O461 C460 1.203 . S
O462 C455 1.185 . S
O462 Zn458 2.086 . S
C463 O459 1.278 . S
C463 O464 1.211 . S
O464 C463 1.211 . S
C465 O457 1.284 . S
C465 O466 1.273 . S
O466 C465 1.273 . S
O467 Zn458 1.977 . S
O467 C460 1.267 . S
H468 C480 0.930 . S
H469 C482 0.930 . S
H470 C483 0.930 . S
H471 C487 0.959 . S
H472 C487 0.959 . S
H473 C487 0.961 1_565 S
H474 C488 0.965 . S
H475 C488 0.961 . S
H476 C488 0.959 . S
H477 C491 0.929 . S
H478 C492 0.931 . S
H479 C494 0.930 . S
C480 H468 0.930 . S
C480 C481 1.399 . S
C480 C485 1.399 . S
C481 C480 1.399 . S
C481 C482 1.376 . S
C482 H469 0.930 . S
C482 C481 1.376 . S
C482 C483 1.388 . S
C483 H470 0.930 . S
C483 C482 1.388 . S
C483 C484 1.390 . S
C484 C483 1.390 . S
C484 C485 1.394 . S
C484 C490 1.465 1_565 S
C485 C480 1.399 . S
C485 C484 1.394 . S
C485 C486 1.516 1_565 S
C486 C485 1.516 1_545 S
C486 C487 1.502 . S
C486 C488 1.561 . S
C486 C489 1.526 . S
C487 H471 0.959 . S
C487 H472 0.959 . S
C487 H473 0.961 1_545 S
C487 C486 1.502 . S
C488 H474 0.965 . S
C488 H475 0.961 . S
C488 H476 0.959 . S
C488 C486 1.561 . S
C489 C486 1.526 . S
C489 C490 1.396 . S
C489 C494 1.390 . S
C490 C484 1.465 1_545 S
C490 C489 1.396 . S
C490 C491 1.399 . S
C491 H477 0.929 . S
C491 C490 1.399 . S
C491 C492 1.385 . S
C492 H478 0.931 . S
C492 C491 1.385 . S
C492 C493 1.389 . S
C493 C492 1.389 . S
C493 C494 1.387 . S
C494 H479 0.930 . S
C494 C489 1.390 . S
C494 C493 1.387 . S
H495 C507 0.930 . S
H496 C509 0.930 . S
H497 C510 0.930 . S
H498 C514 0.959 . S
H499 C514 0.959 1_655 S
H500 C514 0.961 . S
H501 C515 0.960 1_455 S
H502 C515 0.961 . S
H503 C515 0.959 . S
H504 C518 0.929 . S
H505 C519 0.931 . S
H506 C521 0.930 . S
C507 H495 0.930 . S
C507 C508 1.399 . S
C507 C512 1.399 . S
C508 C507 1.399 . S
C508 C509 1.376 . S
C509 H496 0.930 . S
C509 C508 1.376 . S
C509 C510 1.388 . S
C510 H497 0.930 . S
C510 C509 1.388 . S
C510 C511 1.390 . S
C511 C510 1.390 . S
C511 C512 1.394 . S
C511 C517 1.465 1_455 S
C512 C507 1.399 . S
C512 C511 1.394 . S
C512 C513 1.533 . S
C513 C512 1.533 . S
C513 C514 1.524 . S
C513 C515 1.571 1_455 S
C513 C516 1.475 1_455 S
C514 H498 0.959 . S
C514 H499 0.959 1_455 S
C514 H500 0.961 . S
C514 C513 1.524 . S
C515 H501 0.960 1_655 S
C515 H502 0.961 . S
C515 H503 0.959 . S
C515 C513 1.571 1_655 S
C516 C513 1.475 1_655 S
C516 C517 1.396 . S
C516 C521 1.390 . S
C517 C511 1.465 1_655 S
C517 C516 1.396 . S
C517 C518 1.399 . S
C518 H504 0.929 . S
C518 C517 1.399 . S
C518 C519 1.385 . S
C519 H505 0.931 . S
C519 C518 1.385 . S
C519 C520 1.389 . S
C520 C519 1.389 . S
C520 C521 1.387 . S
C521 H506 0.930 . S
C521 C516 1.390 . S
C521 C520 1.387 . S
H522 C534 0.930 . S
H523 C536 0.930 . S
H524 C537 0.930 . S
H525 C541 0.959 . S
H526 C541 0.959 . S
H527 C541 0.961 . S
H528 C542 0.960 . S
H529 C542 0.961 . S
H530 C542 0.959 . S
H531 C545 0.929 . S
H532 C546 0.931 . S
H533 C548 0.930 . S
C534 H522 0.930 . S
C534 C535 1.399 . S
C534 C539 1.399 . S
C535 C534 1.399 . S
C535 C536 1.376 . S
C536 H523 0.930 . S
C536 C535 1.376 . S
C536 C537 1.388 . S
C537 H524 0.930 . S
C537 C536 1.388 . S
C537 C538 1.390 . S
C538 C537 1.390 . S
C538 C539 1.394 . S
C538 C544 1.465 . S
C539 C534 1.399 . S
C539 C538 1.394 . S
C539 C540 1.516 . S
C540 C539 1.516 . S
C540 C541 1.502 . S
C540 C542 1.561 . S
C540 C543 1.526 . S
C541 H525 0.959 . S
C541 H526 0.959 . S
C541 H527 0.961 . S
C541 C540 1.502 . S
C542 H528 0.960 . S
C542 H529 0.961 . S
C542 H530 0.959 . S
C542 C540 1.561 . S
C543 C540 1.526 . S
C543 C544 1.396 . S
C543 C548 1.390 . S
C544 C538 1.465 . S
C544 C543 1.396 . S
C544 C545 1.399 . S
C545 H531 0.929 . S
C545 C544 1.399 . S
C545 C546 1.385 . S
C546 H532 0.931 . S
C546 C545 1.385 . S
C546 C547 1.389 . S
C547 C546 1.389 . S
C547 C548 1.387 . S
C548 H533 0.930 . S
C548 C543 1.390 . S
C548 C547 1.387 . S
H549 C561 0.930 . S
H550 C563 0.930 . S
H551 C564 0.930 . S
H552 C568 0.959 . S
H553 C568 0.959 . S
H554 C568 0.925 1_565 S
H555 C569 0.964 1_565 S
H556 C569 0.961 . S
H557 C569 0.959 . S
H558 C572 0.929 . S
H559 C573 0.931 . S
H560 C575 0.930 . S
C561 H549 0.930 . S
C561 C562 1.399 . S
C561 C566 1.399 . S
C562 C561 1.399 . S
C562 C563 1.376 . S
C563 H550 0.930 . S
C563 C562 1.376 . S
C563 C564 1.388 . S
C564 H551 0.930 . S
C564 C563 1.388 . S
C564 C565 1.390 . S
C565 C564 1.390 . S
C565 C566 1.394 . S
C565 C571 1.465 1_565 S
C566 C561 1.399 . S
C566 C565 1.394 . S
C566 C567 1.516 1_565 S
C567 C566 1.516 1_545 S
C567 C568 1.502 . S
C567 C569 1.561 . S
C567 C570 1.526 . S
C568 H552 0.959 . S
C568 H553 0.959 . S
C568 H554 0.925 1_545 S
C568 C567 1.502 . S
C569 H555 0.964 1_545 S
C569 H556 0.961 . S
C569 H557 0.959 . S
C569 C567 1.561 . S
C570 C567 1.526 . S
C570 C571 1.396 . S
C570 C575 1.390 . S
C571 C565 1.465 1_545 S
C571 C570 1.396 . S
C571 C572 1.399 . S
C572 H558 0.929 . S
C572 C571 1.399 . S
C572 C573 1.385 . S
C573 H559 0.931 . S
C573 C572 1.385 . S
C573 C574 1.389 . S
C574 C573 1.389 . S
C574 C575 1.387 . S
C575 H560 0.930 . S
C575 C570 1.390 . S
C575 C574 1.387 . S
H576 C588 0.930 . S
H577 C590 0.930 . S
H578 C591 0.930 . S
H579 C595 0.959 . S
H580 C595 0.959 . S
H581 C595 0.961 1_455 S
H582 C596 0.968 . S
H583 C596 0.961 . S
H584 C596 0.959 . S
H585 C599 0.929 . S
H586 C600 0.931 . S
H587 C602 0.930 . S
C588 H576 0.930 . S
C588 C589 1.399 . S
C588 C593 1.399 . S
C589 C588 1.399 . S
C589 C590 1.376 . S
C590 H577 0.930 . S
C590 C589 1.376 . S
C590 C591 1.388 . S
C591 H578 0.930 . S
C591 C590 1.388 . S
C591 C592 1.390 . S
C592 C591 1.390 . S
C592 C593 1.394 . S
C592 C598 1.465 1_455 S
C593 C588 1.399 . S
C593 C592 1.394 . S
C593 C594 1.516 1_455 S
C594 C593 1.516 1_655 S
C594 C595 1.502 . S
C594 C596 1.561 . S
C594 C597 1.526 . S
C595 H579 0.959 . S
C595 H580 0.959 . S
C595 H581 0.961 1_655 S
C595 C594 1.502 . S
C596 H582 0.968 . S
C596 H583 0.961 . S
C596 H584 0.959 . S
C596 C594 1.561 . S
C597 C594 1.526 . S
C597 C598 1.396 . S
C597 C602 1.390 . S
C598 C592 1.465 1_655 S
C598 C597 1.396 . S
C598 C599 1.399 . S
C599 H585 0.929 . S
C599 C598 1.399 . S
C599 C600 1.385 . S
C600 H586 0.931 . S
C600 C599 1.385 . S
C600 C601 1.389 . S
C601 C600 1.389 . S
C601 C602 1.387 . S
C602 H587 0.930 . S
C602 C597 1.390 . S
C602 C601 1.387 . S
H603 C615 0.930 . S
H604 C617 0.930 . S
H605 C618 0.930 . S
H606 C622 0.959 . S
H607 C622 0.959 . S
H608 C622 0.961 . S
H609 C623 0.960 . S
H610 C623 0.961 . S
H611 C623 0.959 . S
H612 C626 0.929 . S
H613 C627 0.931 . S
H614 C629 0.930 . S
C615 H603 0.930 . S
C615 C616 1.399 . S
C615 C620 1.399 . S
C616 C615 1.399 . S
C616 C617 1.376 . S
C617 H604 0.930 . S
C617 C616 1.376 . S
C617 C618 1.388 . S
C618 H605 0.930 . S
C618 C617 1.388 . S
C618 C619 1.390 . S
C619 C618 1.390 . S
C619 C620 1.394 . S
C619 C625 1.465 . S
C620 C615 1.399 . S
C620 C619 1.394 . S
C620 C621 1.516 . S
C621 C620 1.516 . S
C621 C622 1.502 . S
C621 C623 1.561 . S
C621 C624 1.526 . S
C622 H606 0.959 . S
C622 H607 0.959 . S
C622 H608 0.961 . S
C622 C621 1.502 . S
C623 H609 0.960 . S
C623 H610 0.961 . S
C623 H611 0.959 . S
C623 C621 1.561 . S
C624 C621 1.526 . S
C624 C625 1.396 . S
C624 C629 1.390 . S
C625 C619 1.465 . S
C625 C624 1.396 . S
C625 C626 1.399 . S
C626 H612 0.929 . S
C626 C625 1.399 . S
C626 C627 1.385 . S
C627 H613 0.931 . S
C627 C626 1.385 . S
C627 C628 1.389 . S
C628 C627 1.389 . S
C628 C629 1.387 . S
C629 H614 0.930 . S
C629 C624 1.390 . S
C629 C628 1.387 . S
H630 C642 0.930 . S
H631 C644 0.930 1_455 S
H632 C645 0.930 . S
H633 C649 0.959 . S
H634 C649 0.959 . S
H635 C649 0.961 . S
H636 C650 0.960 . S
H637 C650 0.961 . S
H638 C650 0.959 . S
H639 C653 0.929 . S
H640 C654 0.931 . S
H641 C656 0.930 . S
C642 H630 0.930 . S
C642 C643 1.399 . S
C642 C647 1.399 . S
C643 C642 1.399 . S
C643 C644 1.376 . S
C644 H631 0.930 1_655 S
C644 C643 1.376 . S
C644 C645 1.388 . S
C645 H632 0.930 . S
C645 C644 1.388 . S
C645 C646 1.390 . S
C646 C645 1.390 . S
C646 C647 1.394 . S
C646 C652 1.465 . S
C647 C642 1.399 . S
C647 C646 1.394 . S
C647 C648 1.516 . S
C648 C647 1.516 . S
C648 C649 1.502 . S
C648 C650 1.561 . S
C648 C651 1.526 . S
C649 H633 0.959 . S
C649 H634 0.959 . S
C649 H635 0.961 . S
C649 C648 1.502 . S
C650 H636 0.960 . S
C650 H637 0.961 . S
C650 H638 0.959 . S
C650 C648 1.561 . S
C651 C648 1.526 . S
C651 C652 1.396 . S
C651 C656 1.390 . S
C652 C646 1.465 . S
C652 C651 1.396 . S
C652 C653 1.399 . S
C653 H639 0.929 . S
C653 C652 1.399 . S
C653 C654 1.385 . S
C654 H640 0.931 . S
C654 C653 1.385 . S
C654 C655 1.389 . S
C655 C654 1.389 . S
C655 C656 1.387 . S
C656 H641 0.930 . S
C656 C651 1.390 . S
C656 C655 1.387 . S
H657 C669 0.930 . S
H658 C671 0.930 . S
H659 C672 0.930 . S
H660 C676 0.959 . S
H661 C676 0.959 . S
H662 C676 0.961 . S
H663 C677 0.960 . S
H664 C677 0.961 . S
H665 C677 0.959 . S
H666 C680 0.929 . S
H667 C681 0.931 . S
H668 C683 0.930 . S
C669 H657 0.930 . S
C669 C670 1.399 . S
C669 C674 1.399 . S
C670 C669 1.399 . S
C670 C671 1.376 . S
C671 H658 0.930 . S
C671 C670 1.376 . S
C671 C672 1.388 . S
C672 H659 0.930 . S
C672 C671 1.388 . S
C672 C673 1.390 . S
C673 C672 1.390 . S
C673 C674 1.394 . S
C673 C679 1.465 . S
C674 C669 1.399 . S
C674 C673 1.394 . S
C674 C675 1.516 . S
C675 C674 1.516 . S
C675 C676 1.502 . S
C675 C677 1.561 . S
C675 C678 1.526 . S
C676 H660 0.959 . S
C676 H661 0.959 . S
C676 H662 0.961 . S
C676 C675 1.502 . S
C677 H663 0.960 . S
C677 H664 0.961 . S
C677 H665 0.959 . S
C677 C675 1.561 . S
C678 C675 1.526 . S
C678 C679 1.396 . S
C678 C683 1.390 . S
C679 C673 1.465 . S
C679 C678 1.396 . S
C679 C680 1.399 . S
C680 H666 0.929 . S
C680 C679 1.399 . S
C680 C681 1.385 . S
C681 H667 0.931 . S
C681 C680 1.385 . S
C681 C682 1.389 . S
C682 C681 1.389 . S
C682 C683 1.387 . S
C683 H668 0.930 . S
C683 C678 1.390 . S
C683 C682 1.387 . S
H684 C696 0.930 . S
H685 C698 0.930 . S
H686 C699 0.930 . S
H687 C703 0.959 . S
H688 C703 0.959 . S
H689 C703 0.961 . S
H690 C704 0.960 . S
H691 C704 0.961 1_565 S
H692 C704 0.961 . S
H693 C707 0.929 . S
H694 C708 0.931 . S
H695 C710 0.930 . S
C696 H684 0.930 . S
C696 C697 1.399 . S
C696 C701 1.399 . S
C697 C696 1.399 . S
C697 C698 1.376 . S
C698 H685 0.930 . S
C698 C697 1.376 . S
C698 C699 1.388 . S
C699 H686 0.930 . S
C699 C698 1.388 . S
C699 C700 1.390 . S
C700 C699 1.390 . S
C700 C701 1.394 . S
C700 C706 1.465 . S
C701 C696 1.399 . S
C701 C700 1.394 . S
C701 C702 1.516 . S
C702 C701 1.516 . S
C702 C703 1.502 . S
C702 C704 1.561 . S
C702 C705 1.526 . S
C703 H687 0.959 . S
C703 H688 0.959 . S
C703 H689 0.961 . S
C703 C702 1.502 . S
C704 H690 0.960 . S
C704 H691 0.961 1_545 S
C704 H692 0.961 . S
C704 C702 1.561 . S
C705 C702 1.526 . S
C705 C706 1.396 . S
C705 C710 1.390 . S
C706 C700 1.465 . S
C706 C705 1.396 . S
C706 C707 1.399 . S
C707 H693 0.929 . S
C707 C706 1.399 . S
C707 C708 1.385 . S
C708 H694 0.931 . S
C708 C707 1.385 . S
C708 C709 1.389 . S
C709 C708 1.389 . S
C709 C710 1.387 . S
C710 H695 0.930 . S
C710 C705 1.390 . S
C710 C709 1.387 . S
H711 C723 0.930 . S
H712 C725 0.930 . S
H713 C726 0.930 . S
H714 C730 0.959 . S
H715 C730 0.959 . S
H716 C730 0.961 1_556 S
H717 C731 0.960 1_556 S
H718 C731 0.961 . S
H719 C731 0.959 . S
H720 C734 0.929 . S
H721 C735 0.931 . S
H722 C737 0.930 . S
C723 H711 0.930 . S
C723 C724 1.399 . S
C723 C728 1.399 . S
C724 C723 1.399 . S
C724 C725 1.376 . S
C725 H712 0.930 . S
C725 C724 1.376 . S
C725 C726 1.388 . S
C726 H713 0.930 . S
C726 C725 1.388 . S
C726 C727 1.390 . S
C727 C726 1.390 . S
C727 C728 1.394 . S
C727 C733 1.465 . S
C728 C723 1.399 . S
C728 C727 1.394 . S
C728 C729 1.516 . S
C729 C728 1.516 . S
C729 C730 1.502 . S
C729 C731 1.561 . S
C729 C732 1.526 . S
C730 H714 0.959 . S
C730 H715 0.959 . S
C730 H716 0.961 1_554 S
C730 C729 1.502 . S
C731 H717 0.960 1_554 S
C731 H718 0.961 . S
C731 H719 0.959 . S
C731 C729 1.561 . S
C732 C729 1.526 . S
C732 C733 1.396 . S
C732 C737 1.390 . S
C733 C727 1.465 . S
C733 C732 1.396 . S
C733 C734 1.399 . S
C734 H720 0.929 . S
C734 C733 1.399 . S
C734 C735 1.385 . S
C735 H721 0.931 . S
C735 C734 1.385 . S
C735 C736 1.389 . S
C736 C735 1.389 . S
C736 C737 1.387 . S
C737 H722 0.930 . S
C737 C732 1.390 . S
C737 C736 1.387 . S
H738 C750 0.930 1_565 S
H739 C752 0.930 . S
H740 C753 0.930 . S
H741 C757 0.959 . S
H742 C757 0.959 . S
H743 C757 0.963 . S
H744 C758 0.960 1_565 S
H745 C758 0.973 . S
H746 C758 0.959 . S
H747 C761 0.929 . S
H748 C762 0.931 . S
H749 C764 0.930 . S
C750 H738 0.930 1_545 S
C750 C751 1.399 . S
C750 C755 1.399 . S
C751 C750 1.399 . S
C751 C752 1.376 . S
C752 H739 0.930 . S
C752 C751 1.376 . S
C752 C753 1.388 . S
C753 H740 0.930 . S
C753 C752 1.388 . S
C753 C754 1.390 . S
C754 C753 1.390 . S
C754 C755 1.394 . S
C754 C760 1.465 . S
C755 C750 1.399 . S
C755 C754 1.394 . S
C755 C756 1.516 . S
C756 C755 1.516 . S
C756 C757 1.502 . S
C756 C758 1.561 . S
C756 C759 1.526 . S
C757 H741 0.959 . S
C757 H742 0.959 . S
C757 H743 0.963 . S
C757 C756 1.502 . S
C758 H744 0.960 1_545 S
C758 H745 0.973 . S
C758 H746 0.959 . S
C758 C756 1.561 . S
C759 C756 1.526 . S
C759 C760 1.396 . S
C759 C764 1.390 . S
C760 C754 1.465 . S
C760 C759 1.396 . S
C760 C761 1.399 . S
C761 H747 0.929 . S
C761 C760 1.399 . S
C761 C762 1.385 . S
C762 H748 0.931 . S
C762 C761 1.385 . S
C762 C763 1.389 . S
C763 C762 1.389 . S
C763 C764 1.387 . S
C764 H749 0.930 . S
C764 C759 1.390 . S
C764 C763 1.387 . S
H765 C777 0.930 . S
H766 C779 0.930 . S
H767 C780 0.930 . S
H768 C784 0.959 . S
H769 C784 0.959 1_556 S
H770 C784 0.961 . S
H771 C785 0.960 . S
H772 C785 0.961 1_556 S
H773 C785 0.959 . S
H774 C788 0.929 . S
H775 C789 0.931 . S
H776 C791 0.930 . S
C777 H765 0.930 . S
C777 C778 1.399 . S
C777 C782 1.399 . S
C778 C777 1.399 . S
C778 C779 1.376 . S
C779 H766 0.930 . S
C779 C778 1.376 . S
C779 C780 1.388 . S
C780 H767 0.930 . S
C780 C779 1.388 . S
C780 C781 1.390 . S
C781 C780 1.390 . S
C781 C782 1.394 . S
C781 C787 1.465 . S
C782 C777 1.399 . S
C782 C781 1.394 . S
C782 C783 1.516 . S
C783 C782 1.516 . S
C783 C784 1.502 . S
C783 C785 1.561 . S
C783 C786 1.526 . S
C784 H768 0.959 . S
C784 H769 0.959 1_554 S
C784 H770 0.961 . S
C784 C783 1.502 . S
C785 H771 0.960 . S
C785 H772 0.961 1_554 S
C785 H773 0.959 . S
C785 C783 1.561 . S
C786 C783 1.526 . S
C786 C787 1.396 . S
C786 C791 1.390 . S
C787 C781 1.465 . S
C787 C786 1.396 . S
C787 C788 1.399 . S
C788 H774 0.929 . S
C788 C787 1.399 . S
C788 C789 1.385 . S
C789 H775 0.931 . S
C789 C788 1.385 . S
C789 C790 1.389 . S
C790 C789 1.389 . S
C790 C791 1.387 . S
C791 H776 0.930 . S
C791 C786 1.390 . S
C791 C790 1.387 . S
H792 C804 0.930 . S
H793 C806 0.930 . S
H794 C807 0.930 . S
H795 C811 0.959 . S
H796 C811 0.959 . S
H797 C811 0.961 . S
H798 C812 0.960 . S
H799 C812 0.961 . S
H800 C812 0.959 . S
H801 C815 0.929 . S
H802 C816 0.931 . S
H803 C818 0.930 . S
C804 H792 0.930 . S
C804 C805 1.399 . S
C804 C809 1.399 . S
C805 C804 1.399 . S
C805 C806 1.376 . S
C806 H793 0.930 . S
C806 C805 1.376 . S
C806 C807 1.388 . S
C807 H794 0.930 . S
C807 C806 1.388 . S
C807 C808 1.390 . S
C808 C807 1.390 . S
C808 C809 1.394 . S
C808 C814 1.465 . S
C809 C804 1.399 . S
C809 C808 1.394 . S
C809 C810 1.516 . S
C810 C809 1.516 . S
C810 C811 1.502 . S
C810 C812 1.561 . S
C810 C813 1.526 . S
C811 H795 0.959 . S
C811 H796 0.959 . S
C811 H797 0.961 . S
C811 C810 1.502 . S
C812 H798 0.960 . S
C812 H799 0.961 . S
C812 H800 0.959 . S
C812 C810 1.561 . S
C813 C810 1.526 . S
C813 C814 1.396 . S
C813 C818 1.390 . S
C814 C808 1.465 . S
C814 C813 1.396 . S
C814 C815 1.399 . S
C815 H801 0.929 . S
C815 C814 1.399 . S
C815 C816 1.385 . S
C816 H802 0.931 . S
C816 C815 1.385 . S
C816 C817 1.389 . S
C817 C816 1.389 . S
C817 C818 1.387 . S
C818 H803 0.930 . S
C818 C813 1.390 . S
C818 C817 1.387 . S
H819 C831 0.930 . S
H820 C833 0.930 1_545 S
H821 C834 0.930 . S
H822 C838 0.959 . S
H823 C838 0.959 . S
H824 C838 0.961 . S
H825 C839 0.960 1_554 S
H826 C839 0.961 1_554 S
H827 C839 0.959 . S
H828 C842 0.929 . S
H829 C843 0.931 . S
H830 C845 0.930 . S
C831 H819 0.930 . S
C831 C832 1.399 . S
C831 C836 1.399 . S
C832 C831 1.399 . S
C832 C833 1.376 . S
C833 H820 0.930 1_565 S
C833 C832 1.376 . S
C833 C834 1.388 . S
C834 H821 0.930 . S
C834 C833 1.388 . S
C834 C835 1.390 . S
C835 C834 1.390 . S
C835 C836 1.394 . S
C835 C841 1.465 . S
C836 C831 1.399 . S
C836 C835 1.394 . S
C836 C837 1.516 . S
C837 C836 1.516 . S
C837 C838 1.502 . S
C837 C839 1.561 . S
C837 C840 1.526 . S
C838 H822 0.959 . S
C838 H823 0.959 . S
C838 H824 0.961 . S
C838 C837 1.502 . S
C839 H825 0.960 1_556 S
C839 H826 0.961 1_556 S
C839 H827 0.959 . S
C839 C837 1.561 . S
C840 C837 1.526 . S
C840 C841 1.396 . S
C840 C845 1.390 . S
C841 C835 1.465 . S
C841 C840 1.396 . S
C841 C842 1.399 . S
C842 H828 0.929 . S
C842 C841 1.399 . S
C842 C843 1.385 . S
C843 H829 0.931 . S
C843 C842 1.385 . S
C843 C844 1.389 . S
C844 C843 1.389 . S
C844 C845 1.387 . S
C845 H830 0.930 . S
C845 C840 1.390 . S
C845 C844 1.387 . S
H846 C858 0.930 . S
H847 C860 0.930 . S
H848 C861 0.930 . S
H849 C865 0.959 . S
H850 C865 0.959 . S
H851 C865 0.961 . S
H852 C866 0.960 . S
H853 C866 0.961 . S
H854 C866 0.959 . S
H855 C869 0.929 . S
H856 C870 0.931 . S
H857 C872 0.930 . S
C858 H846 0.930 . S
C858 C859 1.399 . S
C858 C863 1.399 . S
C859 C858 1.399 . S
C859 C860 1.376 . S
C860 H847 0.930 . S
C860 C859 1.376 . S
C860 C861 1.388 . S
C861 H848 0.930 . S
C861 C860 1.388 . S
C861 C862 1.390 . S
C862 C861 1.390 . S
C862 C863 1.394 . S
C862 C868 1.465 . S
C863 C858 1.399 . S
C863 C862 1.394 . S
C863 C864 1.516 . S
C864 C863 1.516 . S
C864 C865 1.502 . S
C864 C866 1.561 . S
C864 C867 1.526 . S
C865 H849 0.959 . S
C865 H850 0.959 . S
C865 H851 0.961 . S
C865 C864 1.502 . S
C866 H852 0.960 . S
C866 H853 0.961 . S
C866 H854 0.959 . S
C866 C864 1.561 . S
C867 C864 1.526 . S
C867 C868 1.396 . S
C867 C872 1.390 . S
C868 C862 1.465 . S
C868 C867 1.396 . S
C868 C869 1.399 . S
C869 H855 0.929 . S
C869 C868 1.399 . S
C869 C870 1.385 . S
C870 H856 0.931 . S
C870 C869 1.385 . S
C870 C871 1.389 . S
C871 C870 1.389 . S
C871 C872 1.387 . S
C872 H857 0.930 . S
C872 C867 1.390 . S
C872 C871 1.387 . S
H873 C885 0.930 . S
H874 C887 0.930 . S
H875 C888 0.930 . S
H876 C892 0.959 . S
H877 C892 0.959 . S
H878 C892 0.961 . S
H879 C893 0.960 . S
H880 C893 0.961 . S
H881 C893 0.959 . S
H882 C896 0.929 . S
H883 C897 0.931 . S
H884 C899 0.930 . S
C885 H873 0.930 . S
C885 C886 1.399 . S
C885 C890 1.399 . S
C886 C885 1.399 . S
C886 C887 1.376 . S
C887 H874 0.930 . S
C887 C886 1.376 . S
C887 C888 1.388 . S
C888 H875 0.930 . S
C888 C887 1.388 . S
C888 C889 1.390 . S
C889 C888 1.390 . S
C889 C890 1.394 . S
C889 C895 1.465 . S
C890 C885 1.399 . S
C890 C889 1.394 . S
C890 C891 1.516 . S
C891 C890 1.516 . S
C891 C892 1.502 . S
C891 C893 1.561 . S
C891 C894 1.526 . S
C892 H876 0.959 . S
C892 H877 0.959 . S
C892 H878 0.961 . S
C892 C891 1.502 . S
C893 H879 0.960 . S
C893 H880 0.961 . S
C893 H881 0.959 . S
C893 C891 1.561 . S
C894 C891 1.526 . S
C894 C895 1.396 . S
C894 C899 1.390 . S
C895 C889 1.465 . S
C895 C894 1.396 . S
C895 C896 1.399 . S
C896 H882 0.929 . S
C896 C895 1.399 . S
C896 C897 1.385 . S
C897 H883 0.931 . S
C897 C896 1.385 . S
C897 C898 1.389 . S
C898 C897 1.389 . S
C898 C899 1.387 . S
C899 H884 0.930 . S
C899 C894 1.390 . S
C899 C898 1.387 . S
H900 C912 0.930 . S
H901 C914 0.930 . S
H902 C915 0.930 . S
H903 C919 0.959 . S
H904 C919 0.959 . S
H905 C919 0.961 . S
H906 C920 0.960 . S
H907 C920 0.961 . S
H908 C920 0.959 . S
H909 C923 0.929 . S
H910 C924 0.931 . S
H911 C926 0.930 . S
C912 H900 0.930 . S
C912 C913 1.399 . S
C912 C917 1.399 . S
C913 C912 1.399 . S
C913 C914 1.376 . S
C914 H901 0.930 . S
C914 C913 1.376 . S
C914 C915 1.388 . S
C915 H902 0.930 . S
C915 C914 1.388 . S
C915 C916 1.390 . S
C916 C915 1.390 . S
C916 C917 1.394 . S
C916 C922 1.465 . S
C917 C912 1.399 . S
C917 C916 1.394 . S
C917 C918 1.516 . S
C918 C917 1.516 . S
C918 C919 1.502 . S
C918 C920 1.561 . S
C918 C921 1.526 . S
C919 H903 0.959 . S
C919 H904 0.959 . S
C919 H905 0.961 . S
C919 C918 1.502 . S
C920 H906 0.960 . S
C920 H907 0.961 . S
C920 H908 0.959 . S
C920 C918 1.561 . S
C921 C918 1.526 . S
C921 C922 1.396 . S
C921 C926 1.390 . S
C922 C916 1.465 . S
C922 C921 1.396 . S
C922 C923 1.399 . S
C923 H909 0.929 . S
C923 C922 1.399 . S
C923 C924 1.385 . S
C924 H910 0.931 . S
C924 C923 1.385 . S
C924 C925 1.389 . S
C925 C924 1.389 . S
C925 C926 1.387 . S
C926 H911 0.930 . S
C926 C921 1.390 . S
C926 C925 1.387 . S
H927 C939 0.930 . S
H928 C941 0.930 . S
H929 C942 0.930 . S
H930 C946 0.959 . S
H931 C946 0.959 . S
H932 C946 0.961 . S
H933 C947 0.960 . S
H934 C947 0.961 . S
H935 C947 0.959 . S
H936 C950 0.929 . S
H937 C951 0.944 . S
H938 C953 0.930 . S
C939 H927 0.930 . S
C939 C940 1.399 . S
C939 C944 1.399 . S
C940 C939 1.399 . S
C940 C941 1.376 . S
C941 H928 0.930 . S
C941 C940 1.376 . S
C941 C942 1.388 . S
C942 H929 0.930 . S
C942 C941 1.388 . S
C942 C943 1.390 . S
C943 C942 1.390 . S
C943 C944 1.394 . S
C943 C949 1.465 . S
C944 C939 1.399 . S
C944 C943 1.394 . S
C944 C945 1.516 . S
C945 C944 1.516 . S
C945 C946 1.502 . S
C945 C947 1.561 . S
C945 C948 1.526 . S
C946 H930 0.959 . S
C946 H931 0.959 . S
C946 H932 0.961 . S
C946 C945 1.502 . S
C947 H933 0.960 . S
C947 H934 0.961 . S
C947 H935 0.959 . S
C947 C945 1.561 . S
C948 C945 1.526 . S
C948 C949 1.396 . S
C948 C953 1.390 . S
C949 C943 1.465 . S
C949 C948 1.396 . S
C949 C950 1.399 . S
C950 H936 0.929 . S
C950 C949 1.399 . S
C950 C951 1.385 . S
C951 H937 0.944 . S
C951 C950 1.385 . S
C951 C952 1.389 . S
C952 C951 1.389 . S
C952 C953 1.387 . S
C953 H938 0.930 . S
C953 C948 1.390 . S
C953 C952 1.387 . S
H954 C966 0.930 . S
H955 C968 0.930 . S
H956 C969 0.930 . S
H957 C973 0.959 . S
H958 C973 0.959 . S
H959 C973 0.961 . S
H960 C974 0.960 . S
H961 C974 0.961 . S
H962 C974 0.959 . S
H963 C977 0.929 . S
H964 C978 0.931 . S
H965 C980 0.930 . S
C966 H954 0.930 . S
C966 C967 1.399 . S
C966 C971 1.399 . S
C967 C966 1.399 . S
C967 C968 1.376 . S
C968 H955 0.930 . S
C968 C967 1.376 . S
C968 C969 1.388 . S
C969 H956 0.930 . S
C969 C968 1.388 . S
C969 C970 1.390 . S
C970 C969 1.390 . S
C970 C971 1.394 . S
C970 C976 1.465 . S
C971 C966 1.399 . S
C971 C970 1.394 . S
C971 C972 1.516 . S
C972 C971 1.516 . S
C972 C973 1.502 . S
C972 C974 1.561 . S
C972 C975 1.526 . S
C973 H957 0.959 . S
C973 H958 0.959 . S
C973 H959 0.961 . S
C973 C972 1.502 . S
C974 H960 0.960 . S
C974 H961 0.961 . S
C974 H962 0.959 . S
C974 C972 1.561 . S
C975 C972 1.526 . S
C975 C976 1.396 . S
C975 C980 1.390 . S
C976 C970 1.465 . S
C976 C975 1.396 . S
C976 C977 1.399 . S
C977 H963 0.929 . S
C977 C976 1.399 . S
C977 C978 1.385 . S
C978 H964 0.931 . S
C978 C977 1.385 . S
C978 C979 1.389 . S
C979 C978 1.389 . S
C979 C980 1.387 . S
C980 H965 0.930 . S
C980 C975 1.390 . S
C980 C979 1.387 . S
H981 C993 0.930 . S
H982 C995 0.930 . S
H983 C996 0.930 . S
H984 C1000 0.959 . S
H985 C1000 0.959 . S
H986 C1000 0.961 . S
H987 C1001 0.960 . S
H988 C1001 0.961 . S
H989 C1001 0.959 . S
H990 C1004 0.929 . S
H991 C1005 0.931 . S
H992 C1007 0.930 . S
C993 H981 0.930 . S
C993 C994 1.399 . S
C993 C998 1.399 . S
C994 C993 1.399 . S
C994 C995 1.376 . S
C995 H982 0.930 . S
C995 C994 1.376 . S
C995 C996 1.388 . S
C996 H983 0.930 . S
C996 C995 1.388 . S
C996 C997 1.390 . S
C997 C996 1.390 . S
C997 C998 1.394 . S
C997 C1003 1.465 . S
C998 C993 1.399 . S
C998 C997 1.394 . S
C998 C999 1.516 . S
C999 C998 1.516 . S
C999 C1000 1.502 . S
C999 C1001 1.561 . S
C999 C1002 1.526 . S
C1000 H984 0.959 . S
C1000 H985 0.959 . S
C1000 H986 0.961 . S
C1000 C999 1.502 . S
C1001 H987 0.960 . S
C1001 H988 0.961 . S
C1001 H989 0.959 . S
C1001 C999 1.561 . S
C1002 C999 1.526 . S
C1002 C1003 1.396 . S
C1002 C1007 1.390 . S
C1003 C997 1.465 . S
C1003 C1002 1.396 . S
C1003 C1004 1.399 . S
C1004 H990 0.929 . S
C1004 C1003 1.399 . S
C1004 C1005 1.385 . S
C1005 H991 0.931 . S
C1005 C1004 1.385 . S
C1005 C1006 1.389 . S
C1006 C1005 1.389 . S
C1006 C1007 1.387 . S
C1007 H992 0.930 . S
C1007 C1002 1.390 . S
C1007 C1006 1.387 . S
H1008 C1020 0.930 . S
H1009 C1022 0.930 . S
H1010 C1023 0.930 . S
H1011 C1027 0.959 . S
H1012 C1027 0.959 . S
H1013 C1027 0.961 . S
H1014 C1028 0.960 . S
H1015 C1028 0.961 . S
H1016 C1028 0.959 . S
H1017 C1031 0.929 . S
H1018 C1032 0.931 . S
H1019 C1034 0.930 . S
C1020 H1008 0.930 . S
C1020 C1021 1.399 . S
C1020 C1025 1.399 . S
C1021 C1020 1.399 . S
C1021 C1022 1.376 . S
C1022 H1009 0.930 . S
C1022 C1021 1.376 . S
C1022 C1023 1.388 . S
C1023 H1010 0.930 . S
C1023 C1022 1.388 . S
C1023 C1024 1.390 . S
C1024 C1023 1.390 . S
C1024 C1025 1.394 . S
C1024 C1030 1.465 . S
C1025 C1020 1.399 . S
C1025 C1024 1.394 . S
C1025 C1026 1.516 . S
C1026 C1025 1.516 . S
C1026 C1027 1.502 . S
C1026 C1028 1.561 . S
C1026 C1029 1.526 . S
C1027 H1011 0.959 . S
C1027 H1012 0.959 . S
C1027 H1013 0.961 . S
C1027 C1026 1.502 . S
C1028 H1014 0.960 . S
C1028 H1015 0.961 . S
C1028 H1016 0.959 . S
C1028 C1026 1.561 . S
C1029 C1026 1.526 . S
C1029 C1030 1.396 . S
C1029 C1034 1.390 . S
C1030 C1024 1.465 . S
C1030 C1029 1.396 . S
C1030 C1031 1.399 . S
C1031 H1017 0.929 . S
C1031 C1030 1.399 . S
C1031 C1032 1.385 . S
C1032 H1018 0.931 . S
C1032 C1031 1.385 . S
C1032 C1033 1.389 . S
C1033 C1032 1.389 . S
C1033 C1034 1.387 . S
C1034 H1019 0.930 . S
C1034 C1029 1.390 . S
C1034 C1033 1.387 . S
H1035 C1047 0.930 . S
H1036 C1049 0.930 . S
H1037 C1050 0.930 . S
H1038 C1054 0.959 . S
H1039 C1054 0.959 . S
H1040 C1054 0.961 . S
H1041 C1055 0.960 . S
H1042 C1055 0.961 . S
H1043 C1055 0.959 . S
H1044 C1058 0.929 . S
H1045 C1059 0.931 . S
H1046 C1061 0.930 1_556 S
C1047 H1035 0.930 . S
C1047 C1048 1.399 . S
C1047 C1052 1.399 . S
C1048 C1047 1.399 . S
C1048 C1049 1.376 . S
C1049 H1036 0.930 . S
C1049 C1048 1.376 . S
C1049 C1050 1.388 . S
C1050 H1037 0.930 . S
C1050 C1049 1.388 . S
C1050 C1051 1.390 . S
C1051 C1050 1.390 . S
C1051 C1052 1.394 . S
C1051 C1057 1.465 . S
C1052 C1047 1.399 . S
C1052 C1051 1.394 . S
C1052 C1053 1.516 . S
C1053 C1052 1.516 . S
C1053 C1054 1.502 . S
C1053 C1055 1.561 . S
C1053 C1056 1.526 . S
C1054 H1038 0.959 . S
C1054 H1039 0.959 . S
C1054 H1040 0.961 . S
C1054 C1053 1.502 . S
C1055 H1041 0.960 . S
C1055 H1042 0.961 . S
C1055 H1043 0.959 . S
C1055 C1053 1.561 . S
C1056 C1053 1.526 . S
C1056 C1057 1.396 . S
C1056 C1061 1.390 . S
C1057 C1051 1.465 . S
C1057 C1056 1.396 . S
C1057 C1058 1.399 . S
C1058 H1044 0.929 . S
C1058 C1057 1.399 . S
C1058 C1059 1.385 . S
C1059 H1045 0.931 . S
C1059 C1058 1.385 . S
C1059 C1060 1.389 . S
C1060 C1059 1.389 . S
C1060 C1061 1.387 . S
C1061 H1046 0.930 1_554 S
C1061 C1056 1.390 . S
C1061 C1060 1.387 . S
H1062 C1074 0.930 . S
H1063 C1076 0.930 . S
H1064 C1077 0.930 . S
H1065 C1081 0.959 . S
H1066 C1081 0.959 . S
H1067 C1081 0.961 . S
H1068 C1082 0.960 . S
H1069 C1082 0.961 . S
H1070 C1082 0.959 . S
H1071 C1085 0.929 . S
H1072 C1086 0.931 1_556 S
H1073 C1088 0.930 . S
C1074 H1062 0.930 . S
C1074 C1075 1.399 . S
C1074 C1079 1.399 . S
C1075 C1074 1.399 . S
C1075 C1076 1.376 . S
C1076 H1063 0.930 . S
C1076 C1075 1.376 . S
C1076 C1077 1.388 . S
C1077 H1064 0.930 . S
C1077 C1076 1.388 . S
C1077 C1078 1.390 . S
C1078 C1077 1.390 . S
C1078 C1079 1.394 . S
C1078 C1084 1.465 . S
C1079 C1074 1.399 . S
C1079 C1078 1.394 . S
C1079 C1080 1.516 . S
C1080 C1079 1.516 . S
C1080 C1081 1.502 . S
C1080 C1082 1.561 . S
C1080 C1083 1.526 . S
C1081 H1065 0.959 . S
C1081 H1066 0.959 . S
C1081 H1067 0.961 . S
C1081 C1080 1.502 . S
C1082 H1068 0.960 . S
C1082 H1069 0.961 . S
C1082 H1070 0.959 . S
C1082 C1080 1.561 . S
C1083 C1080 1.526 . S
C1083 C1084 1.396 . S
C1083 C1088 1.390 . S
C1084 C1078 1.465 . S
C1084 C1083 1.396 . S
C1084 C1085 1.399 . S
C1085 H1071 0.929 . S
C1085 C1084 1.399 . S
C1085 C1086 1.385 . S
C1086 H1072 0.931 1_554 S
C1086 C1085 1.385 . S
C1086 C1087 1.389 . S
C1087 C1086 1.389 . S
C1087 C1088 1.387 . S
C1088 H1073 0.930 . S
C1088 C1083 1.390 . S
C1088 C1087 1.387 . S
H1089 C1101 0.930 . S
H1090 C1103 0.930 . S
H1091 C1104 0.930 . S
H1092 C1108 0.959 . S
H1093 C1108 0.959 . S
H1094 C1108 0.961 . S
H1095 C1109 0.960 . S
H1096 C1109 0.961 . S
H1097 C1109 0.959 . S
H1098 C1112 0.929 . S
H1099 C1113 0.931 1_556 S
H1100 C1115 0.930 . S
C1101 H1089 0.930 . S
C1101 C1102 1.399 . S
C1101 C1106 1.399 . S
C1102 C1101 1.399 . S
C1102 C1103 1.376 . S
C1103 H1090 0.930 . S
C1103 C1102 1.376 . S
C1103 C1104 1.388 . S
C1104 H1091 0.930 . S
C1104 C1103 1.388 . S
C1104 C1105 1.390 . S
C1105 C1104 1.390 . S
C1105 C1106 1.394 . S
C1105 C1111 1.465 . S
C1106 C1101 1.399 . S
C1106 C1105 1.394 . S
C1106 C1107 1.516 . S
C1107 C1106 1.516 . S
C1107 C1108 1.502 . S
C1107 C1109 1.561 . S
C1107 C1110 1.526 . S
C1108 H1092 0.959 . S
C1108 H1093 0.959 . S
C1108 H1094 0.961 . S
C1108 C1107 1.502 . S
C1109 H1095 0.960 . S
C1109 H1096 0.961 . S
C1109 H1097 0.959 . S
C1109 C1107 1.561 . S
C1110 C1107 1.526 . S
C1110 C1111 1.396 . S
C1110 C1115 1.390 . S
C1111 C1105 1.465 . S
C1111 C1110 1.396 . S
C1111 C1112 1.399 . S
C1112 H1098 0.929 . S
C1112 C1111 1.399 . S
C1112 C1113 1.385 . S
C1113 H1099 0.931 1_554 S
C1113 C1112 1.385 . S
C1113 C1114 1.391 . S
C1114 C1113 1.391 . S
C1114 C1115 1.399 . S
C1115 H1100 0.930 . S
C1115 C1110 1.390 . S
C1115 C1114 1.399 . S
H1116 C1128 0.930 . S
H1117 C1130 0.930 . S
H1118 C1131 0.930 . S
H1119 C1135 0.959 . S
H1120 C1135 0.959 . S
H1121 C1135 0.961 . S
H1122 C1136 0.960 . S
H1123 C1136 0.961 . S
H1124 C1136 0.959 . S
H1125 C1139 0.929 . S
H1126 C1140 0.931 . S
H1127 C1142 0.930 . S
C1128 H1116 0.930 . S
C1128 C1129 1.399 . S
C1128 C1133 1.399 . S
C1129 C1128 1.399 . S
C1129 C1130 1.376 . S
C1130 H1117 0.930 . S
C1130 C1129 1.376 . S
C1130 C1131 1.388 . S
C1131 H1118 0.930 . S
C1131 C1130 1.388 . S
C1131 C1132 1.390 . S
C1132 C1131 1.390 . S
C1132 C1133 1.394 . S
C1132 C1138 1.465 . S
C1133 C1128 1.399 . S
C1133 C1132 1.394 . S
C1133 C1134 1.516 . S
C1134 C1133 1.516 . S
C1134 C1135 1.502 . S
C1134 C1136 1.561 . S
C1134 C1137 1.526 . S
C1135 H1119 0.959 . S
C1135 H1120 0.959 . S
C1135 H1121 0.961 . S
C1135 C1134 1.502 . S
C1136 H1122 0.960 . S
C1136 H1123 0.961 . S
C1136 H1124 0.959 . S
C1136 C1134 1.561 . S
C1137 C1134 1.526 . S
C1137 C1138 1.396 . S
C1137 C1142 1.390 . S
C1138 C1132 1.465 . S
C1138 C1137 1.396 . S
C1138 C1139 1.399 . S
C1139 H1125 0.929 . S
C1139 C1138 1.399 . S
C1139 C1140 1.385 . S
C1140 H1126 0.931 . S
C1140 C1139 1.385 . S
C1140 C1141 1.389 . S
C1141 C1140 1.389 . S
C1141 C1142 1.387 . S
C1142 H1127 0.930 . S
C1142 C1137 1.390 . S
C1142 C1141 1.387 . S
H1143 C1155 0.930 . S
H1144 C1157 0.930 . S
H1145 C1158 0.930 . S
H1146 C1162 0.959 . S
H1147 C1162 0.959 . S
H1148 C1162 0.961 . S
H1149 C1163 0.960 . S
H1150 C1163 0.961 . S
H1151 C1163 0.959 . S
H1152 C1166 0.929 . S
H1153 C1167 0.931 . S
H1154 C1169 0.930 . S
C1155 H1143 0.930 . S
C1155 C1156 1.399 . S
C1155 C1160 1.399 . S
C1156 C1155 1.399 . S
C1156 C1157 1.376 . S
C1157 H1144 0.930 . S
C1157 C1156 1.376 . S
C1157 C1158 1.388 . S
C1158 H1145 0.930 . S
C1158 C1157 1.388 . S
C1158 C1159 1.390 . S
C1159 C1158 1.390 . S
C1159 C1160 1.394 . S
C1159 C1165 1.465 . S
C1160 C1155 1.399 . S
C1160 C1159 1.394 . S
C1160 C1161 1.516 . S
C1161 C1160 1.516 . S
C1161 C1162 1.502 . S
C1161 C1163 1.561 . S
C1161 C1164 1.526 . S
C1162 H1146 0.959 . S
C1162 H1147 0.959 . S
C1162 H1148 0.961 . S
C1162 C1161 1.502 . S
C1163 H1149 0.960 . S
C1163 H1150 0.961 . S
C1163 H1151 0.959 . S
C1163 C1161 1.561 . S
C1164 C1161 1.526 . S
C1164 C1165 1.396 . S
C1164 C1169 1.390 . S
C1165 C1159 1.465 . S
C1165 C1164 1.396 . S
C1165 C1166 1.399 . S
C1166 H1152 0.929 . S
C1166 C1165 1.399 . S
C1166 C1167 1.385 . S
C1167 H1153 0.931 . S
C1167 C1166 1.385 . S
C1167 C1168 1.389 . S
C1168 C1167 1.389 . S
C1168 C1169 1.387 . S
C1169 H1154 0.930 . S
C1169 C1164 1.390 . S
C1169 C1168 1.387 . S
H1170 C1182 0.930 . S
H1171 C1184 0.930 . S
H1172 C1185 0.930 . S
H1173 C1189 0.959 . S
H1174 C1189 0.959 . S
H1175 C1189 0.961 . S
H1176 C1190 0.960 . S
H1177 C1190 0.961 . S
H1178 C1190 0.959 . S
H1179 C1193 0.929 . S
H1180 C1194 0.931 . S
H1181 C1196 0.930 . S
C1182 H1170 0.930 . S
C1182 C1183 1.399 . S
C1182 C1187 1.399 . S
C1183 C1182 1.399 . S
C1183 C1184 1.376 . S
C1184 H1171 0.930 . S
C1184 C1183 1.376 . S
C1184 C1185 1.388 . S
C1185 H1172 0.930 . S
C1185 C1184 1.388 . S
C1185 C1186 1.390 . S
C1186 C1185 1.390 . S
C1186 C1187 1.394 . S
C1186 C1192 1.465 . S
C1187 C1182 1.399 . S
C1187 C1186 1.394 . S
C1187 C1188 1.516 . S
C1188 C1187 1.516 . S
C1188 C1189 1.502 . S
C1188 C1190 1.561 . S
C1188 C1191 1.526 . S
C1189 H1173 0.959 . S
C1189 H1174 0.959 . S
C1189 H1175 0.961 . S
C1189 C1188 1.502 . S
C1190 H1176 0.960 . S
C1190 H1177 0.961 . S
C1190 H1178 0.959 . S
C1190 C1188 1.561 . S
C1191 C1188 1.526 . S
C1191 C1192 1.396 . S
C1191 C1196 1.390 . S
C1192 C1186 1.465 . S
C1192 C1191 1.396 . S
C1192 C1193 1.399 . S
C1193 H1179 0.929 . S
C1193 C1192 1.399 . S
C1193 C1194 1.385 . S
C1194 H1180 0.931 . S
C1194 C1193 1.385 . S
C1194 C1195 1.389 . S
C1195 C1194 1.389 . S
C1195 C1196 1.387 . S
C1196 H1181 0.930 . S
C1196 C1191 1.390 . S
C1196 C1195 1.387 . S
H1197 C1209 0.930 . S
H1198 C1211 0.935 . S
H1199 C1212 0.930 . S
H1200 C1216 0.959 . S
H1201 C1216 0.959 . S
H1202 C1216 0.961 . S
H1203 C1217 0.960 . S
H1204 C1217 0.961 . S
H1205 C1217 0.959 . S
H1206 C1220 0.929 . S
H1207 C1221 0.931 . S
H1208 C1223 0.930 . S
C1209 H1197 0.930 . S
C1209 C1210 1.399 . S
C1209 C1214 1.399 . S
C1210 C1209 1.399 . S
C1210 C1211 1.376 1_556 S
C1211 H1198 0.935 . S
C1211 C1210 1.376 1_554 S
C1211 C1212 1.384 1_554 S
C1212 H1199 0.930 . S
C1212 C1211 1.384 1_556 S
C1212 C1213 1.390 . S
C1213 C1212 1.390 . S
C1213 C1214 1.394 . S
C1213 C1219 1.465 . S
C1214 C1209 1.399 . S
C1214 C1213 1.394 . S
C1214 C1215 1.516 . S
C1215 C1214 1.516 . S
C1215 C1216 1.502 . S
C1215 C1217 1.561 . S
C1215 C1218 1.526 . S
C1216 H1200 0.959 . S
C1216 H1201 0.959 . S
C1216 H1202 0.961 . S
C1216 C1215 1.502 . S
C1217 H1203 0.960 . S
C1217 H1204 0.961 . S
C1217 H1205 0.959 . S
C1217 C1215 1.561 . S
C1218 C1215 1.526 . S
C1218 C1219 1.396 . S
C1218 C1223 1.390 . S
C1219 C1213 1.465 . S
C1219 C1218 1.396 . S
C1219 C1220 1.399 . S
C1220 H1206 0.929 . S
C1220 C1219 1.399 . S
C1220 C1221 1.385 . S
C1221 H1207 0.931 . S
C1221 C1220 1.385 . S
C1221 C1222 1.389 . S
C1222 C1221 1.389 . S
C1222 C1223 1.387 . S
C1223 H1208 0.930 . S
C1223 C1218 1.390 . S
C1223 C1222 1.387 . S
H1224 C1236 0.930 1_554 S
H1225 C1238 0.930 . S
H1226 C1239 0.930 . S
H1227 C1243 0.959 . S
H1228 C1243 0.959 . S
H1229 C1243 0.961 . S
H1230 C1244 0.960 . S
H1231 C1244 0.961 . S
H1232 C1244 0.959 . S
H1233 C1247 0.929 . S
H1234 C1248 0.931 . S
H1235 C1250 0.930 . S
C1236 H1224 0.930 1_556 S
C1236 C1237 1.399 . S
C1236 C1241 1.399 . S
C1237 C1236 1.399 . S
C1237 C1238 1.376 . S
C1238 H1225 0.930 . S
C1238 C1237 1.376 . S
C1238 C1239 1.388 . S
C1239 H1226 0.930 . S
C1239 C1238 1.388 . S
C1239 C1240 1.390 . S
C1240 C1239 1.390 . S
C1240 C1241 1.394 . S
C1240 C1246 1.465 . S
C1241 C1236 1.399 . S
C1241 C1240 1.394 . S
C1241 C1242 1.516 . S
C1242 C1241 1.516 . S
C1242 C1243 1.502 . S
C1242 C1244 1.561 . S
C1242 C1245 1.526 . S
C1243 H1227 0.959 . S
C1243 H1228 0.959 . S
C1243 H1229 0.961 . S
C1243 C1242 1.502 . S
C1244 H1230 0.960 . S
C1244 H1231 0.961 . S
C1244 H1232 0.959 . S
C1244 C1242 1.561 . S
C1245 C1242 1.526 . S
C1245 C1246 1.396 . S
C1245 C1250 1.390 . S
C1246 C1240 1.465 . S
C1246 C1245 1.396 . S
C1246 C1247 1.399 . S
C1247 H1233 0.929 . S
C1247 C1246 1.399 . S
C1247 C1248 1.385 . S
C1248 H1234 0.931 . S
C1248 C1247 1.385 . S
C1248 C1249 1.389 . S
C1249 C1248 1.389 . S
C1249 C1250 1.387 . S
C1250 H1235 0.930 . S
C1250 C1245 1.390 . S
C1250 C1249 1.387 . S
H1251 C1263 0.930 . S
H1252 C1265 0.930 . S
H1253 C1266 0.930 . S
H1254 C1270 0.959 . S
H1255 C1270 0.959 . S
H1256 C1270 0.961 . S
H1257 C1271 0.960 . S
H1258 C1271 0.961 . S
H1259 C1271 0.959 . S
H1260 C1274 0.929 . S
H1261 C1275 0.931 . S
H1262 C1277 0.930 1_554 S
C1263 H1251 0.930 . S
C1263 C1264 1.399 . S
C1263 C1268 1.399 . S
C1264 C1263 1.399 . S
C1264 C1265 1.376 . S
C1265 H1252 0.930 . S
C1265 C1264 1.376 . S
C1265 C1266 1.388 . S
C1266 H1253 0.930 . S
C1266 C1265 1.388 . S
C1266 C1267 1.390 . S
C1267 C1266 1.390 . S
C1267 C1268 1.394 . S
C1267 C1273 1.465 . S
C1268 C1263 1.399 . S
C1268 C1267 1.394 . S
C1268 C1269 1.516 . S
C1269 C1268 1.516 . S
C1269 C1270 1.502 . S
C1269 C1271 1.561 . S
C1269 C1272 1.526 . S
C1270 H1254 0.959 . S
C1270 H1255 0.959 . S
C1270 H1256 0.961 . S
C1270 C1269 1.502 . S
C1271 H1257 0.960 . S
C1271 H1258 0.961 . S
C1271 H1259 0.959 . S
C1271 C1269 1.561 . S
C1272 C1269 1.526 . S
C1272 C1273 1.396 . S
C1272 C1277 1.390 . S
C1273 C1267 1.465 . S
C1273 C1272 1.396 . S
C1273 C1274 1.399 . S
C1274 H1260 0.929 . S
C1274 C1273 1.399 . S
C1274 C1275 1.385 . S
C1275 H1261 0.931 . S
C1275 C1274 1.385 . S
C1275 C1276 1.389 . S
C1276 C1275 1.389 . S
C1276 C1277 1.387 . S
C1277 H1262 0.930 1_556 S
C1277 C1272 1.390 . S
C1277 C1276 1.387 . S
H1278 C1290 0.930 . S
H1279 C1292 0.930 . S
H1280 C1293 0.930 . S
H1281 C1297 0.959 . S
H1282 C1297 0.959 . S
H1283 C1297 0.961 . S
H1284 C1298 0.960 . S
H1285 C1298 0.961 . S
H1286 C1298 0.959 . S
H1287 C1301 0.929 . S
H1288 C1302 0.931 . S
H1289 C1304 0.930 . S
C1290 H1278 0.930 . S
C1290 C1291 1.399 . S
C1290 C1295 1.399 . S
C1291 C1290 1.399 . S
C1291 C1292 1.376 . S
C1292 H1279 0.930 . S
C1292 C1291 1.376 . S
C1292 C1293 1.388 1_455 S
C1293 H1280 0.930 . S
C1293 C1292 1.388 1_655 S
C1293 C1294 1.390 . S
C1294 C1293 1.390 . S
C1294 C1295 1.394 1_655 S
C1294 C1300 1.465 . S
C1295 C1290 1.399 . S
C1295 C1294 1.394 1_455 S
C1295 C1296 1.516 . S
C1296 C1295 1.516 . S
C1296 C1297 1.502 . S
C1296 C1298 1.561 . S
C1296 C1299 1.526 1_455 S
C1297 H1281 0.959 . S
C1297 H1282 0.959 . S
C1297 H1283 0.961 . S
C1297 C1296 1.502 . S
C1298 H1284 0.960 . S
C1298 H1285 0.961 . S
C1298 H1286 0.959 . S
C1298 C1296 1.561 . S
C1299 C1296 1.526 1_655 S
C1299 C1300 1.396 . S
C1299 C1304 1.390 . S
C1300 C1294 1.465 . S
C1300 C1299 1.396 . S
C1300 C1301 1.399 . S
C1301 H1287 0.929 . S
C1301 C1300 1.399 . S
C1301 C1302 1.385 . S
C1302 H1288 0.931 . S
C1302 C1301 1.385 . S
C1302 C1303 1.389 . S
C1303 C1302 1.389 . S
C1303 C1304 1.387 . S
C1304 H1289 0.930 . S
C1304 C1299 1.390 . S
C1304 C1303 1.387 . S
H1305 C1317 0.930 . S
H1306 C1319 0.930 . S
H1307 C1320 0.930 . S
H1308 C1324 0.959 . S
H1309 C1324 0.959 . S
H1310 C1324 0.961 . S
H1311 C1325 0.960 . S
H1312 C1325 0.961 . S
H1313 C1325 0.959 . S
H1314 C1328 0.929 . S
H1315 C1329 0.931 . S
H1316 C1331 0.930 . S
C1317 H1305 0.930 . S
C1317 C1318 1.399 . S
C1317 C1322 1.399 . S
C1318 C1317 1.399 . S
C1318 C1319 1.376 . S
C1319 H1306 0.930 . S
C1319 C1318 1.376 . S
C1319 C1320 1.388 . S
C1320 H1307 0.930 . S
C1320 C1319 1.388 . S
C1320 C1321 1.390 . S
C1321 C1320 1.390 . S
C1321 C1322 1.394 . S
C1321 C1327 1.465 . S
C1322 C1317 1.399 . S
C1322 C1321 1.394 . S
C1322 C1323 1.516 . S
C1323 C1322 1.516 . S
C1323 C1324 1.502 . S
C1323 C1325 1.561 . S
C1323 C1326 1.526 . S
C1324 H1308 0.959 . S
C1324 H1309 0.959 . S
C1324 H1310 0.961 . S
C1324 C1323 1.502 . S
C1325 H1311 0.960 . S
C1325 H1312 0.961 . S
C1325 H1313 0.959 . S
C1325 C1323 1.561 . S
C1326 C1323 1.526 . S
C1326 C1327 1.396 . S
C1326 C1331 1.390 . S
C1327 C1321 1.465 . S
C1327 C1326 1.396 . S
C1327 C1328 1.399 . S
C1328 H1314 0.929 . S
C1328 C1327 1.399 . S
C1328 C1329 1.385 . S
C1329 H1315 0.931 . S
C1329 C1328 1.385 . S
C1329 C1330 1.389 . S
C1330 C1329 1.389 . S
C1330 C1331 1.387 . S
C1331 H1316 0.930 . S
C1331 C1326 1.390 . S
C1331 C1330 1.387 . S
H1332 C1344 0.930 . S
H1333 C1346 0.930 . S
H1334 C1347 0.930 . S
H1335 C1351 0.959 . S
H1336 C1351 0.959 . S
H1337 C1351 0.961 . S
H1338 C1352 0.960 . S
H1339 C1352 0.961 . S
H1340 C1352 0.959 . S
H1341 C1355 0.929 . S
H1342 C1356 0.931 . S
H1343 C1358 0.930 . S
C1344 H1332 0.930 . S
C1344 C1345 1.399 . S
C1344 C1349 1.399 . S
C1345 C1344 1.399 . S
C1345 C1346 1.376 . S
C1346 H1333 0.930 . S
C1346 C1345 1.376 . S
C1346 C1347 1.388 1_545 S
C1347 H1334 0.930 . S
C1347 C1346 1.388 1_565 S
C1347 C1348 1.390 . S
C1348 C1347 1.390 . S
C1348 C1349 1.394 1_565 S
C1348 C1354 1.465 . S
C1349 C1344 1.399 . S
C1349 C1348 1.394 1_545 S
C1349 C1350 1.516 . S
C1350 C1349 1.516 . S
C1350 C1351 1.502 . S
C1350 C1352 1.561 . S
C1350 C1353 1.526 1_545 S
C1351 H1335 0.959 . S
C1351 H1336 0.959 . S
C1351 H1337 0.961 . S
C1351 C1350 1.502 . S
C1352 H1338 0.960 . S
C1352 H1339 0.961 . S
C1352 H1340 0.959 . S
C1352 C1350 1.561 . S
C1353 C1350 1.526 1_565 S
C1353 C1354 1.396 . S
C1353 C1358 1.390 . S
C1354 C1348 1.465 . S
C1354 C1353 1.396 . S
C1354 C1355 1.399 . S
C1355 H1341 0.929 . S
C1355 C1354 1.399 . S
C1355 C1356 1.385 . S
C1356 H1342 0.931 . S
C1356 C1355 1.385 . S
C1356 C1357 1.389 . S
C1357 C1356 1.389 . S
C1357 C1358 1.387 . S
C1358 H1343 0.930 . S
C1358 C1353 1.390 . S
C1358 C1357 1.387 . S
H1359 C1371 0.930 . S
H1360 C1373 0.930 . S
H1361 C1374 0.930 . S
H1362 C1378 0.959 . S
H1363 C1378 0.959 . S
H1364 C1378 0.961 . S
H1365 C1379 0.960 . S
H1366 C1379 0.961 . S
H1367 C1379 0.959 . S
H1368 C1382 0.929 . S
H1369 C1383 0.931 . S
H1370 C1385 0.930 . S
C1371 H1359 0.930 . S
C1371 C1372 1.399 . S
C1371 C1376 1.399 . S
C1372 C1371 1.399 . S
C1372 C1373 1.376 . S
C1373 H1360 0.930 . S
C1373 C1372 1.376 . S
C1373 C1374 1.388 1_565 S
C1374 H1361 0.930 . S
C1374 C1373 1.388 1_545 S
C1374 C1375 1.390 . S
C1375 C1374 1.390 . S
C1375 C1376 1.394 1_545 S
C1375 C1381 1.465 . S
C1376 C1371 1.399 . S
C1376 C1375 1.394 1_565 S
C1376 C1377 1.516 . S
C1377 C1376 1.516 . S
C1377 C1378 1.502 . S
C1377 C1379 1.561 . S
C1377 C1380 1.526 1_565 S
C1378 H1362 0.959 . S
C1378 H1363 0.959 . S
C1378 H1364 0.961 . S
C1378 C1377 1.502 . S
C1379 H1365 0.960 . S
C1379 H1366 0.961 . S
C1379 H1367 0.959 . S
C1379 C1377 1.561 . S
C1380 C1377 1.526 1_545 S
C1380 C1381 1.396 . S
C1380 C1385 1.390 . S
C1381 C1375 1.465 . S
C1381 C1380 1.396 . S
C1381 C1382 1.399 . S
C1382 H1368 0.929 . S
C1382 C1381 1.399 . S
C1382 C1383 1.385 . S
C1383 H1369 0.931 . S
C1383 C1382 1.385 . S
C1383 C1384 1.389 . S
C1384 C1383 1.389 . S
C1384 C1385 1.387 . S
C1385 H1370 0.930 . S
C1385 C1380 1.390 . S
C1385 C1384 1.387 . S
H1386 C1398 0.930 . S
H1387 C1400 0.930 . S
H1388 C1401 0.930 . S
H1389 C1405 0.959 . S
H1390 C1405 0.959 1_455 S
H1391 C1405 0.961 . S
H1392 C1406 0.960 . S
H1393 C1406 0.961 . S
H1394 C1406 0.959 . S
H1395 C1409 0.929 . S
H1396 C1410 0.931 . S
H1397 C1412 0.930 . S
C1398 H1386 0.930 . S
C1398 C1399 1.399 . S
C1398 C1403 1.399 . S
C1399 C1398 1.399 . S
C1399 C1400 1.376 . S
C1400 H1387 0.930 . S
C1400 C1399 1.376 . S
C1400 C1401 1.388 . S
C1401 H1388 0.930 . S
C1401 C1400 1.388 . S
C1401 C1402 1.390 . S
C1402 C1401 1.390 . S
C1402 C1403 1.394 . S
C1402 C1408 1.465 1_655 S
C1403 C1398 1.399 . S
C1403 C1402 1.394 . S
C1403 C1404 1.516 1_655 S
C1404 C1403 1.516 1_455 S
C1404 C1405 1.502 1_455 S
C1404 C1406 1.561 . S
C1404 C1407 1.526 . S
C1405 H1389 0.959 . S
C1405 H1390 0.959 1_655 S
C1405 H1391 0.961 . S
C1405 C1404 1.502 1_655 S
C1406 H1392 0.960 . S
C1406 H1393 0.961 . S
C1406 H1394 0.959 . S
C1406 C1404 1.561 . S
C1407 C1404 1.526 . S
C1407 C1408 1.396 . S
C1407 C1412 1.390 . S
C1408 C1402 1.465 1_455 S
C1408 C1407 1.396 . S
C1408 C1409 1.399 . S
C1409 H1395 0.929 . S
C1409 C1408 1.399 . S
C1409 C1410 1.385 . S
C1410 H1396 0.931 . S
C1410 C1409 1.385 . S
C1410 C1411 1.389 . S
C1411 C1410 1.389 . S
C1411 C1412 1.387 . S
C1412 H1397 0.930 . S
C1412 C1407 1.390 . S
C1412 C1411 1.387 . S
H1413 C1425 0.930 . S
H1414 C1427 0.930 . S
H1415 C1428 0.930 . S
H1416 C1432 0.959 . S
H1417 C1432 0.959 . S
H1418 C1432 0.961 . S
H1419 C1433 0.960 . S
H1420 C1433 0.961 . S
H1421 C1433 0.959 . S
H1422 C1436 0.929 . S
H1423 C1437 0.931 . S
H1424 C1439 0.930 . S
C1425 H1413 0.930 . S
C1425 C1426 1.399 . S
C1425 C1430 1.399 . S
C1426 C1425 1.399 . S
C1426 C1427 1.376 . S
C1427 H1414 0.930 . S
C1427 C1426 1.376 . S
C1427 C1428 1.388 . S
C1428 H1415 0.930 . S
C1428 C1427 1.388 . S
C1428 C1429 1.390 . S
C1429 C1428 1.390 . S
C1429 C1430 1.394 . S
C1429 C1435 1.465 . S
C1430 C1425 1.399 . S
C1430 C1429 1.394 . S
C1430 C1431 1.516 . S
C1431 C1430 1.516 . S
C1431 C1432 1.502 . S
C1431 C1433 1.561 . S
C1431 C1434 1.526 . S
C1432 H1416 0.959 . S
C1432 H1417 0.959 . S
C1432 H1418 0.961 . S
C1432 C1431 1.502 . S
C1433 H1419 0.960 . S
C1433 H1420 0.961 . S
C1433 H1421 0.959 . S
C1433 C1431 1.561 . S
C1434 C1431 1.526 . S
C1434 C1435 1.396 . S
C1434 C1439 1.390 . S
C1435 C1429 1.465 . S
C1435 C1434 1.396 . S
C1435 C1436 1.399 . S
C1436 H1422 0.929 . S
C1436 C1435 1.399 . S
C1436 C1437 1.385 . S
C1437 H1423 0.931 . S
C1437 C1436 1.385 . S
C1437 C1438 1.389 . S
C1438 C1437 1.389 . S
C1438 C1439 1.387 . S
C1439 H1424 0.930 . S
C1439 C1434 1.390 . S
C1439 C1438 1.387 . S
H1440 C1452 0.930 . S
H1441 C1454 0.930 . S
H1442 C1455 0.930 . S
H1443 C1459 0.959 . S
H1444 C1459 0.959 . S
H1445 C1459 0.961 . S
H1446 C1460 0.960 . S
H1447 C1460 0.961 . S
H1448 C1460 0.959 . S
H1449 C1463 0.929 . S
H1450 C1464 0.931 . S
H1451 C1466 0.930 . S
C1452 H1440 0.930 . S
C1452 C1453 1.399 . S
C1452 C1457 1.399 . S
C1453 C1452 1.399 . S
C1453 C1454 1.376 . S
C1454 H1441 0.930 . S
C1454 C1453 1.376 . S
C1454 C1455 1.388 . S
C1455 H1442 0.930 . S
C1455 C1454 1.388 . S
C1455 C1456 1.390 . S
C1456 C1455 1.390 . S
C1456 C1457 1.394 . S
C1456 C1462 1.465 . S
C1457 C1452 1.399 . S
C1457 C1456 1.394 . S
C1457 C1458 1.516 . S
C1458 C1457 1.516 . S
C1458 C1459 1.502 . S
C1458 C1460 1.561 . S
C1458 C1461 1.526 . S
C1459 H1443 0.959 . S
C1459 H1444 0.959 . S
C1459 H1445 0.961 . S
C1459 C1458 1.502 . S
C1460 H1446 0.960 . S
C1460 H1447 0.961 . S
C1460 H1448 0.959 . S
C1460 C1458 1.561 . S
C1461 C1458 1.526 . S
C1461 C1462 1.396 . S
C1461 C1466 1.390 . S
C1462 C1456 1.465 . S
C1462 C1461 1.396 . S
C1462 C1463 1.399 . S
C1463 H1449 0.929 . S
C1463 C1462 1.399 . S
C1463 C1464 1.385 . S
C1464 H1450 0.931 . S
C1464 C1463 1.385 . S
C1464 C1465 1.389 . S
C1465 C1464 1.389 . S
C1465 C1466 1.387 . S
C1466 H1451 0.930 . S
C1466 C1461 1.390 . S
C1466 C1465 1.387 . S
H1467 C1479 0.930 . S
H1468 C1481 0.930 . S
H1469 C1482 0.930 . S
H1470 C1486 0.959 . S
H1471 C1486 0.959 . S
H1472 C1486 0.961 . S
H1473 C1487 0.960 . S
H1474 C1487 0.961 . S
H1475 C1487 0.959 . S
H1476 C1490 0.929 . S
H1477 C1491 0.931 . S
H1478 C1493 0.930 . S
C1479 H1467 0.930 . S
C1479 C1480 1.399 . S
C1479 C1484 1.399 . S
C1480 C1479 1.399 . S
C1480 C1481 1.376 . S
C1481 H1468 0.930 . S
C1481 C1480 1.376 . S
C1481 C1482 1.388 . S
C1482 H1469 0.930 . S
C1482 C1481 1.388 . S
C1482 C1483 1.390 . S
C1483 C1482 1.390 . S
C1483 C1484 1.394 . S
C1483 C1489 1.465 . S
C1484 C1479 1.399 . S
C1484 C1483 1.394 . S
C1484 C1485 1.516 . S
C1485 C1484 1.516 . S
C1485 C1486 1.502 . S
C1485 C1487 1.561 . S
C1485 C1488 1.526 . S
C1486 H1470 0.959 . S
C1486 H1471 0.959 . S
C1486 H1472 0.961 . S
C1486 C1485 1.502 . S
C1487 H1473 0.960 . S
C1487 H1474 0.961 . S
C1487 H1475 0.959 . S
C1487 C1485 1.561 . S
C1488 C1485 1.526 . S
C1488 C1489 1.396 . S
C1488 C1493 1.390 . S
C1489 C1483 1.465 . S
C1489 C1488 1.396 . S
C1489 C1490 1.399 . S
C1490 H1476 0.929 . S
C1490 C1489 1.399 . S
C1490 C1491 1.385 . S
C1491 H1477 0.931 . S
C1491 C1490 1.385 . S
C1491 C1492 1.389 . S
C1492 C1491 1.389 . S
C1492 C1493 1.387 . S
C1493 H1478 0.930 . S
C1493 C1488 1.390 . S
C1493 C1492 1.387 . S
H1494 C1506 0.930 . S
H1495 C1508 0.930 . S
H1496 C1509 0.930 . S
H1497 C1513 0.959 . S
H1498 C1513 0.959 . S
H1499 C1513 0.961 . S
H1500 C1514 0.960 . S
H1501 C1514 0.961 . S
H1502 C1514 0.959 . S
H1503 C1517 0.929 . S
H1504 C1518 0.931 . S
H1505 C1520 0.930 . S
C1506 H1494 0.930 . S
C1506 C1507 1.399 . S
C1506 C1511 1.399 . S
C1507 C1506 1.399 . S
C1507 C1508 1.376 . S
C1508 H1495 0.930 . S
C1508 C1507 1.376 . S
C1508 C1509 1.388 . S
C1509 H1496 0.930 . S
C1509 C1508 1.388 . S
C1509 C1510 1.390 . S
C1510 C1509 1.390 . S
C1510 C1511 1.394 . S
C1510 C1516 1.465 . S
C1511 C1506 1.399 . S
C1511 C1510 1.394 . S
C1511 C1512 1.516 . S
C1512 C1511 1.516 . S
C1512 C1513 1.502 . S
C1512 C1514 1.561 . S
C1512 C1515 1.526 . S
C1513 H1497 0.959 . S
C1513 H1498 0.959 . S
C1513 H1499 0.961 . S
C1513 C1512 1.502 . S
C1514 H1500 0.960 . S
C1514 H1501 0.961 . S
C1514 H1502 0.959 . S
C1514 C1512 1.561 . S
C1515 C1512 1.526 . S
C1515 C1516 1.396 . S
C1515 C1520 1.390 . S
C1516 C1510 1.465 . S
C1516 C1515 1.396 . S
C1516 C1517 1.399 . S
C1517 H1503 0.929 . S
C1517 C1516 1.399 . S
C1517 C1518 1.385 . S
C1518 H1504 0.931 . S
C1518 C1517 1.385 . S
C1518 C1519 1.389 . S
C1519 C1518 1.389 . S
C1519 C1520 1.387 . S
C1520 H1505 0.930 . S
C1520 C1515 1.390 . S
C1520 C1519 1.387 . S
H1521 C1533 0.930 . S
H1522 C1535 0.930 . S
H1523 C1536 0.930 . S
H1524 C1540 0.959 . S
H1525 C1540 0.959 . S
H1526 C1540 0.961 . S
H1527 C1541 0.960 . S
H1528 C1541 0.961 . S
H1529 C1541 0.959 . S
H1530 C1544 0.929 . S
H1531 C1545 0.931 . S
H1532 C1547 0.930 . S
C1533 H1521 0.930 . S
C1533 C1534 1.399 . S
C1533 C1538 1.399 . S
C1534 C1533 1.399 . S
C1534 C1535 1.376 . S
C1535 H1522 0.930 . S
C1535 C1534 1.376 . S
C1535 C1536 1.388 . S
C1536 H1523 0.930 . S
C1536 C1535 1.388 . S
C1536 C1537 1.390 . S
C1537 C1536 1.390 . S
C1537 C1538 1.394 . S
C1537 C1543 1.465 . S
C1538 C1533 1.399 . S
C1538 C1537 1.394 . S
C1538 C1539 1.516 . S
C1539 C1538 1.516 . S
C1539 C1540 1.502 . S
C1539 C1541 1.561 . S
C1539 C1542 1.526 . S
C1540 H1524 0.959 . S
C1540 H1525 0.959 . S
C1540 H1526 0.961 . S
C1540 C1539 1.502 . S
C1541 H1527 0.960 . S
C1541 H1528 0.961 . S
C1541 H1529 0.959 . S
C1541 C1539 1.561 . S
C1542 C1539 1.526 . S
C1542 C1543 1.396 . S
C1542 C1547 1.390 . S
C1543 C1537 1.465 . S
C1543 C1542 1.396 . S
C1543 C1544 1.399 . S
C1544 H1530 0.929 . S
C1544 C1543 1.399 . S
C1544 C1545 1.385 . S
C1545 H1531 0.931 . S
C1545 C1544 1.385 . S
C1545 C1546 1.389 . S
C1546 C1545 1.389 . S
C1546 C1547 1.387 . S
C1547 H1532 0.930 . S
C1547 C1542 1.390 . S
C1547 C1546 1.387 . S
H1548 C1560 0.930 . S
H1549 C1562 0.930 . S
H1550 C1563 0.930 . S
H1551 C1567 0.959 . S
H1552 C1567 0.959 . S
H1553 C1567 0.961 . S
H1554 C1568 0.960 . S
H1555 C1568 0.961 . S
H1556 C1568 0.959 . S
H1557 C1571 0.929 . S
H1558 C1572 0.931 . S
H1559 C1574 0.930 . S
C1560 H1548 0.930 . S
C1560 C1561 1.399 . S
C1560 C1565 1.399 . S
C1561 C1560 1.399 . S
C1561 C1562 1.376 . S
C1562 H1549 0.930 . S
C1562 C1561 1.376 . S
C1562 C1563 1.388 . S
C1563 H1550 0.930 . S
C1563 C1562 1.388 . S
C1563 C1564 1.390 . S
C1564 C1563 1.390 . S
C1564 C1565 1.394 . S
C1564 C1570 1.465 . S
C1565 C1560 1.399 . S
C1565 C1564 1.394 . S
C1565 C1566 1.516 . S
C1566 C1565 1.516 . S
C1566 C1567 1.502 . S
C1566 C1568 1.561 . S
C1566 C1569 1.526 . S
C1567 H1551 0.959 . S
C1567 H1552 0.959 . S
C1567 H1553 0.961 . S
C1567 C1566 1.502 . S
C1568 H1554 0.960 . S
C1568 H1555 0.961 . S
C1568 H1556 0.959 . S
C1568 C1566 1.561 . S
C1569 C1566 1.526 . S
C1569 C1570 1.396 . S
C1569 C1574 1.390 . S
C1570 C1564 1.465 . S
C1570 C1569 1.396 . S
C1570 C1571 1.399 . S
C1571 H1557 0.929 . S
C1571 C1570 1.399 . S
C1571 C1572 1.385 . S
C1572 H1558 0.931 . S
C1572 C1571 1.385 . S
C1572 C1573 1.389 . S
C1573 C1572 1.389 . S
C1573 C1574 1.387 . S
C1574 H1559 0.930 . S
C1574 C1569 1.390 . S
C1574 C1573 1.387 . S
H1575 C1587 0.930 . S
H1576 C1589 0.930 . S
H1577 C1590 0.930 . S
H1578 C1594 0.959 . S
H1579 C1594 0.959 . S
H1580 C1594 0.961 . S
H1581 C1595 0.960 . S
H1582 C1595 0.961 . S
H1583 C1595 0.959 . S
H1584 C1598 0.929 . S
H1585 C1599 0.931 . S
H1586 C1601 0.930 . S
C1587 H1575 0.930 . S
C1587 C1588 1.399 . S
C1587 C1592 1.399 . S
C1588 C1587 1.399 . S
C1588 C1589 1.376 . S
C1589 H1576 0.930 . S
C1589 C1588 1.376 . S
C1589 C1590 1.388 . S
C1590 H1577 0.930 . S
C1590 C1589 1.388 . S
C1590 C1591 1.390 . S
C1591 C1590 1.390 . S
C1591 C1592 1.394 . S
C1591 C1597 1.465 . S
C1592 C1587 1.399 . S
C1592 C1591 1.394 . S
C1592 C1593 1.516 . S
C1593 C1592 1.516 . S
C1593 C1594 1.502 . S
C1593 C1595 1.561 . S
C1593 C1596 1.526 . S
C1594 H1578 0.959 . S
C1594 H1579 0.959 . S
C1594 H1580 0.961 . S
C1594 C1593 1.502 . S
C1595 H1581 0.960 . S
C1595 H1582 0.961 . S
C1595 H1583 0.959 . S
C1595 C1593 1.561 . S
C1596 C1593 1.526 . S
C1596 C1597 1.396 . S
C1596 C1601 1.390 . S
C1597 C1591 1.465 . S
C1597 C1596 1.396 . S
C1597 C1598 1.399 . S
C1598 H1584 0.929 . S
C1598 C1597 1.399 . S
C1598 C1599 1.385 . S
C1599 H1585 0.931 . S
C1599 C1598 1.385 . S
C1599 C1600 1.389 . S
C1600 C1599 1.389 . S
C1600 C1601 1.387 . S
C1601 H1586 0.930 . S
C1601 C1596 1.390 . S
C1601 C1600 1.387 . S
H1602 C1614 0.930 . S
H1603 C1616 0.930 . S
H1604 C1617 0.930 . S
H1605 C1621 0.959 . S
H1606 C1621 0.959 . S
H1607 C1621 0.961 . S
H1608 C1622 0.960 . S
H1609 C1622 0.961 . S
H1610 C1622 0.959 . S
H1611 C1625 0.929 . S
H1612 C1626 0.931 . S
H1613 C1628 0.930 . S
C1614 H1602 0.930 . S
C1614 C1615 1.399 . S
C1614 C1619 1.399 . S
C1615 C1614 1.399 . S
C1615 C1616 1.376 . S
C1616 H1603 0.930 . S
C1616 C1615 1.376 . S
C1616 C1617 1.388 . S
C1617 H1604 0.930 . S
C1617 C1616 1.388 . S
C1617 C1618 1.390 . S
C1618 C1617 1.390 . S
C1618 C1619 1.394 . S
C1618 C1624 1.465 . S
C1619 C1614 1.399 . S
C1619 C1618 1.394 . S
C1619 C1620 1.516 . S
C1620 C1619 1.516 . S
C1620 C1621 1.502 . S
C1620 C1622 1.561 . S
C1620 C1623 1.526 . S
C1621 H1605 0.959 . S
C1621 H1606 0.959 . S
C1621 H1607 0.961 . S
C1621 C1620 1.502 . S
C1622 H1608 0.960 . S
C1622 H1609 0.961 . S
C1622 H1610 0.959 . S
C1622 C1620 1.561 . S
C1623 C1620 1.526 . S
C1623 C1624 1.396 . S
C1623 C1628 1.390 . S
C1624 C1618 1.465 . S
C1624 C1623 1.396 . S
C1624 C1625 1.399 . S
C1625 H1611 0.929 . S
C1625 C1624 1.399 . S
C1625 C1626 1.385 . S
C1626 H1612 0.931 . S
C1626 C1625 1.385 . S
C1626 C1627 1.389 . S
C1627 C1626 1.389 . S
C1627 C1628 1.387 . S
C1628 H1613 0.930 . S
C1628 C1623 1.390 . S
C1628 C1627 1.387 . S
H1629 C1641 0.930 . S
H1630 C1643 0.930 . S
H1631 C1644 0.930 . S
H1632 C1648 0.959 . S
H1633 C1648 0.959 . S
H1634 C1648 0.961 . S
H1635 C1649 0.960 . S
H1636 C1649 0.961 . S
H1637 C1649 0.959 . S
H1638 C1652 0.929 . S
H1639 C1653 0.931 . S
H1640 C1655 0.930 . S
C1641 H1629 0.930 . S
C1641 C1642 1.399 . S
C1641 C1646 1.399 . S
C1642 C1641 1.399 . S
C1642 C1643 1.376 . S
C1643 H1630 0.930 . S
C1643 C1642 1.376 . S
C1643 C1644 1.388 . S
C1644 H1631 0.930 . S
C1644 C1643 1.388 . S
C1644 C1645 1.390 . S
C1645 C1644 1.390 . S
C1645 C1646 1.394 . S
C1645 C1651 1.465 . S
C1646 C1641 1.399 . S
C1646 C1645 1.394 . S
C1646 C1647 1.516 . S
C1647 C1646 1.516 . S
C1647 C1648 1.502 . S
C1647 C1649 1.561 . S
C1647 C1650 1.526 . S
C1648 H1632 0.959 . S
C1648 H1633 0.959 . S
C1648 H1634 0.961 . S
C1648 C1647 1.502 . S
C1649 H1635 0.960 . S
C1649 H1636 0.961 . S
C1649 H1637 0.959 . S
C1649 C1647 1.561 . S
C1650 C1647 1.526 . S
C1650 C1651 1.396 . S
C1650 C1655 1.390 . S
C1651 C1645 1.465 . S
C1651 C1650 1.396 . S
C1651 C1652 1.399 . S
C1652 H1638 0.929 . S
C1652 C1651 1.399 . S
C1652 C1653 1.385 . S
C1653 H1639 0.931 . S
C1653 C1652 1.385 . S
C1653 C1654 1.389 . S
C1654 C1653 1.389 . S
C1654 C1655 1.387 . S
C1655 H1640 0.930 . S
C1655 C1650 1.390 . S
C1655 C1654 1.387 . S
H1656 C1668 0.930 . S
H1657 C1670 0.930 . S
H1658 C1671 0.930 . S
H1659 C1675 0.959 . S
H1660 C1675 0.959 . S
H1661 C1675 0.961 . S
H1662 C1676 0.960 . S
H1663 C1676 0.961 . S
H1664 C1676 0.959 . S
H1665 C1679 0.929 . S
H1666 C1680 0.931 . S
H1667 C1682 0.930 . S
C1668 H1656 0.930 . S
C1668 C1669 1.399 . S
C1668 C1673 1.399 . S
C1669 C1668 1.399 . S
C1669 C1670 1.376 . S
C1670 H1657 0.930 . S
C1670 C1669 1.376 . S
C1670 C1671 1.388 . S
C1671 H1658 0.930 . S
C1671 C1670 1.388 . S
C1671 C1672 1.390 . S
C1672 C1671 1.390 . S
C1672 C1673 1.394 . S
C1672 C1678 1.465 . S
C1673 C1668 1.399 . S
C1673 C1672 1.394 . S
C1673 C1674 1.516 . S
C1674 C1673 1.516 . S
C1674 C1675 1.502 . S
C1674 C1676 1.561 . S
C1674 C1677 1.526 . S
C1675 H1659 0.959 . S
C1675 H1660 0.959 . S
C1675 H1661 0.961 . S
C1675 C1674 1.502 . S
C1676 H1662 0.960 . S
C1676 H1663 0.961 . S
C1676 H1664 0.959 . S
C1676 C1674 1.561 . S
C1677 C1674 1.526 . S
C1677 C1678 1.396 . S
C1677 C1682 1.390 . S
C1678 C1672 1.465 . S
C1678 C1677 1.396 . S
C1678 C1679 1.399 . S
C1679 H1665 0.929 . S
C1679 C1678 1.399 . S
C1679 C1680 1.385 . S
C1680 H1666 0.931 . S
C1680 C1679 1.385 . S
C1680 C1681 1.389 . S
C1681 C1680 1.389 . S
C1681 C1682 1.387 . S
C1682 H1667 0.930 . S
C1682 C1677 1.390 . S
C1682 C1681 1.387 . S
H1683 C1695 0.930 . S
H1684 C1697 0.930 . S
H1685 C1698 0.930 . S
H1686 C1702 0.959 . S
H1687 C1702 0.959 . S
H1688 C1702 0.961 . S
H1689 C1703 0.960 . S
H1690 C1703 0.961 . S
H1691 C1703 0.959 . S
H1692 C1706 0.929 . S
H1693 C1707 0.931 . S
H1694 C1709 0.930 . S
C1695 H1683 0.930 . S
C1695 C1696 1.399 . S
C1695 C1700 1.399 . S
C1696 C1695 1.399 . S
C1696 C1697 1.376 . S
C1697 H1684 0.930 . S
C1697 C1696 1.376 . S
C1697 C1698 1.388 . S
C1698 H1685 0.930 . S
C1698 C1697 1.388 . S
C1698 C1699 1.390 . S
C1699 C1698 1.390 . S
C1699 C1700 1.394 . S
C1699 C1705 1.465 . S
C1700 C1695 1.399 . S
C1700 C1699 1.394 . S
C1700 C1701 1.516 . S
C1701 C1700 1.516 . S
C1701 C1702 1.502 . S
C1701 C1703 1.561 . S
C1701 C1704 1.526 . S
C1702 H1686 0.959 . S
C1702 H1687 0.959 . S
C1702 H1688 0.961 . S
C1702 C1701 1.502 . S
C1703 H1689 0.960 . S
C1703 H1690 0.961 . S
C1703 H1691 0.959 . S
C1703 C1701 1.561 . S
C1704 C1701 1.526 . S
C1704 C1705 1.396 . S
C1704 C1709 1.390 . S
C1705 C1699 1.465 . S
C1705 C1704 1.396 . S
C1705 C1706 1.399 . S
C1706 H1692 0.929 . S
C1706 C1705 1.399 . S
C1706 C1707 1.385 . S
C1707 H1693 0.931 . S
C1707 C1706 1.385 . S
C1707 C1708 1.389 . S
C1708 C1707 1.389 . S
C1708 C1709 1.387 . S
C1709 H1694 0.930 . S
C1709 C1704 1.390 . S
C1709 C1708 1.387 . S
H1710 C1722 0.930 . S
H1711 C1724 0.930 . S
H1712 C1725 0.930 . S
H1713 C1729 0.959 . S
H1714 C1729 0.959 . S
H1715 C1729 0.961 . S
H1716 C1730 0.960 . S
H1717 C1730 0.961 . S
H1718 C1730 0.959 . S
H1719 C1733 0.929 . S
H1720 C1734 0.931 . S
H1721 C1736 0.930 . S
C1722 H1710 0.930 . S
C1722 C1723 1.399 . S
C1722 C1727 1.399 . S
C1723 C1722 1.399 . S
C1723 C1724 1.376 . S
C1724 H1711 0.930 . S
C1724 C1723 1.376 . S
C1724 C1725 1.388 . S
C1725 H1712 0.930 . S
C1725 C1724 1.388 . S
C1725 C1726 1.390 . S
C1726 C1725 1.390 . S
C1726 C1727 1.394 . S
C1726 C1732 1.465 . S
C1727 C1722 1.399 . S
C1727 C1726 1.394 . S
C1727 C1728 1.516 . S
C1728 C1727 1.516 . S
C1728 C1729 1.502 . S
C1728 C1730 1.561 . S
C1728 C1731 1.526 . S
C1729 H1713 0.959 . S
C1729 H1714 0.959 . S
C1729 H1715 0.961 . S
C1729 C1728 1.502 . S
C1730 H1716 0.960 . S
C1730 H1717 0.961 . S
C1730 H1718 0.959 . S
C1730 C1728 1.561 . S
C1731 C1728 1.526 . S
C1731 C1732 1.396 . S
C1731 C1736 1.390 . S
C1732 C1726 1.465 . S
C1732 C1731 1.396 . S
C1732 C1733 1.399 . S
C1733 H1719 0.929 . S
C1733 C1732 1.399 . S
C1733 C1734 1.385 . S
C1734 H1720 0.931 . S
C1734 C1733 1.385 . S
C1734 C1735 1.389 . S
C1735 C1734 1.389 . S
C1735 C1736 1.387 . S
C1736 H1721 0.930 . S
C1736 C1731 1.390 . S
C1736 C1735 1.387 . S
H1737 C1749 0.930 . S
H1738 C1751 0.930 . S
H1739 C1752 0.930 . S
H1740 C1756 0.959 . S
H1741 C1756 0.959 . S
H1742 C1756 0.961 . S
H1743 C1757 0.960 . S
H1744 C1757 0.961 . S
H1745 C1757 0.959 . S
H1746 C1760 0.929 . S
H1747 C1761 0.931 . S
H1748 C1763 0.930 . S
C1749 H1737 0.930 . S
C1749 C1750 1.399 . S
C1749 C1754 1.399 . S
C1750 C1749 1.399 . S
C1750 C1751 1.376 . S
C1751 H1738 0.930 . S
C1751 C1750 1.376 . S
C1751 C1752 1.388 . S
C1752 H1739 0.930 . S
C1752 C1751 1.388 . S
C1752 C1753 1.390 . S
C1753 C1752 1.390 . S
C1753 C1754 1.394 . S
C1753 C1759 1.465 . S
C1754 C1749 1.399 . S
C1754 C1753 1.394 . S
C1754 C1755 1.516 . S
C1755 C1754 1.516 . S
C1755 C1756 1.502 . S
C1755 C1757 1.561 . S
C1755 C1758 1.526 . S
C1756 H1740 0.959 . S
C1756 H1741 0.959 . S
C1756 H1742 0.961 . S
C1756 C1755 1.502 . S
C1757 H1743 0.960 . S
C1757 H1744 0.961 . S
C1757 H1745 0.959 . S
C1757 C1755 1.561 . S
C1758 C1755 1.526 . S
C1758 C1759 1.396 . S
C1758 C1763 1.390 . S
C1759 C1753 1.465 . S
C1759 C1758 1.396 . S
C1759 C1760 1.399 . S
C1760 H1746 0.929 . S
C1760 C1759 1.399 . S
C1760 C1761 1.385 . S
C1761 H1747 0.931 . S
C1761 C1760 1.385 . S
C1761 C1762 1.389 . S
C1762 C1761 1.389 . S
C1762 C1763 1.387 . S
C1763 H1748 0.930 . S
C1763 C1758 1.390 . S
C1763 C1762 1.387 . S
H1764 C1776 0.930 . S
H1765 C1778 0.930 . S
H1766 C1779 0.930 . S
H1767 C1783 0.959 . S
H1768 C1783 0.959 . S
H1769 C1783 0.961 . S
H1770 C1784 0.946 1_455 S
H1771 C1784 0.964 1_455 S
H1772 C1784 0.976 . S
H1773 C1787 0.929 . S
H1774 C1788 0.931 . S
H1775 C1790 0.955 . S
C1776 H1764 0.930 . S
C1776 C1777 1.399 . S
C1776 C1781 1.399 . S
C1777 C1776 1.399 . S
C1777 C1778 1.376 1_455 S
C1778 H1765 0.930 . S
C1778 C1777 1.376 1_655 S
C1778 C1779 1.388 . S
C1779 H1766 0.930 . S
C1779 C1778 1.388 . S
C1779 C1780 1.390 . S
C1780 C1779 1.390 . S
C1780 C1781 1.394 1_655 S
C1780 C1786 1.465 . S
C1781 C1776 1.399 . S
C1781 C1780 1.394 1_455 S
C1781 C1782 1.516 . S
C1782 C1781 1.516 . S
C1782 C1783 1.502 . S
C1782 C1784 1.556 1_455 S
C1782 C1785 1.526 . S
C1783 H1767 0.959 . S
C1783 H1768 0.959 . S
C1783 H1769 0.961 . S
C1783 C1782 1.502 . S
C1784 H1770 0.946 1_655 S
C1784 H1771 0.964 1_655 S
C1784 H1772 0.976 . S
C1784 C1782 1.556 1_655 S
C1785 C1782 1.526 . S
C1785 C1786 1.396 1_455 S
C1785 C1790 1.424 . S
C1786 C1780 1.465 . S
C1786 C1785 1.396 1_655 S
C1786 C1787 1.399 . S
C1787 H1773 0.929 . S
C1787 C1786 1.399 . S
C1787 C1788 1.385 . S
C1788 H1774 0.931 . S
C1788 C1787 1.385 . S
C1788 C1789 1.389 . S
C1789 C1788 1.389 . S
C1789 C1790 1.332 1_655 S
C1790 H1775 0.955 . S
C1790 C1785 1.424 . S
C1790 C1789 1.332 1_455 S
H1791 C1803 0.930 . S
H1792 C1805 0.930 . S
H1793 C1806 0.930 . S
H1794 C1810 0.959 . S
H1795 C1810 0.959 . S
H1796 C1810 0.961 . S
H1797 C1811 0.960 . S
H1798 C1811 0.961 . S
H1799 C1811 0.959 . S
H1800 C1814 0.929 . S
H1801 C1815 0.931 . S
H1802 C1817 0.930 . S
C1803 H1791 0.930 . S
C1803 C1804 1.399 . S
C1803 C1808 1.399 . S
C1804 C1803 1.399 . S
C1804 C1805 1.376 . S
C1805 H1792 0.930 . S
C1805 C1804 1.376 . S
C1805 C1806 1.388 . S
C1806 H1793 0.930 . S
C1806 C1805 1.388 . S
C1806 C1807 1.390 . S
C1807 C1806 1.390 . S
C1807 C1808 1.394 . S
C1807 C1813 1.465 . S
C1808 C1803 1.399 . S
C1808 C1807 1.394 . S
C1808 C1809 1.516 . S
C1809 C1808 1.516 . S
C1809 C1810 1.502 . S
C1809 C1811 1.561 . S
C1809 C1812 1.526 . S
C1810 H1794 0.959 . S
C1810 H1795 0.959 . S
C1810 H1796 0.961 . S
C1810 C1809 1.502 . S
C1811 H1797 0.960 . S
C1811 H1798 0.961 . S
C1811 H1799 0.959 . S
C1811 C1809 1.561 . S
C1812 C1809 1.526 . S
C1812 C1813 1.396 . S
C1812 C1817 1.390 . S
C1813 C1807 1.465 . S
C1813 C1812 1.396 . S
C1813 C1814 1.399 . S
C1814 H1800 0.929 . S
C1814 C1813 1.399 . S
C1814 C1815 1.385 . S
C1815 H1801 0.931 . S
C1815 C1814 1.385 . S
C1815 C1816 1.389 . S
C1816 C1815 1.389 . S
C1816 C1817 1.387 . S
C1817 H1802 0.930 . S
C1817 C1812 1.390 . S
C1817 C1816 1.387 . S
H1818 C1830 0.930 . S
H1819 C1832 0.930 . S
H1820 C1833 0.930 . S
H1821 C1837 0.959 1_545 S
H1822 C1837 0.959 . S
H1823 C1837 0.961 . S
H1824 C1838 0.960 . S
H1825 C1838 0.961 . S
H1826 C1838 0.959 . S
H1827 C1841 0.929 . S
H1828 C1842 0.931 . S
H1829 C1844 0.930 . S
C1830 H1818 0.930 . S
C1830 C1831 1.399 1_565 S
C1830 C1835 1.399 . S
C1831 C1830 1.399 1_545 S
C1831 C1832 1.376 . S
C1832 H1819 0.930 . S
C1832 C1831 1.376 . S
C1832 C1833 1.388 . S
C1833 H1820 0.930 . S
C1833 C1832 1.388 . S
C1833 C1834 1.390 . S
C1834 C1833 1.390 . S
C1834 C1835 1.394 1_545 S
C1834 C1840 1.465 . S
C1835 C1830 1.399 . S
C1835 C1834 1.394 1_565 S
C1835 C1836 1.516 . S
C1836 C1835 1.516 . S
C1836 C1837 1.502 . S
C1836 C1838 1.561 . S
C1836 C1839 1.526 . S
C1837 H1821 0.959 1_565 S
C1837 H1822 0.959 . S
C1837 H1823 0.961 . S
C1837 C1836 1.502 . S
C1838 H1824 0.960 . S
C1838 H1825 0.961 . S
C1838 H1826 0.959 . S
C1838 C1836 1.561 . S
C1839 C1836 1.526 . S
C1839 C1840 1.396 1_565 S
C1839 C1844 1.390 . S
C1840 C1834 1.465 . S
C1840 C1839 1.396 1_545 S
C1840 C1841 1.399 . S
C1841 H1827 0.929 . S
C1841 C1840 1.399 . S
C1841 C1842 1.385 . S
C1842 H1828 0.931 . S
C1842 C1841 1.385 . S
C1842 C1843 1.389 1_545 S
C1843 C1842 1.389 1_565 S
C1843 C1844 1.387 . S
C1844 H1829 0.930 . S
C1844 C1839 1.390 . S
C1844 C1843 1.387 . S
H1845 C1857 0.930 . S
H1846 C1859 0.930 . S
H1847 C1860 0.930 . S
H1848 C1864 0.959 . S
H1849 C1864 0.959 . S
H1850 C1864 0.961 . S
H1851 C1865 0.960 . S
H1852 C1865 0.961 . S
H1853 C1865 0.959 1_554 S
H1854 C1868 0.929 . S
H1855 C1869 0.931 . S
H1856 C1871 0.930 1_556 S
C1857 H1845 0.930 . S
C1857 C1858 1.399 . S
C1857 C1862 1.399 . S
C1858 C1857 1.399 . S
C1858 C1859 1.376 1_546 S
C1859 H1846 0.930 . S
C1859 C1858 1.376 1_564 S
C1859 C1860 1.388 . S
C1860 H1847 0.930 . S
C1860 C1859 1.388 . S
C1860 C1861 1.390 . S
C1861 C1860 1.390 . S
C1861 C1862 1.394 1_564 S
C1861 C1867 1.465 . S
C1862 C1857 1.399 . S
C1862 C1861 1.394 1_546 S
C1862 C1863 1.516 . S
C1863 C1862 1.516 . S
C1863 C1864 1.502 . S
C1863 C1865 1.561 . S
C1863 C1866 1.536 . S
C1864 H1848 0.959 . S
C1864 H1849 0.959 . S
C1864 H1850 0.961 . S
C1864 C1863 1.502 . S
C1865 H1851 0.960 . S
C1865 H1852 0.961 . S
C1865 H1853 0.959 1_556 S
C1865 C1863 1.561 . S
C1866 C1863 1.536 . S
C1866 C1867 1.386 1_546 S
C1866 C1871 1.388 1_556 S
C1867 C1861 1.465 . S
C1867 C1866 1.386 1_564 S
C1867 C1868 1.399 . S
C1868 H1854 0.929 . S
C1868 C1867 1.399 . S
C1868 C1869 1.385 . S
C1869 H1855 0.931 . S
C1869 C1868 1.385 . S
C1869 C1870 1.389 . S
C1870 C1869 1.389 . S
C1870 C1871 1.387 1_565 S
C1871 H1856 0.930 1_554 S
C1871 C1866 1.388 1_554 S
C1871 C1870 1.387 1_545 S
H1872 C1884 0.930 . S
H1873 C1886 0.930 . S
H1874 C1887 0.930 . S
H1875 C1891 0.959 . S
H1876 C1891 0.959 . S
H1877 C1891 0.961 . S
H1878 C1892 0.960 . S
H1879 C1892 0.961 . S
H1880 C1892 0.959 . S
H1881 C1895 0.929 . S
H1882 C1896 0.931 . S
H1883 C1898 0.930 1_455 S
C1884 H1872 0.930 . S
C1884 C1885 1.399 . S
C1884 C1889 1.399 . S
C1885 C1884 1.399 . S
C1885 C1886 1.376 1_454 S
C1886 H1873 0.930 . S
C1886 C1885 1.376 1_656 S
C1886 C1887 1.388 . S
C1887 H1874 0.930 . S
C1887 C1886 1.388 . S
C1887 C1888 1.390 . S
C1888 C1887 1.390 . S
C1888 C1889 1.394 1_656 S
C1888 C1894 1.465 . S
C1889 C1884 1.399 . S
C1889 C1888 1.394 1_454 S
C1889 C1890 1.516 . S
C1890 C1889 1.516 . S
C1890 C1891 1.502 . S
C1890 C1892 1.561 1_455 S
C1890 C1893 1.526 1_455 S
C1891 H1875 0.959 . S
C1891 H1876 0.959 . S
C1891 H1877 0.961 . S
C1891 C1890 1.502 . S
C1892 H1878 0.960 . S
C1892 H1879 0.961 . S
C1892 H1880 0.959 . S
C1892 C1890 1.561 1_655 S
C1893 C1890 1.526 1_655 S
C1893 C1894 1.409 1_554 S
C1893 C1898 1.379 . S
C1894 C1888 1.465 . S
C1894 C1893 1.409 1_556 S
C1894 C1895 1.399 . S
C1895 H1881 0.929 . S
C1895 C1894 1.399 . S
C1895 C1896 1.385 . S
C1896 H1882 0.931 . S
C1896 C1895 1.385 . S
C1896 C1897 1.389 . S
C1897 C1896 1.389 . S
C1897 C1898 1.387 1_556 S
C1898 H1883 0.930 1_655 S
C1898 C1893 1.379 . S
C1898 C1897 1.387 1_554 S
H1899 C1911 0.930 . S
H1900 C1913 0.930 . S
H1901 C1914 0.930 . S
H1902 C1918 0.959 . S
H1903 C1918 0.959 . S
H1904 C1918 0.961 . S
H1905 C1919 0.960 . S
H1906 C1919 0.961 . S
H1907 C1919 0.959 . S
H1908 C1922 0.929 . S
H1909 C1923 0.931 . S
H1910 C1925 0.930 . S
C1911 H1899 0.930 . S
C1911 C1912 1.399 1_556 S
C1911 C1916 1.399 . S
C1912 C1911 1.399 1_554 S
C1912 C1913 1.376 . S
C1913 H1900 0.930 . S
C1913 C1912 1.376 . S
C1913 C1914 1.388 . S
C1914 H1901 0.930 . S
C1914 C1913 1.388 . S
C1914 C1915 1.390 . S
C1915 C1914 1.390 . S
C1915 C1916 1.394 1_554 S
C1915 C1921 1.465 . S
C1916 C1911 1.399 . S
C1916 C1915 1.394 1_556 S
C1916 C1917 1.516 . S
C1917 C1916 1.516 . S
C1917 C1918 1.502 . S
C1917 C1919 1.561 . S
C1917 C1920 1.526 . S
C1918 H1902 0.959 . S
C1918 H1903 0.959 . S
C1918 H1904 0.961 . S
C1918 C1917 1.502 . S
C1919 H1905 0.960 . S
C1919 H1906 0.961 . S
C1919 H1907 0.959 . S
C1919 C1917 1.561 . S
C1920 C1917 1.526 . S
C1920 C1921 1.396 1_556 S
C1920 C1925 1.390 . S
C1921 C1915 1.465 . S
C1921 C1920 1.396 1_554 S
C1921 C1922 1.399 . S
C1922 H1908 0.929 . S
C1922 C1921 1.399 . S
C1922 C1923 1.385 . S
C1923 H1909 0.931 . S
C1923 C1922 1.385 . S
C1923 C1924 1.389 1_554 S
C1924 C1923 1.389 1_556 S
C1924 C1925 1.387 . S
C1925 H1910 0.930 . S
C1925 C1920 1.390 . S
C1925 C1924 1.387 . S
H1926 C1938 0.930 . S
H1927 C1940 0.930 1_556 S
H1928 C1941 0.930 . S
H1929 C1945 0.959 . S
H1930 C1945 0.959 . S
H1931 C1945 0.961 . S
H1932 C1946 0.960 . S
H1933 C1946 0.961 . S
H1934 C1946 0.959 . S
H1935 C1949 0.929 . S
H1936 C1950 0.931 . S
H1937 C1952 0.930 . S
C1938 H1926 0.930 . S
C1938 C1939 1.399 . S
C1938 C1943 1.399 . S
C1939 C1938 1.399 . S
C1939 C1940 1.376 . S
C1940 H1927 0.930 1_554 S
C1940 C1939 1.376 . S
C1940 C1941 1.388 . S
C1941 H1928 0.930 . S
C1941 C1940 1.388 . S
C1941 C1942 1.390 . S
C1942 C1941 1.390 . S
C1942 C1943 1.394 . S
C1942 C1948 1.465 . S
C1943 C1938 1.399 . S
C1943 C1942 1.394 . S
C1943 C1944 1.516 . S
C1944 C1943 1.516 . S
C1944 C1945 1.502 . S
C1944 C1946 1.561 . S
C1944 C1947 1.526 . S
C1945 H1929 0.959 . S
C1945 H1930 0.959 . S
C1945 H1931 0.961 . S
C1945 C1944 1.502 . S
C1946 H1932 0.960 . S
C1946 H1933 0.961 . S
C1946 H1934 0.959 . S
C1946 C1944 1.561 . S
C1947 C1944 1.526 . S
C1947 C1948 1.396 . S
C1947 C1952 1.390 . S
C1948 C1942 1.465 . S
C1948 C1947 1.396 . S
C1948 C1949 1.399 . S
C1949 H1935 0.929 . S
C1949 C1948 1.399 . S
C1949 C1950 1.385 . S
C1950 H1936 0.931 . S
C1950 C1949 1.385 . S
C1950 C1951 1.389 . S
C1951 C1950 1.389 . S
C1951 C1952 1.387 . S
C1952 H1937 0.930 . S
C1952 C1947 1.390 . S
C1952 C1951 1.387 . S
H1953 C1965 0.930 . S
H1954 C1967 0.930 . S
H1955 C1968 0.930 . S
H1956 C1972 0.959 . S
H1957 C1972 0.959 . S
H1958 C1972 0.961 . S
H1959 C1973 0.960 . S
H1960 C1973 0.961 . S
H1961 C1973 0.959 . S
H1962 C1976 0.929 . S
H1963 C1977 0.931 . S
H1964 C1979 0.930 . S
C1965 H1953 0.930 . S
C1965 C1966 1.399 . S
C1965 C1970 1.399 . S
C1966 C1965 1.399 . S
C1966 C1967 1.376 . S
C1967 H1954 0.930 . S
C1967 C1966 1.376 . S
C1967 C1968 1.388 . S
C1968 H1955 0.930 . S
C1968 C1967 1.388 . S
C1968 C1969 1.390 . S
C1969 C1968 1.390 . S
C1969 C1970 1.394 . S
C1969 C1975 1.465 . S
C1970 C1965 1.399 . S
C1970 C1969 1.394 . S
C1970 C1971 1.516 . S
C1971 C1970 1.516 . S
C1971 C1972 1.502 . S
C1971 C1973 1.561 . S
C1971 C1974 1.526 . S
C1972 H1956 0.959 . S
C1972 H1957 0.959 . S
C1972 H1958 0.961 . S
C1972 C1971 1.502 . S
C1973 H1959 0.960 . S
C1973 H1960 0.961 . S
C1973 H1961 0.959 . S
C1973 C1971 1.561 . S
C1974 C1971 1.526 . S
C1974 C1975 1.396 . S
C1974 C1979 1.390 . S
C1975 C1969 1.465 . S
C1975 C1974 1.396 . S
C1975 C1976 1.399 . S
C1976 H1962 0.929 . S
C1976 C1975 1.399 . S
C1976 C1977 1.385 1_554 S
C1977 H1963 0.931 . S
C1977 C1976 1.385 1_556 S
C1977 C1978 1.389 1_556 S
C1978 C1977 1.389 1_554 S
C1978 C1979 1.387 . S
C1979 H1964 0.930 . S
C1979 C1974 1.390 . S
C1979 C1978 1.387 . S
H1980 C1992 0.930 1_556 S
H1981 C1994 0.930 . S
H1982 C1995 0.930 . S
H1983 C1999 0.959 . S
H1984 C1999 0.959 . S
H1985 C1999 0.961 . S
H1986 C2000 0.960 . S
H1987 C2000 0.961 . S
H1988 C2000 0.959 . S
H1989 C2003 0.929 . S
H1990 C2004 0.931 . S
H1991 C2006 0.930 . S
C1992 H1980 0.930 1_554 S
C1992 C1993 1.399 . S
C1992 C1997 1.399 . S
C1993 C1992 1.399 . S
C1993 C1994 1.376 . S
C1994 H1981 0.930 . S
C1994 C1993 1.376 . S
C1994 C1995 1.388 . S
C1995 H1982 0.930 . S
C1995 C1994 1.388 . S
C1995 C1996 1.390 . S
C1996 C1995 1.390 . S
C1996 C1997 1.394 . S
C1996 C2002 1.465 . S
C1997 C1992 1.399 . S
C1997 C1996 1.394 . S
C1997 C1998 1.516 . S
C1998 C1997 1.516 . S
C1998 C1999 1.502 . S
C1998 C2000 1.561 . S
C1998 C2001 1.526 . S
C1999 H1983 0.959 . S
C1999 H1984 0.959 . S
C1999 H1985 0.961 . S
C1999 C1998 1.502 . S
C2000 H1986 0.960 . S
C2000 H1987 0.961 . S
C2000 H1988 0.959 . S
C2000 C1998 1.561 . S
C2001 C1998 1.526 . S
C2001 C2002 1.396 . S
C2001 C2006 1.390 . S
C2002 C1996 1.465 . S
C2002 C2001 1.396 . S
C2002 C2003 1.399 . S
C2003 H1989 0.929 . S
C2003 C2002 1.399 . S
C2003 C2004 1.385 . S
C2004 H1990 0.931 . S
C2004 C2003 1.385 . S
C2004 C2005 1.389 . S
C2005 C2004 1.389 . S
C2005 C2006 1.387 . S
C2006 H1991 0.930 . S
C2006 C2001 1.390 . S
C2006 C2005 1.387 . S
H2007 C2019 0.930 . S
H2008 C2021 0.930 . S
H2009 C2022 0.930 . S
H2010 C2026 0.959 . S
H2011 C2026 0.959 . S
H2012 C2026 0.961 . S
H2013 C2027 0.960 . S
H2014 C2027 0.961 . S
H2015 C2027 0.959 . S
H2016 C2030 0.929 . S
H2017 C2031 0.931 . S
H2018 C2033 0.930 . S
C2019 H2007 0.930 . S
C2019 C2020 1.399 . S
C2019 C2024 1.399 . S
C2020 C2019 1.399 . S
C2020 C2021 1.376 . S
C2021 H2008 0.930 . S
C2021 C2020 1.376 . S
C2021 C2022 1.388 . S
C2022 H2009 0.930 . S
C2022 C2021 1.388 . S
C2022 C2023 1.390 . S
C2023 C2022 1.390 . S
C2023 C2024 1.394 . S
C2023 C2029 1.465 . S
C2024 C2019 1.399 . S
C2024 C2023 1.394 . S
C2024 C2025 1.516 . S
C2025 C2024 1.516 . S
C2025 C2026 1.502 . S
C2025 C2027 1.561 . S
C2025 C2028 1.526 . S
C2026 H2010 0.959 . S
C2026 H2011 0.959 . S
C2026 H2012 0.961 . S
C2026 C2025 1.502 . S
C2027 H2013 0.960 . S
C2027 H2014 0.961 . S
C2027 H2015 0.959 . S
C2027 C2025 1.561 . S
C2028 C2025 1.526 . S
C2028 C2029 1.396 . S
C2028 C2033 1.390 . S
C2029 C2023 1.465 . S
C2029 C2028 1.396 . S
C2029 C2030 1.399 . S
C2030 H2016 0.929 . S
C2030 C2029 1.399 . S
C2030 C2031 1.385 . S
C2031 H2017 0.931 . S
C2031 C2030 1.385 . S
C2031 C2032 1.389 . S
C2032 C2031 1.389 . S
C2032 C2033 1.387 . S
C2033 H2018 0.930 . S
C2033 C2028 1.390 . S
C2033 C2032 1.387 . S
H2034 C2046 0.930 . S
H2035 C2048 0.930 . S
H2036 C2049 0.930 . S
H2037 C2053 0.959 . S
H2038 C2053 0.959 . S
H2039 C2053 0.961 . S
H2040 C2054 0.960 . S
H2041 C2054 0.961 . S
H2042 C2054 0.959 . S
H2043 C2057 0.929 . S
H2044 C2058 0.931 . S
H2045 C2060 0.930 . S
C2046 H2034 0.930 . S
C2046 C2047 1.399 . S
C2046 C2051 1.399 . S
C2047 C2046 1.399 . S
C2047 C2048 1.376 . S
C2048 H2035 0.930 . S
C2048 C2047 1.376 . S
C2048 C2049 1.388 . S
C2049 H2036 0.930 . S
C2049 C2048 1.388 . S
C2049 C2050 1.390 . S
C2050 C2049 1.390 . S
C2050 C2051 1.394 . S
C2050 C2056 1.465 . S
C2051 C2046 1.399 . S
C2051 C2050 1.394 . S
C2051 C2052 1.516 . S
C2052 C2051 1.516 . S
C2052 C2053 1.502 . S
C2052 C2054 1.561 . S
C2052 C2055 1.526 . S
C2053 H2037 0.959 . S
C2053 H2038 0.959 . S
C2053 H2039 0.961 . S
C2053 C2052 1.502 . S
C2054 H2040 0.960 . S
C2054 H2041 0.961 . S
C2054 H2042 0.959 . S
C2054 C2052 1.561 . S
C2055 C2052 1.526 . S
C2055 C2056 1.396 . S
C2055 C2060 1.390 . S
C2056 C2050 1.465 . S
C2056 C2055 1.396 . S
C2056 C2057 1.399 . S
C2057 H2043 0.929 . S
C2057 C2056 1.399 . S
C2057 C2058 1.385 . S
C2058 H2044 0.931 . S
C2058 C2057 1.385 . S
C2058 C2059 1.389 . S
C2059 C2058 1.389 . S
C2059 C2060 1.387 . S
C2060 H2045 0.930 . S
C2060 C2055 1.390 . S
C2060 C2059 1.387 . S
H2061 C2073 0.930 . S
H2062 C2075 0.930 . S
H2063 C2076 0.930 . S
H2064 C2080 0.959 . S
H2065 C2080 0.959 . S
H2066 C2080 0.961 . S
H2067 C2081 0.960 . S
H2068 C2081 0.961 . S
H2069 C2081 0.959 . S
H2070 C2084 0.929 . S
H2071 C2085 0.931 . S
H2072 C2087 0.930 . S
C2073 H2061 0.930 . S
C2073 C2074 1.399 . S
C2073 C2078 1.399 . S
C2074 C2073 1.399 . S
C2074 C2075 1.376 . S
C2075 H2062 0.930 . S
C2075 C2074 1.376 . S
C2075 C2076 1.388 . S
C2076 H2063 0.930 . S
C2076 C2075 1.388 . S
C2076 C2077 1.390 . S
C2077 C2076 1.390 . S
C2077 C2078 1.394 . S
C2077 C2083 1.465 . S
C2078 C2073 1.399 . S
C2078 C2077 1.394 . S
C2078 C2079 1.516 . S
C2079 C2078 1.516 . S
C2079 C2080 1.502 . S
C2079 C2081 1.561 . S
C2079 C2082 1.526 . S
C2080 H2064 0.959 . S
C2080 H2065 0.959 . S
C2080 H2066 0.961 . S
C2080 C2079 1.502 . S
C2081 H2067 0.960 . S
C2081 H2068 0.961 . S
C2081 H2069 0.959 . S
C2081 C2079 1.561 . S
C2082 C2079 1.526 . S
C2082 C2083 1.396 . S
C2082 C2087 1.390 . S
C2083 C2077 1.465 . S
C2083 C2082 1.396 . S
C2083 C2084 1.399 . S
C2084 H2070 0.929 . S
C2084 C2083 1.399 . S
C2084 C2085 1.385 . S
C2085 H2071 0.931 . S
C2085 C2084 1.385 . S
C2085 C2086 1.389 . S
C2086 C2085 1.389 . S
C2086 C2087 1.387 . S
C2087 H2072 0.930 . S
C2087 C2082 1.390 . S
C2087 C2086 1.387 . S
H2088 C2100 0.930 . S
H2089 C2102 0.930 . S
H2090 C2103 0.930 . S
H2091 C2107 0.959 . S
H2092 C2107 0.959 . S
H2093 C2107 0.961 . S
H2094 C2108 0.960 . S
H2095 C2108 0.961 . S
H2096 C2108 0.959 . S
H2097 C2111 0.929 . S
H2098 C2112 0.931 . S
H2099 C2114 0.930 1_554 S
C2100 H2088 0.930 . S
C2100 C2101 1.399 . S
C2100 C2105 1.399 . S
C2101 C2100 1.399 . S
C2101 C2102 1.376 . S
C2102 H2089 0.930 . S
C2102 C2101 1.376 . S
C2102 C2103 1.388 . S
C2103 H2090 0.930 . S
C2103 C2102 1.388 . S
C2103 C2104 1.390 . S
C2104 C2103 1.390 . S
C2104 C2105 1.394 . S
C2104 C2110 1.465 . S
C2105 C2100 1.399 . S
C2105 C2104 1.394 . S
C2105 C2106 1.516 . S
C2106 C2105 1.516 . S
C2106 C2107 1.502 . S
C2106 C2108 1.561 . S
C2106 C2109 1.526 . S
C2107 H2091 0.959 . S
C2107 H2092 0.959 . S
C2107 H2093 0.961 . S
C2107 C2106 1.502 . S
C2108 H2094 0.960 . S
C2108 H2095 0.961 . S
C2108 H2096 0.959 . S
C2108 C2106 1.561 . S
C2109 C2106 1.526 . S
C2109 C2110 1.396 . S
C2109 C2114 1.390 . S
C2110 C2104 1.465 . S
C2110 C2109 1.396 . S
C2110 C2111 1.399 . S
C2111 H2097 0.929 . S
C2111 C2110 1.399 . S
C2111 C2112 1.385 . S
C2112 H2098 0.931 . S
C2112 C2111 1.385 . S
C2112 C2113 1.389 . S
C2113 C2112 1.389 . S
C2113 C2114 1.387 . S
C2114 H2099 0.930 1_556 S
C2114 C2109 1.390 . S
C2114 C2113 1.387 . S
H2115 C2127 0.930 . S
H2116 C2129 0.930 . S
H2117 C2130 0.930 . S
H2118 C2134 0.959 . S
H2119 C2134 0.959 . S
H2120 C2134 0.961 . S
H2121 C2135 0.960 . S
H2122 C2135 0.961 . S
H2123 C2135 0.959 . S
H2124 C2138 0.929 . S
H2125 C2139 0.931 . S
H2126 C2141 0.930 . S
C2127 H2115 0.930 . S
C2127 C2128 1.399 . S
C2127 C2132 1.399 . S
C2128 C2127 1.399 . S
C2128 C2129 1.376 . S
C2129 H2116 0.930 . S
C2129 C2128 1.376 . S
C2129 C2130 1.388 . S
C2130 H2117 0.930 . S
C2130 C2129 1.388 . S
C2130 C2131 1.390 . S
C2131 C2130 1.390 . S
C2131 C2132 1.394 . S
C2131 C2137 1.465 . S
C2132 C2127 1.399 . S
C2132 C2131 1.394 . S
C2132 C2133 1.516 . S
C2133 C2132 1.516 . S
C2133 C2134 1.502 . S
C2133 C2135 1.561 . S
C2133 C2136 1.526 . S
C2134 H2118 0.959 . S
C2134 H2119 0.959 . S
C2134 H2120 0.961 . S
C2134 C2133 1.502 . S
C2135 H2121 0.960 . S
C2135 H2122 0.961 . S
C2135 H2123 0.959 . S
C2135 C2133 1.561 . S
C2136 C2133 1.526 . S
C2136 C2137 1.396 . S
C2136 C2141 1.390 . S
C2137 C2131 1.465 . S
C2137 C2136 1.396 . S
C2137 C2138 1.399 . S
C2138 H2124 0.929 . S
C2138 C2137 1.399 . S
C2138 C2139 1.385 . S
C2139 H2125 0.931 . S
C2139 C2138 1.385 . S
C2139 C2140 1.389 . S
C2140 C2139 1.389 . S
C2140 C2141 1.387 . S
C2141 H2126 0.930 . S
C2141 C2136 1.390 . S
C2141 C2140 1.387 . S
H2142 C2154 0.930 . S
H2143 C2156 0.930 . S
H2144 C2157 0.930 . S
H2145 C2161 0.959 . S
H2146 C2161 0.959 . S
H2147 C2161 0.961 . S
H2148 C2162 0.960 . S
H2149 C2162 0.961 . S
H2150 C2162 0.959 . S
H2151 C2165 0.929 . S
H2152 C2166 0.931 . S
H2153 C2168 0.930 . S
C2154 H2142 0.930 . S
C2154 C2155 1.399 . S
C2154 C2159 1.399 . S
C2155 C2154 1.399 . S
C2155 C2156 1.376 . S
C2156 H2143 0.930 . S
C2156 C2155 1.376 . S
C2156 C2157 1.388 . S
C2157 H2144 0.930 . S
C2157 C2156 1.388 . S
C2157 C2158 1.390 . S
C2158 C2157 1.390 . S
C2158 C2159 1.394 . S
C2158 C2164 1.465 . S
C2159 C2154 1.399 . S
C2159 C2158 1.394 . S
C2159 C2160 1.516 . S
C2160 C2159 1.516 . S
C2160 C2161 1.502 . S
C2160 C2162 1.561 . S
C2160 C2163 1.526 . S
C2161 H2145 0.959 . S
C2161 H2146 0.959 . S
C2161 H2147 0.961 . S
C2161 C2160 1.502 . S
C2162 H2148 0.960 . S
C2162 H2149 0.961 . S
C2162 H2150 0.959 . S
C2162 C2160 1.561 . S
C2163 C2160 1.526 . S
C2163 C2164 1.396 . S
C2163 C2168 1.390 . S
C2164 C2158 1.465 . S
C2164 C2163 1.396 . S
C2164 C2165 1.399 . S
C2165 H2151 0.929 . S
C2165 C2164 1.399 . S
C2165 C2166 1.385 . S
C2166 H2152 0.931 . S
C2166 C2165 1.385 . S
C2166 C2167 1.389 . S
C2167 C2166 1.389 . S
C2167 C2168 1.387 . S
C2168 H2153 0.930 . S
C2168 C2163 1.390 . S
C2168 C2167 1.387 . S
H2169 C2181 0.930 . S
H2170 C2183 0.930 . S
H2171 C2184 0.930 . S
H2172 C2188 0.959 . S
H2173 C2188 0.959 . S
H2174 C2188 0.961 . S
H2175 C2189 0.960 . S
H2176 C2189 0.961 . S
H2177 C2189 0.959 . S
H2178 C2192 0.929 . S
H2179 C2193 0.931 . S
H2180 C2195 0.930 . S
C2181 H2169 0.930 . S
C2181 C2182 1.399 . S
C2181 C2186 1.399 . S
C2182 C2181 1.399 . S
C2182 C2183 1.376 . S
C2183 H2170 0.930 . S
C2183 C2182 1.376 . S
C2183 C2184 1.388 . S
C2184 H2171 0.930 . S
C2184 C2183 1.388 . S
C2184 C2185 1.390 . S
C2185 C2184 1.390 . S
C2185 C2186 1.394 . S
C2185 C2191 1.465 . S
C2186 C2181 1.399 . S
C2186 C2185 1.394 . S
C2186 C2187 1.516 . S
C2187 C2186 1.516 . S
C2187 C2188 1.502 . S
C2187 C2189 1.561 . S
C2187 C2190 1.526 . S
C2188 H2172 0.959 . S
C2188 H2173 0.959 . S
C2188 H2174 0.961 . S
C2188 C2187 1.502 . S
C2189 H2175 0.960 . S
C2189 H2176 0.961 . S
C2189 H2177 0.959 . S
C2189 C2187 1.561 . S
C2190 C2187 1.526 . S
C2190 C2191 1.396 . S
C2190 C2195 1.390 . S
C2191 C2185 1.465 . S
C2191 C2190 1.396 . S
C2191 C2192 1.399 . S
C2192 H2178 0.929 . S
C2192 C2191 1.399 . S
C2192 C2193 1.385 . S
C2193 H2179 0.931 . S
C2193 C2192 1.385 . S
C2193 C2194 1.389 . S
C2194 C2193 1.389 . S
C2194 C2195 1.387 . S
C2195 H2180 0.930 . S
C2195 C2190 1.390 . S
C2195 C2194 1.387 . S
H2196 C2208 0.930 . S
H2197 C2210 0.930 . S
H2198 C2211 0.930 . S
H2199 C2215 0.959 . S
H2200 C2215 0.959 . S
H2201 C2215 0.961 . S
H2202 C2216 0.960 . S
H2203 C2216 0.961 . S
H2204 C2216 0.959 . S
H2205 C2219 0.929 . S
H2206 C2220 0.931 . S
H2207 C2222 0.930 . S
C2208 H2196 0.930 . S
C2208 C2209 1.399 . S
C2208 C2213 1.399 . S
C2209 C2208 1.399 . S
C2209 C2210 1.376 . S
C2210 H2197 0.930 . S
C2210 C2209 1.376 . S
C2210 C2211 1.388 . S
C2211 H2198 0.930 . S
C2211 C2210 1.388 . S
C2211 C2212 1.390 . S
C2212 C2211 1.390 . S
C2212 C2213 1.394 . S
C2212 C2218 1.465 . S
C2213 C2208 1.399 . S
C2213 C2212 1.394 . S
C2213 C2214 1.516 . S
C2214 C2213 1.516 . S
C2214 C2215 1.502 . S
C2214 C2216 1.561 . S
C2214 C2217 1.526 . S
C2215 H2199 0.959 . S
C2215 H2200 0.959 . S
C2215 H2201 0.961 . S
C2215 C2214 1.502 . S
C2216 H2202 0.960 . S
C2216 H2203 0.961 . S
C2216 H2204 0.959 . S
C2216 C2214 1.561 . S
C2217 C2214 1.526 . S
C2217 C2218 1.396 . S
C2217 C2222 1.390 . S
C2218 C2212 1.465 . S
C2218 C2217 1.396 . S
C2218 C2219 1.399 . S
C2219 H2205 0.929 . S
C2219 C2218 1.399 . S
C2219 C2220 1.385 . S
C2220 H2206 0.931 . S
C2220 C2219 1.385 . S
C2220 C2221 1.389 . S
C2221 C2220 1.389 . S
C2221 C2222 1.387 . S
C2222 H2207 0.930 . S
C2222 C2217 1.390 . S
C2222 C2221 1.387 . S
H2223 C2235 0.930 . S
H2224 C2237 0.930 . S
H2225 C2238 0.930 . S
H2226 C2242 0.959 . S
H2227 C2242 0.959 . S
H2228 C2242 0.961 . S
H2229 C2243 0.960 . S
H2230 C2243 0.961 . S
H2231 C2243 0.959 . S
H2232 C2246 0.929 . S
H2233 C2247 0.931 . S
H2234 C2249 0.930 . S
C2235 H2223 0.930 . S
C2235 C2236 1.399 . S
C2235 C2240 1.399 . S
C2236 C2235 1.399 . S
C2236 C2237 1.376 . S
C2237 H2224 0.930 . S
C2237 C2236 1.376 . S
C2237 C2238 1.388 . S
C2238 H2225 0.930 . S
C2238 C2237 1.388 . S
C2238 C2239 1.390 . S
C2239 C2238 1.390 . S
C2239 C2240 1.394 . S
C2239 C2245 1.465 . S
C2240 C2235 1.399 . S
C2240 C2239 1.394 . S
C2240 C2241 1.516 . S
C2241 C2240 1.516 . S
C2241 C2242 1.502 . S
C2241 C2243 1.561 . S
C2241 C2244 1.526 . S
C2242 H2226 0.959 . S
C2242 H2227 0.959 . S
C2242 H2228 0.961 . S
C2242 C2241 1.502 . S
C2243 H2229 0.960 . S
C2243 H2230 0.961 . S
C2243 H2231 0.959 . S
C2243 C2241 1.561 . S
C2244 C2241 1.526 . S
C2244 C2245 1.396 . S
C2244 C2249 1.390 . S
C2245 C2239 1.465 . S
C2245 C2244 1.396 . S
C2245 C2246 1.399 . S
C2246 H2232 0.929 . S
C2246 C2245 1.399 . S
C2246 C2247 1.385 . S
C2247 H2233 0.931 . S
C2247 C2246 1.385 . S
C2247 C2248 1.389 . S
C2248 C2247 1.389 . S
C2248 C2249 1.387 . S
C2249 H2234 0.930 . S
C2249 C2244 1.390 . S
C2249 C2248 1.387 . S
H2250 C2262 0.930 . S
H2251 C2264 0.930 . S
H2252 C2265 0.930 . S
H2253 C2269 0.959 . S
H2254 C2269 0.959 . S
H2255 C2269 0.961 . S
H2256 C2270 0.960 . S
H2257 C2270 0.961 . S
H2258 C2270 0.959 . S
H2259 C2273 0.929 . S
H2260 C2274 0.931 . S
H2261 C2276 0.930 . S
C2262 H2250 0.930 . S
C2262 C2263 1.399 . S
C2262 C2267 1.399 . S
C2263 C2262 1.399 . S
C2263 C2264 1.376 . S
C2264 H2251 0.930 . S
C2264 C2263 1.376 . S
C2264 C2265 1.388 . S
C2265 H2252 0.930 . S
C2265 C2264 1.388 . S
C2265 C2266 1.390 . S
C2266 C2265 1.390 . S
C2266 C2267 1.394 . S
C2266 C2272 1.465 . S
C2267 C2262 1.399 . S
C2267 C2266 1.394 . S
C2267 C2268 1.516 . S
C2268 C2267 1.516 . S
C2268 C2269 1.502 . S
C2268 C2270 1.561 . S
C2268 C2271 1.526 . S
C2269 H2253 0.959 . S
C2269 H2254 0.959 . S
C2269 H2255 0.961 . S
C2269 C2268 1.502 . S
C2270 H2256 0.960 . S
C2270 H2257 0.961 . S
C2270 H2258 0.959 . S
C2270 C2268 1.561 . S
C2271 C2268 1.526 . S
C2271 C2272 1.396 . S
C2271 C2276 1.390 . S
C2272 C2266 1.465 . S
C2272 C2271 1.396 . S
C2272 C2273 1.399 . S
C2273 H2259 0.929 . S
C2273 C2272 1.399 . S
C2273 C2274 1.385 . S
C2274 H2260 0.931 . S
C2274 C2273 1.385 . S
C2274 C2275 1.389 . S
C2275 C2274 1.389 . S
C2275 C2276 1.387 . S
C2276 H2261 0.930 . S
C2276 C2271 1.390 . S
C2276 C2275 1.387 . S
H2277 C2289 0.930 . S
H2278 C2291 0.930 . S
H2279 C2292 0.930 . S
H2280 C2296 0.959 . S
H2281 C2296 0.959 . S
H2282 C2296 0.961 . S
H2283 C2297 0.960 . S
H2284 C2297 0.961 . S
H2285 C2297 0.959 . S
H2286 C2300 0.929 . S
H2287 C2301 0.931 . S
H2288 C2303 0.930 . S
C2289 H2277 0.930 . S
C2289 C2290 1.399 . S
C2289 C2294 1.399 . S
C2290 C2289 1.399 . S
C2290 C2291 1.376 . S
C2291 H2278 0.930 . S
C2291 C2290 1.376 . S
C2291 C2292 1.388 1_545 S
C2292 H2279 0.930 . S
C2292 C2291 1.388 1_565 S
C2292 C2293 1.391 . S
C2293 C2292 1.391 . S
C2293 C2294 1.380 1_565 S
C2293 C2299 1.477 . S
C2294 C2289 1.399 . S
C2294 C2293 1.380 1_545 S
C2294 C2295 1.516 . S
C2295 C2294 1.516 . S
C2295 C2296 1.502 . S
C2295 C2297 1.561 . S
C2295 C2298 1.526 1_545 S
C2296 H2280 0.959 . S
C2296 H2281 0.959 . S
C2296 H2282 0.961 . S
C2296 C2295 1.502 . S
C2297 H2283 0.960 . S
C2297 H2284 0.961 . S
C2297 H2285 0.959 . S
C2297 C2295 1.561 . S
C2298 C2295 1.526 1_565 S
C2298 C2299 1.396 . S
C2298 C2303 1.390 . S
C2299 C2293 1.477 . S
C2299 C2298 1.396 . S
C2299 C2300 1.399 . S
C2300 H2286 0.929 . S
C2300 C2299 1.399 . S
C2300 C2301 1.385 . S
C2301 H2287 0.931 . S
C2301 C2300 1.385 . S
C2301 C2302 1.389 . S
C2302 C2301 1.389 . S
C2302 C2303 1.387 . S
C2303 H2288 0.930 . S
C2303 C2298 1.390 . S
C2303 C2302 1.387 . S
H2304 C2316 0.930 . S
H2305 C2318 0.930 . S
H2306 C2319 0.930 . S
H2307 C2323 0.959 . S
H2308 C2323 0.959 . S
H2309 C2323 0.961 . S
H2310 C2324 0.960 . S
H2311 C2324 0.961 . S
H2312 C2324 0.959 . S
H2313 C2327 0.929 . S
H2314 C2328 0.931 . S
H2315 C2330 0.930 . S
C2316 H2304 0.930 . S
C2316 C2317 1.399 . S
C2316 C2321 1.399 . S
C2317 C2316 1.399 . S
C2317 C2318 1.376 . S
C2318 H2305 0.930 . S
C2318 C2317 1.376 . S
C2318 C2319 1.388 . S
C2319 H2306 0.930 . S
C2319 C2318 1.388 . S
C2319 C2320 1.390 . S
C2320 C2319 1.390 . S
C2320 C2321 1.394 . S
C2320 C2326 1.492 . S
C2321 C2316 1.399 . S
C2321 C2320 1.394 . S
C2321 C2322 1.516 1_655 S
C2322 C2321 1.516 1_455 S
C2322 C2323 1.502 . S
C2322 C2324 1.561 . S
C2322 C2325 1.526 . S
C2323 H2307 0.959 . S
C2323 H2308 0.959 . S
C2323 H2309 0.961 . S
C2323 C2322 1.502 . S
C2324 H2310 0.960 . S
C2324 H2311 0.961 . S
C2324 H2312 0.959 . S
C2324 C2322 1.561 . S
C2325 C2322 1.526 . S
C2325 C2326 1.375 1_455 S
C2325 C2330 1.390 . S
C2326 C2320 1.492 . S
C2326 C2325 1.375 1_655 S
C2326 C2327 1.393 . S
C2327 H2313 0.929 . S
C2327 C2326 1.393 . S
C2327 C2328 1.385 1_655 S
C2328 H2314 0.931 . S
C2328 C2327 1.385 1_455 S
C2328 C2329 1.389 . S
C2329 C2328 1.389 . S
C2329 C2330 1.387 . S
C2330 H2315 0.930 . S
C2330 C2325 1.390 . S
C2330 C2329 1.387 . S
H2331 C2343 0.930 . S
H2332 C2345 0.930 . S
H2333 C2346 0.930 . S
H2334 C2350 0.959 . S
H2335 C2350 0.959 . S
H2336 C2350 0.961 . S
H2337 C2351 0.960 . S
H2338 C2351 0.961 . S
H2339 C2351 0.959 . S
H2340 C2354 0.929 . S
H2341 C2355 0.931 . S
H2342 C2357 0.930 . S
C2343 H2331 0.930 . S
C2343 C2344 1.399 . S
C2343 C2348 1.399 . S
C2344 C2343 1.399 . S
C2344 C2345 1.376 . S
C2345 H2332 0.930 . S
C2345 C2344 1.376 . S
C2345 C2346 1.388 . S
C2346 H2333 0.930 . S
C2346 C2345 1.388 . S
C2346 C2347 1.390 . S
C2347 C2346 1.390 . S
C2347 C2348 1.394 . S
C2347 C2353 1.465 . S
C2348 C2343 1.399 . S
C2348 C2347 1.394 . S
C2348 C2349 1.516 . S
C2349 C2348 1.516 . S
C2349 C2350 1.502 . S
C2349 C2351 1.561 . S
C2349 C2352 1.526 . S
C2350 H2334 0.959 . S
C2350 H2335 0.959 . S
C2350 H2336 0.961 . S
C2350 C2349 1.502 . S
C2351 H2337 0.960 . S
C2351 H2338 0.961 . S
C2351 H2339 0.959 . S
C2351 C2349 1.561 . S
C2352 C2349 1.526 . S
C2352 C2353 1.396 . S
C2352 C2357 1.390 . S
C2353 C2347 1.465 . S
C2353 C2352 1.396 . S
C2353 C2354 1.399 . S
C2354 H2340 0.929 . S
C2354 C2353 1.399 . S
C2354 C2355 1.385 . S
C2355 H2341 0.931 . S
C2355 C2354 1.385 . S
C2355 C2356 1.389 . S
C2356 C2355 1.389 . S
C2356 C2357 1.387 . S
C2357 H2342 0.930 . S
C2357 C2352 1.390 . S
C2357 C2356 1.387 . S
H2358 C2370 0.930 . S
H2359 C2372 0.930 . S
H2360 C2373 0.930 . S
H2361 C2377 0.959 . S
H2362 C2377 0.959 . S
H2363 C2377 0.961 . S
H2364 C2378 0.960 . S
H2365 C2378 0.961 . S
H2366 C2378 0.959 . S
H2367 C2381 0.929 . S
H2368 C2382 0.931 . S
H2369 C2384 0.930 . S
C2370 H2358 0.930 . S
C2370 C2371 1.399 . S
C2370 C2375 1.399 . S
C2371 C2370 1.399 . S
C2371 C2372 1.376 . S
C2372 H2359 0.930 . S
C2372 C2371 1.376 . S
C2372 C2373 1.388 . S
C2373 H2360 0.930 . S
C2373 C2372 1.388 . S
C2373 C2374 1.390 . S
C2374 C2373 1.390 . S
C2374 C2375 1.394 . S
C2374 C2380 1.448 1_545 S
C2375 C2370 1.399 . S
C2375 C2374 1.394 . S
C2375 C2376 1.516 1_545 S
C2376 C2375 1.516 1_565 S
C2376 C2377 1.502 . S
C2376 C2378 1.561 . S
C2376 C2379 1.526 . S
C2377 H2361 0.959 . S
C2377 H2362 0.959 . S
C2377 H2363 0.961 . S
C2377 C2376 1.502 . S
C2378 H2364 0.960 . S
C2378 H2365 0.961 . S
C2378 H2366 0.959 . S
C2378 C2376 1.561 . S
C2379 C2376 1.526 . S
C2379 C2380 1.412 . S
C2379 C2384 1.390 . S
C2380 C2374 1.448 1_565 S
C2380 C2379 1.412 . S
C2380 C2381 1.402 1_565 S
C2381 H2367 0.929 . S
C2381 C2380 1.402 1_545 S
C2381 C2382 1.385 1_545 S
C2382 H2368 0.931 . S
C2382 C2381 1.385 1_565 S
C2382 C2383 1.389 . S
C2383 C2382 1.389 . S
C2383 C2384 1.387 . S
C2384 H2369 0.930 . S
C2384 C2379 1.390 . S
C2384 C2383 1.387 . S
H2385 C2397 0.930 . S
H2386 C2399 0.930 . S
H2387 C2400 0.930 . S
H2388 C2404 0.959 . S
H2389 C2404 0.959 . S
H2390 C2404 0.961 . S
H2391 C2405 0.960 1_455 S
H2392 C2405 0.961 . S
H2393 C2405 0.959 1_455 S
H2394 C2408 0.929 1_455 S
H2395 C2409 0.931 . S
H2396 C2411 0.930 . S
C2397 H2385 0.930 . S
C2397 C2398 1.399 . S
C2397 C2402 1.399 . S
C2398 C2397 1.399 . S
C2398 C2399 1.376 . S
C2399 H2386 0.930 . S
C2399 C2398 1.376 . S
C2399 C2400 1.388 . S
C2400 H2387 0.930 . S
C2400 C2399 1.388 . S
C2400 C2401 1.390 . S
C2401 C2400 1.390 . S
C2401 C2402 1.394 . S
C2401 C2407 1.432 1_455 S
C2402 C2397 1.399 . S
C2402 C2401 1.394 . S
C2402 C2403 1.516 1_455 S
C2403 C2402 1.516 1_655 S
C2403 C2404 1.502 . S
C2403 C2405 1.561 . S
C2403 C2406 1.526 . S
C2404 H2388 0.959 . S
C2404 H2389 0.959 . S
C2404 H2390 0.961 . S
C2404 C2403 1.502 . S
C2405 H2391 0.960 1_655 S
C2405 H2392 0.961 . S
C2405 H2393 0.959 1_655 S
C2405 C2403 1.561 . S
C2406 C2403 1.526 . S
C2406 C2407 1.455 . S
C2406 C2411 1.390 . S
C2407 C2401 1.432 1_655 S
C2407 C2406 1.455 . S
C2407 C2408 1.384 . S
C2408 H2394 0.929 1_655 S
C2408 C2407 1.384 . S
C2408 C2409 1.385 . S
C2409 H2395 0.931 . S
C2409 C2408 1.385 . S
C2409 C2410 1.389 . S
C2410 C2409 1.389 . S
C2410 C2411 1.387 . S
C2411 H2396 0.930 . S
C2411 C2406 1.390 . S
C2411 C2410 1.387 . S
C481 C70 0.497 . S
C493 C5 0.583 . S
C508 C44 0.552 . S
C520 C18 0.492 . S
C535 C31 0.710 . S
C547 C57 0.643 . S
C562 C83 0.652 . S
C574 C148 0.680 . S
C589 C96 0.673 . S
C601 C122 0.696 . S
C616 C135 0.647 . S
C628 C109 0.610 . S
C643 C161 0.500 . S
C655 C226 0.590 . S
C670 C174 0.696 . S
C682 C200 0.610 . S
C697 C213 0.587 . S
C709 C187 0.681 . S
C724 C304 0.632 . S
C736 C239 0.665 . S
C751 C278 0.693 . S
C763 C252 0.665 . S
C778 C265 0.586 . S
C790 C291 0.549 . S
C805 C382 0.671 . S
C817 C317 0.712 . S
C832 C356 0.495 . S
C844 C330 0.578 . S
C859 C343 0.498 . S
C871 C369 0.585 . S
C886 C460 0.658 . S
C898 C395 0.685 . S
C913 C434 0.595 . S
C925 C408 0.556 . S
C940 C447 0.558 . S
C952 C421 0.597 . S
C967 C216 1.292 . S
C979 C8 1.278 . S
C994 C229 1.156 . S
C1006 C21 1.277 . S
C1021 C203 1.223 . S
C1033 C34 1.164 . S
C1048 C47 1.239 . S
C1060 C346 1.311 1_554 S
C1075 C60 1.186 . S
C1087 C320 1.191 1_554 S
C1102 C73 1.314 . S
C1114 C333 1.219 1_554 S
C1129 C86 1.253 . S
C1141 C450 1.274 . S
C1156 C463 1.193 . S
C1168 C99 1.231 . S
C1183 C437 1.309 . S
C1195 C112 1.203 . S
C1210 C268 1.182 1_556 S
C1222 C125 1.243 . S
C1237 C242 1.309 1_556 S
C1249 C138 1.202 . S
C1264 C151 1.181 . S
C1276 C255 1.314 1_556 S
C1291 C164 1.162 . S
C1303 C372 1.290 . S
C1318 C385 1.183 . S
C1330 C177 1.308 . S
C1345 C359 1.215 . S
C1357 C190 1.315 . S
C1372 C281 1.156 . S
C1384 C424 1.286 . S
C1399 C398 1.251 . S
C1411 C294 1.275 . S
C1426 C307 1.232 . S
C1438 C411 1.192 . S
C1453 C234 1.216 . S
C1465 C0 1.245 . S
C1480 C247 1.262 . S
C1492 C13 1.194 . S
C1507 C26 1.194 . S
C1519 C260 1.259 . S
C1534 C39 1.223 . S
C1546 C429 1.219 . S
C1561 C442 1.219 . S
C1573 C52 1.228 . S
C1588 C455 1.244 . S
C1600 C65 1.222 . S
C1615 C78 1.216 . S
C1627 C312 1.226 . S
C1642 C91 1.219 . S
C1654 C325 1.227 . S
C1669 C338 1.201 . S
C1681 C104 1.248 . S
C1696 C117 1.205 . S
C1708 C195 1.254 . S
C1723 C130 1.243 . S
C1735 C208 1.226 . S
C1750 C221 1.201 . S
C1762 C143 1.246 . S
C1777 C156 1.261 . S
C1789 C390 1.195 . S
C1804 C169 1.259 . S
C1816 C403 1.194 . S
C1831 C416 1.208 . S
C1843 C182 1.256 . S
C1858 C351 1.224 . S
C1870 C273 1.218 . S
C1885 C286 1.241 . S
C1897 C364 1.226 . S
C1912 C299 1.221 . S
C1924 C377 1.224 . S
C1939 C361 1.659 1_554 S
C1951 C10 1.659 . S
C1966 C23 1.620 . S
C1978 C374 1.627 1_554 S
C1993 C387 1.618 1_554 S
C2005 C36 1.623 . S
C2020 C49 1.625 . S
C2032 C166 1.619 . S
C2047 C179 1.654 . S
C2059 C62 1.647 . S
C2074 C192 1.660 . S
C2086 C75 1.658 . S
C2101 C88 1.635 . S
C2113 C283 1.640 1_556 S
C2128 C296 1.623 1_556 S
C2140 C101 1.621 . S
C2155 C114 1.658 . S
C2167 C309 1.659 1_556 S
C2182 C127 1.648 . S
C2194 C400 1.652 . S
C2209 C140 1.622 . S
C2221 C413 1.625 . S
C2236 C426 1.624 . S
C2248 C153 1.628 . S
C2263 C205 1.658 . S
C2275 C322 1.659 . S
C2290 C218 1.653 . S
C2302 C335 1.645 . S
C2317 C231 1.640 . S
C2329 C348 1.649 . S
C2344 C244 1.629 . S
C2356 C439 1.626 . S
C2371 C257 1.655 . S
C2383 C452 1.652 . S
C2398 C465 1.627 . S
C2410 C270 1.624 . S
