# Generated by pormake.
# Topology fnl, (5)-cn, num edge types: 1
# Building blocks:
#     Node 0, Type 0, BuildingBlock: BEQFEK_clean_sbu_0, # of connection points: 5
#     Node 1, Type 0, BuildingBlock: BEQFEK_clean_sbu_0, # of connection points: 5
#     Node 2, Type 0, BuildingBlock: BEQFEK_clean_sbu_0, # of connection points: 5
#     Node 3, Type 0, BuildingBlock: BEQFEK_clean_sbu_0, # of connection points: 5
#     Node 4, Type 0, BuildingBlock: BEQFEK_clean_sbu_0, # of connection points: 5
#     Node 5, Type 0, BuildingBlock: BEQFEK_clean_sbu_0, # of connection points: 5
#     Node 6, Type 0, BuildingBlock: BEQFEK_clean_sbu_0, # of connection points: 5
#     Node 7, Type 0, BuildingBlock: BEQFEK_clean_sbu_0, # of connection points: 5
#     Node 8, Type 0, BuildingBlock: BEQFEK_clean_sbu_0, # of connection points: 5
#     Node 9, Type 0, BuildingBlock: BEQFEK_clean_sbu_0, # of connection points: 5
#     Node 10, Type 0, BuildingBlock: BEQFEK_clean_sbu_0, # of connection points: 5
#     Node 11, Type 0, BuildingBlock: BEQFEK_clean_sbu_0, # of connection points: 5
#     Node 12, Type 0, BuildingBlock: BEQFEK_clean_sbu_0, # of connection points: 5
#     Node 13, Type 0, BuildingBlock: BEQFEK_clean_sbu_0, # of connection points: 5
#     Node 14, Type 0, BuildingBlock: BEQFEK_clean_sbu_0, # of connection points: 5
#     Node 15, Type 0, BuildingBlock: BEQFEK_clean_sbu_0, # of connection points: 5
#     Edge 16, Type (0, 0), BuildingBlock: UVAHIK_clean_linker_0, # of connection points: 2
#     Edge 17, Type (0, 0), BuildingBlock: UVAHIK_clean_linker_0, # of connection points: 2
#     Edge 18, Type (0, 0), BuildingBlock: UVAHIK_clean_linker_0, # of connection points: 2
#     Edge 19, Type (0, 0), BuildingBlock: UVAHIK_clean_linker_0, # of connection points: 2
#     Edge 20, Type (0, 0), BuildingBlock: UVAHIK_clean_linker_0, # of connection points: 2
#     Edge 21, Type (0, 0), BuildingBlock: UVAHIK_clean_linker_0, # of connection points: 2
#     Edge 22, Type (0, 0), BuildingBlock: UVAHIK_clean_linker_0, # of connection points: 2
#     Edge 23, Type (0, 0), BuildingBlock: UVAHIK_clean_linker_0, # of connection points: 2
#     Edge 24, Type (0, 0), BuildingBlock: UVAHIK_clean_linker_0, # of connection points: 2
#     Edge 25, Type (0, 0), BuildingBlock: UVAHIK_clean_linker_0, # of connection points: 2
#     Edge 26, Type (0, 0), BuildingBlock: UVAHIK_clean_linker_0, # of connection points: 2
#     Edge 27, Type (0, 0), BuildingBlock: UVAHIK_clean_linker_0, # of connection points: 2
#     Edge 28, Type (0, 0), BuildingBlock: UVAHIK_clean_linker_0, # of connection points: 2
#     Edge 29, Type (0, 0), BuildingBlock: UVAHIK_clean_linker_0, # of connection points: 2
#     Edge 30, Type (0, 0), BuildingBlock: UVAHIK_clean_linker_0, # of connection points: 2
#     Edge 31, Type (0, 0), BuildingBlock: UVAHIK_clean_linker_0, # of connection points: 2
#     Edge 32, Type (0, 0), BuildingBlock: UVAHIK_clean_linker_0, # of connection points: 2
#     Edge 33, Type (0, 0), BuildingBlock: UVAHIK_clean_linker_0, # of connection points: 2
#     Edge 34, Type (0, 0), BuildingBlock: UVAHIK_clean_linker_0, # of connection points: 2
#     Edge 35, Type (0, 0), BuildingBlock: UVAHIK_clean_linker_0, # of connection points: 2
#     Edge 36, Type (0, 0), BuildingBlock: UVAHIK_clean_linker_0, # of connection points: 2
#     Edge 37, Type (0, 0), BuildingBlock: UVAHIK_clean_linker_0, # of connection points: 2
#     Edge 38, Type (0, 0), BuildingBlock: UVAHIK_clean_linker_0, # of connection points: 2
#     Edge 39, Type (0, 0), BuildingBlock: UVAHIK_clean_linker_0, # of connection points: 2
#     Edge 40, Type (0, 0), BuildingBlock: UVAHIK_clean_linker_0, # of connection points: 2
#     Edge 41, Type (0, 0), BuildingBlock: UVAHIK_clean_linker_0, # of connection points: 2
#     Edge 42, Type (0, 0), BuildingBlock: UVAHIK_clean_linker_0, # of connection points: 2
#     Edge 43, Type (0, 0), BuildingBlock: UVAHIK_clean_linker_0, # of connection points: 2
#     Edge 44, Type (0, 0), BuildingBlock: UVAHIK_clean_linker_0, # of connection points: 2
#     Edge 45, Type (0, 0), BuildingBlock: UVAHIK_clean_linker_0, # of connection points: 2
#     Edge 46, Type (0, 0), BuildingBlock: UVAHIK_clean_linker_0, # of connection points: 2
#     Edge 47, Type (0, 0), BuildingBlock: UVAHIK_clean_linker_0, # of connection points: 2
#     Edge 48, Type (0, 0), BuildingBlock: UVAHIK_clean_linker_0, # of connection points: 2
#     Edge 49, Type (0, 0), BuildingBlock: UVAHIK_clean_linker_0, # of connection points: 2
#     Edge 50, Type (0, 0), BuildingBlock: UVAHIK_clean_linker_0, # of connection points: 2
#     Edge 51, Type (0, 0), BuildingBlock: UVAHIK_clean_linker_0, # of connection points: 2
#     Edge 52, Type (0, 0), BuildingBlock: UVAHIK_clean_linker_0, # of connection points: 2
#     Edge 53, Type (0, 0), BuildingBlock: UVAHIK_clean_linker_0, # of connection points: 2
#     Edge 54, Type (0, 0), BuildingBlock: UVAHIK_clean_linker_0, # of connection points: 2
#     Edge 55, Type (0, 0), BuildingBlock: UVAHIK_clean_linker_0, # of connection points: 2
# Relax obj value: 0.379
# Max RMSD: 0.224
# Mean RMSD: 0.224
data_MOF--net-fnl--node1-BEQFEK_clean_sbu_0--edge1-UVAHIK_clean_linker_0
_symmetry_space_group_name_H-M    P1
_symmetry_Int_Tables_number       1
_symmetry_cell_setting            triclinic
loop_
_symmetry_equiv_pos_as_xyz
'x, y, z'
_cell_length_a     43.915018
_cell_length_b     43.969155
_cell_length_c     130.76164
_cell_angle_alpha  89.930059
_cell_angle_beta   90.016708
_cell_angle_gamma 89.975632
loop_
_atom_site_label
_atom_site_type_symbol
_atom_site_fract_x
_atom_site_fract_y
_atom_site_fract_z
_atom_type_partial_charge
Co0 Co 0.9485 0.0908 0.0752 0.0
Co1 Co 0.97857 0.15089 0.08284 0.0
C2 C 0.91495 0.13291 0.08897 0.0
O3 O 0.91583 0.10921 0.0834 0.0
O4 O 0.93756 0.15106 0.08957 0.0
C5 C 0.92256 0.03161 0.07229 0.0
O6 O 0.91824 0.03223 0.08224 0.0
C7 C 0.9901 0.2165 0.08511 0.0
C8 C 0.03656 0.21608 0.09164 0.0
C9 C 0.0131 0.2352 0.08872 0.0
N10 N -0.00036 0.18755 0.08582 0.0
N11 N 0.02746 0.18748 0.08968 0.0
C12 C 0.95882 0.22572 0.0818 0.0
H13 H 0.94438 0.20545 0.08039 0.0
H14 H 0.96021 0.23929 0.07466 0.0
H15 H 0.94827 0.24031 0.08775 0.0
C16 C 0.96692 0.11542 0.05531 0.0
N17 N 0.9642 0.11826 0.0655 0.0
N18 N 0.97696 0.14382 0.06846 0.0
C19 C 0.98848 0.15809 0.06015 0.0
C20 C 0.98211 0.14064 0.05153 0.0
C21 C 0.95836 0.08727 0.04955 0.0
H22 H 0.96953 0.06737 0.05318 0.0
H23 H 0.93334 0.084 0.04997 0.0
H24 H 0.96546 0.08809 0.04143 0.0
O25 O 0.98113 0.0757 0.08443 0.0
O26 O 0.00256 0.11866 0.08956 0.0
H27 H 0.02454 0.18552 0.06614 0.0
H28 H 0.01509 0.19359 0.05291 0.0
C29 C 0.00574 0.18737 0.0605 0.0
H30 H 0.99028 0.20574 0.06307 0.0
H31 H 0.04012 0.16785 0.09113 0.0
O32 O 0.93312 0.05502 0.06788 0.0
C33 C 0.00107 0.08979 0.08967 0.0
Co34 Co 0.30929 0.86376 0.32307 0.0
Co35 Co 0.25012 0.88525 0.33411 0.0
C36 C 0.28152 0.82501 0.33892 0.0
O37 O 0.3016 0.82856 0.33199 0.0
O38 O 0.2609 0.84498 0.34049 0.0
C39 C 0.37014 0.84833 0.31683 0.0
O40 O 0.37349 0.83867 0.32628 0.0
C41 C 0.18438 0.88376 0.33791 0.0
C42 C 0.17678 0.92849 0.34517 0.0
C43 C 0.16174 0.90265 0.3418 0.0
N44 N 0.21125 0.8981 0.33881 0.0
N45 N 0.2066 0.9247 0.34322 0.0
C46 C 0.18121 0.8523 0.33369 0.0
H47 H 0.17573 0.85366 0.32542 0.0
H48 H 0.1627 0.83981 0.33766 0.0
H49 H 0.20294 0.83966 0.33449 0.0
C50 C 0.27313 0.87835 0.30495 0.0
N51 N 0.27509 0.87381 0.31509 0.0
N52 N 0.25069 0.88493 0.31955 0.0
C53 C 0.23293 0.89806 0.31234 0.0
C54 C 0.24659 0.89407 0.30285 0.0
C55 C 0.29809 0.87144 0.29752 0.0
H56 H 0.31641 0.88858 0.29841 0.0
H57 H 0.30762 0.84856 0.2991 0.0
H58 H 0.28969 0.87223 0.28951 0.0
O59 O 0.32191 0.89904 0.33161 0.0
O60 O 0.27967 0.91527 0.3391 0.0
H61 H 0.21145 0.93307 0.32116 0.0
H62 H 0.19962 0.93187 0.30788 0.0
C63 C 0.20613 0.91795 0.31462 0.0
H64 H 0.18648 0.9035 0.31678 0.0
H65 H 0.22372 0.94052 0.34475 0.0
O66 O 0.34413 0.85728 0.31389 0.0
C67 C 0.30812 0.91756 0.33749 0.0
Co68 Co 0.53978 0.21907 0.56748 0.0
Co69 Co 0.52234 0.15803 0.57822 0.0
C70 C 0.58279 0.19021 0.5819 0.0
O71 O 0.57659 0.21157 0.57564 0.0
O72 O 0.56419 0.16834 0.58343 0.0
C73 C 0.55246 0.28082 0.56199 0.0
O74 O 0.56434 0.28249 0.5712 0.0
C75 C 0.52518 0.09175 0.58122 0.0
C76 C 0.4868 0.08443 0.59188 0.0
C77 C 0.50983 0.06948 0.5867 0.0
N78 N 0.51166 0.11863 0.58306 0.0
N79 N 0.48873 0.11407 0.58942 0.0
C80 C 0.55357 0.08808 0.57503 0.0
H81 H 0.5636 0.11059 0.57318 0.0
H82 H 0.54823 0.07608 0.5678 0.0
H83 H 0.57029 0.07399 0.5793 0.0
C84 C 0.52353 0.1845 0.54927 0.0
N85 N 0.52906 0.18553 0.55936 0.0
N86 N 0.51941 0.16026 0.56367 0.0
C87 C 0.50639 0.14269 0.5564 0.0
C88 C 0.50877 0.15757 0.54705 0.0
C89 C 0.53007 0.20998 0.54199 0.0
H90 H 0.51273 0.22807 0.54302 0.0
H91 H 0.55286 0.21969 0.54362 0.0
H92 H 0.52939 0.2021 0.53393 0.0
O93 O 0.50602 0.22963 0.57679 0.0
O94 O 0.493 0.18669 0.5845 0.0
H95 H 0.47704 0.11611 0.56604 0.0
H96 H 0.47124 0.11047 0.55244 0.0
C97 C 0.48848 0.11445 0.5585 0.0
H98 H 0.50414 0.09469 0.55865 0.0
H99 H 0.47453 0.13125 0.59216 0.0
O100 O 0.54335 0.25528 0.55871 0.0
C101 C 0.48942 0.2151 0.58309 0.0
Co102 Co 0.18742 0.44465 0.8206 0.0
Co103 Co 0.25054 0.43554 0.83118 0.0
C104 C 0.21295 0.492 0.83454 0.0
O105 O 0.19173 0.48225 0.82874 0.0
O106 O 0.23729 0.47666 0.83595 0.0
C107 C 0.12659 0.46026 0.81304 0.0
O108 O 0.12384 0.4784 0.82097 0.0
C109 C 0.31648 0.44234 0.83481 0.0
C110 C 0.32544 0.4023 0.84461 0.0
C111 C 0.3393 0.42701 0.84002 0.0
N112 N 0.29025 0.42717 0.83622 0.0
N113 N 0.29577 0.40337 0.84212 0.0
C114 C 0.31902 0.47192 0.82922 0.0
H115 H 0.29719 0.47768 0.8254 0.0
H116 H 0.33757 0.47087 0.82349 0.0
H117 H 0.32496 0.49013 0.83475 0.0
C118 C 0.22395 0.43402 0.80224 0.0
N119 N 0.22195 0.43739 0.81243 0.0
N120 N 0.24859 0.43177 0.81663 0.0
C121 C 0.26833 0.42374 0.80915 0.0
C122 C 0.25336 0.42545 0.79981 0.0
C123 C 0.19731 0.43615 0.79512 0.0
H124 H 0.18067 0.41818 0.79715 0.0
H125 H 0.18608 0.45859 0.79604 0.0
H126 H 0.20387 0.43305 0.78701 0.0
O127 O 0.17985 0.40991 0.82984 0.0
O128 O 0.2241 0.4049 0.8378 0.0
H129 H 0.30227 0.40077 0.81813 0.0
H130 H 0.30868 0.39943 0.80445 0.0
C131 C 0.30046 0.41371 0.81087 0.0
H132 H 0.31531 0.43402 0.81134 0.0
H133 H 0.27929 0.3877 0.84442 0.0
O134 O 0.15133 0.44594 0.81168 0.0
C135 C 0.19662 0.39684 0.83644 0.0
Co136 Co -0.00191 0.21889 0.9261 0.0
Co137 Co -0.00044 0.15716 0.9145 0.0
C138 C 0.94363 0.19687 0.91463 0.0
O139 O 0.95656 0.21721 0.92006 0.0
O140 O 0.95745 0.17243 0.91216 0.0
C141 C 0.9841 0.27046 0.93986 0.0
O142 O 0.95484 0.26679 0.93817 0.0
C143 C 0.98601 0.09311 0.91059 0.0
C144 C 0.02286 0.08077 0.89985 0.0
C145 C -0.00195 0.06913 0.90505 0.0
N146 N 0.00314 0.11781 0.9088 0.0
N147 N 0.02492 0.1104 0.90229 0.0
C148 C 0.95781 0.09319 0.91702 0.0
H149 H 0.95635 0.11441 0.92158 0.0
H150 H 0.95721 0.07316 0.92216 0.0
H151 H 0.93764 0.09178 0.91192 0.0
C152 C 0.01426 0.17943 0.9434 0.0
N153 N 0.00783 0.18324 0.93343 0.0
N154 N 0.00966 0.15687 0.92871 0.0
C155 C 0.01772 0.1354 0.93564 0.0
C156 C 0.02097 0.14918 0.94512 0.0
C157 C 0.01225 0.20402 0.95127 0.0
H158 H 0.0304 0.22097 0.94982 0.0
H159 H 0.98985 0.21551 0.95066 0.0
H160 H 0.01492 0.19509 0.95916 0.0
O161 O 0.02808 0.22629 0.91516 0.0
O162 O 0.02805 0.18291 0.90657 0.0
H163 H 0.03759 0.09186 0.9392 0.0
H164 H 0.00043 0.09055 0.9335 0.0
C165 C 0.02265 0.10248 0.93335 0.0
H166 H 0.03305 0.09974 0.92569 0.0
H167 H 0.04155 0.12543 0.89966 0.0
O168 O 0.00332 0.2535 0.9354 0.0
C169 C 0.03747 0.20999 0.90779 0.0
Co170 Co 0.18924 0.88263 0.17965 0.0
Co171 Co 0.24808 0.90255 0.1681 0.0
C172 C 0.2232 0.8385 0.16679 0.0
O173 O 0.20117 0.84469 0.17277 0.0
O174 O 0.24315 0.8585 0.16451 0.0
C175 C 0.13844 0.85265 0.19046 0.0
O176 O 0.14222 0.82854 0.18468 0.0
C177 C 0.31364 0.90627 0.16442 0.0
C178 C 0.31661 0.94565 0.15393 0.0
C179 C 0.33401 0.92419 0.15902 0.0
N180 N 0.28545 0.91691 0.1627 0.0
N181 N 0.28735 0.94037 0.1564 0.0
C182 C 0.32047 0.87829 0.17055 0.0
H183 H 0.29927 0.86559 0.17228 0.0
H184 H 0.33146 0.88464 0.17787 0.0
H185 H 0.3366 0.86354 0.1663 0.0
C186 C 0.22331 0.90678 0.19711 0.0
N187 N 0.2217 0.8996 0.18715 0.0
N188 N 0.24612 0.90981 0.18244 0.0
C189 C 0.26365 0.92477 0.18932 0.0
C190 C 0.24962 0.92316 0.19881 0.0
C191 C 0.19957 0.89893 0.20488 0.0
H192 H 0.17973 0.91415 0.20374 0.0
H193 H 0.19223 0.87501 0.20386 0.0
H194 H 0.20813 0.90184 0.2128 0.0
O195 O 0.17379 0.91157 0.16919 0.0
O196 O 0.21571 0.92535 0.16096 0.0
H197 H 0.28932 0.95316 0.17909 0.0
H198 H 0.29568 0.96066 0.19255 0.0
C199 C 0.29158 0.94266 0.18676 0.0
H200 H 0.31155 0.92727 0.18674 0.0
H201 H 0.26866 0.95288 0.15382 0.0
O202 O 0.15523 0.87583 0.18918 0.0
C203 C 0.187 0.92668 0.16216 0.0
Co204 Co 0.53703 0.08918 0.422 0.0
Co205 Co 0.52509 0.15195 0.4117 0.0
C206 C 0.58697 0.12127 0.41128 0.0
O207 O 0.57756 0.09864 0.41649 0.0
O208 O 0.56926 0.14331 0.40901 0.0
C209 C 0.55668 0.03859 0.43573 0.0
O210 O 0.58445 0.04954 0.43634 0.0
C211 C 0.52842 0.21831 0.40967 0.0
C212 C 0.49223 0.22704 0.39827 0.0
C213 C 0.51384 0.24127 0.4043 0.0
N214 N 0.51576 0.19169 0.407 0.0
N215 N 0.49423 0.19704 0.40016 0.0
C216 C 0.55529 0.22125 0.41664 0.0
H217 H 0.56392 0.1985 0.41892 0.0
H218 H 0.54887 0.23405 0.42361 0.0
H219 H 0.57355 0.23428 0.41274 0.0
C220 C 0.51213 0.1211 0.43984 0.0
N221 N 0.52132 0.12109 0.43003 0.0
N222 N 0.5147 0.14745 0.42581 0.0
C223 C 0.50039 0.16493 0.43285 0.0
C224 C 0.49834 0.14864 0.44192 0.0
C225 C 0.51709 0.09536 0.44716 0.0
H226 H 0.54136 0.08853 0.44695 0.0
H227 H 0.51127 0.10167 0.45513 0.0
H228 H 0.5029 0.07569 0.44483 0.0
O229 O 0.50895 0.0798 0.41067 0.0
O230 O 0.50005 0.12418 0.40324 0.0
H231 H 0.47767 0.19651 0.42288 0.0
H232 H 0.46821 0.20052 0.4363 0.0
C233 C 0.48674 0.19548 0.43079 0.0
H234 H 0.50455 0.21312 0.43167 0.0
H235 H 0.4808 0.18022 0.39681 0.0
O236 O 0.5369 0.05186 0.43023 0.0
C237 C 0.49592 0.09562 0.4038 0.0
Co238 Co 0.32214 0.43804 0.67119 0.0
Co239 Co 0.25831 0.4195 0.6627 0.0
C240 C 0.28126 0.48338 0.66096 0.0
O241 O 0.30528 0.47659 0.66591 0.0
O242 O 0.26109 0.46343 0.65896 0.0
C243 C 0.36517 0.46566 0.68552 0.0
O244 O 0.34203 0.48012 0.68961 0.0
C245 C 0.19152 0.41715 0.66117 0.0
C246 C 0.18485 0.37497 0.65226 0.0
C247 C 0.16939 0.39862 0.65691 0.0
N248 N 0.2189 0.40486 0.65919 0.0
N249 N 0.21475 0.37966 0.65386 0.0
C250 C 0.18695 0.44713 0.66635 0.0
H251 H 0.20884 0.45598 0.66936 0.0
H252 H 0.17047 0.44483 0.67272 0.0
H253 H 0.17728 0.4636 0.66079 0.0
C254 C 0.29773 0.40774 0.68978 0.0
N255 N 0.29482 0.41772 0.68008 0.0
N256 N 0.26703 0.41187 0.67683 0.0
C257 C 0.2511 0.39916 0.68458 0.0
C258 C 0.27012 0.39609 0.69299 0.0
C259 C 0.32626 0.4096 0.696 0.0
H260 H 0.34652 0.40743 0.69102 0.0
H261 H 0.32674 0.43168 0.70006 0.0
H262 H 0.32714 0.39136 0.70184 0.0
O263 O 0.33253 0.41092 0.65974 0.0
O264 O 0.28734 0.39641 0.65396 0.0
H265 H 0.21483 0.37549 0.67709 0.0
H266 H 0.21171 0.37637 0.69087 0.0
C267 C 0.21849 0.38958 0.684 0.0
H268 H 0.20389 0.41006 0.68345 0.0
H269 H 0.23235 0.36571 0.65127 0.0
O270 O 0.36094 0.44767 0.67805 0.0
C271 C 0.31631 0.39547 0.65359 0.0
Co272 Co 0.69634 0.36189 0.67832 0.0
Co273 Co 0.7552 0.38359 0.66711 0.0
C274 C 0.72558 0.3223 0.66293 0.0
O275 O 0.70471 0.32671 0.66952 0.0
O276 O 0.74645 0.34203 0.66141 0.0
C277 C 0.63701 0.34164 0.6851 0.0
O278 O 0.63462 0.32903 0.67604 0.0
C279 C 0.82126 0.38499 0.66378 0.0
C280 C 0.82615 0.42515 0.65372 0.0
C281 C 0.84257 0.40255 0.65863 0.0
N282 N 0.79355 0.39691 0.66207 0.0
N283 N 0.79662 0.42084 0.65603 0.0
C284 C 0.8267 0.35622 0.66962 0.0
H285 H 0.80509 0.34346 0.67062 0.0
H286 H 0.83597 0.36164 0.67729 0.0
H287 H 0.84371 0.34191 0.66559 0.0
C288 C 0.73228 0.37777 0.69632 0.0
N289 N 0.73035 0.37324 0.68619 0.0
N290 N 0.75447 0.38488 0.68169 0.0
C291 C 0.77198 0.39841 0.68888 0.0
C292 C 0.75849 0.39401 0.69838 0.0
C293 C 0.70794 0.36941 0.70382 0.0
H294 H 0.68884 0.38579 0.70311 0.0
H295 H 0.69931 0.34624 0.70214 0.0
H296 H 0.7166 0.37004 0.71179 0.0
O297 O 0.68279 0.3963 0.66962 0.0
O298 O 0.72439 0.41192 0.66158 0.0
H299 H 0.79508 0.43035 0.67913 0.0
H300 H 0.80085 0.43645 0.6927 0.0
C301 C 0.79826 0.419 0.68663 0.0
H302 H 0.8195 0.40543 0.68639 0.0
H303 H 0.77854 0.43431 0.6535 0.0
O304 O 0.66174 0.35459 0.68756 0.0
C305 C 0.69599 0.41411 0.66335 0.0
Co306 Co 0.80991 0.92733 0.17554 0.0
Co307 Co 0.74856 0.91241 0.16483 0.0
C308 C 0.7796 0.97433 0.16319 0.0
O309 O 0.80132 0.96713 0.16919 0.0
O310 O 0.75861 0.95535 0.161 0.0
C311 C 0.85985 0.94771 0.1895 0.0
O312 O 0.84919 0.9756 0.1899 0.0
C313 C 0.68288 0.91873 0.16203 0.0
C314 C 0.67262 0.88028 0.1517 0.0
C315 C 0.65939 0.90431 0.15689 0.0
N316 N 0.70881 0.9037 0.16004 0.0
N317 N 0.70258 0.8808 0.15384 0.0
C318 C 0.6812 0.94749 0.16812 0.0
H319 H 0.70433 0.95636 0.16975 0.0
H320 H 0.66951 0.94321 0.17548 0.0
H321 H 0.66773 0.96478 0.16388 0.0
C322 C 0.77576 0.90663 0.19363 0.0
N323 N 0.77721 0.9131 0.18359 0.0
N324 N 0.75132 0.90561 0.17921 0.0
C325 C 0.73263 0.89369 0.18639 0.0
C326 C 0.74764 0.894 0.19573 0.0
C327 C 0.80059 0.91325 0.20116 0.0
H328 H 0.82062 0.89877 0.19943 0.0
H329 H 0.80737 0.93742 0.20044 0.0
H330 H 0.79332 0.909 0.20915 0.0
O331 O 0.82013 0.89765 0.16474 0.0
O332 O 0.77657 0.885 0.15737 0.0
H333 H 0.70145 0.86946 0.17671 0.0
H334 H 0.69582 0.86341 0.19029 0.0
C335 C 0.7019 0.88038 0.18434 0.0
H336 H 0.68464 0.89874 0.18452 0.0
H337 H 0.71878 0.86552 0.15108 0.0
O338 O 0.84662 0.92785 0.18404 0.0
C339 C 0.8053 0.88231 0.15817 0.0
Co340 Co 0.81516 0.36822 0.82702 0.0
Co341 Co 0.75228 0.39101 0.8352 0.0
C342 C 0.77642 0.32954 0.84076 0.0
O343 O 0.7998 0.33403 0.83522 0.0
O344 O 0.75545 0.3495 0.84142 0.0
C345 C 0.85713 0.33326 0.81401 0.0
O346 O 0.83403 0.3167 0.81092 0.0
C347 C 0.68566 0.39712 0.83711 0.0
C348 C 0.68208 0.44187 0.84472 0.0
C349 C 0.66495 0.41802 0.84093 0.0
N350 N 0.71383 0.40829 0.83851 0.0
N351 N 0.7115 0.43502 0.84306 0.0
C352 C 0.67903 0.36622 0.83288 0.0
H353 H 0.70044 0.35342 0.83154 0.0
H354 H 0.66655 0.36834 0.82554 0.0
H355 H 0.6642 0.35352 0.83827 0.0
C356 C 0.78922 0.39027 0.8075 0.0
N357 N 0.78643 0.38328 0.81748 0.0
N358 N 0.75952 0.39226 0.82076 0.0
C359 C 0.74419 0.40487 0.81284 0.0
C360 C 0.76255 0.4039 0.80422 0.0
C361 C 0.81738 0.38517 0.80128 0.0
H362 H 0.83785 0.39072 0.80586 0.0
H363 H 0.81823 0.36096 0.799 0.0
H364 H 0.81764 0.39894 0.79419 0.0
O365 O 0.82713 0.40124 0.83638 0.0
O366 O 0.78246 0.4171 0.84221 0.0
H367 H 0.71432 0.43641 0.82026 0.0
H368 H 0.70841 0.43326 0.80661 0.0
C369 C 0.71404 0.4205 0.8137 0.0
H370 H 0.6961 0.40328 0.81505 0.0
H371 H 0.73003 0.4486 0.84507 0.0
O372 O 0.85305 0.35481 0.82033 0.0
C373 C 0.81137 0.41883 0.842 0.0
Co374 Co 0.68181 0.94463 0.32829 0.0
Co375 Co 0.74763 0.92223 0.33333 0.0
C376 C 0.72821 0.98474 0.33878 0.0
O377 O 0.70227 0.97944 0.33481 0.0
O378 O 0.74906 0.96454 0.33885 0.0
C379 C 0.63773 0.97855 0.31614 0.0
O380 O 0.6611 0.99152 0.31164 0.0
C381 C 0.81419 0.91513 0.33529 0.0
C382 C 0.81862 0.86509 0.33443 0.0
C383 C 0.83531 0.89162 0.33545 0.0
N384 N 0.7863 0.90294 0.33428 0.0
N385 N 0.78911 0.87305 0.33381 0.0
C386 C 0.82033 0.9486 0.33527 0.0
H387 H 0.80346 0.96046 0.33036 0.0
H388 H 0.84365 0.95358 0.33247 0.0
H389 H 0.81799 0.95741 0.34318 0.0
C390 C 0.69867 0.92149 0.30783 0.0
N391 N 0.7053 0.92781 0.31764 0.0
N392 N 0.73396 0.92096 0.31944 0.0
C393 C 0.74692 0.91156 0.31061 0.0
C394 C 0.72491 0.91176 0.30295 0.0
C395 C 0.66714 0.92084 0.3035 0.0
H396 H 0.65007 0.91752 0.30964 0.0
H397 H 0.66263 0.94252 0.29947 0.0
H398 H 0.66484 0.90217 0.29784 0.0
O399 O 0.67361 0.91356 0.33867 0.0
O400 O 0.72025 0.89766 0.34238 0.0
H401 H 0.78347 0.87988 0.31212 0.0
H402 H 0.78727 0.9054 0.30139 0.0
C403 C 0.77985 0.90359 0.30947 0.0
H404 H 0.79395 0.91892 0.31425 0.0
H405 H 0.77084 0.8581 0.33296 0.0
O406 O 0.64212 0.959 0.32316 0.0
C407 C 0.69153 0.89654 0.34373 0.0
Co408 Co 0.46147 0.59451 0.5808 0.0
Co409 Co 0.48938 0.65626 0.58805 0.0
C410 C 0.42405 0.63958 0.59226 0.0
O411 O 0.42672 0.61482 0.58733 0.0
O412 O 0.44645 0.65781 0.5932 0.0
C413 C 0.4252 0.5524 0.56835 0.0
O414 O 0.40962 0.57585 0.56498 0.0
C415 C 0.49858 0.7225 0.5881 0.0
C416 C 0.54137 0.72664 0.5969 0.0
C417 C 0.51925 0.74347 0.59191 0.0
N418 N 0.50823 0.69449 0.59065 0.0
N419 N 0.53385 0.69713 0.59589 0.0
C420 C 0.46902 0.72896 0.58283 0.0
H421 H 0.45559 0.7078 0.58187 0.0
H422 H 0.47339 0.73895 0.57519 0.0
H423 H 0.4558 0.74584 0.58731 0.0
C424 C 0.48899 0.6141 0.56118 0.0
N425 N 0.48122 0.61935 0.57099 0.0
N426 N 0.49265 0.64566 0.57389 0.0
C427 C 0.50783 0.65809 0.56591 0.0
C428 C 0.50592 0.63847 0.55764 0.0
C429 C 0.48059 0.58609 0.55533 0.0
H430 H 0.45609 0.58726 0.55339 0.0
H431 H 0.49336 0.58394 0.54807 0.0
H432 H 0.48481 0.56562 0.56008 0.0
O433 O 0.49115 0.58228 0.59139 0.0
O434 O 0.51173 0.62585 0.59641 0.0
H435 H 0.54142 0.68896 0.55969 0.0
H436 H 0.51077 0.70646 0.56668 0.0
C437 C 0.52629 0.68662 0.56644 0.0
H438 H 0.54029 0.68663 0.57349 0.0
H439 H 0.54605 0.67877 0.59887 0.0
O440 O 0.4468 0.55625 0.57469 0.0
C441 C 0.50979 0.597 0.59696 0.0
Co442 Co 0.04632 0.70807 0.07642 0.0
Co443 Co 0.0296 0.64832 0.08785 0.0
C444 C 0.08922 0.68213 0.09139 0.0
O445 O 0.08281 0.70258 0.08483 0.0
O446 O 0.07098 0.66013 0.09316 0.0
C447 C 0.06251 0.76799 0.06915 0.0
O448 O 0.07716 0.77105 0.07785 0.0
C449 C 0.03394 0.58274 0.09108 0.0
C450 C 0.99548 0.5742 0.10161 0.0
C451 C 0.01877 0.55997 0.09633 0.0
N452 N 0.02005 0.60926 0.09308 0.0
N453 N -0.00279 0.60407 0.09943 0.0
C454 C 0.06231 0.57978 0.08482 0.0
H455 H 0.0708 0.6025 0.08246 0.0
H456 H 0.05781 0.56593 0.07792 0.0
H457 H 0.08002 0.56778 0.08935 0.0
C458 C 0.03472 0.67018 0.05853 0.0
N459 N 0.03749 0.67324 0.0687 0.0
N460 N 0.02753 0.6485 0.07326 0.0
C461 C 0.0166 0.62937 0.06603 0.0
C462 C 0.0214 0.6424 0.05649 0.0
C463 C 0.04188 0.69472 0.05095 0.0
H464 H 0.06427 0.70503 0.05279 0.0
H465 H 0.04234 0.68596 0.043 0.0
H466 H 0.02417 0.71264 0.05146 0.0
O467 O 0.0115 0.71909 0.08532 0.0
O468 O -0.00092 0.67672 0.09349 0.0
H469 H 0.98855 0.60166 0.07581 0.0
H470 H 0.98155 0.59709 0.06224 0.0
C471 C -0.00067 0.60075 0.06815 0.0
H472 H 0.01516 0.58115 0.06784 0.0
H473 H 0.9826 0.62088 0.1022 0.0
O474 O 0.05009 0.74274 0.06706 0.0
C475 C 0.99483 0.70482 0.09168 0.0
Co476 Co 0.48151 0.71077 0.43177 0.0
Co477 Co 0.50288 0.65275 0.42019 0.0
C478 C 0.4414 0.68272 0.4163 0.0
O479 O 0.44559 0.70309 0.42308 0.0
O480 O 0.46145 0.66231 0.41458 0.0
C481 C 0.45246 0.76242 0.44242 0.0
O482 O 0.42859 0.75971 0.43644 0.0
C483 C 0.50299 0.5875 0.41577 0.0
C484 C 0.54472 0.58288 0.40644 0.0
C485 C 0.52081 0.56651 0.41061 0.0
N486 N 0.51599 0.61497 0.41479 0.0
N487 N 0.54086 0.61209 0.40918 0.0
C488 C 0.4731 0.5821 0.42097 0.0
H489 H 0.46059 0.60382 0.42197 0.0
H490 H 0.47701 0.572 0.42862 0.0
H491 H 0.45918 0.56584 0.41647 0.0
C492 C 0.49631 0.67288 0.44956 0.0
N493 N 0.4928 0.67616 0.43941 0.0
N494 N 0.50394 0.65214 0.43473 0.0
C495 C 0.51599 0.63323 0.44184 0.0
C496 C 0.51119 0.64577 0.45144 0.0
C497 C 0.48776 0.69639 0.45731 0.0
H498 H 0.50443 0.71528 0.45695 0.0
H499 H 0.46478 0.7055 0.45557 0.0
H500 H 0.4878 0.68685 0.46517 0.0
O501 O 0.51569 0.72494 0.42298 0.0
O502 O 0.53134 0.68353 0.41491 0.0
H503 H 0.54761 0.60924 0.43224 0.0
H504 H 0.5513 0.60115 0.44578 0.0
C505 C 0.53497 0.60587 0.43949 0.0
H506 H 0.51995 0.58579 0.43866 0.0
H507 H 0.55524 0.63007 0.40725 0.0
O508 O 0.47485 0.74446 0.44138 0.0
C509 C 0.5335 0.71186 0.41669 0.0
Co510 Co 0.03173 0.59688 0.92833 0.0
Co511 Co 0.00968 0.6582 0.91899 0.0
C512 C 0.0709 0.63116 0.91374 0.0
O513 O 0.06644 0.60862 0.91969 0.0
O514 O 0.0511 0.65227 0.91282 0.0
C515 C 0.06601 0.55097 0.94024 0.0
O516 O 0.09159 0.56555 0.9385 0.0
C517 C 0.00633 0.72413 0.91546 0.0
C518 C 0.96089 0.72819 0.90828 0.0
C519 C 0.986 0.74487 0.91132 0.0
N520 N 0.99367 0.69639 0.91495 0.0
N521 N 0.96653 0.69898 0.91065 0.0
C522 C 0.03805 0.73011 0.91913 0.0
H523 H 0.05021 0.70847 0.92068 0.0
H524 H 0.03739 0.74366 0.92627 0.0
H525 H 0.0506 0.7436 0.91332 0.0
C526 C 0.01792 0.62873 0.94748 0.0
N527 N 0.01985 0.62832 0.93723 0.0
N528 N 0.00972 0.65427 0.93353 0.0
C529 C 0.00055 0.67193 0.94143 0.0
C530 C 0.00592 0.65633 0.95049 0.0
C531 C 0.02552 0.60233 0.95427 0.0
H532 H 0.01279 0.582 0.95169 0.0
H533 H 0.05025 0.59753 0.95375 0.0
H534 H 0.01958 0.6067 0.96238 0.0
O535 O -0.00233 0.58439 0.91946 0.0
O536 O 0.98214 0.62794 0.91275 0.0
H537 H 0.96975 0.70257 0.93395 0.0
H538 H 0.97454 0.70945 0.94753 0.0
C539 C 0.98626 0.70262 0.94037 0.0
H540 H 0.00422 0.71956 0.93867 0.0
H541 H 0.95187 0.68075 0.90929 0.0
O542 O 0.04123 0.56062 0.93644 0.0
C543 C 0.97997 0.59924 0.9136 0.0
C544 C 0.02422 0.50943 0.10468 0.0
C545 C 0.02337 0.52693 0.09572 0.0
C546 C 0.02554 0.47774 0.10411 0.0
C547 C 0.03877 0.41361 0.08596 0.0
H548 H 0.99186 0.36837 0.10598 0.0
C549 C 0.00568 0.28707 0.08137 0.0
C550 C 0.01323 0.26849 0.08972 0.0
C551 C 0.00774 0.31867 0.0822 0.0
C552 C 0.00516 0.38077 0.10038 0.0
H553 H 0.02229 0.52546 0.07918 0.0
H554 H 0.02383 0.47025 0.07813 0.0
H555 H 0.99495 0.42356 0.10726 0.0
H556 H 0.02875 0.26786 0.10543 0.0
H557 H 0.03153 0.32331 0.10699 0.0
H558 H 0.04787 0.37059 0.07889 0.0
C559 C 0.02479 0.48075 0.08561 0.0
C560 C 0.00718 0.41236 0.10114 0.0
C561 C 0.02398 0.51242 0.08619 0.0
C562 C 0.02263 0.28186 0.09893 0.0
C563 C 0.02415 0.31344 0.09982 0.0
C564 C 0.0363 0.38206 0.08511 0.0
C565 C 0.02526 0.46296 0.09457 0.0
C566 C 0.02401 0.42922 0.09394 0.0
C567 C 0.01697 0.33207 0.09144 0.0
C568 C 0.01948 0.36543 0.09231 0.0
H569 H 0.02361 0.52027 0.11211 0.0
H570 H 0.02647 0.46487 0.11117 0.0
H571 H 0.05238 0.42572 0.08038 0.0
H572 H -0.00088 0.27719 0.07411 0.0
H573 H 0.00208 0.33266 0.07564 0.0
C574 C 0.11093 0.91306 0.34958 0.0
C575 C 0.12827 0.8985 0.34199 0.0
C576 C 0.07917 0.9115 0.34943 0.0
C577 C 0.01486 0.86734 0.33963 0.0
H578 H 0.96998 0.94306 0.34177 0.0
C579 C 0.88698 0.87385 0.33044 0.0
C580 C 0.86874 0.89327 0.33634 0.0
C581 C 0.91861 0.8744 0.33143 0.0
C582 C 0.98208 0.92163 0.34133 0.0
H583 H 0.12548 0.87192 0.32803 0.0
H584 H 0.07026 0.86818 0.32804 0.0
H585 H 0.02531 0.94337 0.34331 0.0
H586 H 0.86897 0.92762 0.34819 0.0
H587 H 0.92423 0.92832 0.35009 0.0
H588 H 0.97179 0.84543 0.3378 0.0
C589 C 0.08137 0.88037 0.33419 0.0
C590 C 0.01377 0.92186 0.34218 0.0
C591 C 0.11312 0.88223 0.33427 0.0
C592 C 0.8826 0.91301 0.34335 0.0
C593 C 0.91426 0.91335 0.34444 0.0
C594 C 0.98314 0.86704 0.33889 0.0
C595 C 0.06411 0.89525 0.34171 0.0
C596 C 0.03046 0.89475 0.34126 0.0
C597 C 0.93267 0.89402 0.33849 0.0
C598 C 0.96636 0.89423 0.33963 0.0
H599 H 0.12191 0.92593 0.3556 0.0
H600 H 0.06638 0.92306 0.35535 0.0
H601 H 0.0272 0.84608 0.33901 0.0
H602 H 0.87677 0.8584 0.32498 0.0
H603 H 0.93203 0.8596 0.32659 0.0
C604 C 0.51472 0.02141 0.59658 0.0
C605 C 0.51558 0.03649 0.58713 0.0
C606 C 0.51722 0.98981 0.59705 0.0
C607 C 0.53737 0.92129 0.58163 0.0
H608 H 0.48774 0.88049 0.60199 0.0
C609 C 0.51338 0.79151 0.58183 0.0
C610 C 0.51835 0.77691 0.59123 0.0
C611 C 0.51386 0.82326 0.5812 0.0
C612 C 0.50183 0.89162 0.59631 0.0
H613 H 0.51925 0.03059 0.57075 0.0
H614 H 0.52284 0.97529 0.57148 0.0
H615 H 0.48764 0.93577 0.60109 0.0
H616 H 0.52799 0.78362 0.60731 0.0
H617 H 0.52809 0.83923 0.60628 0.0
H618 H 0.55064 0.8767 0.57669 0.0
C619 C 0.52132 0.9878 0.57859 0.0
C620 C 0.50199 0.92333 0.59582 0.0
C621 C 0.51934 0.01952 0.57815 0.0
C622 C 0.52386 0.79445 0.59999 0.0
C623 C 0.52384 0.82616 0.59941 0.0
C624 C 0.53683 0.88951 0.58203 0.0
C625 C 0.51989 0.97249 0.58804 0.0
C626 C 0.51991 0.93863 0.58852 0.0
C627 C 0.51896 0.84084 0.59 0.0
C628 C 0.51918 0.87443 0.58941 0.0
H629 H 0.51189 0.0341 0.60361 0.0
H630 H 0.51677 0.97897 0.60448 0.0
H631 H 0.55178 0.93221 0.57601 0.0
H632 H 0.50994 0.77845 0.57491 0.0
H633 H 0.51004 0.83408 0.57387 0.0
C634 C 0.38853 0.43364 0.83086 0.0
C635 C 0.37225 0.43269 0.84008 0.0
C636 C 0.42034 0.43372 0.83095 0.0
C637 C 0.4846 0.41205 0.84786 0.0
H638 H 0.53316 0.45258 0.82717 0.0
C639 C 0.61541 0.42434 0.84984 0.0
C640 C 0.63149 0.41671 0.84094 0.0
C641 C 0.58367 0.42569 0.84974 0.0
C642 C 0.51979 0.44098 0.83294 0.0
H643 H 0.37584 0.43204 0.85657 0.0
H644 H 0.43138 0.43374 0.8568 0.0
H645 H 0.47793 0.45902 0.82717 0.0
H646 H 0.62737 0.40542 0.82488 0.0
H647 H 0.57165 0.4079 0.82467 0.0
H648 H 0.5267 0.39472 0.85375 0.0
C649 C 0.41984 0.43354 0.84948 0.0
C650 C 0.48818 0.4446 0.83295 0.0
C651 C 0.38808 0.43295 0.84938 0.0
C652 C 0.61541 0.41049 0.83191 0.0
C653 C 0.58364 0.41234 0.83175 0.0
C654 C 0.5162 0.40882 0.84793 0.0
C655 C 0.43641 0.43306 0.84027 0.0
C656 C 0.47016 0.43013 0.8404 0.0
C657 C 0.56754 0.42009 0.84066 0.0
C658 C 0.53404 0.42316 0.84046 0.0
H659 H 0.37674 0.43248 0.8236 0.0
H660 H 0.43225 0.43284 0.82371 0.0
H661 H 0.4715 0.39992 0.85357 0.0
H662 H 0.62744 0.4295 0.85686 0.0
H663 H 0.57176 0.43196 0.85668 0.0
C664 C -0.00213 0.79558 0.91881 0.0
C665 C 0.989 0.77802 0.91039 0.0
C666 C -0.00192 0.82725 0.91814 0.0
C667 C 0.96559 0.89053 0.90289 0.0
H668 H 0.02724 0.93779 0.91695 0.0
C669 C 0.98696 0.01943 0.89686 0.0
C670 C 0.99068 0.03668 0.90578 0.0
C671 C 0.98432 0.98784 0.89746 0.0
C672 C 0.00974 0.92483 0.91307 0.0
H673 H 0.97364 0.77927 0.89466 0.0
H674 H 0.97509 0.83462 0.89331 0.0
H675 H 0.02936 0.88246 0.9176 0.0
H676 H 0.99535 0.03489 0.92226 0.0
H677 H 0.99062 0.97959 0.92333 0.0
H678 H 0.9466 0.9332 0.89814 0.0
C679 C 0.98124 0.82413 0.90052 0.0
C680 C 0.01089 0.89316 0.91345 0.0
C681 C 0.98066 0.79248 0.90125 0.0
C682 C 0.99143 0.02208 0.91532 0.0
C683 C 0.98921 0.9905 0.91591 0.0
C684 C 0.9647 0.92224 0.9024 0.0
C685 C 0.98959 0.84192 0.909 0.0
C686 C 0.98875 0.87562 0.9084 0.0
C687 C 0.9861 0.97311 0.90697 0.0
C688 C 0.98667 0.9396 0.90754 0.0
H689 H 0.00336 0.78496 0.92605 0.0
H690 H 0.00399 0.84022 0.92489 0.0
H691 H 0.94785 0.87777 0.89907 0.0
H692 H 0.98685 0.03034 0.88942 0.0
H693 H 0.98223 0.97483 0.89046 0.0
C694 C 0.38315 0.92526 0.14958 0.0
C695 C 0.36744 0.9224 0.15886 0.0
C696 C 0.41493 0.92467 0.14941 0.0
C697 C 0.48161 0.90238 0.16512 0.0
H698 H 0.52547 0.95381 0.14603 0.0
C699 C 0.61177 0.91616 0.16647 0.0
C700 C 0.62664 0.91119 0.15712 0.0
C701 C 0.58022 0.91978 0.16676 0.0
C702 C 0.51344 0.9393 0.15137 0.0
H703 H 0.37227 0.91846 0.17529 0.0
H704 H 0.42769 0.91785 0.17507 0.0
H705 H 0.46992 0.95543 0.14645 0.0
H706 H 0.62064 0.90631 0.14077 0.0
H707 H 0.5653 0.9131 0.14125 0.0
H708 H 0.52527 0.88666 0.17013 0.0
C709 C 0.41564 0.91933 0.16786 0.0
C710 C 0.48167 0.94006 0.15158 0.0
C711 C 0.38388 0.91953 0.168 0.0
C712 C 0.60959 0.91038 0.14805 0.0
C713 C 0.57807 0.91439 0.14832 0.0
C714 C 0.51336 0.90191 0.16499 0.0
C715 C 0.43156 0.92181 0.15856 0.0
C716 C 0.46536 0.92146 0.15842 0.0
C717 C 0.56309 0.91865 0.1577 0.0
C718 C 0.52953 0.92023 0.15808 0.0
H719 H 0.37083 0.92766 0.14244 0.0
H720 H 0.42641 0.9262 0.1421 0.0
H721 H 0.46983 0.88735 0.17036 0.0
H722 H 0.62428 0.91591 0.1736 0.0
H723 H 0.56915 0.92304 0.17408 0.0
C724 C 0.51798 0.28874 0.4146 0.0
C725 C 0.51808 0.27434 0.40504 0.0
C726 C 0.5186 0.32043 0.41523 0.0
C727 C 0.50167 0.38896 0.39973 0.0
H728 H 0.54467 0.43052 0.42152 0.0
C729 C 0.52298 0.51855 0.40058 0.0
C730 C 0.517 0.53334 0.40987 0.0
C731 C 0.52179 0.4869 0.39998 0.0
C732 C 0.53235 0.41913 0.41545 0.0
H733 H 0.51925 0.28126 0.38867 0.0
H734 H 0.52156 0.33663 0.38971 0.0
H735 H 0.54726 0.37521 0.42037 0.0
H736 H 0.50595 0.52682 0.42587 0.0
H737 H 0.50385 0.47136 0.42482 0.0
H738 H 0.48746 0.43312 0.39469 0.0
C739 C 0.52033 0.32365 0.39673 0.0
C740 C 0.53378 0.38748 0.41479 0.0
C741 C 0.51931 0.29199 0.39612 0.0
C742 C 0.5098 0.51602 0.41855 0.0
C743 C 0.50903 0.48432 0.41799 0.0
C744 C 0.50057 0.42062 0.40032 0.0
C745 C 0.51947 0.33828 0.40629 0.0
C746 C 0.51843 0.37199 0.40693 0.0
C747 C 0.5152 0.4695 0.40871 0.0
C748 C 0.51585 0.43596 0.4082 0.0
H749 H 0.51592 0.27563 0.42158 0.0
H750 H 0.51728 0.3309 0.4227 0.0
H751 H 0.48902 0.37778 0.3937 0.0
H752 H 0.52882 0.53149 0.3938 0.0
H753 H 0.52692 0.47597 0.39276 0.0
C754 C 0.89199 0.40411 0.64935 0.0
C755 C 0.876 0.39963 0.65851 0.0
C756 C 0.92377 0.40372 0.64926 0.0
C757 C 0.99131 0.38185 0.66487 0.0
H758 H 0.03273 0.43781 0.64661 0.0
C759 C 0.1209 0.40488 0.66663 0.0
C760 C 0.13609 0.40202 0.65724 0.0
C761 C 0.0891 0.40549 0.66695 0.0
C762 C 0.02142 0.42202 0.65172 0.0
H763 H 0.88049 0.39221 0.67481 0.0
H764 H 0.93595 0.39214 0.67475 0.0
H765 H 0.97726 0.43649 0.64691 0.0
H766 H 0.13046 0.39752 0.64087 0.0
H767 H 0.07472 0.39934 0.64139 0.0
H768 H 0.03575 0.36804 0.66983 0.0
C769 C 0.92409 0.39483 0.66755 0.0
C770 C 0.98964 0.42106 0.65185 0.0
C771 C 0.89227 0.39476 0.6676 0.0
C772 C 0.11912 0.40006 0.64818 0.0
C773 C 0.08736 0.40118 0.64848 0.0
C774 C 0.0231 0.38315 0.66483 0.0
C775 C 0.94027 0.39954 0.65839 0.0
C776 C 0.97415 0.40078 0.65836 0.0
C777 C 0.07207 0.40356 0.65788 0.0
C778 C 0.03841 0.40308 0.65821 0.0
H779 H 0.87987 0.40794 0.64225 0.0
H780 H 0.93536 0.40679 0.64203 0.0
H781 H 0.98025 0.36563 0.66987 0.0
H782 H 0.13354 0.40553 0.67374 0.0
H783 H 0.0778 0.40733 0.67429 0.0
C784 C 0.96824 0.144 0.03318 0.0
C785 C 0.9908 0.14557 0.04075 0.0
C786 C 0.97626 0.14184 0.02289 0.0
C787 C 0.03387 0.15659 0.00383 0.0
H788 H -0.002 0.0877 0.98974 0.0
C789 C 0.05211 0.1419 0.96076 0.0
C790 C 0.02556 0.13532 0.95524 0.0
C791 C 0.053 0.13749 0.97134 0.0
C792 C 0.00809 0.10715 0.99352 0.0
H793 H 0.03931 0.14791 0.04358 0.0
H794 H 0.05347 0.1454 0.0254 0.0
H795 H 0.98864 0.09485 0.00797 0.0
H796 H 0.97977 0.11767 0.95616 0.0
H797 H 0.98081 0.11037 0.97461 0.0
H798 H 0.05189 0.17005 0.98935 0.0
C799 C 0.0296 0.14539 0.02749 0.0
C800 C 0.00278 0.11116 0.00396 0.0
C801 C 0.02154 0.14709 0.03784 0.0
C802 C 0.00067 0.12227 0.96028 0.0
C803 C 0.00135 0.11821 0.97087 0.0
C804 C 0.03879 0.15288 0.99333 0.0
C805 C 0.00701 0.14168 0.01998 0.0
C806 C 0.01511 0.13623 0.00915 0.0
C807 C 0.02709 0.12697 0.97661 0.0
C808 C 0.02544 0.12843 0.98799 0.0
H809 H 0.94439 0.14282 0.03527 0.0
H810 H 0.95843 0.1395 0.01722 0.0
H811 H 0.04356 0.17612 0.00768 0.0
H812 H 0.07141 0.15238 0.95698 0.0
H813 H 0.07344 0.14381 0.97545 0.0
C814 C 0.22131 0.89849 0.28588 0.0
C815 C 0.2408 0.91072 0.29328 0.0
C816 C 0.22169 0.90988 0.27588 0.0
C817 C 0.27568 0.94493 0.25819 0.0
H818 H 0.20576 0.94832 0.24015 0.0
C819 C 0.23918 0.95951 0.2128 0.0
C820 C 0.2582 0.93713 0.20861 0.0
C821 C 0.2399 0.96555 0.22327 0.0
C822 C 0.22554 0.94808 0.2451 0.0
H823 H 0.27481 0.94505 0.29638 0.0
H824 H 0.27525 0.96536 0.27895 0.0
H825 H 0.19809 0.94198 0.25849 0.0
H826 H 0.29442 0.90519 0.21174 0.0
H827 H 0.29598 0.91575 0.23009 0.0
H828 H 0.30316 0.95013 0.24476 0.0
C829 C 0.25984 0.94692 0.28078 0.0
C830 C 0.22111 0.94408 0.2556 0.0
C831 C 0.25936 0.93558 0.29076 0.0
C832 C 0.27993 0.9229 0.21482 0.0
C833 C 0.28066 0.9289 0.22533 0.0
C834 C 0.28013 0.94877 0.24768 0.0
C835 C 0.24178 0.9335 0.27315 0.0
C836 C 0.24613 0.9418 0.26223 0.0
C837 C 0.25955 0.94915 0.22973 0.0
C838 C 0.25513 0.94975 0.24099 0.0
H839 H 0.20725 0.87895 0.28767 0.0
H840 H 0.20772 0.89885 0.27016 0.0
H841 H 0.29548 0.94295 0.26309 0.0
H842 H 0.22203 0.97048 0.20811 0.0
H843 H 0.22373 0.98165 0.22641 0.0
C844 C 0.50593 0.12881 0.53069 0.0
C845 C 0.49365 0.15068 0.53727 0.0
C846 C 0.49683 0.12791 0.52043 0.0
C847 C 0.46806 0.12609 0.49921 0.0
H848 H 0.46841 0.20651 0.48694 0.0
C849 C 0.46113 0.13937 0.45584 0.0
C850 C 0.48457 0.15732 0.45176 0.0
C851 C 0.4539 0.14114 0.46622 0.0
C852 C 0.46807 0.18393 0.49025 0.0
H853 H 0.46096 0.18722 0.53874 0.0
H854 H 0.44447 0.18528 0.5209 0.0
H855 H 0.47122 0.2013 0.50547 0.0
H856 H 0.51721 0.19282 0.45494 0.0
H857 H 0.50467 0.19615 0.47313 0.0
H858 H 0.4665 0.10868 0.48397 0.0
C859 C 0.46144 0.16919 0.52352 0.0
C860 C 0.46936 0.1809 0.50088 0.0
C861 C 0.47059 0.17009 0.53373 0.0
C862 C 0.49884 0.17902 0.45795 0.0
C863 C 0.49166 0.1808 0.46836 0.0
C864 C 0.46667 0.12912 0.48858 0.0
C865 C 0.47534 0.14893 0.51666 0.0
C866 C 0.47002 0.15193 0.50548 0.0
C867 C 0.47009 0.16087 0.47268 0.0
C868 C 0.46731 0.15807 0.48397 0.0
H869 H 0.52404 0.11393 0.53328 0.0
H870 H 0.50814 0.11215 0.51533 0.0
H871 H 0.46831 0.10349 0.50252 0.0
H872 H 0.44993 0.12242 0.45115 0.0
H873 H 0.43678 0.12592 0.46928 0.0
C874 C 0.27497 0.36486 0.70885 0.0
C875 C 0.26183 0.38953 0.70367 0.0
C876 C 0.27279 0.36272 0.7195 0.0
C877 C 0.23474 0.39752 0.74226 0.0
H878 H 0.31046 0.37704 0.75597 0.0
C879 C 0.26315 0.4414 0.78197 0.0
C880 C 0.26449 0.41855 0.78945 0.0
C881 C 0.26504 0.43394 0.77164 0.0
C882 C 0.28915 0.3825 0.75222 0.0
H883 H 0.23497 0.43041 0.70528 0.0
H884 H 0.23141 0.42721 0.72382 0.0
H885 H 0.30585 0.36958 0.73749 0.0
H886 H 0.27096 0.37043 0.79217 0.0
H887 H 0.27546 0.35737 0.77392 0.0
H888 H 0.21883 0.41209 0.75694 0.0
C889 C 0.24293 0.40906 0.71978 0.0
C890 C 0.28633 0.37805 0.74166 0.0
C891 C 0.24492 0.411 0.70915 0.0
C892 C 0.27033 0.38841 0.78651 0.0
C893 C 0.27265 0.38095 0.77612 0.0
C894 C 0.23778 0.40242 0.75274 0.0
C895 C 0.25763 0.3854 0.72513 0.0
C896 C 0.25927 0.38614 0.73651 0.0
C897 C 0.26873 0.40355 0.76863 0.0
C898 C 0.26517 0.39552 0.75775 0.0
H899 H 0.28817 0.3481 0.70471 0.0
H900 H 0.28385 0.34388 0.72333 0.0
H901 H 0.21335 0.40333 0.73863 0.0
H902 H 0.25841 0.46473 0.78411 0.0
H903 H 0.26216 0.4517 0.76597 0.0
C904 C 0.73609 0.40019 0.78745 0.0
C905 C 0.75637 0.41565 0.79387 0.0
C906 C 0.73518 0.40691 0.777 0.0
C907 C 0.78645 0.43423 0.757 0.0
H908 H 0.71438 0.42875 0.74 0.0
C909 C 0.74542 0.43153 0.7118 0.0
C910 C 0.76527 0.40901 0.70817 0.0
C911 C 0.74626 0.44031 0.72205 0.0
C912 C 0.73473 0.43087 0.74463 0.0
H913 H 0.78975 0.45169 0.79478 0.0
H914 H 0.78806 0.46375 0.77649 0.0
H915 H 0.70903 0.43036 0.75854 0.0
H916 H 0.80263 0.37918 0.71205 0.0
H917 H 0.80432 0.39447 0.73005 0.0
H918 H 0.81219 0.43402 0.74308 0.0
C919 C 0.77324 0.44612 0.77945 0.0
C920 C 0.73164 0.43147 0.75526 0.0
C921 C 0.77404 0.43945 0.78989 0.0
C922 C 0.78744 0.39691 0.71471 0.0
C923 C 0.7883 0.40566 0.72499 0.0
C924 C 0.78955 0.4335 0.74636 0.0
C925 C 0.75459 0.4292 0.77283 0.0
C926 C 0.75748 0.43254 0.76157 0.0
C927 C 0.76688 0.42656 0.72886 0.0
C928 C 0.76376 0.43124 0.74006 0.0
H929 H 0.72239 0.38166 0.7904 0.0
H930 H 0.72068 0.39333 0.77211 0.0
H931 H 0.80685 0.43474 0.76165 0.0
H932 H 0.72801 0.44094 0.70685 0.0
H933 H 0.72982 0.45682 0.72475 0.0
C934 C 0.71512 0.90207 0.21103 0.0
C935 C 0.73671 0.8844 0.20588 0.0
C936 C 0.71052 0.89805 0.22153 0.0
C937 C 0.75358 0.87123 0.24405 0.0
H938 H 0.67875 0.8914 0.25821 0.0
C939 C 0.74216 0.87808 0.2885 0.0
C940 C 0.72791 0.9048 0.29192 0.0
C941 C 0.74231 0.87085 0.27806 0.0
C942 C 0.69979 0.88564 0.25434 0.0
H943 H 0.76882 0.84734 0.20724 0.0
H944 H 0.75997 0.83928 0.2255 0.0
H945 H 0.6782 0.88494 0.23968 0.0
H946 H 0.70412 0.94559 0.28714 0.0
H947 H 0.7038 0.93273 0.26904 0.0
H948 H 0.77511 0.87228 0.25877 0.0
C949 C 0.74716 0.85683 0.22159 0.0
C950 C 0.69951 0.88203 0.24373 0.0
C951 C 0.75195 0.8611 0.21112 0.0
C952 C 0.7146 0.92448 0.28474 0.0
C953 C 0.7144 0.91712 0.27438 0.0
C954 C 0.75376 0.87453 0.25468 0.0
C955 C 0.72734 0.8761 0.22701 0.0
C956 C 0.72656 0.87558 0.23841 0.0
C957 C 0.72789 0.89008 0.27094 0.0
C958 C 0.72704 0.88259 0.25989 0.0
H959 H 0.70347 0.92042 0.20711 0.0
H960 H 0.6953 0.91353 0.22543 0.0
H961 H 0.77498 0.86674 0.24023 0.0
H962 H 0.75238 0.86243 0.29391 0.0
H963 H 0.75296 0.84989 0.27558 0.0
C964 C 0.54804 0.6532 0.46556 0.0
C965 C 0.52383 0.63655 0.46139 0.0
C966 C 0.55498 0.65078 0.47595 0.0
C967 C 0.54388 0.66232 0.49843 0.0
H968 H 0.53431 0.58981 0.51498 0.0
C969 C 0.5077 0.66468 0.54076 0.0
C970 C 0.51889 0.64205 0.5473 0.0
C971 C 0.51557 0.66455 0.5304 0.0
C972 C 0.53756 0.61024 0.51048 0.0
H973 H 0.48878 0.60335 0.46448 0.0
H974 H 0.50075 0.59894 0.4827 0.0
H975 H 0.53604 0.58541 0.4964 0.0
H976 H 0.5488 0.60313 0.54854 0.0
H977 H 0.56289 0.60297 0.53043 0.0
H978 H 0.54487 0.68721 0.51249 0.0
C979 C 0.51477 0.61354 0.47797 0.0
C980 C 0.53823 0.60772 0.49982 0.0
C981 C 0.5079 0.61594 0.46755 0.0
C982 C 0.53973 0.62062 0.54355 0.0
C983 C 0.54758 0.62042 0.5332 0.0
C984 C 0.54315 0.66484 0.50907 0.0
C985 C 0.53761 0.63185 0.48236 0.0
C986 C 0.54081 0.63379 0.49366 0.0
C987 C 0.53482 0.6418 0.52644 0.0
C988 C 0.53936 0.63891 0.51522 0.0
H989 H 0.56033 0.6695 0.46091 0.0
H990 H 0.57301 0.6648 0.47906 0.0
H991 H 0.54551 0.68295 0.49392 0.0
H992 H 0.49154 0.68136 0.54353 0.0
H993 H 0.50518 0.68124 0.52539 0.0
C994 C 0.0256 0.66814 0.96768 0.0
C995 C 0.00043 0.66536 0.96116 0.0
C996 C 0.02189 0.6657 0.97823 0.0
C997 C 0.97457 0.6696 1.00033 0.0
H998 H 0.01797 0.59738 0.00929 0.0
C999 C 0.98157 0.6391 0.04304 0.0
C1000 C 0.01118 0.63233 0.04634 0.0
C1001 C 0.97448 0.63858 0.03261 0.0
C1002 C 0.00579 0.61765 0.00695 0.0
H1003 H 0.9515 0.66018 0.96041 0.0
H1004 H 0.94479 0.65698 0.97908 0.0
H1005 H 0.01721 0.61083 0.99119 0.0
H1006 H 0.0562 0.61845 0.04163 0.0
H1007 H 0.04419 0.61749 0.02348 0.0
H1008 H 0.96464 0.67756 0.01612 0.0
C1009 C 0.96732 0.66087 0.97597 0.0
C1010 C 0.0053 0.62526 0.99659 0.0
C1011 C 0.9711 0.66298 0.96535 0.0
C1012 C 0.03304 0.62306 0.03922 0.0
C1013 C 0.02607 0.62263 0.02881 0.0
C1014 C 0.97544 0.66224 0.01075 0.0
C1015 C 0.9929 0.66075 0.98242 0.0
C1016 C 0.99033 0.65164 0.99324 0.0
C1017 C -0.00297 0.63152 0.02533 0.0
C1018 C 0.99175 0.63657 0.01421 0.0
H1019 H 0.04843 0.66947 0.96457 0.0
H1020 H 0.04188 0.66581 0.98309 0.0
H1021 H 0.96285 0.69002 0.99786 0.0
H1022 H 0.96458 0.64683 0.04845 0.0
H1023 H 0.95179 0.64509 0.03021 0.0
C1024 C 0.1371 0.94863 0.15637 0.0
C1025 C 0.16859 0.94488 0.15489 0.0
C1026 C 0.11957 0.96445 0.14919 0.0
C1027 C 0.12567 0.01884 0.12757 0.0
H1028 H 0.0449 0.98902 0.12105 0.0
C1029 C 0.02213 0.04062 0.09649 0.0
C1030 C 0.022 0.0726 0.09642 0.0
C1031 C 0.04086 0.02465 0.10328 0.0
C1032 C 0.06754 -0.00254 0.12268 0.0
H1033 H 0.20634 0.95504 0.14473 0.0
H1034 H 0.17575 0.98204 0.13218 0.0
H1035 H 0.07585 0.96209 0.13358 0.0
H1036 H 0.04173 0.11282 0.10341 0.0
H1037 H 0.07373 0.08508 0.11533 0.0
H1038 H 0.11775 0.05368 0.11647 0.0
C1039 C 0.16463 0.97327 0.13895 0.0
C1040 C 0.08512 0.98227 0.13 0.0
C1041 C 0.18218 0.95764 0.14615 0.0
C1042 C 0.04132 0.08819 0.1032 0.0
C1043 C 0.05986 0.07226 0.11002 0.0
C1044 C 0.10818 0.0339 0.12022 0.0
C1045 C 0.13308 0.97674 0.14035 0.0
C1046 C 0.11436 0.99286 0.13256 0.0
C1047 C 0.05975 0.04029 0.1102 0.0
C1048 C 0.07882 0.02351 0.11773 0.0
H1049 H 0.12592 0.93921 0.16304 0.0
H1050 H 0.09542 0.96715 0.1506 0.0
H1051 H 0.14796 0.02782 0.12942 0.0
H1052 H 0.00762 0.0279 0.09134 0.0
H1053 H 0.04055 3e-05 0.10311 0.0
C1054 C 0.31138 0.95986 0.35026 0.0
C1055 C 0.32572 0.94115 0.34299 0.0
C1056 C 0.32837 0.98024 0.35611 0.0
C1057 C 0.40228 0.01987 0.35798 0.0
H1058 H 0.38696 0.01604 0.38717 0.0
C1059 C 0.46426 0.09588 0.38779 0.0
C1060 C 0.47548 0.08035 0.39642 0.0
C1061 C 0.44499 0.08117 0.38086 0.0
C1062 C 0.39148 0.01736 0.37903 0.0
H1063 H 0.36901 0.93025 0.33586 0.0
H1064 H 0.39863 0.96583 0.34613 0.0
H1065 H 0.35503 0.98695 0.37549 0.0
H1066 H 0.47516 0.03722 0.40453 0.0
H1067 H 0.44151 0.01178 0.39249 0.0
H1068 H 0.43924 0.04985 0.3616 0.0
C1069 C 0.37422 0.96474 0.34725 0.0
C1070 C 0.37302 0.00096 0.37234 0.0
C1071 C 0.35726 0.94422 0.34142 0.0
C1072 C 0.46695 0.04988 0.39797 0.0
C1073 C 0.44752 0.03533 0.39111 0.0
C1074 C 0.42064 0.03652 0.36468 0.0
C1075 C 0.36003 0.9825 0.3548 0.0
C1076 C 0.37843 0.00174 0.36175 0.0
C1077 C 0.43631 0.0508 0.3825 0.0
C1078 C 0.41567 0.03503 0.37529 0.0
H1079 H 0.28711 0.95826 0.35162 0.0
H1080 H 0.31677 0.99395 0.36178 0.0
H1081 H 0.40683 0.02104 0.34984 0.0
H1082 H 0.47043 0.11936 0.38637 0.0
H1083 H 0.43653 0.09365 0.3743 0.0
C1084 C 0.45225 0.21852 0.59763 0.0
C1085 C 0.46663 0.23205 0.58917 0.0
C1086 C 0.43289 0.23559 0.60388 0.0
C1087 C 0.41925 0.31509 0.61135 0.0
H1088 H 0.34706 0.2824 0.62442 0.0
C1089 C 0.3146 0.3591 0.63877 0.0
C1090 C 0.33159 0.37609 0.64588 0.0
C1091 C 0.32932 0.34111 0.63146 0.0
C1092 C 0.367 0.29194 0.62075 0.0
H1093 H 0.47059 0.27366 0.58031 0.0
H1094 H 0.43652 0.30314 0.59108 0.0
H1095 H 0.37467 0.25162 0.61192 0.0
H1096 H 0.37737 0.38706 0.65095 0.0
H1097 H 0.40283 0.35559 0.63833 0.0
H1098 H 0.41155 0.35545 0.62005 0.0
C1099 C 0.44076 0.27958 0.59305 0.0
C1100 C 0.38298 0.2742 0.61367 0.0
C1101 C 0.4602 0.26261 0.58684 0.0
C1102 C 0.36354 0.37447 0.64556 0.0
C1103 C 0.37819 0.35653 0.63828 0.0
C1104 C 0.40332 0.33276 0.61839 0.0
C1105 C 0.42742 0.26649 0.60177 0.0
C1106 C 0.40941 0.28553 0.60894 0.0
C1107 C 0.36129 0.3398 0.6311 0.0
C1108 C 0.37721 0.3213 0.62326 0.0
H1109 H 0.45671 0.19502 0.59963 0.0
H1110 H 0.42316 0.22488 0.61059 0.0
H1111 H 0.43972 0.32441 0.60796 0.0
H1112 H 0.28995 0.35982 0.6388 0.0
H1113 H 0.31568 0.32865 0.62599 0.0
C1114 C 0.05792 0.21346 0.88999 0.0
C1115 C 0.0583 0.2235 0.90019 0.0
C1116 C 0.0753 0.22838 0.88257 0.0
C1117 C 0.14193 0.27385 0.87785 0.0
H1118 H 0.09515 0.31604 0.85707 0.0
C1119 C 0.19529 0.36743 0.85277 0.0
C1120 C 0.18354 0.37273 0.84295 0.0
C1121 C 0.18161 0.34617 0.85924 0.0
C1122 C 0.10879 0.30389 0.86263 0.0
H1123 H 0.07817 0.25593 0.91074 0.0
H1124 H 0.10941 0.28132 0.89778 0.0
H1125 H 0.06928 0.28308 0.86924 0.0
H1126 H 0.14924 0.359 0.83198 0.0
H1127 H 0.12635 0.3207 0.84302 0.0
H1128 H 0.18157 0.29378 0.87118 0.0
C1129 C 0.09531 0.26222 0.89555 0.0
C1130 C 0.09384 0.28517 0.86964 0.0
C1131 C 0.07738 0.24781 0.90293 0.0
C1132 C 0.15854 0.35559 0.83957 0.0
C1133 C 0.1453 0.33379 0.84595 0.0
C1134 C 0.15703 0.29201 0.87069 0.0
C1135 C 0.09391 0.25299 0.8853 0.0
C1136 C 0.11024 0.27044 0.87739 0.0
C1137 C 0.15627 0.32916 0.85596 0.0
C1138 C 0.14061 0.30777 0.86308 0.0
H1139 H 0.0433 0.19487 0.88767 0.0
H1140 H 0.07394 0.22099 0.87468 0.0
H1141 H 0.15497 0.26251 0.88377 0.0
H1142 H 0.21442 0.3805 0.85561 0.0
H1143 H 0.19044 0.34384 0.86693 0.0
C1144 C 0.90291 0.23335 0.90923 0.0
C1145 C 0.91347 0.20328 0.91 0.0
C1146 C 0.87752 0.24029 0.90321 0.0
C1147 C 0.83621 0.20915 0.88089 0.0
H1148 H 0.79103 0.28421 0.88409 0.0
C1149 C 0.75876 0.30303 0.85674 0.0
C1150 C 0.77705 0.30333 0.84791 0.0
C1151 C 0.76549 0.28323 0.86485 0.0
C1152 C 0.80274 0.26275 0.88311 0.0
H1153 H 0.90397 0.15653 0.90582 0.0
H1154 H 0.85893 0.16843 0.89568 0.0
H1155 H 0.82011 0.26428 0.89837 0.0
H1156 H 0.81444 0.28064 0.84021 0.0
H1157 H 0.82651 0.24704 0.85424 0.0
H1158 H 0.81855 0.20743 0.86567 0.0
C1159 C 0.87093 0.18689 0.89938 0.0
C1160 C 0.81997 0.25156 0.89129 0.0
C1161 C 0.89665 0.18001 0.90527 0.0
C1162 C 0.80007 0.28131 0.84694 0.0
C1163 C 0.80688 0.26174 0.85503 0.0
C1164 C 0.81854 0.22004 0.87277 0.0
C1165 C 0.86169 0.21727 0.89794 0.0
C1166 C 0.83817 0.22544 0.89013 0.0
C1167 C 0.79065 0.2634 0.86429 0.0
C1168 C 0.80283 0.24782 0.87359 0.0
H1169 H 0.91534 0.25187 0.91274 0.0
H1170 H 0.87158 0.26401 0.90224 0.0
H1171 H 0.8498 0.18897 0.87962 0.0
H1172 H 0.74068 0.31954 0.85771 0.0
H1173 H 0.75196 0.28463 0.87175 0.0
C1174 C 0.62571 0.22114 0.58891 0.0
C1175 C 0.61004 0.19331 0.58854 0.0
C1176 C 0.64751 0.22657 0.59646 0.0
C1177 C 0.66694 0.20039 0.62256 0.0
H1178 H 0.72616 0.26517 0.61989 0.0
C1179 C 0.69576 0.27872 0.65585 0.0
C1180 C 0.72267 0.29603 0.65587 0.0
C1181 C 0.68975 0.25824 0.64797 0.0
C1182 C 0.71033 0.24652 0.62083 0.0
H1183 H 0.60705 0.1483 0.59526 0.0
H1184 H 0.64608 0.15729 0.60819 0.0
H1185 H 0.70378 0.24316 0.60469 0.0
H1186 H 0.76573 0.30309 0.64812 0.0
H1187 H 0.75583 0.26634 0.63456 0.0
H1188 H 0.67407 0.2032 0.63869 0.0
C1189 C 0.64068 0.17543 0.60289 0.0
C1190 C 0.69698 0.23421 0.61205 0.0
C1191 C 0.61844 0.17014 0.59541 0.0
C1192 C 0.7446 0.2904 0.64827 0.0
C1193 C 0.73876 0.26949 0.64043 0.0
C1194 C 0.68079 0.21223 0.63133 0.0
C1195 C 0.6547 0.20414 0.60376 0.0
C1196 C 0.67392 0.21209 0.61282 0.0
C1197 C 0.71069 0.25403 0.63994 0.0
C1198 C 0.7015 0.23657 0.63063 0.0
H1199 H 0.61988 0.23957 0.58377 0.0
H1200 H 0.65726 0.24913 0.59689 0.0
H1201 H 0.64938 0.18337 0.62355 0.0
H1202 H 0.67831 0.28235 0.66157 0.0
H1203 H 0.66771 0.24725 0.64788 0.0
C1204 C 0.75508 0.01648 0.35201 0.0
C1205 C 0.73189 0.01327 0.34468 0.0
C1206 C 0.75357 0.03976 0.35932 0.0
C1207 C 0.72792 0.06813 0.37852 0.0
H1208 H 0.67358 0.13664 0.37485 0.0
C1209 C 0.63378 0.09206 0.40671 0.0
C1210 C 0.61767 0.11966 0.40658 0.0
C1211 C 0.6593 0.08797 0.40052 0.0
C1212 C 0.6894 0.11818 0.37616 0.0
H1213 H 0.69106 0.03415 0.33849 0.0
H1214 H 0.68777 0.07341 0.35122 0.0
H1215 H 0.7002 0.11603 0.36026 0.0
H1216 H 0.61788 0.16583 0.40074 0.0
H1217 H 0.66333 0.15919 0.39026 0.0
H1218 H 0.71778 0.07078 0.39446 0.0
C1219 C 0.70741 0.05856 0.35145 0.0
C1220 C 0.70436 0.10591 0.36768 0.0
C1221 C 0.70907 0.03561 0.34414 0.0
C1222 C 0.62948 0.14408 0.40088 0.0
C1223 C 0.65545 0.14016 0.3948 0.0
C1224 C 0.71369 0.08097 0.38705 0.0
C1225 C 0.72875 0.06012 0.35946 0.0
C1226 C 0.72189 0.07925 0.36863 0.0
C1227 C 0.66986 0.11156 0.39414 0.0
C1228 C 0.69237 0.10466 0.38588 0.0
H1229 H 0.77322 -0.00015 0.35256 0.0
H1230 H 0.77095 0.0407 0.36518 0.0
H1231 H 0.74152 0.04789 0.37968 0.0
H1232 H 0.62551 0.07274 0.41104 0.0
H1233 H 0.6692 0.06546 0.40023 0.0
C1234 C 0.80547 0.02378 0.1591 0.0
C1235 C 0.78096 0.00367 0.15759 0.0
C1236 C 0.8103 0.04808 0.15239 0.0
C1237 C 0.81264 0.10222 0.13757 0.0
H1238 H 0.81367 0.06941 0.1101 0.0
C1239 C 0.89536 0.14302 0.1065 0.0
C1240 C 0.88944 0.13568 0.09625 0.0
C1241 C 0.87398 0.13619 0.11409 0.0
C1242 C 0.81278 0.07963 0.11761 0.0
H1243 H 0.74061 0.99525 0.14842 0.0
H1244 H 0.74919 0.03755 0.13671 0.0
H1245 H 0.79027 0.04059 0.12369 0.0
H1246 H 0.85527 0.11927 0.08569 0.0
H1247 H 0.8171 0.10938 0.09879 0.0
H1248 H 0.83588 0.14106 0.1315 0.0
C1249 C 0.76487 0.03423 0.14301 0.0
C1250 C 0.79936 0.06287 0.12546 0.0
C1251 C 0.75994 0.01001 0.14975 0.0
C1252 C 0.86048 0.12484 0.09357 0.0
C1253 C 0.83879 0.1188 0.10111 0.0
C1254 C 0.82577 0.11929 0.12966 0.0
C1255 C 0.79078 0.05273 0.14401 0.0
C1256 C 0.79998 0.07348 0.13558 0.0
C1257 C 0.84601 0.12245 0.11154 0.0
C1258 C 0.82695 0.10773 0.11962 0.0
H1259 H 0.82198 0.01975 0.16511 0.0
H1260 H 0.83055 0.06185 0.15334 0.0
H1261 H 0.81319 0.11108 0.1453 0.0
H1262 H 0.91761 0.15122 0.10879 0.0
H1263 H 0.88061 0.13934 0.12199 0.0
C1264 C 0.6469 0.44164 0.6602 0.0
C1265 C 0.67763 0.43678 0.65767 0.0
C1266 C 0.62896 0.46145 0.65441 0.0
C1267 C 0.59176 0.48644 0.63688 0.0
H1268 H 0.62385 0.56041 0.62484 0.0
C1269 C 0.52969 0.54818 0.60423 0.0
C1270 C 0.52935 0.58015 0.60426 0.0
C1271 C 0.54777 0.53213 0.61116 0.0
C1272 C 0.61442 0.54 0.62823 0.0
H1273 H 0.7138 0.44958 0.64721 0.0
H1274 H 0.68236 0.4836 0.63698 0.0
H1275 H 0.65528 0.53104 0.63665 0.0
H1276 H 0.54786 0.62032 0.61161 0.0
H1277 H 0.57908 0.59223 0.62383 0.0
H1278 H 0.55074 0.49562 0.62864 0.0
C1279 C 0.67222 0.4725 0.64355 0.0
C1280 C 0.63257 0.52297 0.6349 0.0
C1281 C 0.69022 0.45283 0.64938 0.0
C1282 C 0.54765 0.5957 0.61136 0.0
C1283 C 0.56567 0.5796 0.61834 0.0
C1284 C 0.5736 0.50351 0.63025 0.0
C1285 C 0.64126 0.47672 0.6459 0.0
C1286 C 0.62155 0.49583 0.63924 0.0
C1287 C 0.56586 0.54761 0.61834 0.0
C1288 C 0.58481 0.53031 0.62575 0.0
H1289 H 0.63653 0.42987 0.66659 0.0
H1290 H 0.60536 0.46462 0.65656 0.0
H1291 H 0.58262 0.46549 0.63997 0.0
H1292 H 0.51605 0.53545 0.59882 0.0
H1293 H 0.54781 0.50753 0.61081 0.0
C1294 C 0.95388 0.5511 0.90842 0.0
C1295 C 0.95803 0.58255 0.90713 0.0
C1296 C 0.93565 0.53471 0.90165 0.0
C1297 C 0.91623 0.50344 0.88223 0.0
H1298 H 0.84104 0.53449 0.87068 0.0
C1299 C 0.85873 0.44445 0.84825 0.0
C1300 C 0.827 0.44073 0.84878 0.0
C1301 C 0.87375 0.4635 0.85513 0.0
C1302 C 0.86191 0.52544 0.87389 0.0
H1303 H 0.94526 0.62169 0.89793 0.0
H1304 H 0.91387 0.59296 0.88601 0.0
H1305 H 0.86748 0.56366 0.88385 0.0
H1306 H 0.78602 0.45483 0.85678 0.0
H1307 H 0.81234 0.48764 0.86888 0.0
H1308 H 0.91041 0.46494 0.8725 0.0
C1309 C 0.92444 0.58102 0.89233 0.0
C1310 C 0.87719 0.54227 0.88136 0.0
C1311 C 0.94255 0.59746 0.89915 0.0
C1312 C 0.81051 0.45717 0.85615 0.0
C1313 C 0.82556 0.47612 0.86306 0.0
C1314 C 0.90096 0.48662 0.8748 0.0
C1315 C 0.92131 0.54936 0.89339 0.0
C1316 C 0.90451 0.53142 0.88562 0.0
C1317 C 0.8574 0.47913 0.86273 0.0
C1318 C 0.87367 0.49744 0.87052 0.0
H1319 H 0.96521 0.53895 0.91455 0.0
H1320 H 0.93315 0.51044 0.9028 0.0
H1321 H 0.93747 0.49464 0.88524 0.0
H1322 H 0.87209 0.43236 0.8426 0.0
H1323 H 0.89824 0.4658 0.85454 0.0
C1324 C 0.96539 0.75247 0.09519 0.0
C1325 C 0.97099 0.72164 0.09735 0.0
C1326 C 0.94457 0.76903 0.10102 0.0
C1327 C 0.88129 0.76205 0.11964 0.0
H1328 H 0.90877 0.8419 0.12818 0.0
C1329 C 0.85389 0.85879 0.15211 0.0
C1330 C 0.82215 0.86185 0.15118 0.0
C1331 C 0.87027 0.84092 0.14525 0.0
C1332 C 0.90081 0.81959 0.1259 0.0
H1333 H 0.95822 0.68376 0.10711 0.0
H1334 H 0.92219 0.71285 0.11738 0.0
H1335 H 0.93995 0.8121 0.11655 0.0
H1336 H 0.78262 0.84782 0.1424 0.0
H1337 H 0.81143 0.81661 0.13033 0.0
H1338 H 0.84246 0.76942 0.12927 0.0
C1339 C 0.9337 0.72411 0.1111 0.0
C1340 C 0.9185 0.80266 0.11913 0.0
C1341 C 0.9545 0.70749 0.10525 0.0
C1342 C 0.80707 0.84598 0.14333 0.0
C1343 C 0.82353 0.82801 0.13645 0.0
C1344 C 0.86351 0.77909 0.12643 0.0
C1345 C 0.92892 0.75521 0.10917 0.0
C1346 C 0.90909 0.7736 0.11597 0.0
C1347 C 0.85536 0.82564 0.13726 0.0
C1348 C 0.87329 0.8079 0.12971 0.0
H1349 H 0.97745 0.76403 0.0891 0.0
H1350 H 0.941 0.79282 0.09922 0.0
H1351 H 0.87331 0.73984 0.11728 0.0
H1352 H 0.86627 0.87047 0.1581 0.0
H1353 H 0.89471 0.83908 0.1462 0.0
C1354 C 0.69743 0.86047 0.35855 0.0
C1355 C 0.67856 0.876 0.35159 0.0
C1356 C 0.68474 0.8426 0.36633 0.0
C1357 C 0.61283 0.83248 0.38069 0.0
H1358 H 0.6469 0.75419 0.38815 0.0
C1359 C 0.57175 0.71726 0.40259 0.0
C1360 C 0.5557 0.73023 0.4108 0.0
C1361 C 0.59026 0.73523 0.39634 0.0
C1362 C 0.63708 0.77598 0.38614 0.0
H1363 H 0.63158 0.88406 0.34716 0.0
H1364 H 0.60967 0.85263 0.36053 0.0
H1365 H 0.67154 0.78471 0.37492 0.0
H1366 H 0.54793 0.77197 0.41925 0.0
H1367 H 0.58072 0.80318 0.40848 0.0
H1368 H 0.57769 0.82337 0.39154 0.0
C1369 C 0.63421 0.8548 0.36016 0.0
C1370 C 0.65138 0.79361 0.37863 0.0
C1371 C 0.64682 0.87268 0.35244 0.0
C1372 C 0.55971 0.7613 0.41292 0.0
C1373 C 0.57839 0.77924 0.40671 0.0
C1374 C 0.59851 0.81487 0.38815 0.0
C1375 C 0.65296 0.83989 0.36729 0.0
C1376 C 0.63912 0.82185 0.37571 0.0
C1377 C 0.59332 0.76656 0.3982 0.0
C1378 C 0.61021 0.78623 0.39089 0.0
H1379 H 0.72197 0.86258 0.35812 0.0
H1380 H 0.69981 0.83153 0.37173 0.0
H1381 H 0.60308 0.85437 0.37876 0.0
H1382 H 0.5692 0.69339 0.40073 0.0
H1383 H 0.60112 0.72475 0.3898 0.0
C1384 C 0.4134 0.66815 0.40031 0.0
C1385 C 0.41479 0.68542 0.40935 0.0
C1386 C 0.39189 0.67492 0.39275 0.0
C1387 C 0.32192 0.71888 0.38674 0.0
H1388 H 0.36229 0.7333 0.36084 0.0
C1389 C 0.27622 0.80279 0.35645 0.0
C1390 C 0.2853 0.7995 0.34621 0.0
C1391 C 0.28603 0.78205 0.36388 0.0
C1392 C 0.35019 0.72872 0.36789 0.0
H1393 H 0.39283 0.72161 0.41788 0.0
H1394 H 0.35529 0.73327 0.40472 0.0
H1395 H 0.38973 0.70847 0.37456 0.0
H1396 H 0.30907 0.77027 0.33554 0.0
H1397 H 0.32478 0.73323 0.34836 0.0
H1398 H 0.28243 0.73956 0.38009 0.0
C1399 C 0.37091 0.71457 0.40346 0.0
C1400 C 0.36609 0.71451 0.3758 0.0
C1401 C 0.39257 0.70797 0.41099 0.0
C1402 C 0.30204 0.77361 0.3434 0.0
C1403 C 0.31131 0.75254 0.35078 0.0
C1404 C 0.3058 0.7328 0.37875 0.0
C1405 C 0.37111 0.69891 0.3941 0.0
C1406 C 0.35242 0.71004 0.38539 0.0
C1407 C 0.3047 0.75725 0.3612 0.0
C1408 C 0.31997 0.7386 0.36928 0.0
H1409 H 0.43 0.65049 0.39879 0.0
H1410 H 0.39231 0.66219 0.38566 0.0
H1411 H 0.31072 0.7155 0.39403 0.0
H1412 H 0.26345 0.8226 0.35886 0.0
H1413 H 0.28056 0.78671 0.37179 0.0
C1414 C 0.24589 0.80154 0.15424 0.0
C1415 C 0.22271 0.80918 0.16119 0.0
C1416 C 0.24204 0.7773 0.14741 0.0
C1417 C 0.18678 0.71524 0.14 0.0
H1418 H 0.21106 0.73852 0.11263 0.0
C1419 C 0.13255 0.71398 0.09756 0.0
C1420 C 0.11648 0.68637 0.09794 0.0
C1421 C 0.15456 0.72077 0.10489 0.0
C1422 C 0.20394 0.73166 0.12021 0.0
H1423 H 0.17845 0.7956 0.167 0.0
H1424 H 0.1712 0.75476 0.155 0.0
H1425 H 0.23229 0.76512 0.12714 0.0
H1426 H 0.113 0.64305 0.10579 0.0
H1427 H 0.15237 0.65442 0.1184 0.0
H1428 H 0.15597 0.68405 0.13303 0.0
C1429 C 0.19271 0.76673 0.15483 0.0
C1430 C 0.21664 0.74662 0.12862 0.0
C1431 C 0.19677 0.79055 0.16172 0.0
C1432 C 0.1247 0.66469 0.10536 0.0
C1433 C 0.14714 0.67134 0.11264 0.0
C1434 C 0.17351 0.7008 0.13159 0.0
C1435 C 0.21473 0.76047 0.14729 0.0
C1436 C 0.20713 0.73964 0.13863 0.0
C1437 C 0.16157 0.69997 0.11274 0.0
C1438 C 0.18082 0.70986 0.12156 0.0
H1439 H 0.26638 0.81516 0.15372 0.0
H1440 H 0.25994 0.77268 0.14194 0.0
H1441 H 0.17967 0.70837 0.14759 0.0
H1442 H 0.12692 0.73126 0.09196 0.0
H1443 H 0.1646 0.74324 0.10472 0.0
C1444 C 0.10133 0.65218 0.89902 0.0
C1445 C 0.09749 0.63022 0.90675 0.0
C1446 C 0.12263 0.64766 0.89119 0.0
C1447 C 0.18457 0.59444 0.88239 0.0
H1448 H 0.14986 0.6107 0.8557 0.0
C1449 C 0.23022 0.5317 0.84711 0.0
C1450 C 0.20741 0.51969 0.84074 0.0
C1451 C 0.22329 0.55445 0.85423 0.0
C1452 C 0.15993 0.60588 0.86308 0.0
H1453 H 0.11495 0.58756 0.91274 0.0
H1454 H 0.1509 0.57925 0.89909 0.0
H1455 H 0.12678 0.63304 0.87075 0.0
H1456 H 0.15985 0.5237 0.83641 0.0
H1457 H 0.14759 0.56213 0.84893 0.0
H1458 H 0.21588 0.56494 0.87483 0.0
C1459 C 0.13803 0.60025 0.89904 0.0
C1460 C 0.14695 0.6192 0.87175 0.0
C1461 C 0.11706 0.60491 0.90689 0.0
C1462 C 0.17804 0.53233 0.84119 0.0
C1463 C 0.17103 0.55471 0.84837 0.0
C1464 C 0.19719 0.58066 0.87374 0.0
C1465 C 0.14038 0.62097 0.89087 0.0
C1466 C 0.15828 0.6126 0.88158 0.0
C1467 C 0.1933 0.56547 0.85522 0.0
C1468 C 0.18421 0.58516 0.86401 0.0
H1469 H 0.08687 0.67213 0.89873 0.0
H1470 H 0.12427 0.6645 0.88517 0.0
H1471 H 0.19456 0.58952 0.88978 0.0
H1472 H 0.25319 0.52273 0.84688 0.0
H1473 H 0.24124 0.56264 0.85919 0.0
C1474 C 0.26706 0.51708 0.64635 0.0
C1475 C 0.27955 0.51377 0.65617 0.0
C1476 C 0.27279 0.54333 0.64061 0.0
C1477 C 0.33371 0.60078 0.63908 0.0
H1478 H 0.28959 0.62443 0.61466 0.0
C1479 C 0.39733 0.66144 0.6075 0.0
C1480 C 0.39627 0.64391 0.59852 0.0
C1481 C 0.37492 0.65794 0.61502 0.0
C1482 C 0.30203 0.61838 0.62152 0.0
H1483 H 0.30444 0.53668 0.6682 0.0
H1484 H 0.31293 0.58318 0.65846 0.0
H1485 H 0.26378 0.5949 0.62792 0.0
H1486 H 0.3688 0.61227 0.58977 0.0
H1487 H 0.32991 0.60623 0.60282 0.0
H1488 H 0.37218 0.62315 0.63257 0.0
C1489 C 0.30004 0.56501 0.65494 0.0
C1490 C 0.28733 0.60127 0.6291 0.0
C1491 C 0.29494 0.53847 0.66057 0.0
C1492 C 0.37047 0.6258 0.59667 0.0
C1493 C 0.34801 0.62248 0.60414 0.0
C1494 C 0.34821 0.61811 0.63159 0.0
C1495 C 0.29066 0.56707 0.64466 0.0
C1496 C 0.30341 0.59105 0.63778 0.0
C1497 C 0.35096 0.6371 0.61364 0.0
C1498 C 0.33298 0.62599 0.62252 0.0
H1499 H 0.25516 0.49835 0.64274 0.0
H1500 H 0.26524 0.54379 0.63273 0.0
H1501 H 0.34721 0.59313 0.64552 0.0
H1502 H 0.41679 0.67576 0.60913 0.0
H1503 H 0.37752 0.66988 0.62221 0.0
C1504 C 0.93317 0.00155 0.0565 0.0
C1505 C 0.9236 0.00232 0.06677 0.0
C1506 C 0.94323 0.97442 0.05214 0.0
C1507 C 0.95054 0.89152 0.05573 0.0
H1508 H 0.03634 0.90496 0.05015 0.0
C1509 C 0.06141 0.82432 0.06645 0.0
C1510 C 0.05346 0.79501 0.06314 0.0
C1511 C 0.04636 0.84972 0.06249 0.0
C1512 C 0.01232 0.90089 0.05147 0.0
H1513 H 0.91283 0.97456 0.08001 0.0
H1514 H 0.92994 0.92711 0.07233 0.0
H1515 H 0.00174 0.94835 0.05127 0.0
H1516 H 0.02631 0.76966 0.05217 0.0
H1517 H -0.00025 0.81398 0.04546 0.0
H1518 H 0.96148 0.8442 0.05654 0.0
C1519 C 0.93014 0.94758 0.06772 0.0
C1520 C 0.99248 0.92562 0.05205 0.0
C1521 C 0.92044 0.97481 0.07213 0.0
C1522 C 0.03262 0.79188 0.05502 0.0
C1523 C 0.01737 0.81721 0.05115 0.0
C1524 C 0.97029 0.86675 0.05499 0.0
C1525 C 0.94325 0.94753 0.05791 0.0
C1526 C 0.96171 0.92121 0.05464 0.0
C1527 C 0.02308 0.84614 0.0552 0.0
C1528 C 0.00158 0.87137 0.05331 0.0
H1529 H 0.93518 0.02225 0.05207 0.0
H1530 H 0.95286 0.97481 0.04452 0.0
H1531 H 0.92692 0.88759 0.05773 0.0
H1532 H 0.07756 0.82752 0.07261 0.0
H1533 H 0.05114 0.87184 0.06576 0.0
C1534 C 0.42654 0.84947 0.31409 0.0
C1535 C 0.39709 0.85661 0.31065 0.0
C1536 C 0.45187 0.86369 0.30974 0.0
C1537 C 0.46937 0.93775 0.30123 0.0
H1538 H 0.55007 0.90514 0.29633 0.0
C1539 C 0.60365 0.97657 0.30093 0.0
C1540 C 0.60723 0.97987 0.31155 0.0
C1541 C 0.5756 0.96738 0.29692 0.0
C1542 C 0.52753 0.91465 0.2974 0.0
H1543 H 0.37144 0.8817 0.29919 0.0
H1544 H 0.41561 0.90711 0.29187 0.0
H1545 H 0.50591 0.87111 0.29596 0.0
H1546 H 0.58397 0.98011 0.32614 0.0
H1547 H 0.53459 0.96587 0.31906 0.0
H1548 H 0.49138 0.98061 0.30379 0.0
C1549 C 0.419 0.89051 0.2979 0.0
C1550 C 0.5024 0.89519 0.29725 0.0
C1551 C 0.39374 0.87594 0.30212 0.0
C1552 C 0.58167 0.97768 0.31793 0.0
C1553 C 0.55349 0.96957 0.31388 0.0
C1554 C 0.49456 0.95705 0.30161 0.0
C1555 C 0.44808 0.88546 0.30196 0.0
C1556 C 0.4733 0.90643 0.29954 0.0
C1557 C 0.55069 0.96274 0.30345 0.0
C1558 C 0.52389 0.94539 0.30006 0.0
H1559 H 0.42989 0.83451 0.32058 0.0
H1560 H 0.47413 0.85955 0.31303 0.0
H1561 H 0.44715 0.94687 0.30314 0.0
H1562 H 0.62305 0.97824 0.29586 0.0
H1563 H 0.57382 0.96211 0.28885 0.0
C1564 C 0.55147 0.33749 0.56023 0.0
C1565 C 0.54239 0.30877 0.55668 0.0
C1566 C 0.53663 0.36372 0.55682 0.0
C1567 C 0.46075 0.38504 0.55083 0.0
H1568 H 0.49548 0.46483 0.546 0.0
C1569 C 0.42761 0.5209 0.55261 0.0
C1570 C 0.42339 0.52282 0.56323 0.0
C1571 C 0.4359 0.49319 0.54815 0.0
C1572 C 0.48531 0.44261 0.54708 0.0
H1573 H 0.5125 0.2853 0.54604 0.0
H1574 H 0.48617 0.33107 0.54034 0.0
H1575 H 0.52758 0.41954 0.54434 0.0
H1576 H 0.42144 0.4974 0.57739 0.0
H1577 H 0.43424 0.4487 0.56954 0.0
H1578 H 0.4193 0.40833 0.55455 0.0
C1579 C 0.5048 0.3332 0.54572 0.0
C1580 C 0.5037 0.41681 0.5462 0.0
C1581 C 0.51996 0.30704 0.549 0.0
C1582 C 0.42435 0.49629 0.56916 0.0
C1583 C 0.43167 0.46851 0.56468 0.0
C1584 C 0.44254 0.41087 0.55191 0.0
C1585 C 0.51225 0.36159 0.54989 0.0
C1586 C 0.49181 0.38793 0.54842 0.0
C1587 C 0.439 0.46705 0.55424 0.0
C1588 C 0.45499 0.43988 0.55039 0.0
H1589 H 0.56877 0.33957 0.5661 0.0
H1590 H 0.54266 0.38538 0.5602 0.0
H1591 H 0.45113 0.36303 0.55269 0.0
H1592 H 0.42728 0.5412 0.54791 0.0
H1593 H 0.44161 0.49252 0.54009 0.0
C1594 C 0.07035 0.4609 0.80977 0.0
C1595 C 0.09967 0.45131 0.80695 0.0
C1596 C 0.04469 0.44695 0.80553 0.0
C1597 C 0.02458 0.37162 0.79776 0.0
H1598 H 0.94499 0.4073 0.7932 0.0
C1599 C 0.88834 0.33915 0.79831 0.0
C1600 C 0.88654 0.33203 0.80876 0.0
C1601 C 0.91613 0.34821 0.79405 0.0
C1602 C 0.96718 0.3969 0.79418 0.0
H1603 H 0.125 0.42209 0.7966 0.0
H1604 H 0.08026 0.39759 0.78937 0.0
H1605 H 0.99032 0.43961 0.79265 0.0
H1606 H 0.91212 0.32589 0.82274 0.0
H1607 H 0.96092 0.34008 0.81521 0.0
H1608 H 0.00117 0.32949 0.80022 0.0
C1609 C 0.07716 0.41561 0.79492 0.0
C1610 C 0.99302 0.41542 0.79395 0.0
C1611 C 0.10276 0.42966 0.79909 0.0
C1612 C 0.91318 0.33096 0.81464 0.0
C1613 C 0.94102 0.33909 0.81032 0.0
C1614 C -0.00127 0.35324 0.79815 0.0
C1615 C 0.04798 0.42316 0.79843 0.0
C1616 C 0.02179 0.40314 0.79615 0.0
C1617 C 0.94242 0.34928 0.80015 0.0
C1618 C 0.96975 0.36598 0.79677 0.0
H1619 H 0.06718 0.47766 0.81574 0.0
H1620 H 0.02241 0.45312 0.80841 0.0
H1621 H 0.04646 0.36157 0.79958 0.0
H1622 H 0.86794 0.34042 0.79368 0.0
H1623 H 0.91674 0.35611 0.78621 0.0
C1624 C 0.02605 0.2941 0.94989 0.0
C1625 C 0.99554 0.29473 0.94663 0.0
C1626 C 0.0387 0.31891 0.95495 0.0
C1627 C 0.02233 0.39533 0.96582 0.0
H1628 H 0.09149 0.41893 0.94918 0.0
C1629 C 0.03665 0.51265 0.9501 0.0
C1630 C 0.06501 0.52362 0.94678 0.0
C1631 C 0.03444 0.4849 0.95513 0.0
C1632 C 0.07294 0.41263 0.95421 0.0
H1633 H 0.95361 0.3207 0.94689 0.0
H1634 H 0.97601 0.3647 0.95543 0.0
H1635 H 0.07425 0.36684 0.94895 0.0
H1636 H 0.11368 0.5155 0.94697 0.0
H1637 H 0.10984 0.46641 0.95578 0.0
H1638 H 0.0201 0.4418 0.9706 0.0
C1639 C 0.99003 0.34476 0.95423 0.0
C1640 C 0.0629 0.3826 0.95405 0.0
C1641 C 0.97724 0.31969 0.94925 0.0
C1642 C 0.09148 0.50736 0.94932 0.0
C1643 C 0.08926 0.47932 0.95437 0.0
C1644 C 0.03259 0.4254 0.96606 0.0
C1645 C 0.02123 0.34506 0.95673 0.0
C1646 C 0.03642 0.37408 0.95936 0.0
C1647 C 0.06055 0.46729 0.95697 0.0
C1648 C 0.05673 0.43475 0.95971 0.0
H1649 H 0.04068 0.27498 0.94815 0.0
H1650 H 0.06265 0.31831 0.95694 0.0
H1651 H 0.00224 0.38919 0.97016 0.0
H1652 H 0.01579 0.52483 0.94842 0.0
H1653 H 0.0119 0.47635 0.95686 0.0
C1654 C 0.11219 0.87813 0.20499 0.0
C1655 C 0.11233 0.85518 0.19751 0.0
C1656 C 0.08541 0.88571 0.21008 0.0
C1657 C 0.0038 0.86657 0.2134 0.0
H1658 H 0.99174 0.95063 0.20531 0.0
C1659 C 0.89483 0.90723 0.19566 0.0
C1660 C 0.88619 0.93801 0.19572 0.0
C1661 C 0.92073 0.89759 0.20082 0.0
C1662 C 0.99462 0.92749 0.20799 0.0
H1663 H 0.08547 0.81976 0.19036 0.0
H1664 H 0.03833 0.83339 0.19913 0.0
H1665 H 0.04271 0.92996 0.20596 0.0
H1666 H 0.89681 0.9825 0.20188 0.0
H1667 H 0.94251 0.96553 0.21102 0.0
H1668 H 0.95542 0.86384 0.21499 0.0
C1669 C 0.05903 0.84541 0.20111 0.0
C1670 C 0.02398 0.91555 0.20833 0.0
C1671 C 0.08597 0.83771 0.19603 0.0
C1672 C 0.90316 0.95871 0.20158 0.0
C1673 C 0.92926 0.94897 0.20681 0.0
C1674 C 0.97438 0.87867 0.21322 0.0
C1675 C 0.05822 0.87056 0.20775 0.0
C1676 C 0.02867 0.88455 0.21045 0.0
C1677 C 0.93876 0.91839 0.20626 0.0
C1678 C 0.96936 0.9087 0.20984 0.0
H1679 H 0.13231 0.89153 0.20648 0.0
H1680 H 0.08549 0.90487 0.21528 0.0
H1681 H 0.00689 0.84273 0.21522 0.0
H1682 H 0.88212 0.8905 0.19133 0.0
H1683 H 0.92748 0.87403 0.2 0.0
C1684 C 0.48048 0.78974 0.45619 0.0
C1685 C 0.45643 0.78921 0.44908 0.0
C1686 C 0.48972 0.81705 0.46061 0.0
C1687 C 0.4735 0.8998 0.46238 0.0
H1688 H 0.55707 0.90742 0.45311 0.0
C1689 C 0.51598 0.00393 0.44193 0.0
C1690 C 0.54681 0.01245 0.44202 0.0
C1691 C 0.50602 0.97882 0.44744 0.0
C1692 C 0.53411 0.9058 0.45608 0.0
H1693 H 0.4208 0.81609 0.44201 0.0
H1694 H 0.43718 0.86396 0.44962 0.0
H1695 H 0.53489 0.85739 0.45517 0.0
H1696 H 0.59119 0.00212 0.4484 0.0
H1697 H 0.57369 0.95763 0.45808 0.0
H1698 H 0.47236 0.94841 0.46277 0.0
C1699 C 0.44887 0.84325 0.45181 0.0
C1700 C 0.5213 0.877 0.45725 0.0
C1701 C 0.43956 0.81585 0.44739 0.0
C1702 C 0.56735 0.99589 0.4481 0.0
C1703 C 0.55731 0.97052 0.45365 0.0
C1704 C 0.48644 0.92865 0.46133 0.0
C1705 C 0.47509 0.84432 0.45799 0.0
C1706 C 0.49039 0.8738 0.45984 0.0
C1707 C 0.52658 0.96144 0.45324 0.0
C1708 C 0.51627 0.93194 0.45753 0.0
H1709 H 0.49357 0.76944 0.45782 0.0
H1710 H 0.50967 0.81716 0.46548 0.0
H1711 H 0.44977 0.89792 0.46455 0.0
H1712 H 0.49939 0.01626 0.4374 0.0
H1713 H 0.48236 0.97222 0.44672 0.0
C1714 C 0.5807 0.3384 0.68791 0.0
C1715 C 0.60956 0.34757 0.69135 0.0
C1716 C 0.5544 0.35047 0.69234 0.0
C1717 C 0.53229 0.42288 0.70195 0.0
H1718 H 0.4529 0.38525 0.70471 0.0
C1719 C 0.39619 0.45557 0.70108 0.0
C1720 C 0.39467 0.46421 0.69075 0.0
C1721 C 0.42371 0.44525 0.70522 0.0
C1722 C 0.475 0.3961 0.70424 0.0
H1723 H 0.63338 0.37371 0.70296 0.0
H1724 H 0.58749 0.39515 0.71051 0.0
H1725 H 0.49874 0.35349 0.70499 0.0
H1726 H 0.42058 0.47162 0.6769 0.0
H1727 H 0.46897 0.45523 0.68428 0.0
H1728 H 0.50839 0.46507 0.70019 0.0
C1729 C 0.58527 0.37883 0.70435 0.0
C1730 C 0.50113 0.37794 0.70433 0.0
C1731 C 0.61152 0.36654 0.69999 0.0
C1732 C 0.42139 0.46527 0.68491 0.0
C1733 C 0.44898 0.45592 0.68913 0.0
C1734 C 0.50617 0.44092 0.70168 0.0
C1735 C 0.55658 0.372 0.70025 0.0
C1736 C 0.52989 0.39107 0.70279 0.0
C1737 C 0.45007 0.44454 0.69916 0.0
C1738 C 0.47731 0.42751 0.70242 0.0
H1739 H 0.57839 0.32361 0.68133 0.0
H1740 H 0.53252 0.3449 0.68901 0.0
H1741 H 0.55417 0.43357 0.70064 0.0
H1742 H 0.37573 0.4543 0.70568 0.0
H1743 H 0.42411 0.43639 0.71295 0.0
loop_
_geom_bond_atom_site_label_1
_geom_bond_atom_site_label_2
_geom_bond_distance
_geom_bond_site_symmetry_2
_ccdc_geom_bond_type
Co0 O3 1.970 1_455 S
Co0 N17 1.989 . S
Co0 O25 1.967 . S
Co0 O32 1.920 . S
Co1 O4 1.966 1_455 S
Co1 N10 2.022 . S
Co1 N18 1.993 . S
Co1 O26 1.941 . S
C2 O3 1.258 . S
C2 O4 1.263 . S
O3 Co0 1.970 1_655 S
O3 C2 1.258 . S
O4 Co1 1.966 1_655 S
O4 C2 1.263 . S
C5 O6 1.235 . S
C5 O32 1.289 1_655 S
O6 C5 1.235 . S
C7 C9 1.398 1_655 S
C7 N10 1.351 1_655 S
C7 C12 1.501 . S
C8 C9 1.396 . S
C8 N11 1.341 . S
C9 C7 1.398 1_455 S
C9 C8 1.396 . S
N10 Co1 2.022 . S
N10 C7 1.351 1_455 S
N10 N11 1.365 . S
N11 C8 1.341 . S
N11 N10 1.365 . S
N11 H31 0.862 . S
C12 C7 1.501 . S
C12 H13 0.961 . S
C12 H14 0.961 . S
C12 H15 0.960 . S
H13 C12 0.961 . S
H14 C12 0.961 . S
H15 C12 0.960 . S
C16 N17 1.342 . S
C16 C20 1.401 . S
C16 C21 1.499 . S
N17 Co0 1.989 . S
N17 C16 1.342 . S
N17 N18 1.388 . S
N18 Co1 1.993 . S
N18 N17 1.388 . S
N18 C19 1.346 . S
C19 N18 1.346 . S
C19 C20 1.396 . S
C19 C29 1.510 . S
C20 C16 1.401 . S
C20 C19 1.396 . S
C21 C16 1.499 . S
C21 H22 0.959 . S
C21 H23 0.960 . S
C21 H24 0.961 . S
H22 C21 0.959 . S
H23 C21 0.960 . S
H24 C21 0.961 . S
O25 Co0 1.967 . S
O25 C33 1.258 . S
O26 Co1 1.941 . S
O26 C33 1.266 . S
H27 C29 0.959 . S
H28 C29 0.961 1_655 S
C29 C19 1.510 . S
C29 H27 0.959 . S
C29 H28 0.961 1_455 S
C29 H30 0.960 . S
H30 C29 0.960 . S
H31 N11 0.862 . S
O32 Co0 1.920 . S
O32 C5 1.289 1_455 S
C33 O25 1.258 . S
C33 O26 1.266 . S
Co34 O37 1.970 . S
Co34 N51 1.989 . S
Co34 O59 1.967 . S
Co34 O66 1.920 . S
Co35 O38 1.966 . S
Co35 N44 2.022 . S
Co35 N52 1.993 . S
Co35 O60 1.941 . S
C36 O37 1.258 . S
C36 O38 1.263 . S
O37 Co34 1.970 . S
O37 C36 1.258 . S
O38 Co35 1.966 . S
O38 C36 1.263 . S
C39 O40 1.235 . S
C39 O66 1.289 . S
O40 C39 1.235 . S
C41 C43 1.400 . S
C41 N44 1.351 . S
C41 C46 1.501 . S
C42 C43 1.387 . S
C42 N45 1.341 . S
C43 C41 1.400 . S
C43 C42 1.387 . S
N44 Co35 2.022 . S
N44 C41 1.351 . S
N44 N45 1.365 . S
N45 C42 1.341 . S
N45 N44 1.365 . S
N45 H65 0.862 . S
C46 C41 1.501 . S
C46 H47 0.961 . S
C46 H48 0.961 . S
C46 H49 0.960 . S
H47 C46 0.961 . S
H48 C46 0.961 . S
H49 C46 0.960 . S
C50 N51 1.342 . S
C50 C54 1.401 . S
C50 C55 1.499 . S
N51 Co34 1.989 . S
N51 C50 1.342 . S
N51 N52 1.388 . S
N52 Co35 1.993 . S
N52 N51 1.388 . S
N52 C53 1.346 . S
C53 N52 1.346 . S
C53 C54 1.396 . S
C53 C63 1.510 . S
C54 C50 1.401 . S
C54 C53 1.396 . S
C55 C50 1.499 . S
C55 H56 0.959 . S
C55 H57 0.960 . S
C55 H58 0.961 . S
H56 C55 0.959 . S
H57 C55 0.960 . S
H58 C55 0.961 . S
O59 Co34 1.967 . S
O59 C67 1.258 . S
O60 Co35 1.941 . S
O60 C67 1.266 . S
H61 C63 0.959 . S
H62 C63 0.961 . S
C63 C53 1.510 . S
C63 H61 0.959 . S
C63 H62 0.961 . S
C63 H64 0.960 . S
H64 C63 0.960 . S
H65 N45 0.862 . S
O66 Co34 1.920 . S
O66 C39 1.289 . S
C67 O59 1.258 . S
C67 O60 1.266 . S
Co68 O71 1.970 . S
Co68 N85 1.989 . S
Co68 O93 1.967 . S
Co68 O100 1.920 . S
Co69 O72 1.966 . S
Co69 N78 2.022 . S
Co69 N86 1.993 . S
Co69 O94 1.941 . S
C70 O71 1.258 . S
C70 O72 1.263 . S
O71 Co68 1.970 . S
O71 C70 1.258 . S
O72 Co69 1.966 . S
O72 C70 1.263 . S
C73 O74 1.235 . S
C73 O100 1.289 . S
O74 C73 1.235 . S
C75 C77 1.400 . S
C75 N78 1.351 . S
C75 C80 1.501 . S
C76 C77 1.387 . S
C76 N79 1.341 . S
C77 C75 1.400 . S
C77 C76 1.387 . S
N78 Co69 2.022 . S
N78 C75 1.351 . S
N78 N79 1.365 . S
N79 C76 1.341 . S
N79 N78 1.365 . S
N79 H99 0.862 . S
C80 C75 1.501 . S
C80 H81 0.961 . S
C80 H82 0.961 . S
C80 H83 0.960 . S
H81 C80 0.961 . S
H82 C80 0.961 . S
H83 C80 0.960 . S
C84 N85 1.342 . S
C84 C88 1.401 . S
C84 C89 1.499 . S
N85 Co68 1.989 . S
N85 C84 1.342 . S
N85 N86 1.388 . S
N86 Co69 1.993 . S
N86 N85 1.388 . S
N86 C87 1.346 . S
C87 N86 1.346 . S
C87 C88 1.396 . S
C87 C97 1.510 . S
C88 C84 1.401 . S
C88 C87 1.396 . S
C89 C84 1.499 . S
C89 H90 0.959 . S
C89 H91 0.960 . S
C89 H92 0.961 . S
H90 C89 0.959 . S
H91 C89 0.960 . S
H92 C89 0.961 . S
O93 Co68 1.967 . S
O93 C101 1.258 . S
O94 Co69 1.941 . S
O94 C101 1.266 . S
H95 C97 0.959 . S
H96 C97 0.961 . S
C97 C87 1.510 . S
C97 H95 0.959 . S
C97 H96 0.961 . S
C97 H98 0.960 . S
H98 C97 0.960 . S
H99 N79 0.862 . S
O100 Co68 1.920 . S
O100 C73 1.289 . S
C101 O93 1.258 . S
C101 O94 1.266 . S
Co102 O105 1.970 . S
Co102 N119 1.989 . S
Co102 O127 1.967 . S
Co102 O134 1.920 . S
Co103 O106 1.966 . S
Co103 N112 2.022 . S
Co103 N120 1.993 . S
Co103 O128 1.941 . S
C104 O105 1.258 . S
C104 O106 1.263 . S
O105 Co102 1.970 . S
O105 C104 1.258 . S
O106 Co103 1.966 . S
O106 C104 1.263 . S
C107 O108 1.235 . S
C107 O134 1.289 . S
O108 C107 1.235 . S
C109 C111 1.400 . S
C109 N112 1.351 . S
C109 C114 1.501 . S
C110 C111 1.387 . S
C110 N113 1.341 . S
C111 C109 1.400 . S
C111 C110 1.387 . S
N112 Co103 2.022 . S
N112 C109 1.351 . S
N112 N113 1.365 . S
N113 C110 1.341 . S
N113 N112 1.365 . S
N113 H133 0.862 . S
C114 C109 1.501 . S
C114 H115 0.961 . S
C114 H116 0.961 . S
C114 H117 0.960 . S
H115 C114 0.961 . S
H116 C114 0.961 . S
H117 C114 0.960 . S
C118 N119 1.342 . S
C118 C122 1.401 . S
C118 C123 1.499 . S
N119 Co102 1.989 . S
N119 C118 1.342 . S
N119 N120 1.388 . S
N120 Co103 1.993 . S
N120 N119 1.388 . S
N120 C121 1.346 . S
C121 N120 1.346 . S
C121 C122 1.396 . S
C121 C131 1.510 . S
C122 C118 1.401 . S
C122 C121 1.396 . S
C123 C118 1.499 . S
C123 H124 0.959 . S
C123 H125 0.960 . S
C123 H126 0.961 . S
H124 C123 0.959 . S
H125 C123 0.960 . S
H126 C123 0.961 . S
O127 Co102 1.967 . S
O127 C135 1.258 . S
O128 Co103 1.941 . S
O128 C135 1.266 . S
H129 C131 0.959 . S
H130 C131 0.961 . S
C131 C121 1.510 . S
C131 H129 0.959 . S
C131 H130 0.961 . S
C131 H132 0.960 . S
H132 C131 0.960 . S
H133 N113 0.862 . S
O134 Co102 1.920 . S
O134 C107 1.289 . S
C135 O127 1.258 . S
C135 O128 1.266 . S
Co136 O139 1.970 1_455 S
Co136 N153 1.989 . S
Co136 O161 1.967 . S
Co136 O168 1.920 . S
Co137 O140 1.966 1_455 S
Co137 N146 2.022 . S
Co137 N154 1.993 . S
Co137 O162 1.941 . S
C138 O139 1.258 . S
C138 O140 1.263 . S
O139 Co136 1.970 1_655 S
O139 C138 1.258 . S
O140 Co137 1.966 1_655 S
O140 C138 1.263 . S
C141 O142 1.235 . S
C141 O168 1.289 1_655 S
O142 C141 1.235 . S
C143 C145 1.398 1_655 S
C143 N146 1.351 1_655 S
C143 C148 1.501 . S
C144 C145 1.397 . S
C144 N147 1.341 . S
C145 C143 1.398 1_455 S
C145 C144 1.397 . S
N146 Co137 2.022 . S
N146 C143 1.351 1_455 S
N146 N147 1.365 . S
N147 C144 1.341 . S
N147 N146 1.365 . S
N147 H167 0.862 . S
C148 C143 1.501 . S
C148 H149 0.961 . S
C148 H150 0.961 . S
C148 H151 0.960 . S
H149 C148 0.961 . S
H150 C148 0.961 . S
H151 C148 0.960 . S
C152 N153 1.342 . S
C152 C156 1.401 . S
C152 C157 1.499 . S
N153 Co136 1.989 . S
N153 C152 1.342 . S
N153 N154 1.388 . S
N154 Co137 1.993 . S
N154 N153 1.388 . S
N154 C155 1.346 . S
C155 N154 1.346 . S
C155 C156 1.396 . S
C155 C165 1.510 . S
C156 C152 1.401 . S
C156 C155 1.396 . S
C157 C152 1.499 . S
C157 H158 0.959 . S
C157 H159 0.960 . S
C157 H160 0.961 . S
H158 C157 0.959 . S
H159 C157 0.960 . S
H160 C157 0.961 . S
O161 Co136 1.967 . S
O161 C169 1.258 . S
O162 Co137 1.941 . S
O162 C169 1.266 . S
H163 C165 0.959 . S
H164 C165 0.961 1_655 S
C165 C155 1.510 . S
C165 H163 0.959 . S
C165 H164 0.961 1_455 S
C165 H166 0.960 . S
H166 C165 0.960 . S
H167 N147 0.862 . S
O168 Co136 1.920 . S
O168 C141 1.289 1_455 S
C169 O161 1.258 . S
C169 O162 1.266 . S
Co170 O173 1.970 . S
Co170 N187 1.989 . S
Co170 O195 1.967 . S
Co170 O202 1.920 . S
Co171 O174 1.966 . S
Co171 N180 2.022 . S
Co171 N188 1.993 . S
Co171 O196 1.941 . S
C172 O173 1.258 . S
C172 O174 1.263 . S
O173 Co170 1.970 . S
O173 C172 1.258 . S
O174 Co171 1.966 . S
O174 C172 1.263 . S
C175 O176 1.235 . S
C175 O202 1.289 . S
O176 C175 1.235 . S
C177 C179 1.400 . S
C177 N180 1.351 . S
C177 C182 1.501 . S
C178 C179 1.387 . S
C178 N181 1.341 . S
C179 C177 1.400 . S
C179 C178 1.387 . S
N180 Co171 2.022 . S
N180 C177 1.351 . S
N180 N181 1.365 . S
N181 C178 1.341 . S
N181 N180 1.365 . S
N181 H201 0.862 . S
C182 C177 1.501 . S
C182 H183 0.961 . S
C182 H184 0.961 . S
C182 H185 0.960 . S
H183 C182 0.961 . S
H184 C182 0.961 . S
H185 C182 0.960 . S
C186 N187 1.342 . S
C186 C190 1.401 . S
C186 C191 1.499 . S
N187 Co170 1.989 . S
N187 C186 1.342 . S
N187 N188 1.388 . S
N188 Co171 1.993 . S
N188 N187 1.388 . S
N188 C189 1.346 . S
C189 N188 1.346 . S
C189 C190 1.396 . S
C189 C199 1.510 . S
C190 C186 1.401 . S
C190 C189 1.396 . S
C191 C186 1.499 . S
C191 H192 0.959 . S
C191 H193 0.960 . S
C191 H194 0.961 . S
H192 C191 0.959 . S
H193 C191 0.960 . S
H194 C191 0.961 . S
O195 Co170 1.967 . S
O195 C203 1.258 . S
O196 Co171 1.941 . S
O196 C203 1.266 . S
H197 C199 0.959 . S
H198 C199 0.961 . S
C199 C189 1.510 . S
C199 H197 0.959 . S
C199 H198 0.961 . S
C199 H200 0.960 . S
H200 C199 0.960 . S
H201 N181 0.862 . S
O202 Co170 1.920 . S
O202 C175 1.289 . S
C203 O195 1.258 . S
C203 O196 1.266 . S
Co204 O207 1.970 . S
Co204 N221 1.989 . S
Co204 O229 1.967 . S
Co204 O236 1.920 . S
Co205 O208 1.966 . S
Co205 N214 2.022 . S
Co205 N222 1.993 . S
Co205 O230 1.941 . S
C206 O207 1.258 . S
C206 O208 1.263 . S
O207 Co204 1.970 . S
O207 C206 1.258 . S
O208 Co205 1.966 . S
O208 C206 1.263 . S
C209 O210 1.235 . S
C209 O236 1.289 . S
O210 C209 1.235 . S
C211 C213 1.400 . S
C211 N214 1.351 . S
C211 C216 1.501 . S
C212 C213 1.387 . S
C212 N215 1.341 . S
C213 C211 1.400 . S
C213 C212 1.387 . S
N214 Co205 2.022 . S
N214 C211 1.351 . S
N214 N215 1.365 . S
N215 C212 1.341 . S
N215 N214 1.365 . S
N215 H235 0.862 . S
C216 C211 1.501 . S
C216 H217 0.961 . S
C216 H218 0.961 . S
C216 H219 0.960 . S
H217 C216 0.961 . S
H218 C216 0.961 . S
H219 C216 0.960 . S
C220 N221 1.342 . S
C220 C224 1.401 . S
C220 C225 1.499 . S
N221 Co204 1.989 . S
N221 C220 1.342 . S
N221 N222 1.388 . S
N222 Co205 1.993 . S
N222 N221 1.388 . S
N222 C223 1.346 . S
C223 N222 1.346 . S
C223 C224 1.396 . S
C223 C233 1.510 . S
C224 C220 1.401 . S
C224 C223 1.396 . S
C225 C220 1.499 . S
C225 H226 0.959 . S
C225 H227 0.960 . S
C225 H228 0.961 . S
H226 C225 0.959 . S
H227 C225 0.960 . S
H228 C225 0.961 . S
O229 Co204 1.967 . S
O229 C237 1.258 . S
O230 Co205 1.941 . S
O230 C237 1.266 . S
H231 C233 0.959 . S
H232 C233 0.961 . S
C233 C223 1.510 . S
C233 H231 0.959 . S
C233 H232 0.961 . S
C233 H234 0.960 . S
H234 C233 0.960 . S
H235 N215 0.862 . S
O236 Co204 1.920 . S
O236 C209 1.289 . S
C237 O229 1.258 . S
C237 O230 1.266 . S
Co238 O241 1.970 . S
Co238 N255 1.989 . S
Co238 O263 1.967 . S
Co238 O270 1.920 . S
Co239 O242 1.966 . S
Co239 N248 2.022 . S
Co239 N256 1.993 . S
Co239 O264 1.941 . S
C240 O241 1.258 . S
C240 O242 1.263 . S
O241 Co238 1.970 . S
O241 C240 1.258 . S
O242 Co239 1.966 . S
O242 C240 1.263 . S
C243 O244 1.235 . S
C243 O270 1.289 . S
O244 C243 1.235 . S
C245 C247 1.400 . S
C245 N248 1.351 . S
C245 C250 1.501 . S
C246 C247 1.387 . S
C246 N249 1.341 . S
C247 C245 1.400 . S
C247 C246 1.387 . S
N248 Co239 2.022 . S
N248 C245 1.351 . S
N248 N249 1.365 . S
N249 C246 1.341 . S
N249 N248 1.365 . S
N249 H269 0.862 . S
C250 C245 1.501 . S
C250 H251 0.961 . S
C250 H252 0.961 . S
C250 H253 0.960 . S
H251 C250 0.961 . S
H252 C250 0.961 . S
H253 C250 0.960 . S
C254 N255 1.342 . S
C254 C258 1.401 . S
C254 C259 1.499 . S
N255 Co238 1.989 . S
N255 C254 1.342 . S
N255 N256 1.388 . S
N256 Co239 1.993 . S
N256 N255 1.388 . S
N256 C257 1.346 . S
C257 N256 1.346 . S
C257 C258 1.396 . S
C257 C267 1.510 . S
C258 C254 1.401 . S
C258 C257 1.396 . S
C259 C254 1.499 . S
C259 H260 0.959 . S
C259 H261 0.960 . S
C259 H262 0.961 . S
H260 C259 0.959 . S
H261 C259 0.960 . S
H262 C259 0.961 . S
O263 Co238 1.967 . S
O263 C271 1.258 . S
O264 Co239 1.941 . S
O264 C271 1.266 . S
H265 C267 0.959 . S
H266 C267 0.961 . S
C267 C257 1.510 . S
C267 H265 0.959 . S
C267 H266 0.961 . S
C267 H268 0.960 . S
H268 C267 0.960 . S
H269 N249 0.862 . S
O270 Co238 1.920 . S
O270 C243 1.289 . S
C271 O263 1.258 . S
C271 O264 1.266 . S
Co272 O275 1.970 . S
Co272 N289 1.989 . S
Co272 O297 1.967 . S
Co272 O304 1.920 . S
Co273 O276 1.966 . S
Co273 N282 2.022 . S
Co273 N290 1.993 . S
Co273 O298 1.941 . S
C274 O275 1.258 . S
C274 O276 1.263 . S
O275 Co272 1.970 . S
O275 C274 1.258 . S
O276 Co273 1.966 . S
O276 C274 1.263 . S
C277 O278 1.235 . S
C277 O304 1.289 . S
O278 C277 1.235 . S
C279 C281 1.400 . S
C279 N282 1.351 . S
C279 C284 1.501 . S
C280 C281 1.387 . S
C280 N283 1.341 . S
C281 C279 1.400 . S
C281 C280 1.387 . S
N282 Co273 2.022 . S
N282 C279 1.351 . S
N282 N283 1.365 . S
N283 C280 1.341 . S
N283 N282 1.365 . S
N283 H303 0.862 . S
C284 C279 1.501 . S
C284 H285 0.961 . S
C284 H286 0.961 . S
C284 H287 0.960 . S
H285 C284 0.961 . S
H286 C284 0.961 . S
H287 C284 0.960 . S
C288 N289 1.342 . S
C288 C292 1.401 . S
C288 C293 1.499 . S
N289 Co272 1.989 . S
N289 C288 1.342 . S
N289 N290 1.388 . S
N290 Co273 1.993 . S
N290 N289 1.388 . S
N290 C291 1.346 . S
C291 N290 1.346 . S
C291 C292 1.396 . S
C291 C301 1.510 . S
C292 C288 1.401 . S
C292 C291 1.396 . S
C293 C288 1.499 . S
C293 H294 0.959 . S
C293 H295 0.960 . S
C293 H296 0.961 . S
H294 C293 0.959 . S
H295 C293 0.960 . S
H296 C293 0.961 . S
O297 Co272 1.967 . S
O297 C305 1.258 . S
O298 Co273 1.941 . S
O298 C305 1.266 . S
H299 C301 0.959 . S
H300 C301 0.961 . S
C301 C291 1.510 . S
C301 H299 0.959 . S
C301 H300 0.961 . S
C301 H302 0.960 . S
H302 C301 0.960 . S
H303 N283 0.862 . S
O304 Co272 1.920 . S
O304 C277 1.289 . S
C305 O297 1.258 . S
C305 O298 1.266 . S
Co306 O309 1.970 . S
Co306 N323 1.989 . S
Co306 O331 1.967 . S
Co306 O338 1.920 . S
Co307 O310 1.966 . S
Co307 N316 2.022 . S
Co307 N324 1.993 . S
Co307 O332 1.941 . S
C308 O309 1.258 . S
C308 O310 1.263 . S
O309 Co306 1.970 . S
O309 C308 1.258 . S
O310 Co307 1.966 . S
O310 C308 1.263 . S
C311 O312 1.235 . S
C311 O338 1.289 . S
O312 C311 1.235 . S
C313 C315 1.400 . S
C313 N316 1.351 . S
C313 C318 1.501 . S
C314 C315 1.387 . S
C314 N317 1.341 . S
C315 C313 1.400 . S
C315 C314 1.387 . S
N316 Co307 2.022 . S
N316 C313 1.351 . S
N316 N317 1.365 . S
N317 C314 1.341 . S
N317 N316 1.365 . S
N317 H337 0.862 . S
C318 C313 1.501 . S
C318 H319 0.961 . S
C318 H320 0.961 . S
C318 H321 0.960 . S
H319 C318 0.961 . S
H320 C318 0.961 . S
H321 C318 0.960 . S
C322 N323 1.342 . S
C322 C326 1.401 . S
C322 C327 1.499 . S
N323 Co306 1.989 . S
N323 C322 1.342 . S
N323 N324 1.388 . S
N324 Co307 1.993 . S
N324 N323 1.388 . S
N324 C325 1.346 . S
C325 N324 1.346 . S
C325 C326 1.396 . S
C325 C335 1.510 . S
C326 C322 1.401 . S
C326 C325 1.396 . S
C327 C322 1.499 . S
C327 H328 0.959 . S
C327 H329 0.960 . S
C327 H330 0.961 . S
H328 C327 0.959 . S
H329 C327 0.960 . S
H330 C327 0.961 . S
O331 Co306 1.967 . S
O331 C339 1.258 . S
O332 Co307 1.941 . S
O332 C339 1.266 . S
H333 C335 0.959 . S
H334 C335 0.961 . S
C335 C325 1.510 . S
C335 H333 0.959 . S
C335 H334 0.961 . S
C335 H336 0.960 . S
H336 C335 0.960 . S
H337 N317 0.862 . S
O338 Co306 1.920 . S
O338 C311 1.289 . S
C339 O331 1.258 . S
C339 O332 1.266 . S
Co340 O343 1.970 . S
Co340 N357 1.989 . S
Co340 O365 1.967 . S
Co340 O372 1.920 . S
Co341 O344 1.966 . S
Co341 N350 2.022 . S
Co341 N358 1.993 . S
Co341 O366 1.941 . S
C342 O343 1.258 . S
C342 O344 1.263 . S
O343 Co340 1.970 . S
O343 C342 1.258 . S
O344 Co341 1.966 . S
O344 C342 1.263 . S
C345 O346 1.235 . S
C345 O372 1.289 . S
O346 C345 1.235 . S
C347 C349 1.400 . S
C347 N350 1.351 . S
C347 C352 1.501 . S
C348 C349 1.387 . S
C348 N351 1.341 . S
C349 C347 1.400 . S
C349 C348 1.387 . S
N350 Co341 2.022 . S
N350 C347 1.351 . S
N350 N351 1.365 . S
N351 C348 1.341 . S
N351 N350 1.365 . S
N351 H371 0.862 . S
C352 C347 1.501 . S
C352 H353 0.961 . S
C352 H354 0.961 . S
C352 H355 0.960 . S
H353 C352 0.961 . S
H354 C352 0.961 . S
H355 C352 0.960 . S
C356 N357 1.342 . S
C356 C360 1.401 . S
C356 C361 1.499 . S
N357 Co340 1.989 . S
N357 C356 1.342 . S
N357 N358 1.388 . S
N358 Co341 1.993 . S
N358 N357 1.388 . S
N358 C359 1.346 . S
C359 N358 1.346 . S
C359 C360 1.396 . S
C359 C369 1.510 . S
C360 C356 1.401 . S
C360 C359 1.396 . S
C361 C356 1.499 . S
C361 H362 0.959 . S
C361 H363 0.960 . S
C361 H364 0.961 . S
H362 C361 0.959 . S
H363 C361 0.960 . S
H364 C361 0.961 . S
O365 Co340 1.967 . S
O365 C373 1.258 . S
O366 Co341 1.941 . S
O366 C373 1.266 . S
H367 C369 0.959 . S
H368 C369 0.961 . S
C369 C359 1.510 . S
C369 H367 0.959 . S
C369 H368 0.961 . S
C369 H370 0.960 . S
H370 C369 0.960 . S
H371 N351 0.862 . S
O372 Co340 1.920 . S
O372 C345 1.289 . S
C373 O365 1.258 . S
C373 O366 1.266 . S
Co374 O377 1.970 . S
Co374 N391 1.989 . S
Co374 O399 1.967 . S
Co374 O406 1.920 . S
Co375 O378 1.966 . S
Co375 N384 2.022 . S
Co375 N392 1.993 . S
Co375 O400 1.941 . S
C376 O377 1.258 . S
C376 O378 1.263 . S
O377 Co374 1.970 . S
O377 C376 1.258 . S
O378 Co375 1.966 . S
O378 C376 1.263 . S
C379 O380 1.235 . S
C379 O406 1.289 . S
O380 C379 1.235 . S
C381 C383 1.400 . S
C381 N384 1.351 . S
C381 C386 1.501 . S
C382 C383 1.387 . S
C382 N385 1.341 . S
C383 C381 1.400 . S
C383 C382 1.387 . S
N384 Co375 2.022 . S
N384 C381 1.351 . S
N384 N385 1.365 . S
N385 C382 1.341 . S
N385 N384 1.365 . S
N385 H405 0.862 . S
C386 C381 1.501 . S
C386 H387 0.961 . S
C386 H388 0.961 . S
C386 H389 0.960 . S
H387 C386 0.961 . S
H388 C386 0.961 . S
H389 C386 0.960 . S
C390 N391 1.342 . S
C390 C394 1.401 . S
C390 C395 1.499 . S
N391 Co374 1.989 . S
N391 C390 1.342 . S
N391 N392 1.388 . S
N392 Co375 1.993 . S
N392 N391 1.388 . S
N392 C393 1.346 . S
C393 N392 1.346 . S
C393 C394 1.396 . S
C393 C403 1.510 . S
C394 C390 1.401 . S
C394 C393 1.396 . S
C395 C390 1.499 . S
C395 H396 0.959 . S
C395 H397 0.960 . S
C395 H398 0.961 . S
H396 C395 0.959 . S
H397 C395 0.960 . S
H398 C395 0.961 . S
O399 Co374 1.967 . S
O399 C407 1.258 . S
O400 Co375 1.941 . S
O400 C407 1.266 . S
H401 C403 0.959 . S
H402 C403 0.961 . S
C403 C393 1.510 . S
C403 H401 0.959 . S
C403 H402 0.961 . S
C403 H404 0.960 . S
H404 C403 0.960 . S
H405 N385 0.862 . S
O406 Co374 1.920 . S
O406 C379 1.289 . S
C407 O399 1.258 . S
C407 O400 1.266 . S
Co408 O411 1.970 . S
Co408 N425 1.989 . S
Co408 O433 1.967 . S
Co408 O440 1.920 . S
Co409 O412 1.966 . S
Co409 N418 2.022 . S
Co409 N426 1.993 . S
Co409 O434 1.941 . S
C410 O411 1.258 . S
C410 O412 1.263 . S
O411 Co408 1.970 . S
O411 C410 1.258 . S
O412 Co409 1.966 . S
O412 C410 1.263 . S
C413 O414 1.235 . S
C413 O440 1.289 . S
O414 C413 1.235 . S
C415 C417 1.400 . S
C415 N418 1.351 . S
C415 C420 1.501 . S
C416 C417 1.387 . S
C416 N419 1.341 . S
C417 C415 1.400 . S
C417 C416 1.387 . S
N418 Co409 2.022 . S
N418 C415 1.351 . S
N418 N419 1.365 . S
N419 C416 1.341 . S
N419 N418 1.365 . S
N419 H439 0.862 . S
C420 C415 1.501 . S
C420 H421 0.961 . S
C420 H422 0.961 . S
C420 H423 0.960 . S
H421 C420 0.961 . S
H422 C420 0.961 . S
H423 C420 0.960 . S
C424 N425 1.342 . S
C424 C428 1.401 . S
C424 C429 1.499 . S
N425 Co408 1.989 . S
N425 C424 1.342 . S
N425 N426 1.388 . S
N426 Co409 1.993 . S
N426 N425 1.388 . S
N426 C427 1.346 . S
C427 N426 1.346 . S
C427 C428 1.396 . S
C427 C437 1.510 . S
C428 C424 1.401 . S
C428 C427 1.396 . S
C429 C424 1.499 . S
C429 H430 0.959 . S
C429 H431 0.960 . S
C429 H432 0.961 . S
H430 C429 0.959 . S
H431 C429 0.960 . S
H432 C429 0.961 . S
O433 Co408 1.967 . S
O433 C441 1.258 . S
O434 Co409 1.941 . S
O434 C441 1.266 . S
H435 C437 0.959 . S
H436 C437 0.961 . S
C437 C427 1.510 . S
C437 H435 0.959 . S
C437 H436 0.961 . S
C437 H438 0.960 . S
H438 C437 0.960 . S
H439 N419 0.862 . S
O440 Co408 1.920 . S
O440 C413 1.289 . S
C441 O433 1.258 . S
C441 O434 1.266 . S
Co442 O445 1.970 . S
Co442 N459 1.989 . S
Co442 O467 1.967 1_455 S
Co442 O474 1.919 1_455 S
Co443 O446 1.966 1_655 S
Co443 N452 2.022 . S
Co443 N460 1.990 1_655 S
Co443 O468 1.941 . S
C444 O445 1.258 . S
C444 O446 1.263 . S
O445 Co442 1.970 . S
O445 C444 1.258 . S
O446 Co443 1.966 1_455 S
O446 C444 1.263 . S
C447 O448 1.235 . S
C447 O474 1.279 1_455 S
O448 C447 1.235 . S
C449 C451 1.400 . S
C449 N452 1.351 1_455 S
C449 C454 1.501 . S
C450 C451 1.387 1_655 S
C450 N453 1.341 . S
C451 C449 1.400 . S
C451 C450 1.387 1_455 S
N452 Co443 2.022 . S
N452 C449 1.351 1_655 S
N452 N453 1.365 . S
N453 C450 1.341 . S
N453 N452 1.365 . S
N453 H473 0.862 . S
C454 C449 1.501 . S
C454 H455 0.961 . S
C454 H456 0.961 . S
C454 H457 0.960 . S
H455 C454 0.961 . S
H456 C454 0.961 . S
H457 C454 0.960 . S
C458 N459 1.342 1_655 S
C458 C462 1.401 . S
C458 C463 1.499 . S
N459 Co442 1.989 . S
N459 C458 1.342 1_455 S
N459 N460 1.387 . S
N460 Co443 1.990 1_455 S
N460 N459 1.387 . S
N460 C461 1.342 1_455 S
C461 N460 1.342 1_655 S
C461 C462 1.396 . S
C461 C471 1.510 . S
C462 C458 1.401 . S
C462 C461 1.396 . S
C463 C458 1.499 . S
C463 H464 0.959 . S
C463 H465 0.960 1_655 S
C463 H466 0.961 . S
H464 C463 0.959 . S
H465 C463 0.960 1_455 S
H466 C463 0.961 . S
O467 Co442 1.967 1_655 S
O467 C475 1.258 . S
O468 Co443 1.941 . S
O468 C475 1.266 . S
H469 C471 0.959 . S
H470 C471 0.961 1_455 S
C471 C461 1.510 . S
C471 H469 0.959 . S
C471 H470 0.961 1_655 S
C471 H472 0.960 1_655 S
H472 C471 0.960 1_455 S
H473 N453 0.862 . S
O474 Co442 1.919 1_655 S
O474 C447 1.279 1_655 S
C475 O467 1.258 . S
C475 O468 1.266 . S
Co476 O479 1.970 . S
Co476 N493 1.989 . S
Co476 O501 1.967 . S
Co476 O508 1.920 . S
Co477 O480 1.966 . S
Co477 N486 2.022 . S
Co477 N494 1.993 . S
Co477 O502 1.941 . S
C478 O479 1.258 . S
C478 O480 1.263 . S
O479 Co476 1.970 . S
O479 C478 1.258 . S
O480 Co477 1.966 . S
O480 C478 1.263 . S
C481 O482 1.235 . S
C481 O508 1.289 . S
O482 C481 1.235 . S
C483 C485 1.400 . S
C483 N486 1.351 . S
C483 C488 1.501 . S
C484 C485 1.387 . S
C484 N487 1.341 . S
C485 C483 1.400 . S
C485 C484 1.387 . S
N486 Co477 2.022 . S
N486 C483 1.351 . S
N486 N487 1.365 . S
N487 C484 1.341 . S
N487 N486 1.365 . S
N487 H507 0.862 . S
C488 C483 1.501 . S
C488 H489 0.961 . S
C488 H490 0.961 . S
C488 H491 0.960 . S
H489 C488 0.961 . S
H490 C488 0.961 . S
H491 C488 0.960 . S
C492 N493 1.342 . S
C492 C496 1.401 . S
C492 C497 1.499 . S
N493 Co476 1.989 . S
N493 C492 1.342 . S
N493 N494 1.388 . S
N494 Co477 1.993 . S
N494 N493 1.388 . S
N494 C495 1.346 . S
C495 N494 1.346 . S
C495 C496 1.396 . S
C495 C505 1.510 . S
C496 C492 1.401 . S
C496 C495 1.396 . S
C497 C492 1.499 . S
C497 H498 0.959 . S
C497 H499 0.960 . S
C497 H500 0.961 . S
H498 C497 0.959 . S
H499 C497 0.960 . S
H500 C497 0.961 . S
O501 Co476 1.967 . S
O501 C509 1.258 . S
O502 Co477 1.941 . S
O502 C509 1.266 . S
H503 C505 0.959 . S
H504 C505 0.961 . S
C505 C495 1.510 . S
C505 H503 0.959 . S
C505 H504 0.961 . S
C505 H506 0.960 . S
H506 C505 0.960 . S
H507 N487 0.862 . S
O508 Co476 1.920 . S
O508 C481 1.289 . S
C509 O501 1.258 . S
C509 O502 1.266 . S
Co510 O513 1.970 . S
Co510 N527 1.989 1_455 S
Co510 O535 1.967 1_455 S
Co510 O542 1.919 1_455 S
Co511 O514 1.966 1_655 S
Co511 N520 2.022 . S
Co511 N528 1.990 1_655 S
Co511 O536 1.941 . S
C512 O513 1.258 . S
C512 O514 1.263 . S
O513 Co510 1.970 . S
O513 C512 1.258 . S
O514 Co511 1.966 1_455 S
O514 C512 1.263 . S
C515 O516 1.235 . S
C515 O542 1.279 1_455 S
O516 C515 1.235 . S
C517 C519 1.400 . S
C517 N520 1.351 1_455 S
C517 C522 1.501 . S
C518 C519 1.387 1_655 S
C518 N521 1.341 . S
C519 C517 1.400 . S
C519 C518 1.387 1_455 S
N520 Co511 2.022 . S
N520 C517 1.351 1_655 S
N520 N521 1.365 . S
N521 C518 1.341 . S
N521 N520 1.365 . S
N521 H541 0.862 . S
C522 C517 1.501 . S
C522 H523 0.961 . S
C522 H524 0.961 . S
C522 H525 0.960 . S
H523 C522 0.961 . S
H524 C522 0.961 . S
H525 C522 0.960 . S
C526 N527 1.341 . S
C526 C530 1.401 . S
C526 C531 1.499 . S
N527 Co510 1.989 1_655 S
N527 C526 1.341 . S
N527 N528 1.387 1_655 S
N528 Co511 1.990 1_455 S
N528 N527 1.387 1_455 S
N528 C529 1.342 1_455 S
C529 N528 1.342 1_655 S
C529 C530 1.396 . S
C529 C539 1.510 . S
C530 C526 1.401 . S
C530 C529 1.396 . S
C531 C526 1.499 . S
C531 H532 0.959 . S
C531 H533 0.960 1_655 S
C531 H534 0.961 . S
H532 C531 0.959 . S
H533 C531 0.960 1_455 S
H534 C531 0.961 . S
O535 Co510 1.967 1_655 S
O535 C543 1.258 . S
O536 Co511 1.941 . S
O536 C543 1.266 . S
H537 C539 0.959 . S
H538 C539 0.961 1_455 S
C539 C529 1.510 . S
C539 H537 0.959 . S
C539 H538 0.961 1_655 S
C539 H540 0.960 1_655 S
H540 C539 0.960 1_455 S
H541 N521 0.862 . S
O542 Co510 1.919 1_655 S
O542 C515 1.279 1_655 S
C543 O535 1.258 . S
C543 O536 1.266 . S
C544 C545 1.349 . S
C544 C546 1.327 . S
C544 H569 0.950 1_455 S
C545 C544 1.349 . S
C545 C561 1.349 . S
C546 C544 1.327 . S
C546 C565 1.429 . S
C546 H570 0.950 1_455 S
C547 C564 1.574 . S
C547 C566 1.368 . S
C547 H571 0.949 . S
H548 C552 0.949 . S
C549 C550 1.349 1_455 S
C549 C551 1.327 . S
C549 H572 0.950 . S
C550 C549 1.349 1_655 S
C550 C562 1.349 . S
C551 C549 1.327 . S
C551 C567 1.429 1_455 S
C551 H573 0.950 . S
C552 H548 0.949 . S
C552 C560 1.574 . S
C552 C568 1.368 1_655 S
H553 C561 0.950 . S
H554 C559 0.950 . S
H555 C560 0.949 . S
H556 C562 0.950 . S
H557 C563 0.950 . S
H558 C564 0.949 . S
C559 H554 0.950 . S
C559 C561 1.327 . S
C559 C565 1.429 . S
C560 C552 1.574 . S
C560 H555 0.949 . S
C560 C566 1.368 1_655 S
C561 C545 1.349 . S
C561 H553 0.950 . S
C561 C559 1.327 . S
C562 C550 1.349 . S
C562 H556 0.950 . S
C562 C563 1.327 . S
C563 H557 0.950 . S
C563 C562 1.327 . S
C563 C567 1.429 . S
C564 C547 1.574 . S
C564 H558 0.949 . S
C564 C568 1.368 . S
C565 C546 1.429 . S
C565 C559 1.429 . S
C565 C566 1.523 . S
C566 C547 1.368 . S
C566 C560 1.368 1_455 S
C566 C565 1.523 . S
C567 C551 1.429 1_655 S
C567 C563 1.429 . S
C567 C568 1.523 1_655 S
C568 C552 1.368 1_455 S
C568 C564 1.368 . S
C568 C567 1.523 1_455 S
H569 C544 0.950 1_655 S
H570 C546 0.950 1_655 S
H571 C547 0.949 . S
H572 C549 0.950 . S
H573 C551 0.950 . S
C574 C575 1.349 . S
C574 C576 1.327 . S
C574 H599 0.950 . S
C575 C574 1.349 . S
C575 C591 1.349 . S
C576 C574 1.327 . S
C576 C595 1.429 . S
C576 H600 0.950 . S
C577 C594 1.574 1_455 S
C577 C596 1.368 . S
C577 H601 0.949 . S
H578 C582 0.949 . S
C579 C580 1.349 . S
C579 C581 1.327 . S
C579 H602 0.950 . S
C580 C579 1.349 . S
C580 C592 1.349 . S
C581 C579 1.327 . S
C581 C597 1.429 . S
C581 H603 0.950 . S
C582 H578 0.949 . S
C582 C590 1.574 1_655 S
C582 C598 1.368 . S
H583 C591 0.950 . S
H584 C589 0.950 . S
H585 C590 0.949 . S
H586 C592 0.950 . S
H587 C593 0.950 . S
H588 C594 0.949 . S
C589 H584 0.950 . S
C589 C591 1.327 . S
C589 C595 1.429 . S
C590 C582 1.574 1_455 S
C590 H585 0.949 . S
C590 C596 1.368 . S
C591 C575 1.349 . S
C591 H583 0.950 . S
C591 C589 1.327 . S
C592 C580 1.349 . S
C592 H586 0.950 . S
C592 C593 1.327 . S
C593 H587 0.950 . S
C593 C592 1.327 . S
C593 C597 1.429 . S
C594 C577 1.574 1_655 S
C594 H588 0.949 . S
C594 C598 1.368 . S
C595 C576 1.429 . S
C595 C589 1.429 . S
C595 C596 1.523 . S
C596 C577 1.368 . S
C596 C590 1.368 . S
C596 C595 1.523 . S
C597 C581 1.429 . S
C597 C593 1.429 . S
C597 C598 1.523 . S
C598 C582 1.368 . S
C598 C594 1.368 . S
C598 C597 1.523 . S
H599 C574 0.950 . S
H600 C576 0.950 . S
H601 C577 0.949 . S
H602 C579 0.950 . S
H603 C581 0.950 . S
C604 C605 1.349 . S
C604 C606 1.327 1_545 S
C604 H629 0.950 . S
C605 C604 1.349 . S
C605 C621 1.349 . S
C606 C604 1.327 1_565 S
C606 C625 1.429 . S
C606 H630 0.950 . S
C607 C624 1.574 . S
C607 C626 1.368 . S
C607 H631 0.949 . S
H608 C612 0.949 . S
C609 C610 1.349 . S
C609 C611 1.327 . S
C609 H632 0.950 . S
C610 C609 1.349 . S
C610 C622 1.349 . S
C611 C609 1.327 . S
C611 C627 1.429 . S
C611 H633 0.950 . S
C612 H608 0.949 . S
C612 C620 1.574 . S
C612 C628 1.368 . S
H613 C621 0.950 . S
H614 C619 0.950 . S
H615 C620 0.949 . S
H616 C622 0.950 . S
H617 C623 0.950 . S
H618 C624 0.949 . S
C619 H614 0.950 . S
C619 C621 1.327 1_565 S
C619 C625 1.429 . S
C620 C612 1.574 . S
C620 H615 0.949 . S
C620 C626 1.368 . S
C621 C605 1.349 . S
C621 H613 0.950 . S
C621 C619 1.327 1_545 S
C622 C610 1.349 . S
C622 H616 0.950 . S
C622 C623 1.327 . S
C623 H617 0.950 . S
C623 C622 1.327 . S
C623 C627 1.429 . S
C624 C607 1.574 . S
C624 H618 0.949 . S
C624 C628 1.368 . S
C625 C606 1.429 . S
C625 C619 1.429 . S
C625 C626 1.523 . S
C626 C607 1.368 . S
C626 C620 1.368 . S
C626 C625 1.523 . S
C627 C611 1.429 . S
C627 C623 1.429 . S
C627 C628 1.523 . S
C628 C612 1.368 . S
C628 C624 1.368 . S
C628 C627 1.523 . S
H629 C604 0.950 . S
H630 C606 0.950 . S
H631 C607 0.949 . S
H632 C609 0.950 . S
H633 C611 0.950 . S
C634 C635 1.349 . S
C634 C636 1.327 . S
C634 H659 0.950 . S
C635 C634 1.349 . S
C635 C651 1.349 . S
C636 C634 1.327 . S
C636 C655 1.429 . S
C636 H660 0.950 . S
C637 C654 1.574 . S
C637 C656 1.368 . S
C637 H661 0.949 . S
H638 C642 0.949 . S
C639 C640 1.349 . S
C639 C641 1.327 . S
C639 H662 0.950 . S
C640 C639 1.349 . S
C640 C652 1.349 . S
C641 C639 1.327 . S
C641 C657 1.429 . S
C641 H663 0.950 . S
C642 H638 0.949 . S
C642 C650 1.574 . S
C642 C658 1.368 . S
H643 C651 0.950 . S
H644 C649 0.950 . S
H645 C650 0.949 . S
H646 C652 0.950 . S
H647 C653 0.950 . S
H648 C654 0.949 . S
C649 H644 0.950 . S
C649 C651 1.327 . S
C649 C655 1.429 . S
C650 C642 1.574 . S
C650 H645 0.949 . S
C650 C656 1.368 . S
C651 C635 1.349 . S
C651 H643 0.950 . S
C651 C649 1.327 . S
C652 C640 1.349 . S
C652 H646 0.950 . S
C652 C653 1.327 . S
C653 H647 0.950 . S
C653 C652 1.327 . S
C653 C657 1.429 . S
C654 C637 1.574 . S
C654 H648 0.949 . S
C654 C658 1.368 . S
C655 C636 1.429 . S
C655 C649 1.429 . S
C655 C656 1.523 . S
C656 C637 1.368 . S
C656 C650 1.368 . S
C656 C655 1.523 . S
C657 C641 1.429 . S
C657 C653 1.429 . S
C657 C658 1.523 . S
C658 C642 1.368 . S
C658 C654 1.368 . S
C658 C657 1.523 . S
H659 C634 0.950 . S
H660 C636 0.950 . S
H661 C637 0.949 . S
H662 C639 0.950 . S
H663 C641 0.950 . S
C664 C665 1.349 . S
C664 C666 1.327 . S
C664 H689 0.950 . S
C665 C664 1.349 . S
C665 C681 1.349 . S
C666 C664 1.327 . S
C666 C685 1.429 . S
C666 H690 0.950 . S
C667 C684 1.574 . S
C667 C686 1.368 1_655 S
C667 H691 0.949 . S
H668 C672 0.949 . S
C669 C670 1.349 . S
C669 C671 1.327 1_545 S
C669 H692 0.950 . S
C670 C669 1.349 . S
C670 C682 1.349 1_655 S
C671 C669 1.327 1_565 S
C671 C687 1.429 . S
C671 H693 0.950 . S
C672 H668 0.949 . S
C672 C680 1.574 . S
C672 C688 1.368 . S
H673 C681 0.950 1_655 S
H674 C679 0.950 1_655 S
H675 C680 0.949 . S
H676 C682 0.950 . S
H677 C683 0.950 . S
H678 C684 0.949 . S
C679 H674 0.950 1_455 S
C679 C681 1.327 . S
C679 C685 1.429 . S
C680 C672 1.574 . S
C680 H675 0.949 . S
C680 C686 1.368 . S
C681 C665 1.349 . S
C681 H673 0.950 1_455 S
C681 C679 1.327 . S
C682 C670 1.349 1_455 S
C682 H676 0.950 . S
C682 C683 1.327 1_545 S
C683 H677 0.950 . S
C683 C682 1.327 1_565 S
C683 C687 1.429 1_455 S
C684 C667 1.574 . S
C684 H678 0.949 . S
C684 C688 1.368 1_655 S
C685 C666 1.429 . S
C685 C679 1.429 . S
C685 C686 1.523 . S
C686 C667 1.368 1_455 S
C686 C680 1.368 . S
C686 C685 1.523 . S
C687 C671 1.429 . S
C687 C683 1.429 1_655 S
C687 C688 1.523 1_655 S
C688 C672 1.368 . S
C688 C684 1.368 1_455 S
C688 C687 1.523 1_455 S
H689 C664 0.950 . S
H690 C666 0.950 . S
H691 C667 0.949 . S
H692 C669 0.950 . S
H693 C671 0.950 . S
C694 C695 1.349 . S
C694 C696 1.327 . S
C694 H719 0.950 . S
C695 C694 1.349 . S
C695 C711 1.349 . S
C696 C694 1.327 . S
C696 C715 1.429 . S
C696 H720 0.950 . S
C697 C714 1.574 . S
C697 C716 1.368 . S
C697 H721 0.949 . S
H698 C702 0.949 . S
C699 C700 1.349 . S
C699 C701 1.327 . S
C699 H722 0.950 . S
C700 C699 1.349 . S
C700 C712 1.349 . S
C701 C699 1.327 . S
C701 C717 1.429 . S
C701 H723 0.950 . S
C702 H698 0.949 . S
C702 C710 1.574 . S
C702 C718 1.368 . S
H703 C711 0.950 . S
H704 C709 0.950 . S
H705 C710 0.949 . S
H706 C712 0.950 . S
H707 C713 0.950 . S
H708 C714 0.949 . S
C709 H704 0.950 . S
C709 C711 1.327 . S
C709 C715 1.429 . S
C710 C702 1.574 . S
C710 H705 0.949 . S
C710 C716 1.368 . S
C711 C695 1.349 . S
C711 H703 0.950 . S
C711 C709 1.327 . S
C712 C700 1.349 . S
C712 H706 0.950 . S
C712 C713 1.327 . S
C713 H707 0.950 . S
C713 C712 1.327 . S
C713 C717 1.429 . S
C714 C697 1.574 . S
C714 H708 0.949 . S
C714 C718 1.368 . S
C715 C696 1.429 . S
C715 C709 1.429 . S
C715 C716 1.523 . S
C716 C697 1.368 . S
C716 C710 1.368 . S
C716 C715 1.523 . S
C717 C701 1.429 . S
C717 C713 1.429 . S
C717 C718 1.523 . S
C718 C702 1.368 . S
C718 C714 1.368 . S
C718 C717 1.523 . S
H719 C694 0.950 . S
H720 C696 0.950 . S
H721 C697 0.949 . S
H722 C699 0.950 . S
H723 C701 0.950 . S
C724 C725 1.349 . S
C724 C726 1.327 . S
C724 H749 0.950 . S
C725 C724 1.349 . S
C725 C741 1.349 . S
C726 C724 1.327 . S
C726 C745 1.429 . S
C726 H750 0.950 . S
C727 C744 1.574 . S
C727 C746 1.368 . S
C727 H751 0.949 . S
H728 C732 0.949 . S
C729 C730 1.349 . S
C729 C731 1.327 . S
C729 H752 0.950 . S
C730 C729 1.349 . S
C730 C742 1.349 . S
C731 C729 1.327 . S
C731 C747 1.429 . S
C731 H753 0.950 . S
C732 H728 0.949 . S
C732 C740 1.574 . S
C732 C748 1.368 . S
H733 C741 0.950 . S
H734 C739 0.950 . S
H735 C740 0.949 . S
H736 C742 0.950 . S
H737 C743 0.950 . S
H738 C744 0.949 . S
C739 H734 0.950 . S
C739 C741 1.327 . S
C739 C745 1.429 . S
C740 C732 1.574 . S
C740 H735 0.949 . S
C740 C746 1.368 . S
C741 C725 1.349 . S
C741 H733 0.950 . S
C741 C739 1.327 . S
C742 C730 1.349 . S
C742 H736 0.950 . S
C742 C743 1.327 . S
C743 H737 0.950 . S
C743 C742 1.327 . S
C743 C747 1.429 . S
C744 C727 1.574 . S
C744 H738 0.949 . S
C744 C748 1.368 . S
C745 C726 1.429 . S
C745 C739 1.429 . S
C745 C746 1.523 . S
C746 C727 1.368 . S
C746 C740 1.368 . S
C746 C745 1.523 . S
C747 C731 1.429 . S
C747 C743 1.429 . S
C747 C748 1.523 . S
C748 C732 1.368 . S
C748 C744 1.368 . S
C748 C747 1.523 . S
H749 C724 0.950 . S
H750 C726 0.950 . S
H751 C727 0.949 . S
H752 C729 0.950 . S
H753 C731 0.950 . S
C754 C755 1.349 . S
C754 C756 1.327 . S
C754 H779 0.950 . S
C755 C754 1.349 . S
C755 C771 1.349 . S
C756 C754 1.327 . S
C756 C775 1.429 . S
C756 H780 0.950 . S
C757 C774 1.574 1_655 S
C757 C776 1.368 . S
C757 H781 0.949 . S
H758 C762 0.949 . S
C759 C760 1.349 . S
C759 C761 1.327 . S
C759 H782 0.950 . S
C760 C759 1.349 . S
C760 C772 1.349 . S
C761 C759 1.327 . S
C761 C777 1.429 . S
C761 H783 0.950 . S
C762 H758 0.949 . S
C762 C770 1.574 1_455 S
C762 C778 1.368 . S
H763 C771 0.950 . S
H764 C769 0.950 . S
H765 C770 0.949 . S
H766 C772 0.950 . S
H767 C773 0.950 . S
H768 C774 0.949 . S
C769 H764 0.950 . S
C769 C771 1.327 . S
C769 C775 1.429 . S
C770 C762 1.574 1_655 S
C770 H765 0.949 . S
C770 C776 1.368 . S
C771 C755 1.349 . S
C771 H763 0.950 . S
C771 C769 1.327 . S
C772 C760 1.349 . S
C772 H766 0.950 . S
C772 C773 1.327 . S
C773 H767 0.950 . S
C773 C772 1.327 . S
C773 C777 1.429 . S
C774 C757 1.574 1_455 S
C774 H768 0.949 . S
C774 C778 1.368 . S
C775 C756 1.429 . S
C775 C769 1.429 . S
C775 C776 1.523 . S
C776 C757 1.368 . S
C776 C770 1.368 . S
C776 C775 1.523 . S
C777 C761 1.429 . S
C777 C773 1.429 . S
C777 C778 1.523 . S
C778 C762 1.368 . S
C778 C774 1.368 . S
C778 C777 1.523 . S
H779 C754 0.950 . S
H780 C756 0.950 . S
H781 C757 0.949 . S
H782 C759 0.950 . S
H783 C761 0.950 . S
C784 C785 1.349 . S
C784 C786 1.327 . S
C784 H809 0.950 1_455 S
C785 C784 1.349 . S
C785 C801 1.349 . S
C786 C784 1.327 . S
C786 C805 1.429 . S
C786 H810 0.950 1_455 S
C787 C804 1.574 1_554 S
C787 C806 1.368 . S
C787 H811 0.949 . S
H788 C792 0.949 1_655 S
C789 C790 1.349 . S
C789 C791 1.327 . S
C789 H812 0.950 . S
C790 C789 1.349 . S
C790 C802 1.349 . S
C791 C789 1.327 . S
C791 C807 1.429 . S
C791 H813 0.950 . S
C792 H788 0.949 1_455 S
C792 C800 1.574 1_556 S
C792 C808 1.368 . S
H793 C801 0.950 . S
H794 C799 0.950 . S
H795 C800 0.949 1_655 S
H796 C802 0.950 1_655 S
H797 C803 0.950 1_655 S
H798 C804 0.949 . S
C799 H794 0.950 . S
C799 C801 1.327 . S
C799 C805 1.429 . S
C800 C792 1.574 1_554 S
C800 H795 0.949 1_455 S
C800 C806 1.368 . S
C801 C785 1.349 . S
C801 H793 0.950 . S
C801 C799 1.327 . S
C802 C790 1.349 . S
C802 H796 0.950 1_455 S
C802 C803 1.327 . S
C803 H797 0.950 1_455 S
C803 C802 1.327 . S
C803 C807 1.429 . S
C804 C787 1.574 1_556 S
C804 H798 0.949 . S
C804 C808 1.368 . S
C805 C786 1.429 . S
C805 C799 1.429 . S
C805 C806 1.523 . S
C806 C787 1.368 . S
C806 C800 1.368 . S
C806 C805 1.523 . S
C807 C791 1.429 . S
C807 C803 1.429 . S
C807 C808 1.523 . S
C808 C792 1.368 . S
C808 C804 1.368 . S
C808 C807 1.523 . S
H809 C784 0.950 1_655 S
H810 C786 0.950 1_655 S
H811 C787 0.949 . S
H812 C789 0.950 . S
H813 C791 0.950 . S
C814 C815 1.349 . S
C814 C816 1.327 . S
C814 H839 0.950 . S
C815 C814 1.349 . S
C815 C831 1.349 . S
C816 C814 1.327 . S
C816 C835 1.429 . S
C816 H840 0.950 . S
C817 C834 1.574 . S
C817 C836 1.368 . S
C817 H841 0.949 . S
H818 C822 0.949 . S
C819 C820 1.349 . S
C819 C821 1.327 . S
C819 H842 0.950 . S
C820 C819 1.349 . S
C820 C832 1.349 . S
C821 C819 1.327 . S
C821 C837 1.429 . S
C821 H843 0.950 . S
C822 H818 0.949 . S
C822 C830 1.574 . S
C822 C838 1.368 . S
H823 C831 0.950 . S
H824 C829 0.950 . S
H825 C830 0.949 . S
H826 C832 0.950 . S
H827 C833 0.950 . S
H828 C834 0.949 . S
C829 H824 0.950 . S
C829 C831 1.327 . S
C829 C835 1.429 . S
C830 C822 1.574 . S
C830 H825 0.949 . S
C830 C836 1.368 . S
C831 C815 1.349 . S
C831 H823 0.950 . S
C831 C829 1.327 . S
C832 C820 1.349 . S
C832 H826 0.950 . S
C832 C833 1.327 . S
C833 H827 0.950 . S
C833 C832 1.327 . S
C833 C837 1.429 . S
C834 C817 1.574 . S
C834 H828 0.949 . S
C834 C838 1.368 . S
C835 C816 1.429 . S
C835 C829 1.429 . S
C835 C836 1.523 . S
C836 C817 1.368 . S
C836 C830 1.368 . S
C836 C835 1.523 . S
C837 C821 1.429 . S
C837 C833 1.429 . S
C837 C838 1.523 . S
C838 C822 1.368 . S
C838 C834 1.368 . S
C838 C837 1.523 . S
H839 C814 0.950 . S
H840 C816 0.950 . S
H841 C817 0.949 . S
H842 C819 0.950 . S
H843 C821 0.950 . S
C844 C845 1.349 . S
C844 C846 1.327 . S
C844 H869 0.950 . S
C845 C844 1.349 . S
C845 C861 1.349 . S
C846 C844 1.327 . S
C846 C865 1.429 . S
C846 H870 0.950 . S
C847 C864 1.574 . S
C847 C866 1.368 . S
C847 H871 0.949 . S
H848 C852 0.949 . S
C849 C850 1.349 . S
C849 C851 1.327 . S
C849 H872 0.950 . S
C850 C849 1.349 . S
C850 C862 1.349 . S
C851 C849 1.327 . S
C851 C867 1.429 . S
C851 H873 0.950 . S
C852 H848 0.949 . S
C852 C860 1.574 . S
C852 C868 1.368 . S
H853 C861 0.950 . S
H854 C859 0.950 . S
H855 C860 0.949 . S
H856 C862 0.950 . S
H857 C863 0.950 . S
H858 C864 0.949 . S
C859 H854 0.950 . S
C859 C861 1.327 . S
C859 C865 1.429 . S
C860 C852 1.574 . S
C860 H855 0.949 . S
C860 C866 1.368 . S
C861 C845 1.349 . S
C861 H853 0.950 . S
C861 C859 1.327 . S
C862 C850 1.349 . S
C862 H856 0.950 . S
C862 C863 1.327 . S
C863 H857 0.950 . S
C863 C862 1.327 . S
C863 C867 1.429 . S
C864 C847 1.574 . S
C864 H858 0.949 . S
C864 C868 1.368 . S
C865 C846 1.429 . S
C865 C859 1.429 . S
C865 C866 1.523 . S
C866 C847 1.368 . S
C866 C860 1.368 . S
C866 C865 1.523 . S
C867 C851 1.429 . S
C867 C863 1.429 . S
C867 C868 1.523 . S
C868 C852 1.368 . S
C868 C864 1.368 . S
C868 C867 1.523 . S
H869 C844 0.950 . S
H870 C846 0.950 . S
H871 C847 0.949 . S
H872 C849 0.950 . S
H873 C851 0.950 . S
C874 C875 1.349 . S
C874 C876 1.327 . S
C874 H899 0.950 . S
C875 C874 1.349 . S
C875 C891 1.349 . S
C876 C874 1.327 . S
C876 C895 1.429 . S
C876 H900 0.950 . S
C877 C894 1.574 . S
C877 C896 1.368 . S
C877 H901 0.949 . S
H878 C882 0.949 . S
C879 C880 1.349 . S
C879 C881 1.327 . S
C879 H902 0.950 . S
C880 C879 1.349 . S
C880 C892 1.349 . S
C881 C879 1.327 . S
C881 C897 1.429 . S
C881 H903 0.950 . S
C882 H878 0.949 . S
C882 C890 1.574 . S
C882 C898 1.368 . S
H883 C891 0.950 . S
H884 C889 0.950 . S
H885 C890 0.949 . S
H886 C892 0.950 . S
H887 C893 0.950 . S
H888 C894 0.949 . S
C889 H884 0.950 . S
C889 C891 1.327 . S
C889 C895 1.429 . S
C890 C882 1.574 . S
C890 H885 0.949 . S
C890 C896 1.368 . S
C891 C875 1.349 . S
C891 H883 0.950 . S
C891 C889 1.327 . S
C892 C880 1.349 . S
C892 H886 0.950 . S
C892 C893 1.327 . S
C893 H887 0.950 . S
C893 C892 1.327 . S
C893 C897 1.429 . S
C894 C877 1.574 . S
C894 H888 0.949 . S
C894 C898 1.368 . S
C895 C876 1.429 . S
C895 C889 1.429 . S
C895 C896 1.523 . S
C896 C877 1.368 . S
C896 C890 1.368 . S
C896 C895 1.523 . S
C897 C881 1.429 . S
C897 C893 1.429 . S
C897 C898 1.523 . S
C898 C882 1.368 . S
C898 C894 1.368 . S
C898 C897 1.523 . S
H899 C874 0.950 . S
H900 C876 0.950 . S
H901 C877 0.949 . S
H902 C879 0.950 . S
H903 C881 0.950 . S
C904 C905 1.349 . S
C904 C906 1.327 . S
C904 H929 0.950 . S
C905 C904 1.349 . S
C905 C921 1.349 . S
C906 C904 1.327 . S
C906 C925 1.429 . S
C906 H930 0.950 . S
C907 C924 1.574 . S
C907 C926 1.368 . S
C907 H931 0.949 . S
H908 C912 0.949 . S
C909 C910 1.349 . S
C909 C911 1.327 . S
C909 H932 0.950 . S
C910 C909 1.349 . S
C910 C922 1.349 . S
C911 C909 1.327 . S
C911 C927 1.429 . S
C911 H933 0.950 . S
C912 H908 0.949 . S
C912 C920 1.574 . S
C912 C928 1.368 . S
H913 C921 0.950 . S
H914 C919 0.950 . S
H915 C920 0.949 . S
H916 C922 0.950 . S
H917 C923 0.950 . S
H918 C924 0.949 . S
C919 H914 0.950 . S
C919 C921 1.327 . S
C919 C925 1.429 . S
C920 C912 1.574 . S
C920 H915 0.949 . S
C920 C926 1.368 . S
C921 C905 1.349 . S
C921 H913 0.950 . S
C921 C919 1.327 . S
C922 C910 1.349 . S
C922 H916 0.950 . S
C922 C923 1.327 . S
C923 H917 0.950 . S
C923 C922 1.327 . S
C923 C927 1.429 . S
C924 C907 1.574 . S
C924 H918 0.949 . S
C924 C928 1.368 . S
C925 C906 1.429 . S
C925 C919 1.429 . S
C925 C926 1.523 . S
C926 C907 1.368 . S
C926 C920 1.368 . S
C926 C925 1.523 . S
C927 C911 1.429 . S
C927 C923 1.429 . S
C927 C928 1.523 . S
C928 C912 1.368 . S
C928 C924 1.368 . S
C928 C927 1.523 . S
H929 C904 0.950 . S
H930 C906 0.950 . S
H931 C907 0.949 . S
H932 C909 0.950 . S
H933 C911 0.950 . S
C934 C935 1.349 . S
C934 C936 1.327 . S
C934 H959 0.950 . S
C935 C934 1.349 . S
C935 C951 1.349 . S
C936 C934 1.327 . S
C936 C955 1.429 . S
C936 H960 0.950 . S
C937 C954 1.574 . S
C937 C956 1.368 . S
C937 H961 0.949 . S
H938 C942 0.949 . S
C939 C940 1.349 . S
C939 C941 1.327 . S
C939 H962 0.950 . S
C940 C939 1.349 . S
C940 C952 1.349 . S
C941 C939 1.327 . S
C941 C957 1.429 . S
C941 H963 0.950 . S
C942 H938 0.949 . S
C942 C950 1.574 . S
C942 C958 1.368 . S
H943 C951 0.950 . S
H944 C949 0.950 . S
H945 C950 0.949 . S
H946 C952 0.950 . S
H947 C953 0.950 . S
H948 C954 0.949 . S
C949 H944 0.950 . S
C949 C951 1.327 . S
C949 C955 1.429 . S
C950 C942 1.574 . S
C950 H945 0.949 . S
C950 C956 1.368 . S
C951 C935 1.349 . S
C951 H943 0.950 . S
C951 C949 1.327 . S
C952 C940 1.349 . S
C952 H946 0.950 . S
C952 C953 1.327 . S
C953 H947 0.950 . S
C953 C952 1.327 . S
C953 C957 1.429 . S
C954 C937 1.574 . S
C954 H948 0.949 . S
C954 C958 1.368 . S
C955 C936 1.429 . S
C955 C949 1.429 . S
C955 C956 1.523 . S
C956 C937 1.368 . S
C956 C950 1.368 . S
C956 C955 1.523 . S
C957 C941 1.429 . S
C957 C953 1.429 . S
C957 C958 1.523 . S
C958 C942 1.368 . S
C958 C954 1.368 . S
C958 C957 1.523 . S
H959 C934 0.950 . S
H960 C936 0.950 . S
H961 C937 0.949 . S
H962 C939 0.950 . S
H963 C941 0.950 . S
C964 C965 1.349 . S
C964 C966 1.327 . S
C964 H989 0.950 . S
C965 C964 1.349 . S
C965 C981 1.349 . S
C966 C964 1.327 . S
C966 C985 1.429 . S
C966 H990 0.950 . S
C967 C984 1.574 . S
C967 C986 1.368 . S
C967 H991 0.949 . S
H968 C972 0.949 . S
C969 C970 1.349 . S
C969 C971 1.327 . S
C969 H992 0.950 . S
C970 C969 1.349 . S
C970 C982 1.349 . S
C971 C969 1.327 . S
C971 C987 1.429 . S
C971 H993 0.950 . S
C972 H968 0.949 . S
C972 C980 1.574 . S
C972 C988 1.368 . S
H973 C981 0.950 . S
H974 C979 0.950 . S
H975 C980 0.949 . S
H976 C982 0.950 . S
H977 C983 0.950 . S
H978 C984 0.949 . S
C979 H974 0.950 . S
C979 C981 1.327 . S
C979 C985 1.429 . S
C980 C972 1.574 . S
C980 H975 0.949 . S
C980 C986 1.368 . S
C981 C965 1.349 . S
C981 H973 0.950 . S
C981 C979 1.327 . S
C982 C970 1.349 . S
C982 H976 0.950 . S
C982 C983 1.327 . S
C983 H977 0.950 . S
C983 C982 1.327 . S
C983 C987 1.429 . S
C984 C967 1.574 . S
C984 H978 0.949 . S
C984 C988 1.368 . S
C985 C966 1.429 . S
C985 C979 1.429 . S
C985 C986 1.523 . S
C986 C967 1.368 . S
C986 C980 1.368 . S
C986 C985 1.523 . S
C987 C971 1.429 . S
C987 C983 1.429 . S
C987 C988 1.523 . S
C988 C972 1.368 . S
C988 C984 1.368 . S
C988 C987 1.523 . S
H989 C964 0.950 . S
H990 C966 0.950 . S
H991 C967 0.949 . S
H992 C969 0.950 . S
H993 C971 0.950 . S
C994 C995 1.349 1_455 S
C994 C996 1.327 . S
C994 H1019 0.950 . S
C995 C994 1.349 1_655 S
C995 C1011 1.349 . S
C996 C994 1.327 . S
C996 C1015 1.429 1_455 S
C996 H1020 0.950 . S
C997 C1014 1.574 1_556 S
C997 C1016 1.368 . S
C997 H1021 0.949 . S
H998 C1002 0.949 . S
C999 C1000 1.349 . S
C999 C1001 1.327 . S
C999 H1022 0.950 . S
C1000 C999 1.349 . S
C1000 C1012 1.349 1_655 S
C1001 C999 1.327 . S
C1001 C1017 1.429 . S
C1001 H1023 0.950 . S
C1002 H998 0.949 . S
C1002 C1010 1.574 1_554 S
C1002 C1018 1.368 1_455 S
H1003 C1011 0.950 . S
H1004 C1009 0.950 . S
H1005 C1010 0.949 . S
H1006 C1012 0.950 . S
H1007 C1013 0.950 . S
H1008 C1014 0.949 . S
C1009 H1004 0.950 . S
C1009 C1011 1.327 . S
C1009 C1015 1.429 . S
C1010 C1002 1.574 1_556 S
C1010 H1005 0.949 . S
C1010 C1016 1.368 1_455 S
C1011 C995 1.349 . S
C1011 H1003 0.950 . S
C1011 C1009 1.327 . S
C1012 C1000 1.349 1_455 S
C1012 H1006 0.950 . S
C1012 C1013 1.327 . S
C1013 H1007 0.950 . S
C1013 C1012 1.327 . S
C1013 C1017 1.429 1_455 S
C1014 C997 1.574 1_554 S
C1014 H1008 0.949 . S
C1014 C1018 1.368 . S
C1015 C996 1.429 1_655 S
C1015 C1009 1.429 . S
C1015 C1016 1.523 . S
C1016 C997 1.368 . S
C1016 C1010 1.368 1_655 S
C1016 C1015 1.523 . S
C1017 C1001 1.429 . S
C1017 C1013 1.429 1_655 S
C1017 C1018 1.523 . S
C1018 C1002 1.368 1_655 S
C1018 C1014 1.368 . S
C1018 C1017 1.523 . S
H1019 C994 0.950 . S
H1020 C996 0.950 . S
H1021 C997 0.949 . S
H1022 C999 0.950 . S
H1023 C1001 0.950 . S
C1024 C1025 1.349 . S
C1024 C1026 1.327 . S
C1024 H1049 0.950 . S
C1025 C1024 1.349 . S
C1025 C1041 1.349 . S
C1026 C1024 1.327 . S
C1026 C1045 1.429 1_565 S
C1026 H1050 0.950 . S
C1027 C1044 1.574 . S
C1027 C1046 1.368 . S
C1027 H1051 0.949 . S
H1028 C1032 0.949 . S
C1029 C1030 1.349 . S
C1029 C1031 1.327 . S
C1029 H1052 0.950 . S
C1030 C1029 1.349 . S
C1030 C1042 1.349 . S
C1031 C1029 1.327 . S
C1031 C1047 1.429 . S
C1031 H1053 0.950 . S
C1032 H1028 0.949 . S
C1032 C1040 1.574 . S
C1032 C1048 1.368 . S
H1033 C1041 0.950 . S
H1034 C1039 0.950 . S
H1035 C1040 0.949 . S
H1036 C1042 0.950 . S
H1037 C1043 0.950 . S
H1038 C1044 0.949 . S
C1039 H1034 0.950 . S
C1039 C1041 1.327 1_545 S
C1039 C1045 1.429 . S
C1040 C1032 1.574 . S
C1040 H1035 0.949 . S
C1040 C1046 1.368 . S
C1041 C1025 1.349 . S
C1041 H1033 0.950 . S
C1041 C1039 1.327 1_565 S
C1042 C1030 1.349 . S
C1042 H1036 0.950 . S
C1042 C1043 1.327 . S
C1043 H1037 0.950 . S
C1043 C1042 1.327 . S
C1043 C1047 1.429 . S
C1044 C1027 1.574 . S
C1044 H1038 0.949 . S
C1044 C1048 1.368 . S
C1045 C1026 1.429 1_545 S
C1045 C1039 1.429 . S
C1045 C1046 1.523 . S
C1046 C1027 1.368 . S
C1046 C1040 1.368 . S
C1046 C1045 1.523 . S
C1047 C1031 1.429 . S
C1047 C1043 1.429 . S
C1047 C1048 1.523 . S
C1048 C1032 1.368 . S
C1048 C1044 1.368 . S
C1048 C1047 1.523 . S
H1049 C1024 0.950 . S
H1050 C1026 0.950 . S
H1051 C1027 0.949 . S
H1052 C1029 0.950 . S
H1053 C1031 0.950 . S
C1054 C1055 1.349 1_545 S
C1054 C1056 1.327 . S
C1054 H1079 0.950 . S
C1055 C1054 1.349 1_565 S
C1055 C1071 1.349 . S
C1056 C1054 1.327 . S
C1056 C1075 1.429 . S
C1056 H1080 0.950 . S
C1057 C1074 1.574 . S
C1057 C1076 1.368 . S
C1057 H1081 0.935 1_545 S
H1058 C1062 0.949 . S
C1059 C1060 1.349 . S
C1059 C1061 1.327 . S
C1059 H1082 0.950 . S
C1060 C1059 1.349 . S
C1060 C1072 1.349 . S
C1061 C1059 1.327 . S
C1061 C1077 1.429 . S
C1061 H1083 0.950 . S
C1062 H1058 0.949 . S
C1062 C1070 1.574 . S
C1062 C1078 1.368 . S
H1063 C1071 0.950 . S
H1064 C1069 0.950 . S
H1065 C1070 0.949 . S
H1066 C1072 0.950 . S
H1067 C1073 0.950 . S
H1068 C1074 0.949 . S
C1069 H1064 0.950 . S
C1069 C1071 1.327 . S
C1069 C1075 1.429 1_565 S
C1070 C1062 1.574 . S
C1070 H1065 0.949 . S
C1070 C1076 1.368 . S
C1071 C1055 1.349 . S
C1071 H1063 0.950 . S
C1071 C1069 1.327 . S
C1072 C1060 1.349 . S
C1072 H1066 0.950 . S
C1072 C1073 1.327 . S
C1073 H1067 0.950 . S
C1073 C1072 1.327 . S
C1073 C1077 1.429 . S
C1074 C1057 1.574 . S
C1074 H1068 0.949 . S
C1074 C1078 1.368 . S
C1075 C1056 1.429 . S
C1075 C1069 1.429 1_545 S
C1075 C1076 1.523 . S
C1076 C1057 1.368 . S
C1076 C1070 1.368 . S
C1076 C1075 1.523 . S
C1077 C1061 1.429 . S
C1077 C1073 1.429 . S
C1077 C1078 1.523 . S
C1078 C1062 1.368 . S
C1078 C1074 1.368 . S
C1078 C1077 1.523 . S
H1079 C1054 0.950 . S
H1080 C1056 0.950 . S
H1081 C1057 0.935 1_565 S
H1082 C1059 0.950 . S
H1083 C1061 0.950 . S
C1084 C1085 1.349 . S
C1084 C1086 1.327 . S
C1084 H1109 0.950 . S
C1085 C1084 1.349 . S
C1085 C1101 1.349 . S
C1086 C1084 1.327 . S
C1086 C1105 1.429 . S
C1086 H1110 0.950 . S
C1087 C1104 1.574 . S
C1087 C1106 1.368 . S
C1087 H1111 0.949 . S
H1088 C1092 0.949 . S
C1089 C1090 1.349 . S
C1089 C1091 1.327 . S
C1089 H1112 0.950 . S
C1090 C1089 1.349 . S
C1090 C1102 1.349 . S
C1091 C1089 1.327 . S
C1091 C1107 1.429 . S
C1091 H1113 0.950 . S
C1092 H1088 0.949 . S
C1092 C1100 1.574 . S
C1092 C1108 1.368 . S
H1093 C1101 0.950 . S
H1094 C1099 0.950 . S
H1095 C1100 0.949 . S
H1096 C1102 0.950 . S
H1097 C1103 0.950 . S
H1098 C1104 0.949 . S
C1099 H1094 0.950 . S
C1099 C1101 1.327 . S
C1099 C1105 1.429 . S
C1100 C1092 1.574 . S
C1100 H1095 0.949 . S
C1100 C1106 1.368 . S
C1101 C1085 1.349 . S
C1101 H1093 0.950 . S
C1101 C1099 1.327 . S
C1102 C1090 1.349 . S
C1102 H1096 0.950 . S
C1102 C1103 1.327 . S
C1103 H1097 0.950 . S
C1103 C1102 1.327 . S
C1103 C1107 1.429 . S
C1104 C1087 1.574 . S
C1104 H1098 0.949 . S
C1104 C1108 1.368 . S
C1105 C1086 1.429 . S
C1105 C1099 1.429 . S
C1105 C1106 1.523 . S
C1106 C1087 1.368 . S
C1106 C1100 1.368 . S
C1106 C1105 1.523 . S
C1107 C1091 1.429 . S
C1107 C1103 1.429 . S
C1107 C1108 1.523 . S
C1108 C1092 1.368 . S
C1108 C1104 1.368 . S
C1108 C1107 1.523 . S
H1109 C1084 0.950 . S
H1110 C1086 0.950 . S
H1111 C1087 0.949 . S
H1112 C1089 0.950 . S
H1113 C1091 0.950 . S
C1114 C1115 1.349 . S
C1114 C1116 1.327 . S
C1114 H1139 0.950 . S
C1115 C1114 1.349 . S
C1115 C1131 1.349 . S
C1116 C1114 1.327 . S
C1116 C1135 1.429 . S
C1116 H1140 0.950 . S
C1117 C1134 1.574 . S
C1117 C1136 1.368 . S
C1117 H1141 0.949 . S
H1118 C1122 0.949 . S
C1119 C1120 1.349 . S
C1119 C1121 1.327 . S
C1119 H1142 0.950 . S
C1120 C1119 1.349 . S
C1120 C1132 1.349 . S
C1121 C1119 1.327 . S
C1121 C1137 1.429 . S
C1121 H1143 0.950 . S
C1122 H1118 0.949 . S
C1122 C1130 1.574 . S
C1122 C1138 1.368 . S
H1123 C1131 0.950 . S
H1124 C1129 0.950 . S
H1125 C1130 0.949 . S
H1126 C1132 0.950 . S
H1127 C1133 0.950 . S
H1128 C1134 0.949 . S
C1129 H1124 0.950 . S
C1129 C1131 1.327 . S
C1129 C1135 1.429 . S
C1130 C1122 1.574 . S
C1130 H1125 0.949 . S
C1130 C1136 1.368 . S
C1131 C1115 1.349 . S
C1131 H1123 0.950 . S
C1131 C1129 1.327 . S
C1132 C1120 1.349 . S
C1132 H1126 0.950 . S
C1132 C1133 1.327 . S
C1133 H1127 0.950 . S
C1133 C1132 1.327 . S
C1133 C1137 1.429 . S
C1134 C1117 1.574 . S
C1134 H1128 0.949 . S
C1134 C1138 1.368 . S
C1135 C1116 1.429 . S
C1135 C1129 1.429 . S
C1135 C1136 1.523 . S
C1136 C1117 1.368 . S
C1136 C1130 1.368 . S
C1136 C1135 1.523 . S
C1137 C1121 1.429 . S
C1137 C1133 1.429 . S
C1137 C1138 1.523 . S
C1138 C1122 1.368 . S
C1138 C1134 1.368 . S
C1138 C1137 1.523 . S
H1139 C1114 0.950 . S
H1140 C1116 0.950 . S
H1141 C1117 0.949 . S
H1142 C1119 0.950 . S
H1143 C1121 0.950 . S
C1144 C1145 1.349 . S
C1144 C1146 1.327 . S
C1144 H1169 0.950 . S
C1145 C1144 1.349 . S
C1145 C1161 1.349 . S
C1146 C1144 1.327 . S
C1146 C1165 1.429 . S
C1146 H1170 0.950 . S
C1147 C1164 1.574 . S
C1147 C1166 1.368 . S
C1147 H1171 0.949 . S
H1148 C1152 0.949 . S
C1149 C1150 1.349 . S
C1149 C1151 1.327 . S
C1149 H1172 0.950 . S
C1150 C1149 1.349 . S
C1150 C1162 1.349 . S
C1151 C1149 1.327 . S
C1151 C1167 1.429 . S
C1151 H1173 0.950 . S
C1152 H1148 0.949 . S
C1152 C1160 1.574 . S
C1152 C1168 1.368 . S
H1153 C1161 0.950 . S
H1154 C1159 0.950 . S
H1155 C1160 0.949 . S
H1156 C1162 0.950 . S
H1157 C1163 0.950 . S
H1158 C1164 0.949 . S
C1159 H1154 0.950 . S
C1159 C1161 1.327 . S
C1159 C1165 1.429 . S
C1160 C1152 1.574 . S
C1160 H1155 0.949 . S
C1160 C1166 1.368 . S
C1161 C1145 1.349 . S
C1161 H1153 0.950 . S
C1161 C1159 1.327 . S
C1162 C1150 1.349 . S
C1162 H1156 0.950 . S
C1162 C1163 1.327 . S
C1163 H1157 0.950 . S
C1163 C1162 1.327 . S
C1163 C1167 1.429 . S
C1164 C1147 1.574 . S
C1164 H1158 0.949 . S
C1164 C1168 1.368 . S
C1165 C1146 1.429 . S
C1165 C1159 1.429 . S
C1165 C1166 1.523 . S
C1166 C1147 1.368 . S
C1166 C1160 1.368 . S
C1166 C1165 1.523 . S
C1167 C1151 1.429 . S
C1167 C1163 1.429 . S
C1167 C1168 1.523 . S
C1168 C1152 1.368 . S
C1168 C1164 1.368 . S
C1168 C1167 1.523 . S
H1169 C1144 0.950 . S
H1170 C1146 0.950 . S
H1171 C1147 0.949 . S
H1172 C1149 0.950 . S
H1173 C1151 0.950 . S
C1174 C1175 1.349 . S
C1174 C1176 1.327 . S
C1174 H1199 0.950 . S
C1175 C1174 1.349 . S
C1175 C1191 1.349 . S
C1176 C1174 1.327 . S
C1176 C1195 1.429 . S
C1176 H1200 0.950 . S
C1177 C1194 1.574 . S
C1177 C1196 1.368 . S
C1177 H1201 0.949 . S
H1178 C1182 0.949 . S
C1179 C1180 1.349 . S
C1179 C1181 1.327 . S
C1179 H1202 0.950 . S
C1180 C1179 1.349 . S
C1180 C1192 1.349 . S
C1181 C1179 1.327 . S
C1181 C1197 1.429 . S
C1181 H1203 0.950 . S
C1182 H1178 0.949 . S
C1182 C1190 1.574 . S
C1182 C1198 1.368 . S
H1183 C1191 0.950 . S
H1184 C1189 0.950 . S
H1185 C1190 0.949 . S
H1186 C1192 0.950 . S
H1187 C1193 0.950 . S
H1188 C1194 0.949 . S
C1189 H1184 0.950 . S
C1189 C1191 1.327 . S
C1189 C1195 1.429 . S
C1190 C1182 1.574 . S
C1190 H1185 0.949 . S
C1190 C1196 1.368 . S
C1191 C1175 1.349 . S
C1191 H1183 0.950 . S
C1191 C1189 1.327 . S
C1192 C1180 1.349 . S
C1192 H1186 0.950 . S
C1192 C1193 1.327 . S
C1193 H1187 0.950 . S
C1193 C1192 1.327 . S
C1193 C1197 1.429 . S
C1194 C1177 1.574 . S
C1194 H1188 0.949 . S
C1194 C1198 1.368 . S
C1195 C1176 1.429 . S
C1195 C1189 1.429 . S
C1195 C1196 1.523 . S
C1196 C1177 1.368 . S
C1196 C1190 1.368 . S
C1196 C1195 1.523 . S
C1197 C1181 1.429 . S
C1197 C1193 1.429 . S
C1197 C1198 1.523 . S
C1198 C1182 1.368 . S
C1198 C1194 1.368 . S
C1198 C1197 1.523 . S
H1199 C1174 0.950 . S
H1200 C1176 0.950 . S
H1201 C1177 0.949 . S
H1202 C1179 0.950 . S
H1203 C1181 0.950 . S
C1204 C1205 1.349 . S
C1204 C1206 1.327 1_565 S
C1204 H1229 0.950 1_565 S
C1205 C1204 1.349 . S
C1205 C1221 1.349 . S
C1206 C1204 1.327 1_545 S
C1206 C1225 1.429 . S
C1206 H1230 0.950 . S
C1207 C1224 1.574 . S
C1207 C1226 1.368 . S
C1207 H1231 0.949 1_545 S
H1208 C1212 0.949 . S
C1209 C1210 1.349 . S
C1209 C1211 1.327 . S
C1209 H1232 0.950 . S
C1210 C1209 1.349 . S
C1210 C1222 1.349 . S
C1211 C1209 1.327 . S
C1211 C1227 1.429 . S
C1211 H1233 0.950 . S
C1212 H1208 0.949 . S
C1212 C1220 1.574 . S
C1212 C1228 1.368 . S
H1213 C1221 0.950 . S
H1214 C1219 0.950 . S
H1215 C1220 0.949 . S
H1216 C1222 0.950 . S
H1217 C1223 0.950 . S
H1218 C1224 0.949 . S
C1219 H1214 0.950 . S
C1219 C1221 1.327 . S
C1219 C1225 1.429 1_565 S
C1220 C1212 1.574 . S
C1220 H1215 0.949 . S
C1220 C1226 1.368 . S
C1221 C1205 1.349 . S
C1221 H1213 0.950 . S
C1221 C1219 1.327 . S
C1222 C1210 1.349 . S
C1222 H1216 0.950 . S
C1222 C1223 1.327 . S
C1223 H1217 0.950 . S
C1223 C1222 1.327 . S
C1223 C1227 1.429 . S
C1224 C1207 1.574 . S
C1224 H1218 0.949 . S
C1224 C1228 1.368 . S
C1225 C1206 1.429 . S
C1225 C1219 1.429 1_545 S
C1225 C1226 1.523 . S
C1226 C1207 1.368 . S
C1226 C1220 1.368 . S
C1226 C1225 1.523 . S
C1227 C1211 1.429 . S
C1227 C1223 1.429 . S
C1227 C1228 1.523 . S
C1228 C1212 1.368 . S
C1228 C1224 1.368 . S
C1228 C1227 1.523 . S
H1229 C1204 0.950 1_545 S
H1230 C1206 0.950 . S
H1231 C1207 0.949 1_565 S
H1232 C1209 0.950 . S
H1233 C1211 0.950 . S
C1234 C1235 1.349 . S
C1234 C1236 1.327 . S
C1234 H1259 0.950 . S
C1235 C1234 1.349 . S
C1235 C1251 1.349 . S
C1236 C1234 1.327 . S
C1236 C1255 1.429 1_565 S
C1236 H1260 0.950 . S
C1237 C1254 1.574 . S
C1237 C1256 1.368 . S
C1237 H1261 0.949 . S
H1238 C1242 0.949 . S
C1239 C1240 1.349 . S
C1239 C1241 1.327 . S
C1239 H1262 0.950 . S
C1240 C1239 1.349 . S
C1240 C1252 1.349 . S
C1241 C1239 1.327 . S
C1241 C1257 1.429 . S
C1241 H1263 0.950 . S
C1242 H1238 0.949 . S
C1242 C1250 1.574 . S
C1242 C1258 1.368 . S
H1243 C1251 0.950 . S
H1244 C1249 0.950 . S
H1245 C1250 0.949 . S
H1246 C1252 0.950 . S
H1247 C1253 0.950 . S
H1248 C1254 0.949 . S
C1249 H1244 0.950 . S
C1249 C1251 1.327 1_545 S
C1249 C1255 1.429 . S
C1250 C1242 1.574 . S
C1250 H1245 0.949 . S
C1250 C1256 1.368 . S
C1251 C1235 1.349 . S
C1251 H1243 0.950 . S
C1251 C1249 1.327 1_565 S
C1252 C1240 1.349 . S
C1252 H1246 0.950 . S
C1252 C1253 1.327 . S
C1253 H1247 0.950 . S
C1253 C1252 1.327 . S
C1253 C1257 1.429 . S
C1254 C1237 1.574 . S
C1254 H1248 0.949 . S
C1254 C1258 1.368 . S
C1255 C1236 1.429 1_545 S
C1255 C1249 1.429 . S
C1255 C1256 1.523 . S
C1256 C1237 1.368 . S
C1256 C1250 1.368 . S
C1256 C1255 1.523 . S
C1257 C1241 1.429 . S
C1257 C1253 1.429 . S
C1257 C1258 1.523 . S
C1258 C1242 1.368 . S
C1258 C1254 1.368 . S
C1258 C1257 1.523 . S
H1259 C1234 0.950 . S
H1260 C1236 0.950 . S
H1261 C1237 0.949 . S
H1262 C1239 0.950 . S
H1263 C1241 0.950 . S
C1264 C1265 1.349 . S
C1264 C1266 1.327 . S
C1264 H1289 0.950 . S
C1265 C1264 1.349 . S
C1265 C1281 1.349 . S
C1266 C1264 1.327 . S
C1266 C1285 1.429 . S
C1266 H1290 0.950 . S
C1267 C1284 1.574 . S
C1267 C1286 1.368 . S
C1267 H1291 0.949 . S
H1268 C1272 0.949 . S
C1269 C1270 1.349 . S
C1269 C1271 1.327 . S
C1269 H1292 0.950 . S
C1270 C1269 1.349 . S
C1270 C1282 1.349 . S
C1271 C1269 1.327 . S
C1271 C1287 1.429 . S
C1271 H1293 0.950 . S
C1272 H1268 0.949 . S
C1272 C1280 1.574 . S
C1272 C1288 1.368 . S
H1273 C1281 0.950 . S
H1274 C1279 0.950 . S
H1275 C1280 0.949 . S
H1276 C1282 0.950 . S
H1277 C1283 0.950 . S
H1278 C1284 0.949 . S
C1279 H1274 0.950 . S
C1279 C1281 1.327 . S
C1279 C1285 1.429 . S
C1280 C1272 1.574 . S
C1280 H1275 0.949 . S
C1280 C1286 1.368 . S
C1281 C1265 1.349 . S
C1281 H1273 0.950 . S
C1281 C1279 1.327 . S
C1282 C1270 1.349 . S
C1282 H1276 0.950 . S
C1282 C1283 1.327 . S
C1283 H1277 0.950 . S
C1283 C1282 1.327 . S
C1283 C1287 1.429 . S
C1284 C1267 1.574 . S
C1284 H1278 0.949 . S
C1284 C1288 1.368 . S
C1285 C1266 1.429 . S
C1285 C1279 1.429 . S
C1285 C1286 1.523 . S
C1286 C1267 1.368 . S
C1286 C1280 1.368 . S
C1286 C1285 1.523 . S
C1287 C1271 1.429 . S
C1287 C1283 1.429 . S
C1287 C1288 1.523 . S
C1288 C1272 1.368 . S
C1288 C1284 1.368 . S
C1288 C1287 1.523 . S
H1289 C1264 0.950 . S
H1290 C1266 0.950 . S
H1291 C1267 0.949 . S
H1292 C1269 0.950 . S
H1293 C1271 0.950 . S
C1294 C1295 1.349 . S
C1294 C1296 1.327 . S
C1294 H1319 0.950 . S
C1295 C1294 1.349 . S
C1295 C1311 1.349 . S
C1296 C1294 1.327 . S
C1296 C1315 1.429 . S
C1296 H1320 0.950 . S
C1297 C1314 1.574 . S
C1297 C1316 1.368 . S
C1297 H1321 0.949 . S
H1298 C1302 0.949 . S
C1299 C1300 1.349 . S
C1299 C1301 1.327 . S
C1299 H1322 0.950 . S
C1300 C1299 1.349 . S
C1300 C1312 1.349 . S
C1301 C1299 1.327 . S
C1301 C1317 1.429 . S
C1301 H1323 0.950 . S
C1302 H1298 0.949 . S
C1302 C1310 1.574 . S
C1302 C1318 1.368 . S
H1303 C1311 0.950 . S
H1304 C1309 0.950 . S
H1305 C1310 0.949 . S
H1306 C1312 0.950 . S
H1307 C1313 0.950 . S
H1308 C1314 0.949 . S
C1309 H1304 0.950 . S
C1309 C1311 1.327 . S
C1309 C1315 1.429 . S
C1310 C1302 1.574 . S
C1310 H1305 0.949 . S
C1310 C1316 1.368 . S
C1311 C1295 1.349 . S
C1311 H1303 0.950 . S
C1311 C1309 1.327 . S
C1312 C1300 1.349 . S
C1312 H1306 0.950 . S
C1312 C1313 1.327 . S
C1313 H1307 0.950 . S
C1313 C1312 1.327 . S
C1313 C1317 1.429 . S
C1314 C1297 1.574 . S
C1314 H1308 0.949 . S
C1314 C1318 1.368 . S
C1315 C1296 1.429 . S
C1315 C1309 1.429 . S
C1315 C1316 1.523 . S
C1316 C1297 1.368 . S
C1316 C1310 1.368 . S
C1316 C1315 1.523 . S
C1317 C1301 1.429 . S
C1317 C1313 1.429 . S
C1317 C1318 1.523 . S
C1318 C1302 1.368 . S
C1318 C1314 1.368 . S
C1318 C1317 1.523 . S
H1319 C1294 0.950 . S
H1320 C1296 0.950 . S
H1321 C1297 0.949 . S
H1322 C1299 0.950 . S
H1323 C1301 0.950 . S
C1324 C1325 1.349 . S
C1324 C1326 1.327 . S
C1324 H1349 0.950 . S
C1325 C1324 1.349 . S
C1325 C1341 1.349 . S
C1326 C1324 1.327 . S
C1326 C1345 1.429 . S
C1326 H1350 0.950 . S
C1327 C1344 1.574 . S
C1327 C1346 1.368 . S
C1327 H1351 0.949 . S
H1328 C1332 0.949 . S
C1329 C1330 1.349 . S
C1329 C1331 1.327 . S
C1329 H1352 0.950 . S
C1330 C1329 1.349 . S
C1330 C1342 1.349 . S
C1331 C1329 1.327 . S
C1331 C1347 1.429 . S
C1331 H1353 0.950 . S
C1332 H1328 0.949 . S
C1332 C1340 1.574 . S
C1332 C1348 1.368 . S
H1333 C1341 0.950 . S
H1334 C1339 0.950 . S
H1335 C1340 0.949 . S
H1336 C1342 0.950 . S
H1337 C1343 0.950 . S
H1338 C1344 0.949 . S
C1339 H1334 0.950 . S
C1339 C1341 1.327 . S
C1339 C1345 1.429 . S
C1340 C1332 1.574 . S
C1340 H1335 0.949 . S
C1340 C1346 1.368 . S
C1341 C1325 1.349 . S
C1341 H1333 0.950 . S
C1341 C1339 1.327 . S
C1342 C1330 1.349 . S
C1342 H1336 0.950 . S
C1342 C1343 1.327 . S
C1343 H1337 0.950 . S
C1343 C1342 1.327 . S
C1343 C1347 1.429 . S
C1344 C1327 1.574 . S
C1344 H1338 0.949 . S
C1344 C1348 1.368 . S
C1345 C1326 1.429 . S
C1345 C1339 1.429 . S
C1345 C1346 1.523 . S
C1346 C1327 1.368 . S
C1346 C1340 1.368 . S
C1346 C1345 1.523 . S
C1347 C1331 1.429 . S
C1347 C1343 1.429 . S
C1347 C1348 1.523 . S
C1348 C1332 1.368 . S
C1348 C1344 1.368 . S
C1348 C1347 1.523 . S
H1349 C1324 0.950 . S
H1350 C1326 0.950 . S
H1351 C1327 0.949 . S
H1352 C1329 0.950 . S
H1353 C1331 0.950 . S
C1354 C1355 1.349 . S
C1354 C1356 1.327 . S
C1354 H1379 0.950 . S
C1355 C1354 1.349 . S
C1355 C1371 1.349 . S
C1356 C1354 1.327 . S
C1356 C1375 1.429 . S
C1356 H1380 0.950 . S
C1357 C1374 1.574 . S
C1357 C1376 1.368 . S
C1357 H1381 0.949 . S
H1358 C1362 0.949 . S
C1359 C1360 1.349 . S
C1359 C1361 1.327 . S
C1359 H1382 0.950 . S
C1360 C1359 1.349 . S
C1360 C1372 1.349 . S
C1361 C1359 1.327 . S
C1361 C1377 1.429 . S
C1361 H1383 0.950 . S
C1362 H1358 0.949 . S
C1362 C1370 1.574 . S
C1362 C1378 1.368 . S
H1363 C1371 0.950 . S
H1364 C1369 0.950 . S
H1365 C1370 0.949 . S
H1366 C1372 0.950 . S
H1367 C1373 0.950 . S
H1368 C1374 0.949 . S
C1369 H1364 0.950 . S
C1369 C1371 1.327 . S
C1369 C1375 1.429 . S
C1370 C1362 1.574 . S
C1370 H1365 0.949 . S
C1370 C1376 1.368 . S
C1371 C1355 1.349 . S
C1371 H1363 0.950 . S
C1371 C1369 1.327 . S
C1372 C1360 1.349 . S
C1372 H1366 0.950 . S
C1372 C1373 1.327 . S
C1373 H1367 0.950 . S
C1373 C1372 1.327 . S
C1373 C1377 1.429 . S
C1374 C1357 1.574 . S
C1374 H1368 0.949 . S
C1374 C1378 1.368 . S
C1375 C1356 1.429 . S
C1375 C1369 1.429 . S
C1375 C1376 1.523 . S
C1376 C1357 1.368 . S
C1376 C1370 1.368 . S
C1376 C1375 1.523 . S
C1377 C1361 1.429 . S
C1377 C1373 1.429 . S
C1377 C1378 1.523 . S
C1378 C1362 1.368 . S
C1378 C1374 1.368 . S
C1378 C1377 1.523 . S
H1379 C1354 0.950 . S
H1380 C1356 0.950 . S
H1381 C1357 0.949 . S
H1382 C1359 0.950 . S
H1383 C1361 0.950 . S
C1384 C1385 1.349 . S
C1384 C1386 1.327 . S
C1384 H1409 0.950 . S
C1385 C1384 1.349 . S
C1385 C1401 1.349 . S
C1386 C1384 1.327 . S
C1386 C1405 1.429 . S
C1386 H1410 0.950 . S
C1387 C1404 1.574 . S
C1387 C1406 1.368 . S
C1387 H1411 0.949 . S
H1388 C1392 0.949 . S
C1389 C1390 1.349 . S
C1389 C1391 1.327 . S
C1389 H1412 0.950 . S
C1390 C1389 1.349 . S
C1390 C1402 1.349 . S
C1391 C1389 1.327 . S
C1391 C1407 1.429 . S
C1391 H1413 0.950 . S
C1392 H1388 0.949 . S
C1392 C1400 1.574 . S
C1392 C1408 1.368 . S
H1393 C1401 0.950 . S
H1394 C1399 0.950 . S
H1395 C1400 0.949 . S
H1396 C1402 0.950 . S
H1397 C1403 0.950 . S
H1398 C1404 0.949 . S
C1399 H1394 0.950 . S
C1399 C1401 1.327 . S
C1399 C1405 1.429 . S
C1400 C1392 1.574 . S
C1400 H1395 0.949 . S
C1400 C1406 1.368 . S
C1401 C1385 1.349 . S
C1401 H1393 0.950 . S
C1401 C1399 1.327 . S
C1402 C1390 1.349 . S
C1402 H1396 0.950 . S
C1402 C1403 1.327 . S
C1403 H1397 0.950 . S
C1403 C1402 1.327 . S
C1403 C1407 1.429 . S
C1404 C1387 1.574 . S
C1404 H1398 0.949 . S
C1404 C1408 1.368 . S
C1405 C1386 1.429 . S
C1405 C1399 1.429 . S
C1405 C1406 1.523 . S
C1406 C1387 1.368 . S
C1406 C1400 1.368 . S
C1406 C1405 1.523 . S
C1407 C1391 1.429 . S
C1407 C1403 1.429 . S
C1407 C1408 1.523 . S
C1408 C1392 1.368 . S
C1408 C1404 1.368 . S
C1408 C1407 1.523 . S
H1409 C1384 0.950 . S
H1410 C1386 0.950 . S
H1411 C1387 0.949 . S
H1412 C1389 0.950 . S
H1413 C1391 0.950 . S
C1414 C1415 1.349 . S
C1414 C1416 1.327 . S
C1414 H1439 0.950 . S
C1415 C1414 1.349 . S
C1415 C1431 1.349 . S
C1416 C1414 1.327 . S
C1416 C1435 1.429 . S
C1416 H1440 0.950 . S
C1417 C1434 1.574 . S
C1417 C1436 1.368 . S
C1417 H1441 0.949 . S
H1418 C1422 0.949 . S
C1419 C1420 1.349 . S
C1419 C1421 1.327 . S
C1419 H1442 0.950 . S
C1420 C1419 1.349 . S
C1420 C1432 1.349 . S
C1421 C1419 1.327 . S
C1421 C1437 1.429 . S
C1421 H1443 0.950 . S
C1422 H1418 0.949 . S
C1422 C1430 1.574 . S
C1422 C1438 1.368 . S
H1423 C1431 0.950 . S
H1424 C1429 0.950 . S
H1425 C1430 0.949 . S
H1426 C1432 0.950 . S
H1427 C1433 0.950 . S
H1428 C1434 0.949 . S
C1429 H1424 0.950 . S
C1429 C1431 1.327 . S
C1429 C1435 1.429 . S
C1430 C1422 1.574 . S
C1430 H1425 0.949 . S
C1430 C1436 1.368 . S
C1431 C1415 1.349 . S
C1431 H1423 0.950 . S
C1431 C1429 1.327 . S
C1432 C1420 1.349 . S
C1432 H1426 0.950 . S
C1432 C1433 1.327 . S
C1433 H1427 0.950 . S
C1433 C1432 1.327 . S
C1433 C1437 1.429 . S
C1434 C1417 1.574 . S
C1434 H1428 0.949 . S
C1434 C1438 1.368 . S
C1435 C1416 1.429 . S
C1435 C1429 1.429 . S
C1435 C1436 1.523 . S
C1436 C1417 1.368 . S
C1436 C1430 1.368 . S
C1436 C1435 1.523 . S
C1437 C1421 1.429 . S
C1437 C1433 1.429 . S
C1437 C1438 1.523 . S
C1438 C1422 1.368 . S
C1438 C1434 1.368 . S
C1438 C1437 1.523 . S
H1439 C1414 0.950 . S
H1440 C1416 0.950 . S
H1441 C1417 0.949 . S
H1442 C1419 0.950 . S
H1443 C1421 0.950 . S
C1444 C1445 1.349 . S
C1444 C1446 1.327 . S
C1444 H1469 0.950 . S
C1445 C1444 1.349 . S
C1445 C1461 1.349 . S
C1446 C1444 1.327 . S
C1446 C1465 1.429 . S
C1446 H1470 0.950 . S
C1447 C1464 1.574 . S
C1447 C1466 1.368 . S
C1447 H1471 0.949 . S
H1448 C1452 0.949 . S
C1449 C1450 1.349 . S
C1449 C1451 1.327 . S
C1449 H1472 0.950 . S
C1450 C1449 1.349 . S
C1450 C1462 1.349 . S
C1451 C1449 1.327 . S
C1451 C1467 1.429 . S
C1451 H1473 0.950 . S
C1452 H1448 0.949 . S
C1452 C1460 1.574 . S
C1452 C1468 1.368 . S
H1453 C1461 0.950 . S
H1454 C1459 0.950 . S
H1455 C1460 0.949 . S
H1456 C1462 0.950 . S
H1457 C1463 0.950 . S
H1458 C1464 0.949 . S
C1459 H1454 0.950 . S
C1459 C1461 1.327 . S
C1459 C1465 1.429 . S
C1460 C1452 1.574 . S
C1460 H1455 0.949 . S
C1460 C1466 1.368 . S
C1461 C1445 1.349 . S
C1461 H1453 0.950 . S
C1461 C1459 1.327 . S
C1462 C1450 1.349 . S
C1462 H1456 0.950 . S
C1462 C1463 1.327 . S
C1463 H1457 0.950 . S
C1463 C1462 1.327 . S
C1463 C1467 1.429 . S
C1464 C1447 1.574 . S
C1464 H1458 0.949 . S
C1464 C1468 1.368 . S
C1465 C1446 1.429 . S
C1465 C1459 1.429 . S
C1465 C1466 1.523 . S
C1466 C1447 1.368 . S
C1466 C1460 1.368 . S
C1466 C1465 1.523 . S
C1467 C1451 1.429 . S
C1467 C1463 1.429 . S
C1467 C1468 1.523 . S
C1468 C1452 1.368 . S
C1468 C1464 1.368 . S
C1468 C1467 1.523 . S
H1469 C1444 0.950 . S
H1470 C1446 0.950 . S
H1471 C1447 0.949 . S
H1472 C1449 0.950 . S
H1473 C1451 0.950 . S
C1474 C1475 1.349 . S
C1474 C1476 1.327 . S
C1474 H1499 0.950 . S
C1475 C1474 1.349 . S
C1475 C1491 1.349 . S
C1476 C1474 1.327 . S
C1476 C1495 1.429 . S
C1476 H1500 0.950 . S
C1477 C1494 1.574 . S
C1477 C1496 1.368 . S
C1477 H1501 0.949 . S
H1478 C1482 0.949 . S
C1479 C1480 1.349 . S
C1479 C1481 1.327 . S
C1479 H1502 0.950 . S
C1480 C1479 1.349 . S
C1480 C1492 1.349 . S
C1481 C1479 1.327 . S
C1481 C1497 1.429 . S
C1481 H1503 0.950 . S
C1482 H1478 0.949 . S
C1482 C1490 1.574 . S
C1482 C1498 1.368 . S
H1483 C1491 0.950 . S
H1484 C1489 0.950 . S
H1485 C1490 0.949 . S
H1486 C1492 0.950 . S
H1487 C1493 0.950 . S
H1488 C1494 0.949 . S
C1489 H1484 0.950 . S
C1489 C1491 1.327 . S
C1489 C1495 1.429 . S
C1490 C1482 1.574 . S
C1490 H1485 0.949 . S
C1490 C1496 1.368 . S
C1491 C1475 1.349 . S
C1491 H1483 0.950 . S
C1491 C1489 1.327 . S
C1492 C1480 1.349 . S
C1492 H1486 0.950 . S
C1492 C1493 1.327 . S
C1493 H1487 0.950 . S
C1493 C1492 1.327 . S
C1493 C1497 1.429 . S
C1494 C1477 1.574 . S
C1494 H1488 0.949 . S
C1494 C1498 1.368 . S
C1495 C1476 1.429 . S
C1495 C1489 1.429 . S
C1495 C1496 1.523 . S
C1496 C1477 1.368 . S
C1496 C1490 1.368 . S
C1496 C1495 1.523 . S
C1497 C1481 1.429 . S
C1497 C1493 1.429 . S
C1497 C1498 1.523 . S
C1498 C1482 1.368 . S
C1498 C1494 1.368 . S
C1498 C1497 1.523 . S
H1499 C1474 0.950 . S
H1500 C1476 0.950 . S
H1501 C1477 0.949 . S
H1502 C1479 0.950 . S
H1503 C1481 0.950 . S
C1504 C1505 1.349 1_455 S
C1504 C1506 1.327 1_545 S
C1504 H1529 0.950 . S
C1505 C1504 1.349 1_655 S
C1505 C1521 1.349 . S
C1506 C1504 1.327 1_565 S
C1506 C1525 1.420 1_455 S
C1506 H1530 0.950 . S
C1507 C1524 1.574 . S
C1507 C1526 1.368 1_655 S
C1507 H1531 0.949 . S
H1508 C1512 0.949 . S
C1509 C1510 1.349 . S
C1509 C1511 1.328 . S
C1509 H1532 0.950 1_455 S
C1510 C1509 1.349 . S
C1510 C1522 1.349 . S
C1511 C1509 1.328 . S
C1511 C1527 1.431 . S
C1511 H1533 0.946 1_455 S
C1512 H1508 0.949 . S
C1512 C1520 1.574 . S
C1512 C1528 1.368 . S
H1513 C1521 0.950 . S
H1514 C1519 0.950 . S
H1515 C1520 0.949 . S
H1516 C1522 0.950 . S
H1517 C1523 0.950 . S
H1518 C1524 0.949 . S
C1519 H1514 0.950 . S
C1519 C1521 1.327 1_565 S
C1519 C1525 1.440 . S
C1520 C1512 1.574 . S
C1520 H1515 0.949 . S
C1520 C1526 1.368 . S
C1521 C1505 1.349 . S
C1521 H1513 0.950 . S
C1521 C1519 1.327 1_545 S
C1522 C1510 1.349 . S
C1522 H1516 0.950 . S
C1522 C1523 1.327 . S
C1523 H1517 0.950 . S
C1523 C1522 1.327 . S
C1523 C1527 1.429 . S
C1524 C1507 1.574 . S
C1524 H1518 0.949 . S
C1524 C1528 1.368 1_655 S
C1525 C1506 1.420 1_655 S
C1525 C1519 1.440 . S
C1525 C1526 1.521 1_655 S
C1526 C1507 1.368 1_455 S
C1526 C1520 1.368 . S
C1526 C1525 1.521 1_455 S
C1527 C1511 1.431 . S
C1527 C1523 1.429 . S
C1527 C1528 1.523 . S
C1528 C1512 1.368 . S
C1528 C1524 1.368 1_455 S
C1528 C1527 1.523 . S
H1529 C1504 0.950 . S
H1530 C1506 0.950 . S
H1531 C1507 0.949 . S
H1532 C1509 0.950 1_655 S
H1533 C1511 0.946 1_655 S
C1534 C1535 1.349 . S
C1534 C1536 1.327 . S
C1534 H1559 0.950 . S
C1535 C1534 1.349 . S
C1535 C1551 1.349 . S
C1536 C1534 1.327 . S
C1536 C1555 1.429 . S
C1536 H1560 0.950 . S
C1537 C1554 1.574 . S
C1537 C1556 1.368 . S
C1537 H1561 0.949 . S
H1538 C1542 0.949 . S
C1539 C1540 1.349 . S
C1539 C1541 1.327 . S
C1539 H1562 0.950 . S
C1540 C1539 1.349 . S
C1540 C1552 1.349 . S
C1541 C1539 1.327 . S
C1541 C1557 1.429 . S
C1541 H1563 0.950 . S
C1542 H1538 0.949 . S
C1542 C1550 1.574 . S
C1542 C1558 1.368 . S
H1543 C1551 0.950 . S
H1544 C1549 0.950 . S
H1545 C1550 0.949 . S
H1546 C1552 0.950 . S
H1547 C1553 0.950 . S
H1548 C1554 0.949 . S
C1549 H1544 0.950 . S
C1549 C1551 1.327 . S
C1549 C1555 1.429 . S
C1550 C1542 1.574 . S
C1550 H1545 0.949 . S
C1550 C1556 1.368 . S
C1551 C1535 1.349 . S
C1551 H1543 0.950 . S
C1551 C1549 1.327 . S
C1552 C1540 1.349 . S
C1552 H1546 0.950 . S
C1552 C1553 1.327 . S
C1553 H1547 0.950 . S
C1553 C1552 1.327 . S
C1553 C1557 1.429 . S
C1554 C1537 1.574 . S
C1554 H1548 0.949 . S
C1554 C1558 1.368 . S
C1555 C1536 1.429 . S
C1555 C1549 1.429 . S
C1555 C1556 1.523 . S
C1556 C1537 1.368 . S
C1556 C1550 1.368 . S
C1556 C1555 1.523 . S
C1557 C1541 1.429 . S
C1557 C1553 1.429 . S
C1557 C1558 1.523 . S
C1558 C1542 1.368 . S
C1558 C1554 1.368 . S
C1558 C1557 1.523 . S
H1559 C1534 0.950 . S
H1560 C1536 0.950 . S
H1561 C1537 0.949 . S
H1562 C1539 0.950 . S
H1563 C1541 0.950 . S
C1564 C1565 1.349 . S
C1564 C1566 1.327 . S
C1564 H1589 0.950 . S
C1565 C1564 1.349 . S
C1565 C1581 1.349 . S
C1566 C1564 1.327 . S
C1566 C1585 1.429 . S
C1566 H1590 0.950 . S
C1567 C1584 1.574 . S
C1567 C1586 1.368 . S
C1567 H1591 0.949 . S
H1568 C1572 0.949 . S
C1569 C1570 1.349 . S
C1569 C1571 1.327 . S
C1569 H1592 0.950 . S
C1570 C1569 1.349 . S
C1570 C1582 1.349 . S
C1571 C1569 1.327 . S
C1571 C1587 1.429 . S
C1571 H1593 0.950 . S
C1572 H1568 0.949 . S
C1572 C1580 1.574 . S
C1572 C1588 1.368 . S
H1573 C1581 0.950 . S
H1574 C1579 0.950 . S
H1575 C1580 0.949 . S
H1576 C1582 0.950 . S
H1577 C1583 0.950 . S
H1578 C1584 0.949 . S
C1579 H1574 0.950 . S
C1579 C1581 1.327 . S
C1579 C1585 1.429 . S
C1580 C1572 1.574 . S
C1580 H1575 0.949 . S
C1580 C1586 1.368 . S
C1581 C1565 1.349 . S
C1581 H1573 0.950 . S
C1581 C1579 1.327 . S
C1582 C1570 1.349 . S
C1582 H1576 0.950 . S
C1582 C1583 1.327 . S
C1583 H1577 0.950 . S
C1583 C1582 1.327 . S
C1583 C1587 1.429 . S
C1584 C1567 1.574 . S
C1584 H1578 0.949 . S
C1584 C1588 1.368 . S
C1585 C1566 1.429 . S
C1585 C1579 1.429 . S
C1585 C1586 1.523 . S
C1586 C1567 1.368 . S
C1586 C1580 1.368 . S
C1586 C1585 1.523 . S
C1587 C1571 1.429 . S
C1587 C1583 1.429 . S
C1587 C1588 1.523 . S
C1588 C1572 1.368 . S
C1588 C1584 1.368 . S
C1588 C1587 1.523 . S
H1589 C1564 0.950 . S
H1590 C1566 0.950 . S
H1591 C1567 0.949 . S
H1592 C1569 0.950 . S
H1593 C1571 0.950 . S
C1594 C1595 1.349 . S
C1594 C1596 1.327 . S
C1594 H1619 0.950 . S
C1595 C1594 1.349 . S
C1595 C1611 1.349 . S
C1596 C1594 1.327 . S
C1596 C1615 1.429 . S
C1596 H1620 0.950 . S
C1597 C1614 1.574 1_455 S
C1597 C1616 1.368 . S
C1597 H1621 0.949 . S
H1598 C1602 0.949 . S
C1599 C1600 1.349 . S
C1599 C1601 1.327 . S
C1599 H1622 0.950 . S
C1600 C1599 1.349 . S
C1600 C1612 1.349 . S
C1601 C1599 1.327 . S
C1601 C1617 1.429 . S
C1601 H1623 0.950 . S
C1602 H1598 0.949 . S
C1602 C1610 1.574 1_655 S
C1602 C1618 1.368 . S
H1603 C1611 0.950 . S
H1604 C1609 0.950 . S
H1605 C1610 0.949 . S
H1606 C1612 0.950 . S
H1607 C1613 0.950 . S
H1608 C1614 0.949 . S
C1609 H1604 0.950 . S
C1609 C1611 1.327 . S
C1609 C1615 1.429 . S
C1610 C1602 1.574 1_455 S
C1610 H1605 0.949 . S
C1610 C1616 1.368 . S
C1611 C1595 1.349 . S
C1611 H1603 0.950 . S
C1611 C1609 1.327 . S
C1612 C1600 1.349 . S
C1612 H1606 0.950 . S
C1612 C1613 1.327 . S
C1613 H1607 0.950 . S
C1613 C1612 1.327 . S
C1613 C1617 1.429 . S
C1614 C1597 1.574 1_655 S
C1614 H1608 0.949 . S
C1614 C1618 1.368 . S
C1615 C1596 1.429 . S
C1615 C1609 1.429 . S
C1615 C1616 1.523 . S
C1616 C1597 1.368 . S
C1616 C1610 1.368 . S
C1616 C1615 1.523 . S
C1617 C1601 1.429 . S
C1617 C1613 1.429 . S
C1617 C1618 1.523 . S
C1618 C1602 1.368 . S
C1618 C1614 1.368 . S
C1618 C1617 1.523 . S
H1619 C1594 0.950 . S
H1620 C1596 0.950 . S
H1621 C1597 0.949 . S
H1622 C1599 0.950 . S
H1623 C1601 0.950 . S
C1624 C1625 1.349 1_455 S
C1624 C1626 1.327 . S
C1624 H1649 0.950 . S
C1625 C1624 1.349 1_655 S
C1625 C1641 1.349 . S
C1626 C1624 1.327 . S
C1626 C1645 1.420 1_455 S
C1626 H1650 0.950 . S
C1627 C1644 1.574 . S
C1627 C1646 1.368 1_655 S
C1627 H1651 0.949 . S
H1628 C1632 0.949 . S
C1629 C1630 1.349 . S
C1629 C1631 1.328 . S
C1629 H1652 0.950 1_455 S
C1630 C1629 1.349 . S
C1630 C1642 1.349 . S
C1631 C1629 1.328 . S
C1631 C1647 1.431 . S
C1631 H1653 0.947 1_455 S
C1632 H1628 0.949 . S
C1632 C1640 1.574 . S
C1632 C1648 1.368 . S
H1633 C1641 0.950 . S
H1634 C1639 0.950 . S
H1635 C1640 0.949 . S
H1636 C1642 0.950 . S
H1637 C1643 0.950 . S
H1638 C1644 0.949 . S
C1639 H1634 0.950 . S
C1639 C1641 1.327 . S
C1639 C1645 1.440 . S
C1640 C1632 1.574 . S
C1640 H1635 0.949 . S
C1640 C1646 1.368 . S
C1641 C1625 1.349 . S
C1641 H1633 0.950 . S
C1641 C1639 1.327 . S
C1642 C1630 1.349 . S
C1642 H1636 0.950 . S
C1642 C1643 1.327 . S
C1643 H1637 0.950 . S
C1643 C1642 1.327 . S
C1643 C1647 1.429 . S
C1644 C1627 1.574 . S
C1644 H1638 0.949 . S
C1644 C1648 1.368 1_655 S
C1645 C1626 1.420 1_655 S
C1645 C1639 1.440 . S
C1645 C1646 1.521 1_655 S
C1646 C1627 1.368 1_455 S
C1646 C1640 1.368 . S
C1646 C1645 1.521 1_455 S
C1647 C1631 1.431 . S
C1647 C1643 1.429 . S
C1647 C1648 1.523 . S
C1648 C1632 1.368 . S
C1648 C1644 1.368 1_455 S
C1648 C1647 1.523 . S
H1649 C1624 0.950 . S
H1650 C1626 0.950 . S
H1651 C1627 0.949 . S
H1652 C1629 0.950 1_655 S
H1653 C1631 0.947 1_655 S
C1654 C1655 1.349 . S
C1654 C1656 1.327 . S
C1654 H1679 0.950 . S
C1655 C1654 1.349 . S
C1655 C1671 1.349 . S
C1656 C1654 1.327 . S
C1656 C1675 1.429 . S
C1656 H1680 0.950 . S
C1657 C1674 1.574 1_455 S
C1657 C1676 1.368 . S
C1657 H1681 0.949 . S
H1658 C1662 0.949 . S
C1659 C1660 1.349 . S
C1659 C1661 1.327 . S
C1659 H1682 0.950 . S
C1660 C1659 1.349 . S
C1660 C1672 1.349 . S
C1661 C1659 1.327 . S
C1661 C1677 1.429 . S
C1661 H1683 0.950 . S
C1662 H1658 0.949 . S
C1662 C1670 1.574 1_655 S
C1662 C1678 1.368 . S
H1663 C1671 0.950 . S
H1664 C1669 0.950 . S
H1665 C1670 0.949 . S
H1666 C1672 0.950 . S
H1667 C1673 0.950 . S
H1668 C1674 0.949 . S
C1669 H1664 0.950 . S
C1669 C1671 1.327 . S
C1669 C1675 1.429 . S
C1670 C1662 1.574 1_455 S
C1670 H1665 0.949 . S
C1670 C1676 1.368 . S
C1671 C1655 1.349 . S
C1671 H1663 0.950 . S
C1671 C1669 1.327 . S
C1672 C1660 1.349 . S
C1672 H1666 0.950 . S
C1672 C1673 1.327 . S
C1673 H1667 0.950 . S
C1673 C1672 1.327 . S
C1673 C1677 1.429 . S
C1674 C1657 1.574 1_655 S
C1674 H1668 0.949 . S
C1674 C1678 1.368 . S
C1675 C1656 1.429 . S
C1675 C1669 1.429 . S
C1675 C1676 1.523 . S
C1676 C1657 1.368 . S
C1676 C1670 1.368 . S
C1676 C1675 1.523 . S
C1677 C1661 1.429 . S
C1677 C1673 1.429 . S
C1677 C1678 1.523 . S
C1678 C1662 1.368 . S
C1678 C1674 1.368 . S
C1678 C1677 1.523 . S
H1679 C1654 0.950 . S
H1680 C1656 0.950 . S
H1681 C1657 0.949 . S
H1682 C1659 0.950 . S
H1683 C1661 0.950 . S
C1684 C1685 1.349 . S
C1684 C1686 1.327 . S
C1684 H1709 0.950 . S
C1685 C1684 1.349 . S
C1685 C1701 1.349 . S
C1686 C1684 1.327 . S
C1686 C1705 1.429 . S
C1686 H1710 0.950 . S
C1687 C1704 1.574 . S
C1687 C1706 1.368 . S
C1687 H1711 0.949 . S
H1688 C1692 0.949 . S
C1689 C1690 1.349 . S
C1689 C1691 1.327 1_545 S
C1689 H1712 0.950 . S
C1690 C1689 1.349 . S
C1690 C1702 1.349 . S
C1691 C1689 1.327 1_565 S
C1691 C1707 1.429 . S
C1691 H1713 0.950 . S
C1692 H1688 0.949 . S
C1692 C1700 1.574 . S
C1692 C1708 1.368 . S
H1693 C1701 0.950 . S
H1694 C1699 0.950 . S
H1695 C1700 0.949 . S
H1696 C1702 0.950 . S
H1697 C1703 0.950 . S
H1698 C1704 0.949 . S
C1699 H1694 0.950 . S
C1699 C1701 1.327 . S
C1699 C1705 1.429 . S
C1700 C1692 1.574 . S
C1700 H1695 0.949 . S
C1700 C1706 1.368 . S
C1701 C1685 1.349 . S
C1701 H1693 0.950 . S
C1701 C1699 1.327 . S
C1702 C1690 1.349 . S
C1702 H1696 0.950 . S
C1702 C1703 1.327 1_545 S
C1703 H1697 0.950 . S
C1703 C1702 1.327 1_565 S
C1703 C1707 1.429 . S
C1704 C1687 1.574 . S
C1704 H1698 0.949 . S
C1704 C1708 1.368 . S
C1705 C1686 1.429 . S
C1705 C1699 1.429 . S
C1705 C1706 1.523 . S
C1706 C1687 1.368 . S
C1706 C1700 1.368 . S
C1706 C1705 1.523 . S
C1707 C1691 1.429 . S
C1707 C1703 1.429 . S
C1707 C1708 1.523 . S
C1708 C1692 1.368 . S
C1708 C1704 1.368 . S
C1708 C1707 1.523 . S
H1709 C1684 0.950 . S
H1710 C1686 0.950 . S
H1711 C1687 0.949 . S
H1712 C1689 0.950 . S
H1713 C1691 0.950 . S
C1714 C1715 1.349 . S
C1714 C1716 1.327 . S
C1714 H1739 0.950 . S
C1715 C1714 1.349 . S
C1715 C1731 1.349 . S
C1716 C1714 1.327 . S
C1716 C1735 1.429 . S
C1716 H1740 0.950 . S
C1717 C1734 1.574 . S
C1717 C1736 1.368 . S
C1717 H1741 0.949 . S
H1718 C1722 0.949 . S
C1719 C1720 1.349 . S
C1719 C1721 1.327 . S
C1719 H1742 0.950 . S
C1720 C1719 1.349 . S
C1720 C1732 1.349 . S
C1721 C1719 1.327 . S
C1721 C1737 1.429 . S
C1721 H1743 0.950 . S
C1722 H1718 0.949 . S
C1722 C1730 1.574 . S
C1722 C1738 1.368 . S
H1723 C1731 0.950 . S
H1724 C1729 0.950 . S
H1725 C1730 0.949 . S
H1726 C1732 0.950 . S
H1727 C1733 0.950 . S
H1728 C1734 0.949 . S
C1729 H1724 0.950 . S
C1729 C1731 1.327 . S
C1729 C1735 1.429 . S
C1730 C1722 1.574 . S
C1730 H1725 0.949 . S
C1730 C1736 1.368 . S
C1731 C1715 1.349 . S
C1731 H1723 0.950 . S
C1731 C1729 1.327 . S
C1732 C1720 1.349 . S
C1732 H1726 0.950 . S
C1732 C1733 1.327 . S
C1733 H1727 0.950 . S
C1733 C1732 1.327 . S
C1733 C1737 1.429 . S
C1734 C1717 1.574 . S
C1734 H1728 0.949 . S
C1734 C1738 1.368 . S
C1735 C1716 1.429 . S
C1735 C1729 1.429 . S
C1735 C1736 1.523 . S
C1736 C1717 1.368 . S
C1736 C1730 1.368 . S
C1736 C1735 1.523 . S
C1737 C1721 1.429 . S
C1737 C1733 1.429 . S
C1737 C1738 1.523 . S
C1738 C1722 1.368 . S
C1738 C1734 1.368 . S
C1738 C1737 1.523 . S
H1739 C1714 0.950 . S
H1740 C1716 0.950 . S
H1741 C1717 0.949 . S
H1742 C1719 0.950 . S
H1743 C1721 0.950 . S
C545 C451 1.017 . S
C550 C9 1.013 1_655 S
C575 C43 1.017 . S
C580 C383 1.017 . S
C605 C77 1.017 . S
C610 C417 1.017 . S
C635 C111 1.017 . S
C640 C349 1.017 . S
C665 C519 1.017 . S
C670 C145 1.012 1_655 S
C695 C179 1.017 . S
C700 C315 1.017 . S
C725 C213 1.017 . S
C730 C485 1.017 . S
C755 C281 1.017 . S
C760 C247 1.017 . S
C785 C20 1.648 . S
C790 C156 1.648 . S
C815 C54 1.648 . S
C820 C190 1.648 . S
C845 C88 1.648 . S
C850 C224 1.648 . S
C875 C258 1.648 . S
C880 C122 1.648 . S
C905 C360 1.648 . S
C910 C292 1.648 . S
C935 C326 1.648 . S
C940 C394 1.648 . S
C965 C496 1.648 . S
C970 C428 1.648 . S
C995 C530 1.648 . S
C1000 C462 1.648 . S
C1025 C203 0.791 . S
C1030 C33 0.791 . S
C1055 C67 0.791 . S
C1060 C237 0.791 . S
C1085 C101 0.791 . S
C1090 C271 0.791 . S
C1115 C169 0.791 . S
C1120 C135 0.791 . S
C1145 C138 1.134 . S
C1150 C342 1.134 . S
C1175 C70 1.134 . S
C1180 C274 1.134 . S
C1205 C376 1.134 . S
C1210 C206 1.134 . S
C1235 C308 1.134 . S
C1240 C2 1.134 . S
C1265 C305 0.791 . S
C1270 C441 0.791 . S
C1295 C543 0.791 . S
C1300 C373 0.791 . S
C1325 C475 0.791 . S
C1330 C339 0.791 . S
C1355 C407 0.791 . S
C1360 C509 0.791 . S
C1385 C478 1.134 . S
C1390 C36 1.134 . S
C1415 C172 1.134 . S
C1420 C444 1.134 . S
C1445 C512 1.134 . S
C1450 C104 1.134 . S
C1475 C240 1.134 . S
C1480 C410 1.134 . S
C1505 C5 0.127 . S
C1510 C447 0.127 . S
C1535 C39 0.127 . S
C1540 C379 0.127 . S
C1565 C73 0.127 . S
C1570 C413 0.127 . S
C1595 C107 0.127 . S
C1600 C345 0.127 . S
C1625 C141 0.127 . S
C1630 C515 0.127 . S
C1655 C175 0.127 . S
C1660 C311 0.127 . S
C1685 C481 0.127 . S
C1690 C209 0.127 . S
C1715 C277 0.127 . S
C1720 C243 0.127 . S
