# Generated by pormake.
# Topology fcg, (5)-cn, num edge types: 1
# Building blocks:
#     Node 0, Type 0, BuildingBlock: BEQFEK_clean_sbu_0, # of connection points: 5
#     Node 1, Type 0, BuildingBlock: BEQFEK_clean_sbu_0, # of connection points: 5
#     Node 2, Type 0, BuildingBlock: BEQFEK_clean_sbu_0, # of connection points: 5
#     Node 3, Type 0, BuildingBlock: BEQFEK_clean_sbu_0, # of connection points: 5
#     Node 4, Type 0, BuildingBlock: BEQFEK_clean_sbu_0, # of connection points: 5
#     Node 5, Type 0, BuildingBlock: BEQFEK_clean_sbu_0, # of connection points: 5
#     Node 6, Type 0, BuildingBlock: BEQFEK_clean_sbu_0, # of connection points: 5
#     Node 7, Type 0, BuildingBlock: BEQFEK_clean_sbu_0, # of connection points: 5
#     Node 8, Type 0, BuildingBlock: BEQFEK_clean_sbu_0, # of connection points: 5
#     Node 9, Type 0, BuildingBlock: BEQFEK_clean_sbu_0, # of connection points: 5
#     Node 10, Type 0, BuildingBlock: BEQFEK_clean_sbu_0, # of connection points: 5
#     Node 11, Type 0, BuildingBlock: BEQFEK_clean_sbu_0, # of connection points: 5
#     Node 12, Type 0, BuildingBlock: BEQFEK_clean_sbu_0, # of connection points: 5
#     Node 13, Type 0, BuildingBlock: BEQFEK_clean_sbu_0, # of connection points: 5
#     Node 14, Type 0, BuildingBlock: BEQFEK_clean_sbu_0, # of connection points: 5
#     Node 15, Type 0, BuildingBlock: BEQFEK_clean_sbu_0, # of connection points: 5
#     Node 16, Type 0, BuildingBlock: BEQFEK_clean_sbu_0, # of connection points: 5
#     Node 17, Type 0, BuildingBlock: BEQFEK_clean_sbu_0, # of connection points: 5
#     Node 18, Type 0, BuildingBlock: BEQFEK_clean_sbu_0, # of connection points: 5
#     Node 19, Type 0, BuildingBlock: BEQFEK_clean_sbu_0, # of connection points: 5
#     Node 20, Type 0, BuildingBlock: BEQFEK_clean_sbu_0, # of connection points: 5
#     Node 21, Type 0, BuildingBlock: BEQFEK_clean_sbu_0, # of connection points: 5
#     Node 22, Type 0, BuildingBlock: BEQFEK_clean_sbu_0, # of connection points: 5
#     Node 23, Type 0, BuildingBlock: BEQFEK_clean_sbu_0, # of connection points: 5
#     Node 24, Type 0, BuildingBlock: BEQFEK_clean_sbu_0, # of connection points: 5
#     Node 25, Type 0, BuildingBlock: BEQFEK_clean_sbu_0, # of connection points: 5
#     Node 26, Type 0, BuildingBlock: BEQFEK_clean_sbu_0, # of connection points: 5
#     Node 27, Type 0, BuildingBlock: BEQFEK_clean_sbu_0, # of connection points: 5
#     Node 28, Type 0, BuildingBlock: BEQFEK_clean_sbu_0, # of connection points: 5
#     Node 29, Type 0, BuildingBlock: BEQFEK_clean_sbu_0, # of connection points: 5
#     Node 30, Type 0, BuildingBlock: BEQFEK_clean_sbu_0, # of connection points: 5
#     Node 31, Type 0, BuildingBlock: BEQFEK_clean_sbu_0, # of connection points: 5
#     Node 32, Type 0, BuildingBlock: BEQFEK_clean_sbu_0, # of connection points: 5
#     Node 33, Type 0, BuildingBlock: BEQFEK_clean_sbu_0, # of connection points: 5
#     Node 34, Type 0, BuildingBlock: BEQFEK_clean_sbu_0, # of connection points: 5
#     Node 35, Type 0, BuildingBlock: BEQFEK_clean_sbu_0, # of connection points: 5
#     Node 36, Type 0, BuildingBlock: BEQFEK_clean_sbu_0, # of connection points: 5
#     Node 37, Type 0, BuildingBlock: BEQFEK_clean_sbu_0, # of connection points: 5
#     Node 38, Type 0, BuildingBlock: BEQFEK_clean_sbu_0, # of connection points: 5
#     Node 39, Type 0, BuildingBlock: BEQFEK_clean_sbu_0, # of connection points: 5
#     Node 40, Type 0, BuildingBlock: BEQFEK_clean_sbu_0, # of connection points: 5
#     Node 41, Type 0, BuildingBlock: BEQFEK_clean_sbu_0, # of connection points: 5
#     Node 42, Type 0, BuildingBlock: BEQFEK_clean_sbu_0, # of connection points: 5
#     Node 43, Type 0, BuildingBlock: BEQFEK_clean_sbu_0, # of connection points: 5
#     Node 44, Type 0, BuildingBlock: BEQFEK_clean_sbu_0, # of connection points: 5
#     Node 45, Type 0, BuildingBlock: BEQFEK_clean_sbu_0, # of connection points: 5
#     Node 46, Type 0, BuildingBlock: BEQFEK_clean_sbu_0, # of connection points: 5
#     Node 47, Type 0, BuildingBlock: BEQFEK_clean_sbu_0, # of connection points: 5
#     Edge 48, Type (0, 0), BuildingBlock: EZIPEK_clean_linker_0, # of connection points: 2
#     Edge 49, Type (0, 0), BuildingBlock: EZIPEK_clean_linker_0, # of connection points: 2
#     Edge 50, Type (0, 0), BuildingBlock: EZIPEK_clean_linker_0, # of connection points: 2
#     Edge 51, Type (0, 0), BuildingBlock: EZIPEK_clean_linker_0, # of connection points: 2
#     Edge 52, Type (0, 0), BuildingBlock: EZIPEK_clean_linker_0, # of connection points: 2
#     Edge 53, Type (0, 0), BuildingBlock: EZIPEK_clean_linker_0, # of connection points: 2
#     Edge 54, Type (0, 0), BuildingBlock: EZIPEK_clean_linker_0, # of connection points: 2
#     Edge 55, Type (0, 0), BuildingBlock: EZIPEK_clean_linker_0, # of connection points: 2
#     Edge 56, Type (0, 0), BuildingBlock: EZIPEK_clean_linker_0, # of connection points: 2
#     Edge 57, Type (0, 0), BuildingBlock: EZIPEK_clean_linker_0, # of connection points: 2
#     Edge 58, Type (0, 0), BuildingBlock: EZIPEK_clean_linker_0, # of connection points: 2
#     Edge 59, Type (0, 0), BuildingBlock: EZIPEK_clean_linker_0, # of connection points: 2
#     Edge 60, Type (0, 0), BuildingBlock: EZIPEK_clean_linker_0, # of connection points: 2
#     Edge 61, Type (0, 0), BuildingBlock: EZIPEK_clean_linker_0, # of connection points: 2
#     Edge 62, Type (0, 0), BuildingBlock: EZIPEK_clean_linker_0, # of connection points: 2
#     Edge 63, Type (0, 0), BuildingBlock: EZIPEK_clean_linker_0, # of connection points: 2
#     Edge 64, Type (0, 0), BuildingBlock: EZIPEK_clean_linker_0, # of connection points: 2
#     Edge 65, Type (0, 0), BuildingBlock: EZIPEK_clean_linker_0, # of connection points: 2
#     Edge 66, Type (0, 0), BuildingBlock: EZIPEK_clean_linker_0, # of connection points: 2
#     Edge 67, Type (0, 0), BuildingBlock: EZIPEK_clean_linker_0, # of connection points: 2
#     Edge 68, Type (0, 0), BuildingBlock: EZIPEK_clean_linker_0, # of connection points: 2
#     Edge 69, Type (0, 0), BuildingBlock: EZIPEK_clean_linker_0, # of connection points: 2
#     Edge 70, Type (0, 0), BuildingBlock: EZIPEK_clean_linker_0, # of connection points: 2
#     Edge 71, Type (0, 0), BuildingBlock: EZIPEK_clean_linker_0, # of connection points: 2
#     Edge 72, Type (0, 0), BuildingBlock: EZIPEK_clean_linker_0, # of connection points: 2
#     Edge 73, Type (0, 0), BuildingBlock: EZIPEK_clean_linker_0, # of connection points: 2
#     Edge 74, Type (0, 0), BuildingBlock: EZIPEK_clean_linker_0, # of connection points: 2
#     Edge 75, Type (0, 0), BuildingBlock: EZIPEK_clean_linker_0, # of connection points: 2
#     Edge 76, Type (0, 0), BuildingBlock: EZIPEK_clean_linker_0, # of connection points: 2
#     Edge 77, Type (0, 0), BuildingBlock: EZIPEK_clean_linker_0, # of connection points: 2
#     Edge 78, Type (0, 0), BuildingBlock: EZIPEK_clean_linker_0, # of connection points: 2
#     Edge 79, Type (0, 0), BuildingBlock: EZIPEK_clean_linker_0, # of connection points: 2
#     Edge 80, Type (0, 0), BuildingBlock: EZIPEK_clean_linker_0, # of connection points: 2
#     Edge 81, Type (0, 0), BuildingBlock: EZIPEK_clean_linker_0, # of connection points: 2
#     Edge 82, Type (0, 0), BuildingBlock: EZIPEK_clean_linker_0, # of connection points: 2
#     Edge 83, Type (0, 0), BuildingBlock: EZIPEK_clean_linker_0, # of connection points: 2
#     Edge 84, Type (0, 0), BuildingBlock: EZIPEK_clean_linker_0, # of connection points: 2
#     Edge 85, Type (0, 0), BuildingBlock: EZIPEK_clean_linker_0, # of connection points: 2
#     Edge 86, Type (0, 0), BuildingBlock: EZIPEK_clean_linker_0, # of connection points: 2
#     Edge 87, Type (0, 0), BuildingBlock: EZIPEK_clean_linker_0, # of connection points: 2
#     Edge 88, Type (0, 0), BuildingBlock: EZIPEK_clean_linker_0, # of connection points: 2
#     Edge 89, Type (0, 0), BuildingBlock: EZIPEK_clean_linker_0, # of connection points: 2
#     Edge 90, Type (0, 0), BuildingBlock: EZIPEK_clean_linker_0, # of connection points: 2
#     Edge 91, Type (0, 0), BuildingBlock: EZIPEK_clean_linker_0, # of connection points: 2
#     Edge 92, Type (0, 0), BuildingBlock: EZIPEK_clean_linker_0, # of connection points: 2
#     Edge 93, Type (0, 0), BuildingBlock: EZIPEK_clean_linker_0, # of connection points: 2
#     Edge 94, Type (0, 0), BuildingBlock: EZIPEK_clean_linker_0, # of connection points: 2
#     Edge 95, Type (0, 0), BuildingBlock: EZIPEK_clean_linker_0, # of connection points: 2
#     Edge 96, Type (0, 0), BuildingBlock: EZIPEK_clean_linker_0, # of connection points: 2
#     Edge 97, Type (0, 0), BuildingBlock: EZIPEK_clean_linker_0, # of connection points: 2
#     Edge 98, Type (0, 0), BuildingBlock: EZIPEK_clean_linker_0, # of connection points: 2
#     Edge 99, Type (0, 0), BuildingBlock: EZIPEK_clean_linker_0, # of connection points: 2
#     Edge 100, Type (0, 0), BuildingBlock: EZIPEK_clean_linker_0, # of connection points: 2
#     Edge 101, Type (0, 0), BuildingBlock: EZIPEK_clean_linker_0, # of connection points: 2
#     Edge 102, Type (0, 0), BuildingBlock: EZIPEK_clean_linker_0, # of connection points: 2
#     Edge 103, Type (0, 0), BuildingBlock: EZIPEK_clean_linker_0, # of connection points: 2
#     Edge 104, Type (0, 0), BuildingBlock: EZIPEK_clean_linker_0, # of connection points: 2
#     Edge 105, Type (0, 0), BuildingBlock: EZIPEK_clean_linker_0, # of connection points: 2
#     Edge 106, Type (0, 0), BuildingBlock: EZIPEK_clean_linker_0, # of connection points: 2
#     Edge 107, Type (0, 0), BuildingBlock: EZIPEK_clean_linker_0, # of connection points: 2
#     Edge 108, Type (0, 0), BuildingBlock: EZIPEK_clean_linker_0, # of connection points: 2
#     Edge 109, Type (0, 0), BuildingBlock: EZIPEK_clean_linker_0, # of connection points: 2
#     Edge 110, Type (0, 0), BuildingBlock: EZIPEK_clean_linker_0, # of connection points: 2
#     Edge 111, Type (0, 0), BuildingBlock: EZIPEK_clean_linker_0, # of connection points: 2
#     Edge 112, Type (0, 0), BuildingBlock: EZIPEK_clean_linker_0, # of connection points: 2
#     Edge 113, Type (0, 0), BuildingBlock: EZIPEK_clean_linker_0, # of connection points: 2
#     Edge 114, Type (0, 0), BuildingBlock: EZIPEK_clean_linker_0, # of connection points: 2
#     Edge 115, Type (0, 0), BuildingBlock: EZIPEK_clean_linker_0, # of connection points: 2
#     Edge 116, Type (0, 0), BuildingBlock: EZIPEK_clean_linker_0, # of connection points: 2
#     Edge 117, Type (0, 0), BuildingBlock: EZIPEK_clean_linker_0, # of connection points: 2
#     Edge 118, Type (0, 0), BuildingBlock: EZIPEK_clean_linker_0, # of connection points: 2
#     Edge 119, Type (0, 0), BuildingBlock: EZIPEK_clean_linker_0, # of connection points: 2
#     Edge 120, Type (0, 0), BuildingBlock: EZIPEK_clean_linker_0, # of connection points: 2
#     Edge 121, Type (0, 0), BuildingBlock: EZIPEK_clean_linker_0, # of connection points: 2
#     Edge 122, Type (0, 0), BuildingBlock: EZIPEK_clean_linker_0, # of connection points: 2
#     Edge 123, Type (0, 0), BuildingBlock: EZIPEK_clean_linker_0, # of connection points: 2
#     Edge 124, Type (0, 0), BuildingBlock: EZIPEK_clean_linker_0, # of connection points: 2
#     Edge 125, Type (0, 0), BuildingBlock: EZIPEK_clean_linker_0, # of connection points: 2
#     Edge 126, Type (0, 0), BuildingBlock: EZIPEK_clean_linker_0, # of connection points: 2
#     Edge 127, Type (0, 0), BuildingBlock: EZIPEK_clean_linker_0, # of connection points: 2
#     Edge 128, Type (0, 0), BuildingBlock: EZIPEK_clean_linker_0, # of connection points: 2
#     Edge 129, Type (0, 0), BuildingBlock: EZIPEK_clean_linker_0, # of connection points: 2
#     Edge 130, Type (0, 0), BuildingBlock: EZIPEK_clean_linker_0, # of connection points: 2
#     Edge 131, Type (0, 0), BuildingBlock: EZIPEK_clean_linker_0, # of connection points: 2
#     Edge 132, Type (0, 0), BuildingBlock: EZIPEK_clean_linker_0, # of connection points: 2
#     Edge 133, Type (0, 0), BuildingBlock: EZIPEK_clean_linker_0, # of connection points: 2
#     Edge 134, Type (0, 0), BuildingBlock: EZIPEK_clean_linker_0, # of connection points: 2
#     Edge 135, Type (0, 0), BuildingBlock: EZIPEK_clean_linker_0, # of connection points: 2
#     Edge 136, Type (0, 0), BuildingBlock: EZIPEK_clean_linker_0, # of connection points: 2
#     Edge 137, Type (0, 0), BuildingBlock: EZIPEK_clean_linker_0, # of connection points: 2
#     Edge 138, Type (0, 0), BuildingBlock: EZIPEK_clean_linker_0, # of connection points: 2
#     Edge 139, Type (0, 0), BuildingBlock: EZIPEK_clean_linker_0, # of connection points: 2
#     Edge 140, Type (0, 0), BuildingBlock: EZIPEK_clean_linker_0, # of connection points: 2
#     Edge 141, Type (0, 0), BuildingBlock: EZIPEK_clean_linker_0, # of connection points: 2
#     Edge 142, Type (0, 0), BuildingBlock: EZIPEK_clean_linker_0, # of connection points: 2
#     Edge 143, Type (0, 0), BuildingBlock: EZIPEK_clean_linker_0, # of connection points: 2
#     Edge 144, Type (0, 0), BuildingBlock: EZIPEK_clean_linker_0, # of connection points: 2
#     Edge 145, Type (0, 0), BuildingBlock: EZIPEK_clean_linker_0, # of connection points: 2
#     Edge 146, Type (0, 0), BuildingBlock: EZIPEK_clean_linker_0, # of connection points: 2
#     Edge 147, Type (0, 0), BuildingBlock: EZIPEK_clean_linker_0, # of connection points: 2
#     Edge 148, Type (0, 0), BuildingBlock: EZIPEK_clean_linker_0, # of connection points: 2
#     Edge 149, Type (0, 0), BuildingBlock: EZIPEK_clean_linker_0, # of connection points: 2
#     Edge 150, Type (0, 0), BuildingBlock: EZIPEK_clean_linker_0, # of connection points: 2
#     Edge 151, Type (0, 0), BuildingBlock: EZIPEK_clean_linker_0, # of connection points: 2
#     Edge 152, Type (0, 0), BuildingBlock: EZIPEK_clean_linker_0, # of connection points: 2
#     Edge 153, Type (0, 0), BuildingBlock: EZIPEK_clean_linker_0, # of connection points: 2
#     Edge 154, Type (0, 0), BuildingBlock: EZIPEK_clean_linker_0, # of connection points: 2
#     Edge 155, Type (0, 0), BuildingBlock: EZIPEK_clean_linker_0, # of connection points: 2
#     Edge 156, Type (0, 0), BuildingBlock: EZIPEK_clean_linker_0, # of connection points: 2
#     Edge 157, Type (0, 0), BuildingBlock: EZIPEK_clean_linker_0, # of connection points: 2
#     Edge 158, Type (0, 0), BuildingBlock: EZIPEK_clean_linker_0, # of connection points: 2
#     Edge 159, Type (0, 0), BuildingBlock: EZIPEK_clean_linker_0, # of connection points: 2
#     Edge 160, Type (0, 0), BuildingBlock: EZIPEK_clean_linker_0, # of connection points: 2
#     Edge 161, Type (0, 0), BuildingBlock: EZIPEK_clean_linker_0, # of connection points: 2
#     Edge 162, Type (0, 0), BuildingBlock: EZIPEK_clean_linker_0, # of connection points: 2
#     Edge 163, Type (0, 0), BuildingBlock: EZIPEK_clean_linker_0, # of connection points: 2
#     Edge 164, Type (0, 0), BuildingBlock: EZIPEK_clean_linker_0, # of connection points: 2
#     Edge 165, Type (0, 0), BuildingBlock: EZIPEK_clean_linker_0, # of connection points: 2
#     Edge 166, Type (0, 0), BuildingBlock: EZIPEK_clean_linker_0, # of connection points: 2
#     Edge 167, Type (0, 0), BuildingBlock: EZIPEK_clean_linker_0, # of connection points: 2
# Relax obj value: 0.230
# Max RMSD: 0.175
# Mean RMSD: 0.175
data_MOF--net-fcg--node1-BEQFEK_clean_sbu_0--edge1-EZIPEK_clean_linker_0
_symmetry_space_group_name_H-M    P1
_symmetry_Int_Tables_number       1
_symmetry_cell_setting            triclinic
loop_
_symmetry_equiv_pos_as_xyz
'x, y, z'
_cell_length_a     51.052949
_cell_length_b     51.050371
_cell_length_c     51.034599
_cell_angle_alpha  90.016499
_cell_angle_beta   90.007296
_cell_angle_gamma 89.976726
loop_
_atom_site_label
_atom_site_type_symbol
_atom_site_fract_x
_atom_site_fract_y
_atom_site_fract_z
_atom_type_partial_charge
Co0 Co 0.15011 0.28932 0.15308 0.0
Co1 Co 0.09603 0.31817 0.16066 0.0
C2 C 0.10737 0.26671 0.18592 0.0
O3 O 0.12969 0.26608 0.17511 0.0
O4 O 0.09118 0.28515 0.18144 0.0
C5 C 0.1779 0.2442 0.13601 0.0
O6 O 0.15532 0.23284 0.14074 0.0
C7 C 0.03933 0.32547 0.15655 0.0
C8 C 0.03573 0.36817 0.1505 0.0
C9 C 0.02133 0.34515 0.15111 0.0
N10 N 0.06325 0.33628 0.15859 0.0
N11 N 0.0609 0.36188 0.15544 0.0
C12 C 0.03421 0.29672 0.15924 0.0
H13 H 0.04006 0.29031 0.17916 0.0
H14 H 0.04647 0.28584 0.14495 0.0
H15 H 0.01327 0.29183 0.15627 0.0
C16 C 0.14048 0.3028 0.09838 0.0
N17 N 0.1323 0.30139 0.12342 0.0
N18 N 0.11004 0.31407 0.12598 0.0
C19 C 0.10365 0.32442 0.10241 0.0
C20 C 0.12266 0.31745 0.08424 0.0
C21 C 0.16594 0.29202 0.08855 0.0
H22 H 0.18227 0.29976 0.10062 0.0
H23 H 0.16568 0.27042 0.09033 0.0
H24 H 0.16946 0.29696 0.0677 0.0
O25 O 0.15924 0.31859 0.17754 0.0
O26 O 0.12075 0.33812 0.18286 0.0
H27 H 0.08623 0.36193 0.10811 0.0
H28 H 0.07903 0.34746 0.0767 0.0
C29 C 0.08178 0.34331 0.09786 0.0
H30 H 0.06349 0.33519 0.10599 0.0
H31 H 0.07663 0.37493 0.15561 0.0
O32 O 0.18058 0.26857 0.14083 0.0
C33 C 0.14505 0.33621 0.18842 0.0
Co34 Co 0.71142 0.15478 0.14895 0.0
Co35 Co 0.6881 0.09887 0.15796 0.0
C36 C 0.7436 0.11414 0.16964 0.0
O37 O 0.742 0.13162 0.15222 0.0
O38 O 0.72442 0.09869 0.17358 0.0
C39 C 0.74525 0.18517 0.11926 0.0
O40 O 0.74686 0.16234 0.10748 0.0
C41 C 0.68452 0.04144 0.15092 0.0
C42 C 0.64161 0.03601 0.1492 0.0
C43 C 0.66515 0.0228 0.14641 0.0
N44 N 0.6729 0.06461 0.15572 0.0
N45 N 0.64726 0.06109 0.15508 0.0
C46 C 0.71355 0.03767 0.15024 0.0
H47 H 0.72186 0.04369 0.16939 0.0
H48 H 0.72211 0.05061 0.13502 0.0
H49 H 0.71896 0.017 0.1463 0.0
C50 C 0.68216 0.15086 0.09966 0.0
N51 N 0.68981 0.14128 0.12296 0.0
N52 N 0.68288 0.11656 0.12487 0.0
C53 C 0.6712 0.10953 0.10213 0.0
C54 C 0.67067 0.13099 0.08545 0.0
C55 C 0.68611 0.17845 0.09094 0.0
H56 H 0.68631 0.1915 0.10829 0.0
H57 H 0.7049 0.1799 0.08016 0.0
H58 H 0.6703 0.18479 0.07748 0.0
O59 O 0.69265 0.15594 0.18393 0.0
O60 O 0.67027 0.11831 0.1862 0.0
H61 H 0.6426 0.07945 0.10629 0.0
H62 H 0.65802 0.08011 0.07464 0.0
C63 C 0.6614 0.08271 0.09595 0.0
H64 H 0.67587 0.06821 0.10283 0.0
H65 H 0.63359 0.07609 0.15756 0.0
O66 O 0.72876 0.1882 0.13781 0.0
C67 C 0.67693 0.14042 0.1958 0.0
Co68 Co 0.84855 0.7023 0.15246 0.0
Co69 Co 0.90634 0.68704 0.16535 0.0
C70 C 0.88549 0.73897 0.17998 0.0
O71 O 0.86462 0.73333 0.16783 0.0
O72 O 0.90491 0.72332 0.18019 0.0
C73 C 0.82207 0.73776 0.12142 0.0
O74 O 0.84648 0.74322 0.1154 0.0
C75 C 0.96287 0.68606 0.15926 0.0
C76 C 0.97342 0.64706 0.17488 0.0
C77 C 0.9838 0.66918 0.16306 0.0
N78 N 0.94108 0.67427 0.16796 0.0
N79 N 0.94748 0.65107 0.1775 0.0
C80 C 0.96323 0.7126 0.1468 0.0
H81 H 0.94351 0.71774 0.13923 0.0
H82 H 0.97796 0.71333 0.13081 0.0
H83 H 0.96862 0.72745 0.16171 0.0
C84 C 0.86177 0.67998 0.10226 0.0
N85 N 0.8686 0.68631 0.12679 0.0
N86 N 0.89388 0.68286 0.13003 0.0
C87 C 0.90417 0.67528 0.10671 0.0
C88 C 0.88401 0.67355 0.08844 0.0
C89 C 0.83431 0.68002 0.09197 0.0
H90 H 0.82013 0.67672 0.10809 0.0
H91 H 0.83013 0.69909 0.08251 0.0
H92 H 0.83188 0.66453 0.07688 0.0
O93 O 0.84298 0.67939 0.18323 0.0
O94 O 0.88435 0.66707 0.19075 0.0
H95 H 0.94087 0.65782 0.11717 0.0
H96 H 0.93551 0.66071 0.08227 0.0
C97 C 0.93256 0.67036 0.10153 0.0
H98 H 0.94317 0.68926 0.10128 0.0
H99 H 0.93407 0.63778 0.18532 0.0
O100 O 0.81723 0.71816 0.13622 0.0
C101 C 0.86014 0.66749 0.19706 0.0
Co102 Co 0.29124 0.84626 0.1583 0.0
Co103 Co 0.31209 0.90424 0.16181 0.0
C104 C 0.2596 0.8936 0.17921 0.0
O105 O 0.26414 0.8697 0.17376 0.0
O106 O 0.27608 0.91137 0.17367 0.0
C107 C 0.25317 0.82301 0.12729 0.0
O108 O 0.25193 0.84774 0.1203 0.0
C109 C 0.3214 0.96065 0.1549 0.0
C110 C 0.36434 0.96228 0.14977 0.0
C111 C 0.34195 0.97761 0.14965 0.0
N112 N 0.33112 0.93636 0.15797 0.0
N113 N 0.35684 0.93751 0.15504 0.0
C114 C 0.29287 0.96723 0.15636 0.0
H115 H 0.28187 0.9549 0.14223 0.0
H116 H 0.28913 0.98822 0.1522 0.0
H117 H 0.28553 0.96264 0.17628 0.0
C118 C 0.31726 0.85015 0.1074 0.0
N119 N 0.31 0.86086 0.13029 0.0
N120 N 0.31326 0.88628 0.12923 0.0
C121 C 0.3203 0.89283 0.10455 0.0
C122 C 0.32301 0.86999 0.08986 0.0
C123 C 0.32316 0.82172 0.10373 0.0
H124 H 0.31423 0.80979 0.11951 0.0
H125 H 0.31701 0.81497 0.08403 0.0
H126 H 0.34471 0.81901 0.10476 0.0
O127 O 0.31483 0.84046 0.18803 0.0
O128 O 0.32788 0.88229 0.19132 0.0
H129 H 0.34262 0.92793 0.10119 0.0
H130 H 0.32189 0.92133 0.07336 0.0
C131 C 0.32323 0.92031 0.09504 0.0
H132 H 0.30785 0.93276 0.10401 0.0
H133 H 0.36918 0.92123 0.15585 0.0
O134 O 0.27013 0.81605 0.14434 0.0
C135 C 0.32741 0.85862 0.19984 0.0
Co136 Co 0.15808 0.69586 0.84768 0.0
Co137 Co 0.09927 0.67712 0.84142 0.0
C138 C 0.11612 0.72946 0.82314 0.0
O139 O 0.13823 0.72506 0.83352 0.0
O140 O 0.0974 0.71303 0.82512 0.0
C141 C 0.1849 0.73324 0.87551 0.0
O142 O 0.16084 0.73508 0.88448 0.0
C143 C 0.04228 0.67277 0.84972 0.0
C144 C 0.03634 0.62994 0.84724 0.0
C145 C 0.02341 0.65331 0.85197 0.0
N146 N 0.06534 0.6614 0.84402 0.0
N147 N 0.0616 0.63582 0.8424 0.0
C148 C 0.03871 0.70169 0.85287 0.0
H149 H 0.03914 0.71098 0.83322 0.0
H150 H 0.05523 0.70993 0.86435 0.0
H151 H 0.01981 0.70648 0.86245 0.0
C152 C 0.1502 0.67469 0.90043 0.0
N153 N 0.14134 0.68011 0.87622 0.0
N154 N 0.11615 0.67502 0.87493 0.0
C155 C 0.10808 0.66702 0.89887 0.0
C156 C 0.1294 0.66682 0.91577 0.0
C157 C 0.1781 0.67716 0.90881 0.0
H158 H 0.19112 0.67505 0.89157 0.0
H159 H 0.18103 0.69656 0.91814 0.0
H160 H 0.1833 0.66201 0.92346 0.0
O161 O 0.16045 0.67215 0.81657 0.0
O162 O 0.11921 0.6574 0.81431 0.0
H163 H 0.0741 0.64315 0.89429 0.0
H164 H 0.07832 0.65602 0.92694 0.0
C165 C 0.08048 0.66044 0.90576 0.0
H166 H 0.06782 0.67729 0.90057 0.0
H167 H 0.07647 0.6223 0.83862 0.0
O168 O 0.19036 0.71506 0.85918 0.0
C169 C 0.14235 0.65915 0.80498 0.0
Co170 Co 0.28992 0.14942 0.84207 0.0
Co171 Co 0.31315 0.09226 0.83696 0.0
C172 C 0.26018 0.10771 0.81529 0.0
O173 O 0.26127 0.12931 0.82746 0.0
O174 O 0.27839 0.09064 0.81742 0.0
C175 C 0.25049 0.18888 0.84864 0.0
O176 O 0.23749 0.17471 0.83158 0.0
C177 C 0.3176 0.03491 0.84438 0.0
C178 C 0.3604 0.0306 0.8494 0.0
C179 C 0.33709 0.01674 0.85018 0.0
N180 N 0.3289 0.05843 0.84079 0.0
N181 N 0.35451 0.05558 0.84336 0.0
C182 C 0.2887 0.03036 0.84284 0.0
H183 H 0.2812 0.03807 0.82395 0.0
H184 H 0.27887 0.04143 0.85878 0.0
H185 H 0.28379 0.00926 0.84445 0.0
C186 C 0.30475 0.14207 0.89661 0.0
N187 N 0.30282 0.13303 0.87194 0.0
N188 N 0.31274 0.10932 0.87054 0.0
C189 C 0.32213 0.10291 0.8945 0.0
C190 C 0.31722 0.12343 0.91169 0.0
C191 C 0.29483 0.16819 0.90562 0.0
H192 H 0.27352 0.16954 0.9016 0.0
H193 H 0.29797 0.17122 0.92691 0.0
H194 H 0.30493 0.18395 0.89459 0.0
O195 O 0.31617 0.15156 0.81268 0.0
O196 O 0.33483 0.11195 0.8119 0.0
H197 H 0.3563 0.07926 0.89046 0.0
H198 H 0.34068 0.07646 0.92197 0.0
C199 C 0.33714 0.07856 0.90063 0.0
H200 H 0.32611 0.06141 0.89346 0.0
H201 H 0.36792 0.07094 0.84196 0.0
O202 O 0.27433 0.18345 0.85352 0.0
C203 C 0.33159 0.13472 0.80223 0.0
Co204 Co 0.84002 0.29353 0.84663 0.0
Co205 Co 0.8971 0.31568 0.84099 0.0
C206 C 0.88576 0.26209 0.82612 0.0
O207 O 0.86192 0.2666 0.83104 0.0
O208 O 0.90355 0.27842 0.83206 0.0
C209 C 0.81278 0.25137 0.86918 0.0
O210 O 0.83694 0.24357 0.87331 0.0
C211 C 0.95176 0.32137 0.854 0.0
C212 C 0.96406 0.35661 0.83215 0.0
C213 C 0.97333 0.33671 0.84817 0.0
N214 N 0.93073 0.33156 0.84196 0.0
N215 N 0.9381 0.35276 0.82905 0.0
C216 C 0.95117 0.29685 0.87007 0.0
H217 H 0.93139 0.29382 0.87857 0.0
H218 H 0.96611 0.29768 0.88585 0.0
H219 H 0.95558 0.2798 0.85734 0.0
C220 C 0.84602 0.31556 0.89955 0.0
N221 N 0.85547 0.31072 0.87541 0.0
N222 N 0.87912 0.3207 0.87333 0.0
C223 C 0.88528 0.33264 0.89616 0.0
C224 C 0.86467 0.32932 0.91364 0.0
C225 C 0.81974 0.30665 0.90902 0.0
H226 H 0.80474 0.31047 0.89376 0.0
H227 H 0.82046 0.28529 0.91266 0.0
H228 H 0.81393 0.31646 0.92749 0.0
O229 O 0.83461 0.31715 0.81584 0.0
O230 O 0.87653 0.32868 0.8103 0.0
H231 H 0.91538 0.35912 0.88351 0.0
H232 H 0.9076 0.3611 0.91807 0.0
C233 C 0.90995 0.34766 0.90113 0.0
H234 H 0.92605 0.33381 0.90561 0.0
H235 H 0.92559 0.36415 0.81758 0.0
O236 O 0.80876 0.27357 0.85835 0.0
C237 C 0.85282 0.32783 0.80228 0.0
Co238 Co 0.7004 0.83427 0.84892 0.0
Co239 Co 0.68916 0.89407 0.84703 0.0
C240 C 0.73966 0.87713 0.83219 0.0
O241 O 0.73026 0.85437 0.83508 0.0
O242 O 0.72714 0.89718 0.83996 0.0
C243 C 0.73413 0.80561 0.88027 0.0
O244 O 0.73768 0.82969 0.88863 0.0
C245 C 0.68412 0.95096 0.85532 0.0
C246 C 0.64278 0.95763 0.8442 0.0
C247 C 0.66504 0.97025 0.85324 0.0
N248 N 0.67351 0.92796 0.84809 0.0
N249 N 0.64883 0.93211 0.84143 0.0
C250 C 0.71196 0.95434 0.86404 0.0
H251 H 0.71971 0.93603 0.87272 0.0
H252 H 0.71362 0.97066 0.87832 0.0
H253 H 0.72434 0.95897 0.8468 0.0
C254 C 0.67051 0.8396 0.89888 0.0
N255 N 0.68174 0.84971 0.87723 0.0
N256 N 0.68032 0.87524 0.8781 0.0
C257 C 0.66987 0.88261 0.90121 0.0
C258 C 0.66153 0.86014 0.91516 0.0
C259 C 0.67021 0.81063 0.90414 0.0
H260 H 0.68359 0.79998 0.89116 0.0
H261 H 0.67563 0.80624 0.92471 0.0
H262 H 0.65069 0.80247 0.89949 0.0
O263 O 0.6782 0.83222 0.8173 0.0
O264 O 0.67493 0.87583 0.81486 0.0
H265 H 0.65487 0.92163 0.90651 0.0
H266 H 0.67789 0.91091 0.93183 0.0
C267 C 0.67284 0.91019 0.91076 0.0
H268 H 0.68913 0.91972 0.9003 0.0
H269 H 0.63609 0.91746 0.83503 0.0
O270 O 0.71841 0.80218 0.86112 0.0
C271 C 0.6713 0.85302 0.80514 0.0
Co272 Co 0.15618 0.16218 0.3024 0.0
Co273 Co 0.16359 0.10291 0.31726 0.0
C274 C 0.18329 0.12181 0.26774 0.0
O275 O 0.17597 0.14443 0.2748 0.0
O276 O 0.17787 0.10152 0.28113 0.0
C277 C 0.13361 0.19159 0.2623 0.0
O278 O 0.13531 0.16835 0.25136 0.0
C279 C 0.15515 0.04634 0.31916 0.0
C280 C 0.16829 0.03603 0.3591 0.0
C281 C 0.15777 0.02546 0.33639 0.0
N282 N 0.16348 0.06822 0.3312 0.0
N283 N 0.17138 0.06193 0.35504 0.0
C284 C 0.14439 0.04575 0.29188 0.0
H285 H 0.13707 0.0654 0.28615 0.0
H286 H 0.12853 0.03096 0.29024 0.0
H287 H 0.16021 0.04035 0.27801 0.0
C288 C 0.10287 0.15135 0.319 0.0
N289 N 0.12754 0.14317 0.31501 0.0
N290 N 0.12914 0.11787 0.31947 0.0
C291 C 0.10487 0.10901 0.32566 0.0
C292 C 0.08749 0.13004 0.32532 0.0
C293 C 0.09409 0.1793 0.31735 0.0
H294 H 0.10998 0.19254 0.32398 0.0
H295 H 0.08907 0.18408 0.29678 0.0
H296 H 0.07641 0.18261 0.32958 0.0
O297 O 0.18316 0.16681 0.32946 0.0
O298 O 0.1905 0.12458 0.33661 0.0
H299 H 0.11244 0.07259 0.34514 0.0
H300 H 0.07809 0.0792 0.33945 0.0
C301 C 0.09811 0.08105 0.3312 0.0
H302 H 0.09884 0.06971 0.31272 0.0
H303 H 0.17865 0.07534 0.36864 0.0
O304 O 0.14217 0.19454 0.28559 0.0
C305 C 0.1965 0.14863 0.34037 0.0
Co306 Co 0.84244 0.15594 0.2934 0.0
Co307 Co 0.90104 0.1605 0.31159 0.0
C308 C 0.88729 0.17569 0.2593 0.0
O309 O 0.86392 0.17125 0.26607 0.0
O310 O 0.90633 0.169 0.27387 0.0
C311 C 0.81839 0.12688 0.25433 0.0
O312 O 0.84239 0.11764 0.25346 0.0
C313 C 0.95602 0.14713 0.31788 0.0
C314 C 0.96737 0.16831 0.35387 0.0
C315 C 0.97709 0.15215 0.33429 0.0
N316 N 0.93489 0.15966 0.32729 0.0
N317 N 0.94174 0.17225 0.34887 0.0
C318 C 0.95586 0.13083 0.29349 0.0
H319 H 0.9359 0.12311 0.28966 0.0
H320 H 0.97013 0.11449 0.2951 0.0
H321 H 0.96144 0.14317 0.27652 0.0
C322 C 0.84752 0.10446 0.31858 0.0
N323 N 0.85786 0.12757 0.31123 0.0
N324 N 0.8826 0.12858 0.31835 0.0
C325 C 0.88876 0.10579 0.33042 0.0
C326 C 0.86684 0.08965 0.33043 0.0
C327 C 0.81959 0.09662 0.31447 0.0
H328 H 0.80714 0.11394 0.31057 0.0
H329 H 0.81848 0.08278 0.29782 0.0
H330 H 0.81188 0.08629 0.33194 0.0
O331 O 0.83803 0.18707 0.31648 0.0
O332 O 0.88088 0.19154 0.32488 0.0
H333 H 0.92219 0.11675 0.35342 0.0
H334 H 0.91312 0.08263 0.35609 0.0
C335 C 0.91471 0.09954 0.34251 0.0
H336 H 0.92889 0.09442 0.32691 0.0
H337 H 0.929 0.18374 0.35999 0.0
O338 O 0.81238 0.14366 0.27193 0.0
C339 C 0.85736 0.20016 0.32572 0.0
Co340 Co 0.84745 0.84742 0.29877 0.0
Co341 Co 0.84045 0.90356 0.32418 0.0
C342 C 0.81944 0.89176 0.27182 0.0
O343 O 0.82825 0.86872 0.27403 0.0
O344 O 0.82337 0.90899 0.28938 0.0
C345 C 0.86972 0.82272 0.2551 0.0
O346 O 0.8732 0.84736 0.24856 0.0
C347 C 0.84493 0.9607 0.33065 0.0
C348 C 0.85109 0.96493 0.37326 0.0
C349 C 0.85036 0.97904 0.35005 0.0
N350 N 0.84288 0.93688 0.3418 0.0
N351 N 0.84618 0.93965 0.36735 0.0
C352 C 0.84232 0.96549 0.30183 0.0
H353 H 0.82238 0.95971 0.29544 0.0
H354 H 0.85659 0.95305 0.29112 0.0
H355 H 0.84542 0.98636 0.2967 0.0
C356 C 0.90125 0.85514 0.31606 0.0
N357 N 0.87667 0.86407 0.31289 0.0
N358 N 0.87468 0.88782 0.32269 0.0
C359 C 0.89844 0.89482 0.33211 0.0
C360 C 0.91595 0.87444 0.32797 0.0
C361 C 0.91014 0.82812 0.30887 0.0
H362 H 0.89437 0.81376 0.31298 0.0
H363 H 0.91467 0.82756 0.2877 0.0
H364 H 0.92807 0.82236 0.31966 0.0
O365 O 0.82084 0.83989 0.3261 0.0
O366 O 0.81525 0.8797 0.34277 0.0
H367 H 0.89548 0.91898 0.366 0.0
H368 H 0.92552 0.92324 0.34796 0.0
C369 C 0.90414 0.91981 0.3461 0.0
H370 H 0.89507 0.93611 0.33524 0.0
H371 H 0.8461 0.92411 0.38064 0.0
O372 O 0.85902 0.81729 0.27707 0.0
C373 C 0.80912 0.8554 0.34196 0.0
Co374 Co 0.15881 0.8443 0.29516 0.0
Co375 Co 0.09943 0.84378 0.31192 0.0
C376 C 0.11195 0.82671 0.26071 0.0
O377 O 0.13556 0.83006 0.26775 0.0
O378 O 0.09296 0.83395 0.27511 0.0
C379 C 0.18459 0.87242 0.25738 0.0
O380 O 0.16054 0.88154 0.25659 0.0
C381 C 0.04297 0.85047 0.32183 0.0
C382 C 0.04259 0.85918 0.36427 0.0
C383 C 0.02661 0.85736 0.34242 0.0
N384 N 0.06755 0.84844 0.33102 0.0
N385 N 0.06713 0.8534 0.35646 0.0
C386 C 0.03558 0.84672 0.29372 0.0
H387 H 0.0428 0.82738 0.2869 0.0
H388 H 0.04525 0.86202 0.28168 0.0
H389 H 0.01407 0.84774 0.29083 0.0
C390 C 0.1551 0.89737 0.31728 0.0
N391 N 0.14451 0.87388 0.31187 0.0
N392 N 0.11903 0.87523 0.31487 0.0
C393 C 0.11244 0.9002 0.3206 0.0
C394 C 0.13519 0.91508 0.32237 0.0
C395 C 0.18381 0.90289 0.31762 0.0
H396 H 0.19499 0.8844 0.31999 0.0
H397 H 0.18946 0.91253 0.29902 0.0
H398 H 0.1886 0.91656 0.33384 0.0
O399 O 0.16176 0.81402 0.31908 0.0
O400 O 0.11857 0.81213 0.32619 0.0
H401 H 0.07693 0.90585 0.3419 0.0
H402 H 0.08398 0.93144 0.31865 0.0
C403 C 0.08491 0.90999 0.32212 0.0
H404 H 0.07268 0.89961 0.30747 0.0
H405 H 0.08379 0.85375 0.36831 0.0
O406 O 0.19031 0.85496 0.27435 0.0
C407 C 0.14155 0.80225 0.32806 0.0
Co408 Co 0.15428 0.83926 0.70673 0.0
Co409 Co 0.15896 0.89726 0.68798 0.0
C410 C 0.17351 0.88394 0.74089 0.0
O411 O 0.16918 0.8604 0.73461 0.0
O412 O 0.16725 0.90268 0.72574 0.0
C413 C 0.12932 0.81268 0.74732 0.0
O414 O 0.12392 0.837 0.75374 0.0
C415 C 0.14475 0.95154 0.68183 0.0
C416 C 0.16487 0.9633 0.64534 0.0
C417 C 0.14879 0.97254 0.6652 0.0
N418 N 0.15774 0.9308 0.67229 0.0
N419 N 0.16973 0.93784 0.65045 0.0
C420 C 0.1288 0.95101 0.70644 0.0
H421 H 0.12151 0.93091 0.71032 0.0
H422 H 0.11216 0.96495 0.7051 0.0
H423 H 0.1413 0.95683 0.72323 0.0
C424 C 0.10163 0.84488 0.68408 0.0
N425 N 0.12549 0.85466 0.68965 0.0
N426 N 0.12694 0.879 0.68141 0.0
C427 C 0.1039 0.88534 0.66991 0.0
C428 C 0.08698 0.86409 0.67179 0.0
C429 C 0.09285 0.81778 0.69103 0.0
H430 H 0.10919 0.80373 0.68833 0.0
H431 H 0.08675 0.81746 0.71184 0.0
H432 H 0.0759 0.81145 0.67904 0.0
O433 O 0.18575 0.83514 0.68361 0.0
O434 O 0.1903 0.87782 0.67495 0.0
H435 H 0.11534 0.91763 0.64552 0.0
H436 H 0.08111 0.90888 0.64319 0.0
C437 C 0.09804 0.91084 0.65671 0.0
H438 H 0.09303 0.92575 0.67167 0.0
H439 H 0.18129 0.92534 0.63913 0.0
O440 O 0.14207 0.8081 0.72625 0.0
C441 C 0.19905 0.85439 0.67449 0.0
Co442 Co 0.15339 0.14937 0.69835 0.0
Co443 Co 0.09423 0.15625 0.68328 0.0
C444 C 0.11323 0.17489 0.73414 0.0
O445 O 0.13506 0.16459 0.72826 0.0
O446 O 0.09338 0.17263 0.71909 0.0
C447 C 0.18126 0.12163 0.73545 0.0
O448 O 0.15701 0.11568 0.74164 0.0
C449 C 0.03675 0.15217 0.67762 0.0
C450 C 0.03366 0.14346 0.63526 0.0
C451 C 0.01901 0.14584 0.65795 0.0
N452 N 0.0608 0.15327 0.66702 0.0
N453 N 0.05874 0.14837 0.64166 0.0
C454 C 0.03126 0.15613 0.70614 0.0
H455 H 0.04077 0.17447 0.71288 0.0
H456 H 0.03995 0.13972 0.71744 0.0
H457 H 0.00991 0.15717 0.71011 0.0
C458 C 0.14428 0.09726 0.67815 0.0
N459 N 0.13585 0.12159 0.68334 0.0
N460 N 0.11028 0.12255 0.6814 0.0
C461 C 0.10144 0.09812 0.67628 0.0
C462 C 0.12281 0.0814 0.67396 0.0
C463 C 0.17244 0.08911 0.67759 0.0
H464 H 0.18522 0.10617 0.67337 0.0
H465 H 0.17795 0.08068 0.6968 0.0
H466 H 0.17552 0.07374 0.66251 0.0
O467 O 0.15621 0.17992 0.67461 0.0
O468 O 0.11409 0.18313 0.66299 0.0
H469 H 0.0644 0.09634 0.65711 0.0
H470 H 0.07086 0.06903 0.67853 0.0
C471 C 0.07326 0.0905 0.67606 0.0
H472 H 0.063 0.10097 0.69208 0.0
H473 H 0.07467 0.14737 0.62889 0.0
O474 O 0.18555 0.13575 0.71522 0.0
C475 C 0.13749 0.19193 0.663 0.0
Co476 Co 0.84348 0.15449 0.71242 0.0
Co477 Co 0.83501 0.09898 0.68783 0.0
C478 C 0.82006 0.11392 0.74281 0.0
O479 O 0.83735 0.13159 0.74269 0.0
O480 O 0.81751 0.09871 0.72319 0.0
C481 C 0.87203 0.18392 0.74768 0.0
O482 O 0.88297 0.1607 0.74962 0.0
C483 C 0.84107 0.04161 0.68455 0.0
C484 C 0.84532 0.03608 0.6418 0.0
C485 C 0.84654 0.02289 0.66551 0.0
N486 N 0.83734 0.0648 0.67264 0.0
N487 N 0.83941 0.06123 0.64707 0.0
C488 C 0.83989 0.03789 0.71358 0.0
H489 H 0.82037 0.04425 0.72069 0.0
H490 H 0.85477 0.05057 0.72308 0.0
H491 H 0.84311 0.01716 0.71923 0.0
C492 C 0.89408 0.15009 0.68568 0.0
N493 N 0.87049 0.14055 0.69239 0.0
N494 N 0.86854 0.11605 0.68469 0.0
C495 C 0.89151 0.1091 0.67344 0.0
C496 C 0.90836 0.13039 0.67401 0.0
C497 C 0.90264 0.17768 0.68998 0.0
H498 H 0.88537 0.19074 0.68865 0.0
H499 H 0.91188 0.17938 0.70956 0.0
H500 H 0.9173 0.18388 0.67523 0.0
O501 O 0.80993 0.15638 0.69148 0.0
O502 O 0.80834 0.11902 0.66857 0.0
H503 H 0.88795 0.08093 0.64286 0.0
H504 H 0.91888 0.07987 0.65963 0.0
C505 C 0.8975 0.08277 0.66227 0.0
H506 H 0.88972 0.06752 0.67544 0.0
H507 H 0.83796 0.07624 0.63327 0.0
O508 O 0.85429 0.1876 0.73045 0.0
C509 C 0.79873 0.14119 0.67498 0.0
Co510 Co 0.84386 0.84222 0.70806 0.0
Co511 Co 0.90108 0.83907 0.68314 0.0
C512 C 0.89009 0.81584 0.73423 0.0
O513 O 0.86651 0.82313 0.73182 0.0
O514 O 0.90746 0.82156 0.71732 0.0
C515 C 0.81735 0.86255 0.75166 0.0
O516 O 0.84154 0.87009 0.75621 0.0
C517 C 0.95787 0.84563 0.67517 0.0
C518 C 0.96079 0.85051 0.63227 0.0
C519 C 0.97558 0.85038 0.65505 0.0
N520 N 0.93376 0.8432 0.66482 0.0
N521 N 0.9357 0.84588 0.63912 0.0
C522 C 0.96357 0.84353 0.70386 0.0
H523 H 0.95919 0.8233 0.71047 0.0
H524 H 0.95053 0.85704 0.71483 0.0
H525 H 0.98433 0.84796 0.70842 0.0
C526 C 0.85017 0.89733 0.69302 0.0
N527 N 0.85979 0.87293 0.69541 0.0
N528 N 0.88385 0.87229 0.68614 0.0
C529 C 0.89033 0.89665 0.67804 0.0
C530 C 0.86918 0.91321 0.68222 0.0
C531 C 0.82274 0.9049 0.69965 0.0
H532 H 0.80936 0.8891 0.69314 0.0
H533 H 0.82119 0.90747 0.72114 0.0
H534 H 0.81681 0.92358 0.69034 0.0
O535 O 0.83807 0.8167 0.67935 0.0
O536 O 0.87857 0.81346 0.66378 0.0
H537 H 0.91681 0.89499 0.64579 0.0
H538 H 0.91799 0.92537 0.66376 0.0
C539 C 0.91578 0.90382 0.6656 0.0
H540 H 0.93195 0.89586 0.67762 0.0
H541 H 0.91979 0.84517 0.6263 0.0
O542 O 0.81238 0.85023 0.73046 0.0
C543 C 0.85459 0.8063 0.6636 0.0
Co544 Co 0.29353 0.15743 0.15184 0.0
Co545 Co 0.31833 0.16084 0.09612 0.0
C546 C 0.2623 0.17672 0.10851 0.0
O547 O 0.26324 0.16509 0.13036 0.0
O548 O 0.28218 0.17733 0.09336 0.0
C549 C 0.25606 0.1572 0.19263 0.0
O550 O 0.24591 0.17655 0.17904 0.0
C551 C 0.32067 0.15061 0.03958 0.0
C552 C 0.36337 0.14901 0.03255 0.0
C553 C 0.33932 0.14589 0.02036 0.0
N554 N 0.33313 0.15601 0.06213 0.0
N555 N 0.35863 0.15532 0.05773 0.0
C556 C 0.2915 0.14992 0.03686 0.0
H557 H 0.28349 0.16967 0.04114 0.0
H558 H 0.28323 0.13619 0.05155 0.0
H559 H 0.28532 0.14401 0.01688 0.0
C560 C 0.31322 0.10365 0.14885 0.0
N561 N 0.31034 0.12779 0.13867 0.0
N562 N 0.32028 0.12844 0.11495 0.0
C563 C 0.33053 0.10462 0.10956 0.0
C564 C 0.32616 0.08814 0.13079 0.0
C565 C 0.30246 0.09529 0.17483 0.0
H566 H 0.28094 0.09833 0.17498 0.0
H567 H 0.30662 0.07439 0.17902 0.0
H568 H 0.3111 0.10762 0.19051 0.0
O569 O 0.31577 0.1901 0.15149 0.0
O570 O 0.3388 0.18804 0.11443 0.0
H571 H 0.34982 0.07663 0.08414 0.0
H572 H 0.33181 0.10247 0.06793 0.0
C573 C 0.34451 0.0977 0.08481 0.0
H574 H 0.36266 0.10951 0.08333 0.0
H575 H 0.37282 0.15847 0.07211 0.0
O576 O 0.27836 0.14815 0.18632 0.0
C577 C 0.33266 0.19972 0.13562 0.0
Co578 Co 0.29046 0.83741 0.84599 0.0
Co579 Co 0.31121 0.83383 0.90439 0.0
C580 C 0.25916 0.81512 0.89167 0.0
O581 O 0.26398 0.82049 0.86791 0.0
O582 O 0.27461 0.82197 0.90997 0.0
C583 C 0.25096 0.86335 0.81878 0.0
O584 O 0.24792 0.87208 0.84282 0.0
C585 C 0.31742 0.84714 0.95952 0.0
C586 C 0.35616 0.83063 0.96948 0.0
C587 C 0.33509 0.8442 0.97997 0.0
N588 N 0.32757 0.83598 0.93796 0.0
N589 N 0.35077 0.82618 0.94399 0.0
C590 C 0.29121 0.86026 0.96035 0.0
H591 H 0.28584 0.86771 0.94064 0.0
H592 H 0.2912 0.87649 0.97484 0.0
H593 H 0.27614 0.84578 0.96625 0.0
C594 C 0.31096 0.89108 0.85188 0.0
N595 N 0.30597 0.8672 0.86185 0.0
N596 N 0.31405 0.86639 0.88633 0.0
C597 C 0.32417 0.89005 0.89268 0.0
C598 C 0.32205 0.9065 0.87114 0.0
C599 C 0.30632 0.89857 0.82402 0.0
H600 H 0.31049 0.88143 0.81138 0.0
H601 H 0.28566 0.90476 0.82164 0.0
H602 H 0.31885 0.91512 0.81777 0.0
O603 O 0.31616 0.80846 0.84148 0.0
O604 O 0.32712 0.80446 0.88378 0.0
H605 H 0.35015 0.88071 0.92435 0.0
H606 H 0.3481 0.91525 0.91684 0.0
C607 C 0.33682 0.89672 0.91827 0.0
H608 H 0.32152 0.8992 0.93345 0.0
H609 H 0.36283 0.8163 0.93076 0.0
O610 O 0.26981 0.84762 0.81402 0.0
C611 C 0.32776 0.7963 0.86012 0.0
Co612 Co 0.15293 0.29267 0.84267 0.0
Co613 Co 0.15726 0.31233 0.90087 0.0
C614 C 0.17956 0.26229 0.88673 0.0
O615 O 0.17226 0.26721 0.86353 0.0
O616 O 0.17365 0.27728 0.90577 0.0
C617 C 0.12943 0.25088 0.81693 0.0
O618 O 0.12506 0.24445 0.84146 0.0
C619 C 0.14873 0.31907 0.95744 0.0
C620 C 0.14682 0.36213 0.96145 0.0
C621 C 0.14439 0.339 0.97544 0.0
N622 N 0.15346 0.32988 0.93389 0.0
N623 N 0.15245 0.35564 0.93646 0.0
C624 C 0.1482 0.29018 0.96232 0.0
H625 H 0.16847 0.28245 0.96096 0.0
H626 H 0.13644 0.28035 0.9469 0.0
H627 H 0.1402 0.28543 0.98195 0.0
C628 C 0.09926 0.31002 0.84927 0.0
N629 N 0.12336 0.30596 0.85897 0.0
N630 N 0.12372 0.31146 0.88407 0.0
C631 C 0.09913 0.31805 0.89142 0.0
C632 C 0.08291 0.31747 0.86951 0.0
C633 C 0.09226 0.30793 0.82085 0.0
H634 H 0.10955 0.3124 0.80848 0.0
H635 H 0.08566 0.28772 0.81652 0.0
H636 H 0.07603 0.32154 0.8159 0.0
O637 O 0.17924 0.32009 0.83696 0.0
O638 O 0.18402 0.33144 0.8787 0.0
H639 H 0.09983 0.34275 0.92508 0.0
H640 H 0.06948 0.32506 0.92082 0.0
C641 C 0.0911 0.32386 0.91889 0.0
H642 H 0.09866 0.30819 0.93185 0.0
H643 H 0.15489 0.36878 0.921 0.0
O644 O 0.14137 0.27226 0.81185 0.0
C645 C 0.19101 0.33335 0.85468 0.0
Co646 Co 0.69348 0.15122 0.83987 0.0
Co647 Co 0.67794 0.15695 0.8993 0.0
C648 C 0.72807 0.17693 0.88163 0.0
O649 O 0.72191 0.16772 0.8594 0.0
O650 O 0.71335 0.17352 0.90152 0.0
C651 C 0.73182 0.12359 0.81394 0.0
O652 O 0.7345 0.11541 0.83817 0.0
C653 C 0.67222 0.1527 0.95675 0.0
C654 C 0.63049 0.14155 0.96003 0.0
C655 C 0.65304 0.14535 0.97461 0.0
N656 N 0.66152 0.15304 0.9327 0.0
N657 N 0.63651 0.14666 0.93486 0.0
C658 C 0.70046 0.15837 0.96216 0.0
H659 H 0.70572 0.17759 0.9535 0.0
H660 H 0.71277 0.14325 0.95254 0.0
H661 H 0.70465 0.15871 0.98349 0.0
C662 C 0.67445 0.09836 0.84859 0.0
N663 N 0.67902 0.12276 0.85718 0.0
N664 N 0.67751 0.12338 0.8828 0.0
C665 C 0.67365 0.09868 0.8915 0.0
C666 C 0.67153 0.08203 0.87001 0.0
C667 C 0.67226 0.09093 0.82031 0.0
H668 H 0.66973 0.10859 0.8079 0.0
H669 H 0.69004 0.08031 0.81407 0.0
H670 H 0.6554 0.07748 0.81753 0.0
O671 O 0.66875 0.18075 0.83665 0.0
O672 O 0.65759 0.18386 0.87893 0.0
H673 H 0.65493 0.09516 0.92868 0.0
H674 H 0.67847 0.06972 0.92194 0.0
C675 C 0.67424 0.09093 0.91969 0.0
H676 H 0.68937 0.1026 0.93 0.0
H677 H 0.62378 0.14481 0.91897 0.0
O678 O 0.71289 0.13901 0.80833 0.0
C679 C 0.65702 0.19254 0.85543 0.0
Co680 Co 0.8478 0.71089 0.85174 0.0
Co681 Co 0.84058 0.68275 0.90513 0.0
C682 C 0.82282 0.73867 0.89241 0.0
O683 O 0.8388 0.741 0.87367 0.0
O684 O 0.82214 0.7177 0.90587 0.0
C685 C 0.85722 0.74974 0.8127 0.0
O686 O 0.84354 0.76469 0.82854 0.0
C687 C 0.85912 0.67975 0.95882 0.0
C688 C 0.83773 0.64551 0.97444 0.0
C689 C 0.85582 0.66462 0.9811 0.0
N690 N 0.84371 0.67004 0.93985 0.0
N691 N 0.83101 0.64954 0.94924 0.0
C692 C 0.87653 0.70313 0.95551 0.0
H693 H 0.88349 0.70463 0.93501 0.0
H694 H 0.89346 0.70216 0.96914 0.0
H695 H 0.86518 0.72116 0.95979 0.0
C696 C 0.90125 0.69107 0.85716 0.0
N697 N 0.87663 0.69387 0.86604 0.0
N698 N 0.87379 0.68078 0.88798 0.0
C699 C 0.89644 0.66802 0.8931 0.0
C700 C 0.91463 0.67451 0.87389 0.0
C701 C 0.91185 0.70427 0.8332 0.0
H702 H 0.90234 0.69585 0.81556 0.0
H703 H 0.90724 0.72548 0.83398 0.0
H704 H 0.93338 0.70185 0.83148 0.0
O705 O 0.81557 0.6871 0.8499 0.0
O706 O 0.81443 0.66245 0.88605 0.0
H707 H 0.88156 0.63873 0.91942 0.0
H708 H 0.91544 0.63414 0.90963 0.0
C709 C 0.90026 0.6488 0.9149 0.0
H710 H 0.90696 0.65932 0.93268 0.0
H711 H 0.81775 0.63832 0.93845 0.0
O712 O 0.85928 0.72537 0.81743 0.0
C713 C 0.80467 0.66961 0.86423 0.0
Co714 Co 0.71405 0.84636 0.15374 0.0
Co715 Co 0.68934 0.83727 0.09761 0.0
C716 C 0.74328 0.81865 0.11138 0.0
O717 O 0.74209 0.8313 0.13275 0.0
O718 O 0.72481 0.81977 0.09448 0.0
C719 C 0.75496 0.86424 0.18749 0.0
O720 O 0.76956 0.85857 0.16709 0.0
C721 C 0.67709 0.84383 0.04078 0.0
C722 C 0.63468 0.83511 0.04113 0.0
C723 C 0.65506 0.84247 0.02488 0.0
N724 N 0.67 0.83757 0.06541 0.0
N725 N 0.64464 0.8323 0.06536 0.0
C726 C 0.70424 0.85117 0.03272 0.0
H727 H 0.71718 0.85304 0.0501 0.0
H728 H 0.70385 0.86991 0.02171 0.0
H729 H 0.71211 0.8359 0.01939 0.0
C730 C 0.69534 0.89933 0.1448 0.0
N731 N 0.69855 0.87448 0.1367 0.0
N732 N 0.68889 0.87168 0.113 0.0
C733 C 0.67896 0.89504 0.10535 0.0
C734 C 0.68288 0.91323 0.12526 0.0
C735 C 0.7043 0.90962 0.17079 0.0
H736 H 0.69634 0.89716 0.18671 0.0
H737 H 0.72596 0.90884 0.17163 0.0
H738 H 0.69822 0.93019 0.1741 0.0
O739 O 0.68943 0.81643 0.15963 0.0
O740 O 0.67127 0.81151 0.12015 0.0
H741 H 0.64918 0.886 0.07736 0.0
H742 H 0.65825 0.92025 0.07832 0.0
C743 C 0.66571 0.89987 0.07975 0.0
H744 H 0.67999 0.89633 0.06379 0.0
H745 H 0.63399 0.82719 0.08205 0.0
O746 O 0.73045 0.85962 0.18664 0.0
C747 C 0.67473 0.80392 0.14366 0.0
Co748 Co 0.16322 0.71211 0.15692 0.0
Co749 Co 0.16281 0.69216 0.09822 0.0
C750 C 0.17802 0.74474 0.10799 0.0
O751 O 0.17535 0.73914 0.13211 0.0
O752 O 0.17122 0.72885 0.09004 0.0
C753 C 0.13437 0.74912 0.18421 0.0
O754 O 0.12362 0.74939 0.16084 0.0
C755 C 0.15594 0.67942 0.04219 0.0
C756 C 0.1432 0.63811 0.04445 0.0
C757 C 0.14692 0.65864 0.02712 0.0
N758 N 0.15722 0.67163 0.06732 0.0
N759 N 0.14996 0.64679 0.06844 0.0
C760 C 0.16223 0.70655 0.03311 0.0
H761 H 0.14691 0.72021 0.04029 0.0
H762 H 0.16328 0.70767 0.01142 0.0
H763 H 0.18123 0.71282 0.04159 0.0
C764 C 0.11101 0.68798 0.15551 0.0
N765 N 0.13405 0.69361 0.14414 0.0
N766 N 0.13211 0.68963 0.11882 0.0
C767 C 0.10709 0.6833 0.11307 0.0
C768 C 0.09294 0.68196 0.13626 0.0
C769 C 0.10623 0.68823 0.18433 0.0
H770 H 0.12504 0.68596 0.19497 0.0
H771 H 0.09672 0.70694 0.18986 0.0
H772 H 0.0927 0.67212 0.18982 0.0
O773 O 0.19438 0.68958 0.15965 0.0
O774 O 0.19516 0.67902 0.11708 0.0
H775 H 0.09854 0.66086 0.07882 0.0
H776 H 0.07526 0.68643 0.08547 0.0
C777 C 0.09638 0.68129 0.08589 0.0
H778 H 0.10743 0.69447 0.07264 0.0
H779 H 0.14849 0.6361 0.08581 0.0
O780 O 0.15305 0.73309 0.18864 0.0
C781 C 0.20556 0.67897 0.13991 0.0
Co782 Co 0.84156 0.29568 0.1566 0.0
Co783 Co 0.83902 0.31766 0.09827 0.0
C784 C 0.82284 0.26457 0.10891 0.0
O785 O 0.82694 0.26911 0.13299 0.0
O786 O 0.82937 0.28084 0.09123 0.0
C787 C 0.86762 0.25579 0.18339 0.0
O788 O 0.87683 0.25335 0.15947 0.0
C789 C 0.8454 0.32671 0.04164 0.0
C790 C 0.84736 0.36988 0.03931 0.0
C791 C 0.84897 0.34733 0.02427 0.0
N792 N 0.84198 0.33655 0.06585 0.0
N793 N 0.84288 0.3624 0.06425 0.0
C794 C 0.84542 0.29806 0.03546 0.0
H795 H 0.82613 0.28962 0.0408 0.0
H796 H 0.86059 0.28812 0.04745 0.0
H797 H 0.84909 0.29424 0.01438 0.0
C798 C 0.89462 0.3184 0.1526 0.0
N799 N 0.871 0.31304 0.1422 0.0
N800 N 0.87071 0.32069 0.11759 0.0
C801 C 0.89454 0.33037 0.11142 0.0
C802 C 0.91044 0.32913 0.13343 0.0
C803 C 0.90194 0.31323 0.1804 0.0
H804 H 0.88451 0.31622 0.19299 0.0
H805 H 0.90895 0.29276 0.18216 0.0
H806 H 0.91791 0.32629 0.18712 0.0
O807 O 0.8112 0.31973 0.16068 0.0
O808 O 0.80826 0.33137 0.11848 0.0
H809 H 0.89266 0.35904 0.0811 0.0
H810 H 0.9237 0.34251 0.08313 0.0
C811 C 0.9022 0.33991 0.08484 0.0
H812 H 0.89536 0.32571 0.06991 0.0
H813 H 0.84114 0.37492 0.08032 0.0
O814 O 0.85163 0.2744 0.18828 0.0
C815 C 0.79918 0.33108 0.14182 0.0
Co816 Co 0.65781 0.79708 0.66033 0.0
Co817 Co 0.59882 0.81631 0.66437 0.0
C818 C 0.61343 0.76743 0.68805 0.0
O819 O 0.63658 0.77237 0.68045 0.0
O820 O 0.59422 0.78202 0.68182 0.0
C821 C 0.68402 0.75675 0.63483 0.0
O822 O 0.65979 0.75376 0.62665 0.0
C823 C 0.5419 0.82226 0.65613 0.0
C824 C 0.53781 0.86507 0.65126 0.0
C825 C 0.52382 0.84183 0.65056 0.0
N826 N 0.56551 0.83339 0.65985 0.0
N827 N 0.56286 0.85901 0.65706 0.0
C828 C 0.53698 0.79342 0.65775 0.0
H829 H 0.53822 0.78724 0.67855 0.0
H830 H 0.55241 0.78267 0.64684 0.0
H831 H 0.51738 0.78814 0.65001 0.0
C832 C 0.64979 0.81271 0.60603 0.0
N833 N 0.64078 0.80957 0.63051 0.0
N834 N 0.61542 0.81384 0.63092 0.0
C835 C 0.6073 0.81811 0.60606 0.0
C836 C 0.62894 0.81754 0.58956 0.0
C837 C 0.67804 0.81229 0.59856 0.0
H838 H 0.69031 0.81712 0.61582 0.0
H839 H 0.68314 0.79257 0.59104 0.0
H840 H 0.68187 0.82662 0.58265 0.0
O841 O 0.66312 0.82533 0.68562 0.0
O842 O 0.62126 0.83641 0.69044 0.0
H843 H 0.57237 0.84085 0.60503 0.0
H844 H 0.57713 0.82051 0.57648 0.0
C845 C 0.57943 0.82153 0.59808 0.0
H846 H 0.56744 0.80602 0.60737 0.0
H847 H 0.57832 0.87231 0.65839 0.0
O848 O 0.68929 0.77584 0.65011 0.0
C849 C 0.64536 0.8387 0.69717 0.0
Co850 Co 0.20188 0.65667 0.65386 0.0
Co851 Co 0.19044 0.59634 0.6587 0.0
C852 C 0.24039 0.61809 0.67721 0.0
O853 O 0.23284 0.64001 0.66843 0.0
O854 O 0.22671 0.59747 0.67388 0.0
C855 C 0.23795 0.68915 0.62981 0.0
O856 O 0.24798 0.66578 0.62587 0.0
C857 C 0.18966 0.5402 0.64609 0.0
C858 C 0.15063 0.52867 0.66093 0.0
C859 C 0.17249 0.51916 0.64795 0.0
N860 N 0.17821 0.56121 0.65705 0.0
N861 N 0.155 0.55415 0.66606 0.0
C862 C 0.21612 0.54074 0.63343 0.0
H863 H 0.22163 0.56111 0.62823 0.0
H864 H 0.2164 0.52796 0.61583 0.0
H865 H 0.23101 0.53339 0.64742 0.0
C866 C 0.18169 0.64841 0.60153 0.0
N867 N 0.18793 0.63893 0.62524 0.0
N868 N 0.18569 0.61329 0.62529 0.0
C869 C 0.17868 0.60561 0.60081 0.0
C870 C 0.17622 0.62773 0.585 0.0
C871 C 0.18058 0.67694 0.59482 0.0
H872 H 0.17465 0.68853 0.61223 0.0
H873 H 0.20017 0.6836 0.58831 0.0
H874 H 0.16651 0.6805 0.57861 0.0
O875 O 0.17829 0.65675 0.68485 0.0
O876 O 0.16978 0.61386 0.68691 0.0
H877 H 0.16246 0.56733 0.60655 0.0
H878 H 0.16603 0.57659 0.57256 0.0
C879 C 0.17502 0.57781 0.5923 0.0
H880 H 0.19434 0.56803 0.59139 0.0
H881 H 0.14193 0.56685 0.67533 0.0
O882 O 0.21592 0.69093 0.64152 0.0
C883 C 0.16828 0.63691 0.69647 0.0
Co884 Co 0.34104 0.1957 0.65184 0.0
Co885 Co 0.39993 0.17907 0.65769 0.0
C886 C 0.3824 0.23069 0.67604 0.0
O887 O 0.36029 0.22482 0.66655 0.0
O888 O 0.40198 0.21535 0.67347 0.0
C889 C 0.31474 0.23441 0.62585 0.0
O890 O 0.33919 0.23906 0.61931 0.0
C891 C 0.45714 0.17315 0.65163 0.0
C892 C 0.46024 0.13037 0.64552 0.0
C893 C 0.47478 0.15326 0.64571 0.0
N894 N 0.43326 0.16249 0.65451 0.0
N895 N 0.43535 0.13688 0.65125 0.0
C896 C 0.46252 0.20189 0.65373 0.0
H897 H 0.45386 0.20955 0.67213 0.0
H898 H 0.4529 0.21218 0.63717 0.0
H899 H 0.48383 0.2061 0.65353 0.0
C900 C 0.34833 0.17523 0.59922 0.0
N901 N 0.35743 0.18051 0.62337 0.0
N902 N 0.38276 0.17637 0.6243 0.0
C903 C 0.39076 0.16901 0.60015 0.0
C904 C 0.3692 0.16817 0.58355 0.0
C905 C 0.32028 0.17783 0.59107 0.0
H906 H 0.30714 0.17535 0.60818 0.0
H907 H 0.31714 0.19747 0.58241 0.0
H908 H 0.31514 0.16312 0.57595 0.0
O909 O 0.33851 0.17206 0.68272 0.0
O910 O 0.38051 0.15982 0.68542 0.0
H911 H 0.42516 0.14535 0.6008 0.0
H912 H 0.42123 0.16389 0.57114 0.0
C913 C 0.41859 0.16437 0.5927 0.0
H914 H 0.4306 0.18026 0.60122 0.0
H915 H 0.41951 0.12397 0.65181 0.0
O916 O 0.30942 0.21417 0.63961 0.0
C917 C 0.35726 0.1603 0.69457 0.0
Co918 Co 0.79379 0.34476 0.65237 0.0
Co919 Co 0.81458 0.4016 0.66118 0.0
C920 C 0.76171 0.38682 0.67826 0.0
O921 O 0.76637 0.36387 0.6703 0.0
O922 O 0.77787 0.40539 0.67443 0.0
C923 C 0.75321 0.31981 0.62639 0.0
O924 O 0.74749 0.34442 0.62152 0.0
C925 C 0.81882 0.45677 0.64896 0.0
C926 C 0.8554 0.46893 0.6686 0.0
C927 C 0.83491 0.47817 0.65333 0.0
N928 N 0.82926 0.43585 0.66099 0.0
N929 N 0.85115 0.44318 0.6727 0.0
C930 C 0.79392 0.45602 0.63347 0.0
H931 H 0.79059 0.4361 0.62542 0.0
H932 H 0.79442 0.47066 0.61739 0.0
H933 H 0.77722 0.46073 0.64654 0.0
C934 C 0.81472 0.35363 0.59984 0.0
N935 N 0.80906 0.36236 0.62406 0.0
N936 N 0.81808 0.38628 0.62701 0.0
C937 C 0.83003 0.39348 0.60443 0.0
C938 C 0.82783 0.37314 0.58642 0.0
C939 C 0.80859 0.3266 0.59017 0.0
H940 H 0.81199 0.31211 0.60599 0.0
H941 H 0.78775 0.32577 0.58433 0.0
H942 H 0.82046 0.32114 0.57286 0.0
O943 O 0.8195 0.33822 0.68107 0.0
O944 O 0.83208 0.37921 0.68828 0.0
H945 H 0.85662 0.42289 0.61841 0.0
H946 H 0.85851 0.41674 0.58353 0.0
C947 C 0.8451 0.41831 0.60058 0.0
H948 H 0.83127 0.43462 0.59687 0.0
H949 H 0.86317 0.43067 0.68349 0.0
O950 O 0.77415 0.31433 0.63897 0.0
C951 C 0.83283 0.35489 0.69428 0.0
Co952 Co 0.66236 0.20656 0.34498 0.0
Co953 Co 0.60544 0.18339 0.33728 0.0
C954 C 0.62083 0.23749 0.31915 0.0
O955 O 0.64243 0.2358 0.33124 0.0
O956 O 0.60405 0.21899 0.31983 0.0
C957 C 0.70143 0.24568 0.35398 0.0
O958 O 0.68759 0.25921 0.33706 0.0
C959 C 0.54781 0.18068 0.34113 0.0
C960 C 0.54151 0.13828 0.34711 0.0
C961 C 0.52854 0.16212 0.3463 0.0
N962 N 0.57107 0.1684 0.33947 0.0
N963 N 0.56706 0.14301 0.34258 0.0
C964 C 0.54442 0.20963 0.33806 0.0
H965 H 0.55216 0.2157 0.31868 0.0
H966 H 0.55607 0.21987 0.3533 0.0
H967 H 0.52357 0.21557 0.33948 0.0
C968 C 0.65334 0.18997 0.39872 0.0
N969 N 0.64522 0.19221 0.37376 0.0
N970 N 0.62146 0.18258 0.3714 0.0
C971 C 0.61399 0.17323 0.39508 0.0
C972 C 0.63398 0.17771 0.41304 0.0
C973 C 0.67889 0.20019 0.4089 0.0
H974 H 0.67997 0.22159 0.40531 0.0
H975 H 0.68122 0.19676 0.43022 0.0
H976 H 0.69526 0.19058 0.3983 0.0
O977 O 0.66562 0.18184 0.31454 0.0
O978 O 0.62621 0.16296 0.31162 0.0
H979 H 0.58892 0.14019 0.3904 0.0
H980 H 0.58574 0.15613 0.42168 0.0
C981 C 0.58873 0.15945 0.4004 0.0
H982 H 0.57228 0.17119 0.39257 0.0
H983 H 0.58194 0.12898 0.34252 0.0
O984 O 0.69601 0.22169 0.35793 0.0
C985 C 0.64937 0.16664 0.30297 0.0
Co986 Co 0.78526 0.65275 0.34263 0.0
Co987 Co 0.81124 0.59637 0.33978 0.0
C988 C 0.75693 0.60347 0.32451 0.0
O989 O 0.76006 0.62746 0.32984 0.0
O990 O 0.77526 0.58703 0.32806 0.0
C991 C 0.74364 0.67513 0.36904 0.0
O992 O 0.74412 0.65134 0.37882 0.0
C993 C 0.82266 0.54092 0.34919 0.0
C994 C 0.86589 0.53961 0.3475 0.0
C995 C 0.84394 0.52427 0.35189 0.0
N996 N 0.83152 0.56504 0.3435 0.0
N997 N 0.85739 0.56409 0.34233 0.0
C998 C 0.79426 0.53419 0.35197 0.0
H999 H 0.78478 0.53545 0.33245 0.0
H1000 H 0.78458 0.54866 0.36499 0.0
H1001 H 0.79136 0.51414 0.35979 0.0
C1002 C 0.80958 0.65131 0.39516 0.0
N1003 N 0.80399 0.64026 0.37184 0.0
N1004 N 0.81236 0.61587 0.37176 0.0
C1005 C 0.82259 0.6104 0.39553 0.0
C1006 C 0.82103 0.63265 0.41106 0.0
C1007 C 0.80557 0.67954 0.40195 0.0
H1008 H 0.79351 0.68977 0.38722 0.0
H1009 H 0.79678 0.68128 0.42176 0.0
H1010 H 0.8249 0.68942 0.40272 0.0
O1011 O 0.80829 0.65771 0.3118 0.0
O1012 O 0.82592 0.61753 0.31026 0.0
H1013 H 0.85165 0.58051 0.39246 0.0
H1014 H 0.83767 0.58353 0.42469 0.0
C1015 C 0.83331 0.58435 0.40341 0.0
H1016 H 0.81888 0.56896 0.39836 0.0
H1017 H 0.86926 0.58029 0.33854 0.0
O1018 O 0.76112 0.68192 0.35248 0.0
C1019 C 0.82284 0.64051 0.30078 0.0
Co1020 Co 0.34778 0.78966 0.34651 0.0
Co1021 Co 0.40416 0.81403 0.34147 0.0
C1022 C 0.39379 0.75905 0.32578 0.0
O1023 O 0.36993 0.76227 0.33181 0.0
O1024 O 0.41057 0.77703 0.32987 0.0
C1025 C 0.31579 0.7479 0.36407 0.0
O1026 O 0.33834 0.73558 0.36364 0.0
C1027 C 0.45886 0.82217 0.35569 0.0
C1028 C 0.46902 0.85855 0.33458 0.0
C1029 C 0.47941 0.83925 0.35062 0.0
N1030 N 0.43741 0.83093 0.34323 0.0
N1031 N 0.44354 0.85277 0.33076 0.0
C1032 C 0.45957 0.79757 0.37164 0.0
H1033 H 0.43993 0.79339 0.37996 0.0
H1034 H 0.47435 0.79913 0.38752 0.0
H1035 H 0.4649 0.78084 0.35884 0.0
C1036 C 0.35294 0.80968 0.40017 0.0
N1037 N 0.36275 0.80604 0.37596 0.0
N1038 N 0.386 0.817 0.37433 0.0
C1039 C 0.39143 0.82852 0.39762 0.0
C1040 C 0.37079 0.82388 0.41481 0.0
C1041 C 0.32694 0.79954 0.40915 0.0
H1042 H 0.31142 0.80618 0.39546 0.0
H1043 H 0.32736 0.77786 0.40895 0.0
H1044 H 0.32205 0.80607 0.42928 0.0
O1045 O 0.3429 0.81413 0.3165 0.0
O1046 O 0.38361 0.82959 0.31205 0.0
H1047 H 0.42057 0.85639 0.38567 0.0
H1048 H 0.4117 0.85809 0.42 0.0
C1049 C 0.41519 0.84474 0.40317 0.0
H1050 H 0.43179 0.83169 0.40822 0.0
H1051 H 0.43047 0.86347 0.31924 0.0
O1052 O 0.31487 0.77193 0.35734 0.0
C1053 C 0.35996 0.82763 0.30414 0.0
Co1054 Co 0.20837 0.34053 0.33703 0.0
Co1055 Co 0.18929 0.39925 0.33562 0.0
C1056 C 0.2409 0.38787 0.31876 0.0
O1057 O 0.23514 0.36391 0.32202 0.0
O1058 O 0.22601 0.40604 0.32686 0.0
C1059 C 0.24663 0.31433 0.36548 0.0
O1060 O 0.24781 0.33827 0.37486 0.0
C1061 C 0.18169 0.45426 0.34834 0.0
C1062 C 0.1427 0.46294 0.3317 0.0
C1063 C 0.16351 0.4742 0.34507 0.0
N1064 N 0.17203 0.43226 0.33765 0.0
N1065 N 0.1487 0.43752 0.32773 0.0
C1066 C 0.20794 0.45597 0.36138 0.0
H1067 H 0.21444 0.43638 0.3681 0.0
H1068 H 0.20728 0.46991 0.37807 0.0
H1069 H 0.22269 0.46303 0.34711 0.0
C1070 C 0.18472 0.34379 0.38929 0.0
N1071 N 0.19056 0.35488 0.36618 0.0
N1072 N 0.18518 0.38004 0.3673 0.0
C1073 C 0.17711 0.38589 0.39189 0.0
C1074 C 0.17694 0.36302 0.40665 0.0
C1075 C 0.18616 0.31513 0.39478 0.0
H1076 H 0.18473 0.30391 0.37622 0.0
H1077 H 0.20495 0.31075 0.40471 0.0
H1078 H 0.17009 0.30922 0.40819 0.0
O1079 O 0.18492 0.33653 0.30657 0.0
O1080 O 0.17616 0.37941 0.30397 0.0
H1081 H 0.15814 0.42313 0.38751 0.0
H1082 H 0.16147 0.41249 0.42108 0.0
C1083 C 0.17106 0.41289 0.40161 0.0
H1084 H 0.18953 0.42404 0.40365 0.0
H1085 H 0.137 0.42385 0.31802 0.0
O1086 O 0.22946 0.30908 0.34806 0.0
C1087 C 0.17544 0.35626 0.29435 0.0
Co1088 Co 0.65492 0.65321 0.7989 0.0
Co1089 Co 0.66513 0.59608 0.81928 0.0
C1090 C 0.68312 0.61425 0.76636 0.0
O1091 O 0.67091 0.63554 0.76954 0.0
O1092 O 0.68214 0.59614 0.7835 0.0
C1093 C 0.63322 0.6848 0.75961 0.0
O1094 O 0.63376 0.66207 0.74759 0.0
C1095 C 0.65303 0.54057 0.82003 0.0
C1096 C 0.67221 0.52676 0.85631 0.0
C1097 C 0.65714 0.5185 0.83528 0.0
N1098 N 0.66496 0.56096 0.83154 0.0
N1099 N 0.67645 0.55264 0.85321 0.0
C1100 C 0.63778 0.54247 0.79505 0.0
H1101 H 0.63016 0.56264 0.79232 0.0
H1102 H 0.62143 0.52813 0.79494 0.0
H1103 H 0.6509 0.53802 0.77831 0.0
C1104 C 0.60226 0.64229 0.81793 0.0
N1105 N 0.62701 0.6346 0.81327 0.0
N1106 N 0.63052 0.61067 0.82208 0.0
C1107 C 0.60784 0.60254 0.8332 0.0
C1108 C 0.58917 0.62222 0.83047 0.0
C1109 C 0.59158 0.66875 0.81107 0.0
H1110 H 0.60486 0.68417 0.81867 0.0
H1111 H 0.59056 0.67058 0.78952 0.0
H1112 H 0.57162 0.67198 0.81895 0.0
O1113 O 0.68537 0.65707 0.82357 0.0
O1114 O 0.69048 0.61674 0.83999 0.0
H1115 H 0.62227 0.57306 0.8595 0.0
H1116 H 0.58726 0.57856 0.86128 0.0
C1117 C 0.60441 0.57746 0.84796 0.0
H1118 H 0.60106 0.56126 0.8339 0.0
H1119 H 0.68708 0.56462 0.86591 0.0
O1120 O 0.64135 0.68624 0.78322 0.0
C1121 C 0.69804 0.64042 0.83746 0.0
Co1122 Co 0.34924 0.65527 0.79547 0.0
Co1123 Co 0.40694 0.6579 0.81685 0.0
C1124 C 0.39453 0.68216 0.7672 0.0
O1125 O 0.3712 0.67489 0.77141 0.0
O1126 O 0.41317 0.67583 0.78256 0.0
C1127 C 0.32399 0.6343 0.75212 0.0
O1128 O 0.34856 0.63065 0.7454 0.0
C1129 C 0.46322 0.64825 0.82651 0.0
C1130 C 0.46383 0.64219 0.86939 0.0
C1131 C 0.47957 0.64166 0.84729 0.0
N1132 N 0.43895 0.65242 0.8359 0.0
N1133 N 0.43953 0.64895 0.86157 0.0
C1134 C 0.47026 0.65019 0.79812 0.0
H1135 H 0.46716 0.67064 0.79146 0.0
H1136 H 0.45699 0.63752 0.78646 0.0
H1137 H 0.49093 0.64458 0.79449 0.0
C1138 C 0.35431 0.60117 0.81075 0.0
N1139 N 0.36461 0.62515 0.80799 0.0
N1140 N 0.3896 0.62472 0.81389 0.0
C1141 C 0.39631 0.59967 0.81934 0.0
C1142 C 0.37404 0.58405 0.81767 0.0
C1143 C 0.3258 0.59494 0.80778 0.0
H1144 H 0.31372 0.61227 0.81289 0.0
H1145 H 0.32173 0.5894 0.78718 0.0
H1146 H 0.32021 0.57821 0.8205 0.0
O1147 O 0.34305 0.68027 0.82371 0.0
O1148 O 0.38445 0.68414 0.83653 0.0
H1149 H 0.42949 0.59761 0.84459 0.0
H1150 H 0.42503 0.569 0.82426 0.0
C1151 C 0.42352 0.59068 0.82489 0.0
H1152 H 0.4369 0.59934 0.81016 0.0
H1153 H 0.42311 0.65037 0.87367 0.0
O1154 O 0.31877 0.64499 0.77412 0.0
C1155 C 0.36044 0.69125 0.83798 0.0
Co1156 Co 0.34074 0.34326 0.78936 0.0
Co1157 Co 0.33391 0.40044 0.81043 0.0
C1158 C 0.31703 0.38724 0.75762 0.0
O1159 O 0.32344 0.36376 0.76226 0.0
O1160 O 0.32278 0.40559 0.77343 0.0
C1161 C 0.36541 0.31662 0.74808 0.0
O1162 O 0.36916 0.34089 0.74042 0.0
C1163 C 0.34779 0.45473 0.81528 0.0
C1164 C 0.32769 0.46765 0.85137 0.0
C1165 C 0.34376 0.47627 0.83122 0.0
N1166 N 0.33487 0.43429 0.8255 0.0
N1167 N 0.32285 0.44203 0.84709 0.0
C1168 C 0.3637 0.4534 0.79066 0.0
H1169 H 0.37105 0.4332 0.78742 0.0
H1170 H 0.38031 0.46741 0.79148 0.0
H1171 H 0.35115 0.4586 0.7737 0.0
C1172 C 0.39372 0.35084 0.81039 0.0
N1173 N 0.36944 0.35984 0.80541 0.0
N1174 N 0.36703 0.3837 0.81477 0.0
C1175 C 0.38988 0.39052 0.82636 0.0
C1176 C 0.40761 0.37011 0.8234 0.0
C1177 C 0.40332 0.3241 0.80309 0.0
H1178 H 0.40832 0.32391 0.782 0.0
H1179 H 0.42111 0.31852 0.8142 0.0
H1180 H 0.38775 0.3094 0.80667 0.0
O1181 O 0.31101 0.3374 0.81425 0.0
O1182 O 0.30483 0.37931 0.82567 0.0
H1183 H 0.41128 0.41302 0.85504 0.0
H1184 H 0.39942 0.43128 0.82745 0.0
C1185 C 0.39457 0.4153 0.84131 0.0
H1186 H 0.37682 0.42081 0.85251 0.0
H1187 H 0.31129 0.4299 0.85879 0.0
O1188 O 0.35361 0.31232 0.76974 0.0
C1189 C 0.29761 0.35535 0.82562 0.0
Co1190 Co 0.64975 0.33957 0.78958 0.0
Co1191 Co 0.59088 0.33997 0.80895 0.0
C1192 C 0.6018 0.32278 0.75671 0.0
O1193 O 0.62591 0.32585 0.76221 0.0
O1194 O 0.58388 0.33021 0.77231 0.0
C1195 C 0.68003 0.36669 0.75278 0.0
O1196 O 0.65717 0.37829 0.75041 0.0
C1197 C 0.53453 0.34804 0.81888 0.0
C1198 C 0.53399 0.35479 0.86166 0.0
C1199 C 0.51811 0.35414 0.83967 0.0
N1200 N 0.55903 0.34523 0.8281 0.0
N1201 N 0.55851 0.34908 0.85373 0.0
C1202 C 0.52724 0.34552 0.79059 0.0
H1203 H 0.53297 0.32582 0.78345 0.0
H1204 H 0.53826 0.36022 0.77899 0.0
H1205 H 0.50592 0.34824 0.78743 0.0
C1206 C 0.6475 0.39267 0.81203 0.0
N1207 N 0.63629 0.36952 0.80646 0.0
N1208 N 0.61105 0.37109 0.81114 0.0
C1209 C 0.60518 0.39596 0.81802 0.0
C1210 C 0.62821 0.4104 0.81889 0.0
C1211 C 0.67628 0.39767 0.8117 0.0
H1212 H 0.68697 0.37909 0.81522 0.0
H1213 H 0.68192 0.40596 0.79244 0.0
H1214 H 0.68165 0.41218 0.827 0.0
O1215 O 0.65234 0.30992 0.81407 0.0
O1216 O 0.60968 0.30848 0.82406 0.0
H1217 H 0.57117 0.401 0.8418 0.0
H1218 H 0.57725 0.42771 0.81957 0.0
C1219 C 0.57798 0.40609 0.82181 0.0
H1220 H 0.56465 0.39676 0.80742 0.0
H1221 H 0.57508 0.34854 0.8657 0.0
O1222 O 0.68264 0.34863 0.76987 0.0
C1223 C 0.63282 0.29885 0.82511 0.0
Co1224 Co 0.65532 0.34724 0.20227 0.0
Co1225 Co 0.66039 0.40601 0.18524 0.0
C1226 C 0.68317 0.38967 0.23428 0.0
O1227 O 0.67542 0.36688 0.22819 0.0
O1228 O 0.67751 0.40954 0.22027 0.0
C1229 C 0.63179 0.32031 0.24301 0.0
O1230 O 0.62713 0.34462 0.25006 0.0
C1231 C 0.6519 0.46277 0.17837 0.0
C1232 C 0.65038 0.46623 0.13522 0.0
C1233 C 0.6477 0.48046 0.15816 0.0
N1234 N 0.65678 0.4391 0.16789 0.0
N1235 N 0.65596 0.44135 0.14208 0.0
C1236 C 0.65116 0.4681 0.20719 0.0
H1237 H 0.67146 0.47141 0.21421 0.0
H1238 H 0.64318 0.45088 0.21778 0.0
H1239 H 0.63935 0.48577 0.21171 0.0
C1240 C 0.60149 0.35554 0.18692 0.0
N1241 N 0.6259 0.36456 0.19048 0.0
N1242 N 0.62655 0.38991 0.18642 0.0
C1243 C 0.60186 0.39807 0.18138 0.0
C1244 C 0.58528 0.37646 0.18148 0.0
C1245 C 0.59402 0.32719 0.18747 0.0
H1246 H 0.61104 0.31476 0.18218 0.0
H1247 H 0.58735 0.32186 0.20742 0.0
H1248 H 0.57764 0.32334 0.17369 0.0
O1249 O 0.68061 0.34184 0.17406 0.0
O1250 O 0.6863 0.38392 0.16486 0.0
H1251 H 0.60208 0.43239 0.15781 0.0
H1252 H 0.57256 0.42829 0.17689 0.0
C1253 C 0.59417 0.42588 0.17696 0.0
H1254 H 0.60277 0.43827 0.19258 0.0
H1255 H 0.65852 0.42573 0.12914 0.0
O1256 O 0.64371 0.31587 0.22149 0.0
C1257 C 0.69259 0.35987 0.16152 0.0
Co1258 Co 0.65456 0.65489 0.21423 0.0
Co1259 Co 0.60131 0.66514 0.1864 0.0
C1260 C 0.61473 0.68325 0.24189 0.0
O1261 O 0.63445 0.66837 0.24393 0.0
O1262 O 0.60058 0.68309 0.22136 0.0
C1263 C 0.69356 0.64614 0.25312 0.0
O1264 O 0.68493 0.66818 0.26323 0.0
C1265 C 0.54644 0.65188 0.18427 0.0
C1266 C 0.53243 0.67254 0.14889 0.0
C1267 C 0.52435 0.65653 0.16928 0.0
N1268 N 0.56667 0.66453 0.17333 0.0
N1269 N 0.55828 0.67682 0.15213 0.0
C1270 C 0.54838 0.63586 0.20877 0.0
H1271 H 0.56822 0.62726 0.21069 0.0
H1272 H 0.53335 0.62015 0.20891 0.0
H1273 H 0.54511 0.64872 0.22598 0.0
C1274 C 0.64487 0.60162 0.1954 0.0
N1275 N 0.63753 0.62677 0.1982 0.0
N1276 N 0.61574 0.63086 0.18521 0.0
C1277 C 0.60904 0.60848 0.17272 0.0
C1278 C 0.62722 0.58923 0.17905 0.0
C1279 C 0.66851 0.58961 0.20799 0.0
H1280 H 0.68646 0.59855 0.19961 0.0
H1281 H 0.66814 0.59356 0.22936 0.0
H1282 H 0.66928 0.5681 0.20497 0.0
O1283 O 0.65968 0.68596 0.1896 0.0
O1284 O 0.62268 0.68977 0.1664 0.0
H1285 H 0.58426 0.62444 0.14268 0.0
H1286 H 0.59017 0.58946 0.14003 0.0
C1287 C 0.5868 0.60595 0.15381 0.0
H1288 H 0.56849 0.602 0.16481 0.0
H1289 H 0.57013 0.68822 0.14 0.0
O1290 O 0.68635 0.6397 0.23023 0.0
C1291 C 0.64543 0.6979 0.17269 0.0
Co1292 Co 0.3454 0.66094 0.20657 0.0
Co1293 Co 0.34089 0.60273 0.18495 0.0
C1294 C 0.31439 0.61648 0.23297 0.0
O1295 O 0.32321 0.63948 0.22946 0.0
O1296 O 0.32085 0.5976 0.21798 0.0
C1297 C 0.37264 0.68436 0.2476 0.0
O1298 O 0.38034 0.65983 0.24892 0.0
C1299 C 0.34709 0.54579 0.1749 0.0
C1300 C 0.35717 0.54565 0.1328 0.0
C1301 C 0.35454 0.52942 0.15439 0.0
N1302 N 0.34557 0.57052 0.16586 0.0
N1303 N 0.35135 0.57019 0.1406 0.0
C1304 C 0.34212 0.53832 0.20281 0.0
H1305 H 0.3223 0.5451 0.20861 0.0
H1306 H 0.35645 0.54843 0.21565 0.0
H1307 H 0.3435 0.51684 0.20577 0.0
C1308 C 0.3996 0.65244 0.19095 0.0
N1309 N 0.37513 0.64353 0.19441 0.0
N1310 N 0.37446 0.61828 0.18966 0.0
C1311 C 0.39915 0.61006 0.18475 0.0
C1312 C 0.41577 0.63157 0.18526 0.0
C1313 C 0.40718 0.68069 0.19133 0.0
H1314 H 0.38976 0.69313 0.18764 0.0
H1315 H 0.4158 0.68551 0.21068 0.0
H1316 H 0.4223 0.68466 0.1762 0.0
O1317 O 0.32173 0.66817 0.17712 0.0
O1318 O 0.31748 0.62686 0.16399 0.0
H1319 H 0.40137 0.57599 0.16069 0.0
H1320 H 0.42828 0.57948 0.18329 0.0
C1321 C 0.40686 0.5822 0.18076 0.0
H1322 H 0.39617 0.5699 0.19508 0.0
H1323 H 0.35227 0.58692 0.12888 0.0
O1324 O 0.35665 0.69101 0.22953 0.0
C1325 C 0.31131 0.6511 0.16199 0.0
Co1326 Co 0.34095 0.3515 0.19837 0.0
Co1327 Co 0.399 0.34339 0.18055 0.0
C1328 C 0.38088 0.32805 0.23364 0.0
O1329 O 0.35957 0.33974 0.2292 0.0
O1330 O 0.39927 0.32824 0.21684 0.0
C1331 C 0.31411 0.37919 0.23498 0.0
O1332 O 0.33798 0.38868 0.23656 0.0
C1333 C 0.45429 0.35589 0.18063 0.0
C1334 C 0.4685 0.33744 0.14411 0.0
C1335 C 0.47651 0.35203 0.16558 0.0
N1336 N 0.43405 0.34423 0.16861 0.0
N1337 N 0.44261 0.33319 0.1468 0.0
C1338 C 0.45206 0.37062 0.2059 0.0
H1339 H 0.43176 0.37791 0.20867 0.0
H1340 H 0.46618 0.38714 0.2064 0.0
H1341 H 0.45658 0.35726 0.22243 0.0
C1342 C 0.34933 0.40352 0.17557 0.0
N1343 N 0.35794 0.37942 0.1818 0.0
N1344 N 0.38283 0.37718 0.17557 0.0
C1345 C 0.39083 0.40028 0.16521 0.0
C1346 C 0.36993 0.41778 0.16546 0.0
C1347 C 0.3218 0.41277 0.17927 0.0
H1348 H 0.30816 0.39595 0.17796 0.0
H1349 H 0.32002 0.42225 0.19874 0.0
H1350 H 0.31626 0.42747 0.1643 0.0
O1351 O 0.3388 0.31925 0.17572 0.0
O1352 O 0.38005 0.31576 0.16125 0.0
H1353 H 0.42445 0.38854 0.14288 0.0
H1354 H 0.41743 0.42327 0.14177 0.0
C1355 C 0.41754 0.40558 0.15442 0.0
H1356 H 0.43137 0.40901 0.17079 0.0
H1357 H 0.43077 0.32279 0.13377 0.0
O1358 O 0.30853 0.36319 0.21656 0.0
C1359 C 0.35666 0.30716 0.16287 0.0
Co1360 Co 0.79709 0.65676 0.65608 0.0
Co1361 Co 0.81109 0.66079 0.59657 0.0
C1362 C 0.76054 0.67766 0.61275 0.0
O1363 O 0.76855 0.6728 0.63576 0.0
O1364 O 0.77385 0.67107 0.59271 0.0
C1365 C 0.75858 0.6306 0.68368 0.0
O1366 O 0.75191 0.62506 0.65945 0.0
C1367 C 0.8179 0.65693 0.53938 0.0
C1368 C 0.86039 0.64917 0.53627 0.0
C1369 C 0.83765 0.65109 0.52161 0.0
N1370 N 0.82844 0.65818 0.56348 0.0
N1371 N 0.8539 0.65387 0.56143 0.0
C1372 C 0.78934 0.66033 0.53378 0.0
H1373 H 0.78255 0.67917 0.54223 0.0
H1374 H 0.77821 0.64435 0.54344 0.0
H1375 H 0.78524 0.66019 0.51243 0.0
C1376 C 0.81773 0.60412 0.64912 0.0
N1377 N 0.81249 0.62811 0.63972 0.0
N1378 N 0.81527 0.62818 0.61419 0.0
C1379 C 0.82112 0.60358 0.60633 0.0
C1380 C 0.82297 0.58758 0.62832 0.0
C1381 C 0.81712 0.59691 0.67754 0.0
H1382 H 0.82126 0.61432 0.68987 0.0
H1383 H 0.79749 0.5892 0.68262 0.0
H1384 H 0.83169 0.5813 0.6817 0.0
O1385 O 0.82138 0.68637 0.65999 0.0
O1386 O 0.82623 0.69139 0.61675 0.0
H1387 H 0.84143 0.60108 0.56992 0.0
H1388 H 0.82034 0.57354 0.57654 0.0
C1389 C 0.82234 0.59511 0.57837 0.0
H1390 H 0.80651 0.60498 0.56725 0.0
H1391 H 0.86668 0.65309 0.57737 0.0
O1392 O 0.77917 0.64415 0.68788 0.0
C1393 C 0.82919 0.69963 0.64025 0.0
Co1394 Co 0.7967 0.34599 0.34725 0.0
Co1395 Co 0.82471 0.33964 0.4025 0.0
C1396 C 0.7719 0.31745 0.3919 0.0
O1397 O 0.77236 0.32651 0.36881 0.0
O1398 O 0.79013 0.32212 0.40826 0.0
C1399 C 0.75236 0.36121 0.31672 0.0
O1400 O 0.73986 0.35504 0.33834 0.0
C1401 C 0.83094 0.34785 0.4591 0.0
C1402 C 0.87385 0.35027 0.46384 0.0
C1403 C 0.85046 0.35279 0.47745 0.0
N1404 N 0.84222 0.34293 0.43577 0.0
N1405 N 0.86791 0.34405 0.43884 0.0
C1406 C 0.80193 0.34819 0.46334 0.0
H1407 H 0.79398 0.32835 0.45944 0.0
H1408 H 0.79272 0.36187 0.44917 0.0
H1409 H 0.79668 0.35388 0.48363 0.0
C1410 C 0.81199 0.40057 0.35532 0.0
N1411 N 0.81024 0.37572 0.36397 0.0
N1412 N 0.82295 0.37344 0.38625 0.0
C1413 C 0.83392 0.39686 0.392 0.0
C1414 C 0.82703 0.4148 0.37277 0.0
C1415 C 0.80031 0.41029 0.33022 0.0
H1416 H 0.77883 0.40745 0.33079 0.0
H1417 H 0.80428 0.43138 0.32695 0.0
H1418 H 0.80831 0.3988 0.31358 0.0
O1419 O 0.82437 0.31924 0.34011 0.0
O1420 O 0.84282 0.31413 0.37922 0.0
H1421 H 0.87045 0.38921 0.41072 0.0
H1422 H 0.85886 0.42234 0.41501 0.0
C1423 C 0.85282 0.4015 0.41383 0.0
H1424 H 0.84364 0.39568 0.43248 0.0
H1425 H 0.88138 0.34151 0.42367 0.0
O1426 O 0.77708 0.35782 0.31553 0.0
C1427 C 0.84074 0.30756 0.35515 0.0
Co1428 Co 0.65627 0.79811 0.34295 0.0
Co1429 Co 0.66146 0.80806 0.40287 0.0
C1430 C 0.66863 0.75509 0.38289 0.0
O1431 O 0.6653 0.76492 0.3603 0.0
O1432 O 0.66672 0.76955 0.40307 0.0
C1433 C 0.62294 0.76955 0.31151 0.0
O1434 O 0.61435 0.76457 0.33524 0.0
C1435 C 0.65034 0.80959 0.45895 0.0
C1436 C 0.66877 0.84694 0.47085 0.0
C1437 C 0.65438 0.82594 0.48023 0.0
N1438 N 0.66162 0.82053 0.43786 0.0
N1439 N 0.67271 0.84278 0.44509 0.0
C1440 C 0.63525 0.78446 0.45844 0.0
H1441 H 0.62905 0.77964 0.43818 0.0
H1442 H 0.61794 0.78578 0.47154 0.0
H1443 H 0.64788 0.76831 0.4656 0.0
C1444 C 0.60612 0.82528 0.35114 0.0
N1445 N 0.62939 0.8168 0.36018 0.0
N1446 N 0.62973 0.8186 0.38586 0.0
C1447 C 0.606 0.82735 0.39395 0.0
C1448 C 0.59021 0.83143 0.37216 0.0
C1449 C 0.59851 0.8268 0.32285 0.0
H1450 H 0.61612 0.82783 0.31018 0.0
H1451 H 0.58661 0.80943 0.31752 0.0
H1452 H 0.58612 0.84435 0.31948 0.0
O1453 O 0.68981 0.81772 0.34185 0.0
O1454 O 0.69349 0.82252 0.38518 0.0
H1455 H 0.61295 0.84033 0.43327 0.0
H1456 H 0.57896 0.84098 0.42353 0.0
C1457 C 0.59764 0.82999 0.4219 0.0
H1458 H 0.59466 0.81025 0.43036 0.0
H1459 H 0.68273 0.85526 0.43237 0.0
O1460 O 0.64248 0.78498 0.30925 0.0
C1461 C 0.70263 0.82514 0.36204 0.0
Co1462 Co 0.19446 0.65443 0.33937 0.0
Co1463 Co 0.17804 0.66005 0.39831 0.0
C1464 C 0.22789 0.68079 0.38117 0.0
O1465 O 0.22153 0.67355 0.35831 0.0
O1466 O 0.21375 0.67531 0.40091 0.0
C1467 C 0.23548 0.63355 0.31033 0.0
O1468 O 0.24499 0.63262 0.33423 0.0
C1469 C 0.17636 0.64925 0.45418 0.0
C1470 C 0.13668 0.66225 0.46559 0.0
C1471 C 0.15948 0.65118 0.47542 0.0
N1472 N 0.16403 0.65844 0.43283 0.0
N1473 N 0.14034 0.66624 0.43975 0.0
C1474 C 0.20371 0.63862 0.45391 0.0
H1475 H 0.20902 0.63175 0.43398 0.0
H1476 H 0.20581 0.62248 0.46833 0.0
H1477 H 0.21766 0.6544 0.45918 0.0
C1478 C 0.17802 0.6009 0.34781 0.0
N1479 N 0.18177 0.62521 0.35702 0.0
N1480 N 0.17683 0.62591 0.38227 0.0
C1481 C 0.17069 0.60126 0.39013 0.0
C1482 C 0.17151 0.58467 0.36843 0.0
C1483 C 0.18007 0.59338 0.31952 0.0
H1484 H 0.17361 0.60986 0.30691 0.0
H1485 H 0.20072 0.58866 0.31478 0.0
H1486 H 0.16793 0.57585 0.31524 0.0
O1487 O 0.1672 0.68107 0.33511 0.0
O1488 O 0.15817 0.68715 0.37721 0.0
H1489 H 0.15079 0.60742 0.42662 0.0
H1490 H 0.15663 0.57335 0.4188 0.0
C1491 C 0.16483 0.59343 0.41776 0.0
H1492 H 0.18317 0.59367 0.42932 0.0
H1493 H 0.12664 0.6742 0.42683 0.0
O1494 O 0.21235 0.64236 0.30692 0.0
C1495 C 0.15517 0.6936 0.35315 0.0
Co1496 Co 0.34729 0.2086 0.34066 0.0
Co1497 Co 0.34506 0.18856 0.39864 0.0
C1498 C 0.32697 0.24037 0.38733 0.0
O1499 O 0.3314 0.23461 0.36363 0.0
O1500 O 0.33427 0.22537 0.40586 0.0
C1501 C 0.37127 0.25057 0.31593 0.0
O1502 O 0.37821 0.25491 0.34033 0.0
C1503 C 0.34822 0.17773 0.45519 0.0
C1504 C 0.35986 0.13604 0.45542 0.0
C1505 C 0.35576 0.15742 0.47162 0.0
N1506 N 0.34835 0.16892 0.43038 0.0
N1507 N 0.35478 0.14383 0.43072 0.0
C1508 C 0.34166 0.20528 0.4628 0.0
H1509 H 0.35706 0.21863 0.45527 0.0
H1510 H 0.34006 0.20751 0.48436 0.0
H1511 H 0.32279 0.21099 0.45366 0.0
C1512 C 0.40086 0.18864 0.34424 0.0
N1513 N 0.3771 0.19282 0.35483 0.0
N1514 N 0.37735 0.18606 0.37965 0.0
C1515 C 0.40182 0.17797 0.38583 0.0
C1516 C 0.41747 0.17939 0.36356 0.0
C1517 C 0.4077 0.19414 0.31625 0.0
H1518 H 0.39014 0.19212 0.30363 0.0
H1519 H 0.41527 0.2144 0.31465 0.0
H1520 H 0.42323 0.18076 0.30911 0.0
O1521 O 0.31768 0.18395 0.33571 0.0
O1522 O 0.31426 0.17469 0.37837 0.0
H1523 H 0.40524 0.14838 0.41509 0.0
H1524 H 0.43173 0.17138 0.41511 0.0
C1525 C 0.41027 0.16934 0.41251 0.0
H1526 H 0.39995 0.18099 0.42761 0.0
H1527 H 0.35683 0.13232 0.41394 0.0
O1528 O 0.35781 0.2302 0.31043 0.0
C1529 C 0.30524 0.17391 0.35501 0.0
Co1530 Co 0.20099 0.34156 0.6534 0.0
Co1531 Co 0.18554 0.33406 0.59415 0.0
C1532 C 0.23625 0.3154 0.61389 0.0
O1533 O 0.23111 0.32638 0.63554 0.0
O1534 O 0.22088 0.31747 0.59437 0.0
C1535 C 0.23735 0.3699 0.68096 0.0
O1536 O 0.24038 0.37799 0.65671 0.0
C1537 C 0.18331 0.34245 0.53746 0.0
C1538 C 0.1439 0.32731 0.52777 0.0
C1539 C 0.16587 0.33893 0.51686 0.0
N1540 N 0.17192 0.33382 0.55953 0.0
N1541 N 0.14846 0.32462 0.5536 0.0
C1542 C 0.21015 0.35423 0.53654 0.0
H1543 H 0.21638 0.36056 0.55638 0.0
H1544 H 0.21063 0.37094 0.52262 0.0
H1545 H 0.22443 0.33934 0.52978 0.0
C1546 C 0.18146 0.39414 0.64321 0.0
N1547 N 0.18621 0.36966 0.63494 0.0
N1548 N 0.18329 0.36845 0.60937 0.0
C1549 C 0.17787 0.39292 0.60051 0.0
C1550 C 0.17693 0.40994 0.62179 0.0
C1551 C 0.18118 0.40252 0.67125 0.0
H1552 H 0.17751 0.38545 0.68416 0.0
H1553 H 0.20024 0.41164 0.67623 0.0
H1554 H 0.16574 0.41752 0.67443 0.0
O1555 O 0.17695 0.31103 0.65613 0.0
O1556 O 0.16479 0.30786 0.61415 0.0
H1557 H 0.16193 0.38609 0.56225 0.0
H1558 H 0.16636 0.42028 0.57027 0.0
C1559 C 0.17477 0.40036 0.57234 0.0
H1560 H 0.19424 0.40038 0.5628 0.0
H1561 H 0.13548 0.31665 0.56723 0.0
O1562 O 0.21872 0.35402 0.68614 0.0
C1563 C 0.1649 0.29918 0.63759 0.0
Co1564 Co 0.64949 0.20619 0.65754 0.0
Co1565 Co 0.65873 0.1848 0.5999 0.0
C1566 C 0.67539 0.23824 0.61571 0.0
O1567 O 0.66369 0.23509 0.63734 0.0
O1568 O 0.67472 0.22072 0.59792 0.0
C1569 C 0.61977 0.24351 0.68208 0.0
O1570 O 0.61205 0.24472 0.65755 0.0
C1571 C 0.6535 0.18002 0.54252 0.0
C1572 C 0.65339 0.13705 0.53724 0.0
C1573 C 0.65059 0.16045 0.52377 0.0
N1574 N 0.65752 0.16867 0.56596 0.0
N1575 N 0.65776 0.14299 0.56259 0.0
C1576 C 0.65205 0.20901 0.53853 0.0
H1577 H 0.67076 0.21801 0.54492 0.0
H1578 H 0.63627 0.21722 0.55104 0.0
H1579 H 0.64843 0.21418 0.51773 0.0
C1580 C 0.59837 0.1823 0.64902 0.0
N1581 N 0.62228 0.18906 0.64041 0.0
N1582 N 0.6248 0.18233 0.61569 0.0
C1583 C 0.60191 0.17172 0.60766 0.0
C1584 C 0.58451 0.1716 0.6285 0.0
C1585 C 0.58912 0.1857 0.67655 0.0
H1586 H 0.60607 0.18476 0.69007 0.0
H1587 H 0.57914 0.20491 0.67827 0.0
H1588 H 0.57483 0.17039 0.68217 0.0
O1589 O 0.68033 0.18264 0.66222 0.0
O1590 O 0.68495 0.1661 0.62175 0.0
H1591 H 0.60767 0.14368 0.57726 0.0
H1592 H 0.57547 0.15809 0.5775 0.0
C1593 C 0.59661 0.16204 0.58064 0.0
H1594 H 0.60338 0.17707 0.56666 0.0
H1595 H 0.66 0.12949 0.57777 0.0
O1596 O 0.6362 0.22586 0.68876 0.0
C1597 C 0.69275 0.16873 0.6454 0.0
Co1598 Co 0.345 0.79439 0.65723 0.0
Co1599 Co 0.33846 0.82037 0.60107 0.0
C1600 C 0.31445 0.76869 0.61418 0.0
O1601 O 0.32444 0.76961 0.63692 0.0
O1602 O 0.31914 0.78628 0.59709 0.0
C1603 C 0.35817 0.75131 0.69082 0.0
O1604 O 0.3468 0.73752 0.67231 0.0
C1605 C 0.34632 0.82471 0.54404 0.0
C1606 C 0.34754 0.86749 0.53783 0.0
C1607 C 0.35033 0.84373 0.52493 0.0
N1608 N 0.34162 0.83666 0.5671 0.0
N1609 N 0.34214 0.86225 0.56316 0.0
C1610 C 0.34724 0.79561 0.54073 0.0
H1611 H 0.32749 0.78743 0.54459 0.0
H1612 H 0.36083 0.78709 0.55542 0.0
H1613 H 0.3534 0.78988 0.52069 0.0
C1614 C 0.39974 0.80805 0.64806 0.0
N1615 N 0.37478 0.80646 0.63963 0.0
N1616 N 0.3726 0.81817 0.61681 0.0
C1617 C 0.39626 0.82829 0.61043 0.0
C1618 C 0.41418 0.82198 0.62994 0.0
C1619 C 0.40947 0.79736 0.6736 0.0
H1620 H 0.39845 0.80649 0.68996 0.0
H1621 H 0.40614 0.77593 0.67411 0.0
H1622 H 0.4307 0.80098 0.67644 0.0
O1623 O 0.31909 0.82301 0.66381 0.0
O1624 O 0.31393 0.84025 0.62416 0.0
H1625 H 0.38916 0.86374 0.58952 0.0
H1626 H 0.42215 0.85133 0.58602 0.0
C1627 C 0.40119 0.84577 0.58754 0.0
H1628 H 0.39515 0.83552 0.5695 0.0
H1629 H 0.33953 0.87616 0.57793 0.0
O1630 O 0.35779 0.7762 0.68939 0.0
C1631 C 0.30757 0.83912 0.64837 0.0
C1632 C 0.11309 0.32443 0.01056 0.0
C1633 C 0.13713 0.3365 0.00355 0.0
C1634 C 0.14699 0.343 0.05006 0.0
C1635 C 0.12568 0.32647 0.05672 0.0
N1636 N 0.08943 0.29937 0.04309 0.0
N1637 N 0.17842 0.35541 0.01681 0.0
C1638 C 0.10885 0.31673 0.03693 0.0
C1639 C 0.15441 0.34556 0.02336 0.0
N1640 N 0.09397 0.32115 0.99217 0.0
N1641 N 0.15997 0.35637 0.06928 0.0
H1642 H 0.18479 0.35734 0.9975 0.0
H1643 H 0.19288 0.3596 0.03059 0.0
H1644 H 0.15471 0.35517 0.089 0.0
H1645 H 0.17412 0.37055 0.06541 0.0
H1646 H 0.07519 0.3145 0.99659 0.0
H1647 H 0.096 0.32803 0.9731 0.0
H1648 H 0.07855 0.28939 0.02899 0.0
H1649 H 0.08546 0.29345 0.06223 0.0
C1650 C 0.6806 0.11943 0.03867 0.0
C1651 C 0.66408 0.13192 0.05718 0.0
C1652 C 0.64057 0.15391 0.02163 0.0
C1653 C 0.65597 0.14 0.00308 0.0
N1654 N 0.68472 0.10346 0.99437 0.0
N1655 N 0.62452 0.15595 0.06631 0.0
C1656 C 0.6742 0.12088 0.01172 0.0
C1657 C 0.64274 0.14746 0.04863 0.0
N1658 N 0.70302 0.10709 0.04658 0.0
N1659 N 0.62493 0.17415 0.01373 0.0
H1660 H 0.62564 0.15151 0.08624 0.0
H1661 H 0.60719 0.16526 0.06087 0.0
H1662 H 0.62336 0.18006 0.99425 0.0
H1663 H 0.61542 0.18664 0.02678 0.0
H1664 H 0.71709 0.10022 0.03348 0.0
H1665 H 0.70877 0.10574 0.06613 0.0
H1666 H 0.69626 0.08762 9e-05 0.0
H1667 H 0.67944 0.10308 0.97469 0.0
C1668 C 0.88784 0.64834 0.04623 0.0
C1669 C 0.88517 0.67254 0.05947 0.0
C1670 C 0.86446 0.692 0.02113 0.0
C1671 C 0.86792 0.66816 0.00727 0.0
N1672 N 0.8896 0.6262 0.00424 0.0
N1673 N 0.87955 0.71928 0.05681 0.0
C1674 C 0.88185 0.64711 0.01905 0.0
C1675 C 0.87675 0.69508 0.04575 0.0
N1676 N 0.89472 0.62635 0.05981 0.0
N1677 N 0.84762 0.71076 0.01214 0.0
H1678 H 0.88864 0.72196 0.07494 0.0
H1679 H 0.87536 0.73658 0.0468 0.0
H1680 H 0.83625 0.70839 0.99535 0.0
H1681 H 0.84268 0.72736 0.02298 0.0
H1682 H 0.89404 0.60761 0.05175 0.0
H1683 H 0.89961 0.62676 0.07965 0.0
H1684 H 0.90167 0.61138 0.0114 0.0
H1685 H 0.88618 0.62509 0.98412 0.0
C1686 C 0.35045 0.86901 0.02001 0.0
C1687 C 0.33182 0.85225 0.0078 0.0
C1688 C 0.30496 0.85381 0.04733 0.0
C1689 C 0.32544 0.86672 0.06095 0.0
N1690 N 0.36948 0.88377 0.061 0.0
N1691 N 0.29477 0.82321 0.01286 0.0
C1692 C 0.34871 0.87368 0.04749 0.0
C1693 C 0.30995 0.84315 0.02226 0.0
N1694 N 0.36927 0.88108 0.00532 0.0
N1695 N 0.28057 0.85201 0.05817 0.0
H1696 H 0.29877 0.81354 0.99531 0.0
H1697 H 0.28008 0.81436 0.02394 0.0
H1698 H 0.27582 0.86086 0.07596 0.0
H1699 H 0.2645 0.84445 0.04809 0.0
H1700 H 0.38175 0.89537 0.01283 0.0
H1701 H 0.37071 0.87873 0.98507 0.0
H1702 H 0.38787 0.88662 0.05262 0.0
H1703 H 0.36893 0.88731 0.08112 0.0
C1704 C 0.15194 0.64069 0.98131 0.0
C1705 C 0.13992 0.65867 0.99882 0.0
C1706 C 0.11909 0.68103 0.96185 0.0
C1707 C 0.1301 0.66232 0.94451 0.0
N1708 N 0.15085 0.62042 0.93835 0.0
N1709 N 0.10537 0.69013 0.00624 0.0
C1710 C 0.14443 0.64077 0.95451 0.0
C1711 C 0.12138 0.67705 0.98924 0.0
N1712 N 0.17153 0.62456 0.98983 0.0
N1713 N 0.1075 0.70321 0.95233 0.0
H1714 H 0.10567 0.6868 0.02637 0.0
H1715 H 0.08992 0.70198 9e-05 0.0
H1716 H 0.10554 0.70712 0.93238 0.0
H1717 H 0.10183 0.71875 0.96429 0.0
H1718 H 0.18278 0.61309 0.97724 0.0
H1719 H 0.17826 0.62438 0.00911 0.0
H1720 H 0.1592 0.60305 0.94508 0.0
H1721 H 0.14552 0.61997 0.91861 0.0
C1722 C 0.34338 0.1467 0.94589 0.0
C1723 C 0.32551 0.12649 0.93938 0.0
C1724 C 0.32107 0.11566 0.98583 0.0
C1725 C 0.33515 0.13874 0.99244 0.0
N1726 N 0.35622 0.17872 0.97827 0.0
N1727 N 0.29456 0.09359 0.9533 0.0
C1728 C 0.34556 0.15489 0.97235 0.0
C1729 C 0.31365 0.11134 0.95937 0.0
N1730 N 0.35838 0.15795 0.9268 0.0
N1731 N 0.31546 0.09746 0.0046 0.0
H1732 H 0.2886 0.08977 0.93413 0.0
H1733 H 0.28323 0.0842 0.96744 0.0
H1734 H 0.32122 0.09957 0.02405 0.0
H1735 H 0.30747 0.07916 0.00036 0.0
H1736 H 0.37345 0.17111 0.93081 0.0
H1737 H 0.35756 0.15206 0.90723 0.0
H1738 H 0.3616 0.19233 0.96405 0.0
H1739 H 0.35722 0.18611 0.99729 0.0
C1740 C 0.83759 0.35699 0.97708 0.0
C1741 C 0.85491 0.34579 0.99575 0.0
C1742 C 0.87977 0.32488 0.96043 0.0
C1743 C 0.86319 0.33701 0.94171 0.0
N1744 N 0.8311 0.3702 0.93191 0.0
N1745 N 0.89707 0.32633 0.00451 0.0
C1746 C 0.84369 0.35499 0.94997 0.0
C1747 C 0.87751 0.33206 0.98719 0.0
N1748 N 0.81463 0.36825 0.985 0.0
N1749 N 0.89673 0.30553 0.95302 0.0
H1750 H 0.89645 0.3322 0.02406 0.0
H1751 H 0.91501 0.31841 0.99884 0.0
H1752 H 0.89868 0.29915 0.93372 0.0
H1753 H 0.90713 0.29417 0.96641 0.0
H1754 H 0.80004 0.37412 0.97198 0.0
H1755 H 0.80904 0.36963 0.00459 0.0
H1756 H 0.81844 0.38538 0.937 0.0
H1757 H 0.83529 0.36928 0.91191 0.0
C1758 C 0.65188 0.87424 0.98714 0.0
C1759 C 0.65249 0.84797 0.99646 0.0
C1760 C 0.64124 0.83336 0.95234 0.0
C1761 C 0.64963 0.85768 0.94245 0.0
N1762 N 0.63475 0.90092 0.95213 0.0
N1763 N 0.64516 0.80193 0.98733 0.0
C1764 C 0.64735 0.87881 0.96005 0.0
C1765 C 0.64608 0.82729 0.97896 0.0
N1766 N 0.65477 0.89479 0.00394 0.0
N1767 N 0.62479 0.81833 0.93774 0.0
H1768 H 0.64905 0.79645 0.00663 0.0
H1769 H 0.6425 0.78632 0.9744 0.0
H1770 H 0.61805 0.82488 0.91953 0.0
H1771 H 0.61587 0.80143 0.94495 0.0
H1772 H 0.65672 0.91404 0.99739 0.0
H1773 H 0.6563 0.89235 0.02413 0.0
H1774 H 0.62994 0.9162 0.96481 0.0
H1775 H 0.62609 0.90188 0.93361 0.0
C1776 C 0.04432 0.13941 0.30464 0.0
C1777 C 0.05838 0.13034 0.32677 0.0
C1778 C 0.01754 0.12993 0.35196 0.0
C1779 C 0.00479 0.14357 0.33129 0.0
N1780 N 0.00878 0.16691 0.29024 0.0
N1781 N 0.05899 0.11995 0.37288 0.0
C1782 C 0.01881 0.14968 0.30809 0.0
C1783 C 0.04516 0.12619 0.35084 0.0
N1784 N 0.05544 0.13842 0.28033 0.0
N1785 N 0.00329 0.12004 0.37233 0.0
H1786 H 0.07921 0.1171 0.37281 0.0
H1787 H 0.05063 0.11954 0.3915 0.0
H1788 H 0.98295 0.1217 0.3734 0.0
H1789 H 0.01133 0.10795 0.38667 0.0
H1790 H 0.04514 0.14291 0.26327 0.0
H1791 H 0.074 0.13046 0.27709 0.0
H1792 H 0.01948 0.17374 0.27424 0.0
H1793 H 0.99107 0.1767 0.293 0.0
C1794 C 0.87671 0.01571 0.32992 0.0
C1795 C 0.85624 0.00753 0.34691 0.0
C1796 C 0.84811 0.05355 0.35818 0.0
C1797 C 0.86501 0.06149 0.33765 0.0
N1798 N 0.89234 0.04955 0.30084 0.0
N1799 N 0.81985 0.01938 0.37485 0.0
C1800 C 0.87859 0.04244 0.32269 0.0
C1801 C 0.84132 0.02664 0.36062 0.0
N1802 N 0.89492 0.99815 0.32128 0.0
N1803 N 0.8388 0.07168 0.37553 0.0
H1804 H 0.81356 3e-05 0.37643 0.0
H1805 H 0.80683 0.03284 0.38297 0.0
H1806 H 0.84361 0.09151 0.37432 0.0
H1807 H 0.8284 0.06667 0.39237 0.0
H1808 H 0.91162 0.00363 0.31088 0.0
H1809 H 0.89487 0.97864 0.32703 0.0
H1810 H 0.90015 0.03594 0.28777 0.0
H1811 H 0.89386 0.06884 0.29435 0.0
C1812 C 0.98969 0.88494 0.32527 0.0
C1813 C 0.99828 0.86387 0.34126 0.0
C1814 C 0.95285 0.85545 0.35414 0.0
C1815 C 0.94423 0.87311 0.33454 0.0
N1816 N 0.9544 0.903 0.29932 0.0
N1817 N 0.98778 0.82712 0.36916 0.0
C1818 C 0.96262 0.88758 0.31961 0.0
C1819 C 0.97982 0.84873 0.3555 0.0
N1820 N 0.00732 0.90285 0.3161 0.0
N1821 N 0.93523 0.84518 0.37147 0.0
H1822 H 0.00728 0.82119 0.37029 0.0
H1823 H 0.97479 0.81379 0.3775 0.0
H1824 H 0.91533 0.84985 0.37097 0.0
H1825 H 0.94069 0.83411 0.38773 0.0
H1826 H 0.00186 0.91994 0.30638 0.0
H1827 H 0.02718 0.90204 0.3207 0.0
H1828 H 0.96722 0.91154 0.28593 0.0
H1829 H 0.93471 0.90566 0.29459 0.0
C1830 C 0.12983 0.95715 0.3481 0.0
C1831 C 0.13808 0.944 0.32505 0.0
C1832 C 0.16094 0.98349 0.31066 0.0
C1833 C 0.15047 0.99755 0.3322 0.0
N1834 N 0.11926 0.99897 0.36781 0.0
N1835 N 0.15398 0.94765 0.28065 0.0
C1836 C 0.13318 0.98476 0.3499 0.0
C1837 C 0.15124 0.95813 0.30511 0.0
N1838 N 0.11982 0.94332 0.3687 0.0
N1839 N 0.18121 0.99351 0.29638 0.0
H1840 H 0.14589 0.92961 0.27549 0.0
H1841 H 0.1617 0.95817 0.26493 0.0
H1842 H 0.19026 0.01123 0.30099 0.0
H1843 H 0.19087 0.9828 0.28191 0.0
H1844 H 0.11602 0.95174 0.38691 0.0
H1845 H 0.11755 0.92303 0.36837 0.0
H1846 H 0.10467 0.9908 0.37951 0.0
H1847 H 0.12024 0.01934 0.36898 0.0
C1848 C 0.01337 0.87684 0.67249 0.0
C1849 C 0.00425 0.85553 0.65712 0.0
C1850 C 0.04974 0.8448 0.64596 0.0
C1851 C 0.05861 0.86283 0.66514 0.0
N1852 N 0.04825 0.89341 0.69982 0.0
N1853 N 0.01423 0.81691 0.63157 0.0
C1854 C 0.04029 0.87829 0.6792 0.0
C1855 C 0.02256 0.83897 0.64425 0.0
N1856 N 0.99646 0.89612 0.6801 0.0
N1857 N 0.06728 0.83339 0.62926 0.0
H1858 H 0.9946 0.81144 0.63046 0.0
H1859 H 0.02701 0.80277 0.62427 0.0
H1860 H 0.08732 0.83739 0.62996 0.0
H1861 H 0.06168 0.82199 0.61329 0.0
H1862 H 0.00256 0.9133 0.68929 0.0
H1863 H 0.97683 0.89625 0.67457 0.0
H1864 H 0.03517 0.90281 0.71237 0.0
H1865 H 0.06768 0.89462 0.70596 0.0
C1866 C 0.13425 0.03912 0.69489 0.0
C1867 C 0.12352 0.05242 0.67311 0.0
C1868 C 0.12359 0.01142 0.64833 0.0
C1869 C 0.13912 -0.00026 0.66828 0.0
N1870 N 0.16384 0.00499 0.70842 0.0
N1871 N 0.10902 0.05192 0.62818 0.0
C1872 C 0.14553 0.01414 0.69116 0.0
C1873 C 0.11819 0.03873 0.64958 0.0
N1874 N 0.13378 0.05046 0.71911 0.0
N1875 N 0.11352 0.99637 0.62861 0.0
H1876 H 0.10433 0.0718 0.62866 0.0
H1877 H 0.10763 0.04351 0.60964 0.0
H1878 H 0.1165 0.97618 0.62749 0.0
H1879 H 0.10016 0.00344 0.6149 0.0
H1880 H 0.13928 0.04048 0.73607 0.0
H1881 H 0.12526 0.06875 0.72247 0.0
H1882 H 0.17081 0.01611 0.72407 0.0
H1883 H 0.17418 0.98762 0.70548 0.0
C1884 C 0.97213 0.1545 0.64529 0.0
C1885 C 0.99061 0.14018 0.66039 0.0
C1886 C 0.95497 0.11838 0.68376 0.0
C1887 C 0.93659 0.1314 0.66754 0.0
N1888 N 0.92771 0.15657 0.62864 0.0
N1889 N 0.99926 0.10244 0.68757 0.0
C1890 C 0.94523 0.14767 0.64681 0.0
C1891 C 0.98194 0.12025 0.67769 0.0
N1892 N 0.97997 0.17548 0.63064 0.0
N1893 N 0.94691 0.10509 0.70557 0.0
H1894 H 0.01893 0.10231 0.6823 0.0
H1895 H 0.99352 0.08612 0.6984 0.0
H1896 H 0.92732 0.10331 0.711 0.0
H1897 H 0.95993 0.09777 0.7195 0.0
H1898 H 0.96688 0.18815 0.62143 0.0
H1899 H 0.99936 0.1818 0.6297 0.0
H1900 H 0.93329 0.16652 0.61172 0.0
H1901 H 0.90783 0.15183 0.62932 0.0
C1902 C 0.83937 0.97524 0.65517 0.0
C1903 C 0.85365 0.9948 0.66887 0.0
C1904 C 0.87946 0.96062 0.69067 0.0
C1905 C 0.86636 0.94136 0.67561 0.0
N1906 N 0.83915 0.93081 0.63852 0.0
N1907 N 0.89249 0.00595 0.69367 0.0
C1908 C 0.84814 0.94889 0.6561 0.0
C1909 C 0.87528 0.98748 0.68486 0.0
N1910 N 0.81659 0.98144 0.64254 0.0
N1911 N 0.89519 0.95339 0.71109 0.0
H1912 H 0.89072 0.0257 0.68911 0.0
H1913 H 0.90994 0.00129 0.70318 0.0
H1914 H 0.89902 0.9339 0.71585 0.0
H1915 H 0.90277 0.96676 0.72454 0.0
H1916 H 0.80417 0.96739 0.63448 0.0
H1917 H 0.80859 0.00022 0.64253 0.0
H1918 H 0.82764 0.93575 0.62239 0.0
H1919 H 0.84537 0.91133 0.63864 0.0
C1920 C 0.35042 0.05181 0.15333 0.0
C1921 C 0.33263 0.05989 0.13356 0.0
C1922 C 0.32629 0.01417 0.12072 0.0
C1923 C 0.3404 0.00597 0.14323 0.0
N1924 N 0.36365 0.01715 0.18289 0.0
N1925 N 0.30044 0.04846 0.10078 0.0
C1926 C 0.35208 0.02482 0.15999 0.0
C1927 C 0.31976 0.04101 0.11776 0.0
N1928 N 0.36595 0.0699 0.1655 0.0
N1929 N 0.31968 0.9964 0.10183 0.0
H1930 H 0.2947 0.06789 0.09823 0.0
H1931 H 0.28853 0.03512 0.09094 0.0
H1932 H 0.32504 0.97675 0.10296 0.0
H1933 H 0.31151 0.00169 0.08389 0.0
H1934 H 0.38106 0.06488 0.17826 0.0
H1935 H 0.36539 0.0898 0.16089 0.0
H1936 H 0.36989 0.03029 0.1972 0.0
H1937 H 0.36503 0.99762 0.18868 0.0
C1938 C 0.34896 0.96936 0.84302 0.0
C1939 C 0.33444 0.98852 0.85708 0.0
C1940 C 0.31267 0.95367 0.88192 0.0
C1941 C 0.3284 0.93479 0.86899 0.0
N1942 N 0.36648 0.92525 0.84286 0.0
N1943 N 0.30864 0.9988 0.89547 0.0
C1944 C 0.34831 0.9429 0.85149 0.0
C1945 C 0.31814 0.98067 0.87825 0.0
N1946 N 0.3621 0.97602 0.82066 0.0
N1947 N 0.29183 0.94599 0.89687 0.0
H1948 H 0.31301 0.01865 0.8941 0.0
H1949 H 0.29879 0.99378 0.91264 0.0
H1950 H 0.28705 0.92642 0.90015 0.0
H1951 H 0.27804 0.95912 0.90423 0.0
H1952 H 0.37083 0.96224 0.80838 0.0
H1953 H 0.36195 0.99486 0.81282 0.0
H1954 H 0.38286 0.9306 0.83192 0.0
H1955 H 0.36648 0.9057 0.84884 0.0
C1956 C 0.04318 0.34695 0.87259 0.0
C1957 C 0.0542 0.32193 0.86749 0.0
C1958 C 0.0131 0.30775 0.84755 0.0
C1959 C 0.00113 0.33165 0.85512 0.0
N1960 N 0.00344 0.37186 0.87994 0.0
N1961 N 0.0472 0.27636 0.85701 0.0
C1962 C 0.01575 0.35065 0.86922 0.0
C1963 C 0.03832 0.30161 0.85725 0.0
N1964 N 0.05891 0.3675 0.87936 0.0
N1965 N 0.00124 0.2916 0.8298 0.0
H1966 H 0.06534 0.271 0.86477 0.0
H1967 H 0.03544 0.26055 0.85169 0.0
H1968 H 0.98351 0.29619 0.82074 0.0
H1969 H 0.01043 0.27515 0.82192 0.0
H1970 H 0.05217 0.38673 0.88057 0.0
H1971 H 0.07914 0.36577 0.88152 0.0
H1972 H 0.01278 0.38493 0.89254 0.0
H1973 H 0.98332 0.37498 0.87831 0.0
C1974 C 0.64938 0.01085 0.87677 0.0
C1975 C 0.66734 0.99864 0.85929 0.0
C1976 C 0.69158 0.03962 0.85627 0.0
C1977 C 0.67105 0.05293 0.8693 0.0
N1978 N 0.62827 0.05146 0.88937 0.0
N1979 N 0.70154 0.00411 0.82693 0.0
C1980 C 0.64932 0.03863 0.87899 0.0
C1981 C 0.68745 0.01371 0.84754 0.0
N1982 N 0.63303 0.99601 0.89188 0.0
N1983 N 0.71525 0.05147 0.85267 0.0
H1984 H 0.6976 0.986 0.81835 0.0
H1985 H 0.71496 0.01549 0.81655 0.0
H1986 H 0.71935 0.0701 0.86001 0.0
H1987 H 0.73145 0.04158 0.84509 0.0
H1988 H 0.62126 0.00395 0.90655 0.0
H1989 H 0.63333 0.97559 0.89175 0.0
H1990 H 0.61084 0.04202 0.89423 0.0
H1991 H 0.62741 0.07179 0.89108 0.0
C1992 C 0.98807 0.66599 0.88389 0.0
C1993 C 0.99528 0.65617 0.85888 0.0
C1994 C 0.94889 0.65108 0.84786 0.0
C1995 C 0.94206 0.66541 0.87067 0.0
N1996 N 0.95557 0.68948 0.90911 0.0
N1997 N 0.9824 0.64188 0.81563 0.0
C1998 C 0.96172 0.67354 0.8885 0.0
C1999 C 0.97564 0.64915 0.8405 0.0
N2000 N 0.00621 0.66734 0.90348 0.0
N2001 N 0.92979 0.63916 0.83338 0.0
H2002 H 0.00175 0.6407 0.80923 0.0
H2003 H 0.96876 0.63931 0.80067 0.0
H2004 H 0.91003 0.63987 0.83856 0.0
H2005 H 0.93379 0.62647 0.8179 0.0
H2006 H 0.00152 0.67217 0.92275 0.0
H2007 H 0.02533 0.6607 0.90105 0.0
H2008 H 0.96969 0.69828 0.92094 0.0
H2009 H 0.93655 0.69574 0.91309 0.0
C2010 C 0.68846 0.96044 0.11223 0.0
C2011 C 0.67491 0.94114 0.12681 0.0
C2012 C 0.65564 0.9751 0.15457 0.0
C2013 C 0.66806 0.99466 0.13917 0.0
N2014 N 0.68976 0.00569 0.09853 0.0
N2015 N 0.64006 0.93034 0.15667 0.0
C2016 C 0.68249 0.98728 0.11649 0.0
C2017 C 0.6565 0.94864 0.14616 0.0
N2018 N 0.70779 0.95333 0.09513 0.0
N2019 N 0.64444 0.98142 0.17807 0.0
H2020 H 0.64018 0.91078 0.15069 0.0
H2021 H 0.62466 0.9351 0.1692 0.0
H2022 H 0.64457 0.00032 0.18579 0.0
H2023 H 0.63748 0.96744 0.1912 0.0
H2024 H 0.72034 0.96681 0.08634 0.0
H2025 H 0.71258 0.93387 0.09121 0.0
H2026 H 0.69808 0.00101 0.08049 0.0
H2027 H 0.68497 0.02538 0.10048 0.0
C2028 C 0.05051 0.70008 0.15255 0.0
C2029 C 0.06422 0.67947 0.13998 0.0
C2030 C 0.02355 0.65431 0.13787 0.0
C2031 C 0.01139 0.67285 0.15475 0.0
N2032 N 0.01611 0.71048 0.18314 0.0
N2033 N 0.06453 0.63504 0.12377 0.0
C2034 C 0.0256 0.69502 0.16346 0.0
C2035 C 0.05096 0.65602 0.13337 0.0
N2036 N 0.06097 0.72467 0.15352 0.0
N2037 N 0.00891 0.6357 0.1254 0.0
H2038 H 0.08469 0.6354 0.12055 0.0
H2039 H 0.0561 0.61663 0.1212 0.0
H2040 H 0.9886 0.63455 0.12717 0.0
H2041 H 0.01658 0.6233 0.1111 0.0
H2042 H 0.05073 0.74077 0.1608 0.0
H2043 H 0.07859 0.72939 0.14432 0.0
H2044 H 0.02703 0.72553 0.19158 0.0
H2045 H 0.99864 0.70644 0.19292 0.0
C2046 C 0.9844 0.32543 0.12485 0.0
C2047 C 0.99288 0.34249 0.14517 0.0
C2048 C 0.94724 0.35549 0.15257 0.0
C2049 C 0.93882 0.33508 0.13574 0.0
N2050 N 0.94967 0.29744 0.10915 0.0
N2051 N 0.98155 0.37102 0.18129 0.0
C2052 C 0.95746 0.31917 0.12272 0.0
C2053 C 0.97409 0.35699 0.15974 0.0
N2054 N 0.00188 0.31583 0.10702 0.0
N2055 N 0.92962 0.37351 0.16158 0.0
H2056 H 0.00082 0.37179 0.18798 0.0
H2057 H 0.96821 0.37973 0.19405 0.0
H2058 H 0.9098 0.37296 0.1566 0.0
H2059 H 0.9351 0.39024 0.1719 0.0
H2060 H 0.99621 0.30537 0.09043 0.0
H2061 H 0.02165 0.32069 0.10728 0.0
H2062 H 0.96284 0.28371 0.10173 0.0
H2063 H 0.93013 0.2918 0.10735 0.0
C2064 C 0.62448 0.84157 0.54656 0.0
C2065 C 0.63032 0.81831 0.56055 0.0
C2066 C 0.65226 0.80023 0.52212 0.0
C2067 C 0.64488 0.82261 0.50746 0.0
N2068 N 0.61769 0.8612 0.50392 0.0
N2069 N 0.64199 0.77255 0.55909 0.0
C2070 C 0.62897 0.84226 0.5191 0.0
C2071 C 0.64153 0.79661 0.54739 0.0
N2072 N 0.61597 0.86338 0.55953 0.0
N2073 N 0.67088 0.78337 0.51286 0.0
H2074 H 0.63358 0.76914 0.57742 0.0
H2075 H 0.64816 0.75565 0.54942 0.0
H2076 H 0.68067 0.78626 0.49517 0.0
H2077 H 0.6786 0.76816 0.52408 0.0
H2078 H 0.61418 0.88163 0.55056 0.0
H2079 H 0.61272 0.86377 0.57968 0.0
H2080 H 0.60405 0.87456 0.51116 0.0
H2081 H 0.6198 0.8618 0.4836 0.0
C2082 C 0.14644 0.62647 0.51627 0.0
C2083 C 0.16429 0.6433 0.50308 0.0
C2084 C 0.1928 0.64237 0.54143 0.0
C2085 C 0.17293 0.62974 0.55611 0.0
N2086 N 0.12855 0.61357 0.55828 0.0
N2087 N 0.20089 0.67315 0.50666 0.0
C2088 C 0.14907 0.62272 0.54377 0.0
C2089 C 0.18662 0.65282 0.51655 0.0
N2090 N 0.12752 0.61342 0.50257 0.0
N2091 N 0.21762 0.64436 0.55119 0.0
H2092 H 0.19561 0.68307 0.48959 0.0
H2093 H 0.21604 0.68207 0.51707 0.0
H2094 H 0.22307 0.63614 0.56911 0.0
H2095 H 0.2332 0.65167 0.54018 0.0
H2096 H 0.11555 0.59923 0.51105 0.0
H2097 H 0.12572 0.61464 0.48225 0.0
H2098 H 0.10989 0.61074 0.55049 0.0
H2099 H 0.12963 0.61089 0.5785 0.0
C2100 C 0.34826 0.14109 0.51767 0.0
C2101 C 0.36109 0.15856 0.50024 0.0
C2102 C 0.37959 0.18233 0.53754 0.0
C2103 C 0.36841 0.16373 0.55483 0.0
N2104 N 0.3478 0.12172 0.56101 0.0
N2105 N 0.3957 0.1902 0.4938 0.0
C2106 C 0.35464 0.14184 0.54475 0.0
C2107 C 0.37887 0.17748 0.51023 0.0
N2108 N 0.329 0.12478 0.50876 0.0
N2109 N 0.38994 0.20515 0.54695 0.0
H2110 H 0.3967 0.18622 0.4738 0.0
H2111 H 0.4106 0.20246 0.5005 0.0
H2112 H 0.39047 0.20981 0.56683 0.0
H2113 H 0.39581 0.22046 0.53478 0.0
H2114 H 0.31726 0.11364 0.52118 0.0
H2115 H 0.32298 0.12424 0.48926 0.0
H2116 H 0.33991 0.10415 0.55425 0.0
H2117 H 0.35231 0.12167 0.58096 0.0
C2118 C 0.8567 0.35307 0.55216 0.0
C2119 C 0.8373 0.37174 0.55888 0.0
C2120 C 0.83232 0.38272 0.51249 0.0
C2121 C 0.84744 0.36036 0.50557 0.0
N2122 N 0.87179 0.32218 0.51959 0.0
N2123 N 0.80466 0.40308 0.54516 0.0
C2124 C 0.85937 0.34513 0.5256 0.0
C2125 C 0.82472 0.38645 0.539 0.0
N2126 N 0.87239 0.34278 0.57125 0.0
N2127 N 0.82574 0.40078 0.4939 0.0
H2128 H 0.79851 0.40655 0.56432 0.0
H2129 H 0.79281 0.4119 0.53106 0.0
H2130 H 0.83161 0.39911 0.47447 0.0
H2131 H 0.81689 0.41864 0.49832 0.0
H2132 H 0.88843 0.33082 0.56723 0.0
H2133 H 0.87086 0.34838 0.59086 0.0
H2134 H 0.87838 0.30906 0.53377 0.0
H2135 H 0.87328 0.3149 0.50058 0.0
C2136 C 0.6221 0.17667 0.48671 0.0
C2137 C 0.64491 0.16319 0.49527 0.0
C2138 C 0.65539 0.15302 0.44956 0.0
C2139 C 0.6355 0.1705 0.44119 0.0
N2140 N 0.60214 0.2022 0.45218 0.0
N2141 N 0.6857 0.1418 0.48415 0.0
C2142 C 0.61936 0.18319 0.45984 0.0
C2143 C 0.66217 0.15203 0.47651 0.0
N2144 N 0.60255 0.18238 0.504 0.0
N2145 N 0.66774 0.13731 0.43174 0.0
H2146 H 0.69205 0.14168 0.50356 0.0
H2147 H 0.70007 0.13588 0.47092 0.0
H2148 H 0.66293 0.13732 0.41187 0.0
H2149 H 0.68074 0.12251 0.43709 0.0
H2150 H 0.58451 0.19007 0.49831 0.0
H2151 H 0.60326 0.17658 0.52349 0.0
H2152 H 0.59203 0.21399 0.46545 0.0
H2153 H 0.59957 0.20771 0.43268 0.0
C2154 C 0.84707 0.65301 0.44746 0.0
C2155 C 0.82712 0.6355 0.43934 0.0
C2156 C 0.81837 0.62439 0.48504 0.0
C2157 C 0.83502 0.64508 0.49324 0.0
N2158 N 0.86284 0.68162 0.48182 0.0
N2159 N 0.79037 0.60788 0.4507 0.0
C2160 C 0.8489 0.66003 0.47434 0.0
C2161 C 0.81181 0.62205 0.45819 0.0
N2162 N 0.86457 0.66249 0.42958 0.0
N2163 N 0.80956 0.60636 0.50272 0.0
H2164 H 0.78446 0.60597 0.43124 0.0
H2165 H 0.77707 0.60005 0.46406 0.0
H2166 H 0.81511 0.60665 0.52234 0.0
H2167 H 0.79931 0.58956 0.4973 0.0
H2168 H 0.88104 0.67336 0.43479 0.0
H2169 H 0.86397 0.65736 0.40979 0.0
H2170 H 0.87104 0.69472 0.4685 0.0
H2171 H 0.86421 0.68781 0.50124 0.0
C2172 C 0.37997 0.82658 0.48904 0.0
C2173 C 0.35684 0.84015 0.49659 0.0
C2174 C 0.34749 0.84887 0.45021 0.0
C2175 C 0.36797 0.83162 0.44283 0.0
N2176 N 0.40171 0.80102 0.45554 0.0
N2177 N 0.3163 0.861 0.48377 0.0
C2178 C 0.3838 0.81973 0.46231 0.0
C2179 C 0.34004 0.85064 0.47701 0.0
N2180 N 0.39875 0.82091 0.50721 0.0
N2181 N 0.33523 0.86367 0.43158 0.0
H2182 H 0.30957 0.86182 0.50304 0.0
H2183 H 0.30218 0.86641 0.47006 0.0
H2184 H 0.34039 0.86296 0.4118 0.0
H2185 H 0.32184 0.87841 0.43607 0.0
H2186 H 0.41712 0.81345 0.50235 0.0
H2187 H 0.39699 0.82616 0.52681 0.0
H2188 H 0.41159 0.7896 0.46927 0.0
H2189 H 0.40513 0.79529 0.43623 0.0
C2190 C 0.14946 0.3618 0.47622 0.0
C2191 C 0.169 0.34652 0.48894 0.0
C2192 C 0.19584 0.34883 0.44955 0.0
C2193 C 0.17455 0.35981 0.43549 0.0
N2194 N 0.12891 0.37222 0.43477 0.0
N2195 N 0.20721 0.31893 0.48417 0.0
C2196 C 0.15066 0.36507 0.4486 0.0
C2197 C 0.1913 0.33822 0.47468 0.0
N2198 N 0.13035 0.37399 0.49044 0.0
N2199 N 0.22047 0.34882 0.43914 0.0
H2200 H 0.20318 0.30888 0.50149 0.0
H2201 H 0.2225 0.31092 0.47324 0.0
H2202 H 0.22482 0.35767 0.42124 0.0
H2203 H 0.23684 0.3426 0.44967 0.0
H2204 H 0.11705 0.38707 0.48212 0.0
H2205 H 0.12963 0.37341 0.51084 0.0
H2206 H 0.11042 0.37374 0.44329 0.0
H2207 H 0.12894 0.37439 0.41445 0.0
C2208 C 0.51542 0.61152 0.83184 0.0
C2209 C 0.5077 0.63395 0.84637 0.0
C2210 C 0.55362 0.64151 0.85809 0.0
C2211 C 0.56138 0.62279 0.83911 0.0
N2212 N 0.54954 0.59095 0.80619 0.0
N2213 N 0.51993 0.67182 0.87203 0.0
C2214 C 0.54228 0.6078 0.82569 0.0
C2215 C 0.5269 0.64919 0.85952 0.0
N2216 N 0.49719 0.59341 0.82457 0.0
N2217 N 0.57191 0.65211 0.8745 0.0
H2218 H 0.50068 0.67854 0.87305 0.0
H2219 H 0.53353 0.68511 0.87943 0.0
H2220 H 0.59161 0.64665 0.87387 0.0
H2221 H 0.56715 0.6642 0.89024 0.0
H2222 H 0.50196 0.57557 0.81587 0.0
H2223 H 0.47765 0.59494 0.83014 0.0
H2224 H 0.53612 0.58189 0.79376 0.0
H2225 H 0.56901 0.58746 0.80114 0.0
C2226 C 0.37472 0.54272 0.84493 0.0
C2227 C 0.37111 0.55526 0.82039 0.0
C2228 C 0.34816 0.51682 0.80377 0.0
C2229 C 0.35374 0.50328 0.82737 0.0
N2230 N 0.37826 0.50134 0.86783 0.0
N2231 N 0.36187 0.55111 0.77424 0.0
C2232 C 0.36889 0.51559 0.8472 0.0
C2233 C 0.36041 0.54117 0.79904 0.0
N2234 N 0.38236 0.55682 0.86635 0.0
N2235 N 0.32984 0.50745 0.78665 0.0
H2236 H 0.37139 0.56871 0.77006 0.0
H2237 H 0.35612 0.54055 0.75773 0.0
H2238 H 0.31886 0.49063 0.79029 0.0
H2239 H 0.32351 0.51801 0.77035 0.0
H2240 H 0.38253 0.54909 0.88525 0.0
H2241 H 0.38643 0.5768 0.86564 0.0
H2242 H 0.3914 0.50892 0.8815 0.0
H2243 H 0.37507 0.48125 0.86976 0.0
C2244 C 0.47118 0.34463 0.8518 0.0
C2245 C 0.48975 0.36059 0.83863 0.0
C2246 C 0.45426 0.38466 0.81712 0.0
C2247 C 0.43571 0.36921 0.83086 0.0
N2248 N 0.42627 0.3398 0.8665 0.0
N2249 N 0.49879 0.4008 0.81553 0.0
C2250 C 0.44414 0.35099 0.85003 0.0
C2251 C 0.48121 0.38225 0.82345 0.0
N2252 N 0.47913 0.32259 0.86476 0.0
N2253 N 0.44641 0.40063 0.79711 0.0
H2254 H 0.51857 0.40002 0.82056 0.0
H2255 H 0.4933 0.41824 0.80647 0.0
H2256 H 0.42688 0.40291 0.7916 0.0
H2257 H 0.4595 0.40998 0.78456 0.0
H2258 H 0.46613 0.30873 0.8722 0.0
H2259 H 0.49868 0.31691 0.86618 0.0
H2260 H 0.4315 0.3282 0.88245 0.0
H2261 H 0.40631 0.3442 0.86566 0.0
C2262 C 0.64361 0.45348 0.80164 0.0
C2263 C 0.63189 0.43908 0.82227 0.0
C2264 C 0.63183 0.47862 0.8494 0.0
C2265 C 0.64772 0.49142 0.83047 0.0
N2266 N 0.67351 0.4884 0.79086 0.0
N2267 N 0.61776 0.43703 0.86736 0.0
C2268 C 0.65485 0.47821 0.8071 0.0
C2269 C 0.62661 0.4514 0.8466 0.0
N2270 N 0.64371 0.4437 0.77672 0.0
N2271 N 0.62113 0.49254 0.86962 0.0
H2272 H 0.61398 0.417 0.86618 0.0
H2273 H 0.61628 0.44456 0.88628 0.0
H2274 H 0.62382 0.51267 0.87185 0.0
H2275 H 0.60744 0.48464 0.88253 0.0
H2276 H 0.65013 0.45448 0.76061 0.0
H2277 H 0.63473 0.426 0.77182 0.0
H2278 H 0.68107 0.47815 0.77488 0.0
H2279 H 0.68349 0.50574 0.79492 0.0
C2280 C 0.54172 0.36401 0.19942 0.0
C2281 C 0.5564 0.37511 0.17867 0.0
C2282 C 0.51668 0.37691 0.15196 0.0
C2283 C 0.50354 0.36122 0.1708 0.0
N2284 N 0.50602 0.33512 0.21028 0.0
N2285 N 0.55858 0.3891 0.1335 0.0
C2286 C 0.5166 0.35363 0.19411 0.0
C2287 C 0.54408 0.38099 0.15448 0.0
N2288 N 0.55182 0.36333 0.2242 0.0
N2289 N 0.50296 0.38833 0.13201 0.0
H2290 H 0.57878 0.39187 0.13436 0.0
H2291 H 0.55084 0.39092 0.11469 0.0
H2292 H 0.48271 0.38646 0.13004 0.0
H2293 H 0.51126 0.40183 0.11915 0.0
H2294 H 0.54096 0.35731 0.24041 0.0
H2295 H 0.57004 0.37136 0.22884 0.0
H2296 H 0.51612 0.32725 0.22619 0.0
H2297 H 0.48848 0.32551 0.20617 0.0
C2298 C 0.61605 0.51602 0.17081 0.0
C2299 C 0.64066 0.50864 0.16017 0.0
C2300 C 0.65153 0.55491 0.15403 0.0
C2301 C 0.62939 0.56195 0.16926 0.0
N2302 N 0.5914 0.54905 0.19425 0.0
N2303 N 0.68305 0.52113 0.14333 0.0
C2304 C 0.61167 0.54251 0.17803 0.0
C2305 C 0.65867 0.52811 0.15192 0.0
N2306 N 0.59662 0.49785 0.17333 0.0
N2307 N 0.66564 0.57392 0.14155 0.0
H2308 H 0.68916 0.50171 0.14169 0.0
H2309 H 0.69795 0.53462 0.13986 0.0
H2310 H 0.66059 0.59371 0.14248 0.0
H2311 H 0.68059 0.56986 0.12827 0.0
H2312 H 0.57753 0.50252 0.17882 0.0
H2313 H 0.59892 0.47862 0.16701 0.0
H2314 H 0.57976 0.53519 0.20366 0.0
H2315 H 0.5874 0.56827 0.1999 0.0
C2316 C 0.4594 0.64364 0.20314 0.0
C2317 C 0.44461 0.63296 0.18225 0.0
C2318 C 0.48401 0.63229 0.15499 0.0
C2319 C 0.49726 0.64741 0.17421 0.0
N2320 N 0.4952 0.67222 0.21456 0.0
N2321 N 0.44199 0.62005 0.13678 0.0
C2322 C 0.48443 0.65424 0.19789 0.0
C2323 C 0.45668 0.62781 0.15776 0.0
N2324 N 0.44948 0.6437 0.228 0.0
N2325 N 0.49755 0.62178 0.13444 0.0
H2326 H 0.42185 0.61693 0.13786 0.0
H2327 H 0.44946 0.61882 0.11782 0.0
H2328 H 0.51772 0.6241 0.13214 0.0
H2329 H 0.48925 0.6086 0.12123 0.0
H2330 H 0.46041 0.64935 0.2443 0.0
H2331 H 0.43133 0.63548 0.23257 0.0
H2332 H 0.48528 0.67961 0.23081 0.0
H2333 H 0.51275 0.68189 0.21065 0.0
C2334 C 0.34696 0.48302 0.13877 0.0
C2335 C 0.36068 0.50084 0.15517 0.0
C2336 C 0.38244 0.46404 0.17705 0.0
C2337 C 0.3697 0.44636 0.15984 0.0
N2338 N 0.34561 0.43941 0.1199 0.0
N2339 N 0.39786 0.50827 0.18339 0.0
C2340 C 0.35393 0.45604 0.13914 0.0
C2341 C 0.38041 0.49134 0.17233 0.0
N2342 N 0.32635 0.49147 0.12393 0.0
N2343 N 0.39551 0.45501 0.19861 0.0
H2344 H 0.39789 0.52815 0.17902 0.0
H2345 H 0.41405 0.50215 0.19422 0.0
H2346 H 0.39742 0.43518 0.20306 0.0
H2347 H 0.40255 0.46736 0.21327 0.0
H2348 H 0.31401 0.47878 0.11375 0.0
H2349 H 0.31999 0.51087 0.12369 0.0
H2350 H 0.33605 0.44577 0.10302 0.0
H2351 H 0.35052 0.41956 0.11972 0.0
C2352 C 0.80804 0.51939 0.65138 0.0
C2353 C 0.8311 0.50558 0.64436 0.0
C2354 C 0.84875 0.54553 0.62424 0.0
C2355 C 0.82491 0.55859 0.62989 0.0
N2356 N 0.77908 0.55521 0.6406 0.0
N2357 N 0.87051 0.50374 0.61823 0.0
C2358 C 0.80361 0.54456 0.6407 0.0
C2359 C 0.85063 0.5181 0.62895 0.0
N2360 N 0.79118 0.50941 0.66961 0.0
N2361 N 0.86986 0.55937 0.6154 0.0
H2362 H 0.87206 0.48351 0.62059 0.0
H2363 H 0.88388 0.51146 0.60488 0.0
H2364 H 0.86909 0.57939 0.61145 0.0
H2365 H 0.88855 0.55134 0.61377 0.0
H2366 H 0.77539 0.52003 0.67705 0.0
H2367 H 0.79457 0.49183 0.67942 0.0
H2368 H 0.76248 0.54469 0.64613 0.0
H2369 H 0.77509 0.57349 0.63236 0.0
C2370 C 0.82607 0.46181 0.3877 0.0
C2371 C 0.83534 0.44255 0.36996 0.0
C2372 C 0.85222 0.47683 0.34097 0.0
C2373 C 0.84355 0.49608 0.35906 0.0
N2374 N 0.8301 0.50645 0.40313 0.0
N2375 N 0.86391 0.43132 0.33408 0.0
C2376 C 0.83301 0.4884 0.3836 0.0
C2377 C 0.8507 0.44996 0.34803 0.0
N2378 N 0.80965 0.45499 0.40771 0.0
N2379 N 0.86057 0.48398 0.31656 0.0
H2380 H 0.86347 0.4115 0.33906 0.0
H2381 H 0.87729 0.4358 0.31934 0.0
H2382 H 0.86168 0.50341 0.31041 0.0
H2383 H 0.8643 0.47053 0.30167 0.0
H2384 H 0.80002 0.46871 0.41936 0.0
H2385 H 0.80397 0.43574 0.4114 0.0
H2386 H 0.82463 0.50155 0.42217 0.0
H2387 H 0.83599 0.52588 0.40098 0.0
C2388 C 0.54772 0.85667 0.3757 0.0
C2389 C 0.56114 0.83284 0.37106 0.0
C2390 C 0.52162 0.81385 0.35206 0.0
C2391 C 0.50736 0.8368 0.35852 0.0
N2392 N 0.50567 0.87785 0.38205 0.0
N2393 N 0.55836 0.78633 0.36325 0.0
C2394 C 0.52006 0.85762 0.37204 0.0
C2395 C 0.54722 0.81061 0.36207 0.0
N2396 N 0.56142 0.87852 0.38282 0.0
N2397 N 0.51167 0.79598 0.3348 0.0
H2398 H 0.57695 0.78313 0.37112 0.0
H2399 H 0.54793 0.76926 0.35917 0.0
H2400 H 0.49388 0.79862 0.32512 0.0
H2401 H 0.52252 0.78012 0.32784 0.0
H2402 H 0.55308 0.89713 0.38366 0.0
H2403 H 0.58157 0.87825 0.38622 0.0
H2404 H 0.5136 0.89229 0.39409 0.0
H2405 H 0.48532 0.87877 0.38049 0.0
C2406 C 0.18805 0.5169 0.3454 0.0
C2407 C 0.16582 0.50215 0.35304 0.0
C2408 C 0.14648 0.54195 0.37187 0.0
C2409 C 0.17016 0.5556 0.36696 0.0
N2410 N 0.21619 0.55318 0.35644 0.0
N2411 N 0.12648 0.49962 0.37933 0.0
C2412 C 0.19189 0.54203 0.35632 0.0
C2413 C 0.14576 0.51433 0.36808 0.0
N2414 N 0.20445 0.50799 0.32624 0.0
N2415 N 0.12438 0.5553 0.37888 0.0
H2416 H 0.12587 0.47925 0.37793 0.0
H2417 H 0.11277 0.50742 0.39231 0.0
H2418 H 0.12403 0.57556 0.3814 0.0
H2419 H 0.10602 0.54646 0.38003 0.0
H2420 H 0.21966 0.51929 0.31863 0.0
H2421 H 0.20092 0.49076 0.31583 0.0
H2422 H 0.23294 0.54309 0.35051 0.0
H2423 H 0.21987 0.57136 0.36505 0.0
C2424 C 0.48117 0.15181 0.33685 0.0
C2425 C 0.50006 0.16616 0.3514 0.0
C2426 C 0.46467 0.19004 0.3734 0.0
C2427 C 0.44595 0.17384 0.36081 0.0
N2428 N 0.43684 0.13502 0.3355 0.0
N2429 N 0.50913 0.19337 0.38915 0.0
C2430 C 0.45437 0.1533 0.34414 0.0
C2431 C 0.49165 0.18367 0.37137 0.0
N2432 N 0.48851 0.13779 0.31525 0.0
N2433 N 0.45689 0.21202 0.38656 0.0
H2434 H 0.52887 0.18822 0.38919 0.0
H2435 H 0.50346 0.20424 0.40548 0.0
H2436 H 0.43733 0.21765 0.38824 0.0
H2437 H 0.47009 0.22585 0.39374 0.0
H2438 H 0.47509 0.12909 0.30257 0.0
H2439 H 0.50772 0.13722 0.30834 0.0
H2440 H 0.44242 0.11821 0.32533 0.0
H2441 H 0.41707 0.13541 0.34067 0.0
C2442 C 0.19708 0.47648 0.6447 0.0
C2443 C 0.17537 0.49217 0.63744 0.0
C2444 C 0.1549 0.45398 0.61666 0.0
C2445 C 0.17753 0.43902 0.62239 0.0
N2446 N 0.22343 0.4388 0.63355 0.0
N2447 N 0.13736 0.49747 0.60965 0.0
C2448 C 0.19981 0.45133 0.63343 0.0
C2449 C 0.15542 0.48145 0.62119 0.0
N2450 N 0.21389 0.48442 0.66394 0.0
N2451 N 0.13256 0.44197 0.60819 0.0
H2452 H 0.1379 0.51781 0.6115 0.0
H2453 H 0.12375 0.49078 0.59598 0.0
H2454 H 0.13145 0.42185 0.60478 0.0
H2455 H 0.11471 0.45172 0.60644 0.0
H2456 H 0.22864 0.4724 0.67137 0.0
H2457 H 0.21117 0.50163 0.6746 0.0
H2458 H 0.24066 0.44779 0.63983 0.0
H2459 H 0.22612 0.42054 0.62473 0.0
C2460 C 0.53764 0.17954 0.61617 0.0
C2461 C 0.5566 0.16392 0.62902 0.0
C2462 C 0.52208 0.14083 0.65275 0.0
C2463 C 0.50297 0.15556 0.63888 0.0
N2464 N 0.49312 0.18168 0.60068 0.0
N2465 N 0.56675 0.1248 0.65335 0.0
C2466 C 0.5109 0.1727 0.61847 0.0
C2467 C 0.54872 0.14279 0.64514 0.0
N2468 N 0.54487 0.2015 0.60268 0.0
N2469 N 0.51519 0.12629 0.67414 0.0
H2470 H 0.58645 0.12582 0.64796 0.0
H2471 H 0.56168 0.10771 0.66328 0.0
H2472 H 0.4961 0.12525 0.68127 0.0
H2473 H 0.52888 0.11737 0.68637 0.0
H2474 H 0.53133 0.21497 0.59546 0.0
H2475 H 0.56428 0.20744 0.60058 0.0
H2476 H 0.49834 0.19252 0.58418 0.0
H2477 H 0.47375 0.17547 0.60072 0.0
C2478 C 0.48816 0.82579 0.62039 0.0
C2479 C 0.49557 0.83894 0.64378 0.0
C2480 C 0.44925 0.84717 0.65341 0.0
C2481 C 0.44203 0.83013 0.63266 0.0
N2482 N 0.45475 0.80087 0.59778 0.0
N2483 N 0.48296 0.85994 0.68425 0.0
C2484 C 0.46151 0.81889 0.6164 0.0
C2485 C 0.47606 0.84926 0.66068 0.0
N2486 N 0.50645 0.82071 0.60157 0.0
N2487 N 0.43047 0.86154 0.66597 0.0
H2488 H 0.50234 0.86155 0.6905 0.0
H2489 H 0.46939 0.86514 0.69858 0.0
H2490 H 0.41071 0.86069 0.66082 0.0
H2491 H 0.43477 0.87611 0.6796 0.0
H2492 H 0.50182 0.81334 0.58311 0.0
H2493 H 0.52584 0.82665 0.60341 0.0
H2494 H 0.46847 0.78981 0.58748 0.0
H2495 H 0.43542 0.79549 0.594 0.0
C2496 C 0.14298 0.36117 0.2576 0.0
C2497 C 0.16832 0.3537 0.26619 0.0
C2498 C 0.18158 0.34652 0.22029 0.0
C2499 C 0.15522 0.35003 0.21244 0.0
N2500 N 0.1164 0.3755 0.22103 0.0
N2501 N 0.21302 0.34179 0.25562 0.0
C2502 C 0.13745 0.36184 0.2303 0.0
C2503 C 0.18809 0.34725 0.24746 0.0
N2504 N 0.12386 0.36665 0.27552 0.0
N2505 N 0.20053 0.34476 0.20146 0.0
H2506 H 0.21937 0.34436 0.27483 0.0
H2507 H 0.22742 0.33383 0.24359 0.0
H2508 H 0.19624 0.34731 0.18162 0.0
H2509 H 0.22053 0.34404 0.20528 0.0
H2510 H 0.10429 0.36937 0.27044 0.0
H2511 H 0.12711 0.36619 0.2957 0.0
H2512 H 0.10376 0.38613 0.233 0.0
H2513 H 0.11403 0.3795 0.20112 0.0
C2514 C 0.64099 0.16954 0.25437 0.0
C2515 C 0.65538 0.15828 0.27564 0.0
C2516 C 0.68266 0.13403 0.24427 0.0
C2517 C 0.66924 0.14646 0.22318 0.0
N2518 N 0.63819 0.17822 0.20762 0.0
N2519 N 0.69112 0.13174 0.29114 0.0
C2520 C 0.64906 0.16475 0.2281 0.0
C2521 C 0.67658 0.14106 0.27064 0.0
N2522 N 0.61957 0.18493 0.25914 0.0
N2523 N 0.70111 0.11531 0.23904 0.0
H2524 H 0.68618 0.13511 0.31068 0.0
H2525 H 0.70876 0.12177 0.28899 0.0
H2526 H 0.70714 0.1106 0.22013 0.0
H2527 H 0.70957 0.10334 0.2532 0.0
H2528 H 0.60619 0.19046 0.24478 0.0
H2529 H 0.6141 0.19139 0.27766 0.0
H2530 H 0.62591 0.19434 0.20985 0.0
H2531 H 0.64288 0.17446 0.18808 0.0
C2532 C 0.86305 0.67176 0.24613 0.0
C2533 C 0.8526 0.65857 0.22373 0.0
C2534 C 0.82474 0.63182 0.25233 0.0
C2535 C 0.8339 0.64617 0.27447 0.0
N2536 N 0.86044 0.68046 0.2929 0.0
N2537 N 0.82292 0.62714 0.20496 0.0
C2538 C 0.85279 0.66623 0.27148 0.0
C2539 C 0.83339 0.63878 0.22673 0.0
N2540 N 0.88278 0.6897 0.24325 0.0
N2541 N 0.80763 0.6115 0.25576 0.0
H2542 H 0.83011 0.63034 0.1861 0.0
H2543 H 0.80643 0.61517 0.20522 0.0
H2544 H 0.79844 0.60747 0.27351 0.0
H2545 H 0.80331 0.59776 0.24134 0.0
H2546 H 0.89373 0.69714 0.25874 0.0
H2547 H 0.88933 0.69666 0.22527 0.0
H2548 H 0.87121 0.69772 0.29191 0.0
H2549 H 0.85491 0.67574 0.312 0.0
C2550 C 0.33588 0.85861 0.27437 0.0
C2551 C 0.35338 0.83736 0.27752 0.0
C2552 C 0.35724 0.8332 0.22961 0.0
C2553 C 0.33802 0.8529 0.2264 0.0
N2554 N 0.30547 0.88122 0.24592 0.0
N2555 N 0.38018 0.80348 0.25718 0.0
C2556 C 0.32657 0.86502 0.24883 0.0
C2557 C 0.36396 0.82457 0.25506 0.0
N2558 N 0.32854 0.87297 0.29576 0.0
N2559 N 0.36897 0.82213 0.20824 0.0
H2560 H 0.38576 0.79498 0.27489 0.0
H2561 H 0.38576 0.79498 0.27489 0.0
H2562 H 0.36521 0.82827 0.1891 0.0
H2563 H 0.38307 0.80739 0.20984 0.0
H2564 H 0.31819 0.89051 0.29452 0.0
H2565 H 0.33479 0.86853 0.31472 0.0
H2566 H 0.29449 0.88825 0.26158 0.0
H2567 H 0.29734 0.88574 0.22778 0.0
C2568 C 0.16713 0.63286 0.77142 0.0
C2569 C 0.14674 0.65071 0.77731 0.0
C2570 C 0.13874 0.65766 0.73001 0.0
C2571 C 0.15923 0.63993 0.72412 0.0
N2572 N 0.19145 0.60822 0.73902 0.0
N2573 N 0.1111 0.6785 0.76239 0.0
C2574 C 0.17284 0.62666 0.74477 0.0
C2575 C 0.13182 0.66246 0.75666 0.0
N2576 N 0.18162 0.62243 0.79144 0.0
N2577 N 0.12638 0.67054 0.70999 0.0
H2578 H 0.10692 0.68556 0.78102 0.0
H2579 H 0.09714 0.68436 0.74876 0.0
H2580 H 0.12928 0.66588 0.6903 0.0
H2581 H 0.11403 0.68655 0.71254 0.0
H2582 H 0.19916 0.61238 0.78887 0.0
H2583 H 0.17667 0.62476 0.81113 0.0
H2584 H 0.19913 0.59519 0.75268 0.0
H2585 H 0.19891 0.6049 0.72038 0.0
C2586 C 0.36646 0.16439 0.74308 0.0
C2587 C 0.35311 0.15146 0.72207 0.0
C2588 C 0.32941 0.12446 0.75393 0.0
C2589 C 0.34065 0.13931 0.77488 0.0
N2590 N 0.36811 0.17461 0.78957 0.0
N2591 N 0.32091 0.12042 0.70728 0.0
C2592 C 0.35877 0.15952 0.76947 0.0
C2593 C 0.3344 0.13178 0.72748 0.0
N2594 N 0.38652 0.18143 0.73802 0.0
N2595 N 0.31386 0.10328 0.75915 0.0
H2596 H 0.32548 0.12364 0.68762 0.0
H2597 H 0.3043 0.10889 0.70981 0.0
H2598 H 0.30757 0.09815 0.77779 0.0
H2599 H 0.30821 0.08966 0.74507 0.0
H2600 H 0.39921 0.18843 0.75236 0.0
H2601 H 0.39173 0.18776 0.71939 0.0
H2602 H 0.37837 0.19201 0.78683 0.0
H2603 H 0.36423 0.17058 0.80923 0.0
C2604 C 0.85386 0.36599 0.7382 0.0
C2605 C 0.84497 0.34678 0.72008 0.0
C2606 C 0.84351 0.3144 0.75571 0.0
C2607 C 0.8481 0.33475 0.77432 0.0
N2608 N 0.85608 0.38031 0.78346 0.0
N2609 N 0.84577 0.30079 0.71019 0.0
C2610 C 0.85301 0.36063 0.76557 0.0
C2611 C 0.84376 0.32031 0.72841 0.0
N2612 N 0.86566 0.38823 0.72918 0.0
N2613 N 0.83889 0.28935 0.76402 0.0
H2614 H 0.84978 0.30469 0.69053 0.0
H2615 H 0.84737 0.281 0.71482 0.0
H2616 H 0.84042 0.28345 0.78348 0.0
H2617 H 0.83208 0.27453 0.75177 0.0
H2618 H 0.87422 0.40218 0.74136 0.0
H2619 H 0.8707 0.39055 0.70953 0.0
H2620 H 0.85683 0.40005 0.77834 0.0
H2621 H 0.85544 0.37709 0.80365 0.0
C2622 C 0.6382 0.85685 0.76865 0.0
C2623 C 0.66422 0.85161 0.77695 0.0
C2624 C 0.67872 0.85141 0.73112 0.0
C2625 C 0.65228 0.85165 0.72281 0.0
N2626 N 0.60929 0.86837 0.73258 0.0
N2627 N 0.70948 0.84277 0.76603 0.0
C2628 C 0.63255 0.85841 0.74127 0.0
C2629 C 0.68459 0.84875 0.75816 0.0
N2630 N 0.61882 0.85937 0.78694 0.0
N2631 N 0.69813 0.85558 0.71319 0.0
H2632 H 0.71496 0.84117 0.78562 0.0
H2633 H 0.72435 0.83757 0.75305 0.0
H2634 H 0.69394 0.8602 0.6937 0.0
H2635 H 0.71776 0.85801 0.7182 0.0
H2636 H 0.59899 0.86039 0.78232 0.0
H2637 H 0.62246 0.85852 0.80705 0.0
H2638 H 0.59454 0.87521 0.74487 0.0
H2639 H 0.60629 0.87328 0.71298 0.0
C2640 C 0.23124 0.18174 0.35235 0.0
C2641 C 0.22277 0.15534 0.35219 0.0
C2642 C 0.26863 0.14086 0.35636 0.0
C2643 C 0.27709 0.16697 0.35207 0.0
N2644 N 0.26627 0.21259 0.34471 0.0
N2645 N 0.23267 0.11203 0.36799 0.0
C2646 C 0.25834 0.18751 0.34974 0.0
C2647 C 0.24127 0.13537 0.35819 0.0
N2648 N 0.21354 0.20117 0.35739 0.0
N2649 N 0.28676 0.12121 0.35776 0.0
H2650 H 0.21318 0.10917 0.37336 0.0
H2651 H 0.24502 0.09714 0.37442 0.0
H2652 H 0.30687 0.12467 0.35648 0.0
H2653 H 0.28192 0.1014 0.358 0.0
H2654 H 0.21863 0.22075 0.35989 0.0
H2655 H 0.19427 0.19707 0.36285 0.0
H2656 H 0.25337 0.22758 0.33966 0.0
H2657 H 0.28582 0.21824 0.34374 0.0
C2658 C 0.86247 0.26367 0.36443 0.0
C2659 C 0.85279 0.28216 0.34599 0.0
C2660 C 0.84867 0.24705 0.31328 0.0
C2661 C 0.85392 0.22813 0.33315 0.0
N2662 N 0.8644 0.21821 0.37807 0.0
N2663 N 0.85025 0.29283 0.30029 0.0
C2664 C 0.86063 0.23642 0.35881 0.0
C2665 C 0.84971 0.27424 0.31955 0.0
N2666 N 0.87562 0.27214 0.38613 0.0
N2667 N 0.84253 0.2391 0.28843 0.0
H2668 H 0.85411 0.31248 0.3044 0.0
H2669 H 0.85041 0.28862 0.28034 0.0
H2670 H 0.84319 0.21964 0.28234 0.0
H2671 H 0.83539 0.25163 0.27401 0.0
H2672 H 0.88474 0.2596 0.39939 0.0
H2673 H 0.88106 0.29167 0.3886 0.0
H2674 H 0.86645 0.22306 0.39779 0.0
H2675 H 0.86308 0.19809 0.37466 0.0
C2676 C 0.74976 0.81278 0.35505 0.0
C2677 C 0.73062 0.83258 0.35938 0.0
C2678 C 0.76597 0.86465 0.36522 0.0
C2679 C 0.78437 0.84618 0.35531 0.0
N2680 N 0.795 0.80021 0.35139 0.0
N2681 N 0.72038 0.87776 0.36835 0.0
C2682 C 0.77661 0.81954 0.35341 0.0
C2683 C 0.73871 0.85862 0.3646 0.0
N2684 N 0.74315 0.787 0.35284 0.0
N2685 N 0.77461 0.88692 0.37726 0.0
H2686 H 0.70029 0.87397 0.36831 0.0
H2687 H 0.72502 0.8976 0.36933 0.0
H2688 H 0.79431 0.88987 0.38176 0.0
H2689 H 0.7622 0.90027 0.38643 0.0
H2690 H 0.72407 0.77979 0.35423 0.0
H2691 H 0.72407 0.77979 0.35423 0.0
H2692 H 0.79008 0.78048 0.34921 0.0
H2693 H 0.81492 0.80376 0.35427 0.0
C2694 C 0.13612 0.73799 0.36622 0.0
C2695 C 0.143 0.71967 0.34638 0.0
C2696 C 0.14659 0.75534 0.31449 0.0
C2697 C 0.14329 0.77399 0.33497 0.0
N2698 N 0.13505 0.78352 0.38041 0.0
N2699 N 0.13942 0.71063 0.30037 0.0
C2700 C 0.13774 0.76543 0.36085 0.0
C2701 C 0.14368 0.72826 0.32005 0.0
N2702 N 0.12588 0.7291 0.38928 0.0
N2703 N 0.15292 0.7633 0.28972 0.0
H2704 H 0.13388 0.69132 0.30422 0.0
H2705 H 0.13776 0.71579 0.28073 0.0
H2706 H 0.154 0.78286 0.28408 0.0
H2707 H 0.15883 0.75039 0.27505 0.0
H2708 H 0.11892 0.74124 0.4041 0.0
H2709 H 0.1209 0.70948 0.39198 0.0
H2710 H 0.13376 0.77871 0.40018 0.0
H2711 H 0.1361 0.80365 0.37701 0.0
C2712 C 0.27305 0.84726 0.68306 0.0
C2713 C 0.28189 0.85106 0.65702 0.0
C2714 C 0.23649 0.85868 0.64278 0.0
C2715 C 0.22733 0.85113 0.66792 0.0
N2716 N 0.23698 0.83871 0.7127 0.0
N2717 N 0.27309 0.87447 0.61702 0.0
C2718 C 0.24565 0.84562 0.68831 0.0
C2719 C 0.26392 0.86092 0.63817 0.0
N2720 N 0.2909 0.84771 0.703 0.0
N2721 N 0.21894 0.86284 0.62298 0.0
H2722 H 0.29274 0.87977 0.61526 0.0
H2723 H 0.261 0.88383 0.60351 0.0
H2724 H 0.19874 0.86113 0.6256 0.0
H2725 H 0.22444 0.86559 0.60353 0.0
H2726 H 0.28596 0.8474 0.72278 0.0
H2727 H 0.31062 0.852 0.6997 0.0
H2728 H 0.24914 0.8313 0.7273 0.0
H2729 H 0.21735 0.83905 0.71821 0.0
C2730 C 0.16168 0.22432 0.63499 0.0
C2731 C 0.14204 0.2193 0.65392 0.0
C2732 C 0.13591 0.26686 0.6608 0.0
C2733 C 0.1557 0.27186 0.64206 0.0
N2734 N 0.18671 0.25576 0.60981 0.0
N2735 N 0.10847 0.23559 0.68349 0.0
C2736 C 0.16823 0.25069 0.62858 0.0
C2737 C 0.12843 0.24051 0.66627 0.0
N2738 N 0.17455 0.20367 0.62367 0.0
N2739 N 0.12485 0.28743 0.67401 0.0
H2740 H 0.10407 0.21718 0.69094 0.0
H2741 H 0.09532 0.24971 0.69003 0.0
H2742 H 0.12836 0.30696 0.66913 0.0
H2743 H 0.11307 0.28551 0.69052 0.0
H2744 H 0.19145 0.20534 0.61245 0.0
H2745 H 0.16872 0.18425 0.62615 0.0
H2746 H 0.19392 0.24189 0.59675 0.0
H2747 H 0.19474 0.27415 0.60648 0.0
C2748 C 0.76744 0.16696 0.64735 0.0
C2749 C 0.77171 0.14743 0.66647 0.0
C2750 C 0.72411 0.14165 0.672 0.0
C2751 C 0.71982 0.16022 0.65184 0.0
N2752 N 0.7373 0.18897 0.61821 0.0
N2753 N 0.75482 0.1143 0.69577 0.0
C2754 C 0.74146 0.17231 0.63881 0.0
C2755 C 0.75022 0.13418 0.6784 0.0
N2756 N 0.78825 0.18099 0.63793 0.0
N2757 N 0.70317 0.13147 0.68527 0.0
H2758 H 0.77347 0.10916 0.70216 0.0
H2759 H 0.7404 0.1018 0.70289 0.0
H2760 H 0.68379 0.13512 0.67994 0.0
H2761 H 0.70476 0.12045 0.70235 0.0
H2762 H 0.78641 0.19786 0.62664 0.0
H2763 H 0.80764 0.1768 0.64284 0.0
H2764 H 0.75206 0.19535 0.60569 0.0
H2765 H 0.71894 0.19567 0.61251 0.0
C2766 C 0.86119 0.73713 0.63781 0.0
C2767 C 0.83574 0.72777 0.6438 0.0
C2768 C 0.82066 0.77304 0.65032 0.0
C2769 C 0.84691 0.78178 0.64908 0.0
N2770 N 0.88826 0.77477 0.62739 0.0
N2771 N 0.79074 0.73687 0.65596 0.0
C2772 C 0.86622 0.76461 0.63864 0.0
C2773 C 0.81527 0.74576 0.64994 0.0
N2774 N 0.88076 0.7197 0.63234 0.0
N2775 N 0.80083 0.79101 0.64965 0.0
H2776 H 0.78527 0.71728 0.65475 0.0
H2777 H 0.7761 0.74878 0.66371 0.0
H2778 H 0.80446 0.81095 0.64699 0.0
H2779 H 0.78111 0.78605 0.64802 0.0
H2780 H 0.90039 0.72498 0.63073 0.0
H2781 H 0.87763 0.69952 0.63143 0.0
H2782 H 0.90235 0.76351 0.61788 0.0
H2783 H 0.89046 0.7948 0.62404 0.0
C2784 C 0.33916 0.274 0.13095 0.0
C2785 C 0.35206 0.27962 0.15475 0.0
C2786 C 0.35496 0.23252 0.16475 0.0
C2787 C 0.34262 0.22676 0.14054 0.0
N2788 N 0.32919 0.24217 0.09743 0.0
N2789 N 0.37734 0.26436 0.19184 0.0
C2790 C 0.33679 0.24749 0.12258 0.0
C2791 C 0.36154 0.2589 0.17089 0.0
N2792 N 0.3285 0.29397 0.11663 0.0
N2793 N 0.3603 0.21273 0.18201 0.0
H2794 H 0.38219 0.2833 0.19753 0.0
H2795 H 0.38731 0.25013 0.20251 0.0
H2796 H 0.35827 0.19297 0.17722 0.0
H2797 H 0.3657 0.21586 0.20144 0.0
H2798 H 0.31588 0.29099 0.10087 0.0
H2799 H 0.33061 0.31364 0.12177 0.0
H2800 H 0.32796 0.25645 0.08291 0.0
H2801 H 0.32589 0.22346 0.09014 0.0
C2802 C 0.31781 0.74871 0.85415 0.0
C2803 C 0.33683 0.769 0.85589 0.0
C2804 C 0.3718 0.73591 0.85754 0.0
C2805 C 0.35297 0.71609 0.85204 0.0
N2806 N 0.30861 0.70243 0.8593 0.0
N2807 N 0.38189 0.78247 0.85853 0.0
C2808 C 0.32605 0.72217 0.85459 0.0
C2809 C 0.36384 0.76273 0.85767 0.0
N2810 N 0.29185 0.7547 0.85139 0.0
N2811 N 0.39657 0.72902 0.86492 0.0
H2812 H 0.3766 0.80222 0.85878 0.0
H2813 H 0.40199 0.77947 0.85685 0.0
H2814 H 0.40167 0.70975 0.8693 0.0
H2815 H 0.41083 0.74239 0.87066 0.0
H2816 H 0.27758 0.74084 0.84686 0.0
H2817 H 0.28458 0.77375 0.85189 0.0
H2818 H 0.28896 0.70554 0.86384 0.0
H2819 H 0.31471 0.6831 0.86206 0.0
C2820 C 0.25059 0.34792 0.81382 0.0
C2821 C 0.27012 0.35005 0.83361 0.0
C2822 C 0.23563 0.35234 0.86716 0.0
C2823 C 0.21651 0.34655 0.84768 0.0
N2824 N 0.20476 0.35317 0.80262 0.0
N2825 N 0.28172 0.35302 0.87918 0.0
C2826 C 0.2237 0.34848 0.82095 0.0
C2827 C 0.26274 0.35211 0.86031 0.0
N2828 N 0.25765 0.3449 0.78814 0.0
N2829 N 0.22784 0.36054 0.89141 0.0
H2830 H 0.30167 0.35293 0.87471 0.0
H2831 H 0.27783 0.35156 0.89915 0.0
H2832 H 0.20844 0.36532 0.89558 0.0
H2833 H 0.24073 0.36661 0.906 0.0
H2834 H 0.2444 0.34011 0.77338 0.0
H2835 H 0.27697 0.34536 0.78165 0.0
H2836 H 0.20873 0.35728 0.78303 0.0
H2837 H 0.18529 0.35657 0.80784 0.0
C2838 C 0.64798 0.26707 0.85943 0.0
C2839 C 0.63611 0.27171 0.8349 0.0
C2840 C 0.63135 0.22432 0.82816 0.0
C2841 C 0.64698 0.21957 0.85059 0.0
N2842 N 0.67425 0.23768 0.88538 0.0
N2843 N 0.62016 0.2548 0.79373 0.0
C2844 C 0.65613 0.24122 0.86595 0.0
C2845 C 0.6286 0.25035 0.81872 0.0
N2846 N 0.65159 0.28739 0.87648 0.0
N2847 N 0.61884 0.20399 0.81606 0.0
H2848 H 0.61843 0.27356 0.78588 0.0
H2849 H 0.61732 0.23989 0.7801 0.0
H2850 H 0.61996 0.18476 0.82293 0.0
H2851 H 0.60527 0.2066 0.80103 0.0
H2852 H 0.65754 0.28478 0.89584 0.0
H2853 H 0.64625 0.30662 0.87198 0.0
H2854 H 0.68367 0.25318 0.89475 0.0
H2855 H 0.68221 0.21968 0.89055 0.0
C2856 C 0.77294 0.64243 0.83834 0.0
C2857 C 0.77749 0.66135 0.85798 0.0
C2858 C 0.72989 0.66727 0.86392 0.0
C2859 C 0.7253 0.64699 0.84557 0.0
N2860 N 0.74261 0.61312 0.81691 0.0
N2861 N 0.76078 0.6898 0.89199 0.0
C2862 C 0.74687 0.63385 0.83336 0.0
C2863 C 0.75608 0.67319 0.87151 0.0
N2864 N 0.79353 0.63319 0.82386 0.0
N2865 N 0.7092 0.68107 0.87391 0.0
H2866 H 0.7795 0.6953 0.89776 0.0
H2867 H 0.74631 0.69683 0.90451 0.0
H2868 H 0.68973 0.67615 0.8702 0.0
H2869 H 0.71119 0.69831 0.88463 0.0
H2870 H 0.79138 0.62201 0.80694 0.0
H2871 H 0.81295 0.63826 0.82769 0.0
H2872 H 0.75736 0.60053 0.81059 0.0
H2873 H 0.72422 0.60742 0.81033 0.0
C2874 C 0.64731 0.77274 0.17013 0.0
C2875 C 0.66646 0.77685 0.15057 0.0
C2876 C 0.67331 0.72912 0.14676 0.0
C2877 C 0.65274 0.72496 0.16477 0.0
N2878 N 0.61785 0.7426 0.1917 0.0
N2879 N 0.69567 0.75893 0.11759 0.0
C2880 C 0.63905 0.74673 0.17588 0.0
C2881 C 0.67882 0.75503 0.13806 0.0
N2882 N 0.63721 0.79371 0.18342 0.0
N2883 N 0.68793 0.7083 0.1383 0.0
H2884 H 0.70175 0.77731 0.11133 0.0
H2885 H 0.70253 0.74393 0.10559 0.0
H2886 H 0.68368 0.68896 0.14334 0.0
H2887 H 0.70534 0.71023 0.12786 0.0
H2888 H 0.62558 0.79206 0.20009 0.0
H2889 H 0.64174 0.81307 0.17873 0.0
H2890 H 0.60515 0.75734 0.19778 0.0
H2891 H 0.61181 0.72413 0.19766 0.0
C2892 C 0.26895 0.6392 0.13882 0.0
C2893 C 0.28732 0.65867 0.14656 0.0
C2894 C 0.25271 0.69187 0.14392 0.0
C2895 C 0.23363 0.67167 0.14194 0.0
N2896 N 0.22332 0.6259 0.13708 0.0
N2897 N 0.29754 0.70494 0.1443 0.0
C2898 C 0.24168 0.64526 0.13893 0.0
C2899 C 0.27956 0.6853 0.14538 0.0
N2900 N 0.27767 0.61571 0.12948 0.0
N2901 N 0.24544 0.71764 0.14417 0.0
H2902 H 0.31767 0.70175 0.14255 0.0
H2903 H 0.31767 0.70175 0.14255 0.0
H2904 H 0.22605 0.72384 0.14266 0.0
H2905 H 0.259 0.73286 0.14579 0.0
H2906 H 0.26534 0.60133 0.12191 0.0
H2907 H 0.29744 0.61226 0.12562 0.0
H2908 H 0.22792 0.60603 0.1378 0.0
H2909 H 0.20324 0.62973 0.13687 0.0
C2910 C 0.75186 0.31915 0.14658 0.0
C2911 C 0.7714 0.33899 0.1452 0.0
C2912 C 0.73694 0.37249 0.14236 0.0
C2913 C 0.71783 0.35299 0.14788 0.0
N2914 N 0.7061 0.3081 0.14042 0.0
N2915 N 0.78299 0.38458 0.1422 0.0
C2916 C 0.725 0.32631 0.14561 0.0
C2917 C 0.76405 0.36569 0.1429 0.0
N2918 N 0.75886 0.29343 0.14935 0.0
N2919 N 0.7291 0.39678 0.13434 0.0
H2920 H 0.80296 0.38017 0.14247 0.0
H2921 H 0.77904 0.40454 0.14348 0.0
H2922 H 0.70963 0.40093 0.12979 0.0
H2923 H 0.74195 0.41144 0.12839 0.0
H2924 H 0.74553 0.27861 0.15365 0.0
H2925 H 0.77818 0.28692 0.14896 0.0
H2926 H 0.71009 0.28855 0.13612 0.0
H2927 H 0.68668 0.31345 0.13688 0.0
C2928 C 0.13247 0.23911 0.24752 0.0
C2929 C 0.12151 0.21348 0.2472 0.0
C2930 C 0.09389 0.22579 0.20965 0.0
C2931 C 0.10515 0.25095 0.21005 0.0
N2932 N 0.12676 0.28453 0.23504 0.0
N2933 N 0.08488 0.18626 0.2342 0.0
C2934 C 0.12129 0.25862 0.23126 0.0
C2935 C 0.09991 0.20802 0.23026 0.0
N2936 N 0.15489 0.24449 0.26115 0.0
N2937 N 0.07825 0.21862 0.18919 0.0
H2938 H 0.0878 0.17362 0.24997 0.0
H2939 H 0.06782 0.18244 0.22366 0.0
H2940 H 0.07277 0.23185 0.17457 0.0
H2941 H 0.07184 0.19947 0.18623 0.0
H2942 H 0.1648 0.26225 0.25956 0.0
H2943 H 0.16538 0.23064 0.27177 0.0
H2944 H 0.13688 0.29153 0.25135 0.0
H2945 H 0.11852 0.29912 0.22335 0.0
C2946 C 0.7925 0.14489 0.21726 0.0
C2947 C 0.80092 0.12278 0.2315 0.0
C2948 C 0.77691 0.09446 0.20077 0.0
C2949 C 0.76451 0.1169 0.18997 0.0
N2950 N 0.75677 0.164 0.19399 0.0
N2951 N 0.8007 0.07589 0.2375 0.0
C2952 C 0.77136 0.1423 0.19968 0.0
C2953 C 0.79312 0.0973 0.2234 0.0
N2954 N 0.80507 0.16841 0.21989 0.0
N2955 N 0.77408 0.07067 0.18885 0.0
H2956 H 0.81327 0.07714 0.25352 0.0
H2957 H 0.79319 0.05719 0.23435 0.0
H2958 H 0.76345 0.06826 0.17157 0.0
H2959 H 0.78446 0.05402 0.19443 0.0
H2960 H 0.80121 0.18436 0.20772 0.0
H2961 H 0.82139 0.17103 0.23189 0.0
H2962 H 0.75996 0.18211 0.20291 0.0
H2963 H 0.73958 0.16367 0.18328 0.0
C2964 C 0.86085 0.76045 0.21638 0.0
C2965 C 0.88335 0.76017 0.19987 0.0
C2966 C 0.89898 0.79998 0.22181 0.0
C2967 C 0.87471 0.80176 0.23557 0.0
N2968 N 0.82958 0.78772 0.23865 0.0
N2969 N 0.92248 0.7816 0.18461 0.0
C2970 C 0.85478 0.78319 0.23074 0.0
C2971 C 0.90216 0.78046 0.20197 0.0
N2972 N 0.84568 0.73861 0.21935 0.0
N2973 N 0.91921 0.81631 0.2281 0.0
H2974 H 0.92529 0.76762 0.16997 0.0
H2975 H 0.93527 0.79745 0.18339 0.0
H2976 H 0.91774 0.83092 0.24225 0.0
H2977 H 0.93811 0.81402 0.22075 0.0
H2978 H 0.8306 0.73741 0.23307 0.0
H2979 H 0.85013 0.72076 0.21066 0.0
H2980 H 0.81402 0.77565 0.23322 0.0
H2981 H 0.82363 0.80505 0.24768 0.0
C2982 C 0.21271 0.88815 0.19004 0.0
C2983 C 0.23714 0.89888 0.1969 0.0
C2984 C 0.22661 0.8946 0.24349 0.0
C2985 C 0.20335 0.88086 0.23673 0.0
N2986 N 0.17504 0.86268 0.20341 0.0
N2987 N 0.26149 0.9234 0.22884 0.0
C2988 C 0.19626 0.87766 0.20991 0.0
C2989 C 0.24225 0.90569 0.22327 0.0
N2990 N 0.20531 0.88871 0.16436 0.0
N2991 N 0.23446 0.89602 0.26903 0.0
H2992 H 0.27229 0.93274 0.21429 0.0
H2993 H 0.26474 0.93108 0.24745 0.0
H2994 H 0.22446 0.88688 0.2842 0.0
H2995 H 0.25218 0.9041 0.27503 0.0
H2996 H 0.18663 0.88381 0.15781 0.0
H2997 H 0.21749 0.89658 0.1499 0.0
H2998 H 0.16995 0.85798 0.18426 0.0
H2999 H 0.16373 0.85288 0.21729 0.0
C3000 C 0.1382 0.74991 0.78485 0.0
C3001 C 0.11629 0.74965 0.80208 0.0
C3002 C 0.09993 0.78905 0.78002 0.0
C3003 C 0.12427 0.79132 0.76638 0.0
N3004 N 0.16964 0.77767 0.7638 0.0
N3005 N 0.07708 0.7707 0.81766 0.0
C3006 C 0.14431 0.77286 0.77106 0.0
C3007 C 0.0972 0.76967 0.80009 0.0
N3008 N 0.15292 0.72797 0.78093 0.0
N3009 N 0.07926 0.80466 0.77335 0.0
H3010 H 0.07457 0.75668 0.83231 0.0
H3011 H 0.06409 0.78641 0.81883 0.0
H3012 H 0.08022 0.81858 0.75847 0.0
H3013 H 0.0605 0.80212 0.78095 0.0
H3014 H 0.16779 0.72695 0.76694 0.0
H3015 H 0.14792 0.71003 0.78904 0.0
H3016 H 0.18504 0.76525 0.76893 0.0
H3017 H 0.17585 0.79545 0.75592 0.0
C3018 C 0.20493 0.0911 0.76695 0.0
C3019 C 0.20253 0.11605 0.75447 0.0
C3020 C 0.24234 0.13018 0.77601 0.0
C3021 C 0.24217 0.10762 0.79232 0.0
N3022 N 0.22195 0.06683 0.80437 0.0
N3023 N 0.21507 0.16186 0.75468 0.0
C3024 C 0.22315 0.08794 0.78803 0.0
C3025 C 0.22015 0.13632 0.76103 0.0
N3026 N 0.19045 0.07037 0.7583 0.0
N3027 N 0.26398 0.14568 0.77438 0.0
H3028 H 0.19762 0.16808 0.7461 0.0
H3029 H 0.22674 0.1773 0.76125 0.0
H3030 H 0.28135 0.14058 0.78353 0.0
H3031 H 0.26557 0.16122 0.7612 0.0
H3032 H 0.19305 0.05131 0.76511 0.0
H3033 H 0.17759 0.07181 0.74255 0.0
H3034 H 0.20679 0.05319 0.80386 0.0
H3035 H 0.23529 0.064 0.8196 0.0
C3036 C 0.88891 0.22856 0.76059 0.0
C3037 C 0.8781 0.20399 0.76783 0.0
C3038 C 0.88332 0.21531 0.81429 0.0
C3039 C 0.89071 0.24094 0.80706 0.0
N3040 N 0.89935 0.27299 0.77325 0.0
N3041 N 0.861 0.17551 0.8016 0.0
C3042 C 0.89372 0.24772 0.7802 0.0
C3043 C 0.87451 0.1976 0.79473 0.0
N3044 N 0.89485 0.23359 0.73501 0.0
N3045 N 0.88442 0.20819 0.84007 0.0
H3046 H 0.85286 0.1627 0.78792 0.0
H3047 H 0.85547 0.17122 0.82076 0.0
H3048 H 0.89091 0.22109 0.85458 0.0
H3049 H 0.88148 0.1891 0.84662 0.0
H3050 H 0.90609 0.24949 0.72893 0.0
H3051 H 0.88976 0.22106 0.71985 0.0
H3052 H 0.89765 0.2801 0.75421 0.0
H3053 H 0.90448 0.28746 0.78665 0.0
C3054 C 0.7854 0.86675 0.81905 0.0
C3055 C 0.7615 0.87946 0.81316 0.0
C3056 C 0.77405 0.88178 0.76664 0.0
C3057 C 0.79703 0.86704 0.77222 0.0
N3058 N 0.82212 0.84128 0.80297 0.0
N3059 N 0.73172 0.89757 0.78105 0.0
C3060 C 0.80217 0.85858 0.7983 0.0
C3061 C 0.75567 0.88703 0.78695 0.0
N3062 N 0.79196 0.86255 0.84467 0.0
N3063 N 0.76973 0.89101 0.74192 0.0
H3064 H 0.71798 0.90302 0.79508 0.0
H3065 H 0.72461 0.89965 0.76205 0.0
H3066 H 0.78035 0.88474 0.7258 0.0
H3067 H 0.75607 0.90548 0.73744 0.0
H3068 H 0.81014 0.85555 0.85069 0.0
H3069 H 0.77993 0.86851 0.86011 0.0
H3070 H 0.82532 0.83232 0.82101 0.0
H3071 H 0.83398 0.83369 0.78816 0.0
C3072 C 0.21464 0.13278 0.20209 0.0
C3073 C 0.23922 0.14238 0.21103 0.0
C3074 C 0.22974 0.1254 0.25485 0.0
C3075 C 0.20341 0.12106 0.24708 0.0
N3076 N 0.17029 0.12023 0.2137 0.0
N3077 N 0.27045 0.14823 0.24604 0.0
C3078 C 0.1958 0.12428 0.22068 0.0
C3079 C 0.24715 0.13829 0.23734 0.0
N3080 N 0.20961 0.13117 0.17582 0.0
N3081 N 0.23774 0.11787 0.27928 0.0
H3082 H 0.28362 0.158 0.23387 0.0
H3083 H 0.27598 0.14852 0.26567 0.0
H3084 H 0.22526 0.10859 0.29252 0.0
H3085 H 0.25714 0.11854 0.28553 0.0
H3086 H 0.19292 0.12232 0.16813 0.0
H3087 H 0.22339 0.13621 0.16159 0.0
H3088 H 0.16264 0.12544 0.19552 0.0
H3089 H 0.1565 0.11264 0.22677 0.0
C3090 C 0.88692 0.24202 0.22708 0.0
C3091 C 0.87423 0.23533 0.2032 0.0
C3092 C 0.88029 0.18857 0.21317 0.0
C3093 C 0.8904 0.19519 0.23806 0.0
N3094 N 0.90229 0.22821 0.26981 0.0
N3095 N 0.85427 0.20221 0.17598 0.0
C3096 C 0.89396 0.22192 0.24511 0.0
C3097 C 0.86994 0.20855 0.19676 0.0
N3098 N 0.8924 0.26759 0.23262 0.0
N3099 N 0.88031 0.16291 0.20554 0.0
H3100 H 0.84486 0.21625 0.1645 0.0
H3101 H 0.84823 0.18319 0.17185 0.0
H3102 H 0.88784 0.14809 0.21746 0.0
H3103 H 0.87533 0.15672 0.18674 0.0
H3104 H 0.90511 0.27352 0.24743 0.0
H3105 H 0.88486 0.28304 0.22181 0.0
H3106 H 0.90127 0.24699 0.2777 0.0
H3107 H 0.90923 0.21444 0.28314 0.0
C3108 C 0.78629 0.89719 0.20636 0.0
C3109 C 0.76717 0.87725 0.21052 0.0
C3110 C 0.77503 0.88061 0.25763 0.0
C3111 C 0.79823 0.89485 0.25252 0.0
N3112 N 0.82609 0.91775 0.22247 0.0
N3113 N 0.74511 0.84812 0.24097 0.0
C3114 C 0.80372 0.90385 0.22703 0.0
C3115 C 0.76146 0.86885 0.23646 0.0
N3116 N 0.78744 0.91006 0.18292 0.0
N3117 N 0.76688 0.8773 0.2829 0.0
H3118 H 0.73601 0.83744 0.22619 0.0
H3119 H 0.74267 0.8397 0.2594 0.0
H3120 H 0.77683 0.8857 0.29868 0.0
H3121 H 0.74901 0.86875 0.28785 0.0
H3122 H 0.79966 0.92604 0.17959 0.0
H3123 H 0.77414 0.90661 0.1678 0.0
H3124 H 0.83284 0.92224 0.20374 0.0
H3125 H 0.8384 0.92373 0.23768 0.0
C3126 C 0.10627 0.78102 0.24597 0.0
C3127 C 0.10799 0.80782 0.23919 0.0
C3128 C 0.12608 0.79617 0.19635 0.0
C3129 C 0.12606 0.7692 0.20374 0.0
N3130 N 0.11571 0.73648 0.23692 0.0
N3131 N 0.11244 0.84088 0.20647 0.0
C3132 C 0.11587 0.76176 0.22859 0.0
C3133 C 0.11547 0.8153 0.21371 0.0
N3134 N 0.09633 0.77374 0.26975 0.0
N3135 N 0.13815 0.80367 0.17366 0.0
H3136 H 0.10462 0.8548 0.21929 0.0
H3137 H 0.11543 0.84787 0.18757 0.0
H3138 H 0.14849 0.79063 0.16185 0.0
H3139 H 0.13998 0.823 0.16758 0.0
H3140 H 0.09525 0.75422 0.27576 0.0
H3141 H 0.08845 0.7871 0.28303 0.0
H3142 H 0.12364 0.72084 0.22651 0.0
H3143 H 0.12364 0.72084 0.22651 0.0
C3144 C 0.21932 0.89034 0.75612 0.0
C3145 C 0.19238 0.88755 0.76257 0.0
C3146 C 0.20412 0.86737 0.80443 0.0
C3147 C 0.23117 0.8706 0.79849 0.0
N3148 N 0.26461 0.88763 0.76963 0.0
N3149 N 0.15913 0.87943 0.79459 0.0
C3150 C 0.23879 0.8829 0.77466 0.0
C3151 C 0.18489 0.87825 0.78749 0.0
N3152 N 0.22635 0.89834 0.73152 0.0
N3153 N 0.19675 0.85212 0.82518 0.0
H3154 H 0.14489 0.88737 0.78221 0.0
H3155 H 0.15238 0.87508 0.81334 0.0
H3156 H 0.21017 0.84207 0.83683 0.0
H3157 H 0.17741 0.84704 0.82911 0.0
H3158 H 0.24526 0.89679 0.72404 0.0
H3159 H 0.21304 0.90562 0.71791 0.0
H3160 H 0.27119 0.90007 0.75488 0.0
H3161 H 0.27966 0.87976 0.78076 0.0
C3162 C 0.13659 0.21284 0.7541 0.0
C3163 C 0.11449 0.19581 0.7545 0.0
C3164 C 0.09932 0.21833 0.79417 0.0
C3165 C 0.1238 0.23175 0.79576 0.0
N3166 N 0.16873 0.23432 0.78081 0.0
N3167 N 0.07575 0.18071 0.7768 0.0
C3168 C 0.14331 0.22688 0.77679 0.0
C3169 C 0.09595 0.19812 0.77503 0.0
N3170 N 0.15081 0.21647 0.73176 0.0
N3171 N 0.0791 0.22535 0.81022 0.0
H3172 H 0.07281 0.16582 0.76313 0.0
H3173 H 0.06319 0.17984 0.79287 0.0
H3174 H 0.08057 0.24036 0.82396 0.0
H3175 H 0.0602 0.21794 0.80819 0.0
H3176 H 0.16573 0.23035 0.7303 0.0
H3177 H 0.14546 0.20826 0.71394 0.0
H3178 H 0.18384 0.22895 0.76814 0.0
H3179 H 0.17532 0.24272 0.79823 0.0
C3180 C 0.78696 0.14119 0.76779 0.0
C3181 C 0.79832 0.11615 0.76224 0.0
C3182 C 0.76399 0.09549 0.78884 0.0
C3183 C 0.75435 0.12066 0.79589 0.0
N3184 N 0.76297 0.1671 0.79908 0.0
N3185 N 0.80072 0.07013 0.77238 0.0
C3186 C 0.76772 0.14338 0.78752 0.0
C3187 C 0.78767 0.09343 0.77416 0.0
N3188 N 0.79307 0.16293 0.75343 0.0
N3189 N 0.75032 0.07359 0.79572 0.0
H3190 H 0.81868 0.0683 0.76282 0.0
H3191 H 0.79521 0.05337 0.78263 0.0
H3192 H 0.7332 0.07442 0.80672 0.0
H3193 H 0.75479 0.05492 0.78882 0.0
H3194 H 0.78281 0.18052 0.75511 0.0
H3195 H 0.80609 0.16312 0.73793 0.0
H3196 H 0.77452 0.18359 0.79559 0.0
H3197 H 0.74964 0.16974 0.8143 0.0
C3198 C 0.89777 0.80194 0.78008 0.0
C3199 C 0.89449 0.79502 0.75357 0.0
C3200 C 0.87232 0.7544 0.76583 0.0
C3201 C 0.8737 0.76233 0.79244 0.0
N3202 N 0.89626 0.78777 0.82535 0.0
N3203 N 0.88757 0.76152 0.72129 0.0
C3204 C 0.88934 0.7842 0.79974 0.0
C3205 C 0.88521 0.76984 0.74662 0.0
N3206 N 0.90752 0.82604 0.78628 0.0
N3207 N 0.85708 0.73361 0.75863 0.0
H3208 H 0.89672 0.77293 0.70699 0.0
H3209 H 0.88287 0.74266 0.71512 0.0
H3210 H 0.84692 0.72204 0.77201 0.0
H3211 H 0.853 0.72885 0.73922 0.0
H3212 H 0.90745 0.8337 0.8052 0.0
H3213 H 0.91481 0.83871 0.77195 0.0
H3214 H 0.90921 0.80227 0.83154 0.0
H3215 H 0.89115 0.77449 0.84003 0.0
C3216 C 0.2257 0.23284 0.13497 0.0
C3217 C 0.20007 0.22872 0.12517 0.0
C3218 C 0.21658 0.19217 0.09831 0.0
C3219 C 0.24219 0.19758 0.10715 0.0
N3220 N 0.27185 0.22869 0.12641 0.0
N3221 N 0.1728 0.20916 0.09153 0.0
C3222 C 0.2469 0.22007 0.12269 0.0
C3223 C 0.19592 0.20978 0.10496 0.0
N3224 N 0.22984 0.24708 0.1573 0.0
N3225 N 0.21193 0.17001 0.0841 0.0
H3226 H 0.15776 0.22259 0.0947 0.0
H3227 H 0.1697 0.19716 0.07531 0.0
H3228 H 0.22707 0.15767 0.07801 0.0
H3229 H 0.19316 0.16342 0.07956 0.0
H3230 H 0.24811 0.2484 0.16633 0.0
H3231 H 0.21477 0.25472 0.16873 0.0
H3232 H 0.27635 0.24614 0.13602 0.0
H3233 H 0.28751 0.21982 0.11697 0.0
C3234 C 0.21305 0.80118 0.88755 0.0
C3235 C 0.23862 0.79518 0.8961 0.0
C3236 C 0.22815 0.74818 0.89458 0.0
C3237 C 0.20396 0.75424 0.88221 0.0
N3238 N 0.17517 0.78671 0.86312 0.0
N3239 N 0.27131 0.7629 0.90763 0.0
C3240 C 0.1967 0.78083 0.87796 0.0
C3241 C 0.24623 0.76866 0.90012 0.0
N3242 N 0.20464 0.82656 0.8884 0.0
N3243 N 0.23379 0.72292 0.90132 0.0
H3244 H 0.2849 0.77703 0.91317 0.0
H3245 H 0.27924 0.74412 0.90712 0.0
H3246 H 0.22206 0.70718 0.89599 0.0
H3247 H 0.24928 0.71764 0.91349 0.0
H3248 H 0.18537 0.83215 0.88467 0.0
H3249 H 0.21654 0.84166 0.8954 0.0
H3250 H 0.17037 0.80567 0.85734 0.0
H3251 H 0.16355 0.77251 0.85417 0.0
C3252 C 0.24299 0.23379 0.86811 0.0
C3253 C 0.23573 0.20707 0.86588 0.0
C3254 C 0.19422 0.21591 0.8884 0.0
C3255 C 0.20069 0.24275 0.88898 0.0
N3256 N 0.2337 0.27627 0.88756 0.0
N3257 N 0.20949 0.17136 0.88238 0.0
C3258 C 0.22618 0.2512 0.88193 0.0
C3259 C 0.21294 0.19767 0.87887 0.0
N3260 N 0.26476 0.24289 0.85547 0.0
N3261 N 0.16969 0.20816 0.8957 0.0
H3262 H 0.22342 0.15758 0.87651 0.0
H3263 H 0.1943 0.16344 0.89344 0.0
H3264 H 0.15622 0.22121 0.90389 0.0
H3265 H 0.16249 0.18931 0.8927 0.0
H3266 H 0.26941 0.26268 0.85388 0.0
H3267 H 0.27744 0.23078 0.845 0.0
H3268 H 0.25261 0.28331 0.88468 0.0
H3269 H 0.22147 0.28929 0.89752 0.0
C3270 C 0.76946 0.1982 0.89985 0.0
C3271 C 0.74873 0.19752 0.88141 0.0
C3272 C 0.77139 0.22989 0.85438 0.0
C3273 C 0.79073 0.23299 0.87395 0.0
N3274 N 0.80527 0.22352 0.91811 0.0
N3275 N 0.72613 0.22053 0.84644 0.0
C3276 C 0.78898 0.21814 0.89758 0.0
C3277 C 0.74847 0.21585 0.86039 0.0
N3278 N 0.77111 0.17946 0.91885 0.0
N3279 N 0.77535 0.23884 0.82944 0.0
H3280 H 0.70824 0.212 0.8511 0.0
H3281 H 0.72475 0.23535 0.83243 0.0
H3282 H 0.79288 0.24721 0.82318 0.0
H3283 H 0.76242 0.23477 0.81414 0.0
H3284 H 0.78731 0.17742 0.93111 0.0
H3285 H 0.75722 0.16465 0.92098 0.0
H3286 H 0.80315 0.21501 0.93654 0.0
H3287 H 0.8193 0.23832 0.91754 0.0
C3288 C 0.75512 0.76201 0.87357 0.0
C3289 C 0.75177 0.78409 0.88964 0.0
C3290 C 0.79244 0.77214 0.91288 0.0
C3291 C 0.79887 0.75523 0.89175 0.0
N3292 N 0.78662 0.738 0.84885 0.0
N3293 N 0.76297 0.80549 0.93021 0.0
C3294 C 0.78031 0.75118 0.87123 0.0
C3295 C 0.76916 0.78775 0.91119 0.0
N3296 N 0.73424 0.75075 0.86126 0.0
N3297 N 0.80849 0.77322 0.93429 0.0
H3298 H 0.74425 0.81358 0.93173 0.0
H3299 H 0.77588 0.81166 0.94472 0.0
H3300 H 0.82597 0.76266 0.93544 0.0
H3301 H 0.80412 0.78353 0.95131 0.0
H3302 H 0.73581 0.73337 0.85061 0.0
H3303 H 0.71501 0.75644 0.86522 0.0
H3304 H 0.77377 0.73638 0.83305 0.0
H3305 H 0.80545 0.73198 0.84436 0.0
C3306 C 0.78706 0.76636 0.13908 0.0
C3307 C 0.80172 0.75797 0.11723 0.0
C3308 C 0.77898 0.79072 0.08992 0.0
C3309 C 0.76223 0.7964 0.11135 0.0
N3310 N 0.74503 0.78106 0.15301 0.0
N3311 N 0.80975 0.75986 0.0706 0.0
C3312 C 0.76462 0.78156 0.13486 0.0
C3313 C 0.79718 0.76947 0.09217 0.0
N3314 N 0.79511 0.76116 0.16412 0.0
N3315 N 0.77819 0.80598 0.06798 0.0
H3316 H 0.82312 0.74446 0.0716 0.0
H3317 H 0.8054 0.76576 0.05156 0.0
H3318 H 0.76511 0.82154 0.0659 0.0
H3319 H 0.7917 0.80441 0.05278 0.0
H3320 H 0.7858 0.76911 0.1805 0.0
H3321 H 0.8128 0.75198 0.16856 0.0
H3322 H 0.74533 0.76872 0.1693 0.0
H3323 H 0.72715 0.79009 0.14991 0.0
C3324 C 0.18701 0.79191 0.11187 0.0
C3325 C 0.19504 0.76734 0.10223 0.0
C3326 C 0.24049 0.78259 0.10179 0.0
C3327 C 0.23306 0.80444 0.11727 0.0
N3328 N 0.19879 0.82935 0.13831 0.0
N3329 N 0.22971 0.73892 0.08699 0.0
C3330 C 0.20609 0.8093 0.1222 0.0
C3331 C 0.22182 0.76275 0.09632 0.0
N3332 N 0.16102 0.79812 0.11165 0.0
N3333 N 0.26512 0.7812 0.09165 0.0
H3334 H 0.21671 0.72424 0.08142 0.0
H3335 H 0.24929 0.73324 0.08598 0.0
H3336 H 0.27862 0.79607 0.09453 0.0
H3337 H 0.27104 0.76708 0.07816 0.0
H3338 H 0.15388 0.81666 0.1163 0.0
H3339 H 0.14699 0.78517 0.10427 0.0
H3340 H 0.17953 0.83273 0.14399 0.0
H3341 H 0.21232 0.84113 0.14799 0.0
C3342 C 0.79227 0.19914 0.11775 0.0
C3343 C 0.7654 0.20532 0.11356 0.0
C3344 C 0.77758 0.24938 0.09877 0.0
C3345 C 0.80437 0.2431 0.10312 0.0
N3346 N 0.83776 0.21086 0.10991 0.0
N3347 N 0.73272 0.23441 0.09573 0.0
C3348 C 0.81182 0.21744 0.11022 0.0
C3349 C 0.75815 0.22984 0.10265 0.0
N3350 N 0.79902 0.17654 0.13049 0.0
N3351 N 0.7705 0.2745 0.09262 0.0
H3352 H 0.71772 0.22134 0.09982 0.0
H3353 H 0.72668 0.25034 0.08452 0.0
H3354 H 0.7839 0.28922 0.08831 0.0
H3355 H 0.75127 0.28128 0.09306 0.0
H3356 H 0.81807 0.172 0.13611 0.0
H3357 H 0.78531 0.16319 0.1376 0.0
H3358 H 0.84465 0.19187 0.11269 0.0
H3359 H 0.85223 0.22421 0.10438 0.0
C3360 C 0.59858 0.72449 0.70725 0.0
C3361 C 0.61124 0.74884 0.71002 0.0
C3362 C 0.63624 0.73274 0.7474 0.0
C3363 C 0.62348 0.7081 0.74512 0.0
N3364 N 0.58591 0.68417 0.72858 0.0
N3365 N 0.63331 0.77917 0.73865 0.0
C3366 C 0.60247 0.7051 0.72686 0.0
C3367 C 0.62687 0.75397 0.73234 0.0
N3368 N 0.58378 0.71951 0.68554 0.0
N3369 N 0.65866 0.73564 0.76178 0.0
H3370 H 0.6261 0.79513 0.7281 0.0
H3371 H 0.64307 0.78417 0.75588 0.0
H3372 H 0.66819 0.72035 0.77127 0.0
H3373 H 0.66966 0.75284 0.76167 0.0
H3374 H 0.57657 0.70096 0.681 0.0
H3375 H 0.58002 0.73373 0.67135 0.0
H3376 H 0.56919 0.68224 0.71704 0.0
H3377 H 0.58718 0.67028 0.74349 0.0
C3378 C 0.28278 0.64757 0.72969 0.0
C3379 C 0.30277 0.62877 0.73307 0.0
C3380 C 0.28265 0.60177 0.69845 0.0
C3381 C 0.26118 0.61936 0.69763 0.0
N3382 N 0.23717 0.65333 0.7208 0.0
N3383 N 0.31884 0.585 0.72428 0.0
C3384 C 0.26009 0.64046 0.71586 0.0
C3385 C 0.30196 0.60493 0.71847 0.0
N3386 N 0.28575 0.67272 0.73842 0.0
N3387 N 0.28511 0.58272 0.67984 0.0
H3388 H 0.3326 0.58617 0.7393 0.0
H3389 H 0.31742 0.56644 0.71591 0.0
H3390 H 0.2714 0.58001 0.66495 0.0
H3391 H 0.30177 0.57107 0.67801 0.0
H3392 H 0.2722 0.68744 0.73424 0.0
H3393 H 0.30307 0.67971 0.74669 0.0
H3394 H 0.23535 0.66737 0.73555 0.0
H3395 H 0.2194 0.64761 0.71272 0.0
C3396 C 0.39958 0.27269 0.69726 0.0
C3397 C 0.38164 0.25155 0.69649 0.0
C3398 C 0.35256 0.27481 0.72661 0.0
C3399 C 0.37152 0.29462 0.73003 0.0
N3400 N 0.41558 0.31015 0.72179 0.0
N3401 N 0.34607 0.22915 0.71872 0.0
C3402 C 0.39584 0.29298 0.71628 0.0
C3403 C 0.35981 0.25154 0.71388 0.0
N3404 N 0.41948 0.27394 0.67946 0.0
N3405 N 0.32708 0.27859 0.73397 0.0
H3406 H 0.35147 0.21115 0.71098 0.0
H3407 H 0.33142 0.22801 0.73294 0.0
H3408 H 0.32001 0.29635 0.74118 0.0
H3409 H 0.31229 0.26519 0.72957 0.0
H3410 H 0.43148 0.2903 0.6773 0.0
H3411 H 0.42275 0.25932 0.66557 0.0
H3412 H 0.43443 0.30824 0.71421 0.0
H3413 H 0.41386 0.32496 0.73573 0.0
C3414 C 0.71449 0.38421 0.6889 0.0
C3415 C 0.74026 0.38918 0.69758 0.0
C3416 C 0.72652 0.38147 0.74311 0.0
C3417 C 0.70141 0.37349 0.73403 0.0
N3418 N 0.67356 0.36206 0.69752 0.0
N3419 N 0.772 0.38996 0.73268 0.0
C3420 C 0.69583 0.37373 0.7067 0.0
C3421 C 0.74652 0.38753 0.72467 0.0
N3422 N 0.70807 0.38919 0.66339 0.0
N3423 N 0.73134 0.38356 0.76934 0.0
H3424 H 0.78717 0.39551 0.72022 0.0
H3425 H 0.77845 0.38501 0.75139 0.0
H3426 H 0.71829 0.37721 0.78356 0.0
H3427 H 0.74778 0.39286 0.77703 0.0
H3428 H 0.689 0.38823 0.65621 0.0
H3429 H 0.72161 0.39685 0.6501 0.0
H3430 H 0.66958 0.3594 0.67768 0.0
H3431 H 0.66046 0.35226 0.7097 0.0
C3432 C 0.60058 0.27643 0.2954 0.0
C3433 C 0.62032 0.25709 0.29765 0.0
C3434 C 0.64775 0.28074 0.26646 0.0
C3435 C 0.62725 0.29875 0.26189 0.0
N3436 N 0.58207 0.3113 0.26885 0.0
N3437 N 0.65802 0.23641 0.27762 0.0
C3438 C 0.60296 0.29594 0.27544 0.0
C3439 C 0.64235 0.25784 0.28067 0.0
N3440 N 0.58016 0.27665 0.31266 0.0
N3441 N 0.67287 0.28606 0.25881 0.0
H3442 H 0.65381 0.21865 0.28652 0.0
H3443 H 0.67298 0.23546 0.26374 0.0
H3444 H 0.67852 0.3038 0.25042 0.0
H3445 H 0.68868 0.2742 0.26398 0.0
H3446 H 0.56658 0.29185 0.31373 0.0
H3447 H 0.57789 0.26238 0.3271 0.0
H3448 H 0.5633 0.30842 0.27631 0.0
H3449 H 0.58296 0.3255 0.25424 0.0
C3450 C 0.73943 0.59385 0.28104 0.0
C3451 C 0.73403 0.59759 0.30785 0.0
C3452 C 0.69466 0.6219 0.29589 0.0
C3453 C 0.70558 0.6261 0.27055 0.0
N3454 N 0.73809 0.6139 0.23812 0.0
N3455 N 0.70376 0.61047 0.34118 0.0
C3456 C 0.72751 0.61089 0.26251 0.0
C3457 C 0.71018 0.6094 0.31526 0.0
N3458 N 0.7567 0.57489 0.27368 0.0
N3459 N 0.66953 0.62937 0.30121 0.0
H3460 H 0.7149 0.60064 0.35527 0.0
H3461 H 0.68846 0.6218 0.34856 0.0
H3462 H 0.65708 0.637 0.28691 0.0
H3463 H 0.66016 0.62527 0.31887 0.0
H3464 H 0.76028 0.57002 0.25417 0.0
H3465 H 0.76518 0.56232 0.28741 0.0
H3466 H 0.75538 0.60477 0.2323 0.0
H3467 H 0.73081 0.62701 0.22429 0.0
C3468 C 0.38684 0.71228 0.31549 0.0
C3469 C 0.39954 0.73594 0.30898 0.0
C3470 C 0.39637 0.72539 0.26233 0.0
C3471 C 0.38123 0.70282 0.26854 0.0
N3472 N 0.36008 0.67575 0.30116 0.0
N3473 N 0.42694 0.75827 0.278 0.0
C3474 C 0.37644 0.69614 0.29524 0.0
C3475 C 0.40775 0.74033 0.28293 0.0
N3476 N 0.38491 0.7056 0.34132 0.0
N3477 N 0.39884 0.73344 0.23695 0.0
H3478 H 0.43676 0.76807 0.29298 0.0
H3479 H 0.43536 0.76095 0.25961 0.0
H3480 H 0.39006 0.72379 0.22135 0.0
H3481 H 0.40727 0.75123 0.23161 0.0
H3482 H 0.37771 0.68778 0.34807 0.0
H3483 H 0.39291 0.71744 0.356 0.0
H3484 H 0.35392 0.6712 0.32004 0.0
H3485 H 0.35063 0.66453 0.28694 0.0
C3486 C 0.2869 0.38567 0.304 0.0
C3487 C 0.26094 0.3934 0.29875 0.0
C3488 C 0.27093 0.39593 0.25177 0.0
C3489 C 0.29562 0.38426 0.25674 0.0
N3490 N 0.32557 0.36404 0.28754 0.0
N3491 N 0.22714 0.40464 0.26744 0.0
C3492 C 0.3034 0.37835 0.2829 0.0
C3493 C 0.25273 0.39864 0.27262 0.0
N3494 N 0.29558 0.38516 0.32931 0.0
N3495 N 0.26497 0.40488 0.22725 0.0
H3496 H 0.21335 0.40847 0.28195 0.0
H3497 H 0.21916 0.40452 0.24866 0.0
H3498 H 0.27738 0.40251 0.21128 0.0
H3499 H 0.24864 0.4164 0.22315 0.0
H3500 H 0.31508 0.38196 0.33441 0.0
H3501 H 0.28357 0.39047 0.345 0.0
H3502 H 0.33063 0.35688 0.30596 0.0
H3503 H 0.33758 0.35689 0.27267 0.0
C3504 C 0.70799 0.59597 0.72708 0.0
C3505 C 0.70463 0.61522 0.74675 0.0
C3506 C 0.73446 0.64461 0.72369 0.0
C3507 C 0.74018 0.62469 0.70536 0.0
N3508 N 0.73599 0.57925 0.6925 0.0
N3509 N 0.72301 0.65338 0.76825 0.0
C3510 C 0.72799 0.59964 0.70784 0.0
C3511 C 0.72059 0.63805 0.74649 0.0
N3512 N 0.69173 0.57477 0.72624 0.0
N3513 N 0.74064 0.67022 0.71879 0.0
H3514 H 0.71441 0.64845 0.78598 0.0
H3515 H 0.73622 0.66892 0.76945 0.0
H3516 H 0.74854 0.67667 0.7011 0.0
H3517 H 0.73465 0.68548 0.73099 0.0
H3518 H 0.69149 0.56151 0.71073 0.0
H3519 H 0.6772 0.57153 0.74024 0.0
H3520 H 0.72951 0.56009 0.69511 0.0
H3521 H 0.75096 0.58104 0.67878 0.0
C3522 C 0.38585 0.72809 0.75644 0.0
C3523 C 0.39705 0.704 0.74846 0.0
C3524 C 0.3912 0.71677 0.70271 0.0
C3525 C 0.37439 0.73758 0.71084 0.0
N3526 N 0.35754 0.7638 0.74719 0.0
N3527 N 0.4116 0.67532 0.71429 0.0
C3528 C 0.37271 0.7439 0.73794 0.0
C3529 C 0.40058 0.69855 0.72162 0.0
N3530 N 0.38569 0.7348 0.78236 0.0
N3531 N 0.39877 0.7149 0.6771 0.0
H3532 H 0.41958 0.66237 0.72799 0.0
H3533 H 0.4118 0.66854 0.69504 0.0
H3534 H 0.39349 0.72874 0.66301 0.0
H3535 H 0.41257 0.70141 0.67046 0.0
H3536 H 0.37691 0.75195 0.78927 0.0
H3537 H 0.39541 0.72369 0.79652 0.0
H3538 H 0.34584 0.77588 0.73562 0.0
H3539 H 0.34584 0.77588 0.73562 0.0
C3540 C 0.27077 0.39502 0.74322 0.0
C3541 C 0.29755 0.39102 0.73648 0.0
C3542 C 0.28447 0.37202 0.69449 0.0
C3543 C 0.2577 0.37675 0.70065 0.0
N3544 N 0.22553 0.39663 0.72905 0.0
N3545 N 0.32997 0.38226 0.70368 0.0
C3546 C 0.2509 0.38951 0.72443 0.0
C3547 C 0.30432 0.38187 0.71128 0.0
N3548 N 0.26409 0.40232 0.76813 0.0
N3549 N 0.29097 0.35644 0.67366 0.0
H3550 H 0.34474 0.38954 0.71583 0.0
H3551 H 0.33613 0.37799 0.68469 0.0
H3552 H 0.27709 0.34728 0.6618 0.0
H3553 H 0.31001 0.3502 0.66984 0.0
H3554 H 0.24501 0.40165 0.77531 0.0
H3555 H 0.27767 0.40765 0.78235 0.0
H3556 H 0.2199 0.40906 0.74422 0.0
H3557 H 0.21015 0.3914 0.71679 0.0
C3558 C 0.61768 0.29119 0.69389 0.0
C3559 C 0.6117 0.26468 0.7003 0.0
C3560 C 0.58764 0.27947 0.73908 0.0
C3561 C 0.59593 0.30552 0.73415 0.0
N3562 N 0.61023 0.3374 0.70312 0.0
N3563 N 0.59033 0.23368 0.72911 0.0
C3564 C 0.60807 0.3117 0.71014 0.0
C3565 C 0.59631 0.25893 0.72271 0.0
N3566 N 0.63427 0.29664 0.67355 0.0
N3567 N 0.57201 0.27333 0.75978 0.0
H3568 H 0.59775 0.21768 0.719 0.0
H3569 H 0.57886 0.22879 0.74532 0.0
H3570 H 0.56397 0.28702 0.77262 0.0
H3571 H 0.56397 0.28702 0.77262 0.0
H3572 H 0.6414 0.31529 0.6695 0.0
H3573 H 0.64291 0.28218 0.66199 0.0
H3574 H 0.61658 0.34364 0.68477 0.0
H3575 H 0.60313 0.3524 0.71511 0.0
C3576 C 0.71813 0.39255 0.29968 0.0
C3577 C 0.73763 0.37316 0.29454 0.0
C3578 C 0.72749 0.37639 0.24784 0.0
C3579 C 0.70444 0.39061 0.25389 0.0
N3580 N 0.67722 0.41234 0.28547 0.0
N3581 N 0.75827 0.34403 0.26315 0.0
C3582 C 0.69971 0.39905 0.27977 0.0
C3583 C 0.74203 0.36469 0.26838 0.0
N3584 N 0.71765 0.40527 0.32323 0.0
N3585 N 0.73495 0.37349 0.22229 0.0
H3586 H 0.76795 0.33335 0.27757 0.0
H3587 H 0.75989 0.3356 0.24463 0.0
H3588 H 0.72461 0.38216 0.20692 0.0
H3589 H 0.7527 0.36507 0.21673 0.0
H3590 H 0.70523 0.42099 0.32715 0.0
H3591 H 0.73158 0.40209 0.33782 0.0
H3592 H 0.67112 0.41631 0.30455 0.0
H3593 H 0.66403 0.41819 0.27097 0.0
C3594 C 0.59279 0.71155 0.27616 0.0
C3595 C 0.61396 0.70695 0.25872 0.0
C3596 C 0.62993 0.75139 0.2668 0.0
C3597 C 0.61391 0.75302 0.28905 0.0
N3598 N 0.57352 0.73999 0.30942 0.0
N3599 N 0.65504 0.72249 0.23996 0.0
C3600 C 0.59313 0.73466 0.29206 0.0
C3601 C 0.63314 0.72689 0.25463 0.0
N3602 N 0.57279 0.69381 0.27755 0.0
N3603 N 0.64133 0.77336 0.25671 0.0
H3604 H 0.65962 0.70451 0.23186 0.0
H3605 H 0.67028 0.73601 0.23851 0.0
H3606 H 0.63679 0.79202 0.26372 0.0
H3607 H 0.65191 0.77332 0.23923 0.0
H3608 H 0.55606 0.69624 0.2889 0.0
H3609 H 0.57264 0.67655 0.2666 0.0
H3610 H 0.55892 0.72685 0.31477 0.0
H3611 H 0.57137 0.75857 0.31765 0.0
C3612 C 0.25318 0.64013 0.2645 0.0
C3613 C 0.25233 0.62525 0.28801 0.0
C3614 C 0.29066 0.59992 0.27324 0.0
C3615 C 0.29088 0.6146 0.24983 0.0
N3616 N 0.26615 0.64045 0.219 0.0
N3617 N 0.26485 0.58525 0.31025 0.0
C3618 C 0.26987 0.63179 0.24405 0.0
C3619 C 0.26938 0.60326 0.29099 0.0
N3620 N 0.2401 0.66339 0.26222 0.0
N3621 N 0.31105 0.58361 0.27897 0.0
H3622 H 0.24865 0.58626 0.32263 0.0
H3623 H 0.27542 0.56787 0.31195 0.0
H3624 H 0.32644 0.58033 0.26592 0.0
H3625 H 0.31335 0.57462 0.29716 0.0
H3626 H 0.24244 0.6758 0.24617 0.0
H3627 H 0.2295 0.67202 0.27733 0.0
H3628 H 0.24988 0.65144 0.21335 0.0
H3629 H 0.2777 0.63392 0.20345 0.0
C3630 C 0.4012 0.30419 0.27255 0.0
C3631 C 0.38013 0.30803 0.25484 0.0
C3632 C 0.35283 0.27863 0.2809 0.0
C3633 C 0.37474 0.27139 0.29605 0.0
N3634 N 0.42118 0.27534 0.30464 0.0
N3635 N 0.33903 0.29065 0.23791 0.0
C3636 C 0.39941 0.28367 0.29153 0.0
C3637 C 0.35684 0.29288 0.25776 0.0
N3638 N 0.42239 0.32047 0.27184 0.0
N3639 N 0.32796 0.27275 0.28891 0.0
H3640 H 0.34209 0.29833 0.21933 0.0
H3641 H 0.323 0.27802 0.23887 0.0
H3642 H 0.32385 0.26389 0.30687 0.0
H3643 H 0.31138 0.27976 0.27921 0.0
H3644 H 0.43715 0.32018 0.28593 0.0
H3645 H 0.42405 0.33581 0.25845 0.0
H3646 H 0.44002 0.28172 0.30011 0.0
H3647 H 0.42071 0.26053 0.31866 0.0
C3648 C 0.7145 0.68997 0.62158 0.0
C3649 C 0.73902 0.697 0.6109 0.0
C3650 C 0.72736 0.74364 0.61446 0.0
C3651 C 0.7039 0.73657 0.62773 0.0
N3652 N 0.67751 0.70305 0.64821 0.0
N3653 N 0.76991 0.73043 0.59809 0.0
C3654 C 0.69795 0.7097 0.6322 0.0
C3655 C 0.74555 0.72381 0.60709 0.0
N3656 N 0.70725 0.66421 0.62168 0.0
N3657 N 0.7323 0.76927 0.60868 0.0
H3658 H 0.78338 0.7168 0.5911 0.0
H3659 H 0.77748 0.74935 0.59872 0.0
H3660 H 0.72138 0.78465 0.61625 0.0
H3661 H 0.74671 0.77536 0.5956 0.0
H3662 H 0.68866 0.65774 0.62701 0.0
H3663 H 0.71921 0.64955 0.61387 0.0
H3664 H 0.67375 0.68397 0.65433 0.0
H3665 H 0.66585 0.71687 0.65774 0.0
C3666 C 0.74586 0.25333 0.37434 0.0
C3667 C 0.71898 0.25995 0.3722 0.0
C3668 C 0.72652 0.30094 0.396 0.0
C3669 C 0.75359 0.2955 0.39591 0.0
N3670 N 0.78801 0.26336 0.39408 0.0
N3671 N 0.68245 0.2845 0.38946 0.0
C3672 C 0.76278 0.27033 0.38854 0.0
C3673 C 0.70886 0.28196 0.38595 0.0
N3674 N 0.75556 0.23206 0.36129 0.0
N3675 N 0.71804 0.32492 0.40426 0.0
H3676 H 0.66915 0.27038 0.38299 0.0
H3677 H 0.674 0.29908 0.40095 0.0
H3678 H 0.7308 0.33849 0.41274 0.0
H3679 H 0.6989 0.33158 0.40188 0.0
H3680 H 0.77547 0.228 0.35957 0.0
H3681 H 0.74376 0.21919 0.35071 0.0
H3682 H 0.79556 0.2447 0.39079 0.0
H3683 H 0.80063 0.27562 0.40445 0.0
C3684 C 0.70123 0.69578 0.35559 0.0
C3685 C 0.72093 0.69223 0.37489 0.0
C3686 C 0.69643 0.72047 0.40527 0.0
C3687 C 0.68007 0.72806 0.38419 0.0
N3688 N 0.65803 0.71304 0.34552 0.0
N3689 N 0.73629 0.69858 0.41915 0.0
C3690 C 0.67971 0.71252 0.36118 0.0
C3691 C 0.718 0.70347 0.40023 0.0
N3692 N 0.70336 0.68362 0.3318 0.0
N3693 N 0.6902 0.72796 0.43019 0.0
H3694 H 0.75134 0.68506 0.41664 0.0
H3695 H 0.73729 0.70867 0.43684 0.0
H3696 H 0.6725 0.73714 0.43459 0.0
H3697 H 0.70039 0.72197 0.44679 0.0
H3698 H 0.69128 0.68774 0.3159 0.0
H3699 H 0.71809 0.67014 0.32746 0.0
H3700 H 0.65535 0.70104 0.32924 0.0
H3701 H 0.64131 0.72351 0.3509 0.0
C3702 C 0.26814 0.7367 0.35774 0.0
C3703 C 0.2918 0.7335 0.372 0.0
C3704 C 0.27205 0.69703 0.39653 0.0
C3705 C 0.24842 0.70109 0.38274 0.0
N3706 N 0.22121 0.73097 0.35826 0.0
N3707 N 0.31309 0.71606 0.41069 0.0
C3708 C 0.24556 0.72317 0.36618 0.0
C3709 C 0.29281 0.71534 0.39324 0.0
N3710 N 0.26743 0.75073 0.33493 0.0
N3711 N 0.27506 0.67533 0.41187 0.0
H3712 H 0.32794 0.73003 0.40982 0.0
H3713 H 0.31359 0.70471 0.42765 0.0
H3714 H 0.25995 0.66197 0.41509 0.0
H3715 H 0.29297 0.66985 0.42 0.0
H3716 H 0.25097 0.75132 0.32285 0.0
H3717 H 0.28388 0.7591 0.32627 0.0
H3718 H 0.21793 0.74822 0.34781 0.0
H3719 H 0.20416 0.7218 0.3648 0.0
C3720 C 0.26059 0.27142 0.3862 0.0
C3721 C 0.26726 0.29516 0.37326 0.0
C3722 C 0.31392 0.28639 0.38133 0.0
C3723 C 0.30747 0.26145 0.39134 0.0
N3724 N 0.27489 0.22975 0.40407 0.0
N3725 N 0.30047 0.32316 0.35461 0.0
C3726 C 0.28082 0.25412 0.39466 0.0
C3727 C 0.29401 0.30228 0.37009 0.0
N3728 N 0.23491 0.26527 0.3903 0.0
N3729 N 0.3394 0.29447 0.38222 0.0
H3730 H 0.28653 0.3342 0.34456 0.0
H3731 H 0.31961 0.32789 0.34943 0.0
H3732 H 0.3541 0.28285 0.39045 0.0
H3733 H 0.34546 0.31331 0.37728 0.0
H3734 H 0.22859 0.2507 0.40308 0.0
H3735 H 0.21967 0.27511 0.38111 0.0
H3736 H 0.2563 0.22143 0.40336 0.0
H3737 H 0.28888 0.21719 0.412 0.0
C3738 C 0.29232 0.2682 0.59704 0.0
C3739 C 0.29478 0.255 0.62156 0.0
C3740 C 0.25619 0.27748 0.63745 0.0
C3741 C 0.25597 0.29397 0.61494 0.0
N3742 N 0.27643 0.30698 0.5744 0.0
N3743 N 0.28417 0.25516 0.66784 0.0
C3744 C 0.27475 0.28989 0.5949 0.0
C3745 C 0.2783 0.26202 0.64261 0.0
N3746 N 0.30601 0.25968 0.5757 0.0
N3747 N 0.23484 0.2754 0.6534 0.0
H3748 H 0.30157 0.24587 0.67315 0.0
H3749 H 0.27333 0.26191 0.6838 0.0
H3750 H 0.217 0.28412 0.64904 0.0
H3751 H 0.23389 0.26201 0.66883 0.0
H3752 H 0.30298 0.26701 0.55689 0.0
H3753 H 0.31865 0.24368 0.57629 0.0
H3754 H 0.29145 0.30636 0.5606 0.0
H3755 H 0.2641 0.32316 0.57249 0.0
C3756 C 0.71989 0.2962 0.59781 0.0
C3757 C 0.73307 0.29938 0.62226 0.0
C3758 C 0.71264 0.25985 0.63852 0.0
C3759 C 0.6964 0.25841 0.61589 0.0
N3760 N 0.68262 0.2772 0.57488 0.0
N3761 N 0.73394 0.28906 0.66852 0.0
C3762 C 0.6995 0.27711 0.59562 0.0
C3763 C 0.72707 0.28267 0.6434 0.0
N3764 N 0.72721 0.31078 0.57662 0.0
N3765 N 0.71523 0.23901 0.65505 0.0
H3766 H 0.74268 0.30682 0.67355 0.0
H3767 H 0.7278 0.27816 0.68468 0.0
H3768 H 0.70672 0.22099 0.65121 0.0
H3769 H 0.72863 0.2387 0.67049 0.0
H3770 H 0.72012 0.30745 0.55778 0.0
H3771 H 0.74189 0.32492 0.57746 0.0
H3772 H 0.68225 0.29198 0.56082 0.0
H3773 H 0.66765 0.26345 0.57285 0.0
C3774 C 0.25471 0.73518 0.63811 0.0
C3775 C 0.25341 0.71261 0.62185 0.0
C3776 C 0.29018 0.72963 0.5956 0.0
C3777 C 0.29089 0.75197 0.61179 0.0
N3778 N 0.26676 0.78084 0.64026 0.0
N3779 N 0.2639 0.69351 0.57967 0.0
C3780 C 0.27054 0.75639 0.63012 0.0
C3781 C 0.26925 0.71144 0.59877 0.0
N3782 N 0.24308 0.73586 0.66224 0.0
N3783 N 0.30974 0.72535 0.5779 0.0
H3784 H 0.24775 0.68107 0.58058 0.0
H3785 H 0.2736 0.69311 0.56171 0.0
H3786 H 0.32473 0.7389 0.57475 0.0
H3787 H 0.31176 0.70788 0.56753 0.0
H3788 H 0.24588 0.75127 0.67536 0.0
H3789 H 0.23342 0.72008 0.67072 0.0
H3790 H 0.25096 0.78556 0.65232 0.0
H3791 H 0.27761 0.79688 0.63383 0.0
loop_
_geom_bond_atom_site_label_1
_geom_bond_atom_site_label_2
_geom_bond_distance
_geom_bond_site_symmetry_2
_ccdc_geom_bond_type
Co0 O3 1.970 . S
Co0 N17 1.989 . S
Co0 O25 1.967 . S
Co0 O32 1.920 . S
Co1 O4 1.966 . S
Co1 N10 2.022 . S
Co1 N18 1.993 . S
Co1 O26 1.941 . S
C2 O3 1.258 . S
C2 O4 1.263 . S
O3 Co0 1.970 . S
O3 C2 1.258 . S
O4 Co1 1.966 . S
O4 C2 1.263 . S
C5 O6 1.235 . S
C5 O32 1.289 . S
O6 C5 1.235 . S
C7 C9 1.400 . S
C7 N10 1.351 . S
C7 C12 1.501 . S
C8 C9 1.387 . S
C8 N11 1.341 . S
C9 C7 1.400 . S
C9 C8 1.387 . S
N10 Co1 2.022 . S
N10 C7 1.351 . S
N10 N11 1.365 . S
N11 C8 1.341 . S
N11 N10 1.365 . S
N11 H31 0.862 . S
C12 C7 1.501 . S
C12 H13 0.961 . S
C12 H14 0.961 . S
C12 H15 0.960 . S
H13 C12 0.961 . S
H14 C12 0.961 . S
H15 C12 0.960 . S
C16 N17 1.342 . S
C16 C20 1.401 . S
C16 C21 1.499 . S
N17 Co0 1.989 . S
N17 C16 1.342 . S
N17 N18 1.388 . S
N18 Co1 1.993 . S
N18 N17 1.388 . S
N18 C19 1.346 . S
C19 N18 1.346 . S
C19 C20 1.396 . S
C19 C29 1.510 . S
C20 C16 1.401 . S
C20 C19 1.396 . S
C21 C16 1.499 . S
C21 H22 0.959 . S
C21 H23 0.960 . S
C21 H24 0.961 . S
H22 C21 0.959 . S
H23 C21 0.960 . S
H24 C21 0.961 . S
O25 Co0 1.967 . S
O25 C33 1.258 . S
O26 Co1 1.941 . S
O26 C33 1.266 . S
H27 C29 0.959 . S
H28 C29 0.961 . S
C29 C19 1.510 . S
C29 H27 0.959 . S
C29 H28 0.961 . S
C29 H30 0.960 . S
H30 C29 0.960 . S
H31 N11 0.862 . S
O32 Co0 1.920 . S
O32 C5 1.289 . S
C33 O25 1.258 . S
C33 O26 1.266 . S
Co34 O37 1.970 . S
Co34 N51 1.989 . S
Co34 O59 1.967 . S
Co34 O66 1.920 . S
Co35 O38 1.966 . S
Co35 N44 2.022 . S
Co35 N52 1.993 . S
Co35 O60 1.941 . S
C36 O37 1.258 . S
C36 O38 1.263 . S
O37 Co34 1.970 . S
O37 C36 1.258 . S
O38 Co35 1.966 . S
O38 C36 1.263 . S
C39 O40 1.235 . S
C39 O66 1.289 . S
O40 C39 1.235 . S
C41 C43 1.400 . S
C41 N44 1.351 . S
C41 C46 1.501 . S
C42 C43 1.387 . S
C42 N45 1.341 . S
C43 C41 1.400 . S
C43 C42 1.387 . S
N44 Co35 2.022 . S
N44 C41 1.351 . S
N44 N45 1.365 . S
N45 C42 1.341 . S
N45 N44 1.365 . S
N45 H65 0.862 . S
C46 C41 1.501 . S
C46 H47 0.961 . S
C46 H48 0.961 . S
C46 H49 0.960 . S
H47 C46 0.961 . S
H48 C46 0.961 . S
H49 C46 0.960 . S
C50 N51 1.342 . S
C50 C54 1.401 . S
C50 C55 1.499 . S
N51 Co34 1.989 . S
N51 C50 1.342 . S
N51 N52 1.388 . S
N52 Co35 1.993 . S
N52 N51 1.388 . S
N52 C53 1.346 . S
C53 N52 1.346 . S
C53 C54 1.396 . S
C53 C63 1.510 . S
C54 C50 1.401 . S
C54 C53 1.396 . S
C55 C50 1.499 . S
C55 H56 0.959 . S
C55 H57 0.960 . S
C55 H58 0.961 . S
H56 C55 0.959 . S
H57 C55 0.960 . S
H58 C55 0.961 . S
O59 Co34 1.967 . S
O59 C67 1.258 . S
O60 Co35 1.941 . S
O60 C67 1.266 . S
H61 C63 0.959 . S
H62 C63 0.961 . S
C63 C53 1.510 . S
C63 H61 0.959 . S
C63 H62 0.961 . S
C63 H64 0.960 . S
H64 C63 0.960 . S
H65 N45 0.862 . S
O66 Co34 1.920 . S
O66 C39 1.289 . S
C67 O59 1.258 . S
C67 O60 1.266 . S
Co68 O71 1.970 . S
Co68 N85 1.989 . S
Co68 O93 1.967 . S
Co68 O100 1.920 . S
Co69 O72 1.966 . S
Co69 N78 2.022 . S
Co69 N86 1.993 . S
Co69 O94 1.941 . S
C70 O71 1.258 . S
C70 O72 1.263 . S
O71 Co68 1.970 . S
O71 C70 1.258 . S
O72 Co69 1.966 . S
O72 C70 1.263 . S
C73 O74 1.235 . S
C73 O100 1.289 . S
O74 C73 1.235 . S
C75 C77 1.400 . S
C75 N78 1.351 . S
C75 C80 1.501 . S
C76 C77 1.387 . S
C76 N79 1.341 . S
C77 C75 1.400 . S
C77 C76 1.387 . S
N78 Co69 2.022 . S
N78 C75 1.351 . S
N78 N79 1.365 . S
N79 C76 1.341 . S
N79 N78 1.365 . S
N79 H99 0.862 . S
C80 C75 1.501 . S
C80 H81 0.961 . S
C80 H82 0.961 . S
C80 H83 0.960 . S
H81 C80 0.961 . S
H82 C80 0.961 . S
H83 C80 0.960 . S
C84 N85 1.342 . S
C84 C88 1.401 . S
C84 C89 1.499 . S
N85 Co68 1.989 . S
N85 C84 1.342 . S
N85 N86 1.388 . S
N86 Co69 1.993 . S
N86 N85 1.388 . S
N86 C87 1.346 . S
C87 N86 1.346 . S
C87 C88 1.396 . S
C87 C97 1.510 . S
C88 C84 1.401 . S
C88 C87 1.396 . S
C89 C84 1.499 . S
C89 H90 0.959 . S
C89 H91 0.960 . S
C89 H92 0.961 . S
H90 C89 0.959 . S
H91 C89 0.960 . S
H92 C89 0.961 . S
O93 Co68 1.967 . S
O93 C101 1.258 . S
O94 Co69 1.941 . S
O94 C101 1.266 . S
H95 C97 0.959 . S
H96 C97 0.961 . S
C97 C87 1.510 . S
C97 H95 0.959 . S
C97 H96 0.961 . S
C97 H98 0.960 . S
H98 C97 0.960 . S
H99 N79 0.862 . S
O100 Co68 1.920 . S
O100 C73 1.289 . S
C101 O93 1.258 . S
C101 O94 1.266 . S
Co102 O105 1.970 . S
Co102 N119 1.989 . S
Co102 O127 1.967 . S
Co102 O134 1.920 . S
Co103 O106 1.966 . S
Co103 N112 2.022 . S
Co103 N120 1.993 . S
Co103 O128 1.941 . S
C104 O105 1.258 . S
C104 O106 1.263 . S
O105 Co102 1.970 . S
O105 C104 1.258 . S
O106 Co103 1.966 . S
O106 C104 1.263 . S
C107 O108 1.235 . S
C107 O134 1.289 . S
O108 C107 1.235 . S
C109 C111 1.400 . S
C109 N112 1.351 . S
C109 C114 1.501 . S
C110 C111 1.387 . S
C110 N113 1.341 . S
C111 C109 1.400 . S
C111 C110 1.387 . S
N112 Co103 2.022 . S
N112 C109 1.351 . S
N112 N113 1.365 . S
N113 C110 1.341 . S
N113 N112 1.365 . S
N113 H133 0.862 . S
C114 C109 1.501 . S
C114 H115 0.961 . S
C114 H116 0.961 . S
C114 H117 0.960 . S
H115 C114 0.961 . S
H116 C114 0.961 . S
H117 C114 0.960 . S
C118 N119 1.342 . S
C118 C122 1.401 . S
C118 C123 1.499 . S
N119 Co102 1.989 . S
N119 C118 1.342 . S
N119 N120 1.388 . S
N120 Co103 1.993 . S
N120 N119 1.388 . S
N120 C121 1.346 . S
C121 N120 1.346 . S
C121 C122 1.396 . S
C121 C131 1.510 . S
C122 C118 1.401 . S
C122 C121 1.396 . S
C123 C118 1.499 . S
C123 H124 0.959 . S
C123 H125 0.960 . S
C123 H126 0.961 . S
H124 C123 0.959 . S
H125 C123 0.960 . S
H126 C123 0.961 . S
O127 Co102 1.967 . S
O127 C135 1.258 . S
O128 Co103 1.941 . S
O128 C135 1.266 . S
H129 C131 0.959 . S
H130 C131 0.961 . S
C131 C121 1.510 . S
C131 H129 0.959 . S
C131 H130 0.961 . S
C131 H132 0.960 . S
H132 C131 0.960 . S
H133 N113 0.862 . S
O134 Co102 1.920 . S
O134 C107 1.289 . S
C135 O127 1.258 . S
C135 O128 1.266 . S
Co136 O139 1.970 . S
Co136 N153 1.989 . S
Co136 O161 1.967 . S
Co136 O168 1.920 . S
Co137 O140 1.966 . S
Co137 N146 2.022 . S
Co137 N154 1.993 . S
Co137 O162 1.941 . S
C138 O139 1.258 . S
C138 O140 1.263 . S
O139 Co136 1.970 . S
O139 C138 1.258 . S
O140 Co137 1.966 . S
O140 C138 1.263 . S
C141 O142 1.235 . S
C141 O168 1.289 . S
O142 C141 1.235 . S
C143 C145 1.400 . S
C143 N146 1.351 . S
C143 C148 1.501 . S
C144 C145 1.387 . S
C144 N147 1.341 . S
C145 C143 1.400 . S
C145 C144 1.387 . S
N146 Co137 2.022 . S
N146 C143 1.351 . S
N146 N147 1.365 . S
N147 C144 1.341 . S
N147 N146 1.365 . S
N147 H167 0.862 . S
C148 C143 1.501 . S
C148 H149 0.961 . S
C148 H150 0.961 . S
C148 H151 0.960 . S
H149 C148 0.961 . S
H150 C148 0.961 . S
H151 C148 0.960 . S
C152 N153 1.342 . S
C152 C156 1.401 . S
C152 C157 1.499 . S
N153 Co136 1.989 . S
N153 C152 1.342 . S
N153 N154 1.388 . S
N154 Co137 1.993 . S
N154 N153 1.388 . S
N154 C155 1.346 . S
C155 N154 1.346 . S
C155 C156 1.396 . S
C155 C165 1.510 . S
C156 C152 1.401 . S
C156 C155 1.396 . S
C157 C152 1.499 . S
C157 H158 0.959 . S
C157 H159 0.960 . S
C157 H160 0.961 . S
H158 C157 0.959 . S
H159 C157 0.960 . S
H160 C157 0.961 . S
O161 Co136 1.967 . S
O161 C169 1.258 . S
O162 Co137 1.941 . S
O162 C169 1.266 . S
H163 C165 0.959 . S
H164 C165 0.961 . S
C165 C155 1.510 . S
C165 H163 0.959 . S
C165 H164 0.961 . S
C165 H166 0.960 . S
H166 C165 0.960 . S
H167 N147 0.862 . S
O168 Co136 1.920 . S
O168 C141 1.289 . S
C169 O161 1.258 . S
C169 O162 1.266 . S
Co170 O173 1.970 . S
Co170 N187 1.989 . S
Co170 O195 1.967 . S
Co170 O202 1.920 . S
Co171 O174 1.966 . S
Co171 N180 2.022 . S
Co171 N188 1.993 . S
Co171 O196 1.941 . S
C172 O173 1.258 . S
C172 O174 1.263 . S
O173 Co170 1.970 . S
O173 C172 1.258 . S
O174 Co171 1.966 . S
O174 C172 1.263 . S
C175 O176 1.235 . S
C175 O202 1.289 . S
O176 C175 1.235 . S
C177 C179 1.400 . S
C177 N180 1.351 . S
C177 C182 1.501 . S
C178 C179 1.387 . S
C178 N181 1.341 . S
C179 C177 1.400 . S
C179 C178 1.387 . S
N180 Co171 2.022 . S
N180 C177 1.351 . S
N180 N181 1.365 . S
N181 C178 1.341 . S
N181 N180 1.365 . S
N181 H201 0.862 . S
C182 C177 1.501 . S
C182 H183 0.961 . S
C182 H184 0.961 . S
C182 H185 0.960 . S
H183 C182 0.961 . S
H184 C182 0.961 . S
H185 C182 0.960 . S
C186 N187 1.342 . S
C186 C190 1.401 . S
C186 C191 1.499 . S
N187 Co170 1.989 . S
N187 C186 1.342 . S
N187 N188 1.388 . S
N188 Co171 1.993 . S
N188 N187 1.388 . S
N188 C189 1.346 . S
C189 N188 1.346 . S
C189 C190 1.396 . S
C189 C199 1.510 . S
C190 C186 1.401 . S
C190 C189 1.396 . S
C191 C186 1.499 . S
C191 H192 0.959 . S
C191 H193 0.960 . S
C191 H194 0.961 . S
H192 C191 0.959 . S
H193 C191 0.960 . S
H194 C191 0.961 . S
O195 Co170 1.967 . S
O195 C203 1.258 . S
O196 Co171 1.941 . S
O196 C203 1.266 . S
H197 C199 0.959 . S
H198 C199 0.961 . S
C199 C189 1.510 . S
C199 H197 0.959 . S
C199 H198 0.961 . S
C199 H200 0.960 . S
H200 C199 0.960 . S
H201 N181 0.862 . S
O202 Co170 1.920 . S
O202 C175 1.289 . S
C203 O195 1.258 . S
C203 O196 1.266 . S
Co204 O207 1.970 . S
Co204 N221 1.989 . S
Co204 O229 1.967 . S
Co204 O236 1.920 . S
Co205 O208 1.966 . S
Co205 N214 2.022 . S
Co205 N222 1.993 . S
Co205 O230 1.941 . S
C206 O207 1.258 . S
C206 O208 1.263 . S
O207 Co204 1.970 . S
O207 C206 1.258 . S
O208 Co205 1.966 . S
O208 C206 1.263 . S
C209 O210 1.235 . S
C209 O236 1.289 . S
O210 C209 1.235 . S
C211 C213 1.400 . S
C211 N214 1.351 . S
C211 C216 1.501 . S
C212 C213 1.387 . S
C212 N215 1.341 . S
C213 C211 1.400 . S
C213 C212 1.387 . S
N214 Co205 2.022 . S
N214 C211 1.351 . S
N214 N215 1.365 . S
N215 C212 1.341 . S
N215 N214 1.365 . S
N215 H235 0.862 . S
C216 C211 1.501 . S
C216 H217 0.961 . S
C216 H218 0.961 . S
C216 H219 0.960 . S
H217 C216 0.961 . S
H218 C216 0.961 . S
H219 C216 0.960 . S
C220 N221 1.342 . S
C220 C224 1.401 . S
C220 C225 1.499 . S
N221 Co204 1.989 . S
N221 C220 1.342 . S
N221 N222 1.388 . S
N222 Co205 1.993 . S
N222 N221 1.388 . S
N222 C223 1.346 . S
C223 N222 1.346 . S
C223 C224 1.396 . S
C223 C233 1.510 . S
C224 C220 1.401 . S
C224 C223 1.396 . S
C225 C220 1.499 . S
C225 H226 0.959 . S
C225 H227 0.960 . S
C225 H228 0.961 . S
H226 C225 0.959 . S
H227 C225 0.960 . S
H228 C225 0.961 . S
O229 Co204 1.967 . S
O229 C237 1.258 . S
O230 Co205 1.941 . S
O230 C237 1.266 . S
H231 C233 0.959 . S
H232 C233 0.961 . S
C233 C223 1.510 . S
C233 H231 0.959 . S
C233 H232 0.961 . S
C233 H234 0.960 . S
H234 C233 0.960 . S
H235 N215 0.862 . S
O236 Co204 1.920 . S
O236 C209 1.289 . S
C237 O229 1.258 . S
C237 O230 1.266 . S
Co238 O241 1.970 . S
Co238 N255 1.989 . S
Co238 O263 1.967 . S
Co238 O270 1.920 . S
Co239 O242 1.966 . S
Co239 N248 2.022 . S
Co239 N256 1.993 . S
Co239 O264 1.941 . S
C240 O241 1.258 . S
C240 O242 1.263 . S
O241 Co238 1.970 . S
O241 C240 1.258 . S
O242 Co239 1.966 . S
O242 C240 1.263 . S
C243 O244 1.235 . S
C243 O270 1.289 . S
O244 C243 1.235 . S
C245 C247 1.400 . S
C245 N248 1.351 . S
C245 C250 1.501 . S
C246 C247 1.387 . S
C246 N249 1.341 . S
C247 C245 1.400 . S
C247 C246 1.387 . S
N248 Co239 2.022 . S
N248 C245 1.351 . S
N248 N249 1.365 . S
N249 C246 1.341 . S
N249 N248 1.365 . S
N249 H269 0.862 . S
C250 C245 1.501 . S
C250 H251 0.961 . S
C250 H252 0.961 . S
C250 H253 0.960 . S
H251 C250 0.961 . S
H252 C250 0.961 . S
H253 C250 0.960 . S
C254 N255 1.342 . S
C254 C258 1.401 . S
C254 C259 1.499 . S
N255 Co238 1.989 . S
N255 C254 1.342 . S
N255 N256 1.388 . S
N256 Co239 1.993 . S
N256 N255 1.388 . S
N256 C257 1.346 . S
C257 N256 1.346 . S
C257 C258 1.396 . S
C257 C267 1.510 . S
C258 C254 1.401 . S
C258 C257 1.396 . S
C259 C254 1.499 . S
C259 H260 0.959 . S
C259 H261 0.960 . S
C259 H262 0.961 . S
H260 C259 0.959 . S
H261 C259 0.960 . S
H262 C259 0.961 . S
O263 Co238 1.967 . S
O263 C271 1.258 . S
O264 Co239 1.941 . S
O264 C271 1.266 . S
H265 C267 0.959 . S
H266 C267 0.961 . S
C267 C257 1.510 . S
C267 H265 0.959 . S
C267 H266 0.961 . S
C267 H268 0.960 . S
H268 C267 0.960 . S
H269 N249 0.862 . S
O270 Co238 1.920 . S
O270 C243 1.289 . S
C271 O263 1.258 . S
C271 O264 1.266 . S
Co272 O275 1.970 . S
Co272 N289 1.989 . S
Co272 O297 1.967 . S
Co272 O304 1.920 . S
Co273 O276 1.966 . S
Co273 N282 2.022 . S
Co273 N290 1.993 . S
Co273 O298 1.941 . S
C274 O275 1.258 . S
C274 O276 1.263 . S
O275 Co272 1.970 . S
O275 C274 1.258 . S
O276 Co273 1.966 . S
O276 C274 1.263 . S
C277 O278 1.235 . S
C277 O304 1.289 . S
O278 C277 1.235 . S
C279 C281 1.400 . S
C279 N282 1.351 . S
C279 C284 1.501 . S
C280 C281 1.387 . S
C280 N283 1.341 . S
C281 C279 1.400 . S
C281 C280 1.387 . S
N282 Co273 2.022 . S
N282 C279 1.351 . S
N282 N283 1.365 . S
N283 C280 1.341 . S
N283 N282 1.365 . S
N283 H303 0.862 . S
C284 C279 1.501 . S
C284 H285 0.961 . S
C284 H286 0.961 . S
C284 H287 0.960 . S
H285 C284 0.961 . S
H286 C284 0.961 . S
H287 C284 0.960 . S
C288 N289 1.342 . S
C288 C292 1.401 . S
C288 C293 1.499 . S
N289 Co272 1.989 . S
N289 C288 1.342 . S
N289 N290 1.388 . S
N290 Co273 1.993 . S
N290 N289 1.388 . S
N290 C291 1.346 . S
C291 N290 1.346 . S
C291 C292 1.396 . S
C291 C301 1.510 . S
C292 C288 1.401 . S
C292 C291 1.396 . S
C293 C288 1.499 . S
C293 H294 0.959 . S
C293 H295 0.960 . S
C293 H296 0.961 . S
H294 C293 0.959 . S
H295 C293 0.960 . S
H296 C293 0.961 . S
O297 Co272 1.967 . S
O297 C305 1.258 . S
O298 Co273 1.941 . S
O298 C305 1.266 . S
H299 C301 0.959 . S
H300 C301 0.961 . S
C301 C291 1.510 . S
C301 H299 0.959 . S
C301 H300 0.961 . S
C301 H302 0.960 . S
H302 C301 0.960 . S
H303 N283 0.862 . S
O304 Co272 1.920 . S
O304 C277 1.289 . S
C305 O297 1.258 . S
C305 O298 1.266 . S
Co306 O309 1.970 . S
Co306 N323 1.989 . S
Co306 O331 1.967 . S
Co306 O338 1.920 . S
Co307 O310 1.966 . S
Co307 N316 2.022 . S
Co307 N324 1.993 . S
Co307 O332 1.941 . S
C308 O309 1.258 . S
C308 O310 1.263 . S
O309 Co306 1.970 . S
O309 C308 1.258 . S
O310 Co307 1.966 . S
O310 C308 1.263 . S
C311 O312 1.235 . S
C311 O338 1.289 . S
O312 C311 1.235 . S
C313 C315 1.400 . S
C313 N316 1.351 . S
C313 C318 1.501 . S
C314 C315 1.387 . S
C314 N317 1.341 . S
C315 C313 1.400 . S
C315 C314 1.387 . S
N316 Co307 2.022 . S
N316 C313 1.351 . S
N316 N317 1.365 . S
N317 C314 1.341 . S
N317 N316 1.365 . S
N317 H337 0.862 . S
C318 C313 1.501 . S
C318 H319 0.961 . S
C318 H320 0.961 . S
C318 H321 0.960 . S
H319 C318 0.961 . S
H320 C318 0.961 . S
H321 C318 0.960 . S
C322 N323 1.342 . S
C322 C326 1.401 . S
C322 C327 1.499 . S
N323 Co306 1.989 . S
N323 C322 1.342 . S
N323 N324 1.388 . S
N324 Co307 1.993 . S
N324 N323 1.388 . S
N324 C325 1.346 . S
C325 N324 1.346 . S
C325 C326 1.396 . S
C325 C335 1.510 . S
C326 C322 1.401 . S
C326 C325 1.396 . S
C327 C322 1.499 . S
C327 H328 0.959 . S
C327 H329 0.960 . S
C327 H330 0.961 . S
H328 C327 0.959 . S
H329 C327 0.960 . S
H330 C327 0.961 . S
O331 Co306 1.967 . S
O331 C339 1.258 . S
O332 Co307 1.941 . S
O332 C339 1.266 . S
H333 C335 0.959 . S
H334 C335 0.961 . S
C335 C325 1.510 . S
C335 H333 0.959 . S
C335 H334 0.961 . S
C335 H336 0.960 . S
H336 C335 0.960 . S
H337 N317 0.862 . S
O338 Co306 1.920 . S
O338 C311 1.289 . S
C339 O331 1.258 . S
C339 O332 1.266 . S
Co340 O343 1.970 . S
Co340 N357 1.989 . S
Co340 O365 1.967 . S
Co340 O372 1.920 . S
Co341 O344 1.966 . S
Co341 N350 2.022 . S
Co341 N358 1.993 . S
Co341 O366 1.941 . S
C342 O343 1.258 . S
C342 O344 1.263 . S
O343 Co340 1.970 . S
O343 C342 1.258 . S
O344 Co341 1.966 . S
O344 C342 1.263 . S
C345 O346 1.235 . S
C345 O372 1.289 . S
O346 C345 1.235 . S
C347 C349 1.400 . S
C347 N350 1.351 . S
C347 C352 1.501 . S
C348 C349 1.387 . S
C348 N351 1.341 . S
C349 C347 1.400 . S
C349 C348 1.387 . S
N350 Co341 2.022 . S
N350 C347 1.351 . S
N350 N351 1.365 . S
N351 C348 1.341 . S
N351 N350 1.365 . S
N351 H371 0.862 . S
C352 C347 1.501 . S
C352 H353 0.961 . S
C352 H354 0.961 . S
C352 H355 0.960 . S
H353 C352 0.961 . S
H354 C352 0.961 . S
H355 C352 0.960 . S
C356 N357 1.342 . S
C356 C360 1.401 . S
C356 C361 1.499 . S
N357 Co340 1.989 . S
N357 C356 1.342 . S
N357 N358 1.388 . S
N358 Co341 1.993 . S
N358 N357 1.388 . S
N358 C359 1.346 . S
C359 N358 1.346 . S
C359 C360 1.396 . S
C359 C369 1.510 . S
C360 C356 1.401 . S
C360 C359 1.396 . S
C361 C356 1.499 . S
C361 H362 0.959 . S
C361 H363 0.960 . S
C361 H364 0.961 . S
H362 C361 0.959 . S
H363 C361 0.960 . S
H364 C361 0.961 . S
O365 Co340 1.967 . S
O365 C373 1.258 . S
O366 Co341 1.941 . S
O366 C373 1.266 . S
H367 C369 0.959 . S
H368 C369 0.961 . S
C369 C359 1.510 . S
C369 H367 0.959 . S
C369 H368 0.961 . S
C369 H370 0.960 . S
H370 C369 0.960 . S
H371 N351 0.862 . S
O372 Co340 1.920 . S
O372 C345 1.289 . S
C373 O365 1.258 . S
C373 O366 1.266 . S
Co374 O377 1.970 . S
Co374 N391 1.989 . S
Co374 O399 1.967 . S
Co374 O406 1.920 . S
Co375 O378 1.966 . S
Co375 N384 2.022 . S
Co375 N392 1.993 . S
Co375 O400 1.941 . S
C376 O377 1.258 . S
C376 O378 1.263 . S
O377 Co374 1.970 . S
O377 C376 1.258 . S
O378 Co375 1.966 . S
O378 C376 1.263 . S
C379 O380 1.235 . S
C379 O406 1.289 . S
O380 C379 1.235 . S
C381 C383 1.400 . S
C381 N384 1.351 . S
C381 C386 1.501 . S
C382 C383 1.387 . S
C382 N385 1.341 . S
C383 C381 1.400 . S
C383 C382 1.387 . S
N384 Co375 2.022 . S
N384 C381 1.351 . S
N384 N385 1.365 . S
N385 C382 1.341 . S
N385 N384 1.365 . S
N385 H405 0.862 . S
C386 C381 1.501 . S
C386 H387 0.961 . S
C386 H388 0.961 . S
C386 H389 0.960 . S
H387 C386 0.961 . S
H388 C386 0.961 . S
H389 C386 0.960 . S
C390 N391 1.342 . S
C390 C394 1.401 . S
C390 C395 1.499 . S
N391 Co374 1.989 . S
N391 C390 1.342 . S
N391 N392 1.388 . S
N392 Co375 1.993 . S
N392 N391 1.388 . S
N392 C393 1.346 . S
C393 N392 1.346 . S
C393 C394 1.396 . S
C393 C403 1.510 . S
C394 C390 1.401 . S
C394 C393 1.396 . S
C395 C390 1.499 . S
C395 H396 0.959 . S
C395 H397 0.960 . S
C395 H398 0.961 . S
H396 C395 0.959 . S
H397 C395 0.960 . S
H398 C395 0.961 . S
O399 Co374 1.967 . S
O399 C407 1.258 . S
O400 Co375 1.941 . S
O400 C407 1.266 . S
H401 C403 0.959 . S
H402 C403 0.961 . S
C403 C393 1.510 . S
C403 H401 0.959 . S
C403 H402 0.961 . S
C403 H404 0.960 . S
H404 C403 0.960 . S
H405 N385 0.862 . S
O406 Co374 1.920 . S
O406 C379 1.289 . S
C407 O399 1.258 . S
C407 O400 1.266 . S
Co408 O411 1.970 . S
Co408 N425 1.989 . S
Co408 O433 1.967 . S
Co408 O440 1.920 . S
Co409 O412 1.966 . S
Co409 N418 2.022 . S
Co409 N426 1.993 . S
Co409 O434 1.941 . S
C410 O411 1.258 . S
C410 O412 1.263 . S
O411 Co408 1.970 . S
O411 C410 1.258 . S
O412 Co409 1.966 . S
O412 C410 1.263 . S
C413 O414 1.235 . S
C413 O440 1.289 . S
O414 C413 1.235 . S
C415 C417 1.400 . S
C415 N418 1.351 . S
C415 C420 1.501 . S
C416 C417 1.387 . S
C416 N419 1.341 . S
C417 C415 1.400 . S
C417 C416 1.387 . S
N418 Co409 2.022 . S
N418 C415 1.351 . S
N418 N419 1.365 . S
N419 C416 1.341 . S
N419 N418 1.365 . S
N419 H439 0.862 . S
C420 C415 1.501 . S
C420 H421 0.961 . S
C420 H422 0.961 . S
C420 H423 0.960 . S
H421 C420 0.961 . S
H422 C420 0.961 . S
H423 C420 0.960 . S
C424 N425 1.342 . S
C424 C428 1.401 . S
C424 C429 1.499 . S
N425 Co408 1.989 . S
N425 C424 1.342 . S
N425 N426 1.388 . S
N426 Co409 1.993 . S
N426 N425 1.388 . S
N426 C427 1.346 . S
C427 N426 1.346 . S
C427 C428 1.396 . S
C427 C437 1.510 . S
C428 C424 1.401 . S
C428 C427 1.396 . S
C429 C424 1.499 . S
C429 H430 0.959 . S
C429 H431 0.960 . S
C429 H432 0.961 . S
H430 C429 0.959 . S
H431 C429 0.960 . S
H432 C429 0.961 . S
O433 Co408 1.967 . S
O433 C441 1.258 . S
O434 Co409 1.941 . S
O434 C441 1.266 . S
H435 C437 0.959 . S
H436 C437 0.961 . S
C437 C427 1.510 . S
C437 H435 0.959 . S
C437 H436 0.961 . S
C437 H438 0.960 . S
H438 C437 0.960 . S
H439 N419 0.862 . S
O440 Co408 1.920 . S
O440 C413 1.289 . S
C441 O433 1.258 . S
C441 O434 1.266 . S
Co442 O445 1.970 . S
Co442 N459 1.989 . S
Co442 O467 1.967 . S
Co442 O474 1.920 . S
Co443 O446 1.966 . S
Co443 N452 2.022 . S
Co443 N460 1.993 . S
Co443 O468 1.941 . S
C444 O445 1.258 . S
C444 O446 1.263 . S
O445 Co442 1.970 . S
O445 C444 1.258 . S
O446 Co443 1.966 . S
O446 C444 1.263 . S
C447 O448 1.235 . S
C447 O474 1.289 . S
O448 C447 1.235 . S
C449 C451 1.400 . S
C449 N452 1.351 . S
C449 C454 1.501 . S
C450 C451 1.387 . S
C450 N453 1.341 . S
C451 C449 1.400 . S
C451 C450 1.387 . S
N452 Co443 2.022 . S
N452 C449 1.351 . S
N452 N453 1.365 . S
N453 C450 1.341 . S
N453 N452 1.365 . S
N453 H473 0.862 . S
C454 C449 1.501 . S
C454 H455 0.961 . S
C454 H456 0.961 . S
C454 H457 0.960 . S
H455 C454 0.961 . S
H456 C454 0.961 . S
H457 C454 0.960 . S
C458 N459 1.342 . S
C458 C462 1.401 . S
C458 C463 1.499 . S
N459 Co442 1.989 . S
N459 C458 1.342 . S
N459 N460 1.388 . S
N460 Co443 1.993 . S
N460 N459 1.388 . S
N460 C461 1.346 . S
C461 N460 1.346 . S
C461 C462 1.396 . S
C461 C471 1.510 . S
C462 C458 1.401 . S
C462 C461 1.396 . S
C463 C458 1.499 . S
C463 H464 0.959 . S
C463 H465 0.960 . S
C463 H466 0.961 . S
H464 C463 0.959 . S
H465 C463 0.960 . S
H466 C463 0.961 . S
O467 Co442 1.967 . S
O467 C475 1.258 . S
O468 Co443 1.941 . S
O468 C475 1.266 . S
H469 C471 0.959 . S
H470 C471 0.961 . S
C471 C461 1.510 . S
C471 H469 0.959 . S
C471 H470 0.961 . S
C471 H472 0.960 . S
H472 C471 0.960 . S
H473 N453 0.862 . S
O474 Co442 1.920 . S
O474 C447 1.289 . S
C475 O467 1.258 . S
C475 O468 1.266 . S
Co476 O479 1.970 . S
Co476 N493 1.989 . S
Co476 O501 1.967 . S
Co476 O508 1.920 . S
Co477 O480 1.966 . S
Co477 N486 2.022 . S
Co477 N494 1.993 . S
Co477 O502 1.941 . S
C478 O479 1.258 . S
C478 O480 1.263 . S
O479 Co476 1.970 . S
O479 C478 1.258 . S
O480 Co477 1.966 . S
O480 C478 1.263 . S
C481 O482 1.235 . S
C481 O508 1.289 . S
O482 C481 1.235 . S
C483 C485 1.400 . S
C483 N486 1.351 . S
C483 C488 1.501 . S
C484 C485 1.387 . S
C484 N487 1.341 . S
C485 C483 1.400 . S
C485 C484 1.387 . S
N486 Co477 2.022 . S
N486 C483 1.351 . S
N486 N487 1.365 . S
N487 C484 1.341 . S
N487 N486 1.365 . S
N487 H507 0.862 . S
C488 C483 1.501 . S
C488 H489 0.961 . S
C488 H490 0.961 . S
C488 H491 0.960 . S
H489 C488 0.961 . S
H490 C488 0.961 . S
H491 C488 0.960 . S
C492 N493 1.342 . S
C492 C496 1.401 . S
C492 C497 1.499 . S
N493 Co476 1.989 . S
N493 C492 1.342 . S
N493 N494 1.388 . S
N494 Co477 1.993 . S
N494 N493 1.388 . S
N494 C495 1.346 . S
C495 N494 1.346 . S
C495 C496 1.396 . S
C495 C505 1.510 . S
C496 C492 1.401 . S
C496 C495 1.396 . S
C497 C492 1.499 . S
C497 H498 0.959 . S
C497 H499 0.960 . S
C497 H500 0.961 . S
H498 C497 0.959 . S
H499 C497 0.960 . S
H500 C497 0.961 . S
O501 Co476 1.967 . S
O501 C509 1.258 . S
O502 Co477 1.941 . S
O502 C509 1.266 . S
H503 C505 0.959 . S
H504 C505 0.961 . S
C505 C495 1.510 . S
C505 H503 0.959 . S
C505 H504 0.961 . S
C505 H506 0.960 . S
H506 C505 0.960 . S
H507 N487 0.862 . S
O508 Co476 1.920 . S
O508 C481 1.289 . S
C509 O501 1.258 . S
C509 O502 1.266 . S
Co510 O513 1.970 . S
Co510 N527 1.989 . S
Co510 O535 1.967 . S
Co510 O542 1.920 . S
Co511 O514 1.966 . S
Co511 N520 2.022 . S
Co511 N528 1.993 . S
Co511 O536 1.941 . S
C512 O513 1.258 . S
C512 O514 1.263 . S
O513 Co510 1.970 . S
O513 C512 1.258 . S
O514 Co511 1.966 . S
O514 C512 1.263 . S
C515 O516 1.235 . S
C515 O542 1.289 . S
O516 C515 1.235 . S
C517 C519 1.400 . S
C517 N520 1.351 . S
C517 C522 1.501 . S
C518 C519 1.387 . S
C518 N521 1.341 . S
C519 C517 1.400 . S
C519 C518 1.387 . S
N520 Co511 2.022 . S
N520 C517 1.351 . S
N520 N521 1.365 . S
N521 C518 1.341 . S
N521 N520 1.365 . S
N521 H541 0.862 . S
C522 C517 1.501 . S
C522 H523 0.961 . S
C522 H524 0.961 . S
C522 H525 0.960 . S
H523 C522 0.961 . S
H524 C522 0.961 . S
H525 C522 0.960 . S
C526 N527 1.342 . S
C526 C530 1.401 . S
C526 C531 1.499 . S
N527 Co510 1.989 . S
N527 C526 1.342 . S
N527 N528 1.388 . S
N528 Co511 1.993 . S
N528 N527 1.388 . S
N528 C529 1.346 . S
C529 N528 1.346 . S
C529 C530 1.396 . S
C529 C539 1.510 . S
C530 C526 1.401 . S
C530 C529 1.396 . S
C531 C526 1.499 . S
C531 H532 0.959 . S
C531 H533 0.960 . S
C531 H534 0.961 . S
H532 C531 0.959 . S
H533 C531 0.960 . S
H534 C531 0.961 . S
O535 Co510 1.967 . S
O535 C543 1.258 . S
O536 Co511 1.941 . S
O536 C543 1.266 . S
H537 C539 0.959 . S
H538 C539 0.961 . S
C539 C529 1.510 . S
C539 H537 0.959 . S
C539 H538 0.961 . S
C539 H540 0.960 . S
H540 C539 0.960 . S
H541 N521 0.862 . S
O542 Co510 1.920 . S
O542 C515 1.289 . S
C543 O535 1.258 . S
C543 O536 1.266 . S
Co544 O547 1.970 . S
Co544 N561 1.989 . S
Co544 O569 1.967 . S
Co544 O576 1.920 . S
Co545 O548 1.966 . S
Co545 N554 2.022 . S
Co545 N562 1.993 . S
Co545 O570 1.941 . S
C546 O547 1.258 . S
C546 O548 1.263 . S
O547 Co544 1.970 . S
O547 C546 1.258 . S
O548 Co545 1.966 . S
O548 C546 1.263 . S
C549 O550 1.235 . S
C549 O576 1.289 . S
O550 C549 1.235 . S
C551 C553 1.400 . S
C551 N554 1.351 . S
C551 C556 1.501 . S
C552 C553 1.387 . S
C552 N555 1.341 . S
C553 C551 1.400 . S
C553 C552 1.387 . S
N554 Co545 2.022 . S
N554 C551 1.351 . S
N554 N555 1.365 . S
N555 C552 1.341 . S
N555 N554 1.365 . S
N555 H575 0.862 . S
C556 C551 1.501 . S
C556 H557 0.961 . S
C556 H558 0.961 . S
C556 H559 0.960 . S
H557 C556 0.961 . S
H558 C556 0.961 . S
H559 C556 0.960 . S
C560 N561 1.342 . S
C560 C564 1.401 . S
C560 C565 1.499 . S
N561 Co544 1.989 . S
N561 C560 1.342 . S
N561 N562 1.388 . S
N562 Co545 1.993 . S
N562 N561 1.388 . S
N562 C563 1.346 . S
C563 N562 1.346 . S
C563 C564 1.396 . S
C563 C573 1.510 . S
C564 C560 1.401 . S
C564 C563 1.396 . S
C565 C560 1.499 . S
C565 H566 0.959 . S
C565 H567 0.960 . S
C565 H568 0.961 . S
H566 C565 0.959 . S
H567 C565 0.960 . S
H568 C565 0.961 . S
O569 Co544 1.967 . S
O569 C577 1.258 . S
O570 Co545 1.941 . S
O570 C577 1.266 . S
H571 C573 0.959 . S
H572 C573 0.961 . S
C573 C563 1.510 . S
C573 H571 0.959 . S
C573 H572 0.961 . S
C573 H574 0.960 . S
H574 C573 0.960 . S
H575 N555 0.862 . S
O576 Co544 1.920 . S
O576 C549 1.289 . S
C577 O569 1.258 . S
C577 O570 1.266 . S
Co578 O581 1.970 . S
Co578 N595 1.989 . S
Co578 O603 1.967 . S
Co578 O610 1.920 . S
Co579 O582 1.966 . S
Co579 N588 2.022 . S
Co579 N596 1.993 . S
Co579 O604 1.941 . S
C580 O581 1.258 . S
C580 O582 1.263 . S
O581 Co578 1.970 . S
O581 C580 1.258 . S
O582 Co579 1.966 . S
O582 C580 1.263 . S
C583 O584 1.235 . S
C583 O610 1.289 . S
O584 C583 1.235 . S
C585 C587 1.400 . S
C585 N588 1.351 . S
C585 C590 1.501 . S
C586 C587 1.387 . S
C586 N589 1.341 . S
C587 C585 1.400 . S
C587 C586 1.387 . S
N588 Co579 2.022 . S
N588 C585 1.351 . S
N588 N589 1.365 . S
N589 C586 1.341 . S
N589 N588 1.365 . S
N589 H609 0.862 . S
C590 C585 1.501 . S
C590 H591 0.961 . S
C590 H592 0.961 . S
C590 H593 0.960 . S
H591 C590 0.961 . S
H592 C590 0.961 . S
H593 C590 0.960 . S
C594 N595 1.342 . S
C594 C598 1.401 . S
C594 C599 1.499 . S
N595 Co578 1.989 . S
N595 C594 1.342 . S
N595 N596 1.388 . S
N596 Co579 1.993 . S
N596 N595 1.388 . S
N596 C597 1.346 . S
C597 N596 1.346 . S
C597 C598 1.396 . S
C597 C607 1.510 . S
C598 C594 1.401 . S
C598 C597 1.396 . S
C599 C594 1.499 . S
C599 H600 0.959 . S
C599 H601 0.960 . S
C599 H602 0.961 . S
H600 C599 0.959 . S
H601 C599 0.960 . S
H602 C599 0.961 . S
O603 Co578 1.967 . S
O603 C611 1.258 . S
O604 Co579 1.941 . S
O604 C611 1.266 . S
H605 C607 0.959 . S
H606 C607 0.961 . S
C607 C597 1.510 . S
C607 H605 0.959 . S
C607 H606 0.961 . S
C607 H608 0.960 . S
H608 C607 0.960 . S
H609 N589 0.862 . S
O610 Co578 1.920 . S
O610 C583 1.289 . S
C611 O603 1.258 . S
C611 O604 1.266 . S
Co612 O615 1.970 . S
Co612 N629 1.989 . S
Co612 O637 1.967 . S
Co612 O644 1.920 . S
Co613 O616 1.966 . S
Co613 N622 2.022 . S
Co613 N630 1.993 . S
Co613 O638 1.941 . S
C614 O615 1.258 . S
C614 O616 1.263 . S
O615 Co612 1.970 . S
O615 C614 1.258 . S
O616 Co613 1.966 . S
O616 C614 1.263 . S
C617 O618 1.235 . S
C617 O644 1.289 . S
O618 C617 1.235 . S
C619 C621 1.400 . S
C619 N622 1.351 . S
C619 C624 1.501 . S
C620 C621 1.387 . S
C620 N623 1.341 . S
C621 C619 1.400 . S
C621 C620 1.387 . S
N622 Co613 2.022 . S
N622 C619 1.351 . S
N622 N623 1.365 . S
N623 C620 1.341 . S
N623 N622 1.365 . S
N623 H643 0.862 . S
C624 C619 1.501 . S
C624 H625 0.961 . S
C624 H626 0.961 . S
C624 H627 0.960 . S
H625 C624 0.961 . S
H626 C624 0.961 . S
H627 C624 0.960 . S
C628 N629 1.342 . S
C628 C632 1.401 . S
C628 C633 1.499 . S
N629 Co612 1.989 . S
N629 C628 1.342 . S
N629 N630 1.388 . S
N630 Co613 1.993 . S
N630 N629 1.388 . S
N630 C631 1.346 . S
C631 N630 1.346 . S
C631 C632 1.396 . S
C631 C641 1.510 . S
C632 C628 1.401 . S
C632 C631 1.396 . S
C633 C628 1.499 . S
C633 H634 0.959 . S
C633 H635 0.960 . S
C633 H636 0.961 . S
H634 C633 0.959 . S
H635 C633 0.960 . S
H636 C633 0.961 . S
O637 Co612 1.967 . S
O637 C645 1.258 . S
O638 Co613 1.941 . S
O638 C645 1.266 . S
H639 C641 0.959 . S
H640 C641 0.961 . S
C641 C631 1.510 . S
C641 H639 0.959 . S
C641 H640 0.961 . S
C641 H642 0.960 . S
H642 C641 0.960 . S
H643 N623 0.862 . S
O644 Co612 1.920 . S
O644 C617 1.289 . S
C645 O637 1.258 . S
C645 O638 1.266 . S
Co646 O649 1.970 . S
Co646 N663 1.989 . S
Co646 O671 1.967 . S
Co646 O678 1.920 . S
Co647 O650 1.966 . S
Co647 N656 2.022 . S
Co647 N664 1.993 . S
Co647 O672 1.941 . S
C648 O649 1.258 . S
C648 O650 1.263 . S
O649 Co646 1.970 . S
O649 C648 1.258 . S
O650 Co647 1.966 . S
O650 C648 1.263 . S
C651 O652 1.235 . S
C651 O678 1.289 . S
O652 C651 1.235 . S
C653 C655 1.400 . S
C653 N656 1.351 . S
C653 C658 1.501 . S
C654 C655 1.387 . S
C654 N657 1.341 . S
C655 C653 1.400 . S
C655 C654 1.387 . S
N656 Co647 2.022 . S
N656 C653 1.351 . S
N656 N657 1.365 . S
N657 C654 1.341 . S
N657 N656 1.365 . S
N657 H677 0.862 . S
C658 C653 1.501 . S
C658 H659 0.961 . S
C658 H660 0.961 . S
C658 H661 0.960 . S
H659 C658 0.961 . S
H660 C658 0.961 . S
H661 C658 0.960 . S
C662 N663 1.342 . S
C662 C666 1.401 . S
C662 C667 1.499 . S
N663 Co646 1.989 . S
N663 C662 1.342 . S
N663 N664 1.388 . S
N664 Co647 1.993 . S
N664 N663 1.388 . S
N664 C665 1.346 . S
C665 N664 1.346 . S
C665 C666 1.396 . S
C665 C675 1.510 . S
C666 C662 1.401 . S
C666 C665 1.396 . S
C667 C662 1.499 . S
C667 H668 0.959 . S
C667 H669 0.960 . S
C667 H670 0.961 . S
H668 C667 0.959 . S
H669 C667 0.960 . S
H670 C667 0.961 . S
O671 Co646 1.967 . S
O671 C679 1.258 . S
O672 Co647 1.941 . S
O672 C679 1.266 . S
H673 C675 0.959 . S
H674 C675 0.961 . S
C675 C665 1.510 . S
C675 H673 0.959 . S
C675 H674 0.961 . S
C675 H676 0.960 . S
H676 C675 0.960 . S
H677 N657 0.862 . S
O678 Co646 1.920 . S
O678 C651 1.289 . S
C679 O671 1.258 . S
C679 O672 1.266 . S
Co680 O683 1.970 . S
Co680 N697 1.989 . S
Co680 O705 1.967 . S
Co680 O712 1.920 . S
Co681 O684 1.966 . S
Co681 N690 2.022 . S
Co681 N698 1.993 . S
Co681 O706 1.941 . S
C682 O683 1.258 . S
C682 O684 1.263 . S
O683 Co680 1.970 . S
O683 C682 1.258 . S
O684 Co681 1.966 . S
O684 C682 1.263 . S
C685 O686 1.235 . S
C685 O712 1.289 . S
O686 C685 1.235 . S
C687 C689 1.400 . S
C687 N690 1.351 . S
C687 C692 1.501 . S
C688 C689 1.387 . S
C688 N691 1.341 . S
C689 C687 1.400 . S
C689 C688 1.387 . S
N690 Co681 2.022 . S
N690 C687 1.351 . S
N690 N691 1.365 . S
N691 C688 1.341 . S
N691 N690 1.365 . S
N691 H711 0.862 . S
C692 C687 1.501 . S
C692 H693 0.961 . S
C692 H694 0.961 . S
C692 H695 0.960 . S
H693 C692 0.961 . S
H694 C692 0.961 . S
H695 C692 0.960 . S
C696 N697 1.342 . S
C696 C700 1.401 . S
C696 C701 1.499 . S
N697 Co680 1.989 . S
N697 C696 1.342 . S
N697 N698 1.388 . S
N698 Co681 1.993 . S
N698 N697 1.388 . S
N698 C699 1.346 . S
C699 N698 1.346 . S
C699 C700 1.396 . S
C699 C709 1.510 . S
C700 C696 1.401 . S
C700 C699 1.396 . S
C701 C696 1.499 . S
C701 H702 0.959 . S
C701 H703 0.960 . S
C701 H704 0.961 . S
H702 C701 0.959 . S
H703 C701 0.960 . S
H704 C701 0.961 . S
O705 Co680 1.967 . S
O705 C713 1.258 . S
O706 Co681 1.941 . S
O706 C713 1.266 . S
H707 C709 0.959 . S
H708 C709 0.961 . S
C709 C699 1.510 . S
C709 H707 0.959 . S
C709 H708 0.961 . S
C709 H710 0.960 . S
H710 C709 0.960 . S
H711 N691 0.862 . S
O712 Co680 1.920 . S
O712 C685 1.289 . S
C713 O705 1.258 . S
C713 O706 1.266 . S
Co714 O717 1.970 . S
Co714 N731 1.989 . S
Co714 O739 1.967 . S
Co714 O746 1.920 . S
Co715 O718 1.966 . S
Co715 N724 2.022 . S
Co715 N732 1.993 . S
Co715 O740 1.941 . S
C716 O717 1.258 . S
C716 O718 1.263 . S
O717 Co714 1.970 . S
O717 C716 1.258 . S
O718 Co715 1.966 . S
O718 C716 1.263 . S
C719 O720 1.235 . S
C719 O746 1.289 . S
O720 C719 1.235 . S
C721 C723 1.400 . S
C721 N724 1.351 . S
C721 C726 1.501 . S
C722 C723 1.387 . S
C722 N725 1.341 . S
C723 C721 1.400 . S
C723 C722 1.387 . S
N724 Co715 2.022 . S
N724 C721 1.351 . S
N724 N725 1.365 . S
N725 C722 1.341 . S
N725 N724 1.365 . S
N725 H745 0.862 . S
C726 C721 1.501 . S
C726 H727 0.961 . S
C726 H728 0.961 . S
C726 H729 0.960 . S
H727 C726 0.961 . S
H728 C726 0.961 . S
H729 C726 0.960 . S
C730 N731 1.342 . S
C730 C734 1.401 . S
C730 C735 1.499 . S
N731 Co714 1.989 . S
N731 C730 1.342 . S
N731 N732 1.388 . S
N732 Co715 1.993 . S
N732 N731 1.388 . S
N732 C733 1.346 . S
C733 N732 1.346 . S
C733 C734 1.396 . S
C733 C743 1.510 . S
C734 C730 1.401 . S
C734 C733 1.396 . S
C735 C730 1.499 . S
C735 H736 0.959 . S
C735 H737 0.960 . S
C735 H738 0.961 . S
H736 C735 0.959 . S
H737 C735 0.960 . S
H738 C735 0.961 . S
O739 Co714 1.967 . S
O739 C747 1.258 . S
O740 Co715 1.941 . S
O740 C747 1.266 . S
H741 C743 0.959 . S
H742 C743 0.961 . S
C743 C733 1.510 . S
C743 H741 0.959 . S
C743 H742 0.961 . S
C743 H744 0.960 . S
H744 C743 0.960 . S
H745 N725 0.862 . S
O746 Co714 1.920 . S
O746 C719 1.289 . S
C747 O739 1.258 . S
C747 O740 1.266 . S
Co748 O751 1.970 . S
Co748 N765 1.989 . S
Co748 O773 1.967 . S
Co748 O780 1.920 . S
Co749 O752 1.966 . S
Co749 N758 2.022 . S
Co749 N766 1.993 . S
Co749 O774 1.941 . S
C750 O751 1.258 . S
C750 O752 1.263 . S
O751 Co748 1.970 . S
O751 C750 1.258 . S
O752 Co749 1.966 . S
O752 C750 1.263 . S
C753 O754 1.235 . S
C753 O780 1.289 . S
O754 C753 1.235 . S
C755 C757 1.400 . S
C755 N758 1.351 . S
C755 C760 1.501 . S
C756 C757 1.387 . S
C756 N759 1.341 . S
C757 C755 1.400 . S
C757 C756 1.387 . S
N758 Co749 2.022 . S
N758 C755 1.351 . S
N758 N759 1.365 . S
N759 C756 1.341 . S
N759 N758 1.365 . S
N759 H779 0.862 . S
C760 C755 1.501 . S
C760 H761 0.961 . S
C760 H762 0.961 . S
C760 H763 0.960 . S
H761 C760 0.961 . S
H762 C760 0.961 . S
H763 C760 0.960 . S
C764 N765 1.342 . S
C764 C768 1.401 . S
C764 C769 1.499 . S
N765 Co748 1.989 . S
N765 C764 1.342 . S
N765 N766 1.388 . S
N766 Co749 1.993 . S
N766 N765 1.388 . S
N766 C767 1.346 . S
C767 N766 1.346 . S
C767 C768 1.396 . S
C767 C777 1.510 . S
C768 C764 1.401 . S
C768 C767 1.396 . S
C769 C764 1.499 . S
C769 H770 0.959 . S
C769 H771 0.960 . S
C769 H772 0.961 . S
H770 C769 0.959 . S
H771 C769 0.960 . S
H772 C769 0.961 . S
O773 Co748 1.967 . S
O773 C781 1.258 . S
O774 Co749 1.941 . S
O774 C781 1.266 . S
H775 C777 0.959 . S
H776 C777 0.961 . S
C777 C767 1.510 . S
C777 H775 0.959 . S
C777 H776 0.961 . S
C777 H778 0.960 . S
H778 C777 0.960 . S
H779 N759 0.862 . S
O780 Co748 1.920 . S
O780 C753 1.289 . S
C781 O773 1.258 . S
C781 O774 1.266 . S
Co782 O785 1.970 . S
Co782 N799 1.989 . S
Co782 O807 1.967 . S
Co782 O814 1.920 . S
Co783 O786 1.966 . S
Co783 N792 2.022 . S
Co783 N800 1.993 . S
Co783 O808 1.941 . S
C784 O785 1.258 . S
C784 O786 1.263 . S
O785 Co782 1.970 . S
O785 C784 1.258 . S
O786 Co783 1.966 . S
O786 C784 1.263 . S
C787 O788 1.235 . S
C787 O814 1.289 . S
O788 C787 1.235 . S
C789 C791 1.400 . S
C789 N792 1.351 . S
C789 C794 1.501 . S
C790 C791 1.387 . S
C790 N793 1.341 . S
C791 C789 1.400 . S
C791 C790 1.387 . S
N792 Co783 2.022 . S
N792 C789 1.351 . S
N792 N793 1.365 . S
N793 C790 1.341 . S
N793 N792 1.365 . S
N793 H813 0.862 . S
C794 C789 1.501 . S
C794 H795 0.961 . S
C794 H796 0.961 . S
C794 H797 0.960 . S
H795 C794 0.961 . S
H796 C794 0.961 . S
H797 C794 0.960 . S
C798 N799 1.342 . S
C798 C802 1.401 . S
C798 C803 1.499 . S
N799 Co782 1.989 . S
N799 C798 1.342 . S
N799 N800 1.388 . S
N800 Co783 1.993 . S
N800 N799 1.388 . S
N800 C801 1.346 . S
C801 N800 1.346 . S
C801 C802 1.396 . S
C801 C811 1.510 . S
C802 C798 1.401 . S
C802 C801 1.396 . S
C803 C798 1.499 . S
C803 H804 0.959 . S
C803 H805 0.960 . S
C803 H806 0.961 . S
H804 C803 0.959 . S
H805 C803 0.960 . S
H806 C803 0.961 . S
O807 Co782 1.967 . S
O807 C815 1.258 . S
O808 Co783 1.941 . S
O808 C815 1.266 . S
H809 C811 0.959 . S
H810 C811 0.961 . S
C811 C801 1.510 . S
C811 H809 0.959 . S
C811 H810 0.961 . S
C811 H812 0.960 . S
H812 C811 0.960 . S
H813 N793 0.862 . S
O814 Co782 1.920 . S
O814 C787 1.289 . S
C815 O807 1.258 . S
C815 O808 1.266 . S
Co816 O819 1.970 . S
Co816 N833 1.989 . S
Co816 O841 1.967 . S
Co816 O848 1.920 . S
Co817 O820 1.966 . S
Co817 N826 2.022 . S
Co817 N834 1.993 . S
Co817 O842 1.941 . S
C818 O819 1.258 . S
C818 O820 1.263 . S
O819 Co816 1.970 . S
O819 C818 1.258 . S
O820 Co817 1.966 . S
O820 C818 1.263 . S
C821 O822 1.235 . S
C821 O848 1.289 . S
O822 C821 1.235 . S
C823 C825 1.400 . S
C823 N826 1.351 . S
C823 C828 1.501 . S
C824 C825 1.387 . S
C824 N827 1.341 . S
C825 C823 1.400 . S
C825 C824 1.387 . S
N826 Co817 2.022 . S
N826 C823 1.351 . S
N826 N827 1.365 . S
N827 C824 1.341 . S
N827 N826 1.365 . S
N827 H847 0.862 . S
C828 C823 1.501 . S
C828 H829 0.961 . S
C828 H830 0.961 . S
C828 H831 0.960 . S
H829 C828 0.961 . S
H830 C828 0.961 . S
H831 C828 0.960 . S
C832 N833 1.342 . S
C832 C836 1.401 . S
C832 C837 1.499 . S
N833 Co816 1.989 . S
N833 C832 1.342 . S
N833 N834 1.388 . S
N834 Co817 1.993 . S
N834 N833 1.388 . S
N834 C835 1.346 . S
C835 N834 1.346 . S
C835 C836 1.396 . S
C835 C845 1.510 . S
C836 C832 1.401 . S
C836 C835 1.396 . S
C837 C832 1.499 . S
C837 H838 0.959 . S
C837 H839 0.960 . S
C837 H840 0.961 . S
H838 C837 0.959 . S
H839 C837 0.960 . S
H840 C837 0.961 . S
O841 Co816 1.967 . S
O841 C849 1.258 . S
O842 Co817 1.941 . S
O842 C849 1.266 . S
H843 C845 0.959 . S
H844 C845 0.961 . S
C845 C835 1.510 . S
C845 H843 0.959 . S
C845 H844 0.961 . S
C845 H846 0.960 . S
H846 C845 0.960 . S
H847 N827 0.862 . S
O848 Co816 1.920 . S
O848 C821 1.289 . S
C849 O841 1.258 . S
C849 O842 1.266 . S
Co850 O853 1.970 . S
Co850 N867 1.989 . S
Co850 O875 1.967 . S
Co850 O882 1.920 . S
Co851 O854 1.966 . S
Co851 N860 2.022 . S
Co851 N868 1.993 . S
Co851 O876 1.941 . S
C852 O853 1.258 . S
C852 O854 1.263 . S
O853 Co850 1.970 . S
O853 C852 1.258 . S
O854 Co851 1.966 . S
O854 C852 1.263 . S
C855 O856 1.235 . S
C855 O882 1.289 . S
O856 C855 1.235 . S
C857 C859 1.400 . S
C857 N860 1.351 . S
C857 C862 1.501 . S
C858 C859 1.387 . S
C858 N861 1.341 . S
C859 C857 1.400 . S
C859 C858 1.387 . S
N860 Co851 2.022 . S
N860 C857 1.351 . S
N860 N861 1.365 . S
N861 C858 1.341 . S
N861 N860 1.365 . S
N861 H881 0.862 . S
C862 C857 1.501 . S
C862 H863 0.961 . S
C862 H864 0.961 . S
C862 H865 0.960 . S
H863 C862 0.961 . S
H864 C862 0.961 . S
H865 C862 0.960 . S
C866 N867 1.342 . S
C866 C870 1.401 . S
C866 C871 1.499 . S
N867 Co850 1.989 . S
N867 C866 1.342 . S
N867 N868 1.388 . S
N868 Co851 1.993 . S
N868 N867 1.388 . S
N868 C869 1.346 . S
C869 N868 1.346 . S
C869 C870 1.396 . S
C869 C879 1.510 . S
C870 C866 1.401 . S
C870 C869 1.396 . S
C871 C866 1.499 . S
C871 H872 0.959 . S
C871 H873 0.960 . S
C871 H874 0.961 . S
H872 C871 0.959 . S
H873 C871 0.960 . S
H874 C871 0.961 . S
O875 Co850 1.967 . S
O875 C883 1.258 . S
O876 Co851 1.941 . S
O876 C883 1.266 . S
H877 C879 0.959 . S
H878 C879 0.961 . S
C879 C869 1.510 . S
C879 H877 0.959 . S
C879 H878 0.961 . S
C879 H880 0.960 . S
H880 C879 0.960 . S
H881 N861 0.862 . S
O882 Co850 1.920 . S
O882 C855 1.289 . S
C883 O875 1.258 . S
C883 O876 1.266 . S
Co884 O887 1.970 . S
Co884 N901 1.989 . S
Co884 O909 1.967 . S
Co884 O916 1.920 . S
Co885 O888 1.966 . S
Co885 N894 2.022 . S
Co885 N902 1.993 . S
Co885 O910 1.941 . S
C886 O887 1.258 . S
C886 O888 1.263 . S
O887 Co884 1.970 . S
O887 C886 1.258 . S
O888 Co885 1.966 . S
O888 C886 1.263 . S
C889 O890 1.235 . S
C889 O916 1.289 . S
O890 C889 1.235 . S
C891 C893 1.400 . S
C891 N894 1.351 . S
C891 C896 1.501 . S
C892 C893 1.387 . S
C892 N895 1.341 . S
C893 C891 1.400 . S
C893 C892 1.387 . S
N894 Co885 2.022 . S
N894 C891 1.351 . S
N894 N895 1.365 . S
N895 C892 1.341 . S
N895 N894 1.365 . S
N895 H915 0.862 . S
C896 C891 1.501 . S
C896 H897 0.961 . S
C896 H898 0.961 . S
C896 H899 0.960 . S
H897 C896 0.961 . S
H898 C896 0.961 . S
H899 C896 0.960 . S
C900 N901 1.342 . S
C900 C904 1.401 . S
C900 C905 1.499 . S
N901 Co884 1.989 . S
N901 C900 1.342 . S
N901 N902 1.388 . S
N902 Co885 1.993 . S
N902 N901 1.388 . S
N902 C903 1.346 . S
C903 N902 1.346 . S
C903 C904 1.396 . S
C903 C913 1.510 . S
C904 C900 1.401 . S
C904 C903 1.396 . S
C905 C900 1.499 . S
C905 H906 0.959 . S
C905 H907 0.960 . S
C905 H908 0.961 . S
H906 C905 0.959 . S
H907 C905 0.960 . S
H908 C905 0.961 . S
O909 Co884 1.967 . S
O909 C917 1.258 . S
O910 Co885 1.941 . S
O910 C917 1.266 . S
H911 C913 0.959 . S
H912 C913 0.961 . S
C913 C903 1.510 . S
C913 H911 0.959 . S
C913 H912 0.961 . S
C913 H914 0.960 . S
H914 C913 0.960 . S
H915 N895 0.862 . S
O916 Co884 1.920 . S
O916 C889 1.289 . S
C917 O909 1.258 . S
C917 O910 1.266 . S
Co918 O921 1.970 . S
Co918 N935 1.989 . S
Co918 O943 1.967 . S
Co918 O950 1.920 . S
Co919 O922 1.966 . S
Co919 N928 2.022 . S
Co919 N936 1.993 . S
Co919 O944 1.941 . S
C920 O921 1.258 . S
C920 O922 1.263 . S
O921 Co918 1.970 . S
O921 C920 1.258 . S
O922 Co919 1.966 . S
O922 C920 1.263 . S
C923 O924 1.235 . S
C923 O950 1.289 . S
O924 C923 1.235 . S
C925 C927 1.400 . S
C925 N928 1.351 . S
C925 C930 1.501 . S
C926 C927 1.387 . S
C926 N929 1.341 . S
C927 C925 1.400 . S
C927 C926 1.387 . S
N928 Co919 2.022 . S
N928 C925 1.351 . S
N928 N929 1.365 . S
N929 C926 1.341 . S
N929 N928 1.365 . S
N929 H949 0.862 . S
C930 C925 1.501 . S
C930 H931 0.961 . S
C930 H932 0.961 . S
C930 H933 0.960 . S
H931 C930 0.961 . S
H932 C930 0.961 . S
H933 C930 0.960 . S
C934 N935 1.342 . S
C934 C938 1.401 . S
C934 C939 1.499 . S
N935 Co918 1.989 . S
N935 C934 1.342 . S
N935 N936 1.388 . S
N936 Co919 1.993 . S
N936 N935 1.388 . S
N936 C937 1.346 . S
C937 N936 1.346 . S
C937 C938 1.396 . S
C937 C947 1.510 . S
C938 C934 1.401 . S
C938 C937 1.396 . S
C939 C934 1.499 . S
C939 H940 0.959 . S
C939 H941 0.960 . S
C939 H942 0.961 . S
H940 C939 0.959 . S
H941 C939 0.960 . S
H942 C939 0.961 . S
O943 Co918 1.967 . S
O943 C951 1.258 . S
O944 Co919 1.941 . S
O944 C951 1.266 . S
H945 C947 0.959 . S
H946 C947 0.961 . S
C947 C937 1.510 . S
C947 H945 0.959 . S
C947 H946 0.961 . S
C947 H948 0.960 . S
H948 C947 0.960 . S
H949 N929 0.862 . S
O950 Co918 1.920 . S
O950 C923 1.289 . S
C951 O943 1.258 . S
C951 O944 1.266 . S
Co952 O955 1.970 . S
Co952 N969 1.989 . S
Co952 O977 1.967 . S
Co952 O984 1.920 . S
Co953 O956 1.966 . S
Co953 N962 2.022 . S
Co953 N970 1.993 . S
Co953 O978 1.941 . S
C954 O955 1.258 . S
C954 O956 1.263 . S
O955 Co952 1.970 . S
O955 C954 1.258 . S
O956 Co953 1.966 . S
O956 C954 1.263 . S
C957 O958 1.235 . S
C957 O984 1.289 . S
O958 C957 1.235 . S
C959 C961 1.400 . S
C959 N962 1.351 . S
C959 C964 1.501 . S
C960 C961 1.387 . S
C960 N963 1.341 . S
C961 C959 1.400 . S
C961 C960 1.387 . S
N962 Co953 2.022 . S
N962 C959 1.351 . S
N962 N963 1.365 . S
N963 C960 1.341 . S
N963 N962 1.365 . S
N963 H983 0.862 . S
C964 C959 1.501 . S
C964 H965 0.961 . S
C964 H966 0.961 . S
C964 H967 0.960 . S
H965 C964 0.961 . S
H966 C964 0.961 . S
H967 C964 0.960 . S
C968 N969 1.342 . S
C968 C972 1.401 . S
C968 C973 1.499 . S
N969 Co952 1.989 . S
N969 C968 1.342 . S
N969 N970 1.388 . S
N970 Co953 1.993 . S
N970 N969 1.388 . S
N970 C971 1.346 . S
C971 N970 1.346 . S
C971 C972 1.396 . S
C971 C981 1.510 . S
C972 C968 1.401 . S
C972 C971 1.396 . S
C973 C968 1.499 . S
C973 H974 0.959 . S
C973 H975 0.960 . S
C973 H976 0.961 . S
H974 C973 0.959 . S
H975 C973 0.960 . S
H976 C973 0.961 . S
O977 Co952 1.967 . S
O977 C985 1.258 . S
O978 Co953 1.941 . S
O978 C985 1.266 . S
H979 C981 0.959 . S
H980 C981 0.961 . S
C981 C971 1.510 . S
C981 H979 0.959 . S
C981 H980 0.961 . S
C981 H982 0.960 . S
H982 C981 0.960 . S
H983 N963 0.862 . S
O984 Co952 1.920 . S
O984 C957 1.289 . S
C985 O977 1.258 . S
C985 O978 1.266 . S
Co986 O989 1.970 . S
Co986 N1003 1.989 . S
Co986 O1011 1.967 . S
Co986 O1018 1.920 . S
Co987 O990 1.966 . S
Co987 N996 2.022 . S
Co987 N1004 1.993 . S
Co987 O1012 1.941 . S
C988 O989 1.258 . S
C988 O990 1.263 . S
O989 Co986 1.970 . S
O989 C988 1.258 . S
O990 Co987 1.966 . S
O990 C988 1.263 . S
C991 O992 1.235 . S
C991 O1018 1.289 . S
O992 C991 1.235 . S
C993 C995 1.400 . S
C993 N996 1.351 . S
C993 C998 1.501 . S
C994 C995 1.387 . S
C994 N997 1.341 . S
C995 C993 1.400 . S
C995 C994 1.387 . S
N996 Co987 2.022 . S
N996 C993 1.351 . S
N996 N997 1.365 . S
N997 C994 1.341 . S
N997 N996 1.365 . S
N997 H1017 0.862 . S
C998 C993 1.501 . S
C998 H999 0.961 . S
C998 H1000 0.961 . S
C998 H1001 0.960 . S
H999 C998 0.961 . S
H1000 C998 0.961 . S
H1001 C998 0.960 . S
C1002 N1003 1.342 . S
C1002 C1006 1.401 . S
C1002 C1007 1.499 . S
N1003 Co986 1.989 . S
N1003 C1002 1.342 . S
N1003 N1004 1.388 . S
N1004 Co987 1.993 . S
N1004 N1003 1.388 . S
N1004 C1005 1.346 . S
C1005 N1004 1.346 . S
C1005 C1006 1.396 . S
C1005 C1015 1.510 . S
C1006 C1002 1.401 . S
C1006 C1005 1.396 . S
C1007 C1002 1.499 . S
C1007 H1008 0.959 . S
C1007 H1009 0.960 . S
C1007 H1010 0.961 . S
H1008 C1007 0.959 . S
H1009 C1007 0.960 . S
H1010 C1007 0.961 . S
O1011 Co986 1.967 . S
O1011 C1019 1.258 . S
O1012 Co987 1.941 . S
O1012 C1019 1.266 . S
H1013 C1015 0.959 . S
H1014 C1015 0.961 . S
C1015 C1005 1.510 . S
C1015 H1013 0.959 . S
C1015 H1014 0.961 . S
C1015 H1016 0.960 . S
H1016 C1015 0.960 . S
H1017 N997 0.862 . S
O1018 Co986 1.920 . S
O1018 C991 1.289 . S
C1019 O1011 1.258 . S
C1019 O1012 1.266 . S
Co1020 O1023 1.970 . S
Co1020 N1037 1.989 . S
Co1020 O1045 1.967 . S
Co1020 O1052 1.920 . S
Co1021 O1024 1.966 . S
Co1021 N1030 2.022 . S
Co1021 N1038 1.993 . S
Co1021 O1046 1.941 . S
C1022 O1023 1.258 . S
C1022 O1024 1.263 . S
O1023 Co1020 1.970 . S
O1023 C1022 1.258 . S
O1024 Co1021 1.966 . S
O1024 C1022 1.263 . S
C1025 O1026 1.235 . S
C1025 O1052 1.289 . S
O1026 C1025 1.235 . S
C1027 C1029 1.400 . S
C1027 N1030 1.351 . S
C1027 C1032 1.501 . S
C1028 C1029 1.387 . S
C1028 N1031 1.341 . S
C1029 C1027 1.400 . S
C1029 C1028 1.387 . S
N1030 Co1021 2.022 . S
N1030 C1027 1.351 . S
N1030 N1031 1.365 . S
N1031 C1028 1.341 . S
N1031 N1030 1.365 . S
N1031 H1051 0.862 . S
C1032 C1027 1.501 . S
C1032 H1033 0.961 . S
C1032 H1034 0.961 . S
C1032 H1035 0.960 . S
H1033 C1032 0.961 . S
H1034 C1032 0.961 . S
H1035 C1032 0.960 . S
C1036 N1037 1.342 . S
C1036 C1040 1.401 . S
C1036 C1041 1.499 . S
N1037 Co1020 1.989 . S
N1037 C1036 1.342 . S
N1037 N1038 1.388 . S
N1038 Co1021 1.993 . S
N1038 N1037 1.388 . S
N1038 C1039 1.346 . S
C1039 N1038 1.346 . S
C1039 C1040 1.396 . S
C1039 C1049 1.510 . S
C1040 C1036 1.401 . S
C1040 C1039 1.396 . S
C1041 C1036 1.499 . S
C1041 H1042 0.959 . S
C1041 H1043 0.960 . S
C1041 H1044 0.961 . S
H1042 C1041 0.959 . S
H1043 C1041 0.960 . S
H1044 C1041 0.961 . S
O1045 Co1020 1.967 . S
O1045 C1053 1.258 . S
O1046 Co1021 1.941 . S
O1046 C1053 1.266 . S
H1047 C1049 0.959 . S
H1048 C1049 0.961 . S
C1049 C1039 1.510 . S
C1049 H1047 0.959 . S
C1049 H1048 0.961 . S
C1049 H1050 0.960 . S
H1050 C1049 0.960 . S
H1051 N1031 0.862 . S
O1052 Co1020 1.920 . S
O1052 C1025 1.289 . S
C1053 O1045 1.258 . S
C1053 O1046 1.266 . S
Co1054 O1057 1.970 . S
Co1054 N1071 1.989 . S
Co1054 O1079 1.967 . S
Co1054 O1086 1.920 . S
Co1055 O1058 1.966 . S
Co1055 N1064 2.022 . S
Co1055 N1072 1.993 . S
Co1055 O1080 1.941 . S
C1056 O1057 1.258 . S
C1056 O1058 1.263 . S
O1057 Co1054 1.970 . S
O1057 C1056 1.258 . S
O1058 Co1055 1.966 . S
O1058 C1056 1.263 . S
C1059 O1060 1.235 . S
C1059 O1086 1.289 . S
O1060 C1059 1.235 . S
C1061 C1063 1.400 . S
C1061 N1064 1.351 . S
C1061 C1066 1.501 . S
C1062 C1063 1.387 . S
C1062 N1065 1.341 . S
C1063 C1061 1.400 . S
C1063 C1062 1.387 . S
N1064 Co1055 2.022 . S
N1064 C1061 1.351 . S
N1064 N1065 1.365 . S
N1065 C1062 1.341 . S
N1065 N1064 1.365 . S
N1065 H1085 0.862 . S
C1066 C1061 1.501 . S
C1066 H1067 0.961 . S
C1066 H1068 0.961 . S
C1066 H1069 0.960 . S
H1067 C1066 0.961 . S
H1068 C1066 0.961 . S
H1069 C1066 0.960 . S
C1070 N1071 1.342 . S
C1070 C1074 1.401 . S
C1070 C1075 1.499 . S
N1071 Co1054 1.989 . S
N1071 C1070 1.342 . S
N1071 N1072 1.388 . S
N1072 Co1055 1.993 . S
N1072 N1071 1.388 . S
N1072 C1073 1.346 . S
C1073 N1072 1.346 . S
C1073 C1074 1.396 . S
C1073 C1083 1.510 . S
C1074 C1070 1.401 . S
C1074 C1073 1.396 . S
C1075 C1070 1.499 . S
C1075 H1076 0.959 . S
C1075 H1077 0.960 . S
C1075 H1078 0.961 . S
H1076 C1075 0.959 . S
H1077 C1075 0.960 . S
H1078 C1075 0.961 . S
O1079 Co1054 1.967 . S
O1079 C1087 1.258 . S
O1080 Co1055 1.941 . S
O1080 C1087 1.266 . S
H1081 C1083 0.959 . S
H1082 C1083 0.961 . S
C1083 C1073 1.510 . S
C1083 H1081 0.959 . S
C1083 H1082 0.961 . S
C1083 H1084 0.960 . S
H1084 C1083 0.960 . S
H1085 N1065 0.862 . S
O1086 Co1054 1.920 . S
O1086 C1059 1.289 . S
C1087 O1079 1.258 . S
C1087 O1080 1.266 . S
Co1088 O1091 1.970 . S
Co1088 N1105 1.989 . S
Co1088 O1113 1.967 . S
Co1088 O1120 1.920 . S
Co1089 O1092 1.966 . S
Co1089 N1098 2.022 . S
Co1089 N1106 1.993 . S
Co1089 O1114 1.941 . S
C1090 O1091 1.258 . S
C1090 O1092 1.263 . S
O1091 Co1088 1.970 . S
O1091 C1090 1.258 . S
O1092 Co1089 1.966 . S
O1092 C1090 1.263 . S
C1093 O1094 1.235 . S
C1093 O1120 1.289 . S
O1094 C1093 1.235 . S
C1095 C1097 1.400 . S
C1095 N1098 1.351 . S
C1095 C1100 1.501 . S
C1096 C1097 1.387 . S
C1096 N1099 1.341 . S
C1097 C1095 1.400 . S
C1097 C1096 1.387 . S
N1098 Co1089 2.022 . S
N1098 C1095 1.351 . S
N1098 N1099 1.365 . S
N1099 C1096 1.341 . S
N1099 N1098 1.365 . S
N1099 H1119 0.862 . S
C1100 C1095 1.501 . S
C1100 H1101 0.961 . S
C1100 H1102 0.961 . S
C1100 H1103 0.960 . S
H1101 C1100 0.961 . S
H1102 C1100 0.961 . S
H1103 C1100 0.960 . S
C1104 N1105 1.342 . S
C1104 C1108 1.401 . S
C1104 C1109 1.499 . S
N1105 Co1088 1.989 . S
N1105 C1104 1.342 . S
N1105 N1106 1.388 . S
N1106 Co1089 1.993 . S
N1106 N1105 1.388 . S
N1106 C1107 1.346 . S
C1107 N1106 1.346 . S
C1107 C1108 1.396 . S
C1107 C1117 1.510 . S
C1108 C1104 1.401 . S
C1108 C1107 1.396 . S
C1109 C1104 1.499 . S
C1109 H1110 0.959 . S
C1109 H1111 0.960 . S
C1109 H1112 0.961 . S
H1110 C1109 0.959 . S
H1111 C1109 0.960 . S
H1112 C1109 0.961 . S
O1113 Co1088 1.967 . S
O1113 C1121 1.258 . S
O1114 Co1089 1.941 . S
O1114 C1121 1.266 . S
H1115 C1117 0.959 . S
H1116 C1117 0.961 . S
C1117 C1107 1.510 . S
C1117 H1115 0.959 . S
C1117 H1116 0.961 . S
C1117 H1118 0.960 . S
H1118 C1117 0.960 . S
H1119 N1099 0.862 . S
O1120 Co1088 1.920 . S
O1120 C1093 1.289 . S
C1121 O1113 1.258 . S
C1121 O1114 1.266 . S
Co1122 O1125 1.970 . S
Co1122 N1139 1.989 . S
Co1122 O1147 1.967 . S
Co1122 O1154 1.920 . S
Co1123 O1126 1.966 . S
Co1123 N1132 2.022 . S
Co1123 N1140 1.993 . S
Co1123 O1148 1.941 . S
C1124 O1125 1.258 . S
C1124 O1126 1.263 . S
O1125 Co1122 1.970 . S
O1125 C1124 1.258 . S
O1126 Co1123 1.966 . S
O1126 C1124 1.263 . S
C1127 O1128 1.235 . S
C1127 O1154 1.289 . S
O1128 C1127 1.235 . S
C1129 C1131 1.400 . S
C1129 N1132 1.351 . S
C1129 C1134 1.501 . S
C1130 C1131 1.387 . S
C1130 N1133 1.341 . S
C1131 C1129 1.400 . S
C1131 C1130 1.387 . S
N1132 Co1123 2.022 . S
N1132 C1129 1.351 . S
N1132 N1133 1.365 . S
N1133 C1130 1.341 . S
N1133 N1132 1.365 . S
N1133 H1153 0.862 . S
C1134 C1129 1.501 . S
C1134 H1135 0.961 . S
C1134 H1136 0.961 . S
C1134 H1137 0.960 . S
H1135 C1134 0.961 . S
H1136 C1134 0.961 . S
H1137 C1134 0.960 . S
C1138 N1139 1.342 . S
C1138 C1142 1.401 . S
C1138 C1143 1.499 . S
N1139 Co1122 1.989 . S
N1139 C1138 1.342 . S
N1139 N1140 1.388 . S
N1140 Co1123 1.993 . S
N1140 N1139 1.388 . S
N1140 C1141 1.346 . S
C1141 N1140 1.346 . S
C1141 C1142 1.396 . S
C1141 C1151 1.510 . S
C1142 C1138 1.401 . S
C1142 C1141 1.396 . S
C1143 C1138 1.499 . S
C1143 H1144 0.959 . S
C1143 H1145 0.960 . S
C1143 H1146 0.961 . S
H1144 C1143 0.959 . S
H1145 C1143 0.960 . S
H1146 C1143 0.961 . S
O1147 Co1122 1.967 . S
O1147 C1155 1.258 . S
O1148 Co1123 1.941 . S
O1148 C1155 1.266 . S
H1149 C1151 0.959 . S
H1150 C1151 0.961 . S
C1151 C1141 1.510 . S
C1151 H1149 0.959 . S
C1151 H1150 0.961 . S
C1151 H1152 0.960 . S
H1152 C1151 0.960 . S
H1153 N1133 0.862 . S
O1154 Co1122 1.920 . S
O1154 C1127 1.289 . S
C1155 O1147 1.258 . S
C1155 O1148 1.266 . S
Co1156 O1159 1.970 . S
Co1156 N1173 1.989 . S
Co1156 O1181 1.967 . S
Co1156 O1188 1.920 . S
Co1157 O1160 1.966 . S
Co1157 N1166 2.022 . S
Co1157 N1174 1.993 . S
Co1157 O1182 1.941 . S
C1158 O1159 1.258 . S
C1158 O1160 1.263 . S
O1159 Co1156 1.970 . S
O1159 C1158 1.258 . S
O1160 Co1157 1.966 . S
O1160 C1158 1.263 . S
C1161 O1162 1.235 . S
C1161 O1188 1.289 . S
O1162 C1161 1.235 . S
C1163 C1165 1.400 . S
C1163 N1166 1.351 . S
C1163 C1168 1.501 . S
C1164 C1165 1.387 . S
C1164 N1167 1.341 . S
C1165 C1163 1.400 . S
C1165 C1164 1.387 . S
N1166 Co1157 2.022 . S
N1166 C1163 1.351 . S
N1166 N1167 1.365 . S
N1167 C1164 1.341 . S
N1167 N1166 1.365 . S
N1167 H1187 0.862 . S
C1168 C1163 1.501 . S
C1168 H1169 0.961 . S
C1168 H1170 0.961 . S
C1168 H1171 0.960 . S
H1169 C1168 0.961 . S
H1170 C1168 0.961 . S
H1171 C1168 0.960 . S
C1172 N1173 1.342 . S
C1172 C1176 1.401 . S
C1172 C1177 1.499 . S
N1173 Co1156 1.989 . S
N1173 C1172 1.342 . S
N1173 N1174 1.388 . S
N1174 Co1157 1.993 . S
N1174 N1173 1.388 . S
N1174 C1175 1.346 . S
C1175 N1174 1.346 . S
C1175 C1176 1.396 . S
C1175 C1185 1.510 . S
C1176 C1172 1.401 . S
C1176 C1175 1.396 . S
C1177 C1172 1.499 . S
C1177 H1178 0.959 . S
C1177 H1179 0.960 . S
C1177 H1180 0.961 . S
H1178 C1177 0.959 . S
H1179 C1177 0.960 . S
H1180 C1177 0.961 . S
O1181 Co1156 1.967 . S
O1181 C1189 1.258 . S
O1182 Co1157 1.941 . S
O1182 C1189 1.266 . S
H1183 C1185 0.959 . S
H1184 C1185 0.961 . S
C1185 C1175 1.510 . S
C1185 H1183 0.959 . S
C1185 H1184 0.961 . S
C1185 H1186 0.960 . S
H1186 C1185 0.960 . S
H1187 N1167 0.862 . S
O1188 Co1156 1.920 . S
O1188 C1161 1.289 . S
C1189 O1181 1.258 . S
C1189 O1182 1.266 . S
Co1190 O1193 1.970 . S
Co1190 N1207 1.989 . S
Co1190 O1215 1.967 . S
Co1190 O1222 1.920 . S
Co1191 O1194 1.966 . S
Co1191 N1200 2.022 . S
Co1191 N1208 1.993 . S
Co1191 O1216 1.941 . S
C1192 O1193 1.258 . S
C1192 O1194 1.263 . S
O1193 Co1190 1.970 . S
O1193 C1192 1.258 . S
O1194 Co1191 1.966 . S
O1194 C1192 1.263 . S
C1195 O1196 1.235 . S
C1195 O1222 1.289 . S
O1196 C1195 1.235 . S
C1197 C1199 1.400 . S
C1197 N1200 1.351 . S
C1197 C1202 1.501 . S
C1198 C1199 1.387 . S
C1198 N1201 1.341 . S
C1199 C1197 1.400 . S
C1199 C1198 1.387 . S
N1200 Co1191 2.022 . S
N1200 C1197 1.351 . S
N1200 N1201 1.365 . S
N1201 C1198 1.341 . S
N1201 N1200 1.365 . S
N1201 H1221 0.862 . S
C1202 C1197 1.501 . S
C1202 H1203 0.961 . S
C1202 H1204 0.961 . S
C1202 H1205 0.960 . S
H1203 C1202 0.961 . S
H1204 C1202 0.961 . S
H1205 C1202 0.960 . S
C1206 N1207 1.342 . S
C1206 C1210 1.401 . S
C1206 C1211 1.499 . S
N1207 Co1190 1.989 . S
N1207 C1206 1.342 . S
N1207 N1208 1.388 . S
N1208 Co1191 1.993 . S
N1208 N1207 1.388 . S
N1208 C1209 1.346 . S
C1209 N1208 1.346 . S
C1209 C1210 1.396 . S
C1209 C1219 1.510 . S
C1210 C1206 1.401 . S
C1210 C1209 1.396 . S
C1211 C1206 1.499 . S
C1211 H1212 0.959 . S
C1211 H1213 0.960 . S
C1211 H1214 0.961 . S
H1212 C1211 0.959 . S
H1213 C1211 0.960 . S
H1214 C1211 0.961 . S
O1215 Co1190 1.967 . S
O1215 C1223 1.258 . S
O1216 Co1191 1.941 . S
O1216 C1223 1.266 . S
H1217 C1219 0.959 . S
H1218 C1219 0.961 . S
C1219 C1209 1.510 . S
C1219 H1217 0.959 . S
C1219 H1218 0.961 . S
C1219 H1220 0.960 . S
H1220 C1219 0.960 . S
H1221 N1201 0.862 . S
O1222 Co1190 1.920 . S
O1222 C1195 1.289 . S
C1223 O1215 1.258 . S
C1223 O1216 1.266 . S
Co1224 O1227 1.970 . S
Co1224 N1241 1.989 . S
Co1224 O1249 1.967 . S
Co1224 O1256 1.920 . S
Co1225 O1228 1.966 . S
Co1225 N1234 2.022 . S
Co1225 N1242 1.993 . S
Co1225 O1250 1.941 . S
C1226 O1227 1.258 . S
C1226 O1228 1.263 . S
O1227 Co1224 1.970 . S
O1227 C1226 1.258 . S
O1228 Co1225 1.966 . S
O1228 C1226 1.263 . S
C1229 O1230 1.235 . S
C1229 O1256 1.289 . S
O1230 C1229 1.235 . S
C1231 C1233 1.400 . S
C1231 N1234 1.351 . S
C1231 C1236 1.501 . S
C1232 C1233 1.387 . S
C1232 N1235 1.341 . S
C1233 C1231 1.400 . S
C1233 C1232 1.387 . S
N1234 Co1225 2.022 . S
N1234 C1231 1.351 . S
N1234 N1235 1.365 . S
N1235 C1232 1.341 . S
N1235 N1234 1.365 . S
N1235 H1255 0.862 . S
C1236 C1231 1.501 . S
C1236 H1237 0.961 . S
C1236 H1238 0.961 . S
C1236 H1239 0.960 . S
H1237 C1236 0.961 . S
H1238 C1236 0.961 . S
H1239 C1236 0.960 . S
C1240 N1241 1.342 . S
C1240 C1244 1.401 . S
C1240 C1245 1.499 . S
N1241 Co1224 1.989 . S
N1241 C1240 1.342 . S
N1241 N1242 1.388 . S
N1242 Co1225 1.993 . S
N1242 N1241 1.388 . S
N1242 C1243 1.346 . S
C1243 N1242 1.346 . S
C1243 C1244 1.396 . S
C1243 C1253 1.510 . S
C1244 C1240 1.401 . S
C1244 C1243 1.396 . S
C1245 C1240 1.499 . S
C1245 H1246 0.959 . S
C1245 H1247 0.960 . S
C1245 H1248 0.961 . S
H1246 C1245 0.959 . S
H1247 C1245 0.960 . S
H1248 C1245 0.961 . S
O1249 Co1224 1.967 . S
O1249 C1257 1.258 . S
O1250 Co1225 1.941 . S
O1250 C1257 1.266 . S
H1251 C1253 0.959 . S
H1252 C1253 0.961 . S
C1253 C1243 1.510 . S
C1253 H1251 0.959 . S
C1253 H1252 0.961 . S
C1253 H1254 0.960 . S
H1254 C1253 0.960 . S
H1255 N1235 0.862 . S
O1256 Co1224 1.920 . S
O1256 C1229 1.289 . S
C1257 O1249 1.258 . S
C1257 O1250 1.266 . S
Co1258 O1261 1.970 . S
Co1258 N1275 1.989 . S
Co1258 O1283 1.967 . S
Co1258 O1290 1.920 . S
Co1259 O1262 1.966 . S
Co1259 N1268 2.022 . S
Co1259 N1276 1.993 . S
Co1259 O1284 1.941 . S
C1260 O1261 1.258 . S
C1260 O1262 1.263 . S
O1261 Co1258 1.970 . S
O1261 C1260 1.258 . S
O1262 Co1259 1.966 . S
O1262 C1260 1.263 . S
C1263 O1264 1.235 . S
C1263 O1290 1.289 . S
O1264 C1263 1.235 . S
C1265 C1267 1.400 . S
C1265 N1268 1.351 . S
C1265 C1270 1.501 . S
C1266 C1267 1.387 . S
C1266 N1269 1.341 . S
C1267 C1265 1.400 . S
C1267 C1266 1.387 . S
N1268 Co1259 2.022 . S
N1268 C1265 1.351 . S
N1268 N1269 1.365 . S
N1269 C1266 1.341 . S
N1269 N1268 1.365 . S
N1269 H1289 0.862 . S
C1270 C1265 1.501 . S
C1270 H1271 0.961 . S
C1270 H1272 0.961 . S
C1270 H1273 0.960 . S
H1271 C1270 0.961 . S
H1272 C1270 0.961 . S
H1273 C1270 0.960 . S
C1274 N1275 1.342 . S
C1274 C1278 1.401 . S
C1274 C1279 1.499 . S
N1275 Co1258 1.989 . S
N1275 C1274 1.342 . S
N1275 N1276 1.388 . S
N1276 Co1259 1.993 . S
N1276 N1275 1.388 . S
N1276 C1277 1.346 . S
C1277 N1276 1.346 . S
C1277 C1278 1.396 . S
C1277 C1287 1.510 . S
C1278 C1274 1.401 . S
C1278 C1277 1.396 . S
C1279 C1274 1.499 . S
C1279 H1280 0.959 . S
C1279 H1281 0.960 . S
C1279 H1282 0.961 . S
H1280 C1279 0.959 . S
H1281 C1279 0.960 . S
H1282 C1279 0.961 . S
O1283 Co1258 1.967 . S
O1283 C1291 1.258 . S
O1284 Co1259 1.941 . S
O1284 C1291 1.266 . S
H1285 C1287 0.959 . S
H1286 C1287 0.961 . S
C1287 C1277 1.510 . S
C1287 H1285 0.959 . S
C1287 H1286 0.961 . S
C1287 H1288 0.960 . S
H1288 C1287 0.960 . S
H1289 N1269 0.862 . S
O1290 Co1258 1.920 . S
O1290 C1263 1.289 . S
C1291 O1283 1.258 . S
C1291 O1284 1.266 . S
Co1292 O1295 1.970 . S
Co1292 N1309 1.989 . S
Co1292 O1317 1.967 . S
Co1292 O1324 1.920 . S
Co1293 O1296 1.966 . S
Co1293 N1302 2.022 . S
Co1293 N1310 1.993 . S
Co1293 O1318 1.941 . S
C1294 O1295 1.258 . S
C1294 O1296 1.263 . S
O1295 Co1292 1.970 . S
O1295 C1294 1.258 . S
O1296 Co1293 1.966 . S
O1296 C1294 1.263 . S
C1297 O1298 1.235 . S
C1297 O1324 1.289 . S
O1298 C1297 1.235 . S
C1299 C1301 1.400 . S
C1299 N1302 1.351 . S
C1299 C1304 1.501 . S
C1300 C1301 1.387 . S
C1300 N1303 1.341 . S
C1301 C1299 1.400 . S
C1301 C1300 1.387 . S
N1302 Co1293 2.022 . S
N1302 C1299 1.351 . S
N1302 N1303 1.365 . S
N1303 C1300 1.341 . S
N1303 N1302 1.365 . S
N1303 H1323 0.862 . S
C1304 C1299 1.501 . S
C1304 H1305 0.961 . S
C1304 H1306 0.961 . S
C1304 H1307 0.960 . S
H1305 C1304 0.961 . S
H1306 C1304 0.961 . S
H1307 C1304 0.960 . S
C1308 N1309 1.342 . S
C1308 C1312 1.401 . S
C1308 C1313 1.499 . S
N1309 Co1292 1.989 . S
N1309 C1308 1.342 . S
N1309 N1310 1.388 . S
N1310 Co1293 1.993 . S
N1310 N1309 1.388 . S
N1310 C1311 1.346 . S
C1311 N1310 1.346 . S
C1311 C1312 1.396 . S
C1311 C1321 1.510 . S
C1312 C1308 1.401 . S
C1312 C1311 1.396 . S
C1313 C1308 1.499 . S
C1313 H1314 0.959 . S
C1313 H1315 0.960 . S
C1313 H1316 0.961 . S
H1314 C1313 0.959 . S
H1315 C1313 0.960 . S
H1316 C1313 0.961 . S
O1317 Co1292 1.967 . S
O1317 C1325 1.258 . S
O1318 Co1293 1.941 . S
O1318 C1325 1.266 . S
H1319 C1321 0.959 . S
H1320 C1321 0.961 . S
C1321 C1311 1.510 . S
C1321 H1319 0.959 . S
C1321 H1320 0.961 . S
C1321 H1322 0.960 . S
H1322 C1321 0.960 . S
H1323 N1303 0.862 . S
O1324 Co1292 1.920 . S
O1324 C1297 1.289 . S
C1325 O1317 1.258 . S
C1325 O1318 1.266 . S
Co1326 O1329 1.970 . S
Co1326 N1343 1.989 . S
Co1326 O1351 1.967 . S
Co1326 O1358 1.920 . S
Co1327 O1330 1.966 . S
Co1327 N1336 2.022 . S
Co1327 N1344 1.993 . S
Co1327 O1352 1.941 . S
C1328 O1329 1.258 . S
C1328 O1330 1.263 . S
O1329 Co1326 1.970 . S
O1329 C1328 1.258 . S
O1330 Co1327 1.966 . S
O1330 C1328 1.263 . S
C1331 O1332 1.235 . S
C1331 O1358 1.289 . S
O1332 C1331 1.235 . S
C1333 C1335 1.400 . S
C1333 N1336 1.351 . S
C1333 C1338 1.501 . S
C1334 C1335 1.387 . S
C1334 N1337 1.341 . S
C1335 C1333 1.400 . S
C1335 C1334 1.387 . S
N1336 Co1327 2.022 . S
N1336 C1333 1.351 . S
N1336 N1337 1.365 . S
N1337 C1334 1.341 . S
N1337 N1336 1.365 . S
N1337 H1357 0.862 . S
C1338 C1333 1.501 . S
C1338 H1339 0.961 . S
C1338 H1340 0.961 . S
C1338 H1341 0.960 . S
H1339 C1338 0.961 . S
H1340 C1338 0.961 . S
H1341 C1338 0.960 . S
C1342 N1343 1.342 . S
C1342 C1346 1.401 . S
C1342 C1347 1.499 . S
N1343 Co1326 1.989 . S
N1343 C1342 1.342 . S
N1343 N1344 1.388 . S
N1344 Co1327 1.993 . S
N1344 N1343 1.388 . S
N1344 C1345 1.346 . S
C1345 N1344 1.346 . S
C1345 C1346 1.396 . S
C1345 C1355 1.510 . S
C1346 C1342 1.401 . S
C1346 C1345 1.396 . S
C1347 C1342 1.499 . S
C1347 H1348 0.959 . S
C1347 H1349 0.960 . S
C1347 H1350 0.961 . S
H1348 C1347 0.959 . S
H1349 C1347 0.960 . S
H1350 C1347 0.961 . S
O1351 Co1326 1.967 . S
O1351 C1359 1.258 . S
O1352 Co1327 1.941 . S
O1352 C1359 1.266 . S
H1353 C1355 0.959 . S
H1354 C1355 0.961 . S
C1355 C1345 1.510 . S
C1355 H1353 0.959 . S
C1355 H1354 0.961 . S
C1355 H1356 0.960 . S
H1356 C1355 0.960 . S
H1357 N1337 0.862 . S
O1358 Co1326 1.920 . S
O1358 C1331 1.289 . S
C1359 O1351 1.258 . S
C1359 O1352 1.266 . S
Co1360 O1363 1.970 . S
Co1360 N1377 1.989 . S
Co1360 O1385 1.967 . S
Co1360 O1392 1.920 . S
Co1361 O1364 1.966 . S
Co1361 N1370 2.022 . S
Co1361 N1378 1.993 . S
Co1361 O1386 1.941 . S
C1362 O1363 1.258 . S
C1362 O1364 1.263 . S
O1363 Co1360 1.970 . S
O1363 C1362 1.258 . S
O1364 Co1361 1.966 . S
O1364 C1362 1.263 . S
C1365 O1366 1.235 . S
C1365 O1392 1.289 . S
O1366 C1365 1.235 . S
C1367 C1369 1.400 . S
C1367 N1370 1.351 . S
C1367 C1372 1.501 . S
C1368 C1369 1.387 . S
C1368 N1371 1.341 . S
C1369 C1367 1.400 . S
C1369 C1368 1.387 . S
N1370 Co1361 2.022 . S
N1370 C1367 1.351 . S
N1370 N1371 1.365 . S
N1371 C1368 1.341 . S
N1371 N1370 1.365 . S
N1371 H1391 0.862 . S
C1372 C1367 1.501 . S
C1372 H1373 0.961 . S
C1372 H1374 0.961 . S
C1372 H1375 0.960 . S
H1373 C1372 0.961 . S
H1374 C1372 0.961 . S
H1375 C1372 0.960 . S
C1376 N1377 1.342 . S
C1376 C1380 1.401 . S
C1376 C1381 1.499 . S
N1377 Co1360 1.989 . S
N1377 C1376 1.342 . S
N1377 N1378 1.388 . S
N1378 Co1361 1.993 . S
N1378 N1377 1.388 . S
N1378 C1379 1.346 . S
C1379 N1378 1.346 . S
C1379 C1380 1.396 . S
C1379 C1389 1.510 . S
C1380 C1376 1.401 . S
C1380 C1379 1.396 . S
C1381 C1376 1.499 . S
C1381 H1382 0.959 . S
C1381 H1383 0.960 . S
C1381 H1384 0.961 . S
H1382 C1381 0.959 . S
H1383 C1381 0.960 . S
H1384 C1381 0.961 . S
O1385 Co1360 1.967 . S
O1385 C1393 1.258 . S
O1386 Co1361 1.941 . S
O1386 C1393 1.266 . S
H1387 C1389 0.959 . S
H1388 C1389 0.961 . S
C1389 C1379 1.510 . S
C1389 H1387 0.959 . S
C1389 H1388 0.961 . S
C1389 H1390 0.960 . S
H1390 C1389 0.960 . S
H1391 N1371 0.862 . S
O1392 Co1360 1.920 . S
O1392 C1365 1.289 . S
C1393 O1385 1.258 . S
C1393 O1386 1.266 . S
Co1394 O1397 1.970 . S
Co1394 N1411 1.989 . S
Co1394 O1419 1.967 . S
Co1394 O1426 1.920 . S
Co1395 O1398 1.966 . S
Co1395 N1404 2.022 . S
Co1395 N1412 1.993 . S
Co1395 O1420 1.941 . S
C1396 O1397 1.258 . S
C1396 O1398 1.263 . S
O1397 Co1394 1.970 . S
O1397 C1396 1.258 . S
O1398 Co1395 1.966 . S
O1398 C1396 1.263 . S
C1399 O1400 1.235 . S
C1399 O1426 1.289 . S
O1400 C1399 1.235 . S
C1401 C1403 1.400 . S
C1401 N1404 1.351 . S
C1401 C1406 1.501 . S
C1402 C1403 1.387 . S
C1402 N1405 1.341 . S
C1403 C1401 1.400 . S
C1403 C1402 1.387 . S
N1404 Co1395 2.022 . S
N1404 C1401 1.351 . S
N1404 N1405 1.365 . S
N1405 C1402 1.341 . S
N1405 N1404 1.365 . S
N1405 H1425 0.862 . S
C1406 C1401 1.501 . S
C1406 H1407 0.961 . S
C1406 H1408 0.961 . S
C1406 H1409 0.960 . S
H1407 C1406 0.961 . S
H1408 C1406 0.961 . S
H1409 C1406 0.960 . S
C1410 N1411 1.342 . S
C1410 C1414 1.401 . S
C1410 C1415 1.499 . S
N1411 Co1394 1.989 . S
N1411 C1410 1.342 . S
N1411 N1412 1.388 . S
N1412 Co1395 1.993 . S
N1412 N1411 1.388 . S
N1412 C1413 1.346 . S
C1413 N1412 1.346 . S
C1413 C1414 1.396 . S
C1413 C1423 1.510 . S
C1414 C1410 1.401 . S
C1414 C1413 1.396 . S
C1415 C1410 1.499 . S
C1415 H1416 0.959 . S
C1415 H1417 0.960 . S
C1415 H1418 0.961 . S
H1416 C1415 0.959 . S
H1417 C1415 0.960 . S
H1418 C1415 0.961 . S
O1419 Co1394 1.967 . S
O1419 C1427 1.258 . S
O1420 Co1395 1.941 . S
O1420 C1427 1.266 . S
H1421 C1423 0.959 . S
H1422 C1423 0.961 . S
C1423 C1413 1.510 . S
C1423 H1421 0.959 . S
C1423 H1422 0.961 . S
C1423 H1424 0.960 . S
H1424 C1423 0.960 . S
H1425 N1405 0.862 . S
O1426 Co1394 1.920 . S
O1426 C1399 1.289 . S
C1427 O1419 1.258 . S
C1427 O1420 1.266 . S
Co1428 O1431 1.970 . S
Co1428 N1445 1.989 . S
Co1428 O1453 1.967 . S
Co1428 O1460 1.920 . S
Co1429 O1432 1.966 . S
Co1429 N1438 2.022 . S
Co1429 N1446 1.993 . S
Co1429 O1454 1.941 . S
C1430 O1431 1.258 . S
C1430 O1432 1.263 . S
O1431 Co1428 1.970 . S
O1431 C1430 1.258 . S
O1432 Co1429 1.966 . S
O1432 C1430 1.263 . S
C1433 O1434 1.235 . S
C1433 O1460 1.289 . S
O1434 C1433 1.235 . S
C1435 C1437 1.400 . S
C1435 N1438 1.351 . S
C1435 C1440 1.501 . S
C1436 C1437 1.387 . S
C1436 N1439 1.341 . S
C1437 C1435 1.400 . S
C1437 C1436 1.387 . S
N1438 Co1429 2.022 . S
N1438 C1435 1.351 . S
N1438 N1439 1.365 . S
N1439 C1436 1.341 . S
N1439 N1438 1.365 . S
N1439 H1459 0.862 . S
C1440 C1435 1.501 . S
C1440 H1441 0.961 . S
C1440 H1442 0.961 . S
C1440 H1443 0.960 . S
H1441 C1440 0.961 . S
H1442 C1440 0.961 . S
H1443 C1440 0.960 . S
C1444 N1445 1.342 . S
C1444 C1448 1.401 . S
C1444 C1449 1.499 . S
N1445 Co1428 1.989 . S
N1445 C1444 1.342 . S
N1445 N1446 1.388 . S
N1446 Co1429 1.993 . S
N1446 N1445 1.388 . S
N1446 C1447 1.346 . S
C1447 N1446 1.346 . S
C1447 C1448 1.396 . S
C1447 C1457 1.510 . S
C1448 C1444 1.401 . S
C1448 C1447 1.396 . S
C1449 C1444 1.499 . S
C1449 H1450 0.959 . S
C1449 H1451 0.960 . S
C1449 H1452 0.961 . S
H1450 C1449 0.959 . S
H1451 C1449 0.960 . S
H1452 C1449 0.961 . S
O1453 Co1428 1.967 . S
O1453 C1461 1.258 . S
O1454 Co1429 1.941 . S
O1454 C1461 1.266 . S
H1455 C1457 0.959 . S
H1456 C1457 0.961 . S
C1457 C1447 1.510 . S
C1457 H1455 0.959 . S
C1457 H1456 0.961 . S
C1457 H1458 0.960 . S
H1458 C1457 0.960 . S
H1459 N1439 0.862 . S
O1460 Co1428 1.920 . S
O1460 C1433 1.289 . S
C1461 O1453 1.258 . S
C1461 O1454 1.266 . S
Co1462 O1465 1.970 . S
Co1462 N1479 1.989 . S
Co1462 O1487 1.967 . S
Co1462 O1494 1.920 . S
Co1463 O1466 1.966 . S
Co1463 N1472 2.022 . S
Co1463 N1480 1.993 . S
Co1463 O1488 1.941 . S
C1464 O1465 1.258 . S
C1464 O1466 1.263 . S
O1465 Co1462 1.970 . S
O1465 C1464 1.258 . S
O1466 Co1463 1.966 . S
O1466 C1464 1.263 . S
C1467 O1468 1.235 . S
C1467 O1494 1.289 . S
O1468 C1467 1.235 . S
C1469 C1471 1.400 . S
C1469 N1472 1.351 . S
C1469 C1474 1.501 . S
C1470 C1471 1.387 . S
C1470 N1473 1.341 . S
C1471 C1469 1.400 . S
C1471 C1470 1.387 . S
N1472 Co1463 2.022 . S
N1472 C1469 1.351 . S
N1472 N1473 1.365 . S
N1473 C1470 1.341 . S
N1473 N1472 1.365 . S
N1473 H1493 0.862 . S
C1474 C1469 1.501 . S
C1474 H1475 0.961 . S
C1474 H1476 0.961 . S
C1474 H1477 0.960 . S
H1475 C1474 0.961 . S
H1476 C1474 0.961 . S
H1477 C1474 0.960 . S
C1478 N1479 1.342 . S
C1478 C1482 1.401 . S
C1478 C1483 1.499 . S
N1479 Co1462 1.989 . S
N1479 C1478 1.342 . S
N1479 N1480 1.388 . S
N1480 Co1463 1.993 . S
N1480 N1479 1.388 . S
N1480 C1481 1.346 . S
C1481 N1480 1.346 . S
C1481 C1482 1.396 . S
C1481 C1491 1.510 . S
C1482 C1478 1.401 . S
C1482 C1481 1.396 . S
C1483 C1478 1.499 . S
C1483 H1484 0.959 . S
C1483 H1485 0.960 . S
C1483 H1486 0.961 . S
H1484 C1483 0.959 . S
H1485 C1483 0.960 . S
H1486 C1483 0.961 . S
O1487 Co1462 1.967 . S
O1487 C1495 1.258 . S
O1488 Co1463 1.941 . S
O1488 C1495 1.266 . S
H1489 C1491 0.959 . S
H1490 C1491 0.961 . S
C1491 C1481 1.510 . S
C1491 H1489 0.959 . S
C1491 H1490 0.961 . S
C1491 H1492 0.960 . S
H1492 C1491 0.960 . S
H1493 N1473 0.862 . S
O1494 Co1462 1.920 . S
O1494 C1467 1.289 . S
C1495 O1487 1.258 . S
C1495 O1488 1.266 . S
Co1496 O1499 1.970 . S
Co1496 N1513 1.989 . S
Co1496 O1521 1.967 . S
Co1496 O1528 1.920 . S
Co1497 O1500 1.966 . S
Co1497 N1506 2.022 . S
Co1497 N1514 1.993 . S
Co1497 O1522 1.941 . S
C1498 O1499 1.258 . S
C1498 O1500 1.263 . S
O1499 Co1496 1.970 . S
O1499 C1498 1.258 . S
O1500 Co1497 1.966 . S
O1500 C1498 1.263 . S
C1501 O1502 1.235 . S
C1501 O1528 1.289 . S
O1502 C1501 1.235 . S
C1503 C1505 1.400 . S
C1503 N1506 1.351 . S
C1503 C1508 1.501 . S
C1504 C1505 1.387 . S
C1504 N1507 1.341 . S
C1505 C1503 1.400 . S
C1505 C1504 1.387 . S
N1506 Co1497 2.022 . S
N1506 C1503 1.351 . S
N1506 N1507 1.365 . S
N1507 C1504 1.341 . S
N1507 N1506 1.365 . S
N1507 H1527 0.862 . S
C1508 C1503 1.501 . S
C1508 H1509 0.961 . S
C1508 H1510 0.961 . S
C1508 H1511 0.960 . S
H1509 C1508 0.961 . S
H1510 C1508 0.961 . S
H1511 C1508 0.960 . S
C1512 N1513 1.342 . S
C1512 C1516 1.401 . S
C1512 C1517 1.499 . S
N1513 Co1496 1.989 . S
N1513 C1512 1.342 . S
N1513 N1514 1.388 . S
N1514 Co1497 1.993 . S
N1514 N1513 1.388 . S
N1514 C1515 1.346 . S
C1515 N1514 1.346 . S
C1515 C1516 1.396 . S
C1515 C1525 1.510 . S
C1516 C1512 1.401 . S
C1516 C1515 1.396 . S
C1517 C1512 1.499 . S
C1517 H1518 0.959 . S
C1517 H1519 0.960 . S
C1517 H1520 0.961 . S
H1518 C1517 0.959 . S
H1519 C1517 0.960 . S
H1520 C1517 0.961 . S
O1521 Co1496 1.967 . S
O1521 C1529 1.258 . S
O1522 Co1497 1.941 . S
O1522 C1529 1.266 . S
H1523 C1525 0.959 . S
H1524 C1525 0.961 . S
C1525 C1515 1.510 . S
C1525 H1523 0.959 . S
C1525 H1524 0.961 . S
C1525 H1526 0.960 . S
H1526 C1525 0.960 . S
H1527 N1507 0.862 . S
O1528 Co1496 1.920 . S
O1528 C1501 1.289 . S
C1529 O1521 1.258 . S
C1529 O1522 1.266 . S
Co1530 O1533 1.970 . S
Co1530 N1547 1.989 . S
Co1530 O1555 1.967 . S
Co1530 O1562 1.920 . S
Co1531 O1534 1.966 . S
Co1531 N1540 2.022 . S
Co1531 N1548 1.993 . S
Co1531 O1556 1.941 . S
C1532 O1533 1.258 . S
C1532 O1534 1.263 . S
O1533 Co1530 1.970 . S
O1533 C1532 1.258 . S
O1534 Co1531 1.966 . S
O1534 C1532 1.263 . S
C1535 O1536 1.235 . S
C1535 O1562 1.289 . S
O1536 C1535 1.235 . S
C1537 C1539 1.400 . S
C1537 N1540 1.351 . S
C1537 C1542 1.501 . S
C1538 C1539 1.387 . S
C1538 N1541 1.341 . S
C1539 C1537 1.400 . S
C1539 C1538 1.387 . S
N1540 Co1531 2.022 . S
N1540 C1537 1.351 . S
N1540 N1541 1.365 . S
N1541 C1538 1.341 . S
N1541 N1540 1.365 . S
N1541 H1561 0.862 . S
C1542 C1537 1.501 . S
C1542 H1543 0.961 . S
C1542 H1544 0.961 . S
C1542 H1545 0.960 . S
H1543 C1542 0.961 . S
H1544 C1542 0.961 . S
H1545 C1542 0.960 . S
C1546 N1547 1.342 . S
C1546 C1550 1.401 . S
C1546 C1551 1.499 . S
N1547 Co1530 1.989 . S
N1547 C1546 1.342 . S
N1547 N1548 1.388 . S
N1548 Co1531 1.993 . S
N1548 N1547 1.388 . S
N1548 C1549 1.346 . S
C1549 N1548 1.346 . S
C1549 C1550 1.396 . S
C1549 C1559 1.510 . S
C1550 C1546 1.401 . S
C1550 C1549 1.396 . S
C1551 C1546 1.499 . S
C1551 H1552 0.959 . S
C1551 H1553 0.960 . S
C1551 H1554 0.961 . S
H1552 C1551 0.959 . S
H1553 C1551 0.960 . S
H1554 C1551 0.961 . S
O1555 Co1530 1.967 . S
O1555 C1563 1.258 . S
O1556 Co1531 1.941 . S
O1556 C1563 1.266 . S
H1557 C1559 0.959 . S
H1558 C1559 0.961 . S
C1559 C1549 1.510 . S
C1559 H1557 0.959 . S
C1559 H1558 0.961 . S
C1559 H1560 0.960 . S
H1560 C1559 0.960 . S
H1561 N1541 0.862 . S
O1562 Co1530 1.920 . S
O1562 C1535 1.289 . S
C1563 O1555 1.258 . S
C1563 O1556 1.266 . S
Co1564 O1567 1.970 . S
Co1564 N1581 1.989 . S
Co1564 O1589 1.967 . S
Co1564 O1596 1.920 . S
Co1565 O1568 1.966 . S
Co1565 N1574 2.022 . S
Co1565 N1582 1.993 . S
Co1565 O1590 1.941 . S
C1566 O1567 1.258 . S
C1566 O1568 1.263 . S
O1567 Co1564 1.970 . S
O1567 C1566 1.258 . S
O1568 Co1565 1.966 . S
O1568 C1566 1.263 . S
C1569 O1570 1.235 . S
C1569 O1596 1.289 . S
O1570 C1569 1.235 . S
C1571 C1573 1.400 . S
C1571 N1574 1.351 . S
C1571 C1576 1.501 . S
C1572 C1573 1.387 . S
C1572 N1575 1.341 . S
C1573 C1571 1.400 . S
C1573 C1572 1.387 . S
N1574 Co1565 2.022 . S
N1574 C1571 1.351 . S
N1574 N1575 1.365 . S
N1575 C1572 1.341 . S
N1575 N1574 1.365 . S
N1575 H1595 0.862 . S
C1576 C1571 1.501 . S
C1576 H1577 0.961 . S
C1576 H1578 0.961 . S
C1576 H1579 0.960 . S
H1577 C1576 0.961 . S
H1578 C1576 0.961 . S
H1579 C1576 0.960 . S
C1580 N1581 1.342 . S
C1580 C1584 1.401 . S
C1580 C1585 1.499 . S
N1581 Co1564 1.989 . S
N1581 C1580 1.342 . S
N1581 N1582 1.388 . S
N1582 Co1565 1.993 . S
N1582 N1581 1.388 . S
N1582 C1583 1.346 . S
C1583 N1582 1.346 . S
C1583 C1584 1.396 . S
C1583 C1593 1.510 . S
C1584 C1580 1.401 . S
C1584 C1583 1.396 . S
C1585 C1580 1.499 . S
C1585 H1586 0.959 . S
C1585 H1587 0.960 . S
C1585 H1588 0.961 . S
H1586 C1585 0.959 . S
H1587 C1585 0.960 . S
H1588 C1585 0.961 . S
O1589 Co1564 1.967 . S
O1589 C1597 1.258 . S
O1590 Co1565 1.941 . S
O1590 C1597 1.266 . S
H1591 C1593 0.959 . S
H1592 C1593 0.961 . S
C1593 C1583 1.510 . S
C1593 H1591 0.959 . S
C1593 H1592 0.961 . S
C1593 H1594 0.960 . S
H1594 C1593 0.960 . S
H1595 N1575 0.862 . S
O1596 Co1564 1.920 . S
O1596 C1569 1.289 . S
C1597 O1589 1.258 . S
C1597 O1590 1.266 . S
Co1598 O1601 1.970 . S
Co1598 N1615 1.989 . S
Co1598 O1623 1.967 . S
Co1598 O1630 1.920 . S
Co1599 O1602 1.966 . S
Co1599 N1608 2.022 . S
Co1599 N1616 1.993 . S
Co1599 O1624 1.941 . S
C1600 O1601 1.258 . S
C1600 O1602 1.263 . S
O1601 Co1598 1.970 . S
O1601 C1600 1.258 . S
O1602 Co1599 1.966 . S
O1602 C1600 1.263 . S
C1603 O1604 1.235 . S
C1603 O1630 1.289 . S
O1604 C1603 1.235 . S
C1605 C1607 1.400 . S
C1605 N1608 1.351 . S
C1605 C1610 1.501 . S
C1606 C1607 1.387 . S
C1606 N1609 1.341 . S
C1607 C1605 1.400 . S
C1607 C1606 1.387 . S
N1608 Co1599 2.022 . S
N1608 C1605 1.351 . S
N1608 N1609 1.365 . S
N1609 C1606 1.341 . S
N1609 N1608 1.365 . S
N1609 H1629 0.862 . S
C1610 C1605 1.501 . S
C1610 H1611 0.961 . S
C1610 H1612 0.961 . S
C1610 H1613 0.960 . S
H1611 C1610 0.961 . S
H1612 C1610 0.961 . S
H1613 C1610 0.960 . S
C1614 N1615 1.342 . S
C1614 C1618 1.401 . S
C1614 C1619 1.499 . S
N1615 Co1598 1.989 . S
N1615 C1614 1.342 . S
N1615 N1616 1.388 . S
N1616 Co1599 1.993 . S
N1616 N1615 1.388 . S
N1616 C1617 1.346 . S
C1617 N1616 1.346 . S
C1617 C1618 1.396 . S
C1617 C1627 1.510 . S
C1618 C1614 1.401 . S
C1618 C1617 1.396 . S
C1619 C1614 1.499 . S
C1619 H1620 0.959 . S
C1619 H1621 0.960 . S
C1619 H1622 0.961 . S
H1620 C1619 0.959 . S
H1621 C1619 0.960 . S
H1622 C1619 0.961 . S
O1623 Co1598 1.967 . S
O1623 C1631 1.258 . S
O1624 Co1599 1.941 . S
O1624 C1631 1.266 . S
H1625 C1627 0.959 . S
H1626 C1627 0.961 . S
C1627 C1617 1.510 . S
C1627 H1625 0.959 . S
C1627 H1626 0.961 . S
C1627 H1628 0.960 . S
H1628 C1627 0.960 . S
H1629 N1609 0.862 . S
O1630 Co1598 1.920 . S
O1630 C1603 1.289 . S
C1631 O1623 1.258 . S
C1631 O1624 1.266 . S
C1632 C1633 1.363 . S
C1632 C1638 1.379 . S
C1632 N1640 1.356 1_554 S
C1633 C1632 1.363 . S
C1633 C1639 1.363 . S
C1634 C1635 1.363 . S
C1634 C1639 1.379 . S
C1634 N1641 1.356 . S
C1635 C1634 1.363 . S
C1635 C1638 1.363 . S
N1636 C1638 1.356 . S
N1636 H1648 0.984 . S
N1636 H1649 0.985 . S
N1637 C1639 1.356 . S
N1637 H1642 0.984 1_554 S
N1637 H1643 0.985 . S
C1638 C1632 1.379 . S
C1638 C1635 1.363 . S
C1638 N1636 1.356 . S
C1639 C1633 1.363 . S
C1639 C1634 1.379 . S
C1639 N1637 1.356 . S
N1640 C1632 1.356 1_556 S
N1640 H1646 0.984 . S
N1640 H1647 0.984 . S
N1641 C1634 1.356 . S
N1641 H1644 0.984 . S
N1641 H1645 0.985 . S
H1642 N1637 0.984 1_556 S
H1643 N1637 0.985 . S
H1644 N1641 0.984 . S
H1645 N1641 0.985 . S
H1646 N1640 0.984 . S
H1647 N1640 0.984 . S
H1648 N1636 0.984 . S
H1649 N1636 0.985 . S
C1650 C1651 1.363 . S
C1650 C1656 1.379 . S
C1650 N1658 1.356 . S
C1651 C1650 1.363 . S
C1651 C1657 1.363 . S
C1652 C1653 1.363 . S
C1652 C1657 1.379 . S
C1652 N1659 1.356 . S
C1653 C1652 1.363 . S
C1653 C1656 1.363 . S
N1654 C1656 1.356 1_556 S
N1654 H1666 0.984 . S
N1654 H1667 0.985 . S
N1655 C1657 1.356 . S
N1655 H1660 0.984 . S
N1655 H1661 0.985 . S
C1656 C1650 1.379 . S
C1656 C1653 1.363 . S
C1656 N1654 1.356 1_554 S
C1657 C1651 1.363 . S
C1657 C1652 1.379 . S
C1657 N1655 1.356 . S
N1658 C1650 1.356 . S
N1658 H1664 0.984 . S
N1658 H1665 0.984 . S
N1659 C1652 1.356 . S
N1659 H1662 0.984 1_554 S
N1659 H1663 0.985 . S
H1660 N1655 0.984 . S
H1661 N1655 0.985 . S
H1662 N1659 0.984 1_556 S
H1663 N1659 0.985 . S
H1664 N1658 0.984 . S
H1665 N1658 0.984 . S
H1666 N1654 0.984 . S
H1667 N1654 0.985 . S
C1668 C1669 1.363 . S
C1668 C1674 1.379 . S
C1668 N1676 1.356 . S
C1669 C1668 1.363 . S
C1669 C1675 1.363 . S
C1670 C1671 1.363 . S
C1670 C1675 1.379 . S
C1670 N1677 1.356 . S
C1671 C1670 1.363 . S
C1671 C1674 1.363 . S
N1672 C1674 1.356 1_556 S
N1672 H1684 0.984 . S
N1672 H1685 0.985 . S
N1673 C1675 1.356 . S
N1673 H1678 0.984 . S
N1673 H1679 0.985 . S
C1674 C1668 1.379 . S
C1674 C1671 1.363 . S
C1674 N1672 1.356 1_554 S
C1675 C1669 1.363 . S
C1675 C1670 1.379 . S
C1675 N1673 1.356 . S
N1676 C1668 1.356 . S
N1676 H1682 0.984 . S
N1676 H1683 0.984 . S
N1677 C1670 1.356 . S
N1677 H1680 0.984 1_554 S
N1677 H1681 0.985 . S
H1678 N1673 0.984 . S
H1679 N1673 0.985 . S
H1680 N1677 0.984 1_556 S
H1681 N1677 0.985 . S
H1682 N1676 0.984 . S
H1683 N1676 0.984 . S
H1684 N1672 0.984 . S
H1685 N1672 0.985 . S
C1686 C1687 1.363 . S
C1686 C1692 1.379 . S
C1686 N1694 1.356 1_554 S
C1687 C1686 1.363 . S
C1687 C1693 1.363 . S
C1688 C1689 1.363 . S
C1688 C1693 1.379 . S
C1688 N1695 1.356 . S
C1689 C1688 1.363 . S
C1689 C1692 1.363 . S
N1690 C1692 1.356 . S
N1690 H1702 0.984 . S
N1690 H1703 0.985 . S
N1691 C1693 1.356 . S
N1691 H1696 0.984 1_554 S
N1691 H1697 0.985 . S
C1692 C1686 1.379 . S
C1692 C1689 1.363 . S
C1692 N1690 1.356 . S
C1693 C1687 1.363 . S
C1693 C1688 1.379 . S
C1693 N1691 1.356 . S
N1694 C1686 1.356 1_556 S
N1694 H1700 0.984 . S
N1694 H1701 0.984 . S
N1695 C1688 1.356 . S
N1695 H1698 0.984 . S
N1695 H1699 0.985 . S
H1696 N1691 0.984 1_556 S
H1697 N1691 0.985 . S
H1698 N1695 0.984 . S
H1699 N1695 0.985 . S
H1700 N1694 0.984 . S
H1701 N1694 0.984 . S
H1702 N1690 0.984 . S
H1703 N1690 0.985 . S
C1704 C1705 1.363 . S
C1704 C1710 1.379 . S
C1704 N1712 1.356 . S
C1705 C1704 1.363 . S
C1705 C1711 1.363 . S
C1706 C1707 1.363 . S
C1706 C1711 1.379 . S
C1706 N1713 1.356 . S
C1707 C1706 1.363 . S
C1707 C1710 1.363 . S
N1708 C1710 1.356 . S
N1708 H1720 0.984 . S
N1708 H1721 0.985 . S
N1709 C1711 1.356 1_554 S
N1709 H1714 0.984 . S
N1709 H1715 0.985 . S
C1710 C1704 1.379 . S
C1710 C1707 1.363 . S
C1710 N1708 1.356 . S
C1711 C1705 1.363 . S
C1711 C1706 1.379 . S
C1711 N1709 1.356 1_556 S
N1712 C1704 1.356 . S
N1712 H1718 0.984 . S
N1712 H1719 0.984 1_556 S
N1713 C1706 1.356 . S
N1713 H1716 0.984 . S
N1713 H1717 0.985 . S
H1714 N1709 0.984 . S
H1715 N1709 0.985 . S
H1716 N1713 0.984 . S
H1717 N1713 0.985 . S
H1718 N1712 0.984 . S
H1719 N1712 0.984 1_554 S
H1720 N1708 0.984 . S
H1721 N1708 0.985 . S
C1722 C1723 1.363 . S
C1722 C1728 1.379 . S
C1722 N1730 1.356 . S
C1723 C1722 1.363 . S
C1723 C1729 1.363 . S
C1724 C1725 1.363 . S
C1724 C1729 1.379 . S
C1724 N1731 1.356 1_556 S
C1725 C1724 1.363 . S
C1725 C1728 1.363 . S
N1726 C1728 1.356 . S
N1726 H1738 0.984 . S
N1726 H1739 0.985 1_556 S
N1727 C1729 1.356 . S
N1727 H1732 0.984 . S
N1727 H1733 0.985 . S
C1728 C1722 1.379 . S
C1728 C1725 1.363 . S
C1728 N1726 1.356 . S
C1729 C1723 1.363 . S
C1729 C1724 1.379 . S
C1729 N1727 1.356 . S
N1730 C1722 1.356 . S
N1730 H1736 0.984 . S
N1730 H1737 0.984 . S
N1731 C1724 1.356 1_554 S
N1731 H1734 0.984 . S
N1731 H1735 0.985 . S
H1732 N1727 0.984 . S
H1733 N1727 0.985 . S
H1734 N1731 0.984 . S
H1735 N1731 0.985 . S
H1736 N1730 0.984 . S
H1737 N1730 0.984 . S
H1738 N1726 0.984 . S
H1739 N1726 0.985 1_554 S
C1740 C1741 1.363 . S
C1740 C1746 1.379 . S
C1740 N1748 1.356 . S
C1741 C1740 1.363 . S
C1741 C1747 1.363 . S
C1742 C1743 1.363 . S
C1742 C1747 1.379 . S
C1742 N1749 1.356 . S
C1743 C1742 1.363 . S
C1743 C1746 1.363 . S
N1744 C1746 1.356 . S
N1744 H1756 0.984 . S
N1744 H1757 0.985 . S
N1745 C1747 1.356 1_554 S
N1745 H1750 0.984 . S
N1745 H1751 0.985 . S
C1746 C1740 1.379 . S
C1746 C1743 1.363 . S
C1746 N1744 1.356 . S
C1747 C1741 1.363 . S
C1747 C1742 1.379 . S
C1747 N1745 1.356 1_556 S
N1748 C1740 1.356 . S
N1748 H1754 0.984 . S
N1748 H1755 0.984 1_556 S
N1749 C1742 1.356 . S
N1749 H1752 0.984 . S
N1749 H1753 0.985 . S
H1750 N1745 0.984 . S
H1751 N1745 0.985 . S
H1752 N1749 0.984 . S
H1753 N1749 0.985 . S
H1754 N1748 0.984 . S
H1755 N1748 0.984 1_554 S
H1756 N1744 0.984 . S
H1757 N1744 0.985 . S
C1758 C1759 1.363 . S
C1758 C1764 1.379 . S
C1758 N1766 1.356 1_556 S
C1759 C1758 1.363 . S
C1759 C1765 1.363 . S
C1760 C1761 1.363 . S
C1760 C1765 1.379 . S
C1760 N1767 1.356 . S
C1761 C1760 1.363 . S
C1761 C1764 1.363 . S
N1762 C1764 1.356 . S
N1762 H1774 0.984 . S
N1762 H1775 0.985 . S
N1763 C1765 1.356 . S
N1763 H1768 0.984 1_556 S
N1763 H1769 0.985 . S
C1764 C1758 1.379 . S
C1764 C1761 1.363 . S
C1764 N1762 1.356 . S
C1765 C1759 1.363 . S
C1765 C1760 1.379 . S
C1765 N1763 1.356 . S
N1766 C1758 1.356 1_554 S
N1766 H1772 0.984 . S
N1766 H1773 0.984 . S
N1767 C1760 1.356 . S
N1767 H1770 0.984 . S
N1767 H1771 0.985 . S
H1768 N1763 0.984 1_554 S
H1769 N1763 0.985 . S
H1770 N1767 0.984 . S
H1771 N1767 0.985 . S
H1772 N1766 0.984 . S
H1773 N1766 0.984 . S
H1774 N1762 0.984 . S
H1775 N1762 0.985 . S
C1776 C1777 1.363 . S
C1776 C1782 1.379 . S
C1776 N1784 1.356 . S
C1777 C1776 1.363 . S
C1777 C1783 1.363 . S
C1778 C1779 1.363 . S
C1778 C1783 1.379 . S
C1778 N1785 1.356 1_455 S
C1779 C1778 1.363 . S
C1779 C1782 1.363 . S
N1780 C1782 1.356 . S
N1780 H1792 0.984 . S
N1780 H1793 0.985 1_455 S
N1781 C1783 1.356 . S
N1781 H1786 0.984 . S
N1781 H1787 0.985 . S
C1782 C1776 1.379 . S
C1782 C1779 1.363 . S
C1782 N1780 1.356 . S
C1783 C1777 1.363 . S
C1783 C1778 1.379 . S
C1783 N1781 1.356 . S
N1784 C1776 1.356 . S
N1784 H1790 0.984 . S
N1784 H1791 0.984 . S
N1785 C1778 1.356 1_655 S
N1785 H1788 0.984 . S
N1785 H1789 0.985 . S
H1786 N1781 0.984 . S
H1787 N1781 0.985 . S
H1788 N1785 0.984 . S
H1789 N1785 0.985 . S
H1790 N1784 0.984 . S
H1791 N1784 0.984 . S
H1792 N1780 0.984 . S
H1793 N1780 0.985 1_655 S
C1794 C1795 1.363 . S
C1794 C1800 1.379 . S
C1794 N1802 1.356 1_545 S
C1795 C1794 1.363 . S
C1795 C1801 1.363 . S
C1796 C1797 1.363 . S
C1796 C1801 1.379 . S
C1796 N1803 1.356 . S
C1797 C1796 1.363 . S
C1797 C1800 1.363 . S
N1798 C1800 1.356 . S
N1798 H1810 0.984 . S
N1798 H1811 0.985 . S
N1799 C1801 1.356 . S
N1799 H1804 0.984 1_545 S
N1799 H1805 0.985 . S
C1800 C1794 1.379 . S
C1800 C1797 1.363 . S
C1800 N1798 1.356 . S
C1801 C1795 1.363 . S
C1801 C1796 1.379 . S
C1801 N1799 1.356 . S
N1802 C1794 1.356 1_565 S
N1802 H1808 0.984 . S
N1802 H1809 0.984 . S
N1803 C1796 1.356 . S
N1803 H1806 0.984 . S
N1803 H1807 0.985 . S
H1804 N1799 0.984 1_565 S
H1805 N1799 0.985 . S
H1806 N1803 0.984 . S
H1807 N1803 0.985 . S
H1808 N1802 0.984 . S
H1809 N1802 0.984 . S
H1810 N1798 0.984 . S
H1811 N1798 0.985 . S
C1812 C1813 1.363 . S
C1812 C1818 1.379 . S
C1812 N1820 1.356 1_655 S
C1813 C1812 1.363 . S
C1813 C1819 1.363 . S
C1814 C1815 1.363 . S
C1814 C1819 1.379 . S
C1814 N1821 1.356 . S
C1815 C1814 1.363 . S
C1815 C1818 1.363 . S
N1816 C1818 1.356 . S
N1816 H1828 0.984 . S
N1816 H1829 0.985 . S
N1817 C1819 1.356 . S
N1817 H1822 0.984 1_655 S
N1817 H1823 0.985 . S
C1818 C1812 1.379 . S
C1818 C1815 1.363 . S
C1818 N1816 1.356 . S
C1819 C1813 1.363 . S
C1819 C1814 1.379 . S
C1819 N1817 1.356 . S
N1820 C1812 1.356 1_455 S
N1820 H1826 0.984 . S
N1820 H1827 0.984 . S
N1821 C1814 1.356 . S
N1821 H1824 0.984 . S
N1821 H1825 0.985 . S
H1822 N1817 0.984 1_455 S
H1823 N1817 0.985 . S
H1824 N1821 0.984 . S
H1825 N1821 0.985 . S
H1826 N1820 0.984 . S
H1827 N1820 0.984 . S
H1828 N1816 0.984 . S
H1829 N1816 0.985 . S
C1830 C1831 1.363 . S
C1830 C1836 1.379 . S
C1830 N1838 1.356 . S
C1831 C1830 1.363 . S
C1831 C1837 1.363 . S
C1832 C1833 1.363 . S
C1832 C1837 1.379 . S
C1832 N1839 1.356 . S
C1833 C1832 1.363 . S
C1833 C1836 1.363 . S
N1834 C1836 1.356 1_545 S
N1834 H1846 0.984 . S
N1834 H1847 0.985 . S
N1835 C1837 1.356 . S
N1835 H1840 0.984 . S
N1835 H1841 0.985 . S
C1836 C1830 1.379 . S
C1836 C1833 1.363 . S
C1836 N1834 1.356 1_565 S
C1837 C1831 1.363 . S
C1837 C1832 1.379 . S
C1837 N1835 1.356 . S
N1838 C1830 1.356 . S
N1838 H1844 0.984 . S
N1838 H1845 0.984 . S
N1839 C1832 1.356 . S
N1839 H1842 0.984 1_565 S
N1839 H1843 0.985 . S
H1840 N1835 0.984 . S
H1841 N1835 0.985 . S
H1842 N1839 0.984 1_545 S
H1843 N1839 0.985 . S
H1844 N1838 0.984 . S
H1845 N1838 0.984 . S
H1846 N1834 0.984 . S
H1847 N1834 0.985 . S
C1848 C1849 1.363 . S
C1848 C1854 1.379 . S
C1848 N1856 1.356 1_455 S
C1849 C1848 1.363 . S
C1849 C1855 1.363 . S
C1850 C1851 1.363 . S
C1850 C1855 1.379 . S
C1850 N1857 1.356 . S
C1851 C1850 1.363 . S
C1851 C1854 1.363 . S
N1852 C1854 1.356 . S
N1852 H1864 0.984 . S
N1852 H1865 0.985 . S
N1853 C1855 1.356 . S
N1853 H1858 0.984 1_455 S
N1853 H1859 0.985 . S
C1854 C1848 1.379 . S
C1854 C1851 1.363 . S
C1854 N1852 1.356 . S
C1855 C1849 1.363 . S
C1855 C1850 1.379 . S
C1855 N1853 1.356 . S
N1856 C1848 1.356 1_655 S
N1856 H1862 0.984 . S
N1856 H1863 0.984 . S
N1857 C1850 1.356 . S
N1857 H1860 0.984 . S
N1857 H1861 0.985 . S
H1858 N1853 0.984 1_655 S
H1859 N1853 0.985 . S
H1860 N1857 0.984 . S
H1861 N1857 0.985 . S
H1862 N1856 0.984 . S
H1863 N1856 0.984 . S
H1864 N1852 0.984 . S
H1865 N1852 0.985 . S
C1866 C1867 1.363 . S
C1866 C1872 1.379 . S
C1866 N1874 1.356 . S
C1867 C1866 1.363 . S
C1867 C1873 1.363 . S
C1868 C1869 1.363 . S
C1868 C1873 1.379 . S
C1868 N1875 1.356 1_545 S
C1869 C1868 1.363 . S
C1869 C1872 1.363 . S
N1870 C1872 1.356 . S
N1870 H1882 0.984 . S
N1870 H1883 0.985 1_545 S
N1871 C1873 1.356 . S
N1871 H1876 0.984 . S
N1871 H1877 0.985 . S
C1872 C1866 1.379 . S
C1872 C1869 1.363 . S
C1872 N1870 1.356 . S
C1873 C1867 1.363 . S
C1873 C1868 1.379 . S
C1873 N1871 1.356 . S
N1874 C1866 1.356 . S
N1874 H1880 0.984 . S
N1874 H1881 0.984 . S
N1875 C1868 1.356 1_565 S
N1875 H1878 0.984 . S
N1875 H1879 0.985 . S
H1876 N1871 0.984 . S
H1877 N1871 0.985 . S
H1878 N1875 0.984 . S
H1879 N1875 0.985 . S
H1880 N1874 0.984 . S
H1881 N1874 0.984 . S
H1882 N1870 0.984 . S
H1883 N1870 0.985 1_565 S
C1884 C1885 1.363 . S
C1884 C1890 1.379 . S
C1884 N1892 1.356 1_655 S
C1885 C1884 1.363 . S
C1885 C1891 1.363 . S
C1886 C1887 1.363 . S
C1886 C1891 1.379 . S
C1886 N1893 1.356 . S
C1887 C1886 1.363 . S
C1887 C1890 1.363 . S
N1888 C1890 1.356 . S
N1888 H1900 0.984 . S
N1888 H1901 0.985 . S
N1889 C1891 1.357 . S
N1889 H1894 0.983 1_655 S
N1889 H1895 0.985 . S
C1890 C1884 1.379 . S
C1890 C1887 1.363 . S
C1890 N1888 1.356 . S
C1891 C1885 1.363 . S
C1891 C1886 1.379 . S
C1891 N1889 1.357 . S
N1892 C1884 1.356 1_455 S
N1892 H1898 0.988 . S
N1892 H1899 0.984 . S
N1893 C1886 1.356 . S
N1893 H1896 0.984 . S
N1893 H1897 0.985 . S
H1894 N1889 0.983 1_455 S
H1895 N1889 0.985 . S
H1896 N1893 0.984 . S
H1897 N1893 0.985 . S
H1898 N1892 0.988 . S
H1899 N1892 0.984 . S
H1900 N1888 0.984 . S
H1901 N1888 0.985 . S
C1902 C1903 1.363 . S
C1902 C1908 1.379 . S
C1902 N1910 1.356 . S
C1903 C1902 1.363 . S
C1903 C1909 1.363 . S
C1904 C1905 1.363 . S
C1904 C1909 1.379 . S
C1904 N1911 1.356 . S
C1905 C1904 1.363 . S
C1905 C1908 1.363 . S
N1906 C1908 1.356 . S
N1906 H1918 0.984 . S
N1906 H1919 0.985 . S
N1907 C1909 1.356 1_545 S
N1907 H1912 0.984 . S
N1907 H1913 0.985 . S
C1908 C1902 1.379 . S
C1908 C1905 1.363 . S
C1908 N1906 1.356 . S
C1909 C1903 1.363 . S
C1909 C1904 1.379 . S
C1909 N1907 1.356 1_565 S
N1910 C1902 1.356 . S
N1910 H1916 0.984 . S
N1910 H1917 0.984 1_565 S
N1911 C1904 1.356 . S
N1911 H1914 0.984 . S
N1911 H1915 0.985 . S
H1912 N1907 0.984 . S
H1913 N1907 0.985 . S
H1914 N1911 0.984 . S
H1915 N1911 0.985 . S
H1916 N1910 0.984 . S
H1917 N1910 0.984 1_545 S
H1918 N1906 0.984 . S
H1919 N1906 0.985 . S
C1920 C1921 1.363 . S
C1920 C1926 1.379 . S
C1920 N1928 1.356 . S
C1921 C1920 1.363 . S
C1921 C1927 1.363 . S
C1922 C1923 1.363 . S
C1922 C1927 1.379 . S
C1922 N1929 1.356 1_545 S
C1923 C1922 1.363 . S
C1923 C1926 1.363 . S
N1924 C1926 1.356 . S
N1924 H1936 0.984 . S
N1924 H1937 0.985 1_545 S
N1925 C1927 1.356 . S
N1925 H1930 0.984 . S
N1925 H1931 0.985 . S
C1926 C1920 1.379 . S
C1926 C1923 1.363 . S
C1926 N1924 1.356 . S
C1927 C1921 1.363 . S
C1927 C1922 1.379 . S
C1927 N1925 1.356 . S
N1928 C1920 1.356 . S
N1928 H1934 0.984 . S
N1928 H1935 0.984 . S
N1929 C1922 1.356 1_565 S
N1929 H1932 0.984 . S
N1929 H1933 0.985 . S
H1930 N1925 0.984 . S
H1931 N1925 0.985 . S
H1932 N1929 0.984 . S
H1933 N1929 0.985 . S
H1934 N1928 0.984 . S
H1935 N1928 0.984 . S
H1936 N1924 0.984 . S
H1937 N1924 0.985 1_565 S
C1938 C1939 1.363 . S
C1938 C1944 1.379 . S
C1938 N1946 1.356 . S
C1939 C1938 1.363 . S
C1939 C1945 1.363 . S
C1940 C1941 1.363 . S
C1940 C1945 1.379 . S
C1940 N1947 1.356 . S
C1941 C1940 1.363 . S
C1941 C1944 1.363 . S
N1942 C1944 1.356 . S
N1942 H1954 0.984 . S
N1942 H1955 0.985 . S
N1943 C1945 1.356 1_545 S
N1943 H1948 0.984 . S
N1943 H1949 0.985 . S
C1944 C1938 1.379 . S
C1944 C1941 1.363 . S
C1944 N1942 1.356 . S
C1945 C1939 1.363 . S
C1945 C1940 1.379 . S
C1945 N1943 1.356 1_565 S
N1946 C1938 1.356 . S
N1946 H1952 0.984 . S
N1946 H1953 0.984 1_565 S
N1947 C1940 1.356 . S
N1947 H1950 0.984 . S
N1947 H1951 0.985 . S
H1948 N1943 0.984 . S
H1949 N1943 0.985 . S
H1950 N1947 0.984 . S
H1951 N1947 0.985 . S
H1952 N1946 0.984 . S
H1953 N1946 0.984 1_545 S
H1954 N1942 0.984 . S
H1955 N1942 0.985 . S
C1956 C1957 1.363 . S
C1956 C1962 1.379 . S
C1956 N1964 1.356 . S
C1957 C1956 1.363 . S
C1957 C1963 1.363 . S
C1958 C1959 1.363 . S
C1958 C1963 1.379 . S
C1958 N1965 1.356 . S
C1959 C1958 1.363 . S
C1959 C1962 1.363 . S
N1960 C1962 1.356 1_655 S
N1960 H1972 0.984 . S
N1960 H1973 0.985 . S
N1961 C1963 1.356 . S
N1961 H1966 0.984 . S
N1961 H1967 0.985 . S
C1962 C1956 1.379 . S
C1962 C1959 1.363 . S
C1962 N1960 1.356 1_455 S
C1963 C1957 1.363 . S
C1963 C1958 1.379 . S
C1963 N1961 1.356 . S
N1964 C1956 1.356 . S
N1964 H1970 0.984 . S
N1964 H1971 0.984 . S
N1965 C1958 1.356 . S
N1965 H1968 0.984 1_455 S
N1965 H1969 0.985 . S
H1966 N1961 0.984 . S
H1967 N1961 0.985 . S
H1968 N1965 0.984 1_655 S
H1969 N1965 0.985 . S
H1970 N1964 0.984 . S
H1971 N1964 0.984 . S
H1972 N1960 0.984 . S
H1973 N1960 0.985 . S
C1974 C1975 1.363 . S
C1974 C1980 1.379 . S
C1974 N1982 1.356 1_545 S
C1975 C1974 1.363 . S
C1975 C1981 1.363 . S
C1976 C1977 1.363 . S
C1976 C1981 1.379 . S
C1976 N1983 1.356 . S
C1977 C1976 1.363 . S
C1977 C1980 1.363 . S
N1978 C1980 1.356 . S
N1978 H1990 0.984 . S
N1978 H1991 0.985 . S
N1979 C1981 1.356 . S
N1979 H1984 0.984 1_545 S
N1979 H1985 0.985 . S
C1980 C1974 1.379 . S
C1980 C1977 1.363 . S
C1980 N1978 1.356 . S
C1981 C1975 1.363 . S
C1981 C1976 1.379 . S
C1981 N1979 1.356 . S
N1982 C1974 1.356 1_565 S
N1982 H1988 0.984 . S
N1982 H1989 0.984 . S
N1983 C1976 1.356 . S
N1983 H1986 0.984 . S
N1983 H1987 0.985 . S
H1984 N1979 0.984 1_565 S
H1985 N1979 0.985 . S
H1986 N1983 0.984 . S
H1987 N1983 0.985 . S
H1988 N1982 0.984 . S
H1989 N1982 0.984 . S
H1990 N1978 0.984 . S
H1991 N1978 0.985 . S
C1992 C1993 1.363 . S
C1992 C1998 1.379 . S
C1992 N2000 1.356 1_655 S
C1993 C1992 1.363 . S
C1993 C1999 1.363 . S
C1994 C1995 1.363 . S
C1994 C1999 1.379 . S
C1994 N2001 1.356 . S
C1995 C1994 1.363 . S
C1995 C1998 1.363 . S
N1996 C1998 1.356 . S
N1996 H2008 0.984 . S
N1996 H2009 0.985 . S
N1997 C1999 1.356 . S
N1997 H2002 0.984 1_655 S
N1997 H2003 0.985 . S
C1998 C1992 1.379 . S
C1998 C1995 1.363 . S
C1998 N1996 1.356 . S
C1999 C1993 1.363 . S
C1999 C1994 1.379 . S
C1999 N1997 1.356 . S
N2000 C1992 1.356 1_455 S
N2000 H2006 0.984 . S
N2000 H2007 0.984 . S
N2001 C1994 1.356 . S
N2001 H2004 0.984 . S
N2001 H2005 0.985 . S
H2002 N1997 0.984 1_455 S
H2003 N1997 0.985 . S
H2004 N2001 0.984 . S
H2005 N2001 0.985 . S
H2006 N2000 0.984 . S
H2007 N2000 0.984 . S
H2008 N1996 0.984 . S
H2009 N1996 0.985 . S
C2010 C2011 1.363 . S
C2010 C2016 1.379 . S
C2010 N2018 1.356 . S
C2011 C2010 1.363 . S
C2011 C2017 1.363 . S
C2012 C2013 1.363 . S
C2012 C2017 1.379 . S
C2012 N2019 1.356 . S
C2013 C2012 1.363 . S
C2013 C2016 1.363 . S
N2014 C2016 1.356 1_545 S
N2014 H2026 0.984 . S
N2014 H2027 0.985 . S
N2015 C2017 1.356 . S
N2015 H2020 0.984 . S
N2015 H2021 0.985 . S
C2016 C2010 1.379 . S
C2016 C2013 1.363 . S
C2016 N2014 1.356 1_565 S
C2017 C2011 1.363 . S
C2017 C2012 1.379 . S
C2017 N2015 1.356 . S
N2018 C2010 1.356 . S
N2018 H2024 0.984 . S
N2018 H2025 0.984 . S
N2019 C2012 1.356 . S
N2019 H2022 0.984 1_565 S
N2019 H2023 0.985 . S
H2020 N2015 0.984 . S
H2021 N2015 0.985 . S
H2022 N2019 0.984 1_545 S
H2023 N2019 0.985 . S
H2024 N2018 0.984 . S
H2025 N2018 0.984 . S
H2026 N2014 0.984 . S
H2027 N2014 0.985 . S
C2028 C2029 1.363 . S
C2028 C2034 1.379 . S
C2028 N2036 1.356 . S
C2029 C2028 1.363 . S
C2029 C2035 1.363 . S
C2030 C2031 1.363 . S
C2030 C2035 1.379 . S
C2030 N2037 1.356 1_455 S
C2031 C2030 1.363 . S
C2031 C2034 1.363 . S
N2032 C2034 1.356 . S
N2032 H2044 0.984 . S
N2032 H2045 0.985 1_455 S
N2033 C2035 1.356 . S
N2033 H2038 0.984 . S
N2033 H2039 0.985 . S
C2034 C2028 1.379 . S
C2034 C2031 1.363 . S
C2034 N2032 1.356 . S
C2035 C2029 1.363 . S
C2035 C2030 1.379 . S
C2035 N2033 1.356 . S
N2036 C2028 1.356 . S
N2036 H2042 0.984 . S
N2036 H2043 0.984 . S
N2037 C2030 1.356 1_655 S
N2037 H2040 0.984 . S
N2037 H2041 0.985 . S
H2038 N2033 0.984 . S
H2039 N2033 0.985 . S
H2040 N2037 0.984 . S
H2041 N2037 0.985 . S
H2042 N2036 0.984 . S
H2043 N2036 0.984 . S
H2044 N2032 0.984 . S
H2045 N2032 0.985 1_655 S
C2046 C2047 1.363 . S
C2046 C2052 1.379 . S
C2046 N2054 1.356 1_655 S
C2047 C2046 1.363 . S
C2047 C2053 1.363 . S
C2048 C2049 1.363 . S
C2048 C2053 1.379 . S
C2048 N2055 1.356 . S
C2049 C2048 1.363 . S
C2049 C2052 1.363 . S
N2050 C2052 1.356 . S
N2050 H2062 0.984 . S
N2050 H2063 0.985 . S
N2051 C2053 1.356 . S
N2051 H2056 0.984 1_655 S
N2051 H2057 0.985 . S
C2052 C2046 1.379 . S
C2052 C2049 1.363 . S
C2052 N2050 1.356 . S
C2053 C2047 1.363 . S
C2053 C2048 1.379 . S
C2053 N2051 1.356 . S
N2054 C2046 1.356 1_455 S
N2054 H2060 0.984 . S
N2054 H2061 0.984 . S
N2055 C2048 1.356 . S
N2055 H2058 0.984 . S
N2055 H2059 0.985 . S
H2056 N2051 0.984 1_455 S
H2057 N2051 0.985 . S
H2058 N2055 0.984 . S
H2059 N2055 0.985 . S
H2060 N2054 0.984 . S
H2061 N2054 0.984 . S
H2062 N2050 0.984 . S
H2063 N2050 0.985 . S
C2064 C2065 1.363 . S
C2064 C2070 1.379 . S
C2064 N2072 1.356 . S
C2065 C2064 1.363 . S
C2065 C2071 1.363 . S
C2066 C2067 1.363 . S
C2066 C2071 1.379 . S
C2066 N2073 1.356 . S
C2067 C2066 1.363 . S
C2067 C2070 1.363 . S
N2068 C2070 1.356 . S
N2068 H2080 0.984 . S
N2068 H2081 0.985 . S
N2069 C2071 1.356 . S
N2069 H2074 0.984 . S
N2069 H2075 0.985 . S
C2070 C2064 1.379 . S
C2070 C2067 1.363 . S
C2070 N2068 1.356 . S
C2071 C2065 1.363 . S
C2071 C2066 1.379 . S
C2071 N2069 1.356 . S
N2072 C2064 1.356 . S
N2072 H2078 0.984 . S
N2072 H2079 0.984 . S
N2073 C2066 1.356 . S
N2073 H2076 0.984 . S
N2073 H2077 0.985 . S
H2074 N2069 0.984 . S
H2075 N2069 0.985 . S
H2076 N2073 0.984 . S
H2077 N2073 0.985 . S
H2078 N2072 0.984 . S
H2079 N2072 0.984 . S
H2080 N2068 0.984 . S
H2081 N2068 0.985 . S
C2082 C2083 1.363 . S
C2082 C2088 1.379 . S
C2082 N2090 1.356 . S
C2083 C2082 1.363 . S
C2083 C2089 1.363 . S
C2084 C2085 1.363 . S
C2084 C2089 1.379 . S
C2084 N2091 1.356 . S
C2085 C2084 1.363 . S
C2085 C2088 1.363 . S
N2086 C2088 1.356 . S
N2086 H2098 0.984 . S
N2086 H2099 0.985 . S
N2087 C2089 1.356 . S
N2087 H2092 0.984 . S
N2087 H2093 0.985 . S
C2088 C2082 1.379 . S
C2088 C2085 1.363 . S
C2088 N2086 1.356 . S
C2089 C2083 1.363 . S
C2089 C2084 1.379 . S
C2089 N2087 1.356 . S
N2090 C2082 1.356 . S
N2090 H2096 0.984 . S
N2090 H2097 0.984 . S
N2091 C2084 1.356 . S
N2091 H2094 0.984 . S
N2091 H2095 0.985 . S
H2092 N2087 0.984 . S
H2093 N2087 0.985 . S
H2094 N2091 0.984 . S
H2095 N2091 0.985 . S
H2096 N2090 0.984 . S
H2097 N2090 0.984 . S
H2098 N2086 0.984 . S
H2099 N2086 0.985 . S
C2100 C2101 1.363 . S
C2100 C2106 1.379 . S
C2100 N2108 1.356 . S
C2101 C2100 1.363 . S
C2101 C2107 1.363 . S
C2102 C2103 1.363 . S
C2102 C2107 1.379 . S
C2102 N2109 1.356 . S
C2103 C2102 1.363 . S
C2103 C2106 1.363 . S
N2104 C2106 1.356 . S
N2104 H2116 0.984 . S
N2104 H2117 0.985 . S
N2105 C2107 1.356 . S
N2105 H2110 0.984 . S
N2105 H2111 0.985 . S
C2106 C2100 1.379 . S
C2106 C2103 1.363 . S
C2106 N2104 1.356 . S
C2107 C2101 1.363 . S
C2107 C2102 1.379 . S
C2107 N2105 1.356 . S
N2108 C2100 1.356 . S
N2108 H2114 0.984 . S
N2108 H2115 0.984 . S
N2109 C2102 1.356 . S
N2109 H2112 0.984 . S
N2109 H2113 0.985 . S
H2110 N2105 0.984 . S
H2111 N2105 0.985 . S
H2112 N2109 0.984 . S
H2113 N2109 0.985 . S
H2114 N2108 0.984 . S
H2115 N2108 0.984 . S
H2116 N2104 0.984 . S
H2117 N2104 0.985 . S
C2118 C2119 1.363 . S
C2118 C2124 1.379 . S
C2118 N2126 1.356 . S
C2119 C2118 1.363 . S
C2119 C2125 1.363 . S
C2120 C2121 1.363 . S
C2120 C2125 1.379 . S
C2120 N2127 1.356 . S
C2121 C2120 1.363 . S
C2121 C2124 1.363 . S
N2122 C2124 1.356 . S
N2122 H2134 0.984 . S
N2122 H2135 0.985 . S
N2123 C2125 1.356 . S
N2123 H2128 0.984 . S
N2123 H2129 0.985 . S
C2124 C2118 1.379 . S
C2124 C2121 1.363 . S
C2124 N2122 1.356 . S
C2125 C2119 1.363 . S
C2125 C2120 1.379 . S
C2125 N2123 1.356 . S
N2126 C2118 1.356 . S
N2126 H2132 0.984 . S
N2126 H2133 0.984 . S
N2127 C2120 1.356 . S
N2127 H2130 0.984 . S
N2127 H2131 0.985 . S
H2128 N2123 0.984 . S
H2129 N2123 0.985 . S
H2130 N2127 0.984 . S
H2131 N2127 0.985 . S
H2132 N2126 0.984 . S
H2133 N2126 0.984 . S
H2134 N2122 0.984 . S
H2135 N2122 0.985 . S
C2136 C2137 1.363 . S
C2136 C2142 1.379 . S
C2136 N2144 1.356 . S
C2137 C2136 1.363 . S
C2137 C2143 1.363 . S
C2138 C2139 1.363 . S
C2138 C2143 1.379 . S
C2138 N2145 1.356 . S
C2139 C2138 1.363 . S
C2139 C2142 1.363 . S
N2140 C2142 1.356 . S
N2140 H2152 0.984 . S
N2140 H2153 0.985 . S
N2141 C2143 1.356 . S
N2141 H2146 0.984 . S
N2141 H2147 0.985 . S
C2142 C2136 1.379 . S
C2142 C2139 1.363 . S
C2142 N2140 1.356 . S
C2143 C2137 1.363 . S
C2143 C2138 1.379 . S
C2143 N2141 1.356 . S
N2144 C2136 1.356 . S
N2144 H2150 0.984 . S
N2144 H2151 0.984 . S
N2145 C2138 1.356 . S
N2145 H2148 0.984 . S
N2145 H2149 0.985 . S
H2146 N2141 0.984 . S
H2147 N2141 0.985 . S
H2148 N2145 0.984 . S
H2149 N2145 0.985 . S
H2150 N2144 0.984 . S
H2151 N2144 0.984 . S
H2152 N2140 0.984 . S
H2153 N2140 0.985 . S
C2154 C2155 1.363 . S
C2154 C2160 1.379 . S
C2154 N2162 1.356 . S
C2155 C2154 1.363 . S
C2155 C2161 1.363 . S
C2156 C2157 1.363 . S
C2156 C2161 1.379 . S
C2156 N2163 1.356 . S
C2157 C2156 1.363 . S
C2157 C2160 1.363 . S
N2158 C2160 1.356 . S
N2158 H2170 0.984 . S
N2158 H2171 0.985 . S
N2159 C2161 1.356 . S
N2159 H2164 0.984 . S
N2159 H2165 0.985 . S
C2160 C2154 1.379 . S
C2160 C2157 1.363 . S
C2160 N2158 1.356 . S
C2161 C2155 1.363 . S
C2161 C2156 1.379 . S
C2161 N2159 1.356 . S
N2162 C2154 1.356 . S
N2162 H2168 0.984 . S
N2162 H2169 0.984 . S
N2163 C2156 1.356 . S
N2163 H2166 0.984 . S
N2163 H2167 0.985 . S
H2164 N2159 0.984 . S
H2165 N2159 0.985 . S
H2166 N2163 0.984 . S
H2167 N2163 0.985 . S
H2168 N2162 0.984 . S
H2169 N2162 0.984 . S
H2170 N2158 0.984 . S
H2171 N2158 0.985 . S
C2172 C2173 1.363 . S
C2172 C2178 1.379 . S
C2172 N2180 1.356 . S
C2173 C2172 1.363 . S
C2173 C2179 1.363 . S
C2174 C2175 1.363 . S
C2174 C2179 1.379 . S
C2174 N2181 1.356 . S
C2175 C2174 1.363 . S
C2175 C2178 1.363 . S
N2176 C2178 1.356 . S
N2176 H2188 0.984 . S
N2176 H2189 0.985 . S
N2177 C2179 1.356 . S
N2177 H2182 0.984 . S
N2177 H2183 0.985 . S
C2178 C2172 1.379 . S
C2178 C2175 1.363 . S
C2178 N2176 1.356 . S
C2179 C2173 1.363 . S
C2179 C2174 1.379 . S
C2179 N2177 1.356 . S
N2180 C2172 1.356 . S
N2180 H2186 0.984 . S
N2180 H2187 0.984 . S
N2181 C2174 1.356 . S
N2181 H2184 0.984 . S
N2181 H2185 0.985 . S
H2182 N2177 0.984 . S
H2183 N2177 0.985 . S
H2184 N2181 0.984 . S
H2185 N2181 0.985 . S
H2186 N2180 0.984 . S
H2187 N2180 0.984 . S
H2188 N2176 0.984 . S
H2189 N2176 0.985 . S
C2190 C2191 1.363 . S
C2190 C2196 1.379 . S
C2190 N2198 1.356 . S
C2191 C2190 1.363 . S
C2191 C2197 1.363 . S
C2192 C2193 1.363 . S
C2192 C2197 1.379 . S
C2192 N2199 1.356 . S
C2193 C2192 1.363 . S
C2193 C2196 1.363 . S
N2194 C2196 1.356 . S
N2194 H2206 0.984 . S
N2194 H2207 0.985 . S
N2195 C2197 1.356 . S
N2195 H2200 0.984 . S
N2195 H2201 0.985 . S
C2196 C2190 1.379 . S
C2196 C2193 1.363 . S
C2196 N2194 1.356 . S
C2197 C2191 1.363 . S
C2197 C2192 1.379 . S
C2197 N2195 1.356 . S
N2198 C2190 1.356 . S
N2198 H2204 0.984 . S
N2198 H2205 0.984 . S
N2199 C2192 1.356 . S
N2199 H2202 0.984 . S
N2199 H2203 0.985 . S
H2200 N2195 0.984 . S
H2201 N2195 0.985 . S
H2202 N2199 0.984 . S
H2203 N2199 0.985 . S
H2204 N2198 0.984 . S
H2205 N2198 0.984 . S
H2206 N2194 0.984 . S
H2207 N2194 0.985 . S
C2208 C2209 1.363 . S
C2208 C2214 1.379 . S
C2208 N2216 1.356 . S
C2209 C2208 1.363 . S
C2209 C2215 1.363 . S
C2210 C2211 1.363 . S
C2210 C2215 1.379 . S
C2210 N2217 1.356 . S
C2211 C2210 1.363 . S
C2211 C2214 1.363 . S
N2212 C2214 1.356 . S
N2212 H2224 0.984 . S
N2212 H2225 0.985 . S
N2213 C2215 1.356 . S
N2213 H2218 0.984 . S
N2213 H2219 0.985 . S
C2214 C2208 1.379 . S
C2214 C2211 1.363 . S
C2214 N2212 1.356 . S
C2215 C2209 1.363 . S
C2215 C2210 1.379 . S
C2215 N2213 1.356 . S
N2216 C2208 1.356 . S
N2216 H2222 0.984 . S
N2216 H2223 0.984 . S
N2217 C2210 1.356 . S
N2217 H2220 0.984 . S
N2217 H2221 0.985 . S
H2218 N2213 0.984 . S
H2219 N2213 0.985 . S
H2220 N2217 0.984 . S
H2221 N2217 0.985 . S
H2222 N2216 0.984 . S
H2223 N2216 0.984 . S
H2224 N2212 0.984 . S
H2225 N2212 0.985 . S
C2226 C2227 1.363 . S
C2226 C2232 1.379 . S
C2226 N2234 1.356 . S
C2227 C2226 1.363 . S
C2227 C2233 1.363 . S
C2228 C2229 1.363 . S
C2228 C2233 1.379 . S
C2228 N2235 1.356 . S
C2229 C2228 1.363 . S
C2229 C2232 1.363 . S
N2230 C2232 1.356 . S
N2230 H2242 0.984 . S
N2230 H2243 0.985 . S
N2231 C2233 1.356 . S
N2231 H2236 0.984 . S
N2231 H2237 0.985 . S
C2232 C2226 1.379 . S
C2232 C2229 1.363 . S
C2232 N2230 1.356 . S
C2233 C2227 1.363 . S
C2233 C2228 1.379 . S
C2233 N2231 1.356 . S
N2234 C2226 1.356 . S
N2234 H2240 0.984 . S
N2234 H2241 0.984 . S
N2235 C2228 1.356 . S
N2235 H2238 0.984 . S
N2235 H2239 0.985 . S
H2236 N2231 0.984 . S
H2237 N2231 0.985 . S
H2238 N2235 0.984 . S
H2239 N2235 0.985 . S
H2240 N2234 0.984 . S
H2241 N2234 0.984 . S
H2242 N2230 0.984 . S
H2243 N2230 0.985 . S
C2244 C2245 1.363 . S
C2244 C2250 1.379 . S
C2244 N2252 1.356 . S
C2245 C2244 1.363 . S
C2245 C2251 1.363 . S
C2246 C2247 1.363 . S
C2246 C2251 1.379 . S
C2246 N2253 1.356 . S
C2247 C2246 1.363 . S
C2247 C2250 1.363 . S
N2248 C2250 1.356 . S
N2248 H2260 0.984 . S
N2248 H2261 0.985 . S
N2249 C2251 1.356 . S
N2249 H2254 0.984 . S
N2249 H2255 0.985 . S
C2250 C2244 1.379 . S
C2250 C2247 1.363 . S
C2250 N2248 1.356 . S
C2251 C2245 1.363 . S
C2251 C2246 1.379 . S
C2251 N2249 1.356 . S
N2252 C2244 1.356 . S
N2252 H2258 0.984 . S
N2252 H2259 0.984 . S
N2253 C2246 1.356 . S
N2253 H2256 0.984 . S
N2253 H2257 0.985 . S
H2254 N2249 0.984 . S
H2255 N2249 0.985 . S
H2256 N2253 0.984 . S
H2257 N2253 0.985 . S
H2258 N2252 0.984 . S
H2259 N2252 0.984 . S
H2260 N2248 0.984 . S
H2261 N2248 0.985 . S
C2262 C2263 1.363 . S
C2262 C2268 1.379 . S
C2262 N2270 1.356 . S
C2263 C2262 1.363 . S
C2263 C2269 1.363 . S
C2264 C2265 1.363 . S
C2264 C2269 1.379 . S
C2264 N2271 1.356 . S
C2265 C2264 1.363 . S
C2265 C2268 1.363 . S
N2266 C2268 1.356 . S
N2266 H2278 0.984 . S
N2266 H2279 0.985 . S
N2267 C2269 1.356 . S
N2267 H2272 0.984 . S
N2267 H2273 0.985 . S
C2268 C2262 1.379 . S
C2268 C2265 1.363 . S
C2268 N2266 1.356 . S
C2269 C2263 1.363 . S
C2269 C2264 1.379 . S
C2269 N2267 1.356 . S
N2270 C2262 1.356 . S
N2270 H2276 0.984 . S
N2270 H2277 0.984 . S
N2271 C2264 1.356 . S
N2271 H2274 0.984 . S
N2271 H2275 0.985 . S
H2272 N2267 0.984 . S
H2273 N2267 0.985 . S
H2274 N2271 0.984 . S
H2275 N2271 0.985 . S
H2276 N2270 0.984 . S
H2277 N2270 0.984 . S
H2278 N2266 0.984 . S
H2279 N2266 0.985 . S
C2280 C2281 1.363 . S
C2280 C2286 1.379 . S
C2280 N2288 1.356 . S
C2281 C2280 1.363 . S
C2281 C2287 1.363 . S
C2282 C2283 1.363 . S
C2282 C2287 1.379 . S
C2282 N2289 1.356 . S
C2283 C2282 1.363 . S
C2283 C2286 1.363 . S
N2284 C2286 1.356 . S
N2284 H2296 0.984 . S
N2284 H2297 0.985 . S
N2285 C2287 1.356 . S
N2285 H2290 0.984 . S
N2285 H2291 0.985 . S
C2286 C2280 1.379 . S
C2286 C2283 1.363 . S
C2286 N2284 1.356 . S
C2287 C2281 1.363 . S
C2287 C2282 1.379 . S
C2287 N2285 1.356 . S
N2288 C2280 1.356 . S
N2288 H2294 0.984 . S
N2288 H2295 0.984 . S
N2289 C2282 1.356 . S
N2289 H2292 0.984 . S
N2289 H2293 0.985 . S
H2290 N2285 0.984 . S
H2291 N2285 0.985 . S
H2292 N2289 0.984 . S
H2293 N2289 0.985 . S
H2294 N2288 0.984 . S
H2295 N2288 0.984 . S
H2296 N2284 0.984 . S
H2297 N2284 0.985 . S
C2298 C2299 1.363 . S
C2298 C2304 1.379 . S
C2298 N2306 1.356 . S
C2299 C2298 1.363 . S
C2299 C2305 1.363 . S
C2300 C2301 1.363 . S
C2300 C2305 1.379 . S
C2300 N2307 1.356 . S
C2301 C2300 1.363 . S
C2301 C2304 1.363 . S
N2302 C2304 1.356 . S
N2302 H2314 0.984 . S
N2302 H2315 0.985 . S
N2303 C2305 1.356 . S
N2303 H2308 0.984 . S
N2303 H2309 0.985 . S
C2304 C2298 1.379 . S
C2304 C2301 1.363 . S
C2304 N2302 1.356 . S
C2305 C2299 1.363 . S
C2305 C2300 1.379 . S
C2305 N2303 1.356 . S
N2306 C2298 1.356 . S
N2306 H2312 0.984 . S
N2306 H2313 0.984 . S
N2307 C2300 1.356 . S
N2307 H2310 0.984 . S
N2307 H2311 0.985 . S
H2308 N2303 0.984 . S
H2309 N2303 0.985 . S
H2310 N2307 0.984 . S
H2311 N2307 0.985 . S
H2312 N2306 0.984 . S
H2313 N2306 0.984 . S
H2314 N2302 0.984 . S
H2315 N2302 0.985 . S
C2316 C2317 1.363 . S
C2316 C2322 1.379 . S
C2316 N2324 1.356 . S
C2317 C2316 1.363 . S
C2317 C2323 1.363 . S
C2318 C2319 1.363 . S
C2318 C2323 1.379 . S
C2318 N2325 1.356 . S
C2319 C2318 1.363 . S
C2319 C2322 1.363 . S
N2320 C2322 1.356 . S
N2320 H2332 0.984 . S
N2320 H2333 0.985 . S
N2321 C2323 1.356 . S
N2321 H2326 0.984 . S
N2321 H2327 0.985 . S
C2322 C2316 1.379 . S
C2322 C2319 1.363 . S
C2322 N2320 1.356 . S
C2323 C2317 1.363 . S
C2323 C2318 1.379 . S
C2323 N2321 1.356 . S
N2324 C2316 1.356 . S
N2324 H2330 0.984 . S
N2324 H2331 0.984 . S
N2325 C2318 1.356 . S
N2325 H2328 0.984 . S
N2325 H2329 0.985 . S
H2326 N2321 0.984 . S
H2327 N2321 0.985 . S
H2328 N2325 0.984 . S
H2329 N2325 0.985 . S
H2330 N2324 0.984 . S
H2331 N2324 0.984 . S
H2332 N2320 0.984 . S
H2333 N2320 0.985 . S
C2334 C2335 1.363 . S
C2334 C2340 1.379 . S
C2334 N2342 1.356 . S
C2335 C2334 1.363 . S
C2335 C2341 1.363 . S
C2336 C2337 1.363 . S
C2336 C2341 1.379 . S
C2336 N2343 1.356 . S
C2337 C2336 1.363 . S
C2337 C2340 1.363 . S
N2338 C2340 1.356 . S
N2338 H2350 0.984 . S
N2338 H2351 0.985 . S
N2339 C2341 1.356 . S
N2339 H2344 0.984 . S
N2339 H2345 0.985 . S
C2340 C2334 1.379 . S
C2340 C2337 1.363 . S
C2340 N2338 1.356 . S
C2341 C2335 1.363 . S
C2341 C2336 1.379 . S
C2341 N2339 1.356 . S
N2342 C2334 1.356 . S
N2342 H2348 0.984 . S
N2342 H2349 0.984 . S
N2343 C2336 1.356 . S
N2343 H2346 0.984 . S
N2343 H2347 0.985 . S
H2344 N2339 0.984 . S
H2345 N2339 0.985 . S
H2346 N2343 0.984 . S
H2347 N2343 0.985 . S
H2348 N2342 0.984 . S
H2349 N2342 0.984 . S
H2350 N2338 0.984 . S
H2351 N2338 0.985 . S
C2352 C2353 1.363 . S
C2352 C2358 1.379 . S
C2352 N2360 1.356 . S
C2353 C2352 1.363 . S
C2353 C2359 1.363 . S
C2354 C2355 1.363 . S
C2354 C2359 1.379 . S
C2354 N2361 1.356 . S
C2355 C2354 1.363 . S
C2355 C2358 1.363 . S
N2356 C2358 1.356 . S
N2356 H2368 0.984 . S
N2356 H2369 0.985 . S
N2357 C2359 1.356 . S
N2357 H2362 0.984 . S
N2357 H2363 0.985 . S
C2358 C2352 1.379 . S
C2358 C2355 1.363 . S
C2358 N2356 1.356 . S
C2359 C2353 1.363 . S
C2359 C2354 1.379 . S
C2359 N2357 1.356 . S
N2360 C2352 1.356 . S
N2360 H2366 0.984 . S
N2360 H2367 0.984 . S
N2361 C2354 1.356 . S
N2361 H2364 0.984 . S
N2361 H2365 0.985 . S
H2362 N2357 0.984 . S
H2363 N2357 0.985 . S
H2364 N2361 0.984 . S
H2365 N2361 0.985 . S
H2366 N2360 0.984 . S
H2367 N2360 0.984 . S
H2368 N2356 0.984 . S
H2369 N2356 0.985 . S
C2370 C2371 1.363 . S
C2370 C2376 1.379 . S
C2370 N2378 1.356 . S
C2371 C2370 1.363 . S
C2371 C2377 1.363 . S
C2372 C2373 1.363 . S
C2372 C2377 1.379 . S
C2372 N2379 1.356 . S
C2373 C2372 1.363 . S
C2373 C2376 1.363 . S
N2374 C2376 1.356 . S
N2374 H2386 0.984 . S
N2374 H2387 0.985 . S
N2375 C2377 1.356 . S
N2375 H2380 0.984 . S
N2375 H2381 0.985 . S
C2376 C2370 1.379 . S
C2376 C2373 1.363 . S
C2376 N2374 1.356 . S
C2377 C2371 1.363 . S
C2377 C2372 1.379 . S
C2377 N2375 1.356 . S
N2378 C2370 1.356 . S
N2378 H2384 0.984 . S
N2378 H2385 0.984 . S
N2379 C2372 1.356 . S
N2379 H2382 0.984 . S
N2379 H2383 0.985 . S
H2380 N2375 0.984 . S
H2381 N2375 0.985 . S
H2382 N2379 0.984 . S
H2383 N2379 0.985 . S
H2384 N2378 0.984 . S
H2385 N2378 0.984 . S
H2386 N2374 0.984 . S
H2387 N2374 0.985 . S
C2388 C2389 1.363 . S
C2388 C2394 1.379 . S
C2388 N2396 1.356 . S
C2389 C2388 1.363 . S
C2389 C2395 1.363 . S
C2390 C2391 1.363 . S
C2390 C2395 1.379 . S
C2390 N2397 1.356 . S
C2391 C2390 1.363 . S
C2391 C2394 1.363 . S
N2392 C2394 1.356 . S
N2392 H2404 0.984 . S
N2392 H2405 0.985 . S
N2393 C2395 1.356 . S
N2393 H2398 0.984 . S
N2393 H2399 0.985 . S
C2394 C2388 1.379 . S
C2394 C2391 1.363 . S
C2394 N2392 1.356 . S
C2395 C2389 1.363 . S
C2395 C2390 1.379 . S
C2395 N2393 1.356 . S
N2396 C2388 1.356 . S
N2396 H2402 0.984 . S
N2396 H2403 0.984 . S
N2397 C2390 1.356 . S
N2397 H2400 0.984 . S
N2397 H2401 0.985 . S
H2398 N2393 0.984 . S
H2399 N2393 0.985 . S
H2400 N2397 0.984 . S
H2401 N2397 0.985 . S
H2402 N2396 0.984 . S
H2403 N2396 0.984 . S
H2404 N2392 0.984 . S
H2405 N2392 0.985 . S
C2406 C2407 1.363 . S
C2406 C2412 1.379 . S
C2406 N2414 1.356 . S
C2407 C2406 1.363 . S
C2407 C2413 1.363 . S
C2408 C2409 1.363 . S
C2408 C2413 1.379 . S
C2408 N2415 1.356 . S
C2409 C2408 1.363 . S
C2409 C2412 1.363 . S
N2410 C2412 1.356 . S
N2410 H2422 0.984 . S
N2410 H2423 0.985 . S
N2411 C2413 1.356 . S
N2411 H2416 0.984 . S
N2411 H2417 0.985 . S
C2412 C2406 1.379 . S
C2412 C2409 1.363 . S
C2412 N2410 1.356 . S
C2413 C2407 1.363 . S
C2413 C2408 1.379 . S
C2413 N2411 1.356 . S
N2414 C2406 1.356 . S
N2414 H2420 0.984 . S
N2414 H2421 0.984 . S
N2415 C2408 1.356 . S
N2415 H2418 0.984 . S
N2415 H2419 0.985 . S
H2416 N2411 0.984 . S
H2417 N2411 0.985 . S
H2418 N2415 0.984 . S
H2419 N2415 0.985 . S
H2420 N2414 0.984 . S
H2421 N2414 0.984 . S
H2422 N2410 0.984 . S
H2423 N2410 0.985 . S
C2424 C2425 1.363 . S
C2424 C2430 1.379 . S
C2424 N2432 1.356 . S
C2425 C2424 1.363 . S
C2425 C2431 1.363 . S
C2426 C2427 1.363 . S
C2426 C2431 1.379 . S
C2426 N2433 1.356 . S
C2427 C2426 1.363 . S
C2427 C2430 1.363 . S
N2428 C2430 1.356 . S
N2428 H2440 0.984 . S
N2428 H2441 0.985 . S
N2429 C2431 1.356 . S
N2429 H2434 0.984 . S
N2429 H2435 0.985 . S
C2430 C2424 1.379 . S
C2430 C2427 1.363 . S
C2430 N2428 1.356 . S
C2431 C2425 1.363 . S
C2431 C2426 1.379 . S
C2431 N2429 1.356 . S
N2432 C2424 1.356 . S
N2432 H2438 0.984 . S
N2432 H2439 0.984 . S
N2433 C2426 1.356 . S
N2433 H2436 0.984 . S
N2433 H2437 0.985 . S
H2434 N2429 0.984 . S
H2435 N2429 0.985 . S
H2436 N2433 0.984 . S
H2437 N2433 0.985 . S
H2438 N2432 0.984 . S
H2439 N2432 0.984 . S
H2440 N2428 0.984 . S
H2441 N2428 0.985 . S
C2442 C2443 1.363 . S
C2442 C2448 1.379 . S
C2442 N2450 1.356 . S
C2443 C2442 1.363 . S
C2443 C2449 1.363 . S
C2444 C2445 1.363 . S
C2444 C2449 1.379 . S
C2444 N2451 1.356 . S
C2445 C2444 1.363 . S
C2445 C2448 1.363 . S
N2446 C2448 1.356 . S
N2446 H2458 0.984 . S
N2446 H2459 0.985 . S
N2447 C2449 1.356 . S
N2447 H2452 0.984 . S
N2447 H2453 0.985 . S
C2448 C2442 1.379 . S
C2448 C2445 1.363 . S
C2448 N2446 1.356 . S
C2449 C2443 1.363 . S
C2449 C2444 1.379 . S
C2449 N2447 1.356 . S
N2450 C2442 1.356 . S
N2450 H2456 0.984 . S
N2450 H2457 0.984 . S
N2451 C2444 1.356 . S
N2451 H2454 0.984 . S
N2451 H2455 0.985 . S
H2452 N2447 0.984 . S
H2453 N2447 0.985 . S
H2454 N2451 0.984 . S
H2455 N2451 0.985 . S
H2456 N2450 0.984 . S
H2457 N2450 0.984 . S
H2458 N2446 0.984 . S
H2459 N2446 0.985 . S
C2460 C2461 1.363 . S
C2460 C2466 1.379 . S
C2460 N2468 1.356 . S
C2461 C2460 1.363 . S
C2461 C2467 1.363 . S
C2462 C2463 1.363 . S
C2462 C2467 1.379 . S
C2462 N2469 1.356 . S
C2463 C2462 1.363 . S
C2463 C2466 1.363 . S
N2464 C2466 1.356 . S
N2464 H2476 0.984 . S
N2464 H2477 0.985 . S
N2465 C2467 1.356 . S
N2465 H2470 0.984 . S
N2465 H2471 0.985 . S
C2466 C2460 1.379 . S
C2466 C2463 1.363 . S
C2466 N2464 1.356 . S
C2467 C2461 1.363 . S
C2467 C2462 1.379 . S
C2467 N2465 1.356 . S
N2468 C2460 1.356 . S
N2468 H2474 0.984 . S
N2468 H2475 0.984 . S
N2469 C2462 1.356 . S
N2469 H2472 0.984 . S
N2469 H2473 0.985 . S
H2470 N2465 0.984 . S
H2471 N2465 0.985 . S
H2472 N2469 0.984 . S
H2473 N2469 0.985 . S
H2474 N2468 0.984 . S
H2475 N2468 0.984 . S
H2476 N2464 0.984 . S
H2477 N2464 0.985 . S
C2478 C2479 1.363 . S
C2478 C2484 1.379 . S
C2478 N2486 1.356 . S
C2479 C2478 1.363 . S
C2479 C2485 1.363 . S
C2480 C2481 1.363 . S
C2480 C2485 1.379 . S
C2480 N2487 1.356 . S
C2481 C2480 1.363 . S
C2481 C2484 1.363 . S
N2482 C2484 1.356 . S
N2482 H2494 0.984 . S
N2482 H2495 0.985 . S
N2483 C2485 1.356 . S
N2483 H2488 0.984 . S
N2483 H2489 0.985 . S
C2484 C2478 1.379 . S
C2484 C2481 1.363 . S
C2484 N2482 1.356 . S
C2485 C2479 1.363 . S
C2485 C2480 1.379 . S
C2485 N2483 1.356 . S
N2486 C2478 1.356 . S
N2486 H2492 0.984 . S
N2486 H2493 0.984 . S
N2487 C2480 1.356 . S
N2487 H2490 0.984 . S
N2487 H2491 0.985 . S
H2488 N2483 0.984 . S
H2489 N2483 0.985 . S
H2490 N2487 0.984 . S
H2491 N2487 0.985 . S
H2492 N2486 0.984 . S
H2493 N2486 0.984 . S
H2494 N2482 0.984 . S
H2495 N2482 0.985 . S
C2496 C2497 1.363 . S
C2496 C2502 1.379 . S
C2496 N2504 1.356 . S
C2497 C2496 1.363 . S
C2497 C2503 1.363 . S
C2498 C2499 1.363 . S
C2498 C2503 1.379 . S
C2498 N2505 1.356 . S
C2499 C2498 1.363 . S
C2499 C2502 1.363 . S
N2500 C2502 1.356 . S
N2500 H2512 0.984 . S
N2500 H2513 0.985 . S
N2501 C2503 1.356 . S
N2501 H2506 0.984 . S
N2501 H2507 0.985 . S
C2502 C2496 1.379 . S
C2502 C2499 1.363 . S
C2502 N2500 1.356 . S
C2503 C2497 1.363 . S
C2503 C2498 1.379 . S
C2503 N2501 1.356 . S
N2504 C2496 1.356 . S
N2504 H2510 0.984 . S
N2504 H2511 0.984 . S
N2505 C2498 1.356 . S
N2505 H2508 0.984 . S
N2505 H2509 0.985 . S
H2506 N2501 0.984 . S
H2507 N2501 0.985 . S
H2508 N2505 0.984 . S
H2509 N2505 0.985 . S
H2510 N2504 0.984 . S
H2511 N2504 0.984 . S
H2512 N2500 0.984 . S
H2513 N2500 0.985 . S
C2514 C2515 1.363 . S
C2514 C2520 1.379 . S
C2514 N2522 1.356 . S
C2515 C2514 1.363 . S
C2515 C2521 1.363 . S
C2516 C2517 1.363 . S
C2516 C2521 1.379 . S
C2516 N2523 1.356 . S
C2517 C2516 1.363 . S
C2517 C2520 1.363 . S
N2518 C2520 1.356 . S
N2518 H2530 0.984 . S
N2518 H2531 0.985 . S
N2519 C2521 1.356 . S
N2519 H2524 0.984 . S
N2519 H2525 0.985 . S
C2520 C2514 1.379 . S
C2520 C2517 1.363 . S
C2520 N2518 1.356 . S
C2521 C2515 1.363 . S
C2521 C2516 1.379 . S
C2521 N2519 1.356 . S
N2522 C2514 1.356 . S
N2522 H2528 0.984 . S
N2522 H2529 0.984 . S
N2523 C2516 1.356 . S
N2523 H2526 0.984 . S
N2523 H2527 0.985 . S
H2524 N2519 0.984 . S
H2525 N2519 0.985 . S
H2526 N2523 0.984 . S
H2527 N2523 0.985 . S
H2528 N2522 0.984 . S
H2529 N2522 0.984 . S
H2530 N2518 0.984 . S
H2531 N2518 0.985 . S
C2532 C2533 1.363 . S
C2532 C2538 1.379 . S
C2532 N2540 1.356 . S
C2533 C2532 1.363 . S
C2533 C2539 1.363 . S
C2534 C2535 1.363 . S
C2534 C2539 1.379 . S
C2534 N2541 1.356 . S
C2535 C2534 1.363 . S
C2535 C2538 1.363 . S
N2536 C2538 1.356 . S
N2536 H2548 0.984 . S
N2536 H2549 0.985 . S
N2537 C2539 1.356 . S
N2537 H2542 0.984 . S
N2537 H2543 0.985 . S
C2538 C2532 1.379 . S
C2538 C2535 1.363 . S
C2538 N2536 1.356 . S
C2539 C2533 1.363 . S
C2539 C2534 1.379 . S
C2539 N2537 1.356 . S
N2540 C2532 1.356 . S
N2540 H2546 0.984 . S
N2540 H2547 0.984 . S
N2541 C2534 1.356 . S
N2541 H2544 0.984 . S
N2541 H2545 0.985 . S
H2542 N2537 0.984 . S
H2543 N2537 0.985 . S
H2544 N2541 0.984 . S
H2545 N2541 0.985 . S
H2546 N2540 0.984 . S
H2547 N2540 0.984 . S
H2548 N2536 0.984 . S
H2549 N2536 0.985 . S
C2550 C2551 1.363 . S
C2550 C2556 1.379 . S
C2550 N2558 1.356 . S
C2551 C2550 1.363 . S
C2551 C2557 1.363 . S
C2552 C2553 1.363 . S
C2552 C2557 1.379 . S
C2552 N2559 1.356 . S
C2553 C2552 1.363 . S
C2553 C2556 1.363 . S
N2554 C2556 1.356 . S
N2554 H2566 0.984 . S
N2554 H2567 0.985 . S
N2555 C2557 1.356 . S
N2555 H2560 0.984 . S
N2555 H2561 0.985 . S
C2556 C2550 1.379 . S
C2556 C2553 1.363 . S
C2556 N2554 1.356 . S
C2557 C2551 1.363 . S
C2557 C2552 1.379 . S
C2557 N2555 1.356 . S
N2558 C2550 1.356 . S
N2558 H2564 0.984 . S
N2558 H2565 0.984 . S
N2559 C2552 1.356 . S
N2559 H2562 0.984 . S
N2559 H2563 0.985 . S
H2560 N2555 0.984 . S
H2561 N2555 0.985 . S
H2562 N2559 0.984 . S
H2563 N2559 0.985 . S
H2564 N2558 0.984 . S
H2565 N2558 0.984 . S
H2566 N2554 0.984 . S
H2567 N2554 0.985 . S
C2568 C2569 1.363 . S
C2568 C2574 1.379 . S
C2568 N2576 1.356 . S
C2569 C2568 1.363 . S
C2569 C2575 1.363 . S
C2570 C2571 1.363 . S
C2570 C2575 1.379 . S
C2570 N2577 1.356 . S
C2571 C2570 1.363 . S
C2571 C2574 1.363 . S
N2572 C2574 1.356 . S
N2572 H2584 0.984 . S
N2572 H2585 0.985 . S
N2573 C2575 1.356 . S
N2573 H2578 0.984 . S
N2573 H2579 0.985 . S
C2574 C2568 1.379 . S
C2574 C2571 1.363 . S
C2574 N2572 1.356 . S
C2575 C2569 1.363 . S
C2575 C2570 1.379 . S
C2575 N2573 1.356 . S
N2576 C2568 1.356 . S
N2576 H2582 0.984 . S
N2576 H2583 0.984 . S
N2577 C2570 1.356 . S
N2577 H2580 0.984 . S
N2577 H2581 0.985 . S
H2578 N2573 0.984 . S
H2579 N2573 0.985 . S
H2580 N2577 0.984 . S
H2581 N2577 0.985 . S
H2582 N2576 0.984 . S
H2583 N2576 0.984 . S
H2584 N2572 0.984 . S
H2585 N2572 0.985 . S
C2586 C2587 1.363 . S
C2586 C2592 1.379 . S
C2586 N2594 1.356 . S
C2587 C2586 1.363 . S
C2587 C2593 1.363 . S
C2588 C2589 1.363 . S
C2588 C2593 1.379 . S
C2588 N2595 1.356 . S
C2589 C2588 1.363 . S
C2589 C2592 1.363 . S
N2590 C2592 1.356 . S
N2590 H2602 0.984 . S
N2590 H2603 0.985 . S
N2591 C2593 1.356 . S
N2591 H2596 0.984 . S
N2591 H2597 0.985 . S
C2592 C2586 1.379 . S
C2592 C2589 1.363 . S
C2592 N2590 1.356 . S
C2593 C2587 1.363 . S
C2593 C2588 1.379 . S
C2593 N2591 1.356 . S
N2594 C2586 1.356 . S
N2594 H2600 0.984 . S
N2594 H2601 0.984 . S
N2595 C2588 1.356 . S
N2595 H2598 0.984 . S
N2595 H2599 0.985 . S
H2596 N2591 0.984 . S
H2597 N2591 0.985 . S
H2598 N2595 0.984 . S
H2599 N2595 0.985 . S
H2600 N2594 0.984 . S
H2601 N2594 0.984 . S
H2602 N2590 0.984 . S
H2603 N2590 0.985 . S
C2604 C2605 1.363 . S
C2604 C2610 1.379 . S
C2604 N2612 1.356 . S
C2605 C2604 1.363 . S
C2605 C2611 1.363 . S
C2606 C2607 1.363 . S
C2606 C2611 1.379 . S
C2606 N2613 1.356 . S
C2607 C2606 1.363 . S
C2607 C2610 1.363 . S
N2608 C2610 1.356 . S
N2608 H2620 0.984 . S
N2608 H2621 0.985 . S
N2609 C2611 1.356 . S
N2609 H2614 0.984 . S
N2609 H2615 0.985 . S
C2610 C2604 1.379 . S
C2610 C2607 1.363 . S
C2610 N2608 1.356 . S
C2611 C2605 1.363 . S
C2611 C2606 1.379 . S
C2611 N2609 1.356 . S
N2612 C2604 1.356 . S
N2612 H2618 0.984 . S
N2612 H2619 0.984 . S
N2613 C2606 1.356 . S
N2613 H2616 0.984 . S
N2613 H2617 0.985 . S
H2614 N2609 0.984 . S
H2615 N2609 0.985 . S
H2616 N2613 0.984 . S
H2617 N2613 0.985 . S
H2618 N2612 0.984 . S
H2619 N2612 0.984 . S
H2620 N2608 0.984 . S
H2621 N2608 0.985 . S
C2622 C2623 1.363 . S
C2622 C2628 1.379 . S
C2622 N2630 1.356 . S
C2623 C2622 1.363 . S
C2623 C2629 1.363 . S
C2624 C2625 1.363 . S
C2624 C2629 1.379 . S
C2624 N2631 1.356 . S
C2625 C2624 1.363 . S
C2625 C2628 1.363 . S
N2626 C2628 1.356 . S
N2626 H2638 0.984 . S
N2626 H2639 0.985 . S
N2627 C2629 1.356 . S
N2627 H2632 0.984 . S
N2627 H2633 0.985 . S
C2628 C2622 1.379 . S
C2628 C2625 1.363 . S
C2628 N2626 1.356 . S
C2629 C2623 1.363 . S
C2629 C2624 1.379 . S
C2629 N2627 1.356 . S
N2630 C2622 1.356 . S
N2630 H2636 0.984 . S
N2630 H2637 0.984 . S
N2631 C2624 1.356 . S
N2631 H2634 0.984 . S
N2631 H2635 0.985 . S
H2632 N2627 0.984 . S
H2633 N2627 0.985 . S
H2634 N2631 0.984 . S
H2635 N2631 0.985 . S
H2636 N2630 0.984 . S
H2637 N2630 0.984 . S
H2638 N2626 0.984 . S
H2639 N2626 0.985 . S
C2640 C2641 1.363 . S
C2640 C2646 1.379 . S
C2640 N2648 1.356 . S
C2641 C2640 1.363 . S
C2641 C2647 1.363 . S
C2642 C2643 1.363 . S
C2642 C2647 1.379 . S
C2642 N2649 1.356 . S
C2643 C2642 1.363 . S
C2643 C2646 1.363 . S
N2644 C2646 1.356 . S
N2644 H2656 0.984 . S
N2644 H2657 0.985 . S
N2645 C2647 1.356 . S
N2645 H2650 0.984 . S
N2645 H2651 0.985 . S
C2646 C2640 1.379 . S
C2646 C2643 1.363 . S
C2646 N2644 1.356 . S
C2647 C2641 1.363 . S
C2647 C2642 1.379 . S
C2647 N2645 1.356 . S
N2648 C2640 1.356 . S
N2648 H2654 0.984 . S
N2648 H2655 0.984 . S
N2649 C2642 1.356 . S
N2649 H2652 0.984 . S
N2649 H2653 0.985 . S
H2650 N2645 0.984 . S
H2651 N2645 0.985 . S
H2652 N2649 0.984 . S
H2653 N2649 0.985 . S
H2654 N2648 0.984 . S
H2655 N2648 0.984 . S
H2656 N2644 0.984 . S
H2657 N2644 0.985 . S
C2658 C2659 1.363 . S
C2658 C2664 1.379 . S
C2658 N2666 1.356 . S
C2659 C2658 1.363 . S
C2659 C2665 1.363 . S
C2660 C2661 1.363 . S
C2660 C2665 1.379 . S
C2660 N2667 1.356 . S
C2661 C2660 1.363 . S
C2661 C2664 1.363 . S
N2662 C2664 1.356 . S
N2662 H2674 0.984 . S
N2662 H2675 0.985 . S
N2663 C2665 1.356 . S
N2663 H2668 0.984 . S
N2663 H2669 0.985 . S
C2664 C2658 1.379 . S
C2664 C2661 1.363 . S
C2664 N2662 1.356 . S
C2665 C2659 1.363 . S
C2665 C2660 1.379 . S
C2665 N2663 1.356 . S
N2666 C2658 1.356 . S
N2666 H2672 0.984 . S
N2666 H2673 0.984 . S
N2667 C2660 1.356 . S
N2667 H2670 0.984 . S
N2667 H2671 0.985 . S
H2668 N2663 0.984 . S
H2669 N2663 0.985 . S
H2670 N2667 0.984 . S
H2671 N2667 0.985 . S
H2672 N2666 0.984 . S
H2673 N2666 0.984 . S
H2674 N2662 0.984 . S
H2675 N2662 0.985 . S
C2676 C2677 1.363 . S
C2676 C2682 1.379 . S
C2676 N2684 1.356 . S
C2677 C2676 1.363 . S
C2677 C2683 1.363 . S
C2678 C2679 1.363 . S
C2678 C2683 1.379 . S
C2678 N2685 1.356 . S
C2679 C2678 1.363 . S
C2679 C2682 1.363 . S
N2680 C2682 1.356 . S
N2680 H2692 0.984 . S
N2680 H2693 0.985 . S
N2681 C2683 1.356 . S
N2681 H2686 0.984 . S
N2681 H2687 0.985 . S
C2682 C2676 1.379 . S
C2682 C2679 1.363 . S
C2682 N2680 1.356 . S
C2683 C2677 1.363 . S
C2683 C2678 1.379 . S
C2683 N2681 1.356 . S
N2684 C2676 1.356 . S
N2684 H2690 0.984 . S
N2684 H2691 0.984 . S
N2685 C2678 1.356 . S
N2685 H2688 0.984 . S
N2685 H2689 0.985 . S
H2686 N2681 0.984 . S
H2687 N2681 0.985 . S
H2688 N2685 0.984 . S
H2689 N2685 0.985 . S
H2690 N2684 0.984 . S
H2691 N2684 0.984 . S
H2692 N2680 0.984 . S
H2693 N2680 0.985 . S
C2694 C2695 1.363 . S
C2694 C2700 1.379 . S
C2694 N2702 1.356 . S
C2695 C2694 1.363 . S
C2695 C2701 1.363 . S
C2696 C2697 1.363 . S
C2696 C2701 1.379 . S
C2696 N2703 1.356 . S
C2697 C2696 1.363 . S
C2697 C2700 1.363 . S
N2698 C2700 1.356 . S
N2698 H2710 0.984 . S
N2698 H2711 0.985 . S
N2699 C2701 1.356 . S
N2699 H2704 0.984 . S
N2699 H2705 0.985 . S
C2700 C2694 1.379 . S
C2700 C2697 1.363 . S
C2700 N2698 1.356 . S
C2701 C2695 1.363 . S
C2701 C2696 1.379 . S
C2701 N2699 1.356 . S
N2702 C2694 1.356 . S
N2702 H2708 0.984 . S
N2702 H2709 0.984 . S
N2703 C2696 1.356 . S
N2703 H2706 0.984 . S
N2703 H2707 0.985 . S
H2704 N2699 0.984 . S
H2705 N2699 0.985 . S
H2706 N2703 0.984 . S
H2707 N2703 0.985 . S
H2708 N2702 0.984 . S
H2709 N2702 0.984 . S
H2710 N2698 0.984 . S
H2711 N2698 0.985 . S
C2712 C2713 1.363 . S
C2712 C2718 1.379 . S
C2712 N2720 1.356 . S
C2713 C2712 1.363 . S
C2713 C2719 1.363 . S
C2714 C2715 1.363 . S
C2714 C2719 1.379 . S
C2714 N2721 1.356 . S
C2715 C2714 1.363 . S
C2715 C2718 1.363 . S
N2716 C2718 1.356 . S
N2716 H2728 0.984 . S
N2716 H2729 0.985 . S
N2717 C2719 1.356 . S
N2717 H2722 0.984 . S
N2717 H2723 0.985 . S
C2718 C2712 1.379 . S
C2718 C2715 1.363 . S
C2718 N2716 1.356 . S
C2719 C2713 1.363 . S
C2719 C2714 1.379 . S
C2719 N2717 1.356 . S
N2720 C2712 1.356 . S
N2720 H2726 0.984 . S
N2720 H2727 0.984 . S
N2721 C2714 1.356 . S
N2721 H2724 0.984 . S
N2721 H2725 0.985 . S
H2722 N2717 0.984 . S
H2723 N2717 0.985 . S
H2724 N2721 0.984 . S
H2725 N2721 0.985 . S
H2726 N2720 0.984 . S
H2727 N2720 0.984 . S
H2728 N2716 0.984 . S
H2729 N2716 0.985 . S
C2730 C2731 1.363 . S
C2730 C2736 1.379 . S
C2730 N2738 1.356 . S
C2731 C2730 1.363 . S
C2731 C2737 1.363 . S
C2732 C2733 1.363 . S
C2732 C2737 1.379 . S
C2732 N2739 1.356 . S
C2733 C2732 1.363 . S
C2733 C2736 1.363 . S
N2734 C2736 1.356 . S
N2734 H2746 0.984 . S
N2734 H2747 0.985 . S
N2735 C2737 1.356 . S
N2735 H2740 0.984 . S
N2735 H2741 0.985 . S
C2736 C2730 1.379 . S
C2736 C2733 1.363 . S
C2736 N2734 1.356 . S
C2737 C2731 1.363 . S
C2737 C2732 1.379 . S
C2737 N2735 1.356 . S
N2738 C2730 1.356 . S
N2738 H2744 0.984 . S
N2738 H2745 0.984 . S
N2739 C2732 1.356 . S
N2739 H2742 0.984 . S
N2739 H2743 0.985 . S
H2740 N2735 0.984 . S
H2741 N2735 0.985 . S
H2742 N2739 0.984 . S
H2743 N2739 0.985 . S
H2744 N2738 0.984 . S
H2745 N2738 0.984 . S
H2746 N2734 0.984 . S
H2747 N2734 0.985 . S
C2748 C2749 1.363 . S
C2748 C2754 1.379 . S
C2748 N2756 1.356 . S
C2749 C2748 1.363 . S
C2749 C2755 1.363 . S
C2750 C2751 1.363 . S
C2750 C2755 1.379 . S
C2750 N2757 1.356 . S
C2751 C2750 1.363 . S
C2751 C2754 1.363 . S
N2752 C2754 1.356 . S
N2752 H2764 0.984 . S
N2752 H2765 0.985 . S
N2753 C2755 1.356 . S
N2753 H2758 0.984 . S
N2753 H2759 0.985 . S
C2754 C2748 1.379 . S
C2754 C2751 1.363 . S
C2754 N2752 1.356 . S
C2755 C2749 1.363 . S
C2755 C2750 1.379 . S
C2755 N2753 1.356 . S
N2756 C2748 1.356 . S
N2756 H2762 0.984 . S
N2756 H2763 0.984 . S
N2757 C2750 1.356 . S
N2757 H2760 0.984 . S
N2757 H2761 0.985 . S
H2758 N2753 0.984 . S
H2759 N2753 0.985 . S
H2760 N2757 0.984 . S
H2761 N2757 0.985 . S
H2762 N2756 0.984 . S
H2763 N2756 0.984 . S
H2764 N2752 0.984 . S
H2765 N2752 0.985 . S
C2766 C2767 1.363 . S
C2766 C2772 1.379 . S
C2766 N2774 1.356 . S
C2767 C2766 1.363 . S
C2767 C2773 1.363 . S
C2768 C2769 1.363 . S
C2768 C2773 1.379 . S
C2768 N2775 1.356 . S
C2769 C2768 1.363 . S
C2769 C2772 1.363 . S
N2770 C2772 1.356 . S
N2770 H2782 0.984 . S
N2770 H2783 0.985 . S
N2771 C2773 1.356 . S
N2771 H2776 0.984 . S
N2771 H2777 0.985 . S
C2772 C2766 1.379 . S
C2772 C2769 1.363 . S
C2772 N2770 1.356 . S
C2773 C2767 1.363 . S
C2773 C2768 1.379 . S
C2773 N2771 1.356 . S
N2774 C2766 1.356 . S
N2774 H2780 0.984 . S
N2774 H2781 0.984 . S
N2775 C2768 1.356 . S
N2775 H2778 0.984 . S
N2775 H2779 0.985 . S
H2776 N2771 0.984 . S
H2777 N2771 0.985 . S
H2778 N2775 0.984 . S
H2779 N2775 0.985 . S
H2780 N2774 0.984 . S
H2781 N2774 0.984 . S
H2782 N2770 0.984 . S
H2783 N2770 0.985 . S
C2784 C2785 1.363 . S
C2784 C2790 1.379 . S
C2784 N2792 1.356 . S
C2785 C2784 1.363 . S
C2785 C2791 1.363 . S
C2786 C2787 1.363 . S
C2786 C2791 1.379 . S
C2786 N2793 1.356 . S
C2787 C2786 1.363 . S
C2787 C2790 1.363 . S
N2788 C2790 1.356 . S
N2788 H2800 0.984 . S
N2788 H2801 0.985 . S
N2789 C2791 1.356 . S
N2789 H2794 0.984 . S
N2789 H2795 0.985 . S
C2790 C2784 1.379 . S
C2790 C2787 1.363 . S
C2790 N2788 1.356 . S
C2791 C2785 1.363 . S
C2791 C2786 1.379 . S
C2791 N2789 1.356 . S
N2792 C2784 1.356 . S
N2792 H2798 0.984 . S
N2792 H2799 0.984 . S
N2793 C2786 1.356 . S
N2793 H2796 0.984 . S
N2793 H2797 0.985 . S
H2794 N2789 0.984 . S
H2795 N2789 0.985 . S
H2796 N2793 0.984 . S
H2797 N2793 0.985 . S
H2798 N2792 0.984 . S
H2799 N2792 0.984 . S
H2800 N2788 0.984 . S
H2801 N2788 0.985 . S
C2802 C2803 1.363 . S
C2802 C2808 1.379 . S
C2802 N2810 1.356 . S
C2803 C2802 1.363 . S
C2803 C2809 1.363 . S
C2804 C2805 1.363 . S
C2804 C2809 1.379 . S
C2804 N2811 1.356 . S
C2805 C2804 1.363 . S
C2805 C2808 1.363 . S
N2806 C2808 1.356 . S
N2806 H2818 0.984 . S
N2806 H2819 0.985 . S
N2807 C2809 1.356 . S
N2807 H2812 0.984 . S
N2807 H2813 0.985 . S
C2808 C2802 1.379 . S
C2808 C2805 1.363 . S
C2808 N2806 1.356 . S
C2809 C2803 1.363 . S
C2809 C2804 1.379 . S
C2809 N2807 1.356 . S
N2810 C2802 1.356 . S
N2810 H2816 0.984 . S
N2810 H2817 0.984 . S
N2811 C2804 1.356 . S
N2811 H2814 0.984 . S
N2811 H2815 0.985 . S
H2812 N2807 0.984 . S
H2813 N2807 0.985 . S
H2814 N2811 0.984 . S
H2815 N2811 0.985 . S
H2816 N2810 0.984 . S
H2817 N2810 0.984 . S
H2818 N2806 0.984 . S
H2819 N2806 0.985 . S
C2820 C2821 1.363 . S
C2820 C2826 1.379 . S
C2820 N2828 1.356 . S
C2821 C2820 1.363 . S
C2821 C2827 1.363 . S
C2822 C2823 1.363 . S
C2822 C2827 1.379 . S
C2822 N2829 1.356 . S
C2823 C2822 1.363 . S
C2823 C2826 1.363 . S
N2824 C2826 1.356 . S
N2824 H2836 0.984 . S
N2824 H2837 0.985 . S
N2825 C2827 1.356 . S
N2825 H2830 0.984 . S
N2825 H2831 0.985 . S
C2826 C2820 1.379 . S
C2826 C2823 1.363 . S
C2826 N2824 1.356 . S
C2827 C2821 1.363 . S
C2827 C2822 1.379 . S
C2827 N2825 1.356 . S
N2828 C2820 1.356 . S
N2828 H2834 0.984 . S
N2828 H2835 0.984 . S
N2829 C2822 1.356 . S
N2829 H2832 0.984 . S
N2829 H2833 0.985 . S
H2830 N2825 0.984 . S
H2831 N2825 0.985 . S
H2832 N2829 0.984 . S
H2833 N2829 0.985 . S
H2834 N2828 0.984 . S
H2835 N2828 0.984 . S
H2836 N2824 0.984 . S
H2837 N2824 0.985 . S
C2838 C2839 1.363 . S
C2838 C2844 1.379 . S
C2838 N2846 1.356 . S
C2839 C2838 1.363 . S
C2839 C2845 1.363 . S
C2840 C2841 1.363 . S
C2840 C2845 1.379 . S
C2840 N2847 1.356 . S
C2841 C2840 1.363 . S
C2841 C2844 1.363 . S
N2842 C2844 1.356 . S
N2842 H2854 0.984 . S
N2842 H2855 0.985 . S
N2843 C2845 1.356 . S
N2843 H2848 0.984 . S
N2843 H2849 0.985 . S
C2844 C2838 1.379 . S
C2844 C2841 1.363 . S
C2844 N2842 1.356 . S
C2845 C2839 1.363 . S
C2845 C2840 1.379 . S
C2845 N2843 1.356 . S
N2846 C2838 1.356 . S
N2846 H2852 0.984 . S
N2846 H2853 0.984 . S
N2847 C2840 1.356 . S
N2847 H2850 0.984 . S
N2847 H2851 0.985 . S
H2848 N2843 0.984 . S
H2849 N2843 0.985 . S
H2850 N2847 0.984 . S
H2851 N2847 0.985 . S
H2852 N2846 0.984 . S
H2853 N2846 0.984 . S
H2854 N2842 0.984 . S
H2855 N2842 0.985 . S
C2856 C2857 1.363 . S
C2856 C2862 1.379 . S
C2856 N2864 1.356 . S
C2857 C2856 1.363 . S
C2857 C2863 1.363 . S
C2858 C2859 1.363 . S
C2858 C2863 1.379 . S
C2858 N2865 1.356 . S
C2859 C2858 1.363 . S
C2859 C2862 1.363 . S
N2860 C2862 1.356 . S
N2860 H2872 0.984 . S
N2860 H2873 0.985 . S
N2861 C2863 1.356 . S
N2861 H2866 0.984 . S
N2861 H2867 0.985 . S
C2862 C2856 1.379 . S
C2862 C2859 1.363 . S
C2862 N2860 1.356 . S
C2863 C2857 1.363 . S
C2863 C2858 1.379 . S
C2863 N2861 1.356 . S
N2864 C2856 1.356 . S
N2864 H2870 0.984 . S
N2864 H2871 0.984 . S
N2865 C2858 1.356 . S
N2865 H2868 0.984 . S
N2865 H2869 0.985 . S
H2866 N2861 0.984 . S
H2867 N2861 0.985 . S
H2868 N2865 0.984 . S
H2869 N2865 0.985 . S
H2870 N2864 0.984 . S
H2871 N2864 0.984 . S
H2872 N2860 0.984 . S
H2873 N2860 0.985 . S
C2874 C2875 1.363 . S
C2874 C2880 1.379 . S
C2874 N2882 1.356 . S
C2875 C2874 1.363 . S
C2875 C2881 1.363 . S
C2876 C2877 1.363 . S
C2876 C2881 1.379 . S
C2876 N2883 1.356 . S
C2877 C2876 1.363 . S
C2877 C2880 1.363 . S
N2878 C2880 1.356 . S
N2878 H2890 0.984 . S
N2878 H2891 0.985 . S
N2879 C2881 1.356 . S
N2879 H2884 0.984 . S
N2879 H2885 0.985 . S
C2880 C2874 1.379 . S
C2880 C2877 1.363 . S
C2880 N2878 1.356 . S
C2881 C2875 1.363 . S
C2881 C2876 1.379 . S
C2881 N2879 1.356 . S
N2882 C2874 1.356 . S
N2882 H2888 0.984 . S
N2882 H2889 0.984 . S
N2883 C2876 1.356 . S
N2883 H2886 0.984 . S
N2883 H2887 0.985 . S
H2884 N2879 0.984 . S
H2885 N2879 0.985 . S
H2886 N2883 0.984 . S
H2887 N2883 0.985 . S
H2888 N2882 0.984 . S
H2889 N2882 0.984 . S
H2890 N2878 0.984 . S
H2891 N2878 0.985 . S
C2892 C2893 1.363 . S
C2892 C2898 1.379 . S
C2892 N2900 1.356 . S
C2893 C2892 1.363 . S
C2893 C2899 1.363 . S
C2894 C2895 1.363 . S
C2894 C2899 1.379 . S
C2894 N2901 1.356 . S
C2895 C2894 1.363 . S
C2895 C2898 1.363 . S
N2896 C2898 1.356 . S
N2896 H2908 0.984 . S
N2896 H2909 0.985 . S
N2897 C2899 1.356 . S
N2897 H2902 0.984 . S
N2897 H2903 0.985 . S
C2898 C2892 1.379 . S
C2898 C2895 1.363 . S
C2898 N2896 1.356 . S
C2899 C2893 1.363 . S
C2899 C2894 1.379 . S
C2899 N2897 1.356 . S
N2900 C2892 1.356 . S
N2900 H2906 0.984 . S
N2900 H2907 0.984 . S
N2901 C2894 1.356 . S
N2901 H2904 0.984 . S
N2901 H2905 0.985 . S
H2902 N2897 0.984 . S
H2903 N2897 0.985 . S
H2904 N2901 0.984 . S
H2905 N2901 0.985 . S
H2906 N2900 0.984 . S
H2907 N2900 0.984 . S
H2908 N2896 0.984 . S
H2909 N2896 0.985 . S
C2910 C2911 1.363 . S
C2910 C2916 1.379 . S
C2910 N2918 1.356 . S
C2911 C2910 1.363 . S
C2911 C2917 1.363 . S
C2912 C2913 1.363 . S
C2912 C2917 1.379 . S
C2912 N2919 1.356 . S
C2913 C2912 1.363 . S
C2913 C2916 1.363 . S
N2914 C2916 1.356 . S
N2914 H2926 0.984 . S
N2914 H2927 0.985 . S
N2915 C2917 1.356 . S
N2915 H2920 0.984 . S
N2915 H2921 0.985 . S
C2916 C2910 1.379 . S
C2916 C2913 1.363 . S
C2916 N2914 1.356 . S
C2917 C2911 1.363 . S
C2917 C2912 1.379 . S
C2917 N2915 1.356 . S
N2918 C2910 1.356 . S
N2918 H2924 0.984 . S
N2918 H2925 0.984 . S
N2919 C2912 1.356 . S
N2919 H2922 0.984 . S
N2919 H2923 0.985 . S
H2920 N2915 0.984 . S
H2921 N2915 0.985 . S
H2922 N2919 0.984 . S
H2923 N2919 0.985 . S
H2924 N2918 0.984 . S
H2925 N2918 0.984 . S
H2926 N2914 0.984 . S
H2927 N2914 0.985 . S
C2928 C2929 1.363 . S
C2928 C2934 1.379 . S
C2928 N2936 1.356 . S
C2929 C2928 1.363 . S
C2929 C2935 1.363 . S
C2930 C2931 1.363 . S
C2930 C2935 1.379 . S
C2930 N2937 1.356 . S
C2931 C2930 1.363 . S
C2931 C2934 1.363 . S
N2932 C2934 1.356 . S
N2932 H2944 0.984 . S
N2932 H2945 0.985 . S
N2933 C2935 1.356 . S
N2933 H2938 0.984 . S
N2933 H2939 0.985 . S
C2934 C2928 1.379 . S
C2934 C2931 1.363 . S
C2934 N2932 1.356 . S
C2935 C2929 1.363 . S
C2935 C2930 1.379 . S
C2935 N2933 1.356 . S
N2936 C2928 1.356 . S
N2936 H2942 0.984 . S
N2936 H2943 0.984 . S
N2937 C2930 1.356 . S
N2937 H2940 0.984 . S
N2937 H2941 0.985 . S
H2938 N2933 0.984 . S
H2939 N2933 0.985 . S
H2940 N2937 0.984 . S
H2941 N2937 0.985 . S
H2942 N2936 0.984 . S
H2943 N2936 0.984 . S
H2944 N2932 0.984 . S
H2945 N2932 0.985 . S
C2946 C2947 1.363 . S
C2946 C2952 1.379 . S
C2946 N2954 1.356 . S
C2947 C2946 1.363 . S
C2947 C2953 1.363 . S
C2948 C2949 1.363 . S
C2948 C2953 1.379 . S
C2948 N2955 1.356 . S
C2949 C2948 1.363 . S
C2949 C2952 1.363 . S
N2950 C2952 1.356 . S
N2950 H2962 0.984 . S
N2950 H2963 0.985 . S
N2951 C2953 1.356 . S
N2951 H2956 0.984 . S
N2951 H2957 0.985 . S
C2952 C2946 1.379 . S
C2952 C2949 1.363 . S
C2952 N2950 1.356 . S
C2953 C2947 1.363 . S
C2953 C2948 1.379 . S
C2953 N2951 1.356 . S
N2954 C2946 1.356 . S
N2954 H2960 0.984 . S
N2954 H2961 0.984 . S
N2955 C2948 1.356 . S
N2955 H2958 0.984 . S
N2955 H2959 0.985 . S
H2956 N2951 0.984 . S
H2957 N2951 0.985 . S
H2958 N2955 0.984 . S
H2959 N2955 0.985 . S
H2960 N2954 0.984 . S
H2961 N2954 0.984 . S
H2962 N2950 0.984 . S
H2963 N2950 0.985 . S
C2964 C2965 1.363 . S
C2964 C2970 1.379 . S
C2964 N2972 1.356 . S
C2965 C2964 1.363 . S
C2965 C2971 1.363 . S
C2966 C2967 1.363 . S
C2966 C2971 1.379 . S
C2966 N2973 1.356 . S
C2967 C2966 1.363 . S
C2967 C2970 1.363 . S
N2968 C2970 1.356 . S
N2968 H2980 0.984 . S
N2968 H2981 0.985 . S
N2969 C2971 1.356 . S
N2969 H2974 0.984 . S
N2969 H2975 0.985 . S
C2970 C2964 1.379 . S
C2970 C2967 1.363 . S
C2970 N2968 1.356 . S
C2971 C2965 1.363 . S
C2971 C2966 1.379 . S
C2971 N2969 1.356 . S
N2972 C2964 1.356 . S
N2972 H2978 0.984 . S
N2972 H2979 0.984 . S
N2973 C2966 1.356 . S
N2973 H2976 0.984 . S
N2973 H2977 0.985 . S
H2974 N2969 0.984 . S
H2975 N2969 0.985 . S
H2976 N2973 0.984 . S
H2977 N2973 0.985 . S
H2978 N2972 0.984 . S
H2979 N2972 0.984 . S
H2980 N2968 0.984 . S
H2981 N2968 0.985 . S
C2982 C2983 1.363 . S
C2982 C2988 1.379 . S
C2982 N2990 1.356 . S
C2983 C2982 1.363 . S
C2983 C2989 1.363 . S
C2984 C2985 1.363 . S
C2984 C2989 1.379 . S
C2984 N2991 1.356 . S
C2985 C2984 1.363 . S
C2985 C2988 1.363 . S
N2986 C2988 1.356 . S
N2986 H2998 0.984 . S
N2986 H2999 0.985 . S
N2987 C2989 1.356 . S
N2987 H2992 0.984 . S
N2987 H2993 0.985 . S
C2988 C2982 1.379 . S
C2988 C2985 1.363 . S
C2988 N2986 1.356 . S
C2989 C2983 1.363 . S
C2989 C2984 1.379 . S
C2989 N2987 1.356 . S
N2990 C2982 1.356 . S
N2990 H2996 0.984 . S
N2990 H2997 0.984 . S
N2991 C2984 1.356 . S
N2991 H2994 0.984 . S
N2991 H2995 0.985 . S
H2992 N2987 0.984 . S
H2993 N2987 0.985 . S
H2994 N2991 0.984 . S
H2995 N2991 0.985 . S
H2996 N2990 0.984 . S
H2997 N2990 0.984 . S
H2998 N2986 0.984 . S
H2999 N2986 0.985 . S
C3000 C3001 1.363 . S
C3000 C3006 1.379 . S
C3000 N3008 1.356 . S
C3001 C3000 1.363 . S
C3001 C3007 1.363 . S
C3002 C3003 1.363 . S
C3002 C3007 1.379 . S
C3002 N3009 1.356 . S
C3003 C3002 1.363 . S
C3003 C3006 1.363 . S
N3004 C3006 1.356 . S
N3004 H3016 0.984 . S
N3004 H3017 0.985 . S
N3005 C3007 1.356 . S
N3005 H3010 0.984 . S
N3005 H3011 0.985 . S
C3006 C3000 1.379 . S
C3006 C3003 1.363 . S
C3006 N3004 1.356 . S
C3007 C3001 1.363 . S
C3007 C3002 1.379 . S
C3007 N3005 1.356 . S
N3008 C3000 1.356 . S
N3008 H3014 0.984 . S
N3008 H3015 0.984 . S
N3009 C3002 1.356 . S
N3009 H3012 0.984 . S
N3009 H3013 0.985 . S
H3010 N3005 0.984 . S
H3011 N3005 0.985 . S
H3012 N3009 0.984 . S
H3013 N3009 0.985 . S
H3014 N3008 0.984 . S
H3015 N3008 0.984 . S
H3016 N3004 0.984 . S
H3017 N3004 0.985 . S
C3018 C3019 1.363 . S
C3018 C3024 1.379 . S
C3018 N3026 1.356 . S
C3019 C3018 1.363 . S
C3019 C3025 1.363 . S
C3020 C3021 1.363 . S
C3020 C3025 1.379 . S
C3020 N3027 1.356 . S
C3021 C3020 1.363 . S
C3021 C3024 1.363 . S
N3022 C3024 1.356 . S
N3022 H3034 0.984 . S
N3022 H3035 0.985 . S
N3023 C3025 1.356 . S
N3023 H3028 0.984 . S
N3023 H3029 0.985 . S
C3024 C3018 1.379 . S
C3024 C3021 1.363 . S
C3024 N3022 1.356 . S
C3025 C3019 1.363 . S
C3025 C3020 1.379 . S
C3025 N3023 1.356 . S
N3026 C3018 1.356 . S
N3026 H3032 0.984 . S
N3026 H3033 0.984 . S
N3027 C3020 1.356 . S
N3027 H3030 0.984 . S
N3027 H3031 0.985 . S
H3028 N3023 0.984 . S
H3029 N3023 0.985 . S
H3030 N3027 0.984 . S
H3031 N3027 0.985 . S
H3032 N3026 0.984 . S
H3033 N3026 0.984 . S
H3034 N3022 0.984 . S
H3035 N3022 0.985 . S
C3036 C3037 1.363 . S
C3036 C3042 1.379 . S
C3036 N3044 1.356 . S
C3037 C3036 1.363 . S
C3037 C3043 1.363 . S
C3038 C3039 1.363 . S
C3038 C3043 1.379 . S
C3038 N3045 1.356 . S
C3039 C3038 1.363 . S
C3039 C3042 1.363 . S
N3040 C3042 1.356 . S
N3040 H3052 0.984 . S
N3040 H3053 0.985 . S
N3041 C3043 1.356 . S
N3041 H3046 0.984 . S
N3041 H3047 0.985 . S
C3042 C3036 1.379 . S
C3042 C3039 1.363 . S
C3042 N3040 1.356 . S
C3043 C3037 1.363 . S
C3043 C3038 1.379 . S
C3043 N3041 1.356 . S
N3044 C3036 1.356 . S
N3044 H3050 0.984 . S
N3044 H3051 0.984 . S
N3045 C3038 1.356 . S
N3045 H3048 0.984 . S
N3045 H3049 0.985 . S
H3046 N3041 0.984 . S
H3047 N3041 0.985 . S
H3048 N3045 0.984 . S
H3049 N3045 0.985 . S
H3050 N3044 0.984 . S
H3051 N3044 0.984 . S
H3052 N3040 0.984 . S
H3053 N3040 0.985 . S
C3054 C3055 1.363 . S
C3054 C3060 1.379 . S
C3054 N3062 1.356 . S
C3055 C3054 1.363 . S
C3055 C3061 1.363 . S
C3056 C3057 1.363 . S
C3056 C3061 1.379 . S
C3056 N3063 1.356 . S
C3057 C3056 1.363 . S
C3057 C3060 1.363 . S
N3058 C3060 1.356 . S
N3058 H3070 0.984 . S
N3058 H3071 0.985 . S
N3059 C3061 1.356 . S
N3059 H3064 0.984 . S
N3059 H3065 0.985 . S
C3060 C3054 1.379 . S
C3060 C3057 1.363 . S
C3060 N3058 1.356 . S
C3061 C3055 1.363 . S
C3061 C3056 1.379 . S
C3061 N3059 1.356 . S
N3062 C3054 1.356 . S
N3062 H3068 0.984 . S
N3062 H3069 0.984 . S
N3063 C3056 1.356 . S
N3063 H3066 0.984 . S
N3063 H3067 0.985 . S
H3064 N3059 0.984 . S
H3065 N3059 0.985 . S
H3066 N3063 0.984 . S
H3067 N3063 0.985 . S
H3068 N3062 0.984 . S
H3069 N3062 0.984 . S
H3070 N3058 0.984 . S
H3071 N3058 0.985 . S
C3072 C3073 1.363 . S
C3072 C3078 1.379 . S
C3072 N3080 1.356 . S
C3073 C3072 1.363 . S
C3073 C3079 1.363 . S
C3074 C3075 1.363 . S
C3074 C3079 1.379 . S
C3074 N3081 1.356 . S
C3075 C3074 1.363 . S
C3075 C3078 1.363 . S
N3076 C3078 1.356 . S
N3076 H3088 0.984 . S
N3076 H3089 0.985 . S
N3077 C3079 1.356 . S
N3077 H3082 0.984 . S
N3077 H3083 0.985 . S
C3078 C3072 1.379 . S
C3078 C3075 1.363 . S
C3078 N3076 1.356 . S
C3079 C3073 1.363 . S
C3079 C3074 1.379 . S
C3079 N3077 1.356 . S
N3080 C3072 1.356 . S
N3080 H3086 0.984 . S
N3080 H3087 0.984 . S
N3081 C3074 1.356 . S
N3081 H3084 0.984 . S
N3081 H3085 0.985 . S
H3082 N3077 0.984 . S
H3083 N3077 0.985 . S
H3084 N3081 0.984 . S
H3085 N3081 0.985 . S
H3086 N3080 0.984 . S
H3087 N3080 0.984 . S
H3088 N3076 0.984 . S
H3089 N3076 0.985 . S
C3090 C3091 1.363 . S
C3090 C3096 1.379 . S
C3090 N3098 1.356 . S
C3091 C3090 1.363 . S
C3091 C3097 1.363 . S
C3092 C3093 1.363 . S
C3092 C3097 1.379 . S
C3092 N3099 1.356 . S
C3093 C3092 1.363 . S
C3093 C3096 1.363 . S
N3094 C3096 1.356 . S
N3094 H3106 0.984 . S
N3094 H3107 0.985 . S
N3095 C3097 1.356 . S
N3095 H3100 0.984 . S
N3095 H3101 0.985 . S
C3096 C3090 1.379 . S
C3096 C3093 1.363 . S
C3096 N3094 1.356 . S
C3097 C3091 1.363 . S
C3097 C3092 1.379 . S
C3097 N3095 1.356 . S
N3098 C3090 1.356 . S
N3098 H3104 0.984 . S
N3098 H3105 0.984 . S
N3099 C3092 1.356 . S
N3099 H3102 0.984 . S
N3099 H3103 0.985 . S
H3100 N3095 0.984 . S
H3101 N3095 0.985 . S
H3102 N3099 0.984 . S
H3103 N3099 0.985 . S
H3104 N3098 0.984 . S
H3105 N3098 0.984 . S
H3106 N3094 0.984 . S
H3107 N3094 0.985 . S
C3108 C3109 1.363 . S
C3108 C3114 1.379 . S
C3108 N3116 1.356 . S
C3109 C3108 1.363 . S
C3109 C3115 1.363 . S
C3110 C3111 1.363 . S
C3110 C3115 1.379 . S
C3110 N3117 1.356 . S
C3111 C3110 1.363 . S
C3111 C3114 1.363 . S
N3112 C3114 1.356 . S
N3112 H3124 0.984 . S
N3112 H3125 0.985 . S
N3113 C3115 1.356 . S
N3113 H3118 0.984 . S
N3113 H3119 0.985 . S
C3114 C3108 1.379 . S
C3114 C3111 1.363 . S
C3114 N3112 1.356 . S
C3115 C3109 1.363 . S
C3115 C3110 1.379 . S
C3115 N3113 1.356 . S
N3116 C3108 1.356 . S
N3116 H3122 0.984 . S
N3116 H3123 0.984 . S
N3117 C3110 1.356 . S
N3117 H3120 0.984 . S
N3117 H3121 0.985 . S
H3118 N3113 0.984 . S
H3119 N3113 0.985 . S
H3120 N3117 0.984 . S
H3121 N3117 0.985 . S
H3122 N3116 0.984 . S
H3123 N3116 0.984 . S
H3124 N3112 0.984 . S
H3125 N3112 0.985 . S
C3126 C3127 1.363 . S
C3126 C3132 1.379 . S
C3126 N3134 1.356 . S
C3127 C3126 1.363 . S
C3127 C3133 1.363 . S
C3128 C3129 1.363 . S
C3128 C3133 1.379 . S
C3128 N3135 1.356 . S
C3129 C3128 1.363 . S
C3129 C3132 1.363 . S
N3130 C3132 1.356 . S
N3130 H3142 0.984 . S
N3130 H3143 0.985 . S
N3131 C3133 1.356 . S
N3131 H3136 0.984 . S
N3131 H3137 0.985 . S
C3132 C3126 1.379 . S
C3132 C3129 1.363 . S
C3132 N3130 1.356 . S
C3133 C3127 1.363 . S
C3133 C3128 1.379 . S
C3133 N3131 1.356 . S
N3134 C3126 1.356 . S
N3134 H3140 0.984 . S
N3134 H3141 0.984 . S
N3135 C3128 1.356 . S
N3135 H3138 0.984 . S
N3135 H3139 0.985 . S
H3136 N3131 0.984 . S
H3137 N3131 0.985 . S
H3138 N3135 0.984 . S
H3139 N3135 0.985 . S
H3140 N3134 0.984 . S
H3141 N3134 0.984 . S
H3142 N3130 0.984 . S
H3143 N3130 0.985 . S
C3144 C3145 1.363 . S
C3144 C3150 1.379 . S
C3144 N3152 1.356 . S
C3145 C3144 1.363 . S
C3145 C3151 1.363 . S
C3146 C3147 1.363 . S
C3146 C3151 1.379 . S
C3146 N3153 1.356 . S
C3147 C3146 1.363 . S
C3147 C3150 1.363 . S
N3148 C3150 1.356 . S
N3148 H3160 0.984 . S
N3148 H3161 0.985 . S
N3149 C3151 1.356 . S
N3149 H3154 0.984 . S
N3149 H3155 0.985 . S
C3150 C3144 1.379 . S
C3150 C3147 1.363 . S
C3150 N3148 1.356 . S
C3151 C3145 1.363 . S
C3151 C3146 1.379 . S
C3151 N3149 1.356 . S
N3152 C3144 1.356 . S
N3152 H3158 0.984 . S
N3152 H3159 0.984 . S
N3153 C3146 1.356 . S
N3153 H3156 0.984 . S
N3153 H3157 0.985 . S
H3154 N3149 0.984 . S
H3155 N3149 0.985 . S
H3156 N3153 0.984 . S
H3157 N3153 0.985 . S
H3158 N3152 0.984 . S
H3159 N3152 0.984 . S
H3160 N3148 0.984 . S
H3161 N3148 0.985 . S
C3162 C3163 1.363 . S
C3162 C3168 1.379 . S
C3162 N3170 1.356 . S
C3163 C3162 1.363 . S
C3163 C3169 1.363 . S
C3164 C3165 1.363 . S
C3164 C3169 1.379 . S
C3164 N3171 1.356 . S
C3165 C3164 1.363 . S
C3165 C3168 1.363 . S
N3166 C3168 1.356 . S
N3166 H3178 0.984 . S
N3166 H3179 0.985 . S
N3167 C3169 1.356 . S
N3167 H3172 0.984 . S
N3167 H3173 0.985 . S
C3168 C3162 1.379 . S
C3168 C3165 1.363 . S
C3168 N3166 1.356 . S
C3169 C3163 1.363 . S
C3169 C3164 1.379 . S
C3169 N3167 1.356 . S
N3170 C3162 1.356 . S
N3170 H3176 0.984 . S
N3170 H3177 0.984 . S
N3171 C3164 1.356 . S
N3171 H3174 0.984 . S
N3171 H3175 0.985 . S
H3172 N3167 0.984 . S
H3173 N3167 0.985 . S
H3174 N3171 0.984 . S
H3175 N3171 0.985 . S
H3176 N3170 0.984 . S
H3177 N3170 0.984 . S
H3178 N3166 0.984 . S
H3179 N3166 0.985 . S
C3180 C3181 1.363 . S
C3180 C3186 1.379 . S
C3180 N3188 1.356 . S
C3181 C3180 1.363 . S
C3181 C3187 1.363 . S
C3182 C3183 1.363 . S
C3182 C3187 1.379 . S
C3182 N3189 1.356 . S
C3183 C3182 1.363 . S
C3183 C3186 1.363 . S
N3184 C3186 1.356 . S
N3184 H3196 0.984 . S
N3184 H3197 0.985 . S
N3185 C3187 1.356 . S
N3185 H3190 0.984 . S
N3185 H3191 0.985 . S
C3186 C3180 1.379 . S
C3186 C3183 1.363 . S
C3186 N3184 1.356 . S
C3187 C3181 1.363 . S
C3187 C3182 1.379 . S
C3187 N3185 1.356 . S
N3188 C3180 1.356 . S
N3188 H3194 0.984 . S
N3188 H3195 0.984 . S
N3189 C3182 1.356 . S
N3189 H3192 0.984 . S
N3189 H3193 0.985 . S
H3190 N3185 0.984 . S
H3191 N3185 0.985 . S
H3192 N3189 0.984 . S
H3193 N3189 0.985 . S
H3194 N3188 0.984 . S
H3195 N3188 0.984 . S
H3196 N3184 0.984 . S
H3197 N3184 0.985 . S
C3198 C3199 1.363 . S
C3198 C3204 1.379 . S
C3198 N3206 1.356 . S
C3199 C3198 1.363 . S
C3199 C3205 1.363 . S
C3200 C3201 1.363 . S
C3200 C3205 1.379 . S
C3200 N3207 1.356 . S
C3201 C3200 1.363 . S
C3201 C3204 1.363 . S
N3202 C3204 1.356 . S
N3202 H3214 0.984 . S
N3202 H3215 0.985 . S
N3203 C3205 1.356 . S
N3203 H3208 0.984 . S
N3203 H3209 0.985 . S
C3204 C3198 1.379 . S
C3204 C3201 1.363 . S
C3204 N3202 1.356 . S
C3205 C3199 1.363 . S
C3205 C3200 1.379 . S
C3205 N3203 1.356 . S
N3206 C3198 1.356 . S
N3206 H3212 0.984 . S
N3206 H3213 0.984 . S
N3207 C3200 1.356 . S
N3207 H3210 0.984 . S
N3207 H3211 0.985 . S
H3208 N3203 0.984 . S
H3209 N3203 0.985 . S
H3210 N3207 0.984 . S
H3211 N3207 0.985 . S
H3212 N3206 0.984 . S
H3213 N3206 0.984 . S
H3214 N3202 0.984 . S
H3215 N3202 0.985 . S
C3216 C3217 1.363 . S
C3216 C3222 1.379 . S
C3216 N3224 1.356 . S
C3217 C3216 1.363 . S
C3217 C3223 1.363 . S
C3218 C3219 1.363 . S
C3218 C3223 1.379 . S
C3218 N3225 1.356 . S
C3219 C3218 1.363 . S
C3219 C3222 1.363 . S
N3220 C3222 1.356 . S
N3220 H3232 0.984 . S
N3220 H3233 0.985 . S
N3221 C3223 1.356 . S
N3221 H3226 0.984 . S
N3221 H3227 0.985 . S
C3222 C3216 1.379 . S
C3222 C3219 1.363 . S
C3222 N3220 1.356 . S
C3223 C3217 1.363 . S
C3223 C3218 1.379 . S
C3223 N3221 1.356 . S
N3224 C3216 1.356 . S
N3224 H3230 0.984 . S
N3224 H3231 0.984 . S
N3225 C3218 1.356 . S
N3225 H3228 0.984 . S
N3225 H3229 0.985 . S
H3226 N3221 0.984 . S
H3227 N3221 0.985 . S
H3228 N3225 0.984 . S
H3229 N3225 0.985 . S
H3230 N3224 0.984 . S
H3231 N3224 0.984 . S
H3232 N3220 0.984 . S
H3233 N3220 0.985 . S
C3234 C3235 1.363 . S
C3234 C3240 1.379 . S
C3234 N3242 1.356 . S
C3235 C3234 1.363 . S
C3235 C3241 1.363 . S
C3236 C3237 1.363 . S
C3236 C3241 1.379 . S
C3236 N3243 1.356 . S
C3237 C3236 1.363 . S
C3237 C3240 1.363 . S
N3238 C3240 1.356 . S
N3238 H3250 0.984 . S
N3238 H3251 0.985 . S
N3239 C3241 1.356 . S
N3239 H3244 0.984 . S
N3239 H3245 0.985 . S
C3240 C3234 1.379 . S
C3240 C3237 1.363 . S
C3240 N3238 1.356 . S
C3241 C3235 1.363 . S
C3241 C3236 1.379 . S
C3241 N3239 1.356 . S
N3242 C3234 1.356 . S
N3242 H3248 0.984 . S
N3242 H3249 0.984 . S
N3243 C3236 1.356 . S
N3243 H3246 0.984 . S
N3243 H3247 0.985 . S
H3244 N3239 0.984 . S
H3245 N3239 0.985 . S
H3246 N3243 0.984 . S
H3247 N3243 0.985 . S
H3248 N3242 0.984 . S
H3249 N3242 0.984 . S
H3250 N3238 0.984 . S
H3251 N3238 0.985 . S
C3252 C3253 1.363 . S
C3252 C3258 1.379 . S
C3252 N3260 1.356 . S
C3253 C3252 1.363 . S
C3253 C3259 1.363 . S
C3254 C3255 1.363 . S
C3254 C3259 1.379 . S
C3254 N3261 1.356 . S
C3255 C3254 1.363 . S
C3255 C3258 1.363 . S
N3256 C3258 1.356 . S
N3256 H3268 0.984 . S
N3256 H3269 0.985 . S
N3257 C3259 1.356 . S
N3257 H3262 0.984 . S
N3257 H3263 0.985 . S
C3258 C3252 1.379 . S
C3258 C3255 1.363 . S
C3258 N3256 1.356 . S
C3259 C3253 1.363 . S
C3259 C3254 1.379 . S
C3259 N3257 1.356 . S
N3260 C3252 1.356 . S
N3260 H3266 0.984 . S
N3260 H3267 0.984 . S
N3261 C3254 1.356 . S
N3261 H3264 0.984 . S
N3261 H3265 0.985 . S
H3262 N3257 0.984 . S
H3263 N3257 0.985 . S
H3264 N3261 0.984 . S
H3265 N3261 0.985 . S
H3266 N3260 0.984 . S
H3267 N3260 0.984 . S
H3268 N3256 0.984 . S
H3269 N3256 0.985 . S
C3270 C3271 1.363 . S
C3270 C3276 1.379 . S
C3270 N3278 1.356 . S
C3271 C3270 1.363 . S
C3271 C3277 1.363 . S
C3272 C3273 1.363 . S
C3272 C3277 1.379 . S
C3272 N3279 1.356 . S
C3273 C3272 1.363 . S
C3273 C3276 1.363 . S
N3274 C3276 1.356 . S
N3274 H3286 0.984 . S
N3274 H3287 0.985 . S
N3275 C3277 1.356 . S
N3275 H3280 0.984 . S
N3275 H3281 0.985 . S
C3276 C3270 1.379 . S
C3276 C3273 1.363 . S
C3276 N3274 1.356 . S
C3277 C3271 1.363 . S
C3277 C3272 1.379 . S
C3277 N3275 1.356 . S
N3278 C3270 1.356 . S
N3278 H3284 0.984 . S
N3278 H3285 0.984 . S
N3279 C3272 1.356 . S
N3279 H3282 0.984 . S
N3279 H3283 0.985 . S
H3280 N3275 0.984 . S
H3281 N3275 0.985 . S
H3282 N3279 0.984 . S
H3283 N3279 0.985 . S
H3284 N3278 0.984 . S
H3285 N3278 0.984 . S
H3286 N3274 0.984 . S
H3287 N3274 0.985 . S
C3288 C3289 1.363 . S
C3288 C3294 1.379 . S
C3288 N3296 1.356 . S
C3289 C3288 1.363 . S
C3289 C3295 1.363 . S
C3290 C3291 1.363 . S
C3290 C3295 1.379 . S
C3290 N3297 1.356 . S
C3291 C3290 1.363 . S
C3291 C3294 1.363 . S
N3292 C3294 1.356 . S
N3292 H3304 0.984 . S
N3292 H3305 0.985 . S
N3293 C3295 1.356 . S
N3293 H3298 0.984 . S
N3293 H3299 0.985 . S
C3294 C3288 1.379 . S
C3294 C3291 1.363 . S
C3294 N3292 1.356 . S
C3295 C3289 1.363 . S
C3295 C3290 1.379 . S
C3295 N3293 1.356 . S
N3296 C3288 1.356 . S
N3296 H3302 0.984 . S
N3296 H3303 0.984 . S
N3297 C3290 1.356 . S
N3297 H3300 0.984 . S
N3297 H3301 0.985 . S
H3298 N3293 0.984 . S
H3299 N3293 0.985 . S
H3300 N3297 0.984 . S
H3301 N3297 0.985 . S
H3302 N3296 0.984 . S
H3303 N3296 0.984 . S
H3304 N3292 0.984 . S
H3305 N3292 0.985 . S
C3306 C3307 1.363 . S
C3306 C3312 1.379 . S
C3306 N3314 1.356 . S
C3307 C3306 1.363 . S
C3307 C3313 1.363 . S
C3308 C3309 1.363 . S
C3308 C3313 1.379 . S
C3308 N3315 1.356 . S
C3309 C3308 1.363 . S
C3309 C3312 1.363 . S
N3310 C3312 1.356 . S
N3310 H3322 0.984 . S
N3310 H3323 0.985 . S
N3311 C3313 1.356 . S
N3311 H3316 0.984 . S
N3311 H3317 0.985 . S
C3312 C3306 1.379 . S
C3312 C3309 1.363 . S
C3312 N3310 1.356 . S
C3313 C3307 1.363 . S
C3313 C3308 1.379 . S
C3313 N3311 1.356 . S
N3314 C3306 1.356 . S
N3314 H3320 0.984 . S
N3314 H3321 0.984 . S
N3315 C3308 1.356 . S
N3315 H3318 0.984 . S
N3315 H3319 0.985 . S
H3316 N3311 0.984 . S
H3317 N3311 0.985 . S
H3318 N3315 0.984 . S
H3319 N3315 0.985 . S
H3320 N3314 0.984 . S
H3321 N3314 0.984 . S
H3322 N3310 0.984 . S
H3323 N3310 0.985 . S
C3324 C3325 1.363 . S
C3324 C3330 1.379 . S
C3324 N3332 1.356 . S
C3325 C3324 1.363 . S
C3325 C3331 1.363 . S
C3326 C3327 1.363 . S
C3326 C3331 1.379 . S
C3326 N3333 1.356 . S
C3327 C3326 1.363 . S
C3327 C3330 1.363 . S
N3328 C3330 1.356 . S
N3328 H3340 0.984 . S
N3328 H3341 0.985 . S
N3329 C3331 1.356 . S
N3329 H3334 0.984 . S
N3329 H3335 0.985 . S
C3330 C3324 1.379 . S
C3330 C3327 1.363 . S
C3330 N3328 1.356 . S
C3331 C3325 1.363 . S
C3331 C3326 1.379 . S
C3331 N3329 1.356 . S
N3332 C3324 1.356 . S
N3332 H3338 0.984 . S
N3332 H3339 0.984 . S
N3333 C3326 1.356 . S
N3333 H3336 0.984 . S
N3333 H3337 0.985 . S
H3334 N3329 0.984 . S
H3335 N3329 0.985 . S
H3336 N3333 0.984 . S
H3337 N3333 0.985 . S
H3338 N3332 0.984 . S
H3339 N3332 0.984 . S
H3340 N3328 0.984 . S
H3341 N3328 0.985 . S
C3342 C3343 1.363 . S
C3342 C3348 1.379 . S
C3342 N3350 1.356 . S
C3343 C3342 1.363 . S
C3343 C3349 1.363 . S
C3344 C3345 1.363 . S
C3344 C3349 1.379 . S
C3344 N3351 1.356 . S
C3345 C3344 1.363 . S
C3345 C3348 1.363 . S
N3346 C3348 1.356 . S
N3346 H3358 0.984 . S
N3346 H3359 0.985 . S
N3347 C3349 1.356 . S
N3347 H3352 0.984 . S
N3347 H3353 0.985 . S
C3348 C3342 1.379 . S
C3348 C3345 1.363 . S
C3348 N3346 1.356 . S
C3349 C3343 1.363 . S
C3349 C3344 1.379 . S
C3349 N3347 1.356 . S
N3350 C3342 1.356 . S
N3350 H3356 0.984 . S
N3350 H3357 0.984 . S
N3351 C3344 1.356 . S
N3351 H3354 0.984 . S
N3351 H3355 0.985 . S
H3352 N3347 0.984 . S
H3353 N3347 0.985 . S
H3354 N3351 0.984 . S
H3355 N3351 0.985 . S
H3356 N3350 0.984 . S
H3357 N3350 0.984 . S
H3358 N3346 0.984 . S
H3359 N3346 0.985 . S
C3360 C3361 1.363 . S
C3360 C3366 1.379 . S
C3360 N3368 1.356 . S
C3361 C3360 1.363 . S
C3361 C3367 1.363 . S
C3362 C3363 1.363 . S
C3362 C3367 1.379 . S
C3362 N3369 1.356 . S
C3363 C3362 1.363 . S
C3363 C3366 1.363 . S
N3364 C3366 1.356 . S
N3364 H3376 0.984 . S
N3364 H3377 0.985 . S
N3365 C3367 1.356 . S
N3365 H3370 0.984 . S
N3365 H3371 0.985 . S
C3366 C3360 1.379 . S
C3366 C3363 1.363 . S
C3366 N3364 1.356 . S
C3367 C3361 1.363 . S
C3367 C3362 1.379 . S
C3367 N3365 1.356 . S
N3368 C3360 1.356 . S
N3368 H3374 0.984 . S
N3368 H3375 0.984 . S
N3369 C3362 1.356 . S
N3369 H3372 0.984 . S
N3369 H3373 0.985 . S
H3370 N3365 0.984 . S
H3371 N3365 0.985 . S
H3372 N3369 0.984 . S
H3373 N3369 0.985 . S
H3374 N3368 0.984 . S
H3375 N3368 0.984 . S
H3376 N3364 0.984 . S
H3377 N3364 0.985 . S
C3378 C3379 1.363 . S
C3378 C3384 1.379 . S
C3378 N3386 1.356 . S
C3379 C3378 1.363 . S
C3379 C3385 1.363 . S
C3380 C3381 1.363 . S
C3380 C3385 1.379 . S
C3380 N3387 1.356 . S
C3381 C3380 1.363 . S
C3381 C3384 1.363 . S
N3382 C3384 1.356 . S
N3382 H3394 0.984 . S
N3382 H3395 0.985 . S
N3383 C3385 1.356 . S
N3383 H3388 0.984 . S
N3383 H3389 0.985 . S
C3384 C3378 1.379 . S
C3384 C3381 1.363 . S
C3384 N3382 1.356 . S
C3385 C3379 1.363 . S
C3385 C3380 1.379 . S
C3385 N3383 1.356 . S
N3386 C3378 1.356 . S
N3386 H3392 0.984 . S
N3386 H3393 0.984 . S
N3387 C3380 1.356 . S
N3387 H3390 0.984 . S
N3387 H3391 0.985 . S
H3388 N3383 0.984 . S
H3389 N3383 0.985 . S
H3390 N3387 0.984 . S
H3391 N3387 0.985 . S
H3392 N3386 0.984 . S
H3393 N3386 0.984 . S
H3394 N3382 0.984 . S
H3395 N3382 0.985 . S
C3396 C3397 1.363 . S
C3396 C3402 1.379 . S
C3396 N3404 1.356 . S
C3397 C3396 1.363 . S
C3397 C3403 1.363 . S
C3398 C3399 1.363 . S
C3398 C3403 1.379 . S
C3398 N3405 1.356 . S
C3399 C3398 1.363 . S
C3399 C3402 1.363 . S
N3400 C3402 1.356 . S
N3400 H3412 0.984 . S
N3400 H3413 0.985 . S
N3401 C3403 1.356 . S
N3401 H3406 0.984 . S
N3401 H3407 0.985 . S
C3402 C3396 1.379 . S
C3402 C3399 1.363 . S
C3402 N3400 1.356 . S
C3403 C3397 1.363 . S
C3403 C3398 1.379 . S
C3403 N3401 1.356 . S
N3404 C3396 1.356 . S
N3404 H3410 0.984 . S
N3404 H3411 0.984 . S
N3405 C3398 1.356 . S
N3405 H3408 0.984 . S
N3405 H3409 0.985 . S
H3406 N3401 0.984 . S
H3407 N3401 0.985 . S
H3408 N3405 0.984 . S
H3409 N3405 0.985 . S
H3410 N3404 0.984 . S
H3411 N3404 0.984 . S
H3412 N3400 0.984 . S
H3413 N3400 0.985 . S
C3414 C3415 1.363 . S
C3414 C3420 1.379 . S
C3414 N3422 1.356 . S
C3415 C3414 1.363 . S
C3415 C3421 1.363 . S
C3416 C3417 1.363 . S
C3416 C3421 1.379 . S
C3416 N3423 1.356 . S
C3417 C3416 1.363 . S
C3417 C3420 1.363 . S
N3418 C3420 1.356 . S
N3418 H3430 0.984 . S
N3418 H3431 0.985 . S
N3419 C3421 1.356 . S
N3419 H3424 0.984 . S
N3419 H3425 0.985 . S
C3420 C3414 1.379 . S
C3420 C3417 1.363 . S
C3420 N3418 1.356 . S
C3421 C3415 1.363 . S
C3421 C3416 1.379 . S
C3421 N3419 1.356 . S
N3422 C3414 1.356 . S
N3422 H3428 0.984 . S
N3422 H3429 0.984 . S
N3423 C3416 1.356 . S
N3423 H3426 0.984 . S
N3423 H3427 0.985 . S
H3424 N3419 0.984 . S
H3425 N3419 0.985 . S
H3426 N3423 0.984 . S
H3427 N3423 0.985 . S
H3428 N3422 0.984 . S
H3429 N3422 0.984 . S
H3430 N3418 0.984 . S
H3431 N3418 0.985 . S
C3432 C3433 1.363 . S
C3432 C3438 1.379 . S
C3432 N3440 1.356 . S
C3433 C3432 1.363 . S
C3433 C3439 1.363 . S
C3434 C3435 1.363 . S
C3434 C3439 1.379 . S
C3434 N3441 1.356 . S
C3435 C3434 1.363 . S
C3435 C3438 1.363 . S
N3436 C3438 1.356 . S
N3436 H3448 0.984 . S
N3436 H3449 0.985 . S
N3437 C3439 1.356 . S
N3437 H3442 0.984 . S
N3437 H3443 0.985 . S
C3438 C3432 1.379 . S
C3438 C3435 1.363 . S
C3438 N3436 1.356 . S
C3439 C3433 1.363 . S
C3439 C3434 1.379 . S
C3439 N3437 1.356 . S
N3440 C3432 1.356 . S
N3440 H3446 0.984 . S
N3440 H3447 0.984 . S
N3441 C3434 1.356 . S
N3441 H3444 0.984 . S
N3441 H3445 0.985 . S
H3442 N3437 0.984 . S
H3443 N3437 0.985 . S
H3444 N3441 0.984 . S
H3445 N3441 0.985 . S
H3446 N3440 0.984 . S
H3447 N3440 0.984 . S
H3448 N3436 0.984 . S
H3449 N3436 0.985 . S
C3450 C3451 1.363 . S
C3450 C3456 1.379 . S
C3450 N3458 1.356 . S
C3451 C3450 1.363 . S
C3451 C3457 1.363 . S
C3452 C3453 1.363 . S
C3452 C3457 1.379 . S
C3452 N3459 1.356 . S
C3453 C3452 1.363 . S
C3453 C3456 1.363 . S
N3454 C3456 1.356 . S
N3454 H3466 0.984 . S
N3454 H3467 0.985 . S
N3455 C3457 1.356 . S
N3455 H3460 0.984 . S
N3455 H3461 0.985 . S
C3456 C3450 1.379 . S
C3456 C3453 1.363 . S
C3456 N3454 1.356 . S
C3457 C3451 1.363 . S
C3457 C3452 1.379 . S
C3457 N3455 1.356 . S
N3458 C3450 1.356 . S
N3458 H3464 0.984 . S
N3458 H3465 0.984 . S
N3459 C3452 1.356 . S
N3459 H3462 0.984 . S
N3459 H3463 0.985 . S
H3460 N3455 0.984 . S
H3461 N3455 0.985 . S
H3462 N3459 0.984 . S
H3463 N3459 0.985 . S
H3464 N3458 0.984 . S
H3465 N3458 0.984 . S
H3466 N3454 0.984 . S
H3467 N3454 0.985 . S
C3468 C3469 1.363 . S
C3468 C3474 1.379 . S
C3468 N3476 1.356 . S
C3469 C3468 1.363 . S
C3469 C3475 1.363 . S
C3470 C3471 1.363 . S
C3470 C3475 1.379 . S
C3470 N3477 1.356 . S
C3471 C3470 1.363 . S
C3471 C3474 1.363 . S
N3472 C3474 1.356 . S
N3472 H3484 0.984 . S
N3472 H3485 0.985 . S
N3473 C3475 1.356 . S
N3473 H3478 0.984 . S
N3473 H3479 0.985 . S
C3474 C3468 1.379 . S
C3474 C3471 1.363 . S
C3474 N3472 1.356 . S
C3475 C3469 1.363 . S
C3475 C3470 1.379 . S
C3475 N3473 1.356 . S
N3476 C3468 1.356 . S
N3476 H3482 0.984 . S
N3476 H3483 0.984 . S
N3477 C3470 1.356 . S
N3477 H3480 0.984 . S
N3477 H3481 0.985 . S
H3478 N3473 0.984 . S
H3479 N3473 0.985 . S
H3480 N3477 0.984 . S
H3481 N3477 0.985 . S
H3482 N3476 0.984 . S
H3483 N3476 0.984 . S
H3484 N3472 0.984 . S
H3485 N3472 0.985 . S
C3486 C3487 1.363 . S
C3486 C3492 1.379 . S
C3486 N3494 1.356 . S
C3487 C3486 1.363 . S
C3487 C3493 1.363 . S
C3488 C3489 1.363 . S
C3488 C3493 1.379 . S
C3488 N3495 1.356 . S
C3489 C3488 1.363 . S
C3489 C3492 1.363 . S
N3490 C3492 1.356 . S
N3490 H3502 0.984 . S
N3490 H3503 0.985 . S
N3491 C3493 1.356 . S
N3491 H3496 0.984 . S
N3491 H3497 0.985 . S
C3492 C3486 1.379 . S
C3492 C3489 1.363 . S
C3492 N3490 1.356 . S
C3493 C3487 1.363 . S
C3493 C3488 1.379 . S
C3493 N3491 1.356 . S
N3494 C3486 1.356 . S
N3494 H3500 0.984 . S
N3494 H3501 0.984 . S
N3495 C3488 1.356 . S
N3495 H3498 0.984 . S
N3495 H3499 0.985 . S
H3496 N3491 0.984 . S
H3497 N3491 0.985 . S
H3498 N3495 0.984 . S
H3499 N3495 0.985 . S
H3500 N3494 0.984 . S
H3501 N3494 0.984 . S
H3502 N3490 0.984 . S
H3503 N3490 0.985 . S
C3504 C3505 1.363 . S
C3504 C3510 1.379 . S
C3504 N3512 1.356 . S
C3505 C3504 1.363 . S
C3505 C3511 1.363 . S
C3506 C3507 1.363 . S
C3506 C3511 1.379 . S
C3506 N3513 1.356 . S
C3507 C3506 1.363 . S
C3507 C3510 1.363 . S
N3508 C3510 1.356 . S
N3508 H3520 0.984 . S
N3508 H3521 0.985 . S
N3509 C3511 1.356 . S
N3509 H3514 0.984 . S
N3509 H3515 0.985 . S
C3510 C3504 1.379 . S
C3510 C3507 1.363 . S
C3510 N3508 1.356 . S
C3511 C3505 1.363 . S
C3511 C3506 1.379 . S
C3511 N3509 1.356 . S
N3512 C3504 1.356 . S
N3512 H3518 0.984 . S
N3512 H3519 0.984 . S
N3513 C3506 1.356 . S
N3513 H3516 0.984 . S
N3513 H3517 0.985 . S
H3514 N3509 0.984 . S
H3515 N3509 0.985 . S
H3516 N3513 0.984 . S
H3517 N3513 0.985 . S
H3518 N3512 0.984 . S
H3519 N3512 0.984 . S
H3520 N3508 0.984 . S
H3521 N3508 0.985 . S
C3522 C3523 1.363 . S
C3522 C3528 1.379 . S
C3522 N3530 1.356 . S
C3523 C3522 1.363 . S
C3523 C3529 1.363 . S
C3524 C3525 1.363 . S
C3524 C3529 1.379 . S
C3524 N3531 1.356 . S
C3525 C3524 1.363 . S
C3525 C3528 1.363 . S
N3526 C3528 1.356 . S
N3526 H3538 0.984 . S
N3526 H3539 0.985 . S
N3527 C3529 1.356 . S
N3527 H3532 0.984 . S
N3527 H3533 0.985 . S
C3528 C3522 1.379 . S
C3528 C3525 1.363 . S
C3528 N3526 1.356 . S
C3529 C3523 1.363 . S
C3529 C3524 1.379 . S
C3529 N3527 1.356 . S
N3530 C3522 1.356 . S
N3530 H3536 0.984 . S
N3530 H3537 0.984 . S
N3531 C3524 1.356 . S
N3531 H3534 0.984 . S
N3531 H3535 0.985 . S
H3532 N3527 0.984 . S
H3533 N3527 0.985 . S
H3534 N3531 0.984 . S
H3535 N3531 0.985 . S
H3536 N3530 0.984 . S
H3537 N3530 0.984 . S
H3538 N3526 0.984 . S
H3539 N3526 0.985 . S
C3540 C3541 1.363 . S
C3540 C3546 1.379 . S
C3540 N3548 1.356 . S
C3541 C3540 1.363 . S
C3541 C3547 1.363 . S
C3542 C3543 1.363 . S
C3542 C3547 1.379 . S
C3542 N3549 1.356 . S
C3543 C3542 1.363 . S
C3543 C3546 1.363 . S
N3544 C3546 1.356 . S
N3544 H3556 0.984 . S
N3544 H3557 0.985 . S
N3545 C3547 1.356 . S
N3545 H3550 0.984 . S
N3545 H3551 0.985 . S
C3546 C3540 1.379 . S
C3546 C3543 1.363 . S
C3546 N3544 1.356 . S
C3547 C3541 1.363 . S
C3547 C3542 1.379 . S
C3547 N3545 1.356 . S
N3548 C3540 1.356 . S
N3548 H3554 0.984 . S
N3548 H3555 0.984 . S
N3549 C3542 1.356 . S
N3549 H3552 0.984 . S
N3549 H3553 0.985 . S
H3550 N3545 0.984 . S
H3551 N3545 0.985 . S
H3552 N3549 0.984 . S
H3553 N3549 0.985 . S
H3554 N3548 0.984 . S
H3555 N3548 0.984 . S
H3556 N3544 0.984 . S
H3557 N3544 0.985 . S
C3558 C3559 1.363 . S
C3558 C3564 1.379 . S
C3558 N3566 1.356 . S
C3559 C3558 1.363 . S
C3559 C3565 1.363 . S
C3560 C3561 1.363 . S
C3560 C3565 1.379 . S
C3560 N3567 1.356 . S
C3561 C3560 1.363 . S
C3561 C3564 1.363 . S
N3562 C3564 1.356 . S
N3562 H3574 0.984 . S
N3562 H3575 0.985 . S
N3563 C3565 1.356 . S
N3563 H3568 0.984 . S
N3563 H3569 0.985 . S
C3564 C3558 1.379 . S
C3564 C3561 1.363 . S
C3564 N3562 1.356 . S
C3565 C3559 1.363 . S
C3565 C3560 1.379 . S
C3565 N3563 1.356 . S
N3566 C3558 1.356 . S
N3566 H3572 0.984 . S
N3566 H3573 0.984 . S
N3567 C3560 1.356 . S
N3567 H3570 0.984 . S
N3567 H3571 0.985 . S
H3568 N3563 0.984 . S
H3569 N3563 0.985 . S
H3570 N3567 0.984 . S
H3571 N3567 0.985 . S
H3572 N3566 0.984 . S
H3573 N3566 0.984 . S
H3574 N3562 0.984 . S
H3575 N3562 0.985 . S
C3576 C3577 1.363 . S
C3576 C3582 1.379 . S
C3576 N3584 1.356 . S
C3577 C3576 1.363 . S
C3577 C3583 1.363 . S
C3578 C3579 1.363 . S
C3578 C3583 1.379 . S
C3578 N3585 1.356 . S
C3579 C3578 1.363 . S
C3579 C3582 1.363 . S
N3580 C3582 1.356 . S
N3580 H3592 0.984 . S
N3580 H3593 0.985 . S
N3581 C3583 1.356 . S
N3581 H3586 0.984 . S
N3581 H3587 0.985 . S
C3582 C3576 1.379 . S
C3582 C3579 1.363 . S
C3582 N3580 1.356 . S
C3583 C3577 1.363 . S
C3583 C3578 1.379 . S
C3583 N3581 1.356 . S
N3584 C3576 1.356 . S
N3584 H3590 0.984 . S
N3584 H3591 0.984 . S
N3585 C3578 1.356 . S
N3585 H3588 0.984 . S
N3585 H3589 0.985 . S
H3586 N3581 0.984 . S
H3587 N3581 0.985 . S
H3588 N3585 0.984 . S
H3589 N3585 0.985 . S
H3590 N3584 0.984 . S
H3591 N3584 0.984 . S
H3592 N3580 0.984 . S
H3593 N3580 0.985 . S
C3594 C3595 1.363 . S
C3594 C3600 1.379 . S
C3594 N3602 1.356 . S
C3595 C3594 1.363 . S
C3595 C3601 1.363 . S
C3596 C3597 1.363 . S
C3596 C3601 1.379 . S
C3596 N3603 1.356 . S
C3597 C3596 1.363 . S
C3597 C3600 1.363 . S
N3598 C3600 1.356 . S
N3598 H3610 0.984 . S
N3598 H3611 0.985 . S
N3599 C3601 1.356 . S
N3599 H3604 0.984 . S
N3599 H3605 0.985 . S
C3600 C3594 1.379 . S
C3600 C3597 1.363 . S
C3600 N3598 1.356 . S
C3601 C3595 1.363 . S
C3601 C3596 1.379 . S
C3601 N3599 1.356 . S
N3602 C3594 1.356 . S
N3602 H3608 0.984 . S
N3602 H3609 0.984 . S
N3603 C3596 1.356 . S
N3603 H3606 0.984 . S
N3603 H3607 0.985 . S
H3604 N3599 0.984 . S
H3605 N3599 0.985 . S
H3606 N3603 0.984 . S
H3607 N3603 0.985 . S
H3608 N3602 0.984 . S
H3609 N3602 0.984 . S
H3610 N3598 0.984 . S
H3611 N3598 0.985 . S
C3612 C3613 1.363 . S
C3612 C3618 1.379 . S
C3612 N3620 1.356 . S
C3613 C3612 1.363 . S
C3613 C3619 1.363 . S
C3614 C3615 1.363 . S
C3614 C3619 1.379 . S
C3614 N3621 1.356 . S
C3615 C3614 1.363 . S
C3615 C3618 1.363 . S
N3616 C3618 1.356 . S
N3616 H3628 0.984 . S
N3616 H3629 0.985 . S
N3617 C3619 1.356 . S
N3617 H3622 0.984 . S
N3617 H3623 0.985 . S
C3618 C3612 1.379 . S
C3618 C3615 1.363 . S
C3618 N3616 1.356 . S
C3619 C3613 1.363 . S
C3619 C3614 1.379 . S
C3619 N3617 1.356 . S
N3620 C3612 1.356 . S
N3620 H3626 0.984 . S
N3620 H3627 0.984 . S
N3621 C3614 1.356 . S
N3621 H3624 0.984 . S
N3621 H3625 0.985 . S
H3622 N3617 0.984 . S
H3623 N3617 0.985 . S
H3624 N3621 0.984 . S
H3625 N3621 0.985 . S
H3626 N3620 0.984 . S
H3627 N3620 0.984 . S
H3628 N3616 0.984 . S
H3629 N3616 0.985 . S
C3630 C3631 1.363 . S
C3630 C3636 1.379 . S
C3630 N3638 1.356 . S
C3631 C3630 1.363 . S
C3631 C3637 1.363 . S
C3632 C3633 1.363 . S
C3632 C3637 1.379 . S
C3632 N3639 1.356 . S
C3633 C3632 1.363 . S
C3633 C3636 1.363 . S
N3634 C3636 1.356 . S
N3634 H3646 0.984 . S
N3634 H3647 0.985 . S
N3635 C3637 1.356 . S
N3635 H3640 0.984 . S
N3635 H3641 0.985 . S
C3636 C3630 1.379 . S
C3636 C3633 1.363 . S
C3636 N3634 1.356 . S
C3637 C3631 1.363 . S
C3637 C3632 1.379 . S
C3637 N3635 1.356 . S
N3638 C3630 1.356 . S
N3638 H3644 0.984 . S
N3638 H3645 0.984 . S
N3639 C3632 1.356 . S
N3639 H3642 0.984 . S
N3639 H3643 0.985 . S
H3640 N3635 0.984 . S
H3641 N3635 0.985 . S
H3642 N3639 0.984 . S
H3643 N3639 0.985 . S
H3644 N3638 0.984 . S
H3645 N3638 0.984 . S
H3646 N3634 0.984 . S
H3647 N3634 0.985 . S
C3648 C3649 1.363 . S
C3648 C3654 1.379 . S
C3648 N3656 1.356 . S
C3649 C3648 1.363 . S
C3649 C3655 1.363 . S
C3650 C3651 1.363 . S
C3650 C3655 1.379 . S
C3650 N3657 1.356 . S
C3651 C3650 1.363 . S
C3651 C3654 1.363 . S
N3652 C3654 1.356 . S
N3652 H3664 0.984 . S
N3652 H3665 0.985 . S
N3653 C3655 1.356 . S
N3653 H3658 0.984 . S
N3653 H3659 0.985 . S
C3654 C3648 1.379 . S
C3654 C3651 1.363 . S
C3654 N3652 1.356 . S
C3655 C3649 1.363 . S
C3655 C3650 1.379 . S
C3655 N3653 1.356 . S
N3656 C3648 1.356 . S
N3656 H3662 0.984 . S
N3656 H3663 0.984 . S
N3657 C3650 1.356 . S
N3657 H3660 0.984 . S
N3657 H3661 0.985 . S
H3658 N3653 0.984 . S
H3659 N3653 0.985 . S
H3660 N3657 0.984 . S
H3661 N3657 0.985 . S
H3662 N3656 0.984 . S
H3663 N3656 0.984 . S
H3664 N3652 0.984 . S
H3665 N3652 0.985 . S
C3666 C3667 1.363 . S
C3666 C3672 1.379 . S
C3666 N3674 1.356 . S
C3667 C3666 1.363 . S
C3667 C3673 1.363 . S
C3668 C3669 1.363 . S
C3668 C3673 1.379 . S
C3668 N3675 1.356 . S
C3669 C3668 1.363 . S
C3669 C3672 1.363 . S
N3670 C3672 1.356 . S
N3670 H3682 0.984 . S
N3670 H3683 0.985 . S
N3671 C3673 1.356 . S
N3671 H3676 0.984 . S
N3671 H3677 0.985 . S
C3672 C3666 1.379 . S
C3672 C3669 1.363 . S
C3672 N3670 1.356 . S
C3673 C3667 1.363 . S
C3673 C3668 1.379 . S
C3673 N3671 1.356 . S
N3674 C3666 1.356 . S
N3674 H3680 0.984 . S
N3674 H3681 0.984 . S
N3675 C3668 1.356 . S
N3675 H3678 0.984 . S
N3675 H3679 0.985 . S
H3676 N3671 0.984 . S
H3677 N3671 0.985 . S
H3678 N3675 0.984 . S
H3679 N3675 0.985 . S
H3680 N3674 0.984 . S
H3681 N3674 0.984 . S
H3682 N3670 0.984 . S
H3683 N3670 0.985 . S
C3684 C3685 1.363 . S
C3684 C3690 1.379 . S
C3684 N3692 1.356 . S
C3685 C3684 1.363 . S
C3685 C3691 1.363 . S
C3686 C3687 1.363 . S
C3686 C3691 1.379 . S
C3686 N3693 1.356 . S
C3687 C3686 1.363 . S
C3687 C3690 1.363 . S
N3688 C3690 1.356 . S
N3688 H3700 0.984 . S
N3688 H3701 0.985 . S
N3689 C3691 1.356 . S
N3689 H3694 0.984 . S
N3689 H3695 0.985 . S
C3690 C3684 1.379 . S
C3690 C3687 1.363 . S
C3690 N3688 1.356 . S
C3691 C3685 1.363 . S
C3691 C3686 1.379 . S
C3691 N3689 1.356 . S
N3692 C3684 1.356 . S
N3692 H3698 0.984 . S
N3692 H3699 0.984 . S
N3693 C3686 1.356 . S
N3693 H3696 0.984 . S
N3693 H3697 0.985 . S
H3694 N3689 0.984 . S
H3695 N3689 0.985 . S
H3696 N3693 0.984 . S
H3697 N3693 0.985 . S
H3698 N3692 0.984 . S
H3699 N3692 0.984 . S
H3700 N3688 0.984 . S
H3701 N3688 0.985 . S
C3702 C3703 1.363 . S
C3702 C3708 1.379 . S
C3702 N3710 1.356 . S
C3703 C3702 1.363 . S
C3703 C3709 1.363 . S
C3704 C3705 1.363 . S
C3704 C3709 1.379 . S
C3704 N3711 1.356 . S
C3705 C3704 1.363 . S
C3705 C3708 1.363 . S
N3706 C3708 1.356 . S
N3706 H3718 0.984 . S
N3706 H3719 0.985 . S
N3707 C3709 1.356 . S
N3707 H3712 0.984 . S
N3707 H3713 0.985 . S
C3708 C3702 1.379 . S
C3708 C3705 1.363 . S
C3708 N3706 1.356 . S
C3709 C3703 1.363 . S
C3709 C3704 1.379 . S
C3709 N3707 1.356 . S
N3710 C3702 1.356 . S
N3710 H3716 0.984 . S
N3710 H3717 0.984 . S
N3711 C3704 1.356 . S
N3711 H3714 0.984 . S
N3711 H3715 0.985 . S
H3712 N3707 0.984 . S
H3713 N3707 0.985 . S
H3714 N3711 0.984 . S
H3715 N3711 0.985 . S
H3716 N3710 0.984 . S
H3717 N3710 0.984 . S
H3718 N3706 0.984 . S
H3719 N3706 0.985 . S
C3720 C3721 1.363 . S
C3720 C3726 1.379 . S
C3720 N3728 1.356 . S
C3721 C3720 1.363 . S
C3721 C3727 1.363 . S
C3722 C3723 1.363 . S
C3722 C3727 1.379 . S
C3722 N3729 1.356 . S
C3723 C3722 1.363 . S
C3723 C3726 1.363 . S
N3724 C3726 1.356 . S
N3724 H3736 0.984 . S
N3724 H3737 0.985 . S
N3725 C3727 1.356 . S
N3725 H3730 0.984 . S
N3725 H3731 0.985 . S
C3726 C3720 1.379 . S
C3726 C3723 1.363 . S
C3726 N3724 1.356 . S
C3727 C3721 1.363 . S
C3727 C3722 1.379 . S
C3727 N3725 1.356 . S
N3728 C3720 1.356 . S
N3728 H3734 0.984 . S
N3728 H3735 0.984 . S
N3729 C3722 1.356 . S
N3729 H3732 0.984 . S
N3729 H3733 0.985 . S
H3730 N3725 0.984 . S
H3731 N3725 0.985 . S
H3732 N3729 0.984 . S
H3733 N3729 0.985 . S
H3734 N3728 0.984 . S
H3735 N3728 0.984 . S
H3736 N3724 0.984 . S
H3737 N3724 0.985 . S
C3738 C3739 1.363 . S
C3738 C3744 1.379 . S
C3738 N3746 1.356 . S
C3739 C3738 1.363 . S
C3739 C3745 1.363 . S
C3740 C3741 1.363 . S
C3740 C3745 1.379 . S
C3740 N3747 1.356 . S
C3741 C3740 1.363 . S
C3741 C3744 1.363 . S
N3742 C3744 1.356 . S
N3742 H3754 0.984 . S
N3742 H3755 0.985 . S
N3743 C3745 1.356 . S
N3743 H3748 0.984 . S
N3743 H3749 0.985 . S
C3744 C3738 1.379 . S
C3744 C3741 1.363 . S
C3744 N3742 1.356 . S
C3745 C3739 1.363 . S
C3745 C3740 1.379 . S
C3745 N3743 1.356 . S
N3746 C3738 1.356 . S
N3746 H3752 0.984 . S
N3746 H3753 0.984 . S
N3747 C3740 1.356 . S
N3747 H3750 0.984 . S
N3747 H3751 0.985 . S
H3748 N3743 0.984 . S
H3749 N3743 0.985 . S
H3750 N3747 0.984 . S
H3751 N3747 0.985 . S
H3752 N3746 0.984 . S
H3753 N3746 0.984 . S
H3754 N3742 0.984 . S
H3755 N3742 0.985 . S
C3756 C3757 1.363 . S
C3756 C3762 1.379 . S
C3756 N3764 1.356 . S
C3757 C3756 1.363 . S
C3757 C3763 1.363 . S
C3758 C3759 1.363 . S
C3758 C3763 1.379 . S
C3758 N3765 1.356 . S
C3759 C3758 1.363 . S
C3759 C3762 1.363 . S
N3760 C3762 1.356 . S
N3760 H3772 0.984 . S
N3760 H3773 0.985 . S
N3761 C3763 1.356 . S
N3761 H3766 0.984 . S
N3761 H3767 0.985 . S
C3762 C3756 1.379 . S
C3762 C3759 1.363 . S
C3762 N3760 1.356 . S
C3763 C3757 1.363 . S
C3763 C3758 1.379 . S
C3763 N3761 1.356 . S
N3764 C3756 1.356 . S
N3764 H3770 0.984 . S
N3764 H3771 0.984 . S
N3765 C3758 1.356 . S
N3765 H3768 0.984 . S
N3765 H3769 0.985 . S
H3766 N3761 0.984 . S
H3767 N3761 0.985 . S
H3768 N3765 0.984 . S
H3769 N3765 0.985 . S
H3770 N3764 0.984 . S
H3771 N3764 0.984 . S
H3772 N3760 0.984 . S
H3773 N3760 0.985 . S
C3774 C3775 1.363 . S
C3774 C3780 1.379 . S
C3774 N3782 1.356 . S
C3775 C3774 1.363 . S
C3775 C3781 1.363 . S
C3776 C3777 1.363 . S
C3776 C3781 1.379 . S
C3776 N3783 1.356 . S
C3777 C3776 1.363 . S
C3777 C3780 1.363 . S
N3778 C3780 1.356 . S
N3778 H3790 0.984 . S
N3778 H3791 0.985 . S
N3779 C3781 1.356 . S
N3779 H3784 0.984 . S
N3779 H3785 0.985 . S
C3780 C3774 1.379 . S
C3780 C3777 1.363 . S
C3780 N3778 1.356 . S
C3781 C3775 1.363 . S
C3781 C3776 1.379 . S
C3781 N3779 1.356 . S
N3782 C3774 1.356 . S
N3782 H3788 0.984 . S
N3782 H3789 0.984 . S
N3783 C3776 1.356 . S
N3783 H3786 0.984 . S
N3783 H3787 0.985 . S
H3784 N3779 0.984 . S
H3785 N3779 0.985 . S
H3786 N3783 0.984 . S
H3787 N3783 0.985 . S
H3788 N3782 0.984 . S
H3789 N3782 0.984 . S
H3790 N3778 0.984 . S
H3791 N3778 0.985 . S
C1633 C621 1.639 1_554 S
C1635 C20 1.639 . S
C1651 C54 1.639 . S
C1653 C655 1.639 1_554 S
C1669 C88 1.639 . S
C1671 C689 1.639 1_554 S
C1687 C587 1.639 1_554 S
C1689 C122 1.639 . S
C1705 C757 1.639 1_556 S
C1707 C156 1.639 . S
C1723 C190 1.639 . S
C1725 C553 1.639 1_556 S
C1741 C791 1.639 1_556 S
C1743 C224 1.639 . S
C1759 C723 1.639 1_556 S
C1761 C258 1.639 . S
C1777 C292 1.639 . S
C1779 C315 1.639 1_455 S
C1795 C349 1.639 1_545 S
C1797 C326 1.639 . S
C1813 C383 1.639 1_655 S
C1815 C360 1.639 . S
C1831 C394 1.639 . S
C1833 C281 1.639 1_565 S
C1849 C519 1.639 1_455 S
C1851 C428 1.639 . S
C1867 C462 1.639 . S
C1869 C417 1.639 1_545 S
C1885 C451 1.639 1_655 S
C1887 C496 1.639 . S
C1903 C485 1.639 1_565 S
C1905 C530 1.639 . S
C1921 C564 1.639 . S
C1923 C111 1.639 1_545 S
C1939 C179 1.639 1_565 S
C1941 C598 1.639 . S
C1957 C632 1.639 . S
C1959 C213 1.639 1_455 S
C1975 C247 1.639 1_545 S
C1977 C666 1.639 . S
C1993 C145 1.639 1_655 S
C1995 C700 1.639 . S
C2011 C734 1.639 . S
C2013 C43 1.639 1_565 S
C2029 C768 1.639 . S
C2031 C77 1.639 1_455 S
C2047 C9 1.639 1_655 S
C2049 C802 1.639 . S
C2065 C836 1.639 . S
C2067 C1437 1.639 . S
C2083 C1471 1.639 . S
C2085 C870 1.639 . S
C2101 C1505 1.639 . S
C2103 C904 1.639 . S
C2119 C938 1.639 . S
C2121 C1403 1.639 . S
C2137 C1573 1.639 . S
C2139 C972 1.639 . S
C2155 C1006 1.639 . S
C2157 C1369 1.639 . S
C2173 C1607 1.639 . S
C2175 C1040 1.639 . S
C2191 C1539 1.639 . S
C2193 C1074 1.639 . S
C2209 C1131 1.639 . S
C2211 C1108 1.639 . S
C2227 C1142 1.639 . S
C2229 C1165 1.639 . S
C2245 C1199 1.639 . S
C2247 C1176 1.639 . S
C2263 C1210 1.639 . S
C2265 C1097 1.639 . S
C2281 C1244 1.639 . S
C2283 C1335 1.639 . S
C2299 C1233 1.639 . S
C2301 C1278 1.639 . S
C2317 C1312 1.639 . S
C2319 C1267 1.639 . S
C2335 C1301 1.639 . S
C2337 C1346 1.639 . S
C2353 C927 1.639 . S
C2355 C1380 1.639 . S
C2371 C1414 1.639 . S
C2373 C995 1.639 . S
C2389 C1448 1.639 . S
C2391 C1029 1.639 . S
C2407 C1063 1.639 . S
C2409 C1482 1.639 . S
C2425 C961 1.639 . S
C2427 C1516 1.639 . S
C2443 C859 1.639 . S
C2445 C1550 1.639 . S
C2461 C1584 1.639 . S
C2463 C893 1.639 . S
C2479 C825 1.639 . S
C2481 C1618 1.639 . S
C2497 C1087 1.439 . S
C2499 C33 1.439 . S
C2515 C985 1.439 . S
C2517 C67 1.439 . S
C2533 C101 1.439 . S
C2535 C1019 1.439 . S
C2551 C1053 1.439 . S
C2553 C135 1.439 . S
C2569 C169 1.439 . S
C2571 C883 1.439 . S
C2587 C917 1.439 . S
C2589 C203 1.439 . S
C2605 C951 1.439 . S
C2607 C237 1.439 . S
C2623 C271 1.439 . S
C2625 C849 1.439 . S
C2641 C305 1.439 . S
C2643 C1529 1.439 . S
C2659 C1427 1.439 . S
C2661 C339 1.439 . S
C2677 C1461 1.439 . S
C2679 C373 1.439 . S
C2695 C1495 1.439 . S
C2697 C407 1.439 . S
C2713 C1631 1.439 . S
C2715 C441 1.439 . S
C2731 C475 1.439 . S
C2733 C1563 1.439 . S
C2749 C509 1.439 . S
C2751 C1597 1.439 . S
C2767 C1393 1.439 . S
C2769 C543 1.439 . S
C2785 C1359 1.439 . S
C2787 C577 1.439 . S
C2803 C611 1.439 . S
C2805 C1155 1.439 . S
C2821 C1189 1.439 . S
C2823 C645 1.439 . S
C2839 C1223 1.439 . S
C2841 C679 1.439 . S
C2857 C713 1.439 . S
C2859 C1121 1.439 . S
C2875 C747 1.439 . S
C2877 C1291 1.439 . S
C2893 C1325 1.439 . S
C2895 C781 1.439 . S
C2911 C815 1.439 . S
C2913 C1257 1.439 . S
C2929 C277 1.400 . S
C2931 C2 1.512 . S
C2947 C311 1.400 . S
C2949 C36 1.512 . S
C2965 C70 1.512 . S
C2967 C345 1.400 . S
C2983 C104 1.512 . S
C2985 C379 1.400 . S
C3001 C138 1.512 . S
C3003 C413 1.400 . S
C3019 C447 1.400 . S
C3021 C172 1.512 . S
C3037 C481 1.400 . S
C3039 C206 1.512 . S
C3055 C240 1.512 . S
C3057 C515 1.400 . S
C3073 C549 1.400 . S
C3075 C274 1.512 . S
C3091 C787 1.400 . S
C3093 C308 1.512 . S
C3109 C719 1.400 . S
C3111 C342 1.512 . S
C3127 C376 1.512 . S
C3129 C753 1.400 . S
C3145 C410 1.512 . S
C3147 C583 1.400 . S
C3163 C444 1.512 . S
C3165 C617 1.400 . S
C3181 C478 1.512 . S
C3183 C651 1.400 . S
C3199 C512 1.512 . S
C3201 C685 1.400 . S
C3217 C5 1.400 . S
C3219 C546 1.512 . S
C3235 C580 1.512 . S
C3237 C141 1.400 . S
C3253 C175 1.400 . S
C3255 C614 1.512 . S
C3271 C648 1.512 . S
C3273 C209 1.400 . S
C3289 C243 1.400 . S
C3291 C682 1.512 . S
C3307 C73 1.400 . S
C3309 C716 1.512 . S
C3325 C750 1.512 . S
C3327 C107 1.400 . S
C3343 C39 1.400 . S
C3345 C784 1.512 . S
C3361 C818 1.512 . S
C3363 C1093 1.400 . S
C3379 C1127 1.400 . S
C3381 C852 1.512 . S
C3397 C886 1.512 . S
C3399 C1161 1.400 . S
C3415 C920 1.512 . S
C3417 C1195 1.400 . S
C3433 C954 1.512 . S
C3435 C1229 1.400 . S
C3451 C988 1.512 . S
C3453 C1263 1.400 . S
C3469 C1022 1.512 . S
C3471 C1297 1.400 . S
C3487 C1056 1.512 . S
C3489 C1331 1.400 . S
C3505 C1090 1.512 . S
C3507 C1365 1.400 . S
C3523 C1124 1.512 . S
C3525 C1603 1.400 . S
C3541 C1158 1.512 . S
C3543 C1535 1.400 . S
C3559 C1569 1.400 . S
C3561 C1192 1.512 . S
C3577 C1399 1.400 . S
C3579 C1226 1.512 . S
C3595 C1260 1.512 . S
C3597 C1433 1.400 . S
C3613 C1467 1.400 . S
C3615 C1294 1.512 . S
C3631 C1328 1.512 . S
C3633 C1501 1.400 . S
C3649 C1362 1.512 . S
C3651 C821 1.400 . S
C3667 C957 1.400 . S
C3669 C1396 1.512 . S
C3685 C991 1.400 . S
C3687 C1430 1.512 . S
C3703 C1025 1.400 . S
C3705 C1464 1.512 . S
C3721 C1059 1.400 . S
C3723 C1498 1.512 . S
C3739 C889 1.400 . S
C3741 C1532 1.512 . S
C3757 C923 1.400 . S
C3759 C1566 1.512 . S
C3775 C855 1.400 . S
C3777 C1600 1.512 . S
