# Generated by pormake.
# Topology qtz-x, (6)-cn, num edge types: 1
# Building blocks:
#     Node 0, Type 0, BuildingBlock: KUMBOL_clean_sbu_1, # of connection points: 6
#     Node 1, Type 0, BuildingBlock: KUMBOL_clean_sbu_1, # of connection points: 6
#     Node 2, Type 0, BuildingBlock: KUMBOL_clean_sbu_1, # of connection points: 6
#     Edge 3, Type (0, 0), BuildingBlock: TEMPAE_clean_linker_10, # of connection points: 2
#     Edge 4, Type (0, 0), BuildingBlock: TEMPAE_clean_linker_10, # of connection points: 2
#     Edge 5, Type (0, 0), BuildingBlock: TEMPAE_clean_linker_10, # of connection points: 2
#     Edge 6, Type (0, 0), BuildingBlock: TEMPAE_clean_linker_10, # of connection points: 2
#     Edge 7, Type (0, 0), BuildingBlock: TEMPAE_clean_linker_10, # of connection points: 2
#     Edge 8, Type (0, 0), BuildingBlock: TEMPAE_clean_linker_10, # of connection points: 2
#     Edge 9, Type (0, 0), BuildingBlock: TEMPAE_clean_linker_10, # of connection points: 2
#     Edge 10, Type (0, 0), BuildingBlock: TEMPAE_clean_linker_10, # of connection points: 2
#     Edge 11, Type (0, 0), BuildingBlock: TEMPAE_clean_linker_10, # of connection points: 2
# Relax obj value: 0.199
# Max RMSD: 0.278
# Mean RMSD: 0.278
data_MOF--net-qtz-x--node1-KUMBOL_clean_sbu_1--edge1-TEMPAE_clean_linker_10
_symmetry_space_group_name_H-M    P1
_symmetry_Int_Tables_number       1
_symmetry_cell_setting            triclinic
loop_
_symmetry_equiv_pos_as_xyz
'x, y, z'
_cell_length_a     15.111924
_cell_length_b     15.142454
_cell_length_c     52.885203
_cell_angle_alpha  90.151452
_cell_angle_beta   90.261151
_cell_angle_gamma 119.95114
loop_
_atom_site_label
_atom_site_type_symbol
_atom_site_fract_x
_atom_site_fract_y
_atom_site_fract_z
_atom_type_partial_charge
C0 C 0.41691 0.69036 0.1456 0.0
C1 C 0.44362 0.86178 0.14458 0.0
C2 C 0.39061 0.76101 0.15379 0.0
C3 C 0.51545 0.88687 0.12518 0.0
C4 C 0.49334 0.71673 0.12722 0.0
C5 C 0.53982 0.81423 0.11641 0.0
N6 N 0.37271 0.59796 0.15695 0.0
C7 C 0.4069 0.53109 0.15226 0.0
C8 C 0.52323 0.64557 0.12093 0.0
C9 C 0.4807 0.55285 0.13375 0.0
Gd10 Gd 0.94877 0.42996 0.14725 0.0
Gd11 Gd 0.23396 0.55923 0.18382 0.0
N12 N 0.32186 0.73444 0.17279 0.0
C13 C 0.4276 0.93568 0.15622 0.0
C14 C 0.31653 0.80911 0.18622 0.0
C15 C 0.36609 0.90979 0.17763 0.0
H16 H 0.27222 0.791 0.20337 0.0
H17 H 0.35784 0.96752 0.18772 0.0
H18 H 0.85615 0.20736 0.17786 0.0
H19 H 0.37261 0.45852 0.16183 0.0
H20 H 0.70301 0.09126 0.20218 0.0
H21 H 0.46706 0.01399 0.14981 0.0
H22 H 0.55576 0.96338 0.11761 0.0
H23 H 0.92047 0.62806 0.13119 0.0
H24 H 0.58114 0.66265 0.10678 0.0
H25 H 0.5046 0.49807 0.12935 0.0
H26 H 0.50917 0.2636 0.20588 0.0
H27 H 0.59779 0.83555 0.10204 0.0
H28 H 0.64831 0.58986 0.16594 0.0
H29 H 0.8017 0.69202 0.13991 0.0
N30 N 0.83821 0.49463 0.15327 0.0
C31 C 0.75314 0.43609 0.16705 0.0
C32 C 0.85521 0.58448 0.14314 0.0
C33 C 0.70042 0.56184 0.16228 0.0
C34 C 0.78734 0.6201 0.14773 0.0
C35 C 0.6814 0.46776 0.17179 0.0
H36 H 0.53711 0.42762 0.18952 0.0
N37 N 0.81078 0.31812 0.17246 0.0
C38 C 0.73808 0.34433 0.17658 0.0
C39 C 0.63725 0.18867 0.19985 0.0
C40 C 0.64985 0.28084 0.19064 0.0
C41 C 0.79896 0.22841 0.18135 0.0
C42 C 0.71215 0.16241 0.19517 0.0
O43 O 0.22148 0.50153 0.14375 0.0
O44 O 0.10077 0.53634 0.12985 0.0
O45 O 0.89797 0.30754 0.11954 0.0
O46 O 0.87469 0.43586 0.11272 0.0
O47 O 0.13642 0.63499 0.18551 0.0
O48 O 0.06414 0.59708 0.14608 0.0
O49 O 0.94779 0.45525 0.18953 0.0
O50 O 0.08395 0.43647 0.19887 0.0
O51 O 0.26483 0.60578 0.22336 0.0
O52 O 0.34726 0.54195 0.20529 0.0
O53 O 0.00872 0.32003 0.15344 0.0
O54 O 0.16399 0.3905 0.17626 0.0
C55 C 0.16851 0.5091 0.12516 0.0
C56 C 0.09186 0.65372 0.16655 0.0
C57 C 0.76222 0.28241 0.09203 0.0
C58 C 0.66426 0.23347 0.05265 0.0
C59 C 0.58141 0.15829 0.09254 0.0
C60 C 0.67421 0.21582 0.10548 0.0
C61 C 0.5761 0.16719 0.06626 0.0
C62 C 0.75675 0.29085 0.06585 0.0
C63 C 0.86053 0.34887 0.10443 0.0
C64 C 0.57743 0.31139 0.19512 0.0
C65 C 0.5934 0.40484 0.18582 0.0
H66 H 0.57019 0.13741 0.21059 0.0
C67 C 0.00973 0.45056 0.20622 0.0
C68 C 0.08558 0.31472 0.16413 0.0
C69 C 0.30732 0.50418 0.24843 0.0
C70 C 0.31596 0.48671 0.29417 0.0
C71 C 0.24702 0.33717 0.26679 0.0
C72 C 0.26377 0.39828 0.24559 0.0
C73 C 0.27316 0.38088 0.29093 0.0
C74 C 0.33199 0.54759 0.27269 0.0
C75 C 0.32689 0.57085 0.22648 0.0
H76 H 0.51327 0.10711 0.1029 0.0
H77 H 0.67707 0.20916 0.12582 0.0
H78 H 0.50363 0.1221 0.0566 0.0
H79 H 0.82486 0.34473 0.05577 0.0
H80 H 0.21378 0.25561 0.26449 0.0
H81 H 0.24274 0.36287 0.22705 0.0
H82 H 0.26072 0.33197 0.30701 0.0
H83 H 0.36308 0.62908 0.27477 0.0
C84 C 0.30298 0.65239 0.49468 0.0
C85 C 0.34571 0.53825 0.47257 0.0
C86 C 0.37485 0.62659 0.48725 0.0
C87 C 0.2444 0.48049 0.4639 0.0
C88 C 0.19959 0.59035 0.48756 0.0
C89 C 0.17141 0.50648 0.4714 0.0
N90 N 0.33237 0.73179 0.51099 0.0
C91 C 0.26054 0.74604 0.523 0.0
C92 C 0.12695 0.61105 0.49804 0.0
C93 C 0.15736 0.68788 0.51625 0.0
Gd94 Gd 0.64796 0.10271 0.48027 0.0
Gd95 Gd 0.50935 0.8302 0.51945 0.0
N96 N 0.47154 0.68298 0.49628 0.0
C97 C 0.41802 0.50791 0.46816 0.0
C98 C 0.54031 0.65018 0.49355 0.0
C99 C 0.5151 0.56291 0.47917 0.0
H100 H 0.6153 0.69305 0.502 0.0
H101 H 0.57055 0.53837 0.47651 0.0
H102 H 0.44754 0.14322 0.47325 0.0
H103 H 0.28273 0.80355 0.53757 0.0
H104 H 0.38289 0.24688 0.49295 0.0
H105 H 0.39859 0.44029 0.45706 0.0
H106 H 0.2208 0.41316 0.45231 0.0
H107 H 0.89425 0.21572 0.49484 0.0
H108 H 0.04676 0.56504 0.49318 0.0
H109 H 0.10127 0.70162 0.52531 0.0
H110 H 0.65383 0.47307 0.54853 0.0
H111 H 0.09259 0.45849 0.46555 0.0
H112 H 0.96718 0.46612 0.54495 0.0
H113 H 0.02095 0.36071 0.52086 0.0
N114 N 0.7709 0.23787 0.50484 0.0
C115 C 0.74094 0.29776 0.51682 0.0
C116 C 0.87063 0.26122 0.50547 0.0
C117 C 0.91152 0.40246 0.53369 0.0
C118 C 0.94223 0.34317 0.52011 0.0
C119 C 0.81018 0.38107 0.53187 0.0
H120 H 0.82884 0.50609 0.55565 0.0
N121 N 0.58059 0.20231 0.49663 0.0
C122 C 0.64226 0.27857 0.51285 0.0
C123 C 0.51417 0.32864 0.51724 0.0
C124 C 0.6104 0.3432 0.52377 0.0
C125 C 0.49102 0.19456 0.48844 0.0
C126 C 0.45511 0.25527 0.49912 0.0
O127 O 0.56229 0.83452 0.47932 0.0
O128 O 0.53819 0.95669 0.45983 0.0
O129 O 0.65644 0.20798 0.45149 0.0
O130 O 0.75626 0.14471 0.44924 0.0
O131 O 0.67859 0.89539 0.51265 0.0
O132 O 0.7427 0.02583 0.48221 0.0
O133 O 0.69172 0.09129 0.52076 0.0
O134 O 0.53461 0.97844 0.53535 0.0
O135 O 0.59076 0.83639 0.55425 0.0
O136 O 0.43971 0.71022 0.54723 0.0
O137 O 0.47595 1.00177 0.47748 0.0
O138 O 0.44002 0.932 0.51713 0.0
C139 C 0.53532 0.86839 0.45964 0.0
C140 C 0.75053 0.9602 0.49721 0.0
C141 C 0.81249 0.3066 0.43053 0.0
C142 C 0.90147 0.4159 0.39455 0.0
C143 C 0.93384 0.4859 0.43731 0.0
C144 C 0.86331 0.39043 0.44691 0.0
C145 C 0.95257 0.49896 0.41133 0.0
C146 C 0.83318 0.31934 0.40459 0.0
C147 C 0.73055 0.2073 0.43937 0.0
C148 C 0.67731 0.42322 0.53983 0.0
C149 C 0.77705 0.44218 0.54385 0.0
H150 H 0.487 0.37682 0.52514 0.0
C151 C 0.6275 0.05291 0.53956 0.0
C152 C 0.41171 0.95657 0.49607 0.0
C153 C 0.48066 0.76703 0.5892 0.0
C154 C 0.49472 0.76141 0.63508 0.0
C155 C 0.36646 0.7934 0.61627 0.0
C156 C 0.40041 0.78762 0.59219 0.0
C157 C 0.41334 0.78066 0.63761 0.0
C158 C 0.52778 0.754 0.6107 0.0
C159 C 0.51288 0.75621 0.5637 0.0
H160 H 0.97232 0.55068 0.44996 0.0
H161 H 0.84703 0.38282 0.46692 0.0
H162 H 1.00475 0.57464 0.40441 0.0
H163 H 0.79404 0.25368 0.39218 0.0
H164 H 0.30398 0.80844 0.6184 0.0
H165 H 0.36358 0.79869 0.57591 0.0
H166 H 0.38545 0.7851 0.65614 0.0
H167 H 0.58991 0.73829 0.60848 0.0
C168 C 0.73674 0.84236 0.83511 0.0
C169 C 0.57445 0.79399 0.81476 0.0
C170 C 0.63841 0.76844 0.82864 0.0
C171 C 0.61254 0.89475 0.80669 0.0
C172 C 0.77395 0.94457 0.82795 0.0
C173 C 0.71181 0.97 0.81343 0.0
N174 N 0.79246 0.81597 0.8503 0.0
C175 C 0.88155 0.88983 0.86094 0.0
C176 C 0.87044 0.01886 0.83666 0.0
C177 C 0.92347 0.99167 0.85369 0.0
Gd178 Gd 0.85411 0.50406 0.81756 0.0
Gd179 Gd 0.7186 0.64132 0.86009 0.0
N180 N 0.60295 0.6727 0.83744 0.0
C181 C 0.47277 0.71853 0.81046 0.0
C182 C 0.50217 0.60061 0.83474 0.0
C183 C 0.43608 0.62177 0.82083 0.0
H184 H 0.47359 0.52639 0.843 0.0
H185 H 0.35685 0.56373 0.81826 0.0
H186 H 0.08645 0.70438 0.80482 0.0
H187 H 0.92064 0.87068 0.87515 0.0
H188 H 0.26365 0.77751 0.82017 0.0
H189 H 0.42118 0.73514 0.79991 0.0
H190 H 0.56461 0.91601 0.79606 0.0
H191 H 0.73662 0.25721 0.8329 0.0
H192 H 0.90261 0.09788 0.83122 0.0
H193 H 0.99572 0.04931 0.86159 0.0
H194 H 0.25214 0.52246 0.87576 0.0
H195 H 0.73802 0.04831 0.80829 0.0
H196 H 0.9375 0.20544 0.88 0.0
H197 H 0.76942 0.141 0.85904 0.0
N198 N 0.88177 0.38674 0.84051 0.0
C199 C 0.9759 0.42237 0.85085 0.0
C200 C 0.80954 0.28573 0.84228 0.0
C201 C 0.9228 0.25688 0.86891 0.0
C202 C 0.82797 0.22007 0.85703 0.0
C203 C 0.99905 0.35844 0.86539 0.0
H204 H 0.11762 0.34879 0.88631 0.0
N205 N 0.02737 0.57689 0.82955 0.0
C206 C 0.05109 0.5208 0.84526 0.0
C207 C 0.22867 0.65296 0.84537 0.0
C208 C 0.15231 0.55754 0.85374 0.0
C209 C 0.10333 0.66518 0.81944 0.0
C210 C 0.20436 0.70605 0.82773 0.0
O211 O 0.67117 0.59649 0.81921 0.0
O212 O 0.82213 0.62464 0.80257 0.0
O213 O 0.93882 0.48245 0.78746 0.0
O214 O 0.77631 0.41864 0.78353 0.0
O215 O 0.61379 0.47399 0.8516 0.0
O216 O 0.68332 0.40461 0.82305 0.0
O217 O 0.79251 0.44352 0.85641 0.0
O218 O 0.82999 0.59465 0.87303 0.0
O219 O 0.61996 0.55687 0.89151 0.0
O220 O 0.70482 0.72083 0.89267 0.0
O221 O 0.92224 0.67588 0.81954 0.0
O222 O 0.89061 0.70588 0.86024 0.0
C223 C 0.73003 0.61122 0.79965 0.0
C224 C 0.6081 0.40023 0.83689 0.0
C225 C 0.85076 0.33552 0.7619 0.0
C226 C 0.81928 0.23067 0.72374 0.0
C227 C 0.84993 0.17595 0.76477 0.0
C228 C 0.86153 0.26398 0.77624 0.0
C229 C 0.82639 0.15791 0.73906 0.0
C230 C 0.83314 0.32043 0.73577 0.0
C231 C 0.85873 0.42745 0.77355 0.0
C232 C 0.17493 0.4958 0.86915 0.0
C233 C 0.09836 0.3966 0.87505 0.0
H234 H 0.30728 0.68399 0.85141 0.0
C235 C 0.79905 0.49839 0.87613 0.0
C236 C 0.9488 0.733 0.84005 0.0
C237 C 0.54586 0.63999 0.91314 0.0
C238 C 0.42505 0.60747 0.9471 0.0
C239 C 0.40845 0.67731 0.90725 0.0
C240 C 0.49462 0.67679 0.89808 0.0
C241 C 0.37301 0.64183 0.93153 0.0
C242 C 0.51148 0.60639 0.93777 0.0
C243 C 0.63639 0.63842 0.90367 0.0
H244 H 0.85889 0.12091 0.77583 0.0
H245 H 0.87955 0.27633 0.79617 0.0
H246 H 0.81393 0.0862 0.73166 0.0
H247 H 0.83192 0.3807 0.7252 0.0
H248 H 0.36958 0.70626 0.89563 0.0
H249 H 0.52182 0.70638 0.87942 0.0
H250 H 0.3068 0.64412 0.93844 0.0
H251 H 0.55198 0.57983 0.94969 0.0
C252 C 0.0656 0.78462 0.18833 0.0
C253 C 0.08909 0.74923 0.16635 0.0
C254 C 0.06024 0.87447 0.18799 0.0
C255 C 0.08104 0.93059 0.16527 0.0
C256 C 0.10596 0.89534 0.14311 0.0
C257 C 0.10901 0.80454 0.14389 0.0
C258 C 0.03245 0.9094 0.21191 0.0
C259 C 0.13102 0.95433 0.11869 0.0
C260 C 0.9944 0.1251 0.15715 0.0
C261 C 0.08347 0.21588 0.16373 0.0
C262 C 0.99184 0.03114 0.15794 0.0
C263 C 0.08116 0.02855 0.16486 0.0
C264 C 0.1718 0.12 0.17096 0.0
C265 C 0.17158 0.21226 0.17053 0.0
C266 C 0.89364 0.93468 0.15145 0.0
C267 C 0.26927 0.1206 0.1779 0.0
H268 H 0.04987 0.74114 0.20563 0.0
H269 H 0.1283 0.77731 0.12697 0.0
H270 H 0.09672 0.98454 0.21791 0.0
H271 H 0.96554 0.91938 0.20837 0.0
H272 H 0.01412 0.85466 0.22766 0.0
H273 H 0.14744 0.91547 0.10308 0.0
H274 H 0.06649 0.96514 0.11285 0.0
H275 H 0.19863 0.0312 0.12151 0.0
H276 H 0.92621 0.12699 0.15168 0.0
H277 H 0.24122 0.28182 0.17543 0.0
H278 H 0.87163 0.87946 0.1672 0.0
H279 H 0.90482 0.89815 0.1345 0.0
H280 H 0.82964 0.94917 0.14763 0.0
H281 H 0.25748 0.075 0.19523 0.0
H282 H 0.33407 0.19887 0.1813 0.0
H283 H 0.29071 0.08482 0.16257 0.0
C284 C 0.24983 0.9132 0.47406 0.0
C285 C 0.31335 0.95291 0.49526 0.0
C286 C 0.15474 0.90821 0.47337 0.0
C287 C 0.12541 0.94739 0.49404 0.0
C288 C 0.19047 0.98862 0.51537 0.0
C289 C 0.28322 0.98925 0.5159 0.0
C290 C 0.08566 0.86072 0.4507 0.0
C291 C 0.16289 0.03344 0.53746 0.0
C292 C 0.93185 0.03268 0.48361 0.0
C293 C 0.84539 0.95484 0.49555 0.0
C294 C 0.02344 0.03076 0.48276 0.0
C295 C 0.0275 0.94717 0.49334 0.0
C296 C 0.9397 0.8664 0.50456 0.0
C297 C 0.85016 0.8721 0.50593 0.0
C298 C 0.1166 0.11956 0.47121 0.0
C299 C 0.9408 0.77478 0.51545 0.0
H300 H 0.27373 0.88421 0.4583 0.0
H301 H 0.33359 0.02053 0.53217 0.0
H302 H 0.07138 0.91786 0.4413 0.0
H303 H 0.11861 0.83066 0.43666 0.0
H304 H 0.01061 0.79731 0.45685 0.0
H305 H 0.22323 0.06429 0.55234 0.0
H306 H 0.15034 0.09583 0.53083 0.0
H307 H 0.09054 0.97451 0.54604 0.0
H308 H 0.92893 0.09646 0.47531 0.0
H309 H 0.78399 0.81142 0.51516 0.0
H310 H 0.14679 0.0924 0.45581 0.0
H311 H 0.17783 0.15633 0.48572 0.0
H312 H 0.10012 0.178 0.46344 0.0
H313 H 0.96945 0.7413 0.50121 0.0
H314 H 0.86388 0.7148 0.52166 0.0
H315 H 0.99354 0.79847 0.53193 0.0
C316 C 0.10919 0.86221 0.86097 0.0
C317 C 0.04415 0.83094 0.83991 0.0
C318 C 0.20221 0.95424 0.86063 0.0
C319 C 0.22838 0.01699 0.83897 0.0
C320 C 0.16154 0.98618 0.81784 0.0
C321 C 0.07062 0.89243 0.81844 0.0
C322 C 0.27286 0.98382 0.88325 0.0
C323 C 0.18584 0.05234 0.7947 0.0
C324 C 0.42271 0.29648 0.84762 0.0
C325 C 0.51038 0.30237 0.83695 0.0
C326 C 0.32995 0.20435 0.84804 0.0
C327 C 0.32566 0.11512 0.83839 0.0
C328 C 0.41397 0.11973 0.82801 0.0
C329 C 0.50485 0.21369 0.82702 0.0
C330 C 0.23637 0.20275 0.85859 0.0
C331 C 0.4128 0.02527 0.81825 0.0
H332 H 0.08829 0.81348 0.87744 0.0
H333 H 0.0192 0.8678 0.80227 0.0
H334 H 0.34838 0.99559 0.87737 0.0
H335 H 0.28563 0.05699 0.89133 0.0
H336 H 0.24212 0.9251 0.8983 0.0
H337 H 0.1241 0.01834 0.78021 0.0
H338 H 0.19779 0.12839 0.80012 0.0
H339 H 0.25779 0.06437 0.78608 0.0
H340 H 0.42598 0.36384 0.85562 0.0
H341 H 0.57186 0.21697 0.81879 0.0
H342 H 0.20487 0.14806 0.87445 0.0
H343 H 0.17614 0.1765 0.84377 0.0
H344 H 0.25281 0.27892 0.86546 0.0
H345 H 0.39095 0.96876 0.83368 0.0
H346 H 0.4882 0.04194 0.8108 0.0
H347 H 0.35485 0.98916 0.80299 0.0
C348 C 0.29129 0.50362 0.97872 0.0
C349 C 0.39191 0.57873 0.97351 0.0
C350 C 0.25574 0.48331 0.00368 0.0
C351 C 0.32181 0.54169 0.02373 0.0
C352 C 0.42445 0.61579 0.01857 0.0
C353 C 0.45864 0.63256 0.99347 0.0
C354 C 0.14651 0.40202 0.00848 0.0
C355 C 0.49642 0.68134 0.03937 0.0
C356 C 0.19601 0.57877 0.08151 0.0
C357 C 0.20569 0.51528 0.09916 0.0
C358 C 0.2345 0.58866 0.05699 0.0
C359 C 0.28126 0.5315 0.04977 0.0
C360 C 0.28977 0.46594 0.06743 0.0
C361 C 0.25293 0.4596 0.09208 0.0
C362 C 0.22644 0.66155 0.03895 0.0
C363 C 0.33714 0.40219 0.06026 0.0
H364 H 0.24004 0.4619 0.96319 0.0
H365 H 0.53619 0.69133 0.98931 0.0
H366 H 0.14331 0.35065 0.02382 0.0
H367 H 0.10192 0.43803 0.01478 0.0
H368 H 0.10909 0.35557 0.9913 0.0
H369 H 0.57533 0.73126 0.03241 0.0
H370 H 0.46834 0.73014 0.04768 0.0
H371 H 0.49885 0.63317 0.05481 0.0
H372 H 0.1605 0.62278 0.08705 0.0
H373 H 0.25988 0.41009 0.10574 0.0
H374 H 0.18025 0.61946 0.02215 0.0
H375 H 0.30352 0.71843 0.03214 0.0
H376 H 0.19085 0.70276 0.04781 0.0
H377 H 0.29655 0.35369 0.04362 0.0
H378 H 0.33468 0.35242 0.07596 0.0
H379 H 0.41791 0.45225 0.05475 0.0
C380 C 0.01121 0.49857 0.35633 0.0
C381 C 0.9157 0.42972 0.36663 0.0
C382 C 0.02519 0.50931 0.33003 0.0
C383 C 0.94234 0.4483 0.31362 0.0
C384 C 0.84548 0.38031 0.32382 0.0
C385 C 0.83301 0.37307 0.35011 0.0
C386 C 0.12871 0.58528 0.31976 0.0
C387 C 0.75564 0.31257 0.30696 0.0
C388 C 0.95292 0.50978 0.24357 0.0
C389 C 0.98864 0.44802 0.23341 0.0
C390 C 0.93937 0.51256 0.26978 0.0
C391 C 0.95866 0.44933 0.28589 0.0
C392 C 0.99223 0.38493 0.2755 0.0
C393 C 0.00861 0.38647 0.24942 0.0
C394 C 0.90593 0.58401 0.28024 0.0
C395 C 0.01035 0.31399 0.29192 0.0
H396 H 0.07573 0.54273 0.36877 0.0
H397 H 0.75801 0.32219 0.35771 0.0
H398 H 0.15625 0.54698 0.30669 0.0
H399 H 0.1224 0.644 0.30867 0.0
H400 H 0.18654 0.62395 0.33495 0.0
H401 H 0.68464 0.26576 0.31786 0.0
H402 H 0.74137 0.35916 0.29317 0.0
H403 H 0.77304 0.26063 0.29596 0.0
H404 H 0.93861 0.55812 0.23111 0.0
H405 H 0.03569 0.33823 0.24148 0.0
H406 H 0.96273 0.63634 0.29433 0.0
H407 H 0.83214 0.54012 0.2902 0.0
H408 H 0.89698 0.63023 0.26523 0.0
H409 H 0.072 0.35888 0.30582 0.0
H410 H 0.03181 0.26544 0.28074 0.0
H411 H 0.94046 0.26366 0.3028 0.0
C412 C 0.77394 0.68799 0.7565 0.0
C413 C 0.69997 0.63357 0.77489 0.0
C414 C 0.74676 0.71235 0.73321 0.0
C415 C 0.64307 0.6807 0.72813 0.0
C416 C 0.56802 0.62511 0.74656 0.0
C417 C 0.59742 0.60208 0.76969 0.0
C418 C 0.82907 0.77286 0.71416 0.0
C419 C 0.45659 0.58987 0.74187 0.0
C420 C 0.57059 0.81408 0.67839 0.0
C421 C 0.54179 0.74564 0.65799 0.0
C422 C 0.60664 0.79544 0.7011 0.0
C423 C 0.61275 0.70554 0.70354 0.0
C424 C 0.58637 0.63755 0.68275 0.0
C425 C 0.55174 0.6588 0.66014 0.0
C426 C 0.63563 0.87061 0.72268 0.0
C427 C 0.59131 0.54061 0.68468 0.0
H428 H 0.85352 0.71302 0.76042 0.0
H429 H 0.5398 0.55847 0.78363 0.0
H430 H 0.81315 0.72889 0.69627 0.0
H431 H 0.82944 0.84457 0.70964 0.0
H432 H 0.90625 0.79228 0.72109 0.0
H433 H 0.40776 0.54652 0.75807 0.0
H434 H 0.44655 0.65653 0.73834 0.0
H435 H 0.42938 0.54079 0.72472 0.0
H436 H 0.56399 0.88188 0.67663 0.0
H437 H 0.52867 0.60545 0.64445 0.0
H438 H 0.71307 0.89264 0.72987 0.0
H439 H 0.5818 0.83464 0.73857 0.0
H440 H 0.6344 0.94061 0.71703 0.0
H441 H 0.66878 0.55811 0.69075 0.0
H442 H 0.57237 0.49806 0.66647 0.0
H443 H 0.53697 0.49042 0.69925 0.0
C444 C 0.70041 0.34354 0.9028 0.0
C445 C 0.76082 0.44981 0.90091 0.0
C446 C 0.66791 0.29654 0.92644 0.0
C447 C 0.6983 0.35727 0.94865 0.0
C448 C 0.75633 0.46482 0.94672 0.0
C449 C 0.78631 0.50978 0.92285 0.0
C450 C 0.60391 0.18188 0.92765 0.0
C451 C 0.79081 0.53237 0.96995 0.0
C452 C 0.58619 0.26315 0.01383 0.0
C453 C 0.66177 0.24751 0.02491 0.0
C454 C 0.59363 0.29342 0.98844 0.0
C455 C 0.67904 0.3091 0.97401 0.0
C456 C 0.75218 0.28759 0.98471 0.0
C457 C 0.74204 0.25616 0.00992 0.0
C458 C 0.51319 0.31393 0.97751 0.0
C459 C 0.84478 0.30387 0.97008 0.0
H460 H 0.679 0.29688 0.88583 0.0
H461 H 0.83252 0.59198 0.92144 0.0
H462 H 0.65055 0.15025 0.93542 0.0
H463 H 0.53819 0.15889 0.9405 0.0
H464 H 0.57456 0.14716 0.90873 0.0
H465 H 0.8309 0.61468 0.96513 0.0
H466 H 0.72438 0.51552 0.982 0.0
H467 H 0.84331 0.51681 0.98135 0.0
H468 H 0.52413 0.25687 0.02533 0.0
H469 H 0.79954 0.24215 0.01827 0.0
H470 H 0.48949 0.27937 0.95839 0.0
H471 H 0.54512 0.39729 0.97548 0.0
H472 H 0.44459 0.28373 0.98972 0.0
H473 H 0.82122 0.26243 0.95176 0.0
H474 H 0.89136 0.27807 0.98068 0.0
H475 H 0.89371 0.38612 0.96581 0.0
C476 C 0.4351 0.62832 0.32297 0.0
C477 C 0.34503 0.53445 0.31973 0.0
C478 C 0.46197 0.67741 0.34654 0.0
C479 C 0.39784 0.63115 0.36756 0.0
C480 C 0.30763 0.53557 0.36465 0.0
C481 C 0.28241 0.48812 0.34075 0.0
C482 C 0.55853 0.7797 0.34885 0.0
C483 C 0.23784 0.48362 0.38672 0.0
C484 C 0.52739 0.73318 0.43102 0.0
C485 C 0.49633 0.80387 0.43679 0.0
C486 C 0.4918 0.67252 0.40915 0.0
C487 C 0.42539 0.6847 0.39239 0.0
C488 C 0.39255 0.75499 0.39834 0.0
C489 C 0.42824 0.81354 0.42053 0.0
C490 C 0.5275 0.5975 0.40362 0.0
C491 C 0.32111 0.76962 0.38106 0.0
H492 H 0.48513 0.66363 0.30701 0.0
H493 H 0.2123 0.41598 0.33842 0.0
H494 H 0.5397 0.8381 0.35535 0.0
H495 H 0.6103 0.77595 0.3632 0.0
H496 H 0.60015 0.80517 0.33067 0.0
H497 H 0.16624 0.414 0.38086 0.0
H498 H 0.27798 0.46194 0.40086 0.0
H499 H 0.21764 0.53636 0.3963 0.0
H500 H 0.58166 0.72714 0.44328 0.0
H501 H 0.40312 0.86738 0.42509 0.0
H502 H 0.57364 0.61986 0.3861 0.0
H503 H 0.46082 0.52042 0.40034 0.0
H504 H 0.5744 0.59315 0.41928 0.0
H505 H 0.3539 0.79036 0.36181 0.0
H506 H 0.30555 0.82979 0.38804 0.0
H507 H 0.24749 0.69718 0.37939 0.0
C508 C 0.76561 0.27144 0.68156 0.0
C509 C 0.79762 0.21317 0.69567 0.0
C510 C 0.74734 0.25721 0.65542 0.0
C511 C 0.75281 0.17725 0.64311 0.0
C512 C 0.78239 0.11638 0.65693 0.0
C513 C 0.80817 0.13752 0.68262 0.0
C514 C 0.71981 0.32659 0.64112 0.0
C515 C 0.78497 0.02734 0.6447 0.0
C516 C 0.5873 0.05664 0.5851 0.0
C517 C 0.65994 0.08982 0.56575 0.0
C518 C 0.61644 0.08693 0.61024 0.0
C519 C 0.72074 0.15235 0.61621 0.0
C520 C 0.79402 0.18966 0.59665 0.0
C521 C 0.76285 0.15697 0.57166 0.0
C522 C 0.53592 0.04647 0.63054 0.0
C523 C 0.90532 0.26336 0.60213 0.0
H524 H 0.75282 0.32801 0.69059 0.0
H525 H 0.83607 0.09323 0.69215 0.0
H526 H 0.7619 0.35081 0.623 0.0
H527 H 0.6371 0.28531 0.63651 0.0
H528 H 0.73705 0.39574 0.65226 0.0
H529 H 0.80233 0.98273 0.65849 0.0
H530 H 0.71019 0.97541 0.6356 0.0
H531 H 0.84355 0.05512 0.62966 0.0
H532 H 0.50736 0.00606 0.58065 0.0
H533 H 0.81942 0.18284 0.55686 0.0
H534 H 0.54189 0.10925 0.64255 0.0
H535 H 0.54822 0.9949 0.64306 0.0
H536 H 0.45743 0.00471 0.62254 0.0
H537 H 0.95029 0.29413 0.58455 0.0
H538 H 0.93857 0.22452 0.6131 0.0
H539 H 0.91335 0.32798 0.61382 0.0
loop_
_geom_bond_atom_site_label_1
_geom_bond_atom_site_label_2
_geom_bond_distance
_geom_bond_site_symmetry_2
_ccdc_geom_bond_type
C0 C2 1.422 . S
C0 C4 1.415 . S
C0 N6 1.369 . S
C1 C2 1.421 . S
C1 C3 1.417 . S
C1 C13 1.422 . S
C2 C0 1.422 . S
C2 C1 1.421 . S
C2 N12 1.359 . S
C3 C1 1.417 . S
C3 C5 1.329 . S
C3 H22 0.930 . S
C4 C0 1.415 . S
C4 C5 1.437 . S
C4 C8 1.413 . S
C5 C3 1.329 . S
C5 C4 1.437 . S
C5 H27 0.929 . S
N6 C0 1.369 . S
N6 C7 1.338 . S
N6 Gd11 2.622 . S
C7 N6 1.338 . S
C7 C9 1.378 . S
C7 H19 0.929 . S
C8 C4 1.413 . S
C8 C9 1.348 . S
C8 H24 0.931 . S
C9 C7 1.378 . S
C9 C8 1.348 . S
C9 H25 0.930 . S
Gd10 N30 2.622 . S
Gd10 N37 2.570 . S
Gd10 O44 2.353 1_655 S
Gd10 O45 2.468 . S
Gd10 O46 2.427 . S
Gd10 O48 2.388 . S
Gd10 O49 2.386 . S
Gd10 O53 2.307 . S
Gd10 C63 2.805 . S
Gd11 N6 2.622 . S
Gd11 N12 2.570 . S
Gd11 O43 2.386 . S
Gd11 O47 2.307 . S
Gd11 O50 2.353 1_455 S
Gd11 O51 2.468 . S
Gd11 O52 2.427 . S
Gd11 O54 2.388 . S
Gd11 C75 2.805 . S
N12 C2 1.359 . S
N12 Gd11 2.570 . S
N12 C14 1.343 . S
C13 C1 1.422 . S
C13 C15 1.321 . S
C13 H21 0.931 . S
C14 N12 1.343 . S
C14 C15 1.390 . S
C14 H16 0.931 . S
C15 C13 1.321 . S
C15 C14 1.390 . S
C15 H17 0.930 . S
H16 C14 0.931 . S
H17 C15 0.930 . S
H18 C41 0.931 . S
H19 C7 0.929 . S
H20 C42 0.930 . S
H21 C13 0.931 . S
H22 C3 0.930 . S
H23 C32 0.929 . S
H24 C8 0.931 . S
H25 C9 0.930 . S
H26 C64 0.930 . S
H27 C5 0.929 . S
H28 C33 0.931 . S
H29 C34 0.930 . S
N30 Gd10 2.622 . S
N30 C31 1.369 . S
N30 C32 1.338 . S
C31 N30 1.369 . S
C31 C35 1.415 . S
C31 C38 1.422 . S
C32 H23 0.929 . S
C32 N30 1.338 . S
C32 C34 1.378 . S
C33 H28 0.931 . S
C33 C34 1.348 . S
C33 C35 1.413 . S
C34 H29 0.930 . S
C34 C32 1.378 . S
C34 C33 1.348 . S
C35 C31 1.415 . S
C35 C33 1.413 . S
C35 C65 1.437 . S
H36 C65 0.929 . S
N37 Gd10 2.570 . S
N37 C38 1.359 . S
N37 C41 1.343 . S
C38 C31 1.422 . S
C38 N37 1.359 . S
C38 C40 1.421 . S
C39 C40 1.422 . S
C39 C42 1.321 . S
C39 H66 0.931 . S
C40 C38 1.421 . S
C40 C39 1.422 . S
C40 C64 1.417 . S
C41 H18 0.931 . S
C41 N37 1.343 . S
C41 C42 1.390 . S
C42 H20 0.930 . S
C42 C39 1.321 . S
C42 C41 1.390 . S
O43 Gd11 2.386 . S
O43 C55 1.265 . S
O44 Gd10 2.353 1_455 S
O44 C55 1.242 . S
O45 Gd10 2.468 . S
O45 C63 1.263 . S
O46 Gd10 2.427 . S
O46 C63 1.252 . S
O47 Gd11 2.307 . S
O47 C56 1.261 . S
O48 Gd10 2.388 . S
O48 C56 1.252 1_655 S
O49 Gd10 2.386 . S
O49 C67 1.265 . S
O50 Gd11 2.353 1_655 S
O50 C67 1.242 . S
O51 Gd11 2.468 . S
O51 C75 1.263 . S
O52 Gd11 2.427 . S
O52 C75 1.252 . S
O53 Gd10 2.307 . S
O53 C68 1.261 . S
O54 Gd11 2.388 . S
O54 C68 1.252 1_455 S
C55 O43 1.265 . S
C55 O44 1.242 . S
C56 O47 1.261 . S
C56 O48 1.252 1_455 S
C57 C60 1.394 . S
C57 C62 1.370 . S
C57 C63 1.500 . S
C58 C61 1.383 . S
C58 C62 1.395 . S
C59 C60 1.396 . S
C59 C61 1.365 . S
C59 H76 0.929 . S
C60 C57 1.394 . S
C60 C59 1.396 . S
C60 H77 0.930 . S
C61 C58 1.383 . S
C61 C59 1.365 . S
C61 H78 0.931 . S
C62 C57 1.370 . S
C62 C58 1.395 . S
C62 H79 0.930 . S
C63 Gd10 2.805 . S
C63 O45 1.263 . S
C63 O46 1.252 . S
C63 C57 1.500 . S
C64 H26 0.930 . S
C64 C40 1.417 . S
C64 C65 1.329 . S
C65 C35 1.437 . S
C65 H36 0.929 . S
C65 C64 1.329 . S
H66 C39 0.931 . S
C67 O49 1.265 . S
C67 O50 1.242 . S
C68 O53 1.261 . S
C68 O54 1.252 1_655 S
C69 C72 1.394 . S
C69 C74 1.370 . S
C69 C75 1.500 . S
C70 C73 1.383 . S
C70 C74 1.395 . S
C71 C72 1.396 . S
C71 C73 1.365 . S
C71 H80 0.929 . S
C72 C69 1.394 . S
C72 C71 1.396 . S
C72 H81 0.930 . S
C73 C70 1.383 . S
C73 C71 1.365 . S
C73 H82 0.931 . S
C74 C69 1.370 . S
C74 C70 1.395 . S
C74 H83 0.930 . S
C75 Gd11 2.805 . S
C75 O51 1.263 . S
C75 O52 1.252 . S
C75 C69 1.500 . S
H76 C59 0.929 . S
H77 C60 0.930 . S
H78 C61 0.931 . S
H79 C62 0.930 . S
H80 C71 0.929 . S
H81 C72 0.930 . S
H82 C73 0.931 . S
H83 C74 0.930 . S
C84 C86 1.422 . S
C84 C88 1.415 . S
C84 N90 1.369 . S
C85 C86 1.421 . S
C85 C87 1.417 . S
C85 C97 1.422 . S
C86 C84 1.422 . S
C86 C85 1.421 . S
C86 N96 1.359 . S
C87 C85 1.417 . S
C87 C89 1.329 . S
C87 H106 0.930 . S
C88 C84 1.415 . S
C88 C89 1.437 . S
C88 C92 1.413 . S
C89 C87 1.329 . S
C89 C88 1.437 . S
C89 H111 0.929 . S
N90 C84 1.369 . S
N90 C91 1.338 . S
N90 Gd95 2.622 . S
C91 N90 1.338 . S
C91 C93 1.378 . S
C91 H103 0.929 . S
C92 C88 1.413 . S
C92 C93 1.348 . S
C92 H108 0.931 . S
C93 C91 1.378 . S
C93 C92 1.348 . S
C93 H109 0.930 . S
Gd94 N114 2.622 . S
Gd94 N121 2.570 . S
Gd94 O128 2.353 . S
Gd94 O129 2.468 . S
Gd94 O130 2.427 . S
Gd94 O132 2.388 . S
Gd94 O133 2.386 . S
Gd94 O137 2.307 . S
Gd94 C147 2.805 . S
Gd95 N90 2.622 . S
Gd95 N96 2.570 . S
Gd95 O127 2.386 . S
Gd95 O131 2.307 1_565 S
Gd95 O134 2.353 1_565 S
Gd95 O135 2.468 . S
Gd95 O136 2.427 . S
Gd95 O138 2.388 1_565 S
Gd95 C159 2.805 . S
N96 C86 1.359 . S
N96 Gd95 2.570 . S
N96 C98 1.343 . S
C97 C85 1.422 . S
C97 C99 1.321 . S
C97 H105 0.931 . S
C98 N96 1.343 . S
C98 C99 1.390 . S
C98 H100 0.931 . S
C99 C97 1.321 . S
C99 C98 1.390 . S
C99 H101 0.930 . S
H100 C98 0.931 . S
H101 C99 0.930 . S
H102 C125 0.931 . S
H103 C91 0.929 . S
H104 C126 0.930 . S
H105 C97 0.931 . S
H106 C87 0.930 . S
H107 C116 0.929 . S
H108 C92 0.931 . S
H109 C93 0.930 . S
H110 C148 0.930 . S
H111 C89 0.929 . S
H112 C117 0.931 . S
H113 C118 0.930 . S
N114 Gd94 2.622 . S
N114 C115 1.369 . S
N114 C116 1.338 1_655 S
C115 N114 1.369 . S
C115 C119 1.415 1_655 S
C115 C122 1.422 . S
C116 H107 0.929 . S
C116 N114 1.338 1_455 S
C116 C118 1.378 . S
C117 H112 0.931 . S
C117 C118 1.348 . S
C117 C119 1.413 . S
C118 H113 0.930 . S
C118 C116 1.378 . S
C118 C117 1.348 . S
C119 C115 1.415 1_455 S
C119 C117 1.413 . S
C119 C149 1.437 . S
H120 C149 0.929 . S
N121 Gd94 2.570 . S
N121 C122 1.359 . S
N121 C125 1.343 . S
C122 C115 1.422 . S
C122 N121 1.359 . S
C122 C124 1.421 . S
C123 C124 1.422 . S
C123 C126 1.321 . S
C123 H150 0.931 . S
C124 C122 1.421 . S
C124 C123 1.422 . S
C124 C148 1.417 1_655 S
C125 H102 0.931 . S
C125 N121 1.343 . S
C125 C126 1.390 . S
C126 H104 0.930 . S
C126 C123 1.321 . S
C126 C125 1.390 . S
O127 Gd95 2.386 . S
O127 C139 1.265 1_565 S
O128 Gd94 2.353 . S
O128 C139 1.242 . S
O129 Gd94 2.468 . S
O129 C147 1.263 . S
O130 Gd94 2.427 . S
O130 C147 1.252 . S
O131 Gd95 2.307 1_545 S
O131 C140 1.261 . S
O132 Gd94 2.388 . S
O132 C140 1.252 . S
O133 Gd94 2.386 . S
O133 C151 1.265 . S
O134 Gd95 2.353 1_545 S
O134 C151 1.242 . S
O135 Gd95 2.468 . S
O135 C159 1.263 . S
O136 Gd95 2.427 . S
O136 C159 1.252 . S
O137 Gd94 2.307 . S
O137 C152 1.261 . S
O138 Gd95 2.388 1_545 S
O138 C152 1.252 . S
C139 O127 1.265 1_545 S
C139 O128 1.242 . S
C140 O131 1.261 . S
C140 O132 1.252 . S
C141 C144 1.394 . S
C141 C146 1.370 . S
C141 C147 1.500 . S
C142 C145 1.383 . S
C142 C146 1.395 . S
C143 C144 1.396 . S
C143 C145 1.365 . S
C143 H160 0.929 . S
C144 C141 1.394 . S
C144 C143 1.396 . S
C144 H161 0.930 . S
C145 C142 1.383 . S
C145 C143 1.365 . S
C145 H162 0.931 . S
C146 C141 1.370 . S
C146 C142 1.395 . S
C146 H163 0.930 . S
C147 Gd94 2.805 . S
C147 O129 1.263 . S
C147 O130 1.252 . S
C147 C141 1.500 . S
C148 H110 0.930 . S
C148 C124 1.417 1_455 S
C148 C149 1.329 . S
C149 C119 1.437 . S
C149 H120 0.929 . S
C149 C148 1.329 . S
H150 C123 0.931 . S
C151 O133 1.265 . S
C151 O134 1.242 . S
C152 O137 1.261 . S
C152 O138 1.252 . S
C153 C156 1.394 . S
C153 C158 1.370 . S
C153 C159 1.500 . S
C154 C157 1.383 . S
C154 C158 1.395 . S
C155 C156 1.396 . S
C155 C157 1.365 . S
C155 H164 0.929 . S
C156 C153 1.394 . S
C156 C155 1.396 . S
C156 H165 0.930 . S
C157 C154 1.383 . S
C157 C155 1.365 . S
C157 H166 0.931 . S
C158 C153 1.370 . S
C158 C154 1.395 . S
C158 H167 0.930 . S
C159 Gd95 2.805 . S
C159 O135 1.263 . S
C159 O136 1.252 . S
C159 C153 1.500 . S
H160 C143 0.929 . S
H161 C144 0.930 . S
H162 C145 0.931 . S
H163 C146 0.930 . S
H164 C155 0.929 . S
H165 C156 0.930 . S
H166 C157 0.931 . S
H167 C158 0.930 . S
C168 C170 1.422 . S
C168 C172 1.415 . S
C168 N174 1.369 . S
C169 C170 1.421 . S
C169 C171 1.417 . S
C169 C181 1.422 . S
C170 C168 1.422 . S
C170 C169 1.421 . S
C170 N180 1.359 . S
C171 C169 1.417 . S
C171 C173 1.329 . S
C171 H190 0.930 . S
C172 C168 1.415 . S
C172 C173 1.437 . S
C172 C176 1.413 . S
C173 C171 1.329 . S
C173 C172 1.437 . S
C173 H195 0.929 . S
N174 C168 1.369 . S
N174 C175 1.338 . S
N174 Gd179 2.622 . S
C175 N174 1.338 . S
C175 C177 1.378 . S
C175 H187 0.929 . S
C176 C172 1.413 . S
C176 C177 1.348 . S
C176 H192 0.931 . S
C177 C175 1.378 . S
C177 C176 1.348 . S
C177 H193 0.930 . S
Gd178 N198 2.622 . S
Gd178 N205 2.570 . S
Gd178 O212 2.353 . S
Gd178 O213 2.468 . S
Gd178 O214 2.427 . S
Gd178 O216 2.388 . S
Gd178 O217 2.386 . S
Gd178 O221 2.307 . S
Gd178 C231 2.805 . S
Gd179 N174 2.622 . S
Gd179 N180 2.570 . S
Gd179 O211 2.386 . S
Gd179 O215 2.307 . S
Gd179 O218 2.353 . S
Gd179 O219 2.468 . S
Gd179 O220 2.427 . S
Gd179 O222 2.388 . S
Gd179 C243 2.805 . S
N180 C170 1.359 . S
N180 Gd179 2.570 . S
N180 C182 1.343 . S
C181 C169 1.422 . S
C181 C183 1.321 . S
C181 H189 0.931 . S
C182 N180 1.343 . S
C182 C183 1.390 . S
C182 H184 0.931 . S
C183 C181 1.321 . S
C183 C182 1.390 . S
C183 H185 0.930 . S
H184 C182 0.931 . S
H185 C183 0.930 . S
H186 C209 0.931 . S
H187 C175 0.929 . S
H188 C210 0.930 . S
H189 C181 0.931 . S
H190 C171 0.930 . S
H191 C200 0.929 . S
H192 C176 0.931 . S
H193 C177 0.930 . S
H194 C232 0.930 . S
H195 C173 0.929 . S
H196 C201 0.931 . S
H197 C202 0.930 . S
N198 Gd178 2.622 . S
N198 C199 1.369 . S
N198 C200 1.338 . S
C199 N198 1.369 . S
C199 C203 1.415 . S
C199 C206 1.422 . S
C200 H191 0.929 . S
C200 N198 1.338 . S
C200 C202 1.378 1_545 S
C201 H196 0.931 . S
C201 C202 1.348 . S
C201 C203 1.413 1_565 S
C202 H197 0.930 . S
C202 C200 1.378 1_565 S
C202 C201 1.348 . S
C203 C199 1.415 . S
C203 C201 1.413 1_545 S
C203 C233 1.437 . S
H204 C233 0.929 1_565 S
N205 Gd178 2.570 . S
N205 C206 1.359 . S
N205 C209 1.343 . S
C206 C199 1.422 . S
C206 N205 1.359 . S
C206 C208 1.421 . S
C207 C208 1.422 1_455 S
C207 C210 1.321 . S
C207 H234 0.931 . S
C208 C206 1.421 . S
C208 C207 1.422 1_655 S
C208 C232 1.417 . S
C209 H186 0.931 . S
C209 N205 1.343 . S
C209 C210 1.390 1_655 S
C210 H188 0.930 . S
C210 C207 1.321 . S
C210 C209 1.390 1_455 S
O211 Gd179 2.386 . S
O211 C223 1.265 . S
O212 Gd178 2.353 . S
O212 C223 1.242 . S
O213 Gd178 2.468 . S
O213 C231 1.263 . S
O214 Gd178 2.427 . S
O214 C231 1.252 . S
O215 Gd179 2.307 . S
O215 C224 1.261 . S
O216 Gd178 2.388 . S
O216 C224 1.252 . S
O217 Gd178 2.386 . S
O217 C235 1.265 . S
O218 Gd179 2.353 . S
O218 C235 1.242 . S
O219 Gd179 2.468 . S
O219 C243 1.263 . S
O220 Gd179 2.427 . S
O220 C243 1.252 . S
O221 Gd178 2.307 . S
O221 C236 1.261 . S
O222 Gd179 2.388 . S
O222 C236 1.252 . S
C223 O211 1.265 . S
C223 O212 1.242 . S
C224 O215 1.261 . S
C224 O216 1.252 . S
C225 C228 1.394 . S
C225 C230 1.370 . S
C225 C231 1.500 . S
C226 C229 1.383 . S
C226 C230 1.395 . S
C227 C228 1.396 . S
C227 C229 1.365 . S
C227 H244 0.929 . S
C228 C225 1.394 . S
C228 C227 1.396 . S
C228 H245 0.930 . S
C229 C226 1.383 . S
C229 C227 1.365 . S
C229 H246 0.931 . S
C230 C225 1.370 . S
C230 C226 1.395 . S
C230 H247 0.930 . S
C231 Gd178 2.805 . S
C231 O213 1.263 . S
C231 O214 1.252 . S
C231 C225 1.500 . S
C232 H194 0.930 . S
C232 C208 1.417 . S
C232 C233 1.329 . S
C233 C203 1.437 . S
C233 H204 0.929 1_545 S
C233 C232 1.329 . S
H234 C207 0.931 . S
C235 O217 1.265 . S
C235 O218 1.242 . S
C236 O221 1.261 . S
C236 O222 1.252 . S
C237 C240 1.394 . S
C237 C242 1.370 . S
C237 C243 1.500 . S
C238 C241 1.383 . S
C238 C242 1.395 . S
C239 C240 1.396 . S
C239 C241 1.365 . S
C239 H248 0.929 . S
C240 C237 1.394 . S
C240 C239 1.396 . S
C240 H249 0.930 . S
C241 C238 1.383 . S
C241 C239 1.365 . S
C241 H250 0.931 . S
C242 C237 1.370 . S
C242 C238 1.395 . S
C242 H251 0.930 . S
C243 Gd179 2.805 . S
C243 O219 1.263 . S
C243 O220 1.252 . S
C243 C237 1.500 . S
H244 C227 0.929 . S
H245 C228 0.930 . S
H246 C229 0.931 . S
H247 C230 0.930 . S
H248 C239 0.929 . S
H249 C240 0.930 . S
H250 C241 0.931 . S
H251 C242 0.930 . S
C252 C253 1.391 1_655 S
C252 C254 1.394 . S
C252 H268 0.931 . S
C253 C252 1.391 1_455 S
C253 C257 1.376 . S
C254 C252 1.394 . S
C254 C255 1.369 1_655 S
C254 C258 1.531 . S
C255 C254 1.369 1_455 S
C255 C256 1.410 . S
C255 C263 1.503 . S
C256 C255 1.410 . S
C256 C257 1.392 . S
C256 C259 1.511 . S
C257 C253 1.376 . S
C257 C256 1.392 . S
C257 H269 0.929 . S
C258 C254 1.531 . S
C258 H270 0.960 . S
C258 H271 0.962 . S
C258 H272 0.960 . S
C259 C256 1.511 . S
C259 H273 0.961 . S
C259 H274 0.961 1_565 S
C259 H275 0.961 1_565 S
C260 C261 1.370 . S
C260 C262 1.363 1_545 S
C260 H276 0.931 . S
C261 C260 1.370 . S
C261 C265 1.408 1_655 S
C262 C260 1.363 1_565 S
C262 C263 1.370 1_655 S
C262 C266 1.524 . S
C263 C255 1.503 . S
C263 C262 1.370 1_455 S
C263 C264 1.403 1_565 S
C264 C263 1.403 1_545 S
C264 C265 1.404 . S
C264 C267 1.539 . S
C265 C261 1.408 1_455 S
C265 C264 1.404 . S
C265 H277 0.930 . S
C266 C262 1.524 . S
C266 H278 0.956 . S
C266 H279 0.961 . S
C266 H280 0.961 . S
C267 C264 1.539 . S
C267 H281 0.958 . S
C267 H282 0.961 . S
C267 H283 0.960 . S
H268 C252 0.931 . S
H269 C257 0.929 . S
H270 C258 0.960 . S
H271 C258 0.962 . S
H272 C258 0.960 . S
H273 C259 0.961 . S
H274 C259 0.961 1_545 S
H275 C259 0.961 1_545 S
H276 C260 0.931 . S
H277 C265 0.930 . S
H278 C266 0.956 . S
H279 C266 0.961 . S
H280 C266 0.961 . S
H281 C267 0.958 . S
H282 C267 0.961 . S
H283 C267 0.960 . S
C284 C285 1.391 . S
C284 C286 1.394 . S
C284 H300 0.931 1_545 S
C285 C284 1.391 . S
C285 C289 1.376 . S
C286 C284 1.394 . S
C286 C287 1.369 . S
C286 C290 1.531 1_545 S
C287 C286 1.369 . S
C287 C288 1.410 . S
C287 C295 1.503 . S
C288 C287 1.410 . S
C288 C289 1.392 . S
C288 C291 1.511 . S
C289 C285 1.376 . S
C289 C288 1.392 . S
C289 H301 0.929 . S
C290 C286 1.531 1_565 S
C290 H302 0.960 . S
C290 H303 0.962 . S
C290 H304 0.960 . S
C291 C288 1.511 . S
C291 H305 0.961 . S
C291 H306 0.961 . S
C291 H307 0.961 . S
C292 C293 1.370 . S
C292 C294 1.363 1_655 S
C292 H308 0.931 . S
C293 C292 1.370 . S
C293 C297 1.408 1_655 S
C294 C292 1.363 1_455 S
C294 C295 1.370 . S
C294 C298 1.524 . S
C295 C287 1.503 . S
C295 C294 1.370 . S
C295 C296 1.403 . S
C296 C295 1.403 . S
C296 C297 1.404 . S
C296 C299 1.539 . S
C297 C293 1.408 1_455 S
C297 C296 1.404 . S
C297 H309 0.930 1_455 S
C298 C294 1.524 . S
C298 H310 0.956 . S
C298 H311 0.961 . S
C298 H312 0.961 . S
C299 C296 1.539 . S
C299 H313 0.958 . S
C299 H314 0.961 . S
C299 H315 0.960 . S
H300 C284 0.931 1_565 S
H301 C289 0.929 . S
H302 C290 0.960 . S
H303 C290 0.962 . S
H304 C290 0.960 . S
H305 C291 0.961 . S
H306 C291 0.961 . S
H307 C291 0.961 . S
H308 C292 0.931 . S
H309 C297 0.930 1_655 S
H310 C298 0.956 . S
H311 C298 0.961 . S
H312 C298 0.961 . S
H313 C299 0.958 . S
H314 C299 0.961 . S
H315 C299 0.960 . S
C316 C317 1.391 . S
C316 C318 1.394 1_655 S
C316 H332 0.931 . S
C317 C316 1.391 . S
C317 C321 1.376 1_655 S
C318 C316 1.394 1_455 S
C318 C319 1.369 . S
C318 C322 1.531 . S
C319 C318 1.369 . S
C319 C320 1.410 . S
C319 C327 1.503 . S
C320 C319 1.410 . S
C320 C321 1.392 . S
C320 C323 1.511 . S
C321 C317 1.376 1_455 S
C321 C320 1.392 . S
C321 H333 0.929 . S
C322 C318 1.531 . S
C322 H334 0.960 . S
C322 H335 0.962 . S
C322 H336 0.960 . S
C323 C320 1.511 . S
C323 H337 0.961 . S
C323 H338 0.961 . S
C323 H339 0.961 . S
C324 C325 1.370 . S
C324 C326 1.363 . S
C324 H340 0.931 . S
C325 C324 1.370 . S
C325 C329 1.408 . S
C326 C324 1.363 . S
C326 C327 1.370 1_545 S
C326 C330 1.524 . S
C327 C319 1.503 . S
C327 C326 1.370 1_565 S
C327 C328 1.403 . S
C328 C327 1.403 . S
C328 C329 1.404 1_565 S
C328 C331 1.539 . S
C329 C325 1.408 . S
C329 C328 1.404 1_545 S
C329 H341 0.930 . S
C330 C326 1.524 . S
C330 H342 0.956 . S
C330 H343 0.961 1_545 S
C330 H344 0.961 . S
C331 C328 1.539 . S
C331 H345 0.958 . S
C331 H346 0.961 . S
C331 H347 0.960 . S
H332 C316 0.931 . S
H333 C321 0.929 . S
H334 C322 0.960 . S
H335 C322 0.962 . S
H336 C322 0.960 . S
H337 C323 0.961 . S
H338 C323 0.961 . S
H339 C323 0.961 . S
H340 C324 0.931 . S
H341 C329 0.930 . S
H342 C330 0.956 . S
H343 C330 0.961 1_565 S
H344 C330 0.961 . S
H345 C331 0.958 . S
H346 C331 0.961 . S
H347 C331 0.960 . S
C348 C349 1.391 . S
C348 C350 1.394 1_556 S
C348 H364 0.931 . S
C349 C348 1.391 . S
C349 C353 1.372 . S
C350 C348 1.394 1_554 S
C350 C351 1.369 . S
C350 C354 1.531 . S
C351 C350 1.369 . S
C351 C352 1.410 . S
C351 C359 1.503 . S
C352 C351 1.410 . S
C352 C353 1.397 1_554 S
C352 C355 1.511 . S
C353 C349 1.372 . S
C353 C352 1.397 1_556 S
C353 H365 0.928 . S
C354 C350 1.531 . S
C354 H366 0.960 . S
C354 H367 0.962 . S
C354 H368 0.960 . S
C355 C352 1.511 . S
C355 H369 0.961 . S
C355 H370 0.961 . S
C355 H371 0.961 . S
C356 C357 1.370 . S
C356 C358 1.363 . S
C356 H372 0.931 . S
C357 C356 1.370 . S
C357 C361 1.408 . S
C358 C356 1.363 . S
C358 C359 1.370 . S
C358 C362 1.524 . S
C359 C351 1.503 . S
C359 C358 1.370 . S
C359 C360 1.403 . S
C360 C359 1.403 . S
C360 C361 1.404 . S
C360 C363 1.539 . S
C361 C357 1.408 . S
C361 C360 1.404 . S
C361 H373 0.930 . S
C362 C358 1.524 . S
C362 H374 0.956 . S
C362 H375 0.961 . S
C362 H376 0.961 . S
C363 C360 1.539 . S
C363 H377 0.958 . S
C363 H378 0.961 . S
C363 H379 0.960 . S
H364 C348 0.931 . S
H365 C353 0.928 . S
H366 C354 0.960 . S
H367 C354 0.962 . S
H368 C354 0.960 . S
H369 C355 0.961 . S
H370 C355 0.961 . S
H371 C355 0.961 . S
H372 C356 0.931 . S
H373 C361 0.930 . S
H374 C362 0.956 . S
H375 C362 0.961 . S
H376 C362 0.961 . S
H377 C363 0.958 . S
H378 C363 0.961 . S
H379 C363 0.960 . S
C380 C381 1.391 . S
C380 C382 1.394 . S
C380 H396 0.931 . S
C381 C380 1.391 . S
C381 C385 1.376 . S
C382 C380 1.394 . S
C382 C383 1.369 . S
C382 C386 1.531 . S
C383 C382 1.369 . S
C383 C384 1.410 . S
C383 C391 1.503 . S
C384 C383 1.410 . S
C384 C385 1.392 . S
C384 C387 1.511 . S
C385 C381 1.376 . S
C385 C384 1.392 . S
C385 H397 0.929 . S
C386 C382 1.531 . S
C386 H398 0.960 . S
C386 H399 0.962 . S
C386 H400 0.960 . S
C387 C384 1.511 . S
C387 H401 0.961 . S
C387 H402 0.961 . S
C387 H403 0.961 . S
C388 C389 1.370 . S
C388 C390 1.363 . S
C388 H404 0.931 . S
C389 C388 1.370 . S
C389 C393 1.408 . S
C390 C388 1.363 . S
C390 C391 1.370 . S
C390 C394 1.524 . S
C391 C383 1.503 . S
C391 C390 1.370 . S
C391 C392 1.403 . S
C392 C391 1.403 . S
C392 C393 1.404 . S
C392 C395 1.539 . S
C393 C389 1.408 . S
C393 C392 1.404 . S
C393 H405 0.930 . S
C394 C390 1.524 . S
C394 H406 0.956 . S
C394 H407 0.961 . S
C394 H408 0.961 . S
C395 C392 1.539 . S
C395 H409 0.958 . S
C395 H410 0.961 . S
C395 H411 0.960 . S
H396 C380 0.931 . S
H397 C385 0.929 . S
H398 C386 0.960 . S
H399 C386 0.962 . S
H400 C386 0.960 . S
H401 C387 0.961 . S
H402 C387 0.961 . S
H403 C387 0.961 . S
H404 C388 0.931 . S
H405 C393 0.930 . S
H406 C394 0.956 . S
H407 C394 0.961 . S
H408 C394 0.961 . S
H409 C395 0.958 . S
H410 C395 0.961 . S
H411 C395 0.960 . S
C412 C413 1.391 . S
C412 C414 1.394 . S
C412 H428 0.931 . S
C413 C412 1.391 . S
C413 C417 1.376 . S
C414 C412 1.394 . S
C414 C415 1.369 . S
C414 C418 1.531 . S
C415 C414 1.369 . S
C415 C416 1.410 . S
C415 C423 1.503 . S
C416 C415 1.410 . S
C416 C417 1.392 . S
C416 C419 1.511 . S
C417 C413 1.376 . S
C417 C416 1.392 . S
C417 H429 0.929 . S
C418 C414 1.531 . S
C418 H430 0.960 . S
C418 H431 0.962 . S
C418 H432 0.960 . S
C419 C416 1.511 . S
C419 H433 0.961 . S
C419 H434 0.961 . S
C419 H435 0.961 . S
C420 C421 1.370 . S
C420 C422 1.363 . S
C420 H436 0.931 . S
C421 C420 1.370 . S
C421 C425 1.408 . S
C422 C420 1.363 . S
C422 C423 1.370 . S
C422 C426 1.524 . S
C423 C415 1.503 . S
C423 C422 1.370 . S
C423 C424 1.403 . S
C424 C423 1.403 . S
C424 C425 1.404 . S
C424 C427 1.539 . S
C425 C421 1.408 . S
C425 C424 1.404 . S
C425 H437 0.930 . S
C426 C422 1.524 . S
C426 H438 0.956 . S
C426 H439 0.961 . S
C426 H440 0.961 . S
C427 C424 1.539 . S
C427 H441 0.958 . S
C427 H442 0.961 . S
C427 H443 0.960 . S
H428 C412 0.931 . S
H429 C417 0.929 . S
H430 C418 0.960 . S
H431 C418 0.962 . S
H432 C418 0.960 . S
H433 C419 0.961 . S
H434 C419 0.961 . S
H435 C419 0.961 . S
H436 C420 0.931 . S
H437 C425 0.930 . S
H438 C426 0.956 . S
H439 C426 0.961 . S
H440 C426 0.961 . S
H441 C427 0.958 . S
H442 C427 0.961 . S
H443 C427 0.960 . S
C444 C445 1.391 . S
C444 C446 1.394 . S
C444 H460 0.931 . S
C445 C444 1.391 . S
C445 C449 1.376 . S
C446 C444 1.394 . S
C446 C447 1.369 . S
C446 C450 1.531 . S
C447 C446 1.369 . S
C447 C448 1.410 . S
C447 C455 1.503 . S
C448 C447 1.410 . S
C448 C449 1.392 . S
C448 C451 1.511 . S
C449 C445 1.376 . S
C449 C448 1.392 . S
C449 H461 0.929 . S
C450 C446 1.531 . S
C450 H462 0.960 . S
C450 H463 0.962 . S
C450 H464 0.960 . S
C451 C448 1.511 . S
C451 H465 0.961 . S
C451 H466 0.961 . S
C451 H467 0.961 . S
C452 C453 1.370 . S
C452 C454 1.363 1_554 S
C452 H468 0.931 . S
C453 C452 1.370 . S
C453 C457 1.408 . S
C454 C452 1.363 1_556 S
C454 C455 1.370 . S
C454 C458 1.524 . S
C455 C447 1.503 . S
C455 C454 1.370 . S
C455 C456 1.403 . S
C456 C455 1.403 . S
C456 C457 1.404 1_556 S
C456 C459 1.539 . S
C457 C453 1.408 . S
C457 C456 1.404 1_554 S
C457 H469 0.930 . S
C458 C454 1.524 . S
C458 H470 0.956 . S
C458 H471 0.961 . S
C458 H472 0.961 1_556 S
C459 C456 1.539 . S
C459 H473 0.958 1_545 S
C459 H474 0.961 1_545 S
C459 H475 0.960 . S
H460 C444 0.931 . S
H461 C449 0.929 . S
H462 C450 0.960 . S
H463 C450 0.962 . S
H464 C450 0.960 . S
H465 C451 0.961 . S
H466 C451 0.961 . S
H467 C451 0.961 . S
H468 C452 0.931 . S
H469 C457 0.930 . S
H470 C458 0.956 . S
H471 C458 0.961 . S
H472 C458 0.961 1_554 S
H473 C459 0.958 1_565 S
H474 C459 0.961 1_565 S
H475 C459 0.960 . S
C476 C477 1.391 . S
C476 C478 1.394 . S
C476 H492 0.931 . S
C477 C476 1.391 . S
C477 C481 1.376 . S
C478 C476 1.394 . S
C478 C479 1.369 . S
C478 C482 1.531 . S
C479 C478 1.369 . S
C479 C480 1.410 . S
C479 C487 1.503 . S
C480 C479 1.410 . S
C480 C481 1.392 . S
C480 C483 1.511 . S
C481 C477 1.376 . S
C481 C480 1.392 . S
C481 H493 0.929 . S
C482 C478 1.531 . S
C482 H494 0.960 . S
C482 H495 0.962 . S
C482 H496 0.960 . S
C483 C480 1.511 . S
C483 H497 0.961 . S
C483 H498 0.961 . S
C483 H499 0.961 . S
C484 C485 1.370 . S
C484 C486 1.363 . S
C484 H500 0.931 . S
C485 C484 1.370 . S
C485 C489 1.408 1_565 S
C486 C484 1.363 . S
C486 C487 1.370 . S
C486 C490 1.524 . S
C487 C479 1.503 . S
C487 C486 1.370 . S
C487 C488 1.403 1_565 S
C488 C487 1.403 1_545 S
C488 C489 1.404 . S
C488 C491 1.539 . S
C489 C485 1.408 1_545 S
C489 C488 1.404 . S
C489 H501 0.930 . S
C490 C486 1.524 . S
C490 H502 0.956 . S
C490 H503 0.961 . S
C490 H504 0.961 . S
C491 C488 1.539 . S
C491 H505 0.958 . S
C491 H506 0.961 . S
C491 H507 0.960 . S
H492 C476 0.931 . S
H493 C481 0.929 . S
H494 C482 0.960 . S
H495 C482 0.962 . S
H496 C482 0.960 . S
H497 C483 0.961 . S
H498 C483 0.961 . S
H499 C483 0.961 . S
H500 C484 0.931 . S
H501 C489 0.930 . S
H502 C490 0.956 . S
H503 C490 0.961 . S
H504 C490 0.961 . S
H505 C491 0.958 . S
H506 C491 0.961 . S
H507 C491 0.960 . S
C508 C509 1.391 . S
C508 C510 1.394 . S
C508 H524 0.931 . S
C509 C508 1.391 . S
C509 C513 1.376 . S
C510 C508 1.394 . S
C510 C511 1.369 . S
C510 C514 1.531 . S
C511 C510 1.369 . S
C511 C512 1.410 . S
C511 C519 1.503 . S
C512 C511 1.410 . S
C512 C513 1.392 . S
C512 C515 1.511 . S
C513 C509 1.376 . S
C513 C512 1.392 . S
C513 H525 0.929 1_655 S
C514 C510 1.531 . S
C514 H526 0.960 . S
C514 H527 0.962 . S
C514 H528 0.960 . S
C515 C512 1.511 . S
C515 H529 0.961 . S
C515 H530 0.961 . S
C515 H531 0.961 1_655 S
C516 C517 1.370 . S
C516 C518 1.363 . S
C516 H532 0.931 . S
C517 C516 1.370 . S
C517 C521 1.408 . S
C518 C516 1.363 . S
C518 C519 1.370 . S
C518 C522 1.524 . S
C519 C511 1.503 . S
C519 C518 1.370 . S
C519 C520 1.403 . S
C520 C519 1.403 . S
C520 C521 1.404 . S
C520 C523 1.539 1_655 S
C521 C517 1.408 . S
C521 C520 1.404 . S
C521 H533 0.930 . S
C522 C518 1.524 . S
C522 H534 0.956 . S
C522 H535 0.961 . S
C522 H536 0.961 . S
C523 C520 1.539 1_455 S
C523 H537 0.958 . S
C523 H538 0.961 . S
C523 H539 0.960 . S
H524 C508 0.931 . S
H525 C513 0.929 1_455 S
H526 C514 0.960 . S
H527 C514 0.962 . S
H528 C514 0.960 . S
H529 C515 0.961 . S
H530 C515 0.961 . S
H531 C515 0.961 1_455 S
H532 C516 0.931 . S
H533 C521 0.930 . S
H534 C522 0.956 . S
H535 C522 0.961 . S
H536 C522 0.961 . S
H537 C523 0.958 . S
H538 C523 0.961 . S
H539 C523 0.960 . S
C253 C56 1.564 . S
C261 C68 1.525 . S
C285 C152 1.506 . S
C293 C140 1.547 . S
C317 C236 1.529 . S
C325 C224 1.537 . S
C349 C238 1.449 . S
C357 C55 1.564 . S
C381 C142 0.963 . S
C389 C67 1.410 . S
C413 C223 1.595 . S
C421 C154 1.414 . S
C445 C235 1.389 . S
C453 C58 1.061 . S
C477 C70 1.472 . S
C485 C139 1.565 1_565 S
C509 C226 1.106 . S
C517 C151 1.390 . S
