# Generated by pormake.
# Topology oof, (8)-cn, num edge types: 1
# Building blocks:
#     Node 0, Type 0, BuildingBlock: VETTIZ_charged_sbu_0, # of connection points: 8
#     Node 1, Type 0, BuildingBlock: VETTIZ_charged_sbu_0, # of connection points: 8
#     Node 2, Type 0, BuildingBlock: VETTIZ_charged_sbu_0, # of connection points: 8
#     Node 3, Type 0, BuildingBlock: VETTIZ_charged_sbu_0, # of connection points: 8
#     Edge 4, Type (0, 0), BuildingBlock: KIFKEQ_clean_linker_1, # of connection points: 2
#     Edge 5, Type (0, 0), BuildingBlock: KIFKEQ_clean_linker_1, # of connection points: 2
#     Edge 6, Type (0, 0), BuildingBlock: KIFKEQ_clean_linker_1, # of connection points: 2
#     Edge 7, Type (0, 0), BuildingBlock: KIFKEQ_clean_linker_1, # of connection points: 2
#     Edge 8, Type (0, 0), BuildingBlock: KIFKEQ_clean_linker_1, # of connection points: 2
#     Edge 9, Type (0, 0), BuildingBlock: KIFKEQ_clean_linker_1, # of connection points: 2
#     Edge 10, Type (0, 0), BuildingBlock: KIFKEQ_clean_linker_1, # of connection points: 2
#     Edge 11, Type (0, 0), BuildingBlock: KIFKEQ_clean_linker_1, # of connection points: 2
#     Edge 12, Type (0, 0), BuildingBlock: KIFKEQ_clean_linker_1, # of connection points: 2
#     Edge 13, Type (0, 0), BuildingBlock: KIFKEQ_clean_linker_1, # of connection points: 2
#     Edge 14, Type (0, 0), BuildingBlock: KIFKEQ_clean_linker_1, # of connection points: 2
#     Edge 15, Type (0, 0), BuildingBlock: KIFKEQ_clean_linker_1, # of connection points: 2
#     Edge 16, Type (0, 0), BuildingBlock: KIFKEQ_clean_linker_1, # of connection points: 2
#     Edge 17, Type (0, 0), BuildingBlock: KIFKEQ_clean_linker_1, # of connection points: 2
#     Edge 18, Type (0, 0), BuildingBlock: KIFKEQ_clean_linker_1, # of connection points: 2
#     Edge 19, Type (0, 0), BuildingBlock: KIFKEQ_clean_linker_1, # of connection points: 2
# Relax obj value: 0.130
# Max RMSD: 0.230
# Mean RMSD: 0.230
data_MOF--net-oof--node1-VETTIZ_charged_sbu_0--edge1-KIFKEQ_clean_linker_1
_symmetry_space_group_name_H-M    P1
_symmetry_Int_Tables_number       1
_symmetry_cell_setting            triclinic
loop_
_symmetry_equiv_pos_as_xyz
'x, y, z'
_cell_length_a     16.850802
_cell_length_b     55.134987
_cell_length_c     16.697914
_cell_angle_alpha  89.202687
_cell_angle_beta   100.1189
_cell_angle_gamma 89.626399
loop_
_atom_site_label
_atom_site_type_symbol
_atom_site_fract_x
_atom_site_fract_y
_atom_site_fract_z
_atom_type_partial_charge
Fe0 Fe 0.13664 0.14173 0.44869 0.0
O1 O 0.05149 0.1423 0.35206 0.0
Fe2 Fe 0.08367 0.13183 0.24246 0.0
Fe3 Fe 0.97968 0.17065 0.31198 0.0
O4 O 0.0561 0.14077 0.34925 0.0
O5 O 0.01775 0.16121 0.20151 0.0
O6 O 1.01062 0.16265 0.2048 0.0
Fe7 Fe 0.93193 0.15838 0.10392 0.0
C8 C 0.97937 0.16099 0.49445 0.0
O9 O 0.14811 0.17917 0.45006 0.0
O10 O 0.07384 0.19449 0.33537 0.0
O11 O 0.03237 0.15981 0.05185 0.0
O12 O 0.10445 0.12793 0.12099 0.0
O13 O 0.18881 0.1515 0.26341 0.0
O14 O 0.23366 0.13907 0.39023 0.0
O15 O 0.90751 0.1995 0.25333 0.0
O16 O 0.91561 0.19507 0.11762 0.0
C17 C 0.24651 0.14677 0.32168 0.0
O18 O 0.94291 0.12061 0.09282 0.0
O19 O 0.98284 0.11096 0.2202 0.0
O20 O 0.03976 0.146 0.50491 0.0
O21 O 0.95649 0.17493 0.43088 0.0
C22 C 0.12709 0.19662 0.39926 0.0
C23 C 0.89551 0.20701 0.17761 0.0
C24 C 0.82435 0.14824 0.23249 0.0
O25 O 0.88202 0.14801 0.29288 0.0
O26 O 0.83417 0.15424 0.16113 0.0
C27 C 0.08616 0.14266 0.05834 0.0
O28 O 0.14058 0.10047 0.30236 0.0
O29 O 0.12799 0.10476 0.43692 0.0
C30 C 0.9591 0.10431 0.148 0.0
C31 C 0.13404 0.09172 0.37413 0.0
Fe32 Fe 0.93381 0.9505 0.80084 0.0
O33 O 0.99218 0.92453 0.7542 0.0
Fe34 Fe 0.06238 0.90062 0.83798 0.0
Fe35 Fe 0.93693 0.90046 0.67494 0.0
O36 O 0.99704 0.92451 0.76232 0.0
O37 O 1.00889 0.87659 0.75706 0.0
O38 O 1.00132 0.87635 0.75058 0.0
Fe39 Fe 0.064 0.85043 0.70996 0.0
C40 C 0.79597 0.91475 0.75259 0.0
O41 O 0.92541 0.96358 0.68377 0.0
O42 O 0.88331 0.9304 0.60466 0.0
O43 O 0.17531 0.86674 0.73596 0.0
O44 O 0.15856 0.90462 0.77786 0.0
O45 O 0.10641 0.93003 0.91493 0.0
O46 O 0.04707 0.96309 0.84254 0.0
O47 O 0.02659 0.90303 0.60505 0.0
O48 O 0.04787 0.86396 0.5908 0.0
C49 C 0.09691 0.95344 0.90217 0.0
O50 O 0.0852 0.83786 0.82992 0.0
O51 O 0.12349 0.87177 0.90662 0.0
O52 O 0.82146 0.93628 0.76357 0.0
O53 O 0.84163 0.89753 0.73763 0.0
C54 C 0.90266 0.95327 0.61421 0.0
C55 C 0.04104 0.88543 0.56117 0.0
C56 C 0.89061 0.84743 0.62486 0.0
O57 O 0.88475 0.8706 0.60576 0.0
O58 O 0.94975 0.83722 0.67481 0.0
C59 C 0.2013 0.88809 0.7528 0.0
O60 O 0.97062 0.89631 0.90303 0.0
O61 O 0.9387 0.93489 0.9178 0.0
C62 C 0.11755 0.8484 0.89684 0.0
C63 C 0.9481 0.91309 0.9457 0.0
Fe64 Fe 0.63854 0.63879 0.4484 0.0
O65 O 0.55416 0.64057 0.35096 0.0
Fe66 Fe 0.58592 0.6314 0.24038 0.0
Fe67 Fe 0.48475 0.66965 0.31389 0.0
O68 O 0.55871 0.63916 0.34817 0.0
O69 O 0.52387 0.66178 0.20331 0.0
O70 O 0.51673 0.66307 0.20645 0.0
Fe71 Fe 0.43911 0.66131 0.10428 0.0
C72 C 0.48066 0.65764 0.49374 0.0
O73 O 0.65026 0.67612 0.45635 0.0
O74 O 0.5809 0.69263 0.34151 0.0
O75 O 0.54087 0.66217 0.05383 0.0
O76 O 0.60756 0.62889 0.11919 0.0
O77 O 0.69231 0.64999 0.26444 0.0
O78 O 0.73753 0.63727 0.39108 0.0
O79 O 0.41619 0.69961 0.25962 0.0
O80 O 0.42902 0.6981 0.12428 0.0
C81 C 0.74993 0.64532 0.32266 0.0
O82 O 0.44465 0.62347 0.08776 0.0
O83 O 0.48253 0.61184 0.21387 0.0
O84 O 0.54015 0.64228 0.5032 0.0
O85 O 0.46039 0.67257 0.43241 0.0
C86 C 0.63189 0.69412 0.40729 0.0
C87 C 0.41029 0.7091 0.1868 0.0
C88 C 0.32755 0.65032 0.22885 0.0
O89 O 0.38469 0.64784 0.28938 0.0
O90 O 0.33971 0.65781 0.15965 0.0
C91 C 0.5922 0.64438 0.05856 0.0
O92 O 0.63932 0.59891 0.29585 0.0
O93 O 0.62903 0.60203 0.4313 0.0
C94 C 0.45877 0.60634 0.14048 0.0
C95 C 0.63306 0.58954 0.36687 0.0
Fe96 Fe 0.43129 0.45131 0.79869 0.0
O97 O 0.48932 0.42567 0.75057 0.0
Fe98 Fe 0.55971 0.40167 0.83425 0.0
Fe99 Fe 0.43573 0.40197 0.66884 0.0
O100 O 0.49451 0.42562 0.75875 0.0
O101 O 0.50666 0.37786 0.7521 0.0
O102 O 0.49889 0.37766 0.74505 0.0
Fe103 Fe 0.56388 0.35196 0.70604 0.0
C104 C 0.2935 0.41545 0.74762 0.0
O105 O 0.41948 0.46475 0.68197 0.0
O106 O 0.38274 0.4321 0.59832 0.0
O107 O 0.67497 0.36785 0.73741 0.0
O108 O 0.65626 0.40598 0.77489 0.0
O109 O 0.60369 0.43106 0.91147 0.0
O110 O 0.54449 0.46406 0.83859 0.0
O111 O 0.52782 0.40512 0.60199 0.0
O112 O 0.55311 0.36617 0.58847 0.0
C113 C 0.59466 0.45446 0.89807 0.0
O114 O 0.57989 0.33904 0.82517 0.0
O115 O 0.61982 0.3726 0.90315 0.0
O116 O 0.31958 0.43672 0.76331 0.0
O117 O 0.33811 0.39855 0.7282 0.0
C118 C 0.39602 0.45524 0.61114 0.0
C119 C 0.54564 0.38767 0.55907 0.0
C120 C 0.395 0.34896 0.61059 0.0
O121 O 0.38671 0.37236 0.59622 0.0
O122 O 0.45082 0.33874 0.66441 0.0
C123 C 0.70005 0.38935 0.75222 0.0
O124 O 0.46772 0.39715 0.8989 0.0
O125 O 0.43846 0.43572 0.91569 0.0
C126 C 0.61116 0.3493 0.89302 0.0
C127 C 0.44725 0.41388 0.94295 0.0
H128 H 0.02012 0.10531 0.97121 0.0
H129 H 0.1795 0.1657 0.96453 0.0
H130 H 0.96138 0.11264 0.83093 0.0
H131 H 0.12911 0.17138 0.82006 0.0
H132 H 0.98656 0.19865 0.59825 0.0
H133 H 0.0222 0.18967 0.74302 0.0
H134 H 0.94113 0.11585 0.69824 0.0
H135 H 0.89724 0.12616 0.557 0.0
C136 C 0.04682 0.1191 0.93773 0.0
C137 C 0.10229 0.13546 0.97907 0.0
C138 C 1.01188 0.1237 0.85679 0.0
C139 C 0.0363 0.14378 0.8142 0.0
C140 C 0.104 0.1569 0.85188 0.0
C141 C 0.13606 0.15296 0.93399 0.0
C142 C 0.97083 0.18113 0.6209 0.0
C143 C 0.94205 0.16279 0.56662 0.0
C144 C 0.99492 0.17549 0.7035 0.0
C145 C 0.99128 0.15137 0.73224 0.0
C146 C 0.94773 0.13447 0.67964 0.0
C147 C 0.92054 0.14052 0.59806 0.0
H148 H 0.07311 0.9258 0.47279 0.0
H149 H 0.98676 0.85258 0.44324 0.0
H150 H 0.04162 0.93247 0.32545 0.0
H151 H 0.95688 0.85885 0.29621 0.0
H152 H 0.90697 0.9435 0.06278 0.0
H153 H 0.92996 0.93676 0.21028 0.0
H154 H 0.0184 0.86451 0.17838 0.0
H155 H 0.99535 0.87113 0.03195 0.0
C156 C 0.04624 0.91127 0.43511 0.0
C157 C 0.03093 0.88891 0.47067 0.0
C158 C 0.02847 0.915 0.35024 0.0
C159 C 0.99568 0.8963 0.29808 0.0
C160 C 0.98249 0.87369 0.33371 0.0
C161 C 0.9999 0.87006 0.41846 0.0
C162 C 0.93016 0.92603 0.08707 0.0
C163 C 0.94939 0.90795 0.03457 0.0
C164 C 0.94427 0.92225 0.17202 0.0
C165 C 0.97692 0.90013 0.20711 0.0
C166 C 0.99271 0.88172 0.15427 0.0
C167 C 0.97926 0.88555 0.06965 0.0
H168 H 0.53003 0.60595 0.97474 0.0
H169 H 0.67886 0.66847 0.96057 0.0
H170 H 0.46875 0.61163 0.8347 0.0
H171 H 0.62628 0.67254 0.81597 0.0
H172 H 0.47998 0.69612 0.59305 0.0
H173 H 0.51525 0.68881 0.73884 0.0
H174 H 0.44843 0.61346 0.70193 0.0
H175 H 0.40441 0.622 0.55958 0.0
C176 C 0.55395 0.61991 0.93977 0.0
C177 C 0.60695 0.63728 0.97879 0.0
C178 C 0.51756 0.62352 0.85888 0.0
C179 C 0.53827 0.64364 0.81414 0.0
C180 C 0.60394 0.65794 0.84961 0.0
C181 C 0.63729 0.65498 0.93172 0.0
C182 C 0.46716 0.67856 0.61756 0.0
C183 C 0.44292 0.65931 0.56555 0.0
C184 C 0.49102 0.67395 0.70077 0.0
C185 C 0.4917 0.64999 0.73195 0.0
C186 C 0.45174 0.63202 0.68131 0.0
C187 C 0.42459 0.63701 0.59909 0.0
H188 H 0.40468 0.44375 0.06047 0.0
H189 H 0.50399 0.37278 0.02976 0.0
H190 H 0.43219 0.43752 0.2082 0.0
H191 H 0.53171 0.36666 0.17649 0.0
H192 H 0.5726 0.42883 0.47151 0.0
H193 H 0.5445 0.43482 0.32314 0.0
H194 H 0.47234 0.36002 0.29461 0.0
H195 H 0.50068 0.35412 0.44146 0.0
C196 C 0.43136 0.42669 0.08492 0.0
C197 C 0.45204 0.40884 0.03235 0.0
C198 C 0.44812 0.42322 0.16996 0.0
C199 C 0.48508 0.40165 0.20514 0.0
C200 C 0.50275 0.38345 0.15233 0.0
C201 C 0.48653 0.38697 0.06756 0.0
C202 C 0.55088 0.41369 0.43335 0.0
C203 C 0.53833 0.39108 0.46888 0.0
C204 C 0.5342 0.41715 0.34821 0.0
C205 C 0.50502 0.39801 0.29614 0.0
C206 C 0.49518 0.3752 0.33196 0.0
C207 C 0.51172 0.37179 0.4167 0.0
H208 H 0.76961 0.15073 0.37681 0.0
H209 H 0.68979 0.13868 0.12024 0.0
H210 H 0.63041 0.15122 0.3972 0.0
H211 H 0.5503 0.13814 0.14111 0.0
H212 H 0.30608 0.16513 0.1898 0.0
H213 H 0.44607 0.16436 0.16874 0.0
H214 H 0.51686 0.1275 0.40079 0.0
H215 H 0.3792 0.12925 0.42322 0.0
C216 C 0.72244 0.14758 0.32503 0.0
C217 C 0.74093 0.14465 0.2469 0.0
C218 C 0.64232 0.14788 0.33666 0.0
C219 C 0.57863 0.14489 0.27068 0.0
C220 C 0.59746 0.14105 0.19303 0.0
C221 C 0.67758 0.14106 0.18123 0.0
C222 C 0.35181 0.15709 0.23649 0.0
C223 C 0.33126 0.14744 0.30837 0.0
C224 C 0.432 0.15641 0.22417 0.0
C225 C 0.49315 0.14584 0.28309 0.0
C226 C 0.47212 0.13621 0.35471 0.0
C227 C 0.39261 0.13714 0.36739 0.0
H228 H 0.71621 0.87115 0.75061 0.0
H229 H 0.67818 0.94868 0.75492 0.0
H230 H 0.57267 0.86494 0.75061 0.0
H231 H 0.53563 0.94259 0.75151 0.0
H232 H 0.29705 0.9242 0.82704 0.0
H233 H 0.44064 0.92983 0.82952 0.0
H234 H 0.44281 0.86897 0.66938 0.0
H235 H 0.29998 0.86281 0.66961 0.0
C236 C 0.67736 0.88685 0.75131 0.0
C237 C 0.70912 0.91038 0.75331 0.0
C238 C 0.59484 0.88333 0.75067 0.0
C239 C 0.54207 0.90328 0.75123 0.0
C240 C 0.57417 0.92675 0.75279 0.0
C241 C 0.65634 0.93024 0.75426 0.0
C242 C 0.32801 0.91216 0.79178 0.0
C243 C 0.28687 0.89307 0.74814 0.0
C244 C 0.41056 0.91539 0.79305 0.0
C245 C 0.45394 0.8998 0.74983 0.0
C246 C 0.41215 0.88103 0.7048 0.0
C247 C 0.32987 0.87764 0.70428 0.0
H248 H 0.80284 0.64358 0.17738 0.0
H249 H 0.88744 0.64997 0.43563 0.0
H250 H 0.94129 0.64255 0.15446 0.0
H251 H 0.02631 0.65028 0.41268 0.0
H252 H 0.27108 0.62858 0.35722 0.0
H253 H 0.1316 0.62679 0.37898 0.0
H254 H 0.05431 0.66572 0.1517 0.0
H255 H 0.19179 0.6663 0.12832 0.0
C256 C 0.85112 0.64525 0.22918 0.0
C257 C 0.8341 0.64695 0.3083 0.0
C258 C 0.93084 0.64471 0.2161 0.0
C259 C 0.9958 0.64633 0.28165 0.0
C260 C 0.9784 0.64847 0.36073 0.0
C261 C 0.89861 0.64857 0.37391 0.0
C262 C 0.22397 0.63642 0.31149 0.0
C263 C 0.2428 0.64739 0.24076 0.0
C264 C 0.14394 0.63565 0.32429 0.0
C265 C 0.08097 0.64617 0.26726 0.0
C266 C 0.10025 0.65694 0.19637 0.0
C267 C 0.1797 0.65737 0.18304 0.0
H268 H 0.79679 0.36471 0.66595 0.0
H269 H 0.79698 0.42476 0.82934 0.0
H270 H 0.93946 0.37069 0.66488 0.0
H271 H 0.94072 0.43017 0.83117 0.0
H272 H 0.17706 0.44938 0.75485 0.0
H273 H 0.03484 0.44344 0.75314 0.0
H274 H 0.06961 0.36583 0.74397 0.0
H275 H 0.2129 0.37192 0.74211 0.0
C276 C 0.82745 0.3792 0.70185 0.0
C277 C 0.78545 0.39432 0.74758 0.0
C278 C 0.90961 0.38247 0.70187 0.0
C279 C 0.95227 0.4008 0.74837 0.0
C280 C 0.90988 0.41608 0.79357 0.0
C281 C 0.82734 0.413 0.79268 0.0
C282 C 0.15482 0.43097 0.75274 0.0
C283 C 0.20685 0.41109 0.74893 0.0
C284 C 0.07284 0.42757 0.75228 0.0
C285 C 0.04022 0.40416 0.74895 0.0
C286 C 0.09223 0.38418 0.74549 0.0
C287 C 0.17457 0.38762 0.74501 0.0
H288 H 0.23041 0.34245 0.58114 0.0
H289 H 0.45335 0.31591 0.52019 0.0
H290 H 0.16043 0.30656 0.51735 0.0
H291 H 0.38445 0.28051 0.45696 0.0
H292 H 0.27002 0.2065 0.49721 0.0
H293 H 0.32794 0.24607 0.53327 0.0
H294 H 0.12485 0.28118 0.38124 0.0
H295 H 0.06656 0.24135 0.34413 0.0
C296 C 0.26357 0.32941 0.55157 0.0
C297 C 0.34703 0.33179 0.55549 0.0
C298 C 0.22386 0.30888 0.5155 0.0
C299 C 0.26752 0.29057 0.48359 0.0
C300 C 0.34963 0.29409 0.48225 0.0
C301 C 0.38887 0.31443 0.51788 0.0
C302 C 0.23778 0.2226 0.47099 0.0
C303 C 0.16388 0.22073 0.41757 0.0
C304 C 0.27111 0.24528 0.49139 0.0
C305 C 0.231 0.2667 0.45975 0.0
C306 C 0.1569 0.26496 0.40655 0.0
C307 C 0.12401 0.24216 0.38497 0.0
H308 H 0.54105 0.30819 0.93492 0.0
H309 H 0.75191 0.35228 1.00408 0.0
H310 H 0.60394 0.27557 0.0242 0.0
H311 H 0.81641 0.31908 0.09264 0.0
H312 H 0.8904 0.24971 0.26353 0.0
H313 H 0.81455 0.28716 0.21441 0.0
H314 H 0.72003 0.25188 0.98885 0.0
H315 H 0.79394 0.21534 0.03659 0.0
C316 C 0.60028 0.31108 0.97074 0.0
C317 C 0.6422 0.33256 0.96155 0.0
C318 C 0.63633 0.29241 0.02187 0.0
C319 C 0.71577 0.29457 0.06407 0.0
C320 C 0.75509 0.31692 0.06095 0.0
C321 C 0.71831 0.33587 1.01016 0.0
C322 C 0.85272 0.25007 0.20387 0.0
C323 C 0.84862 0.22963 0.15376 0.0
C324 C 0.80974 0.27145 0.17571 0.0
C325 C 0.76067 0.27235 0.09811 0.0
C326 C 0.75605 0.25171 0.04939 0.0
C327 C 0.79931 0.23077 0.07661 0.0
H328 H 0.59732 0.73825 0.32912 0.0
H329 H 0.74548 0.7047 0.53981 0.0
H330 H 0.64642 0.77816 0.3763 0.0
H331 H 0.79462 0.7443 0.58577 0.0
H332 H 0.80757 0.81565 0.70029 0.0
H333 H 0.73751 0.77986 0.64143 0.0
H334 H 0.77165 0.80366 0.40232 0.0
H335 H 0.84045 0.84006 0.46198 0.0
C336 C 0.64087 0.73931 0.38497 0.0
C337 C 0.66691 0.71819 0.431 0.0
C338 C 0.66891 0.7622 0.41189 0.0
C339 C 0.72317 0.76445 0.48553 0.0
C340 C 0.75115 0.74327 0.52985 0.0
C341 C 0.72342 0.72049 0.50306 0.0
C342 C 0.79764 0.81361 0.63483 0.0
C343 C 0.82916 0.83051 0.58555 0.0
C344 C 0.75853 0.79298 0.60119 0.0
C345 C 0.75107 0.78858 0.51752 0.0
C346 C 0.77671 0.80651 0.46704 0.0
C347 C 0.81556 0.82741 0.50095 0.0
H348 H 0.46129 0.7451 0.09644 0.0
H349 H 0.27738 0.72787 0.23769 0.0
H350 H 0.38952 0.78257 0.04773 0.0
H351 H 0.20402 0.76526 0.18705 0.0
H352 H 0.06262 0.80485 0.94131 0.0
H353 H 0.13636 0.77451 0.03419 0.0
H354 H 0.33427 0.82412 0.09374 0.0
H355 H 0.25941 0.85481 1.00192 0.0
C356 C 0.40637 0.74966 0.11848 0.0
C357 C 0.37481 0.73365 0.17078 0.0
C358 C 0.36549 0.77115 0.09091 0.0
C359 C 0.29118 0.7768 0.11355 0.0
C360 C 0.2613 0.76133 0.16882 0.0
C361 C 0.30336 0.74005 0.19806 0.0
C362 C 0.12096 0.8095 0.97592 0.0
C363 C 0.15546 0.83213 0.9642 0.0
C364 C 0.16296 0.79219 0.0294 0.0
C365 C 0.2411 0.79695 0.07096 0.0
C366 C 0.27408 0.82002 0.06241 0.0
C367 C 0.23116 0.83759 1.01023 0.0
H368 H 0.86862 0.06619 0.07667 0.0
H369 H 0.11396 0.08728 0.16531 0.0
H370 H 0.91941 0.0267 0.03725 0.0
H371 H 0.16322 0.04915 0.12511 0.0
H372 H 0.17703 0.99574 0.89662 0.0
H373 H 0.14472 0.03188 0.9681 0.0
H374 H 0.02149 0.98757 0.12139 0.0
H375 H 0.05906 0.95117 0.05304 0.0
C376 C 0.93286 0.06252 0.08805 0.0
C377 C 0.9869 0.08013 0.12434 0.0
C378 C 0.96187 0.03994 0.06622 0.0
C379 C 0.04537 0.03492 0.07885 0.0
C380 C 0.09875 0.05247 0.11504 0.0
C381 C 0.06994 0.07458 0.13788 0.0
C382 C 0.14775 0.99353 0.94906 0.0
C383 C 0.11998 0.97062 0.96892 0.0
C384 C 0.12742 1.01427 0.98862 0.0
C385 C 0.07797 1.01251 0.04796 0.0
C386 C 0.05788 0.98942 0.07427 0.0
C387 C 0.08068 0.96858 0.03629 0.0
H388 H 0.20364 0.05977 0.49195 0.0
H389 H 0.01446 0.06656 0.28311 0.0
H390 H 0.14561 1.02173 0.52981 0.0
H391 H 0.95728 0.0283 0.31868 0.0
H392 H 0.82108 0.98813 0.51116 0.0
H393 H 0.88483 1.01809 0.43303 0.0
H394 H 0.11165 0.97957 0.49657 0.0
H395 H 0.04851 0.95068 0.5766 0.0
C396 C 0.15197 0.05251 0.45185 0.0
C397 C 0.11547 0.06573 0.38261 0.0
C398 C 0.11833 0.03074 0.47356 0.0
C399 C 0.0465 1.02193 0.42723 0.0
C400 C 1.01249 0.03454 0.35567 0.0
C401 C 0.0466 0.05619 0.33383 0.0
C402 C 0.88345 0.98555 0.50486 0.0
C403 C 0.9291 0.96643 0.54643 0.0
C404 C 0.92027 1.00272 0.46058 0.0
C405 C 1.00362 1.00125 0.45871 0.0
C406 C 0.04762 0.98131 0.49678 0.0
C407 C 1.01097 0.96436 0.5409 0.0
H408 H 0.61275 0.58849 0.15676 0.0
H409 H 0.36634 0.569 0.06515 0.0
H410 H 0.66006 0.55046 0.11552 0.0
H411 H 0.41544 0.52932 0.02504 0.0
H412 H 0.55571 0.45299 0.04843 0.0
H413 H 0.51636 0.48991 0.11278 0.0
H414 H 0.64256 0.53301 0.95887 0.0
H415 H 0.67677 0.49632 0.89137 0.0
C416 C 0.56799 0.57631 0.12765 0.0
C417 C 0.48525 0.58233 0.11379 0.0
C418 C 0.59577 0.55415 0.10455 0.0
C419 C 0.54169 0.53692 0.06779 0.0
C420 C 0.45842 0.54236 0.05436 0.0
C421 C 0.43041 0.56505 0.07652 0.0
C422 C 0.57749 0.47027 0.0307 0.0
C423 C 0.6181 0.47179 0.96415 0.0
C424 C 0.55354 0.49139 0.06622 0.0
C425 C 0.57384 0.51426 0.03832 0.0
C426 C 0.62477 0.51556 0.98024 0.0
C427 C 0.64637 0.49452 0.94317 0.0
H428 H 0.43438 0.44484 0.4617 0.0
H429 H 0.37187 0.50405 0.60529 0.0
H430 H 0.50075 0.47367 0.38064 0.0
H431 H 0.43613 0.53246 0.52453 0.0
H432 H 0.69128 0.55704 0.4876 0.0
H433 H 0.62079 0.52087 0.52362 0.0
H434 H 0.44821 0.5287 0.3015 0.0
H435 H 0.51668 0.5652 0.26742 0.0
C436 C 0.43258 0.46398 0.47415 0.0
C437 C 0.40093 0.47201 0.54178 0.0
C438 C 0.47066 0.4804 0.42817 0.0
C439 C 0.47555 0.50505 0.44856 0.0
C440 C 0.43447 0.51343 0.50891 0.0
C441 C 0.39702 0.49715 0.55459 0.0
C442 C 0.64089 0.55033 0.44443 0.0
C443 C 0.61137 0.56363 0.3729 0.0
C444 C 0.60034 0.52971 0.46521 0.0
C445 C 0.52955 0.52198 0.41487 0.0
C446 C 0.50365 0.53398 0.34032 0.0
C447 C 0.54405 0.55469 0.31984 0.0
loop_
_geom_bond_atom_site_label_1
_geom_bond_atom_site_label_2
_geom_bond_distance
_geom_bond_site_symmetry_2
_ccdc_geom_bond_type
Fe0 O1 1.886 . S
Fe0 O4 1.715 . S
Fe0 O9 2.077 . S
Fe0 O14 1.935 . S
Fe0 O20 2.077 . S
Fe0 O29 1.935 . S
O1 Fe0 1.886 . S
O1 Fe3 1.715 1_455 S
Fe2 O4 1.886 . S
Fe2 O5 1.715 1_455 S
Fe2 O12 1.935 . S
Fe2 O13 2.077 . S
Fe2 O19 1.935 1_455 S
Fe2 O28 2.077 . S
Fe3 O1 1.715 1_655 S
Fe3 O6 1.886 . S
Fe3 O10 1.935 1_655 S
Fe3 O15 2.077 . S
Fe3 O21 1.935 . S
Fe3 O25 2.077 . S
O4 Fe0 1.715 . S
O4 Fe2 1.886 . S
O5 Fe2 1.715 1_655 S
O5 Fe7 1.886 . S
O6 Fe3 1.886 . S
O6 Fe7 1.715 . S
Fe7 O5 1.886 . S
Fe7 O6 1.715 . S
Fe7 O11 2.077 . S
Fe7 O16 1.935 . S
Fe7 O18 2.077 . S
Fe7 O26 1.935 . S
C8 O20 1.381 1_655 S
C8 O21 1.421 . S
O9 Fe0 2.077 . S
O9 C22 1.381 . S
O10 Fe3 1.935 1_455 S
O10 C22 1.421 . S
O11 Fe7 2.077 . S
O11 C27 1.381 1_655 S
O12 Fe2 1.935 . S
O12 C27 1.421 . S
O13 Fe2 2.077 . S
O13 C17 1.381 . S
O14 Fe0 1.935 . S
O14 C17 1.421 . S
O15 Fe3 2.077 . S
O15 C23 1.381 . S
O16 Fe7 1.935 . S
O16 C23 1.421 . S
C17 O13 1.381 . S
C17 O14 1.421 . S
O18 Fe7 2.077 . S
O18 C30 1.381 . S
O19 Fe2 1.935 1_655 S
O19 C30 1.421 . S
O20 Fe0 2.077 . S
O20 C8 1.381 1_455 S
O21 Fe3 1.935 . S
O21 C8 1.421 . S
C22 O9 1.381 . S
C22 O10 1.421 . S
C23 O15 1.381 . S
C23 O16 1.421 . S
C24 O25 1.381 . S
C24 O26 1.421 . S
O25 Fe3 2.077 . S
O25 C24 1.381 . S
O26 Fe7 1.935 . S
O26 C24 1.421 . S
C27 O11 1.381 1_455 S
C27 O12 1.421 . S
O28 Fe2 2.077 . S
O28 C31 1.381 . S
O29 Fe0 1.935 . S
O29 C31 1.421 . S
C30 O18 1.381 . S
C30 O19 1.421 . S
C31 O28 1.381 . S
C31 O29 1.421 . S
Fe32 O33 1.886 . S
Fe32 O36 1.715 1_655 S
Fe32 O41 2.077 . S
Fe32 O46 1.935 1_655 S
Fe32 O52 2.077 . S
Fe32 O61 1.935 . S
O33 Fe32 1.886 . S
O33 Fe35 1.715 . S
Fe34 O36 1.886 . S
Fe34 O37 1.715 . S
Fe34 O44 1.935 . S
Fe34 O45 2.077 . S
Fe34 O51 1.935 . S
Fe34 O60 2.077 . S
Fe35 O33 1.715 . S
Fe35 O38 1.886 . S
Fe35 O42 1.935 . S
Fe35 O47 2.077 . S
Fe35 O53 1.935 . S
Fe35 O57 2.077 . S
O36 Fe32 1.715 1_455 S
O36 Fe34 1.886 . S
O37 Fe34 1.715 . S
O37 Fe39 1.886 . S
O38 Fe35 1.886 . S
O38 Fe39 1.715 1_655 S
Fe39 O37 1.886 . S
Fe39 O38 1.715 1_455 S
Fe39 O43 2.077 . S
Fe39 O48 1.935 . S
Fe39 O50 2.077 . S
Fe39 O58 1.935 1_455 S
C40 O52 1.381 . S
C40 O53 1.421 . S
O41 Fe32 2.077 . S
O41 C54 1.381 . S
O42 Fe35 1.935 . S
O42 C54 1.421 . S
O43 Fe39 2.077 . S
O43 C59 1.381 . S
O44 Fe34 1.935 . S
O44 C59 1.421 . S
O45 Fe34 2.077 . S
O45 C49 1.381 . S
O46 Fe32 1.935 1_455 S
O46 C49 1.421 . S
O47 Fe35 2.077 . S
O47 C55 1.381 1_655 S
O48 Fe39 1.935 . S
O48 C55 1.421 . S
C49 O45 1.381 . S
C49 O46 1.421 . S
O50 Fe39 2.077 . S
O50 C62 1.381 . S
O51 Fe34 1.935 . S
O51 C62 1.421 . S
O52 Fe32 2.077 . S
O52 C40 1.381 . S
O53 Fe35 1.935 . S
O53 C40 1.421 . S
C54 O41 1.381 . S
C54 O42 1.421 . S
C55 O47 1.381 1_455 S
C55 O48 1.421 . S
C56 O57 1.381 . S
C56 O58 1.421 . S
O57 Fe35 2.077 . S
O57 C56 1.381 . S
O58 Fe39 1.935 1_655 S
O58 C56 1.421 . S
C59 O43 1.381 . S
C59 O44 1.421 . S
O60 Fe34 2.077 . S
O60 C63 1.381 1_455 S
O61 Fe32 1.935 . S
O61 C63 1.421 . S
C62 O50 1.381 . S
C62 O51 1.421 . S
C63 O60 1.381 1_655 S
C63 O61 1.421 . S
Fe64 O65 1.886 . S
Fe64 O68 1.715 . S
Fe64 O73 2.077 . S
Fe64 O78 1.935 . S
Fe64 O84 2.077 . S
Fe64 O93 1.935 . S
O65 Fe64 1.886 . S
O65 Fe67 1.715 . S
Fe66 O68 1.886 . S
Fe66 O69 1.715 . S
Fe66 O76 1.935 . S
Fe66 O77 2.077 . S
Fe66 O83 1.935 . S
Fe66 O92 2.077 . S
Fe67 O65 1.715 . S
Fe67 O70 1.886 . S
Fe67 O74 1.935 . S
Fe67 O79 2.077 . S
Fe67 O85 1.935 . S
Fe67 O89 2.077 . S
O68 Fe64 1.715 . S
O68 Fe66 1.886 . S
O69 Fe66 1.715 . S
O69 Fe71 1.886 . S
O70 Fe67 1.886 . S
O70 Fe71 1.715 . S
Fe71 O69 1.886 . S
Fe71 O70 1.715 . S
Fe71 O75 2.077 . S
Fe71 O80 1.935 . S
Fe71 O82 2.077 . S
Fe71 O90 1.935 . S
C72 O84 1.381 . S
C72 O85 1.421 . S
O73 Fe64 2.077 . S
O73 C86 1.381 . S
O74 Fe67 1.935 . S
O74 C86 1.421 . S
O75 Fe71 2.077 . S
O75 C91 1.381 . S
O76 Fe66 1.935 . S
O76 C91 1.421 . S
O77 Fe66 2.077 . S
O77 C81 1.381 . S
O78 Fe64 1.935 . S
O78 C81 1.421 . S
O79 Fe67 2.077 . S
O79 C87 1.381 . S
O80 Fe71 1.935 . S
O80 C87 1.421 . S
C81 O77 1.381 . S
C81 O78 1.421 . S
O82 Fe71 2.077 . S
O82 C94 1.381 . S
O83 Fe66 1.935 . S
O83 C94 1.421 . S
O84 Fe64 2.077 . S
O84 C72 1.381 . S
O85 Fe67 1.935 . S
O85 C72 1.421 . S
C86 O73 1.381 . S
C86 O74 1.421 . S
C87 O79 1.381 . S
C87 O80 1.421 . S
C88 O89 1.381 . S
C88 O90 1.421 . S
O89 Fe67 2.077 . S
O89 C88 1.381 . S
O90 Fe71 1.935 . S
O90 C88 1.421 . S
C91 O75 1.381 . S
C91 O76 1.421 . S
O92 Fe66 2.077 . S
O92 C95 1.381 . S
O93 Fe64 1.935 . S
O93 C95 1.421 . S
C94 O82 1.381 . S
C94 O83 1.421 . S
C95 O92 1.381 . S
C95 O93 1.421 . S
Fe96 O97 1.886 . S
Fe96 O100 1.715 . S
Fe96 O105 2.077 . S
Fe96 O110 1.935 . S
Fe96 O116 2.077 . S
Fe96 O125 1.935 . S
O97 Fe96 1.886 . S
O97 Fe99 1.715 . S
Fe98 O100 1.886 . S
Fe98 O101 1.715 . S
Fe98 O108 1.935 . S
Fe98 O109 2.077 . S
Fe98 O115 1.935 . S
Fe98 O124 2.077 . S
Fe99 O97 1.715 . S
Fe99 O102 1.886 . S
Fe99 O106 1.935 . S
Fe99 O111 2.077 . S
Fe99 O117 1.935 . S
Fe99 O121 2.077 . S
O100 Fe96 1.715 . S
O100 Fe98 1.886 . S
O101 Fe98 1.715 . S
O101 Fe103 1.886 . S
O102 Fe99 1.886 . S
O102 Fe103 1.715 . S
Fe103 O101 1.886 . S
Fe103 O102 1.715 . S
Fe103 O107 2.077 . S
Fe103 O112 1.935 . S
Fe103 O114 2.077 . S
Fe103 O122 1.935 . S
C104 O116 1.381 . S
C104 O117 1.421 . S
O105 Fe96 2.077 . S
O105 C118 1.381 . S
O106 Fe99 1.935 . S
O106 C118 1.421 . S
O107 Fe103 2.077 . S
O107 C123 1.381 . S
O108 Fe98 1.935 . S
O108 C123 1.421 . S
O109 Fe98 2.077 . S
O109 C113 1.381 . S
O110 Fe96 1.935 . S
O110 C113 1.421 . S
O111 Fe99 2.077 . S
O111 C119 1.381 . S
O112 Fe103 1.935 . S
O112 C119 1.421 . S
C113 O109 1.381 . S
C113 O110 1.421 . S
O114 Fe103 2.077 . S
O114 C126 1.381 . S
O115 Fe98 1.935 . S
O115 C126 1.421 . S
O116 Fe96 2.077 . S
O116 C104 1.381 . S
O117 Fe99 1.935 . S
O117 C104 1.421 . S
C118 O105 1.381 . S
C118 O106 1.421 . S
C119 O111 1.381 . S
C119 O112 1.421 . S
C120 O121 1.381 . S
C120 O122 1.421 . S
O121 Fe99 2.077 . S
O121 C120 1.381 . S
O122 Fe103 1.935 . S
O122 C120 1.421 . S
C123 O107 1.381 . S
C123 O108 1.421 . S
O124 Fe98 2.077 . S
O124 C127 1.381 . S
O125 Fe96 1.935 . S
O125 C127 1.421 . S
C126 O114 1.381 . S
C126 O115 1.421 . S
C127 O124 1.381 . S
C127 O125 1.421 . S
H128 C136 0.950 . S
H129 C141 0.950 . S
H130 C138 0.950 . S
H131 C140 0.950 . S
H132 C142 0.950 . S
H133 C144 0.950 . S
H134 C146 0.950 . S
H135 C147 0.950 . S
C136 H128 0.950 . S
C136 C137 1.386 1_655 S
C136 C138 1.391 . S
C137 C136 1.386 1_455 S
C137 C141 1.393 . S
C138 H130 0.950 . S
C138 C136 1.391 . S
C138 C139 1.400 1_655 S
C139 C138 1.400 1_455 S
C139 C140 1.398 . S
C139 C145 1.491 1_455 S
C140 H131 0.950 . S
C140 C139 1.398 . S
C140 C141 1.391 . S
C141 H129 0.950 . S
C141 C137 1.393 . S
C141 C140 1.391 . S
C142 H132 0.950 . S
C142 C143 1.386 1_455 S
C142 C144 1.391 . S
C143 C142 1.386 1_655 S
C143 C147 1.393 . S
C144 H133 0.950 . S
C144 C142 1.391 . S
C144 C145 1.400 1_455 S
C145 C139 1.491 1_655 S
C145 C144 1.400 1_655 S
C145 C146 1.398 . S
C146 H134 0.950 . S
C146 C145 1.398 . S
C146 C147 1.391 . S
C147 H135 0.950 . S
C147 C143 1.393 . S
C147 C146 1.391 . S
H148 C156 0.950 . S
H149 C161 0.950 . S
H150 C158 0.950 . S
H151 C160 0.950 . S
H152 C162 0.950 . S
H153 C164 0.950 . S
H154 C166 0.950 . S
H155 C167 0.950 . S
C156 H148 0.950 . S
C156 C157 1.386 . S
C156 C158 1.391 . S
C157 C156 1.386 . S
C157 C161 1.393 1_455 S
C158 H150 0.950 . S
C158 C156 1.391 . S
C158 C159 1.400 . S
C159 C158 1.400 . S
C159 C160 1.398 1_455 S
C159 C165 1.491 1_455 S
C160 H151 0.950 . S
C160 C159 1.398 1_655 S
C160 C161 1.391 . S
C161 H149 0.950 . S
C161 C157 1.393 1_655 S
C161 C160 1.391 . S
C162 H152 0.950 . S
C162 C163 1.386 . S
C162 C164 1.391 . S
C163 C162 1.386 . S
C163 C167 1.393 1_655 S
C164 H153 0.950 . S
C164 C162 1.391 . S
C164 C165 1.400 . S
C165 C159 1.491 1_655 S
C165 C164 1.400 . S
C165 C166 1.398 1_655 S
C166 H154 0.950 . S
C166 C165 1.398 1_455 S
C166 C167 1.391 . S
C167 H155 0.950 . S
C167 C163 1.393 1_455 S
C167 C166 1.391 . S
H168 C176 0.950 . S
H169 C181 0.950 . S
H170 C178 0.950 . S
H171 C180 0.950 . S
H172 C182 0.950 . S
H173 C184 0.950 . S
H174 C186 0.950 . S
H175 C187 0.950 . S
C176 H168 0.950 . S
C176 C177 1.386 . S
C176 C178 1.391 . S
C177 C176 1.386 . S
C177 C181 1.393 . S
C178 H170 0.950 . S
C178 C176 1.391 . S
C178 C179 1.400 . S
C179 C178 1.400 . S
C179 C180 1.398 . S
C179 C185 1.491 . S
C180 H171 0.950 . S
C180 C179 1.398 . S
C180 C181 1.391 . S
C181 H169 0.950 . S
C181 C177 1.393 . S
C181 C180 1.391 . S
C182 H172 0.950 . S
C182 C183 1.386 . S
C182 C184 1.391 . S
C183 C182 1.386 . S
C183 C187 1.393 . S
C184 H173 0.950 . S
C184 C182 1.391 . S
C184 C185 1.400 . S
C185 C179 1.491 . S
C185 C184 1.400 . S
C185 C186 1.398 . S
C186 H174 0.950 . S
C186 C185 1.398 . S
C186 C187 1.391 . S
C187 H175 0.950 . S
C187 C183 1.393 . S
C187 C186 1.391 . S
H188 C196 0.950 . S
H189 C201 0.950 . S
H190 C198 0.950 . S
H191 C200 0.950 . S
H192 C202 0.950 . S
H193 C204 0.950 . S
H194 C206 0.950 . S
H195 C207 0.950 . S
C196 H188 0.950 . S
C196 C197 1.386 . S
C196 C198 1.391 . S
C197 C196 1.386 . S
C197 C201 1.393 . S
C198 H190 0.950 . S
C198 C196 1.391 . S
C198 C199 1.400 . S
C199 C198 1.400 . S
C199 C200 1.398 . S
C199 C205 1.491 . S
C200 H191 0.950 . S
C200 C199 1.398 . S
C200 C201 1.391 . S
C201 H189 0.950 . S
C201 C197 1.393 . S
C201 C200 1.391 . S
C202 H192 0.950 . S
C202 C203 1.386 . S
C202 C204 1.391 . S
C203 C202 1.386 . S
C203 C207 1.393 . S
C204 H193 0.950 . S
C204 C202 1.391 . S
C204 C205 1.400 . S
C205 C199 1.491 . S
C205 C204 1.400 . S
C205 C206 1.398 . S
C206 H194 0.950 . S
C206 C205 1.398 . S
C206 C207 1.391 . S
C207 H195 0.950 . S
C207 C203 1.393 . S
C207 C206 1.391 . S
H208 C216 0.950 . S
H209 C221 0.950 . S
H210 C218 0.950 . S
H211 C220 0.950 . S
H212 C222 0.950 . S
H213 C224 0.950 . S
H214 C226 0.950 . S
H215 C227 0.950 . S
C216 H208 0.950 . S
C216 C217 1.386 . S
C216 C218 1.391 . S
C217 C216 1.386 . S
C217 C221 1.393 . S
C218 H210 0.950 . S
C218 C216 1.391 . S
C218 C219 1.400 . S
C219 C218 1.400 . S
C219 C220 1.398 . S
C219 C225 1.491 . S
C220 H211 0.950 . S
C220 C219 1.398 . S
C220 C221 1.391 . S
C221 H209 0.950 . S
C221 C217 1.393 . S
C221 C220 1.391 . S
C222 H212 0.950 . S
C222 C223 1.386 . S
C222 C224 1.391 . S
C223 C222 1.386 . S
C223 C227 1.393 . S
C224 H213 0.950 . S
C224 C222 1.391 . S
C224 C225 1.400 . S
C225 C219 1.491 . S
C225 C224 1.400 . S
C225 C226 1.398 . S
C226 H214 0.950 . S
C226 C225 1.398 . S
C226 C227 1.391 . S
C227 H215 0.950 . S
C227 C223 1.393 . S
C227 C226 1.391 . S
H228 C236 0.950 . S
H229 C241 0.950 . S
H230 C238 0.950 . S
H231 C240 0.950 . S
H232 C242 0.950 . S
H233 C244 0.950 . S
H234 C246 0.950 . S
H235 C247 0.950 . S
C236 H228 0.950 . S
C236 C237 1.386 . S
C236 C238 1.391 . S
C237 C236 1.386 . S
C237 C241 1.393 . S
C238 H230 0.950 . S
C238 C236 1.391 . S
C238 C239 1.400 . S
C239 C238 1.400 . S
C239 C240 1.398 . S
C239 C245 1.491 . S
C240 H231 0.950 . S
C240 C239 1.398 . S
C240 C241 1.391 . S
C241 H229 0.950 . S
C241 C237 1.393 . S
C241 C240 1.391 . S
C242 H232 0.950 . S
C242 C243 1.386 . S
C242 C244 1.391 . S
C243 C242 1.386 . S
C243 C247 1.393 . S
C244 H233 0.950 . S
C244 C242 1.391 . S
C244 C245 1.400 . S
C245 C239 1.491 . S
C245 C244 1.400 . S
C245 C246 1.398 . S
C246 H234 0.950 . S
C246 C245 1.398 . S
C246 C247 1.391 . S
C247 H235 0.950 . S
C247 C243 1.393 . S
C247 C246 1.391 . S
H248 C256 0.950 . S
H249 C261 0.950 . S
H250 C258 0.950 . S
H251 C260 0.950 . S
H252 C262 0.950 . S
H253 C264 0.950 . S
H254 C266 0.950 . S
H255 C267 0.950 . S
C256 H248 0.950 . S
C256 C257 1.386 . S
C256 C258 1.391 . S
C257 C256 1.386 . S
C257 C261 1.393 . S
C258 H250 0.950 . S
C258 C256 1.391 . S
C258 C259 1.400 . S
C259 C258 1.400 . S
C259 C260 1.398 . S
C259 C265 1.491 1_655 S
C260 H251 0.950 . S
C260 C259 1.398 . S
C260 C261 1.391 . S
C261 H249 0.950 . S
C261 C257 1.393 . S
C261 C260 1.391 . S
C262 H252 0.950 . S
C262 C263 1.386 . S
C262 C264 1.391 . S
C263 C262 1.386 . S
C263 C267 1.393 . S
C264 H253 0.950 . S
C264 C262 1.391 . S
C264 C265 1.400 . S
C265 C259 1.491 1_455 S
C265 C264 1.400 . S
C265 C266 1.398 . S
C266 H254 0.950 . S
C266 C265 1.398 . S
C266 C267 1.391 . S
C267 H255 0.950 . S
C267 C263 1.393 . S
C267 C266 1.391 . S
H268 C276 0.950 . S
H269 C281 0.950 . S
H270 C278 0.950 . S
H271 C280 0.950 . S
H272 C282 0.950 . S
H273 C284 0.950 . S
H274 C286 0.950 . S
H275 C287 0.950 . S
C276 H268 0.950 . S
C276 C277 1.386 . S
C276 C278 1.391 . S
C277 C276 1.386 . S
C277 C281 1.393 . S
C278 H270 0.950 . S
C278 C276 1.391 . S
C278 C279 1.400 . S
C279 C278 1.400 . S
C279 C280 1.398 . S
C279 C285 1.491 1_655 S
C280 H271 0.950 . S
C280 C279 1.398 . S
C280 C281 1.391 . S
C281 H269 0.950 . S
C281 C277 1.393 . S
C281 C280 1.391 . S
C282 H272 0.950 . S
C282 C283 1.386 . S
C282 C284 1.391 . S
C283 C282 1.386 . S
C283 C287 1.393 . S
C284 H273 0.950 . S
C284 C282 1.391 . S
C284 C285 1.400 . S
C285 C279 1.491 1_455 S
C285 C284 1.400 . S
C285 C286 1.398 . S
C286 H274 0.950 . S
C286 C285 1.398 . S
C286 C287 1.391 . S
C287 H275 0.950 . S
C287 C283 1.393 . S
C287 C286 1.391 . S
H288 C296 0.950 . S
H289 C301 0.950 . S
H290 C298 0.950 . S
H291 C300 0.950 . S
H292 C302 0.950 . S
H293 C304 0.950 . S
H294 C306 0.950 . S
H295 C307 0.950 . S
C296 H288 0.950 . S
C296 C297 1.386 . S
C296 C298 1.391 . S
C297 C296 1.386 . S
C297 C301 1.393 . S
C298 H290 0.950 . S
C298 C296 1.391 . S
C298 C299 1.400 . S
C299 C298 1.400 . S
C299 C300 1.398 . S
C299 C305 1.491 . S
C300 H291 0.950 . S
C300 C299 1.398 . S
C300 C301 1.391 . S
C301 H289 0.950 . S
C301 C297 1.393 . S
C301 C300 1.391 . S
C302 H292 0.950 . S
C302 C303 1.386 . S
C302 C304 1.391 . S
C303 C302 1.386 . S
C303 C307 1.393 . S
C304 H293 0.950 . S
C304 C302 1.391 . S
C304 C305 1.400 . S
C305 C299 1.491 . S
C305 C304 1.400 . S
C305 C306 1.398 . S
C306 H294 0.950 . S
C306 C305 1.398 . S
C306 C307 1.391 . S
C307 H295 0.950 . S
C307 C303 1.393 . S
C307 C306 1.391 . S
H308 C316 0.950 . S
H309 C321 0.950 . S
H310 C318 0.950 . S
H311 C320 0.950 1_554 S
H312 C322 0.950 . S
H313 C324 0.950 . S
H314 C326 0.950 1_556 S
H315 C327 0.950 . S
C316 H308 0.950 . S
C316 C317 1.386 . S
C316 C318 1.391 . S
C317 C316 1.386 . S
C317 C321 1.393 . S
C318 H310 0.950 . S
C318 C316 1.391 . S
C318 C319 1.400 . S
C319 C318 1.400 . S
C319 C320 1.398 . S
C319 C325 1.491 1_556 S
C320 H311 0.950 1_556 S
C320 C319 1.398 . S
C320 C321 1.391 . S
C321 H309 0.950 . S
C321 C317 1.393 . S
C321 C320 1.391 . S
C322 H312 0.950 . S
C322 C323 1.386 . S
C322 C324 1.391 . S
C323 C322 1.386 . S
C323 C327 1.393 . S
C324 H313 0.950 . S
C324 C322 1.391 . S
C324 C325 1.400 . S
C325 C319 1.491 1_554 S
C325 C324 1.400 . S
C325 C326 1.398 . S
C326 H314 0.950 1_554 S
C326 C325 1.398 . S
C326 C327 1.391 . S
C327 H315 0.950 . S
C327 C323 1.393 . S
C327 C326 1.391 . S
H328 C336 0.950 . S
H329 C341 0.950 . S
H330 C338 0.950 . S
H331 C340 0.950 . S
H332 C342 0.950 . S
H333 C344 0.950 . S
H334 C346 0.950 . S
H335 C347 0.950 . S
C336 H328 0.950 . S
C336 C337 1.386 . S
C336 C338 1.391 . S
C337 C336 1.386 . S
C337 C341 1.393 . S
C338 H330 0.950 . S
C338 C336 1.391 . S
C338 C339 1.400 . S
C339 C338 1.400 . S
C339 C340 1.398 . S
C339 C345 1.491 . S
C340 H331 0.950 . S
C340 C339 1.398 . S
C340 C341 1.391 . S
C341 H329 0.950 . S
C341 C337 1.393 . S
C341 C340 1.391 . S
C342 H332 0.950 . S
C342 C343 1.386 . S
C342 C344 1.391 . S
C343 C342 1.386 . S
C343 C347 1.393 . S
C344 H333 0.950 . S
C344 C342 1.391 . S
C344 C345 1.400 . S
C345 C339 1.491 . S
C345 C344 1.400 . S
C345 C346 1.398 . S
C346 H334 0.950 . S
C346 C345 1.398 . S
C346 C347 1.391 . S
C347 H335 0.950 . S
C347 C343 1.393 . S
C347 C346 1.391 . S
H348 C356 0.950 . S
H349 C361 0.950 . S
H350 C358 0.950 . S
H351 C360 0.950 . S
H352 C362 0.950 . S
H353 C364 0.950 . S
H354 C366 0.950 . S
H355 C367 0.950 . S
C356 H348 0.950 . S
C356 C357 1.386 . S
C356 C358 1.391 1_554 S
C357 C356 1.386 . S
C357 C361 1.393 . S
C358 H350 0.950 . S
C358 C356 1.391 1_556 S
C358 C359 1.400 1_556 S
C359 C358 1.400 1_554 S
C359 C360 1.398 . S
C359 C365 1.491 1_554 S
C360 H351 0.950 . S
C360 C359 1.398 . S
C360 C361 1.391 . S
C361 H349 0.950 . S
C361 C357 1.393 . S
C361 C360 1.391 . S
C362 H352 0.950 . S
C362 C363 1.386 . S
C362 C364 1.391 1_556 S
C363 C362 1.386 . S
C363 C367 1.393 . S
C364 H353 0.950 . S
C364 C362 1.391 1_554 S
C364 C365 1.400 1_554 S
C365 C359 1.491 1_556 S
C365 C364 1.400 1_556 S
C365 C366 1.398 . S
C366 H354 0.950 . S
C366 C365 1.398 . S
C366 C367 1.391 . S
C367 H355 0.950 . S
C367 C363 1.393 . S
C367 C366 1.391 . S
H368 C376 0.950 . S
H369 C381 0.957 . S
H370 C378 0.950 1_556 S
H371 C380 0.950 . S
H372 C382 0.950 . S
H373 C384 0.950 1_554 S
H374 C386 0.950 . S
H375 C387 0.946 1_655 S
C376 H368 0.950 . S
C376 C377 1.386 . S
C376 C378 1.391 . S
C377 C376 1.386 . S
C377 C381 1.378 1_655 S
C378 H370 0.950 1_554 S
C378 C376 1.391 . S
C378 C379 1.400 . S
C379 C378 1.400 . S
C379 C380 1.398 1_655 S
C379 C385 1.491 1_644 S
C380 H371 0.950 . S
C380 C379 1.398 1_455 S
C380 C381 1.398 . S
C381 H369 0.957 . S
C381 C377 1.378 1_455 S
C381 C380 1.398 . S
C382 H372 0.950 . S
C382 C383 1.386 . S
C382 C384 1.391 . S
C383 C382 1.386 . S
C383 C387 1.399 . S
C384 H373 0.950 1_556 S
C384 C382 1.391 . S
C384 C385 1.400 . S
C385 C379 1.491 1_466 S
C385 C384 1.400 . S
C385 C386 1.398 1_455 S
C386 H374 0.950 . S
C386 C385 1.398 1_655 S
C386 C387 1.388 1_655 S
C387 H375 0.946 1_455 S
C387 C383 1.399 . S
C387 C386 1.388 1_455 S
H388 C396 0.950 . S
H389 C401 0.950 1_655 S
H390 C398 0.950 . S
H391 C400 0.950 . S
H392 C402 0.950 . S
H393 C404 0.950 . S
H394 C406 0.950 . S
H395 C407 0.945 1_455 S
C396 H388 0.950 . S
C396 C397 1.386 . S
C396 C398 1.391 . S
C397 C396 1.386 . S
C397 C401 1.393 . S
C398 H390 0.950 . S
C398 C396 1.391 . S
C398 C399 1.400 . S
C399 C398 1.400 . S
C399 C400 1.398 1_455 S
C399 C405 1.491 1_445 S
C400 H391 0.950 . S
C400 C399 1.398 1_655 S
C400 C401 1.391 1_655 S
C401 H389 0.950 1_455 S
C401 C397 1.393 . S
C401 C400 1.391 1_455 S
C402 H392 0.950 . S
C402 C403 1.386 . S
C402 C404 1.391 . S
C403 C402 1.386 . S
C403 C407 1.403 . S
C404 H393 0.950 . S
C404 C402 1.391 . S
C404 C405 1.400 . S
C405 C399 1.491 1_665 S
C405 C404 1.400 . S
C405 C406 1.398 1_655 S
C406 H394 0.950 . S
C406 C405 1.398 1_455 S
C406 C407 1.386 1_455 S
C407 H395 0.945 1_655 S
C407 C403 1.403 . S
C407 C406 1.386 1_655 S
H408 C416 0.950 . S
H409 C421 0.950 . S
H410 C418 0.950 . S
H411 C420 0.950 . S
H412 C422 0.950 . S
H413 C424 0.950 . S
H414 C426 0.950 . S
H415 C427 0.950 . S
C416 H408 0.950 . S
C416 C417 1.386 . S
C416 C418 1.391 . S
C417 C416 1.386 . S
C417 C421 1.393 . S
C418 H410 0.950 . S
C418 C416 1.391 . S
C418 C419 1.400 . S
C419 C418 1.400 . S
C419 C420 1.398 . S
C419 C425 1.491 1_554 S
C420 H411 0.950 . S
C420 C419 1.398 . S
C420 C421 1.391 . S
C421 H409 0.950 . S
C421 C417 1.393 . S
C421 C420 1.391 . S
C422 H412 0.950 . S
C422 C423 1.386 . S
C422 C424 1.391 . S
C423 C422 1.386 . S
C423 C427 1.393 . S
C424 H413 0.950 . S
C424 C422 1.391 . S
C424 C425 1.400 . S
C425 C419 1.491 1_556 S
C425 C424 1.400 . S
C425 C426 1.398 . S
C426 H414 0.950 . S
C426 C425 1.398 . S
C426 C427 1.391 . S
C427 H415 0.950 . S
C427 C423 1.393 . S
C427 C426 1.391 . S
H428 C436 0.950 . S
H429 C441 0.950 . S
H430 C438 0.950 . S
H431 C440 0.950 . S
H432 C442 0.950 . S
H433 C444 0.950 . S
H434 C446 0.950 . S
H435 C447 0.950 . S
C436 H428 0.950 . S
C436 C437 1.386 . S
C436 C438 1.391 . S
C437 C436 1.386 . S
C437 C441 1.393 . S
C438 H430 0.950 . S
C438 C436 1.391 . S
C438 C439 1.400 . S
C439 C438 1.400 . S
C439 C440 1.398 . S
C439 C445 1.491 . S
C440 H431 0.950 . S
C440 C439 1.398 . S
C440 C441 1.391 . S
C441 H429 0.950 . S
C441 C437 1.393 . S
C441 C440 1.391 . S
C442 H432 0.950 . S
C442 C443 1.386 . S
C442 C444 1.391 . S
C443 C442 1.386 . S
C443 C447 1.393 . S
C444 H433 0.950 . S
C444 C442 1.391 . S
C444 C445 1.400 . S
C445 C439 1.491 . S
C445 C444 1.400 . S
C445 C446 1.398 . S
C446 H434 0.950 . S
C446 C445 1.398 . S
C446 C447 1.391 . S
C447 H435 0.950 . S
C447 C443 1.393 . S
C447 C446 1.391 . S
C137 C27 1.267 1_556 S
C143 C8 1.267 . S
C157 C55 1.260 . S
C163 C63 1.260 1_554 S
C177 C91 1.253 1_556 S
C183 C72 1.253 . S
C197 C127 1.262 1_554 S
C203 C119 1.262 . S
C217 C24 1.215 . S
C223 C17 1.215 . S
C237 C40 1.244 . S
C243 C59 1.244 . S
C257 C81 1.241 . S
C263 C88 1.241 . S
C277 C123 1.232 . S
C283 C104 1.232 . S
C297 C120 1.613 . S
C303 C22 1.613 . S
C317 C126 1.581 . S
C323 C23 1.581 . S
C337 C86 1.625 . S
C343 C56 1.625 . S
C357 C87 1.578 . S
C363 C62 1.578 . S
C377 C30 1.661 . S
C383 C49 1.661 . S
C397 C31 1.890 . S
C403 C54 1.890 . S
C417 C94 1.679 . S
C423 C113 1.679 . S
C437 C118 1.900 . S
C443 C95 1.900 . S
