# Generated by pormake.
# Topology vbm, (6)-cn, num edge types: 1
# Building blocks:
#     Node 0, Type 0, BuildingBlock: INOVEN_clean_sbu_0, # of connection points: 6
#     Node 1, Type 0, BuildingBlock: INOVEN_clean_sbu_0, # of connection points: 6
#     Node 2, Type 0, BuildingBlock: INOVEN_clean_sbu_0, # of connection points: 6
#     Node 3, Type 0, BuildingBlock: INOVEN_clean_sbu_0, # of connection points: 6
#     Node 4, Type 0, BuildingBlock: INOVEN_clean_sbu_0, # of connection points: 6
#     Node 5, Type 0, BuildingBlock: INOVEN_clean_sbu_0, # of connection points: 6
#     Node 6, Type 0, BuildingBlock: INOVEN_clean_sbu_0, # of connection points: 6
#     Node 7, Type 0, BuildingBlock: INOVEN_clean_sbu_0, # of connection points: 6
#     Node 8, Type 0, BuildingBlock: INOVEN_clean_sbu_0, # of connection points: 6
#     Node 9, Type 0, BuildingBlock: INOVEN_clean_sbu_0, # of connection points: 6
#     Node 10, Type 0, BuildingBlock: INOVEN_clean_sbu_0, # of connection points: 6
#     Node 11, Type 0, BuildingBlock: INOVEN_clean_sbu_0, # of connection points: 6
#     Node 12, Type 0, BuildingBlock: INOVEN_clean_sbu_0, # of connection points: 6
#     Node 13, Type 0, BuildingBlock: INOVEN_clean_sbu_0, # of connection points: 6
#     Node 14, Type 0, BuildingBlock: INOVEN_clean_sbu_0, # of connection points: 6
#     Node 15, Type 0, BuildingBlock: INOVEN_clean_sbu_0, # of connection points: 6
#     Edge 16, Type (0, 0), BuildingBlock: KIFKEQ_clean_linker_1, # of connection points: 2
#     Edge 17, Type (0, 0), BuildingBlock: KIFKEQ_clean_linker_1, # of connection points: 2
#     Edge 18, Type (0, 0), BuildingBlock: KIFKEQ_clean_linker_1, # of connection points: 2
#     Edge 19, Type (0, 0), BuildingBlock: KIFKEQ_clean_linker_1, # of connection points: 2
#     Edge 20, Type (0, 0), BuildingBlock: KIFKEQ_clean_linker_1, # of connection points: 2
#     Edge 21, Type (0, 0), BuildingBlock: KIFKEQ_clean_linker_1, # of connection points: 2
#     Edge 22, Type (0, 0), BuildingBlock: KIFKEQ_clean_linker_1, # of connection points: 2
#     Edge 23, Type (0, 0), BuildingBlock: KIFKEQ_clean_linker_1, # of connection points: 2
#     Edge 24, Type (0, 0), BuildingBlock: KIFKEQ_clean_linker_1, # of connection points: 2
#     Edge 25, Type (0, 0), BuildingBlock: KIFKEQ_clean_linker_1, # of connection points: 2
#     Edge 26, Type (0, 0), BuildingBlock: KIFKEQ_clean_linker_1, # of connection points: 2
#     Edge 27, Type (0, 0), BuildingBlock: KIFKEQ_clean_linker_1, # of connection points: 2
#     Edge 28, Type (0, 0), BuildingBlock: KIFKEQ_clean_linker_1, # of connection points: 2
#     Edge 29, Type (0, 0), BuildingBlock: KIFKEQ_clean_linker_1, # of connection points: 2
#     Edge 30, Type (0, 0), BuildingBlock: KIFKEQ_clean_linker_1, # of connection points: 2
#     Edge 31, Type (0, 0), BuildingBlock: KIFKEQ_clean_linker_1, # of connection points: 2
#     Edge 32, Type (0, 0), BuildingBlock: KIFKEQ_clean_linker_1, # of connection points: 2
#     Edge 33, Type (0, 0), BuildingBlock: KIFKEQ_clean_linker_1, # of connection points: 2
#     Edge 34, Type (0, 0), BuildingBlock: KIFKEQ_clean_linker_1, # of connection points: 2
#     Edge 35, Type (0, 0), BuildingBlock: KIFKEQ_clean_linker_1, # of connection points: 2
#     Edge 36, Type (0, 0), BuildingBlock: KIFKEQ_clean_linker_1, # of connection points: 2
#     Edge 37, Type (0, 0), BuildingBlock: KIFKEQ_clean_linker_1, # of connection points: 2
#     Edge 38, Type (0, 0), BuildingBlock: KIFKEQ_clean_linker_1, # of connection points: 2
#     Edge 39, Type (0, 0), BuildingBlock: KIFKEQ_clean_linker_1, # of connection points: 2
#     Edge 40, Type (0, 0), BuildingBlock: KIFKEQ_clean_linker_1, # of connection points: 2
#     Edge 41, Type (0, 0), BuildingBlock: KIFKEQ_clean_linker_1, # of connection points: 2
#     Edge 42, Type (0, 0), BuildingBlock: KIFKEQ_clean_linker_1, # of connection points: 2
#     Edge 43, Type (0, 0), BuildingBlock: KIFKEQ_clean_linker_1, # of connection points: 2
#     Edge 44, Type (0, 0), BuildingBlock: KIFKEQ_clean_linker_1, # of connection points: 2
#     Edge 45, Type (0, 0), BuildingBlock: KIFKEQ_clean_linker_1, # of connection points: 2
#     Edge 46, Type (0, 0), BuildingBlock: KIFKEQ_clean_linker_1, # of connection points: 2
#     Edge 47, Type (0, 0), BuildingBlock: KIFKEQ_clean_linker_1, # of connection points: 2
#     Edge 48, Type (0, 0), BuildingBlock: KIFKEQ_clean_linker_1, # of connection points: 2
#     Edge 49, Type (0, 0), BuildingBlock: KIFKEQ_clean_linker_1, # of connection points: 2
#     Edge 50, Type (0, 0), BuildingBlock: KIFKEQ_clean_linker_1, # of connection points: 2
#     Edge 51, Type (0, 0), BuildingBlock: KIFKEQ_clean_linker_1, # of connection points: 2
#     Edge 52, Type (0, 0), BuildingBlock: KIFKEQ_clean_linker_1, # of connection points: 2
#     Edge 53, Type (0, 0), BuildingBlock: KIFKEQ_clean_linker_1, # of connection points: 2
#     Edge 54, Type (0, 0), BuildingBlock: KIFKEQ_clean_linker_1, # of connection points: 2
#     Edge 55, Type (0, 0), BuildingBlock: KIFKEQ_clean_linker_1, # of connection points: 2
#     Edge 56, Type (0, 0), BuildingBlock: KIFKEQ_clean_linker_1, # of connection points: 2
#     Edge 57, Type (0, 0), BuildingBlock: KIFKEQ_clean_linker_1, # of connection points: 2
#     Edge 58, Type (0, 0), BuildingBlock: KIFKEQ_clean_linker_1, # of connection points: 2
#     Edge 59, Type (0, 0), BuildingBlock: KIFKEQ_clean_linker_1, # of connection points: 2
#     Edge 60, Type (0, 0), BuildingBlock: KIFKEQ_clean_linker_1, # of connection points: 2
#     Edge 61, Type (0, 0), BuildingBlock: KIFKEQ_clean_linker_1, # of connection points: 2
#     Edge 62, Type (0, 0), BuildingBlock: KIFKEQ_clean_linker_1, # of connection points: 2
#     Edge 63, Type (0, 0), BuildingBlock: KIFKEQ_clean_linker_1, # of connection points: 2
# Relax obj value: 0.062
# Max RMSD: 0.138
# Mean RMSD: 0.138
data_MOF--net-vbm--node1-INOVEN_clean_sbu_0--edge1-KIFKEQ_clean_linker_1
_symmetry_space_group_name_H-M    P1
_symmetry_Int_Tables_number       1
_symmetry_cell_setting            triclinic
loop_
_symmetry_equiv_pos_as_xyz
'x, y, z'
_cell_length_a     56.600345
_cell_length_b     25.954612
_cell_length_c     56.010633
_cell_angle_alpha  89.890866
_cell_angle_beta   89.943455
_cell_angle_gamma 90.06493
loop_
_atom_site_label
_atom_site_type_symbol
_atom_site_fract_x
_atom_site_fract_y
_atom_site_fract_z
_atom_type_partial_charge
Gd0 Gd 0.13363 0.081 0.16466 0.0
Gd1 Gd 0.10951 0.18998 0.16133 0.0
C2 C 0.07751 0.09361 0.15166 0.0
C3 C 0.14673 0.99333 0.18234 0.0
C4 C 0.14435 0.93759 0.17779 0.0
C5 C 0.13448 0.91875 0.15653 0.0
C6 C 0.15184 0.90262 0.19529 0.0
C7 C 0.13952 0.83013 0.17053 0.0
C8 C 0.14948 0.84952 0.19172 0.0
C9 C 0.13215 0.86547 0.1529 0.0
C10 C 0.13027 0.10771 0.11781 0.0
C11 C 0.16634 0.18256 0.16587 0.0
C12 C 0.09564 0.28449 0.15569 0.0
C13 C 0.10424 0.33793 0.15289 0.0
C14 C 0.12596 0.35404 0.16243 0.0
C15 C 0.08936 0.37454 0.1423 0.0
C16 C 0.11699 0.44356 0.15217 0.0
C17 C 0.09562 0.42671 0.14193 0.0
C18 C 0.13229 0.40633 0.16205 0.0
C19 C 0.1081 0.13896 0.20381 0.0
O20 O 0.0942 0.06464 0.1616 0.0
O21 O 0.0809 0.14244 0.1462 0.0
O22 O 0.15958 1.01991 0.16718 0.0
O23 O 0.12749 1.01745 0.18902 0.0
O24 O 0.13938 0.06501 0.12559 0.0
O25 O 0.12341 0.13396 0.13551 0.0
O26 O 0.14779 0.20998 0.15942 0.0
O27 O 0.16492 0.13295 0.17141 0.0
O28 O 0.09907 0.26287 0.17652 0.0
O29 O 0.09862 0.25263 0.13783 0.0
O30 O 0.09016 0.16338 0.19487 0.0
O31 O 0.12544 0.14264 0.18988 0.0
H32 H 0.12848 0.94522 0.14285 0.0
H33 H 0.15952 0.91642 0.2118 0.0
H34 H 0.15568 0.82362 0.20553 0.0
H35 H 0.12418 0.85201 0.13649 0.0
H36 H 0.13772 0.32644 0.17073 0.0
H37 H 0.07244 0.36299 0.13501 0.0
H38 H 0.08322 0.45406 0.13447 0.0
H39 H 0.14903 0.41767 0.16977 0.0
Gd40 Gd 0.85396 0.9706 0.15879 0.0
Gd41 Gd 0.87787 0.86827 0.1551 0.0
C42 C 0.91051 0.96362 0.14703 0.0
C43 C 0.84128 0.0633 0.17044 0.0
C44 C 0.84758 0.11831 0.16707 0.0
C45 C 0.84524 0.14296 0.14482 0.0
C46 C 0.85427 0.14775 0.18697 0.0
C47 C 0.85532 0.22584 0.16269 0.0
C48 C 0.85816 0.20079 0.18481 0.0
C49 C 0.8491 0.19609 0.14266 0.0
C50 C 0.85224 0.92985 0.11428 0.0
C51 C 0.82186 0.8717 0.16557 0.0
C52 C 0.89216 0.77542 0.14595 0.0
C53 C 0.88514 0.72067 0.14707 0.0
C54 C 0.8728 0.70002 0.16666 0.0
C55 C 0.89222 0.68781 0.12858 0.0
C56 C 0.87601 0.6136 0.14974 0.0
C57 C 0.88769 0.63494 0.12985 0.0
C58 C 0.86827 0.64694 0.16797 0.0
C59 C 0.87915 0.91403 0.19877 0.0
O60 O 0.89307 0.99145 0.15615 0.0
O61 O 0.90735 0.91519 0.14106 0.0
O62 O 0.83259 0.0383 0.15218 0.0
O63 O 0.85554 0.03514 0.18338 0.0
O64 O 0.83536 0.95604 0.12411 0.0
O65 O 0.86991 0.92834 0.12807 0.0
O66 O 0.83951 0.84597 0.15591 0.0
O67 O 0.8243 0.9204 0.17196 0.0
O68 O 0.89619 0.79907 0.16614 0.0
O69 O 0.88139 0.80447 0.13027 0.0
O70 O 0.89715 0.89124 0.18913 0.0
O71 O 0.86162 0.91087 0.18511 0.0
H72 H 0.83993 0.12151 0.12914 0.0
H73 H 0.85608 0.12984 0.20436 0.0
H74 H 0.86331 0.22223 0.20054 0.0
H75 H 0.8465 0.21409 0.1254 0.0
H76 H 0.8671 0.72466 0.18114 0.0
H77 H 0.90169 0.70297 0.11327 0.0
H78 H 0.89347 0.6107 0.11526 0.0
H79 H 0.85934 0.63185 0.18361 0.0
Gd80 Gd 0.13211 0.9695 0.39714 0.0
Gd81 Gd 0.10737 0.86847 0.39742 0.0
C82 C 0.07525 0.96372 0.40737 0.0
C83 C 0.14626 0.06302 0.38887 0.0
C84 C 0.13977 0.11768 0.39257 0.0
C85 C 0.15561 0.15015 0.40459 0.0
C86 C 0.119 0.13891 0.38292 0.0
C87 C 0.13061 0.22456 0.39657 0.0
C88 C 0.1145 0.19183 0.38488 0.0
C89 C 0.15107 0.2029 0.40665 0.0
C90 C 0.13269 0.92251 0.44045 0.0
C91 C 0.16377 0.8709 0.38922 0.0
C92 C 0.09248 0.77452 0.40297 0.0
C93 C 0.1002 0.71992 0.40154 0.0
C94 C 0.09652 0.69132 0.38057 0.0
C95 C 0.10911 0.69443 0.4218 0.0
C96 C 0.10973 0.61269 0.40037 0.0
C97 C 0.11388 0.64153 0.4212 0.0
C98 C 0.10131 0.63844 0.37996 0.0
C99 C 0.10702 0.92009 0.35509 0.0
O100 O 0.09318 0.99192 0.39946 0.0
O101 O 0.07771 0.91428 0.41177 0.0
O102 O 0.15256 0.03656 0.40768 0.0
O103 O 0.1337 0.03603 0.37378 0.0
O104 O 0.15017 0.94826 0.43139 0.0
O105 O 0.11519 0.92398 0.42642 0.0
O106 O 0.14558 0.84491 0.39772 0.0
O107 O 0.16193 0.92027 0.38381 0.0
O108 O 0.09048 0.80027 0.38299 0.0
O109 O 0.10085 0.80263 0.4204 0.0
O110 O 0.08868 0.89707 0.36403 0.0
O111 O 0.12446 0.91436 0.36874 0.0
H112 H 0.17186 0.13487 0.41197 0.0
H113 H 0.10642 0.11489 0.37353 0.0
H114 H 0.09844 0.20716 0.37716 0.0
H115 H 0.16401 0.22698 0.41549 0.0
H116 H 0.08931 0.70947 0.36475 0.0
H117 H 0.11192 0.71508 0.43835 0.0
H118 H 0.12063 0.62313 0.43716 0.0
H119 H 0.0976 0.61741 0.36371 0.0
Gd120 Gd 0.85323 0.08647 0.38858 0.0
Gd121 Gd 0.87805 0.19555 0.38822 0.0
C122 C 0.90947 0.09929 0.40111 0.0
C123 C 0.83971 0.99661 0.37425 0.0
C124 C 0.84254 0.94146 0.38043 0.0
C125 C 0.82241 0.9114 0.38505 0.0
C126 C 0.86484 0.91762 0.38052 0.0
C127 C 0.84665 0.83416 0.38883 0.0
C128 C 0.86686 0.86459 0.38463 0.0
C129 C 0.82443 0.85844 0.38928 0.0
C130 C 0.85653 0.1219 0.4341 0.0
C131 C 0.82097 0.18759 0.38471 0.0
C132 C 0.89207 0.29023 0.39142 0.0
C133 C 0.88336 0.34303 0.39547 0.0
C134 C 0.89813 0.37857 0.40694 0.0
C135 C 0.8615 0.35967 0.38646 0.0
C136 C 0.87014 0.44774 0.39896 0.0
C137 C 0.85497 0.41159 0.38816 0.0
C138 C 0.8916 0.43036 0.40872 0.0
C139 C 0.87941 0.13856 0.34761 0.0
O140 O 0.89242 0.06913 0.39266 0.0
O141 O 0.90667 0.14922 0.40433 0.0
O142 O 0.82719 1.02498 0.38892 0.0
O143 O 0.85826 1.02067 0.36561 0.0
O144 O 0.84672 0.07846 0.42835 0.0
O145 O 0.8637 0.14375 0.41533 0.0
O146 O 0.8396 0.21555 0.39065 0.0
O147 O 0.82237 0.1377 0.37997 0.0
O148 O 0.88597 0.26828 0.37131 0.0
O149 O 0.89198 0.25846 0.40965 0.0
O150 O 0.89728 0.16478 0.35554 0.0
O151 O 0.86202 0.14416 0.36136 0.0
H152 H 0.80502 0.92881 0.38505 0.0
H153 H 0.88073 0.93966 0.37697 0.0
H154 H 0.88423 0.84725 0.38384 0.0
H155 H 0.80852 0.83652 0.39284 0.0
H156 H 0.91513 0.36656 0.41389 0.0
H157 H 0.84977 0.33287 0.37759 0.0
H158 H 0.83818 0.42357 0.38076 0.0
H159 H 0.90382 0.45714 0.41691 0.0
Gd160 Gd 0.87771 0.87627 0.89045 0.0
Gd161 Gd 0.85308 0.97739 0.89258 0.0
C162 C 0.82107 0.87951 0.88362 0.0
C163 C 0.89265 0.78233 0.89513 0.0
C164 C 0.88483 0.7279 0.89391 0.0
C165 C 0.88018 0.70364 0.87197 0.0
C166 C 0.88394 0.69843 0.91495 0.0
C167 C 0.8747 0.62116 0.89218 0.0
C168 C 0.87885 0.64576 0.91412 0.0
C169 C 0.87516 0.65083 0.87113 0.0
C170 C 0.87782 0.93091 0.84899 0.0
C171 C 0.91002 0.97086 0.90153 0.0
C172 C 0.83822 0.07123 0.88713 0.0
C173 C 0.84525 0.12596 0.88948 0.0
C174 C 0.83432 0.15659 0.90691 0.0
C175 C 0.86093 0.14936 0.87324 0.0
C176 C 0.85368 0.23342 0.89122 0.0
C177 C 0.86513 0.2025 0.87414 0.0
C178 C 0.83855 0.2096 0.90785 0.0
C179 C 0.85286 0.92502 0.93453 0.0
O180 O 0.83954 0.85252 0.89062 0.0
O181 O 0.82266 0.92953 0.8796 0.0
O182 O 0.8941 0.80845 0.87519 0.0
O183 O 0.88471 0.80992 0.91293 0.0
O184 O 0.89585 0.9052 0.85685 0.0
O185 O 0.86055 0.92528 0.86297 0.0
O186 O 0.8921 0.99982 0.89427 0.0
O187 O 0.90749 0.92111 0.90501 0.0
O188 O 0.83532 0.04477 0.90679 0.0
O189 O 0.8478 0.04419 0.86999 0.0
O190 O 0.83494 0.95008 0.92601 0.0
O191 O 0.87029 0.92937 0.92055 0.0
H192 H 0.88083 0.72514 0.8554 0.0
H193 H 0.88778 0.71589 0.93207 0.0
H194 H 0.87894 0.62398 0.93063 0.0
H195 H 0.87179 0.63315 0.85397 0.0
H196 H 0.82201 0.13971 0.91954 0.0
H197 H 0.86949 0.12696 0.85942 0.0
H198 H 0.87671 0.21959 0.86091 0.0
H199 H 0.82975 0.23202 0.9215 0.0
Gd200 Gd 0.10945 0.19761 0.89521 0.0
Gd201 Gd 0.13353 0.08704 0.89445 0.0
C202 C 0.16619 0.18841 0.89038 0.0
C203 C 0.0961 0.29219 0.9007 0.0
C204 C 0.10491 0.34496 0.90496 0.0
C205 C 0.12463 0.36478 0.89273 0.0
C206 C 0.09191 0.37764 0.91991 0.0
C207 C 0.11683 0.45053 0.90874 0.0
C208 C 0.09782 0.42979 0.92185 0.0
C209 C 0.13052 0.41708 0.8946 0.0
C210 C 0.10871 0.14384 0.85354 0.0
C211 C 0.07694 0.1014 0.90518 0.0
C212 C 0.147 0.99806 0.87889 0.0
C213 C 0.14533 0.94272 0.88449 0.0
C214 C 0.14088 0.92492 0.90774 0.0
C215 C 0.14794 0.90703 0.86595 0.0
C216 C 0.14184 0.83584 0.89374 0.0
C217 C 0.14622 0.8542 0.87049 0.0
C218 C 0.13917 0.87191 0.91234 0.0
C219 C 0.12994 0.12053 0.94031 0.0
O220 O 0.14793 0.2166 0.89705 0.0
O221 O 0.16441 0.13858 0.88548 0.0
O222 O 0.1009 0.27159 0.87993 0.0
O223 O 0.09713 0.25919 0.91842 0.0
O224 O 0.09124 0.172 0.86097 0.0
O225 O 0.12555 0.14681 0.8681 0.0
O226 O 0.09405 0.0713 0.89682 0.0
O227 O 0.08006 0.15081 0.90957 0.0
O228 O 0.15988 1.02669 0.89314 0.0
O229 O 0.12737 1.02045 0.8721 0.0
O230 O 0.13954 0.0771 0.93422 0.0
O231 O 0.12312 0.14324 0.92165 0.0
H232 H 0.135 0.34031 0.8811 0.0
H233 H 0.07667 0.36316 0.92954 0.0
H234 H 0.08719 0.45409 0.9333 0.0
H235 H 0.14519 0.43168 0.88415 0.0
H236 H 0.13872 0.95195 0.92229 0.0
H237 H 0.15119 0.92009 0.84785 0.0
H238 H 0.14791 0.82776 0.85565 0.0
H239 H 0.13597 0.85917 0.93047 0.0
Gd240 Gd 0.8768 0.19354 0.65357 0.0
Gd241 Gd 0.85269 0.08306 0.65825 0.0
C242 C 0.82 0.18548 0.66121 0.0
C243 C 0.88977 0.28681 0.64318 0.0
C244 C 0.88134 0.34058 0.64376 0.0
C245 C 0.86377 0.35671 0.6598 0.0
C246 C 0.89216 0.37705 0.62885 0.0
C247 C 0.86888 0.44597 0.64674 0.0
C248 C 0.88601 0.42913 0.63029 0.0
C249 C 0.85762 0.40896 0.6613 0.0
C250 C 0.87701 0.14714 0.6972 0.0
C251 C 0.90911 0.09641 0.64693 0.0
C252 C 0.83995 0.9957 0.6765 0.0
C253 C 0.8424 0.93981 0.67234 0.0
C254 C 0.84505 0.91935 0.6493 0.0
C255 C 0.84225 0.90632 0.692 0.0
C256 C 0.84728 0.83221 0.66578 0.0
C257 C 0.84466 0.85316 0.68879 0.0
C258 C 0.84739 0.866 0.64604 0.0
C259 C 0.8572 0.10801 0.61124 0.0
O260 O 0.83855 0.21406 0.65567 0.0
O261 O 0.82132 0.135 0.66496 0.0
O262 O 0.89379 0.26477 0.66381 0.0
O263 O 0.87991 0.25578 0.62769 0.0
O264 O 0.89438 0.17497 0.68915 0.0
O265 O 0.86043 0.14718 0.68226 0.0
O266 O 0.89217 0.06782 0.6567 0.0
O267 O 0.90584 0.14455 0.6402 0.0
O268 O 0.82682 1.02187 0.66146 0.0
O269 O 0.85922 1.02016 0.68284 0.0
O270 O 0.84778 0.06561 0.61908 0.0
O271 O 0.8636 0.13443 0.62901 0.0
H272 H 0.85511 0.3291 0.67142 0.0
H273 H 0.90583 0.3654 0.61643 0.0
H274 H 0.89528 0.45643 0.61902 0.0
H275 H 0.84413 0.42041 0.67394 0.0
H276 H 0.8454 0.94456 0.63387 0.0
H277 H 0.84023 0.92136 0.70993 0.0
H278 H 0.84418 0.82839 0.70436 0.0
H279 H 0.84965 0.8513 0.62811 0.0
Gd280 Gd 0.10637 0.85994 0.66492 0.0
Gd281 Gd 0.1317 0.96082 0.66127 0.0
C282 C 0.1631 0.86174 0.66914 0.0
C283 C 0.09085 0.76609 0.66184 0.0
C284 C 0.09856 0.71183 0.65965 0.0
C285 C 0.11463 0.68952 0.67576 0.0
C286 C 0.08811 0.68065 0.64217 0.0
C287 C 0.1084 0.60491 0.65779 0.0
C288 C 0.093 0.62789 0.64118 0.0
C289 C 0.11949 0.63661 0.67483 0.0
C290 C 0.1074 0.91612 0.70579 0.0
C291 C 0.07412 0.95558 0.65555 0.0
C292 C 0.14701 0.05461 0.66619 0.0
C293 C 0.13968 0.10943 0.66456 0.0
C294 C 0.13875 0.13525 0.64247 0.0
C295 C 0.13573 0.13779 0.68554 0.0
C296 C 0.13087 0.2169 0.6625 0.0
C297 C 0.13131 0.19078 0.68453 0.0
C298 C 0.13432 0.1883 0.64146 0.0
C299 C 0.13064 0.90735 0.61978 0.0
O300 O 0.14429 0.8358 0.66225 0.0
O301 O 0.16202 0.91167 0.67355 0.0
O302 O 0.09486 0.78952 0.68208 0.0
O303 O 0.09381 0.79607 0.64326 0.0
O304 O 0.08921 0.88993 0.6987 0.0
O305 O 0.12435 0.90985 0.69146 0.0
O306 O 0.09296 0.9846 0.65972 0.0
O307 O 0.07538 0.90522 0.65382 0.0
O308 O 0.14896 1.02832 0.64639 0.0
O309 O 0.13832 1.02722 0.68374 0.0
O310 O 0.14884 0.93249 0.62766 0.0
O311 O 0.11351 0.91217 0.63416 0.0
H312 H 0.12299 0.71262 0.68945 0.0
H313 H 0.07566 0.69693 0.62955 0.0
H314 H 0.08451 0.60501 0.6275 0.0
H315 H 0.1313 0.6203 0.68802 0.0
H316 H 0.14202 0.1148 0.62596 0.0
H317 H 0.13657 0.11919 0.70286 0.0
H318 H 0.1284 0.21137 0.70107 0.0
H319 H 0.13438 0.20719 0.6242 0.0
Gd320 Gd 0.63426 0.58831 0.16396 0.0
Gd321 Gd 0.60989 0.68927 0.16431 0.0
C322 C 0.5773 0.5949 0.1543 0.0
C323 C 0.6484 0.49489 0.17213 0.0
C324 C 0.64227 0.44014 0.16809 0.0
C325 C 0.65798 0.40897 0.1552 0.0
C326 C 0.62211 0.41745 0.1784 0.0
C327 C 0.6342 0.33287 0.16388 0.0
C328 C 0.61812 0.36437 0.17629 0.0
C329 C 0.65397 0.35605 0.15303 0.0
C330 C 0.63528 0.63587 0.12086 0.0
C331 C 0.66618 0.68653 0.17191 0.0
C332 C 0.59507 0.78336 0.15964 0.0
C333 C 0.60289 0.8379 0.16078 0.0
C334 C 0.60011 0.8662 0.18198 0.0
C335 C 0.61091 0.86364 0.14018 0.0
C336 C 0.61232 0.94511 0.16176 0.0
C337 C 0.61565 0.91658 0.14069 0.0
C338 C 0.60484 0.91908 0.18248 0.0
C339 C 0.60944 0.63671 0.20639 0.0
O340 O 0.59541 0.5656 0.16066 0.0
O341 O 0.57951 0.64474 0.15104 0.0
O342 O 0.65507 0.52183 0.15357 0.0
O343 O 0.63537 0.5213 0.18703 0.0
O344 O 0.65259 0.6099 0.13001 0.0
O345 O 0.61761 0.63463 0.13477 0.0
O346 O 0.64803 0.71268 0.16361 0.0
O347 O 0.66425 0.63716 0.17726 0.0
O348 O 0.59408 0.75755 0.17967 0.0
O349 O 0.60247 0.75531 0.14173 0.0
O350 O 0.59117 0.65996 0.19758 0.0
O351 O 0.6269 0.64264 0.19273 0.0
H352 H 0.67371 0.42542 0.14717 0.0
H353 H 0.60971 0.44037 0.18858 0.0
H354 H 0.60283 0.34781 0.18507 0.0
H355 H 0.66651 0.3332 0.14299 0.0
H356 H 0.59373 0.84778 0.19811 0.0
H357 H 0.61289 0.84322 0.12346 0.0
H358 H 0.62112 0.93547 0.12434 0.0
H359 H 0.6024 0.93971 0.19909 0.0
Gd360 Gd 0.35454 0.47339 0.15872 0.0
Gd361 Gd 0.37854 0.36423 0.15569 0.0
C362 C 0.41099 0.46029 0.14701 0.0
C363 C 0.34133 0.56132 0.17586 0.0
C364 C 0.34359 0.61681 0.17057 0.0
C365 C 0.35149 0.63451 0.14825 0.0
C366 C 0.33795 0.65268 0.18834 0.0
C367 C 0.34797 0.72384 0.16161 0.0
C368 C 0.34011 0.70557 0.18394 0.0
C369 C 0.35364 0.68754 0.1438 0.0
C370 C 0.35786 0.44642 0.11194 0.0
C371 C 0.32185 0.37186 0.16087 0.0
C372 C 0.39224 0.26977 0.15001 0.0
C373 C 0.38396 0.21632 0.14637 0.0
C374 C 0.36335 0.19743 0.15735 0.0
C375 C 0.39836 0.18218 0.13359 0.0
C376 C 0.37287 0.10996 0.14447 0.0
C377 C 0.39289 0.12966 0.13261 0.0
C378 C 0.35783 0.14474 0.15637 0.0
C379 C 0.37986 0.41522 0.1981 0.0
O380 O 0.39398 0.48974 0.15602 0.0
O381 O 0.40782 0.41143 0.14161 0.0
O382 O 0.32837 0.53395 0.16117 0.0
O383 O 0.36071 0.53769 0.18254 0.0
O384 O 0.34874 0.48909 0.11965 0.0
O385 O 0.36474 0.42019 0.12968 0.0
O386 O 0.34021 0.3445 0.15384 0.0
O387 O 0.32347 0.42139 0.1664 0.0
O388 O 0.38789 0.29054 0.17082 0.0
O389 O 0.39027 0.30239 0.13223 0.0
O390 O 0.39772 0.39023 0.18939 0.0
O391 O 0.36261 0.41182 0.18408 0.0
H392 H 0.35598 0.60736 0.1343 0.0
H393 H 0.33198 0.63975 0.20574 0.0
H394 H 0.336 0.73213 0.19824 0.0
H395 H 0.35953 0.70006 0.12633 0.0
H396 H 0.35196 0.22304 0.16737 0.0
H397 H 0.41433 0.1959 0.12499 0.0
H398 H 0.40462 0.10429 0.12288 0.0
H399 H 0.34234 0.13099 0.16579 0.0
Gd400 Gd 0.63107 0.46516 0.40017 0.0
Gd401 Gd 0.60658 0.3636 0.399 0.0
C402 C 0.57378 0.45861 0.40766 0.0
C403 C 0.64536 0.55894 0.3928 0.0
C404 C 0.63828 0.6137 0.39536 0.0
C405 C 0.64163 0.64015 0.41699 0.0
C406 C 0.63029 0.64142 0.37535 0.0
C407 C 0.62995 0.72117 0.39828 0.0
C408 C 0.6261 0.69443 0.37681 0.0
C409 C 0.63746 0.6932 0.41844 0.0
C410 C 0.62957 0.41675 0.44319 0.0
C411 C 0.6633 0.36727 0.39285 0.0
C412 C 0.59146 0.26993 0.40438 0.0
C413 C 0.59922 0.21558 0.40413 0.0
C414 C 0.61184 0.19454 0.38485 0.0
C415 C 0.59252 0.18332 0.42308 0.0
C416 C 0.60995 0.10918 0.40314 0.0
C417 C 0.59786 0.13077 0.42265 0.0
C418 C 0.6171 0.1418 0.38435 0.0
C419 C 0.60745 0.41609 0.35699 0.0
O420 O 0.592 0.48726 0.4008 0.0
O421 O 0.57616 0.40906 0.41187 0.0
O422 O 0.65009 0.53282 0.4122 0.0
O423 O 0.63436 0.53138 0.37673 0.0
O424 O 0.64768 0.44203 0.43514 0.0
O425 O 0.61288 0.41918 0.42827 0.0
O426 O 0.64492 0.34053 0.40041 0.0
O427 O 0.66149 0.41682 0.38786 0.0
O428 O 0.59094 0.29472 0.38403 0.0
O429 O 0.59878 0.29848 0.42211 0.0
O430 O 0.589 0.39196 0.36503 0.0
O431 O 0.62445 0.41059 0.37124 0.0
H432 H 0.64798 0.62016 0.43271 0.0
H433 H 0.62791 0.6224 0.35831 0.0
H434 H 0.62063 0.71477 0.36085 0.0
H435 H 0.64031 0.71241 0.43534 0.0
H436 H 0.61732 0.21858 0.37002 0.0
H437 H 0.58264 0.19861 0.43806 0.0
H438 H 0.59183 0.10675 0.43727 0.0
H439 H 0.6267 0.1265 0.3692 0.0
Gd440 Gd 0.35179 0.58279 0.38671 0.0
Gd441 Gd 0.3767 0.69169 0.3893 0.0
C442 C 0.40781 0.59448 0.40077 0.0
C443 C 0.3389 0.4945 0.3697 0.0
C444 C 0.34136 0.43894 0.3747 0.0
C445 C 0.34622 0.42038 0.39774 0.0
C446 C 0.33897 0.40382 0.35589 0.0
C447 C 0.34598 0.33176 0.38301 0.0
C448 C 0.34125 0.35087 0.35996 0.0
C449 C 0.34849 0.36727 0.40186 0.0
C450 C 0.35403 0.61308 0.43309 0.0
C451 C 0.31979 0.68486 0.38301 0.0
C452 C 0.39069 0.78601 0.39491 0.0
C453 C 0.38224 0.83952 0.39785 0.0
C454 C 0.36296 0.85881 0.38482 0.0
C455 C 0.39515 0.87322 0.4124 0.0
C456 C 0.37094 0.94578 0.39943 0.0
C457 C 0.38956 0.92568 0.41323 0.0
C458 C 0.35736 0.91142 0.38561 0.0
C459 C 0.37881 0.63863 0.34753 0.0
O460 O 0.39097 0.56537 0.39117 0.0
O461 O 0.40485 0.64388 0.40527 0.0
O462 O 0.32589 0.5215 0.38451 0.0
O463 O 0.35813 0.5186 0.36287 0.0
O464 O 0.34436 0.57041 0.42598 0.0
O465 O 0.36166 0.6372 0.41507 0.0
O466 O 0.3383 0.71235 0.38968 0.0
O467 O 0.32113 0.63495 0.37818 0.0
O468 O 0.38732 0.76455 0.37406 0.0
O469 O 0.38779 0.75398 0.4128 0.0
O470 O 0.39661 0.66364 0.35643 0.0
O471 O 0.36118 0.64316 0.36104 0.0
H472 H 0.34823 0.44691 0.41251 0.0
H473 H 0.3354 0.41741 0.33795 0.0
H474 H 0.33965 0.32495 0.34492 0.0
H475 H 0.35194 0.35403 0.41986 0.0
H476 H 0.35269 0.83358 0.37344 0.0
H477 H 0.41007 0.85919 0.42262 0.0
H478 H 0.4001 0.95066 0.42445 0.0
H479 H 0.34299 0.92545 0.37464 0.0
Gd480 Gd 0.38 0.36479 0.88898 0.0
Gd481 Gd 0.355 0.47452 0.88915 0.0
C482 C 0.32298 0.37236 0.88512 0.0
C483 C 0.39383 0.27023 0.89351 0.0
C484 C 0.38484 0.21736 0.89701 0.0
C485 C 0.36354 0.20084 0.88668 0.0
C486 C 0.39888 0.18161 0.90927 0.0
C487 C 0.37145 0.11243 0.89931 0.0
C488 C 0.39227 0.12972 0.91045 0.0
C489 C 0.35692 0.14885 0.8878 0.0
C490 C 0.38039 0.42057 0.84782 0.0
C491 C 0.41142 0.46183 0.90103 0.0
C492 C 0.34122 0.56336 0.87354 0.0
C493 C 0.34331 0.61898 0.87818 0.0
C494 C 0.3508 0.6382 0.90033 0.0
C495 C 0.33828 0.65347 0.85962 0.0
C496 C 0.34845 0.72628 0.88504 0.0
C497 C 0.34079 0.7065 0.86298 0.0
C498 C 0.35327 0.69149 0.90376 0.0
C499 C 0.35874 0.43888 0.93465 0.0
O500 O 0.34164 0.34443 0.89087 0.0
O501 O 0.32422 0.42253 0.88073 0.0
O502 O 0.38923 0.29205 0.87294 0.0
O503 O 0.39239 0.3021 0.91158 0.0
O504 O 0.39813 0.39297 0.85507 0.0
O505 O 0.36351 0.41617 0.86231 0.0
O506 O 0.39422 0.49192 0.89285 0.0
O507 O 0.40882 0.4118 0.90423 0.0
O508 O 0.32897 0.5357 0.88882 0.0
O509 O 0.36043 0.54031 0.86605 0.0
O510 O 0.34878 0.48229 0.92899 0.0
O511 O 0.36579 0.4174 0.91579 0.0
H512 H 0.35236 0.2278 0.87718 0.0
H513 H 0.41543 0.19353 0.91727 0.0
H514 H 0.40403 0.10281 0.91924 0.0
H515 H 0.3406 0.13702 0.87934 0.0
H516 H 0.35493 0.61205 0.91483 0.0
H517 H 0.3325 0.63931 0.84239 0.0
H518 H 0.33657 0.73208 0.8483 0.0
H519 H 0.3594 0.70537 0.92089 0.0
Gd520 Gd 0.60841 0.69701 0.89808 0.0
Gd521 Gd 0.6335 0.59595 0.89809 0.0
C522 C 0.66485 0.6949 0.88949 0.0
C523 C 0.59313 0.79037 0.90411 0.0
C524 C 0.60062 0.84493 0.90392 0.0
C525 C 0.61587 0.86489 0.88636 0.0
C526 C 0.59122 0.87832 0.92112 0.0
C527 C 0.61131 0.95151 0.90276 0.0
C528 C 0.5965 0.93095 0.92059 0.0
C529 C 0.62111 0.91773 0.88576 0.0
C530 C 0.60773 0.64504 0.85603 0.0
C531 C 0.57656 0.60096 0.90791 0.0
C532 C 0.64778 0.50239 0.89028 0.0
C533 C 0.64069 0.44751 0.89259 0.0
C534 C 0.6402 0.42248 0.91489 0.0
C535 C 0.63641 0.41838 0.87192 0.0
C536 C 0.63217 0.33996 0.89563 0.0
C537 C 0.63212 0.36534 0.87341 0.0
C538 C 0.63597 0.36936 0.91638 0.0
C539 C 0.63393 0.64461 0.94095 0.0
O540 O 0.64665 0.7209 0.89792 0.0
O541 O 0.66316 0.64533 0.88453 0.0
O542 O 0.59244 0.76616 0.88366 0.0
O543 O 0.6009 0.76152 0.92158 0.0
O544 O 0.58952 0.66857 0.86486 0.0
O545 O 0.62528 0.65065 0.86957 0.0
O546 O 0.59462 0.57307 0.90018 0.0
O547 O 0.57879 0.65049 0.91217 0.0
O548 O 0.65254 0.52803 0.90978 0.0
O549 O 0.63678 0.53031 0.87433 0.0
O550 O 0.65178 0.62005 0.93197 0.0
O551 O 0.61644 0.64133 0.92704 0.0
H552 H 0.62346 0.83985 0.87295 0.0
H553 H 0.57934 0.8638 0.93475 0.0
H554 H 0.5884 0.95577 0.93378 0.0
H555 H 0.63281 0.93215 0.87197 0.0
H556 H 0.64354 0.44363 0.93119 0.0
H557 H 0.63699 0.43641 0.85446 0.0
H558 H 0.62957 0.34395 0.85703 0.0
H559 H 0.63581 0.35126 0.93381 0.0
Gd560 Gd 0.37519 0.68371 0.65275 0.0
Gd561 Gd 0.35201 0.57271 0.65867 0.0
C562 C 0.31861 0.67434 0.66178 0.0
C563 C 0.38766 0.77636 0.64067 0.0
C564 C 0.38031 0.83062 0.64276 0.0
C565 C 0.3628 0.84624 0.65896 0.0
C566 C 0.39166 0.86773 0.62863 0.0
C567 C 0.36864 0.93616 0.64722 0.0
C568 C 0.38592 0.91988 0.63081 0.0
C569 C 0.35704 0.8986 0.6612 0.0
C570 C 0.37607 0.63954 0.69691 0.0
C571 C 0.40802 0.58749 0.6469 0.0
C572 C 0.33978 0.48564 0.67758 0.0
C573 C 0.34216 0.42972 0.67356 0.0
C574 C 0.34528 0.40915 0.6506 0.0
C575 C 0.34147 0.39634 0.69324 0.0
C576 C 0.34686 0.32205 0.6672 0.0
C577 C 0.34379 0.34312 0.69013 0.0
C578 C 0.34753 0.35577 0.64744 0.0
C579 C 0.35661 0.59529 0.6113 0.0
O580 O 0.33694 0.7036 0.65621 0.0
O581 O 0.32029 0.62382 0.66526 0.0
O582 O 0.39472 0.75357 0.66027 0.0
O583 O 0.37475 0.74652 0.6271 0.0
O584 O 0.39303 0.66813 0.68855 0.0
O585 O 0.35945 0.63811 0.68205 0.0
O586 O 0.39167 0.5597 0.65807 0.0
O587 O 0.40375 0.63414 0.63864 0.0
O588 O 0.32631 0.51145 0.66271 0.0
O589 O 0.35918 0.51028 0.68333 0.0
O590 O 0.3476 0.55289 0.6196 0.0
O591 O 0.36256 0.62291 0.62882 0.0
H592 H 0.35376 0.81806 0.66998 0.0
H593 H 0.40529 0.85641 0.61608 0.0
H594 H 0.39549 0.94758 0.62001 0.0
H595 H 0.34346 0.90965 0.67383 0.0
H596 H 0.34605 0.43431 0.63517 0.0
H597 H 0.33909 0.41148 0.7111 0.0
H598 H 0.34287 0.31841 0.7057 0.0
H599 H 0.35016 0.34097 0.62957 0.0
Gd600 Gd 0.60762 0.36658 0.66549 0.0
Gd601 Gd 0.63224 0.47665 0.66601 0.0
C602 C 0.66462 0.37445 0.66764 0.0
C603 C 0.59333 0.27237 0.6609 0.0
C604 C 0.60145 0.21912 0.65663 0.0
C605 C 0.62166 0.19909 0.66785 0.0
C606 C 0.58732 0.18627 0.64286 0.0
C607 C 0.6121 0.11288 0.65336 0.0
C608 C 0.59259 0.13379 0.64118 0.0
C609 C 0.62694 0.14644 0.66622 0.0
C610 C 0.60718 0.42093 0.70689 0.0
C611 C 0.57581 0.46361 0.65492 0.0
C612 C 0.64636 0.56496 0.68173 0.0
C613 C 0.64309 0.62053 0.67712 0.0
C614 C 0.64246 0.64087 0.65385 0.0
C615 C 0.64052 0.65392 0.69659 0.0
C616 C 0.63667 0.72747 0.66976 0.0
C617 C 0.63732 0.70675 0.69298 0.0
C618 C 0.63937 0.69391 0.65022 0.0
C619 C 0.62647 0.44456 0.62017 0.0
O620 O 0.64581 0.34658 0.66242 0.0
O621 O 0.66356 0.42453 0.67225 0.0
O622 O 0.59896 0.29321 0.68141 0.0
O623 O 0.59412 0.30493 0.64299 0.0
O624 O 0.58925 0.39461 0.69916 0.0
O625 O 0.62421 0.41686 0.69255 0.0
O626 O 0.59281 0.49338 0.66379 0.0
O627 O 0.57883 0.41413 0.6506 0.0
O628 O 0.65812 0.53813 0.6658 0.0
O629 O 0.62803 0.5404 0.69052 0.0
O630 O 0.63524 0.4891 0.62593 0.0
O631 O 0.62108 0.421 0.63908 0.0
H632 H 0.6329 0.22369 0.67856 0.0
H633 H 0.57168 0.20092 0.63402 0.0
H634 H 0.58106 0.10937 0.63071 0.0
H635 H 0.64204 0.13171 0.67592 0.0
H636 H 0.64425 0.61583 0.63851 0.0
H637 H 0.641 0.63906 0.71468 0.0
H638 H 0.63561 0.7315 0.70843 0.0
H639 H 0.6387 0.70853 0.63211 0.0
H640 H 0.20942 0.14492 0.18048 0.0
H641 H 0.17528 0.28227 0.15357 0.0
H642 H 0.24706 0.19127 0.18154 0.0
H643 H 0.21262 0.32765 0.15423 0.0
H644 H 0.31247 0.27167 0.1498 0.0
H645 H 0.27525 0.22603 0.15299 0.0
H646 H 0.24209 0.36326 0.18084 0.0
H647 H 0.27949 0.40976 0.17718 0.0
C648 C 0.20991 0.18483 0.17481 0.0
C649 C 0.18932 0.20973 0.16694 0.0
C650 C 0.23145 0.21135 0.17535 0.0
C651 C 0.23279 0.26322 0.16803 0.0
C652 C 0.21215 0.28807 0.1604 0.0
C653 C 0.19071 0.26173 0.15986 0.0
C654 C 0.29732 0.29235 0.15666 0.0
C655 C 0.29897 0.34463 0.16313 0.0
C656 C 0.27598 0.26586 0.15869 0.0
C657 C 0.25573 0.29089 0.16724 0.0
C658 C 0.25737 0.34304 0.17395 0.0
C659 C 0.27878 0.36967 0.1719 0.0
H660 H 0.81153 0.77184 0.15483 0.0
H661 H 0.78122 0.90927 0.18578 0.0
H662 H 0.77416 0.72723 0.15971 0.0
H663 H 0.74378 0.86386 0.19121 0.0
H664 H 0.67515 0.78811 0.16371 0.0
H665 H 0.71285 0.83231 0.16525 0.0
H666 H 0.74662 0.69174 0.18861 0.0
H667 H 0.70872 0.64676 0.18651 0.0
C668 C 0.79695 0.79248 0.1629 0.0
C669 C 0.7993 0.84436 0.16972 0.0
C670 C 0.77556 0.76662 0.16591 0.0
C671 C 0.75599 0.79195 0.17586 0.0
C672 C 0.75847 0.84348 0.18323 0.0
C673 C 0.77993 0.86946 0.18017 0.0
C674 C 0.69054 0.76651 0.16934 0.0
C675 C 0.68896 0.71369 0.17478 0.0
C676 C 0.71216 0.7921 0.17042 0.0
C677 C 0.73275 0.76557 0.17701 0.0
C678 C 0.73109 0.71308 0.18317 0.0
C679 C 0.70938 0.68737 0.18207 0.0
H680 H 0.31087 0.78636 0.39178 0.0
H681 H 0.27665 0.64493 0.37006 0.0
H682 H 0.27322 0.83053 0.39097 0.0
H683 H 0.2388 0.68996 0.36865 0.0
H684 H 0.17374 0.77111 0.40064 0.0
H685 H 0.21111 0.72623 0.3967 0.0
H686 H 0.24242 0.86247 0.36538 0.0
H687 H 0.20499 0.90812 0.36992 0.0
C688 C 0.29535 0.76467 0.38658 0.0
C689 C 0.29681 0.71184 0.38115 0.0
C690 C 0.27372 0.79028 0.38593 0.0
C691 C 0.25296 0.76387 0.37974 0.0
C692 C 0.25444 0.71128 0.37379 0.0
C693 C 0.27615 0.68551 0.37449 0.0
C694 C 0.18853 0.79159 0.39281 0.0
C695 C 0.1864 0.84342 0.38574 0.0
C696 C 0.20995 0.7656 0.39037 0.0
C697 C 0.22979 0.79067 0.38072 0.0
C698 C 0.22755 0.84222 0.37318 0.0
C699 C 0.20609 0.86835 0.3757 0.0
H700 H 0.77806 0.14693 0.37165 0.0
H701 H 0.81122 0.28765 0.39583 0.0
H702 H 0.73982 0.19033 0.37142 0.0
H703 H 0.77314 0.33026 0.39615 0.0
H704 H 0.70462 0.40677 0.37501 0.0
H705 H 0.7424 0.36274 0.37067 0.0
H706 H 0.71159 0.22376 0.39983 0.0
H707 H 0.67374 0.26718 0.40357 0.0
C708 C 0.77723 0.18702 0.3769 0.0
C709 C 0.79774 0.21369 0.38378 0.0
C710 C 0.7553 0.21184 0.37688 0.0
C711 C 0.75341 0.26379 0.38378 0.0
C712 C 0.77398 0.2905 0.39036 0.0
C713 C 0.79585 0.26583 0.39033 0.0
C714 C 0.70588 0.36677 0.3804 0.0
C715 C 0.68618 0.34062 0.38974 0.0
C716 C 0.72757 0.34157 0.378 0.0
C717 C 0.73005 0.28974 0.38497 0.0
C718 C 0.71024 0.26345 0.39398 0.0
C719 C 0.68856 0.28855 0.3963 0.0
H720 H 0.67494 0.795 0.90023 0.0
H721 H 0.70579 0.65747 0.86997 0.0
H722 H 0.71243 0.83962 0.89593 0.0
H723 H 0.74326 0.70282 0.86502 0.0
H724 H 0.8119 0.7779 0.89173 0.0
H725 H 0.77409 0.73416 0.89054 0.0
H726 H 0.74038 0.87539 0.86794 0.0
H727 H 0.77838 0.91992 0.86979 0.0
C728 C 0.68966 0.77437 0.89243 0.0
C729 C 0.68743 0.72244 0.88565 0.0
C730 C 0.71114 0.8002 0.88976 0.0
C731 C 0.73088 0.77483 0.88016 0.0
C732 C 0.72848 0.72327 0.8728 0.0
C733 C 0.70699 0.6973 0.87557 0.0
C734 C 0.7965 0.79975 0.88634 0.0
C735 C 0.79816 0.85261 0.88102 0.0
C736 C 0.77479 0.77443 0.88548 0.0
C737 C 0.75417 0.80122 0.87917 0.0
C738 C 0.7559 0.8538 0.87319 0.0
C739 C 0.77768 0.87927 0.87413 0.0
H740 H 0.31381 0.2717 0.89566 0.0
H741 H 0.28003 0.41171 0.87139 0.0
H742 H 0.27613 0.22747 0.89505 0.0
H743 H 0.24216 0.36661 0.87021 0.0
H744 H 0.17656 0.28797 0.90178 0.0
H745 H 0.21418 0.33199 0.89844 0.0
H746 H 0.2457 0.1941 0.86934 0.0
H747 H 0.20795 0.14919 0.87328 0.0
C748 C 0.29839 0.29304 0.88994 0.0
C749 C 0.29996 0.34548 0.88368 0.0
C750 C 0.27675 0.26739 0.88942 0.0
C751 C 0.25612 0.29342 0.88257 0.0
C752 C 0.25771 0.34563 0.87588 0.0
C753 C 0.27941 0.37144 0.87646 0.0
C754 C 0.19145 0.26684 0.89462 0.0
C755 C 0.18924 0.21482 0.88791 0.0
C756 C 0.21302 0.29238 0.89251 0.0
C757 C 0.23294 0.26669 0.88356 0.0
C758 C 0.23072 0.21482 0.87658 0.0
C759 C 0.20909 0.1891 0.87877 0.0
H760 H 0.70783 0.41175 0.682 0.0
H761 H 0.6733 0.27487 0.65514 0.0
H762 H 0.74534 0.36526 0.68297 0.0
H763 H 0.71059 0.22941 0.65549 0.0
H764 H 0.77754 0.14641 0.67696 0.0
H765 H 0.74017 0.1926 0.68104 0.0
H766 H 0.77358 0.33165 0.65505 0.0
H767 H 0.81077 0.28641 0.65161 0.0
C768 C 0.70823 0.37194 0.67624 0.0
C769 C 0.68757 0.34722 0.66843 0.0
C770 C 0.72971 0.34531 0.67674 0.0
C771 C 0.73096 0.29354 0.66933 0.0
C772 C 0.71023 0.26887 0.66173 0.0
C773 C 0.68883 0.29529 0.66133 0.0
C774 C 0.77689 0.18685 0.6722 0.0
C775 C 0.79715 0.21252 0.66389 0.0
C776 C 0.75548 0.21332 0.67447 0.0
C777 C 0.75389 0.26589 0.66839 0.0
C778 C 0.77423 0.2915 0.6603 0.0
C779 C 0.79556 0.26523 0.65813 0.0
H780 H 0.17122 0.76069 0.65896 0.0
H781 H 0.20616 0.89875 0.68383 0.0
H782 H 0.20854 0.71503 0.65945 0.0
H783 H 0.24361 0.85221 0.68505 0.0
H784 H 0.3084 0.77473 0.65207 0.0
H785 H 0.27106 0.81888 0.6565 0.0
H786 H 0.23927 0.67923 0.68384 0.0
H787 H 0.27682 0.6341 0.67876 0.0
C788 C 0.18684 0.78125 0.66481 0.0
C789 C 0.18574 0.83366 0.67113 0.0
C790 C 0.20825 0.75478 0.66529 0.0
C791 C 0.22911 0.77991 0.67221 0.0
C792 C 0.22791 0.83192 0.67925 0.0
C793 C 0.20645 0.85857 0.67866 0.0
C794 C 0.29353 0.75319 0.65911 0.0
C795 C 0.29563 0.70064 0.66497 0.0
C796 C 0.2721 0.77883 0.66185 0.0
C797 C 0.25217 0.75278 0.67065 0.0
C798 C 0.25425 0.70031 0.67678 0.0
C799 C 0.27577 0.67445 0.67391 0.0
H800 H 0.14407 0.9394 0.32522 0.0
H801 H 0.07016 0.97232 0.33515 0.0
H802 H 0.14417 0.98924 0.28842 0.0
H803 H 0.07037 1.02629 0.2996 0.0
H804 H 0.07031 0.09057 0.22451 0.0
H805 H 0.07001 0.03608 0.25993 0.0
H806 H 0.14488 0.06446 0.26924 0.0
H807 H 0.14515 0.11479 0.23263 0.0
C808 C 0.12787 0.95802 0.3196 0.0
C809 C 0.10708 0.95164 0.33294 0.0
C810 C 0.1279 0.98734 0.29851 0.0
C811 C 0.10728 1.01275 0.29052 0.0
C812 C 0.08656 1.00674 0.30437 0.0
C813 C 0.0864 0.97602 0.32503 0.0
C814 C 0.08666 0.08483 0.23419 0.0
C815 C 0.10774 0.10696 0.22582 0.0
C816 C 0.08655 0.05381 0.25477 0.0
C817 C 0.10742 0.04526 0.26806 0.0
C818 C 0.12844 0.06836 0.25959 0.0
C819 C 0.12864 0.09797 0.23861 0.0
H820 H 0.91705 0.08863 0.32772 0.0
H821 H 0.84221 0.11233 0.3194 0.0
H822 H 0.91723 0.03203 0.2931 0.0
H823 H 0.84237 0.05989 0.28354 0.0
H824 H 0.84273 0.93277 0.22922 0.0
H825 H 0.84303 0.98338 0.26566 0.0
H826 H 0.91672 1.02045 0.25346 0.0
H827 H 0.91655 0.96563 0.21823 0.0
C828 C 0.90067 0.08223 0.31818 0.0
C829 C 0.87963 0.10484 0.32624 0.0
C830 C 0.90072 0.05001 0.29806 0.0
C831 C 0.87982 0.04073 0.28495 0.0
C832 C 0.85882 0.06428 0.29312 0.0
C833 C 0.85868 0.09509 0.31366 0.0
C834 C 0.85901 0.95144 0.23457 0.0
C835 C 0.87964 0.94493 0.22102 0.0
C836 C 0.8592 0.98125 0.25542 0.0
C837 C 0.87987 1.0071 0.26294 0.0
C838 C 0.90049 1.00067 0.249 0.0
C839 C 0.90044 0.96941 0.22855 0.0
H840 H 0.91321 0.13516 0.72917 0.0
H841 H 0.84093 0.09059 0.71632 0.0
H842 H 0.91335 0.08439 0.76597 0.0
H843 H 0.84125 0.03788 0.75236 0.0
H844 H 0.84094 0.98528 0.82991 0.0
H845 H 0.8409 0.03918 0.79419 0.0
H846 H 0.91402 0.99992 0.78144 0.0
H847 H 0.91421 0.94804 0.81783 0.0
C848 C 0.89738 0.11426 0.73416 0.0
C849 C 0.87712 0.1167 0.71974 0.0
C850 C 0.89748 0.08468 0.75519 0.0
C851 C 0.87733 0.05652 0.76233 0.0
C852 C 0.85703 0.05941 0.74784 0.0
C853 C 0.85688 0.08934 0.72697 0.0
C854 C 0.85705 0.9885 0.81955 0.0
C855 C 0.87762 0.96263 0.82682 0.0
C856 C 0.85699 1.01908 0.79886 0.0
C857 C 0.87746 1.02424 0.78467 0.0
C858 C 0.898 0.99788 0.79197 0.0
C859 C 0.89808 0.96764 0.81278 0.0
H860 H 0.07257 0.12876 0.82185 0.0
H861 H 0.14477 0.08532 0.83581 0.0
H862 H 0.0725 0.07508 0.78608 0.0
H863 H 0.1445 0.02966 0.80079 0.0
H864 H 0.1447 0.97084 0.72407 0.0
H865 H 0.14497 1.02721 0.75892 0.0
H866 H 0.07169 0.98973 0.77229 0.0
H867 H 0.07128 0.9356 0.73676 0.0
C868 C 0.08839 0.10742 0.81734 0.0
C869 C 0.10862 0.11109 0.83176 0.0
C870 C 0.08833 0.07619 0.7969 0.0
C871 C 0.10848 0.04748 0.79036 0.0
C872 C 0.12874 0.05152 0.80486 0.0
C873 C 0.12884 0.08313 0.82515 0.0
C874 C 0.12862 0.97506 0.73437 0.0
C875 C 0.10792 0.94911 0.72749 0.0
C876 C 0.12879 1.00702 0.75457 0.0
C877 C 0.10833 1.01346 0.76865 0.0
C878 C 0.08771 0.98681 0.7618 0.0
C879 C 0.0875 0.95526 0.74149 0.0
H880 H 0.64533 0.43876 0.32862 0.0
H881 H 0.57075 0.46702 0.33626 0.0
H882 H 0.64596 0.48957 0.29206 0.0
H883 H 0.5714 0.5218 0.30104 0.0
H884 H 0.57228 0.58514 0.22609 0.0
H885 H 0.57202 0.53066 0.26142 0.0
H886 H 0.64609 0.56497 0.27271 0.0
H887 H 0.64644 0.61546 0.23604 0.0
C888 C 0.6291 0.45656 0.32255 0.0
C889 C 0.60796 0.44852 0.33513 0.0
C890 C 0.62942 0.48638 0.30161 0.0
C891 C 0.60871 0.51053 0.29303 0.0
C892 C 0.58767 0.50312 0.30622 0.0
C893 C 0.58725 0.47194 0.3267 0.0
C894 C 0.58848 0.58074 0.23617 0.0
C895 C 0.60935 0.60461 0.22835 0.0
C896 C 0.58837 0.54975 0.25672 0.0
C897 C 0.609 0.54297 0.27058 0.0
C898 C 0.62986 0.56765 0.26262 0.0
C899 C 0.63009 0.59728 0.24162 0.0
H900 H 0.34228 0.61614 0.31785 0.0
H901 H 0.41652 0.58774 0.32815 0.0
H902 H 0.34282 0.56501 0.28162 0.0
H903 H 0.41699 0.53227 0.29312 0.0
H904 H 0.41746 0.46473 0.21849 0.0
H905 H 0.41745 0.51999 0.25359 0.0
H906 H 0.34279 0.48935 0.26331 0.0
H907 H 0.34279 0.43844 0.227 0.0
C908 C 0.35871 0.59817 0.31244 0.0
C909 C 0.37938 0.6062 0.32573 0.0
C910 C 0.35905 0.56807 0.29169 0.0
C911 C 0.37994 0.54337 0.28396 0.0
C912 C 0.40058 0.5511 0.29772 0.0
C913 C 0.40036 0.58269 0.31807 0.0
C914 C 0.40109 0.47017 0.2282 0.0
C915 C 0.38014 0.44734 0.22002 0.0
C916 C 0.40103 0.50165 0.24859 0.0
C917 C 0.3801 0.50993 0.26186 0.0
C918 C 0.35924 0.48586 0.25363 0.0
C919 C 0.35921 0.45587 0.23283 0.0
H920 H 0.41649 0.43914 0.81629 0.0
H921 H 0.34336 0.47556 0.82974 0.0
H922 H 0.4156 0.492 0.78012 0.0
H923 H 0.34262 0.53021 0.79433 0.0
H924 H 0.34079 0.58173 0.71664 0.0
H925 H 0.34218 0.5286 0.7525 0.0
H926 H 0.41423 0.57707 0.76479 0.0
H927 H 0.41301 0.62845 0.72816 0.0
C928 C 0.40026 0.45878 0.8116 0.0
C929 C 0.38003 0.45327 0.82595 0.0
C930 C 0.39977 0.48953 0.79093 0.0
C931 C 0.37904 0.51577 0.78408 0.0
C932 C 0.35884 0.51017 0.79861 0.0
C933 C 0.3593 0.47913 0.81913 0.0
C934 C 0.35696 0.5809 0.72697 0.0
C935 C 0.37685 0.60903 0.71943 0.0
C936 C 0.35772 0.5507 0.74774 0.0
C937 C 0.37832 0.54825 0.76182 0.0
C938 C 0.39815 0.5771 0.75435 0.0
C939 C 0.39742 0.60702 0.73342 0.0
H940 H 0.57073 0.59185 0.83696 0.0
H941 H 0.64445 0.62552 0.82585 0.0
H942 H 0.57063 0.53684 0.80186 0.0
H943 H 0.6442 0.57468 0.78944 0.0
H944 H 0.64472 0.44733 0.73467 0.0
H945 H 0.64487 0.49911 0.77077 0.0
H946 H 0.56978 0.52571 0.76237 0.0
H947 H 0.56969 0.46977 0.72756 0.0
C948 C 0.58685 0.5881 0.82666 0.0
C949 C 0.60758 0.61298 0.83411 0.0
C950 C 0.58683 0.55678 0.80625 0.0
C951 C 0.60739 0.55069 0.79219 0.0
C952 C 0.62805 0.57663 0.79972 0.0
C953 C 0.62822 0.60652 0.82057 0.0
C954 C 0.62826 0.46413 0.74074 0.0
C955 C 0.60718 0.45418 0.72843 0.0
C956 C 0.6283 0.49455 0.76142 0.0
C957 C 0.60732 0.51751 0.77002 0.0
C958 C 0.58629 0.50811 0.75713 0.0
C959 C 0.58618 0.47626 0.73689 0.0
H960 H 0.16717 0.12329 0.9697 0.0
H961 H 0.09276 0.15787 0.96715 0.0
H962 H 0.16685 0.13231 1.01292 0.0
H963 H 0.09213 0.16525 1.0111 0.0
H964 H 0.10895 0.19127 0.09476 0.0
H965 H 0.10837 0.20796 0.0512 0.0
H966 H 0.14822 0.06843 0.03976 0.0
H967 H 0.14889 0.05231 0.08217 0.0
C968 C 0.15083 0.13421 0.97843 0.0
C969 C 0.13002 0.13986 0.96514 0.0
C970 C 0.15058 0.13904 1.00323 0.0
C971 C 0.12936 0.14836 1.01557 0.0
C972 C 0.10877 0.15814 1.00215 0.0
C973 C 0.10912 0.15402 0.97702 0.0
C974 C 0.11762 0.16455 0.08281 0.0
C975 C 0.12914 0.12071 0.09197 0.0
C976 C 0.11721 0.17393 0.05793 0.0
C977 C 0.12861 0.13996 0.042 0.0
C978 C 0.13975 0.09611 0.05142 0.0
C979 C 0.14 0.0867 0.07588 0.0
H980 H 0.81725 0.89527 0.96368 0.0
H981 H 0.89199 0.92743 0.96359 0.0
H982 H 0.81781 0.88666 1.00694 0.0
H983 H 0.89251 0.92183 1.00724 0.0
H984 H 0.88817 0.88717 0.08745 0.0
H985 H 0.88929 0.87619 0.04394 0.0
H986 H 0.81939 0.94238 0.03899 0.0
H987 H 0.81802 0.95093 0.08195 0.0
C988 C 0.83387 0.90017 0.97299 0.0
C989 C 0.85451 0.91236 0.9603 0.0
C990 C 0.8342 0.89582 0.99788 0.0
C991 C 0.85509 0.90484 1.01091 0.0
C992 C 0.87607 0.91439 0.998 0.0
C993 C 0.87581 0.91775 0.97293 0.0
C994 C 0.87299 0.89866 0.07696 0.0
C995 C 0.853 0.91989 0.08817 0.0
C996 C 0.87366 0.89276 0.05199 0.0
C997 C 0.85439 0.90813 0.03768 0.0
C998 C 0.8344 0.92881 0.04916 0.0
C999 C 0.83366 0.93423 0.07396 0.0
H1000 H 0.09514 0.88323 0.46631 0.0
H1001 H 0.16726 0.93497 0.47333 0.0
H1002 H 0.09317 0.86919 0.50964 0.0
H1003 H 0.16516 0.9233 0.51613 0.0
H1004 H 0.09169 0.91666 0.5907 0.0
H1005 H 0.09123 0.91301 0.54699 0.0
H1006 H 0.16437 0.86507 0.54739 0.0
H1007 H 0.16498 0.87171 0.59071 0.0
C1008 C 0.11059 0.89135 0.47708 0.0
C1009 C 0.13136 0.9102 0.46636 0.0
C1010 C 0.10943 0.8837 0.50196 0.0
C1011 C 0.12903 0.89481 0.51665 0.0
C1012 C 0.14982 0.91299 0.50563 0.0
C1013 C 0.151 0.92021 0.48094 0.0
C1014 C 0.10749 0.90444 0.58136 0.0
C1015 C 0.12845 0.89492 0.59405 0.0
C1016 C 0.10726 0.90227 0.55626 0.0
C1017 C 0.12793 0.88985 0.54338 0.0
C1018 C 0.1483 0.87652 0.55644 0.0
C1019 C 0.14863 0.87969 0.58136 0.0
H1020 H 0.88029 0.18926 0.58815 0.0
H1021 H 0.8363 0.05599 0.57581 0.0
H1022 H 0.88067 0.20671 0.54468 0.0
H1023 H 0.83674 0.07284 0.53344 0.0
H1024 H 0.81933 0.12969 0.46343 0.0
H1025 H 0.8199 0.13884 0.50666 0.0
H1026 H 0.89538 0.1626 0.50462 0.0
H1027 H 0.89453 0.15515 0.46072 0.0
C1028 C 0.87064 0.16404 0.57627 0.0
C1029 C 0.8581 0.12152 0.58546 0.0
C1030 C 0.87094 0.17381 0.55143 0.0
C1031 C 0.85839 0.14165 0.53559 0.0
C1032 C 0.84614 0.09917 0.54504 0.0
C1033 C 0.84602 0.08929 0.56946 0.0
C1034 C 0.83592 0.13872 0.47212 0.0
C1035 C 0.85684 0.14177 0.4588 0.0
C1036 C 0.83631 0.1436 0.49692 0.0
C1037 C 0.85777 0.1503 0.50919 0.0
C1038 C 0.87857 0.15756 0.49572 0.0
C1039 C 0.87809 0.15342 0.47062 0.0
H1040 H 0.59849 0.67639 0.09428 0.0
H1041 H 0.66985 0.61957 0.08837 0.0
H1042 H 0.59714 0.6883 0.05078 0.0
H1043 H 0.66827 0.62864 0.04551 0.0
H1044 H 0.66949 0.67461 0.97005 0.0
H1045 H 0.66896 0.68294 1.01329 0.0
H1046 H 0.59458 0.64459 1.01394 0.0
H1047 H 0.59503 0.63972 0.97031 0.0
C1048 C 0.61389 0.66665 0.08372 0.0
C1049 C 0.63427 0.64705 0.09481 0.0
C1050 C 0.61309 0.67304 0.05874 0.0
C1051 C 0.63263 0.65969 0.0443 0.0
C1052 C 0.65301 0.64073 0.05572 0.0
C1053 C 0.65387 0.63497 0.08049 0.0
C1054 C 0.65295 0.6689 0.97945 0.0
C1055 C 0.63238 0.65617 0.96683 0.0
C1056 C 0.65264 0.67307 1.00435 0.0
C1057 C 0.63185 0.66312 1.0175 0.0
C1058 C 0.61093 0.6528 1.00466 0.0
C1059 C 0.61117 0.64979 0.97959 0.0
H1060 H 0.32126 0.43014 0.9636 0.0
H1061 H 0.39644 0.40461 0.9615 0.0
H1062 H 0.32136 0.41907 1.00675 0.0
H1063 H 0.39682 0.39526 1.00536 0.0
H1064 H 0.38088 0.36547 0.08864 0.0
H1065 H 0.38166 0.3496 0.04504 0.0
H1066 H 0.3379 0.48373 0.03419 0.0
H1067 H 0.33706 0.49904 0.07661 0.0
C1068 C 0.33775 0.42072 0.9724 0.0
C1069 C 0.35881 0.4182 0.95927 0.0
C1070 C 0.33787 0.41473 0.99716 0.0
C1071 C 0.35918 0.40742 1.00963 0.0
C1072 C 0.38011 0.40074 0.99632 0.0
C1073 C 0.37991 0.40599 0.97124 0.0
C1074 C 0.37136 0.39109 0.0768 0.0
C1075 C 0.35878 0.4333 0.08612 0.0
C1076 C 0.37188 0.38221 0.0519 0.0
C1077 C 0.35952 0.41494 0.03611 0.0
C1078 C 0.34716 0.45697 0.04571 0.0
C1079 C 0.34682 0.46595 0.07019 0.0
H1080 H 0.58838 0.41789 0.46889 0.0
H1081 H 0.66348 0.39409 0.47597 0.0
H1082 H 0.58421 0.41514 0.51251 0.0
H1083 H 0.65915 0.38957 0.5195 0.0
H1084 H 0.63612 0.35221 0.59833 0.0
H1085 H 0.63479 0.33478 0.55503 0.0
H1086 H 0.60472 0.48525 0.543 0.0
H1087 H 0.60702 0.50328 0.58577 0.0
C1088 C 0.60388 0.41066 0.47972 0.0
C1089 C 0.62629 0.40646 0.46905 0.0
C1090 C 0.60149 0.40916 0.50466 0.0
C1091 C 0.62135 0.40195 0.51936 0.0
C1092 C 0.64352 0.39462 0.5086 0.0
C1093 C 0.64601 0.39744 0.48371 0.0
C1094 C 0.62875 0.3809 0.5864 0.0
C1095 C 0.62157 0.42897 0.59529 0.0
C1096 C 0.62811 0.37111 0.5617 0.0
C1097 C 0.61957 0.40865 0.5457 0.0
C1098 C 0.61117 0.45546 0.5549 0.0
C1099 C 0.6125 0.46577 0.57935 0.0
H1100 H 0.37417 0.68258 0.58794 0.0
H1101 H 0.34257 0.53353 0.57571 0.0
H1102 H 0.374 0.69883 0.54438 0.0
H1103 H 0.3426 0.54918 0.53319 0.0
H1104 H 0.31832 0.60233 0.46402 0.0
H1105 H 0.31967 0.60817 0.50728 0.0
H1106 H 0.39177 0.66201 0.50354 0.0
H1107 H 0.39004 0.65756 0.4595 0.0
C1108 C 0.36726 0.65343 0.57605 0.0
C1109 C 0.35809 0.60706 0.58533 0.0
C1110 C 0.36725 0.66258 0.55116 0.0
C1111 C 0.35786 0.62568 0.53531 0.0
C1112 C 0.34943 0.57902 0.54481 0.0
C1113 C 0.34952 0.56994 0.56931 0.0
C1114 C 0.33427 0.61684 0.47235 0.0
C1115 C 0.35408 0.62926 0.45843 0.0
C1116 C 0.33511 0.61989 0.49718 0.0
C1117 C 0.35601 0.63437 0.50895 0.0
C1118 C 0.37541 0.65068 0.49502 0.0
C1119 C 0.37443 0.64826 0.46985 0.0
H1120 H 0.92633 0.05931 0.1604 0.0
H1121 H 0.94923 0.91601 0.12857 0.0
H1122 H 0.9672 0.09011 0.15997 0.0
H1123 H 0.98973 0.94684 0.12822 0.0
H1124 H 0.03948 0.14378 0.13304 0.0
H1125 H -0.00097 0.11335 0.13036 0.0
H1126 H 0.02009 0.96656 0.15979 0.0
H1127 H 0.06092 0.9969 0.16257 0.0
C1128 C 0.93996 0.03471 0.15306 0.0
C1129 C 0.93453 0.98522 0.14462 0.0
C1130 C 0.96332 0.05229 0.15282 0.0
C1131 C 0.98158 1.02053 0.14426 0.0
C1132 C 0.97604 0.9717 0.13526 0.0
C1133 C 0.95277 0.9543 0.13534 0.0
C1134 C 0.03565 0.10483 0.13885 0.0
C1135 C 0.05348 0.07277 0.14815 0.0
C1136 C 0.01239 0.08764 0.13741 0.0
C1137 C 0.00644 0.03789 0.14504 0.0
C1138 C 0.02429 1.00512 0.15368 0.0
C1139 C 0.04763 1.02247 0.15529 0.0
H1140 H 0.92542 1.00132 0.39229 0.0
H1141 H 0.94756 0.14937 0.41979 0.0
H1142 H 0.96591 0.96992 0.39609 0.0
H1143 H 0.98774 0.11779 0.42363 0.0
H1144 H 0.0603 0.06049 0.39464 0.0
H1145 H 0.01975 0.09289 0.39536 0.0
H1146 H -0.00393 0.94996 0.42698 0.0
H1147 H 0.03627 0.91748 0.4262 0.0
C1148 C 0.93879 1.02692 0.39941 0.0
C1149 C 0.93325 0.07791 0.40557 0.0
C1150 C 0.96196 1.00894 0.40162 0.0
C1151 C 0.97998 0.04165 0.40997 0.0
C1152 C 0.97429 0.09205 0.41678 0.0
C1153 C 0.95119 0.10994 0.41468 0.0
C1154 C 0.04649 0.03632 0.40203 0.0
C1155 C 0.05149 0.98634 0.41019 0.0
C1156 C 0.02329 0.05483 0.40246 0.0
C1157 C 0.00476 1.02363 0.41101 0.0
C1158 C 0.00994 0.97445 0.41992 0.0
C1159 C 0.03304 0.95605 0.41957 0.0
H1160 H 0.03822 0.15211 0.92213 0.0
H1161 H 0.06065 1.00481 0.89407 0.0
H1162 H -0.00243 0.1221 0.92302 0.0
H1163 H 0.01973 0.97501 0.89493 0.0
H1164 H 0.9479 0.92325 0.92145 0.0
H1165 H 0.98812 0.95474 0.92427 0.0
H1166 H 0.96673 0.09935 0.89277 0.0
H1167 H 0.92601 0.06783 0.88997 0.0
C1168 C 0.03455 0.11317 0.91628 0.0
C1169 C 0.05274 0.08085 0.90792 0.0
C1170 C 0.01119 0.09622 0.91666 0.0
C1171 C 0.00549 0.04649 0.90887 0.0
C1172 C 0.02368 1.01353 0.90119 0.0
C1173 C 0.04711 0.03057 0.90068 0.0
C1174 C 0.95162 0.96194 0.9152 0.0
C1175 C 0.93376 0.99297 0.90527 0.0
C1176 C 0.97475 0.97978 0.91674 0.0
C1177 C 0.98059 0.02914 0.90848 0.0
C1178 C 0.96264 0.0611 0.89936 0.0
C1179 C 0.93937 0.04311 0.89774 0.0
H1180 H 0.92284 0.99588 0.64289 0.0
H1181 H 0.94989 0.15111 0.64801 0.0
H1182 H 0.96315 0.96282 0.64262 0.0
H1183 H 0.98994 0.11839 0.64935 0.0
H1184 H 0.06168 0.04725 0.63478 0.0
H1185 H 0.02158 0.08074 0.62968 0.0
H1186 H -0.00598 0.94971 0.66879 0.0
H1187 H 0.03361 0.91536 0.67233 0.0
C1188 C 0.93743 1.02282 0.64403 0.0
C1189 C 0.93328 0.07591 0.64545 0.0
C1190 C 0.96054 1.004 0.64408 0.0
C1191 C 0.97993 0.03787 0.64623 0.0
C1192 C 0.97562 0.09111 0.64725 0.0
C1193 C 0.95258 0.1099 0.64662 0.0
C1194 C 0.04692 1.02597 0.64222 0.0
C1195 C 0.05056 0.97873 0.65375 0.0
C1196 C 0.02396 0.04503 0.63939 0.0
C1197 C 0.0044 1.01768 0.6486 0.0
C1198 C 0.00841 0.9711 0.66075 0.0
C1199 C 0.03116 0.95162 0.66304 0.0
H1200 H 0.45124 0.40536 0.1516 0.0
H1201 H 0.42547 0.55964 0.13927 0.0
H1202 H 0.49146 0.43688 0.15227 0.0
H1203 H 0.4661 0.59132 0.13823 0.0
H1204 H 0.53684 0.64125 0.16707 0.0
H1205 H 0.49691 0.60881 0.16369 0.0
H1206 H 0.5237 0.46865 0.1318 0.0
H1207 H 0.56411 0.50048 0.13687 0.0
C1208 C 0.45427 0.44604 0.14847 0.0
C1209 C 0.43527 0.4802 0.14541 0.0
C1210 C 0.47743 0.46412 0.14869 0.0
C1211 C 0.48222 0.51674 0.14533 0.0
C1212 C 0.46313 0.55069 0.14144 0.0
C1213 C 0.43984 0.53267 0.14184 0.0
C1214 C 0.53415 0.60344 0.15933 0.0
C1215 C 0.55344 0.57328 0.15214 0.0
C1216 C 0.5112 0.585 0.15714 0.0
C1217 C 0.50687 0.5363 0.14716 0.0
C1218 C 0.5263 0.50608 0.13987 0.0
C1219 C 0.54944 0.52419 0.14265 0.0
H1220 H 0.44577 0.64296 0.42064 0.0
H1221 H 0.42395 0.49756 0.39004 0.0
H1222 H 0.48597 0.61122 0.42408 0.0
H1223 H 0.46444 0.46597 0.39349 0.0
H1224 H 0.53423 0.41095 0.42434 0.0
H1225 H 0.49405 0.44336 0.42455 0.0
H1226 H 0.51847 0.58848 0.3958 0.0
H1227 H 0.55906 0.55609 0.39563 0.0
C1228 C 0.44946 0.60407 0.41476 0.0
C1229 C 0.4316 0.57282 0.40494 0.0
C1230 C 0.47258 0.58611 0.41662 0.0
C1231 C 0.47836 0.53639 0.40887 0.0
C1232 C 0.46042 0.50445 0.39974 0.0
C1233 C 0.43725 0.52252 0.39775 0.0
C1234 C 0.53117 0.44995 0.41817 0.0
C1235 C 0.54988 0.48091 0.40982 0.0
C1236 C 0.50807 0.46831 0.41819 0.0
C1237 C 0.50311 0.51815 0.40998 0.0
C1238 C 0.52184 0.5499 0.40235 0.0
C1239 C 0.54506 0.5314 0.40223 0.0
H1240 H 0.44965 0.41229 0.91967 0.0
H1241 H 0.42702 0.56024 0.89232 0.0
H1242 H 0.48967 0.44478 0.92374 0.0
H1243 H 0.46736 0.59256 0.89634 0.0
H1244 H 0.53741 0.64612 0.92675 0.0
H1245 H 0.49732 0.61272 0.92739 0.0
H1246 H 0.5216 0.47082 0.89559 0.0
H1247 H 0.56201 0.50411 0.89502 0.0
C1248 C 0.45314 0.45187 0.91462 0.0
C1249 C 0.43512 0.48363 0.90549 0.0
C1250 C 0.47615 0.47029 0.91687 0.0
C1251 C 0.48165 0.52094 0.91017 0.0
C1252 C 0.46354 0.55335 0.90178 0.0
C1253 C 0.44047 0.53485 0.89944 0.0
C1254 C 0.53432 0.60758 0.92005 0.0
C1255 C 0.5529 0.57782 0.91067 0.0
C1256 C 0.51129 0.58866 0.92032 0.0
C1257 C 0.50633 0.5395 0.91133 0.0
C1258 C 0.52499 0.50883 0.90277 0.0
C1259 C 0.5481 0.52786 0.90243 0.0
H1260 H 0.4467 0.63898 0.63014 0.0
H1261 H 0.42492 0.49308 0.66057 0.0
H1262 H 0.48763 0.61061 0.63059 0.0
H1263 H 0.46606 0.46495 0.661 0.0
H1264 H 0.53835 0.41419 0.63488 0.0
H1265 H 0.498 0.44433 0.63141 0.0
H1266 H 0.51813 0.59019 0.66231 0.0
H1267 H 0.55896 0.56006 0.66589 0.0
C1268 C 0.45057 0.60067 0.63676 0.0
C1269 C 0.4325 0.56822 0.64534 0.0
C1270 C 0.47407 0.58471 0.63716 0.0
C1271 C 0.47998 0.53582 0.64593 0.0
C1272 C 0.46192 0.5028 0.65399 0.0
C1273 C 0.43839 0.51891 0.65377 0.0
C1274 C 0.53435 0.45286 0.64088 0.0
C1275 C 0.55191 0.48463 0.65089 0.0
C1276 C 0.51114 0.46992 0.63896 0.0
C1277 C 0.50493 0.51924 0.64683 0.0
C1278 C 0.52254 0.55193 0.65604 0.0
C1279 C 0.54587 0.53471 0.65811 0.0
H1280 H 0.1471 0.77323 0.12982 0.0
H1281 H 0.12547 0.75809 0.20346 0.0
H1282 H 0.14319 0.68017 0.12468 0.0
H1283 H 0.12146 0.66544 0.19834 0.0
H1284 H 0.1375 0.49618 0.18925 0.0
H1285 H 0.14417 0.58851 0.19283 0.0
H1286 H 0.11442 0.61178 0.12266 0.0
H1287 H 0.10875 0.51909 0.11861 0.0
C1288 C 0.14132 0.75017 0.14487 0.0
C1289 C 0.13671 0.77333 0.16709 0.0
C1290 C 0.13908 0.69671 0.14193 0.0
C1291 C 0.13214 0.66498 0.16113 0.0
C1292 C 0.12735 0.6883 0.18327 0.0
C1293 C 0.12961 0.74162 0.1862 0.0
C1294 C 0.13278 0.52076 0.17436 0.0
C1295 C 0.12251 0.49987 0.15365 0.0
C1296 C 0.1363 0.57397 0.17657 0.0
C1297 C 0.12961 0.60794 0.15815 0.0
C1298 C 0.11992 0.58696 0.13718 0.0
C1299 C 0.11642 0.5337 0.13496 0.0
H1300 H 0.8761 0.28113 0.12644 0.0
H1301 H 0.84098 0.3 0.19437 0.0
H1302 H 0.88024 0.37436 0.123 0.0
H1303 H 0.846 0.39303 0.19139 0.0
H1304 H 0.83721 0.56052 0.16634 0.0
H1305 H 0.83197 0.46731 0.16929 0.0
H1306 H 0.90206 0.44471 0.1406 0.0
H1307 H 0.90729 0.53757 0.13767 0.0
C1308 C 0.86925 0.3051 0.14064 0.0
C1309 C 0.85825 0.28286 0.1607 0.0
C1310 C 0.87185 0.35862 0.13879 0.0
C1311 C 0.86351 0.39136 0.15694 0.0
C1312 C 0.85243 0.36913 0.17695 0.0
C1313 C 0.84984 0.31563 0.17881 0.0
C1314 C 0.85156 0.53566 0.16081 0.0
C1315 C 0.87263 0.55669 0.15165 0.0
C1316 C 0.84857 0.48217 0.16251 0.0
C1317 C 0.86657 0.44836 0.15511 0.0
C1318 C 0.88764 0.46946 0.14605 0.0
C1319 C 0.89064 0.52283 0.14436 0.0
H1320 H 0.11446 0.28803 0.36101 0.0
H1321 H 0.13795 0.2897 0.43434 0.0
H1322 H 0.10924 0.38129 0.3622 0.0
H1323 H 0.13346 0.38314 0.4353 0.0
H1324 H 0.09867 0.54311 0.43555 0.0
H1325 H 0.10327 0.44978 0.43485 0.0
H1326 H 0.13307 0.45953 0.36397 0.0
H1327 H 0.12854 0.55299 0.36468 0.0
C1328 C 0.11836 0.30823 0.37744 0.0
C1329 C 0.1266 0.28129 0.39759 0.0
C1330 C 0.11566 0.36182 0.37803 0.0
C1331 C 0.12104 0.38985 0.39881 0.0
C1332 C 0.12898 0.36281 0.41906 0.0
C1333 C 0.13176 0.30925 0.41844 0.0
C1334 C 0.1065 0.52548 0.41992 0.0
C1335 C 0.11326 0.55572 0.40018 0.0
C1336 C 0.10909 0.47187 0.41951 0.0
C1337 C 0.11848 0.44703 0.39933 0.0
C1338 C 0.12539 0.47727 0.37964 0.0
C1339 C 0.12282 0.5309 0.38006 0.0
H1340 H 0.87616 0.51774 0.43513 0.0
H1341 H 0.85139 0.50474 0.36249 0.0
H1342 H 0.86923 0.61048 0.43393 0.0
H1343 H 0.84469 0.59732 0.36116 0.0
H1344 H 0.81702 0.75902 0.37178 0.0
H1345 H 0.82075 0.66606 0.37595 0.0
H1346 H 0.88535 0.68672 0.41584 0.0
H1347 H 0.88096 0.77984 0.41276 0.0
C1348 C 0.86925 0.53468 0.41889 0.0
C1349 C 0.86435 0.50374 0.39891 0.0
C1350 C 0.86533 0.58791 0.41817 0.0
C1351 C 0.85648 0.61161 0.39741 0.0
C1352 C 0.85117 0.58044 0.37759 0.0
C1353 C 0.85501 0.52723 0.37834 0.0
C1354 C 0.83182 0.74387 0.38182 0.0
C1355 C 0.84868 0.77718 0.39193 0.0
C1356 C 0.83412 0.69039 0.38393 0.0
C1357 C 0.85342 0.66867 0.39613 0.0
C1358 C 0.87012 0.70196 0.40653 0.0
C1359 C 0.86777 0.75548 0.40448 0.0
H1360 H 0.81985 0.30709 0.8984 0.0
H1361 H 0.89433 0.28913 0.88365 0.0
H1362 H 0.82456 0.40034 0.89821 0.0
H1363 H 0.89899 0.38266 0.88331 0.0
H1364 H 0.89321 0.55196 0.86042 0.0
H1365 H 0.88786 0.45864 0.85975 0.0
H1366 H 0.84279 0.46854 0.92184 0.0
H1367 H 0.84755 0.56196 0.92207 0.0
C1368 C 0.8373 0.32298 0.89537 0.0
C1369 C 0.85674 0.29047 0.89117 0.0
C1370 C 0.83998 0.37652 0.89521 0.0
C1371 C 0.86216 0.39902 0.89078 0.0
C1372 C 0.8816 0.3666 0.88646 0.0
C1373 C 0.87893 0.31296 0.88667 0.0
C1374 C 0.8819 0.53429 0.87373 0.0
C1375 C 0.87078 0.56446 0.89128 0.0
C1376 C 0.87908 0.48073 0.87353 0.0
C1377 C 0.86497 0.45606 0.89079 0.0
C1378 C 0.85363 0.48632 0.90816 0.0
C1379 C 0.85652 0.53983 0.90843 0.0
H1380 H 0.08434 0.52848 0.90797 0.0
H1381 H 0.1596 0.50116 0.90912 0.0
H1382 H 0.09137 0.6208 0.90633 0.0
H1383 H 0.16667 0.59397 0.90744 0.0
H1384 H 0.16827 0.75756 0.87459 0.0
H1385 H 0.16281 0.66509 0.87965 0.0
H1386 H 0.10562 0.69339 0.92902 0.0
H1387 H 0.11041 0.78594 0.92316 0.0
C1388 C 0.10242 0.54215 0.90828 0.0
C1389 C 0.1214 0.50718 0.90877 0.0
C1390 C 0.10645 0.59525 0.90733 0.0
C1391 C 0.12959 0.615 0.9068 0.0
C1392 C 0.14861 0.58012 0.90752 0.0
C1393 C 0.14457 0.52688 0.90849 0.0
C1394 C 0.15444 0.74412 0.88645 0.0
C1395 C 0.13965 0.77936 0.8983 0.0
C1396 C 0.15151 0.69099 0.88959 0.0
C1397 C 0.13371 0.67163 0.90468 0.0
C1398 C 0.1193 0.70688 0.917 0.0
C1399 C 0.12223 0.76004 0.91386 0.0
H1400 H 0.82731 0.77056 0.63141 0.0
H1401 H 0.87333 0.76497 0.6928 0.0
H1402 H 0.83112 0.6774 0.62676 0.0
H1403 H 0.87721 0.67212 0.68813 0.0
H1404 H 0.86152 0.50069 0.68794 0.0
H1405 H 0.85517 0.59307 0.69228 0.0
H1406 H 0.85919 0.61146 0.61572 0.0
H1407 H 0.8646 0.51877 0.61133 0.0
C1408 C 0.83841 0.74957 0.64379 0.0
C1409 C 0.84994 0.77539 0.66253 0.0
C1410 C 0.84059 0.69608 0.64114 0.0
C1411 C 0.85438 0.667 0.65714 0.0
C1412 C 0.86604 0.69296 0.67576 0.0
C1413 C 0.86385 0.74634 0.67842 0.0
C1414 C 0.86065 0.52426 0.67199 0.0
C1415 C 0.86363 0.50211 0.64928 0.0
C1416 C 0.85732 0.57744 0.6745 0.0
C1417 C 0.85685 0.60999 0.65437 0.0
C1418 C 0.85929 0.58768 0.63162 0.0
C1419 C 0.86265 0.5345 0.62912 0.0
H1420 H 0.14981 0.28987 0.6922 0.0
H1421 H 0.10466 0.2733 0.63056 0.0
H1422 H 0.14445 0.38298 0.69084 0.0
H1423 H 0.09998 0.36668 0.62869 0.0
H1424 H 0.07554 0.52912 0.65 0.0
H1425 H 0.08115 0.43619 0.65069 0.0
H1426 H 0.15508 0.45799 0.66685 0.0
H1427 H 0.14952 0.55123 0.666 0.0
C1428 C 0.13867 0.30604 0.67839 0.0
C1429 C 0.12757 0.27392 0.66156 0.0
C1430 C 0.13585 0.35956 0.67742 0.0
C1431 C 0.12182 0.38246 0.65963 0.0
C1432 C 0.11072 0.35037 0.64278 0.0
C1433 C 0.1136 0.29681 0.64371 0.0
C1434 C 0.09309 0.51425 0.65337 0.0
C1435 C 0.11209 0.54792 0.65785 0.0
C1436 C 0.0963 0.46082 0.6538 0.0
C1437 C 0.11857 0.43948 0.65881 0.0
C1438 C 0.1376 0.47306 0.66326 0.0
C1439 C 0.13441 0.52658 0.66277 0.0
H1440 H 0.6475 1.00145 0.14027 0.0
H1441 H 0.58467 1.01781 0.18342 0.0
H1442 H 0.65242 0.09491 0.13991 0.0
H1443 H 0.59004 0.11097 0.18374 0.0
H1444 H 0.59293 0.27856 0.15793 0.0
H1445 H 0.58768 0.18523 0.1571 0.0
H1446 H 0.66277 0.16485 0.16697 0.0
H1447 H 0.66801 0.25794 0.16793 0.0
C1448 C 0.63474 1.02495 0.14968 0.0
C1449 C 0.61573 1.00205 0.16192 0.0
C1450 C 0.63768 0.07851 0.14966 0.0
C1451 C 0.62163 0.1105 0.16181 0.0
C1452 C 0.60259 0.08757 0.174 0.0
C1453 C 0.59969 0.03406 0.17407 0.0
C1454 C 0.6083 0.25419 0.16007 0.0
C1455 C 0.6309 0.2759 0.16293 0.0
C1456 C 0.60529 0.20065 0.1596 0.0
C1457 C 0.62481 0.16749 0.16195 0.0
C1458 C 0.6474 0.18921 0.16471 0.0
C1459 C 0.6504 0.24267 0.16523 0.0
H1460 H 0.31892 0.80228 0.17652 0.0
H1461 H 0.383 0.77403 0.13671 0.0
H1462 H 0.32453 0.89474 0.17152 0.0
H1463 H 0.38801 0.8664 0.13075 0.0
H1464 H 0.40539 0.03321 0.15073 0.0
H1465 H 0.39872 0.94087 0.1534 0.0
H1466 H 0.32387 0.96495 0.1434 0.0
H1467 H 0.33059 0.05785 0.14087 0.0
C1468 C 0.33418 0.81571 0.16662 0.0
C1469 C 0.3506 0.78043 0.15719 0.0
C1470 C 0.33723 0.86887 0.16348 0.0
C1471 C 0.35678 0.88833 0.1508 0.0
C1472 C 0.37292 0.853 0.14092 0.0
C1473 C 0.36988 0.79984 0.14409 0.0
C1474 C 0.38752 1.01889 0.14875 0.0
C1475 C 0.36855 0.05317 0.14545 0.0
C1476 C 0.38368 0.96573 0.15028 0.0
C1477 C 0.36075 0.94513 0.14853 0.0
C1478 C 0.34175 0.97937 0.14514 0.0
C1479 C 0.34559 0.03269 0.14366 0.0
H1480 H 0.60501 0.04481 0.36475 0.0
H1481 H 0.62436 0.04532 0.43932 0.0
H1482 H 0.61033 0.95157 0.36355 0.0
H1483 H 0.62895 0.95192 0.43832 0.0
H1484 H 0.65825 0.79142 0.42096 0.0
H1485 H 0.65417 0.88486 0.42191 0.0
H1486 H 0.59117 0.87386 0.37876 0.0
H1487 H 0.59521 0.78031 0.37785 0.0
C1488 C 0.61057 1.02509 0.38085 0.0
C1489 C 0.61425 0.0526 0.40214 0.0
C1490 C 0.61333 0.97153 0.38024 0.0
C1491 C 0.61994 0.94413 0.40087 0.0
C1492 C 0.62401 0.97177 0.42205 0.0
C1493 C 0.62117 1.02529 0.42269 0.0
C1494 C 0.64335 0.80882 0.41191 0.0
C1495 C 0.62703 0.77821 0.39937 0.0
C1496 C 0.64104 0.86248 0.41242 0.0
C1497 C 0.62237 0.88696 0.40037 0.0
C1498 C 0.60599 0.85636 0.3879 0.0
C1499 C 0.60829 0.80269 0.38742 0.0
H1500 H 0.40365 1.02362 0.39831 0.0
H1501 H 0.32831 0.99685 0.39827 0.0
H1502 H 0.39688 0.11595 0.3958 0.0
H1503 H 0.32152 0.08962 0.39576 0.0
H1504 H 0.3201 0.25307 0.36329 0.0
H1505 H 0.32571 0.16062 0.36815 0.0
H1506 H 0.3826 0.18922 0.41775 0.0
H1507 H 0.37766 0.28174 0.41209 0.0
C1508 C 0.3856 0.03741 0.39813 0.0
C1509 C 0.36653 1.00254 0.39859 0.0
C1510 C 0.38171 0.09055 0.39668 0.0
C1511 C 0.35864 0.11049 0.39562 0.0
C1512 C 0.33954 0.07569 0.39622 0.0
C1513 C 0.34343 1.02243 0.39767 0.0
C1514 C 0.33392 0.23972 0.37512 0.0
C1515 C 0.34853 0.27511 0.38715 0.0
C1516 C 0.33695 0.18656 0.37815 0.0
C1517 C 0.35466 0.16722 0.39331 0.0
C1518 C 0.36898 0.20261 0.40569 0.0
C1519 C 0.36595 0.25579 0.40266 0.0
H1520 H 0.36776 0.79488 0.85344 0.0
H1521 H 0.33651 0.78603 0.9237 0.0
H1522 H 0.37192 0.88771 0.85764 0.0
H1523 H 0.34067 0.87937 0.92793 0.0
H1524 H 0.37615 0.04023 0.93498 0.0
H1525 H 0.37037 0.94718 0.93217 0.0
H1526 H 0.34782 0.96462 0.85895 0.0
H1527 H 0.35439 0.05717 0.86149 0.0
C1528 C 0.36157 0.81281 0.86973 0.0
C1529 C 0.35163 0.78292 0.88816 0.0
C1530 C 0.36393 0.86615 0.87213 0.0
C1531 C 0.35643 0.89121 0.89304 0.0
C1532 C 0.34681 0.86131 0.91166 0.0
C1533 C 0.34445 0.80778 0.90925 0.0
C1534 C 0.36998 1.02418 0.91828 0.0
C1535 C 0.36584 0.05628 0.89844 0.0
C1536 C 0.36645 0.97085 0.91673 0.0
C1537 C 0.3588 0.94826 0.89527 0.0
C1538 C 0.35408 0.98056 0.87565 0.0
C1539 C 0.35754 0.03381 0.87721 0.0
H1540 H 0.65593 0.2714 0.92413 0.0
H1541 H 0.60162 0.27893 0.87013 0.0
H1542 H 0.65176 0.17798 0.92568 0.0
H1543 H 0.59743 0.18544 0.87169 0.0
H1544 H 0.61271 1.01367 0.86311 0.0
H1545 H 0.6183 0.10685 0.86141 0.0
H1546 H 0.62458 0.11119 0.93823 0.0
H1547 H 0.61983 1.01789 0.93984 0.0
C1548 C 0.64289 0.25323 0.91278 0.0
C1549 C 0.62909 0.28287 0.89703 0.0
C1550 C 0.64052 0.19955 0.91364 0.0
C1551 C 0.62429 0.17399 0.89877 0.0
C1552 C 0.61041 0.20365 0.8831 0.0
C1553 C 0.61278 0.25734 0.88224 0.0
C1554 C 0.61563 0.03439 0.87961 0.0
C1555 C 0.6158 1.00816 0.90161 0.0
C1556 C 0.61853 0.08797 0.87867 0.0
C1557 C 0.62176 0.11673 0.8997 0.0
C1558 C 0.62232 0.09035 0.92166 0.0
C1559 C 0.61936 0.03683 0.9226 0.0
H1560 H 0.36496 1.00985 0.61221 0.0
H1561 H 0.36055 0.98975 0.68865 0.0
H1562 H 0.35942 0.10232 0.61699 0.0
H1563 H 0.35404 0.08205 0.69337 0.0
H1564 H 0.37205 0.25437 0.69483 0.0
H1565 H 0.3759 0.16151 0.69008 0.0
H1566 H 0.33116 0.16767 0.62771 0.0
H1567 H 0.32741 0.26078 0.63242 0.0
C1568 C 0.3627 1.0251 0.63006 0.0
C1569 C 0.36337 0.99221 0.65006 0.0
C1570 C 0.35926 0.07817 0.63278 0.0
C1571 C 0.35637 0.0999 0.65559 0.0
C1572 C 0.35653 0.06686 0.67556 0.0
C1573 C 0.35996 1.01374 0.67283 0.0
C1574 C 0.36285 0.23591 0.68021 0.0
C1575 C 0.34938 0.2652 0.66403 0.0
C1576 C 0.36502 0.18253 0.67751 0.0
C1577 C 0.35377 0.15683 0.65856 0.0
C1578 C 0.34034 0.18614 0.64233 0.0
C1579 C 0.33819 0.23961 0.64502 0.0
H1580 H 0.65928 0.79199 0.63817 0.0
H1581 H 0.60572 0.79055 0.69314 0.0
H1582 H 0.65342 0.88469 0.63281 0.0
H1583 H 0.60037 0.88303 0.6883 0.0
H1584 H 0.57878 0.03702 0.65743 0.0
H1585 H 0.5847 0.94438 0.65972 0.0
H1586 H 0.66013 0.96663 0.65403 0.0
H1587 H 0.65413 0.05971 0.65087 0.0
C1588 C 0.6462 0.81139 0.64904 0.0
C1589 C 0.63299 0.78381 0.66611 0.0
C1590 C 0.64302 0.8646 0.64615 0.0
C1591 C 0.62642 0.89137 0.66011 0.0
C1592 C 0.61313 0.86363 0.67704 0.0
C1593 C 0.61638 0.81063 0.68001 0.0
C1594 C 0.59663 1.02227 0.65626 0.0
C1595 C 0.61597 0.05601 0.65388 0.0
C1596 C 0.60004 0.96906 0.65789 0.0
C1597 C 0.6229 0.94798 0.65722 0.0
C1598 C 0.64227 0.98153 0.65444 0.0
C1599 C 0.63885 0.03493 0.65286 0.0
loop_
_geom_bond_atom_site_label_1
_geom_bond_atom_site_label_2
_geom_bond_distance
_geom_bond_site_symmetry_2
_ccdc_geom_bond_type
Gd0 C3 2.818 1_545 S
Gd0 O20 2.377 . S
Gd0 O22 2.448 1_545 S
Gd0 O23 2.506 1_545 S
Gd0 O24 2.435 . S
Gd0 O25 2.717 . S
Gd0 O27 2.395 . S
Gd0 O31 2.327 . S
Gd1 C12 2.818 . S
Gd1 O21 2.395 . S
Gd1 O25 2.327 . S
Gd1 O26 2.377 . S
Gd1 O28 2.448 . S
Gd1 O29 2.506 . S
Gd1 O30 2.435 . S
Gd1 O31 2.717 . S
C2 O20 1.240 . S
C2 O21 1.240 . S
C3 Gd0 2.818 1_565 S
C3 C4 1.510 . S
C3 O22 1.249 . S
C3 O23 1.252 . S
C4 C3 1.510 . S
C4 C5 1.404 . S
C4 C6 1.352 . S
C5 C4 1.404 . S
C5 C9 1.389 . S
C5 H32 0.930 . S
C6 C4 1.352 . S
C6 C8 1.374 . S
C6 H33 0.931 . S
C7 C8 1.359 . S
C7 C9 1.364 . S
C8 C6 1.374 . S
C8 C7 1.359 . S
C8 H34 0.931 . S
C9 C5 1.389 . S
C9 C7 1.364 . S
C9 H35 0.931 . S
C10 O24 1.256 . S
C10 O25 1.257 . S
C11 O26 1.240 . S
C11 O27 1.240 . S
C12 Gd1 2.818 . S
C12 C13 1.510 . S
C12 O28 1.249 . S
C12 O29 1.252 . S
C13 C12 1.510 . S
C13 C14 1.404 . S
C13 C15 1.352 . S
C14 C13 1.404 . S
C14 C18 1.389 . S
C14 H36 0.930 . S
C15 C13 1.352 . S
C15 C17 1.374 . S
C15 H37 0.931 . S
C16 C17 1.359 . S
C16 C18 1.364 . S
C17 C15 1.374 . S
C17 C16 1.359 . S
C17 H38 0.931 . S
C18 C14 1.389 . S
C18 C16 1.364 . S
C18 H39 0.931 . S
C19 O30 1.256 . S
C19 O31 1.257 . S
O20 Gd0 2.377 . S
O20 C2 1.240 . S
O21 Gd1 2.395 . S
O21 C2 1.240 . S
O22 Gd0 2.448 1_565 S
O22 C3 1.249 . S
O23 Gd0 2.506 1_565 S
O23 C3 1.252 . S
O24 Gd0 2.435 . S
O24 C10 1.256 . S
O25 Gd0 2.717 . S
O25 Gd1 2.327 . S
O25 C10 1.257 . S
O26 Gd1 2.377 . S
O26 C11 1.240 . S
O27 Gd0 2.395 . S
O27 C11 1.240 . S
O28 Gd1 2.448 . S
O28 C12 1.249 . S
O29 Gd1 2.506 . S
O29 C12 1.252 . S
O30 Gd1 2.435 . S
O30 C19 1.256 . S
O31 Gd0 2.327 . S
O31 Gd1 2.717 . S
O31 C19 1.257 . S
H32 C5 0.930 . S
H33 C6 0.931 . S
H34 C8 0.931 . S
H35 C9 0.931 . S
H36 C14 0.930 . S
H37 C15 0.931 . S
H38 C17 0.931 . S
H39 C18 0.931 . S
Gd40 C43 2.818 1_565 S
Gd40 O60 2.377 . S
Gd40 O62 2.448 1_565 S
Gd40 O63 2.506 1_565 S
Gd40 O64 2.435 . S
Gd40 O65 2.717 . S
Gd40 O67 2.395 . S
Gd40 O71 2.327 . S
Gd41 C52 2.818 . S
Gd41 O61 2.395 . S
Gd41 O65 2.327 . S
Gd41 O66 2.377 . S
Gd41 O68 2.448 . S
Gd41 O69 2.506 . S
Gd41 O70 2.435 . S
Gd41 O71 2.717 . S
C42 O60 1.240 . S
C42 O61 1.240 . S
C43 Gd40 2.818 1_545 S
C43 C44 1.510 . S
C43 O62 1.249 . S
C43 O63 1.252 . S
C44 C43 1.510 . S
C44 C45 1.404 . S
C44 C46 1.352 . S
C45 C44 1.404 . S
C45 C49 1.389 . S
C45 H72 0.930 . S
C46 C44 1.352 . S
C46 C48 1.374 . S
C46 H73 0.931 . S
C47 C48 1.359 . S
C47 C49 1.364 . S
C48 C46 1.374 . S
C48 C47 1.359 . S
C48 H74 0.931 . S
C49 C45 1.389 . S
C49 C47 1.364 . S
C49 H75 0.931 . S
C50 O64 1.256 . S
C50 O65 1.257 . S
C51 O66 1.240 . S
C51 O67 1.240 . S
C52 Gd41 2.818 . S
C52 C53 1.510 . S
C52 O68 1.249 . S
C52 O69 1.252 . S
C53 C52 1.510 . S
C53 C54 1.404 . S
C53 C55 1.352 . S
C54 C53 1.404 . S
C54 C58 1.389 . S
C54 H76 0.930 . S
C55 C53 1.352 . S
C55 C57 1.374 . S
C55 H77 0.931 . S
C56 C57 1.359 . S
C56 C58 1.364 . S
C57 C55 1.374 . S
C57 C56 1.359 . S
C57 H78 0.931 . S
C58 C54 1.389 . S
C58 C56 1.364 . S
C58 H79 0.931 . S
C59 O70 1.256 . S
C59 O71 1.257 . S
O60 Gd40 2.377 . S
O60 C42 1.240 . S
O61 Gd41 2.395 . S
O61 C42 1.240 . S
O62 Gd40 2.448 1_545 S
O62 C43 1.249 . S
O63 Gd40 2.506 1_545 S
O63 C43 1.252 . S
O64 Gd40 2.435 . S
O64 C50 1.256 . S
O65 Gd40 2.717 . S
O65 Gd41 2.327 . S
O65 C50 1.257 . S
O66 Gd41 2.377 . S
O66 C51 1.240 . S
O67 Gd40 2.395 . S
O67 C51 1.240 . S
O68 Gd41 2.448 . S
O68 C52 1.249 . S
O69 Gd41 2.506 . S
O69 C52 1.252 . S
O70 Gd41 2.435 . S
O70 C59 1.256 . S
O71 Gd40 2.327 . S
O71 Gd41 2.717 . S
O71 C59 1.257 . S
H72 C45 0.930 . S
H73 C46 0.931 . S
H74 C48 0.931 . S
H75 C49 0.931 . S
H76 C54 0.930 . S
H77 C55 0.931 . S
H78 C57 0.931 . S
H79 C58 0.931 . S
Gd80 C83 2.818 1_565 S
Gd80 O100 2.377 . S
Gd80 O102 2.448 1_565 S
Gd80 O103 2.506 1_565 S
Gd80 O104 2.435 . S
Gd80 O105 2.717 . S
Gd80 O107 2.395 . S
Gd80 O111 2.327 . S
Gd81 C92 2.818 . S
Gd81 O101 2.395 . S
Gd81 O105 2.327 . S
Gd81 O106 2.377 . S
Gd81 O108 2.448 . S
Gd81 O109 2.506 . S
Gd81 O110 2.435 . S
Gd81 O111 2.717 . S
C82 O100 1.240 . S
C82 O101 1.240 . S
C83 Gd80 2.818 1_545 S
C83 C84 1.510 . S
C83 O102 1.249 . S
C83 O103 1.252 . S
C84 C83 1.510 . S
C84 C85 1.404 . S
C84 C86 1.352 . S
C85 C84 1.404 . S
C85 C89 1.389 . S
C85 H112 0.930 . S
C86 C84 1.352 . S
C86 C88 1.374 . S
C86 H113 0.931 . S
C87 C88 1.359 . S
C87 C89 1.364 . S
C88 C86 1.374 . S
C88 C87 1.359 . S
C88 H114 0.931 . S
C89 C85 1.389 . S
C89 C87 1.364 . S
C89 H115 0.931 . S
C90 O104 1.256 . S
C90 O105 1.257 . S
C91 O106 1.240 . S
C91 O107 1.240 . S
C92 Gd81 2.818 . S
C92 C93 1.510 . S
C92 O108 1.249 . S
C92 O109 1.252 . S
C93 C92 1.510 . S
C93 C94 1.404 . S
C93 C95 1.352 . S
C94 C93 1.404 . S
C94 C98 1.389 . S
C94 H116 0.930 . S
C95 C93 1.352 . S
C95 C97 1.374 . S
C95 H117 0.931 . S
C96 C97 1.359 . S
C96 C98 1.364 . S
C97 C95 1.374 . S
C97 C96 1.359 . S
C97 H118 0.931 . S
C98 C94 1.389 . S
C98 C96 1.364 . S
C98 H119 0.931 . S
C99 O110 1.256 . S
C99 O111 1.257 . S
O100 Gd80 2.377 . S
O100 C82 1.240 . S
O101 Gd81 2.395 . S
O101 C82 1.240 . S
O102 Gd80 2.448 1_545 S
O102 C83 1.249 . S
O103 Gd80 2.506 1_545 S
O103 C83 1.252 . S
O104 Gd80 2.435 . S
O104 C90 1.256 . S
O105 Gd80 2.717 . S
O105 Gd81 2.327 . S
O105 C90 1.257 . S
O106 Gd81 2.377 . S
O106 C91 1.240 . S
O107 Gd80 2.395 . S
O107 C91 1.240 . S
O108 Gd81 2.448 . S
O108 C92 1.249 . S
O109 Gd81 2.506 . S
O109 C92 1.252 . S
O110 Gd81 2.435 . S
O110 C99 1.256 . S
O111 Gd80 2.327 . S
O111 Gd81 2.717 . S
O111 C99 1.257 . S
H112 C85 0.930 . S
H113 C86 0.931 . S
H114 C88 0.931 . S
H115 C89 0.931 . S
H116 C94 0.930 . S
H117 C95 0.931 . S
H118 C97 0.931 . S
H119 C98 0.931 . S
Gd120 C123 2.818 1_545 S
Gd120 O140 2.377 . S
Gd120 O142 2.448 1_545 S
Gd120 O143 2.506 1_545 S
Gd120 O144 2.435 . S
Gd120 O145 2.717 . S
Gd120 O147 2.395 . S
Gd120 O151 2.327 . S
Gd121 C132 2.818 . S
Gd121 O141 2.395 . S
Gd121 O145 2.327 . S
Gd121 O146 2.377 . S
Gd121 O148 2.448 . S
Gd121 O149 2.506 . S
Gd121 O150 2.435 . S
Gd121 O151 2.717 . S
C122 O140 1.240 . S
C122 O141 1.240 . S
C123 Gd120 2.818 1_565 S
C123 C124 1.510 . S
C123 O142 1.249 . S
C123 O143 1.252 . S
C124 C123 1.510 . S
C124 C125 1.404 . S
C124 C126 1.352 . S
C125 C124 1.404 . S
C125 C129 1.389 . S
C125 H152 0.930 . S
C126 C124 1.352 . S
C126 C128 1.374 . S
C126 H153 0.931 . S
C127 C128 1.359 . S
C127 C129 1.364 . S
C128 C126 1.374 . S
C128 C127 1.359 . S
C128 H154 0.931 . S
C129 C125 1.389 . S
C129 C127 1.364 . S
C129 H155 0.931 . S
C130 O144 1.256 . S
C130 O145 1.257 . S
C131 O146 1.240 . S
C131 O147 1.240 . S
C132 Gd121 2.818 . S
C132 C133 1.510 . S
C132 O148 1.249 . S
C132 O149 1.252 . S
C133 C132 1.510 . S
C133 C134 1.404 . S
C133 C135 1.352 . S
C134 C133 1.404 . S
C134 C138 1.389 . S
C134 H156 0.930 . S
C135 C133 1.352 . S
C135 C137 1.374 . S
C135 H157 0.931 . S
C136 C137 1.359 . S
C136 C138 1.364 . S
C137 C135 1.374 . S
C137 C136 1.359 . S
C137 H158 0.931 . S
C138 C134 1.389 . S
C138 C136 1.364 . S
C138 H159 0.931 . S
C139 O150 1.256 . S
C139 O151 1.257 . S
O140 Gd120 2.377 . S
O140 C122 1.240 . S
O141 Gd121 2.395 . S
O141 C122 1.240 . S
O142 Gd120 2.448 1_565 S
O142 C123 1.249 . S
O143 Gd120 2.506 1_565 S
O143 C123 1.252 . S
O144 Gd120 2.435 . S
O144 C130 1.256 . S
O145 Gd120 2.717 . S
O145 Gd121 2.327 . S
O145 C130 1.257 . S
O146 Gd121 2.377 . S
O146 C131 1.240 . S
O147 Gd120 2.395 . S
O147 C131 1.240 . S
O148 Gd121 2.448 . S
O148 C132 1.249 . S
O149 Gd121 2.506 . S
O149 C132 1.252 . S
O150 Gd121 2.435 . S
O150 C139 1.256 . S
O151 Gd120 2.327 . S
O151 Gd121 2.717 . S
O151 C139 1.257 . S
H152 C125 0.930 . S
H153 C126 0.931 . S
H154 C128 0.931 . S
H155 C129 0.931 . S
H156 C134 0.930 . S
H157 C135 0.931 . S
H158 C137 0.931 . S
H159 C138 0.931 . S
Gd160 C163 2.818 . S
Gd160 O180 2.377 . S
Gd160 O182 2.448 . S
Gd160 O183 2.506 . S
Gd160 O184 2.435 . S
Gd160 O185 2.717 . S
Gd160 O187 2.395 . S
Gd160 O191 2.327 . S
Gd161 C172 2.818 1_565 S
Gd161 O181 2.395 . S
Gd161 O185 2.327 . S
Gd161 O186 2.377 . S
Gd161 O188 2.448 1_565 S
Gd161 O189 2.506 1_565 S
Gd161 O190 2.435 . S
Gd161 O191 2.717 . S
C162 O180 1.240 . S
C162 O181 1.240 . S
C163 Gd160 2.818 . S
C163 C164 1.510 . S
C163 O182 1.249 . S
C163 O183 1.252 . S
C164 C163 1.510 . S
C164 C165 1.404 . S
C164 C166 1.352 . S
C165 C164 1.404 . S
C165 C169 1.389 . S
C165 H192 0.930 . S
C166 C164 1.352 . S
C166 C168 1.374 . S
C166 H193 0.931 . S
C167 C168 1.359 . S
C167 C169 1.364 . S
C168 C166 1.374 . S
C168 C167 1.359 . S
C168 H194 0.931 . S
C169 C165 1.389 . S
C169 C167 1.364 . S
C169 H195 0.931 . S
C170 O184 1.256 . S
C170 O185 1.257 . S
C171 O186 1.240 . S
C171 O187 1.240 . S
C172 Gd161 2.818 1_545 S
C172 C173 1.510 . S
C172 O188 1.249 . S
C172 O189 1.252 . S
C173 C172 1.510 . S
C173 C174 1.404 . S
C173 C175 1.352 . S
C174 C173 1.404 . S
C174 C178 1.389 . S
C174 H196 0.930 . S
C175 C173 1.352 . S
C175 C177 1.374 . S
C175 H197 0.931 . S
C176 C177 1.359 . S
C176 C178 1.364 . S
C177 C175 1.374 . S
C177 C176 1.359 . S
C177 H198 0.931 . S
C178 C174 1.389 . S
C178 C176 1.364 . S
C178 H199 0.931 . S
C179 O190 1.256 . S
C179 O191 1.257 . S
O180 Gd160 2.377 . S
O180 C162 1.240 . S
O181 Gd161 2.395 . S
O181 C162 1.240 . S
O182 Gd160 2.448 . S
O182 C163 1.249 . S
O183 Gd160 2.506 . S
O183 C163 1.252 . S
O184 Gd160 2.435 . S
O184 C170 1.256 . S
O185 Gd160 2.717 . S
O185 Gd161 2.327 . S
O185 C170 1.257 . S
O186 Gd161 2.377 . S
O186 C171 1.240 . S
O187 Gd160 2.395 . S
O187 C171 1.240 . S
O188 Gd161 2.448 1_545 S
O188 C172 1.249 . S
O189 Gd161 2.506 1_545 S
O189 C172 1.252 . S
O190 Gd161 2.435 . S
O190 C179 1.256 . S
O191 Gd160 2.327 . S
O191 Gd161 2.717 . S
O191 C179 1.257 . S
H192 C165 0.930 . S
H193 C166 0.931 . S
H194 C168 0.931 . S
H195 C169 0.931 . S
H196 C174 0.930 . S
H197 C175 0.931 . S
H198 C177 0.931 . S
H199 C178 0.931 . S
Gd200 C203 2.818 . S
Gd200 O220 2.377 . S
Gd200 O222 2.448 . S
Gd200 O223 2.506 . S
Gd200 O224 2.435 . S
Gd200 O225 2.717 . S
Gd200 O227 2.395 . S
Gd200 O231 2.327 . S
Gd201 C212 2.818 1_545 S
Gd201 O221 2.395 . S
Gd201 O225 2.327 . S
Gd201 O226 2.377 . S
Gd201 O228 2.448 1_545 S
Gd201 O229 2.506 1_545 S
Gd201 O230 2.435 . S
Gd201 O231 2.717 . S
C202 O220 1.240 . S
C202 O221 1.240 . S
C203 Gd200 2.818 . S
C203 C204 1.510 . S
C203 O222 1.249 . S
C203 O223 1.252 . S
C204 C203 1.510 . S
C204 C205 1.404 . S
C204 C206 1.352 . S
C205 C204 1.404 . S
C205 C209 1.389 . S
C205 H232 0.930 . S
C206 C204 1.352 . S
C206 C208 1.374 . S
C206 H233 0.931 . S
C207 C208 1.359 . S
C207 C209 1.364 . S
C208 C206 1.374 . S
C208 C207 1.359 . S
C208 H234 0.931 . S
C209 C205 1.389 . S
C209 C207 1.364 . S
C209 H235 0.931 . S
C210 O224 1.256 . S
C210 O225 1.257 . S
C211 O226 1.240 . S
C211 O227 1.240 . S
C212 Gd201 2.818 1_565 S
C212 C213 1.510 . S
C212 O228 1.249 . S
C212 O229 1.252 . S
C213 C212 1.510 . S
C213 C214 1.404 . S
C213 C215 1.352 . S
C214 C213 1.404 . S
C214 C218 1.389 . S
C214 H236 0.930 . S
C215 C213 1.352 . S
C215 C217 1.374 . S
C215 H237 0.931 . S
C216 C217 1.359 . S
C216 C218 1.364 . S
C217 C215 1.374 . S
C217 C216 1.359 . S
C217 H238 0.931 . S
C218 C214 1.389 . S
C218 C216 1.364 . S
C218 H239 0.931 . S
C219 O230 1.256 . S
C219 O231 1.257 . S
O220 Gd200 2.377 . S
O220 C202 1.240 . S
O221 Gd201 2.395 . S
O221 C202 1.240 . S
O222 Gd200 2.448 . S
O222 C203 1.249 . S
O223 Gd200 2.506 . S
O223 C203 1.252 . S
O224 Gd200 2.435 . S
O224 C210 1.256 . S
O225 Gd200 2.717 . S
O225 Gd201 2.327 . S
O225 C210 1.257 . S
O226 Gd201 2.377 . S
O226 C211 1.240 . S
O227 Gd200 2.395 . S
O227 C211 1.240 . S
O228 Gd201 2.448 1_565 S
O228 C212 1.249 . S
O229 Gd201 2.506 1_565 S
O229 C212 1.252 . S
O230 Gd201 2.435 . S
O230 C219 1.256 . S
O231 Gd200 2.327 . S
O231 Gd201 2.717 . S
O231 C219 1.257 . S
H232 C205 0.930 . S
H233 C206 0.931 . S
H234 C208 0.931 . S
H235 C209 0.931 . S
H236 C214 0.930 . S
H237 C215 0.931 . S
H238 C217 0.931 . S
H239 C218 0.931 . S
Gd240 C243 2.818 . S
Gd240 O260 2.377 . S
Gd240 O262 2.448 . S
Gd240 O263 2.506 . S
Gd240 O264 2.435 . S
Gd240 O265 2.717 . S
Gd240 O267 2.395 . S
Gd240 O271 2.327 . S
Gd241 C252 2.818 1_545 S
Gd241 O261 2.395 . S
Gd241 O265 2.327 . S
Gd241 O266 2.377 . S
Gd241 O268 2.448 1_545 S
Gd241 O269 2.506 1_545 S
Gd241 O270 2.435 . S
Gd241 O271 2.717 . S
C242 O260 1.240 . S
C242 O261 1.240 . S
C243 Gd240 2.818 . S
C243 C244 1.510 . S
C243 O262 1.249 . S
C243 O263 1.252 . S
C244 C243 1.510 . S
C244 C245 1.404 . S
C244 C246 1.352 . S
C245 C244 1.404 . S
C245 C249 1.389 . S
C245 H272 0.930 . S
C246 C244 1.352 . S
C246 C248 1.374 . S
C246 H273 0.931 . S
C247 C248 1.359 . S
C247 C249 1.364 . S
C248 C246 1.374 . S
C248 C247 1.359 . S
C248 H274 0.931 . S
C249 C245 1.389 . S
C249 C247 1.364 . S
C249 H275 0.931 . S
C250 O264 1.256 . S
C250 O265 1.257 . S
C251 O266 1.240 . S
C251 O267 1.240 . S
C252 Gd241 2.818 1_565 S
C252 C253 1.510 . S
C252 O268 1.249 . S
C252 O269 1.252 . S
C253 C252 1.510 . S
C253 C254 1.404 . S
C253 C255 1.352 . S
C254 C253 1.404 . S
C254 C258 1.389 . S
C254 H276 0.930 . S
C255 C253 1.352 . S
C255 C257 1.374 . S
C255 H277 0.931 . S
C256 C257 1.359 . S
C256 C258 1.364 . S
C257 C255 1.374 . S
C257 C256 1.359 . S
C257 H278 0.931 . S
C258 C254 1.389 . S
C258 C256 1.364 . S
C258 H279 0.931 . S
C259 O270 1.256 . S
C259 O271 1.257 . S
O260 Gd240 2.377 . S
O260 C242 1.240 . S
O261 Gd241 2.395 . S
O261 C242 1.240 . S
O262 Gd240 2.448 . S
O262 C243 1.249 . S
O263 Gd240 2.506 . S
O263 C243 1.252 . S
O264 Gd240 2.435 . S
O264 C250 1.256 . S
O265 Gd240 2.717 . S
O265 Gd241 2.327 . S
O265 C250 1.257 . S
O266 Gd241 2.377 . S
O266 C251 1.240 . S
O267 Gd240 2.395 . S
O267 C251 1.240 . S
O268 Gd241 2.448 1_565 S
O268 C252 1.249 . S
O269 Gd241 2.506 1_565 S
O269 C252 1.252 . S
O270 Gd241 2.435 . S
O270 C259 1.256 . S
O271 Gd240 2.327 . S
O271 Gd241 2.717 . S
O271 C259 1.257 . S
H272 C245 0.930 . S
H273 C246 0.931 . S
H274 C248 0.931 . S
H275 C249 0.931 . S
H276 C254 0.930 . S
H277 C255 0.931 . S
H278 C257 0.931 . S
H279 C258 0.931 . S
Gd280 C283 2.818 . S
Gd280 O300 2.377 . S
Gd280 O302 2.448 . S
Gd280 O303 2.506 . S
Gd280 O304 2.435 . S
Gd280 O305 2.717 . S
Gd280 O307 2.395 . S
Gd280 O311 2.327 . S
Gd281 C292 2.818 1_565 S
Gd281 O301 2.395 . S
Gd281 O305 2.327 . S
Gd281 O306 2.377 . S
Gd281 O308 2.448 1_565 S
Gd281 O309 2.506 1_565 S
Gd281 O310 2.435 . S
Gd281 O311 2.717 . S
C282 O300 1.240 . S
C282 O301 1.240 . S
C283 Gd280 2.818 . S
C283 C284 1.510 . S
C283 O302 1.249 . S
C283 O303 1.252 . S
C284 C283 1.510 . S
C284 C285 1.404 . S
C284 C286 1.352 . S
C285 C284 1.404 . S
C285 C289 1.389 . S
C285 H312 0.930 . S
C286 C284 1.352 . S
C286 C288 1.374 . S
C286 H313 0.931 . S
C287 C288 1.359 . S
C287 C289 1.364 . S
C288 C286 1.374 . S
C288 C287 1.359 . S
C288 H314 0.931 . S
C289 C285 1.389 . S
C289 C287 1.364 . S
C289 H315 0.931 . S
C290 O304 1.256 . S
C290 O305 1.257 . S
C291 O306 1.240 . S
C291 O307 1.240 . S
C292 Gd281 2.818 1_545 S
C292 C293 1.510 . S
C292 O308 1.249 . S
C292 O309 1.252 . S
C293 C292 1.510 . S
C293 C294 1.404 . S
C293 C295 1.352 . S
C294 C293 1.404 . S
C294 C298 1.389 . S
C294 H316 0.930 . S
C295 C293 1.352 . S
C295 C297 1.374 . S
C295 H317 0.931 . S
C296 C297 1.359 . S
C296 C298 1.364 . S
C297 C295 1.374 . S
C297 C296 1.359 . S
C297 H318 0.931 . S
C298 C294 1.389 . S
C298 C296 1.364 . S
C298 H319 0.931 . S
C299 O310 1.256 . S
C299 O311 1.257 . S
O300 Gd280 2.377 . S
O300 C282 1.240 . S
O301 Gd281 2.395 . S
O301 C282 1.240 . S
O302 Gd280 2.448 . S
O302 C283 1.249 . S
O303 Gd280 2.506 . S
O303 C283 1.252 . S
O304 Gd280 2.435 . S
O304 C290 1.256 . S
O305 Gd280 2.717 . S
O305 Gd281 2.327 . S
O305 C290 1.257 . S
O306 Gd281 2.377 . S
O306 C291 1.240 . S
O307 Gd280 2.395 . S
O307 C291 1.240 . S
O308 Gd281 2.448 1_545 S
O308 C292 1.249 . S
O309 Gd281 2.506 1_545 S
O309 C292 1.252 . S
O310 Gd281 2.435 . S
O310 C299 1.256 . S
O311 Gd280 2.327 . S
O311 Gd281 2.717 . S
O311 C299 1.257 . S
H312 C285 0.930 . S
H313 C286 0.931 . S
H314 C288 0.931 . S
H315 C289 0.931 . S
H316 C294 0.930 . S
H317 C295 0.931 . S
H318 C297 0.931 . S
H319 C298 0.931 . S
Gd320 C323 2.818 . S
Gd320 O340 2.377 . S
Gd320 O342 2.448 . S
Gd320 O343 2.506 . S
Gd320 O344 2.435 . S
Gd320 O345 2.717 . S
Gd320 O347 2.395 . S
Gd320 O351 2.327 . S
Gd321 C332 2.818 . S
Gd321 O341 2.395 . S
Gd321 O345 2.327 . S
Gd321 O346 2.377 . S
Gd321 O348 2.448 . S
Gd321 O349 2.506 . S
Gd321 O350 2.435 . S
Gd321 O351 2.717 . S
C322 O340 1.240 . S
C322 O341 1.240 . S
C323 Gd320 2.818 . S
C323 C324 1.510 . S
C323 O342 1.249 . S
C323 O343 1.252 . S
C324 C323 1.510 . S
C324 C325 1.404 . S
C324 C326 1.352 . S
C325 C324 1.404 . S
C325 C329 1.389 . S
C325 H352 0.930 . S
C326 C324 1.352 . S
C326 C328 1.374 . S
C326 H353 0.931 . S
C327 C328 1.359 . S
C327 C329 1.364 . S
C328 C326 1.374 . S
C328 C327 1.359 . S
C328 H354 0.931 . S
C329 C325 1.389 . S
C329 C327 1.364 . S
C329 H355 0.931 . S
C330 O344 1.256 . S
C330 O345 1.257 . S
C331 O346 1.240 . S
C331 O347 1.240 . S
C332 Gd321 2.818 . S
C332 C333 1.510 . S
C332 O348 1.249 . S
C332 O349 1.252 . S
C333 C332 1.510 . S
C333 C334 1.404 . S
C333 C335 1.352 . S
C334 C333 1.404 . S
C334 C338 1.389 . S
C334 H356 0.930 . S
C335 C333 1.352 . S
C335 C337 1.374 . S
C335 H357 0.931 . S
C336 C337 1.359 . S
C336 C338 1.364 . S
C337 C335 1.374 . S
C337 C336 1.359 . S
C337 H358 0.931 . S
C338 C334 1.389 . S
C338 C336 1.364 . S
C338 H359 0.931 . S
C339 O350 1.256 . S
C339 O351 1.257 . S
O340 Gd320 2.377 . S
O340 C322 1.240 . S
O341 Gd321 2.395 . S
O341 C322 1.240 . S
O342 Gd320 2.448 . S
O342 C323 1.249 . S
O343 Gd320 2.506 . S
O343 C323 1.252 . S
O344 Gd320 2.435 . S
O344 C330 1.256 . S
O345 Gd320 2.717 . S
O345 Gd321 2.327 . S
O345 C330 1.257 . S
O346 Gd321 2.377 . S
O346 C331 1.240 . S
O347 Gd320 2.395 . S
O347 C331 1.240 . S
O348 Gd321 2.448 . S
O348 C332 1.249 . S
O349 Gd321 2.506 . S
O349 C332 1.252 . S
O350 Gd321 2.435 . S
O350 C339 1.256 . S
O351 Gd320 2.327 . S
O351 Gd321 2.717 . S
O351 C339 1.257 . S
H352 C325 0.930 . S
H353 C326 0.931 . S
H354 C328 0.931 . S
H355 C329 0.931 . S
H356 C334 0.930 . S
H357 C335 0.931 . S
H358 C337 0.931 . S
H359 C338 0.931 . S
Gd360 C363 2.818 . S
Gd360 O380 2.377 . S
Gd360 O382 2.448 . S
Gd360 O383 2.506 . S
Gd360 O384 2.435 . S
Gd360 O385 2.717 . S
Gd360 O387 2.395 . S
Gd360 O391 2.327 . S
Gd361 C372 2.818 . S
Gd361 O381 2.395 . S
Gd361 O385 2.327 . S
Gd361 O386 2.377 . S
Gd361 O388 2.448 . S
Gd361 O389 2.506 . S
Gd361 O390 2.435 . S
Gd361 O391 2.717 . S
C362 O380 1.240 . S
C362 O381 1.240 . S
C363 Gd360 2.818 . S
C363 C364 1.510 . S
C363 O382 1.249 . S
C363 O383 1.252 . S
C364 C363 1.510 . S
C364 C365 1.404 . S
C364 C366 1.352 . S
C365 C364 1.404 . S
C365 C369 1.389 . S
C365 H392 0.930 . S
C366 C364 1.352 . S
C366 C368 1.374 . S
C366 H393 0.931 . S
C367 C368 1.359 . S
C367 C369 1.364 . S
C368 C366 1.374 . S
C368 C367 1.359 . S
C368 H394 0.931 . S
C369 C365 1.389 . S
C369 C367 1.364 . S
C369 H395 0.931 . S
C370 O384 1.256 . S
C370 O385 1.257 . S
C371 O386 1.240 . S
C371 O387 1.240 . S
C372 Gd361 2.818 . S
C372 C373 1.510 . S
C372 O388 1.249 . S
C372 O389 1.252 . S
C373 C372 1.510 . S
C373 C374 1.404 . S
C373 C375 1.352 . S
C374 C373 1.404 . S
C374 C378 1.389 . S
C374 H396 0.930 . S
C375 C373 1.352 . S
C375 C377 1.374 . S
C375 H397 0.931 . S
C376 C377 1.359 . S
C376 C378 1.364 . S
C377 C375 1.374 . S
C377 C376 1.359 . S
C377 H398 0.931 . S
C378 C374 1.389 . S
C378 C376 1.364 . S
C378 H399 0.931 . S
C379 O390 1.256 . S
C379 O391 1.257 . S
O380 Gd360 2.377 . S
O380 C362 1.240 . S
O381 Gd361 2.395 . S
O381 C362 1.240 . S
O382 Gd360 2.448 . S
O382 C363 1.249 . S
O383 Gd360 2.506 . S
O383 C363 1.252 . S
O384 Gd360 2.435 . S
O384 C370 1.256 . S
O385 Gd360 2.717 . S
O385 Gd361 2.327 . S
O385 C370 1.257 . S
O386 Gd361 2.377 . S
O386 C371 1.240 . S
O387 Gd360 2.395 . S
O387 C371 1.240 . S
O388 Gd361 2.448 . S
O388 C372 1.249 . S
O389 Gd361 2.506 . S
O389 C372 1.252 . S
O390 Gd361 2.435 . S
O390 C379 1.256 . S
O391 Gd360 2.327 . S
O391 Gd361 2.717 . S
O391 C379 1.257 . S
H392 C365 0.930 . S
H393 C366 0.931 . S
H394 C368 0.931 . S
H395 C369 0.931 . S
H396 C374 0.930 . S
H397 C375 0.931 . S
H398 C377 0.931 . S
H399 C378 0.931 . S
Gd400 C403 2.818 . S
Gd400 O420 2.377 . S
Gd400 O422 2.448 . S
Gd400 O423 2.506 . S
Gd400 O424 2.435 . S
Gd400 O425 2.717 . S
Gd400 O427 2.395 . S
Gd400 O431 2.327 . S
Gd401 C412 2.818 . S
Gd401 O421 2.395 . S
Gd401 O425 2.327 . S
Gd401 O426 2.377 . S
Gd401 O428 2.448 . S
Gd401 O429 2.506 . S
Gd401 O430 2.435 . S
Gd401 O431 2.717 . S
C402 O420 1.240 . S
C402 O421 1.240 . S
C403 Gd400 2.818 . S
C403 C404 1.510 . S
C403 O422 1.249 . S
C403 O423 1.252 . S
C404 C403 1.510 . S
C404 C405 1.404 . S
C404 C406 1.352 . S
C405 C404 1.404 . S
C405 C409 1.389 . S
C405 H432 0.930 . S
C406 C404 1.352 . S
C406 C408 1.374 . S
C406 H433 0.931 . S
C407 C408 1.359 . S
C407 C409 1.364 . S
C408 C406 1.374 . S
C408 C407 1.359 . S
C408 H434 0.931 . S
C409 C405 1.389 . S
C409 C407 1.364 . S
C409 H435 0.931 . S
C410 O424 1.256 . S
C410 O425 1.257 . S
C411 O426 1.240 . S
C411 O427 1.240 . S
C412 Gd401 2.818 . S
C412 C413 1.510 . S
C412 O428 1.249 . S
C412 O429 1.252 . S
C413 C412 1.510 . S
C413 C414 1.404 . S
C413 C415 1.352 . S
C414 C413 1.404 . S
C414 C418 1.389 . S
C414 H436 0.930 . S
C415 C413 1.352 . S
C415 C417 1.374 . S
C415 H437 0.931 . S
C416 C417 1.359 . S
C416 C418 1.364 . S
C417 C415 1.374 . S
C417 C416 1.359 . S
C417 H438 0.931 . S
C418 C414 1.389 . S
C418 C416 1.364 . S
C418 H439 0.931 . S
C419 O430 1.256 . S
C419 O431 1.257 . S
O420 Gd400 2.377 . S
O420 C402 1.240 . S
O421 Gd401 2.395 . S
O421 C402 1.240 . S
O422 Gd400 2.448 . S
O422 C403 1.249 . S
O423 Gd400 2.506 . S
O423 C403 1.252 . S
O424 Gd400 2.435 . S
O424 C410 1.256 . S
O425 Gd400 2.717 . S
O425 Gd401 2.327 . S
O425 C410 1.257 . S
O426 Gd401 2.377 . S
O426 C411 1.240 . S
O427 Gd400 2.395 . S
O427 C411 1.240 . S
O428 Gd401 2.448 . S
O428 C412 1.249 . S
O429 Gd401 2.506 . S
O429 C412 1.252 . S
O430 Gd401 2.435 . S
O430 C419 1.256 . S
O431 Gd400 2.327 . S
O431 Gd401 2.717 . S
O431 C419 1.257 . S
H432 C405 0.930 . S
H433 C406 0.931 . S
H434 C408 0.931 . S
H435 C409 0.931 . S
H436 C414 0.930 . S
H437 C415 0.931 . S
H438 C417 0.931 . S
H439 C418 0.931 . S
Gd440 C443 2.818 . S
Gd440 O460 2.377 . S
Gd440 O462 2.448 . S
Gd440 O463 2.506 . S
Gd440 O464 2.435 . S
Gd440 O465 2.717 . S
Gd440 O467 2.395 . S
Gd440 O471 2.327 . S
Gd441 C452 2.818 . S
Gd441 O461 2.395 . S
Gd441 O465 2.327 . S
Gd441 O466 2.377 . S
Gd441 O468 2.448 . S
Gd441 O469 2.506 . S
Gd441 O470 2.435 . S
Gd441 O471 2.717 . S
C442 O460 1.240 . S
C442 O461 1.240 . S
C443 Gd440 2.818 . S
C443 C444 1.510 . S
C443 O462 1.249 . S
C443 O463 1.252 . S
C444 C443 1.510 . S
C444 C445 1.404 . S
C444 C446 1.352 . S
C445 C444 1.404 . S
C445 C449 1.389 . S
C445 H472 0.930 . S
C446 C444 1.352 . S
C446 C448 1.374 . S
C446 H473 0.931 . S
C447 C448 1.359 . S
C447 C449 1.364 . S
C448 C446 1.374 . S
C448 C447 1.359 . S
C448 H474 0.931 . S
C449 C445 1.389 . S
C449 C447 1.364 . S
C449 H475 0.931 . S
C450 O464 1.256 . S
C450 O465 1.257 . S
C451 O466 1.240 . S
C451 O467 1.240 . S
C452 Gd441 2.818 . S
C452 C453 1.510 . S
C452 O468 1.249 . S
C452 O469 1.252 . S
C453 C452 1.510 . S
C453 C454 1.404 . S
C453 C455 1.352 . S
C454 C453 1.404 . S
C454 C458 1.389 . S
C454 H476 0.930 . S
C455 C453 1.352 . S
C455 C457 1.374 . S
C455 H477 0.931 . S
C456 C457 1.359 . S
C456 C458 1.364 . S
C457 C455 1.374 . S
C457 C456 1.359 . S
C457 H478 0.931 . S
C458 C454 1.389 . S
C458 C456 1.364 . S
C458 H479 0.931 . S
C459 O470 1.256 . S
C459 O471 1.257 . S
O460 Gd440 2.377 . S
O460 C442 1.240 . S
O461 Gd441 2.395 . S
O461 C442 1.240 . S
O462 Gd440 2.448 . S
O462 C443 1.249 . S
O463 Gd440 2.506 . S
O463 C443 1.252 . S
O464 Gd440 2.435 . S
O464 C450 1.256 . S
O465 Gd440 2.717 . S
O465 Gd441 2.327 . S
O465 C450 1.257 . S
O466 Gd441 2.377 . S
O466 C451 1.240 . S
O467 Gd440 2.395 . S
O467 C451 1.240 . S
O468 Gd441 2.448 . S
O468 C452 1.249 . S
O469 Gd441 2.506 . S
O469 C452 1.252 . S
O470 Gd441 2.435 . S
O470 C459 1.256 . S
O471 Gd440 2.327 . S
O471 Gd441 2.717 . S
O471 C459 1.257 . S
H472 C445 0.930 . S
H473 C446 0.931 . S
H474 C448 0.931 . S
H475 C449 0.931 . S
H476 C454 0.930 . S
H477 C455 0.931 . S
H478 C457 0.931 . S
H479 C458 0.931 . S
Gd480 C483 2.818 . S
Gd480 O500 2.377 . S
Gd480 O502 2.448 . S
Gd480 O503 2.506 . S
Gd480 O504 2.435 . S
Gd480 O505 2.717 . S
Gd480 O507 2.395 . S
Gd480 O511 2.327 . S
Gd481 C492 2.818 . S
Gd481 O501 2.395 . S
Gd481 O505 2.327 . S
Gd481 O506 2.377 . S
Gd481 O508 2.448 . S
Gd481 O509 2.506 . S
Gd481 O510 2.435 . S
Gd481 O511 2.717 . S
C482 O500 1.240 . S
C482 O501 1.240 . S
C483 Gd480 2.818 . S
C483 C484 1.510 . S
C483 O502 1.249 . S
C483 O503 1.252 . S
C484 C483 1.510 . S
C484 C485 1.404 . S
C484 C486 1.352 . S
C485 C484 1.404 . S
C485 C489 1.389 . S
C485 H512 0.930 . S
C486 C484 1.352 . S
C486 C488 1.374 . S
C486 H513 0.931 . S
C487 C488 1.359 . S
C487 C489 1.364 . S
C488 C486 1.374 . S
C488 C487 1.359 . S
C488 H514 0.931 . S
C489 C485 1.389 . S
C489 C487 1.364 . S
C489 H515 0.931 . S
C490 O504 1.256 . S
C490 O505 1.257 . S
C491 O506 1.240 . S
C491 O507 1.240 . S
C492 Gd481 2.818 . S
C492 C493 1.510 . S
C492 O508 1.249 . S
C492 O509 1.252 . S
C493 C492 1.510 . S
C493 C494 1.404 . S
C493 C495 1.352 . S
C494 C493 1.404 . S
C494 C498 1.389 . S
C494 H516 0.930 . S
C495 C493 1.352 . S
C495 C497 1.374 . S
C495 H517 0.931 . S
C496 C497 1.359 . S
C496 C498 1.364 . S
C497 C495 1.374 . S
C497 C496 1.359 . S
C497 H518 0.931 . S
C498 C494 1.389 . S
C498 C496 1.364 . S
C498 H519 0.931 . S
C499 O510 1.256 . S
C499 O511 1.257 . S
O500 Gd480 2.377 . S
O500 C482 1.240 . S
O501 Gd481 2.395 . S
O501 C482 1.240 . S
O502 Gd480 2.448 . S
O502 C483 1.249 . S
O503 Gd480 2.506 . S
O503 C483 1.252 . S
O504 Gd480 2.435 . S
O504 C490 1.256 . S
O505 Gd480 2.717 . S
O505 Gd481 2.327 . S
O505 C490 1.257 . S
O506 Gd481 2.377 . S
O506 C491 1.240 . S
O507 Gd480 2.395 . S
O507 C491 1.240 . S
O508 Gd481 2.448 . S
O508 C492 1.249 . S
O509 Gd481 2.506 . S
O509 C492 1.252 . S
O510 Gd481 2.435 . S
O510 C499 1.256 . S
O511 Gd480 2.327 . S
O511 Gd481 2.717 . S
O511 C499 1.257 . S
H512 C485 0.930 . S
H513 C486 0.931 . S
H514 C488 0.931 . S
H515 C489 0.931 . S
H516 C494 0.930 . S
H517 C495 0.931 . S
H518 C497 0.931 . S
H519 C498 0.931 . S
Gd520 C523 2.818 . S
Gd520 O540 2.377 . S
Gd520 O542 2.448 . S
Gd520 O543 2.506 . S
Gd520 O544 2.435 . S
Gd520 O545 2.717 . S
Gd520 O547 2.395 . S
Gd520 O551 2.327 . S
Gd521 C532 2.818 . S
Gd521 O541 2.395 . S
Gd521 O545 2.327 . S
Gd521 O546 2.377 . S
Gd521 O548 2.448 . S
Gd521 O549 2.506 . S
Gd521 O550 2.435 . S
Gd521 O551 2.717 . S
C522 O540 1.240 . S
C522 O541 1.240 . S
C523 Gd520 2.818 . S
C523 C524 1.510 . S
C523 O542 1.249 . S
C523 O543 1.252 . S
C524 C523 1.510 . S
C524 C525 1.404 . S
C524 C526 1.352 . S
C525 C524 1.404 . S
C525 C529 1.389 . S
C525 H552 0.930 . S
C526 C524 1.352 . S
C526 C528 1.374 . S
C526 H553 0.931 . S
C527 C528 1.359 . S
C527 C529 1.364 . S
C528 C526 1.374 . S
C528 C527 1.359 . S
C528 H554 0.931 . S
C529 C525 1.389 . S
C529 C527 1.364 . S
C529 H555 0.931 . S
C530 O544 1.256 . S
C530 O545 1.257 . S
C531 O546 1.240 . S
C531 O547 1.240 . S
C532 Gd521 2.818 . S
C532 C533 1.510 . S
C532 O548 1.249 . S
C532 O549 1.252 . S
C533 C532 1.510 . S
C533 C534 1.404 . S
C533 C535 1.352 . S
C534 C533 1.404 . S
C534 C538 1.389 . S
C534 H556 0.930 . S
C535 C533 1.352 . S
C535 C537 1.374 . S
C535 H557 0.931 . S
C536 C537 1.359 . S
C536 C538 1.364 . S
C537 C535 1.374 . S
C537 C536 1.359 . S
C537 H558 0.931 . S
C538 C534 1.389 . S
C538 C536 1.364 . S
C538 H559 0.931 . S
C539 O550 1.256 . S
C539 O551 1.257 . S
O540 Gd520 2.377 . S
O540 C522 1.240 . S
O541 Gd521 2.395 . S
O541 C522 1.240 . S
O542 Gd520 2.448 . S
O542 C523 1.249 . S
O543 Gd520 2.506 . S
O543 C523 1.252 . S
O544 Gd520 2.435 . S
O544 C530 1.256 . S
O545 Gd520 2.717 . S
O545 Gd521 2.327 . S
O545 C530 1.257 . S
O546 Gd521 2.377 . S
O546 C531 1.240 . S
O547 Gd520 2.395 . S
O547 C531 1.240 . S
O548 Gd521 2.448 . S
O548 C532 1.249 . S
O549 Gd521 2.506 . S
O549 C532 1.252 . S
O550 Gd521 2.435 . S
O550 C539 1.256 . S
O551 Gd520 2.327 . S
O551 Gd521 2.717 . S
O551 C539 1.257 . S
H552 C525 0.930 . S
H553 C526 0.931 . S
H554 C528 0.931 . S
H555 C529 0.931 . S
H556 C534 0.930 . S
H557 C535 0.931 . S
H558 C537 0.931 . S
H559 C538 0.931 . S
Gd560 C563 2.818 . S
Gd560 O580 2.377 . S
Gd560 O582 2.448 . S
Gd560 O583 2.506 . S
Gd560 O584 2.435 . S
Gd560 O585 2.717 . S
Gd560 O587 2.395 . S
Gd560 O591 2.327 . S
Gd561 C572 2.818 . S
Gd561 O581 2.395 . S
Gd561 O585 2.327 . S
Gd561 O586 2.377 . S
Gd561 O588 2.448 . S
Gd561 O589 2.506 . S
Gd561 O590 2.435 . S
Gd561 O591 2.717 . S
C562 O580 1.240 . S
C562 O581 1.240 . S
C563 Gd560 2.818 . S
C563 C564 1.510 . S
C563 O582 1.249 . S
C563 O583 1.252 . S
C564 C563 1.510 . S
C564 C565 1.404 . S
C564 C566 1.352 . S
C565 C564 1.404 . S
C565 C569 1.389 . S
C565 H592 0.930 . S
C566 C564 1.352 . S
C566 C568 1.374 . S
C566 H593 0.931 . S
C567 C568 1.359 . S
C567 C569 1.364 . S
C568 C566 1.374 . S
C568 C567 1.359 . S
C568 H594 0.931 . S
C569 C565 1.389 . S
C569 C567 1.364 . S
C569 H595 0.931 . S
C570 O584 1.256 . S
C570 O585 1.257 . S
C571 O586 1.240 . S
C571 O587 1.240 . S
C572 Gd561 2.818 . S
C572 C573 1.510 . S
C572 O588 1.249 . S
C572 O589 1.252 . S
C573 C572 1.510 . S
C573 C574 1.404 . S
C573 C575 1.352 . S
C574 C573 1.404 . S
C574 C578 1.389 . S
C574 H596 0.930 . S
C575 C573 1.352 . S
C575 C577 1.374 . S
C575 H597 0.931 . S
C576 C577 1.359 . S
C576 C578 1.364 . S
C577 C575 1.374 . S
C577 C576 1.359 . S
C577 H598 0.931 . S
C578 C574 1.389 . S
C578 C576 1.364 . S
C578 H599 0.931 . S
C579 O590 1.256 . S
C579 O591 1.257 . S
O580 Gd560 2.377 . S
O580 C562 1.240 . S
O581 Gd561 2.395 . S
O581 C562 1.240 . S
O582 Gd560 2.448 . S
O582 C563 1.249 . S
O583 Gd560 2.506 . S
O583 C563 1.252 . S
O584 Gd560 2.435 . S
O584 C570 1.256 . S
O585 Gd560 2.717 . S
O585 Gd561 2.327 . S
O585 C570 1.257 . S
O586 Gd561 2.377 . S
O586 C571 1.240 . S
O587 Gd560 2.395 . S
O587 C571 1.240 . S
O588 Gd561 2.448 . S
O588 C572 1.249 . S
O589 Gd561 2.506 . S
O589 C572 1.252 . S
O590 Gd561 2.435 . S
O590 C579 1.256 . S
O591 Gd560 2.327 . S
O591 Gd561 2.717 . S
O591 C579 1.257 . S
H592 C565 0.930 . S
H593 C566 0.931 . S
H594 C568 0.931 . S
H595 C569 0.931 . S
H596 C574 0.930 . S
H597 C575 0.931 . S
H598 C577 0.931 . S
H599 C578 0.931 . S
Gd600 C603 2.818 . S
Gd600 O620 2.377 . S
Gd600 O622 2.448 . S
Gd600 O623 2.506 . S
Gd600 O624 2.435 . S
Gd600 O625 2.717 . S
Gd600 O627 2.395 . S
Gd600 O631 2.327 . S
Gd601 C612 2.818 . S
Gd601 O621 2.395 . S
Gd601 O625 2.327 . S
Gd601 O626 2.377 . S
Gd601 O628 2.448 . S
Gd601 O629 2.506 . S
Gd601 O630 2.435 . S
Gd601 O631 2.717 . S
C602 O620 1.240 . S
C602 O621 1.240 . S
C603 Gd600 2.818 . S
C603 C604 1.510 . S
C603 O622 1.249 . S
C603 O623 1.252 . S
C604 C603 1.510 . S
C604 C605 1.404 . S
C604 C606 1.352 . S
C605 C604 1.404 . S
C605 C609 1.389 . S
C605 H632 0.930 . S
C606 C604 1.352 . S
C606 C608 1.374 . S
C606 H633 0.931 . S
C607 C608 1.359 . S
C607 C609 1.364 . S
C608 C606 1.374 . S
C608 C607 1.359 . S
C608 H634 0.931 . S
C609 C605 1.389 . S
C609 C607 1.364 . S
C609 H635 0.931 . S
C610 O624 1.256 . S
C610 O625 1.257 . S
C611 O626 1.240 . S
C611 O627 1.240 . S
C612 Gd601 2.818 . S
C612 C613 1.510 . S
C612 O628 1.249 . S
C612 O629 1.252 . S
C613 C612 1.510 . S
C613 C614 1.404 . S
C613 C615 1.352 . S
C614 C613 1.404 . S
C614 C618 1.389 . S
C614 H636 0.930 . S
C615 C613 1.352 . S
C615 C617 1.374 . S
C615 H637 0.931 . S
C616 C617 1.359 . S
C616 C618 1.364 . S
C617 C615 1.374 . S
C617 C616 1.359 . S
C617 H638 0.931 . S
C618 C614 1.389 . S
C618 C616 1.364 . S
C618 H639 0.931 . S
C619 O630 1.256 . S
C619 O631 1.257 . S
O620 Gd600 2.377 . S
O620 C602 1.240 . S
O621 Gd601 2.395 . S
O621 C602 1.240 . S
O622 Gd600 2.448 . S
O622 C603 1.249 . S
O623 Gd600 2.506 . S
O623 C603 1.252 . S
O624 Gd600 2.435 . S
O624 C610 1.256 . S
O625 Gd600 2.717 . S
O625 Gd601 2.327 . S
O625 C610 1.257 . S
O626 Gd601 2.377 . S
O626 C611 1.240 . S
O627 Gd600 2.395 . S
O627 C611 1.240 . S
O628 Gd601 2.448 . S
O628 C612 1.249 . S
O629 Gd601 2.506 . S
O629 C612 1.252 . S
O630 Gd601 2.435 . S
O630 C619 1.256 . S
O631 Gd600 2.327 . S
O631 Gd601 2.717 . S
O631 C619 1.257 . S
H632 C605 0.930 . S
H633 C606 0.931 . S
H634 C608 0.931 . S
H635 C609 0.931 . S
H636 C614 0.930 . S
H637 C615 0.931 . S
H638 C617 0.931 . S
H639 C618 0.931 . S
H640 C648 0.950 . S
H641 C653 0.950 . S
H642 C650 0.950 . S
H643 C652 0.950 . S
H644 C654 0.950 . S
H645 C656 0.950 . S
H646 C658 0.950 . S
H647 C659 0.950 . S
C648 H640 0.950 . S
C648 C649 1.386 . S
C648 C650 1.391 . S
C649 C648 1.386 . S
C649 C653 1.393 . S
C650 H642 0.950 . S
C650 C648 1.391 . S
C650 C651 1.400 . S
C651 C650 1.400 . S
C651 C652 1.398 . S
C651 C657 1.491 . S
C652 H643 0.950 . S
C652 C651 1.398 . S
C652 C653 1.391 . S
C653 H641 0.950 . S
C653 C649 1.393 . S
C653 C652 1.391 . S
C654 H644 0.950 . S
C654 C655 1.386 . S
C654 C656 1.391 . S
C655 C654 1.386 . S
C655 C659 1.393 . S
C656 H645 0.950 . S
C656 C654 1.391 . S
C656 C657 1.400 . S
C657 C651 1.491 . S
C657 C656 1.400 . S
C657 C658 1.398 . S
C658 H646 0.950 . S
C658 C657 1.398 . S
C658 C659 1.391 . S
C659 H647 0.950 . S
C659 C655 1.393 . S
C659 C658 1.391 . S
H660 C668 0.950 . S
H661 C673 0.950 . S
H662 C670 0.950 . S
H663 C672 0.950 . S
H664 C674 0.950 . S
H665 C676 0.950 . S
H666 C678 0.950 . S
H667 C679 0.950 . S
C668 H660 0.950 . S
C668 C669 1.386 . S
C668 C670 1.391 . S
C669 C668 1.386 . S
C669 C673 1.393 . S
C670 H662 0.950 . S
C670 C668 1.391 . S
C670 C671 1.400 . S
C671 C670 1.400 . S
C671 C672 1.398 . S
C671 C677 1.491 . S
C672 H663 0.950 . S
C672 C671 1.398 . S
C672 C673 1.391 . S
C673 H661 0.950 . S
C673 C669 1.393 . S
C673 C672 1.391 . S
C674 H664 0.950 . S
C674 C675 1.386 . S
C674 C676 1.391 . S
C675 C674 1.386 . S
C675 C679 1.393 . S
C676 H665 0.950 . S
C676 C674 1.391 . S
C676 C677 1.400 . S
C677 C671 1.491 . S
C677 C676 1.400 . S
C677 C678 1.398 . S
C678 H666 0.950 . S
C678 C677 1.398 . S
C678 C679 1.391 . S
C679 H667 0.950 . S
C679 C675 1.393 . S
C679 C678 1.391 . S
H680 C688 0.950 . S
H681 C693 0.950 . S
H682 C690 0.950 . S
H683 C692 0.950 . S
H684 C694 0.950 . S
H685 C696 0.950 . S
H686 C698 0.950 . S
H687 C699 0.950 . S
C688 H680 0.950 . S
C688 C689 1.386 . S
C688 C690 1.391 . S
C689 C688 1.386 . S
C689 C693 1.393 . S
C690 H682 0.950 . S
C690 C688 1.391 . S
C690 C691 1.400 . S
C691 C690 1.400 . S
C691 C692 1.398 . S
C691 C697 1.491 . S
C692 H683 0.950 . S
C692 C691 1.398 . S
C692 C693 1.391 . S
C693 H681 0.950 . S
C693 C689 1.393 . S
C693 C692 1.391 . S
C694 H684 0.950 . S
C694 C695 1.386 . S
C694 C696 1.391 . S
C695 C694 1.386 . S
C695 C699 1.393 . S
C696 H685 0.950 . S
C696 C694 1.391 . S
C696 C697 1.400 . S
C697 C691 1.491 . S
C697 C696 1.400 . S
C697 C698 1.398 . S
C698 H686 0.950 . S
C698 C697 1.398 . S
C698 C699 1.391 . S
C699 H687 0.950 . S
C699 C695 1.393 . S
C699 C698 1.391 . S
H700 C708 0.950 . S
H701 C713 0.950 . S
H702 C710 0.950 . S
H703 C712 0.950 . S
H704 C714 0.950 . S
H705 C716 0.950 . S
H706 C718 0.950 . S
H707 C719 0.950 . S
C708 H700 0.950 . S
C708 C709 1.386 . S
C708 C710 1.391 . S
C709 C708 1.386 . S
C709 C713 1.393 . S
C710 H702 0.950 . S
C710 C708 1.391 . S
C710 C711 1.400 . S
C711 C710 1.400 . S
C711 C712 1.398 . S
C711 C717 1.491 . S
C712 H703 0.950 . S
C712 C711 1.398 . S
C712 C713 1.391 . S
C713 H701 0.950 . S
C713 C709 1.393 . S
C713 C712 1.391 . S
C714 H704 0.950 . S
C714 C715 1.386 . S
C714 C716 1.391 . S
C715 C714 1.386 . S
C715 C719 1.393 . S
C716 H705 0.950 . S
C716 C714 1.391 . S
C716 C717 1.400 . S
C717 C711 1.491 . S
C717 C716 1.400 . S
C717 C718 1.398 . S
C718 H706 0.950 . S
C718 C717 1.398 . S
C718 C719 1.391 . S
C719 H707 0.950 . S
C719 C715 1.393 . S
C719 C718 1.391 . S
H720 C728 0.950 . S
H721 C733 0.950 . S
H722 C730 0.950 . S
H723 C732 0.950 . S
H724 C734 0.950 . S
H725 C736 0.950 . S
H726 C738 0.950 . S
H727 C739 0.950 . S
C728 H720 0.950 . S
C728 C729 1.386 . S
C728 C730 1.391 . S
C729 C728 1.386 . S
C729 C733 1.393 . S
C730 H722 0.950 . S
C730 C728 1.391 . S
C730 C731 1.400 . S
C731 C730 1.400 . S
C731 C732 1.398 . S
C731 C737 1.491 . S
C732 H723 0.950 . S
C732 C731 1.398 . S
C732 C733 1.391 . S
C733 H721 0.950 . S
C733 C729 1.393 . S
C733 C732 1.391 . S
C734 H724 0.950 . S
C734 C735 1.386 . S
C734 C736 1.391 . S
C735 C734 1.386 . S
C735 C739 1.393 . S
C736 H725 0.950 . S
C736 C734 1.391 . S
C736 C737 1.400 . S
C737 C731 1.491 . S
C737 C736 1.400 . S
C737 C738 1.398 . S
C738 H726 0.950 . S
C738 C737 1.398 . S
C738 C739 1.391 . S
C739 H727 0.950 . S
C739 C735 1.393 . S
C739 C738 1.391 . S
H740 C748 0.950 . S
H741 C753 0.950 . S
H742 C750 0.950 . S
H743 C752 0.950 . S
H744 C754 0.950 . S
H745 C756 0.950 . S
H746 C758 0.950 . S
H747 C759 0.950 . S
C748 H740 0.950 . S
C748 C749 1.386 . S
C748 C750 1.391 . S
C749 C748 1.386 . S
C749 C753 1.393 . S
C750 H742 0.950 . S
C750 C748 1.391 . S
C750 C751 1.400 . S
C751 C750 1.400 . S
C751 C752 1.398 . S
C751 C757 1.491 . S
C752 H743 0.950 . S
C752 C751 1.398 . S
C752 C753 1.391 . S
C753 H741 0.950 . S
C753 C749 1.393 . S
C753 C752 1.391 . S
C754 H744 0.950 . S
C754 C755 1.386 . S
C754 C756 1.391 . S
C755 C754 1.386 . S
C755 C759 1.393 . S
C756 H745 0.950 . S
C756 C754 1.391 . S
C756 C757 1.400 . S
C757 C751 1.491 . S
C757 C756 1.400 . S
C757 C758 1.398 . S
C758 H746 0.950 . S
C758 C757 1.398 . S
C758 C759 1.391 . S
C759 H747 0.950 . S
C759 C755 1.393 . S
C759 C758 1.391 . S
H760 C768 0.950 . S
H761 C773 0.950 . S
H762 C770 0.950 . S
H763 C772 0.950 . S
H764 C774 0.950 . S
H765 C776 0.950 . S
H766 C778 0.950 . S
H767 C779 0.950 . S
C768 H760 0.950 . S
C768 C769 1.386 . S
C768 C770 1.391 . S
C769 C768 1.386 . S
C769 C773 1.393 . S
C770 H762 0.950 . S
C770 C768 1.391 . S
C770 C771 1.400 . S
C771 C770 1.400 . S
C771 C772 1.398 . S
C771 C777 1.491 . S
C772 H763 0.950 . S
C772 C771 1.398 . S
C772 C773 1.391 . S
C773 H761 0.950 . S
C773 C769 1.393 . S
C773 C772 1.391 . S
C774 H764 0.950 . S
C774 C775 1.386 . S
C774 C776 1.391 . S
C775 C774 1.386 . S
C775 C779 1.393 . S
C776 H765 0.950 . S
C776 C774 1.391 . S
C776 C777 1.400 . S
C777 C771 1.491 . S
C777 C776 1.400 . S
C777 C778 1.398 . S
C778 H766 0.950 . S
C778 C777 1.398 . S
C778 C779 1.391 . S
C779 H767 0.950 . S
C779 C775 1.393 . S
C779 C778 1.391 . S
H780 C788 0.950 . S
H781 C793 0.950 . S
H782 C790 0.950 . S
H783 C792 0.950 . S
H784 C794 0.950 . S
H785 C796 0.950 . S
H786 C798 0.950 . S
H787 C799 0.950 . S
C788 H780 0.950 . S
C788 C789 1.386 . S
C788 C790 1.391 . S
C789 C788 1.386 . S
C789 C793 1.393 . S
C790 H782 0.950 . S
C790 C788 1.391 . S
C790 C791 1.400 . S
C791 C790 1.400 . S
C791 C792 1.398 . S
C791 C797 1.491 . S
C792 H783 0.950 . S
C792 C791 1.398 . S
C792 C793 1.391 . S
C793 H781 0.950 . S
C793 C789 1.393 . S
C793 C792 1.391 . S
C794 H784 0.950 . S
C794 C795 1.386 . S
C794 C796 1.391 . S
C795 C794 1.386 . S
C795 C799 1.393 . S
C796 H785 0.950 . S
C796 C794 1.391 . S
C796 C797 1.400 . S
C797 C791 1.491 . S
C797 C796 1.400 . S
C797 C798 1.398 . S
C798 H786 0.950 . S
C798 C797 1.398 . S
C798 C799 1.391 . S
C799 H787 0.950 . S
C799 C795 1.393 . S
C799 C798 1.391 . S
H800 C808 0.950 . S
H801 C813 0.950 . S
H802 C810 0.950 . S
H803 C812 0.950 . S
H804 C814 0.950 . S
H805 C816 0.950 . S
H806 C818 0.950 . S
H807 C819 0.950 . S
C808 H800 0.950 . S
C808 C809 1.386 . S
C808 C810 1.391 1_565 S
C809 C808 1.386 . S
C809 C813 1.393 . S
C810 H802 0.950 . S
C810 C808 1.391 1_545 S
C810 C811 1.400 1_545 S
C811 C810 1.400 1_565 S
C811 C812 1.398 . S
C811 C817 1.491 1_565 S
C812 H803 0.950 . S
C812 C811 1.398 . S
C812 C813 1.391 . S
C813 H801 0.950 . S
C813 C809 1.393 . S
C813 C812 1.391 . S
C814 H804 0.950 . S
C814 C815 1.386 . S
C814 C816 1.391 1_545 S
C815 C814 1.386 . S
C815 C819 1.393 . S
C816 H805 0.950 . S
C816 C814 1.391 1_565 S
C816 C817 1.400 1_565 S
C817 C811 1.491 1_545 S
C817 C816 1.400 1_545 S
C817 C818 1.398 . S
C818 H806 0.950 . S
C818 C817 1.398 . S
C818 C819 1.391 . S
C819 H807 0.950 . S
C819 C815 1.393 . S
C819 C818 1.391 . S
H820 C828 0.950 1_565 S
H821 C833 0.950 . S
H822 C830 0.950 . S
H823 C832 0.950 . S
H824 C834 0.950 1_545 S
H825 C836 0.950 . S
H826 C838 0.950 . S
H827 C839 0.950 . S
C828 H820 0.950 1_545 S
C828 C829 1.386 . S
C828 C830 1.391 1_545 S
C829 C828 1.386 . S
C829 C833 1.393 . S
C830 H822 0.950 . S
C830 C828 1.391 1_565 S
C830 C831 1.400 1_565 S
C831 C830 1.400 1_545 S
C831 C832 1.398 . S
C831 C837 1.491 1_545 S
C832 H823 0.950 . S
C832 C831 1.398 . S
C832 C833 1.391 . S
C833 H821 0.950 . S
C833 C829 1.393 . S
C833 C832 1.391 . S
C834 H824 0.950 1_565 S
C834 C835 1.386 . S
C834 C836 1.391 1_565 S
C835 C834 1.386 . S
C835 C839 1.393 . S
C836 H825 0.950 . S
C836 C834 1.391 1_545 S
C836 C837 1.400 1_545 S
C837 C831 1.491 1_565 S
C837 C836 1.400 1_565 S
C837 C838 1.398 . S
C838 H826 0.950 . S
C838 C837 1.398 . S
C838 C839 1.391 . S
C839 H827 0.950 . S
C839 C835 1.393 . S
C839 C838 1.391 . S
H840 C848 0.950 . S
H841 C853 0.950 . S
H842 C850 0.950 1_565 S
H843 C852 0.950 . S
H844 C854 0.950 . S
H845 C856 0.950 1_545 S
H846 C858 0.950 . S
H847 C859 0.950 . S
C848 H840 0.950 . S
C848 C849 1.386 . S
C848 C850 1.391 . S
C849 C848 1.386 . S
C849 C853 1.393 . S
C850 H842 0.950 1_545 S
C850 C848 1.391 . S
C850 C851 1.400 . S
C851 C850 1.400 . S
C851 C852 1.398 . S
C851 C857 1.491 1_545 S
C852 H843 0.950 . S
C852 C851 1.398 . S
C852 C853 1.391 . S
C853 H841 0.950 . S
C853 C849 1.393 . S
C853 C852 1.391 . S
C854 H844 0.950 . S
C854 C855 1.386 . S
C854 C856 1.391 . S
C855 C854 1.386 . S
C855 C859 1.393 . S
C856 H845 0.950 1_565 S
C856 C854 1.391 . S
C856 C857 1.400 . S
C857 C851 1.491 1_565 S
C857 C856 1.400 . S
C857 C858 1.398 . S
C858 H846 0.950 . S
C858 C857 1.398 . S
C858 C859 1.391 . S
C859 H847 0.950 . S
C859 C855 1.393 . S
C859 C858 1.391 . S
H860 C868 0.950 . S
H861 C873 0.950 . S
H862 C870 0.950 . S
H863 C872 0.950 1_565 S
H864 C874 0.950 . S
H865 C876 0.950 . S
H866 C878 0.950 1_545 S
H867 C879 0.950 . S
C868 H860 0.950 . S
C868 C869 1.386 . S
C868 C870 1.391 . S
C869 C868 1.386 . S
C869 C873 1.393 . S
C870 H862 0.950 . S
C870 C868 1.391 . S
C870 C871 1.400 . S
C871 C870 1.400 . S
C871 C872 1.398 . S
C871 C877 1.491 1_545 S
C872 H863 0.950 1_545 S
C872 C871 1.398 . S
C872 C873 1.391 . S
C873 H861 0.950 . S
C873 C869 1.393 . S
C873 C872 1.391 . S
C874 H864 0.950 . S
C874 C875 1.386 . S
C874 C876 1.391 . S
C875 C874 1.386 . S
C875 C879 1.393 . S
C876 H865 0.950 . S
C876 C874 1.391 . S
C876 C877 1.400 . S
C877 C871 1.491 1_565 S
C877 C876 1.400 . S
C877 C878 1.398 . S
C878 H866 0.950 1_565 S
C878 C877 1.398 . S
C878 C879 1.391 . S
C879 H867 0.950 . S
C879 C875 1.393 . S
C879 C878 1.391 . S
H880 C888 0.950 . S
H881 C893 0.950 . S
H882 C890 0.950 . S
H883 C892 0.950 . S
H884 C894 0.950 . S
H885 C896 0.950 . S
H886 C898 0.950 . S
H887 C899 0.950 . S
C888 H880 0.950 . S
C888 C889 1.386 . S
C888 C890 1.391 . S
C889 C888 1.386 . S
C889 C893 1.393 . S
C890 H882 0.950 . S
C890 C888 1.391 . S
C890 C891 1.400 . S
C891 C890 1.400 . S
C891 C892 1.398 . S
C891 C897 1.491 . S
C892 H883 0.950 . S
C892 C891 1.398 . S
C892 C893 1.391 . S
C893 H881 0.950 . S
C893 C889 1.393 . S
C893 C892 1.391 . S
C894 H884 0.950 . S
C894 C895 1.386 . S
C894 C896 1.391 . S
C895 C894 1.386 . S
C895 C899 1.393 . S
C896 H885 0.950 . S
C896 C894 1.391 . S
C896 C897 1.400 . S
C897 C891 1.491 . S
C897 C896 1.400 . S
C897 C898 1.398 . S
C898 H886 0.950 . S
C898 C897 1.398 . S
C898 C899 1.391 . S
C899 H887 0.950 . S
C899 C895 1.393 . S
C899 C898 1.391 . S
H900 C908 0.950 . S
H901 C913 0.950 . S
H902 C910 0.950 . S
H903 C912 0.950 . S
H904 C914 0.950 . S
H905 C916 0.950 . S
H906 C918 0.950 . S
H907 C919 0.950 . S
C908 H900 0.950 . S
C908 C909 1.386 . S
C908 C910 1.391 . S
C909 C908 1.386 . S
C909 C913 1.393 . S
C910 H902 0.950 . S
C910 C908 1.391 . S
C910 C911 1.400 . S
C911 C910 1.400 . S
C911 C912 1.398 . S
C911 C917 1.491 . S
C912 H903 0.950 . S
C912 C911 1.398 . S
C912 C913 1.391 . S
C913 H901 0.950 . S
C913 C909 1.393 . S
C913 C912 1.391 . S
C914 H904 0.950 . S
C914 C915 1.386 . S
C914 C916 1.391 . S
C915 C914 1.386 . S
C915 C919 1.393 . S
C916 H905 0.950 . S
C916 C914 1.391 . S
C916 C917 1.400 . S
C917 C911 1.491 . S
C917 C916 1.400 . S
C917 C918 1.398 . S
C918 H906 0.950 . S
C918 C917 1.398 . S
C918 C919 1.391 . S
C919 H907 0.950 . S
C919 C915 1.393 . S
C919 C918 1.391 . S
H920 C928 0.950 . S
H921 C933 0.950 . S
H922 C930 0.950 . S
H923 C932 0.950 . S
H924 C934 0.950 . S
H925 C936 0.950 . S
H926 C938 0.950 . S
H927 C939 0.950 . S
C928 H920 0.950 . S
C928 C929 1.386 . S
C928 C930 1.391 . S
C929 C928 1.386 . S
C929 C933 1.393 . S
C930 H922 0.950 . S
C930 C928 1.391 . S
C930 C931 1.400 . S
C931 C930 1.400 . S
C931 C932 1.398 . S
C931 C937 1.491 . S
C932 H923 0.950 . S
C932 C931 1.398 . S
C932 C933 1.391 . S
C933 H921 0.950 . S
C933 C929 1.393 . S
C933 C932 1.391 . S
C934 H924 0.950 . S
C934 C935 1.386 . S
C934 C936 1.391 . S
C935 C934 1.386 . S
C935 C939 1.393 . S
C936 H925 0.950 . S
C936 C934 1.391 . S
C936 C937 1.400 . S
C937 C931 1.491 . S
C937 C936 1.400 . S
C937 C938 1.398 . S
C938 H926 0.950 . S
C938 C937 1.398 . S
C938 C939 1.391 . S
C939 H927 0.950 . S
C939 C935 1.393 . S
C939 C938 1.391 . S
H940 C948 0.950 . S
H941 C953 0.950 . S
H942 C950 0.950 . S
H943 C952 0.950 . S
H944 C954 0.950 . S
H945 C956 0.950 . S
H946 C958 0.950 . S
H947 C959 0.950 . S
C948 H940 0.950 . S
C948 C949 1.386 . S
C948 C950 1.391 . S
C949 C948 1.386 . S
C949 C953 1.393 . S
C950 H942 0.950 . S
C950 C948 1.391 . S
C950 C951 1.400 . S
C951 C950 1.400 . S
C951 C952 1.398 . S
C951 C957 1.491 . S
C952 H943 0.950 . S
C952 C951 1.398 . S
C952 C953 1.391 . S
C953 H941 0.950 . S
C953 C949 1.393 . S
C953 C952 1.391 . S
C954 H944 0.950 . S
C954 C955 1.386 . S
C954 C956 1.391 . S
C955 C954 1.386 . S
C955 C959 1.393 . S
C956 H945 0.950 . S
C956 C954 1.391 . S
C956 C957 1.400 . S
C957 C951 1.491 . S
C957 C956 1.400 . S
C957 C958 1.398 . S
C958 H946 0.950 . S
C958 C957 1.398 . S
C958 C959 1.391 . S
C959 H947 0.950 . S
C959 C955 1.393 . S
C959 C958 1.391 . S
H960 C968 0.950 . S
H961 C973 0.950 . S
H962 C970 0.950 . S
H963 C972 0.950 . S
H964 C974 0.950 . S
H965 C976 0.950 . S
H966 C978 0.950 . S
H967 C979 0.950 . S
C968 H960 0.950 . S
C968 C969 1.386 . S
C968 C970 1.391 . S
C969 C968 1.386 . S
C969 C973 1.393 . S
C970 H962 0.950 . S
C970 C968 1.391 . S
C970 C971 1.400 . S
C971 C970 1.400 . S
C971 C972 1.398 . S
C971 C977 1.491 1_556 S
C972 H963 0.950 . S
C972 C971 1.398 . S
C972 C973 1.391 . S
C973 H961 0.950 . S
C973 C969 1.393 . S
C973 C972 1.391 . S
C974 H964 0.950 . S
C974 C975 1.386 . S
C974 C976 1.391 . S
C975 C974 1.386 . S
C975 C979 1.393 . S
C976 H965 0.950 . S
C976 C974 1.391 . S
C976 C977 1.400 . S
C977 C971 1.491 1_554 S
C977 C976 1.400 . S
C977 C978 1.398 . S
C978 H966 0.950 . S
C978 C977 1.398 . S
C978 C979 1.391 . S
C979 H967 0.950 . S
C979 C975 1.393 . S
C979 C978 1.391 . S
H980 C988 0.950 . S
H981 C993 0.950 . S
H982 C990 0.950 . S
H983 C992 0.950 . S
H984 C994 0.950 . S
H985 C996 0.950 . S
H986 C998 0.950 . S
H987 C999 0.950 . S
C988 H980 0.950 . S
C988 C989 1.386 . S
C988 C990 1.391 . S
C989 C988 1.386 . S
C989 C993 1.393 . S
C990 H982 0.950 . S
C990 C988 1.391 . S
C990 C991 1.400 . S
C991 C990 1.400 . S
C991 C992 1.398 . S
C991 C997 1.491 1_556 S
C992 H983 0.950 . S
C992 C991 1.398 . S
C992 C993 1.391 . S
C993 H981 0.950 . S
C993 C989 1.393 . S
C993 C992 1.391 . S
C994 H984 0.950 . S
C994 C995 1.386 . S
C994 C996 1.391 . S
C995 C994 1.386 . S
C995 C999 1.393 . S
C996 H985 0.950 . S
C996 C994 1.391 . S
C996 C997 1.400 . S
C997 C991 1.491 1_554 S
C997 C996 1.400 . S
C997 C998 1.398 . S
C998 H986 0.950 . S
C998 C997 1.398 . S
C998 C999 1.391 . S
C999 H987 0.950 . S
C999 C995 1.393 . S
C999 C998 1.391 . S
H1000 C1008 0.950 . S
H1001 C1013 0.950 . S
H1002 C1010 0.950 . S
H1003 C1012 0.950 . S
H1004 C1014 0.950 . S
H1005 C1016 0.950 . S
H1006 C1018 0.950 . S
H1007 C1019 0.950 . S
C1008 H1000 0.950 . S
C1008 C1009 1.386 . S
C1008 C1010 1.391 . S
C1009 C1008 1.386 . S
C1009 C1013 1.393 . S
C1010 H1002 0.950 . S
C1010 C1008 1.391 . S
C1010 C1011 1.400 . S
C1011 C1010 1.400 . S
C1011 C1012 1.398 . S
C1011 C1017 1.491 . S
C1012 H1003 0.950 . S
C1012 C1011 1.398 . S
C1012 C1013 1.391 . S
C1013 H1001 0.950 . S
C1013 C1009 1.393 . S
C1013 C1012 1.391 . S
C1014 H1004 0.950 . S
C1014 C1015 1.386 . S
C1014 C1016 1.391 . S
C1015 C1014 1.386 . S
C1015 C1019 1.393 . S
C1016 H1005 0.950 . S
C1016 C1014 1.391 . S
C1016 C1017 1.400 . S
C1017 C1011 1.491 . S
C1017 C1016 1.400 . S
C1017 C1018 1.398 . S
C1018 H1006 0.950 . S
C1018 C1017 1.398 . S
C1018 C1019 1.391 . S
C1019 H1007 0.950 . S
C1019 C1015 1.393 . S
C1019 C1018 1.391 . S
H1020 C1028 0.950 . S
H1021 C1033 0.950 . S
H1022 C1030 0.950 . S
H1023 C1032 0.950 . S
H1024 C1034 0.950 . S
H1025 C1036 0.950 . S
H1026 C1038 0.950 . S
H1027 C1039 0.950 . S
C1028 H1020 0.950 . S
C1028 C1029 1.386 . S
C1028 C1030 1.391 . S
C1029 C1028 1.386 . S
C1029 C1033 1.393 . S
C1030 H1022 0.950 . S
C1030 C1028 1.391 . S
C1030 C1031 1.400 . S
C1031 C1030 1.400 . S
C1031 C1032 1.398 . S
C1031 C1037 1.491 . S
C1032 H1023 0.950 . S
C1032 C1031 1.398 . S
C1032 C1033 1.391 . S
C1033 H1021 0.950 . S
C1033 C1029 1.393 . S
C1033 C1032 1.391 . S
C1034 H1024 0.950 . S
C1034 C1035 1.386 . S
C1034 C1036 1.391 . S
C1035 C1034 1.386 . S
C1035 C1039 1.393 . S
C1036 H1025 0.950 . S
C1036 C1034 1.391 . S
C1036 C1037 1.400 . S
C1037 C1031 1.491 . S
C1037 C1036 1.400 . S
C1037 C1038 1.398 . S
C1038 H1026 0.950 . S
C1038 C1037 1.398 . S
C1038 C1039 1.391 . S
C1039 H1027 0.950 . S
C1039 C1035 1.393 . S
C1039 C1038 1.391 . S
H1040 C1048 0.950 . S
H1041 C1053 0.950 . S
H1042 C1050 0.950 . S
H1043 C1052 0.950 . S
H1044 C1054 0.950 . S
H1045 C1056 0.950 . S
H1046 C1058 0.950 . S
H1047 C1059 0.950 . S
C1048 H1040 0.950 . S
C1048 C1049 1.386 . S
C1048 C1050 1.391 . S
C1049 C1048 1.386 . S
C1049 C1053 1.393 . S
C1050 H1042 0.950 . S
C1050 C1048 1.391 . S
C1050 C1051 1.400 . S
C1051 C1050 1.400 . S
C1051 C1052 1.398 . S
C1051 C1057 1.491 1_554 S
C1052 H1043 0.950 . S
C1052 C1051 1.398 . S
C1052 C1053 1.391 . S
C1053 H1041 0.950 . S
C1053 C1049 1.393 . S
C1053 C1052 1.391 . S
C1054 H1044 0.950 . S
C1054 C1055 1.386 . S
C1054 C1056 1.391 . S
C1055 C1054 1.386 . S
C1055 C1059 1.393 . S
C1056 H1045 0.950 . S
C1056 C1054 1.391 . S
C1056 C1057 1.400 . S
C1057 C1051 1.491 1_556 S
C1057 C1056 1.400 . S
C1057 C1058 1.398 . S
C1058 H1046 0.950 . S
C1058 C1057 1.398 . S
C1058 C1059 1.391 . S
C1059 H1047 0.950 . S
C1059 C1055 1.393 . S
C1059 C1058 1.391 . S
H1060 C1068 0.950 . S
H1061 C1073 0.950 . S
H1062 C1070 0.950 . S
H1063 C1072 0.950 . S
H1064 C1074 0.950 . S
H1065 C1076 0.950 . S
H1066 C1078 0.950 . S
H1067 C1079 0.950 . S
C1068 H1060 0.950 . S
C1068 C1069 1.386 . S
C1068 C1070 1.391 . S
C1069 C1068 1.386 . S
C1069 C1073 1.393 . S
C1070 H1062 0.950 . S
C1070 C1068 1.391 . S
C1070 C1071 1.400 . S
C1071 C1070 1.400 . S
C1071 C1072 1.398 . S
C1071 C1077 1.491 1_556 S
C1072 H1063 0.950 . S
C1072 C1071 1.398 . S
C1072 C1073 1.391 . S
C1073 H1061 0.950 . S
C1073 C1069 1.393 . S
C1073 C1072 1.391 . S
C1074 H1064 0.950 . S
C1074 C1075 1.386 . S
C1074 C1076 1.391 . S
C1075 C1074 1.386 . S
C1075 C1079 1.393 . S
C1076 H1065 0.950 . S
C1076 C1074 1.391 . S
C1076 C1077 1.400 . S
C1077 C1071 1.491 1_554 S
C1077 C1076 1.400 . S
C1077 C1078 1.398 . S
C1078 H1066 0.950 . S
C1078 C1077 1.398 . S
C1078 C1079 1.391 . S
C1079 H1067 0.950 . S
C1079 C1075 1.393 . S
C1079 C1078 1.391 . S
H1080 C1088 0.950 . S
H1081 C1093 0.950 . S
H1082 C1090 0.950 . S
H1083 C1092 0.950 . S
H1084 C1094 0.950 . S
H1085 C1096 0.950 . S
H1086 C1098 0.950 . S
H1087 C1099 0.950 . S
C1088 H1080 0.950 . S
C1088 C1089 1.386 . S
C1088 C1090 1.391 . S
C1089 C1088 1.386 . S
C1089 C1093 1.393 . S
C1090 H1082 0.950 . S
C1090 C1088 1.391 . S
C1090 C1091 1.400 . S
C1091 C1090 1.400 . S
C1091 C1092 1.398 . S
C1091 C1097 1.491 . S
C1092 H1083 0.950 . S
C1092 C1091 1.398 . S
C1092 C1093 1.391 . S
C1093 H1081 0.950 . S
C1093 C1089 1.393 . S
C1093 C1092 1.391 . S
C1094 H1084 0.950 . S
C1094 C1095 1.386 . S
C1094 C1096 1.391 . S
C1095 C1094 1.386 . S
C1095 C1099 1.393 . S
C1096 H1085 0.950 . S
C1096 C1094 1.391 . S
C1096 C1097 1.400 . S
C1097 C1091 1.491 . S
C1097 C1096 1.400 . S
C1097 C1098 1.398 . S
C1098 H1086 0.950 . S
C1098 C1097 1.398 . S
C1098 C1099 1.391 . S
C1099 H1087 0.950 . S
C1099 C1095 1.393 . S
C1099 C1098 1.391 . S
H1100 C1108 0.950 . S
H1101 C1113 0.950 . S
H1102 C1110 0.950 . S
H1103 C1112 0.950 . S
H1104 C1114 0.950 . S
H1105 C1116 0.950 . S
H1106 C1118 0.950 . S
H1107 C1119 0.950 . S
C1108 H1100 0.950 . S
C1108 C1109 1.386 . S
C1108 C1110 1.391 . S
C1109 C1108 1.386 . S
C1109 C1113 1.393 . S
C1110 H1102 0.950 . S
C1110 C1108 1.391 . S
C1110 C1111 1.400 . S
C1111 C1110 1.400 . S
C1111 C1112 1.398 . S
C1111 C1117 1.491 . S
C1112 H1103 0.950 . S
C1112 C1111 1.398 . S
C1112 C1113 1.391 . S
C1113 H1101 0.950 . S
C1113 C1109 1.393 . S
C1113 C1112 1.391 . S
C1114 H1104 0.950 . S
C1114 C1115 1.386 . S
C1114 C1116 1.391 . S
C1115 C1114 1.386 . S
C1115 C1119 1.393 . S
C1116 H1105 0.950 . S
C1116 C1114 1.391 . S
C1116 C1117 1.400 . S
C1117 C1111 1.491 . S
C1117 C1116 1.400 . S
C1117 C1118 1.398 . S
C1118 H1106 0.950 . S
C1118 C1117 1.398 . S
C1118 C1119 1.391 . S
C1119 H1107 0.950 . S
C1119 C1115 1.393 . S
C1119 C1118 1.391 . S
H1120 C1128 0.950 . S
H1121 C1133 0.950 . S
H1122 C1130 0.950 1_545 S
H1123 C1132 0.950 . S
H1124 C1134 0.950 . S
H1125 C1136 0.950 1_565 S
H1126 C1138 0.950 . S
H1127 C1139 0.950 . S
C1128 H1120 0.950 . S
C1128 C1129 1.386 . S
C1128 C1130 1.391 . S
C1129 C1128 1.386 . S
C1129 C1133 1.393 . S
C1130 H1122 0.950 1_565 S
C1130 C1128 1.391 . S
C1130 C1131 1.400 . S
C1131 C1130 1.400 . S
C1131 C1132 1.398 . S
C1131 C1137 1.491 1_665 S
C1132 H1123 0.950 . S
C1132 C1131 1.398 . S
C1132 C1133 1.391 . S
C1133 H1121 0.950 . S
C1133 C1129 1.393 . S
C1133 C1132 1.391 . S
C1134 H1124 0.950 . S
C1134 C1135 1.386 . S
C1134 C1136 1.391 . S
C1135 C1134 1.386 . S
C1135 C1139 1.393 . S
C1136 H1125 0.950 1_545 S
C1136 C1134 1.391 . S
C1136 C1137 1.400 . S
C1137 C1131 1.491 1_445 S
C1137 C1136 1.400 . S
C1137 C1138 1.398 . S
C1138 H1126 0.950 . S
C1138 C1137 1.398 . S
C1138 C1139 1.391 . S
C1139 H1127 0.950 . S
C1139 C1135 1.393 . S
C1139 C1138 1.391 . S
H1140 C1148 0.950 . S
H1141 C1153 0.950 . S
H1142 C1150 0.947 1_565 S
H1143 C1152 0.950 . S
H1144 C1154 0.950 . S
H1145 C1156 0.947 1_545 S
H1146 C1158 0.950 . S
H1147 C1159 0.950 . S
C1148 H1140 0.950 . S
C1148 C1149 1.386 . S
C1148 C1150 1.394 . S
C1149 C1148 1.386 . S
C1149 C1153 1.393 . S
C1150 H1142 0.947 1_545 S
C1150 C1148 1.394 . S
C1150 C1151 1.401 . S
C1151 C1150 1.401 . S
C1151 C1152 1.398 . S
C1151 C1157 1.491 1_645 S
C1152 H1143 0.950 . S
C1152 C1151 1.398 . S
C1152 C1153 1.391 . S
C1153 H1141 0.950 . S
C1153 C1149 1.393 . S
C1153 C1152 1.391 . S
C1154 H1144 0.950 . S
C1154 C1155 1.386 . S
C1154 C1156 1.394 . S
C1155 C1154 1.386 . S
C1155 C1159 1.393 . S
C1156 H1145 0.947 1_565 S
C1156 C1154 1.394 . S
C1156 C1157 1.401 . S
C1157 C1151 1.491 1_465 S
C1157 C1156 1.401 . S
C1157 C1158 1.398 . S
C1158 H1146 0.950 . S
C1158 C1157 1.398 . S
C1158 C1159 1.391 . S
C1159 H1147 0.950 . S
C1159 C1155 1.393 . S
C1159 C1158 1.391 . S
H1160 C1168 0.950 . S
H1161 C1173 0.950 . S
H1162 C1170 0.950 . S
H1163 C1172 0.950 . S
H1164 C1174 0.950 . S
H1165 C1176 0.950 . S
H1166 C1178 0.950 . S
H1167 C1179 0.950 . S
C1168 H1160 0.950 . S
C1168 C1169 1.386 . S
C1168 C1170 1.391 . S
C1169 C1168 1.386 . S
C1169 C1173 1.393 1_545 S
C1170 H1162 0.950 . S
C1170 C1168 1.391 . S
C1170 C1171 1.400 . S
C1171 C1170 1.400 . S
C1171 C1172 1.398 1_545 S
C1171 C1177 1.491 1_445 S
C1172 H1163 0.950 . S
C1172 C1171 1.398 1_565 S
C1172 C1173 1.391 . S
C1173 H1161 0.950 . S
C1173 C1169 1.393 1_565 S
C1173 C1172 1.391 . S
C1174 H1164 0.950 . S
C1174 C1175 1.386 . S
C1174 C1176 1.391 . S
C1175 C1174 1.386 . S
C1175 C1179 1.393 1_565 S
C1176 H1165 0.950 . S
C1176 C1174 1.391 . S
C1176 C1177 1.400 . S
C1177 C1171 1.491 1_665 S
C1177 C1176 1.400 . S
C1177 C1178 1.398 1_565 S
C1178 H1166 0.950 . S
C1178 C1177 1.398 1_545 S
C1178 C1179 1.391 . S
C1179 H1167 0.950 . S
C1179 C1175 1.393 1_545 S
C1179 C1178 1.391 . S
H1180 C1188 0.950 . S
H1181 C1193 0.950 . S
H1182 C1190 0.950 . S
H1183 C1192 0.950 . S
H1184 C1194 0.950 . S
H1185 C1196 0.950 . S
H1186 C1198 0.950 . S
H1187 C1199 0.950 . S
C1188 H1180 0.950 . S
C1188 C1189 1.386 1_565 S
C1188 C1190 1.391 . S
C1189 C1188 1.386 1_545 S
C1189 C1193 1.393 . S
C1190 H1182 0.950 . S
C1190 C1188 1.391 . S
C1190 C1191 1.400 1_565 S
C1191 C1190 1.400 1_545 S
C1191 C1192 1.398 . S
C1191 C1197 1.491 1_645 S
C1192 H1183 0.950 . S
C1192 C1191 1.398 . S
C1192 C1193 1.391 . S
C1193 H1181 0.950 . S
C1193 C1189 1.393 . S
C1193 C1192 1.391 . S
C1194 H1184 0.950 . S
C1194 C1195 1.386 1_545 S
C1194 C1196 1.391 . S
C1195 C1194 1.386 1_565 S
C1195 C1199 1.393 . S
C1196 H1185 0.950 . S
C1196 C1194 1.391 . S
C1196 C1197 1.400 1_545 S
C1197 C1191 1.491 1_465 S
C1197 C1196 1.400 1_565 S
C1197 C1198 1.398 . S
C1198 H1186 0.950 . S
C1198 C1197 1.398 . S
C1198 C1199 1.391 . S
C1199 H1187 0.950 . S
C1199 C1195 1.393 . S
C1199 C1198 1.391 . S
H1200 C1208 0.950 . S
H1201 C1213 0.950 . S
H1202 C1210 0.950 . S
H1203 C1212 0.950 . S
H1204 C1214 0.950 . S
H1205 C1216 0.950 . S
H1206 C1218 0.950 . S
H1207 C1219 0.950 . S
C1208 H1200 0.950 . S
C1208 C1209 1.386 . S
C1208 C1210 1.391 . S
C1209 C1208 1.386 . S
C1209 C1213 1.393 . S
C1210 H1202 0.950 . S
C1210 C1208 1.391 . S
C1210 C1211 1.400 . S
C1211 C1210 1.400 . S
C1211 C1212 1.398 . S
C1211 C1217 1.491 . S
C1212 H1203 0.950 . S
C1212 C1211 1.398 . S
C1212 C1213 1.391 . S
C1213 H1201 0.950 . S
C1213 C1209 1.393 . S
C1213 C1212 1.391 . S
C1214 H1204 0.950 . S
C1214 C1215 1.386 . S
C1214 C1216 1.391 . S
C1215 C1214 1.386 . S
C1215 C1219 1.393 . S
C1216 H1205 0.950 . S
C1216 C1214 1.391 . S
C1216 C1217 1.400 . S
C1217 C1211 1.491 . S
C1217 C1216 1.400 . S
C1217 C1218 1.398 . S
C1218 H1206 0.950 . S
C1218 C1217 1.398 . S
C1218 C1219 1.391 . S
C1219 H1207 0.950 . S
C1219 C1215 1.393 . S
C1219 C1218 1.391 . S
H1220 C1228 0.950 . S
H1221 C1233 0.950 . S
H1222 C1230 0.950 . S
H1223 C1232 0.950 . S
H1224 C1234 0.950 . S
H1225 C1236 0.950 . S
H1226 C1238 0.950 . S
H1227 C1239 0.950 . S
C1228 H1220 0.950 . S
C1228 C1229 1.386 . S
C1228 C1230 1.391 . S
C1229 C1228 1.386 . S
C1229 C1233 1.393 . S
C1230 H1222 0.950 . S
C1230 C1228 1.391 . S
C1230 C1231 1.400 . S
C1231 C1230 1.400 . S
C1231 C1232 1.398 . S
C1231 C1237 1.491 . S
C1232 H1223 0.950 . S
C1232 C1231 1.398 . S
C1232 C1233 1.391 . S
C1233 H1221 0.950 . S
C1233 C1229 1.393 . S
C1233 C1232 1.391 . S
C1234 H1224 0.950 . S
C1234 C1235 1.386 . S
C1234 C1236 1.391 . S
C1235 C1234 1.386 . S
C1235 C1239 1.393 . S
C1236 H1225 0.950 . S
C1236 C1234 1.391 . S
C1236 C1237 1.400 . S
C1237 C1231 1.491 . S
C1237 C1236 1.400 . S
C1237 C1238 1.398 . S
C1238 H1226 0.950 . S
C1238 C1237 1.398 . S
C1238 C1239 1.391 . S
C1239 H1227 0.950 . S
C1239 C1235 1.393 . S
C1239 C1238 1.391 . S
H1240 C1248 0.950 . S
H1241 C1253 0.950 . S
H1242 C1250 0.950 . S
H1243 C1252 0.950 . S
H1244 C1254 0.950 . S
H1245 C1256 0.950 . S
H1246 C1258 0.950 . S
H1247 C1259 0.950 . S
C1248 H1240 0.950 . S
C1248 C1249 1.386 . S
C1248 C1250 1.391 . S
C1249 C1248 1.386 . S
C1249 C1253 1.393 . S
C1250 H1242 0.950 . S
C1250 C1248 1.391 . S
C1250 C1251 1.400 . S
C1251 C1250 1.400 . S
C1251 C1252 1.398 . S
C1251 C1257 1.491 . S
C1252 H1243 0.950 . S
C1252 C1251 1.398 . S
C1252 C1253 1.391 . S
C1253 H1241 0.950 . S
C1253 C1249 1.393 . S
C1253 C1252 1.391 . S
C1254 H1244 0.950 . S
C1254 C1255 1.386 . S
C1254 C1256 1.391 . S
C1255 C1254 1.386 . S
C1255 C1259 1.393 . S
C1256 H1245 0.950 . S
C1256 C1254 1.391 . S
C1256 C1257 1.400 . S
C1257 C1251 1.491 . S
C1257 C1256 1.400 . S
C1257 C1258 1.398 . S
C1258 H1246 0.950 . S
C1258 C1257 1.398 . S
C1258 C1259 1.391 . S
C1259 H1247 0.950 . S
C1259 C1255 1.393 . S
C1259 C1258 1.391 . S
H1260 C1268 0.950 . S
H1261 C1273 0.950 . S
H1262 C1270 0.950 . S
H1263 C1272 0.950 . S
H1264 C1274 0.950 . S
H1265 C1276 0.950 . S
H1266 C1278 0.950 . S
H1267 C1279 0.950 . S
C1268 H1260 0.950 . S
C1268 C1269 1.386 . S
C1268 C1270 1.391 . S
C1269 C1268 1.386 . S
C1269 C1273 1.393 . S
C1270 H1262 0.950 . S
C1270 C1268 1.391 . S
C1270 C1271 1.400 . S
C1271 C1270 1.400 . S
C1271 C1272 1.398 . S
C1271 C1277 1.491 . S
C1272 H1263 0.950 . S
C1272 C1271 1.398 . S
C1272 C1273 1.391 . S
C1273 H1261 0.950 . S
C1273 C1269 1.393 . S
C1273 C1272 1.391 . S
C1274 H1264 0.950 . S
C1274 C1275 1.386 . S
C1274 C1276 1.391 . S
C1275 C1274 1.386 . S
C1275 C1279 1.393 . S
C1276 H1265 0.950 . S
C1276 C1274 1.391 . S
C1276 C1277 1.400 . S
C1277 C1271 1.491 . S
C1277 C1276 1.400 . S
C1277 C1278 1.398 . S
C1278 H1266 0.950 . S
C1278 C1277 1.398 . S
C1278 C1279 1.391 . S
C1279 H1267 0.950 . S
C1279 C1275 1.393 . S
C1279 C1278 1.391 . S
H1280 C1288 0.950 . S
H1281 C1293 0.950 . S
H1282 C1290 0.950 . S
H1283 C1292 0.950 . S
H1284 C1294 0.950 . S
H1285 C1296 0.950 . S
H1286 C1298 0.950 . S
H1287 C1299 0.950 . S
C1288 H1280 0.950 . S
C1288 C1289 1.386 . S
C1288 C1290 1.391 . S
C1289 C1288 1.386 . S
C1289 C1293 1.393 . S
C1290 H1282 0.950 . S
C1290 C1288 1.391 . S
C1290 C1291 1.400 . S
C1291 C1290 1.400 . S
C1291 C1292 1.398 . S
C1291 C1297 1.491 . S
C1292 H1283 0.950 . S
C1292 C1291 1.398 . S
C1292 C1293 1.391 . S
C1293 H1281 0.950 . S
C1293 C1289 1.393 . S
C1293 C1292 1.391 . S
C1294 H1284 0.950 . S
C1294 C1295 1.386 . S
C1294 C1296 1.391 . S
C1295 C1294 1.386 . S
C1295 C1299 1.393 . S
C1296 H1285 0.950 . S
C1296 C1294 1.391 . S
C1296 C1297 1.400 . S
C1297 C1291 1.491 . S
C1297 C1296 1.400 . S
C1297 C1298 1.398 . S
C1298 H1286 0.950 . S
C1298 C1297 1.398 . S
C1298 C1299 1.391 . S
C1299 H1287 0.950 . S
C1299 C1295 1.393 . S
C1299 C1298 1.391 . S
H1300 C1308 0.950 . S
H1301 C1313 0.950 . S
H1302 C1310 0.950 . S
H1303 C1312 0.950 . S
H1304 C1314 0.950 . S
H1305 C1316 0.950 . S
H1306 C1318 0.950 . S
H1307 C1319 0.950 . S
C1308 H1300 0.950 . S
C1308 C1309 1.386 . S
C1308 C1310 1.391 . S
C1309 C1308 1.386 . S
C1309 C1313 1.393 . S
C1310 H1302 0.950 . S
C1310 C1308 1.391 . S
C1310 C1311 1.400 . S
C1311 C1310 1.400 . S
C1311 C1312 1.398 . S
C1311 C1317 1.491 . S
C1312 H1303 0.950 . S
C1312 C1311 1.398 . S
C1312 C1313 1.391 . S
C1313 H1301 0.950 . S
C1313 C1309 1.393 . S
C1313 C1312 1.391 . S
C1314 H1304 0.950 . S
C1314 C1315 1.386 . S
C1314 C1316 1.391 . S
C1315 C1314 1.386 . S
C1315 C1319 1.393 . S
C1316 H1305 0.950 . S
C1316 C1314 1.391 . S
C1316 C1317 1.400 . S
C1317 C1311 1.491 . S
C1317 C1316 1.400 . S
C1317 C1318 1.398 . S
C1318 H1306 0.950 . S
C1318 C1317 1.398 . S
C1318 C1319 1.391 . S
C1319 H1307 0.950 . S
C1319 C1315 1.393 . S
C1319 C1318 1.391 . S
H1320 C1328 0.950 . S
H1321 C1333 0.950 . S
H1322 C1330 0.950 . S
H1323 C1332 0.950 . S
H1324 C1334 0.950 . S
H1325 C1336 0.950 . S
H1326 C1338 0.950 . S
H1327 C1339 0.950 . S
C1328 H1320 0.950 . S
C1328 C1329 1.386 . S
C1328 C1330 1.391 . S
C1329 C1328 1.386 . S
C1329 C1333 1.393 . S
C1330 H1322 0.950 . S
C1330 C1328 1.391 . S
C1330 C1331 1.400 . S
C1331 C1330 1.400 . S
C1331 C1332 1.398 . S
C1331 C1337 1.491 . S
C1332 H1323 0.950 . S
C1332 C1331 1.398 . S
C1332 C1333 1.391 . S
C1333 H1321 0.950 . S
C1333 C1329 1.393 . S
C1333 C1332 1.391 . S
C1334 H1324 0.950 . S
C1334 C1335 1.386 . S
C1334 C1336 1.391 . S
C1335 C1334 1.386 . S
C1335 C1339 1.393 . S
C1336 H1325 0.950 . S
C1336 C1334 1.391 . S
C1336 C1337 1.400 . S
C1337 C1331 1.491 . S
C1337 C1336 1.400 . S
C1337 C1338 1.398 . S
C1338 H1326 0.950 . S
C1338 C1337 1.398 . S
C1338 C1339 1.391 . S
C1339 H1327 0.950 . S
C1339 C1335 1.393 . S
C1339 C1338 1.391 . S
H1340 C1348 0.950 . S
H1341 C1353 0.950 . S
H1342 C1350 0.950 . S
H1343 C1352 0.950 . S
H1344 C1354 0.950 . S
H1345 C1356 0.950 . S
H1346 C1358 0.950 . S
H1347 C1359 0.950 . S
C1348 H1340 0.950 . S
C1348 C1349 1.386 . S
C1348 C1350 1.391 . S
C1349 C1348 1.386 . S
C1349 C1353 1.393 . S
C1350 H1342 0.950 . S
C1350 C1348 1.391 . S
C1350 C1351 1.400 . S
C1351 C1350 1.400 . S
C1351 C1352 1.398 . S
C1351 C1357 1.491 . S
C1352 H1343 0.950 . S
C1352 C1351 1.398 . S
C1352 C1353 1.391 . S
C1353 H1341 0.950 . S
C1353 C1349 1.393 . S
C1353 C1352 1.391 . S
C1354 H1344 0.950 . S
C1354 C1355 1.386 . S
C1354 C1356 1.391 . S
C1355 C1354 1.386 . S
C1355 C1359 1.393 . S
C1356 H1345 0.950 . S
C1356 C1354 1.391 . S
C1356 C1357 1.400 . S
C1357 C1351 1.491 . S
C1357 C1356 1.400 . S
C1357 C1358 1.398 . S
C1358 H1346 0.950 . S
C1358 C1357 1.398 . S
C1358 C1359 1.391 . S
C1359 H1347 0.950 . S
C1359 C1355 1.393 . S
C1359 C1358 1.391 . S
H1360 C1368 0.950 . S
H1361 C1373 0.950 . S
H1362 C1370 0.950 . S
H1363 C1372 0.950 . S
H1364 C1374 0.950 . S
H1365 C1376 0.950 . S
H1366 C1378 0.950 . S
H1367 C1379 0.950 . S
C1368 H1360 0.950 . S
C1368 C1369 1.386 . S
C1368 C1370 1.391 . S
C1369 C1368 1.386 . S
C1369 C1373 1.393 . S
C1370 H1362 0.950 . S
C1370 C1368 1.391 . S
C1370 C1371 1.400 . S
C1371 C1370 1.400 . S
C1371 C1372 1.398 . S
C1371 C1377 1.491 . S
C1372 H1363 0.950 . S
C1372 C1371 1.398 . S
C1372 C1373 1.391 . S
C1373 H1361 0.950 . S
C1373 C1369 1.393 . S
C1373 C1372 1.391 . S
C1374 H1364 0.950 . S
C1374 C1375 1.386 . S
C1374 C1376 1.391 . S
C1375 C1374 1.386 . S
C1375 C1379 1.393 . S
C1376 H1365 0.950 . S
C1376 C1374 1.391 . S
C1376 C1377 1.400 . S
C1377 C1371 1.491 . S
C1377 C1376 1.400 . S
C1377 C1378 1.398 . S
C1378 H1366 0.950 . S
C1378 C1377 1.398 . S
C1378 C1379 1.391 . S
C1379 H1367 0.950 . S
C1379 C1375 1.393 . S
C1379 C1378 1.391 . S
H1380 C1388 0.950 . S
H1381 C1393 0.950 . S
H1382 C1390 0.950 . S
H1383 C1392 0.950 . S
H1384 C1394 0.950 . S
H1385 C1396 0.950 . S
H1386 C1398 0.950 . S
H1387 C1399 0.950 . S
C1388 H1380 0.950 . S
C1388 C1389 1.386 . S
C1388 C1390 1.391 . S
C1389 C1388 1.386 . S
C1389 C1393 1.393 . S
C1390 H1382 0.950 . S
C1390 C1388 1.391 . S
C1390 C1391 1.400 . S
C1391 C1390 1.400 . S
C1391 C1392 1.398 . S
C1391 C1397 1.491 . S
C1392 H1383 0.950 . S
C1392 C1391 1.398 . S
C1392 C1393 1.391 . S
C1393 H1381 0.950 . S
C1393 C1389 1.393 . S
C1393 C1392 1.391 . S
C1394 H1384 0.950 . S
C1394 C1395 1.386 . S
C1394 C1396 1.391 . S
C1395 C1394 1.386 . S
C1395 C1399 1.393 . S
C1396 H1385 0.950 . S
C1396 C1394 1.391 . S
C1396 C1397 1.400 . S
C1397 C1391 1.491 . S
C1397 C1396 1.400 . S
C1397 C1398 1.398 . S
C1398 H1386 0.950 . S
C1398 C1397 1.398 . S
C1398 C1399 1.391 . S
C1399 H1387 0.950 . S
C1399 C1395 1.393 . S
C1399 C1398 1.391 . S
H1400 C1408 0.950 . S
H1401 C1413 0.950 . S
H1402 C1410 0.950 . S
H1403 C1412 0.950 . S
H1404 C1414 0.950 . S
H1405 C1416 0.950 . S
H1406 C1418 0.950 . S
H1407 C1419 0.950 . S
C1408 H1400 0.950 . S
C1408 C1409 1.386 . S
C1408 C1410 1.391 . S
C1409 C1408 1.386 . S
C1409 C1413 1.393 . S
C1410 H1402 0.950 . S
C1410 C1408 1.391 . S
C1410 C1411 1.400 . S
C1411 C1410 1.400 . S
C1411 C1412 1.398 . S
C1411 C1417 1.491 . S
C1412 H1403 0.950 . S
C1412 C1411 1.398 . S
C1412 C1413 1.391 . S
C1413 H1401 0.950 . S
C1413 C1409 1.393 . S
C1413 C1412 1.391 . S
C1414 H1404 0.950 . S
C1414 C1415 1.386 . S
C1414 C1416 1.391 . S
C1415 C1414 1.386 . S
C1415 C1419 1.393 . S
C1416 H1405 0.950 . S
C1416 C1414 1.391 . S
C1416 C1417 1.400 . S
C1417 C1411 1.491 . S
C1417 C1416 1.400 . S
C1417 C1418 1.398 . S
C1418 H1406 0.950 . S
C1418 C1417 1.398 . S
C1418 C1419 1.391 . S
C1419 H1407 0.950 . S
C1419 C1415 1.393 . S
C1419 C1418 1.391 . S
H1420 C1428 0.950 . S
H1421 C1433 0.950 . S
H1422 C1430 0.950 . S
H1423 C1432 0.950 . S
H1424 C1434 0.950 . S
H1425 C1436 0.950 . S
H1426 C1438 0.950 . S
H1427 C1439 0.950 . S
C1428 H1420 0.950 . S
C1428 C1429 1.386 . S
C1428 C1430 1.391 . S
C1429 C1428 1.386 . S
C1429 C1433 1.393 . S
C1430 H1422 0.950 . S
C1430 C1428 1.391 . S
C1430 C1431 1.400 . S
C1431 C1430 1.400 . S
C1431 C1432 1.398 . S
C1431 C1437 1.491 . S
C1432 H1423 0.950 . S
C1432 C1431 1.398 . S
C1432 C1433 1.391 . S
C1433 H1421 0.950 . S
C1433 C1429 1.393 . S
C1433 C1432 1.391 . S
C1434 H1424 0.950 . S
C1434 C1435 1.386 . S
C1434 C1436 1.391 . S
C1435 C1434 1.386 . S
C1435 C1439 1.393 . S
C1436 H1425 0.950 . S
C1436 C1434 1.391 . S
C1436 C1437 1.400 . S
C1437 C1431 1.491 . S
C1437 C1436 1.400 . S
C1437 C1438 1.398 . S
C1438 H1426 0.950 . S
C1438 C1437 1.398 . S
C1438 C1439 1.391 . S
C1439 H1427 0.950 . S
C1439 C1435 1.393 . S
C1439 C1438 1.391 . S
H1440 C1448 0.949 1_565 S
H1441 C1453 0.950 . S
H1442 C1450 0.950 . S
H1443 C1452 0.950 . S
H1444 C1454 0.950 . S
H1445 C1456 0.950 . S
H1446 C1458 0.950 . S
H1447 C1459 0.950 . S
C1448 H1440 0.949 1_545 S
C1448 C1449 1.385 1_545 S
C1448 C1450 1.393 . S
C1449 C1448 1.385 1_565 S
C1449 C1453 1.393 . S
C1450 H1442 0.950 . S
C1450 C1448 1.393 . S
C1450 C1451 1.400 . S
C1451 C1450 1.400 . S
C1451 C1452 1.398 . S
C1451 C1457 1.491 . S
C1452 H1443 0.950 . S
C1452 C1451 1.398 . S
C1452 C1453 1.391 1_545 S
C1453 H1441 0.950 . S
C1453 C1449 1.393 . S
C1453 C1452 1.391 1_565 S
C1454 H1444 0.950 . S
C1454 C1455 1.386 . S
C1454 C1456 1.391 . S
C1455 C1454 1.386 . S
C1455 C1459 1.393 . S
C1456 H1445 0.950 . S
C1456 C1454 1.391 . S
C1456 C1457 1.400 . S
C1457 C1451 1.491 . S
C1457 C1456 1.400 . S
C1457 C1458 1.398 . S
C1458 H1446 0.950 . S
C1458 C1457 1.398 . S
C1458 C1459 1.391 . S
C1459 H1447 0.950 . S
C1459 C1455 1.393 . S
C1459 C1458 1.391 . S
H1460 C1468 0.950 . S
H1461 C1473 0.950 . S
H1462 C1470 0.950 . S
H1463 C1472 0.950 . S
H1464 C1474 0.950 . S
H1465 C1476 0.950 . S
H1466 C1478 0.950 . S
H1467 C1479 0.950 1_545 S
C1468 H1460 0.950 . S
C1468 C1469 1.386 . S
C1468 C1470 1.391 . S
C1469 C1468 1.386 . S
C1469 C1473 1.393 . S
C1470 H1462 0.950 . S
C1470 C1468 1.391 . S
C1470 C1471 1.400 . S
C1471 C1470 1.400 . S
C1471 C1472 1.398 . S
C1471 C1477 1.491 . S
C1472 H1463 0.950 . S
C1472 C1471 1.398 . S
C1472 C1473 1.391 . S
C1473 H1461 0.950 . S
C1473 C1469 1.393 . S
C1473 C1472 1.391 . S
C1474 H1464 0.950 . S
C1474 C1475 1.386 . S
C1474 C1476 1.391 1_545 S
C1475 C1474 1.386 . S
C1475 C1479 1.393 1_545 S
C1476 H1465 0.950 . S
C1476 C1474 1.391 1_565 S
C1476 C1477 1.400 . S
C1477 C1471 1.491 . S
C1477 C1476 1.400 . S
C1477 C1478 1.398 . S
C1478 H1466 0.950 . S
C1478 C1477 1.398 . S
C1478 C1479 1.390 . S
C1479 H1467 0.950 1_565 S
C1479 C1475 1.393 1_565 S
C1479 C1478 1.390 . S
H1480 C1488 0.950 . S
H1481 C1493 0.950 . S
H1482 C1490 0.950 . S
H1483 C1492 0.950 . S
H1484 C1494 0.950 . S
H1485 C1496 0.950 . S
H1486 C1498 0.950 . S
H1487 C1499 0.950 . S
C1488 H1480 0.950 . S
C1488 C1489 1.386 . S
C1488 C1490 1.391 1_545 S
C1489 C1488 1.386 . S
C1489 C1493 1.393 . S
C1490 H1482 0.950 . S
C1490 C1488 1.391 1_565 S
C1490 C1491 1.400 . S
C1491 C1490 1.400 . S
C1491 C1492 1.398 . S
C1491 C1497 1.491 . S
C1492 H1483 0.950 . S
C1492 C1491 1.398 . S
C1492 C1493 1.391 1_565 S
C1493 H1481 0.950 . S
C1493 C1489 1.393 . S
C1493 C1492 1.391 1_545 S
C1494 H1484 0.950 . S
C1494 C1495 1.386 . S
C1494 C1496 1.391 . S
C1495 C1494 1.386 . S
C1495 C1499 1.393 . S
C1496 H1485 0.950 . S
C1496 C1494 1.391 . S
C1496 C1497 1.400 . S
C1497 C1491 1.491 . S
C1497 C1496 1.400 . S
C1497 C1498 1.398 . S
C1498 H1486 0.950 . S
C1498 C1497 1.398 . S
C1498 C1499 1.391 . S
C1499 H1487 0.950 . S
C1499 C1495 1.393 . S
C1499 C1498 1.391 . S
H1500 C1508 0.950 . S
H1501 C1513 0.950 . S
H1502 C1510 0.950 . S
H1503 C1512 0.950 . S
H1504 C1514 0.950 . S
H1505 C1516 0.950 . S
H1506 C1518 0.950 . S
H1507 C1519 0.950 . S
C1508 H1500 0.950 . S
C1508 C1509 1.386 . S
C1508 C1510 1.391 1_565 S
C1509 C1508 1.386 . S
C1509 C1513 1.393 . S
C1510 H1502 0.950 . S
C1510 C1508 1.391 1_545 S
C1510 C1511 1.400 . S
C1511 C1510 1.400 . S
C1511 C1512 1.398 . S
C1511 C1517 1.491 . S
C1512 H1503 0.950 . S
C1512 C1511 1.398 . S
C1512 C1513 1.391 1_545 S
C1513 H1501 0.950 . S
C1513 C1509 1.393 . S
C1513 C1512 1.391 1_565 S
C1514 H1504 0.950 . S
C1514 C1515 1.386 . S
C1514 C1516 1.391 . S
C1515 C1514 1.386 . S
C1515 C1519 1.393 . S
C1516 H1505 0.950 . S
C1516 C1514 1.391 . S
C1516 C1517 1.400 . S
C1517 C1511 1.491 . S
C1517 C1516 1.400 . S
C1517 C1518 1.398 . S
C1518 H1506 0.950 . S
C1518 C1517 1.398 . S
C1518 C1519 1.391 . S
C1519 H1507 0.950 . S
C1519 C1515 1.393 . S
C1519 C1518 1.391 . S
H1520 C1528 0.950 . S
H1521 C1533 0.950 . S
H1522 C1530 0.950 . S
H1523 C1532 0.950 . S
H1524 C1534 0.950 . S
H1525 C1536 0.950 . S
H1526 C1538 0.950 . S
H1527 C1539 0.950 . S
C1528 H1520 0.950 . S
C1528 C1529 1.386 . S
C1528 C1530 1.391 . S
C1529 C1528 1.386 . S
C1529 C1533 1.393 . S
C1530 H1522 0.950 . S
C1530 C1528 1.391 . S
C1530 C1531 1.400 . S
C1531 C1530 1.400 . S
C1531 C1532 1.398 . S
C1531 C1537 1.491 . S
C1532 H1523 0.950 . S
C1532 C1531 1.398 . S
C1532 C1533 1.391 . S
C1533 H1521 0.950 . S
C1533 C1529 1.393 . S
C1533 C1532 1.391 . S
C1534 H1524 0.950 . S
C1534 C1535 1.386 . S
C1534 C1536 1.391 1_545 S
C1535 C1534 1.386 . S
C1535 C1539 1.393 . S
C1536 H1525 0.950 . S
C1536 C1534 1.391 1_565 S
C1536 C1537 1.400 . S
C1537 C1531 1.491 . S
C1537 C1536 1.400 . S
C1537 C1538 1.398 . S
C1538 H1526 0.950 . S
C1538 C1537 1.398 . S
C1538 C1539 1.391 1_565 S
C1539 H1527 0.950 . S
C1539 C1535 1.393 . S
C1539 C1538 1.391 1_545 S
H1540 C1548 0.950 . S
H1541 C1553 0.950 . S
H1542 C1550 0.950 . S
H1543 C1552 0.950 . S
H1544 C1554 0.950 . S
H1545 C1556 0.950 . S
H1546 C1558 0.950 . S
H1547 C1559 0.950 . S
C1548 H1540 0.950 . S
C1548 C1549 1.386 . S
C1548 C1550 1.391 . S
C1549 C1548 1.386 . S
C1549 C1553 1.393 . S
C1550 H1542 0.950 . S
C1550 C1548 1.391 . S
C1550 C1551 1.400 . S
C1551 C1550 1.400 . S
C1551 C1552 1.398 . S
C1551 C1557 1.491 . S
C1552 H1543 0.950 . S
C1552 C1551 1.398 . S
C1552 C1553 1.391 . S
C1553 H1541 0.950 . S
C1553 C1549 1.393 . S
C1553 C1552 1.391 . S
C1554 H1544 0.950 . S
C1554 C1555 1.386 . S
C1554 C1556 1.391 1_565 S
C1555 C1554 1.386 . S
C1555 C1559 1.393 . S
C1556 H1545 0.950 . S
C1556 C1554 1.391 1_545 S
C1556 C1557 1.400 . S
C1557 C1551 1.491 . S
C1557 C1556 1.400 . S
C1557 C1558 1.398 . S
C1558 H1546 0.950 . S
C1558 C1557 1.398 . S
C1558 C1559 1.391 1_545 S
C1559 H1547 0.950 . S
C1559 C1555 1.393 . S
C1559 C1558 1.391 1_565 S
H1560 C1568 0.950 . S
H1561 C1573 0.950 . S
H1562 C1570 0.950 . S
H1563 C1572 0.950 . S
H1564 C1574 0.950 . S
H1565 C1576 0.950 . S
H1566 C1578 0.950 . S
H1567 C1579 0.950 . S
C1568 H1560 0.950 . S
C1568 C1569 1.386 . S
C1568 C1570 1.391 1_565 S
C1569 C1568 1.386 . S
C1569 C1573 1.393 . S
C1570 H1562 0.950 . S
C1570 C1568 1.391 1_545 S
C1570 C1571 1.400 . S
C1571 C1570 1.400 . S
C1571 C1572 1.398 . S
C1571 C1577 1.491 . S
C1572 H1563 0.950 . S
C1572 C1571 1.398 . S
C1572 C1573 1.391 1_545 S
C1573 H1561 0.950 . S
C1573 C1569 1.393 . S
C1573 C1572 1.391 1_565 S
C1574 H1564 0.950 . S
C1574 C1575 1.386 . S
C1574 C1576 1.391 . S
C1575 C1574 1.386 . S
C1575 C1579 1.393 . S
C1576 H1565 0.950 . S
C1576 C1574 1.391 . S
C1576 C1577 1.400 . S
C1577 C1571 1.491 . S
C1577 C1576 1.400 . S
C1577 C1578 1.398 . S
C1578 H1566 0.950 . S
C1578 C1577 1.398 . S
C1578 C1579 1.391 . S
C1579 H1567 0.950 . S
C1579 C1575 1.393 . S
C1579 C1578 1.391 . S
H1580 C1588 0.950 . S
H1581 C1593 0.950 . S
H1582 C1590 0.950 . S
H1583 C1592 0.950 . S
H1584 C1594 0.950 . S
H1585 C1596 0.950 . S
H1586 C1598 0.950 . S
H1587 C1599 0.946 1_545 S
C1588 H1580 0.950 . S
C1588 C1589 1.386 . S
C1588 C1590 1.391 . S
C1589 C1588 1.386 . S
C1589 C1593 1.393 . S
C1590 H1582 0.950 . S
C1590 C1588 1.391 . S
C1590 C1591 1.400 . S
C1591 C1590 1.400 . S
C1591 C1592 1.398 . S
C1591 C1597 1.491 . S
C1592 H1583 0.950 . S
C1592 C1591 1.398 . S
C1592 C1593 1.391 . S
C1593 H1581 0.950 . S
C1593 C1589 1.393 . S
C1593 C1592 1.391 . S
C1594 H1584 0.950 . S
C1594 C1595 1.386 . S
C1594 C1596 1.391 1_545 S
C1595 C1594 1.386 . S
C1595 C1599 1.385 1_545 S
C1596 H1585 0.950 . S
C1596 C1594 1.391 1_565 S
C1596 C1597 1.400 . S
C1597 C1591 1.491 . S
C1597 C1596 1.400 . S
C1597 C1598 1.398 . S
C1598 H1586 0.950 . S
C1598 C1597 1.398 . S
C1598 C1599 1.402 . S
C1599 H1587 0.946 1_565 S
C1599 C1595 1.385 1_565 S
C1599 C1598 1.402 . S
C649 C11 1.539 . S
C655 C371 1.541 . S
C669 C51 1.539 . S
C675 C331 1.543 . S
C689 C451 1.537 . S
C695 C91 1.544 . S
C709 C131 1.544 . S
C715 C411 1.538 . S
C729 C522 1.544 . S
C735 C162 1.537 . S
C749 C482 1.542 . S
C755 C202 1.541 . S
C769 C602 1.538 . S
C775 C242 1.544 . S
C789 C282 1.544 . S
C795 C562 1.537 . S
C809 C99 1.677 . S
C815 C19 1.671 . S
C829 C139 1.680 . S
C835 C59 1.672 . S
C849 C250 1.672 . S
C855 C170 1.675 . S
C869 C210 1.677 . S
C875 C290 1.671 . S
C889 C419 1.671 . S
C895 C339 1.678 . S
C909 C459 1.672 . S
C915 C379 1.680 . S
C929 C490 1.672 . S
C935 C570 1.676 . S
C949 C530 1.678 . S
C955 C610 1.671 . S
C969 C219 1.539 . S
C975 C10 1.529 . S
C989 C179 1.548 . S
C995 C50 1.521 . S
C1009 C90 1.529 . S
C1015 C299 1.539 . S
C1029 C259 1.527 . S
C1035 C130 1.541 . S
C1049 C330 1.542 . S
C1055 C539 1.527 . S
C1069 C499 1.545 . S
C1075 C370 1.523 . S
C1089 C410 1.547 . S
C1095 C619 1.521 . S
C1109 C579 1.530 . S
C1115 C450 1.538 . S
C1129 C42 1.608 . S
C1135 C2 1.608 . S
C1149 C122 1.628 . S
C1155 C82 1.626 . S
C1169 C211 1.626 . S
C1175 C171 1.621 . S
C1189 C251 1.610 . S
C1195 C291 1.615 . S
C1209 C362 1.614 . S
C1215 C322 1.620 . S
C1229 C442 1.623 . S
C1235 C402 1.627 . S
C1249 C491 1.626 . S
C1255 C531 1.621 . S
C1269 C571 1.609 . S
C1275 C611 1.607 . S
C1289 C7 1.639 . S
C1295 C16 1.639 . S
C1309 C47 1.641 . S
C1315 C56 1.641 . S
C1329 C87 1.653 . S
C1335 C96 1.653 . S
C1349 C136 1.649 . S
C1355 C127 1.649 . S
C1369 C176 1.652 . S
C1375 C167 1.652 . S
C1389 C207 1.654 . S
C1395 C216 1.654 . S
C1409 C256 1.652 . S
C1415 C247 1.652 . S
C1429 C296 1.643 . S
C1435 C287 1.643 . S
C1449 C336 1.644 . S
C1455 C327 1.644 . S
C1469 C367 1.649 . S
C1475 C376 1.649 . S
C1489 C416 1.652 . S
C1495 C407 1.652 . S
C1509 C456 1.642 . S
C1515 C447 1.642 . S
C1529 C496 1.639 . S
C1535 C487 1.639 . S
C1549 C536 1.654 . S
C1555 C527 1.654 . S
C1569 C567 1.652 . S
C1575 C576 1.652 . S
C1589 C616 1.647 . S
C1595 C607 1.647 . S
