# Generated by pormake.
# Topology skb, (5)-cn, num edge types: 1
# Building blocks:
#     Node 0, Type 0, BuildingBlock: XOMCOT_clean_sbu_0, # of connection points: 5
#     Node 1, Type 0, BuildingBlock: XOMCOT_clean_sbu_0, # of connection points: 5
#     Node 2, Type 0, BuildingBlock: XOMCOT_clean_sbu_0, # of connection points: 5
#     Node 3, Type 0, BuildingBlock: XOMCOT_clean_sbu_0, # of connection points: 5
#     Node 4, Type 0, BuildingBlock: XOMCOT_clean_sbu_0, # of connection points: 5
#     Node 5, Type 0, BuildingBlock: XOMCOT_clean_sbu_0, # of connection points: 5
#     Node 6, Type 0, BuildingBlock: XOMCOT_clean_sbu_0, # of connection points: 5
#     Node 7, Type 0, BuildingBlock: XOMCOT_clean_sbu_0, # of connection points: 5
#     Node 8, Type 0, BuildingBlock: XOMCOT_clean_sbu_0, # of connection points: 5
#     Node 9, Type 0, BuildingBlock: XOMCOT_clean_sbu_0, # of connection points: 5
#     Node 10, Type 0, BuildingBlock: XOMCOT_clean_sbu_0, # of connection points: 5
#     Node 11, Type 0, BuildingBlock: XOMCOT_clean_sbu_0, # of connection points: 5
#     Node 12, Type 0, BuildingBlock: XOMCOT_clean_sbu_0, # of connection points: 5
#     Node 13, Type 0, BuildingBlock: XOMCOT_clean_sbu_0, # of connection points: 5
#     Node 14, Type 0, BuildingBlock: XOMCOT_clean_sbu_0, # of connection points: 5
#     Node 15, Type 0, BuildingBlock: XOMCOT_clean_sbu_0, # of connection points: 5
#     Edge 16, Type (0, 0), BuildingBlock: UVAHIK_clean_linker_0, # of connection points: 2
#     Edge 17, Type (0, 0), BuildingBlock: UVAHIK_clean_linker_0, # of connection points: 2
#     Edge 18, Type (0, 0), BuildingBlock: UVAHIK_clean_linker_0, # of connection points: 2
#     Edge 19, Type (0, 0), BuildingBlock: UVAHIK_clean_linker_0, # of connection points: 2
#     Edge 20, Type (0, 0), BuildingBlock: UVAHIK_clean_linker_0, # of connection points: 2
#     Edge 21, Type (0, 0), BuildingBlock: UVAHIK_clean_linker_0, # of connection points: 2
#     Edge 22, Type (0, 0), BuildingBlock: UVAHIK_clean_linker_0, # of connection points: 2
#     Edge 23, Type (0, 0), BuildingBlock: UVAHIK_clean_linker_0, # of connection points: 2
#     Edge 24, Type (0, 0), BuildingBlock: UVAHIK_clean_linker_0, # of connection points: 2
#     Edge 25, Type (0, 0), BuildingBlock: UVAHIK_clean_linker_0, # of connection points: 2
#     Edge 26, Type (0, 0), BuildingBlock: UVAHIK_clean_linker_0, # of connection points: 2
#     Edge 27, Type (0, 0), BuildingBlock: UVAHIK_clean_linker_0, # of connection points: 2
#     Edge 28, Type (0, 0), BuildingBlock: UVAHIK_clean_linker_0, # of connection points: 2
#     Edge 29, Type (0, 0), BuildingBlock: UVAHIK_clean_linker_0, # of connection points: 2
#     Edge 30, Type (0, 0), BuildingBlock: UVAHIK_clean_linker_0, # of connection points: 2
#     Edge 31, Type (0, 0), BuildingBlock: UVAHIK_clean_linker_0, # of connection points: 2
#     Edge 32, Type (0, 0), BuildingBlock: UVAHIK_clean_linker_0, # of connection points: 2
#     Edge 33, Type (0, 0), BuildingBlock: UVAHIK_clean_linker_0, # of connection points: 2
#     Edge 34, Type (0, 0), BuildingBlock: UVAHIK_clean_linker_0, # of connection points: 2
#     Edge 35, Type (0, 0), BuildingBlock: UVAHIK_clean_linker_0, # of connection points: 2
#     Edge 36, Type (0, 0), BuildingBlock: UVAHIK_clean_linker_0, # of connection points: 2
#     Edge 37, Type (0, 0), BuildingBlock: UVAHIK_clean_linker_0, # of connection points: 2
#     Edge 38, Type (0, 0), BuildingBlock: UVAHIK_clean_linker_0, # of connection points: 2
#     Edge 39, Type (0, 0), BuildingBlock: UVAHIK_clean_linker_0, # of connection points: 2
#     Edge 40, Type (0, 0), BuildingBlock: UVAHIK_clean_linker_0, # of connection points: 2
#     Edge 41, Type (0, 0), BuildingBlock: UVAHIK_clean_linker_0, # of connection points: 2
#     Edge 42, Type (0, 0), BuildingBlock: UVAHIK_clean_linker_0, # of connection points: 2
#     Edge 43, Type (0, 0), BuildingBlock: UVAHIK_clean_linker_0, # of connection points: 2
#     Edge 44, Type (0, 0), BuildingBlock: UVAHIK_clean_linker_0, # of connection points: 2
#     Edge 45, Type (0, 0), BuildingBlock: UVAHIK_clean_linker_0, # of connection points: 2
#     Edge 46, Type (0, 0), BuildingBlock: UVAHIK_clean_linker_0, # of connection points: 2
#     Edge 47, Type (0, 0), BuildingBlock: UVAHIK_clean_linker_0, # of connection points: 2
#     Edge 48, Type (0, 0), BuildingBlock: UVAHIK_clean_linker_0, # of connection points: 2
#     Edge 49, Type (0, 0), BuildingBlock: UVAHIK_clean_linker_0, # of connection points: 2
#     Edge 50, Type (0, 0), BuildingBlock: UVAHIK_clean_linker_0, # of connection points: 2
#     Edge 51, Type (0, 0), BuildingBlock: UVAHIK_clean_linker_0, # of connection points: 2
#     Edge 52, Type (0, 0), BuildingBlock: UVAHIK_clean_linker_0, # of connection points: 2
#     Edge 53, Type (0, 0), BuildingBlock: UVAHIK_clean_linker_0, # of connection points: 2
#     Edge 54, Type (0, 0), BuildingBlock: UVAHIK_clean_linker_0, # of connection points: 2
#     Edge 55, Type (0, 0), BuildingBlock: UVAHIK_clean_linker_0, # of connection points: 2
# Relax obj value: 0.090
# Max RMSD: 0.140
# Mean RMSD: 0.140
data_MOF--net-skb--node1-XOMCOT_clean_sbu_0--edge1-UVAHIK_clean_linker_0
_symmetry_space_group_name_H-M    P1
_symmetry_Int_Tables_number       1
_symmetry_cell_setting            triclinic
loop_
_symmetry_equiv_pos_as_xyz
'x, y, z'
_cell_length_a     62.219183
_cell_length_b     35.304955
_cell_length_c     85.545524
_cell_angle_alpha  89.911697
_cell_angle_beta   89.947717
_cell_angle_gamma 90.052559
loop_
_atom_site_label
_atom_site_type_symbol
_atom_site_fract_x
_atom_site_fract_y
_atom_site_fract_z
_atom_type_partial_charge
Co0 Co 0.18769 0.02596 0.14817 0.0
C1 C 0.18023 0.02333 0.11355 0.0
C2 C 0.20926 0.0522 0.12021 0.0
C3 C 0.20836 0.05096 0.10421 0.0
N4 N 0.19173 0.03492 0.12609 0.0
N5 N 0.1902 0.03283 0.10002 0.0
H6 H 0.16553 0.007 0.1143 0.0
H7 H 0.22225 0.06373 0.12711 0.0
C8 C 0.19428 0.10307 0.16258 0.0
O9 O 0.17857 0.09659 0.17251 0.0
N10 N 0.18497 0.01734 0.17059 0.0
C11 C 0.16875 0.00219 0.17904 0.0
C12 C 0.17501 -0.00026 0.19444 0.0
C13 C 0.20098 0.02304 0.18101 0.0
N14 N 0.19529 0.01285 0.19567 0.0
C15 C 0.1424 0.01531 0.14729 0.0
C16 C 0.13017 0.08952 0.14239 0.0
C17 C 0.11439 0.06173 0.14473 0.0
C18 C 0.12071 0.02426 0.14683 0.0
C19 C 0.15199 0.07925 0.14307 0.0
N20 N 0.15785 0.04276 0.14642 0.0
H21 H 0.14661 0.98595 0.14876 0.0
H22 H 0.16398 0.10062 0.14075 0.0
H23 H 0.15357 0.99238 0.17461 0.0
H24 H 0.2165 0.03461 0.17784 0.0
O25 O 0.18303 0.97296 0.14434 0.0
O26 O 0.21489 -0.0013 0.14866 0.0
O27 O 0.19908 0.07851 0.15221 0.0
C28 C 0.20356 0.96836 0.14593 0.0
H29 H 0.22039 0.06183 0.09622 0.0
H30 H 0.16553 0.98806 0.2039 0.0
H31 H 0.1257 0.11868 0.14019 0.0
H32 H 0.10888 0.00191 0.14818 0.0
Co33 Co 0.81088 0.03788 0.14478 0.0
C34 C 0.8151 0.03215 0.10954 0.0
C35 C 0.78766 0.00339 0.11896 0.0
C36 C 0.7878 -0.00182 0.10307 0.0
N37 N 0.80508 0.02377 0.12318 0.0
N38 N 0.80504 0.01629 0.09719 0.0
H39 H 0.82921 0.04953 0.10835 0.0
H40 H 0.77554 0.99302 0.12697 0.0
C41 C 0.8076 0.95374 0.14545 0.0
O42 O 0.82137 0.95344 0.13378 0.0
N43 N 0.81521 0.05141 0.16637 0.0
C44 C 0.83106 0.07223 0.17276 0.0
C45 C 0.82669 0.07673 0.18848 0.0
C46 C 0.80139 0.04391 0.17808 0.0
N47 N 0.80795 0.05905 0.19175 0.0
C48 C 0.85391 0.04753 0.13417 0.0
C49 C 0.87326 0.9949 0.15342 0.0
C50 C 0.88617 0.01733 0.14361 0.0
C51 C 0.87612 0.04375 0.13389 0.0
C52 C 0.85082 -0.00077 0.15314 0.0
N53 N 0.84131 0.02467 0.14323 0.0
H54 H 0.8471 0.07078 0.12774 0.0
H55 H 0.84126 0.98344 0.16144 0.0
H56 H 0.84457 0.08392 0.1664 0.0
H57 H 0.78668 0.02795 0.17654 0.0
O58 O 0.81355 0.09012 0.13895 0.0
O59 O 0.78287 0.06254 0.14546 0.0
O60 O 0.80213 0.98521 0.15167 0.0
C61 C 0.79305 0.09322 0.14124 0.0
H62 H 0.77588 0.98308 0.09628 0.0
H63 H 0.8362 0.09283 0.19672 0.0
H64 H 0.88045 0.97486 0.16146 0.0
H65 H 0.88544 0.06307 0.12673 0.0
Co66 Co 0.19094 0.03252 0.88866 0.0
C67 C 0.18509 0.02809 0.92348 0.0
C68 C 0.21257 -0.00234 0.9149 0.0
C69 C 0.21203 0.99425 0.93083 0.0
N70 N 0.19573 0.01865 0.91023 0.0
N71 N 0.1949 0.01355 0.93633 0.0
H72 H 0.17092 0.04583 0.92374 0.0
H73 H 0.2247 0.98606 0.90722 0.0
C74 C 0.19565 0.95846 0.87149 0.0
O75 O 0.17919 0.96701 0.86255 0.0
N76 N 0.18752 0.04597 0.8667 0.0
C77 C 0.17171 0.06491 0.85924 0.0
C78 C 0.17731 0.06925 0.84376 0.0
C79 C 0.20273 0.04014 0.85566 0.0
N80 N 0.19683 0.05363 0.84152 0.0
C81 C 0.14576 0.04365 0.89039 0.0
C82 C 0.13329 0.96888 0.89321 0.0
C83 C 0.11762 -0.00295 0.89149 0.0
C84 C 0.12404 0.03478 0.89052 0.0
C85 C 0.15512 0.97912 0.89287 0.0
N86 N 0.16108 0.016 0.89041 0.0
H87 H 0.15011 0.07315 0.88993 0.0
H88 H 0.16707 0.9574 0.89461 0.0
H89 H 0.15731 0.07608 0.86444 0.0
H90 H 0.21781 0.02599 0.858 0.0
O91 O 0.1869 0.08449 0.89454 0.0
O92 O 0.21833 0.05909 0.88851 0.0
O93 O 0.20157 0.9809 0.88237 0.0
C94 C 0.20739 0.08898 0.89255 0.0
H95 H 0.22346 0.97855 0.93782 0.0
H96 H 0.16797 0.08383 0.83495 0.0
H97 H 0.12873 0.93945 0.89459 0.0
H98 H 0.11229 0.05736 0.88978 0.0
Co99 Co 0.81436 0.01448 0.88437 0.0
C100 C 0.818 0.01802 0.91986 0.0
C101 C 0.78852 0.03969 0.91048 0.0
C102 C 0.78824 0.04491 0.92636 0.0
N103 N 0.80731 0.02355 0.90624 0.0
N104 N 0.80672 0.03122 0.93218 0.0
H105 H 0.83371 0.00563 0.92102 0.0
H106 H 0.77601 0.04805 0.90241 0.0
C107 C 0.8106 0.0979 0.88737 0.0
O108 O 0.82338 0.09506 0.89954 0.0
N109 N 0.81968 0.0061 0.86246 0.0
C110 C 0.83576 0.9869 0.85553 0.0
C111 C 0.83134 0.98438 0.83973 0.0
C112 C 0.80574 0.01469 0.85097 0.0
N113 N 0.81234 0.00164 0.83695 0.0
C114 C 0.85677 0.0027 0.89564 0.0
C115 C 0.87685 0.06025 0.87934 0.0
C116 C 0.8893 0.03577 0.88857 0.0
C117 C 0.8789 0.00678 0.89676 0.0
C118 C 0.85446 0.05541 0.8787 0.0
N119 N 0.84459 0.02749 0.8872 0.0
H120 H 0.84958 0.97834 0.90117 0.0
H121 H 0.84526 0.07306 0.87086 0.0
H122 H 0.84929 0.97446 0.86158 0.0
H123 H 0.79073 0.02937 0.85299 0.0
O124 O 0.81698 0.96121 0.88817 0.0
O125 O 0.78648 0.98983 0.88202 0.0
O126 O 0.80585 0.06838 0.87945 0.0
C127 C 0.79662 0.95846 0.88526 0.0
H128 H 0.7755 0.05774 0.93315 0.0
H129 H 0.84086 0.96948 0.83112 0.0
H130 H 0.88434 0.08241 0.87247 0.0
H131 H 0.88792 0.98609 0.90343 0.0
Co132 Co 0.19052 0.5176 0.64528 0.0
C133 C 0.18584 0.51978 0.61033 0.0
C134 C 0.2142 0.54736 0.61908 0.0
C135 C 0.21447 0.54944 0.60312 0.0
N136 N 0.19635 0.52888 0.62364 0.0
N137 N 0.19677 0.53199 0.59756 0.0
H138 H 0.17096 0.5039 0.60996 0.0
H139 H 0.22644 0.55807 0.62688 0.0
C140 C 0.19371 0.59419 0.66088 0.0
O141 O 0.17745 0.58603 0.6701 0.0
N142 N 0.18615 0.50699 0.66737 0.0
C143 C 0.16971 0.49033 0.67508 0.0
C144 C 0.17507 0.48713 0.69065 0.0
C145 C 0.20133 0.51296 0.67837 0.0
N146 N 0.195 0.50131 0.69269 0.0
C147 C 0.14601 0.50219 0.64214 0.0
C148 C 0.13116 0.57513 0.63799 0.0
C149 C 0.11633 0.54528 0.63932 0.0
C150 C 0.12412 0.50847 0.64092 0.0
C151 C 0.1533 0.56749 0.6394 0.0
N152 N 0.16036 0.53146 0.64236 0.0
H153 H 0.15119 0.47329 0.64345 0.0
H154 H 0.16457 0.5905 0.63804 0.0
H155 H 0.155 0.48007 0.67001 0.0
H156 H 0.21677 0.52577 0.67586 0.0
O157 O 0.18789 0.4647 0.64053 0.0
O158 O 0.21846 0.49272 0.64676 0.0
O159 O 0.19987 0.57068 0.65048 0.0
C160 C 0.2083 0.46168 0.64311 0.0
H161 H 0.22681 0.56289 0.59611 0.0
H162 H 0.16528 0.47424 0.69967 0.0
H163 H 0.12571 0.60392 0.63618 0.0
H164 H 0.11327 0.48444 0.64134 0.0
Co165 Co 0.81488 0.54275 0.64607 0.0
C166 C 0.82056 0.54617 0.61126 0.0
C167 C 0.79092 0.52035 0.61865 0.0
C168 C 0.79124 0.52131 0.60263 0.0
N169 N 0.80917 0.53596 0.62408 0.0
N170 N 0.8098 0.53752 0.59797 0.0
H171 H 0.83595 0.56044 0.61162 0.0
H172 H 0.77804 0.50955 0.6259 0.0
C173 C 0.811 0.46418 0.6595 0.0
O174 O 0.82719 0.4709 0.66894 0.0
N175 N 0.8193 0.54892 0.6685 0.0
C176 C 0.83735 0.55508 0.67689 0.0
C177 C 0.83207 0.55641 0.69254 0.0
C178 C 0.80339 0.54673 0.67924 0.0
N179 N 0.81069 0.55124 0.69398 0.0
C180 C 0.85942 0.55784 0.64287 0.0
C181 C 0.87303 0.48635 0.63439 0.0
C182 C 0.88796 0.51611 0.63499 0.0
C183 C 0.88088 0.55209 0.63921 0.0
C184 C 0.85132 0.49356 0.63787 0.0
N185 N 0.84487 0.52882 0.64257 0.0
H186 H 0.85469 0.58599 0.64627 0.0
H187 H 0.83979 0.47103 0.63636 0.0
H188 H 0.8534 0.55791 0.67234 0.0
H189 H 0.7868 0.54091 0.67632 0.0
O190 O 0.81797 0.59638 0.64303 0.0
O191 O 0.78712 0.56789 0.64819 0.0
O192 O 0.80506 0.48912 0.64959 0.0
C193 C 0.79752 0.59928 0.64552 0.0
H194 H 0.77873 0.51098 0.59495 0.0
H195 H 0.84313 0.56111 0.7021 0.0
H196 H 0.878 0.45821 0.6309 0.0
H197 H 0.89197 0.57573 0.63987 0.0
Co198 Co 0.19044 0.53727 0.38522 0.0
C199 C 0.18653 0.5375 0.42041 0.0
C200 C 0.21307 0.50508 0.41161 0.0
C201 C 0.21361 0.50384 0.42762 0.0
N202 N 0.1961 0.52599 0.40701 0.0
N203 N 0.19697 0.52419 0.43315 0.0
H204 H 0.17287 0.55621 0.42102 0.0
H205 H 0.22462 0.49219 0.40381 0.0
C206 C 0.19852 0.46186 0.36849 0.0
O207 O 0.19031 0.47374 0.35525 0.0
N208 N 0.18588 0.54855 0.36326 0.0
C209 C 0.16775 0.55952 0.35592 0.0
C210 C 0.17245 0.56607 0.34037 0.0
C211 C 0.20139 0.54979 0.35222 0.0
N212 N 0.19363 0.55984 0.33808 0.0
C213 C 0.14786 0.55352 0.3949 0.0
C214 C 0.12726 0.49239 0.38153 0.0
C215 C 0.11498 0.52216 0.38768 0.0
C216 C 0.1256 0.55216 0.39493 0.0
C217 C 0.14981 0.49478 0.38178 0.0
N218 N 0.15989 0.5258 0.388 0.0
H219 H 0.15523 0.57825 0.3999 0.0
H220 H 0.1588 0.4725 0.37632 0.0
H221 H 0.15222 0.56298 0.36139 0.0
H222 H 0.21793 0.54205 0.35444 0.0
O223 O 0.18896 0.59046 0.38945 0.0
O224 O 0.21901 0.5602 0.38377 0.0
O225 O 0.19832 0.48275 0.38069 0.0
C226 C 0.20945 0.59207 0.38705 0.0
H227 H 0.22544 0.48924 0.43468 0.0
H228 H 0.16118 0.57521 0.33152 0.0
H229 H 0.11955 0.46855 0.37589 0.0
H230 H 0.11671 0.57535 0.40012 0.0
Co231 Co 0.81312 0.51934 0.38669 0.0
C232 C 0.81802 0.52431 0.42156 0.0
C233 C 0.78942 0.5507 0.41264 0.0
C234 C 0.78954 0.55447 0.42855 0.0
N235 N 0.8072 0.53196 0.4082 0.0
N236 N 0.80739 0.53773 0.43426 0.0
H237 H 0.833 0.5088 0.42199 0.0
H238 H 0.77706 0.56073 0.40478 0.0
C239 C 0.80871 0.59433 0.37002 0.0
O240 O 0.82545 0.5865 0.36123 0.0
N241 N 0.81773 0.50716 0.36473 0.0
C242 C 0.8341 0.48915 0.35752 0.0
C243 C 0.82935 0.48572 0.34186 0.0
C244 C 0.80308 0.51338 0.35336 0.0
N245 N 0.80983 0.50101 0.33925 0.0
C246 C 0.85817 0.50835 0.38963 0.0
C247 C 0.87051 0.58318 0.39233 0.0
C248 C 0.88623 0.55501 0.39086 0.0
C249 C 0.87986 0.51725 0.39004 0.0
C250 C 0.8487 0.57289 0.39178 0.0
N251 N 0.84284 0.53599 0.38929 0.0
H252 H 0.85388 0.47884 0.38902 0.0
H253 H 0.8367 0.59462 0.39327 0.0
H254 H 0.84832 0.47807 0.36301 0.0
H255 H 0.78779 0.52707 0.35543 0.0
O256 O 0.81705 0.4671 0.39224 0.0
O257 O 0.78584 0.49247 0.38565 0.0
O258 O 0.80258 0.57121 0.38062 0.0
C259 C 0.79668 0.46251 0.38975 0.0
H260 H 0.7774 0.56888 0.43538 0.0
H261 H 0.83929 0.47202 0.33316 0.0
H262 H 0.87502 0.61266 0.39354 0.0
H263 H 0.89165 0.4947 0.38943 0.0
Co264 Co 0.69066 0.03066 0.64622 0.0
C265 C 0.68875 0.03357 0.61059 0.0
C266 C 0.71622 0.06032 0.62088 0.0
C267 C 0.71826 0.06237 0.60499 0.0
N268 N 0.6976 0.04289 0.62457 0.0
N269 N 0.70108 0.04543 0.59847 0.0
H270 H 0.67434 0.01711 0.60908 0.0
H271 H 0.7279 0.07024 0.62929 0.0
C272 C 0.6955 0.11417 0.64568 0.0
O273 O 0.68202 0.11389 0.63386 0.0
N274 N 0.68558 0.01884 0.66792 0.0
C275 C 0.66946 -0.00117 0.67445 0.0
C276 C 0.67402 0.99386 0.69013 0.0
C277 C 0.69969 0.02543 0.67951 0.0
N278 N 0.69314 0.0104 0.69322 0.0
C279 C 0.6477 0.0247 0.63495 0.0
C280 C 0.62945 0.07711 0.65488 0.0
C281 C 0.61604 0.05555 0.64516 0.0
C282 C 0.62551 0.02946 0.63499 0.0
C283 C 0.65176 0.07182 0.6543 0.0
N284 N 0.66071 0.0462 0.64421 0.0
H285 H 0.65413 0.00152 0.6283 0.0
H286 H 0.66168 0.08674 0.66262 0.0
H287 H 0.65578 0.9876 0.66818 0.0
H288 H 0.71476 0.04021 0.67778 0.0
O289 O 0.68682 0.97829 0.64097 0.0
O290 O 0.71796 0.00412 0.6476 0.0
O291 O 0.70038 0.08311 0.65252 0.0
C292 C 0.70718 0.97394 0.64362 0.0
H293 H 0.73152 0.07518 0.59872 0.0
H294 H 0.66447 0.97789 0.69842 0.0
H295 H 0.62273 0.09703 0.66316 0.0
H296 H 0.61576 0.01096 0.6278 0.0
Co297 Co 0.31338 0.02863 0.64852 0.0
C298 C 0.31554 0.0269 0.61292 0.0
C299 C 0.2877 0.00039 0.62285 0.0
C300 C 0.28589 -0.00081 0.6069 0.0
N301 N 0.30641 0.01719 0.62678 0.0
N302 N 0.30334 0.01592 0.60064 0.0
H303 H 0.33002 0.04325 0.61159 0.0
H304 H 0.27581 0.99045 0.63112 0.0
C305 C 0.30762 0.94524 0.6478 0.0
O306 O 0.32102 0.94522 0.63591 0.0
N307 N 0.31868 0.03977 0.67025 0.0
C308 C 0.3352 0.05892 0.67665 0.0
C309 C 0.33125 0.06303 0.69244 0.0
C310 C 0.3049 0.03285 0.68207 0.0
N311 N 0.31212 0.04678 0.6958 0.0
C312 C 0.35631 0.03387 0.63718 0.0
C313 C 0.37429 0.97983 0.65651 0.0
C314 C 0.38775 0.0013 0.64675 0.0
C315 C 0.3784 0.02827 0.6369 0.0
C316 C 0.35201 0.9859 0.65619 0.0
N317 N 0.34318 0.01228 0.64636 0.0
H318 H 0.35008 0.05773 0.63082 0.0
H319 H 0.34204 0.9709 0.66449 0.0
H320 H 0.34882 0.06998 0.67023 0.0
H321 H 0.2897 0.01842 0.68053 0.0
O322 O 0.31771 0.08102 0.64343 0.0
O323 O 0.28631 0.05595 0.64999 0.0
O324 O 0.30312 0.97636 0.65469 0.0
C325 C 0.29738 0.0859 0.64607 0.0
H326 H 0.27256 0.98735 0.60042 0.0
H327 H 0.34129 0.07811 0.70068 0.0
H328 H 0.38096 0.95937 0.6646 0.0
H329 H 0.38824 0.0468 0.62975 0.0
Co330 Co 0.69257 0.02919 0.38519 0.0
C331 C 0.69005 0.02702 0.42062 0.0
C332 C 0.71684 -0.0029 0.41092 0.0
C333 C 0.71848 0.99591 0.42688 0.0
N334 N 0.69881 0.0159 0.40685 0.0
N335 N 0.70168 0.01477 0.43299 0.0
H336 H 0.67647 0.04564 0.4218 0.0
H337 H 0.72854 0.98607 0.40276 0.0
C338 C 0.69759 0.94568 0.38475 0.0
O339 O 0.68388 0.94485 0.39645 0.0
N340 N 0.68789 0.04227 0.36357 0.0
C341 C 0.67159 0.06206 0.35722 0.0
C342 C 0.67583 0.06715 0.34152 0.0
C343 C 0.70187 0.03599 0.35184 0.0
N344 N 0.69494 0.05089 0.3382 0.0
C345 C 0.64928 0.03341 0.39604 0.0
C346 C 0.63192 0.98102 0.37569 0.0
C347 C 0.61819 0.00118 0.38566 0.0
C348 C 0.62719 0.02742 0.39599 0.0
C349 C 0.65413 0.98755 0.37629 0.0
N350 N 0.66266 0.01295 0.38666 0.0
H351 H 0.6553 0.05665 0.40284 0.0
H352 H 0.66429 0.97361 0.36783 0.0
H353 H 0.65787 0.07273 0.36362 0.0
H354 H 0.71695 0.02119 0.35335 0.0
O355 O 0.68839 0.08118 0.3909 0.0
O356 O 0.71981 0.05606 0.38447 0.0
O357 O 0.70265 0.97733 0.37846 0.0
C358 C 0.70883 0.08587 0.38862 0.0
H359 H 0.73134 0.98285 0.43348 0.0
H360 H 0.66598 0.08275 0.33331 0.0
H361 H 0.62554 0.96114 0.36725 0.0
H362 H 0.61712 0.04499 0.40334 0.0
Co363 Co 0.31546 0.02438 0.38691 0.0
C364 C 0.3171 0.02676 0.42263 0.0
C365 C 0.28976 0.05362 0.41222 0.0
C366 C 0.28764 0.05569 0.4281 0.0
N367 N 0.30837 0.03613 0.4086 0.0
N368 N 0.30473 0.03868 0.43471 0.0
H369 H 0.33146 0.01025 0.42422 0.0
H370 H 0.27816 0.06364 0.40377 0.0
C371 C 0.31052 0.10783 0.38738 0.0
O372 O 0.3244 0.1078 0.39896 0.0
N373 N 0.32071 0.01314 0.36517 0.0
C374 C 0.33674 0.99288 0.35871 0.0
C375 C 0.33275 0.98947 0.34288 0.0
C376 C 0.30718 0.0214 0.35337 0.0
N377 N 0.31407 0.00727 0.33958 0.0
C378 C 0.35833 0.01963 0.39836 0.0
C379 C 0.37645 0.07174 0.37815 0.0
C380 C 0.3899 0.05059 0.38799 0.0
C381 C 0.38048 0.02469 0.39832 0.0
C382 C 0.35415 0.06614 0.37873 0.0
N383 N 0.34527 0.04067 0.38896 0.0
H384 H 0.35198 0.99644 0.40509 0.0
H385 H 0.34419 0.08069 0.37031 0.0
H386 H 0.35005 0.98072 0.3651 0.0
H387 H 0.2924 0.03704 0.35497 0.0
O388 O 0.31977 0.97208 0.39207 0.0
O389 O 0.2884 -0.00303 0.38545 0.0
O390 O 0.30534 0.0767 0.38075 0.0
C391 C 0.29948 0.96707 0.38937 0.0
H392 H 0.27438 0.06865 0.4343 0.0
H393 H 0.34246 0.97391 0.33459 0.0
H394 H 0.38312 0.09147 0.36973 0.0
H395 H 0.39027 0.00642 0.40559 0.0
Co396 Co 0.68876 0.52664 0.14652 0.0
C397 C 0.68358 0.52786 0.11158 0.0
C398 C 0.71063 0.55977 0.11999 0.0
C399 C 0.71071 0.56113 0.10402 0.0
N400 N 0.69368 0.53914 0.12481 0.0
N401 N 0.69388 0.54088 0.09865 0.0
H402 H 0.66962 0.50954 0.11141 0.0
H403 H 0.7226 0.57211 0.12759 0.0
C404 C 0.69477 0.60203 0.1628 0.0
O405 O 0.67838 0.59501 0.17206 0.0
N406 N 0.68521 0.51452 0.16859 0.0
C407 C 0.66944 0.49545 0.17608 0.0
C408 C 0.67496 0.49148 0.19158 0.0
C409 C 0.70033 0.5208 0.17964 0.0
N410 N 0.6944 0.50746 0.19382 0.0
C411 C 0.64346 0.51679 0.14496 0.0
C412 C 0.63159 0.59168 0.1417 0.0
C413 C 0.61567 0.56391 0.14357 0.0
C414 C 0.62181 0.52612 0.1448 0.0
C415 C 0.65337 0.58099 0.14211 0.0
N416 N 0.65904 0.54405 0.14473 0.0
H417 H 0.64752 0.4872 0.14557 0.0
H418 H 0.66548 0.6024 0.14025 0.0
H419 H 0.6552 0.48371 0.17086 0.0
H420 H 0.71543 0.53492 0.17726 0.0
O421 O 0.68402 0.47448 0.14115 0.0
O422 O 0.71582 0.49892 0.14678 0.0
O423 O 0.70014 0.57832 0.15223 0.0
C424 C 0.70446 0.46926 0.14302 0.0
H425 H 0.72247 0.57569 0.09687 0.0
H426 H 0.66567 0.47672 0.20039 0.0
H427 H 0.62727 0.62114 0.14011 0.0
H428 H 0.60989 0.5038 0.14564 0.0
Co429 Co 0.31232 0.53809 0.14616 0.0
C430 C 0.31385 0.53535 0.11061 0.0
C431 C 0.28652 0.5081 0.12095 0.0
C432 C 0.28444 0.5063 0.10503 0.0
N433 N 0.30505 0.52586 0.12459 0.0
N434 N 0.30157 0.5235 0.09852 0.0
H435 H 0.32818 0.552 0.10905 0.0
H436 H 0.27495 0.49784 0.1294 0.0
C437 C 0.30877 0.45419 0.14546 0.0
O438 O 0.32171 0.45516 0.13331 0.0
N439 N 0.31789 0.54981 0.16778 0.0
C440 C 0.33363 0.57128 0.17393 0.0
C441 C 0.32944 0.57614 0.18966 0.0
C442 C 0.30437 0.54215 0.17966 0.0
N443 N 0.31092 0.558 0.19321 0.0
C444 C 0.35463 0.54833 0.13425 0.0
C445 C 0.37507 0.49498 0.15256 0.0
C446 C 0.38747 0.51835 0.14277 0.0
C447 C 0.37686 0.54505 0.13349 0.0
C448 C 0.35261 0.49893 0.15282 0.0
N449 N 0.34257 0.52492 0.14344 0.0
H450 H 0.34739 0.57172 0.12816 0.0
H451 H 0.34347 0.48246 0.16114 0.0
H452 H 0.34671 0.58373 0.16735 0.0
H453 H 0.28967 0.52615 0.17823 0.0
O454 O 0.31473 0.59079 0.14098 0.0
O455 O 0.28442 0.56277 0.14809 0.0
O456 O 0.3039 0.48493 0.15251 0.0
C457 C 0.29439 0.59373 0.14395 0.0
H458 H 0.27117 0.49369 0.09873 0.0
H459 H 0.33877 0.59324 0.19766 0.0
H460 H 0.38266 0.47453 0.16021 0.0
H461 H 0.38575 0.56501 0.12634 0.0
Co462 Co 0.68887 0.52691 0.88584 0.0
C463 C 0.68428 0.52719 0.92105 0.0
C464 C 0.71274 0.49968 0.91258 0.0
C465 C 0.71317 0.49915 0.9286 0.0
N466 N 0.69466 0.51707 0.90775 0.0
N467 N 0.69534 0.51645 0.93394 0.0
H468 H 0.66956 0.5433 0.92144 0.0
H469 H 0.72518 0.4891 0.90492 0.0
C470 C 0.69899 0.45196 0.86948 0.0
O471 O 0.68829 0.46151 0.85686 0.0
N472 N 0.6842 0.53685 0.86377 0.0
C473 C 0.66581 0.54524 0.85622 0.0
C474 C 0.67038 0.55043 0.84057 0.0
C475 C 0.69969 0.53813 0.85271 0.0
N476 N 0.69172 0.54575 0.83834 0.0
C477 C 0.6455 0.53875 0.89477 0.0
C478 C 0.62759 0.47491 0.88153 0.0
C479 C 0.61406 0.50411 0.88666 0.0
C480 C 0.62331 0.53536 0.89403 0.0
C481 C 0.64999 0.47928 0.88263 0.0
N482 N 0.65875 0.5119 0.8885 0.0
H483 H 0.65182 0.56436 0.89978 0.0
H484 H 0.65988 0.457 0.87815 0.0
H485 H 0.65013 0.54737 0.86157 0.0
H486 H 0.71646 0.53294 0.85521 0.0
O487 O 0.68535 0.58003 0.88983 0.0
O488 O 0.71648 0.55303 0.8844 0.0
O489 O 0.69919 0.47354 0.88149 0.0
C490 C 0.7058 0.58382 0.88754 0.0
H491 H 0.72581 0.48734 0.93579 0.0
H492 H 0.6587 0.55645 0.83154 0.0
H493 H 0.62102 0.44989 0.87599 0.0
H494 H 0.61345 0.55801 0.89867 0.0
Co495 Co 0.31064 0.52276 0.88519 0.0
C496 C 0.31219 0.52838 0.92076 0.0
C497 C 0.28459 0.55356 0.91 0.0
C498 C 0.28251 0.55705 0.92585 0.0
N499 N 0.30332 0.53619 0.90663 0.0
N500 N 0.29978 0.5411 0.93267 0.0
H501 H 0.32672 0.51252 0.92257 0.0
H502 H 0.27294 0.56263 0.9014 0.0
C503 C 0.30587 0.60618 0.88474 0.0
O504 O 0.31914 0.60655 0.89669 0.0
N505 N 0.31618 0.50978 0.86368 0.0
C506 C 0.33237 0.48923 0.85759 0.0
C507 C 0.32864 0.48474 0.84177 0.0
C508 C 0.30282 0.51714 0.85169 0.0
N509 N 0.30996 0.50215 0.83814 0.0
C510 C 0.35342 0.51787 0.89688 0.0
C511 C 0.3719 0.5685 0.87621 0.0
C512 C 0.38518 0.54754 0.88623 0.0
C513 C 0.37561 0.52251 0.89684 0.0
C514 C 0.34957 0.56353 0.87687 0.0
N515 N 0.34051 0.5387 0.88727 0.0
H516 H 0.34692 0.49511 0.90378 0.0
H517 H 0.33974 0.57784 0.8683 0.0
H518 H 0.34563 0.47767 0.86421 0.0
H519 H 0.28798 0.53279 0.85298 0.0
O520 O 0.31456 0.47083 0.89104 0.0
O521 O 0.28341 0.49582 0.88389 0.0
O522 O 0.30096 0.57475 0.87825 0.0
C523 C 0.29425 0.46605 0.88831 0.0
H524 H 0.2692 0.57029 0.93187 0.0
H525 H 0.33851 0.46876 0.83372 0.0
H526 H 0.37874 0.5875 0.86759 0.0
H527 H 0.38531 0.5045 0.90428 0.0
C528 C 0.19835 0.01769 0.22445 0.0
C529 C 0.20819 0.01462 0.2097 0.0
C530 C 0.2107 0.01863 0.23808 0.0
C531 C 0.26383 0.99206 0.25384 0.0
H532 H 0.24783 0.05946 0.28764 0.0
C533 C 0.3145 0.00629 0.31056 0.0
C534 C 0.30308 0.00909 0.32471 0.0
C535 C 0.30375 0.00821 0.29619 0.0
C536 C 0.25241 0.04017 0.27839 0.0
H537 H 0.23887 0.01008 0.1978 0.0
H538 H 0.26047 0.01213 0.22162 0.0
H539 H 0.22767 0.06086 0.26325 0.0
H540 H 0.2712 0.01503 0.33473 0.0
H541 H 0.25258 0.01828 0.30983 0.0
H542 H 0.28843 0.97108 0.26907 0.0
C543 C 0.24313 0.01355 0.22261 0.0
C544 C 0.24085 0.04101 0.26438 0.0
C545 C 0.23075 0.01278 0.20894 0.0
C546 C 0.28063 0.01359 0.32411 0.0
C547 C 0.26991 0.01546 0.30979 0.0
C548 C 0.27539 0.99116 0.26788 0.0
C549 C 0.23325 0.01644 0.23736 0.0
C550 C 0.24626 0.01672 0.25198 0.0
C551 C 0.28131 0.01293 0.29563 0.0
C552 C 0.26969 0.01496 0.2804 0.0
H553 H 0.18105 0.01959 0.22548 0.0
H554 H 0.20253 0.02046 0.24924 0.0
H555 H 0.26829 0.97266 0.2446 0.0
H556 H 0.3318 0.0032 0.31058 0.0
H557 H 0.31308 0.00657 0.28552 0.0
C558 C 0.77415 0.05536 0.20693 0.0
C559 C 0.7967 0.05807 0.2065 0.0
C560 C 0.76318 0.05455 0.2212 0.0
C561 C 0.77019 0.03279 0.26299 0.0
H562 H 0.71863 0.09312 0.26815 0.0
C563 C 0.7288 0.05028 0.323 0.0
C564 C 0.70621 0.05121 0.32345 0.0
C565 C 0.73977 0.05093 0.30874 0.0
C566 C 0.73282 0.07568 0.26686 0.0
H567 H 0.82538 0.06168 0.22077 0.0
H568 H 0.80621 0.06037 0.24572 0.0
H569 H 0.73793 0.0946 0.24335 0.0
H570 H 0.67747 0.05298 0.30921 0.0
H571 H 0.69656 0.05359 0.28428 0.0
H572 H 0.76501 0.0135 0.28641 0.0
C573 C 0.79704 0.05876 0.23499 0.0
C574 C 0.74392 0.07662 0.25264 0.0
C575 C 0.80802 0.05986 0.2207 0.0
C576 C 0.69486 0.05271 0.30927 0.0
C577 C 0.70584 0.05313 0.29498 0.0
C578 C 0.75903 0.03167 0.27719 0.0
C579 C 0.77449 0.05618 0.23539 0.0
C580 C 0.76275 0.05523 0.25054 0.0
C581 C 0.72845 0.05232 0.29453 0.0
C582 C 0.74021 0.05316 0.27933 0.0
H583 H 0.76491 0.05439 0.19623 0.0
H584 H 0.74582 0.05223 0.2211 0.0
H585 H 0.78447 0.01556 0.26167 0.0
H586 H 0.73806 0.04982 0.3337 0.0
H587 H 0.75718 0.05102 0.30889 0.0
C588 C 0.3125 0.04825 0.72478 0.0
C589 C 0.30101 0.04664 0.71064 0.0
C590 C 0.30165 0.04859 0.73914 0.0
C591 C 0.2489 0.07118 0.75666 0.0
H592 H 0.26889 0.01019 0.79145 0.0
C593 C 0.19817 0.0525 0.81261 0.0
C594 C 0.20886 0.05216 0.82708 0.0
C595 C 0.20974 0.05152 0.79859 0.0
C596 C 0.26323 0.02778 0.78193 0.0
H597 H 0.26903 0.04455 0.7006 0.0
H598 H 0.25021 0.04474 0.72555 0.0
H599 H 0.28856 0.00928 0.76674 0.0
H600 H 0.24023 0.05072 0.83808 0.0
H601 H 0.26044 0.04934 0.81364 0.0
H602 H 0.2237 0.08995 0.77179 0.0
C603 C 0.26761 0.04591 0.72556 0.0
C604 C 0.27451 0.02721 0.76775 0.0
C605 C 0.27843 0.04535 0.71123 0.0
C606 C 0.23145 0.05055 0.82717 0.0
C607 C 0.24305 0.04972 0.81313 0.0
C608 C 0.23769 0.07188 0.77083 0.0
C609 C 0.27906 0.04764 0.7397 0.0
C610 C 0.2674 0.04874 0.75491 0.0
C611 C 0.23234 0.05034 0.79864 0.0
C612 C 0.24461 0.05002 0.78364 0.0
H613 H 0.32988 0.04897 0.72476 0.0
H614 H 0.31097 0.05021 0.74981 0.0
H615 H 0.2432 0.08863 0.7471 0.0
H616 H 0.1808 0.05303 0.81209 0.0
H617 H 0.2009 0.05125 0.78769 0.0
C618 C 0.69425 0.00744 0.72216 0.0
C619 C 0.70499 0.00964 0.70772 0.0
C620 C 0.70585 0.00681 0.73618 0.0
C621 C 0.75955 0.985 0.75226 0.0
H622 H 0.74085 0.04609 0.78733 0.0
C623 C 0.81136 0.00254 0.80799 0.0
C624 C 0.80056 0.00299 0.82243 0.0
C625 C 0.79983 0.00374 0.79395 0.0
C626 C 0.74617 0.02849 0.77772 0.0
H627 H 0.73642 0.01204 0.69675 0.0
H628 H 0.75655 0.01134 0.72112 0.0
H629 H 0.72022 0.04679 0.76311 0.0
H630 H 0.76909 0.00403 0.83335 0.0
H631 H 0.74907 0.00578 0.809 0.0
H632 H 0.78538 0.9664 0.76687 0.0
C633 C 0.73917 0.01003 0.72163 0.0
C634 C 0.73433 0.02893 0.76383 0.0
C635 C 0.7276 0.0109 0.70764 0.0
C636 C 0.77797 0.00445 0.82248 0.0
C637 C 0.76646 0.00547 0.80847 0.0
C638 C 0.77134 0.98443 0.76617 0.0
C639 C 0.72846 0.00802 0.73607 0.0
C640 C 0.74089 0.00722 0.75092 0.0
C641 C 0.77721 0.0052 0.79401 0.0
C642 C 0.76481 0.00616 0.7791 0.0
H643 H 0.67688 0.00664 0.72262 0.0
H644 H 0.69712 0.00492 0.74711 0.0
H645 H 0.76488 0.96755 0.7426 0.0
H646 H 0.82874 0.00181 0.80756 0.0
H647 H 0.80867 0.00403 0.78304 0.0
C648 C 0.19665 0.50444 0.72157 0.0
C649 C 0.20718 0.50273 0.70704 0.0
C650 C 0.20841 0.5056 0.73548 0.0
C651 C 0.26143 0.4821 0.75216 0.0
H652 H 0.24346 0.54899 0.78561 0.0
C653 C 0.31083 0.50028 0.80917 0.0
C654 C 0.29916 0.50287 0.82321 0.0
C655 C 0.30026 0.50126 0.79473 0.0
C656 C 0.24858 0.52984 0.77646 0.0
H657 H 0.23842 0.50049 0.69581 0.0
H658 H 0.25894 0.50291 0.72007 0.0
H659 H 0.22377 0.54882 0.761 0.0
H660 H 0.26709 0.50742 0.83301 0.0
H661 H 0.24873 0.50891 0.80797 0.0
H662 H 0.2861 0.46279 0.76768 0.0
C663 C 0.24156 0.50318 0.72069 0.0
C664 C 0.23729 0.52978 0.76234 0.0
C665 C 0.22978 0.50221 0.70677 0.0
C666 C 0.27666 0.50617 0.82245 0.0
C667 C 0.26611 0.50704 0.80806 0.0
C668 C 0.2727 0.48207 0.76632 0.0
C669 C 0.23101 0.50491 0.73522 0.0
C670 C 0.24347 0.50573 0.75006 0.0
C671 C 0.27774 0.50475 0.794 0.0
C672 C 0.26632 0.50573 0.77869 0.0
H673 H 0.17928 0.50523 0.7222 0.0
H674 H 0.19978 0.50653 0.74647 0.0
H675 H 0.26647 0.46292 0.743 0.0
H676 H 0.32818 0.49811 0.80934 0.0
H677 H 0.30976 0.49987 0.78414 0.0
C678 C 0.77671 0.56212 0.7084 0.0
C679 C 0.7983 0.55036 0.70826 0.0
C680 C 0.76478 0.56168 0.7223 0.0
C681 C 0.76258 0.51724 0.76129 0.0
H682 H 0.72749 0.60381 0.77242 0.0
C683 C 0.72402 0.53063 0.82241 0.0
C684 C 0.70342 0.54688 0.82368 0.0
C685 C 0.73523 0.53124 0.80824 0.0
C686 C 0.73694 0.57913 0.76941 0.0
H687 H 0.82414 0.52834 0.72259 0.0
H688 H 0.80336 0.52752 0.74681 0.0
H689 H 0.7474 0.60407 0.74784 0.0
H690 H 0.67873 0.57684 0.8107 0.0
H691 H 0.69792 0.57672 0.78595 0.0
H692 H 0.75196 0.49195 0.78267 0.0
C693 C 0.79565 0.53709 0.73617 0.0
C694 C 0.7484 0.57935 0.75532 0.0
C695 C 0.80763 0.5379 0.72232 0.0
C696 C 0.69441 0.56373 0.81027 0.0
C697 C 0.70558 0.56408 0.79604 0.0
C698 C 0.75098 0.51686 0.77531 0.0
C699 C 0.77411 0.54909 0.73634 0.0
C700 C 0.76147 0.54852 0.75114 0.0
C701 C 0.72615 0.54778 0.79481 0.0
C702 C 0.73811 0.54791 0.77964 0.0
H703 H 0.7691 0.57219 0.69781 0.0
H704 H 0.74818 0.57085 0.72201 0.0
H705 H 0.77224 0.49279 0.7583 0.0
H706 H 0.73153 0.51694 0.8323 0.0
H707 H 0.75115 0.51891 0.80787 0.0
C708 C 0.27705 0.55324 0.20836 0.0
C709 C 0.29948 0.55833 0.20793 0.0
C710 C 0.26588 0.55414 0.22253 0.0
C711 C 0.27307 0.54417 0.26528 0.0
H712 H 0.2178 0.5947 0.26703 0.0
C713 C 0.2278 0.56795 0.32353 0.0
C714 C 0.20545 0.56185 0.32354 0.0
C715 C 0.23939 0.56844 0.30951 0.0
C716 C 0.23311 0.58013 0.26672 0.0
H717 H 0.3277 0.568 0.22223 0.0
H718 H 0.30815 0.57015 0.24697 0.0
H719 H 0.23789 0.59367 0.24257 0.0
H720 H 0.17784 0.55146 0.3087 0.0
H721 H 0.19802 0.5524 0.28427 0.0
H722 H 0.26825 0.53058 0.28943 0.0
C723 C 0.29924 0.5651 0.2363 0.0
C724 C 0.24464 0.57953 0.25268 0.0
C725 C 0.31044 0.56425 0.22209 0.0
C726 C 0.19496 0.55676 0.30914 0.0
C727 C 0.20656 0.55727 0.29511 0.0
C728 C 0.26153 0.54479 0.27933 0.0
C729 C 0.27679 0.56019 0.23669 0.0
C730 C 0.26474 0.56141 0.25175 0.0
C731 C 0.22895 0.56291 0.29513 0.0
C732 C 0.24137 0.56269 0.28022 0.0
H733 H 0.26797 0.54913 0.19772 0.0
H734 H 0.24865 0.54978 0.22239 0.0
H735 H 0.28834 0.5295 0.26494 0.0
H736 H 0.23638 0.57265 0.33435 0.0
H737 H 0.25655 0.57353 0.30994 0.0
C738 C 0.72901 0.51101 0.20814 0.0
C739 C 0.70642 0.50894 0.20825 0.0
C740 C 0.74059 0.51162 0.22217 0.0
C741 C 0.73497 0.53169 0.26448 0.0
H742 H 0.78606 0.46964 0.26838 0.0
C743 C 0.77595 0.50459 0.3241 0.0
C744 C 0.79853 0.50323 0.32453 0.0
C745 C 0.76503 0.50642 0.30982 0.0
C746 C 0.772 0.48755 0.26745 0.0
H747 H 0.67837 0.50678 0.22328 0.0
H748 H 0.69852 0.50737 0.24767 0.0
H749 H 0.76665 0.47129 0.24365 0.0
H750 H 0.82729 0.50363 0.31021 0.0
H751 H 0.80831 0.50707 0.28536 0.0
H752 H 0.74029 0.548 0.28825 0.0
C753 C 0.70729 0.50871 0.23675 0.0
C754 C 0.76085 0.48846 0.25325 0.0
C755 C 0.69573 0.50793 0.22274 0.0
C756 C 0.80991 0.504 0.31032 0.0
C757 C 0.799 0.50595 0.29605 0.0
C758 C 0.74614 0.53086 0.27866 0.0
C759 C 0.72987 0.5104 0.23665 0.0
C760 C 0.74212 0.51037 0.25161 0.0
C761 C 0.7764 0.50708 0.2956 0.0
C762 C 0.76475 0.50862 0.28037 0.0
H763 H 0.73779 0.5115 0.19723 0.0
H764 H 0.75796 0.51328 0.22167 0.0
H765 H 0.7208 0.54934 0.26355 0.0
H766 H 0.76666 0.5035 0.33479 0.0
H767 H 0.74763 0.50661 0.30995 0.0
C768 C 0.20044 0.16872 0.17323 0.0
C769 C 0.20629 0.13941 0.16295 0.0
C770 C 0.21192 0.20293 0.17336 0.0
C771 C 0.26431 0.24455 0.16178 0.0
H772 H 0.23366 0.34011 0.16195 0.0
C773 C 0.30391 0.38421 0.1423 0.0
C774 C 0.29856 0.4179 0.15012 0.0
C775 C 0.29328 0.35036 0.14581 0.0
C776 C 0.24251 0.31371 0.16216 0.0
H777 H 0.22887 0.12318 0.1448 0.0
H778 H 0.24864 0.18249 0.14499 0.0
H779 H 0.21369 0.28083 0.16454 0.0
H780 H 0.27811 0.44217 0.16804 0.0
H781 H 0.25963 0.38288 0.17424 0.0
H782 H 0.29307 0.27724 0.15918 0.0
C783 C 0.23537 0.17903 0.15308 0.0
C784 C 0.23105 0.27972 0.16363 0.0
C785 C 0.22389 0.14505 0.15289 0.0
C786 C 0.28262 0.41674 0.16178 0.0
C787 C 0.27192 0.38281 0.16526 0.0
C788 C 0.27575 0.27846 0.16033 0.0
C789 C 0.22956 0.20841 0.1633 0.0
C790 C 0.24178 0.24471 0.16316 0.0
C791 C 0.277 0.34926 0.15721 0.0
C792 C 0.26497 0.31345 0.16021 0.0
H793 H 0.18698 0.16532 0.18115 0.0
H794 H 0.20711 0.22493 0.18145 0.0
H795 H 0.27312 0.21811 0.16169 0.0
H796 H 0.31606 0.38402 0.13323 0.0
H797 H 0.29742 0.32523 0.13922 0.0
C798 C 0.72579 0.6434 0.15531 0.0
C799 C 0.70677 0.63829 0.16395 0.0
C800 C 0.73699 0.67763 0.15587 0.0
C801 C 0.73009 0.77915 0.16393 0.0
H802 H 0.79242 0.77889 0.16338 0.0
C803 C 0.78023 0.91789 0.16134 0.0
C804 C 0.79727 0.91786 0.15051 0.0
C805 C 0.76956 0.88415 0.16518 0.0
C806 C 0.77502 0.77948 0.16345 0.0
H807 H 0.68475 0.66526 0.18013 0.0
H808 H 0.70442 0.72537 0.18109 0.0
H809 H 0.77296 0.71934 0.16623 0.0
H810 H 0.81674 0.88212 0.13553 0.0
H811 H 0.79819 0.82363 0.14217 0.0
H812 H 0.73219 0.83929 0.16083 0.0
C813 C 0.71054 0.70275 0.17381 0.0
C814 C 0.76385 0.74533 0.16509 0.0
C815 C 0.69934 0.66825 0.17332 0.0
C816 C 0.80371 0.88323 0.14392 0.0
C817 C 0.79314 0.84958 0.14781 0.0
C818 C 0.74128 0.81338 0.16229 0.0
C819 C 0.7295 0.70783 0.16506 0.0
C820 C 0.74125 0.74462 0.16501 0.0
C821 C 0.77579 0.84962 0.15836 0.0
C822 C 0.76388 0.81386 0.1617 0.0
H823 H 0.73207 0.62096 0.14801 0.0
H824 H 0.75133 0.68068 0.14879 0.0
H825 H 0.71269 0.7796 0.16369 0.0
H826 H 0.77485 0.94407 0.16664 0.0
H827 H 0.7564 0.88512 0.17346 0.0
C828 C 0.22641 0.91565 0.87772 0.0
C829 C 0.20721 0.92212 0.86949 0.0
C830 C 0.23732 0.88135 0.87627 0.0
C831 C 0.22935 0.78126 0.86681 0.0
H832 H 0.29168 0.78046 0.86599 0.0
C833 C 0.27876 0.6419 0.86868 0.0
C834 C 0.29573 0.64197 0.87954 0.0
C835 C 0.26829 0.6757 0.86472 0.0
C836 C 0.27428 0.78019 0.86625 0.0
H837 H 0.18452 0.8976 0.85315 0.0
H838 H 0.20365 0.83724 0.85068 0.0
H839 H 0.27252 0.84045 0.86395 0.0
H840 H 0.31536 0.67771 0.89441 0.0
H841 H 0.29718 0.73627 0.88757 0.0
H842 H 0.23117 0.721 0.86955 0.0
C843 C 0.21016 0.8589 0.85828 0.0
C844 C 0.2633 0.81455 0.86508 0.0
C845 C 0.19926 0.89349 0.85965 0.0
C846 C 0.30236 0.6766 0.88601 0.0
C847 C 0.29201 0.71028 0.882 0.0
C848 C 0.24036 0.7468 0.868 0.0
C849 C 0.22931 0.8525 0.8666 0.0
C850 C 0.24073 0.81559 0.86576 0.0
C851 C 0.27472 0.71023 0.87144 0.0
C852 C 0.26296 0.74601 0.86814 0.0
H853 H 0.23306 0.93705 0.88538 0.0
H854 H 0.25184 0.87715 0.88304 0.0
H855 H 0.21197 0.78115 0.86748 0.0
H856 H 0.27327 0.61568 0.86348 0.0
H857 H 0.25513 0.67479 0.85646 0.0
C858 C 0.70871 0.38892 0.85781 0.0
C859 C 0.7104 0.41513 0.87011 0.0
C860 C 0.71995 0.3546 0.85834 0.0
C861 C 0.76715 0.30985 0.87651 0.0
H862 H 0.73858 0.21497 0.86708 0.0
C863 C 0.80377 0.16611 0.89343 0.0
C864 C 0.80071 0.13489 0.88351 0.0
C865 C 0.79349 0.20049 0.89044 0.0
C866 C 0.74693 0.24124 0.86949 0.0
H867 H 0.72518 0.42556 0.89268 0.0
H868 H 0.74478 0.36602 0.89354 0.0
H869 H 0.71899 0.27452 0.86436 0.0
H870 H 0.78478 0.11562 0.86242 0.0
H871 H 0.76712 0.17599 0.85702 0.0
H872 H 0.79508 0.27689 0.88161 0.0
C873 C 0.73487 0.3721 0.88344 0.0
C874 C 0.73566 0.27534 0.86797 0.0
C875 C 0.72351 0.40616 0.88297 0.0
C876 C 0.78743 0.13909 0.87033 0.0
C877 C 0.77719 0.17363 0.86729 0.0
C878 C 0.77845 0.27586 0.87792 0.0
C879 C 0.73329 0.34599 0.87111 0.0
C880 C 0.74556 0.30995 0.87171 0.0
C881 C 0.77997 0.20469 0.87739 0.0
C882 C 0.76839 0.24104 0.87469 0.0
H883 H 0.69876 0.39491 0.84772 0.0
H884 H 0.71851 0.33508 0.84864 0.0
H885 H 0.77532 0.33615 0.8792 0.0
H886 H 0.81378 0.16385 0.90374 0.0
H887 H 0.79574 0.22351 0.89863 0.0
C888 C 0.76382 0.9167 0.88459 0.0
C889 C 0.78625 0.92086 0.88511 0.0
C890 C 0.75459 0.88046 0.88462 0.0
C891 C 0.76666 0.78099 0.87538 0.0
H892 H 0.72128 0.75706 0.90483 0.0
C893 C 0.73786 0.62709 0.88581 0.0
C894 C 0.71566 0.62186 0.88777 0.0
C895 C 0.74657 0.66371 0.88558 0.0
C896 C 0.73376 0.76334 0.89639 0.0
H897 H 0.8166 0.89051 0.88583 0.0
H898 H 0.80055 0.82786 0.88574 0.0
H899 H 0.7352 0.82156 0.90337 0.0
H900 H 0.68517 0.65077 0.89099 0.0
H901 H 0.70018 0.714 0.89023 0.0
H902 H 0.76513 0.72302 0.86823 0.0
C903 C 0.79008 0.85234 0.88531 0.0
C904 C 0.74169 0.80032 0.89556 0.0
C905 C 0.79923 0.88831 0.88547 0.0
C906 C 0.70239 0.65376 0.88956 0.0
C907 C 0.71102 0.69015 0.88923 0.0
C908 C 0.75861 0.74409 0.8761 0.0
C909 C 0.76769 0.84798 0.88491 0.0
C910 C 0.7583 0.80943 0.88511 0.0
C911 C 0.7332 0.69568 0.88724 0.0
C912 C 0.74211 0.73476 0.88665 0.0
H913 H 0.75346 0.94133 0.88429 0.0
H914 H 0.73725 0.87779 0.88425 0.0
H915 H 0.77937 0.78737 0.86712 0.0
H916 H 0.74845 0.603 0.88442 0.0
H917 H 0.76378 0.66695 0.88421 0.0
C918 C 0.26234 0.42232 0.88893 0.0
C919 C 0.28467 0.42793 0.88953 0.0
C920 C 0.2538 0.38564 0.88992 0.0
C921 C 0.26768 0.28656 0.88255 0.0
H922 H 0.22196 0.2625 0.91172 0.0
C923 C 0.23932 0.13254 0.89221 0.0
C924 C 0.2171 0.127 0.89383 0.0
C925 C 0.24795 0.16917 0.89254 0.0
C926 C 0.23455 0.26879 0.90337 0.0
H927 H 0.31555 0.39971 0.89157 0.0
H928 H 0.30068 0.33616 0.89308 0.0
H929 H 0.23529 0.32739 0.90991 0.0
H930 H 0.18649 0.15534 0.89721 0.0
H931 H 0.20134 0.21875 0.89735 0.0
H932 H 0.26672 0.22842 0.87569 0.0
C933 C 0.28978 0.35991 0.89188 0.0
C934 C 0.24216 0.30596 0.90236 0.0
C935 C 0.29826 0.39637 0.8911 0.0
C936 C 0.20373 0.15861 0.89602 0.0
C937 C 0.21228 0.19508 0.8962 0.0
C938 C 0.25992 0.24951 0.88342 0.0
C939 C 0.26751 0.35413 0.89126 0.0
C940 C 0.25883 0.31514 0.89197 0.0
C941 C 0.23447 0.20093 0.89437 0.0
C942 C 0.24326 0.24011 0.89385 0.0
H943 H 0.25152 0.44616 0.88773 0.0
H944 H 0.23654 0.38184 0.88936 0.0
H945 H 0.28045 0.29301 0.87434 0.0
H946 H 0.25 0.10867 0.89055 0.0
H947 H 0.26517 0.17259 0.89133 0.0
C948 C 0.73596 0.42472 0.14192 0.0
C949 C 0.71367 0.43087 0.1416 0.0
C950 C 0.74417 0.38784 0.14093 0.0
C951 C 0.72967 0.28901 0.1488 0.0
H952 H 0.77599 0.26436 0.12029 0.0
C953 C 0.76027 0.13507 0.14139 0.0
C954 C 0.7826 0.13065 0.13988 0.0
C955 C 0.75103 0.17124 0.14061 0.0
C956 C 0.76321 0.27079 0.12846 0.0
H957 H 0.68253 0.40333 0.13995 0.0
H958 H 0.69684 0.33939 0.1384 0.0
H959 H 0.76237 0.32905 0.12137 0.0
H960 H 0.81272 0.16062 0.13639 0.0
H961 H 0.79685 0.22304 0.1355 0.0
H962 H 0.73082 0.23119 0.15625 0.0
C963 C 0.70796 0.36289 0.13943 0.0
C964 C 0.75543 0.30787 0.12905 0.0
C965 C 0.6998 0.39959 0.14022 0.0
C966 C 0.79543 0.16293 0.13748 0.0
C967 C 0.78628 0.19887 0.13685 0.0
C968 C 0.73762 0.25201 0.14836 0.0
C969 C 0.7302 0.35658 0.13982 0.0
C970 C 0.73862 0.31736 0.13925 0.0
C971 C 0.76397 0.20363 0.13842 0.0
C972 C 0.75459 0.24244 0.13825 0.0
H973 H 0.74701 0.4483 0.14297 0.0
H974 H 0.76141 0.38369 0.14133 0.0
H975 H 0.71679 0.29564 0.15687 0.0
H976 H 0.74999 0.11068 0.14322 0.0
H977 H 0.73375 0.17379 0.14169 0.0
C978 C 0.23536 0.92457 0.14482 0.0
C979 C 0.21302 0.93006 0.1452 0.0
C980 C 0.24386 0.88787 0.14422 0.0
C981 C 0.23091 0.78902 0.1538 0.0
H982 H 0.2754 0.76422 0.1238 0.0
C983 C 0.26161 0.63533 0.1455 0.0
C984 C 0.28382 0.63115 0.14323 0.0
C985 C 0.25223 0.67143 0.14515 0.0
C986 C 0.26315 0.77072 0.13239 0.0
H987 H 0.18208 0.90153 0.14534 0.0
H988 H 0.19691 0.83787 0.14444 0.0
H989 H 0.26134 0.82858 0.12491 0.0
H990 H 0.31364 0.66143 0.1389 0.0
H991 H 0.29754 0.72375 0.13869 0.0
H992 H 0.23299 0.73149 0.16156 0.0
C993 C 0.20785 0.86176 0.14462 0.0
C994 C 0.25512 0.80762 0.13299 0.0
C995 C 0.19938 0.89828 0.14503 0.0
C996 C 0.29643 0.66358 0.14057 0.0
C997 C 0.28715 0.69944 0.14034 0.0
C998 C 0.2391 0.75218 0.15332 0.0
C999 C 0.23015 0.85613 0.1442 0.0
C1000 C 0.23894 0.81714 0.14372 0.0
C1001 C 0.26494 0.70394 0.14261 0.0
C1002 C 0.2554 0.74259 0.14264 0.0
H1003 H 0.24623 0.94855 0.14495 0.0
H1004 H 0.26115 0.88426 0.144 0.0
H1005 H 0.21854 0.79569 0.16228 0.0
H1006 H 0.25151 0.61082 0.14756 0.0
H1007 H 0.23502 0.67382 0.14678 0.0
C1008 C 0.1977 0.65985 0.67214 0.0
C1009 C 0.20512 0.63097 0.66219 0.0
C1010 C 0.20875 0.69443 0.67312 0.0
C1011 C 0.26203 0.73737 0.66524 0.0
H1012 H 0.23099 0.83225 0.66217 0.0
C1013 C 0.30276 0.87516 0.64545 0.0
C1014 C 0.29682 0.90954 0.65248 0.0
C1015 C 0.29186 0.84168 0.64904 0.0
C1016 C 0.23989 0.80605 0.66331 0.0
H1017 H 0.23007 0.61589 0.64556 0.0
H1018 H 0.24909 0.67568 0.64725 0.0
H1019 H 0.21108 0.77268 0.66415 0.0
H1020 H 0.27492 0.93553 0.66903 0.0
H1021 H 0.25583 0.8768 0.67532 0.0
H1022 H 0.29081 0.77045 0.66409 0.0
C1023 C 0.2349 0.67165 0.65441 0.0
C1024 C 0.22847 0.77192 0.66444 0.0
C1025 C 0.22384 0.63739 0.65335 0.0
C1026 C 0.27991 0.90951 0.66341 0.0
C1027 C 0.26888 0.87593 0.66694 0.0
C1028 C 0.27341 0.77138 0.66413 0.0
C1029 C 0.22755 0.7006 0.66431 0.0
C1030 C 0.23944 0.73714 0.66502 0.0
C1031 C 0.27467 0.84165 0.65972 0.0
C1032 C 0.2625 0.80607 0.66276 0.0
H1033 H 0.18334 0.65582 0.67911 0.0
H1034 H 0.20274 0.71617 0.6809 0.0
H1035 H 0.27096 0.71111 0.66602 0.0
H1036 H 0.31568 0.87411 0.63697 0.0
H1037 H 0.29655 0.81593 0.64308 0.0
C1038 C 0.78135 0.42155 0.65056 0.0
C1039 C 0.79943 0.42745 0.6601 0.0
C1040 C 0.77001 0.38747 0.65118 0.0
C1041 C 0.77488 0.28704 0.66179 0.0
H1042 H 0.71262 0.29006 0.65987 0.0
C1043 C 0.72277 0.15055 0.66134 0.0
C1044 C 0.70617 0.15006 0.65019 0.0
C1045 C 0.7338 0.18422 0.66464 0.0
C1046 C 0.73 0.28869 0.66033 0.0
H1047 H 0.81984 0.40186 0.67773 0.0
H1048 H 0.79996 0.34201 0.67876 0.0
H1049 H 0.73287 0.34899 0.66163 0.0
H1050 H 0.68783 0.18478 0.63405 0.0
H1051 H 0.70704 0.24306 0.63972 0.0
H1052 H 0.77199 0.22669 0.66013 0.0
C1053 C 0.79466 0.36392 0.67077 0.0
C1054 C 0.74161 0.32247 0.66134 0.0
C1055 C 0.806 0.39823 0.67021 0.0
C1056 C 0.70051 0.18409 0.64272 0.0
C1057 C 0.71145 0.21765 0.64605 0.0
C1058 C 0.76324 0.25316 0.66074 0.0
C1059 C 0.77645 0.35829 0.66132 0.0
C1060 C 0.76419 0.32211 0.66176 0.0
C1061 C 0.72837 0.21811 0.65694 0.0
C1062 C 0.74068 0.25365 0.65968 0.0
H1063 H 0.77583 0.44332 0.64259 0.0
H1064 H 0.75629 0.38383 0.64354 0.0
H1065 H 0.79227 0.28582 0.66198 0.0
H1066 H 0.72753 0.12482 0.66731 0.0
H1067 H 0.74661 0.18369 0.6732 0.0
C1068 C 0.21492 0.40459 0.35594 0.0
C1069 C 0.20813 0.4236 0.36948 0.0
C1070 C 0.22552 0.36972 0.35703 0.0
C1071 C 0.25568 0.31076 0.38565 0.0
H1072 H 0.24963 0.23313 0.35397 0.0
C1073 C 0.27958 0.14338 0.37568 0.0
C1074 C 0.29979 0.14362 0.38298 0.0
C1075 C 0.26853 0.17732 0.37304 0.0
C1076 C 0.25137 0.25432 0.36302 0.0
H1077 H 0.20625 0.42018 0.39476 0.0
H1078 H 0.22387 0.35894 0.39666 0.0
H1079 H 0.22879 0.29128 0.3519 0.0
H1080 H 0.32484 0.17958 0.39241 0.0
H1081 H 0.30612 0.23869 0.38722 0.0
H1082 H 0.27741 0.27335 0.39718 0.0
C1083 C 0.22178 0.3714 0.38519 0.0
C1084 C 0.23961 0.28798 0.36171 0.0
C1085 C 0.2115 0.40646 0.3841 0.0
C1086 C 0.30915 0.17848 0.38695 0.0
C1087 C 0.2983 0.21238 0.38408 0.0
C1088 C 0.26719 0.27702 0.38706 0.0
C1089 C 0.22931 0.35283 0.3717 0.0
C1090 C 0.24161 0.31669 0.37303 0.0
C1091 C 0.27761 0.21228 0.37744 0.0
C1092 C 0.26531 0.24834 0.37574 0.0
H1093 H 0.21267 0.4172 0.34451 0.0
H1094 H 0.23127 0.35661 0.34639 0.0
H1095 H 0.25801 0.33234 0.39447 0.0
H1096 H 0.27191 0.11688 0.37257 0.0
H1097 H 0.25256 0.17595 0.36806 0.0
C1098 C 0.77785 0.63673 0.37644 0.0
C1099 C 0.79714 0.63075 0.36825 0.0
C1100 C 0.76693 0.67107 0.37522 0.0
C1101 C 0.77489 0.77168 0.36658 0.0
H1102 H 0.71257 0.77227 0.3654 0.0
C1103 C 0.72519 0.91069 0.36887 0.0
C1104 C 0.708 0.91014 0.37957 0.0
C1105 C 0.73582 0.87712 0.36487 0.0
C1106 C 0.72997 0.7726 0.36577 0.0
H1107 H 0.82001 0.65623 0.35223 0.0
H1108 H 0.80086 0.71666 0.35015 0.0
H1109 H 0.73184 0.71247 0.36305 0.0
H1110 H 0.68818 0.87376 0.39412 0.0
H1111 H 0.70667 0.81557 0.38719 0.0
H1112 H 0.77295 0.83179 0.36972 0.0
C1113 C 0.79428 0.69457 0.35755 0.0
C1114 C 0.74101 0.73835 0.36442 0.0
C1115 C 0.80519 0.65994 0.35869 0.0
C1116 C 0.70135 0.87525 0.38585 0.0
C1117 C 0.71187 0.84179 0.38179 0.0
C1118 C 0.76382 0.80603 0.36794 0.0
C1119 C 0.77502 0.70047 0.36582 0.0
C1120 C 0.76356 0.73737 0.36521 0.0
C1121 C 0.72935 0.84232 0.37137 0.0
C1122 C 0.74121 0.80673 0.36795 0.0
H1123 H 0.77113 0.61491 0.3839 0.0
H1124 H 0.75234 0.67487 0.38195 0.0
H1125 H 0.79226 0.77183 0.36734 0.0
H1126 H 0.7307 0.93712 0.36382 0.0
H1127 H 0.74913 0.87841 0.35672 0.0
C1128 C 0.80046 0.39276 0.39265 0.0
C1129 C 0.78701 0.42441 0.39078 0.0
C1130 C 0.79191 0.3563 0.39295 0.0
C1131 C 0.74341 0.30199 0.40103 0.0
H1132 H 0.76979 0.22597 0.37453 0.0
C1133 C 0.70506 0.15557 0.39174 0.0
C1134 C 0.7185 0.1239 0.38996 0.0
C1135 C 0.71367 0.19196 0.3924 0.0
C1136 C 0.76245 0.24662 0.3822 0.0
H1137 H 0.75401 0.4428 0.38802 0.0
H1138 H 0.7389 0.37854 0.38879 0.0
H1139 H 0.78384 0.29043 0.37455 0.0
H1140 H 0.75153 0.10538 0.38778 0.0
H1141 H 0.76678 0.16916 0.3894 0.0
H1142 H 0.7223 0.25821 0.40897 0.0
C1143 C 0.75611 0.38224 0.38997 0.0
C1144 C 0.77042 0.2836 0.38213 0.0
C1145 C 0.76473 0.4189 0.38949 0.0
C1146 C 0.74081 0.12931 0.38909 0.0
C1147 C 0.74949 0.16586 0.38992 0.0
C1148 C 0.73558 0.26489 0.40125 0.0
C1149 C 0.76969 0.35062 0.39153 0.0
C1150 C 0.76093 0.31164 0.3915 0.0
C1151 C 0.73598 0.19767 0.39148 0.0
C1152 C 0.74492 0.23676 0.39177 0.0
H1153 H 0.81771 0.39602 0.39368 0.0
H1154 H 0.8027 0.33246 0.39435 0.0
H1155 H 0.73601 0.32299 0.40852 0.0
H1156 H 0.68776 0.15239 0.39232 0.0
H1157 H 0.70273 0.2157 0.39328 0.0
C1158 C 0.24294 0.63237 0.38684 0.0
C1159 C 0.22045 0.62913 0.38717 0.0
C1160 C 0.25265 0.66827 0.38687 0.0
C1161 C 0.24185 0.76757 0.37676 0.0
H1162 H 0.28556 0.79276 0.40727 0.0
C1163 C 0.26824 0.92219 0.3873 0.0
C1164 C 0.29021 0.92857 0.38987 0.0
C1165 C 0.26011 0.88518 0.38706 0.0
C1166 C 0.27358 0.78611 0.39852 0.0
H1167 H 0.19052 0.6608 0.38765 0.0
H1168 H 0.20736 0.72268 0.38754 0.0
H1169 H 0.27193 0.72799 0.40578 0.0
H1170 H 0.32089 0.90129 0.39429 0.0
H1171 H 0.3069 0.83726 0.39351 0.0
H1172 H 0.24352 0.82534 0.36934 0.0
C1173 C 0.21753 0.69778 0.38725 0.0
C1174 C 0.26582 0.74899 0.39768 0.0
C1175 C 0.20791 0.66223 0.38743 0.0
C1176 C 0.30382 0.89739 0.39236 0.0
C1177 C 0.29577 0.86056 0.39201 0.0
C1178 C 0.24973 0.80456 0.37749 0.0
C1179 C 0.23995 0.70125 0.38695 0.0
C1180 C 0.24971 0.73951 0.38692 0.0
C1181 C 0.27385 0.8539 0.38929 0.0
C1182 C 0.26554 0.81442 0.38848 0.0
H1183 H 0.25297 0.60731 0.38662 0.0
H1184 H 0.27002 0.67029 0.38662 0.0
H1185 H 0.22955 0.76088 0.36824 0.0
H1186 H 0.25738 0.94569 0.38538 0.0
H1187 H 0.24306 0.88111 0.38517 0.0
C1188 C 0.80021 0.66947 0.64581 0.0
C1189 C 0.78721 0.63688 0.64566 0.0
C1190 C 0.79103 0.70541 0.64587 0.0
C1191 C 0.74317 0.75756 0.63456 0.0
H1192 H 0.76499 0.83396 0.663 0.0
C1193 C 0.70367 0.90418 0.64044 0.0
C1194 C 0.7169 0.93585 0.64298 0.0
C1195 C 0.71219 0.86771 0.64062 0.0
C1196 C 0.75893 0.81316 0.65482 0.0
H1197 H 0.7544 0.61631 0.64546 0.0
H1198 H 0.73819 0.67977 0.64535 0.0
H1199 H 0.77923 0.76971 0.66411 0.0
H1200 H 0.74954 0.95425 0.64742 0.0
H1201 H 0.76468 0.89031 0.64735 0.0
H1202 H 0.72322 0.80104 0.62499 0.0
C1203 C 0.75553 0.67717 0.64546 0.0
C1204 C 0.76699 0.77631 0.65554 0.0
C1205 C 0.76477 0.64097 0.64558 0.0
C1206 C 0.73897 0.93034 0.64546 0.0
C1207 C 0.74757 0.89371 0.64553 0.0
C1208 C 0.73524 0.79453 0.63373 0.0
C1209 C 0.76863 0.70968 0.64566 0.0
C1210 C 0.75922 0.74818 0.6454 0.0
C1211 C 0.73423 0.86193 0.64323 0.0
C1212 C 0.74303 0.8228 0.64385 0.0
H1213 H 0.81757 0.66729 0.64591 0.0
H1214 H 0.80151 0.72994 0.64584 0.0
H1215 H 0.73713 0.73655 0.62646 0.0
H1216 H 0.68654 0.90741 0.63859 0.0
H1217 H 0.70136 0.84398 0.63908 0.0
C1218 C 0.24094 0.41971 0.64453 0.0
C1219 C 0.21865 0.42409 0.64268 0.0
C1220 C 0.25008 0.38341 0.64463 0.0
C1221 C 0.23651 0.28441 0.65304 0.0
H1222 H 0.2855 0.25922 0.62708 0.0
C1223 C 0.26569 0.12999 0.646 0.0
C1224 C 0.28797 0.12421 0.64525 0.0
C1225 C 0.25728 0.16675 0.64541 0.0
C1226 C 0.27199 0.26585 0.63458 0.0
H1227 H 0.18851 0.39402 0.63936 0.0
H1228 H 0.20439 0.33128 0.6397 0.0
H1229 H 0.27168 0.32389 0.62712 0.0
H1230 H 0.31894 0.1523 0.64345 0.0
H1231 H 0.30441 0.21593 0.64289 0.0
H1232 H 0.23693 0.22681 0.66075 0.0
C1233 C 0.2148 0.35566 0.64112 0.0
C1234 C 0.2641 0.30291 0.63457 0.0
C1235 C 0.20575 0.39169 0.64083 0.0
C1236 C 0.30165 0.15576 0.64392 0.0
C1237 C 0.2933 0.19235 0.64349 0.0
C1238 C 0.24452 0.24749 0.65319 0.0
C1239 C 0.237 0.35108 0.64312 0.0
C1240 C 0.2462 0.31244 0.64371 0.0
C1241 C 0.27102 0.1984 0.6442 0.0
C1242 C 0.26231 0.23766 0.64391 0.0
H1243 H 0.25125 0.44419 0.64598 0.0
H1244 H 0.26727 0.38056 0.64623 0.0
H1245 H 0.22279 0.29115 0.66033 0.0
H1246 H 0.25479 0.10617 0.64698 0.0
H1247 H 0.24 0.17031 0.64576 0.0
C1248 C 0.92205 0.01924 0.13037 0.0
C1249 C 0.91003 0.01651 0.14425 0.0
C1250 C 0.94422 0.02526 0.13085 0.0
C1251 C 0.99216 0.02082 0.15623 0.0
H1252 H 0.01428 0.09688 0.12763 0.0
C1253 C 0.08025 0.06837 0.15941 0.0
C1254 C 0.09122 0.07027 0.14511 0.0
C1255 C 0.05784 0.0662 0.15977 0.0
C1256 C 0.00841 0.0754 0.13561 0.0
H1257 H 0.91202 0.0162 0.16954 0.0
H1258 H 0.95089 0.02636 0.1704 0.0
H1259 H 0.97613 0.08097 0.1273 0.0
H1260 H 0.08768 0.07252 0.12 0.0
H1261 H 0.04839 0.06877 0.12049 0.0
H1262 H 0.02444 0.01485 0.16442 0.0
C1263 C 0.94312 0.0238 0.15913 0.0
C1264 C 0.98655 0.06619 0.13541 0.0
C1265 C 0.92087 0.01778 0.15865 0.0
C1266 C 0.07945 0.07194 0.13116 0.0
C1267 C 0.05699 0.06961 0.13149 0.0
C1268 C 0.01403 0.02996 0.15642 0.0
C1269 C 0.95494 0.02865 0.14523 0.0
C1270 C 0.97818 0.03861 0.14564 0.0
C1271 C 0.04596 0.06541 0.14579 0.0
C1272 C 0.02246 0.05727 0.14607 0.0
H1273 H 0.91418 0.01785 0.11909 0.0
H1274 H 0.95292 0.02791 0.11993 0.0
H1275 H 0.98628 -0.00081 0.16415 0.0
H1276 H 0.08911 0.06648 0.17029 0.0
H1277 H 0.04987 0.06374 0.17098 0.0
C1278 C 0.08362 0.99537 0.87648 0.0
C1279 C 0.09448 0.98858 0.89056 0.0
C1280 C 0.06121 -0.00302 0.87615 0.0
C1281 C 0.01668 0.02245 0.90187 0.0
H1282 H 0.98096 0.98569 0.86801 0.0
C1283 C 0.92415 0.03173 0.90304 0.0
C1284 C 0.91314 0.03762 0.8889 0.0
C1285 C 0.9464 0.02689 0.90318 0.0
C1286 C 0.99076 0.99665 0.87743 0.0
H1287 H 0.09078 0.97681 0.91522 0.0
H1288 H 0.05136 0.97917 0.91471 0.0
H1289 H 0.01912 0.96985 0.86853 0.0
H1290 H 0.91698 0.04497 0.8639 0.0
H1291 H 0.95606 0.03757 0.86417 0.0
H1292 H 0.98849 0.04975 0.91067 0.0
C1293 C 0.06017 0.98334 0.90391 0.0
C1294 C 0.01259 0.98731 0.87779 0.0
C1295 C 0.08264 0.98147 0.9042 0.0
C1296 C 0.92503 0.04069 0.87499 0.0
C1297 C 0.94736 0.03587 0.87513 0.0
C1298 C 0.99489 0.03194 0.90148 0.0
C1299 C 0.04926 0.99229 0.88997 0.0
C1300 C 0.02579 9e-05 0.89002 0.0
C1301 C 0.95825 0.02798 0.88919 0.0
C1302 C 0.98164 0.01916 0.88927 0.0
H1303 H 0.09254 0.00158 0.86589 0.0
H1304 H 0.05334 0.00426 0.86526 0.0
H1305 H 0.02651 0.03346 0.91127 0.0
H1306 H 0.91543 0.02956 0.91397 0.0
H1307 H 0.95417 0.02066 0.91421 0.0
C1308 C 0.92392 0.48939 0.64167 0.0
C1309 C 0.91105 0.51094 0.63159 0.0
C1310 C 0.94635 0.49214 0.64086 0.0
C1311 C 0.98831 0.55987 0.62773 0.0
H1312 H 0.02679 0.47798 0.63886 0.0
C1313 C 0.08238 0.56825 0.62644 0.0
C1314 C 0.09273 0.55084 0.63914 0.0
C1315 C 0.05997 0.56561 0.62487 0.0
C1316 C 0.01621 0.50119 0.63581 0.0
H1317 H 0.9112 0.55023 0.61216 0.0
H1318 H 0.9503 0.55383 0.61024 0.0
H1319 H 0.98849 0.46533 0.63605 0.0
H1320 H 0.08783 0.51988 0.66074 0.0
H1321 H 0.04894 0.5155 0.65806 0.0
H1322 H 0.01626 0.59558 0.6274 0.0
C1323 C 0.94325 0.53572 0.61909 0.0
C1324 C 0.99424 0.49395 0.63422 0.0
C1325 C 0.92088 0.53327 0.62002 0.0
C1326 C 0.08024 0.53318 0.65075 0.0
C1327 C 0.05802 0.53041 0.64915 0.0
C1328 C 0.01035 0.56702 0.62917 0.0
C1329 C 0.95629 0.51631 0.62987 0.0
C1330 C 0.97993 0.52328 0.63037 0.0
C1331 C 0.04771 0.5454 0.63594 0.0
C1332 C 0.02447 0.53787 0.63348 0.0
H1333 H 0.91665 0.47249 0.65084 0.0
H1334 H 0.9558 0.47699 0.64945 0.0
H1335 H 0.97778 0.58337 0.62501 0.0
H1336 H 0.09169 0.58179 0.6173 0.0
H1337 H 0.05239 0.57757 0.61459 0.0
C1338 C 0.92153 0.57223 0.40278 0.0
C1339 C 0.90931 0.56359 0.3895 0.0
C1340 C 0.94402 0.57112 0.40207 0.0
C1341 C 0.99026 0.56718 0.37457 0.0
H1342 H 0.01826 0.51338 0.40846 0.0
C1343 C 0.08214 0.55808 0.38027 0.0
C1344 C 0.09136 0.52429 0.38578 0.0
C1345 C 0.05992 0.56266 0.37999 0.0
C1346 C 0.01064 0.52809 0.39883 0.0
H1347 H 0.91055 0.54843 0.36503 0.0
H1348 H 0.94966 0.54683 0.36367 0.0
H1349 H 0.97971 0.52575 0.40979 0.0
H1350 H 0.0846 0.46816 0.39473 0.0
H1351 H 0.04536 0.47594 0.39409 0.0
H1352 H 0.02103 0.56877 0.36343 0.0
C1353 C 0.94214 0.55484 0.37459 0.0
C1354 C 0.98862 0.53578 0.39972 0.0
C1355 C 0.91976 0.5558 0.37534 0.0
C1356 C 0.07786 0.49445 0.39042 0.0
C1357 C 0.05547 0.4991 0.3902 0.0
C1358 C 0.01224 0.55951 0.37368 0.0
C1359 C 0.95454 0.56138 0.38805 0.0
C1360 C 0.97817 0.55537 0.38758 0.0
C1361 C 0.0463 0.53351 0.38518 0.0
C1362 C 0.0227 0.5399 0.3858 0.0
H1363 H 0.9137 0.5777 0.41387 0.0
H1364 H 0.95315 0.57676 0.41258 0.0
H1365 H 0.98274 0.58246 0.36505 0.0
H1366 H 0.0922 0.58142 0.37647 0.0
H1367 H 0.05345 0.58961 0.37618 0.0
C1368 C 0.42204 0.00117 0.66222 0.0
C1369 C 0.41153 -0.00081 0.6477 0.0
C1370 C 0.44432 0.00675 0.66292 0.0
C1371 C 0.48762 0.0485 0.6392 0.0
H1372 H 0.52618 -0.00068 0.66841 0.0
C1373 C 0.57951 0.05573 0.63292 0.0
C1374 C 0.59225 0.05703 0.64646 0.0
C1375 C 0.55726 0.05143 0.634 0.0
C1376 C 0.51555 0.01376 0.66035 0.0
H1377 H 0.41623 -0.00152 0.62261 0.0
H1378 H 0.45502 0.00771 0.62381 0.0
H1379 H 0.48798 0.98296 0.6685 0.0
H1380 H 0.59154 0.05617 0.67179 0.0
H1381 H 0.55249 0.04937 0.67371 0.0
H1382 H 0.51503 0.07926 0.631 0.0
C1383 C 0.44606 0.00596 0.63465 0.0
C1384 C 0.49369 0.00425 0.66037 0.0
C1385 C 0.42388 0.00041 0.63395 0.0
C1386 C 0.58213 0.05559 0.66115 0.0
C1387 C 0.55981 0.05117 0.66224 0.0
C1388 C 0.50939 0.05807 0.63921 0.0
C1389 C 0.45644 0.01045 0.64911 0.0
C1390 C 0.47956 0.0211 0.64961 0.0
C1391 C 0.54716 0.04834 0.64867 0.0
C1392 C 0.5237 0.04045 0.64962 0.0
H1393 H 0.41291 0.00069 0.67301 0.0
H1394 H 0.45186 0.01012 0.67424 0.0
H1395 H 0.47705 0.06272 0.63102 0.0
H1396 H 0.58684 0.05697 0.62144 0.0
H1397 H 0.54808 0.04904 0.6233 0.0
C1398 C 0.42362 0.04998 0.37183 0.0
C1399 C 0.41367 0.05186 0.38657 0.0
C1400 C 0.44583 0.04426 0.37063 0.0
C1401 C 0.48997 0.00193 0.3931 0.0
H1402 H 0.52747 0.05371 0.36382 0.0
C1403 C 0.58192 -0.0023 0.39821 0.0
C1404 C 0.59446 -0.00191 0.38454 0.0
C1405 C 0.55961 0.00078 0.39737 0.0
C1406 C 0.51714 0.03851 0.37187 0.0
H1407 H 0.41934 0.0521 0.41156 0.0
H1408 H 0.45802 0.04236 0.40949 0.0
H1409 H 0.4892 0.06924 0.36448 0.0
H1410 H 0.59337 0.00046 0.35924 0.0
H1411 H 0.55419 0.00511 0.35774 0.0
H1412 H 0.51775 0.97123 0.40054 0.0
C1413 C 0.44864 0.0444 0.39886 0.0
C1414 C 0.49525 0.04757 0.37229 0.0
C1415 C 0.42652 0.05018 0.40005 0.0
C1416 C 0.58411 -0.00022 0.36996 0.0
C1417 C 0.56171 0.00296 0.36912 0.0
C1418 C 0.51177 0.99277 0.39263 0.0
C1419 C 0.45845 0.04024 0.38416 0.0
C1420 C 0.48152 0.02983 0.38311 0.0
C1421 C 0.54925 0.00429 0.38284 0.0
C1422 C 0.52571 0.01138 0.3822 0.0
H1423 H 0.41412 0.05078 0.36123 0.0
H1424 H 0.45294 0.04112 0.35915 0.0
H1425 H 0.47969 0.98709 0.4013 0.0
H1426 H 0.58946 0.9962 0.4096 0.0
H1427 H 0.55057 0.00204 0.40818 0.0
C1428 C 0.58105 0.5789 0.13029 0.0
C1429 C 0.59252 0.57271 0.14415 0.0
C1430 C 0.55857 0.57667 0.13026 0.0
C1431 C 0.51006 0.57304 0.15557 0.0
H1432 H 0.48772 0.50778 0.12298 0.0
C1433 C 0.42267 0.51733 0.15724 0.0
C1434 C 0.41138 0.51808 0.14302 0.0
C1435 C 0.44493 0.52329 0.15752 0.0
C1436 C 0.49359 0.52642 0.13207 0.0
H1437 H 0.58985 0.56106 0.1689 0.0
H1438 H 0.55062 0.5579 0.16898 0.0
H1439 H 0.5256 0.52509 0.12291 0.0
H1440 H 0.4148 0.52337 0.11789 0.0
H1441 H 0.45335 0.5344 0.11837 0.0
H1442 H 0.47802 0.57453 0.1647 0.0
C1443 C 0.5588 0.56469 0.15815 0.0
C1444 C 0.51532 0.53646 0.13199 0.0
C1445 C 0.58123 0.56662 0.15814 0.0
C1446 C 0.423 0.523 0.12906 0.0
C1447 C 0.44517 0.52904 0.12933 0.0
C1448 C 0.48826 0.56319 0.1556 0.0
C1449 C 0.54725 0.5683 0.14411 0.0
C1450 C 0.52383 0.55984 0.14375 0.0
C1451 C 0.45639 0.53009 0.14358 0.0
C1452 C 0.47974 0.53967 0.14385 0.0
H1453 H 0.5895 0.58296 0.11933 0.0
H1454 H 0.55009 0.58003 0.1193 0.0
H1455 H 0.51611 0.59124 0.16475 0.0
H1456 H 0.41419 0.51389 0.16821 0.0
H1457 H 0.45311 0.5232 0.16869 0.0
C1458 C 0.42195 0.54857 0.89803 0.0
C1459 C 0.4089 0.54788 0.88465 0.0
C1460 C 0.44409 0.54289 0.89681 0.0
C1461 C 0.48958 0.54142 0.86878 0.0
H1462 H 0.5162 0.48057 0.9012 0.0
C1463 C 0.58076 0.53739 0.8781 0.0
C1464 C 0.5906 0.5041 0.88359 0.0
C1465 C 0.55853 0.53953 0.87649 0.0
C1466 C 0.509 0.49709 0.89191 0.0
H1467 H 0.40882 0.54172 0.85946 0.0
H1468 H 0.44751 0.53155 0.85729 0.0
H1469 H 0.47767 0.49211 0.90199 0.0
H1470 H 0.58492 0.44621 0.8909 0.0
H1471 H 0.54576 0.44966 0.88785 0.0
H1472 H 0.52086 0.54586 0.85856 0.0
C1473 C 0.44071 0.53697 0.86873 0.0
C1474 C 0.48693 0.50429 0.89251 0.0
C1475 C 0.41855 0.54293 0.86994 0.0
C1476 C 0.57775 0.47225 0.88671 0.0
C1477 C 0.55535 0.47439 0.88508 0.0
C1478 C 0.51163 0.53406 0.86814 0.0
C1479 C 0.45368 0.53605 0.88219 0.0
C1480 C 0.47701 0.52711 0.88111 0.0
C1481 C 0.54548 0.50832 0.8802 0.0
C1482 C 0.52168 0.51238 0.87985 0.0
H1483 H 0.41493 0.55264 0.9095 0.0
H1484 H 0.45365 0.54339 0.90738 0.0
H1485 H 0.48251 0.55916 0.85982 0.0
H1486 H 0.59028 0.56222 0.87532 0.0
H1487 H 0.55156 0.56623 0.87287 0.0
C1488 C 0.16785 0.02236 0.95756 0.0
C1489 C 0.1893 0.01752 0.95265 0.0
C1490 C 0.16265 0.02204 0.97358 0.0
C1491 C 0.18226 0.98165 1.01007 0.0
H1492 H 0.15557 0.06432 0.03265 0.0
C1493 C 0.20051 0.0101 0.07401 0.0
C1494 C 0.18451 0.02313 0.08422 0.0
C1495 C 0.19622 0.00508 0.05817 0.0
C1496 C 0.16258 0.04057 0.02649 0.0
H1497 H 0.22215 0.01179 0.96085 0.0
H1498 H 0.21305 0.01023 0.98839 0.0
H1499 H 0.1568 0.06574 1.00394 0.0
H1500 H 0.15126 0.04034 0.08601 0.0
H1501 H 0.14359 0.0318 0.05793 0.0
H1502 H 0.18874 0.95692 0.0324 0.0
C1503 C 0.20022 0.01354 0.97993 0.0
C1504 C 0.16331 0.04147 1.01007 0.0
C1505 C 0.20541 0.01428 0.9641 0.0
C1506 C 0.16379 0.02996 0.07834 0.0
C1507 C 0.1595 0.0254 0.06231 0.0
C1508 C 0.18143 0.98063 0.02636 0.0
C1509 C 0.1788 0.01655 0.98486 0.0
C1510 C 0.17392 0.01268 1.00178 0.0
C1511 C 0.17579 0.01322 0.05203 0.0
C1512 C 0.17239 0.01079 0.03481 0.0
H1513 H 0.15508 0.02499 0.94905 0.0
H1514 H 0.146 0.02468 0.97713 0.0
H1515 H 0.19027 0.95882 1.00394 0.0
H1516 H 0.21659 0.00459 0.07827 0.0
H1517 H 0.20924 0.99619 0.05061 0.0
C1518 C 0.81834 -0.0017 0.9561 0.0
C1519 C 0.81295 0.03188 0.9483 0.0
C1520 C 0.82153 -0.00163 0.9723 0.0
C1521 C 0.80837 0.05722 1.00723 0.0
H1522 H 0.84325 0.98248 0.02864 0.0
C1523 C 0.81771 0.05334 0.07448 0.0
C1524 C 0.81084 0.01883 0.08096 0.0
C1525 C 0.82142 0.05642 0.05839 0.0
C1526 C 0.83355 0.00361 0.02277 0.0
H1527 H 0.80802 0.09207 0.95079 0.0
H1528 H 0.81494 0.09305 0.97884 0.0
H1529 H 0.84418 0.98612 1.00012 0.0
H1530 H 0.80351 0.96014 0.07601 0.0
H1531 H 0.81053 0.96523 0.0479 0.0
H1532 H 0.79808 0.07495 0.02997 0.0
C1533 C 0.8157 0.06618 0.97279 0.0
C1534 C 0.8339 0.00555 1.00642 0.0
C1535 C 0.81197 0.06584 0.9567 0.0
C1536 C 0.80865 0.98708 0.07122 0.0
C1537 C 0.81281 0.98993 0.05522 0.0
C1538 C 0.80839 0.05577 0.02354 0.0
C1539 C 0.81985 0.03226 0.98094 0.0
C1540 C 0.82102 0.03198 0.99839 0.0
C1541 C 0.81881 0.02479 0.04862 0.0
C1542 C 0.82069 0.02859 0.03144 0.0
H1543 H 0.81897 0.9718 0.94976 0.0
H1544 H 0.82439 0.97155 0.97807 0.0
H1545 H 0.79779 0.07737 1.00161 0.0
H1546 H 0.81937 0.07821 0.08177 0.0
H1547 H 0.82603 0.0836 0.05354 0.0
C1548 C 0.20854 0.52441 0.57035 0.0
C1549 C 0.19172 0.52761 0.58122 0.0
C1550 C 0.20449 0.52621 0.55438 0.0
C1551 C 0.16669 0.51357 0.523 0.0
H1552 H 0.20318 0.58739 0.50225 0.0
C1553 C 0.17114 0.53205 0.45501 0.0
C1554 C 0.19238 0.53117 0.44939 0.0
C1555 C 0.16708 0.5356 0.4711 0.0
C1556 C 0.1928 0.56677 0.50785 0.0
H1557 H 0.15721 0.53249 0.58386 0.0
H1558 H 0.14998 0.53498 0.55549 0.0
H1559 H 0.20298 0.58352 0.53068 0.0
H1560 H 0.22589 0.53489 0.45602 0.0
H1561 H 0.21894 0.54126 0.48384 0.0
H1562 H 0.15734 0.49564 0.49999 0.0
C1563 C 0.16635 0.53157 0.55955 0.0
C1564 C 0.19266 0.5646 0.52411 0.0
C1565 C 0.17046 0.52999 0.57571 0.0
C1566 C 0.20938 0.53513 0.46003 0.0
C1567 C 0.20536 0.53913 0.47596 0.0
C1568 C 0.16689 0.51564 0.50661 0.0
C1569 C 0.18348 0.53095 0.54881 0.0
C1570 C 0.18022 0.53713 0.53183 0.0
C1571 C 0.18421 0.53909 0.48173 0.0
C1572 C 0.18059 0.54136 0.49888 0.0
H1573 H 0.22502 0.52151 0.57421 0.0
H1574 H 0.21793 0.52473 0.54634 0.0
H1575 H 0.15697 0.49215 0.52871 0.0
H1576 H 0.15778 0.52879 0.44703 0.0
H1577 H 0.15062 0.53556 0.47522 0.0
C1578 C 0.83467 0.53392 0.45555 0.0
C1579 C 0.81309 0.53546 0.45061 0.0
C1580 C 0.8398 0.53609 0.47154 0.0
C1581 C 0.8192 0.5779 0.50709 0.0
H1582 H 0.84621 0.49876 0.53162 0.0
C1583 C 0.79983 0.55655 0.57135 0.0
C1584 C 0.81569 0.54498 0.58198 0.0
C1585 C 0.80443 0.55977 0.55547 0.0
C1586 C 0.83912 0.52156 0.5249 0.0
H1587 H 0.78006 0.53723 0.45878 0.0
H1588 H 0.789 0.5421 0.48628 0.0
H1589 H 0.84564 0.49406 0.50296 0.0
H1590 H 0.849 0.52858 0.58442 0.0
H1591 H 0.85721 0.53401 0.55629 0.0
H1592 H 0.81199 0.60494 0.5288 0.0
C1593 C 0.80194 0.53983 0.47784 0.0
C1594 C 0.83877 0.51879 0.50852 0.0
C1595 C 0.79685 0.53724 0.46204 0.0
C1596 C 0.83656 0.53781 0.57644 0.0
C1597 C 0.84116 0.5406 0.56038 0.0
C1598 C 0.81968 0.58082 0.52335 0.0
C1599 C 0.82342 0.54014 0.48275 0.0
C1600 C 0.82806 0.54626 0.49956 0.0
C1601 C 0.82504 0.55132 0.5497 0.0
C1602 C 0.82881 0.55192 0.5325 0.0
H1603 H 0.84755 0.53252 0.44705 0.0
H1604 H 0.8565 0.53606 0.4751 0.0
H1605 H 0.81104 0.59965 0.50041 0.0
H1606 H 0.78365 0.56243 0.57533 0.0
H1607 H 0.79152 0.56755 0.54761 0.0
C1608 C 0.71527 0.03849 0.57174 0.0
C1609 C 0.69758 0.04044 0.58193 0.0
C1610 C 0.71233 0.0377 0.55562 0.0
C1611 C 0.67507 0.01634 0.52389 0.0
H1612 H 0.7129 0.08342 0.50069 0.0
C1613 C 0.67729 0.02453 0.45558 0.0
C1614 C 0.69817 0.02246 0.44933 0.0
C1615 C 0.67419 0.02984 0.47169 0.0
C1616 C 0.70223 0.06451 0.50698 0.0
H1617 H 0.6628 0.04111 0.58312 0.0
H1618 H 0.65759 0.03923 0.55462 0.0
H1619 H 0.71285 0.08519 0.52912 0.0
H1620 H 0.73208 0.02571 0.45494 0.0
H1621 H 0.72676 0.0348 0.4828 0.0
H1622 H 0.66496 0.99491 0.50158 0.0
C1623 C 0.67376 0.03864 0.55929 0.0
C1624 C 0.7022 0.06552 0.52326 0.0
C1625 C 0.67673 0.0396 0.57556 0.0
C1626 C 0.71581 0.02671 0.45941 0.0
C1627 C 0.71274 0.03234 0.47537 0.0
C1628 C 0.67513 0.01527 0.50749 0.0
C1629 C 0.69161 0.03867 0.54917 0.0
C1630 C 0.68914 0.04066 0.53192 0.0
C1631 C 0.69193 0.03379 0.48174 0.0
C1632 C 0.68922 0.03857 0.4989 0.0
H1633 H 0.73152 0.03793 0.57623 0.0
H1634 H 0.72639 0.03663 0.54814 0.0
H1635 H 0.66483 0.99689 0.53028 0.0
H1636 H 0.66343 0.02113 0.44808 0.0
H1637 H 0.65797 0.03097 0.47626 0.0
C1638 C 0.29045 0.03279 0.46149 0.0
C1639 C 0.30817 0.03397 0.4513 0.0
C1640 C 0.29336 0.03247 0.47763 0.0
C1641 C 0.3301 0.01104 0.50964 0.0
H1642 H 0.29353 0.08135 0.53211 0.0
C1643 C 0.32795 0.02231 0.5779 0.0
C1644 C 0.30706 0.02253 0.58421 0.0
C1645 C 0.33116 0.02652 0.56174 0.0
C1646 C 0.30383 0.06149 0.52604 0.0
H1647 H 0.34296 0.03365 0.45016 0.0
H1648 H 0.34809 0.03249 0.47868 0.0
H1649 H 0.29363 0.08158 0.50367 0.0
H1650 H 0.27329 0.02872 0.57857 0.0
H1651 H 0.27877 0.03577 0.55064 0.0
H1652 H 0.33975 0.99015 0.53217 0.0
C1653 C 0.33193 0.03219 0.47399 0.0
C1654 C 0.3039 0.06165 0.50974 0.0
C1655 C 0.329 0.03274 0.4577 0.0
C1656 C 0.28956 0.02794 0.57409 0.0
C1657 C 0.29274 0.03242 0.55806 0.0
C1658 C 0.32998 0.01077 0.52606 0.0
C1659 C 0.31408 0.03306 0.4841 0.0
C1660 C 0.31652 0.03571 0.50135 0.0
C1661 C 0.31353 0.0316 0.55164 0.0
C1662 C 0.31632 0.03526 0.53441 0.0
H1663 H 0.2742 0.03253 0.45701 0.0
H1664 H 0.27929 0.03209 0.4851 0.0
H1665 H 0.34 0.99075 0.50346 0.0
H1666 H 0.34172 0.01796 0.58542 0.0
H1667 H 0.34738 0.02592 0.55714 0.0
C1668 C 0.66815 0.5318 0.07667 0.0
C1669 C 0.68934 0.53409 0.08235 0.0
C1670 C 0.66423 0.53067 0.06047 0.0
C1671 C 0.68913 0.5638 0.02439 0.0
H1672 H 0.65775 0.48661 1.00166 0.0
C1673 C 0.70717 0.53155 0.96064 0.0
C1674 C 0.69044 0.52368 0.95014 0.0
C1675 C 0.70306 0.53597 0.97654 0.0
C1676 C 0.66618 0.50882 1.00787 0.0
H1677 H 0.72293 0.5334 0.07557 0.0
H1678 H 0.71614 0.53206 0.04766 0.0
H1679 H 0.65742 0.48641 0.03043 0.0
H1680 H 0.65615 0.51469 0.94804 0.0
H1681 H 0.64883 0.52225 0.97619 0.0
H1682 H 0.69846 0.58573 1.0021 0.0
C1683 C 0.70255 0.53197 0.05559 0.0
C1684 C 0.666 0.50863 0.0243 0.0
C1685 C 0.70642 0.53283 0.0716 0.0
C1686 C 0.66931 0.52099 0.95589 0.0
C1687 C 0.66518 0.52499 0.97197 0.0
C1688 C 0.68924 0.56408 1.00809 0.0
C1689 C 0.68147 0.532 0.04981 0.0
C1690 C 0.67814 0.53537 0.03267 0.0
C1691 C 0.68207 0.5325 0.98246 0.0
C1692 C 0.67845 0.53581 0.99962 0.0
H1693 H 0.65469 0.53266 0.08469 0.0
H1694 H 0.64781 0.53043 0.05627 0.0
H1695 H 0.69832 0.58513 0.03056 0.0
H1696 H 0.72357 0.53411 0.95653 0.0
H1697 H 0.7165 0.54124 0.98429 0.0
C1698 C 0.28588 0.53776 0.95964 0.0
C1699 C 0.30344 0.53798 0.94928 0.0
C1700 C 0.28907 0.53834 0.97574 0.0
C1701 C 0.3265 0.51753 1.0074 0.0
H1702 H 0.29028 0.58807 0.03006 0.0
C1703 C 0.32571 0.5301 0.07556 0.0
C1704 C 0.30493 0.52981 0.08204 0.0
C1705 C 0.32859 0.5342 0.05937 0.0
C1706 C 0.30051 0.56819 0.02392 0.0
H1707 H 0.33822 0.5372 0.94785 0.0
H1708 H 0.34383 0.53763 0.97629 0.0
H1709 H 0.28981 0.58785 1.00161 0.0
H1710 H 0.27101 0.53494 0.07673 0.0
H1711 H 0.27594 0.54185 0.04873 0.0
H1712 H 0.33665 0.4971 0.02987 0.0
C1713 C 0.32758 0.53733 0.97176 0.0
C1714 C 0.30024 0.56807 1.00763 0.0
C1715 C 0.32437 0.53697 0.95551 0.0
C1716 C 0.28719 0.53457 0.07209 0.0
C1717 C 0.29006 0.53897 0.05604 0.0
C1718 C 0.32673 0.51757 0.0238 0.0
C1719 C 0.30991 0.53892 0.982 0.0
C1720 C 0.31271 0.54199 0.99919 0.0
C1721 C 0.31075 0.53868 0.04945 0.0
C1722 C 0.31321 0.54216 0.03222 0.0
H1723 H 0.26956 0.53739 0.9553 0.0
H1724 H 0.27513 0.5385 0.98334 0.0
H1725 H 0.33628 0.49713 1.00118 0.0
H1726 H 0.33965 0.52626 0.08296 0.0
H1727 H 0.34474 0.53399 0.05462 0.0
loop_
_geom_bond_atom_site_label_1
_geom_bond_atom_site_label_2
_geom_bond_distance
_geom_bond_site_symmetry_2
_ccdc_geom_bond_type
Co0 N4 2.148 . S
Co0 N10 2.128 . S
Co0 N20 2.194 . S
Co0 O25 2.351 1_545 S
Co0 O26 2.155 . S
Co0 O27 2.096 . S
C1 N4 1.301 . S
C1 N5 1.328 . S
C1 H6 0.930 . S
C2 C3 1.333 . S
C2 N4 1.317 . S
C2 H7 0.930 . S
C3 C2 1.333 . S
C3 N5 1.350 . S
C3 H29 0.931 . S
N4 Co0 2.148 . S
N4 C1 1.301 . S
N4 C2 1.317 . S
N5 C1 1.328 . S
N5 C3 1.350 . S
H6 C1 0.930 . S
H7 C2 0.930 . S
C8 O9 1.224 . S
C8 O27 1.247 . S
O9 C8 1.224 . S
N10 Co0 2.128 . S
N10 C11 1.355 . S
N10 C13 1.311 . S
C11 N10 1.355 . S
C11 C12 1.363 . S
C11 H23 0.929 1_545 S
C12 C11 1.363 . S
C12 N14 1.375 . S
C12 H30 0.931 . S
C13 N10 1.311 . S
C13 N14 1.347 . S
C13 H24 0.929 . S
N14 C12 1.375 . S
N14 C13 1.347 . S
C15 C18 1.365 . S
C15 N20 1.328 . S
C15 H21 0.929 1_545 S
C16 C17 1.362 . S
C16 C19 1.378 . S
C16 H31 0.929 . S
C17 C16 1.362 . S
C17 C18 1.366 . S
C18 C15 1.365 . S
C18 C17 1.366 . S
C18 H32 0.930 1_545 S
C19 C16 1.378 . S
C19 N20 1.315 . S
C19 H22 0.930 . S
N20 Co0 2.194 . S
N20 C15 1.328 . S
N20 C19 1.315 . S
H21 C15 0.929 1_565 S
H22 C19 0.930 . S
H23 C11 0.929 1_565 S
H24 C13 0.929 . S
O25 Co0 2.351 1_565 S
O25 C28 1.244 . S
O26 Co0 2.155 . S
O26 C28 1.240 1_545 S
O27 Co0 2.096 . S
O27 C8 1.247 . S
C28 O25 1.244 . S
C28 O26 1.240 1_565 S
H29 C3 0.931 . S
H30 C12 0.931 . S
H31 C16 0.929 . S
H32 C18 0.930 1_565 S
Co33 N37 2.148 . S
Co33 N43 2.128 . S
Co33 N53 2.194 . S
Co33 O58 2.351 . S
Co33 O59 2.155 . S
Co33 O60 2.096 1_545 S
C34 N37 1.301 . S
C34 N38 1.328 . S
C34 H39 0.930 . S
C35 C36 1.333 . S
C35 N37 1.317 1_565 S
C35 H40 0.930 . S
C36 C35 1.333 . S
C36 N38 1.350 1_565 S
C36 H62 0.931 . S
N37 Co33 2.148 . S
N37 C34 1.301 . S
N37 C35 1.317 1_545 S
N38 C34 1.328 . S
N38 C36 1.350 1_545 S
H39 C34 0.930 . S
H40 C35 0.930 . S
C41 O42 1.224 . S
C41 O60 1.247 . S
O42 C41 1.224 . S
N43 Co33 2.128 . S
N43 C44 1.355 . S
N43 C46 1.311 . S
C44 N43 1.355 . S
C44 C45 1.363 . S
C44 H56 0.929 . S
C45 C44 1.363 . S
C45 N47 1.375 . S
C45 H63 0.931 . S
C46 N43 1.311 . S
C46 N47 1.347 . S
C46 H57 0.929 1_545 S
N47 C45 1.375 . S
N47 C46 1.347 . S
C48 C51 1.365 . S
C48 N53 1.328 . S
C48 H54 0.929 . S
C49 C50 1.362 1_565 S
C49 C52 1.378 . S
C49 H64 0.929 . S
C50 C49 1.362 1_545 S
C50 C51 1.366 . S
C51 C48 1.365 . S
C51 C50 1.366 . S
C51 H65 0.930 . S
C52 C49 1.378 . S
C52 N53 1.315 1_565 S
C52 H55 0.930 . S
N53 Co33 2.194 . S
N53 C48 1.328 . S
N53 C52 1.315 1_545 S
H54 C48 0.929 . S
H55 C52 0.930 . S
H56 C44 0.929 . S
H57 C46 0.929 1_565 S
O58 Co33 2.351 . S
O58 C61 1.244 . S
O59 Co33 2.155 . S
O59 C61 1.240 . S
O60 Co33 2.096 1_565 S
O60 C41 1.247 . S
C61 O58 1.244 . S
C61 O59 1.240 . S
H62 C36 0.931 . S
H63 C45 0.931 . S
H64 C49 0.929 . S
H65 C51 0.930 . S
Co66 N70 2.148 . S
Co66 N76 2.128 . S
Co66 N86 2.194 . S
Co66 O91 2.351 . S
Co66 O92 2.155 . S
Co66 O93 2.096 1_545 S
C67 N70 1.301 . S
C67 N71 1.328 . S
C67 H72 0.930 . S
C68 C69 1.333 . S
C68 N70 1.317 1_565 S
C68 H73 0.930 . S
C69 C68 1.333 . S
C69 N71 1.350 1_565 S
C69 H95 0.931 . S
N70 Co66 2.148 . S
N70 C67 1.301 . S
N70 C68 1.317 1_545 S
N71 C67 1.328 . S
N71 C69 1.350 1_545 S
H72 C67 0.930 . S
H73 C68 0.930 . S
C74 O75 1.224 . S
C74 O93 1.247 . S
O75 C74 1.224 . S
N76 Co66 2.128 . S
N76 C77 1.355 . S
N76 C79 1.311 . S
C77 N76 1.355 . S
C77 C78 1.363 . S
C77 H89 0.929 . S
C78 C77 1.363 . S
C78 N80 1.375 . S
C78 H96 0.931 . S
C79 N76 1.311 . S
C79 N80 1.347 . S
C79 H90 0.929 1_545 S
N80 C78 1.375 . S
N80 C79 1.347 . S
C81 C84 1.365 . S
C81 N86 1.328 . S
C81 H87 0.929 . S
C82 C83 1.362 1_565 S
C82 C85 1.378 . S
C82 H97 0.929 . S
C83 C82 1.362 1_545 S
C83 C84 1.366 . S
C84 C81 1.365 . S
C84 C83 1.366 . S
C84 H98 0.930 . S
C85 C82 1.378 . S
C85 N86 1.315 1_565 S
C85 H88 0.930 . S
N86 Co66 2.194 . S
N86 C81 1.328 . S
N86 C85 1.315 1_545 S
H87 C81 0.929 . S
H88 C85 0.930 . S
H89 C77 0.929 . S
H90 C79 0.929 1_565 S
O91 Co66 2.351 . S
O91 C94 1.244 . S
O92 Co66 2.155 . S
O92 C94 1.240 . S
O93 Co66 2.096 1_565 S
O93 C74 1.247 . S
C94 O91 1.244 . S
C94 O92 1.240 . S
H95 C69 0.931 . S
H96 C78 0.931 . S
H97 C82 0.929 . S
H98 C84 0.930 . S
Co99 N103 2.148 . S
Co99 N109 2.128 . S
Co99 N119 2.194 . S
Co99 O124 2.351 1_545 S
Co99 O125 2.155 . S
Co99 O126 2.096 . S
C100 N103 1.301 . S
C100 N104 1.328 . S
C100 H105 0.930 . S
C101 C102 1.333 . S
C101 N103 1.317 . S
C101 H106 0.930 . S
C102 C101 1.333 . S
C102 N104 1.350 . S
C102 H128 0.931 . S
N103 Co99 2.148 . S
N103 C100 1.301 . S
N103 C101 1.317 . S
N104 C100 1.328 . S
N104 C102 1.350 . S
H105 C100 0.930 . S
H106 C101 0.930 . S
C107 O108 1.224 . S
C107 O126 1.247 . S
O108 C107 1.224 . S
N109 Co99 2.128 . S
N109 C110 1.355 . S
N109 C112 1.311 . S
C110 N109 1.355 . S
C110 C111 1.363 . S
C110 H122 0.929 1_545 S
C111 C110 1.363 . S
C111 N113 1.375 . S
C111 H129 0.931 . S
C112 N109 1.311 . S
C112 N113 1.347 . S
C112 H123 0.929 . S
N113 C111 1.375 . S
N113 C112 1.347 . S
C114 C117 1.365 . S
C114 N119 1.328 . S
C114 H120 0.929 1_545 S
C115 C116 1.362 . S
C115 C118 1.378 . S
C115 H130 0.929 . S
C116 C115 1.362 . S
C116 C117 1.366 . S
C117 C114 1.365 . S
C117 C116 1.366 . S
C117 H131 0.930 1_545 S
C118 C115 1.378 . S
C118 N119 1.315 . S
C118 H121 0.930 . S
N119 Co99 2.194 . S
N119 C114 1.328 . S
N119 C118 1.315 . S
H120 C114 0.929 1_565 S
H121 C118 0.930 . S
H122 C110 0.929 1_565 S
H123 C112 0.929 . S
O124 Co99 2.351 1_565 S
O124 C127 1.244 . S
O125 Co99 2.155 . S
O125 C127 1.240 1_545 S
O126 Co99 2.096 . S
O126 C107 1.247 . S
C127 O124 1.244 . S
C127 O125 1.240 1_565 S
H128 C102 0.931 . S
H129 C111 0.931 . S
H130 C115 0.929 . S
H131 C117 0.930 1_565 S
Co132 N136 2.148 . S
Co132 N142 2.128 . S
Co132 N152 2.194 . S
Co132 O157 2.351 . S
Co132 O158 2.155 . S
Co132 O159 2.096 . S
C133 N136 1.301 . S
C133 N137 1.328 . S
C133 H138 0.930 . S
C134 C135 1.333 . S
C134 N136 1.317 . S
C134 H139 0.930 . S
C135 C134 1.333 . S
C135 N137 1.350 . S
C135 H161 0.931 . S
N136 Co132 2.148 . S
N136 C133 1.301 . S
N136 C134 1.317 . S
N137 C133 1.328 . S
N137 C135 1.350 . S
H138 C133 0.930 . S
H139 C134 0.930 . S
C140 O141 1.224 . S
C140 O159 1.247 . S
O141 C140 1.224 . S
N142 Co132 2.128 . S
N142 C143 1.355 . S
N142 C145 1.311 . S
C143 N142 1.355 . S
C143 C144 1.363 . S
C143 H155 0.929 . S
C144 C143 1.363 . S
C144 N146 1.375 . S
C144 H162 0.931 . S
C145 N142 1.311 . S
C145 N146 1.347 . S
C145 H156 0.929 . S
N146 C144 1.375 . S
N146 C145 1.347 . S
C147 C150 1.365 . S
C147 N152 1.328 . S
C147 H153 0.929 . S
C148 C149 1.362 . S
C148 C151 1.378 . S
C148 H163 0.929 . S
C149 C148 1.362 . S
C149 C150 1.366 . S
C150 C147 1.365 . S
C150 C149 1.366 . S
C150 H164 0.930 . S
C151 C148 1.378 . S
C151 N152 1.315 . S
C151 H154 0.930 . S
N152 Co132 2.194 . S
N152 C147 1.328 . S
N152 C151 1.315 . S
H153 C147 0.929 . S
H154 C151 0.930 . S
H155 C143 0.929 . S
H156 C145 0.929 . S
O157 Co132 2.351 . S
O157 C160 1.244 . S
O158 Co132 2.155 . S
O158 C160 1.240 . S
O159 Co132 2.096 . S
O159 C140 1.247 . S
C160 O157 1.244 . S
C160 O158 1.240 . S
H161 C135 0.931 . S
H162 C144 0.931 . S
H163 C148 0.929 . S
H164 C150 0.930 . S
Co165 N169 2.148 . S
Co165 N175 2.128 . S
Co165 N185 2.194 . S
Co165 O190 2.351 . S
Co165 O191 2.155 . S
Co165 O192 2.096 . S
C166 N169 1.301 . S
C166 N170 1.328 . S
C166 H171 0.930 . S
C167 C168 1.333 . S
C167 N169 1.317 . S
C167 H172 0.930 . S
C168 C167 1.333 . S
C168 N170 1.350 . S
C168 H194 0.931 . S
N169 Co165 2.148 . S
N169 C166 1.301 . S
N169 C167 1.317 . S
N170 C166 1.328 . S
N170 C168 1.350 . S
H171 C166 0.930 . S
H172 C167 0.930 . S
C173 O174 1.224 . S
C173 O192 1.247 . S
O174 C173 1.224 . S
N175 Co165 2.128 . S
N175 C176 1.355 . S
N175 C178 1.311 . S
C176 N175 1.355 . S
C176 C177 1.363 . S
C176 H188 0.929 . S
C177 C176 1.363 . S
C177 N179 1.375 . S
C177 H195 0.931 . S
C178 N175 1.311 . S
C178 N179 1.347 . S
C178 H189 0.929 . S
N179 C177 1.375 . S
N179 C178 1.347 . S
C180 C183 1.365 . S
C180 N185 1.328 . S
C180 H186 0.929 . S
C181 C182 1.362 . S
C181 C184 1.378 . S
C181 H196 0.929 . S
C182 C181 1.362 . S
C182 C183 1.366 . S
C183 C180 1.365 . S
C183 C182 1.366 . S
C183 H197 0.930 . S
C184 C181 1.378 . S
C184 N185 1.315 . S
C184 H187 0.930 . S
N185 Co165 2.194 . S
N185 C180 1.328 . S
N185 C184 1.315 . S
H186 C180 0.929 . S
H187 C184 0.930 . S
H188 C176 0.929 . S
H189 C178 0.929 . S
O190 Co165 2.351 . S
O190 C193 1.244 . S
O191 Co165 2.155 . S
O191 C193 1.240 . S
O192 Co165 2.096 . S
O192 C173 1.247 . S
C193 O190 1.244 . S
C193 O191 1.240 . S
H194 C168 0.931 . S
H195 C177 0.931 . S
H196 C181 0.929 . S
H197 C183 0.930 . S
Co198 N202 2.148 . S
Co198 N208 2.128 . S
Co198 N218 2.194 . S
Co198 O223 2.351 . S
Co198 O224 2.155 . S
Co198 O225 2.096 . S
C199 N202 1.301 . S
C199 N203 1.328 . S
C199 H204 0.930 . S
C200 C201 1.333 . S
C200 N202 1.317 . S
C200 H205 0.930 . S
C201 C200 1.333 . S
C201 N203 1.350 . S
C201 H227 0.931 . S
N202 Co198 2.148 . S
N202 C199 1.301 . S
N202 C200 1.317 . S
N203 C199 1.328 . S
N203 C201 1.350 . S
H204 C199 0.930 . S
H205 C200 0.930 . S
C206 O207 1.224 . S
C206 O225 1.247 . S
O207 C206 1.224 . S
N208 Co198 2.128 . S
N208 C209 1.355 . S
N208 C211 1.311 . S
C209 N208 1.355 . S
C209 C210 1.363 . S
C209 H221 0.929 . S
C210 C209 1.363 . S
C210 N212 1.375 . S
C210 H228 0.931 . S
C211 N208 1.311 . S
C211 N212 1.347 . S
C211 H222 0.929 . S
N212 C210 1.375 . S
N212 C211 1.347 . S
C213 C216 1.365 . S
C213 N218 1.328 . S
C213 H219 0.929 . S
C214 C215 1.362 . S
C214 C217 1.378 . S
C214 H229 0.929 . S
C215 C214 1.362 . S
C215 C216 1.366 . S
C216 C213 1.365 . S
C216 C215 1.366 . S
C216 H230 0.930 . S
C217 C214 1.378 . S
C217 N218 1.315 . S
C217 H220 0.930 . S
N218 Co198 2.194 . S
N218 C213 1.328 . S
N218 C217 1.315 . S
H219 C213 0.929 . S
H220 C217 0.930 . S
H221 C209 0.929 . S
H222 C211 0.929 . S
O223 Co198 2.351 . S
O223 C226 1.244 . S
O224 Co198 2.155 . S
O224 C226 1.240 . S
O225 Co198 2.096 . S
O225 C206 1.247 . S
C226 O223 1.244 . S
C226 O224 1.240 . S
H227 C201 0.931 . S
H228 C210 0.931 . S
H229 C214 0.929 . S
H230 C216 0.930 . S
Co231 N235 2.148 . S
Co231 N241 2.128 . S
Co231 N251 2.194 . S
Co231 O256 2.351 . S
Co231 O257 2.155 . S
Co231 O258 2.096 . S
C232 N235 1.301 . S
C232 N236 1.328 . S
C232 H237 0.930 . S
C233 C234 1.333 . S
C233 N235 1.317 . S
C233 H238 0.930 . S
C234 C233 1.333 . S
C234 N236 1.350 . S
C234 H260 0.931 . S
N235 Co231 2.148 . S
N235 C232 1.301 . S
N235 C233 1.317 . S
N236 C232 1.328 . S
N236 C234 1.350 . S
H237 C232 0.930 . S
H238 C233 0.930 . S
C239 O240 1.224 . S
C239 O258 1.247 . S
O240 C239 1.224 . S
N241 Co231 2.128 . S
N241 C242 1.355 . S
N241 C244 1.311 . S
C242 N241 1.355 . S
C242 C243 1.363 . S
C242 H254 0.929 . S
C243 C242 1.363 . S
C243 N245 1.375 . S
C243 H261 0.931 . S
C244 N241 1.311 . S
C244 N245 1.347 . S
C244 H255 0.929 . S
N245 C243 1.375 . S
N245 C244 1.347 . S
C246 C249 1.365 . S
C246 N251 1.328 . S
C246 H252 0.929 . S
C247 C248 1.362 . S
C247 C250 1.378 . S
C247 H262 0.929 . S
C248 C247 1.362 . S
C248 C249 1.366 . S
C249 C246 1.365 . S
C249 C248 1.366 . S
C249 H263 0.930 . S
C250 C247 1.378 . S
C250 N251 1.315 . S
C250 H253 0.930 . S
N251 Co231 2.194 . S
N251 C246 1.328 . S
N251 C250 1.315 . S
H252 C246 0.929 . S
H253 C250 0.930 . S
H254 C242 0.929 . S
H255 C244 0.929 . S
O256 Co231 2.351 . S
O256 C259 1.244 . S
O257 Co231 2.155 . S
O257 C259 1.240 . S
O258 Co231 2.096 . S
O258 C239 1.247 . S
C259 O256 1.244 . S
C259 O257 1.240 . S
H260 C234 0.931 . S
H261 C243 0.931 . S
H262 C247 0.929 . S
H263 C249 0.930 . S
Co264 N268 2.148 . S
Co264 N274 2.128 . S
Co264 N284 2.194 . S
Co264 O289 2.351 1_545 S
Co264 O290 2.155 . S
Co264 O291 2.096 . S
C265 N268 1.301 . S
C265 N269 1.328 . S
C265 H270 0.930 . S
C266 C267 1.333 . S
C266 N268 1.317 . S
C266 H271 0.930 . S
C267 C266 1.333 . S
C267 N269 1.350 . S
C267 H293 0.931 . S
N268 Co264 2.148 . S
N268 C265 1.301 . S
N268 C266 1.317 . S
N269 C265 1.328 . S
N269 C267 1.350 . S
H270 C265 0.930 . S
H271 C266 0.930 . S
C272 O273 1.224 . S
C272 O291 1.247 . S
O273 C272 1.224 . S
N274 Co264 2.128 . S
N274 C275 1.355 . S
N274 C277 1.311 . S
C275 N274 1.355 . S
C275 C276 1.363 . S
C275 H287 0.929 1_545 S
C276 C275 1.363 . S
C276 N278 1.375 . S
C276 H294 0.931 . S
C277 N274 1.311 . S
C277 N278 1.347 . S
C277 H288 0.929 . S
N278 C276 1.375 . S
N278 C277 1.347 . S
C279 C282 1.365 . S
C279 N284 1.328 . S
C279 H285 0.929 1_545 S
C280 C281 1.362 . S
C280 C283 1.378 . S
C280 H295 0.929 . S
C281 C280 1.362 . S
C281 C282 1.366 . S
C282 C279 1.365 . S
C282 C281 1.366 . S
C282 H296 0.930 1_545 S
C283 C280 1.378 . S
C283 N284 1.315 . S
C283 H286 0.930 . S
N284 Co264 2.194 . S
N284 C279 1.328 . S
N284 C283 1.315 . S
H285 C279 0.929 1_565 S
H286 C283 0.930 . S
H287 C275 0.929 1_565 S
H288 C277 0.929 . S
O289 Co264 2.351 1_565 S
O289 C292 1.244 . S
O290 Co264 2.155 . S
O290 C292 1.240 1_545 S
O291 Co264 2.096 . S
O291 C272 1.247 . S
C292 O289 1.244 . S
C292 O290 1.240 1_565 S
H293 C267 0.931 . S
H294 C276 0.931 . S
H295 C280 0.929 . S
H296 C282 0.930 1_565 S
Co297 N301 2.148 . S
Co297 N307 2.128 . S
Co297 N317 2.194 . S
Co297 O322 2.351 . S
Co297 O323 2.155 . S
Co297 O324 2.096 1_545 S
C298 N301 1.301 . S
C298 N302 1.328 . S
C298 H303 0.930 . S
C299 C300 1.333 . S
C299 N301 1.317 1_565 S
C299 H304 0.930 . S
C300 C299 1.333 . S
C300 N302 1.350 1_565 S
C300 H326 0.931 . S
N301 Co297 2.148 . S
N301 C298 1.301 . S
N301 C299 1.317 1_545 S
N302 C298 1.328 . S
N302 C300 1.350 1_545 S
H303 C298 0.930 . S
H304 C299 0.930 . S
C305 O306 1.224 . S
C305 O324 1.247 . S
O306 C305 1.224 . S
N307 Co297 2.128 . S
N307 C308 1.355 . S
N307 C310 1.311 . S
C308 N307 1.355 . S
C308 C309 1.363 . S
C308 H320 0.929 . S
C309 C308 1.363 . S
C309 N311 1.375 . S
C309 H327 0.931 . S
C310 N307 1.311 . S
C310 N311 1.347 . S
C310 H321 0.929 1_545 S
N311 C309 1.375 . S
N311 C310 1.347 . S
C312 C315 1.365 . S
C312 N317 1.328 . S
C312 H318 0.929 . S
C313 C314 1.362 1_565 S
C313 C316 1.378 . S
C313 H328 0.929 . S
C314 C313 1.362 1_545 S
C314 C315 1.366 . S
C315 C312 1.365 . S
C315 C314 1.366 . S
C315 H329 0.930 . S
C316 C313 1.378 . S
C316 N317 1.315 1_565 S
C316 H319 0.930 . S
N317 Co297 2.194 . S
N317 C312 1.328 . S
N317 C316 1.315 1_545 S
H318 C312 0.929 . S
H319 C316 0.930 . S
H320 C308 0.929 . S
H321 C310 0.929 1_565 S
O322 Co297 2.351 . S
O322 C325 1.244 . S
O323 Co297 2.155 . S
O323 C325 1.240 . S
O324 Co297 2.096 1_565 S
O324 C305 1.247 . S
C325 O322 1.244 . S
C325 O323 1.240 . S
H326 C300 0.931 . S
H327 C309 0.931 . S
H328 C313 0.929 . S
H329 C315 0.930 . S
Co330 N334 2.148 . S
Co330 N340 2.128 . S
Co330 N350 2.194 . S
Co330 O355 2.351 . S
Co330 O356 2.155 . S
Co330 O357 2.096 1_545 S
C331 N334 1.301 . S
C331 N335 1.328 . S
C331 H336 0.930 . S
C332 C333 1.333 . S
C332 N334 1.317 1_565 S
C332 H337 0.930 . S
C333 C332 1.333 . S
C333 N335 1.350 1_565 S
C333 H359 0.931 . S
N334 Co330 2.148 . S
N334 C331 1.301 . S
N334 C332 1.317 1_545 S
N335 C331 1.328 . S
N335 C333 1.350 1_545 S
H336 C331 0.930 . S
H337 C332 0.930 . S
C338 O339 1.224 . S
C338 O357 1.247 . S
O339 C338 1.224 . S
N340 Co330 2.128 . S
N340 C341 1.355 . S
N340 C343 1.311 . S
C341 N340 1.355 . S
C341 C342 1.363 . S
C341 H353 0.929 . S
C342 C341 1.363 . S
C342 N344 1.375 . S
C342 H360 0.931 . S
C343 N340 1.311 . S
C343 N344 1.347 . S
C343 H354 0.929 1_545 S
N344 C342 1.375 . S
N344 C343 1.347 . S
C345 C348 1.365 . S
C345 N350 1.328 . S
C345 H351 0.929 . S
C346 C347 1.362 1_565 S
C346 C349 1.378 . S
C346 H361 0.929 . S
C347 C346 1.362 1_545 S
C347 C348 1.366 . S
C348 C345 1.365 . S
C348 C347 1.366 . S
C348 H362 0.930 . S
C349 C346 1.378 . S
C349 N350 1.315 1_565 S
C349 H352 0.930 . S
N350 Co330 2.194 . S
N350 C345 1.328 . S
N350 C349 1.315 1_545 S
H351 C345 0.929 . S
H352 C349 0.930 . S
H353 C341 0.929 . S
H354 C343 0.929 1_565 S
O355 Co330 2.351 . S
O355 C358 1.244 . S
O356 Co330 2.155 . S
O356 C358 1.240 . S
O357 Co330 2.096 1_565 S
O357 C338 1.247 . S
C358 O355 1.244 . S
C358 O356 1.240 . S
H359 C333 0.931 . S
H360 C342 0.931 . S
H361 C346 0.929 . S
H362 C348 0.930 . S
Co363 N367 2.148 . S
Co363 N373 2.128 . S
Co363 N383 2.194 . S
Co363 O388 2.351 1_545 S
Co363 O389 2.155 . S
Co363 O390 2.096 . S
C364 N367 1.301 . S
C364 N368 1.328 . S
C364 H369 0.930 . S
C365 C366 1.333 . S
C365 N367 1.317 . S
C365 H370 0.930 . S
C366 C365 1.333 . S
C366 N368 1.350 . S
C366 H392 0.931 . S
N367 Co363 2.148 . S
N367 C364 1.301 . S
N367 C365 1.317 . S
N368 C364 1.328 . S
N368 C366 1.350 . S
H369 C364 0.930 . S
H370 C365 0.930 . S
C371 O372 1.224 . S
C371 O390 1.247 . S
O372 C371 1.224 . S
N373 Co363 2.128 . S
N373 C374 1.355 . S
N373 C376 1.311 . S
C374 N373 1.355 . S
C374 C375 1.363 . S
C374 H386 0.929 1_545 S
C375 C374 1.363 . S
C375 N377 1.375 . S
C375 H393 0.931 . S
C376 N373 1.311 . S
C376 N377 1.347 . S
C376 H387 0.929 . S
N377 C375 1.375 . S
N377 C376 1.347 . S
C378 C381 1.365 . S
C378 N383 1.328 . S
C378 H384 0.929 1_545 S
C379 C380 1.362 . S
C379 C382 1.378 . S
C379 H394 0.929 . S
C380 C379 1.362 . S
C380 C381 1.366 . S
C381 C378 1.365 . S
C381 C380 1.366 . S
C381 H395 0.930 1_545 S
C382 C379 1.378 . S
C382 N383 1.315 . S
C382 H385 0.930 . S
N383 Co363 2.194 . S
N383 C378 1.328 . S
N383 C382 1.315 . S
H384 C378 0.929 1_565 S
H385 C382 0.930 . S
H386 C374 0.929 1_565 S
H387 C376 0.929 . S
O388 Co363 2.351 1_565 S
O388 C391 1.244 . S
O389 Co363 2.155 . S
O389 C391 1.240 1_545 S
O390 Co363 2.096 . S
O390 C371 1.247 . S
C391 O388 1.244 . S
C391 O389 1.240 1_565 S
H392 C366 0.931 . S
H393 C375 0.931 . S
H394 C379 0.929 . S
H395 C381 0.930 1_565 S
Co396 N400 2.148 . S
Co396 N406 2.128 . S
Co396 N416 2.194 . S
Co396 O421 2.351 . S
Co396 O422 2.155 . S
Co396 O423 2.096 . S
C397 N400 1.301 . S
C397 N401 1.328 . S
C397 H402 0.930 . S
C398 C399 1.333 . S
C398 N400 1.317 . S
C398 H403 0.930 . S
C399 C398 1.333 . S
C399 N401 1.350 . S
C399 H425 0.931 . S
N400 Co396 2.148 . S
N400 C397 1.301 . S
N400 C398 1.317 . S
N401 C397 1.328 . S
N401 C399 1.350 . S
H402 C397 0.930 . S
H403 C398 0.930 . S
C404 O405 1.224 . S
C404 O423 1.247 . S
O405 C404 1.224 . S
N406 Co396 2.128 . S
N406 C407 1.355 . S
N406 C409 1.311 . S
C407 N406 1.355 . S
C407 C408 1.363 . S
C407 H419 0.929 . S
C408 C407 1.363 . S
C408 N410 1.375 . S
C408 H426 0.931 . S
C409 N406 1.311 . S
C409 N410 1.347 . S
C409 H420 0.929 . S
N410 C408 1.375 . S
N410 C409 1.347 . S
C411 C414 1.365 . S
C411 N416 1.328 . S
C411 H417 0.929 . S
C412 C413 1.362 . S
C412 C415 1.378 . S
C412 H427 0.929 . S
C413 C412 1.362 . S
C413 C414 1.366 . S
C414 C411 1.365 . S
C414 C413 1.366 . S
C414 H428 0.930 . S
C415 C412 1.378 . S
C415 N416 1.315 . S
C415 H418 0.930 . S
N416 Co396 2.194 . S
N416 C411 1.328 . S
N416 C415 1.315 . S
H417 C411 0.929 . S
H418 C415 0.930 . S
H419 C407 0.929 . S
H420 C409 0.929 . S
O421 Co396 2.351 . S
O421 C424 1.244 . S
O422 Co396 2.155 . S
O422 C424 1.240 . S
O423 Co396 2.096 . S
O423 C404 1.247 . S
C424 O421 1.244 . S
C424 O422 1.240 . S
H425 C399 0.931 . S
H426 C408 0.931 . S
H427 C412 0.929 . S
H428 C414 0.930 . S
Co429 N433 2.148 . S
Co429 N439 2.128 . S
Co429 N449 2.194 . S
Co429 O454 2.351 . S
Co429 O455 2.155 . S
Co429 O456 2.096 . S
C430 N433 1.301 . S
C430 N434 1.328 . S
C430 H435 0.930 . S
C431 C432 1.333 . S
C431 N433 1.317 . S
C431 H436 0.930 . S
C432 C431 1.333 . S
C432 N434 1.350 . S
C432 H458 0.931 . S
N433 Co429 2.148 . S
N433 C430 1.301 . S
N433 C431 1.317 . S
N434 C430 1.328 . S
N434 C432 1.350 . S
H435 C430 0.930 . S
H436 C431 0.930 . S
C437 O438 1.224 . S
C437 O456 1.247 . S
O438 C437 1.224 . S
N439 Co429 2.128 . S
N439 C440 1.355 . S
N439 C442 1.311 . S
C440 N439 1.355 . S
C440 C441 1.363 . S
C440 H452 0.929 . S
C441 C440 1.363 . S
C441 N443 1.375 . S
C441 H459 0.931 . S
C442 N439 1.311 . S
C442 N443 1.347 . S
C442 H453 0.929 . S
N443 C441 1.375 . S
N443 C442 1.347 . S
C444 C447 1.365 . S
C444 N449 1.328 . S
C444 H450 0.929 . S
C445 C446 1.362 . S
C445 C448 1.378 . S
C445 H460 0.929 . S
C446 C445 1.362 . S
C446 C447 1.366 . S
C447 C444 1.365 . S
C447 C446 1.366 . S
C447 H461 0.930 . S
C448 C445 1.378 . S
C448 N449 1.315 . S
C448 H451 0.930 . S
N449 Co429 2.194 . S
N449 C444 1.328 . S
N449 C448 1.315 . S
H450 C444 0.929 . S
H451 C448 0.930 . S
H452 C440 0.929 . S
H453 C442 0.929 . S
O454 Co429 2.351 . S
O454 C457 1.244 . S
O455 Co429 2.155 . S
O455 C457 1.240 . S
O456 Co429 2.096 . S
O456 C437 1.247 . S
C457 O454 1.244 . S
C457 O455 1.240 . S
H458 C432 0.931 . S
H459 C441 0.931 . S
H460 C445 0.929 . S
H461 C447 0.930 . S
Co462 N466 2.148 . S
Co462 N472 2.128 . S
Co462 N482 2.194 . S
Co462 O487 2.351 . S
Co462 O488 2.155 . S
Co462 O489 2.096 . S
C463 N466 1.301 . S
C463 N467 1.328 . S
C463 H468 0.930 . S
C464 C465 1.333 . S
C464 N466 1.317 . S
C464 H469 0.930 . S
C465 C464 1.333 . S
C465 N467 1.350 . S
C465 H491 0.931 . S
N466 Co462 2.148 . S
N466 C463 1.301 . S
N466 C464 1.317 . S
N467 C463 1.328 . S
N467 C465 1.350 . S
H468 C463 0.930 . S
H469 C464 0.930 . S
C470 O471 1.224 . S
C470 O489 1.247 . S
O471 C470 1.224 . S
N472 Co462 2.128 . S
N472 C473 1.355 . S
N472 C475 1.311 . S
C473 N472 1.355 . S
C473 C474 1.363 . S
C473 H485 0.929 . S
C474 C473 1.363 . S
C474 N476 1.375 . S
C474 H492 0.931 . S
C475 N472 1.311 . S
C475 N476 1.347 . S
C475 H486 0.929 . S
N476 C474 1.375 . S
N476 C475 1.347 . S
C477 C480 1.365 . S
C477 N482 1.328 . S
C477 H483 0.929 . S
C478 C479 1.362 . S
C478 C481 1.378 . S
C478 H493 0.929 . S
C479 C478 1.362 . S
C479 C480 1.366 . S
C480 C477 1.365 . S
C480 C479 1.366 . S
C480 H494 0.930 . S
C481 C478 1.378 . S
C481 N482 1.315 . S
C481 H484 0.930 . S
N482 Co462 2.194 . S
N482 C477 1.328 . S
N482 C481 1.315 . S
H483 C477 0.929 . S
H484 C481 0.930 . S
H485 C473 0.929 . S
H486 C475 0.929 . S
O487 Co462 2.351 . S
O487 C490 1.244 . S
O488 Co462 2.155 . S
O488 C490 1.240 . S
O489 Co462 2.096 . S
O489 C470 1.247 . S
C490 O487 1.244 . S
C490 O488 1.240 . S
H491 C465 0.931 . S
H492 C474 0.931 . S
H493 C478 0.929 . S
H494 C480 0.930 . S
Co495 N499 2.148 . S
Co495 N505 2.128 . S
Co495 N515 2.194 . S
Co495 O520 2.351 . S
Co495 O521 2.155 . S
Co495 O522 2.096 . S
C496 N499 1.301 . S
C496 N500 1.328 . S
C496 H501 0.930 . S
C497 C498 1.333 . S
C497 N499 1.317 . S
C497 H502 0.930 . S
C498 C497 1.333 . S
C498 N500 1.350 . S
C498 H524 0.931 . S
N499 Co495 2.148 . S
N499 C496 1.301 . S
N499 C497 1.317 . S
N500 C496 1.328 . S
N500 C498 1.350 . S
H501 C496 0.930 . S
H502 C497 0.930 . S
C503 O504 1.224 . S
C503 O522 1.247 . S
O504 C503 1.224 . S
N505 Co495 2.128 . S
N505 C506 1.355 . S
N505 C508 1.311 . S
C506 N505 1.355 . S
C506 C507 1.363 . S
C506 H518 0.929 . S
C507 C506 1.363 . S
C507 N509 1.375 . S
C507 H525 0.931 . S
C508 N505 1.311 . S
C508 N509 1.347 . S
C508 H519 0.929 . S
N509 C507 1.375 . S
N509 C508 1.347 . S
C510 C513 1.365 . S
C510 N515 1.328 . S
C510 H516 0.929 . S
C511 C512 1.362 . S
C511 C514 1.378 . S
C511 H526 0.929 . S
C512 C511 1.362 . S
C512 C513 1.366 . S
C513 C510 1.365 . S
C513 C512 1.366 . S
C513 H527 0.930 . S
C514 C511 1.378 . S
C514 N515 1.315 . S
C514 H517 0.930 . S
N515 Co495 2.194 . S
N515 C510 1.328 . S
N515 C514 1.315 . S
H516 C510 0.929 . S
H517 C514 0.930 . S
H518 C506 0.929 . S
H519 C508 0.929 . S
O520 Co495 2.351 . S
O520 C523 1.244 . S
O521 Co495 2.155 . S
O521 C523 1.240 . S
O522 Co495 2.096 . S
O522 C503 1.247 . S
C523 O520 1.244 . S
C523 O521 1.240 . S
H524 C498 0.931 . S
H525 C507 0.931 . S
H526 C511 0.929 . S
H527 C513 0.930 . S
C528 C529 1.349 . S
C528 C530 1.327 . S
C528 H553 0.950 . S
C529 C528 1.349 . S
C529 C545 1.349 . S
C530 C528 1.327 . S
C530 C549 1.429 . S
C530 H554 0.950 . S
C531 C548 1.574 . S
C531 C550 1.368 . S
C531 H555 0.949 . S
H532 C536 0.949 . S
C533 C534 1.349 . S
C533 C535 1.327 . S
C533 H556 0.950 . S
C534 C533 1.349 . S
C534 C546 1.349 . S
C535 C533 1.327 . S
C535 C551 1.429 . S
C535 H557 0.950 . S
C536 H532 0.949 . S
C536 C544 1.574 . S
C536 C552 1.368 . S
H537 C545 0.950 . S
H538 C543 0.950 . S
H539 C544 0.949 . S
H540 C546 0.950 . S
H541 C547 0.950 . S
H542 C548 0.949 . S
C543 H538 0.950 . S
C543 C545 1.327 . S
C543 C549 1.429 . S
C544 C536 1.574 . S
C544 H539 0.949 . S
C544 C550 1.368 . S
C545 C529 1.349 . S
C545 H537 0.950 . S
C545 C543 1.327 . S
C546 C534 1.349 . S
C546 H540 0.950 . S
C546 C547 1.327 . S
C547 H541 0.950 . S
C547 C546 1.327 . S
C547 C551 1.429 . S
C548 C531 1.574 . S
C548 H542 0.949 . S
C548 C552 1.368 . S
C549 C530 1.429 . S
C549 C543 1.429 . S
C549 C550 1.523 . S
C550 C531 1.368 . S
C550 C544 1.368 . S
C550 C549 1.523 . S
C551 C535 1.429 . S
C551 C547 1.429 . S
C551 C552 1.523 . S
C552 C536 1.368 . S
C552 C548 1.368 . S
C552 C551 1.523 . S
H553 C528 0.950 . S
H554 C530 0.950 . S
H555 C531 0.949 . S
H556 C533 0.950 . S
H557 C535 0.950 . S
C558 C559 1.349 . S
C558 C560 1.327 . S
C558 H583 0.950 . S
C559 C558 1.349 . S
C559 C575 1.349 1_545 S
C560 C558 1.327 . S
C560 C579 1.429 . S
C560 H584 0.950 . S
C561 C578 1.574 . S
C561 C580 1.368 1_565 S
C561 H585 0.949 . S
H562 C566 0.949 . S
C563 C564 1.349 1_565 S
C563 C565 1.327 . S
C563 H586 0.950 . S
C564 C563 1.349 1_545 S
C564 C576 1.349 . S
C565 C563 1.327 . S
C565 C581 1.429 1_565 S
C565 H587 0.950 . S
C566 H562 0.949 . S
C566 C574 1.574 . S
C566 C582 1.368 . S
H567 C575 0.950 . S
H568 C573 0.950 . S
H569 C574 0.949 . S
H570 C576 0.950 . S
H571 C577 0.950 . S
H572 C578 0.949 . S
C573 H568 0.950 . S
C573 C575 1.327 . S
C573 C579 1.429 1_565 S
C574 C566 1.574 . S
C574 H569 0.949 . S
C574 C580 1.368 . S
C575 C559 1.349 1_565 S
C575 H567 0.950 . S
C575 C573 1.327 . S
C576 C564 1.349 . S
C576 H570 0.950 . S
C576 C577 1.327 . S
C577 H571 0.950 . S
C577 C576 1.327 . S
C577 C581 1.429 . S
C578 C561 1.574 . S
C578 H572 0.949 . S
C578 C582 1.368 1_565 S
C579 C560 1.429 . S
C579 C573 1.429 1_545 S
C579 C580 1.523 . S
C580 C561 1.368 1_545 S
C580 C574 1.368 . S
C580 C579 1.523 . S
C581 C565 1.429 1_545 S
C581 C577 1.429 . S
C581 C582 1.523 . S
C582 C566 1.368 . S
C582 C578 1.368 1_545 S
C582 C581 1.523 . S
H583 C558 0.950 . S
H584 C560 0.950 . S
H585 C561 0.949 . S
H586 C563 0.950 . S
H587 C565 0.950 . S
C588 C589 1.349 1_565 S
C588 C590 1.327 . S
C588 H613 0.950 . S
C589 C588 1.349 1_545 S
C589 C605 1.349 . S
C590 C588 1.327 . S
C590 C609 1.429 1_565 S
C590 H614 0.950 . S
C591 C608 1.574 . S
C591 C610 1.368 . S
C591 H615 0.949 . S
H592 C596 0.949 . S
C593 C594 1.349 . S
C593 C595 1.327 . S
C593 H616 0.950 . S
C594 C593 1.349 . S
C594 C606 1.349 1_545 S
C595 C593 1.327 . S
C595 C611 1.429 . S
C595 H617 0.950 . S
C596 H592 0.949 . S
C596 C604 1.574 . S
C596 C612 1.368 1_565 S
H597 C605 0.950 . S
H598 C603 0.950 . S
H599 C604 0.949 . S
H600 C606 0.950 . S
H601 C607 0.950 . S
H602 C608 0.949 . S
C603 H598 0.950 . S
C603 C605 1.327 . S
C603 C609 1.429 . S
C604 C596 1.574 . S
C604 H599 0.949 . S
C604 C610 1.368 1_565 S
C605 C589 1.349 . S
C605 H597 0.950 . S
C605 C603 1.327 . S
C606 C594 1.349 1_565 S
C606 H600 0.950 . S
C606 C607 1.327 . S
C607 H601 0.950 . S
C607 C606 1.327 . S
C607 C611 1.429 1_565 S
C608 C591 1.574 . S
C608 H602 0.949 . S
C608 C612 1.368 . S
C609 C590 1.429 1_545 S
C609 C603 1.429 . S
C609 C610 1.523 . S
C610 C591 1.368 . S
C610 C604 1.368 1_545 S
C610 C609 1.523 . S
C611 C595 1.429 . S
C611 C607 1.429 1_545 S
C611 C612 1.523 . S
C612 C596 1.368 1_545 S
C612 C608 1.368 . S
C612 C611 1.523 . S
H613 C588 0.950 . S
H614 C590 0.950 . S
H615 C591 0.949 . S
H616 C593 0.950 . S
H617 C595 0.950 . S
C618 C619 1.349 . S
C618 C620 1.327 . S
C618 H643 0.950 . S
C619 C618 1.349 . S
C619 C635 1.349 . S
C620 C618 1.327 . S
C620 C639 1.429 . S
C620 H644 0.950 . S
C621 C638 1.574 . S
C621 C640 1.368 . S
C621 H645 0.949 . S
H622 C626 0.949 . S
C623 C624 1.349 . S
C623 C625 1.327 . S
C623 H646 0.950 . S
C624 C623 1.349 . S
C624 C636 1.349 . S
C625 C623 1.327 . S
C625 C641 1.429 . S
C625 H647 0.950 . S
C626 H622 0.949 . S
C626 C634 1.574 . S
C626 C642 1.368 . S
H627 C635 0.950 . S
H628 C633 0.950 . S
H629 C634 0.949 . S
H630 C636 0.950 . S
H631 C637 0.950 . S
H632 C638 0.949 . S
C633 H628 0.950 . S
C633 C635 1.327 . S
C633 C639 1.429 . S
C634 C626 1.574 . S
C634 H629 0.949 . S
C634 C640 1.368 . S
C635 C619 1.349 . S
C635 H627 0.950 . S
C635 C633 1.327 . S
C636 C624 1.349 . S
C636 H630 0.950 . S
C636 C637 1.327 . S
C637 H631 0.950 . S
C637 C636 1.327 . S
C637 C641 1.429 . S
C638 C621 1.574 . S
C638 H632 0.949 . S
C638 C642 1.368 . S
C639 C620 1.429 . S
C639 C633 1.429 . S
C639 C640 1.523 . S
C640 C621 1.368 . S
C640 C634 1.368 . S
C640 C639 1.523 . S
C641 C625 1.429 . S
C641 C637 1.429 . S
C641 C642 1.523 . S
C642 C626 1.368 . S
C642 C638 1.368 . S
C642 C641 1.523 . S
H643 C618 0.950 . S
H644 C620 0.950 . S
H645 C621 0.949 . S
H646 C623 0.950 . S
H647 C625 0.950 . S
C648 C649 1.349 . S
C648 C650 1.327 . S
C648 H673 0.950 . S
C649 C648 1.349 . S
C649 C665 1.349 . S
C650 C648 1.327 . S
C650 C669 1.429 . S
C650 H674 0.950 . S
C651 C668 1.574 . S
C651 C670 1.368 . S
C651 H675 0.949 . S
H652 C656 0.949 . S
C653 C654 1.349 . S
C653 C655 1.327 . S
C653 H676 0.950 . S
C654 C653 1.349 . S
C654 C666 1.349 . S
C655 C653 1.327 . S
C655 C671 1.429 . S
C655 H677 0.950 . S
C656 H652 0.949 . S
C656 C664 1.574 . S
C656 C672 1.368 . S
H657 C665 0.950 . S
H658 C663 0.950 . S
H659 C664 0.949 . S
H660 C666 0.950 . S
H661 C667 0.950 . S
H662 C668 0.949 . S
C663 H658 0.950 . S
C663 C665 1.327 . S
C663 C669 1.429 . S
C664 C656 1.574 . S
C664 H659 0.949 . S
C664 C670 1.368 . S
C665 C649 1.349 . S
C665 H657 0.950 . S
C665 C663 1.327 . S
C666 C654 1.349 . S
C666 H660 0.950 . S
C666 C667 1.327 . S
C667 H661 0.950 . S
C667 C666 1.327 . S
C667 C671 1.429 . S
C668 C651 1.574 . S
C668 H662 0.949 . S
C668 C672 1.368 . S
C669 C650 1.429 . S
C669 C663 1.429 . S
C669 C670 1.523 . S
C670 C651 1.368 . S
C670 C664 1.368 . S
C670 C669 1.523 . S
C671 C655 1.429 . S
C671 C667 1.429 . S
C671 C672 1.523 . S
C672 C656 1.368 . S
C672 C668 1.368 . S
C672 C671 1.523 . S
H673 C648 0.950 . S
H674 C650 0.950 . S
H675 C651 0.949 . S
H676 C653 0.950 . S
H677 C655 0.950 . S
C678 C679 1.349 . S
C678 C680 1.327 . S
C678 H703 0.950 . S
C679 C678 1.349 . S
C679 C695 1.349 . S
C680 C678 1.327 . S
C680 C699 1.429 . S
C680 H704 0.950 . S
C681 C698 1.574 . S
C681 C700 1.368 . S
C681 H705 0.949 . S
H682 C686 0.949 . S
C683 C684 1.349 . S
C683 C685 1.327 . S
C683 H706 0.950 . S
C684 C683 1.349 . S
C684 C696 1.349 . S
C685 C683 1.327 . S
C685 C701 1.429 . S
C685 H707 0.950 . S
C686 H682 0.949 . S
C686 C694 1.574 . S
C686 C702 1.368 . S
H687 C695 0.950 . S
H688 C693 0.950 . S
H689 C694 0.949 . S
H690 C696 0.950 . S
H691 C697 0.950 . S
H692 C698 0.949 . S
C693 H688 0.950 . S
C693 C695 1.327 . S
C693 C699 1.429 . S
C694 C686 1.574 . S
C694 H689 0.949 . S
C694 C700 1.368 . S
C695 C679 1.349 . S
C695 H687 0.950 . S
C695 C693 1.327 . S
C696 C684 1.349 . S
C696 H690 0.950 . S
C696 C697 1.327 . S
C697 H691 0.950 . S
C697 C696 1.327 . S
C697 C701 1.429 . S
C698 C681 1.574 . S
C698 H692 0.949 . S
C698 C702 1.368 . S
C699 C680 1.429 . S
C699 C693 1.429 . S
C699 C700 1.523 . S
C700 C681 1.368 . S
C700 C694 1.368 . S
C700 C699 1.523 . S
C701 C685 1.429 . S
C701 C697 1.429 . S
C701 C702 1.523 . S
C702 C686 1.368 . S
C702 C698 1.368 . S
C702 C701 1.523 . S
H703 C678 0.950 . S
H704 C680 0.950 . S
H705 C681 0.949 . S
H706 C683 0.950 . S
H707 C685 0.950 . S
C708 C709 1.349 . S
C708 C710 1.327 . S
C708 H733 0.950 . S
C709 C708 1.349 . S
C709 C725 1.349 . S
C710 C708 1.327 . S
C710 C729 1.429 . S
C710 H734 0.950 . S
C711 C728 1.574 . S
C711 C730 1.368 . S
C711 H735 0.949 . S
H712 C716 0.949 . S
C713 C714 1.349 . S
C713 C715 1.327 . S
C713 H736 0.950 . S
C714 C713 1.349 . S
C714 C726 1.349 . S
C715 C713 1.327 . S
C715 C731 1.429 . S
C715 H737 0.950 . S
C716 H712 0.949 . S
C716 C724 1.574 . S
C716 C732 1.368 . S
H717 C725 0.950 . S
H718 C723 0.950 . S
H719 C724 0.949 . S
H720 C726 0.950 . S
H721 C727 0.950 . S
H722 C728 0.949 . S
C723 H718 0.950 . S
C723 C725 1.327 . S
C723 C729 1.429 . S
C724 C716 1.574 . S
C724 H719 0.949 . S
C724 C730 1.368 . S
C725 C709 1.349 . S
C725 H717 0.950 . S
C725 C723 1.327 . S
C726 C714 1.349 . S
C726 H720 0.950 . S
C726 C727 1.327 . S
C727 H721 0.950 . S
C727 C726 1.327 . S
C727 C731 1.429 . S
C728 C711 1.574 . S
C728 H722 0.949 . S
C728 C732 1.368 . S
C729 C710 1.429 . S
C729 C723 1.429 . S
C729 C730 1.523 . S
C730 C711 1.368 . S
C730 C724 1.368 . S
C730 C729 1.523 . S
C731 C715 1.429 . S
C731 C727 1.429 . S
C731 C732 1.523 . S
C732 C716 1.368 . S
C732 C728 1.368 . S
C732 C731 1.523 . S
H733 C708 0.950 . S
H734 C710 0.950 . S
H735 C711 0.949 . S
H736 C713 0.950 . S
H737 C715 0.950 . S
C738 C739 1.349 . S
C738 C740 1.327 . S
C738 H763 0.950 . S
C739 C738 1.349 . S
C739 C755 1.349 . S
C740 C738 1.327 . S
C740 C759 1.429 . S
C740 H764 0.950 . S
C741 C758 1.574 . S
C741 C760 1.368 . S
C741 H765 0.949 . S
H742 C746 0.949 . S
C743 C744 1.349 . S
C743 C745 1.327 . S
C743 H766 0.950 . S
C744 C743 1.349 . S
C744 C756 1.349 . S
C745 C743 1.327 . S
C745 C761 1.429 . S
C745 H767 0.950 . S
C746 H742 0.949 . S
C746 C754 1.574 . S
C746 C762 1.368 . S
H747 C755 0.950 . S
H748 C753 0.950 . S
H749 C754 0.949 . S
H750 C756 0.950 . S
H751 C757 0.950 . S
H752 C758 0.949 . S
C753 H748 0.950 . S
C753 C755 1.327 . S
C753 C759 1.429 . S
C754 C746 1.574 . S
C754 H749 0.949 . S
C754 C760 1.368 . S
C755 C739 1.349 . S
C755 H747 0.950 . S
C755 C753 1.327 . S
C756 C744 1.349 . S
C756 H750 0.950 . S
C756 C757 1.327 . S
C757 H751 0.950 . S
C757 C756 1.327 . S
C757 C761 1.429 . S
C758 C741 1.574 . S
C758 H752 0.949 . S
C758 C762 1.368 . S
C759 C740 1.429 . S
C759 C753 1.429 . S
C759 C760 1.523 . S
C760 C741 1.368 . S
C760 C754 1.368 . S
C760 C759 1.523 . S
C761 C745 1.429 . S
C761 C757 1.429 . S
C761 C762 1.523 . S
C762 C746 1.368 . S
C762 C758 1.368 . S
C762 C761 1.523 . S
H763 C738 0.950 . S
H764 C740 0.950 . S
H765 C741 0.949 . S
H766 C743 0.950 . S
H767 C745 0.950 . S
C768 C769 1.349 . S
C768 C770 1.327 . S
C768 H793 0.950 . S
C769 C768 1.349 . S
C769 C785 1.349 . S
C770 C768 1.327 . S
C770 C789 1.429 . S
C770 H794 0.950 . S
C771 C788 1.574 . S
C771 C790 1.368 . S
C771 H795 0.949 . S
H772 C776 0.949 . S
C773 C774 1.349 . S
C773 C775 1.327 . S
C773 H796 0.950 . S
C774 C773 1.349 . S
C774 C786 1.349 . S
C775 C773 1.327 . S
C775 C791 1.429 . S
C775 H797 0.950 . S
C776 H772 0.949 . S
C776 C784 1.574 . S
C776 C792 1.368 . S
H777 C785 0.950 . S
H778 C783 0.950 . S
H779 C784 0.949 . S
H780 C786 0.950 . S
H781 C787 0.950 . S
H782 C788 0.949 . S
C783 H778 0.950 . S
C783 C785 1.327 . S
C783 C789 1.429 . S
C784 C776 1.574 . S
C784 H779 0.949 . S
C784 C790 1.368 . S
C785 C769 1.349 . S
C785 H777 0.950 . S
C785 C783 1.327 . S
C786 C774 1.349 . S
C786 H780 0.950 . S
C786 C787 1.327 . S
C787 H781 0.950 . S
C787 C786 1.327 . S
C787 C791 1.429 . S
C788 C771 1.574 . S
C788 H782 0.949 . S
C788 C792 1.368 . S
C789 C770 1.429 . S
C789 C783 1.429 . S
C789 C790 1.523 . S
C790 C771 1.368 . S
C790 C784 1.368 . S
C790 C789 1.523 . S
C791 C775 1.429 . S
C791 C787 1.429 . S
C791 C792 1.523 . S
C792 C776 1.368 . S
C792 C788 1.368 . S
C792 C791 1.523 . S
H793 C768 0.950 . S
H794 C770 0.950 . S
H795 C771 0.949 . S
H796 C773 0.950 . S
H797 C775 0.950 . S
C798 C799 1.349 . S
C798 C800 1.327 . S
C798 H823 0.950 . S
C799 C798 1.349 . S
C799 C815 1.349 . S
C800 C798 1.327 . S
C800 C819 1.429 . S
C800 H824 0.950 . S
C801 C818 1.574 . S
C801 C820 1.368 . S
C801 H825 0.949 . S
H802 C806 0.949 . S
C803 C804 1.349 . S
C803 C805 1.327 . S
C803 H826 0.950 . S
C804 C803 1.349 . S
C804 C816 1.349 . S
C805 C803 1.327 . S
C805 C821 1.429 . S
C805 H827 0.950 . S
C806 H802 0.949 . S
C806 C814 1.574 . S
C806 C822 1.368 . S
H807 C815 0.950 . S
H808 C813 0.950 . S
H809 C814 0.949 . S
H810 C816 0.950 . S
H811 C817 0.950 . S
H812 C818 0.949 . S
C813 H808 0.950 . S
C813 C815 1.327 . S
C813 C819 1.429 . S
C814 C806 1.574 . S
C814 H809 0.949 . S
C814 C820 1.368 . S
C815 C799 1.349 . S
C815 H807 0.950 . S
C815 C813 1.327 . S
C816 C804 1.349 . S
C816 H810 0.950 . S
C816 C817 1.327 . S
C817 H811 0.950 . S
C817 C816 1.327 . S
C817 C821 1.429 . S
C818 C801 1.574 . S
C818 H812 0.949 . S
C818 C822 1.368 . S
C819 C800 1.429 . S
C819 C813 1.429 . S
C819 C820 1.523 . S
C820 C801 1.368 . S
C820 C814 1.368 . S
C820 C819 1.523 . S
C821 C805 1.429 . S
C821 C817 1.429 . S
C821 C822 1.523 . S
C822 C806 1.368 . S
C822 C818 1.368 . S
C822 C821 1.523 . S
H823 C798 0.950 . S
H824 C800 0.950 . S
H825 C801 0.949 . S
H826 C803 0.950 . S
H827 C805 0.950 . S
C828 C829 1.349 . S
C828 C830 1.327 . S
C828 H853 0.950 . S
C829 C828 1.349 . S
C829 C845 1.349 . S
C830 C828 1.327 . S
C830 C849 1.429 . S
C830 H854 0.950 . S
C831 C848 1.574 . S
C831 C850 1.368 . S
C831 H855 0.949 . S
H832 C836 0.949 . S
C833 C834 1.349 . S
C833 C835 1.327 . S
C833 H856 0.950 . S
C834 C833 1.349 . S
C834 C846 1.349 . S
C835 C833 1.327 . S
C835 C851 1.429 . S
C835 H857 0.950 . S
C836 H832 0.949 . S
C836 C844 1.574 . S
C836 C852 1.368 . S
H837 C845 0.950 . S
H838 C843 0.950 . S
H839 C844 0.949 . S
H840 C846 0.950 . S
H841 C847 0.950 . S
H842 C848 0.949 . S
C843 H838 0.950 . S
C843 C845 1.327 . S
C843 C849 1.429 . S
C844 C836 1.574 . S
C844 H839 0.949 . S
C844 C850 1.368 . S
C845 C829 1.349 . S
C845 H837 0.950 . S
C845 C843 1.327 . S
C846 C834 1.349 . S
C846 H840 0.950 . S
C846 C847 1.327 . S
C847 H841 0.950 . S
C847 C846 1.327 . S
C847 C851 1.429 . S
C848 C831 1.574 . S
C848 H842 0.949 . S
C848 C852 1.368 . S
C849 C830 1.429 . S
C849 C843 1.429 . S
C849 C850 1.523 . S
C850 C831 1.368 . S
C850 C844 1.368 . S
C850 C849 1.523 . S
C851 C835 1.429 . S
C851 C847 1.429 . S
C851 C852 1.523 . S
C852 C836 1.368 . S
C852 C848 1.368 . S
C852 C851 1.523 . S
H853 C828 0.950 . S
H854 C830 0.950 . S
H855 C831 0.949 . S
H856 C833 0.950 . S
H857 C835 0.950 . S
C858 C859 1.349 . S
C858 C860 1.327 . S
C858 H883 0.950 . S
C859 C858 1.349 . S
C859 C875 1.349 . S
C860 C858 1.327 . S
C860 C879 1.429 . S
C860 H884 0.950 . S
C861 C878 1.574 . S
C861 C880 1.368 . S
C861 H885 0.949 . S
H862 C866 0.949 . S
C863 C864 1.349 . S
C863 C865 1.327 . S
C863 H886 0.950 . S
C864 C863 1.349 . S
C864 C876 1.349 . S
C865 C863 1.327 . S
C865 C881 1.429 . S
C865 H887 0.950 . S
C866 H862 0.949 . S
C866 C874 1.574 . S
C866 C882 1.368 . S
H867 C875 0.950 . S
H868 C873 0.950 . S
H869 C874 0.949 . S
H870 C876 0.950 . S
H871 C877 0.950 . S
H872 C878 0.949 . S
C873 H868 0.950 . S
C873 C875 1.327 . S
C873 C879 1.429 . S
C874 C866 1.574 . S
C874 H869 0.949 . S
C874 C880 1.368 . S
C875 C859 1.349 . S
C875 H867 0.950 . S
C875 C873 1.327 . S
C876 C864 1.349 . S
C876 H870 0.950 . S
C876 C877 1.327 . S
C877 H871 0.950 . S
C877 C876 1.327 . S
C877 C881 1.429 . S
C878 C861 1.574 . S
C878 H872 0.949 . S
C878 C882 1.368 . S
C879 C860 1.429 . S
C879 C873 1.429 . S
C879 C880 1.523 . S
C880 C861 1.368 . S
C880 C874 1.368 . S
C880 C879 1.523 . S
C881 C865 1.429 . S
C881 C877 1.429 . S
C881 C882 1.523 . S
C882 C866 1.368 . S
C882 C878 1.368 . S
C882 C881 1.523 . S
H883 C858 0.950 . S
H884 C860 0.950 . S
H885 C861 0.949 . S
H886 C863 0.950 . S
H887 C865 0.950 . S
C888 C889 1.349 . S
C888 C890 1.327 . S
C888 H913 0.950 . S
C889 C888 1.349 . S
C889 C905 1.349 . S
C890 C888 1.327 . S
C890 C909 1.429 . S
C890 H914 0.950 . S
C891 C908 1.574 . S
C891 C910 1.368 . S
C891 H915 0.949 . S
H892 C896 0.949 . S
C893 C894 1.349 . S
C893 C895 1.327 . S
C893 H916 0.950 . S
C894 C893 1.349 . S
C894 C906 1.349 . S
C895 C893 1.327 . S
C895 C911 1.429 . S
C895 H917 0.950 . S
C896 H892 0.949 . S
C896 C904 1.574 . S
C896 C912 1.368 . S
H897 C905 0.950 . S
H898 C903 0.950 . S
H899 C904 0.949 . S
H900 C906 0.950 . S
H901 C907 0.950 . S
H902 C908 0.949 . S
C903 H898 0.950 . S
C903 C905 1.327 . S
C903 C909 1.429 . S
C904 C896 1.574 . S
C904 H899 0.949 . S
C904 C910 1.368 . S
C905 C889 1.349 . S
C905 H897 0.950 . S
C905 C903 1.327 . S
C906 C894 1.349 . S
C906 H900 0.950 . S
C906 C907 1.327 . S
C907 H901 0.950 . S
C907 C906 1.327 . S
C907 C911 1.429 . S
C908 C891 1.574 . S
C908 H902 0.949 . S
C908 C912 1.368 . S
C909 C890 1.429 . S
C909 C903 1.429 . S
C909 C910 1.523 . S
C910 C891 1.368 . S
C910 C904 1.368 . S
C910 C909 1.523 . S
C911 C895 1.429 . S
C911 C907 1.429 . S
C911 C912 1.523 . S
C912 C896 1.368 . S
C912 C908 1.368 . S
C912 C911 1.523 . S
H913 C888 0.950 . S
H914 C890 0.950 . S
H915 C891 0.949 . S
H916 C893 0.950 . S
H917 C895 0.950 . S
C918 C919 1.349 . S
C918 C920 1.327 . S
C918 H943 0.950 . S
C919 C918 1.349 . S
C919 C935 1.349 . S
C920 C918 1.327 . S
C920 C939 1.429 . S
C920 H944 0.950 . S
C921 C938 1.574 . S
C921 C940 1.368 . S
C921 H945 0.949 . S
H922 C926 0.949 . S
C923 C924 1.349 . S
C923 C925 1.327 . S
C923 H946 0.950 . S
C924 C923 1.349 . S
C924 C936 1.349 . S
C925 C923 1.327 . S
C925 C941 1.429 . S
C925 H947 0.950 . S
C926 H922 0.949 . S
C926 C934 1.574 . S
C926 C942 1.368 . S
H927 C935 0.950 . S
H928 C933 0.950 . S
H929 C934 0.949 . S
H930 C936 0.950 . S
H931 C937 0.950 . S
H932 C938 0.949 . S
C933 H928 0.950 . S
C933 C935 1.327 . S
C933 C939 1.429 . S
C934 C926 1.574 . S
C934 H929 0.949 . S
C934 C940 1.368 . S
C935 C919 1.349 . S
C935 H927 0.950 . S
C935 C933 1.327 . S
C936 C924 1.349 . S
C936 H930 0.950 . S
C936 C937 1.327 . S
C937 H931 0.950 . S
C937 C936 1.327 . S
C937 C941 1.429 . S
C938 C921 1.574 . S
C938 H932 0.949 . S
C938 C942 1.368 . S
C939 C920 1.429 . S
C939 C933 1.429 . S
C939 C940 1.523 . S
C940 C921 1.368 . S
C940 C934 1.368 . S
C940 C939 1.523 . S
C941 C925 1.429 . S
C941 C937 1.429 . S
C941 C942 1.523 . S
C942 C926 1.368 . S
C942 C938 1.368 . S
C942 C941 1.523 . S
H943 C918 0.950 . S
H944 C920 0.950 . S
H945 C921 0.949 . S
H946 C923 0.950 . S
H947 C925 0.950 . S
C948 C949 1.349 . S
C948 C950 1.327 . S
C948 H973 0.950 . S
C949 C948 1.349 . S
C949 C965 1.349 . S
C950 C948 1.327 . S
C950 C969 1.429 . S
C950 H974 0.950 . S
C951 C968 1.574 . S
C951 C970 1.368 . S
C951 H975 0.949 . S
H952 C956 0.949 . S
C953 C954 1.349 . S
C953 C955 1.327 . S
C953 H976 0.950 . S
C954 C953 1.349 . S
C954 C966 1.349 . S
C955 C953 1.327 . S
C955 C971 1.429 . S
C955 H977 0.950 . S
C956 H952 0.949 . S
C956 C964 1.574 . S
C956 C972 1.368 . S
H957 C965 0.950 . S
H958 C963 0.950 . S
H959 C964 0.949 . S
H960 C966 0.950 . S
H961 C967 0.950 . S
H962 C968 0.949 . S
C963 H958 0.950 . S
C963 C965 1.327 . S
C963 C969 1.429 . S
C964 C956 1.574 . S
C964 H959 0.949 . S
C964 C970 1.368 . S
C965 C949 1.349 . S
C965 H957 0.950 . S
C965 C963 1.327 . S
C966 C954 1.349 . S
C966 H960 0.950 . S
C966 C967 1.327 . S
C967 H961 0.950 . S
C967 C966 1.327 . S
C967 C971 1.429 . S
C968 C951 1.574 . S
C968 H962 0.949 . S
C968 C972 1.368 . S
C969 C950 1.429 . S
C969 C963 1.429 . S
C969 C970 1.523 . S
C970 C951 1.368 . S
C970 C964 1.368 . S
C970 C969 1.523 . S
C971 C955 1.429 . S
C971 C967 1.429 . S
C971 C972 1.523 . S
C972 C956 1.368 . S
C972 C968 1.368 . S
C972 C971 1.523 . S
H973 C948 0.950 . S
H974 C950 0.950 . S
H975 C951 0.949 . S
H976 C953 0.950 . S
H977 C955 0.950 . S
C978 C979 1.349 . S
C978 C980 1.327 . S
C978 H1003 0.950 . S
C979 C978 1.349 . S
C979 C995 1.349 . S
C980 C978 1.327 . S
C980 C999 1.429 . S
C980 H1004 0.950 . S
C981 C998 1.574 . S
C981 C1000 1.368 . S
C981 H1005 0.949 . S
H982 C986 0.949 . S
C983 C984 1.349 . S
C983 C985 1.327 . S
C983 H1006 0.950 . S
C984 C983 1.349 . S
C984 C996 1.349 . S
C985 C983 1.327 . S
C985 C1001 1.429 . S
C985 H1007 0.950 . S
C986 H982 0.949 . S
C986 C994 1.574 . S
C986 C1002 1.368 . S
H987 C995 0.950 . S
H988 C993 0.950 . S
H989 C994 0.949 . S
H990 C996 0.950 . S
H991 C997 0.950 . S
H992 C998 0.949 . S
C993 H988 0.950 . S
C993 C995 1.327 . S
C993 C999 1.429 . S
C994 C986 1.574 . S
C994 H989 0.949 . S
C994 C1000 1.368 . S
C995 C979 1.349 . S
C995 H987 0.950 . S
C995 C993 1.327 . S
C996 C984 1.349 . S
C996 H990 0.950 . S
C996 C997 1.327 . S
C997 H991 0.950 . S
C997 C996 1.327 . S
C997 C1001 1.429 . S
C998 C981 1.574 . S
C998 H992 0.949 . S
C998 C1002 1.368 . S
C999 C980 1.429 . S
C999 C993 1.429 . S
C999 C1000 1.523 . S
C1000 C981 1.368 . S
C1000 C994 1.368 . S
C1000 C999 1.523 . S
C1001 C985 1.429 . S
C1001 C997 1.429 . S
C1001 C1002 1.523 . S
C1002 C986 1.368 . S
C1002 C998 1.368 . S
C1002 C1001 1.523 . S
H1003 C978 0.950 . S
H1004 C980 0.950 . S
H1005 C981 0.949 . S
H1006 C983 0.950 . S
H1007 C985 0.950 . S
C1008 C1009 1.349 . S
C1008 C1010 1.327 . S
C1008 H1033 0.950 . S
C1009 C1008 1.349 . S
C1009 C1025 1.349 . S
C1010 C1008 1.327 . S
C1010 C1029 1.429 . S
C1010 H1034 0.950 . S
C1011 C1028 1.574 . S
C1011 C1030 1.368 . S
C1011 H1035 0.949 . S
H1012 C1016 0.949 . S
C1013 C1014 1.349 . S
C1013 C1015 1.327 . S
C1013 H1036 0.950 . S
C1014 C1013 1.349 . S
C1014 C1026 1.349 . S
C1015 C1013 1.327 . S
C1015 C1031 1.429 . S
C1015 H1037 0.950 . S
C1016 H1012 0.949 . S
C1016 C1024 1.574 . S
C1016 C1032 1.368 . S
H1017 C1025 0.950 . S
H1018 C1023 0.950 . S
H1019 C1024 0.949 . S
H1020 C1026 0.950 . S
H1021 C1027 0.950 . S
H1022 C1028 0.949 . S
C1023 H1018 0.950 . S
C1023 C1025 1.327 . S
C1023 C1029 1.429 . S
C1024 C1016 1.574 . S
C1024 H1019 0.949 . S
C1024 C1030 1.368 . S
C1025 C1009 1.349 . S
C1025 H1017 0.950 . S
C1025 C1023 1.327 . S
C1026 C1014 1.349 . S
C1026 H1020 0.950 . S
C1026 C1027 1.327 . S
C1027 H1021 0.950 . S
C1027 C1026 1.327 . S
C1027 C1031 1.429 . S
C1028 C1011 1.574 . S
C1028 H1022 0.949 . S
C1028 C1032 1.368 . S
C1029 C1010 1.429 . S
C1029 C1023 1.429 . S
C1029 C1030 1.523 . S
C1030 C1011 1.368 . S
C1030 C1024 1.368 . S
C1030 C1029 1.523 . S
C1031 C1015 1.429 . S
C1031 C1027 1.429 . S
C1031 C1032 1.523 . S
C1032 C1016 1.368 . S
C1032 C1028 1.368 . S
C1032 C1031 1.523 . S
H1033 C1008 0.950 . S
H1034 C1010 0.950 . S
H1035 C1011 0.949 . S
H1036 C1013 0.950 . S
H1037 C1015 0.950 . S
C1038 C1039 1.349 . S
C1038 C1040 1.327 . S
C1038 H1063 0.950 . S
C1039 C1038 1.349 . S
C1039 C1055 1.349 . S
C1040 C1038 1.327 . S
C1040 C1059 1.429 . S
C1040 H1064 0.950 . S
C1041 C1058 1.574 . S
C1041 C1060 1.368 . S
C1041 H1065 0.949 . S
H1042 C1046 0.949 . S
C1043 C1044 1.349 . S
C1043 C1045 1.327 . S
C1043 H1066 0.950 . S
C1044 C1043 1.349 . S
C1044 C1056 1.349 . S
C1045 C1043 1.327 . S
C1045 C1061 1.429 . S
C1045 H1067 0.950 . S
C1046 H1042 0.949 . S
C1046 C1054 1.574 . S
C1046 C1062 1.368 . S
H1047 C1055 0.950 . S
H1048 C1053 0.950 . S
H1049 C1054 0.949 . S
H1050 C1056 0.950 . S
H1051 C1057 0.950 . S
H1052 C1058 0.949 . S
C1053 H1048 0.950 . S
C1053 C1055 1.327 . S
C1053 C1059 1.429 . S
C1054 C1046 1.574 . S
C1054 H1049 0.949 . S
C1054 C1060 1.368 . S
C1055 C1039 1.349 . S
C1055 H1047 0.950 . S
C1055 C1053 1.327 . S
C1056 C1044 1.349 . S
C1056 H1050 0.950 . S
C1056 C1057 1.327 . S
C1057 H1051 0.950 . S
C1057 C1056 1.327 . S
C1057 C1061 1.429 . S
C1058 C1041 1.574 . S
C1058 H1052 0.949 . S
C1058 C1062 1.368 . S
C1059 C1040 1.429 . S
C1059 C1053 1.429 . S
C1059 C1060 1.523 . S
C1060 C1041 1.368 . S
C1060 C1054 1.368 . S
C1060 C1059 1.523 . S
C1061 C1045 1.429 . S
C1061 C1057 1.429 . S
C1061 C1062 1.523 . S
C1062 C1046 1.368 . S
C1062 C1058 1.368 . S
C1062 C1061 1.523 . S
H1063 C1038 0.950 . S
H1064 C1040 0.950 . S
H1065 C1041 0.949 . S
H1066 C1043 0.950 . S
H1067 C1045 0.950 . S
C1068 C1069 1.349 . S
C1068 C1070 1.327 . S
C1068 H1093 0.950 . S
C1069 C1068 1.349 . S
C1069 C1085 1.349 . S
C1070 C1068 1.327 . S
C1070 C1089 1.429 . S
C1070 H1094 0.950 . S
C1071 C1088 1.574 . S
C1071 C1090 1.368 . S
C1071 H1095 0.949 . S
H1072 C1076 0.949 . S
C1073 C1074 1.349 . S
C1073 C1075 1.327 . S
C1073 H1096 0.950 . S
C1074 C1073 1.349 . S
C1074 C1086 1.349 . S
C1075 C1073 1.327 . S
C1075 C1091 1.429 . S
C1075 H1097 0.950 . S
C1076 H1072 0.949 . S
C1076 C1084 1.574 . S
C1076 C1092 1.368 . S
H1077 C1085 0.950 . S
H1078 C1083 0.950 . S
H1079 C1084 0.949 . S
H1080 C1086 0.950 . S
H1081 C1087 0.950 . S
H1082 C1088 0.949 . S
C1083 H1078 0.950 . S
C1083 C1085 1.327 . S
C1083 C1089 1.429 . S
C1084 C1076 1.574 . S
C1084 H1079 0.949 . S
C1084 C1090 1.368 . S
C1085 C1069 1.349 . S
C1085 H1077 0.950 . S
C1085 C1083 1.327 . S
C1086 C1074 1.349 . S
C1086 H1080 0.950 . S
C1086 C1087 1.327 . S
C1087 H1081 0.950 . S
C1087 C1086 1.327 . S
C1087 C1091 1.429 . S
C1088 C1071 1.574 . S
C1088 H1082 0.949 . S
C1088 C1092 1.368 . S
C1089 C1070 1.429 . S
C1089 C1083 1.429 . S
C1089 C1090 1.523 . S
C1090 C1071 1.368 . S
C1090 C1084 1.368 . S
C1090 C1089 1.523 . S
C1091 C1075 1.429 . S
C1091 C1087 1.429 . S
C1091 C1092 1.523 . S
C1092 C1076 1.368 . S
C1092 C1088 1.368 . S
C1092 C1091 1.523 . S
H1093 C1068 0.950 . S
H1094 C1070 0.950 . S
H1095 C1071 0.949 . S
H1096 C1073 0.950 . S
H1097 C1075 0.950 . S
C1098 C1099 1.349 . S
C1098 C1100 1.327 . S
C1098 H1123 0.950 . S
C1099 C1098 1.349 . S
C1099 C1115 1.349 . S
C1100 C1098 1.327 . S
C1100 C1119 1.429 . S
C1100 H1124 0.950 . S
C1101 C1118 1.574 . S
C1101 C1120 1.368 . S
C1101 H1125 0.949 . S
H1102 C1106 0.949 . S
C1103 C1104 1.349 . S
C1103 C1105 1.327 . S
C1103 H1126 0.950 . S
C1104 C1103 1.349 . S
C1104 C1116 1.349 . S
C1105 C1103 1.327 . S
C1105 C1121 1.429 . S
C1105 H1127 0.950 . S
C1106 H1102 0.949 . S
C1106 C1114 1.574 . S
C1106 C1122 1.368 . S
H1107 C1115 0.950 . S
H1108 C1113 0.950 . S
H1109 C1114 0.949 . S
H1110 C1116 0.950 . S
H1111 C1117 0.950 . S
H1112 C1118 0.949 . S
C1113 H1108 0.950 . S
C1113 C1115 1.327 . S
C1113 C1119 1.429 . S
C1114 C1106 1.574 . S
C1114 H1109 0.949 . S
C1114 C1120 1.368 . S
C1115 C1099 1.349 . S
C1115 H1107 0.950 . S
C1115 C1113 1.327 . S
C1116 C1104 1.349 . S
C1116 H1110 0.950 . S
C1116 C1117 1.327 . S
C1117 H1111 0.950 . S
C1117 C1116 1.327 . S
C1117 C1121 1.429 . S
C1118 C1101 1.574 . S
C1118 H1112 0.949 . S
C1118 C1122 1.368 . S
C1119 C1100 1.429 . S
C1119 C1113 1.429 . S
C1119 C1120 1.523 . S
C1120 C1101 1.368 . S
C1120 C1114 1.368 . S
C1120 C1119 1.523 . S
C1121 C1105 1.429 . S
C1121 C1117 1.429 . S
C1121 C1122 1.523 . S
C1122 C1106 1.368 . S
C1122 C1118 1.368 . S
C1122 C1121 1.523 . S
H1123 C1098 0.950 . S
H1124 C1100 0.950 . S
H1125 C1101 0.949 . S
H1126 C1103 0.950 . S
H1127 C1105 0.950 . S
C1128 C1129 1.349 . S
C1128 C1130 1.327 . S
C1128 H1153 0.950 . S
C1129 C1128 1.349 . S
C1129 C1145 1.349 . S
C1130 C1128 1.327 . S
C1130 C1149 1.429 . S
C1130 H1154 0.950 . S
C1131 C1148 1.574 . S
C1131 C1150 1.368 . S
C1131 H1155 0.949 . S
H1132 C1136 0.949 . S
C1133 C1134 1.349 . S
C1133 C1135 1.327 . S
C1133 H1156 0.950 . S
C1134 C1133 1.349 . S
C1134 C1146 1.349 . S
C1135 C1133 1.327 . S
C1135 C1151 1.429 . S
C1135 H1157 0.950 . S
C1136 H1132 0.949 . S
C1136 C1144 1.574 . S
C1136 C1152 1.368 . S
H1137 C1145 0.950 . S
H1138 C1143 0.950 . S
H1139 C1144 0.949 . S
H1140 C1146 0.950 . S
H1141 C1147 0.950 . S
H1142 C1148 0.949 . S
C1143 H1138 0.950 . S
C1143 C1145 1.327 . S
C1143 C1149 1.429 . S
C1144 C1136 1.574 . S
C1144 H1139 0.949 . S
C1144 C1150 1.368 . S
C1145 C1129 1.349 . S
C1145 H1137 0.950 . S
C1145 C1143 1.327 . S
C1146 C1134 1.349 . S
C1146 H1140 0.950 . S
C1146 C1147 1.327 . S
C1147 H1141 0.950 . S
C1147 C1146 1.327 . S
C1147 C1151 1.429 . S
C1148 C1131 1.574 . S
C1148 H1142 0.949 . S
C1148 C1152 1.368 . S
C1149 C1130 1.429 . S
C1149 C1143 1.429 . S
C1149 C1150 1.523 . S
C1150 C1131 1.368 . S
C1150 C1144 1.368 . S
C1150 C1149 1.523 . S
C1151 C1135 1.429 . S
C1151 C1147 1.429 . S
C1151 C1152 1.523 . S
C1152 C1136 1.368 . S
C1152 C1148 1.368 . S
C1152 C1151 1.523 . S
H1153 C1128 0.950 . S
H1154 C1130 0.950 . S
H1155 C1131 0.949 . S
H1156 C1133 0.950 . S
H1157 C1135 0.950 . S
C1158 C1159 1.349 . S
C1158 C1160 1.327 . S
C1158 H1183 0.950 . S
C1159 C1158 1.349 . S
C1159 C1175 1.349 . S
C1160 C1158 1.327 . S
C1160 C1179 1.429 . S
C1160 H1184 0.950 . S
C1161 C1178 1.574 . S
C1161 C1180 1.368 . S
C1161 H1185 0.949 . S
H1162 C1166 0.949 . S
C1163 C1164 1.349 . S
C1163 C1165 1.327 . S
C1163 H1186 0.950 . S
C1164 C1163 1.349 . S
C1164 C1176 1.349 . S
C1165 C1163 1.327 . S
C1165 C1181 1.429 . S
C1165 H1187 0.950 . S
C1166 H1162 0.949 . S
C1166 C1174 1.574 . S
C1166 C1182 1.368 . S
H1167 C1175 0.950 . S
H1168 C1173 0.950 . S
H1169 C1174 0.949 . S
H1170 C1176 0.950 . S
H1171 C1177 0.950 . S
H1172 C1178 0.949 . S
C1173 H1168 0.950 . S
C1173 C1175 1.327 . S
C1173 C1179 1.429 . S
C1174 C1166 1.574 . S
C1174 H1169 0.949 . S
C1174 C1180 1.368 . S
C1175 C1159 1.349 . S
C1175 H1167 0.950 . S
C1175 C1173 1.327 . S
C1176 C1164 1.349 . S
C1176 H1170 0.950 . S
C1176 C1177 1.327 . S
C1177 H1171 0.950 . S
C1177 C1176 1.327 . S
C1177 C1181 1.429 . S
C1178 C1161 1.574 . S
C1178 H1172 0.949 . S
C1178 C1182 1.368 . S
C1179 C1160 1.429 . S
C1179 C1173 1.429 . S
C1179 C1180 1.523 . S
C1180 C1161 1.368 . S
C1180 C1174 1.368 . S
C1180 C1179 1.523 . S
C1181 C1165 1.429 . S
C1181 C1177 1.429 . S
C1181 C1182 1.523 . S
C1182 C1166 1.368 . S
C1182 C1178 1.368 . S
C1182 C1181 1.523 . S
H1183 C1158 0.950 . S
H1184 C1160 0.950 . S
H1185 C1161 0.949 . S
H1186 C1163 0.950 . S
H1187 C1165 0.950 . S
C1188 C1189 1.349 . S
C1188 C1190 1.327 . S
C1188 H1213 0.950 . S
C1189 C1188 1.349 . S
C1189 C1205 1.349 . S
C1190 C1188 1.327 . S
C1190 C1209 1.429 . S
C1190 H1214 0.950 . S
C1191 C1208 1.574 . S
C1191 C1210 1.368 . S
C1191 H1215 0.949 . S
H1192 C1196 0.949 . S
C1193 C1194 1.349 . S
C1193 C1195 1.327 . S
C1193 H1216 0.950 . S
C1194 C1193 1.349 . S
C1194 C1206 1.349 . S
C1195 C1193 1.327 . S
C1195 C1211 1.429 . S
C1195 H1217 0.950 . S
C1196 H1192 0.949 . S
C1196 C1204 1.574 . S
C1196 C1212 1.368 . S
H1197 C1205 0.950 . S
H1198 C1203 0.950 . S
H1199 C1204 0.949 . S
H1200 C1206 0.950 . S
H1201 C1207 0.950 . S
H1202 C1208 0.949 . S
C1203 H1198 0.950 . S
C1203 C1205 1.327 . S
C1203 C1209 1.429 . S
C1204 C1196 1.574 . S
C1204 H1199 0.949 . S
C1204 C1210 1.368 . S
C1205 C1189 1.349 . S
C1205 H1197 0.950 . S
C1205 C1203 1.327 . S
C1206 C1194 1.349 . S
C1206 H1200 0.950 . S
C1206 C1207 1.327 . S
C1207 H1201 0.950 . S
C1207 C1206 1.327 . S
C1207 C1211 1.429 . S
C1208 C1191 1.574 . S
C1208 H1202 0.949 . S
C1208 C1212 1.368 . S
C1209 C1190 1.429 . S
C1209 C1203 1.429 . S
C1209 C1210 1.523 . S
C1210 C1191 1.368 . S
C1210 C1204 1.368 . S
C1210 C1209 1.523 . S
C1211 C1195 1.429 . S
C1211 C1207 1.429 . S
C1211 C1212 1.523 . S
C1212 C1196 1.368 . S
C1212 C1208 1.368 . S
C1212 C1211 1.523 . S
H1213 C1188 0.950 . S
H1214 C1190 0.950 . S
H1215 C1191 0.949 . S
H1216 C1193 0.950 . S
H1217 C1195 0.950 . S
C1218 C1219 1.349 . S
C1218 C1220 1.327 . S
C1218 H1243 0.950 . S
C1219 C1218 1.349 . S
C1219 C1235 1.349 . S
C1220 C1218 1.327 . S
C1220 C1239 1.429 . S
C1220 H1244 0.950 . S
C1221 C1238 1.574 . S
C1221 C1240 1.368 . S
C1221 H1245 0.949 . S
H1222 C1226 0.949 . S
C1223 C1224 1.349 . S
C1223 C1225 1.327 . S
C1223 H1246 0.950 . S
C1224 C1223 1.349 . S
C1224 C1236 1.349 . S
C1225 C1223 1.327 . S
C1225 C1241 1.429 . S
C1225 H1247 0.950 . S
C1226 H1222 0.949 . S
C1226 C1234 1.574 . S
C1226 C1242 1.368 . S
H1227 C1235 0.950 . S
H1228 C1233 0.950 . S
H1229 C1234 0.949 . S
H1230 C1236 0.950 . S
H1231 C1237 0.950 . S
H1232 C1238 0.949 . S
C1233 H1228 0.950 . S
C1233 C1235 1.327 . S
C1233 C1239 1.429 . S
C1234 C1226 1.574 . S
C1234 H1229 0.949 . S
C1234 C1240 1.368 . S
C1235 C1219 1.349 . S
C1235 H1227 0.950 . S
C1235 C1233 1.327 . S
C1236 C1224 1.349 . S
C1236 H1230 0.950 . S
C1236 C1237 1.327 . S
C1237 H1231 0.950 . S
C1237 C1236 1.327 . S
C1237 C1241 1.429 . S
C1238 C1221 1.574 . S
C1238 H1232 0.949 . S
C1238 C1242 1.368 . S
C1239 C1220 1.429 . S
C1239 C1233 1.429 . S
C1239 C1240 1.523 . S
C1240 C1221 1.368 . S
C1240 C1234 1.368 . S
C1240 C1239 1.523 . S
C1241 C1225 1.429 . S
C1241 C1237 1.429 . S
C1241 C1242 1.523 . S
C1242 C1226 1.368 . S
C1242 C1238 1.368 . S
C1242 C1241 1.523 . S
H1243 C1218 0.950 . S
H1244 C1220 0.950 . S
H1245 C1221 0.949 . S
H1246 C1223 0.950 . S
H1247 C1225 0.950 . S
C1248 C1249 1.349 . S
C1248 C1250 1.327 . S
C1248 H1273 0.950 . S
C1249 C1248 1.349 . S
C1249 C1265 1.349 . S
C1250 C1248 1.327 . S
C1250 C1269 1.429 . S
C1250 H1274 0.950 . S
C1251 C1268 1.574 1_655 S
C1251 C1270 1.368 . S
C1251 H1275 0.949 1_545 S
H1252 C1256 0.949 . S
C1253 C1254 1.349 . S
C1253 C1255 1.327 . S
C1253 H1276 0.950 . S
C1254 C1253 1.349 . S
C1254 C1266 1.349 . S
C1255 C1253 1.327 . S
C1255 C1271 1.429 . S
C1255 H1277 0.950 . S
C1256 H1252 0.949 . S
C1256 C1264 1.574 1_455 S
C1256 C1272 1.368 . S
H1257 C1265 0.950 1_565 S
H1258 C1263 0.950 1_565 S
H1259 C1264 0.949 . S
H1260 C1266 0.950 . S
H1261 C1267 0.950 . S
H1262 C1268 0.949 . S
C1263 H1258 0.950 1_545 S
C1263 C1265 1.327 . S
C1263 C1269 1.429 . S
C1264 C1256 1.574 1_655 S
C1264 H1259 0.949 . S
C1264 C1270 1.368 . S
C1265 C1249 1.349 . S
C1265 H1257 0.950 1_545 S
C1265 C1263 1.327 . S
C1266 C1254 1.349 . S
C1266 H1260 0.950 . S
C1266 C1267 1.327 . S
C1267 H1261 0.950 . S
C1267 C1266 1.327 . S
C1267 C1271 1.429 . S
C1268 C1251 1.574 1_455 S
C1268 H1262 0.949 . S
C1268 C1272 1.368 . S
C1269 C1250 1.429 . S
C1269 C1263 1.429 . S
C1269 C1270 1.523 . S
C1270 C1251 1.368 . S
C1270 C1264 1.368 . S
C1270 C1269 1.523 . S
C1271 C1255 1.429 . S
C1271 C1267 1.429 . S
C1271 C1272 1.523 . S
C1272 C1256 1.368 . S
C1272 C1268 1.368 . S
C1272 C1271 1.523 . S
H1273 C1248 0.950 . S
H1274 C1250 0.950 . S
H1275 C1251 0.949 1_565 S
H1276 C1253 0.950 . S
H1277 C1255 0.950 . S
C1278 C1279 1.349 . S
C1278 C1280 1.327 . S
C1278 H1303 0.950 1_545 S
C1279 C1278 1.349 . S
C1279 C1295 1.349 . S
C1280 C1278 1.327 . S
C1280 C1299 1.429 . S
C1280 H1304 0.950 1_545 S
C1281 C1298 1.574 1_455 S
C1281 C1300 1.368 . S
C1281 H1305 0.949 . S
H1282 C1286 0.949 . S
C1283 C1284 1.349 . S
C1283 C1285 1.327 . S
C1283 H1306 0.950 . S
C1284 C1283 1.349 . S
C1284 C1296 1.349 . S
C1285 C1283 1.327 . S
C1285 C1301 1.429 . S
C1285 H1307 0.950 . S
C1286 H1282 0.949 . S
C1286 C1294 1.574 1_655 S
C1286 C1302 1.368 . S
H1287 C1295 0.950 . S
H1288 C1293 0.950 . S
H1289 C1294 0.949 1_565 S
H1290 C1296 0.950 . S
H1291 C1297 0.950 . S
H1292 C1298 0.949 . S
C1293 H1288 0.950 . S
C1293 C1295 1.327 . S
C1293 C1299 1.429 . S
C1294 C1286 1.574 1_455 S
C1294 H1289 0.949 1_545 S
C1294 C1300 1.368 . S
C1295 C1279 1.349 . S
C1295 H1287 0.950 . S
C1295 C1293 1.327 . S
C1296 C1284 1.349 . S
C1296 H1290 0.950 . S
C1296 C1297 1.327 . S
C1297 H1291 0.950 . S
C1297 C1296 1.327 . S
C1297 C1301 1.429 . S
C1298 C1281 1.574 1_655 S
C1298 H1292 0.949 . S
C1298 C1302 1.368 . S
C1299 C1280 1.429 . S
C1299 C1293 1.429 . S
C1299 C1300 1.523 . S
C1300 C1281 1.368 . S
C1300 C1294 1.368 . S
C1300 C1299 1.523 . S
C1301 C1285 1.429 . S
C1301 C1297 1.429 . S
C1301 C1302 1.523 . S
C1302 C1286 1.368 . S
C1302 C1298 1.368 . S
C1302 C1301 1.523 . S
H1303 C1278 0.950 1_565 S
H1304 C1280 0.950 1_565 S
H1305 C1281 0.949 . S
H1306 C1283 0.950 . S
H1307 C1285 0.950 . S
C1308 C1309 1.349 . S
C1308 C1310 1.327 . S
C1308 H1333 0.950 . S
C1309 C1308 1.349 . S
C1309 C1325 1.349 . S
C1310 C1308 1.327 . S
C1310 C1329 1.429 . S
C1310 H1334 0.950 . S
C1311 C1328 1.574 1_655 S
C1311 C1330 1.368 . S
C1311 H1335 0.949 . S
H1312 C1316 0.949 . S
C1313 C1314 1.349 . S
C1313 C1315 1.327 . S
C1313 H1336 0.950 . S
C1314 C1313 1.349 . S
C1314 C1326 1.349 . S
C1315 C1313 1.327 . S
C1315 C1331 1.429 . S
C1315 H1337 0.950 . S
C1316 H1312 0.949 . S
C1316 C1324 1.574 1_455 S
C1316 C1332 1.368 . S
H1317 C1325 0.950 . S
H1318 C1323 0.950 . S
H1319 C1324 0.949 . S
H1320 C1326 0.950 . S
H1321 C1327 0.950 . S
H1322 C1328 0.949 . S
C1323 H1318 0.950 . S
C1323 C1325 1.327 . S
C1323 C1329 1.429 . S
C1324 C1316 1.574 1_655 S
C1324 H1319 0.949 . S
C1324 C1330 1.368 . S
C1325 C1309 1.349 . S
C1325 H1317 0.950 . S
C1325 C1323 1.327 . S
C1326 C1314 1.349 . S
C1326 H1320 0.950 . S
C1326 C1327 1.327 . S
C1327 H1321 0.950 . S
C1327 C1326 1.327 . S
C1327 C1331 1.429 . S
C1328 C1311 1.574 1_455 S
C1328 H1322 0.949 . S
C1328 C1332 1.368 . S
C1329 C1310 1.429 . S
C1329 C1323 1.429 . S
C1329 C1330 1.523 . S
C1330 C1311 1.368 . S
C1330 C1324 1.368 . S
C1330 C1329 1.523 . S
C1331 C1315 1.429 . S
C1331 C1327 1.429 . S
C1331 C1332 1.523 . S
C1332 C1316 1.368 . S
C1332 C1328 1.368 . S
C1332 C1331 1.523 . S
H1333 C1308 0.950 . S
H1334 C1310 0.950 . S
H1335 C1311 0.949 . S
H1336 C1313 0.950 . S
H1337 C1315 0.950 . S
C1338 C1339 1.349 . S
C1338 C1340 1.327 . S
C1338 H1363 0.950 . S
C1339 C1338 1.349 . S
C1339 C1355 1.349 . S
C1340 C1338 1.327 . S
C1340 C1359 1.429 . S
C1340 H1364 0.950 . S
C1341 C1358 1.574 1_655 S
C1341 C1360 1.368 . S
C1341 H1365 0.949 . S
H1342 C1346 0.949 . S
C1343 C1344 1.349 . S
C1343 C1345 1.327 . S
C1343 H1366 0.950 . S
C1344 C1343 1.349 . S
C1344 C1356 1.349 . S
C1345 C1343 1.327 . S
C1345 C1361 1.429 . S
C1345 H1367 0.950 . S
C1346 H1342 0.949 . S
C1346 C1354 1.574 1_455 S
C1346 C1362 1.368 . S
H1347 C1355 0.950 . S
H1348 C1353 0.950 . S
H1349 C1354 0.949 . S
H1350 C1356 0.950 . S
H1351 C1357 0.950 . S
H1352 C1358 0.949 . S
C1353 H1348 0.950 . S
C1353 C1355 1.327 . S
C1353 C1359 1.429 . S
C1354 C1346 1.574 1_655 S
C1354 H1349 0.949 . S
C1354 C1360 1.368 . S
C1355 C1339 1.349 . S
C1355 H1347 0.950 . S
C1355 C1353 1.327 . S
C1356 C1344 1.349 . S
C1356 H1350 0.950 . S
C1356 C1357 1.327 . S
C1357 H1351 0.950 . S
C1357 C1356 1.327 . S
C1357 C1361 1.429 . S
C1358 C1341 1.574 1_455 S
C1358 H1352 0.949 . S
C1358 C1362 1.368 . S
C1359 C1340 1.429 . S
C1359 C1353 1.429 . S
C1359 C1360 1.523 . S
C1360 C1341 1.368 . S
C1360 C1354 1.368 . S
C1360 C1359 1.523 . S
C1361 C1345 1.429 . S
C1361 C1357 1.429 . S
C1361 C1362 1.523 . S
C1362 C1346 1.368 . S
C1362 C1358 1.368 . S
C1362 C1361 1.523 . S
H1363 C1338 0.950 . S
H1364 C1340 0.950 . S
H1365 C1341 0.949 . S
H1366 C1343 0.950 . S
H1367 C1345 0.950 . S
C1368 C1369 1.349 . S
C1368 C1370 1.327 . S
C1368 H1393 0.950 1_545 S
C1369 C1368 1.349 . S
C1369 C1385 1.349 . S
C1370 C1368 1.327 . S
C1370 C1389 1.429 . S
C1370 H1394 0.950 1_545 S
C1371 C1388 1.574 . S
C1371 C1390 1.368 . S
C1371 H1395 0.949 . S
H1372 C1376 0.949 . S
C1373 C1374 1.349 . S
C1373 C1375 1.327 . S
C1373 H1396 0.950 . S
C1374 C1373 1.349 . S
C1374 C1386 1.349 . S
C1375 C1373 1.327 . S
C1375 C1391 1.429 . S
C1375 H1397 0.950 . S
C1376 H1372 0.949 . S
C1376 C1384 1.574 . S
C1376 C1392 1.368 . S
H1377 C1385 0.950 . S
H1378 C1383 0.950 . S
H1379 C1384 0.949 1_565 S
H1380 C1386 0.950 . S
H1381 C1387 0.950 . S
H1382 C1388 0.949 . S
C1383 H1378 0.950 . S
C1383 C1385 1.327 . S
C1383 C1389 1.429 . S
C1384 C1376 1.574 . S
C1384 H1379 0.949 1_545 S
C1384 C1390 1.368 . S
C1385 C1369 1.349 . S
C1385 H1377 0.950 . S
C1385 C1383 1.327 . S
C1386 C1374 1.349 . S
C1386 H1380 0.950 . S
C1386 C1387 1.327 . S
C1387 H1381 0.950 . S
C1387 C1386 1.327 . S
C1387 C1391 1.429 . S
C1388 C1371 1.574 . S
C1388 H1382 0.949 . S
C1388 C1392 1.368 . S
C1389 C1370 1.429 . S
C1389 C1383 1.429 . S
C1389 C1390 1.523 . S
C1390 C1371 1.368 . S
C1390 C1384 1.368 . S
C1390 C1389 1.523 . S
C1391 C1375 1.429 . S
C1391 C1387 1.429 . S
C1391 C1392 1.523 . S
C1392 C1376 1.368 . S
C1392 C1388 1.368 . S
C1392 C1391 1.523 . S
H1393 C1368 0.950 1_565 S
H1394 C1370 0.950 1_565 S
H1395 C1371 0.949 . S
H1396 C1373 0.950 . S
H1397 C1375 0.950 . S
C1398 C1399 1.349 . S
C1398 C1400 1.327 . S
C1398 H1423 0.950 . S
C1399 C1398 1.349 . S
C1399 C1415 1.349 . S
C1400 C1398 1.327 . S
C1400 C1419 1.429 . S
C1400 H1424 0.950 . S
C1401 C1418 1.574 . S
C1401 C1420 1.368 . S
C1401 H1425 0.949 . S
H1402 C1406 0.949 . S
C1403 C1404 1.349 . S
C1403 C1405 1.327 . S
C1403 H1426 0.950 1_545 S
C1404 C1403 1.349 . S
C1404 C1416 1.349 . S
C1405 C1403 1.327 . S
C1405 C1421 1.429 . S
C1405 H1427 0.950 1_545 S
C1406 H1402 0.949 . S
C1406 C1414 1.574 . S
C1406 C1422 1.368 . S
H1407 C1415 0.950 . S
H1408 C1413 0.950 . S
H1409 C1414 0.949 . S
H1410 C1416 0.950 . S
H1411 C1417 0.950 . S
H1412 C1418 0.949 1_565 S
C1413 H1408 0.950 . S
C1413 C1415 1.327 . S
C1413 C1419 1.429 . S
C1414 C1406 1.574 . S
C1414 H1409 0.949 . S
C1414 C1420 1.368 . S
C1415 C1399 1.349 . S
C1415 H1407 0.950 . S
C1415 C1413 1.327 . S
C1416 C1404 1.349 . S
C1416 H1410 0.950 . S
C1416 C1417 1.327 . S
C1417 H1411 0.950 . S
C1417 C1416 1.327 . S
C1417 C1421 1.429 . S
C1418 C1401 1.574 . S
C1418 H1412 0.949 1_545 S
C1418 C1422 1.368 . S
C1419 C1400 1.429 . S
C1419 C1413 1.429 . S
C1419 C1420 1.523 . S
C1420 C1401 1.368 . S
C1420 C1414 1.368 . S
C1420 C1419 1.523 . S
C1421 C1405 1.429 . S
C1421 C1417 1.429 . S
C1421 C1422 1.523 . S
C1422 C1406 1.368 . S
C1422 C1418 1.368 . S
C1422 C1421 1.523 . S
H1423 C1398 0.950 . S
H1424 C1400 0.950 . S
H1425 C1401 0.949 . S
H1426 C1403 0.950 1_565 S
H1427 C1405 0.950 1_565 S
C1428 C1429 1.349 . S
C1428 C1430 1.327 . S
C1428 H1453 0.950 . S
C1429 C1428 1.349 . S
C1429 C1445 1.349 . S
C1430 C1428 1.327 . S
C1430 C1449 1.429 . S
C1430 H1454 0.950 . S
C1431 C1448 1.574 . S
C1431 C1450 1.368 . S
C1431 H1455 0.949 . S
H1432 C1436 0.949 . S
C1433 C1434 1.349 . S
C1433 C1435 1.327 . S
C1433 H1456 0.950 . S
C1434 C1433 1.349 . S
C1434 C1446 1.349 . S
C1435 C1433 1.327 . S
C1435 C1451 1.429 . S
C1435 H1457 0.950 . S
C1436 H1432 0.949 . S
C1436 C1444 1.574 . S
C1436 C1452 1.368 . S
H1437 C1445 0.950 . S
H1438 C1443 0.950 . S
H1439 C1444 0.949 . S
H1440 C1446 0.950 . S
H1441 C1447 0.950 . S
H1442 C1448 0.949 . S
C1443 H1438 0.950 . S
C1443 C1445 1.327 . S
C1443 C1449 1.429 . S
C1444 C1436 1.574 . S
C1444 H1439 0.949 . S
C1444 C1450 1.368 . S
C1445 C1429 1.349 . S
C1445 H1437 0.950 . S
C1445 C1443 1.327 . S
C1446 C1434 1.349 . S
C1446 H1440 0.950 . S
C1446 C1447 1.327 . S
C1447 H1441 0.950 . S
C1447 C1446 1.327 . S
C1447 C1451 1.429 . S
C1448 C1431 1.574 . S
C1448 H1442 0.949 . S
C1448 C1452 1.368 . S
C1449 C1430 1.429 . S
C1449 C1443 1.429 . S
C1449 C1450 1.523 . S
C1450 C1431 1.368 . S
C1450 C1444 1.368 . S
C1450 C1449 1.523 . S
C1451 C1435 1.429 . S
C1451 C1447 1.429 . S
C1451 C1452 1.523 . S
C1452 C1436 1.368 . S
C1452 C1448 1.368 . S
C1452 C1451 1.523 . S
H1453 C1428 0.950 . S
H1454 C1430 0.950 . S
H1455 C1431 0.949 . S
H1456 C1433 0.950 . S
H1457 C1435 0.950 . S
C1458 C1459 1.349 . S
C1458 C1460 1.327 . S
C1458 H1483 0.950 . S
C1459 C1458 1.349 . S
C1459 C1475 1.349 . S
C1460 C1458 1.327 . S
C1460 C1479 1.429 . S
C1460 H1484 0.950 . S
C1461 C1478 1.574 . S
C1461 C1480 1.368 . S
C1461 H1485 0.949 . S
H1462 C1466 0.949 . S
C1463 C1464 1.349 . S
C1463 C1465 1.327 . S
C1463 H1486 0.950 . S
C1464 C1463 1.349 . S
C1464 C1476 1.349 . S
C1465 C1463 1.327 . S
C1465 C1481 1.429 . S
C1465 H1487 0.950 . S
C1466 H1462 0.949 . S
C1466 C1474 1.574 . S
C1466 C1482 1.368 . S
H1467 C1475 0.950 . S
H1468 C1473 0.950 . S
H1469 C1474 0.949 . S
H1470 C1476 0.950 . S
H1471 C1477 0.950 . S
H1472 C1478 0.949 . S
C1473 H1468 0.950 . S
C1473 C1475 1.327 . S
C1473 C1479 1.429 . S
C1474 C1466 1.574 . S
C1474 H1469 0.949 . S
C1474 C1480 1.368 . S
C1475 C1459 1.349 . S
C1475 H1467 0.950 . S
C1475 C1473 1.327 . S
C1476 C1464 1.349 . S
C1476 H1470 0.950 . S
C1476 C1477 1.327 . S
C1477 H1471 0.950 . S
C1477 C1476 1.327 . S
C1477 C1481 1.429 . S
C1478 C1461 1.574 . S
C1478 H1472 0.949 . S
C1478 C1482 1.368 . S
C1479 C1460 1.429 . S
C1479 C1473 1.429 . S
C1479 C1480 1.523 . S
C1480 C1461 1.368 . S
C1480 C1474 1.368 . S
C1480 C1479 1.523 . S
C1481 C1465 1.429 . S
C1481 C1477 1.429 . S
C1481 C1482 1.523 . S
C1482 C1466 1.368 . S
C1482 C1478 1.368 . S
C1482 C1481 1.523 . S
H1483 C1458 0.950 . S
H1484 C1460 0.950 . S
H1485 C1461 0.949 . S
H1486 C1463 0.950 . S
H1487 C1465 0.950 . S
C1488 C1489 1.349 . S
C1488 C1490 1.327 . S
C1488 H1513 0.950 . S
C1489 C1488 1.349 . S
C1489 C1505 1.349 . S
C1490 C1488 1.327 . S
C1490 C1509 1.429 . S
C1490 H1514 0.950 . S
C1491 C1508 1.574 1_556 S
C1491 C1510 1.368 . S
C1491 H1515 0.949 1_545 S
H1492 C1496 0.949 . S
C1493 C1494 1.349 . S
C1493 C1495 1.327 . S
C1493 H1516 0.950 1_545 S
C1494 C1493 1.349 . S
C1494 C1506 1.349 . S
C1495 C1493 1.327 . S
C1495 C1511 1.429 . S
C1495 H1517 0.950 1_545 S
C1496 H1492 0.949 . S
C1496 C1504 1.574 1_554 S
C1496 C1512 1.368 . S
H1497 C1505 0.950 1_565 S
H1498 C1503 0.950 1_565 S
H1499 C1504 0.949 . S
H1500 C1506 0.950 . S
H1501 C1507 0.950 . S
H1502 C1508 0.949 1_565 S
C1503 H1498 0.950 1_545 S
C1503 C1505 1.327 . S
C1503 C1509 1.429 . S
C1504 C1496 1.574 1_556 S
C1504 H1499 0.949 . S
C1504 C1510 1.368 . S
C1505 C1489 1.349 . S
C1505 H1497 0.950 1_545 S
C1505 C1503 1.327 . S
C1506 C1494 1.349 . S
C1506 H1500 0.950 . S
C1506 C1507 1.327 . S
C1507 H1501 0.950 . S
C1507 C1506 1.327 . S
C1507 C1511 1.429 . S
C1508 C1491 1.574 1_554 S
C1508 H1502 0.949 1_545 S
C1508 C1512 1.368 . S
C1509 C1490 1.429 . S
C1509 C1503 1.429 . S
C1509 C1510 1.523 . S
C1510 C1491 1.368 . S
C1510 C1504 1.368 . S
C1510 C1509 1.523 . S
C1511 C1495 1.429 . S
C1511 C1507 1.429 . S
C1511 C1512 1.523 . S
C1512 C1496 1.368 . S
C1512 C1508 1.368 . S
C1512 C1511 1.523 . S
H1513 C1488 0.950 . S
H1514 C1490 0.950 . S
H1515 C1491 0.949 1_565 S
H1516 C1493 0.950 1_565 S
H1517 C1495 0.950 1_565 S
C1518 C1519 1.350 1_565 S
C1518 C1520 1.327 1_565 S
C1518 H1543 0.948 . S
C1519 C1518 1.350 1_545 S
C1519 C1535 1.349 . S
C1520 C1518 1.327 1_545 S
C1520 C1539 1.426 . S
C1520 H1544 0.952 1_545 S
C1521 C1538 1.574 1_556 S
C1521 C1540 1.368 . S
C1521 H1545 0.949 . S
H1522 C1526 0.949 1_565 S
C1523 C1524 1.349 . S
C1523 C1525 1.327 . S
C1523 H1546 0.950 . S
C1524 C1523 1.349 . S
C1524 C1536 1.349 . S
C1525 C1523 1.327 . S
C1525 C1541 1.429 . S
C1525 H1547 0.950 . S
C1526 H1522 0.949 1_545 S
C1526 C1534 1.574 1_554 S
C1526 C1542 1.368 . S
H1527 C1535 0.950 . S
H1528 C1533 0.950 . S
H1529 C1534 0.947 1_565 S
H1530 C1536 0.950 1_565 S
H1531 C1537 0.950 1_565 S
H1532 C1538 0.949 . S
C1533 H1528 0.950 . S
C1533 C1535 1.327 . S
C1533 C1539 1.429 . S
C1534 C1526 1.574 1_556 S
C1534 H1529 0.947 1_545 S
C1534 C1540 1.371 . S
C1535 C1519 1.349 . S
C1535 H1527 0.950 . S
C1535 C1533 1.327 . S
C1536 C1524 1.349 . S
C1536 H1530 0.950 1_545 S
C1536 C1537 1.327 . S
C1537 H1531 0.950 1_545 S
C1537 C1536 1.327 . S
C1537 C1541 1.429 . S
C1538 C1521 1.574 1_554 S
C1538 H1532 0.949 . S
C1538 C1542 1.368 . S
C1539 C1520 1.426 . S
C1539 C1533 1.429 . S
C1539 C1540 1.523 . S
C1540 C1521 1.368 . S
C1540 C1534 1.371 . S
C1540 C1539 1.523 . S
C1541 C1525 1.429 . S
C1541 C1537 1.429 . S
C1541 C1542 1.523 . S
C1542 C1526 1.368 . S
C1542 C1538 1.368 . S
C1542 C1541 1.523 . S
H1543 C1518 0.948 . S
H1544 C1520 0.952 1_565 S
H1545 C1521 0.949 . S
H1546 C1523 0.950 . S
H1547 C1525 0.950 . S
C1548 C1549 1.349 . S
C1548 C1550 1.327 . S
C1548 H1573 0.950 . S
C1549 C1548 1.349 . S
C1549 C1565 1.349 . S
C1550 C1548 1.327 . S
C1550 C1569 1.429 . S
C1550 H1574 0.950 . S
C1551 C1568 1.574 . S
C1551 C1570 1.368 . S
C1551 H1575 0.949 . S
H1552 C1556 0.949 . S
C1553 C1554 1.349 . S
C1553 C1555 1.327 . S
C1553 H1576 0.950 . S
C1554 C1553 1.349 . S
C1554 C1566 1.349 . S
C1555 C1553 1.327 . S
C1555 C1571 1.429 . S
C1555 H1577 0.950 . S
C1556 H1552 0.949 . S
C1556 C1564 1.574 . S
C1556 C1572 1.368 . S
H1557 C1565 0.950 . S
H1558 C1563 0.950 . S
H1559 C1564 0.949 . S
H1560 C1566 0.950 . S
H1561 C1567 0.950 . S
H1562 C1568 0.949 . S
C1563 H1558 0.950 . S
C1563 C1565 1.327 . S
C1563 C1569 1.429 . S
C1564 C1556 1.574 . S
C1564 H1559 0.949 . S
C1564 C1570 1.368 . S
C1565 C1549 1.349 . S
C1565 H1557 0.950 . S
C1565 C1563 1.327 . S
C1566 C1554 1.349 . S
C1566 H1560 0.950 . S
C1566 C1567 1.327 . S
C1567 H1561 0.950 . S
C1567 C1566 1.327 . S
C1567 C1571 1.429 . S
C1568 C1551 1.574 . S
C1568 H1562 0.949 . S
C1568 C1572 1.368 . S
C1569 C1550 1.429 . S
C1569 C1563 1.429 . S
C1569 C1570 1.523 . S
C1570 C1551 1.368 . S
C1570 C1564 1.368 . S
C1570 C1569 1.523 . S
C1571 C1555 1.429 . S
C1571 C1567 1.429 . S
C1571 C1572 1.523 . S
C1572 C1556 1.368 . S
C1572 C1568 1.368 . S
C1572 C1571 1.523 . S
H1573 C1548 0.950 . S
H1574 C1550 0.950 . S
H1575 C1551 0.949 . S
H1576 C1553 0.950 . S
H1577 C1555 0.950 . S
C1578 C1579 1.349 . S
C1578 C1580 1.327 . S
C1578 H1603 0.950 . S
C1579 C1578 1.349 . S
C1579 C1595 1.349 . S
C1580 C1578 1.327 . S
C1580 C1599 1.429 . S
C1580 H1604 0.950 . S
C1581 C1598 1.574 . S
C1581 C1600 1.368 . S
C1581 H1605 0.949 . S
H1582 C1586 0.949 . S
C1583 C1584 1.349 . S
C1583 C1585 1.327 . S
C1583 H1606 0.950 . S
C1584 C1583 1.349 . S
C1584 C1596 1.349 . S
C1585 C1583 1.327 . S
C1585 C1601 1.429 . S
C1585 H1607 0.950 . S
C1586 H1582 0.949 . S
C1586 C1594 1.574 . S
C1586 C1602 1.368 . S
H1587 C1595 0.950 . S
H1588 C1593 0.950 . S
H1589 C1594 0.949 . S
H1590 C1596 0.950 . S
H1591 C1597 0.950 . S
H1592 C1598 0.949 . S
C1593 H1588 0.950 . S
C1593 C1595 1.327 . S
C1593 C1599 1.429 . S
C1594 C1586 1.574 . S
C1594 H1589 0.949 . S
C1594 C1600 1.368 . S
C1595 C1579 1.349 . S
C1595 H1587 0.950 . S
C1595 C1593 1.327 . S
C1596 C1584 1.349 . S
C1596 H1590 0.950 . S
C1596 C1597 1.327 . S
C1597 H1591 0.950 . S
C1597 C1596 1.327 . S
C1597 C1601 1.429 . S
C1598 C1581 1.574 . S
C1598 H1592 0.949 . S
C1598 C1602 1.368 . S
C1599 C1580 1.429 . S
C1599 C1593 1.429 . S
C1599 C1600 1.523 . S
C1600 C1581 1.368 . S
C1600 C1594 1.368 . S
C1600 C1599 1.523 . S
C1601 C1585 1.429 . S
C1601 C1597 1.429 . S
C1601 C1602 1.523 . S
C1602 C1586 1.368 . S
C1602 C1598 1.368 . S
C1602 C1601 1.523 . S
H1603 C1578 0.950 . S
H1604 C1580 0.950 . S
H1605 C1581 0.949 . S
H1606 C1583 0.950 . S
H1607 C1585 0.950 . S
C1608 C1609 1.349 . S
C1608 C1610 1.327 . S
C1608 H1633 0.950 . S
C1609 C1608 1.349 . S
C1609 C1625 1.349 . S
C1610 C1608 1.327 . S
C1610 C1629 1.429 . S
C1610 H1634 0.950 . S
C1611 C1628 1.574 . S
C1611 C1630 1.368 . S
C1611 H1635 0.949 1_545 S
H1612 C1616 0.949 . S
C1613 C1614 1.349 . S
C1613 C1615 1.327 . S
C1613 H1636 0.950 1_545 S
C1614 C1613 1.349 . S
C1614 C1626 1.349 . S
C1615 C1613 1.327 . S
C1615 C1631 1.429 . S
C1615 H1637 0.950 1_545 S
C1616 H1612 0.949 . S
C1616 C1624 1.574 . S
C1616 C1632 1.368 . S
H1617 C1625 0.950 1_565 S
H1618 C1623 0.950 1_565 S
H1619 C1624 0.949 . S
H1620 C1626 0.950 . S
H1621 C1627 0.950 . S
H1622 C1628 0.949 1_565 S
C1623 H1618 0.950 1_545 S
C1623 C1625 1.327 . S
C1623 C1629 1.429 . S
C1624 C1616 1.574 . S
C1624 H1619 0.949 . S
C1624 C1630 1.368 . S
C1625 C1609 1.349 . S
C1625 H1617 0.950 1_545 S
C1625 C1623 1.327 . S
C1626 C1614 1.349 . S
C1626 H1620 0.950 . S
C1626 C1627 1.327 . S
C1627 H1621 0.950 . S
C1627 C1626 1.327 . S
C1627 C1631 1.429 . S
C1628 C1611 1.574 . S
C1628 H1622 0.949 1_545 S
C1628 C1632 1.368 . S
C1629 C1610 1.429 . S
C1629 C1623 1.429 . S
C1629 C1630 1.523 . S
C1630 C1611 1.368 . S
C1630 C1624 1.368 . S
C1630 C1629 1.523 . S
C1631 C1615 1.429 . S
C1631 C1627 1.429 . S
C1631 C1632 1.523 . S
C1632 C1616 1.368 . S
C1632 C1628 1.368 . S
C1632 C1631 1.523 . S
H1633 C1608 0.950 . S
H1634 C1610 0.950 . S
H1635 C1611 0.949 1_565 S
H1636 C1613 0.950 1_565 S
H1637 C1615 0.950 1_565 S
C1638 C1639 1.349 . S
C1638 C1640 1.327 . S
C1638 H1663 0.950 . S
C1639 C1638 1.349 . S
C1639 C1655 1.349 . S
C1640 C1638 1.327 . S
C1640 C1659 1.429 . S
C1640 H1664 0.950 . S
C1641 C1658 1.574 . S
C1641 C1660 1.368 . S
C1641 H1665 0.949 1_545 S
H1642 C1646 0.949 . S
C1643 C1644 1.349 . S
C1643 C1645 1.327 . S
C1643 H1666 0.950 1_545 S
C1644 C1643 1.349 . S
C1644 C1656 1.349 . S
C1645 C1643 1.327 . S
C1645 C1661 1.429 . S
C1645 H1667 0.950 1_545 S
C1646 H1642 0.949 . S
C1646 C1654 1.574 . S
C1646 C1662 1.368 . S
H1647 C1655 0.950 1_565 S
H1648 C1653 0.950 1_565 S
H1649 C1654 0.949 . S
H1650 C1656 0.950 . S
H1651 C1657 0.950 . S
H1652 C1658 0.949 1_565 S
C1653 H1648 0.950 1_545 S
C1653 C1655 1.327 . S
C1653 C1659 1.429 . S
C1654 C1646 1.574 . S
C1654 H1649 0.949 . S
C1654 C1660 1.368 . S
C1655 C1639 1.349 . S
C1655 H1647 0.950 1_545 S
C1655 C1653 1.327 . S
C1656 C1644 1.349 . S
C1656 H1650 0.950 . S
C1656 C1657 1.327 . S
C1657 H1651 0.950 . S
C1657 C1656 1.327 . S
C1657 C1661 1.429 . S
C1658 C1641 1.574 . S
C1658 H1652 0.949 1_545 S
C1658 C1662 1.368 . S
C1659 C1640 1.429 . S
C1659 C1653 1.429 . S
C1659 C1660 1.523 . S
C1660 C1641 1.368 . S
C1660 C1654 1.368 . S
C1660 C1659 1.523 . S
C1661 C1645 1.429 . S
C1661 C1657 1.429 . S
C1661 C1662 1.523 . S
C1662 C1646 1.368 . S
C1662 C1658 1.368 . S
C1662 C1661 1.523 . S
H1663 C1638 0.950 . S
H1664 C1640 0.950 . S
H1665 C1641 0.949 1_565 S
H1666 C1643 0.950 1_565 S
H1667 C1645 0.950 1_565 S
C1668 C1669 1.349 . S
C1668 C1670 1.327 . S
C1668 H1693 0.950 . S
C1669 C1668 1.349 . S
C1669 C1685 1.349 . S
C1670 C1668 1.327 . S
C1670 C1689 1.429 . S
C1670 H1694 0.950 . S
C1671 C1688 1.574 1_554 S
C1671 C1690 1.368 . S
C1671 H1695 0.949 . S
H1672 C1676 0.949 . S
C1673 C1674 1.349 . S
C1673 C1675 1.327 . S
C1673 H1696 0.950 . S
C1674 C1673 1.349 . S
C1674 C1686 1.349 . S
C1675 C1673 1.327 . S
C1675 C1691 1.429 . S
C1675 H1697 0.950 . S
C1676 H1672 0.949 . S
C1676 C1684 1.574 1_556 S
C1676 C1692 1.368 . S
H1677 C1685 0.950 . S
H1678 C1683 0.950 . S
H1679 C1684 0.949 . S
H1680 C1686 0.950 . S
H1681 C1687 0.950 . S
H1682 C1688 0.949 . S
C1683 H1678 0.950 . S
C1683 C1685 1.327 . S
C1683 C1689 1.429 . S
C1684 C1676 1.574 1_554 S
C1684 H1679 0.949 . S
C1684 C1690 1.368 . S
C1685 C1669 1.349 . S
C1685 H1677 0.950 . S
C1685 C1683 1.327 . S
C1686 C1674 1.349 . S
C1686 H1680 0.950 . S
C1686 C1687 1.327 . S
C1687 H1681 0.950 . S
C1687 C1686 1.327 . S
C1687 C1691 1.429 . S
C1688 C1671 1.574 1_556 S
C1688 H1682 0.949 . S
C1688 C1692 1.368 . S
C1689 C1670 1.429 . S
C1689 C1683 1.429 . S
C1689 C1690 1.523 . S
C1690 C1671 1.368 . S
C1690 C1684 1.368 . S
C1690 C1689 1.523 . S
C1691 C1675 1.429 . S
C1691 C1687 1.429 . S
C1691 C1692 1.523 . S
C1692 C1676 1.368 . S
C1692 C1688 1.368 . S
C1692 C1691 1.523 . S
H1693 C1668 0.950 . S
H1694 C1670 0.950 . S
H1695 C1671 0.949 . S
H1696 C1673 0.950 . S
H1697 C1675 0.950 . S
C1698 C1699 1.349 . S
C1698 C1700 1.327 . S
C1698 H1723 0.950 . S
C1699 C1698 1.349 . S
C1699 C1715 1.349 . S
C1700 C1698 1.327 . S
C1700 C1719 1.429 . S
C1700 H1724 0.950 . S
C1701 C1718 1.574 1_556 S
C1701 C1720 1.368 . S
C1701 H1725 0.949 . S
H1702 C1706 0.949 . S
C1703 C1704 1.349 . S
C1703 C1705 1.327 . S
C1703 H1726 0.950 . S
C1704 C1703 1.349 . S
C1704 C1716 1.349 . S
C1705 C1703 1.327 . S
C1705 C1721 1.429 . S
C1705 H1727 0.950 . S
C1706 H1702 0.949 . S
C1706 C1714 1.574 1_554 S
C1706 C1722 1.368 . S
H1707 C1715 0.950 . S
H1708 C1713 0.950 . S
H1709 C1714 0.949 . S
H1710 C1716 0.950 . S
H1711 C1717 0.950 . S
H1712 C1718 0.949 . S
C1713 H1708 0.950 . S
C1713 C1715 1.327 . S
C1713 C1719 1.429 . S
C1714 C1706 1.574 1_556 S
C1714 H1709 0.949 . S
C1714 C1720 1.368 . S
C1715 C1699 1.349 . S
C1715 H1707 0.950 . S
C1715 C1713 1.327 . S
C1716 C1704 1.349 . S
C1716 H1710 0.950 . S
C1716 C1717 1.327 . S
C1717 H1711 0.950 . S
C1717 C1716 1.327 . S
C1717 C1721 1.429 . S
C1718 C1701 1.574 1_554 S
C1718 H1712 0.949 . S
C1718 C1722 1.368 . S
C1719 C1700 1.429 . S
C1719 C1713 1.429 . S
C1719 C1720 1.523 . S
C1720 C1701 1.368 . S
C1720 C1714 1.368 . S
C1720 C1719 1.523 . S
C1721 C1705 1.429 . S
C1721 C1717 1.429 . S
C1721 C1722 1.523 . S
C1722 C1706 1.368 . S
C1722 C1718 1.368 . S
C1722 C1721 1.523 . S
H1723 C1698 0.950 . S
H1724 C1700 0.950 . S
H1725 C1701 0.949 . S
H1726 C1703 0.950 . S
H1727 C1705 0.950 . S
C529 N14 1.673 . S
C534 N377 1.673 . S
C559 N47 1.673 . S
C564 N344 1.673 . S
C589 N311 1.673 . S
C594 N80 1.673 . S
C619 N278 1.673 . S
C624 N113 1.673 . S
C649 N146 1.673 . S
C654 N509 1.673 . S
C679 N179 1.672 . S
C684 N476 1.672 . S
C709 N443 1.673 . S
C714 N212 1.673 . S
C739 N410 1.672 . S
C744 N245 1.672 . S
C769 C8 0.856 . S
C774 C437 0.856 . S
C799 C404 0.856 . S
C804 C41 0.856 . S
C829 C74 0.856 . S
C834 C503 0.856 . S
C859 C470 0.856 . S
C864 C107 0.856 . S
C889 C127 1.559 . S
C894 C490 1.559 . S
C919 C523 1.559 . S
C924 C94 1.559 . S
C949 C424 1.559 . S
C954 C61 1.559 . S
C979 C28 1.559 . S
C984 C457 1.559 . S
C1009 C140 0.856 . S
C1014 C305 0.856 . S
C1039 C173 0.856 . S
C1044 C272 0.856 . S
C1069 C206 0.856 . S
C1074 C371 0.856 . S
C1099 C239 0.856 . S
C1104 C338 0.856 . S
C1129 C259 1.559 . S
C1134 C358 1.559 . S
C1159 C226 1.559 . S
C1164 C391 1.559 . S
C1189 C193 1.559 . S
C1194 C292 1.559 . S
C1219 C160 1.559 . S
C1224 C325 1.559 . S
C1249 C50 1.479 . S
C1254 C17 1.479 . S
C1279 C83 1.479 . S
C1284 C116 1.479 . S
C1309 C182 1.479 . S
C1314 C149 1.479 . S
C1339 C248 1.479 . S
C1344 C215 1.479 . S
C1369 C314 1.479 . S
C1374 C281 1.479 . S
C1399 C380 1.479 . S
C1404 C347 1.479 . S
C1429 C413 1.479 . S
C1434 C446 1.479 . S
C1459 C512 1.479 . S
C1464 C479 1.479 . S
C1489 N71 1.547 . S
C1494 N5 1.547 . S
C1519 N104 1.547 . S
C1524 N38 1.547 . S
C1549 N137 1.547 . S
C1554 N203 1.547 . S
C1579 N236 1.548 . S
C1584 N170 1.548 . S
C1609 N269 1.547 . S
C1614 N335 1.547 . S
C1639 N368 1.548 . S
C1644 N302 1.548 . S
C1669 N401 1.547 . S
C1674 N467 1.547 . S
C1699 N500 1.547 . S
C1704 N434 1.547 . S
