# Generated by pormake.
# Topology snl, (6)-cn, num edge types: 1
# Building blocks:
#     Node 0, Type 0, BuildingBlock: KUMBUR_clean_sbu_1, # of connection points: 6
#     Node 1, Type 0, BuildingBlock: KUMBUR_clean_sbu_1, # of connection points: 6
#     Node 2, Type 0, BuildingBlock: KUMBUR_clean_sbu_1, # of connection points: 6
#     Node 3, Type 0, BuildingBlock: KUMBUR_clean_sbu_1, # of connection points: 6
#     Node 4, Type 0, BuildingBlock: KUMBUR_clean_sbu_1, # of connection points: 6
#     Node 5, Type 0, BuildingBlock: KUMBUR_clean_sbu_1, # of connection points: 6
#     Node 6, Type 0, BuildingBlock: KUMBUR_clean_sbu_1, # of connection points: 6
#     Node 7, Type 0, BuildingBlock: KUMBUR_clean_sbu_1, # of connection points: 6
#     Node 8, Type 0, BuildingBlock: KUMBUR_clean_sbu_1, # of connection points: 6
#     Node 9, Type 0, BuildingBlock: KUMBUR_clean_sbu_1, # of connection points: 6
#     Node 10, Type 0, BuildingBlock: KUMBUR_clean_sbu_1, # of connection points: 6
#     Node 11, Type 0, BuildingBlock: KUMBUR_clean_sbu_1, # of connection points: 6
#     Node 12, Type 0, BuildingBlock: KUMBUR_clean_sbu_1, # of connection points: 6
#     Node 13, Type 0, BuildingBlock: KUMBUR_clean_sbu_1, # of connection points: 6
#     Node 14, Type 0, BuildingBlock: KUMBUR_clean_sbu_1, # of connection points: 6
#     Node 15, Type 0, BuildingBlock: KUMBUR_clean_sbu_1, # of connection points: 6
#     Edge 16, Type (0, 0), BuildingBlock: UVAHIK_clean_linker_0, # of connection points: 2
#     Edge 17, Type (0, 0), BuildingBlock: UVAHIK_clean_linker_0, # of connection points: 2
#     Edge 18, Type (0, 0), BuildingBlock: UVAHIK_clean_linker_0, # of connection points: 2
#     Edge 19, Type (0, 0), BuildingBlock: UVAHIK_clean_linker_0, # of connection points: 2
#     Edge 20, Type (0, 0), BuildingBlock: UVAHIK_clean_linker_0, # of connection points: 2
#     Edge 21, Type (0, 0), BuildingBlock: UVAHIK_clean_linker_0, # of connection points: 2
#     Edge 22, Type (0, 0), BuildingBlock: UVAHIK_clean_linker_0, # of connection points: 2
#     Edge 23, Type (0, 0), BuildingBlock: UVAHIK_clean_linker_0, # of connection points: 2
#     Edge 24, Type (0, 0), BuildingBlock: UVAHIK_clean_linker_0, # of connection points: 2
#     Edge 25, Type (0, 0), BuildingBlock: UVAHIK_clean_linker_0, # of connection points: 2
#     Edge 26, Type (0, 0), BuildingBlock: UVAHIK_clean_linker_0, # of connection points: 2
#     Edge 27, Type (0, 0), BuildingBlock: UVAHIK_clean_linker_0, # of connection points: 2
#     Edge 28, Type (0, 0), BuildingBlock: UVAHIK_clean_linker_0, # of connection points: 2
#     Edge 29, Type (0, 0), BuildingBlock: UVAHIK_clean_linker_0, # of connection points: 2
#     Edge 30, Type (0, 0), BuildingBlock: UVAHIK_clean_linker_0, # of connection points: 2
#     Edge 31, Type (0, 0), BuildingBlock: UVAHIK_clean_linker_0, # of connection points: 2
#     Edge 32, Type (0, 0), BuildingBlock: UVAHIK_clean_linker_0, # of connection points: 2
#     Edge 33, Type (0, 0), BuildingBlock: UVAHIK_clean_linker_0, # of connection points: 2
#     Edge 34, Type (0, 0), BuildingBlock: UVAHIK_clean_linker_0, # of connection points: 2
#     Edge 35, Type (0, 0), BuildingBlock: UVAHIK_clean_linker_0, # of connection points: 2
#     Edge 36, Type (0, 0), BuildingBlock: UVAHIK_clean_linker_0, # of connection points: 2
#     Edge 37, Type (0, 0), BuildingBlock: UVAHIK_clean_linker_0, # of connection points: 2
#     Edge 38, Type (0, 0), BuildingBlock: UVAHIK_clean_linker_0, # of connection points: 2
#     Edge 39, Type (0, 0), BuildingBlock: UVAHIK_clean_linker_0, # of connection points: 2
#     Edge 40, Type (0, 0), BuildingBlock: UVAHIK_clean_linker_0, # of connection points: 2
#     Edge 41, Type (0, 0), BuildingBlock: UVAHIK_clean_linker_0, # of connection points: 2
#     Edge 42, Type (0, 0), BuildingBlock: UVAHIK_clean_linker_0, # of connection points: 2
#     Edge 43, Type (0, 0), BuildingBlock: UVAHIK_clean_linker_0, # of connection points: 2
#     Edge 44, Type (0, 0), BuildingBlock: UVAHIK_clean_linker_0, # of connection points: 2
#     Edge 45, Type (0, 0), BuildingBlock: UVAHIK_clean_linker_0, # of connection points: 2
#     Edge 46, Type (0, 0), BuildingBlock: UVAHIK_clean_linker_0, # of connection points: 2
#     Edge 47, Type (0, 0), BuildingBlock: UVAHIK_clean_linker_0, # of connection points: 2
#     Edge 48, Type (0, 0), BuildingBlock: UVAHIK_clean_linker_0, # of connection points: 2
#     Edge 49, Type (0, 0), BuildingBlock: UVAHIK_clean_linker_0, # of connection points: 2
#     Edge 50, Type (0, 0), BuildingBlock: UVAHIK_clean_linker_0, # of connection points: 2
#     Edge 51, Type (0, 0), BuildingBlock: UVAHIK_clean_linker_0, # of connection points: 2
#     Edge 52, Type (0, 0), BuildingBlock: UVAHIK_clean_linker_0, # of connection points: 2
#     Edge 53, Type (0, 0), BuildingBlock: UVAHIK_clean_linker_0, # of connection points: 2
#     Edge 54, Type (0, 0), BuildingBlock: UVAHIK_clean_linker_0, # of connection points: 2
#     Edge 55, Type (0, 0), BuildingBlock: UVAHIK_clean_linker_0, # of connection points: 2
#     Edge 56, Type (0, 0), BuildingBlock: UVAHIK_clean_linker_0, # of connection points: 2
#     Edge 57, Type (0, 0), BuildingBlock: UVAHIK_clean_linker_0, # of connection points: 2
#     Edge 58, Type (0, 0), BuildingBlock: UVAHIK_clean_linker_0, # of connection points: 2
#     Edge 59, Type (0, 0), BuildingBlock: UVAHIK_clean_linker_0, # of connection points: 2
#     Edge 60, Type (0, 0), BuildingBlock: UVAHIK_clean_linker_0, # of connection points: 2
#     Edge 61, Type (0, 0), BuildingBlock: UVAHIK_clean_linker_0, # of connection points: 2
#     Edge 62, Type (0, 0), BuildingBlock: UVAHIK_clean_linker_0, # of connection points: 2
#     Edge 63, Type (0, 0), BuildingBlock: UVAHIK_clean_linker_0, # of connection points: 2
# Relax obj value: 0.164
# Max RMSD: 0.226
# Mean RMSD: 0.222
data_MOF--net-snl--node1-KUMBUR_clean_sbu_1--edge1-UVAHIK_clean_linker_0
_symmetry_space_group_name_H-M    P1
_symmetry_Int_Tables_number       1
_symmetry_cell_setting            triclinic
loop_
_symmetry_equiv_pos_as_xyz
'x, y, z'
_cell_length_a     74.160377
_cell_length_b     74.220552
_cell_length_c     29.333272
_cell_angle_alpha  90.193891
_cell_angle_beta   90.230867
_cell_angle_gamma 90.006895
loop_
_atom_site_label
_atom_site_type_symbol
_atom_site_fract_x
_atom_site_fract_y
_atom_site_fract_z
_atom_type_partial_charge
Tb0 Tb 0.13117 0.62688 0.19851 0.0
C1 C 0.19144 0.63862 0.06734 0.0
N2 N 0.17731 0.64986 0.07488 0.0
C3 C 0.19749 0.67496 0.08172 0.0
C4 C 0.20932 0.64498 0.06895 0.0
C5 C 0.17997 0.66796 0.0802 0.0
C6 C 0.21224 0.66339 0.07669 0.0
C7 C 0.20201 0.60865 0.04881 0.0
C8 C 0.18777 0.62073 0.05771 0.0
C9 C 0.21994 0.61468 0.05226 0.0
C10 C 0.22358 0.63282 0.06225 0.0
Tb11 Tb 0.14933 0.63725 0.07183 0.0
N12 N 0.17024 0.6155 0.05422 0.0
C13 C 0.19778 0.59109 0.03498 0.0
C14 C 0.16617 0.599 0.03604 0.0
C15 C 0.17977 0.58637 0.0276 0.0
H16 H 0.16858 0.6769 0.084 0.0
H17 H 0.17637 0.57315 0.01448 0.0
H18 H 0.12925 0.58167 0.20521 0.0
H19 H 0.08029 0.67593 0.24039 0.0
H20 H 0.1525 0.59559 0.0268 0.0
H21 H 0.2083 0.58138 0.02782 0.0
H22 H 0.11143 0.6648 0.22831 0.0
H23 H 0.19961 0.68925 0.08688 0.0
H24 H 0.23106 0.60555 0.04601 0.0
H25 H 0.23745 0.63738 0.06384 0.0
H26 H 0.1058 0.55829 0.19998 0.0
H27 H 0.22579 0.66883 0.07811 0.0
H28 H 0.05442 0.6551 0.23117 0.0
N29 N 0.11074 0.60357 0.19923 0.0
C30 C 0.09312 0.60847 0.20151 0.0
C31 C 0.10203 0.57238 0.19959 0.0
C32 C 0.0792 0.59554 0.20052 0.0
C33 C 0.11533 0.58573 0.20164 0.0
C34 C 0.08387 0.57731 0.19801 0.0
N35 N 0.10303 0.63826 0.21097 0.0
C36 C 0.10016 0.6557 0.22423 0.0
C37 C 0.0712 0.63207 0.21522 0.0
C38 C 0.08914 0.62641 0.20869 0.0
C39 C 0.06801 0.65019 0.22594 0.0
C40 C 0.08258 0.662 0.23113 0.0
H41 H 0.07359 0.56694 0.19709 0.0
H42 H 0.05025 0.59147 0.20292 0.0
H43 H 0.04326 0.6235 0.21602 0.0
O44 O 0.14355 0.63984 0.25437 0.0
O45 O 0.11439 0.64089 0.14802 0.0
O46 O 0.1208 0.62897 0.0778 0.0
O47 O 0.12779 0.61604 0.26429 0.0
O48 O 0.14153 0.65459 0.18659 0.0
O49 O 0.13861 0.6606 0.10852 0.0
O50 O 0.15277 0.63447 1.00083 0.0
O51 O 0.16623 0.64051 0.13383 0.0
O52 O 0.15799 0.61727 0.17975 0.0
O53 O 0.14116 0.65844 0.02906 0.0
O54 O 0.13521 0.61176 0.08275 0.0
O55 O 0.14203 0.60421 0.15722 0.0
C56 C 0.10911 0.6346 0.10842 0.0
C57 C 0.15081 0.62186 0.31796 0.0
C58 C 0.16004 0.61949 0.3978 0.0
C59 C 0.17612 0.61111 0.38377 0.0
C60 C 0.16669 0.61314 0.30476 0.0
C61 C 0.17934 0.60789 0.33751 0.0
C62 C 0.14744 0.62486 0.36447 0.0
C63 C 0.14014 0.6658 0.15152 0.0
C64 C 0.13773 0.6282 0.28385 0.0
C65 C 0.06116 0.60118 0.20419 0.0
C66 C 0.05717 0.61942 0.21175 0.0
C67 C 0.17047 0.62793 0.16345 0.0
C68 C 0.13032 0.6487 0.95698 0.0
C69 C 0.12144 0.64503 0.87689 0.0
C70 C 0.10328 0.64701 0.88993 0.0
C71 C 0.1121 0.65034 0.96908 0.0
C72 C 0.13491 0.64595 0.91097 0.0
C73 C 0.0987 0.64955 0.93563 0.0
C74 C 0.13735 0.59973 0.11515 0.0
C75 C 0.14469 0.64954 0.99188 0.0
H76 H 0.18602 0.60675 0.40862 0.0
H77 H 0.16921 0.61043 0.2692 0.0
H78 H 0.19165 0.60125 0.32704 0.0
H79 H 0.13512 0.6316 0.37465 0.0
H80 H 0.09256 0.64679 0.86478 0.0
H81 H 0.10819 0.65227 1.0043 0.0
H82 H 0.14897 0.64425 0.902 0.0
H83 H 0.08468 0.65097 0.94516 0.0
Tb84 Tb 0.63128 0.89512 0.33037 0.0
C85 C 0.69096 0.88006 0.45943 0.0
N86 N 0.67608 0.8697 0.45264 0.0
C87 C 0.69467 0.84352 0.44347 0.0
C88 C 0.7084 0.8727 0.45617 0.0
C89 C 0.67762 0.8515 0.44665 0.0
C90 C 0.71013 0.8542 0.44765 0.0
C91 C 0.70355 0.90939 0.47663 0.0
C92 C 0.6885 0.89815 0.46905 0.0
C93 C 0.72103 0.90231 0.47193 0.0
C94 C 0.72345 0.884 0.46172 0.0
Tb95 Tb 0.64893 0.88403 0.45699 0.0
N96 N 0.67136 0.90448 0.47319 0.0
C97 C 0.70056 0.92723 0.49015 0.0
C98 C 0.66852 0.9213 0.49086 0.0
C99 C 0.68297 0.93308 0.49827 0.0
H100 H 0.6657 0.84322 0.44361 0.0
H101 H 0.68055 0.94655 0.51116 0.0
H102 H 0.63057 0.9401 0.31986 0.0
H103 H 0.57914 0.84717 0.28834 0.0
H104 H 0.65522 0.92557 0.50071 0.0
H105 H 0.71174 0.93632 0.49636 0.0
H106 H 0.61056 0.85759 0.30035 0.0
H107 H 0.69587 0.82916 0.43772 0.0
H108 H 0.73276 0.91079 0.47714 0.0
H109 H 0.737 0.87866 0.45889 0.0
H110 H 0.6078 0.96425 0.32342 0.0
H111 H 0.72331 0.848 0.44489 0.0
H112 H 0.5538 0.86865 0.29684 0.0
N113 N 0.61146 0.91889 0.32725 0.0
C114 C 0.59371 0.91446 0.32502 0.0
C115 C 0.60363 0.95028 0.32474 0.0
C116 C 0.58015 0.92776 0.32513 0.0
C117 C 0.61654 0.93654 0.32372 0.0
C118 C 0.58534 0.94588 0.32653 0.0
N119 N 0.60286 0.88442 0.31684 0.0
C120 C 0.59954 0.86699 0.30404 0.0
C121 C 0.57118 0.89135 0.31214 0.0
C122 C 0.58926 0.8966 0.31858 0.0
C123 C 0.56752 0.87326 0.30199 0.0
C124 C 0.5818 0.86109 0.2972 0.0
H125 H 0.57535 0.95653 0.3267 0.0
H126 H 0.55131 0.93255 0.32237 0.0
H127 H 0.54345 0.90059 0.31101 0.0
O128 O 0.64377 0.88154 0.27599 0.0
O129 O 0.61386 0.88191 0.38041 0.0
O130 O 0.62063 0.89329 0.45105 0.0
O131 O 0.62873 0.90567 0.26392 0.0
O132 O 0.64034 0.86693 0.34301 0.0
O133 O 0.63685 0.86105 0.4209 0.0
O134 O 0.65301 0.88712 0.52778 0.0
O135 O 0.66527 0.88022 0.39464 0.0
O136 O 0.65829 0.90413 0.34995 0.0
O137 O 0.64039 0.86339 0.50088 0.0
O138 O 0.63598 0.9103 0.44687 0.0
O139 O 0.64214 0.91786 0.37204 0.0
C140 C 0.60875 0.88839 0.41985 0.0
C141 C 0.65227 0.89899 0.21261 0.0
C142 C 0.66202 0.90135 0.13331 0.0
C143 C 0.67869 0.90817 0.14858 0.0
C144 C 0.66885 0.90607 0.22708 0.0
C145 C 0.68201 0.91058 0.19517 0.0
C146 C 0.64884 0.8968 0.16576 0.0
C147 C 0.63835 0.85575 0.37799 0.0
C148 C 0.63861 0.89318 0.24568 0.0
C149 C 0.56196 0.92256 0.32167 0.0
C150 C 0.55748 0.90437 0.31507 0.0
C151 C 0.67029 0.89296 0.36645 0.0
C152 C 0.63044 0.87394 0.57286 0.0
C153 C 0.62223 0.87824 0.65306 0.0
C154 C 0.60392 0.87703 0.6404 0.0
C155 C 0.61208 0.87307 0.56116 0.0
C156 C 0.63544 0.87661 0.61875 0.0
C157 C 0.59895 0.87455 0.59484 0.0
C158 C 0.63796 0.92238 0.41443 0.0
C159 C 0.64451 0.87238 0.5376 0.0
H160 H 0.68906 0.91188 0.12445 0.0
H161 H 0.6716 0.90799 0.26295 0.0
H162 H 0.69484 0.91594 0.20659 0.0
H163 H 0.63604 0.89121 0.15463 0.0
H164 H 0.59338 0.8778 0.66574 0.0
H165 H 0.60787 0.87122 0.52605 0.0
H166 H 0.64961 0.8777 0.62744 0.0
H167 H 0.58482 0.87372 0.58562 0.0
Tb168 Tb 0.37507 0.38185 0.57449 0.0
C169 C 0.3826 0.43798 0.7222 0.0
N170 N 0.39482 0.42506 0.71168 0.0
C171 C 0.41851 0.44704 0.71238 0.0
C172 C 0.38766 0.4562 0.72578 0.0
C173 C 0.41276 0.42912 0.70899 0.0
C174 C 0.40585 0.4607 0.71993 0.0
C175 C 0.35225 0.44538 0.74548 0.0
C176 C 0.3652 0.43261 0.73169 0.0
C177 C 0.35684 0.46377 0.74639 0.0
C178 C 0.37454 0.46917 0.7366 0.0
Tb179 Tb 0.38415 0.39636 0.70515 0.0
N180 N 0.36152 0.41469 0.73153 0.0
C181 C 0.33542 0.4392 0.7601 0.0
C182 C 0.34587 0.40858 0.75051 0.0
C183 C 0.33237 0.42068 0.76364 0.0
H184 H 0.42251 0.41855 0.70298 0.0
H185 H 0.31975 0.41572 0.7771 0.0
H186 H 0.32965 0.37982 0.56754 0.0
H187 H 0.42416 0.33211 0.52524 0.0
H188 H 0.34373 0.39434 0.75571 0.0
H189 H 0.32505 0.44856 0.7709 0.0
H190 H 0.413 0.36288 0.54212 0.0
H191 H 0.43266 0.45032 0.709 0.0
H192 H 0.34701 0.47382 0.75633 0.0
H193 H 0.37807 0.48331 0.73896 0.0
H194 H 0.30645 0.35621 0.57005 0.0
H195 H 0.41033 0.47456 0.72249 0.0
H196 H 0.40341 0.30605 0.53062 0.0
N197 N 0.35175 0.36141 0.57153 0.0
C198 C 0.35674 0.34389 0.56659 0.0
C199 C 0.32058 0.35253 0.56997 0.0
C200 C 0.34387 0.3299 0.56574 0.0
C201 C 0.33386 0.36591 0.56963 0.0
C202 C 0.32562 0.33441 0.5691 0.0
N203 N 0.38651 0.35407 0.5582 0.0
C204 C 0.40393 0.35153 0.5446 0.0
C205 C 0.38038 0.3224 0.54927 0.0
C206 C 0.37469 0.34014 0.5585 0.0
C207 C 0.39848 0.31949 0.53792 0.0
C208 C 0.41024 0.33416 0.53493 0.0
H209 H 0.3153 0.32407 0.56866 0.0
H210 H 0.33992 0.30105 0.55923 0.0
H211 H 0.37193 0.29449 0.54465 0.0
O212 O 0.38747 0.39574 0.52039 0.0
O213 O 0.38891 0.36413 0.62363 0.0
O214 O 0.37486 0.36864 0.69179 0.0
O215 O 0.36459 0.37884 0.50816 0.0
O216 O 0.40291 0.39133 0.58833 0.0
O217 O 0.40827 0.38868 0.66683 0.0
O218 O 0.38337 0.397 0.77771 0.0
O219 O 0.3886 0.41544 0.64814 0.0
O220 O 0.36634 0.40857 0.59689 0.0
O221 O 0.40529 0.38403 0.74121 0.0
O222 O 0.35851 0.38326 0.68733 0.0
O223 O 0.35225 0.39297 0.61442 0.0
C224 C 0.3819 0.35774 0.66123 0.0
C225 C 0.36861 0.40306 0.45799 0.0
C226 C 0.36472 0.4133 0.3793 0.0
C227 C 0.35352 0.42726 0.39536 0.0
C228 C 0.35726 0.41688 0.47309 0.0
C229 C 0.34989 0.42903 0.44192 0.0
C230 C 0.37237 0.40134 0.41127 0.0
C231 C 0.41383 0.39039 0.62424 0.0
C232 C 0.37608 0.38982 0.49008 0.0
C233 C 0.34958 0.31201 0.55938 0.0
C234 C 0.3678 0.30827 0.55095 0.0
C235 C 0.37716 0.42037 0.61609 0.0
C236 C 0.40725 0.38305 0.82395 0.0
C237 C 0.40781 0.38168 0.90736 0.0
C238 C 0.42396 0.37182 0.90512 0.0
C239 C 0.42345 0.37324 0.82285 0.0
C240 C 0.39954 0.38743 0.8665 0.0
C241 C 0.43174 0.36772 0.86318 0.0
C242 C 0.34697 0.38801 0.65545 0.0
C243 C 0.39842 0.38815 0.78054 0.0
H244 H 0.34719 0.43658 0.37191 0.0
H245 H 0.35393 0.41807 0.50881 0.0
H246 H 0.34111 0.43969 0.45379 0.0
H247 H 0.38123 0.39062 0.39995 0.0
H248 H 0.4307 0.36741 0.93597 0.0
H249 H 0.42972 0.36972 0.79074 0.0
H250 H 0.38701 0.39492 0.86786 0.0
H251 H 0.44421 0.36016 0.86191 0.0
Tb252 Tb 0.87573 0.13991 0.94975 0.0
C253 C 0.88623 0.08463 0.79092 0.0
N254 N 0.89595 0.09629 0.81714 0.0
C255 C 0.91808 0.0734 0.83101 0.0
C256 C 0.89181 0.06664 0.78493 0.0
C257 C 0.91196 0.09112 0.8361 0.0
C258 C 0.90794 0.06108 0.80551 0.0
C259 C 0.85934 0.07881 0.74585 0.0
C260 C 0.87024 0.09066 0.77154 0.0
C261 C 0.86483 0.06084 0.73977 0.0
C262 C 0.88104 0.05478 0.75917 0.0
Tb263 Tb 0.88514 0.12501 0.81984 0.0
N264 N 0.86537 0.10812 0.77811 0.0
C265 C 0.84326 0.08539 0.72708 0.0
C266 C 0.84991 0.11474 0.75899 0.0
C267 C 0.83855 0.10345 0.73361 0.0
H268 H 0.92008 0.10056 0.85507 0.0
H269 H 0.82626 0.10872 0.71877 0.0
H270 H 0.83138 0.14896 0.93385 0.0
H271 H 0.92944 0.18206 0.01348 0.0
H272 H 0.8465 0.12882 0.76245 0.0
H273 H 0.83447 0.0767 0.70723 0.0
H274 H 0.91514 0.15339 0.99012 0.0
H275 H 0.93068 0.06928 0.84657 0.0
H276 H 0.85663 0.05152 0.72013 0.0
H277 H 0.88507 0.04088 0.75426 0.0
H278 H 0.8125 0.17569 0.92464 0.0
H279 H 0.91269 0.04735 0.80179 0.0
H280 H 0.91214 0.21053 1.0095 0.0
N281 N 0.8559 0.16366 0.943 0.0
C282 C 0.86271 0.18006 0.95503 0.0
C283 C 0.82674 0.17718 0.93195 0.0
C284 C 0.8521 0.19581 0.95271 0.0
C285 C 0.83777 0.16196 0.93534 0.0
C286 C 0.83404 0.19424 0.93958 0.0
N287 N 0.89007 0.16557 0.97285 0.0
C288 C 0.9075 0.16575 0.98818 0.0
C289 C 0.88788 0.19766 0.98411 0.0
C290 C 0.88026 0.181 0.97125 0.0
C291 C 0.90578 0.19799 0.99941 0.0
C292 C 0.91561 0.18195 1.00157 0.0
H293 H 0.82542 0.206 0.9374 0.0
H294 H 0.85178 0.22477 0.96283 0.0
H295 H 0.88316 0.22639 0.99007 0.0
O296 O 0.88324 0.13819 0.01914 0.0
O297 O 0.88947 0.15826 0.9025 0.0
O298 O 0.87632 0.15295 0.83295 0.0
O299 O 0.85649 0.13156 0.99794 0.0
O300 O 0.90286 0.12827 0.93897 0.0
O301 O 0.90867 0.13258 0.86157 0.0
O302 O 0.88458 0.12948 0.7482 0.0
O303 O 0.87611 0.10328 0.86709 0.0
O304 O 0.88554 0.11277 0.93801 0.0
O305 O 0.90927 0.13259 0.78815 0.0
O306 O 0.86017 0.13865 0.83658 0.0
O307 O 0.85326 0.1283 0.90797 0.0
C308 C 0.88355 0.16405 0.86305 0.0
C309 C 0.86001 0.14506 0.07089 0.0
C310 C 0.85985 0.15261 0.15225 0.0
C311 C 0.84734 0.16639 0.14324 0.0
C312 C 0.84745 0.15887 0.063 0.0
C313 C 0.84117 0.16943 0.09896 0.0
C314 C 0.86607 0.14186 0.11577 0.0
C315 C 0.91402 0.13055 0.90425 0.0
C316 C 0.86714 0.1342 0.03262 0.0
C317 C 0.85968 0.21252 0.96485 0.0
C318 C 0.87752 0.21343 0.98059 0.0
C319 C 0.87886 0.10037 0.91104 0.0
C320 C 0.91189 0.13832 0.70673 0.0
C321 C 0.91379 0.1434 0.62441 0.0
C322 C 0.93173 0.14912 0.63017 0.0
C323 C 0.92988 0.14403 0.7113 0.0
C324 C 0.90391 0.13784 0.66292 0.0
C325 C 0.9397 0.14934 0.67325 0.0
C326 C 0.84856 0.13204 0.86547 0.0
C327 C 0.90167 0.13331 0.74805 0.0
H328 H 0.84219 0.17474 0.1706 0.0
H329 H 0.84244 0.16154 0.02912 0.0
H330 H 0.83149 0.18004 0.09248 0.0
H331 H 0.87586 0.13131 0.12212 0.0
H332 H 0.93966 0.15331 0.60112 0.0
H333 H 0.93639 0.14452 0.74442 0.0
H334 H 0.89004 0.13351 0.65885 0.0
H335 H 0.95354 0.15373 0.6772 0.0
Tb336 Tb 0.13225 0.39571 0.82936 0.0
C337 C 0.19275 0.38593 0.95967 0.0
N338 N 0.17898 0.3741 0.95382 0.0
C339 C 0.20001 0.34969 0.94766 0.0
C340 C 0.21083 0.38024 0.95739 0.0
C341 C 0.18226 0.35605 0.94984 0.0
C342 C 0.21437 0.36187 0.95076 0.0
C343 C 0.20237 0.41638 0.97638 0.0
C344 C 0.18852 0.40371 0.96863 0.0
C345 C 0.22047 0.41104 0.97202 0.0
C346 C 0.2247 0.39298 0.96257 0.0
Tb347 Tb 0.15055 0.38571 0.9566 0.0
N348 N 0.17085 0.40825 0.97305 0.0
C349 C 0.19761 0.43379 0.99021 0.0
C350 C 0.16637 0.42457 0.99156 0.0
C351 C 0.17955 0.43777 0.9989 0.0
H352 H 0.17117 0.34666 0.94737 0.0
H353 H 0.17579 0.45087 0.01214 0.0
H354 H 0.13331 0.4407 0.81823 0.0
H355 H 0.07861 0.35013 0.78373 0.0
H356 H 0.15269 0.42742 1.00167 0.0
H357 H 0.20783 0.44395 0.99651 0.0
H358 H 0.11034 0.35928 0.7976 0.0
H359 H 0.2026 0.33544 0.94344 0.0
H360 H 0.2313 0.42063 0.97731 0.0
H361 H 0.23871 0.38895 0.96042 0.0
H362 H 0.11146 0.4657 0.82104 0.0
H363 H 0.22809 0.35693 0.94885 0.0
H364 H 0.05402 0.37244 0.79282 0.0
N365 N 0.11337 0.42024 0.82632 0.0
C366 C 0.09547 0.41649 0.82448 0.0
C367 C 0.10677 0.45191 0.82278 0.0
C368 C 0.08244 0.43031 0.824 0.0
C369 C 0.11913 0.43768 0.82198 0.0
C370 C 0.08832 0.44822 0.82486 0.0
N371 N 0.10349 0.38614 0.81588 0.0
C372 C 0.09961 0.36901 0.80166 0.0
C373 C 0.07213 0.3943 0.81052 0.0
C374 C 0.09035 0.3988 0.81807 0.0
C375 C 0.06786 0.37646 0.79898 0.0
C376 C 0.08171 0.36383 0.79376 0.0
H377 H 0.07876 0.45926 0.82463 0.0
H378 H 0.05384 0.43625 0.82005 0.0
H379 H 0.04482 0.40468 0.80772 0.0
O380 O 0.14596 0.38273 0.7758 0.0
O381 O 0.11533 0.3815 0.87898 0.0
O382 O 0.12182 0.3932 0.94978 0.0
O383 O 0.12867 0.40516 0.76225 0.0
O384 O 0.14086 0.36743 0.84211 0.0
O385 O 0.14037 0.3619 0.92082 0.0
O386 O 0.15422 0.38871 0.02757 0.0
O387 O 0.16683 0.38164 0.89429 0.0
O388 O 0.15904 0.40517 0.84905 0.0
O389 O 0.14286 0.36453 0.99979 0.0
O390 O 0.13572 0.41078 0.94525 0.0
O391 O 0.14319 0.41813 0.87151 0.0
C392 C 0.11016 0.38726 0.91918 0.0
C393 C 0.15251 0.40026 0.71096 0.0
C394 C 0.16169 0.403 0.63137 0.0
C395 C 0.17737 0.41209 0.64576 0.0
C396 C 0.16793 0.40978 0.72452 0.0
C397 C 0.18038 0.41553 0.69207 0.0
C398 C 0.14933 0.39705 0.66439 0.0
C399 C 0.14089 0.35642 0.87787 0.0
C400 C 0.13963 0.39346 0.74473 0.0
C401 C 0.06408 0.42583 0.81997 0.0
C402 C 0.05894 0.40785 0.81295 0.0
C403 C 0.1713 0.3941 0.86471 0.0
C404 C 0.13203 0.37433 0.0715 0.0
C405 C 0.12321 0.37786 0.15147 0.0
C406 C 0.10505 0.37579 0.13817 0.0
C407 C 0.1138 0.37261 0.05914 0.0
C408 C 0.13665 0.37706 0.11758 0.0
C409 C 0.10043 0.37329 0.09238 0.0
C410 C 0.13777 0.42273 0.91272 0.0
C411 C 0.14636 0.37357 0.0368 0.0
H412 H 0.18708 0.41688 0.62112 0.0
H413 H 0.17022 0.41277 0.76009 0.0
H414 H 0.19235 0.42276 0.70281 0.0
H415 H 0.13732 0.38978 0.65391 0.0
H416 H 0.09435 0.37591 0.16316 0.0
H417 H 0.10987 0.37069 0.02385 0.0
H418 H 0.15071 0.37883 0.12675 0.0
H419 H 0.08641 0.3718 0.08265 0.0
Tb420 Tb 0.88944 0.89775 0.1923 0.0
C421 C 0.83664 0.85649 0.06078 0.0
N422 N 0.85478 0.85429 0.06479 0.0
C423 C 0.85122 0.82221 0.06049 0.0
C424 C 0.825 0.84154 0.05741 0.0
C425 C 0.86222 0.83747 0.06361 0.0
C426 C 0.83251 0.82423 0.05764 0.0
C427 C 0.81101 0.87676 0.0571 0.0
C428 C 0.82974 0.87386 0.06056 0.0
C429 C 0.79933 0.86191 0.05387 0.0
C430 C 0.8063 0.84434 0.05403 0.0
Tb431 Tb 0.87123 0.88018 0.07123 0.0
N432 N 0.84143 0.88787 0.06568 0.0
C433 C 0.80462 0.8945 0.05728 0.0
C434 C 0.83533 0.90521 0.0638 0.0
C435 C 0.81686 0.90878 0.0602 0.0
H436 H 0.87666 0.83585 0.06387 0.0
H437 H 0.81207 0.92255 0.05949 0.0
H438 H 0.8965 0.94158 0.18364 0.0
H439 H 0.93527 0.84238 0.22865 0.0
H440 H 0.84457 0.91634 0.0649 0.0
H441 H 0.79032 0.89732 0.05472 0.0
H442 H 0.90579 0.85693 0.223 0.0
H443 H 0.85718 0.8089 0.05987 0.0
H444 H 0.78488 0.86386 0.0513 0.0
H445 H 0.79712 0.83302 0.05152 0.0
H446 H 0.92249 0.96231 0.18186 0.0
H447 H 0.82403 0.81238 0.05516 0.0
H448 H 0.96307 0.86042 0.22021 0.0
N449 N 0.91253 0.9181 0.19163 0.0
C450 C 0.92939 0.91134 0.19763 0.0
C451 C 0.92464 0.94798 0.18605 0.0
C452 C 0.94466 0.92266 0.19707 0.0
C453 C 0.90993 0.93619 0.18659 0.0
C454 C 0.94209 0.94119 0.19109 0.0
N455 N 0.9162 0.88244 0.20251 0.0
C456 C 0.91753 0.86473 0.21488 0.0
C457 C 0.94862 0.88531 0.20839 0.0
C458 C 0.93131 0.89289 0.20267 0.0
C459 C 0.95003 0.86678 0.2158 0.0
C460 C 0.93439 0.85652 0.22009 0.0
H461 H 0.95347 0.95034 0.19043 0.0
H462 H 0.97383 0.92358 0.20116 0.0
H463 H 0.97731 0.89087 0.21128 0.0
O464 O 0.88733 0.88734 0.25872 0.0
O465 O 0.90575 0.90195 0.13055 0.0
O466 O 0.90037 0.87723 0.08538 0.0
O467 O 0.88737 0.9158 0.2477 0.0
O468 O 0.88002 0.86938 0.18448 0.0
O469 O 0.88801 0.86211 0.11102 0.0
O470 O 0.8732 0.89501 1.01048 0.0
O471 O 0.85266 0.87879 0.13032 0.0
O472 O 0.86056 0.90167 0.18012 0.0
O473 O 0.87407 0.86613 1.00919 0.0
O474 O 0.87768 0.90889 0.07812 0.0
O475 O 0.87464 0.91853 0.15337 0.0
C476 C 0.91137 0.88967 0.10166 0.0
C477 C 0.87141 0.90496 0.3116 0.0
C478 C 0.86166 0.90366 0.3911 0.0
C479 C 0.84387 0.90712 0.37668 0.0
C480 C 0.85363 0.90853 0.29808 0.0
C481 C 0.83993 0.90956 0.33049 0.0
C482 C 0.87539 0.90259 0.35808 0.0
C483 C 0.88407 0.85732 0.1528 0.0
C484 C 0.88588 0.90309 0.2777 0.0
C485 C 0.96193 0.91512 0.20184 0.0
C486 C 0.96391 0.89649 0.20741 0.0
C487 C 0.84873 0.89028 0.16317 0.0
C488 C 0.89007 0.88143 0.95186 0.0
C489 C 0.89985 0.88439 0.87266 0.0
C490 C 0.91787 0.88296 0.8875 0.0
C491 C 0.90811 0.88005 0.96583 0.0
C492 C 0.88599 0.88361 0.90538 0.0
C493 C 0.92192 0.88083 0.93373 0.0
C494 C 0.87499 0.92163 0.10886 0.0
C495 C 0.87532 0.88073 0.9852 0.0
H496 H 0.83304 0.90821 0.40118 0.0
H497 H 0.85038 0.9105 0.26257 0.0
H498 H 0.82622 0.9123 0.31977 0.0
H499 H 0.88912 0.89963 0.36841 0.0
H500 H 0.92886 0.88323 0.86332 0.0
H501 H 0.91152 0.87834 1.00141 0.0
H502 H 0.87202 0.88493 0.89488 0.0
H503 H 0.93583 0.8797 0.94471 0.0
Tb504 Tb 0.37653 0.63752 0.44765 0.0
C505 C 0.40706 0.58231 0.32234 0.0
N506 N 0.4114 0.60011 0.32336 0.0
C507 C 0.44287 0.5924 0.3248 0.0
C508 C 0.42042 0.56885 0.32497 0.0
C509 C 0.4291 0.60521 0.32131 0.0
C510 C 0.4385 0.57414 0.3276 0.0
C511 C 0.38408 0.5594 0.31179 0.0
C512 C 0.38922 0.5776 0.31567 0.0
C513 C 0.39721 0.54589 0.31654 0.0
C514 C 0.41535 0.5506 0.3232 0.0
Tb515 Tb 0.38744 0.61972 0.32084 0.0
N516 N 0.37685 0.59103 0.31266 0.0
C517 C 0.36596 0.5554 0.30266 0.0
C518 C 0.35935 0.58732 0.30118 0.0
C519 C 0.3536 0.56944 0.29666 0.0
H520 H 0.43274 0.61911 0.31603 0.0
H521 H 0.33964 0.56649 0.28868 0.0
H522 H 0.33554 0.65407 0.43535 0.0
H523 H 0.43722 0.66798 0.5173 0.0
H524 H 0.34981 0.59816 0.29649 0.0
H525 H 0.36145 0.54157 0.29937 0.0
H526 H 0.41693 0.64279 0.49838 0.0
H527 H 0.45684 0.59661 0.32444 0.0
H528 H 0.39353 0.53178 0.31423 0.0
H529 H 0.42541 0.54006 0.32567 0.0
H530 H 0.32109 0.68414 0.43369 0.0
H531 H 0.4492 0.56423 0.32971 0.0
H532 H 0.42691 0.69942 0.50713 0.0
N533 N 0.3618 0.66453 0.44782 0.0
C534 C 0.37185 0.67928 0.458 0.0
C535 C 0.33542 0.68297 0.44023 0.0
C536 C 0.36425 0.69667 0.45757 0.0
C537 C 0.34361 0.66598 0.44109 0.0
C538 C 0.34583 0.69841 0.44785 0.0
N539 N 0.39608 0.65962 0.47193 0.0
C540 C 0.41256 0.65638 0.49136 0.0
C541 C 0.40057 0.69161 0.48184 0.0
C542 C 0.38972 0.67675 0.46966 0.0
C543 C 0.41811 0.68838 0.49748 0.0
C544 C 0.42399 0.67066 0.50316 0.0
H545 H 0.33947 0.71154 0.44708 0.0
H546 H 0.36972 0.72515 0.4667 0.0
H547 H 0.40154 0.72071 0.48835 0.0
O548 O 0.37678 0.64062 0.51919 0.0
O549 O 0.37131 0.65429 0.38754 0.0
O550 O 0.3935 0.64833 0.33559 0.0
O551 O 0.35703 0.62392 0.48635 0.0
O552 O 0.40436 0.62819 0.43288 0.0
O553 O 0.40922 0.63428 0.3565 0.0
O554 O 0.37275 0.62656 0.26196 0.0
O555 O 0.37606 0.60236 0.37506 0.0
O556 O 0.39009 0.6116 0.44003 0.0
O557 O 0.40009 0.61768 0.25669 0.0
O558 O 0.36019 0.63006 0.33152 0.0
O559 O 0.35345 0.62591 0.40852 0.0
C560 C 0.38338 0.65983 0.35835 0.0
C561 C 0.36718 0.61497 0.5598 0.0
C562 C 0.37269 0.60675 0.63959 0.0
C563 C 0.373 0.58848 0.6264 0.0
C564 C 0.36757 0.59664 0.54772 0.0
C565 C 0.37052 0.58353 0.58085 0.0
C566 C 0.36978 0.61993 0.60575 0.0
C567 C 0.41512 0.63253 0.39875 0.0
C568 C 0.36391 0.62904 0.52515 0.0
C569 C 0.37521 0.71163 0.46746 0.0
C570 C 0.39335 0.7091 0.47959 0.0
C571 C 0.38381 0.59861 0.41425 0.0
C572 C 0.38956 0.63792 0.2007 0.0
C573 C 0.39021 0.64737 0.1209 0.0
C574 C 0.39426 0.66501 0.13536 0.0
C575 C 0.39368 0.65557 0.21435 0.0
C576 C 0.38796 0.63384 0.154 0.0
C577 C 0.39605 0.66902 0.18175 0.0
C578 C 0.34865 0.62758 0.36504 0.0
C579 C 0.38619 0.62377 0.23463 0.0
H580 H 0.37485 0.57793 0.65139 0.0
H581 H 0.36546 0.59242 0.51279 0.0
H582 H 0.37073 0.56943 0.57121 0.0
H583 H 0.36968 0.63408 0.61493 0.0
H584 H 0.39624 0.67567 0.11076 0.0
H585 H 0.39493 0.65899 0.25011 0.0
H586 H 0.38455 0.62023 0.14354 0.0
H587 H 0.3992 0.68264 0.19248 0.0
Tb588 Tb 0.64473 0.14034 0.57388 0.0
C589 C 0.632 0.08417 0.71503 0.0
N590 N 0.62078 0.09795 0.70412 0.0
C591 C 0.59599 0.07737 0.69742 0.0
C592 C 0.62586 0.06623 0.71524 0.0
C593 C 0.60276 0.09498 0.69765 0.0
C594 C 0.60765 0.06291 0.7055 0.0
C595 C 0.66148 0.07453 0.74068 0.0
C596 C 0.64954 0.0883 0.72713 0.0
C597 C 0.65576 0.05648 0.73891 0.0
C598 C 0.63797 0.05233 0.72618 0.0
Tb599 Tb 0.63331 0.12602 0.70267 0.0
N600 N 0.65444 0.10593 0.72894 0.0
C601 C 0.6785 0.07939 0.75741 0.0
C602 C 0.6703 0.11075 0.74955 0.0
C603 C 0.68276 0.0976 0.76283 0.0
H604 H 0.59378 0.10617 0.69129 0.0
H605 H 0.69555 0.10153 0.77777 0.0
H606 H 0.69022 0.14117 0.57104 0.0
H607 H 0.59727 0.19138 0.52259 0.0
H608 H 0.6734 0.12474 0.75613 0.0
H609 H 0.68809 0.06923 0.76817 0.0
H610 H 0.60754 0.1603 0.53923 0.0
H611 H 0.58181 0.07497 0.69095 0.0
H612 H 0.6648 0.04568 0.74866 0.0
H613 H 0.63359 0.0384 0.72609 0.0
H614 H 0.71399 0.1642 0.57551 0.0
H615 H 0.60237 0.04929 0.70529 0.0
H616 H 0.61864 0.2169 0.52994 0.0
N617 N 0.66859 0.16017 0.57258 0.0
C618 C 0.66411 0.1778 0.56744 0.0
C619 C 0.69997 0.16824 0.57407 0.0
C620 C 0.67733 0.19146 0.56796 0.0
C621 C 0.68636 0.15519 0.57252 0.0
C622 C 0.69542 0.18648 0.57282 0.0
N623 N 0.63417 0.1684 0.55692 0.0
C624 C 0.61689 0.17141 0.54241 0.0
C625 C 0.64115 0.19993 0.54926 0.0
C626 C 0.64634 0.18203 0.55821 0.0
C627 C 0.62319 0.20332 0.53704 0.0
C628 C 0.61108 0.18895 0.53293 0.0
H629 H 0.706 0.19655 0.57345 0.0
H630 H 0.68205 0.22021 0.56266 0.0
H631 H 0.65031 0.22763 0.54632 0.0
O632 O 0.63197 0.1271 0.51892 0.0
O633 O 0.63122 0.15871 0.6218 0.0
O634 O 0.64368 0.15355 0.69184 0.0
O635 O 0.65612 0.14229 0.50844 0.0
O636 O 0.61652 0.13142 0.58574 0.0
O637 O 0.61021 0.13602 0.66311 0.0
O638 O 0.63408 0.12486 0.77517 0.0
O639 O 0.62929 0.10753 0.64369 0.0
O640 O 0.65286 0.11357 0.59667 0.0
O641 O 0.61208 0.13798 0.73913 0.0
O642 O 0.65979 0.13819 0.68927 0.0
O643 O 0.66683 0.12887 0.61629 0.0
C644 C 0.63796 0.16476 0.66026 0.0
C645 C 0.6505 0.1184 0.45731 0.0
C646 C 0.65385 0.10817 0.37827 0.0
C647 C 0.66315 0.09289 0.39436 0.0
C648 C 0.65984 0.10315 0.47251 0.0
C649 C 0.66604 0.09041 0.4411 0.0
C650 C 0.64747 0.12081 0.41041 0.0
C651 C 0.60516 0.13378 0.62017 0.0
C652 C 0.64398 0.13214 0.48948 0.0
C653 C 0.67213 0.2095 0.56172 0.0
C654 C 0.65407 0.21373 0.55225 0.0
C655 C 0.64139 0.1021 0.614 0.0
C656 C 0.61021 0.13837 0.822 0.0
C657 C 0.6101 0.13992 0.90543 0.0
C658 C 0.59373 0.14944 0.9035 0.0
C659 C 0.59377 0.14779 0.82122 0.0
C660 C 0.61824 0.13422 0.86445 0.0
C661 C 0.58561 0.15323 0.86171 0.0
C662 C 0.67165 0.13357 0.65812 0.0
C663 C 0.61902 0.13365 0.77833 0.0
H664 H 0.66849 0.08298 0.37085 0.0
H665 H 0.66239 0.10118 0.50849 0.0
H666 H 0.67327 0.07865 0.45299 0.0
H667 H 0.63999 0.13254 0.39912 0.0
H668 H 0.58715 0.15385 0.9345 0.0
H669 H 0.58725 0.15114 0.78924 0.0
H670 H 0.63096 0.12703 0.86565 0.0
H671 H 0.57297 0.16052 0.86068 0.0
Tb672 Tb 0.88813 0.39688 0.82321 0.0
C673 C 0.85954 0.34371 0.958 0.0
N674 N 0.85432 0.36114 0.95258 0.0
C675 C 0.82331 0.35171 0.9507 0.0
C676 C 0.84692 0.32951 0.95751 0.0
C677 C 0.83634 0.36533 0.95235 0.0
C678 C 0.82864 0.33369 0.95227 0.0
C679 C 0.88339 0.32258 0.97669 0.0
C680 C 0.87748 0.34024 0.96743 0.0
C681 C 0.87103 0.30827 0.97402 0.0
C682 C 0.85284 0.31172 0.96422 0.0
Tb683 Tb 0.87732 0.38195 0.95232 0.0
N684 N 0.88913 0.35434 0.96848 0.0
C685 C 0.90147 0.31993 0.98885 0.0
C686 C 0.90652 0.35204 0.98286 0.0
C687 C 0.91303 0.33476 0.99256 0.0
H688 H 0.83185 0.37916 0.95389 0.0
H689 H 0.92693 0.3329 1.00286 0.0
H690 H 0.92713 0.41765 0.83275 0.0
H691 H 0.82546 0.41886 0.74557 0.0
H692 H 0.91542 0.36351 0.98598 0.0
H693 H 0.90656 0.30656 0.99617 0.0
H694 H 0.84806 0.39649 0.76972 0.0
H695 H 0.80914 0.35514 0.94906 0.0
H696 H 0.87533 0.29456 0.9804 0.0
H697 H 0.84337 0.3006 0.96341 0.0
H698 H 0.93855 0.44902 0.82912 0.0
H699 H 0.8185 0.32318 0.95163 0.0
H700 H 0.83217 0.45143 0.75225 0.0
N701 N 0.89994 0.42517 0.81975 0.0
C702 C 0.88843 0.43853 0.80764 0.0
C703 C 0.92439 0.44626 0.8234 0.0
C704 C 0.89424 0.45656 0.80526 0.0
C705 C 0.91792 0.42857 0.82548 0.0
C706 C 0.91243 0.46037 0.81405 0.0
N707 N 0.86653 0.4161 0.7954 0.0
C708 C 0.85083 0.41063 0.77506 0.0
C709 C 0.85881 0.44714 0.7807 0.0
C710 C 0.871 0.43385 0.79579 0.0
C711 C 0.84195 0.44166 0.76417 0.0
C712 C 0.83811 0.42329 0.76038 0.0
H713 H 0.91746 0.47406 0.8125 0.0
H714 H 0.88597 0.48401 0.79129 0.0
H715 H 0.85491 0.47576 0.76965 0.0
O716 O 0.88772 0.39748 0.75064 0.0
O717 O 0.89159 0.41585 0.88132 0.0
O718 O 0.8687 0.4086 0.92981 0.0
O719 O 0.90968 0.3849 0.78813 0.0
O720 O 0.86202 0.38419 0.83754 0.0
O721 O 0.85481 0.39308 0.91082 0.0
O722 O 0.8893 0.39526 1.00843 0.0
O723 O 0.89127 0.3642 0.90366 0.0
O724 O 0.87818 0.36929 0.83435 0.0
O725 O 0.8658 0.37895 0.01725 0.0
O726 O 0.90508 0.39211 0.9409 0.0
O727 O 0.91138 0.38786 0.86342 0.0
C728 C 0.87973 0.42053 0.91248 0.0
C729 C 0.91204 0.3839 0.70543 0.0
C730 C 0.91274 0.38189 0.6221 0.0
C731 C 0.92923 0.37263 0.6251 0.0
C732 C 0.92859 0.37469 0.70729 0.0
C733 C 0.93711 0.36916 0.66738 0.0
C734 C 0.90424 0.38769 0.66252 0.0
C735 C 0.85012 0.38865 0.86871 0.0
C736 C 0.90292 0.38885 0.74849 0.0
C737 C 0.88186 0.47002 0.79285 0.0
C738 C 0.86415 0.46532 0.78063 0.0
C739 C 0.88453 0.35814 0.86523 0.0
C740 C 0.87014 0.40241 0.07019 0.0
C741 C 0.86684 0.41212 0.14961 0.0
C742 C 0.85544 0.42612 0.13473 0.0
C743 C 0.85858 0.41625 0.05626 0.0
C744 C 0.87429 0.40042 0.11668 0.0
C745 C 0.85142 0.42816 0.08839 0.0
C746 C 0.91642 0.39015 0.90635 0.0
C747 C 0.87743 0.38938 0.03723 0.0
H748 H 0.93613 0.36818 0.59458 0.0
H749 H 0.93493 0.37162 0.73968 0.0
H750 H 0.94984 0.36206 0.66923 0.0
H751 H 0.89144 0.39469 0.66055 0.0
H752 H 0.84927 0.43525 0.15892 0.0
H753 H 0.85495 0.41764 0.02073 0.0
H754 H 0.88331 0.3897 0.12707 0.0
H755 H 0.84249 0.43885 0.07743 0.0
Tb756 Tb 0.37108 0.14184 0.56282 0.0
C757 C 0.42853 0.11071 0.6891 0.0
N758 N 0.41209 0.10351 0.6795 0.0
C759 C 0.4256 0.07453 0.66765 0.0
C760 C 0.44428 0.10014 0.68717 0.0
C761 C 0.41036 0.08558 0.66976 0.0
C762 C 0.44266 0.08185 0.67612 0.0
C763 C 0.44631 0.13693 0.70929 0.0
C764 C 0.42948 0.12892 0.69943 0.0
C765 C 0.46211 0.12653 0.70684 0.0
C766 C 0.4611 0.10818 0.69583 0.0
Tb767 Tb 0.3881 0.12271 0.68349 0.0
N768 N 0.41391 0.13865 0.70052 0.0
C769 C 0.44672 0.15508 0.72213 0.0
C770 C 0.41419 0.15582 0.71759 0.0
C771 C 0.43055 0.16445 0.7272 0.0
H772 H 0.39722 0.07974 0.6641 0.0
H773 H 0.43063 0.1782 0.73958 0.0
H774 H 0.37244 0.18656 0.5689 0.0
H775 H 0.31612 0.09493 0.53487 0.0
H776 H 0.40193 0.16286 0.7257 0.0
H777 H 0.45936 0.16176 0.72993 0.0
H778 H 0.34778 0.10363 0.54464 0.0
H779 H 0.42419 0.06035 0.65963 0.0
H780 H 0.47516 0.13252 0.7138 0.0
H781 H 0.47339 0.10032 0.69417 0.0
H782 H 0.35056 0.21162 0.56914 0.0
H783 H 0.45445 0.07326 0.67426 0.0
H784 H 0.29229 0.11823 0.53385 0.0
N785 N 0.35241 0.16626 0.56122 0.0
C786 C 0.33464 0.16259 0.55424 0.0
C787 C 0.34589 0.19788 0.56521 0.0
C788 C 0.3217 0.17649 0.55338 0.0
C789 C 0.35823 0.18363 0.56583 0.0
C790 C 0.32754 0.19429 0.55915 0.0
N791 N 0.3422 0.13161 0.55267 0.0
C792 C 0.33767 0.11396 0.54598 0.0
C793 C 0.31103 0.14032 0.54326 0.0
C794 C 0.32937 0.14471 0.54938 0.0
C795 C 0.30624 0.12217 0.53866 0.0
C796 C 0.31965 0.10897 0.53954 0.0
H797 H 0.31801 0.20536 0.55877 0.0
H798 H 0.29325 0.18265 0.5466 0.0
H799 H 0.28392 0.15102 0.53764 0.0
O800 O 0.37557 0.12967 0.49873 0.0
O801 O 0.35203 0.14246 0.62106 0.0
O802 O 0.35956 0.11874 0.6679 0.0
O803 O 0.37285 0.15832 0.50487 0.0
O804 O 0.3785 0.11326 0.56613 0.0
O805 O 0.37412 0.10273 0.63996 0.0
O806 O 0.38442 0.13049 0.75237 0.0
O807 O 0.40527 0.12001 0.62277 0.0
O808 O 0.39999 0.14521 0.57964 0.0
O809 O 0.38455 0.1027 0.7332 0.0
O810 O 0.37851 0.15115 0.67832 0.0
O811 O 0.38707 0.1596 0.60597 0.0
C812 C 0.34786 0.13048 0.65233 0.0
C813 C 0.39154 0.14764 0.44613 0.0
C814 C 0.40345 0.14792 0.3682 0.0
C815 C 0.41995 0.15441 0.38584 0.0
C816 C 0.40819 0.15383 0.46265 0.0
C817 C 0.42229 0.15717 0.4326 0.0
C818 C 0.38924 0.14456 0.39904 0.0
C819 C 0.37623 0.10006 0.59564 0.0
C820 C 0.37628 0.14501 0.47745 0.0
C821 C 0.30341 0.17216 0.54728 0.0
C822 C 0.29809 0.15414 0.54219 0.0
C823 C 0.41101 0.13288 0.59606 0.0
C824 C 0.39707 0.10994 0.80548 0.0
C825 C 0.4058 0.11342 0.88589 0.0
C826 C 0.42031 0.10156 0.87825 0.0
C827 C 0.41171 0.09816 0.79924 0.0
C828 C 0.39414 0.11751 0.84908 0.0
C829 C 0.42323 0.09409 0.83531 0.0
C830 C 0.38289 0.16366 0.64821 0.0
C831 C 0.38468 0.114 0.76704 0.0
H832 H 0.43106 0.15769 0.36353 0.0
H833 H 0.41021 0.15635 0.49867 0.0
H834 H 0.43505 0.16215 0.44554 0.0
H835 H 0.37642 0.1395 0.38668 0.0
H836 H 0.4293 0.09776 0.90576 0.0
H837 H 0.4142 0.09185 0.76666 0.0
H838 H 0.3829 0.12662 0.85416 0.0
H839 H 0.43439 0.08492 0.83007 0.0
Tb840 Tb 0.63694 0.62142 0.32227 0.0
C841 C 0.65317 0.6809 0.4599 0.0
N842 N 0.66311 0.66613 0.44942 0.0
C843 C 0.68954 0.68448 0.44195 0.0
C844 C 0.66085 0.69825 0.45974 0.0
C845 C 0.68127 0.66753 0.44257 0.0
C846 C 0.67923 0.69994 0.44992 0.0
C847 C 0.62459 0.69331 0.48404 0.0
C848 C 0.63533 0.67843 0.47158 0.0
C849 C 0.6319 0.71076 0.48214 0.0
C850 C 0.65 0.71324 0.46996 0.0
Tb851 Tb 0.64827 0.63918 0.44907 0.0
N852 N 0.62888 0.66131 0.47353 0.0
C853 C 0.60708 0.69012 0.4996 0.0
C854 C 0.61243 0.65811 0.49283 0.0
C855 C 0.60111 0.67242 0.50488 0.0
H856 H 0.68927 0.65559 0.43661 0.0
H857 H 0.58791 0.66976 0.51895 0.0
H858 H 0.59164 0.62086 0.3169 0.0
H859 H 0.68464 0.56815 0.29059 0.0
H860 H 0.60799 0.64453 0.49959 0.0
H861 H 0.59837 0.70118 0.50945 0.0
H862 H 0.67452 0.59983 0.29842 0.0
H863 H 0.70384 0.68561 0.43534 0.0
H864 H 0.62381 0.72238 0.49118 0.0
H865 H 0.65556 0.72674 0.46943 0.0
H866 H 0.56752 0.59838 0.32498 0.0
H867 H 0.68566 0.71305 0.44935 0.0
H868 H 0.6628 0.54325 0.30087 0.0
N869 N 0.61296 0.60183 0.32447 0.0
C870 C 0.61728 0.58403 0.32344 0.0
C871 C 0.58149 0.59416 0.3255 0.0
C872 C 0.6039 0.57058 0.32586 0.0
C873 C 0.59527 0.60695 0.32221 0.0
C874 C 0.58583 0.57589 0.32829 0.0
N875 N 0.6475 0.59272 0.31423 0.0
C876 C 0.66497 0.58899 0.30295 0.0
C877 C 0.64021 0.5611 0.3131 0.0
C878 C 0.63511 0.5793 0.317 0.0
C879 C 0.65832 0.55708 0.30418 0.0
C880 C 0.6707 0.57111 0.29842 0.0
H881 H 0.57513 0.56599 0.33023 0.0
H882 H 0.59888 0.54179 0.32637 0.0
H883 H 0.63073 0.53349 0.31528 0.0
O884 O 0.65154 0.62813 0.26344 0.0
O885 O 0.64836 0.604 0.37663 0.0
O886 O 0.63456 0.61333 0.44155 0.0
O887 O 0.62413 0.61945 0.25805 0.0
O888 O 0.66417 0.63186 0.33298 0.0
O889 O 0.67121 0.62755 0.40984 0.0
O890 O 0.64827 0.64228 0.52062 0.0
O891 O 0.65324 0.65604 0.38906 0.0
O892 O 0.63091 0.65006 0.337 0.0
O893 O 0.66781 0.62547 0.48777 0.0
O894 O 0.62036 0.62994 0.43428 0.0
O895 O 0.61525 0.63596 0.35785 0.0
C896 C 0.64066 0.60029 0.41576 0.0
C897 C 0.63473 0.63947 0.20182 0.0
C898 C 0.63427 0.64881 0.1219 0.0
C899 C 0.63018 0.66647 0.13607 0.0
C900 C 0.63058 0.65715 0.21517 0.0
C901 C 0.6283 0.67055 0.18236 0.0
C902 C 0.63644 0.63533 0.15521 0.0
C903 C 0.67585 0.62929 0.36636 0.0
C904 C 0.63804 0.62538 0.23602 0.0
C905 C 0.60895 0.55233 0.32407 0.0
C906 C 0.62707 0.5476 0.31762 0.0
C907 C 0.64103 0.66157 0.35999 0.0
C908 C 0.65777 0.61652 0.56115 0.0
C909 C 0.65222 0.60827 0.64082 0.0
C910 C 0.65184 0.59002 0.62754 0.0
C911 C 0.6573 0.59821 0.549 0.0
C912 C 0.65519 0.62147 0.60708 0.0
C913 C 0.6543 0.58509 0.58202 0.0
C914 C 0.60948 0.6342 0.4001 0.0
C915 C 0.66107 0.63061 0.52657 0.0
H916 H 0.62826 0.67709 0.1113 0.0
H917 H 0.62926 0.66061 0.25086 0.0
H918 H 0.62512 0.68418 0.19284 0.0
H919 H 0.63987 0.6217 0.145 0.0
H920 H 0.64995 0.57946 0.65244 0.0
H921 H 0.65936 0.594 0.51408 0.0
H922 H 0.65535 0.63562 0.61633 0.0
H923 H 0.65402 0.571 0.57232 0.0
Tb924 Tb 0.1353 0.8986 0.20606 0.0
C925 C 0.16588 0.84582 0.07059 0.0
N926 N 0.16983 0.86364 0.07391 0.0
C927 C 0.20147 0.85671 0.07114 0.0
C928 C 0.17958 0.83265 0.06988 0.0
C929 C 0.18737 0.86923 0.07049 0.0
C930 C 0.19756 0.83831 0.07194 0.0
C931 C 0.14353 0.82287 0.05407 0.0
C932 C 0.14816 0.84095 0.06296 0.0
C933 C 0.15694 0.80953 0.05626 0.0
C934 C 0.17494 0.8144 0.06443 0.0
Tb935 Tb 0.14539 0.88268 0.07692 0.0
N936 N 0.13561 0.8542 0.06123 0.0
C937 C 0.1257 0.81888 0.04173 0.0
C938 C 0.11848 0.85062 0.04639 0.0
C939 C 0.11319 0.83287 0.03715 0.0
H940 H 0.19062 0.88337 0.06745 0.0
H941 H 0.0995 0.82999 0.02655 0.0
H942 H 0.09699 0.92077 0.19984 0.0
H943 H 0.19971 0.91944 0.27692 0.0
H944 H 0.10884 0.86145 0.04272 0.0
H945 H 0.12159 0.80515 0.03459 0.0
H946 H 0.17571 0.89766 0.25821 0.0
H947 H 0.21533 0.86125 0.07018 0.0
H948 H 0.15366 0.79551 0.05004 0.0
H949 H 0.18525 0.80406 0.06433 0.0
H950 H 0.08691 0.95263 0.20095 0.0
H951 H 0.20849 0.82863 0.07158 0.0
H952 H 0.19446 0.95208 0.26601 0.0
N953 N 0.12467 0.9274 0.20867 0.0
C954 C 0.13691 0.94051 0.21769 0.0
C955 C 0.10104 0.9494 0.20532 0.0
C956 C 0.13188 0.95879 0.2185 0.0
C957 C 0.10675 0.93143 0.20472 0.0
C958 C 0.11372 0.96318 0.21139 0.0
N959 N 0.15796 0.91744 0.23059 0.0
C960 C 0.17359 0.91175 0.25079 0.0
C961 C 0.16726 0.94838 0.24052 0.0
C962 C 0.15429 0.93534 0.22827 0.0
C963 C 0.18409 0.94252 0.25631 0.0
C964 C 0.1871 0.92411 0.26248 0.0
H965 H 0.10927 0.97708 0.2118 0.0
H966 H 0.14151 0.98613 0.22805 0.0
H967 H 0.17255 0.977 0.24749 0.0
O968 O 0.13591 0.90046 0.27859 0.0
O969 O 0.13107 0.91647 0.14649 0.0
O970 O 0.15441 0.9091 0.1001 0.0
O971 O 0.11401 0.88704 0.24265 0.0
O972 O 0.16099 0.8848 0.19213 0.0
O973 O 0.16794 0.89358 0.11902 0.0
O974 O 0.13373 0.89802 0.02397 0.0
O975 O 0.13096 0.86548 0.12551 0.0
O976 O 0.14409 0.87061 0.19498 0.0
O977 O 0.15453 0.87891 1.00982 0.0
O978 O 0.11688 0.89072 0.08892 0.0
O979 O 0.11112 0.89071 0.1676 0.0
C980 C 0.14308 0.92108 0.11582 0.0
C981 C 0.11174 0.88744 0.32528 0.0
C982 C 0.11137 0.88607 0.40869 0.0
C983 C 0.09449 0.87749 0.40647 0.0
C984 C 0.09482 0.87889 0.32422 0.0
C985 C 0.08628 0.87402 0.36455 0.0
C986 C 0.1199 0.89122 0.36782 0.0
C987 C 0.1729 0.88843 0.1603 0.0
C988 C 0.1208 0.89174 0.28177 0.0
C989 C 0.14502 0.97196 0.2278 0.0
C990 C 0.1627 0.96676 0.23877 0.0
C991 C 0.13734 0.8595 0.16433 0.0
C992 C 0.15251 0.90362 0.96054 0.0
C993 C 0.1569 0.91352 0.88179 0.0
C994 C 0.16964 0.92618 0.89764 0.0
C995 C 0.16548 0.91604 0.97534 0.0
C996 C 0.14822 0.90241 0.91391 0.0
C997 C 0.17383 0.92743 0.94407 0.0
C998 C 0.10577 0.8909 0.12447 0.0
C999 C 0.14403 0.89111 0.99276 0.0
H1000 H 0.08754 0.87358 0.43732 0.0
H1001 H 0.08819 0.87586 0.29213 0.0
H1002 H 0.07325 0.86744 0.3633 0.0
H1003 H 0.13299 0.8977 0.36915 0.0
H1004 H 0.17677 0.9348 0.87407 0.0
H1005 H 0.16933 0.91667 1.0109 0.0
H1006 H 0.13821 0.8927 0.90273 0.0
H1007 H 0.18384 0.93702 0.95574 0.0
Tb1008 Tb 0.87593 0.6348 0.07353 0.0
C1009 C 0.93096 0.60815 0.20685 0.0
N1010 N 0.91355 0.60261 0.20293 0.0
C1011 C 0.92344 0.57177 0.20231 0.0
C1012 C 0.94537 0.59576 0.20604 0.0
C1013 C 0.90963 0.58459 0.20416 0.0
C1014 C 0.9414 0.57739 0.20219 0.0
C1015 C 0.95194 0.63245 0.2229 0.0
C1016 C 0.93426 0.62619 0.2152 0.0
C1017 C 0.96644 0.62034 0.21963 0.0
C1018 C 0.96316 0.60203 0.21106 0.0
Tb1019 Tb 0.89236 0.62525 0.20235 0.0
N1020 N 0.91996 0.63757 0.21684 0.0
C1021 C 0.95445 0.65063 0.23416 0.0
C1022 C 0.92216 0.65507 0.23045 0.0
C1023 C 0.93946 0.66193 0.2386 0.0
H1024 H 0.89588 0.57993 0.20689 0.0
H1025 H 0.94122 0.67591 0.24824 0.0
H1026 H 0.854 0.67317 0.08106 0.0
H1027 H 0.85511 0.57072 1.00129 0.0
H1028 H 0.91057 0.66378 0.23402 0.0
H1029 H 0.96784 0.65599 0.24027 0.0
H1030 H 0.87697 0.59443 0.02167 0.0
H1031 H 0.92021 0.55755 0.20177 0.0
H1032 H 0.98018 0.62492 0.22466 0.0
H1033 H 0.97442 0.59274 0.20988 0.0
H1034 H 0.82222 0.68353 0.07831 0.0
H1035 H 0.95207 0.56743 0.20138 0.0
H1036 H 0.8224 0.57634 1.00988 0.0
N1037 N 0.84721 0.64564 0.07049 0.0
C1038 C 0.83408 0.63359 0.06007 0.0
C1039 C 0.82537 0.66941 0.07352 0.0
C1040 C 0.81584 0.63878 0.05834 0.0
C1041 C 0.8433 0.66355 0.07508 0.0
C1042 C 0.81154 0.65692 0.06593 0.0
N1043 N 0.85709 0.61238 0.0479 0.0
C1044 C 0.86283 0.5967 0.02813 0.0
C1045 C 0.82613 0.60343 0.03593 0.0
C1046 C 0.8392 0.61622 0.04921 0.0
C1047 C 0.83198 0.58658 0.02034 0.0
C1048 C 0.85043 0.58335 0.01548 0.0
H1049 H 0.79767 0.66148 0.06482 0.0
H1050 H 0.78849 0.62946 0.04678 0.0
H1051 H 0.79751 0.59845 0.02706 0.0
O1052 O 0.87454 0.63412 1.00096 0.0
O1053 O 0.85754 0.63832 0.13243 0.0
O1054 O 0.86574 0.61579 0.18102 0.0
O1055 O 0.88719 0.65637 0.03736 0.0
O1056 O 0.88957 0.60915 0.08816 0.0
O1057 O 0.88149 0.60226 0.16201 0.0
O1058 O 0.87871 0.63692 0.25809 0.0
O1059 O 0.9092 0.63947 0.15242 0.0
O1060 O 0.90391 0.62576 0.08394 0.0
O1061 O 0.89645 0.61455 0.26786 0.0
O1062 O 0.8818 0.65283 0.1905 0.0
O1063 O 0.88435 0.6587 0.11235 0.0
C1064 C 0.85338 0.62647 0.16397 0.0
C1065 C 0.88727 0.65856 0.95469 0.0
C1066 C 0.88877 0.65903 0.87131 0.0
C1067 C 0.89735 0.67589 0.87372 0.0
C1068 C 0.89581 0.67547 0.95595 0.0
C1069 C 0.90075 0.68405 0.91573 0.0
C1070 C 0.88356 0.65045 0.91207 0.0
C1071 C 0.88588 0.59734 0.12014 0.0
C1072 C 0.8829 0.64944 0.99808 0.0
C1073 C 0.80263 0.62583 0.04776 0.0
C1074 C 0.80778 0.60816 0.03664 0.0
C1075 C 0.91515 0.63263 0.11411 0.0
C1076 C 0.87253 0.61736 0.31947 0.0
C1077 C 0.86229 0.61331 0.39804 0.0
C1078 C 0.84934 0.60089 0.38206 0.0
C1079 C 0.85978 0.60474 0.30452 0.0
C1080 C 0.87373 0.62166 0.36608 0.0
C1081 C 0.8481 0.5967 0.33564 0.0
C1082 C 0.88275 0.66398 0.15527 0.0
C1083 C 0.88526 0.62553 0.28731 0.0
H1084 H 0.90132 0.68286 0.84294 0.0
H1085 H 0.89879 0.68206 0.98812 0.0
H1086 H 0.90733 0.69706 0.91712 0.0
H1087 H 0.87708 0.63737 0.91057 0.0
H1088 H 0.84048 0.59401 0.40551 0.0
H1089 H 0.8591 0.60093 0.26896 0.0
H1090 H 0.88365 0.63144 0.37734 0.0
H1091 H 0.83826 0.58695 0.32386 0.0
Tb1092 Tb 0.14857 0.1328 0.95004 0.0
C1093 C 0.09501 0.10249 0.81374 0.0
N1094 N 0.11293 0.09888 0.81636 0.0
C1095 C 0.10659 0.06717 0.81162 0.0
C1096 C 0.08209 0.08857 0.81227 0.0
C1097 C 0.11885 0.0815 0.81189 0.0
C1098 C 0.0881 0.07071 0.81287 0.0
C1099 C 0.0716 0.12455 0.79978 0.0
C1100 C 0.0898 0.12014 0.80777 0.0
C1101 C 0.05848 0.1109 0.80126 0.0
C1102 C 0.06372 0.09293 0.80772 0.0
Tb1103 Tb 0.13159 0.12355 0.82145 0.0
N1104 N 0.10286 0.1329 0.8068 0.0
C1105 C 0.06727 0.14241 0.78896 0.0
C1106 C 0.09895 0.15009 0.79337 0.0
C1107 C 0.08106 0.15516 0.78494 0.0
H1108 H 0.13308 0.07858 0.80881 0.0
H1109 H 0.07792 0.1689 0.77551 0.0
H1110 H 0.16904 0.17209 0.9435 0.0
H1111 H 0.17408 0.06775 1.00445 0.0
H1112 H 0.10963 0.15992 0.79035 0.0
H1113 H 0.05344 0.14637 0.78253 0.0
H1114 H 0.15083 0.09105 0.99404 0.0
H1115 H 0.11141 0.05342 0.80975 0.0
H1116 H 0.04437 0.114 0.79581 0.0
H1117 H 0.05355 0.08244 0.80709 0.0
H1118 H 0.20043 0.18346 0.93968 0.0
H1119 H 0.07863 0.0596 0.81189 0.0
H1120 H 0.2061 0.07486 0.98926 0.0
N1121 N 0.17696 0.14467 0.94871 0.0
C1122 C 0.19079 0.13289 0.95418 0.0
C1123 C 0.19789 0.16918 0.94341 0.0
C1124 C 0.20884 0.13866 0.952 0.0
C1125 C 0.18017 0.16275 0.94558 0.0
C1126 C 0.2123 0.15705 0.9459 0.0
N1127 N 0.16898 0.1104 0.96647 0.0
C1128 C 0.16454 0.09403 0.98449 0.0
C1129 C 0.20053 0.10243 0.96986 0.0
C1130 C 0.18663 0.11505 0.96243 0.0
C1131 C 0.19584 0.08498 0.9832 0.0
C1132 C 0.17779 0.0809 0.99166 0.0
H1133 H 0.226 0.16205 0.94404 0.0
H1134 H 0.23676 0.13005 0.95459 0.0
H1135 H 0.22949 0.09831 0.97062 0.0
O1136 O 0.15219 0.12964 0.02092 0.0
O1137 O 0.16519 0.13787 0.88876 0.0
O1138 O 0.15855 0.11459 0.84124 0.0
O1139 O 0.13993 0.15346 0.99409 0.0
O1140 O 0.13444 0.10741 0.93614 0.0
O1141 O 0.14293 0.10116 0.86242 0.0
O1142 O 0.14479 0.13767 0.7693 0.0
O1143 O 0.11387 0.13689 0.87119 0.0
O1144 O 0.12005 0.12472 0.94145 0.0
O1145 O 0.12936 0.11404 0.75379 0.0
O1146 O 0.13966 0.15182 0.8365 0.0
O1147 O 0.13822 0.15675 0.91544 0.0
C1148 C 0.17035 0.12576 0.85884 0.0
C1149 C 0.12965 0.1431 0.06572 0.0
C1150 C 0.12131 0.13943 0.14591 0.0
C1151 C 0.10302 0.14046 0.13301 0.0
C1152 C 0.11132 0.14381 0.05374 0.0
C1153 C 0.09812 0.14254 0.0873 0.0
C1154 C 0.13456 0.14082 0.11172 0.0
C1155 C 0.13725 0.09589 0.90277 0.0
C1156 C 0.14383 0.14446 0.03076 0.0
C1157 C 0.22276 0.12595 0.9567 0.0
C1158 C 0.21862 0.10786 0.96564 0.0
C1159 C 0.10849 0.13075 0.91079 0.0
C1160 C 0.15342 0.12095 0.70444 0.0
C1161 C 0.16307 0.11844 0.62509 0.0
C1162 C 0.17991 0.11202 0.64021 0.0
C1163 C 0.17016 0.11426 0.7188 0.0
C1164 C 0.14987 0.12287 0.65763 0.0
C1165 C 0.18336 0.10988 0.68679 0.0
C1166 C 0.13907 0.16256 0.87289 0.0
C1167 C 0.13965 0.12656 0.7375 0.0
H1168 H 0.09243 0.13983 0.15827 0.0
H1169 H 0.10719 0.14538 0.01851 0.0
H1170 H 0.08401 0.14324 0.07787 0.0
H1171 H 0.14873 0.13985 0.12061 0.0
H1172 H 0.1903 0.10842 0.61599 0.0
H1173 H 0.17301 0.11253 0.75465 0.0
H1174 H 0.13694 0.12816 0.64661 0.0
H1175 H 0.19631 0.10482 0.69811 0.0
Tb1176 Tb 0.63753 0.39795 0.70761 0.0
C1177 C 0.66467 0.3453 0.57006 0.0
N1178 N 0.6698 0.36277 0.57519 0.0
C1179 C 0.70089 0.35359 0.57494 0.0
C1180 C 0.6774 0.33119 0.56981 0.0
C1181 C 0.68775 0.3671 0.57402 0.0
C1182 C 0.69568 0.33552 0.57391 0.0
C1183 C 0.64086 0.32399 0.55213 0.0
C1184 C 0.6467 0.34169 0.56136 0.0
C1185 C 0.65331 0.30975 0.55436 0.0
C1186 C 0.67154 0.31334 0.56338 0.0
Tb1187 Tb 0.64665 0.38342 0.57714 0.0
N1188 N 0.635 0.35572 0.56068 0.0
C1189 C 0.62275 0.32121 0.54038 0.0
C1190 C 0.61756 0.3533 0.54669 0.0
C1191 C 0.61111 0.33598 0.53701 0.0
H1192 H 0.69211 0.38096 0.57205 0.0
H1193 H 0.59718 0.33402 0.52702 0.0
H1194 H 0.59958 0.42082 0.70405 0.0
H1195 H 0.7016 0.41572 0.78502 0.0
H1196 H 0.60859 0.36472 0.54391 0.0
H1197 H 0.61771 0.3078 0.53308 0.0
H1198 H 0.67752 0.39489 0.76047 0.0
H1199 H 0.71505 0.35714 0.57559 0.0
H1200 H 0.64905 0.29599 0.54815 0.0
H1201 H 0.68109 0.30229 0.56371 0.0
H1202 H 0.58997 0.45274 0.71046 0.0
H1203 H 0.7059 0.32509 0.57396 0.0
H1204 H 0.69698 0.44868 0.77958 0.0
N1205 N 0.62733 0.4268 0.71432 0.0
C1206 C 0.63973 0.43944 0.72594 0.0
C1207 C 0.60404 0.44919 0.71448 0.0
C1208 C 0.63497 0.45774 0.72986 0.0
C1209 C 0.60948 0.43119 0.71088 0.0
C1210 C 0.6169 0.46259 0.72311 0.0
N1211 N 0.66028 0.41573 0.73606 0.0
C1212 C 0.67565 0.4092 0.75594 0.0
C1213 C 0.67 0.44616 0.75176 0.0
C1214 C 0.65694 0.43371 0.73651 0.0
C1215 C 0.68655 0.43958 0.76758 0.0
C1216 C 0.68921 0.42099 0.77072 0.0
H1217 H 0.61266 0.47651 0.72589 0.0
H1218 H 0.64495 0.48459 0.74469 0.0
H1219 H 0.67567 0.47443 0.764 0.0
O1220 O 0.63788 0.39836 0.78021 0.0
O1221 O 0.63338 0.41723 0.6507 0.0
O1222 O 0.65548 0.41013 0.59955 0.0
O1223 O 0.61618 0.3855 0.74215 0.0
O1224 O 0.66308 0.38478 0.69013 0.0
O1225 O 0.66953 0.3945 0.61749 0.0
O1226 O 0.63442 0.39727 0.5225 0.0
O1227 O 0.63261 0.36588 0.626 0.0
O1228 O 0.64678 0.37022 0.69427 0.0
O1229 O 0.65725 0.38025 0.51121 0.0
O1230 O 0.61885 0.3931 0.5901 0.0
O1231 O 0.6134 0.39065 0.6685 0.0
C1232 C 0.6448 0.42202 0.61866 0.0
C1233 C 0.61373 0.38424 0.82471 0.0
C1234 C 0.61285 0.38221 0.90796 0.0
C1235 C 0.59658 0.37256 0.90453 0.0
C1236 C 0.5974 0.37465 0.8224 0.0
C1237 C 0.5889 0.36891 0.86206 0.0
C1238 C 0.62133 0.38819 0.8678 0.0
C1239 C 0.67468 0.38975 0.6589 0.0
C1240 C 0.62282 0.38948 0.78196 0.0
C1241 C 0.64824 0.4704 0.74205 0.0
C1242 C 0.66575 0.46462 0.75295 0.0
C1243 C 0.63965 0.35938 0.66357 0.0
C1244 C 0.65325 0.40422 0.46014 0.0
C1245 C 0.65709 0.41386 0.38103 0.0
C1246 C 0.66825 0.42798 0.39656 0.0
C1247 C 0.66458 0.41819 0.47477 0.0
C1248 C 0.64949 0.40214 0.41346 0.0
C1249 C 0.6719 0.43012 0.4431 0.0
C1250 C 0.6079 0.39228 0.62576 0.0
C1251 C 0.64579 0.39119 0.49261 0.0
H1252 H 0.5897 0.36797 0.93486 0.0
H1253 H 0.59121 0.37146 0.78984 0.0
H1254 H 0.57634 0.36152 0.85987 0.0
H1255 H 0.63396 0.3955 0.87011 0.0
H1256 H 0.67452 0.43713 0.37273 0.0
H1257 H 0.66788 0.41969 0.51049 0.0
H1258 H 0.64063 0.39132 0.40253 0.0
H1259 H 0.68065 0.4409 0.45459 0.0
Tb1260 Tb 0.37461 0.88276 0.4495 0.0
C1261 C 0.42976 0.91161 0.31919 0.0
N1262 N 0.41207 0.91628 0.32171 0.0
C1263 C 0.4204 0.94758 0.32143 0.0
C1264 C 0.44352 0.92472 0.32019 0.0
C1265 C 0.40727 0.93406 0.31947 0.0
C1266 C 0.43862 0.94288 0.32281 0.0
C1267 C 0.45201 0.88827 0.30582 0.0
C1268 C 0.43399 0.89372 0.3121 0.0
C1269 C 0.46587 0.90111 0.30925 0.0
C1270 C 0.46163 0.91931 0.31659 0.0
Tb1271 Tb 0.39197 0.89266 0.32243 0.0
N1272 N 0.42027 0.88165 0.31025 0.0
C1273 C 0.45546 0.87015 0.29566 0.0
C1274 C 0.42339 0.86418 0.29765 0.0
C1275 C 0.44105 0.85811 0.29089 0.0
H1276 H 0.39331 0.93799 0.3159 0.0
H1277 H 0.44355 0.84416 0.28211 0.0
H1278 H 0.35643 0.8425 0.43943 0.0
H1279 H 0.34623 0.94603 0.50848 0.0
H1280 H 0.41226 0.85489 0.29393 0.0
H1281 H 0.46912 0.8654 0.29064 0.0
H1282 H 0.37063 0.92425 0.4949 0.0
H1283 H 0.41646 0.96162 0.32112 0.0
H1284 H 0.47984 0.89718 0.30526 0.0
H1285 H 0.47241 0.92915 0.3179 0.0
H1286 H 0.32575 0.82926 0.43836 0.0
H1287 H 0.44877 0.95338 0.32373 0.0
H1288 H 0.31445 0.93693 0.49653 0.0
N1289 N 0.34699 0.86933 0.44818 0.0
C1290 C 0.3326 0.88018 0.45624 0.0
C1291 C 0.32749 0.84363 0.44305 0.0
C1292 C 0.31491 0.87331 0.45567 0.0
C1293 C 0.34481 0.85113 0.44353 0.0
C1294 C 0.31245 0.8548 0.44849 0.0
N1295 N 0.35322 0.90387 0.46833 0.0
C1296 C 0.35698 0.92046 0.48643 0.0
C1297 C 0.32133 0.90985 0.47517 0.0
C1298 C 0.33583 0.89817 0.46557 0.0
C1299 C 0.32518 0.92751 0.48888 0.0
C1300 C 0.3431 0.93271 0.4955 0.0
H1301 H 0.29906 0.84896 0.44787 0.0
H1302 H 0.28661 0.88012 0.46212 0.0
H1303 H 0.29223 0.91214 0.47938 0.0
O1304 O 0.37139 0.88545 0.52058 0.0
O1305 O 0.35727 0.87849 0.38848 0.0
O1306 O 0.36467 0.9013 0.34019 0.0
O1307 O 0.38421 0.86214 0.49219 0.0
O1308 O 0.38747 0.90886 0.43657 0.0
O1309 O 0.38001 0.91529 0.36186 0.0
O1310 O 0.3807 0.8789 0.26634 0.0
O1311 O 0.40936 0.87974 0.37365 0.0
O1312 O 0.40265 0.89245 0.44262 0.0
O1313 O 0.39487 0.90369 0.25671 0.0
O1314 O 0.38212 0.86487 0.33553 0.0
O1315 O 0.38591 0.85941 0.41353 0.0
C1316 C 0.35255 0.89055 0.35788 0.0
C1317 C 0.39471 0.87251 0.56402 0.0
C1318 C 0.40354 0.87653 0.64401 0.0
C1319 C 0.42176 0.87567 0.63073 0.0
C1320 C 0.41298 0.87196 0.55165 0.0
C1321 C 0.42638 0.87348 0.58493 0.0
C1322 C 0.39008 0.8749 0.6101 0.0
C1323 C 0.38418 0.92046 0.40375 0.0
C1324 C 0.38032 0.87086 0.5294 0.0
C1325 C 0.30035 0.88507 0.46294 0.0
C1326 C 0.30356 0.90332 0.47261 0.0
C1327 C 0.41454 0.88667 0.4127 0.0
C1328 C 0.37229 0.89645 0.20292 0.0
C1329 C 0.36303 0.8986 0.12308 0.0
C1330 C 0.34631 0.90557 0.1372 0.0
C1331 C 0.35571 0.90371 0.21625 0.0
C1332 C 0.37598 0.89406 0.15636 0.0
C1333 C 0.34274 0.90818 0.18353 0.0
C1334 C 0.38419 0.8539 0.37083 0.0
C1335 C 0.38577 0.89093 0.23699 0.0
H1336 H 0.4325 0.87648 0.65575 0.0
H1337 H 0.4169 0.8703 0.51635 0.0
H1338 H 0.44044 0.87291 0.5752 0.0
H1339 H 0.37596 0.87575 0.61927 0.0
H1340 H 0.33613 0.90928 0.11239 0.0
H1341 H 0.35285 0.90584 0.25188 0.0
H1342 H 0.38882 0.88839 0.1461 0.0
H1343 H 0.32991 0.9137 0.19409 0.0
C1344 C 0.11498 0.63154 0.79952 0.0
C1345 C 0.1262 0.642 0.82797 0.0
C1346 C 0.11908 0.62907 0.75343 0.0
C1347 C 0.14684 0.64819 0.65952 0.0
H1348 H 0.13484 0.60302 0.59989 0.0
C1349 C 0.16971 0.62969 0.47599 0.0
C1350 C 0.15638 0.62243 0.44707 0.0
C1351 C 0.1663 0.63225 0.52248 0.0
C1352 C 0.13816 0.61576 0.61601 0.0
H1353 H 0.1507 0.65798 0.82963 0.0
H1354 H 0.15827 0.65302 0.74993 0.0
H1355 H 0.12895 0.60676 0.68102 0.0
H1356 H 0.12909 0.61203 0.44427 0.0
H1357 H 0.12321 0.61631 0.5256 0.0
H1358 H 0.15643 0.65695 0.59434 0.0
C1359 C 0.14602 0.64706 0.763 0.0
C1360 C 0.13472 0.61796 0.66256 0.0
C1361 C 0.14181 0.64968 0.80906 0.0
C1362 C 0.13958 0.61777 0.46566 0.0
C1363 C 0.13627 0.62008 0.51224 0.0
C1364 C 0.15049 0.64589 0.61305 0.0
C1365 C 0.13465 0.63679 0.73441 0.0
C1366 C 0.13887 0.63426 0.68498 0.0
C1367 C 0.14959 0.62735 0.54118 0.0
C1368 C 0.14606 0.6297 0.59073 0.0
H1369 H 0.103 0.62514 0.81282 0.0
H1370 H 0.10983 0.62129 0.7326 0.0
H1371 H 0.14996 0.66105 0.67518 0.0
H1372 H 0.18274 0.63351 0.46257 0.0
H1373 H 0.17686 0.63779 0.54397 0.0
C1374 C 0.67133 0.8909 0.05519 0.0
C1375 C 0.65841 0.89896 0.08369 0.0
C1376 C 0.66795 0.8887 1.0085 0.0
C1377 C 0.64103 0.90699 0.91393 0.0
H1378 H 0.65044 0.86116 0.85488 0.0
C1379 C 0.61681 0.89229 0.73019 0.0
C1380 C 0.62739 0.88122 0.70186 0.0
C1381 C 0.62117 0.89464 0.77626 0.0
C1382 C 0.64801 0.87416 0.87052 0.0
H1383 H 0.6319 0.91119 0.08543 0.0
H1384 H 0.62605 0.90751 1.00379 0.0
H1385 H 0.65703 0.86487 0.93591 0.0
H1386 H 0.65107 0.86407 0.70038 0.0
H1387 H 0.65911 0.86876 0.7801 0.0
H1388 H 0.63234 0.91648 0.84871 0.0
C1389 C 0.63878 0.90285 0.01763 0.0
C1390 C 0.65172 0.87624 0.9171 0.0
C1391 C 0.64206 0.90483 0.06441 0.0
C1392 C 0.64268 0.87283 0.72086 0.0
C1393 C 0.64714 0.87532 0.76692 0.0
C1394 C 0.63751 0.90499 0.86727 0.0
C1395 C 0.65167 0.89474 0.98914 0.0
C1396 C 0.64814 0.89263 0.93941 0.0
C1397 C 0.63638 0.88617 0.7954 0.0
C1398 C 0.64079 0.88849 0.8449 0.0
H1399 H 0.684 0.88612 0.06911 0.0
H1400 H 0.67818 0.88249 0.9874 0.0
H1401 H 0.63838 0.91987 0.93 0.0
H1402 H 0.60511 0.89924 0.71681 0.0
H1403 H 0.61238 0.9029 0.79699 0.0
C1404 C 0.36988 0.42592 0.30053 0.0
C1405 C 0.36798 0.41093 0.32939 0.0
C1406 C 0.37254 0.42363 0.25362 0.0
C1407 C 0.3679 0.38953 0.16056 0.0
H1408 H 0.40083 0.42096 0.09624 0.0
C1409 C 0.39814 0.37195 0.98514 0.0
C1410 C 0.39982 0.38571 0.95264 0.0
C1411 C 0.39229 0.37582 0.02931 0.0
C1412 C 0.39139 0.41223 0.11357 0.0
H1413 H 0.36727 0.3817 0.33088 0.0
H1414 H 0.3726 0.37772 0.24983 0.0
H1415 H 0.39502 0.4261 0.17705 0.0
H1416 H 0.3963 0.41426 0.94058 0.0
H1417 H 0.38614 0.42112 0.0183 0.0
H1418 H 0.36474 0.37536 0.09728 0.0
C1419 C 0.37169 0.3913 0.26321 0.0
C1420 C 0.38804 0.41517 0.15996 0.0
C1421 C 0.36892 0.39359 0.31001 0.0
C1422 C 0.39504 0.40339 0.96491 0.0
C1423 C 0.38939 0.40732 1.00942 0.0
C1424 C 0.37137 0.38652 0.11433 0.0
C1425 C 0.37346 0.40628 0.23426 0.0
C1426 C 0.3764 0.40373 0.18427 0.0
C1427 C 0.38813 0.39358 0.04225 0.0
C1428 C 0.38331 0.39771 0.09039 0.0
H1429 H 0.36943 0.43948 0.31419 0.0
H1430 H 0.37367 0.4355 0.23248 0.0
H1431 H 0.35853 0.38069 0.17773 0.0
H1432 H 0.40164 0.35819 0.97654 0.0
H1433 H 0.39161 0.36496 0.05381 0.0
C1434 C 0.89789 0.12806 0.55882 0.0
C1435 C 0.90573 0.14359 0.57794 0.0
C1436 C 0.89258 0.12779 0.5128 0.0
C1437 C 0.90164 0.15212 0.40435 0.0
H1438 H 0.85948 0.12673 0.35919 0.0
C1439 C 0.87197 0.16479 0.22595 0.0
C1440 C 0.86645 0.14989 0.1997 0.0
C1441 C 0.8772 0.16266 0.27141 0.0
C1442 C 0.87142 0.1337 0.37127 0.0
H1443 H 0.91308 0.17132 0.56496 0.0
H1444 H 0.90333 0.17113 0.48569 0.0
H1445 H 0.86679 0.12594 0.44064 0.0
H1446 H 0.8622 0.12102 0.20051 0.0
H1447 H 0.87129 0.11727 0.28059 0.0
H1448 H 0.90604 0.16022 0.33533 0.0
C1449 C 0.90186 0.15889 0.50531 0.0
C1450 C 0.87562 0.13326 0.41797 0.0
C1451 C 0.90731 0.15908 0.55092 0.0
C1452 C 0.8665 0.13272 0.21986 0.0
C1453 C 0.87153 0.13061 0.26573 0.0
C1454 C 0.89736 0.15268 0.35796 0.0
C1455 C 0.89488 0.14312 0.48515 0.0
C1456 C 0.89065 0.14271 0.43525 0.0
C1457 C 0.87692 0.14559 0.29201 0.0
C1458 C 0.88208 0.1437 0.3409 0.0
H1459 H 0.89661 0.11589 0.57887 0.0
H1460 H 0.88732 0.11538 0.49853 0.0
H1461 H 0.91362 0.15912 0.41597 0.0
H1462 H 0.87217 0.17816 0.21131 0.0
H1463 H 0.88112 0.17449 0.29077 0.0
C1464 C 0.11672 0.39114 0.22892 0.0
C1465 C 0.128 0.38085 0.20048 0.0
C1466 C 0.12085 0.39356 0.27508 0.0
C1467 C 0.149 0.37459 0.36907 0.0
H1468 H 0.13634 0.41941 0.42922 0.0
C1469 C 0.17165 0.39325 0.55326 0.0
C1470 C 0.15811 0.40001 0.58203 0.0
C1471 C 0.16831 0.39071 0.50666 0.0
C1472 C 0.13985 0.40678 0.41292 0.0
H1473 H 0.15266 0.36511 0.19895 0.0
H1474 H 0.16029 0.37002 0.27876 0.0
H1475 H 0.13047 0.4158 0.34792 0.0
H1476 H 0.13053 0.40957 0.5845 0.0
H1477 H 0.12476 0.40537 0.50297 0.0
H1478 H 0.15878 0.36584 0.43427 0.0
C1479 C 0.14796 0.37588 0.26562 0.0
C1480 C 0.13642 0.40464 0.36629 0.0
C1481 C 0.14372 0.37329 0.21949 0.0
C1482 C 0.14117 0.40421 0.56322 0.0
C1483 C 0.13792 0.40194 0.51653 0.0
C1484 C 0.15265 0.37683 0.41561 0.0
C1485 C 0.13653 0.38597 0.29419 0.0
C1486 C 0.14079 0.38845 0.3437 0.0
C1487 C 0.15145 0.39517 0.48775 0.0
C1488 C 0.14798 0.3929 0.43811 0.0
H1489 H 0.10466 0.39745 0.21555 0.0
H1490 H 0.11154 0.4012 0.29589 0.0
H1491 H 0.15229 0.36181 0.35326 0.0
H1492 H 0.1848 0.3898 0.56688 0.0
H1493 H 0.17901 0.38555 0.48526 0.0
C1494 C 0.88086 0.87757 0.80324 0.0
C1495 C 0.89558 0.88661 0.82325 0.0
C1496 C 0.87708 0.87941 0.75669 0.0
C1497 C 0.88616 0.90882 0.65706 0.0
H1498 H 0.87072 0.86704 0.58743 0.0
C1499 C 0.88112 0.90939 0.46013 0.0
C1500 C 0.86583 0.90125 0.44042 0.0
C1501 C 0.88477 0.90751 0.50673 0.0
C1502 C 0.87486 0.87888 0.60647 0.0
H1503 H 0.91767 0.90498 0.80978 0.0
H1504 H 0.91137 0.90783 0.72861 0.0
H1505 H 0.8769 0.86408 0.66878 0.0
H1506 H 0.8426 0.88441 0.45419 0.0
H1507 H 0.84889 0.88123 0.53551 0.0
H1508 H 0.88425 0.92357 0.59459 0.0
C1509 C 0.9026 0.89945 0.74897 0.0
C1510 C 0.87837 0.87719 0.65318 0.0
C1511 C 0.90635 0.89763 0.7955 0.0
C1512 C 0.85439 0.89101 0.46836 0.0
C1513 C 0.8581 0.88904 0.51489 0.0
C1514 C 0.88272 0.91048 0.61032 0.0
C1515 C 0.88793 0.89033 0.72888 0.0
C1516 C 0.88407 0.89214 0.67913 0.0
C1517 C 0.87328 0.89734 0.53471 0.0
C1518 C 0.87703 0.89553 0.58443 0.0
H1519 H 0.87237 0.86882 0.82341 0.0
H1520 H 0.86555 0.87235 0.74258 0.0
H1521 H 0.89023 0.92069 0.67602 0.0
H1522 H 0.89013 0.91749 0.43966 0.0
H1523 H 0.89667 0.91394 0.5208 0.0
C1524 C 0.38722 0.60229 0.71662 0.0
C1525 C 0.37517 0.61187 0.68855 0.0
C1526 C 0.38899 0.60649 0.76295 0.0
C1527 C 0.3653 0.62996 0.85782 0.0
H1528 H 0.41169 0.6256 0.9182 0.0
C1529 C 0.37832 0.65472 0.04275 0.0
C1530 C 0.38822 0.6432 0.07144 0.0
C1531 C 0.37663 0.65099 0.99613 0.0
C1532 C 0.39861 0.62673 0.90191 0.0
H1533 H 0.35565 0.63364 0.68774 0.0
H1534 H 0.35923 0.64143 0.76797 0.0
H1535 H 0.40927 0.61958 0.83666 0.0
H1536 H 0.40417 0.61875 0.07355 0.0
H1537 H 0.40129 0.61226 0.99201 0.0
H1538 H 0.35476 0.63741 0.92317 0.0
C1539 C 0.36706 0.63035 0.75436 0.0
C1540 C 0.39719 0.62324 0.8551 0.0
C1541 C 0.36519 0.62605 0.70804 0.0
C1542 C 0.39636 0.62783 0.05241 0.0
C1543 C 0.39484 0.6242 1.00566 0.0
C1544 C 0.36676 0.63361 0.90455 0.0
C1545 C 0.37888 0.62054 0.7826 0.0
C1546 C 0.38049 0.62472 0.83237 0.0
C1547 C 0.38496 0.63574 0.97696 0.0
C1548 C 0.38342 0.63196 0.92719 0.0
H1549 H 0.39535 0.59146 0.70284 0.0
H1550 H 0.39808 0.59847 0.7835 0.0
H1551 H 0.35214 0.63093 0.84187 0.0
H1552 H 0.37176 0.66659 0.05644 0.0
H1553 H 0.36903 0.66021 0.97492 0.0
C1554 C 0.62218 0.11872 0.96493 0.0
C1555 C 0.61842 0.13636 0.95065 0.0
C1556 C 0.62756 0.11535 1.01005 0.0
C1557 C 0.62568 0.13682 0.12508 0.0
H1558 H 0.65787 0.09802 0.1597 0.0
C1559 C 0.65159 0.12845 0.30959 0.0
C1560 C 0.65094 0.11102 0.32829 0.0
C1561 C 0.64851 0.13122 0.26304 0.0
C1562 C 0.64876 0.10883 0.15052 0.0
H1563 H 0.61841 0.16439 0.97117 0.0
H1564 H 0.62847 0.15872 0.04891 0.0
H1565 H 0.65167 0.10359 0.07901 0.0
H1566 H 0.64656 0.0828 0.31187 0.0
H1567 H 0.64155 0.08765 0.23052 0.0
H1568 H 0.62296 0.1422 0.19647 0.0
C1569 C 0.62664 0.14732 0.02622 0.0
C1570 C 0.64516 0.11202 0.10425 0.0
C1571 C 0.62104 0.15063 0.9815 0.0
C1572 C 0.64743 0.09639 0.2988 0.0
C1573 C 0.64452 0.09916 0.2521 0.0
C1574 C 0.62942 0.13375 0.17115 0.0
C1575 C 0.62947 0.1296 0.04164 0.0
C1576 C 0.63359 0.1261 0.09084 0.0
C1577 C 0.64486 0.11663 0.23375 0.0
C1578 C 0.64101 0.11975 0.18449 0.0
H1579 H 0.62014 0.10747 0.94185 0.0
H1580 H 0.62949 0.10151 0.02055 0.0
H1581 H 0.61631 0.14747 0.11646 0.0
H1582 H 0.65466 0.14002 0.33081 0.0
H1583 H 0.64915 0.14482 0.24987 0.0
C1584 C 0.87266 0.42425 0.22899 0.0
C1585 C 0.87059 0.40944 0.19925 0.0
C1586 C 0.87607 0.42164 0.27553 0.0
C1587 C 0.8946 0.38834 0.35576 0.0
H1588 H 0.86947 0.41588 0.44839 0.0
C1589 C 0.90323 0.37093 0.54497 0.0
C1590 C 0.90468 0.38517 0.57642 0.0
C1591 C 0.8977 0.37411 0.50015 0.0
C1592 C 0.87677 0.40821 0.423 0.0
H1593 H 0.87003 0.38022 0.19602 0.0
H1594 H 0.87635 0.37573 0.27669 0.0
H1595 H 0.86294 0.42125 0.36778 0.0
H1596 H 0.9009 0.41384 0.58609 0.0
H1597 H 0.89157 0.41957 0.50726 0.0
H1598 H 0.90872 0.37555 0.41032 0.0
C1599 C 0.8755 0.38938 0.26385 0.0
C1600 C 0.873 0.41128 0.37678 0.0
C1601 C 0.87195 0.39197 0.21747 0.0
C1602 C 0.89979 0.4026 0.56257 0.0
C1603 C 0.89444 0.40585 0.51738 0.0
C1604 C 0.89848 0.38538 0.40179 0.0
C1605 C 0.87764 0.40417 0.29345 0.0
C1606 C 0.88179 0.40128 0.34263 0.0
C1607 C 0.8937 0.39168 0.48529 0.0
C1608 C 0.88952 0.39515 0.43616 0.0
H1609 H 0.87194 0.4379 0.21622 0.0
H1610 H 0.87785 0.43332 0.29733 0.0
H1611 H 0.90186 0.38064 0.33032 0.0
H1612 H 0.90667 0.35731 0.55493 0.0
H1613 H 0.89679 0.36276 0.47697 0.0
C1614 C 0.41598 0.13955 0.2911 0.0
C1615 C 0.40121 0.14501 0.31787 0.0
C1616 C 0.41441 0.13799 0.24375 0.0
C1617 C 0.384 0.12906 0.1498 0.0
H1618 H 0.4189 0.15512 0.07733 0.0
C1619 C 0.38579 0.1221 0.95221 0.0
C1620 C 0.40304 0.12102 0.93261 0.0
C1621 C 0.3837 0.12729 0.99801 0.0
C1622 C 0.40915 0.14755 0.09687 0.0
H1623 H 0.37292 0.15259 0.31481 0.0
H1624 H 0.37008 0.14901 0.23208 0.0
H1625 H 0.4189 0.15865 0.15989 0.0
H1626 H 0.4315 0.12568 0.94529 0.0
H1627 H 0.42803 0.1339 0.02458 0.0
H1628 H 0.37483 0.11717 0.08724 0.0
C1629 C 0.38294 0.14624 0.24826 0.0
C1630 C 0.40911 0.1497 0.14424 0.0
C1631 C 0.38458 0.14816 0.29574 0.0
C1632 C 0.41802 0.12602 0.95935 0.0
C1633 C 0.41598 0.13103 1.00495 0.0
C1634 C 0.38424 0.12663 0.10233 0.0
C1635 C 0.39794 0.14145 0.22178 0.0
C1636 C 0.39674 0.14026 0.17127 0.0
C1637 C 0.39883 0.13151 0.02532 0.0
C1638 C 0.39709 0.13557 0.07521 0.0
H1639 H 0.42887 0.13643 0.30662 0.0
H1640 H 0.42612 0.13397 0.22421 0.0
H1641 H 0.37434 0.12159 0.16992 0.0
H1642 H 0.37394 0.11831 0.93271 0.0
H1643 H 0.37024 0.12776 0.01211 0.0
C1644 C 0.62826 0.62919 0.0533 0.0
C1645 C 0.63637 0.64458 0.07252 0.0
C1646 C 0.62985 0.62553 1.0066 0.0
C1647 C 0.65802 0.63496 0.90615 0.0
H1648 H 0.61556 0.62092 0.83718 0.0
C1649 C 0.65971 0.62752 0.70958 0.0
C1650 C 0.64973 0.61337 0.68977 0.0
C1651 C 0.65783 0.63178 0.7559 0.0
C1652 C 0.62763 0.62458 0.85592 0.0
H1653 H 0.65285 0.66796 0.0579 0.0
H1654 H 0.6557 0.66153 0.97649 0.0
H1655 H 0.61309 0.62688 0.91869 0.0
H1656 H 0.62949 0.59298 0.70347 0.0
H1657 H 0.62675 0.59991 0.7841 0.0
H1658 H 0.67268 0.63233 0.8438 0.0
C1659 C 0.64807 0.65232 0.99751 0.0
C1660 C 0.62618 0.62804 0.90271 0.0
C1661 C 0.64631 0.65608 0.04407 0.0
C1662 C 0.63764 0.60378 0.7175 0.0
C1663 C 0.63586 0.60795 0.76382 0.0
C1664 C 0.65952 0.63133 0.85943 0.0
C1665 C 0.63977 0.63706 0.97814 0.0
C1666 C 0.64135 0.63327 0.92839 0.0
C1667 C 0.64598 0.62195 0.78381 0.0
C1668 C 0.64434 0.62609 0.83358 0.0
H1669 H 0.62043 0.62012 0.07424 0.0
H1670 H 0.62342 0.61358 0.9928 0.0
H1671 H 0.67001 0.63876 0.92506 0.0
H1672 H 0.66928 0.63512 0.68956 0.0
H1673 H 0.66567 0.64283 0.76975 0.0
C1674 C 0.12048 0.87546 0.48634 0.0
C1675 C 0.1198 0.88938 0.45401 0.0
C1676 C 0.12661 0.87878 0.53066 0.0
C1677 C 0.13028 0.91497 0.61534 0.0
H1678 H 0.16006 0.88062 0.68052 0.0
C1679 C 0.15273 0.9266 0.80303 0.0
C1680 C 0.1532 0.91149 0.83191 0.0
C1681 C 0.14985 0.92457 0.75606 0.0
C1682 C 0.15156 0.89026 0.66305 0.0
H1683 H 0.12548 0.9176 0.44241 0.0
H1684 H 0.13618 0.9235 0.52038 0.0
H1685 H 0.15368 0.87593 0.59977 0.0
H1686 H 0.15106 0.88234 0.83341 0.0
H1687 H 0.14541 0.87888 0.75219 0.0
H1688 H 0.12771 0.92905 0.6788 0.0
C1689 C 0.13189 0.91001 0.51127 0.0
C1690 C 0.14798 0.88761 0.61664 0.0
C1691 C 0.12594 0.90661 0.46659 0.0
C1692 C 0.15055 0.89433 0.81251 0.0
C1693 C 0.1476 0.89231 0.76563 0.0
C1694 C 0.13375 0.91756 0.66189 0.0
C1695 C 0.13209 0.89615 0.54396 0.0
C1696 C 0.13714 0.89981 0.59233 0.0
C1697 C 0.1473 0.90739 0.73665 0.0
C1698 C 0.14426 0.90513 0.68654 0.0
H1699 H 0.11593 0.86201 0.4775 0.0
H1700 H 0.12644 0.86784 0.55502 0.0
H1701 H 0.12169 0.9245 0.59775 0.0
H1702 H 0.15452 0.94005 0.81671 0.0
H1703 H 0.14988 0.9365 0.7349 0.0
C1704 C 0.86828 0.64463 0.81303 0.0
C1705 C 0.88554 0.65064 0.82593 0.0
C1706 C 0.86497 0.6387 0.76831 0.0
C1707 C 0.88752 0.62232 0.66362 0.0
H1708 H 0.84656 0.64309 0.60027 0.0
C1709 C 0.8814 0.6194 0.46768 0.0
C1710 C 0.86424 0.61706 0.44791 0.0
C1711 C 0.88331 0.62243 0.51455 0.0
C1712 C 0.85791 0.63691 0.61751 0.0
H1713 H 0.91301 0.65436 0.80298 0.0
H1714 H 0.90733 0.64386 0.72537 0.0
H1715 H 0.85092 0.64915 0.68137 0.0
H1716 H 0.83558 0.61636 0.46246 0.0
H1717 H 0.83895 0.62107 0.54427 0.0
H1718 H 0.89455 0.61004 0.60007 0.0
C1719 C 0.89632 0.64377 0.74951 0.0
C1720 C 0.86039 0.6404 0.66408 0.0
C1721 C 0.89955 0.64989 0.79388 0.0
C1722 C 0.84903 0.61789 0.47643 0.0
C1723 C 0.85095 0.62082 0.52339 0.0
C1724 C 0.88497 0.61871 0.6172 0.0
C1725 C 0.87893 0.63841 0.73591 0.0
C1726 C 0.87537 0.63336 0.68751 0.0
C1727 C 0.86813 0.62307 0.54317 0.0
C1728 C 0.87028 0.62617 0.59328 0.0
H1729 H 0.85722 0.64516 0.837 0.0
H1730 H 0.85146 0.63451 0.75893 0.0
H1731 H 0.89906 0.61649 0.68084 0.0
H1732 H 0.89345 0.61862 0.44707 0.0
H1733 H 0.89675 0.62439 0.52826 0.0
C1734 C 0.14295 0.11433 0.55673 0.0
C1735 C 0.15928 0.12053 0.57555 0.0
C1736 C 0.13943 0.11615 0.51007 0.0
C1737 C 0.15147 0.1428 0.40941 0.0
H1738 H 0.1322 0.10222 0.34141 0.0
C1739 C 0.1417 0.14549 0.21348 0.0
C1740 C 0.12644 0.13689 0.1948 0.0
C1741 C 0.14628 0.14326 0.25949 0.0
C1742 C 0.13734 0.11379 0.35989 0.0
H1743 H 0.1846 0.13375 0.56029 0.0
H1744 H 0.17837 0.13706 0.47875 0.0
H1745 H 0.13876 0.09901 0.42244 0.0
H1746 H 0.10427 0.11884 0.21031 0.0
H1747 H 0.11176 0.1156 0.29046 0.0
H1748 H 0.14967 0.15776 0.34735 0.0
C1749 C 0.16833 0.13074 0.50013 0.0
C1750 C 0.14115 0.11191 0.40638 0.0
C1751 C 0.17196 0.12872 0.54671 0.0
C1752 C 0.11595 0.12593 0.22344 0.0
C1753 C 0.12044 0.12383 0.26947 0.0
C1754 C 0.14747 0.14476 0.363 0.0
C1755 C 0.15206 0.12441 0.48125 0.0
C1756 C 0.14823 0.12639 0.43169 0.0
C1757 C 0.13566 0.13246 0.28822 0.0
C1758 C 0.1403 0.13029 0.33756 0.0
H1759 H 0.13298 0.10786 0.57802 0.0
H1760 H 0.12671 0.11126 0.49661 0.0
H1761 H 0.15674 0.15427 0.42812 0.0
H1762 H 0.15001 0.15419 0.19275 0.0
H1763 H 0.15824 0.14994 0.2724 0.0
C1764 C 0.65157 0.42585 0.30164 0.0
C1765 C 0.6537 0.4111 0.33125 0.0
C1766 C 0.64835 0.42315 0.25501 0.0
C1767 C 0.63033 0.38954 0.17442 0.0
H1768 H 0.65535 0.41713 0.08215 0.0
C1769 C 0.62233 0.37156 0.98519 0.0
C1770 C 0.62071 0.38571 0.95378 0.0
C1771 C 0.62773 0.37493 0.03006 0.0
C1772 C 0.64808 0.40944 0.10745 0.0
H1773 H 0.65463 0.38189 0.33423 0.0
H1774 H 0.64867 0.37724 0.25339 0.0
H1775 H 0.66169 0.42273 0.16286 0.0
H1776 H 0.62407 0.41442 0.94423 0.0
H1777 H 0.63318 0.42046 0.02317 0.0
H1778 H 0.61642 0.37649 0.11967 0.0
C1779 C 0.6493 0.3909 0.26638 0.0
C1780 C 0.65175 0.41265 0.15371 0.0
C1781 C 0.65265 0.39359 0.31284 0.0
C1782 C 0.6253 0.40325 0.96773 0.0
C1783 C 0.63054 0.40668 0.01296 0.0
C1784 C 0.62656 0.38644 0.12836 0.0
C1785 C 0.64704 0.40563 0.23691 0.0
C1786 C 0.643 0.40262 0.1877 0.0
C1787 C 0.63145 0.39259 0.045 0.0
C1788 C 0.63549 0.39622 0.09413 0.0
H1789 H 0.65206 0.43952 0.31457 0.0
H1790 H 0.64648 0.43478 0.23328 0.0
H1791 H 0.6231 0.38182 0.19976 0.0
H1792 H 0.61912 0.35787 0.97514 0.0
H1793 H 0.62878 0.36364 0.05323 0.0
C1794 C 0.38339 0.90205 0.05544 0.0
C1795 C 0.36695 0.89614 0.07377 0.0
C1796 C 0.38694 0.90007 1.00887 0.0
C1797 C 0.37469 0.87343 0.90778 0.0
H1798 H 0.39375 0.91393 0.8402 0.0
C1799 C 0.38359 0.87048 0.71187 0.0
C1800 C 0.39869 0.87914 0.69301 0.0
C1801 C 0.37925 0.87277 0.75795 0.0
C1802 C 0.38868 0.90237 0.85856 0.0
H1803 H 0.34147 0.88323 0.05781 0.0
H1804 H 0.34776 0.8796 0.97645 0.0
H1805 H 0.3875 0.91721 0.9213 0.0
H1806 H 0.42085 0.89733 0.70828 0.0
H1807 H 0.41382 0.90063 0.78858 0.0
H1808 H 0.37627 0.85839 0.84559 0.0
C1809 C 0.35786 0.88583 0.99813 0.0
C1810 C 0.38504 0.9043 0.90508 0.0
C1811 C 0.35421 0.88803 0.0446 0.0
C1812 C 0.40928 0.8902 0.72155 0.0
C1813 C 0.40506 0.89234 0.76767 0.0
C1814 C 0.37853 0.87141 0.86135 0.0
C1815 C 0.37422 0.89192 0.97971 0.0
C1816 C 0.37801 0.88986 0.93021 0.0
C1817 C 0.38998 0.88366 0.78661 0.0
C1818 C 0.38561 0.88586 0.83604 0.0
H1819 H 0.39341 0.90845 0.07702 0.0
H1820 H 0.39973 0.90478 0.99572 0.0
H1821 H 0.36945 0.86199 0.92637 0.0
H1822 H 0.3752 0.8617 0.69124 0.0
H1823 H 0.36739 0.86606 0.77098 0.0
C1824 C 0.12771 0.69607 0.13333 0.0
C1825 C 0.1391 0.6854 0.16036 0.0
C1826 C 0.12737 0.71477 0.13863 0.0
C1827 C 0.14236 0.75276 0.21458 0.0
H1828 H 0.13315 0.78031 0.10487 0.0
C1829 C 0.15095 0.83116 0.19617 0.0
C1830 C 0.13677 0.8399 0.17323 0.0
C1831 C 0.15131 0.81228 0.19906 0.0
C1832 C 0.13572 0.77282 0.13584 0.0
H1833 H 0.15888 0.68584 0.21474 0.0
H1834 H 0.15896 0.71872 0.22289 0.0
H1835 H 0.13436 0.74771 0.10063 0.0
H1836 H 0.11125 0.83596 0.13861 0.0
H1837 H 0.11198 0.80313 0.14298 0.0
H1838 H 0.14441 0.77832 0.24907 0.0
C1839 C 0.14988 0.71264 0.1983 0.0
C1840 C 0.13624 0.75403 0.1336 0.0
C1841 C 0.14991 0.69379 0.19362 0.0
C1842 C 0.12253 0.82954 0.15554 0.0
C1843 C 0.12294 0.81076 0.15811 0.0
C1844 C 0.14221 0.77168 0.21659 0.0
C1845 C 0.13878 0.72345 0.17034 0.0
C1846 C 0.13921 0.74363 0.17304 0.0
C1847 C 0.13752 0.80188 0.17897 0.0
C1848 C 0.1386 0.78187 0.17731 0.0
H1849 H 0.119 0.68994 0.10791 0.0
H1850 H 0.11813 0.72239 0.11754 0.0
H1851 H 0.14454 0.74534 0.24582 0.0
H1852 H 0.16211 0.83886 0.21007 0.0
H1853 H 0.16271 0.80579 0.2153 0.0
C1854 C 0.58038 0.90305 0.44887 0.0
C1855 C 0.58924 0.88796 0.43057 0.0
C1856 C 0.56144 0.90345 0.45151 0.0
C1857 C 0.52132 0.88197 0.39763 0.0
H1858 H 0.4946 0.90266 0.49833 0.0
C1859 C 0.44473 0.87188 0.41099 0.0
C1860 C 0.43406 0.88664 0.42386 0.0
C1861 C 0.46351 0.87253 0.41525 0.0
C1862 C 0.50185 0.89699 0.4697 0.0
H1863 H 0.58543 0.8611 0.40336 0.0
H1864 H 0.55267 0.86153 0.40891 0.0
H1865 H 0.52764 0.90297 0.49987 0.0
H1866 H 0.43459 0.91343 0.45303 0.0
H1867 H 0.46758 0.91471 0.46038 0.0
H1868 H 0.49573 0.876 0.36731 0.0
C1869 C 0.56012 0.8733 0.42011 0.0
C1870 C 0.52082 0.89717 0.47059 0.0
C1871 C 0.57893 0.87296 0.41727 0.0
C1872 C 0.44251 0.90181 0.44314 0.0
C1873 C 0.46141 0.90253 0.44721 0.0
C1874 C 0.50245 0.8818 0.39674 0.0
C1875 C 0.55103 0.88871 0.43608 0.0
C1876 C 0.53082 0.88941 0.43484 0.0
C1877 C 0.4722 0.88802 0.43234 0.0
C1878 C 0.4924 0.88906 0.43302 0.0
H1879 H 0.58803 0.91486 0.45891 0.0
H1880 H 0.55494 0.91557 0.46386 0.0
H1881 H 0.52849 0.8763 0.36886 0.0
H1882 H 0.43854 0.85992 0.39652 0.0
H1883 H 0.47125 0.86092 0.40443 0.0
C1884 C 0.39704 0.32779 0.65378 0.0
C1885 C 0.38235 0.33801 0.66926 0.0
C1886 C 0.3968 0.30898 0.65628 0.0
C1887 C 0.37515 0.26969 0.7114 0.0
H1888 H 0.39157 0.2447 0.60305 0.0
C1889 C 0.36986 0.19128 0.68632 0.0
C1890 C 0.38364 0.18301 0.66108 0.0
C1891 C 0.36935 0.21016 0.6911 0.0
C1892 C 0.38718 0.25137 0.63396 0.0
H1893 H 0.35619 0.33658 0.70149 0.0
H1894 H 0.35575 0.30353 0.70616 0.0
H1895 H 0.39147 0.2774 0.60485 0.0
H1896 H 0.40827 0.18777 0.62368 0.0
H1897 H 0.40787 0.2203 0.63342 0.0
H1898 H 0.37109 0.24351 0.74069 0.0
C1899 C 0.36748 0.31012 0.692 0.0
C1900 C 0.38707 0.27021 0.63488 0.0
C1901 C 0.36773 0.32903 0.68942 0.0
C1902 C 0.39738 0.19381 0.64298 0.0
C1903 C 0.39702 0.21252 0.64815 0.0
C1904 C 0.37539 0.25073 0.71063 0.0
C1905 C 0.38187 0.29983 0.67456 0.0
C1906 C 0.38125 0.27967 0.67373 0.0
C1907 C 0.38272 0.22109 0.67104 0.0
C1908 C 0.38165 0.24129 0.67205 0.0
H1909 H 0.40862 0.33437 0.6388 0.0
H1910 H 0.40828 0.30156 0.64334 0.0
H1911 H 0.37063 0.27653 0.74195 0.0
H1912 H 0.35899 0.18327 0.7002 0.0
H1913 H 0.3581 0.21622 0.70886 0.0
C1914 C 0.94209 0.12086 0.94701 0.0
C1915 C 0.93382 0.13109 0.91255 0.0
C1916 C 0.96101 0.12048 0.95134 0.0
C1917 C 1.00268 0.13164 0.88424 0.0
H1918 H 0.02729 0.12567 1.00006 0.0
C1919 C 0.07839 0.14549 0.90287 0.0
C1920 C 0.08893 0.13157 0.9213 0.0
C1921 C 0.0596 0.14514 0.90623 0.0
C1922 C 0.02057 0.12724 0.96746 0.0
H1923 H 0.93882 0.14978 0.85747 0.0
H1924 H 0.9713 0.14991 0.86626 0.0
H1925 H 0.99425 0.12591 0.9974 0.0
H1926 H 0.08812 0.10701 0.96083 0.0
H1927 H 0.05502 0.10655 0.96763 0.0
H1928 H 0.02895 0.1337 0.85468 0.0
C1929 C 0.96352 0.1414 0.88872 0.0
C1930 C 1.0016 0.12731 0.96581 0.0
C1931 C 0.94477 0.14148 0.88388 0.0
C1932 C 0.08032 0.1179 0.94614 0.0
C1933 C 0.0614 0.11762 0.94993 0.0
C1934 C 0.02152 0.13193 0.88607 0.0
C1935 C 0.97206 0.13057 0.92174 0.0
C1936 C 0.99233 0.12972 0.92414 0.0
C1937 C 0.05083 0.13098 0.92878 0.0
C1938 C 0.03073 0.12988 0.92765 0.0
H1939 H 0.934 0.11266 0.96955 0.0
H1940 H 0.96694 0.11188 0.97706 0.0
H1941 H 0.99628 0.13291 0.85118 0.0
H1942 H 0.08468 0.15649 0.88473 0.0
H1943 H 0.05188 0.15581 0.89033 0.0
C1944 C 0.14196 0.32897 0.82616 0.0
C1945 C 0.14091 0.33657 0.87015 0.0
C1946 C 0.1425 0.31016 0.82024 0.0
C1947 C 0.15404 0.2687 0.88397 0.0
H1948 H 0.12428 0.24333 0.79574 0.0
C1949 C 0.13832 0.19395 0.90451 0.0
C1950 C 0.13923 0.18246 0.86631 0.0
C1951 C 0.13929 0.21261 0.8996 0.0
C1952 C 0.13286 0.25025 0.8201 0.0
H1953 H 0.13908 0.33006 0.94224 0.0
H1954 H 0.13998 0.29778 0.93184 0.0
H1955 H 0.12471 0.27642 0.7965 0.0
H1956 H 0.14136 0.18188 0.79256 0.0
H1957 H 0.14295 0.21474 0.78404 0.0
H1958 H 0.16196 0.24276 0.90829 0.0
C1959 C 0.14071 0.30625 0.9019 0.0
C1960 C 0.13312 0.26919 0.82052 0.0
C1961 C 0.1401 0.32488 0.90778 0.0
C1962 C 0.14068 0.19027 0.82277 0.0
C1963 C 0.14153 0.2091 0.81784 0.0
C1964 C 0.15377 0.2499 0.88359 0.0
C1965 C 0.14213 0.2986 0.8582 0.0
C1966 C 0.14335 0.27862 0.85334 0.0
C1967 C 0.14113 0.22045 0.85636 0.0
C1968 C 0.14282 0.24041 0.85251 0.0
H1969 H 0.14255 0.33753 0.79637 0.0
H1970 H 0.14359 0.30468 0.7861 0.0
H1971 H 0.16244 0.27551 0.90896 0.0
H1972 H 0.13702 0.18859 0.93862 0.0
H1973 H 0.13854 0.22094 0.92992 0.0
C1974 C 0.07396 0.8881 0.1532 0.0
C1975 C 0.08585 0.89027 0.11623 0.0
C1976 C 0.05529 0.88723 0.14642 0.0
C1977 C 0.01875 0.89948 0.06605 0.0
H1978 H 0.99086 0.86584 0.13809 0.0
C1979 C 0.94112 0.90485 0.08946 0.0
C1980 C 0.93098 0.88888 0.09172 0.0
C1981 C 0.95997 0.90429 0.08659 0.0
C1982 C 0.99842 0.87518 0.11727 0.0
H1983 H 0.08704 0.89334 0.04282 0.0
H1984 H 0.05431 0.89192 0.03102 0.0
H1985 H 0.02367 0.86599 0.14426 0.0
H1986 H 0.9326 0.85977 0.09121 0.0
H1987 H 0.96559 0.85873 0.08636 0.0
H1988 H 0.99341 0.90874 0.03934 0.0
C1989 C 0.05959 0.89092 0.0654 0.0
C1990 C 0.01727 0.87542 0.12121 0.0
C1991 C 0.07839 0.89166 0.07215 0.0
C1992 C 0.94005 0.8723 0.08919 0.0
C1993 C 0.95896 0.87173 0.08694 0.0
C1994 C 0.99986 0.89933 0.06235 0.0
C1995 C 0.04778 0.88859 0.10249 0.0
C1996 C 0.02773 0.88769 0.096 0.0
C1997 C 0.96921 0.88773 0.08638 0.0
C1998 C 0.98941 0.88725 0.08813 0.0
H1999 H 0.07902 0.88699 0.18775 0.0
H2000 H 0.04669 0.88573 0.17592 0.0
H2001 H 0.0263 0.9092 0.04635 0.0
H2002 H 0.93449 0.91783 0.09142 0.0
H2003 H 0.96734 0.91689 0.08672 0.0
C2004 C 0.40144 0.68827 0.35429 0.0
C2005 C 0.38483 0.67938 0.3497 0.0
C2006 C 0.40229 0.70715 0.35272 0.0
C2007 C 0.37991 0.74767 0.3104 0.0
H2008 H 0.39939 0.77172 0.41711 0.0
C2009 C 0.37291 0.82522 0.33499 0.0
C2010 C 0.38553 0.83427 0.36249 0.0
C2011 C 0.37341 0.80636 0.33084 0.0
C2012 C 0.39427 0.76542 0.38638 0.0
H2013 H 0.3562 0.68303 0.33867 0.0
H2014 H 0.35778 0.71597 0.33368 0.0
H2015 H 0.40005 0.73905 0.41241 0.0
H2016 H 0.40905 0.83095 0.4054 0.0
H2017 H 0.41084 0.79846 0.39583 0.0
H2018 H 0.37477 0.77386 0.28313 0.0
C2019 C 0.3701 0.70841 0.33895 0.0
C2020 C 0.39453 0.74656 0.38403 0.0
C2021 C 0.3692 0.6896 0.34176 0.0
C2022 C 0.39903 0.82424 0.38436 0.0
C2023 C 0.39988 0.80551 0.3792 0.0
C2024 C 0.38007 0.76658 0.31212 0.0
C2025 C 0.3866 0.71742 0.34525 0.0
C2026 C 0.3872 0.73747 0.34626 0.0
C2027 C 0.38686 0.79612 0.35317 0.0
C2028 C 0.38712 0.77583 0.35037 0.0
H2029 H 0.41362 0.68067 0.36125 0.0
H2030 H 0.41516 0.71375 0.35781 0.0
H2031 H 0.37425 0.741 0.28072 0.0
H2032 H 0.36224 0.83266 0.31816 0.0
H2033 H 0.36291 0.79987 0.31108 0.0
C2034 C 0.57732 0.12279 0.57925 0.0
C2035 C 0.58553 0.13464 0.61052 0.0
C2036 C 0.55851 0.12283 0.57331 0.0
C2037 C 0.51823 0.1503 0.57874 0.0
H2038 H 0.49191 0.1073 0.61242 0.0
C2039 C 0.43999 0.15027 0.59355 0.0
C2040 C 0.43065 0.13399 0.58763 0.0
C2041 C 0.45892 0.15061 0.59298 0.0
C2042 C 0.49891 0.11935 0.60172 0.0
H2043 H 0.58059 0.15621 0.65884 0.0
H2044 H 0.54788 0.15679 0.6469 0.0
H2045 H 0.52473 0.10732 0.61529 0.0
H2046 H 0.43361 0.10548 0.57435 0.0
H2047 H 0.46635 0.10615 0.5699 0.0
H2048 H 0.49268 0.16226 0.56351 0.0
C2049 C 0.55593 0.14728 0.62769 0.0
C2050 C 0.5178 0.11933 0.60376 0.0
C2051 C 0.57463 0.14689 0.63459 0.0
C2052 C 0.44051 0.11824 0.57893 0.0
C2053 C 0.45937 0.11862 0.57715 0.0
C2054 C 0.49933 0.1502 0.57555 0.0
C2055 C 0.54764 0.13509 0.5975 0.0
C2056 C 0.52765 0.13484 0.59266 0.0
C2057 C 0.46899 0.13472 0.58535 0.0
C2058 C 0.48929 0.13475 0.58732 0.0
H2059 H 0.58538 0.11312 0.56054 0.0
H2060 H 0.55242 0.11329 0.54983 0.0
H2061 H 0.52552 0.16243 0.56991 0.0
H2062 H 0.4327 0.16255 0.60122 0.0
H2063 H 0.46559 0.16326 0.60033 0.0
C2064 C 0.8696 0.19251 0.83279 0.0
C2065 C 0.88398 0.1837 0.85464 0.0
C2066 C 0.86915 0.21141 0.8306 0.0
C2067 C 0.88864 0.25171 0.88852 0.0
H2068 H 0.87109 0.27769 0.78284 0.0
C2069 C 0.89925 0.32805 0.87185 0.0
C2070 C 0.88468 0.33849 0.85651 0.0
C2071 C 0.89869 0.30926 0.86891 0.0
C2072 C 0.87587 0.27063 0.8128 0.0
H2073 H 0.90952 0.18757 0.88927 0.0
H2074 H 0.90905 0.22029 0.88441 0.0
H2075 H 0.87098 0.24472 0.78251 0.0
H2076 H 0.85839 0.33757 0.82436 0.0
H2077 H 0.85733 0.30456 0.81916 0.0
H2078 H 0.89371 0.2775 0.91868 0.0
C2079 C 0.89784 0.21282 0.87004 0.0
C2080 C 0.87578 0.25171 0.81264 0.0
C2081 C 0.89821 0.19403 0.87248 0.0
C2082 C 0.86984 0.32981 0.83622 0.0
C2083 C 0.86924 0.31093 0.83336 0.0
C2084 C 0.88879 0.27055 0.88859 0.0
C2085 C 0.88314 0.22184 0.84994 0.0
C2086 C 0.88239 0.24199 0.85032 0.0
C2087 C 0.88354 0.3004 0.85051 0.0
C2088 C 0.88261 0.28029 0.85057 0.0
H2089 H 0.85835 0.18485 0.81924 0.0
H2090 H 0.85755 0.21785 0.81516 0.0
H2091 H 0.89341 0.24477 0.91864 0.0
H2092 H 0.91096 0.33444 0.88707 0.0
H2093 H 0.91011 0.30165 0.88159 0.0
C2094 C 0.62376 0.82588 0.39061 0.0
C2095 C 0.6371 0.83614 0.36901 0.0
C2096 C 0.62308 0.80715 0.38498 0.0
C2097 C 0.6432 0.76865 0.31707 0.0
H2098 H 0.62347 0.7405 0.41613 0.0
C2099 C 0.65484 0.6916 0.34424 0.0
C2100 C 0.63935 0.68117 0.35192 0.0
C2101 C 0.65374 0.71042 0.34204 0.0
C2102 C 0.62893 0.74818 0.38808 0.0
H2103 H 0.66029 0.83492 0.32476 0.0
H2104 H 0.65992 0.80216 0.31685 0.0
H2105 H 0.6238 0.77314 0.42173 0.0
H2106 H 0.6106 0.68212 0.36368 0.0
H2107 H 0.6087 0.71521 0.36128 0.0
H2108 H 0.64931 0.74326 0.28512 0.0
C2109 C 0.64939 0.80846 0.33672 0.0
C2110 C 0.629 0.76703 0.39095 0.0
C2111 C 0.64972 0.82731 0.34133 0.0
C2112 C 0.62267 0.68987 0.35689 0.0
C2113 C 0.62163 0.70876 0.35593 0.0
C2114 C 0.64357 0.74974 0.31485 0.0
C2115 C 0.63612 0.79798 0.35874 0.0
C2116 C 0.63605 0.77768 0.35539 0.0
C2117 C 0.63718 0.71924 0.34871 0.0
C2118 C 0.63637 0.73931 0.35026 0.0
H2119 H 0.61375 0.8324 0.41184 0.0
H2120 H 0.61225 0.79993 0.40142 0.0
H2121 H 0.64843 0.77609 0.28838 0.0
H2122 H 0.66789 0.68518 0.34089 0.0
H2123 H 0.66596 0.71813 0.33694 0.0
C2124 C 0.87561 0.6915 0.20315 0.0
C2125 C 0.88326 0.68375 0.16386 0.0
C2126 C 0.87585 0.71029 0.20964 0.0
C2127 C 0.90094 0.75096 0.17716 0.0
H2128 H 0.85673 0.77765 0.1972 0.0
C2129 C 0.89663 0.82657 0.13897 0.0
C2130 C 0.88509 0.83782 0.16409 0.0
C2131 C 0.8968 0.80798 0.14595 0.0
C2132 C 0.86928 0.77045 0.19253 0.0
H2133 H 0.89749 0.68972 0.10117 0.0
H2134 H 0.89826 0.72215 0.11305 0.0
H2135 H 0.85621 0.74465 0.19731 0.0
H2136 H 0.86524 0.83841 0.21795 0.0
H2137 H 0.86581 0.80575 0.2312 0.0
H2138 H 0.91415 0.77646 0.17258 0.0
C2139 C 0.89193 0.7138 0.13863 0.0
C2140 C 0.86895 0.75151 0.19247 0.0
C2141 C 0.89138 0.69517 0.13174 0.0
C2142 C 0.87423 0.83007 0.19793 0.0
C2143 C 0.87444 0.81133 0.20514 0.0
C2144 C 0.90134 0.7698 0.17783 0.0
C2145 C 0.88413 0.72162 0.17751 0.0
C2146 C 0.8847 0.74158 0.18357 0.0
C2147 C 0.88563 0.79998 0.17887 0.0
C2148 C 0.88544 0.77988 0.18416 0.0
H2149 H 0.8692 0.68308 0.22846 0.0
H2150 H 0.86977 0.71595 0.23998 0.0
H2151 H 0.91336 0.74368 0.17094 0.0
H2152 H 0.90534 0.83213 0.11298 0.0
H2153 H 0.90539 0.79983 0.1244 0.0
C2154 C 0.62345 0.19498 0.65343 0.0
C2155 C 0.638 0.18447 0.66863 0.0
C2156 C 0.62411 0.21379 0.656 0.0
C2157 C 0.6479 0.25246 0.71056 0.0
H2158 H 0.62805 0.27863 0.60778 0.0
C2159 C 0.65436 0.33061 0.68945 0.0
C2160 C 0.63937 0.33962 0.67101 0.0
C2161 C 0.65472 0.31169 0.69133 0.0
C2162 C 0.63349 0.27158 0.63703 0.0
H2163 H 0.66448 0.18536 0.69968 0.0
H2164 H 0.66578 0.21838 0.70408 0.0
H2165 H 0.62787 0.24584 0.6071 0.0
H2166 H 0.61265 0.33605 0.64253 0.0
H2167 H 0.61308 0.30323 0.64641 0.0
H2168 H 0.65358 0.27834 0.74032 0.0
C2169 C 0.65374 0.21207 0.69047 0.0
C2170 C 0.63337 0.25271 0.63666 0.0
C2171 C 0.65301 0.19315 0.68809 0.0
C2172 C 0.62447 0.32944 0.65639 0.0
C2173 C 0.62479 0.3106 0.65838 0.0
C2174 C 0.64806 0.2714 0.71088 0.0
C2175 C 0.6394 0.22267 0.6737 0.0
C2176 C 0.64035 0.24284 0.67366 0.0
C2177 C 0.64004 0.30141 0.67504 0.0
C2178 C 0.64064 0.28123 0.67435 0.0
H2179 H 0.61162 0.18862 0.63871 0.0
H2180 H 0.61263 0.22139 0.64367 0.0
H2181 H 0.6533 0.24537 0.73979 0.0
H2182 H 0.66608 0.33814 0.70068 0.0
H2183 H 0.66674 0.30511 0.70415 0.0
C2184 C 0.94689 0.37791 0.88899 0.0
C2185 C 0.93605 0.38925 0.91572 0.0
C2186 C 0.96558 0.37759 0.89486 0.0
C2187 C 1.00336 0.39235 0.9719 0.0
H2188 H 0.03121 0.38328 0.86266 0.0
C2189 C 0.08212 0.4003 0.95435 0.0
C2190 C 0.0907 0.3864 0.9301 0.0
C2191 C 0.06322 0.40068 0.95787 0.0
C2192 C 0.02365 0.38581 0.89353 0.0
H2193 H 0.93624 0.40892 0.9703 0.0
H2194 H 0.96914 0.40901 0.97948 0.0
H2195 H 0.99863 0.38474 0.85772 0.0
H2196 H 0.08649 0.36119 0.89435 0.0
H2197 H 0.05369 0.36191 0.89997 0.0
H2198 H 0.02886 0.39409 1.00701 0.0
C2199 C 0.96316 0.39999 0.9546 0.0
C2200 C 1.00486 0.38648 0.89087 0.0
C2201 C 0.9443 0.40001 0.94932 0.0
C2202 C 0.08019 0.37231 0.91221 0.0
C2203 C 0.06142 0.37271 0.91549 0.0
C2204 C 0.0223 0.39204 0.97434 0.0
C2205 C 0.97412 0.38894 0.92689 0.0
C2206 C 0.99433 0.38937 0.93011 0.0
C2207 C 0.05266 0.38715 0.93718 0.0
C2208 C 0.03262 0.38846 0.93524 0.0
H2209 H 0.9409 0.36921 0.86336 0.0
H2210 H 0.9733 0.36838 0.87394 0.0
H2211 H 0.99584 0.3945 1.00299 0.0
H2212 H 0.08992 0.41132 0.96855 0.0
H2213 H 0.05685 0.41197 0.97487 0.0
C2214 C 0.44362 0.62444 0.4412 0.0
C2215 C 0.43484 0.63434 0.40689 0.0
C2216 C 0.46245 0.62523 0.4461 0.0
C2217 C 0.50269 0.65256 0.41401 0.0
H2218 H 0.52903 0.60812 0.43343 0.0
C2219 C 0.57914 0.64667 0.37963 0.0
C2220 C 0.58976 0.63577 0.40815 0.0
C2221 C 0.56037 0.6472 0.38433 0.0
C2222 C 0.52191 0.62071 0.4287 0.0
H2223 H 0.4389 0.6532 0.35168 0.0
H2224 H 0.47157 0.65454 0.35995 0.0
H2225 H 0.49611 0.60779 0.43313 0.0
H2226 H 0.58899 0.6171 0.46467 0.0
H2227 H 0.55616 0.61814 0.47337 0.0
H2228 H 0.52844 0.66545 0.40896 0.0
C2229 C 0.46401 0.64623 0.38339 0.0
C2230 C 0.50298 0.62053 0.42853 0.0
C2231 C 0.44526 0.64538 0.37841 0.0
C2232 C 0.58119 0.62571 0.44231 0.0
C2233 C 0.56235 0.62617 0.44695 0.0
C2234 C 0.52158 0.65275 0.41419 0.0
C2235 C 0.47294 0.63605 0.417 0.0
C2236 C 0.49309 0.63641 0.42053 0.0
C2237 C 0.55165 0.63682 0.41774 0.0
C2238 C 0.53149 0.63679 0.4209 0.0
H2239 H 0.43598 0.61574 0.46352 0.0
H2240 H 0.46881 0.61734 0.47266 0.0
H2241 H 0.49559 0.66513 0.40864 0.0
H2242 H 0.58533 0.65461 0.35301 0.0
H2243 H 0.55265 0.65538 0.36081 0.0
C2244 C 0.44539 0.38768 0.65433 0.0
C2245 C 0.43373 0.39045 0.61702 0.0
C2246 C 0.46404 0.3873 0.64855 0.0
C2247 C 0.50123 0.40164 0.57432 0.0
H2248 H 0.52762 0.3658 0.64359 0.0
C2249 C 0.5803 0.39442 0.57452 0.0
C2250 C 0.588 0.39217 0.61812 0.0
C2251 C 0.56147 0.39376 0.56844 0.0
C2252 C 0.52049 0.37594 0.62411 0.0
H2253 H 0.43285 0.39528 0.54414 0.0
H2254 H 0.4657 0.39464 0.5341 0.0
H2255 H 0.49482 0.36538 0.64341 0.0
H2256 H 0.58162 0.38777 0.68956 0.0
H2257 H 0.54933 0.38667 0.67888 0.0
H2258 H 0.52713 0.41235 0.5558 0.0
C2259 C 0.4602 0.39277 0.5679 0.0
C2260 C 0.50166 0.37571 0.62402 0.0
C2261 C 0.44137 0.39306 0.57365 0.0
C2262 C 0.57638 0.38947 0.65533 0.0
C2263 C 0.55774 0.38871 0.64923 0.0
C2264 C 0.52019 0.40187 0.57439 0.0
C2265 C 0.47174 0.38968 0.60531 0.0
C2266 C 0.49175 0.38884 0.60022 0.0
C2267 C 0.55 0.39066 0.60575 0.0
C2268 C 0.53002 0.3893 0.60037 0.0
H2269 H 0.44017 0.3857 0.68837 0.0
H2270 H 0.47249 0.38525 0.6783 0.0
H2271 H 0.49402 0.41196 0.55568 0.0
H2272 H 0.58879 0.39657 0.54508 0.0
H2273 H 0.55592 0.39532 0.53448 0.0
C2274 C 0.08078 0.61981 0.07976 0.0
C2275 C 0.08961 0.635 0.09775 0.0
C2276 C 0.06187 0.61931 0.07713 0.0
C2277 C 0.0219 0.64057 0.13066 0.0
H2278 H 0.99513 0.61885 0.03087 0.0
C2279 C 0.94491 0.64821 0.11798 0.0
C2280 C 0.93473 0.63312 0.10478 0.0
C2281 C 0.9637 0.64813 0.11411 0.0
C2282 C 1.0024 0.62479 0.05927 0.0
H2283 H 0.08583 0.66194 0.12435 0.0
H2284 H 0.05302 0.66136 0.11866 0.0
H2285 H 0.02812 0.61933 0.02879 0.0
H2286 H 0.93608 0.6063 0.07594 0.0
H2287 H 0.96905 0.60601 0.06944 0.0
H2288 H 0.99635 0.64595 0.16139 0.0
C2289 C 0.06051 0.64959 0.10774 0.0
C2290 C 0.02133 0.62507 0.05805 0.0
C2291 C 0.07932 0.65001 0.11066 0.0
C2292 C 0.94364 0.61816 0.086 0.0
C2293 C 0.96252 0.61802 0.08238 0.0
C2294 C 1.00305 0.64024 0.13194 0.0
C2295 C 0.05147 0.63406 0.09215 0.0
C2296 C 0.03133 0.63317 0.09351 0.0
C2297 C 0.97283 0.63291 0.09712 0.0
C2298 C 0.993 0.63256 0.09604 0.0
H2299 H 0.08843 0.60799 0.07005 0.0
H2300 H 0.05539 0.6071 0.06516 0.0
H2301 H 0.0291 0.64654 0.15914 0.0
H2302 H 0.93834 0.65999 0.13214 0.0
H2303 H 0.97109 0.65999 0.12491 0.0
C2304 C 0.1228 0.57622 0.06695 0.0
C2305 C 0.13532 0.5806 0.10132 0.0
C2306 C 0.12244 0.55904 0.04753 0.0
C2307 C 0.15116 0.51931 0.02656 0.0
H2308 H 0.10576 0.49723 0.99149 0.0
C2309 C 0.14755 0.45528 0.9112 0.0
C2310 C 0.13558 0.44188 0.9261 0.0
C2311 C 0.14721 0.47255 0.93103 0.0
C2312 C 0.11858 0.50314 1.00113 0.0
H2313 H 0.15699 0.57023 0.14328 0.0
H2314 H 0.15628 0.53984 0.10948 0.0
H2315 H 0.10571 0.52545 0.03391 0.0
H2316 H 0.11341 0.43624 0.97167 0.0
H2317 H 0.11263 0.46613 1.00558 0.0
H2318 H 0.16399 0.49671 0.99431 0.0
C2319 C 0.14682 0.54986 0.09735 0.0
C2320 C 0.11856 0.51943 0.02525 0.0
C2321 C 0.14707 0.56715 0.11718 0.0
C2322 C 0.12275 0.44632 0.95938 0.0
C2323 C 0.1223 0.4635 0.9788 0.0
C2324 C 0.15118 0.50297 1.00228 0.0
C2325 C 0.13464 0.54569 0.06177 0.0
C2326 C 0.13482 0.52778 0.03825 0.0
C2327 C 0.13474 0.47678 0.96564 0.0
C2328 C 0.13488 0.49465 0.98932 0.0
H2329 H 0.11364 0.58633 0.05385 0.0
H2330 H 0.11301 0.55646 0.01998 0.0
H2331 H 0.16394 0.52546 0.03549 0.0
H2332 H 0.15771 0.45215 0.88597 0.0
H2333 H 0.15686 0.48251 0.91971 0.0
C2334 C 0.69788 0.87632 0.33975 0.0
C2335 C 0.68873 0.89268 0.34658 0.0
C2336 C 0.715 0.87599 0.31952 0.0
C2337 C 0.74674 0.90472 0.25086 0.0
H2338 H 0.78119 0.86753 0.28293 0.0
C2339 C 0.82246 0.90662 0.19835 0.0
C2340 C 0.83 0.89056 0.18142 0.0
C2341 C 0.80505 0.90683 0.21696 0.0
C2342 C 0.77167 0.87793 0.27332 0.0
H2343 H 0.69061 0.92157 0.33884 0.0
H2344 H 0.72063 0.9212 0.30505 0.0
H2345 H 0.75184 0.86825 0.32003 0.0
H2346 H 0.82488 0.86219 0.16964 0.0
H2347 H 0.79459 0.86246 0.2029 0.0
H2348 H 0.76699 0.91469 0.20527 0.0
C2349 C 0.71447 0.90846 0.3138 0.0
C2350 C 0.75472 0.87833 0.29449 0.0
C2351 C 0.69726 0.90874 0.33356 0.0
C2352 C 0.81953 0.87476 0.18268 0.0
C2353 C 0.80221 0.8749 0.20195 0.0
C2354 C 0.76381 0.90448 0.23029 0.0
C2355 C 0.72361 0.89206 0.30599 0.0
C2356 C 0.74189 0.89171 0.2836 0.0
C2357 C 0.79477 0.89093 0.21956 0.0
C2358 C 0.77649 0.89106 0.24112 0.0
H2359 H 0.6916 0.86369 0.34907 0.0
H2360 H 0.72126 0.86303 0.31365 0.0
H2361 H 0.73727 0.91502 0.24046 0.0
H2362 H 0.83004 0.91909 0.19722 0.0
H2363 H 0.79978 0.91939 0.23024 0.0
C2364 C 0.36268 0.44616 0.57427 0.0
C2365 C 0.37762 0.43907 0.59774 0.0
C2366 C 0.36335 0.46335 0.55467 0.0
C2367 C 0.39606 0.4991 0.5186 0.0
H2368 H 0.3529 0.52839 0.51028 0.0
C2369 C 0.39694 0.57433 0.4635 0.0
C2370 C 0.3835 0.57999 0.43282 0.0
C2371 C 0.39638 0.55708 0.48279 0.0
C2372 C 0.36505 0.52032 0.51194 0.0
H2373 H 0.40495 0.44477 0.61956 0.0
H2374 H 0.40588 0.47505 0.58782 0.0
H2375 H 0.35156 0.49904 0.54719 0.0
H2376 H 0.35875 0.57207 0.39892 0.0
H2377 H 0.35773 0.54191 0.43254 0.0
H2378 H 0.40958 0.52068 0.4842 0.0
C2379 C 0.39373 0.46716 0.58315 0.0
C2380 C 0.3643 0.50339 0.53307 0.0
C2381 C 0.39311 0.44984 0.60218 0.0
C2382 C 0.36945 0.568 0.42188 0.0
C2383 C 0.36877 0.5508 0.44157 0.0
C2384 C 0.39684 0.51611 0.49795 0.0
C2385 C 0.37893 0.47415 0.55857 0.0
C2386 C 0.37978 0.49244 0.53666 0.0
C2387 C 0.38221 0.54512 0.4724 0.0
C2388 C 0.38134 0.52693 0.49419 0.0
H2389 H 0.35039 0.43837 0.57089 0.0
H2390 H 0.3517 0.46799 0.53571 0.0
H2391 H 0.40823 0.49106 0.51966 0.0
H2392 H 0.40791 0.58328 0.47273 0.0
H2393 H 0.40685 0.55324 0.50669 0.0
C2394 C 0.81955 0.11552 0.84898 0.0
C2395 C 0.8294 0.13166 0.85075 0.0
C2396 C 0.80267 0.11487 0.82685 0.0
C2397 C 0.77422 0.14195 0.74445 0.0
H2398 H 0.73683 0.10803 0.77774 0.0
C2399 C 0.69797 0.14768 0.69771 0.0
C2400 C 0.6909 0.1333 0.67201 0.0
C2401 C 0.71537 0.14674 0.71627 0.0
C2402 C 0.74725 0.11747 0.76791 0.0
H2403 H 0.82916 0.15984 0.83237 0.0
H2404 H 0.79942 0.15922 0.79765 0.0
H2405 H 0.76548 0.10807 0.81942 0.0
H2406 H 0.69644 0.10662 0.64561 0.0
H2407 H 0.72685 0.1047 0.67964 0.0
H2408 H 0.75542 0.15192 0.69465 0.0
C2409 C 0.80479 0.14674 0.81093 0.0
C2410 C 0.76376 0.11749 0.79167 0.0
C2411 C 0.82178 0.14723 0.83176 0.0
C2412 C 0.7017 0.118 0.66468 0.0
C2413 C 0.71897 0.11684 0.68449 0.0
C2414 C 0.7576 0.14219 0.72156 0.0
C2415 C 0.7951 0.13045 0.80674 0.0
C2416 C 0.77752 0.12987 0.78066 0.0
C2417 C 0.72591 0.13118 0.71069 0.0
C2418 C 0.74393 0.13001 0.73309 0.0
H2419 H 0.82535 0.10323 0.86238 0.0
H2420 H 0.79593 0.10199 0.82411 0.0
H2421 H 0.78448 0.15133 0.73343 0.0
H2422 H 0.68988 0.15958 0.70404 0.0
H2423 H 0.72039 0.15798 0.7363 0.0
C2424 C 0.89992 0.57191 0.07726 0.0
C2425 C 0.88653 0.57801 0.10734 0.0
C2426 C 0.89945 0.55436 0.05975 0.0
C2427 C 0.86785 0.51822 0.03045 0.0
H2428 H 0.91078 0.4887 0.02049 0.0
C2429 C 0.86517 0.44555 0.95687 0.0
C2430 C 0.88018 0.4389 0.93301 0.0
C2431 C 0.86587 0.46225 0.97922 0.0
C2432 C 0.89868 0.49683 0.02222 0.0
H2433 H 0.86233 0.57045 0.14349 0.0
H2434 H 0.8613 0.53966 0.11224 0.0
H2435 H 0.91236 0.51773 0.05941 0.0
H2436 H 0.90758 0.44493 0.91305 0.0
H2437 H 0.90854 0.47445 0.94957 0.0
H2438 H 0.85425 0.49774 0.99205 0.0
C2439 C 0.87223 0.54849 0.10243 0.0
C2440 C 0.89959 0.51346 0.04494 0.0
C2441 C 0.87291 0.56601 0.12069 0.0
C2442 C 0.89572 0.44967 0.93075 0.0
C2443 C 0.89635 0.46652 0.95252 0.0
C2444 C 0.86699 0.50169 1.00721 0.0
C2445 C 0.88539 0.54253 0.0713 0.0
C2446 C 0.8842 0.52439 0.04928 0.0
C2447 C 0.88152 0.473 0.9777 0.0
C2448 C 0.8824 0.49072 1.00258 0.0
H2449 H 0.91056 0.5809 0.06635 0.0
H2450 H 0.90972 0.55028 0.03568 0.0
H2451 H 0.85581 0.52644 0.03254 0.0
H2452 H 0.85285 0.43777 0.95854 0.0
H2453 H 0.85419 0.46651 0.99847 0.0
C2454 C 0.19739 0.14309 0.832 0.0
C2455 C 0.18879 0.12648 0.83938 0.0
C2456 C 0.21447 0.14377 0.8116 0.0
C2457 C 0.2558 0.11769 0.79277 0.0
H2458 H 0.26331 0.14861 0.68833 0.0
C2459 C 0.32246 0.11437 0.69135 0.0
C2460 C 0.3292 0.1301 0.671 0.0
C2461 C 0.3052 0.11403 0.71062 0.0
C2462 C 0.26166 0.14011 0.71791 0.0
H2463 H 0.19152 0.09758 0.83265 0.0
H2464 H 0.22157 0.09871 0.79808 0.0
H2465 H 0.23402 0.1482 0.72601 0.0
H2466 H 0.32289 0.15783 0.65472 0.0
H2467 H 0.29312 0.15754 0.68969 0.0
H2468 H 0.28342 0.10999 0.78625 0.0
C2469 C 0.21502 0.11122 0.8075 0.0
C2470 C 0.24476 0.13983 0.73938 0.0
C2471 C 0.19781 0.11056 0.82711 0.0
C2472 C 0.3181 0.14545 0.6699 0.0
C2473 C 0.30091 0.14522 0.68988 0.0
C2474 C 0.27278 0.1182 0.7719 0.0
C2475 C 0.22348 0.12784 0.79902 0.0
C2476 C 0.24159 0.12851 0.77687 0.0
C2477 C 0.29419 0.12952 0.71099 0.0
C2478 C 0.276 0.12929 0.73378 0.0
H2479 H 0.19075 0.15558 0.84111 0.0
H2480 H 0.22069 0.15677 0.80593 0.0
H2481 H 0.25386 0.10899 0.82194 0.0
H2482 H 0.33052 0.1022 0.69224 0.0
H2483 H 0.30052 0.10149 0.72506 0.0
C2484 C 0.62723 0.57618 0.46478 0.0
C2485 C 0.64072 0.58164 0.43425 0.0
C2486 C 0.62755 0.55893 0.48414 0.0
C2487 C 0.65835 0.52168 0.51373 0.0
H2488 H 0.61467 0.49323 0.52188 0.0
C2489 C 0.65959 0.44758 0.57689 0.0
C2490 C 0.6446 0.44076 0.60038 0.0
C2491 C 0.65916 0.46476 0.55717 0.0
C2492 C 0.62698 0.50104 0.5207 0.0
H2493 H 0.66529 0.57334 0.40067 0.0
H2494 H 0.66589 0.54317 0.43438 0.0
H2495 H 0.61375 0.5228 0.48603 0.0
H2496 H 0.61744 0.44694 0.62209 0.0
H2497 H 0.61694 0.47722 0.59013 0.0
H2498 H 0.67156 0.50023 0.54923 0.0
C2499 C 0.655 0.55223 0.44326 0.0
C2500 C 0.62644 0.51803 0.49982 0.0
C2501 C 0.65456 0.56944 0.4235 0.0
C2502 C 0.62931 0.45181 0.60473 0.0
C2503 C 0.62894 0.46912 0.58556 0.0
C2504 C 0.65886 0.50478 0.53508 0.0
C2505 C 0.64152 0.54675 0.47396 0.0
C2506 C 0.64213 0.52856 0.49591 0.0
C2507 C 0.64379 0.47584 0.56095 0.0
C2508 C 0.64319 0.49412 0.53883 0.0
H2509 H 0.61641 0.5853 0.47389 0.0
H2510 H 0.61705 0.55528 0.50795 0.0
H2511 H 0.67064 0.52953 0.51198 0.0
H2512 H 0.67172 0.43958 0.57352 0.0
H2513 H 0.67083 0.46918 0.53818 0.0
C2514 C 0.32318 0.87496 0.33917 0.0
C2515 C 0.33394 0.89054 0.33832 0.0
C2516 C 0.30599 0.87479 0.31892 0.0
C2517 C 0.27014 0.90531 0.27001 0.0
H2518 H 0.25263 0.86067 0.21704 0.0
C2519 C 0.20449 0.90104 0.15966 0.0
C2520 C 0.1923 0.8876 0.17319 0.0
C2521 C 0.22215 0.90141 0.17737 0.0
C2522 C 0.25731 0.87325 0.23175 0.0
H2523 H 0.3348 0.91832 0.31624 0.0
H2524 H 0.30543 0.91784 0.27888 0.0
H2525 H 0.28224 0.86149 0.25328 0.0
H2526 H 0.18925 0.86361 0.2142 0.0
H2527 H 0.22012 0.86387 0.24375 0.0
H2528 H 0.24522 0.91706 0.2472 0.0
C2529 C 0.30991 0.90578 0.29618 0.0
C2530 C 0.2743 0.87372 0.253 0.0
C2531 C 0.32694 0.90602 0.3172 0.0
C2532 C 0.19836 0.87412 0.20312 0.0
C2533 C 0.21606 0.87426 0.22001 0.0
C2534 C 0.25326 0.90489 0.24809 0.0
C2535 C 0.29912 0.89012 0.29642 0.0
C2536 C 0.28098 0.88972 0.27295 0.0
C2537 C 0.2281 0.88809 0.2081 0.0
C2538 C 0.24655 0.88881 0.22901 0.0
H2539 H 0.32818 0.86274 0.35473 0.0
H2540 H 0.29813 0.86254 0.32102 0.0
H2541 H 0.27447 0.91786 0.28546 0.0
H2542 H 0.20013 0.91169 0.13697 0.0
H2543 H 0.23112 0.91218 0.16728 0.0
C2544 C 0.6448 0.95574 0.40461 0.0
C2545 C 0.63629 0.94172 0.42841 0.0
C2546 C 0.64428 0.97357 0.42128 0.0
C2547 C 0.62191 1.00264 0.51186 0.0
H2548 H 0.66207 0.03436 0.48715 0.0
C2549 C 0.62356 0.07541 0.58598 0.0
C2550 C 0.64028 0.08377 0.59362 0.0
C2551 C 0.62255 0.05864 0.56377 0.0
C2552 C 0.65084 0.02566 0.49533 0.0
H2553 H 0.62024 0.93569 0.48806 0.0
H2554 H 0.62025 0.96593 0.51819 0.0
H2555 H 0.66135 1.00463 0.45309 0.0
H2556 H 0.6691 0.08085 0.58557 0.0
H2557 H 0.66759 0.05129 0.54966 0.0
H2558 H 0.61206 0.02302 0.55675 0.0
C2559 C 0.62682 0.96368 0.48583 0.0
C2560 C 0.65022 1.00855 0.47469 0.0
C2561 C 0.627 0.94608 0.46868 0.0
C2562 C 0.65599 0.07478 0.57976 0.0
C2563 C 0.65505 0.05783 0.55855 0.0
C2564 C 0.62277 0.01952 0.5334 0.0
C2565 C 0.63551 0.97783 0.46271 0.0
C2566 C 0.6358 0.99662 0.48277 0.0
C2567 C 0.63829 0.04948 0.54954 0.0
C2568 C 0.63727 0.0314 0.52575 0.0
H2569 H 0.65224 0.9529 0.37374 0.0
H2570 H 0.65089 0.98394 0.40165 0.0
H2571 H 0.61024 0.99432 0.51841 0.0
H2572 H 0.61119 0.08211 0.59581 0.0
H2573 H 0.60931 0.05313 0.557 0.0
C2574 C 0.19661 0.40951 0.82364 0.0
C2575 C 0.1894 0.39384 0.84315 0.0
C2576 C 0.21315 0.40906 0.80072 0.0
C2577 C 0.24579 0.37666 0.7478 0.0
H2578 H 0.27772 0.41804 0.74871 0.0
C2579 C 0.32081 0.3737 0.69423 0.0
C2580 C 0.32757 0.38774 0.66722 0.0
C2581 C 0.30326 0.37442 0.7114 0.0
C2582 C 0.26884 0.40645 0.74766 0.0
H2583 H 0.19429 0.36551 0.85531 0.0
H2584 H 0.22353 0.36485 0.8179 0.0
H2585 H 0.24919 0.41943 0.78974 0.0
H2586 H 0.32122 0.41336 0.63614 0.0
H2587 H 0.29043 0.41482 0.66695 0.0
H2588 H 0.26587 0.36352 0.70705 0.0
C2589 C 0.21615 0.37743 0.81852 0.0
C2590 C 0.25241 0.40723 0.77118 0.0
C2591 C 0.19946 0.37784 0.84075 0.0
C2592 C 0.31624 0.40229 0.65648 0.0
C2593 C 0.29873 0.40319 0.6745 0.0
C2594 C 0.26231 0.37582 0.72484 0.0
C2595 C 0.22315 0.39297 0.79745 0.0
C2596 C 0.24065 0.3923 0.77186 0.0
C2597 C 0.29213 0.38935 0.70264 0.0
C2598 C 0.27406 0.39067 0.72462 0.0
H2599 H 0.18928 0.42212 0.82544 0.0
H2600 H 0.21787 0.4213 0.78473 0.0
H2601 H 0.23702 0.36501 0.74636 0.0
H2602 H 0.32931 0.36236 0.70308 0.0
H2603 H 0.29865 0.36359 0.73313 0.0
C2604 C 0.87461 0.94351 0.04374 0.0
C2605 C 0.87326 0.94043 0.09105 0.0
C2606 C 0.87357 0.96089 0.02585 0.0
C2607 C 0.882 1.00808 0.05338 0.0
H2608 H 0.85312 0.01775 0.94566 0.0
C2609 C 0.87788 0.07977 0.97849 0.0
C2610 C 0.87648 0.08203 0.93094 0.0
C2611 C 0.87631 0.06277 0.9984 0.0
C2612 C 0.8615 0.0153 0.97529 0.0
H2613 H 0.86904 0.9536 0.15624 0.0
H2614 H 0.86796 0.98422 0.12487 0.0
H2615 H 0.85227 0.98798 0.98057 0.0
H2616 H 0.87143 0.06791 0.86749 0.0
H2617 H 0.86966 0.03804 0.90174 0.0
H2618 H 0.89188 0.035 0.04737 0.0
C2619 C 0.86985 0.97294 0.10186 0.0
C2620 C 0.86088 0.99822 0.99556 0.0
C2621 C 0.87055 0.95539 0.11985 0.0
C2622 C 0.873 0.06672 0.90397 0.0
C2623 C 0.87173 0.04955 0.9239 0.0
C2624 C 0.88284 0.02507 0.03276 0.0
C2625 C 0.87136 0.97586 0.05457 0.0
C2626 C 0.87115 0.99438 0.0348 0.0
C2627 C 0.87351 0.04729 0.97152 0.0
C2628 C 0.8726 0.029 0.99334 0.0
H2629 H 0.87663 0.93248 0.02008 0.0
H2630 H 0.87495 0.96265 0.98938 0.0
H2631 H 0.89031 1.00548 0.0831 0.0
H2632 H 0.88016 0.09122 1.00077 0.0
H2633 H 0.87718 0.06187 0.03516 0.0
C2634 C 0.19536 0.61172 0.20486 0.0
C2635 C 0.18882 0.62749 0.18421 0.0
C2636 C 0.21212 0.61157 0.22714 0.0
C2637 C 0.2475 0.6429 0.27431 0.0
H2638 H 0.27627 0.59933 0.27914 0.0
C2639 C 0.32339 0.64148 0.32144 0.0
C2640 C 0.3293 0.62837 0.35254 0.0
C2641 C 0.30564 0.64146 0.30519 0.0
C2642 C 0.26828 0.61155 0.27853 0.0
H2643 H 0.19511 0.65534 0.1696 0.0
H2644 H 0.22476 0.65484 0.20529 0.0
H2645 H 0.24726 0.59901 0.23965 0.0
H2646 H 0.32127 0.60497 0.39126 0.0
H2647 H 0.29011 0.60459 0.3617 0.0
H2648 H 0.26907 0.65556 0.31144 0.0
C2649 C 0.2167 0.6427 0.20627 0.0
C2650 C 0.25156 0.6114 0.25593 0.0
C2651 C 0.19976 0.64293 0.18488 0.0
C2652 C 0.31698 0.61534 0.36768 0.0
C2653 C 0.29925 0.61504 0.35049 0.0
C2654 C 0.26435 0.64311 0.29614 0.0
C2655 C 0.22307 0.6271 0.22849 0.0
C2656 C 0.2409 0.62711 0.2532 0.0
C2657 C 0.29343 0.62807 0.31881 0.0
C2658 C 0.27497 0.62746 0.29838 0.0
H2659 H 0.18734 0.59952 0.20449 0.0
H2660 H 0.21626 0.59932 0.2441 0.0
H2661 H 0.23964 0.65519 0.27429 0.0
H2662 H 0.33262 0.65168 0.30918 0.0
H2663 H 0.30163 0.6516 0.28066 0.0
C2664 C 0.39745 0.94602 0.44792 0.0
C2665 C 0.38456 0.93985 0.41629 0.0
C2666 C 0.39664 0.96355 0.46542 0.0
C2667 C 0.36492 1.00023 0.49028 0.0
H2668 H 0.40814 0.02925 0.50323 0.0
C2669 C 0.36863 0.06675 0.59866 0.0
C2670 C 0.37705 0.08137 0.57698 0.0
C2671 C 0.3692 0.0494 0.57913 0.0
C2672 C 0.39593 0.02134 0.49986 0.0
H2673 H 0.36081 0.94729 0.37763 0.0
H2674 H 0.35922 0.9781 0.40872 0.0
H2675 H 0.40983 0.99979 0.46615 0.0
H2676 H 0.39301 0.08903 0.51828 0.0
H2677 H 0.3942 0.05903 0.48506 0.0
H2678 H 0.35107 0.02183 0.52441 0.0
C2679 C 0.37002 0.96931 0.41979 0.0
C2680 C 0.39691 1.00441 0.47875 0.0
C2681 C 0.37105 0.95178 0.40156 0.0
C2682 C 0.38626 0.07816 0.53587 0.0
C2683 C 0.38706 0.06088 0.51687 0.0
C2684 C 0.36398 0.01711 0.51203 0.0
C2685 C 0.38273 0.97534 0.45231 0.0
C2686 C 0.38143 0.99365 0.47351 0.0
C2687 C 0.3785 0.04626 0.53802 0.0
C2688 C 0.37947 0.02792 0.51687 0.0
H2689 H 0.40797 0.93709 0.46003 0.0
H2690 H 0.40657 0.96767 0.49055 0.0
H2691 H 0.35278 0.9922 0.48726 0.0
H2692 H 0.3614 0.06877 0.63027 0.0
H2693 H 0.36256 0.03839 0.59645 0.0
C2694 C 0.82379 0.64159 0.18194 0.0
C2695 C 0.8351 0.62646 0.18487 0.0
C2696 C 0.80696 0.64179 0.20362 0.0
C2697 C 0.77303 0.6116 0.26049 0.0
H2698 H 0.75465 0.65705 0.30628 0.0
C2699 C 0.70773 0.61751 0.37076 0.0
C2700 C 0.69517 0.62997 0.35362 0.0
C2701 C 0.72542 0.61705 0.3536 0.0
C2702 C 0.75961 0.64425 0.2937 0.0
H2703 H 0.83719 0.59937 0.21154 0.0
H2704 H 0.80859 0.60007 0.25171 0.0
H2705 H 0.78393 0.65612 0.26896 0.0
H2706 H 0.69143 0.65214 0.30667 0.0
H2707 H 0.72228 0.65173 0.27806 0.0
H2708 H 0.7487 0.59978 0.2864 0.0
C2709 C 0.81237 0.61173 0.23189 0.0
C2710 C 0.77638 0.6437 0.27181 0.0
C2711 C 0.82902 0.61143 0.20946 0.0
C2712 C 0.70082 0.64237 0.32049 0.0
C2713 C 0.71851 0.64218 0.30419 0.0
C2714 C 0.75638 0.61212 0.28309 0.0
C2715 C 0.80105 0.62696 0.22957 0.0
C2716 C 0.7833 0.62741 0.25423 0.0
C2717 C 0.73096 0.62933 0.31987 0.0
C2718 C 0.74937 0.62848 0.29947 0.0
H2719 H 0.82808 0.65346 0.16366 0.0
H2720 H 0.79861 0.65365 0.19988 0.0
H2721 H 0.77758 0.59881 0.24697 0.0
H2722 H 0.70367 0.6077 0.39598 0.0
H2723 H 0.73474 0.60704 0.36648 0.0
C2724 C 0.12265 0.07057 0.94428 0.0
C2725 C 0.1361 0.07649 0.91426 0.0
C2726 C 0.12293 0.05304 0.96161 0.0
C2727 C 0.15442 0.01732 0.99218 0.0
H2728 H 0.11169 0.98754 1.00236 0.0
C2729 C 0.15751 0.94571 0.07038 0.0
C2730 C 0.14243 0.93912 0.09389 0.0
C2731 C 0.15672 0.96208 0.04685 0.0
C2732 C 0.12373 0.99575 1.00057 0.0
H2733 H 0.16017 0.0686 0.87785 0.0
H2734 H 0.16089 0.03786 0.90885 0.0
H2735 H 0.11006 0.01617 0.96201 0.0
H2736 H 0.1148 0.94494 0.11224 0.0
H2737 H 0.11364 0.97397 0.07373 0.0
H2738 H 0.168 0.99741 0.03212 0.0
C2739 C 0.15004 0.04681 0.91867 0.0
C2740 C 0.12279 0.01213 0.97701 0.0
C2741 C 0.14953 0.0643 0.90054 0.0
C2742 C 0.1267 0.94964 0.09471 0.0
C2743 C 0.12597 0.9662 0.07182 0.0
C2744 C 0.15531 1.00106 0.01632 0.0
C2745 C 0.13688 0.04108 0.94998 0.0
C2746 C 0.13812 0.02313 0.97258 0.0
C2747 C 0.1409 0.97259 0.04695 0.0
C2748 C 0.13997 0.99 0.02104 0.0
H2749 H 0.11217 0.07973 0.95549 0.0
H2750 H 0.11267 0.04911 0.98579 0.0
H2751 H 0.16639 0.02563 0.99006 0.0
H2752 H 0.16999 0.93815 0.06994 0.0
H2753 H 0.16847 0.96627 0.0279 0.0
C2754 C 0.70489 0.40478 0.66599 0.0
C2755 C 0.694 0.38946 0.67152 0.0
C2756 C 0.72212 0.4055 0.68608 0.0
C2757 C 0.76094 0.38098 0.7194 0.0
H2758 H 0.76572 0.40907 0.83052 0.0
C2759 C 0.82422 0.37328 0.83126 0.0
C2760 C 0.83093 0.38832 0.85488 0.0
C2761 C 0.80726 0.37379 0.81039 0.0
C2762 C 0.76484 0.40138 0.79917 0.0
H2763 H 0.69274 0.36265 0.7001 0.0
H2764 H 0.72317 0.36356 0.73301 0.0
H2765 H 0.73757 0.41006 0.78684 0.0
H2766 H 0.82514 0.4156 0.87615 0.0
H2767 H 0.79574 0.41694 0.83811 0.0
H2768 H 0.78815 0.37266 0.73006 0.0
C2769 C 0.71826 0.37511 0.71418 0.0
C2770 C 0.74864 0.40194 0.77428 0.0
C2771 C 0.70094 0.37457 0.69523 0.0
C2772 C 0.82008 0.40372 0.85875 0.0
C2773 C 0.80322 0.40444 0.83674 0.0
C2774 C 0.77724 0.3807 0.74364 0.0
C2775 C 0.72882 0.39072 0.71076 0.0
C2776 C 0.7465 0.39157 0.73452 0.0
C2777 C 0.79671 0.3896 0.81125 0.0
C2778 C 0.7794 0.39062 0.78448 0.0
H2779 H 0.69969 0.41653 0.64852 0.0
H2780 H 0.73007 0.41768 0.68306 0.0
H2781 H 0.75958 0.37288 0.68878 0.0
H2782 H 0.83234 0.36121 0.82803 0.0
H2783 H 0.80261 0.36181 0.79285 0.0
loop_
_geom_bond_atom_site_label_1
_geom_bond_atom_site_label_2
_geom_bond_distance
_geom_bond_site_symmetry_2
_ccdc_geom_bond_type
Tb0 N29 2.617 . S
Tb0 N35 2.572 . S
Tb0 O44 2.465 . S
Tb0 O45 2.387 . S
Tb0 O47 2.428 . S
Tb0 O48 2.308 . S
Tb0 O52 2.349 . S
Tb0 O55 2.393 . S
Tb0 C64 2.802 . S
C1 N2 1.379 . S
C1 C4 1.416 . S
C1 C8 1.424 . S
N2 C1 1.379 . S
N2 C5 1.334 . S
N2 Tb11 2.617 . S
C3 C5 1.390 . S
C3 C6 1.339 . S
C3 H23 0.930 . S
C4 C1 1.416 . S
C4 C6 1.416 . S
C4 C10 1.448 . S
C5 N2 1.334 . S
C5 C3 1.390 . S
C5 H16 0.930 . S
C6 C3 1.339 . S
C6 C4 1.416 . S
C6 H27 0.930 . S
C7 C8 1.413 . S
C7 C9 1.427 . S
C7 C13 1.416 . S
C8 C1 1.424 . S
C8 C7 1.413 . S
C8 N12 1.361 . S
C9 C7 1.427 . S
C9 C10 1.328 . S
C9 H24 0.929 1_554 S
C10 C4 1.448 . S
C10 C9 1.328 . S
C10 H25 0.930 . S
Tb11 N2 2.617 . S
Tb11 N12 2.572 . S
Tb11 O46 2.349 . S
Tb11 O49 2.393 . S
Tb11 O50 2.465 1_554 S
Tb11 O51 2.387 . S
Tb11 O53 2.428 1_554 S
Tb11 O54 2.308 . S
Tb11 C75 2.802 1_554 S
N12 C8 1.361 . S
N12 Tb11 2.572 . S
N12 C14 1.340 . S
C13 C7 1.416 . S
C13 C15 1.332 . S
C13 H21 0.931 1_554 S
C14 N12 1.340 . S
C14 C15 1.407 . S
C14 H20 0.930 . S
C15 C13 1.332 . S
C15 C14 1.407 . S
C15 H17 0.929 . S
H16 C5 0.930 . S
H17 C15 0.929 . S
H18 C33 0.930 . S
H19 C40 0.929 . S
H20 C14 0.930 . S
H21 C13 0.931 1_556 S
H22 C36 0.930 . S
H23 C3 0.930 . S
H24 C9 0.929 1_556 S
H25 C10 0.930 . S
H26 C31 0.930 . S
H27 C6 0.930 . S
H28 C39 0.931 . S
N29 Tb0 2.617 . S
N29 C30 1.379 . S
N29 C33 1.334 . S
C30 N29 1.379 . S
C30 C32 1.416 . S
C30 C38 1.424 . S
C31 H26 0.930 . S
C31 C33 1.390 . S
C31 C34 1.339 . S
C32 C30 1.416 . S
C32 C34 1.416 . S
C32 C65 1.448 . S
C33 H18 0.930 . S
C33 N29 1.334 . S
C33 C31 1.390 . S
C34 C31 1.339 . S
C34 C32 1.416 . S
C34 H41 0.930 . S
N35 Tb0 2.572 . S
N35 C36 1.340 . S
N35 C38 1.361 . S
C36 H22 0.930 . S
C36 N35 1.340 . S
C36 C40 1.407 . S
C37 C38 1.413 . S
C37 C39 1.416 . S
C37 C66 1.427 . S
C38 C30 1.424 . S
C38 N35 1.361 . S
C38 C37 1.413 . S
C39 H28 0.931 . S
C39 C37 1.416 . S
C39 C40 1.332 . S
C40 H19 0.929 . S
C40 C36 1.407 . S
C40 C39 1.332 . S
H41 C34 0.930 . S
H42 C65 0.930 . S
H43 C66 0.929 . S
O44 Tb0 2.465 . S
O44 C64 1.264 . S
O45 Tb0 2.387 . S
O45 C56 1.264 . S
O46 Tb11 2.349 . S
O46 C56 1.243 . S
O47 Tb0 2.428 . S
O47 C64 1.256 . S
O48 Tb0 2.308 . S
O48 C63 1.266 . S
O49 Tb11 2.393 . S
O49 C63 1.248 . S
O50 Tb11 2.465 1_556 S
O50 C75 1.264 . S
O51 Tb11 2.387 . S
O51 C67 1.264 . S
O52 Tb0 2.349 . S
O52 C67 1.243 . S
O53 Tb11 2.428 1_556 S
O53 C75 1.256 . S
O54 Tb11 2.308 . S
O54 C74 1.266 . S
O55 Tb0 2.393 . S
O55 C74 1.248 . S
C56 O45 1.264 . S
C56 O46 1.243 . S
C57 C60 1.399 . S
C57 C62 1.383 . S
C57 C64 1.496 . S
C58 C59 1.399 . S
C58 C62 1.389 . S
C59 C58 1.399 . S
C59 C61 1.380 . S
C59 H76 0.929 . S
C60 C57 1.399 . S
C60 C61 1.392 . S
C60 H77 0.929 . S
C61 C59 1.380 . S
C61 C60 1.392 . S
C61 H78 0.929 . S
C62 C57 1.383 . S
C62 C58 1.389 . S
C62 H79 0.931 . S
C63 O48 1.266 . S
C63 O49 1.248 . S
C64 Tb0 2.802 . S
C64 O44 1.264 . S
C64 O47 1.256 . S
C64 C57 1.496 . S
C65 C32 1.448 . S
C65 H42 0.930 . S
C65 C66 1.328 . S
C66 C37 1.427 . S
C66 H43 0.929 . S
C66 C65 1.328 . S
C67 O51 1.264 . S
C67 O52 1.243 . S
C68 C71 1.399 . S
C68 C72 1.383 . S
C68 C75 1.496 . S
C69 C70 1.399 . S
C69 C72 1.389 . S
C70 C69 1.399 . S
C70 C73 1.380 . S
C70 H80 0.929 . S
C71 C68 1.399 . S
C71 C73 1.392 . S
C71 H81 0.929 . S
C72 C68 1.383 . S
C72 C69 1.389 . S
C72 H82 0.931 . S
C73 C70 1.380 . S
C73 C71 1.392 . S
C73 H83 0.929 . S
C74 O54 1.266 . S
C74 O55 1.248 . S
C75 Tb11 2.802 1_556 S
C75 O50 1.264 . S
C75 O53 1.256 . S
C75 C68 1.496 . S
H76 C59 0.929 . S
H77 C60 0.929 . S
H78 C61 0.929 . S
H79 C62 0.931 . S
H80 C70 0.929 . S
H81 C71 0.929 . S
H82 C72 0.931 . S
H83 C73 0.929 . S
Tb84 N113 2.617 . S
Tb84 N119 2.572 . S
Tb84 O128 2.465 . S
Tb84 O129 2.387 . S
Tb84 O131 2.428 . S
Tb84 O132 2.308 . S
Tb84 O136 2.349 . S
Tb84 O139 2.393 . S
Tb84 C148 2.802 . S
C85 N86 1.379 . S
C85 C88 1.416 . S
C85 C92 1.424 . S
N86 C85 1.379 . S
N86 C89 1.334 . S
N86 Tb95 2.617 . S
C87 C89 1.390 . S
C87 C90 1.339 . S
C87 H107 0.930 . S
C88 C85 1.416 . S
C88 C90 1.416 . S
C88 C94 1.448 . S
C89 N86 1.334 . S
C89 C87 1.390 . S
C89 H100 0.930 . S
C90 C87 1.339 . S
C90 C88 1.416 . S
C90 H111 0.930 . S
C91 C92 1.413 . S
C91 C93 1.427 . S
C91 C97 1.416 . S
C92 C85 1.424 . S
C92 C91 1.413 . S
C92 N96 1.361 . S
C93 C91 1.427 . S
C93 C94 1.328 . S
C93 H108 0.929 . S
C94 C88 1.448 . S
C94 C93 1.328 . S
C94 H109 0.930 . S
Tb95 N86 2.617 . S
Tb95 N96 2.572 . S
Tb95 O130 2.349 . S
Tb95 O133 2.393 . S
Tb95 O134 2.465 . S
Tb95 O135 2.387 . S
Tb95 O137 2.428 . S
Tb95 O138 2.308 . S
Tb95 C159 2.802 . S
N96 C92 1.361 . S
N96 Tb95 2.572 . S
N96 C98 1.340 . S
C97 C91 1.416 . S
C97 C99 1.332 . S
C97 H105 0.931 . S
C98 N96 1.340 . S
C98 C99 1.407 . S
C98 H104 0.930 . S
C99 C97 1.332 . S
C99 C98 1.407 . S
C99 H101 0.929 . S
H100 C89 0.930 . S
H101 C99 0.929 . S
H102 C117 0.930 . S
H103 C124 0.929 . S
H104 C98 0.930 . S
H105 C97 0.931 . S
H106 C120 0.930 . S
H107 C87 0.930 . S
H108 C93 0.929 . S
H109 C94 0.930 . S
H110 C115 0.930 . S
H111 C90 0.930 . S
H112 C123 0.931 . S
N113 Tb84 2.617 . S
N113 C114 1.379 . S
N113 C117 1.334 . S
C114 N113 1.379 . S
C114 C116 1.416 . S
C114 C122 1.424 . S
C115 H110 0.930 . S
C115 C117 1.390 . S
C115 C118 1.339 . S
C116 C114 1.416 . S
C116 C118 1.416 . S
C116 C149 1.448 . S
C117 H102 0.930 . S
C117 N113 1.334 . S
C117 C115 1.390 . S
C118 C115 1.339 . S
C118 C116 1.416 . S
C118 H125 0.930 . S
N119 Tb84 2.572 . S
N119 C120 1.340 . S
N119 C122 1.361 . S
C120 H106 0.930 . S
C120 N119 1.340 . S
C120 C124 1.407 . S
C121 C122 1.413 . S
C121 C123 1.416 . S
C121 C150 1.427 . S
C122 C114 1.424 . S
C122 N119 1.361 . S
C122 C121 1.413 . S
C123 H112 0.931 . S
C123 C121 1.416 . S
C123 C124 1.332 . S
C124 H103 0.929 . S
C124 C120 1.407 . S
C124 C123 1.332 . S
H125 C118 0.930 . S
H126 C149 0.930 . S
H127 C150 0.929 . S
O128 Tb84 2.465 . S
O128 C148 1.264 . S
O129 Tb84 2.387 . S
O129 C140 1.264 . S
O130 Tb95 2.349 . S
O130 C140 1.243 . S
O131 Tb84 2.428 . S
O131 C148 1.256 . S
O132 Tb84 2.308 . S
O132 C147 1.266 . S
O133 Tb95 2.393 . S
O133 C147 1.248 . S
O134 Tb95 2.465 . S
O134 C159 1.264 . S
O135 Tb95 2.387 . S
O135 C151 1.264 . S
O136 Tb84 2.349 . S
O136 C151 1.243 . S
O137 Tb95 2.428 . S
O137 C159 1.256 . S
O138 Tb95 2.308 . S
O138 C158 1.266 . S
O139 Tb84 2.393 . S
O139 C158 1.248 . S
C140 O129 1.264 . S
C140 O130 1.243 . S
C141 C144 1.399 . S
C141 C146 1.383 . S
C141 C148 1.496 . S
C142 C143 1.399 . S
C142 C146 1.389 . S
C143 C142 1.399 . S
C143 C145 1.380 . S
C143 H160 0.929 . S
C144 C141 1.399 . S
C144 C145 1.392 . S
C144 H161 0.929 . S
C145 C143 1.380 . S
C145 C144 1.392 . S
C145 H162 0.929 . S
C146 C141 1.383 . S
C146 C142 1.389 . S
C146 H163 0.931 . S
C147 O132 1.266 . S
C147 O133 1.248 . S
C148 Tb84 2.802 . S
C148 O128 1.264 . S
C148 O131 1.256 . S
C148 C141 1.496 . S
C149 C116 1.448 . S
C149 H126 0.930 . S
C149 C150 1.328 . S
C150 C121 1.427 . S
C150 H127 0.929 . S
C150 C149 1.328 . S
C151 O135 1.264 . S
C151 O136 1.243 . S
C152 C155 1.399 . S
C152 C156 1.383 . S
C152 C159 1.496 . S
C153 C154 1.399 . S
C153 C156 1.389 . S
C154 C153 1.399 . S
C154 C157 1.380 . S
C154 H164 0.929 . S
C155 C152 1.399 . S
C155 C157 1.392 . S
C155 H165 0.929 . S
C156 C152 1.383 . S
C156 C153 1.389 . S
C156 H166 0.931 . S
C157 C154 1.380 . S
C157 C155 1.392 . S
C157 H167 0.929 . S
C158 O138 1.266 . S
C158 O139 1.248 . S
C159 Tb95 2.802 . S
C159 O134 1.264 . S
C159 O137 1.256 . S
C159 C152 1.496 . S
H160 C143 0.929 . S
H161 C144 0.929 . S
H162 C145 0.929 . S
H163 C146 0.931 . S
H164 C154 0.929 . S
H165 C155 0.929 . S
H166 C156 0.931 . S
H167 C157 0.929 . S
Tb168 N197 2.617 . S
Tb168 N203 2.572 . S
Tb168 O212 2.465 . S
Tb168 O213 2.387 . S
Tb168 O215 2.428 . S
Tb168 O216 2.308 . S
Tb168 O220 2.349 . S
Tb168 O223 2.393 . S
Tb168 C232 2.802 . S
C169 N170 1.379 . S
C169 C172 1.416 . S
C169 C176 1.424 . S
N170 C169 1.379 . S
N170 C173 1.334 . S
N170 Tb179 2.617 . S
C171 C173 1.390 . S
C171 C174 1.339 . S
C171 H191 0.930 . S
C172 C169 1.416 . S
C172 C174 1.416 . S
C172 C178 1.448 . S
C173 N170 1.334 . S
C173 C171 1.390 . S
C173 H184 0.930 . S
C174 C171 1.339 . S
C174 C172 1.416 . S
C174 H195 0.930 . S
C175 C176 1.413 . S
C175 C177 1.427 . S
C175 C181 1.416 . S
C176 C169 1.424 . S
C176 C175 1.413 . S
C176 N180 1.361 . S
C177 C175 1.427 . S
C177 C178 1.328 . S
C177 H192 0.929 . S
C178 C172 1.448 . S
C178 C177 1.328 . S
C178 H193 0.930 . S
Tb179 N170 2.617 . S
Tb179 N180 2.572 . S
Tb179 O214 2.349 . S
Tb179 O217 2.393 . S
Tb179 O218 2.465 . S
Tb179 O219 2.387 . S
Tb179 O221 2.428 . S
Tb179 O222 2.308 . S
Tb179 C243 2.802 . S
N180 C176 1.361 . S
N180 Tb179 2.572 . S
N180 C182 1.340 . S
C181 C175 1.416 . S
C181 C183 1.332 . S
C181 H189 0.931 . S
C182 N180 1.340 . S
C182 C183 1.407 . S
C182 H188 0.930 . S
C183 C181 1.332 . S
C183 C182 1.407 . S
C183 H185 0.929 . S
H184 C173 0.930 . S
H185 C183 0.929 . S
H186 C201 0.930 . S
H187 C208 0.929 . S
H188 C182 0.930 . S
H189 C181 0.931 . S
H190 C204 0.930 . S
H191 C171 0.930 . S
H192 C177 0.929 . S
H193 C178 0.930 . S
H194 C199 0.930 . S
H195 C174 0.930 . S
H196 C207 0.931 . S
N197 Tb168 2.617 . S
N197 C198 1.379 . S
N197 C201 1.334 . S
C198 N197 1.379 . S
C198 C200 1.416 . S
C198 C206 1.424 . S
C199 H194 0.930 . S
C199 C201 1.390 . S
C199 C202 1.339 . S
C200 C198 1.416 . S
C200 C202 1.416 . S
C200 C233 1.448 . S
C201 H186 0.930 . S
C201 N197 1.334 . S
C201 C199 1.390 . S
C202 C199 1.339 . S
C202 C200 1.416 . S
C202 H209 0.930 . S
N203 Tb168 2.572 . S
N203 C204 1.340 . S
N203 C206 1.361 . S
C204 H190 0.930 . S
C204 N203 1.340 . S
C204 C208 1.407 . S
C205 C206 1.413 . S
C205 C207 1.416 . S
C205 C234 1.427 . S
C206 C198 1.424 . S
C206 N203 1.361 . S
C206 C205 1.413 . S
C207 H196 0.931 . S
C207 C205 1.416 . S
C207 C208 1.332 . S
C208 H187 0.929 . S
C208 C204 1.407 . S
C208 C207 1.332 . S
H209 C202 0.930 . S
H210 C233 0.930 . S
H211 C234 0.929 . S
O212 Tb168 2.465 . S
O212 C232 1.264 . S
O213 Tb168 2.387 . S
O213 C224 1.264 . S
O214 Tb179 2.349 . S
O214 C224 1.243 . S
O215 Tb168 2.428 . S
O215 C232 1.256 . S
O216 Tb168 2.308 . S
O216 C231 1.266 . S
O217 Tb179 2.393 . S
O217 C231 1.248 . S
O218 Tb179 2.465 . S
O218 C243 1.264 . S
O219 Tb179 2.387 . S
O219 C235 1.264 . S
O220 Tb168 2.349 . S
O220 C235 1.243 . S
O221 Tb179 2.428 . S
O221 C243 1.256 . S
O222 Tb179 2.308 . S
O222 C242 1.266 . S
O223 Tb168 2.393 . S
O223 C242 1.248 . S
C224 O213 1.264 . S
C224 O214 1.243 . S
C225 C228 1.399 . S
C225 C230 1.383 . S
C225 C232 1.496 . S
C226 C227 1.399 . S
C226 C230 1.389 . S
C227 C226 1.399 . S
C227 C229 1.380 . S
C227 H244 0.929 . S
C228 C225 1.399 . S
C228 C229 1.392 . S
C228 H245 0.929 . S
C229 C227 1.380 . S
C229 C228 1.392 . S
C229 H246 0.929 . S
C230 C225 1.383 . S
C230 C226 1.389 . S
C230 H247 0.931 . S
C231 O216 1.266 . S
C231 O217 1.248 . S
C232 Tb168 2.802 . S
C232 O212 1.264 . S
C232 O215 1.256 . S
C232 C225 1.496 . S
C233 C200 1.448 . S
C233 H210 0.930 . S
C233 C234 1.328 . S
C234 C205 1.427 . S
C234 H211 0.929 . S
C234 C233 1.328 . S
C235 O219 1.264 . S
C235 O220 1.243 . S
C236 C239 1.399 . S
C236 C240 1.383 . S
C236 C243 1.496 . S
C237 C238 1.399 . S
C237 C240 1.389 . S
C238 C237 1.399 . S
C238 C241 1.380 . S
C238 H248 0.929 . S
C239 C236 1.399 . S
C239 C241 1.392 . S
C239 H249 0.929 . S
C240 C236 1.383 . S
C240 C237 1.389 . S
C240 H250 0.931 . S
C241 C238 1.380 . S
C241 C239 1.392 . S
C241 H251 0.929 . S
C242 O222 1.266 . S
C242 O223 1.248 . S
C243 Tb179 2.802 . S
C243 O218 1.264 . S
C243 O221 1.256 . S
C243 C236 1.496 . S
H244 C227 0.929 . S
H245 C228 0.929 . S
H246 C229 0.929 . S
H247 C230 0.931 . S
H248 C238 0.929 . S
H249 C239 0.929 . S
H250 C240 0.931 . S
H251 C241 0.929 . S
Tb252 N281 2.617 . S
Tb252 N287 2.572 . S
Tb252 O296 2.465 1_556 S
Tb252 O297 2.387 . S
Tb252 O299 2.428 1_556 S
Tb252 O300 2.308 . S
Tb252 O304 2.349 . S
Tb252 O307 2.393 . S
Tb252 C316 2.802 1_556 S
C253 N254 1.379 . S
C253 C256 1.416 . S
C253 C260 1.424 . S
N254 C253 1.379 . S
N254 C257 1.334 . S
N254 Tb263 2.617 . S
C255 C257 1.390 . S
C255 C258 1.339 . S
C255 H275 0.930 . S
C256 C253 1.416 . S
C256 C258 1.416 . S
C256 C262 1.448 . S
C257 N254 1.334 . S
C257 C255 1.390 . S
C257 H268 0.930 . S
C258 C255 1.339 . S
C258 C256 1.416 . S
C258 H279 0.930 . S
C259 C260 1.413 . S
C259 C261 1.427 . S
C259 C265 1.416 . S
C260 C253 1.424 . S
C260 C259 1.413 . S
C260 N264 1.361 . S
C261 C259 1.427 . S
C261 C262 1.328 . S
C261 H276 0.929 . S
C262 C256 1.448 . S
C262 C261 1.328 . S
C262 H277 0.930 . S
Tb263 N254 2.617 . S
Tb263 N264 2.572 . S
Tb263 O298 2.349 . S
Tb263 O301 2.393 . S
Tb263 O302 2.465 . S
Tb263 O303 2.387 . S
Tb263 O305 2.428 . S
Tb263 O306 2.308 . S
Tb263 C327 2.802 . S
N264 C260 1.361 . S
N264 Tb263 2.572 . S
N264 C266 1.340 . S
C265 C259 1.416 . S
C265 C267 1.332 . S
C265 H273 0.931 . S
C266 N264 1.340 . S
C266 C267 1.407 . S
C266 H272 0.930 . S
C267 C265 1.332 . S
C267 C266 1.407 . S
C267 H269 0.929 . S
H268 C257 0.930 . S
H269 C267 0.929 . S
H270 C285 0.930 . S
H271 C292 0.929 . S
H272 C266 0.930 . S
H273 C265 0.931 . S
H274 C288 0.930 . S
H275 C255 0.930 . S
H276 C261 0.929 . S
H277 C262 0.930 . S
H278 C283 0.930 . S
H279 C258 0.930 . S
H280 C291 0.931 1_554 S
N281 Tb252 2.617 . S
N281 C282 1.379 . S
N281 C285 1.334 . S
C282 N281 1.379 . S
C282 C284 1.416 . S
C282 C290 1.424 . S
C283 H278 0.930 . S
C283 C285 1.390 . S
C283 C286 1.339 . S
C284 C282 1.416 . S
C284 C286 1.416 . S
C284 C317 1.448 . S
C285 H270 0.930 . S
C285 N281 1.334 . S
C285 C283 1.390 . S
C286 C283 1.339 . S
C286 C284 1.416 . S
C286 H293 0.930 . S
N287 Tb252 2.572 . S
N287 C288 1.340 . S
N287 C290 1.361 . S
C288 H274 0.930 . S
C288 N287 1.340 . S
C288 C292 1.407 . S
C289 C290 1.413 . S
C289 C291 1.416 . S
C289 C318 1.427 . S
C290 C282 1.424 . S
C290 N287 1.361 . S
C290 C289 1.413 . S
C291 H280 0.931 1_556 S
C291 C289 1.416 . S
C291 C292 1.332 . S
C292 H271 0.929 . S
C292 C288 1.407 . S
C292 C291 1.332 . S
H293 C286 0.930 . S
H294 C317 0.930 . S
H295 C318 0.929 1_554 S
O296 Tb252 2.465 1_554 S
O296 C316 1.264 . S
O297 Tb252 2.387 . S
O297 C308 1.264 . S
O298 Tb263 2.349 . S
O298 C308 1.243 . S
O299 Tb252 2.428 1_554 S
O299 C316 1.256 . S
O300 Tb252 2.308 . S
O300 C315 1.266 . S
O301 Tb263 2.393 . S
O301 C315 1.248 . S
O302 Tb263 2.465 . S
O302 C327 1.264 . S
O303 Tb263 2.387 . S
O303 C319 1.264 . S
O304 Tb252 2.349 . S
O304 C319 1.243 . S
O305 Tb263 2.428 . S
O305 C327 1.256 . S
O306 Tb263 2.308 . S
O306 C326 1.266 . S
O307 Tb252 2.393 . S
O307 C326 1.248 . S
C308 O297 1.264 . S
C308 O298 1.243 . S
C309 C312 1.399 . S
C309 C314 1.383 . S
C309 C316 1.496 . S
C310 C311 1.399 . S
C310 C314 1.389 . S
C311 C310 1.399 . S
C311 C313 1.380 . S
C311 H328 0.929 . S
C312 C309 1.399 . S
C312 C313 1.392 . S
C312 H329 0.929 . S
C313 C311 1.380 . S
C313 C312 1.392 . S
C313 H330 0.929 . S
C314 C309 1.383 . S
C314 C310 1.389 . S
C314 H331 0.931 . S
C315 O300 1.266 . S
C315 O301 1.248 . S
C316 Tb252 2.802 1_554 S
C316 O296 1.264 . S
C316 O299 1.256 . S
C316 C309 1.496 . S
C317 C284 1.448 . S
C317 H294 0.930 . S
C317 C318 1.328 . S
C318 C289 1.427 . S
C318 H295 0.929 1_556 S
C318 C317 1.328 . S
C319 O303 1.264 . S
C319 O304 1.243 . S
C320 C323 1.399 . S
C320 C324 1.383 . S
C320 C327 1.496 . S
C321 C322 1.399 . S
C321 C324 1.389 . S
C322 C321 1.399 . S
C322 C325 1.380 . S
C322 H332 0.929 . S
C323 C320 1.399 . S
C323 C325 1.392 . S
C323 H333 0.929 . S
C324 C320 1.383 . S
C324 C321 1.389 . S
C324 H334 0.931 . S
C325 C322 1.380 . S
C325 C323 1.392 . S
C325 H335 0.929 . S
C326 O306 1.266 . S
C326 O307 1.248 . S
C327 Tb263 2.802 . S
C327 O302 1.264 . S
C327 O305 1.256 . S
C327 C320 1.496 . S
H328 C311 0.929 . S
H329 C312 0.929 . S
H330 C313 0.929 . S
H331 C314 0.931 . S
H332 C322 0.929 . S
H333 C323 0.929 . S
H334 C324 0.931 . S
H335 C325 0.929 . S
Tb336 N365 2.617 . S
Tb336 N371 2.572 . S
Tb336 O380 2.465 . S
Tb336 O381 2.387 . S
Tb336 O383 2.428 . S
Tb336 O384 2.308 . S
Tb336 O388 2.349 . S
Tb336 O391 2.393 . S
Tb336 C400 2.802 . S
C337 N338 1.379 . S
C337 C340 1.416 . S
C337 C344 1.424 . S
N338 C337 1.379 . S
N338 C341 1.334 . S
N338 Tb347 2.617 . S
C339 C341 1.390 . S
C339 C342 1.339 . S
C339 H359 0.930 . S
C340 C337 1.416 . S
C340 C342 1.416 . S
C340 C346 1.448 . S
C341 N338 1.334 . S
C341 C339 1.390 . S
C341 H352 0.930 . S
C342 C339 1.339 . S
C342 C340 1.416 . S
C342 H363 0.930 . S
C343 C344 1.413 . S
C343 C345 1.427 . S
C343 C349 1.416 . S
C344 C337 1.424 . S
C344 C343 1.413 . S
C344 N348 1.361 . S
C345 C343 1.427 . S
C345 C346 1.328 . S
C345 H360 0.929 1_556 S
C346 C340 1.448 . S
C346 C345 1.328 . S
C346 H361 0.930 . S
Tb347 N338 2.617 . S
Tb347 N348 2.572 . S
Tb347 O382 2.349 . S
Tb347 O385 2.393 . S
Tb347 O386 2.465 1_556 S
Tb347 O387 2.387 . S
Tb347 O389 2.428 1_556 S
Tb347 O390 2.308 . S
Tb347 C411 2.802 1_556 S
N348 C344 1.361 . S
N348 Tb347 2.572 . S
N348 C350 1.340 . S
C349 C343 1.416 . S
C349 C351 1.332 . S
C349 H357 0.931 1_556 S
C350 N348 1.340 . S
C350 C351 1.407 . S
C350 H356 0.930 . S
C351 C349 1.332 . S
C351 C350 1.407 . S
C351 H353 0.929 . S
H352 C341 0.930 . S
H353 C351 0.929 . S
H354 C369 0.930 . S
H355 C376 0.929 . S
H356 C350 0.930 . S
H357 C349 0.931 1_554 S
H358 C372 0.930 . S
H359 C339 0.930 . S
H360 C345 0.929 1_554 S
H361 C346 0.930 . S
H362 C367 0.930 . S
H363 C342 0.930 . S
H364 C375 0.931 . S
N365 Tb336 2.617 . S
N365 C366 1.379 . S
N365 C369 1.334 . S
C366 N365 1.379 . S
C366 C368 1.416 . S
C366 C374 1.424 . S
C367 H362 0.930 . S
C367 C369 1.390 . S
C367 C370 1.339 . S
C368 C366 1.416 . S
C368 C370 1.416 . S
C368 C401 1.448 . S
C369 H354 0.930 . S
C369 N365 1.334 . S
C369 C367 1.390 . S
C370 C367 1.339 . S
C370 C368 1.416 . S
C370 H377 0.930 . S
N371 Tb336 2.572 . S
N371 C372 1.340 . S
N371 C374 1.361 . S
C372 H358 0.930 . S
C372 N371 1.340 . S
C372 C376 1.407 . S
C373 C374 1.413 . S
C373 C375 1.416 . S
C373 C402 1.427 . S
C374 C366 1.424 . S
C374 N371 1.361 . S
C374 C373 1.413 . S
C375 H364 0.931 . S
C375 C373 1.416 . S
C375 C376 1.332 . S
C376 H355 0.929 . S
C376 C372 1.407 . S
C376 C375 1.332 . S
H377 C370 0.930 . S
H378 C401 0.930 . S
H379 C402 0.929 . S
O380 Tb336 2.465 . S
O380 C400 1.264 . S
O381 Tb336 2.387 . S
O381 C392 1.264 . S
O382 Tb347 2.349 . S
O382 C392 1.243 . S
O383 Tb336 2.428 . S
O383 C400 1.256 . S
O384 Tb336 2.308 . S
O384 C399 1.266 . S
O385 Tb347 2.393 . S
O385 C399 1.248 . S
O386 Tb347 2.465 1_554 S
O386 C411 1.264 . S
O387 Tb347 2.387 . S
O387 C403 1.264 . S
O388 Tb336 2.349 . S
O388 C403 1.243 . S
O389 Tb347 2.428 1_554 S
O389 C411 1.256 . S
O390 Tb347 2.308 . S
O390 C410 1.266 . S
O391 Tb336 2.393 . S
O391 C410 1.248 . S
C392 O381 1.264 . S
C392 O382 1.243 . S
C393 C396 1.399 . S
C393 C398 1.383 . S
C393 C400 1.496 . S
C394 C395 1.399 . S
C394 C398 1.389 . S
C395 C394 1.399 . S
C395 C397 1.380 . S
C395 H412 0.929 . S
C396 C393 1.399 . S
C396 C397 1.392 . S
C396 H413 0.929 . S
C397 C395 1.380 . S
C397 C396 1.392 . S
C397 H414 0.929 . S
C398 C393 1.383 . S
C398 C394 1.389 . S
C398 H415 0.931 . S
C399 O384 1.266 . S
C399 O385 1.248 . S
C400 Tb336 2.802 . S
C400 O380 1.264 . S
C400 O383 1.256 . S
C400 C393 1.496 . S
C401 C368 1.448 . S
C401 H378 0.930 . S
C401 C402 1.328 . S
C402 C373 1.427 . S
C402 H379 0.929 . S
C402 C401 1.328 . S
C403 O387 1.264 . S
C403 O388 1.243 . S
C404 C407 1.399 . S
C404 C408 1.383 . S
C404 C411 1.496 . S
C405 C406 1.399 . S
C405 C408 1.389 . S
C406 C405 1.399 . S
C406 C409 1.380 . S
C406 H416 0.929 . S
C407 C404 1.399 . S
C407 C409 1.392 . S
C407 H417 0.929 . S
C408 C404 1.383 . S
C408 C405 1.389 . S
C408 H418 0.931 . S
C409 C406 1.380 . S
C409 C407 1.392 . S
C409 H419 0.929 . S
C410 O390 1.266 . S
C410 O391 1.248 . S
C411 Tb347 2.802 1_554 S
C411 O386 1.264 . S
C411 O389 1.256 . S
C411 C404 1.496 . S
H412 C395 0.929 . S
H413 C396 0.929 . S
H414 C397 0.929 . S
H415 C398 0.931 . S
H416 C406 0.929 . S
H417 C407 0.929 . S
H418 C408 0.931 . S
H419 C409 0.929 . S
Tb420 N449 2.617 . S
Tb420 N455 2.572 . S
Tb420 O464 2.465 . S
Tb420 O465 2.387 . S
Tb420 O467 2.428 . S
Tb420 O468 2.308 . S
Tb420 O472 2.349 . S
Tb420 O475 2.393 . S
Tb420 C484 2.802 . S
C421 N422 1.379 . S
C421 C424 1.416 . S
C421 C428 1.424 . S
N422 C421 1.379 . S
N422 C425 1.334 . S
N422 Tb431 2.617 . S
C423 C425 1.390 . S
C423 C426 1.339 . S
C423 H443 0.930 . S
C424 C421 1.416 . S
C424 C426 1.416 . S
C424 C430 1.448 . S
C425 N422 1.334 . S
C425 C423 1.390 . S
C425 H436 0.930 . S
C426 C423 1.339 . S
C426 C424 1.416 . S
C426 H447 0.930 . S
C427 C428 1.413 . S
C427 C429 1.429 . S
C427 C433 1.418 . S
C428 C421 1.424 . S
C428 C427 1.413 . S
C428 N432 1.361 . S
C429 C427 1.429 . S
C429 C430 1.331 . S
C429 H444 0.924 1_554 S
C430 C424 1.448 . S
C430 C429 1.331 . S
C430 H445 0.930 . S
Tb431 N422 2.617 . S
Tb431 N432 2.572 . S
Tb431 O466 2.349 . S
Tb431 O469 2.393 . S
Tb431 O470 2.465 1_554 S
Tb431 O471 2.387 . S
Tb431 O473 2.428 1_554 S
Tb431 O474 2.308 . S
Tb431 C495 2.802 1_554 S
N432 C428 1.361 . S
N432 Tb431 2.572 . S
N432 C434 1.340 . S
C433 C427 1.418 . S
C433 C435 1.334 . S
C433 H441 0.927 1_554 S
C434 N432 1.340 . S
C434 C435 1.407 . S
C434 H440 0.930 . S
C435 C433 1.334 . S
C435 C434 1.407 . S
C435 H437 0.929 . S
H436 C425 0.930 . S
H437 C435 0.929 . S
H438 C453 0.930 . S
H439 C460 0.929 . S
H440 C434 0.930 . S
H441 C433 0.927 1_556 S
H442 C456 0.930 . S
H443 C423 0.930 . S
H444 C429 0.924 1_556 S
H445 C430 0.930 . S
H446 C451 0.930 . S
H447 C426 0.930 . S
H448 C459 0.931 . S
N449 Tb420 2.617 . S
N449 C450 1.379 . S
N449 C453 1.334 . S
C450 N449 1.379 . S
C450 C452 1.416 . S
C450 C458 1.424 . S
C451 H446 0.930 . S
C451 C453 1.390 . S
C451 C454 1.339 . S
C452 C450 1.416 . S
C452 C454 1.416 . S
C452 C485 1.448 . S
C453 H438 0.930 . S
C453 N449 1.334 . S
C453 C451 1.390 . S
C454 C451 1.339 . S
C454 C452 1.416 . S
C454 H461 0.930 . S
N455 Tb420 2.572 . S
N455 C456 1.340 . S
N455 C458 1.361 . S
C456 H442 0.930 . S
C456 N455 1.340 . S
C456 C460 1.407 . S
C457 C458 1.413 . S
C457 C459 1.416 . S
C457 C486 1.427 . S
C458 C450 1.424 . S
C458 N455 1.361 . S
C458 C457 1.413 . S
C459 H448 0.931 . S
C459 C457 1.416 . S
C459 C460 1.332 . S
C460 H439 0.929 . S
C460 C456 1.407 . S
C460 C459 1.332 . S
H461 C454 0.930 . S
H462 C485 0.930 . S
H463 C486 0.929 . S
O464 Tb420 2.465 . S
O464 C484 1.264 . S
O465 Tb420 2.387 . S
O465 C476 1.264 . S
O466 Tb431 2.349 . S
O466 C476 1.243 . S
O467 Tb420 2.428 . S
O467 C484 1.256 . S
O468 Tb420 2.308 . S
O468 C483 1.266 . S
O469 Tb431 2.393 . S
O469 C483 1.248 . S
O470 Tb431 2.465 1_556 S
O470 C495 1.264 . S
O471 Tb431 2.387 . S
O471 C487 1.264 . S
O472 Tb420 2.349 . S
O472 C487 1.243 . S
O473 Tb431 2.428 1_556 S
O473 C495 1.256 . S
O474 Tb431 2.308 . S
O474 C494 1.266 . S
O475 Tb420 2.393 . S
O475 C494 1.248 . S
C476 O465 1.264 . S
C476 O466 1.243 . S
C477 C480 1.399 . S
C477 C482 1.383 . S
C477 C484 1.496 . S
C478 C479 1.399 . S
C478 C482 1.389 . S
C479 C478 1.399 . S
C479 C481 1.380 . S
C479 H496 0.929 . S
C480 C477 1.399 . S
C480 C481 1.392 . S
C480 H497 0.929 . S
C481 C479 1.380 . S
C481 C480 1.392 . S
C481 H498 0.929 . S
C482 C477 1.383 . S
C482 C478 1.389 . S
C482 H499 0.931 . S
C483 O468 1.266 . S
C483 O469 1.248 . S
C484 Tb420 2.802 . S
C484 O464 1.264 . S
C484 O467 1.256 . S
C484 C477 1.496 . S
C485 C452 1.448 . S
C485 H462 0.930 . S
C485 C486 1.328 . S
C486 C457 1.427 . S
C486 H463 0.929 . S
C486 C485 1.328 . S
C487 O471 1.264 . S
C487 O472 1.243 . S
C488 C491 1.399 . S
C488 C492 1.383 . S
C488 C495 1.496 . S
C489 C490 1.399 . S
C489 C492 1.389 . S
C490 C489 1.399 . S
C490 C493 1.380 . S
C490 H500 0.929 . S
C491 C488 1.399 . S
C491 C493 1.392 . S
C491 H501 0.929 . S
C492 C488 1.383 . S
C492 C489 1.389 . S
C492 H502 0.931 . S
C493 C490 1.380 . S
C493 C491 1.392 . S
C493 H503 0.929 . S
C494 O474 1.266 . S
C494 O475 1.248 . S
C495 Tb431 2.802 1_556 S
C495 O470 1.264 . S
C495 O473 1.256 . S
C495 C488 1.496 . S
H496 C479 0.929 . S
H497 C480 0.929 . S
H498 C481 0.929 . S
H499 C482 0.931 . S
H500 C490 0.929 . S
H501 C491 0.929 . S
H502 C492 0.931 . S
H503 C493 0.929 . S
Tb504 N533 2.617 . S
Tb504 N539 2.572 . S
Tb504 O548 2.465 . S
Tb504 O549 2.387 . S
Tb504 O551 2.428 . S
Tb504 O552 2.308 . S
Tb504 O556 2.349 . S
Tb504 O559 2.393 . S
Tb504 C568 2.802 . S
C505 N506 1.379 . S
C505 C508 1.416 . S
C505 C512 1.424 . S
N506 C505 1.379 . S
N506 C509 1.334 . S
N506 Tb515 2.617 . S
C507 C509 1.390 . S
C507 C510 1.339 . S
C507 H527 0.930 . S
C508 C505 1.416 . S
C508 C510 1.416 . S
C508 C514 1.448 . S
C509 N506 1.334 . S
C509 C507 1.390 . S
C509 H520 0.930 . S
C510 C507 1.339 . S
C510 C508 1.416 . S
C510 H531 0.930 . S
C511 C512 1.413 . S
C511 C513 1.427 . S
C511 C517 1.416 . S
C512 C505 1.424 . S
C512 C511 1.413 . S
C512 N516 1.361 . S
C513 C511 1.427 . S
C513 C514 1.328 . S
C513 H528 0.929 . S
C514 C508 1.448 . S
C514 C513 1.328 . S
C514 H529 0.930 . S
Tb515 N506 2.617 . S
Tb515 N516 2.572 . S
Tb515 O550 2.349 . S
Tb515 O553 2.393 . S
Tb515 O554 2.465 . S
Tb515 O555 2.387 . S
Tb515 O557 2.428 . S
Tb515 O558 2.308 . S
Tb515 C579 2.802 . S
N516 C512 1.361 . S
N516 Tb515 2.572 . S
N516 C518 1.340 . S
C517 C511 1.416 . S
C517 C519 1.332 . S
C517 H525 0.931 . S
C518 N516 1.340 . S
C518 C519 1.407 . S
C518 H524 0.930 . S
C519 C517 1.332 . S
C519 C518 1.407 . S
C519 H521 0.929 . S
H520 C509 0.930 . S
H521 C519 0.929 . S
H522 C537 0.930 . S
H523 C544 0.929 . S
H524 C518 0.930 . S
H525 C517 0.931 . S
H526 C540 0.930 . S
H527 C507 0.930 . S
H528 C513 0.929 . S
H529 C514 0.930 . S
H530 C535 0.930 . S
H531 C510 0.930 . S
H532 C543 0.931 . S
N533 Tb504 2.617 . S
N533 C534 1.379 . S
N533 C537 1.334 . S
C534 N533 1.379 . S
C534 C536 1.416 . S
C534 C542 1.424 . S
C535 H530 0.930 . S
C535 C537 1.390 . S
C535 C538 1.339 . S
C536 C534 1.416 . S
C536 C538 1.416 . S
C536 C569 1.448 . S
C537 H522 0.930 . S
C537 N533 1.334 . S
C537 C535 1.390 . S
C538 C535 1.339 . S
C538 C536 1.416 . S
C538 H545 0.930 . S
N539 Tb504 2.572 . S
N539 C540 1.340 . S
N539 C542 1.361 . S
C540 H526 0.930 . S
C540 N539 1.340 . S
C540 C544 1.407 . S
C541 C542 1.413 . S
C541 C543 1.416 . S
C541 C570 1.427 . S
C542 C534 1.424 . S
C542 N539 1.361 . S
C542 C541 1.413 . S
C543 H532 0.931 . S
C543 C541 1.416 . S
C543 C544 1.332 . S
C544 H523 0.929 . S
C544 C540 1.407 . S
C544 C543 1.332 . S
H545 C538 0.930 . S
H546 C569 0.930 . S
H547 C570 0.929 . S
O548 Tb504 2.465 . S
O548 C568 1.264 . S
O549 Tb504 2.387 . S
O549 C560 1.264 . S
O550 Tb515 2.349 . S
O550 C560 1.243 . S
O551 Tb504 2.428 . S
O551 C568 1.256 . S
O552 Tb504 2.308 . S
O552 C567 1.266 . S
O553 Tb515 2.393 . S
O553 C567 1.248 . S
O554 Tb515 2.465 . S
O554 C579 1.264 . S
O555 Tb515 2.387 . S
O555 C571 1.264 . S
O556 Tb504 2.349 . S
O556 C571 1.243 . S
O557 Tb515 2.428 . S
O557 C579 1.256 . S
O558 Tb515 2.308 . S
O558 C578 1.266 . S
O559 Tb504 2.393 . S
O559 C578 1.248 . S
C560 O549 1.264 . S
C560 O550 1.243 . S
C561 C564 1.399 . S
C561 C566 1.383 . S
C561 C568 1.496 . S
C562 C563 1.399 . S
C562 C566 1.389 . S
C563 C562 1.399 . S
C563 C565 1.380 . S
C563 H580 0.929 . S
C564 C561 1.399 . S
C564 C565 1.392 . S
C564 H581 0.929 . S
C565 C563 1.380 . S
C565 C564 1.392 . S
C565 H582 0.929 . S
C566 C561 1.383 . S
C566 C562 1.389 . S
C566 H583 0.931 . S
C567 O552 1.266 . S
C567 O553 1.248 . S
C568 Tb504 2.802 . S
C568 O548 1.264 . S
C568 O551 1.256 . S
C568 C561 1.496 . S
C569 C536 1.448 . S
C569 H546 0.930 . S
C569 C570 1.328 . S
C570 C541 1.427 . S
C570 H547 0.929 . S
C570 C569 1.328 . S
C571 O555 1.264 . S
C571 O556 1.243 . S
C572 C575 1.399 . S
C572 C576 1.383 . S
C572 C579 1.496 . S
C573 C574 1.399 . S
C573 C576 1.389 . S
C574 C573 1.399 . S
C574 C577 1.380 . S
C574 H584 0.929 . S
C575 C572 1.399 . S
C575 C577 1.392 . S
C575 H585 0.929 . S
C576 C572 1.383 . S
C576 C573 1.389 . S
C576 H586 0.931 . S
C577 C574 1.380 . S
C577 C575 1.392 . S
C577 H587 0.929 . S
C578 O558 1.266 . S
C578 O559 1.248 . S
C579 Tb515 2.802 . S
C579 O554 1.264 . S
C579 O557 1.256 . S
C579 C572 1.496 . S
H580 C563 0.929 . S
H581 C564 0.929 . S
H582 C565 0.929 . S
H583 C566 0.931 . S
H584 C574 0.929 . S
H585 C575 0.929 . S
H586 C576 0.931 . S
H587 C577 0.929 . S
Tb588 N617 2.617 . S
Tb588 N623 2.572 . S
Tb588 O632 2.465 . S
Tb588 O633 2.387 . S
Tb588 O635 2.428 . S
Tb588 O636 2.308 . S
Tb588 O640 2.349 . S
Tb588 O643 2.393 . S
Tb588 C652 2.802 . S
C589 N590 1.379 . S
C589 C592 1.416 . S
C589 C596 1.424 . S
N590 C589 1.379 . S
N590 C593 1.334 . S
N590 Tb599 2.617 . S
C591 C593 1.390 . S
C591 C594 1.339 . S
C591 H611 0.930 . S
C592 C589 1.416 . S
C592 C594 1.416 . S
C592 C598 1.448 . S
C593 N590 1.334 . S
C593 C591 1.390 . S
C593 H604 0.930 . S
C594 C591 1.339 . S
C594 C592 1.416 . S
C594 H615 0.930 . S
C595 C596 1.413 . S
C595 C597 1.427 . S
C595 C601 1.416 . S
C596 C589 1.424 . S
C596 C595 1.413 . S
C596 N600 1.361 . S
C597 C595 1.427 . S
C597 C598 1.328 . S
C597 H612 0.929 . S
C598 C592 1.448 . S
C598 C597 1.328 . S
C598 H613 0.930 . S
Tb599 N590 2.617 . S
Tb599 N600 2.572 . S
Tb599 O634 2.349 . S
Tb599 O637 2.393 . S
Tb599 O638 2.465 . S
Tb599 O639 2.387 . S
Tb599 O641 2.428 . S
Tb599 O642 2.308 . S
Tb599 C663 2.802 . S
N600 C596 1.361 . S
N600 Tb599 2.572 . S
N600 C602 1.340 . S
C601 C595 1.416 . S
C601 C603 1.332 . S
C601 H609 0.931 . S
C602 N600 1.340 . S
C602 C603 1.407 . S
C602 H608 0.930 . S
C603 C601 1.332 . S
C603 C602 1.407 . S
C603 H605 0.929 . S
H604 C593 0.930 . S
H605 C603 0.929 . S
H606 C621 0.930 . S
H607 C628 0.929 . S
H608 C602 0.930 . S
H609 C601 0.931 . S
H610 C624 0.930 . S
H611 C591 0.930 . S
H612 C597 0.929 . S
H613 C598 0.930 . S
H614 C619 0.930 . S
H615 C594 0.930 . S
H616 C627 0.931 . S
N617 Tb588 2.617 . S
N617 C618 1.379 . S
N617 C621 1.334 . S
C618 N617 1.379 . S
C618 C620 1.416 . S
C618 C626 1.424 . S
C619 H614 0.930 . S
C619 C621 1.390 . S
C619 C622 1.339 . S
C620 C618 1.416 . S
C620 C622 1.416 . S
C620 C653 1.448 . S
C621 H606 0.930 . S
C621 N617 1.334 . S
C621 C619 1.390 . S
C622 C619 1.339 . S
C622 C620 1.416 . S
C622 H629 0.930 . S
N623 Tb588 2.572 . S
N623 C624 1.340 . S
N623 C626 1.361 . S
C624 H610 0.930 . S
C624 N623 1.340 . S
C624 C628 1.407 . S
C625 C626 1.413 . S
C625 C627 1.416 . S
C625 C654 1.427 . S
C626 C618 1.424 . S
C626 N623 1.361 . S
C626 C625 1.413 . S
C627 H616 0.931 . S
C627 C625 1.416 . S
C627 C628 1.332 . S
C628 H607 0.929 . S
C628 C624 1.407 . S
C628 C627 1.332 . S
H629 C622 0.930 . S
H630 C653 0.930 . S
H631 C654 0.929 . S
O632 Tb588 2.465 . S
O632 C652 1.264 . S
O633 Tb588 2.387 . S
O633 C644 1.264 . S
O634 Tb599 2.349 . S
O634 C644 1.243 . S
O635 Tb588 2.428 . S
O635 C652 1.256 . S
O636 Tb588 2.308 . S
O636 C651 1.266 . S
O637 Tb599 2.393 . S
O637 C651 1.248 . S
O638 Tb599 2.465 . S
O638 C663 1.264 . S
O639 Tb599 2.387 . S
O639 C655 1.264 . S
O640 Tb588 2.349 . S
O640 C655 1.243 . S
O641 Tb599 2.428 . S
O641 C663 1.256 . S
O642 Tb599 2.308 . S
O642 C662 1.266 . S
O643 Tb588 2.393 . S
O643 C662 1.248 . S
C644 O633 1.264 . S
C644 O634 1.243 . S
C645 C648 1.399 . S
C645 C650 1.383 . S
C645 C652 1.496 . S
C646 C647 1.399 . S
C646 C650 1.389 . S
C647 C646 1.399 . S
C647 C649 1.380 . S
C647 H664 0.929 . S
C648 C645 1.399 . S
C648 C649 1.392 . S
C648 H665 0.929 . S
C649 C647 1.380 . S
C649 C648 1.392 . S
C649 H666 0.929 . S
C650 C645 1.383 . S
C650 C646 1.389 . S
C650 H667 0.931 . S
C651 O636 1.266 . S
C651 O637 1.248 . S
C652 Tb588 2.802 . S
C652 O632 1.264 . S
C652 O635 1.256 . S
C652 C645 1.496 . S
C653 C620 1.448 . S
C653 H630 0.930 . S
C653 C654 1.328 . S
C654 C625 1.427 . S
C654 H631 0.929 . S
C654 C653 1.328 . S
C655 O639 1.264 . S
C655 O640 1.243 . S
C656 C659 1.399 . S
C656 C660 1.383 . S
C656 C663 1.496 . S
C657 C658 1.399 . S
C657 C660 1.389 . S
C658 C657 1.399 . S
C658 C661 1.380 . S
C658 H668 0.929 . S
C659 C656 1.399 . S
C659 C661 1.392 . S
C659 H669 0.929 . S
C660 C656 1.383 . S
C660 C657 1.389 . S
C660 H670 0.931 . S
C661 C658 1.380 . S
C661 C659 1.392 . S
C661 H671 0.929 . S
C662 O642 1.266 . S
C662 O643 1.248 . S
C663 Tb599 2.802 . S
C663 O638 1.264 . S
C663 O641 1.256 . S
C663 C656 1.496 . S
H664 C647 0.929 . S
H665 C648 0.929 . S
H666 C649 0.929 . S
H667 C650 0.931 . S
H668 C658 0.929 . S
H669 C659 0.929 . S
H670 C660 0.931 . S
H671 C661 0.929 . S
Tb672 N701 2.617 . S
Tb672 N707 2.572 . S
Tb672 O716 2.465 . S
Tb672 O717 2.387 . S
Tb672 O719 2.428 . S
Tb672 O720 2.308 . S
Tb672 O724 2.349 . S
Tb672 O727 2.393 . S
Tb672 C736 2.802 . S
C673 N674 1.379 . S
C673 C676 1.416 . S
C673 C680 1.424 . S
N674 C673 1.379 . S
N674 C677 1.334 . S
N674 Tb683 2.617 . S
C675 C677 1.390 . S
C675 C678 1.339 . S
C675 H695 0.930 . S
C676 C673 1.416 . S
C676 C678 1.416 . S
C676 C682 1.448 . S
C677 N674 1.334 . S
C677 C675 1.390 . S
C677 H688 0.930 . S
C678 C675 1.339 . S
C678 C676 1.416 . S
C678 H699 0.930 . S
C679 C680 1.413 . S
C679 C681 1.427 . S
C679 C685 1.416 . S
C680 C673 1.424 . S
C680 C679 1.413 . S
C680 N684 1.361 . S
C681 C679 1.427 . S
C681 C682 1.328 . S
C681 H696 0.929 1_556 S
C682 C676 1.448 . S
C682 C681 1.328 . S
C682 H697 0.930 . S
Tb683 N674 2.617 . S
Tb683 N684 2.572 . S
Tb683 O718 2.349 . S
Tb683 O721 2.393 . S
Tb683 O722 2.465 1_556 S
Tb683 O723 2.387 . S
Tb683 O725 2.428 1_556 S
Tb683 O726 2.308 . S
Tb683 C747 2.802 1_556 S
N684 C680 1.361 . S
N684 Tb683 2.572 . S
N684 C686 1.340 . S
C685 C679 1.416 . S
C685 C687 1.332 . S
C685 H693 0.931 1_556 S
C686 N684 1.340 . S
C686 C687 1.407 . S
C686 H692 0.930 . S
C687 C685 1.332 . S
C687 C686 1.407 . S
C687 H689 0.929 . S
H688 C677 0.930 . S
H689 C687 0.929 . S
H690 C705 0.930 . S
H691 C712 0.929 . S
H692 C686 0.930 . S
H693 C685 0.931 1_554 S
H694 C708 0.930 . S
H695 C675 0.930 . S
H696 C681 0.929 1_554 S
H697 C682 0.930 . S
H698 C703 0.930 . S
H699 C678 0.930 . S
H700 C711 0.931 . S
N701 Tb672 2.617 . S
N701 C702 1.379 . S
N701 C705 1.334 . S
C702 N701 1.379 . S
C702 C704 1.416 . S
C702 C710 1.424 . S
C703 H698 0.930 . S
C703 C705 1.390 . S
C703 C706 1.339 . S
C704 C702 1.416 . S
C704 C706 1.416 . S
C704 C737 1.448 . S
C705 H690 0.930 . S
C705 N701 1.334 . S
C705 C703 1.390 . S
C706 C703 1.339 . S
C706 C704 1.416 . S
C706 H713 0.930 . S
N707 Tb672 2.572 . S
N707 C708 1.340 . S
N707 C710 1.361 . S
C708 H694 0.930 . S
C708 N707 1.340 . S
C708 C712 1.407 . S
C709 C710 1.413 . S
C709 C711 1.416 . S
C709 C738 1.427 . S
C710 C702 1.424 . S
C710 N707 1.361 . S
C710 C709 1.413 . S
C711 H700 0.931 . S
C711 C709 1.416 . S
C711 C712 1.332 . S
C712 H691 0.929 . S
C712 C708 1.407 . S
C712 C711 1.332 . S
H713 C706 0.930 . S
H714 C737 0.930 . S
H715 C738 0.929 . S
O716 Tb672 2.465 . S
O716 C736 1.264 . S
O717 Tb672 2.387 . S
O717 C728 1.264 . S
O718 Tb683 2.349 . S
O718 C728 1.243 . S
O719 Tb672 2.428 . S
O719 C736 1.256 . S
O720 Tb672 2.308 . S
O720 C735 1.266 . S
O721 Tb683 2.393 . S
O721 C735 1.248 . S
O722 Tb683 2.465 1_554 S
O722 C747 1.264 . S
O723 Tb683 2.387 . S
O723 C739 1.264 . S
O724 Tb672 2.349 . S
O724 C739 1.243 . S
O725 Tb683 2.428 1_554 S
O725 C747 1.256 . S
O726 Tb683 2.308 . S
O726 C746 1.266 . S
O727 Tb672 2.393 . S
O727 C746 1.248 . S
C728 O717 1.264 . S
C728 O718 1.243 . S
C729 C732 1.399 . S
C729 C734 1.383 . S
C729 C736 1.496 . S
C730 C731 1.399 . S
C730 C734 1.389 . S
C731 C730 1.399 . S
C731 C733 1.380 . S
C731 H748 0.929 . S
C732 C729 1.399 . S
C732 C733 1.392 . S
C732 H749 0.929 . S
C733 C731 1.380 . S
C733 C732 1.392 . S
C733 H750 0.929 . S
C734 C729 1.383 . S
C734 C730 1.389 . S
C734 H751 0.931 . S
C735 O720 1.266 . S
C735 O721 1.248 . S
C736 Tb672 2.802 . S
C736 O716 1.264 . S
C736 O719 1.256 . S
C736 C729 1.496 . S
C737 C704 1.448 . S
C737 H714 0.930 . S
C737 C738 1.328 . S
C738 C709 1.427 . S
C738 H715 0.929 . S
C738 C737 1.328 . S
C739 O723 1.264 . S
C739 O724 1.243 . S
C740 C743 1.399 . S
C740 C744 1.383 . S
C740 C747 1.496 . S
C741 C742 1.399 . S
C741 C744 1.389 . S
C742 C741 1.399 . S
C742 C745 1.380 . S
C742 H752 0.929 . S
C743 C740 1.399 . S
C743 C745 1.392 . S
C743 H753 0.929 . S
C744 C740 1.383 . S
C744 C741 1.389 . S
C744 H754 0.931 . S
C745 C742 1.380 . S
C745 C743 1.392 . S
C745 H755 0.929 . S
C746 O726 1.266 . S
C746 O727 1.248 . S
C747 Tb683 2.802 1_554 S
C747 O722 1.264 . S
C747 O725 1.256 . S
C747 C740 1.496 . S
H748 C731 0.929 . S
H749 C732 0.929 . S
H750 C733 0.929 . S
H751 C734 0.931 . S
H752 C742 0.929 . S
H753 C743 0.929 . S
H754 C744 0.931 . S
H755 C745 0.929 . S
Tb756 N785 2.617 . S
Tb756 N791 2.572 . S
Tb756 O800 2.465 . S
Tb756 O801 2.387 . S
Tb756 O803 2.428 . S
Tb756 O804 2.308 . S
Tb756 O808 2.349 . S
Tb756 O811 2.393 . S
Tb756 C820 2.802 . S
C757 N758 1.379 . S
C757 C760 1.416 . S
C757 C764 1.424 . S
N758 C757 1.379 . S
N758 C761 1.334 . S
N758 Tb767 2.617 . S
C759 C761 1.390 . S
C759 C762 1.339 . S
C759 H779 0.930 . S
C760 C757 1.416 . S
C760 C762 1.416 . S
C760 C766 1.448 . S
C761 N758 1.334 . S
C761 C759 1.390 . S
C761 H772 0.930 . S
C762 C759 1.339 . S
C762 C760 1.416 . S
C762 H783 0.930 . S
C763 C764 1.413 . S
C763 C765 1.427 . S
C763 C769 1.416 . S
C764 C757 1.424 . S
C764 C763 1.413 . S
C764 N768 1.361 . S
C765 C763 1.427 . S
C765 C766 1.328 . S
C765 H780 0.929 . S
C766 C760 1.448 . S
C766 C765 1.328 . S
C766 H781 0.930 . S
Tb767 N758 2.617 . S
Tb767 N768 2.572 . S
Tb767 O802 2.349 . S
Tb767 O805 2.393 . S
Tb767 O806 2.465 . S
Tb767 O807 2.387 . S
Tb767 O809 2.428 . S
Tb767 O810 2.308 . S
Tb767 C831 2.802 . S
N768 C764 1.361 . S
N768 Tb767 2.572 . S
N768 C770 1.340 . S
C769 C763 1.416 . S
C769 C771 1.332 . S
C769 H777 0.931 . S
C770 N768 1.340 . S
C770 C771 1.407 . S
C770 H776 0.930 . S
C771 C769 1.332 . S
C771 C770 1.407 . S
C771 H773 0.929 . S
H772 C761 0.930 . S
H773 C771 0.929 . S
H774 C789 0.930 . S
H775 C796 0.929 . S
H776 C770 0.930 . S
H777 C769 0.931 . S
H778 C792 0.930 . S
H779 C759 0.930 . S
H780 C765 0.929 . S
H781 C766 0.930 . S
H782 C787 0.930 . S
H783 C762 0.930 . S
H784 C795 0.931 . S
N785 Tb756 2.617 . S
N785 C786 1.379 . S
N785 C789 1.334 . S
C786 N785 1.379 . S
C786 C788 1.416 . S
C786 C794 1.424 . S
C787 H782 0.930 . S
C787 C789 1.390 . S
C787 C790 1.339 . S
C788 C786 1.416 . S
C788 C790 1.416 . S
C788 C821 1.448 . S
C789 H774 0.930 . S
C789 N785 1.334 . S
C789 C787 1.390 . S
C790 C787 1.339 . S
C790 C788 1.416 . S
C790 H797 0.930 . S
N791 Tb756 2.572 . S
N791 C792 1.340 . S
N791 C794 1.361 . S
C792 H778 0.930 . S
C792 N791 1.340 . S
C792 C796 1.407 . S
C793 C794 1.413 . S
C793 C795 1.416 . S
C793 C822 1.427 . S
C794 C786 1.424 . S
C794 N791 1.361 . S
C794 C793 1.413 . S
C795 H784 0.931 . S
C795 C793 1.416 . S
C795 C796 1.332 . S
C796 H775 0.929 . S
C796 C792 1.407 . S
C796 C795 1.332 . S
H797 C790 0.930 . S
H798 C821 0.930 . S
H799 C822 0.929 . S
O800 Tb756 2.465 . S
O800 C820 1.264 . S
O801 Tb756 2.387 . S
O801 C812 1.264 . S
O802 Tb767 2.349 . S
O802 C812 1.243 . S
O803 Tb756 2.428 . S
O803 C820 1.256 . S
O804 Tb756 2.308 . S
O804 C819 1.266 . S
O805 Tb767 2.393 . S
O805 C819 1.248 . S
O806 Tb767 2.465 . S
O806 C831 1.264 . S
O807 Tb767 2.387 . S
O807 C823 1.264 . S
O808 Tb756 2.349 . S
O808 C823 1.243 . S
O809 Tb767 2.428 . S
O809 C831 1.256 . S
O810 Tb767 2.308 . S
O810 C830 1.266 . S
O811 Tb756 2.393 . S
O811 C830 1.248 . S
C812 O801 1.264 . S
C812 O802 1.243 . S
C813 C816 1.399 . S
C813 C818 1.383 . S
C813 C820 1.496 . S
C814 C815 1.399 . S
C814 C818 1.389 . S
C815 C814 1.399 . S
C815 C817 1.380 . S
C815 H832 0.929 . S
C816 C813 1.399 . S
C816 C817 1.392 . S
C816 H833 0.929 . S
C817 C815 1.380 . S
C817 C816 1.392 . S
C817 H834 0.929 . S
C818 C813 1.383 . S
C818 C814 1.389 . S
C818 H835 0.931 . S
C819 O804 1.266 . S
C819 O805 1.248 . S
C820 Tb756 2.802 . S
C820 O800 1.264 . S
C820 O803 1.256 . S
C820 C813 1.496 . S
C821 C788 1.448 . S
C821 H798 0.930 . S
C821 C822 1.328 . S
C822 C793 1.427 . S
C822 H799 0.929 . S
C822 C821 1.328 . S
C823 O807 1.264 . S
C823 O808 1.243 . S
C824 C827 1.399 . S
C824 C828 1.383 . S
C824 C831 1.496 . S
C825 C826 1.399 . S
C825 C828 1.389 . S
C826 C825 1.399 . S
C826 C829 1.380 . S
C826 H836 0.929 . S
C827 C824 1.399 . S
C827 C829 1.392 . S
C827 H837 0.929 . S
C828 C824 1.383 . S
C828 C825 1.389 . S
C828 H838 0.931 . S
C829 C826 1.380 . S
C829 C827 1.392 . S
C829 H839 0.929 . S
C830 O810 1.266 . S
C830 O811 1.248 . S
C831 Tb767 2.802 . S
C831 O806 1.264 . S
C831 O809 1.256 . S
C831 C824 1.496 . S
H832 C815 0.929 . S
H833 C816 0.929 . S
H834 C817 0.929 . S
H835 C818 0.931 . S
H836 C826 0.929 . S
H837 C827 0.929 . S
H838 C828 0.931 . S
H839 C829 0.929 . S
Tb840 N869 2.617 . S
Tb840 N875 2.572 . S
Tb840 O884 2.465 . S
Tb840 O885 2.387 . S
Tb840 O887 2.428 . S
Tb840 O888 2.308 . S
Tb840 O892 2.349 . S
Tb840 O895 2.393 . S
Tb840 C904 2.802 . S
C841 N842 1.379 . S
C841 C844 1.416 . S
C841 C848 1.424 . S
N842 C841 1.379 . S
N842 C845 1.334 . S
N842 Tb851 2.617 . S
C843 C845 1.390 . S
C843 C846 1.339 . S
C843 H863 0.930 . S
C844 C841 1.416 . S
C844 C846 1.416 . S
C844 C850 1.448 . S
C845 N842 1.334 . S
C845 C843 1.390 . S
C845 H856 0.930 . S
C846 C843 1.339 . S
C846 C844 1.416 . S
C846 H867 0.930 . S
C847 C848 1.413 . S
C847 C849 1.427 . S
C847 C853 1.416 . S
C848 C841 1.424 . S
C848 C847 1.413 . S
C848 N852 1.361 . S
C849 C847 1.427 . S
C849 C850 1.328 . S
C849 H864 0.929 . S
C850 C844 1.448 . S
C850 C849 1.328 . S
C850 H865 0.930 . S
Tb851 N842 2.617 . S
Tb851 N852 2.572 . S
Tb851 O886 2.349 . S
Tb851 O889 2.393 . S
Tb851 O890 2.465 . S
Tb851 O891 2.387 . S
Tb851 O893 2.428 . S
Tb851 O894 2.308 . S
Tb851 C915 2.802 . S
N852 C848 1.361 . S
N852 Tb851 2.572 . S
N852 C854 1.340 . S
C853 C847 1.416 . S
C853 C855 1.332 . S
C853 H861 0.931 . S
C854 N852 1.340 . S
C854 C855 1.407 . S
C854 H860 0.930 . S
C855 C853 1.332 . S
C855 C854 1.407 . S
C855 H857 0.929 . S
H856 C845 0.930 . S
H857 C855 0.929 . S
H858 C873 0.930 . S
H859 C880 0.929 . S
H860 C854 0.930 . S
H861 C853 0.931 . S
H862 C876 0.930 . S
H863 C843 0.930 . S
H864 C849 0.929 . S
H865 C850 0.930 . S
H866 C871 0.930 . S
H867 C846 0.930 . S
H868 C879 0.931 . S
N869 Tb840 2.617 . S
N869 C870 1.379 . S
N869 C873 1.334 . S
C870 N869 1.379 . S
C870 C872 1.416 . S
C870 C878 1.424 . S
C871 H866 0.930 . S
C871 C873 1.390 . S
C871 C874 1.339 . S
C872 C870 1.416 . S
C872 C874 1.416 . S
C872 C905 1.448 . S
C873 H858 0.930 . S
C873 N869 1.334 . S
C873 C871 1.390 . S
C874 C871 1.339 . S
C874 C872 1.416 . S
C874 H881 0.930 . S
N875 Tb840 2.572 . S
N875 C876 1.340 . S
N875 C878 1.361 . S
C876 H862 0.930 . S
C876 N875 1.340 . S
C876 C880 1.407 . S
C877 C878 1.413 . S
C877 C879 1.416 . S
C877 C906 1.427 . S
C878 C870 1.424 . S
C878 N875 1.361 . S
C878 C877 1.413 . S
C879 H868 0.931 . S
C879 C877 1.416 . S
C879 C880 1.332 . S
C880 H859 0.929 . S
C880 C876 1.407 . S
C880 C879 1.332 . S
H881 C874 0.930 . S
H882 C905 0.930 . S
H883 C906 0.929 . S
O884 Tb840 2.465 . S
O884 C904 1.264 . S
O885 Tb840 2.387 . S
O885 C896 1.264 . S
O886 Tb851 2.349 . S
O886 C896 1.243 . S
O887 Tb840 2.428 . S
O887 C904 1.256 . S
O888 Tb840 2.308 . S
O888 C903 1.266 . S
O889 Tb851 2.393 . S
O889 C903 1.248 . S
O890 Tb851 2.465 . S
O890 C915 1.264 . S
O891 Tb851 2.387 . S
O891 C907 1.264 . S
O892 Tb840 2.349 . S
O892 C907 1.243 . S
O893 Tb851 2.428 . S
O893 C915 1.256 . S
O894 Tb851 2.308 . S
O894 C914 1.266 . S
O895 Tb840 2.393 . S
O895 C914 1.248 . S
C896 O885 1.264 . S
C896 O886 1.243 . S
C897 C900 1.399 . S
C897 C902 1.383 . S
C897 C904 1.496 . S
C898 C899 1.399 . S
C898 C902 1.389 . S
C899 C898 1.399 . S
C899 C901 1.380 . S
C899 H916 0.929 . S
C900 C897 1.399 . S
C900 C901 1.392 . S
C900 H917 0.929 . S
C901 C899 1.380 . S
C901 C900 1.392 . S
C901 H918 0.929 . S
C902 C897 1.383 . S
C902 C898 1.389 . S
C902 H919 0.931 . S
C903 O888 1.266 . S
C903 O889 1.248 . S
C904 Tb840 2.802 . S
C904 O884 1.264 . S
C904 O887 1.256 . S
C904 C897 1.496 . S
C905 C872 1.448 . S
C905 H882 0.930 . S
C905 C906 1.328 . S
C906 C877 1.427 . S
C906 H883 0.929 . S
C906 C905 1.328 . S
C907 O891 1.264 . S
C907 O892 1.243 . S
C908 C911 1.399 . S
C908 C912 1.383 . S
C908 C915 1.496 . S
C909 C910 1.399 . S
C909 C912 1.389 . S
C910 C909 1.399 . S
C910 C913 1.380 . S
C910 H920 0.929 . S
C911 C908 1.399 . S
C911 C913 1.392 . S
C911 H921 0.929 . S
C912 C908 1.383 . S
C912 C909 1.389 . S
C912 H922 0.931 . S
C913 C910 1.380 . S
C913 C911 1.392 . S
C913 H923 0.929 . S
C914 O894 1.266 . S
C914 O895 1.248 . S
C915 Tb851 2.802 . S
C915 O890 1.264 . S
C915 O893 1.256 . S
C915 C908 1.496 . S
H916 C899 0.929 . S
H917 C900 0.929 . S
H918 C901 0.929 . S
H919 C902 0.931 . S
H920 C910 0.929 . S
H921 C911 0.929 . S
H922 C912 0.931 . S
H923 C913 0.929 . S
Tb924 N953 2.617 . S
Tb924 N959 2.572 . S
Tb924 O968 2.465 . S
Tb924 O969 2.387 . S
Tb924 O971 2.428 . S
Tb924 O972 2.308 . S
Tb924 O976 2.349 . S
Tb924 O979 2.393 . S
Tb924 C988 2.802 . S
C925 N926 1.379 . S
C925 C928 1.416 . S
C925 C932 1.424 . S
N926 C925 1.379 . S
N926 C929 1.334 . S
N926 Tb935 2.617 . S
C927 C929 1.390 . S
C927 C930 1.339 . S
C927 H947 0.930 . S
C928 C925 1.416 . S
C928 C930 1.416 . S
C928 C934 1.448 . S
C929 N926 1.334 . S
C929 C927 1.390 . S
C929 H940 0.930 . S
C930 C927 1.339 . S
C930 C928 1.416 . S
C930 H951 0.930 . S
C931 C932 1.413 . S
C931 C933 1.427 1_554 S
C931 C937 1.416 1_554 S
C932 C925 1.424 . S
C932 C931 1.413 . S
C932 N936 1.361 . S
C933 C931 1.427 1_556 S
C933 C934 1.328 1_556 S
C933 H948 0.929 . S
C934 C928 1.448 . S
C934 C933 1.328 1_554 S
C934 H949 0.931 . S
Tb935 N926 2.617 . S
Tb935 N936 2.572 . S
Tb935 O970 2.349 . S
Tb935 O973 2.393 . S
Tb935 O974 2.465 1_554 S
Tb935 O975 2.387 . S
Tb935 O977 2.428 1_554 S
Tb935 O978 2.308 . S
Tb935 C999 2.802 1_554 S
N936 C932 1.361 . S
N936 Tb935 2.572 . S
N936 C938 1.340 . S
C937 C931 1.416 1_556 S
C937 C939 1.332 1_556 S
C937 H945 0.931 . S
C938 N936 1.340 . S
C938 C939 1.407 . S
C938 H944 0.930 . S
C939 C937 1.332 1_554 S
C939 C938 1.407 . S
C939 H941 0.929 1_554 S
H940 C929 0.930 . S
H941 C939 0.929 1_556 S
H942 C957 0.930 . S
H943 C964 0.929 . S
H944 C938 0.930 . S
H945 C937 0.931 . S
H946 C960 0.930 . S
H947 C927 0.930 . S
H948 C933 0.929 . S
H949 C934 0.931 . S
H950 C955 0.930 . S
H951 C930 0.930 . S
H952 C963 0.931 . S
N953 Tb924 2.617 . S
N953 C954 1.379 . S
N953 C957 1.334 . S
C954 N953 1.379 . S
C954 C956 1.416 . S
C954 C962 1.424 . S
C955 H950 0.930 . S
C955 C957 1.390 . S
C955 C958 1.339 . S
C956 C954 1.416 . S
C956 C958 1.416 . S
C956 C989 1.448 . S
C957 H942 0.930 . S
C957 N953 1.334 . S
C957 C955 1.390 . S
C958 C955 1.339 . S
C958 C956 1.416 . S
C958 H965 0.930 . S
N959 Tb924 2.572 . S
N959 C960 1.340 . S
N959 C962 1.361 . S
C960 H946 0.930 . S
C960 N959 1.340 . S
C960 C964 1.407 . S
C961 C962 1.413 . S
C961 C963 1.416 . S
C961 C990 1.427 . S
C962 C954 1.424 . S
C962 N959 1.361 . S
C962 C961 1.413 . S
C963 H952 0.931 . S
C963 C961 1.416 . S
C963 C964 1.332 . S
C964 H943 0.929 . S
C964 C960 1.407 . S
C964 C963 1.332 . S
H965 C958 0.930 . S
H966 C989 0.930 . S
H967 C990 0.929 . S
O968 Tb924 2.465 . S
O968 C988 1.264 . S
O969 Tb924 2.387 . S
O969 C980 1.264 . S
O970 Tb935 2.349 . S
O970 C980 1.243 . S
O971 Tb924 2.428 . S
O971 C988 1.256 . S
O972 Tb924 2.308 . S
O972 C987 1.266 . S
O973 Tb935 2.393 . S
O973 C987 1.248 . S
O974 Tb935 2.465 1_556 S
O974 C999 1.264 . S
O975 Tb935 2.387 . S
O975 C991 1.264 . S
O976 Tb924 2.349 . S
O976 C991 1.243 . S
O977 Tb935 2.428 1_556 S
O977 C999 1.256 . S
O978 Tb935 2.308 . S
O978 C998 1.266 . S
O979 Tb924 2.393 . S
O979 C998 1.248 . S
C980 O969 1.264 . S
C980 O970 1.243 . S
C981 C984 1.399 . S
C981 C986 1.383 . S
C981 C988 1.496 . S
C982 C983 1.399 . S
C982 C986 1.389 . S
C983 C982 1.399 . S
C983 C985 1.380 . S
C983 H1000 0.929 . S
C984 C981 1.399 . S
C984 C985 1.392 . S
C984 H1001 0.929 . S
C985 C983 1.380 . S
C985 C984 1.392 . S
C985 H1002 0.929 . S
C986 C981 1.383 . S
C986 C982 1.389 . S
C986 H1003 0.931 . S
C987 O972 1.266 . S
C987 O973 1.248 . S
C988 Tb924 2.802 . S
C988 O968 1.264 . S
C988 O971 1.256 . S
C988 C981 1.496 . S
C989 C956 1.448 . S
C989 H966 0.930 . S
C989 C990 1.328 . S
C990 C961 1.427 . S
C990 H967 0.929 . S
C990 C989 1.328 . S
C991 O975 1.264 . S
C991 O976 1.243 . S
C992 C995 1.399 . S
C992 C996 1.383 . S
C992 C999 1.496 . S
C993 C994 1.399 . S
C993 C996 1.389 . S
C994 C993 1.399 . S
C994 C997 1.380 . S
C994 H1004 0.929 . S
C995 C992 1.399 . S
C995 C997 1.392 . S
C995 H1005 0.929 . S
C996 C992 1.383 . S
C996 C993 1.389 . S
C996 H1006 0.931 . S
C997 C994 1.380 . S
C997 C995 1.392 . S
C997 H1007 0.929 . S
C998 O978 1.266 . S
C998 O979 1.248 . S
C999 Tb935 2.802 1_556 S
C999 O974 1.264 . S
C999 O977 1.256 . S
C999 C992 1.496 . S
H1000 C983 0.929 . S
H1001 C984 0.929 . S
H1002 C985 0.929 . S
H1003 C986 0.931 . S
H1004 C994 0.929 . S
H1005 C995 0.929 . S
H1006 C996 0.931 . S
H1007 C997 0.929 . S
Tb1008 N1037 2.617 . S
Tb1008 N1043 2.572 . S
Tb1008 O1052 2.465 1_554 S
Tb1008 O1053 2.387 . S
Tb1008 O1055 2.428 1_554 S
Tb1008 O1056 2.308 . S
Tb1008 O1060 2.349 . S
Tb1008 O1063 2.393 . S
Tb1008 C1072 2.802 1_554 S
C1009 N1010 1.379 . S
C1009 C1012 1.416 . S
C1009 C1016 1.424 . S
N1010 C1009 1.379 . S
N1010 C1013 1.334 . S
N1010 Tb1019 2.617 . S
C1011 C1013 1.390 . S
C1011 C1014 1.339 . S
C1011 H1031 0.930 . S
C1012 C1009 1.416 . S
C1012 C1014 1.416 . S
C1012 C1018 1.448 . S
C1013 N1010 1.334 . S
C1013 C1011 1.390 . S
C1013 H1024 0.930 . S
C1014 C1011 1.339 . S
C1014 C1012 1.416 . S
C1014 H1035 0.930 . S
C1015 C1016 1.413 . S
C1015 C1017 1.427 . S
C1015 C1021 1.416 . S
C1016 C1009 1.424 . S
C1016 C1015 1.413 . S
C1016 N1020 1.361 . S
C1017 C1015 1.427 . S
C1017 C1018 1.328 . S
C1017 H1032 0.929 . S
C1018 C1012 1.448 . S
C1018 C1017 1.328 . S
C1018 H1033 0.930 . S
Tb1019 N1010 2.617 . S
Tb1019 N1020 2.572 . S
Tb1019 O1054 2.349 . S
Tb1019 O1057 2.393 . S
Tb1019 O1058 2.465 . S
Tb1019 O1059 2.387 . S
Tb1019 O1061 2.428 . S
Tb1019 O1062 2.308 . S
Tb1019 C1083 2.802 . S
N1020 C1016 1.361 . S
N1020 Tb1019 2.572 . S
N1020 C1022 1.340 . S
C1021 C1015 1.416 . S
C1021 C1023 1.332 . S
C1021 H1029 0.931 . S
C1022 N1020 1.340 . S
C1022 C1023 1.407 . S
C1022 H1028 0.930 . S
C1023 C1021 1.332 . S
C1023 C1022 1.407 . S
C1023 H1025 0.929 . S
H1024 C1013 0.930 . S
H1025 C1023 0.929 . S
H1026 C1041 0.930 . S
H1027 C1048 0.929 . S
H1028 C1022 0.930 . S
H1029 C1021 0.931 . S
H1030 C1044 0.930 . S
H1031 C1011 0.930 . S
H1032 C1017 0.929 . S
H1033 C1018 0.930 . S
H1034 C1039 0.930 . S
H1035 C1014 0.930 . S
H1036 C1047 0.931 1_556 S
N1037 Tb1008 2.617 . S
N1037 C1038 1.379 . S
N1037 C1041 1.334 . S
C1038 N1037 1.379 . S
C1038 C1040 1.416 . S
C1038 C1046 1.424 . S
C1039 H1034 0.930 . S
C1039 C1041 1.390 . S
C1039 C1042 1.339 . S
C1040 C1038 1.416 . S
C1040 C1042 1.416 . S
C1040 C1073 1.448 . S
C1041 H1026 0.930 . S
C1041 N1037 1.334 . S
C1041 C1039 1.390 . S
C1042 C1039 1.339 . S
C1042 C1040 1.416 . S
C1042 H1049 0.930 . S
N1043 Tb1008 2.572 . S
N1043 C1044 1.340 . S
N1043 C1046 1.361 . S
C1044 H1030 0.930 . S
C1044 N1043 1.340 . S
C1044 C1048 1.407 . S
C1045 C1046 1.413 . S
C1045 C1047 1.416 . S
C1045 C1074 1.427 . S
C1046 C1038 1.424 . S
C1046 N1043 1.361 . S
C1046 C1045 1.413 . S
C1047 H1036 0.931 1_554 S
C1047 C1045 1.416 . S
C1047 C1048 1.332 . S
C1048 H1027 0.929 . S
C1048 C1044 1.407 . S
C1048 C1047 1.332 . S
H1049 C1042 0.930 . S
H1050 C1073 0.930 . S
H1051 C1074 0.929 1_556 S
O1052 Tb1008 2.465 1_556 S
O1052 C1072 1.264 . S
O1053 Tb1008 2.387 . S
O1053 C1064 1.264 . S
O1054 Tb1019 2.349 . S
O1054 C1064 1.243 . S
O1055 Tb1008 2.428 1_556 S
O1055 C1072 1.256 . S
O1056 Tb1008 2.308 . S
O1056 C1071 1.266 . S
O1057 Tb1019 2.393 . S
O1057 C1071 1.248 . S
O1058 Tb1019 2.465 . S
O1058 C1083 1.264 . S
O1059 Tb1019 2.387 . S
O1059 C1075 1.264 . S
O1060 Tb1008 2.349 . S
O1060 C1075 1.243 . S
O1061 Tb1019 2.428 . S
O1061 C1083 1.256 . S
O1062 Tb1019 2.308 . S
O1062 C1082 1.266 . S
O1063 Tb1008 2.393 . S
O1063 C1082 1.248 . S
C1064 O1053 1.264 . S
C1064 O1054 1.243 . S
C1065 C1068 1.399 . S
C1065 C1070 1.383 . S
C1065 C1072 1.496 . S
C1066 C1067 1.399 . S
C1066 C1070 1.389 . S
C1067 C1066 1.399 . S
C1067 C1069 1.380 . S
C1067 H1084 0.929 . S
C1068 C1065 1.399 . S
C1068 C1069 1.392 . S
C1068 H1085 0.929 . S
C1069 C1067 1.380 . S
C1069 C1068 1.392 . S
C1069 H1086 0.929 . S
C1070 C1065 1.383 . S
C1070 C1066 1.389 . S
C1070 H1087 0.931 . S
C1071 O1056 1.266 . S
C1071 O1057 1.248 . S
C1072 Tb1008 2.802 1_556 S
C1072 O1052 1.264 . S
C1072 O1055 1.256 . S
C1072 C1065 1.496 . S
C1073 C1040 1.448 . S
C1073 H1050 0.930 . S
C1073 C1074 1.328 . S
C1074 C1045 1.427 . S
C1074 H1051 0.929 1_554 S
C1074 C1073 1.328 . S
C1075 O1059 1.264 . S
C1075 O1060 1.243 . S
C1076 C1079 1.399 . S
C1076 C1080 1.383 . S
C1076 C1083 1.496 . S
C1077 C1078 1.399 . S
C1077 C1080 1.389 . S
C1078 C1077 1.399 . S
C1078 C1081 1.380 . S
C1078 H1088 0.929 . S
C1079 C1076 1.399 . S
C1079 C1081 1.392 . S
C1079 H1089 0.929 . S
C1080 C1076 1.383 . S
C1080 C1077 1.389 . S
C1080 H1090 0.931 . S
C1081 C1078 1.380 . S
C1081 C1079 1.392 . S
C1081 H1091 0.929 . S
C1082 O1062 1.266 . S
C1082 O1063 1.248 . S
C1083 Tb1019 2.802 . S
C1083 O1058 1.264 . S
C1083 O1061 1.256 . S
C1083 C1076 1.496 . S
H1084 C1067 0.929 . S
H1085 C1068 0.929 . S
H1086 C1069 0.929 . S
H1087 C1070 0.931 . S
H1088 C1078 0.929 . S
H1089 C1079 0.929 . S
H1090 C1080 0.931 . S
H1091 C1081 0.929 . S
Tb1092 N1121 2.617 . S
Tb1092 N1127 2.572 . S
Tb1092 O1136 2.465 1_556 S
Tb1092 O1137 2.387 . S
Tb1092 O1139 2.428 1_556 S
Tb1092 O1140 2.308 . S
Tb1092 O1144 2.349 . S
Tb1092 O1147 2.393 . S
Tb1092 C1156 2.802 1_556 S
C1093 N1094 1.379 . S
C1093 C1096 1.416 . S
C1093 C1100 1.424 . S
N1094 C1093 1.379 . S
N1094 C1097 1.334 . S
N1094 Tb1103 2.617 . S
C1095 C1097 1.390 . S
C1095 C1098 1.339 . S
C1095 H1115 0.930 . S
C1096 C1093 1.416 . S
C1096 C1098 1.416 . S
C1096 C1102 1.448 . S
C1097 N1094 1.334 . S
C1097 C1095 1.390 . S
C1097 H1108 0.930 . S
C1098 C1095 1.339 . S
C1098 C1096 1.416 . S
C1098 H1119 0.930 . S
C1099 C1100 1.413 . S
C1099 C1101 1.427 . S
C1099 C1105 1.416 . S
C1100 C1093 1.424 . S
C1100 C1099 1.413 . S
C1100 N1104 1.361 . S
C1101 C1099 1.427 . S
C1101 C1102 1.328 . S
C1101 H1116 0.929 . S
C1102 C1096 1.448 . S
C1102 C1101 1.328 . S
C1102 H1117 0.930 . S
Tb1103 N1094 2.617 . S
Tb1103 N1104 2.572 . S
Tb1103 O1138 2.349 . S
Tb1103 O1141 2.393 . S
Tb1103 O1142 2.465 . S
Tb1103 O1143 2.387 . S
Tb1103 O1145 2.428 . S
Tb1103 O1146 2.308 . S
Tb1103 C1167 2.802 . S
N1104 C1100 1.361 . S
N1104 Tb1103 2.572 . S
N1104 C1106 1.340 . S
C1105 C1099 1.416 . S
C1105 C1107 1.332 . S
C1105 H1113 0.931 . S
C1106 N1104 1.340 . S
C1106 C1107 1.407 . S
C1106 H1112 0.930 . S
C1107 C1105 1.332 . S
C1107 C1106 1.407 . S
C1107 H1109 0.929 . S
H1108 C1097 0.930 . S
H1109 C1107 0.929 . S
H1110 C1125 0.930 . S
H1111 C1132 0.929 . S
H1112 C1106 0.930 . S
H1113 C1105 0.931 . S
H1114 C1128 0.930 . S
H1115 C1095 0.930 . S
H1116 C1101 0.929 . S
H1117 C1102 0.930 . S
H1118 C1123 0.930 . S
H1119 C1098 0.930 . S
H1120 C1131 0.931 1_554 S
N1121 Tb1092 2.617 . S
N1121 C1122 1.379 . S
N1121 C1125 1.334 . S
C1122 N1121 1.379 . S
C1122 C1124 1.416 . S
C1122 C1130 1.424 . S
C1123 H1118 0.930 . S
C1123 C1125 1.390 . S
C1123 C1126 1.339 . S
C1124 C1122 1.416 . S
C1124 C1126 1.416 . S
C1124 C1157 1.448 . S
C1125 H1110 0.930 . S
C1125 N1121 1.334 . S
C1125 C1123 1.390 . S
C1126 C1123 1.339 . S
C1126 C1124 1.416 . S
C1126 H1133 0.930 . S
N1127 Tb1092 2.572 . S
N1127 C1128 1.340 . S
N1127 C1130 1.361 . S
C1128 H1114 0.930 . S
C1128 N1127 1.340 . S
C1128 C1132 1.407 . S
C1129 C1130 1.413 . S
C1129 C1131 1.416 . S
C1129 C1158 1.427 . S
C1130 C1122 1.424 . S
C1130 N1127 1.361 . S
C1130 C1129 1.413 . S
C1131 H1120 0.931 1_556 S
C1131 C1129 1.416 . S
C1131 C1132 1.332 . S
C1132 H1111 0.929 . S
C1132 C1128 1.407 . S
C1132 C1131 1.332 . S
H1133 C1126 0.930 . S
H1134 C1157 0.930 . S
H1135 C1158 0.929 1_554 S
O1136 Tb1092 2.465 1_554 S
O1136 C1156 1.264 . S
O1137 Tb1092 2.387 . S
O1137 C1148 1.264 . S
O1138 Tb1103 2.349 . S
O1138 C1148 1.243 . S
O1139 Tb1092 2.428 1_554 S
O1139 C1156 1.256 . S
O1140 Tb1092 2.308 . S
O1140 C1155 1.266 . S
O1141 Tb1103 2.393 . S
O1141 C1155 1.248 . S
O1142 Tb1103 2.465 . S
O1142 C1167 1.264 . S
O1143 Tb1103 2.387 . S
O1143 C1159 1.264 . S
O1144 Tb1092 2.349 . S
O1144 C1159 1.243 . S
O1145 Tb1103 2.428 . S
O1145 C1167 1.256 . S
O1146 Tb1103 2.308 . S
O1146 C1166 1.266 . S
O1147 Tb1092 2.393 . S
O1147 C1166 1.248 . S
C1148 O1137 1.264 . S
C1148 O1138 1.243 . S
C1149 C1152 1.399 . S
C1149 C1154 1.383 . S
C1149 C1156 1.496 . S
C1150 C1151 1.399 . S
C1150 C1154 1.389 . S
C1151 C1150 1.399 . S
C1151 C1153 1.380 . S
C1151 H1168 0.929 . S
C1152 C1149 1.399 . S
C1152 C1153 1.392 . S
C1152 H1169 0.929 . S
C1153 C1151 1.380 . S
C1153 C1152 1.392 . S
C1153 H1170 0.929 . S
C1154 C1149 1.383 . S
C1154 C1150 1.389 . S
C1154 H1171 0.931 . S
C1155 O1140 1.266 . S
C1155 O1141 1.248 . S
C1156 Tb1092 2.802 1_554 S
C1156 O1136 1.264 . S
C1156 O1139 1.256 . S
C1156 C1149 1.496 . S
C1157 C1124 1.448 . S
C1157 H1134 0.930 . S
C1157 C1158 1.328 . S
C1158 C1129 1.427 . S
C1158 H1135 0.929 1_556 S
C1158 C1157 1.328 . S
C1159 O1143 1.264 . S
C1159 O1144 1.243 . S
C1160 C1163 1.399 . S
C1160 C1164 1.383 . S
C1160 C1167 1.496 . S
C1161 C1162 1.399 . S
C1161 C1164 1.389 . S
C1162 C1161 1.399 . S
C1162 C1165 1.380 . S
C1162 H1172 0.929 . S
C1163 C1160 1.399 . S
C1163 C1165 1.392 . S
C1163 H1173 0.929 . S
C1164 C1160 1.383 . S
C1164 C1161 1.389 . S
C1164 H1174 0.931 . S
C1165 C1162 1.380 . S
C1165 C1163 1.392 . S
C1165 H1175 0.929 . S
C1166 O1146 1.266 . S
C1166 O1147 1.248 . S
C1167 Tb1103 2.802 . S
C1167 O1142 1.264 . S
C1167 O1145 1.256 . S
C1167 C1160 1.496 . S
H1168 C1151 0.929 . S
H1169 C1152 0.929 . S
H1170 C1153 0.929 . S
H1171 C1154 0.931 . S
H1172 C1162 0.929 . S
H1173 C1163 0.929 . S
H1174 C1164 0.931 . S
H1175 C1165 0.929 . S
Tb1176 N1205 2.617 . S
Tb1176 N1211 2.572 . S
Tb1176 O1220 2.465 . S
Tb1176 O1221 2.387 . S
Tb1176 O1223 2.428 . S
Tb1176 O1224 2.308 . S
Tb1176 O1228 2.349 . S
Tb1176 O1231 2.393 . S
Tb1176 C1240 2.802 . S
C1177 N1178 1.379 . S
C1177 C1180 1.416 . S
C1177 C1184 1.424 . S
N1178 C1177 1.379 . S
N1178 C1181 1.334 . S
N1178 Tb1187 2.617 . S
C1179 C1181 1.390 . S
C1179 C1182 1.339 . S
C1179 H1199 0.930 . S
C1180 C1177 1.416 . S
C1180 C1182 1.416 . S
C1180 C1186 1.448 . S
C1181 N1178 1.334 . S
C1181 C1179 1.390 . S
C1181 H1192 0.930 . S
C1182 C1179 1.339 . S
C1182 C1180 1.416 . S
C1182 H1203 0.930 . S
C1183 C1184 1.413 . S
C1183 C1185 1.427 . S
C1183 C1189 1.416 . S
C1184 C1177 1.424 . S
C1184 C1183 1.413 . S
C1184 N1188 1.361 . S
C1185 C1183 1.427 . S
C1185 C1186 1.328 . S
C1185 H1200 0.929 . S
C1186 C1180 1.448 . S
C1186 C1185 1.328 . S
C1186 H1201 0.930 . S
Tb1187 N1178 2.617 . S
Tb1187 N1188 2.572 . S
Tb1187 O1222 2.349 . S
Tb1187 O1225 2.393 . S
Tb1187 O1226 2.465 . S
Tb1187 O1227 2.387 . S
Tb1187 O1229 2.428 . S
Tb1187 O1230 2.308 . S
Tb1187 C1251 2.802 . S
N1188 C1184 1.361 . S
N1188 Tb1187 2.572 . S
N1188 C1190 1.340 . S
C1189 C1183 1.416 . S
C1189 C1191 1.332 . S
C1189 H1197 0.931 . S
C1190 N1188 1.340 . S
C1190 C1191 1.407 . S
C1190 H1196 0.930 . S
C1191 C1189 1.332 . S
C1191 C1190 1.407 . S
C1191 H1193 0.929 . S
H1192 C1181 0.930 . S
H1193 C1191 0.929 . S
H1194 C1209 0.930 . S
H1195 C1216 0.929 . S
H1196 C1190 0.930 . S
H1197 C1189 0.931 . S
H1198 C1212 0.930 . S
H1199 C1179 0.930 . S
H1200 C1185 0.929 . S
H1201 C1186 0.930 . S
H1202 C1207 0.930 . S
H1203 C1182 0.930 . S
H1204 C1215 0.931 . S
N1205 Tb1176 2.617 . S
N1205 C1206 1.379 . S
N1205 C1209 1.334 . S
C1206 N1205 1.379 . S
C1206 C1208 1.416 . S
C1206 C1214 1.424 . S
C1207 H1202 0.930 . S
C1207 C1209 1.390 . S
C1207 C1210 1.339 . S
C1208 C1206 1.416 . S
C1208 C1210 1.416 . S
C1208 C1241 1.448 . S
C1209 H1194 0.930 . S
C1209 N1205 1.334 . S
C1209 C1207 1.390 . S
C1210 C1207 1.339 . S
C1210 C1208 1.416 . S
C1210 H1217 0.930 . S
N1211 Tb1176 2.572 . S
N1211 C1212 1.340 . S
N1211 C1214 1.361 . S
C1212 H1198 0.930 . S
C1212 N1211 1.340 . S
C1212 C1216 1.407 . S
C1213 C1214 1.413 . S
C1213 C1215 1.416 . S
C1213 C1242 1.427 . S
C1214 C1206 1.424 . S
C1214 N1211 1.361 . S
C1214 C1213 1.413 . S
C1215 H1204 0.931 . S
C1215 C1213 1.416 . S
C1215 C1216 1.332 . S
C1216 H1195 0.929 . S
C1216 C1212 1.407 . S
C1216 C1215 1.332 . S
H1217 C1210 0.930 . S
H1218 C1241 0.930 . S
H1219 C1242 0.929 . S
O1220 Tb1176 2.465 . S
O1220 C1240 1.264 . S
O1221 Tb1176 2.387 . S
O1221 C1232 1.264 . S
O1222 Tb1187 2.349 . S
O1222 C1232 1.243 . S
O1223 Tb1176 2.428 . S
O1223 C1240 1.256 . S
O1224 Tb1176 2.308 . S
O1224 C1239 1.266 . S
O1225 Tb1187 2.393 . S
O1225 C1239 1.248 . S
O1226 Tb1187 2.465 . S
O1226 C1251 1.264 . S
O1227 Tb1187 2.387 . S
O1227 C1243 1.264 . S
O1228 Tb1176 2.349 . S
O1228 C1243 1.243 . S
O1229 Tb1187 2.428 . S
O1229 C1251 1.256 . S
O1230 Tb1187 2.308 . S
O1230 C1250 1.266 . S
O1231 Tb1176 2.393 . S
O1231 C1250 1.248 . S
C1232 O1221 1.264 . S
C1232 O1222 1.243 . S
C1233 C1236 1.399 . S
C1233 C1238 1.383 . S
C1233 C1240 1.496 . S
C1234 C1235 1.399 . S
C1234 C1238 1.389 . S
C1235 C1234 1.399 . S
C1235 C1237 1.380 . S
C1235 H1252 0.929 . S
C1236 C1233 1.399 . S
C1236 C1237 1.392 . S
C1236 H1253 0.929 . S
C1237 C1235 1.380 . S
C1237 C1236 1.392 . S
C1237 H1254 0.929 . S
C1238 C1233 1.383 . S
C1238 C1234 1.389 . S
C1238 H1255 0.931 . S
C1239 O1224 1.266 . S
C1239 O1225 1.248 . S
C1240 Tb1176 2.802 . S
C1240 O1220 1.264 . S
C1240 O1223 1.256 . S
C1240 C1233 1.496 . S
C1241 C1208 1.448 . S
C1241 H1218 0.930 . S
C1241 C1242 1.328 . S
C1242 C1213 1.427 . S
C1242 H1219 0.929 . S
C1242 C1241 1.328 . S
C1243 O1227 1.264 . S
C1243 O1228 1.243 . S
C1244 C1247 1.399 . S
C1244 C1248 1.383 . S
C1244 C1251 1.496 . S
C1245 C1246 1.399 . S
C1245 C1248 1.389 . S
C1246 C1245 1.399 . S
C1246 C1249 1.380 . S
C1246 H1256 0.929 . S
C1247 C1244 1.399 . S
C1247 C1249 1.392 . S
C1247 H1257 0.929 . S
C1248 C1244 1.383 . S
C1248 C1245 1.389 . S
C1248 H1258 0.931 . S
C1249 C1246 1.380 . S
C1249 C1247 1.392 . S
C1249 H1259 0.929 . S
C1250 O1230 1.266 . S
C1250 O1231 1.248 . S
C1251 Tb1187 2.802 . S
C1251 O1226 1.264 . S
C1251 O1229 1.256 . S
C1251 C1244 1.496 . S
H1252 C1235 0.929 . S
H1253 C1236 0.929 . S
H1254 C1237 0.929 . S
H1255 C1238 0.931 . S
H1256 C1246 0.929 . S
H1257 C1247 0.929 . S
H1258 C1248 0.931 . S
H1259 C1249 0.929 . S
Tb1260 N1289 2.617 . S
Tb1260 N1295 2.572 . S
Tb1260 O1304 2.465 . S
Tb1260 O1305 2.387 . S
Tb1260 O1307 2.428 . S
Tb1260 O1308 2.308 . S
Tb1260 O1312 2.349 . S
Tb1260 O1315 2.393 . S
Tb1260 C1324 2.802 . S
C1261 N1262 1.379 . S
C1261 C1264 1.416 . S
C1261 C1268 1.424 . S
N1262 C1261 1.379 . S
N1262 C1265 1.334 . S
N1262 Tb1271 2.617 . S
C1263 C1265 1.390 . S
C1263 C1266 1.339 . S
C1263 H1283 0.930 . S
C1264 C1261 1.416 . S
C1264 C1266 1.416 . S
C1264 C1270 1.448 . S
C1265 N1262 1.334 . S
C1265 C1263 1.390 . S
C1265 H1276 0.930 . S
C1266 C1263 1.339 . S
C1266 C1264 1.416 . S
C1266 H1287 0.930 . S
C1267 C1268 1.413 . S
C1267 C1269 1.427 . S
C1267 C1273 1.416 . S
C1268 C1261 1.424 . S
C1268 C1267 1.413 . S
C1268 N1272 1.361 . S
C1269 C1267 1.427 . S
C1269 C1270 1.328 . S
C1269 H1284 0.929 . S
C1270 C1264 1.448 . S
C1270 C1269 1.328 . S
C1270 H1285 0.930 . S
Tb1271 N1262 2.617 . S
Tb1271 N1272 2.572 . S
Tb1271 O1306 2.349 . S
Tb1271 O1309 2.393 . S
Tb1271 O1310 2.465 . S
Tb1271 O1311 2.387 . S
Tb1271 O1313 2.428 . S
Tb1271 O1314 2.308 . S
Tb1271 C1335 2.802 . S
N1272 C1268 1.361 . S
N1272 Tb1271 2.572 . S
N1272 C1274 1.340 . S
C1273 C1267 1.416 . S
C1273 C1275 1.332 . S
C1273 H1281 0.931 . S
C1274 N1272 1.340 . S
C1274 C1275 1.407 . S
C1274 H1280 0.930 . S
C1275 C1273 1.332 . S
C1275 C1274 1.407 . S
C1275 H1277 0.929 . S
H1276 C1265 0.930 . S
H1277 C1275 0.929 . S
H1278 C1293 0.930 . S
H1279 C1300 0.929 . S
H1280 C1274 0.930 . S
H1281 C1273 0.931 . S
H1282 C1296 0.930 . S
H1283 C1263 0.930 . S
H1284 C1269 0.929 . S
H1285 C1270 0.930 . S
H1286 C1291 0.930 . S
H1287 C1266 0.930 . S
H1288 C1299 0.931 . S
N1289 Tb1260 2.617 . S
N1289 C1290 1.379 . S
N1289 C1293 1.334 . S
C1290 N1289 1.379 . S
C1290 C1292 1.416 . S
C1290 C1298 1.424 . S
C1291 H1286 0.930 . S
C1291 C1293 1.390 . S
C1291 C1294 1.339 . S
C1292 C1290 1.416 . S
C1292 C1294 1.416 . S
C1292 C1325 1.448 . S
C1293 H1278 0.930 . S
C1293 N1289 1.334 . S
C1293 C1291 1.390 . S
C1294 C1291 1.339 . S
C1294 C1292 1.416 . S
C1294 H1301 0.930 . S
N1295 Tb1260 2.572 . S
N1295 C1296 1.340 . S
N1295 C1298 1.361 . S
C1296 H1282 0.930 . S
C1296 N1295 1.340 . S
C1296 C1300 1.407 . S
C1297 C1298 1.413 . S
C1297 C1299 1.416 . S
C1297 C1326 1.427 . S
C1298 C1290 1.424 . S
C1298 N1295 1.361 . S
C1298 C1297 1.413 . S
C1299 H1288 0.931 . S
C1299 C1297 1.416 . S
C1299 C1300 1.332 . S
C1300 H1279 0.929 . S
C1300 C1296 1.407 . S
C1300 C1299 1.332 . S
H1301 C1294 0.930 . S
H1302 C1325 0.930 . S
H1303 C1326 0.929 . S
O1304 Tb1260 2.465 . S
O1304 C1324 1.264 . S
O1305 Tb1260 2.387 . S
O1305 C1316 1.264 . S
O1306 Tb1271 2.349 . S
O1306 C1316 1.243 . S
O1307 Tb1260 2.428 . S
O1307 C1324 1.256 . S
O1308 Tb1260 2.308 . S
O1308 C1323 1.266 . S
O1309 Tb1271 2.393 . S
O1309 C1323 1.248 . S
O1310 Tb1271 2.465 . S
O1310 C1335 1.264 . S
O1311 Tb1271 2.387 . S
O1311 C1327 1.264 . S
O1312 Tb1260 2.349 . S
O1312 C1327 1.243 . S
O1313 Tb1271 2.428 . S
O1313 C1335 1.256 . S
O1314 Tb1271 2.308 . S
O1314 C1334 1.266 . S
O1315 Tb1260 2.393 . S
O1315 C1334 1.248 . S
C1316 O1305 1.264 . S
C1316 O1306 1.243 . S
C1317 C1320 1.399 . S
C1317 C1322 1.383 . S
C1317 C1324 1.496 . S
C1318 C1319 1.399 . S
C1318 C1322 1.389 . S
C1319 C1318 1.399 . S
C1319 C1321 1.380 . S
C1319 H1336 0.929 . S
C1320 C1317 1.399 . S
C1320 C1321 1.392 . S
C1320 H1337 0.929 . S
C1321 C1319 1.380 . S
C1321 C1320 1.392 . S
C1321 H1338 0.929 . S
C1322 C1317 1.383 . S
C1322 C1318 1.389 . S
C1322 H1339 0.931 . S
C1323 O1308 1.266 . S
C1323 O1309 1.248 . S
C1324 Tb1260 2.802 . S
C1324 O1304 1.264 . S
C1324 O1307 1.256 . S
C1324 C1317 1.496 . S
C1325 C1292 1.448 . S
C1325 H1302 0.930 . S
C1325 C1326 1.328 . S
C1326 C1297 1.427 . S
C1326 H1303 0.929 . S
C1326 C1325 1.328 . S
C1327 O1311 1.264 . S
C1327 O1312 1.243 . S
C1328 C1331 1.399 . S
C1328 C1332 1.383 . S
C1328 C1335 1.496 . S
C1329 C1330 1.399 . S
C1329 C1332 1.389 . S
C1330 C1329 1.399 . S
C1330 C1333 1.380 . S
C1330 H1340 0.929 . S
C1331 C1328 1.399 . S
C1331 C1333 1.392 . S
C1331 H1341 0.929 . S
C1332 C1328 1.383 . S
C1332 C1329 1.389 . S
C1332 H1342 0.931 . S
C1333 C1330 1.380 . S
C1333 C1331 1.392 . S
C1333 H1343 0.929 . S
C1334 O1314 1.266 . S
C1334 O1315 1.248 . S
C1335 Tb1271 2.802 . S
C1335 O1310 1.264 . S
C1335 O1313 1.256 . S
C1335 C1328 1.496 . S
H1336 C1319 0.929 . S
H1337 C1320 0.929 . S
H1338 C1321 0.929 . S
H1339 C1322 0.931 . S
H1340 C1330 0.929 . S
H1341 C1331 0.929 . S
H1342 C1332 0.931 . S
H1343 C1333 0.929 . S
C1344 C1345 1.349 . S
C1344 C1346 1.327 . S
C1344 H1369 0.950 . S
C1345 C1344 1.349 . S
C1345 C1361 1.349 . S
C1346 C1344 1.327 . S
C1346 C1365 1.429 . S
C1346 H1370 0.950 . S
C1347 C1364 1.574 . S
C1347 C1366 1.368 . S
C1347 H1371 0.949 . S
H1348 C1352 0.949 . S
C1349 C1350 1.349 . S
C1349 C1351 1.327 . S
C1349 H1372 0.950 . S
C1350 C1349 1.349 . S
C1350 C1362 1.349 . S
C1351 C1349 1.327 . S
C1351 C1367 1.429 . S
C1351 H1373 0.950 . S
C1352 H1348 0.949 . S
C1352 C1360 1.574 . S
C1352 C1368 1.368 . S
H1353 C1361 0.950 . S
H1354 C1359 0.950 . S
H1355 C1360 0.949 . S
H1356 C1362 0.950 . S
H1357 C1363 0.950 . S
H1358 C1364 0.949 . S
C1359 H1354 0.950 . S
C1359 C1361 1.327 . S
C1359 C1365 1.429 . S
C1360 C1352 1.574 . S
C1360 H1355 0.949 . S
C1360 C1366 1.368 . S
C1361 C1345 1.349 . S
C1361 H1353 0.950 . S
C1361 C1359 1.327 . S
C1362 C1350 1.349 . S
C1362 H1356 0.950 . S
C1362 C1363 1.327 . S
C1363 H1357 0.950 . S
C1363 C1362 1.327 . S
C1363 C1367 1.429 . S
C1364 C1347 1.574 . S
C1364 H1358 0.949 . S
C1364 C1368 1.368 . S
C1365 C1346 1.429 . S
C1365 C1359 1.429 . S
C1365 C1366 1.523 . S
C1366 C1347 1.368 . S
C1366 C1360 1.368 . S
C1366 C1365 1.523 . S
C1367 C1351 1.429 . S
C1367 C1363 1.429 . S
C1367 C1368 1.523 . S
C1368 C1352 1.368 . S
C1368 C1364 1.368 . S
C1368 C1367 1.523 . S
H1369 C1344 0.950 . S
H1370 C1346 0.950 . S
H1371 C1347 0.949 . S
H1372 C1349 0.950 . S
H1373 C1351 0.950 . S
C1374 C1375 1.349 . S
C1374 C1376 1.327 1_554 S
C1374 H1399 0.950 . S
C1375 C1374 1.349 . S
C1375 C1391 1.349 . S
C1376 C1374 1.327 1_556 S
C1376 C1395 1.429 . S
C1376 H1400 0.950 . S
C1377 C1394 1.574 . S
C1377 C1396 1.368 . S
C1377 H1401 0.949 . S
H1378 C1382 0.949 . S
C1379 C1380 1.349 . S
C1379 C1381 1.327 . S
C1379 H1402 0.950 . S
C1380 C1379 1.349 . S
C1380 C1392 1.349 . S
C1381 C1379 1.327 . S
C1381 C1397 1.429 . S
C1381 H1403 0.950 . S
C1382 H1378 0.949 . S
C1382 C1390 1.574 . S
C1382 C1398 1.368 . S
H1383 C1391 0.950 . S
H1384 C1389 0.950 . S
H1385 C1390 0.949 . S
H1386 C1392 0.950 . S
H1387 C1393 0.950 . S
H1388 C1394 0.949 . S
C1389 H1384 0.950 . S
C1389 C1391 1.327 1_556 S
C1389 C1395 1.429 . S
C1390 C1382 1.574 . S
C1390 H1385 0.949 . S
C1390 C1396 1.368 . S
C1391 C1375 1.349 . S
C1391 H1383 0.950 . S
C1391 C1389 1.327 1_554 S
C1392 C1380 1.349 . S
C1392 H1386 0.950 . S
C1392 C1393 1.327 . S
C1393 H1387 0.950 . S
C1393 C1392 1.327 . S
C1393 C1397 1.429 . S
C1394 C1377 1.574 . S
C1394 H1388 0.949 . S
C1394 C1398 1.368 . S
C1395 C1376 1.429 . S
C1395 C1389 1.429 . S
C1395 C1396 1.523 . S
C1396 C1377 1.368 . S
C1396 C1390 1.368 . S
C1396 C1395 1.523 . S
C1397 C1381 1.429 . S
C1397 C1393 1.429 . S
C1397 C1398 1.523 . S
C1398 C1382 1.368 . S
C1398 C1394 1.368 . S
C1398 C1397 1.523 . S
H1399 C1374 0.950 . S
H1400 C1376 0.950 . S
H1401 C1377 0.949 . S
H1402 C1379 0.950 . S
H1403 C1381 0.950 . S
C1404 C1405 1.349 . S
C1404 C1406 1.327 . S
C1404 H1429 0.950 . S
C1405 C1404 1.349 . S
C1405 C1421 1.349 . S
C1406 C1404 1.327 . S
C1406 C1425 1.429 . S
C1406 H1430 0.950 . S
C1407 C1424 1.574 . S
C1407 C1426 1.368 . S
C1407 H1431 0.949 . S
H1408 C1412 0.949 . S
C1409 C1410 1.349 . S
C1409 C1411 1.327 1_556 S
C1409 H1432 0.950 . S
C1410 C1409 1.349 . S
C1410 C1422 1.349 . S
C1411 C1409 1.327 1_554 S
C1411 C1427 1.429 . S
C1411 H1433 0.950 . S
C1412 H1408 0.949 . S
C1412 C1420 1.574 . S
C1412 C1428 1.368 . S
H1413 C1421 0.950 . S
H1414 C1419 0.950 . S
H1415 C1420 0.949 . S
H1416 C1422 0.950 . S
H1417 C1423 0.955 . S
H1418 C1424 0.949 . S
C1419 H1414 0.950 . S
C1419 C1421 1.327 . S
C1419 C1425 1.429 . S
C1420 C1412 1.574 . S
C1420 H1415 0.949 . S
C1420 C1426 1.368 . S
C1421 C1405 1.349 . S
C1421 H1413 0.950 . S
C1421 C1419 1.327 . S
C1422 C1410 1.349 . S
C1422 H1416 0.950 . S
C1422 C1423 1.308 1_556 S
C1423 H1417 0.955 . S
C1423 C1422 1.308 1_554 S
C1423 C1427 1.443 . S
C1424 C1407 1.574 . S
C1424 H1418 0.949 . S
C1424 C1428 1.368 . S
C1425 C1406 1.429 . S
C1425 C1419 1.429 . S
C1425 C1426 1.523 . S
C1426 C1407 1.368 . S
C1426 C1420 1.368 . S
C1426 C1425 1.523 . S
C1427 C1411 1.429 . S
C1427 C1423 1.443 . S
C1427 C1428 1.523 . S
C1428 C1412 1.368 . S
C1428 C1424 1.368 . S
C1428 C1427 1.523 . S
H1429 C1404 0.950 . S
H1430 C1406 0.950 . S
H1431 C1407 0.949 . S
H1432 C1409 0.950 . S
H1433 C1411 0.950 . S
C1434 C1435 1.349 . S
C1434 C1436 1.327 . S
C1434 H1459 0.950 . S
C1435 C1434 1.349 . S
C1435 C1451 1.349 . S
C1436 C1434 1.327 . S
C1436 C1455 1.429 . S
C1436 H1460 0.950 . S
C1437 C1454 1.574 . S
C1437 C1456 1.368 . S
C1437 H1461 0.949 . S
H1438 C1442 0.949 . S
C1439 C1440 1.349 . S
C1439 C1441 1.327 . S
C1439 H1462 0.950 . S
C1440 C1439 1.349 . S
C1440 C1452 1.349 . S
C1441 C1439 1.327 . S
C1441 C1457 1.429 . S
C1441 H1463 0.950 . S
C1442 H1438 0.949 . S
C1442 C1450 1.574 . S
C1442 C1458 1.368 . S
H1443 C1451 0.950 . S
H1444 C1449 0.950 . S
H1445 C1450 0.949 . S
H1446 C1452 0.950 . S
H1447 C1453 0.950 . S
H1448 C1454 0.949 . S
C1449 H1444 0.950 . S
C1449 C1451 1.327 . S
C1449 C1455 1.429 . S
C1450 C1442 1.574 . S
C1450 H1445 0.949 . S
C1450 C1456 1.368 . S
C1451 C1435 1.349 . S
C1451 H1443 0.950 . S
C1451 C1449 1.327 . S
C1452 C1440 1.349 . S
C1452 H1446 0.950 . S
C1452 C1453 1.327 . S
C1453 H1447 0.950 . S
C1453 C1452 1.327 . S
C1453 C1457 1.429 . S
C1454 C1437 1.574 . S
C1454 H1448 0.949 . S
C1454 C1458 1.368 . S
C1455 C1436 1.429 . S
C1455 C1449 1.429 . S
C1455 C1456 1.523 . S
C1456 C1437 1.368 . S
C1456 C1450 1.368 . S
C1456 C1455 1.523 . S
C1457 C1441 1.429 . S
C1457 C1453 1.429 . S
C1457 C1458 1.523 . S
C1458 C1442 1.368 . S
C1458 C1454 1.368 . S
C1458 C1457 1.523 . S
H1459 C1434 0.950 . S
H1460 C1436 0.950 . S
H1461 C1437 0.949 . S
H1462 C1439 0.950 . S
H1463 C1441 0.950 . S
C1464 C1465 1.349 . S
C1464 C1466 1.327 . S
C1464 H1489 0.950 . S
C1465 C1464 1.349 . S
C1465 C1481 1.349 . S
C1466 C1464 1.327 . S
C1466 C1485 1.429 . S
C1466 H1490 0.950 . S
C1467 C1484 1.574 . S
C1467 C1486 1.368 . S
C1467 H1491 0.949 . S
H1468 C1472 0.949 . S
C1469 C1470 1.349 . S
C1469 C1471 1.327 . S
C1469 H1492 0.950 . S
C1470 C1469 1.349 . S
C1470 C1482 1.349 . S
C1471 C1469 1.327 . S
C1471 C1487 1.429 . S
C1471 H1493 0.950 . S
C1472 H1468 0.949 . S
C1472 C1480 1.574 . S
C1472 C1488 1.368 . S
H1473 C1481 0.950 . S
H1474 C1479 0.950 . S
H1475 C1480 0.949 . S
H1476 C1482 0.950 . S
H1477 C1483 0.950 . S
H1478 C1484 0.949 . S
C1479 H1474 0.950 . S
C1479 C1481 1.327 . S
C1479 C1485 1.429 . S
C1480 C1472 1.574 . S
C1480 H1475 0.949 . S
C1480 C1486 1.368 . S
C1481 C1465 1.349 . S
C1481 H1473 0.950 . S
C1481 C1479 1.327 . S
C1482 C1470 1.349 . S
C1482 H1476 0.950 . S
C1482 C1483 1.327 . S
C1483 H1477 0.950 . S
C1483 C1482 1.327 . S
C1483 C1487 1.429 . S
C1484 C1467 1.574 . S
C1484 H1478 0.949 . S
C1484 C1488 1.368 . S
C1485 C1466 1.429 . S
C1485 C1479 1.429 . S
C1485 C1486 1.523 . S
C1486 C1467 1.368 . S
C1486 C1480 1.368 . S
C1486 C1485 1.523 . S
C1487 C1471 1.429 . S
C1487 C1483 1.429 . S
C1487 C1488 1.523 . S
C1488 C1472 1.368 . S
C1488 C1484 1.368 . S
C1488 C1487 1.523 . S
H1489 C1464 0.950 . S
H1490 C1466 0.950 . S
H1491 C1467 0.949 . S
H1492 C1469 0.950 . S
H1493 C1471 0.950 . S
C1494 C1495 1.349 . S
C1494 C1496 1.327 . S
C1494 H1519 0.950 . S
C1495 C1494 1.349 . S
C1495 C1511 1.349 . S
C1496 C1494 1.327 . S
C1496 C1515 1.429 . S
C1496 H1520 0.950 . S
C1497 C1514 1.574 . S
C1497 C1516 1.368 . S
C1497 H1521 0.949 . S
H1498 C1502 0.949 . S
C1499 C1500 1.349 . S
C1499 C1501 1.327 . S
C1499 H1522 0.950 . S
C1500 C1499 1.349 . S
C1500 C1512 1.349 . S
C1501 C1499 1.327 . S
C1501 C1517 1.429 . S
C1501 H1523 0.950 . S
C1502 H1498 0.949 . S
C1502 C1510 1.574 . S
C1502 C1518 1.368 . S
H1503 C1511 0.950 . S
H1504 C1509 0.950 . S
H1505 C1510 0.949 . S
H1506 C1512 0.950 . S
H1507 C1513 0.950 . S
H1508 C1514 0.949 . S
C1509 H1504 0.950 . S
C1509 C1511 1.327 . S
C1509 C1515 1.429 . S
C1510 C1502 1.574 . S
C1510 H1505 0.949 . S
C1510 C1516 1.368 . S
C1511 C1495 1.349 . S
C1511 H1503 0.950 . S
C1511 C1509 1.327 . S
C1512 C1500 1.349 . S
C1512 H1506 0.950 . S
C1512 C1513 1.327 . S
C1513 H1507 0.950 . S
C1513 C1512 1.327 . S
C1513 C1517 1.429 . S
C1514 C1497 1.574 . S
C1514 H1508 0.949 . S
C1514 C1518 1.368 . S
C1515 C1496 1.429 . S
C1515 C1509 1.429 . S
C1515 C1516 1.523 . S
C1516 C1497 1.368 . S
C1516 C1510 1.368 . S
C1516 C1515 1.523 . S
C1517 C1501 1.429 . S
C1517 C1513 1.429 . S
C1517 C1518 1.523 . S
C1518 C1502 1.368 . S
C1518 C1514 1.368 . S
C1518 C1517 1.523 . S
H1519 C1494 0.950 . S
H1520 C1496 0.950 . S
H1521 C1497 0.949 . S
H1522 C1499 0.950 . S
H1523 C1501 0.950 . S
C1524 C1525 1.349 . S
C1524 C1526 1.327 . S
C1524 H1549 0.950 . S
C1525 C1524 1.349 . S
C1525 C1541 1.349 . S
C1526 C1524 1.327 . S
C1526 C1545 1.429 . S
C1526 H1550 0.950 . S
C1527 C1544 1.574 . S
C1527 C1546 1.368 . S
C1527 H1551 0.949 . S
H1528 C1532 0.949 . S
C1529 C1530 1.349 . S
C1529 C1531 1.327 1_554 S
C1529 H1552 0.950 . S
C1530 C1529 1.349 . S
C1530 C1542 1.349 . S
C1531 C1529 1.327 1_556 S
C1531 C1547 1.429 . S
C1531 H1553 0.950 . S
C1532 H1528 0.949 . S
C1532 C1540 1.574 . S
C1532 C1548 1.368 . S
H1533 C1541 0.950 . S
H1534 C1539 0.950 . S
H1535 C1540 0.949 . S
H1536 C1542 0.950 . S
H1537 C1543 0.944 1_556 S
H1538 C1544 0.949 . S
C1539 H1534 0.950 . S
C1539 C1541 1.327 . S
C1539 C1545 1.429 . S
C1540 C1532 1.574 . S
C1540 H1535 0.949 . S
C1540 C1546 1.368 . S
C1541 C1525 1.349 . S
C1541 H1533 0.950 . S
C1541 C1539 1.327 . S
C1542 C1530 1.349 . S
C1542 H1536 0.950 . S
C1542 C1543 1.351 . S
C1543 H1537 0.944 1_554 S
C1543 C1542 1.351 . S
C1543 C1547 1.410 1_554 S
C1544 C1527 1.574 . S
C1544 H1538 0.949 . S
C1544 C1548 1.368 . S
C1545 C1526 1.429 . S
C1545 C1539 1.429 . S
C1545 C1546 1.523 . S
C1546 C1527 1.368 . S
C1546 C1540 1.368 . S
C1546 C1545 1.523 . S
C1547 C1531 1.429 . S
C1547 C1543 1.410 1_556 S
C1547 C1548 1.523 . S
C1548 C1532 1.368 . S
C1548 C1544 1.368 . S
C1548 C1547 1.523 . S
H1549 C1524 0.950 . S
H1550 C1526 0.950 . S
H1551 C1527 0.949 . S
H1552 C1529 0.950 . S
H1553 C1531 0.950 . S
C1554 C1555 1.349 . S
C1554 C1556 1.327 1_556 S
C1554 H1579 0.950 . S
C1555 C1554 1.349 . S
C1555 C1571 1.349 . S
C1556 C1554 1.327 1_554 S
C1556 C1575 1.429 . S
C1556 H1580 0.950 . S
C1557 C1574 1.574 . S
C1557 C1576 1.368 . S
C1557 H1581 0.949 . S
H1558 C1562 0.949 . S
C1559 C1560 1.349 . S
C1559 C1561 1.327 . S
C1559 H1582 0.950 . S
C1560 C1559 1.349 . S
C1560 C1572 1.349 . S
C1561 C1559 1.327 . S
C1561 C1577 1.429 . S
C1561 H1583 0.950 . S
C1562 H1558 0.949 . S
C1562 C1570 1.574 . S
C1562 C1578 1.368 . S
H1563 C1571 0.950 . S
H1564 C1569 0.950 . S
H1565 C1570 0.949 . S
H1566 C1572 0.950 . S
H1567 C1573 0.950 . S
H1568 C1574 0.949 . S
C1569 H1564 0.950 . S
C1569 C1571 1.327 1_554 S
C1569 C1575 1.429 . S
C1570 C1562 1.574 . S
C1570 H1565 0.949 . S
C1570 C1576 1.368 . S
C1571 C1555 1.349 . S
C1571 H1563 0.950 . S
C1571 C1569 1.327 1_556 S
C1572 C1560 1.349 . S
C1572 H1566 0.950 . S
C1572 C1573 1.327 . S
C1573 H1567 0.950 . S
C1573 C1572 1.327 . S
C1573 C1577 1.429 . S
C1574 C1557 1.574 . S
C1574 H1568 0.949 . S
C1574 C1578 1.368 . S
C1575 C1556 1.429 . S
C1575 C1569 1.429 . S
C1575 C1576 1.523 . S
C1576 C1557 1.368 . S
C1576 C1570 1.368 . S
C1576 C1575 1.523 . S
C1577 C1561 1.429 . S
C1577 C1573 1.429 . S
C1577 C1578 1.523 . S
C1578 C1562 1.368 . S
C1578 C1574 1.368 . S
C1578 C1577 1.523 . S
H1579 C1554 0.950 . S
H1580 C1556 0.950 . S
H1581 C1557 0.949 . S
H1582 C1559 0.950 . S
H1583 C1561 0.950 . S
C1584 C1585 1.349 . S
C1584 C1586 1.327 . S
C1584 H1609 0.950 . S
C1585 C1584 1.349 . S
C1585 C1601 1.349 . S
C1586 C1584 1.327 . S
C1586 C1605 1.429 . S
C1586 H1610 0.950 . S
C1587 C1604 1.574 . S
C1587 C1606 1.368 . S
C1587 H1611 0.949 . S
H1588 C1592 0.949 . S
C1589 C1590 1.349 . S
C1589 C1591 1.327 . S
C1589 H1612 0.950 . S
C1590 C1589 1.349 . S
C1590 C1602 1.349 . S
C1591 C1589 1.327 . S
C1591 C1607 1.429 . S
C1591 H1613 0.950 . S
C1592 H1588 0.949 . S
C1592 C1600 1.574 . S
C1592 C1608 1.368 . S
H1593 C1601 0.950 . S
H1594 C1599 0.950 . S
H1595 C1600 0.949 . S
H1596 C1602 0.950 . S
H1597 C1603 0.950 . S
H1598 C1604 0.949 . S
C1599 H1594 0.950 . S
C1599 C1601 1.327 . S
C1599 C1605 1.429 . S
C1600 C1592 1.574 . S
C1600 H1595 0.949 . S
C1600 C1606 1.368 . S
C1601 C1585 1.349 . S
C1601 H1593 0.950 . S
C1601 C1599 1.327 . S
C1602 C1590 1.349 . S
C1602 H1596 0.950 . S
C1602 C1603 1.327 . S
C1603 H1597 0.950 . S
C1603 C1602 1.327 . S
C1603 C1607 1.429 . S
C1604 C1587 1.574 . S
C1604 H1598 0.949 . S
C1604 C1608 1.368 . S
C1605 C1586 1.429 . S
C1605 C1599 1.429 . S
C1605 C1606 1.523 . S
C1606 C1587 1.368 . S
C1606 C1600 1.368 . S
C1606 C1605 1.523 . S
C1607 C1591 1.429 . S
C1607 C1603 1.429 . S
C1607 C1608 1.523 . S
C1608 C1592 1.368 . S
C1608 C1604 1.368 . S
C1608 C1607 1.523 . S
H1609 C1584 0.950 . S
H1610 C1586 0.950 . S
H1611 C1587 0.949 . S
H1612 C1589 0.950 . S
H1613 C1591 0.950 . S
C1614 C1615 1.349 . S
C1614 C1616 1.327 . S
C1614 H1639 0.950 . S
C1615 C1614 1.349 . S
C1615 C1631 1.349 . S
C1616 C1614 1.327 . S
C1616 C1635 1.429 . S
C1616 H1640 0.950 . S
C1617 C1634 1.574 . S
C1617 C1636 1.368 . S
C1617 H1641 0.949 . S
H1618 C1622 0.949 . S
C1619 C1620 1.349 . S
C1619 C1621 1.327 1_556 S
C1619 H1642 0.950 . S
C1620 C1619 1.349 . S
C1620 C1632 1.349 . S
C1621 C1619 1.327 1_554 S
C1621 C1637 1.429 . S
C1621 H1643 0.950 . S
C1622 H1618 0.949 . S
C1622 C1630 1.574 . S
C1622 C1638 1.368 . S
H1623 C1631 0.950 . S
H1624 C1629 0.950 . S
H1625 C1630 0.949 . S
H1626 C1632 0.950 . S
H1627 C1633 0.950 . S
H1628 C1634 0.949 . S
C1629 H1624 0.950 . S
C1629 C1631 1.327 . S
C1629 C1635 1.429 . S
C1630 C1622 1.574 . S
C1630 H1625 0.949 . S
C1630 C1636 1.368 . S
C1631 C1615 1.349 . S
C1631 H1623 0.950 . S
C1631 C1629 1.327 . S
C1632 C1620 1.349 . S
C1632 H1626 0.950 . S
C1632 C1633 1.327 1_556 S
C1633 H1627 0.950 . S
C1633 C1632 1.327 1_554 S
C1633 C1637 1.429 . S
C1634 C1617 1.574 . S
C1634 H1628 0.949 . S
C1634 C1638 1.368 . S
C1635 C1616 1.429 . S
C1635 C1629 1.429 . S
C1635 C1636 1.523 . S
C1636 C1617 1.368 . S
C1636 C1630 1.368 . S
C1636 C1635 1.523 . S
C1637 C1621 1.429 . S
C1637 C1633 1.429 . S
C1637 C1638 1.523 . S
C1638 C1622 1.368 . S
C1638 C1634 1.368 . S
C1638 C1637 1.523 . S
H1639 C1614 0.950 . S
H1640 C1616 0.950 . S
H1641 C1617 0.949 . S
H1642 C1619 0.950 . S
H1643 C1621 0.950 . S
C1644 C1645 1.349 . S
C1644 C1646 1.327 . S
C1644 H1669 0.950 . S
C1645 C1644 1.349 . S
C1645 C1661 1.349 . S
C1646 C1644 1.327 . S
C1646 C1665 1.429 1_554 S
C1646 H1670 0.950 1_554 S
C1647 C1664 1.574 . S
C1647 C1666 1.368 . S
C1647 H1671 0.949 . S
H1648 C1652 0.949 . S
C1649 C1650 1.349 . S
C1649 C1651 1.327 . S
C1649 H1672 0.950 . S
C1650 C1649 1.349 . S
C1650 C1662 1.349 . S
C1651 C1649 1.327 . S
C1651 C1667 1.429 . S
C1651 H1673 0.950 . S
C1652 H1648 0.949 . S
C1652 C1660 1.574 . S
C1652 C1668 1.368 . S
H1653 C1661 0.950 . S
H1654 C1659 0.950 . S
H1655 C1660 0.949 . S
H1656 C1662 0.950 . S
H1657 C1663 0.950 . S
H1658 C1664 0.949 . S
C1659 H1654 0.950 . S
C1659 C1661 1.327 1_556 S
C1659 C1665 1.429 . S
C1660 C1652 1.574 . S
C1660 H1655 0.949 . S
C1660 C1666 1.368 . S
C1661 C1645 1.349 . S
C1661 H1653 0.950 . S
C1661 C1659 1.327 1_554 S
C1662 C1650 1.349 . S
C1662 H1656 0.950 . S
C1662 C1663 1.327 . S
C1663 H1657 0.950 . S
C1663 C1662 1.327 . S
C1663 C1667 1.429 . S
C1664 C1647 1.574 . S
C1664 H1658 0.949 . S
C1664 C1668 1.368 . S
C1665 C1646 1.429 1_556 S
C1665 C1659 1.429 . S
C1665 C1666 1.523 . S
C1666 C1647 1.368 . S
C1666 C1660 1.368 . S
C1666 C1665 1.523 . S
C1667 C1651 1.429 . S
C1667 C1663 1.429 . S
C1667 C1668 1.523 . S
C1668 C1652 1.368 . S
C1668 C1664 1.368 . S
C1668 C1667 1.523 . S
H1669 C1644 0.950 . S
H1670 C1646 0.950 1_556 S
H1671 C1647 0.949 . S
H1672 C1649 0.950 . S
H1673 C1651 0.950 . S
C1674 C1675 1.349 . S
C1674 C1676 1.327 . S
C1674 H1699 0.950 . S
C1675 C1674 1.349 . S
C1675 C1691 1.349 . S
C1676 C1674 1.327 . S
C1676 C1695 1.429 . S
C1676 H1700 0.950 . S
C1677 C1694 1.574 . S
C1677 C1696 1.368 . S
C1677 H1701 0.949 . S
H1678 C1682 0.949 . S
C1679 C1680 1.349 . S
C1679 C1681 1.327 . S
C1679 H1702 0.950 . S
C1680 C1679 1.349 . S
C1680 C1692 1.349 . S
C1681 C1679 1.327 . S
C1681 C1697 1.429 . S
C1681 H1703 0.950 . S
C1682 H1678 0.949 . S
C1682 C1690 1.574 . S
C1682 C1698 1.368 . S
H1683 C1691 0.950 . S
H1684 C1689 0.950 . S
H1685 C1690 0.949 . S
H1686 C1692 0.950 . S
H1687 C1693 0.950 . S
H1688 C1694 0.949 . S
C1689 H1684 0.950 . S
C1689 C1691 1.327 . S
C1689 C1695 1.429 . S
C1690 C1682 1.574 . S
C1690 H1685 0.949 . S
C1690 C1696 1.368 . S
C1691 C1675 1.349 . S
C1691 H1683 0.950 . S
C1691 C1689 1.327 . S
C1692 C1680 1.349 . S
C1692 H1686 0.950 . S
C1692 C1693 1.327 . S
C1693 H1687 0.950 . S
C1693 C1692 1.327 . S
C1693 C1697 1.429 . S
C1694 C1677 1.574 . S
C1694 H1688 0.949 . S
C1694 C1698 1.368 . S
C1695 C1676 1.429 . S
C1695 C1689 1.429 . S
C1695 C1696 1.523 . S
C1696 C1677 1.368 . S
C1696 C1690 1.368 . S
C1696 C1695 1.523 . S
C1697 C1681 1.429 . S
C1697 C1693 1.429 . S
C1697 C1698 1.523 . S
C1698 C1682 1.368 . S
C1698 C1694 1.368 . S
C1698 C1697 1.523 . S
H1699 C1674 0.950 . S
H1700 C1676 0.950 . S
H1701 C1677 0.949 . S
H1702 C1679 0.950 . S
H1703 C1681 0.950 . S
C1704 C1705 1.349 . S
C1704 C1706 1.327 . S
C1704 H1729 0.950 . S
C1705 C1704 1.349 . S
C1705 C1721 1.349 . S
C1706 C1704 1.327 . S
C1706 C1725 1.429 . S
C1706 H1730 0.950 . S
C1707 C1724 1.574 . S
C1707 C1726 1.368 . S
C1707 H1731 0.949 . S
H1708 C1712 0.949 . S
C1709 C1710 1.349 . S
C1709 C1711 1.327 . S
C1709 H1732 0.950 . S
C1710 C1709 1.349 . S
C1710 C1722 1.349 . S
C1711 C1709 1.327 . S
C1711 C1727 1.429 . S
C1711 H1733 0.950 . S
C1712 H1708 0.949 . S
C1712 C1720 1.574 . S
C1712 C1728 1.368 . S
H1713 C1721 0.950 . S
H1714 C1719 0.950 . S
H1715 C1720 0.949 . S
H1716 C1722 0.950 . S
H1717 C1723 0.950 . S
H1718 C1724 0.949 . S
C1719 H1714 0.950 . S
C1719 C1721 1.327 . S
C1719 C1725 1.429 . S
C1720 C1712 1.574 . S
C1720 H1715 0.949 . S
C1720 C1726 1.368 . S
C1721 C1705 1.349 . S
C1721 H1713 0.950 . S
C1721 C1719 1.327 . S
C1722 C1710 1.349 . S
C1722 H1716 0.950 . S
C1722 C1723 1.327 . S
C1723 H1717 0.950 . S
C1723 C1722 1.327 . S
C1723 C1727 1.429 . S
C1724 C1707 1.574 . S
C1724 H1718 0.949 . S
C1724 C1728 1.368 . S
C1725 C1706 1.429 . S
C1725 C1719 1.429 . S
C1725 C1726 1.523 . S
C1726 C1707 1.368 . S
C1726 C1720 1.368 . S
C1726 C1725 1.523 . S
C1727 C1711 1.429 . S
C1727 C1723 1.429 . S
C1727 C1728 1.523 . S
C1728 C1712 1.368 . S
C1728 C1724 1.368 . S
C1728 C1727 1.523 . S
H1729 C1704 0.950 . S
H1730 C1706 0.950 . S
H1731 C1707 0.949 . S
H1732 C1709 0.950 . S
H1733 C1711 0.950 . S
C1734 C1735 1.349 . S
C1734 C1736 1.327 . S
C1734 H1759 0.950 . S
C1735 C1734 1.349 . S
C1735 C1751 1.349 . S
C1736 C1734 1.327 . S
C1736 C1755 1.429 . S
C1736 H1760 0.950 . S
C1737 C1754 1.574 . S
C1737 C1756 1.368 . S
C1737 H1761 0.949 . S
H1738 C1742 0.949 . S
C1739 C1740 1.349 . S
C1739 C1741 1.327 . S
C1739 H1762 0.950 . S
C1740 C1739 1.349 . S
C1740 C1752 1.349 . S
C1741 C1739 1.327 . S
C1741 C1757 1.429 . S
C1741 H1763 0.950 . S
C1742 H1738 0.949 . S
C1742 C1750 1.574 . S
C1742 C1758 1.368 . S
H1743 C1751 0.950 . S
H1744 C1749 0.950 . S
H1745 C1750 0.949 . S
H1746 C1752 0.950 . S
H1747 C1753 0.950 . S
H1748 C1754 0.949 . S
C1749 H1744 0.950 . S
C1749 C1751 1.327 . S
C1749 C1755 1.429 . S
C1750 C1742 1.574 . S
C1750 H1745 0.949 . S
C1750 C1756 1.368 . S
C1751 C1735 1.349 . S
C1751 H1743 0.950 . S
C1751 C1749 1.327 . S
C1752 C1740 1.349 . S
C1752 H1746 0.950 . S
C1752 C1753 1.327 . S
C1753 H1747 0.950 . S
C1753 C1752 1.327 . S
C1753 C1757 1.429 . S
C1754 C1737 1.574 . S
C1754 H1748 0.949 . S
C1754 C1758 1.368 . S
C1755 C1736 1.429 . S
C1755 C1749 1.429 . S
C1755 C1756 1.523 . S
C1756 C1737 1.368 . S
C1756 C1750 1.368 . S
C1756 C1755 1.523 . S
C1757 C1741 1.429 . S
C1757 C1753 1.429 . S
C1757 C1758 1.523 . S
C1758 C1742 1.368 . S
C1758 C1754 1.368 . S
C1758 C1757 1.523 . S
H1759 C1734 0.950 . S
H1760 C1736 0.950 . S
H1761 C1737 0.949 . S
H1762 C1739 0.950 . S
H1763 C1741 0.950 . S
C1764 C1765 1.349 . S
C1764 C1766 1.327 . S
C1764 H1789 0.950 . S
C1765 C1764 1.349 . S
C1765 C1781 1.349 . S
C1766 C1764 1.327 . S
C1766 C1785 1.429 . S
C1766 H1790 0.950 . S
C1767 C1784 1.574 . S
C1767 C1786 1.368 . S
C1767 H1791 0.949 . S
H1768 C1772 0.949 . S
C1769 C1770 1.349 . S
C1769 C1771 1.327 1_556 S
C1769 H1792 0.950 . S
C1770 C1769 1.349 . S
C1770 C1782 1.349 . S
C1771 C1769 1.327 1_554 S
C1771 C1787 1.429 . S
C1771 H1793 0.950 . S
C1772 H1768 0.949 . S
C1772 C1780 1.574 . S
C1772 C1788 1.368 . S
H1773 C1781 0.950 . S
H1774 C1779 0.950 . S
H1775 C1780 0.949 . S
H1776 C1782 0.950 . S
H1777 C1783 0.950 . S
H1778 C1784 0.949 . S
C1779 H1774 0.950 . S
C1779 C1781 1.327 . S
C1779 C1785 1.429 . S
C1780 C1772 1.574 . S
C1780 H1775 0.949 . S
C1780 C1786 1.368 . S
C1781 C1765 1.349 . S
C1781 H1773 0.950 . S
C1781 C1779 1.327 . S
C1782 C1770 1.349 . S
C1782 H1776 0.950 . S
C1782 C1783 1.327 1_556 S
C1783 H1777 0.950 . S
C1783 C1782 1.327 1_554 S
C1783 C1787 1.429 . S
C1784 C1767 1.574 . S
C1784 H1778 0.949 . S
C1784 C1788 1.368 . S
C1785 C1766 1.429 . S
C1785 C1779 1.429 . S
C1785 C1786 1.523 . S
C1786 C1767 1.368 . S
C1786 C1780 1.368 . S
C1786 C1785 1.523 . S
C1787 C1771 1.429 . S
C1787 C1783 1.429 . S
C1787 C1788 1.523 . S
C1788 C1772 1.368 . S
C1788 C1784 1.368 . S
C1788 C1787 1.523 . S
H1789 C1764 0.950 . S
H1790 C1766 0.950 . S
H1791 C1767 0.949 . S
H1792 C1769 0.950 . S
H1793 C1771 0.950 . S
C1794 C1795 1.349 . S
C1794 C1796 1.335 . S
C1794 H1819 0.950 . S
C1795 C1794 1.349 . S
C1795 C1811 1.349 . S
C1796 C1794 1.335 . S
C1796 C1815 1.423 1_554 S
C1796 H1820 0.948 1_554 S
C1797 C1814 1.574 . S
C1797 C1816 1.368 . S
C1797 H1821 0.949 . S
H1798 C1802 0.949 . S
C1799 C1800 1.349 . S
C1799 C1801 1.327 . S
C1799 H1822 0.950 . S
C1800 C1799 1.349 . S
C1800 C1812 1.349 . S
C1801 C1799 1.327 . S
C1801 C1817 1.429 . S
C1801 H1823 0.950 . S
C1802 H1798 0.949 . S
C1802 C1810 1.574 . S
C1802 C1818 1.368 . S
H1803 C1811 0.950 . S
H1804 C1809 0.950 . S
H1805 C1810 0.949 . S
H1806 C1812 0.950 . S
H1807 C1813 0.950 . S
H1808 C1814 0.949 . S
C1809 H1804 0.950 . S
C1809 C1811 1.327 1_556 S
C1809 C1815 1.429 . S
C1810 C1802 1.574 . S
C1810 H1805 0.949 . S
C1810 C1816 1.368 . S
C1811 C1795 1.349 . S
C1811 H1803 0.950 . S
C1811 C1809 1.327 1_554 S
C1812 C1800 1.349 . S
C1812 H1806 0.950 . S
C1812 C1813 1.327 . S
C1813 H1807 0.950 . S
C1813 C1812 1.327 . S
C1813 C1817 1.429 . S
C1814 C1797 1.574 . S
C1814 H1808 0.949 . S
C1814 C1818 1.368 . S
C1815 C1796 1.423 1_556 S
C1815 C1809 1.429 . S
C1815 C1816 1.523 . S
C1816 C1797 1.368 . S
C1816 C1810 1.368 . S
C1816 C1815 1.523 . S
C1817 C1801 1.429 . S
C1817 C1813 1.429 . S
C1817 C1818 1.523 . S
C1818 C1802 1.368 . S
C1818 C1814 1.368 . S
C1818 C1817 1.523 . S
H1819 C1794 0.950 . S
H1820 C1796 0.948 1_556 S
H1821 C1797 0.949 . S
H1822 C1799 0.950 . S
H1823 C1801 0.950 . S
C1824 C1825 1.349 . S
C1824 C1826 1.327 . S
C1824 H1849 0.950 . S
C1825 C1824 1.349 . S
C1825 C1841 1.349 . S
C1826 C1824 1.327 . S
C1826 C1845 1.429 . S
C1826 H1850 0.950 . S
C1827 C1844 1.574 . S
C1827 C1846 1.368 . S
C1827 H1851 0.949 . S
H1828 C1832 0.949 . S
C1829 C1830 1.349 . S
C1829 C1831 1.327 . S
C1829 H1852 0.950 . S
C1830 C1829 1.349 . S
C1830 C1842 1.349 . S
C1831 C1829 1.327 . S
C1831 C1847 1.429 . S
C1831 H1853 0.950 . S
C1832 H1828 0.949 . S
C1832 C1840 1.574 . S
C1832 C1848 1.368 . S
H1833 C1841 0.950 . S
H1834 C1839 0.950 . S
H1835 C1840 0.949 . S
H1836 C1842 0.950 . S
H1837 C1843 0.950 . S
H1838 C1844 0.949 . S
C1839 H1834 0.950 . S
C1839 C1841 1.327 . S
C1839 C1845 1.429 . S
C1840 C1832 1.574 . S
C1840 H1835 0.949 . S
C1840 C1846 1.368 . S
C1841 C1825 1.349 . S
C1841 H1833 0.950 . S
C1841 C1839 1.327 . S
C1842 C1830 1.349 . S
C1842 H1836 0.950 . S
C1842 C1843 1.327 . S
C1843 H1837 0.950 . S
C1843 C1842 1.327 . S
C1843 C1847 1.429 . S
C1844 C1827 1.574 . S
C1844 H1838 0.949 . S
C1844 C1848 1.368 . S
C1845 C1826 1.429 . S
C1845 C1839 1.429 . S
C1845 C1846 1.523 . S
C1846 C1827 1.368 . S
C1846 C1840 1.368 . S
C1846 C1845 1.523 . S
C1847 C1831 1.429 . S
C1847 C1843 1.429 . S
C1847 C1848 1.523 . S
C1848 C1832 1.368 . S
C1848 C1844 1.368 . S
C1848 C1847 1.523 . S
H1849 C1824 0.950 . S
H1850 C1826 0.950 . S
H1851 C1827 0.949 . S
H1852 C1829 0.950 . S
H1853 C1831 0.950 . S
C1854 C1855 1.349 . S
C1854 C1856 1.327 . S
C1854 H1879 0.950 . S
C1855 C1854 1.349 . S
C1855 C1871 1.349 . S
C1856 C1854 1.327 . S
C1856 C1875 1.429 . S
C1856 H1880 0.950 . S
C1857 C1874 1.574 . S
C1857 C1876 1.368 . S
C1857 H1881 0.949 . S
H1858 C1862 0.949 . S
C1859 C1860 1.349 . S
C1859 C1861 1.327 . S
C1859 H1882 0.950 . S
C1860 C1859 1.349 . S
C1860 C1872 1.349 . S
C1861 C1859 1.327 . S
C1861 C1877 1.429 . S
C1861 H1883 0.950 . S
C1862 H1858 0.949 . S
C1862 C1870 1.574 . S
C1862 C1878 1.368 . S
H1863 C1871 0.950 . S
H1864 C1869 0.950 . S
H1865 C1870 0.949 . S
H1866 C1872 0.950 . S
H1867 C1873 0.950 . S
H1868 C1874 0.949 . S
C1869 H1864 0.950 . S
C1869 C1871 1.327 . S
C1869 C1875 1.429 . S
C1870 C1862 1.574 . S
C1870 H1865 0.949 . S
C1870 C1876 1.368 . S
C1871 C1855 1.349 . S
C1871 H1863 0.950 . S
C1871 C1869 1.327 . S
C1872 C1860 1.349 . S
C1872 H1866 0.950 . S
C1872 C1873 1.327 . S
C1873 H1867 0.950 . S
C1873 C1872 1.327 . S
C1873 C1877 1.429 . S
C1874 C1857 1.574 . S
C1874 H1868 0.949 . S
C1874 C1878 1.368 . S
C1875 C1856 1.429 . S
C1875 C1869 1.429 . S
C1875 C1876 1.523 . S
C1876 C1857 1.368 . S
C1876 C1870 1.368 . S
C1876 C1875 1.523 . S
C1877 C1861 1.429 . S
C1877 C1873 1.429 . S
C1877 C1878 1.523 . S
C1878 C1862 1.368 . S
C1878 C1874 1.368 . S
C1878 C1877 1.523 . S
H1879 C1854 0.950 . S
H1880 C1856 0.950 . S
H1881 C1857 0.949 . S
H1882 C1859 0.950 . S
H1883 C1861 0.950 . S
C1884 C1885 1.349 . S
C1884 C1886 1.327 . S
C1884 H1909 0.950 . S
C1885 C1884 1.349 . S
C1885 C1901 1.349 . S
C1886 C1884 1.327 . S
C1886 C1905 1.429 . S
C1886 H1910 0.950 . S
C1887 C1904 1.574 . S
C1887 C1906 1.368 . S
C1887 H1911 0.949 . S
H1888 C1892 0.949 . S
C1889 C1890 1.349 . S
C1889 C1891 1.327 . S
C1889 H1912 0.950 . S
C1890 C1889 1.349 . S
C1890 C1902 1.349 . S
C1891 C1889 1.327 . S
C1891 C1907 1.429 . S
C1891 H1913 0.950 . S
C1892 H1888 0.949 . S
C1892 C1900 1.574 . S
C1892 C1908 1.368 . S
H1893 C1901 0.950 . S
H1894 C1899 0.950 . S
H1895 C1900 0.949 . S
H1896 C1902 0.950 . S
H1897 C1903 0.950 . S
H1898 C1904 0.949 . S
C1899 H1894 0.950 . S
C1899 C1901 1.327 . S
C1899 C1905 1.429 . S
C1900 C1892 1.574 . S
C1900 H1895 0.949 . S
C1900 C1906 1.368 . S
C1901 C1885 1.349 . S
C1901 H1893 0.950 . S
C1901 C1899 1.327 . S
C1902 C1890 1.349 . S
C1902 H1896 0.950 . S
C1902 C1903 1.327 . S
C1903 H1897 0.950 . S
C1903 C1902 1.327 . S
C1903 C1907 1.429 . S
C1904 C1887 1.574 . S
C1904 H1898 0.949 . S
C1904 C1908 1.368 . S
C1905 C1886 1.429 . S
C1905 C1899 1.429 . S
C1905 C1906 1.523 . S
C1906 C1887 1.368 . S
C1906 C1900 1.368 . S
C1906 C1905 1.523 . S
C1907 C1891 1.429 . S
C1907 C1903 1.429 . S
C1907 C1908 1.523 . S
C1908 C1892 1.368 . S
C1908 C1904 1.368 . S
C1908 C1907 1.523 . S
H1909 C1884 0.950 . S
H1910 C1886 0.950 . S
H1911 C1887 0.949 . S
H1912 C1889 0.950 . S
H1913 C1891 0.950 . S
C1914 C1915 1.349 . S
C1914 C1916 1.327 . S
C1914 H1939 0.950 . S
C1915 C1914 1.349 . S
C1915 C1931 1.349 . S
C1916 C1914 1.327 . S
C1916 C1935 1.429 . S
C1916 H1940 0.950 . S
C1917 C1934 1.574 1_655 S
C1917 C1936 1.368 . S
C1917 H1941 0.949 . S
H1918 C1922 0.949 . S
C1919 C1920 1.349 . S
C1919 C1921 1.327 . S
C1919 H1942 0.950 . S
C1920 C1919 1.349 . S
C1920 C1932 1.349 . S
C1921 C1919 1.327 . S
C1921 C1937 1.429 . S
C1921 H1943 0.950 . S
C1922 H1918 0.949 . S
C1922 C1930 1.574 1_455 S
C1922 C1938 1.368 . S
H1923 C1931 0.950 . S
H1924 C1929 0.950 . S
H1925 C1930 0.949 . S
H1926 C1932 0.950 . S
H1927 C1933 0.950 . S
H1928 C1934 0.949 . S
C1929 H1924 0.950 . S
C1929 C1931 1.327 . S
C1929 C1935 1.429 . S
C1930 C1922 1.574 1_655 S
C1930 H1925 0.949 . S
C1930 C1936 1.368 . S
C1931 C1915 1.349 . S
C1931 H1923 0.950 . S
C1931 C1929 1.327 . S
C1932 C1920 1.349 . S
C1932 H1926 0.950 . S
C1932 C1933 1.327 . S
C1933 H1927 0.950 . S
C1933 C1932 1.327 . S
C1933 C1937 1.429 . S
C1934 C1917 1.574 1_455 S
C1934 H1928 0.949 . S
C1934 C1938 1.368 . S
C1935 C1916 1.429 . S
C1935 C1929 1.429 . S
C1935 C1936 1.523 . S
C1936 C1917 1.368 . S
C1936 C1930 1.368 . S
C1936 C1935 1.523 . S
C1937 C1921 1.429 . S
C1937 C1933 1.429 . S
C1937 C1938 1.523 . S
C1938 C1922 1.368 . S
C1938 C1934 1.368 . S
C1938 C1937 1.523 . S
H1939 C1914 0.950 . S
H1940 C1916 0.950 . S
H1941 C1917 0.949 . S
H1942 C1919 0.950 . S
H1943 C1921 0.950 . S
C1944 C1945 1.349 . S
C1944 C1946 1.327 . S
C1944 H1969 0.950 . S
C1945 C1944 1.349 . S
C1945 C1961 1.349 . S
C1946 C1944 1.327 . S
C1946 C1965 1.429 . S
C1946 H1970 0.950 . S
C1947 C1964 1.574 . S
C1947 C1966 1.368 . S
C1947 H1971 0.949 . S
H1948 C1952 0.949 . S
C1949 C1950 1.349 . S
C1949 C1951 1.327 . S
C1949 H1972 0.950 . S
C1950 C1949 1.349 . S
C1950 C1962 1.349 . S
C1951 C1949 1.327 . S
C1951 C1967 1.429 . S
C1951 H1973 0.950 . S
C1952 H1948 0.949 . S
C1952 C1960 1.574 . S
C1952 C1968 1.368 . S
H1953 C1961 0.950 . S
H1954 C1959 0.950 . S
H1955 C1960 0.949 . S
H1956 C1962 0.950 . S
H1957 C1963 0.950 . S
H1958 C1964 0.949 . S
C1959 H1954 0.950 . S
C1959 C1961 1.327 . S
C1959 C1965 1.429 . S
C1960 C1952 1.574 . S
C1960 H1955 0.949 . S
C1960 C1966 1.368 . S
C1961 C1945 1.349 . S
C1961 H1953 0.950 . S
C1961 C1959 1.327 . S
C1962 C1950 1.349 . S
C1962 H1956 0.950 . S
C1962 C1963 1.327 . S
C1963 H1957 0.950 . S
C1963 C1962 1.327 . S
C1963 C1967 1.429 . S
C1964 C1947 1.574 . S
C1964 H1958 0.949 . S
C1964 C1968 1.368 . S
C1965 C1946 1.429 . S
C1965 C1959 1.429 . S
C1965 C1966 1.523 . S
C1966 C1947 1.368 . S
C1966 C1960 1.368 . S
C1966 C1965 1.523 . S
C1967 C1951 1.429 . S
C1967 C1963 1.429 . S
C1967 C1968 1.523 . S
C1968 C1952 1.368 . S
C1968 C1964 1.368 . S
C1968 C1967 1.523 . S
H1969 C1944 0.950 . S
H1970 C1946 0.950 . S
H1971 C1947 0.949 . S
H1972 C1949 0.950 . S
H1973 C1951 0.950 . S
C1974 C1975 1.349 . S
C1974 C1976 1.327 . S
C1974 H1999 0.950 . S
C1975 C1974 1.349 . S
C1975 C1991 1.349 . S
C1976 C1974 1.327 . S
C1976 C1995 1.429 . S
C1976 H2000 0.950 . S
C1977 C1994 1.574 1_455 S
C1977 C1996 1.368 . S
C1977 H2001 0.949 . S
H1978 C1982 0.949 . S
C1979 C1980 1.349 . S
C1979 C1981 1.327 . S
C1979 H2002 0.950 . S
C1980 C1979 1.349 . S
C1980 C1992 1.349 . S
C1981 C1979 1.327 . S
C1981 C1997 1.429 . S
C1981 H2003 0.950 . S
C1982 H1978 0.949 . S
C1982 C1990 1.574 1_655 S
C1982 C1998 1.368 . S
H1983 C1991 0.950 . S
H1984 C1989 0.950 . S
H1985 C1990 0.949 . S
H1986 C1992 0.950 . S
H1987 C1993 0.950 . S
H1988 C1994 0.949 . S
C1989 H1984 0.950 . S
C1989 C1991 1.327 . S
C1989 C1995 1.429 . S
C1990 C1982 1.574 1_455 S
C1990 H1985 0.949 . S
C1990 C1996 1.368 . S
C1991 C1975 1.349 . S
C1991 H1983 0.950 . S
C1991 C1989 1.327 . S
C1992 C1980 1.349 . S
C1992 H1986 0.950 . S
C1992 C1993 1.327 . S
C1993 H1987 0.950 . S
C1993 C1992 1.327 . S
C1993 C1997 1.429 . S
C1994 C1977 1.574 1_655 S
C1994 H1988 0.949 . S
C1994 C1998 1.368 . S
C1995 C1976 1.429 . S
C1995 C1989 1.429 . S
C1995 C1996 1.523 . S
C1996 C1977 1.368 . S
C1996 C1990 1.368 . S
C1996 C1995 1.523 . S
C1997 C1981 1.429 . S
C1997 C1993 1.429 . S
C1997 C1998 1.523 . S
C1998 C1982 1.368 . S
C1998 C1994 1.368 . S
C1998 C1997 1.523 . S
H1999 C1974 0.950 . S
H2000 C1976 0.950 . S
H2001 C1977 0.949 . S
H2002 C1979 0.950 . S
H2003 C1981 0.950 . S
C2004 C2005 1.349 . S
C2004 C2006 1.327 . S
C2004 H2029 0.950 . S
C2005 C2004 1.349 . S
C2005 C2021 1.349 . S
C2006 C2004 1.327 . S
C2006 C2025 1.429 . S
C2006 H2030 0.950 . S
C2007 C2024 1.574 . S
C2007 C2026 1.368 . S
C2007 H2031 0.949 . S
H2008 C2012 0.949 . S
C2009 C2010 1.349 . S
C2009 C2011 1.327 . S
C2009 H2032 0.950 . S
C2010 C2009 1.349 . S
C2010 C2022 1.349 . S
C2011 C2009 1.327 . S
C2011 C2027 1.429 . S
C2011 H2033 0.950 . S
C2012 H2008 0.949 . S
C2012 C2020 1.574 . S
C2012 C2028 1.368 . S
H2013 C2021 0.950 . S
H2014 C2019 0.950 . S
H2015 C2020 0.949 . S
H2016 C2022 0.950 . S
H2017 C2023 0.950 . S
H2018 C2024 0.949 . S
C2019 H2014 0.950 . S
C2019 C2021 1.327 . S
C2019 C2025 1.429 . S
C2020 C2012 1.574 . S
C2020 H2015 0.949 . S
C2020 C2026 1.368 . S
C2021 C2005 1.349 . S
C2021 H2013 0.950 . S
C2021 C2019 1.327 . S
C2022 C2010 1.349 . S
C2022 H2016 0.950 . S
C2022 C2023 1.327 . S
C2023 H2017 0.950 . S
C2023 C2022 1.327 . S
C2023 C2027 1.429 . S
C2024 C2007 1.574 . S
C2024 H2018 0.949 . S
C2024 C2028 1.368 . S
C2025 C2006 1.429 . S
C2025 C2019 1.429 . S
C2025 C2026 1.523 . S
C2026 C2007 1.368 . S
C2026 C2020 1.368 . S
C2026 C2025 1.523 . S
C2027 C2011 1.429 . S
C2027 C2023 1.429 . S
C2027 C2028 1.523 . S
C2028 C2012 1.368 . S
C2028 C2024 1.368 . S
C2028 C2027 1.523 . S
H2029 C2004 0.950 . S
H2030 C2006 0.950 . S
H2031 C2007 0.949 . S
H2032 C2009 0.950 . S
H2033 C2011 0.950 . S
C2034 C2035 1.349 . S
C2034 C2036 1.327 . S
C2034 H2059 0.950 . S
C2035 C2034 1.349 . S
C2035 C2051 1.349 . S
C2036 C2034 1.327 . S
C2036 C2055 1.429 . S
C2036 H2060 0.950 . S
C2037 C2054 1.574 . S
C2037 C2056 1.368 . S
C2037 H2061 0.949 . S
H2038 C2042 0.949 . S
C2039 C2040 1.349 . S
C2039 C2041 1.327 . S
C2039 H2062 0.950 . S
C2040 C2039 1.349 . S
C2040 C2052 1.349 . S
C2041 C2039 1.327 . S
C2041 C2057 1.429 . S
C2041 H2063 0.950 . S
C2042 H2038 0.949 . S
C2042 C2050 1.574 . S
C2042 C2058 1.368 . S
H2043 C2051 0.950 . S
H2044 C2049 0.950 . S
H2045 C2050 0.949 . S
H2046 C2052 0.950 . S
H2047 C2053 0.950 . S
H2048 C2054 0.949 . S
C2049 H2044 0.950 . S
C2049 C2051 1.327 . S
C2049 C2055 1.429 . S
C2050 C2042 1.574 . S
C2050 H2045 0.949 . S
C2050 C2056 1.368 . S
C2051 C2035 1.349 . S
C2051 H2043 0.950 . S
C2051 C2049 1.327 . S
C2052 C2040 1.349 . S
C2052 H2046 0.950 . S
C2052 C2053 1.327 . S
C2053 H2047 0.950 . S
C2053 C2052 1.327 . S
C2053 C2057 1.429 . S
C2054 C2037 1.574 . S
C2054 H2048 0.949 . S
C2054 C2058 1.368 . S
C2055 C2036 1.429 . S
C2055 C2049 1.429 . S
C2055 C2056 1.523 . S
C2056 C2037 1.368 . S
C2056 C2050 1.368 . S
C2056 C2055 1.523 . S
C2057 C2041 1.429 . S
C2057 C2053 1.429 . S
C2057 C2058 1.523 . S
C2058 C2042 1.368 . S
C2058 C2054 1.368 . S
C2058 C2057 1.523 . S
H2059 C2034 0.950 . S
H2060 C2036 0.950 . S
H2061 C2037 0.949 . S
H2062 C2039 0.950 . S
H2063 C2041 0.950 . S
C2064 C2065 1.349 . S
C2064 C2066 1.327 . S
C2064 H2089 0.950 . S
C2065 C2064 1.349 . S
C2065 C2081 1.349 . S
C2066 C2064 1.327 . S
C2066 C2085 1.429 . S
C2066 H2090 0.950 . S
C2067 C2084 1.574 . S
C2067 C2086 1.368 . S
C2067 H2091 0.949 . S
H2068 C2072 0.949 . S
C2069 C2070 1.349 . S
C2069 C2071 1.327 . S
C2069 H2092 0.950 . S
C2070 C2069 1.349 . S
C2070 C2082 1.349 . S
C2071 C2069 1.327 . S
C2071 C2087 1.429 . S
C2071 H2093 0.950 . S
C2072 H2068 0.949 . S
C2072 C2080 1.574 . S
C2072 C2088 1.368 . S
H2073 C2081 0.950 . S
H2074 C2079 0.950 . S
H2075 C2080 0.949 . S
H2076 C2082 0.950 . S
H2077 C2083 0.950 . S
H2078 C2084 0.949 . S
C2079 H2074 0.950 . S
C2079 C2081 1.327 . S
C2079 C2085 1.429 . S
C2080 C2072 1.574 . S
C2080 H2075 0.949 . S
C2080 C2086 1.368 . S
C2081 C2065 1.349 . S
C2081 H2073 0.950 . S
C2081 C2079 1.327 . S
C2082 C2070 1.349 . S
C2082 H2076 0.950 . S
C2082 C2083 1.327 . S
C2083 H2077 0.950 . S
C2083 C2082 1.327 . S
C2083 C2087 1.429 . S
C2084 C2067 1.574 . S
C2084 H2078 0.949 . S
C2084 C2088 1.368 . S
C2085 C2066 1.429 . S
C2085 C2079 1.429 . S
C2085 C2086 1.523 . S
C2086 C2067 1.368 . S
C2086 C2080 1.368 . S
C2086 C2085 1.523 . S
C2087 C2071 1.429 . S
C2087 C2083 1.429 . S
C2087 C2088 1.523 . S
C2088 C2072 1.368 . S
C2088 C2084 1.368 . S
C2088 C2087 1.523 . S
H2089 C2064 0.950 . S
H2090 C2066 0.950 . S
H2091 C2067 0.949 . S
H2092 C2069 0.950 . S
H2093 C2071 0.950 . S
C2094 C2095 1.349 . S
C2094 C2096 1.327 . S
C2094 H2119 0.950 . S
C2095 C2094 1.349 . S
C2095 C2111 1.349 . S
C2096 C2094 1.327 . S
C2096 C2115 1.429 . S
C2096 H2120 0.950 . S
C2097 C2114 1.574 . S
C2097 C2116 1.368 . S
C2097 H2121 0.949 . S
H2098 C2102 0.949 . S
C2099 C2100 1.349 . S
C2099 C2101 1.327 . S
C2099 H2122 0.950 . S
C2100 C2099 1.349 . S
C2100 C2112 1.349 . S
C2101 C2099 1.327 . S
C2101 C2117 1.429 . S
C2101 H2123 0.950 . S
C2102 H2098 0.949 . S
C2102 C2110 1.574 . S
C2102 C2118 1.368 . S
H2103 C2111 0.950 . S
H2104 C2109 0.950 . S
H2105 C2110 0.949 . S
H2106 C2112 0.950 . S
H2107 C2113 0.950 . S
H2108 C2114 0.949 . S
C2109 H2104 0.950 . S
C2109 C2111 1.327 . S
C2109 C2115 1.429 . S
C2110 C2102 1.574 . S
C2110 H2105 0.949 . S
C2110 C2116 1.368 . S
C2111 C2095 1.349 . S
C2111 H2103 0.950 . S
C2111 C2109 1.327 . S
C2112 C2100 1.349 . S
C2112 H2106 0.950 . S
C2112 C2113 1.327 . S
C2113 H2107 0.950 . S
C2113 C2112 1.327 . S
C2113 C2117 1.429 . S
C2114 C2097 1.574 . S
C2114 H2108 0.949 . S
C2114 C2118 1.368 . S
C2115 C2096 1.429 . S
C2115 C2109 1.429 . S
C2115 C2116 1.523 . S
C2116 C2097 1.368 . S
C2116 C2110 1.368 . S
C2116 C2115 1.523 . S
C2117 C2101 1.429 . S
C2117 C2113 1.429 . S
C2117 C2118 1.523 . S
C2118 C2102 1.368 . S
C2118 C2114 1.368 . S
C2118 C2117 1.523 . S
H2119 C2094 0.950 . S
H2120 C2096 0.950 . S
H2121 C2097 0.949 . S
H2122 C2099 0.950 . S
H2123 C2101 0.950 . S
C2124 C2125 1.349 . S
C2124 C2126 1.327 . S
C2124 H2149 0.950 . S
C2125 C2124 1.349 . S
C2125 C2141 1.349 . S
C2126 C2124 1.327 . S
C2126 C2145 1.429 . S
C2126 H2150 0.950 . S
C2127 C2144 1.574 . S
C2127 C2146 1.368 . S
C2127 H2151 0.949 . S
H2128 C2132 0.949 . S
C2129 C2130 1.349 . S
C2129 C2131 1.327 . S
C2129 H2152 0.950 . S
C2130 C2129 1.349 . S
C2130 C2142 1.349 . S
C2131 C2129 1.327 . S
C2131 C2147 1.429 . S
C2131 H2153 0.950 . S
C2132 H2128 0.949 . S
C2132 C2140 1.574 . S
C2132 C2148 1.368 . S
H2133 C2141 0.950 . S
H2134 C2139 0.950 . S
H2135 C2140 0.949 . S
H2136 C2142 0.950 . S
H2137 C2143 0.950 . S
H2138 C2144 0.949 . S
C2139 H2134 0.950 . S
C2139 C2141 1.327 . S
C2139 C2145 1.429 . S
C2140 C2132 1.574 . S
C2140 H2135 0.949 . S
C2140 C2146 1.368 . S
C2141 C2125 1.349 . S
C2141 H2133 0.950 . S
C2141 C2139 1.327 . S
C2142 C2130 1.349 . S
C2142 H2136 0.950 . S
C2142 C2143 1.327 . S
C2143 H2137 0.950 . S
C2143 C2142 1.327 . S
C2143 C2147 1.429 . S
C2144 C2127 1.574 . S
C2144 H2138 0.949 . S
C2144 C2148 1.368 . S
C2145 C2126 1.429 . S
C2145 C2139 1.429 . S
C2145 C2146 1.523 . S
C2146 C2127 1.368 . S
C2146 C2140 1.368 . S
C2146 C2145 1.523 . S
C2147 C2131 1.429 . S
C2147 C2143 1.429 . S
C2147 C2148 1.523 . S
C2148 C2132 1.368 . S
C2148 C2144 1.368 . S
C2148 C2147 1.523 . S
H2149 C2124 0.950 . S
H2150 C2126 0.950 . S
H2151 C2127 0.949 . S
H2152 C2129 0.950 . S
H2153 C2131 0.950 . S
C2154 C2155 1.349 . S
C2154 C2156 1.327 . S
C2154 H2179 0.950 . S
C2155 C2154 1.349 . S
C2155 C2171 1.349 . S
C2156 C2154 1.327 . S
C2156 C2175 1.429 . S
C2156 H2180 0.950 . S
C2157 C2174 1.574 . S
C2157 C2176 1.368 . S
C2157 H2181 0.949 . S
H2158 C2162 0.949 . S
C2159 C2160 1.349 . S
C2159 C2161 1.327 . S
C2159 H2182 0.950 . S
C2160 C2159 1.349 . S
C2160 C2172 1.349 . S
C2161 C2159 1.327 . S
C2161 C2177 1.429 . S
C2161 H2183 0.950 . S
C2162 H2158 0.949 . S
C2162 C2170 1.574 . S
C2162 C2178 1.368 . S
H2163 C2171 0.950 . S
H2164 C2169 0.950 . S
H2165 C2170 0.949 . S
H2166 C2172 0.950 . S
H2167 C2173 0.950 . S
H2168 C2174 0.949 . S
C2169 H2164 0.950 . S
C2169 C2171 1.327 . S
C2169 C2175 1.429 . S
C2170 C2162 1.574 . S
C2170 H2165 0.949 . S
C2170 C2176 1.368 . S
C2171 C2155 1.349 . S
C2171 H2163 0.950 . S
C2171 C2169 1.327 . S
C2172 C2160 1.349 . S
C2172 H2166 0.950 . S
C2172 C2173 1.327 . S
C2173 H2167 0.950 . S
C2173 C2172 1.327 . S
C2173 C2177 1.429 . S
C2174 C2157 1.574 . S
C2174 H2168 0.949 . S
C2174 C2178 1.368 . S
C2175 C2156 1.429 . S
C2175 C2169 1.429 . S
C2175 C2176 1.523 . S
C2176 C2157 1.368 . S
C2176 C2170 1.368 . S
C2176 C2175 1.523 . S
C2177 C2161 1.429 . S
C2177 C2173 1.429 . S
C2177 C2178 1.523 . S
C2178 C2162 1.368 . S
C2178 C2174 1.368 . S
C2178 C2177 1.523 . S
H2179 C2154 0.950 . S
H2180 C2156 0.950 . S
H2181 C2157 0.949 . S
H2182 C2159 0.950 . S
H2183 C2161 0.950 . S
C2184 C2185 1.349 . S
C2184 C2186 1.327 . S
C2184 H2209 0.950 . S
C2185 C2184 1.349 . S
C2185 C2201 1.349 . S
C2186 C2184 1.327 . S
C2186 C2205 1.429 . S
C2186 H2210 0.950 . S
C2187 C2204 1.574 1_655 S
C2187 C2206 1.368 . S
C2187 H2211 0.949 . S
H2188 C2192 0.949 . S
C2189 C2190 1.349 . S
C2189 C2191 1.327 . S
C2189 H2212 0.950 . S
C2190 C2189 1.349 . S
C2190 C2202 1.349 . S
C2191 C2189 1.327 . S
C2191 C2207 1.429 . S
C2191 H2213 0.950 . S
C2192 H2188 0.949 . S
C2192 C2200 1.574 1_455 S
C2192 C2208 1.368 . S
H2193 C2201 0.950 . S
H2194 C2199 0.950 . S
H2195 C2200 0.949 . S
H2196 C2202 0.950 . S
H2197 C2203 0.950 . S
H2198 C2204 0.949 . S
C2199 H2194 0.950 . S
C2199 C2201 1.327 . S
C2199 C2205 1.429 . S
C2200 C2192 1.574 1_655 S
C2200 H2195 0.949 . S
C2200 C2206 1.368 . S
C2201 C2185 1.349 . S
C2201 H2193 0.950 . S
C2201 C2199 1.327 . S
C2202 C2190 1.349 . S
C2202 H2196 0.950 . S
C2202 C2203 1.327 . S
C2203 H2197 0.950 . S
C2203 C2202 1.327 . S
C2203 C2207 1.429 . S
C2204 C2187 1.574 1_455 S
C2204 H2198 0.949 . S
C2204 C2208 1.368 . S
C2205 C2186 1.429 . S
C2205 C2199 1.429 . S
C2205 C2206 1.523 . S
C2206 C2187 1.368 . S
C2206 C2200 1.368 . S
C2206 C2205 1.523 . S
C2207 C2191 1.429 . S
C2207 C2203 1.429 . S
C2207 C2208 1.523 . S
C2208 C2192 1.368 . S
C2208 C2204 1.368 . S
C2208 C2207 1.523 . S
H2209 C2184 0.950 . S
H2210 C2186 0.950 . S
H2211 C2187 0.949 . S
H2212 C2189 0.950 . S
H2213 C2191 0.950 . S
C2214 C2215 1.349 . S
C2214 C2216 1.327 . S
C2214 H2239 0.950 . S
C2215 C2214 1.349 . S
C2215 C2231 1.349 . S
C2216 C2214 1.327 . S
C2216 C2235 1.429 . S
C2216 H2240 0.950 . S
C2217 C2234 1.574 . S
C2217 C2236 1.368 . S
C2217 H2241 0.949 . S
H2218 C2222 0.949 . S
C2219 C2220 1.349 . S
C2219 C2221 1.327 . S
C2219 H2242 0.950 . S
C2220 C2219 1.349 . S
C2220 C2232 1.349 . S
C2221 C2219 1.327 . S
C2221 C2237 1.429 . S
C2221 H2243 0.950 . S
C2222 H2218 0.949 . S
C2222 C2230 1.574 . S
C2222 C2238 1.368 . S
H2223 C2231 0.950 . S
H2224 C2229 0.950 . S
H2225 C2230 0.949 . S
H2226 C2232 0.950 . S
H2227 C2233 0.950 . S
H2228 C2234 0.949 . S
C2229 H2224 0.950 . S
C2229 C2231 1.327 . S
C2229 C2235 1.429 . S
C2230 C2222 1.574 . S
C2230 H2225 0.949 . S
C2230 C2236 1.368 . S
C2231 C2215 1.349 . S
C2231 H2223 0.950 . S
C2231 C2229 1.327 . S
C2232 C2220 1.349 . S
C2232 H2226 0.950 . S
C2232 C2233 1.327 . S
C2233 H2227 0.950 . S
C2233 C2232 1.327 . S
C2233 C2237 1.429 . S
C2234 C2217 1.574 . S
C2234 H2228 0.949 . S
C2234 C2238 1.368 . S
C2235 C2216 1.429 . S
C2235 C2229 1.429 . S
C2235 C2236 1.523 . S
C2236 C2217 1.368 . S
C2236 C2230 1.368 . S
C2236 C2235 1.523 . S
C2237 C2221 1.429 . S
C2237 C2233 1.429 . S
C2237 C2238 1.523 . S
C2238 C2222 1.368 . S
C2238 C2234 1.368 . S
C2238 C2237 1.523 . S
H2239 C2214 0.950 . S
H2240 C2216 0.950 . S
H2241 C2217 0.949 . S
H2242 C2219 0.950 . S
H2243 C2221 0.950 . S
C2244 C2245 1.349 . S
C2244 C2246 1.327 . S
C2244 H2269 0.950 . S
C2245 C2244 1.349 . S
C2245 C2261 1.349 . S
C2246 C2244 1.327 . S
C2246 C2265 1.429 . S
C2246 H2270 0.950 . S
C2247 C2264 1.574 . S
C2247 C2266 1.368 . S
C2247 H2271 0.949 . S
H2248 C2252 0.949 . S
C2249 C2250 1.349 . S
C2249 C2251 1.327 . S
C2249 H2272 0.950 . S
C2250 C2249 1.349 . S
C2250 C2262 1.349 . S
C2251 C2249 1.327 . S
C2251 C2267 1.429 . S
C2251 H2273 0.950 . S
C2252 H2248 0.949 . S
C2252 C2260 1.574 . S
C2252 C2268 1.368 . S
H2253 C2261 0.950 . S
H2254 C2259 0.950 . S
H2255 C2260 0.949 . S
H2256 C2262 0.950 . S
H2257 C2263 0.950 . S
H2258 C2264 0.949 . S
C2259 H2254 0.950 . S
C2259 C2261 1.327 . S
C2259 C2265 1.429 . S
C2260 C2252 1.574 . S
C2260 H2255 0.949 . S
C2260 C2266 1.368 . S
C2261 C2245 1.349 . S
C2261 H2253 0.950 . S
C2261 C2259 1.327 . S
C2262 C2250 1.349 . S
C2262 H2256 0.950 . S
C2262 C2263 1.327 . S
C2263 H2257 0.950 . S
C2263 C2262 1.327 . S
C2263 C2267 1.429 . S
C2264 C2247 1.574 . S
C2264 H2258 0.949 . S
C2264 C2268 1.368 . S
C2265 C2246 1.429 . S
C2265 C2259 1.429 . S
C2265 C2266 1.523 . S
C2266 C2247 1.368 . S
C2266 C2260 1.368 . S
C2266 C2265 1.523 . S
C2267 C2251 1.429 . S
C2267 C2263 1.429 . S
C2267 C2268 1.523 . S
C2268 C2252 1.368 . S
C2268 C2264 1.368 . S
C2268 C2267 1.523 . S
H2269 C2244 0.950 . S
H2270 C2246 0.950 . S
H2271 C2247 0.949 . S
H2272 C2249 0.950 . S
H2273 C2251 0.950 . S
C2274 C2275 1.349 . S
C2274 C2276 1.327 . S
C2274 H2299 0.950 . S
C2275 C2274 1.349 . S
C2275 C2291 1.349 . S
C2276 C2274 1.327 . S
C2276 C2295 1.429 . S
C2276 H2300 0.950 . S
C2277 C2294 1.574 1_455 S
C2277 C2296 1.368 . S
C2277 H2301 0.949 . S
H2278 C2282 0.949 . S
C2279 C2280 1.349 . S
C2279 C2281 1.327 . S
C2279 H2302 0.950 . S
C2280 C2279 1.349 . S
C2280 C2292 1.349 . S
C2281 C2279 1.327 . S
C2281 C2297 1.429 . S
C2281 H2303 0.950 . S
C2282 H2278 0.949 . S
C2282 C2290 1.574 1_655 S
C2282 C2298 1.368 . S
H2283 C2291 0.950 . S
H2284 C2289 0.950 . S
H2285 C2290 0.949 . S
H2286 C2292 0.950 . S
H2287 C2293 0.950 . S
H2288 C2294 0.949 . S
C2289 H2284 0.950 . S
C2289 C2291 1.327 . S
C2289 C2295 1.429 . S
C2290 C2282 1.574 1_455 S
C2290 H2285 0.949 . S
C2290 C2296 1.368 . S
C2291 C2275 1.349 . S
C2291 H2283 0.950 . S
C2291 C2289 1.327 . S
C2292 C2280 1.349 . S
C2292 H2286 0.950 . S
C2292 C2293 1.327 . S
C2293 H2287 0.950 . S
C2293 C2292 1.327 . S
C2293 C2297 1.429 . S
C2294 C2277 1.574 1_655 S
C2294 H2288 0.949 . S
C2294 C2298 1.368 . S
C2295 C2276 1.429 . S
C2295 C2289 1.429 . S
C2295 C2296 1.523 . S
C2296 C2277 1.368 . S
C2296 C2290 1.368 . S
C2296 C2295 1.523 . S
C2297 C2281 1.429 . S
C2297 C2293 1.429 . S
C2297 C2298 1.523 . S
C2298 C2282 1.368 . S
C2298 C2294 1.368 . S
C2298 C2297 1.523 . S
H2299 C2274 0.950 . S
H2300 C2276 0.950 . S
H2301 C2277 0.949 . S
H2302 C2279 0.950 . S
H2303 C2281 0.950 . S
C2304 C2305 1.349 . S
C2304 C2306 1.327 . S
C2304 H2329 0.950 . S
C2305 C2304 1.349 . S
C2305 C2321 1.349 . S
C2306 C2304 1.327 . S
C2306 C2325 1.429 . S
C2306 H2330 0.950 . S
C2307 C2324 1.574 . S
C2307 C2326 1.368 1_556 S
C2307 H2331 0.949 . S
H2308 C2312 0.949 . S
C2309 C2310 1.349 . S
C2309 C2311 1.327 . S
C2309 H2332 0.950 . S
C2310 C2309 1.349 . S
C2310 C2322 1.349 . S
C2311 C2309 1.327 . S
C2311 C2327 1.429 . S
C2311 H2333 0.950 . S
C2312 H2308 0.949 . S
C2312 C2320 1.574 . S
C2312 C2328 1.368 1_554 S
H2313 C2321 0.950 . S
H2314 C2319 0.950 . S
H2315 C2320 0.949 . S
H2316 C2322 0.950 . S
H2317 C2323 0.950 . S
H2318 C2324 0.949 . S
C2319 H2314 0.950 . S
C2319 C2321 1.327 . S
C2319 C2325 1.429 . S
C2320 C2312 1.574 . S
C2320 H2315 0.949 . S
C2320 C2326 1.368 . S
C2321 C2305 1.349 . S
C2321 H2313 0.950 . S
C2321 C2319 1.327 . S
C2322 C2310 1.349 . S
C2322 H2316 0.950 . S
C2322 C2323 1.327 . S
C2323 H2317 0.950 . S
C2323 C2322 1.327 . S
C2323 C2327 1.429 . S
C2324 C2307 1.574 . S
C2324 H2318 0.949 . S
C2324 C2328 1.368 . S
C2325 C2306 1.429 . S
C2325 C2319 1.429 . S
C2325 C2326 1.523 . S
C2326 C2307 1.368 1_554 S
C2326 C2320 1.368 . S
C2326 C2325 1.523 . S
C2327 C2311 1.429 . S
C2327 C2323 1.429 . S
C2327 C2328 1.523 . S
C2328 C2312 1.368 1_556 S
C2328 C2324 1.368 . S
C2328 C2327 1.523 . S
H2329 C2304 0.950 . S
H2330 C2306 0.950 . S
H2331 C2307 0.949 . S
H2332 C2309 0.950 . S
H2333 C2311 0.950 . S
C2334 C2335 1.349 . S
C2334 C2336 1.327 . S
C2334 H2359 0.950 . S
C2335 C2334 1.349 . S
C2335 C2351 1.349 . S
C2336 C2334 1.327 . S
C2336 C2355 1.429 . S
C2336 H2360 0.950 . S
C2337 C2354 1.574 . S
C2337 C2356 1.368 . S
C2337 H2361 0.949 . S
H2338 C2342 0.949 . S
C2339 C2340 1.349 . S
C2339 C2341 1.327 . S
C2339 H2362 0.950 . S
C2340 C2339 1.349 . S
C2340 C2352 1.349 . S
C2341 C2339 1.327 . S
C2341 C2357 1.429 . S
C2341 H2363 0.950 . S
C2342 H2338 0.949 . S
C2342 C2350 1.574 . S
C2342 C2358 1.368 . S
H2343 C2351 0.950 . S
H2344 C2349 0.950 . S
H2345 C2350 0.949 . S
H2346 C2352 0.950 . S
H2347 C2353 0.950 . S
H2348 C2354 0.949 . S
C2349 H2344 0.950 . S
C2349 C2351 1.327 . S
C2349 C2355 1.429 . S
C2350 C2342 1.574 . S
C2350 H2345 0.949 . S
C2350 C2356 1.368 . S
C2351 C2335 1.349 . S
C2351 H2343 0.950 . S
C2351 C2349 1.327 . S
C2352 C2340 1.349 . S
C2352 H2346 0.950 . S
C2352 C2353 1.327 . S
C2353 H2347 0.950 . S
C2353 C2352 1.327 . S
C2353 C2357 1.429 . S
C2354 C2337 1.574 . S
C2354 H2348 0.949 . S
C2354 C2358 1.368 . S
C2355 C2336 1.429 . S
C2355 C2349 1.429 . S
C2355 C2356 1.523 . S
C2356 C2337 1.368 . S
C2356 C2350 1.368 . S
C2356 C2355 1.523 . S
C2357 C2341 1.429 . S
C2357 C2353 1.429 . S
C2357 C2358 1.523 . S
C2358 C2342 1.368 . S
C2358 C2354 1.368 . S
C2358 C2357 1.523 . S
H2359 C2334 0.950 . S
H2360 C2336 0.950 . S
H2361 C2337 0.949 . S
H2362 C2339 0.950 . S
H2363 C2341 0.950 . S
C2364 C2365 1.349 . S
C2364 C2366 1.327 . S
C2364 H2389 0.950 . S
C2365 C2364 1.349 . S
C2365 C2381 1.349 . S
C2366 C2364 1.327 . S
C2366 C2385 1.429 . S
C2366 H2390 0.950 . S
C2367 C2384 1.574 . S
C2367 C2386 1.368 . S
C2367 H2391 0.949 . S
H2368 C2372 0.949 . S
C2369 C2370 1.349 . S
C2369 C2371 1.327 . S
C2369 H2392 0.950 . S
C2370 C2369 1.349 . S
C2370 C2382 1.349 . S
C2371 C2369 1.327 . S
C2371 C2387 1.429 . S
C2371 H2393 0.950 . S
C2372 H2368 0.949 . S
C2372 C2380 1.574 . S
C2372 C2388 1.368 . S
H2373 C2381 0.950 . S
H2374 C2379 0.950 . S
H2375 C2380 0.949 . S
H2376 C2382 0.950 . S
H2377 C2383 0.950 . S
H2378 C2384 0.949 . S
C2379 H2374 0.950 . S
C2379 C2381 1.327 . S
C2379 C2385 1.429 . S
C2380 C2372 1.574 . S
C2380 H2375 0.949 . S
C2380 C2386 1.368 . S
C2381 C2365 1.349 . S
C2381 H2373 0.950 . S
C2381 C2379 1.327 . S
C2382 C2370 1.349 . S
C2382 H2376 0.950 . S
C2382 C2383 1.327 . S
C2383 H2377 0.950 . S
C2383 C2382 1.327 . S
C2383 C2387 1.429 . S
C2384 C2367 1.574 . S
C2384 H2378 0.949 . S
C2384 C2388 1.368 . S
C2385 C2366 1.429 . S
C2385 C2379 1.429 . S
C2385 C2386 1.523 . S
C2386 C2367 1.368 . S
C2386 C2380 1.368 . S
C2386 C2385 1.523 . S
C2387 C2371 1.429 . S
C2387 C2383 1.429 . S
C2387 C2388 1.523 . S
C2388 C2372 1.368 . S
C2388 C2384 1.368 . S
C2388 C2387 1.523 . S
H2389 C2364 0.950 . S
H2390 C2366 0.950 . S
H2391 C2367 0.949 . S
H2392 C2369 0.950 . S
H2393 C2371 0.950 . S
C2394 C2395 1.349 . S
C2394 C2396 1.327 . S
C2394 H2419 0.950 . S
C2395 C2394 1.349 . S
C2395 C2411 1.349 . S
C2396 C2394 1.327 . S
C2396 C2415 1.429 . S
C2396 H2420 0.950 . S
C2397 C2414 1.574 . S
C2397 C2416 1.368 . S
C2397 H2421 0.949 . S
H2398 C2402 0.949 . S
C2399 C2400 1.349 . S
C2399 C2401 1.327 . S
C2399 H2422 0.950 . S
C2400 C2399 1.349 . S
C2400 C2412 1.349 . S
C2401 C2399 1.327 . S
C2401 C2417 1.429 . S
C2401 H2423 0.950 . S
C2402 H2398 0.949 . S
C2402 C2410 1.574 . S
C2402 C2418 1.368 . S
H2403 C2411 0.950 . S
H2404 C2409 0.950 . S
H2405 C2410 0.949 . S
H2406 C2412 0.950 . S
H2407 C2413 0.950 . S
H2408 C2414 0.949 . S
C2409 H2404 0.950 . S
C2409 C2411 1.327 . S
C2409 C2415 1.429 . S
C2410 C2402 1.574 . S
C2410 H2405 0.949 . S
C2410 C2416 1.368 . S
C2411 C2395 1.349 . S
C2411 H2403 0.950 . S
C2411 C2409 1.327 . S
C2412 C2400 1.349 . S
C2412 H2406 0.950 . S
C2412 C2413 1.327 . S
C2413 H2407 0.950 . S
C2413 C2412 1.327 . S
C2413 C2417 1.429 . S
C2414 C2397 1.574 . S
C2414 H2408 0.949 . S
C2414 C2418 1.368 . S
C2415 C2396 1.429 . S
C2415 C2409 1.429 . S
C2415 C2416 1.523 . S
C2416 C2397 1.368 . S
C2416 C2410 1.368 . S
C2416 C2415 1.523 . S
C2417 C2401 1.429 . S
C2417 C2413 1.429 . S
C2417 C2418 1.523 . S
C2418 C2402 1.368 . S
C2418 C2414 1.368 . S
C2418 C2417 1.523 . S
H2419 C2394 0.950 . S
H2420 C2396 0.950 . S
H2421 C2397 0.949 . S
H2422 C2399 0.950 . S
H2423 C2401 0.950 . S
C2424 C2425 1.349 . S
C2424 C2426 1.327 . S
C2424 H2449 0.950 . S
C2425 C2424 1.349 . S
C2425 C2441 1.349 . S
C2426 C2424 1.327 . S
C2426 C2445 1.429 . S
C2426 H2450 0.940 1_554 S
C2427 C2444 1.574 . S
C2427 C2446 1.368 . S
C2427 H2451 0.949 . S
H2428 C2432 0.949 . S
C2429 C2430 1.349 . S
C2429 C2431 1.327 . S
C2429 H2452 0.950 . S
C2430 C2429 1.349 . S
C2430 C2442 1.349 . S
C2431 C2429 1.327 . S
C2431 C2447 1.429 . S
C2431 H2453 0.950 1_556 S
C2432 H2428 0.949 . S
C2432 C2440 1.574 . S
C2432 C2448 1.368 . S
H2433 C2441 0.950 . S
H2434 C2439 0.950 . S
H2435 C2440 0.949 . S
H2436 C2442 0.950 . S
H2437 C2443 0.950 . S
H2438 C2444 0.949 . S
C2439 H2434 0.950 . S
C2439 C2441 1.327 . S
C2439 C2445 1.429 . S
C2440 C2432 1.574 . S
C2440 H2435 0.949 . S
C2440 C2446 1.368 1_556 S
C2441 C2425 1.349 . S
C2441 H2433 0.950 . S
C2441 C2439 1.327 . S
C2442 C2430 1.349 . S
C2442 H2436 0.950 . S
C2442 C2443 1.327 . S
C2443 H2437 0.950 . S
C2443 C2442 1.327 . S
C2443 C2447 1.429 . S
C2444 C2427 1.574 . S
C2444 H2438 0.949 . S
C2444 C2448 1.368 1_554 S
C2445 C2426 1.429 . S
C2445 C2439 1.429 . S
C2445 C2446 1.523 . S
C2446 C2427 1.368 . S
C2446 C2440 1.368 1_554 S
C2446 C2445 1.523 . S
C2447 C2431 1.429 . S
C2447 C2443 1.429 . S
C2447 C2448 1.523 . S
C2448 C2432 1.368 . S
C2448 C2444 1.368 1_556 S
C2448 C2447 1.523 . S
H2449 C2424 0.950 . S
H2450 C2426 0.940 1_556 S
H2451 C2427 0.949 . S
H2452 C2429 0.950 . S
H2453 C2431 0.950 1_554 S
C2454 C2455 1.349 . S
C2454 C2456 1.327 . S
C2454 H2479 0.950 . S
C2455 C2454 1.349 . S
C2455 C2471 1.349 . S
C2456 C2454 1.327 . S
C2456 C2475 1.429 . S
C2456 H2480 0.950 . S
C2457 C2474 1.574 . S
C2457 C2476 1.368 . S
C2457 H2481 0.949 . S
H2458 C2462 0.949 . S
C2459 C2460 1.349 . S
C2459 C2461 1.327 . S
C2459 H2482 0.950 . S
C2460 C2459 1.349 . S
C2460 C2472 1.349 . S
C2461 C2459 1.327 . S
C2461 C2477 1.429 . S
C2461 H2483 0.950 . S
C2462 H2458 0.949 . S
C2462 C2470 1.574 . S
C2462 C2478 1.368 . S
H2463 C2471 0.950 . S
H2464 C2469 0.950 . S
H2465 C2470 0.949 . S
H2466 C2472 0.950 . S
H2467 C2473 0.950 . S
H2468 C2474 0.949 . S
C2469 H2464 0.950 . S
C2469 C2471 1.327 . S
C2469 C2475 1.429 . S
C2470 C2462 1.574 . S
C2470 H2465 0.949 . S
C2470 C2476 1.368 . S
C2471 C2455 1.349 . S
C2471 H2463 0.950 . S
C2471 C2469 1.327 . S
C2472 C2460 1.349 . S
C2472 H2466 0.950 . S
C2472 C2473 1.327 . S
C2473 H2467 0.950 . S
C2473 C2472 1.327 . S
C2473 C2477 1.429 . S
C2474 C2457 1.574 . S
C2474 H2468 0.949 . S
C2474 C2478 1.368 . S
C2475 C2456 1.429 . S
C2475 C2469 1.429 . S
C2475 C2476 1.523 . S
C2476 C2457 1.368 . S
C2476 C2470 1.368 . S
C2476 C2475 1.523 . S
C2477 C2461 1.429 . S
C2477 C2473 1.429 . S
C2477 C2478 1.523 . S
C2478 C2462 1.368 . S
C2478 C2474 1.368 . S
C2478 C2477 1.523 . S
H2479 C2454 0.950 . S
H2480 C2456 0.950 . S
H2481 C2457 0.949 . S
H2482 C2459 0.950 . S
H2483 C2461 0.950 . S
C2484 C2485 1.349 . S
C2484 C2486 1.327 . S
C2484 H2509 0.950 . S
C2485 C2484 1.349 . S
C2485 C2501 1.349 . S
C2486 C2484 1.327 . S
C2486 C2505 1.429 . S
C2486 H2510 0.950 . S
C2487 C2504 1.574 . S
C2487 C2506 1.368 . S
C2487 H2511 0.949 . S
H2488 C2492 0.949 . S
C2489 C2490 1.349 . S
C2489 C2491 1.327 . S
C2489 H2512 0.950 . S
C2490 C2489 1.349 . S
C2490 C2502 1.349 . S
C2491 C2489 1.327 . S
C2491 C2507 1.429 . S
C2491 H2513 0.950 . S
C2492 H2488 0.949 . S
C2492 C2500 1.574 . S
C2492 C2508 1.368 . S
H2493 C2501 0.950 . S
H2494 C2499 0.950 . S
H2495 C2500 0.949 . S
H2496 C2502 0.950 . S
H2497 C2503 0.950 . S
H2498 C2504 0.949 . S
C2499 H2494 0.950 . S
C2499 C2501 1.327 . S
C2499 C2505 1.429 . S
C2500 C2492 1.574 . S
C2500 H2495 0.949 . S
C2500 C2506 1.368 . S
C2501 C2485 1.349 . S
C2501 H2493 0.950 . S
C2501 C2499 1.327 . S
C2502 C2490 1.349 . S
C2502 H2496 0.950 . S
C2502 C2503 1.327 . S
C2503 H2497 0.950 . S
C2503 C2502 1.327 . S
C2503 C2507 1.429 . S
C2504 C2487 1.574 . S
C2504 H2498 0.949 . S
C2504 C2508 1.368 . S
C2505 C2486 1.429 . S
C2505 C2499 1.429 . S
C2505 C2506 1.523 . S
C2506 C2487 1.368 . S
C2506 C2500 1.368 . S
C2506 C2505 1.523 . S
C2507 C2491 1.429 . S
C2507 C2503 1.429 . S
C2507 C2508 1.523 . S
C2508 C2492 1.368 . S
C2508 C2504 1.368 . S
C2508 C2507 1.523 . S
H2509 C2484 0.950 . S
H2510 C2486 0.950 . S
H2511 C2487 0.949 . S
H2512 C2489 0.950 . S
H2513 C2491 0.950 . S
C2514 C2515 1.349 . S
C2514 C2516 1.327 . S
C2514 H2539 0.950 . S
C2515 C2514 1.349 . S
C2515 C2531 1.349 . S
C2516 C2514 1.327 . S
C2516 C2535 1.429 . S
C2516 H2540 0.950 . S
C2517 C2534 1.574 . S
C2517 C2536 1.368 . S
C2517 H2541 0.949 . S
H2518 C2522 0.949 . S
C2519 C2520 1.349 . S
C2519 C2521 1.327 . S
C2519 H2542 0.950 . S
C2520 C2519 1.349 . S
C2520 C2532 1.349 . S
C2521 C2519 1.327 . S
C2521 C2537 1.429 . S
C2521 H2543 0.950 . S
C2522 H2518 0.949 . S
C2522 C2530 1.574 . S
C2522 C2538 1.368 . S
H2523 C2531 0.950 . S
H2524 C2529 0.950 . S
H2525 C2530 0.949 . S
H2526 C2532 0.950 . S
H2527 C2533 0.950 . S
H2528 C2534 0.949 . S
C2529 H2524 0.950 . S
C2529 C2531 1.327 . S
C2529 C2535 1.429 . S
C2530 C2522 1.574 . S
C2530 H2525 0.949 . S
C2530 C2536 1.368 . S
C2531 C2515 1.349 . S
C2531 H2523 0.950 . S
C2531 C2529 1.327 . S
C2532 C2520 1.349 . S
C2532 H2526 0.950 . S
C2532 C2533 1.327 . S
C2533 H2527 0.950 . S
C2533 C2532 1.327 . S
C2533 C2537 1.429 . S
C2534 C2517 1.574 . S
C2534 H2528 0.949 . S
C2534 C2538 1.368 . S
C2535 C2516 1.429 . S
C2535 C2529 1.429 . S
C2535 C2536 1.523 . S
C2536 C2517 1.368 . S
C2536 C2530 1.368 . S
C2536 C2535 1.523 . S
C2537 C2521 1.429 . S
C2537 C2533 1.429 . S
C2537 C2538 1.523 . S
C2538 C2522 1.368 . S
C2538 C2534 1.368 . S
C2538 C2537 1.523 . S
H2539 C2514 0.950 . S
H2540 C2516 0.950 . S
H2541 C2517 0.949 . S
H2542 C2519 0.950 . S
H2543 C2521 0.950 . S
C2544 C2545 1.349 . S
C2544 C2546 1.327 . S
C2544 H2569 0.950 . S
C2545 C2544 1.349 . S
C2545 C2561 1.349 . S
C2546 C2544 1.327 . S
C2546 C2565 1.429 . S
C2546 H2570 0.950 . S
C2547 C2564 1.574 1_565 S
C2547 C2566 1.368 . S
C2547 H2571 0.949 . S
H2548 C2552 0.949 . S
C2549 C2550 1.349 . S
C2549 C2551 1.327 . S
C2549 H2572 0.950 . S
C2550 C2549 1.349 . S
C2550 C2562 1.349 . S
C2551 C2549 1.327 . S
C2551 C2567 1.429 . S
C2551 H2573 0.950 . S
C2552 H2548 0.949 . S
C2552 C2560 1.574 1_545 S
C2552 C2568 1.368 . S
H2553 C2561 0.950 . S
H2554 C2559 0.950 . S
H2555 C2560 0.949 . S
H2556 C2562 0.950 . S
H2557 C2563 0.950 . S
H2558 C2564 0.949 . S
C2559 H2554 0.950 . S
C2559 C2561 1.327 . S
C2559 C2565 1.429 . S
C2560 C2552 1.574 1_565 S
C2560 H2555 0.949 . S
C2560 C2566 1.368 . S
C2561 C2545 1.349 . S
C2561 H2553 0.950 . S
C2561 C2559 1.327 . S
C2562 C2550 1.349 . S
C2562 H2556 0.950 . S
C2562 C2563 1.327 . S
C2563 H2557 0.950 . S
C2563 C2562 1.327 . S
C2563 C2567 1.429 . S
C2564 C2547 1.574 1_545 S
C2564 H2558 0.949 . S
C2564 C2568 1.368 . S
C2565 C2546 1.429 . S
C2565 C2559 1.429 . S
C2565 C2566 1.523 . S
C2566 C2547 1.368 . S
C2566 C2560 1.368 . S
C2566 C2565 1.523 . S
C2567 C2551 1.429 . S
C2567 C2563 1.429 . S
C2567 C2568 1.523 . S
C2568 C2552 1.368 . S
C2568 C2564 1.368 . S
C2568 C2567 1.523 . S
H2569 C2544 0.950 . S
H2570 C2546 0.950 . S
H2571 C2547 0.949 . S
H2572 C2549 0.950 . S
H2573 C2551 0.950 . S
C2574 C2575 1.349 . S
C2574 C2576 1.327 . S
C2574 H2599 0.950 . S
C2575 C2574 1.349 . S
C2575 C2591 1.349 . S
C2576 C2574 1.327 . S
C2576 C2595 1.429 . S
C2576 H2600 0.950 . S
C2577 C2594 1.574 . S
C2577 C2596 1.368 . S
C2577 H2601 0.949 . S
H2578 C2582 0.949 . S
C2579 C2580 1.349 . S
C2579 C2581 1.327 . S
C2579 H2602 0.950 . S
C2580 C2579 1.349 . S
C2580 C2592 1.349 . S
C2581 C2579 1.327 . S
C2581 C2597 1.429 . S
C2581 H2603 0.950 . S
C2582 H2578 0.949 . S
C2582 C2590 1.574 . S
C2582 C2598 1.368 . S
H2583 C2591 0.950 . S
H2584 C2589 0.950 . S
H2585 C2590 0.949 . S
H2586 C2592 0.950 . S
H2587 C2593 0.950 . S
H2588 C2594 0.949 . S
C2589 H2584 0.950 . S
C2589 C2591 1.327 . S
C2589 C2595 1.429 . S
C2590 C2582 1.574 . S
C2590 H2585 0.949 . S
C2590 C2596 1.368 . S
C2591 C2575 1.349 . S
C2591 H2583 0.950 . S
C2591 C2589 1.327 . S
C2592 C2580 1.349 . S
C2592 H2586 0.950 . S
C2592 C2593 1.327 . S
C2593 H2587 0.950 . S
C2593 C2592 1.327 . S
C2593 C2597 1.429 . S
C2594 C2577 1.574 . S
C2594 H2588 0.949 . S
C2594 C2598 1.368 . S
C2595 C2576 1.429 . S
C2595 C2589 1.429 . S
C2595 C2596 1.523 . S
C2596 C2577 1.368 . S
C2596 C2590 1.368 . S
C2596 C2595 1.523 . S
C2597 C2581 1.429 . S
C2597 C2593 1.429 . S
C2597 C2598 1.523 . S
C2598 C2582 1.368 . S
C2598 C2594 1.368 . S
C2598 C2597 1.523 . S
H2599 C2574 0.950 . S
H2600 C2576 0.950 . S
H2601 C2577 0.949 . S
H2602 C2579 0.950 . S
H2603 C2581 0.950 . S
C2604 C2605 1.349 . S
C2604 C2606 1.327 . S
C2604 H2629 0.950 . S
C2605 C2604 1.349 . S
C2605 C2621 1.349 . S
C2606 C2604 1.327 . S
C2606 C2625 1.429 . S
C2606 H2630 0.950 1_554 S
C2607 C2624 1.574 1_565 S
C2607 C2626 1.368 . S
C2607 H2631 0.949 . S
H2608 C2612 0.949 . S
C2609 C2610 1.349 . S
C2609 C2611 1.327 . S
C2609 H2632 0.950 . S
C2610 C2609 1.349 . S
C2610 C2622 1.349 . S
C2611 C2609 1.327 . S
C2611 C2627 1.429 . S
C2611 H2633 0.950 1_556 S
C2612 H2608 0.949 . S
C2612 C2620 1.574 1_545 S
C2612 C2628 1.368 . S
H2613 C2621 0.950 . S
H2614 C2619 0.950 . S
H2615 C2620 0.949 . S
H2616 C2622 0.950 . S
H2617 C2623 0.950 . S
H2618 C2624 0.949 . S
C2619 H2614 0.950 . S
C2619 C2621 1.327 . S
C2619 C2625 1.429 . S
C2620 C2612 1.574 1_565 S
C2620 H2615 0.949 . S
C2620 C2626 1.368 1_556 S
C2621 C2605 1.349 . S
C2621 H2613 0.950 . S
C2621 C2619 1.327 . S
C2622 C2610 1.349 . S
C2622 H2616 0.950 . S
C2622 C2623 1.327 . S
C2623 H2617 0.950 . S
C2623 C2622 1.327 . S
C2623 C2627 1.429 . S
C2624 C2607 1.574 1_545 S
C2624 H2618 0.949 . S
C2624 C2628 1.368 1_554 S
C2625 C2606 1.429 . S
C2625 C2619 1.429 . S
C2625 C2626 1.523 . S
C2626 C2607 1.368 . S
C2626 C2620 1.368 1_554 S
C2626 C2625 1.523 . S
C2627 C2611 1.429 . S
C2627 C2623 1.429 . S
C2627 C2628 1.523 . S
C2628 C2612 1.368 . S
C2628 C2624 1.368 1_556 S
C2628 C2627 1.523 . S
H2629 C2604 0.950 . S
H2630 C2606 0.950 1_556 S
H2631 C2607 0.949 . S
H2632 C2609 0.950 . S
H2633 C2611 0.950 1_554 S
C2634 C2635 1.349 . S
C2634 C2636 1.327 . S
C2634 H2659 0.950 . S
C2635 C2634 1.349 . S
C2635 C2651 1.349 . S
C2636 C2634 1.327 . S
C2636 C2655 1.429 . S
C2636 H2660 0.950 . S
C2637 C2654 1.574 . S
C2637 C2656 1.368 . S
C2637 H2661 0.949 . S
H2638 C2642 0.949 . S
C2639 C2640 1.349 . S
C2639 C2641 1.327 . S
C2639 H2662 0.950 . S
C2640 C2639 1.349 . S
C2640 C2652 1.349 . S
C2641 C2639 1.327 . S
C2641 C2657 1.429 . S
C2641 H2663 0.950 . S
C2642 H2638 0.949 . S
C2642 C2650 1.574 . S
C2642 C2658 1.368 . S
H2643 C2651 0.950 . S
H2644 C2649 0.950 . S
H2645 C2650 0.949 . S
H2646 C2652 0.950 . S
H2647 C2653 0.950 . S
H2648 C2654 0.949 . S
C2649 H2644 0.950 . S
C2649 C2651 1.327 . S
C2649 C2655 1.429 . S
C2650 C2642 1.574 . S
C2650 H2645 0.949 . S
C2650 C2656 1.368 . S
C2651 C2635 1.349 . S
C2651 H2643 0.950 . S
C2651 C2649 1.327 . S
C2652 C2640 1.349 . S
C2652 H2646 0.950 . S
C2652 C2653 1.327 . S
C2653 H2647 0.950 . S
C2653 C2652 1.327 . S
C2653 C2657 1.429 . S
C2654 C2637 1.574 . S
C2654 H2648 0.949 . S
C2654 C2658 1.368 . S
C2655 C2636 1.429 . S
C2655 C2649 1.429 . S
C2655 C2656 1.523 . S
C2656 C2637 1.368 . S
C2656 C2650 1.368 . S
C2656 C2655 1.523 . S
C2657 C2641 1.429 . S
C2657 C2653 1.429 . S
C2657 C2658 1.523 . S
C2658 C2642 1.368 . S
C2658 C2654 1.368 . S
C2658 C2657 1.523 . S
H2659 C2634 0.950 . S
H2660 C2636 0.950 . S
H2661 C2637 0.949 . S
H2662 C2639 0.950 . S
H2663 C2641 0.950 . S
C2664 C2665 1.349 . S
C2664 C2666 1.327 . S
C2664 H2689 0.950 . S
C2665 C2664 1.349 . S
C2665 C2681 1.349 . S
C2666 C2664 1.327 . S
C2666 C2685 1.429 . S
C2666 H2690 0.950 . S
C2667 C2684 1.574 1_565 S
C2667 C2686 1.368 . S
C2667 H2691 0.949 . S
H2668 C2672 0.949 . S
C2669 C2670 1.349 . S
C2669 C2671 1.327 . S
C2669 H2692 0.950 . S
C2670 C2669 1.349 . S
C2670 C2682 1.349 . S
C2671 C2669 1.327 . S
C2671 C2687 1.429 . S
C2671 H2693 0.950 . S
C2672 H2668 0.949 . S
C2672 C2680 1.574 1_545 S
C2672 C2688 1.368 . S
H2673 C2681 0.950 . S
H2674 C2679 0.950 . S
H2675 C2680 0.949 . S
H2676 C2682 0.950 . S
H2677 C2683 0.950 . S
H2678 C2684 0.949 . S
C2679 H2674 0.950 . S
C2679 C2681 1.327 . S
C2679 C2685 1.429 . S
C2680 C2672 1.574 1_565 S
C2680 H2675 0.949 . S
C2680 C2686 1.368 . S
C2681 C2665 1.349 . S
C2681 H2673 0.950 . S
C2681 C2679 1.327 . S
C2682 C2670 1.349 . S
C2682 H2676 0.950 . S
C2682 C2683 1.327 . S
C2683 H2677 0.950 . S
C2683 C2682 1.327 . S
C2683 C2687 1.429 . S
C2684 C2667 1.574 1_545 S
C2684 H2678 0.949 . S
C2684 C2688 1.368 . S
C2685 C2666 1.429 . S
C2685 C2679 1.429 . S
C2685 C2686 1.523 . S
C2686 C2667 1.368 . S
C2686 C2680 1.368 . S
C2686 C2685 1.523 . S
C2687 C2671 1.429 . S
C2687 C2683 1.429 . S
C2687 C2688 1.523 . S
C2688 C2672 1.368 . S
C2688 C2684 1.368 . S
C2688 C2687 1.523 . S
H2689 C2664 0.950 . S
H2690 C2666 0.950 . S
H2691 C2667 0.949 . S
H2692 C2669 0.950 . S
H2693 C2671 0.950 . S
C2694 C2695 1.349 . S
C2694 C2696 1.327 . S
C2694 H2719 0.950 . S
C2695 C2694 1.349 . S
C2695 C2711 1.349 . S
C2696 C2694 1.327 . S
C2696 C2715 1.429 . S
C2696 H2720 0.950 . S
C2697 C2714 1.574 . S
C2697 C2716 1.368 . S
C2697 H2721 0.949 . S
H2698 C2702 0.949 . S
C2699 C2700 1.349 . S
C2699 C2701 1.327 . S
C2699 H2722 0.950 . S
C2700 C2699 1.349 . S
C2700 C2712 1.349 . S
C2701 C2699 1.327 . S
C2701 C2717 1.429 . S
C2701 H2723 0.950 . S
C2702 H2698 0.949 . S
C2702 C2710 1.574 . S
C2702 C2718 1.368 . S
H2703 C2711 0.950 . S
H2704 C2709 0.950 . S
H2705 C2710 0.949 . S
H2706 C2712 0.950 . S
H2707 C2713 0.950 . S
H2708 C2714 0.949 . S
C2709 H2704 0.950 . S
C2709 C2711 1.327 . S
C2709 C2715 1.429 . S
C2710 C2702 1.574 . S
C2710 H2705 0.949 . S
C2710 C2716 1.368 . S
C2711 C2695 1.349 . S
C2711 H2703 0.950 . S
C2711 C2709 1.327 . S
C2712 C2700 1.349 . S
C2712 H2706 0.950 . S
C2712 C2713 1.327 . S
C2713 H2707 0.950 . S
C2713 C2712 1.327 . S
C2713 C2717 1.429 . S
C2714 C2697 1.574 . S
C2714 H2708 0.949 . S
C2714 C2718 1.368 . S
C2715 C2696 1.429 . S
C2715 C2709 1.429 . S
C2715 C2716 1.523 . S
C2716 C2697 1.368 . S
C2716 C2710 1.368 . S
C2716 C2715 1.523 . S
C2717 C2701 1.429 . S
C2717 C2713 1.429 . S
C2717 C2718 1.523 . S
C2718 C2702 1.368 . S
C2718 C2714 1.368 . S
C2718 C2717 1.523 . S
H2719 C2694 0.950 . S
H2720 C2696 0.950 . S
H2721 C2697 0.949 . S
H2722 C2699 0.950 . S
H2723 C2701 0.950 . S
C2724 C2725 1.349 . S
C2724 C2726 1.327 . S
C2724 H2749 0.950 . S
C2725 C2724 1.349 . S
C2725 C2741 1.349 . S
C2726 C2724 1.327 . S
C2726 C2745 1.429 . S
C2726 H2750 0.950 1_556 S
C2727 C2744 1.574 1_545 S
C2727 C2746 1.368 . S
C2727 H2751 0.949 . S
H2728 C2732 0.949 . S
C2729 C2730 1.349 . S
C2729 C2731 1.327 . S
C2729 H2752 0.950 . S
C2730 C2729 1.349 . S
C2730 C2742 1.349 . S
C2731 C2729 1.327 . S
C2731 C2747 1.429 . S
C2731 H2753 0.950 1_554 S
C2732 H2728 0.949 . S
C2732 C2740 1.574 1_565 S
C2732 C2748 1.368 . S
H2733 C2741 0.950 . S
H2734 C2739 0.950 . S
H2735 C2740 0.949 . S
H2736 C2742 0.950 . S
H2737 C2743 0.950 . S
H2738 C2744 0.949 . S
C2739 H2734 0.950 . S
C2739 C2741 1.327 . S
C2739 C2745 1.429 . S
C2740 C2732 1.574 1_545 S
C2740 H2735 0.949 . S
C2740 C2746 1.368 1_554 S
C2741 C2725 1.349 . S
C2741 H2733 0.950 . S
C2741 C2739 1.327 . S
C2742 C2730 1.349 . S
C2742 H2736 0.950 . S
C2742 C2743 1.327 . S
C2743 H2737 0.950 . S
C2743 C2742 1.327 . S
C2743 C2747 1.429 . S
C2744 C2727 1.574 1_565 S
C2744 H2738 0.949 . S
C2744 C2748 1.368 1_556 S
C2745 C2726 1.429 . S
C2745 C2739 1.429 . S
C2745 C2746 1.523 . S
C2746 C2727 1.368 . S
C2746 C2740 1.368 1_556 S
C2746 C2745 1.523 . S
C2747 C2731 1.429 . S
C2747 C2743 1.429 . S
C2747 C2748 1.523 . S
C2748 C2732 1.368 . S
C2748 C2744 1.368 1_554 S
C2748 C2747 1.523 . S
H2749 C2724 0.950 . S
H2750 C2726 0.950 1_554 S
H2751 C2727 0.949 . S
H2752 C2729 0.950 . S
H2753 C2731 0.950 1_556 S
C2754 C2755 1.349 . S
C2754 C2756 1.327 . S
C2754 H2779 0.950 . S
C2755 C2754 1.349 . S
C2755 C2771 1.349 . S
C2756 C2754 1.327 . S
C2756 C2775 1.429 . S
C2756 H2780 0.950 . S
C2757 C2774 1.574 . S
C2757 C2776 1.368 . S
C2757 H2781 0.949 . S
H2758 C2762 0.949 . S
C2759 C2760 1.349 . S
C2759 C2761 1.327 . S
C2759 H2782 0.950 . S
C2760 C2759 1.349 . S
C2760 C2772 1.349 . S
C2761 C2759 1.327 . S
C2761 C2777 1.429 . S
C2761 H2783 0.950 . S
C2762 H2758 0.949 . S
C2762 C2770 1.574 . S
C2762 C2778 1.368 . S
H2763 C2771 0.950 . S
H2764 C2769 0.950 . S
H2765 C2770 0.949 . S
H2766 C2772 0.950 . S
H2767 C2773 0.950 . S
H2768 C2774 0.949 . S
C2769 H2764 0.950 . S
C2769 C2771 1.327 . S
C2769 C2775 1.429 . S
C2770 C2762 1.574 . S
C2770 H2765 0.949 . S
C2770 C2776 1.368 . S
C2771 C2755 1.349 . S
C2771 H2763 0.950 . S
C2771 C2769 1.327 . S
C2772 C2760 1.349 . S
C2772 H2766 0.950 . S
C2772 C2773 1.327 . S
C2773 H2767 0.950 . S
C2773 C2772 1.327 . S
C2773 C2777 1.429 . S
C2774 C2757 1.574 . S
C2774 H2768 0.949 . S
C2774 C2778 1.368 . S
C2775 C2756 1.429 . S
C2775 C2769 1.429 . S
C2775 C2776 1.523 . S
C2776 C2757 1.368 . S
C2776 C2770 1.368 . S
C2776 C2775 1.523 . S
C2777 C2761 1.429 . S
C2777 C2773 1.429 . S
C2777 C2778 1.523 . S
C2778 C2762 1.368 . S
C2778 C2774 1.368 . S
C2778 C2777 1.523 . S
H2779 C2754 0.950 . S
H2780 C2756 0.950 . S
H2781 C2757 0.949 . S
H2782 C2759 0.950 . S
H2783 C2761 0.950 . S
C1345 C69 1.606 . S
C1350 C58 1.606 . S
C1375 C142 1.589 . S
C1380 C153 1.589 . S
C1405 C226 1.586 . S
C1410 C237 1.586 . S
C1435 C321 1.593 . S
C1440 C310 1.593 . S
C1465 C405 1.590 . S
C1470 C394 1.590 . S
C1495 C489 1.578 . S
C1500 C478 1.578 . S
C1525 C562 1.586 . S
C1530 C573 1.586 . S
C1555 C657 1.597 . S
C1560 C646 1.597 . S
C1585 C741 1.605 . S
C1590 C730 1.605 . S
C1615 C814 1.591 . S
C1620 C825 1.591 . S
C1645 C898 1.579 . S
C1650 C909 1.579 . S
C1675 C982 1.590 . S
C1680 C993 1.590 . S
C1705 C1066 1.588 . S
C1710 C1077 1.588 . S
C1735 C1161 1.585 . S
C1740 C1150 1.585 . S
C1765 C1245 1.589 . S
C1770 C1234 1.589 . S
C1795 C1329 1.598 . S
C1800 C1318 1.598 . S
C1825 C63 1.707 . S
C1830 C991 1.768 . S
C1855 C140 1.749 . S
C1860 C1327 1.748 . S
C1885 C224 1.772 . S
C1890 C830 1.715 . S
C1915 C315 1.709 . S
C1920 C1159 1.768 . S
C1945 C399 1.728 . S
C1950 C1166 1.730 . S
C1975 C998 1.708 . S
C1980 C476 1.769 . S
C2005 C560 1.767 . S
C2010 C1334 1.708 . S
C2035 C651 1.706 . S
C2040 C823 1.763 . S
C2065 C308 1.761 . S
C2070 C739 1.761 . S
C2095 C147 1.697 . S
C2100 C907 1.756 . S
C2125 C1082 1.710 . S
C2130 C483 1.715 . S
C2155 C644 1.762 . S
C2160 C1243 1.761 . S
C2185 C746 1.721 . S
C2190 C392 1.780 . S
C2215 C567 1.715 . S
C2220 C914 1.717 . S
C2245 C231 1.716 . S
C2250 C1250 1.717 . S
C2275 C56 1.764 . S
C2280 C1075 1.766 . S
C2305 C74 1.649 . S
C2310 C410 1.649 . S
C2335 C151 1.627 . S
C2340 C487 1.627 . S
C2365 C235 1.648 . S
C2370 C571 1.648 . S
C2395 C326 1.628 . S
C2400 C662 1.628 . S
C2425 C1071 1.615 . S
C2430 C728 1.614 . S
C2455 C1148 1.634 . S
C2460 C812 1.634 . S
C2485 C896 1.647 . S
C2490 C1232 1.647 . S
C2515 C1316 1.626 . S
C2520 C987 1.630 . S
C2545 C158 1.609 . S
C2550 C655 1.607 . S
C2575 C403 1.667 . S
C2580 C242 1.671 . S
C2605 C494 1.649 . S
C2610 C319 1.646 . S
C2635 C67 1.627 . S
C2640 C578 1.630 . S
C2665 C1323 1.644 . S
C2670 C819 1.643 . S
C2695 C1064 1.661 . S
C2700 C903 1.665 . S
C2725 C1155 1.651 . S
C2730 C980 1.648 . S
C2755 C1239 1.629 . S
C2760 C735 1.629 . S
