# Generated by pormake.
# Topology umq, (4)-cn, num edge types: 1
# Building blocks:
#     Node 0, Type 0, BuildingBlock: CEKHIL_clean_sbu_0, # of connection points: 4
#     Node 1, Type 0, BuildingBlock: CEKHIL_clean_sbu_0, # of connection points: 4
#     Node 2, Type 0, BuildingBlock: CEKHIL_clean_sbu_0, # of connection points: 4
#     Node 3, Type 0, BuildingBlock: CEKHIL_clean_sbu_0, # of connection points: 4
#     Node 4, Type 0, BuildingBlock: CEKHIL_clean_sbu_0, # of connection points: 4
#     Node 5, Type 0, BuildingBlock: CEKHIL_clean_sbu_0, # of connection points: 4
#     Node 6, Type 0, BuildingBlock: CEKHIL_clean_sbu_0, # of connection points: 4
#     Node 7, Type 0, BuildingBlock: CEKHIL_clean_sbu_0, # of connection points: 4
#     Node 8, Type 0, BuildingBlock: CEKHIL_clean_sbu_0, # of connection points: 4
#     Node 9, Type 0, BuildingBlock: CEKHIL_clean_sbu_0, # of connection points: 4
#     Node 10, Type 0, BuildingBlock: CEKHIL_clean_sbu_0, # of connection points: 4
#     Node 11, Type 0, BuildingBlock: CEKHIL_clean_sbu_0, # of connection points: 4
#     Node 12, Type 0, BuildingBlock: CEKHIL_clean_sbu_0, # of connection points: 4
#     Node 13, Type 0, BuildingBlock: CEKHIL_clean_sbu_0, # of connection points: 4
#     Node 14, Type 0, BuildingBlock: CEKHIL_clean_sbu_0, # of connection points: 4
#     Node 15, Type 0, BuildingBlock: CEKHIL_clean_sbu_0, # of connection points: 4
#     Node 16, Type 0, BuildingBlock: CEKHIL_clean_sbu_0, # of connection points: 4
#     Node 17, Type 0, BuildingBlock: CEKHIL_clean_sbu_0, # of connection points: 4
#     Node 18, Type 0, BuildingBlock: CEKHIL_clean_sbu_0, # of connection points: 4
#     Node 19, Type 0, BuildingBlock: CEKHIL_clean_sbu_0, # of connection points: 4
#     Node 20, Type 0, BuildingBlock: CEKHIL_clean_sbu_0, # of connection points: 4
#     Node 21, Type 0, BuildingBlock: CEKHIL_clean_sbu_0, # of connection points: 4
#     Node 22, Type 0, BuildingBlock: CEKHIL_clean_sbu_0, # of connection points: 4
#     Node 23, Type 0, BuildingBlock: CEKHIL_clean_sbu_0, # of connection points: 4
#     Node 24, Type 0, BuildingBlock: CEKHIL_clean_sbu_0, # of connection points: 4
#     Node 25, Type 0, BuildingBlock: CEKHIL_clean_sbu_0, # of connection points: 4
#     Node 26, Type 0, BuildingBlock: CEKHIL_clean_sbu_0, # of connection points: 4
#     Node 27, Type 0, BuildingBlock: CEKHIL_clean_sbu_0, # of connection points: 4
#     Node 28, Type 0, BuildingBlock: CEKHIL_clean_sbu_0, # of connection points: 4
#     Node 29, Type 0, BuildingBlock: CEKHIL_clean_sbu_0, # of connection points: 4
#     Node 30, Type 0, BuildingBlock: CEKHIL_clean_sbu_0, # of connection points: 4
#     Node 31, Type 0, BuildingBlock: CEKHIL_clean_sbu_0, # of connection points: 4
#     Edge 32, Type (0, 0), BuildingBlock: UVAHIK_clean_linker_0, # of connection points: 2
#     Edge 33, Type (0, 0), BuildingBlock: UVAHIK_clean_linker_0, # of connection points: 2
#     Edge 34, Type (0, 0), BuildingBlock: UVAHIK_clean_linker_0, # of connection points: 2
#     Edge 35, Type (0, 0), BuildingBlock: UVAHIK_clean_linker_0, # of connection points: 2
#     Edge 36, Type (0, 0), BuildingBlock: UVAHIK_clean_linker_0, # of connection points: 2
#     Edge 37, Type (0, 0), BuildingBlock: UVAHIK_clean_linker_0, # of connection points: 2
#     Edge 38, Type (0, 0), BuildingBlock: UVAHIK_clean_linker_0, # of connection points: 2
#     Edge 39, Type (0, 0), BuildingBlock: UVAHIK_clean_linker_0, # of connection points: 2
#     Edge 40, Type (0, 0), BuildingBlock: UVAHIK_clean_linker_0, # of connection points: 2
#     Edge 41, Type (0, 0), BuildingBlock: UVAHIK_clean_linker_0, # of connection points: 2
#     Edge 42, Type (0, 0), BuildingBlock: UVAHIK_clean_linker_0, # of connection points: 2
#     Edge 43, Type (0, 0), BuildingBlock: UVAHIK_clean_linker_0, # of connection points: 2
#     Edge 44, Type (0, 0), BuildingBlock: UVAHIK_clean_linker_0, # of connection points: 2
#     Edge 45, Type (0, 0), BuildingBlock: UVAHIK_clean_linker_0, # of connection points: 2
#     Edge 46, Type (0, 0), BuildingBlock: UVAHIK_clean_linker_0, # of connection points: 2
#     Edge 47, Type (0, 0), BuildingBlock: UVAHIK_clean_linker_0, # of connection points: 2
#     Edge 48, Type (0, 0), BuildingBlock: UVAHIK_clean_linker_0, # of connection points: 2
#     Edge 49, Type (0, 0), BuildingBlock: UVAHIK_clean_linker_0, # of connection points: 2
#     Edge 50, Type (0, 0), BuildingBlock: UVAHIK_clean_linker_0, # of connection points: 2
#     Edge 51, Type (0, 0), BuildingBlock: UVAHIK_clean_linker_0, # of connection points: 2
#     Edge 52, Type (0, 0), BuildingBlock: UVAHIK_clean_linker_0, # of connection points: 2
#     Edge 53, Type (0, 0), BuildingBlock: UVAHIK_clean_linker_0, # of connection points: 2
#     Edge 54, Type (0, 0), BuildingBlock: UVAHIK_clean_linker_0, # of connection points: 2
#     Edge 55, Type (0, 0), BuildingBlock: UVAHIK_clean_linker_0, # of connection points: 2
#     Edge 56, Type (0, 0), BuildingBlock: UVAHIK_clean_linker_0, # of connection points: 2
#     Edge 57, Type (0, 0), BuildingBlock: UVAHIK_clean_linker_0, # of connection points: 2
#     Edge 58, Type (0, 0), BuildingBlock: UVAHIK_clean_linker_0, # of connection points: 2
#     Edge 59, Type (0, 0), BuildingBlock: UVAHIK_clean_linker_0, # of connection points: 2
#     Edge 60, Type (0, 0), BuildingBlock: UVAHIK_clean_linker_0, # of connection points: 2
#     Edge 61, Type (0, 0), BuildingBlock: UVAHIK_clean_linker_0, # of connection points: 2
#     Edge 62, Type (0, 0), BuildingBlock: UVAHIK_clean_linker_0, # of connection points: 2
#     Edge 63, Type (0, 0), BuildingBlock: UVAHIK_clean_linker_0, # of connection points: 2
#     Edge 64, Type (0, 0), BuildingBlock: UVAHIK_clean_linker_0, # of connection points: 2
#     Edge 65, Type (0, 0), BuildingBlock: UVAHIK_clean_linker_0, # of connection points: 2
#     Edge 66, Type (0, 0), BuildingBlock: UVAHIK_clean_linker_0, # of connection points: 2
#     Edge 67, Type (0, 0), BuildingBlock: UVAHIK_clean_linker_0, # of connection points: 2
#     Edge 68, Type (0, 0), BuildingBlock: UVAHIK_clean_linker_0, # of connection points: 2
#     Edge 69, Type (0, 0), BuildingBlock: UVAHIK_clean_linker_0, # of connection points: 2
#     Edge 70, Type (0, 0), BuildingBlock: UVAHIK_clean_linker_0, # of connection points: 2
#     Edge 71, Type (0, 0), BuildingBlock: UVAHIK_clean_linker_0, # of connection points: 2
#     Edge 72, Type (0, 0), BuildingBlock: UVAHIK_clean_linker_0, # of connection points: 2
#     Edge 73, Type (0, 0), BuildingBlock: UVAHIK_clean_linker_0, # of connection points: 2
#     Edge 74, Type (0, 0), BuildingBlock: UVAHIK_clean_linker_0, # of connection points: 2
#     Edge 75, Type (0, 0), BuildingBlock: UVAHIK_clean_linker_0, # of connection points: 2
#     Edge 76, Type (0, 0), BuildingBlock: UVAHIK_clean_linker_0, # of connection points: 2
#     Edge 77, Type (0, 0), BuildingBlock: UVAHIK_clean_linker_0, # of connection points: 2
#     Edge 78, Type (0, 0), BuildingBlock: UVAHIK_clean_linker_0, # of connection points: 2
#     Edge 79, Type (0, 0), BuildingBlock: UVAHIK_clean_linker_0, # of connection points: 2
#     Edge 80, Type (0, 0), BuildingBlock: UVAHIK_clean_linker_0, # of connection points: 2
#     Edge 81, Type (0, 0), BuildingBlock: UVAHIK_clean_linker_0, # of connection points: 2
#     Edge 82, Type (0, 0), BuildingBlock: UVAHIK_clean_linker_0, # of connection points: 2
#     Edge 83, Type (0, 0), BuildingBlock: UVAHIK_clean_linker_0, # of connection points: 2
#     Edge 84, Type (0, 0), BuildingBlock: UVAHIK_clean_linker_0, # of connection points: 2
#     Edge 85, Type (0, 0), BuildingBlock: UVAHIK_clean_linker_0, # of connection points: 2
#     Edge 86, Type (0, 0), BuildingBlock: UVAHIK_clean_linker_0, # of connection points: 2
#     Edge 87, Type (0, 0), BuildingBlock: UVAHIK_clean_linker_0, # of connection points: 2
#     Edge 88, Type (0, 0), BuildingBlock: UVAHIK_clean_linker_0, # of connection points: 2
#     Edge 89, Type (0, 0), BuildingBlock: UVAHIK_clean_linker_0, # of connection points: 2
#     Edge 90, Type (0, 0), BuildingBlock: UVAHIK_clean_linker_0, # of connection points: 2
#     Edge 91, Type (0, 0), BuildingBlock: UVAHIK_clean_linker_0, # of connection points: 2
#     Edge 92, Type (0, 0), BuildingBlock: UVAHIK_clean_linker_0, # of connection points: 2
#     Edge 93, Type (0, 0), BuildingBlock: UVAHIK_clean_linker_0, # of connection points: 2
#     Edge 94, Type (0, 0), BuildingBlock: UVAHIK_clean_linker_0, # of connection points: 2
#     Edge 95, Type (0, 0), BuildingBlock: UVAHIK_clean_linker_0, # of connection points: 2
# Relax obj value: 0.079
# Max RMSD: 0.062
# Mean RMSD: 0.062
data_MOF--net-umq--node1-CEKHIL_clean_sbu_0--edge1-UVAHIK_clean_linker_0
_symmetry_space_group_name_H-M    P1
_symmetry_Int_Tables_number       1
_symmetry_cell_setting            triclinic
loop_
_symmetry_equiv_pos_as_xyz
'x, y, z'
_cell_length_a     84.814334
_cell_length_b     84.805301
_cell_length_c     57.184405
_cell_angle_alpha  90.005569
_cell_angle_beta   89.986895
_cell_angle_gamma 89.997472
loop_
_atom_site_label
_atom_site_type_symbol
_atom_site_fract_x
_atom_site_fract_y
_atom_site_fract_z
_atom_type_partial_charge
Co0 Co 0.24047 0.09691 0.16389 0.0
O1 O 0.2291 0.07791 0.17177 0.0
O2 O 0.24864 0.08793 0.19264 0.0
C3 C 0.24433 0.09088 0.12574 0.0
O4 O 0.25546 0.11578 0.16094 0.0
Co5 Co 0.22754 0.12041 0.12655 0.0
O6 O 0.24866 0.13014 0.12944 0.0
C7 C 0.21342 0.11965 0.17392 0.0
C8 C 0.2384 0.07668 0.18968 0.0
C9 C 0.25796 0.12715 0.14639 0.0
O10 O 0.2243 0.11022 0.18134 0.0
O11 O 0.2121 0.12375 0.15246 0.0
O12 O 0.25364 0.0851 0.14162 0.0
O13 O 0.2325 0.09878 0.13358 0.0
Co14 Co 0.90881 0.24113 0.1635 0.0
O15 O 0.92773 0.23001 0.17229 0.0
O16 O 0.9174 0.24984 0.19221 0.0
C17 C 0.91549 0.24427 0.12548 0.0
O18 O 0.88988 0.25591 0.15937 0.0
Co19 Co 0.886 0.22733 0.126 0.0
O20 O 0.87653 0.24868 0.12712 0.0
C21 C 0.88679 0.21364 0.17362 0.0
C22 C 0.92872 0.23959 0.18989 0.0
C23 C 0.87906 0.25826 0.1439 0.0
O24 O 0.89545 0.22512 0.18109 0.0
O25 O 0.88313 0.21185 0.15205 0.0
O26 O 0.92083 0.25401 0.14114 0.0
O27 O 0.9075 0.23256 0.1335 0.0
Co28 Co 0.76455 0.90825 0.1629 0.0
O29 O 0.77596 0.92745 0.16911 0.0
O30 O 0.7572 0.91781 0.19179 0.0
C31 C 0.75977 0.91352 0.12474 0.0
O32 O 0.74955 0.88929 0.16155 0.0
Co33 Co 0.77679 0.88409 0.12592 0.0
O34 O 0.75568 0.87455 0.1301 0.0
C35 C 0.79188 0.88571 0.17254 0.0
C36 C 0.7672 0.9291 0.18755 0.0
C37 C 0.74674 0.87777 0.14739 0.0
O38 O 0.78118 0.89532 0.18005 0.0
O39 O 0.79275 0.88119 0.15122 0.0
O40 O 0.7508 0.91958 0.14083 0.0
O41 O 0.77179 0.90579 0.13231 0.0
Co42 Co 0.09677 0.7635 0.16264 0.0
O43 O 0.07803 0.77508 0.17113 0.0
O44 O 0.0878 0.75504 0.19122 0.0
C45 C 0.09028 0.76046 0.1245 0.0
O46 O 0.11534 0.74822 0.15901 0.0
Co47 Co 0.12027 0.77633 0.12525 0.0
O48 O 0.12965 0.75501 0.12746 0.0
C49 C 0.12013 0.78989 0.17307 0.0
C50 C 0.0767 0.7655 0.18871 0.0
C51 C 0.12657 0.74563 0.14428 0.0
O52 O 0.11045 0.77919 0.18038 0.0
O53 O 0.12418 0.7913 0.1516 0.0
O54 O 0.08459 0.75089 0.14012 0.0
O55 O 0.09856 0.77196 0.13259 0.0
Co56 Co 0.23984 0.90795 0.33885 0.0
O57 O 0.22864 0.92701 0.33094 0.0
O58 O 0.24828 0.91698 0.31028 0.0
C59 C 0.24344 0.91385 0.37709 0.0
O60 O 0.25467 0.88894 0.34205 0.0
Co61 Co 0.2262 0.88449 0.37566 0.0
O62 O 0.24749 0.87495 0.37373 0.0
C63 C 0.21219 0.88616 0.32838 0.0
C64 C 0.23805 0.92826 0.31315 0.0
C65 C 0.25703 0.87779 0.35701 0.0
O66 O 0.2237 0.89486 0.32107 0.0
O67 O 0.21047 0.8822 0.34984 0.0
O68 O 0.25292 0.9196 0.36141 0.0
O69 O 0.23159 0.90607 0.36899 0.0
Co70 Co 0.09725 0.24141 0.33914 0.0
O71 O 0.07807 0.23048 0.33106 0.0
O72 O 0.08843 0.25 0.31053 0.0
C73 C 0.09107 0.2449 0.3773 0.0
O74 O 0.11641 0.25597 0.3424 0.0
Co75 Co 0.12041 0.22767 0.37621 0.0
O76 O 0.13085 0.24848 0.37347 0.0
C77 C 0.11872 0.21352 0.32896 0.0
C78 C 0.07701 0.23993 0.31331 0.0
C79 C 0.12795 0.25803 0.3568 0.0
O80 O 0.11018 0.22509 0.32147 0.0
O81 O 0.12257 0.21184 0.35047 0.0
O82 O 0.08567 0.2546 0.36165 0.0
O83 O 0.09886 0.23305 0.36926 0.0
Co84 Co 0.76466 0.09729 0.33877 0.0
O85 O 0.77633 0.07846 0.33135 0.0
O86 O 0.75698 0.08808 0.30979 0.0
C87 C 0.76065 0.09116 0.37683 0.0
O88 O 0.74933 0.11594 0.34162 0.0
Co89 Co 0.7771 0.12093 0.37629 0.0
O90 O 0.75525 0.12907 0.37467 0.0
C91 C 0.79131 0.12061 0.32897 0.0
C92 C 0.76727 0.07693 0.31323 0.0
C93 C 0.74617 0.12641 0.35734 0.0
O94 O 0.78074 0.11082 0.32154 0.0
O95 O 0.7924 0.12487 0.35039 0.0
O96 O 0.75151 0.08528 0.36084 0.0
O97 O 0.77241 0.09926 0.36916 0.0
Co98 Co 0.9076 0.76322 0.33683 0.0
O99 O 0.9268 0.77423 0.32903 0.0
O100 O 0.91661 0.75474 0.30825 0.0
C101 C 0.91358 0.75966 0.37504 0.0
O102 O 0.88846 0.74858 0.33978 0.0
Co103 Co 0.8842 0.77681 0.37369 0.0
O104 O 0.87384 0.75599 0.37071 0.0
C105 C 0.88625 0.79117 0.32662 0.0
C106 C 0.92797 0.76485 0.3112 0.0
C107 C 0.87685 0.74646 0.35404 0.0
O108 O 0.89474 0.77957 0.31912 0.0
O109 O 0.88232 0.79279 0.34811 0.0
O110 O 0.91909 0.75 0.3594 0.0
O111 O 0.9058 0.77149 0.36695 0.0
Co112 Co 0.76449 0.90815 0.83876 0.0
O113 O 0.77552 0.92739 0.83137 0.0
O114 O 0.75629 0.91718 0.81006 0.0
C115 C 0.76023 0.91374 0.87693 0.0
O116 O 0.74993 0.88895 0.84132 0.0
Co117 Co 0.77817 0.88471 0.87555 0.0
O118 O 0.75736 0.87435 0.87229 0.0
C119 C 0.79247 0.88666 0.82852 0.0
C120 C 0.76633 0.92857 0.81333 0.0
C121 C 0.74786 0.87733 0.85558 0.0
O122 O 0.78097 0.89535 0.8212 0.0
O123 O 0.79411 0.88262 0.84996 0.0
O124 O 0.75094 0.91949 0.86101 0.0
O125 O 0.77234 0.90622 0.86913 0.0
Co126 Co 0.09576 0.76258 0.83659 0.0
O127 O 0.07653 0.77353 0.82887 0.0
O128 O 0.08651 0.75379 0.80837 0.0
C129 C 0.09014 0.75939 0.87499 0.0
O130 O 0.11495 0.74805 0.83966 0.0
Co131 Co 0.11932 0.77699 0.87259 0.0
O132 O 0.12991 0.75623 0.86981 0.0
C133 C 0.1168 0.79056 0.82519 0.0
C134 C 0.07519 0.76397 0.81129 0.0
C135 C 0.12677 0.74635 0.85364 0.0
O136 O 0.10852 0.77866 0.81823 0.0
O137 O 0.12069 0.79273 0.84658 0.0
O138 O 0.08445 0.74961 0.85967 0.0
O139 O 0.09777 0.77119 0.86647 0.0
Co140 Co 0.24111 0.09729 0.83911 0.0
O141 O 0.22995 0.07823 0.83107 0.0
O142 O 0.24952 0.0884 0.81042 0.0
C143 C 0.24483 0.09126 0.87728 0.0
O144 O 0.2559 0.11631 0.84242 0.0
Co145 Co 0.2275 0.12058 0.8762 0.0
O146 O 0.24879 0.13011 0.87433 0.0
C147 C 0.21347 0.11919 0.82891 0.0
C148 C 0.23933 0.07708 0.81324 0.0
C149 C 0.25829 0.12738 0.85752 0.0
O150 O 0.22491 0.11044 0.82151 0.0
O151 O 0.2118 0.1231 0.8504 0.0
O152 O 0.25427 0.08558 0.86149 0.0
O153 O 0.23294 0.09903 0.86932 0.0
Co154 Co 0.90756 0.24117 0.83859 0.0
O155 O 0.92636 0.22964 0.83032 0.0
O156 O 0.91648 0.24944 0.80984 0.0
C157 C 0.91407 0.24456 0.87664 0.0
O158 O 0.88887 0.25633 0.84197 0.0
Co159 Co 0.88419 0.22835 0.87608 0.0
O160 O 0.87455 0.24954 0.8735 0.0
C161 C 0.88458 0.2144 0.82856 0.0
C162 C 0.92762 0.23905 0.81253 0.0
C163 C 0.87757 0.25887 0.85661 0.0
O164 O 0.89403 0.22526 0.82112 0.0
O165 O 0.88056 0.21303 0.85005 0.0
O166 O 0.91965 0.25405 0.86085 0.0
O167 O 0.90587 0.23293 0.86878 0.0
Co168 Co 0.76484 0.09641 0.66287 0.0
O169 O 0.77606 0.07749 0.67148 0.0
O170 O 0.75637 0.08786 0.69171 0.0
C171 C 0.76125 0.08993 0.62488 0.0
O172 O 0.74996 0.11527 0.65898 0.0
Co173 Co 0.77835 0.11937 0.62531 0.0
O174 O 0.75685 0.12848 0.62643 0.0
C175 C 0.79227 0.11863 0.67272 0.0
C176 C 0.7666 0.07654 0.68925 0.0
C177 C 0.74738 0.12593 0.64334 0.0
O178 O 0.78092 0.10981 0.68024 0.0
O179 O 0.79393 0.12238 0.65117 0.0
O180 O 0.7518 0.08437 0.64075 0.0
O181 O 0.77309 0.09785 0.63269 0.0
Co182 Co 0.90695 0.76373 0.66194 0.0
O183 O 0.92568 0.77495 0.67139 0.0
O184 O 0.91527 0.75488 0.6907 0.0
C185 C 0.9141 0.76089 0.62405 0.0
O186 O 0.88824 0.74876 0.65718 0.0
Co187 Co 0.88433 0.77723 0.62398 0.0
O188 O 0.8754 0.75565 0.62435 0.0
C189 C 0.88371 0.7903 0.67209 0.0
C190 C 0.92656 0.7652 0.68882 0.0
C191 C 0.87777 0.74616 0.64128 0.0
O192 O 0.89319 0.77945 0.67946 0.0
O193 O 0.87995 0.79193 0.65054 0.0
O194 O 0.91935 0.75112 0.63973 0.0
O195 O 0.90586 0.77247 0.63198 0.0
Co196 Co 0.24067 0.90845 0.66425 0.0
O197 O 0.22894 0.92699 0.67323 0.0
O198 O 0.24927 0.91735 0.6928 0.0
C199 C 0.24345 0.91513 0.6261 0.0
O200 O 0.25611 0.89005 0.66 0.0
Co201 Co 0.22775 0.88514 0.62653 0.0
O202 O 0.24928 0.8762 0.62802 0.0
C203 C 0.2152 0.88408 0.67496 0.0
C204 C 0.23867 0.92835 0.69062 0.0
C205 C 0.25871 0.87908 0.64484 0.0
O206 O 0.22539 0.89435 0.68212 0.0
O207 O 0.21368 0.8801 0.65349 0.0
O208 O 0.25297 0.92094 0.64168 0.0
O209 O 0.23205 0.90677 0.63428 0.0
Co210 Co 0.09616 0.24082 0.66412 0.0
O211 O 0.07791 0.22876 0.67338 0.0
O212 O 0.08737 0.2492 0.69287 0.0
C213 C 0.08897 0.24345 0.62623 0.0
O214 O 0.11416 0.25666 0.65958 0.0
Co215 Co 0.1195 0.22865 0.62615 0.0
O216 O 0.12668 0.25088 0.626 0.0
C217 C 0.12051 0.21527 0.67409 0.0
C218 C 0.07653 0.23844 0.69083 0.0
C219 C 0.12404 0.26008 0.6432 0.0
O220 O 0.11054 0.22565 0.68156 0.0
O221 O 0.12445 0.214 0.65254 0.0
O222 O 0.08326 0.25293 0.64193 0.0
O223 O 0.09773 0.23224 0.63412 0.0
Co224 Co 0.74044 0.59709 0.66249 0.0
O225 O 0.72952 0.57799 0.671 0.0
O226 O 0.74944 0.58828 0.6908 0.0
C227 C 0.74352 0.59116 0.6242 0.0
O228 O 0.755 0.61616 0.65848 0.0
Co229 Co 0.72566 0.62028 0.6263 0.0
O230 O 0.74695 0.62996 0.62706 0.0
C231 C 0.71264 0.61837 0.67404 0.0
C232 C 0.73923 0.57694 0.68845 0.0
C233 C 0.75692 0.62723 0.64326 0.0
O234 O 0.72459 0.61013 0.68085 0.0
O235 O 0.71021 0.6221 0.65265 0.0
O236 O 0.75323 0.58548 0.6396 0.0
O237 O 0.73167 0.59879 0.63265 0.0
Co238 Co 0.4078 0.74233 0.66391 0.0
O239 O 0.42705 0.73153 0.6719 0.0
O240 O 0.41688 0.75138 0.69199 0.0
C241 C 0.41341 0.74529 0.62549 0.0
O242 O 0.38863 0.75679 0.66058 0.0
Co243 Co 0.38422 0.72764 0.62829 0.0
O244 O 0.37369 0.74847 0.63051 0.0
C245 C 0.38701 0.71431 0.67576 0.0
C246 C 0.42826 0.74124 0.68933 0.0
C247 C 0.37687 0.75847 0.64649 0.0
O248 O 0.39509 0.72637 0.68255 0.0
O249 O 0.38312 0.71194 0.65441 0.0
O250 O 0.41907 0.75517 0.64069 0.0
O251 O 0.40582 0.73349 0.63414 0.0
Co252 Co 0.2634 0.4071 0.66336 0.0
O253 O 0.27554 0.42537 0.67243 0.0
O254 O 0.25499 0.41612 0.6919 0.0
C255 C 0.26085 0.41388 0.62526 0.0
O256 O 0.24742 0.38918 0.65907 0.0
Co257 Co 0.27536 0.3833 0.62578 0.0
O258 O 0.25304 0.37646 0.6256 0.0
C259 C 0.28851 0.38237 0.67388 0.0
C260 C 0.2658 0.4269 0.68979 0.0
C261 C 0.24388 0.37928 0.64277 0.0
O262 O 0.27842 0.39271 0.68114 0.0
O263 O 0.2897 0.37818 0.65244 0.0
O264 O 0.25146 0.41991 0.64082 0.0
O265 O 0.27199 0.40515 0.63342 0.0
Co266 Co 0.59766 0.26275 0.66379 0.0
O267 O 0.57919 0.27435 0.6734 0.0
O268 O 0.58916 0.254 0.69252 0.0
C269 C 0.59032 0.26024 0.62592 0.0
O270 O 0.61603 0.24736 0.65888 0.0
Co271 Co 0.62049 0.27569 0.62564 0.0
O272 O 0.62879 0.25388 0.6258 0.0
C273 C 0.62164 0.28863 0.67387 0.0
C274 C 0.57809 0.26455 0.69074 0.0
C275 C 0.62632 0.24448 0.64281 0.0
O276 O 0.61181 0.27812 0.68131 0.0
O277 O 0.62542 0.29013 0.65229 0.0
O278 O 0.58492 0.25051 0.64152 0.0
O279 O 0.59888 0.27157 0.6339 0.0
Co280 Co 0.74114 0.40834 0.83751 0.0
O281 O 0.73003 0.42753 0.83 0.0
O282 O 0.74947 0.41745 0.80895 0.0
C283 C 0.74504 0.41394 0.87576 0.0
O284 O 0.75582 0.38925 0.84021 0.0
Co285 Co 0.72747 0.38475 0.87412 0.0
O286 O 0.74838 0.37453 0.87104 0.0
C287 C 0.71326 0.38684 0.82706 0.0
C288 C 0.73935 0.42878 0.81211 0.0
C289 C 0.75794 0.37763 0.85444 0.0
O290 O 0.72483 0.39545 0.81975 0.0
O291 O 0.71154 0.38285 0.8485 0.0
O292 O 0.75444 0.41976 0.86002 0.0
O293 O 0.73307 0.40632 0.86773 0.0
Co294 Co 0.59708 0.74233 0.83765 0.0
O295 O 0.57783 0.73152 0.82971 0.0
O296 O 0.58797 0.75135 0.80955 0.0
C297 C 0.59146 0.74535 0.87608 0.0
O298 O 0.6163 0.75673 0.84097 0.0
Co299 Co 0.62058 0.72749 0.87327 0.0
O300 O 0.63129 0.74822 0.87088 0.0
C301 C 0.61788 0.71431 0.8257 0.0
C302 C 0.57661 0.74119 0.81224 0.0
C303 C 0.62814 0.75826 0.85494 0.0
O304 O 0.60976 0.72637 0.819 0.0
O305 O 0.62176 0.71187 0.84703 0.0
O306 O 0.58583 0.75521 0.86084 0.0
O307 O 0.59902 0.73351 0.86746 0.0
Co308 Co 0.26356 0.59667 0.83648 0.0
O309 O 0.27464 0.57743 0.82926 0.0
O310 O 0.25504 0.5872 0.80826 0.0
C311 C 0.25993 0.59153 0.87493 0.0
O312 O 0.24893 0.61584 0.83904 0.0
Co313 Co 0.27788 0.6206 0.87205 0.0
O314 O 0.25705 0.63102 0.869 0.0
C315 C 0.29162 0.61757 0.82492 0.0
C316 C 0.26525 0.57595 0.8115 0.0
C317 C 0.24718 0.62773 0.85289 0.0
O318 O 0.27968 0.60934 0.81806 0.0
O319 O 0.29381 0.62161 0.84625 0.0
O320 O 0.25043 0.58552 0.8595 0.0
O321 O 0.27187 0.59901 0.8665 0.0
Co322 Co 0.40874 0.2636 0.83822 0.0
O323 O 0.42781 0.27466 0.82996 0.0
O324 O 0.41781 0.25473 0.80992 0.0
C325 C 0.41476 0.26066 0.87653 0.0
O326 O 0.38971 0.24887 0.84189 0.0
Co327 Co 0.38537 0.27776 0.87472 0.0
O328 O 0.37572 0.2565 0.87334 0.0
C329 C 0.38711 0.29119 0.82705 0.0
C330 C 0.42909 0.26498 0.81251 0.0
C331 C 0.37854 0.24674 0.85689 0.0
O332 O 0.39567 0.27951 0.81997 0.0
O333 O 0.38325 0.29322 0.84849 0.0
O334 O 0.42038 0.25084 0.8612 0.0
O335 O 0.40693 0.27234 0.86804 0.0
Co336 Co 0.26381 0.40836 0.33762 0.0
O337 O 0.27468 0.42767 0.33005 0.0
O338 O 0.25506 0.41758 0.3094 0.0
C339 C 0.26033 0.41366 0.37606 0.0
O340 O 0.24938 0.38908 0.34055 0.0
Co341 Co 0.2785 0.38473 0.3733 0.0
O342 O 0.25774 0.37413 0.37062 0.0
C343 C 0.29198 0.38762 0.32599 0.0
C344 C 0.26519 0.42894 0.31237 0.0
C345 C 0.24778 0.37726 0.35456 0.0
O346 O 0.27995 0.39574 0.31917 0.0
O347 O 0.29431 0.3837 0.34733 0.0
O348 O 0.2507 0.41951 0.36066 0.0
O349 O 0.27229 0.40624 0.36758 0.0
Co350 Co 0.59718 0.26387 0.33893 0.0
O351 O 0.57835 0.27514 0.33004 0.0
O352 O 0.5886 0.25521 0.31024 0.0
C353 C 0.59038 0.26083 0.37694 0.0
O354 O 0.61591 0.24886 0.34303 0.0
Co355 Co 0.62019 0.27714 0.3765 0.0
O356 O 0.62928 0.25563 0.37544 0.0
C357 C 0.61969 0.29096 0.3289 0.0
C358 C 0.57733 0.26551 0.31248 0.0
C359 C 0.62663 0.2462 0.35852 0.0
O360 O 0.61072 0.27973 0.32138 0.0
O361 O 0.62345 0.29257 0.35046 0.0
O362 O 0.58499 0.25114 0.36127 0.0
O363 O 0.59857 0.27243 0.36896 0.0
Co364 Co 0.74059 0.59637 0.33673 0.0
O365 O 0.72964 0.57703 0.32954 0.0
O366 O 0.74904 0.58703 0.30838 0.0
C367 C 0.7444 0.59112 0.37513 0.0
O368 O 0.75515 0.61562 0.33915 0.0
Co369 Co 0.7267 0.62017 0.37291 0.0
O370 O 0.74753 0.63052 0.36969 0.0
C371 C 0.71244 0.61737 0.32596 0.0
C372 C 0.73898 0.57567 0.31169 0.0
C373 C 0.75714 0.62738 0.35318 0.0
O374 O 0.72419 0.60897 0.3187 0.0
O375 O 0.71068 0.62146 0.34735 0.0
O376 O 0.75392 0.58525 0.35959 0.0
O377 O 0.73243 0.59859 0.36684 0.0
Co378 Co 0.40753 0.74159 0.33756 0.0
O379 O 0.4266 0.73054 0.32918 0.0
O380 O 0.41641 0.75034 0.30906 0.0
C381 C 0.41376 0.74469 0.37577 0.0
O382 O 0.38848 0.7563 0.34126 0.0
Co383 Co 0.38434 0.72766 0.3745 0.0
O384 O 0.37466 0.74889 0.37298 0.0
C385 C 0.38591 0.71389 0.32699 0.0
C386 C 0.42773 0.74012 0.31159 0.0
C387 C 0.37738 0.75853 0.35635 0.0
O388 O 0.39443 0.72552 0.31965 0.0
O389 O 0.38211 0.71204 0.34849 0.0
O390 O 0.41925 0.75447 0.36029 0.0
O391 O 0.40589 0.73298 0.36748 0.0
Co392 Co 0.26392 0.59714 0.16219 0.0
O393 O 0.27553 0.57836 0.17047 0.0
O394 O 0.25559 0.58812 0.19079 0.0
C395 C 0.2606 0.59091 0.12398 0.0
O396 O 0.2486 0.6157 0.15883 0.0
Co397 Co 0.2766 0.6208 0.12485 0.0
O398 O 0.25525 0.63007 0.12728 0.0
C399 C 0.29028 0.62057 0.17256 0.0
C400 C 0.26603 0.57703 0.18815 0.0
C401 C 0.24594 0.62694 0.14415 0.0
O402 O 0.27966 0.6108 0.17988 0.0
O403 O 0.29162 0.62467 0.15111 0.0
O404 O 0.25121 0.58502 0.13967 0.0
O405 O 0.27218 0.59908 0.13205 0.0
Co406 Co 0.40812 0.26287 0.16488 0.0
O407 O 0.42732 0.27388 0.17246 0.0
O408 O 0.41753 0.25402 0.19292 0.0
C409 C 0.41351 0.25981 0.12639 0.0
O410 O 0.389 0.24826 0.16193 0.0
Co411 Co 0.38426 0.27736 0.12944 0.0
O412 O 0.37379 0.25653 0.13211 0.0
C413 C 0.38727 0.29083 0.17679 0.0
C414 C 0.42877 0.26428 0.18998 0.0
C415 C 0.37711 0.24656 0.14808 0.0
O416 O 0.39542 0.27881 0.18357 0.0
O417 O 0.38329 0.29314 0.15547 0.0
O418 O 0.41934 0.25002 0.14158 0.0
O419 O 0.40589 0.27157 0.13508 0.0
Co420 Co 0.74113 0.40717 0.1623 0.0
O421 O 0.72974 0.42601 0.17087 0.0
O422 O 0.74955 0.4159 0.19106 0.0
C423 C 0.74457 0.41363 0.12423 0.0
O424 O 0.75619 0.38842 0.15848 0.0
Co425 Co 0.72793 0.38399 0.12477 0.0
O426 O 0.74949 0.37507 0.12598 0.0
C427 C 0.71427 0.38423 0.17244 0.0
C428 C 0.73923 0.42712 0.18859 0.0
C429 C 0.75888 0.3777 0.14294 0.0
O430 O 0.72521 0.39362 0.17979 0.0
O431 O 0.71277 0.38027 0.15095 0.0
O432 O 0.75401 0.41929 0.14004 0.0
O433 O 0.73284 0.40559 0.13213 0.0
Co434 Co 0.59698 0.74192 0.16387 0.0
O435 O 0.57823 0.73026 0.17213 0.0
O436 O 0.58785 0.75026 0.19242 0.0
C437 C 0.59056 0.74498 0.12568 0.0
O438 O 0.6155 0.7573 0.16054 0.0
Co439 Co 0.62067 0.7295 0.12641 0.0
O440 O 0.62998 0.75081 0.12903 0.0
C441 C 0.62048 0.71567 0.17411 0.0
C442 C 0.57678 0.73979 0.18975 0.0
C443 C 0.6268 0.76004 0.14599 0.0
O444 O 0.61066 0.72621 0.18156 0.0
O445 O 0.6246 0.71446 0.15264 0.0
O446 O 0.58481 0.75453 0.14127 0.0
O447 O 0.59891 0.73355 0.13379 0.0
C448 C 0.35195 0.23251 0.13873 0.0
C449 C 0.36625 0.23293 0.15118 0.0
C450 C 0.34126 0.22023 0.14196 0.0
C451 C 0.33685 0.17919 0.16043 0.0
H452 H 0.29275 0.19106 0.16406 0.0
C453 C 0.28366 0.13462 0.1661 0.0
C454 C 0.27161 0.13792 0.14987 0.0
C455 C 0.2961 0.14534 0.16952 0.0
C456 C 0.30502 0.18754 0.1631 0.0
H457 H 0.38059 0.22041 0.17652 0.0
H458 H 0.36177 0.19869 0.182 0.0
H459 H 0.31297 0.21143 0.16434 0.0
H460 H 0.26341 0.15507 0.12437 0.0
H461 H 0.28478 0.17353 0.13048 0.0
H462 H 0.32868 0.15521 0.15859 0.0
C463 C 0.35894 0.20804 0.16979 0.0
C464 C 0.3166 0.19921 0.16324 0.0
C465 C 0.36968 0.22049 0.1667 0.0
C466 C 0.27241 0.15206 0.13705 0.0
C467 C 0.28464 0.16275 0.14065 0.0
C468 C 0.32518 0.16743 0.16033 0.0
C469 C 0.34451 0.20792 0.15767 0.0
C470 C 0.33262 0.19523 0.16111 0.0
C471 C 0.29654 0.15963 0.15705 0.0
C472 C 0.30912 0.17156 0.16088 0.0
H473 H 0.34885 0.24179 0.12657 0.0
H474 H 0.33039 0.22035 0.13202 0.0
H475 H 0.34911 0.17577 0.15878 0.0
H476 H 0.28345 0.12382 0.17621 0.0
H477 H 0.30516 0.14263 0.18225 0.0
C478 C 0.86866 0.28214 0.16561 0.0
C479 C 0.86844 0.27218 0.1459 0.0
C480 C 0.85768 0.29448 0.16778 0.0
C481 C 0.81815 0.30558 0.14655 0.0
H482 H 0.82862 0.34829 0.16515 0.0
C483 C 0.77625 0.35631 0.12733 0.0
C484 C 0.77293 0.36728 0.14513 0.0
C485 C 0.78852 0.3455 0.12971 0.0
C486 C 0.8255 0.33636 0.16023 0.0
H487 H 0.8569 0.26797 0.11255 0.0
H488 H 0.83807 0.28926 0.11632 0.0
H489 H 0.84914 0.32782 0.16529 0.0
H490 H 0.7805 0.37581 0.17909 0.0
H491 H 0.80214 0.35676 0.18321 0.0
H492 H 0.79469 0.31398 0.14113 0.0
C493 C 0.84646 0.2874 0.13034 0.0
C494 C 0.83723 0.32466 0.16032 0.0
C495 C 0.85736 0.2752 0.12815 0.0
C496 C 0.78268 0.36751 0.16507 0.0
C497 C 0.79509 0.35663 0.16742 0.0
C498 C 0.80652 0.3172 0.14645 0.0
C499 C 0.84625 0.29701 0.15035 0.0
C500 C 0.83374 0.30922 0.15286 0.0
C501 C 0.79789 0.34529 0.14995 0.0
C502 C 0.81011 0.33281 0.15268 0.0
H503 H 0.87704 0.2802 0.17959 0.0
H504 H 0.85782 0.3017 0.1834 0.0
H505 H 0.81496 0.29373 0.14132 0.0
H506 H 0.7692 0.35585 0.11155 0.0
H507 H 0.7906 0.33717 0.11568 0.0
C508 C 0.65162 0.77478 0.1371 0.0
C509 C 0.63739 0.77381 0.14967 0.0
C510 C 0.66225 0.787 0.14117 0.0
C511 C 0.667 0.82729 0.16129 0.0
H512 H 0.71073 0.81453 0.16742 0.0
C513 C 0.72092 0.87097 0.16738 0.0
C514 C 0.73308 0.86713 0.15157 0.0
C515 C 0.70829 0.8605 0.17105 0.0
C516 C 0.69857 0.81831 0.1658 0.0
H517 H 0.62303 0.78539 0.17598 0.0
H518 H 0.64172 0.80711 0.18279 0.0
H519 H 0.69009 0.79457 0.16663 0.0
H520 H 0.74134 0.84923 0.12727 0.0
H521 H 0.71966 0.83125 0.13378 0.0
H522 H 0.67571 0.85109 0.15954 0.0
C523 C 0.64455 0.79817 0.16993 0.0
C524 C 0.68676 0.80688 0.16536 0.0
C525 C 0.6339 0.78573 0.16605 0.0
C526 C 0.73226 0.85267 0.13958 0.0
C527 C 0.71985 0.84224 0.14342 0.0
C528 C 0.67891 0.83881 0.16168 0.0
C529 C 0.65896 0.79873 0.15778 0.0
C530 C 0.67091 0.81118 0.16227 0.0
C531 C 0.70777 0.84593 0.15929 0.0
C532 C 0.69486 0.83435 0.16309 0.0
H533 H 0.65478 0.76589 0.12433 0.0
H534 H 0.67314 0.78725 0.13128 0.0
H535 H 0.65486 0.83092 0.15889 0.0
H536 H 0.72115 0.88203 0.17683 0.0
H537 H 0.6991 0.86366 0.18335 0.0
C538 C 0.23111 0.65161 0.13473 0.0
C539 C 0.23208 0.63746 0.14749 0.0
C540 C 0.21872 0.66211 0.13832 0.0
C541 C 0.1781 0.66632 0.15769 0.0
H542 H 0.18996 0.7104 0.1622 0.0
C543 C 0.1337 0.71972 0.16364 0.0
C544 C 0.13714 0.73181 0.14752 0.0
C545 C 0.1443 0.70718 0.16702 0.0
C546 C 0.18644 0.69814 0.16102 0.0
H547 H 0.22035 0.62312 0.17367 0.0
H548 H 0.19836 0.6416 0.17968 0.0
H549 H 0.21033 0.69016 0.16223 0.0
H550 H 0.15439 0.73993 0.1221 0.0
H551 H 0.17266 0.71838 0.12815 0.0
H552 H 0.15413 0.67452 0.15574 0.0
C553 C 0.20741 0.64446 0.16702 0.0
C554 C 0.1981 0.68656 0.16104 0.0
C555 C 0.22002 0.63393 0.16361 0.0
C556 C 0.15128 0.73091 0.1347 0.0
C557 C 0.16185 0.71858 0.13826 0.0
C558 C 0.16635 0.678 0.15768 0.0
C559 C 0.20683 0.65878 0.15465 0.0
C560 C 0.19413 0.67057 0.15855 0.0
C561 C 0.15861 0.70667 0.15461 0.0
C562 C 0.17048 0.69405 0.15852 0.0
H563 H 0.24011 0.65479 0.12214 0.0
H564 H 0.21846 0.67292 0.12823 0.0
H565 H 0.17471 0.65408 0.15576 0.0
H566 H 0.1229 0.72 0.17374 0.0
H567 H 0.1415 0.69811 0.17969 0.0
C568 C 0.27361 0.85538 0.37136 0.0
C569 C 0.27092 0.86717 0.35451 0.0
C570 C 0.28585 0.84456 0.36872 0.0
C571 C 0.32381 0.83665 0.34017 0.0
H572 H 0.31283 0.79337 0.35489 0.0
C573 C 0.36749 0.78274 0.33484 0.0
C574 C 0.36665 0.77236 0.35404 0.0
C575 C 0.35649 0.79504 0.33237 0.0
C576 C 0.31613 0.8054 0.3508 0.0
H577 H 0.27957 0.87709 0.32197 0.0
H578 H 0.30118 0.85802 0.3174 0.0
H579 H 0.29246 0.81353 0.35496 0.0
H580 H 0.3539 0.76734 0.38617 0.0
H581 H 0.33503 0.78853 0.38185 0.0
H582 H 0.34765 0.82836 0.33641 0.0
C583 C 0.29363 0.85726 0.33265 0.0
C584 C 0.30445 0.81697 0.35084 0.0
C585 C 0.28124 0.86814 0.33525 0.0
C586 C 0.35488 0.7749 0.37098 0.0
C587 C 0.34395 0.78705 0.36847 0.0
C588 C 0.33559 0.82499 0.34012 0.0
C589 C 0.29585 0.84516 0.34916 0.0
C590 C 0.30818 0.8328 0.34619 0.0
C591 C 0.3444 0.7971 0.34897 0.0
C592 C 0.33192 0.80931 0.34611 0.0
H593 H 0.2661 0.85429 0.3866 0.0
H594 H 0.28744 0.83563 0.38205 0.0
H595 H 0.32704 0.84875 0.33649 0.0
H596 H 0.37641 0.78118 0.32149 0.0
H597 H 0.35714 0.80262 0.31716 0.0
C598 C 0.23378 0.35219 0.36467 0.0
C599 C 0.23424 0.36625 0.35163 0.0
C600 C 0.22157 0.34138 0.3617 0.0
C601 C 0.18068 0.3365 0.34252 0.0
H602 H 0.19259 0.29235 0.34129 0.0
C603 C 0.13592 0.28362 0.33719 0.0
C604 C 0.13894 0.27154 0.35351 0.0
C605 C 0.1468 0.29593 0.33393 0.0
C606 C 0.18905 0.30462 0.34163 0.0
H607 H 0.22184 0.38004 0.32548 0.0
H608 H 0.20027 0.36101 0.32044 0.0
H609 H 0.21296 0.31256 0.34082 0.0
H610 H 0.15578 0.26318 0.37934 0.0
H611 H 0.17451 0.28436 0.37356 0.0
H612 H 0.15668 0.32838 0.34386 0.0
C613 C 0.20953 0.35846 0.33292 0.0
C614 C 0.20073 0.3162 0.34137 0.0
C615 C 0.22191 0.36931 0.33577 0.0
C616 C 0.15298 0.27219 0.36657 0.0
C617 C 0.16383 0.28431 0.36316 0.0
C618 C 0.16893 0.32483 0.34275 0.0
C619 C 0.20937 0.34426 0.34567 0.0
C620 C 0.19673 0.33227 0.34256 0.0
C621 C 0.16099 0.29625 0.34668 0.0
C622 C 0.17304 0.30876 0.34305 0.0
H623 H 0.24298 0.34936 0.37712 0.0
H624 H 0.22166 0.33071 0.37212 0.0
H625 H 0.17724 0.34878 0.34345 0.0
H626 H 0.12521 0.28353 0.32688 0.0
H627 H 0.14429 0.30499 0.32111 0.0
C628 C 0.72302 0.13725 0.33434 0.0
C629 C 0.73192 0.13655 0.35511 0.0
C630 C 0.71056 0.1481 0.33211 0.0
C631 C 0.69832 0.18637 0.35607 0.0
H632 H 0.65627 0.17697 0.33343 0.0
C633 C 0.64751 0.22835 0.37447 0.0
C634 C 0.637 0.23213 0.35629 0.0
C635 C 0.65826 0.21603 0.37207 0.0
C636 C 0.66803 0.1798 0.3395 0.0
H637 H 0.73396 0.14607 0.39027 0.0
H638 H 0.71252 0.1647 0.38634 0.0
H639 H 0.67666 0.15634 0.33295 0.0
H640 H 0.6292 0.22533 0.32159 0.0
H641 H 0.64819 0.20367 0.31738 0.0
H642 H 0.6899 0.20965 0.36284 0.0
C643 C 0.71531 0.15717 0.3716 0.0
C644 C 0.67968 0.16801 0.33921 0.0
C645 C 0.72762 0.14641 0.37384 0.0
C646 C 0.63715 0.22278 0.33592 0.0
C647 C 0.648 0.21036 0.33351 0.0
C648 C 0.68679 0.19807 0.35631 0.0
C649 C 0.70687 0.15845 0.35057 0.0
C650 C 0.69483 0.1711 0.34811 0.0
C651 C 0.65891 0.20709 0.3514 0.0
C652 C 0.67138 0.19485 0.34865 0.0
H653 H 0.72596 0.1298 0.3196 0.0
H654 H 0.70421 0.1488 0.31572 0.0
H655 H 0.70999 0.18924 0.36249 0.0
H656 H 0.64764 0.23508 0.39057 0.0
H657 H 0.66622 0.21358 0.38643 0.0
C658 C 0.77129 0.65249 0.36251 0.0
C659 C 0.77069 0.6383 0.34976 0.0
C660 C 0.78352 0.66322 0.35917 0.0
C661 C 0.82433 0.66782 0.33985 0.0
H662 H 0.81245 0.71196 0.33747 0.0
C663 C 0.8691 0.72079 0.33444 0.0
C664 C 0.86592 0.73292 0.35061 0.0
C665 C 0.85827 0.70843 0.3311 0.0
C666 C 0.81598 0.69969 0.33811 0.0
H667 H 0.78288 0.62422 0.32374 0.0
H668 H 0.80454 0.64312 0.31808 0.0
H669 H 0.79207 0.69175 0.3372 0.0
H670 H 0.84884 0.74133 0.37608 0.0
H671 H 0.83022 0.72008 0.37015 0.0
H672 H 0.84833 0.67596 0.34137 0.0
C673 C 0.79534 0.64582 0.3306 0.0
C674 C 0.80431 0.68811 0.33796 0.0
C675 C 0.78292 0.63505 0.3338 0.0
C676 C 0.85177 0.73228 0.36344 0.0
C677 C 0.84098 0.72011 0.35993 0.0
C678 C 0.83609 0.67949 0.33999 0.0
C679 C 0.79562 0.66013 0.34306 0.0
C680 C 0.80829 0.67206 0.3396 0.0
C681 C 0.84399 0.70812 0.3436 0.0
C682 C 0.83198 0.69557 0.33989 0.0
H683 H 0.76217 0.65547 0.37501 0.0
H684 H 0.78352 0.67399 0.36937 0.0
H685 H 0.82776 0.65555 0.34114 0.0
H686 H 0.87989 0.72087 0.32432 0.0
H687 H 0.86091 0.69933 0.3184 0.0
C688 C 0.73382 0.85218 0.86486 0.0
C689 C 0.73435 0.86637 0.85216 0.0
C690 C 0.72162 0.84142 0.86149 0.0
C691 C 0.68081 0.83684 0.84238 0.0
H692 H 0.6927 0.79272 0.83935 0.0
C693 C 0.63593 0.78419 0.8363 0.0
C694 C 0.63914 0.77178 0.85198 0.0
C695 C 0.64681 0.79652 0.83324 0.0
C696 C 0.68917 0.80498 0.8402 0.0
H697 H 0.72213 0.88047 0.8262 0.0
H698 H 0.70052 0.86153 0.8205 0.0
H699 H 0.71308 0.81294 0.83924 0.0
H700 H 0.65628 0.76286 0.87694 0.0
H701 H 0.67499 0.78411 0.87154 0.0
H702 H 0.65683 0.8287 0.84396 0.0
C703 C 0.70973 0.85883 0.833 0.0
C704 C 0.70084 0.81656 0.84012 0.0
C705 C 0.72212 0.86963 0.83621 0.0
C706 C 0.65335 0.77213 0.86465 0.0
C707 C 0.66419 0.78429 0.86145 0.0
C708 C 0.66906 0.82518 0.84246 0.0
C709 C 0.7095 0.84451 0.84542 0.0
C710 C 0.69685 0.83259 0.84196 0.0
C711 C 0.66116 0.79655 0.84557 0.0
C712 C 0.67318 0.8091 0.84212 0.0
H713 H 0.74295 0.8492 0.87733 0.0
H714 H 0.72164 0.83063 0.87164 0.0
H715 H 0.67739 0.84911 0.84384 0.0
H716 H 0.62509 0.78434 0.8263 0.0
H717 H 0.64415 0.80583 0.82089 0.0
C718 C 0.13463 0.72049 0.8347 0.0
C719 C 0.1378 0.73286 0.85047 0.0
C720 C 0.14555 0.70819 0.83154 0.0
C721 C 0.18797 0.69985 0.83837 0.0
H722 H 0.17642 0.65567 0.84201 0.0
C723 C 0.23311 0.65288 0.86232 0.0
C724 C 0.23358 0.63863 0.84972 0.0
C725 C 0.22082 0.66358 0.85915 0.0
C726 C 0.17979 0.66795 0.84056 0.0
H727 H 0.15496 0.74174 0.87545 0.0
H728 H 0.17373 0.72058 0.86987 0.0
H729 H 0.15576 0.67597 0.8422 0.0
H730 H 0.22113 0.6244 0.82417 0.0
H731 H 0.19939 0.64323 0.81881 0.0
H732 H 0.21191 0.69201 0.8373 0.0
C733 C 0.16292 0.72039 0.85979 0.0
C734 C 0.16797 0.67956 0.84068 0.0
C735 C 0.15204 0.73251 0.8631 0.0
C736 C 0.22118 0.63527 0.8341 0.0
C737 C 0.20871 0.64601 0.83108 0.0
C738 C 0.1997 0.68832 0.83825 0.0
C739 C 0.15992 0.70817 0.84385 0.0
C740 C 0.172 0.69565 0.84032 0.0
C741 C 0.20854 0.66039 0.84338 0.0
C742 C 0.1958 0.67226 0.84008 0.0
H743 H 0.12378 0.72035 0.82472 0.0
H744 H 0.14292 0.69891 0.81914 0.0
H745 H 0.19144 0.71213 0.83752 0.0
H746 H 0.24236 0.65594 0.87455 0.0
H747 H 0.22091 0.6744 0.86923 0.0
C748 C 0.35613 0.23033 0.87169 0.0
C749 C 0.36784 0.23289 0.85468 0.0
C750 C 0.34521 0.21817 0.86925 0.0
C751 C 0.33678 0.18027 0.84078 0.0
H752 H 0.2937 0.19165 0.85603 0.0
C753 C 0.28245 0.13714 0.83575 0.0
C754 C 0.27217 0.13801 0.85508 0.0
C755 C 0.29483 0.14804 0.83322 0.0
C756 C 0.30567 0.18824 0.8518 0.0
H757 H 0.37751 0.22408 0.82205 0.0
H758 H 0.35826 0.20263 0.81783 0.0
H759 H 0.31406 0.21182 0.85598 0.0
H760 H 0.26742 0.15072 0.88734 0.0
H761 H 0.28875 0.16942 0.8829 0.0
H762 H 0.32823 0.15652 0.83698 0.0
C763 C 0.35764 0.2102 0.83306 0.0
C764 C 0.31735 0.1998 0.85177 0.0
C765 C 0.36864 0.22251 0.83547 0.0
C766 C 0.27489 0.14972 0.87205 0.0
C767 C 0.28712 0.16055 0.86947 0.0
C768 C 0.325 0.1686 0.8408 0.0
C769 C 0.34561 0.20813 0.84973 0.0
C770 C 0.33312 0.19592 0.84692 0.0
C771 C 0.29708 0.16006 0.84986 0.0
C772 C 0.3094 0.17242 0.84696 0.0
H773 H 0.35519 0.23789 0.8869 0.0
H774 H 0.33633 0.21668 0.88269 0.0
H775 H 0.34883 0.17692 0.83694 0.0
H776 H 0.28075 0.12827 0.82238 0.0
H777 H 0.30233 0.14736 0.81792 0.0
C778 C 0.85284 0.27355 0.86625 0.0
C779 C 0.86687 0.27258 0.85319 0.0
C780 C 0.84213 0.28575 0.86252 0.0
C781 C 0.83719 0.32603 0.84182 0.0
H782 H 0.79325 0.31355 0.83836 0.0
C783 C 0.78379 0.37015 0.83519 0.0
C784 C 0.77156 0.3668 0.8511 0.0
C785 C 0.79629 0.35946 0.83203 0.0
C786 C 0.80546 0.31725 0.83929 0.0
H787 H 0.88078 0.28413 0.82634 0.0
H788 H 0.86196 0.30579 0.82008 0.0
H789 H 0.81372 0.29344 0.83898 0.0
H790 H 0.76308 0.34957 0.87629 0.0
H791 H 0.78457 0.33119 0.8707 0.0
H792 H 0.82873 0.34993 0.84289 0.0
C793 C 0.85934 0.29688 0.83309 0.0
C794 C 0.81718 0.30573 0.83963 0.0
C795 C 0.87007 0.28447 0.83664 0.0
C796 C 0.77221 0.35262 0.86384 0.0
C797 C 0.78451 0.34197 0.86053 0.0
C798 C 0.82538 0.33764 0.84152 0.0
C799 C 0.84513 0.29746 0.84575 0.0
C800 C 0.83314 0.30994 0.84168 0.0
C801 C 0.79662 0.34515 0.84447 0.0
C802 C 0.80936 0.33331 0.84104 0.0
H803 H 0.8499 0.26469 0.87918 0.0
H804 H 0.83142 0.28602 0.87284 0.0
H805 H 0.84941 0.3296 0.8434 0.0
H806 H 0.7837 0.38097 0.82515 0.0
H807 H 0.80549 0.36222 0.81955 0.0
C808 C 0.63722 0.22105 0.665 0.0
C809 C 0.63659 0.2303 0.64455 0.0
C810 C 0.64819 0.20871 0.66702 0.0
C811 C 0.68678 0.1971 0.64325 0.0
H812 H 0.67774 0.1551 0.66648 0.0
C813 C 0.72958 0.14662 0.62676 0.0
C814 C 0.73326 0.13629 0.64521 0.0
C815 C 0.71714 0.15728 0.62869 0.0
C816 C 0.68048 0.16684 0.66024 0.0
H817 H 0.64643 0.2331 0.60971 0.0
H818 H 0.66529 0.21177 0.61325 0.0
H819 H 0.65688 0.17522 0.6663 0.0
H820 H 0.7262 0.12871 0.6799 0.0
H821 H 0.70434 0.14755 0.68329 0.0
H822 H 0.71022 0.18892 0.63702 0.0
C823 C 0.65758 0.21423 0.62792 0.0
C824 C 0.66854 0.17834 0.66013 0.0
C825 C 0.64668 0.22645 0.62588 0.0
C826 C 0.72374 0.13653 0.66538 0.0
C827 C 0.71119 0.14728 0.66731 0.0
C828 C 0.69863 0.18571 0.6434 0.0
C829 C 0.65876 0.20545 0.64867 0.0
C830 C 0.6715 0.19348 0.65107 0.0
C831 C 0.70799 0.158 0.64914 0.0
C832 C 0.69555 0.17033 0.65133 0.0
H833 H 0.62959 0.22365 0.6797 0.0
H834 H 0.64881 0.20212 0.68321 0.0
H835 H 0.68957 0.20877 0.63674 0.0
H836 H 0.73645 0.14667 0.61079 0.0
H837 H 0.71476 0.16508 0.61412 0.0
C838 C 0.77387 0.64866 0.62676 0.0
C839 C 0.7709 0.63778 0.64479 0.0
C840 C 0.78624 0.65941 0.62845 0.0
C841 C 0.8238 0.66841 0.65807 0.0
H842 H 0.81391 0.71082 0.63736 0.0
C843 C 0.86713 0.72245 0.66307 0.0
C844 C 0.86727 0.73215 0.64307 0.0
C845 C 0.85613 0.71014 0.66513 0.0
C846 C 0.81692 0.69902 0.64308 0.0
H847 H 0.77913 0.62938 0.67849 0.0
H848 H 0.80086 0.64838 0.68148 0.0
H849 H 0.79336 0.69087 0.63783 0.0
H850 H 0.85642 0.73587 0.60909 0.0
H851 H 0.83752 0.7146 0.61271 0.0
H852 H 0.8475 0.67675 0.66316 0.0
C853 C 0.79351 0.64847 0.66599 0.0
C854 C 0.80513 0.68756 0.64333 0.0
C855 C 0.78104 0.63762 0.6643 0.0
C856 C 0.85658 0.72885 0.62491 0.0
C857 C 0.84565 0.71666 0.627 0.0
C858 C 0.83567 0.67996 0.65786 0.0
C859 C 0.79604 0.65969 0.64825 0.0
C860 C 0.80847 0.67202 0.65027 0.0
C861 C 0.84504 0.70736 0.6473 0.0
C862 C 0.83241 0.6953 0.6498 0.0
H863 H 0.76651 0.64903 0.61129 0.0
H864 H 0.78809 0.66761 0.61419 0.0
H865 H 0.82675 0.65654 0.66351 0.0
H866 H 0.87521 0.72462 0.67737 0.0
H867 H 0.85595 0.70315 0.68099 0.0
C868 C 0.27383 0.85497 0.63338 0.0
C869 C 0.27255 0.86844 0.64763 0.0
C870 C 0.28597 0.84414 0.63669 0.0
C871 C 0.32569 0.83809 0.65881 0.0
H872 H 0.31268 0.79424 0.65925 0.0
C873 C 0.36922 0.78437 0.66536 0.0
C874 C 0.36607 0.77217 0.6493 0.0
C875 C 0.35855 0.79691 0.6682 0.0
C876 C 0.31653 0.80642 0.65911 0.0
H877 H 0.28355 0.8813 0.67609 0.0
H878 H 0.30512 0.86227 0.68162 0.0
H879 H 0.29281 0.81495 0.65876 0.0
H880 H 0.34927 0.76385 0.6234 0.0
H881 H 0.33093 0.78547 0.62835 0.0
H882 H 0.3495 0.8294 0.65842 0.0
C883 C 0.29649 0.86018 0.66801 0.0
C884 C 0.30515 0.81828 0.65888 0.0
C885 C 0.28413 0.87103 0.66486 0.0
C886 C 0.35214 0.77293 0.63601 0.0
C887 C 0.34151 0.78531 0.63896 0.0
C888 C 0.33716 0.82614 0.65898 0.0
C889 C 0.2973 0.84647 0.65422 0.0
C890 C 0.30957 0.83423 0.658 0.0
C891 C 0.34447 0.79737 0.65522 0.0
C892 C 0.33266 0.81017 0.65838 0.0
H893 H 0.26523 0.85252 0.61986 0.0
H894 H 0.28644 0.83383 0.62553 0.0
H895 H 0.32942 0.8503 0.65813 0.0
H896 H 0.37985 0.7842 0.67583 0.0
H897 H 0.36116 0.80604 0.68086 0.0
C898 C 0.14116 0.28045 0.6245 0.0
C899 C 0.13355 0.27475 0.64464 0.0
C900 C 0.15156 0.29315 0.62582 0.0
C901 C 0.16542 0.32659 0.66197 0.0
H902 H 0.20375 0.32009 0.62626 0.0
C903 C 0.22131 0.36749 0.66573 0.0
C904 C 0.22911 0.36993 0.6443 0.0
C905 C 0.2085 0.35702 0.66716 0.0
C906 C 0.19306 0.32221 0.63614 0.0
H907 H 0.13032 0.27854 0.68183 0.0
H908 H 0.14879 0.30076 0.6842 0.0
H909 H 0.18352 0.2999 0.62634 0.0
H910 H 0.2288 0.3642 0.60732 0.0
H911 H 0.20653 0.34632 0.60975 0.0
H912 H 0.17522 0.34904 0.67177 0.0
C913 C 0.14657 0.29536 0.66735 0.0
C914 C 0.18143 0.31061 0.63618 0.0
C915 C 0.13602 0.28262 0.666 0.0
C916 C 0.22329 0.36238 0.62419 0.0
C917 C 0.21053 0.35206 0.6256 0.0
C918 C 0.17716 0.3383 0.66193 0.0
C919 C 0.15478 0.30047 0.64734 0.0
C920 C 0.16734 0.31273 0.64871 0.0
C921 C 0.20327 0.34885 0.64717 0.0
C922 C 0.19099 0.33633 0.64863 0.0
H923 H 0.13933 0.27489 0.60766 0.0
H924 H 0.15733 0.29705 0.60994 0.0
H925 H 0.1547 0.32858 0.67183 0.0
H926 H 0.22549 0.37315 0.68153 0.0
H927 H 0.20316 0.35481 0.68404 0.0
C928 C 0.26051 0.08143 0.09148 0.0
C929 C 0.24769 0.09007 0.10039 0.0
C930 C 0.26348 0.08111 0.06732 0.0
C931 C 0.25558 0.10395 0.01381 0.0
H932 H 0.25984 0.06454 0.97998 0.0
C933 C 0.23823 0.0986 0.91824 0.0
C934 C 0.24807 0.09043 0.90266 0.0
C935 C 0.24117 0.09835 0.94219 0.0
C936 C 0.25897 0.07565 0.98923 0.0
H937 H 0.22784 0.10493 0.09096 0.0
H938 H 0.23307 0.10447 0.04932 0.0
H939 H 0.25978 0.06445 0.02291 0.0
H940 H 0.26861 0.07532 0.90001 0.0
H941 H 0.27366 0.07469 0.94236 0.0
H942 H 0.25421 0.11514 0.98038 0.0
C943 C 0.24094 0.09808 0.06084 0.0
C944 C 0.25894 0.0756 0.01376 0.0
C945 C 0.2379 0.09826 0.08476 0.0
C946 C 0.26085 0.08176 0.91163 0.0
C947 C 0.26372 0.08137 0.9358 0.0
C948 C 0.25561 0.10401 0.98944 0.0
C949 C 0.2538 0.08961 0.05183 0.0
C950 C 0.25667 0.08971 0.02623 0.0
C951 C 0.25397 0.08982 0.95126 0.0
C952 C 0.25674 0.08982 0.97689 0.0
H953 H 0.26823 0.07496 0.10312 0.0
H954 H 0.27346 0.07446 0.0608 0.0
H955 H 0.25415 0.11505 0.02297 0.0
H956 H 0.22821 0.1053 0.91199 0.0
H957 H 0.23326 0.10472 0.95369 0.0
C958 C 0.91122 0.23508 0.91754 0.0
C959 C 0.91645 0.24679 0.90203 0.0
C960 C 0.91362 0.23661 0.94151 0.0
C961 C 0.91951 0.26467 0.98882 0.0
H962 H 0.93329 0.22721 0.02196 0.0
C963 C 0.92489 0.26008 0.09085 0.0
C964 C 0.91773 0.24648 0.10006 0.0
C965 C 0.92691 0.26174 0.0666 0.0
C966 C 0.92945 0.23778 0.01297 0.0
H967 H 0.92806 0.26951 0.89951 0.0
H968 H 0.93214 0.27228 0.94192 0.0
H969 H 0.93295 0.2273 0.97939 0.0
H970 H 0.90696 0.22406 0.09115 0.0
H971 H 0.91049 0.22692 0.04929 0.0
H972 H 0.91551 0.27492 0.02267 0.0
C973 C 0.92624 0.26188 0.93528 0.0
C974 C 0.92927 0.23783 0.98861 0.0
C975 C 0.92395 0.26027 0.91108 0.0
C976 C 0.91259 0.23466 0.08466 0.0
C977 C 0.91471 0.23624 0.06064 0.0
C978 C 0.91968 0.26461 0.01335 0.0
C979 C 0.92125 0.24994 0.95067 0.0
C980 C 0.9238 0.25106 0.97628 0.0
C981 C 0.92198 0.24972 0.05131 0.0
C982 C 0.92415 0.25095 0.02562 0.0
H983 H 0.90534 0.22458 0.91117 0.0
H984 H 0.90938 0.22735 0.95295 0.0
H985 H 0.91522 0.27502 0.97973 0.0
H986 H 0.92892 0.26941 0.10232 0.0
H987 H 0.93254 0.27226 0.05985 0.0
C988 C 0.76608 0.90581 0.91791 0.0
C989 C 0.75662 0.91431 0.90221 0.0
C990 C 0.7628 0.90592 0.94177 0.0
C991 C 0.74503 0.92876 0.98859 0.0
H992 H 0.74849 0.88911 0.02202 0.0
C993 C 0.74337 0.92299 0.09074 0.0
C994 C 0.75604 0.91407 0.0995 0.0
C995 C 0.74023 0.92328 0.06663 0.0
C996 C 0.74742 0.90027 0.01294 0.0
H997 H 0.7364 0.92982 0.89923 0.0
H998 H 0.73077 0.93021 0.94142 0.0
H999 H 0.74877 0.88919 0.97942 0.0
H1000 H 0.77536 0.89857 0.08989 0.0
H1001 H 0.76982 0.89897 0.04837 0.0
H1002 H 0.74433 0.93985 0.02234 0.0
C1003 C 0.74067 0.92337 0.93503 0.0
C1004 C 0.74758 0.90032 0.98858 0.0
C1005 C 0.74386 0.92312 0.91095 0.0
C1006 C 0.76543 0.90548 0.08381 0.0
C1007 C 0.76221 0.90562 0.05996 0.0
C1008 C 0.74488 0.92871 0.01311 0.0
C1009 C 0.75004 0.91463 0.95061 0.0
C1010 C 0.74698 0.91458 0.97615 0.0
C1011 C 0.74957 0.91445 0.05106 0.0
C1012 C 0.74667 0.9145 0.02548 0.0
H1013 H 0.77606 0.89899 0.91182 0.0
H1014 H 0.77041 0.8993 0.95339 0.0
H1015 H 0.74457 0.93993 0.97943 0.0
H1016 H 0.73597 0.92978 0.10244 0.0
H1017 H 0.73042 0.93021 0.06019 0.0
C1018 C 0.08076 0.74409 0.91012 0.0
C1019 C 0.08839 0.75731 0.90053 0.0
C1020 C 0.07891 0.7427 0.93443 0.0
C1021 C 0.07761 0.76729 0.98745 0.0
H1022 H 0.08947 0.72962 0.02163 0.0
C1023 C 0.09403 0.7698 0.08369 0.0
C1024 C 0.0882 0.75827 0.09904 0.0
C1025 C 0.09205 0.76827 0.05964 0.0
C1026 C 0.08585 0.74011 0.01228 0.0
H1027 H 0.10032 0.77925 0.90884 0.0
H1028 H 0.09712 0.77682 0.95083 0.0
H1029 H 0.08963 0.72939 0.97869 0.0
H1030 H 0.07592 0.7359 0.10118 0.0
H1031 H 0.0725 0.73315 0.05866 0.0
H1032 H 0.07423 0.77819 0.02075 0.0
C1033 C 0.09238 0.76762 0.93972 0.0
C1034 C 0.08595 0.73999 0.98775 0.0
C1035 C 0.0943 0.76895 0.91563 0.0
C1036 C 0.08049 0.745 0.08974 0.0
C1037 C 0.07859 0.7434 0.06547 0.0
C1038 C 0.07751 0.76742 0.01181 0.0
C1039 C 0.08453 0.75459 0.94942 0.0
C1040 C 0.0823 0.75375 0.97514 0.0
C1041 C 0.08421 0.75514 0.05022 0.0
C1042 C 0.0821 0.75401 0.02451 0.0
H1043 H 0.07613 0.73491 0.89889 0.0
H1044 H 0.07282 0.73252 0.94146 0.0
H1045 H 0.0744 0.77797 0.9782 0.0
H1046 H 0.10009 0.78014 0.09024 0.0
H1047 H 0.09679 0.77736 0.04834 0.0
C1048 C 0.2593 0.92331 0.41162 0.0
C1049 C 0.24651 0.91473 0.40251 0.0
C1050 C 0.26198 0.92379 0.43583 0.0
C1051 C 0.25299 0.90163 0.48969 0.0
H1052 H 0.25833 0.94128 0.52255 0.0
C1053 C 0.23611 0.90823 0.58527 0.0
C1054 C 0.24633 0.91614 0.60063 0.0
C1055 C 0.23884 0.90837 0.56127 0.0
C1056 C 0.25714 0.9301 0.51357 0.0
H1057 H 0.22641 0.90013 0.41163 0.0
H1058 H 0.2311 0.9009 0.45342 0.0
H1059 H 0.2584 0.94088 0.47963 0.0
H1060 H 0.26725 0.93074 0.60279 0.0
H1061 H 0.27194 0.93114 0.56033 0.0
H1062 H 0.2512 0.89088 0.52338 0.0
C1063 C 0.23918 0.90711 0.44201 0.0
C1064 C 0.25718 0.92987 0.48905 0.0
C1065 C 0.23645 0.90675 0.41801 0.0
C1066 C 0.25921 0.92451 0.59135 0.0
C1067 C 0.26187 0.92476 0.56712 0.0
C1068 C 0.25294 0.90186 0.51405 0.0
C1069 C 0.25201 0.91554 0.45122 0.0
C1070 C 0.25457 0.91568 0.4769 0.0
C1071 C 0.25181 0.91648 0.5519 0.0
C1072 C 0.25448 0.91615 0.52626 0.0
H1073 H 0.26723 0.92961 0.40007 0.0
H1074 H 0.27195 0.93039 0.44249 0.0
H1075 H 0.2513 0.89047 0.48081 0.0
H1076 H 0.22599 0.90179 0.59176 0.0
H1077 H 0.23068 0.90215 0.54997 0.0
C1078 C 0.092 0.23393 0.58537 0.0
C1079 C 0.0866 0.24561 0.60082 0.0
C1080 C 0.08995 0.23558 0.56134 0.0
C1081 C 0.08486 0.26414 0.51435 0.0
H1082 H 0.07241 0.22685 0.47966 0.0
C1083 C 0.08122 0.26044 0.41196 0.0
C1084 C 0.08879 0.24705 0.40274 0.0
C1085 C 0.07889 0.26188 0.43618 0.0
C1086 C 0.07588 0.23738 0.48909 0.0
H1087 H 0.07496 0.26831 0.6032 0.0
H1088 H 0.07145 0.27127 0.56073 0.0
H1089 H 0.07178 0.22648 0.52222 0.0
H1090 H 0.10004 0.22486 0.41162 0.0
H1091 H 0.09597 0.22737 0.45342 0.0
H1092 H 0.08941 0.27484 0.48096 0.0
C1093 C 0.07724 0.26082 0.56743 0.0
C1094 C 0.07552 0.23716 0.51344 0.0
C1095 C 0.07918 0.2591 0.59168 0.0
C1096 C 0.0941 0.23529 0.41811 0.0
C1097 C 0.09168 0.23667 0.4421 0.0
C1098 C 0.08522 0.26436 0.48983 0.0
C1099 C 0.08249 0.24898 0.55207 0.0
C1100 C 0.0805 0.25033 0.52636 0.0
C1101 C 0.08392 0.24987 0.45142 0.0
C1102 C 0.08123 0.25078 0.47702 0.0
H1103 H 0.09781 0.22343 0.59182 0.0
H1104 H 0.09439 0.22639 0.54995 0.0
H1105 H 0.08879 0.27445 0.52389 0.0
H1106 H 0.07705 0.26971 0.40051 0.0
H1107 H 0.0729 0.2722 0.44294 0.0
C1108 C 0.76772 0.09712 0.58382 0.0
C1109 C 0.75791 0.08903 0.59954 0.0
C1110 C 0.76456 0.09697 0.55994 0.0
C1111 C 0.74636 0.07474 0.51296 0.0
H1112 H 0.7505 0.11451 0.48001 0.0
C1113 C 0.74452 0.08134 0.41089 0.0
C1114 C 0.75724 0.0902 0.40214 0.0
C1115 C 0.74153 0.08083 0.43503 0.0
C1116 C 0.74924 0.10332 0.48895 0.0
H1117 H 0.73726 0.07409 0.60249 0.0
H1118 H 0.73186 0.07361 0.56022 0.0
H1119 H 0.75076 0.11419 0.5226 0.0
H1120 H 0.77688 0.10526 0.41182 0.0
H1121 H 0.77163 0.10445 0.45343 0.0
H1122 H 0.74548 0.06385 0.47907 0.0
C1123 C 0.74191 0.08017 0.56665 0.0
C1124 C 0.74939 0.10314 0.51331 0.0
C1125 C 0.74499 0.08048 0.59076 0.0
C1126 C 0.7669 0.09843 0.4179 0.0
C1127 C 0.76385 0.09804 0.4418 0.0
C1128 C 0.74623 0.07492 0.48844 0.0
C1129 C 0.75159 0.08861 0.55108 0.0
C1130 C 0.74854 0.08881 0.52556 0.0
C1131 C 0.7511 0.08934 0.45066 0.0
C1132 C 0.74826 0.08918 0.47625 0.0
H1133 H 0.77784 0.10372 0.58993 0.0
H1134 H 0.7724 0.10332 0.54832 0.0
H1135 H 0.74569 0.06354 0.52201 0.0
H1136 H 0.7369 0.07485 0.39913 0.0
H1137 H 0.73164 0.074 0.44144 0.0
C1138 C 0.92366 0.74508 0.58952 0.0
C1139 C 0.91651 0.75871 0.59865 0.0
C1140 C 0.92573 0.74337 0.5653 0.0
C1141 C 0.92828 0.76713 0.51144 0.0
H1142 H 0.91416 0.72967 0.47862 0.0
C1143 C 0.91041 0.76928 0.41582 0.0
C1144 C 0.91571 0.75747 0.4005 0.0
C1145 C 0.91266 0.76786 0.43983 0.0
C1146 C 0.91841 0.74009 0.48759 0.0
H1147 H 0.90586 0.78117 0.58963 0.0
H1148 H 0.90948 0.77822 0.54779 0.0
H1149 H 0.91441 0.73002 0.52155 0.0
H1150 H 0.92727 0.73472 0.39839 0.0
H1151 H 0.9311 0.73216 0.44087 0.0
H1152 H 0.93181 0.77742 0.47773 0.0
C1153 C 0.91364 0.7689 0.55918 0.0
C1154 C 0.91856 0.74029 0.51212 0.0
C1155 C 0.91147 0.77054 0.5832 0.0
C1156 C 0.9231 0.74402 0.4098 0.0
C1157 C 0.92526 0.74253 0.43405 0.0
C1158 C 0.92812 0.76694 0.48708 0.0
C1159 C 0.92085 0.75537 0.54993 0.0
C1160 C 0.923 0.75402 0.52424 0.0
C1161 C 0.92023 0.75458 0.44924 0.0
C1162 C 0.9227 0.75362 0.47489 0.0
H1163 H 0.92761 0.73574 0.60105 0.0
H1164 H 0.93133 0.73281 0.55862 0.0
H1165 H 0.9321 0.77776 0.5203 0.0
H1166 H 0.9046 0.77976 0.40927 0.0
H1167 H 0.90838 0.77719 0.45112 0.0
C1168 C 0.75938 0.58216 0.58947 0.0
C1169 C 0.74648 0.5905 0.59874 0.0
C1170 C 0.7621 0.58197 0.56527 0.0
C1171 C 0.75314 0.60463 0.51194 0.0
H1172 H 0.75923 0.56541 0.47823 0.0
C1173 C 0.73731 0.59874 0.41578 0.0
C1174 C 0.74747 0.59063 0.40057 0.0
C1175 C 0.73996 0.59868 0.4398 0.0
C1176 C 0.75784 0.57649 0.48745 0.0
H1177 H 0.72624 0.60498 0.58994 0.0
H1178 H 0.73101 0.60471 0.5481 0.0
H1179 H 0.75887 0.56533 0.52113 0.0
H1180 H 0.76831 0.57589 0.39866 0.0
H1181 H 0.77289 0.57566 0.44113 0.0
H1182 H 0.75164 0.61576 0.47849 0.0
C1183 C 0.73913 0.59845 0.55941 0.0
C1184 C 0.75762 0.57644 0.51197 0.0
C1185 C 0.73634 0.59853 0.58342 0.0
C1186 C 0.76031 0.58228 0.40998 0.0
C1187 C 0.7629 0.58211 0.43423 0.0
C1188 C 0.75337 0.60469 0.48757 0.0
C1189 C 0.75207 0.59027 0.55005 0.0
C1190 C 0.75474 0.59045 0.5244 0.0
C1191 C 0.7528 0.59045 0.44933 0.0
C1192 C 0.75519 0.59055 0.47504 0.0
H1193 H 0.76738 0.57584 0.60087 0.0
H1194 H 0.77216 0.57556 0.5585 0.0
H1195 H 0.75125 0.61567 0.52107 0.0
H1196 H 0.72723 0.60519 0.40917 0.0
H1197 H 0.73178 0.60496 0.45099 0.0
C1198 C 0.41 0.7351 0.41645 0.0
C1199 C 0.41565 0.74682 0.40127 0.0
C1200 C 0.41184 0.73656 0.44054 0.0
C1201 C 0.41737 0.76465 0.48823 0.0
H1202 H 0.4293 0.72685 0.52209 0.0
C1203 C 0.42255 0.76063 0.59029 0.0
C1204 C 0.41513 0.7473 0.59994 0.0
C1205 C 0.42435 0.76203 0.56598 0.0
C1206 C 0.42594 0.7375 0.51291 0.0
H1207 H 0.42746 0.76945 0.39948 0.0
H1208 H 0.43065 0.77207 0.44206 0.0
H1209 H 0.42955 0.72676 0.47954 0.0
H1210 H 0.40358 0.72515 0.59172 0.0
H1211 H 0.40671 0.72759 0.54969 0.0
H1212 H 0.41341 0.77522 0.52187 0.0
C1213 C 0.4248 0.76173 0.43509 0.0
C1214 C 0.42609 0.73746 0.48854 0.0
C1215 C 0.42304 0.76021 0.41078 0.0
C1216 C 0.40942 0.73554 0.58488 0.0
C1217 C 0.4113 0.73688 0.56077 0.0
C1218 C 0.41724 0.76469 0.51276 0.0
C1219 C 0.41937 0.7498 0.45017 0.0
C1220 C 0.42135 0.75085 0.47592 0.0
C1221 C 0.41891 0.75004 0.55102 0.0
C1222 C 0.42106 0.75095 0.52529 0.0
H1223 H 0.40418 0.72467 0.40974 0.0
H1224 H 0.40724 0.72731 0.45169 0.0
H1225 H 0.41364 0.77513 0.47894 0.0
H1226 H 0.42702 0.7699 0.60149 0.0
H1227 H 0.43025 0.77231 0.55892 0.0
C1228 C 0.26744 0.40604 0.41675 0.0
C1229 C 0.25739 0.41426 0.40153 0.0
C1230 C 0.26484 0.40627 0.4408 0.0
C1231 C 0.2473 0.42904 0.48828 0.0
H1232 H 0.25306 0.38992 0.52235 0.0
C1233 C 0.2453 0.42357 0.59051 0.0
C1234 C 0.25803 0.41498 0.59979 0.0
C1235 C 0.24266 0.42388 0.56628 0.0
C1236 C 0.25139 0.40094 0.5131 0.0
H1237 H 0.2368 0.42935 0.3996 0.0
H1238 H 0.23232 0.42988 0.44206 0.0
H1239 H 0.25289 0.38963 0.47977 0.0
H1240 H 0.27814 0.4003 0.59092 0.0
H1241 H 0.27351 0.4008 0.54912 0.0
H1242 H 0.24628 0.44038 0.52185 0.0
C1243 C 0.24218 0.42322 0.43518 0.0
C1244 C 0.25131 0.40078 0.48873 0.0
C1245 C 0.24472 0.42287 0.41094 0.0
C1246 C 0.26813 0.40692 0.58443 0.0
C1247 C 0.26544 0.40712 0.56042 0.0
C1248 C 0.24739 0.42921 0.51281 0.0
C1249 C 0.25217 0.41479 0.45032 0.0
C1250 C 0.24978 0.41487 0.47604 0.0
C1251 C 0.25261 0.41545 0.55105 0.0
C1252 C 0.24996 0.41521 0.5254 0.0
H1253 H 0.27737 0.39937 0.41013 0.0
H1254 H 0.27292 0.3999 0.45202 0.0
H1255 H 0.24612 0.44009 0.47894 0.0
H1256 H 0.23734 0.42992 0.60195 0.0
H1257 H 0.2327 0.43042 0.55949 0.0
C1258 C 0.58028 0.24492 0.59119 0.0
C1259 C 0.58772 0.25833 0.60051 0.0
C1260 C 0.57805 0.24348 0.56696 0.0
C1261 C 0.57565 0.26778 0.51361 0.0
H1262 H 0.58918 0.23047 0.4799 0.0
C1263 C 0.59317 0.27052 0.41776 0.0
C1264 C 0.58796 0.25873 0.40235 0.0
C1265 C 0.59085 0.26904 0.44176 0.0
C1266 C 0.58509 0.24085 0.48911 0.0
H1267 H 0.59871 0.28069 0.59181 0.0
H1268 H 0.59482 0.27821 0.54997 0.0
H1269 H 0.58907 0.2304 0.52282 0.0
H1270 H 0.57643 0.23597 0.40006 0.0
H1271 H 0.57246 0.2333 0.44248 0.0
H1272 H 0.57213 0.27844 0.48016 0.0
C1273 C 0.59056 0.26886 0.56123 0.0
C1274 C 0.58502 0.24081 0.51364 0.0
C1275 C 0.59288 0.27022 0.58524 0.0
C1276 C 0.58052 0.24527 0.41154 0.0
C1277 C 0.5783 0.24372 0.43576 0.0
C1278 C 0.57573 0.26782 0.48924 0.0
C1279 C 0.58306 0.25554 0.55178 0.0
C1280 C 0.58079 0.25447 0.52609 0.0
C1281 C 0.58331 0.2557 0.45106 0.0
C1282 C 0.58094 0.25456 0.47672 0.0
H1283 H 0.57623 0.23555 0.60258 0.0
H1284 H 0.57225 0.23308 0.56012 0.0
H1285 H 0.57201 0.27837 0.52273 0.0
H1286 H 0.599 0.28102 0.41129 0.0
H1287 H 0.59512 0.27833 0.45311 0.0
C1288 C 0.76107 0.42327 0.91019 0.0
C1289 C 0.74833 0.4146 0.90113 0.0
C1290 C 0.76393 0.42357 0.93437 0.0
C1291 C 0.75573 0.40082 0.9879 0.0
H1292 H 0.75987 0.44035 0.02146 0.0
C1293 C 0.73792 0.40652 0.08321 0.0
C1294 C 0.7478 0.41459 0.09886 0.0
C1295 C 0.74093 0.40676 0.05929 0.0
C1296 C 0.75903 0.42921 0.01228 0.0
H1297 H 0.72853 0.3996 0.91029 0.0
H1298 H 0.73355 0.40004 0.952 0.0
H1299 H 0.76003 0.44029 0.97853 0.0
H1300 H 0.76842 0.42957 0.10163 0.0
H1301 H 0.77358 0.43019 0.0593 0.0
H1302 H 0.75415 0.38976 0.0214 0.0
C1303 C 0.74144 0.40648 0.94057 0.0
C1304 C 0.75912 0.42917 0.98776 0.0
C1305 C 0.73852 0.40631 0.91662 0.0
C1306 C 0.76064 0.4232 0.08996 0.0
C1307 C 0.76357 0.42358 0.06581 0.0
C1308 C 0.75563 0.40086 0.01226 0.0
C1309 C 0.7542 0.41503 0.94974 0.0
C1310 C 0.7569 0.41501 0.97538 0.0
C1311 C 0.75382 0.41518 0.0503 0.0
C1312 C 0.75671 0.41509 0.02471 0.0
H1313 H 0.7688 0.42981 0.89864 0.0
H1314 H 0.77383 0.43028 0.941 0.0
H1315 H 0.75433 0.38969 0.97881 0.0
H1316 H 0.72785 0.39988 0.08941 0.0
H1317 H 0.73302 0.40044 0.04774 0.0
C1318 C 0.59429 0.73544 0.08498 0.0
C1319 C 0.58849 0.74708 0.10019 0.0
C1320 C 0.59238 0.73687 0.06091 0.0
C1321 C 0.58658 0.76484 0.01325 0.0
H1322 H 0.5752 0.72688 0.97935 0.0
C1323 C 0.5821 0.76067 0.91116 0.0
C1324 C 0.58964 0.74737 0.90161 0.0
C1325 C 0.58015 0.76208 0.93543 0.0
C1326 C 0.57841 0.73758 0.98854 0.0
H1327 H 0.5763 0.7695 0.10205 0.0
H1328 H 0.57301 0.77207 0.05946 0.0
H1329 H 0.57472 0.72685 0.0219 0.0
H1330 H 0.60127 0.7253 0.91 0.0
H1331 H 0.59789 0.72775 0.952 0.0
H1332 H 0.59065 0.7754 0.97964 0.0
C1333 C 0.57902 0.76183 0.06641 0.0
C1334 C 0.57812 0.73757 0.01291 0.0
C1335 C 0.58085 0.76033 0.09072 0.0
C1336 C 0.59533 0.73565 0.91675 0.0
C1337 C 0.59331 0.73701 0.94084 0.0
C1338 C 0.58686 0.76485 0.98873 0.0
C1339 C 0.58464 0.74999 0.05131 0.0
C1340 C 0.58268 0.75102 0.02556 0.0
C1341 C 0.58557 0.75013 0.95048 0.0
C1342 C 0.58325 0.75105 0.97618 0.0
H1343 H 0.6003 0.7251 0.09165 0.0
H1344 H 0.59712 0.7277 0.04974 0.0
H1345 H 0.59018 0.77536 0.02256 0.0
H1346 H 0.57762 0.76991 0.89989 0.0
H1347 H 0.57414 0.77232 0.9424 0.0
C1348 C 0.2676 0.59811 0.08314 0.0
C1349 C 0.25754 0.59004 0.09855 0.0
C1350 C 0.26479 0.59799 0.05916 0.0
C1351 C 0.2467 0.57596 0.01161 0.0
H1352 H 0.25209 0.61558 0.97864 0.0
C1353 C 0.24427 0.58225 0.90973 0.0
C1354 C 0.2569 0.59096 0.90038 0.0
C1355 C 0.24168 0.5819 0.93396 0.0
C1356 C 0.25054 0.60442 0.98757 0.0
H1357 H 0.2368 0.57518 0.10083 0.0
H1358 H 0.23197 0.5748 0.0584 0.0
H1359 H 0.25221 0.61527 0.02122 0.0
H1360 H 0.27673 0.60602 0.90908 0.0
H1361 H 0.27218 0.60549 0.95095 0.0
H1362 H 0.24554 0.56509 0.97773 0.0
C1363 C 0.24197 0.58131 0.06514 0.0
C1364 C 0.25059 0.60425 0.01194 0.0
C1365 C 0.24472 0.58155 0.08935 0.0
C1366 C 0.26683 0.59928 0.91566 0.0
C1367 C 0.26417 0.59905 0.93969 0.0
C1368 C 0.24665 0.57614 0.98709 0.0
C1369 C 0.2519 0.58971 0.04987 0.0
C1370 C 0.24921 0.58997 0.02423 0.0
C1371 C 0.25155 0.59042 0.94915 0.0
C1372 C 0.2491 0.59032 0.97486 0.0
H1373 H 0.27767 0.60466 0.08956 0.0
H1374 H 0.27284 0.60431 0.04782 0.0
H1375 H 0.24564 0.56479 0.02064 0.0
H1376 H 0.23645 0.57569 0.89836 0.0
H1377 H 0.23185 0.57516 0.94078 0.0
C1378 C 0.41055 0.27022 0.91714 0.0
C1379 C 0.41647 0.25857 0.90207 0.0
C1380 C 0.41222 0.26878 0.94127 0.0
C1381 C 0.41788 0.24069 0.98903 0.0
H1382 H 0.42894 0.27864 0.02316 0.0
C1383 C 0.42283 0.24462 0.09114 0.0
C1384 C 0.41517 0.2578 0.10083 0.0
C1385 C 0.42463 0.24328 0.06682 0.0
C1386 C 0.42582 0.26794 0.0139 0.0
H1387 H 0.42855 0.23608 0.90048 0.0
H1388 H 0.43144 0.2335 0.94309 0.0
H1389 H 0.42937 0.27882 0.98062 0.0
H1390 H 0.40315 0.27971 0.09268 0.0
H1391 H 0.40629 0.27737 0.05064 0.0
H1392 H 0.414 0.22997 0.02258 0.0
C1393 C 0.42552 0.24376 0.93603 0.0
C1394 C 0.42606 0.26804 0.98954 0.0
C1395 C 0.42393 0.24526 0.9117 0.0
C1396 C 0.40919 0.26945 0.08581 0.0
C1397 C 0.41107 0.26817 0.06169 0.0
C1398 C 0.41765 0.24059 0.01355 0.0
C1399 C 0.41982 0.25562 0.95102 0.0
C1400 C 0.42164 0.25459 0.9768 0.0
C1401 C 0.41895 0.25518 0.05191 0.0
C1402 C 0.42116 0.25438 0.02618 0.0
H1403 H 0.40467 0.28059 0.91033 0.0
H1404 H 0.40741 0.27796 0.95234 0.0
H1405 H 0.41438 0.23016 0.97966 0.0
H1406 H 0.42751 0.23544 0.10231 0.0
H1407 H 0.43075 0.23314 0.05973 0.0
C1408 C 0.22432 0.05325 0.20624 0.0
C1409 C 0.23808 0.06245 0.2047 0.0
C1410 C 0.22433 0.03902 0.21865 0.0
C1411 C 0.24883 0.00606 0.23362 0.0
H1412 H 0.21994 0.99803 0.28474 0.0
C1413 C 0.25159 0.94802 0.2874 0.0
C1414 C 0.23778 0.94251 0.29819 0.0
C1415 C 0.25171 0.96257 0.27573 0.0
C1416 C 0.22789 0.99984 0.27019 0.0
H1417 H 0.26262 0.06396 0.21498 0.0
H1418 H 0.26275 0.03874 0.23607 0.0
H1419 H 0.21983 0.02364 0.26546 0.0
H1420 H 0.21308 0.94747 0.30423 0.0
H1421 H 0.21292 0.97217 0.28268 0.0
H1422 H 0.25644 0.98217 0.2373 0.0
C1423 C 0.25193 0.04274 0.22795 0.0
C1424 C 0.22791 0.01464 0.25934 0.0
C1425 C 0.25181 0.0572 0.21605 0.0
C1426 C 0.22394 0.95149 0.29622 0.0
C1427 C 0.22394 0.96581 0.28407 0.0
C1428 C 0.24858 0.99111 0.24408 0.0
C1429 C 0.23821 0.0335 0.22925 0.0
C1430 C 0.23841 0.01791 0.24103 0.0
C1431 C 0.23791 0.97181 0.27409 0.0
C1432 C 0.23812 0.98774 0.2626 0.0
H1433 H 0.21357 0.05699 0.19764 0.0
H1434 H 0.21362 0.03208 0.21937 0.0
H1435 H 0.25693 0.00825 0.21934 0.0
H1436 H 0.26249 0.94144 0.28887 0.0
H1437 H 0.26279 0.96674 0.2687 0.0
C1438 C 0.95174 0.22568 0.20768 0.0
C1439 C 0.94282 0.23951 0.20515 0.0
C1440 C 0.96605 0.22584 0.21982 0.0
C1441 C 0.99155 0.25096 0.25875 0.0
H1442 H 0.02389 0.2219 0.23768 0.0
C1443 C 0.05764 0.25374 0.28717 0.0
C1444 C 0.06281 0.23986 0.29824 0.0
C1445 C 0.04319 0.25404 0.27526 0.0
C1446 C 0.01496 0.23008 0.24371 0.0
H1447 H 0.94179 0.26437 0.21357 0.0
H1448 H 0.96709 0.26493 0.2338 0.0
H1449 H 0.99824 0.22195 0.21861 0.0
H1450 H 0.05721 0.21533 0.30481 0.0
H1451 H 0.03233 0.2157 0.2831 0.0
H1452 H 0.00879 0.25945 0.28325 0.0
C1453 C 0.96288 0.25375 0.22716 0.0
C1454 C 1.00013 0.23002 0.23299 0.0
C1455 C 0.94834 0.25348 0.21548 0.0
C1456 C 0.05354 0.22618 0.29642 0.0
C1457 C 0.03933 0.22638 0.28402 0.0
C1458 C 0.00653 0.25125 0.26911 0.0
C1459 C 0.9721 0.23997 0.22923 0.0
C1460 C 0.98808 0.24032 0.24051 0.0
C1461 C 0.03388 0.24037 0.27368 0.0
C1462 C 0.01831 0.2407 0.26183 0.0
H1463 H 0.94771 0.21471 0.20004 0.0
H1464 H 0.9724 0.21484 0.2216 0.0
H1465 H 0.98265 0.25892 0.26542 0.0
H1466 H 0.06447 0.26449 0.28847 0.0
H1467 H 0.03925 0.26495 0.26734 0.0
C1468 C 0.75778 0.06034 0.27943 0.0
C1469 C 0.7679 0.06244 0.29865 0.0
C1470 C 0.75765 0.04602 0.26709 0.0
C1471 C 0.76727 0.00379 0.27438 0.0
H1472 H 0.76619 1.00239 0.20665 0.0
C1473 C 0.75823 0.94576 0.22155 0.0
C1474 C 0.76782 0.94377 0.20171 0.0
C1475 C 0.7581 0.96015 0.23369 0.0
C1476 C 0.76654 0.00258 0.22558 0.0
H1477 H 0.78605 0.05125 0.31962 0.0
H1478 H 0.7858 0.02645 0.2982 0.0
H1479 H 0.76634 0.02787 0.22667 0.0
H1480 H 0.78498 0.95528 0.17933 0.0
H1481 H 0.78473 0.98023 0.20042 0.0
H1482 H 0.76759 0.97852 0.2733 0.0
C1483 C 0.77786 0.03576 0.29277 0.0
C1484 C 0.76648 0.01718 0.23704 0.0
C1485 C 0.77808 0.05005 0.30493 0.0
C1486 C 0.77744 0.95639 0.19453 0.0
C1487 C 0.77721 0.97076 0.20651 0.0
C1488 C 0.76718 0.98919 0.26292 0.0
C1489 C 0.76752 0.03348 0.27387 0.0
C1490 C 0.76699 0.01797 0.26158 0.0
C1491 C 0.76743 0.97289 0.2261 0.0
C1492 C 0.76697 0.9884 0.23837 0.0
H1493 H 0.74977 0.06963 0.27418 0.0
H1494 H 0.7495 0.04463 0.25265 0.0
H1495 H 0.76748 0.00397 0.29331 0.0
H1496 H 0.75065 0.9363 0.2275 0.0
H1497 H 0.75038 0.96142 0.24866 0.0
C1498 C 0.05347 0.77956 0.20577 0.0
C1499 C 0.06245 0.76573 0.20369 0.0
C1500 C 0.0391 0.77947 0.2178 0.0
C1501 C 0.01366 0.75459 0.25725 0.0
H1502 H 0.98115 0.78327 0.23566 0.0
C1503 C 0.94752 0.75127 0.28509 0.0
C1504 C 0.94222 0.76507 0.29622 0.0
C1505 C 0.96199 0.75111 0.27323 0.0
C1506 C 0.99014 0.7752 0.24184 0.0
H1507 H 0.06352 0.74097 0.21272 0.0
H1508 H 0.03816 0.74053 0.2327 0.0
H1509 H 0.00686 0.7833 0.21668 0.0
H1510 H 0.9476 0.78963 0.30295 0.0
H1511 H 0.97253 0.78951 0.28133 0.0
H1512 H 0.99643 0.74612 0.28177 0.0
C1513 C 0.04234 0.75166 0.22584 0.0
C1514 C 0.00499 0.77531 0.23116 0.0
C1515 C 0.05692 0.75186 0.21428 0.0
C1516 C 0.95138 0.77884 0.29451 0.0
C1517 C 0.96562 0.77878 0.28216 0.0
C1518 C 0.99866 0.75425 0.26754 0.0
C1519 C 0.03308 0.76544 0.22755 0.0
C1520 C 0.01709 0.76512 0.23884 0.0
C1521 C 0.9712 0.76485 0.27177 0.0
C1522 C 0.98682 0.76465 0.26006 0.0
H1523 H 0.05749 0.79046 0.1979 0.0
H1524 H 0.0327 0.79047 0.21926 0.0
H1525 H 0.02261 0.74675 0.26409 0.0
H1526 H 0.94077 0.74045 0.2863 0.0
H1527 H 0.96604 0.74024 0.26528 0.0
C1528 C 0.78037 0.95201 0.79701 0.0
C1529 C 0.76662 0.94286 0.79849 0.0
C1530 C 0.78035 0.96636 0.78495 0.0
C1531 C 0.75607 0.99135 0.74419 0.0
H1532 H 0.78396 0.02424 0.76679 0.0
C1533 C 0.75285 0.05733 0.71563 0.0
C1534 C 0.76674 0.06251 0.70463 0.0
C1535 C 0.75259 0.04297 0.72778 0.0
C1536 C 0.77612 0.01515 0.76034 0.0
H1537 H 0.74207 0.94147 0.7884 0.0
H1538 H 0.74172 0.96682 0.76835 0.0
H1539 H 0.78377 0.99864 0.78609 0.0
H1540 H 0.79136 0.05707 0.69846 0.0
H1541 H 0.79104 0.03234 0.72061 0.0
H1542 H 0.74802 0.00837 0.71905 0.0
C1543 C 0.75275 0.96278 0.77572 0.0
C1544 C 0.7761 1.00036 0.7712 0.0
C1545 C 0.7529 0.94821 0.78731 0.0
C1546 C 0.7805 0.05338 0.7068 0.0
C1547 C 0.78033 0.03925 0.71944 0.0
C1548 C 0.75584 0.00628 0.73371 0.0
C1549 C 0.76645 0.9722 0.77457 0.0
C1550 C 0.76621 0.98813 0.76315 0.0
C1551 C 0.76631 0.03378 0.72965 0.0
C1552 C 0.76596 0.01825 0.74156 0.0
H1553 H 0.79116 0.94812 0.80533 0.0
H1554 H 0.7913 0.97288 0.78393 0.0
H1555 H 0.74847 0.9823 0.73708 0.0
H1556 H 0.74204 0.06405 0.71407 0.0
H1557 H 0.74165 0.03899 0.73559 0.0
C1558 C 0.94569 0.75104 0.71488 0.0
C1559 C 0.94055 0.7651 0.70432 0.0
C1560 C 0.96007 0.75056 0.72697 0.0
C1561 C 0.98837 0.77404 0.75942 0.0
H1562 H 0.02049 0.74533 0.73673 0.0
C1563 C 0.05186 0.77797 0.79458 0.0
C1564 C 0.06082 0.76412 0.79658 0.0
C1565 C 0.03742 0.77791 0.7828 0.0
C1566 C 0.01164 0.75324 0.74367 0.0
H1567 H 0.94607 0.78978 0.69892 0.0
H1568 H 0.97082 0.78907 0.72093 0.0
H1569 H 0.9943 0.74512 0.71908 0.0
H1570 H 0.06176 0.73934 0.78765 0.0
H1571 H 0.03623 0.73896 0.76803 0.0
H1572 H 0.00521 0.78181 0.7846 0.0
C1573 C 0.96387 0.77839 0.71949 0.0
C1574 C 0.99663 0.75314 0.73342 0.0
C1575 C 0.94972 0.77879 0.70691 0.0
C1576 C 0.05518 0.75024 0.78615 0.0
C1577 C 0.0405 0.75007 0.77482 0.0
C1578 C 0.00323 0.77391 0.77004 0.0
C1579 C 0.96934 0.76421 0.72923 0.0
C1580 C 0.98492 0.76365 0.74104 0.0
C1581 C 0.03127 0.76388 0.77322 0.0
C1582 C 0.01522 0.76366 0.76215 0.0
H1583 H 0.93894 0.74028 0.71299 0.0
H1584 H 0.96401 0.7395 0.73443 0.0
H1585 H 0.97949 0.78218 0.76572 0.0
H1586 H 0.05598 0.78888 0.80231 0.0
H1587 H 0.03105 0.78893 0.78138 0.0
C1588 C 0.22461 0.95145 0.70809 0.0
C1589 C 0.23848 0.94258 0.70566 0.0
C1590 C 0.22471 0.96583 0.72009 0.0
C1591 C 0.24982 0.99154 0.75883 0.0
H1592 H 0.22059 0.02377 0.73794 0.0
C1593 C 0.25287 0.05763 0.78691 0.0
C1594 C 0.23909 0.06288 0.79815 0.0
C1595 C 0.25303 0.04317 0.775 0.0
C1596 C 0.22881 0.01486 0.74392 0.0
H1597 H 0.26335 0.94174 0.71404 0.0
H1598 H 0.2638 0.96712 0.73397 0.0
H1599 H 0.22058 0.99805 0.71901 0.0
H1600 H 0.21456 0.05742 0.805 0.0
H1601 H 0.21469 0.03253 0.7833 0.0
H1602 H 0.25841 0.00887 0.7831 0.0
C1603 C 0.25263 0.96283 0.72741 0.0
C1604 C 0.22872 1.0 0.73327 0.0
C1605 C 0.25242 0.94824 0.71588 0.0
C1606 C 0.22534 0.05369 0.79648 0.0
C1607 C 0.2254 0.03946 0.78408 0.0
C1608 C 0.25014 0.00655 0.76909 0.0
C1609 C 0.2388 0.97199 0.72946 0.0
C1610 C 0.23911 0.988 0.74071 0.0
C1611 C 0.23931 0.03392 0.7736 0.0
C1612 C 0.23954 0.0183 0.76187 0.0
H1613 H 0.21365 0.94733 0.70051 0.0
H1614 H 0.21368 0.97214 0.72183 0.0
H1615 H 0.25783 0.98268 0.76547 0.0
H1616 H 0.26367 0.06439 0.78809 0.0
H1617 H 0.26389 0.03917 0.76698 0.0
C1618 C 0.94727 0.25242 0.78642 0.0
C1619 C 0.94181 0.23865 0.79745 0.0
C1620 C 0.96178 0.25246 0.77467 0.0
C1621 C 0.99006 0.22816 0.74371 0.0
H1622 H 0.0223 0.25676 0.76627 0.0
C1623 C 0.05356 0.22413 0.70823 0.0
C1624 C 0.06239 0.23805 0.70602 0.0
C1625 C 0.03919 0.2241 0.72026 0.0
C1626 C 0.01342 0.24887 0.75936 0.0
H1627 H 0.9469 0.21401 0.80405 0.0
H1628 H 0.97191 0.21394 0.78262 0.0
H1629 H 0.99602 0.25737 0.78358 0.0
H1630 H 0.06317 0.26285 0.71486 0.0
H1631 H 0.03783 0.26308 0.73486 0.0
H1632 H 0.00697 0.22004 0.71885 0.0
C1633 C 0.9651 0.22473 0.78344 0.0
C1634 C 0.99836 0.2492 0.76943 0.0
C1635 C 0.95081 0.22479 0.79568 0.0
C1636 C 0.05671 0.25189 0.71653 0.0
C1637 C 0.04214 0.25197 0.72809 0.0
C1638 C 0.00498 0.22806 0.73326 0.0
C1639 C 0.97087 0.23864 0.77323 0.0
C1640 C 0.98659 0.23877 0.76181 0.0
C1641 C 0.03301 0.23811 0.72988 0.0
C1642 C 0.01699 0.23832 0.74104 0.0
H1643 H 0.94065 0.26331 0.78767 0.0
H1644 H 0.96597 0.26331 0.76684 0.0
H1645 H 0.98113 0.22006 0.73744 0.0
H1646 H 0.0577 0.21325 0.70042 0.0
H1647 H 0.0329 0.21305 0.72178 0.0
C1648 C 0.72544 0.5538 0.70621 0.0
C1649 C 0.73922 0.56284 0.70372 0.0
C1650 C 0.72565 0.53967 0.71882 0.0
C1651 C 0.75016 0.50657 0.73271 0.0
H1652 H 0.72221 0.49898 0.78512 0.0
C1653 C 0.75287 0.44843 0.78618 0.0
C1654 C 0.73912 0.44311 0.79731 0.0
C1655 C 0.75308 0.46301 0.77463 0.0
C1656 C 0.72989 0.50068 0.77023 0.0
H1657 H 0.76403 0.56423 0.71253 0.0
H1658 H 0.7645 0.53914 0.734 0.0
H1659 H 0.72212 0.5246 0.7659 0.0
H1660 H 0.71458 0.44843 0.80411 0.0
H1661 H 0.71456 0.47323 0.7828 0.0
H1662 H 0.75743 0.48255 0.73601 0.0
C1663 C 0.7535 0.54319 0.72646 0.0
C1664 C 0.72993 0.51548 0.75941 0.0
C1665 C 0.7532 0.55756 0.71434 0.0
C1666 C 0.7254 0.4523 0.79583 0.0
C1667 C 0.72548 0.46667 0.78382 0.0
C1668 C 0.74987 0.49163 0.74316 0.0
C1669 C 0.73974 0.53409 0.72868 0.0
C1670 C 0.74008 0.51857 0.74061 0.0
C1671 C 0.73942 0.47247 0.77349 0.0
C1672 C 0.73973 0.48842 0.76212 0.0
H1673 H 0.7145 0.55758 0.69818 0.0
H1674 H 0.7149 0.53284 0.72025 0.0
H1675 H 0.75797 0.50863 0.71803 0.0
H1676 H 0.76368 0.44165 0.78727 0.0
H1677 H 0.76413 0.46703 0.7673 0.0
C1678 C 0.55688 0.75509 0.78689 0.0
C1679 C 0.56235 0.74116 0.79734 0.0
C1680 C 0.54231 0.75537 0.7753 0.0
C1681 C 0.50496 0.73183 0.76993 0.0
H1682 H 0.49657 0.7607 0.71887 0.0
C1683 C 0.4517 0.72758 0.70636 0.0
C1684 C 0.4425 0.74128 0.70428 0.0
C1685 C 0.46591 0.72784 0.71878 0.0
C1686 C 0.49876 0.75266 0.73323 0.0
H1687 H 0.55736 0.7164 0.80282 0.0
H1688 H 0.5326 0.71654 0.78146 0.0
H1689 H 0.52269 0.76021 0.7368 0.0
H1690 H 0.4409 0.766 0.71357 0.0
H1691 H 0.46611 0.76656 0.73472 0.0
H1692 H 0.48115 0.72381 0.76537 0.0
C1693 C 0.53901 0.72752 0.78306 0.0
C1694 C 0.51371 0.7524 0.74364 0.0
C1695 C 0.55336 0.72736 0.7951 0.0
C1696 C 0.4477 0.75524 0.71507 0.0
C1697 C 0.46213 0.75559 0.727 0.0
C1698 C 0.49015 0.73185 0.75916 0.0
C1699 C 0.53303 0.74161 0.77346 0.0
C1700 C 0.51707 0.74196 0.76217 0.0
C1701 C 0.47138 0.7419 0.72886 0.0
C1702 C 0.48691 0.74227 0.74075 0.0
H1703 H 0.56351 0.76595 0.78857 0.0
H1704 H 0.53815 0.76652 0.7685 0.0
H1705 H 0.50679 0.72391 0.78452 0.0
H1706 H 0.44799 0.71667 0.69819 0.0
H1707 H 0.47286 0.71714 0.71992 0.0
C1708 C 0.28003 0.45007 0.70696 0.0
C1709 C 0.26615 0.44111 0.70487 0.0
C1710 C 0.27999 0.46436 0.71923 0.0
C1711 C 0.25542 0.49768 0.7328 0.0
H1712 H 0.28375 0.50602 0.78447 0.0
C1713 C 0.25195 0.55594 0.7859 0.0
C1714 C 0.26565 0.56156 0.79683 0.0
C1715 C 0.25198 0.54132 0.77441 0.0
C1716 C 0.27595 0.50411 0.76976 0.0
H1717 H 0.24138 0.44006 0.71407 0.0
H1718 H 0.24124 0.46535 0.73491 0.0
H1719 H 0.28407 0.48029 0.76554 0.0
H1720 H 0.29033 0.55675 0.80334 0.0
H1721 H 0.29075 0.53191 0.78214 0.0
H1722 H 0.24775 0.52158 0.73601 0.0
C1723 C 0.25216 0.46114 0.72733 0.0
C1724 C 0.27606 0.48925 0.7591 0.0
C1725 C 0.25229 0.44664 0.71557 0.0
C1726 C 0.27954 0.55263 0.79522 0.0
C1727 C 0.2797 0.53824 0.78327 0.0
C1728 C 0.25555 0.51268 0.74307 0.0
C1729 C 0.26599 0.47018 0.72912 0.0
C1730 C 0.26575 0.48587 0.74061 0.0
C1731 C 0.26584 0.53213 0.77312 0.0
C1732 C 0.26579 0.51615 0.7618 0.0
H1733 H 0.29087 0.44612 0.69885 0.0
H1734 H 0.2908 0.47114 0.72033 0.0
H1735 H 0.24746 0.4954 0.71837 0.0
H1736 H 0.24102 0.5625 0.78709 0.0
H1737 H 0.24098 0.53707 0.76724 0.0
C1738 C 0.45247 0.27881 0.79557 0.0
C1739 C 0.44343 0.26503 0.79769 0.0
C1740 C 0.46693 0.27863 0.7838 0.0
C1741 C 0.49264 0.25363 0.74498 0.0
H1742 H 0.52496 0.28237 0.76704 0.0
C1743 C 0.55862 0.25063 0.71657 0.0
C1744 C 0.56405 0.26464 0.70617 0.0
C1745 C 0.54418 0.25034 0.72852 0.0
C1746 C 0.51603 0.27429 0.76072 0.0
H1747 H 0.44236 0.24022 0.78894 0.0
H1748 H 0.46789 0.23962 0.76933 0.0
H1749 H 0.49916 0.28232 0.7857 0.0
H1750 H 0.55896 0.28942 0.70091 0.0
H1751 H 0.5341 0.28905 0.72268 0.0
H1752 H 0.51 0.24526 0.7206 0.0
C1753 C 0.46367 0.25078 0.77603 0.0
C1754 C 0.50112 0.27434 0.77122 0.0
C1755 C 0.449 0.25108 0.78735 0.0
C1756 C 0.55509 0.27847 0.70879 0.0
C1757 C 0.54088 0.27826 0.72123 0.0
C1758 C 0.50769 0.25336 0.73485 0.0
C1759 C 0.473 0.26453 0.77434 0.0
C1760 C 0.48908 0.26415 0.76335 0.0
C1761 C 0.53513 0.26414 0.73081 0.0
C1762 C 0.51947 0.26379 0.74246 0.0
H1763 H 0.44841 0.28978 0.80322 0.0
H1764 H 0.47336 0.2896 0.78231 0.0
H1765 H 0.48375 0.24577 0.73805 0.0
H1766 H 0.56521 0.23976 0.71465 0.0
H1767 H 0.54003 0.23932 0.73585 0.0
C1768 C 0.25252 0.55742 0.21412 0.0
C1769 C 0.26632 0.5628 0.20317 0.0
C1770 C 0.25234 0.54292 0.22589 0.0
C1771 C 0.2758 0.50548 0.23146 0.0
H1772 H 0.24693 0.49754 0.28269 0.0
C1773 C 0.27923 0.45227 0.29559 0.0
C1774 C 0.26541 0.4432 0.29742 0.0
C1775 C 0.27924 0.46646 0.28312 0.0
C1776 C 0.25497 0.4996 0.26829 0.0
H1777 H 0.29095 0.55765 0.19693 0.0
H1778 H 0.29101 0.533 0.21866 0.0
H1779 H 0.24764 0.52358 0.26458 0.0
H1780 H 0.24078 0.44184 0.28762 0.0
H1781 H 0.24068 0.46704 0.2664 0.0
H1782 H 0.2836 0.4816 0.23622 0.0
C1783 C 0.28005 0.53945 0.21733 0.0
C1784 C 0.25536 0.51452 0.25776 0.0
C1785 C 0.2801 0.55374 0.20507 0.0
C1786 C 0.25162 0.44853 0.28633 0.0
C1787 C 0.25153 0.46296 0.27435 0.0
C1788 C 0.27566 0.49071 0.24238 0.0
C1789 C 0.26607 0.53359 0.22748 0.0
C1790 C 0.26576 0.51771 0.23909 0.0
C1791 C 0.26533 0.47208 0.27273 0.0
C1792 C 0.2652 0.48762 0.26082 0.0
H1793 H 0.24165 0.56407 0.21271 0.0
H1794 H 0.24125 0.53886 0.23305 0.0
H1795 H 0.2837 0.50717 0.21681 0.0
H1796 H 0.29002 0.44846 0.30399 0.0
H1797 H 0.29001 0.4733 0.28217 0.0
C1798 C 0.5581 0.25156 0.28638 0.0
C1799 C 0.56325 0.26553 0.29718 0.0
C1800 C 0.54369 0.25116 0.27438 0.0
C1801 C 0.51543 0.27469 0.24225 0.0
H1802 H 0.48322 0.2461 0.265 0.0
C1803 C 0.45204 0.2784 0.20661 0.0
C1804 C 0.44313 0.26452 0.20467 0.0
C1805 C 0.46645 0.27844 0.21849 0.0
C1806 C 0.4921 0.25397 0.25804 0.0
H1807 H 0.55772 0.29015 0.30314 0.0
H1808 H 0.5329 0.2896 0.28126 0.0
H1809 H 0.50938 0.2459 0.28275 0.0
H1810 H 0.44223 0.23978 0.21379 0.0
H1811 H 0.4677 0.23954 0.23357 0.0
H1812 H 0.49865 0.2824 0.21693 0.0
C1813 C 0.53987 0.27893 0.28246 0.0
C1814 C 0.50708 0.25388 0.26835 0.0
C1815 C 0.55405 0.27923 0.29495 0.0
C1816 C 0.44879 0.2507 0.21524 0.0
C1817 C 0.46342 0.25061 0.22667 0.0
C1818 C 0.50059 0.27455 0.23156 0.0
C1819 C 0.53441 0.26483 0.27245 0.0
C1820 C 0.51883 0.26434 0.2607 0.0
C1821 C 0.47259 0.26446 0.22824 0.0
C1822 C 0.48859 0.26432 0.23945 0.0
H1823 H 0.56488 0.24079 0.288 0.0
H1824 H 0.53974 0.24017 0.26672 0.0
H1825 H 0.52434 0.28279 0.23593 0.0
H1826 H 0.4479 0.28928 0.19878 0.0
H1827 H 0.47277 0.28948 0.21987 0.0
C1828 C 0.72503 0.5521 0.29553 0.0
C1829 C 0.73877 0.56125 0.29706 0.0
C1830 C 0.72508 0.5377 0.28358 0.0
C1831 C 0.74957 0.51251 0.24325 0.0
H1832 H 0.72134 0.47979 0.26544 0.0
C1833 C 0.75287 0.44651 0.21484 0.0
C1834 C 0.73901 0.44123 0.20386 0.0
C1835 C 0.75306 0.46091 0.22689 0.0
C1836 C 0.72928 0.48884 0.2591 0.0
H1837 H 0.76337 0.56255 0.28722 0.0
H1838 H 0.76379 0.53712 0.26741 0.0
H1839 H 0.72147 0.50542 0.28465 0.0
H1840 H 0.71438 0.44655 0.19762 0.0
H1841 H 0.71457 0.47136 0.21959 0.0
H1842 H 0.75777 0.49542 0.21833 0.0
C1843 C 0.75273 0.5412 0.27462 0.0
C1844 C 0.72927 0.50365 0.26991 0.0
C1845 C 0.75255 0.55582 0.28609 0.0
C1846 C 0.72522 0.45032 0.20594 0.0
C1847 C 0.72532 0.46449 0.21849 0.0
C1848 C 0.74983 0.49756 0.23283 0.0
C1849 C 0.73902 0.5318 0.27338 0.0
C1850 C 0.73929 0.51583 0.26201 0.0
C1851 C 0.73931 0.47007 0.22869 0.0
C1852 C 0.73958 0.48564 0.24052 0.0
H1853 H 0.71419 0.55605 0.30368 0.0
H1854 H 0.71413 0.5312 0.2825 0.0
H1855 H 0.75727 0.52152 0.23624 0.0
H1856 H 0.7637 0.43982 0.21335 0.0
H1857 H 0.76398 0.46495 0.23469 0.0
C1858 C 0.44731 0.75392 0.28575 0.0
C1859 C 0.44192 0.74 0.29646 0.0
C1860 C 0.46178 0.75413 0.27386 0.0
C1861 C 0.48988 0.73014 0.24192 0.0
H1862 H 0.52237 0.75835 0.26478 0.0
C1863 C 0.55337 0.72575 0.20632 0.0
C1864 C 0.56244 0.73953 0.20454 0.0
C1865 C 0.53893 0.72583 0.21819 0.0
C1866 C 0.51343 0.75058 0.25777 0.0
H1867 H 0.44711 0.7153 0.30236 0.0
H1868 H 0.47202 0.71554 0.2807 0.0
H1869 H 0.49615 0.75896 0.28229 0.0
H1870 H 0.56357 0.76423 0.21395 0.0
H1871 H 0.53811 0.76467 0.23365 0.0
H1872 H 0.50666 0.72213 0.21679 0.0
C1873 C 0.4652 0.72631 0.28187 0.0
C1874 C 0.4984 0.75091 0.26796 0.0
C1875 C 0.45096 0.72619 0.29426 0.0
C1876 C 0.55691 0.75336 0.21527 0.0
C1877 C 0.54227 0.75356 0.22667 0.0
C1878 C 0.50478 0.73005 0.23135 0.0
C1879 C 0.47089 0.74034 0.27194 0.0
C1880 C 0.48654 0.7406 0.26027 0.0
C1881 C 0.53292 0.73983 0.22809 0.0
C1882 C 0.51689 0.74014 0.23925 0.0
H1883 H 0.44066 0.76477 0.28734 0.0
H1884 H 0.46591 0.76508 0.26627 0.0
H1885 H 0.48089 0.72214 0.23558 0.0
H1886 H 0.55738 0.71487 0.19834 0.0
H1887 H 0.53247 0.71486 0.21942 0.0
C1888 C 0.19139 0.1384 0.18243 0.0
C1889 C 0.20209 0.12695 0.19061 0.0
C1890 C 0.18116 0.1461 0.19768 0.0
C1891 C 0.17593 0.15625 0.25993 0.0
H1892 H 0.13436 0.1691 0.23885 0.0
C1893 C 0.13268 0.18811 0.32101 0.0
C1894 C 0.1254 0.20183 0.31228 0.0
C1895 C 0.1407 0.17784 0.30617 0.0
C1896 C 0.14597 0.16568 0.24491 0.0
H1897 H 0.21006 0.11445 0.22148 0.0
H1898 H 0.19183 0.12775 0.24826 0.0
H1899 H 0.15071 0.15248 0.21383 0.0
H1900 H 0.12024 0.21502 0.28072 0.0
H1901 H 0.13431 0.1969 0.25459 0.0
H1902 H 0.17112 0.16942 0.29105 0.0
C1903 C 0.19164 0.13091 0.22992 0.0
C1904 C 0.15537 0.15615 0.23059 0.0
C1905 C 0.20203 0.12321 0.21457 0.0
C1906 C 0.12571 0.20458 0.28804 0.0
C1907 C 0.13376 0.1942 0.27308 0.0
C1908 C 0.16648 0.16566 0.27431 0.0
C1909 C 0.18113 0.14254 0.22164 0.0
C1910 C 0.17057 0.15149 0.23777 0.0
C1911 C 0.14166 0.18092 0.28212 0.0
C1912 C 0.15145 0.1706 0.26689 0.0
H1913 H 0.19107 0.14176 0.16416 0.0
H1914 H 0.17354 0.15519 0.19066 0.0
H1915 H 0.18764 0.15315 0.26591 0.0
H1916 H 0.13251 0.18541 0.33952 0.0
H1917 H 0.14635 0.16753 0.3136 0.0
C1918 C 0.87933 0.20514 0.21454 0.0
C1919 C 0.87983 0.20217 0.19036 0.0
C1920 C 0.87112 0.19493 0.22955 0.0
C1921 C 0.83849 0.1662 0.22832 0.0
H1922 H 0.8537 0.15403 0.28957 0.0
C1923 C 0.80297 0.12396 0.28847 0.0
C1924 C 0.80255 0.12804 0.3123 0.0
C1925 C 0.81336 0.13167 0.27313 0.0
C1926 C 0.8492 0.15742 0.27258 0.0
H1927 H 0.87286 0.18556 0.1633 0.0
H1928 H 0.85878 0.16794 0.18931 0.0
H1929 H 0.87018 0.17041 0.26442 0.0
H1930 H 0.81288 0.14352 0.33852 0.0
H1931 H 0.83043 0.15694 0.31202 0.0
H1932 H 0.81736 0.15358 0.23659 0.0
C1933 C 0.86438 0.1783 0.19666 0.0
C1934 C 0.85867 0.16681 0.25819 0.0
C1935 C 0.87255 0.18842 0.18175 0.0
C1936 C 0.81285 0.13989 0.32036 0.0
C1937 C 0.8231 0.14758 0.30512 0.0
C1938 C 0.82897 0.1569 0.24275 0.0
C1939 C 0.86326 0.18158 0.22063 0.0
C1940 C 0.85339 0.17138 0.23594 0.0
C1941 C 0.82351 0.14364 0.2813 0.0
C1942 C 0.83413 0.1525 0.26517 0.0
H1943 H 0.88479 0.21561 0.22176 0.0
H1944 H 0.87044 0.19779 0.24797 0.0
H1945 H 0.83398 0.16968 0.21136 0.0
H1946 H 0.79524 0.11489 0.28165 0.0
H1947 H 0.81346 0.12823 0.2549 0.0
C1948 C 0.87928 0.80023 0.28577 0.0
C1949 C 0.87977 0.803 0.31001 0.0
C1950 C 0.87137 0.81076 0.2709 0.0
C1951 C 0.83925 0.83997 0.27253 0.0
H1952 H 0.8548 0.85261 0.21166 0.0
C1953 C 0.80378 0.88252 0.21293 0.0
C1954 C 0.80345 0.8786 0.18904 0.0
C1955 C 0.81426 0.87485 0.22818 0.0
C1956 C 0.8502 0.8491 0.22854 0.0
H1957 H 0.87318 0.81959 0.33731 0.0
H1958 H 0.85959 0.83775 0.31152 0.0
H1959 H 0.87102 0.83579 0.23655 0.0
H1960 H 0.81415 0.86356 0.16258 0.0
H1961 H 0.83182 0.85018 0.1889 0.0
H1962 H 0.81826 0.85283 0.26438 0.0
C1963 C 0.86497 0.82732 0.30403 0.0
C1964 C 0.85953 0.83945 0.24278 0.0
C1965 C 0.87285 0.81688 0.3188 0.0
C1966 C 0.81402 0.86705 0.1808 0.0
C1967 C 0.82434 0.85938 0.19594 0.0
C1968 C 0.82987 0.8495 0.25823 0.0
C1969 C 0.86381 0.82423 0.28001 0.0
C1970 C 0.85413 0.83471 0.26489 0.0
C1971 C 0.82459 0.86307 0.21986 0.0
C1972 C 0.83514 0.85407 0.23593 0.0
H1973 H 0.88447 0.78967 0.27842 0.0
H1974 H 0.87064 0.80806 0.25242 0.0
H1975 H 0.83466 0.83636 0.28938 0.0
H1976 H 0.79585 0.89137 0.21989 0.0
H1977 H 0.81425 0.87813 0.24648 0.0
C1978 C 0.18666 0.87257 0.32001 0.0
C1979 C 0.20068 0.87942 0.31154 0.0
C1980 C 0.17657 0.86437 0.30511 0.0
C1981 C 0.16599 0.85757 0.24339 0.0
H1982 H 0.15184 0.81689 0.26631 0.0
C1983 C 0.13995 0.81085 0.18206 0.0
C1984 C 0.12766 0.80099 0.18986 0.0
C1985 C 0.14751 0.82119 0.19728 0.0
C1986 C 0.15542 0.82832 0.25977 0.0
H1987 H 0.2146 0.88363 0.28037 0.0
H1988 H 0.19684 0.86921 0.25417 0.0
H1989 H 0.16761 0.83387 0.29147 0.0
H1990 H 0.11367 0.79446 0.22008 0.0
H1991 H 0.12682 0.81285 0.24684 0.0
H1992 H 0.15383 0.85204 0.21168 0.0
C1993 C 0.19374 0.87026 0.27247 0.0
C1994 C 0.16453 0.83805 0.27417 0.0
C1995 C 0.20392 0.87852 0.28747 0.0
C1996 C 0.12309 0.80185 0.21347 0.0
C1997 C 0.13068 0.81234 0.22881 0.0
C1998 C 0.1568 0.84788 0.22903 0.0
C1999 C 0.18015 0.86277 0.28128 0.0
C2000 C 0.17005 0.85273 0.26607 0.0
C2001 C 0.14299 0.82214 0.22084 0.0
C2002 C 0.15158 0.83302 0.23691 0.0
H2003 H 0.18361 0.87322 0.33838 0.0
H2004 H 0.16602 0.85907 0.31236 0.0
H2005 H 0.16985 0.8689 0.23677 0.0
H2006 H 0.14399 0.81048 0.1641 0.0
H2007 H 0.15717 0.82821 0.19059 0.0
C2008 C 0.88043 0.80182 0.71268 0.0
C2009 C 0.87616 0.80135 0.68893 0.0
C2010 C 0.87288 0.81228 0.72809 0.0
C2011 C 0.84756 0.84838 0.72874 0.0
H2012 H 0.83591 0.83383 0.79058 0.0
C2013 C 0.80085 0.87942 0.7875 0.0
C2014 C 0.80397 0.87992 0.81164 0.0
C2015 C 0.81091 0.87112 0.77238 0.0
C2016 C 0.83924 0.83815 0.77346 0.0
H2017 H 0.86041 0.81154 0.66297 0.0
H2018 H 0.84726 0.82924 0.68961 0.0
H2019 H 0.85142 0.81677 0.76517 0.0
H2020 H 0.82072 0.87295 0.83849 0.0
H2021 H 0.83812 0.85873 0.81224 0.0
H2022 H 0.835 0.86963 0.73692 0.0
C2023 C 0.85667 0.8219 0.69637 0.0
C2024 C 0.84819 0.82838 0.7589 0.0
C2025 C 0.8642 0.81158 0.68105 0.0
C2026 C 0.81777 0.87263 0.82006 0.0
C2027 C 0.82775 0.86438 0.80504 0.0
C2028 C 0.83852 0.85812 0.74325 0.0
C2029 C 0.86088 0.82245 0.72008 0.0
C2030 C 0.85235 0.83329 0.73626 0.0
C2031 C 0.82426 0.86319 0.78112 0.0
C2032 C 0.83418 0.85308 0.76574 0.0
H2033 H 0.8896 0.79415 0.71935 0.0
H2034 H 0.87652 0.81247 0.74624 0.0
H2035 H 0.85078 0.85269 0.71157 0.0
H2036 H 0.79033 0.88487 0.78043 0.0
H2037 H 0.80789 0.87039 0.75401 0.0
C2038 C 0.2017 0.88138 0.71437 0.0
C2039 C 0.20505 0.87552 0.6919 0.0
C2040 C 0.19163 0.87299 0.72945 0.0
C2041 C 0.17566 0.83284 0.73923 0.0
H2042 H 0.14156 0.85383 0.77189 0.0
C2043 C 0.12689 0.79711 0.78497 0.0
C2044 C 0.12345 0.8018 0.80797 0.0
C2045 C 0.1358 0.80692 0.77031 0.0
C2046 C 0.15108 0.84781 0.76298 0.0
H2047 H 0.20072 0.85603 0.66802 0.0
H2048 H 0.18345 0.8417 0.69396 0.0
H2049 H 0.16037 0.86942 0.74909 0.0
H2050 H 0.12562 0.82093 0.83299 0.0
H2051 H 0.14099 0.83794 0.8075 0.0
H2052 H 0.16648 0.81127 0.753 0.0
C2053 C 0.18851 0.85268 0.70008 0.0
C2054 C 0.1619 0.85676 0.75005 0.0
C2055 C 0.19835 0.86104 0.68508 0.0
C2056 C 0.12819 0.8169 0.81542 0.0
C2057 C 0.13694 0.82672 0.80075 0.0
C2058 C 0.16487 0.82393 0.75209 0.0
C2059 C 0.18498 0.85851 0.72242 0.0
C2060 C 0.17423 0.84934 0.73784 0.0
C2061 C 0.14127 0.82167 0.77828 0.0
C2062 C 0.15238 0.83127 0.76398 0.0
H2063 H 0.20667 0.89248 0.72013 0.0
H2064 H 0.18916 0.87774 0.74665 0.0
H2065 H 0.18518 0.82679 0.73034 0.0
H2066 H 0.12344 0.78556 0.77873 0.0
H2067 H 0.13874 0.8028 0.75292 0.0
C2068 C 0.12424 0.20371 0.71458 0.0
C2069 C 0.12835 0.2043 0.69077 0.0
C2070 C 0.13204 0.19333 0.72982 0.0
C2071 C 0.15779 0.15754 0.72989 0.0
H2072 H 0.16979 0.17215 0.79155 0.0
C2073 C 0.20502 0.12665 0.78797 0.0
C2074 C 0.20199 0.12608 0.81213 0.0
C2075 C 0.19489 0.13497 0.77298 0.0
C2076 C 0.16638 0.16781 0.77447 0.0
H2077 H 0.14405 0.19438 0.6645 0.0
H2078 H 0.15762 0.1768 0.69085 0.0
H2079 H 0.15391 0.18908 0.76646 0.0
H2080 H 0.18532 0.13299 0.83915 0.0
H2081 H 0.16783 0.14725 0.81316 0.0
H2082 H 0.1706 0.1364 0.7378 0.0
C2083 C 0.14817 0.184 0.69779 0.0
C2084 C 0.15721 0.17751 0.76011 0.0
C2085 C 0.14039 0.19426 0.68265 0.0
C2086 C 0.18822 0.13335 0.82071 0.0
C2087 C 0.17818 0.14162 0.80582 0.0
C2088 C 0.16704 0.14788 0.74422 0.0
C2089 C 0.14412 0.18334 0.72156 0.0
C2090 C 0.15291 0.17257 0.73754 0.0
C2091 C 0.18156 0.14286 0.78188 0.0
C2092 C 0.17151 0.15293 0.76664 0.0
H2093 H 0.11501 0.21123 0.72143 0.0
H2094 H 0.12854 0.19304 0.74802 0.0
H2095 H 0.15448 0.15322 0.71277 0.0
H2096 H 0.2155 0.12119 0.78078 0.0
H2097 H 0.19782 0.13573 0.75458 0.0
C2098 C 0.88098 0.20317 0.78786 0.0
C2099 C 0.87726 0.20313 0.81183 0.0
C2100 C 0.87335 0.19277 0.77246 0.0
C2101 C 0.84864 0.15622 0.77149 0.0
H2102 H 0.83504 0.1721 0.71127 0.0
C2103 C 0.801 0.12573 0.71368 0.0
C2104 C 0.80372 0.12567 0.68942 0.0
C2105 C 0.81115 0.13398 0.72872 0.0
C2106 C 0.8389 0.16741 0.72793 0.0
H2107 H 0.86258 0.19191 0.83825 0.0
H2108 H 0.84928 0.17432 0.81164 0.0
H2109 H 0.85101 0.18875 0.7366 0.0
H2110 H 0.81985 0.1335 0.66222 0.0
H2111 H 0.83735 0.14766 0.68829 0.0
H2112 H 0.83614 0.135 0.76295 0.0
C2113 C 0.85829 0.18206 0.80467 0.0
C2114 C 0.84813 0.17695 0.74243 0.0
C2115 C 0.8659 0.19232 0.81997 0.0
C2116 C 0.81718 0.13345 0.68074 0.0
C2117 C 0.82724 0.14166 0.69568 0.0
C2118 C 0.83931 0.14672 0.75705 0.0
C2119 C 0.86183 0.18214 0.7807 0.0
C2120 C 0.85302 0.17154 0.7645 0.0
C2121 C 0.82419 0.14232 0.71976 0.0
C2122 C 0.83428 0.15223 0.73514 0.0
H2123 H 0.88968 0.21128 0.78098 0.0
H2124 H 0.8765 0.19305 0.75411 0.0
H2125 H 0.85241 0.15154 0.7882 0.0
H2126 H 0.79076 0.11987 0.72096 0.0
H2127 H 0.80848 0.1343 0.74723 0.0
C2128 C 0.68578 0.62779 0.68489 0.0
C2129 C 0.70148 0.62488 0.69144 0.0
C2130 C 0.67561 0.63602 0.6997 0.0
C2131 C 0.67104 0.65133 0.76052 0.0
H2132 H 0.64214 0.6803 0.73024 0.0
C2133 C 0.62683 0.68731 0.81473 0.0
C2134 C 0.62413 0.70306 0.80823 0.0
C2135 C 0.6349 0.67705 0.79986 0.0
C2136 C 0.65021 0.67239 0.73904 0.0
H2137 H 0.7187 0.62784 0.71902 0.0
H2138 H 0.7011 0.64266 0.74476 0.0
H2139 H 0.65933 0.66386 0.70661 0.0
H2140 H 0.62729 0.72028 0.78068 0.0
H2141 H 0.64184 0.70251 0.75486 0.0
H2142 H 0.66255 0.66047 0.79295 0.0
C2143 C 0.69649 0.6383 0.72833 0.0
C2144 C 0.65994 0.66272 0.72544 0.0
C2145 C 0.70662 0.62981 0.7136 0.0
C2146 C 0.62909 0.70816 0.78606 0.0
C2147 C 0.63743 0.69794 0.77128 0.0
C2148 C 0.66145 0.66112 0.77412 0.0
C2149 C 0.68093 0.64183 0.72134 0.0
C2150 C 0.67047 0.65201 0.73598 0.0
C2151 C 0.64077 0.68233 0.77823 0.0
C2152 C 0.65085 0.67177 0.76359 0.0
H2153 H 0.68142 0.62397 0.668 0.0
H2154 H 0.66362 0.63803 0.69396 0.0
H2155 H 0.67885 0.64316 0.76932 0.0
H2156 H 0.62299 0.68299 0.83162 0.0
H2157 H 0.63677 0.66502 0.80557 0.0
C2158 C 0.29805 0.62881 0.78541 0.0
C2159 C 0.303 0.62384 0.80764 0.0
C2160 C 0.30833 0.63731 0.7709 0.0
C2161 C 0.34476 0.66181 0.77478 0.0
H2162 H 0.34275 0.65994 0.7072 0.0
C2163 C 0.37566 0.70788 0.71522 0.0
C2164 C 0.38084 0.70292 0.69309 0.0
C2165 C 0.36732 0.69749 0.72977 0.0
C2166 C 0.34368 0.66049 0.72606 0.0
H2167 H 0.32286 0.62282 0.83143 0.0
H2168 H 0.34092 0.63688 0.80586 0.0
H2169 H 0.32635 0.64239 0.73029 0.0
H2170 H 0.38242 0.68295 0.66955 0.0
H2171 H 0.36865 0.66473 0.6952 0.0
H2172 H 0.36246 0.67955 0.77055 0.0
C2173 C 0.32897 0.6349 0.79988 0.0
C2174 C 0.33403 0.65055 0.73934 0.0
C2175 C 0.31866 0.62666 0.81447 0.0
C2176 C 0.37839 0.68716 0.68642 0.0
C2177 C 0.37033 0.67675 0.70105 0.0
C2178 C 0.35453 0.67163 0.76149 0.0
C2179 C 0.32383 0.6408 0.77821 0.0
C2180 C 0.33439 0.65109 0.7639 0.0
C2181 C 0.36422 0.68188 0.72261 0.0
C2182 C 0.3541 0.67116 0.73693 0.0
H2183 H 0.286 0.62693 0.77979 0.0
H2184 H 0.30386 0.64173 0.75442 0.0
H2185 H 0.34519 0.66284 0.79363 0.0
H2186 H 0.37726 0.72 0.72072 0.0
H2187 H 0.36273 0.70195 0.74615 0.0
C2188 C 0.37451 0.31709 0.81802 0.0
C2189 C 0.38037 0.30253 0.80999 0.0
C2190 C 0.36606 0.32703 0.8032 0.0
C2191 C 0.35643 0.33546 0.74144 0.0
H2192 H 0.31778 0.35244 0.76771 0.0
C2193 C 0.3077 0.36095 0.68329 0.0
C2194 C 0.2993 0.3744 0.69064 0.0
C2195 C 0.31822 0.35336 0.69819 0.0
C2196 C 0.32864 0.34803 0.76019 0.0
H2197 H 0.3826 0.28742 0.77961 0.0
H2198 H 0.3677 0.30486 0.75355 0.0
H2199 H 0.33549 0.33703 0.79228 0.0
H2200 H 0.29534 0.39024 0.7198 0.0
H2201 H 0.31402 0.37695 0.74601 0.0
H2202 H 0.34955 0.34638 0.70932 0.0
C2203 C 0.36974 0.30855 0.77143 0.0
C2204 C 0.3388 0.33915 0.77426 0.0
C2205 C 0.37828 0.29855 0.78633 0.0
C2206 C 0.3016 0.37992 0.71357 0.0
C2207 C 0.31227 0.37229 0.72858 0.0
C2208 C 0.3463 0.34439 0.72739 0.0
C2209 C 0.36318 0.32271 0.77991 0.0
C2210 C 0.35274 0.33263 0.76501 0.0
C2211 C 0.3208 0.35896 0.72094 0.0
C2212 C 0.33216 0.35061 0.73649 0.0
H2213 H 0.37611 0.32068 0.83605 0.0
H2214 H 0.36153 0.33802 0.81014 0.0
H2215 H 0.36718 0.33082 0.73387 0.0
H2216 H 0.30612 0.35613 0.6659 0.0
H2217 H 0.32421 0.34291 0.69188 0.0
C2218 C 0.62457 0.30113 0.7139 0.0
C2219 C 0.62954 0.29952 0.69056 0.0
C2220 C 0.63221 0.31176 0.72897 0.0
C2221 C 0.65903 0.34669 0.72801 0.0
H2222 H 0.66824 0.33462 0.79189 0.0
C2223 C 0.70532 0.37858 0.78632 0.0
C2224 C 0.70175 0.38011 0.81022 0.0
C2225 C 0.69525 0.37008 0.77147 0.0
C2226 C 0.6656 0.33827 0.77417 0.0
H2227 H 0.64681 0.30761 0.66509 0.0
H2228 H 0.66008 0.3256 0.69117 0.0
H2229 H 0.65278 0.31702 0.7672 0.0
H2230 H 0.68423 0.37487 0.83683 0.0
H2231 H 0.66678 0.36033 0.81104 0.0
H2232 H 0.67216 0.36779 0.73489 0.0
C2233 C 0.65004 0.31909 0.69779 0.0
C2234 C 0.65669 0.32818 0.76003 0.0
C2235 C 0.64242 0.30862 0.68282 0.0
C2236 C 0.68751 0.37372 0.8186 0.0
C2237 C 0.67751 0.36529 0.80384 0.0
C2238 C 0.66801 0.35674 0.74212 0.0
C2239 C 0.64501 0.32093 0.721 0.0
C2240 C 0.65343 0.33217 0.73668 0.0
C2241 C 0.68143 0.36299 0.78025 0.0
C2242 C 0.67149 0.3526 0.76532 0.0
H2243 H 0.61469 0.29433 0.72044 0.0
H2244 H 0.62798 0.31293 0.74675 0.0
H2245 H 0.65651 0.35029 0.71024 0.0
H2246 H 0.7162 0.38332 0.77931 0.0
H2247 H 0.69863 0.36849 0.75336 0.0
C2248 C 0.37602 0.29731 0.21629 0.0
C2249 C 0.38113 0.30224 0.19412 0.0
C2250 C 0.36768 0.30769 0.23084 0.0
C2251 C 0.34385 0.34456 0.22705 0.0
H2252 H 0.34561 0.34247 0.29463 0.0
C2253 C 0.29829 0.37624 0.28653 0.0
C2254 C 0.30332 0.38135 0.30865 0.0
C2255 C 0.30854 0.36773 0.272 0.0
C2256 C 0.3451 0.34342 0.27576 0.0
H2257 H 0.38257 0.32215 0.17047 0.0
H2258 H 0.36878 0.34038 0.1961 0.0
H2259 H 0.36287 0.32575 0.27154 0.0
H2260 H 0.32328 0.38259 0.33223 0.0
H2261 H 0.3413 0.3685 0.30662 0.0
H2262 H 0.32644 0.36259 0.23127 0.0
C2263 C 0.37053 0.32838 0.202 0.0
C2264 C 0.35487 0.3336 0.26249 0.0
C2265 C 0.3786 0.31797 0.18738 0.0
C2266 C 0.31902 0.37864 0.31535 0.0
C2267 C 0.32931 0.37039 0.30074 0.0
C2268 C 0.3342 0.3545 0.24032 0.0
C2269 C 0.36449 0.32327 0.22361 0.0
C2270 C 0.35436 0.33399 0.23793 0.0
C2271 C 0.3241 0.36436 0.27919 0.0
C2272 C 0.33465 0.35406 0.26488 0.0
H2273 H 0.37769 0.28521 0.22184 0.0
H2274 H 0.36315 0.30326 0.24727 0.0
H2275 H 0.34285 0.34503 0.20819 0.0
H2276 H 0.28621 0.37804 0.28101 0.0
H2277 H 0.30403 0.36321 0.25561 0.0
C2278 C 0.62641 0.29995 0.2879 0.0
C2279 C 0.62681 0.30238 0.31222 0.0
C2280 C 0.63459 0.31015 0.27281 0.0
C2281 C 0.66848 0.33736 0.27297 0.0
H2282 H 0.65154 0.35225 0.21408 0.0
C2283 C 0.70362 0.38013 0.21338 0.0
C2284 C 0.70308 0.37688 0.18928 0.0
C2285 C 0.69337 0.37237 0.22887 0.0
C2286 C 0.65652 0.34809 0.23038 0.0
H2287 H 0.63547 0.31801 0.33952 0.0
H2288 H 0.6495 0.33555 0.31338 0.0
H2289 H 0.63532 0.3357 0.23939 0.0
H2290 H 0.69107 0.36298 0.1627 0.0
H2291 H 0.67375 0.34944 0.18944 0.0
H2292 H 0.68978 0.34937 0.26384 0.0
C2293 C 0.64318 0.32564 0.30596 0.0
C2294 C 0.64719 0.3386 0.24486 0.0
C2295 C 0.63504 0.31556 0.32094 0.0
C2296 C 0.69189 0.36591 0.18109 0.0
C2297 C 0.68178 0.35816 0.19648 0.0
C2298 C 0.67783 0.34675 0.25843 0.0
C2299 C 0.64333 0.32291 0.28178 0.0
C2300 C 0.65309 0.33308 0.26629 0.0
C2301 C 0.6824 0.36119 0.22059 0.0
C2302 C 0.67203 0.35215 0.23686 0.0
H2303 H 0.6202 0.28995 0.28057 0.0
H2304 H 0.63451 0.30772 0.25421 0.0
H2305 H 0.67345 0.33313 0.28925 0.0
H2306 H 0.71203 0.38853 0.2203 0.0
H2307 H 0.69406 0.37512 0.24733 0.0
C2308 C 0.70433 0.6256 0.28528 0.0
C2309 C 0.70075 0.62376 0.30912 0.0
C2310 C 0.69405 0.63394 0.27055 0.0
C2311 C 0.66373 0.66501 0.27384 0.0
H2312 H 0.65499 0.6535 0.2096 0.0
C2313 C 0.62289 0.70261 0.21386 0.0
C2314 C 0.62809 0.70448 0.19068 0.0
C2315 C 0.63039 0.69179 0.2288 0.0
C2316 C 0.6574 0.65696 0.22747 0.0
H2317 H 0.683 0.6282 0.33572 0.0
H2318 H 0.6652 0.64247 0.31013 0.0
H2319 H 0.67084 0.636 0.23395 0.0
H2320 H 0.64557 0.69663 0.16536 0.0
H2321 H 0.65856 0.67834 0.19119 0.0
H2322 H 0.65066 0.68616 0.26726 0.0
C2323 C 0.67608 0.63788 0.3029 0.0
C2324 C 0.66649 0.6469 0.2414 0.0
C2325 C 0.68629 0.62961 0.31754 0.0
C2326 C 0.64101 0.69542 0.18295 0.0
C2327 C 0.64846 0.68477 0.19779 0.0
C2328 C 0.65472 0.67512 0.25987 0.0
C2329 C 0.68001 0.64054 0.2794 0.0
C2330 C 0.66987 0.65087 0.26469 0.0
C2331 C 0.64324 0.68269 0.22085 0.0
C2332 C 0.6516 0.67133 0.23641 0.0
H2333 H 0.71538 0.62128 0.27826 0.0
H2334 H 0.69743 0.63582 0.2525 0.0
H2335 H 0.66628 0.66852 0.29165 0.0
H2336 H 0.61299 0.70938 0.22038 0.0
H2337 H 0.62601 0.69044 0.24648 0.0
C2338 C 0.30244 0.62351 0.21284 0.0
C2339 C 0.30133 0.6282 0.18931 0.0
C2340 C 0.3129 0.63122 0.22811 0.0
C2341 C 0.34791 0.65804 0.228 0.0
H2342 H 0.33423 0.66834 0.29079 0.0
C2343 C 0.37802 0.70564 0.28617 0.0
C2344 C 0.37924 0.70232 0.31018 0.0
C2345 C 0.36983 0.69534 0.27126 0.0
C2346 C 0.33832 0.6654 0.27338 0.0
H2347 H 0.31028 0.64491 0.16364 0.0
H2348 H 0.32792 0.65828 0.19001 0.0
H2349 H 0.31736 0.65228 0.26583 0.0
H2350 H 0.37368 0.68501 0.33699 0.0
H2351 H 0.35966 0.66722 0.31113 0.0
H2352 H 0.3687 0.67153 0.23543 0.0
C2353 C 0.32115 0.64843 0.19668 0.0
C2354 C 0.32866 0.65613 0.2591 0.0
C2355 C 0.31086 0.64075 0.18153 0.0
C2356 C 0.37278 0.68813 0.31867 0.0
C2357 C 0.36465 0.67791 0.30387 0.0
C2358 C 0.35752 0.6674 0.24224 0.0
C2359 C 0.32239 0.64378 0.22015 0.0
C2360 C 0.33324 0.65248 0.23611 0.0
C2361 C 0.36274 0.68155 0.28012 0.0
C2362 C 0.35279 0.67128 0.26504 0.0
H2363 H 0.2953 0.6139 0.21943 0.0
H2364 H 0.31362 0.62726 0.24608 0.0
H2365 H 0.35198 0.65522 0.21054 0.0
H2366 H 0.38283 0.71646 0.27907 0.0
H2367 H 0.36853 0.69849 0.25301 0.0
loop_
_geom_bond_atom_site_label_1
_geom_bond_atom_site_label_2
_geom_bond_distance
_geom_bond_site_symmetry_2
_ccdc_geom_bond_type
Co0 O1 2.216 . S
Co0 O2 2.091 . S
Co0 O4 2.004 . S
Co0 O10 2.021 . S
Co0 O12 2.137 . S
Co0 O13 2.244 . S
O1 Co0 2.216 . S
O1 C8 1.247 . S
O2 Co0 2.091 . S
O2 C8 1.261 . S
C3 O12 1.247 . S
C3 O13 1.272 . S
O4 Co0 2.004 . S
O4 C9 1.259 . S
Co5 O6 2.061 . S
Co5 O11 2.052 . S
Co5 O13 2.135 . S
O6 Co5 2.061 . S
O6 C9 1.235 . S
C7 O10 1.238 . S
C7 O11 1.241 . S
C8 O1 1.247 . S
C8 O2 1.261 . S
C9 O4 1.259 . S
C9 O6 1.235 . S
O10 Co0 2.021 . S
O10 C7 1.238 . S
O11 Co5 2.052 . S
O11 C7 1.241 . S
O12 Co0 2.137 . S
O12 C3 1.247 . S
O13 Co0 2.244 . S
O13 C3 1.272 . S
O13 Co5 2.135 . S
Co14 O15 2.216 . S
Co14 O16 2.091 . S
Co14 O18 2.004 . S
Co14 O24 2.021 . S
Co14 O26 2.137 . S
Co14 O27 2.244 . S
O15 Co14 2.216 . S
O15 C22 1.247 . S
O16 Co14 2.091 . S
O16 C22 1.261 . S
C17 O26 1.247 . S
C17 O27 1.272 . S
O18 Co14 2.004 . S
O18 C23 1.259 . S
Co19 O20 2.061 . S
Co19 O25 2.052 . S
Co19 O27 2.135 . S
O20 Co19 2.061 . S
O20 C23 1.235 . S
C21 O24 1.238 . S
C21 O25 1.241 . S
C22 O15 1.247 . S
C22 O16 1.261 . S
C23 O18 1.259 . S
C23 O20 1.235 . S
O24 Co14 2.021 . S
O24 C21 1.238 . S
O25 Co19 2.052 . S
O25 C21 1.241 . S
O26 Co14 2.137 . S
O26 C17 1.247 . S
O27 Co14 2.244 . S
O27 C17 1.272 . S
O27 Co19 2.135 . S
Co28 O29 2.216 . S
Co28 O30 2.091 . S
Co28 O32 2.004 . S
Co28 O38 2.021 . S
Co28 O40 2.137 . S
Co28 O41 2.244 . S
O29 Co28 2.216 . S
O29 C36 1.247 . S
O30 Co28 2.091 . S
O30 C36 1.261 . S
C31 O40 1.247 . S
C31 O41 1.272 . S
O32 Co28 2.004 . S
O32 C37 1.259 . S
Co33 O34 2.061 . S
Co33 O39 2.052 . S
Co33 O41 2.135 . S
O34 Co33 2.061 . S
O34 C37 1.235 . S
C35 O38 1.238 . S
C35 O39 1.241 . S
C36 O29 1.247 . S
C36 O30 1.261 . S
C37 O32 1.259 . S
C37 O34 1.235 . S
O38 Co28 2.021 . S
O38 C35 1.238 . S
O39 Co33 2.052 . S
O39 C35 1.241 . S
O40 Co28 2.137 . S
O40 C31 1.247 . S
O41 Co28 2.244 . S
O41 C31 1.272 . S
O41 Co33 2.135 . S
Co42 O43 2.216 . S
Co42 O44 2.091 . S
Co42 O46 2.004 . S
Co42 O52 2.021 . S
Co42 O54 2.137 . S
Co42 O55 2.244 . S
O43 Co42 2.216 . S
O43 C50 1.247 . S
O44 Co42 2.091 . S
O44 C50 1.261 . S
C45 O54 1.247 . S
C45 O55 1.272 . S
O46 Co42 2.004 . S
O46 C51 1.259 . S
Co47 O48 2.061 . S
Co47 O53 2.052 . S
Co47 O55 2.135 . S
O48 Co47 2.061 . S
O48 C51 1.235 . S
C49 O52 1.238 . S
C49 O53 1.241 . S
C50 O43 1.247 . S
C50 O44 1.261 . S
C51 O46 1.259 . S
C51 O48 1.235 . S
O52 Co42 2.021 . S
O52 C49 1.238 . S
O53 Co47 2.052 . S
O53 C49 1.241 . S
O54 Co42 2.137 . S
O54 C45 1.247 . S
O55 Co42 2.244 . S
O55 C45 1.272 . S
O55 Co47 2.135 . S
Co56 O57 2.216 . S
Co56 O58 2.091 . S
Co56 O60 2.004 . S
Co56 O66 2.021 . S
Co56 O68 2.137 . S
Co56 O69 2.244 . S
O57 Co56 2.216 . S
O57 C64 1.247 . S
O58 Co56 2.091 . S
O58 C64 1.261 . S
C59 O68 1.247 . S
C59 O69 1.272 . S
O60 Co56 2.004 . S
O60 C65 1.259 . S
Co61 O62 2.061 . S
Co61 O67 2.052 . S
Co61 O69 2.135 . S
O62 Co61 2.061 . S
O62 C65 1.235 . S
C63 O66 1.238 . S
C63 O67 1.241 . S
C64 O57 1.247 . S
C64 O58 1.261 . S
C65 O60 1.259 . S
C65 O62 1.235 . S
O66 Co56 2.021 . S
O66 C63 1.238 . S
O67 Co61 2.052 . S
O67 C63 1.241 . S
O68 Co56 2.137 . S
O68 C59 1.247 . S
O69 Co56 2.244 . S
O69 C59 1.272 . S
O69 Co61 2.135 . S
Co70 O71 2.216 . S
Co70 O72 2.091 . S
Co70 O74 2.004 . S
Co70 O80 2.021 . S
Co70 O82 2.137 . S
Co70 O83 2.244 . S
O71 Co70 2.216 . S
O71 C78 1.247 . S
O72 Co70 2.091 . S
O72 C78 1.261 . S
C73 O82 1.247 . S
C73 O83 1.272 . S
O74 Co70 2.004 . S
O74 C79 1.259 . S
Co75 O76 2.061 . S
Co75 O81 2.052 . S
Co75 O83 2.135 . S
O76 Co75 2.061 . S
O76 C79 1.235 . S
C77 O80 1.238 . S
C77 O81 1.241 . S
C78 O71 1.247 . S
C78 O72 1.261 . S
C79 O74 1.259 . S
C79 O76 1.235 . S
O80 Co70 2.021 . S
O80 C77 1.238 . S
O81 Co75 2.052 . S
O81 C77 1.241 . S
O82 Co70 2.137 . S
O82 C73 1.247 . S
O83 Co70 2.244 . S
O83 C73 1.272 . S
O83 Co75 2.135 . S
Co84 O85 2.216 . S
Co84 O86 2.091 . S
Co84 O88 2.004 . S
Co84 O94 2.021 . S
Co84 O96 2.137 . S
Co84 O97 2.244 . S
O85 Co84 2.216 . S
O85 C92 1.247 . S
O86 Co84 2.091 . S
O86 C92 1.261 . S
C87 O96 1.247 . S
C87 O97 1.272 . S
O88 Co84 2.004 . S
O88 C93 1.259 . S
Co89 O90 2.061 . S
Co89 O95 2.052 . S
Co89 O97 2.135 . S
O90 Co89 2.061 . S
O90 C93 1.235 . S
C91 O94 1.238 . S
C91 O95 1.241 . S
C92 O85 1.247 . S
C92 O86 1.261 . S
C93 O88 1.259 . S
C93 O90 1.235 . S
O94 Co84 2.021 . S
O94 C91 1.238 . S
O95 Co89 2.052 . S
O95 C91 1.241 . S
O96 Co84 2.137 . S
O96 C87 1.247 . S
O97 Co84 2.244 . S
O97 C87 1.272 . S
O97 Co89 2.135 . S
Co98 O99 2.216 . S
Co98 O100 2.091 . S
Co98 O102 2.004 . S
Co98 O108 2.021 . S
Co98 O110 2.137 . S
Co98 O111 2.244 . S
O99 Co98 2.216 . S
O99 C106 1.247 . S
O100 Co98 2.091 . S
O100 C106 1.261 . S
C101 O110 1.247 . S
C101 O111 1.272 . S
O102 Co98 2.004 . S
O102 C107 1.259 . S
Co103 O104 2.061 . S
Co103 O109 2.052 . S
Co103 O111 2.135 . S
O104 Co103 2.061 . S
O104 C107 1.235 . S
C105 O108 1.238 . S
C105 O109 1.241 . S
C106 O99 1.247 . S
C106 O100 1.261 . S
C107 O102 1.259 . S
C107 O104 1.235 . S
O108 Co98 2.021 . S
O108 C105 1.238 . S
O109 Co103 2.052 . S
O109 C105 1.241 . S
O110 Co98 2.137 . S
O110 C101 1.247 . S
O111 Co98 2.244 . S
O111 C101 1.272 . S
O111 Co103 2.135 . S
Co112 O113 2.216 . S
Co112 O114 2.091 . S
Co112 O116 2.004 . S
Co112 O122 2.021 . S
Co112 O124 2.137 . S
Co112 O125 2.244 . S
O113 Co112 2.216 . S
O113 C120 1.247 . S
O114 Co112 2.091 . S
O114 C120 1.261 . S
C115 O124 1.247 . S
C115 O125 1.272 . S
O116 Co112 2.004 . S
O116 C121 1.259 . S
Co117 O118 2.061 . S
Co117 O123 2.052 . S
Co117 O125 2.135 . S
O118 Co117 2.061 . S
O118 C121 1.235 . S
C119 O122 1.238 . S
C119 O123 1.241 . S
C120 O113 1.247 . S
C120 O114 1.261 . S
C121 O116 1.259 . S
C121 O118 1.235 . S
O122 Co112 2.021 . S
O122 C119 1.238 . S
O123 Co117 2.052 . S
O123 C119 1.241 . S
O124 Co112 2.137 . S
O124 C115 1.247 . S
O125 Co112 2.244 . S
O125 C115 1.272 . S
O125 Co117 2.135 . S
Co126 O127 2.216 . S
Co126 O128 2.091 . S
Co126 O130 2.004 . S
Co126 O136 2.021 . S
Co126 O138 2.137 . S
Co126 O139 2.244 . S
O127 Co126 2.216 . S
O127 C134 1.247 . S
O128 Co126 2.091 . S
O128 C134 1.261 . S
C129 O138 1.247 . S
C129 O139 1.272 . S
O130 Co126 2.004 . S
O130 C135 1.259 . S
Co131 O132 2.061 . S
Co131 O137 2.052 . S
Co131 O139 2.135 . S
O132 Co131 2.061 . S
O132 C135 1.235 . S
C133 O136 1.238 . S
C133 O137 1.241 . S
C134 O127 1.247 . S
C134 O128 1.261 . S
C135 O130 1.259 . S
C135 O132 1.235 . S
O136 Co126 2.021 . S
O136 C133 1.238 . S
O137 Co131 2.052 . S
O137 C133 1.241 . S
O138 Co126 2.137 . S
O138 C129 1.247 . S
O139 Co126 2.244 . S
O139 C129 1.272 . S
O139 Co131 2.135 . S
Co140 O141 2.216 . S
Co140 O142 2.091 . S
Co140 O144 2.004 . S
Co140 O150 2.021 . S
Co140 O152 2.137 . S
Co140 O153 2.244 . S
O141 Co140 2.216 . S
O141 C148 1.247 . S
O142 Co140 2.091 . S
O142 C148 1.261 . S
C143 O152 1.247 . S
C143 O153 1.272 . S
O144 Co140 2.004 . S
O144 C149 1.259 . S
Co145 O146 2.061 . S
Co145 O151 2.052 . S
Co145 O153 2.135 . S
O146 Co145 2.061 . S
O146 C149 1.235 . S
C147 O150 1.238 . S
C147 O151 1.241 . S
C148 O141 1.247 . S
C148 O142 1.261 . S
C149 O144 1.259 . S
C149 O146 1.235 . S
O150 Co140 2.021 . S
O150 C147 1.238 . S
O151 Co145 2.052 . S
O151 C147 1.241 . S
O152 Co140 2.137 . S
O152 C143 1.247 . S
O153 Co140 2.244 . S
O153 C143 1.272 . S
O153 Co145 2.135 . S
Co154 O155 2.216 . S
Co154 O156 2.091 . S
Co154 O158 2.004 . S
Co154 O164 2.021 . S
Co154 O166 2.137 . S
Co154 O167 2.244 . S
O155 Co154 2.216 . S
O155 C162 1.247 . S
O156 Co154 2.091 . S
O156 C162 1.261 . S
C157 O166 1.247 . S
C157 O167 1.272 . S
O158 Co154 2.004 . S
O158 C163 1.259 . S
Co159 O160 2.061 . S
Co159 O165 2.052 . S
Co159 O167 2.135 . S
O160 Co159 2.061 . S
O160 C163 1.235 . S
C161 O164 1.238 . S
C161 O165 1.241 . S
C162 O155 1.247 . S
C162 O156 1.261 . S
C163 O158 1.259 . S
C163 O160 1.235 . S
O164 Co154 2.021 . S
O164 C161 1.238 . S
O165 Co159 2.052 . S
O165 C161 1.241 . S
O166 Co154 2.137 . S
O166 C157 1.247 . S
O167 Co154 2.244 . S
O167 C157 1.272 . S
O167 Co159 2.135 . S
Co168 O169 2.216 . S
Co168 O170 2.091 . S
Co168 O172 2.004 . S
Co168 O178 2.021 . S
Co168 O180 2.137 . S
Co168 O181 2.244 . S
O169 Co168 2.216 . S
O169 C176 1.247 . S
O170 Co168 2.091 . S
O170 C176 1.261 . S
C171 O180 1.247 . S
C171 O181 1.272 . S
O172 Co168 2.004 . S
O172 C177 1.259 . S
Co173 O174 2.061 . S
Co173 O179 2.052 . S
Co173 O181 2.135 . S
O174 Co173 2.061 . S
O174 C177 1.235 . S
C175 O178 1.238 . S
C175 O179 1.241 . S
C176 O169 1.247 . S
C176 O170 1.261 . S
C177 O172 1.259 . S
C177 O174 1.235 . S
O178 Co168 2.021 . S
O178 C175 1.238 . S
O179 Co173 2.052 . S
O179 C175 1.241 . S
O180 Co168 2.137 . S
O180 C171 1.247 . S
O181 Co168 2.244 . S
O181 C171 1.272 . S
O181 Co173 2.135 . S
Co182 O183 2.216 . S
Co182 O184 2.091 . S
Co182 O186 2.004 . S
Co182 O192 2.021 . S
Co182 O194 2.137 . S
Co182 O195 2.244 . S
O183 Co182 2.216 . S
O183 C190 1.247 . S
O184 Co182 2.091 . S
O184 C190 1.261 . S
C185 O194 1.247 . S
C185 O195 1.272 . S
O186 Co182 2.004 . S
O186 C191 1.259 . S
Co187 O188 2.061 . S
Co187 O193 2.052 . S
Co187 O195 2.135 . S
O188 Co187 2.061 . S
O188 C191 1.235 . S
C189 O192 1.238 . S
C189 O193 1.241 . S
C190 O183 1.247 . S
C190 O184 1.261 . S
C191 O186 1.259 . S
C191 O188 1.235 . S
O192 Co182 2.021 . S
O192 C189 1.238 . S
O193 Co187 2.052 . S
O193 C189 1.241 . S
O194 Co182 2.137 . S
O194 C185 1.247 . S
O195 Co182 2.244 . S
O195 C185 1.272 . S
O195 Co187 2.135 . S
Co196 O197 2.216 . S
Co196 O198 2.091 . S
Co196 O200 2.004 . S
Co196 O206 2.021 . S
Co196 O208 2.137 . S
Co196 O209 2.244 . S
O197 Co196 2.216 . S
O197 C204 1.247 . S
O198 Co196 2.091 . S
O198 C204 1.261 . S
C199 O208 1.247 . S
C199 O209 1.272 . S
O200 Co196 2.004 . S
O200 C205 1.259 . S
Co201 O202 2.061 . S
Co201 O207 2.052 . S
Co201 O209 2.135 . S
O202 Co201 2.061 . S
O202 C205 1.235 . S
C203 O206 1.238 . S
C203 O207 1.241 . S
C204 O197 1.247 . S
C204 O198 1.261 . S
C205 O200 1.259 . S
C205 O202 1.235 . S
O206 Co196 2.021 . S
O206 C203 1.238 . S
O207 Co201 2.052 . S
O207 C203 1.241 . S
O208 Co196 2.137 . S
O208 C199 1.247 . S
O209 Co196 2.244 . S
O209 C199 1.272 . S
O209 Co201 2.135 . S
Co210 O211 2.216 . S
Co210 O212 2.091 . S
Co210 O214 2.004 . S
Co210 O220 2.021 . S
Co210 O222 2.137 . S
Co210 O223 2.244 . S
O211 Co210 2.216 . S
O211 C218 1.247 . S
O212 Co210 2.091 . S
O212 C218 1.261 . S
C213 O222 1.247 . S
C213 O223 1.272 . S
O214 Co210 2.004 . S
O214 C219 1.259 . S
Co215 O216 2.061 . S
Co215 O221 2.052 . S
Co215 O223 2.135 . S
O216 Co215 2.061 . S
O216 C219 1.235 . S
C217 O220 1.238 . S
C217 O221 1.241 . S
C218 O211 1.247 . S
C218 O212 1.261 . S
C219 O214 1.259 . S
C219 O216 1.235 . S
O220 Co210 2.021 . S
O220 C217 1.238 . S
O221 Co215 2.052 . S
O221 C217 1.241 . S
O222 Co210 2.137 . S
O222 C213 1.247 . S
O223 Co210 2.244 . S
O223 C213 1.272 . S
O223 Co215 2.135 . S
Co224 O225 2.216 . S
Co224 O226 2.091 . S
Co224 O228 2.004 . S
Co224 O234 2.021 . S
Co224 O236 2.137 . S
Co224 O237 2.244 . S
O225 Co224 2.216 . S
O225 C232 1.247 . S
O226 Co224 2.091 . S
O226 C232 1.261 . S
C227 O236 1.247 . S
C227 O237 1.272 . S
O228 Co224 2.004 . S
O228 C233 1.259 . S
Co229 O230 2.061 . S
Co229 O235 2.052 . S
Co229 O237 2.135 . S
O230 Co229 2.061 . S
O230 C233 1.235 . S
C231 O234 1.238 . S
C231 O235 1.241 . S
C232 O225 1.247 . S
C232 O226 1.261 . S
C233 O228 1.259 . S
C233 O230 1.235 . S
O234 Co224 2.021 . S
O234 C231 1.238 . S
O235 Co229 2.052 . S
O235 C231 1.241 . S
O236 Co224 2.137 . S
O236 C227 1.247 . S
O237 Co224 2.244 . S
O237 C227 1.272 . S
O237 Co229 2.135 . S
Co238 O239 2.216 . S
Co238 O240 2.091 . S
Co238 O242 2.004 . S
Co238 O248 2.021 . S
Co238 O250 2.137 . S
Co238 O251 2.244 . S
O239 Co238 2.216 . S
O239 C246 1.247 . S
O240 Co238 2.091 . S
O240 C246 1.261 . S
C241 O250 1.247 . S
C241 O251 1.272 . S
O242 Co238 2.004 . S
O242 C247 1.259 . S
Co243 O244 2.061 . S
Co243 O249 2.052 . S
Co243 O251 2.135 . S
O244 Co243 2.061 . S
O244 C247 1.235 . S
C245 O248 1.238 . S
C245 O249 1.241 . S
C246 O239 1.247 . S
C246 O240 1.261 . S
C247 O242 1.259 . S
C247 O244 1.235 . S
O248 Co238 2.021 . S
O248 C245 1.238 . S
O249 Co243 2.052 . S
O249 C245 1.241 . S
O250 Co238 2.137 . S
O250 C241 1.247 . S
O251 Co238 2.244 . S
O251 C241 1.272 . S
O251 Co243 2.135 . S
Co252 O253 2.216 . S
Co252 O254 2.091 . S
Co252 O256 2.004 . S
Co252 O262 2.021 . S
Co252 O264 2.137 . S
Co252 O265 2.244 . S
O253 Co252 2.216 . S
O253 C260 1.247 . S
O254 Co252 2.091 . S
O254 C260 1.261 . S
C255 O264 1.247 . S
C255 O265 1.272 . S
O256 Co252 2.004 . S
O256 C261 1.259 . S
Co257 O258 2.061 . S
Co257 O263 2.052 . S
Co257 O265 2.135 . S
O258 Co257 2.061 . S
O258 C261 1.235 . S
C259 O262 1.238 . S
C259 O263 1.241 . S
C260 O253 1.247 . S
C260 O254 1.261 . S
C261 O256 1.259 . S
C261 O258 1.235 . S
O262 Co252 2.021 . S
O262 C259 1.238 . S
O263 Co257 2.052 . S
O263 C259 1.241 . S
O264 Co252 2.137 . S
O264 C255 1.247 . S
O265 Co252 2.244 . S
O265 C255 1.272 . S
O265 Co257 2.135 . S
Co266 O267 2.216 . S
Co266 O268 2.091 . S
Co266 O270 2.004 . S
Co266 O276 2.021 . S
Co266 O278 2.137 . S
Co266 O279 2.244 . S
O267 Co266 2.216 . S
O267 C274 1.247 . S
O268 Co266 2.091 . S
O268 C274 1.261 . S
C269 O278 1.247 . S
C269 O279 1.272 . S
O270 Co266 2.004 . S
O270 C275 1.259 . S
Co271 O272 2.061 . S
Co271 O277 2.052 . S
Co271 O279 2.135 . S
O272 Co271 2.061 . S
O272 C275 1.235 . S
C273 O276 1.238 . S
C273 O277 1.241 . S
C274 O267 1.247 . S
C274 O268 1.261 . S
C275 O270 1.259 . S
C275 O272 1.235 . S
O276 Co266 2.021 . S
O276 C273 1.238 . S
O277 Co271 2.052 . S
O277 C273 1.241 . S
O278 Co266 2.137 . S
O278 C269 1.247 . S
O279 Co266 2.244 . S
O279 C269 1.272 . S
O279 Co271 2.135 . S
Co280 O281 2.216 . S
Co280 O282 2.091 . S
Co280 O284 2.004 . S
Co280 O290 2.021 . S
Co280 O292 2.137 . S
Co280 O293 2.244 . S
O281 Co280 2.216 . S
O281 C288 1.247 . S
O282 Co280 2.091 . S
O282 C288 1.261 . S
C283 O292 1.247 . S
C283 O293 1.272 . S
O284 Co280 2.004 . S
O284 C289 1.259 . S
Co285 O286 2.061 . S
Co285 O291 2.052 . S
Co285 O293 2.135 . S
O286 Co285 2.061 . S
O286 C289 1.235 . S
C287 O290 1.238 . S
C287 O291 1.241 . S
C288 O281 1.247 . S
C288 O282 1.261 . S
C289 O284 1.259 . S
C289 O286 1.235 . S
O290 Co280 2.021 . S
O290 C287 1.238 . S
O291 Co285 2.052 . S
O291 C287 1.241 . S
O292 Co280 2.137 . S
O292 C283 1.247 . S
O293 Co280 2.244 . S
O293 C283 1.272 . S
O293 Co285 2.135 . S
Co294 O295 2.216 . S
Co294 O296 2.091 . S
Co294 O298 2.004 . S
Co294 O304 2.021 . S
Co294 O306 2.137 . S
Co294 O307 2.244 . S
O295 Co294 2.216 . S
O295 C302 1.247 . S
O296 Co294 2.091 . S
O296 C302 1.261 . S
C297 O306 1.247 . S
C297 O307 1.272 . S
O298 Co294 2.004 . S
O298 C303 1.259 . S
Co299 O300 2.061 . S
Co299 O305 2.052 . S
Co299 O307 2.135 . S
O300 Co299 2.061 . S
O300 C303 1.235 . S
C301 O304 1.238 . S
C301 O305 1.241 . S
C302 O295 1.247 . S
C302 O296 1.261 . S
C303 O298 1.259 . S
C303 O300 1.235 . S
O304 Co294 2.021 . S
O304 C301 1.238 . S
O305 Co299 2.052 . S
O305 C301 1.241 . S
O306 Co294 2.137 . S
O306 C297 1.247 . S
O307 Co294 2.244 . S
O307 C297 1.272 . S
O307 Co299 2.135 . S
Co308 O309 2.216 . S
Co308 O310 2.091 . S
Co308 O312 2.004 . S
Co308 O318 2.021 . S
Co308 O320 2.137 . S
Co308 O321 2.244 . S
O309 Co308 2.216 . S
O309 C316 1.247 . S
O310 Co308 2.091 . S
O310 C316 1.261 . S
C311 O320 1.247 . S
C311 O321 1.272 . S
O312 Co308 2.004 . S
O312 C317 1.259 . S
Co313 O314 2.061 . S
Co313 O319 2.052 . S
Co313 O321 2.135 . S
O314 Co313 2.061 . S
O314 C317 1.235 . S
C315 O318 1.238 . S
C315 O319 1.241 . S
C316 O309 1.247 . S
C316 O310 1.261 . S
C317 O312 1.259 . S
C317 O314 1.235 . S
O318 Co308 2.021 . S
O318 C315 1.238 . S
O319 Co313 2.052 . S
O319 C315 1.241 . S
O320 Co308 2.137 . S
O320 C311 1.247 . S
O321 Co308 2.244 . S
O321 C311 1.272 . S
O321 Co313 2.135 . S
Co322 O323 2.216 . S
Co322 O324 2.091 . S
Co322 O326 2.004 . S
Co322 O332 2.021 . S
Co322 O334 2.137 . S
Co322 O335 2.244 . S
O323 Co322 2.216 . S
O323 C330 1.247 . S
O324 Co322 2.091 . S
O324 C330 1.261 . S
C325 O334 1.247 . S
C325 O335 1.272 . S
O326 Co322 2.004 . S
O326 C331 1.259 . S
Co327 O328 2.061 . S
Co327 O333 2.052 . S
Co327 O335 2.135 . S
O328 Co327 2.061 . S
O328 C331 1.235 . S
C329 O332 1.238 . S
C329 O333 1.241 . S
C330 O323 1.247 . S
C330 O324 1.261 . S
C331 O326 1.259 . S
C331 O328 1.235 . S
O332 Co322 2.021 . S
O332 C329 1.238 . S
O333 Co327 2.052 . S
O333 C329 1.241 . S
O334 Co322 2.137 . S
O334 C325 1.247 . S
O335 Co322 2.244 . S
O335 C325 1.272 . S
O335 Co327 2.135 . S
Co336 O337 2.216 . S
Co336 O338 2.091 . S
Co336 O340 2.004 . S
Co336 O346 2.021 . S
Co336 O348 2.137 . S
Co336 O349 2.244 . S
O337 Co336 2.216 . S
O337 C344 1.247 . S
O338 Co336 2.091 . S
O338 C344 1.261 . S
C339 O348 1.247 . S
C339 O349 1.272 . S
O340 Co336 2.004 . S
O340 C345 1.259 . S
Co341 O342 2.061 . S
Co341 O347 2.052 . S
Co341 O349 2.135 . S
O342 Co341 2.061 . S
O342 C345 1.235 . S
C343 O346 1.238 . S
C343 O347 1.241 . S
C344 O337 1.247 . S
C344 O338 1.261 . S
C345 O340 1.259 . S
C345 O342 1.235 . S
O346 Co336 2.021 . S
O346 C343 1.238 . S
O347 Co341 2.052 . S
O347 C343 1.241 . S
O348 Co336 2.137 . S
O348 C339 1.247 . S
O349 Co336 2.244 . S
O349 C339 1.272 . S
O349 Co341 2.135 . S
Co350 O351 2.216 . S
Co350 O352 2.091 . S
Co350 O354 2.004 . S
Co350 O360 2.021 . S
Co350 O362 2.137 . S
Co350 O363 2.244 . S
O351 Co350 2.216 . S
O351 C358 1.247 . S
O352 Co350 2.091 . S
O352 C358 1.261 . S
C353 O362 1.247 . S
C353 O363 1.272 . S
O354 Co350 2.004 . S
O354 C359 1.259 . S
Co355 O356 2.061 . S
Co355 O361 2.052 . S
Co355 O363 2.135 . S
O356 Co355 2.061 . S
O356 C359 1.235 . S
C357 O360 1.238 . S
C357 O361 1.241 . S
C358 O351 1.247 . S
C358 O352 1.261 . S
C359 O354 1.259 . S
C359 O356 1.235 . S
O360 Co350 2.021 . S
O360 C357 1.238 . S
O361 Co355 2.052 . S
O361 C357 1.241 . S
O362 Co350 2.137 . S
O362 C353 1.247 . S
O363 Co350 2.244 . S
O363 C353 1.272 . S
O363 Co355 2.135 . S
Co364 O365 2.216 . S
Co364 O366 2.091 . S
Co364 O368 2.004 . S
Co364 O374 2.021 . S
Co364 O376 2.137 . S
Co364 O377 2.244 . S
O365 Co364 2.216 . S
O365 C372 1.247 . S
O366 Co364 2.091 . S
O366 C372 1.261 . S
C367 O376 1.247 . S
C367 O377 1.272 . S
O368 Co364 2.004 . S
O368 C373 1.259 . S
Co369 O370 2.061 . S
Co369 O375 2.052 . S
Co369 O377 2.135 . S
O370 Co369 2.061 . S
O370 C373 1.235 . S
C371 O374 1.238 . S
C371 O375 1.241 . S
C372 O365 1.247 . S
C372 O366 1.261 . S
C373 O368 1.259 . S
C373 O370 1.235 . S
O374 Co364 2.021 . S
O374 C371 1.238 . S
O375 Co369 2.052 . S
O375 C371 1.241 . S
O376 Co364 2.137 . S
O376 C367 1.247 . S
O377 Co364 2.244 . S
O377 C367 1.272 . S
O377 Co369 2.135 . S
Co378 O379 2.216 . S
Co378 O380 2.091 . S
Co378 O382 2.004 . S
Co378 O388 2.021 . S
Co378 O390 2.137 . S
Co378 O391 2.244 . S
O379 Co378 2.216 . S
O379 C386 1.247 . S
O380 Co378 2.091 . S
O380 C386 1.261 . S
C381 O390 1.247 . S
C381 O391 1.272 . S
O382 Co378 2.004 . S
O382 C387 1.259 . S
Co383 O384 2.061 . S
Co383 O389 2.052 . S
Co383 O391 2.135 . S
O384 Co383 2.061 . S
O384 C387 1.235 . S
C385 O388 1.238 . S
C385 O389 1.241 . S
C386 O379 1.247 . S
C386 O380 1.261 . S
C387 O382 1.259 . S
C387 O384 1.235 . S
O388 Co378 2.021 . S
O388 C385 1.238 . S
O389 Co383 2.052 . S
O389 C385 1.241 . S
O390 Co378 2.137 . S
O390 C381 1.247 . S
O391 Co378 2.244 . S
O391 C381 1.272 . S
O391 Co383 2.135 . S
Co392 O393 2.216 . S
Co392 O394 2.091 . S
Co392 O396 2.004 . S
Co392 O402 2.021 . S
Co392 O404 2.137 . S
Co392 O405 2.244 . S
O393 Co392 2.216 . S
O393 C400 1.247 . S
O394 Co392 2.091 . S
O394 C400 1.261 . S
C395 O404 1.247 . S
C395 O405 1.272 . S
O396 Co392 2.004 . S
O396 C401 1.259 . S
Co397 O398 2.061 . S
Co397 O403 2.052 . S
Co397 O405 2.135 . S
O398 Co397 2.061 . S
O398 C401 1.235 . S
C399 O402 1.238 . S
C399 O403 1.241 . S
C400 O393 1.247 . S
C400 O394 1.261 . S
C401 O396 1.259 . S
C401 O398 1.235 . S
O402 Co392 2.021 . S
O402 C399 1.238 . S
O403 Co397 2.052 . S
O403 C399 1.241 . S
O404 Co392 2.137 . S
O404 C395 1.247 . S
O405 Co392 2.244 . S
O405 C395 1.272 . S
O405 Co397 2.135 . S
Co406 O407 2.216 . S
Co406 O408 2.091 . S
Co406 O410 2.004 . S
Co406 O416 2.021 . S
Co406 O418 2.137 . S
Co406 O419 2.244 . S
O407 Co406 2.216 . S
O407 C414 1.247 . S
O408 Co406 2.091 . S
O408 C414 1.261 . S
C409 O418 1.247 . S
C409 O419 1.272 . S
O410 Co406 2.004 . S
O410 C415 1.259 . S
Co411 O412 2.061 . S
Co411 O417 2.052 . S
Co411 O419 2.135 . S
O412 Co411 2.061 . S
O412 C415 1.235 . S
C413 O416 1.238 . S
C413 O417 1.241 . S
C414 O407 1.247 . S
C414 O408 1.261 . S
C415 O410 1.259 . S
C415 O412 1.235 . S
O416 Co406 2.021 . S
O416 C413 1.238 . S
O417 Co411 2.052 . S
O417 C413 1.241 . S
O418 Co406 2.137 . S
O418 C409 1.247 . S
O419 Co406 2.244 . S
O419 C409 1.272 . S
O419 Co411 2.135 . S
Co420 O421 2.216 . S
Co420 O422 2.091 . S
Co420 O424 2.004 . S
Co420 O430 2.021 . S
Co420 O432 2.137 . S
Co420 O433 2.244 . S
O421 Co420 2.216 . S
O421 C428 1.247 . S
O422 Co420 2.091 . S
O422 C428 1.261 . S
C423 O432 1.247 . S
C423 O433 1.272 . S
O424 Co420 2.004 . S
O424 C429 1.259 . S
Co425 O426 2.061 . S
Co425 O431 2.052 . S
Co425 O433 2.135 . S
O426 Co425 2.061 . S
O426 C429 1.235 . S
C427 O430 1.238 . S
C427 O431 1.241 . S
C428 O421 1.247 . S
C428 O422 1.261 . S
C429 O424 1.259 . S
C429 O426 1.235 . S
O430 Co420 2.021 . S
O430 C427 1.238 . S
O431 Co425 2.052 . S
O431 C427 1.241 . S
O432 Co420 2.137 . S
O432 C423 1.247 . S
O433 Co420 2.244 . S
O433 C423 1.272 . S
O433 Co425 2.135 . S
Co434 O435 2.216 . S
Co434 O436 2.091 . S
Co434 O438 2.004 . S
Co434 O444 2.021 . S
Co434 O446 2.137 . S
Co434 O447 2.244 . S
O435 Co434 2.216 . S
O435 C442 1.247 . S
O436 Co434 2.091 . S
O436 C442 1.261 . S
C437 O446 1.247 . S
C437 O447 1.272 . S
O438 Co434 2.004 . S
O438 C443 1.259 . S
Co439 O440 2.061 . S
Co439 O445 2.052 . S
Co439 O447 2.135 . S
O440 Co439 2.061 . S
O440 C443 1.235 . S
C441 O444 1.238 . S
C441 O445 1.241 . S
C442 O435 1.247 . S
C442 O436 1.261 . S
C443 O438 1.259 . S
C443 O440 1.235 . S
O444 Co434 2.021 . S
O444 C441 1.238 . S
O445 Co439 2.052 . S
O445 C441 1.241 . S
O446 Co434 2.137 . S
O446 C437 1.247 . S
O447 Co434 2.244 . S
O447 C437 1.272 . S
O447 Co439 2.135 . S
C448 C449 1.349 . S
C448 C450 1.327 . S
C448 H473 0.950 . S
C449 C448 1.349 . S
C449 C465 1.349 . S
C450 C448 1.327 . S
C450 C469 1.429 . S
C450 H474 0.950 . S
C451 C468 1.574 . S
C451 C470 1.368 . S
C451 H475 0.949 . S
H452 C456 0.949 . S
C453 C454 1.349 . S
C453 C455 1.327 . S
C453 H476 0.950 . S
C454 C453 1.349 . S
C454 C466 1.349 . S
C455 C453 1.327 . S
C455 C471 1.429 . S
C455 H477 0.950 . S
C456 H452 0.949 . S
C456 C464 1.574 . S
C456 C472 1.368 . S
H457 C465 0.950 . S
H458 C463 0.950 . S
H459 C464 0.949 . S
H460 C466 0.950 . S
H461 C467 0.950 . S
H462 C468 0.949 . S
C463 H458 0.950 . S
C463 C465 1.327 . S
C463 C469 1.429 . S
C464 C456 1.574 . S
C464 H459 0.949 . S
C464 C470 1.368 . S
C465 C449 1.349 . S
C465 H457 0.950 . S
C465 C463 1.327 . S
C466 C454 1.349 . S
C466 H460 0.950 . S
C466 C467 1.327 . S
C467 H461 0.950 . S
C467 C466 1.327 . S
C467 C471 1.429 . S
C468 C451 1.574 . S
C468 H462 0.949 . S
C468 C472 1.368 . S
C469 C450 1.429 . S
C469 C463 1.429 . S
C469 C470 1.523 . S
C470 C451 1.368 . S
C470 C464 1.368 . S
C470 C469 1.523 . S
C471 C455 1.429 . S
C471 C467 1.429 . S
C471 C472 1.523 . S
C472 C456 1.368 . S
C472 C468 1.368 . S
C472 C471 1.523 . S
H473 C448 0.950 . S
H474 C450 0.950 . S
H475 C451 0.949 . S
H476 C453 0.950 . S
H477 C455 0.950 . S
C478 C479 1.349 . S
C478 C480 1.327 . S
C478 H503 0.950 . S
C479 C478 1.349 . S
C479 C495 1.349 . S
C480 C478 1.327 . S
C480 C499 1.429 . S
C480 H504 0.950 . S
C481 C498 1.574 . S
C481 C500 1.368 . S
C481 H505 0.949 . S
H482 C486 0.949 . S
C483 C484 1.349 . S
C483 C485 1.327 . S
C483 H506 0.950 . S
C484 C483 1.349 . S
C484 C496 1.349 . S
C485 C483 1.327 . S
C485 C501 1.429 . S
C485 H507 0.950 . S
C486 H482 0.949 . S
C486 C494 1.574 . S
C486 C502 1.368 . S
H487 C495 0.950 . S
H488 C493 0.950 . S
H489 C494 0.949 . S
H490 C496 0.950 . S
H491 C497 0.950 . S
H492 C498 0.949 . S
C493 H488 0.950 . S
C493 C495 1.327 . S
C493 C499 1.429 . S
C494 C486 1.574 . S
C494 H489 0.949 . S
C494 C500 1.368 . S
C495 C479 1.349 . S
C495 H487 0.950 . S
C495 C493 1.327 . S
C496 C484 1.349 . S
C496 H490 0.950 . S
C496 C497 1.327 . S
C497 H491 0.950 . S
C497 C496 1.327 . S
C497 C501 1.429 . S
C498 C481 1.574 . S
C498 H492 0.949 . S
C498 C502 1.368 . S
C499 C480 1.429 . S
C499 C493 1.429 . S
C499 C500 1.523 . S
C500 C481 1.368 . S
C500 C494 1.368 . S
C500 C499 1.523 . S
C501 C485 1.429 . S
C501 C497 1.429 . S
C501 C502 1.523 . S
C502 C486 1.368 . S
C502 C498 1.368 . S
C502 C501 1.523 . S
H503 C478 0.950 . S
H504 C480 0.950 . S
H505 C481 0.949 . S
H506 C483 0.950 . S
H507 C485 0.950 . S
C508 C509 1.349 . S
C508 C510 1.327 . S
C508 H533 0.950 . S
C509 C508 1.349 . S
C509 C525 1.349 . S
C510 C508 1.327 . S
C510 C529 1.429 . S
C510 H534 0.950 . S
C511 C528 1.574 . S
C511 C530 1.368 . S
C511 H535 0.949 . S
H512 C516 0.949 . S
C513 C514 1.349 . S
C513 C515 1.327 . S
C513 H536 0.950 . S
C514 C513 1.349 . S
C514 C526 1.349 . S
C515 C513 1.327 . S
C515 C531 1.429 . S
C515 H537 0.950 . S
C516 H512 0.949 . S
C516 C524 1.574 . S
C516 C532 1.368 . S
H517 C525 0.950 . S
H518 C523 0.950 . S
H519 C524 0.949 . S
H520 C526 0.950 . S
H521 C527 0.950 . S
H522 C528 0.949 . S
C523 H518 0.950 . S
C523 C525 1.327 . S
C523 C529 1.429 . S
C524 C516 1.574 . S
C524 H519 0.949 . S
C524 C530 1.368 . S
C525 C509 1.349 . S
C525 H517 0.950 . S
C525 C523 1.327 . S
C526 C514 1.349 . S
C526 H520 0.950 . S
C526 C527 1.327 . S
C527 H521 0.950 . S
C527 C526 1.327 . S
C527 C531 1.429 . S
C528 C511 1.574 . S
C528 H522 0.949 . S
C528 C532 1.368 . S
C529 C510 1.429 . S
C529 C523 1.429 . S
C529 C530 1.523 . S
C530 C511 1.368 . S
C530 C524 1.368 . S
C530 C529 1.523 . S
C531 C515 1.429 . S
C531 C527 1.429 . S
C531 C532 1.523 . S
C532 C516 1.368 . S
C532 C528 1.368 . S
C532 C531 1.523 . S
H533 C508 0.950 . S
H534 C510 0.950 . S
H535 C511 0.949 . S
H536 C513 0.950 . S
H537 C515 0.950 . S
C538 C539 1.349 . S
C538 C540 1.327 . S
C538 H563 0.950 . S
C539 C538 1.349 . S
C539 C555 1.349 . S
C540 C538 1.327 . S
C540 C559 1.429 . S
C540 H564 0.950 . S
C541 C558 1.574 . S
C541 C560 1.368 . S
C541 H565 0.949 . S
H542 C546 0.949 . S
C543 C544 1.349 . S
C543 C545 1.327 . S
C543 H566 0.950 . S
C544 C543 1.349 . S
C544 C556 1.349 . S
C545 C543 1.327 . S
C545 C561 1.429 . S
C545 H567 0.950 . S
C546 H542 0.949 . S
C546 C554 1.574 . S
C546 C562 1.368 . S
H547 C555 0.950 . S
H548 C553 0.950 . S
H549 C554 0.949 . S
H550 C556 0.950 . S
H551 C557 0.950 . S
H552 C558 0.949 . S
C553 H548 0.950 . S
C553 C555 1.327 . S
C553 C559 1.429 . S
C554 C546 1.574 . S
C554 H549 0.949 . S
C554 C560 1.368 . S
C555 C539 1.349 . S
C555 H547 0.950 . S
C555 C553 1.327 . S
C556 C544 1.349 . S
C556 H550 0.950 . S
C556 C557 1.327 . S
C557 H551 0.950 . S
C557 C556 1.327 . S
C557 C561 1.429 . S
C558 C541 1.574 . S
C558 H552 0.949 . S
C558 C562 1.368 . S
C559 C540 1.429 . S
C559 C553 1.429 . S
C559 C560 1.523 . S
C560 C541 1.368 . S
C560 C554 1.368 . S
C560 C559 1.523 . S
C561 C545 1.429 . S
C561 C557 1.429 . S
C561 C562 1.523 . S
C562 C546 1.368 . S
C562 C558 1.368 . S
C562 C561 1.523 . S
H563 C538 0.950 . S
H564 C540 0.950 . S
H565 C541 0.949 . S
H566 C543 0.950 . S
H567 C545 0.950 . S
C568 C569 1.349 . S
C568 C570 1.327 . S
C568 H593 0.950 . S
C569 C568 1.349 . S
C569 C585 1.349 . S
C570 C568 1.327 . S
C570 C589 1.429 . S
C570 H594 0.950 . S
C571 C588 1.574 . S
C571 C590 1.368 . S
C571 H595 0.949 . S
H572 C576 0.949 . S
C573 C574 1.349 . S
C573 C575 1.327 . S
C573 H596 0.950 . S
C574 C573 1.349 . S
C574 C586 1.349 . S
C575 C573 1.327 . S
C575 C591 1.429 . S
C575 H597 0.950 . S
C576 H572 0.949 . S
C576 C584 1.574 . S
C576 C592 1.368 . S
H577 C585 0.950 . S
H578 C583 0.950 . S
H579 C584 0.949 . S
H580 C586 0.950 . S
H581 C587 0.950 . S
H582 C588 0.949 . S
C583 H578 0.950 . S
C583 C585 1.327 . S
C583 C589 1.429 . S
C584 C576 1.574 . S
C584 H579 0.949 . S
C584 C590 1.368 . S
C585 C569 1.349 . S
C585 H577 0.950 . S
C585 C583 1.327 . S
C586 C574 1.349 . S
C586 H580 0.950 . S
C586 C587 1.327 . S
C587 H581 0.950 . S
C587 C586 1.327 . S
C587 C591 1.429 . S
C588 C571 1.574 . S
C588 H582 0.949 . S
C588 C592 1.368 . S
C589 C570 1.429 . S
C589 C583 1.429 . S
C589 C590 1.523 . S
C590 C571 1.368 . S
C590 C584 1.368 . S
C590 C589 1.523 . S
C591 C575 1.429 . S
C591 C587 1.429 . S
C591 C592 1.523 . S
C592 C576 1.368 . S
C592 C588 1.368 . S
C592 C591 1.523 . S
H593 C568 0.950 . S
H594 C570 0.950 . S
H595 C571 0.949 . S
H596 C573 0.950 . S
H597 C575 0.950 . S
C598 C599 1.349 . S
C598 C600 1.327 . S
C598 H623 0.950 . S
C599 C598 1.349 . S
C599 C615 1.349 . S
C600 C598 1.327 . S
C600 C619 1.429 . S
C600 H624 0.950 . S
C601 C618 1.574 . S
C601 C620 1.368 . S
C601 H625 0.949 . S
H602 C606 0.949 . S
C603 C604 1.349 . S
C603 C605 1.327 . S
C603 H626 0.950 . S
C604 C603 1.349 . S
C604 C616 1.349 . S
C605 C603 1.327 . S
C605 C621 1.429 . S
C605 H627 0.950 . S
C606 H602 0.949 . S
C606 C614 1.574 . S
C606 C622 1.368 . S
H607 C615 0.950 . S
H608 C613 0.950 . S
H609 C614 0.949 . S
H610 C616 0.950 . S
H611 C617 0.950 . S
H612 C618 0.949 . S
C613 H608 0.950 . S
C613 C615 1.327 . S
C613 C619 1.429 . S
C614 C606 1.574 . S
C614 H609 0.949 . S
C614 C620 1.368 . S
C615 C599 1.349 . S
C615 H607 0.950 . S
C615 C613 1.327 . S
C616 C604 1.349 . S
C616 H610 0.950 . S
C616 C617 1.327 . S
C617 H611 0.950 . S
C617 C616 1.327 . S
C617 C621 1.429 . S
C618 C601 1.574 . S
C618 H612 0.949 . S
C618 C622 1.368 . S
C619 C600 1.429 . S
C619 C613 1.429 . S
C619 C620 1.523 . S
C620 C601 1.368 . S
C620 C614 1.368 . S
C620 C619 1.523 . S
C621 C605 1.429 . S
C621 C617 1.429 . S
C621 C622 1.523 . S
C622 C606 1.368 . S
C622 C618 1.368 . S
C622 C621 1.523 . S
H623 C598 0.950 . S
H624 C600 0.950 . S
H625 C601 0.949 . S
H626 C603 0.950 . S
H627 C605 0.950 . S
C628 C629 1.349 . S
C628 C630 1.327 . S
C628 H653 0.950 . S
C629 C628 1.349 . S
C629 C645 1.349 . S
C630 C628 1.327 . S
C630 C649 1.429 . S
C630 H654 0.950 . S
C631 C648 1.574 . S
C631 C650 1.368 . S
C631 H655 0.949 . S
H632 C636 0.949 . S
C633 C634 1.349 . S
C633 C635 1.327 . S
C633 H656 0.950 . S
C634 C633 1.349 . S
C634 C646 1.349 . S
C635 C633 1.327 . S
C635 C651 1.429 . S
C635 H657 0.950 . S
C636 H632 0.949 . S
C636 C644 1.574 . S
C636 C652 1.368 . S
H637 C645 0.950 . S
H638 C643 0.950 . S
H639 C644 0.949 . S
H640 C646 0.950 . S
H641 C647 0.950 . S
H642 C648 0.949 . S
C643 H638 0.950 . S
C643 C645 1.327 . S
C643 C649 1.429 . S
C644 C636 1.574 . S
C644 H639 0.949 . S
C644 C650 1.368 . S
C645 C629 1.349 . S
C645 H637 0.950 . S
C645 C643 1.327 . S
C646 C634 1.349 . S
C646 H640 0.950 . S
C646 C647 1.327 . S
C647 H641 0.950 . S
C647 C646 1.327 . S
C647 C651 1.429 . S
C648 C631 1.574 . S
C648 H642 0.949 . S
C648 C652 1.368 . S
C649 C630 1.429 . S
C649 C643 1.429 . S
C649 C650 1.523 . S
C650 C631 1.368 . S
C650 C644 1.368 . S
C650 C649 1.523 . S
C651 C635 1.429 . S
C651 C647 1.429 . S
C651 C652 1.523 . S
C652 C636 1.368 . S
C652 C648 1.368 . S
C652 C651 1.523 . S
H653 C628 0.950 . S
H654 C630 0.950 . S
H655 C631 0.949 . S
H656 C633 0.950 . S
H657 C635 0.950 . S
C658 C659 1.349 . S
C658 C660 1.327 . S
C658 H683 0.950 . S
C659 C658 1.349 . S
C659 C675 1.349 . S
C660 C658 1.327 . S
C660 C679 1.429 . S
C660 H684 0.950 . S
C661 C678 1.574 . S
C661 C680 1.368 . S
C661 H685 0.949 . S
H662 C666 0.949 . S
C663 C664 1.349 . S
C663 C665 1.327 . S
C663 H686 0.950 . S
C664 C663 1.349 . S
C664 C676 1.349 . S
C665 C663 1.327 . S
C665 C681 1.429 . S
C665 H687 0.950 . S
C666 H662 0.949 . S
C666 C674 1.574 . S
C666 C682 1.368 . S
H667 C675 0.950 . S
H668 C673 0.950 . S
H669 C674 0.949 . S
H670 C676 0.950 . S
H671 C677 0.950 . S
H672 C678 0.949 . S
C673 H668 0.950 . S
C673 C675 1.327 . S
C673 C679 1.429 . S
C674 C666 1.574 . S
C674 H669 0.949 . S
C674 C680 1.368 . S
C675 C659 1.349 . S
C675 H667 0.950 . S
C675 C673 1.327 . S
C676 C664 1.349 . S
C676 H670 0.950 . S
C676 C677 1.327 . S
C677 H671 0.950 . S
C677 C676 1.327 . S
C677 C681 1.429 . S
C678 C661 1.574 . S
C678 H672 0.949 . S
C678 C682 1.368 . S
C679 C660 1.429 . S
C679 C673 1.429 . S
C679 C680 1.523 . S
C680 C661 1.368 . S
C680 C674 1.368 . S
C680 C679 1.523 . S
C681 C665 1.429 . S
C681 C677 1.429 . S
C681 C682 1.523 . S
C682 C666 1.368 . S
C682 C678 1.368 . S
C682 C681 1.523 . S
H683 C658 0.950 . S
H684 C660 0.950 . S
H685 C661 0.949 . S
H686 C663 0.950 . S
H687 C665 0.950 . S
C688 C689 1.349 . S
C688 C690 1.327 . S
C688 H713 0.950 . S
C689 C688 1.349 . S
C689 C705 1.349 . S
C690 C688 1.327 . S
C690 C709 1.429 . S
C690 H714 0.950 . S
C691 C708 1.574 . S
C691 C710 1.368 . S
C691 H715 0.949 . S
H692 C696 0.949 . S
C693 C694 1.349 . S
C693 C695 1.327 . S
C693 H716 0.950 . S
C694 C693 1.349 . S
C694 C706 1.349 . S
C695 C693 1.327 . S
C695 C711 1.429 . S
C695 H717 0.950 . S
C696 H692 0.949 . S
C696 C704 1.574 . S
C696 C712 1.368 . S
H697 C705 0.950 . S
H698 C703 0.950 . S
H699 C704 0.949 . S
H700 C706 0.950 . S
H701 C707 0.950 . S
H702 C708 0.949 . S
C703 H698 0.950 . S
C703 C705 1.327 . S
C703 C709 1.429 . S
C704 C696 1.574 . S
C704 H699 0.949 . S
C704 C710 1.368 . S
C705 C689 1.349 . S
C705 H697 0.950 . S
C705 C703 1.327 . S
C706 C694 1.349 . S
C706 H700 0.950 . S
C706 C707 1.327 . S
C707 H701 0.950 . S
C707 C706 1.327 . S
C707 C711 1.429 . S
C708 C691 1.574 . S
C708 H702 0.949 . S
C708 C712 1.368 . S
C709 C690 1.429 . S
C709 C703 1.429 . S
C709 C710 1.523 . S
C710 C691 1.368 . S
C710 C704 1.368 . S
C710 C709 1.523 . S
C711 C695 1.429 . S
C711 C707 1.429 . S
C711 C712 1.523 . S
C712 C696 1.368 . S
C712 C708 1.368 . S
C712 C711 1.523 . S
H713 C688 0.950 . S
H714 C690 0.950 . S
H715 C691 0.949 . S
H716 C693 0.950 . S
H717 C695 0.950 . S
C718 C719 1.349 . S
C718 C720 1.327 . S
C718 H743 0.950 . S
C719 C718 1.349 . S
C719 C735 1.349 . S
C720 C718 1.327 . S
C720 C739 1.429 . S
C720 H744 0.950 . S
C721 C738 1.574 . S
C721 C740 1.368 . S
C721 H745 0.949 . S
H722 C726 0.949 . S
C723 C724 1.349 . S
C723 C725 1.327 . S
C723 H746 0.950 . S
C724 C723 1.349 . S
C724 C736 1.349 . S
C725 C723 1.327 . S
C725 C741 1.429 . S
C725 H747 0.950 . S
C726 H722 0.949 . S
C726 C734 1.574 . S
C726 C742 1.368 . S
H727 C735 0.950 . S
H728 C733 0.950 . S
H729 C734 0.949 . S
H730 C736 0.950 . S
H731 C737 0.950 . S
H732 C738 0.949 . S
C733 H728 0.950 . S
C733 C735 1.327 . S
C733 C739 1.429 . S
C734 C726 1.574 . S
C734 H729 0.949 . S
C734 C740 1.368 . S
C735 C719 1.349 . S
C735 H727 0.950 . S
C735 C733 1.327 . S
C736 C724 1.349 . S
C736 H730 0.950 . S
C736 C737 1.327 . S
C737 H731 0.950 . S
C737 C736 1.327 . S
C737 C741 1.429 . S
C738 C721 1.574 . S
C738 H732 0.949 . S
C738 C742 1.368 . S
C739 C720 1.429 . S
C739 C733 1.429 . S
C739 C740 1.523 . S
C740 C721 1.368 . S
C740 C734 1.368 . S
C740 C739 1.523 . S
C741 C725 1.429 . S
C741 C737 1.429 . S
C741 C742 1.523 . S
C742 C726 1.368 . S
C742 C738 1.368 . S
C742 C741 1.523 . S
H743 C718 0.950 . S
H744 C720 0.950 . S
H745 C721 0.949 . S
H746 C723 0.950 . S
H747 C725 0.950 . S
C748 C749 1.349 . S
C748 C750 1.327 . S
C748 H773 0.950 . S
C749 C748 1.349 . S
C749 C765 1.349 . S
C750 C748 1.327 . S
C750 C769 1.429 . S
C750 H774 0.950 . S
C751 C768 1.574 . S
C751 C770 1.368 . S
C751 H775 0.949 . S
H752 C756 0.949 . S
C753 C754 1.349 . S
C753 C755 1.327 . S
C753 H776 0.950 . S
C754 C753 1.349 . S
C754 C766 1.349 . S
C755 C753 1.327 . S
C755 C771 1.429 . S
C755 H777 0.950 . S
C756 H752 0.949 . S
C756 C764 1.574 . S
C756 C772 1.368 . S
H757 C765 0.950 . S
H758 C763 0.950 . S
H759 C764 0.949 . S
H760 C766 0.950 . S
H761 C767 0.950 . S
H762 C768 0.949 . S
C763 H758 0.950 . S
C763 C765 1.327 . S
C763 C769 1.429 . S
C764 C756 1.574 . S
C764 H759 0.949 . S
C764 C770 1.368 . S
C765 C749 1.349 . S
C765 H757 0.950 . S
C765 C763 1.327 . S
C766 C754 1.349 . S
C766 H760 0.950 . S
C766 C767 1.327 . S
C767 H761 0.950 . S
C767 C766 1.327 . S
C767 C771 1.429 . S
C768 C751 1.574 . S
C768 H762 0.949 . S
C768 C772 1.368 . S
C769 C750 1.429 . S
C769 C763 1.429 . S
C769 C770 1.523 . S
C770 C751 1.368 . S
C770 C764 1.368 . S
C770 C769 1.523 . S
C771 C755 1.429 . S
C771 C767 1.429 . S
C771 C772 1.523 . S
C772 C756 1.368 . S
C772 C768 1.368 . S
C772 C771 1.523 . S
H773 C748 0.950 . S
H774 C750 0.950 . S
H775 C751 0.949 . S
H776 C753 0.950 . S
H777 C755 0.950 . S
C778 C779 1.349 . S
C778 C780 1.327 . S
C778 H803 0.950 . S
C779 C778 1.349 . S
C779 C795 1.349 . S
C780 C778 1.327 . S
C780 C799 1.429 . S
C780 H804 0.950 . S
C781 C798 1.574 . S
C781 C800 1.368 . S
C781 H805 0.949 . S
H782 C786 0.949 . S
C783 C784 1.349 . S
C783 C785 1.327 . S
C783 H806 0.950 . S
C784 C783 1.349 . S
C784 C796 1.349 . S
C785 C783 1.327 . S
C785 C801 1.429 . S
C785 H807 0.950 . S
C786 H782 0.949 . S
C786 C794 1.574 . S
C786 C802 1.368 . S
H787 C795 0.950 . S
H788 C793 0.950 . S
H789 C794 0.949 . S
H790 C796 0.950 . S
H791 C797 0.950 . S
H792 C798 0.949 . S
C793 H788 0.950 . S
C793 C795 1.327 . S
C793 C799 1.429 . S
C794 C786 1.574 . S
C794 H789 0.949 . S
C794 C800 1.368 . S
C795 C779 1.349 . S
C795 H787 0.950 . S
C795 C793 1.327 . S
C796 C784 1.349 . S
C796 H790 0.950 . S
C796 C797 1.327 . S
C797 H791 0.950 . S
C797 C796 1.327 . S
C797 C801 1.429 . S
C798 C781 1.574 . S
C798 H792 0.949 . S
C798 C802 1.368 . S
C799 C780 1.429 . S
C799 C793 1.429 . S
C799 C800 1.523 . S
C800 C781 1.368 . S
C800 C794 1.368 . S
C800 C799 1.523 . S
C801 C785 1.429 . S
C801 C797 1.429 . S
C801 C802 1.523 . S
C802 C786 1.368 . S
C802 C798 1.368 . S
C802 C801 1.523 . S
H803 C778 0.950 . S
H804 C780 0.950 . S
H805 C781 0.949 . S
H806 C783 0.950 . S
H807 C785 0.950 . S
C808 C809 1.349 . S
C808 C810 1.327 . S
C808 H833 0.950 . S
C809 C808 1.349 . S
C809 C825 1.349 . S
C810 C808 1.327 . S
C810 C829 1.429 . S
C810 H834 0.950 . S
C811 C828 1.574 . S
C811 C830 1.368 . S
C811 H835 0.949 . S
H812 C816 0.949 . S
C813 C814 1.349 . S
C813 C815 1.327 . S
C813 H836 0.950 . S
C814 C813 1.349 . S
C814 C826 1.349 . S
C815 C813 1.327 . S
C815 C831 1.429 . S
C815 H837 0.950 . S
C816 H812 0.949 . S
C816 C824 1.574 . S
C816 C832 1.368 . S
H817 C825 0.950 . S
H818 C823 0.950 . S
H819 C824 0.949 . S
H820 C826 0.950 . S
H821 C827 0.950 . S
H822 C828 0.949 . S
C823 H818 0.950 . S
C823 C825 1.327 . S
C823 C829 1.429 . S
C824 C816 1.574 . S
C824 H819 0.949 . S
C824 C830 1.368 . S
C825 C809 1.349 . S
C825 H817 0.950 . S
C825 C823 1.327 . S
C826 C814 1.349 . S
C826 H820 0.950 . S
C826 C827 1.327 . S
C827 H821 0.950 . S
C827 C826 1.327 . S
C827 C831 1.429 . S
C828 C811 1.574 . S
C828 H822 0.949 . S
C828 C832 1.368 . S
C829 C810 1.429 . S
C829 C823 1.429 . S
C829 C830 1.523 . S
C830 C811 1.368 . S
C830 C824 1.368 . S
C830 C829 1.523 . S
C831 C815 1.429 . S
C831 C827 1.429 . S
C831 C832 1.523 . S
C832 C816 1.368 . S
C832 C828 1.368 . S
C832 C831 1.523 . S
H833 C808 0.950 . S
H834 C810 0.950 . S
H835 C811 0.949 . S
H836 C813 0.950 . S
H837 C815 0.950 . S
C838 C839 1.349 . S
C838 C840 1.327 . S
C838 H863 0.950 . S
C839 C838 1.349 . S
C839 C855 1.349 . S
C840 C838 1.327 . S
C840 C859 1.429 . S
C840 H864 0.950 . S
C841 C858 1.574 . S
C841 C860 1.368 . S
C841 H865 0.949 . S
H842 C846 0.949 . S
C843 C844 1.349 . S
C843 C845 1.327 . S
C843 H866 0.950 . S
C844 C843 1.349 . S
C844 C856 1.349 . S
C845 C843 1.327 . S
C845 C861 1.429 . S
C845 H867 0.950 . S
C846 H842 0.949 . S
C846 C854 1.574 . S
C846 C862 1.368 . S
H847 C855 0.950 . S
H848 C853 0.950 . S
H849 C854 0.949 . S
H850 C856 0.950 . S
H851 C857 0.950 . S
H852 C858 0.949 . S
C853 H848 0.950 . S
C853 C855 1.327 . S
C853 C859 1.429 . S
C854 C846 1.574 . S
C854 H849 0.949 . S
C854 C860 1.368 . S
C855 C839 1.349 . S
C855 H847 0.950 . S
C855 C853 1.327 . S
C856 C844 1.349 . S
C856 H850 0.950 . S
C856 C857 1.327 . S
C857 H851 0.950 . S
C857 C856 1.327 . S
C857 C861 1.429 . S
C858 C841 1.574 . S
C858 H852 0.949 . S
C858 C862 1.368 . S
C859 C840 1.429 . S
C859 C853 1.429 . S
C859 C860 1.523 . S
C860 C841 1.368 . S
C860 C854 1.368 . S
C860 C859 1.523 . S
C861 C845 1.429 . S
C861 C857 1.429 . S
C861 C862 1.523 . S
C862 C846 1.368 . S
C862 C858 1.368 . S
C862 C861 1.523 . S
H863 C838 0.950 . S
H864 C840 0.950 . S
H865 C841 0.949 . S
H866 C843 0.950 . S
H867 C845 0.950 . S
C868 C869 1.349 . S
C868 C870 1.327 . S
C868 H893 0.950 . S
C869 C868 1.349 . S
C869 C885 1.349 . S
C870 C868 1.327 . S
C870 C889 1.429 . S
C870 H894 0.950 . S
C871 C888 1.574 . S
C871 C890 1.368 . S
C871 H895 0.949 . S
H872 C876 0.949 . S
C873 C874 1.349 . S
C873 C875 1.327 . S
C873 H896 0.950 . S
C874 C873 1.349 . S
C874 C886 1.349 . S
C875 C873 1.327 . S
C875 C891 1.429 . S
C875 H897 0.950 . S
C876 H872 0.949 . S
C876 C884 1.574 . S
C876 C892 1.368 . S
H877 C885 0.950 . S
H878 C883 0.950 . S
H879 C884 0.949 . S
H880 C886 0.950 . S
H881 C887 0.950 . S
H882 C888 0.949 . S
C883 H878 0.950 . S
C883 C885 1.327 . S
C883 C889 1.429 . S
C884 C876 1.574 . S
C884 H879 0.949 . S
C884 C890 1.368 . S
C885 C869 1.349 . S
C885 H877 0.950 . S
C885 C883 1.327 . S
C886 C874 1.349 . S
C886 H880 0.950 . S
C886 C887 1.327 . S
C887 H881 0.950 . S
C887 C886 1.327 . S
C887 C891 1.429 . S
C888 C871 1.574 . S
C888 H882 0.949 . S
C888 C892 1.368 . S
C889 C870 1.429 . S
C889 C883 1.429 . S
C889 C890 1.523 . S
C890 C871 1.368 . S
C890 C884 1.368 . S
C890 C889 1.523 . S
C891 C875 1.429 . S
C891 C887 1.429 . S
C891 C892 1.523 . S
C892 C876 1.368 . S
C892 C888 1.368 . S
C892 C891 1.523 . S
H893 C868 0.950 . S
H894 C870 0.950 . S
H895 C871 0.949 . S
H896 C873 0.950 . S
H897 C875 0.950 . S
C898 C899 1.349 . S
C898 C900 1.327 . S
C898 H923 0.950 . S
C899 C898 1.349 . S
C899 C915 1.349 . S
C900 C898 1.327 . S
C900 C919 1.429 . S
C900 H924 0.950 . S
C901 C918 1.574 . S
C901 C920 1.368 . S
C901 H925 0.949 . S
H902 C906 0.949 . S
C903 C904 1.349 . S
C903 C905 1.327 . S
C903 H926 0.950 . S
C904 C903 1.349 . S
C904 C916 1.349 . S
C905 C903 1.327 . S
C905 C921 1.429 . S
C905 H927 0.950 . S
C906 H902 0.949 . S
C906 C914 1.574 . S
C906 C922 1.368 . S
H907 C915 0.950 . S
H908 C913 0.950 . S
H909 C914 0.949 . S
H910 C916 0.950 . S
H911 C917 0.950 . S
H912 C918 0.949 . S
C913 H908 0.950 . S
C913 C915 1.327 . S
C913 C919 1.429 . S
C914 C906 1.574 . S
C914 H909 0.949 . S
C914 C920 1.368 . S
C915 C899 1.349 . S
C915 H907 0.950 . S
C915 C913 1.327 . S
C916 C904 1.349 . S
C916 H910 0.950 . S
C916 C917 1.327 . S
C917 H911 0.950 . S
C917 C916 1.327 . S
C917 C921 1.429 . S
C918 C901 1.574 . S
C918 H912 0.949 . S
C918 C922 1.368 . S
C919 C900 1.429 . S
C919 C913 1.429 . S
C919 C920 1.523 . S
C920 C901 1.368 . S
C920 C914 1.368 . S
C920 C919 1.523 . S
C921 C905 1.429 . S
C921 C917 1.429 . S
C921 C922 1.523 . S
C922 C906 1.368 . S
C922 C918 1.368 . S
C922 C921 1.523 . S
H923 C898 0.950 . S
H924 C900 0.950 . S
H925 C901 0.949 . S
H926 C903 0.950 . S
H927 C905 0.950 . S
C928 C929 1.349 . S
C928 C930 1.327 . S
C928 H953 0.950 . S
C929 C928 1.349 . S
C929 C945 1.349 . S
C930 C928 1.327 . S
C930 C949 1.429 . S
C930 H954 0.950 . S
C931 C948 1.574 1_554 S
C931 C950 1.368 . S
C931 H955 0.949 . S
H932 C936 0.949 . S
C933 C934 1.349 . S
C933 C935 1.327 . S
C933 H956 0.950 . S
C934 C933 1.349 . S
C934 C946 1.349 . S
C935 C933 1.327 . S
C935 C951 1.429 . S
C935 H957 0.950 . S
C936 H932 0.949 . S
C936 C944 1.574 1_556 S
C936 C952 1.368 . S
H937 C945 0.950 . S
H938 C943 0.950 . S
H939 C944 0.949 . S
H940 C946 0.950 . S
H941 C947 0.950 . S
H942 C948 0.949 . S
C943 H938 0.950 . S
C943 C945 1.327 . S
C943 C949 1.429 . S
C944 C936 1.574 1_554 S
C944 H939 0.949 . S
C944 C950 1.368 . S
C945 C929 1.349 . S
C945 H937 0.950 . S
C945 C943 1.327 . S
C946 C934 1.349 . S
C946 H940 0.950 . S
C946 C947 1.327 . S
C947 H941 0.950 . S
C947 C946 1.327 . S
C947 C951 1.429 . S
C948 C931 1.574 1_556 S
C948 H942 0.949 . S
C948 C952 1.368 . S
C949 C930 1.429 . S
C949 C943 1.429 . S
C949 C950 1.523 . S
C950 C931 1.368 . S
C950 C944 1.368 . S
C950 C949 1.523 . S
C951 C935 1.429 . S
C951 C947 1.429 . S
C951 C952 1.523 . S
C952 C936 1.368 . S
C952 C948 1.368 . S
C952 C951 1.523 . S
H953 C928 0.950 . S
H954 C930 0.950 . S
H955 C931 0.949 . S
H956 C933 0.950 . S
H957 C935 0.950 . S
C958 C959 1.349 . S
C958 C960 1.327 . S
C958 H983 0.950 . S
C959 C958 1.349 . S
C959 C975 1.349 . S
C960 C958 1.327 . S
C960 C979 1.429 . S
C960 H984 0.950 . S
C961 C978 1.574 1_556 S
C961 C980 1.368 . S
C961 H985 0.949 . S
H962 C966 0.949 . S
C963 C964 1.349 . S
C963 C965 1.327 . S
C963 H986 0.950 . S
C964 C963 1.349 . S
C964 C976 1.349 . S
C965 C963 1.327 . S
C965 C981 1.429 . S
C965 H987 0.950 . S
C966 H962 0.949 . S
C966 C974 1.574 1_554 S
C966 C982 1.368 . S
H967 C975 0.950 . S
H968 C973 0.950 . S
H969 C974 0.949 . S
H970 C976 0.950 . S
H971 C977 0.950 . S
H972 C978 0.949 . S
C973 H968 0.950 . S
C973 C975 1.327 . S
C973 C979 1.429 . S
C974 C966 1.574 1_556 S
C974 H969 0.949 . S
C974 C980 1.368 . S
C975 C959 1.349 . S
C975 H967 0.950 . S
C975 C973 1.327 . S
C976 C964 1.349 . S
C976 H970 0.950 . S
C976 C977 1.327 . S
C977 H971 0.950 . S
C977 C976 1.327 . S
C977 C981 1.429 . S
C978 C961 1.574 1_554 S
C978 H972 0.949 . S
C978 C982 1.368 . S
C979 C960 1.429 . S
C979 C973 1.429 . S
C979 C980 1.523 . S
C980 C961 1.368 . S
C980 C974 1.368 . S
C980 C979 1.523 . S
C981 C965 1.429 . S
C981 C977 1.429 . S
C981 C982 1.523 . S
C982 C966 1.368 . S
C982 C978 1.368 . S
C982 C981 1.523 . S
H983 C958 0.950 . S
H984 C960 0.950 . S
H985 C961 0.949 . S
H986 C963 0.950 . S
H987 C965 0.950 . S
C988 C989 1.349 . S
C988 C990 1.327 . S
C988 H1013 0.950 . S
C989 C988 1.349 . S
C989 C1005 1.349 . S
C990 C988 1.327 . S
C990 C1009 1.429 . S
C990 H1014 0.950 . S
C991 C1008 1.574 1_556 S
C991 C1010 1.368 . S
C991 H1015 0.949 . S
H992 C996 0.949 . S
C993 C994 1.349 . S
C993 C995 1.327 . S
C993 H1016 0.950 . S
C994 C993 1.349 . S
C994 C1006 1.349 . S
C995 C993 1.327 . S
C995 C1011 1.429 . S
C995 H1017 0.950 . S
C996 H992 0.949 . S
C996 C1004 1.574 1_554 S
C996 C1012 1.368 . S
H997 C1005 0.950 . S
H998 C1003 0.950 . S
H999 C1004 0.949 . S
H1000 C1006 0.950 . S
H1001 C1007 0.950 . S
H1002 C1008 0.949 . S
C1003 H998 0.950 . S
C1003 C1005 1.327 . S
C1003 C1009 1.429 . S
C1004 C996 1.574 1_556 S
C1004 H999 0.949 . S
C1004 C1010 1.368 . S
C1005 C989 1.349 . S
C1005 H997 0.950 . S
C1005 C1003 1.327 . S
C1006 C994 1.349 . S
C1006 H1000 0.950 . S
C1006 C1007 1.327 . S
C1007 H1001 0.950 . S
C1007 C1006 1.327 . S
C1007 C1011 1.429 . S
C1008 C991 1.574 1_554 S
C1008 H1002 0.949 . S
C1008 C1012 1.368 . S
C1009 C990 1.429 . S
C1009 C1003 1.429 . S
C1009 C1010 1.523 . S
C1010 C991 1.368 . S
C1010 C1004 1.368 . S
C1010 C1009 1.523 . S
C1011 C995 1.429 . S
C1011 C1007 1.429 . S
C1011 C1012 1.523 . S
C1012 C996 1.368 . S
C1012 C1008 1.368 . S
C1012 C1011 1.523 . S
H1013 C988 0.950 . S
H1014 C990 0.950 . S
H1015 C991 0.949 . S
H1016 C993 0.950 . S
H1017 C995 0.950 . S
C1018 C1019 1.349 . S
C1018 C1020 1.327 . S
C1018 H1043 0.950 . S
C1019 C1018 1.349 . S
C1019 C1035 1.349 . S
C1020 C1018 1.327 . S
C1020 C1039 1.429 . S
C1020 H1044 0.950 . S
C1021 C1038 1.574 1_556 S
C1021 C1040 1.368 . S
C1021 H1045 0.949 . S
H1022 C1026 0.949 . S
C1023 C1024 1.349 . S
C1023 C1025 1.327 . S
C1023 H1046 0.950 . S
C1024 C1023 1.349 . S
C1024 C1036 1.349 . S
C1025 C1023 1.327 . S
C1025 C1041 1.429 . S
C1025 H1047 0.950 . S
C1026 H1022 0.949 . S
C1026 C1034 1.574 1_554 S
C1026 C1042 1.368 . S
H1027 C1035 0.950 . S
H1028 C1033 0.950 . S
H1029 C1034 0.949 . S
H1030 C1036 0.950 . S
H1031 C1037 0.950 . S
H1032 C1038 0.949 . S
C1033 H1028 0.950 . S
C1033 C1035 1.327 . S
C1033 C1039 1.429 . S
C1034 C1026 1.574 1_556 S
C1034 H1029 0.949 . S
C1034 C1040 1.368 . S
C1035 C1019 1.349 . S
C1035 H1027 0.950 . S
C1035 C1033 1.327 . S
C1036 C1024 1.349 . S
C1036 H1030 0.950 . S
C1036 C1037 1.327 . S
C1037 H1031 0.950 . S
C1037 C1036 1.327 . S
C1037 C1041 1.429 . S
C1038 C1021 1.574 1_554 S
C1038 H1032 0.949 . S
C1038 C1042 1.368 . S
C1039 C1020 1.429 . S
C1039 C1033 1.429 . S
C1039 C1040 1.523 . S
C1040 C1021 1.368 . S
C1040 C1034 1.368 . S
C1040 C1039 1.523 . S
C1041 C1025 1.429 . S
C1041 C1037 1.429 . S
C1041 C1042 1.523 . S
C1042 C1026 1.368 . S
C1042 C1038 1.368 . S
C1042 C1041 1.523 . S
H1043 C1018 0.950 . S
H1044 C1020 0.950 . S
H1045 C1021 0.949 . S
H1046 C1023 0.950 . S
H1047 C1025 0.950 . S
C1048 C1049 1.349 . S
C1048 C1050 1.327 . S
C1048 H1073 0.950 . S
C1049 C1048 1.349 . S
C1049 C1065 1.349 . S
C1050 C1048 1.327 . S
C1050 C1069 1.429 . S
C1050 H1074 0.950 . S
C1051 C1068 1.574 . S
C1051 C1070 1.368 . S
C1051 H1075 0.949 . S
H1052 C1056 0.949 . S
C1053 C1054 1.349 . S
C1053 C1055 1.327 . S
C1053 H1076 0.950 . S
C1054 C1053 1.349 . S
C1054 C1066 1.349 . S
C1055 C1053 1.327 . S
C1055 C1071 1.429 . S
C1055 H1077 0.950 . S
C1056 H1052 0.949 . S
C1056 C1064 1.574 . S
C1056 C1072 1.368 . S
H1057 C1065 0.950 . S
H1058 C1063 0.950 . S
H1059 C1064 0.949 . S
H1060 C1066 0.950 . S
H1061 C1067 0.950 . S
H1062 C1068 0.949 . S
C1063 H1058 0.950 . S
C1063 C1065 1.327 . S
C1063 C1069 1.429 . S
C1064 C1056 1.574 . S
C1064 H1059 0.949 . S
C1064 C1070 1.368 . S
C1065 C1049 1.349 . S
C1065 H1057 0.950 . S
C1065 C1063 1.327 . S
C1066 C1054 1.349 . S
C1066 H1060 0.950 . S
C1066 C1067 1.327 . S
C1067 H1061 0.950 . S
C1067 C1066 1.327 . S
C1067 C1071 1.429 . S
C1068 C1051 1.574 . S
C1068 H1062 0.949 . S
C1068 C1072 1.368 . S
C1069 C1050 1.429 . S
C1069 C1063 1.429 . S
C1069 C1070 1.523 . S
C1070 C1051 1.368 . S
C1070 C1064 1.368 . S
C1070 C1069 1.523 . S
C1071 C1055 1.429 . S
C1071 C1067 1.429 . S
C1071 C1072 1.523 . S
C1072 C1056 1.368 . S
C1072 C1068 1.368 . S
C1072 C1071 1.523 . S
H1073 C1048 0.950 . S
H1074 C1050 0.950 . S
H1075 C1051 0.949 . S
H1076 C1053 0.950 . S
H1077 C1055 0.950 . S
C1078 C1079 1.349 . S
C1078 C1080 1.327 . S
C1078 H1103 0.950 . S
C1079 C1078 1.349 . S
C1079 C1095 1.349 . S
C1080 C1078 1.327 . S
C1080 C1099 1.429 . S
C1080 H1104 0.950 . S
C1081 C1098 1.574 . S
C1081 C1100 1.368 . S
C1081 H1105 0.949 . S
H1082 C1086 0.949 . S
C1083 C1084 1.349 . S
C1083 C1085 1.327 . S
C1083 H1106 0.950 . S
C1084 C1083 1.349 . S
C1084 C1096 1.349 . S
C1085 C1083 1.327 . S
C1085 C1101 1.429 . S
C1085 H1107 0.950 . S
C1086 H1082 0.949 . S
C1086 C1094 1.574 . S
C1086 C1102 1.368 . S
H1087 C1095 0.950 . S
H1088 C1093 0.950 . S
H1089 C1094 0.949 . S
H1090 C1096 0.950 . S
H1091 C1097 0.950 . S
H1092 C1098 0.949 . S
C1093 H1088 0.950 . S
C1093 C1095 1.327 . S
C1093 C1099 1.429 . S
C1094 C1086 1.574 . S
C1094 H1089 0.949 . S
C1094 C1100 1.368 . S
C1095 C1079 1.349 . S
C1095 H1087 0.950 . S
C1095 C1093 1.327 . S
C1096 C1084 1.349 . S
C1096 H1090 0.950 . S
C1096 C1097 1.327 . S
C1097 H1091 0.950 . S
C1097 C1096 1.327 . S
C1097 C1101 1.429 . S
C1098 C1081 1.574 . S
C1098 H1092 0.949 . S
C1098 C1102 1.368 . S
C1099 C1080 1.429 . S
C1099 C1093 1.429 . S
C1099 C1100 1.523 . S
C1100 C1081 1.368 . S
C1100 C1094 1.368 . S
C1100 C1099 1.523 . S
C1101 C1085 1.429 . S
C1101 C1097 1.429 . S
C1101 C1102 1.523 . S
C1102 C1086 1.368 . S
C1102 C1098 1.368 . S
C1102 C1101 1.523 . S
H1103 C1078 0.950 . S
H1104 C1080 0.950 . S
H1105 C1081 0.949 . S
H1106 C1083 0.950 . S
H1107 C1085 0.950 . S
C1108 C1109 1.349 . S
C1108 C1110 1.327 . S
C1108 H1133 0.950 . S
C1109 C1108 1.349 . S
C1109 C1125 1.349 . S
C1110 C1108 1.327 . S
C1110 C1129 1.429 . S
C1110 H1134 0.950 . S
C1111 C1128 1.574 . S
C1111 C1130 1.368 . S
C1111 H1135 0.949 . S
H1112 C1116 0.949 . S
C1113 C1114 1.349 . S
C1113 C1115 1.327 . S
C1113 H1136 0.950 . S
C1114 C1113 1.349 . S
C1114 C1126 1.349 . S
C1115 C1113 1.327 . S
C1115 C1131 1.429 . S
C1115 H1137 0.950 . S
C1116 H1112 0.949 . S
C1116 C1124 1.574 . S
C1116 C1132 1.368 . S
H1117 C1125 0.950 . S
H1118 C1123 0.950 . S
H1119 C1124 0.949 . S
H1120 C1126 0.950 . S
H1121 C1127 0.950 . S
H1122 C1128 0.949 . S
C1123 H1118 0.950 . S
C1123 C1125 1.327 . S
C1123 C1129 1.429 . S
C1124 C1116 1.574 . S
C1124 H1119 0.949 . S
C1124 C1130 1.368 . S
C1125 C1109 1.349 . S
C1125 H1117 0.950 . S
C1125 C1123 1.327 . S
C1126 C1114 1.349 . S
C1126 H1120 0.950 . S
C1126 C1127 1.327 . S
C1127 H1121 0.950 . S
C1127 C1126 1.327 . S
C1127 C1131 1.429 . S
C1128 C1111 1.574 . S
C1128 H1122 0.949 . S
C1128 C1132 1.368 . S
C1129 C1110 1.429 . S
C1129 C1123 1.429 . S
C1129 C1130 1.523 . S
C1130 C1111 1.368 . S
C1130 C1124 1.368 . S
C1130 C1129 1.523 . S
C1131 C1115 1.429 . S
C1131 C1127 1.429 . S
C1131 C1132 1.523 . S
C1132 C1116 1.368 . S
C1132 C1128 1.368 . S
C1132 C1131 1.523 . S
H1133 C1108 0.950 . S
H1134 C1110 0.950 . S
H1135 C1111 0.949 . S
H1136 C1113 0.950 . S
H1137 C1115 0.950 . S
C1138 C1139 1.349 . S
C1138 C1140 1.327 . S
C1138 H1163 0.950 . S
C1139 C1138 1.349 . S
C1139 C1155 1.349 . S
C1140 C1138 1.327 . S
C1140 C1159 1.429 . S
C1140 H1164 0.950 . S
C1141 C1158 1.574 . S
C1141 C1160 1.368 . S
C1141 H1165 0.949 . S
H1142 C1146 0.949 . S
C1143 C1144 1.349 . S
C1143 C1145 1.327 . S
C1143 H1166 0.950 . S
C1144 C1143 1.349 . S
C1144 C1156 1.349 . S
C1145 C1143 1.327 . S
C1145 C1161 1.429 . S
C1145 H1167 0.950 . S
C1146 H1142 0.949 . S
C1146 C1154 1.574 . S
C1146 C1162 1.368 . S
H1147 C1155 0.950 . S
H1148 C1153 0.950 . S
H1149 C1154 0.949 . S
H1150 C1156 0.950 . S
H1151 C1157 0.950 . S
H1152 C1158 0.949 . S
C1153 H1148 0.950 . S
C1153 C1155 1.327 . S
C1153 C1159 1.429 . S
C1154 C1146 1.574 . S
C1154 H1149 0.949 . S
C1154 C1160 1.368 . S
C1155 C1139 1.349 . S
C1155 H1147 0.950 . S
C1155 C1153 1.327 . S
C1156 C1144 1.349 . S
C1156 H1150 0.950 . S
C1156 C1157 1.327 . S
C1157 H1151 0.950 . S
C1157 C1156 1.327 . S
C1157 C1161 1.429 . S
C1158 C1141 1.574 . S
C1158 H1152 0.949 . S
C1158 C1162 1.368 . S
C1159 C1140 1.429 . S
C1159 C1153 1.429 . S
C1159 C1160 1.523 . S
C1160 C1141 1.368 . S
C1160 C1154 1.368 . S
C1160 C1159 1.523 . S
C1161 C1145 1.429 . S
C1161 C1157 1.429 . S
C1161 C1162 1.523 . S
C1162 C1146 1.368 . S
C1162 C1158 1.368 . S
C1162 C1161 1.523 . S
H1163 C1138 0.950 . S
H1164 C1140 0.950 . S
H1165 C1141 0.949 . S
H1166 C1143 0.950 . S
H1167 C1145 0.950 . S
C1168 C1169 1.349 . S
C1168 C1170 1.327 . S
C1168 H1193 0.950 . S
C1169 C1168 1.349 . S
C1169 C1185 1.349 . S
C1170 C1168 1.327 . S
C1170 C1189 1.429 . S
C1170 H1194 0.950 . S
C1171 C1188 1.574 . S
C1171 C1190 1.368 . S
C1171 H1195 0.949 . S
H1172 C1176 0.949 . S
C1173 C1174 1.349 . S
C1173 C1175 1.327 . S
C1173 H1196 0.950 . S
C1174 C1173 1.349 . S
C1174 C1186 1.349 . S
C1175 C1173 1.327 . S
C1175 C1191 1.429 . S
C1175 H1197 0.950 . S
C1176 H1172 0.949 . S
C1176 C1184 1.574 . S
C1176 C1192 1.368 . S
H1177 C1185 0.950 . S
H1178 C1183 0.950 . S
H1179 C1184 0.949 . S
H1180 C1186 0.950 . S
H1181 C1187 0.950 . S
H1182 C1188 0.949 . S
C1183 H1178 0.950 . S
C1183 C1185 1.327 . S
C1183 C1189 1.429 . S
C1184 C1176 1.574 . S
C1184 H1179 0.949 . S
C1184 C1190 1.368 . S
C1185 C1169 1.349 . S
C1185 H1177 0.950 . S
C1185 C1183 1.327 . S
C1186 C1174 1.349 . S
C1186 H1180 0.950 . S
C1186 C1187 1.327 . S
C1187 H1181 0.950 . S
C1187 C1186 1.327 . S
C1187 C1191 1.429 . S
C1188 C1171 1.574 . S
C1188 H1182 0.949 . S
C1188 C1192 1.368 . S
C1189 C1170 1.429 . S
C1189 C1183 1.429 . S
C1189 C1190 1.523 . S
C1190 C1171 1.368 . S
C1190 C1184 1.368 . S
C1190 C1189 1.523 . S
C1191 C1175 1.429 . S
C1191 C1187 1.429 . S
C1191 C1192 1.523 . S
C1192 C1176 1.368 . S
C1192 C1188 1.368 . S
C1192 C1191 1.523 . S
H1193 C1168 0.950 . S
H1194 C1170 0.950 . S
H1195 C1171 0.949 . S
H1196 C1173 0.950 . S
H1197 C1175 0.950 . S
C1198 C1199 1.349 . S
C1198 C1200 1.327 . S
C1198 H1223 0.950 . S
C1199 C1198 1.349 . S
C1199 C1215 1.349 . S
C1200 C1198 1.327 . S
C1200 C1219 1.429 . S
C1200 H1224 0.950 . S
C1201 C1218 1.574 . S
C1201 C1220 1.368 . S
C1201 H1225 0.949 . S
H1202 C1206 0.949 . S
C1203 C1204 1.349 . S
C1203 C1205 1.327 . S
C1203 H1226 0.950 . S
C1204 C1203 1.349 . S
C1204 C1216 1.349 . S
C1205 C1203 1.327 . S
C1205 C1221 1.429 . S
C1205 H1227 0.950 . S
C1206 H1202 0.949 . S
C1206 C1214 1.574 . S
C1206 C1222 1.368 . S
H1207 C1215 0.950 . S
H1208 C1213 0.950 . S
H1209 C1214 0.949 . S
H1210 C1216 0.950 . S
H1211 C1217 0.950 . S
H1212 C1218 0.949 . S
C1213 H1208 0.950 . S
C1213 C1215 1.327 . S
C1213 C1219 1.429 . S
C1214 C1206 1.574 . S
C1214 H1209 0.949 . S
C1214 C1220 1.368 . S
C1215 C1199 1.349 . S
C1215 H1207 0.950 . S
C1215 C1213 1.327 . S
C1216 C1204 1.349 . S
C1216 H1210 0.950 . S
C1216 C1217 1.327 . S
C1217 H1211 0.950 . S
C1217 C1216 1.327 . S
C1217 C1221 1.429 . S
C1218 C1201 1.574 . S
C1218 H1212 0.949 . S
C1218 C1222 1.368 . S
C1219 C1200 1.429 . S
C1219 C1213 1.429 . S
C1219 C1220 1.523 . S
C1220 C1201 1.368 . S
C1220 C1214 1.368 . S
C1220 C1219 1.523 . S
C1221 C1205 1.429 . S
C1221 C1217 1.429 . S
C1221 C1222 1.523 . S
C1222 C1206 1.368 . S
C1222 C1218 1.368 . S
C1222 C1221 1.523 . S
H1223 C1198 0.950 . S
H1224 C1200 0.950 . S
H1225 C1201 0.949 . S
H1226 C1203 0.950 . S
H1227 C1205 0.950 . S
C1228 C1229 1.349 . S
C1228 C1230 1.327 . S
C1228 H1253 0.950 . S
C1229 C1228 1.349 . S
C1229 C1245 1.349 . S
C1230 C1228 1.327 . S
C1230 C1249 1.429 . S
C1230 H1254 0.950 . S
C1231 C1248 1.574 . S
C1231 C1250 1.368 . S
C1231 H1255 0.949 . S
H1232 C1236 0.949 . S
C1233 C1234 1.349 . S
C1233 C1235 1.327 . S
C1233 H1256 0.950 . S
C1234 C1233 1.349 . S
C1234 C1246 1.349 . S
C1235 C1233 1.327 . S
C1235 C1251 1.429 . S
C1235 H1257 0.950 . S
C1236 H1232 0.949 . S
C1236 C1244 1.574 . S
C1236 C1252 1.368 . S
H1237 C1245 0.950 . S
H1238 C1243 0.950 . S
H1239 C1244 0.949 . S
H1240 C1246 0.950 . S
H1241 C1247 0.950 . S
H1242 C1248 0.949 . S
C1243 H1238 0.950 . S
C1243 C1245 1.327 . S
C1243 C1249 1.429 . S
C1244 C1236 1.574 . S
C1244 H1239 0.949 . S
C1244 C1250 1.368 . S
C1245 C1229 1.349 . S
C1245 H1237 0.950 . S
C1245 C1243 1.327 . S
C1246 C1234 1.349 . S
C1246 H1240 0.950 . S
C1246 C1247 1.327 . S
C1247 H1241 0.950 . S
C1247 C1246 1.327 . S
C1247 C1251 1.429 . S
C1248 C1231 1.574 . S
C1248 H1242 0.949 . S
C1248 C1252 1.368 . S
C1249 C1230 1.429 . S
C1249 C1243 1.429 . S
C1249 C1250 1.523 . S
C1250 C1231 1.368 . S
C1250 C1244 1.368 . S
C1250 C1249 1.523 . S
C1251 C1235 1.429 . S
C1251 C1247 1.429 . S
C1251 C1252 1.523 . S
C1252 C1236 1.368 . S
C1252 C1248 1.368 . S
C1252 C1251 1.523 . S
H1253 C1228 0.950 . S
H1254 C1230 0.950 . S
H1255 C1231 0.949 . S
H1256 C1233 0.950 . S
H1257 C1235 0.950 . S
C1258 C1259 1.349 . S
C1258 C1260 1.327 . S
C1258 H1283 0.950 . S
C1259 C1258 1.349 . S
C1259 C1275 1.349 . S
C1260 C1258 1.327 . S
C1260 C1279 1.429 . S
C1260 H1284 0.950 . S
C1261 C1278 1.574 . S
C1261 C1280 1.368 . S
C1261 H1285 0.949 . S
H1262 C1266 0.949 . S
C1263 C1264 1.349 . S
C1263 C1265 1.327 . S
C1263 H1286 0.950 . S
C1264 C1263 1.349 . S
C1264 C1276 1.349 . S
C1265 C1263 1.327 . S
C1265 C1281 1.429 . S
C1265 H1287 0.950 . S
C1266 H1262 0.949 . S
C1266 C1274 1.574 . S
C1266 C1282 1.368 . S
H1267 C1275 0.950 . S
H1268 C1273 0.950 . S
H1269 C1274 0.949 . S
H1270 C1276 0.950 . S
H1271 C1277 0.950 . S
H1272 C1278 0.949 . S
C1273 H1268 0.950 . S
C1273 C1275 1.327 . S
C1273 C1279 1.429 . S
C1274 C1266 1.574 . S
C1274 H1269 0.949 . S
C1274 C1280 1.368 . S
C1275 C1259 1.349 . S
C1275 H1267 0.950 . S
C1275 C1273 1.327 . S
C1276 C1264 1.349 . S
C1276 H1270 0.950 . S
C1276 C1277 1.327 . S
C1277 H1271 0.950 . S
C1277 C1276 1.327 . S
C1277 C1281 1.429 . S
C1278 C1261 1.574 . S
C1278 H1272 0.949 . S
C1278 C1282 1.368 . S
C1279 C1260 1.429 . S
C1279 C1273 1.429 . S
C1279 C1280 1.523 . S
C1280 C1261 1.368 . S
C1280 C1274 1.368 . S
C1280 C1279 1.523 . S
C1281 C1265 1.429 . S
C1281 C1277 1.429 . S
C1281 C1282 1.523 . S
C1282 C1266 1.368 . S
C1282 C1278 1.368 . S
C1282 C1281 1.523 . S
H1283 C1258 0.950 . S
H1284 C1260 0.950 . S
H1285 C1261 0.949 . S
H1286 C1263 0.950 . S
H1287 C1265 0.950 . S
C1288 C1289 1.349 . S
C1288 C1290 1.327 . S
C1288 H1313 0.950 . S
C1289 C1288 1.349 . S
C1289 C1305 1.349 . S
C1290 C1288 1.327 . S
C1290 C1309 1.429 . S
C1290 H1314 0.950 . S
C1291 C1308 1.574 1_556 S
C1291 C1310 1.368 . S
C1291 H1315 0.949 . S
H1292 C1296 0.949 . S
C1293 C1294 1.349 . S
C1293 C1295 1.327 . S
C1293 H1316 0.950 . S
C1294 C1293 1.349 . S
C1294 C1306 1.349 . S
C1295 C1293 1.327 . S
C1295 C1311 1.429 . S
C1295 H1317 0.950 . S
C1296 H1292 0.949 . S
C1296 C1304 1.574 1_554 S
C1296 C1312 1.368 . S
H1297 C1305 0.950 . S
H1298 C1303 0.950 . S
H1299 C1304 0.949 . S
H1300 C1306 0.950 . S
H1301 C1307 0.950 . S
H1302 C1308 0.949 . S
C1303 H1298 0.950 . S
C1303 C1305 1.327 . S
C1303 C1309 1.429 . S
C1304 C1296 1.574 1_556 S
C1304 H1299 0.949 . S
C1304 C1310 1.368 . S
C1305 C1289 1.349 . S
C1305 H1297 0.950 . S
C1305 C1303 1.327 . S
C1306 C1294 1.349 . S
C1306 H1300 0.950 . S
C1306 C1307 1.327 . S
C1307 H1301 0.950 . S
C1307 C1306 1.327 . S
C1307 C1311 1.429 . S
C1308 C1291 1.574 1_554 S
C1308 H1302 0.949 . S
C1308 C1312 1.368 . S
C1309 C1290 1.429 . S
C1309 C1303 1.429 . S
C1309 C1310 1.523 . S
C1310 C1291 1.368 . S
C1310 C1304 1.368 . S
C1310 C1309 1.523 . S
C1311 C1295 1.429 . S
C1311 C1307 1.429 . S
C1311 C1312 1.523 . S
C1312 C1296 1.368 . S
C1312 C1308 1.368 . S
C1312 C1311 1.523 . S
H1313 C1288 0.950 . S
H1314 C1290 0.950 . S
H1315 C1291 0.949 . S
H1316 C1293 0.950 . S
H1317 C1295 0.950 . S
C1318 C1319 1.349 . S
C1318 C1320 1.327 . S
C1318 H1343 0.950 . S
C1319 C1318 1.349 . S
C1319 C1335 1.349 . S
C1320 C1318 1.327 . S
C1320 C1339 1.429 . S
C1320 H1344 0.950 . S
C1321 C1338 1.574 1_554 S
C1321 C1340 1.368 . S
C1321 H1345 0.949 . S
H1322 C1326 0.949 . S
C1323 C1324 1.349 . S
C1323 C1325 1.327 . S
C1323 H1346 0.950 . S
C1324 C1323 1.349 . S
C1324 C1336 1.349 . S
C1325 C1323 1.327 . S
C1325 C1341 1.429 . S
C1325 H1347 0.950 . S
C1326 H1322 0.949 . S
C1326 C1334 1.574 1_556 S
C1326 C1342 1.368 . S
H1327 C1335 0.950 . S
H1328 C1333 0.950 . S
H1329 C1334 0.949 . S
H1330 C1336 0.950 . S
H1331 C1337 0.950 . S
H1332 C1338 0.949 . S
C1333 H1328 0.950 . S
C1333 C1335 1.327 . S
C1333 C1339 1.429 . S
C1334 C1326 1.574 1_554 S
C1334 H1329 0.949 . S
C1334 C1340 1.368 . S
C1335 C1319 1.349 . S
C1335 H1327 0.950 . S
C1335 C1333 1.327 . S
C1336 C1324 1.349 . S
C1336 H1330 0.950 . S
C1336 C1337 1.327 . S
C1337 H1331 0.950 . S
C1337 C1336 1.327 . S
C1337 C1341 1.429 . S
C1338 C1321 1.574 1_556 S
C1338 H1332 0.949 . S
C1338 C1342 1.368 . S
C1339 C1320 1.429 . S
C1339 C1333 1.429 . S
C1339 C1340 1.523 . S
C1340 C1321 1.368 . S
C1340 C1334 1.368 . S
C1340 C1339 1.523 . S
C1341 C1325 1.429 . S
C1341 C1337 1.429 . S
C1341 C1342 1.523 . S
C1342 C1326 1.368 . S
C1342 C1338 1.368 . S
C1342 C1341 1.523 . S
H1343 C1318 0.950 . S
H1344 C1320 0.950 . S
H1345 C1321 0.949 . S
H1346 C1323 0.950 . S
H1347 C1325 0.950 . S
C1348 C1349 1.349 . S
C1348 C1350 1.327 . S
C1348 H1373 0.950 . S
C1349 C1348 1.349 . S
C1349 C1365 1.349 . S
C1350 C1348 1.327 . S
C1350 C1369 1.429 . S
C1350 H1374 0.950 . S
C1351 C1368 1.574 1_554 S
C1351 C1370 1.368 . S
C1351 H1375 0.949 . S
H1352 C1356 0.949 . S
C1353 C1354 1.349 . S
C1353 C1355 1.327 . S
C1353 H1376 0.950 . S
C1354 C1353 1.349 . S
C1354 C1366 1.349 . S
C1355 C1353 1.327 . S
C1355 C1371 1.429 . S
C1355 H1377 0.950 . S
C1356 H1352 0.949 . S
C1356 C1364 1.574 1_556 S
C1356 C1372 1.368 . S
H1357 C1365 0.950 . S
H1358 C1363 0.950 . S
H1359 C1364 0.949 . S
H1360 C1366 0.950 . S
H1361 C1367 0.950 . S
H1362 C1368 0.949 . S
C1363 H1358 0.950 . S
C1363 C1365 1.327 . S
C1363 C1369 1.429 . S
C1364 C1356 1.574 1_554 S
C1364 H1359 0.949 . S
C1364 C1370 1.368 . S
C1365 C1349 1.349 . S
C1365 H1357 0.950 . S
C1365 C1363 1.327 . S
C1366 C1354 1.349 . S
C1366 H1360 0.950 . S
C1366 C1367 1.327 . S
C1367 H1361 0.950 . S
C1367 C1366 1.327 . S
C1367 C1371 1.429 . S
C1368 C1351 1.574 1_556 S
C1368 H1362 0.949 . S
C1368 C1372 1.368 . S
C1369 C1350 1.429 . S
C1369 C1363 1.429 . S
C1369 C1370 1.523 . S
C1370 C1351 1.368 . S
C1370 C1364 1.368 . S
C1370 C1369 1.523 . S
C1371 C1355 1.429 . S
C1371 C1367 1.429 . S
C1371 C1372 1.523 . S
C1372 C1356 1.368 . S
C1372 C1368 1.368 . S
C1372 C1371 1.523 . S
H1373 C1348 0.950 . S
H1374 C1350 0.950 . S
H1375 C1351 0.949 . S
H1376 C1353 0.950 . S
H1377 C1355 0.950 . S
C1378 C1379 1.349 . S
C1378 C1380 1.327 . S
C1378 H1403 0.950 . S
C1379 C1378 1.349 . S
C1379 C1395 1.349 . S
C1380 C1378 1.327 . S
C1380 C1399 1.429 . S
C1380 H1404 0.950 . S
C1381 C1398 1.574 1_556 S
C1381 C1400 1.368 . S
C1381 H1405 0.949 . S
H1382 C1386 0.949 . S
C1383 C1384 1.349 . S
C1383 C1385 1.327 . S
C1383 H1406 0.950 . S
C1384 C1383 1.349 . S
C1384 C1396 1.349 . S
C1385 C1383 1.327 . S
C1385 C1401 1.429 . S
C1385 H1407 0.950 . S
C1386 H1382 0.949 . S
C1386 C1394 1.574 1_554 S
C1386 C1402 1.368 . S
H1387 C1395 0.950 . S
H1388 C1393 0.950 . S
H1389 C1394 0.949 . S
H1390 C1396 0.950 . S
H1391 C1397 0.950 . S
H1392 C1398 0.949 . S
C1393 H1388 0.950 . S
C1393 C1395 1.327 . S
C1393 C1399 1.429 . S
C1394 C1386 1.574 1_556 S
C1394 H1389 0.949 . S
C1394 C1400 1.368 . S
C1395 C1379 1.349 . S
C1395 H1387 0.950 . S
C1395 C1393 1.327 . S
C1396 C1384 1.349 . S
C1396 H1390 0.950 . S
C1396 C1397 1.327 . S
C1397 H1391 0.950 . S
C1397 C1396 1.327 . S
C1397 C1401 1.429 . S
C1398 C1381 1.574 1_554 S
C1398 H1392 0.949 . S
C1398 C1402 1.368 . S
C1399 C1380 1.429 . S
C1399 C1393 1.429 . S
C1399 C1400 1.523 . S
C1400 C1381 1.368 . S
C1400 C1394 1.368 . S
C1400 C1399 1.523 . S
C1401 C1385 1.429 . S
C1401 C1397 1.429 . S
C1401 C1402 1.523 . S
C1402 C1386 1.368 . S
C1402 C1398 1.368 . S
C1402 C1401 1.523 . S
H1403 C1378 0.950 . S
H1404 C1380 0.950 . S
H1405 C1381 0.949 . S
H1406 C1383 0.950 . S
H1407 C1385 0.950 . S
C1408 C1409 1.349 . S
C1408 C1410 1.327 . S
C1408 H1433 0.950 . S
C1409 C1408 1.349 . S
C1409 C1425 1.349 . S
C1410 C1408 1.327 . S
C1410 C1429 1.429 . S
C1410 H1434 0.950 . S
C1411 C1428 1.574 1_545 S
C1411 C1430 1.368 . S
C1411 H1435 0.949 . S
H1412 C1416 0.949 . S
C1413 C1414 1.349 . S
C1413 C1415 1.327 . S
C1413 H1436 0.950 . S
C1414 C1413 1.349 . S
C1414 C1426 1.349 . S
C1415 C1413 1.327 . S
C1415 C1431 1.429 . S
C1415 H1437 0.950 . S
C1416 H1412 0.949 . S
C1416 C1424 1.574 1_565 S
C1416 C1432 1.368 . S
H1417 C1425 0.950 . S
H1418 C1423 0.950 . S
H1419 C1424 0.949 . S
H1420 C1426 0.950 . S
H1421 C1427 0.950 . S
H1422 C1428 0.949 . S
C1423 H1418 0.950 . S
C1423 C1425 1.327 . S
C1423 C1429 1.429 . S
C1424 C1416 1.574 1_545 S
C1424 H1419 0.949 . S
C1424 C1430 1.368 . S
C1425 C1409 1.349 . S
C1425 H1417 0.950 . S
C1425 C1423 1.327 . S
C1426 C1414 1.349 . S
C1426 H1420 0.950 . S
C1426 C1427 1.327 . S
C1427 H1421 0.950 . S
C1427 C1426 1.327 . S
C1427 C1431 1.429 . S
C1428 C1411 1.574 1_565 S
C1428 H1422 0.949 . S
C1428 C1432 1.368 . S
C1429 C1410 1.429 . S
C1429 C1423 1.429 . S
C1429 C1430 1.523 . S
C1430 C1411 1.368 . S
C1430 C1424 1.368 . S
C1430 C1429 1.523 . S
C1431 C1415 1.429 . S
C1431 C1427 1.429 . S
C1431 C1432 1.523 . S
C1432 C1416 1.368 . S
C1432 C1428 1.368 . S
C1432 C1431 1.523 . S
H1433 C1408 0.950 . S
H1434 C1410 0.950 . S
H1435 C1411 0.949 . S
H1436 C1413 0.950 . S
H1437 C1415 0.950 . S
C1438 C1439 1.349 . S
C1438 C1440 1.327 . S
C1438 H1463 0.950 . S
C1439 C1438 1.349 . S
C1439 C1455 1.349 . S
C1440 C1438 1.327 . S
C1440 C1459 1.429 . S
C1440 H1464 0.950 . S
C1441 C1458 1.574 1_655 S
C1441 C1460 1.368 . S
C1441 H1465 0.949 . S
H1442 C1446 0.949 . S
C1443 C1444 1.349 . S
C1443 C1445 1.327 . S
C1443 H1466 0.950 . S
C1444 C1443 1.349 . S
C1444 C1456 1.349 . S
C1445 C1443 1.327 . S
C1445 C1461 1.429 . S
C1445 H1467 0.950 . S
C1446 H1442 0.949 . S
C1446 C1454 1.574 1_455 S
C1446 C1462 1.368 . S
H1447 C1455 0.950 . S
H1448 C1453 0.950 . S
H1449 C1454 0.949 . S
H1450 C1456 0.950 . S
H1451 C1457 0.950 . S
H1452 C1458 0.949 . S
C1453 H1448 0.950 . S
C1453 C1455 1.327 . S
C1453 C1459 1.429 . S
C1454 C1446 1.574 1_655 S
C1454 H1449 0.949 . S
C1454 C1460 1.368 . S
C1455 C1439 1.349 . S
C1455 H1447 0.950 . S
C1455 C1453 1.327 . S
C1456 C1444 1.349 . S
C1456 H1450 0.950 . S
C1456 C1457 1.327 . S
C1457 H1451 0.950 . S
C1457 C1456 1.327 . S
C1457 C1461 1.429 . S
C1458 C1441 1.574 1_455 S
C1458 H1452 0.949 . S
C1458 C1462 1.368 . S
C1459 C1440 1.429 . S
C1459 C1453 1.429 . S
C1459 C1460 1.523 . S
C1460 C1441 1.368 . S
C1460 C1454 1.368 . S
C1460 C1459 1.523 . S
C1461 C1445 1.429 . S
C1461 C1457 1.429 . S
C1461 C1462 1.523 . S
C1462 C1446 1.368 . S
C1462 C1458 1.368 . S
C1462 C1461 1.523 . S
H1463 C1438 0.950 . S
H1464 C1440 0.950 . S
H1465 C1441 0.949 . S
H1466 C1443 0.950 . S
H1467 C1445 0.950 . S
C1468 C1469 1.349 . S
C1468 C1470 1.327 . S
C1468 H1493 0.950 . S
C1469 C1468 1.349 . S
C1469 C1485 1.349 . S
C1470 C1468 1.327 . S
C1470 C1489 1.429 . S
C1470 H1494 0.950 . S
C1471 C1488 1.581 . S
C1471 C1490 1.361 1_565 S
C1471 H1495 0.949 . S
H1472 C1476 0.949 . S
C1473 C1474 1.349 . S
C1473 C1475 1.327 . S
C1473 H1496 0.950 . S
C1474 C1473 1.349 . S
C1474 C1486 1.349 . S
C1475 C1473 1.327 . S
C1475 C1491 1.429 . S
C1475 H1497 0.950 . S
C1476 H1472 0.949 . S
C1476 C1484 1.581 . S
C1476 C1492 1.361 1_545 S
H1477 C1485 0.950 . S
H1478 C1483 0.950 . S
H1479 C1484 0.949 . S
H1480 C1486 0.950 . S
H1481 C1487 0.950 . S
H1482 C1488 0.949 . S
C1483 H1478 0.950 . S
C1483 C1485 1.327 . S
C1483 C1489 1.429 . S
C1484 C1476 1.581 . S
C1484 H1479 0.949 . S
C1484 C1490 1.368 . S
C1485 C1469 1.349 . S
C1485 H1477 0.950 . S
C1485 C1483 1.327 . S
C1486 C1474 1.349 . S
C1486 H1480 0.950 . S
C1486 C1487 1.327 . S
C1487 H1481 0.950 . S
C1487 C1486 1.327 . S
C1487 C1491 1.429 . S
C1488 C1471 1.581 . S
C1488 H1482 0.949 . S
C1488 C1492 1.368 . S
C1489 C1470 1.429 . S
C1489 C1483 1.429 . S
C1489 C1490 1.523 . S
C1490 C1471 1.361 1_545 S
C1490 C1484 1.368 . S
C1490 C1489 1.523 . S
C1491 C1475 1.429 . S
C1491 C1487 1.429 . S
C1491 C1492 1.523 . S
C1492 C1476 1.361 1_565 S
C1492 C1488 1.368 . S
C1492 C1491 1.523 . S
H1493 C1468 0.950 . S
H1494 C1470 0.950 . S
H1495 C1471 0.949 . S
H1496 C1473 0.950 . S
H1497 C1475 0.950 . S
C1498 C1499 1.349 . S
C1498 C1500 1.327 . S
C1498 H1523 0.950 . S
C1499 C1498 1.349 . S
C1499 C1515 1.349 . S
C1500 C1498 1.327 . S
C1500 C1519 1.429 . S
C1500 H1524 0.950 . S
C1501 C1518 1.574 1_455 S
C1501 C1520 1.368 . S
C1501 H1525 0.949 . S
H1502 C1506 0.949 . S
C1503 C1504 1.349 . S
C1503 C1505 1.327 . S
C1503 H1526 0.950 . S
C1504 C1503 1.349 . S
C1504 C1516 1.349 . S
C1505 C1503 1.327 . S
C1505 C1521 1.429 . S
C1505 H1527 0.950 . S
C1506 H1502 0.949 . S
C1506 C1514 1.574 1_655 S
C1506 C1522 1.368 . S
H1507 C1515 0.950 . S
H1508 C1513 0.950 . S
H1509 C1514 0.949 . S
H1510 C1516 0.950 . S
H1511 C1517 0.950 . S
H1512 C1518 0.949 . S
C1513 H1508 0.950 . S
C1513 C1515 1.327 . S
C1513 C1519 1.429 . S
C1514 C1506 1.574 1_455 S
C1514 H1509 0.949 . S
C1514 C1520 1.368 . S
C1515 C1499 1.349 . S
C1515 H1507 0.950 . S
C1515 C1513 1.327 . S
C1516 C1504 1.349 . S
C1516 H1510 0.950 . S
C1516 C1517 1.327 . S
C1517 H1511 0.950 . S
C1517 C1516 1.327 . S
C1517 C1521 1.429 . S
C1518 C1501 1.574 1_655 S
C1518 H1512 0.949 . S
C1518 C1522 1.368 . S
C1519 C1500 1.429 . S
C1519 C1513 1.429 . S
C1519 C1520 1.523 . S
C1520 C1501 1.368 . S
C1520 C1514 1.368 . S
C1520 C1519 1.523 . S
C1521 C1505 1.429 . S
C1521 C1517 1.429 . S
C1521 C1522 1.523 . S
C1522 C1506 1.368 . S
C1522 C1518 1.368 . S
C1522 C1521 1.523 . S
H1523 C1498 0.950 . S
H1524 C1500 0.950 . S
H1525 C1501 0.949 . S
H1526 C1503 0.950 . S
H1527 C1505 0.950 . S
C1528 C1529 1.349 . S
C1528 C1530 1.327 . S
C1528 H1553 0.950 . S
C1529 C1528 1.349 . S
C1529 C1545 1.349 . S
C1530 C1528 1.327 . S
C1530 C1549 1.429 . S
C1530 H1554 0.950 . S
C1531 C1548 1.574 1_565 S
C1531 C1550 1.368 . S
C1531 H1555 0.949 . S
H1532 C1536 0.949 . S
C1533 C1534 1.349 . S
C1533 C1535 1.327 . S
C1533 H1556 0.950 . S
C1534 C1533 1.349 . S
C1534 C1546 1.349 . S
C1535 C1533 1.327 . S
C1535 C1551 1.429 . S
C1535 H1557 0.950 . S
C1536 H1532 0.949 . S
C1536 C1544 1.574 1_545 S
C1536 C1552 1.368 . S
H1537 C1545 0.950 . S
H1538 C1543 0.950 . S
H1539 C1544 0.949 . S
H1540 C1546 0.950 . S
H1541 C1547 0.950 . S
H1542 C1548 0.949 . S
C1543 H1538 0.950 . S
C1543 C1545 1.327 . S
C1543 C1549 1.429 . S
C1544 C1536 1.574 1_565 S
C1544 H1539 0.949 . S
C1544 C1550 1.368 . S
C1545 C1529 1.349 . S
C1545 H1537 0.950 . S
C1545 C1543 1.327 . S
C1546 C1534 1.349 . S
C1546 H1540 0.950 . S
C1546 C1547 1.327 . S
C1547 H1541 0.950 . S
C1547 C1546 1.327 . S
C1547 C1551 1.429 . S
C1548 C1531 1.574 1_545 S
C1548 H1542 0.949 . S
C1548 C1552 1.368 . S
C1549 C1530 1.429 . S
C1549 C1543 1.429 . S
C1549 C1550 1.523 . S
C1550 C1531 1.368 . S
C1550 C1544 1.368 . S
C1550 C1549 1.523 . S
C1551 C1535 1.429 . S
C1551 C1547 1.429 . S
C1551 C1552 1.523 . S
C1552 C1536 1.368 . S
C1552 C1548 1.368 . S
C1552 C1551 1.523 . S
H1553 C1528 0.950 . S
H1554 C1530 0.950 . S
H1555 C1531 0.949 . S
H1556 C1533 0.950 . S
H1557 C1535 0.950 . S
C1558 C1559 1.349 . S
C1558 C1560 1.327 . S
C1558 H1583 0.950 . S
C1559 C1558 1.349 . S
C1559 C1575 1.349 . S
C1560 C1558 1.327 . S
C1560 C1579 1.429 . S
C1560 H1584 0.950 . S
C1561 C1578 1.574 1_655 S
C1561 C1580 1.368 . S
C1561 H1585 0.949 . S
H1562 C1566 0.949 . S
C1563 C1564 1.349 . S
C1563 C1565 1.327 . S
C1563 H1586 0.950 . S
C1564 C1563 1.349 . S
C1564 C1576 1.349 . S
C1565 C1563 1.327 . S
C1565 C1581 1.429 . S
C1565 H1587 0.950 . S
C1566 H1562 0.949 . S
C1566 C1574 1.574 1_455 S
C1566 C1582 1.368 . S
H1567 C1575 0.950 . S
H1568 C1573 0.950 . S
H1569 C1574 0.949 . S
H1570 C1576 0.950 . S
H1571 C1577 0.950 . S
H1572 C1578 0.949 . S
C1573 H1568 0.950 . S
C1573 C1575 1.327 . S
C1573 C1579 1.429 . S
C1574 C1566 1.574 1_655 S
C1574 H1569 0.949 . S
C1574 C1580 1.368 . S
C1575 C1559 1.349 . S
C1575 H1567 0.950 . S
C1575 C1573 1.327 . S
C1576 C1564 1.349 . S
C1576 H1570 0.950 . S
C1576 C1577 1.327 . S
C1577 H1571 0.950 . S
C1577 C1576 1.327 . S
C1577 C1581 1.429 . S
C1578 C1561 1.574 1_455 S
C1578 H1572 0.949 . S
C1578 C1582 1.368 . S
C1579 C1560 1.429 . S
C1579 C1573 1.429 . S
C1579 C1580 1.523 . S
C1580 C1561 1.368 . S
C1580 C1574 1.368 . S
C1580 C1579 1.523 . S
C1581 C1565 1.429 . S
C1581 C1577 1.429 . S
C1581 C1582 1.523 . S
C1582 C1566 1.368 . S
C1582 C1578 1.368 . S
C1582 C1581 1.523 . S
H1583 C1558 0.950 . S
H1584 C1560 0.950 . S
H1585 C1561 0.949 . S
H1586 C1563 0.950 . S
H1587 C1565 0.950 . S
C1588 C1589 1.349 . S
C1588 C1590 1.327 . S
C1588 H1613 0.950 . S
C1589 C1588 1.349 . S
C1589 C1605 1.349 . S
C1590 C1588 1.327 . S
C1590 C1609 1.429 . S
C1590 H1614 0.950 . S
C1591 C1608 1.574 1_565 S
C1591 C1610 1.368 . S
C1591 H1615 0.949 . S
H1592 C1596 0.949 . S
C1593 C1594 1.349 . S
C1593 C1595 1.327 . S
C1593 H1616 0.950 . S
C1594 C1593 1.349 . S
C1594 C1606 1.349 . S
C1595 C1593 1.327 . S
C1595 C1611 1.429 . S
C1595 H1617 0.950 . S
C1596 H1592 0.949 . S
C1596 C1604 1.574 1_545 S
C1596 C1612 1.368 . S
H1597 C1605 0.950 . S
H1598 C1603 0.950 . S
H1599 C1604 0.949 . S
H1600 C1606 0.950 . S
H1601 C1607 0.950 . S
H1602 C1608 0.949 . S
C1603 H1598 0.950 . S
C1603 C1605 1.327 . S
C1603 C1609 1.429 . S
C1604 C1596 1.574 1_565 S
C1604 H1599 0.949 . S
C1604 C1610 1.368 . S
C1605 C1589 1.349 . S
C1605 H1597 0.950 . S
C1605 C1603 1.327 . S
C1606 C1594 1.349 . S
C1606 H1600 0.950 . S
C1606 C1607 1.327 . S
C1607 H1601 0.950 . S
C1607 C1606 1.327 . S
C1607 C1611 1.429 . S
C1608 C1591 1.574 1_545 S
C1608 H1602 0.949 . S
C1608 C1612 1.368 . S
C1609 C1590 1.429 . S
C1609 C1603 1.429 . S
C1609 C1610 1.523 . S
C1610 C1591 1.368 . S
C1610 C1604 1.368 . S
C1610 C1609 1.523 . S
C1611 C1595 1.429 . S
C1611 C1607 1.429 . S
C1611 C1612 1.523 . S
C1612 C1596 1.368 . S
C1612 C1608 1.368 . S
C1612 C1611 1.523 . S
H1613 C1588 0.950 . S
H1614 C1590 0.950 . S
H1615 C1591 0.949 . S
H1616 C1593 0.950 . S
H1617 C1595 0.950 . S
C1618 C1619 1.349 . S
C1618 C1620 1.327 . S
C1618 H1643 0.950 . S
C1619 C1618 1.349 . S
C1619 C1635 1.349 . S
C1620 C1618 1.327 . S
C1620 C1639 1.429 . S
C1620 H1644 0.950 . S
C1621 C1638 1.574 1_655 S
C1621 C1640 1.368 . S
C1621 H1645 0.949 . S
H1622 C1626 0.949 . S
C1623 C1624 1.349 . S
C1623 C1625 1.327 . S
C1623 H1646 0.950 . S
C1624 C1623 1.349 . S
C1624 C1636 1.349 . S
C1625 C1623 1.327 . S
C1625 C1641 1.429 . S
C1625 H1647 0.950 . S
C1626 H1622 0.949 . S
C1626 C1634 1.574 1_455 S
C1626 C1642 1.368 . S
H1627 C1635 0.950 . S
H1628 C1633 0.950 . S
H1629 C1634 0.949 . S
H1630 C1636 0.950 . S
H1631 C1637 0.950 . S
H1632 C1638 0.949 . S
C1633 H1628 0.950 . S
C1633 C1635 1.327 . S
C1633 C1639 1.429 . S
C1634 C1626 1.574 1_655 S
C1634 H1629 0.949 . S
C1634 C1640 1.368 . S
C1635 C1619 1.349 . S
C1635 H1627 0.950 . S
C1635 C1633 1.327 . S
C1636 C1624 1.349 . S
C1636 H1630 0.950 . S
C1636 C1637 1.327 . S
C1637 H1631 0.950 . S
C1637 C1636 1.327 . S
C1637 C1641 1.429 . S
C1638 C1621 1.574 1_455 S
C1638 H1632 0.949 . S
C1638 C1642 1.368 . S
C1639 C1620 1.429 . S
C1639 C1633 1.429 . S
C1639 C1640 1.523 . S
C1640 C1621 1.368 . S
C1640 C1634 1.368 . S
C1640 C1639 1.523 . S
C1641 C1625 1.429 . S
C1641 C1637 1.429 . S
C1641 C1642 1.523 . S
C1642 C1626 1.368 . S
C1642 C1638 1.368 . S
C1642 C1641 1.523 . S
H1643 C1618 0.950 . S
H1644 C1620 0.950 . S
H1645 C1621 0.949 . S
H1646 C1623 0.950 . S
H1647 C1625 0.950 . S
C1648 C1649 1.349 . S
C1648 C1650 1.327 . S
C1648 H1673 0.950 . S
C1649 C1648 1.349 . S
C1649 C1665 1.349 . S
C1650 C1648 1.327 . S
C1650 C1669 1.429 . S
C1650 H1674 0.950 . S
C1651 C1668 1.574 . S
C1651 C1670 1.368 . S
C1651 H1675 0.949 . S
H1652 C1656 0.949 . S
C1653 C1654 1.349 . S
C1653 C1655 1.327 . S
C1653 H1676 0.950 . S
C1654 C1653 1.349 . S
C1654 C1666 1.349 . S
C1655 C1653 1.327 . S
C1655 C1671 1.429 . S
C1655 H1677 0.950 . S
C1656 H1652 0.949 . S
C1656 C1664 1.574 . S
C1656 C1672 1.368 . S
H1657 C1665 0.950 . S
H1658 C1663 0.950 . S
H1659 C1664 0.949 . S
H1660 C1666 0.950 . S
H1661 C1667 0.950 . S
H1662 C1668 0.949 . S
C1663 H1658 0.950 . S
C1663 C1665 1.327 . S
C1663 C1669 1.429 . S
C1664 C1656 1.574 . S
C1664 H1659 0.949 . S
C1664 C1670 1.368 . S
C1665 C1649 1.349 . S
C1665 H1657 0.950 . S
C1665 C1663 1.327 . S
C1666 C1654 1.349 . S
C1666 H1660 0.950 . S
C1666 C1667 1.327 . S
C1667 H1661 0.950 . S
C1667 C1666 1.327 . S
C1667 C1671 1.429 . S
C1668 C1651 1.574 . S
C1668 H1662 0.949 . S
C1668 C1672 1.368 . S
C1669 C1650 1.429 . S
C1669 C1663 1.429 . S
C1669 C1670 1.523 . S
C1670 C1651 1.368 . S
C1670 C1664 1.368 . S
C1670 C1669 1.523 . S
C1671 C1655 1.429 . S
C1671 C1667 1.429 . S
C1671 C1672 1.523 . S
C1672 C1656 1.368 . S
C1672 C1668 1.368 . S
C1672 C1671 1.523 . S
H1673 C1648 0.950 . S
H1674 C1650 0.950 . S
H1675 C1651 0.949 . S
H1676 C1653 0.950 . S
H1677 C1655 0.950 . S
C1678 C1679 1.349 . S
C1678 C1680 1.327 . S
C1678 H1703 0.950 . S
C1679 C1678 1.349 . S
C1679 C1695 1.349 . S
C1680 C1678 1.327 . S
C1680 C1699 1.429 . S
C1680 H1704 0.950 . S
C1681 C1698 1.574 . S
C1681 C1700 1.368 . S
C1681 H1705 0.949 . S
H1682 C1686 0.949 . S
C1683 C1684 1.349 . S
C1683 C1685 1.327 . S
C1683 H1706 0.950 . S
C1684 C1683 1.349 . S
C1684 C1696 1.349 . S
C1685 C1683 1.327 . S
C1685 C1701 1.429 . S
C1685 H1707 0.950 . S
C1686 H1682 0.949 . S
C1686 C1694 1.574 . S
C1686 C1702 1.368 . S
H1687 C1695 0.950 . S
H1688 C1693 0.950 . S
H1689 C1694 0.949 . S
H1690 C1696 0.950 . S
H1691 C1697 0.950 . S
H1692 C1698 0.949 . S
C1693 H1688 0.950 . S
C1693 C1695 1.327 . S
C1693 C1699 1.429 . S
C1694 C1686 1.574 . S
C1694 H1689 0.949 . S
C1694 C1700 1.368 . S
C1695 C1679 1.349 . S
C1695 H1687 0.950 . S
C1695 C1693 1.327 . S
C1696 C1684 1.349 . S
C1696 H1690 0.950 . S
C1696 C1697 1.327 . S
C1697 H1691 0.950 . S
C1697 C1696 1.327 . S
C1697 C1701 1.429 . S
C1698 C1681 1.574 . S
C1698 H1692 0.949 . S
C1698 C1702 1.368 . S
C1699 C1680 1.429 . S
C1699 C1693 1.429 . S
C1699 C1700 1.523 . S
C1700 C1681 1.368 . S
C1700 C1694 1.368 . S
C1700 C1699 1.523 . S
C1701 C1685 1.429 . S
C1701 C1697 1.429 . S
C1701 C1702 1.523 . S
C1702 C1686 1.368 . S
C1702 C1698 1.368 . S
C1702 C1701 1.523 . S
H1703 C1678 0.950 . S
H1704 C1680 0.950 . S
H1705 C1681 0.949 . S
H1706 C1683 0.950 . S
H1707 C1685 0.950 . S
C1708 C1709 1.349 . S
C1708 C1710 1.327 . S
C1708 H1733 0.950 . S
C1709 C1708 1.349 . S
C1709 C1725 1.349 . S
C1710 C1708 1.327 . S
C1710 C1729 1.429 . S
C1710 H1734 0.950 . S
C1711 C1728 1.574 . S
C1711 C1730 1.368 . S
C1711 H1735 0.949 . S
H1712 C1716 0.949 . S
C1713 C1714 1.349 . S
C1713 C1715 1.327 . S
C1713 H1736 0.950 . S
C1714 C1713 1.349 . S
C1714 C1726 1.349 . S
C1715 C1713 1.327 . S
C1715 C1731 1.429 . S
C1715 H1737 0.950 . S
C1716 H1712 0.949 . S
C1716 C1724 1.574 . S
C1716 C1732 1.368 . S
H1717 C1725 0.950 . S
H1718 C1723 0.950 . S
H1719 C1724 0.949 . S
H1720 C1726 0.950 . S
H1721 C1727 0.950 . S
H1722 C1728 0.949 . S
C1723 H1718 0.950 . S
C1723 C1725 1.327 . S
C1723 C1729 1.429 . S
C1724 C1716 1.574 . S
C1724 H1719 0.949 . S
C1724 C1730 1.368 . S
C1725 C1709 1.349 . S
C1725 H1717 0.950 . S
C1725 C1723 1.327 . S
C1726 C1714 1.349 . S
C1726 H1720 0.950 . S
C1726 C1727 1.327 . S
C1727 H1721 0.950 . S
C1727 C1726 1.327 . S
C1727 C1731 1.429 . S
C1728 C1711 1.574 . S
C1728 H1722 0.949 . S
C1728 C1732 1.368 . S
C1729 C1710 1.429 . S
C1729 C1723 1.429 . S
C1729 C1730 1.523 . S
C1730 C1711 1.368 . S
C1730 C1724 1.368 . S
C1730 C1729 1.523 . S
C1731 C1715 1.429 . S
C1731 C1727 1.429 . S
C1731 C1732 1.523 . S
C1732 C1716 1.368 . S
C1732 C1728 1.368 . S
C1732 C1731 1.523 . S
H1733 C1708 0.950 . S
H1734 C1710 0.950 . S
H1735 C1711 0.949 . S
H1736 C1713 0.950 . S
H1737 C1715 0.950 . S
C1738 C1739 1.349 . S
C1738 C1740 1.327 . S
C1738 H1763 0.950 . S
C1739 C1738 1.349 . S
C1739 C1755 1.349 . S
C1740 C1738 1.327 . S
C1740 C1759 1.429 . S
C1740 H1764 0.950 . S
C1741 C1758 1.574 . S
C1741 C1760 1.368 . S
C1741 H1765 0.949 . S
H1742 C1746 0.949 . S
C1743 C1744 1.349 . S
C1743 C1745 1.327 . S
C1743 H1766 0.950 . S
C1744 C1743 1.349 . S
C1744 C1756 1.349 . S
C1745 C1743 1.327 . S
C1745 C1761 1.429 . S
C1745 H1767 0.950 . S
C1746 H1742 0.949 . S
C1746 C1754 1.574 . S
C1746 C1762 1.368 . S
H1747 C1755 0.950 . S
H1748 C1753 0.950 . S
H1749 C1754 0.949 . S
H1750 C1756 0.950 . S
H1751 C1757 0.950 . S
H1752 C1758 0.949 . S
C1753 H1748 0.950 . S
C1753 C1755 1.327 . S
C1753 C1759 1.429 . S
C1754 C1746 1.574 . S
C1754 H1749 0.949 . S
C1754 C1760 1.368 . S
C1755 C1739 1.349 . S
C1755 H1747 0.950 . S
C1755 C1753 1.327 . S
C1756 C1744 1.349 . S
C1756 H1750 0.950 . S
C1756 C1757 1.327 . S
C1757 H1751 0.950 . S
C1757 C1756 1.327 . S
C1757 C1761 1.429 . S
C1758 C1741 1.574 . S
C1758 H1752 0.949 . S
C1758 C1762 1.368 . S
C1759 C1740 1.429 . S
C1759 C1753 1.429 . S
C1759 C1760 1.523 . S
C1760 C1741 1.368 . S
C1760 C1754 1.368 . S
C1760 C1759 1.523 . S
C1761 C1745 1.429 . S
C1761 C1757 1.429 . S
C1761 C1762 1.523 . S
C1762 C1746 1.368 . S
C1762 C1758 1.368 . S
C1762 C1761 1.523 . S
H1763 C1738 0.950 . S
H1764 C1740 0.950 . S
H1765 C1741 0.949 . S
H1766 C1743 0.950 . S
H1767 C1745 0.950 . S
C1768 C1769 1.349 . S
C1768 C1770 1.327 . S
C1768 H1793 0.950 . S
C1769 C1768 1.349 . S
C1769 C1785 1.349 . S
C1770 C1768 1.327 . S
C1770 C1789 1.429 . S
C1770 H1794 0.950 . S
C1771 C1788 1.574 . S
C1771 C1790 1.368 . S
C1771 H1795 0.949 . S
H1772 C1776 0.949 . S
C1773 C1774 1.349 . S
C1773 C1775 1.327 . S
C1773 H1796 0.950 . S
C1774 C1773 1.349 . S
C1774 C1786 1.349 . S
C1775 C1773 1.327 . S
C1775 C1791 1.429 . S
C1775 H1797 0.950 . S
C1776 H1772 0.949 . S
C1776 C1784 1.574 . S
C1776 C1792 1.368 . S
H1777 C1785 0.950 . S
H1778 C1783 0.950 . S
H1779 C1784 0.949 . S
H1780 C1786 0.950 . S
H1781 C1787 0.950 . S
H1782 C1788 0.949 . S
C1783 H1778 0.950 . S
C1783 C1785 1.327 . S
C1783 C1789 1.429 . S
C1784 C1776 1.574 . S
C1784 H1779 0.949 . S
C1784 C1790 1.368 . S
C1785 C1769 1.349 . S
C1785 H1777 0.950 . S
C1785 C1783 1.327 . S
C1786 C1774 1.349 . S
C1786 H1780 0.950 . S
C1786 C1787 1.327 . S
C1787 H1781 0.950 . S
C1787 C1786 1.327 . S
C1787 C1791 1.429 . S
C1788 C1771 1.574 . S
C1788 H1782 0.949 . S
C1788 C1792 1.368 . S
C1789 C1770 1.429 . S
C1789 C1783 1.429 . S
C1789 C1790 1.523 . S
C1790 C1771 1.368 . S
C1790 C1784 1.368 . S
C1790 C1789 1.523 . S
C1791 C1775 1.429 . S
C1791 C1787 1.429 . S
C1791 C1792 1.523 . S
C1792 C1776 1.368 . S
C1792 C1788 1.368 . S
C1792 C1791 1.523 . S
H1793 C1768 0.950 . S
H1794 C1770 0.950 . S
H1795 C1771 0.949 . S
H1796 C1773 0.950 . S
H1797 C1775 0.950 . S
C1798 C1799 1.349 . S
C1798 C1800 1.327 . S
C1798 H1823 0.950 . S
C1799 C1798 1.349 . S
C1799 C1815 1.349 . S
C1800 C1798 1.327 . S
C1800 C1819 1.429 . S
C1800 H1824 0.950 . S
C1801 C1818 1.574 . S
C1801 C1820 1.368 . S
C1801 H1825 0.949 . S
H1802 C1806 0.949 . S
C1803 C1804 1.349 . S
C1803 C1805 1.327 . S
C1803 H1826 0.950 . S
C1804 C1803 1.349 . S
C1804 C1816 1.349 . S
C1805 C1803 1.327 . S
C1805 C1821 1.429 . S
C1805 H1827 0.950 . S
C1806 H1802 0.949 . S
C1806 C1814 1.574 . S
C1806 C1822 1.368 . S
H1807 C1815 0.950 . S
H1808 C1813 0.950 . S
H1809 C1814 0.949 . S
H1810 C1816 0.950 . S
H1811 C1817 0.950 . S
H1812 C1818 0.949 . S
C1813 H1808 0.950 . S
C1813 C1815 1.327 . S
C1813 C1819 1.429 . S
C1814 C1806 1.574 . S
C1814 H1809 0.949 . S
C1814 C1820 1.368 . S
C1815 C1799 1.349 . S
C1815 H1807 0.950 . S
C1815 C1813 1.327 . S
C1816 C1804 1.349 . S
C1816 H1810 0.950 . S
C1816 C1817 1.327 . S
C1817 H1811 0.950 . S
C1817 C1816 1.327 . S
C1817 C1821 1.429 . S
C1818 C1801 1.574 . S
C1818 H1812 0.949 . S
C1818 C1822 1.368 . S
C1819 C1800 1.429 . S
C1819 C1813 1.429 . S
C1819 C1820 1.523 . S
C1820 C1801 1.368 . S
C1820 C1814 1.368 . S
C1820 C1819 1.523 . S
C1821 C1805 1.429 . S
C1821 C1817 1.429 . S
C1821 C1822 1.523 . S
C1822 C1806 1.368 . S
C1822 C1818 1.368 . S
C1822 C1821 1.523 . S
H1823 C1798 0.950 . S
H1824 C1800 0.950 . S
H1825 C1801 0.949 . S
H1826 C1803 0.950 . S
H1827 C1805 0.950 . S
C1828 C1829 1.349 . S
C1828 C1830 1.327 . S
C1828 H1853 0.950 . S
C1829 C1828 1.349 . S
C1829 C1845 1.349 . S
C1830 C1828 1.327 . S
C1830 C1849 1.429 . S
C1830 H1854 0.950 . S
C1831 C1848 1.574 . S
C1831 C1850 1.368 . S
C1831 H1855 0.949 . S
H1832 C1836 0.949 . S
C1833 C1834 1.349 . S
C1833 C1835 1.327 . S
C1833 H1856 0.950 . S
C1834 C1833 1.349 . S
C1834 C1846 1.349 . S
C1835 C1833 1.327 . S
C1835 C1851 1.429 . S
C1835 H1857 0.950 . S
C1836 H1832 0.949 . S
C1836 C1844 1.574 . S
C1836 C1852 1.368 . S
H1837 C1845 0.950 . S
H1838 C1843 0.950 . S
H1839 C1844 0.949 . S
H1840 C1846 0.950 . S
H1841 C1847 0.950 . S
H1842 C1848 0.949 . S
C1843 H1838 0.950 . S
C1843 C1845 1.327 . S
C1843 C1849 1.429 . S
C1844 C1836 1.574 . S
C1844 H1839 0.949 . S
C1844 C1850 1.368 . S
C1845 C1829 1.349 . S
C1845 H1837 0.950 . S
C1845 C1843 1.327 . S
C1846 C1834 1.349 . S
C1846 H1840 0.950 . S
C1846 C1847 1.327 . S
C1847 H1841 0.950 . S
C1847 C1846 1.327 . S
C1847 C1851 1.429 . S
C1848 C1831 1.574 . S
C1848 H1842 0.949 . S
C1848 C1852 1.368 . S
C1849 C1830 1.429 . S
C1849 C1843 1.429 . S
C1849 C1850 1.523 . S
C1850 C1831 1.368 . S
C1850 C1844 1.368 . S
C1850 C1849 1.523 . S
C1851 C1835 1.429 . S
C1851 C1847 1.429 . S
C1851 C1852 1.523 . S
C1852 C1836 1.368 . S
C1852 C1848 1.368 . S
C1852 C1851 1.523 . S
H1853 C1828 0.950 . S
H1854 C1830 0.950 . S
H1855 C1831 0.949 . S
H1856 C1833 0.950 . S
H1857 C1835 0.950 . S
C1858 C1859 1.349 . S
C1858 C1860 1.327 . S
C1858 H1883 0.950 . S
C1859 C1858 1.349 . S
C1859 C1875 1.349 . S
C1860 C1858 1.327 . S
C1860 C1879 1.429 . S
C1860 H1884 0.950 . S
C1861 C1878 1.574 . S
C1861 C1880 1.368 . S
C1861 H1885 0.949 . S
H1862 C1866 0.949 . S
C1863 C1864 1.349 . S
C1863 C1865 1.327 . S
C1863 H1886 0.950 . S
C1864 C1863 1.349 . S
C1864 C1876 1.349 . S
C1865 C1863 1.327 . S
C1865 C1881 1.429 . S
C1865 H1887 0.950 . S
C1866 H1862 0.949 . S
C1866 C1874 1.574 . S
C1866 C1882 1.368 . S
H1867 C1875 0.950 . S
H1868 C1873 0.950 . S
H1869 C1874 0.949 . S
H1870 C1876 0.950 . S
H1871 C1877 0.950 . S
H1872 C1878 0.949 . S
C1873 H1868 0.950 . S
C1873 C1875 1.327 . S
C1873 C1879 1.429 . S
C1874 C1866 1.574 . S
C1874 H1869 0.949 . S
C1874 C1880 1.368 . S
C1875 C1859 1.349 . S
C1875 H1867 0.950 . S
C1875 C1873 1.327 . S
C1876 C1864 1.349 . S
C1876 H1870 0.950 . S
C1876 C1877 1.327 . S
C1877 H1871 0.950 . S
C1877 C1876 1.327 . S
C1877 C1881 1.429 . S
C1878 C1861 1.574 . S
C1878 H1872 0.949 . S
C1878 C1882 1.368 . S
C1879 C1860 1.429 . S
C1879 C1873 1.429 . S
C1879 C1880 1.523 . S
C1880 C1861 1.368 . S
C1880 C1874 1.368 . S
C1880 C1879 1.523 . S
C1881 C1865 1.429 . S
C1881 C1877 1.429 . S
C1881 C1882 1.523 . S
C1882 C1866 1.368 . S
C1882 C1878 1.368 . S
C1882 C1881 1.523 . S
H1883 C1858 0.950 . S
H1884 C1860 0.950 . S
H1885 C1861 0.949 . S
H1886 C1863 0.950 . S
H1887 C1865 0.950 . S
C1888 C1889 1.349 . S
C1888 C1890 1.327 . S
C1888 H1913 0.950 . S
C1889 C1888 1.349 . S
C1889 C1905 1.349 . S
C1890 C1888 1.327 . S
C1890 C1909 1.429 . S
C1890 H1914 0.950 . S
C1891 C1908 1.574 . S
C1891 C1910 1.368 . S
C1891 H1915 0.949 . S
H1892 C1896 0.949 . S
C1893 C1894 1.349 . S
C1893 C1895 1.327 . S
C1893 H1916 0.950 . S
C1894 C1893 1.349 . S
C1894 C1906 1.349 . S
C1895 C1893 1.327 . S
C1895 C1911 1.429 . S
C1895 H1917 0.950 . S
C1896 H1892 0.949 . S
C1896 C1904 1.574 . S
C1896 C1912 1.368 . S
H1897 C1905 0.950 . S
H1898 C1903 0.950 . S
H1899 C1904 0.949 . S
H1900 C1906 0.950 . S
H1901 C1907 0.950 . S
H1902 C1908 0.949 . S
C1903 H1898 0.950 . S
C1903 C1905 1.327 . S
C1903 C1909 1.429 . S
C1904 C1896 1.574 . S
C1904 H1899 0.949 . S
C1904 C1910 1.368 . S
C1905 C1889 1.349 . S
C1905 H1897 0.950 . S
C1905 C1903 1.327 . S
C1906 C1894 1.349 . S
C1906 H1900 0.950 . S
C1906 C1907 1.327 . S
C1907 H1901 0.950 . S
C1907 C1906 1.327 . S
C1907 C1911 1.429 . S
C1908 C1891 1.574 . S
C1908 H1902 0.949 . S
C1908 C1912 1.368 . S
C1909 C1890 1.429 . S
C1909 C1903 1.429 . S
C1909 C1910 1.523 . S
C1910 C1891 1.368 . S
C1910 C1904 1.368 . S
C1910 C1909 1.523 . S
C1911 C1895 1.429 . S
C1911 C1907 1.429 . S
C1911 C1912 1.523 . S
C1912 C1896 1.368 . S
C1912 C1908 1.368 . S
C1912 C1911 1.523 . S
H1913 C1888 0.950 . S
H1914 C1890 0.950 . S
H1915 C1891 0.949 . S
H1916 C1893 0.950 . S
H1917 C1895 0.950 . S
C1918 C1919 1.349 . S
C1918 C1920 1.327 . S
C1918 H1943 0.950 . S
C1919 C1918 1.349 . S
C1919 C1935 1.349 . S
C1920 C1918 1.327 . S
C1920 C1939 1.429 . S
C1920 H1944 0.950 . S
C1921 C1938 1.574 . S
C1921 C1940 1.368 . S
C1921 H1945 0.949 . S
H1922 C1926 0.949 . S
C1923 C1924 1.349 . S
C1923 C1925 1.327 . S
C1923 H1946 0.950 . S
C1924 C1923 1.349 . S
C1924 C1936 1.349 . S
C1925 C1923 1.327 . S
C1925 C1941 1.429 . S
C1925 H1947 0.950 . S
C1926 H1922 0.949 . S
C1926 C1934 1.574 . S
C1926 C1942 1.368 . S
H1927 C1935 0.950 . S
H1928 C1933 0.950 . S
H1929 C1934 0.949 . S
H1930 C1936 0.950 . S
H1931 C1937 0.950 . S
H1932 C1938 0.949 . S
C1933 H1928 0.950 . S
C1933 C1935 1.327 . S
C1933 C1939 1.429 . S
C1934 C1926 1.574 . S
C1934 H1929 0.949 . S
C1934 C1940 1.368 . S
C1935 C1919 1.349 . S
C1935 H1927 0.950 . S
C1935 C1933 1.327 . S
C1936 C1924 1.349 . S
C1936 H1930 0.950 . S
C1936 C1937 1.327 . S
C1937 H1931 0.950 . S
C1937 C1936 1.327 . S
C1937 C1941 1.429 . S
C1938 C1921 1.574 . S
C1938 H1932 0.949 . S
C1938 C1942 1.368 . S
C1939 C1920 1.429 . S
C1939 C1933 1.429 . S
C1939 C1940 1.523 . S
C1940 C1921 1.368 . S
C1940 C1934 1.368 . S
C1940 C1939 1.523 . S
C1941 C1925 1.429 . S
C1941 C1937 1.429 . S
C1941 C1942 1.523 . S
C1942 C1926 1.368 . S
C1942 C1938 1.368 . S
C1942 C1941 1.523 . S
H1943 C1918 0.950 . S
H1944 C1920 0.950 . S
H1945 C1921 0.949 . S
H1946 C1923 0.950 . S
H1947 C1925 0.950 . S
C1948 C1949 1.349 . S
C1948 C1950 1.327 . S
C1948 H1973 0.950 . S
C1949 C1948 1.349 . S
C1949 C1965 1.349 . S
C1950 C1948 1.327 . S
C1950 C1969 1.429 . S
C1950 H1974 0.950 . S
C1951 C1968 1.574 . S
C1951 C1970 1.368 . S
C1951 H1975 0.949 . S
H1952 C1956 0.949 . S
C1953 C1954 1.349 . S
C1953 C1955 1.327 . S
C1953 H1976 0.950 . S
C1954 C1953 1.349 . S
C1954 C1966 1.349 . S
C1955 C1953 1.327 . S
C1955 C1971 1.429 . S
C1955 H1977 0.950 . S
C1956 H1952 0.949 . S
C1956 C1964 1.574 . S
C1956 C1972 1.368 . S
H1957 C1965 0.950 . S
H1958 C1963 0.950 . S
H1959 C1964 0.949 . S
H1960 C1966 0.950 . S
H1961 C1967 0.950 . S
H1962 C1968 0.949 . S
C1963 H1958 0.950 . S
C1963 C1965 1.327 . S
C1963 C1969 1.429 . S
C1964 C1956 1.574 . S
C1964 H1959 0.949 . S
C1964 C1970 1.368 . S
C1965 C1949 1.349 . S
C1965 H1957 0.950 . S
C1965 C1963 1.327 . S
C1966 C1954 1.349 . S
C1966 H1960 0.950 . S
C1966 C1967 1.327 . S
C1967 H1961 0.950 . S
C1967 C1966 1.327 . S
C1967 C1971 1.429 . S
C1968 C1951 1.574 . S
C1968 H1962 0.949 . S
C1968 C1972 1.368 . S
C1969 C1950 1.429 . S
C1969 C1963 1.429 . S
C1969 C1970 1.523 . S
C1970 C1951 1.368 . S
C1970 C1964 1.368 . S
C1970 C1969 1.523 . S
C1971 C1955 1.429 . S
C1971 C1967 1.429 . S
C1971 C1972 1.523 . S
C1972 C1956 1.368 . S
C1972 C1968 1.368 . S
C1972 C1971 1.523 . S
H1973 C1948 0.950 . S
H1974 C1950 0.950 . S
H1975 C1951 0.949 . S
H1976 C1953 0.950 . S
H1977 C1955 0.950 . S
C1978 C1979 1.349 . S
C1978 C1980 1.327 . S
C1978 H2003 0.950 . S
C1979 C1978 1.349 . S
C1979 C1995 1.349 . S
C1980 C1978 1.327 . S
C1980 C1999 1.429 . S
C1980 H2004 0.950 . S
C1981 C1998 1.574 . S
C1981 C2000 1.368 . S
C1981 H2005 0.949 . S
H1982 C1986 0.949 . S
C1983 C1984 1.349 . S
C1983 C1985 1.327 . S
C1983 H2006 0.950 . S
C1984 C1983 1.349 . S
C1984 C1996 1.349 . S
C1985 C1983 1.327 . S
C1985 C2001 1.429 . S
C1985 H2007 0.950 . S
C1986 H1982 0.949 . S
C1986 C1994 1.574 . S
C1986 C2002 1.368 . S
H1987 C1995 0.950 . S
H1988 C1993 0.950 . S
H1989 C1994 0.949 . S
H1990 C1996 0.950 . S
H1991 C1997 0.950 . S
H1992 C1998 0.949 . S
C1993 H1988 0.950 . S
C1993 C1995 1.327 . S
C1993 C1999 1.429 . S
C1994 C1986 1.574 . S
C1994 H1989 0.949 . S
C1994 C2000 1.368 . S
C1995 C1979 1.349 . S
C1995 H1987 0.950 . S
C1995 C1993 1.327 . S
C1996 C1984 1.349 . S
C1996 H1990 0.950 . S
C1996 C1997 1.327 . S
C1997 H1991 0.950 . S
C1997 C1996 1.327 . S
C1997 C2001 1.429 . S
C1998 C1981 1.574 . S
C1998 H1992 0.949 . S
C1998 C2002 1.368 . S
C1999 C1980 1.429 . S
C1999 C1993 1.429 . S
C1999 C2000 1.523 . S
C2000 C1981 1.368 . S
C2000 C1994 1.368 . S
C2000 C1999 1.523 . S
C2001 C1985 1.429 . S
C2001 C1997 1.429 . S
C2001 C2002 1.523 . S
C2002 C1986 1.368 . S
C2002 C1998 1.368 . S
C2002 C2001 1.523 . S
H2003 C1978 0.950 . S
H2004 C1980 0.950 . S
H2005 C1981 0.949 . S
H2006 C1983 0.950 . S
H2007 C1985 0.950 . S
C2008 C2009 1.349 . S
C2008 C2010 1.327 . S
C2008 H2033 0.950 . S
C2009 C2008 1.349 . S
C2009 C2025 1.349 . S
C2010 C2008 1.327 . S
C2010 C2029 1.429 . S
C2010 H2034 0.950 . S
C2011 C2028 1.574 . S
C2011 C2030 1.368 . S
C2011 H2035 0.949 . S
H2012 C2016 0.949 . S
C2013 C2014 1.349 . S
C2013 C2015 1.327 . S
C2013 H2036 0.950 . S
C2014 C2013 1.349 . S
C2014 C2026 1.349 . S
C2015 C2013 1.327 . S
C2015 C2031 1.429 . S
C2015 H2037 0.950 . S
C2016 H2012 0.949 . S
C2016 C2024 1.574 . S
C2016 C2032 1.368 . S
H2017 C2025 0.950 . S
H2018 C2023 0.950 . S
H2019 C2024 0.949 . S
H2020 C2026 0.950 . S
H2021 C2027 0.950 . S
H2022 C2028 0.949 . S
C2023 H2018 0.950 . S
C2023 C2025 1.327 . S
C2023 C2029 1.429 . S
C2024 C2016 1.574 . S
C2024 H2019 0.949 . S
C2024 C2030 1.368 . S
C2025 C2009 1.349 . S
C2025 H2017 0.950 . S
C2025 C2023 1.327 . S
C2026 C2014 1.349 . S
C2026 H2020 0.950 . S
C2026 C2027 1.327 . S
C2027 H2021 0.950 . S
C2027 C2026 1.327 . S
C2027 C2031 1.429 . S
C2028 C2011 1.574 . S
C2028 H2022 0.949 . S
C2028 C2032 1.368 . S
C2029 C2010 1.429 . S
C2029 C2023 1.429 . S
C2029 C2030 1.523 . S
C2030 C2011 1.368 . S
C2030 C2024 1.368 . S
C2030 C2029 1.523 . S
C2031 C2015 1.429 . S
C2031 C2027 1.429 . S
C2031 C2032 1.523 . S
C2032 C2016 1.368 . S
C2032 C2028 1.368 . S
C2032 C2031 1.523 . S
H2033 C2008 0.950 . S
H2034 C2010 0.950 . S
H2035 C2011 0.949 . S
H2036 C2013 0.950 . S
H2037 C2015 0.950 . S
C2038 C2039 1.349 . S
C2038 C2040 1.327 . S
C2038 H2063 0.950 . S
C2039 C2038 1.349 . S
C2039 C2055 1.349 . S
C2040 C2038 1.327 . S
C2040 C2059 1.429 . S
C2040 H2064 0.950 . S
C2041 C2058 1.574 . S
C2041 C2060 1.368 . S
C2041 H2065 0.949 . S
H2042 C2046 0.949 . S
C2043 C2044 1.349 . S
C2043 C2045 1.327 . S
C2043 H2066 0.950 . S
C2044 C2043 1.349 . S
C2044 C2056 1.349 . S
C2045 C2043 1.327 . S
C2045 C2061 1.429 . S
C2045 H2067 0.950 . S
C2046 H2042 0.949 . S
C2046 C2054 1.574 . S
C2046 C2062 1.368 . S
H2047 C2055 0.950 . S
H2048 C2053 0.950 . S
H2049 C2054 0.949 . S
H2050 C2056 0.950 . S
H2051 C2057 0.950 . S
H2052 C2058 0.949 . S
C2053 H2048 0.950 . S
C2053 C2055 1.327 . S
C2053 C2059 1.429 . S
C2054 C2046 1.574 . S
C2054 H2049 0.949 . S
C2054 C2060 1.368 . S
C2055 C2039 1.349 . S
C2055 H2047 0.950 . S
C2055 C2053 1.327 . S
C2056 C2044 1.349 . S
C2056 H2050 0.950 . S
C2056 C2057 1.327 . S
C2057 H2051 0.950 . S
C2057 C2056 1.327 . S
C2057 C2061 1.429 . S
C2058 C2041 1.574 . S
C2058 H2052 0.949 . S
C2058 C2062 1.368 . S
C2059 C2040 1.429 . S
C2059 C2053 1.429 . S
C2059 C2060 1.523 . S
C2060 C2041 1.368 . S
C2060 C2054 1.368 . S
C2060 C2059 1.523 . S
C2061 C2045 1.429 . S
C2061 C2057 1.429 . S
C2061 C2062 1.523 . S
C2062 C2046 1.368 . S
C2062 C2058 1.368 . S
C2062 C2061 1.523 . S
H2063 C2038 0.950 . S
H2064 C2040 0.950 . S
H2065 C2041 0.949 . S
H2066 C2043 0.950 . S
H2067 C2045 0.950 . S
C2068 C2069 1.349 . S
C2068 C2070 1.327 . S
C2068 H2093 0.950 . S
C2069 C2068 1.349 . S
C2069 C2085 1.349 . S
C2070 C2068 1.327 . S
C2070 C2089 1.429 . S
C2070 H2094 0.950 . S
C2071 C2088 1.574 . S
C2071 C2090 1.368 . S
C2071 H2095 0.949 . S
H2072 C2076 0.949 . S
C2073 C2074 1.349 . S
C2073 C2075 1.327 . S
C2073 H2096 0.950 . S
C2074 C2073 1.349 . S
C2074 C2086 1.349 . S
C2075 C2073 1.327 . S
C2075 C2091 1.429 . S
C2075 H2097 0.950 . S
C2076 H2072 0.949 . S
C2076 C2084 1.574 . S
C2076 C2092 1.368 . S
H2077 C2085 0.950 . S
H2078 C2083 0.950 . S
H2079 C2084 0.949 . S
H2080 C2086 0.950 . S
H2081 C2087 0.950 . S
H2082 C2088 0.949 . S
C2083 H2078 0.950 . S
C2083 C2085 1.327 . S
C2083 C2089 1.429 . S
C2084 C2076 1.574 . S
C2084 H2079 0.949 . S
C2084 C2090 1.368 . S
C2085 C2069 1.349 . S
C2085 H2077 0.950 . S
C2085 C2083 1.327 . S
C2086 C2074 1.349 . S
C2086 H2080 0.950 . S
C2086 C2087 1.327 . S
C2087 H2081 0.950 . S
C2087 C2086 1.327 . S
C2087 C2091 1.429 . S
C2088 C2071 1.574 . S
C2088 H2082 0.949 . S
C2088 C2092 1.368 . S
C2089 C2070 1.429 . S
C2089 C2083 1.429 . S
C2089 C2090 1.523 . S
C2090 C2071 1.368 . S
C2090 C2084 1.368 . S
C2090 C2089 1.523 . S
C2091 C2075 1.429 . S
C2091 C2087 1.429 . S
C2091 C2092 1.523 . S
C2092 C2076 1.368 . S
C2092 C2088 1.368 . S
C2092 C2091 1.523 . S
H2093 C2068 0.950 . S
H2094 C2070 0.950 . S
H2095 C2071 0.949 . S
H2096 C2073 0.950 . S
H2097 C2075 0.950 . S
C2098 C2099 1.349 . S
C2098 C2100 1.327 . S
C2098 H2123 0.950 . S
C2099 C2098 1.349 . S
C2099 C2115 1.349 . S
C2100 C2098 1.327 . S
C2100 C2119 1.429 . S
C2100 H2124 0.950 . S
C2101 C2118 1.574 . S
C2101 C2120 1.368 . S
C2101 H2125 0.949 . S
H2102 C2106 0.949 . S
C2103 C2104 1.349 . S
C2103 C2105 1.327 . S
C2103 H2126 0.950 . S
C2104 C2103 1.349 . S
C2104 C2116 1.349 . S
C2105 C2103 1.327 . S
C2105 C2121 1.429 . S
C2105 H2127 0.950 . S
C2106 H2102 0.949 . S
C2106 C2114 1.574 . S
C2106 C2122 1.368 . S
H2107 C2115 0.950 . S
H2108 C2113 0.950 . S
H2109 C2114 0.949 . S
H2110 C2116 0.950 . S
H2111 C2117 0.950 . S
H2112 C2118 0.949 . S
C2113 H2108 0.950 . S
C2113 C2115 1.327 . S
C2113 C2119 1.429 . S
C2114 C2106 1.574 . S
C2114 H2109 0.949 . S
C2114 C2120 1.368 . S
C2115 C2099 1.349 . S
C2115 H2107 0.950 . S
C2115 C2113 1.327 . S
C2116 C2104 1.349 . S
C2116 H2110 0.950 . S
C2116 C2117 1.327 . S
C2117 H2111 0.950 . S
C2117 C2116 1.327 . S
C2117 C2121 1.429 . S
C2118 C2101 1.574 . S
C2118 H2112 0.949 . S
C2118 C2122 1.368 . S
C2119 C2100 1.429 . S
C2119 C2113 1.429 . S
C2119 C2120 1.523 . S
C2120 C2101 1.368 . S
C2120 C2114 1.368 . S
C2120 C2119 1.523 . S
C2121 C2105 1.429 . S
C2121 C2117 1.429 . S
C2121 C2122 1.523 . S
C2122 C2106 1.368 . S
C2122 C2118 1.368 . S
C2122 C2121 1.523 . S
H2123 C2098 0.950 . S
H2124 C2100 0.950 . S
H2125 C2101 0.949 . S
H2126 C2103 0.950 . S
H2127 C2105 0.950 . S
C2128 C2129 1.349 . S
C2128 C2130 1.327 . S
C2128 H2153 0.950 . S
C2129 C2128 1.349 . S
C2129 C2145 1.349 . S
C2130 C2128 1.327 . S
C2130 C2149 1.429 . S
C2130 H2154 0.950 . S
C2131 C2148 1.574 . S
C2131 C2150 1.368 . S
C2131 H2155 0.949 . S
H2132 C2136 0.949 . S
C2133 C2134 1.349 . S
C2133 C2135 1.327 . S
C2133 H2156 0.950 . S
C2134 C2133 1.349 . S
C2134 C2146 1.349 . S
C2135 C2133 1.327 . S
C2135 C2151 1.429 . S
C2135 H2157 0.950 . S
C2136 H2132 0.949 . S
C2136 C2144 1.574 . S
C2136 C2152 1.368 . S
H2137 C2145 0.950 . S
H2138 C2143 0.950 . S
H2139 C2144 0.949 . S
H2140 C2146 0.950 . S
H2141 C2147 0.950 . S
H2142 C2148 0.949 . S
C2143 H2138 0.950 . S
C2143 C2145 1.327 . S
C2143 C2149 1.429 . S
C2144 C2136 1.574 . S
C2144 H2139 0.949 . S
C2144 C2150 1.368 . S
C2145 C2129 1.349 . S
C2145 H2137 0.950 . S
C2145 C2143 1.327 . S
C2146 C2134 1.349 . S
C2146 H2140 0.950 . S
C2146 C2147 1.327 . S
C2147 H2141 0.950 . S
C2147 C2146 1.327 . S
C2147 C2151 1.429 . S
C2148 C2131 1.574 . S
C2148 H2142 0.949 . S
C2148 C2152 1.368 . S
C2149 C2130 1.429 . S
C2149 C2143 1.429 . S
C2149 C2150 1.523 . S
C2150 C2131 1.368 . S
C2150 C2144 1.368 . S
C2150 C2149 1.523 . S
C2151 C2135 1.429 . S
C2151 C2147 1.429 . S
C2151 C2152 1.523 . S
C2152 C2136 1.368 . S
C2152 C2148 1.368 . S
C2152 C2151 1.523 . S
H2153 C2128 0.950 . S
H2154 C2130 0.950 . S
H2155 C2131 0.949 . S
H2156 C2133 0.950 . S
H2157 C2135 0.950 . S
C2158 C2159 1.349 . S
C2158 C2160 1.327 . S
C2158 H2183 0.950 . S
C2159 C2158 1.349 . S
C2159 C2175 1.349 . S
C2160 C2158 1.327 . S
C2160 C2179 1.429 . S
C2160 H2184 0.950 . S
C2161 C2178 1.574 . S
C2161 C2180 1.368 . S
C2161 H2185 0.949 . S
H2162 C2166 0.949 . S
C2163 C2164 1.349 . S
C2163 C2165 1.327 . S
C2163 H2186 0.950 . S
C2164 C2163 1.349 . S
C2164 C2176 1.349 . S
C2165 C2163 1.327 . S
C2165 C2181 1.429 . S
C2165 H2187 0.950 . S
C2166 H2162 0.949 . S
C2166 C2174 1.574 . S
C2166 C2182 1.368 . S
H2167 C2175 0.950 . S
H2168 C2173 0.950 . S
H2169 C2174 0.949 . S
H2170 C2176 0.950 . S
H2171 C2177 0.950 . S
H2172 C2178 0.949 . S
C2173 H2168 0.950 . S
C2173 C2175 1.327 . S
C2173 C2179 1.429 . S
C2174 C2166 1.574 . S
C2174 H2169 0.949 . S
C2174 C2180 1.368 . S
C2175 C2159 1.349 . S
C2175 H2167 0.950 . S
C2175 C2173 1.327 . S
C2176 C2164 1.349 . S
C2176 H2170 0.950 . S
C2176 C2177 1.327 . S
C2177 H2171 0.950 . S
C2177 C2176 1.327 . S
C2177 C2181 1.429 . S
C2178 C2161 1.574 . S
C2178 H2172 0.949 . S
C2178 C2182 1.368 . S
C2179 C2160 1.429 . S
C2179 C2173 1.429 . S
C2179 C2180 1.523 . S
C2180 C2161 1.368 . S
C2180 C2174 1.368 . S
C2180 C2179 1.523 . S
C2181 C2165 1.429 . S
C2181 C2177 1.429 . S
C2181 C2182 1.523 . S
C2182 C2166 1.368 . S
C2182 C2178 1.368 . S
C2182 C2181 1.523 . S
H2183 C2158 0.950 . S
H2184 C2160 0.950 . S
H2185 C2161 0.949 . S
H2186 C2163 0.950 . S
H2187 C2165 0.950 . S
C2188 C2189 1.349 . S
C2188 C2190 1.327 . S
C2188 H2213 0.950 . S
C2189 C2188 1.349 . S
C2189 C2205 1.349 . S
C2190 C2188 1.327 . S
C2190 C2209 1.429 . S
C2190 H2214 0.950 . S
C2191 C2208 1.574 . S
C2191 C2210 1.368 . S
C2191 H2215 0.949 . S
H2192 C2196 0.949 . S
C2193 C2194 1.349 . S
C2193 C2195 1.327 . S
C2193 H2216 0.950 . S
C2194 C2193 1.349 . S
C2194 C2206 1.349 . S
C2195 C2193 1.327 . S
C2195 C2211 1.429 . S
C2195 H2217 0.950 . S
C2196 H2192 0.949 . S
C2196 C2204 1.574 . S
C2196 C2212 1.368 . S
H2197 C2205 0.950 . S
H2198 C2203 0.950 . S
H2199 C2204 0.949 . S
H2200 C2206 0.950 . S
H2201 C2207 0.950 . S
H2202 C2208 0.949 . S
C2203 H2198 0.950 . S
C2203 C2205 1.327 . S
C2203 C2209 1.429 . S
C2204 C2196 1.574 . S
C2204 H2199 0.949 . S
C2204 C2210 1.368 . S
C2205 C2189 1.349 . S
C2205 H2197 0.950 . S
C2205 C2203 1.327 . S
C2206 C2194 1.349 . S
C2206 H2200 0.950 . S
C2206 C2207 1.327 . S
C2207 H2201 0.950 . S
C2207 C2206 1.327 . S
C2207 C2211 1.429 . S
C2208 C2191 1.574 . S
C2208 H2202 0.949 . S
C2208 C2212 1.368 . S
C2209 C2190 1.429 . S
C2209 C2203 1.429 . S
C2209 C2210 1.523 . S
C2210 C2191 1.368 . S
C2210 C2204 1.368 . S
C2210 C2209 1.523 . S
C2211 C2195 1.429 . S
C2211 C2207 1.429 . S
C2211 C2212 1.523 . S
C2212 C2196 1.368 . S
C2212 C2208 1.368 . S
C2212 C2211 1.523 . S
H2213 C2188 0.950 . S
H2214 C2190 0.950 . S
H2215 C2191 0.949 . S
H2216 C2193 0.950 . S
H2217 C2195 0.950 . S
C2218 C2219 1.349 . S
C2218 C2220 1.327 . S
C2218 H2243 0.950 . S
C2219 C2218 1.349 . S
C2219 C2235 1.349 . S
C2220 C2218 1.327 . S
C2220 C2239 1.429 . S
C2220 H2244 0.950 . S
C2221 C2238 1.574 . S
C2221 C2240 1.368 . S
C2221 H2245 0.949 . S
H2222 C2226 0.949 . S
C2223 C2224 1.349 . S
C2223 C2225 1.327 . S
C2223 H2246 0.950 . S
C2224 C2223 1.349 . S
C2224 C2236 1.349 . S
C2225 C2223 1.327 . S
C2225 C2241 1.429 . S
C2225 H2247 0.950 . S
C2226 H2222 0.949 . S
C2226 C2234 1.574 . S
C2226 C2242 1.368 . S
H2227 C2235 0.950 . S
H2228 C2233 0.950 . S
H2229 C2234 0.949 . S
H2230 C2236 0.950 . S
H2231 C2237 0.950 . S
H2232 C2238 0.949 . S
C2233 H2228 0.950 . S
C2233 C2235 1.327 . S
C2233 C2239 1.429 . S
C2234 C2226 1.574 . S
C2234 H2229 0.949 . S
C2234 C2240 1.368 . S
C2235 C2219 1.349 . S
C2235 H2227 0.950 . S
C2235 C2233 1.327 . S
C2236 C2224 1.349 . S
C2236 H2230 0.950 . S
C2236 C2237 1.327 . S
C2237 H2231 0.950 . S
C2237 C2236 1.327 . S
C2237 C2241 1.429 . S
C2238 C2221 1.574 . S
C2238 H2232 0.949 . S
C2238 C2242 1.368 . S
C2239 C2220 1.429 . S
C2239 C2233 1.429 . S
C2239 C2240 1.523 . S
C2240 C2221 1.368 . S
C2240 C2234 1.368 . S
C2240 C2239 1.523 . S
C2241 C2225 1.429 . S
C2241 C2237 1.429 . S
C2241 C2242 1.523 . S
C2242 C2226 1.368 . S
C2242 C2238 1.368 . S
C2242 C2241 1.523 . S
H2243 C2218 0.950 . S
H2244 C2220 0.950 . S
H2245 C2221 0.949 . S
H2246 C2223 0.950 . S
H2247 C2225 0.950 . S
C2248 C2249 1.349 . S
C2248 C2250 1.327 . S
C2248 H2273 0.950 . S
C2249 C2248 1.349 . S
C2249 C2265 1.349 . S
C2250 C2248 1.327 . S
C2250 C2269 1.429 . S
C2250 H2274 0.950 . S
C2251 C2268 1.574 . S
C2251 C2270 1.368 . S
C2251 H2275 0.949 . S
H2252 C2256 0.949 . S
C2253 C2254 1.349 . S
C2253 C2255 1.327 . S
C2253 H2276 0.950 . S
C2254 C2253 1.349 . S
C2254 C2266 1.349 . S
C2255 C2253 1.327 . S
C2255 C2271 1.429 . S
C2255 H2277 0.950 . S
C2256 H2252 0.949 . S
C2256 C2264 1.574 . S
C2256 C2272 1.368 . S
H2257 C2265 0.950 . S
H2258 C2263 0.950 . S
H2259 C2264 0.949 . S
H2260 C2266 0.950 . S
H2261 C2267 0.950 . S
H2262 C2268 0.949 . S
C2263 H2258 0.950 . S
C2263 C2265 1.327 . S
C2263 C2269 1.429 . S
C2264 C2256 1.574 . S
C2264 H2259 0.949 . S
C2264 C2270 1.368 . S
C2265 C2249 1.349 . S
C2265 H2257 0.950 . S
C2265 C2263 1.327 . S
C2266 C2254 1.349 . S
C2266 H2260 0.950 . S
C2266 C2267 1.327 . S
C2267 H2261 0.950 . S
C2267 C2266 1.327 . S
C2267 C2271 1.429 . S
C2268 C2251 1.574 . S
C2268 H2262 0.949 . S
C2268 C2272 1.368 . S
C2269 C2250 1.429 . S
C2269 C2263 1.429 . S
C2269 C2270 1.523 . S
C2270 C2251 1.368 . S
C2270 C2264 1.368 . S
C2270 C2269 1.523 . S
C2271 C2255 1.429 . S
C2271 C2267 1.429 . S
C2271 C2272 1.523 . S
C2272 C2256 1.368 . S
C2272 C2268 1.368 . S
C2272 C2271 1.523 . S
H2273 C2248 0.950 . S
H2274 C2250 0.950 . S
H2275 C2251 0.949 . S
H2276 C2253 0.950 . S
H2277 C2255 0.950 . S
C2278 C2279 1.349 . S
C2278 C2280 1.327 . S
C2278 H2303 0.950 . S
C2279 C2278 1.349 . S
C2279 C2295 1.349 . S
C2280 C2278 1.327 . S
C2280 C2299 1.429 . S
C2280 H2304 0.950 . S
C2281 C2298 1.574 . S
C2281 C2300 1.368 . S
C2281 H2305 0.949 . S
H2282 C2286 0.949 . S
C2283 C2284 1.349 . S
C2283 C2285 1.327 . S
C2283 H2306 0.950 . S
C2284 C2283 1.349 . S
C2284 C2296 1.349 . S
C2285 C2283 1.327 . S
C2285 C2301 1.429 . S
C2285 H2307 0.950 . S
C2286 H2282 0.949 . S
C2286 C2294 1.574 . S
C2286 C2302 1.368 . S
H2287 C2295 0.950 . S
H2288 C2293 0.950 . S
H2289 C2294 0.949 . S
H2290 C2296 0.950 . S
H2291 C2297 0.950 . S
H2292 C2298 0.949 . S
C2293 H2288 0.950 . S
C2293 C2295 1.327 . S
C2293 C2299 1.429 . S
C2294 C2286 1.574 . S
C2294 H2289 0.949 . S
C2294 C2300 1.368 . S
C2295 C2279 1.349 . S
C2295 H2287 0.950 . S
C2295 C2293 1.327 . S
C2296 C2284 1.349 . S
C2296 H2290 0.950 . S
C2296 C2297 1.327 . S
C2297 H2291 0.950 . S
C2297 C2296 1.327 . S
C2297 C2301 1.429 . S
C2298 C2281 1.574 . S
C2298 H2292 0.949 . S
C2298 C2302 1.368 . S
C2299 C2280 1.429 . S
C2299 C2293 1.429 . S
C2299 C2300 1.523 . S
C2300 C2281 1.368 . S
C2300 C2294 1.368 . S
C2300 C2299 1.523 . S
C2301 C2285 1.429 . S
C2301 C2297 1.429 . S
C2301 C2302 1.523 . S
C2302 C2286 1.368 . S
C2302 C2298 1.368 . S
C2302 C2301 1.523 . S
H2303 C2278 0.950 . S
H2304 C2280 0.950 . S
H2305 C2281 0.949 . S
H2306 C2283 0.950 . S
H2307 C2285 0.950 . S
C2308 C2309 1.349 . S
C2308 C2310 1.327 . S
C2308 H2333 0.950 . S
C2309 C2308 1.349 . S
C2309 C2325 1.349 . S
C2310 C2308 1.327 . S
C2310 C2329 1.429 . S
C2310 H2334 0.950 . S
C2311 C2328 1.574 . S
C2311 C2330 1.368 . S
C2311 H2335 0.949 . S
H2312 C2316 0.949 . S
C2313 C2314 1.349 . S
C2313 C2315 1.327 . S
C2313 H2336 0.950 . S
C2314 C2313 1.349 . S
C2314 C2326 1.349 . S
C2315 C2313 1.327 . S
C2315 C2331 1.429 . S
C2315 H2337 0.950 . S
C2316 H2312 0.949 . S
C2316 C2324 1.574 . S
C2316 C2332 1.368 . S
H2317 C2325 0.950 . S
H2318 C2323 0.950 . S
H2319 C2324 0.949 . S
H2320 C2326 0.950 . S
H2321 C2327 0.950 . S
H2322 C2328 0.949 . S
C2323 H2318 0.950 . S
C2323 C2325 1.327 . S
C2323 C2329 1.429 . S
C2324 C2316 1.574 . S
C2324 H2319 0.949 . S
C2324 C2330 1.368 . S
C2325 C2309 1.349 . S
C2325 H2317 0.950 . S
C2325 C2323 1.327 . S
C2326 C2314 1.349 . S
C2326 H2320 0.950 . S
C2326 C2327 1.327 . S
C2327 H2321 0.950 . S
C2327 C2326 1.327 . S
C2327 C2331 1.429 . S
C2328 C2311 1.574 . S
C2328 H2322 0.949 . S
C2328 C2332 1.368 . S
C2329 C2310 1.429 . S
C2329 C2323 1.429 . S
C2329 C2330 1.523 . S
C2330 C2311 1.368 . S
C2330 C2324 1.368 . S
C2330 C2329 1.523 . S
C2331 C2315 1.429 . S
C2331 C2327 1.429 . S
C2331 C2332 1.523 . S
C2332 C2316 1.368 . S
C2332 C2328 1.368 . S
C2332 C2331 1.523 . S
H2333 C2308 0.950 . S
H2334 C2310 0.950 . S
H2335 C2311 0.949 . S
H2336 C2313 0.950 . S
H2337 C2315 0.950 . S
C2338 C2339 1.349 . S
C2338 C2340 1.327 . S
C2338 H2363 0.950 . S
C2339 C2338 1.349 . S
C2339 C2355 1.349 . S
C2340 C2338 1.327 . S
C2340 C2359 1.429 . S
C2340 H2364 0.950 . S
C2341 C2358 1.574 . S
C2341 C2360 1.368 . S
C2341 H2365 0.949 . S
H2342 C2346 0.949 . S
C2343 C2344 1.349 . S
C2343 C2345 1.327 . S
C2343 H2366 0.950 . S
C2344 C2343 1.349 . S
C2344 C2356 1.349 . S
C2345 C2343 1.327 . S
C2345 C2361 1.429 . S
C2345 H2367 0.950 . S
C2346 H2342 0.949 . S
C2346 C2354 1.574 . S
C2346 C2362 1.368 . S
H2347 C2355 0.950 . S
H2348 C2353 0.950 . S
H2349 C2354 0.949 . S
H2350 C2356 0.950 . S
H2351 C2357 0.950 . S
H2352 C2358 0.949 . S
C2353 H2348 0.950 . S
C2353 C2355 1.327 . S
C2353 C2359 1.429 . S
C2354 C2346 1.574 . S
C2354 H2349 0.949 . S
C2354 C2360 1.368 . S
C2355 C2339 1.349 . S
C2355 H2347 0.950 . S
C2355 C2353 1.327 . S
C2356 C2344 1.349 . S
C2356 H2350 0.950 . S
C2356 C2357 1.327 . S
C2357 H2351 0.950 . S
C2357 C2356 1.327 . S
C2357 C2361 1.429 . S
C2358 C2341 1.574 . S
C2358 H2352 0.949 . S
C2358 C2362 1.368 . S
C2359 C2340 1.429 . S
C2359 C2353 1.429 . S
C2359 C2360 1.523 . S
C2360 C2341 1.368 . S
C2360 C2354 1.368 . S
C2360 C2359 1.523 . S
C2361 C2345 1.429 . S
C2361 C2357 1.429 . S
C2361 C2362 1.523 . S
C2362 C2346 1.368 . S
C2362 C2358 1.368 . S
C2362 C2361 1.523 . S
H2363 C2338 0.950 . S
H2364 C2340 0.950 . S
H2365 C2341 0.949 . S
H2366 C2343 0.950 . S
H2367 C2345 0.950 . S
C449 C415 1.585 . S
C454 C9 1.585 . S
C479 C23 1.585 . S
C484 C429 1.585 . S
C509 C443 1.585 . S
C514 C37 1.585 . S
C539 C401 1.585 . S
C544 C51 1.585 . S
C569 C65 1.585 . S
C574 C387 1.585 . S
C599 C345 1.585 . S
C604 C79 1.585 . S
C629 C93 1.585 . S
C634 C359 1.585 . S
C659 C373 1.585 . S
C664 C107 1.585 . S
C689 C121 1.585 . S
C694 C303 1.585 . S
C719 C135 1.585 . S
C724 C317 1.585 . S
C749 C331 1.585 . S
C754 C149 1.585 . S
C779 C163 1.585 . S
C784 C289 1.585 . S
C809 C275 1.585 . S
C814 C177 1.585 . S
C839 C233 1.585 . S
C844 C191 1.585 . S
C869 C205 1.585 . S
C874 C247 1.585 . S
C899 C219 1.585 . S
C904 C261 1.585 . S
C929 C3 1.361 . S
C934 C143 1.361 . S
C959 C157 1.361 . S
C964 C17 1.361 . S
C989 C115 1.361 . S
C994 C31 1.361 . S
C1019 C129 1.361 . S
C1024 C45 1.361 . S
C1049 C59 1.361 . S
C1054 C199 1.361 . S
C1079 C213 1.361 . S
C1084 C73 1.361 . S
C1109 C171 1.361 . S
C1114 C87 1.361 . S
C1139 C185 1.361 . S
C1144 C101 1.361 . S
C1169 C227 1.361 . S
C1174 C367 1.361 . S
C1199 C381 1.361 . S
C1204 C241 1.361 . S
C1229 C339 1.361 . S
C1234 C255 1.361 . S
C1259 C269 1.361 . S
C1264 C353 1.361 . S
C1289 C283 1.361 . S
C1294 C423 1.361 . S
C1319 C437 1.361 . S
C1324 C297 1.361 . S
C1349 C395 1.361 . S
C1354 C311 1.361 . S
C1379 C325 1.361 . S
C1384 C409 1.361 . S
C1409 C8 1.510 . S
C1414 C64 1.510 . S
C1439 C22 1.510 . S
C1444 C78 1.510 . S
C1469 C92 1.510 . S
C1474 C36 1.510 . S
C1499 C50 1.510 . S
C1504 C106 1.510 . S
C1529 C120 1.510 . S
C1534 C176 1.510 . S
C1559 C190 1.510 . S
C1564 C134 1.510 . S
C1589 C204 1.510 . S
C1594 C148 1.510 . S
C1619 C162 1.510 . S
C1624 C218 1.510 . S
C1649 C232 1.510 . S
C1654 C288 1.510 . S
C1679 C302 1.510 . S
C1684 C246 1.510 . S
C1709 C260 1.510 . S
C1714 C316 1.510 . S
C1739 C330 1.510 . S
C1744 C274 1.510 . S
C1769 C400 1.510 . S
C1774 C344 1.510 . S
C1799 C358 1.510 . S
C1804 C414 1.510 . S
C1829 C372 1.510 . S
C1834 C428 1.510 . S
C1859 C386 1.510 . S
C1864 C442 1.510 . S
C1889 C7 1.299 . S
C1894 C77 1.299 . S
C1919 C21 1.299 . S
C1924 C91 1.299 . S
C1949 C105 1.299 . S
C1954 C35 1.299 . S
C1979 C63 1.299 . S
C1984 C49 1.299 . S
C2009 C189 1.299 . S
C2014 C119 1.299 . S
C2039 C203 1.299 . S
C2044 C133 1.299 . S
C2069 C217 1.299 . S
C2074 C147 1.299 . S
C2099 C161 1.299 . S
C2104 C175 1.299 . S
C2129 C231 1.299 . S
C2134 C301 1.299 . S
C2159 C315 1.299 . S
C2164 C245 1.299 . S
C2189 C329 1.299 . S
C2194 C259 1.299 . S
C2219 C273 1.299 . S
C2224 C287 1.299 . S
C2249 C413 1.299 . S
C2254 C343 1.299 . S
C2279 C357 1.299 . S
C2284 C427 1.299 . S
C2309 C371 1.299 . S
C2314 C441 1.299 . S
C2339 C399 1.299 . S
C2344 C385 1.299 . S
