# Generated by pormake.
# Topology uog, (4)-cn, num edge types: 1
# Building blocks:
#     Node 0, Type 0, BuildingBlock: ICAMEG_clean_sbu_1, # of connection points: 4
#     Node 1, Type 0, BuildingBlock: ICAMEG_clean_sbu_1, # of connection points: 4
#     Node 2, Type 0, BuildingBlock: ICAMEG_clean_sbu_1, # of connection points: 4
#     Node 3, Type 0, BuildingBlock: ICAMEG_clean_sbu_1, # of connection points: 4
#     Node 4, Type 0, BuildingBlock: ICAMEG_clean_sbu_1, # of connection points: 4
#     Node 5, Type 0, BuildingBlock: ICAMEG_clean_sbu_1, # of connection points: 4
#     Edge 6, Type (0, 0), BuildingBlock: ZUJKAS_clean_linker_0, # of connection points: 2
#     Edge 7, Type (0, 0), BuildingBlock: ZUJKAS_clean_linker_0, # of connection points: 2
#     Edge 8, Type (0, 0), BuildingBlock: ZUJKAS_clean_linker_0, # of connection points: 2
#     Edge 9, Type (0, 0), BuildingBlock: ZUJKAS_clean_linker_0, # of connection points: 2
#     Edge 10, Type (0, 0), BuildingBlock: ZUJKAS_clean_linker_0, # of connection points: 2
#     Edge 11, Type (0, 0), BuildingBlock: ZUJKAS_clean_linker_0, # of connection points: 2
#     Edge 12, Type (0, 0), BuildingBlock: ZUJKAS_clean_linker_0, # of connection points: 2
#     Edge 13, Type (0, 0), BuildingBlock: ZUJKAS_clean_linker_0, # of connection points: 2
#     Edge 14, Type (0, 0), BuildingBlock: ZUJKAS_clean_linker_0, # of connection points: 2
#     Edge 15, Type (0, 0), BuildingBlock: ZUJKAS_clean_linker_0, # of connection points: 2
#     Edge 16, Type (0, 0), BuildingBlock: ZUJKAS_clean_linker_0, # of connection points: 2
#     Edge 17, Type (0, 0), BuildingBlock: ZUJKAS_clean_linker_0, # of connection points: 2
# Relax obj value: 0.051
# Max RMSD: 0.120
# Mean RMSD: 0.120
data_MOF--net-uog--node1-ICAMEG_clean_sbu_1--edge1-ZUJKAS_clean_linker_0
_symmetry_space_group_name_H-M    P1
_symmetry_Int_Tables_number       1
_symmetry_cell_setting            triclinic
loop_
_symmetry_equiv_pos_as_xyz
'x, y, z'
_cell_length_a     38.697072
_cell_length_b     38.695251
_cell_length_c     58.701664
_cell_angle_alpha  89.998132
_cell_angle_beta   90.000824
_cell_angle_gamma 119.9826
loop_
_atom_site_label
_atom_site_type_symbol
_atom_site_fract_x
_atom_site_fract_y
_atom_site_fract_z
_atom_type_partial_charge
Co0 Co 0.62951 0.33588 0.16038 0.0
Co1 Co 0.53471 0.26924 0.17903 0.0
O2 O 0.58073 0.28403 0.15943 0.0
C3 C 0.60454 0.3262 0.11226 0.0
O4 O 0.56921 0.31806 0.11961 0.0
C5 C 0.55393 0.20541 0.18614 0.0
O6 O 0.59118 0.23362 0.18895 0.0
O7 O 0.56913 0.28632 0.20655 0.0
O8 O 0.6273 0.3377 0.19444 0.0
H9 H 0.45925 0.28873 0.24264 0.0
H10 H 0.62885 0.26874 0.13562 0.0
O11 O 0.63269 0.33471 0.12638 0.0
H12 H 0.73237 0.30802 0.19474 0.0
H13 H 0.76865 0.43666 0.13554 0.0
H14 H 0.65617 0.41128 0.18574 0.0
H15 H 0.695 0.3439 0.19075 0.0
H16 H 0.70685 0.37112 0.13541 0.0
O17 O 0.52708 0.21444 0.18209 0.0
H18 H 0.51699 0.3078 0.21739 0.0
H19 H 0.45423 0.19676 0.18287 0.0
H20 H 0.71754 0.47715 0.18656 0.0
H21 H 0.66576 0.23227 0.13889 0.0
H22 H 0.77432 0.49015 0.16132 0.0
H23 H 0.71785 0.25178 0.16868 0.0
O24 O 0.59842 0.36397 0.15788 0.0
H25 H 0.48593 0.19963 0.10379 0.0
H26 H 0.47111 0.28426 0.16129 0.0
H27 H 0.42997 0.26535 0.12648 0.0
H28 H 0.43723 0.22271 0.09744 0.0
H29 H 0.52671 0.21951 0.13877 0.0
H30 H 0.39592 0.17633 0.20787 0.0
H31 H 0.39816 0.22256 0.23796 0.0
O32 O 0.54125 0.32361 0.17634 0.0
C33 C 0.604 0.31568 0.21024 0.0
C34 C 0.45785 0.26839 0.22954 0.0
C35 C 0.42233 0.20528 0.21005 0.0
N36 N 0.48881 0.25359 0.19854 0.0
C37 C 0.4904 0.27908 0.21515 0.0
C38 C 0.45545 0.21698 0.19597 0.0
C39 C 0.4236 0.23124 0.22692 0.0
C40 C 0.65176 0.27767 0.14847 0.0
N41 N 0.65987 0.30852 0.16291 0.0
C42 C 0.67244 0.2568 0.15031 0.0
C43 C 0.70162 0.26772 0.16705 0.0
C44 C 0.70976 0.29925 0.18169 0.0
C45 C 0.68843 0.3194 0.17938 0.0
C46 C 0.74414 0.43133 0.14664 0.0
C47 C 0.68086 0.41667 0.17481 0.0
C48 C 0.70906 0.39432 0.14661 0.0
N49 N 0.6781 0.38733 0.16069 0.0
C50 C 0.71548 0.45404 0.1753 0.0
C51 C 0.74731 0.46133 0.16112 0.0
C52 C 0.56517 0.35646 0.16656 0.0
C53 C 0.4824 0.21811 0.11635 0.0
C54 C 0.47448 0.26574 0.14872 0.0
C55 C 0.45105 0.25507 0.12906 0.0
C56 C 0.45513 0.23112 0.11278 0.0
N57 N 0.50115 0.25282 0.15211 0.0
C58 C 0.50528 0.22931 0.13624 0.0
Co59 Co 0.29487 0.63243 0.49387 0.0
Co60 Co 0.26617 0.53704 0.51173 0.0
O61 O 0.29749 0.58342 0.4924 0.0
C62 C 0.27855 0.60806 0.44575 0.0
O63 O 0.25146 0.57273 0.45314 0.0
C64 C 0.34909 0.55567 0.51853 0.0
O65 O 0.35832 0.59293 0.52159 0.0
O66 O 0.28369 0.57085 0.53948 0.0
O67 O 0.29129 0.62965 0.52794 0.0
H68 H 0.17136 0.46061 0.57519 0.0
H69 H 0.36065 0.63157 0.46842 0.0
O70 O 0.29865 0.63608 0.45985 0.0
H71 H 0.42638 0.73394 0.52799 0.0
H72 H 0.33395 0.77224 0.47004 0.0
H73 H 0.24702 0.65931 0.52 0.0
H74 H 0.35308 0.69714 0.52435 0.0
H75 H 0.33707 0.7101 0.46925 0.0
O76 O 0.31316 0.52904 0.51445 0.0
H77 H 0.21013 0.51881 0.55026 0.0
H78 H 0.25772 0.45627 0.5148 0.0
H79 H 0.24315 0.72102 0.52149 0.0
H80 H 0.43405 0.66792 0.47134 0.0
H81 H 0.28685 0.77803 0.49637 0.0
H82 H 0.46738 0.71943 0.50134 0.0
O83 O 0.23564 0.60182 0.49165 0.0
H84 H 0.28645 0.48962 0.43588 0.0
H85 H 0.18739 0.47414 0.49381 0.0
H86 H 0.16489 0.4338 0.45871 0.0
H87 H 0.2146 0.44141 0.42946 0.0
H88 H 0.30763 0.5296 0.47115 0.0
H89 H 0.21971 0.39748 0.53946 0.0
H90 H 0.17603 0.39938 0.56985 0.0
O91 O 0.21854 0.54395 0.5094 0.0
C92 C 0.28963 0.6058 0.54351 0.0
C93 C 0.19017 0.45936 0.56195 0.0
C94 C 0.21735 0.42395 0.54191 0.0
N95 N 0.23581 0.49076 0.53096 0.0
C96 C 0.21208 0.49216 0.54774 0.0
C97 C 0.23884 0.45733 0.52803 0.0
C98 C 0.19284 0.42503 0.55896 0.0
C99 C 0.37495 0.65423 0.48137 0.0
N100 N 0.3526 0.66234 0.49613 0.0
C101 C 0.41651 0.67459 0.483 0.0
C102 C 0.43519 0.70344 0.49987 0.0
C103 C 0.4122 0.71158 0.51483 0.0
C104 C 0.3707 0.69058 0.51272 0.0
C105 C 0.31482 0.74764 0.48109 0.0
C106 C 0.26629 0.6841 0.50913 0.0
C107 C 0.31639 0.71236 0.48069 0.0
N108 N 0.29247 0.68127 0.49471 0.0
C109 C 0.26389 0.71891 0.50999 0.0
C110 C 0.28839 0.75087 0.49588 0.0
C111 C 0.2098 0.56837 0.50008 0.0
C112 C 0.26453 0.48594 0.44854 0.0
C113 C 0.20921 0.47765 0.48115 0.0
C114 C 0.19629 0.45468 0.46133 0.0
C115 C 0.2242 0.45894 0.44493 0.0
N116 N 0.24882 0.50406 0.48458 0.0
C117 C 0.27636 0.50837 0.46859 0.0
Co118 Co 0.65989 0.29458 0.8268 0.0
Co119 Co 0.7276 0.26743 0.84486 0.0
O120 O 0.71189 0.29805 0.82538 0.0
C121 C 0.66857 0.27866 0.77868 0.0
O122 O 0.67693 0.25165 0.78606 0.0
C123 C 0.79137 0.35071 0.85115 0.0
O124 O 0.76319 0.35969 0.85433 0.0
O125 O 0.71125 0.28518 0.8725 0.0
O126 O 0.65906 0.29105 0.86089 0.0
H127 H 0.71101 0.17425 0.90892 0.0
H128 H 0.72603 0.36095 0.8014 0.0
O129 O 0.66014 0.29839 0.79278 0.0
H130 H 0.68767 0.42547 0.86085 0.0
H131 H 0.55767 0.33154 0.80278 0.0
H132 H 0.58531 0.24586 0.85287 0.0
H133 H 0.6522 0.35218 0.85722 0.0
H134 H 0.62344 0.33579 0.8021 0.0
O135 O 0.78234 0.31481 0.84724 0.0
H136 H 0.69071 0.21207 0.88377 0.0
H137 H 0.80046 0.25991 0.84792 0.0
H138 H 0.51922 0.24086 0.85425 0.0
H139 H 0.76206 0.43435 0.80431 0.0
H140 H 0.50508 0.28392 0.82908 0.0
H141 H 0.74301 0.46707 0.83425 0.0
O142 O 0.6321 0.23538 0.82462 0.0
H143 H 0.79467 0.287 0.76887 0.0
H144 H 0.71244 0.1886 0.82741 0.0
H145 H 0.73036 0.16582 0.79244 0.0
H146 H 0.77178 0.21519 0.76288 0.0
H147 H 0.77581 0.30846 0.80401 0.0
H148 H 0.8221 0.22286 0.87278 0.0
H149 H 0.77715 0.17953 0.90349 0.0
O150 O 0.67331 0.21941 0.84285 0.0
C151 C 0.6817 0.29028 0.87648 0.0
C152 C 0.7308 0.1929 0.89554 0.0
C153 C 0.79317 0.22023 0.87528 0.0
N154 N 0.74419 0.23781 0.86426 0.0
C155 C 0.71941 0.21427 0.88121 0.0
C156 C 0.78078 0.24118 0.86128 0.0
C157 C 0.76793 0.19591 0.8925 0.0
C158 C 0.71729 0.37498 0.81433 0.0
N159 N 0.68693 0.3523 0.82905 0.0
C160 C 0.73792 0.41655 0.81595 0.0
C161 C 0.72726 0.43489 0.83278 0.0
C162 C 0.69623 0.41156 0.84772 0.0
C163 C 0.67631 0.37006 0.84561 0.0
C164 C 0.56349 0.31268 0.81387 0.0
C165 C 0.57943 0.26486 0.84197 0.0
C166 C 0.60064 0.31489 0.81352 0.0
N167 N 0.60827 0.29132 0.82757 0.0
C168 C 0.54193 0.26182 0.84278 0.0
C169 C 0.53401 0.28596 0.82863 0.0
C170 C 0.6401 0.21003 0.83339 0.0
C171 C 0.77672 0.26522 0.78166 0.0
C172 C 0.73044 0.21027 0.81462 0.0
C173 C 0.74055 0.1972 0.79487 0.0
C174 C 0.76382 0.22492 0.77829 0.0
N175 N 0.74325 0.24986 0.8178 0.0
C176 C 0.7661 0.27722 0.80164 0.0
Co177 Co 0.36518 0.66064 0.16035 0.0
Co178 Co 0.46044 0.72726 0.17838 0.0
O179 O 0.41411 0.71229 0.15904 0.0
C180 C 0.38974 0.6692 0.11224 0.0
O181 O 0.42499 0.67716 0.11963 0.0
C182 C 0.44139 0.79117 0.18548 0.0
O183 O 0.40425 0.76296 0.18861 0.0
O184 O 0.42655 0.71057 0.20611 0.0
O185 O 0.3678 0.65952 0.19441 0.0
H186 H 0.53702 0.70849 0.24162 0.0
H187 H 0.36606 0.72752 0.13515 0.0
O188 O 0.36168 0.66115 0.12633 0.0
H189 H 0.26336 0.69012 0.1946 0.0
H190 H 0.22554 0.56003 0.13622 0.0
H191 H 0.33831 0.58569 0.18625 0.0
H192 H 0.30024 0.65371 0.1908 0.0
H193 H 0.28761 0.62532 0.13563 0.0
O194 O 0.46819 0.78214 0.18128 0.0
H195 H 0.47881 0.68917 0.21671 0.0
H196 H 0.54104 0.79971 0.18166 0.0
H197 H 0.27667 0.52008 0.18754 0.0
H198 H 0.32964 0.7645 0.13823 0.0
H199 H 0.21974 0.50694 0.16239 0.0
H200 H 0.27797 0.74594 0.16817 0.0
O201 O 0.3959 0.63212 0.15804 0.0
H202 H 0.50778 0.79568 0.10271 0.0
H203 H 0.5236 0.71184 0.16033 0.0
H204 H 0.56399 0.73011 0.12524 0.0
H205 H 0.55621 0.77234 0.09614 0.0
H206 H 0.46776 0.77646 0.13797 0.0
H207 H 0.59982 0.82039 0.2063 0.0
H208 H 0.59809 0.77454 0.23647 0.0
O209 O 0.45373 0.67282 0.17583 0.0
C210 C 0.39158 0.68156 0.21004 0.0
C211 C 0.5382 0.72866 0.22847 0.0
C212 C 0.57343 0.79149 0.20867 0.0
N213 N 0.5067 0.74311 0.19761 0.0
C214 C 0.50539 0.71783 0.21428 0.0
C215 C 0.54004 0.77966 0.1948 0.0
C216 C 0.57244 0.76575 0.22559 0.0
C217 C 0.34332 0.71899 0.14807 0.0
N218 N 0.33517 0.68837 0.1627 0.0
C219 C 0.32292 0.74016 0.1498 0.0
C220 C 0.29398 0.72977 0.16663 0.0
C221 C 0.28579 0.69847 0.18147 0.0
C222 C 0.30683 0.67802 0.17927 0.0
C223 C 0.25011 0.56542 0.14729 0.0
C224 C 0.31356 0.58025 0.17535 0.0
C225 C 0.28535 0.60229 0.14699 0.0
N226 N 0.31639 0.60937 0.16102 0.0
C227 C 0.27878 0.54302 0.17611 0.0
C228 C 0.24687 0.53565 0.16198 0.0
C229 C 0.42937 0.63972 0.16643 0.0
C230 C 0.51154 0.77738 0.1153 0.0
C231 C 0.52002 0.73021 0.14774 0.0
C232 C 0.54302 0.74051 0.12792 0.0
C233 C 0.53866 0.76422 0.11161 0.0
N234 N 0.4935 0.74326 0.15125 0.0
C235 C 0.48909 0.76655 0.13534 0.0
Co236 Co 0.70571 0.36665 0.49335 0.0
Co237 Co 0.73339 0.46183 0.51112 0.0
O238 O 0.70248 0.41532 0.49182 0.0
C239 C 0.72174 0.39094 0.44519 0.0
O240 O 0.74861 0.42639 0.45254 0.0
C241 C 0.65019 0.44229 0.51784 0.0
O242 O 0.64142 0.4052 0.52105 0.0
O243 O 0.71608 0.42807 0.53889 0.0
O244 O 0.70923 0.36953 0.52743 0.0
H245 H 0.82773 0.53912 0.57458 0.0
H246 H 0.63952 0.36665 0.46788 0.0
O247 O 0.70194 0.36288 0.45933 0.0
H248 H 0.57465 0.26424 0.52751 0.0
H249 H 0.66815 0.22718 0.46966 0.0
H250 H 0.75418 0.34061 0.51956 0.0
H251 H 0.64793 0.30168 0.52386 0.0
H252 H 0.66423 0.28888 0.4688 0.0
O253 O 0.686 0.46921 0.51373 0.0
H254 H 0.78948 0.48074 0.5497 0.0
H255 H 0.74086 0.5422 0.51409 0.0
H256 H 0.75885 0.27935 0.52112 0.0
H257 H 0.56612 0.32966 0.47081 0.0
H258 H 0.71561 0.22209 0.49604 0.0
H259 H 0.53322 0.27813 0.50084 0.0
O260 O 0.76492 0.39781 0.49114 0.0
H261 H 0.71264 0.50857 0.43516 0.0
H262 H 0.81194 0.52527 0.49324 0.0
H263 H 0.83418 0.56557 0.45812 0.0
H264 H 0.78436 0.55735 0.42879 0.0
H265 H 0.69172 0.46864 0.47046 0.0
H266 H 0.77833 0.60115 0.5387 0.0
H267 H 0.82227 0.59988 0.56915 0.0
O268 O 0.7814 0.45553 0.50887 0.0
C269 C 0.71049 0.39326 0.54296 0.0
C270 C 0.80881 0.5401 0.56132 0.0
C271 C 0.78104 0.57489 0.5412 0.0
N272 N 0.76332 0.50824 0.53032 0.0
C273 C 0.78719 0.50718 0.54713 0.0
C274 C 0.75985 0.54141 0.52734 0.0
C275 C 0.80569 0.57416 0.55828 0.0
C276 C 0.62541 0.34399 0.48084 0.0
N277 N 0.64799 0.33622 0.49561 0.0
C278 C 0.58384 0.32326 0.48248 0.0
C279 C 0.56541 0.29439 0.49936 0.0
C280 C 0.58863 0.28661 0.51434 0.0
C281 C 0.63013 0.30797 0.51222 0.0
C282 C 0.68709 0.25189 0.4807 0.0
C283 C 0.73511 0.31571 0.5087 0.0
C284 C 0.68506 0.28692 0.48025 0.0
N285 N 0.70873 0.31815 0.49425 0.0
C286 C 0.73796 0.28115 0.50961 0.0
C287 C 0.71372 0.24905 0.49551 0.0
C288 C 0.7905 0.43137 0.49956 0.0
C289 C 0.73461 0.51251 0.44785 0.0
C290 C 0.79007 0.52149 0.48055 0.0
C291 C 0.80284 0.54444 0.46071 0.0
C292 C 0.77487 0.53984 0.44427 0.0
N293 N 0.75053 0.49477 0.48394 0.0
C294 C 0.72292 0.49012 0.46791 0.0
Co295 Co 0.33712 0.70481 0.82704 0.0
Co296 Co 0.27068 0.73374 0.84498 0.0
O297 O 0.28568 0.70255 0.82549 0.0
C298 C 0.32958 0.72156 0.7789 0.0
O299 O 0.32181 0.74901 0.78625 0.0
C300 C 0.20584 0.65098 0.85119 0.0
O301 O 0.23359 0.64138 0.85433 0.0
O302 O 0.28622 0.71526 0.87265 0.0
O303 O 0.33767 0.70805 0.86113 0.0
H304 H 0.28876 0.82728 0.90913 0.0
H305 H 0.27047 0.63948 0.80136 0.0
O306 O 0.33719 0.70126 0.79303 0.0
H307 H 0.30613 0.57274 0.86083 0.0
H308 H 0.43744 0.66512 0.80329 0.0
H309 H 0.41169 0.7521 0.85338 0.0
H310 H 0.34301 0.64607 0.85739 0.0
H311 H 0.3724 0.66244 0.8024 0.0
O312 O 0.21548 0.68705 0.84725 0.0
H313 H 0.30813 0.78867 0.88402 0.0
H314 H 0.19882 0.74298 0.84791 0.0
H315 H 0.47705 0.75553 0.85497 0.0
H316 H 0.23305 0.56606 0.80407 0.0
H317 H 0.49024 0.7118 0.8298 0.0
H318 H 0.25073 0.53222 0.83402 0.0
O319 O 0.36601 0.76407 0.82502 0.0
H320 H 0.20452 0.71593 0.76884 0.0
H321 H 0.28762 0.81321 0.82763 0.0
H322 H 0.27073 0.83687 0.79265 0.0
H323 H 0.22887 0.78807 0.76296 0.0
H324 H 0.22238 0.69359 0.80402 0.0
H325 H 0.1781 0.78083 0.87275 0.0
H326 H 0.22331 0.82349 0.90356 0.0
O327 O 0.32546 0.78106 0.84313 0.0
C328 C 0.3152 0.70927 0.87667 0.0
C329 C 0.26887 0.80893 0.89571 0.0
C330 C 0.20674 0.78282 0.87531 0.0
N331 N 0.25482 0.76396 0.86438 0.0
C332 C 0.27973 0.78712 0.88139 0.0
C333 C 0.2186 0.76141 0.86132 0.0
C334 C 0.23213 0.80675 0.89259 0.0
C335 C 0.27862 0.62496 0.81429 0.0
N336 N 0.30901 0.64704 0.82913 0.0
C337 C 0.2572 0.58338 0.81581 0.0
C338 C 0.2671 0.56442 0.83264 0.0
C339 C 0.29816 0.58714 0.84769 0.0
C340 C 0.31888 0.62866 0.8457 0.0
C341 C 0.43203 0.68426 0.81437 0.0
C342 C 0.41715 0.73282 0.84248 0.0
C343 C 0.3953 0.68293 0.81391 0.0
N344 N 0.38819 0.70686 0.82796 0.0
C345 C 0.45424 0.73497 0.8434 0.0
C346 C 0.46164 0.71046 0.82926 0.0
C347 C 0.3586 0.78983 0.83378 0.0
C348 C 0.22267 0.73747 0.78169 0.0
C349 C 0.26942 0.79178 0.81479 0.0
C350 C 0.2599 0.80536 0.79503 0.0
C351 C 0.23639 0.77796 0.77838 0.0
N352 N 0.25582 0.75202 0.81791 0.0
C353 C 0.23272 0.72497 0.80168 0.0
H354 H 0.479 0.14052 0.18599 0.0
H355 H 0.46036 0.07028 0.18722 0.0
H356 H 0.58465 0.10366 0.18927 0.0
H357 H 0.60368 0.17424 0.18848 0.0
H358 H 0.47882 0.02861 0.15659 0.0
H359 H 0.53836 0.02569 0.24217 0.0
H360 H 0.53233 0.06669 0.23258 0.0
H361 H 0.5745 0.06267 0.22336 0.0
C362 C 0.50244 0.133 0.18684 0.0
C363 C 0.54285 0.16296 0.18726 0.0
C364 C 0.49169 0.09282 0.18754 0.0
C365 C 0.52108 0.08179 0.18867 0.0
C366 C 0.56148 0.11157 0.18893 0.0
H367 H 0.51615 0.85632 0.18369 0.0
H368 H 0.53445 0.92656 0.18447 0.0
C369 C 0.5723 0.15187 0.18836 0.0
C370 C 0.50927 0.03902 0.18875 0.0
H371 H 0.51577 0.96752 0.21942 0.0
C372 C 0.4867 0.01518 0.17038 0.0
C373 C 0.5196 0.02165 0.20679 0.0
C374 C 0.54221 0.04537 0.22746 0.0
C375 C 0.47472 0.97451 0.16937 0.0
C376 C 0.48525 0.95724 0.18733 0.0
C377 C 0.50779 0.981 0.2057 0.0
C378 C 0.47373 0.91464 0.18715 0.0
C379 C 0.4516 0.95047 0.1489 0.0
C380 C 0.4335 0.88478 0.18866 0.0
C381 C 0.42286 0.84454 0.18827 0.0
C382 C 0.45236 0.83361 0.18638 0.0
C383 C 0.49267 0.86371 0.18509 0.0
C384 C 0.50324 0.90386 0.18557 0.0
H385 H 0.45307 0.96983 0.13453 0.0
H386 H 0.46309 0.93082 0.14301 0.0
H387 H 0.41981 0.9312 0.15369 0.0
H388 H 0.41036 0.89263 0.19018 0.0
H389 H 0.39157 0.82206 0.1893 0.0
H390 H 0.3386 0.48055 0.51782 0.0
H391 H 0.38988 0.46145 0.51897 0.0
H392 H 0.48125 0.5855 0.52179 0.0
H393 H 0.43002 0.60497 0.52109 0.0
H394 H 0.45037 0.48002 0.4886 0.0
H395 H 0.51165 0.53791 0.5746 0.0
H396 H 0.46491 0.53235 0.56483 0.0
H397 H 0.51135 0.57454 0.55595 0.0
C398 C 0.36959 0.50383 0.51883 0.0
C399 C 0.38026 0.54431 0.5195 0.0
C400 C 0.39884 0.49283 0.51947 0.0
C401 C 0.43929 0.52201 0.52081 0.0
C402 C 0.45013 0.56247 0.52129 0.0
H403 H 0.65954 0.51694 0.51612 0.0
H404 H 0.60747 0.53506 0.51683 0.0
C405 C 0.42084 0.57355 0.52077 0.0
C406 C 0.47005 0.50995 0.52093 0.0
H407 H 0.54753 0.51569 0.5518 0.0
C408 C 0.47148 0.48761 0.50248 0.0
C409 C 0.49747 0.51987 0.53908 0.0
C410 C 0.49615 0.54216 0.55985 0.0
C411 C 0.50009 0.47551 0.50148 0.0
C412 C 0.52766 0.48571 0.51953 0.0
C413 C 0.52625 0.50797 0.538 0.0
C414 C 0.55879 0.47426 0.51932 0.0
C415 C 0.50123 0.45267 0.48093 0.0
C416 C 0.54852 0.43404 0.52074 0.0
C417 C 0.57821 0.42351 0.5204 0.0
C418 C 0.61861 0.45311 0.51864 0.0
C419 C 0.6287 0.4934 0.51742 0.0
C420 C 0.59904 0.50385 0.51786 0.0
H421 H 0.48335 0.4542 0.46656 0.0
H422 H 0.5324 0.46434 0.47507 0.0
H423 H 0.48883 0.42085 0.48561 0.0
H424 H 0.51756 0.41085 0.52217 0.0
H425 H 0.56949 0.39224 0.52137 0.0
H426 H 0.82247 0.43163 0.85364 0.0
H427 H 0.89311 0.48329 0.85349 0.0
H428 H 0.92649 0.39244 0.85009 0.0
H429 H 0.85631 0.34081 0.84984 0.0
H430 H 0.95328 0.49556 0.8839 0.0
H431 H 0.98813 0.46504 0.79709 0.0
H432 H 0.93765 0.44537 0.80715 0.0
H433 H 0.96585 0.42181 0.81512 0.0
C434 C 0.84487 0.42268 0.85284 0.0
C435 C 0.83381 0.38216 0.85162 0.0
C436 C 0.88516 0.4522 0.85274 0.0
C437 C 0.91493 0.44165 0.85136 0.0
C438 C 0.90395 0.40123 0.8506 0.0
H439 H 0.17361 0.56999 0.85397 0.0
H440 H 0.10267 0.51917 0.85474 0.0
C441 C 0.86379 0.37176 0.85059 0.0
C442 C 0.95757 0.47278 0.85119 0.0
H443 H 0.04348 0.50834 0.82032 0.0
C444 C 0.97298 0.49857 0.86994 0.0
C445 C 0.98312 0.47654 0.83294 0.0
C446 C 0.96783 0.45098 0.81183 0.0
C447 C 0.01355 0.52755 0.87115 0.0
C448 C 0.03911 0.53096 0.85303 0.0
C449 C 0.02372 0.50533 0.83424 0.0
C450 C 0.08183 0.56161 0.85301 0.0
C451 C 0.02896 0.55386 0.89196 0.0
C452 C 0.09333 0.60209 0.85155 0.0
C453 C 0.13366 0.63109 0.85103 0.0
C454 C 0.16322 0.62008 0.85196 0.0
C455 C 0.15156 0.57942 0.85337 0.0
C456 C 0.11112 0.55039 0.85377 0.0
H457 H 0.00762 0.54173 0.90641 0.0
H458 H 0.05802 0.55743 0.89747 0.0
H459 H 0.03368 0.58388 0.88775 0.0
H460 H 0.07108 0.61122 0.85059 0.0
H461 H 0.14162 0.66215 0.84988 0.0
H462 H 0.14955 0.51621 0.52751 0.0
H463 H 0.07861 0.49345 0.52408 0.0
H464 H 0.10212 0.56858 0.4651 0.0
H465 H 0.1737 0.59292 0.46907 0.0
H466 H 0.04978 0.57269 0.49126 0.0
H467 H 0.00219 0.4134 0.4802 0.0
H468 H 0.02934 0.43197 0.50627 0.0
H469 H 0.05396 0.45191 0.47942 0.0
C470 C 0.13965 0.52793 0.51381 0.0
C471 C 0.16714 0.55616 0.49846 0.0
C472 C 0.09902 0.51458 0.51173 0.0
C473 C 0.08486 0.52833 0.49391 0.0
C474 C 0.11233 0.55724 0.47884 0.0
H475 H 0.82708 0.40718 0.46867 0.0
H476 H 0.89874 0.43189 0.46485 0.0
C477 C 0.15319 0.57119 0.48116 0.0
C478 C 0.04148 0.51332 0.49153 0.0
H479 H 0.95078 0.42792 0.49119 0.0
C480 C 0.02816 0.54103 0.49094 0.0
C481 C 0.01322 0.47203 0.49052 0.0
C482 C 0.02547 0.4407 0.48886 0.0
C483 C 0.98734 0.52858 0.49041 0.0
C484 C 0.95907 0.48728 0.49138 0.0
C485 C 0.9724 0.45958 0.4909 0.0
C486 C 0.91566 0.47224 0.4936 0.0
C487 C 0.97511 0.55991 0.48865 0.0
C488 C 0.90128 0.48596 0.51132 0.0
C489 C 0.86058 0.4724 0.51331 0.0
C490 C 0.83326 0.44397 0.49798 0.0
C491 C 0.84745 0.42904 0.48076 0.0
C492 C 0.88836 0.44321 0.47852 0.0
H493 H 0.99846 0.5872 0.48002 0.0
H494 H 0.94669 0.5487 0.47913 0.0
H495 H 0.9711 0.56866 0.50603 0.0
H496 H 0.92154 0.50718 0.52368 0.0
H497 H 0.85051 0.48406 0.52696 0.0
H498 H 0.41899 0.82709 0.80274 0.0
H499 H 0.46702 0.89864 0.80004 0.0
H500 H 0.41612 0.91969 0.86023 0.0
H501 H 0.36716 0.8488 0.8624 0.0
H502 H 0.42669 0.97188 0.82875 0.0
H503 H 0.56564 0.96437 0.83654 0.0
H504 H 0.53506 0.93614 0.81298 0.0
H505 H 0.517 0.92176 0.84164 0.0
C506 C 0.41837 0.84701 0.81549 0.0
C507 C 0.38943 0.83239 0.83281 0.0
C508 C 0.44592 0.88784 0.81399 0.0
C509 C 0.44558 0.9145 0.83013 0.0
C510 C 0.41695 0.89974 0.84757 0.0
H511 H 0.6331 0.15115 0.86161 0.0
H512 H 0.58466 0.08011 0.85953 0.0
C513 C 0.38903 0.85918 0.84882 0.0
C514 C 0.4741 0.95797 0.82871 0.0
H515 H 0.57318 0.02759 0.82799 0.0
C516 C 0.45875 0.98409 0.82862 0.0
C517 C 0.51591 0.97385 0.82871 0.0
C518 C 0.53443 0.94761 0.8302 0.0
C519 C 0.48397 0.0256 0.82898 0.0
C520 C 0.52577 0.04149 0.82853 0.0
C521 C 0.54112 0.01537 0.82819 0.0
C522 C 0.55429 0.08498 0.82977 0.0
C523 C 0.46548 0.05184 0.83079 0.0
C524 C 0.55333 0.11148 0.81375 0.0
C525 C 0.58057 0.15239 0.81521 0.0
C526 C 0.60983 0.16726 0.83235 0.0
C527 C 0.61096 0.1406 0.84818 0.0
C528 C 0.58334 0.09995 0.84697 0.0
H529 H 0.43447 0.03511 0.83745 0.0
H530 H 0.48324 0.07777 0.84213 0.0
H531 H 0.46431 0.0632 0.81363 0.0
H532 H 0.53189 0.10052 0.79996 0.0
H533 H 0.57938 0.17221 0.80259 0.0
H534 H 0.4822 0.63196 0.19348 0.0
H535 H 0.50478 0.58365 0.18996 0.0
H536 H 0.4284 0.53138 0.13151 0.0
H537 H 0.40426 0.57878 0.13557 0.0
H538 H 0.42455 0.47524 0.15785 0.0
H539 H 0.58375 0.5861 0.14564 0.0
H540 H 0.56583 0.59529 0.17178 0.0
H541 H 0.5454 0.59961 0.14502 0.0
C542 C 0.47018 0.61019 0.17987 0.0
C543 C 0.44163 0.6093 0.16471 0.0
C544 C 0.48343 0.58282 0.17774 0.0
C545 C 0.46925 0.55467 0.16004 0.0
C546 C 0.44008 0.55312 0.14516 0.0
H547 H 0.58894 0.41639 0.13513 0.0
H548 H 0.56442 0.46349 0.13103 0.0
C549 C 0.42623 0.58012 0.14752 0.0
C550 C 0.48403 0.5261 0.15767 0.0
H551 H 0.56917 0.5203 0.15701 0.0
C552 C 0.45617 0.48511 0.15736 0.0
C553 C 0.52526 0.53891 0.15643 0.0
C554 C 0.55669 0.58239 0.15446 0.0
C555 C 0.46844 0.45659 0.15692 0.0
C556 C 0.50971 0.46943 0.15768 0.0
C557 C 0.53754 0.51041 0.15689 0.0
C558 C 0.5246 0.44095 0.16004 0.0
C559 C 0.43693 0.41306 0.15549 0.0
C560 C 0.51111 0.41332 0.17799 0.0
C561 C 0.52456 0.38611 0.18015 0.0
C562 C 0.55265 0.38667 0.16475 0.0
C563 C 0.56734 0.41532 0.14727 0.0
C564 C 0.55328 0.44214 0.14488 0.0
H565 H 0.40955 0.40909 0.14695 0.0
H566 H 0.44787 0.39554 0.14603 0.0
H567 H 0.42845 0.4007 0.17296 0.0
H568 H 0.49016 0.41279 0.19041 0.0
H569 H 0.51309 0.36475 0.19399 0.0
H570 H 0.61789 0.29504 0.89294 0.0
H571 H 0.60312 0.30193 0.93257 0.0
H572 H 0.71099 0.30446 0.95394 0.0
H573 H 0.72565 0.29665 0.91445 0.0
H574 H 0.64674 0.25394 0.97967 0.0
H575 H 0.6547 0.40079 0.9723 0.0
H576 H 0.6204 0.36388 0.95276 0.0
H577 H 0.67292 0.38137 0.95031 0.0
C578 C 0.63865 0.29727 0.90603 0.0
C579 C 0.67306 0.29539 0.90045 0.0
C580 C 0.63025 0.30148 0.92868 0.0
C581 C 0.6563 0.3044 0.94616 0.0
C582 C 0.69059 0.30246 0.94068 0.0
H583 H 0.67203 0.33518 0.09196 0.0
H584 H 0.68298 0.32939 0.0515 0.0
C585 C 0.69892 0.29802 0.91807 0.0
C586 C 0.6472 0.30799 0.97029 0.0
H587 H 0.63102 0.36644 0.00744 0.0
C588 C 0.64342 0.2786 0.98574 0.0
C589 C 0.64278 0.34016 0.97816 0.0
C590 C 0.64826 0.37356 0.96258 0.0
C591 C 0.63518 0.28041 0.00883 0.0
C592 C 0.63092 0.31259 0.01668 0.0
C593 C 0.63421 0.34176 0.00126 0.0
C594 C 0.6243 0.31703 0.04105 0.0
C595 C 0.63081 0.24776 0.02468 0.0
C596 C 0.58789 0.31272 0.04844 0.0
C597 C 0.58143 0.31593 0.0716 0.0
C598 C 0.61149 0.32392 0.08767 0.0
C599 C 0.64821 0.32895 0.08006 0.0
C600 C 0.65452 0.32552 0.05696 0.0
H601 H 0.62649 0.22101 0.01523 0.0
H602 H 0.6582 0.25898 0.03518 0.0
H603 H 0.60518 0.23876 0.03641 0.0
H604 H 0.56431 0.3063 0.03633 0.0
H605 H 0.55285 0.31194 0.0769 0.0
H606 H 0.42956 0.72494 0.24812 0.0
H607 H 0.40652 0.71055 0.28759 0.0
H608 H 0.29944 0.6049 0.26588 0.0
H609 H 0.32198 0.61887 0.2263 0.0
H610 H 0.32892 0.69845 0.30533 0.0
H611 H 0.3511 0.56797 0.31682 0.0
H612 H 0.37624 0.6048 0.29479 0.0
H613 H 0.32439 0.56835 0.29181 0.0
C614 C 0.40112 0.69858 0.25167 0.0
C615 C 0.3777 0.67301 0.23399 0.0
C616 C 0.38801 0.69049 0.27424 0.0
C617 C 0.35151 0.65654 0.27958 0.0
C618 C 0.32792 0.63104 0.26206 0.0
H619 H 0.23981 0.55658 0.41055 0.0
H620 H 0.25483 0.56835 0.36983 0.0
C621 C 0.34085 0.63919 0.23945 0.0
C622 C 0.33803 0.64803 0.30352 0.0
H623 H 0.32315 0.58464 0.34762 0.0
C624 C 0.32758 0.67357 0.31463 0.0
C625 C 0.33609 0.61537 0.31541 0.0
C626 C 0.34775 0.58756 0.30425 0.0
C627 C 0.31509 0.66725 0.33744 0.0
C628 C 0.31406 0.63513 0.34957 0.0
C629 C 0.32399 0.60925 0.3383 0.0
C630 C 0.30404 0.62855 0.37414 0.0
C631 C 0.30257 0.69471 0.34822 0.0
C632 C 0.32696 0.65835 0.39007 0.0
C633 C 0.31832 0.65185 0.41329 0.0
C634 C 0.28686 0.61517 0.42108 0.0
C635 C 0.26412 0.58521 0.4051 0.0
C636 C 0.27268 0.59186 0.38184 0.0
H637 H 0.29325 0.70922 0.33517 0.0
H638 H 0.27757 0.67836 0.36036 0.0
H639 H 0.32821 0.71861 0.35768 0.0
H640 H 0.35196 0.6865 0.38458 0.0
H641 H 0.33668 0.67543 0.42514 0.0
H642 H 0.68346 0.2415 0.74344 0.0
H643 H 0.68985 0.25892 0.7029 0.0
H644 H 0.66577 0.35395 0.71781 0.0
H645 H 0.6592 0.33687 0.75825 0.0
H646 H 0.63026 0.26579 0.67341 0.0
H647 H 0.77549 0.40647 0.68265 0.0
H648 H 0.75715 0.36704 0.70362 0.0
H649 H 0.73685 0.39977 0.70222 0.0
C650 C 0.67935 0.266 0.73808 0.0
C651 C 0.67092 0.28786 0.75408 0.0
C652 C 0.683 0.27586 0.71494 0.0
C653 C 0.67868 0.30793 0.7075 0.0
C654 C 0.66964 0.32937 0.72332 0.0
H655 H 0.70375 0.43103 0.58073 0.0
H656 H 0.69476 0.40837 0.62022 0.0
C657 C 0.66577 0.31945 0.7464 0.0
C658 C 0.68386 0.31933 0.68318 0.0
H659 H 0.74393 0.39406 0.64669 0.0
C660 C 0.65519 0.29368 0.66747 0.0
C661 C 0.71636 0.3558 0.67563 0.0
C662 C 0.74847 0.38384 0.69182 0.0
C663 C 0.65762 0.30409 0.64436 0.0
C664 C 0.69015 0.34068 0.63678 0.0
C665 C 0.71901 0.36608 0.65254 0.0
C666 C 0.69465 0.35359 0.61266 0.0
C667 C 0.62471 0.27642 0.62845 0.0
C668 C 0.69794 0.33046 0.59531 0.0
C669 C 0.70282 0.34317 0.57265 0.0
C670 C 0.70504 0.37957 0.56695 0.0
C671 C 0.70215 0.40285 0.58445 0.0
C672 C 0.69702 0.38996 0.60706 0.0
H673 H 0.5971 0.2557 0.63788 0.0
H674 H 0.61747 0.29345 0.61598 0.0
H675 H 0.63459 0.25817 0.61887 0.0
H676 H 0.69719 0.30277 0.5993 0.0
H677 H 0.70524 0.32461 0.55966 0.0
H678 H 0.37796 0.70275 0.8932 0.0
H679 H 0.39126 0.69353 0.9328 0.0
H680 H 0.28454 0.69339 0.954 0.0
H681 H 0.27085 0.70269 0.91451 0.0
H682 H 0.39909 0.74597 0.97126 0.0
H683 H 0.27611 0.58942 0.98182 0.0
H684 H 0.29484 0.61158 0.95421 0.0
H685 H 0.26229 0.62356 0.9698 0.0
C686 C 0.35717 0.70063 0.90623 0.0
C687 C 0.32324 0.70338 0.90062 0.0
C688 C 0.36489 0.69539 0.92885 0.0
C689 C 0.33864 0.69236 0.9462 0.0
C690 C 0.30484 0.69513 0.94074 0.0
H691 H 0.32304 0.66194 0.09178 0.0
H692 H 0.31245 0.6676 0.05128 0.0
C693 C 0.29719 0.70061 0.91817 0.0
C694 C 0.34714 0.68741 0.97015 0.0
H695 H 0.31178 0.62294 0.01508 0.0
C696 C 0.38024 0.71902 0.98086 0.0
C697 C 0.32232 0.65223 0.98252 0.0
C698 C 0.28703 0.61705 0.97153 0.0
C699 C 0.38861 0.71684 0.00391 0.0
C700 C 0.36369 0.68165 0.01635 0.0
C701 C 0.33084 0.64985 0.00551 0.0
C702 C 0.3704 0.67767 0.04084 0.0
C703 C 0.42319 0.75273 0.0149 0.0
C704 C 0.40631 0.68087 0.04839 0.0
C705 C 0.41262 0.67793 0.07159 0.0
C706 C 0.38287 0.67121 0.08761 0.0
C707 C 0.34659 0.66713 0.07991 0.0
C708 C 0.34045 0.67034 0.05675 0.0
H709 H 0.4325 0.78036 0.00487 0.0
H710 H 0.41552 0.75739 0.03243 0.0
H711 H 0.44908 0.74788 0.01597 0.0
H712 H 0.42947 0.68561 0.03634 0.0
H713 H 0.44078 0.68096 0.07696 0.0
H714 H 0.66403 0.32316 0.42472 0.0
H715 H 0.64814 0.312 0.38423 0.0
H716 H 0.74382 0.43082 0.36927 0.0
H717 H 0.75945 0.44266 0.40992 0.0
H718 H 0.67479 0.41358 0.34756 0.0
H719 H 0.70675 0.29058 0.33417 0.0
H720 H 0.67212 0.28061 0.35696 0.0
H721 H 0.72254 0.32138 0.35939 0.0
C722 C 0.68196 0.34687 0.41283 0.0
C723 C 0.71318 0.38376 0.42055 0.0
C724 C 0.67297 0.34031 0.38965 0.0
C725 C 0.69529 0.37028 0.37368 0.0
C726 C 0.72643 0.40717 0.38131 0.0
H727 H 0.67345 0.37918 0.22603 0.0
H728 H 0.69694 0.39365 0.26542 0.0
C729 C 0.73535 0.41386 0.40453 0.0
C730 C 0.68482 0.36366 0.34916 0.0
H731 H 0.6698 0.30058 0.30477 0.0
C732 C 0.67413 0.38915 0.33813 0.0
C733 C 0.68403 0.33178 0.33689 0.0
C734 C 0.69736 0.30477 0.34739 0.0
C735 C 0.66147 0.38287 0.31534 0.0
C736 C 0.65973 0.35042 0.3033 0.0
C737 C 0.67098 0.32529 0.31417 0.0
C738 C 0.64563 0.34169 0.27947 0.0
C739 C 0.64899 0.41024 0.30443 0.0
C740 C 0.60924 0.30741 0.27439 0.0
C741 C 0.5956 0.29903 0.25193 0.0
C742 C 0.61836 0.32464 0.23409 0.0
C743 C 0.65508 0.35882 0.2393 0.0
C744 C 0.66855 0.36726 0.2618 0.0
H745 H 0.6457 0.4297 0.31712 0.0
H746 H 0.67186 0.42959 0.2918 0.0
H747 H 0.62027 0.39265 0.29523 0.0
H748 H 0.59125 0.28729 0.28786 0.0
H749 H 0.56727 0.2724 0.24857 0.0
H750 H 0.33736 0.66237 0.75854 0.0
H751 H 0.33169 0.64591 0.71803 0.0
H752 H 0.31138 0.74337 0.70295 0.0
H753 H 0.3169 0.76016 0.74355 0.0
H754 H 0.26166 0.62777 0.68962 0.0
H755 H 0.40353 0.75718 0.65883 0.0
H756 H 0.39583 0.74148 0.68828 0.0
H757 H 0.37251 0.76786 0.67697 0.0
C758 C 0.33197 0.68055 0.74664 0.0
C759 C 0.32768 0.71267 0.75427 0.0
C760 C 0.3287 0.67104 0.72351 0.0
C761 C 0.32147 0.69365 0.70757 0.0
C762 C 0.31747 0.72591 0.71503 0.0
H763 H 0.29577 0.67492 0.56006 0.0
H764 H 0.30237 0.69621 0.59979 0.0
C765 C 0.32051 0.73535 0.73821 0.0
C766 C 0.31659 0.68232 0.68324 0.0
H767 H 0.36081 0.71177 0.6311 0.0
C768 C 0.28328 0.64607 0.67678 0.0
C769 C 0.34476 0.7065 0.66663 0.0
C770 C 0.38138 0.74536 0.6729 0.0
C771 C 0.27724 0.63333 0.65403 0.0
C772 C 0.30589 0.65704 0.63743 0.0
C773 C 0.33898 0.69359 0.64387 0.0
C774 C 0.30228 0.64417 0.61334 0.0
C775 C 0.23987 0.59494 0.64794 0.0
C776 C 0.30072 0.60816 0.60776 0.0
C777 C 0.29666 0.59571 0.5851 0.0
C778 C 0.29461 0.61934 0.56751 0.0
C779 C 0.29712 0.65589 0.57314 0.0
C780 C 0.30093 0.66817 0.59585 0.0
H781 H 0.21602 0.58688 0.66084 0.0
H782 H 0.22824 0.59712 0.63103 0.0
H783 H 0.24678 0.57037 0.64729 0.0
H784 H 0.30274 0.58967 0.62095 0.0
H785 H 0.29521 0.56759 0.58141 0.0
loop_
_geom_bond_atom_site_label_1
_geom_bond_atom_site_label_2
_geom_bond_distance
_geom_bond_site_symmetry_2
_ccdc_geom_bond_type
Co0 O2 2.143 . S
Co0 O8 2.074 . S
Co0 O11 2.093 . S
Co0 O24 2.097 . S
Co0 N41 2.151 . S
Co0 N49 2.214 . S
Co1 O2 2.160 . S
Co1 O7 2.058 . S
Co1 O17 2.057 . S
Co1 O32 2.037 . S
Co1 N36 2.145 . S
Co1 N57 2.257 . S
O2 Co0 2.143 . S
O2 Co1 2.160 . S
C3 O4 1.278 . S
C3 O11 1.224 . S
O4 C3 1.278 . S
C5 O6 1.245 . S
C5 O17 1.232 . S
O6 C5 1.245 . S
O7 Co1 2.058 . S
O7 C33 1.269 . S
O8 Co0 2.074 . S
O8 C33 1.257 . S
H9 C34 0.930 . S
H10 C40 0.930 . S
O11 Co0 2.093 . S
O11 C3 1.224 . S
H12 C44 0.929 . S
H13 C46 0.930 . S
H14 C47 0.930 . S
H15 C45 0.929 . S
H16 C48 0.928 . S
O17 Co1 2.057 . S
O17 C5 1.232 . S
H18 C37 0.929 . S
H19 C38 0.929 . S
H20 C50 0.931 . S
H21 C42 0.929 . S
H22 C51 0.930 . S
H23 C43 0.931 . S
O24 Co0 2.097 . S
O24 C52 1.214 . S
H25 C53 0.929 . S
H26 C54 0.929 . S
H27 C55 0.930 . S
H28 C56 0.929 . S
H29 C58 0.930 . S
H30 C35 0.930 . S
H31 C39 0.930 . S
O32 Co1 2.037 . S
O32 C52 1.234 . S
C33 O7 1.269 . S
C33 O8 1.257 . S
C34 H9 0.930 . S
C34 C37 1.388 . S
C34 C39 1.418 . S
C35 H30 0.930 . S
C35 C38 1.404 . S
C35 C39 1.353 . S
N36 Co1 2.145 . S
N36 C37 1.397 . S
N36 C38 1.334 . S
C37 H18 0.929 . S
C37 C34 1.388 . S
C37 N36 1.397 . S
C38 H19 0.929 . S
C38 C35 1.404 . S
C38 N36 1.334 . S
C39 H31 0.930 . S
C39 C34 1.418 . S
C39 C35 1.353 . S
C40 H10 0.930 . S
C40 N41 1.330 . S
C40 C42 1.446 . S
N41 Co0 2.151 . S
N41 C40 1.330 . S
N41 C45 1.418 . S
C42 H21 0.929 . S
C42 C40 1.446 . S
C42 C43 1.332 . S
C43 H23 0.931 . S
C43 C42 1.332 . S
C43 C44 1.267 . S
C44 H12 0.929 . S
C44 C43 1.267 . S
C44 C45 1.251 . S
C45 H15 0.929 . S
C45 N41 1.418 . S
C45 C44 1.251 . S
C46 H13 0.930 . S
C46 C48 1.406 . S
C46 C51 1.261 . S
C47 H14 0.930 . S
C47 N49 1.325 . S
C47 C50 1.357 . S
C48 H16 0.928 . S
C48 C46 1.406 . S
C48 N49 1.261 . S
N49 Co0 2.214 . S
N49 C47 1.325 . S
N49 C48 1.261 . S
C50 H20 0.931 . S
C50 C47 1.357 . S
C50 C51 1.312 . S
C51 H22 0.930 . S
C51 C46 1.261 . S
C51 C50 1.312 . S
C52 O24 1.214 . S
C52 O32 1.234 . S
C53 H25 0.929 . S
C53 C56 1.391 . S
C53 C58 1.391 . S
C54 H26 0.929 . S
C54 C55 1.390 . S
C54 N57 1.391 . S
C55 H27 0.930 . S
C55 C54 1.390 . S
C55 C56 1.392 . S
C56 H28 0.929 . S
C56 C53 1.391 . S
C56 C55 1.392 . S
N57 Co1 2.257 . S
N57 C54 1.391 . S
N57 C58 1.388 . S
C58 H29 0.930 . S
C58 C53 1.391 . S
C58 N57 1.388 . S
Co59 O61 2.143 . S
Co59 O67 2.074 . S
Co59 O70 2.093 . S
Co59 O83 2.097 . S
Co59 N100 2.151 . S
Co59 N108 2.214 . S
Co60 O61 2.160 . S
Co60 O66 2.058 . S
Co60 O76 2.057 . S
Co60 O91 2.037 . S
Co60 N95 2.145 . S
Co60 N116 2.257 . S
O61 Co59 2.143 . S
O61 Co60 2.160 . S
C62 O63 1.278 . S
C62 O70 1.224 . S
O63 C62 1.278 . S
C64 O65 1.245 . S
C64 O76 1.232 . S
O65 C64 1.245 . S
O66 Co60 2.058 . S
O66 C92 1.269 . S
O67 Co59 2.074 . S
O67 C92 1.257 . S
H68 C93 0.930 . S
H69 C99 0.930 . S
O70 Co59 2.093 . S
O70 C62 1.224 . S
H71 C103 0.929 . S
H72 C105 0.930 . S
H73 C106 0.930 . S
H74 C104 0.929 . S
H75 C107 0.928 . S
O76 Co60 2.057 . S
O76 C64 1.232 . S
H77 C96 0.929 . S
H78 C97 0.929 . S
H79 C109 0.931 . S
H80 C101 0.929 . S
H81 C110 0.930 . S
H82 C102 0.931 . S
O83 Co59 2.097 . S
O83 C111 1.214 . S
H84 C112 0.929 . S
H85 C113 0.929 . S
H86 C114 0.930 . S
H87 C115 0.929 . S
H88 C117 0.930 . S
H89 C94 0.930 . S
H90 C98 0.930 . S
O91 Co60 2.037 . S
O91 C111 1.234 . S
C92 O66 1.269 . S
C92 O67 1.257 . S
C93 H68 0.930 . S
C93 C96 1.388 . S
C93 C98 1.418 . S
C94 H89 0.930 . S
C94 C97 1.404 . S
C94 C98 1.353 . S
N95 Co60 2.145 . S
N95 C96 1.397 . S
N95 C97 1.334 . S
C96 H77 0.929 . S
C96 C93 1.388 . S
C96 N95 1.397 . S
C97 H78 0.929 . S
C97 C94 1.404 . S
C97 N95 1.334 . S
C98 H90 0.930 . S
C98 C93 1.418 . S
C98 C94 1.353 . S
C99 H69 0.930 . S
C99 N100 1.330 . S
C99 C101 1.446 . S
N100 Co59 2.151 . S
N100 C99 1.330 . S
N100 C104 1.418 . S
C101 H80 0.929 . S
C101 C99 1.446 . S
C101 C102 1.332 . S
C102 H82 0.931 . S
C102 C101 1.332 . S
C102 C103 1.267 . S
C103 H71 0.929 . S
C103 C102 1.267 . S
C103 C104 1.251 . S
C104 H74 0.929 . S
C104 N100 1.418 . S
C104 C103 1.251 . S
C105 H72 0.930 . S
C105 C107 1.406 . S
C105 C110 1.261 . S
C106 H73 0.930 . S
C106 N108 1.325 . S
C106 C109 1.357 . S
C107 H75 0.928 . S
C107 C105 1.406 . S
C107 N108 1.261 . S
N108 Co59 2.214 . S
N108 C106 1.325 . S
N108 C107 1.261 . S
C109 H79 0.931 . S
C109 C106 1.357 . S
C109 C110 1.312 . S
C110 H81 0.930 . S
C110 C105 1.261 . S
C110 C109 1.312 . S
C111 O83 1.214 . S
C111 O91 1.234 . S
C112 H84 0.929 . S
C112 C115 1.391 . S
C112 C117 1.391 . S
C113 H85 0.929 . S
C113 C114 1.390 . S
C113 N116 1.391 . S
C114 H86 0.930 . S
C114 C113 1.390 . S
C114 C115 1.392 . S
C115 H87 0.929 . S
C115 C112 1.391 . S
C115 C114 1.392 . S
N116 Co60 2.257 . S
N116 C113 1.391 . S
N116 C117 1.388 . S
C117 H88 0.930 . S
C117 C112 1.391 . S
C117 N116 1.388 . S
Co118 O120 2.143 . S
Co118 O126 2.074 . S
Co118 O129 2.093 . S
Co118 O142 2.097 . S
Co118 N159 2.151 . S
Co118 N167 2.214 . S
Co119 O120 2.160 . S
Co119 O125 2.058 . S
Co119 O135 2.057 . S
Co119 O150 2.037 . S
Co119 N154 2.145 . S
Co119 N175 2.257 . S
O120 Co118 2.143 . S
O120 Co119 2.160 . S
C121 O122 1.278 . S
C121 O129 1.224 . S
O122 C121 1.278 . S
C123 O124 1.245 . S
C123 O135 1.232 . S
O124 C123 1.245 . S
O125 Co119 2.058 . S
O125 C151 1.269 . S
O126 Co118 2.074 . S
O126 C151 1.257 . S
H127 C152 0.930 . S
H128 C158 0.930 . S
O129 Co118 2.093 . S
O129 C121 1.224 . S
H130 C162 0.929 . S
H131 C164 0.930 . S
H132 C165 0.930 . S
H133 C163 0.929 . S
H134 C166 0.928 . S
O135 Co119 2.057 . S
O135 C123 1.232 . S
H136 C155 0.929 . S
H137 C156 0.929 . S
H138 C168 0.931 . S
H139 C160 0.929 . S
H140 C169 0.930 . S
H141 C161 0.931 . S
O142 Co118 2.097 . S
O142 C170 1.214 . S
H143 C171 0.929 . S
H144 C172 0.929 . S
H145 C173 0.930 . S
H146 C174 0.929 . S
H147 C176 0.930 . S
H148 C153 0.930 . S
H149 C157 0.930 . S
O150 Co119 2.037 . S
O150 C170 1.234 . S
C151 O125 1.269 . S
C151 O126 1.257 . S
C152 H127 0.930 . S
C152 C155 1.388 . S
C152 C157 1.418 . S
C153 H148 0.930 . S
C153 C156 1.404 . S
C153 C157 1.353 . S
N154 Co119 2.145 . S
N154 C155 1.397 . S
N154 C156 1.334 . S
C155 H136 0.929 . S
C155 C152 1.388 . S
C155 N154 1.397 . S
C156 H137 0.929 . S
C156 C153 1.404 . S
C156 N154 1.334 . S
C157 H149 0.930 . S
C157 C152 1.418 . S
C157 C153 1.353 . S
C158 H128 0.930 . S
C158 N159 1.330 . S
C158 C160 1.446 . S
N159 Co118 2.151 . S
N159 C158 1.330 . S
N159 C163 1.418 . S
C160 H139 0.929 . S
C160 C158 1.446 . S
C160 C161 1.332 . S
C161 H141 0.931 . S
C161 C160 1.332 . S
C161 C162 1.267 . S
C162 H130 0.929 . S
C162 C161 1.267 . S
C162 C163 1.251 . S
C163 H133 0.929 . S
C163 N159 1.418 . S
C163 C162 1.251 . S
C164 H131 0.930 . S
C164 C166 1.406 . S
C164 C169 1.261 . S
C165 H132 0.930 . S
C165 N167 1.325 . S
C165 C168 1.357 . S
C166 H134 0.928 . S
C166 C164 1.406 . S
C166 N167 1.261 . S
N167 Co118 2.214 . S
N167 C165 1.325 . S
N167 C166 1.261 . S
C168 H138 0.931 . S
C168 C165 1.357 . S
C168 C169 1.312 . S
C169 H140 0.930 . S
C169 C164 1.261 . S
C169 C168 1.312 . S
C170 O142 1.214 . S
C170 O150 1.234 . S
C171 H143 0.929 . S
C171 C174 1.391 . S
C171 C176 1.391 . S
C172 H144 0.929 . S
C172 C173 1.390 . S
C172 N175 1.391 . S
C173 H145 0.930 . S
C173 C172 1.390 . S
C173 C174 1.392 . S
C174 H146 0.929 . S
C174 C171 1.391 . S
C174 C173 1.392 . S
N175 Co119 2.257 . S
N175 C172 1.391 . S
N175 C176 1.388 . S
C176 H147 0.930 . S
C176 C171 1.391 . S
C176 N175 1.388 . S
Co177 O179 2.143 . S
Co177 O185 2.074 . S
Co177 O188 2.093 . S
Co177 O201 2.097 . S
Co177 N218 2.151 . S
Co177 N226 2.214 . S
Co178 O179 2.160 . S
Co178 O184 2.058 . S
Co178 O194 2.057 . S
Co178 O209 2.037 . S
Co178 N213 2.145 . S
Co178 N234 2.257 . S
O179 Co177 2.143 . S
O179 Co178 2.160 . S
C180 O181 1.278 . S
C180 O188 1.224 . S
O181 C180 1.278 . S
C182 O183 1.245 . S
C182 O194 1.232 . S
O183 C182 1.245 . S
O184 Co178 2.058 . S
O184 C210 1.269 . S
O185 Co177 2.074 . S
O185 C210 1.257 . S
H186 C211 0.930 . S
H187 C217 0.930 . S
O188 Co177 2.093 . S
O188 C180 1.224 . S
H189 C221 0.929 . S
H190 C223 0.930 . S
H191 C224 0.930 . S
H192 C222 0.929 . S
H193 C225 0.928 . S
O194 Co178 2.057 . S
O194 C182 1.232 . S
H195 C214 0.929 . S
H196 C215 0.929 . S
H197 C227 0.931 . S
H198 C219 0.929 . S
H199 C228 0.930 . S
H200 C220 0.931 . S
O201 Co177 2.097 . S
O201 C229 1.214 . S
H202 C230 0.929 . S
H203 C231 0.929 . S
H204 C232 0.930 . S
H205 C233 0.929 . S
H206 C235 0.930 . S
H207 C212 0.930 . S
H208 C216 0.930 . S
O209 Co178 2.037 . S
O209 C229 1.234 . S
C210 O184 1.269 . S
C210 O185 1.257 . S
C211 H186 0.930 . S
C211 C214 1.388 . S
C211 C216 1.418 . S
C212 H207 0.930 . S
C212 C215 1.404 . S
C212 C216 1.353 . S
N213 Co178 2.145 . S
N213 C214 1.397 . S
N213 C215 1.334 . S
C214 H195 0.929 . S
C214 C211 1.388 . S
C214 N213 1.397 . S
C215 H196 0.929 . S
C215 C212 1.404 . S
C215 N213 1.334 . S
C216 H208 0.930 . S
C216 C211 1.418 . S
C216 C212 1.353 . S
C217 H187 0.930 . S
C217 N218 1.330 . S
C217 C219 1.446 . S
N218 Co177 2.151 . S
N218 C217 1.330 . S
N218 C222 1.418 . S
C219 H198 0.929 . S
C219 C217 1.446 . S
C219 C220 1.332 . S
C220 H200 0.931 . S
C220 C219 1.332 . S
C220 C221 1.267 . S
C221 H189 0.929 . S
C221 C220 1.267 . S
C221 C222 1.251 . S
C222 H192 0.929 . S
C222 N218 1.418 . S
C222 C221 1.251 . S
C223 H190 0.930 . S
C223 C225 1.406 . S
C223 C228 1.261 . S
C224 H191 0.930 . S
C224 N226 1.325 . S
C224 C227 1.357 . S
C225 H193 0.928 . S
C225 C223 1.406 . S
C225 N226 1.261 . S
N226 Co177 2.214 . S
N226 C224 1.325 . S
N226 C225 1.261 . S
C227 H197 0.931 . S
C227 C224 1.357 . S
C227 C228 1.312 . S
C228 H199 0.930 . S
C228 C223 1.261 . S
C228 C227 1.312 . S
C229 O201 1.214 . S
C229 O209 1.234 . S
C230 H202 0.929 . S
C230 C233 1.391 . S
C230 C235 1.391 . S
C231 H203 0.929 . S
C231 C232 1.390 . S
C231 N234 1.391 . S
C232 H204 0.930 . S
C232 C231 1.390 . S
C232 C233 1.392 . S
C233 H205 0.929 . S
C233 C230 1.391 . S
C233 C232 1.392 . S
N234 Co178 2.257 . S
N234 C231 1.391 . S
N234 C235 1.388 . S
C235 H206 0.930 . S
C235 C230 1.391 . S
C235 N234 1.388 . S
Co236 O238 2.143 . S
Co236 O244 2.074 . S
Co236 O247 2.093 . S
Co236 O260 2.097 . S
Co236 N277 2.151 . S
Co236 N285 2.214 . S
Co237 O238 2.160 . S
Co237 O243 2.058 . S
Co237 O253 2.057 . S
Co237 O268 2.037 . S
Co237 N272 2.145 . S
Co237 N293 2.257 . S
O238 Co236 2.143 . S
O238 Co237 2.160 . S
C239 O240 1.278 . S
C239 O247 1.224 . S
O240 C239 1.278 . S
C241 O242 1.245 . S
C241 O253 1.232 . S
O242 C241 1.245 . S
O243 Co237 2.058 . S
O243 C269 1.269 . S
O244 Co236 2.074 . S
O244 C269 1.257 . S
H245 C270 0.930 . S
H246 C276 0.930 . S
O247 Co236 2.093 . S
O247 C239 1.224 . S
H248 C280 0.929 . S
H249 C282 0.930 . S
H250 C283 0.930 . S
H251 C281 0.929 . S
H252 C284 0.928 . S
O253 Co237 2.057 . S
O253 C241 1.232 . S
H254 C273 0.929 . S
H255 C274 0.929 . S
H256 C286 0.931 . S
H257 C278 0.929 . S
H258 C287 0.930 . S
H259 C279 0.931 . S
O260 Co236 2.097 . S
O260 C288 1.214 . S
H261 C289 0.929 . S
H262 C290 0.929 . S
H263 C291 0.930 . S
H264 C292 0.929 . S
H265 C294 0.930 . S
H266 C271 0.930 . S
H267 C275 0.930 . S
O268 Co237 2.037 . S
O268 C288 1.234 . S
C269 O243 1.269 . S
C269 O244 1.257 . S
C270 H245 0.930 . S
C270 C273 1.388 . S
C270 C275 1.418 . S
C271 H266 0.930 . S
C271 C274 1.404 . S
C271 C275 1.353 . S
N272 Co237 2.145 . S
N272 C273 1.397 . S
N272 C274 1.334 . S
C273 H254 0.929 . S
C273 C270 1.388 . S
C273 N272 1.397 . S
C274 H255 0.929 . S
C274 C271 1.404 . S
C274 N272 1.334 . S
C275 H267 0.930 . S
C275 C270 1.418 . S
C275 C271 1.353 . S
C276 H246 0.930 . S
C276 N277 1.330 . S
C276 C278 1.446 . S
N277 Co236 2.151 . S
N277 C276 1.330 . S
N277 C281 1.418 . S
C278 H257 0.929 . S
C278 C276 1.446 . S
C278 C279 1.332 . S
C279 H259 0.931 . S
C279 C278 1.332 . S
C279 C280 1.267 . S
C280 H248 0.929 . S
C280 C279 1.267 . S
C280 C281 1.251 . S
C281 H251 0.929 . S
C281 N277 1.418 . S
C281 C280 1.251 . S
C282 H249 0.930 . S
C282 C284 1.406 . S
C282 C287 1.261 . S
C283 H250 0.930 . S
C283 N285 1.325 . S
C283 C286 1.357 . S
C284 H252 0.928 . S
C284 C282 1.406 . S
C284 N285 1.261 . S
N285 Co236 2.214 . S
N285 C283 1.325 . S
N285 C284 1.261 . S
C286 H256 0.931 . S
C286 C283 1.357 . S
C286 C287 1.312 . S
C287 H258 0.930 . S
C287 C282 1.261 . S
C287 C286 1.312 . S
C288 O260 1.214 . S
C288 O268 1.234 . S
C289 H261 0.929 . S
C289 C292 1.391 . S
C289 C294 1.391 . S
C290 H262 0.929 . S
C290 C291 1.390 . S
C290 N293 1.391 . S
C291 H263 0.930 . S
C291 C290 1.390 . S
C291 C292 1.392 . S
C292 H264 0.929 . S
C292 C289 1.391 . S
C292 C291 1.392 . S
N293 Co237 2.257 . S
N293 C290 1.391 . S
N293 C294 1.388 . S
C294 H265 0.930 . S
C294 C289 1.391 . S
C294 N293 1.388 . S
Co295 O297 2.143 . S
Co295 O303 2.074 . S
Co295 O306 2.093 . S
Co295 O319 2.097 . S
Co295 N336 2.151 . S
Co295 N344 2.214 . S
Co296 O297 2.160 . S
Co296 O302 2.058 . S
Co296 O312 2.057 . S
Co296 O327 2.037 . S
Co296 N331 2.145 . S
Co296 N352 2.257 . S
O297 Co295 2.143 . S
O297 Co296 2.160 . S
C298 O299 1.278 . S
C298 O306 1.224 . S
O299 C298 1.278 . S
C300 O301 1.245 . S
C300 O312 1.232 . S
O301 C300 1.245 . S
O302 Co296 2.058 . S
O302 C328 1.269 . S
O303 Co295 2.074 . S
O303 C328 1.257 . S
H304 C329 0.930 . S
H305 C335 0.930 . S
O306 Co295 2.093 . S
O306 C298 1.224 . S
H307 C339 0.929 . S
H308 C341 0.930 . S
H309 C342 0.930 . S
H310 C340 0.929 . S
H311 C343 0.928 . S
O312 Co296 2.057 . S
O312 C300 1.232 . S
H313 C332 0.929 . S
H314 C333 0.929 . S
H315 C345 0.931 . S
H316 C337 0.929 . S
H317 C346 0.930 . S
H318 C338 0.931 . S
O319 Co295 2.097 . S
O319 C347 1.214 . S
H320 C348 0.929 . S
H321 C349 0.929 . S
H322 C350 0.930 . S
H323 C351 0.929 . S
H324 C353 0.930 . S
H325 C330 0.930 . S
H326 C334 0.930 . S
O327 Co296 2.037 . S
O327 C347 1.234 . S
C328 O302 1.269 . S
C328 O303 1.257 . S
C329 H304 0.930 . S
C329 C332 1.388 . S
C329 C334 1.418 . S
C330 H325 0.930 . S
C330 C333 1.404 . S
C330 C334 1.353 . S
N331 Co296 2.145 . S
N331 C332 1.397 . S
N331 C333 1.334 . S
C332 H313 0.929 . S
C332 C329 1.388 . S
C332 N331 1.397 . S
C333 H314 0.929 . S
C333 C330 1.404 . S
C333 N331 1.334 . S
C334 H326 0.930 . S
C334 C329 1.418 . S
C334 C330 1.353 . S
C335 H305 0.930 . S
C335 N336 1.330 . S
C335 C337 1.446 . S
N336 Co295 2.151 . S
N336 C335 1.330 . S
N336 C340 1.418 . S
C337 H316 0.929 . S
C337 C335 1.446 . S
C337 C338 1.332 . S
C338 H318 0.931 . S
C338 C337 1.332 . S
C338 C339 1.267 . S
C339 H307 0.929 . S
C339 C338 1.267 . S
C339 C340 1.251 . S
C340 H310 0.929 . S
C340 N336 1.418 . S
C340 C339 1.251 . S
C341 H308 0.930 . S
C341 C343 1.406 . S
C341 C346 1.261 . S
C342 H309 0.930 . S
C342 N344 1.325 . S
C342 C345 1.357 . S
C343 H311 0.928 . S
C343 C341 1.406 . S
C343 N344 1.261 . S
N344 Co295 2.214 . S
N344 C342 1.325 . S
N344 C343 1.261 . S
C345 H315 0.931 . S
C345 C342 1.357 . S
C345 C346 1.312 . S
C346 H317 0.930 . S
C346 C341 1.261 . S
C346 C345 1.312 . S
C347 O319 1.214 . S
C347 O327 1.234 . S
C348 H320 0.929 . S
C348 C351 1.391 . S
C348 C353 1.391 . S
C349 H321 0.929 . S
C349 C350 1.390 . S
C349 N352 1.391 . S
C350 H322 0.930 . S
C350 C349 1.390 . S
C350 C351 1.392 . S
C351 H323 0.929 . S
C351 C348 1.391 . S
C351 C350 1.392 . S
N352 Co296 2.257 . S
N352 C349 1.391 . S
N352 C353 1.388 . S
C353 H324 0.930 . S
C353 C348 1.391 . S
C353 N352 1.388 . S
H354 C362 0.929 . S
H355 C364 0.930 . S
H356 C366 0.930 . S
H357 C369 0.929 . S
H358 C372 0.930 . S
H359 C374 0.960 . S
H360 C374 0.960 . S
H361 C374 0.960 . S
C362 H354 0.929 . S
C362 C363 1.377 . S
C362 C364 1.384 . S
C363 C362 1.377 . S
C363 C369 1.390 . S
C364 H355 0.930 . S
C364 C362 1.384 . S
C364 C365 1.372 . S
C365 C364 1.372 . S
C365 C366 1.400 . S
C365 C370 1.490 . S
C366 H356 0.930 . S
C366 C365 1.400 . S
C366 C369 1.386 . S
H367 C383 0.930 . S
H368 C384 0.931 . S
C369 H357 0.929 . S
C369 C363 1.390 . S
C369 C366 1.386 . S
C370 C365 1.490 . S
C370 C372 1.395 . S
C370 C373 1.403 . S
H371 C377 0.930 . S
C372 H358 0.930 . S
C372 C370 1.395 . S
C372 C375 1.403 1_545 S
C373 C370 1.403 . S
C373 C374 1.524 . S
C373 C377 1.400 1_545 S
C374 H359 0.960 . S
C374 H360 0.960 . S
C374 H361 0.960 . S
C374 C373 1.524 . S
C375 C372 1.403 1_565 S
C375 C376 1.392 . S
C375 C379 1.495 . S
C376 C375 1.392 . S
C376 C377 1.385 . S
C376 C378 1.478 . S
C377 H371 0.930 . S
C377 C373 1.400 1_565 S
C377 C376 1.385 . S
C378 C376 1.478 . S
C378 C380 1.381 . S
C378 C384 1.383 . S
C379 C375 1.495 . S
C379 H385 0.959 . S
C379 H386 0.961 . S
C379 H387 0.960 . S
C380 C378 1.381 . S
C380 C381 1.394 . S
C380 H388 0.930 . S
C381 C380 1.394 . S
C381 C382 1.383 . S
C381 H389 0.929 . S
C382 C381 1.383 . S
C382 C383 1.377 . S
C383 H367 0.930 . S
C383 C382 1.377 . S
C383 C384 1.379 . S
C384 H368 0.931 . S
C384 C378 1.383 . S
C384 C383 1.379 . S
H385 C379 0.959 . S
H386 C379 0.961 . S
H387 C379 0.960 . S
H388 C380 0.930 . S
H389 C381 0.929 . S
H390 C398 0.929 . S
H391 C400 0.930 . S
H392 C402 0.930 . S
H393 C405 0.929 . S
H394 C408 0.930 . S
H395 C410 0.960 . S
H396 C410 0.960 . S
H397 C410 0.960 . S
C398 H390 0.929 . S
C398 C399 1.377 . S
C398 C400 1.384 . S
C399 C398 1.377 . S
C399 C405 1.390 . S
C400 H391 0.930 . S
C400 C398 1.384 . S
C400 C401 1.372 . S
C401 C400 1.372 . S
C401 C402 1.400 . S
C401 C406 1.490 . S
C402 H392 0.930 . S
C402 C401 1.400 . S
C402 C405 1.386 . S
H403 C419 0.930 . S
H404 C420 0.931 . S
C405 H393 0.929 . S
C405 C399 1.390 . S
C405 C402 1.386 . S
C406 C401 1.490 . S
C406 C408 1.395 . S
C406 C409 1.403 . S
H407 C413 0.930 . S
C408 H394 0.930 . S
C408 C406 1.395 . S
C408 C411 1.403 . S
C409 C406 1.403 . S
C409 C410 1.524 . S
C409 C413 1.400 . S
C410 H395 0.960 . S
C410 H396 0.960 . S
C410 H397 0.960 . S
C410 C409 1.524 . S
C411 C408 1.403 . S
C411 C412 1.392 . S
C411 C415 1.495 . S
C412 C411 1.392 . S
C412 C413 1.385 . S
C412 C414 1.478 . S
C413 H407 0.930 . S
C413 C409 1.400 . S
C413 C412 1.385 . S
C414 C412 1.478 . S
C414 C416 1.381 . S
C414 C420 1.383 . S
C415 C411 1.495 . S
C415 H421 0.959 . S
C415 H422 0.961 . S
C415 H423 0.960 . S
C416 C414 1.381 . S
C416 C417 1.394 . S
C416 H424 0.930 . S
C417 C416 1.394 . S
C417 C418 1.383 . S
C417 H425 0.929 . S
C418 C417 1.383 . S
C418 C419 1.377 . S
C419 H403 0.930 . S
C419 C418 1.377 . S
C419 C420 1.379 . S
C420 H404 0.931 . S
C420 C414 1.383 . S
C420 C419 1.379 . S
H421 C415 0.959 . S
H422 C415 0.961 . S
H423 C415 0.960 . S
H424 C416 0.930 . S
H425 C417 0.929 . S
H426 C434 0.929 . S
H427 C436 0.930 . S
H428 C438 0.930 . S
H429 C441 0.929 . S
H430 C444 0.930 . S
H431 C446 0.954 1_455 S
H432 C446 0.960 . S
H433 C446 0.960 . S
C434 H426 0.929 . S
C434 C435 1.377 . S
C434 C436 1.384 . S
C435 C434 1.377 . S
C435 C441 1.390 . S
C436 H427 0.930 . S
C436 C434 1.384 . S
C436 C437 1.372 . S
C437 C436 1.372 . S
C437 C438 1.400 . S
C437 C442 1.490 . S
C438 H428 0.930 . S
C438 C437 1.400 . S
C438 C441 1.386 . S
H439 C455 0.930 . S
H440 C456 0.931 . S
C441 H429 0.929 . S
C441 C435 1.390 . S
C441 C438 1.386 . S
C442 C437 1.490 . S
C442 C444 1.395 . S
C442 C445 1.403 . S
H443 C449 0.930 . S
C444 H430 0.930 . S
C444 C442 1.395 . S
C444 C447 1.403 1_655 S
C445 C442 1.403 . S
C445 C446 1.524 . S
C445 C449 1.400 1_655 S
C446 H431 0.954 1_655 S
C446 H432 0.960 . S
C446 H433 0.960 . S
C446 C445 1.524 . S
C447 C444 1.403 1_455 S
C447 C448 1.392 . S
C447 C451 1.495 . S
C448 C447 1.392 . S
C448 C449 1.385 . S
C448 C450 1.478 . S
C449 H443 0.930 . S
C449 C445 1.400 1_455 S
C449 C448 1.385 . S
C450 C448 1.478 . S
C450 C452 1.381 . S
C450 C456 1.383 . S
C451 C447 1.495 . S
C451 H457 0.949 1_455 S
C451 H458 0.961 . S
C451 H459 0.960 . S
C452 C450 1.381 . S
C452 C453 1.394 . S
C452 H460 0.930 . S
C453 C452 1.394 . S
C453 C454 1.383 . S
C453 H461 0.929 . S
C454 C453 1.383 . S
C454 C455 1.377 . S
C455 H439 0.930 . S
C455 C454 1.377 . S
C455 C456 1.379 . S
C456 H440 0.931 . S
C456 C450 1.383 . S
C456 C455 1.379 . S
H457 C451 0.949 1_655 S
H458 C451 0.961 . S
H459 C451 0.960 . S
H460 C452 0.930 . S
H461 C453 0.929 . S
H462 C470 0.929 . S
H463 C472 0.930 . S
H464 C474 0.930 . S
H465 C477 0.929 . S
H466 C480 0.930 . S
H467 C482 0.963 . S
H468 C482 0.960 . S
H469 C482 0.960 . S
C470 H462 0.929 . S
C470 C471 1.377 . S
C470 C472 1.384 . S
C471 C470 1.377 . S
C471 C477 1.390 . S
C472 H463 0.930 . S
C472 C470 1.384 . S
C472 C473 1.372 . S
C473 C472 1.372 . S
C473 C474 1.400 . S
C473 C478 1.490 . S
C474 H464 0.930 . S
C474 C473 1.400 . S
C474 C477 1.386 . S
H475 C491 0.930 . S
H476 C492 0.931 . S
C477 H465 0.929 . S
C477 C471 1.390 . S
C477 C474 1.386 . S
C478 C473 1.490 . S
C478 C480 1.395 . S
C478 C481 1.403 . S
H479 C485 0.930 . S
C480 H466 0.930 . S
C480 C478 1.395 . S
C480 C483 1.403 1_455 S
C481 C478 1.403 . S
C481 C482 1.524 . S
C481 C485 1.400 1_455 S
C482 H467 0.963 . S
C482 H468 0.960 . S
C482 H469 0.960 . S
C482 C481 1.524 . S
C483 C480 1.403 1_655 S
C483 C484 1.392 . S
C483 C487 1.495 . S
C484 C483 1.392 . S
C484 C485 1.385 . S
C484 C486 1.478 . S
C485 H479 0.930 . S
C485 C481 1.400 1_655 S
C485 C484 1.385 . S
C486 C484 1.478 . S
C486 C488 1.381 . S
C486 C492 1.383 . S
C487 C483 1.495 . S
C487 H493 0.971 . S
C487 H494 0.961 . S
C487 H495 0.960 . S
C488 C486 1.381 . S
C488 C489 1.394 . S
C488 H496 0.930 . S
C489 C488 1.394 . S
C489 C490 1.383 . S
C489 H497 0.929 . S
C490 C489 1.383 . S
C490 C491 1.377 . S
C491 H475 0.930 . S
C491 C490 1.377 . S
C491 C492 1.379 . S
C492 H476 0.931 . S
C492 C486 1.383 . S
C492 C491 1.379 . S
H493 C487 0.971 . S
H494 C487 0.961 . S
H495 C487 0.960 . S
H496 C488 0.930 . S
H497 C489 0.929 . S
H498 C506 0.929 . S
H499 C508 0.930 . S
H500 C510 0.930 . S
H501 C513 0.929 . S
H502 C516 0.930 . S
H503 C518 0.960 . S
H504 C518 0.960 . S
H505 C518 0.960 . S
C506 H498 0.929 . S
C506 C507 1.377 . S
C506 C508 1.384 . S
C507 C506 1.377 . S
C507 C513 1.390 . S
C508 H499 0.930 . S
C508 C506 1.384 . S
C508 C509 1.372 . S
C509 C508 1.372 . S
C509 C510 1.400 . S
C509 C514 1.490 . S
C510 H500 0.930 . S
C510 C509 1.400 . S
C510 C513 1.386 . S
H511 C527 0.930 . S
H512 C528 0.931 . S
C513 H501 0.929 . S
C513 C507 1.390 . S
C513 C510 1.386 . S
C514 C509 1.490 . S
C514 C516 1.395 . S
C514 C517 1.403 . S
H515 C521 0.930 . S
C516 H502 0.930 . S
C516 C514 1.395 . S
C516 C519 1.403 1_565 S
C517 C514 1.403 . S
C517 C518 1.524 . S
C517 C521 1.400 1_565 S
C518 H503 0.960 . S
C518 H504 0.960 . S
C518 H505 0.960 . S
C518 C517 1.524 . S
C519 C516 1.403 1_545 S
C519 C520 1.392 . S
C519 C523 1.495 . S
C520 C519 1.392 . S
C520 C521 1.385 . S
C520 C522 1.478 . S
C521 H515 0.930 . S
C521 C517 1.400 1_545 S
C521 C520 1.385 . S
C522 C520 1.478 . S
C522 C524 1.381 . S
C522 C528 1.383 . S
C523 C519 1.495 . S
C523 H529 0.959 . S
C523 H530 0.961 . S
C523 H531 0.960 . S
C524 C522 1.381 . S
C524 C525 1.394 . S
C524 H532 0.930 . S
C525 C524 1.394 . S
C525 C526 1.383 . S
C525 H533 0.929 . S
C526 C525 1.383 . S
C526 C527 1.377 . S
C527 H511 0.930 . S
C527 C526 1.377 . S
C527 C528 1.379 . S
C528 H512 0.931 . S
C528 C522 1.383 . S
C528 C527 1.379 . S
H529 C523 0.959 . S
H530 C523 0.961 . S
H531 C523 0.960 . S
H532 C524 0.930 . S
H533 C525 0.929 . S
H534 C542 0.929 . S
H535 C544 0.930 . S
H536 C546 0.930 . S
H537 C549 0.929 . S
H538 C552 0.930 . S
H539 C554 0.960 . S
H540 C554 0.960 . S
H541 C554 0.960 . S
C542 H534 0.929 . S
C542 C543 1.377 . S
C542 C544 1.384 . S
C543 C542 1.377 . S
C543 C549 1.390 . S
C544 H535 0.930 . S
C544 C542 1.384 . S
C544 C545 1.372 . S
C545 C544 1.372 . S
C545 C546 1.400 . S
C545 C550 1.490 . S
C546 H536 0.930 . S
C546 C545 1.400 . S
C546 C549 1.386 . S
H547 C563 0.930 . S
H548 C564 0.931 . S
C549 H537 0.929 . S
C549 C543 1.390 . S
C549 C546 1.386 . S
C550 C545 1.490 . S
C550 C552 1.395 . S
C550 C553 1.403 . S
H551 C557 0.930 . S
C552 H538 0.930 . S
C552 C550 1.395 . S
C552 C555 1.403 . S
C553 C550 1.403 . S
C553 C554 1.524 . S
C553 C557 1.400 . S
C554 H539 0.960 . S
C554 H540 0.960 . S
C554 H541 0.960 . S
C554 C553 1.524 . S
C555 C552 1.403 . S
C555 C556 1.392 . S
C555 C559 1.495 . S
C556 C555 1.392 . S
C556 C557 1.385 . S
C556 C558 1.478 . S
C557 H551 0.930 . S
C557 C553 1.400 . S
C557 C556 1.385 . S
C558 C556 1.478 . S
C558 C560 1.381 . S
C558 C564 1.383 . S
C559 C555 1.495 . S
C559 H565 0.959 . S
C559 H566 0.961 . S
C559 H567 0.960 . S
C560 C558 1.381 . S
C560 C561 1.394 . S
C560 H568 0.930 . S
C561 C560 1.394 . S
C561 C562 1.383 . S
C561 H569 0.929 . S
C562 C561 1.383 . S
C562 C563 1.377 . S
C563 H547 0.930 . S
C563 C562 1.377 . S
C563 C564 1.379 . S
C564 H548 0.931 . S
C564 C558 1.383 . S
C564 C563 1.379 . S
H565 C559 0.959 . S
H566 C559 0.961 . S
H567 C559 0.960 . S
H568 C560 0.930 . S
H569 C561 0.929 . S
H570 C578 0.929 . S
H571 C580 0.930 . S
H572 C582 0.930 . S
H573 C585 0.929 . S
H574 C588 0.930 . S
H575 C590 0.960 . S
H576 C590 0.960 . S
H577 C590 0.960 . S
C578 H570 0.929 . S
C578 C579 1.377 . S
C578 C580 1.384 . S
C579 C578 1.377 . S
C579 C585 1.390 . S
C580 H571 0.930 . S
C580 C578 1.384 . S
C580 C581 1.372 . S
C581 C580 1.372 . S
C581 C582 1.400 . S
C581 C586 1.490 . S
C582 H572 0.930 . S
C582 C581 1.400 . S
C582 C585 1.386 . S
H583 C599 0.930 . S
H584 C600 0.931 . S
C585 H573 0.929 . S
C585 C579 1.390 . S
C585 C582 1.386 . S
C586 C581 1.490 . S
C586 C588 1.395 . S
C586 C589 1.403 . S
H587 C593 0.930 . S
C588 H574 0.930 . S
C588 C586 1.395 . S
C588 C591 1.403 1_556 S
C589 C586 1.403 . S
C589 C590 1.524 . S
C589 C593 1.400 1_556 S
C590 H575 0.960 . S
C590 H576 0.960 . S
C590 H577 0.960 . S
C590 C589 1.524 . S
C591 C588 1.403 1_554 S
C591 C592 1.392 . S
C591 C595 1.495 . S
C592 C591 1.392 . S
C592 C593 1.385 . S
C592 C594 1.478 . S
C593 H587 0.930 . S
C593 C589 1.400 1_554 S
C593 C592 1.385 . S
C594 C592 1.478 . S
C594 C596 1.381 . S
C594 C600 1.383 . S
C595 C591 1.495 . S
C595 H601 0.959 . S
C595 H602 0.961 . S
C595 H603 0.960 . S
C596 C594 1.381 . S
C596 C597 1.394 . S
C596 H604 0.930 . S
C597 C596 1.394 . S
C597 C598 1.383 . S
C597 H605 0.929 . S
C598 C597 1.383 . S
C598 C599 1.377 . S
C599 H583 0.930 . S
C599 C598 1.377 . S
C599 C600 1.379 . S
C600 H584 0.931 . S
C600 C594 1.383 . S
C600 C599 1.379 . S
H601 C595 0.959 . S
H602 C595 0.961 . S
H603 C595 0.960 . S
H604 C596 0.930 . S
H605 C597 0.929 . S
H606 C614 0.929 . S
H607 C616 0.930 . S
H608 C618 0.930 . S
H609 C621 0.929 . S
H610 C624 0.930 . S
H611 C626 0.960 . S
H612 C626 0.960 . S
H613 C626 0.960 . S
C614 H606 0.929 . S
C614 C615 1.377 . S
C614 C616 1.384 . S
C615 C614 1.377 . S
C615 C621 1.390 . S
C616 H607 0.930 . S
C616 C614 1.384 . S
C616 C617 1.372 . S
C617 C616 1.372 . S
C617 C618 1.400 . S
C617 C622 1.490 . S
C618 H608 0.930 . S
C618 C617 1.400 . S
C618 C621 1.386 . S
H619 C635 0.930 . S
H620 C636 0.931 . S
C621 H609 0.929 . S
C621 C615 1.390 . S
C621 C618 1.386 . S
C622 C617 1.490 . S
C622 C624 1.395 . S
C622 C625 1.403 . S
H623 C629 0.930 . S
C624 H610 0.930 . S
C624 C622 1.395 . S
C624 C627 1.403 . S
C625 C622 1.403 . S
C625 C626 1.524 . S
C625 C629 1.400 . S
C626 H611 0.960 . S
C626 H612 0.960 . S
C626 H613 0.960 . S
C626 C625 1.524 . S
C627 C624 1.403 . S
C627 C628 1.392 . S
C627 C631 1.495 . S
C628 C627 1.392 . S
C628 C629 1.385 . S
C628 C630 1.478 . S
C629 H623 0.930 . S
C629 C625 1.400 . S
C629 C628 1.385 . S
C630 C628 1.478 . S
C630 C632 1.381 . S
C630 C636 1.383 . S
C631 C627 1.495 . S
C631 H637 0.959 . S
C631 H638 0.961 . S
C631 H639 0.960 . S
C632 C630 1.381 . S
C632 C633 1.394 . S
C632 H640 0.930 . S
C633 C632 1.394 . S
C633 C634 1.383 . S
C633 H641 0.929 . S
C634 C633 1.383 . S
C634 C635 1.377 . S
C635 H619 0.930 . S
C635 C634 1.377 . S
C635 C636 1.379 . S
C636 H620 0.931 . S
C636 C630 1.383 . S
C636 C635 1.379 . S
H637 C631 0.959 . S
H638 C631 0.961 . S
H639 C631 0.960 . S
H640 C632 0.930 . S
H641 C633 0.929 . S
H642 C650 0.929 . S
H643 C652 0.930 . S
H644 C654 0.930 . S
H645 C657 0.929 . S
H646 C660 0.930 . S
H647 C662 0.960 . S
H648 C662 0.960 . S
H649 C662 0.960 . S
C650 H642 0.929 . S
C650 C651 1.377 . S
C650 C652 1.384 . S
C651 C650 1.377 . S
C651 C657 1.390 . S
C652 H643 0.930 . S
C652 C650 1.384 . S
C652 C653 1.372 . S
C653 C652 1.372 . S
C653 C654 1.400 . S
C653 C658 1.490 . S
C654 H644 0.930 . S
C654 C653 1.400 . S
C654 C657 1.386 . S
H655 C671 0.930 . S
H656 C672 0.931 . S
C657 H645 0.929 . S
C657 C651 1.390 . S
C657 C654 1.386 . S
C658 C653 1.490 . S
C658 C660 1.395 . S
C658 C661 1.403 . S
H659 C665 0.930 . S
C660 H646 0.930 . S
C660 C658 1.395 . S
C660 C663 1.403 . S
C661 C658 1.403 . S
C661 C662 1.524 . S
C661 C665 1.400 . S
C662 H647 0.960 . S
C662 H648 0.960 . S
C662 H649 0.960 . S
C662 C661 1.524 . S
C663 C660 1.403 . S
C663 C664 1.392 . S
C663 C667 1.495 . S
C664 C663 1.392 . S
C664 C665 1.385 . S
C664 C666 1.478 . S
C665 H659 0.930 . S
C665 C661 1.400 . S
C665 C664 1.385 . S
C666 C664 1.478 . S
C666 C668 1.381 . S
C666 C672 1.383 . S
C667 C663 1.495 . S
C667 H673 0.959 . S
C667 H674 0.961 . S
C667 H675 0.960 . S
C668 C666 1.381 . S
C668 C669 1.394 . S
C668 H676 0.930 . S
C669 C668 1.394 . S
C669 C670 1.383 . S
C669 H677 0.929 . S
C670 C669 1.383 . S
C670 C671 1.377 . S
C671 H655 0.930 . S
C671 C670 1.377 . S
C671 C672 1.379 . S
C672 H656 0.931 . S
C672 C666 1.383 . S
C672 C671 1.379 . S
H673 C667 0.959 . S
H674 C667 0.961 . S
H675 C667 0.960 . S
H676 C668 0.930 . S
H677 C669 0.929 . S
H678 C686 0.929 . S
H679 C688 0.930 . S
H680 C690 0.930 . S
H681 C693 0.929 . S
H682 C696 0.930 . S
H683 C698 0.960 . S
H684 C698 0.960 . S
H685 C698 0.960 . S
C686 H678 0.929 . S
C686 C687 1.377 . S
C686 C688 1.384 . S
C687 C686 1.377 . S
C687 C693 1.390 . S
C688 H679 0.930 . S
C688 C686 1.384 . S
C688 C689 1.372 . S
C689 C688 1.372 . S
C689 C690 1.400 . S
C689 C694 1.490 . S
C690 H680 0.930 . S
C690 C689 1.400 . S
C690 C693 1.386 . S
H691 C707 0.930 . S
H692 C708 0.931 . S
C693 H681 0.929 . S
C693 C687 1.390 . S
C693 C690 1.386 . S
C694 C689 1.490 . S
C694 C696 1.395 . S
C694 C697 1.403 . S
H695 C701 0.930 . S
C696 H682 0.930 . S
C696 C694 1.395 . S
C696 C699 1.403 1_556 S
C697 C694 1.403 . S
C697 C698 1.524 . S
C697 C701 1.400 1_556 S
C698 H683 0.960 . S
C698 H684 0.960 . S
C698 H685 0.960 . S
C698 C697 1.524 . S
C699 C696 1.403 1_554 S
C699 C700 1.392 . S
C699 C703 1.495 . S
C700 C699 1.392 . S
C700 C701 1.385 . S
C700 C702 1.478 . S
C701 H695 0.930 . S
C701 C697 1.400 1_554 S
C701 C700 1.385 . S
C702 C700 1.478 . S
C702 C704 1.381 . S
C702 C708 1.383 . S
C703 C699 1.495 . S
C703 H709 0.959 . S
C703 H710 0.961 . S
C703 H711 0.960 . S
C704 C702 1.381 . S
C704 C705 1.394 . S
C704 H712 0.930 . S
C705 C704 1.394 . S
C705 C706 1.383 . S
C705 H713 0.929 . S
C706 C705 1.383 . S
C706 C707 1.377 . S
C707 H691 0.930 . S
C707 C706 1.377 . S
C707 C708 1.379 . S
C708 H692 0.931 . S
C708 C702 1.383 . S
C708 C707 1.379 . S
H709 C703 0.959 . S
H710 C703 0.961 . S
H711 C703 0.960 . S
H712 C704 0.930 . S
H713 C705 0.929 . S
H714 C722 0.929 . S
H715 C724 0.930 . S
H716 C726 0.930 . S
H717 C729 0.929 . S
H718 C732 0.930 . S
H719 C734 0.960 . S
H720 C734 0.960 . S
H721 C734 0.960 . S
C722 H714 0.929 . S
C722 C723 1.377 . S
C722 C724 1.384 . S
C723 C722 1.377 . S
C723 C729 1.390 . S
C724 H715 0.930 . S
C724 C722 1.384 . S
C724 C725 1.372 . S
C725 C724 1.372 . S
C725 C726 1.400 . S
C725 C730 1.490 . S
C726 H716 0.930 . S
C726 C725 1.400 . S
C726 C729 1.386 . S
H727 C743 0.930 . S
H728 C744 0.931 . S
C729 H717 0.929 . S
C729 C723 1.390 . S
C729 C726 1.386 . S
C730 C725 1.490 . S
C730 C732 1.395 . S
C730 C733 1.403 . S
H731 C737 0.930 . S
C732 H718 0.930 . S
C732 C730 1.395 . S
C732 C735 1.403 . S
C733 C730 1.403 . S
C733 C734 1.524 . S
C733 C737 1.400 . S
C734 H719 0.960 . S
C734 H720 0.960 . S
C734 H721 0.960 . S
C734 C733 1.524 . S
C735 C732 1.403 . S
C735 C736 1.392 . S
C735 C739 1.495 . S
C736 C735 1.392 . S
C736 C737 1.385 . S
C736 C738 1.478 . S
C737 H731 0.930 . S
C737 C733 1.400 . S
C737 C736 1.385 . S
C738 C736 1.478 . S
C738 C740 1.381 . S
C738 C744 1.383 . S
C739 C735 1.495 . S
C739 H745 0.959 . S
C739 H746 0.961 . S
C739 H747 0.960 . S
C740 C738 1.381 . S
C740 C741 1.394 . S
C740 H748 0.930 . S
C741 C740 1.394 . S
C741 C742 1.383 . S
C741 H749 0.929 . S
C742 C741 1.383 . S
C742 C743 1.377 . S
C743 H727 0.930 . S
C743 C742 1.377 . S
C743 C744 1.379 . S
C744 H728 0.931 . S
C744 C738 1.383 . S
C744 C743 1.379 . S
H745 C739 0.959 . S
H746 C739 0.961 . S
H747 C739 0.960 . S
H748 C740 0.930 . S
H749 C741 0.929 . S
H750 C758 0.929 . S
H751 C760 0.930 . S
H752 C762 0.930 . S
H753 C765 0.929 . S
H754 C768 0.930 . S
H755 C770 0.960 . S
H756 C770 0.960 . S
H757 C770 0.960 . S
C758 H750 0.929 . S
C758 C759 1.377 . S
C758 C760 1.384 . S
C759 C758 1.377 . S
C759 C765 1.390 . S
C760 H751 0.930 . S
C760 C758 1.384 . S
C760 C761 1.372 . S
C761 C760 1.372 . S
C761 C762 1.400 . S
C761 C766 1.490 . S
C762 H752 0.930 . S
C762 C761 1.400 . S
C762 C765 1.386 . S
H763 C779 0.930 . S
H764 C780 0.931 . S
C765 H753 0.929 . S
C765 C759 1.390 . S
C765 C762 1.386 . S
C766 C761 1.490 . S
C766 C768 1.395 . S
C766 C769 1.403 . S
H767 C773 0.930 . S
C768 H754 0.930 . S
C768 C766 1.395 . S
C768 C771 1.403 . S
C769 C766 1.403 . S
C769 C770 1.524 . S
C769 C773 1.400 . S
C770 H755 0.960 . S
C770 H756 0.960 . S
C770 H757 0.960 . S
C770 C769 1.524 . S
C771 C768 1.403 . S
C771 C772 1.392 . S
C771 C775 1.495 . S
C772 C771 1.392 . S
C772 C773 1.385 . S
C772 C774 1.478 . S
C773 H767 0.930 . S
C773 C769 1.400 . S
C773 C772 1.385 . S
C774 C772 1.478 . S
C774 C776 1.381 . S
C774 C780 1.383 . S
C775 C771 1.495 . S
C775 H781 0.959 . S
C775 H782 0.961 . S
C775 H783 0.960 . S
C776 C774 1.381 . S
C776 C777 1.394 . S
C776 H784 0.930 . S
C777 C776 1.394 . S
C777 C778 1.383 . S
C777 H785 0.929 . S
C778 C777 1.383 . S
C778 C779 1.377 . S
C779 H763 0.930 . S
C779 C778 1.377 . S
C779 C780 1.379 . S
C780 H764 0.931 . S
C780 C774 1.383 . S
C780 C779 1.379 . S
H781 C775 0.959 . S
H782 C775 0.961 . S
H783 C775 0.960 . S
H784 C776 0.930 . S
H785 C777 0.929 . S
C363 C5 1.123 . S
C382 C182 1.117 . S
C399 C64 1.123 . S
C418 C241 1.117 . S
C435 C123 1.123 . S
C454 C300 1.125 . S
C471 C111 1.921 . S
C490 C288 1.915 . S
C507 C347 1.920 . S
C526 C170 1.918 . S
C543 C229 1.920 . S
C562 C52 1.916 . S
C579 C151 1.276 . S
C598 C3 1.279 . S
C615 C210 1.270 . S
C634 C62 1.267 . S
C651 C121 1.269 . S
C670 C269 1.286 . S
C687 C328 1.275 . S
C706 C180 1.249 . S
C723 C239 1.271 . S
C742 C33 1.269 . S
C759 C298 1.268 . S
C778 C92 1.255 . S
