# Generated by pormake.
# Topology wjq, (5)-cn, num edge types: 1
# Building blocks:
#     Node 0, Type 0, BuildingBlock: XOMCOT_clean_sbu_1, # of connection points: 5
#     Node 1, Type 0, BuildingBlock: XOMCOT_clean_sbu_1, # of connection points: 5
#     Node 2, Type 0, BuildingBlock: XOMCOT_clean_sbu_1, # of connection points: 5
#     Node 3, Type 0, BuildingBlock: XOMCOT_clean_sbu_1, # of connection points: 5
#     Node 4, Type 0, BuildingBlock: XOMCOT_clean_sbu_1, # of connection points: 5
#     Node 5, Type 0, BuildingBlock: XOMCOT_clean_sbu_1, # of connection points: 5
#     Node 6, Type 0, BuildingBlock: XOMCOT_clean_sbu_1, # of connection points: 5
#     Node 7, Type 0, BuildingBlock: XOMCOT_clean_sbu_1, # of connection points: 5
#     Node 8, Type 0, BuildingBlock: XOMCOT_clean_sbu_1, # of connection points: 5
#     Node 9, Type 0, BuildingBlock: XOMCOT_clean_sbu_1, # of connection points: 5
#     Node 10, Type 0, BuildingBlock: XOMCOT_clean_sbu_1, # of connection points: 5
#     Node 11, Type 0, BuildingBlock: XOMCOT_clean_sbu_1, # of connection points: 5
#     Edge 12, Type (0, 0), None
#     Edge 13, Type (0, 0), None
#     Edge 14, Type (0, 0), None
#     Edge 15, Type (0, 0), None
#     Edge 16, Type (0, 0), None
#     Edge 17, Type (0, 0), None
#     Edge 18, Type (0, 0), None
#     Edge 19, Type (0, 0), None
#     Edge 20, Type (0, 0), None
#     Edge 21, Type (0, 0), None
#     Edge 22, Type (0, 0), None
#     Edge 23, Type (0, 0), None
#     Edge 24, Type (0, 0), None
#     Edge 25, Type (0, 0), None
#     Edge 26, Type (0, 0), None
#     Edge 27, Type (0, 0), None
#     Edge 28, Type (0, 0), None
#     Edge 29, Type (0, 0), None
#     Edge 30, Type (0, 0), None
#     Edge 31, Type (0, 0), None
#     Edge 32, Type (0, 0), None
#     Edge 33, Type (0, 0), None
#     Edge 34, Type (0, 0), None
#     Edge 35, Type (0, 0), None
#     Edge 36, Type (0, 0), None
#     Edge 37, Type (0, 0), None
#     Edge 38, Type (0, 0), None
#     Edge 39, Type (0, 0), None
#     Edge 40, Type (0, 0), None
#     Edge 41, Type (0, 0), None
# Relax obj value: 0.618
# Max RMSD: 0.297
# Mean RMSD: 0.297
data_MOF--net-wjq--node1-XOMCOT_clean_sbu_1--edge1-none
_symmetry_space_group_name_H-M    P1
_symmetry_Int_Tables_number       1
_symmetry_cell_setting            triclinic
loop_
_symmetry_equiv_pos_as_xyz
'x, y, z'
_cell_length_a     12.577576
_cell_length_b     12.577664
_cell_length_c     51.471596
_cell_angle_alpha  90.000012
_cell_angle_beta   89.999998
_cell_angle_gamma 120.00449
loop_
_atom_site_label
_atom_site_type_symbol
_atom_site_fract_x
_atom_site_fract_y
_atom_site_fract_z
_atom_type_partial_charge
C0 C 0.42242 0.35588 -0.00126 0.0
C1 C 0.36956 0.37278 -0.02328 0.0
N2 N 0.25008 0.32959 -0.0183 0.0
N3 N 0.33696 0.30178 0.01762 0.0
C4 C 0.23248 0.28902 0.00667 0.0
H5 H 0.51751 0.38005 0.00075 0.0
Co6 Co 0.37222 0.25426 0.05063 0.0
C7 C 0.12941 0.0696 0.07254 0.0
O8 O 0.17657 1.0005 0.07867 0.0
N9 N 0.40775 0.21007 0.08331 0.0
C10 C 0.45623 0.12874 0.11666 0.0
C11 C 0.44706 0.13112 0.08998 0.0
C12 C 0.39492 0.25503 0.10626 0.0
N13 N 0.42436 0.20765 0.1265 0.0
O14 O 0.41357 0.41026 0.06388 0.0
H15 H 0.46632 0.07687 0.07657 0.0
H16 H 0.36232 0.31954 0.10824 0.0
O17 O 0.19627 0.17429 0.06134 0.0
C18 C 0.53109 0.47467 0.0647 0.0
O19 O 0.59657 0.42198 0.05991 0.0
N20 N 0.35316 0.11424 0.03547 0.0
C21 C 0.3755 1.03789 -0.01288 0.0
C22 C 0.25988 0.9878 -0.0012 0.0
C23 C 0.24991 1.03148 0.02268 0.0
C24 C 0.46681 0.14308 0.02666 0.0
C25 C 0.4806 0.10932 0.00175 0.0
H26 H 0.16076 1.01664 0.02772 0.0
H27 H 0.5475 0.21277 0.03656 0.0
H28 H 0.14521 0.24924 0.01655 0.0
H29 H 0.41487 0.41281 0.95849 0.0
H30 H 0.48509 0.07493 0.12789 0.0
H31 H 0.17736 0.93609 -0.01252 0.0
H32 H 0.57086 0.15205 -0.00698 0.0
C33 C 0.10792 0.40169 0.33208 0.0
C34 C 1.03816 0.34881 0.31006 0.0
N35 N 0.96189 0.22932 0.31504 0.0
N36 N 0.07658 0.31622 0.35095 0.0
C37 C 0.98487 0.21173 0.34 0.0
H38 H 0.17883 0.49678 0.33409 0.0
Co39 Co 0.15939 0.35149 0.38397 0.0
C40 C 0.10125 0.10869 0.40587 0.0
O41 O 0.21753 0.15587 0.412 0.0
N42 N 0.23911 0.38703 0.41664 0.0
C43 C 0.36894 0.4355 0.44999 0.0
C44 C 0.35738 0.42634 0.42331 0.0
C45 C 0.18133 0.3742 0.43959 0.0
N46 N 0.25815 0.40363 0.45984 0.0
O47 O 1.04474 0.39285 0.39721 0.0
H48 H 0.43089 0.44559 0.4099 0.0
H49 H 0.08421 0.34159 0.44157 0.0
O50 O 0.06339 0.17553 0.39467 0.0
C51 C 0.09785 0.51036 0.39803 0.0
O52 O 0.21603 0.57585 0.39325 0.0
N53 N 0.28033 0.33243 0.3688 0.0
C54 C 0.37902 0.35481 0.32045 0.0
C55 C 0.31346 0.23918 0.33212 0.0
C56 C 0.25981 0.22919 0.35601 0.0
C57 C 0.36515 0.44609 0.36 0.0
C58 C 0.41271 0.4599 0.33508 0.0
H59 H 0.18549 0.14005 0.36104 0.0
H60 H 0.37618 0.52678 0.36989 0.0
H61 H 0.93741 0.12445 0.34989 0.0
H62 H 1.04342 0.39412 0.29183 0.0
H63 H 0.45161 0.46436 0.46123 0.0
H64 H 0.28263 0.15666 0.3208 0.0
H65 H 0.46025 0.55016 0.32636 0.0
C66 C 0.74765 0.08716 0.66541 0.0
C67 C 0.73076 1.01739 0.64339 0.0
N68 N 0.77398 0.94114 0.64837 0.0
N69 N 0.80178 0.05584 0.68429 0.0
C70 C 0.81457 0.96413 0.67334 0.0
H71 H 0.72346 0.15806 0.66742 0.0
Co72 Co 0.84933 0.13865 0.7173 0.0
C73 C 1.03399 0.08051 0.7392 0.0
O74 O 0.10311 0.19679 0.74533 0.0
N75 N 0.89353 0.21837 0.74998 0.0
C76 C 0.97488 0.3482 0.78333 0.0
C77 C 0.9725 0.33665 0.75665 0.0
C78 C 0.84857 0.16059 0.77292 0.0
N79 N 0.89596 0.23741 0.79317 0.0
O80 O 0.69331 1.024 0.73055 0.0
H81 H 1.02676 0.41015 0.74323 0.0
H82 H 0.78405 0.06346 0.77491 0.0
O83 O 0.92928 0.04265 0.72801 0.0
C84 C 0.62892 0.07712 0.73137 0.0
O85 O 0.68164 0.1953 0.72658 0.0
N86 N 0.98935 0.25959 0.70214 0.0
C87 C 0.06563 0.35824 0.65378 0.0
C88 C 0.1157 0.29268 0.66545 0.0
C89 C 0.07205 0.23905 0.68934 0.0
C90 C 0.96053 0.34441 0.69333 0.0
C91 C 0.99426 0.39196 0.66842 0.0
H92 H 0.08687 0.16474 0.69437 0.0
H93 H 0.89088 0.35545 0.70323 0.0
H94 H 0.85439 0.91668 0.68322 0.0
H95 H 0.69071 1.02265 0.62517 0.0
H96 H 1.0287 0.43087 0.79456 0.0
H97 H 0.16735 0.26183 0.65413 0.0
H98 H 0.95155 0.4395 0.6597 0.0
C99 C 0.70189 0.72698 -0.00126 0.0
C100 C 0.75476 0.71009 -0.02328 0.0
N101 N 0.87423 0.75327 -0.0183 0.0
N102 N 0.78735 0.78108 0.01762 0.0
C103 C 0.89183 0.79384 0.00667 0.0
H104 H 0.6068 0.70282 0.00075 0.0
Co105 Co 0.75209 0.82861 0.05064 0.0
C106 C 0.99489 1.01324 0.07255 0.0
O107 O 0.94776 0.08238 0.07868 0.0
N108 N 0.71656 0.87279 0.08331 0.0
C109 C 0.66809 0.95413 0.11666 0.0
C110 C 0.67726 0.95175 0.08998 0.0
C111 C 0.72939 0.82784 0.10626 0.0
N112 N 0.69995 0.87522 0.1265 0.0
O113 O 0.71072 0.6726 0.06388 0.0
H114 H 0.65801 1.006 0.07657 0.0
H115 H 0.76199 0.76332 0.10824 0.0
O116 O 0.92804 0.90855 0.06134 0.0
C117 C 0.59321 0.6082 0.0647 0.0
O118 O 0.52771 0.66088 0.05992 0.0
N119 N 0.77117 0.96863 0.03547 0.0
C120 C 0.74885 0.04497 -0.01288 0.0
C121 C 0.86447 0.09506 -0.0012 0.0
C122 C 0.87443 0.05138 0.02269 0.0
C123 C 0.65753 0.93979 0.02666 0.0
C124 C 0.64374 0.97356 0.00175 0.0
H125 H 0.96357 0.06622 0.02772 0.0
H126 H 0.57683 0.87011 0.03656 0.0
H127 H 0.9791 0.83362 0.01655 0.0
H128 H 0.70945 0.67006 0.95849 0.0
H129 H 0.63923 1.00794 0.12789 0.0
H130 H 0.94699 0.14676 -0.01252 0.0
H131 H 0.55349 0.93083 -0.00698 0.0
C132 C 1.0164 0.68118 0.33208 0.0
C133 C 0.08615 0.73406 0.31006 0.0
N134 N 0.16242 0.85354 0.31504 0.0
N135 N 1.04773 0.76664 0.35095 0.0
C136 C 0.13945 0.87113 0.34 0.0
H137 H 0.94549 0.58608 0.33409 0.0
Co138 Co 0.96493 0.73137 0.38397 0.0
C139 C 1.02308 0.97416 0.40588 0.0
O140 O 0.90681 0.92702 0.412 0.0
N141 N 0.88521 0.69584 0.41664 0.0
C142 C 0.75539 0.64737 0.44999 0.0
C143 C 0.76694 0.65654 0.42331 0.0
C144 C 0.94299 0.70866 0.43959 0.0
N145 N 0.86617 0.67923 0.45984 0.0
O146 O 0.07957 0.69 0.39721 0.0
H147 H 0.69344 0.63729 0.4099 0.0
H148 H 1.04011 0.74126 0.44157 0.0
O149 O 1.06094 0.90733 0.39467 0.0
C150 C 1.02644 0.57248 0.39804 0.0
O151 O 0.90826 0.50698 0.39326 0.0
N152 N 0.844 0.75045 0.3688 0.0
C153 C 0.74533 0.72809 0.32045 0.0
C154 C 0.81089 0.84371 0.33212 0.0
C155 C 0.86453 0.85369 0.35601 0.0
C156 C 0.75917 0.63679 0.36 0.0
C157 C 0.71162 0.62299 0.33508 0.0
H158 H 0.93885 0.94283 0.36104 0.0
H159 H 0.74814 0.5561 0.36989 0.0
H160 H 0.18691 0.95841 0.34989 0.0
H161 H 0.08089 0.68875 0.29183 0.0
H162 H 0.67272 0.61852 0.46123 0.0
H163 H 0.84173 0.92623 0.3208 0.0
H164 H 0.66408 0.53273 0.32636 0.0
C165 C 0.37666 0.9957 0.66541 0.0
C166 C 0.39355 0.06547 0.64339 0.0
N167 N 0.35033 0.14172 0.64837 0.0
N168 N 0.32253 1.02703 0.68429 0.0
C169 C 0.30975 0.11874 0.67334 0.0
H170 H 0.40085 0.9248 0.66742 0.0
Co171 Co 0.27499 0.94422 0.7173 0.0
C172 C 0.09035 1.00235 0.73921 0.0
O173 O 1.0212 0.88607 0.74533 0.0
N174 N 0.23079 0.86449 0.74998 0.0
C175 C 0.14943 0.73467 0.78333 0.0
C176 C 0.15181 0.74622 0.75665 0.0
C177 C 0.27575 0.92228 0.77293 0.0
N178 N 0.22836 0.84546 0.79317 0.0
O179 O 0.43101 0.05886 0.73055 0.0
H180 H 0.09755 0.67272 0.74323 0.0
H181 H 0.34028 1.0194 0.77491 0.0
O182 O 0.19505 1.04022 0.72801 0.0
C183 C 0.49538 1.00572 0.73137 0.0
O184 O 0.44268 0.88754 0.72659 0.0
N185 N 0.13497 0.82328 0.70214 0.0
C186 C 1.05867 0.72461 0.65378 0.0
C187 C 1.0086 0.79017 0.66545 0.0
C188 C 1.05226 0.84381 0.68934 0.0
C189 C 0.16379 0.73845 0.69333 0.0
C190 C 0.13004 0.6909 0.66842 0.0
H191 H 1.03745 0.91813 0.69437 0.0
H192 H 0.23344 0.72742 0.70323 0.0
H193 H 0.26993 0.16618 0.68322 0.0
H194 H 0.4336 0.06021 0.62517 0.0
H195 H 0.09561 0.652 0.79456 0.0
H196 H 0.95694 0.82102 0.65413 0.0
H197 H 0.17275 0.64335 0.6597 0.0
C198 C 0.74784 0.68121 0.61394 0.0
C199 C 0.73093 0.73407 0.63596 0.0
N200 N 0.77399 0.85352 0.63097 0.0
N201 N 0.80185 0.76665 0.59506 0.0
C202 C 0.81453 0.87111 0.606 0.0
H203 H 0.72374 0.58614 0.61194 0.0
Co204 Co 0.84935 0.73138 0.56204 0.0
C205 C 1.03398 0.97418 0.54012 0.0
O206 O 0.10306 0.92701 0.53398 0.0
N207 N 0.89349 0.69583 0.52936 0.0
C208 C 0.97477 0.64731 0.49601 0.0
C209 C 0.97242 0.65649 0.52269 0.0
C210 C 0.84853 0.70867 0.50641 0.0
N211 N 0.89586 0.67919 0.48617 0.0
O212 O 0.69333 0.69002 0.5488 0.0
H213 H 1.02666 0.63723 0.5361 0.0
H214 H 0.78404 0.74131 0.50443 0.0
O215 O 0.9293 0.90733 0.55133 0.0
C216 C 0.62892 0.5725 0.54798 0.0
O217 O 0.68162 0.50703 0.55277 0.0
N218 N 0.98938 0.75045 0.57719 0.0
C219 C 0.06589 0.72817 0.62552 0.0
C220 C 0.11598 0.84378 0.61384 0.0
C221 C 0.0722 0.85372 0.58997 0.0
C222 C 0.96052 0.6368 0.58601 0.0
C223 C 0.99435 0.62304 0.61091 0.0
H224 H 0.08703 0.94286 0.58493 0.0
H225 H 0.89079 0.5561 0.57612 0.0
H226 H 0.85424 0.95836 0.59611 0.0
H227 H 0.69097 0.68878 0.65419 0.0
H228 H 1.02857 0.61844 0.48477 0.0
H229 H 0.16774 0.92631 0.62515 0.0
H230 H 0.9516 0.53281 0.61965 0.0
C231 C 0.10798 0.72706 0.94727 0.0
C232 C 1.0382 0.71016 0.96929 0.0
N233 N 0.96186 0.75326 0.9643 0.0
N234 N 0.07659 0.7811 0.92839 0.0
C235 C 0.98482 0.79381 0.93933 0.0
H236 H 0.17893 0.70294 0.94527 0.0
Co237 Co 0.15938 0.82861 0.89537 0.0
C238 C 0.10124 1.01326 0.87346 0.0
O239 O 0.21751 0.08235 0.86732 0.0
N240 N 0.23908 0.87277 0.86269 0.0
C241 C 0.36889 0.95408 0.82934 0.0
C242 C 0.35736 0.95172 0.85602 0.0
C243 C 0.18128 0.82781 0.83975 0.0
N244 N 0.2581 0.87515 0.8195 0.0
O245 O 1.04472 0.67259 0.88213 0.0
H246 H 0.43087 1.00598 0.86943 0.0
H247 H 0.08415 0.76331 0.83777 0.0
O248 O 0.06338 0.90856 0.88466 0.0
C249 C 0.09784 0.6082 0.88131 0.0
O250 O 0.21603 0.66092 0.8861 0.0
N251 N 0.28033 0.96864 0.91053 0.0
C252 C 0.37913 0.04512 0.95886 0.0
C253 C 0.31358 0.09518 0.94719 0.0
C254 C 0.25986 0.05142 0.92331 0.0
C255 C 0.36514 0.9398 0.91934 0.0
C256 C 0.41274 0.97362 0.94425 0.0
H257 H 0.18554 0.06623 0.91828 0.0
H258 H 0.37612 0.87009 0.90945 0.0
H259 H 0.93732 0.83356 0.92944 0.0
H260 H 1.04351 0.67018 -0.01248 0.0
H261 H 0.45156 1.00789 0.81811 0.0
H262 H 0.28279 0.14691 0.9585 0.0
H263 H 0.46024 0.93088 0.95298 0.0
C264 C 0.42238 0.08733 0.28061 0.0
C265 C 0.36951 1.01756 0.30263 0.0
N266 N 0.25006 0.94118 0.29764 0.0
N267 N 0.33694 0.0559 0.26172 0.0
C268 C 0.23247 0.96412 0.27267 0.0
H269 H 0.51745 0.1583 0.27861 0.0
Co270 Co 0.37222 0.13867 0.2287 0.0
C271 C 0.12942 0.08051 0.20679 0.0
O272 O 0.1766 0.19678 0.20065 0.0
N273 N 0.40777 0.21837 0.19603 0.0
C274 C 0.45628 0.34818 0.16267 0.0
C275 C 0.44711 0.33664 0.18935 0.0
C276 C 0.39493 0.16057 0.17308 0.0
N277 N 0.42441 0.23739 0.15283 0.0
O278 O 0.41357 1.02401 0.21547 0.0
H279 H 0.46637 0.41016 0.20277 0.0
H280 H 0.36228 0.06344 0.1711 0.0
O281 O 0.19625 0.04267 0.218 0.0
C282 C 0.53109 0.07712 0.21465 0.0
O283 O 0.59657 0.1953 0.21943 0.0
N284 N 0.35316 0.25964 0.24386 0.0
C285 C 0.37546 0.35846 0.29219 0.0
C286 C 0.25985 0.29293 0.28051 0.0
C287 C 0.2499 0.23919 0.25664 0.0
C288 C 0.46681 0.34444 0.25267 0.0
C289 C 0.48059 0.39204 0.27758 0.0
H290 H 0.16075 0.16488 0.2516 0.0
H291 H 0.54751 0.3554 0.24279 0.0
H292 H 0.14522 0.91659 0.26278 0.0
H293 H 0.4148 1.02289 0.32086 0.0
H294 H 0.48515 0.43084 0.15144 0.0
H295 H 0.17732 0.26217 0.29182 0.0
H296 H 0.57082 0.43952 0.28632 0.0
C297 C 0.37647 0.40165 0.61394 0.0
C298 C 0.39338 0.34879 0.63596 0.0
N299 N 0.35032 0.22935 0.63097 0.0
N300 N 0.32246 0.31622 0.59506 0.0
C301 C 0.30978 0.21176 0.606 0.0
H302 H 0.40057 0.49672 0.61194 0.0
Co303 Co 0.27497 0.35149 0.56204 0.0
C304 C 0.09036 0.1087 0.54012 0.0
O305 O 1.02124 0.15584 0.53398 0.0
N306 N 0.23083 0.38704 0.52936 0.0
C307 C 0.14954 0.43555 0.496 0.0
C308 C 0.1519 0.42637 0.52269 0.0
C309 C 0.2758 0.3742 0.50641 0.0
N310 N 0.22846 0.40368 0.48617 0.0
O311 O 0.43099 0.39286 0.5488 0.0
H312 H 0.09765 0.44563 0.5361 0.0
H313 H 0.34029 0.34156 0.50443 0.0
O314 O 0.19502 0.17554 0.55133 0.0
C315 C 0.49539 0.51037 0.54798 0.0
O316 O 0.4427 0.57587 0.55276 0.0
N317 N 0.13494 0.33241 0.57719 0.0
C318 C 1.0584 0.35468 0.62552 0.0
C319 C 1.00832 0.23908 0.61384 0.0
C320 C 1.05212 0.22915 0.58997 0.0
C321 C 0.16379 0.44606 0.58601 0.0
C322 C 0.12995 0.45982 0.61091 0.0
H323 H 1.03728 0.14001 0.58493 0.0
H324 H 0.23353 0.52676 0.57612 0.0
H325 H 0.27008 0.12451 0.59611 0.0
H326 H 0.43333 0.39408 0.65419 0.0
H327 H 0.09574 0.46441 0.48477 0.0
H328 H 0.95655 0.15654 0.62515 0.0
H329 H 0.1727 0.55005 0.61965 0.0
C330 C 1.01634 0.35581 0.94727 0.0
C331 C 0.08611 0.3727 0.96929 0.0
N332 N 0.16246 0.32961 0.9643 0.0
N333 N 1.04773 0.30177 0.92839 0.0
C334 C 0.13949 0.28906 0.93933 0.0
H335 H 0.94538 0.37992 0.94527 0.0
Co336 Co 0.96494 0.25426 0.89537 0.0
C337 C 1.02309 0.06963 0.87345 0.0
O338 O 0.90682 1.00051 0.86732 0.0
N339 N 0.88524 0.21009 0.86269 0.0
C340 C 0.75543 0.12878 0.82934 0.0
C341 C 0.76696 0.13114 0.85602 0.0
C342 C 0.94304 0.25506 0.83975 0.0
N343 N 0.86622 0.20771 0.8195 0.0
O344 O 0.07959 0.41029 0.88213 0.0
H345 H 0.69345 0.07688 0.86943 0.0
H346 H 1.04017 0.31957 0.83777 0.0
O347 O 1.06095 0.17432 0.88466 0.0
C348 C 1.02645 0.47466 0.88131 0.0
O349 O 0.90826 0.42195 0.88609 0.0
N350 N 0.84399 0.11422 0.91053 0.0
C351 C 0.74522 1.03775 0.95886 0.0
C352 C 0.81077 0.98769 0.94719 0.0
C353 C 0.86448 1.03145 0.92331 0.0
C354 C 0.75918 0.14305 0.91934 0.0
C355 C 0.71159 0.10924 0.94425 0.0
H356 H 0.9388 1.01664 0.91828 0.0
H357 H 0.74819 0.21276 0.90945 0.0
H358 H 0.187 0.24932 0.92944 0.0
H359 H 0.0808 0.41268 -0.01248 0.0
H360 H 0.67276 0.07497 0.8181 0.0
H361 H 0.84158 0.93597 0.9585 0.0
H362 H 0.66409 0.15197 0.95298 0.0
C363 C 0.70194 0.99554 0.28061 0.0
C364 C 0.75481 0.0653 0.30263 0.0
N365 N 0.87426 0.14169 0.29764 0.0
N366 N 0.78737 1.02696 0.26172 0.0
C367 C 0.89185 0.11874 0.27267 0.0
H368 H 0.60686 0.92456 0.27861 0.0
Co369 Co 0.7521 0.94419 0.2287 0.0
C370 C 0.99488 1.00236 0.20678 0.0
O371 O 0.94773 0.8861 0.20065 0.0
N372 N 0.71654 0.86449 0.19603 0.0
C373 C 0.66804 0.73469 0.16267 0.0
C374 C 0.67721 0.74622 0.18935 0.0
C375 C 0.72938 0.92229 0.17308 0.0
N376 N 0.69991 0.84548 0.15283 0.0
O377 O 0.71073 0.05884 0.21547 0.0
H378 H 0.65795 0.67271 0.20276 0.0
H379 H 0.76202 1.01943 0.1711 0.0
O380 O 0.92806 1.0402 0.218 0.0
C381 C 0.59321 1.00571 0.21465 0.0
O382 O 0.52771 0.88753 0.21943 0.0
N383 N 0.77117 0.82324 0.24386 0.0
C384 C 0.74889 0.72444 0.29219 0.0
C385 C 0.8645 0.78997 0.28051 0.0
C386 C 0.87444 0.84369 0.25663 0.0
C387 C 0.65752 0.73843 0.25267 0.0
C388 C 0.64376 0.69084 0.27758 0.0
H389 H 0.96358 0.91801 0.2516 0.0
H390 H 0.57682 0.72747 0.24279 0.0
H391 H 0.9791 0.16628 0.26278 0.0
H392 H 0.70952 0.05997 0.32086 0.0
H393 H 0.63917 0.65202 0.15144 0.0
H394 H 0.94703 0.82074 0.29182 0.0
H395 H 0.55352 0.64336 0.28632 0.0
loop_
_geom_bond_atom_site_label_1
_geom_bond_atom_site_label_2
_geom_bond_distance
_geom_bond_site_symmetry_2
_ccdc_geom_bond_type
C0 C1 1.351 1_554 S
C0 N3 1.368 . S
C0 H5 0.931 . S
C1 C0 1.351 1_556 S
C1 N2 1.373 . S
C1 H29 0.930 . S
N2 C1 1.373 . S
N2 C4 1.340 1_556 S
N3 C0 1.368 . S
N3 C4 1.321 . S
N3 Co6 2.135 . S
C4 N2 1.340 1_554 S
C4 N3 1.321 . S
C4 H28 0.930 . S
H5 C0 0.931 . S
Co6 N3 2.135 . S
Co6 N9 2.121 . S
Co6 O14 2.055 . S
Co6 O17 2.039 . S
Co6 N20 2.140 . S
C7 O8 1.227 . S
C7 O17 1.265 . S
O8 C7 1.227 . S
N9 Co6 2.121 . S
N9 C11 1.375 . S
N9 C12 1.313 . S
C10 C11 1.338 . S
C10 N13 1.377 . S
C10 H30 0.930 1_545 S
C11 N9 1.375 . S
C11 C10 1.338 . S
C11 H15 0.931 1_545 S
C12 N9 1.313 . S
C12 N13 1.344 . S
C12 H16 0.930 . S
N13 C10 1.377 . S
N13 C12 1.344 . S
O14 Co6 2.055 . S
O14 C18 1.253 . S
H15 C11 0.931 1_565 S
H16 C12 0.930 . S
O17 Co6 2.039 . S
O17 C7 1.265 . S
C18 O14 1.253 . S
C18 O19 1.227 . S
O19 C18 1.227 . S
N20 Co6 2.140 . S
N20 C23 1.346 . S
N20 C24 1.345 . S
C21 C22 1.387 . S
C21 C25 1.391 1_565 S
C22 C21 1.387 . S
C22 C23 1.369 1_565 S
C22 H31 0.904 1_554 S
C23 N20 1.346 . S
C23 C22 1.369 1_545 S
C23 H26 0.928 . S
C24 N20 1.345 . S
C24 C25 1.371 . S
C24 H27 0.931 . S
C25 C21 1.391 1_545 S
C25 C24 1.371 . S
C25 H32 0.930 . S
H26 C23 0.928 . S
H27 C24 0.931 . S
H28 C4 0.930 . S
H29 C1 0.930 . S
H30 C10 0.930 1_565 S
H31 C22 0.904 1_556 S
H32 C25 0.930 . S
C33 C34 1.351 . S
C33 N36 1.368 . S
C33 H38 0.931 1_655 S
C34 C33 1.351 . S
C34 N35 1.373 . S
C34 H62 0.930 . S
N35 C34 1.373 . S
N35 C37 1.340 . S
N36 C33 1.368 . S
N36 C37 1.321 . S
N36 Co39 2.135 1_655 S
C37 N35 1.340 . S
C37 N36 1.321 . S
C37 H61 0.930 . S
H38 C33 0.931 1_455 S
Co39 N36 2.135 1_455 S
Co39 N42 2.121 . S
Co39 O47 2.055 1_455 S
Co39 O50 2.039 1_455 S
Co39 N53 2.140 . S
C40 O41 1.227 . S
C40 O50 1.265 1_455 S
O41 C40 1.227 . S
N42 Co39 2.121 . S
N42 C44 1.375 . S
N42 C45 1.313 . S
C43 C44 1.338 . S
C43 N46 1.377 . S
C43 H63 0.930 . S
C44 N42 1.375 . S
C44 C43 1.338 . S
C44 H48 0.931 . S
C45 N42 1.313 . S
C45 N46 1.344 . S
C45 H49 0.930 . S
N46 C43 1.377 . S
N46 C45 1.344 . S
O47 Co39 2.055 1_655 S
O47 C51 1.253 1_655 S
H48 C44 0.931 . S
H49 C45 0.930 . S
O50 Co39 2.039 1_655 S
O50 C40 1.265 1_655 S
C51 O47 1.253 1_455 S
C51 O52 1.227 . S
O52 C51 1.227 . S
N53 Co39 2.140 . S
N53 C56 1.346 . S
N53 C57 1.345 . S
C54 C55 1.387 . S
C54 C58 1.391 . S
C55 C54 1.387 . S
C55 C56 1.369 . S
C55 H64 0.929 . S
C56 N53 1.346 . S
C56 C55 1.369 . S
C56 H59 0.928 . S
C57 N53 1.345 . S
C57 C58 1.371 . S
C57 H60 0.931 . S
C58 C54 1.391 . S
C58 C57 1.371 . S
C58 H65 0.930 . S
H59 C56 0.928 . S
H60 C57 0.931 . S
H61 C37 0.930 . S
H62 C34 0.930 . S
H63 C43 0.930 . S
H64 C55 0.929 . S
H65 C58 0.930 . S
C66 C67 1.351 . S
C66 N69 1.368 . S
C66 H71 0.931 1_565 S
C67 C66 1.351 . S
C67 N68 1.373 . S
C67 H95 0.930 . S
N68 C67 1.373 . S
N68 C70 1.340 . S
N69 C66 1.368 . S
N69 C70 1.321 . S
N69 Co72 2.135 1_565 S
C70 N68 1.340 . S
C70 N69 1.321 . S
C70 H94 0.930 . S
H71 C66 0.931 1_545 S
Co72 N69 2.135 1_545 S
Co72 N75 2.121 . S
Co72 O80 2.055 1_545 S
Co72 O83 2.039 1_545 S
Co72 N86 2.140 . S
C73 O74 1.227 . S
C73 O83 1.265 1_545 S
O74 C73 1.227 . S
N75 Co72 2.121 . S
N75 C77 1.375 . S
N75 C78 1.313 . S
C76 C77 1.338 . S
C76 N79 1.377 . S
C76 H96 0.930 1_655 S
C77 N75 1.375 . S
C77 C76 1.338 . S
C77 H81 0.931 1_655 S
C78 N75 1.313 . S
C78 N79 1.344 . S
C78 H82 0.930 . S
N79 C76 1.377 . S
N79 C78 1.344 . S
O80 Co72 2.055 1_565 S
O80 C84 1.253 1_565 S
H81 C77 0.931 1_455 S
H82 C78 0.930 . S
O83 Co72 2.039 1_565 S
O83 C73 1.265 1_565 S
C84 O80 1.253 1_545 S
C84 O85 1.227 . S
O85 C84 1.227 . S
N86 Co72 2.140 . S
N86 C89 1.346 . S
N86 C90 1.345 . S
C87 C88 1.387 . S
C87 C91 1.391 1_455 S
C88 C87 1.387 . S
C88 C89 1.369 1_455 S
C88 H97 0.929 . S
C89 N86 1.346 . S
C89 C88 1.369 1_655 S
C89 H92 0.928 . S
C90 N86 1.345 . S
C90 C91 1.371 . S
C90 H93 0.931 . S
C91 C87 1.391 1_655 S
C91 C90 1.371 . S
C91 H98 0.930 . S
H92 C89 0.928 . S
H93 C90 0.931 . S
H94 C70 0.930 . S
H95 C67 0.930 . S
H96 C76 0.930 1_455 S
H97 C88 0.929 . S
H98 C91 0.930 . S
C99 C100 1.351 1_554 S
C99 N102 1.368 . S
C99 H104 0.931 . S
C100 C99 1.351 1_556 S
C100 N101 1.373 . S
C100 H128 0.930 . S
N101 C100 1.373 . S
N101 C103 1.340 1_556 S
N102 C99 1.368 . S
N102 C103 1.321 . S
N102 Co105 2.135 . S
C103 N101 1.340 1_554 S
C103 N102 1.321 . S
C103 H127 0.930 . S
H104 C99 0.931 . S
Co105 N102 2.135 . S
Co105 N108 2.121 . S
Co105 O113 2.055 . S
Co105 O116 2.039 . S
Co105 N119 2.140 . S
C106 O107 1.227 . S
C106 O116 1.265 . S
O107 C106 1.227 . S
N108 Co105 2.121 . S
N108 C110 1.375 . S
N108 C111 1.313 . S
C109 C110 1.338 . S
C109 N112 1.377 . S
C109 H129 0.930 1_565 S
C110 N108 1.375 . S
C110 C109 1.338 . S
C110 H114 0.931 1_565 S
C111 N108 1.313 . S
C111 N112 1.344 . S
C111 H115 0.930 . S
N112 C109 1.377 . S
N112 C111 1.344 . S
O113 Co105 2.055 . S
O113 C117 1.253 . S
H114 C110 0.931 1_545 S
H115 C111 0.930 . S
O116 Co105 2.039 . S
O116 C106 1.265 . S
C117 O113 1.253 . S
C117 O118 1.227 . S
O118 C117 1.227 . S
N119 Co105 2.140 . S
N119 C122 1.346 . S
N119 C123 1.345 . S
C120 C121 1.387 . S
C120 C124 1.391 1_545 S
C121 C120 1.387 . S
C121 C122 1.369 1_545 S
C121 H130 0.904 1_554 S
C122 N119 1.346 . S
C122 C121 1.369 1_565 S
C122 H125 0.928 . S
C123 N119 1.345 . S
C123 C124 1.371 . S
C123 H126 0.931 . S
C124 C120 1.391 1_565 S
C124 C123 1.371 . S
C124 H131 0.930 . S
H125 C122 0.928 . S
H126 C123 0.931 . S
H127 C103 0.930 . S
H128 C100 0.930 . S
H129 C109 0.930 1_545 S
H130 C121 0.904 1_556 S
H131 C124 0.930 . S
C132 C133 1.351 . S
C132 N135 1.368 . S
C132 H137 0.931 1_455 S
C133 C132 1.351 . S
C133 N134 1.373 . S
C133 H161 0.930 . S
N134 C133 1.373 . S
N134 C136 1.340 . S
N135 C132 1.368 . S
N135 C136 1.321 . S
N135 Co138 2.135 1_455 S
C136 N134 1.340 . S
C136 N135 1.321 . S
C136 H160 0.930 . S
H137 C132 0.931 1_655 S
Co138 N135 2.135 1_655 S
Co138 N141 2.121 . S
Co138 O146 2.055 1_655 S
Co138 O149 2.039 1_655 S
Co138 N152 2.140 . S
C139 O140 1.227 . S
C139 O149 1.265 1_655 S
O140 C139 1.227 . S
N141 Co138 2.121 . S
N141 C143 1.375 . S
N141 C144 1.313 . S
C142 C143 1.338 . S
C142 N145 1.377 . S
C142 H162 0.930 . S
C143 N141 1.375 . S
C143 C142 1.338 . S
C143 H147 0.931 . S
C144 N141 1.313 . S
C144 N145 1.344 . S
C144 H148 0.930 . S
N145 C142 1.377 . S
N145 C144 1.344 . S
O146 Co138 2.055 1_455 S
O146 C150 1.253 1_455 S
H147 C143 0.931 . S
H148 C144 0.930 . S
O149 Co138 2.039 1_455 S
O149 C139 1.265 1_455 S
C150 O146 1.253 1_655 S
C150 O151 1.227 . S
O151 C150 1.227 . S
N152 Co138 2.140 . S
N152 C155 1.346 . S
N152 C156 1.345 . S
C153 C154 1.387 . S
C153 C157 1.391 . S
C154 C153 1.387 . S
C154 C155 1.369 . S
C154 H163 0.929 . S
C155 N152 1.346 . S
C155 C154 1.369 . S
C155 H158 0.928 . S
C156 N152 1.345 . S
C156 C157 1.371 . S
C156 H159 0.931 . S
C157 C153 1.391 . S
C157 C156 1.371 . S
C157 H164 0.930 . S
H158 C155 0.928 . S
H159 C156 0.931 . S
H160 C136 0.930 . S
H161 C133 0.930 . S
H162 C142 0.930 . S
H163 C154 0.929 . S
H164 C157 0.930 . S
C165 C166 1.351 . S
C165 N168 1.368 . S
C165 H170 0.931 1_545 S
C166 C165 1.351 . S
C166 N167 1.373 . S
C166 H194 0.930 . S
N167 C166 1.373 . S
N167 C169 1.340 . S
N168 C165 1.368 . S
N168 C169 1.321 . S
N168 Co171 2.135 1_545 S
C169 N167 1.340 . S
C169 N168 1.321 . S
C169 H193 0.930 . S
H170 C165 0.931 1_565 S
Co171 N168 2.135 1_565 S
Co171 N174 2.121 . S
Co171 O179 2.055 1_565 S
Co171 O182 2.039 1_565 S
Co171 N185 2.140 . S
C172 O173 1.227 . S
C172 O182 1.265 1_565 S
O173 C172 1.227 . S
N174 Co171 2.121 . S
N174 C176 1.375 . S
N174 C177 1.313 . S
C175 C176 1.338 . S
C175 N178 1.377 . S
C175 H195 0.930 1_455 S
C176 N174 1.375 . S
C176 C175 1.338 . S
C176 H180 0.931 1_455 S
C177 N174 1.313 . S
C177 N178 1.344 . S
C177 H181 0.930 . S
N178 C175 1.377 . S
N178 C177 1.344 . S
O179 Co171 2.055 1_545 S
O179 C183 1.253 1_545 S
H180 C176 0.931 1_655 S
H181 C177 0.930 . S
O182 Co171 2.039 1_545 S
O182 C172 1.265 1_545 S
C183 O179 1.253 1_565 S
C183 O184 1.227 . S
O184 C183 1.227 . S
N185 Co171 2.140 . S
N185 C188 1.346 . S
N185 C189 1.345 . S
C186 C187 1.387 . S
C186 C190 1.391 1_655 S
C187 C186 1.387 . S
C187 C188 1.369 1_655 S
C187 H196 0.929 . S
C188 N185 1.346 . S
C188 C187 1.369 1_455 S
C188 H191 0.928 . S
C189 N185 1.345 . S
C189 C190 1.371 . S
C189 H192 0.931 . S
C190 C186 1.391 1_455 S
C190 C189 1.371 . S
C190 H197 0.930 . S
H191 C188 0.928 . S
H192 C189 0.931 . S
H193 C169 0.930 . S
H194 C166 0.930 . S
H195 C175 0.930 1_655 S
H196 C187 0.929 . S
H197 C190 0.930 . S
C198 C199 1.351 . S
C198 N201 1.368 . S
C198 H203 0.931 . S
C199 C198 1.351 . S
C199 N200 1.373 . S
C199 H227 0.930 . S
N200 C199 1.373 . S
N200 C202 1.340 . S
N201 C198 1.368 . S
N201 C202 1.321 . S
N201 Co204 2.135 . S
C202 N200 1.340 . S
C202 N201 1.321 . S
C202 H226 0.930 . S
H203 C198 0.931 . S
Co204 N201 2.135 . S
Co204 N207 2.121 . S
Co204 O212 2.055 . S
Co204 O215 2.039 . S
Co204 N218 2.140 . S
C205 O206 1.227 . S
C205 O215 1.265 . S
O206 C205 1.227 . S
N207 Co204 2.121 . S
N207 C209 1.375 . S
N207 C210 1.313 . S
C208 C209 1.338 . S
C208 N211 1.377 . S
C208 H228 0.930 1_655 S
C209 N207 1.375 . S
C209 C208 1.338 . S
C209 H213 0.931 1_655 S
C210 N207 1.313 . S
C210 N211 1.344 . S
C210 H214 0.930 . S
N211 C208 1.377 . S
N211 C210 1.344 . S
O212 Co204 2.055 . S
O212 C216 1.253 . S
H213 C209 0.931 1_455 S
H214 C210 0.930 . S
O215 Co204 2.039 . S
O215 C205 1.265 . S
C216 O212 1.253 . S
C216 O217 1.227 . S
O217 C216 1.227 . S
N218 Co204 2.140 . S
N218 C221 1.346 . S
N218 C222 1.345 . S
C219 C220 1.387 . S
C219 C223 1.391 1_455 S
C220 C219 1.387 . S
C220 C221 1.369 1_455 S
C220 H229 0.929 . S
C221 N218 1.346 . S
C221 C220 1.369 1_655 S
C221 H224 0.928 . S
C222 N218 1.345 . S
C222 C223 1.371 . S
C222 H225 0.931 . S
C223 C219 1.391 1_655 S
C223 C222 1.371 . S
C223 H230 0.930 . S
H224 C221 0.928 . S
H225 C222 0.931 . S
H226 C202 0.930 . S
H227 C199 0.930 . S
H228 C208 0.930 1_455 S
H229 C220 0.929 . S
H230 C223 0.930 . S
C231 C232 1.351 1_556 S
C231 N234 1.368 . S
C231 H236 0.931 1_655 S
C232 C231 1.351 1_554 S
C232 N233 1.373 . S
C232 H260 0.930 . S
N233 C232 1.373 . S
N233 C235 1.340 1_554 S
N234 C231 1.368 . S
N234 C235 1.321 . S
N234 Co237 2.135 1_655 S
C235 N233 1.340 1_556 S
C235 N234 1.321 . S
C235 H259 0.930 . S
H236 C231 0.931 1_455 S
Co237 N234 2.135 1_455 S
Co237 N240 2.121 . S
Co237 O245 2.055 1_455 S
Co237 O248 2.039 1_455 S
Co237 N251 2.140 . S
C238 O239 1.227 . S
C238 O248 1.265 1_455 S
O239 C238 1.227 . S
N240 Co237 2.121 . S
N240 C242 1.375 . S
N240 C243 1.313 . S
C241 C242 1.338 . S
C241 N244 1.377 . S
C241 H261 0.930 1_565 S
C242 N240 1.375 . S
C242 C241 1.338 . S
C242 H246 0.931 1_565 S
C243 N240 1.313 . S
C243 N244 1.344 . S
C243 H247 0.930 . S
N244 C241 1.377 . S
N244 C243 1.344 . S
O245 Co237 2.055 1_655 S
O245 C249 1.253 1_655 S
H246 C242 0.931 1_545 S
H247 C243 0.930 . S
O248 Co237 2.039 1_655 S
O248 C238 1.265 1_655 S
C249 O245 1.253 1_455 S
C249 O250 1.227 . S
O250 C249 1.227 . S
N251 Co237 2.140 . S
N251 C254 1.346 . S
N251 C255 1.345 . S
C252 C253 1.387 . S
C252 C256 1.391 1_545 S
C253 C252 1.387 . S
C253 C254 1.369 1_545 S
C253 H262 0.904 1_556 S
C254 N251 1.346 . S
C254 C253 1.369 1_565 S
C254 H257 0.928 . S
C255 N251 1.345 . S
C255 C256 1.371 . S
C255 H258 0.931 . S
C256 C252 1.391 1_565 S
C256 C255 1.371 . S
C256 H263 0.930 . S
H257 C254 0.928 . S
H258 C255 0.931 . S
H259 C235 0.930 . S
H260 C232 0.930 . S
H261 C241 0.930 1_545 S
H262 C253 0.904 1_554 S
H263 C256 0.930 . S
C264 C265 1.351 . S
C264 N267 1.368 . S
C264 H269 0.931 1_565 S
C265 C264 1.351 . S
C265 N266 1.373 . S
C265 H293 0.930 . S
N266 C265 1.373 . S
N266 C268 1.340 . S
N267 C264 1.368 . S
N267 C268 1.321 . S
N267 Co270 2.135 1_565 S
C268 N266 1.340 . S
C268 N267 1.321 . S
C268 H292 0.930 . S
H269 C264 0.931 1_545 S
Co270 N267 2.135 1_545 S
Co270 N273 2.121 . S
Co270 O278 2.055 1_545 S
Co270 O281 2.039 1_545 S
Co270 N284 2.140 . S
C271 O272 1.227 . S
C271 O281 1.265 1_545 S
O272 C271 1.227 . S
N273 Co270 2.121 . S
N273 C275 1.375 . S
N273 C276 1.313 . S
C274 C275 1.338 . S
C274 N277 1.377 . S
C274 H294 0.930 . S
C275 N273 1.375 . S
C275 C274 1.338 . S
C275 H279 0.931 . S
C276 N273 1.313 . S
C276 N277 1.344 . S
C276 H280 0.930 . S
N277 C274 1.377 . S
N277 C276 1.344 . S
O278 Co270 2.055 1_565 S
O278 C282 1.253 1_565 S
H279 C275 0.931 . S
H280 C276 0.930 . S
O281 Co270 2.039 1_565 S
O281 C271 1.265 1_565 S
C282 O278 1.253 1_545 S
C282 O283 1.227 . S
O283 C282 1.227 . S
N284 Co270 2.140 . S
N284 C287 1.346 . S
N284 C288 1.345 . S
C285 C286 1.387 . S
C285 C289 1.391 . S
C286 C285 1.387 . S
C286 C287 1.369 . S
C286 H295 0.929 . S
C287 N284 1.346 . S
C287 C286 1.369 . S
C287 H290 0.928 . S
C288 N284 1.345 . S
C288 C289 1.371 . S
C288 H291 0.931 . S
C289 C285 1.391 . S
C289 C288 1.371 . S
C289 H296 0.930 . S
H290 C287 0.928 . S
H291 C288 0.931 . S
H292 C268 0.930 . S
H293 C265 0.930 . S
H294 C274 0.930 . S
H295 C286 0.929 . S
H296 C289 0.930 . S
C297 C298 1.351 . S
C297 N300 1.368 . S
C297 H302 0.931 . S
C298 C297 1.351 . S
C298 N299 1.373 . S
C298 H326 0.930 . S
N299 C298 1.373 . S
N299 C301 1.340 . S
N300 C297 1.368 . S
N300 C301 1.321 . S
N300 Co303 2.135 . S
C301 N299 1.340 . S
C301 N300 1.321 . S
C301 H325 0.930 . S
H302 C297 0.931 . S
Co303 N300 2.135 . S
Co303 N306 2.121 . S
Co303 O311 2.055 . S
Co303 O314 2.039 . S
Co303 N317 2.140 . S
C304 O305 1.227 . S
C304 O314 1.265 . S
O305 C304 1.227 . S
N306 Co303 2.121 . S
N306 C308 1.375 . S
N306 C309 1.313 . S
C307 C308 1.338 . S
C307 N310 1.377 . S
C307 H327 0.930 1_455 S
C308 N306 1.375 . S
C308 C307 1.338 . S
C308 H312 0.931 1_455 S
C309 N306 1.313 . S
C309 N310 1.344 . S
C309 H313 0.930 . S
N310 C307 1.377 . S
N310 C309 1.344 . S
O311 Co303 2.055 . S
O311 C315 1.253 . S
H312 C308 0.931 1_655 S
H313 C309 0.930 . S
O314 Co303 2.039 . S
O314 C304 1.265 . S
C315 O311 1.253 . S
C315 O316 1.227 . S
O316 C315 1.227 . S
N317 Co303 2.140 . S
N317 C320 1.346 . S
N317 C321 1.345 . S
C318 C319 1.387 . S
C318 C322 1.391 1_655 S
C319 C318 1.387 . S
C319 C320 1.369 1_655 S
C319 H328 0.929 . S
C320 N317 1.346 . S
C320 C319 1.369 1_455 S
C320 H323 0.928 . S
C321 N317 1.345 . S
C321 C322 1.371 . S
C321 H324 0.931 . S
C322 C318 1.391 1_455 S
C322 C321 1.371 . S
C322 H329 0.930 . S
H323 C320 0.928 . S
H324 C321 0.931 . S
H325 C301 0.930 . S
H326 C298 0.930 . S
H327 C307 0.930 1_655 S
H328 C319 0.929 . S
H329 C322 0.930 . S
C330 C331 1.351 1_556 S
C330 N333 1.368 . S
C330 H335 0.931 1_455 S
C331 C330 1.351 1_554 S
C331 N332 1.373 . S
C331 H359 0.930 . S
N332 C331 1.373 . S
N332 C334 1.340 1_554 S
N333 C330 1.368 . S
N333 C334 1.321 . S
N333 Co336 2.135 1_455 S
C334 N332 1.340 1_556 S
C334 N333 1.321 . S
C334 H358 0.930 . S
H335 C330 0.931 1_655 S
Co336 N333 2.135 1_655 S
Co336 N339 2.121 . S
Co336 O344 2.055 1_655 S
Co336 O347 2.039 1_655 S
Co336 N350 2.140 . S
C337 O338 1.227 . S
C337 O347 1.265 1_655 S
O338 C337 1.227 . S
N339 Co336 2.121 . S
N339 C341 1.375 . S
N339 C342 1.313 . S
C340 C341 1.338 . S
C340 N343 1.377 . S
C340 H360 0.930 1_545 S
C341 N339 1.375 . S
C341 C340 1.338 . S
C341 H345 0.931 1_545 S
C342 N339 1.313 . S
C342 N343 1.344 . S
C342 H346 0.930 . S
N343 C340 1.377 . S
N343 C342 1.344 . S
O344 Co336 2.055 1_455 S
O344 C348 1.253 1_455 S
H345 C341 0.931 1_565 S
H346 C342 0.930 . S
O347 Co336 2.039 1_455 S
O347 C337 1.265 1_455 S
C348 O344 1.253 1_655 S
C348 O349 1.227 . S
O349 C348 1.227 . S
N350 Co336 2.140 . S
N350 C353 1.346 . S
N350 C354 1.345 . S
C351 C352 1.387 . S
C351 C355 1.391 1_565 S
C352 C351 1.387 . S
C352 C353 1.369 1_565 S
C352 H361 0.904 1_556 S
C353 N350 1.346 . S
C353 C352 1.369 1_545 S
C353 H356 0.928 . S
C354 N350 1.345 . S
C354 C355 1.371 . S
C354 H357 0.931 . S
C355 C351 1.391 1_545 S
C355 C354 1.371 . S
C355 H362 0.930 . S
H356 C353 0.928 . S
H357 C354 0.931 . S
H358 C334 0.930 . S
H359 C331 0.930 . S
H360 C340 0.930 1_565 S
H361 C352 0.904 1_554 S
H362 C355 0.930 . S
C363 C364 1.351 . S
C363 N366 1.368 . S
C363 H368 0.931 1_545 S
C364 C363 1.351 . S
C364 N365 1.373 . S
C364 H392 0.930 . S
N365 C364 1.373 . S
N365 C367 1.340 . S
N366 C363 1.368 . S
N366 C367 1.321 . S
N366 Co369 2.135 1_545 S
C367 N365 1.340 . S
C367 N366 1.321 . S
C367 H391 0.930 . S
H368 C363 0.931 1_565 S
Co369 N366 2.135 1_565 S
Co369 N372 2.121 . S
Co369 O377 2.055 1_565 S
Co369 O380 2.039 1_565 S
Co369 N383 2.140 . S
C370 O371 1.227 . S
C370 O380 1.265 1_565 S
O371 C370 1.227 . S
N372 Co369 2.121 . S
N372 C374 1.375 . S
N372 C375 1.313 . S
C373 C374 1.338 . S
C373 N376 1.377 . S
C373 H393 0.930 . S
C374 N372 1.375 . S
C374 C373 1.338 . S
C374 H378 0.931 . S
C375 N372 1.313 . S
C375 N376 1.344 . S
C375 H379 0.930 . S
N376 C373 1.377 . S
N376 C375 1.344 . S
O377 Co369 2.055 1_545 S
O377 C381 1.253 1_545 S
H378 C374 0.931 . S
H379 C375 0.930 . S
O380 Co369 2.039 1_545 S
O380 C370 1.265 1_545 S
C381 O377 1.253 1_565 S
C381 O382 1.227 . S
O382 C381 1.227 . S
N383 Co369 2.140 . S
N383 C386 1.346 . S
N383 C387 1.345 . S
C384 C385 1.387 . S
C384 C388 1.391 . S
C385 C384 1.387 . S
C385 C386 1.369 . S
C385 H394 0.929 . S
C386 N383 1.346 . S
C386 C385 1.369 . S
C386 H389 0.928 . S
C387 N383 1.345 . S
C387 C388 1.371 . S
C387 H390 0.931 . S
C388 C384 1.391 . S
C388 C387 1.371 . S
C388 H395 0.930 . S
H389 C386 0.928 . S
H390 C387 0.931 . S
H391 C367 0.930 . S
H392 C364 0.930 . S
H393 C373 0.930 . S
H394 C385 0.929 . S
H395 C388 0.930 . S
C117 C18 1.654 . S
C51 C150 1.655 1_455 S
C84 C183 1.654 1_545 S
C216 C315 1.654 . S
C348 C249 1.654 1_655 S
C381 C282 1.655 1_565 S
C252 C21 1.951 1_546 S
C54 C285 1.951 . S
C318 C87 1.951 1_655 S
C120 C351 1.951 1_544 S
C384 C153 1.951 . S
C186 C219 1.951 1_655 S
C7 C106 1.785 1_445 S
C40 C139 1.785 1_445 S
C73 C172 1.785 1_645 S
C205 C304 1.785 1_665 S
C238 C337 1.785 1_465 S
C271 C370 1.785 1_445 S
N332 N2 0.838 1_554 S
N35 N365 0.839 . S
N200 N68 0.838 . S
N101 N233 0.838 1_556 S
N266 N134 0.839 . S
N167 N299 0.838 . S
N13 N277 2.537 . S
N46 N310 2.537 . S
N343 N79 2.537 . S
N376 N112 2.537 . S
N145 N211 2.537 . S
N178 N244 2.537 . S
