# Generated by pormake.
# Topology bcg, (8)-cn, num edge types: 1
# Building blocks:
#     Node 0, Type 0, BuildingBlock: HISSIN_clean_sbu_1, # of connection points: 8
#     Node 1, Type 0, BuildingBlock: HISSIN_clean_sbu_1, # of connection points: 8
#     Node 2, Type 0, BuildingBlock: HISSIN_clean_sbu_1, # of connection points: 8
#     Node 3, Type 0, BuildingBlock: HISSIN_clean_sbu_1, # of connection points: 8
#     Edge 4, Type (0, 0), BuildingBlock: CIFDUS_clean_linker_0, # of connection points: 2
#     Edge 5, Type (0, 0), BuildingBlock: CIFDUS_clean_linker_0, # of connection points: 2
#     Edge 6, Type (0, 0), BuildingBlock: CIFDUS_clean_linker_0, # of connection points: 2
#     Edge 7, Type (0, 0), BuildingBlock: CIFDUS_clean_linker_0, # of connection points: 2
#     Edge 8, Type (0, 0), BuildingBlock: CIFDUS_clean_linker_0, # of connection points: 2
#     Edge 9, Type (0, 0), BuildingBlock: CIFDUS_clean_linker_0, # of connection points: 2
#     Edge 10, Type (0, 0), BuildingBlock: CIFDUS_clean_linker_0, # of connection points: 2
#     Edge 11, Type (0, 0), BuildingBlock: CIFDUS_clean_linker_0, # of connection points: 2
#     Edge 12, Type (0, 0), BuildingBlock: CIFDUS_clean_linker_0, # of connection points: 2
#     Edge 13, Type (0, 0), BuildingBlock: CIFDUS_clean_linker_0, # of connection points: 2
#     Edge 14, Type (0, 0), BuildingBlock: CIFDUS_clean_linker_0, # of connection points: 2
#     Edge 15, Type (0, 0), BuildingBlock: CIFDUS_clean_linker_0, # of connection points: 2
#     Edge 16, Type (0, 0), BuildingBlock: CIFDUS_clean_linker_0, # of connection points: 2
#     Edge 17, Type (0, 0), BuildingBlock: CIFDUS_clean_linker_0, # of connection points: 2
#     Edge 18, Type (0, 0), BuildingBlock: CIFDUS_clean_linker_0, # of connection points: 2
#     Edge 19, Type (0, 0), BuildingBlock: CIFDUS_clean_linker_0, # of connection points: 2
# Relax obj value: 0.179
# Max RMSD: 0.253
# Mean RMSD: 0.253
data_MOF--net-bcg--node1-HISSIN_clean_sbu_1--edge1-CIFDUS_clean_linker_0
_symmetry_space_group_name_H-M    P1
_symmetry_Int_Tables_number       1
_symmetry_cell_setting            triclinic
loop_
_symmetry_equiv_pos_as_xyz
'x, y, z'
_cell_length_a     20.101516
_cell_length_b     14.285673
_cell_length_c     30.18013
_cell_angle_alpha  79.088153
_cell_angle_beta   90.56732
_cell_angle_gamma 90.53915
loop_
_atom_site_label
_atom_site_type_symbol
_atom_site_fract_x
_atom_site_fract_y
_atom_site_fract_z
_atom_type_partial_charge
Eu0 Eu 0.35308 0.10361 0.0178 0.0
C1 C 0.34536 0.33552 1.00403 0.0
O2 O 0.39617 0.0696 0.08757 0.0
C3 C 0.05874 0.33802 0.07603 0.0
C4 C 0.93552 0.30537 0.11848 0.0
C5 C 1.00635 0.29781 0.05484 0.0
C6 C 0.94461 0.28211 0.07603 0.0
C7 C 0.04874 0.36415 0.11816 0.0
C8 C 0.9869 0.34768 0.14009 0.0
Eu9 Eu 0.19267 0.325 0.98591 0.0
O10 O 0.25479 0.02606 0.01142 0.0
O11 O 0.13783 0.34507 0.9194 0.0
O12 O 0.29665 0.39125 0.98507 0.0
O13 O 0.2307 0.17644 0.99201 0.0
C14 C 0.17181 0.37817 0.8828 0.0
O15 O 0.23383 0.40504 0.8873 0.0
O16 O 0.15513 0.26825 0.05291 0.0
C17 C 0.12531 0.3481 0.05607 0.0
C18 C 0.35183 0.05243 0.11968 0.0
O19 O 0.28898 0.04693 0.10794 0.0
O20 O 0.13413 0.41584 0.02048 0.0
O21 O 0.3272 0.2528 0.02847 0.0
C22 C 0.43484 0.09755 0.95272 0.0
O23 O 0.38899 0.16348 0.95052 0.0
C24 C 0.50091 0.12988 0.93573 0.0
C25 C 0.62681 0.18583 0.9018 0.0
C26 C 0.55237 0.14586 0.96524 0.0
C27 C 0.61531 0.17408 0.94808 0.0
C28 C 0.51196 0.14643 0.88895 0.0
C29 C 0.57492 0.17611 0.87139 0.0
C30 C 0.20753 0.08862 0.99994 0.0
O31 O 0.43296 0.03263 0.99004 0.0
H32 H 0.88799 0.2883 0.13474 0.0
H33 H 1.01354 0.27899 0.02208 0.0
H34 H 0.08944 0.39662 0.13375 0.0
H35 H 0.67646 0.20575 0.88963 0.0
H36 H 0.54337 0.13758 1.00115 0.0
H37 H 0.47089 0.13828 0.86644 0.0
Eu38 Eu 0.84442 0.63103 0.03831 0.0
C39 C 0.83919 0.86136 0.99671 0.0
O40 O 0.8897 0.63328 0.10701 0.0
C41 C 0.56281 0.85203 0.06812 0.0
C42 C 0.4458 0.79371 0.11476 0.0
C43 C 0.50919 0.81823 0.04567 0.0
C44 C 0.44918 0.79145 0.06832 0.0
C45 C 0.55754 0.85804 0.11361 0.0
C46 C 0.49979 0.8265 0.13814 0.0
Eu47 Eu 0.69404 0.84716 0.97725 0.0
O48 O 0.73973 0.56769 0.03836 0.0
O49 O 0.63428 0.86318 0.91282 0.0
O50 O 0.79571 0.91958 0.97373 0.0
O51 O 0.71669 0.68985 0.98145 0.0
C52 C 0.65595 0.91861 0.87599 0.0
O53 O 0.71095 0.96807 0.87815 0.0
O54 O 0.67004 0.811 0.04845 0.0
C55 C 0.6259 0.87914 0.04519 0.0
C56 C 0.84721 0.6434 0.13853 0.0
O57 O 0.78395 0.65206 0.12715 0.0
O58 O 0.62264 0.93349 1.00486 0.0
O59 O 0.81169 0.78218 0.01827 0.0
C60 C 0.92077 0.58011 0.97837 0.0
O61 O 0.88286 0.65574 0.97008 0.0
C62 C 0.98829 0.59306 0.96008 0.0
C63 C 0.11522 0.61671 0.92308 0.0
C64 C 0.0426 0.6104 0.98705 0.0
C65 C 0.10652 0.6243 0.96843 0.0
C66 C 0.99722 0.59353 0.91395 0.0
C67 C 0.06077 0.60664 0.89468 0.0
C68 C 0.69453 0.61763 0.01188 0.0
O69 O 0.91367 0.52952 0.01931 0.0
H70 H 0.40053 0.77063 0.13246 0.0
H71 H 0.51463 0.8132 0.01055 0.0
H72 H 0.5991 0.88785 0.12947 0.0
H73 H 0.16513 0.61959 0.90975 0.0
H74 H 0.0346 0.61514 0.022 0.0
H75 H 0.95407 0.58606 0.89307 0.0
Eu76 Eu 0.33361 0.84476 0.4839 0.0
C77 C 0.34929 0.621 0.5187 0.0
O78 O 0.35889 0.8728 0.41024 0.0
C79 C 0.06339 0.63979 0.45479 0.0
C80 C 0.94331 0.69237 0.41012 0.0
C81 C 1.0111 0.67352 0.47765 0.0
C82 C 0.95002 0.69767 0.45589 0.0
C83 C 0.05459 0.6302 0.40933 0.0
C84 C 0.99396 0.65623 0.38633 0.0
Eu85 Eu 0.20265 0.64417 0.54423 0.0
O86 O 0.23027 0.9074 0.48315 0.0
O87 O 0.15853 0.62661 0.61363 0.0
O88 O 0.30568 0.57844 0.54815 0.0
O89 O 0.20958 0.8004 0.54594 0.0
C90 C 0.19483 0.66428 0.64235 0.0
O91 O 0.2535 0.69955 0.62904 0.0
O92 O 0.17607 0.67045 0.47262 0.0
C93 C 0.126 0.60952 0.47904 0.0
C94 C 0.41767 0.85868 0.39416 0.0
O95 O 0.46926 0.84236 0.42137 0.0
O96 O 0.12069 0.56489 0.52132 0.0
O97 O 0.32718 0.68655 0.4855 0.0
C98 C 0.42001 0.89825 0.53953 0.0
O99 O 0.3729 0.83458 0.55259 0.0
C100 C 0.48735 0.87859 0.55942 0.0
C101 C 0.61528 0.84673 0.5964 0.0
C102 C 0.53946 0.85257 0.53349 0.0
C103 C 0.60323 0.83369 0.55222 0.0
C104 C 0.50089 0.89224 0.60379 0.0
C105 C 0.56573 0.87893 0.622 0.0
C106 C 0.18722 0.86651 0.5133 0.0
O107 O 0.41689 0.93494 0.49618 0.0
H108 H 0.89701 0.71442 0.39323 0.0
H109 H 1.01778 0.67922 0.5127 0.0
H110 H 0.09445 0.60063 0.39254 0.0
H111 H 0.66493 0.83562 0.6106 0.0
H112 H 0.5305 0.84749 0.49871 0.0
H113 H 0.46192 0.91697 0.62321 0.0
Eu114 Eu 0.85485 0.37301 0.48415 0.0
C115 C 0.83907 0.14109 0.50564 0.0
O116 O 0.89438 0.39936 0.41343 0.0
C117 C 0.55356 0.12544 0.4287 0.0
C118 C 0.43089 0.15547 0.38436 0.0
C119 C 0.49861 0.15323 0.45127 0.0
C120 C 0.43703 0.16688 0.42906 0.0
C121 C 0.5461 0.10893 0.38436 0.0
C122 C 0.48437 0.12365 0.36165 0.0
Eu123 Eu 0.6862 0.14965 0.51977 0.0
O124 O 0.75597 0.44741 0.49127 0.0
O125 O 0.62811 0.14324 0.58392 0.0
O126 O 0.79006 0.08512 0.5244 0.0
O127 O 0.72821 0.29735 0.50881 0.0
C128 C 0.64787 0.19966 0.61125 0.0
O129 O 0.70066 0.2536 0.60026 0.0
O130 O 0.65101 0.19753 0.451 0.0
C131 C 0.61975 0.11684 0.44997 0.0
C132 C 0.84921 0.3997 0.38166 0.0
O133 O 0.78641 0.39143 0.3936 0.0
O134 O 0.62703 0.05336 0.48741 0.0
O135 O 0.82175 0.22189 0.47952 0.0
C136 C 0.94095 0.38985 0.54717 0.0
O137 O 0.90209 0.31465 0.54879 0.0
C138 C 1.01044 0.37316 0.56264 0.0
C139 C 0.14236 0.34909 0.59289 0.0
C140 C 0.0603 0.3551 0.53305 0.0
C141 C 0.1265 0.34472 0.54822 0.0
C142 C 0.02751 0.38054 0.60735 0.0
C143 C 0.09392 0.36907 0.62281 0.0
C144 C 0.7075 0.38528 0.50217 0.0
O145 O 0.93081 0.45629 0.51113 0.0
H146 H 0.38332 0.17155 0.36764 0.0
H147 H 0.50359 0.16337 0.48586 0.0
H148 H 0.58844 0.08441 0.36791 0.0
H149 H 0.19351 0.33704 0.60409 0.0
H150 H 0.048 0.35149 0.49836 0.0
H151 H 0.98931 0.39769 0.62955 0.0
H152 H 0.7145 0.06621 0.99239 0.0
H153 H 0.63601 0.35077 0.96309 0.0
H154 H 0.73321 0.41035 0.99892 0.0
H155 H 0.83929 0.38121 0.0391 0.0
H156 H 0.92157 0.09896 0.06619 0.0
H157 H 0.82123 0.0365 0.03434 0.0
C158 C 0.71787 0.14041 0.99543 0.0
C159 C 0.6678 0.2039 0.97667 0.0
C160 C 0.77386 0.17405 0.01601 0.0
C161 C 0.67343 0.30078 0.97876 0.0
C162 C 0.72888 0.33476 0.99896 0.0
C163 C 0.83579 0.30653 0.0369 0.0
C164 C 0.88769 0.24488 0.05368 0.0
C165 C 0.7794 0.2722 0.01748 0.0
C166 C 0.8823 0.14759 0.05234 0.0
C167 C 0.8252 0.11213 0.03418 0.0
H168 H 0.20723 0.7473 0.93877 0.0
H169 H 0.13521 0.56267 0.05912 0.0
H170 H 0.23646 0.59292 0.09947 0.0
H171 H 0.34736 0.66584 0.09942 0.0
H172 H 0.41483 0.85822 0.97959 0.0
H173 H 0.31492 0.82564 0.93973 0.0
C174 C 0.21387 0.71219 0.97365 0.0
C175 C 0.16465 0.64924 0.99509 0.0
C176 C 0.27196 0.73006 0.99668 0.0
C177 C 0.17277 0.60928 0.04113 0.0
C178 C 0.23085 0.62643 0.0643 0.0
C179 C 0.34014 0.70248 0.0649 0.0
C180 C 0.38927 0.76578 0.0432 0.0
C181 C 0.28117 0.68579 0.04219 0.0
C182 C 0.37899 0.80883 0.99767 0.0
C183 C 0.32124 0.79096 0.97469 0.0
H184 H 0.70275 0.70863 0.58146 0.0
H185 H 0.62994 0.89578 0.4618 0.0
H186 H 0.73404 0.87918 0.42365 0.0
H187 H 0.84813 0.8209 0.42614 0.0
H188 H 0.91708 0.62195 0.54352 0.0
H189 H 0.81379 0.64065 0.58192 0.0
C190 C 0.70975 0.74668 0.54715 0.0
C191 C 0.65981 0.80785 0.52556 0.0
C192 C 0.76976 0.73703 0.52543 0.0
C193 C 0.66823 0.85138 0.48011 0.0
C194 C 0.72797 0.84215 0.45821 0.0
C195 C 0.84053 0.78 0.45981 0.0
C196 C 0.8907 0.71908 0.48139 0.0
C197 C 0.77963 0.78707 0.48099 0.0
C198 C 0.88023 0.67026 0.5259 0.0
C199 C 0.82056 0.67964 0.54777 0.0
H200 H 0.15938 0.18303 0.52089 0.0
H201 H 0.22057 0.47454 0.51355 0.0
H202 H 0.32184 0.44759 0.4746 0.0
H203 H 0.39994 0.33483 0.45033 0.0
H204 H 0.33618 0.04481 0.45499 0.0
H205 H 0.23465 0.07408 0.49367 0.0
C206 C 0.19457 0.24069 0.50997 0.0
C207 C 0.18146 0.33155 0.51828 0.0
C208 C 0.25493 0.22301 0.49031 0.0
C209 C 0.22813 0.40527 0.50553 0.0
C210 C 0.28712 0.38913 0.48445 0.0
C211 C 0.3634 0.27835 0.45976 0.0
C212 C 0.37666 0.18644 0.45252 0.0
C213 C 0.30204 0.29746 0.4779 0.0
C214 C 0.32852 0.11432 0.46312 0.0
C215 C 0.26936 0.13165 0.48346 0.0
H216 H 0.64348 0.44131 0.04915 0.0
H217 H 0.58719 0.71137 0.96845 0.0
H218 H 0.47528 0.64943 0.95862 0.0
H219 H 0.39363 0.51603 0.97077 0.0
H220 H 0.45339 0.24236 0.0467 0.0
H221 H 0.5636 0.30664 0.05889 0.0
C222 C 0.60699 0.48663 0.02915 0.0
C223 C 0.6246 0.58107 0.00917 0.0
C224 C 0.54318 0.449 0.02207 0.0
C225 C 0.57574 0.63848 0.98395 0.0
C226 C 0.51155 0.60279 0.97815 0.0
C227 C 0.43085 0.47008 0.98969 0.0
C228 C 0.41453 0.37399 0.0078 0.0
C229 C 0.49485 0.50763 0.99648 0.0
C230 C 0.46388 0.31629 0.03236 0.0
C231 C 0.52713 0.35327 0.03957 0.0
H232 H 0.65643 0.56446 0.49092 0.0
H233 H 0.59764 0.26895 0.51964 0.0
H234 H 0.48397 0.31277 0.53411 0.0
H235 H 0.39973 0.43761 0.53811 0.0
H236 H 0.45456 0.7313 0.49496 0.0
H237 H 0.57044 0.68696 0.48576 0.0
C238 C 0.61881 0.5095 0.50029 0.0
C239 C 0.63669 0.41289 0.50636 0.0
C240 C 0.55243 0.53569 0.50606 0.0
C241 C 0.58648 0.3433 0.51718 0.0
C242 C 0.52098 0.36858 0.52494 0.0
C243 C 0.43722 0.49175 0.52705 0.0
C244 C 0.41918 0.58861 0.51759 0.0
C245 C 0.50331 0.46481 0.51992 0.0
C246 C 0.46815 0.65724 0.50269 0.0
C247 C 0.53411 0.63171 0.49756 0.0
H248 H 0.15139 0.91066 0.02424 0.0
H249 H 0.10114 0.2032 0.9718 0.0
H250 H 0.9855 0.15744 0.96183 0.0
H251 H 0.89819 0.03385 0.96753 0.0
H252 H 0.94375 0.74504 0.03093 0.0
H253 H 0.06127 0.78868 0.03629 0.0
C254 C 0.11513 0.96458 0.01076 0.0
C255 C 0.13575 0.06075 0.99768 0.0
C256 C 0.0477 0.9377 0.00664 0.0
C257 C 0.08751 0.12908 0.98096 0.0
C258 C 1.02107 0.10267 0.97544 0.0
C259 C 0.93367 0.98018 0.98259 0.0
C260 C 0.91173 0.88562 0.99821 0.0
C261 C 1.00062 0.00709 0.98785 0.0
C262 C 0.95885 0.81774 0.0179 0.0
C263 C 0.02621 0.84298 0.02129 0.0
H264 H 0.88947 0.97143 0.55035 0.0
H265 H 0.94528 0.23111 0.45985 0.0
H266 H 0.05576 0.16765 0.45193 0.0
H267 H 0.13506 0.03525 0.4676 0.0
H268 H 0.08408 0.78221 0.56412 0.0
H269 H 0.97254 0.84393 0.57091 0.0
C270 C 0.92601 0.01462 0.5293 0.0
C271 C 0.90862 0.10598 0.5056 0.0
C272 C 0.99008 0.97787 0.52512 0.0
C273 C 0.95688 0.16065 0.47846 0.0
C274 C 1.02018 0.12412 0.47367 0.0
C275 C 0.10037 0.99439 0.49095 0.0
C276 C 0.1189 0.90478 0.51595 0.0
C277 C 0.03714 0.03237 0.49639 0.0
C278 C 0.07176 0.85183 0.5448 0.0
C279 C 1.00784 0.88722 0.54884 0.0
H280 H 0.37046 0.06425 0.32549 0.0
H281 H 0.57492 0.13945 0.29152 0.0
H282 H 0.55356 0.11659 0.21439 0.0
H283 H 0.47413 0.08535 0.15518 0.0
H284 H 0.26815 0.02593 0.19063 0.0
H285 H 0.29218 0.04095 0.26786 0.0
C286 C 0.41037 0.0794 0.30128 0.0
C287 C 0.47397 0.10586 0.31477 0.0
C288 C 0.39707 0.0713 0.25668 0.0
C289 C 0.52543 0.11829 0.28276 0.0
C290 C 0.5131 0.10634 0.23833 0.0
C291 C 0.43475 0.0749 0.17997 0.0
C292 C 0.36945 0.05424 0.1671 0.0
C293 C 0.44878 0.08393 0.22477 0.0
C294 C 0.31884 0.04169 0.19948 0.0
C295 C 0.33239 0.05068 0.24371 0.0
H296 H 0.38815 0.83653 0.1897 0.0
H297 H 0.60293 0.81931 0.20068 0.0
H298 H 0.59679 0.83362 0.27918 0.0
H299 H 0.53061 0.85027 0.34556 0.0
H300 H 0.31615 0.84505 0.33564 0.0
H301 H 0.32282 0.83088 0.25686 0.0
C302 C 0.43411 0.83239 0.20885 0.0
C303 C 0.49598 0.82858 0.18766 0.0
C304 C 0.43047 0.8346 0.25496 0.0
C305 C 0.55423 0.8266 0.21443 0.0
C306 C 0.55097 0.83316 0.25997 0.0
C307 C 0.48539 0.84635 0.32608 0.0
C308 C 0.42307 0.85073 0.34628 0.0
C309 C 0.48933 0.83804 0.28051 0.0
C310 C 0.36489 0.84362 0.32083 0.0
C311 C 0.36857 0.83505 0.27573 0.0
H312 H 0.50084 0.83637 0.70347 0.0
H313 H 0.67589 0.97699 0.63981 0.0
H314 H 0.71667 0.0061 0.71188 0.0
H315 H 0.70629 0.98619 0.79326 0.0
H316 H 0.53473 0.8416 0.85952 0.0
H317 H 0.48842 0.82183 0.78641 0.0
C318 C 0.54742 0.87433 0.70543 0.0
C319 C 0.58536 0.90346 0.6662 0.0
C320 C 0.57147 0.89018 0.74752 0.0
C321 C 0.64611 0.95188 0.66947 0.0
C322 C 0.6696 0.96895 0.71072 0.0
C323 C 0.65852 0.95091 0.79181 0.0
C324 C 0.62429 0.91498 0.8318 0.0
C325 C 0.63321 0.93745 0.75001 0.0
C326 C 0.56234 0.86957 0.82918 0.0
C327 C 0.5359 0.85797 0.78739 0.0
H328 H 0.51686 0.09901 0.80274 0.0
H329 H 0.658 0.3148 0.82695 0.0
H330 H 0.69045 0.34299 0.74861 0.0
H331 H 0.68591 0.2986 0.67496 0.0
H332 H 0.53602 0.10033 0.64593 0.0
H333 H 0.49688 0.07815 0.72398 0.0
C334 C 0.55363 0.15374 0.79092 0.0
C335 C 0.58701 0.20112 0.82177 0.0
C336 C 0.57027 0.1735 0.74485 0.0
C337 C 0.63402 0.27264 0.80504 0.0
C338 C 0.65208 0.29025 0.75988 0.0
C339 C 0.64431 0.25089 0.68542 0.0
C340 C 0.61593 0.19774 0.65534 0.0
C341 C 0.62193 0.23922 0.72986 0.0
C342 C 0.56026 0.13956 0.66901 0.0
C343 C 0.53788 0.12689 0.7136 0.0
H344 H 0.8746 0.62206 0.34717 0.0
H345 H 0.08351 0.66021 0.31571 0.0
H346 H 0.05802 0.6531 0.23685 0.0
H347 H 0.97403 0.6472 0.17533 0.0
H348 H 0.76533 0.6378 0.20931 0.0
H349 H 0.79335 0.6326 0.28786 0.0
C350 C 0.91514 0.6336 0.32338 0.0
C351 C 0.98099 0.64519 0.33822 0.0
C352 C 0.89987 0.63722 0.27776 0.0
C353 C 0.03219 0.65113 0.30613 0.0
C354 C 1.01755 0.64836 0.26064 0.0
C355 C 0.93485 0.6441 0.2 0.0
C356 C 0.86753 0.64225 0.18614 0.0
C357 C 0.95123 0.64306 0.24584 0.0
C358 C 0.81746 0.63932 0.21858 0.0
C359 C 0.83338 0.63616 0.26376 0.0
H360 H 0.97313 0.3856 0.34615 0.0
H361 H 0.76491 0.41662 0.31008 0.0
H362 H 0.79077 0.41369 0.23193 0.0
H363 H 0.87089 0.40202 0.17402 0.0
H364 H 0.0772 0.34613 0.21031 0.0
H365 H 0.05431 0.367 0.28708 0.0
C366 C 0.93357 0.39226 0.32109 0.0
C367 C 0.86719 0.40174 0.33404 0.0
C368 C 0.94853 0.38842 0.27594 0.0
C369 C 0.81642 0.40912 0.30124 0.0
C370 C 0.8311 0.40756 0.2564 0.0
C371 C 0.91101 0.39172 0.19866 0.0
C372 C 0.9755 0.37018 0.18594 0.0
C373 C 0.89681 0.39691 0.24345 0.0
C374 C 0.027 0.36322 0.21843 0.0
C375 C 1.01381 0.37383 0.26275 0.0
H376 H 0.23205 0.43802 0.80275 0.0
H377 H 0.05002 0.30974 0.86086 0.0
H378 H 1.00873 0.29641 0.7856 0.0
H379 H 0.02617 0.318 0.70303 0.0
H380 H 0.20972 0.44806 0.64735 0.0
H381 H 0.24886 0.46078 0.72194 0.0
C382 C 0.18327 0.4071 0.79913 0.0
C383 C 0.14426 0.37499 0.8374 0.0
C384 C 0.16041 0.39832 0.7561 0.0
C385 C 0.08109 0.33531 0.8319 0.0
C386 C 0.05756 0.32726 0.78888 0.0
C387 C 0.07435 0.35016 0.7071 0.0
C388 C 0.11482 0.38099 0.66913 0.0
C389 C 0.09694 0.35838 0.75062 0.0
C390 C 0.17767 0.42121 0.6756 0.0
C391 C 0.2003 0.4292 0.71843 0.0
H392 H 0.08284 0.58422 0.68673 0.0
H393 H 0.25513 0.7595 0.7011 0.0
H394 H 0.22479 0.76399 0.77816 0.0
H395 H 0.15375 0.71365 0.8423 0.0
H396 H 0.98927 0.52084 0.83362 0.0
H397 H 1.01002 0.53255 0.75317 0.0
C398 C 0.1135 0.62354 0.70675 0.0
C399 C 0.17185 0.66995 0.68825 0.0
C400 C 0.09696 0.62354 0.75207 0.0
C401 C 0.21059 0.72161 0.71451 0.0
C402 C 0.1933 0.72445 0.75872 0.0
C403 C 0.1232 0.67151 0.82357 0.0
C404 C 0.07097 0.61446 0.845 0.0
C405 C 0.13758 0.67399 0.77811 0.0
C406 C 0.02985 0.56577 0.81859 0.0
C407 C 0.04207 0.57162 0.77246 0.0
loop_
_geom_bond_atom_site_label_1
_geom_bond_atom_site_label_2
_geom_bond_distance
_geom_bond_site_symmetry_2
_ccdc_geom_bond_type
Eu0 O2 2.323 . S
Eu0 O10 2.328 . S
Eu0 O21 2.316 . S
Eu0 C22 2.837 1_554 S
Eu0 O23 2.488 1_554 S
Eu0 O31 2.461 . S
C1 O12 1.251 1_554 S
C1 O21 1.237 . S
O2 Eu0 2.323 . S
O2 C18 1.279 . S
C3 C5 1.383 1_455 S
C3 C7 1.388 . S
C3 C17 1.491 . S
C4 C6 1.403 . S
C4 C8 1.385 1_655 S
C4 H32 0.931 . S
C5 C3 1.383 1_655 S
C5 C6 1.393 . S
C5 H33 0.930 . S
C6 C4 1.403 . S
C6 C5 1.393 . S
C7 C3 1.388 . S
C7 C8 1.394 . S
C7 H34 0.930 . S
C8 C4 1.385 1_455 S
C8 C7 1.394 . S
Eu9 O11 2.323 . S
Eu9 O12 2.328 . S
Eu9 O13 2.316 . S
Eu9 O16 2.488 1_556 S
Eu9 C17 2.837 1_556 S
Eu9 O20 2.461 . S
O10 Eu0 2.328 . S
O10 C30 1.251 1_554 S
O11 Eu9 2.323 . S
O11 C14 1.279 . S
O12 C1 1.251 1_556 S
O12 Eu9 2.328 . S
O13 Eu9 2.316 . S
O13 C30 1.237 . S
C14 O11 1.279 . S
C14 O15 1.244 . S
O15 C14 1.244 . S
O16 Eu9 2.488 1_554 S
O16 C17 1.271 . S
C17 C3 1.491 . S
C17 Eu9 2.837 1_554 S
C17 O16 1.271 . S
C17 O20 1.261 1_554 S
C18 O2 1.279 . S
C18 O19 1.244 . S
O19 C18 1.244 . S
O20 Eu9 2.461 . S
O20 C17 1.261 1_556 S
O21 Eu0 2.316 . S
O21 C1 1.237 . S
C22 Eu0 2.837 1_556 S
C22 O23 1.271 . S
C22 C24 1.491 . S
C22 O31 1.261 1_556 S
O23 Eu0 2.488 1_556 S
O23 C22 1.271 . S
C24 C22 1.491 . S
C24 C26 1.383 . S
C24 C28 1.388 . S
C25 C27 1.403 . S
C25 C29 1.385 . S
C25 H35 0.931 . S
C26 C24 1.383 . S
C26 C27 1.393 . S
C26 H36 0.930 . S
C27 C25 1.403 . S
C27 C26 1.393 . S
C28 C24 1.388 . S
C28 C29 1.394 . S
C28 H37 0.930 . S
C29 C25 1.385 . S
C29 C28 1.394 . S
C30 O10 1.251 1_556 S
C30 O13 1.237 . S
O31 Eu0 2.461 . S
O31 C22 1.261 1_554 S
H32 C4 0.931 . S
H33 C5 0.930 . S
H34 C7 0.930 . S
H35 C25 0.931 . S
H36 C26 0.930 . S
H37 C28 0.930 . S
Eu38 O40 2.323 . S
Eu38 O48 2.328 . S
Eu38 O59 2.316 . S
Eu38 C60 2.837 1_554 S
Eu38 O61 2.488 1_554 S
Eu38 O69 2.461 . S
C39 O50 1.251 1_554 S
C39 O59 1.237 . S
O40 Eu38 2.323 . S
O40 C56 1.279 . S
C41 C43 1.383 . S
C41 C45 1.388 . S
C41 C55 1.491 . S
C42 C44 1.403 . S
C42 C46 1.385 . S
C42 H70 0.931 . S
C43 C41 1.383 . S
C43 C44 1.393 . S
C43 H71 0.930 . S
C44 C42 1.403 . S
C44 C43 1.393 . S
C45 C41 1.388 . S
C45 C46 1.394 . S
C45 H72 0.930 . S
C46 C42 1.385 . S
C46 C45 1.394 . S
Eu47 O49 2.323 . S
Eu47 O50 2.328 . S
Eu47 O51 2.316 . S
Eu47 O54 2.488 1_556 S
Eu47 C55 2.837 1_556 S
Eu47 O58 2.461 . S
O48 Eu38 2.328 . S
O48 C68 1.251 1_554 S
O49 Eu47 2.323 . S
O49 C52 1.279 . S
O50 C39 1.251 1_556 S
O50 Eu47 2.328 . S
O51 Eu47 2.316 . S
O51 C68 1.237 . S
C52 O49 1.279 . S
C52 O53 1.244 . S
O53 C52 1.244 . S
O54 Eu47 2.488 1_554 S
O54 C55 1.271 . S
C55 C41 1.491 . S
C55 Eu47 2.837 1_554 S
C55 O54 1.271 . S
C55 O58 1.261 1_554 S
C56 O40 1.279 . S
C56 O57 1.244 . S
O57 C56 1.244 . S
O58 Eu47 2.461 . S
O58 C55 1.261 1_556 S
O59 Eu38 2.316 . S
O59 C39 1.237 . S
C60 Eu38 2.837 1_556 S
C60 O61 1.271 . S
C60 C62 1.491 . S
C60 O69 1.261 1_556 S
O61 Eu38 2.488 1_556 S
O61 C60 1.271 . S
C62 C60 1.491 . S
C62 C64 1.383 1_655 S
C62 C66 1.388 . S
C63 C65 1.403 . S
C63 C67 1.385 1_455 S
C63 H73 0.931 . S
C64 C62 1.383 1_455 S
C64 C65 1.393 . S
C64 H74 0.930 . S
C65 C63 1.403 . S
C65 C64 1.393 . S
C66 C62 1.388 . S
C66 C67 1.394 . S
C66 H75 0.930 . S
C67 C63 1.385 1_655 S
C67 C66 1.394 . S
C68 O48 1.251 1_556 S
C68 O51 1.237 . S
O69 Eu38 2.461 . S
O69 C60 1.261 1_554 S
H70 C42 0.931 . S
H71 C43 0.930 . S
H72 C45 0.930 . S
H73 C63 0.931 . S
H74 C64 0.930 . S
H75 C66 0.930 . S
Eu76 O78 2.323 . S
Eu76 O86 2.328 . S
Eu76 O97 2.316 . S
Eu76 C98 2.837 . S
Eu76 O99 2.488 . S
Eu76 O107 2.461 . S
C77 O88 1.251 . S
C77 O97 1.237 . S
O78 Eu76 2.323 . S
O78 C94 1.279 . S
C79 C81 1.383 1_455 S
C79 C83 1.388 . S
C79 C93 1.491 . S
C80 C82 1.403 . S
C80 C84 1.385 1_655 S
C80 H108 0.931 . S
C81 C79 1.383 1_655 S
C81 C82 1.393 . S
C81 H109 0.930 . S
C82 C80 1.403 . S
C82 C81 1.393 . S
C83 C79 1.388 . S
C83 C84 1.394 . S
C83 H110 0.930 . S
C84 C80 1.385 1_455 S
C84 C83 1.394 . S
Eu85 O87 2.323 . S
Eu85 O88 2.328 . S
Eu85 O89 2.316 . S
Eu85 O92 2.488 . S
Eu85 C93 2.837 . S
Eu85 O96 2.461 . S
O86 Eu76 2.328 . S
O86 C106 1.251 . S
O87 Eu85 2.323 . S
O87 C90 1.279 . S
O88 C77 1.251 . S
O88 Eu85 2.328 . S
O89 Eu85 2.316 . S
O89 C106 1.237 . S
C90 O87 1.279 . S
C90 O91 1.244 . S
O91 C90 1.244 . S
O92 Eu85 2.488 . S
O92 C93 1.271 . S
C93 C79 1.491 . S
C93 Eu85 2.837 . S
C93 O92 1.271 . S
C93 O96 1.261 . S
C94 O78 1.279 . S
C94 O95 1.244 . S
O95 C94 1.244 . S
O96 Eu85 2.461 . S
O96 C93 1.261 . S
O97 Eu76 2.316 . S
O97 C77 1.237 . S
C98 Eu76 2.837 . S
C98 O99 1.271 . S
C98 C100 1.491 . S
C98 O107 1.261 . S
O99 Eu76 2.488 . S
O99 C98 1.271 . S
C100 C98 1.491 . S
C100 C102 1.383 . S
C100 C104 1.388 . S
C101 C103 1.403 . S
C101 C105 1.385 . S
C101 H111 0.931 . S
C102 C100 1.383 . S
C102 C103 1.393 . S
C102 H112 0.930 . S
C103 C101 1.403 . S
C103 C102 1.393 . S
C104 C100 1.388 . S
C104 C105 1.394 . S
C104 H113 0.930 . S
C105 C101 1.385 . S
C105 C104 1.394 . S
C106 O86 1.251 . S
C106 O89 1.237 . S
O107 Eu76 2.461 . S
O107 C98 1.261 . S
H108 C80 0.931 . S
H109 C81 0.930 . S
H110 C83 0.930 . S
H111 C101 0.931 . S
H112 C102 0.930 . S
H113 C104 0.930 . S
Eu114 O116 2.323 . S
Eu114 O124 2.328 . S
Eu114 O135 2.316 . S
Eu114 C136 2.837 . S
Eu114 O137 2.488 . S
Eu114 O145 2.461 . S
C115 O126 1.251 . S
C115 O135 1.237 . S
O116 Eu114 2.323 . S
O116 C132 1.279 . S
C117 C119 1.383 . S
C117 C121 1.388 . S
C117 C131 1.491 . S
C118 C120 1.403 . S
C118 C122 1.385 . S
C118 H146 0.931 . S
C119 C117 1.383 . S
C119 C120 1.393 . S
C119 H147 0.930 . S
C120 C118 1.403 . S
C120 C119 1.393 . S
C121 C117 1.388 . S
C121 C122 1.394 . S
C121 H148 0.930 . S
C122 C118 1.385 . S
C122 C121 1.394 . S
Eu123 O125 2.323 . S
Eu123 O126 2.328 . S
Eu123 O127 2.316 . S
Eu123 O130 2.488 . S
Eu123 C131 2.837 . S
Eu123 O134 2.461 . S
O124 Eu114 2.328 . S
O124 C144 1.251 . S
O125 Eu123 2.323 . S
O125 C128 1.279 . S
O126 C115 1.251 . S
O126 Eu123 2.328 . S
O127 Eu123 2.316 . S
O127 C144 1.237 . S
C128 O125 1.279 . S
C128 O129 1.244 . S
O129 C128 1.244 . S
O130 Eu123 2.488 . S
O130 C131 1.271 . S
C131 C117 1.491 . S
C131 Eu123 2.837 . S
C131 O130 1.271 . S
C131 O134 1.261 . S
C132 O116 1.279 . S
C132 O133 1.244 . S
O133 C132 1.244 . S
O134 Eu123 2.461 . S
O134 C131 1.261 . S
O135 Eu114 2.316 . S
O135 C115 1.237 . S
C136 Eu114 2.837 . S
C136 O137 1.271 . S
C136 C138 1.491 . S
C136 O145 1.261 . S
O137 Eu114 2.488 . S
O137 C136 1.271 . S
C138 C136 1.491 . S
C138 C140 1.383 1_655 S
C138 C142 1.388 . S
C139 C141 1.403 . S
C139 C143 1.385 1_455 S
C139 H149 0.931 . S
C140 C138 1.383 1_455 S
C140 C141 1.393 . S
C140 H150 0.930 . S
C141 C139 1.403 . S
C141 C140 1.393 . S
C142 C138 1.388 . S
C142 C143 1.394 . S
C142 H151 0.930 . S
C143 C139 1.385 1_655 S
C143 C142 1.394 . S
C144 O124 1.251 . S
C144 O127 1.237 . S
O145 Eu114 2.461 . S
O145 C136 1.261 . S
H146 C118 0.931 . S
H147 C119 0.930 . S
H148 C121 0.930 . S
H149 C139 0.931 . S
H150 C140 0.930 . S
H151 C142 0.930 . S
H152 C158 0.930 . S
H153 C161 0.930 . S
H154 C162 0.930 . S
H155 C163 0.930 . S
H156 C166 0.930 . S
H157 C167 0.930 . S
C158 H152 0.930 . S
C158 C159 1.355 . S
C158 C160 1.415 1_556 S
C159 C158 1.355 . S
C159 C161 1.419 . S
C160 C158 1.415 1_554 S
C160 C165 1.429 1_554 S
C160 C167 1.409 . S
C161 H153 0.930 . S
C161 C159 1.419 . S
C161 C162 1.362 . S
C162 H154 0.930 . S
C162 C161 1.362 . S
C162 C165 1.418 . S
C163 H155 0.930 . S
C163 C164 1.355 . S
C163 C165 1.402 1_554 S
C164 C163 1.355 . S
C164 C166 1.419 . S
C165 C160 1.429 1_556 S
C165 C162 1.418 . S
C165 C163 1.402 1_556 S
C166 H156 0.930 . S
C166 C164 1.419 . S
C166 C167 1.362 . S
C167 H157 0.930 . S
C167 C160 1.409 . S
C167 C166 1.362 . S
H168 C174 0.930 . S
H169 C177 0.930 . S
H170 C178 0.930 . S
H171 C179 0.930 . S
H172 C182 0.930 . S
H173 C183 0.930 . S
C174 H168 0.930 . S
C174 C175 1.355 . S
C174 C176 1.415 . S
C175 C174 1.355 . S
C175 C177 1.419 . S
C176 C174 1.415 . S
C176 C181 1.425 1_556 S
C176 C183 1.409 . S
C177 H169 0.930 . S
C177 C175 1.419 . S
C177 C178 1.362 1_556 S
C178 H170 0.930 . S
C178 C177 1.362 1_554 S
C178 C181 1.409 . S
C179 H171 0.930 . S
C179 C180 1.355 . S
C179 C181 1.415 . S
C180 C179 1.355 . S
C180 C182 1.419 . S
C181 C176 1.425 1_554 S
C181 C178 1.409 . S
C181 C179 1.415 . S
C182 H172 0.930 . S
C182 C180 1.419 . S
C182 C183 1.362 1_554 S
C183 H173 0.930 . S
C183 C176 1.409 . S
C183 C182 1.362 1_556 S
H184 C190 0.930 . S
H185 C193 0.930 . S
H186 C194 0.930 . S
H187 C195 0.930 . S
H188 C198 0.930 . S
H189 C199 0.930 . S
C190 H184 0.930 . S
C190 C191 1.355 . S
C190 C192 1.415 . S
C191 C190 1.355 . S
C191 C193 1.419 . S
C192 C190 1.415 . S
C192 C197 1.425 . S
C192 C199 1.409 . S
C193 H185 0.930 . S
C193 C191 1.419 . S
C193 C194 1.362 . S
C194 H186 0.930 . S
C194 C193 1.362 . S
C194 C197 1.409 . S
C195 H187 0.930 . S
C195 C196 1.355 . S
C195 C197 1.415 . S
C196 C195 1.355 . S
C196 C198 1.419 . S
C197 C192 1.425 . S
C197 C194 1.409 . S
C197 C195 1.415 . S
C198 H188 0.930 . S
C198 C196 1.419 . S
C198 C199 1.362 . S
C199 H189 0.930 . S
C199 C192 1.409 . S
C199 C198 1.362 . S
H200 C206 0.930 . S
H201 C209 0.930 . S
H202 C210 0.930 . S
H203 C211 0.930 . S
H204 C214 0.930 . S
H205 C215 0.930 . S
C206 H200 0.930 . S
C206 C207 1.355 . S
C206 C208 1.415 . S
C207 C206 1.355 . S
C207 C209 1.419 . S
C208 C206 1.415 . S
C208 C213 1.425 . S
C208 C215 1.409 . S
C209 H201 0.930 . S
C209 C207 1.419 . S
C209 C210 1.362 . S
C210 H202 0.930 . S
C210 C209 1.362 . S
C210 C213 1.409 . S
C211 H203 0.930 . S
C211 C212 1.355 . S
C211 C213 1.415 . S
C212 C211 1.355 . S
C212 C214 1.419 . S
C213 C208 1.425 . S
C213 C210 1.409 . S
C213 C211 1.415 . S
C214 H204 0.930 . S
C214 C212 1.419 . S
C214 C215 1.362 . S
C215 H205 0.930 . S
C215 C208 1.409 . S
C215 C214 1.362 . S
H216 C222 0.930 . S
H217 C225 0.930 . S
H218 C226 0.930 . S
H219 C227 0.930 . S
H220 C230 0.930 . S
H221 C231 0.930 . S
C222 H216 0.930 . S
C222 C223 1.355 1_554 S
C222 C224 1.415 . S
C223 C222 1.355 1_556 S
C223 C225 1.419 . S
C224 C222 1.415 . S
C224 C229 1.425 1_554 S
C224 C231 1.409 . S
C225 H217 0.930 . S
C225 C223 1.419 . S
C225 C226 1.362 . S
C226 H218 0.930 . S
C226 C225 1.362 . S
C226 C229 1.409 . S
C227 H219 0.930 . S
C227 C228 1.355 1_556 S
C227 C229 1.415 . S
C228 C227 1.355 1_554 S
C228 C230 1.419 . S
C229 C224 1.425 1_556 S
C229 C226 1.409 . S
C229 C227 1.415 . S
C230 H220 0.930 . S
C230 C228 1.419 . S
C230 C231 1.362 . S
C231 H221 0.930 . S
C231 C224 1.409 . S
C231 C230 1.362 . S
H232 C238 0.930 . S
H233 C241 0.930 . S
H234 C242 0.930 . S
H235 C243 0.930 . S
H236 C246 0.930 . S
H237 C247 0.930 . S
C238 H232 0.930 . S
C238 C239 1.355 . S
C238 C240 1.415 . S
C239 C238 1.355 . S
C239 C241 1.419 . S
C240 C238 1.415 . S
C240 C245 1.425 . S
C240 C247 1.409 . S
C241 H233 0.930 . S
C241 C239 1.419 . S
C241 C242 1.362 . S
C242 H234 0.930 . S
C242 C241 1.362 . S
C242 C245 1.409 . S
C243 H235 0.930 . S
C243 C244 1.355 . S
C243 C245 1.415 . S
C244 C243 1.355 . S
C244 C246 1.419 . S
C245 C240 1.425 . S
C245 C242 1.409 . S
C245 C243 1.415 . S
C246 H236 0.930 . S
C246 C244 1.419 . S
C246 C247 1.362 . S
C247 H237 0.930 . S
C247 C240 1.409 . S
C247 C246 1.362 . S
H248 C254 0.930 . S
H249 C257 0.930 . S
H250 C258 0.930 1_655 S
H251 C259 0.930 . S
H252 C262 0.930 . S
H253 C263 0.930 1_455 S
C254 H248 0.930 . S
C254 C255 1.355 1_564 S
C254 C256 1.415 . S
C255 C254 1.355 1_546 S
C255 C257 1.419 . S
C256 C254 1.415 . S
C256 C261 1.425 1_464 S
C256 C263 1.409 1_455 S
C257 H249 0.930 . S
C257 C255 1.419 . S
C257 C258 1.362 . S
C258 H250 0.930 1_455 S
C258 C257 1.362 . S
C258 C261 1.409 1_455 S
C259 H251 0.930 . S
C259 C260 1.355 1_546 S
C259 C261 1.415 . S
C260 C259 1.355 1_564 S
C260 C262 1.419 . S
C261 C256 1.425 1_646 S
C261 C258 1.409 1_655 S
C261 C259 1.415 . S
C262 H252 0.930 . S
C262 C260 1.419 . S
C262 C263 1.362 . S
C263 H253 0.930 1_655 S
C263 C256 1.409 1_655 S
C263 C262 1.362 . S
H264 C270 0.930 . S
H265 C273 0.930 . S
H266 C274 0.930 . S
H267 C275 0.930 . S
H268 C278 0.930 . S
H269 C279 0.930 . S
C270 H264 0.930 . S
C270 C271 1.355 . S
C270 C272 1.425 . S
C271 C270 1.355 . S
C271 C273 1.419 1_545 S
C272 C270 1.425 . S
C272 C277 1.425 1_645 S
C272 C279 1.399 1_655 S
C273 H265 0.930 . S
C273 C271 1.419 1_565 S
C273 C274 1.362 . S
C274 H266 0.930 . S
C274 C273 1.362 . S
C274 C277 1.399 1_655 S
C275 H267 0.930 . S
C275 C276 1.355 . S
C275 C277 1.425 . S
C276 C275 1.355 . S
C276 C278 1.419 1_565 S
C277 C272 1.425 1_465 S
C277 C274 1.399 1_455 S
C277 C275 1.425 . S
C278 H268 0.930 . S
C278 C276 1.419 1_545 S
C278 C279 1.362 . S
C279 H269 0.930 . S
C279 C272 1.399 1_455 S
C279 C278 1.362 . S
H280 C286 0.930 . S
H281 C289 0.930 . S
H282 C290 0.930 . S
H283 C291 0.930 . S
H284 C294 0.930 . S
H285 C295 0.930 . S
C286 H280 0.930 . S
C286 C287 1.355 . S
C286 C288 1.415 . S
C287 C286 1.355 . S
C287 C289 1.419 . S
C288 C286 1.415 . S
C288 C293 1.425 . S
C288 C295 1.409 . S
C289 H281 0.930 . S
C289 C287 1.419 . S
C289 C290 1.362 . S
C290 H282 0.930 . S
C290 C289 1.362 . S
C290 C293 1.409 . S
C291 H283 0.930 . S
C291 C292 1.355 . S
C291 C293 1.415 . S
C292 C291 1.355 . S
C292 C294 1.419 . S
C293 C288 1.425 . S
C293 C290 1.409 . S
C293 C291 1.415 . S
C294 H284 0.930 . S
C294 C292 1.419 . S
C294 C295 1.362 . S
C295 H285 0.930 . S
C295 C288 1.409 . S
C295 C294 1.362 . S
H296 C302 0.930 . S
H297 C305 0.930 . S
H298 C306 0.930 . S
H299 C307 0.930 . S
H300 C310 0.930 . S
H301 C311 0.930 . S
C302 H296 0.930 . S
C302 C303 1.355 . S
C302 C304 1.415 . S
C303 C302 1.355 . S
C303 C305 1.419 . S
C304 C302 1.415 . S
C304 C309 1.425 . S
C304 C311 1.409 . S
C305 H297 0.930 . S
C305 C303 1.419 . S
C305 C306 1.362 . S
C306 H298 0.930 . S
C306 C305 1.362 . S
C306 C309 1.409 . S
C307 H299 0.930 . S
C307 C308 1.355 . S
C307 C309 1.415 . S
C308 C307 1.355 . S
C308 C310 1.419 . S
C309 C304 1.425 . S
C309 C306 1.409 . S
C309 C307 1.415 . S
C310 H300 0.930 . S
C310 C308 1.419 . S
C310 C311 1.362 . S
C311 H301 0.930 . S
C311 C304 1.409 . S
C311 C310 1.362 . S
H312 C318 0.930 . S
H313 C321 0.930 . S
H314 C322 0.930 . S
H315 C323 0.930 . S
H316 C326 0.930 . S
H317 C327 0.930 . S
C318 H312 0.930 . S
C318 C319 1.355 . S
C318 C320 1.415 . S
C319 C318 1.355 . S
C319 C321 1.419 . S
C320 C318 1.415 . S
C320 C325 1.425 . S
C320 C327 1.409 . S
C321 H313 0.930 . S
C321 C319 1.419 . S
C321 C322 1.362 . S
C322 H314 0.930 . S
C322 C321 1.362 . S
C322 C325 1.409 . S
C323 H315 0.930 . S
C323 C324 1.355 . S
C323 C325 1.415 . S
C324 C323 1.355 . S
C324 C326 1.419 . S
C325 C320 1.425 . S
C325 C322 1.409 . S
C325 C323 1.415 . S
C326 H316 0.930 . S
C326 C324 1.419 . S
C326 C327 1.362 . S
C327 H317 0.930 . S
C327 C320 1.409 . S
C327 C326 1.362 . S
H328 C334 0.930 . S
H329 C337 0.930 . S
H330 C338 0.930 . S
H331 C339 0.930 . S
H332 C342 0.930 . S
H333 C343 0.930 . S
C334 H328 0.930 . S
C334 C335 1.355 . S
C334 C336 1.415 . S
C335 C334 1.355 . S
C335 C337 1.419 . S
C336 C334 1.415 . S
C336 C341 1.425 . S
C336 C343 1.409 . S
C337 H329 0.930 . S
C337 C335 1.419 . S
C337 C338 1.362 . S
C338 H330 0.930 . S
C338 C337 1.362 . S
C338 C341 1.409 . S
C339 H331 0.930 . S
C339 C340 1.355 . S
C339 C341 1.415 . S
C340 C339 1.355 . S
C340 C342 1.419 . S
C341 C336 1.425 . S
C341 C338 1.409 . S
C341 C339 1.415 . S
C342 H332 0.930 . S
C342 C340 1.419 . S
C342 C343 1.362 . S
C343 H333 0.930 . S
C343 C336 1.409 . S
C343 C342 1.362 . S
H344 C350 0.930 . S
H345 C353 0.930 . S
H346 C354 0.930 . S
H347 C355 0.930 . S
H348 C358 0.930 . S
H349 C359 0.930 . S
C350 H344 0.930 . S
C350 C351 1.355 1_655 S
C350 C352 1.415 . S
C351 C350 1.355 1_455 S
C351 C353 1.419 . S
C352 C350 1.415 . S
C352 C357 1.425 . S
C352 C359 1.409 . S
C353 H345 0.930 . S
C353 C351 1.419 . S
C353 C354 1.362 . S
C354 H346 0.930 . S
C354 C353 1.362 . S
C354 C357 1.409 1_455 S
C355 H347 0.930 . S
C355 C356 1.355 . S
C355 C357 1.415 . S
C356 C355 1.355 . S
C356 C358 1.419 . S
C357 C352 1.425 . S
C357 C354 1.409 1_655 S
C357 C355 1.415 . S
C358 H348 0.930 . S
C358 C356 1.419 . S
C358 C359 1.362 . S
C359 H349 0.930 . S
C359 C352 1.409 . S
C359 C358 1.362 . S
H360 C366 0.930 . S
H361 C369 0.930 . S
H362 C370 0.930 . S
H363 C371 0.930 . S
H364 C374 0.930 . S
H365 C375 0.930 . S
C366 H360 0.930 . S
C366 C367 1.355 . S
C366 C368 1.415 . S
C367 C366 1.355 . S
C367 C369 1.419 . S
C368 C366 1.415 . S
C368 C373 1.425 . S
C368 C375 1.409 1_655 S
C369 H361 0.930 . S
C369 C367 1.419 . S
C369 C370 1.362 . S
C370 H362 0.930 . S
C370 C369 1.362 . S
C370 C373 1.409 . S
C371 H363 0.930 . S
C371 C372 1.355 1_655 S
C371 C373 1.415 . S
C372 C371 1.355 1_455 S
C372 C374 1.419 . S
C373 C368 1.425 . S
C373 C370 1.409 . S
C373 C371 1.415 . S
C374 H364 0.930 . S
C374 C372 1.419 . S
C374 C375 1.362 . S
C375 H365 0.930 . S
C375 C368 1.409 1_455 S
C375 C374 1.362 . S
H376 C382 0.930 . S
H377 C385 0.930 . S
H378 C386 0.930 1_655 S
H379 C387 0.930 . S
H380 C390 0.930 . S
H381 C391 0.930 . S
C382 H376 0.930 . S
C382 C383 1.355 . S
C382 C384 1.415 . S
C383 C382 1.355 . S
C383 C385 1.419 . S
C384 C382 1.415 . S
C384 C389 1.425 . S
C384 C391 1.409 . S
C385 H377 0.930 . S
C385 C383 1.419 . S
C385 C386 1.362 . S
C386 H378 0.930 1_455 S
C386 C385 1.362 . S
C386 C389 1.409 . S
C387 H379 0.930 . S
C387 C388 1.355 . S
C387 C389 1.415 1_655 S
C388 C387 1.355 . S
C388 C390 1.419 1_655 S
C389 C384 1.425 . S
C389 C386 1.409 . S
C389 C387 1.415 1_455 S
C390 H380 0.930 . S
C390 C388 1.419 1_455 S
C390 C391 1.362 . S
C391 H381 0.930 . S
C391 C384 1.409 . S
C391 C390 1.362 . S
H392 C398 0.930 . S
H393 C401 0.930 . S
H394 C402 0.930 . S
H395 C403 0.930 . S
H396 C406 0.930 . S
H397 C407 0.930 . S
C398 H392 0.930 . S
C398 C399 1.355 . S
C398 C400 1.415 . S
C399 C398 1.355 . S
C399 C401 1.419 . S
C400 C398 1.415 . S
C400 C405 1.425 . S
C400 C407 1.409 1_455 S
C401 H393 0.930 . S
C401 C399 1.419 . S
C401 C402 1.362 . S
C402 H394 0.930 . S
C402 C401 1.362 . S
C402 C405 1.409 . S
C403 H395 0.930 . S
C403 C404 1.355 1_455 S
C403 C405 1.415 . S
C404 C403 1.355 1_655 S
C404 C406 1.419 . S
C405 C400 1.425 . S
C405 C402 1.409 . S
C405 C403 1.415 . S
C406 H396 0.930 . S
C406 C404 1.419 . S
C406 C407 1.362 . S
C407 H397 0.930 . S
C407 C400 1.409 1_655 S
C407 C406 1.362 . S
C159 C27 2.205 . S
C164 C6 2.205 . S
C175 C65 2.225 . S
C180 C44 2.225 . S
C191 C103 2.223 . S
C196 C82 2.223 . S
C207 C141 2.235 . S
C212 C120 2.235 . S
C223 C68 1.709 . S
C228 C1 1.709 . S
C239 C144 1.700 . S
C244 C77 1.700 . S
C255 C30 1.704 . S
C260 C39 1.704 . S
C271 C115 1.734 . S
C276 C106 1.734 . S
C287 C122 1.285 . S
C292 C18 1.242 . S
C303 C46 1.283 . S
C308 C94 1.219 . S
C319 C105 1.203 . S
C324 C52 1.311 . S
C335 C29 1.173 . S
C340 C128 1.295 . S
C351 C84 1.287 . S
C356 C56 1.227 . S
C367 C132 1.221 . S
C372 C8 1.279 . S
C383 C14 1.310 . S
C388 C143 1.188 . S
C399 C90 1.263 . S
C404 C67 1.277 . S
