# Generated by pormake.
# Topology ure, (4)-cn, num edge types: 1
# Building blocks:
#     Node 0, Type 0, BuildingBlock: QUQFOY_clean_sbu_3, # of connection points: 4
#     Node 1, Type 0, BuildingBlock: QUQFOY_clean_sbu_3, # of connection points: 4
#     Node 2, Type 0, BuildingBlock: QUQFOY_clean_sbu_3, # of connection points: 4
#     Node 3, Type 0, BuildingBlock: QUQFOY_clean_sbu_3, # of connection points: 4
#     Node 4, Type 0, BuildingBlock: QUQFOY_clean_sbu_3, # of connection points: 4
#     Node 5, Type 0, BuildingBlock: QUQFOY_clean_sbu_3, # of connection points: 4
#     Node 6, Type 0, BuildingBlock: QUQFOY_clean_sbu_3, # of connection points: 4
#     Node 7, Type 0, BuildingBlock: QUQFOY_clean_sbu_3, # of connection points: 4
#     Node 8, Type 0, BuildingBlock: QUQFOY_clean_sbu_3, # of connection points: 4
#     Node 9, Type 0, BuildingBlock: QUQFOY_clean_sbu_3, # of connection points: 4
#     Node 10, Type 0, BuildingBlock: QUQFOY_clean_sbu_3, # of connection points: 4
#     Node 11, Type 0, BuildingBlock: QUQFOY_clean_sbu_3, # of connection points: 4
#     Node 12, Type 0, BuildingBlock: QUQFOY_clean_sbu_3, # of connection points: 4
#     Node 13, Type 0, BuildingBlock: QUQFOY_clean_sbu_3, # of connection points: 4
#     Node 14, Type 0, BuildingBlock: QUQFOY_clean_sbu_3, # of connection points: 4
#     Node 15, Type 0, BuildingBlock: QUQFOY_clean_sbu_3, # of connection points: 4
#     Edge 16, Type (0, 0), BuildingBlock: UVAHIK_clean_linker_0, # of connection points: 2
#     Edge 17, Type (0, 0), BuildingBlock: UVAHIK_clean_linker_0, # of connection points: 2
#     Edge 18, Type (0, 0), BuildingBlock: UVAHIK_clean_linker_0, # of connection points: 2
#     Edge 19, Type (0, 0), BuildingBlock: UVAHIK_clean_linker_0, # of connection points: 2
#     Edge 20, Type (0, 0), BuildingBlock: UVAHIK_clean_linker_0, # of connection points: 2
#     Edge 21, Type (0, 0), BuildingBlock: UVAHIK_clean_linker_0, # of connection points: 2
#     Edge 22, Type (0, 0), BuildingBlock: UVAHIK_clean_linker_0, # of connection points: 2
#     Edge 23, Type (0, 0), BuildingBlock: UVAHIK_clean_linker_0, # of connection points: 2
#     Edge 24, Type (0, 0), BuildingBlock: UVAHIK_clean_linker_0, # of connection points: 2
#     Edge 25, Type (0, 0), BuildingBlock: UVAHIK_clean_linker_0, # of connection points: 2
#     Edge 26, Type (0, 0), BuildingBlock: UVAHIK_clean_linker_0, # of connection points: 2
#     Edge 27, Type (0, 0), BuildingBlock: UVAHIK_clean_linker_0, # of connection points: 2
#     Edge 28, Type (0, 0), BuildingBlock: UVAHIK_clean_linker_0, # of connection points: 2
#     Edge 29, Type (0, 0), BuildingBlock: UVAHIK_clean_linker_0, # of connection points: 2
#     Edge 30, Type (0, 0), BuildingBlock: UVAHIK_clean_linker_0, # of connection points: 2
#     Edge 31, Type (0, 0), BuildingBlock: UVAHIK_clean_linker_0, # of connection points: 2
#     Edge 32, Type (0, 0), BuildingBlock: UVAHIK_clean_linker_0, # of connection points: 2
#     Edge 33, Type (0, 0), BuildingBlock: UVAHIK_clean_linker_0, # of connection points: 2
#     Edge 34, Type (0, 0), BuildingBlock: UVAHIK_clean_linker_0, # of connection points: 2
#     Edge 35, Type (0, 0), BuildingBlock: UVAHIK_clean_linker_0, # of connection points: 2
#     Edge 36, Type (0, 0), BuildingBlock: UVAHIK_clean_linker_0, # of connection points: 2
#     Edge 37, Type (0, 0), BuildingBlock: UVAHIK_clean_linker_0, # of connection points: 2
#     Edge 38, Type (0, 0), BuildingBlock: UVAHIK_clean_linker_0, # of connection points: 2
#     Edge 39, Type (0, 0), BuildingBlock: UVAHIK_clean_linker_0, # of connection points: 2
#     Edge 40, Type (0, 0), BuildingBlock: UVAHIK_clean_linker_0, # of connection points: 2
#     Edge 41, Type (0, 0), BuildingBlock: UVAHIK_clean_linker_0, # of connection points: 2
#     Edge 42, Type (0, 0), BuildingBlock: UVAHIK_clean_linker_0, # of connection points: 2
#     Edge 43, Type (0, 0), BuildingBlock: UVAHIK_clean_linker_0, # of connection points: 2
#     Edge 44, Type (0, 0), BuildingBlock: UVAHIK_clean_linker_0, # of connection points: 2
#     Edge 45, Type (0, 0), BuildingBlock: UVAHIK_clean_linker_0, # of connection points: 2
#     Edge 46, Type (0, 0), BuildingBlock: UVAHIK_clean_linker_0, # of connection points: 2
#     Edge 47, Type (0, 0), BuildingBlock: UVAHIK_clean_linker_0, # of connection points: 2
# Relax obj value: 0.241
# Max RMSD: 0.172
# Mean RMSD: 0.172
data_MOF--net-ure--node1-QUQFOY_clean_sbu_3--edge1-UVAHIK_clean_linker_0
_symmetry_space_group_name_H-M    P1
_symmetry_Int_Tables_number       1
_symmetry_cell_setting            triclinic
loop_
_symmetry_equiv_pos_as_xyz
'x, y, z'
_cell_length_a     42.721768
_cell_length_b     40.494794
_cell_length_c     40.542925
_cell_angle_alpha  89.911832
_cell_angle_beta   90.025748
_cell_angle_gamma 89.919987
loop_
_atom_site_label
_atom_site_type_symbol
_atom_site_fract_x
_atom_site_fract_y
_atom_site_fract_z
_atom_type_partial_charge
C0 C 0.35575 0.25007 0.2254 0.0
O1 O 0.36669 0.25917 0.25307 0.0
Cd2 Cd 0.33817 0.27001 0.30261 0.0
O3 O 0.32653 0.24564 0.22133 0.0
Cd4 Cd 0.27945 0.25385 0.256 0.0
C5 C 0.29976 0.33464 0.26788 0.0
O6 O 0.29844 0.22896 0.30698 0.0
O7 O 0.25472 0.25539 0.31052 0.0
O8 O 0.25656 0.20644 0.22861 0.0
C9 C 0.27512 0.23731 0.3244 0.0
O10 O 0.31801 0.32484 0.29073 0.0
C11 C 0.23188 0.22118 0.21913 0.0
O12 O 0.28462 0.31402 0.25029 0.0
O13 O 0.2293 0.25153 0.22664 0.0
C14 C 0.90246 0.00973 0.51687 0.0
O15 O 0.90335 0.04006 0.52478 0.0
Cd16 Cd 0.94624 0.07763 0.52119 0.0
O17 O 0.92666 0.99522 0.5055 0.0
Cd18 Cd 0.98208 0.01283 0.49731 0.0
C19 C -0.0101 0.03649 0.57752 0.0
O20 O 0.97304 0.06608 0.47109 0.0
O21 O 0.0199 0.05799 0.48829 0.0
O22 O -0.00901 0.97572 0.45043 0.0
C23 C 0.00081 0.07667 0.47323 0.0
O24 O 0.97736 0.06396 0.56974 0.0
C25 C 0.01415 0.96108 0.46369 0.0
O26 O -0.00816 0.01309 0.55667 0.0
O27 O 0.02164 0.97008 0.49261 0.0
C28 C 0.12036 0.73868 0.7023 0.0
O29 O 0.11053 0.73778 0.73183 0.0
Cd30 Cd 0.13967 0.71574 0.7768 0.0
O31 O 0.14831 0.73044 0.69517 0.0
Cd32 Cd 0.19685 0.71557 0.72579 0.0
C33 C 0.163 0.64193 0.74164 0.0
O34 O 0.18655 0.74703 0.7757 0.0
O35 O 0.22442 0.71223 0.77938 0.0
O36 O 0.21878 0.75641 0.6888 0.0
C37 C 0.20849 0.73495 0.79285 0.0
O38 O 0.14711 0.65719 0.76343 0.0
C39 C 0.24408 0.74103 0.68306 0.0
O40 O 0.18213 0.65736 0.72308 0.0
O41 O 0.24759 0.71309 0.69695 0.0
C42 C 0.60401 0.02453 0.99127 0.0
O43 O 0.61186 0.99431 0.99248 0.0
Cd44 Cd 0.58112 0.95226 0.01786 0.0
O45 O 0.57694 0.03391 0.0005 0.0
Cd46 Cd 0.52722 0.00694 0.01766 0.0
C47 C 0.56193 0.99236 0.09062 0.0
O48 O 0.53202 0.95351 0.99067 0.0
O49 O 0.49905 0.9557 0.0308 0.0
O50 O 0.50201 0.03716 0.97357 0.0
C51 C 0.51122 0.93907 0.00761 0.0
O52 O 0.57586 0.9687 0.07594 0.0
C53 C 0.48024 0.04941 0.99099 0.0
O54 O 0.54393 0.01196 0.07488 0.0
O55 O 0.48025 0.04215 0.02153 0.0
C56 C 0.34737 0.77075 0.20749 0.0
O57 O 0.3489 0.76778 0.17636 0.0
Cd58 Cd 0.30786 0.74882 0.14161 0.0
O59 O 0.32149 0.76702 0.22271 0.0
Cd60 Cd 0.26573 0.75793 0.20635 0.0
C61 C 0.28912 0.68034 0.1877 0.0
O62 O 0.2654 0.78471 0.15307 0.0
O63 O 0.22737 0.75108 0.16087 0.0
O64 O 0.2478 0.80175 0.24293 0.0
C65 C 0.24033 0.77222 0.14226 0.0
O66 O 0.29937 0.69163 0.16039 0.0
C67 C 0.22732 0.78421 0.25742 0.0
O68 O 0.27727 0.69943 0.20927 0.0
O69 O 0.22519 0.75422 0.24853 0.0
C70 C 0.59725 -0.00421 0.53774 0.0
O71 O 0.59984 0.027 0.53608 0.0
Cd72 Cd 0.56134 0.06441 0.51573 0.0
O73 O 0.57156 0.98147 0.53064 0.0
Cd74 Cd 0.51726 -0.00099 0.51569 0.0
C75 C 0.54643 0.02459 0.44222 0.0
O76 O 0.51602 0.05028 0.54612 0.0
O77 O 0.47909 0.0451 0.51074 0.0
O78 O 0.49787 0.9576 0.5545 0.0
C79 C 0.49169 0.06241 0.53312 0.0
O80 O 0.55631 0.05032 0.457 0.0
C81 C 0.47727 0.94604 0.5351 0.0
O82 O 0.53309 0.00133 0.45803 0.0
O83 O 0.47564 0.95877 0.50648 0.0
C84 C 0.13142 0.19333 0.73024 0.0
O85 O 0.1316 0.19371 0.69893 0.0
Cd86 Cd 0.1721 0.21722 0.66616 0.0
O87 O 0.15531 0.20246 0.74672 0.0
Cd88 Cd 0.21048 0.21859 0.73424 0.0
C89 C 0.17971 0.29102 0.70803 0.0
O90 O 0.21812 0.1892 0.68303 0.0
O91 O 0.2511 0.22817 0.69148 0.0
O92 O 0.22998 0.17854 0.77421 0.0
C93 C 0.24214 0.20457 0.67326 0.0
O94 O 0.17227 0.27614 0.68146 0.0
C95 C 0.24688 0.19894 0.78997 0.0
O96 O 0.19253 0.27552 0.73184 0.0
O97 O 0.24646 0.22874 0.78007 0.0
C98 C 0.88881 0.01903 0.97323 0.0
O99 O 0.88375 0.99028 0.96193 0.0
Cd100 Cd 0.91595 0.94224 0.96647 0.0
O101 O 0.91424 0.02572 0.98828 0.0
Cd102 Cd 0.96333 0.99393 -0.00161 0.0
C103 C 0.9726 0.9724 0.91725 0.0
O104 O 0.93781 0.94517 0.02062 0.0
O105 O 0.98732 0.94012 0.01284 0.0
O106 O 0.97669 0.02837 0.04631 0.0
C107 C 0.96214 0.92765 0.0237 0.0
O108 O 0.95321 0.94896 0.92152 0.0
C109 C 0.00335 0.0366 0.03506 0.0
O110 O 0.97814 0.99292 0.94025 0.0
O111 O 0.01098 0.02497 0.00715 0.0
C112 C 0.81715 0.25458 0.71575 0.0
O113 O 0.81482 0.25125 0.6847 0.0
Cd114 Cd 0.76827 0.24251 0.65394 0.0
O115 O 0.79284 0.25593 0.73398 0.0
Cd116 Cd 0.73496 0.25647 0.72388 0.0
C117 C 0.74079 0.1768 0.69911 0.0
O118 O 0.73468 0.28549 0.67201 0.0
O119 O 0.69217 0.25952 0.68216 0.0
O120 O 0.72528 0.30027 0.76418 0.0
C121 C 0.70719 0.27851 0.66298 0.0
O122 O 0.75084 0.18722 0.67138 0.0
C123 C 0.70529 0.2838 0.78057 0.0
O124 O 0.735 0.1968 0.7225 0.0
O125 O 0.69959 0.25468 0.77072 0.0
C126 C 0.0723 0.52102 0.04606 0.0
O127 O 0.07186 0.55235 0.04492 0.0
Cd128 Cd 0.0281 0.58438 0.02797 0.0
O129 O 0.04736 0.50434 0.04167 0.0
Cd130 Cd -0.0094 0.51691 0.03418 0.0
C131 C 0.01154 0.54061 0.95741 0.0
O132 O 0.98707 0.56812 0.06409 0.0
O133 O 0.94968 0.56053 0.02963 0.0
O134 O 0.97565 0.47704 0.07643 0.0
C135 C 0.96143 0.57825 0.05224 0.0
O136 O 0.02073 0.5678 0.96991 0.0
C137 C 0.95721 0.46093 0.05787 0.0
O138 O 0.0008 0.51765 0.9756 0.0
O139 O 0.95445 0.4709 0.02828 0.0
C140 C 0.65431 0.6909 0.21933 0.0
O141 O 0.65378 0.69165 0.18803 0.0
Cd142 Cd 0.69513 0.71261 0.15488 0.0
O143 O 0.67929 0.69758 0.23517 0.0
Cd144 Cd 0.73514 0.70899 0.22075 0.0
C145 C 0.70797 0.78408 0.1988 0.0
O146 O 0.73944 0.68002 0.16892 0.0
O147 O 0.77422 0.71748 0.17609 0.0
O148 O 0.7537 0.66731 0.25955 0.0
C149 C 0.76377 0.69422 0.15829 0.0
O150 O 0.69895 0.771 0.17185 0.0
C151 C 0.77203 0.68662 0.27492 0.0
O152 O 0.72066 0.76671 0.22132 0.0
O153 O 0.77298 0.71643 0.26517 0.0
C154 C 0.11121 0.5146 0.53525 0.0
O155 O 0.11844 0.48514 0.54289 0.0
Cd156 Cd 0.0841 0.43901 0.54757 0.0
O157 O 0.08308 0.52247 0.52852 0.0
Cd158 Cd 0.0325 0.49255 0.5295 0.0
C159 C 0.04503 0.47505 0.61067 0.0
O160 O 0.04811 0.4415 0.5025 0.0
O161 O 0.00367 0.44013 0.52756 0.0
O162 O 0.01569 0.52562 0.48266 0.0
C163 C 0.02316 0.42584 0.50877 0.0
O164 O 0.06117 0.45031 0.60137 0.0
C165 C -0.00973 0.53534 0.49569 0.0
O166 O 0.03365 0.49528 0.58973 0.0
O167 O 0.98462 0.52547 0.52486 0.0
C168 C 0.381 0.52234 0.97784 0.0
O169 O 0.37933 0.55362 0.97882 0.0
Cd170 Cd 0.41689 0.5869 0.00665 0.0
O171 O 0.40556 0.5073 0.98753 0.0
Cd172 Cd 0.45943 0.52239 0.00524 0.0
C173 C 0.42354 0.53881 0.07701 0.0
O174 O 0.46537 0.57636 0.98031 0.0
O175 O 0.49515 0.56703 0.02214 0.0
O176 O 0.47981 0.48803 0.96149 0.0
C177 C 0.48739 0.58619 -0.00127 0.0
O178 O 0.41547 0.56623 0.064 0.0
C179 C 0.49892 0.47202 0.97944 0.0
O180 O 0.43854 0.51718 0.06058 0.0
O181 O 0.49954 0.47918 0.00997 0.0
C182 C 0.84625 0.76649 0.7143 0.0
O183 O 0.85352 0.77727 0.74271 0.0
Cd184 Cd 0.8221 0.77648 0.79159 0.0
O185 O 0.8193 0.75429 0.70881 0.0
Cd186 Cd 0.7706 0.74884 0.74152 0.0
C187 C 0.76921 0.83076 0.76152 0.0
O188 O 0.79463 0.72523 0.79063 0.0
O189 O 0.74592 0.73785 0.79546 0.0
O190 O 0.75578 0.70132 0.70773 0.0
C191 C 0.7702 0.72513 0.80827 0.0
O192 O 0.7885 0.82455 0.78464 0.0
C193 C 0.72958 0.7134 0.699 0.0
O194 O 0.7611 0.80841 0.7412 0.0
O195 O 0.72253 0.74164 0.7104 0.0
C196 C 0.61667 0.21843 0.21448 0.0
O197 O 0.60388 0.21486 0.24251 0.0
Cd198 Cd 0.63094 0.19862 0.29153 0.0
O199 O 0.64618 0.21634 0.21096 0.0
Cd200 Cd 0.69219 0.20977 0.24764 0.0
C201 C 0.66886 0.13095 0.25969 0.0
O202 O 0.67222 0.23767 0.29637 0.0
O203 O 0.71444 0.20939 0.30368 0.0
O204 O 0.71386 0.25605 0.21787 0.0
C205 C 0.69423 0.22908 0.31548 0.0
O206 O 0.64895 0.14224 0.28017 0.0
C207 C 0.73967 0.24228 0.21067 0.0
O208 O 0.68648 0.15021 0.24323 0.0
O209 O 0.74365 0.2128 0.22073 0.0
C210 C 0.38075 0.51045 0.51914 0.0
O211 O 0.36927 0.48155 0.51888 0.0
Cd212 Cd 0.39515 0.43532 0.49441 0.0
O213 O 0.40869 0.51571 0.5097 0.0
Cd214 Cd 0.45495 0.4826 0.49346 0.0
C215 C 0.4173 0.47171 0.42099 0.0
O216 O 0.44395 0.43133 0.52219 0.0
O217 O 0.48012 0.42841 0.48527 0.0
O218 O 0.48139 0.51088 0.53749 0.0
C219 C 0.46461 0.41412 0.50784 0.0
O220 O 0.40065 0.45043 0.4361 0.0
C221 C 0.50388 0.52191 0.5203 0.0
O222 O 0.43819 0.48821 0.43617 0.0
O223 O 0.50392 0.51461 0.48977 0.0
C224 C 0.21005 0.16948 0.19477 0.0
C225 C 0.20736 0.20359 0.20038 0.0
C226 C 0.18709 0.15264 0.17703 0.0
C227 C 0.10491 0.1583 0.14877 0.0
H228 H 0.13163 0.09035 0.08764 0.0
C229 C 0.05259 0.06949 0.03858 0.0
C230 C 0.02494 0.05824 0.05356 0.0
C231 C 0.07381 0.08882 0.05615 0.0
C232 C 0.12372 0.10947 0.10434 0.0
H233 H 0.17843 0.24681 0.19185 0.0
H234 H 0.13851 0.21745 0.16029 0.0
H235 H 0.17059 0.12138 0.11825 0.0
H236 H -0.00246 0.05893 0.09854 0.0
H237 H 0.03499 0.09224 0.12957 0.0
H238 H 0.05798 0.14678 0.13416 0.0
C239 C 0.15817 0.20364 0.17006 0.0
C240 C 0.14608 0.12698 0.12225 0.0
C241 C 0.18113 0.2205 0.18796 0.0
C242 C 0.01865 0.06726 0.08634 0.0
C243 C 0.04003 0.08649 0.10404 0.0
C244 C 0.08248 0.14081 0.13073 0.0
C245 C 0.16096 0.16952 0.16429 0.0
C246 C 0.13698 0.15149 0.14481 0.0
C247 C 0.06803 0.09719 0.08923 0.0
C248 C 0.09165 0.11615 0.10832 0.0
H249 H 0.22987 0.15567 0.2042 0.0
H250 H 0.18972 0.12627 0.17357 0.0
H251 H 0.09708 0.17683 0.16616 0.0
H252 H 0.05799 0.06323 0.01324 0.0
H253 H 0.09482 0.09719 0.04376 0.0
C254 C 0.05846 0.92081 0.46129 0.0
C255 C 0.03295 0.93628 0.44572 0.0
C256 C 0.07834 0.90002 0.44353 0.0
C257 C 0.12847 0.8802 0.39474 0.0
H258 H 0.09979 0.82001 0.32689 0.0
C259 C 0.20931 0.8315 0.29222 0.0
C260 C 0.20613 0.7984 0.2825 0.0
C261 C 0.18827 0.84549 0.31455 0.0
C262 C 0.10816 0.83645 0.346 0.0
H263 H 0.00747 0.94096 0.39967 0.0
H264 H 0.04239 0.90487 0.36854 0.0
H265 H 0.06162 0.84814 0.36186 0.0
H266 H 0.17872 0.7538 0.28904 0.0
H267 H 0.142 0.77827 0.32819 0.0
H268 H 0.17497 0.86864 0.37889 0.0
C269 C 0.04688 0.90861 0.39456 0.0
C270 C 0.0863 0.85279 0.36579 0.0
C271 C 0.02695 0.92941 0.41235 0.0
C272 C 0.18176 0.7794 0.29601 0.0
C273 C 0.16062 0.79345 0.31827 0.0
C274 C 0.15029 0.86396 0.37492 0.0
C275 C 0.07318 0.89425 0.4098 0.0
C276 C 0.09621 0.8751 0.39016 0.0
C277 C 0.16352 0.82672 0.32759 0.0
C278 C 0.14038 0.84221 0.35007 0.0
H279 H 0.06358 0.92538 0.48705 0.0
H280 H 0.09808 0.88887 0.45612 0.0
H281 H 0.1369 0.89751 0.41304 0.0
H282 H 0.22779 0.8468 0.28221 0.0
H283 H 0.19091 0.8713 0.32093 0.0
C284 C 0.46156 0.90097 0.57406 0.0
C285 C 0.45523 0.9201 0.54587 0.0
C286 C 0.43971 0.87793 0.58543 0.0
C287 C 0.35664 0.86493 0.58959 0.0
H288 H 0.37559 0.77336 0.60942 0.0
C289 C 0.26047 0.77937 0.63825 0.0
C290 C 0.26864 0.75605 0.66239 0.0
C291 C 0.2836 0.79623 0.62075 0.0
C292 C 0.36995 0.79895 0.60446 0.0
H293 H 0.42135 0.92976 0.50717 0.0
H294 H 0.3828 0.89013 0.52767 0.0
H295 H 0.416 0.80884 0.58564 0.0
H296 H 0.30726 0.73141 0.68676 0.0
H297 H 0.34783 0.762 0.65747 0.0
H298 H 0.3114 0.85617 0.60981 0.0
C299 C 0.40482 0.89277 0.54066 0.0
C300 C 0.39308 0.81915 0.59065 0.0
C301 C 0.4269 0.91533 0.52892 0.0
C302 C 0.30038 0.74917 0.66809 0.0
C303 C 0.32361 0.76665 0.65113 0.0
C304 C 0.33376 0.84503 0.60397 0.0
C305 C 0.41093 0.87411 0.56916 0.0
C306 C 0.38654 0.85226 0.58303 0.0
C307 C 0.31552 0.79089 0.62762 0.0
C308 C 0.33999 0.81169 0.61154 0.0
H309 H 0.48325 0.90408 0.58756 0.0
H310 H 0.44482 0.86394 0.60759 0.0
H311 H 0.35121 0.89056 0.58439 0.0
H312 H 0.23612 0.78483 0.63309 0.0
H313 H 0.27632 0.81384 0.60215 0.0
C314 C 0.42909 0.08003 0.99374 0.0
C315 C 0.45577 0.07041 0.97587 0.0
C316 C 0.40531 0.09833 0.97843 0.0
C317 C 0.35096 0.11517 0.93191 0.0
H318 H 0.37139 0.18355 0.86842 0.0
C319 C 0.26769 0.15483 0.82732 0.0
C320 C 0.26722 0.18811 0.81748 0.0
C321 C 0.28867 0.14396 0.85144 0.0
C322 C 0.36517 0.16489 0.88641 0.0
H323 H 0.47878 0.07309 0.92824 0.0
H324 H 0.4375 0.10476 0.9017 0.0
H325 H 0.4127 0.15937 0.90213 0.0
H326 H 0.28756 0.23637 0.82616 0.0
H327 H 0.32414 0.21739 0.86845 0.0
H328 H 0.30343 0.12042 0.91584 0.0
C329 C 0.43495 0.09848 0.92754 0.0
C330 C 0.38891 0.15078 0.90548 0.0
C331 C 0.45853 0.08009 0.94271 0.0
C332 C 0.28746 0.21052 0.83308 0.0
C333 C 0.30851 0.19963 0.8572 0.0
C334 C 0.32718 0.12923 0.91275 0.0
C335 C 0.40794 0.10757 0.94509 0.0
C336 C 0.38219 0.12526 0.92791 0.0
C337 C 0.3097 0.16612 0.86626 0.0
C338 C 0.33413 0.15378 0.88931 0.0
H339 H 0.42632 0.07294 0.01935 0.0
H340 H 0.38484 0.10517 0.99264 0.0
H341 H 0.34505 0.09543 0.94886 0.0
H342 H 0.25237 0.13693 0.81579 0.0
H343 H 0.28923 0.11792 0.85754 0.0
C344 C 0.66578 0.27955 0.82585 0.0
C345 C 0.68813 0.29832 0.80869 0.0
C346 C 0.64731 0.29406 0.85027 0.0
C347 C 0.59634 0.33753 0.8786 0.0
H348 H 0.626 0.40526 0.93845 0.0
C349 C 0.51596 0.43723 0.93202 0.0
C350 C 0.52001 0.447 0.96497 0.0
C351 C 0.53672 0.41505 0.91743 0.0
C352 C 0.61743 0.38606 0.92223 0.0
H353 H 0.70968 0.34663 0.80472 0.0
H354 H 0.67716 0.37208 0.84708 0.0
H355 H 0.66365 0.37353 0.90592 0.0
H356 H 0.54867 0.44073 0.0087 0.0
H357 H 0.58525 0.4019 0.98297 0.0
H358 H 0.55015 0.35039 0.89442 0.0
C359 C 0.6741 0.34606 0.8419 0.0
C360 C 0.63894 0.36814 0.90338 0.0
C361 C 0.6926 0.33153 0.81746 0.0
C362 C 0.54497 0.43363 0.98325 0.0
C363 C 0.56596 0.41156 0.96851 0.0
C364 C 0.57488 0.35549 0.89732 0.0
C365 C 0.65079 0.32766 0.85806 0.0
C366 C 0.62857 0.34414 0.88088 0.0
C367 C 0.56212 0.40223 0.93538 0.0
C368 C 0.58514 0.38044 0.91878 0.0
H369 H 0.66196 0.25381 0.81986 0.0
H370 H 0.62987 0.27912 0.86264 0.0
H371 H 0.58753 0.31943 0.86131 0.0
H372 H 0.49695 0.44707 0.91727 0.0
H373 H 0.53338 0.40869 0.89173 0.0
C374 C 0.93972 0.42427 0.10402 0.0
C375 C 0.93898 0.43259 0.07038 0.0
C376 C 0.92081 0.39895 0.11624 0.0
C377 C 0.88729 0.33542 0.13441 0.0
H378 H 0.80167 0.33544 0.10262 0.0
C379 C 0.79289 0.2455 0.18458 0.0
C380 C 0.76382 0.26014 0.19166 0.0
C381 C 0.81571 0.26303 0.16706 0.0
C382 C 0.8255 0.33512 0.11177 0.0
H383 H 0.91892 0.41995 0.0229 0.0
H384 H 0.88623 0.37546 0.04415 0.0
H385 H 0.83978 0.37221 0.07748 0.0
H386 H 0.73581 0.30452 0.18583 0.0
H387 H 0.7755 0.33503 0.15574 0.0
H388 H 0.87247 0.29931 0.16975 0.0
C389 C 0.90097 0.38891 0.0612 0.0
C390 C 0.84746 0.35591 0.09708 0.0
C391 C 0.91979 0.41432 0.04901 0.0
C392 C 0.75793 0.29248 0.1807 0.0
C393 C 0.78062 0.30991 0.16321 0.0
C394 C 0.86525 0.31461 0.14916 0.0
C395 C 0.90084 0.38133 0.09506 0.0
C396 C 0.87848 0.35676 0.10861 0.0
C397 C 0.80977 0.29545 0.15621 0.0
C398 C 0.83397 0.31476 0.13843 0.0
H399 H 0.95429 0.43789 0.12111 0.0
H400 H 0.921 0.39404 0.14251 0.0
H401 H 0.9111 0.33518 0.14357 0.0
H402 H 0.79808 0.22058 0.19268 0.0
H403 H 0.83789 0.25118 0.16184 0.0
C404 C 0.97456 0.56585 0.44468 0.0
C405 C 0.96786 0.55614 0.47719 0.0
C406 C 0.95271 0.5838 0.42635 0.0
C407 C 0.90849 0.63473 0.3976 0.0
H408 H 0.8222 0.60529 0.4007 0.0
C409 C 0.81235 0.69638 0.31868 0.0
C410 C 0.79199 0.67469 0.30225 0.0
C411 C 0.83238 0.6847 0.34336 0.0
C412 C 0.84621 0.61377 0.39953 0.0
H413 H 0.93333 0.55842 0.51633 0.0
H414 H 0.89519 0.59007 0.48433 0.0
H415 H 0.86077 0.58019 0.43735 0.0
H416 H 0.77617 0.62391 0.29929 0.0
H417 H 0.81135 0.60347 0.34198 0.0
H418 H 0.89423 0.66733 0.35886 0.0
C419 C 0.91722 0.58341 0.47291 0.0
C420 C 0.86824 0.59967 0.42081 0.0
C421 C 0.93912 0.56544 0.49128 0.0
C422 C 0.79156 0.64125 0.31151 0.0
C423 C 0.81159 0.62958 0.33615 0.0
C424 C 0.88647 0.64882 0.37633 0.0
C425 C 0.92365 0.59249 0.44012 0.0
C426 C 0.89974 0.6096 0.41969 0.0
C427 C 0.83246 0.65109 0.35212 0.0
C428 C 0.85519 0.63812 0.37668 0.0
H429 H -0.00353 0.55904 0.43309 0.0
H430 H 0.95824 0.58999 0.40102 0.0
H431 H 0.9325 0.64322 0.39643 0.0
H432 H 0.81311 0.72233 0.31222 0.0
H433 H 0.84789 0.70198 0.35549 0.0
C434 C 0.55294 0.55601 0.51672 0.0
C435 C 0.52849 0.54247 0.53556 0.0
C436 C 0.57566 0.57592 0.53166 0.0
C437 C 0.62982 0.60104 0.57461 0.0
H438 H 0.60227 0.66247 0.64195 0.0
C439 C 0.71448 0.66287 0.66717 0.0
C440 C 0.70811 0.69552 0.67675 0.0
C441 C 0.69352 0.64574 0.64697 0.0
C442 C 0.61039 0.64578 0.62293 0.0
H443 H 0.509 0.53875 0.58486 0.0
H444 H 0.54857 0.5729 0.61077 0.0
H445 H 0.56379 0.6304 0.61172 0.0
H446 H 0.67537 0.73622 0.6718 0.0
H447 H 0.63914 0.7066 0.63623 0.0
H448 H 0.67651 0.61678 0.58573 0.0
C449 C 0.54999 0.56874 0.58442 0.0
C450 C 0.58833 0.62708 0.60588 0.0
C451 C 0.52739 0.54896 0.56957 0.0
C452 C 0.68078 0.71096 0.66512 0.0
C453 C 0.65995 0.69393 0.64482 0.0
C454 C 0.65197 0.61984 0.59169 0.0
C455 C 0.57425 0.58268 0.56566 0.0
C456 C 0.59779 0.60414 0.58188 0.0
C457 C 0.66585 0.66099 0.63585 0.0
C458 C 0.6425 0.64218 0.6163 0.0
H459 H 0.55438 0.55145 0.49045 0.0
H460 H 0.594 0.58647 0.51653 0.0
H461 H 0.63785 0.58345 0.55636 0.0
H462 H 0.73537 0.65032 0.67573 0.0
H463 H 0.6986 0.62027 0.64085 0.0
C464 C 0.29838 0.21278 0.37565 0.0
C465 C 0.27368 0.22966 0.36004 0.0
C466 C 0.29746 0.20657 0.40957 0.0
C467 C 0.29749 0.21602 0.48436 0.0
H468 H 0.21915 0.18999 0.52495 0.0
C469 C 0.27263 0.22513 0.62452 0.0
C470 C 0.25299 0.20125 0.63878 0.0
C471 C 0.27865 0.22475 0.5906 0.0
C472 C 0.24135 0.19681 0.51401 0.0
H473 H 0.22856 0.25302 0.36769 0.0
H474 H 0.22701 0.24232 0.42682 0.0
H475 H 0.22199 0.19638 0.46537 0.0
H476 H 0.22619 0.15684 0.62917 0.0
H477 H 0.2371 0.15586 0.57023 0.0
H478 H 0.31681 0.21641 0.53317 0.0
C479 C 0.24696 0.23359 0.41283 0.0
C480 C 0.24285 0.20089 0.47988 0.0
C481 C 0.24792 0.23988 0.37897 0.0
C482 C 0.24113 0.17581 0.61885 0.0
C483 C 0.24722 0.17536 0.58504 0.0
C484 C 0.29598 0.21199 0.51861 0.0
C485 C 0.27176 0.21697 0.42855 0.0
C486 C 0.27081 0.21091 0.46467 0.0
C487 C 0.26522 0.2004 0.57034 0.0
C488 C 0.2678 0.2026 0.53384 0.0
H489 H 0.31856 0.20456 0.36172 0.0
H490 H 0.31677 0.1934 0.42091 0.0
H491 H 0.31934 0.22397 0.4734 0.0
H492 H 0.28215 0.24504 0.63924 0.0
H493 H 0.29249 0.24449 0.58005 0.0
C494 C 0.00053 0.00814 0.8764 0.0
C495 C 0.98651 0.97773 0.88427 0.0
C496 C 0.00961 0.01508 0.84405 0.0
C497 C 0.02624 0.97904 0.76266 0.0
H498 H 0.9867 0.05835 0.72873 0.0
C499 C 0.00197 -0.00137 0.62454 0.0
C500 C -3e-05 0.03087 0.61192 0.0
C501 C 0.00751 0.99331 0.65807 0.0
C502 C -0.00134 0.03655 0.73775 0.0
H503 H 0.97299 0.92993 0.86482 0.0
H504 H -0.01079 0.942 0.80835 0.0
H505 H 0.98458 0.04647 0.78736 0.0
H506 H 0.00442 0.08279 0.62397 0.0
H507 H 0.01543 0.07356 0.68222 0.0
H508 H 0.04027 0.96897 0.71305 0.0
C509 C -0.007 0.96047 0.82723 0.0
C510 C -0.0027 0.0297 0.77143 0.0
C511 C 0.98355 0.95366 0.85952 0.0
C512 C 0.00542 0.05765 0.63311 0.0
C513 C 0.01154 0.05233 0.66655 0.0
C514 C 0.02803 0.98613 0.72895 0.0
C515 C 0.00526 0.99158 0.81905 0.0
C516 C 0.01045 0.00054 0.78409 0.0
C517 C 0.01171 0.02013 0.67967 0.0
C518 C 0.01357 0.01458 0.71593 0.0
H519 H 0.00322 0.02721 0.89489 0.0
H520 H 0.01923 0.03916 0.83837 0.0
H521 H 0.03681 0.95653 0.77192 0.0
H522 H -0.00227 0.97747 0.60885 0.0
H523 H 0.007 0.96819 0.66721 0.0
C524 C 0.19117 0.76549 0.84326 0.0
C525 C 0.21196 0.74321 0.82818 0.0
C526 C 0.19319 0.77194 0.87704 0.0
C527 C 0.19017 0.76332 0.95161 0.0
H528 H 0.27104 0.77323 0.99383 0.0
C529 C 0.20921 0.75462 0.09286 0.0
C530 C 0.23202 0.7752 0.10697 0.0
C531 C 0.20469 0.75426 0.05868 0.0
C532 C 0.24823 0.7709 0.98239 0.0
H533 H 0.25152 0.71067 0.83657 0.0
H534 H 0.25501 0.72186 0.89558 0.0
H535 H 0.26824 0.76608 0.93427 0.0
H536 H 0.26654 0.81305 0.09659 0.0
H537 H 0.25838 0.81271 0.03714 0.0
H538 H 0.17019 0.76822 -0.00016 0.0
C539 C 0.23728 0.73452 0.88123 0.0
C540 C 0.24667 0.76639 0.9483 0.0
C541 C 0.2352 0.728 0.84746 0.0
C542 C 0.24899 0.79667 0.08644 0.0
C543 C 0.24447 0.79634 0.05235 0.0
C544 C 0.19174 0.76773 0.98578 0.0
C545 C 0.21612 0.75635 0.89645 0.0
C546 C 0.21765 0.76233 0.93254 0.0
C547 C 0.22287 0.77451 0.038 0.0
C548 C 0.22081 0.77141 0.00156 0.0
H549 H 0.17302 0.77768 0.82906 0.0
H550 H 0.17681 0.7892 0.88795 0.0
H551 H 0.16746 0.75996 0.94023 0.0
H552 H 0.19574 0.7378 0.10803 0.0
H553 H 0.18797 0.73705 0.04837 0.0
C554 C 0.55302 0.9899 0.39181 0.0
C555 C 0.5513 0.02129 0.40631 0.0
C556 C 0.5581 0.98661 0.35795 0.0
C557 C 0.58219 0.0341 0.28281 0.0
H558 H 0.54108 0.96161 0.23796 0.0
C559 C 0.55856 0.02652 0.142 0.0
C560 C 0.56612 -0.00353 0.12658 0.0
C561 C 0.56109 0.02977 0.17621 0.0
C562 C 0.553 0.98174 0.25025 0.0
H563 H 0.55336 0.07391 0.3968 0.0
H564 H 0.56053 0.06834 0.33748 0.0
H565 H 0.53587 0.967 0.29737 0.0
H566 H 0.58299 0.94655 0.13486 0.0
H567 H 0.58646 0.95205 0.19477 0.0
H568 H 0.59789 0.04952 0.23489 0.0
C569 C 0.55912 0.04612 0.35227 0.0
C570 C 0.55018 0.98482 0.28438 0.0
C571 C 0.55471 0.04937 0.38628 0.0
C572 C 0.57692 0.96999 0.146 0.0
C573 C 0.57885 0.97306 0.18024 0.0
C574 C 0.58454 0.03131 0.24851 0.0
C575 C 0.56086 0.01466 0.3376 0.0
C576 C 0.56468 0.01107 0.30121 0.0
C577 C 0.57067 0.00286 0.19564 0.0
C578 C 0.56988 0.00513 0.232 0.0
H579 H 0.55094 0.96779 0.40672 0.0
H580 H 0.56007 0.96196 0.34786 0.0
H581 H 0.59418 0.0543 0.29483 0.0
H582 H 0.55041 0.04743 0.12767 0.0
H583 H 0.55447 0.05293 0.18761 0.0
C584 C 0.40212 0.26952 0.19462 0.0
C585 C 0.37728 0.24715 0.19726 0.0
C586 C 0.42447 0.26585 0.17001 0.0
C587 C 0.4657 0.20041 0.13383 0.0
H588 H 0.51499 0.27558 0.10562 0.0
C589 C 0.59396 0.20034 0.16096 0.0
C590 C 0.59661 0.22428 0.18579 0.0
C591 C 0.56937 0.20211 0.13815 0.0
C592 C 0.50144 0.25395 0.11218 0.0
H593 H 0.355 0.20452 0.17525 0.0
H594 H 0.39557 0.19686 0.13275 0.0
H595 H 0.45822 0.2805 0.10919 0.0
H596 H 0.57826 0.27019 0.20482 0.0
H597 H 0.53601 0.27395 0.16483 0.0
H598 H 0.50906 0.1751 0.14065 0.0
C599 C 0.39715 0.21771 0.14937 0.0
C600 C 0.46893 0.25676 0.11426 0.0
C601 C 0.37417 0.22193 0.17372 0.0
C602 C 0.57653 0.25156 0.18574 0.0
C603 C 0.55257 0.25379 0.16257 0.0
C604 C 0.4982 0.19755 0.13161 0.0
C605 C 0.42288 0.2393 0.14777 0.0
C606 C 0.4513 0.23116 0.12853 0.0
C607 C 0.54772 0.22824 0.13963 0.0
C608 C 0.51643 0.22547 0.12419 0.0
H609 H 0.40475 0.28946 0.2122 0.0
H610 H 0.44427 0.28255 0.16999 0.0
H611 H 0.45268 0.18008 0.14448 0.0
H612 H 0.60925 0.17897 0.16087 0.0
H613 H 0.56599 0.182 0.12094 0.0
C614 C 0.03911 0.37668 0.4754 0.0
C615 C 0.01971 0.39074 0.49963 0.0
C616 C 0.0374 0.34293 0.4684 0.0
C617 C 0.01963 0.26512 0.50789 0.0
H618 H 0.01138 0.22884 0.41977 0.0
C619 C 0.03394 0.12655 0.48314 0.0
C620 C 0.00772 0.11205 0.46806 0.0
C621 C 0.03757 0.16082 0.48315 0.0
C622 C 0.01382 0.23873 0.44445 0.0
H623 H 0.98283 0.38067 0.53498 0.0
H624 H 0.98038 0.32155 0.52321 0.0
H625 H 0.01182 0.28901 0.4276 0.0
H626 H 0.966 0.12183 0.43914 0.0
H627 H 0.97278 0.18181 0.43861 0.0
H628 H 0.02184 0.2151 0.52482 0.0
C629 C -0.00324 0.33674 0.50958 0.0
C630 C 0.01414 0.27301 0.4489 0.0
C631 C -0.00192 0.37055 0.51619 0.0
C632 C 0.98637 0.13234 0.45107 0.0
C633 C -0.00973 0.16661 0.45067 0.0
C634 C 0.01988 0.23098 0.50339 0.0
C635 C 0.01663 0.32259 0.4859 0.0
C636 C 0.01673 0.28644 0.48073 0.0
C637 C 0.01536 0.18118 0.46762 0.0
C638 C 0.01679 0.21745 0.47168 0.0
H639 H 0.05592 0.39169 0.46217 0.0
H640 H 0.05303 0.33254 0.45011 0.0
H641 H 0.02192 0.2749 0.53263 0.0
H642 H 0.05082 0.1116 0.49639 0.0
H643 H 0.05727 0.17151 0.49613 0.0
C644 C 0.86995 0.74534 0.66171 0.0
C645 C 0.86963 0.76836 0.68763 0.0
C646 C 0.89485 0.74488 0.63922 0.0
C647 C 0.96726 0.79068 0.61484 0.0
H648 H 0.00767 0.70621 0.62934 0.0
C649 C 0.07833 0.77512 0.68138 0.0
C650 C 0.09835 0.74825 0.67618 0.0
C651 C 0.05304 0.78054 0.66042 0.0
C652 C -0.00328 0.7297 0.62372 0.0
H653 H 0.89323 0.81077 0.70857 0.0
H654 H 0.93626 0.81008 0.66978 0.0
H655 H 0.95119 0.71025 0.63315 0.0
H656 H 0.1094 0.70726 0.64397 0.0
H657 H 0.06385 0.71582 0.60786 0.0
H658 H 0.01331 0.81075 0.6094 0.0
C659 C 0.91757 0.79234 0.66648 0.0
C660 C 0.96419 0.73204 0.62594 0.0
C661 C 0.89313 0.79244 0.68913 0.0
C662 C 0.09417 0.72823 0.64827 0.0
C663 C 0.06825 0.73314 0.62765 0.0
C664 C -0.00019 0.78836 0.61279 0.0
C665 C 0.91937 0.76787 0.64199 0.0
C666 C 0.94952 0.7631 0.62453 0.0
C667 C 0.04682 0.75865 0.63433 0.0
C668 C 0.01487 0.7584 0.6202 0.0
H669 H 0.85195 0.72661 0.65992 0.0
H670 H 0.89569 0.7257 0.62064 0.0
H671 H 0.95641 0.81479 0.61276 0.0
H672 H 0.08126 0.79088 0.70273 0.0
H673 H 0.03673 0.8001 0.66659 0.0
C674 C 0.49388 0.63994 0.96943 0.0
C675 C 0.49659 0.62127 -0.00147 0.0
C676 C 0.49837 0.67411 0.97001 0.0
C677 C 0.48436 0.74359 0.02124 0.0
H678 H 0.5439 0.79202 0.96778 0.0
C679 C 0.49792 0.88474 0.03326 0.0
C680 C 0.50711 0.90297 0.00545 0.0
C681 C 0.49719 0.85027 0.0322 0.0
C682 C 0.52668 0.77903 0.98243 0.0
H683 H 0.50686 0.62344 0.05087 0.0
H684 H 0.51373 0.68349 0.05199 0.0
H685 H 0.54335 0.73178 0.96599 0.0
H686 H 0.52149 0.89971 0.95436 0.0
H687 H 0.51842 0.83971 0.95175 0.0
H688 H 0.46638 0.79029 0.03654 0.0
C689 C 0.5086 0.67148 0.02875 0.0
C690 C 0.52668 0.74451 0.9816 0.0
C691 C 0.50486 0.6372 0.02803 0.0
C692 C 0.51449 0.88618 0.97622 0.0
C693 C 0.51306 0.85173 0.9749 0.0
C694 C 0.48383 0.77807 0.02153 0.0
C695 C 0.50492 0.69019 -0.00016 0.0
C696 C 0.50565 0.72659 0.00115 0.0
C697 C 0.50494 0.83321 0.00306 0.0
C698 C 0.50509 0.79635 0.00224 0.0
H699 H 0.48749 0.62822 0.94639 0.0
H700 H 0.49532 0.68815 0.94746 0.0
H701 H 0.4676 0.73016 0.03615 0.0
H702 H 0.49247 0.89704 0.05626 0.0
H703 H 0.49139 0.83708 0.05461 0.0
C704 C 0.61673 0.71039 0.26205 0.0
C705 C 0.62415 0.68814 0.23664 0.0
C706 C 0.5854 0.71633 0.27033 0.0
C707 C 0.51426 0.71855 0.22284 0.0
H708 H 0.47262 0.74596 0.3033 0.0
C709 C 0.38212 0.75294 0.2537 0.0
C710 C 0.37706 0.77294 0.22581 0.0
C711 C 0.41269 0.74591 0.26412 0.0
C712 C 0.48412 0.73839 0.28074 0.0
H713 H 0.60555 0.65121 0.20348 0.0
H714 H 0.55111 0.66054 0.21881 0.0
H715 H 0.52481 0.71994 0.30619 0.0
H716 H 0.39919 0.80491 0.18993 0.0
H717 H 0.45231 0.7935 0.20867 0.0
H718 H 0.47436 0.73688 0.1972 0.0
C719 C 0.5692 0.67424 0.23154 0.0
C720 C 0.51381 0.72351 0.28238 0.0
C721 C 0.60034 0.66875 0.22288 0.0
C722 C 0.40255 0.78913 0.21126 0.0
C723 C 0.43291 0.78248 0.2219 0.0
C724 C 0.48509 0.73358 0.22121 0.0
C725 C 0.56132 0.69977 0.2535 0.0
C726 C 0.52906 0.71334 0.25334 0.0
C727 C 0.43833 0.75907 0.24688 0.0
C728 C 0.46978 0.74396 0.25 0.0
H729 H 0.63472 0.72572 0.27294 0.0
H730 H 0.58002 0.73609 0.28739 0.0
H731 H 0.52559 0.71171 0.19994 0.0
H732 H 0.36279 0.74007 0.26525 0.0
H733 H 0.41625 0.72782 0.28348 0.0
C734 C 0.46127 0.11301 0.51722 0.0
C735 C 0.48414 0.09784 0.53705 0.0
C736 C 0.45735 0.14731 0.51777 0.0
C737 C 0.4457 0.22003 0.53368 0.0
H738 H 0.52286 0.27041 0.53125 0.0
C739 C 0.44728 0.36264 0.53665 0.0
C740 C 0.46755 0.3783 0.51426 0.0
C741 C 0.44895 0.32855 0.54165 0.0
C742 C 0.50112 0.25669 0.5318 0.0
H743 H 0.51954 0.10651 0.57443 0.0
H744 H 0.51248 0.1662 0.57559 0.0
H745 H 0.52501 0.21051 0.53662 0.0
H746 H 0.5058 0.37062 0.47994 0.0
H747 H 0.50867 0.31102 0.48867 0.0
H748 H 0.42187 0.26625 0.52805 0.0
C749 C 0.49799 0.15169 0.55917 0.0
C750 C 0.50232 0.22241 0.53527 0.0
C751 C 0.50188 0.11746 0.55865 0.0
C752 C 0.48987 0.35925 0.4974 0.0
C753 C 0.49162 0.32516 0.5025 0.0
C754 C 0.4445 0.25438 0.53034 0.0
C755 C 0.47624 0.16708 0.53815 0.0
C756 C 0.47464 0.20366 0.53606 0.0
C757 C 0.471 0.3094 0.5245 0.0
C758 C 0.47222 0.27305 0.52912 0.0
H759 H 0.44721 0.09856 0.50034 0.0
H760 H 0.44048 0.15843 0.50117 0.0
H761 H 0.42398 0.20629 0.5344 0.0
H762 H 0.42986 0.37664 0.55007 0.0
H763 H 0.43302 0.31718 0.55908 0.0
C764 C 0.09025 0.21019 0.77011 0.0
C765 C 0.10136 0.18739 0.74684 0.0
C766 C 0.0583 0.21156 0.77758 0.0
C767 C 0.98707 0.19484 0.73119 0.0
H768 H 0.94531 0.23445 0.80633 0.0
C769 C 0.85415 0.23708 0.76056 0.0
C770 C 0.84874 0.25324 0.73036 0.0
C771 C 0.88473 0.22859 0.76997 0.0
C772 C 0.9567 0.22314 0.78532 0.0
H773 H 0.08917 0.14529 0.7167 0.0
H774 H 0.03382 0.14622 0.73126 0.0
H775 H -0.00086 0.21366 0.81217 0.0
H776 H 0.87089 0.27648 0.68825 0.0
H777 H 0.92396 0.26244 0.70493 0.0
H778 H 0.94523 0.20453 0.7042 0.0
C779 C 0.04928 0.1641 0.74259 0.0
C780 C 0.98745 0.21134 0.78858 0.0
C781 C 0.08098 0.16331 0.73446 0.0
C782 C 0.87438 0.26358 0.7114 0.0
C783 C 0.90472 0.2554 0.72087 0.0
C784 C 0.95666 0.2066 0.72797 0.0
C785 C 0.03721 0.18977 0.76224 0.0
C786 C 0.00318 0.19759 0.7613 0.0
C787 C 0.91008 0.23637 0.74931 0.0
C788 C 0.94144 0.22169 0.75465 0.0
H789 H 0.10558 0.22911 0.77985 0.0
H790 H 0.04991 0.23163 0.79283 0.0
H791 H -0.0016 0.18507 0.7094 0.0
H792 H 0.83472 0.22879 0.77559 0.0
H793 H 0.88829 0.21402 0.79208 0.0
C794 C 0.93158 0.87967 0.04541 0.0
C795 C 0.95998 0.89256 0.03357 0.0
C796 C 0.92866 0.84601 0.05241 0.0
C797 C 0.923 0.77174 0.04387 0.0
H798 H -0.00703 0.72222 0.07946 0.0
C799 C 0.9348 0.62993 0.03286 0.0
C800 C 0.95185 0.61294 0.05719 0.0
C801 C 0.93138 0.66426 0.03455 0.0
C802 C 0.97292 0.73563 0.07004 0.0
H803 H 0.00779 0.88039 0.02038 0.0
H804 H 0.0026 0.82161 0.03196 0.0
H805 H -0.00338 0.78181 0.0748 0.0
H806 H 0.97616 0.61793 0.10382 0.0
H807 H 0.96924 0.67751 0.10745 0.0
H808 H 0.89916 0.72545 0.03954 0.0
C809 C 0.98267 0.83753 0.03641 0.0
C810 C 0.97525 0.76986 0.06686 0.0
C811 C 0.98563 0.87123 0.0296 0.0
C812 C 0.96324 0.63048 0.0845 0.0
C813 C 0.9595 0.66466 0.08642 0.0
C814 C 0.92058 0.73745 0.04725 0.0
C815 C 0.95405 0.82444 0.04759 0.0
C816 C 0.95055 0.78831 0.05323 0.0
C817 C 0.94467 0.68216 0.0608 0.0
C818 C 0.94571 0.71891 0.05995 0.0
H819 H 0.91142 0.89553 0.0489 0.0
H820 H 0.90645 0.8369 0.06151 0.0
H821 H 0.90358 0.78511 0.03301 0.0
H822 H 0.92582 0.61705 0.01146 0.0
H823 H 0.91994 0.67687 0.01429 0.0
C824 C 0.28783 0.38119 0.22909 0.0
C825 C 0.29831 0.37029 0.26014 0.0
C826 C 0.28892 0.41469 0.22085 0.0
C827 C 0.28575 0.49615 0.25642 0.0
H828 H 0.32595 0.52635 0.17613 0.0
C829 C 0.29517 0.63445 0.22817 0.0
C830 C 0.29231 0.64485 0.19528 0.0
C831 C 0.29838 0.60102 0.23576 0.0
C832 C 0.31413 0.51834 0.19835 0.0
H833 H 0.31779 0.38604 0.30701 0.0
H834 H 0.31877 0.4447 0.29283 0.0
H835 H 0.32623 0.4676 0.18989 0.0
H836 H 0.29083 0.62858 0.14444 0.0
H837 H 0.29463 0.56991 0.15768 0.0
H838 H 0.2725 0.54618 0.26462 0.0
C839 C 0.31004 0.42718 0.27487 0.0
C840 C 0.31451 0.48472 0.20628 0.0
C841 C 0.30943 0.39365 0.28294 0.0
C842 C 0.29297 0.62118 0.17003 0.0
C843 C 0.29544 0.58757 0.17767 0.0
C844 C 0.28493 0.5296 0.2483 0.0
C845 C 0.30001 0.43791 0.24369 0.0
C846 C 0.30029 0.47342 0.23537 0.0
C847 C 0.29796 0.57703 0.2107 0.0
C848 C 0.29918 0.54124 0.21921 0.0
H849 H 0.27942 0.36377 0.21088 0.0
H850 H 0.28081 0.42251 0.19674 0.0
H851 H 0.27432 0.48791 0.27881 0.0
H852 H 0.29538 0.65223 0.24811 0.0
H853 H 0.30125 0.59409 0.26138 0.0
C854 C 0.73389 0.12899 0.73741 0.0
C855 C 0.73746 0.14093 0.70504 0.0
C856 C 0.73321 0.09513 0.74364 0.0
C857 C 0.71863 0.01408 0.70771 0.0
H858 H 0.77819 0.98327 0.7731 0.0
C859 C 0.74933 0.87599 0.72505 0.0
C860 C 0.75842 0.86505 0.75653 0.0
C861 C 0.74315 0.9094 0.71933 0.0
C862 C 0.76091 0.99136 0.75528 0.0
H863 H 0.74185 0.12664 0.65369 0.0
H864 H 0.74019 0.06719 0.6647 0.0
H865 H 0.77366 0.04199 0.76178 0.0
H866 H 0.76612 0.87999 0.80719 0.0
H867 H 0.7539 0.93794 0.79767 0.0
H868 H 0.70543 0.96351 0.70153 0.0
C869 C 0.73809 0.08425 0.68514 0.0
C870 C 0.75851 0.02505 0.74867 0.0
C871 C 0.7392 0.11821 0.6789 0.0
C872 C 0.75953 0.88781 0.78257 0.0
C873 C 0.75278 0.92108 0.77701 0.0
C874 C 0.72067 0.9803 0.71467 0.0
C875 C 0.73568 0.07247 0.71764 0.0
C876 C 0.73746 0.03671 0.72477 0.0
C877 C 0.74541 0.9325 0.74512 0.0
C878 C 0.74196 0.96849 0.73849 0.0
H879 H 0.73247 0.14578 0.75814 0.0
H880 H 0.73107 0.08662 0.76889 0.0
H881 H 0.70208 0.02256 0.68929 0.0
H882 H 0.74846 0.85902 0.70445 0.0
H883 H 0.7379 0.91722 0.69438 0.0
C884 C 0.32951 0.51687 0.95002 0.0
C885 C 0.35201 0.50382 0.9716 0.0
C886 C 0.29846 0.50658 0.95211 0.0
C887 C 0.24184 0.4532 -0.00198 0.0
H888 H 0.198 0.53669 0.00645 0.0
C889 C 0.12832 0.52056 0.06202 0.0
C890 C 0.10303 0.50452 0.04693 0.0
C891 C 0.1589 0.51135 0.0545 0.0
C892 C 0.20993 0.51315 0.00437 0.0
H893 H 0.36078 0.46709 0.00942 0.0
H894 H 0.30623 0.45008 0.01409 0.0
H895 H 0.24993 0.53579 0.98306 0.0
H896 H 0.08959 0.46393 0.01512 0.0
H897 H 0.14345 0.44814 0.00148 0.0
H898 H 0.20127 0.43104 0.02045 0.0
C899 C 0.3125 0.46773 -0.00487 0.0
C900 C 0.23953 0.5125 0.99032 0.0
C901 C 0.34379 0.47753 0.99249 0.0
C902 C 0.10875 0.47667 0.02712 0.0
C903 C 0.13952 0.46764 0.01928 0.0
C904 C 0.21177 0.45385 0.01198 0.0
C905 C 0.28926 0.48385 0.97653 0.0
C906 C 0.25609 0.48266 0.98728 0.0
C907 C 0.16471 0.48625 0.03142 0.0
C908 C 0.19596 0.48404 0.01593 0.0
H909 H 0.33544 0.53689 0.9334 0.0
H910 H 0.28116 0.51871 0.93672 0.0
H911 H 0.25407 0.42986 -0.00396 0.0
H912 H 0.12451 0.54184 0.07769 0.0
H913 H 0.17802 0.52562 0.06472 0.0
C914 C 0.66239 0.07266 0.27897 0.0
C915 C 0.67061 0.09505 0.25395 0.0
C916 C 0.66415 0.03866 0.27339 0.0
C917 C 0.66146 0.97574 0.20978 0.0
H918 H 0.71529 0.92438 0.26733 0.0
C919 C 0.69749 0.84168 0.1787 0.0
C920 C 0.70222 0.81954 0.20492 0.0
C921 C 0.69184 0.87514 0.1849 0.0
C922 C 0.69962 0.93806 0.25136 0.0
H923 H 0.68608 0.09962 0.20321 0.0
H924 H 0.68827 0.0401 0.19321 0.0
H925 H 0.70707 0.98278 0.27839 0.0
H926 H 0.70368 0.81479 0.25819 0.0
H927 H 0.69262 0.87253 0.26905 0.0
H928 H 0.65322 0.93106 0.18314 0.0
C929 C 0.68091 0.04893 0.21721 0.0
C930 C 0.69509 0.97158 0.25768 0.0
C931 C 0.67992 0.08288 0.22303 0.0
C932 C 0.70065 0.83136 0.23742 0.0
C933 C 0.69443 0.86459 0.24363 0.0
C934 C 0.66546 0.94201 0.20379 0.0
C935 C 0.67331 0.02658 0.24242 0.0
C936 C 0.67628 0.99073 0.23676 0.0
C937 C 0.69024 0.88705 0.21749 0.0
C938 C 0.6849 0.92277 0.22431 0.0
H939 H 0.65504 0.08141 0.30299 0.0
H940 H 0.65808 0.02179 0.29313 0.0
H941 H 0.6467 0.99014 0.19344 0.0
H942 H 0.69862 0.83325 0.15338 0.0
H943 H 0.68926 0.89171 0.16409 0.0
C944 C 0.84254 0.04108 0.9434 0.0
C945 C 0.86421 0.04433 0.96918 0.0
C946 C 0.8163 0.06139 0.94187 0.0
C947 C 0.76342 0.0988 -0.00045 0.0
H948 H 0.71606 0.10966 0.91865 0.0
C949 C 0.63215 0.07788 -0.00035 0.0
C950 C 0.62765 0.0489 0.98125 0.0
C951 C 0.65906 0.09701 -0.00518 0.0
C952 C 0.72902 0.10772 0.94155 0.0
H953 H 0.87688 0.07316 0.01213 0.0
H954 H 0.83027 0.1086 0.00987 0.0
H955 H 0.77317 0.1092 0.91673 0.0
H956 H 0.64558 0.01884 0.94141 0.0
H957 H 0.69188 0.05253 0.93227 0.0
H958 H 0.71929 0.09471 0.02399 0.0
C959 C 0.83373 0.09025 0.9908 0.0
C960 C 0.76169 0.10729 0.94048 0.0
C961 C 0.86037 0.07001 0.9921 0.0
C962 C 0.64868 0.04104 0.95594 0.0
C963 C 0.67501 0.06054 0.95055 0.0
C964 C 0.73076 0.09961 0.00067 0.0
C965 C 0.81087 0.08536 0.96627 0.0
C966 C 0.77907 0.09997 0.96907 0.0
C967 C 0.68122 0.08782 0.97092 0.0
C968 C 0.71335 0.1014 0.97132 0.0
H969 H 0.84512 0.02179 0.9251 0.0
H970 H 0.7991 0.05646 0.92288 0.0
H971 H 0.77601 0.09327 0.02209 0.0
H972 H 0.61623 0.08427 0.01944 0.0
H973 H 0.66345 0.1178 0.01095 0.0
C974 C 0.16783 0.58999 0.70845 0.0
C975 C 0.15885 0.60588 0.73778 0.0
C976 C 0.1643 0.55584 0.7051 0.0
C977 C 0.16913 0.48208 0.75227 0.0
H978 H 0.12616 0.43796 0.68054 0.0
C979 C 0.17011 0.34066 0.74316 0.0
C980 C 0.17279 0.32662 0.71164 0.0
C981 C 0.1638 0.37429 0.74682 0.0
C982 C 0.13861 0.44988 0.70051 0.0
H983 H 0.13856 0.59853 0.78631 0.0
H984 H 0.13349 0.53863 0.78075 0.0
H985 H 0.12321 0.49814 0.68539 0.0
H986 H 0.17067 0.33674 0.65918 0.0
H987 H 0.16117 0.39577 0.66545 0.0
H988 H 0.18611 0.4347 0.76661 0.0
C989 C 0.14285 0.5528 0.76032 0.0
C990 C 0.13669 0.48427 0.70334 0.0
C991 C 0.1458 0.587 0.76346 0.0
C992 C 0.16869 0.34687 0.68381 0.0
C993 C 0.16296 0.3807 0.68745 0.0
C994 C 0.17157 0.44789 0.74912 0.0
C995 C 0.15227 0.53696 0.73122 0.0
C996 C 0.15213 0.50057 0.72915 0.0
C997 C 0.16067 0.39493 0.71904 0.0
C998 C 0.15653 0.43127 0.72308 0.0
H999 H 0.17767 0.60391 0.68812 0.0
H1000 H 0.17193 0.54402 0.68253 0.0
H1001 H 0.18153 0.49425 0.77215 0.0
H1002 H 0.17262 0.32558 0.7651 0.0
H1003 H 0.16143 0.38405 0.77153 0.0
C1004 C 0.13652 0.5668 0.51489 0.0
C1005 C 0.13557 0.54017 0.53712 0.0
C1006 C 0.16185 0.58882 0.51543 0.0
C1007 C 0.23324 0.61082 0.56389 0.0
H1008 H 0.27662 0.59397 0.48177 0.0
C1009 C 0.33845 0.53445 0.5534 0.0
C1010 C 0.36041 0.53831 0.52809 0.0
C1011 C 0.31487 0.5578 0.55778 0.0
C1012 C 0.26493 0.60028 0.50462 0.0
H1013 H 0.15832 0.51728 0.5791 0.0
H1014 H 0.20191 0.55531 0.5803 0.0
H1015 H 0.21989 0.59371 0.48278 0.0
H1016 H 0.37669 0.57051 0.48898 0.0
H1017 H 0.33414 0.6108 0.49557 0.0
H1018 H 0.2785 0.61295 0.58645 0.0
C1019 C 0.18353 0.55952 0.56236 0.0
C1020 C 0.23226 0.60014 0.5052 0.0
C1021 C 0.15882 0.53729 0.56132 0.0
C1022 C 0.35993 0.56714 0.50875 0.0
C1023 C 0.33574 0.59019 0.51255 0.0
C1024 C 0.26591 0.61072 0.56336 0.0
C1025 C 0.18592 0.58492 0.53882 0.0
C1026 C 0.21635 0.60208 0.53544 0.0
C1027 C 0.31235 0.58503 0.53635 0.0
C1028 C 0.28185 0.60224 0.53429 0.0
H1029 H 0.11862 0.56959 0.49616 0.0
H1030 H 0.16327 0.60801 0.49686 0.0
H1031 H 0.22142 0.61326 0.58741 0.0
H1032 H 0.33852 0.51247 0.56868 0.0
H1033 H 0.29694 0.55281 0.576 0.0
C1034 C 0.79929 0.7034 0.85739 0.0
C1035 C 0.77153 0.71601 0.8436 0.0
C1036 C 0.80128 0.6968 0.89118 0.0
C1037 C 0.80521 0.70579 0.96561 0.0
H1038 H 0.73342 0.67132 0.01274 0.0
C1039 C 0.79029 0.71516 0.10721 0.0
C1040 C 0.77314 0.6904 0.12341 0.0
C1041 C 0.79413 0.71423 0.07294 0.0
C1042 C 0.75392 0.68047 -1e-05 0.0
H1043 H 0.72392 0.73112 0.85439 0.0
H1044 H 0.72748 0.72008 0.91334 0.0
H1045 H 0.73134 0.67651 0.95312 0.0
H1046 H 0.74888 0.64389 0.11692 0.0
H1047 H 0.75632 0.64175 0.05743 0.0
H1048 H 0.82789 0.7094 0.01262 0.0
C1049 C 0.74762 0.71479 0.89802 0.0
C1050 C 0.75253 0.68392 0.96577 0.0
C1051 C 0.7456 0.72129 0.86422 0.0
C1052 C 0.76187 0.66355 0.10505 0.0
C1053 C 0.76593 0.66246 0.07091 0.0
C1054 C 0.80666 0.70221 -9e-05 0.0
C1055 C 0.77556 0.70271 0.91198 0.0
C1056 C 0.77795 0.69706 0.94817 0.0
C1057 C 0.78109 0.68839 0.05427 0.0
C1058 C 0.78088 0.68985 0.01757 0.0
H1059 H 0.81966 0.69895 0.84212 0.0
H1060 H 0.82299 0.68705 0.90101 0.0
H1061 H 0.82516 0.71625 0.95288 0.0
H1062 H 0.79925 0.73619 0.1207 0.0
H1063 H 0.80582 0.73471 0.06097 0.0
C1064 C 0.39574 0.45449 0.36617 0.0
C1065 C 0.41151 0.47796 0.38556 0.0
C1066 C 0.39043 0.46036 0.33264 0.0
C1067 C 0.38397 0.5249 0.26991 0.0
H1068 H 0.42046 0.4608 0.21034 0.0
C1069 C 0.41324 0.55701 0.13492 0.0
C1070 C 0.41488 0.53163 0.11149 0.0
C1071 C 0.40684 0.54974 0.16796 0.0
C1072 C 0.40935 0.47869 0.22632 0.0
H1073 H 0.43317 0.52638 0.38529 0.0
H1074 H 0.42347 0.53676 0.32676 0.0
H1075 H 0.41904 0.44927 0.26904 0.0
H1076 H 0.40888 0.47916 0.10349 0.0
H1077 H 0.39594 0.46659 0.16056 0.0
H1078 H 0.37395 0.55431 0.22738 0.0
C1079 C 0.41538 0.51382 0.33757 0.0
C1080 C 0.40873 0.47205 0.26008 0.0
C1081 C 0.4212 0.50772 0.37093 0.0
C1082 C 0.40843 0.4991 0.12127 0.0
C1083 C 0.40118 0.49192 0.15408 0.0
C1084 C 0.38407 0.53135 0.23602 0.0
C1085 C 0.40024 0.49007 0.31809 0.0
C1086 C 0.39682 0.49545 0.28221 0.0
C1087 C 0.40118 0.51698 0.17812 0.0
C1088 C 0.39752 0.5087 0.21379 0.0
H1089 H 0.38793 0.43135 0.37676 0.0
H1090 H 0.37875 0.44168 0.31804 0.0
H1091 H 0.37427 0.54313 0.28657 0.0
H1092 H 0.41807 0.58233 0.12795 0.0
H1093 H 0.4075 0.56974 0.18561 0.0
C1094 C 0.67067 0.25945 0.36313 0.0
C1095 C 0.69421 0.23864 0.35067 0.0
C1096 C 0.66998 0.26774 0.39657 0.0
C1097 C 0.66336 0.2642 0.47129 0.0
H1098 H 0.74112 0.28108 0.51753 0.0
C1099 C 0.67566 0.262 0.61354 0.0
C1100 C 0.69818 0.28265 0.62803 0.0
C1101 C 0.67203 0.26127 0.57924 0.0
C1102 C 0.7191 0.27694 0.50496 0.0
H1103 H 0.73561 0.21036 0.36345 0.0
H1104 H 0.73426 0.2245 0.42186 0.0
H1105 H 0.74202 0.27078 0.45852 0.0
H1106 H 0.73251 0.32083 0.61837 0.0
H1107 H 0.72557 0.32025 0.55874 0.0
H1108 H 0.64045 0.27062 0.51786 0.0
C1109 C 0.71653 0.23479 0.40572 0.0
C1110 C 0.71969 0.27053 0.47117 0.0
C1111 C 0.71723 0.22653 0.37228 0.0
C1112 C 0.71521 0.30437 0.60785 0.0
C1113 C 0.71142 0.30384 0.57367 0.0
C1114 C 0.66276 0.27066 0.50518 0.0
C1115 C 0.69284 0.25541 0.41829 0.0
C1116 C 0.6919 0.26372 0.45397 0.0
C1117 C 0.69069 0.28137 0.55886 0.0
C1118 C 0.69067 0.27685 0.52246 0.0
H1119 H 0.65263 0.26928 0.34708 0.0
H1120 H 0.65167 0.28402 0.40536 0.0
H1121 H 0.64154 0.2588 0.45883 0.0
H1122 H 0.66222 0.24493 0.62845 0.0
H1123 H 0.65592 0.24357 0.56867 0.0
C1124 C 0.04763 0.45668 0.66961 0.0
C1125 C 0.04151 0.48163 0.64632 0.0
C1126 C 0.04551 0.46333 0.70333 0.0
C1127 C 0.05138 0.52786 0.76466 0.0
H1128 H -0.00609 0.47499 0.81651 0.0
C1129 C 0.01995 0.56091 0.89951 0.0
C1130 C 0.01495 0.53469 0.92161 0.0
C1131 C 0.02386 0.55479 0.8658 0.0
C1132 C 0.01049 0.48968 0.80263 0.0
H1133 H 0.02919 0.5333 0.64012 0.0
H1134 H 0.02598 0.5449 0.6992 0.0
H1135 H 0.00103 0.46296 0.75817 0.0
H1136 H 0.01089 0.48144 0.92579 0.0
H1137 H 0.01871 0.47071 0.86757 0.0
H1138 H 0.06162 0.55406 0.80914 0.0
C1139 C 0.03212 0.52022 0.69118 0.0
C1140 C 0.0144 0.48282 0.76918 0.0
C1141 C 0.03366 0.51345 0.65745 0.0
C1142 C 0.01423 0.50226 0.90937 0.0
C1143 C 0.01859 0.49612 0.87586 0.0
C1144 C 0.04788 0.53442 0.79831 0.0
C1145 C 0.03783 0.49516 0.71433 0.0
C1146 C 0.0347 0.50195 0.74992 0.0
C1147 C 0.02328 0.52227 0.85355 0.0
C1148 C 0.02727 0.51547 0.81772 0.0
H1149 H 0.05397 0.43199 0.66181 0.0
H1150 H 0.05015 0.44369 0.72085 0.0
H1151 H 0.06737 0.54275 0.7502 0.0
H1152 H 0.02058 0.58618 0.90821 0.0
H1153 H 0.02695 0.5756 0.84933 0.0
C1154 C 0.85217 0.00281 0.5468 0.0
C1155 C 0.87328 0.99115 0.52296 0.0
C1156 C 0.82409 0.98647 0.55257 0.0
C1157 C 0.76498 0.9407 0.51031 0.0
H1158 H 0.72887 0.93848 0.59807 0.0
C1159 C 0.63236 0.94736 0.52768 0.0
C1160 C 0.6255 0.97633 0.5453 0.0
C1161 C 0.66235 0.93341 0.52937 0.0
C1162 C 0.73868 0.93829 0.57343 0.0
H1163 H 0.88187 0.95268 0.48695 0.0
H1164 H 0.83165 0.92446 0.49634 0.0
H1165 H 0.7855 0.94314 0.59154 0.0
H1166 H 0.64318 0.01163 0.58074 0.0
H1167 H 0.695 0.9871 0.5843 0.0
H1168 H 0.718 0.9386 0.49217 0.0
C1169 C 0.83736 0.94609 0.51081 0.0
C1170 C 0.77104 0.94099 0.56968 0.0
C1171 C 0.86596 0.96223 0.50542 0.0
C1172 C 0.64798 0.98936 0.56683 0.0
C1173 C 0.67759 0.97511 0.56903 0.0
C1174 C 0.73255 0.93799 0.51405 0.0
C1175 C 0.81614 0.95821 0.5344 0.0
C1176 C 0.78427 0.94433 0.53812 0.0
C1177 C 0.68554 0.94786 0.54927 0.0
C1178 C 0.71902 0.93889 0.54566 0.0
H1179 H 0.85724 0.02483 0.56097 0.0
H1180 H 0.808 -0.00319 0.57044 0.0
H1181 H 0.77453 0.94325 0.48569 0.0
H1182 H 0.61538 0.93697 0.51078 0.0
H1183 H 0.66788 0.9124 0.51391 0.0
loop_
_geom_bond_atom_site_label_1
_geom_bond_atom_site_label_2
_geom_bond_distance
_geom_bond_site_symmetry_2
_ccdc_geom_bond_type
C0 O1 1.306 . S
C0 O3 1.160 . S
O1 C0 1.306 . S
O1 Cd2 2.228 . S
Cd2 O1 2.228 . S
Cd2 O6 2.273 . S
Cd2 O10 2.277 . S
O3 C0 1.160 . S
O3 Cd4 2.203 . S
Cd4 O3 2.203 . S
Cd4 O6 2.411 . S
Cd4 O7 2.333 . S
Cd4 O8 2.352 . S
Cd4 O12 2.277 . S
Cd4 O13 2.356 . S
C5 O10 1.209 . S
C5 O12 1.226 . S
O6 Cd2 2.273 . S
O6 Cd4 2.411 . S
O6 C9 1.320 . S
O7 Cd4 2.333 . S
O7 C9 1.214 . S
O8 Cd4 2.352 . S
O8 C11 1.258 . S
C9 O6 1.320 . S
C9 O7 1.214 . S
O10 Cd2 2.277 . S
O10 C5 1.209 . S
C11 O8 1.258 . S
C11 O13 1.282 . S
O12 Cd4 2.277 . S
O12 C5 1.226 . S
O13 Cd4 2.356 . S
O13 C11 1.282 . S
C14 O15 1.306 1_565 S
C14 O17 1.160 . S
O15 C14 1.306 1_545 S
O15 Cd16 2.228 . S
Cd16 O15 2.228 . S
Cd16 O20 2.273 . S
Cd16 O24 2.277 . S
O17 C14 1.160 . S
O17 Cd18 2.203 1_565 S
Cd18 O17 2.203 1_545 S
Cd18 O20 2.411 . S
Cd18 O21 2.333 1_655 S
Cd18 O22 2.352 1_545 S
Cd18 O26 2.277 1_545 S
Cd18 O27 2.356 1_645 S
C19 O24 1.209 . S
C19 O26 1.226 1_545 S
O20 Cd16 2.273 . S
O20 Cd18 2.411 . S
O20 C23 1.320 . S
O21 Cd18 2.333 1_455 S
O21 C23 1.214 1_455 S
O22 Cd18 2.352 1_565 S
O22 C25 1.283 . S
C23 O20 1.320 . S
C23 O21 1.214 1_655 S
O24 Cd16 2.277 . S
O24 C19 1.209 . S
C25 O22 1.283 . S
C25 O27 1.273 1_655 S
O26 Cd18 2.277 1_565 S
O26 C19 1.226 1_565 S
O27 Cd18 2.356 1_465 S
O27 C25 1.273 1_455 S
C28 O29 1.306 . S
C28 O31 1.160 . S
O29 C28 1.306 . S
O29 Cd30 2.228 . S
Cd30 O29 2.228 . S
Cd30 O34 2.273 . S
Cd30 O38 2.277 . S
O31 C28 1.160 . S
O31 Cd32 2.203 . S
Cd32 O31 2.203 . S
Cd32 O34 2.411 . S
Cd32 O35 2.333 . S
Cd32 O36 2.352 . S
Cd32 O40 2.277 . S
Cd32 O41 2.356 . S
C33 O38 1.209 . S
C33 O40 1.226 . S
O34 Cd30 2.273 . S
O34 Cd32 2.411 . S
O34 C37 1.320 . S
O35 Cd32 2.333 . S
O35 C37 1.214 . S
O36 Cd32 2.352 . S
O36 C39 1.258 . S
C37 O34 1.320 . S
C37 O35 1.214 . S
O38 Cd30 2.277 . S
O38 C33 1.209 . S
C39 O36 1.258 . S
C39 O41 1.282 . S
O40 Cd32 2.277 . S
O40 C33 1.226 . S
O41 Cd32 2.356 . S
O41 C39 1.282 . S
C42 O43 1.311 1_545 S
C42 O45 1.162 . S
O43 C42 1.311 1_565 S
O43 Cd44 2.228 . S
Cd44 O43 2.228 . S
Cd44 O48 2.276 . S
Cd44 O52 2.277 . S
O45 C42 1.162 . S
O45 Cd46 2.203 1_545 S
Cd46 O45 2.203 1_565 S
Cd46 O48 2.412 . S
Cd46 O49 2.333 . S
Cd46 O50 2.352 1_564 S
Cd46 O54 2.277 1_565 S
Cd46 O55 2.356 1_564 S
C47 O52 1.209 . S
C47 O54 1.226 1_565 S
O48 Cd44 2.276 . S
O48 Cd46 2.412 . S
O48 C51 1.321 . S
O49 Cd46 2.333 . S
O49 C51 1.214 . S
O50 Cd46 2.352 1_546 S
O50 C53 1.258 . S
C51 O48 1.321 . S
C51 O49 1.214 . S
O52 Cd44 2.277 . S
O52 C47 1.209 . S
C53 O50 1.258 . S
C53 O55 1.282 . S
O54 Cd46 2.277 1_545 S
O54 C47 1.226 1_545 S
O55 Cd46 2.356 1_546 S
O55 C53 1.282 . S
C56 O57 1.306 . S
C56 O59 1.160 . S
O57 C56 1.306 . S
O57 Cd58 2.228 . S
Cd58 O57 2.228 . S
Cd58 O62 2.273 . S
Cd58 O66 2.277 . S
O59 C56 1.160 . S
O59 Cd60 2.203 . S
Cd60 O59 2.203 . S
Cd60 O62 2.411 . S
Cd60 O63 2.333 . S
Cd60 O64 2.352 . S
Cd60 O68 2.277 . S
Cd60 O69 2.356 . S
C61 O66 1.209 . S
C61 O68 1.226 . S
O62 Cd58 2.273 . S
O62 Cd60 2.411 . S
O62 C65 1.320 . S
O63 Cd60 2.333 . S
O63 C65 1.214 . S
O64 Cd60 2.352 . S
O64 C67 1.258 . S
C65 O62 1.320 . S
C65 O63 1.214 . S
O66 Cd58 2.277 . S
O66 C61 1.209 . S
C67 O64 1.258 . S
C67 O69 1.282 . S
O68 Cd60 2.277 . S
O68 C61 1.226 . S
O69 Cd60 2.356 . S
O69 C67 1.282 . S
C70 O71 1.306 1_565 S
C70 O73 1.160 . S
O71 C70 1.306 1_545 S
O71 Cd72 2.228 . S
Cd72 O71 2.228 . S
Cd72 O76 2.273 . S
Cd72 O80 2.277 . S
O73 C70 1.160 . S
O73 Cd74 2.203 1_565 S
Cd74 O73 2.203 1_545 S
Cd74 O76 2.411 . S
Cd74 O77 2.333 . S
Cd74 O78 2.352 1_545 S
Cd74 O82 2.277 1_545 S
Cd74 O83 2.356 1_545 S
C75 O80 1.209 . S
C75 O82 1.226 1_545 S
O76 Cd72 2.273 . S
O76 Cd74 2.411 . S
O76 C79 1.320 . S
O77 Cd74 2.333 . S
O77 C79 1.214 . S
O78 Cd74 2.352 1_565 S
O78 C81 1.258 . S
C79 O76 1.320 . S
C79 O77 1.214 . S
O80 Cd72 2.277 . S
O80 C75 1.209 . S
C81 O78 1.258 . S
C81 O83 1.282 . S
O82 Cd74 2.277 1_565 S
O82 C75 1.226 1_565 S
O83 Cd74 2.356 1_565 S
O83 C81 1.282 . S
C84 O85 1.306 . S
C84 O87 1.160 . S
O85 C84 1.306 . S
O85 Cd86 2.228 . S
Cd86 O85 2.228 . S
Cd86 O90 2.273 . S
Cd86 O94 2.277 . S
O87 C84 1.160 . S
O87 Cd88 2.203 . S
Cd88 O87 2.203 . S
Cd88 O90 2.411 . S
Cd88 O91 2.333 . S
Cd88 O92 2.352 . S
Cd88 O96 2.277 . S
Cd88 O97 2.356 . S
C89 O94 1.209 . S
C89 O96 1.226 . S
O90 Cd86 2.273 . S
O90 Cd88 2.411 . S
O90 C93 1.320 . S
O91 Cd88 2.333 . S
O91 C93 1.214 . S
O92 Cd88 2.352 . S
O92 C95 1.258 . S
C93 O90 1.320 . S
C93 O91 1.214 . S
O94 Cd86 2.277 . S
O94 C89 1.209 . S
C95 O92 1.258 . S
C95 O97 1.282 . S
O96 Cd88 2.277 . S
O96 C89 1.226 . S
O97 Cd88 2.356 . S
O97 C95 1.282 . S
C98 O99 1.311 1_545 S
C98 O101 1.162 . S
O99 C98 1.311 1_565 S
O99 Cd100 2.228 . S
Cd100 O99 2.228 . S
Cd100 O104 2.276 . S
Cd100 O108 2.277 . S
O101 C98 1.162 . S
O101 Cd102 2.203 1_545 S
Cd102 O101 2.203 1_565 S
Cd102 O104 2.412 . S
Cd102 O105 2.333 1_655 S
Cd102 O106 2.352 1_566 S
Cd102 O110 2.277 1_565 S
Cd102 O111 2.356 1_666 S
C103 O108 1.209 . S
C103 O110 1.226 1_565 S
O104 Cd100 2.276 . S
O104 Cd102 2.412 . S
O104 C107 1.321 . S
O105 Cd102 2.333 1_455 S
O105 C107 1.214 1_455 S
O106 Cd102 2.352 1_544 S
O106 C109 1.283 . S
C107 O104 1.321 . S
C107 O105 1.214 1_655 S
O108 Cd100 2.277 . S
O108 C103 1.209 . S
C109 O106 1.283 . S
C109 O111 1.273 1_655 S
O110 Cd102 2.277 1_545 S
O110 C103 1.226 1_545 S
O111 Cd102 2.356 1_444 S
O111 C109 1.273 1_455 S
C112 O113 1.306 . S
C112 O115 1.160 . S
O113 C112 1.306 . S
O113 Cd114 2.228 . S
Cd114 O113 2.228 . S
Cd114 O118 2.273 . S
Cd114 O122 2.277 . S
O115 C112 1.160 . S
O115 Cd116 2.203 . S
Cd116 O115 2.203 . S
Cd116 O118 2.411 . S
Cd116 O119 2.333 . S
Cd116 O120 2.352 . S
Cd116 O124 2.277 . S
Cd116 O125 2.356 . S
C117 O122 1.209 . S
C117 O124 1.226 . S
O118 Cd114 2.273 . S
O118 Cd116 2.411 . S
O118 C121 1.320 . S
O119 Cd116 2.333 . S
O119 C121 1.214 . S
O120 Cd116 2.352 . S
O120 C123 1.258 . S
C121 O118 1.320 . S
C121 O119 1.214 . S
O122 Cd114 2.277 . S
O122 C117 1.209 . S
C123 O120 1.258 . S
C123 O125 1.282 . S
O124 Cd116 2.277 . S
O124 C117 1.226 . S
O125 Cd116 2.356 . S
O125 C123 1.282 . S
C126 O127 1.311 . S
C126 O129 1.162 . S
O127 C126 1.311 . S
O127 Cd128 2.228 . S
Cd128 O127 2.228 . S
Cd128 O132 2.276 . S
Cd128 O136 2.277 . S
O129 C126 1.162 . S
O129 Cd130 2.203 . S
Cd130 O129 2.203 . S
Cd130 O132 2.412 . S
Cd130 O133 2.333 1_455 S
Cd130 O134 2.352 1_556 S
Cd130 O138 2.277 . S
Cd130 O139 2.356 1_456 S
C131 O136 1.209 . S
C131 O138 1.226 . S
O132 Cd128 2.276 . S
O132 Cd130 2.412 . S
O132 C135 1.321 . S
O133 Cd130 2.333 1_655 S
O133 C135 1.214 1_655 S
O134 Cd130 2.352 1_554 S
O134 C137 1.283 . S
C135 O132 1.321 . S
C135 O133 1.214 1_455 S
O136 Cd128 2.277 . S
O136 C131 1.209 . S
C137 O134 1.283 . S
C137 O139 1.273 1_455 S
O138 Cd130 2.277 . S
O138 C131 1.226 . S
O139 Cd130 2.356 1_654 S
O139 C137 1.273 1_655 S
C140 O141 1.306 . S
C140 O143 1.160 . S
O141 C140 1.306 . S
O141 Cd142 2.228 . S
Cd142 O141 2.228 . S
Cd142 O146 2.273 . S
Cd142 O150 2.277 . S
O143 C140 1.160 . S
O143 Cd144 2.203 . S
Cd144 O143 2.203 . S
Cd144 O146 2.411 . S
Cd144 O147 2.333 . S
Cd144 O148 2.352 . S
Cd144 O152 2.277 . S
Cd144 O153 2.356 . S
C145 O150 1.209 . S
C145 O152 1.226 . S
O146 Cd142 2.273 . S
O146 Cd144 2.411 . S
O146 C149 1.320 . S
O147 Cd144 2.333 . S
O147 C149 1.214 . S
O148 Cd144 2.352 . S
O148 C151 1.258 . S
C149 O146 1.320 . S
C149 O147 1.214 . S
O150 Cd142 2.277 . S
O150 C145 1.209 . S
C151 O148 1.258 . S
C151 O153 1.282 . S
O152 Cd144 2.277 . S
O152 C145 1.226 . S
O153 Cd144 2.356 . S
O153 C151 1.282 . S
C154 O155 1.306 . S
C154 O157 1.160 . S
O155 C154 1.306 . S
O155 Cd156 2.228 . S
Cd156 O155 2.228 . S
Cd156 O160 2.273 . S
Cd156 O164 2.277 . S
O157 C154 1.160 . S
O157 Cd158 2.203 . S
Cd158 O157 2.203 . S
Cd158 O160 2.411 . S
Cd158 O161 2.333 1_455 S
Cd158 O162 2.352 . S
Cd158 O166 2.277 . S
Cd158 O167 2.356 1_455 S
C159 O164 1.209 . S
C159 O166 1.226 . S
O160 Cd156 2.273 . S
O160 Cd158 2.411 . S
O160 C163 1.320 . S
O161 Cd158 2.333 1_655 S
O161 C163 1.214 1_655 S
O162 Cd158 2.352 . S
O162 C165 1.283 . S
C163 O160 1.320 . S
C163 O161 1.214 1_455 S
O164 Cd156 2.277 . S
O164 C159 1.209 . S
C165 O162 1.283 . S
C165 O167 1.273 1_455 S
O166 Cd158 2.277 . S
O166 C159 1.226 . S
O167 Cd158 2.356 1_655 S
O167 C165 1.273 1_655 S
C168 O169 1.311 . S
C168 O171 1.162 . S
O169 C168 1.311 . S
O169 Cd170 2.228 . S
Cd170 O169 2.228 . S
Cd170 O174 2.276 . S
Cd170 O178 2.277 . S
O171 C168 1.162 . S
O171 Cd172 2.203 . S
Cd172 O171 2.203 . S
Cd172 O174 2.412 . S
Cd172 O175 2.333 . S
Cd172 O176 2.352 1_554 S
Cd172 O180 2.277 . S
Cd172 O181 2.356 1_554 S
C173 O178 1.209 . S
C173 O180 1.226 . S
O174 Cd170 2.276 . S
O174 Cd172 2.412 . S
O174 C177 1.321 . S
O175 Cd172 2.333 . S
O175 C177 1.214 . S
O176 Cd172 2.352 1_556 S
O176 C179 1.258 . S
C177 O174 1.321 . S
C177 O175 1.214 . S
O178 Cd170 2.277 . S
O178 C173 1.209 . S
C179 O176 1.258 . S
C179 O181 1.282 . S
O180 Cd172 2.277 . S
O180 C173 1.226 . S
O181 Cd172 2.356 1_556 S
O181 C179 1.282 . S
C182 O183 1.306 . S
C182 O185 1.160 . S
O183 C182 1.306 . S
O183 Cd184 2.228 . S
Cd184 O183 2.228 . S
Cd184 O188 2.273 . S
Cd184 O192 2.277 . S
O185 C182 1.160 . S
O185 Cd186 2.203 . S
Cd186 O185 2.203 . S
Cd186 O188 2.411 . S
Cd186 O189 2.333 . S
Cd186 O190 2.352 . S
Cd186 O194 2.277 . S
Cd186 O195 2.356 . S
C187 O192 1.209 . S
C187 O194 1.226 . S
O188 Cd184 2.273 . S
O188 Cd186 2.411 . S
O188 C191 1.320 . S
O189 Cd186 2.333 . S
O189 C191 1.214 . S
O190 Cd186 2.352 . S
O190 C193 1.258 . S
C191 O188 1.320 . S
C191 O189 1.214 . S
O192 Cd184 2.277 . S
O192 C187 1.209 . S
C193 O190 1.258 . S
C193 O195 1.282 . S
O194 Cd186 2.277 . S
O194 C187 1.226 . S
O195 Cd186 2.356 . S
O195 C193 1.282 . S
C196 O197 1.306 . S
C196 O199 1.160 . S
O197 C196 1.306 . S
O197 Cd198 2.228 . S
Cd198 O197 2.228 . S
Cd198 O202 2.273 . S
Cd198 O206 2.277 . S
O199 C196 1.160 . S
O199 Cd200 2.203 . S
Cd200 O199 2.203 . S
Cd200 O202 2.411 . S
Cd200 O203 2.333 . S
Cd200 O204 2.352 . S
Cd200 O208 2.277 . S
Cd200 O209 2.356 . S
C201 O206 1.209 . S
C201 O208 1.226 . S
O202 Cd198 2.273 . S
O202 Cd200 2.411 . S
O202 C205 1.320 . S
O203 Cd200 2.333 . S
O203 C205 1.214 . S
O204 Cd200 2.352 . S
O204 C207 1.258 . S
C205 O202 1.320 . S
C205 O203 1.214 . S
O206 Cd198 2.277 . S
O206 C201 1.209 . S
C207 O204 1.258 . S
C207 O209 1.282 . S
O208 Cd200 2.277 . S
O208 C201 1.226 . S
O209 Cd200 2.356 . S
O209 C207 1.282 . S
C210 O211 1.306 . S
C210 O213 1.160 . S
O211 C210 1.306 . S
O211 Cd212 2.228 . S
Cd212 O211 2.228 . S
Cd212 O216 2.273 . S
Cd212 O220 2.277 . S
O213 C210 1.160 . S
O213 Cd214 2.203 . S
Cd214 O213 2.203 . S
Cd214 O216 2.411 . S
Cd214 O217 2.333 . S
Cd214 O218 2.352 . S
Cd214 O222 2.277 . S
Cd214 O223 2.356 . S
C215 O220 1.209 . S
C215 O222 1.226 . S
O216 Cd212 2.273 . S
O216 Cd214 2.411 . S
O216 C219 1.320 . S
O217 Cd214 2.333 . S
O217 C219 1.214 . S
O218 Cd214 2.352 . S
O218 C221 1.258 . S
C219 O216 1.320 . S
C219 O217 1.214 . S
O220 Cd212 2.277 . S
O220 C215 1.209 . S
C221 O218 1.258 . S
C221 O223 1.282 . S
O222 Cd214 2.277 . S
O222 C215 1.226 . S
O223 Cd214 2.356 . S
O223 C221 1.282 . S
C224 C225 1.349 . S
C224 C226 1.327 . S
C224 H249 0.950 . S
C225 C224 1.349 . S
C225 C241 1.349 . S
C226 C224 1.327 . S
C226 C245 1.429 . S
C226 H250 0.950 . S
C227 C244 1.574 . S
C227 C246 1.368 . S
C227 H251 0.949 . S
H228 C232 0.949 . S
C229 C230 1.349 . S
C229 C231 1.327 . S
C229 H252 0.950 . S
C230 C229 1.349 . S
C230 C242 1.349 . S
C231 C229 1.327 . S
C231 C247 1.429 . S
C231 H253 0.950 . S
C232 H228 0.949 . S
C232 C240 1.574 . S
C232 C248 1.368 . S
H233 C241 0.950 . S
H234 C239 0.950 . S
H235 C240 0.949 . S
H236 C242 0.950 . S
H237 C243 0.950 . S
H238 C244 0.949 . S
C239 H234 0.950 . S
C239 C241 1.327 . S
C239 C245 1.429 . S
C240 C232 1.574 . S
C240 H235 0.949 . S
C240 C246 1.368 . S
C241 C225 1.349 . S
C241 H233 0.950 . S
C241 C239 1.327 . S
C242 C230 1.349 . S
C242 H236 0.950 . S
C242 C243 1.327 . S
C243 H237 0.950 . S
C243 C242 1.327 . S
C243 C247 1.429 . S
C244 C227 1.574 . S
C244 H238 0.949 . S
C244 C248 1.368 . S
C245 C226 1.429 . S
C245 C239 1.429 . S
C245 C246 1.523 . S
C246 C227 1.368 . S
C246 C240 1.368 . S
C246 C245 1.523 . S
C247 C231 1.429 . S
C247 C243 1.429 . S
C247 C248 1.523 . S
C248 C232 1.368 . S
C248 C244 1.368 . S
C248 C247 1.523 . S
H249 C224 0.950 . S
H250 C226 0.950 . S
H251 C227 0.949 . S
H252 C229 0.950 . S
H253 C231 0.950 . S
C254 C255 1.349 . S
C254 C256 1.327 . S
C254 H279 0.950 . S
C255 C254 1.349 . S
C255 C271 1.349 . S
C256 C254 1.327 . S
C256 C275 1.429 . S
C256 H280 0.950 . S
C257 C274 1.574 . S
C257 C276 1.368 . S
C257 H281 0.949 . S
H258 C262 0.949 . S
C259 C260 1.349 . S
C259 C261 1.327 . S
C259 H282 0.950 . S
C260 C259 1.349 . S
C260 C272 1.349 . S
C261 C259 1.327 . S
C261 C277 1.429 . S
C261 H283 0.950 . S
C262 H258 0.949 . S
C262 C270 1.574 . S
C262 C278 1.368 . S
H263 C271 0.950 . S
H264 C269 0.950 . S
H265 C270 0.949 . S
H266 C272 0.950 . S
H267 C273 0.950 . S
H268 C274 0.949 . S
C269 H264 0.950 . S
C269 C271 1.327 . S
C269 C275 1.429 . S
C270 C262 1.574 . S
C270 H265 0.949 . S
C270 C276 1.368 . S
C271 C255 1.349 . S
C271 H263 0.950 . S
C271 C269 1.327 . S
C272 C260 1.349 . S
C272 H266 0.950 . S
C272 C273 1.327 . S
C273 H267 0.950 . S
C273 C272 1.327 . S
C273 C277 1.429 . S
C274 C257 1.574 . S
C274 H268 0.949 . S
C274 C278 1.368 . S
C275 C256 1.429 . S
C275 C269 1.429 . S
C275 C276 1.523 . S
C276 C257 1.368 . S
C276 C270 1.368 . S
C276 C275 1.523 . S
C277 C261 1.429 . S
C277 C273 1.429 . S
C277 C278 1.523 . S
C278 C262 1.368 . S
C278 C274 1.368 . S
C278 C277 1.523 . S
H279 C254 0.950 . S
H280 C256 0.950 . S
H281 C257 0.949 . S
H282 C259 0.950 . S
H283 C261 0.950 . S
C284 C285 1.349 . S
C284 C286 1.327 . S
C284 H309 0.950 . S
C285 C284 1.349 . S
C285 C301 1.349 . S
C286 C284 1.327 . S
C286 C305 1.429 . S
C286 H310 0.950 . S
C287 C304 1.574 . S
C287 C306 1.368 . S
C287 H311 0.949 . S
H288 C292 0.949 . S
C289 C290 1.349 . S
C289 C291 1.327 . S
C289 H312 0.950 . S
C290 C289 1.349 . S
C290 C302 1.349 . S
C291 C289 1.327 . S
C291 C307 1.429 . S
C291 H313 0.950 . S
C292 H288 0.949 . S
C292 C300 1.574 . S
C292 C308 1.368 . S
H293 C301 0.950 . S
H294 C299 0.950 . S
H295 C300 0.949 . S
H296 C302 0.950 . S
H297 C303 0.950 . S
H298 C304 0.949 . S
C299 H294 0.950 . S
C299 C301 1.327 . S
C299 C305 1.429 . S
C300 C292 1.574 . S
C300 H295 0.949 . S
C300 C306 1.368 . S
C301 C285 1.349 . S
C301 H293 0.950 . S
C301 C299 1.327 . S
C302 C290 1.349 . S
C302 H296 0.950 . S
C302 C303 1.327 . S
C303 H297 0.950 . S
C303 C302 1.327 . S
C303 C307 1.429 . S
C304 C287 1.574 . S
C304 H298 0.949 . S
C304 C308 1.368 . S
C305 C286 1.429 . S
C305 C299 1.429 . S
C305 C306 1.523 . S
C306 C287 1.368 . S
C306 C300 1.368 . S
C306 C305 1.523 . S
C307 C291 1.429 . S
C307 C303 1.429 . S
C307 C308 1.523 . S
C308 C292 1.368 . S
C308 C304 1.368 . S
C308 C307 1.523 . S
H309 C284 0.950 . S
H310 C286 0.950 . S
H311 C287 0.949 . S
H312 C289 0.950 . S
H313 C291 0.950 . S
C314 C315 1.349 . S
C314 C316 1.327 . S
C314 H339 0.950 . S
C315 C314 1.349 . S
C315 C331 1.349 . S
C316 C314 1.327 . S
C316 C335 1.429 . S
C316 H340 0.950 . S
C317 C334 1.574 . S
C317 C336 1.368 . S
C317 H341 0.949 . S
H318 C322 0.949 . S
C319 C320 1.349 . S
C319 C321 1.327 . S
C319 H342 0.950 . S
C320 C319 1.349 . S
C320 C332 1.349 . S
C321 C319 1.327 . S
C321 C337 1.429 . S
C321 H343 0.950 . S
C322 H318 0.949 . S
C322 C330 1.574 . S
C322 C338 1.368 . S
H323 C331 0.950 . S
H324 C329 0.950 . S
H325 C330 0.949 . S
H326 C332 0.950 . S
H327 C333 0.950 . S
H328 C334 0.949 . S
C329 H324 0.950 . S
C329 C331 1.327 . S
C329 C335 1.429 . S
C330 C322 1.574 . S
C330 H325 0.949 . S
C330 C336 1.368 . S
C331 C315 1.349 . S
C331 H323 0.950 . S
C331 C329 1.327 . S
C332 C320 1.349 . S
C332 H326 0.950 . S
C332 C333 1.327 . S
C333 H327 0.950 . S
C333 C332 1.327 . S
C333 C337 1.429 . S
C334 C317 1.574 . S
C334 H328 0.949 . S
C334 C338 1.368 . S
C335 C316 1.429 . S
C335 C329 1.429 . S
C335 C336 1.523 . S
C336 C317 1.368 . S
C336 C330 1.368 . S
C336 C335 1.523 . S
C337 C321 1.429 . S
C337 C333 1.429 . S
C337 C338 1.523 . S
C338 C322 1.368 . S
C338 C334 1.368 . S
C338 C337 1.523 . S
H339 C314 0.950 . S
H340 C316 0.950 . S
H341 C317 0.949 . S
H342 C319 0.950 . S
H343 C321 0.950 . S
C344 C345 1.349 . S
C344 C346 1.327 . S
C344 H369 0.950 . S
C345 C344 1.349 . S
C345 C361 1.349 . S
C346 C344 1.327 . S
C346 C365 1.429 . S
C346 H370 0.950 . S
C347 C364 1.574 . S
C347 C366 1.368 . S
C347 H371 0.949 . S
H348 C352 0.949 . S
C349 C350 1.349 . S
C349 C351 1.327 . S
C349 H372 0.950 . S
C350 C349 1.349 . S
C350 C362 1.349 . S
C351 C349 1.327 . S
C351 C367 1.429 . S
C351 H373 0.950 . S
C352 H348 0.949 . S
C352 C360 1.574 . S
C352 C368 1.368 . S
H353 C361 0.950 . S
H354 C359 0.950 . S
H355 C360 0.949 . S
H356 C362 0.950 . S
H357 C363 0.950 . S
H358 C364 0.949 . S
C359 H354 0.950 . S
C359 C361 1.327 . S
C359 C365 1.429 . S
C360 C352 1.574 . S
C360 H355 0.949 . S
C360 C366 1.368 . S
C361 C345 1.349 . S
C361 H353 0.950 . S
C361 C359 1.327 . S
C362 C350 1.349 . S
C362 H356 0.950 . S
C362 C363 1.327 . S
C363 H357 0.950 . S
C363 C362 1.327 . S
C363 C367 1.429 . S
C364 C347 1.574 . S
C364 H358 0.949 . S
C364 C368 1.368 . S
C365 C346 1.429 . S
C365 C359 1.429 . S
C365 C366 1.523 . S
C366 C347 1.368 . S
C366 C360 1.368 . S
C366 C365 1.523 . S
C367 C351 1.429 . S
C367 C363 1.429 . S
C367 C368 1.523 . S
C368 C352 1.368 . S
C368 C364 1.368 . S
C368 C367 1.523 . S
H369 C344 0.950 . S
H370 C346 0.950 . S
H371 C347 0.949 . S
H372 C349 0.950 . S
H373 C351 0.950 . S
C374 C375 1.349 . S
C374 C376 1.327 . S
C374 H399 0.950 . S
C375 C374 1.349 . S
C375 C391 1.349 . S
C376 C374 1.327 . S
C376 C395 1.429 . S
C376 H400 0.950 . S
C377 C394 1.574 . S
C377 C396 1.368 . S
C377 H401 0.949 . S
H378 C382 0.949 . S
C379 C380 1.349 . S
C379 C381 1.327 . S
C379 H402 0.950 . S
C380 C379 1.349 . S
C380 C392 1.349 . S
C381 C379 1.327 . S
C381 C397 1.429 . S
C381 H403 0.950 . S
C382 H378 0.949 . S
C382 C390 1.574 . S
C382 C398 1.368 . S
H383 C391 0.950 . S
H384 C389 0.950 . S
H385 C390 0.949 . S
H386 C392 0.950 . S
H387 C393 0.950 . S
H388 C394 0.949 . S
C389 H384 0.950 . S
C389 C391 1.327 . S
C389 C395 1.429 . S
C390 C382 1.574 . S
C390 H385 0.949 . S
C390 C396 1.368 . S
C391 C375 1.349 . S
C391 H383 0.950 . S
C391 C389 1.327 . S
C392 C380 1.349 . S
C392 H386 0.950 . S
C392 C393 1.327 . S
C393 H387 0.950 . S
C393 C392 1.327 . S
C393 C397 1.429 . S
C394 C377 1.574 . S
C394 H388 0.949 . S
C394 C398 1.368 . S
C395 C376 1.429 . S
C395 C389 1.429 . S
C395 C396 1.523 . S
C396 C377 1.368 . S
C396 C390 1.368 . S
C396 C395 1.523 . S
C397 C381 1.429 . S
C397 C393 1.429 . S
C397 C398 1.523 . S
C398 C382 1.368 . S
C398 C394 1.368 . S
C398 C397 1.523 . S
H399 C374 0.950 . S
H400 C376 0.950 . S
H401 C377 0.949 . S
H402 C379 0.950 . S
H403 C381 0.950 . S
C404 C405 1.349 . S
C404 C406 1.327 . S
C404 H429 0.950 . S
C405 C404 1.349 . S
C405 C421 1.349 . S
C406 C404 1.327 . S
C406 C425 1.429 . S
C406 H430 0.950 . S
C407 C424 1.574 . S
C407 C426 1.368 . S
C407 H431 0.949 . S
H408 C412 0.949 . S
C409 C410 1.349 . S
C409 C411 1.327 . S
C409 H432 0.950 . S
C410 C409 1.349 . S
C410 C422 1.349 . S
C411 C409 1.327 . S
C411 C427 1.429 . S
C411 H433 0.950 . S
C412 H408 0.949 . S
C412 C420 1.574 . S
C412 C428 1.368 . S
H413 C421 0.950 . S
H414 C419 0.950 . S
H415 C420 0.949 . S
H416 C422 0.950 . S
H417 C423 0.950 . S
H418 C424 0.949 . S
C419 H414 0.950 . S
C419 C421 1.327 . S
C419 C425 1.429 . S
C420 C412 1.574 . S
C420 H415 0.949 . S
C420 C426 1.368 . S
C421 C405 1.349 . S
C421 H413 0.950 . S
C421 C419 1.327 . S
C422 C410 1.349 . S
C422 H416 0.950 . S
C422 C423 1.327 . S
C423 H417 0.950 . S
C423 C422 1.327 . S
C423 C427 1.429 . S
C424 C407 1.574 . S
C424 H418 0.949 . S
C424 C428 1.368 . S
C425 C406 1.429 . S
C425 C419 1.429 . S
C425 C426 1.523 . S
C426 C407 1.368 . S
C426 C420 1.368 . S
C426 C425 1.523 . S
C427 C411 1.429 . S
C427 C423 1.429 . S
C427 C428 1.523 . S
C428 C412 1.368 . S
C428 C424 1.368 . S
C428 C427 1.523 . S
H429 C404 0.950 . S
H430 C406 0.950 . S
H431 C407 0.949 . S
H432 C409 0.950 . S
H433 C411 0.950 . S
C434 C435 1.349 . S
C434 C436 1.327 . S
C434 H459 0.950 . S
C435 C434 1.349 . S
C435 C451 1.349 . S
C436 C434 1.327 . S
C436 C455 1.429 . S
C436 H460 0.950 . S
C437 C454 1.574 . S
C437 C456 1.368 . S
C437 H461 0.949 . S
H438 C442 0.949 . S
C439 C440 1.349 . S
C439 C441 1.327 . S
C439 H462 0.950 . S
C440 C439 1.349 . S
C440 C452 1.349 . S
C441 C439 1.327 . S
C441 C457 1.429 . S
C441 H463 0.950 . S
C442 H438 0.949 . S
C442 C450 1.574 . S
C442 C458 1.368 . S
H443 C451 0.950 . S
H444 C449 0.950 . S
H445 C450 0.949 . S
H446 C452 0.950 . S
H447 C453 0.950 . S
H448 C454 0.949 . S
C449 H444 0.950 . S
C449 C451 1.327 . S
C449 C455 1.429 . S
C450 C442 1.574 . S
C450 H445 0.949 . S
C450 C456 1.368 . S
C451 C435 1.349 . S
C451 H443 0.950 . S
C451 C449 1.327 . S
C452 C440 1.349 . S
C452 H446 0.950 . S
C452 C453 1.327 . S
C453 H447 0.950 . S
C453 C452 1.327 . S
C453 C457 1.429 . S
C454 C437 1.574 . S
C454 H448 0.949 . S
C454 C458 1.368 . S
C455 C436 1.429 . S
C455 C449 1.429 . S
C455 C456 1.523 . S
C456 C437 1.368 . S
C456 C450 1.368 . S
C456 C455 1.523 . S
C457 C441 1.429 . S
C457 C453 1.429 . S
C457 C458 1.523 . S
C458 C442 1.368 . S
C458 C454 1.368 . S
C458 C457 1.523 . S
H459 C434 0.950 . S
H460 C436 0.950 . S
H461 C437 0.949 . S
H462 C439 0.950 . S
H463 C441 0.950 . S
C464 C465 1.349 . S
C464 C466 1.327 . S
C464 H489 0.950 . S
C465 C464 1.349 . S
C465 C481 1.349 . S
C466 C464 1.327 . S
C466 C485 1.429 . S
C466 H490 0.950 . S
C467 C484 1.574 . S
C467 C486 1.368 . S
C467 H491 0.949 . S
H468 C472 0.949 . S
C469 C470 1.349 . S
C469 C471 1.327 . S
C469 H492 0.950 . S
C470 C469 1.349 . S
C470 C482 1.349 . S
C471 C469 1.327 . S
C471 C487 1.429 . S
C471 H493 0.950 . S
C472 H468 0.949 . S
C472 C480 1.574 . S
C472 C488 1.368 . S
H473 C481 0.950 . S
H474 C479 0.950 . S
H475 C480 0.949 . S
H476 C482 0.950 . S
H477 C483 0.950 . S
H478 C484 0.949 . S
C479 H474 0.950 . S
C479 C481 1.327 . S
C479 C485 1.429 . S
C480 C472 1.574 . S
C480 H475 0.949 . S
C480 C486 1.368 . S
C481 C465 1.349 . S
C481 H473 0.950 . S
C481 C479 1.327 . S
C482 C470 1.349 . S
C482 H476 0.950 . S
C482 C483 1.327 . S
C483 H477 0.950 . S
C483 C482 1.327 . S
C483 C487 1.429 . S
C484 C467 1.574 . S
C484 H478 0.949 . S
C484 C488 1.368 . S
C485 C466 1.429 . S
C485 C479 1.429 . S
C485 C486 1.523 . S
C486 C467 1.368 . S
C486 C480 1.368 . S
C486 C485 1.523 . S
C487 C471 1.429 . S
C487 C483 1.429 . S
C487 C488 1.523 . S
C488 C472 1.368 . S
C488 C484 1.368 . S
C488 C487 1.523 . S
H489 C464 0.950 . S
H490 C466 0.950 . S
H491 C467 0.949 . S
H492 C469 0.950 . S
H493 C471 0.950 . S
C494 C495 1.349 1_545 S
C494 C496 1.327 . S
C494 H519 0.950 . S
C495 C494 1.349 1_565 S
C495 C511 1.349 . S
C496 C494 1.327 . S
C496 C515 1.429 1_545 S
C496 H520 0.950 . S
C497 C514 1.574 . S
C497 C516 1.368 . S
C497 H521 0.949 . S
H498 C502 0.949 . S
C499 C500 1.349 1_565 S
C499 C501 1.327 . S
C499 H522 0.950 . S
C500 C499 1.349 1_545 S
C500 C512 1.349 . S
C501 C499 1.327 . S
C501 C517 1.429 1_565 S
C501 H523 0.950 . S
C502 H498 0.949 . S
C502 C510 1.574 . S
C502 C518 1.368 . S
H503 C511 0.950 . S
H504 C509 0.950 . S
H505 C510 0.949 . S
H506 C512 0.950 . S
H507 C513 0.950 . S
H508 C514 0.949 . S
C509 H504 0.950 . S
C509 C511 1.327 . S
C509 C515 1.429 . S
C510 C502 1.574 . S
C510 H505 0.949 . S
C510 C516 1.368 1_545 S
C511 C495 1.349 . S
C511 H503 0.950 . S
C511 C509 1.327 . S
C512 C500 1.349 . S
C512 H506 0.950 . S
C512 C513 1.327 . S
C513 H507 0.950 . S
C513 C512 1.327 . S
C513 C517 1.429 . S
C514 C497 1.574 . S
C514 H508 0.949 . S
C514 C518 1.368 1_565 S
C515 C496 1.429 1_565 S
C515 C509 1.429 . S
C515 C516 1.523 . S
C516 C497 1.368 . S
C516 C510 1.368 1_565 S
C516 C515 1.523 . S
C517 C501 1.429 1_545 S
C517 C513 1.429 . S
C517 C518 1.523 . S
C518 C502 1.368 . S
C518 C514 1.368 1_545 S
C518 C517 1.523 . S
H519 C494 0.950 . S
H520 C496 0.950 . S
H521 C497 0.949 . S
H522 C499 0.950 . S
H523 C501 0.950 . S
C524 C525 1.349 . S
C524 C526 1.327 . S
C524 H549 0.950 . S
C525 C524 1.349 . S
C525 C541 1.349 . S
C526 C524 1.327 . S
C526 C545 1.429 . S
C526 H550 0.950 . S
C527 C544 1.574 1_556 S
C527 C546 1.368 . S
C527 H551 0.949 . S
H528 C532 0.949 . S
C529 C530 1.349 . S
C529 C531 1.327 . S
C529 H552 0.950 . S
C530 C529 1.349 . S
C530 C542 1.349 . S
C531 C529 1.327 . S
C531 C547 1.429 . S
C531 H553 0.950 . S
C532 H528 0.949 . S
C532 C540 1.574 1_554 S
C532 C548 1.368 . S
H533 C541 0.950 . S
H534 C539 0.950 . S
H535 C540 0.949 . S
H536 C542 0.950 . S
H537 C543 0.950 . S
H538 C544 0.949 . S
C539 H534 0.950 . S
C539 C541 1.327 . S
C539 C545 1.429 . S
C540 C532 1.574 1_556 S
C540 H535 0.949 . S
C540 C546 1.368 . S
C541 C525 1.349 . S
C541 H533 0.950 . S
C541 C539 1.327 . S
C542 C530 1.349 . S
C542 H536 0.950 . S
C542 C543 1.327 . S
C543 H537 0.950 . S
C543 C542 1.327 . S
C543 C547 1.429 . S
C544 C527 1.574 1_554 S
C544 H538 0.949 . S
C544 C548 1.368 . S
C545 C526 1.429 . S
C545 C539 1.429 . S
C545 C546 1.523 . S
C546 C527 1.368 . S
C546 C540 1.368 . S
C546 C545 1.523 . S
C547 C531 1.429 . S
C547 C543 1.429 . S
C547 C548 1.523 . S
C548 C532 1.368 . S
C548 C544 1.368 . S
C548 C547 1.523 . S
H549 C524 0.950 . S
H550 C526 0.950 . S
H551 C527 0.949 . S
H552 C529 0.950 . S
H553 C531 0.950 . S
C554 C555 1.349 1_565 S
C554 C556 1.327 . S
C554 H579 0.950 . S
C555 C554 1.349 1_545 S
C555 C571 1.349 . S
C556 C554 1.327 . S
C556 C575 1.429 1_565 S
C556 H580 0.950 . S
C557 C574 1.574 . S
C557 C576 1.368 . S
C557 H581 0.949 . S
H558 C562 0.949 . S
C559 C560 1.349 1_545 S
C559 C561 1.327 . S
C559 H582 0.950 . S
C560 C559 1.349 1_565 S
C560 C572 1.349 . S
C561 C559 1.327 . S
C561 C577 1.429 1_545 S
C561 H583 0.950 . S
C562 H558 0.949 . S
C562 C570 1.574 . S
C562 C578 1.368 . S
H563 C571 0.950 . S
H564 C569 0.950 . S
H565 C570 0.949 . S
H566 C572 0.950 . S
H567 C573 0.950 . S
H568 C574 0.949 . S
C569 H564 0.950 . S
C569 C571 1.327 . S
C569 C575 1.429 . S
C570 C562 1.574 . S
C570 H565 0.949 . S
C570 C576 1.368 1_565 S
C571 C555 1.349 . S
C571 H563 0.950 . S
C571 C569 1.327 . S
C572 C560 1.349 . S
C572 H566 0.950 . S
C572 C573 1.327 . S
C573 H567 0.950 . S
C573 C572 1.327 . S
C573 C577 1.429 . S
C574 C557 1.574 . S
C574 H568 0.949 . S
C574 C578 1.368 1_545 S
C575 C556 1.429 1_545 S
C575 C569 1.429 . S
C575 C576 1.523 . S
C576 C557 1.368 . S
C576 C570 1.368 1_545 S
C576 C575 1.523 . S
C577 C561 1.429 1_565 S
C577 C573 1.429 . S
C577 C578 1.523 . S
C578 C562 1.368 . S
C578 C574 1.368 1_565 S
C578 C577 1.523 . S
H579 C554 0.950 . S
H580 C556 0.950 . S
H581 C557 0.949 . S
H582 C559 0.950 . S
H583 C561 0.950 . S
C584 C585 1.349 . S
C584 C586 1.327 . S
C584 H609 0.950 . S
C585 C584 1.349 . S
C585 C601 1.349 . S
C586 C584 1.327 . S
C586 C605 1.429 . S
C586 H610 0.950 . S
C587 C604 1.574 . S
C587 C606 1.368 . S
C587 H611 0.949 . S
H588 C592 0.949 . S
C589 C590 1.349 . S
C589 C591 1.327 . S
C589 H612 0.950 . S
C590 C589 1.349 . S
C590 C602 1.349 . S
C591 C589 1.327 . S
C591 C607 1.429 . S
C591 H613 0.950 . S
C592 H588 0.949 . S
C592 C600 1.574 . S
C592 C608 1.368 . S
H593 C601 0.950 . S
H594 C599 0.950 . S
H595 C600 0.949 . S
H596 C602 0.950 . S
H597 C603 0.950 . S
H598 C604 0.949 . S
C599 H594 0.950 . S
C599 C601 1.327 . S
C599 C605 1.429 . S
C600 C592 1.574 . S
C600 H595 0.949 . S
C600 C606 1.368 . S
C601 C585 1.349 . S
C601 H593 0.950 . S
C601 C599 1.327 . S
C602 C590 1.349 . S
C602 H596 0.950 . S
C602 C603 1.327 . S
C603 H597 0.950 . S
C603 C602 1.327 . S
C603 C607 1.429 . S
C604 C587 1.574 . S
C604 H598 0.949 . S
C604 C608 1.368 . S
C605 C586 1.429 . S
C605 C599 1.429 . S
C605 C606 1.523 . S
C606 C587 1.368 . S
C606 C600 1.368 . S
C606 C605 1.523 . S
C607 C591 1.429 . S
C607 C603 1.429 . S
C607 C608 1.523 . S
C608 C592 1.368 . S
C608 C604 1.368 . S
C608 C607 1.523 . S
H609 C584 0.950 . S
H610 C586 0.950 . S
H611 C587 0.949 . S
H612 C589 0.950 . S
H613 C591 0.950 . S
C614 C615 1.349 . S
C614 C616 1.327 . S
C614 H639 0.950 . S
C615 C614 1.349 . S
C615 C631 1.349 1_455 S
C616 C614 1.327 . S
C616 C635 1.429 . S
C616 H640 0.950 . S
C617 C634 1.574 . S
C617 C636 1.368 1_655 S
C617 H641 0.949 . S
H618 C622 0.949 . S
C619 C620 1.349 . S
C619 C621 1.327 . S
C619 H642 0.950 . S
C620 C619 1.349 . S
C620 C632 1.349 1_655 S
C621 C619 1.327 . S
C621 C637 1.429 . S
C621 H643 0.950 . S
C622 H618 0.949 . S
C622 C630 1.574 . S
C622 C638 1.368 1_455 S
H623 C631 0.950 . S
H624 C629 0.950 . S
H625 C630 0.949 . S
H626 C632 0.950 . S
H627 C633 0.950 . S
H628 C634 0.949 . S
C629 H624 0.950 . S
C629 C631 1.327 . S
C629 C635 1.429 1_655 S
C630 C622 1.574 . S
C630 H625 0.949 . S
C630 C636 1.368 . S
C631 C615 1.349 1_655 S
C631 H623 0.950 . S
C631 C629 1.327 . S
C632 C620 1.349 1_455 S
C632 H626 0.950 . S
C632 C633 1.327 . S
C633 H627 0.950 . S
C633 C632 1.327 . S
C633 C637 1.429 1_455 S
C634 C617 1.574 . S
C634 H628 0.949 . S
C634 C638 1.368 . S
C635 C616 1.429 . S
C635 C629 1.429 1_455 S
C635 C636 1.523 . S
C636 C617 1.368 1_455 S
C636 C630 1.368 . S
C636 C635 1.523 . S
C637 C621 1.429 . S
C637 C633 1.429 1_655 S
C637 C638 1.523 . S
C638 C622 1.368 1_655 S
C638 C634 1.368 . S
C638 C637 1.523 . S
H639 C614 0.950 . S
H640 C616 0.950 . S
H641 C617 0.949 . S
H642 C619 0.950 . S
H643 C621 0.950 . S
C644 C645 1.349 . S
C644 C646 1.327 . S
C644 H669 0.950 . S
C645 C644 1.349 . S
C645 C661 1.349 . S
C646 C644 1.327 . S
C646 C665 1.429 . S
C646 H670 0.950 . S
C647 C664 1.574 1_655 S
C647 C666 1.368 . S
C647 H671 0.949 . S
H648 C652 0.949 . S
C649 C650 1.349 . S
C649 C651 1.327 . S
C649 H672 0.950 . S
C650 C649 1.349 . S
C650 C662 1.349 . S
C651 C649 1.327 . S
C651 C667 1.429 . S
C651 H673 0.950 . S
C652 H648 0.949 . S
C652 C660 1.574 1_455 S
C652 C668 1.368 . S
H653 C661 0.950 . S
H654 C659 0.950 . S
H655 C660 0.949 . S
H656 C662 0.950 . S
H657 C663 0.950 . S
H658 C664 0.949 . S
C659 H654 0.950 . S
C659 C661 1.327 . S
C659 C665 1.429 . S
C660 C652 1.574 1_655 S
C660 H655 0.949 . S
C660 C666 1.368 . S
C661 C645 1.349 . S
C661 H653 0.950 . S
C661 C659 1.327 . S
C662 C650 1.349 . S
C662 H656 0.950 . S
C662 C663 1.327 . S
C663 H657 0.950 . S
C663 C662 1.327 . S
C663 C667 1.429 . S
C664 C647 1.574 1_455 S
C664 H658 0.949 . S
C664 C668 1.368 . S
C665 C646 1.429 . S
C665 C659 1.429 . S
C665 C666 1.523 . S
C666 C647 1.368 . S
C666 C660 1.368 . S
C666 C665 1.523 . S
C667 C651 1.429 . S
C667 C663 1.429 . S
C667 C668 1.523 . S
C668 C652 1.368 . S
C668 C664 1.368 . S
C668 C667 1.523 . S
H669 C644 0.950 . S
H670 C646 0.950 . S
H671 C647 0.949 . S
H672 C649 0.950 . S
H673 C651 0.950 . S
C674 C675 1.349 1_556 S
C674 C676 1.327 . S
C674 H699 0.950 . S
C675 C674 1.349 1_554 S
C675 C691 1.349 . S
C676 C674 1.327 . S
C676 C695 1.429 1_556 S
C676 H700 0.950 . S
C677 C694 1.574 . S
C677 C696 1.368 . S
C677 H701 0.949 . S
H678 C682 0.949 . S
C679 C680 1.349 . S
C679 C681 1.327 . S
C679 H702 0.950 . S
C680 C679 1.349 . S
C680 C692 1.349 1_554 S
C681 C679 1.327 . S
C681 C697 1.429 . S
C681 H703 0.950 . S
C682 H678 0.949 . S
C682 C690 1.574 . S
C682 C698 1.368 1_556 S
H683 C691 0.950 . S
H684 C689 0.950 . S
H685 C690 0.949 . S
H686 C692 0.950 . S
H687 C693 0.950 . S
H688 C694 0.949 . S
C689 H684 0.950 . S
C689 C691 1.327 . S
C689 C695 1.429 . S
C690 C682 1.574 . S
C690 H685 0.949 . S
C690 C696 1.368 1_556 S
C691 C675 1.349 . S
C691 H683 0.950 . S
C691 C689 1.327 . S
C692 C680 1.349 1_556 S
C692 H686 0.950 . S
C692 C693 1.327 . S
C693 H687 0.950 . S
C693 C692 1.327 . S
C693 C697 1.429 1_556 S
C694 C677 1.574 . S
C694 H688 0.949 . S
C694 C698 1.368 . S
C695 C676 1.429 1_554 S
C695 C689 1.429 . S
C695 C696 1.523 . S
C696 C677 1.368 . S
C696 C690 1.368 1_554 S
C696 C695 1.523 . S
C697 C681 1.429 . S
C697 C693 1.429 1_554 S
C697 C698 1.523 . S
C698 C682 1.368 1_554 S
C698 C694 1.368 . S
C698 C697 1.523 . S
H699 C674 0.950 . S
H700 C676 0.950 . S
H701 C677 0.949 . S
H702 C679 0.950 . S
H703 C681 0.950 . S
C704 C705 1.349 . S
C704 C706 1.327 . S
C704 H729 0.950 . S
C705 C704 1.349 . S
C705 C721 1.349 . S
C706 C704 1.327 . S
C706 C725 1.429 . S
C706 H730 0.950 . S
C707 C724 1.574 . S
C707 C726 1.368 . S
C707 H731 0.949 . S
H708 C712 0.949 . S
C709 C710 1.349 . S
C709 C711 1.327 . S
C709 H732 0.950 . S
C710 C709 1.349 . S
C710 C722 1.349 . S
C711 C709 1.327 . S
C711 C727 1.429 . S
C711 H733 0.950 . S
C712 H708 0.949 . S
C712 C720 1.574 . S
C712 C728 1.368 . S
H713 C721 0.950 . S
H714 C719 0.950 . S
H715 C720 0.949 . S
H716 C722 0.950 . S
H717 C723 0.950 . S
H718 C724 0.949 . S
C719 H714 0.950 . S
C719 C721 1.327 . S
C719 C725 1.429 . S
C720 C712 1.574 . S
C720 H715 0.949 . S
C720 C726 1.368 . S
C721 C705 1.349 . S
C721 H713 0.950 . S
C721 C719 1.327 . S
C722 C710 1.349 . S
C722 H716 0.950 . S
C722 C723 1.327 . S
C723 H717 0.950 . S
C723 C722 1.327 . S
C723 C727 1.429 . S
C724 C707 1.574 . S
C724 H718 0.949 . S
C724 C728 1.368 . S
C725 C706 1.429 . S
C725 C719 1.429 . S
C725 C726 1.523 . S
C726 C707 1.368 . S
C726 C720 1.368 . S
C726 C725 1.523 . S
C727 C711 1.429 . S
C727 C723 1.429 . S
C727 C728 1.523 . S
C728 C712 1.368 . S
C728 C724 1.368 . S
C728 C727 1.523 . S
H729 C704 0.950 . S
H730 C706 0.950 . S
H731 C707 0.949 . S
H732 C709 0.950 . S
H733 C711 0.950 . S
C734 C735 1.349 . S
C734 C736 1.327 . S
C734 H759 0.950 . S
C735 C734 1.349 . S
C735 C751 1.349 . S
C736 C734 1.327 . S
C736 C755 1.429 . S
C736 H760 0.950 . S
C737 C754 1.574 . S
C737 C756 1.368 . S
C737 H761 0.949 . S
H738 C742 0.949 . S
C739 C740 1.349 . S
C739 C741 1.327 . S
C739 H762 0.950 . S
C740 C739 1.349 . S
C740 C752 1.349 . S
C741 C739 1.327 . S
C741 C757 1.429 . S
C741 H763 0.950 . S
C742 H738 0.949 . S
C742 C750 1.574 . S
C742 C758 1.368 . S
H743 C751 0.950 . S
H744 C749 0.950 . S
H745 C750 0.949 . S
H746 C752 0.950 . S
H747 C753 0.950 . S
H748 C754 0.949 . S
C749 H744 0.950 . S
C749 C751 1.327 . S
C749 C755 1.429 . S
C750 C742 1.574 . S
C750 H745 0.949 . S
C750 C756 1.368 . S
C751 C735 1.349 . S
C751 H743 0.950 . S
C751 C749 1.327 . S
C752 C740 1.349 . S
C752 H746 0.950 . S
C752 C753 1.327 . S
C753 H747 0.950 . S
C753 C752 1.327 . S
C753 C757 1.429 . S
C754 C737 1.574 . S
C754 H748 0.949 . S
C754 C758 1.368 . S
C755 C736 1.429 . S
C755 C749 1.429 . S
C755 C756 1.523 . S
C756 C737 1.368 . S
C756 C750 1.368 . S
C756 C755 1.523 . S
C757 C741 1.429 . S
C757 C753 1.429 . S
C757 C758 1.523 . S
C758 C742 1.368 . S
C758 C754 1.368 . S
C758 C757 1.523 . S
H759 C734 0.950 . S
H760 C736 0.950 . S
H761 C737 0.949 . S
H762 C739 0.950 . S
H763 C741 0.950 . S
C764 C765 1.349 . S
C764 C766 1.327 . S
C764 H789 0.950 . S
C765 C764 1.349 . S
C765 C781 1.349 . S
C766 C764 1.327 . S
C766 C785 1.429 . S
C766 H790 0.950 . S
C767 C784 1.574 1_455 S
C767 C786 1.368 . S
C767 H791 0.949 . S
H768 C772 0.949 . S
C769 C770 1.349 . S
C769 C771 1.327 . S
C769 H792 0.950 . S
C770 C769 1.349 . S
C770 C782 1.349 . S
C771 C769 1.327 . S
C771 C787 1.429 . S
C771 H793 0.950 . S
C772 H768 0.949 . S
C772 C780 1.574 1_655 S
C772 C788 1.368 . S
H773 C781 0.950 . S
H774 C779 0.950 . S
H775 C780 0.949 . S
H776 C782 0.950 . S
H777 C783 0.950 . S
H778 C784 0.949 . S
C779 H774 0.950 . S
C779 C781 1.327 . S
C779 C785 1.429 . S
C780 C772 1.574 1_455 S
C780 H775 0.949 . S
C780 C786 1.368 . S
C781 C765 1.349 . S
C781 H773 0.950 . S
C781 C779 1.327 . S
C782 C770 1.349 . S
C782 H776 0.950 . S
C782 C783 1.327 . S
C783 H777 0.950 . S
C783 C782 1.327 . S
C783 C787 1.429 . S
C784 C767 1.574 1_655 S
C784 H778 0.949 . S
C784 C788 1.368 . S
C785 C766 1.429 . S
C785 C779 1.429 . S
C785 C786 1.523 . S
C786 C767 1.368 . S
C786 C780 1.368 . S
C786 C785 1.523 . S
C787 C771 1.429 . S
C787 C783 1.429 . S
C787 C788 1.523 . S
C788 C772 1.368 . S
C788 C784 1.368 . S
C788 C787 1.523 . S
H789 C764 0.950 . S
H790 C766 0.950 . S
H791 C767 0.949 . S
H792 C769 0.950 . S
H793 C771 0.950 . S
C794 C795 1.349 1_554 S
C794 C796 1.327 . S
C794 H819 0.950 . S
C795 C794 1.349 1_556 S
C795 C811 1.349 1_655 S
C796 C794 1.327 . S
C796 C815 1.429 1_554 S
C796 H820 0.950 . S
C797 C814 1.574 . S
C797 C816 1.368 1_455 S
C797 H821 0.949 . S
H798 C802 0.949 . S
C799 C800 1.349 . S
C799 C801 1.327 . S
C799 H822 0.950 . S
C800 C799 1.349 . S
C800 C812 1.349 1_456 S
C801 C799 1.327 . S
C801 C817 1.429 . S
C801 H823 0.950 . S
C802 H798 0.949 . S
C802 C810 1.574 . S
C802 C818 1.368 1_654 S
H803 C811 0.950 . S
H804 C809 0.950 . S
H805 C810 0.949 . S
H806 C812 0.950 . S
H807 C813 0.950 . S
H808 C814 0.949 . S
C809 H804 0.950 . S
C809 C811 1.327 . S
C809 C815 1.429 1_455 S
C810 C802 1.574 . S
C810 H805 0.949 . S
C810 C816 1.368 1_554 S
C811 C795 1.349 1_455 S
C811 H803 0.950 . S
C811 C809 1.327 . S
C812 C800 1.349 1_654 S
C812 H806 0.950 . S
C812 C813 1.327 . S
C813 H807 0.950 . S
C813 C812 1.327 . S
C813 C817 1.429 1_654 S
C814 C797 1.574 . S
C814 H808 0.949 . S
C814 C818 1.368 . S
C815 C796 1.429 1_556 S
C815 C809 1.429 1_655 S
C815 C816 1.523 . S
C816 C797 1.368 1_655 S
C816 C810 1.368 1_556 S
C816 C815 1.523 . S
C817 C801 1.429 . S
C817 C813 1.429 1_456 S
C817 C818 1.523 . S
C818 C802 1.368 1_456 S
C818 C814 1.368 . S
C818 C817 1.523 . S
H819 C794 0.950 . S
H820 C796 0.950 . S
H821 C797 0.949 . S
H822 C799 0.950 . S
H823 C801 0.950 . S
C824 C825 1.349 . S
C824 C826 1.327 . S
C824 H849 0.950 . S
C825 C824 1.349 . S
C825 C841 1.349 . S
C826 C824 1.327 . S
C826 C845 1.429 . S
C826 H850 0.950 . S
C827 C844 1.574 . S
C827 C846 1.368 . S
C827 H851 0.949 . S
H828 C832 0.949 . S
C829 C830 1.349 . S
C829 C831 1.327 . S
C829 H852 0.950 . S
C830 C829 1.349 . S
C830 C842 1.349 . S
C831 C829 1.327 . S
C831 C847 1.429 . S
C831 H853 0.950 . S
C832 H828 0.949 . S
C832 C840 1.574 . S
C832 C848 1.368 . S
H833 C841 0.950 . S
H834 C839 0.950 . S
H835 C840 0.949 . S
H836 C842 0.950 . S
H837 C843 0.950 . S
H838 C844 0.949 . S
C839 H834 0.950 . S
C839 C841 1.327 . S
C839 C845 1.429 . S
C840 C832 1.574 . S
C840 H835 0.949 . S
C840 C846 1.368 . S
C841 C825 1.349 . S
C841 H833 0.950 . S
C841 C839 1.327 . S
C842 C830 1.349 . S
C842 H836 0.950 . S
C842 C843 1.327 . S
C843 H837 0.950 . S
C843 C842 1.327 . S
C843 C847 1.429 . S
C844 C827 1.574 . S
C844 H838 0.949 . S
C844 C848 1.368 . S
C845 C826 1.429 . S
C845 C839 1.429 . S
C845 C846 1.523 . S
C846 C827 1.368 . S
C846 C840 1.368 . S
C846 C845 1.523 . S
C847 C831 1.429 . S
C847 C843 1.429 . S
C847 C848 1.523 . S
C848 C832 1.368 . S
C848 C844 1.368 . S
C848 C847 1.523 . S
H849 C824 0.950 . S
H850 C826 0.950 . S
H851 C827 0.949 . S
H852 C829 0.950 . S
H853 C831 0.950 . S
C854 C855 1.349 . S
C854 C856 1.327 . S
C854 H879 0.950 . S
C855 C854 1.349 . S
C855 C871 1.349 . S
C856 C854 1.327 . S
C856 C875 1.429 . S
C856 H880 0.950 . S
C857 C874 1.574 1_545 S
C857 C876 1.368 . S
C857 H881 0.949 . S
H858 C862 0.949 . S
C859 C860 1.349 . S
C859 C861 1.327 . S
C859 H882 0.950 . S
C860 C859 1.349 . S
C860 C872 1.349 . S
C861 C859 1.327 . S
C861 C877 1.429 . S
C861 H883 0.950 . S
C862 H858 0.949 . S
C862 C870 1.574 1_565 S
C862 C878 1.368 . S
H863 C871 0.950 . S
H864 C869 0.950 . S
H865 C870 0.949 . S
H866 C872 0.950 . S
H867 C873 0.950 . S
H868 C874 0.949 . S
C869 H864 0.950 . S
C869 C871 1.327 . S
C869 C875 1.429 . S
C870 C862 1.574 1_545 S
C870 H865 0.949 . S
C870 C876 1.368 . S
C871 C855 1.349 . S
C871 H863 0.950 . S
C871 C869 1.327 . S
C872 C860 1.349 . S
C872 H866 0.950 . S
C872 C873 1.327 . S
C873 H867 0.950 . S
C873 C872 1.327 . S
C873 C877 1.429 . S
C874 C857 1.574 1_565 S
C874 H868 0.949 . S
C874 C878 1.368 . S
C875 C856 1.429 . S
C875 C869 1.429 . S
C875 C876 1.523 . S
C876 C857 1.368 . S
C876 C870 1.368 . S
C876 C875 1.523 . S
C877 C861 1.429 . S
C877 C873 1.429 . S
C877 C878 1.523 . S
C878 C862 1.368 . S
C878 C874 1.368 . S
C878 C877 1.523 . S
H879 C854 0.950 . S
H880 C856 0.950 . S
H881 C857 0.949 . S
H882 C859 0.950 . S
H883 C861 0.950 . S
C884 C885 1.349 . S
C884 C886 1.327 . S
C884 H909 0.950 . S
C885 C884 1.349 . S
C885 C901 1.349 1_556 S
C886 C884 1.327 . S
C886 C905 1.429 . S
C886 H910 0.950 . S
C887 C904 1.574 . S
C887 C906 1.368 1_554 S
C887 H911 0.949 . S
H888 C892 0.949 . S
C889 C890 1.349 . S
C889 C891 1.327 . S
C889 H912 0.950 . S
C890 C889 1.349 . S
C890 C902 1.349 1_554 S
C891 C889 1.327 . S
C891 C907 1.429 . S
C891 H913 0.950 . S
C892 H888 0.949 . S
C892 C900 1.574 . S
C892 C908 1.368 1_556 S
H893 C901 0.950 . S
H894 C899 0.950 . S
H895 C900 0.949 . S
H896 C902 0.950 . S
H897 C903 0.950 . S
H898 C904 0.949 . S
C899 H894 0.950 . S
C899 C901 1.327 . S
C899 C905 1.429 1_554 S
C900 C892 1.574 . S
C900 H895 0.949 . S
C900 C906 1.368 . S
C901 C885 1.349 1_554 S
C901 H893 0.950 . S
C901 C899 1.327 . S
C902 C890 1.349 1_556 S
C902 H896 0.950 . S
C902 C903 1.327 . S
C903 H897 0.950 . S
C903 C902 1.327 . S
C903 C907 1.429 1_556 S
C904 C887 1.574 . S
C904 H898 0.949 . S
C904 C908 1.368 . S
C905 C886 1.429 . S
C905 C899 1.429 1_556 S
C905 C906 1.523 . S
C906 C887 1.368 1_556 S
C906 C900 1.368 . S
C906 C905 1.523 . S
C907 C891 1.429 . S
C907 C903 1.429 1_554 S
C907 C908 1.523 . S
C908 C892 1.368 1_554 S
C908 C904 1.368 . S
C908 C907 1.523 . S
H909 C884 0.950 . S
H910 C886 0.950 . S
H911 C887 0.949 . S
H912 C889 0.950 . S
H913 C891 0.950 . S
C914 C915 1.349 . S
C914 C916 1.327 . S
C914 H939 0.950 . S
C915 C914 1.349 . S
C915 C931 1.349 . S
C916 C914 1.327 . S
C916 C935 1.429 . S
C916 H940 0.950 . S
C917 C934 1.574 1_545 S
C917 C936 1.368 . S
C917 H941 0.949 . S
H918 C922 0.949 . S
C919 C920 1.349 . S
C919 C921 1.327 . S
C919 H942 0.950 . S
C920 C919 1.349 . S
C920 C932 1.349 . S
C921 C919 1.327 . S
C921 C937 1.429 . S
C921 H943 0.950 . S
C922 H918 0.949 . S
C922 C930 1.574 1_565 S
C922 C938 1.368 . S
H923 C931 0.950 . S
H924 C929 0.950 . S
H925 C930 0.949 . S
H926 C932 0.950 . S
H927 C933 0.950 . S
H928 C934 0.949 . S
C929 H924 0.950 . S
C929 C931 1.327 . S
C929 C935 1.429 . S
C930 C922 1.574 1_545 S
C930 H925 0.949 . S
C930 C936 1.368 . S
C931 C915 1.349 . S
C931 H923 0.950 . S
C931 C929 1.327 . S
C932 C920 1.349 . S
C932 H926 0.950 . S
C932 C933 1.327 . S
C933 H927 0.950 . S
C933 C932 1.327 . S
C933 C937 1.429 . S
C934 C917 1.574 1_565 S
C934 H928 0.949 . S
C934 C938 1.368 . S
C935 C916 1.429 . S
C935 C929 1.429 . S
C935 C936 1.523 . S
C936 C917 1.368 . S
C936 C930 1.368 . S
C936 C935 1.523 . S
C937 C921 1.429 . S
C937 C933 1.429 . S
C937 C938 1.523 . S
C938 C922 1.368 . S
C938 C934 1.368 . S
C938 C937 1.523 . S
H939 C914 0.950 . S
H940 C916 0.950 . S
H941 C917 0.949 . S
H942 C919 0.950 . S
H943 C921 0.950 . S
C944 C945 1.349 1_556 S
C944 C946 1.327 . S
C944 H969 0.950 . S
C945 C944 1.349 1_554 S
C945 C961 1.349 1_545 S
C946 C944 1.327 . S
C946 C965 1.429 1_556 S
C946 H970 0.950 . S
C947 C964 1.574 . S
C947 C966 1.368 1_565 S
C947 H971 0.949 . S
H948 C952 0.949 . S
C949 C950 1.349 1_564 S
C949 C951 1.327 . S
C949 H972 0.950 . S
C950 C949 1.349 1_546 S
C950 C962 1.349 . S
C951 C949 1.327 . S
C951 C967 1.429 1_564 S
C951 H973 0.950 . S
C952 H948 0.949 . S
C952 C960 1.574 . S
C952 C968 1.368 . S
H953 C961 0.950 . S
H954 C959 0.950 . S
H955 C960 0.949 . S
H956 C962 0.950 . S
H957 C963 0.950 . S
H958 C964 0.949 . S
C959 H954 0.950 . S
C959 C961 1.327 . S
C959 C965 1.429 1_565 S
C960 C952 1.574 . S
C960 H955 0.949 . S
C960 C966 1.368 1_556 S
C961 C945 1.349 1_565 S
C961 H953 0.950 . S
C961 C959 1.327 . S
C962 C950 1.349 . S
C962 H956 0.950 . S
C962 C963 1.327 . S
C963 H957 0.950 . S
C963 C962 1.327 . S
C963 C967 1.429 . S
C964 C947 1.574 . S
C964 H958 0.949 . S
C964 C968 1.368 1_564 S
C965 C946 1.429 1_554 S
C965 C959 1.429 1_545 S
C965 C966 1.523 . S
C966 C947 1.368 1_545 S
C966 C960 1.368 1_554 S
C966 C965 1.523 . S
C967 C951 1.429 1_546 S
C967 C963 1.429 . S
C967 C968 1.523 . S
C968 C952 1.368 . S
C968 C964 1.368 1_546 S
C968 C967 1.523 . S
H969 C944 0.950 . S
H970 C946 0.950 . S
H971 C947 0.949 . S
H972 C949 0.950 . S
H973 C951 0.950 . S
C974 C975 1.349 . S
C974 C976 1.327 . S
C974 H999 0.950 . S
C975 C974 1.349 . S
C975 C991 1.349 . S
C976 C974 1.327 . S
C976 C995 1.429 . S
C976 H1000 0.950 . S
C977 C994 1.574 . S
C977 C996 1.368 . S
C977 H1001 0.949 . S
H978 C982 0.949 . S
C979 C980 1.349 . S
C979 C981 1.327 . S
C979 H1002 0.950 . S
C980 C979 1.349 . S
C980 C992 1.349 . S
C981 C979 1.327 . S
C981 C997 1.429 . S
C981 H1003 0.950 . S
C982 H978 0.949 . S
C982 C990 1.574 . S
C982 C998 1.368 . S
H983 C991 0.950 . S
H984 C989 0.950 . S
H985 C990 0.949 . S
H986 C992 0.950 . S
H987 C993 0.950 . S
H988 C994 0.949 . S
C989 H984 0.950 . S
C989 C991 1.327 . S
C989 C995 1.429 . S
C990 C982 1.574 . S
C990 H985 0.949 . S
C990 C996 1.368 . S
C991 C975 1.349 . S
C991 H983 0.950 . S
C991 C989 1.327 . S
C992 C980 1.349 . S
C992 H986 0.950 . S
C992 C993 1.327 . S
C993 H987 0.950 . S
C993 C992 1.327 . S
C993 C997 1.429 . S
C994 C977 1.574 . S
C994 H988 0.949 . S
C994 C998 1.368 . S
C995 C976 1.429 . S
C995 C989 1.429 . S
C995 C996 1.523 . S
C996 C977 1.368 . S
C996 C990 1.368 . S
C996 C995 1.523 . S
C997 C981 1.429 . S
C997 C993 1.429 . S
C997 C998 1.523 . S
C998 C982 1.368 . S
C998 C994 1.368 . S
C998 C997 1.523 . S
H999 C974 0.950 . S
H1000 C976 0.950 . S
H1001 C977 0.949 . S
H1002 C979 0.950 . S
H1003 C981 0.950 . S
C1004 C1005 1.349 . S
C1004 C1006 1.327 . S
C1004 H1029 0.950 . S
C1005 C1004 1.349 . S
C1005 C1021 1.349 . S
C1006 C1004 1.327 . S
C1006 C1025 1.429 . S
C1006 H1030 0.950 . S
C1007 C1024 1.574 . S
C1007 C1026 1.368 . S
C1007 H1031 0.949 . S
H1008 C1012 0.949 . S
C1009 C1010 1.349 . S
C1009 C1011 1.327 . S
C1009 H1032 0.950 . S
C1010 C1009 1.349 . S
C1010 C1022 1.349 . S
C1011 C1009 1.327 . S
C1011 C1027 1.429 . S
C1011 H1033 0.950 . S
C1012 H1008 0.949 . S
C1012 C1020 1.574 . S
C1012 C1028 1.368 . S
H1013 C1021 0.950 . S
H1014 C1019 0.950 . S
H1015 C1020 0.949 . S
H1016 C1022 0.950 . S
H1017 C1023 0.950 . S
H1018 C1024 0.949 . S
C1019 H1014 0.950 . S
C1019 C1021 1.327 . S
C1019 C1025 1.429 . S
C1020 C1012 1.574 . S
C1020 H1015 0.949 . S
C1020 C1026 1.368 . S
C1021 C1005 1.349 . S
C1021 H1013 0.950 . S
C1021 C1019 1.327 . S
C1022 C1010 1.349 . S
C1022 H1016 0.950 . S
C1022 C1023 1.327 . S
C1023 H1017 0.950 . S
C1023 C1022 1.327 . S
C1023 C1027 1.429 . S
C1024 C1007 1.574 . S
C1024 H1018 0.949 . S
C1024 C1028 1.368 . S
C1025 C1006 1.429 . S
C1025 C1019 1.429 . S
C1025 C1026 1.523 . S
C1026 C1007 1.368 . S
C1026 C1020 1.368 . S
C1026 C1025 1.523 . S
C1027 C1011 1.429 . S
C1027 C1023 1.429 . S
C1027 C1028 1.523 . S
C1028 C1012 1.368 . S
C1028 C1024 1.368 . S
C1028 C1027 1.523 . S
H1029 C1004 0.950 . S
H1030 C1006 0.950 . S
H1031 C1007 0.949 . S
H1032 C1009 0.950 . S
H1033 C1011 0.950 . S
C1034 C1035 1.349 . S
C1034 C1036 1.327 . S
C1034 H1059 0.950 . S
C1035 C1034 1.349 . S
C1035 C1051 1.349 . S
C1036 C1034 1.327 . S
C1036 C1055 1.429 . S
C1036 H1060 0.950 . S
C1037 C1054 1.574 1_556 S
C1037 C1056 1.368 . S
C1037 H1061 0.949 . S
H1038 C1042 0.949 . S
C1039 C1040 1.349 . S
C1039 C1041 1.327 . S
C1039 H1062 0.950 . S
C1040 C1039 1.349 . S
C1040 C1052 1.349 . S
C1041 C1039 1.327 . S
C1041 C1057 1.429 . S
C1041 H1063 0.950 . S
C1042 H1038 0.949 . S
C1042 C1050 1.574 1_554 S
C1042 C1058 1.368 . S
H1043 C1051 0.950 . S
H1044 C1049 0.950 . S
H1045 C1050 0.949 . S
H1046 C1052 0.950 . S
H1047 C1053 0.950 . S
H1048 C1054 0.949 . S
C1049 H1044 0.950 . S
C1049 C1051 1.327 . S
C1049 C1055 1.429 . S
C1050 C1042 1.574 1_556 S
C1050 H1045 0.949 . S
C1050 C1056 1.368 . S
C1051 C1035 1.349 . S
C1051 H1043 0.950 . S
C1051 C1049 1.327 . S
C1052 C1040 1.349 . S
C1052 H1046 0.950 . S
C1052 C1053 1.327 . S
C1053 H1047 0.950 . S
C1053 C1052 1.327 . S
C1053 C1057 1.429 . S
C1054 C1037 1.574 1_554 S
C1054 H1048 0.949 . S
C1054 C1058 1.368 . S
C1055 C1036 1.429 . S
C1055 C1049 1.429 . S
C1055 C1056 1.523 . S
C1056 C1037 1.368 . S
C1056 C1050 1.368 . S
C1056 C1055 1.523 . S
C1057 C1041 1.429 . S
C1057 C1053 1.429 . S
C1057 C1058 1.523 . S
C1058 C1042 1.368 . S
C1058 C1054 1.368 . S
C1058 C1057 1.523 . S
H1059 C1034 0.950 . S
H1060 C1036 0.950 . S
H1061 C1037 0.949 . S
H1062 C1039 0.950 . S
H1063 C1041 0.950 . S
C1064 C1065 1.349 . S
C1064 C1066 1.327 . S
C1064 H1089 0.950 . S
C1065 C1064 1.349 . S
C1065 C1081 1.349 . S
C1066 C1064 1.327 . S
C1066 C1085 1.429 . S
C1066 H1090 0.950 . S
C1067 C1084 1.574 . S
C1067 C1086 1.368 . S
C1067 H1091 0.949 . S
H1068 C1072 0.949 . S
C1069 C1070 1.349 . S
C1069 C1071 1.327 . S
C1069 H1092 0.950 . S
C1070 C1069 1.349 . S
C1070 C1082 1.349 . S
C1071 C1069 1.327 . S
C1071 C1087 1.429 . S
C1071 H1093 0.950 . S
C1072 H1068 0.949 . S
C1072 C1080 1.574 . S
C1072 C1088 1.368 . S
H1073 C1081 0.950 . S
H1074 C1079 0.950 . S
H1075 C1080 0.949 . S
H1076 C1082 0.950 . S
H1077 C1083 0.950 . S
H1078 C1084 0.949 . S
C1079 H1074 0.950 . S
C1079 C1081 1.327 . S
C1079 C1085 1.429 . S
C1080 C1072 1.574 . S
C1080 H1075 0.949 . S
C1080 C1086 1.368 . S
C1081 C1065 1.349 . S
C1081 H1073 0.950 . S
C1081 C1079 1.327 . S
C1082 C1070 1.349 . S
C1082 H1076 0.950 . S
C1082 C1083 1.327 . S
C1083 H1077 0.950 . S
C1083 C1082 1.327 . S
C1083 C1087 1.429 . S
C1084 C1067 1.574 . S
C1084 H1078 0.949 . S
C1084 C1088 1.368 . S
C1085 C1066 1.429 . S
C1085 C1079 1.429 . S
C1085 C1086 1.523 . S
C1086 C1067 1.368 . S
C1086 C1080 1.368 . S
C1086 C1085 1.523 . S
C1087 C1071 1.429 . S
C1087 C1083 1.429 . S
C1087 C1088 1.523 . S
C1088 C1072 1.368 . S
C1088 C1084 1.368 . S
C1088 C1087 1.523 . S
H1089 C1064 0.950 . S
H1090 C1066 0.950 . S
H1091 C1067 0.949 . S
H1092 C1069 0.950 . S
H1093 C1071 0.950 . S
C1094 C1095 1.349 . S
C1094 C1096 1.327 . S
C1094 H1119 0.950 . S
C1095 C1094 1.349 . S
C1095 C1111 1.349 . S
C1096 C1094 1.327 . S
C1096 C1115 1.429 . S
C1096 H1120 0.950 . S
C1097 C1114 1.574 . S
C1097 C1116 1.368 . S
C1097 H1121 0.949 . S
H1098 C1102 0.949 . S
C1099 C1100 1.349 . S
C1099 C1101 1.327 . S
C1099 H1122 0.950 . S
C1100 C1099 1.349 . S
C1100 C1112 1.349 . S
C1101 C1099 1.327 . S
C1101 C1117 1.429 . S
C1101 H1123 0.950 . S
C1102 H1098 0.949 . S
C1102 C1110 1.574 . S
C1102 C1118 1.368 . S
H1103 C1111 0.950 . S
H1104 C1109 0.950 . S
H1105 C1110 0.949 . S
H1106 C1112 0.950 . S
H1107 C1113 0.950 . S
H1108 C1114 0.949 . S
C1109 H1104 0.950 . S
C1109 C1111 1.327 . S
C1109 C1115 1.429 . S
C1110 C1102 1.574 . S
C1110 H1105 0.949 . S
C1110 C1116 1.368 . S
C1111 C1095 1.349 . S
C1111 H1103 0.950 . S
C1111 C1109 1.327 . S
C1112 C1100 1.349 . S
C1112 H1106 0.950 . S
C1112 C1113 1.327 . S
C1113 H1107 0.950 . S
C1113 C1112 1.327 . S
C1113 C1117 1.429 . S
C1114 C1097 1.574 . S
C1114 H1108 0.949 . S
C1114 C1118 1.368 . S
C1115 C1096 1.429 . S
C1115 C1109 1.429 . S
C1115 C1116 1.523 . S
C1116 C1097 1.368 . S
C1116 C1110 1.368 . S
C1116 C1115 1.523 . S
C1117 C1101 1.429 . S
C1117 C1113 1.429 . S
C1117 C1118 1.523 . S
C1118 C1102 1.368 . S
C1118 C1114 1.368 . S
C1118 C1117 1.523 . S
H1119 C1094 0.950 . S
H1120 C1096 0.950 . S
H1121 C1097 0.949 . S
H1122 C1099 0.950 . S
H1123 C1101 0.950 . S
C1124 C1125 1.349 . S
C1124 C1126 1.327 . S
C1124 H1149 0.950 . S
C1125 C1124 1.349 . S
C1125 C1141 1.349 . S
C1126 C1124 1.327 . S
C1126 C1145 1.429 . S
C1126 H1150 0.950 . S
C1127 C1144 1.574 . S
C1127 C1146 1.368 . S
C1127 H1151 0.949 . S
H1128 C1132 0.949 . S
C1129 C1130 1.349 . S
C1129 C1131 1.327 . S
C1129 H1152 0.950 . S
C1130 C1129 1.349 . S
C1130 C1142 1.349 . S
C1131 C1129 1.327 . S
C1131 C1147 1.429 . S
C1131 H1153 0.950 . S
C1132 H1128 0.949 . S
C1132 C1140 1.574 . S
C1132 C1148 1.368 . S
H1133 C1141 0.950 . S
H1134 C1139 0.950 . S
H1135 C1140 0.949 . S
H1136 C1142 0.950 . S
H1137 C1143 0.950 . S
H1138 C1144 0.949 . S
C1139 H1134 0.950 . S
C1139 C1141 1.327 . S
C1139 C1145 1.429 . S
C1140 C1132 1.574 . S
C1140 H1135 0.949 . S
C1140 C1146 1.368 . S
C1141 C1125 1.349 . S
C1141 H1133 0.950 . S
C1141 C1139 1.327 . S
C1142 C1130 1.349 . S
C1142 H1136 0.950 . S
C1142 C1143 1.327 . S
C1143 H1137 0.950 . S
C1143 C1142 1.327 . S
C1143 C1147 1.429 . S
C1144 C1127 1.574 . S
C1144 H1138 0.949 . S
C1144 C1148 1.368 . S
C1145 C1126 1.429 . S
C1145 C1139 1.429 . S
C1145 C1146 1.523 . S
C1146 C1127 1.368 . S
C1146 C1140 1.368 . S
C1146 C1145 1.523 . S
C1147 C1131 1.429 . S
C1147 C1143 1.429 . S
C1147 C1148 1.523 . S
C1148 C1132 1.368 . S
C1148 C1144 1.368 . S
C1148 C1147 1.523 . S
H1149 C1124 0.950 . S
H1150 C1126 0.950 . S
H1151 C1127 0.949 . S
H1152 C1129 0.950 . S
H1153 C1131 0.950 . S
C1154 C1155 1.349 . S
C1154 C1156 1.327 . S
C1154 H1179 0.950 . S
C1155 C1154 1.349 . S
C1155 C1171 1.349 1_565 S
C1156 C1154 1.327 . S
C1156 C1175 1.429 . S
C1156 H1180 0.950 . S
C1157 C1174 1.574 . S
C1157 C1176 1.368 1_545 S
C1157 H1181 0.949 . S
H1158 C1162 0.949 . S
C1159 C1160 1.349 1_545 S
C1159 C1161 1.327 . S
C1159 H1182 0.950 . S
C1160 C1159 1.349 1_565 S
C1160 C1172 1.349 . S
C1161 C1159 1.327 . S
C1161 C1177 1.429 1_545 S
C1161 H1183 0.950 . S
C1162 H1158 0.949 . S
C1162 C1170 1.574 . S
C1162 C1178 1.368 . S
H1163 C1171 0.950 . S
H1164 C1169 0.950 . S
H1165 C1170 0.949 . S
H1166 C1172 0.950 . S
H1167 C1173 0.950 . S
H1168 C1174 0.949 . S
C1169 H1164 0.950 . S
C1169 C1171 1.327 . S
C1169 C1175 1.429 1_545 S
C1170 C1162 1.574 . S
C1170 H1165 0.949 . S
C1170 C1176 1.368 . S
C1171 C1155 1.349 1_545 S
C1171 H1163 0.950 . S
C1171 C1169 1.327 . S
C1172 C1160 1.349 . S
C1172 H1166 0.950 . S
C1172 C1173 1.327 . S
C1173 H1167 0.950 . S
C1173 C1172 1.327 . S
C1173 C1177 1.429 . S
C1174 C1157 1.574 . S
C1174 H1168 0.949 . S
C1174 C1178 1.368 1_545 S
C1175 C1156 1.429 . S
C1175 C1169 1.429 1_565 S
C1175 C1176 1.523 . S
C1176 C1157 1.368 1_565 S
C1176 C1170 1.368 . S
C1176 C1175 1.523 . S
C1177 C1161 1.429 1_565 S
C1177 C1173 1.429 . S
C1177 C1178 1.523 . S
C1178 C1162 1.368 . S
C1178 C1174 1.368 1_565 S
C1178 C1177 1.523 . S
H1179 C1154 0.950 . S
H1180 C1156 0.950 . S
H1181 C1157 0.949 . S
H1182 C1159 0.950 . S
H1183 C1161 0.950 . S
C225 C11 1.903 . S
C230 C109 1.882 1_455 S
C255 C25 1.882 1_455 S
C260 C67 1.903 . S
C285 C81 1.903 . S
C290 C39 1.903 . S
C315 C53 1.903 . S
C320 C95 1.903 . S
C345 C123 1.903 . S
C350 C179 1.903 . S
C375 C137 1.882 1_655 S
C380 C207 1.903 . S
C405 C165 1.882 1_655 S
C410 C151 1.903 . S
C435 C221 1.903 . S
C440 C193 1.903 . S
C465 C9 1.564 . S
C470 C93 1.564 . S
C495 C103 1.240 . S
C500 C19 1.240 . S
C525 C37 1.564 . S
C530 C65 1.564 . S
C555 C75 1.240 . S
C560 C47 1.240 . S
C585 C0 0.656 . S
C590 C196 0.656 . S
C615 C163 1.564 . S
C620 C23 1.564 . S
C645 C182 0.656 . S
C650 C28 0.656 . S
C675 C177 1.564 . S
C680 C51 1.564 . S
C705 C140 0.656 . S
C710 C56 0.656 . S
C735 C79 1.564 . S
C740 C219 1.564 . S
C765 C84 0.656 . S
C770 C112 0.656 . S
C795 C107 1.564 . S
C800 C135 1.564 . S
C825 C5 1.239 . S
C830 C61 1.239 . S
C855 C117 1.240 . S
C860 C187 1.240 . S
C885 C168 0.648 1_556 S
C890 C126 0.648 1_554 S
C915 C201 1.240 . S
C920 C145 1.240 . S
C945 C98 0.648 1_554 S
C950 C42 0.648 1_556 S
C975 C33 1.239 . S
C980 C89 1.239 . S
C1005 C154 0.656 . S
C1010 C210 0.656 . S
C1035 C191 1.564 . S
C1040 C149 1.564 . S
C1065 C215 1.240 . S
C1070 C173 1.240 . S
C1095 C205 1.564 . S
C1100 C121 1.564 . S
C1125 C159 1.240 . S
C1130 C131 1.240 . S
C1155 C14 0.656 . S
C1160 C70 0.656 . S
