# Generated by pormake.
# Topology uox, (4)-cn, num edge types: 1
# Building blocks:
#     Node 0, Type 0, BuildingBlock: AZAVOO_clean_sbu_0, # of connection points: 4
#     Node 1, Type 0, BuildingBlock: AZAVOO_clean_sbu_0, # of connection points: 4
#     Node 2, Type 0, BuildingBlock: AZAVOO_clean_sbu_0, # of connection points: 4
#     Node 3, Type 0, BuildingBlock: AZAVOO_clean_sbu_0, # of connection points: 4
#     Node 4, Type 0, BuildingBlock: AZAVOO_clean_sbu_0, # of connection points: 4
#     Node 5, Type 0, BuildingBlock: AZAVOO_clean_sbu_0, # of connection points: 4
#     Node 6, Type 0, BuildingBlock: AZAVOO_clean_sbu_0, # of connection points: 4
#     Node 7, Type 0, BuildingBlock: AZAVOO_clean_sbu_0, # of connection points: 4
#     Node 8, Type 0, BuildingBlock: AZAVOO_clean_sbu_0, # of connection points: 4
#     Node 9, Type 0, BuildingBlock: AZAVOO_clean_sbu_0, # of connection points: 4
#     Node 10, Type 0, BuildingBlock: AZAVOO_clean_sbu_0, # of connection points: 4
#     Node 11, Type 0, BuildingBlock: AZAVOO_clean_sbu_0, # of connection points: 4
#     Node 12, Type 0, BuildingBlock: AZAVOO_clean_sbu_0, # of connection points: 4
#     Node 13, Type 0, BuildingBlock: AZAVOO_clean_sbu_0, # of connection points: 4
#     Node 14, Type 0, BuildingBlock: AZAVOO_clean_sbu_0, # of connection points: 4
#     Node 15, Type 0, BuildingBlock: AZAVOO_clean_sbu_0, # of connection points: 4
#     Node 16, Type 0, BuildingBlock: AZAVOO_clean_sbu_0, # of connection points: 4
#     Node 17, Type 0, BuildingBlock: AZAVOO_clean_sbu_0, # of connection points: 4
#     Node 18, Type 0, BuildingBlock: AZAVOO_clean_sbu_0, # of connection points: 4
#     Node 19, Type 0, BuildingBlock: AZAVOO_clean_sbu_0, # of connection points: 4
#     Node 20, Type 0, BuildingBlock: AZAVOO_clean_sbu_0, # of connection points: 4
#     Node 21, Type 0, BuildingBlock: AZAVOO_clean_sbu_0, # of connection points: 4
#     Node 22, Type 0, BuildingBlock: AZAVOO_clean_sbu_0, # of connection points: 4
#     Node 23, Type 0, BuildingBlock: AZAVOO_clean_sbu_0, # of connection points: 4
#     Node 24, Type 0, BuildingBlock: AZAVOO_clean_sbu_0, # of connection points: 4
#     Node 25, Type 0, BuildingBlock: AZAVOO_clean_sbu_0, # of connection points: 4
#     Node 26, Type 0, BuildingBlock: AZAVOO_clean_sbu_0, # of connection points: 4
#     Node 27, Type 0, BuildingBlock: AZAVOO_clean_sbu_0, # of connection points: 4
#     Node 28, Type 0, BuildingBlock: AZAVOO_clean_sbu_0, # of connection points: 4
#     Node 29, Type 0, BuildingBlock: AZAVOO_clean_sbu_0, # of connection points: 4
#     Node 30, Type 0, BuildingBlock: AZAVOO_clean_sbu_0, # of connection points: 4
#     Node 31, Type 0, BuildingBlock: AZAVOO_clean_sbu_0, # of connection points: 4
#     Edge 32, Type (0, 0), BuildingBlock: ZUJKAS_clean_linker_0, # of connection points: 2
#     Edge 33, Type (0, 0), BuildingBlock: ZUJKAS_clean_linker_0, # of connection points: 2
#     Edge 34, Type (0, 0), BuildingBlock: ZUJKAS_clean_linker_0, # of connection points: 2
#     Edge 35, Type (0, 0), BuildingBlock: ZUJKAS_clean_linker_0, # of connection points: 2
#     Edge 36, Type (0, 0), BuildingBlock: ZUJKAS_clean_linker_0, # of connection points: 2
#     Edge 37, Type (0, 0), BuildingBlock: ZUJKAS_clean_linker_0, # of connection points: 2
#     Edge 38, Type (0, 0), BuildingBlock: ZUJKAS_clean_linker_0, # of connection points: 2
#     Edge 39, Type (0, 0), BuildingBlock: ZUJKAS_clean_linker_0, # of connection points: 2
#     Edge 40, Type (0, 0), BuildingBlock: ZUJKAS_clean_linker_0, # of connection points: 2
#     Edge 41, Type (0, 0), BuildingBlock: ZUJKAS_clean_linker_0, # of connection points: 2
#     Edge 42, Type (0, 0), BuildingBlock: ZUJKAS_clean_linker_0, # of connection points: 2
#     Edge 43, Type (0, 0), BuildingBlock: ZUJKAS_clean_linker_0, # of connection points: 2
#     Edge 44, Type (0, 0), BuildingBlock: ZUJKAS_clean_linker_0, # of connection points: 2
#     Edge 45, Type (0, 0), BuildingBlock: ZUJKAS_clean_linker_0, # of connection points: 2
#     Edge 46, Type (0, 0), BuildingBlock: ZUJKAS_clean_linker_0, # of connection points: 2
#     Edge 47, Type (0, 0), BuildingBlock: ZUJKAS_clean_linker_0, # of connection points: 2
#     Edge 48, Type (0, 0), BuildingBlock: ZUJKAS_clean_linker_0, # of connection points: 2
#     Edge 49, Type (0, 0), BuildingBlock: ZUJKAS_clean_linker_0, # of connection points: 2
#     Edge 50, Type (0, 0), BuildingBlock: ZUJKAS_clean_linker_0, # of connection points: 2
#     Edge 51, Type (0, 0), BuildingBlock: ZUJKAS_clean_linker_0, # of connection points: 2
#     Edge 52, Type (0, 0), BuildingBlock: ZUJKAS_clean_linker_0, # of connection points: 2
#     Edge 53, Type (0, 0), BuildingBlock: ZUJKAS_clean_linker_0, # of connection points: 2
#     Edge 54, Type (0, 0), BuildingBlock: ZUJKAS_clean_linker_0, # of connection points: 2
#     Edge 55, Type (0, 0), BuildingBlock: ZUJKAS_clean_linker_0, # of connection points: 2
#     Edge 56, Type (0, 0), BuildingBlock: ZUJKAS_clean_linker_0, # of connection points: 2
#     Edge 57, Type (0, 0), BuildingBlock: ZUJKAS_clean_linker_0, # of connection points: 2
#     Edge 58, Type (0, 0), BuildingBlock: ZUJKAS_clean_linker_0, # of connection points: 2
#     Edge 59, Type (0, 0), BuildingBlock: ZUJKAS_clean_linker_0, # of connection points: 2
#     Edge 60, Type (0, 0), BuildingBlock: ZUJKAS_clean_linker_0, # of connection points: 2
#     Edge 61, Type (0, 0), BuildingBlock: ZUJKAS_clean_linker_0, # of connection points: 2
#     Edge 62, Type (0, 0), BuildingBlock: ZUJKAS_clean_linker_0, # of connection points: 2
#     Edge 63, Type (0, 0), BuildingBlock: ZUJKAS_clean_linker_0, # of connection points: 2
#     Edge 64, Type (0, 0), BuildingBlock: ZUJKAS_clean_linker_0, # of connection points: 2
#     Edge 65, Type (0, 0), BuildingBlock: ZUJKAS_clean_linker_0, # of connection points: 2
#     Edge 66, Type (0, 0), BuildingBlock: ZUJKAS_clean_linker_0, # of connection points: 2
#     Edge 67, Type (0, 0), BuildingBlock: ZUJKAS_clean_linker_0, # of connection points: 2
#     Edge 68, Type (0, 0), BuildingBlock: ZUJKAS_clean_linker_0, # of connection points: 2
#     Edge 69, Type (0, 0), BuildingBlock: ZUJKAS_clean_linker_0, # of connection points: 2
#     Edge 70, Type (0, 0), BuildingBlock: ZUJKAS_clean_linker_0, # of connection points: 2
#     Edge 71, Type (0, 0), BuildingBlock: ZUJKAS_clean_linker_0, # of connection points: 2
#     Edge 72, Type (0, 0), BuildingBlock: ZUJKAS_clean_linker_0, # of connection points: 2
#     Edge 73, Type (0, 0), BuildingBlock: ZUJKAS_clean_linker_0, # of connection points: 2
#     Edge 74, Type (0, 0), BuildingBlock: ZUJKAS_clean_linker_0, # of connection points: 2
#     Edge 75, Type (0, 0), BuildingBlock: ZUJKAS_clean_linker_0, # of connection points: 2
#     Edge 76, Type (0, 0), BuildingBlock: ZUJKAS_clean_linker_0, # of connection points: 2
#     Edge 77, Type (0, 0), BuildingBlock: ZUJKAS_clean_linker_0, # of connection points: 2
#     Edge 78, Type (0, 0), BuildingBlock: ZUJKAS_clean_linker_0, # of connection points: 2
#     Edge 79, Type (0, 0), BuildingBlock: ZUJKAS_clean_linker_0, # of connection points: 2
#     Edge 80, Type (0, 0), BuildingBlock: ZUJKAS_clean_linker_0, # of connection points: 2
#     Edge 81, Type (0, 0), BuildingBlock: ZUJKAS_clean_linker_0, # of connection points: 2
#     Edge 82, Type (0, 0), BuildingBlock: ZUJKAS_clean_linker_0, # of connection points: 2
#     Edge 83, Type (0, 0), BuildingBlock: ZUJKAS_clean_linker_0, # of connection points: 2
#     Edge 84, Type (0, 0), BuildingBlock: ZUJKAS_clean_linker_0, # of connection points: 2
#     Edge 85, Type (0, 0), BuildingBlock: ZUJKAS_clean_linker_0, # of connection points: 2
#     Edge 86, Type (0, 0), BuildingBlock: ZUJKAS_clean_linker_0, # of connection points: 2
#     Edge 87, Type (0, 0), BuildingBlock: ZUJKAS_clean_linker_0, # of connection points: 2
#     Edge 88, Type (0, 0), BuildingBlock: ZUJKAS_clean_linker_0, # of connection points: 2
#     Edge 89, Type (0, 0), BuildingBlock: ZUJKAS_clean_linker_0, # of connection points: 2
#     Edge 90, Type (0, 0), BuildingBlock: ZUJKAS_clean_linker_0, # of connection points: 2
#     Edge 91, Type (0, 0), BuildingBlock: ZUJKAS_clean_linker_0, # of connection points: 2
#     Edge 92, Type (0, 0), BuildingBlock: ZUJKAS_clean_linker_0, # of connection points: 2
#     Edge 93, Type (0, 0), BuildingBlock: ZUJKAS_clean_linker_0, # of connection points: 2
#     Edge 94, Type (0, 0), BuildingBlock: ZUJKAS_clean_linker_0, # of connection points: 2
#     Edge 95, Type (0, 0), BuildingBlock: ZUJKAS_clean_linker_0, # of connection points: 2
# Relax obj value: 0.135
# Max RMSD: 0.161
# Mean RMSD: 0.160
data_MOF--net-uox--node1-AZAVOO_clean_sbu_0--edge1-ZUJKAS_clean_linker_0
_symmetry_space_group_name_H-M    P1
_symmetry_Int_Tables_number       1
_symmetry_cell_setting            triclinic
loop_
_symmetry_equiv_pos_as_xyz
'x, y, z'
_cell_length_a     55.787682
_cell_length_b     55.785957
_cell_length_c     104.41991
_cell_angle_alpha  90.003865
_cell_angle_beta   89.994118
_cell_angle_gamma 89.991723
loop_
_atom_site_label
_atom_site_type_symbol
_atom_site_fract_x
_atom_site_fract_y
_atom_site_fract_z
_atom_type_partial_charge
Mg0 Mg 0.48428 0.00822 0.15201 0.0
O1 O 0.45421 0.03645 0.15191 0.0
O2 O 0.42216 0.02108 0.16174 0.0
Mg3 Mg 0.43198 0.98364 0.1688 0.0
C4 C 0.43252 0.0381 0.15573 0.0
C5 C 0.52471 0.03251 0.13614 0.0
O6 O 0.5236 0.0114 0.13059 0.0
O7 O 0.4926 0.01541 0.17314 0.0
O8 O 0.46002 0.99958 0.18235 0.0
O9 O 0.46881 0.99239 0.13404 0.0
O10 O 0.45904 0.98087 0.15357 0.0
C11 C 0.48029 0.01013 0.18306 0.0
C12 C 0.45558 0.97927 0.14144 0.0
O13 O 0.51075 0.03693 0.14547 0.0
Mg14 Mg 0.24263 0.22183 0.39972 0.0
O15 O 0.21097 0.19543 0.39891 0.0
O16 O 0.22257 0.16091 0.40782 0.0
Mg17 Mg 0.2614 0.16501 0.41445 0.0
C18 C 0.20678 0.1738 0.40225 0.0
C19 C 0.22322 0.26639 0.38528 0.0
O20 O 0.24387 0.26312 0.37949 0.0
O21 O 0.23694 0.22813 0.42118 0.0
O22 O 0.2503 0.19341 0.42916 0.0
O23 O 0.25681 0.20767 0.38102 0.0
O24 O 0.26631 0.19311 0.40003 0.0
C25 C 0.24195 0.21455 0.43067 0.0
C26 C 0.26779 0.19164 0.38779 0.0
O27 O 0.21737 0.2524 0.39436 0.0
Mg28 Mg 0.02933 0.99462 0.65476 0.0
O29 O 0.05676 0.96406 0.65275 0.0
O30 O 0.08989 0.97443 0.66337 0.0
Mg31 Mg 0.0838 0.01132 0.67226 0.0
C32 C 0.07813 0.95967 0.65646 0.0
C33 C 0.00128 0.96102 0.63598 0.0
O34 O 0.01981 0.96625 0.62873 0.0
O35 O 0.02097 0.98438 0.67545 0.0
O36 O 0.05451 0.99614 0.68539 0.0
O37 O 0.0451 0.01287 0.63759 0.0
O38 O 0.05683 0.01933 0.65748 0.0
C39 C 0.03343 0.9872 0.6856 0.0
C40 C 0.05956 0.02351 0.64546 0.0
O41 O 7e-05 0.96983 0.64719 0.0
Mg42 Mg 0.25555 0.77482 0.90435 0.0
O43 O 0.28655 0.80199 0.90293 0.0
O44 O 0.27595 0.83517 0.91346 0.0
Mg45 Mg 0.23888 0.82912 0.92209 0.0
C46 C 0.2909 0.82333 0.90671 0.0
C47 C 0.29374 0.7482 0.88719 0.0
O48 O 0.29411 0.76912 0.88142 0.0
O49 O 0.26501 0.76576 0.92511 0.0
O50 O 0.25372 0.79948 0.93505 0.0
O51 O 0.2382 0.79153 0.88712 0.0
O52 O 0.2312 0.80259 0.90707 0.0
C53 C 0.26233 0.77826 0.93526 0.0
C54 C 0.22755 0.80589 0.89505 0.0
O55 O 0.27997 0.74515 0.89676 0.0
Mg56 Mg 0.47389 0.99042 0.34219 0.0
O57 O 0.4457 0.96027 0.34298 0.0
O58 O 0.41363 0.9722 0.33185 0.0
Mg59 Mg 0.42093 0.00969 0.32399 0.0
C60 C 0.42454 0.95668 0.33869 0.0
C61 C 0.51588 0.9704 0.35885 0.0
O62 O 0.51365 0.99187 0.36389 0.0
O63 O 0.48342 0.98159 0.32142 0.0
O64 O 0.45085 0.99498 0.31119 0.0
O65 O 0.45756 0.0075 0.3596 0.0
O66 O 0.44651 0.0153 0.33969 0.0
C67 C 0.47171 0.98555 0.31113 0.0
C68 C 0.44312 0.01824 0.35177 0.0
O69 O 0.50217 0.96441 0.34967 0.0
Mg70 Mg 0.25692 0.22893 0.59181 0.0
O71 O 0.2851 0.19898 0.59385 0.0
O72 O 0.27084 0.16609 0.58435 0.0
Mg73 Mg 0.23426 0.17496 0.57579 0.0
C74 C 0.28715 0.17697 0.59065 0.0
C75 C 0.27797 0.27107 0.60733 0.0
O76 O 0.25589 0.27007 0.61168 0.0
O77 O 0.26692 0.23497 0.57076 0.0
O78 O 0.25179 0.20161 0.56201 0.0
O79 O 0.23857 0.21557 0.60957 0.0
O80 O 0.22977 0.20362 0.58999 0.0
C81 C 0.2626 0.22171 0.56104 0.0
C82 C 0.22633 0.20165 0.6021 0.0
O83 O 0.28443 0.25628 0.59874 0.0
Mg84 Mg 0.02635 0.01 0.84427 0.0
O85 O 0.05257 0.04172 0.84605 0.0
O86 O 0.08602 0.0322 0.83545 0.0
Mg87 Mg 0.08147 0.99484 0.8269 0.0
C88 C 0.07375 0.04675 0.84224 0.0
C89 C 0.99415 0.03911 0.86339 0.0
O90 O 0.01031 0.031 0.87145 0.0
O91 O 0.01763 0.01926 0.82347 0.0
O92 O 0.05168 0.00854 0.81368 0.0
O93 O 0.04291 0.99286 0.86159 0.0
O94 O 0.05484 0.98634 0.84176 0.0
C95 C 0.03027 0.01666 0.81337 0.0
C96 C 0.05778 0.98261 0.8538 0.0
O97 O 0.99593 0.03376 0.85159 0.0
Mg98 Mg 0.24179 0.78636 0.09311 0.0
O99 O 0.21073 0.8133 0.09449 0.0
O100 O 0.22018 0.84575 0.08306 0.0
Mg101 Mg 0.25714 0.83961 0.07423 0.0
C102 C 0.20578 0.83422 0.09028 0.0
C103 C 0.22402 0.74496 0.11093 0.0
O104 O 0.24518 0.74901 0.11602 0.0
O105 O 0.23161 0.776 0.07266 0.0
O106 O 0.2425 0.8089 0.06188 0.0
O107 O 0.2599 0.80404 0.10981 0.0
O108 O 0.26594 0.81409 0.08964 0.0
C109 C 0.23405 0.78762 0.06221 0.0
C110 C 0.27025 0.81794 0.10155 0.0
O111 O 0.21739 0.75743 0.10138 0.0
Mg112 Mg 0.52255 0.99084 0.84163 0.0
O113 O 0.55233 0.96238 0.843 0.0
O114 O 0.58445 0.97609 0.83257 0.0
Mg115 Mg 0.57522 0.01271 0.82416 0.0
C116 C 0.57399 0.96001 0.83922 0.0
C117 C 0.4819 0.96933 0.85834 0.0
O118 O 0.48361 0.99103 0.86315 0.0
O119 O 0.51448 0.98096 0.8208 0.0
O120 O 0.54704 0.99565 0.81105 0.0
O121 O 0.53757 0.0091 0.85902 0.0
O122 O 0.54803 0.01775 0.83917 0.0
C123 C 0.52672 0.98513 0.8107 0.0
C124 C 0.55101 0.02119 0.85123 0.0
O125 O 0.49562 0.96345 0.84914 0.0
Mg126 Mg 0.76265 0.78236 0.59017 0.0
O127 O 0.79374 0.80919 0.5915 0.0
O128 O 0.78464 0.84153 0.57991 0.0
Mg129 Mg 0.74766 0.83544 0.57108 0.0
C130 C 0.79888 0.83 0.58723 0.0
C131 C 0.78114 0.74268 0.60887 0.0
O132 O 0.76069 0.74803 0.61442 0.0
O133 O 0.77283 0.77161 0.56978 0.0
O134 O 0.76207 0.80442 0.55887 0.0
O135 O 0.74458 0.80036 0.60678 0.0
O136 O 0.73858 0.81015 0.58656 0.0
C137 C 0.7704 0.78309 0.55928 0.0
C138 C 0.7343 0.81419 0.59847 0.0
O139 O 0.78703 0.75362 0.59867 0.0
Mg140 Mg 0.97045 0.00864 0.34296 0.0
O141 O 0.94426 0.04045 0.34413 0.0
O142 O 0.91087 0.0309 0.33352 0.0
Mg143 Mg 0.91566 0.99327 0.32534 0.0
C144 C 0.92318 0.04555 0.34022 0.0
C145 C 0.998 0.04605 0.36003 0.0
O146 O 0.97731 0.04616 0.36603 0.0
O147 O 0.9798 0.01715 0.32215 0.0
O148 O 0.94587 0.00648 0.31223 0.0
O149 O 0.95337 0.99228 0.36033 0.0
O150 O 0.9419 0.98508 0.34047 0.0
C151 C 0.96735 0.0144 0.31199 0.0
C152 C 0.93864 0.98181 0.35253 0.0
O153 O 0.0007 0.03255 0.35032 0.0
Mg154 Mg 0.74766 0.2357 0.09515 0.0
O155 O 0.71716 0.20786 0.09645 0.0
O156 O 0.72952 0.17443 0.08671 0.0
Mg157 Mg 0.767 0.18083 0.07872 0.0
C158 C 0.71373 0.18618 0.09294 0.0
C159 C 0.70893 0.26279 0.11166 0.0
O160 O 0.70945 0.24245 0.118 0.0
O161 O 0.73932 0.24331 0.07403 0.0
O162 O 0.75216 0.20922 0.06504 0.0
O163 O 0.76406 0.22021 0.113 0.0
O164 O 0.77277 0.20838 0.09339 0.0
C165 C 0.74299 0.23014 0.06421 0.0
C166 C 0.77547 0.20564 0.10552 0.0
O167 O 0.72224 0.26528 0.10186 0.0
Mg168 Mg 0.51891 0.00131 0.65025 0.0
O169 O 0.5482 0.03038 0.65001 0.0
O170 O 0.58075 0.01566 0.65966 0.0
Mg171 Mg 0.57213 0.97788 0.66664 0.0
C172 C 0.5699 0.0325 0.65375 0.0
C173 C 0.47513 0.02302 0.63609 0.0
O174 O 0.4746 0.00075 0.63199 0.0
O175 O 0.51088 0.00809 0.67146 0.0
O176 O 0.54397 0.99287 0.68043 0.0
O177 O 0.53431 0.9861 0.63212 0.0
O178 O 0.54491 0.97464 0.65154 0.0
C179 C 0.52347 0.00293 0.6813 0.0
C180 C 0.54809 0.97326 0.63938 0.0
O181 O 0.49142 0.02921 0.64393 0.0
Mg182 Mg 0.74132 0.77307 0.40235 0.0
O183 O 0.71088 0.80091 0.40146 0.0
O184 O 0.72236 0.83333 0.4124 0.0
Mg185 Mg 0.75959 0.82622 0.42059 0.0
C186 C 0.70703 0.82213 0.40558 0.0
C187 C 0.72398 0.72742 0.38793 0.0
O188 O 0.74712 0.7265 0.38564 0.0
O189 O 0.73233 0.76326 0.42308 0.0
O190 O 0.74465 0.79629 0.43332 0.0
O191 O 0.75848 0.79022 0.38519 0.0
O192 O 0.76638 0.80018 0.4052 0.0
C193 C 0.73563 0.77525 0.43335 0.0
C194 C 0.76967 0.804 0.39319 0.0
O195 O 0.71577 0.74463 0.3946 0.0
Mg196 Mg 0.96402 0.98822 0.15461 0.0
O197 O 0.93657 0.95771 0.15274 0.0
O198 O 0.90385 0.96758 0.16384 0.0
Mg199 Mg 0.91031 0.00429 0.17291 0.0
C200 C 0.9154 0.95309 0.15668 0.0
C201 C 0.00555 0.97036 0.13705 0.0
O202 O 0.00187 0.99176 0.13218 0.0
O203 O 0.97337 0.97749 0.17509 0.0
O204 O 0.94029 0.98896 0.18555 0.0
O205 O 0.94745 0.00692 0.1378 0.0
O206 O 0.93665 0.01287 0.15789 0.0
C207 C 0.9614 0.98008 0.18543 0.0
C208 C 0.93344 0.01745 0.14594 0.0
O209 O 0.9928 0.96352 0.14645 0.0
Mg210 Mg 0.75527 0.22141 0.90386 0.0
O211 O 0.78469 0.19266 0.90298 0.0
O212 O 0.7723 0.16021 0.91357 0.0
Mg213 Mg 0.73506 0.1684 0.92159 0.0
C214 C 0.78801 0.17126 0.90693 0.0
C215 C 0.7787 0.27105 0.89736 0.0
O216 O 0.75931 0.27863 0.90325 0.0
O217 O 0.76444 0.23039 0.92466 0.0
O218 O 0.75068 0.19763 0.93461 0.0
O219 O 0.73791 0.20541 0.88651 0.0
O220 O 0.72917 0.19507 0.90637 0.0
C221 C 0.76045 0.21834 0.93485 0.0
C222 C 0.72605 0.19177 0.89429 0.0
O223 O 0.78217 0.24864 0.89622 0.0
Mg224 Mg 0.96703 0.50935 0.65428 0.0
O225 O 0.94097 0.54141 0.65357 0.0
O226 O 0.90879 0.5321 0.66527 0.0
Mg227 Mg 0.91405 0.49465 0.67356 0.0
C228 C 0.92032 0.54659 0.6581 0.0
C229 C 0.99409 0.54652 0.63654 0.0
O230 O 0.97287 0.54796 0.63114 0.0
O231 O 0.97851 0.51812 0.67477 0.0
O232 O 0.94566 0.50766 0.68573 0.0
O233 O 0.9482 0.49266 0.63751 0.0
O234 O 0.93858 0.48611 0.6577 0.0
C235 C 0.96717 0.51546 0.6853 0.0
C236 C 0.93417 0.48251 0.64578 0.0
O237 O 0.99704 0.53253 0.64602 0.0
Mg238 Mg 0.74725 0.72633 0.89877 0.0
O239 O 0.71808 0.69719 0.89788 0.0
O240 O 0.73196 0.66439 0.90764 0.0
Mg241 Mg 0.76934 0.67269 0.91531 0.0
C242 C 0.71557 0.67545 0.90149 0.0
C243 C 0.72612 0.76926 0.88364 0.0
O244 O 0.74809 0.76851 0.87912 0.0
O245 O 0.73918 0.73404 0.91987 0.0
O246 O 0.75374 0.70075 0.92896 0.0
O247 O 0.76384 0.71121 0.88089 0.0
O248 O 0.77372 0.7003 0.9005 0.0
C249 C 0.74372 0.72129 0.92974 0.0
C250 C 0.7762 0.69742 0.88837 0.0
O251 O 0.7199 0.75405 0.89207 0.0
Mg252 Mg 0.51997 0.49585 0.15388 0.0
O253 O 0.54995 0.46778 0.15249 0.0
O254 O 0.58347 0.48301 0.16084 0.0
Mg255 Mg 0.57458 0.52051 0.16834 0.0
C256 C 0.57214 0.46602 0.15532 0.0
C257 C 0.47071 0.47111 0.1483 0.0
O258 O 0.46304 0.4921 0.15228 0.0
O259 O 0.51487 0.48833 0.1753 0.0
O260 O 0.54841 0.50488 0.18301 0.0
O261 O 0.53261 0.51217 0.13538 0.0
O262 O 0.54509 0.52338 0.15451 0.0
C263 C 0.52842 0.49414 0.18468 0.0
C264 C 0.54663 0.52539 0.14229 0.0
O265 O 0.49311 0.46702 0.1481 0.0
Mg266 Mg 0.76191 0.27603 0.40976 0.0
O267 O 0.79328 0.30239 0.40757 0.0
O268 O 0.78512 0.33524 0.41896 0.0
Mg269 Mg 0.74855 0.33006 0.42841 0.0
C270 C 0.79884 0.3233 0.41154 0.0
C271 C 0.79387 0.24795 0.39012 0.0
O272 O 0.78898 0.26696 0.38317 0.0
O273 O 0.77305 0.26608 0.43009 0.0
O274 O 0.76311 0.29935 0.44082 0.0
O275 O 0.74318 0.29334 0.3932 0.0
O276 O 0.73842 0.30429 0.41335 0.0
C277 C 0.77122 0.27793 0.44051 0.0
C278 C 0.73354 0.30775 0.40146 0.0
O279 O 0.78531 0.24641 0.40137 0.0
Mg280 Mg 0.9745 0.48714 0.84125 0.0
O281 O 0.94669 0.45706 0.84357 0.0
O282 O 0.91398 0.46682 0.83244 0.0
Mg283 Mg 0.92096 0.50276 0.82266 0.0
C284 C 0.92538 0.45258 0.83981 0.0
C285 C 0.01538 0.46933 0.85932 0.0
O286 O 0.01178 0.49086 0.86404 0.0
O287 O 0.9839 0.47531 0.8209 0.0
O288 O 0.9508 0.4864 0.81034 0.0
O289 O 0.95781 0.50681 0.85775 0.0
O290 O 0.94739 0.51187 0.83754 0.0
C291 C 0.97186 0.4774 0.81056 0.0
C292 C 0.94393 0.51694 0.8494 0.0
O293 O 0.00288 0.46245 0.84983 0.0
Mg294 Mg 0.75846 0.71637 0.08906 0.0
O295 O 0.78843 0.6883 0.09107 0.0
O296 O 0.77778 0.65568 0.08008 0.0
Mg297 Mg 0.74126 0.66274 0.07095 0.0
C298 C 0.79255 0.66697 0.0872 0.0
C299 C 0.7769 0.75719 0.10679 0.0
O300 O 0.75551 0.75346 0.11166 0.0
O301 O 0.76953 0.72525 0.06853 0.0
O302 O 0.75728 0.69224 0.05828 0.0
O303 O 0.73937 0.70038 0.10591 0.0
O304 O 0.73326 0.68944 0.08586 0.0
C305 C 0.76665 0.71314 0.05827 0.0
C306 C 0.72863 0.68643 0.09782 0.0
O307 O 0.7836 0.74474 0.09725 0.0
Mg308 Mg 0.52638 0.50135 0.34697 0.0
O309 O 0.55639 0.52952 0.34764 0.0
O310 O 0.58931 0.51392 0.3388 0.0
Mg311 Mg 0.58025 0.47598 0.33204 0.0
C312 C 0.57837 0.53114 0.34434 0.0
C313 C 0.47723 0.52741 0.3505 0.0
O314 O 0.47004 0.50792 0.34456 0.0
O315 O 0.52026 0.50793 0.32551 0.0
O316 O 0.55324 0.4907 0.31756 0.0
O317 O 0.5399 0.48579 0.36551 0.0
O318 O 0.55155 0.47387 0.34635 0.0
C319 C 0.53322 0.50145 0.31602 0.0
C320 C 0.55364 0.47232 0.35857 0.0
O321 O 0.49945 0.5302 0.3527 0.0
Mg322 Mg 0.73846 0.27177 0.59743 0.0
O323 O 0.70841 0.30005 0.59741 0.0
O324 O 0.72134 0.33215 0.58668 0.0
Mg325 Mg 0.75908 0.32427 0.5794 0.0
C326 C 0.70526 0.32128 0.59314 0.0
C327 C 0.71867 0.22843 0.61284 0.0
O328 O 0.74092 0.22908 0.61694 0.0
O329 O 0.73113 0.26167 0.57659 0.0
O330 O 0.74468 0.29435 0.56648 0.0
O331 O 0.75409 0.28904 0.61493 0.0
O332 O 0.7641 0.29849 0.59511 0.0
C333 C 0.73539 0.27343 0.56634 0.0
C334 C 0.76614 0.30258 0.60718 0.0
O335 O 0.71184 0.24386 0.60466 0.0
Mg336 Mg 0.02382 0.49055 0.34086 0.0
O337 O 0.05252 0.46108 0.34267 0.0
O338 O 0.08515 0.47317 0.33211 0.0
Mg339 Mg 0.07746 0.50981 0.32332 0.0
C340 C 0.07409 0.45777 0.33895 0.0
C341 C 0.99751 0.45539 0.35957 0.0
O342 O 0.01612 0.46095 0.36669 0.0
O343 O 0.01557 0.48033 0.3201 0.0
O344 O 0.04871 0.49357 0.31031 0.0
O345 O 0.03937 0.50912 0.35807 0.0
O346 O 0.05026 0.51635 0.33813 0.0
C347 C 0.02801 0.4838 0.30999 0.0
C348 C 0.05325 0.52035 0.35014 0.0
O349 O 0.99565 0.46452 0.34846 0.0
Mg350 Mg 0.25771 0.2689 0.09522 0.0
O351 O 0.28729 0.2973 0.09726 0.0
O352 O 0.2762 0.33021 0.08666 0.0
Mg353 Mg 0.23994 0.32264 0.07737 0.0
C354 C 0.2911 0.31884 0.09367 0.0
C355 C 0.27707 0.22569 0.11137 0.0
O356 O 0.25476 0.22596 0.1154 0.0
O357 O 0.26855 0.26037 0.07461 0.0
O358 O 0.25656 0.29373 0.06456 0.0
O359 O 0.23896 0.28491 0.11221 0.0
O360 O 0.23228 0.29557 0.09217 0.0
C361 C 0.26594 0.27283 0.06444 0.0
C362 C 0.22814 0.29885 0.10415 0.0
O363 O 0.28369 0.241 0.10308 0.0
Mg364 Mg 0.47519 0.50902 0.84454 0.0
O365 O 0.4476 0.53957 0.84572 0.0
O366 O 0.41423 0.528 0.83568 0.0
Mg367 Mg 0.42079 0.49064 0.82745 0.0
C368 C 0.42608 0.54344 0.8421 0.0
C369 C 0.5198 0.52763 0.85954 0.0
O370 O 0.5193 0.50523 0.86343 0.0
O371 O 0.48366 0.51771 0.82363 0.0
O372 O 0.44997 0.50525 0.8141 0.0
O373 O 0.45907 0.49212 0.86209 0.0
O374 O 0.44789 0.48393 0.84231 0.0
C375 C 0.47103 0.5142 0.8136 0.0
C376 C 0.44485 0.48078 0.85439 0.0
O377 O 0.50398 0.5348 0.85167 0.0
Mg378 Mg 0.2373 0.72074 0.59206 0.0
O379 O 0.20638 0.69365 0.59361 0.0
O380 O 0.21739 0.65971 0.58395 0.0
Mg381 Mg 0.25493 0.66527 0.57572 0.0
C382 C 0.20214 0.67207 0.59023 0.0
C383 C 0.21869 0.76413 0.60787 0.0
O384 O 0.24017 0.76132 0.61281 0.0
O385 O 0.22874 0.72833 0.57104 0.0
O386 O 0.24096 0.6941 0.56196 0.0
O387 O 0.25409 0.70533 0.6098 0.0
O388 O 0.26205 0.69301 0.59018 0.0
C389 C 0.23226 0.71524 0.56117 0.0
C390 C 0.26531 0.69064 0.60229 0.0
O391 O 0.212 0.75021 0.59892 0.0
Mg392 Mg 0.03381 0.51197 0.15199 0.0
O393 O 0.06153 0.54252 0.15128 0.0
O394 O 0.09366 0.53102 0.16245 0.0
Mg395 Mg 0.08673 0.4935 0.17034 0.0
C396 C 0.0826 0.54642 0.15561 0.0
C397 C 0.9915 0.52988 0.13531 0.0
O398 O 0.99432 0.50795 0.13097 0.0
O399 O 0.0237 0.52068 0.1727 0.0
O400 O 0.05639 0.50775 0.18302 0.0
O401 O 0.05096 0.49486 0.13482 0.0
O402 O 0.06095 0.48691 0.15481 0.0
C403 C 0.03537 0.51684 0.18302 0.0
C404 C 0.06465 0.48353 0.1428 0.0
O405 O 0.00525 0.53732 0.14417 0.0
Mg406 Mg 0.24286 0.27753 0.90597 0.0
O407 O 0.21266 0.30554 0.9049 0.0
O408 O 0.22443 0.33807 0.91564 0.0
Mg409 Mg 0.26175 0.33095 0.92376 0.0
C410 C 0.20898 0.32686 0.9089 0.0
C411 C 0.20732 0.2499 0.88776 0.0
O412 O 0.21239 0.26804 0.8802 0.0
O413 O 0.23412 0.26845 0.92677 0.0
O414 O 0.247 0.30141 0.93686 0.0
O415 O 0.25994 0.29393 0.88859 0.0
O416 O 0.26817 0.30456 0.90846 0.0
C417 C 0.2378 0.28044 0.937 0.0
C418 C 0.27133 0.30791 0.8964 0.0
O419 O 0.21694 0.24887 0.89878 0.0
Mg420 Mg 0.47407 0.49471 0.65425 0.0
O421 O 0.44582 0.46485 0.65296 0.0
O422 O 0.41297 0.47658 0.66342 0.0
Mg423 Mg 0.4204 0.51363 0.67183 0.0
C424 C 0.42436 0.46119 0.65672 0.0
C425 C 0.51595 0.47405 0.63766 0.0
O426 O 0.5142 0.49554 0.6326 0.0
O427 O 0.48282 0.48533 0.67506 0.0
O428 O 0.44955 0.49815 0.68489 0.0
O429 O 0.45784 0.51222 0.63693 0.0
O430 O 0.44731 0.52027 0.65684 0.0
C431 C 0.47045 0.48878 0.68519 0.0
C432 C 0.44395 0.5236 0.6448 0.0
O433 O 0.50203 0.46835 0.6468 0.0
Mg434 Mg 0.25585 0.72316 0.40134 0.0
O435 O 0.28579 0.69515 0.39912 0.0
O436 O 0.27434 0.66149 0.40892 0.0
Mg437 Mg 0.23747 0.66802 0.41776 0.0
C438 C 0.28955 0.6734 0.40237 0.0
C439 C 0.2759 0.76477 0.38468 0.0
O440 O 0.25505 0.76116 0.37915 0.0
O441 O 0.26571 0.7302 0.42228 0.0
O442 O 0.253 0.6962 0.4314 0.0
O443 O 0.23781 0.70844 0.3838 0.0
O444 O 0.23043 0.69615 0.40349 0.0
C445 C 0.26235 0.71707 0.43214 0.0
C446 C 0.22665 0.69391 0.39142 0.0
O447 O 0.28166 0.75198 0.39427 0.0
H448 H 0.51939 0.98937 0.30513 0.0
H449 H 0.53644 0.9927 0.28347 0.0
H450 H 0.46699 0.97765 0.26725 0.0
H451 H 0.44988 0.97457 0.2887 0.0
H452 H 0.51145 0.95523 0.25463 0.0
H453 H 0.51242 0.0543 0.26204 0.0
H454 H 0.52582 0.03463 0.27373 0.0
H455 H 0.49389 0.03524 0.27189 0.0
C456 C 0.50797 0.98605 0.29693 0.0
C457 C 0.48327 0.9819 0.29856 0.0
C458 C 0.5177 0.98809 0.2846 0.0
C459 C 0.50288 0.98563 0.27383 0.0
C460 C 0.47868 0.97961 0.27548 0.0
H461 H 0.4558 0.02143 0.20458 0.0
H462 H 0.47008 0.01831 0.2266 0.0
C463 C 0.46893 0.9779 0.28772 0.0
C464 C 0.51123 0.99198 0.26084 0.0
H465 H 0.51302 0.04033 0.24083 0.0
C466 C 0.51276 0.97379 0.25161 0.0
C467 C 0.51274 0.01624 0.257 0.0
C468 C 0.51114 0.03637 0.26662 0.0
C469 C 0.51382 0.97931 0.23851 0.0
C470 C 0.51321 0.00359 0.23463 0.0
C471 C 0.51365 0.02176 0.24389 0.0
C472 C 0.50667 0.01003 0.22135 0.0
C473 C 0.51334 0.9592 0.22885 0.0
C474 C 0.52283 0.00742 0.21115 0.0
C475 C 0.51472 0.00952 0.19848 0.0
C476 C 0.49033 0.01386 0.19597 0.0
C477 C 0.47466 0.018 0.20625 0.0
C478 C 0.4828 0.01625 0.21882 0.0
H479 H 0.51385 0.94126 0.23346 0.0
H480 H 0.49684 0.96049 0.22294 0.0
H481 H 0.52894 0.96081 0.22231 0.0
H482 H 0.54134 0.00263 0.21296 0.0
H483 H 0.52711 0.00607 0.19071 0.0
H484 H 0.26245 0.26806 0.55222 0.0
H485 H 0.26205 0.28064 0.52963 0.0
H486 H 0.27333 0.20734 0.51798 0.0
H487 H 0.27365 0.19474 0.54032 0.0
H488 H 0.29962 0.24427 0.50333 0.0
H489 H 0.20121 0.26015 0.50804 0.0
H490 H 0.22155 0.27478 0.51893 0.0
H491 H 0.21745 0.24295 0.51983 0.0
C492 C 0.26554 0.2548 0.54483 0.0
C493 C 0.26787 0.23039 0.54799 0.0
C494 C 0.26514 0.26198 0.53196 0.0
C495 C 0.26734 0.24484 0.52218 0.0
C496 C 0.27153 0.22081 0.52539 0.0
H497 H 0.2401 0.18875 0.45271 0.0
H498 H 0.2455 0.20346 0.47449 0.0
C499 C 0.27168 0.21363 0.53816 0.0
C500 C 0.2629 0.25082 0.50858 0.0
H501 H 0.21659 0.25527 0.4873 0.0
C502 C 0.28163 0.24755 0.4998 0.0
C503 C 0.23934 0.25492 0.50404 0.0
C504 C 0.2186 0.25837 0.51313 0.0
C505 C 0.2771 0.24652 0.4866 0.0
C506 C 0.25328 0.2486 0.48215 0.0
C507 C 0.23483 0.25378 0.49082 0.0
C508 C 0.24693 0.24083 0.46908 0.0
C509 C 0.29747 0.2413 0.47753 0.0
C510 C 0.24511 0.25717 0.45892 0.0
C511 C 0.24189 0.2488 0.44637 0.0
C512 C 0.24065 0.22401 0.44389 0.0
C513 C 0.24117 0.20793 0.45426 0.0
C514 C 0.24426 0.21628 0.46672 0.0
H515 H 0.31522 0.24428 0.48209 0.0
H516 H 0.29642 0.22231 0.47439 0.0
H517 H 0.29609 0.25275 0.46886 0.0
H518 H 0.24712 0.27621 0.46064 0.0
H519 H 0.24166 0.26161 0.43858 0.0
H520 H 0.05193 0.03289 0.79181 0.0
H521 H 0.03714 0.02903 0.7699 0.0
H522 H 0.9697 0.0022 0.7841 0.0
H523 H 0.98431 0.00652 0.80618 0.0
H524 H 0.99718 0.97072 0.76692 0.0
H525 H 0.98504 0.06184 0.7469 0.0
H526 H 0.01183 0.05866 0.7563 0.0
H527 H 0.98304 0.0555 0.76386 0.0
C528 C 0.03365 0.02698 0.79028 0.0
C529 C 0.01925 0.02001 0.80066 0.0
C530 C 0.02519 0.02485 0.77777 0.0
C531 C 0.0023 0.01544 0.77541 0.0
C532 C 0.98732 0.00971 0.78576 0.0
H533 H 0.98663 0.99388 0.69245 0.0
H534 H 0.9711 0.99704 0.71441 0.0
C535 C 0.99565 0.0123 0.79835 0.0
C536 C 0.99602 0.0083 0.76219 0.0
H537 H 0.99522 0.03053 0.7318 0.0
C538 C 0.99595 0.98375 0.75924 0.0
C539 C 0.99429 0.02531 0.75223 0.0
C540 C 0.99332 0.05182 0.75497 0.0
C541 C 0.99652 0.97586 0.74648 0.0
C542 C 0.99714 0.99297 0.73653 0.0
C543 C 0.99485 0.01742 0.73947 0.0
C544 C 0.00439 0.9864 0.72337 0.0
C545 C 0.99791 0.94936 0.74375 0.0
C546 C 0.02802 0.97883 0.7212 0.0
C547 C 0.03698 0.97735 0.70876 0.0
C548 C 0.02239 0.98317 0.69826 0.0
C549 C 0.99818 0.98903 0.70038 0.0
C550 C 0.98932 0.99095 0.71289 0.0
H551 H 0.99019 0.93868 0.75173 0.0
H552 H 0.98833 0.94483 0.73475 0.0
H553 H 0.01698 0.94411 0.74263 0.0
H554 H 0.04003 0.97559 0.72917 0.0
H555 H 0.0557 0.97284 0.70739 0.0
H556 H 0.27949 0.80004 0.95654 0.0
H557 H 0.27626 0.78555 0.97852 0.0
H558 H 0.24883 0.71799 0.96481 0.0
H559 H 0.25249 0.73234 0.94263 0.0
H560 H 0.21783 0.74499 0.98186 0.0
H561 H 0.30906 0.73477 0.0019 0.0
H562 H 0.30574 0.76147 0.99246 0.0
H563 H 0.30282 0.73261 0.98494 0.0
C564 C 0.27362 0.78178 0.95818 0.0
C565 C 0.26625 0.7673 0.94792 0.0
C566 C 0.27186 0.77348 0.97074 0.0
C567 C 0.26244 0.75065 0.97327 0.0
C568 C 0.25637 0.73556 0.96301 0.0
H569 H 0.24175 0.74044 0.0565 0.0
H570 H 0.24505 0.7231 0.03494 0.0
C571 C 0.25858 0.74373 0.95038 0.0
C572 C 0.25545 0.7447 0.98656 0.0
H573 H 0.27776 0.74598 0.01693 0.0
C574 C 0.23091 0.74437 0.98954 0.0
C575 C 0.2725 0.74372 0.99654 0.0
C576 C 0.29902 0.74292 0.99381 0.0
C577 C 0.22305 0.74557 0.00229 0.0
C578 C 0.24017 0.74711 0.01221 0.0
C579 C 0.26464 0.74495 0.00928 0.0
C580 C 0.23354 0.75532 0.0252 0.0
C581 C 0.19653 0.74669 0.00501 0.0
C582 C 0.22546 0.77893 0.02682 0.0
C583 C 0.22389 0.78893 0.03903 0.0
C584 C 0.23016 0.7754 0.04986 0.0
C585 C 0.23655 0.75118 0.04831 0.0
C586 C 0.23855 0.74128 0.03603 0.0
H587 H 0.186 0.73806 0.99725 0.0
H588 H 0.19219 0.73786 0.01426 0.0
H589 H 0.19092 0.76575 0.00563 0.0
H590 H 0.22187 0.79017 0.01857 0.0
H591 H 0.21897 0.80764 0.03995 0.0
H592 H 0.5508 0.9737 0.78901 0.0
H593 H 0.53545 0.97493 0.76714 0.0
H594 H 0.4642 0.98832 0.78144 0.0
H595 H 0.47948 0.98682 0.80353 0.0
H596 H 0.49258 0.95012 0.75391 0.0
H597 H 0.4883 0.04953 0.75947 0.0
H598 H 0.50672 0.03163 0.76999 0.0
H599 H 0.47471 0.03022 0.77127 0.0
C600 C 0.53175 0.97625 0.78753 0.0
C601 C 0.51636 0.98031 0.79795 0.0
C602 C 0.523 0.97692 0.77504 0.0
C603 C 0.49878 0.98194 0.77272 0.0
C604 C 0.48297 0.98446 0.78309 0.0
H605 H 0.47666 0.99915 0.68908 0.0
H606 H 0.46248 0.996 0.71135 0.0
C607 C 0.4917 0.98346 0.79567 0.0
C608 C 0.49131 0.98723 0.75944 0.0
H609 H 0.48932 0.03422 0.73853 0.0
C610 C 0.49092 0.96843 0.75053 0.0
C611 C 0.48937 0.01119 0.75513 0.0
C612 C 0.48979 0.03194 0.7644 0.0
C613 C 0.49044 0.97309 0.73733 0.0
C614 C 0.49052 0.99712 0.73301 0.0
C615 C 0.48908 0.01584 0.74192 0.0
C616 C 0.49729 0.00289 0.71969 0.0
C617 C 0.49199 0.95245 0.72804 0.0
C618 C 0.52126 0.0086 0.71713 0.0
C619 C 0.52938 0.01019 0.70455 0.0
C620 C 0.51359 0.00636 0.69428 0.0
C621 C 0.48915 0.00236 0.69683 0.0
C622 C 0.48106 0.00043 0.70951 0.0
H623 H 0.49111 0.93478 0.73293 0.0
H624 H 0.4771 0.95358 0.72101 0.0
H625 H 0.50908 0.95351 0.72261 0.0
H626 H 0.53401 0.01055 0.72489 0.0
H627 H 0.54828 0.01337 0.70285 0.0
H628 H 0.74575 0.72907 0.44011 0.0
H629 H 0.75054 0.71401 0.46209 0.0
H630 H 0.72351 0.781 0.47681 0.0
H631 H 0.71916 0.79618 0.45502 0.0
H632 H 0.78233 0.7403 0.47879 0.0
H633 H 0.69247 0.72977 0.50041 0.0
H634 H 0.69757 0.72818 0.48332 0.0
H635 H 0.69512 0.75679 0.49118 0.0
C636 C 0.73996 0.74017 0.44805 0.0
C637 C 0.7321 0.76378 0.44592 0.0
C638 C 0.74281 0.7316 0.46057 0.0
C639 C 0.73722 0.74633 0.47105 0.0
C640 C 0.72755 0.76919 0.46886 0.0
H641 H 0.78527 0.80256 0.53683 0.0
H642 H 0.78132 0.78491 0.51556 0.0
C643 C 0.72514 0.77789 0.45641 0.0
C644 C 0.74503 0.74005 0.48417 0.0
H645 H 0.72467 0.74099 0.51493 0.0
C646 C 0.76974 0.73961 0.4867 0.0
C647 C 0.72863 0.73895 0.49445 0.0
C648 C 0.70195 0.7382 0.49221 0.0
C649 C 0.77842 0.74062 0.4993 0.0
C650 C 0.76195 0.74213 0.50953 0.0
C651 C 0.7373 0.74002 0.50705 0.0
C652 C 0.76939 0.75029 0.52241 0.0
C653 C 0.8051 0.7416 0.50153 0.0
C654 C 0.76462 0.73645 0.53334 0.0
C655 C 0.7672 0.74646 0.54557 0.0
C656 C 0.77396 0.77061 0.54696 0.0
C657 C 0.78008 0.7839 0.53602 0.0
C658 C 0.77792 0.77379 0.52387 0.0
H659 H 0.81505 0.73274 0.49362 0.0
H660 H 0.81089 0.76062 0.50193 0.0
H661 H 0.80999 0.73291 0.51074 0.0
H662 H 0.75778 0.71837 0.53239 0.0
H663 H 0.7621 0.73591 0.55384 0.0
H664 H 0.01325 0.00327 0.30513 0.0
H665 H 0.0281 0.99791 0.28316 0.0
H666 H 0.9614 0.02559 0.26842 0.0
H667 H 0.94639 0.0305 0.29022 0.0
H668 H 0.00073 0.9663 0.26639 0.0
H669 H 0.01378 0.05612 0.245 0.0
H670 H 0.0154 0.05075 0.26207 0.0
H671 H 0.98679 0.05391 0.25431 0.0
C672 C 0.00216 0.00903 0.29719 0.0
C673 C 0.97867 0.01726 0.29933 0.0
C674 C 0.01061 0.00586 0.28467 0.0
C675 C 0.9959 0.01151 0.2742 0.0
C676 C 0.97317 0.02147 0.27638 0.0
H677 H 0.9404 0.96581 0.2076 0.0
H678 H 0.95722 0.96905 0.2291 0.0
C679 C 0.96458 0.0242 0.28883 0.0
C680 C 0.00212 0.00362 0.2611 0.0
H681 H 0.00257 0.02424 0.23038 0.0
C682 C 0.00195 0.97892 0.25851 0.0
C683 C 0.00389 0.02007 0.25087 0.0
C684 C 0.00522 0.04671 0.25319 0.0
C685 C 0.00107 0.97037 0.24589 0.0
C686 C 0.00034 0.98696 0.23568 0.0
C687 C 0.00298 0.01152 0.23824 0.0
C688 C 0.99251 0.97982 0.2227 0.0
C689 C 0.99942 0.94375 0.24357 0.0
C690 C 0.007 0.98416 0.21196 0.0
C691 C 0.99747 0.98197 0.19961 0.0
C692 C 0.97317 0.97606 0.1979 0.0
C693 C 0.95918 0.97035 0.20865 0.0
C694 C 0.9688 0.97211 0.22094 0.0
H695 H 0.00758 0.93347 0.25158 0.0
H696 H 0.98027 0.93853 0.24288 0.0
H697 H 0.00843 0.93868 0.23448 0.0
H698 H 0.02526 0.99036 0.21316 0.0
H699 H 0.00857 0.98673 0.19149 0.0
H700 H 0.77042 0.19527 0.95708 0.0
H701 H 0.76892 0.21189 0.97868 0.0
H702 H 0.75725 0.28253 0.96314 0.0
H703 H 0.75899 0.26598 0.94132 0.0
H704 H 0.79479 0.25497 0.99109 0.0
H705 H 0.69551 0.26136 0.98559 0.0
H706 H 0.71288 0.24175 0.97544 0.0
H707 H 0.71509 0.27359 0.97349 0.0
C708 C 0.76812 0.21444 0.95823 0.0
C709 C 0.76466 0.2293 0.94753 0.0
C710 C 0.7673 0.2239 0.97057 0.0
C711 C 0.76276 0.24835 0.97246 0.0
C712 C 0.76073 0.26359 0.96183 0.0
H713 H 0.74959 0.27616 0.05571 0.0
H714 H 0.75238 0.28894 0.03319 0.0
C715 C 0.76186 0.25414 0.9494 0.0
C716 C 0.75771 0.25679 0.9856 0.0
H717 H 0.71093 0.26163 0.00652 0.0
C718 C 0.77656 0.25733 0.99447 0.0
C719 C 0.73384 0.25965 0.9899 0.0
C720 C 0.71303 0.25908 0.98068 0.0
C721 C 0.77201 0.25892 0.00766 0.0
C722 C 0.74802 0.25986 0.01202 0.0
C723 C 0.72928 0.2611 0.0031 0.0
C724 C 0.74213 0.25442 0.02551 0.0
C725 C 0.79271 0.25744 0.01693 0.0
C726 C 0.73453 0.23116 0.02855 0.0
C727 C 0.73313 0.22384 0.04128 0.0
C728 C 0.73901 0.23973 0.05122 0.0
C729 C 0.74477 0.26363 0.04822 0.0
C730 C 0.74651 0.2709 0.03539 0.0
H731 H 0.8103 0.25648 0.01197 0.0
H732 H 0.79265 0.27342 0.02326 0.0
H733 H 0.79071 0.24135 0.0231 0.0
H734 H 0.73109 0.21821 0.02103 0.0
H735 H 0.72857 0.20535 0.04333 0.0
H736 H 0.9487 0.53082 0.70787 0.0
H737 H 0.96615 0.52516 0.72908 0.0
H738 H 0.03119 0.4984 0.71193 0.0
H739 H 0.01386 0.50445 0.69054 0.0
H740 H 0.00672 0.46602 0.72907 0.0
H741 H 0.02015 0.55497 0.75131 0.0
H742 H 0.99208 0.55279 0.74298 0.0
H743 H 0.0197 0.55056 0.73415 0.0
C744 C 0.96704 0.52457 0.7086 0.0
C745 C 0.97993 0.51807 0.69759 0.0
C746 C 0.97704 0.52142 0.72072 0.0
C747 C 0.0 0.51148 0.72206 0.0
C748 C 0.01353 0.50631 0.71107 0.0
H749 H 0.01864 0.48525 0.80412 0.0
H750 H 0.03439 0.48932 0.78227 0.0
C751 C 0.00366 0.50989 0.69888 0.0
C752 C 0.00771 0.50311 0.73485 0.0
H753 H 0.01049 0.52225 0.7658 0.0
C754 C 0.00837 0.47829 0.73709 0.0
C755 C 0.01011 0.51909 0.74526 0.0
C756 C 0.01072 0.54585 0.7433 0.0
C757 C 0.00884 0.46911 0.7496 0.0
C758 C 0.00858 0.48518 0.76005 0.0
C759 C 0.0105 0.50991 0.75777 0.0
C760 C 0.00179 0.4773 0.77309 0.0
C761 C 0.00809 0.44235 0.75155 0.0
C762 C 0.97854 0.46849 0.77513 0.0
C763 C 0.96945 0.46645 0.78752 0.0
C764 C 0.98353 0.47298 0.7981 0.0
C765 C 0.00751 0.47982 0.79613 0.0
C766 C 0.01649 0.48227 0.78367 0.0
H767 H 0.01633 0.43276 0.74332 0.0
H768 H 0.01752 0.43709 0.76048 0.0
H769 H 0.98913 0.43648 0.75229 0.0
H770 H 0.96674 0.46495 0.76711 0.0
H771 H 0.9509 0.46122 0.78878 0.0
H772 H 0.76327 0.76065 0.05191 0.0
H773 H 0.76071 0.7771 0.03011 0.0
H774 H 0.77671 0.7073 0.01457 0.0
H775 H 0.77906 0.69078 0.03617 0.0
H776 H 0.79881 0.75086 0.00153 0.0
H777 H 0.69971 0.75264 0.00879 0.0
H778 H 0.71918 0.76682 0.0203 0.0
H779 H 0.71881 0.73478 0.01897 0.0
C780 C 0.76701 0.74903 0.04384 0.0
C781 C 0.77116 0.72439 0.0457 0.0
C782 C 0.7654 0.75842 0.03142 0.0
C783 C 0.76827 0.74331 0.02079 0.0
C784 C 0.77442 0.71921 0.02268 0.0
H785 H 0.73166 0.69663 0.9511 0.0
H786 H 0.73497 0.71044 0.9732 0.0
C787 C 0.77573 0.70979 0.03502 0.0
C788 C 0.76205 0.75124 0.0077 0.0
H789 H 0.71379 0.75351 0.98764 0.0
C790 C 0.78028 0.75235 -0.00151 0.0
C791 C 0.73781 0.75297 0.00383 0.0
C792 C 0.71761 0.75173 0.01342 0.0
C793 C 0.77482 0.75336 0.98537 0.0
C794 C 0.75055 0.75314 0.98147 0.0
C795 C 0.73236 0.75386 0.99071 0.0
C796 C 0.74404 0.74693 0.96816 0.0
C797 C 0.79495 0.75249 0.97573 0.0
C798 C 0.747 0.76323 0.95805 0.0
C799 C 0.7448 0.75541 0.94534 0.0
C800 C 0.73999 0.73116 0.94269 0.0
C801 C 0.73546 0.71538 0.95288 0.0
C802 C 0.73732 0.72325 0.9655 0.0
H803 H 0.81288 0.75252 0.98036 0.0
H804 H 0.7933 0.7361 0.96976 0.0
H805 H 0.79375 0.76821 0.96925 0.0
H806 H 0.75216 0.7816 0.95997 0.0
H807 H 0.74856 0.76787 0.93764 0.0
H808 H 0.48735 0.51183 0.30776 0.0
H809 H 0.47261 0.51042 0.28552 0.0
H810 H 0.5442 0.49539 0.27226 0.0
H811 H 0.55907 0.49694 0.29412 0.0
H812 H 0.49855 0.53744 0.26054 0.0
H813 H 0.49216 0.43809 0.26132 0.0
H814 H 0.488 0.45635 0.27547 0.0
H815 H 0.51764 0.45072 0.26947 0.0
C816 C 0.49999 0.50866 0.30007 0.0
C817 C 0.52436 0.50429 0.30273 0.0
C818 C 0.49151 0.50774 0.28741 0.0
C819 C 0.50733 0.50245 0.27736 0.0
C820 C 0.53173 0.49924 0.27995 0.0
H821 H 0.55604 0.49411 0.20607 0.0
H822 H 0.54278 0.49495 0.22826 0.0
C823 C 0.54017 0.50017 0.29247 0.0
C824 C 0.49903 0.49945 0.26404 0.0
H825 H 0.49821 0.45653 0.24076 0.0
C826 C 0.49744 0.51979 0.25622 0.0
C827 C 0.4977 0.47638 0.25848 0.0
C828 C 0.49877 0.45406 0.2666 0.0
C829 C 0.49682 0.51758 0.24283 0.0
C830 C 0.49794 0.49452 0.23726 0.0
C831 C 0.49728 0.47417 0.2451 0.0
C832 C 0.50513 0.49158 0.22375 0.0
C833 C 0.49715 0.53987 0.23468 0.0
C834 C 0.48827 0.48863 0.21391 0.0
C835 C 0.49582 0.48805 0.20109 0.0
C836 C 0.52029 0.49055 0.19804 0.0
C837 C 0.53706 0.49233 0.20805 0.0
C838 C 0.52954 0.49283 0.22075 0.0
H839 H 0.49187 0.55604 0.24022 0.0
H840 H 0.51553 0.54267 0.23088 0.0
H841 H 0.48488 0.53783 0.22638 0.0
H842 H 0.46933 0.48756 0.21612 0.0
H843 H 0.48248 0.48676 0.19359 0.0
H844 H 0.72055 0.29429 0.54433 0.0
H845 H 0.72542 0.2785 0.52268 0.0
H846 H 0.75056 0.21135 0.53812 0.0
H847 H 0.74518 0.227 0.55995 0.0
H848 H 0.78339 0.23728 0.52129 0.0
H849 H 0.69364 0.22643 0.49951 0.0
H850 H 0.69641 0.25352 0.50869 0.0
H851 H 0.69866 0.22497 0.51661 0.0
C852 C 0.72626 0.27586 0.54311 0.0
C853 C 0.73246 0.26183 0.55377 0.0
C854 C 0.72896 0.26682 0.53076 0.0
C855 C 0.73821 0.24372 0.52882 0.0
C856 C 0.74315 0.22913 0.53945 0.0
H857 H 0.76322 0.23084 0.44625 0.0
H858 H 0.75917 0.21376 0.46781 0.0
C859 C 0.73997 0.23803 0.55188 0.0
C860 C 0.74614 0.2369 0.51581 0.0
H861 H 0.72604 0.23682 0.48501 0.0
C862 C 0.77088 0.23634 0.51335 0.0
C863 C 0.72983 0.23546 0.50551 0.0
C864 C 0.70313 0.23488 0.5077 0.0
C865 C 0.77967 0.23692 0.50076 0.0
C866 C 0.76328 0.23811 0.49048 0.0
C867 C 0.73861 0.23608 0.49292 0.0
C868 C 0.7708 0.24592 0.47755 0.0
C869 C 0.80636 0.2378 0.49858 0.0
C870 C 0.77929 0.2694 0.47594 0.0
C871 C 0.7813 0.27926 0.46371 0.0
C872 C 0.77505 0.26573 0.45288 0.0
C873 C 0.7684 0.24158 0.45444 0.0
C874 C 0.76598 0.23183 0.46673 0.0
H875 H 0.81624 0.22915 0.50658 0.0
H876 H 0.81132 0.22885 0.48946 0.0
H877 H 0.81218 0.2568 0.49805 0.0
H878 H 0.78273 0.28071 0.48417 0.0
H879 H 0.78642 0.29791 0.46278 0.0
H880 H 0.05128 0.47067 0.28834 0.0
H881 H 0.03654 0.47471 0.26645 0.0
H882 H 0.96639 0.49316 0.28073 0.0
H883 H 0.98108 0.48894 0.30281 0.0
H884 H 0.99453 0.45608 0.25172 0.0
H885 H 0.9941 0.55438 0.26164 0.0
H886 H 0.00973 0.53377 0.27201 0.0
H887 H 0.9776 0.53444 0.27196 0.0
C888 C 0.03251 0.47482 0.28683 0.0
C889 C 0.01737 0.47968 0.29725 0.0
C890 C 0.02411 0.47711 0.27432 0.0
C891 C 0.0005 0.48454 0.27201 0.0
C892 C 0.98472 0.48752 0.28236 0.0
H893 H 0.98778 0.51127 0.18877 0.0
H894 H 0.97072 0.50608 0.21031 0.0
C895 C 0.99308 0.48494 0.29494 0.0
C896 C 0.99407 0.49219 0.25889 0.0
H897 H 0.99525 0.54235 0.24017 0.0
C898 C 0.99376 0.4749 0.24915 0.0
C899 C 0.99328 0.51681 0.25565 0.0
C900 C 0.99374 0.53606 0.2658 0.0
C901 C 0.99461 0.48162 0.23621 0.0
C902 C 0.99581 0.50624 0.233 0.0
C903 C 0.99417 0.52352 0.2427 0.0
C904 C 0.00391 0.51391 0.22016 0.0
C905 C 0.99641 0.4624 0.22608 0.0
C906 C 0.02783 0.52109 0.21868 0.0
C907 C 0.03758 0.5239 0.20649 0.0
C908 C 0.02351 0.51985 0.19556 0.0
C909 C 0.99898 0.51466 0.19705 0.0
C910 C 0.98926 0.51153 0.20932 0.0
H911 H 0.99591 0.44406 0.23022 0.0
H912 H 0.98134 0.46425 0.21922 0.0
H913 H 0.01336 0.46453 0.22062 0.0
H914 H 0.03939 0.52302 0.22695 0.0
H915 H 0.0565 0.528 0.20562 0.0
H916 H 0.2572 0.2268 0.05696 0.0
H917 H 0.25403 0.21261 0.03474 0.0
H918 H 0.28076 0.28064 0.0213 0.0
H919 H 0.28346 0.29499 0.04334 0.0
H920 H 0.22272 0.24005 0.01782 0.0
H921 H 0.31402 0.23007 0.99774 0.0
H922 H 0.30771 0.22748 0.01468 0.0
H923 H 0.31053 0.25653 0.00737 0.0
C924 C 0.26328 0.23833 0.04927 0.0
C925 C 0.27055 0.26199 0.05181 0.0
C926 C 0.26135 0.23025 0.03661 0.0
C927 C 0.2673 0.24553 0.02642 0.0
C928 C 0.27643 0.26844 0.02904 0.0
H929 H 0.2247 0.30198 0.95922 0.0
H930 H 0.22806 0.28536 0.98078 0.0
C931 C 0.27791 0.27665 0.04163 0.0
C932 C 0.26034 0.23969 0.01312 0.0
H933 H 0.28263 0.24084 0.98273 0.0
C934 C 0.23579 0.2394 0.01014 0.0
C935 C 0.27739 0.23873 0.00314 0.0
C936 C 0.30391 0.23798 0.00588 0.0
C937 C 0.22793 0.24055 0.99739 0.0
C938 C 0.24505 0.24197 0.98747 0.0
C939 C 0.26952 0.23987 0.99039 0.0
C940 C 0.23838 0.2499 0.97444 0.0
C941 C 0.20143 0.24178 0.99465 0.0
C942 C 0.24246 0.23524 0.96374 0.0
C943 C 0.24015 0.24463 0.95136 0.0
C944 C 0.23438 0.26896 0.94959 0.0
C945 C 0.22912 0.28318 0.96032 0.0
C946 C 0.23097 0.27369 0.97263 0.0
H947 H 0.19077 0.23379 0.00256 0.0
H948 H 0.19603 0.26084 0.99364 0.0
H949 H 0.19703 0.23239 0.98557 0.0
H950 H 0.24842 0.21691 0.96499 0.0
H951 H 0.24458 0.23337 0.94325 0.0
H952 H 0.4477 0.52601 0.79172 0.0
H953 H 0.46291 0.52248 0.7699 0.0
H954 H 0.53319 0.5054 0.78446 0.0
H955 H 0.51805 0.50916 0.8065 0.0
H956 H 0.50637 0.54351 0.75614 0.0
H957 H 0.50621 0.44451 0.76376 0.0
H958 H 0.48919 0.46409 0.77409 0.0
H959 H 0.52127 0.46388 0.775 0.0
C960 C 0.46655 0.52215 0.7903 0.0
C961 C 0.48166 0.51769 0.80079 0.0
C962 C 0.47522 0.52017 0.77783 0.0
C963 C 0.49907 0.51344 0.77561 0.0
C964 C 0.5147 0.51055 0.78603 0.0
H965 H 0.51759 0.49336 0.69214 0.0
H966 H 0.53298 0.4966 0.71415 0.0
C967 C 0.50607 0.51285 0.79858 0.0
C968 C 0.50615 0.50684 0.76244 0.0
H969 H 0.50591 0.45829 0.74254 0.0
C970 C 0.50719 0.52492 0.75314 0.0
C971 C 0.50701 0.48252 0.75863 0.0
C972 C 0.50585 0.46249 0.76833 0.0
C973 C 0.50722 0.51928 0.74004 0.0
C974 C 0.5061 0.49497 0.73623 0.0
C975 C 0.50693 0.47688 0.74553 0.0
C976 C 0.49893 0.48846 0.72306 0.0
C977 C 0.50626 0.53934 0.73036 0.0
C978 C 0.47507 0.48178 0.72087 0.0
C979 C 0.46626 0.48008 0.70842 0.0
C980 C 0.48125 0.48478 0.69791 0.0
C981 C 0.50569 0.4895 0.70007 0.0
C982 C 0.51447 0.4915 0.71261 0.0
H983 H 0.50663 0.55731 0.73494 0.0
H984 H 0.52178 0.53791 0.72375 0.0
H985 H 0.48968 0.53783 0.72452 0.0
H986 H 0.46283 0.47935 0.72883 0.0
H987 H 0.44738 0.47632 0.70703 0.0
H988 H 0.22135 0.69123 0.53935 0.0
H989 H 0.22585 0.70577 0.51744 0.0
H990 H 0.24232 0.77647 0.5316 0.0
H991 H 0.23759 0.76203 0.55371 0.0
H992 H 0.20533 0.74917 0.50314 0.0
H993 H 0.30404 0.7485 0.51178 0.0
H994 H 0.28393 0.73168 0.52191 0.0
H995 H 0.28441 0.76376 0.52281 0.0
C996 C 0.22528 0.71003 0.53781 0.0
C997 C 0.22928 0.72546 0.54822 0.0
C998 C 0.22782 0.71832 0.52529 0.0
C999 C 0.23466 0.74209 0.52296 0.0
C1000 C 0.23709 0.75803 0.53327 0.0
H1001 H 0.25772 0.76372 0.43993 0.0
H1002 H 0.25374 0.77761 0.46218 0.0
C1003 C 0.23424 0.74979 0.54586 0.0
C1004 C 0.24178 0.74885 0.50981 0.0
H1005 H 0.29104 0.74892 0.49041 0.0
C1006 C 0.22403 0.74998 0.50034 0.0
C1007 C 0.26623 0.74965 0.50626 0.0
C1008 C 0.28589 0.74831 0.51616 0.0
C1009 C 0.23014 0.75026 0.4873 0.0
C1010 C 0.25459 0.74931 0.48373 0.0
C1011 C 0.27234 0.74984 0.49322 0.0
C1012 C 0.26162 0.74299 0.47051 0.0
C1013 C 0.21045 0.74953 0.4774 0.0
C1014 C 0.26842 0.71929 0.46793 0.0
C1015 C 0.27055 0.71133 0.45534 0.0
C1016 C 0.26616 0.72701 0.44508 0.0
C1017 C 0.26136 0.7513 0.44766 0.0
C1018 C 0.25893 0.75922 0.46034 0.0
H1019 H 0.19231 0.7495 0.4818 0.0
H1020 H 0.21193 0.76538 0.47102 0.0
H1021 H 0.21235 0.73326 0.47136 0.0
H1022 H 0.27059 0.70654 0.47567 0.0
H1023 H 0.27435 0.69255 0.45362 0.0
H1024 H 0.42878 0.94694 0.15467 0.0
H1025 H 0.39578 0.92245 0.1468 0.0
H1026 H 0.40483 0.95228 0.10902 0.0
H1027 H 0.43804 0.9772 0.11687 0.0
H1028 H 0.35222 0.93864 0.13456 0.0
H1029 H 0.40723 0.87812 0.10398 0.0
H1030 H 0.42024 0.8966 0.11636 0.0
H1031 H 0.41098 0.90981 0.1015 0.0
C1032 C 0.42372 0.9485 0.1447 0.0
C1033 C 0.43593 0.96417 0.13641 0.0
C1034 C 0.40486 0.93442 0.14022 0.0
C1035 C 0.39796 0.93551 0.12735 0.0
C1036 C 0.41009 0.95105 0.11898 0.0
H1037 H 0.29456 0.84892 0.08607 0.0
H1038 H 0.32356 0.87935 0.09227 0.0
C1039 C 0.429 0.96527 0.12347 0.0
C1040 C 0.37805 0.9202 0.12282 0.0
H1041 H 0.36563 0.87132 0.10437 0.0
C1042 C 0.35506 0.92397 0.12791 0.0
C1043 C 0.38191 0.90113 0.11416 0.0
C1044 C 0.40642 0.89594 0.10871 0.0
C1045 C 0.33575 0.90912 0.12455 0.0
C1046 C 0.33971 0.8897 0.1161 0.0
C1047 C 0.36265 0.8862 0.11087 0.0
C1048 C 0.32047 0.8726 0.1126 0.0
C1049 C 0.31126 0.91454 0.12996 0.0
C1050 C 0.30892 0.85874 0.12199 0.0
C1051 C 0.29201 0.84141 0.11847 0.0
C1052 C 0.28658 0.8375 0.1055 0.0
C1053 C 0.29803 0.85161 0.09616 0.0
C1054 C 0.31476 0.86898 0.09967 0.0
H1055 H 0.30981 0.93349 0.13313 0.0
H1056 H 0.29699 0.91094 0.1228 0.0
H1057 H 0.30803 0.90293 0.13842 0.0
H1058 H 0.31346 0.86086 0.13201 0.0
H1059 H 0.28367 0.8307 0.12589 0.0
H1060 H 0.30245 0.19488 0.36963 0.0
H1061 H 0.32977 0.16293 0.36281 0.0
H1062 H 0.29031 0.11207 0.38577 0.0
H1063 H 0.26387 0.14425 0.39306 0.0
H1064 H 0.33502 0.10761 0.39064 0.0
H1065 H 0.32588 0.10958 0.33797 0.0
H1066 H 0.33429 0.13843 0.34401 0.0
H1067 H 0.30571 0.12572 0.34836 0.0
C1068 C 0.29939 0.17674 0.37296 0.0
C1069 C 0.28124 0.17191 0.38188 0.0
C1070 C 0.31491 0.15846 0.36903 0.0
C1071 C 0.312 0.13495 0.37366 0.0
C1072 C 0.29302 0.13003 0.3821 0.0
H1073 H 0.39711 0.01715 0.3433 0.0
H1074 H 0.36436 0.04388 0.34939 0.0
C1075 C 0.27792 0.14838 0.38626 0.0
C1076 C 0.32985 0.11599 0.37066 0.0
H1077 H 0.36068 0.08955 0.34623 0.0
C1078 C 0.34039 0.10347 0.3809 0.0
C1079 C 0.33672 0.11029 0.35797 0.0
C1080 C 0.32484 0.12155 0.34646 0.0
C1081 C 0.35782 0.08576 0.37884 0.0
C1082 C 0.36573 0.0811 0.36621 0.0
C1083 C 0.35488 0.09329 0.35595 0.0
C1084 C 0.38517 0.0637 0.36334 0.0
C1085 C 0.36716 0.07197 0.39023 0.0
C1086 C 0.40773 0.06563 0.36927 0.0
C1087 C 0.42633 0.04999 0.36596 0.0
C1088 C 0.42287 0.03272 0.35639 0.0
C1089 C 0.40031 0.03059 0.35056 0.0
C1090 C 0.38159 0.04583 0.35407 0.0
H1091 H 0.35388 0.07172 0.39816 0.0
H1092 H 0.37159 0.05317 0.38765 0.0
H1093 H 0.38361 0.08082 0.39388 0.0
H1094 H 0.4112 0.07966 0.37619 0.0
H1095 H 0.4437 0.0521 0.37046 0.0
H1096 H 0.07103 0.03532 0.62072 0.0
H1097 H 0.10107 0.06453 0.61359 0.0
H1098 H 0.12063 0.07822 0.65285 0.0
H1099 H 0.09078 0.04937 0.66005 0.0
H1100 H 0.10176 0.11406 0.6211 0.0
H1101 H 0.18567 0.06689 0.6348 0.0
H1102 H 0.15734 0.05154 0.63302 0.0
H1103 H 0.16339 0.06879 0.64719 0.0
C1104 C 0.08193 0.04434 0.62782 0.0
C1105 C 0.07865 0.03985 0.64095 0.0
C1106 C 0.09905 0.061 0.62373 0.0
C1107 C 0.11327 0.07323 0.6327 0.0
C1108 C 0.1102 0.06859 0.64578 0.0
H1109 H 0.2197 0.18758 0.62707 0.0
H1110 H 0.19185 0.15683 0.63499 0.0
C1111 C 0.09307 0.05207 0.64987 0.0
C1112 C 0.13023 0.092 0.62849 0.0
H1113 H 0.18943 0.1075 0.62834 0.0
C1114 C 0.12094 0.11259 0.62261 0.0
C1115 C 0.15518 0.0901 0.63064 0.0
C1116 C 0.16609 0.06807 0.63667 0.0
C1117 C 0.13595 0.1315 0.61889 0.0
C1118 C 0.16096 0.1295 0.62088 0.0
C1119 C 0.17024 0.10898 0.62687 0.0
C1120 C 0.17782 0.14803 0.61625 0.0
C1121 C 0.12487 0.15363 0.61305 0.0
C1122 C 0.17931 0.15296 0.60312 0.0
C1123 C 0.19502 0.17043 0.59861 0.0
C1124 C 0.20981 0.18318 0.60713 0.0
C1125 C 0.2085 0.17808 0.62029 0.0
C1126 C 0.19267 0.16052 0.62481 0.0
H1127 H 0.10558 0.15528 0.61556 0.0
H1128 H 0.13432 0.1701 0.61623 0.0
H1129 H 0.12622 0.1525 0.60246 0.0
H1130 H 0.16831 0.14323 0.59633 0.0
H1131 H 0.19541 0.17402 0.58843 0.0
H1132 H 0.07038 0.97259 0.87862 0.0
H1133 H 0.10171 0.94492 0.88593 0.0
H1134 H 0.12061 0.92981 0.84672 0.0
H1135 H 0.08955 0.95717 0.83935 0.0
H1136 H 0.10384 0.89566 0.87964 0.0
H1137 H 0.18582 0.94327 0.86353 0.0
H1138 H 0.15716 0.95804 0.86513 0.0
H1139 H 0.16338 0.9398 0.85134 0.0
C1140 C 0.08143 0.9636 0.87157 0.0
C1141 C 0.0776 0.96726 0.85841 0.0
C1142 C 0.0993 0.94783 0.87576 0.0
C1143 C 0.11371 0.93565 0.86686 0.0
C1144 C 0.11008 0.93947 0.85374 0.0
H1145 H 0.21898 0.82072 0.87038 0.0
H1146 H 0.19152 0.85258 0.86342 0.0
C1147 C 0.09223 0.95512 0.84956 0.0
C1148 C 0.13135 0.91757 0.87117 0.0
H1149 H 0.19068 0.90259 0.86999 0.0
C1150 C 0.12286 0.89725 0.87765 0.0
C1151 C 0.15609 0.91963 0.8684 0.0
C1152 C 0.16625 0.94145 0.86182 0.0
C1153 C 0.1384 0.87869 0.88124 0.0
C1154 C 0.16315 0.88075 0.8785 0.0
C1155 C 0.17168 0.90107 0.87203 0.0
C1156 C 0.18048 0.86221 0.88261 0.0
C1157 C 0.12811 0.85677 0.8877 0.0
C1158 C 0.18365 0.85749 0.89567 0.0
C1159 C 0.19915 0.83937 0.89965 0.0
C1160 C 0.21203 0.82574 0.89064 0.0
C1161 C 0.20929 0.83088 0.87754 0.0
C1162 C 0.19366 0.84907 0.87356 0.0
H1163 H 0.1085 0.85514 0.88603 0.0
H1164 H 0.137 0.84019 0.88423 0.0
H1165 H 0.13107 0.85813 0.89818 0.0
H1166 H 0.17393 0.8677 0.90281 0.0
H1167 H 0.20067 0.83583 0.9098 0.0
H1168 H 0.69787 0.16214 0.90861 0.0
H1169 H 0.66999 0.13164 0.90109 0.0
H1170 H 0.68868 0.14796 0.86199 0.0
H1171 H 0.71699 0.1786 0.86945 0.0
H1172 H 0.63797 0.14724 0.86787 0.0
H1173 H 0.68473 0.06527 0.88489 0.0
H1174 H 0.68132 0.08856 0.89665 0.0
H1175 H 0.69987 0.09365 0.88286 0.0
C1176 C 0.69646 0.15903 0.89841 0.0
C1177 C 0.70989 0.17265 0.88963 0.0
C1178 C 0.68049 0.14154 0.89414 0.0
C1179 C 0.67758 0.13732 0.88101 0.0
C1180 C 0.69088 0.15085 0.87218 0.0
H1181 H 0.57931 0.05056 0.83688 0.0
H1182 H 0.61013 0.07816 0.84426 0.0
C1183 C 0.70701 0.16832 0.87646 0.0
C1184 C 0.65958 0.11974 0.87656 0.0
H1185 H 0.6448 0.06038 0.87748 0.0
C1186 C 0.63951 0.12822 0.86987 0.0
C1187 C 0.66159 0.09502 0.87934 0.0
C1188 C 0.68312 0.08496 0.88624 0.0
C1189 C 0.62112 0.11264 0.86605 0.0
C1190 C 0.62318 0.08786 0.86875 0.0
C1191 C 0.64327 0.07939 0.87545 0.0
C1192 C 0.60495 0.0704 0.86437 0.0
C1193 C 0.5994 0.12297 0.85943 0.0
C1194 C 0.59233 0.05625 0.87321 0.0
C1195 C 0.57483 0.04008 0.869 0.0
C1196 C 0.56983 0.03774 0.85586 0.0
C1197 C 0.58278 0.05174 0.84706 0.0
C1198 C 0.60027 0.06776 0.85126 0.0
H1199 H 0.59739 0.14244 0.86139 0.0
H1200 H 0.60138 0.12066 0.84892 0.0
H1201 H 0.58276 0.11367 0.86248 0.0
H1202 H 0.59581 0.05795 0.88338 0.0
H1203 H 0.56518 0.02953 0.87602 0.0
H1204 H 0.56489 0.97182 0.61465 0.0
H1205 H 0.59838 0.94771 0.60641 0.0
H1206 H 0.6094 0.91784 0.64404 0.0
H1207 H 0.57615 0.94154 0.65229 0.0
H1208 H 0.65216 0.93481 0.63143 0.0
H1209 H 0.59721 0.87366 0.60118 0.0
H1210 H 0.59293 0.90531 0.59879 0.0
H1211 H 0.58427 0.89185 0.6137 0.0
C1212 C 0.57443 0.96006 0.62114 0.0
C1213 C 0.56796 0.95871 0.63413 0.0
C1214 C 0.5935 0.9463 0.61643 0.0
C1215 C 0.60625 0.93097 0.62463 0.0
C1216 C 0.59984 0.92966 0.63758 0.0
H1217 H 0.72107 0.82732 0.62276 0.0
H1218 H 0.6913 0.85753 0.62882 0.0
C1219 C 0.58083 0.94329 0.64227 0.0
C1220 C 0.62628 0.91606 0.61987 0.0
H1221 H 0.63889 0.86735 0.60131 0.0
C1222 C 0.64934 0.92013 0.62478 0.0
C1223 C 0.62246 0.89697 0.61122 0.0
C1224 C 0.59789 0.89146 0.60594 0.0
C1225 C 0.66876 0.90552 0.62129 0.0
C1226 C 0.66483 0.88604 0.61288 0.0
C1227 C 0.64184 0.88228 0.60778 0.0
C1228 C 0.68413 0.869 0.60938 0.0
C1229 C 0.6933 0.91122 0.62654 0.0
C1230 C 0.68976 0.86521 0.59646 0.0
C1231 C 0.70651 0.84782 0.59297 0.0
C1232 C 0.71802 0.83383 0.60235 0.0
C1233 C 0.71268 0.83793 0.61532 0.0
C1234 C 0.69578 0.85529 0.6188 0.0
H1235 H 0.69463 0.93023 0.62963 0.0
H1236 H 0.6968 0.89976 0.63502 0.0
H1237 H 0.70747 0.90764 0.61932 0.0
H1238 H 0.68088 0.87547 0.58903 0.0
H1239 H 0.70993 0.84499 0.58289 0.0
H1240 H 0.77749 0.81996 0.36866 0.0
H1241 H 0.80479 0.8521 0.36188 0.0
H1242 H 0.82384 0.86516 0.40128 0.0
H1243 H 0.79733 0.83297 0.40808 0.0
H1244 H 0.80591 0.90149 0.36891 0.0
H1245 H 0.88864 0.85386 0.38391 0.0
H1246 H 0.86012 0.83889 0.38228 0.0
H1247 H 0.86653 0.85643 0.39632 0.0
C1248 C 0.7875 0.82971 0.37586 0.0
C1249 C 0.78521 0.82391 0.3889 0.0
C1250 C 0.80302 0.84806 0.37198 0.0
C1251 C 0.81656 0.86073 0.38108 0.0
C1252 C 0.81386 0.85532 0.3941 0.0
H1253 H 0.92599 0.97189 0.37736 0.0
H1254 H 0.8947 0.94417 0.38468 0.0
C1255 C 0.79849 0.83702 0.39797 0.0
C1256 C 0.83372 0.8795 0.37706 0.0
H1257 H 0.89296 0.8947 0.37802 0.0
C1258 C 0.82496 0.9 0.37083 0.0
C1259 C 0.85853 0.87748 0.37964 0.0
C1260 C 0.8691 0.85539 0.3858 0.0
C1261 C 0.84038 0.91875 0.36728 0.0
C1262 C 0.86517 0.91673 0.36991 0.0
C1263 C 0.8739 0.89626 0.37615 0.0
C1264 C 0.88264 0.93497 0.36561 0.0
C1265 C 0.83001 0.9407 0.36092 0.0
C1266 C 0.8862 0.93887 0.3525 0.0
C1267 C 0.90404 0.95451 0.34831 0.0
C1268 C 0.91872 0.96661 0.35715 0.0
C1269 C 0.91491 0.96295 0.37032 0.0
C1270 C 0.89707 0.94714 0.37451 0.0
H1271 H 0.81044 0.94231 0.36267 0.0
H1272 H 0.839 0.95724 0.36438 0.0
H1273 H 0.83286 0.93941 0.35042 0.0
H1274 H 0.87565 0.92922 0.34547 0.0
H1275 H 0.9067 0.95656 0.3381 0.0
H1276 H 0.80487 0.17643 0.09184 0.0
H1277 H 0.82927 0.14336 0.0996 0.0
H1278 H 0.80517 0.15694 0.13817 0.0
H1279 H 0.77999 0.19 0.13038 0.0
H1280 H 0.86623 0.146 0.11727 0.0
H1281 H 0.79421 0.08438 0.1338 0.0
H1282 H 0.78835 0.10959 0.12341 0.0
H1283 H 0.79317 0.11426 0.14023 0.0
C1284 C 0.8044 0.17225 0.10196 0.0
C1285 C 0.79023 0.18567 0.11048 0.0
C1286 C 0.8185 0.15338 0.10638 0.0
C1287 C 0.81878 0.14749 0.11942 0.0
C1288 C 0.80483 0.16092 0.12803 0.0
H1289 H 0.90306 0.04314 0.16116 0.0
H1290 H 0.87447 0.07385 0.15464 0.0
C1291 C 0.7906 0.17989 0.12358 0.0
C1292 C 0.83451 0.12783 0.12389 0.0
H1293 H 0.83424 0.07213 0.13747 0.0
C1294 C 0.85924 0.12984 0.12168 0.0
C1295 C 0.8253 0.10681 0.12964 0.0
C1296 C 0.79879 0.10342 0.13185 0.0
C1297 C 0.87507 0.11141 0.1251 0.0
C1298 C 0.86585 0.09026 0.13069 0.0
C1299 C 0.84117 0.08834 0.13308 0.0
C1300 C 0.88176 0.07021 0.1344 0.0
C1301 C 0.90158 0.11486 0.12288 0.0
C1302 C 0.89488 0.05757 0.12512 0.0
C1303 C 0.91123 0.03985 0.12881 0.0
C1304 C 0.91463 0.03448 0.14183 0.0
C1305 C 0.90082 0.04668 0.15104 0.0
C1306 C 0.88447 0.0643 0.14735 0.0
H1307 H 0.90619 0.13399 0.12123 0.0
H1308 H 0.91211 0.1082 0.13118 0.0
H1309 H 0.9071 0.10452 0.1143 0.0
H1310 H 0.89275 0.06169 0.11505 0.0
H1311 H 0.92154 0.03074 0.12149 0.0
H1312 H 0.79583 0.33086 0.59304 0.0
H1313 H 0.8212 0.36357 0.60045 0.0
H1314 H 0.79619 0.35267 0.63908 0.0
H1315 H 0.77047 0.31972 0.63172 0.0
H1316 H 0.80839 0.40663 0.61384 0.0
H1317 H 0.87034 0.3479 0.64144 0.0
H1318 H 0.84971 0.33624 0.62966 0.0
H1319 H 0.839 0.34509 0.64517 0.0
C1320 C 0.79545 0.33551 0.6031 0.0
C1321 C 0.78104 0.32273 0.61179 0.0
C1322 C 0.81003 0.35421 0.60731 0.0
C1323 C 0.81066 0.3604 0.6203 0.0
C1324 C 0.79611 0.34794 0.62902 0.0
H1325 H 0.90322 0.4583 0.66129 0.0
H1326 H 0.87144 0.43083 0.65507 0.0
C1327 C 0.78142 0.32919 0.6248 0.0
C1328 C 0.82708 0.37956 0.62463 0.0
H1329 H 0.87801 0.38936 0.6419 0.0
C1330 C 0.82357 0.40294 0.62003 0.0
C1331 C 0.84688 0.37458 0.63263 0.0
C1332 C 0.85193 0.34958 0.63747 0.0
C1333 C 0.83932 0.42159 0.6233 0.0
C1334 C 0.85931 0.41653 0.63117 0.0
C1335 C 0.86265 0.39318 0.63587 0.0
C1336 C 0.87713 0.43507 0.63471 0.0
C1337 C 0.83424 0.44656 0.61846 0.0
C1338 C 0.89082 0.44677 0.6253 0.0
C1339 C 0.90896 0.46281 0.62884 0.0
C1340 C 0.91381 0.46719 0.64184 0.0
C1341 C 0.89982 0.45564 0.65119 0.0
C1342 C 0.88168 0.43979 0.64766 0.0
H1343 H 0.81517 0.44871 0.61562 0.0
H1344 H 0.8386 0.46022 0.62584 0.0
H1345 H 0.84549 0.4501 0.60991 0.0
H1346 H 0.88797 0.44299 0.61525 0.0
H1347 H 0.91955 0.47127 0.62141 0.0
H1348 H 0.93005 0.52988 0.87365 0.0
H1349 H 0.89915 0.55911 0.87955 0.0
H1350 H 0.88307 0.57056 0.83961 0.0
H1351 H 0.91418 0.54208 0.83365 0.0
H1352 H 0.88933 0.61241 0.85266 0.0
H1353 H 0.82636 0.55303 0.87881 0.0
H1354 H 0.8566 0.55167 0.88465 0.0
H1355 H 0.84995 0.54153 0.86869 0.0
C1356 C 0.91977 0.53846 0.86614 0.0
C1357 C 0.92444 0.53347 0.85319 0.0
C1358 C 0.90202 0.55504 0.86952 0.0
C1359 C 0.88856 0.56671 0.86001 0.0
C1360 C 0.89312 0.56162 0.8471 0.0
H1361 H 0.78088 0.68163 0.86355 0.0
H1362 H 0.80715 0.64942 0.85575 0.0
C1363 C 0.91086 0.54519 0.84372 0.0
C1364 C 0.87066 0.58526 0.86342 0.0
H1365 H 0.81961 0.59509 0.88065 0.0
C1366 C 0.87395 0.60859 0.85868 0.0
C1367 C 0.85058 0.58017 0.87122 0.0
C1368 C 0.84547 0.55519 0.87605 0.0
C1369 C 0.85811 0.62718 0.86189 0.0
C1370 C 0.83834 0.62219 0.86991 0.0
C1371 C 0.83481 0.59879 0.87448 0.0
C1372 C 0.82204 0.64134 0.8744 0.0
C1373 C 0.8631 0.65218 0.85705 0.0
C1374 C 0.82156 0.64715 0.88744 0.0
C1375 C 0.80669 0.6654 0.89189 0.0
C1376 C 0.79179 0.67811 0.8834 0.0
C1377 C 0.79218 0.67219 0.87031 0.0
C1378 C 0.80719 0.65387 0.86585 0.0
H1379 H 0.88138 0.65383 0.85292 0.0
H1380 H 0.84993 0.65676 0.84947 0.0
H1381 H 0.86114 0.66548 0.8649 0.0
H1382 H 0.83297 0.63775 0.89417 0.0
H1383 H 0.80711 0.66968 0.90199 0.0
H1384 H 0.71488 0.67534 0.1223 0.0
H1385 H 0.68434 0.64621 0.12888 0.0
H1386 H 0.67299 0.62659 0.08941 0.0
H1387 H 0.70313 0.65563 0.08274 0.0
H1388 H 0.63487 0.64724 0.11957 0.0
H1389 H 0.68142 0.56143 0.10862 0.0
H1390 H 0.69737 0.58928 0.11094 0.0
H1391 H 0.68173 0.58379 0.09621 0.0
C1392 C 0.7061 0.66461 0.11504 0.0
C1393 C 0.7116 0.66768 0.10201 0.0
C1394 C 0.68867 0.64801 0.11881 0.0
C1395 C 0.67669 0.63409 0.10963 0.0
C1396 C 0.68238 0.63685 0.09665 0.0
H1397 H 0.56079 0.52861 0.1171 0.0
H1398 H 0.59155 0.55542 0.10817 0.0
C1399 C 0.69964 0.6535 0.09287 0.0
C1400 C 0.65709 0.61782 0.11351 0.0
H1401 H 0.6408 0.55889 0.11496 0.0
C1402 C 0.63615 0.62792 0.1186 0.0
C1403 C 0.65876 0.59269 0.112 0.0
C1404 C 0.68106 0.58102 0.10673 0.0
C1405 C 0.61678 0.61352 0.1223 0.0
C1406 C 0.61867 0.58832 0.12115 0.0
C1407 C 0.63943 0.57822 0.11581 0.0
C1408 C 0.59999 0.57216 0.12632 0.0
C1409 C 0.59438 0.62542 0.12734 0.0
C1410 C 0.59485 0.57256 0.13944 0.0
C1411 C 0.57741 0.55745 0.14452 0.0
C1412 C 0.56488 0.54138 0.1366 0.0
C1413 C 0.57012 0.54084 0.12343 0.0
C1414 C 0.58768 0.55607 0.11833 0.0
H1415 H 0.59293 0.64427 0.12398 0.0
H1416 H 0.57805 0.61553 0.12434 0.0
H1417 H 0.59499 0.62568 0.13796 0.0
H1418 H 0.60445 0.58453 0.1458 0.0
H1419 H 0.57372 0.5585 0.15468 0.0
H1420 H 0.71896 0.31936 0.3772 0.0
H1421 H 0.68914 0.34953 0.37108 0.0
H1422 H 0.68102 0.37 0.41065 0.0
H1423 H 0.71051 0.33992 0.41688 0.0
H1424 H 0.64044 0.34982 0.38129 0.0
H1425 H 0.68955 0.43471 0.39106 0.0
H1426 H 0.70474 0.40648 0.38857 0.0
H1427 H 0.69008 0.41246 0.40353 0.0
C1428 C 0.71108 0.33051 0.38458 0.0
C1429 C 0.71723 0.32732 0.39752 0.0
C1430 C 0.69406 0.34771 0.38107 0.0
C1431 C 0.68313 0.36212 0.39041 0.0
C1432 C 0.68958 0.35933 0.40328 0.0
H1433 H 0.56871 0.46974 0.38364 0.0
H1434 H 0.59947 0.4428 0.39248 0.0
C1435 C 0.70646 0.34208 0.40681 0.0
C1436 C 0.66369 0.37882 0.38682 0.0
H1437 H 0.64875 0.4381 0.38518 0.0
C1438 C 0.64224 0.36912 0.38212 0.0
C1439 C 0.66603 0.40393 0.38814 0.0
C1440 C 0.68887 0.41515 0.39302 0.0
C1441 C 0.62306 0.38392 0.37858 0.0
C1442 C 0.62563 0.40909 0.3795 0.0
C1443 C 0.64687 0.41879 0.3845 0.0
C1444 C 0.60717 0.42553 0.37438 0.0
C1445 C 0.60015 0.37246 0.37392 0.0
C1446 C 0.60165 0.4249 0.36131 0.0
C1447 C 0.58421 0.44007 0.35628 0.0
C1448 C 0.57206 0.45645 0.3642 0.0
C1449 C 0.57774 0.45727 0.37731 0.0
C1450 C 0.5953 0.44197 0.38236 0.0
H1451 H 0.59839 0.35374 0.37743 0.0
H1452 H 0.58422 0.38283 0.37708 0.0
H1453 H 0.60025 0.37196 0.3633 0.0
H1454 H 0.61088 0.41264 0.35495 0.0
H1455 H 0.58018 0.43879 0.34617 0.0
H1456 H 0.08178 0.54861 0.33535 0.0
H1457 H 0.11306 0.5761 0.34226 0.0
H1458 H 0.09894 0.55783 0.38167 0.0
H1459 H 0.0678 0.52957 0.37479 0.0
H1460 H 0.10749 0.61559 0.35768 0.0
H1461 H 0.1719 0.55118 0.37915 0.0
H1462 H 0.14768 0.54182 0.36883 0.0
H1463 H 0.14191 0.54909 0.38531 0.0
C1464 C 0.08553 0.55004 0.34549 0.0
C1465 C 0.07248 0.53664 0.35452 0.0
C1466 C 0.10336 0.56591 0.34941 0.0
C1467 C 0.10855 0.56876 0.36245 0.0
C1468 C 0.09554 0.55551 0.37154 0.0
H1469 H 0.1986 0.66397 0.40553 0.0
H1470 H 0.17102 0.63335 0.39786 0.0
C1471 C 0.07766 0.5395 0.3676 0.0
C1472 C 0.12684 0.58648 0.36643 0.0
H1473 H 0.18008 0.59257 0.3822 0.0
C1474 C 0.12344 0.61056 0.36298 0.0
C1475 C 0.14762 0.5798 0.37331 0.0
C1476 C 0.15269 0.55404 0.37678 0.0
C1477 C 0.14004 0.62828 0.36645 0.0
C1478 C 0.16074 0.62163 0.3734 0.0
C1479 C 0.16421 0.59754 0.37681 0.0
C1480 C 0.17835 0.63964 0.37781 0.0
C1481 C 0.135 0.65405 0.36297 0.0
C1482 C 0.19187 0.65312 0.36904 0.0
C1483 C 0.20783 0.67068 0.37341 0.0
C1484 C 0.21055 0.67489 0.3866 0.0
C1485 C 0.19719 0.66105 0.39531 0.0
C1486 C 0.18133 0.64355 0.39096 0.0
H1487 H 0.11608 0.65676 0.35997 0.0
H1488 H 0.13889 0.6661 0.37117 0.0
H1489 H 0.14675 0.6594 0.35489 0.0
H1490 H 0.19001 0.65011 0.35885 0.0
H1491 H 0.21791 0.68101 0.36647 0.0
H1492 H 0.21978 0.31482 0.12864 0.0
H1493 H 0.19298 0.34754 0.13521 0.0
H1494 H 0.17472 0.36047 0.09568 0.0
H1495 H 0.20071 0.32771 0.0891 0.0
H1496 H 0.19372 0.39657 0.12803 0.0
H1497 H 0.10937 0.35227 0.11278 0.0
H1498 H 0.13725 0.33616 0.11452 0.0
H1499 H 0.13166 0.35378 0.10041 0.0
C1500 C 0.20998 0.32461 0.12137 0.0
C1501 C 0.21242 0.31869 0.10835 0.0
C1502 C 0.19476 0.3433 0.12513 0.0
C1503 C 0.18164 0.35617 0.11593 0.0
C1504 C 0.18434 0.35049 0.10294 0.0
H1505 H 0.07781 0.4727 0.11815 0.0
H1506 H 0.10784 0.44322 0.11127 0.0
C1507 C 0.19944 0.33187 0.0992 0.0
C1508 C 0.16518 0.37566 0.11979 0.0
H1509 H 0.10671 0.3935 0.11828 0.0
C1510 C 0.17468 0.39588 0.12597 0.0
C1511 C 0.14036 0.3747 0.11704 0.0
C1512 C 0.12898 0.35298 0.11093 0.0
C1513 C 0.16002 0.41537 0.1293 0.0
C1514 C 0.13525 0.41443 0.12648 0.0
C1515 C 0.12577 0.39423 0.1203 0.0
C1516 C 0.11854 0.43356 0.13051 0.0
C1517 C 0.17118 0.43696 0.13564 0.0
C1518 C 0.11464 0.43776 0.14357 0.0
C1519 C 0.0975 0.45439 0.1475 0.0
C1520 C 0.08391 0.46721 0.13845 0.0
C1521 C 0.08808 0.46322 0.12535 0.0
C1522 C 0.10519 0.44642 0.12141 0.0
H1523 H 0.19089 0.43756 0.13413 0.0
H1524 H 0.16318 0.45382 0.13193 0.0
H1525 H 0.16779 0.43613 0.1461 0.0
H1526 H 0.12436 0.42763 0.15074 0.0
H1527 H 0.09452 0.45666 0.15767 0.0
H1528 H 0.41498 0.45301 0.84008 0.0
H1529 H 0.38361 0.42613 0.84749 0.0
H1530 H 0.39972 0.44471 0.88664 0.0
H1531 H 0.43097 0.47242 0.87925 0.0
H1532 H 0.3898 0.38682 0.86285 0.0
H1533 H 0.32669 0.45142 0.88528 0.0
H1534 H 0.35042 0.46073 0.87463 0.0
H1535 H 0.35701 0.45328 0.89099 0.0
C1536 C 0.41164 0.45182 0.85027 0.0
C1537 C 0.42532 0.46512 0.85907 0.0
C1538 C 0.39374 0.43629 0.85448 0.0
C1539 C 0.38911 0.43364 0.86759 0.0
C1540 C 0.40267 0.44688 0.87646 0.0
H1541 H 0.29936 0.33745 0.91082 0.0
H1542 H 0.32686 0.36842 0.90343 0.0
C1543 C 0.42061 0.46257 0.87223 0.0
C1544 C 0.37096 0.41599 0.87186 0.0
H1545 H 0.31821 0.41006 0.88815 0.0
C1546 C 0.37408 0.39191 0.86833 0.0
C1547 C 0.3505 0.42272 0.879 0.0
C1548 C 0.34575 0.44846 0.88262 0.0
C1549 C 0.35747 0.37427 0.8719 0.0
C1550 C 0.33702 0.38098 0.87903 0.0
C1551 C 0.33388 0.40504 0.88261 0.0
C1552 C 0.31922 0.36305 0.88334 0.0
C1553 C 0.36221 0.34852 0.86826 0.0
C1554 C 0.30548 0.35003 0.87447 0.0
C1555 C 0.28958 0.33229 0.87867 0.0
C1556 C 0.28713 0.3274 0.89181 0.0
C1557 C 0.3006 0.34087 0.90065 0.0
C1558 C 0.3164 0.35857 0.89645 0.0
H1559 H 0.38108 0.34567 0.86521 0.0
H1560 H 0.35827 0.33635 0.87641 0.0
H1561 H 0.35035 0.34344 0.86018 0.0
H1562 H 0.30721 0.35348 0.8643 0.0
H1563 H 0.27941 0.32228 0.87164 0.0
H1564 H 0.4152 0.55205 0.65937 0.0
H1565 H 0.38284 0.57814 0.65231 0.0
H1566 H 0.3961 0.55778 0.6131 0.0
H1567 H 0.42835 0.53092 0.62015 0.0
H1568 H 0.38651 0.61676 0.63611 0.0
H1569 H 0.32349 0.54897 0.61653 0.0
H1570 H 0.34838 0.54106 0.62675 0.0
H1571 H 0.35331 0.54746 0.61009 0.0
C1572 C 0.41106 0.55274 0.64925 0.0
C1573 C 0.42418 0.53915 0.64033 0.0
C1574 C 0.3926 0.5678 0.64523 0.0
C1575 C 0.38683 0.56964 0.63222 0.0
C1576 C 0.39994 0.55622 0.62323 0.0
H1577 H 0.29282 0.65975 0.58843 0.0
H1578 H 0.32099 0.62991 0.59635 0.0
C1579 C 0.41845 0.54103 0.62726 0.0
C1580 C 0.36782 0.58649 0.62811 0.0
H1581 H 0.31381 0.58986 0.61284 0.0
C1582 C 0.37054 0.61088 0.63109 0.0
C1583 C 0.34701 0.57872 0.62159 0.0
C1584 C 0.34268 0.5526 0.61864 0.0
C1585 C 0.35323 0.62782 0.62749 0.0
C1586 C 0.3325 0.62008 0.6209 0.0
C1587 C 0.3297 0.59568 0.61796 0.0
C1588 C 0.31418 0.63725 0.61635 0.0
C1589 C 0.35758 0.65395 0.63043 0.0
C1590 C 0.30065 0.65099 0.625 0.0
C1591 C 0.28434 0.6681 0.6205 0.0
C1592 C 0.28128 0.67162 0.60727 0.0
C1593 C 0.29451 0.65739 0.59867 0.0
C1594 C 0.3107 0.64033 0.60317 0.0
H1595 H 0.37651 0.65744 0.63316 0.0
H1596 H 0.353 0.66532 0.62205 0.0
H1597 H 0.34597 0.65947 0.63854 0.0
H1598 H 0.30288 0.64862 0.63523 0.0
H1599 H 0.27439 0.67875 0.62735 0.0
H1600 H 0.44656 0.07677 0.1413 0.0
H1601 H 0.4221 0.11103 0.13471 0.0
H1602 H 0.36209 0.08268 0.15586 0.0
H1603 H 0.38633 0.04856 0.16261 0.0
H1604 H 0.3795 0.10831 0.12054 0.0
H1605 H 0.36399 0.15289 0.16728 0.0
H1606 H 0.38738 0.13095 0.16489 0.0
H1607 H 0.35688 0.12151 0.16725 0.0
C1608 C 0.42826 0.07795 0.14471 0.0
C1609 C 0.41844 0.05986 0.1525 0.0
C1610 C 0.4143 0.09754 0.1409 0.0
C1611 C 0.39038 0.09954 0.14492 0.0
C1612 C 0.38065 0.08175 0.15286 0.0
H1613 H 0.26833 0.18934 0.12833 0.0
H1614 H 0.29667 0.15934 0.13626 0.0
C1615 C 0.39454 0.06215 0.15664 0.0
C1616 C 0.37507 0.11933 0.14015 0.0
H1617 H 0.33944 0.16565 0.14988 0.0
C1618 C 0.37093 0.12102 0.12693 0.0
C1619 C 0.36384 0.13578 0.14853 0.0
C1620 C 0.36838 0.1354 0.16277 0.0
C1621 C 0.35527 0.1383 0.12187 0.0
C1622 C 0.34382 0.15459 0.13026 0.0
C1623 C 0.3482 0.1531 0.14348 0.0
C1624 C 0.32687 0.17306 0.12553 0.0
C1625 C 0.35052 0.13843 0.10764 0.0
C1626 C 0.33455 0.19091 0.117 0.0
C1627 C 0.31839 0.20802 0.1124 0.0
C1628 C 0.29427 0.20772 0.11634 0.0
C1629 C 0.28675 0.19005 0.12507 0.0
C1630 C 0.30292 0.17291 0.12963 0.0
H1631 H 0.35589 0.12127 0.10306 0.0
H1632 H 0.33125 0.14169 0.10562 0.0
H1633 H 0.36103 0.15305 0.10313 0.0
H1634 H 0.35307 0.19164 0.11392 0.0
H1635 H 0.32483 0.22149 0.10577 0.0
H1636 H 0.167 0.19579 0.39215 0.0
H1637 H 0.12897 0.17711 0.38608 0.0
H1638 H 0.15559 0.10842 0.39861 0.0
H1639 H 0.19332 0.12692 0.40497 0.0
H1640 H 0.12112 0.1428 0.36843 0.0
H1641 H 0.09085 0.11003 0.41573 0.0
H1642 H 0.11496 0.13135 0.41398 0.0
H1643 H 0.12048 0.09977 0.41193 0.0
C1644 C 0.16467 0.17675 0.39376 0.0
C1645 C 0.18323 0.1629 0.39911 0.0
C1646 C 0.14292 0.1661 0.39027 0.0
C1647 C 0.13926 0.14143 0.39208 0.0
C1648 C 0.15772 0.12759 0.39743 0.0
H1649 H 0.04439 0.04635 0.35156 0.0
H1650 H 0.07749 0.07105 0.35931 0.0
C1651 C 0.17939 0.13821 0.40099 0.0
C1652 C 0.11674 0.12984 0.38772 0.0
H1653 H 0.07178 0.09246 0.39739 0.0
C1654 C 0.11018 0.13201 0.3748 0.0
C1655 C 0.10224 0.11607 0.39606 0.0
C1656 C 0.10734 0.11436 0.41023 0.0
C1657 C 0.09003 0.12007 0.36988 0.0
C1658 C 0.0764 0.1051 0.37805 0.0
C1659 C 0.08243 0.10366 0.39108 0.0
C1660 C 0.05616 0.09036 0.37323 0.0
C1661 C 0.08349 0.12374 0.35599 0.0
C1662 C 0.03329 0.09248 0.37872 0.0
C1663 C 0.01437 0.07813 0.37442 0.0
C1664 C 0.01798 0.06135 0.36455 0.0
C1665 C 0.04094 0.05922 0.3591 0.0
C1666 C 0.05986 0.07346 0.36346 0.0
H1667 H 0.09066 0.14098 0.35228 0.0
H1668 H 0.0914 0.10908 0.35019 0.0
H1669 H 0.06376 0.12355 0.35461 0.0
H1670 H 0.03006 0.1053 0.38632 0.0
H1671 H 0.99691 0.08023 0.37882 0.0
H1672 H 0.06118 0.92567 0.63972 0.0
H1673 H 0.08223 0.8901 0.63181 0.0
H1674 H 0.14333 0.90779 0.65524 0.0
H1675 H 0.12251 0.94316 0.66329 0.0
H1676 H 0.1263 0.88967 0.61861 0.0
H1677 H 0.13187 0.83685 0.66348 0.0
H1678 H 0.11144 0.8617 0.66153 0.0
H1679 H 0.14252 0.86707 0.66509 0.0
C1680 C 0.07899 0.92186 0.64332 0.0
C1681 C 0.09011 0.9373 0.65218 0.0
C1682 C 0.09099 0.90154 0.63876 0.0
C1683 C 0.1142 0.89615 0.64307 0.0
C1684 C 0.12525 0.91136 0.65199 0.0
H1685 H 0.22822 0.7975 0.62633 0.0
H1686 H 0.20162 0.82886 0.6344 0.0
C1687 C 0.11333 0.93167 0.65652 0.0
C1688 C 0.12751 0.8754 0.63775 0.0
H1689 H 0.15701 0.82421 0.64627 0.0
C1690 C 0.13279 0.87518 0.62461 0.0
C1691 C 0.13598 0.8566 0.64562 0.0
C1692 C 0.12999 0.85537 0.6597 0.0
C1693 C 0.14709 0.8571 0.6192 0.0
C1694 C 0.15597 0.83853 0.62712 0.0
C1695 C 0.15025 0.8385 0.64022 0.0
C1696 C 0.17187 0.8194 0.62212 0.0
C1697 C 0.15334 0.85852 0.60516 0.0
C1698 C 0.16388 0.80351 0.61261 0.0
C1699 C 0.17909 0.78559 0.60793 0.0
C1700 C 0.20251 0.78312 0.61275 0.0
C1701 C 0.21033 0.79892 0.62238 0.0
C1702 C 0.19514 0.81684 0.62703 0.0
H1703 H 0.14991 0.87666 0.60116 0.0
H1704 H 0.17246 0.85389 0.60354 0.0
H1705 H 0.14217 0.84552 0.59977 0.0
H1706 H 0.14583 0.80487 0.60886 0.0
H1707 H 0.17244 0.77361 0.60057 0.0
H1708 H 0.44936 0.97693 0.87745 0.0
H1709 H 0.41989 0.94876 0.88594 0.0
H1710 H 0.44489 0.8945 0.85973 0.0
H1711 H 0.47431 0.92273 0.85102 0.0
H1712 H 0.39547 0.89875 0.86021 0.0
H1713 H 0.43112 0.89179 0.90958 0.0
H1714 H 0.42598 0.92216 0.90464 0.0
H1715 H 0.44827 0.90442 0.89657 0.0
C1716 C 0.44872 0.95897 0.87352 0.0
C1717 C 0.46426 0.95207 0.86358 0.0
C1718 C 0.43196 0.94283 0.87846 0.0
C1719 C 0.4305 0.91939 0.87364 0.0
C1720 C 0.44586 0.91245 0.86366 0.0
H1721 H 0.32613 0.80577 0.89086 0.0
H1722 H 0.36148 0.82703 0.88287 0.0
C1723 C 0.46264 0.92861 0.85869 0.0
C1724 C 0.41221 0.90255 0.87867 0.0
H1725 H 0.3913 0.87711 0.90624 0.0
C1726 C 0.39472 0.89373 0.87024 0.0
C1727 C 0.41132 0.89602 0.89176 0.0
C1728 C 0.43031 0.90389 0.90114 0.0
C1729 C 0.37574 0.87939 0.87464 0.0
C1730 C 0.37447 0.87345 0.8878 0.0
C1731 C 0.39231 0.88175 0.89617 0.0
C1732 C 0.354 0.85984 0.89318 0.0
C1733 C 0.35667 0.87153 0.86529 0.0
C1734 C 0.33855 0.87097 0.90194 0.0
C1735 C 0.31841 0.85889 0.90656 0.0
C1736 C 0.31335 0.83533 0.90256 0.0
C1737 C 0.32936 0.82393 0.89409 0.0
C1738 C 0.34952 0.83608 0.88946 0.0
H1739 H 0.35772 0.88152 0.85611 0.0
H1740 H 0.35897 0.85218 0.86318 0.0
H1741 H 0.33851 0.8741 0.86944 0.0
H1742 H 0.34178 0.88926 0.90497 0.0
H1743 H 0.30659 0.86823 0.9131 0.0
H1744 H 0.32098 0.77587 0.39328 0.0
H1745 H 0.34772 0.80736 0.38532 0.0
H1746 H 0.29503 0.82727 0.35706 0.0
H1747 H 0.26813 0.79603 0.36497 0.0
H1748 H 0.36625 0.81431 0.35986 0.0
H1749 H 0.30987 0.89051 0.37613 0.0
H1750 H 0.30595 0.86037 0.38208 0.0
H1751 H 0.29433 0.8686 0.36664 0.0
C1752 C 0.31505 0.78697 0.38539 0.0
C1753 C 0.29234 0.78354 0.37982 0.0
C1754 C 0.33038 0.80491 0.38084 0.0
C1755 C 0.32321 0.81981 0.37073 0.0
C1756 C 0.30073 0.8162 0.36502 0.0
H1757 H 0.38071 0.94145 0.33023 0.0
H1758 H 0.35767 0.90701 0.3377 0.0
C1759 C 0.28542 0.79827 0.36953 0.0
C1760 C 0.33916 0.83919 0.3661 0.0
H1761 H 0.34261 0.89989 0.36256 0.0
C1762 C 0.3612 0.83305 0.36051 0.0
C1763 C 0.33249 0.86358 0.36698 0.0
C1764 C 0.30948 0.87127 0.37338 0.0
C1765 C 0.37648 0.85068 0.35542 0.0
C1766 C 0.36966 0.87507 0.35618 0.0
C1767 C 0.34775 0.88117 0.36193 0.0
C1768 C 0.38475 0.89467 0.35097 0.0
C1769 C 0.39944 0.84301 0.34897 0.0
C1770 C 0.40776 0.89905 0.35588 0.0
C1771 C 0.42109 0.91873 0.35159 0.0
C1772 C 0.41153 0.93453 0.3424 0.0
C1773 C 0.38865 0.92974 0.33733 0.0
C1774 C 0.37542 0.91005 0.34159 0.0
H1775 H 0.3991 0.82373 0.34631 0.0
H1776 H 0.40281 0.85379 0.34021 0.0
H1777 H 0.41465 0.84585 0.35565 0.0
H1778 H 0.41514 0.88768 0.3633 0.0
H1779 H 0.43858 0.92194 0.35576 0.0
H1780 H 0.32472 0.19239 0.60555 0.0
H1781 H 0.35917 0.16892 0.61292 0.0
H1782 H 0.33247 0.10712 0.59265 0.0
H1783 H 0.29822 0.13032 0.58514 0.0
H1784 H 0.35803 0.12683 0.6277 0.0
H1785 H 0.40241 0.11069 0.581 0.0
H1786 H 0.37983 0.13352 0.5832 0.0
H1787 H 0.37125 0.10269 0.5811 0.0
C1788 C 0.32628 0.17387 0.60255 0.0
C1789 C 0.30868 0.16329 0.5947 0.0
C1790 C 0.34597 0.16049 0.60679 0.0
C1791 C 0.34855 0.13639 0.60318 0.0
C1792 C 0.3311 0.12583 0.59533 0.0
H1793 H 0.43766 0.01502 0.61981 0.0
H1794 H 0.40788 0.04388 0.61228 0.0
C1795 C 0.31143 0.13913 0.5911 0.0
C1796 C 0.3688 0.12183 0.60808 0.0
H1797 H 0.41529 0.0863 0.59849 0.0
C1798 C 0.37076 0.11818 0.62134 0.0
C1799 C 0.38534 0.11058 0.59976 0.0
C1800 C 0.3848 0.11472 0.58548 0.0
C1801 C 0.38824 0.1028 0.62647 0.0
C1802 C 0.40442 0.0911 0.61811 0.0
C1803 C 0.4028 0.09521 0.60487 0.0
C1804 C 0.4226 0.07383 0.62283 0.0
C1805 C 0.38866 0.09848 0.64073 0.0
C1806 C 0.4409 0.08115 0.63118 0.0
C1807 C 0.45795 0.06466 0.63554 0.0
C1808 C 0.45709 0.04058 0.63155 0.0
C1809 C 0.43884 0.0334 0.62309 0.0
C1810 C 0.42181 0.04988 0.61876 0.0
H1811 H 0.3718 0.10444 0.64542 0.0
H1812 H 0.39147 0.07919 0.64288 0.0
H1813 H 0.40371 0.1087 0.64503 0.0
H1814 H 0.4421 0.09966 0.63425 0.0
H1815 H 0.47186 0.07082 0.64199 0.0
H1816 H 0.11636 0.06567 0.83414 0.0
H1817 H 0.13653 0.10154 0.84203 0.0
H1818 H 0.07751 0.11537 0.86765 0.0
H1819 H 0.05688 0.07961 0.85966 0.0
H1820 H 0.0945 0.15664 0.85553 0.0
H1821 H 0.16903 0.10461 0.87702 0.0
H1822 H 0.16473 0.09859 0.86029 0.0
H1823 H 0.14165 0.09074 0.87157 0.0
C1824 C 0.10755 0.07635 0.84141 0.0
C1825 C 0.08507 0.06957 0.84635 0.0
C1826 C 0.11919 0.09681 0.84596 0.0
C1827 C 0.10876 0.11081 0.85562 0.0
C1828 C 0.08594 0.10468 0.86025 0.0
H1829 H 0.1903 0.21199 0.90165 0.0
H1830 H 0.1646 0.17935 0.89425 0.0
C1831 C 0.07419 0.08423 0.85566 0.0
C1832 C 0.12195 0.13155 0.86104 0.0
H1833 H 0.17423 0.14686 0.87592 0.0
C1834 C 0.11188 0.15453 0.86006 0.0
C1835 C 0.14443 0.12869 0.86714 0.0
C1836 C 0.15552 0.10431 0.8692 0.0
C1837 C 0.124 0.17484 0.86471 0.0
C1838 C 0.14697 0.17208 0.87028 0.0
C1839 C 0.15674 0.14901 0.87154 0.0
C1840 C 0.16132 0.19278 0.87488 0.0
C1841 C 0.11195 0.19899 0.86376 0.0
C1842 C 0.16808 0.21119 0.86646 0.0
C1843 C 0.18269 0.22997 0.87068 0.0
C1844 C 0.19108 0.23053 0.88338 0.0
C1845 C 0.1842 0.2121 0.89181 0.0
C1846 C 0.16949 0.19342 0.88759 0.0
H1847 H 0.09219 0.19719 0.86283 0.0
H1848 H 0.11595 0.21022 0.87227 0.0
H1849 H 0.11864 0.20846 0.85513 0.0
H1850 H 0.16249 0.21078 0.85653 0.0
H1851 H 0.18776 0.2438 0.86393 0.0
H1852 H 0.1886 0.87816 0.08301 0.0
H1853 H 0.15268 0.89857 0.09076 0.0
H1854 H 0.13555 0.83757 0.11439 0.0
H1855 H 0.17159 0.81699 0.10681 0.0
H1856 H 0.10363 0.88418 0.08984 0.0
H1857 H 0.13694 0.89442 0.13975 0.0
H1858 H 0.15644 0.88673 0.12658 0.0
H1859 H 0.13721 0.8644 0.13351 0.0
C1860 C 0.1772 0.86899 0.08983 0.0
C1861 C 0.18315 0.84597 0.09436 0.0
C1862 C 0.15665 0.88069 0.09422 0.0
C1863 C 0.14168 0.86972 0.10328 0.0
C1864 C 0.14712 0.84651 0.10756 0.0
H1865 H 0.01732 0.92482 0.14459 0.0
H1866 H 0.04907 0.89916 0.136 0.0
C1867 C 0.16767 0.83474 0.10316 0.0
C1868 C 0.1206 0.88282 0.10834 0.0
H1869 H 0.09777 0.90817 0.13549 0.0
C1870 C 0.10229 0.8894 0.09982 0.0
C1871 C 0.11892 0.88953 0.12137 0.0
C1872 C 0.13847 0.88362 0.13085 0.0
C1873 C 0.08227 0.9025 0.104 0.0
C1874 C 0.0808 0.90961 0.11699 0.0
C1875 C 0.09894 0.90269 0.12554 0.0
C1876 C 0.061 0.92484 0.12184 0.0
C1877 C 0.06275 0.90839 0.09451 0.0
C1878 C 0.05731 0.94788 0.11681 0.0
C1879 C 0.03917 0.96257 0.12168 0.0
C1880 C 0.02449 0.95458 0.13176 0.0
C1881 C 0.02828 0.93151 0.13682 0.0
C1882 C 0.04642 0.91682 0.13192 0.0
H1883 H 0.06308 0.89602 0.08617 0.0
H1884 H 0.04478 0.90748 0.09905 0.0
H1885 H 0.06549 0.92687 0.09086 0.0
H1886 H 0.06871 0.95465 0.10924 0.0
H1887 H 0.03684 0.98027 0.11761 0.0
H1888 H 0.67904 0.77526 0.8905 0.0
H1889 H 0.65125 0.80627 0.88306 0.0
H1890 H 0.70663 0.83585 0.85899 0.0
H1891 H 0.73457 0.80512 0.86641 0.0
H1892 H 0.68239 0.86994 0.87433 0.0
H1893 H 0.61871 0.81173 0.84765 0.0
H1894 H 0.62473 0.80298 0.8639 0.0
H1895 H 0.64832 0.8018 0.85222 0.0
C1896 C 0.68528 0.78829 0.88358 0.0
C1897 C 0.70903 0.78768 0.87904 0.0
C1898 C 0.66933 0.80591 0.87928 0.0
C1899 C 0.67681 0.82315 0.87035 0.0
C1900 C 0.70048 0.82262 0.86584 0.0
H1901 H 0.61997 0.94826 0.8326 0.0
H1902 H 0.64387 0.91462 0.84032 0.0
C1903 C 0.71642 0.80502 0.87009 0.0
C1904 C 0.66032 0.84236 0.86603 0.0
H1905 H 0.60873 0.85283 0.84931 0.0
C1906 C 0.66629 0.86621 0.86885 0.0
C1907 C 0.63926 0.8374 0.85897 0.0
C1908 C 0.63237 0.81212 0.85539 0.0
C1909 C 0.65176 0.88528 0.8648 0.0
C1910 C 0.63096 0.88038 0.85751 0.0
C1911 C 0.62473 0.85651 0.85487 0.0
C1912 C 0.61583 0.89992 0.85229 0.0
C1913 C 0.65867 0.91051 0.8685 0.0
C1914 C 0.59182 0.9023 0.85607 0.0
C1915 C 0.57797 0.9215 0.85161 0.0
C1916 C 0.5879 0.9386 0.84323 0.0
C1917 C 0.61175 0.9356 0.83913 0.0
C1918 C 0.62552 0.91643 0.84358 0.0
H1919 H 0.67101 0.91074 0.87685 0.0
H1920 H 0.66802 0.91915 0.86033 0.0
H1921 H 0.64259 0.92139 0.87085 0.0
H1922 H 0.58396 0.88963 0.86272 0.0
H1923 H 0.55966 0.92318 0.85494 0.0
H1924 H 0.96197 0.94453 0.64893 0.0
H1925 H 0.92917 0.92005 0.64056 0.0
H1926 H 0.96308 0.91876 0.60345 0.0
H1927 H 0.9962 0.94282 0.61179 0.0
H1928 H 0.89814 0.93112 0.62147 0.0
H1929 H 0.94804 0.84837 0.60905 0.0
H1930 H 0.96064 0.87163 0.619 0.0
H1931 H 0.96031 0.8749 0.60187 0.0
C1932 C 0.96257 0.93888 0.63901 0.0
C1933 C 0.98174 0.9456 0.63103 0.0
C1934 C 0.9438 0.92489 0.63425 0.0
C1935 C 0.94383 0.91728 0.62143 0.0
C1936 C 0.96295 0.92394 0.61344 0.0
H1937 H 0.81765 0.8727 0.579 0.0
H1938 H 0.85326 0.89325 0.58702 0.0
C1939 C 0.9818 0.93784 0.61822 0.0
C1940 C 0.92325 0.90345 0.61629 0.0
H1941 H 0.90799 0.85125 0.60125 0.0
C1942 C 0.90028 0.91361 0.6171 0.0
C1943 C 0.92603 0.88049 0.61072 0.0
C1944 C 0.95005 0.86807 0.6102 0.0
C1945 C 0.88006 0.90162 0.61233 0.0
C1946 C 0.88296 0.87906 0.60633 0.0
C1947 C 0.90586 0.86868 0.60571 0.0
C1948 C 0.86232 0.86582 0.60084 0.0
C1949 C 0.85573 0.91305 0.61397 0.0
C1950 C 0.85616 0.8431 0.60558 0.0
C1951 C 0.83591 0.83115 0.60093 0.0
C1952 C 0.82144 0.84171 0.59143 0.0
C1953 C 0.8282 0.86412 0.5864 0.0
C1954 C 0.8485 0.87598 0.59102 0.0
H1955 H 0.85582 0.9268 0.62168 0.0
H1956 H 0.85053 0.92204 0.60491 0.0
H1957 H 0.8419 0.89941 0.61628 0.0
H1958 H 0.86669 0.83487 0.61311 0.0
H1959 H 0.83131 0.8139 0.605 0.0
H1960 H 0.81055 0.20825 0.40264 0.0
H1961 H 0.83484 0.17569 0.39389 0.0
H1962 H 0.83503 0.21037 0.35697 0.0
H1963 H 0.81118 0.24331 0.36572 0.0
H1964 H 0.8235 0.145 0.37487 0.0
H1965 H 0.90554 0.19546 0.3618 0.0
H1966 H 0.8825 0.20788 0.37197 0.0
H1967 H 0.87873 0.20761 0.35486 0.0
C1968 C 0.8159 0.20907 0.39268 0.0
C1969 C 0.80896 0.22842 0.38488 0.0
C1970 C 0.82979 0.19043 0.38769 0.0
C1971 C 0.83706 0.19075 0.37482 0.0
C1972 C 0.83013 0.21001 0.367 0.0
H1973 H 0.88058 0.06459 0.33211 0.0
H1974 H 0.86047 0.10046 0.3401 0.0
C1975 C 0.81634 0.22875 0.372 0.0
C1976 C 0.85083 0.17031 0.36947 0.0
H1977 H 0.90267 0.15543 0.35395 0.0
C1978 C 0.84086 0.14727 0.37034 0.0
C1979 C 0.87361 0.17326 0.36371 0.0
C1980 C 0.88587 0.19735 0.36312 0.0
C1981 C 0.85284 0.12715 0.36545 0.0
C1982 C 0.8752 0.13021 0.35925 0.0
C1983 C 0.88539 0.15318 0.35856 0.0
C1984 C 0.88836 0.10965 0.35363 0.0
C1985 C 0.84164 0.10274 0.36721 0.0
C1986 C 0.91125 0.10354 0.35815 0.0
C1987 C 0.92297 0.08314 0.3535 0.0
C1988 C 0.91197 0.06847 0.34424 0.0
C1989 C 0.88946 0.07527 0.33936 0.0
C1990 C 0.87786 0.09572 0.34396 0.0
H1991 H 0.82819 0.10272 0.37506 0.0
H1992 H 0.83232 0.09751 0.35824 0.0
H1993 H 0.85545 0.08898 0.36935 0.0
H1994 H 0.91976 0.11416 0.36556 0.0
H1995 H 0.94032 0.07854 0.35744 0.0
H1996 H 0.67777 0.20252 0.10871 0.0
H1997 H 0.64239 0.18038 0.11604 0.0
H1998 H 0.66372 0.11956 0.09326 0.0
H1999 H 0.6989 0.14143 0.08582 0.0
H2000 H 0.61388 0.13168 0.0916 0.0
H2001 H 0.64594 0.12402 0.14193 0.0
H2002 H 0.6448 0.15372 0.13526 0.0
H2003 H 0.6656 0.13223 0.12892 0.0
C2004 C 0.67486 0.18449 0.10519 0.0
C2005 C 0.69132 0.17371 0.09673 0.0
C2006 C 0.6547 0.17184 0.10945 0.0
C2007 C 0.65066 0.14823 0.10533 0.0
C2008 C 0.66659 0.13773 0.0966 0.0
H2009 H 0.55784 0.02793 0.11704 0.0
H2010 H 0.58665 0.05778 0.10962 0.0
C2011 C 0.68673 0.15029 0.09237 0.0
C2012 C 0.63015 0.13406 0.11024 0.0
H2013 H 0.60902 0.10589 0.137 0.0
C2014 C 0.6127 0.12617 0.10154 0.0
C2015 C 0.62864 0.12699 0.12323 0.0
C2016 C 0.64728 0.13448 0.13291 0.0
C2017 C 0.5939 0.11112 0.10544 0.0
C2018 C 0.59285 0.10334 0.11833 0.0
C2019 C 0.6099 0.11183 0.12712 0.0
C2020 C 0.57497 0.08546 0.12274 0.0
C2021 C 0.57531 0.10372 0.09571 0.0
C2022 C 0.55925 0.09086 0.13283 0.0
C2023 C 0.54284 0.07371 0.13719 0.0
C2024 C 0.54198 0.0508 0.13157 0.0
C2025 C 0.5579 0.04543 0.12152 0.0
C2026 C 0.57428 0.06255 0.1172 0.0
H2027 H 0.57431 0.1167 0.08766 0.0
H2028 H 0.58027 0.086 0.09167 0.0
H2029 H 0.55729 0.10217 0.10015 0.0
H2030 H 0.55962 0.10838 0.13731 0.0
H2031 H 0.53087 0.07842 0.14496 0.0
H2032 H 0.6713 0.22236 0.60664 0.0
H2033 H 0.64426 0.19062 0.61395 0.0
H2034 H 0.70109 0.16045 0.63683 0.0
H2035 H 0.72831 0.19193 0.62951 0.0
H2036 H 0.67686 0.12701 0.62113 0.0
H2037 H 0.61313 0.18221 0.64953 0.0
H2038 H 0.61835 0.19223 0.63341 0.0
H2039 H 0.64238 0.19298 0.64485 0.0
C2040 C 0.67802 0.20905 0.61329 0.0
C2041 C 0.70198 0.20969 0.6175 0.0
C2042 C 0.66249 0.19102 0.61751 0.0
C2043 C 0.6706 0.17338 0.62606 0.0
C2044 C 0.69446 0.17398 0.63028 0.0
H2045 H 0.61565 0.04418 0.66085 0.0
H2046 H 0.63914 0.07887 0.65418 0.0
C2047 C 0.70998 0.19201 0.62609 0.0
C2048 C 0.65461 0.15362 0.63017 0.0
H2049 H 0.60345 0.14117 0.64688 0.0
C2050 C 0.66084 0.13009 0.62679 0.0
C2051 C 0.63363 0.15774 0.63746 0.0
C2052 C 0.62648 0.18262 0.64164 0.0
C2053 C 0.64662 0.11053 0.63046 0.0
C2054 C 0.62586 0.11459 0.63795 0.0
C2055 C 0.61942 0.13814 0.64118 0.0
C2056 C 0.61093 0.09447 0.64266 0.0
C2057 C 0.65376 0.08572 0.62614 0.0
C2058 C 0.58694 0.09223 0.63881 0.0
C2059 C 0.57332 0.07243 0.64268 0.0
C2060 C 0.58348 0.05457 0.65051 0.0
C2061 C 0.60728 0.05742 0.65473 0.0
C2062 C 0.62081 0.0772 0.65087 0.0
H2063 H 0.66606 0.08632 0.61777 0.0
H2064 H 0.66323 0.07647 0.63407 0.0
H2065 H 0.63777 0.0749 0.62354 0.0
H2066 H 0.57894 0.10548 0.63255 0.0
H2067 H 0.55505 0.07088 0.63929 0.0
H2068 H 0.54903 0.97827 0.37767 0.0
H2069 H 0.57938 0.95042 0.38567 0.0
H2070 H 0.55407 0.8962 0.35953 0.0
H2071 H 0.52387 0.92404 0.35132 0.0
H2072 H 0.57355 0.9055 0.39707 0.0
H2073 H 0.6259 0.89865 0.35193 0.0
H2074 H 0.60371 0.92168 0.35453 0.0
H2075 H 0.59459 0.89178 0.35039 0.0
C2076 C 0.54993 0.96045 0.37358 0.0
C2077 C 0.53412 0.95344 0.36379 0.0
C2078 C 0.56727 0.94454 0.37819 0.0
C2079 C 0.5692 0.92136 0.37307 0.0
C2080 C 0.55321 0.91416 0.36343 0.0
H2081 H 0.67203 0.8068 0.38899 0.0
H2082 H 0.63687 0.82918 0.38164 0.0
C2083 C 0.53589 0.93008 0.35879 0.0
C2084 C 0.58786 0.90475 0.37792 0.0
H2085 H 0.63798 0.87375 0.36905 0.0
C2086 C 0.58762 0.89852 0.39095 0.0
C2087 C 0.60614 0.89561 0.3699 0.0
C2088 C 0.60783 0.90239 0.35593 0.0
C2089 C 0.60522 0.88342 0.39618 0.0
C2090 C 0.62373 0.87462 0.3882 0.0
C2091 C 0.62371 0.88047 0.37513 0.0
C2092 C 0.644 0.86038 0.39333 0.0
C2093 C 0.60379 0.87691 0.41018 0.0
C2094 C 0.65963 0.87051 0.40235 0.0
C2095 C 0.67973 0.85782 0.40656 0.0
C2096 C 0.68469 0.83474 0.4018 0.0
C2097 C 0.66874 0.82448 0.39291 0.0
C2098 C 0.64865 0.83725 0.38867 0.0
H2099 H 0.58535 0.87927 0.414 0.0
H2100 H 0.60947 0.85807 0.4118 0.0
H2101 H 0.61592 0.88879 0.41571 0.0
H2102 H 0.65664 0.88851 0.40589 0.0
H2103 H 0.69161 0.86635 0.41338 0.0
H2104 H 0.82261 0.7688 0.09943 0.0
H2105 H 0.84864 0.79976 0.10852 0.0
H2106 H 0.79324 0.81879 0.13548 0.0
H2107 H 0.76726 0.78772 0.12661 0.0
H2108 H 0.84047 0.84851 0.10979 0.0
H2109 H 0.8515 0.81102 0.15859 0.0
H2110 H 0.83984 0.79361 0.14541 0.0
H2111 H 0.82073 0.8142 0.15387 0.0
C2112 C 0.81601 0.77947 0.10735 0.0
C2113 C 0.79287 0.77573 0.11232 0.0
C2114 C 0.83092 0.79714 0.11253 0.0
C2115 C 0.82304 0.8113 0.12282 0.0
C2116 C 0.79992 0.80769 0.12775 0.0
H2117 H 0.87104 0.93637 0.16351 0.0
H2118 H 0.8502 0.90111 0.15524 0.0
C2119 C 0.78502 0.79002 0.1226 0.0
C2120 C 0.83853 0.8306 0.12802 0.0
H2121 H 0.86392 0.85161 0.15559 0.0
C2122 C 0.84583 0.84907 0.11977 0.0
C2123 C 0.84548 0.83127 0.14105 0.0
C2124 C 0.83919 0.81135 0.15023 0.0
C2125 C 0.85923 0.86862 0.12428 0.0
C2126 C 0.86579 0.86951 0.13736 0.0
C2127 C 0.85882 0.85087 0.14557 0.0
C2128 C 0.87914 0.89011 0.14277 0.0
C2129 C 0.86559 0.88856 0.11512 0.0
C2130 C 0.90254 0.8953 0.1387 0.0
C2131 C 0.91456 0.91546 0.14341 0.0
C2132 C 0.90339 0.93079 0.15231 0.0
C2133 C 0.88018 0.92507 0.15663 0.0
C2134 C 0.86822 0.9049 0.15193 0.0
H2135 H 0.85495 0.88761 0.10614 0.0
H2136 H 0.86261 0.90634 0.11964 0.0
H2137 H 0.88484 0.88718 0.11256 0.0
H2138 H 0.91142 0.88386 0.13179 0.0
H2139 H 0.93244 0.91922 0.13991 0.0
H2140 H 0.98302 0.05049 0.88817 0.0
H2141 H 0.94847 0.07327 0.8959 0.0
H2142 H 0.92476 0.08386 0.857 0.0
H2143 H 0.95901 0.06073 0.84918 0.0
H2144 H 0.93455 0.11992 0.89111 0.0
H2145 H 0.86544 0.0558 0.87415 0.0
H2146 H 0.89688 0.04828 0.87481 0.0
H2147 H 0.88536 0.06595 0.86179 0.0
C2148 C 0.97046 0.05764 0.88124 0.0
C2149 C 0.97368 0.05362 0.86806 0.0
C2150 C 0.95074 0.07068 0.88569 0.0
C2151 C 0.93383 0.07991 0.87704 0.0
C2152 C 0.93729 0.07643 0.86386 0.0
H2153 H 0.82507 0.18788 0.89212 0.0
H2154 H 0.86088 0.16607 0.88534 0.0
C2155 C 0.95696 0.06331 0.8594 0.0
C2156 C 0.91266 0.09327 0.88184 0.0
H2157 H 0.85145 0.09323 0.882 0.0
C2158 C 0.91637 0.11407 0.88915 0.0
C2159 C 0.88897 0.08541 0.87942 0.0
C2160 C 0.88384 0.06252 0.87222 0.0
C2161 C 0.897 0.12744 0.89394 0.0
C2162 C 0.87333 0.12 0.89116 0.0
C2163 C 0.86963 0.09901 0.88402 0.0
C2164 C 0.85207 0.13359 0.89564 0.0
C2165 C 0.90206 0.14917 0.90211 0.0
C2166 C 0.83503 0.12247 0.90354 0.0
C2167 C 0.81444 0.13481 0.90737 0.0
C2168 C 0.8104 0.15855 0.90333 0.0
C2169 C 0.82762 0.16969 0.89548 0.0
C2170 C 0.8482 0.15729 0.89164 0.0
H2171 H 0.92051 0.14876 0.90611 0.0
H2172 H 0.90034 0.16555 0.89615 0.0
H2173 H 0.88908 0.15051 0.91014 0.0
H2174 H 0.83762 0.10415 0.90669 0.0
H2175 H 0.80159 0.12563 0.9134 0.0
H2176 H 0.77263 0.7143 0.62972 0.0
H2177 H 0.79845 0.68295 0.63854 0.0
H2178 H 0.85112 0.69717 0.6093 0.0
H2179 H 0.8255 0.72868 0.60043 0.0
H2180 H 0.8151 0.64178 0.62514 0.0
H2181 H 0.89039 0.69789 0.64295 0.0
H2182 H 0.86125 0.71018 0.63923 0.0
H2183 H 0.88179 0.70289 0.62658 0.0
C2184 C 0.78977 0.71089 0.6252 0.0
C2185 C 0.797 0.72402 0.61437 0.0
C2186 C 0.80449 0.69297 0.63026 0.0
C2187 C 0.82681 0.68796 0.62467 0.0
C2188 C 0.83415 0.70106 0.6139 0.0
H2189 H 0.93516 0.57913 0.63999 0.0
H2190 H 0.91304 0.61398 0.63202 0.0
C2191 C 0.81941 0.71895 0.60879 0.0
C2192 C 0.8418 0.66822 0.62977 0.0
H2193 H 0.89556 0.65576 0.64396 0.0
C2194 C 0.83265 0.64482 0.62929 0.0
C2195 C 0.86477 0.67228 0.63508 0.0
C2196 C 0.87515 0.69717 0.63612 0.0
C2197 C 0.84593 0.62529 0.6339 0.0
C2198 C 0.86875 0.62935 0.63942 0.0
C2199 C 0.87803 0.65273 0.63978 0.0
C2200 C 0.88306 0.60947 0.64494 0.0
C2201 C 0.83556 0.60041 0.6326 0.0
C2202 C 0.87391 0.59589 0.65513 0.0
C2203 C 0.88641 0.57594 0.65967 0.0
C2204 C 0.90848 0.56927 0.65419 0.0
C2205 C 0.91819 0.58366 0.6444 0.0
C2206 C 0.90557 0.60359 0.63982 0.0
H2207 H 0.82135 0.59969 0.62516 0.0
H2208 H 0.84969 0.58718 0.63013 0.0
H2209 H 0.82739 0.59501 0.64185 0.0
H2210 H 0.85684 0.60047 0.65942 0.0
H2211 H 0.8785 0.56548 0.66732 0.0
H2212 H 0.704 0.629 0.90725 0.0
H2213 H 0.66884 0.60643 0.90035 0.0
H2214 H 0.64164 0.669 0.88096 0.0
H2215 H 0.67696 0.69179 0.88768 0.0
H2216 H 0.61975 0.61502 0.90467 0.0
H2217 H 0.64224 0.61748 0.8528 0.0
H2218 H 0.66366 0.62518 0.86508 0.0
H2219 H 0.64073 0.64617 0.86058 0.0
C2220 C 0.69056 0.63807 0.90155 0.0
C2221 C 0.69345 0.66221 0.89795 0.0
C2222 C 0.67044 0.6251 0.89762 0.0
C2223 C 0.65284 0.63593 0.88998 0.0
C2224 C 0.65527 0.66018 0.88665 0.0
H2225 H 0.52533 0.57526 0.85388 0.0
H2226 H 0.55647 0.60251 0.86167 0.0
C2227 C 0.67541 0.6732 0.89057 0.0
C2228 C 0.6321 0.62164 0.88546 0.0
H2229 H 0.60579 0.59892 0.85854 0.0
C2230 C 0.61664 0.61153 0.89458 0.0
C2231 C 0.6281 0.61716 0.87229 0.0
C2232 C 0.64463 0.62687 0.86209 0.0
C2233 C 0.59725 0.59705 0.8909 0.0
C2234 C 0.5935 0.59221 0.87775 0.0
C2235 C 0.60871 0.60266 0.86861 0.0
C2236 C 0.57433 0.57581 0.87328 0.0
C2237 C 0.58081 0.58727 0.90111 0.0
C2238 C 0.57422 0.55169 0.8771 0.0
C2239 C 0.55645 0.53608 0.87268 0.0
C2240 C 0.53855 0.54425 0.86426 0.0
C2241 C 0.53883 0.56839 0.86037 0.0
C2242 C 0.5566 0.584 0.86481 0.0
H2243 H 0.58189 0.59795 0.91007 0.0
H2244 H 0.5619 0.58704 0.89779 0.0
H2245 H 0.58617 0.5686 0.90341 0.0
H2246 H 0.58805 0.54484 0.88339 0.0
H2247 H 0.55687 0.51757 0.87581 0.0
H2248 H 0.62055 0.45804 0.15645 0.0
H2249 H 0.64251 0.42269 0.14918 0.0
H2250 H 0.57594 0.38857 0.13879 0.0
H2251 H 0.5538 0.42406 0.14576 0.0
H2252 H 0.64113 0.37616 0.15681 0.0
H2253 H 0.61397 0.3833 0.10584 0.0
H2254 H 0.60892 0.40709 0.11724 0.0
H2255 H 0.58916 0.38163 0.11675 0.0
C2256 C 0.61052 0.44302 0.15264 0.0
C2257 C 0.58538 0.44401 0.1516 0.0
C2258 C 0.62313 0.42281 0.14849 0.0
C2259 C 0.61091 0.40316 0.14321 0.0
C2260 C 0.58579 0.40376 0.14252 0.0
H2261 H 0.67576 0.26238 0.13098 0.0
H2262 H 0.65143 0.29589 0.13869 0.0
C2263 C 0.57315 0.42403 0.14659 0.0
C2264 C 0.62455 0.3821 0.13847 0.0
H2265 H 0.63534 0.34829 0.11181 0.0
C2266 C 0.63988 0.37005 0.14697 0.0
C2267 C 0.62316 0.37437 0.12557 0.0
C2268 C 0.6081 0.38739 0.11578 0.0
C2269 C 0.65374 0.35042 0.14296 0.0
C2270 C 0.65182 0.34227 0.13017 0.0
C2271 C 0.6366 0.3544 0.12164 0.0
C2272 C 0.66602 0.32167 0.1253 0.0
C2273 C 0.67079 0.33903 0.15239 0.0
C2274 C 0.6817 0.32479 0.11492 0.0
C2275 C 0.69542 0.30561 0.11039 0.0
C2276 C 0.69373 0.28289 0.11616 0.0
C2277 C 0.67767 0.27969 0.1264 0.0
C2278 C 0.66385 0.29887 0.13088 0.0
H2279 H 0.67487 0.35121 0.16053 0.0
H2280 H 0.66248 0.32256 0.15636 0.0
H2281 H 0.6879 0.33394 0.14768 0.0
H2282 H 0.68357 0.3422 0.11043 0.0
H2283 H 0.70756 0.3087 0.10247 0.0
H2284 H 0.81856 0.36591 0.41919 0.0
H2285 H 0.85362 0.3861 0.4103 0.0
H2286 H 0.86474 0.32721 0.38422 0.0
H2287 H 0.82987 0.30658 0.3932 0.0
H2288 H 0.90711 0.34386 0.3951 0.0
H2289 H 0.85336 0.41889 0.37536 0.0
H2290 H 0.8492 0.41448 0.39224 0.0
H2291 H 0.8399 0.39157 0.38118 0.0
C2292 C 0.82849 0.35713 0.41161 0.0
C2293 C 0.82121 0.33469 0.40683 0.0
C2294 C 0.84847 0.36879 0.40649 0.0
C2295 C 0.86146 0.35839 0.39641 0.0
C2296 C 0.85484 0.33562 0.39194 0.0
H2297 H 0.95805 0.43839 0.34693 0.0
H2298 H 0.92601 0.41316 0.3555 0.0
C2299 C 0.83489 0.32387 0.39709 0.0
C2300 C 0.88167 0.37152 0.39041 0.0
H2301 H 0.89568 0.42357 0.37494 0.0
C2302 C 0.90463 0.36124 0.39064 0.0
C2303 C 0.8783 0.394 0.38439 0.0
C2304 C 0.85383 0.40531 0.38314 0.0
C2305 C 0.92445 0.37313 0.38529 0.0
C2306 C 0.92124 0.39608 0.37976 0.0
C2307 C 0.89817 0.40608 0.37928 0.0
C2308 C 0.94149 0.41016 0.37443 0.0
C2309 C 0.94855 0.36086 0.38544 0.0
C2310 C 0.96084 0.41691 0.38223 0.0
C2311 C 0.97926 0.43125 0.37734 0.0
C2312 C 0.97853 0.43936 0.36459 0.0
C2313 C 0.95917 0.43248 0.35679 0.0
C2314 C 0.94083 0.41805 0.36167 0.0
H2315 H 0.94671 0.34113 0.38653 0.0
H2316 H 0.95874 0.36463 0.37653 0.0
H2317 H 0.95913 0.36761 0.39368 0.0
H2318 H 0.96146 0.41152 0.39219 0.0
H2319 H 0.99383 0.43633 0.38364 0.0
H2320 H 0.94255 0.41875 0.85656 0.0
H2321 H 0.9207 0.385 0.86591 0.0
H2322 H 0.858 0.40417 0.84405 0.0
H2323 H 0.87967 0.43767 0.83452 0.0
H2324 H 0.87984 0.38765 0.88065 0.0
H2325 H 0.86318 0.3324 0.83748 0.0
H2326 H 0.88499 0.35631 0.83778 0.0
H2327 H 0.85369 0.36294 0.8356 0.0
C2328 C 0.92422 0.41562 0.85359 0.0
C2329 C 0.91291 0.43097 0.84476 0.0
C2330 C 0.91175 0.39633 0.85898 0.0
C2331 C 0.88783 0.39189 0.85556 0.0
C2332 C 0.87661 0.40693 0.84662 0.0
H2333 H 0.77603 0.32002 0.89749 0.0
H2334 H 0.80396 0.34845 0.88777 0.0
C2335 C 0.88903 0.4262 0.84123 0.0
C2336 C 0.87406 0.37252 0.86193 0.0
H2337 H 0.83958 0.32318 0.85599 0.0
C2338 C 0.87123 0.3734 0.87528 0.0
C2339 C 0.86308 0.35379 0.85493 0.0
C2340 C 0.86656 0.3511 0.84067 0.0
C2341 C 0.85705 0.35654 0.88177 0.0
C2342 C 0.84506 0.33856 0.87468 0.0
C2343 C 0.84856 0.33716 0.86139 0.0
C2344 C 0.82845 0.32129 0.88084 0.0
C2345 C 0.8551 0.35809 0.89616 0.0
C2346 C 0.83268 0.29656 0.87995 0.0
C2347 C 0.81666 0.28023 0.88543 0.0
C2348 C 0.796 0.28835 0.89183 0.0
C2349 C 0.79182 0.31316 0.89269 0.0
C2350 C 0.80784 0.32945 0.88721 0.0
H2351 H 0.87039 0.36812 0.90037 0.0
H2352 H 0.83836 0.36771 0.89872 0.0
H2353 H 0.85443 0.33997 0.90054 0.0
H2354 H 0.84841 0.28989 0.87501 0.0
H2355 H 0.82042 0.26125 0.88456 0.0
H2356 H 0.95845 0.51863 0.11698 0.0
H2357 H 0.92617 0.54387 0.10871 0.0
H2358 H 0.94834 0.60131 0.13366 0.0
H2359 H 0.98088 0.57626 0.14194 0.0
H2360 H 0.88868 0.56453 0.12311 0.0
H2361 H 0.94306 0.63396 0.09833 0.0
H2362 H 0.9553 0.60534 0.10309 0.0
H2363 H 0.95086 0.62853 0.11478 0.0
C2364 C 0.9566 0.53668 0.12066 0.0
C2365 C 0.97229 0.54543 0.13011 0.0
C2366 C 0.93812 0.55107 0.11593 0.0
C2367 C 0.93504 0.57454 0.12046 0.0
C2368 C 0.95067 0.5834 0.12987 0.0
H2369 H 0.827 0.68332 0.10385 0.0
H2370 H 0.86176 0.66135 0.11204 0.0
C2371 C 0.96917 0.56899 0.13464 0.0
C2372 C 0.91481 0.58928 0.1157 0.0
H2373 H 0.90114 0.64037 0.0992 0.0
C2374 C 0.89139 0.58109 0.11786 0.0
C2375 C 0.91843 0.61095 0.10893 0.0
C2376 C 0.94326 0.6202 0.10603 0.0
C2377 C 0.87143 0.59402 0.11349 0.0
C2378 C 0.87503 0.61549 0.10653 0.0
C2379 C 0.89845 0.62388 0.10451 0.0
C2380 C 0.85465 0.6292 0.10111 0.0
C2381 C 0.84666 0.58476 0.11652 0.0
C2382 C 0.83951 0.61861 0.09201 0.0
C2383 C 0.81963 0.63105 0.08732 0.0
C2384 C 0.81457 0.65445 0.09157 0.0
C2385 C 0.83028 0.66532 0.10039 0.0
C2386 C 0.85017 0.6528 0.10509 0.0
H2387 H 0.84687 0.57207 0.12473 0.0
H2388 H 0.83422 0.59971 0.1188 0.0
H2389 H 0.83952 0.57506 0.10807 0.0
H2390 H 0.84295 0.60059 0.0886 0.0
H2391 H 0.80809 0.62216 0.08046 0.0
H2392 H 0.56185 0.57159 0.35642 0.0
H2393 H 0.58492 0.60691 0.3628 0.0
H2394 H 0.64868 0.57585 0.34638 0.0
H2395 H 0.62581 0.54065 0.33981 0.0
H2396 H 0.624 0.6078 0.37919 0.0
H2397 H 0.64922 0.64339 0.33149 0.0
H2398 H 0.62579 0.62143 0.33362 0.0
H2399 H 0.65673 0.61237 0.33365 0.0
C2400 C 0.58072 0.57235 0.35403 0.0
C2401 C 0.59193 0.55323 0.34757 0.0
C2402 C 0.59388 0.59256 0.3577 0.0
C2403 C 0.61844 0.59415 0.35491 0.0
C2404 C 0.62964 0.57524 0.34838 0.0
H2405 H 0.7361 0.68783 0.37392 0.0
H2406 H 0.70954 0.65624 0.36605 0.0
C2407 C 0.61652 0.55504 0.3447 0.0
C2408 C 0.63267 0.61494 0.35947 0.0
H2409 H 0.67001 0.65968 0.34945 0.0
C2410 C 0.63387 0.61931 0.37269 0.0
C2411 C 0.64557 0.62987 0.35096 0.0
C2412 C 0.64413 0.62672 0.33663 0.0
C2413 C 0.64822 0.63776 0.37768 0.0
C2414 C 0.66139 0.65249 0.36918 0.0
C2415 C 0.65994 0.64832 0.35594 0.0
C2416 C 0.67724 0.67195 0.37386 0.0
C2417 C 0.64977 0.64084 0.39201 0.0
C2418 C 0.66783 0.69143 0.38072 0.0
C2419 C 0.68297 0.70951 0.38527 0.0
C2420 C 0.70781 0.70851 0.38296 0.0
C2421 C 0.71709 0.68914 0.3759 0.0
C2422 C 0.70194 0.67108 0.37138 0.0
H2423 H 0.64325 0.62472 0.3972 0.0
H2424 H 0.66849 0.64456 0.39503 0.0
H2425 H 0.63849 0.65629 0.39494 0.0
H2426 H 0.64875 0.69269 0.38253 0.0
H2427 H 0.67521 0.72426 0.39059 0.0
H2428 H 0.66887 0.3068 0.60907 0.0
H2429 H 0.63389 0.33008 0.61585 0.0
H2430 H 0.65642 0.38875 0.59183 0.0
H2431 H 0.69123 0.36569 0.5849 0.0
H2432 H 0.63591 0.3746 0.62842 0.0
H2433 H 0.58519 0.38166 0.58291 0.0
H2434 H 0.60856 0.35973 0.58538 0.0
H2435 H 0.61611 0.39024 0.58156 0.0
C2436 C 0.66621 0.32451 0.60507 0.0
C2437 C 0.68291 0.33435 0.59643 0.0
C2438 C 0.64623 0.3378 0.60898 0.0
C2439 C 0.64243 0.36102 0.60423 0.0
C2440 C 0.65876 0.37069 0.59542 0.0
H2441 H 0.54975 0.48128 0.61908 0.0
H2442 H 0.5797 0.4528 0.61128 0.0
C2443 C 0.67876 0.35749 0.59154 0.0
C2444 C 0.62239 0.37586 0.60913 0.0
H2445 H 0.5734 0.40808 0.59975 0.0
C2446 C 0.62206 0.38171 0.6222 0.0
C2447 C 0.60445 0.38518 0.60096 0.0
C2448 C 0.60339 0.37873 0.58694 0.0
C2449 C 0.60472 0.39731 0.62726 0.0
C2450 C 0.58697 0.40692 0.61905 0.0
C2451 C 0.58706 0.40073 0.60601 0.0
C2452 C 0.56851 0.42391 0.62374 0.0
C2453 C 0.60609 0.40403 0.64124 0.0
C2454 C 0.55208 0.41702 0.63323 0.0
C2455 C 0.535 0.43329 0.63776 0.0
C2456 C 0.53391 0.45672 0.6328 0.0
C2457 C 0.55014 0.46342 0.62314 0.0
C2458 C 0.56724 0.44715 0.61864 0.0
H2459 H 0.62396 0.39993 0.6454 0.0
H2460 H 0.60232 0.42341 0.64262 0.0
H2461 H 0.59247 0.39367 0.64666 0.0
H2462 H 0.55242 0.39901 0.63711 0.0
H2463 H 0.52264 0.42747 0.64513 0.0
H2464 H 0.11894 0.44323 0.33177 0.0
H2465 H 0.1419 0.40939 0.34003 0.0
H2466 H 0.08271 0.38972 0.36442 0.0
H2467 H 0.05935 0.42342 0.35608 0.0
H2468 H 0.15502 0.40257 0.36537 0.0
H2469 H 0.10073 0.32586 0.34769 0.0
H2470 H 0.09732 0.35587 0.34148 0.0
H2471 H 0.08437 0.34796 0.35665 0.0
C2472 C 0.11062 0.43159 0.33879 0.0
C2473 C 0.08725 0.4361 0.34325 0.0
C2474 C 0.12382 0.41225 0.3435 0.0
C2475 C 0.11396 0.39692 0.35275 0.0
C2476 C 0.09052 0.40107 0.35711 0.0
H2477 H 0.17797 0.2764 0.39407 0.0
H2478 H 0.15099 0.3083 0.38681 0.0
C2479 C 0.07722 0.42042 0.35236 0.0
C2480 C 0.12885 0.37748 0.35829 0.0
H2481 H 0.1332 0.31667 0.36145 0.0
C2482 C 0.15025 0.38379 0.3645 0.0
C2483 C 0.1225 0.353 0.35723 0.0
C2484 C 0.10009 0.34516 0.35031 0.0
C2485 C 0.16555 0.3663 0.36964 0.0
C2486 C 0.15944 0.34182 0.36837 0.0
C2487 C 0.13782 0.33548 0.36239 0.0
C2488 C 0.17573 0.32254 0.37279 0.0
C2489 C 0.18803 0.37417 0.37648 0.0
C2490 C 0.19845 0.31986 0.36721 0.0
C2491 C 0.21388 0.30169 0.37132 0.0
C2492 C 0.20686 0.28578 0.38107 0.0
C2493 C 0.18399 0.28842 0.38659 0.0
C2494 C 0.16852 0.30658 0.38243 0.0
H2495 H 0.18693 0.39319 0.37959 0.0
H2496 H 0.19152 0.36279 0.38501 0.0
H2497 H 0.20353 0.37243 0.36989 0.0
H2498 H 0.20419 0.33174 0.3596 0.0
H2499 H 0.2313 0.30011 0.36681 0.0
H2500 H 0.30632 0.36402 0.08742 0.0
H2501 H 0.33968 0.38633 0.0967 0.0
H2502 H 0.35803 0.32538 0.12011 0.0
H2503 H 0.32452 0.30286 0.11096 0.0
H2504 H 0.35415 0.36844 0.1338 0.0
H2505 H 0.4122 0.37943 0.0911 0.0
H2506 H 0.38166 0.38834 0.08847 0.0
H2507 H 0.38845 0.35748 0.09187 0.0
C2508 C 0.31758 0.35519 0.09442 0.0
C2509 C 0.31267 0.3316 0.09843 0.0
C2510 C 0.33675 0.36796 0.09967 0.0
C2511 C 0.35148 0.35742 0.10898 0.0
C2512 C 0.34693 0.33379 0.11288 0.0
H2513 H 0.48086 0.42693 0.13823 0.0
H2514 H 0.45259 0.3977 0.12943 0.0
C2515 C 0.32779 0.32094 0.10761 0.0
C2516 C 0.37062 0.37167 0.11522 0.0
H2517 H 0.42082 0.40468 0.10902 0.0
C2518 C 0.36887 0.37618 0.12841 0.0
C2519 C 0.38994 0.38151 0.1082 0.0
C2520 C 0.39338 0.37628 0.09415 0.0
C2521 C 0.38547 0.39099 0.1347 0.0
C2522 C 0.4041 0.40179 0.12755 0.0
C2523 C 0.40636 0.39657 0.11445 0.0
C2524 C 0.42108 0.41904 0.1334 0.0
C2525 C 0.38292 0.39496 0.14892 0.0
C2526 C 0.41272 0.44076 0.13851 0.0
C2527 C 0.42881 0.45751 0.14354 0.0
C2528 C 0.45359 0.4529 0.14349 0.0
C2529 C 0.46189 0.43103 0.13844 0.0
C2530 C 0.44578 0.41431 0.13339 0.0
H2531 H 0.37217 0.38055 0.1535 0.0
H2532 H 0.40073 0.39579 0.15365 0.0
H2533 H 0.3736 0.41225 0.15062 0.0
H2534 H 0.39377 0.44496 0.13839 0.0
H2535 H 0.42181 0.4742 0.1473 0.0
H2536 H 0.32908 0.74994 0.86902 0.0
H2537 H 0.35356 0.71675 0.86105 0.0
H2538 H 0.3168 0.6681 0.88645 0.0
H2539 H 0.29269 0.70125 0.8947 0.0
H2540 H 0.3647 0.66071 0.88664 0.0
H2541 H 0.33197 0.66501 0.83651 0.0
H2542 H 0.34472 0.69259 0.84216 0.0
H2543 H 0.31775 0.68121 0.84939 0.0
C2544 C 0.32617 0.73217 0.8729 0.0
C2545 C 0.30882 0.72822 0.88244 0.0
C2546 C 0.3401 0.71319 0.86828 0.0
C2547 C 0.3367 0.68985 0.87298 0.0
C2548 C 0.31965 0.68594 0.88264 0.0
H2549 H 0.37874 0.55521 0.83939 0.0
H2550 H 0.35844 0.59134 0.84685 0.0
C2551 C 0.30586 0.70492 0.88734 0.0
C2552 C 0.35098 0.66946 0.86794 0.0
H2553 H 0.36389 0.63812 0.8407 0.0
C2554 C 0.36455 0.65577 0.87659 0.0
C2555 C 0.35054 0.66287 0.85485 0.0
C2556 C 0.3353 0.67603 0.8452 0.0
C2557 C 0.37763 0.63564 0.87253 0.0
C2558 C 0.3776 0.62937 0.85939 0.0
C2559 C 0.36409 0.6431 0.85074 0.0
C2560 C 0.39043 0.6079 0.85453 0.0
C2561 C 0.39068 0.62086 0.88243 0.0
C2562 C 0.41529 0.60536 0.85614 0.0
C2563 C 0.42698 0.58457 0.85197 0.0
C2564 C 0.41406 0.56606 0.84595 0.0
C2565 C 0.38928 0.56905 0.84399 0.0
C2566 C 0.37761 0.58973 0.84825 0.0
H2567 H 0.38386 0.62434 0.89225 0.0
H2568 H 0.38892 0.6014 0.88038 0.0
H2569 H 0.41001 0.62554 0.88226 0.0
H2570 H 0.42565 0.6194 0.86068 0.0
H2571 H 0.44611 0.58299 0.85353 0.0
H2572 H 0.99317 0.58168 0.61824 0.0
H2573 H 0.02703 0.60485 0.60995 0.0
H2574 H 0.07497 0.56644 0.63504 0.0
H2575 H 0.04119 0.54363 0.64359 0.0
H2576 H 0.0838 0.61418 0.63522 0.0
H2577 H 0.07768 0.5815 0.58512 0.0
H2578 H 0.05061 0.59508 0.59093 0.0
H2579 H 0.06131 0.56778 0.59809 0.0
C2580 C 0.01093 0.57813 0.62197 0.0
C2581 C 0.01449 0.56071 0.63153 0.0
C2582 C 0.03029 0.5913 0.61717 0.0
C2583 C 0.0536 0.58708 0.62171 0.0
C2584 C 0.05715 0.56993 0.63135 0.0
H2585 H 0.1892 0.62498 0.58771 0.0
H2586 H 0.15259 0.60569 0.59528 0.0
C2587 C 0.03781 0.55688 0.63622 0.0
C2588 C 0.07436 0.60068 0.61657 0.0
H2589 H 0.10573 0.61247 0.58919 0.0
C2590 C 0.08859 0.61384 0.62515 0.0
C2591 C 0.08074 0.59998 0.60345 0.0
C2592 C 0.06695 0.58515 0.59387 0.0
C2593 C 0.10906 0.62625 0.621 0.0
C2594 C 0.11515 0.62598 0.60783 0.0
C2595 C 0.10089 0.61286 0.59925 0.0
C2596 C 0.1369 0.63818 0.60288 0.0
C2597 C 0.12437 0.6389 0.63081 0.0
C2598 C 0.14007 0.66298 0.60441 0.0
C2599 C 0.16111 0.67409 0.60017 0.0
C2600 C 0.17927 0.66064 0.59416 0.0
C2601 C 0.17565 0.63592 0.5923 0.0
C2602 C 0.15471 0.62483 0.59662 0.0
H2603 H 0.12079 0.63225 0.64066 0.0
H2604 H 0.14373 0.63651 0.6287 0.0
H2605 H 0.1203 0.65836 0.63062 0.0
H2606 H 0.12632 0.67375 0.60894 0.0
H2607 H 0.16318 0.69319 0.60166 0.0
H2608 H 0.12626 0.56214 0.1641 0.0
H2609 H 0.14834 0.59758 0.15717 0.0
H2610 H 0.09025 0.6168 0.13194 0.0
H2611 H 0.06777 0.58152 0.13895 0.0
H2612 H 0.16324 0.607 0.13255 0.0
H2613 H 0.10414 0.68001 0.15013 0.0
H2614 H 0.10139 0.64944 0.15562 0.0
H2615 H 0.08927 0.65809 0.14035 0.0
C2616 C 0.11798 0.57401 0.15718 0.0
C2617 C 0.09519 0.56892 0.15209 0.0
C2618 C 0.13067 0.59428 0.15323 0.0
C2619 C 0.12086 0.60997 0.14414 0.0
C2620 C 0.09797 0.6052 0.13916 0.0
H2621 H 0.17891 0.73253 0.10296 0.0
H2622 H 0.15372 0.69993 0.11106 0.0
C2623 C 0.0852 0.58493 0.14314 0.0
C2624 C 0.13529 0.63041 0.13932 0.0
H2625 H 0.13634 0.69143 0.13654 0.0
C2626 C 0.15741 0.62547 0.13348 0.0
C2627 C 0.12758 0.65448 0.14048 0.0
C2628 C 0.1044 0.66093 0.14708 0.0
C2629 C 0.17195 0.6439 0.12867 0.0
C2630 C 0.16432 0.66796 0.12989 0.0
C2631 C 0.14212 0.67295 0.13564 0.0
C2632 C 0.17928 0.68816 0.12531 0.0
C2633 C 0.19517 0.63744 0.1221 0.0
C2634 C 0.20181 0.69257 0.1308 0.0
C2635 C 0.21625 0.71116 0.1262 0.0
C2636 C 0.20838 0.72574 0.11605 0.0
C2637 C 0.18556 0.72156 0.11075 0.0
C2638 C 0.17112 0.70299 0.11538 0.0
H2639 H 0.19559 0.61829 0.11918 0.0
H2640 H 0.19807 0.64875 0.11348 0.0
H2641 H 0.2103 0.64058 0.12879 0.0
H2642 H 0.20826 0.68158 0.13862 0.0
H2643 H 0.23364 0.71396 0.13056 0.0
H2644 H 0.17446 0.3119 0.89193 0.0
H2645 H 0.14023 0.33493 0.88393 0.0
H2646 H 0.159 0.39355 0.90889 0.0
H2647 H 0.19337 0.37094 0.91682 0.0
H2648 H 0.10056 0.35589 0.89638 0.0
H2649 H 0.15809 0.42471 0.8734 0.0
H2650 H 0.16972 0.39643 0.87903 0.0
H2651 H 0.16411 0.42043 0.89013 0.0
C2652 C 0.17123 0.32963 0.8958 0.0
C2653 C 0.18687 0.33966 0.90493 0.0
C2654 C 0.15166 0.34276 0.8912 0.0
C2655 C 0.14739 0.36613 0.89563 0.0
C2656 C 0.16231 0.37576 0.90513 0.0
H2657 H 0.04645 0.47942 0.87883 0.0
H2658 H 0.07753 0.45343 0.88777 0.0
C2659 C 0.1819 0.36273 0.9097 0.0
C2660 C 0.1277 0.3807 0.89012 0.0
H2661 H 0.11637 0.43291 0.87416 0.0
C2662 C 0.10398 0.37267 0.89145 0.0
C2663 C 0.13226 0.40253 0.88366 0.0
C2664 C 0.15743 0.41147 0.88134 0.0
C2665 C 0.08463 0.38624 0.88679 0.0
C2666 C 0.08921 0.40822 0.88049 0.0
C2667 C 0.11293 0.41611 0.87906 0.0
C2668 C 0.0697 0.42343 0.87533 0.0
C2669 C 0.05943 0.37727 0.88889 0.0
C2670 C 0.0551 0.41522 0.86531 0.0
C2671 C 0.03734 0.43005 0.86014 0.0
C2672 C 0.03392 0.45341 0.86489 0.0
C2673 C 0.04857 0.46154 0.87496 0.0
C2674 C 0.06634 0.44672 0.88008 0.0
H2675 H 0.05869 0.36314 0.89639 0.0
H2676 H 0.04735 0.39218 0.89171 0.0
H2677 H 0.05253 0.36949 0.87983 0.0
H2678 H 0.05769 0.39746 0.86134 0.0
H2679 H 0.02642 0.42325 0.85237 0.0
H2680 H 0.26911 0.30558 0.62526 0.0
H2681 H 0.29691 0.33552 0.63366 0.0
H2682 H 0.35313 0.30721 0.60969 0.0
H2683 H 0.32532 0.27731 0.60107 0.0
H2684 H 0.34036 0.32864 0.64658 0.0
H2685 H 0.35359 0.37892 0.60114 0.0
H2686 H 0.32958 0.35762 0.60328 0.0
H2687 H 0.35957 0.34732 0.60027 0.0
C2688 C 0.28736 0.30572 0.62172 0.0
C2689 C 0.29495 0.28912 0.61243 0.0
C2690 C 0.30324 0.32284 0.62656 0.0
C2691 C 0.32699 0.32378 0.62218 0.0
C2692 C 0.33475 0.30708 0.61302 0.0
H2693 H 0.44096 0.42567 0.64083 0.0
H2694 H 0.41902 0.39062 0.63301 0.0
C2695 C 0.31886 0.28994 0.60815 0.0
C2696 C 0.34354 0.34219 0.62734 0.0
H2697 H 0.37618 0.39157 0.61901 0.0
C2698 C 0.34825 0.34237 0.64055 0.0
C2699 C 0.35388 0.36002 0.61944 0.0
C2700 C 0.34881 0.3612 0.60526 0.0
C2701 C 0.36293 0.35998 0.64609 0.0
C2702 C 0.37284 0.3781 0.63824 0.0
C2703 C 0.36858 0.37762 0.625 0.0
C2704 C 0.38667 0.39841 0.64364 0.0
C2705 C 0.36779 0.35897 0.6603 0.0
C2706 C 0.37573 0.41441 0.6522 0.0
C2707 C 0.38818 0.43445 0.65669 0.0
C2708 C 0.41181 0.439 0.65265 0.0
C2709 C 0.42283 0.42272 0.64419 0.0
C2710 C 0.41032 0.40269 0.63968 0.0
H2711 H 0.36485 0.34068 0.6642 0.0
H2712 H 0.38644 0.36458 0.66249 0.0
H2713 H 0.35536 0.37136 0.66531 0.0
H2714 H 0.35733 0.41172 0.65518 0.0
H2715 H 0.37906 0.44661 0.66315 0.0
H2716 H 0.42846 0.52613 0.34798 0.0
H2717 H 0.39924 0.55454 0.35654 0.0
H2718 H 0.45657 0.59754 0.37202 0.0
H2719 H 0.48598 0.56903 0.36362 0.0
H2720 H 0.42069 0.5886 0.38958 0.0
H2721 H 0.38209 0.62166 0.344 0.0
H2722 H 0.38186 0.58957 0.34525 0.0
H2723 H 0.40999 0.60531 0.3447 0.0
C2724 C 0.4349 0.54172 0.35311 0.0
C2725 C 0.45957 0.5453 0.3551 0.0
C2726 C 0.41816 0.55804 0.35793 0.0
C2727 C 0.42574 0.57834 0.36476 0.0
C2728 C 0.45035 0.58206 0.36671 0.0
H2729 H 0.3253 0.69157 0.38712 0.0
H2730 H 0.36019 0.6703 0.37859 0.0
C2731 C 0.46712 0.56574 0.36189 0.0
C2732 C 0.4079 0.59497 0.37042 0.0
H2733 H 0.35976 0.63015 0.36304 0.0
C2734 C 0.40751 0.59789 0.38377 0.0
C2735 C 0.39095 0.60736 0.36282 0.0
C2736 C 0.39133 0.60604 0.34839 0.0
C2737 C 0.39005 0.61212 0.38977 0.0
C2738 C 0.37229 0.62342 0.38221 0.0
C2739 C 0.37324 0.62127 0.36883 0.0
C2740 C 0.35201 0.63675 0.38802 0.0
C2741 C 0.39077 0.6149 0.40413 0.0
C2742 C 0.33583 0.62495 0.39614 0.0
C2743 C 0.31591 0.63702 0.40105 0.0
C2744 C 0.31162 0.66116 0.39786 0.0
C2745 C 0.32804 0.67303 0.38982 0.0
C2746 C 0.34799 0.66089 0.3849 0.0
H2747 H 0.40899 0.61137 0.40799 0.0
H2748 H 0.38514 0.63319 0.40707 0.0
H2749 H 0.3783 0.60179 0.40855 0.0
H2750 H 0.3383 0.60618 0.39845 0.0
H2751 H 0.30363 0.62724 0.40715 0.0
loop_
_geom_bond_atom_site_label_1
_geom_bond_atom_site_label_2
_geom_bond_distance
_geom_bond_site_symmetry_2
_ccdc_geom_bond_type
Mg0 O1 2.028 . S
Mg0 O7 1.986 . S
Mg0 O9 2.110 1_545 S
Mg0 O10 2.230 1_545 S
Mg0 O13 2.010 . S
O1 Mg0 2.028 . S
O1 C4 1.250 . S
O2 Mg3 2.028 . S
O2 C4 1.248 . S
Mg3 O2 2.028 . S
Mg3 O8 2.032 . S
Mg3 O10 2.054 1_545 S
C4 O1 1.250 . S
C4 O2 1.248 . S
C5 O6 1.264 . S
C5 O13 1.249 . S
O6 C5 1.264 . S
O7 Mg0 1.986 . S
O7 C11 1.246 . S
O8 Mg3 2.032 . S
O8 C11 1.259 . S
O9 Mg0 2.110 1_565 S
O9 C12 1.255 . S
O10 Mg0 2.230 1_565 S
O10 Mg3 2.054 1_565 S
O10 C12 1.289 . S
C11 O7 1.246 . S
C11 O8 1.259 . S
C12 O9 1.255 . S
C12 O10 1.289 . S
O13 Mg0 2.010 . S
O13 C5 1.249 . S
Mg14 O15 2.028 . S
Mg14 O21 1.986 . S
Mg14 O23 2.114 . S
Mg14 O24 2.251 . S
Mg14 O27 2.010 . S
O15 Mg14 2.028 . S
O15 C18 1.250 . S
O16 Mg17 2.028 . S
O16 C18 1.248 . S
Mg17 O16 2.028 . S
Mg17 O22 2.032 . S
Mg17 O24 2.079 . S
C18 O15 1.250 . S
C18 O16 1.248 . S
C19 O20 1.264 . S
C19 O27 1.249 . S
O20 C19 1.264 . S
O21 Mg14 1.986 . S
O21 C25 1.246 . S
O22 Mg17 2.032 . S
O22 C25 1.259 . S
O23 Mg14 2.114 . S
O23 C26 1.252 . S
O24 Mg14 2.251 . S
O24 Mg17 2.079 . S
O24 C26 1.273 . S
C25 O21 1.246 . S
C25 O22 1.259 . S
C26 O23 1.252 . S
C26 O24 1.273 . S
O27 Mg14 2.010 . S
O27 C19 1.249 . S
Mg28 O29 2.028 . S
Mg28 O35 1.986 . S
Mg28 O37 2.110 1_565 S
Mg28 O38 2.230 1_565 S
Mg28 O41 2.010 . S
O29 Mg28 2.028 . S
O29 C32 1.250 . S
O30 Mg31 2.028 . S
O30 C32 1.248 . S
Mg31 O30 2.028 . S
Mg31 O36 2.032 . S
Mg31 O38 2.054 1_565 S
C32 O29 1.250 . S
C32 O30 1.248 . S
C33 O34 1.264 1_455 S
C33 O41 1.249 . S
O34 C33 1.264 1_655 S
O35 Mg28 1.986 . S
O35 C39 1.246 . S
O36 Mg31 2.032 . S
O36 C39 1.259 . S
O37 Mg28 2.110 1_545 S
O37 C40 1.255 . S
O38 Mg28 2.230 1_545 S
O38 Mg31 2.054 1_545 S
O38 C40 1.289 . S
C39 O35 1.246 . S
C39 O36 1.259 . S
C40 O37 1.255 . S
C40 O38 1.289 . S
O41 Mg28 2.010 . S
O41 C33 1.249 . S
Mg42 O43 2.028 . S
Mg42 O49 1.986 . S
Mg42 O51 2.114 . S
Mg42 O52 2.251 . S
Mg42 O55 2.010 . S
O43 Mg42 2.028 . S
O43 C46 1.250 . S
O44 Mg45 2.028 . S
O44 C46 1.248 . S
Mg45 O44 2.028 . S
Mg45 O50 2.032 . S
Mg45 O52 2.079 . S
C46 O43 1.250 . S
C46 O44 1.248 . S
C47 O48 1.264 . S
C47 O55 1.249 . S
O48 C47 1.264 . S
O49 Mg42 1.986 . S
O49 C53 1.246 . S
O50 Mg45 2.032 . S
O50 C53 1.259 . S
O51 Mg42 2.114 . S
O51 C54 1.252 . S
O52 Mg42 2.251 . S
O52 Mg45 2.079 . S
O52 C54 1.273 . S
C53 O49 1.246 . S
C53 O50 1.259 . S
C54 O51 1.252 . S
C54 O52 1.273 . S
O55 Mg42 2.010 . S
O55 C47 1.249 . S
Mg56 O57 2.028 . S
Mg56 O63 1.986 . S
Mg56 O65 2.110 1_565 S
Mg56 O66 2.230 1_565 S
Mg56 O69 2.010 . S
O57 Mg56 2.028 . S
O57 C60 1.250 . S
O58 Mg59 2.028 . S
O58 C60 1.248 . S
Mg59 O58 2.028 . S
Mg59 O64 2.032 . S
Mg59 O66 2.054 1_565 S
C60 O57 1.250 . S
C60 O58 1.248 . S
C61 O62 1.264 . S
C61 O69 1.249 . S
O62 C61 1.264 . S
O63 Mg56 1.986 . S
O63 C67 1.246 . S
O64 Mg59 2.032 . S
O64 C67 1.259 . S
O65 Mg56 2.110 1_545 S
O65 C68 1.255 . S
O66 Mg56 2.230 1_545 S
O66 Mg59 2.054 1_545 S
O66 C68 1.289 . S
C67 O63 1.246 . S
C67 O64 1.259 . S
C68 O65 1.255 . S
C68 O66 1.289 . S
O69 Mg56 2.010 . S
O69 C61 1.249 . S
Mg70 O71 2.028 . S
Mg70 O77 1.986 . S
Mg70 O79 2.114 . S
Mg70 O80 2.251 . S
Mg70 O83 2.010 . S
O71 Mg70 2.028 . S
O71 C74 1.250 . S
O72 Mg73 2.028 . S
O72 C74 1.248 . S
Mg73 O72 2.028 . S
Mg73 O78 2.032 . S
Mg73 O80 2.079 . S
C74 O71 1.250 . S
C74 O72 1.248 . S
C75 O76 1.264 . S
C75 O83 1.249 . S
O76 C75 1.264 . S
O77 Mg70 1.986 . S
O77 C81 1.246 . S
O78 Mg73 2.032 . S
O78 C81 1.259 . S
O79 Mg70 2.114 . S
O79 C82 1.252 . S
O80 Mg70 2.251 . S
O80 Mg73 2.079 . S
O80 C82 1.273 . S
C81 O77 1.246 . S
C81 O78 1.259 . S
C82 O79 1.252 . S
C82 O80 1.273 . S
O83 Mg70 2.010 . S
O83 C75 1.249 . S
Mg84 O85 2.028 . S
Mg84 O91 1.986 . S
Mg84 O93 2.110 1_545 S
Mg84 O94 2.230 1_545 S
Mg84 O97 2.010 . S
O85 Mg84 2.028 . S
O85 C88 1.250 . S
O86 Mg87 2.028 . S
O86 C88 1.248 . S
Mg87 O86 2.028 . S
Mg87 O92 2.032 . S
Mg87 O94 2.054 1_545 S
C88 O85 1.250 . S
C88 O86 1.248 . S
C89 O90 1.264 1_455 S
C89 O97 1.249 . S
O90 C89 1.264 1_655 S
O91 Mg84 1.986 . S
O91 C95 1.246 . S
O92 Mg87 2.032 . S
O92 C95 1.259 . S
O93 Mg84 2.110 1_565 S
O93 C96 1.255 . S
O94 Mg84 2.230 1_565 S
O94 Mg87 2.054 1_565 S
O94 C96 1.289 . S
C95 O91 1.246 . S
C95 O92 1.259 . S
C96 O93 1.255 . S
C96 O94 1.289 . S
O97 Mg84 2.010 . S
O97 C89 1.249 . S
Mg98 O99 2.028 . S
Mg98 O105 1.986 . S
Mg98 O107 2.114 . S
Mg98 O108 2.251 . S
Mg98 O111 2.010 . S
O99 Mg98 2.028 . S
O99 C102 1.250 . S
O100 Mg101 2.028 . S
O100 C102 1.248 . S
Mg101 O100 2.028 . S
Mg101 O106 2.032 . S
Mg101 O108 2.079 . S
C102 O99 1.250 . S
C102 O100 1.248 . S
C103 O104 1.264 . S
C103 O111 1.249 . S
O104 C103 1.264 . S
O105 Mg98 1.986 . S
O105 C109 1.246 . S
O106 Mg101 2.032 . S
O106 C109 1.259 . S
O107 Mg98 2.114 . S
O107 C110 1.252 . S
O108 Mg98 2.251 . S
O108 Mg101 2.079 . S
O108 C110 1.273 . S
C109 O105 1.246 . S
C109 O106 1.259 . S
C110 O107 1.252 . S
C110 O108 1.273 . S
O111 Mg98 2.010 . S
O111 C103 1.249 . S
Mg112 O113 2.028 . S
Mg112 O119 1.986 . S
Mg112 O121 2.110 1_565 S
Mg112 O122 2.230 1_565 S
Mg112 O125 2.010 . S
O113 Mg112 2.028 . S
O113 C116 1.250 . S
O114 Mg115 2.028 . S
O114 C116 1.248 . S
Mg115 O114 2.028 . S
Mg115 O120 2.032 . S
Mg115 O122 2.054 1_565 S
C116 O113 1.250 . S
C116 O114 1.248 . S
C117 O118 1.264 . S
C117 O125 1.249 . S
O118 C117 1.264 . S
O119 Mg112 1.986 . S
O119 C123 1.246 . S
O120 Mg115 2.032 . S
O120 C123 1.259 . S
O121 Mg112 2.110 1_545 S
O121 C124 1.255 . S
O122 Mg112 2.230 1_545 S
O122 Mg115 2.054 1_545 S
O122 C124 1.289 . S
C123 O119 1.246 . S
C123 O120 1.259 . S
C124 O121 1.255 . S
C124 O122 1.289 . S
O125 Mg112 2.010 . S
O125 C117 1.249 . S
Mg126 O127 2.028 . S
Mg126 O133 1.986 . S
Mg126 O135 2.114 . S
Mg126 O136 2.251 . S
Mg126 O139 2.010 . S
O127 Mg126 2.028 . S
O127 C130 1.250 . S
O128 Mg129 2.028 . S
O128 C130 1.248 . S
Mg129 O128 2.028 . S
Mg129 O134 2.032 . S
Mg129 O136 2.079 . S
C130 O127 1.250 . S
C130 O128 1.248 . S
C131 O132 1.264 . S
C131 O139 1.249 . S
O132 C131 1.264 . S
O133 Mg126 1.986 . S
O133 C137 1.246 . S
O134 Mg129 2.032 . S
O134 C137 1.259 . S
O135 Mg126 2.114 . S
O135 C138 1.252 . S
O136 Mg126 2.251 . S
O136 Mg129 2.079 . S
O136 C138 1.273 . S
C137 O133 1.246 . S
C137 O134 1.259 . S
C138 O135 1.252 . S
C138 O136 1.273 . S
O139 Mg126 2.010 . S
O139 C131 1.249 . S
Mg140 O141 2.028 . S
Mg140 O147 1.986 . S
Mg140 O149 2.110 1_545 S
Mg140 O150 2.230 1_545 S
Mg140 O153 2.010 . S
O141 Mg140 2.028 . S
O141 C144 1.250 . S
O142 Mg143 2.028 . S
O142 C144 1.248 . S
Mg143 O142 2.028 . S
Mg143 O148 2.032 . S
Mg143 O150 2.054 1_545 S
C144 O141 1.250 . S
C144 O142 1.248 . S
C145 O146 1.264 1_655 S
C145 O153 1.249 . S
O146 C145 1.264 1_455 S
O147 Mg140 1.986 . S
O147 C151 1.246 . S
O148 Mg143 2.032 . S
O148 C151 1.259 . S
O149 Mg140 2.110 1_565 S
O149 C152 1.255 . S
O150 Mg140 2.230 1_565 S
O150 Mg143 2.054 1_565 S
O150 C152 1.289 . S
C151 O147 1.246 . S
C151 O148 1.259 . S
C152 O149 1.255 . S
C152 O150 1.289 . S
O153 Mg140 2.010 . S
O153 C145 1.249 . S
Mg154 O155 2.028 . S
Mg154 O161 1.986 . S
Mg154 O163 2.114 . S
Mg154 O164 2.251 . S
Mg154 O167 2.010 . S
O155 Mg154 2.028 . S
O155 C158 1.250 . S
O156 Mg157 2.028 . S
O156 C158 1.248 . S
Mg157 O156 2.028 . S
Mg157 O162 2.032 . S
Mg157 O164 2.079 . S
C158 O155 1.250 . S
C158 O156 1.248 . S
C159 O160 1.264 . S
C159 O167 1.249 . S
O160 C159 1.264 . S
O161 Mg154 1.986 . S
O161 C165 1.246 . S
O162 Mg157 2.032 . S
O162 C165 1.259 . S
O163 Mg154 2.114 . S
O163 C166 1.252 . S
O164 Mg154 2.251 . S
O164 Mg157 2.079 . S
O164 C166 1.273 . S
C165 O161 1.246 . S
C165 O162 1.259 . S
C166 O163 1.252 . S
C166 O164 1.273 . S
O167 Mg154 2.010 . S
O167 C159 1.249 . S
Mg168 O169 2.028 . S
Mg168 O175 1.986 . S
Mg168 O177 2.110 1_545 S
Mg168 O178 2.230 1_545 S
Mg168 O181 2.010 . S
O169 Mg168 2.028 . S
O169 C172 1.250 . S
O170 Mg171 2.028 . S
O170 C172 1.248 . S
Mg171 O170 2.028 . S
Mg171 O176 2.032 . S
Mg171 O178 2.054 1_545 S
C172 O169 1.250 . S
C172 O170 1.248 . S
C173 O174 1.264 . S
C173 O181 1.249 . S
O174 C173 1.264 . S
O175 Mg168 1.986 . S
O175 C179 1.246 . S
O176 Mg171 2.032 . S
O176 C179 1.259 . S
O177 Mg168 2.110 1_565 S
O177 C180 1.255 . S
O178 Mg168 2.230 1_565 S
O178 Mg171 2.054 1_565 S
O178 C180 1.289 . S
C179 O175 1.246 . S
C179 O176 1.259 . S
C180 O177 1.255 . S
C180 O178 1.289 . S
O181 Mg168 2.010 . S
O181 C173 1.249 . S
Mg182 O183 2.028 . S
Mg182 O189 1.986 . S
Mg182 O191 2.114 . S
Mg182 O192 2.251 . S
Mg182 O195 2.010 . S
O183 Mg182 2.028 . S
O183 C186 1.250 . S
O184 Mg185 2.028 . S
O184 C186 1.248 . S
Mg185 O184 2.028 . S
Mg185 O190 2.032 . S
Mg185 O192 2.079 . S
C186 O183 1.250 . S
C186 O184 1.248 . S
C187 O188 1.264 . S
C187 O195 1.249 . S
O188 C187 1.264 . S
O189 Mg182 1.986 . S
O189 C193 1.246 . S
O190 Mg185 2.032 . S
O190 C193 1.259 . S
O191 Mg182 2.114 . S
O191 C194 1.252 . S
O192 Mg182 2.251 . S
O192 Mg185 2.079 . S
O192 C194 1.273 . S
C193 O189 1.246 . S
C193 O190 1.259 . S
C194 O191 1.252 . S
C194 O192 1.273 . S
O195 Mg182 2.010 . S
O195 C187 1.249 . S
Mg196 O197 2.028 . S
Mg196 O203 1.986 . S
Mg196 O205 2.110 1_565 S
Mg196 O206 2.230 1_565 S
Mg196 O209 2.010 . S
O197 Mg196 2.028 . S
O197 C200 1.250 . S
O198 Mg199 2.028 . S
O198 C200 1.248 . S
Mg199 O198 2.028 . S
Mg199 O204 2.032 . S
Mg199 O206 2.054 1_565 S
C200 O197 1.250 . S
C200 O198 1.248 . S
C201 O202 1.264 1_655 S
C201 O209 1.249 . S
O202 C201 1.264 1_455 S
O203 Mg196 1.986 . S
O203 C207 1.246 . S
O204 Mg199 2.032 . S
O204 C207 1.259 . S
O205 Mg196 2.110 1_545 S
O205 C208 1.255 . S
O206 Mg196 2.230 1_545 S
O206 Mg199 2.054 1_545 S
O206 C208 1.289 . S
C207 O203 1.246 . S
C207 O204 1.259 . S
C208 O205 1.255 . S
C208 O206 1.289 . S
O209 Mg196 2.010 . S
O209 C201 1.249 . S
Mg210 O211 2.028 . S
Mg210 O217 1.986 . S
Mg210 O219 2.114 . S
Mg210 O220 2.251 . S
Mg210 O223 2.010 . S
O211 Mg210 2.028 . S
O211 C214 1.250 . S
O212 Mg213 2.028 . S
O212 C214 1.248 . S
Mg213 O212 2.028 . S
Mg213 O218 2.032 . S
Mg213 O220 2.079 . S
C214 O211 1.250 . S
C214 O212 1.248 . S
C215 O216 1.264 . S
C215 O223 1.249 . S
O216 C215 1.264 . S
O217 Mg210 1.986 . S
O217 C221 1.246 . S
O218 Mg213 2.032 . S
O218 C221 1.259 . S
O219 Mg210 2.114 . S
O219 C222 1.252 . S
O220 Mg210 2.251 . S
O220 Mg213 2.079 . S
O220 C222 1.273 . S
C221 O217 1.246 . S
C221 O218 1.259 . S
C222 O219 1.252 . S
C222 O220 1.273 . S
O223 Mg210 2.010 . S
O223 C215 1.249 . S
Mg224 O225 2.028 . S
Mg224 O231 1.986 . S
Mg224 O233 2.114 . S
Mg224 O234 2.251 . S
Mg224 O237 2.010 . S
O225 Mg224 2.028 . S
O225 C228 1.250 . S
O226 Mg227 2.028 . S
O226 C228 1.248 . S
Mg227 O226 2.028 . S
Mg227 O232 2.032 . S
Mg227 O234 2.079 . S
C228 O225 1.250 . S
C228 O226 1.248 . S
C229 O230 1.264 1_655 S
C229 O237 1.249 . S
O230 C229 1.264 1_455 S
O231 Mg224 1.986 . S
O231 C235 1.246 . S
O232 Mg227 2.032 . S
O232 C235 1.259 . S
O233 Mg224 2.114 . S
O233 C236 1.252 . S
O234 Mg224 2.251 . S
O234 Mg227 2.079 . S
O234 C236 1.273 . S
C235 O231 1.246 . S
C235 O232 1.259 . S
C236 O233 1.252 . S
C236 O234 1.273 . S
O237 Mg224 2.010 . S
O237 C229 1.249 . S
Mg238 O239 2.028 . S
Mg238 O245 1.986 . S
Mg238 O247 2.114 . S
Mg238 O248 2.251 . S
Mg238 O251 2.010 . S
O239 Mg238 2.028 . S
O239 C242 1.250 . S
O240 Mg241 2.028 . S
O240 C242 1.248 . S
Mg241 O240 2.028 . S
Mg241 O246 2.032 . S
Mg241 O248 2.079 . S
C242 O239 1.250 . S
C242 O240 1.248 . S
C243 O244 1.264 . S
C243 O251 1.249 . S
O244 C243 1.264 . S
O245 Mg238 1.986 . S
O245 C249 1.246 . S
O246 Mg241 2.032 . S
O246 C249 1.259 . S
O247 Mg238 2.114 . S
O247 C250 1.252 . S
O248 Mg238 2.251 . S
O248 Mg241 2.079 . S
O248 C250 1.273 . S
C249 O245 1.246 . S
C249 O246 1.259 . S
C250 O247 1.252 . S
C250 O248 1.273 . S
O251 Mg238 2.010 . S
O251 C243 1.249 . S
Mg252 O253 2.028 . S
Mg252 O259 1.986 . S
Mg252 O261 2.114 . S
Mg252 O262 2.251 . S
Mg252 O265 2.010 . S
O253 Mg252 2.028 . S
O253 C256 1.250 . S
O254 Mg255 2.028 . S
O254 C256 1.248 . S
Mg255 O254 2.028 . S
Mg255 O260 2.032 . S
Mg255 O262 2.079 . S
C256 O253 1.250 . S
C256 O254 1.248 . S
C257 O258 1.264 . S
C257 O265 1.249 . S
O258 C257 1.264 . S
O259 Mg252 1.986 . S
O259 C263 1.246 . S
O260 Mg255 2.032 . S
O260 C263 1.259 . S
O261 Mg252 2.114 . S
O261 C264 1.252 . S
O262 Mg252 2.251 . S
O262 Mg255 2.079 . S
O262 C264 1.273 . S
C263 O259 1.246 . S
C263 O260 1.259 . S
C264 O261 1.252 . S
C264 O262 1.273 . S
O265 Mg252 2.010 . S
O265 C257 1.249 . S
Mg266 O267 2.028 . S
Mg266 O273 1.986 . S
Mg266 O275 2.114 . S
Mg266 O276 2.251 . S
Mg266 O279 2.010 . S
O267 Mg266 2.028 . S
O267 C270 1.250 . S
O268 Mg269 2.028 . S
O268 C270 1.248 . S
Mg269 O268 2.028 . S
Mg269 O274 2.032 . S
Mg269 O276 2.079 . S
C270 O267 1.250 . S
C270 O268 1.248 . S
C271 O272 1.264 . S
C271 O279 1.249 . S
O272 C271 1.264 . S
O273 Mg266 1.986 . S
O273 C277 1.246 . S
O274 Mg269 2.032 . S
O274 C277 1.259 . S
O275 Mg266 2.114 . S
O275 C278 1.252 . S
O276 Mg266 2.251 . S
O276 Mg269 2.079 . S
O276 C278 1.273 . S
C277 O273 1.246 . S
C277 O274 1.259 . S
C278 O275 1.252 . S
C278 O276 1.273 . S
O279 Mg266 2.010 . S
O279 C271 1.249 . S
Mg280 O281 2.028 . S
Mg280 O287 1.986 . S
Mg280 O289 2.114 . S
Mg280 O290 2.251 . S
Mg280 O293 2.010 . S
O281 Mg280 2.028 . S
O281 C284 1.250 . S
O282 Mg283 2.028 . S
O282 C284 1.248 . S
Mg283 O282 2.028 . S
Mg283 O288 2.032 . S
Mg283 O290 2.079 . S
C284 O281 1.250 . S
C284 O282 1.248 . S
C285 O286 1.264 1_655 S
C285 O293 1.249 . S
O286 C285 1.264 1_455 S
O287 Mg280 1.986 . S
O287 C291 1.246 . S
O288 Mg283 2.032 . S
O288 C291 1.259 . S
O289 Mg280 2.114 . S
O289 C292 1.252 . S
O290 Mg280 2.251 . S
O290 Mg283 2.079 . S
O290 C292 1.273 . S
C291 O287 1.246 . S
C291 O288 1.259 . S
C292 O289 1.252 . S
C292 O290 1.273 . S
O293 Mg280 2.010 . S
O293 C285 1.249 . S
Mg294 O295 2.028 . S
Mg294 O301 1.986 . S
Mg294 O303 2.114 . S
Mg294 O304 2.251 . S
Mg294 O307 2.010 . S
O295 Mg294 2.028 . S
O295 C298 1.250 . S
O296 Mg297 2.028 . S
O296 C298 1.248 . S
Mg297 O296 2.028 . S
Mg297 O302 2.032 . S
Mg297 O304 2.079 . S
C298 O295 1.250 . S
C298 O296 1.248 . S
C299 O300 1.264 . S
C299 O307 1.249 . S
O300 C299 1.264 . S
O301 Mg294 1.986 . S
O301 C305 1.246 . S
O302 Mg297 2.032 . S
O302 C305 1.259 . S
O303 Mg294 2.114 . S
O303 C306 1.252 . S
O304 Mg294 2.251 . S
O304 Mg297 2.079 . S
O304 C306 1.273 . S
C305 O301 1.246 . S
C305 O302 1.259 . S
C306 O303 1.252 . S
C306 O304 1.273 . S
O307 Mg294 2.010 . S
O307 C299 1.249 . S
Mg308 O309 2.028 . S
Mg308 O315 1.986 . S
Mg308 O317 2.114 . S
Mg308 O318 2.251 . S
Mg308 O321 2.010 . S
O309 Mg308 2.028 . S
O309 C312 1.250 . S
O310 Mg311 2.028 . S
O310 C312 1.248 . S
Mg311 O310 2.028 . S
Mg311 O316 2.032 . S
Mg311 O318 2.079 . S
C312 O309 1.250 . S
C312 O310 1.248 . S
C313 O314 1.264 . S
C313 O321 1.249 . S
O314 C313 1.264 . S
O315 Mg308 1.986 . S
O315 C319 1.246 . S
O316 Mg311 2.032 . S
O316 C319 1.259 . S
O317 Mg308 2.114 . S
O317 C320 1.252 . S
O318 Mg308 2.251 . S
O318 Mg311 2.079 . S
O318 C320 1.273 . S
C319 O315 1.246 . S
C319 O316 1.259 . S
C320 O317 1.252 . S
C320 O318 1.273 . S
O321 Mg308 2.010 . S
O321 C313 1.249 . S
Mg322 O323 2.028 . S
Mg322 O329 1.986 . S
Mg322 O331 2.114 . S
Mg322 O332 2.251 . S
Mg322 O335 2.010 . S
O323 Mg322 2.028 . S
O323 C326 1.250 . S
O324 Mg325 2.028 . S
O324 C326 1.248 . S
Mg325 O324 2.028 . S
Mg325 O330 2.032 . S
Mg325 O332 2.079 . S
C326 O323 1.250 . S
C326 O324 1.248 . S
C327 O328 1.264 . S
C327 O335 1.249 . S
O328 C327 1.264 . S
O329 Mg322 1.986 . S
O329 C333 1.246 . S
O330 Mg325 2.032 . S
O330 C333 1.259 . S
O331 Mg322 2.114 . S
O331 C334 1.252 . S
O332 Mg322 2.251 . S
O332 Mg325 2.079 . S
O332 C334 1.273 . S
C333 O329 1.246 . S
C333 O330 1.259 . S
C334 O331 1.252 . S
C334 O332 1.273 . S
O335 Mg322 2.010 . S
O335 C327 1.249 . S
Mg336 O337 2.028 . S
Mg336 O343 1.986 . S
Mg336 O345 2.114 . S
Mg336 O346 2.251 . S
Mg336 O349 2.010 . S
O337 Mg336 2.028 . S
O337 C340 1.250 . S
O338 Mg339 2.028 . S
O338 C340 1.248 . S
Mg339 O338 2.028 . S
Mg339 O344 2.032 . S
Mg339 O346 2.079 . S
C340 O337 1.250 . S
C340 O338 1.248 . S
C341 O342 1.264 1_455 S
C341 O349 1.249 . S
O342 C341 1.264 1_655 S
O343 Mg336 1.986 . S
O343 C347 1.246 . S
O344 Mg339 2.032 . S
O344 C347 1.259 . S
O345 Mg336 2.114 . S
O345 C348 1.252 . S
O346 Mg336 2.251 . S
O346 Mg339 2.079 . S
O346 C348 1.273 . S
C347 O343 1.246 . S
C347 O344 1.259 . S
C348 O345 1.252 . S
C348 O346 1.273 . S
O349 Mg336 2.010 . S
O349 C341 1.249 . S
Mg350 O351 2.028 . S
Mg350 O357 1.986 . S
Mg350 O359 2.114 . S
Mg350 O360 2.251 . S
Mg350 O363 2.010 . S
O351 Mg350 2.028 . S
O351 C354 1.250 . S
O352 Mg353 2.028 . S
O352 C354 1.248 . S
Mg353 O352 2.028 . S
Mg353 O358 2.032 . S
Mg353 O360 2.079 . S
C354 O351 1.250 . S
C354 O352 1.248 . S
C355 O356 1.264 . S
C355 O363 1.249 . S
O356 C355 1.264 . S
O357 Mg350 1.986 . S
O357 C361 1.246 . S
O358 Mg353 2.032 . S
O358 C361 1.259 . S
O359 Mg350 2.114 . S
O359 C362 1.252 . S
O360 Mg350 2.251 . S
O360 Mg353 2.079 . S
O360 C362 1.273 . S
C361 O357 1.246 . S
C361 O358 1.259 . S
C362 O359 1.252 . S
C362 O360 1.273 . S
O363 Mg350 2.010 . S
O363 C355 1.249 . S
Mg364 O365 2.028 . S
Mg364 O371 1.986 . S
Mg364 O373 2.114 . S
Mg364 O374 2.251 . S
Mg364 O377 2.010 . S
O365 Mg364 2.028 . S
O365 C368 1.250 . S
O366 Mg367 2.028 . S
O366 C368 1.248 . S
Mg367 O366 2.028 . S
Mg367 O372 2.032 . S
Mg367 O374 2.079 . S
C368 O365 1.250 . S
C368 O366 1.248 . S
C369 O370 1.264 . S
C369 O377 1.249 . S
O370 C369 1.264 . S
O371 Mg364 1.986 . S
O371 C375 1.246 . S
O372 Mg367 2.032 . S
O372 C375 1.259 . S
O373 Mg364 2.114 . S
O373 C376 1.252 . S
O374 Mg364 2.251 . S
O374 Mg367 2.079 . S
O374 C376 1.273 . S
C375 O371 1.246 . S
C375 O372 1.259 . S
C376 O373 1.252 . S
C376 O374 1.273 . S
O377 Mg364 2.010 . S
O377 C369 1.249 . S
Mg378 O379 2.028 . S
Mg378 O385 1.986 . S
Mg378 O387 2.114 . S
Mg378 O388 2.251 . S
Mg378 O391 2.010 . S
O379 Mg378 2.028 . S
O379 C382 1.250 . S
O380 Mg381 2.028 . S
O380 C382 1.248 . S
Mg381 O380 2.028 . S
Mg381 O386 2.032 . S
Mg381 O388 2.079 . S
C382 O379 1.250 . S
C382 O380 1.248 . S
C383 O384 1.264 . S
C383 O391 1.249 . S
O384 C383 1.264 . S
O385 Mg378 1.986 . S
O385 C389 1.246 . S
O386 Mg381 2.032 . S
O386 C389 1.259 . S
O387 Mg378 2.114 . S
O387 C390 1.252 . S
O388 Mg378 2.251 . S
O388 Mg381 2.079 . S
O388 C390 1.273 . S
C389 O385 1.246 . S
C389 O386 1.259 . S
C390 O387 1.252 . S
C390 O388 1.273 . S
O391 Mg378 2.010 . S
O391 C383 1.249 . S
Mg392 O393 2.028 . S
Mg392 O399 1.986 . S
Mg392 O401 2.114 . S
Mg392 O402 2.251 . S
Mg392 O405 2.010 . S
O393 Mg392 2.028 . S
O393 C396 1.250 . S
O394 Mg395 2.028 . S
O394 C396 1.248 . S
Mg395 O394 2.028 . S
Mg395 O400 2.032 . S
Mg395 O402 2.079 . S
C396 O393 1.250 . S
C396 O394 1.248 . S
C397 O398 1.264 1_455 S
C397 O405 1.249 . S
O398 C397 1.264 1_655 S
O399 Mg392 1.986 . S
O399 C403 1.246 . S
O400 Mg395 2.032 . S
O400 C403 1.259 . S
O401 Mg392 2.114 . S
O401 C404 1.252 . S
O402 Mg392 2.251 . S
O402 Mg395 2.079 . S
O402 C404 1.273 . S
C403 O399 1.246 . S
C403 O400 1.259 . S
C404 O401 1.252 . S
C404 O402 1.273 . S
O405 Mg392 2.010 . S
O405 C397 1.249 . S
Mg406 O407 2.028 . S
Mg406 O413 1.986 . S
Mg406 O415 2.114 . S
Mg406 O416 2.251 . S
Mg406 O419 2.010 . S
O407 Mg406 2.028 . S
O407 C410 1.250 . S
O408 Mg409 2.028 . S
O408 C410 1.248 . S
Mg409 O408 2.028 . S
Mg409 O414 2.032 . S
Mg409 O416 2.079 . S
C410 O407 1.250 . S
C410 O408 1.248 . S
C411 O412 1.264 . S
C411 O419 1.249 . S
O412 C411 1.264 . S
O413 Mg406 1.986 . S
O413 C417 1.246 . S
O414 Mg409 2.032 . S
O414 C417 1.259 . S
O415 Mg406 2.114 . S
O415 C418 1.252 . S
O416 Mg406 2.251 . S
O416 Mg409 2.079 . S
O416 C418 1.273 . S
C417 O413 1.246 . S
C417 O414 1.259 . S
C418 O415 1.252 . S
C418 O416 1.273 . S
O419 Mg406 2.010 . S
O419 C411 1.249 . S
Mg420 O421 2.028 . S
Mg420 O427 1.986 . S
Mg420 O429 2.114 . S
Mg420 O430 2.251 . S
Mg420 O433 2.010 . S
O421 Mg420 2.028 . S
O421 C424 1.250 . S
O422 Mg423 2.028 . S
O422 C424 1.248 . S
Mg423 O422 2.028 . S
Mg423 O428 2.032 . S
Mg423 O430 2.079 . S
C424 O421 1.250 . S
C424 O422 1.248 . S
C425 O426 1.264 . S
C425 O433 1.249 . S
O426 C425 1.264 . S
O427 Mg420 1.986 . S
O427 C431 1.246 . S
O428 Mg423 2.032 . S
O428 C431 1.259 . S
O429 Mg420 2.114 . S
O429 C432 1.252 . S
O430 Mg420 2.251 . S
O430 Mg423 2.079 . S
O430 C432 1.273 . S
C431 O427 1.246 . S
C431 O428 1.259 . S
C432 O429 1.252 . S
C432 O430 1.273 . S
O433 Mg420 2.010 . S
O433 C425 1.249 . S
Mg434 O435 2.028 . S
Mg434 O441 1.986 . S
Mg434 O443 2.114 . S
Mg434 O444 2.251 . S
Mg434 O447 2.010 . S
O435 Mg434 2.028 . S
O435 C438 1.250 . S
O436 Mg437 2.028 . S
O436 C438 1.248 . S
Mg437 O436 2.028 . S
Mg437 O442 2.032 . S
Mg437 O444 2.079 . S
C438 O435 1.250 . S
C438 O436 1.248 . S
C439 O440 1.264 . S
C439 O447 1.249 . S
O440 C439 1.264 . S
O441 Mg434 1.986 . S
O441 C445 1.246 . S
O442 Mg437 2.032 . S
O442 C445 1.259 . S
O443 Mg434 2.114 . S
O443 C446 1.252 . S
O444 Mg434 2.251 . S
O444 Mg437 2.079 . S
O444 C446 1.273 . S
C445 O441 1.246 . S
C445 O442 1.259 . S
C446 O443 1.252 . S
C446 O444 1.273 . S
O447 Mg434 2.010 . S
O447 C439 1.249 . S
H448 C456 0.929 . S
H449 C458 0.930 . S
H450 C460 0.930 . S
H451 C463 0.929 . S
H452 C466 0.930 . S
H453 C468 0.960 . S
H454 C468 0.960 . S
H455 C468 0.960 . S
C456 H448 0.929 . S
C456 C457 1.377 . S
C456 C458 1.384 . S
C457 C456 1.377 . S
C457 C463 1.390 . S
C458 H449 0.930 . S
C458 C456 1.384 . S
C458 C459 1.372 . S
C459 C458 1.372 . S
C459 C460 1.400 . S
C459 C464 1.490 . S
C460 H450 0.930 . S
C460 C459 1.400 . S
C460 C463 1.386 . S
H461 C477 0.930 . S
H462 C478 0.931 1_565 S
C463 H451 0.929 . S
C463 C457 1.390 . S
C463 C460 1.386 . S
C464 C459 1.490 . S
C464 C466 1.395 . S
C464 C467 1.403 1_565 S
H465 C471 0.930 . S
C466 H452 0.930 . S
C466 C464 1.395 . S
C466 C469 1.403 . S
C467 C464 1.403 1_545 S
C467 C468 1.524 . S
C467 C471 1.400 . S
C468 H453 0.960 . S
C468 H454 0.960 . S
C468 H455 0.960 . S
C468 C467 1.524 . S
C469 C466 1.403 . S
C469 C470 1.358 1_565 S
C469 C473 1.495 . S
C470 C469 1.358 1_545 S
C470 C471 1.415 . S
C470 C472 1.485 . S
C471 H465 0.930 . S
C471 C467 1.400 . S
C471 C470 1.415 . S
C472 C470 1.485 . S
C472 C474 1.381 . S
C472 C478 1.383 . S
C473 C469 1.495 . S
C473 H479 0.959 . S
C473 H480 0.961 . S
C473 H481 0.960 . S
C474 C472 1.381 . S
C474 C475 1.394 . S
C474 H482 0.930 . S
C475 C474 1.394 . S
C475 C476 1.383 . S
C475 H483 0.929 . S
C476 C475 1.383 . S
C476 C477 1.377 . S
C477 H461 0.930 . S
C477 C476 1.377 . S
C477 C478 1.379 . S
C478 H462 0.931 1_545 S
C478 C472 1.383 . S
C478 C477 1.379 . S
H479 C473 0.959 . S
H480 C473 0.961 . S
H481 C473 0.960 . S
H482 C474 0.930 . S
H483 C475 0.929 . S
H484 C492 0.929 . S
H485 C494 0.930 . S
H486 C496 0.930 . S
H487 C499 0.929 . S
H488 C502 0.930 . S
H489 C504 0.960 . S
H490 C504 0.960 . S
H491 C504 0.960 . S
C492 H484 0.929 . S
C492 C493 1.377 . S
C492 C494 1.384 . S
C493 C492 1.377 . S
C493 C499 1.390 . S
C494 H485 0.930 . S
C494 C492 1.384 . S
C494 C495 1.372 . S
C495 C494 1.372 . S
C495 C496 1.400 . S
C495 C500 1.490 . S
C496 H486 0.930 . S
C496 C495 1.400 . S
C496 C499 1.386 . S
H497 C513 0.930 . S
H498 C514 0.931 . S
C499 H487 0.929 . S
C499 C493 1.390 . S
C499 C496 1.386 . S
C500 C495 1.490 . S
C500 C502 1.395 . S
C500 C503 1.403 . S
H501 C507 0.930 . S
C502 H488 0.930 . S
C502 C500 1.395 . S
C502 C505 1.403 . S
C503 C500 1.403 . S
C503 C504 1.524 . S
C503 C507 1.400 . S
C504 H489 0.960 . S
C504 H490 0.960 . S
C504 H491 0.960 . S
C504 C503 1.524 . S
C505 C502 1.403 . S
C505 C506 1.392 . S
C505 C509 1.495 . S
C506 C505 1.392 . S
C506 C507 1.385 . S
C506 C508 1.478 . S
C507 H501 0.930 . S
C507 C503 1.400 . S
C507 C506 1.385 . S
C508 C506 1.478 . S
C508 C510 1.381 . S
C508 C514 1.383 . S
C509 C505 1.495 . S
C509 H515 0.959 . S
C509 H516 0.961 . S
C509 H517 0.960 . S
C510 C508 1.381 . S
C510 C511 1.394 . S
C510 H518 0.930 . S
C511 C510 1.394 . S
C511 C512 1.383 . S
C511 H519 0.929 . S
C512 C511 1.383 . S
C512 C513 1.377 . S
C513 H497 0.930 . S
C513 C512 1.377 . S
C513 C514 1.379 . S
C514 H498 0.931 . S
C514 C508 1.383 . S
C514 C513 1.379 . S
H515 C509 0.959 . S
H516 C509 0.961 . S
H517 C509 0.960 . S
H518 C510 0.930 . S
H519 C511 0.929 . S
H520 C528 0.929 . S
H521 C530 0.930 . S
H522 C532 0.930 . S
H523 C535 0.910 1_565 S
H524 C538 0.930 . S
H525 C540 0.960 . S
H526 C540 0.960 . S
H527 C540 0.960 . S
C528 H520 0.929 . S
C528 C529 1.377 . S
C528 C530 1.384 . S
C529 C528 1.377 . S
C529 C535 1.415 . S
C530 H521 0.930 . S
C530 C528 1.384 . S
C530 C531 1.372 . S
C531 C530 1.372 . S
C531 C532 1.400 1_545 S
C531 C536 1.490 . S
C532 H522 0.930 . S
C532 C531 1.400 1_565 S
C532 C535 1.381 1_565 S
H533 C549 0.930 . S
H534 C550 0.931 . S
C535 H523 0.910 1_545 S
C535 C529 1.415 . S
C535 C532 1.381 1_545 S
C536 C531 1.490 . S
C536 C538 1.395 1_545 S
C536 C539 1.403 . S
H537 C543 0.930 . S
C538 H524 0.930 . S
C538 C536 1.395 1_565 S
C538 C541 1.403 . S
C539 C536 1.403 . S
C539 C540 1.524 . S
C539 C543 1.400 . S
C540 H525 0.960 . S
C540 H526 0.960 . S
C540 H527 0.960 . S
C540 C539 1.524 . S
C541 C538 1.403 . S
C541 C542 1.392 . S
C541 C545 1.495 . S
C542 C541 1.392 . S
C542 C543 1.385 1_565 S
C542 C544 1.478 . S
C543 H537 0.930 . S
C543 C539 1.400 . S
C543 C542 1.385 1_545 S
C544 C542 1.478 . S
C544 C546 1.381 1_565 S
C544 C550 1.383 . S
C545 C541 1.495 . S
C545 H551 0.959 . S
C545 H552 0.961 . S
C545 H553 0.960 . S
C546 C544 1.381 1_545 S
C546 C547 1.397 . S
C546 H554 0.930 . S
C547 C546 1.397 . S
C547 C548 1.371 1_545 S
C547 H555 0.939 . S
C548 C547 1.371 1_565 S
C548 C549 1.377 . S
C549 H533 0.930 . S
C549 C548 1.377 . S
C549 C550 1.379 . S
C550 H534 0.931 . S
C550 C544 1.383 . S
C550 C549 1.379 . S
H551 C545 0.959 . S
H552 C545 0.961 . S
H553 C545 0.960 . S
H554 C546 0.930 . S
H555 C547 0.939 . S
H556 C564 0.929 . S
H557 C566 0.930 . S
H558 C568 0.930 . S
H559 C571 0.929 . S
H560 C574 0.930 . S
H561 C576 0.960 . S
H562 C576 0.960 . S
H563 C576 0.960 . S
C564 H556 0.929 . S
C564 C565 1.377 . S
C564 C566 1.384 . S
C565 C564 1.377 . S
C565 C571 1.390 . S
C566 H557 0.930 . S
C566 C564 1.384 . S
C566 C567 1.372 . S
C567 C566 1.372 . S
C567 C568 1.400 . S
C567 C572 1.490 . S
C568 H558 0.930 . S
C568 C567 1.400 . S
C568 C571 1.386 . S
H569 C585 0.930 . S
H570 C586 0.931 . S
C571 H559 0.929 . S
C571 C565 1.390 . S
C571 C568 1.386 . S
C572 C567 1.490 . S
C572 C574 1.395 . S
C572 C575 1.403 . S
H573 C579 0.930 . S
C574 H560 0.930 . S
C574 C572 1.395 . S
C574 C577 1.403 1_556 S
C575 C572 1.403 . S
C575 C576 1.524 . S
C575 C579 1.400 1_556 S
C576 H561 0.960 . S
C576 H562 0.960 . S
C576 H563 0.960 . S
C576 C575 1.524 . S
C577 C574 1.403 1_554 S
C577 C578 1.392 . S
C577 C581 1.495 . S
C578 C577 1.392 . S
C578 C579 1.385 . S
C578 C580 1.478 . S
C579 H573 0.930 . S
C579 C575 1.400 1_554 S
C579 C578 1.385 . S
C580 C578 1.478 . S
C580 C582 1.381 . S
C580 C586 1.383 . S
C581 C577 1.495 . S
C581 H587 0.959 . S
C581 H588 0.961 . S
C581 H589 0.960 . S
C582 C580 1.381 . S
C582 C583 1.394 . S
C582 H590 0.930 . S
C583 C582 1.394 . S
C583 C584 1.383 . S
C583 H591 0.929 . S
C584 C583 1.383 . S
C584 C585 1.377 . S
C585 H569 0.930 . S
C585 C584 1.377 . S
C585 C586 1.379 . S
C586 H570 0.931 . S
C586 C580 1.383 . S
C586 C585 1.379 . S
H587 C581 0.959 . S
H588 C581 0.961 . S
H589 C581 0.960 . S
H590 C582 0.930 . S
H591 C583 0.929 . S
H592 C600 0.929 . S
H593 C602 0.930 . S
H594 C604 0.930 . S
H595 C607 0.929 . S
H596 C610 0.930 . S
H597 C612 0.960 . S
H598 C612 0.960 . S
H599 C612 0.960 . S
C600 H592 0.929 . S
C600 C601 1.377 . S
C600 C602 1.384 . S
C601 C600 1.377 . S
C601 C607 1.390 1_565 S
C602 H593 0.930 . S
C602 C600 1.384 . S
C602 C603 1.372 . S
C603 C602 1.372 . S
C603 C604 1.400 1_565 S
C603 C608 1.490 . S
C604 H594 0.930 . S
C604 C603 1.400 1_545 S
C604 C607 1.386 . S
H605 C621 0.930 . S
H606 C622 0.931 . S
C607 H595 0.929 . S
C607 C601 1.390 1_545 S
C607 C604 1.386 . S
C608 C603 1.490 . S
C608 C610 1.395 . S
C608 C611 1.403 1_565 S
H609 C615 0.930 . S
C610 H596 0.930 . S
C610 C608 1.395 . S
C610 C613 1.403 . S
C611 C608 1.403 1_545 S
C611 C612 1.524 . S
C611 C615 1.400 . S
C612 H597 0.960 . S
C612 H598 0.960 . S
C612 H599 0.960 . S
C612 C611 1.524 . S
C613 C610 1.403 . S
C613 C614 1.395 . S
C613 C617 1.495 . S
C614 C613 1.395 . S
C614 C615 1.383 1_565 S
C614 C616 1.477 1_565 S
C615 H609 0.930 . S
C615 C611 1.400 . S
C615 C614 1.383 1_545 S
C616 C614 1.477 1_545 S
C616 C618 1.381 1_545 S
C616 C622 1.383 . S
C617 C613 1.495 . S
C617 H623 0.959 . S
C617 H624 0.961 . S
C617 H625 0.960 . S
C618 C616 1.381 1_565 S
C618 C619 1.394 . S
C618 H626 0.930 . S
C619 C618 1.394 . S
C619 C620 1.383 1_565 S
C619 H627 0.929 . S
C620 C619 1.383 1_545 S
C620 C621 1.377 . S
C621 H605 0.930 . S
C621 C620 1.377 . S
C621 C622 1.379 . S
C622 H606 0.931 . S
C622 C616 1.383 . S
C622 C621 1.379 . S
H623 C617 0.959 . S
H624 C617 0.961 . S
H625 C617 0.960 . S
H626 C618 0.930 . S
H627 C619 0.929 . S
H628 C636 0.929 . S
H629 C638 0.930 . S
H630 C640 0.930 . S
H631 C643 0.929 . S
H632 C646 0.930 . S
H633 C648 0.960 . S
H634 C648 0.960 . S
H635 C648 0.960 . S
C636 H628 0.929 . S
C636 C637 1.377 . S
C636 C638 1.384 . S
C637 C636 1.377 . S
C637 C643 1.390 . S
C638 H629 0.930 . S
C638 C636 1.384 . S
C638 C639 1.372 . S
C639 C638 1.372 . S
C639 C640 1.400 . S
C639 C644 1.490 . S
C640 H630 0.930 . S
C640 C639 1.400 . S
C640 C643 1.386 . S
H641 C657 0.930 . S
H642 C658 0.931 . S
C643 H631 0.929 . S
C643 C637 1.390 . S
C643 C640 1.386 . S
C644 C639 1.490 . S
C644 C646 1.395 . S
C644 C647 1.403 . S
H645 C651 0.930 . S
C646 H632 0.930 . S
C646 C644 1.395 . S
C646 C649 1.403 . S
C647 C644 1.403 . S
C647 C648 1.524 . S
C647 C651 1.400 . S
C648 H633 0.960 . S
C648 H634 0.960 . S
C648 H635 0.960 . S
C648 C647 1.524 . S
C649 C646 1.403 . S
C649 C650 1.392 . S
C649 C653 1.495 . S
C650 C649 1.392 . S
C650 C651 1.385 . S
C650 C652 1.478 . S
C651 H645 0.930 . S
C651 C647 1.400 . S
C651 C650 1.385 . S
C652 C650 1.478 . S
C652 C654 1.381 . S
C652 C658 1.383 . S
C653 C649 1.495 . S
C653 H659 0.959 . S
C653 H660 0.961 . S
C653 H661 0.960 . S
C654 C652 1.381 . S
C654 C655 1.394 . S
C654 H662 0.930 . S
C655 C654 1.394 . S
C655 C656 1.383 . S
C655 H663 0.929 . S
C656 C655 1.383 . S
C656 C657 1.377 . S
C657 H641 0.930 . S
C657 C656 1.377 . S
C657 C658 1.379 . S
C658 H642 0.931 . S
C658 C652 1.383 . S
C658 C657 1.379 . S
H659 C653 0.959 . S
H660 C653 0.961 . S
H661 C653 0.960 . S
H662 C654 0.930 . S
H663 C655 0.929 . S
H664 C672 0.929 . S
H665 C674 0.930 1_565 S
H666 C676 0.930 . S
H667 C679 0.929 . S
H668 C682 0.930 . S
H669 C684 0.960 . S
H670 C684 0.960 . S
H671 C684 0.960 . S
C672 H664 0.929 . S
C672 C673 1.377 . S
C672 C674 1.384 . S
C673 C672 1.377 . S
C673 C679 1.390 . S
C674 H665 0.930 1_545 S
C674 C672 1.384 . S
C674 C675 1.372 . S
C675 C674 1.372 . S
C675 C676 1.400 . S
C675 C680 1.490 . S
C676 H666 0.930 . S
C676 C675 1.400 . S
C676 C679 1.386 . S
H677 C693 0.930 . S
H678 C694 0.931 . S
C679 H667 0.929 . S
C679 C673 1.390 . S
C679 C676 1.386 . S
C680 C675 1.490 . S
C680 C682 1.395 1_545 S
C680 C683 1.403 . S
H681 C687 0.930 . S
C682 H668 0.930 . S
C682 C680 1.395 1_565 S
C682 C685 1.403 . S
C683 C680 1.403 . S
C683 C684 1.524 . S
C683 C687 1.400 . S
C684 H669 0.960 . S
C684 H670 0.960 . S
C684 H671 0.960 . S
C684 C683 1.524 . S
C685 C682 1.403 . S
C685 C686 1.392 . S
C685 C689 1.495 . S
C686 C685 1.392 . S
C686 C687 1.385 1_565 S
C686 C688 1.478 . S
C687 H681 0.930 . S
C687 C683 1.400 . S
C687 C686 1.385 1_545 S
C688 C686 1.478 . S
C688 C690 1.381 . S
C688 C694 1.383 . S
C689 C685 1.495 . S
C689 H695 0.959 . S
C689 H696 0.961 . S
C689 H697 0.960 . S
C690 C688 1.381 . S
C690 C691 1.394 . S
C690 H698 0.930 . S
C691 C690 1.394 . S
C691 C692 1.383 . S
C691 H699 0.929 . S
C692 C691 1.383 . S
C692 C693 1.377 . S
C693 H677 0.930 . S
C693 C692 1.377 . S
C693 C694 1.379 . S
C694 H678 0.931 . S
C694 C688 1.383 . S
C694 C693 1.379 . S
H695 C689 0.959 . S
H696 C689 0.961 . S
H697 C689 0.960 . S
H698 C690 0.930 . S
H699 C691 0.929 . S
H700 C708 0.929 . S
H701 C710 0.930 . S
H702 C712 0.930 . S
H703 C715 0.929 . S
H704 C718 0.930 . S
H705 C720 0.960 . S
H706 C720 0.960 . S
H707 C720 0.960 . S
C708 H700 0.929 . S
C708 C709 1.377 . S
C708 C710 1.384 . S
C709 C708 1.377 . S
C709 C715 1.390 . S
C710 H701 0.930 . S
C710 C708 1.384 . S
C710 C711 1.372 . S
C711 C710 1.372 . S
C711 C712 1.400 . S
C711 C716 1.490 . S
C712 H702 0.930 . S
C712 C711 1.400 . S
C712 C715 1.386 . S
H713 C729 0.930 . S
H714 C730 0.931 . S
C715 H703 0.929 . S
C715 C709 1.390 . S
C715 C712 1.386 . S
C716 C711 1.490 . S
C716 C718 1.395 . S
C716 C719 1.403 . S
H717 C723 0.930 . S
C718 H704 0.930 . S
C718 C716 1.395 . S
C718 C721 1.403 1_556 S
C719 C716 1.403 . S
C719 C720 1.524 . S
C719 C723 1.400 1_556 S
C720 H705 0.960 . S
C720 H706 0.960 . S
C720 H707 0.960 . S
C720 C719 1.524 . S
C721 C718 1.403 1_554 S
C721 C722 1.392 . S
C721 C725 1.495 . S
C722 C721 1.392 . S
C722 C723 1.385 . S
C722 C724 1.478 . S
C723 H717 0.930 . S
C723 C719 1.400 1_554 S
C723 C722 1.385 . S
C724 C722 1.478 . S
C724 C726 1.381 . S
C724 C730 1.383 . S
C725 C721 1.495 . S
C725 H731 0.959 . S
C725 H732 0.961 . S
C725 H733 0.960 . S
C726 C724 1.381 . S
C726 C727 1.394 . S
C726 H734 0.930 . S
C727 C726 1.394 . S
C727 C728 1.383 . S
C727 H735 0.929 . S
C728 C727 1.383 . S
C728 C729 1.377 . S
C729 H713 0.930 . S
C729 C728 1.377 . S
C729 C730 1.379 . S
C730 H714 0.931 . S
C730 C724 1.383 . S
C730 C729 1.379 . S
H731 C725 0.959 . S
H732 C725 0.961 . S
H733 C725 0.960 . S
H734 C726 0.930 . S
H735 C727 0.929 . S
H736 C744 0.929 . S
H737 C746 0.930 . S
H738 C748 0.930 . S
H739 C751 0.929 . S
H740 C754 0.930 . S
H741 C756 0.960 . S
H742 C756 0.960 . S
H743 C756 0.960 . S
C744 H736 0.929 . S
C744 C745 1.377 . S
C744 C746 1.384 . S
C745 C744 1.377 . S
C745 C751 1.390 . S
C746 H737 0.930 . S
C746 C744 1.384 . S
C746 C747 1.372 . S
C747 C746 1.372 . S
C747 C748 1.400 . S
C747 C752 1.490 . S
C748 H738 0.930 . S
C748 C747 1.400 . S
C748 C751 1.386 . S
H749 C765 0.930 . S
H750 C766 0.931 . S
C751 H739 0.929 . S
C751 C745 1.390 . S
C751 C748 1.386 . S
C752 C747 1.490 . S
C752 C754 1.395 . S
C752 C755 1.403 . S
H753 C759 0.930 . S
C754 H740 0.930 . S
C754 C752 1.395 . S
C754 C757 1.403 . S
C755 C752 1.403 . S
C755 C756 1.524 . S
C755 C759 1.400 . S
C756 H741 0.960 . S
C756 H742 0.960 . S
C756 H743 0.960 . S
C756 C755 1.524 . S
C757 C754 1.403 . S
C757 C758 1.392 . S
C757 C761 1.495 . S
C758 C757 1.392 . S
C758 C759 1.385 . S
C758 C760 1.478 . S
C759 H753 0.930 . S
C759 C755 1.400 . S
C759 C758 1.385 . S
C760 C758 1.478 . S
C760 C762 1.381 . S
C760 C766 1.383 . S
C761 C757 1.495 . S
C761 H767 0.959 . S
C761 H768 0.961 . S
C761 H769 0.960 . S
C762 C760 1.381 . S
C762 C763 1.394 . S
C762 H770 0.930 . S
C763 C762 1.394 . S
C763 C764 1.383 . S
C763 H771 0.929 . S
C764 C763 1.383 . S
C764 C765 1.377 . S
C765 H749 0.930 . S
C765 C764 1.377 . S
C765 C766 1.379 . S
C766 H750 0.931 . S
C766 C760 1.383 . S
C766 C765 1.379 . S
H767 C761 0.959 . S
H768 C761 0.961 . S
H769 C761 0.960 . S
H770 C762 0.930 . S
H771 C763 0.929 . S
H772 C780 0.929 . S
H773 C782 0.930 . S
H774 C784 0.930 . S
H775 C787 0.929 . S
H776 C790 0.930 . S
H777 C792 0.960 . S
H778 C792 0.960 . S
H779 C792 0.960 . S
C780 H772 0.929 . S
C780 C781 1.377 . S
C780 C782 1.384 . S
C781 C780 1.377 . S
C781 C787 1.390 . S
C782 H773 0.930 . S
C782 C780 1.384 . S
C782 C783 1.372 . S
C783 C782 1.372 . S
C783 C784 1.400 . S
C783 C788 1.490 . S
C784 H774 0.930 . S
C784 C783 1.400 . S
C784 C787 1.386 . S
H785 C801 0.930 . S
H786 C802 0.931 . S
C787 H775 0.929 . S
C787 C781 1.390 . S
C787 C784 1.386 . S
C788 C783 1.490 . S
C788 C790 1.395 . S
C788 C791 1.403 . S
H789 C795 0.930 . S
C790 H776 0.930 . S
C790 C788 1.395 . S
C790 C793 1.403 1_554 S
C791 C788 1.403 . S
C791 C792 1.524 . S
C791 C795 1.400 1_554 S
C792 H777 0.960 . S
C792 H778 0.960 . S
C792 H779 0.960 . S
C792 C791 1.524 . S
C793 C790 1.403 1_556 S
C793 C794 1.392 . S
C793 C797 1.495 . S
C794 C793 1.392 . S
C794 C795 1.385 . S
C794 C796 1.478 . S
C795 H789 0.930 . S
C795 C791 1.400 1_556 S
C795 C794 1.385 . S
C796 C794 1.478 . S
C796 C798 1.381 . S
C796 C802 1.383 . S
C797 C793 1.495 . S
C797 H803 0.959 . S
C797 H804 0.961 . S
C797 H805 0.960 . S
C798 C796 1.381 . S
C798 C799 1.394 . S
C798 H806 0.930 . S
C799 C798 1.394 . S
C799 C800 1.383 . S
C799 H807 0.929 . S
C800 C799 1.383 . S
C800 C801 1.377 . S
C801 H785 0.930 . S
C801 C800 1.377 . S
C801 C802 1.379 . S
C802 H786 0.931 . S
C802 C796 1.383 . S
C802 C801 1.379 . S
H803 C797 0.959 . S
H804 C797 0.961 . S
H805 C797 0.960 . S
H806 C798 0.930 . S
H807 C799 0.929 . S
H808 C816 0.929 . S
H809 C818 0.930 . S
H810 C820 0.930 . S
H811 C823 0.929 . S
H812 C826 0.930 . S
H813 C828 0.960 . S
H814 C828 0.960 . S
H815 C828 0.960 . S
C816 H808 0.929 . S
C816 C817 1.377 . S
C816 C818 1.384 . S
C817 C816 1.377 . S
C817 C823 1.390 . S
C818 H809 0.930 . S
C818 C816 1.384 . S
C818 C819 1.372 . S
C819 C818 1.372 . S
C819 C820 1.400 . S
C819 C824 1.490 . S
C820 H810 0.930 . S
C820 C819 1.400 . S
C820 C823 1.386 . S
H821 C837 0.930 . S
H822 C838 0.931 . S
C823 H811 0.929 . S
C823 C817 1.390 . S
C823 C820 1.386 . S
C824 C819 1.490 . S
C824 C826 1.395 . S
C824 C827 1.403 . S
H825 C831 0.930 . S
C826 H812 0.930 . S
C826 C824 1.395 . S
C826 C829 1.403 . S
C827 C824 1.403 . S
C827 C828 1.524 . S
C827 C831 1.400 . S
C828 H813 0.960 . S
C828 H814 0.960 . S
C828 H815 0.960 . S
C828 C827 1.524 . S
C829 C826 1.403 . S
C829 C830 1.392 . S
C829 C833 1.495 . S
C830 C829 1.392 . S
C830 C831 1.385 . S
C830 C832 1.478 . S
C831 H825 0.930 . S
C831 C827 1.400 . S
C831 C830 1.385 . S
C832 C830 1.478 . S
C832 C834 1.381 . S
C832 C838 1.383 . S
C833 C829 1.495 . S
C833 H839 0.959 . S
C833 H840 0.961 . S
C833 H841 0.960 . S
C834 C832 1.381 . S
C834 C835 1.394 . S
C834 H842 0.930 . S
C835 C834 1.394 . S
C835 C836 1.383 . S
C835 H843 0.929 . S
C836 C835 1.383 . S
C836 C837 1.377 . S
C837 H821 0.930 . S
C837 C836 1.377 . S
C837 C838 1.379 . S
C838 H822 0.931 . S
C838 C832 1.383 . S
C838 C837 1.379 . S
H839 C833 0.959 . S
H840 C833 0.961 . S
H841 C833 0.960 . S
H842 C834 0.930 . S
H843 C835 0.929 . S
H844 C852 0.929 . S
H845 C854 0.930 . S
H846 C856 0.930 . S
H847 C859 0.929 . S
H848 C862 0.930 . S
H849 C864 0.960 . S
H850 C864 0.960 . S
H851 C864 0.960 . S
C852 H844 0.929 . S
C852 C853 1.377 . S
C852 C854 1.384 . S
C853 C852 1.377 . S
C853 C859 1.390 . S
C854 H845 0.930 . S
C854 C852 1.384 . S
C854 C855 1.372 . S
C855 C854 1.372 . S
C855 C856 1.400 . S
C855 C860 1.490 . S
C856 H846 0.930 . S
C856 C855 1.400 . S
C856 C859 1.386 . S
H857 C873 0.930 . S
H858 C874 0.931 . S
C859 H847 0.929 . S
C859 C853 1.390 . S
C859 C856 1.386 . S
C860 C855 1.490 . S
C860 C862 1.395 . S
C860 C863 1.403 . S
H861 C867 0.930 . S
C862 H848 0.930 . S
C862 C860 1.395 . S
C862 C865 1.403 . S
C863 C860 1.403 . S
C863 C864 1.524 . S
C863 C867 1.400 . S
C864 H849 0.960 . S
C864 H850 0.960 . S
C864 H851 0.960 . S
C864 C863 1.524 . S
C865 C862 1.403 . S
C865 C866 1.392 . S
C865 C869 1.495 . S
C866 C865 1.392 . S
C866 C867 1.385 . S
C866 C868 1.478 . S
C867 H861 0.930 . S
C867 C863 1.400 . S
C867 C866 1.385 . S
C868 C866 1.478 . S
C868 C870 1.381 . S
C868 C874 1.383 . S
C869 C865 1.495 . S
C869 H875 0.959 . S
C869 H876 0.961 . S
C869 H877 0.960 . S
C870 C868 1.381 . S
C870 C871 1.394 . S
C870 H878 0.930 . S
C871 C870 1.394 . S
C871 C872 1.383 . S
C871 H879 0.929 . S
C872 C871 1.383 . S
C872 C873 1.377 . S
C873 H857 0.930 . S
C873 C872 1.377 . S
C873 C874 1.379 . S
C874 H858 0.931 . S
C874 C868 1.383 . S
C874 C873 1.379 . S
H875 C869 0.959 . S
H876 C869 0.961 . S
H877 C869 0.960 . S
H878 C870 0.930 . S
H879 C871 0.929 . S
H880 C888 0.929 . S
H881 C890 0.930 . S
H882 C892 0.930 . S
H883 C895 0.929 . S
H884 C898 0.930 . S
H885 C900 0.960 . S
H886 C900 0.960 . S
H887 C900 0.960 . S
C888 H880 0.929 . S
C888 C889 1.377 . S
C888 C890 1.384 . S
C889 C888 1.377 . S
C889 C895 1.390 . S
C890 H881 0.930 . S
C890 C888 1.384 . S
C890 C891 1.372 . S
C891 C890 1.372 . S
C891 C892 1.400 . S
C891 C896 1.490 . S
C892 H882 0.930 . S
C892 C891 1.400 . S
C892 C895 1.386 . S
H893 C909 0.930 . S
H894 C910 0.931 . S
C895 H883 0.929 . S
C895 C889 1.390 . S
C895 C892 1.386 . S
C896 C891 1.490 . S
C896 C898 1.395 . S
C896 C899 1.403 . S
H897 C903 0.930 . S
C898 H884 0.930 . S
C898 C896 1.395 . S
C898 C901 1.403 . S
C899 C896 1.403 . S
C899 C900 1.524 . S
C899 C903 1.400 . S
C900 H885 0.960 . S
C900 H886 0.960 . S
C900 H887 0.960 . S
C900 C899 1.524 . S
C901 C898 1.403 . S
C901 C902 1.392 . S
C901 C905 1.495 . S
C902 C901 1.392 . S
C902 C903 1.385 . S
C902 C904 1.478 . S
C903 H897 0.930 . S
C903 C899 1.400 . S
C903 C902 1.385 . S
C904 C902 1.478 . S
C904 C906 1.381 . S
C904 C910 1.383 . S
C905 C901 1.495 . S
C905 H911 0.959 . S
C905 H912 0.961 . S
C905 H913 0.960 . S
C906 C904 1.381 . S
C906 C907 1.394 . S
C906 H914 0.930 . S
C907 C906 1.394 . S
C907 C908 1.383 . S
C907 H915 0.929 . S
C908 C907 1.383 . S
C908 C909 1.377 . S
C909 H893 0.930 . S
C909 C908 1.377 . S
C909 C910 1.379 . S
C910 H894 0.931 . S
C910 C904 1.383 . S
C910 C909 1.379 . S
H911 C905 0.959 . S
H912 C905 0.961 . S
H913 C905 0.960 . S
H914 C906 0.930 . S
H915 C907 0.929 . S
H916 C924 0.929 . S
H917 C926 0.930 . S
H918 C928 0.930 . S
H919 C931 0.929 . S
H920 C934 0.930 . S
H921 C936 0.960 . S
H922 C936 0.960 . S
H923 C936 0.960 . S
C924 H916 0.929 . S
C924 C925 1.377 . S
C924 C926 1.384 . S
C925 C924 1.377 . S
C925 C931 1.390 . S
C926 H917 0.930 . S
C926 C924 1.384 . S
C926 C927 1.372 . S
C927 C926 1.372 . S
C927 C928 1.400 . S
C927 C932 1.490 . S
C928 H918 0.930 . S
C928 C927 1.400 . S
C928 C931 1.386 . S
H929 C945 0.930 . S
H930 C946 0.931 . S
C931 H919 0.929 . S
C931 C925 1.390 . S
C931 C928 1.386 . S
C932 C927 1.490 . S
C932 C934 1.395 . S
C932 C935 1.403 . S
H933 C939 0.930 . S
C934 H920 0.930 . S
C934 C932 1.395 . S
C934 C937 1.403 1_554 S
C935 C932 1.403 . S
C935 C936 1.524 . S
C935 C939 1.400 1_554 S
C936 H921 0.960 . S
C936 H922 0.960 . S
C936 H923 0.960 . S
C936 C935 1.524 . S
C937 C934 1.403 1_556 S
C937 C938 1.392 . S
C937 C941 1.495 . S
C938 C937 1.392 . S
C938 C939 1.385 . S
C938 C940 1.478 . S
C939 H933 0.930 . S
C939 C935 1.400 1_556 S
C939 C938 1.385 . S
C940 C938 1.478 . S
C940 C942 1.381 . S
C940 C946 1.383 . S
C941 C937 1.495 . S
C941 H947 0.959 . S
C941 H948 0.961 . S
C941 H949 0.960 . S
C942 C940 1.381 . S
C942 C943 1.394 . S
C942 H950 0.930 . S
C943 C942 1.394 . S
C943 C944 1.383 . S
C943 H951 0.929 . S
C944 C943 1.383 . S
C944 C945 1.377 . S
C945 H929 0.930 . S
C945 C944 1.377 . S
C945 C946 1.379 . S
C946 H930 0.931 . S
C946 C940 1.383 . S
C946 C945 1.379 . S
H947 C941 0.959 . S
H948 C941 0.961 . S
H949 C941 0.960 . S
H950 C942 0.930 . S
H951 C943 0.929 . S
H952 C960 0.929 . S
H953 C962 0.930 . S
H954 C964 0.930 . S
H955 C967 0.929 . S
H956 C970 0.930 . S
H957 C972 0.960 . S
H958 C972 0.960 . S
H959 C972 0.960 . S
C960 H952 0.929 . S
C960 C961 1.377 . S
C960 C962 1.384 . S
C961 C960 1.377 . S
C961 C967 1.390 . S
C962 H953 0.930 . S
C962 C960 1.384 . S
C962 C963 1.372 . S
C963 C962 1.372 . S
C963 C964 1.400 . S
C963 C968 1.490 . S
C964 H954 0.930 . S
C964 C963 1.400 . S
C964 C967 1.386 . S
H965 C981 0.930 . S
H966 C982 0.931 . S
C967 H955 0.929 . S
C967 C961 1.390 . S
C967 C964 1.386 . S
C968 C963 1.490 . S
C968 C970 1.395 . S
C968 C971 1.403 . S
H969 C975 0.930 . S
C970 H956 0.930 . S
C970 C968 1.395 . S
C970 C973 1.403 . S
C971 C968 1.403 . S
C971 C972 1.524 . S
C971 C975 1.400 . S
C972 H957 0.960 . S
C972 H958 0.960 . S
C972 H959 0.960 . S
C972 C971 1.524 . S
C973 C970 1.403 . S
C973 C974 1.392 . S
C973 C977 1.495 . S
C974 C973 1.392 . S
C974 C975 1.385 . S
C974 C976 1.478 . S
C975 H969 0.930 . S
C975 C971 1.400 . S
C975 C974 1.385 . S
C976 C974 1.478 . S
C976 C978 1.381 . S
C976 C982 1.383 . S
C977 C973 1.495 . S
C977 H983 0.959 . S
C977 H984 0.961 . S
C977 H985 0.960 . S
C978 C976 1.381 . S
C978 C979 1.394 . S
C978 H986 0.930 . S
C979 C978 1.394 . S
C979 C980 1.383 . S
C979 H987 0.929 . S
C980 C979 1.383 . S
C980 C981 1.377 . S
C981 H965 0.930 . S
C981 C980 1.377 . S
C981 C982 1.379 . S
C982 H966 0.931 . S
C982 C976 1.383 . S
C982 C981 1.379 . S
H983 C977 0.959 . S
H984 C977 0.961 . S
H985 C977 0.960 . S
H986 C978 0.930 . S
H987 C979 0.929 . S
H988 C996 0.929 . S
H989 C998 0.930 . S
H990 C1000 0.930 . S
H991 C1003 0.929 . S
H992 C1006 0.930 . S
H993 C1008 0.960 . S
H994 C1008 0.960 . S
H995 C1008 0.960 . S
C996 H988 0.929 . S
C996 C997 1.377 . S
C996 C998 1.384 . S
C997 C996 1.377 . S
C997 C1003 1.390 . S
C998 H989 0.930 . S
C998 C996 1.384 . S
C998 C999 1.372 . S
C999 C998 1.372 . S
C999 C1000 1.400 . S
C999 C1004 1.490 . S
C1000 H990 0.930 . S
C1000 C999 1.400 . S
C1000 C1003 1.386 . S
H1001 C1017 0.930 . S
H1002 C1018 0.931 . S
C1003 H991 0.929 . S
C1003 C997 1.390 . S
C1003 C1000 1.386 . S
C1004 C999 1.490 . S
C1004 C1006 1.395 . S
C1004 C1007 1.403 . S
H1005 C1011 0.930 . S
C1006 H992 0.930 . S
C1006 C1004 1.395 . S
C1006 C1009 1.403 . S
C1007 C1004 1.403 . S
C1007 C1008 1.524 . S
C1007 C1011 1.400 . S
C1008 H993 0.960 . S
C1008 H994 0.960 . S
C1008 H995 0.960 . S
C1008 C1007 1.524 . S
C1009 C1006 1.403 . S
C1009 C1010 1.392 . S
C1009 C1013 1.495 . S
C1010 C1009 1.392 . S
C1010 C1011 1.385 . S
C1010 C1012 1.478 . S
C1011 H1005 0.930 . S
C1011 C1007 1.400 . S
C1011 C1010 1.385 . S
C1012 C1010 1.478 . S
C1012 C1014 1.381 . S
C1012 C1018 1.383 . S
C1013 C1009 1.495 . S
C1013 H1019 0.959 . S
C1013 H1020 0.961 . S
C1013 H1021 0.960 . S
C1014 C1012 1.381 . S
C1014 C1015 1.394 . S
C1014 H1022 0.930 . S
C1015 C1014 1.394 . S
C1015 C1016 1.383 . S
C1015 H1023 0.929 . S
C1016 C1015 1.383 . S
C1016 C1017 1.377 . S
C1017 H1001 0.930 . S
C1017 C1016 1.377 . S
C1017 C1018 1.379 . S
C1018 H1002 0.931 . S
C1018 C1012 1.383 . S
C1018 C1017 1.379 . S
H1019 C1013 0.959 . S
H1020 C1013 0.961 . S
H1021 C1013 0.960 . S
H1022 C1014 0.930 . S
H1023 C1015 0.929 . S
H1024 C1032 0.929 . S
H1025 C1034 0.930 . S
H1026 C1036 0.930 . S
H1027 C1039 0.929 1_545 S
H1028 C1042 0.930 . S
H1029 C1044 0.960 . S
H1030 C1044 0.960 . S
H1031 C1044 0.960 . S
C1032 H1024 0.929 . S
C1032 C1033 1.377 . S
C1032 C1034 1.384 . S
C1033 C1032 1.377 . S
C1033 C1039 1.390 . S
C1034 H1025 0.930 . S
C1034 C1032 1.384 . S
C1034 C1035 1.372 . S
C1035 C1034 1.372 . S
C1035 C1036 1.400 . S
C1035 C1040 1.490 . S
C1036 H1026 0.930 . S
C1036 C1035 1.400 . S
C1036 C1039 1.386 . S
H1037 C1053 0.930 . S
H1038 C1054 0.931 . S
C1039 H1027 0.929 1_565 S
C1039 C1033 1.390 . S
C1039 C1036 1.386 . S
C1040 C1035 1.490 . S
C1040 C1042 1.395 . S
C1040 C1043 1.403 . S
H1041 C1047 0.930 . S
C1042 H1028 0.930 . S
C1042 C1040 1.395 . S
C1042 C1045 1.403 . S
C1043 C1040 1.403 . S
C1043 C1044 1.524 . S
C1043 C1047 1.400 . S
C1044 H1029 0.960 . S
C1044 H1030 0.960 . S
C1044 H1031 0.960 . S
C1044 C1043 1.524 . S
C1045 C1042 1.403 . S
C1045 C1046 1.392 . S
C1045 C1049 1.495 . S
C1046 C1045 1.392 . S
C1046 C1047 1.385 . S
C1046 C1048 1.478 . S
C1047 H1041 0.930 . S
C1047 C1043 1.400 . S
C1047 C1046 1.385 . S
C1048 C1046 1.478 . S
C1048 C1050 1.381 . S
C1048 C1054 1.383 . S
C1049 C1045 1.495 . S
C1049 H1055 0.959 . S
C1049 H1056 0.961 . S
C1049 H1057 0.960 . S
C1050 C1048 1.381 . S
C1050 C1051 1.394 . S
C1050 H1058 0.930 . S
C1051 C1050 1.394 . S
C1051 C1052 1.383 . S
C1051 H1059 0.929 . S
C1052 C1051 1.383 . S
C1052 C1053 1.377 . S
C1053 H1037 0.930 . S
C1053 C1052 1.377 . S
C1053 C1054 1.379 . S
C1054 H1038 0.931 . S
C1054 C1048 1.383 . S
C1054 C1053 1.379 . S
H1055 C1049 0.959 . S
H1056 C1049 0.961 . S
H1057 C1049 0.960 . S
H1058 C1050 0.930 . S
H1059 C1051 0.929 . S
H1060 C1068 0.929 . S
H1061 C1070 0.930 . S
H1062 C1072 0.930 . S
H1063 C1075 0.929 . S
H1064 C1078 0.930 . S
H1065 C1080 0.960 . S
H1066 C1080 0.960 . S
H1067 C1080 0.960 . S
C1068 H1060 0.929 . S
C1068 C1069 1.377 . S
C1068 C1070 1.384 . S
C1069 C1068 1.377 . S
C1069 C1075 1.390 . S
C1070 H1061 0.930 . S
C1070 C1068 1.384 . S
C1070 C1071 1.372 . S
C1071 C1070 1.372 . S
C1071 C1072 1.400 . S
C1071 C1076 1.490 . S
C1072 H1062 0.930 . S
C1072 C1071 1.400 . S
C1072 C1075 1.386 . S
H1073 C1089 0.930 . S
H1074 C1090 0.931 . S
C1075 H1063 0.929 . S
C1075 C1069 1.390 . S
C1075 C1072 1.386 . S
C1076 C1071 1.490 . S
C1076 C1078 1.395 . S
C1076 C1079 1.403 . S
H1077 C1083 0.930 . S
C1078 H1064 0.930 . S
C1078 C1076 1.395 . S
C1078 C1081 1.403 . S
C1079 C1076 1.403 . S
C1079 C1080 1.524 . S
C1079 C1083 1.400 . S
C1080 H1065 0.960 . S
C1080 H1066 0.960 . S
C1080 H1067 0.960 . S
C1080 C1079 1.524 . S
C1081 C1078 1.403 . S
C1081 C1082 1.392 . S
C1081 C1085 1.495 . S
C1082 C1081 1.392 . S
C1082 C1083 1.385 . S
C1082 C1084 1.478 . S
C1083 H1077 0.930 . S
C1083 C1079 1.400 . S
C1083 C1082 1.385 . S
C1084 C1082 1.478 . S
C1084 C1086 1.381 . S
C1084 C1090 1.383 . S
C1085 C1081 1.495 . S
C1085 H1091 0.959 . S
C1085 H1092 0.961 . S
C1085 H1093 0.960 . S
C1086 C1084 1.381 . S
C1086 C1087 1.394 . S
C1086 H1094 0.930 . S
C1087 C1086 1.394 . S
C1087 C1088 1.383 . S
C1087 H1095 0.929 . S
C1088 C1087 1.383 . S
C1088 C1089 1.377 . S
C1089 H1073 0.930 . S
C1089 C1088 1.377 . S
C1089 C1090 1.379 . S
C1090 H1074 0.931 . S
C1090 C1084 1.383 . S
C1090 C1089 1.379 . S
H1091 C1085 0.959 . S
H1092 C1085 0.961 . S
H1093 C1085 0.960 . S
H1094 C1086 0.930 . S
H1095 C1087 0.929 . S
H1096 C1104 0.929 . S
H1097 C1106 0.930 . S
H1098 C1108 0.930 . S
H1099 C1111 0.929 . S
H1100 C1114 0.930 . S
H1101 C1116 0.960 . S
H1102 C1116 0.960 . S
H1103 C1116 0.960 . S
C1104 H1096 0.929 . S
C1104 C1105 1.377 . S
C1104 C1106 1.384 . S
C1105 C1104 1.377 . S
C1105 C1111 1.390 . S
C1106 H1097 0.930 . S
C1106 C1104 1.384 . S
C1106 C1107 1.372 . S
C1107 C1106 1.372 . S
C1107 C1108 1.400 . S
C1107 C1112 1.490 . S
C1108 H1098 0.930 . S
C1108 C1107 1.400 . S
C1108 C1111 1.386 . S
H1109 C1125 0.930 . S
H1110 C1126 0.931 . S
C1111 H1099 0.929 . S
C1111 C1105 1.390 . S
C1111 C1108 1.386 . S
C1112 C1107 1.490 . S
C1112 C1114 1.395 . S
C1112 C1115 1.403 . S
H1113 C1119 0.930 . S
C1114 H1100 0.930 . S
C1114 C1112 1.395 . S
C1114 C1117 1.403 . S
C1115 C1112 1.403 . S
C1115 C1116 1.524 . S
C1115 C1119 1.400 . S
C1116 H1101 0.960 . S
C1116 H1102 0.960 . S
C1116 H1103 0.960 . S
C1116 C1115 1.524 . S
C1117 C1114 1.403 . S
C1117 C1118 1.392 . S
C1117 C1121 1.495 . S
C1118 C1117 1.392 . S
C1118 C1119 1.385 . S
C1118 C1120 1.478 . S
C1119 H1113 0.930 . S
C1119 C1115 1.400 . S
C1119 C1118 1.385 . S
C1120 C1118 1.478 . S
C1120 C1122 1.381 . S
C1120 C1126 1.383 . S
C1121 C1117 1.495 . S
C1121 H1127 0.959 . S
C1121 H1128 0.961 . S
C1121 H1129 0.960 . S
C1122 C1120 1.381 . S
C1122 C1123 1.394 . S
C1122 H1130 0.930 . S
C1123 C1122 1.394 . S
C1123 C1124 1.383 . S
C1123 H1131 0.929 . S
C1124 C1123 1.383 . S
C1124 C1125 1.377 . S
C1125 H1109 0.930 . S
C1125 C1124 1.377 . S
C1125 C1126 1.379 . S
C1126 H1110 0.931 . S
C1126 C1120 1.383 . S
C1126 C1125 1.379 . S
H1127 C1121 0.959 . S
H1128 C1121 0.961 . S
H1129 C1121 0.960 . S
H1130 C1122 0.930 . S
H1131 C1123 0.929 . S
H1132 C1140 0.929 . S
H1133 C1142 0.930 . S
H1134 C1144 0.930 . S
H1135 C1147 0.929 . S
H1136 C1150 0.930 . S
H1137 C1152 0.960 . S
H1138 C1152 0.960 . S
H1139 C1152 0.960 . S
C1140 H1132 0.929 . S
C1140 C1141 1.377 . S
C1140 C1142 1.384 . S
C1141 C1140 1.377 . S
C1141 C1147 1.390 . S
C1142 H1133 0.930 . S
C1142 C1140 1.384 . S
C1142 C1143 1.372 . S
C1143 C1142 1.372 . S
C1143 C1144 1.400 . S
C1143 C1148 1.490 . S
C1144 H1134 0.930 . S
C1144 C1143 1.400 . S
C1144 C1147 1.386 . S
H1145 C1161 0.930 . S
H1146 C1162 0.931 . S
C1147 H1135 0.929 . S
C1147 C1141 1.390 . S
C1147 C1144 1.386 . S
C1148 C1143 1.490 . S
C1148 C1150 1.395 . S
C1148 C1151 1.403 . S
H1149 C1155 0.930 . S
C1150 H1136 0.930 . S
C1150 C1148 1.395 . S
C1150 C1153 1.403 . S
C1151 C1148 1.403 . S
C1151 C1152 1.524 . S
C1151 C1155 1.400 . S
C1152 H1137 0.960 . S
C1152 H1138 0.960 . S
C1152 H1139 0.960 . S
C1152 C1151 1.524 . S
C1153 C1150 1.403 . S
C1153 C1154 1.392 . S
C1153 C1157 1.495 . S
C1154 C1153 1.392 . S
C1154 C1155 1.385 . S
C1154 C1156 1.478 . S
C1155 H1149 0.930 . S
C1155 C1151 1.400 . S
C1155 C1154 1.385 . S
C1156 C1154 1.478 . S
C1156 C1158 1.381 . S
C1156 C1162 1.383 . S
C1157 C1153 1.495 . S
C1157 H1163 0.959 . S
C1157 H1164 0.961 . S
C1157 H1165 0.960 . S
C1158 C1156 1.381 . S
C1158 C1159 1.394 . S
C1158 H1166 0.930 . S
C1159 C1158 1.394 . S
C1159 C1160 1.383 . S
C1159 H1167 0.929 . S
C1160 C1159 1.383 . S
C1160 C1161 1.377 . S
C1161 H1145 0.930 . S
C1161 C1160 1.377 . S
C1161 C1162 1.379 . S
C1162 H1146 0.931 . S
C1162 C1156 1.383 . S
C1162 C1161 1.379 . S
H1163 C1157 0.959 . S
H1164 C1157 0.961 . S
H1165 C1157 0.960 . S
H1166 C1158 0.930 . S
H1167 C1159 0.929 . S
H1168 C1176 0.929 . S
H1169 C1178 0.930 . S
H1170 C1180 0.930 . S
H1171 C1183 0.929 . S
H1172 C1186 0.930 . S
H1173 C1188 0.960 . S
H1174 C1188 0.960 . S
H1175 C1188 0.960 . S
C1176 H1168 0.929 . S
C1176 C1177 1.377 . S
C1176 C1178 1.384 . S
C1177 C1176 1.377 . S
C1177 C1183 1.390 . S
C1178 H1169 0.930 . S
C1178 C1176 1.384 . S
C1178 C1179 1.372 . S
C1179 C1178 1.372 . S
C1179 C1180 1.400 . S
C1179 C1184 1.490 . S
C1180 H1170 0.930 . S
C1180 C1179 1.400 . S
C1180 C1183 1.386 . S
H1181 C1197 0.930 . S
H1182 C1198 0.931 . S
C1183 H1171 0.929 . S
C1183 C1177 1.390 . S
C1183 C1180 1.386 . S
C1184 C1179 1.490 . S
C1184 C1186 1.395 . S
C1184 C1187 1.403 . S
H1185 C1191 0.930 . S
C1186 H1172 0.930 . S
C1186 C1184 1.395 . S
C1186 C1189 1.403 . S
C1187 C1184 1.403 . S
C1187 C1188 1.524 . S
C1187 C1191 1.400 . S
C1188 H1173 0.960 . S
C1188 H1174 0.960 . S
C1188 H1175 0.960 . S
C1188 C1187 1.524 . S
C1189 C1186 1.403 . S
C1189 C1190 1.392 . S
C1189 C1193 1.495 . S
C1190 C1189 1.392 . S
C1190 C1191 1.385 . S
C1190 C1192 1.478 . S
C1191 H1185 0.930 . S
C1191 C1187 1.400 . S
C1191 C1190 1.385 . S
C1192 C1190 1.478 . S
C1192 C1194 1.381 . S
C1192 C1198 1.383 . S
C1193 C1189 1.495 . S
C1193 H1199 0.959 . S
C1193 H1200 0.961 . S
C1193 H1201 0.960 . S
C1194 C1192 1.381 . S
C1194 C1195 1.394 . S
C1194 H1202 0.930 . S
C1195 C1194 1.394 . S
C1195 C1196 1.383 . S
C1195 H1203 0.929 . S
C1196 C1195 1.383 . S
C1196 C1197 1.377 . S
C1197 H1181 0.930 . S
C1197 C1196 1.377 . S
C1197 C1198 1.379 . S
C1198 H1182 0.931 . S
C1198 C1192 1.383 . S
C1198 C1197 1.379 . S
H1199 C1193 0.959 . S
H1200 C1193 0.961 . S
H1201 C1193 0.960 . S
H1202 C1194 0.930 . S
H1203 C1195 0.929 . S
H1204 C1212 0.929 1_545 S
H1205 C1214 0.930 . S
H1206 C1216 0.930 . S
H1207 C1219 0.929 . S
H1208 C1222 0.930 . S
H1209 C1224 0.960 . S
H1210 C1224 0.960 . S
H1211 C1224 0.960 . S
C1212 H1204 0.929 1_565 S
C1212 C1213 1.377 . S
C1212 C1214 1.384 . S
C1213 C1212 1.377 . S
C1213 C1219 1.390 . S
C1214 H1205 0.930 . S
C1214 C1212 1.384 . S
C1214 C1215 1.372 . S
C1215 C1214 1.372 . S
C1215 C1216 1.400 . S
C1215 C1220 1.490 . S
C1216 H1206 0.930 . S
C1216 C1215 1.400 . S
C1216 C1219 1.386 . S
H1217 C1233 0.930 . S
H1218 C1234 0.931 . S
C1219 H1207 0.929 . S
C1219 C1213 1.390 . S
C1219 C1216 1.386 . S
C1220 C1215 1.490 . S
C1220 C1222 1.395 . S
C1220 C1223 1.403 . S
H1221 C1227 0.930 . S
C1222 H1208 0.930 . S
C1222 C1220 1.395 . S
C1222 C1225 1.403 . S
C1223 C1220 1.403 . S
C1223 C1224 1.524 . S
C1223 C1227 1.400 . S
C1224 H1209 0.960 . S
C1224 H1210 0.960 . S
C1224 H1211 0.960 . S
C1224 C1223 1.524 . S
C1225 C1222 1.403 . S
C1225 C1226 1.392 . S
C1225 C1229 1.495 . S
C1226 C1225 1.392 . S
C1226 C1227 1.385 . S
C1226 C1228 1.478 . S
C1227 H1221 0.930 . S
C1227 C1223 1.400 . S
C1227 C1226 1.385 . S
C1228 C1226 1.478 . S
C1228 C1230 1.381 . S
C1228 C1234 1.383 . S
C1229 C1225 1.495 . S
C1229 H1235 0.959 . S
C1229 H1236 0.961 . S
C1229 H1237 0.960 . S
C1230 C1228 1.381 . S
C1230 C1231 1.394 . S
C1230 H1238 0.930 . S
C1231 C1230 1.394 . S
C1231 C1232 1.383 . S
C1231 H1239 0.929 . S
C1232 C1231 1.383 . S
C1232 C1233 1.377 . S
C1233 H1217 0.930 . S
C1233 C1232 1.377 . S
C1233 C1234 1.379 . S
C1234 H1218 0.931 . S
C1234 C1228 1.383 . S
C1234 C1233 1.379 . S
H1235 C1229 0.959 . S
H1236 C1229 0.961 . S
H1237 C1229 0.960 . S
H1238 C1230 0.930 . S
H1239 C1231 0.929 . S
H1240 C1248 0.929 . S
H1241 C1250 0.930 . S
H1242 C1252 0.930 . S
H1243 C1255 0.929 . S
H1244 C1258 0.930 . S
H1245 C1260 0.960 . S
H1246 C1260 0.960 . S
H1247 C1260 0.960 . S
C1248 H1240 0.929 . S
C1248 C1249 1.377 . S
C1248 C1250 1.384 . S
C1249 C1248 1.377 . S
C1249 C1255 1.390 . S
C1250 H1241 0.930 . S
C1250 C1248 1.384 . S
C1250 C1251 1.372 . S
C1251 C1250 1.372 . S
C1251 C1252 1.400 . S
C1251 C1256 1.490 . S
C1252 H1242 0.930 . S
C1252 C1251 1.400 . S
C1252 C1255 1.386 . S
H1253 C1269 0.930 . S
H1254 C1270 0.931 . S
C1255 H1243 0.929 . S
C1255 C1249 1.390 . S
C1255 C1252 1.386 . S
C1256 C1251 1.490 . S
C1256 C1258 1.395 . S
C1256 C1259 1.403 . S
H1257 C1263 0.930 . S
C1258 H1244 0.930 . S
C1258 C1256 1.395 . S
C1258 C1261 1.403 . S
C1259 C1256 1.403 . S
C1259 C1260 1.524 . S
C1259 C1263 1.400 . S
C1260 H1245 0.960 . S
C1260 H1246 0.960 . S
C1260 H1247 0.960 . S
C1260 C1259 1.524 . S
C1261 C1258 1.403 . S
C1261 C1262 1.392 . S
C1261 C1265 1.495 . S
C1262 C1261 1.392 . S
C1262 C1263 1.385 . S
C1262 C1264 1.478 . S
C1263 H1257 0.930 . S
C1263 C1259 1.400 . S
C1263 C1262 1.385 . S
C1264 C1262 1.478 . S
C1264 C1266 1.381 . S
C1264 C1270 1.383 . S
C1265 C1261 1.495 . S
C1265 H1271 0.959 . S
C1265 H1272 0.961 . S
C1265 H1273 0.960 . S
C1266 C1264 1.381 . S
C1266 C1267 1.394 . S
C1266 H1274 0.930 . S
C1267 C1266 1.394 . S
C1267 C1268 1.383 . S
C1267 H1275 0.929 . S
C1268 C1267 1.383 . S
C1268 C1269 1.377 . S
C1269 H1253 0.930 . S
C1269 C1268 1.377 . S
C1269 C1270 1.379 . S
C1270 H1254 0.931 . S
C1270 C1264 1.383 . S
C1270 C1269 1.379 . S
H1271 C1265 0.959 . S
H1272 C1265 0.961 . S
H1273 C1265 0.960 . S
H1274 C1266 0.930 . S
H1275 C1267 0.929 . S
H1276 C1284 0.929 . S
H1277 C1286 0.930 . S
H1278 C1288 0.930 . S
H1279 C1291 0.929 . S
H1280 C1294 0.930 . S
H1281 C1296 0.960 . S
H1282 C1296 0.960 . S
H1283 C1296 0.960 . S
C1284 H1276 0.929 . S
C1284 C1285 1.377 . S
C1284 C1286 1.384 . S
C1285 C1284 1.377 . S
C1285 C1291 1.390 . S
C1286 H1277 0.930 . S
C1286 C1284 1.384 . S
C1286 C1287 1.372 . S
C1287 C1286 1.372 . S
C1287 C1288 1.400 . S
C1287 C1292 1.490 . S
C1288 H1278 0.930 . S
C1288 C1287 1.400 . S
C1288 C1291 1.386 . S
H1289 C1305 0.930 . S
H1290 C1306 0.931 . S
C1291 H1279 0.929 . S
C1291 C1285 1.390 . S
C1291 C1288 1.386 . S
C1292 C1287 1.490 . S
C1292 C1294 1.395 . S
C1292 C1295 1.403 . S
H1293 C1299 0.930 . S
C1294 H1280 0.930 . S
C1294 C1292 1.395 . S
C1294 C1297 1.403 . S
C1295 C1292 1.403 . S
C1295 C1296 1.524 . S
C1295 C1299 1.400 . S
C1296 H1281 0.960 . S
C1296 H1282 0.960 . S
C1296 H1283 0.960 . S
C1296 C1295 1.524 . S
C1297 C1294 1.403 . S
C1297 C1298 1.392 . S
C1297 C1301 1.495 . S
C1298 C1297 1.392 . S
C1298 C1299 1.385 . S
C1298 C1300 1.478 . S
C1299 H1293 0.930 . S
C1299 C1295 1.400 . S
C1299 C1298 1.385 . S
C1300 C1298 1.478 . S
C1300 C1302 1.381 . S
C1300 C1306 1.383 . S
C1301 C1297 1.495 . S
C1301 H1307 0.959 . S
C1301 H1308 0.961 . S
C1301 H1309 0.960 . S
C1302 C1300 1.381 . S
C1302 C1303 1.394 . S
C1302 H1310 0.930 . S
C1303 C1302 1.394 . S
C1303 C1304 1.383 . S
C1303 H1311 0.929 . S
C1304 C1303 1.383 . S
C1304 C1305 1.377 . S
C1305 H1289 0.930 . S
C1305 C1304 1.377 . S
C1305 C1306 1.379 . S
C1306 H1290 0.931 . S
C1306 C1300 1.383 . S
C1306 C1305 1.379 . S
H1307 C1301 0.959 . S
H1308 C1301 0.961 . S
H1309 C1301 0.960 . S
H1310 C1302 0.930 . S
H1311 C1303 0.929 . S
H1312 C1320 0.929 . S
H1313 C1322 0.930 . S
H1314 C1324 0.930 . S
H1315 C1327 0.929 . S
H1316 C1330 0.930 . S
H1317 C1332 0.960 . S
H1318 C1332 0.960 . S
H1319 C1332 0.960 . S
C1320 H1312 0.929 . S
C1320 C1321 1.377 . S
C1320 C1322 1.384 . S
C1321 C1320 1.377 . S
C1321 C1327 1.390 . S
C1322 H1313 0.930 . S
C1322 C1320 1.384 . S
C1322 C1323 1.372 . S
C1323 C1322 1.372 . S
C1323 C1324 1.400 . S
C1323 C1328 1.490 . S
C1324 H1314 0.930 . S
C1324 C1323 1.400 . S
C1324 C1327 1.386 . S
H1325 C1341 0.930 . S
H1326 C1342 0.931 . S
C1327 H1315 0.929 . S
C1327 C1321 1.390 . S
C1327 C1324 1.386 . S
C1328 C1323 1.490 . S
C1328 C1330 1.395 . S
C1328 C1331 1.403 . S
H1329 C1335 0.930 . S
C1330 H1316 0.930 . S
C1330 C1328 1.395 . S
C1330 C1333 1.403 . S
C1331 C1328 1.403 . S
C1331 C1332 1.524 . S
C1331 C1335 1.400 . S
C1332 H1317 0.960 . S
C1332 H1318 0.960 . S
C1332 H1319 0.960 . S
C1332 C1331 1.524 . S
C1333 C1330 1.403 . S
C1333 C1334 1.392 . S
C1333 C1337 1.495 . S
C1334 C1333 1.392 . S
C1334 C1335 1.385 . S
C1334 C1336 1.478 . S
C1335 H1329 0.930 . S
C1335 C1331 1.400 . S
C1335 C1334 1.385 . S
C1336 C1334 1.478 . S
C1336 C1338 1.381 . S
C1336 C1342 1.383 . S
C1337 C1333 1.495 . S
C1337 H1343 0.959 . S
C1337 H1344 0.961 . S
C1337 H1345 0.960 . S
C1338 C1336 1.381 . S
C1338 C1339 1.394 . S
C1338 H1346 0.930 . S
C1339 C1338 1.394 . S
C1339 C1340 1.383 . S
C1339 H1347 0.929 . S
C1340 C1339 1.383 . S
C1340 C1341 1.377 . S
C1341 H1325 0.930 . S
C1341 C1340 1.377 . S
C1341 C1342 1.379 . S
C1342 H1326 0.931 . S
C1342 C1336 1.383 . S
C1342 C1341 1.379 . S
H1343 C1337 0.959 . S
H1344 C1337 0.961 . S
H1345 C1337 0.960 . S
H1346 C1338 0.930 . S
H1347 C1339 0.929 . S
H1348 C1356 0.929 . S
H1349 C1358 0.930 . S
H1350 C1360 0.930 . S
H1351 C1363 0.929 . S
H1352 C1366 0.930 . S
H1353 C1368 0.960 . S
H1354 C1368 0.960 . S
H1355 C1368 0.960 . S
C1356 H1348 0.929 . S
C1356 C1357 1.377 . S
C1356 C1358 1.384 . S
C1357 C1356 1.377 . S
C1357 C1363 1.390 . S
C1358 H1349 0.930 . S
C1358 C1356 1.384 . S
C1358 C1359 1.372 . S
C1359 C1358 1.372 . S
C1359 C1360 1.400 . S
C1359 C1364 1.490 . S
C1360 H1350 0.930 . S
C1360 C1359 1.400 . S
C1360 C1363 1.386 . S
H1361 C1377 0.930 . S
H1362 C1378 0.931 . S
C1363 H1351 0.929 . S
C1363 C1357 1.390 . S
C1363 C1360 1.386 . S
C1364 C1359 1.490 . S
C1364 C1366 1.395 . S
C1364 C1367 1.403 . S
H1365 C1371 0.930 . S
C1366 H1352 0.930 . S
C1366 C1364 1.395 . S
C1366 C1369 1.403 . S
C1367 C1364 1.403 . S
C1367 C1368 1.524 . S
C1367 C1371 1.400 . S
C1368 H1353 0.960 . S
C1368 H1354 0.960 . S
C1368 H1355 0.960 . S
C1368 C1367 1.524 . S
C1369 C1366 1.403 . S
C1369 C1370 1.392 . S
C1369 C1373 1.495 . S
C1370 C1369 1.392 . S
C1370 C1371 1.385 . S
C1370 C1372 1.478 . S
C1371 H1365 0.930 . S
C1371 C1367 1.400 . S
C1371 C1370 1.385 . S
C1372 C1370 1.478 . S
C1372 C1374 1.381 . S
C1372 C1378 1.383 . S
C1373 C1369 1.495 . S
C1373 H1379 0.959 . S
C1373 H1380 0.961 . S
C1373 H1381 0.960 . S
C1374 C1372 1.381 . S
C1374 C1375 1.394 . S
C1374 H1382 0.930 . S
C1375 C1374 1.394 . S
C1375 C1376 1.383 . S
C1375 H1383 0.929 . S
C1376 C1375 1.383 . S
C1376 C1377 1.377 . S
C1377 H1361 0.930 . S
C1377 C1376 1.377 . S
C1377 C1378 1.379 . S
C1378 H1362 0.931 . S
C1378 C1372 1.383 . S
C1378 C1377 1.379 . S
H1379 C1373 0.959 . S
H1380 C1373 0.961 . S
H1381 C1373 0.960 . S
H1382 C1374 0.930 . S
H1383 C1375 0.929 . S
H1384 C1392 0.929 . S
H1385 C1394 0.930 . S
H1386 C1396 0.930 . S
H1387 C1399 0.929 . S
H1388 C1402 0.930 . S
H1389 C1404 0.960 . S
H1390 C1404 0.960 . S
H1391 C1404 0.960 . S
C1392 H1384 0.929 . S
C1392 C1393 1.377 . S
C1392 C1394 1.384 . S
C1393 C1392 1.377 . S
C1393 C1399 1.390 . S
C1394 H1385 0.930 . S
C1394 C1392 1.384 . S
C1394 C1395 1.372 . S
C1395 C1394 1.372 . S
C1395 C1396 1.400 . S
C1395 C1400 1.490 . S
C1396 H1386 0.930 . S
C1396 C1395 1.400 . S
C1396 C1399 1.386 . S
H1397 C1413 0.930 . S
H1398 C1414 0.931 . S
C1399 H1387 0.929 . S
C1399 C1393 1.390 . S
C1399 C1396 1.386 . S
C1400 C1395 1.490 . S
C1400 C1402 1.395 . S
C1400 C1403 1.403 . S
H1401 C1407 0.930 . S
C1402 H1388 0.930 . S
C1402 C1400 1.395 . S
C1402 C1405 1.403 . S
C1403 C1400 1.403 . S
C1403 C1404 1.524 . S
C1403 C1407 1.400 . S
C1404 H1389 0.960 . S
C1404 H1390 0.960 . S
C1404 H1391 0.960 . S
C1404 C1403 1.524 . S
C1405 C1402 1.403 . S
C1405 C1406 1.392 . S
C1405 C1409 1.495 . S
C1406 C1405 1.392 . S
C1406 C1407 1.385 . S
C1406 C1408 1.478 . S
C1407 H1401 0.930 . S
C1407 C1403 1.400 . S
C1407 C1406 1.385 . S
C1408 C1406 1.478 . S
C1408 C1410 1.381 . S
C1408 C1414 1.383 . S
C1409 C1405 1.495 . S
C1409 H1415 0.959 . S
C1409 H1416 0.961 . S
C1409 H1417 0.960 . S
C1410 C1408 1.381 . S
C1410 C1411 1.394 . S
C1410 H1418 0.930 . S
C1411 C1410 1.394 . S
C1411 C1412 1.383 . S
C1411 H1419 0.929 . S
C1412 C1411 1.383 . S
C1412 C1413 1.377 . S
C1413 H1397 0.930 . S
C1413 C1412 1.377 . S
C1413 C1414 1.379 . S
C1414 H1398 0.931 . S
C1414 C1408 1.383 . S
C1414 C1413 1.379 . S
H1415 C1409 0.959 . S
H1416 C1409 0.961 . S
H1417 C1409 0.960 . S
H1418 C1410 0.930 . S
H1419 C1411 0.929 . S
H1420 C1428 0.929 . S
H1421 C1430 0.930 . S
H1422 C1432 0.930 . S
H1423 C1435 0.929 . S
H1424 C1438 0.930 . S
H1425 C1440 0.960 . S
H1426 C1440 0.960 . S
H1427 C1440 0.960 . S
C1428 H1420 0.929 . S
C1428 C1429 1.377 . S
C1428 C1430 1.384 . S
C1429 C1428 1.377 . S
C1429 C1435 1.390 . S
C1430 H1421 0.930 . S
C1430 C1428 1.384 . S
C1430 C1431 1.372 . S
C1431 C1430 1.372 . S
C1431 C1432 1.400 . S
C1431 C1436 1.490 . S
C1432 H1422 0.930 . S
C1432 C1431 1.400 . S
C1432 C1435 1.386 . S
H1433 C1449 0.930 . S
H1434 C1450 0.931 . S
C1435 H1423 0.929 . S
C1435 C1429 1.390 . S
C1435 C1432 1.386 . S
C1436 C1431 1.490 . S
C1436 C1438 1.395 . S
C1436 C1439 1.403 . S
H1437 C1443 0.930 . S
C1438 H1424 0.930 . S
C1438 C1436 1.395 . S
C1438 C1441 1.403 . S
C1439 C1436 1.403 . S
C1439 C1440 1.524 . S
C1439 C1443 1.400 . S
C1440 H1425 0.960 . S
C1440 H1426 0.960 . S
C1440 H1427 0.960 . S
C1440 C1439 1.524 . S
C1441 C1438 1.403 . S
C1441 C1442 1.392 . S
C1441 C1445 1.495 . S
C1442 C1441 1.392 . S
C1442 C1443 1.385 . S
C1442 C1444 1.478 . S
C1443 H1437 0.930 . S
C1443 C1439 1.400 . S
C1443 C1442 1.385 . S
C1444 C1442 1.478 . S
C1444 C1446 1.381 . S
C1444 C1450 1.383 . S
C1445 C1441 1.495 . S
C1445 H1451 0.959 . S
C1445 H1452 0.961 . S
C1445 H1453 0.960 . S
C1446 C1444 1.381 . S
C1446 C1447 1.394 . S
C1446 H1454 0.930 . S
C1447 C1446 1.394 . S
C1447 C1448 1.383 . S
C1447 H1455 0.929 . S
C1448 C1447 1.383 . S
C1448 C1449 1.377 . S
C1449 H1433 0.930 . S
C1449 C1448 1.377 . S
C1449 C1450 1.379 . S
C1450 H1434 0.931 . S
C1450 C1444 1.383 . S
C1450 C1449 1.379 . S
H1451 C1445 0.959 . S
H1452 C1445 0.961 . S
H1453 C1445 0.960 . S
H1454 C1446 0.930 . S
H1455 C1447 0.929 . S
H1456 C1464 0.929 . S
H1457 C1466 0.930 . S
H1458 C1468 0.930 . S
H1459 C1471 0.929 . S
H1460 C1474 0.930 . S
H1461 C1476 0.960 . S
H1462 C1476 0.960 . S
H1463 C1476 0.960 . S
C1464 H1456 0.929 . S
C1464 C1465 1.377 . S
C1464 C1466 1.384 . S
C1465 C1464 1.377 . S
C1465 C1471 1.390 . S
C1466 H1457 0.930 . S
C1466 C1464 1.384 . S
C1466 C1467 1.372 . S
C1467 C1466 1.372 . S
C1467 C1468 1.400 . S
C1467 C1472 1.490 . S
C1468 H1458 0.930 . S
C1468 C1467 1.400 . S
C1468 C1471 1.386 . S
H1469 C1485 0.930 . S
H1470 C1486 0.931 . S
C1471 H1459 0.929 . S
C1471 C1465 1.390 . S
C1471 C1468 1.386 . S
C1472 C1467 1.490 . S
C1472 C1474 1.395 . S
C1472 C1475 1.403 . S
H1473 C1479 0.930 . S
C1474 H1460 0.930 . S
C1474 C1472 1.395 . S
C1474 C1477 1.403 . S
C1475 C1472 1.403 . S
C1475 C1476 1.524 . S
C1475 C1479 1.400 . S
C1476 H1461 0.960 . S
C1476 H1462 0.960 . S
C1476 H1463 0.960 . S
C1476 C1475 1.524 . S
C1477 C1474 1.403 . S
C1477 C1478 1.392 . S
C1477 C1481 1.495 . S
C1478 C1477 1.392 . S
C1478 C1479 1.385 . S
C1478 C1480 1.478 . S
C1479 H1473 0.930 . S
C1479 C1475 1.400 . S
C1479 C1478 1.385 . S
C1480 C1478 1.478 . S
C1480 C1482 1.381 . S
C1480 C1486 1.383 . S
C1481 C1477 1.495 . S
C1481 H1487 0.959 . S
C1481 H1488 0.961 . S
C1481 H1489 0.960 . S
C1482 C1480 1.381 . S
C1482 C1483 1.394 . S
C1482 H1490 0.930 . S
C1483 C1482 1.394 . S
C1483 C1484 1.383 . S
C1483 H1491 0.929 . S
C1484 C1483 1.383 . S
C1484 C1485 1.377 . S
C1485 H1469 0.930 . S
C1485 C1484 1.377 . S
C1485 C1486 1.379 . S
C1486 H1470 0.931 . S
C1486 C1480 1.383 . S
C1486 C1485 1.379 . S
H1487 C1481 0.959 . S
H1488 C1481 0.961 . S
H1489 C1481 0.960 . S
H1490 C1482 0.930 . S
H1491 C1483 0.929 . S
H1492 C1500 0.929 . S
H1493 C1502 0.930 . S
H1494 C1504 0.930 . S
H1495 C1507 0.929 . S
H1496 C1510 0.930 . S
H1497 C1512 0.960 . S
H1498 C1512 0.960 . S
H1499 C1512 0.960 . S
C1500 H1492 0.929 . S
C1500 C1501 1.377 . S
C1500 C1502 1.384 . S
C1501 C1500 1.377 . S
C1501 C1507 1.390 . S
C1502 H1493 0.930 . S
C1502 C1500 1.384 . S
C1502 C1503 1.372 . S
C1503 C1502 1.372 . S
C1503 C1504 1.400 . S
C1503 C1508 1.490 . S
C1504 H1494 0.930 . S
C1504 C1503 1.400 . S
C1504 C1507 1.386 . S
H1505 C1521 0.930 . S
H1506 C1522 0.931 . S
C1507 H1495 0.929 . S
C1507 C1501 1.390 . S
C1507 C1504 1.386 . S
C1508 C1503 1.490 . S
C1508 C1510 1.395 . S
C1508 C1511 1.403 . S
H1509 C1515 0.930 . S
C1510 H1496 0.930 . S
C1510 C1508 1.395 . S
C1510 C1513 1.403 . S
C1511 C1508 1.403 . S
C1511 C1512 1.524 . S
C1511 C1515 1.400 . S
C1512 H1497 0.960 . S
C1512 H1498 0.960 . S
C1512 H1499 0.960 . S
C1512 C1511 1.524 . S
C1513 C1510 1.403 . S
C1513 C1514 1.392 . S
C1513 C1517 1.495 . S
C1514 C1513 1.392 . S
C1514 C1515 1.385 . S
C1514 C1516 1.478 . S
C1515 H1509 0.930 . S
C1515 C1511 1.400 . S
C1515 C1514 1.385 . S
C1516 C1514 1.478 . S
C1516 C1518 1.381 . S
C1516 C1522 1.383 . S
C1517 C1513 1.495 . S
C1517 H1523 0.959 . S
C1517 H1524 0.961 . S
C1517 H1525 0.960 . S
C1518 C1516 1.381 . S
C1518 C1519 1.394 . S
C1518 H1526 0.930 . S
C1519 C1518 1.394 . S
C1519 C1520 1.383 . S
C1519 H1527 0.929 . S
C1520 C1519 1.383 . S
C1520 C1521 1.377 . S
C1521 H1505 0.930 . S
C1521 C1520 1.377 . S
C1521 C1522 1.379 . S
C1522 H1506 0.931 . S
C1522 C1516 1.383 . S
C1522 C1521 1.379 . S
H1523 C1517 0.959 . S
H1524 C1517 0.961 . S
H1525 C1517 0.960 . S
H1526 C1518 0.930 . S
H1527 C1519 0.929 . S
H1528 C1536 0.929 . S
H1529 C1538 0.930 . S
H1530 C1540 0.930 . S
H1531 C1543 0.929 . S
H1532 C1546 0.930 . S
H1533 C1548 0.960 . S
H1534 C1548 0.960 . S
H1535 C1548 0.960 . S
C1536 H1528 0.929 . S
C1536 C1537 1.377 . S
C1536 C1538 1.384 . S
C1537 C1536 1.377 . S
C1537 C1543 1.390 . S
C1538 H1529 0.930 . S
C1538 C1536 1.384 . S
C1538 C1539 1.372 . S
C1539 C1538 1.372 . S
C1539 C1540 1.400 . S
C1539 C1544 1.490 . S
C1540 H1530 0.930 . S
C1540 C1539 1.400 . S
C1540 C1543 1.386 . S
H1541 C1557 0.930 . S
H1542 C1558 0.931 . S
C1543 H1531 0.929 . S
C1543 C1537 1.390 . S
C1543 C1540 1.386 . S
C1544 C1539 1.490 . S
C1544 C1546 1.395 . S
C1544 C1547 1.403 . S
H1545 C1551 0.930 . S
C1546 H1532 0.930 . S
C1546 C1544 1.395 . S
C1546 C1549 1.403 . S
C1547 C1544 1.403 . S
C1547 C1548 1.524 . S
C1547 C1551 1.400 . S
C1548 H1533 0.960 . S
C1548 H1534 0.960 . S
C1548 H1535 0.960 . S
C1548 C1547 1.524 . S
C1549 C1546 1.403 . S
C1549 C1550 1.392 . S
C1549 C1553 1.495 . S
C1550 C1549 1.392 . S
C1550 C1551 1.385 . S
C1550 C1552 1.478 . S
C1551 H1545 0.930 . S
C1551 C1547 1.400 . S
C1551 C1550 1.385 . S
C1552 C1550 1.478 . S
C1552 C1554 1.381 . S
C1552 C1558 1.383 . S
C1553 C1549 1.495 . S
C1553 H1559 0.959 . S
C1553 H1560 0.961 . S
C1553 H1561 0.960 . S
C1554 C1552 1.381 . S
C1554 C1555 1.394 . S
C1554 H1562 0.930 . S
C1555 C1554 1.394 . S
C1555 C1556 1.383 . S
C1555 H1563 0.929 . S
C1556 C1555 1.383 . S
C1556 C1557 1.377 . S
C1557 H1541 0.930 . S
C1557 C1556 1.377 . S
C1557 C1558 1.379 . S
C1558 H1542 0.931 . S
C1558 C1552 1.383 . S
C1558 C1557 1.379 . S
H1559 C1553 0.959 . S
H1560 C1553 0.961 . S
H1561 C1553 0.960 . S
H1562 C1554 0.930 . S
H1563 C1555 0.929 . S
H1564 C1572 0.929 . S
H1565 C1574 0.930 . S
H1566 C1576 0.930 . S
H1567 C1579 0.929 . S
H1568 C1582 0.930 . S
H1569 C1584 0.960 . S
H1570 C1584 0.960 . S
H1571 C1584 0.960 . S
C1572 H1564 0.929 . S
C1572 C1573 1.377 . S
C1572 C1574 1.384 . S
C1573 C1572 1.377 . S
C1573 C1579 1.390 . S
C1574 H1565 0.930 . S
C1574 C1572 1.384 . S
C1574 C1575 1.372 . S
C1575 C1574 1.372 . S
C1575 C1576 1.400 . S
C1575 C1580 1.490 . S
C1576 H1566 0.930 . S
C1576 C1575 1.400 . S
C1576 C1579 1.386 . S
H1577 C1593 0.930 . S
H1578 C1594 0.931 . S
C1579 H1567 0.929 . S
C1579 C1573 1.390 . S
C1579 C1576 1.386 . S
C1580 C1575 1.490 . S
C1580 C1582 1.395 . S
C1580 C1583 1.403 . S
H1581 C1587 0.930 . S
C1582 H1568 0.930 . S
C1582 C1580 1.395 . S
C1582 C1585 1.403 . S
C1583 C1580 1.403 . S
C1583 C1584 1.524 . S
C1583 C1587 1.400 . S
C1584 H1569 0.960 . S
C1584 H1570 0.960 . S
C1584 H1571 0.960 . S
C1584 C1583 1.524 . S
C1585 C1582 1.403 . S
C1585 C1586 1.392 . S
C1585 C1589 1.495 . S
C1586 C1585 1.392 . S
C1586 C1587 1.385 . S
C1586 C1588 1.478 . S
C1587 H1581 0.930 . S
C1587 C1583 1.400 . S
C1587 C1586 1.385 . S
C1588 C1586 1.478 . S
C1588 C1590 1.381 . S
C1588 C1594 1.383 . S
C1589 C1585 1.495 . S
C1589 H1595 0.959 . S
C1589 H1596 0.961 . S
C1589 H1597 0.960 . S
C1590 C1588 1.381 . S
C1590 C1591 1.394 . S
C1590 H1598 0.930 . S
C1591 C1590 1.394 . S
C1591 C1592 1.383 . S
C1591 H1599 0.929 . S
C1592 C1591 1.383 . S
C1592 C1593 1.377 . S
C1593 H1577 0.930 . S
C1593 C1592 1.377 . S
C1593 C1594 1.379 . S
C1594 H1578 0.931 . S
C1594 C1588 1.383 . S
C1594 C1593 1.379 . S
H1595 C1589 0.959 . S
H1596 C1589 0.961 . S
H1597 C1589 0.960 . S
H1598 C1590 0.930 . S
H1599 C1591 0.929 . S
H1600 C1608 0.929 . S
H1601 C1610 0.930 . S
H1602 C1612 0.930 . S
H1603 C1615 0.929 . S
H1604 C1618 0.930 . S
H1605 C1620 0.960 . S
H1606 C1620 0.960 . S
H1607 C1620 0.960 . S
C1608 H1600 0.929 . S
C1608 C1609 1.377 . S
C1608 C1610 1.384 . S
C1609 C1608 1.377 . S
C1609 C1615 1.390 . S
C1610 H1601 0.930 . S
C1610 C1608 1.384 . S
C1610 C1611 1.372 . S
C1611 C1610 1.372 . S
C1611 C1612 1.400 . S
C1611 C1616 1.490 . S
C1612 H1602 0.930 . S
C1612 C1611 1.400 . S
C1612 C1615 1.386 . S
H1613 C1629 0.930 . S
H1614 C1630 0.931 . S
C1615 H1603 0.929 . S
C1615 C1609 1.390 . S
C1615 C1612 1.386 . S
C1616 C1611 1.490 . S
C1616 C1618 1.395 . S
C1616 C1619 1.403 . S
H1617 C1623 0.930 . S
C1618 H1604 0.930 . S
C1618 C1616 1.395 . S
C1618 C1621 1.403 . S
C1619 C1616 1.403 . S
C1619 C1620 1.524 . S
C1619 C1623 1.400 . S
C1620 H1605 0.960 . S
C1620 H1606 0.960 . S
C1620 H1607 0.960 . S
C1620 C1619 1.524 . S
C1621 C1618 1.403 . S
C1621 C1622 1.392 . S
C1621 C1625 1.495 . S
C1622 C1621 1.392 . S
C1622 C1623 1.385 . S
C1622 C1624 1.478 . S
C1623 H1617 0.930 . S
C1623 C1619 1.400 . S
C1623 C1622 1.385 . S
C1624 C1622 1.478 . S
C1624 C1626 1.381 . S
C1624 C1630 1.383 . S
C1625 C1621 1.495 . S
C1625 H1631 0.959 . S
C1625 H1632 0.961 . S
C1625 H1633 0.960 . S
C1626 C1624 1.381 . S
C1626 C1627 1.394 . S
C1626 H1634 0.930 . S
C1627 C1626 1.394 . S
C1627 C1628 1.383 . S
C1627 H1635 0.929 . S
C1628 C1627 1.383 . S
C1628 C1629 1.377 . S
C1629 H1613 0.930 . S
C1629 C1628 1.377 . S
C1629 C1630 1.379 . S
C1630 H1614 0.931 . S
C1630 C1624 1.383 . S
C1630 C1629 1.379 . S
H1631 C1625 0.959 . S
H1632 C1625 0.961 . S
H1633 C1625 0.960 . S
H1634 C1626 0.930 . S
H1635 C1627 0.929 . S
H1636 C1644 0.929 . S
H1637 C1646 0.930 . S
H1638 C1648 0.930 . S
H1639 C1651 0.929 . S
H1640 C1654 0.930 . S
H1641 C1656 0.960 . S
H1642 C1656 0.960 . S
H1643 C1656 0.960 . S
C1644 H1636 0.929 . S
C1644 C1645 1.377 . S
C1644 C1646 1.384 . S
C1645 C1644 1.377 . S
C1645 C1651 1.390 . S
C1646 H1637 0.930 . S
C1646 C1644 1.384 . S
C1646 C1647 1.372 . S
C1647 C1646 1.372 . S
C1647 C1648 1.400 . S
C1647 C1652 1.490 . S
C1648 H1638 0.930 . S
C1648 C1647 1.400 . S
C1648 C1651 1.386 . S
H1649 C1665 0.930 . S
H1650 C1666 0.931 . S
C1651 H1639 0.929 . S
C1651 C1645 1.390 . S
C1651 C1648 1.386 . S
C1652 C1647 1.490 . S
C1652 C1654 1.395 . S
C1652 C1655 1.403 . S
H1653 C1659 0.930 . S
C1654 H1640 0.930 . S
C1654 C1652 1.395 . S
C1654 C1657 1.403 . S
C1655 C1652 1.403 . S
C1655 C1656 1.524 . S
C1655 C1659 1.400 . S
C1656 H1641 0.960 . S
C1656 H1642 0.960 . S
C1656 H1643 0.960 . S
C1656 C1655 1.524 . S
C1657 C1654 1.403 . S
C1657 C1658 1.392 . S
C1657 C1661 1.495 . S
C1658 C1657 1.392 . S
C1658 C1659 1.385 . S
C1658 C1660 1.478 . S
C1659 H1653 0.930 . S
C1659 C1655 1.400 . S
C1659 C1658 1.385 . S
C1660 C1658 1.478 . S
C1660 C1662 1.381 . S
C1660 C1666 1.383 . S
C1661 C1657 1.495 . S
C1661 H1667 0.959 . S
C1661 H1668 0.961 . S
C1661 H1669 0.960 . S
C1662 C1660 1.381 . S
C1662 C1663 1.394 . S
C1662 H1670 0.930 . S
C1663 C1662 1.394 . S
C1663 C1664 1.383 . S
C1663 H1671 0.929 1_455 S
C1664 C1663 1.383 . S
C1664 C1665 1.377 . S
C1665 H1649 0.930 . S
C1665 C1664 1.377 . S
C1665 C1666 1.379 . S
C1666 H1650 0.931 . S
C1666 C1660 1.383 . S
C1666 C1665 1.379 . S
H1667 C1661 0.959 . S
H1668 C1661 0.961 . S
H1669 C1661 0.960 . S
H1670 C1662 0.930 . S
H1671 C1663 0.929 1_655 S
H1672 C1680 0.929 . S
H1673 C1682 0.930 . S
H1674 C1684 0.930 . S
H1675 C1687 0.929 . S
H1676 C1690 0.930 . S
H1677 C1692 0.960 . S
H1678 C1692 0.960 . S
H1679 C1692 0.960 . S
C1680 H1672 0.929 . S
C1680 C1681 1.377 . S
C1680 C1682 1.384 . S
C1681 C1680 1.377 . S
C1681 C1687 1.390 . S
C1682 H1673 0.930 . S
C1682 C1680 1.384 . S
C1682 C1683 1.372 . S
C1683 C1682 1.372 . S
C1683 C1684 1.400 . S
C1683 C1688 1.490 . S
C1684 H1674 0.930 . S
C1684 C1683 1.400 . S
C1684 C1687 1.386 . S
H1685 C1701 0.930 . S
H1686 C1702 0.931 . S
C1687 H1675 0.929 . S
C1687 C1681 1.390 . S
C1687 C1684 1.386 . S
C1688 C1683 1.490 . S
C1688 C1690 1.395 . S
C1688 C1691 1.403 . S
H1689 C1695 0.930 . S
C1690 H1676 0.930 . S
C1690 C1688 1.395 . S
C1690 C1693 1.403 . S
C1691 C1688 1.403 . S
C1691 C1692 1.524 . S
C1691 C1695 1.400 . S
C1692 H1677 0.960 . S
C1692 H1678 0.960 . S
C1692 H1679 0.960 . S
C1692 C1691 1.524 . S
C1693 C1690 1.403 . S
C1693 C1694 1.392 . S
C1693 C1697 1.495 . S
C1694 C1693 1.392 . S
C1694 C1695 1.385 . S
C1694 C1696 1.478 . S
C1695 H1689 0.930 . S
C1695 C1691 1.400 . S
C1695 C1694 1.385 . S
C1696 C1694 1.478 . S
C1696 C1698 1.381 . S
C1696 C1702 1.383 . S
C1697 C1693 1.495 . S
C1697 H1703 0.959 . S
C1697 H1704 0.961 . S
C1697 H1705 0.960 . S
C1698 C1696 1.381 . S
C1698 C1699 1.394 . S
C1698 H1706 0.930 . S
C1699 C1698 1.394 . S
C1699 C1700 1.383 . S
C1699 H1707 0.929 . S
C1700 C1699 1.383 . S
C1700 C1701 1.377 . S
C1701 H1685 0.930 . S
C1701 C1700 1.377 . S
C1701 C1702 1.379 . S
C1702 H1686 0.931 . S
C1702 C1696 1.383 . S
C1702 C1701 1.379 . S
H1703 C1697 0.959 . S
H1704 C1697 0.961 . S
H1705 C1697 0.960 . S
H1706 C1698 0.930 . S
H1707 C1699 0.929 . S
H1708 C1716 0.929 . S
H1709 C1718 0.930 . S
H1710 C1720 0.930 . S
H1711 C1723 0.929 . S
H1712 C1726 0.930 . S
H1713 C1728 0.960 . S
H1714 C1728 0.960 . S
H1715 C1728 0.960 . S
C1716 H1708 0.929 . S
C1716 C1717 1.377 . S
C1716 C1718 1.384 . S
C1717 C1716 1.377 . S
C1717 C1723 1.390 . S
C1718 H1709 0.930 . S
C1718 C1716 1.384 . S
C1718 C1719 1.372 . S
C1719 C1718 1.372 . S
C1719 C1720 1.400 . S
C1719 C1724 1.490 . S
C1720 H1710 0.930 . S
C1720 C1719 1.400 . S
C1720 C1723 1.386 . S
H1721 C1737 0.930 . S
H1722 C1738 0.931 . S
C1723 H1711 0.929 . S
C1723 C1717 1.390 . S
C1723 C1720 1.386 . S
C1724 C1719 1.490 . S
C1724 C1726 1.395 . S
C1724 C1727 1.403 . S
H1725 C1731 0.930 . S
C1726 H1712 0.930 . S
C1726 C1724 1.395 . S
C1726 C1729 1.403 . S
C1727 C1724 1.403 . S
C1727 C1728 1.524 . S
C1727 C1731 1.400 . S
C1728 H1713 0.960 . S
C1728 H1714 0.960 . S
C1728 H1715 0.960 . S
C1728 C1727 1.524 . S
C1729 C1726 1.403 . S
C1729 C1730 1.392 . S
C1729 C1733 1.495 . S
C1730 C1729 1.392 . S
C1730 C1731 1.385 . S
C1730 C1732 1.478 . S
C1731 H1725 0.930 . S
C1731 C1727 1.400 . S
C1731 C1730 1.385 . S
C1732 C1730 1.478 . S
C1732 C1734 1.381 . S
C1732 C1738 1.383 . S
C1733 C1729 1.495 . S
C1733 H1739 0.959 . S
C1733 H1740 0.961 . S
C1733 H1741 0.960 . S
C1734 C1732 1.381 . S
C1734 C1735 1.394 . S
C1734 H1742 0.930 . S
C1735 C1734 1.394 . S
C1735 C1736 1.383 . S
C1735 H1743 0.929 . S
C1736 C1735 1.383 . S
C1736 C1737 1.377 . S
C1737 H1721 0.930 . S
C1737 C1736 1.377 . S
C1737 C1738 1.379 . S
C1738 H1722 0.931 . S
C1738 C1732 1.383 . S
C1738 C1737 1.379 . S
H1739 C1733 0.959 . S
H1740 C1733 0.961 . S
H1741 C1733 0.960 . S
H1742 C1734 0.930 . S
H1743 C1735 0.929 . S
H1744 C1752 0.929 . S
H1745 C1754 0.930 . S
H1746 C1756 0.930 . S
H1747 C1759 0.929 . S
H1748 C1762 0.930 . S
H1749 C1764 0.960 . S
H1750 C1764 0.960 . S
H1751 C1764 0.960 . S
C1752 H1744 0.929 . S
C1752 C1753 1.377 . S
C1752 C1754 1.384 . S
C1753 C1752 1.377 . S
C1753 C1759 1.390 . S
C1754 H1745 0.930 . S
C1754 C1752 1.384 . S
C1754 C1755 1.372 . S
C1755 C1754 1.372 . S
C1755 C1756 1.400 . S
C1755 C1760 1.490 . S
C1756 H1746 0.930 . S
C1756 C1755 1.400 . S
C1756 C1759 1.386 . S
H1757 C1773 0.930 . S
H1758 C1774 0.931 . S
C1759 H1747 0.929 . S
C1759 C1753 1.390 . S
C1759 C1756 1.386 . S
C1760 C1755 1.490 . S
C1760 C1762 1.395 . S
C1760 C1763 1.403 . S
H1761 C1767 0.930 . S
C1762 H1748 0.930 . S
C1762 C1760 1.395 . S
C1762 C1765 1.403 . S
C1763 C1760 1.403 . S
C1763 C1764 1.524 . S
C1763 C1767 1.400 . S
C1764 H1749 0.960 . S
C1764 H1750 0.960 . S
C1764 H1751 0.960 . S
C1764 C1763 1.524 . S
C1765 C1762 1.403 . S
C1765 C1766 1.392 . S
C1765 C1769 1.495 . S
C1766 C1765 1.392 . S
C1766 C1767 1.385 . S
C1766 C1768 1.478 . S
C1767 H1761 0.930 . S
C1767 C1763 1.400 . S
C1767 C1766 1.385 . S
C1768 C1766 1.478 . S
C1768 C1770 1.381 . S
C1768 C1774 1.383 . S
C1769 C1765 1.495 . S
C1769 H1775 0.959 . S
C1769 H1776 0.961 . S
C1769 H1777 0.960 . S
C1770 C1768 1.381 . S
C1770 C1771 1.394 . S
C1770 H1778 0.930 . S
C1771 C1770 1.394 . S
C1771 C1772 1.383 . S
C1771 H1779 0.929 . S
C1772 C1771 1.383 . S
C1772 C1773 1.377 . S
C1773 H1757 0.930 . S
C1773 C1772 1.377 . S
C1773 C1774 1.379 . S
C1774 H1758 0.931 . S
C1774 C1768 1.383 . S
C1774 C1773 1.379 . S
H1775 C1769 0.959 . S
H1776 C1769 0.961 . S
H1777 C1769 0.960 . S
H1778 C1770 0.930 . S
H1779 C1771 0.929 . S
H1780 C1788 0.929 . S
H1781 C1790 0.930 . S
H1782 C1792 0.930 . S
H1783 C1795 0.929 . S
H1784 C1798 0.930 . S
H1785 C1800 0.960 . S
H1786 C1800 0.960 . S
H1787 C1800 0.960 . S
C1788 H1780 0.929 . S
C1788 C1789 1.377 . S
C1788 C1790 1.384 . S
C1789 C1788 1.377 . S
C1789 C1795 1.390 . S
C1790 H1781 0.930 . S
C1790 C1788 1.384 . S
C1790 C1791 1.372 . S
C1791 C1790 1.372 . S
C1791 C1792 1.400 . S
C1791 C1796 1.490 . S
C1792 H1782 0.930 . S
C1792 C1791 1.400 . S
C1792 C1795 1.386 . S
H1793 C1809 0.930 . S
H1794 C1810 0.931 . S
C1795 H1783 0.929 . S
C1795 C1789 1.390 . S
C1795 C1792 1.386 . S
C1796 C1791 1.490 . S
C1796 C1798 1.395 . S
C1796 C1799 1.403 . S
H1797 C1803 0.930 . S
C1798 H1784 0.930 . S
C1798 C1796 1.395 . S
C1798 C1801 1.403 . S
C1799 C1796 1.403 . S
C1799 C1800 1.524 . S
C1799 C1803 1.400 . S
C1800 H1785 0.960 . S
C1800 H1786 0.960 . S
C1800 H1787 0.960 . S
C1800 C1799 1.524 . S
C1801 C1798 1.403 . S
C1801 C1802 1.392 . S
C1801 C1805 1.495 . S
C1802 C1801 1.392 . S
C1802 C1803 1.385 . S
C1802 C1804 1.478 . S
C1803 H1797 0.930 . S
C1803 C1799 1.400 . S
C1803 C1802 1.385 . S
C1804 C1802 1.478 . S
C1804 C1806 1.381 . S
C1804 C1810 1.383 . S
C1805 C1801 1.495 . S
C1805 H1811 0.959 . S
C1805 H1812 0.961 . S
C1805 H1813 0.960 . S
C1806 C1804 1.381 . S
C1806 C1807 1.394 . S
C1806 H1814 0.930 . S
C1807 C1806 1.394 . S
C1807 C1808 1.383 . S
C1807 H1815 0.929 . S
C1808 C1807 1.383 . S
C1808 C1809 1.377 . S
C1809 H1793 0.930 . S
C1809 C1808 1.377 . S
C1809 C1810 1.379 . S
C1810 H1794 0.931 . S
C1810 C1804 1.383 . S
C1810 C1809 1.379 . S
H1811 C1805 0.959 . S
H1812 C1805 0.961 . S
H1813 C1805 0.960 . S
H1814 C1806 0.930 . S
H1815 C1807 0.929 . S
H1816 C1824 0.929 . S
H1817 C1826 0.930 . S
H1818 C1828 0.930 . S
H1819 C1831 0.929 . S
H1820 C1834 0.930 . S
H1821 C1836 0.960 . S
H1822 C1836 0.960 . S
H1823 C1836 0.960 . S
C1824 H1816 0.929 . S
C1824 C1825 1.377 . S
C1824 C1826 1.384 . S
C1825 C1824 1.377 . S
C1825 C1831 1.390 . S
C1826 H1817 0.930 . S
C1826 C1824 1.384 . S
C1826 C1827 1.372 . S
C1827 C1826 1.372 . S
C1827 C1828 1.400 . S
C1827 C1832 1.490 . S
C1828 H1818 0.930 . S
C1828 C1827 1.400 . S
C1828 C1831 1.386 . S
H1829 C1845 0.930 . S
H1830 C1846 0.931 . S
C1831 H1819 0.929 . S
C1831 C1825 1.390 . S
C1831 C1828 1.386 . S
C1832 C1827 1.490 . S
C1832 C1834 1.395 . S
C1832 C1835 1.403 . S
H1833 C1839 0.930 . S
C1834 H1820 0.930 . S
C1834 C1832 1.395 . S
C1834 C1837 1.403 . S
C1835 C1832 1.403 . S
C1835 C1836 1.524 . S
C1835 C1839 1.400 . S
C1836 H1821 0.960 . S
C1836 H1822 0.960 . S
C1836 H1823 0.960 . S
C1836 C1835 1.524 . S
C1837 C1834 1.403 . S
C1837 C1838 1.392 . S
C1837 C1841 1.495 . S
C1838 C1837 1.392 . S
C1838 C1839 1.385 . S
C1838 C1840 1.478 . S
C1839 H1833 0.930 . S
C1839 C1835 1.400 . S
C1839 C1838 1.385 . S
C1840 C1838 1.478 . S
C1840 C1842 1.381 . S
C1840 C1846 1.383 . S
C1841 C1837 1.495 . S
C1841 H1847 0.959 . S
C1841 H1848 0.961 . S
C1841 H1849 0.960 . S
C1842 C1840 1.381 . S
C1842 C1843 1.394 . S
C1842 H1850 0.930 . S
C1843 C1842 1.394 . S
C1843 C1844 1.383 . S
C1843 H1851 0.929 . S
C1844 C1843 1.383 . S
C1844 C1845 1.377 . S
C1845 H1829 0.930 . S
C1845 C1844 1.377 . S
C1845 C1846 1.379 . S
C1846 H1830 0.931 . S
C1846 C1840 1.383 . S
C1846 C1845 1.379 . S
H1847 C1841 0.959 . S
H1848 C1841 0.961 . S
H1849 C1841 0.960 . S
H1850 C1842 0.930 . S
H1851 C1843 0.929 . S
H1852 C1860 0.929 . S
H1853 C1862 0.930 . S
H1854 C1864 0.930 . S
H1855 C1867 0.929 . S
H1856 C1870 0.930 . S
H1857 C1872 0.960 . S
H1858 C1872 0.960 . S
H1859 C1872 0.960 . S
C1860 H1852 0.929 . S
C1860 C1861 1.377 . S
C1860 C1862 1.384 . S
C1861 C1860 1.377 . S
C1861 C1867 1.390 . S
C1862 H1853 0.930 . S
C1862 C1860 1.384 . S
C1862 C1863 1.372 . S
C1863 C1862 1.372 . S
C1863 C1864 1.400 . S
C1863 C1868 1.490 . S
C1864 H1854 0.930 . S
C1864 C1863 1.400 . S
C1864 C1867 1.386 . S
H1865 C1881 0.930 1_655 S
H1866 C1882 0.931 . S
C1867 H1855 0.929 . S
C1867 C1861 1.390 . S
C1867 C1864 1.386 . S
C1868 C1863 1.490 . S
C1868 C1870 1.395 . S
C1868 C1871 1.403 . S
H1869 C1875 0.930 . S
C1870 H1856 0.930 . S
C1870 C1868 1.395 . S
C1870 C1873 1.403 . S
C1871 C1868 1.403 . S
C1871 C1872 1.524 . S
C1871 C1875 1.400 . S
C1872 H1857 0.960 . S
C1872 H1858 0.960 . S
C1872 H1859 0.960 . S
C1872 C1871 1.524 . S
C1873 C1870 1.403 . S
C1873 C1874 1.392 . S
C1873 C1877 1.495 . S
C1874 C1873 1.392 . S
C1874 C1875 1.385 . S
C1874 C1876 1.478 . S
C1875 H1869 0.930 . S
C1875 C1871 1.400 . S
C1875 C1874 1.385 . S
C1876 C1874 1.478 . S
C1876 C1878 1.381 . S
C1876 C1882 1.383 . S
C1877 C1873 1.495 . S
C1877 H1883 0.959 . S
C1877 H1884 0.961 . S
C1877 H1885 0.960 . S
C1878 C1876 1.381 . S
C1878 C1879 1.394 . S
C1878 H1886 0.930 . S
C1879 C1878 1.394 . S
C1879 C1880 1.383 . S
C1879 H1887 0.929 . S
C1880 C1879 1.383 . S
C1880 C1881 1.377 . S
C1881 H1865 0.930 1_455 S
C1881 C1880 1.377 . S
C1881 C1882 1.379 . S
C1882 H1866 0.931 . S
C1882 C1876 1.383 . S
C1882 C1881 1.379 . S
H1883 C1877 0.959 . S
H1884 C1877 0.961 . S
H1885 C1877 0.960 . S
H1886 C1878 0.930 . S
H1887 C1879 0.929 . S
H1888 C1896 0.929 . S
H1889 C1898 0.930 . S
H1890 C1900 0.930 . S
H1891 C1903 0.929 . S
H1892 C1906 0.930 . S
H1893 C1908 0.960 . S
H1894 C1908 0.960 . S
H1895 C1908 0.960 . S
C1896 H1888 0.929 . S
C1896 C1897 1.377 . S
C1896 C1898 1.384 . S
C1897 C1896 1.377 . S
C1897 C1903 1.390 . S
C1898 H1889 0.930 . S
C1898 C1896 1.384 . S
C1898 C1899 1.372 . S
C1899 C1898 1.372 . S
C1899 C1900 1.400 . S
C1899 C1904 1.490 . S
C1900 H1890 0.930 . S
C1900 C1899 1.400 . S
C1900 C1903 1.386 . S
H1901 C1917 0.930 . S
H1902 C1918 0.931 . S
C1903 H1891 0.929 . S
C1903 C1897 1.390 . S
C1903 C1900 1.386 . S
C1904 C1899 1.490 . S
C1904 C1906 1.395 . S
C1904 C1907 1.403 . S
H1905 C1911 0.930 . S
C1906 H1892 0.930 . S
C1906 C1904 1.395 . S
C1906 C1909 1.403 . S
C1907 C1904 1.403 . S
C1907 C1908 1.524 . S
C1907 C1911 1.400 . S
C1908 H1893 0.960 . S
C1908 H1894 0.960 . S
C1908 H1895 0.960 . S
C1908 C1907 1.524 . S
C1909 C1906 1.403 . S
C1909 C1910 1.392 . S
C1909 C1913 1.495 . S
C1910 C1909 1.392 . S
C1910 C1911 1.385 . S
C1910 C1912 1.478 . S
C1911 H1905 0.930 . S
C1911 C1907 1.400 . S
C1911 C1910 1.385 . S
C1912 C1910 1.478 . S
C1912 C1914 1.381 . S
C1912 C1918 1.383 . S
C1913 C1909 1.495 . S
C1913 H1919 0.959 . S
C1913 H1920 0.961 . S
C1913 H1921 0.960 . S
C1914 C1912 1.381 . S
C1914 C1915 1.394 . S
C1914 H1922 0.930 . S
C1915 C1914 1.394 . S
C1915 C1916 1.383 . S
C1915 H1923 0.929 . S
C1916 C1915 1.383 . S
C1916 C1917 1.377 . S
C1917 H1901 0.930 . S
C1917 C1916 1.377 . S
C1917 C1918 1.379 . S
C1918 H1902 0.931 . S
C1918 C1912 1.383 . S
C1918 C1917 1.379 . S
H1919 C1913 0.959 . S
H1920 C1913 0.961 . S
H1921 C1913 0.960 . S
H1922 C1914 0.930 . S
H1923 C1915 0.929 . S
H1924 C1932 0.929 . S
H1925 C1934 0.930 . S
H1926 C1936 0.930 . S
H1927 C1939 0.929 1_455 S
H1928 C1942 0.930 . S
H1929 C1944 0.960 . S
H1930 C1944 0.960 . S
H1931 C1944 0.960 . S
C1932 H1924 0.929 . S
C1932 C1933 1.377 . S
C1932 C1934 1.384 . S
C1933 C1932 1.377 . S
C1933 C1939 1.390 . S
C1934 H1925 0.930 . S
C1934 C1932 1.384 . S
C1934 C1935 1.372 . S
C1935 C1934 1.372 . S
C1935 C1936 1.400 . S
C1935 C1940 1.490 . S
C1936 H1926 0.930 . S
C1936 C1935 1.400 . S
C1936 C1939 1.386 . S
H1937 C1953 0.930 . S
H1938 C1954 0.931 . S
C1939 H1927 0.929 1_655 S
C1939 C1933 1.390 . S
C1939 C1936 1.386 . S
C1940 C1935 1.490 . S
C1940 C1942 1.395 . S
C1940 C1943 1.403 . S
H1941 C1947 0.930 . S
C1942 H1928 0.930 . S
C1942 C1940 1.395 . S
C1942 C1945 1.403 . S
C1943 C1940 1.403 . S
C1943 C1944 1.524 . S
C1943 C1947 1.400 . S
C1944 H1929 0.960 . S
C1944 H1930 0.960 . S
C1944 H1931 0.960 . S
C1944 C1943 1.524 . S
C1945 C1942 1.403 . S
C1945 C1946 1.392 . S
C1945 C1949 1.495 . S
C1946 C1945 1.392 . S
C1946 C1947 1.385 . S
C1946 C1948 1.478 . S
C1947 H1941 0.930 . S
C1947 C1943 1.400 . S
C1947 C1946 1.385 . S
C1948 C1946 1.478 . S
C1948 C1950 1.381 . S
C1948 C1954 1.383 . S
C1949 C1945 1.495 . S
C1949 H1955 0.959 . S
C1949 H1956 0.961 . S
C1949 H1957 0.960 . S
C1950 C1948 1.381 . S
C1950 C1951 1.394 . S
C1950 H1958 0.930 . S
C1951 C1950 1.394 . S
C1951 C1952 1.383 . S
C1951 H1959 0.929 . S
C1952 C1951 1.383 . S
C1952 C1953 1.377 . S
C1953 H1937 0.930 . S
C1953 C1952 1.377 . S
C1953 C1954 1.379 . S
C1954 H1938 0.931 . S
C1954 C1948 1.383 . S
C1954 C1953 1.379 . S
H1955 C1949 0.959 . S
H1956 C1949 0.961 . S
H1957 C1949 0.960 . S
H1958 C1950 0.930 . S
H1959 C1951 0.929 . S
H1960 C1968 0.929 . S
H1961 C1970 0.930 . S
H1962 C1972 0.930 . S
H1963 C1975 0.929 . S
H1964 C1978 0.930 . S
H1965 C1980 0.960 . S
H1966 C1980 0.960 . S
H1967 C1980 0.960 . S
C1968 H1960 0.929 . S
C1968 C1969 1.377 . S
C1968 C1970 1.384 . S
C1969 C1968 1.377 . S
C1969 C1975 1.390 . S
C1970 H1961 0.930 . S
C1970 C1968 1.384 . S
C1970 C1971 1.372 . S
C1971 C1970 1.372 . S
C1971 C1972 1.400 . S
C1971 C1976 1.490 . S
C1972 H1962 0.930 . S
C1972 C1971 1.400 . S
C1972 C1975 1.386 . S
H1973 C1989 0.930 . S
H1974 C1990 0.931 . S
C1975 H1963 0.929 . S
C1975 C1969 1.390 . S
C1975 C1972 1.386 . S
C1976 C1971 1.490 . S
C1976 C1978 1.395 . S
C1976 C1979 1.403 . S
H1977 C1983 0.930 . S
C1978 H1964 0.930 . S
C1978 C1976 1.395 . S
C1978 C1981 1.403 . S
C1979 C1976 1.403 . S
C1979 C1980 1.524 . S
C1979 C1983 1.400 . S
C1980 H1965 0.960 . S
C1980 H1966 0.960 . S
C1980 H1967 0.960 . S
C1980 C1979 1.524 . S
C1981 C1978 1.403 . S
C1981 C1982 1.392 . S
C1981 C1985 1.495 . S
C1982 C1981 1.392 . S
C1982 C1983 1.385 . S
C1982 C1984 1.478 . S
C1983 H1977 0.930 . S
C1983 C1979 1.400 . S
C1983 C1982 1.385 . S
C1984 C1982 1.478 . S
C1984 C1986 1.381 . S
C1984 C1990 1.383 . S
C1985 C1981 1.495 . S
C1985 H1991 0.959 . S
C1985 H1992 0.961 . S
C1985 H1993 0.960 . S
C1986 C1984 1.381 . S
C1986 C1987 1.394 . S
C1986 H1994 0.930 . S
C1987 C1986 1.394 . S
C1987 C1988 1.383 . S
C1987 H1995 0.929 . S
C1988 C1987 1.383 . S
C1988 C1989 1.377 . S
C1989 H1973 0.930 . S
C1989 C1988 1.377 . S
C1989 C1990 1.379 . S
C1990 H1974 0.931 . S
C1990 C1984 1.383 . S
C1990 C1989 1.379 . S
H1991 C1985 0.959 . S
H1992 C1985 0.961 . S
H1993 C1985 0.960 . S
H1994 C1986 0.930 . S
H1995 C1987 0.929 . S
H1996 C2004 0.929 . S
H1997 C2006 0.930 . S
H1998 C2008 0.930 . S
H1999 C2011 0.929 . S
H2000 C2014 0.930 . S
H2001 C2016 0.960 . S
H2002 C2016 0.960 . S
H2003 C2016 0.960 . S
C2004 H1996 0.929 . S
C2004 C2005 1.377 . S
C2004 C2006 1.384 . S
C2005 C2004 1.377 . S
C2005 C2011 1.390 . S
C2006 H1997 0.930 . S
C2006 C2004 1.384 . S
C2006 C2007 1.372 . S
C2007 C2006 1.372 . S
C2007 C2008 1.400 . S
C2007 C2012 1.490 . S
C2008 H1998 0.930 . S
C2008 C2007 1.400 . S
C2008 C2011 1.386 . S
H2009 C2025 0.930 . S
H2010 C2026 0.931 . S
C2011 H1999 0.929 . S
C2011 C2005 1.390 . S
C2011 C2008 1.386 . S
C2012 C2007 1.490 . S
C2012 C2014 1.395 . S
C2012 C2015 1.403 . S
H2013 C2019 0.930 . S
C2014 H2000 0.930 . S
C2014 C2012 1.395 . S
C2014 C2017 1.403 . S
C2015 C2012 1.403 . S
C2015 C2016 1.524 . S
C2015 C2019 1.400 . S
C2016 H2001 0.960 . S
C2016 H2002 0.960 . S
C2016 H2003 0.960 . S
C2016 C2015 1.524 . S
C2017 C2014 1.403 . S
C2017 C2018 1.392 . S
C2017 C2021 1.495 . S
C2018 C2017 1.392 . S
C2018 C2019 1.385 . S
C2018 C2020 1.478 . S
C2019 H2013 0.930 . S
C2019 C2015 1.400 . S
C2019 C2018 1.385 . S
C2020 C2018 1.478 . S
C2020 C2022 1.381 . S
C2020 C2026 1.383 . S
C2021 C2017 1.495 . S
C2021 H2027 0.959 . S
C2021 H2028 0.961 . S
C2021 H2029 0.960 . S
C2022 C2020 1.381 . S
C2022 C2023 1.394 . S
C2022 H2030 0.930 . S
C2023 C2022 1.394 . S
C2023 C2024 1.383 . S
C2023 H2031 0.929 . S
C2024 C2023 1.383 . S
C2024 C2025 1.377 . S
C2025 H2009 0.930 . S
C2025 C2024 1.377 . S
C2025 C2026 1.379 . S
C2026 H2010 0.931 . S
C2026 C2020 1.383 . S
C2026 C2025 1.379 . S
H2027 C2021 0.959 . S
H2028 C2021 0.961 . S
H2029 C2021 0.960 . S
H2030 C2022 0.930 . S
H2031 C2023 0.929 . S
H2032 C2040 0.929 . S
H2033 C2042 0.930 . S
H2034 C2044 0.930 . S
H2035 C2047 0.929 . S
H2036 C2050 0.930 . S
H2037 C2052 0.960 . S
H2038 C2052 0.960 . S
H2039 C2052 0.960 . S
C2040 H2032 0.929 . S
C2040 C2041 1.377 . S
C2040 C2042 1.384 . S
C2041 C2040 1.377 . S
C2041 C2047 1.390 . S
C2042 H2033 0.930 . S
C2042 C2040 1.384 . S
C2042 C2043 1.372 . S
C2043 C2042 1.372 . S
C2043 C2044 1.400 . S
C2043 C2048 1.490 . S
C2044 H2034 0.930 . S
C2044 C2043 1.400 . S
C2044 C2047 1.386 . S
H2045 C2061 0.930 . S
H2046 C2062 0.931 . S
C2047 H2035 0.929 . S
C2047 C2041 1.390 . S
C2047 C2044 1.386 . S
C2048 C2043 1.490 . S
C2048 C2050 1.395 . S
C2048 C2051 1.403 . S
H2049 C2055 0.930 . S
C2050 H2036 0.930 . S
C2050 C2048 1.395 . S
C2050 C2053 1.403 . S
C2051 C2048 1.403 . S
C2051 C2052 1.524 . S
C2051 C2055 1.400 . S
C2052 H2037 0.960 . S
C2052 H2038 0.960 . S
C2052 H2039 0.960 . S
C2052 C2051 1.524 . S
C2053 C2050 1.403 . S
C2053 C2054 1.392 . S
C2053 C2057 1.495 . S
C2054 C2053 1.392 . S
C2054 C2055 1.385 . S
C2054 C2056 1.478 . S
C2055 H2049 0.930 . S
C2055 C2051 1.400 . S
C2055 C2054 1.385 . S
C2056 C2054 1.478 . S
C2056 C2058 1.381 . S
C2056 C2062 1.383 . S
C2057 C2053 1.495 . S
C2057 H2063 0.959 . S
C2057 H2064 0.961 . S
C2057 H2065 0.960 . S
C2058 C2056 1.381 . S
C2058 C2059 1.394 . S
C2058 H2066 0.930 . S
C2059 C2058 1.394 . S
C2059 C2060 1.383 . S
C2059 H2067 0.929 . S
C2060 C2059 1.383 . S
C2060 C2061 1.377 . S
C2061 H2045 0.930 . S
C2061 C2060 1.377 . S
C2061 C2062 1.379 . S
C2062 H2046 0.931 . S
C2062 C2056 1.383 . S
C2062 C2061 1.379 . S
H2063 C2057 0.959 . S
H2064 C2057 0.961 . S
H2065 C2057 0.960 . S
H2066 C2058 0.930 . S
H2067 C2059 0.929 . S
H2068 C2076 0.929 . S
H2069 C2078 0.930 . S
H2070 C2080 0.930 . S
H2071 C2083 0.929 . S
H2072 C2086 0.930 . S
H2073 C2088 0.960 . S
H2074 C2088 0.960 . S
H2075 C2088 0.960 . S
C2076 H2068 0.929 . S
C2076 C2077 1.377 . S
C2076 C2078 1.384 . S
C2077 C2076 1.377 . S
C2077 C2083 1.390 . S
C2078 H2069 0.930 . S
C2078 C2076 1.384 . S
C2078 C2079 1.372 . S
C2079 C2078 1.372 . S
C2079 C2080 1.400 . S
C2079 C2084 1.490 . S
C2080 H2070 0.930 . S
C2080 C2079 1.400 . S
C2080 C2083 1.386 . S
H2081 C2097 0.930 . S
H2082 C2098 0.931 . S
C2083 H2071 0.929 . S
C2083 C2077 1.390 . S
C2083 C2080 1.386 . S
C2084 C2079 1.490 . S
C2084 C2086 1.395 . S
C2084 C2087 1.403 . S
H2085 C2091 0.930 . S
C2086 H2072 0.930 . S
C2086 C2084 1.395 . S
C2086 C2089 1.403 . S
C2087 C2084 1.403 . S
C2087 C2088 1.524 . S
C2087 C2091 1.400 . S
C2088 H2073 0.960 . S
C2088 H2074 0.960 . S
C2088 H2075 0.960 . S
C2088 C2087 1.524 . S
C2089 C2086 1.403 . S
C2089 C2090 1.392 . S
C2089 C2093 1.495 . S
C2090 C2089 1.392 . S
C2090 C2091 1.385 . S
C2090 C2092 1.478 . S
C2091 H2085 0.930 . S
C2091 C2087 1.400 . S
C2091 C2090 1.385 . S
C2092 C2090 1.478 . S
C2092 C2094 1.381 . S
C2092 C2098 1.383 . S
C2093 C2089 1.495 . S
C2093 H2099 0.959 . S
C2093 H2100 0.961 . S
C2093 H2101 0.960 . S
C2094 C2092 1.381 . S
C2094 C2095 1.394 . S
C2094 H2102 0.930 . S
C2095 C2094 1.394 . S
C2095 C2096 1.383 . S
C2095 H2103 0.929 . S
C2096 C2095 1.383 . S
C2096 C2097 1.377 . S
C2097 H2081 0.930 . S
C2097 C2096 1.377 . S
C2097 C2098 1.379 . S
C2098 H2082 0.931 . S
C2098 C2092 1.383 . S
C2098 C2097 1.379 . S
H2099 C2093 0.959 . S
H2100 C2093 0.961 . S
H2101 C2093 0.960 . S
H2102 C2094 0.930 . S
H2103 C2095 0.929 . S
H2104 C2112 0.929 . S
H2105 C2114 0.930 . S
H2106 C2116 0.930 . S
H2107 C2119 0.929 . S
H2108 C2122 0.930 . S
H2109 C2124 0.960 . S
H2110 C2124 0.960 . S
H2111 C2124 0.960 . S
C2112 H2104 0.929 . S
C2112 C2113 1.377 . S
C2112 C2114 1.384 . S
C2113 C2112 1.377 . S
C2113 C2119 1.390 . S
C2114 H2105 0.930 . S
C2114 C2112 1.384 . S
C2114 C2115 1.372 . S
C2115 C2114 1.372 . S
C2115 C2116 1.400 . S
C2115 C2120 1.490 . S
C2116 H2106 0.930 . S
C2116 C2115 1.400 . S
C2116 C2119 1.386 . S
H2117 C2133 0.930 . S
H2118 C2134 0.931 . S
C2119 H2107 0.929 . S
C2119 C2113 1.390 . S
C2119 C2116 1.386 . S
C2120 C2115 1.490 . S
C2120 C2122 1.395 . S
C2120 C2123 1.403 . S
H2121 C2127 0.930 . S
C2122 H2108 0.930 . S
C2122 C2120 1.395 . S
C2122 C2125 1.403 . S
C2123 C2120 1.403 . S
C2123 C2124 1.524 . S
C2123 C2127 1.400 . S
C2124 H2109 0.960 . S
C2124 H2110 0.960 . S
C2124 H2111 0.960 . S
C2124 C2123 1.524 . S
C2125 C2122 1.403 . S
C2125 C2126 1.392 . S
C2125 C2129 1.495 . S
C2126 C2125 1.392 . S
C2126 C2127 1.385 . S
C2126 C2128 1.478 . S
C2127 H2121 0.930 . S
C2127 C2123 1.400 . S
C2127 C2126 1.385 . S
C2128 C2126 1.478 . S
C2128 C2130 1.381 . S
C2128 C2134 1.383 . S
C2129 C2125 1.495 . S
C2129 H2135 0.959 . S
C2129 H2136 0.961 . S
C2129 H2137 0.960 . S
C2130 C2128 1.381 . S
C2130 C2131 1.394 . S
C2130 H2138 0.930 . S
C2131 C2130 1.394 . S
C2131 C2132 1.383 . S
C2131 H2139 0.929 . S
C2132 C2131 1.383 . S
C2132 C2133 1.377 . S
C2133 H2117 0.930 . S
C2133 C2132 1.377 . S
C2133 C2134 1.379 . S
C2134 H2118 0.931 . S
C2134 C2128 1.383 . S
C2134 C2133 1.379 . S
H2135 C2129 0.959 . S
H2136 C2129 0.961 . S
H2137 C2129 0.960 . S
H2138 C2130 0.930 . S
H2139 C2131 0.929 . S
H2140 C2148 0.929 . S
H2141 C2150 0.930 . S
H2142 C2152 0.930 . S
H2143 C2155 0.929 . S
H2144 C2158 0.930 . S
H2145 C2160 0.960 . S
H2146 C2160 0.960 . S
H2147 C2160 0.960 . S
C2148 H2140 0.929 . S
C2148 C2149 1.377 . S
C2148 C2150 1.384 . S
C2149 C2148 1.377 . S
C2149 C2155 1.390 . S
C2150 H2141 0.930 . S
C2150 C2148 1.384 . S
C2150 C2151 1.372 . S
C2151 C2150 1.372 . S
C2151 C2152 1.400 . S
C2151 C2156 1.490 . S
C2152 H2142 0.930 . S
C2152 C2151 1.400 . S
C2152 C2155 1.386 . S
H2153 C2169 0.930 . S
H2154 C2170 0.931 . S
C2155 H2143 0.929 . S
C2155 C2149 1.390 . S
C2155 C2152 1.386 . S
C2156 C2151 1.490 . S
C2156 C2158 1.395 . S
C2156 C2159 1.403 . S
H2157 C2163 0.930 . S
C2158 H2144 0.930 . S
C2158 C2156 1.395 . S
C2158 C2161 1.403 . S
C2159 C2156 1.403 . S
C2159 C2160 1.524 . S
C2159 C2163 1.400 . S
C2160 H2145 0.960 . S
C2160 H2146 0.960 . S
C2160 H2147 0.960 . S
C2160 C2159 1.524 . S
C2161 C2158 1.403 . S
C2161 C2162 1.392 . S
C2161 C2165 1.495 . S
C2162 C2161 1.392 . S
C2162 C2163 1.385 . S
C2162 C2164 1.478 . S
C2163 H2157 0.930 . S
C2163 C2159 1.400 . S
C2163 C2162 1.385 . S
C2164 C2162 1.478 . S
C2164 C2166 1.381 . S
C2164 C2170 1.383 . S
C2165 C2161 1.495 . S
C2165 H2171 0.959 . S
C2165 H2172 0.961 . S
C2165 H2173 0.960 . S
C2166 C2164 1.381 . S
C2166 C2167 1.394 . S
C2166 H2174 0.930 . S
C2167 C2166 1.394 . S
C2167 C2168 1.383 . S
C2167 H2175 0.929 . S
C2168 C2167 1.383 . S
C2168 C2169 1.377 . S
C2169 H2153 0.930 . S
C2169 C2168 1.377 . S
C2169 C2170 1.379 . S
C2170 H2154 0.931 . S
C2170 C2164 1.383 . S
C2170 C2169 1.379 . S
H2171 C2165 0.959 . S
H2172 C2165 0.961 . S
H2173 C2165 0.960 . S
H2174 C2166 0.930 . S
H2175 C2167 0.929 . S
H2176 C2184 0.929 . S
H2177 C2186 0.930 . S
H2178 C2188 0.930 . S
H2179 C2191 0.929 . S
H2180 C2194 0.930 . S
H2181 C2196 0.960 . S
H2182 C2196 0.960 . S
H2183 C2196 0.960 . S
C2184 H2176 0.929 . S
C2184 C2185 1.377 . S
C2184 C2186 1.384 . S
C2185 C2184 1.377 . S
C2185 C2191 1.390 . S
C2186 H2177 0.930 . S
C2186 C2184 1.384 . S
C2186 C2187 1.372 . S
C2187 C2186 1.372 . S
C2187 C2188 1.400 . S
C2187 C2192 1.490 . S
C2188 H2178 0.930 . S
C2188 C2187 1.400 . S
C2188 C2191 1.386 . S
H2189 C2205 0.930 . S
H2190 C2206 0.931 . S
C2191 H2179 0.929 . S
C2191 C2185 1.390 . S
C2191 C2188 1.386 . S
C2192 C2187 1.490 . S
C2192 C2194 1.395 . S
C2192 C2195 1.403 . S
H2193 C2199 0.930 . S
C2194 H2180 0.930 . S
C2194 C2192 1.395 . S
C2194 C2197 1.403 . S
C2195 C2192 1.403 . S
C2195 C2196 1.524 . S
C2195 C2199 1.400 . S
C2196 H2181 0.960 . S
C2196 H2182 0.960 . S
C2196 H2183 0.960 . S
C2196 C2195 1.524 . S
C2197 C2194 1.403 . S
C2197 C2198 1.392 . S
C2197 C2201 1.495 . S
C2198 C2197 1.392 . S
C2198 C2199 1.385 . S
C2198 C2200 1.478 . S
C2199 H2193 0.930 . S
C2199 C2195 1.400 . S
C2199 C2198 1.385 . S
C2200 C2198 1.478 . S
C2200 C2202 1.381 . S
C2200 C2206 1.383 . S
C2201 C2197 1.495 . S
C2201 H2207 0.959 . S
C2201 H2208 0.961 . S
C2201 H2209 0.960 . S
C2202 C2200 1.381 . S
C2202 C2203 1.394 . S
C2202 H2210 0.930 . S
C2203 C2202 1.394 . S
C2203 C2204 1.383 . S
C2203 H2211 0.929 . S
C2204 C2203 1.383 . S
C2204 C2205 1.377 . S
C2205 H2189 0.930 . S
C2205 C2204 1.377 . S
C2205 C2206 1.379 . S
C2206 H2190 0.931 . S
C2206 C2200 1.383 . S
C2206 C2205 1.379 . S
H2207 C2201 0.959 . S
H2208 C2201 0.961 . S
H2209 C2201 0.960 . S
H2210 C2202 0.930 . S
H2211 C2203 0.929 . S
H2212 C2220 0.929 . S
H2213 C2222 0.930 . S
H2214 C2224 0.930 . S
H2215 C2227 0.929 . S
H2216 C2230 0.930 . S
H2217 C2232 0.960 . S
H2218 C2232 0.960 . S
H2219 C2232 0.960 . S
C2220 H2212 0.929 . S
C2220 C2221 1.377 . S
C2220 C2222 1.384 . S
C2221 C2220 1.377 . S
C2221 C2227 1.390 . S
C2222 H2213 0.930 . S
C2222 C2220 1.384 . S
C2222 C2223 1.372 . S
C2223 C2222 1.372 . S
C2223 C2224 1.400 . S
C2223 C2228 1.490 . S
C2224 H2214 0.930 . S
C2224 C2223 1.400 . S
C2224 C2227 1.386 . S
H2225 C2241 0.930 . S
H2226 C2242 0.931 . S
C2227 H2215 0.929 . S
C2227 C2221 1.390 . S
C2227 C2224 1.386 . S
C2228 C2223 1.490 . S
C2228 C2230 1.395 . S
C2228 C2231 1.403 . S
H2229 C2235 0.930 . S
C2230 H2216 0.930 . S
C2230 C2228 1.395 . S
C2230 C2233 1.403 . S
C2231 C2228 1.403 . S
C2231 C2232 1.524 . S
C2231 C2235 1.400 . S
C2232 H2217 0.960 . S
C2232 H2218 0.960 . S
C2232 H2219 0.960 . S
C2232 C2231 1.524 . S
C2233 C2230 1.403 . S
C2233 C2234 1.392 . S
C2233 C2237 1.495 . S
C2234 C2233 1.392 . S
C2234 C2235 1.385 . S
C2234 C2236 1.478 . S
C2235 H2229 0.930 . S
C2235 C2231 1.400 . S
C2235 C2234 1.385 . S
C2236 C2234 1.478 . S
C2236 C2238 1.381 . S
C2236 C2242 1.383 . S
C2237 C2233 1.495 . S
C2237 H2243 0.959 . S
C2237 H2244 0.961 . S
C2237 H2245 0.960 . S
C2238 C2236 1.381 . S
C2238 C2239 1.394 . S
C2238 H2246 0.930 . S
C2239 C2238 1.394 . S
C2239 C2240 1.383 . S
C2239 H2247 0.929 . S
C2240 C2239 1.383 . S
C2240 C2241 1.377 . S
C2241 H2225 0.930 . S
C2241 C2240 1.377 . S
C2241 C2242 1.379 . S
C2242 H2226 0.931 . S
C2242 C2236 1.383 . S
C2242 C2241 1.379 . S
H2243 C2237 0.959 . S
H2244 C2237 0.961 . S
H2245 C2237 0.960 . S
H2246 C2238 0.930 . S
H2247 C2239 0.929 . S
H2248 C2256 0.929 . S
H2249 C2258 0.930 . S
H2250 C2260 0.930 . S
H2251 C2263 0.929 . S
H2252 C2266 0.930 . S
H2253 C2268 0.960 . S
H2254 C2268 0.960 . S
H2255 C2268 0.960 . S
C2256 H2248 0.929 . S
C2256 C2257 1.377 . S
C2256 C2258 1.384 . S
C2257 C2256 1.377 . S
C2257 C2263 1.390 . S
C2258 H2249 0.930 . S
C2258 C2256 1.384 . S
C2258 C2259 1.372 . S
C2259 C2258 1.372 . S
C2259 C2260 1.400 . S
C2259 C2264 1.490 . S
C2260 H2250 0.930 . S
C2260 C2259 1.400 . S
C2260 C2263 1.386 . S
H2261 C2277 0.930 . S
H2262 C2278 0.931 . S
C2263 H2251 0.929 . S
C2263 C2257 1.390 . S
C2263 C2260 1.386 . S
C2264 C2259 1.490 . S
C2264 C2266 1.395 . S
C2264 C2267 1.403 . S
H2265 C2271 0.930 . S
C2266 H2252 0.930 . S
C2266 C2264 1.395 . S
C2266 C2269 1.403 . S
C2267 C2264 1.403 . S
C2267 C2268 1.524 . S
C2267 C2271 1.400 . S
C2268 H2253 0.960 . S
C2268 H2254 0.960 . S
C2268 H2255 0.960 . S
C2268 C2267 1.524 . S
C2269 C2266 1.403 . S
C2269 C2270 1.392 . S
C2269 C2273 1.495 . S
C2270 C2269 1.392 . S
C2270 C2271 1.385 . S
C2270 C2272 1.478 . S
C2271 H2265 0.930 . S
C2271 C2267 1.400 . S
C2271 C2270 1.385 . S
C2272 C2270 1.478 . S
C2272 C2274 1.381 . S
C2272 C2278 1.383 . S
C2273 C2269 1.495 . S
C2273 H2279 0.959 . S
C2273 H2280 0.961 . S
C2273 H2281 0.960 . S
C2274 C2272 1.381 . S
C2274 C2275 1.394 . S
C2274 H2282 0.930 . S
C2275 C2274 1.394 . S
C2275 C2276 1.383 . S
C2275 H2283 0.929 . S
C2276 C2275 1.383 . S
C2276 C2277 1.377 . S
C2277 H2261 0.930 . S
C2277 C2276 1.377 . S
C2277 C2278 1.379 . S
C2278 H2262 0.931 . S
C2278 C2272 1.383 . S
C2278 C2277 1.379 . S
H2279 C2273 0.959 . S
H2280 C2273 0.961 . S
H2281 C2273 0.960 . S
H2282 C2274 0.930 . S
H2283 C2275 0.929 . S
H2284 C2292 0.929 . S
H2285 C2294 0.930 . S
H2286 C2296 0.930 . S
H2287 C2299 0.929 . S
H2288 C2302 0.930 . S
H2289 C2304 0.960 . S
H2290 C2304 0.960 . S
H2291 C2304 0.960 . S
C2292 H2284 0.929 . S
C2292 C2293 1.377 . S
C2292 C2294 1.384 . S
C2293 C2292 1.377 . S
C2293 C2299 1.390 . S
C2294 H2285 0.930 . S
C2294 C2292 1.384 . S
C2294 C2295 1.372 . S
C2295 C2294 1.372 . S
C2295 C2296 1.400 . S
C2295 C2300 1.490 . S
C2296 H2286 0.930 . S
C2296 C2295 1.400 . S
C2296 C2299 1.386 . S
H2297 C2313 0.930 . S
H2298 C2314 0.931 . S
C2299 H2287 0.929 . S
C2299 C2293 1.390 . S
C2299 C2296 1.386 . S
C2300 C2295 1.490 . S
C2300 C2302 1.395 . S
C2300 C2303 1.403 . S
H2301 C2307 0.930 . S
C2302 H2288 0.930 . S
C2302 C2300 1.395 . S
C2302 C2305 1.403 . S
C2303 C2300 1.403 . S
C2303 C2304 1.524 . S
C2303 C2307 1.400 . S
C2304 H2289 0.960 . S
C2304 H2290 0.960 . S
C2304 H2291 0.960 . S
C2304 C2303 1.524 . S
C2305 C2302 1.403 . S
C2305 C2306 1.392 . S
C2305 C2309 1.495 . S
C2306 C2305 1.392 . S
C2306 C2307 1.385 . S
C2306 C2308 1.478 . S
C2307 H2301 0.930 . S
C2307 C2303 1.400 . S
C2307 C2306 1.385 . S
C2308 C2306 1.478 . S
C2308 C2310 1.381 . S
C2308 C2314 1.383 . S
C2309 C2305 1.495 . S
C2309 H2315 0.959 . S
C2309 H2316 0.961 . S
C2309 H2317 0.960 . S
C2310 C2308 1.381 . S
C2310 C2311 1.394 . S
C2310 H2318 0.930 . S
C2311 C2310 1.394 . S
C2311 C2312 1.383 . S
C2311 H2319 0.929 1_655 S
C2312 C2311 1.383 . S
C2312 C2313 1.377 . S
C2313 H2297 0.930 . S
C2313 C2312 1.377 . S
C2313 C2314 1.379 . S
C2314 H2298 0.931 . S
C2314 C2308 1.383 . S
C2314 C2313 1.379 . S
H2315 C2309 0.959 . S
H2316 C2309 0.961 . S
H2317 C2309 0.960 . S
H2318 C2310 0.930 . S
H2319 C2311 0.929 1_455 S
H2320 C2328 0.929 . S
H2321 C2330 0.930 . S
H2322 C2332 0.930 . S
H2323 C2335 0.929 . S
H2324 C2338 0.930 . S
H2325 C2340 0.960 . S
H2326 C2340 0.960 . S
H2327 C2340 0.960 . S
C2328 H2320 0.929 . S
C2328 C2329 1.377 . S
C2328 C2330 1.384 . S
C2329 C2328 1.377 . S
C2329 C2335 1.390 . S
C2330 H2321 0.930 . S
C2330 C2328 1.384 . S
C2330 C2331 1.372 . S
C2331 C2330 1.372 . S
C2331 C2332 1.400 . S
C2331 C2336 1.490 . S
C2332 H2322 0.930 . S
C2332 C2331 1.400 . S
C2332 C2335 1.386 . S
H2333 C2349 0.930 . S
H2334 C2350 0.931 . S
C2335 H2323 0.929 . S
C2335 C2329 1.390 . S
C2335 C2332 1.386 . S
C2336 C2331 1.490 . S
C2336 C2338 1.395 . S
C2336 C2339 1.403 . S
H2337 C2343 0.930 . S
C2338 H2324 0.930 . S
C2338 C2336 1.395 . S
C2338 C2341 1.403 . S
C2339 C2336 1.403 . S
C2339 C2340 1.524 . S
C2339 C2343 1.400 . S
C2340 H2325 0.960 . S
C2340 H2326 0.960 . S
C2340 H2327 0.960 . S
C2340 C2339 1.524 . S
C2341 C2338 1.403 . S
C2341 C2342 1.392 . S
C2341 C2345 1.495 . S
C2342 C2341 1.392 . S
C2342 C2343 1.385 . S
C2342 C2344 1.478 . S
C2343 H2337 0.930 . S
C2343 C2339 1.400 . S
C2343 C2342 1.385 . S
C2344 C2342 1.478 . S
C2344 C2346 1.381 . S
C2344 C2350 1.383 . S
C2345 C2341 1.495 . S
C2345 H2351 0.959 . S
C2345 H2352 0.961 . S
C2345 H2353 0.960 . S
C2346 C2344 1.381 . S
C2346 C2347 1.394 . S
C2346 H2354 0.930 . S
C2347 C2346 1.394 . S
C2347 C2348 1.383 . S
C2347 H2355 0.929 . S
C2348 C2347 1.383 . S
C2348 C2349 1.377 . S
C2349 H2333 0.930 . S
C2349 C2348 1.377 . S
C2349 C2350 1.379 . S
C2350 H2334 0.931 . S
C2350 C2344 1.383 . S
C2350 C2349 1.379 . S
H2351 C2345 0.959 . S
H2352 C2345 0.961 . S
H2353 C2345 0.960 . S
H2354 C2346 0.930 . S
H2355 C2347 0.929 . S
H2356 C2364 0.929 . S
H2357 C2366 0.930 . S
H2358 C2368 0.930 . S
H2359 C2371 0.929 1_455 S
H2360 C2374 0.930 . S
H2361 C2376 0.960 . S
H2362 C2376 0.960 . S
H2363 C2376 0.960 . S
C2364 H2356 0.929 . S
C2364 C2365 1.377 . S
C2364 C2366 1.384 . S
C2365 C2364 1.377 . S
C2365 C2371 1.390 . S
C2366 H2357 0.930 . S
C2366 C2364 1.384 . S
C2366 C2367 1.372 . S
C2367 C2366 1.372 . S
C2367 C2368 1.400 . S
C2367 C2372 1.490 . S
C2368 H2358 0.930 . S
C2368 C2367 1.400 . S
C2368 C2371 1.386 . S
H2369 C2385 0.930 . S
H2370 C2386 0.931 . S
C2371 H2359 0.929 1_655 S
C2371 C2365 1.390 . S
C2371 C2368 1.386 . S
C2372 C2367 1.490 . S
C2372 C2374 1.395 . S
C2372 C2375 1.403 . S
H2373 C2379 0.930 . S
C2374 H2360 0.930 . S
C2374 C2372 1.395 . S
C2374 C2377 1.403 . S
C2375 C2372 1.403 . S
C2375 C2376 1.524 . S
C2375 C2379 1.400 . S
C2376 H2361 0.960 . S
C2376 H2362 0.960 . S
C2376 H2363 0.960 . S
C2376 C2375 1.524 . S
C2377 C2374 1.403 . S
C2377 C2378 1.392 . S
C2377 C2381 1.495 . S
C2378 C2377 1.392 . S
C2378 C2379 1.385 . S
C2378 C2380 1.478 . S
C2379 H2373 0.930 . S
C2379 C2375 1.400 . S
C2379 C2378 1.385 . S
C2380 C2378 1.478 . S
C2380 C2382 1.381 . S
C2380 C2386 1.383 . S
C2381 C2377 1.495 . S
C2381 H2387 0.959 . S
C2381 H2388 0.961 . S
C2381 H2389 0.960 . S
C2382 C2380 1.381 . S
C2382 C2383 1.394 . S
C2382 H2390 0.930 . S
C2383 C2382 1.394 . S
C2383 C2384 1.383 . S
C2383 H2391 0.929 . S
C2384 C2383 1.383 . S
C2384 C2385 1.377 . S
C2385 H2369 0.930 . S
C2385 C2384 1.377 . S
C2385 C2386 1.379 . S
C2386 H2370 0.931 . S
C2386 C2380 1.383 . S
C2386 C2385 1.379 . S
H2387 C2381 0.959 . S
H2388 C2381 0.961 . S
H2389 C2381 0.960 . S
H2390 C2382 0.930 . S
H2391 C2383 0.929 . S
H2392 C2400 0.929 . S
H2393 C2402 0.930 . S
H2394 C2404 0.930 . S
H2395 C2407 0.929 . S
H2396 C2410 0.930 . S
H2397 C2412 0.960 . S
H2398 C2412 0.960 . S
H2399 C2412 0.960 . S
C2400 H2392 0.929 . S
C2400 C2401 1.377 . S
C2400 C2402 1.384 . S
C2401 C2400 1.377 . S
C2401 C2407 1.390 . S
C2402 H2393 0.930 . S
C2402 C2400 1.384 . S
C2402 C2403 1.372 . S
C2403 C2402 1.372 . S
C2403 C2404 1.400 . S
C2403 C2408 1.490 . S
C2404 H2394 0.930 . S
C2404 C2403 1.400 . S
C2404 C2407 1.386 . S
H2405 C2421 0.930 . S
H2406 C2422 0.931 . S
C2407 H2395 0.929 . S
C2407 C2401 1.390 . S
C2407 C2404 1.386 . S
C2408 C2403 1.490 . S
C2408 C2410 1.395 . S
C2408 C2411 1.403 . S
H2409 C2415 0.930 . S
C2410 H2396 0.930 . S
C2410 C2408 1.395 . S
C2410 C2413 1.403 . S
C2411 C2408 1.403 . S
C2411 C2412 1.524 . S
C2411 C2415 1.400 . S
C2412 H2397 0.960 . S
C2412 H2398 0.960 . S
C2412 H2399 0.960 . S
C2412 C2411 1.524 . S
C2413 C2410 1.403 . S
C2413 C2414 1.392 . S
C2413 C2417 1.495 . S
C2414 C2413 1.392 . S
C2414 C2415 1.385 . S
C2414 C2416 1.478 . S
C2415 H2409 0.930 . S
C2415 C2411 1.400 . S
C2415 C2414 1.385 . S
C2416 C2414 1.478 . S
C2416 C2418 1.381 . S
C2416 C2422 1.383 . S
C2417 C2413 1.495 . S
C2417 H2423 0.959 . S
C2417 H2424 0.961 . S
C2417 H2425 0.960 . S
C2418 C2416 1.381 . S
C2418 C2419 1.394 . S
C2418 H2426 0.930 . S
C2419 C2418 1.394 . S
C2419 C2420 1.383 . S
C2419 H2427 0.929 . S
C2420 C2419 1.383 . S
C2420 C2421 1.377 . S
C2421 H2405 0.930 . S
C2421 C2420 1.377 . S
C2421 C2422 1.379 . S
C2422 H2406 0.931 . S
C2422 C2416 1.383 . S
C2422 C2421 1.379 . S
H2423 C2417 0.959 . S
H2424 C2417 0.961 . S
H2425 C2417 0.960 . S
H2426 C2418 0.930 . S
H2427 C2419 0.929 . S
H2428 C2436 0.929 . S
H2429 C2438 0.930 . S
H2430 C2440 0.930 . S
H2431 C2443 0.929 . S
H2432 C2446 0.930 . S
H2433 C2448 0.960 . S
H2434 C2448 0.960 . S
H2435 C2448 0.960 . S
C2436 H2428 0.929 . S
C2436 C2437 1.377 . S
C2436 C2438 1.384 . S
C2437 C2436 1.377 . S
C2437 C2443 1.390 . S
C2438 H2429 0.930 . S
C2438 C2436 1.384 . S
C2438 C2439 1.372 . S
C2439 C2438 1.372 . S
C2439 C2440 1.400 . S
C2439 C2444 1.490 . S
C2440 H2430 0.930 . S
C2440 C2439 1.400 . S
C2440 C2443 1.386 . S
H2441 C2457 0.930 . S
H2442 C2458 0.931 . S
C2443 H2431 0.929 . S
C2443 C2437 1.390 . S
C2443 C2440 1.386 . S
C2444 C2439 1.490 . S
C2444 C2446 1.395 . S
C2444 C2447 1.403 . S
H2445 C2451 0.930 . S
C2446 H2432 0.930 . S
C2446 C2444 1.395 . S
C2446 C2449 1.403 . S
C2447 C2444 1.403 . S
C2447 C2448 1.524 . S
C2447 C2451 1.400 . S
C2448 H2433 0.960 . S
C2448 H2434 0.960 . S
C2448 H2435 0.960 . S
C2448 C2447 1.524 . S
C2449 C2446 1.403 . S
C2449 C2450 1.392 . S
C2449 C2453 1.495 . S
C2450 C2449 1.392 . S
C2450 C2451 1.385 . S
C2450 C2452 1.478 . S
C2451 H2445 0.930 . S
C2451 C2447 1.400 . S
C2451 C2450 1.385 . S
C2452 C2450 1.478 . S
C2452 C2454 1.381 . S
C2452 C2458 1.383 . S
C2453 C2449 1.495 . S
C2453 H2459 0.959 . S
C2453 H2460 0.961 . S
C2453 H2461 0.960 . S
C2454 C2452 1.381 . S
C2454 C2455 1.394 . S
C2454 H2462 0.930 . S
C2455 C2454 1.394 . S
C2455 C2456 1.383 . S
C2455 H2463 0.929 . S
C2456 C2455 1.383 . S
C2456 C2457 1.377 . S
C2457 H2441 0.930 . S
C2457 C2456 1.377 . S
C2457 C2458 1.379 . S
C2458 H2442 0.931 . S
C2458 C2452 1.383 . S
C2458 C2457 1.379 . S
H2459 C2453 0.959 . S
H2460 C2453 0.961 . S
H2461 C2453 0.960 . S
H2462 C2454 0.930 . S
H2463 C2455 0.929 . S
H2464 C2472 0.929 . S
H2465 C2474 0.930 . S
H2466 C2476 0.930 . S
H2467 C2479 0.929 . S
H2468 C2482 0.930 . S
H2469 C2484 0.960 . S
H2470 C2484 0.960 . S
H2471 C2484 0.960 . S
C2472 H2464 0.929 . S
C2472 C2473 1.377 . S
C2472 C2474 1.384 . S
C2473 C2472 1.377 . S
C2473 C2479 1.390 . S
C2474 H2465 0.930 . S
C2474 C2472 1.384 . S
C2474 C2475 1.372 . S
C2475 C2474 1.372 . S
C2475 C2476 1.400 . S
C2475 C2480 1.490 . S
C2476 H2466 0.930 . S
C2476 C2475 1.400 . S
C2476 C2479 1.386 . S
H2477 C2493 0.930 . S
H2478 C2494 0.931 . S
C2479 H2467 0.929 . S
C2479 C2473 1.390 . S
C2479 C2476 1.386 . S
C2480 C2475 1.490 . S
C2480 C2482 1.395 . S
C2480 C2483 1.403 . S
H2481 C2487 0.930 . S
C2482 H2468 0.930 . S
C2482 C2480 1.395 . S
C2482 C2485 1.403 . S
C2483 C2480 1.403 . S
C2483 C2484 1.524 . S
C2483 C2487 1.400 . S
C2484 H2469 0.960 . S
C2484 H2470 0.960 . S
C2484 H2471 0.960 . S
C2484 C2483 1.524 . S
C2485 C2482 1.403 . S
C2485 C2486 1.392 . S
C2485 C2489 1.495 . S
C2486 C2485 1.392 . S
C2486 C2487 1.385 . S
C2486 C2488 1.478 . S
C2487 H2481 0.930 . S
C2487 C2483 1.400 . S
C2487 C2486 1.385 . S
C2488 C2486 1.478 . S
C2488 C2490 1.381 . S
C2488 C2494 1.383 . S
C2489 C2485 1.495 . S
C2489 H2495 0.959 . S
C2489 H2496 0.961 . S
C2489 H2497 0.960 . S
C2490 C2488 1.381 . S
C2490 C2491 1.394 . S
C2490 H2498 0.930 . S
C2491 C2490 1.394 . S
C2491 C2492 1.383 . S
C2491 H2499 0.929 . S
C2492 C2491 1.383 . S
C2492 C2493 1.377 . S
C2493 H2477 0.930 . S
C2493 C2492 1.377 . S
C2493 C2494 1.379 . S
C2494 H2478 0.931 . S
C2494 C2488 1.383 . S
C2494 C2493 1.379 . S
H2495 C2489 0.959 . S
H2496 C2489 0.961 . S
H2497 C2489 0.960 . S
H2498 C2490 0.930 . S
H2499 C2491 0.929 . S
H2500 C2508 0.929 . S
H2501 C2510 0.930 . S
H2502 C2512 0.930 . S
H2503 C2515 0.929 . S
H2504 C2518 0.930 . S
H2505 C2520 0.960 . S
H2506 C2520 0.960 . S
H2507 C2520 0.960 . S
C2508 H2500 0.929 . S
C2508 C2509 1.377 . S
C2508 C2510 1.384 . S
C2509 C2508 1.377 . S
C2509 C2515 1.390 . S
C2510 H2501 0.930 . S
C2510 C2508 1.384 . S
C2510 C2511 1.372 . S
C2511 C2510 1.372 . S
C2511 C2512 1.400 . S
C2511 C2516 1.490 . S
C2512 H2502 0.930 . S
C2512 C2511 1.400 . S
C2512 C2515 1.386 . S
H2513 C2529 0.930 . S
H2514 C2530 0.931 . S
C2515 H2503 0.929 . S
C2515 C2509 1.390 . S
C2515 C2512 1.386 . S
C2516 C2511 1.490 . S
C2516 C2518 1.395 . S
C2516 C2519 1.403 . S
H2517 C2523 0.930 . S
C2518 H2504 0.930 . S
C2518 C2516 1.395 . S
C2518 C2521 1.403 . S
C2519 C2516 1.403 . S
C2519 C2520 1.524 . S
C2519 C2523 1.400 . S
C2520 H2505 0.960 . S
C2520 H2506 0.960 . S
C2520 H2507 0.960 . S
C2520 C2519 1.524 . S
C2521 C2518 1.403 . S
C2521 C2522 1.392 . S
C2521 C2525 1.495 . S
C2522 C2521 1.392 . S
C2522 C2523 1.385 . S
C2522 C2524 1.478 . S
C2523 H2517 0.930 . S
C2523 C2519 1.400 . S
C2523 C2522 1.385 . S
C2524 C2522 1.478 . S
C2524 C2526 1.381 . S
C2524 C2530 1.383 . S
C2525 C2521 1.495 . S
C2525 H2531 0.959 . S
C2525 H2532 0.961 . S
C2525 H2533 0.960 . S
C2526 C2524 1.381 . S
C2526 C2527 1.394 . S
C2526 H2534 0.930 . S
C2527 C2526 1.394 . S
C2527 C2528 1.383 . S
C2527 H2535 0.929 . S
C2528 C2527 1.383 . S
C2528 C2529 1.377 . S
C2529 H2513 0.930 . S
C2529 C2528 1.377 . S
C2529 C2530 1.379 . S
C2530 H2514 0.931 . S
C2530 C2524 1.383 . S
C2530 C2529 1.379 . S
H2531 C2525 0.959 . S
H2532 C2525 0.961 . S
H2533 C2525 0.960 . S
H2534 C2526 0.930 . S
H2535 C2527 0.929 . S
H2536 C2544 0.929 . S
H2537 C2546 0.930 . S
H2538 C2548 0.930 . S
H2539 C2551 0.929 . S
H2540 C2554 0.930 . S
H2541 C2556 0.960 . S
H2542 C2556 0.960 . S
H2543 C2556 0.960 . S
C2544 H2536 0.929 . S
C2544 C2545 1.377 . S
C2544 C2546 1.384 . S
C2545 C2544 1.377 . S
C2545 C2551 1.390 . S
C2546 H2537 0.930 . S
C2546 C2544 1.384 . S
C2546 C2547 1.372 . S
C2547 C2546 1.372 . S
C2547 C2548 1.400 . S
C2547 C2552 1.490 . S
C2548 H2538 0.930 . S
C2548 C2547 1.400 . S
C2548 C2551 1.386 . S
H2549 C2565 0.930 . S
H2550 C2566 0.931 . S
C2551 H2539 0.929 . S
C2551 C2545 1.390 . S
C2551 C2548 1.386 . S
C2552 C2547 1.490 . S
C2552 C2554 1.395 . S
C2552 C2555 1.403 . S
H2553 C2559 0.930 . S
C2554 H2540 0.930 . S
C2554 C2552 1.395 . S
C2554 C2557 1.403 . S
C2555 C2552 1.403 . S
C2555 C2556 1.524 . S
C2555 C2559 1.400 . S
C2556 H2541 0.960 . S
C2556 H2542 0.960 . S
C2556 H2543 0.960 . S
C2556 C2555 1.524 . S
C2557 C2554 1.403 . S
C2557 C2558 1.392 . S
C2557 C2561 1.495 . S
C2558 C2557 1.392 . S
C2558 C2559 1.385 . S
C2558 C2560 1.478 . S
C2559 H2553 0.930 . S
C2559 C2555 1.400 . S
C2559 C2558 1.385 . S
C2560 C2558 1.478 . S
C2560 C2562 1.381 . S
C2560 C2566 1.383 . S
C2561 C2557 1.495 . S
C2561 H2567 0.959 . S
C2561 H2568 0.961 . S
C2561 H2569 0.960 . S
C2562 C2560 1.381 . S
C2562 C2563 1.394 . S
C2562 H2570 0.930 . S
C2563 C2562 1.394 . S
C2563 C2564 1.383 . S
C2563 H2571 0.929 . S
C2564 C2563 1.383 . S
C2564 C2565 1.377 . S
C2565 H2549 0.930 . S
C2565 C2564 1.377 . S
C2565 C2566 1.379 . S
C2566 H2550 0.931 . S
C2566 C2560 1.383 . S
C2566 C2565 1.379 . S
H2567 C2561 0.959 . S
H2568 C2561 0.961 . S
H2569 C2561 0.960 . S
H2570 C2562 0.930 . S
H2571 C2563 0.929 . S
H2572 C2580 0.929 1_655 S
H2573 C2582 0.930 . S
H2574 C2584 0.930 . S
H2575 C2587 0.929 . S
H2576 C2590 0.930 . S
H2577 C2592 0.960 . S
H2578 C2592 0.960 . S
H2579 C2592 0.960 . S
C2580 H2572 0.929 1_455 S
C2580 C2581 1.377 . S
C2580 C2582 1.384 . S
C2581 C2580 1.377 . S
C2581 C2587 1.390 . S
C2582 H2573 0.930 . S
C2582 C2580 1.384 . S
C2582 C2583 1.372 . S
C2583 C2582 1.372 . S
C2583 C2584 1.400 . S
C2583 C2588 1.490 . S
C2584 H2574 0.930 . S
C2584 C2583 1.400 . S
C2584 C2587 1.386 . S
H2585 C2601 0.930 . S
H2586 C2602 0.931 . S
C2587 H2575 0.929 . S
C2587 C2581 1.390 . S
C2587 C2584 1.386 . S
C2588 C2583 1.490 . S
C2588 C2590 1.395 . S
C2588 C2591 1.403 . S
H2589 C2595 0.930 . S
C2590 H2576 0.930 . S
C2590 C2588 1.395 . S
C2590 C2593 1.403 . S
C2591 C2588 1.403 . S
C2591 C2592 1.524 . S
C2591 C2595 1.400 . S
C2592 H2577 0.960 . S
C2592 H2578 0.960 . S
C2592 H2579 0.960 . S
C2592 C2591 1.524 . S
C2593 C2590 1.403 . S
C2593 C2594 1.392 . S
C2593 C2597 1.495 . S
C2594 C2593 1.392 . S
C2594 C2595 1.385 . S
C2594 C2596 1.478 . S
C2595 H2589 0.930 . S
C2595 C2591 1.400 . S
C2595 C2594 1.385 . S
C2596 C2594 1.478 . S
C2596 C2598 1.381 . S
C2596 C2602 1.383 . S
C2597 C2593 1.495 . S
C2597 H2603 0.959 . S
C2597 H2604 0.961 . S
C2597 H2605 0.960 . S
C2598 C2596 1.381 . S
C2598 C2599 1.394 . S
C2598 H2606 0.930 . S
C2599 C2598 1.394 . S
C2599 C2600 1.383 . S
C2599 H2607 0.929 . S
C2600 C2599 1.383 . S
C2600 C2601 1.377 . S
C2601 H2585 0.930 . S
C2601 C2600 1.377 . S
C2601 C2602 1.379 . S
C2602 H2586 0.931 . S
C2602 C2596 1.383 . S
C2602 C2601 1.379 . S
H2603 C2597 0.959 . S
H2604 C2597 0.961 . S
H2605 C2597 0.960 . S
H2606 C2598 0.930 . S
H2607 C2599 0.929 . S
H2608 C2616 0.929 . S
H2609 C2618 0.930 . S
H2610 C2620 0.930 . S
H2611 C2623 0.929 . S
H2612 C2626 0.930 . S
H2613 C2628 0.960 . S
H2614 C2628 0.960 . S
H2615 C2628 0.960 . S
C2616 H2608 0.929 . S
C2616 C2617 1.377 . S
C2616 C2618 1.384 . S
C2617 C2616 1.377 . S
C2617 C2623 1.390 . S
C2618 H2609 0.930 . S
C2618 C2616 1.384 . S
C2618 C2619 1.372 . S
C2619 C2618 1.372 . S
C2619 C2620 1.400 . S
C2619 C2624 1.490 . S
C2620 H2610 0.930 . S
C2620 C2619 1.400 . S
C2620 C2623 1.386 . S
H2621 C2637 0.930 . S
H2622 C2638 0.931 . S
C2623 H2611 0.929 . S
C2623 C2617 1.390 . S
C2623 C2620 1.386 . S
C2624 C2619 1.490 . S
C2624 C2626 1.395 . S
C2624 C2627 1.403 . S
H2625 C2631 0.930 . S
C2626 H2612 0.930 . S
C2626 C2624 1.395 . S
C2626 C2629 1.403 . S
C2627 C2624 1.403 . S
C2627 C2628 1.524 . S
C2627 C2631 1.400 . S
C2628 H2613 0.960 . S
C2628 H2614 0.960 . S
C2628 H2615 0.960 . S
C2628 C2627 1.524 . S
C2629 C2626 1.403 . S
C2629 C2630 1.392 . S
C2629 C2633 1.495 . S
C2630 C2629 1.392 . S
C2630 C2631 1.385 . S
C2630 C2632 1.478 . S
C2631 H2625 0.930 . S
C2631 C2627 1.400 . S
C2631 C2630 1.385 . S
C2632 C2630 1.478 . S
C2632 C2634 1.381 . S
C2632 C2638 1.383 . S
C2633 C2629 1.495 . S
C2633 H2639 0.959 . S
C2633 H2640 0.961 . S
C2633 H2641 0.960 . S
C2634 C2632 1.381 . S
C2634 C2635 1.394 . S
C2634 H2642 0.930 . S
C2635 C2634 1.394 . S
C2635 C2636 1.383 . S
C2635 H2643 0.929 . S
C2636 C2635 1.383 . S
C2636 C2637 1.377 . S
C2637 H2621 0.930 . S
C2637 C2636 1.377 . S
C2637 C2638 1.379 . S
C2638 H2622 0.931 . S
C2638 C2632 1.383 . S
C2638 C2637 1.379 . S
H2639 C2633 0.959 . S
H2640 C2633 0.961 . S
H2641 C2633 0.960 . S
H2642 C2634 0.930 . S
H2643 C2635 0.929 . S
H2644 C2652 0.929 . S
H2645 C2654 0.930 . S
H2646 C2656 0.930 . S
H2647 C2659 0.929 . S
H2648 C2662 0.930 . S
H2649 C2664 0.960 . S
H2650 C2664 0.960 . S
H2651 C2664 0.960 . S
C2652 H2644 0.929 . S
C2652 C2653 1.377 . S
C2652 C2654 1.384 . S
C2653 C2652 1.377 . S
C2653 C2659 1.390 . S
C2654 H2645 0.930 . S
C2654 C2652 1.384 . S
C2654 C2655 1.372 . S
C2655 C2654 1.372 . S
C2655 C2656 1.400 . S
C2655 C2660 1.490 . S
C2656 H2646 0.930 . S
C2656 C2655 1.400 . S
C2656 C2659 1.386 . S
H2657 C2673 0.930 . S
H2658 C2674 0.931 . S
C2659 H2647 0.929 . S
C2659 C2653 1.390 . S
C2659 C2656 1.386 . S
C2660 C2655 1.490 . S
C2660 C2662 1.395 . S
C2660 C2663 1.403 . S
H2661 C2667 0.930 . S
C2662 H2648 0.930 . S
C2662 C2660 1.395 . S
C2662 C2665 1.403 . S
C2663 C2660 1.403 . S
C2663 C2664 1.524 . S
C2663 C2667 1.400 . S
C2664 H2649 0.960 . S
C2664 H2650 0.960 . S
C2664 H2651 0.960 . S
C2664 C2663 1.524 . S
C2665 C2662 1.403 . S
C2665 C2666 1.392 . S
C2665 C2669 1.495 . S
C2666 C2665 1.392 . S
C2666 C2667 1.385 . S
C2666 C2668 1.478 . S
C2667 H2661 0.930 . S
C2667 C2663 1.400 . S
C2667 C2666 1.385 . S
C2668 C2666 1.478 . S
C2668 C2670 1.381 . S
C2668 C2674 1.383 . S
C2669 C2665 1.495 . S
C2669 H2675 0.959 . S
C2669 H2676 0.961 . S
C2669 H2677 0.960 . S
C2670 C2668 1.381 . S
C2670 C2671 1.394 . S
C2670 H2678 0.930 . S
C2671 C2670 1.394 . S
C2671 C2672 1.383 . S
C2671 H2679 0.929 . S
C2672 C2671 1.383 . S
C2672 C2673 1.377 . S
C2673 H2657 0.930 . S
C2673 C2672 1.377 . S
C2673 C2674 1.379 . S
C2674 H2658 0.931 . S
C2674 C2668 1.383 . S
C2674 C2673 1.379 . S
H2675 C2669 0.959 . S
H2676 C2669 0.961 . S
H2677 C2669 0.960 . S
H2678 C2670 0.930 . S
H2679 C2671 0.929 . S
H2680 C2688 0.929 . S
H2681 C2690 0.930 . S
H2682 C2692 0.930 . S
H2683 C2695 0.929 . S
H2684 C2698 0.930 . S
H2685 C2700 0.960 . S
H2686 C2700 0.960 . S
H2687 C2700 0.960 . S
C2688 H2680 0.929 . S
C2688 C2689 1.377 . S
C2688 C2690 1.384 . S
C2689 C2688 1.377 . S
C2689 C2695 1.390 . S
C2690 H2681 0.930 . S
C2690 C2688 1.384 . S
C2690 C2691 1.372 . S
C2691 C2690 1.372 . S
C2691 C2692 1.400 . S
C2691 C2696 1.490 . S
C2692 H2682 0.930 . S
C2692 C2691 1.400 . S
C2692 C2695 1.386 . S
H2693 C2709 0.930 . S
H2694 C2710 0.931 . S
C2695 H2683 0.929 . S
C2695 C2689 1.390 . S
C2695 C2692 1.386 . S
C2696 C2691 1.490 . S
C2696 C2698 1.395 . S
C2696 C2699 1.403 . S
H2697 C2703 0.930 . S
C2698 H2684 0.930 . S
C2698 C2696 1.395 . S
C2698 C2701 1.403 . S
C2699 C2696 1.403 . S
C2699 C2700 1.524 . S
C2699 C2703 1.400 . S
C2700 H2685 0.960 . S
C2700 H2686 0.960 . S
C2700 H2687 0.960 . S
C2700 C2699 1.524 . S
C2701 C2698 1.403 . S
C2701 C2702 1.392 . S
C2701 C2705 1.495 . S
C2702 C2701 1.392 . S
C2702 C2703 1.385 . S
C2702 C2704 1.478 . S
C2703 H2697 0.930 . S
C2703 C2699 1.400 . S
C2703 C2702 1.385 . S
C2704 C2702 1.478 . S
C2704 C2706 1.381 . S
C2704 C2710 1.383 . S
C2705 C2701 1.495 . S
C2705 H2711 0.959 . S
C2705 H2712 0.961 . S
C2705 H2713 0.960 . S
C2706 C2704 1.381 . S
C2706 C2707 1.394 . S
C2706 H2714 0.930 . S
C2707 C2706 1.394 . S
C2707 C2708 1.383 . S
C2707 H2715 0.929 . S
C2708 C2707 1.383 . S
C2708 C2709 1.377 . S
C2709 H2693 0.930 . S
C2709 C2708 1.377 . S
C2709 C2710 1.379 . S
C2710 H2694 0.931 . S
C2710 C2704 1.383 . S
C2710 C2709 1.379 . S
H2711 C2705 0.959 . S
H2712 C2705 0.961 . S
H2713 C2705 0.960 . S
H2714 C2706 0.930 . S
H2715 C2707 0.929 . S
H2716 C2724 0.929 . S
H2717 C2726 0.930 . S
H2718 C2728 0.930 . S
H2719 C2731 0.929 . S
H2720 C2734 0.930 . S
H2721 C2736 0.960 . S
H2722 C2736 0.960 . S
H2723 C2736 0.960 . S
C2724 H2716 0.929 . S
C2724 C2725 1.377 . S
C2724 C2726 1.384 . S
C2725 C2724 1.377 . S
C2725 C2731 1.390 . S
C2726 H2717 0.930 . S
C2726 C2724 1.384 . S
C2726 C2727 1.372 . S
C2727 C2726 1.372 . S
C2727 C2728 1.400 . S
C2727 C2732 1.490 . S
C2728 H2718 0.930 . S
C2728 C2727 1.400 . S
C2728 C2731 1.386 . S
H2729 C2745 0.930 . S
H2730 C2746 0.931 . S
C2731 H2719 0.929 . S
C2731 C2725 1.390 . S
C2731 C2728 1.386 . S
C2732 C2727 1.490 . S
C2732 C2734 1.395 . S
C2732 C2735 1.403 . S
H2733 C2739 0.930 . S
C2734 H2720 0.930 . S
C2734 C2732 1.395 . S
C2734 C2737 1.403 . S
C2735 C2732 1.403 . S
C2735 C2736 1.524 . S
C2735 C2739 1.400 . S
C2736 H2721 0.960 . S
C2736 H2722 0.960 . S
C2736 H2723 0.960 . S
C2736 C2735 1.524 . S
C2737 C2734 1.403 . S
C2737 C2738 1.392 . S
C2737 C2741 1.495 . S
C2738 C2737 1.392 . S
C2738 C2739 1.385 . S
C2738 C2740 1.478 . S
C2739 H2733 0.930 . S
C2739 C2735 1.400 . S
C2739 C2738 1.385 . S
C2740 C2738 1.478 . S
C2740 C2742 1.381 . S
C2740 C2746 1.383 . S
C2741 C2737 1.495 . S
C2741 H2747 0.959 . S
C2741 H2748 0.961 . S
C2741 H2749 0.960 . S
C2742 C2740 1.381 . S
C2742 C2743 1.394 . S
C2742 H2750 0.930 . S
C2743 C2742 1.394 . S
C2743 C2744 1.383 . S
C2743 H2751 0.929 . S
C2744 C2743 1.383 . S
C2744 C2745 1.377 . S
C2745 H2729 0.930 . S
C2745 C2744 1.377 . S
C2745 C2746 1.379 . S
C2746 H2730 0.931 . S
C2746 C2740 1.383 . S
C2746 C2745 1.379 . S
H2747 C2741 0.959 . S
H2748 C2741 0.961 . S
H2749 C2741 0.960 . S
H2750 C2742 0.930 . S
H2751 C2743 0.929 . S
C457 C67 1.484 . S
C476 C11 1.486 . S
C493 C81 1.487 . S
C512 C25 1.465 . S
C529 C95 1.484 . S
C548 C39 1.465 . S
C565 C53 1.483 . S
C584 C109 1.470 . S
C601 C123 1.479 . S
C620 C179 1.487 . S
C637 C193 1.487 . S
C656 C137 1.478 . S
C673 C151 1.486 . S
C692 C207 1.484 . S
C709 C221 1.482 . S
C728 C165 1.463 . S
C745 C235 1.480 . S
C764 C291 1.481 . S
C781 C305 1.482 . S
C800 C249 1.495 . S
C817 C319 1.486 . S
C836 C263 1.474 . S
C853 C333 1.480 . S
C872 C277 1.486 . S
C889 C347 1.479 . S
C908 C403 1.482 . S
C925 C361 1.486 . S
C944 C417 1.470 . S
C961 C375 1.481 . S
C980 C431 1.467 . S
C997 C389 1.480 . S
C1016 C445 1.475 . S
C1033 C12 0.673 . S
C1052 C110 0.678 . S
C1069 C26 0.672 . S
C1088 C68 0.674 . S
C1105 C40 0.670 . S
C1124 C82 0.687 . S
C1141 C96 0.669 . S
C1160 C54 0.684 . S
C1177 C222 0.665 . S
C1196 C124 0.680 . S
C1213 C180 0.672 . S
C1232 C138 0.665 . S
C1249 C194 0.674 . S
C1268 C152 0.648 . S
C1285 C166 0.665 . S
C1304 C208 0.678 . S
C1321 C334 0.673 . S
C1340 C236 0.680 . S
C1357 C292 0.674 . S
C1376 C250 0.693 . S
C1393 C306 0.672 . S
C1412 C264 0.693 . S
C1429 C278 0.673 . S
C1448 C320 0.695 . S
C1465 C348 0.663 . S
C1484 C446 0.693 . S
C1501 C362 0.674 . S
C1520 C404 0.648 . S
C1537 C376 0.664 . S
C1556 C418 0.688 . S
C1573 C432 0.664 . S
C1592 C390 0.691 . S
C1609 C4 1.432 . S
C1628 C355 1.338 . S
C1645 C18 1.428 . S
C1664 C145 1.366 1_455 S
C1681 C32 1.432 . S
C1700 C383 1.337 . S
C1717 C117 1.323 . S
C1736 C46 1.435 . S
C1753 C439 1.326 . S
C1772 C60 1.445 . S
C1789 C74 1.433 . S
C1808 C173 1.325 . S
C1825 C88 1.427 . S
C1844 C411 1.369 . S
C1861 C102 1.427 . S
C1880 C201 1.337 1_455 S
C1897 C243 1.338 . S
C1916 C116 1.414 . S
C1933 C33 1.333 1_655 S
C1952 C130 1.408 . S
C1969 C271 1.332 . S
C1988 C144 1.408 . S
C2005 C158 1.434 . S
C2024 C5 1.346 . S
C2041 C327 1.334 . S
C2060 C172 1.408 . S
C2077 C61 1.323 . S
C2096 C186 1.419 . S
C2113 C299 1.339 . S
C2132 C200 1.419 . S
C2149 C89 1.323 1_655 S
C2168 C214 1.436 . S
C2185 C131 1.336 . S
C2204 C228 1.409 . S
C2221 C242 1.431 . S
C2240 C369 1.297 . S
C2257 C256 1.433 . S
C2276 C159 1.288 . S
C2293 C270 1.427 . S
C2312 C341 1.370 1_655 S
C2329 C284 1.432 . S
C2348 C215 1.339 . S
C2365 C397 1.332 1_655 S
C2384 C298 1.414 . S
C2401 C312 1.429 . S
C2420 C187 1.359 . S
C2437 C326 1.433 . S
C2456 C425 1.319 . S
C2473 C340 1.433 . S
C2492 C19 1.296 . S
C2509 C354 1.427 . S
C2528 C257 1.303 . S
C2545 C47 1.330 . S
C2564 C368 1.447 . S
C2581 C229 1.331 1_455 S
C2600 C382 1.447 . S
C2617 C396 1.432 . S
C2636 C103 1.287 . S
C2653 C410 1.428 . S
C2672 C285 1.366 1_455 S
C2689 C75 1.323 . S
C2708 C424 1.419 . S
C2725 C313 1.330 . S
C2744 C438 1.407 . S
