# Generated by pormake.
# Topology dia, (4)-cn, num edge types: 1
# Building blocks:
#     Node 0, Type 0, BuildingBlock: QUQFOY_clean_sbu_3, # of connection points: 4
#     Node 1, Type 0, BuildingBlock: QUQFOY_clean_sbu_3, # of connection points: 4
#     Node 2, Type 0, BuildingBlock: QUQFOY_clean_sbu_3, # of connection points: 4
#     Node 3, Type 0, BuildingBlock: QUQFOY_clean_sbu_3, # of connection points: 4
#     Node 4, Type 0, BuildingBlock: QUQFOY_clean_sbu_3, # of connection points: 4
#     Node 5, Type 0, BuildingBlock: QUQFOY_clean_sbu_3, # of connection points: 4
#     Node 6, Type 0, BuildingBlock: QUQFOY_clean_sbu_3, # of connection points: 4
#     Node 7, Type 0, BuildingBlock: QUQFOY_clean_sbu_3, # of connection points: 4
#     Edge 8, Type (0, 0), BuildingBlock: KIFKEQ_clean_linker_1, # of connection points: 2
#     Edge 9, Type (0, 0), BuildingBlock: KIFKEQ_clean_linker_1, # of connection points: 2
#     Edge 10, Type (0, 0), BuildingBlock: KIFKEQ_clean_linker_1, # of connection points: 2
#     Edge 11, Type (0, 0), BuildingBlock: KIFKEQ_clean_linker_1, # of connection points: 2
#     Edge 12, Type (0, 0), BuildingBlock: KIFKEQ_clean_linker_1, # of connection points: 2
#     Edge 13, Type (0, 0), BuildingBlock: KIFKEQ_clean_linker_1, # of connection points: 2
#     Edge 14, Type (0, 0), BuildingBlock: KIFKEQ_clean_linker_1, # of connection points: 2
#     Edge 15, Type (0, 0), BuildingBlock: KIFKEQ_clean_linker_1, # of connection points: 2
#     Edge 16, Type (0, 0), BuildingBlock: KIFKEQ_clean_linker_1, # of connection points: 2
#     Edge 17, Type (0, 0), BuildingBlock: KIFKEQ_clean_linker_1, # of connection points: 2
#     Edge 18, Type (0, 0), BuildingBlock: KIFKEQ_clean_linker_1, # of connection points: 2
#     Edge 19, Type (0, 0), BuildingBlock: KIFKEQ_clean_linker_1, # of connection points: 2
#     Edge 20, Type (0, 0), BuildingBlock: KIFKEQ_clean_linker_1, # of connection points: 2
#     Edge 21, Type (0, 0), BuildingBlock: KIFKEQ_clean_linker_1, # of connection points: 2
#     Edge 22, Type (0, 0), BuildingBlock: KIFKEQ_clean_linker_1, # of connection points: 2
#     Edge 23, Type (0, 0), BuildingBlock: KIFKEQ_clean_linker_1, # of connection points: 2
# Relax obj value: 0.120
# Max RMSD: 0.163
# Mean RMSD: 0.163
data_MOF--net-dia--node1-QUQFOY_clean_sbu_3--edge1-KIFKEQ_clean_linker_1
_symmetry_space_group_name_H-M    P1
_symmetry_Int_Tables_number       1
_symmetry_cell_setting            triclinic
loop_
_symmetry_equiv_pos_as_xyz
'x, y, z'
_cell_length_a     34.916561
_cell_length_b     35.151489
_cell_length_c     40.957986
_cell_angle_alpha  90.265812
_cell_angle_beta   90.097711
_cell_angle_gamma 92.911871
loop_
_atom_site_label
_atom_site_type_symbol
_atom_site_fract_x
_atom_site_fract_y
_atom_site_fract_z
_atom_type_partial_charge
C0 C 0.04181 0.1603 0.63518 0.0
O1 O 0.02574 0.15743 0.60738 0.0
Cd2 Cd 0.04659 0.11832 0.56357 0.0
O3 O 0.07167 0.14208 0.64132 0.0
Cd4 Cd 0.11301 0.0974 0.61137 0.0
C5 C 0.13625 0.15941 0.55043 0.0
O6 O 0.06093 0.05835 0.5868 0.0
O7 O 0.11714 0.04986 0.56742 0.0
O8 O 0.12046 0.06333 0.66266 0.0
C9 C 0.08192 0.03935 0.56834 0.0
O10 O 0.10276 0.15117 0.53929 0.0
C11 C 0.15664 0.06191 0.661 0.0
O12 O 0.1467 0.14644 0.5779 0.0
O13 O 0.17288 0.07794 0.63659 0.0
C14 C 0.81338 0.42988 0.83071 0.0
O15 O 0.81379 0.44557 0.85868 0.0
Cd16 Cd 0.8528 0.42709 0.90328 0.0
O17 O 0.83339 0.40122 0.8249 0.0
Cd18 Cd 0.87731 0.36035 0.85628 0.0
C19 C 0.81286 0.33756 0.91641 0.0
O20 O 0.91436 0.41337 0.88133 0.0
O21 O 0.92553 0.35774 0.89982 0.0
O22 O 0.91219 0.35194 0.80519 0.0
C23 C 0.93421 0.39316 0.89968 0.0
O24 O 0.81877 0.37162 0.92659 0.0
C25 C 0.91324 0.31599 0.80718 0.0
O26 O 0.82858 0.32628 0.89026 0.0
O27 O 0.89702 0.30044 0.83181 0.0
C28 C 0.54609 0.16425 0.13663 0.0
O29 O 0.52954 0.16224 0.10899 0.0
Cd30 Cd 0.54705 0.12453 0.06345 0.0
O31 O 0.57564 0.14525 0.14234 0.0
Cd32 Cd 0.61626 0.09952 0.11199 0.0
C33 C 0.63856 0.16281 0.05076 0.0
O34 O 0.56171 0.06564 0.08763 0.0
O35 O 0.61603 0.04696 0.07125 0.0
O36 O 0.62437 0.06695 0.16396 0.0
C37 C 0.5798 0.04303 0.07005 0.0
O38 O 0.60387 0.15799 0.04135 0.0
C39 C 0.66035 0.06418 0.16136 0.0
O40 O 0.65039 0.14641 0.07633 0.0
O41 O 0.67613 0.07882 0.13615 0.0
C42 C 0.8131 0.9308 0.33196 0.0
O43 O 0.81628 0.94705 0.35965 0.0
Cd44 Cd 0.85339 0.92552 0.40404 0.0
O45 O 0.83059 0.90047 0.32602 0.0
Cd46 Cd 0.87504 0.85854 0.3561 0.0
C47 C 0.81005 0.83665 0.41564 0.0
O48 O 0.91379 0.91017 0.38115 0.0
O49 O 0.92272 0.85432 0.40016 0.0
O50 O 0.90969 0.85052 0.30486 0.0
C51 C 0.93286 0.88942 0.39963 0.0
O52 O 0.81672 0.87054 0.42604 0.0
C53 C 0.91067 0.81455 0.30658 0.0
O54 O 0.82583 0.82508 0.38964 0.0
O55 O 0.89424 0.79877 0.331 0.0
C56 C 0.04465 0.6613 0.13608 0.0
O57 O 0.02903 0.65853 0.10809 0.0
Cd58 Cd 0.05002 0.61942 0.06442 0.0
O59 O 0.0744 0.64303 0.14255 0.0
Cd60 Cd 0.11618 0.59846 0.11273 0.0
C61 C 0.13993 0.66023 0.05176 0.0
O62 O 0.06408 0.55965 0.08803 0.0
O63 O 0.12016 0.55104 0.0685 0.0
O64 O 0.12395 0.56441 0.16408 0.0
C65 C 0.0849 0.54071 0.06939 0.0
O66 O 0.10653 0.65197 0.04044 0.0
C67 C 0.16014 0.56306 0.1623 0.0
O68 O 0.15012 0.64745 0.07936 0.0
O69 O 0.17618 0.57903 0.13777 0.0
C70 C 0.31254 0.43007 0.33346 0.0
O71 O 0.3149 0.44559 0.36149 0.0
Cd72 Cd 0.35341 0.42463 0.40551 0.0
O73 O 0.33097 0.40046 0.32713 0.0
Cd74 Cd 0.37528 0.359 0.35747 0.0
C75 C 0.31193 0.33542 0.41762 0.0
O76 O 0.41408 0.41062 0.38269 0.0
O77 O 0.42196 0.35487 0.40233 0.0
O78 O 0.41099 0.35156 0.30675 0.0
C79 C 0.43269 0.38982 0.40148 0.0
O80 O 0.32008 0.3686 0.42905 0.0
C81 C 0.41233 0.31561 0.30834 0.0
O82 O 0.32531 0.32523 0.39017 0.0
O83 O 0.39548 0.29949 0.33242 0.0
C84 C 0.30869 0.92824 0.83179 0.0
O85 O 0.31049 0.94378 0.85986 0.0
Cd86 Cd 0.35082 0.9266 0.90403 0.0
O87 O 0.32856 0.89966 0.82518 0.0
Cd88 Cd 0.3751 0.85969 0.85463 0.0
C89 C 0.31449 0.83569 0.91766 0.0
O90 O 0.40985 0.91427 0.87812 0.0
O91 O 0.42856 0.8605 0.89479 0.0
O92 O 0.40669 0.8509 0.80202 0.0
C93 C 0.43299 0.89648 0.89535 0.0
O94 O 0.32084 0.86949 0.92836 0.0
C95 C 0.40997 0.81528 0.80506 0.0
O96 O 0.32816 0.82545 0.89031 0.0
O97 O 0.39604 0.80006 0.83077 0.0
C98 C 0.54286 0.66044 0.63498 0.0
O99 O 0.52613 0.65654 0.60754 0.0
Cd100 Cd 0.54741 0.61841 0.56374 0.0
O101 O 0.57354 0.64332 0.64083 0.0
Cd102 Cd 0.61585 0.59864 0.61103 0.0
C103 C 0.63655 0.66192 0.55057 0.0
O104 O 0.56276 0.55928 0.58817 0.0
O105 O 0.61842 0.54925 0.56852 0.0
O106 O 0.62731 0.57294 0.66566 0.0
C107 C 0.58308 0.53944 0.56984 0.0
O108 O 0.60241 0.65453 0.54059 0.0
C109 C 0.6618 0.56508 0.66021 0.0
O110 O 0.64867 0.64717 0.57676 0.0
O111 O 0.67529 0.57372 0.63233 0.0
H112 H 0.2889 0.34332 0.48087 0.0
H113 H 0.27871 0.26653 0.3982 0.0
H114 H 0.2478 0.29961 0.51279 0.0
H115 H 0.23749 0.22272 0.43038 0.0
H116 H 0.12806 0.18157 0.48708 0.0
H117 H 0.17158 0.22274 0.45495 0.0
H118 H 0.24899 0.23427 0.53712 0.0
H119 H 0.20539 0.19302 0.56948 0.0
C120 C 0.27793 0.31711 0.46947 0.0
C121 C 0.28703 0.3085 0.43689 0.0
C122 C 0.25459 0.29194 0.48789 0.0
C123 C 0.23948 0.25773 0.47411 0.0
C124 C 0.24852 0.24904 0.44156 0.0
C125 C 0.27223 0.27406 0.42319 0.0
C126 C 0.15436 0.19282 0.49836 0.0
C127 C 0.16315 0.18409 0.53094 0.0
C128 C 0.17941 0.21619 0.47983 0.0
C129 C 0.21368 0.23171 0.4935 0.0
C130 C 0.2226 0.22294 0.52602 0.0
C131 C 0.19771 0.19921 0.54449 0.0
H132 H 0.65866 0.5719 0.72634 0.0
H133 H 0.71585 0.51362 0.64905 0.0
H134 H 0.69571 0.53905 0.76674 0.0
H135 H 0.7506 0.47789 0.68913 0.0
H136 H 0.8338 0.44277 0.76744 0.0
H137 H 0.79836 0.47633 0.72625 0.0
H138 H 0.70388 0.48456 0.79395 0.0
H139 H 0.74119 0.4542 0.83564 0.0
C140 C 0.67895 0.55162 0.71809 0.0
C141 C 0.68459 0.5454 0.68467 0.0
C142 C 0.69998 0.53229 0.74125 0.0
C143 C 0.72625 0.50518 0.73158 0.0
C144 C 0.73148 0.49894 0.69788 0.0
C145 C 0.71134 0.51925 0.67475 0.0
C146 C 0.80535 0.45171 0.77325 0.0
C147 C 0.7902 0.44612 0.80463 0.0
C148 C 0.78477 0.47084 0.74958 0.0
C149 C 0.748 0.48375 0.75648 0.0
C150 C 0.73244 0.47645 0.78771 0.0
C151 C 0.75358 0.45852 0.81162 0.0
H152 H 0.50379 0.04007 0.05536 0.0
H153 H 0.61038 -0.00957 0.02934 0.0
H154 H 0.47087 0.0032 0.01238 0.0
H155 H 0.57704 0.95325 -0.01389 0.0
H156 H 0.48525 0.86639 0.93673 0.0
H157 H 0.52283 0.90017 0.97949 0.0
H158 H 0.4752 0.00586 0.95053 0.0
H159 H 0.43791 0.97251 0.90803 0.0
C160 C 0.52016 0.02107 0.04061 0.0
C161 C 0.55973 0.01832 0.04557 0.0
C162 C 0.50132 0.00014 0.0159 0.0
C163 C 0.52154 0.97575 -0.00424 0.0
C164 C 0.56085 0.97187 0.00137 0.0
C165 C 0.57987 -0.00682 0.02599 0.0
C166 C 0.48314 0.89689 0.93935 0.0
C167 C 0.45842 0.91677 0.91922 0.0
C168 C 0.50469 0.91616 0.96371 0.0
C169 C 0.50149 0.95547 0.96848 0.0
C170 C 0.47771 0.97543 0.94767 0.0
C171 C 0.45653 0.95633 0.92324 0.0
H172 H 0.94097 0.83991 0.24878 0.0
H173 H 0.92633 0.7391 0.30833 0.0
H174 H 0.97522 0.80373 0.20817 0.0
H175 H 0.96061 0.7029 0.26758 0.0
H176 H 0.0588 0.66279 0.20205 0.0
H177 H 0.02719 0.70024 0.2437 0.0
H178 H 0.95912 0.75075 0.16891 0.0
H179 H -0.00949 0.71362 0.12741 0.0
C180 C 0.945 0.81001 0.25318 0.0
C181 C 0.93081 0.79233 0.28171 0.0
C182 C 0.96453 0.78929 0.22987 0.0
C183 C 0.97063 0.7505 0.23471 0.0
C184 C 0.95669 0.73285 0.26335 0.0
C185 C 0.9368 0.75351 0.28654 0.0
C186 C 0.03727 0.68207 0.1945 0.0
C187 C 0.02716 0.68516 0.1614 0.0
C188 C 0.01901 0.7033 0.21836 0.0
C189 C -0.00935 0.72837 0.20955 0.0
C190 C 0.98108 0.73193 0.17643 0.0
C191 C -0.00102 0.71047 0.15267 0.0
H192 H 0.3087 0.91472 0.76568 0.0
H193 H 0.25406 0.98009 0.8404 0.0
H194 H 0.27135 0.94597 0.72389 0.0
H195 H 0.21716 0.01122 0.79878 0.0
H196 H 0.1299 0.03082 0.71801 0.0
H197 H 0.16542 -0.00389 0.75855 0.0
H198 H 0.26831 0.01197 0.7008 0.0
H199 H 0.23272 0.04661 0.66005 0.0
C200 C 0.28856 0.93547 0.77322 0.0
C201 C 0.28443 0.94493 0.80638 0.0
C202 C 0.26741 0.95357 0.74928 0.0
C203 C 0.24141 0.98111 0.75807 0.0
C204 C 0.2367 -0.01012 0.79125 0.0
C205 C 0.25803 0.97213 0.81509 0.0
C206 C 0.16011 0.02697 0.71396 0.0
C207 C 0.17854 0.0416 0.68588 0.0
C208 C 0.18046 0.00715 0.73722 0.0
C209 C 0.21964 0.00127 0.73284 0.0
C210 C 0.23804 0.01568 0.70466 0.0
C211 C 0.21774 0.03579 0.68148 0.0
H212 H 0.95852 0.36324 0.957 0.0
H213 H 0.97126 0.46299 0.89596 0.0
H214 H -0.00084 0.3952 -0.00132 0.0
H215 H 0.01267 0.49441 0.93733 0.0
H216 H 0.1132 0.52111 0.00989 0.0
H217 H 0.0805 0.4817 0.96776 0.0
H218 H 0.985 0.45967 0.03289 0.0
H219 H 0.01708 0.49983 0.07469 0.0
C220 C 0.97054 0.39169 0.95227 0.0
C221 C 0.96165 0.41078 0.92336 0.0
C222 C -0.00636 0.40991 0.9761 0.0
C223 C 0.00894 0.4471 0.97103 0.0
C224 C 0.00137 0.46558 0.94159 0.0
C225 C 0.97759 0.44771 0.91808 0.0
C226 C 0.08547 0.50741 0.01533 0.0
C227 C 0.06753 0.51356 0.04545 0.0
C228 C 0.0668 0.48506 -0.00876 0.0
C229 C 0.03038 0.46778 -0.00275 0.0
C230 C 0.01322 0.47254 0.02785 0.0
C231 C 0.03146 0.49557 0.05164 0.0
H232 H 0.42742 0.23993 0.30922 0.0
H233 H 0.44513 0.34222 0.25194 0.0
H234 H 0.46257 0.20441 0.26855 0.0
H235 H 0.4803 0.30678 0.2115 0.0
H236 H 0.49438 0.21895 0.12899 0.0
H237 H 0.46379 0.25568 0.17109 0.0
H238 H 0.5293 0.20063 0.24509 0.0
H239 H 0.56013 0.16344 0.20271 0.0
C240 C 0.4388 0.25482 0.28798 0.0
C241 C 0.43329 0.29383 0.2837 0.0
C242 C 0.45921 0.23455 0.26485 0.0
C243 C 0.47419 0.25282 0.23685 0.0
C244 C 0.46879 0.29185 0.23268 0.0
C245 C 0.4487 0.31215 0.25589 0.0
C246 C 0.50251 0.21472 0.1542 0.0
C247 C 0.52968 0.18816 0.16248 0.0
C248 C 0.48508 0.23597 0.17831 0.0
C249 C 0.4941 0.23103 0.21139 0.0
C250 C 0.52156 0.20479 0.21978 0.0
C251 C 0.53939 0.18373 0.19553 0.0
H252 H 0.80835 0.75872 0.41692 0.0
H253 H 0.75331 0.85569 0.45729 0.0
H254 H 0.76681 0.71603 0.4502 0.0
H255 H 0.71143 0.81296 0.48984 0.0
H256 H 0.61608 0.71641 0.50775 0.0
H257 H 0.65822 0.75836 0.47473 0.0
H258 H 0.75715 0.70703 0.51547 0.0
H259 H 0.71505 0.66543 0.54921 0.0
C260 C 0.78722 0.77086 0.43266 0.0
C261 C 0.78406 0.81052 0.43451 0.0
C262 C 0.7637 0.74649 0.45181 0.0
C263 C 0.73607 0.76133 0.47253 0.0
C264 C 0.73247 0.80088 0.47395 0.0
C265 C 0.75649 0.82526 0.4554 0.0
C266 C 0.64682 0.7141 0.50975 0.0
C267 C 0.66228 0.68769 0.53113 0.0
C268 C 0.67086 0.73816 0.49092 0.0
C269 C 0.7108 0.73575 0.49256 0.0
C270 C 0.72637 0.70919 0.51368 0.0
C271 C 0.70233 0.68564 0.53309 0.0
H272 H 0.13408 0.53294 0.2199 0.0
H273 H 0.23613 0.54747 0.16083 0.0
H274 H 0.1701 0.49892 0.26059 0.0
H275 H 0.27219 0.51344 0.20168 0.0
H276 H 0.31206 0.41609 0.26742 0.0
H277 H 0.27488 0.44745 0.22556 0.0
H278 H 0.22286 0.51492 0.30012 0.0
H279 H 0.2597 0.48378 0.34182 0.0
C280 C 0.16422 0.52894 0.21563 0.0
C281 C 0.18229 0.54304 0.1872 0.0
C282 C 0.18486 0.50953 0.23897 0.0
C283 C 0.22396 0.50349 0.23431 0.0
C284 C 0.242 0.51733 0.20578 0.0
C285 C 0.22142 0.53706 0.18253 0.0
C286 C 0.29251 0.43744 0.27487 0.0
C287 C 0.2889 0.44744 0.30796 0.0
C288 C 0.27143 0.45556 0.25089 0.0
C289 C 0.24599 0.48367 0.25958 0.0
C290 C 0.24195 0.49315 0.29269 0.0
C291 C 0.26325 0.47539 0.31656 0.0
H292 H 0.81105 0.25944 0.91676 0.0
H293 H 0.75773 0.35596 0.95976 0.0
H294 H 0.76997 0.21632 0.95012 0.0
H295 H 0.71652 0.31293 -0.00759 0.0
H296 H 0.61969 0.21933 0.00951 0.0
H297 H 0.66258 0.26072 0.9769 0.0
H298 H 0.76013 0.2045 0.01484 0.0
H299 H 0.71714 0.1632 0.0482 0.0
C300 C 0.79047 0.2714 0.93314 0.0
C301 C 0.78756 0.31107 0.9356 0.0
C302 C 0.76724 0.24678 0.95235 0.0
C303 C 0.7402 0.26141 0.97377 0.0
C304 C 0.73706 0.30098 0.97597 0.0
C305 C 0.76072 0.32555 0.95733 0.0
C306 C 0.65027 0.21575 0.01098 0.0
C307 C 0.66505 0.18805 0.03149 0.0
C308 C 0.67477 0.23952 -0.00763 0.0
C309 C 0.71455 0.23569 -0.00662 0.0
C310 C 0.72948 0.20779 0.01356 0.0
C311 C 0.70495 0.18441 0.03275 0.0
H312 H 0.8105 0.91488 0.26619 0.0
H313 H 0.76224 -0.01367 0.34009 0.0
H314 H 0.77312 0.94614 0.22437 0.0
H315 H 0.7253 0.01737 0.29848 0.0
H316 H 0.63512 0.03631 0.22001 0.0
H317 H 0.67112 0.00195 0.26047 0.0
H318 H 0.77159 0.01151 0.19914 0.0
H319 H 0.73552 0.04584 0.1585 0.0
C320 C 0.79182 0.93704 0.27354 0.0
C321 C 0.78942 0.94812 0.30648 0.0
C322 C 0.77063 0.95509 0.24958 0.0
C323 C 0.7463 0.98422 0.25817 0.0
C324 C 0.74349 -0.00521 0.29114 0.0
C325 C 0.76487 0.97709 0.31496 0.0
C326 C 0.66489 0.03115 0.21515 0.0
C327 C 0.68252 0.04397 0.18612 0.0
C328 C 0.68553 0.01153 0.23836 0.0
C329 C 0.72417 0.00403 0.23297 0.0
C330 C 0.74174 0.01654 0.20381 0.0
C331 C 0.72117 0.03646 0.18068 0.0
H332 H 0.95446 0.86029 0.45816 0.0
H333 H 0.97308 0.95734 0.39476 0.0
H334 H -0.00504 0.89229 0.49997 0.0
H335 H 0.01425 -0.01126 0.43623 0.0
H336 H 0.11168 0.01688 0.51019 0.0
H337 H 0.07982 0.97604 0.46864 0.0
H338 H 0.98218 0.95786 0.53215 0.0
H339 H 0.01349 -0.00063 0.57339 0.0
C340 C 0.96779 0.8881 0.45294 0.0
C341 C 0.96055 0.9065 0.42335 0.0
C342 C -0.00921 0.90635 0.47685 0.0
C343 C 0.00762 0.94283 0.47115 0.0
C344 C 0.00179 0.96046 0.44101 0.0
C345 C 0.97813 0.94261 0.41743 0.0
C346 C 0.08365 0.00373 0.51543 0.0
C347 C 0.06489 0.01141 0.54488 0.0
C348 C 0.06547 0.98052 0.49167 0.0
C349 C 0.02869 0.96393 0.49736 0.0
C350 C 0.0107 0.97015 0.52739 0.0
C351 C 0.02849 -0.006 0.55084 0.0
H352 H 0.94206 0.34058 0.74862 0.0
H353 H 0.92909 0.24062 0.80939 0.0
H354 H 0.97484 0.30372 0.70754 0.0
H355 H 0.96193 0.20376 0.76819 0.0
H356 H 0.05792 0.16263 0.70079 0.0
H357 H 0.02772 0.2007 0.74278 0.0
H358 H 0.9571 0.25005 0.66916 0.0
H359 H 0.98709 0.21226 0.62728 0.0
C360 C 0.9462 0.31074 0.75321 0.0
C361 C 0.93287 0.29348 0.78221 0.0
C362 C 0.96486 0.28962 0.72963 0.0
C363 C 0.97096 0.25087 0.73466 0.0
C364 C 0.95796 0.23367 0.76379 0.0
C365 C 0.93893 0.25471 0.78725 0.0
C366 C 0.0361 0.18176 0.69355 0.0
C367 C 0.0249 0.18435 0.66067 0.0
C368 C 0.01866 0.20335 0.71762 0.0
C369 C -0.00997 0.22831 0.70924 0.0
C370 C 0.97931 0.23133 0.67633 0.0
C371 C -0.00361 0.20949 0.65236 0.0
H372 H 0.48636 0.71025 0.62677 0.0
H373 H 0.55998 0.66501 0.70048 0.0
H374 H 0.45543 0.74777 0.66816 0.0
H375 H 0.52884 0.70299 0.74209 0.0
H376 H 0.42936 0.74099 0.80878 0.0
H377 H 0.46357 0.70452 0.7682 0.0
H378 H 0.47075 0.80268 0.70509 0.0
H379 H 0.43648 0.8391 0.74551 0.0
C380 C 0.49611 0.70842 0.65181 0.0
C381 C 0.52565 0.68453 0.6603 0.0
C382 C 0.47847 0.73013 0.67551 0.0
C383 C 0.48968 0.72833 0.70837 0.0
C384 C 0.51939 0.70469 0.71696 0.0
C385 C 0.53738 0.68316 0.69312 0.0
C386 C 0.43818 0.75475 0.78621 0.0
C387 C 0.43005 0.79288 0.78028 0.0
C388 C 0.45805 0.73395 0.76311 0.0
C389 C 0.46988 0.75075 0.73349 0.0
C390 C 0.46171 0.78886 0.72758 0.0
C391 C 0.44215 0.80973 0.75076 0.0
H392 H 0.20898 0.69394 0.07099 0.0
H393 H 0.1324 0.68161 -0.01185 0.0
H394 H 0.253 0.73466 0.03852 0.0
H395 H 0.17633 0.72221 0.95593 0.0
H396 H 0.28304 0.76573 0.89918 0.0
H397 H 0.24251 0.72177 0.93182 0.0
H398 H 0.25191 0.79977 0.01351 0.0
H399 H 0.29232 0.84363 0.98112 0.0
C400 C 0.20156 0.69982 0.04589 0.0
C401 C 0.16708 0.68463 0.03224 0.0
C402 C 0.2267 0.72322 0.02735 0.0
C403 C 0.21811 0.73155 -0.00532 0.0
C404 C 0.18392 0.71596 0.98092 0.0
C405 C 0.15863 0.69293 -0.00049 0.0
C406 C 0.27659 0.77342 0.92413 0.0
C407 C 0.2908 0.80828 0.93746 0.0
C408 C 0.25327 0.74832 0.94277 0.0
C409 C 0.24405 0.75736 0.97521 0.0
C410 C 0.25882 0.79186 -0.0113 0.0
C411 C 0.28176 0.8171 0.97001 0.0
H412 H 0.47428 0.45691 0.39624 0.0
H413 H 0.45236 0.36146 0.46081 0.0
H414 H 0.51523 0.48832 0.43787 0.0
H415 H 0.49263 0.3935 0.50278 0.0
H416 H 0.51324 0.50188 0.57481 0.0
H417 H 0.48112 0.46048 0.53386 0.0
H418 H 0.57999 0.47407 0.47115 0.0
H419 H 0.61262 0.51472 0.51236 0.0
C420 C 0.47855 0.44253 0.41921 0.0
C421 C 0.46016 0.40685 0.42539 0.0
C422 C 0.50205 0.46039 0.4429 0.0
C423 C 0.50691 0.44322 0.47338 0.0
C424 C 0.4892 0.4072 0.47939 0.0
C425 C 0.46636 0.38891 0.45539 0.0
C426 C 0.52832 0.49552 0.5525 0.0
C427 C 0.56531 0.51158 0.54666 0.0
C428 C 0.51005 0.47175 0.52922 0.0
C429 C 0.52819 0.46428 0.49948 0.0
C430 C 0.56552 0.47953 0.49394 0.0
C431 C 0.58413 0.50265 0.51752 0.0
loop_
_geom_bond_atom_site_label_1
_geom_bond_atom_site_label_2
_geom_bond_distance
_geom_bond_site_symmetry_2
_ccdc_geom_bond_type
C0 O1 1.306 . S
C0 O3 1.160 . S
O1 C0 1.306 . S
O1 Cd2 2.228 . S
Cd2 O1 2.228 . S
Cd2 O6 2.273 . S
Cd2 O10 2.277 . S
O3 C0 1.160 . S
O3 Cd4 2.203 . S
Cd4 O3 2.203 . S
Cd4 O6 2.411 . S
Cd4 O7 2.333 . S
Cd4 O8 2.352 . S
Cd4 O12 2.277 . S
Cd4 O13 2.356 . S
C5 O10 1.209 . S
C5 O12 1.226 . S
O6 Cd2 2.273 . S
O6 Cd4 2.411 . S
O6 C9 1.320 . S
O7 Cd4 2.333 . S
O7 C9 1.214 . S
O8 Cd4 2.352 . S
O8 C11 1.258 . S
C9 O6 1.320 . S
C9 O7 1.214 . S
O10 Cd2 2.277 . S
O10 C5 1.209 . S
C11 O8 1.258 . S
C11 O13 1.282 . S
O12 Cd4 2.277 . S
O12 C5 1.226 . S
O13 Cd4 2.356 . S
O13 C11 1.282 . S
C14 O15 1.306 . S
C14 O17 1.160 . S
O15 C14 1.306 . S
O15 Cd16 2.228 . S
Cd16 O15 2.228 . S
Cd16 O20 2.273 . S
Cd16 O24 2.277 . S
O17 C14 1.160 . S
O17 Cd18 2.203 . S
Cd18 O17 2.203 . S
Cd18 O20 2.411 . S
Cd18 O21 2.333 . S
Cd18 O22 2.352 . S
Cd18 O26 2.277 . S
Cd18 O27 2.356 . S
C19 O24 1.209 . S
C19 O26 1.226 . S
O20 Cd16 2.273 . S
O20 Cd18 2.411 . S
O20 C23 1.320 . S
O21 Cd18 2.333 . S
O21 C23 1.214 . S
O22 Cd18 2.352 . S
O22 C25 1.258 . S
C23 O20 1.320 . S
C23 O21 1.214 . S
O24 Cd16 2.277 . S
O24 C19 1.209 . S
C25 O22 1.258 . S
C25 O27 1.282 . S
O26 Cd18 2.277 . S
O26 C19 1.226 . S
O27 Cd18 2.356 . S
O27 C25 1.282 . S
C28 O29 1.306 . S
C28 O31 1.160 . S
O29 C28 1.306 . S
O29 Cd30 2.228 . S
Cd30 O29 2.228 . S
Cd30 O34 2.273 . S
Cd30 O38 2.277 . S
O31 C28 1.160 . S
O31 Cd32 2.203 . S
Cd32 O31 2.203 . S
Cd32 O34 2.411 . S
Cd32 O35 2.333 . S
Cd32 O36 2.352 . S
Cd32 O40 2.277 . S
Cd32 O41 2.356 . S
C33 O38 1.209 . S
C33 O40 1.226 . S
O34 Cd30 2.273 . S
O34 Cd32 2.411 . S
O34 C37 1.320 . S
O35 Cd32 2.333 . S
O35 C37 1.214 . S
O36 Cd32 2.352 . S
O36 C39 1.258 . S
C37 O34 1.320 . S
C37 O35 1.214 . S
O38 Cd30 2.277 . S
O38 C33 1.209 . S
C39 O36 1.258 . S
C39 O41 1.282 . S
O40 Cd32 2.277 . S
O40 C33 1.226 . S
O41 Cd32 2.356 . S
O41 C39 1.282 . S
C42 O43 1.306 . S
C42 O45 1.160 . S
O43 C42 1.306 . S
O43 Cd44 2.228 . S
Cd44 O43 2.228 . S
Cd44 O48 2.273 . S
Cd44 O52 2.277 . S
O45 C42 1.160 . S
O45 Cd46 2.203 . S
Cd46 O45 2.203 . S
Cd46 O48 2.411 . S
Cd46 O49 2.333 . S
Cd46 O50 2.352 . S
Cd46 O54 2.277 . S
Cd46 O55 2.356 . S
C47 O52 1.209 . S
C47 O54 1.226 . S
O48 Cd44 2.273 . S
O48 Cd46 2.411 . S
O48 C51 1.320 . S
O49 Cd46 2.333 . S
O49 C51 1.214 . S
O50 Cd46 2.352 . S
O50 C53 1.258 . S
C51 O48 1.320 . S
C51 O49 1.214 . S
O52 Cd44 2.277 . S
O52 C47 1.209 . S
C53 O50 1.258 . S
C53 O55 1.282 . S
O54 Cd46 2.277 . S
O54 C47 1.226 . S
O55 Cd46 2.356 . S
O55 C53 1.282 . S
C56 O57 1.306 . S
C56 O59 1.160 . S
O57 C56 1.306 . S
O57 Cd58 2.228 . S
Cd58 O57 2.228 . S
Cd58 O62 2.273 . S
Cd58 O66 2.277 . S
O59 C56 1.160 . S
O59 Cd60 2.203 . S
Cd60 O59 2.203 . S
Cd60 O62 2.411 . S
Cd60 O63 2.333 . S
Cd60 O64 2.352 . S
Cd60 O68 2.277 . S
Cd60 O69 2.356 . S
C61 O66 1.209 . S
C61 O68 1.226 . S
O62 Cd58 2.273 . S
O62 Cd60 2.411 . S
O62 C65 1.320 . S
O63 Cd60 2.333 . S
O63 C65 1.214 . S
O64 Cd60 2.352 . S
O64 C67 1.258 . S
C65 O62 1.320 . S
C65 O63 1.214 . S
O66 Cd58 2.277 . S
O66 C61 1.209 . S
C67 O64 1.258 . S
C67 O69 1.282 . S
O68 Cd60 2.277 . S
O68 C61 1.226 . S
O69 Cd60 2.356 . S
O69 C67 1.282 . S
C70 O71 1.306 . S
C70 O73 1.160 . S
O71 C70 1.306 . S
O71 Cd72 2.228 . S
Cd72 O71 2.228 . S
Cd72 O76 2.273 . S
Cd72 O80 2.277 . S
O73 C70 1.160 . S
O73 Cd74 2.203 . S
Cd74 O73 2.203 . S
Cd74 O76 2.411 . S
Cd74 O77 2.333 . S
Cd74 O78 2.352 . S
Cd74 O82 2.277 . S
Cd74 O83 2.356 . S
C75 O80 1.209 . S
C75 O82 1.226 . S
O76 Cd72 2.273 . S
O76 Cd74 2.411 . S
O76 C79 1.320 . S
O77 Cd74 2.333 . S
O77 C79 1.214 . S
O78 Cd74 2.352 . S
O78 C81 1.258 . S
C79 O76 1.320 . S
C79 O77 1.214 . S
O80 Cd72 2.277 . S
O80 C75 1.209 . S
C81 O78 1.258 . S
C81 O83 1.282 . S
O82 Cd74 2.277 . S
O82 C75 1.226 . S
O83 Cd74 2.356 . S
O83 C81 1.282 . S
C84 O85 1.306 . S
C84 O87 1.160 . S
O85 C84 1.306 . S
O85 Cd86 2.228 . S
Cd86 O85 2.228 . S
Cd86 O90 2.273 . S
Cd86 O94 2.277 . S
O87 C84 1.160 . S
O87 Cd88 2.203 . S
Cd88 O87 2.203 . S
Cd88 O90 2.411 . S
Cd88 O91 2.333 . S
Cd88 O92 2.352 . S
Cd88 O96 2.277 . S
Cd88 O97 2.356 . S
C89 O94 1.209 . S
C89 O96 1.226 . S
O90 Cd86 2.273 . S
O90 Cd88 2.411 . S
O90 C93 1.320 . S
O91 Cd88 2.333 . S
O91 C93 1.214 . S
O92 Cd88 2.352 . S
O92 C95 1.258 . S
C93 O90 1.320 . S
C93 O91 1.214 . S
O94 Cd86 2.277 . S
O94 C89 1.209 . S
C95 O92 1.258 . S
C95 O97 1.282 . S
O96 Cd88 2.277 . S
O96 C89 1.226 . S
O97 Cd88 2.356 . S
O97 C95 1.282 . S
C98 O99 1.306 . S
C98 O101 1.160 . S
O99 C98 1.306 . S
O99 Cd100 2.228 . S
Cd100 O99 2.228 . S
Cd100 O104 2.273 . S
Cd100 O108 2.277 . S
O101 C98 1.160 . S
O101 Cd102 2.203 . S
Cd102 O101 2.203 . S
Cd102 O104 2.411 . S
Cd102 O105 2.333 . S
Cd102 O106 2.352 . S
Cd102 O110 2.277 . S
Cd102 O111 2.356 . S
C103 O108 1.209 . S
C103 O110 1.226 . S
O104 Cd100 2.273 . S
O104 Cd102 2.411 . S
O104 C107 1.320 . S
O105 Cd102 2.333 . S
O105 C107 1.214 . S
O106 Cd102 2.352 . S
O106 C109 1.258 . S
C107 O104 1.320 . S
C107 O105 1.214 . S
O108 Cd100 2.277 . S
O108 C103 1.209 . S
C109 O106 1.258 . S
C109 O111 1.282 . S
O110 Cd102 2.277 . S
O110 C103 1.226 . S
O111 Cd102 2.356 . S
O111 C109 1.282 . S
H112 C120 0.950 . S
H113 C125 0.950 . S
H114 C122 0.950 . S
H115 C124 0.950 . S
H116 C126 0.950 . S
H117 C128 0.950 . S
H118 C130 0.950 . S
H119 C131 0.950 . S
C120 H112 0.950 . S
C120 C121 1.386 . S
C120 C122 1.391 . S
C121 C120 1.386 . S
C121 C125 1.393 . S
C122 H114 0.950 . S
C122 C120 1.391 . S
C122 C123 1.400 . S
C123 C122 1.400 . S
C123 C124 1.398 . S
C123 C129 1.491 . S
C124 H115 0.950 . S
C124 C123 1.398 . S
C124 C125 1.391 . S
C125 H113 0.950 . S
C125 C121 1.393 . S
C125 C124 1.391 . S
C126 H116 0.950 . S
C126 C127 1.386 . S
C126 C128 1.391 . S
C127 C126 1.386 . S
C127 C131 1.393 . S
C128 H117 0.950 . S
C128 C126 1.391 . S
C128 C129 1.400 . S
C129 C123 1.491 . S
C129 C128 1.400 . S
C129 C130 1.398 . S
C130 H118 0.950 . S
C130 C129 1.398 . S
C130 C131 1.391 . S
C131 H119 0.950 . S
C131 C127 1.393 . S
C131 C130 1.391 . S
H132 C140 0.950 . S
H133 C145 0.950 . S
H134 C142 0.950 . S
H135 C144 0.950 . S
H136 C146 0.950 . S
H137 C148 0.950 . S
H138 C150 0.950 . S
H139 C151 0.950 . S
C140 H132 0.950 . S
C140 C141 1.386 . S
C140 C142 1.391 . S
C141 C140 1.386 . S
C141 C145 1.393 . S
C142 H134 0.950 . S
C142 C140 1.391 . S
C142 C143 1.400 . S
C143 C142 1.400 . S
C143 C144 1.398 . S
C143 C149 1.491 . S
C144 H135 0.950 . S
C144 C143 1.398 . S
C144 C145 1.391 . S
C145 H133 0.950 . S
C145 C141 1.393 . S
C145 C144 1.391 . S
C146 H136 0.950 . S
C146 C147 1.386 . S
C146 C148 1.391 . S
C147 C146 1.386 . S
C147 C151 1.393 . S
C148 H137 0.950 . S
C148 C146 1.391 . S
C148 C149 1.400 . S
C149 C143 1.491 . S
C149 C148 1.400 . S
C149 C150 1.398 . S
C150 H138 0.950 . S
C150 C149 1.398 . S
C150 C151 1.391 . S
C151 H139 0.950 . S
C151 C147 1.393 . S
C151 C150 1.391 . S
H152 C160 0.950 . S
H153 C165 0.950 . S
H154 C162 0.950 . S
H155 C164 0.950 . S
H156 C166 0.950 . S
H157 C168 0.950 . S
H158 C170 0.950 1_545 S
H159 C171 0.950 . S
C160 H152 0.950 . S
C160 C161 1.386 . S
C160 C162 1.391 . S
C161 C160 1.386 . S
C161 C165 1.393 . S
C162 H154 0.950 . S
C162 C160 1.391 . S
C162 C163 1.400 . S
C163 C162 1.400 . S
C163 C164 1.398 1_545 S
C163 C169 1.491 1_544 S
C164 H155 0.950 . S
C164 C163 1.398 1_565 S
C164 C165 1.391 1_565 S
C165 H153 0.950 . S
C165 C161 1.393 . S
C165 C164 1.391 1_545 S
C166 H156 0.950 . S
C166 C167 1.386 . S
C166 C168 1.391 . S
C167 C166 1.386 . S
C167 C171 1.393 . S
C168 H157 0.950 . S
C168 C166 1.391 . S
C168 C169 1.400 . S
C169 C163 1.491 1_566 S
C169 C168 1.400 . S
C169 C170 1.398 . S
C170 H158 0.950 1_565 S
C170 C169 1.398 . S
C170 C171 1.391 . S
C171 H159 0.950 . S
C171 C167 1.393 . S
C171 C170 1.391 . S
H172 C180 0.950 1_455 S
H173 C185 0.950 . S
H174 C182 0.950 . S
H175 C184 0.950 . S
H176 C186 0.950 . S
H177 C188 0.950 1_655 S
H178 C190 0.950 . S
H179 C191 0.950 . S
C180 H172 0.950 1_655 S
C180 C181 1.386 . S
C180 C182 1.391 1_655 S
C181 C180 1.386 . S
C181 C185 1.393 . S
C182 H174 0.950 . S
C182 C180 1.391 1_455 S
C182 C183 1.400 . S
C183 C182 1.400 . S
C183 C184 1.398 1_455 S
C183 C189 1.491 . S
C184 H175 0.950 . S
C184 C183 1.398 1_655 S
C184 C185 1.391 . S
C185 H173 0.950 . S
C185 C181 1.393 . S
C185 C184 1.391 . S
C186 H176 0.950 . S
C186 C187 1.386 . S
C186 C188 1.391 . S
C187 C186 1.386 . S
C187 C191 1.393 . S
C188 H177 0.950 1_455 S
C188 C186 1.391 . S
C188 C189 1.400 . S
C189 C183 1.491 . S
C189 C188 1.400 . S
C189 C190 1.398 . S
C190 H178 0.950 . S
C190 C189 1.398 . S
C190 C191 1.391 . S
C191 H179 0.950 . S
C191 C187 1.393 . S
C191 C190 1.391 . S
H192 C200 0.950 . S
H193 C205 0.950 . S
H194 C202 0.950 . S
H195 C204 0.950 . S
H196 C206 0.950 . S
H197 C208 0.950 . S
H198 C210 0.950 . S
H199 C211 0.950 . S
C200 H192 0.950 . S
C200 C201 1.386 . S
C200 C202 1.391 . S
C201 C200 1.386 . S
C201 C205 1.393 . S
C202 H194 0.950 . S
C202 C200 1.391 . S
C202 C203 1.400 . S
C203 C202 1.400 . S
C203 C204 1.398 . S
C203 C209 1.491 . S
C204 H195 0.950 . S
C204 C203 1.398 . S
C204 C205 1.391 . S
C205 H193 0.950 . S
C205 C201 1.393 . S
C205 C204 1.391 . S
C206 H196 0.950 . S
C206 C207 1.386 . S
C206 C208 1.391 . S
C207 C206 1.386 . S
C207 C211 1.393 . S
C208 H197 0.950 . S
C208 C206 1.391 . S
C208 C209 1.400 1_545 S
C209 C203 1.491 . S
C209 C208 1.400 1_565 S
C209 C210 1.398 1_565 S
C210 H198 0.950 . S
C210 C209 1.398 1_545 S
C210 C211 1.391 . S
C211 H199 0.950 . S
C211 C207 1.393 . S
C211 C210 1.391 . S
H212 C220 0.950 . S
H213 C225 0.950 . S
H214 C222 0.950 1_554 S
H215 C224 0.950 . S
H216 C226 0.950 . S
H217 C228 0.950 1_556 S
H218 C230 0.950 1_655 S
H219 C231 0.950 . S
C220 H212 0.950 . S
C220 C221 1.386 . S
C220 C222 1.391 . S
C221 C220 1.386 . S
C221 C225 1.393 . S
C222 H214 0.950 1_556 S
C222 C220 1.391 . S
C222 C223 1.400 . S
C223 C222 1.400 . S
C223 C224 1.398 1_655 S
C223 C229 1.491 1_656 S
C224 H215 0.950 . S
C224 C223 1.398 1_455 S
C224 C225 1.391 1_455 S
C225 H213 0.950 . S
C225 C221 1.393 . S
C225 C224 1.391 1_655 S
C226 H216 0.950 . S
C226 C227 1.386 . S
C226 C228 1.391 . S
C227 C226 1.386 . S
C227 C231 1.393 . S
C228 H217 0.950 1_554 S
C228 C226 1.391 . S
C228 C229 1.400 . S
C229 C223 1.491 1_454 S
C229 C228 1.400 . S
C229 C230 1.398 . S
C230 H218 0.950 1_455 S
C230 C229 1.398 . S
C230 C231 1.391 . S
C231 H219 0.950 . S
C231 C227 1.393 . S
C231 C230 1.391 . S
H232 C240 0.950 . S
H233 C245 0.950 . S
H234 C242 0.950 . S
H235 C244 0.950 . S
H236 C246 0.950 . S
H237 C248 0.950 . S
H238 C250 0.950 . S
H239 C251 0.950 . S
C240 H232 0.950 . S
C240 C241 1.386 . S
C240 C242 1.391 . S
C241 C240 1.386 . S
C241 C245 1.393 . S
C242 H234 0.950 . S
C242 C240 1.391 . S
C242 C243 1.400 . S
C243 C242 1.400 . S
C243 C244 1.398 . S
C243 C249 1.491 . S
C244 H235 0.950 . S
C244 C243 1.398 . S
C244 C245 1.391 . S
C245 H233 0.950 . S
C245 C241 1.393 . S
C245 C244 1.391 . S
C246 H236 0.950 . S
C246 C247 1.386 . S
C246 C248 1.391 . S
C247 C246 1.386 . S
C247 C251 1.393 . S
C248 H237 0.950 . S
C248 C246 1.391 . S
C248 C249 1.400 . S
C249 C243 1.491 . S
C249 C248 1.400 . S
C249 C250 1.398 . S
C250 H238 0.950 . S
C250 C249 1.398 . S
C250 C251 1.391 . S
C251 H239 0.950 . S
C251 C247 1.393 . S
C251 C250 1.391 . S
H252 C260 0.950 . S
H253 C265 0.950 . S
H254 C262 0.950 . S
H255 C264 0.950 . S
H256 C266 0.950 . S
H257 C268 0.950 . S
H258 C270 0.950 . S
H259 C271 0.950 . S
C260 H252 0.950 . S
C260 C261 1.386 . S
C260 C262 1.391 . S
C261 C260 1.386 . S
C261 C265 1.393 . S
C262 H254 0.950 . S
C262 C260 1.391 . S
C262 C263 1.400 . S
C263 C262 1.400 . S
C263 C264 1.398 . S
C263 C269 1.491 . S
C264 H255 0.950 . S
C264 C263 1.398 . S
C264 C265 1.391 . S
C265 H253 0.950 . S
C265 C261 1.393 . S
C265 C264 1.391 . S
C266 H256 0.950 . S
C266 C267 1.386 . S
C266 C268 1.391 . S
C267 C266 1.386 . S
C267 C271 1.393 . S
C268 H257 0.950 . S
C268 C266 1.391 . S
C268 C269 1.400 . S
C269 C263 1.491 . S
C269 C268 1.400 . S
C269 C270 1.398 . S
C270 H258 0.950 . S
C270 C269 1.398 . S
C270 C271 1.391 . S
C271 H259 0.950 . S
C271 C267 1.393 . S
C271 C270 1.391 . S
H272 C280 0.950 . S
H273 C285 0.950 . S
H274 C282 0.950 . S
H275 C284 0.950 . S
H276 C286 0.950 . S
H277 C288 0.950 . S
H278 C290 0.950 . S
H279 C291 0.950 . S
C280 H272 0.950 . S
C280 C281 1.386 . S
C280 C282 1.391 . S
C281 C280 1.386 . S
C281 C285 1.393 . S
C282 H274 0.950 . S
C282 C280 1.391 . S
C282 C283 1.400 . S
C283 C282 1.400 . S
C283 C284 1.398 . S
C283 C289 1.491 . S
C284 H275 0.950 . S
C284 C283 1.398 . S
C284 C285 1.391 . S
C285 H273 0.950 . S
C285 C281 1.393 . S
C285 C284 1.391 . S
C286 H276 0.950 . S
C286 C287 1.386 . S
C286 C288 1.391 . S
C287 C286 1.386 . S
C287 C291 1.393 . S
C288 H277 0.950 . S
C288 C286 1.391 . S
C288 C289 1.400 . S
C289 C283 1.491 . S
C289 C288 1.400 . S
C289 C290 1.398 . S
C290 H278 0.950 . S
C290 C289 1.398 . S
C290 C291 1.391 . S
C291 H279 0.950 . S
C291 C287 1.393 . S
C291 C290 1.391 . S
H292 C300 0.950 . S
H293 C305 0.950 . S
H294 C302 0.950 . S
H295 C304 0.950 . S
H296 C306 0.950 . S
H297 C308 0.950 . S
H298 C310 0.950 . S
H299 C311 0.950 . S
C300 H292 0.950 . S
C300 C301 1.386 . S
C300 C302 1.391 . S
C301 C300 1.386 . S
C301 C305 1.393 . S
C302 H294 0.950 . S
C302 C300 1.391 . S
C302 C303 1.400 . S
C303 C302 1.400 . S
C303 C304 1.398 . S
C303 C309 1.491 1_556 S
C304 H295 0.950 . S
C304 C303 1.398 . S
C304 C305 1.391 . S
C305 H293 0.950 . S
C305 C301 1.393 . S
C305 C304 1.391 . S
C306 H296 0.950 . S
C306 C307 1.386 . S
C306 C308 1.391 . S
C307 C306 1.386 . S
C307 C311 1.393 . S
C308 H297 0.950 . S
C308 C306 1.391 . S
C308 C309 1.400 . S
C309 C303 1.491 1_554 S
C309 C308 1.400 . S
C309 C310 1.398 . S
C310 H298 0.950 . S
C310 C309 1.398 . S
C310 C311 1.391 . S
C311 H299 0.950 . S
C311 C307 1.393 . S
C311 C310 1.391 . S
H312 C320 0.950 . S
H313 C325 0.950 . S
H314 C322 0.950 . S
H315 C324 0.950 . S
H316 C326 0.950 . S
H317 C328 0.950 . S
H318 C330 0.950 1_565 S
H319 C331 0.950 . S
C320 H312 0.950 . S
C320 C321 1.386 . S
C320 C322 1.391 . S
C321 C320 1.386 . S
C321 C325 1.393 . S
C322 H314 0.950 . S
C322 C320 1.391 . S
C322 C323 1.400 . S
C323 C322 1.400 . S
C323 C324 1.398 . S
C323 C329 1.491 . S
C324 H315 0.950 . S
C324 C323 1.398 . S
C324 C325 1.391 . S
C325 H313 0.950 . S
C325 C321 1.393 . S
C325 C324 1.391 . S
C326 H316 0.950 . S
C326 C327 1.386 . S
C326 C328 1.391 . S
C327 C326 1.386 . S
C327 C331 1.393 . S
C328 H317 0.950 . S
C328 C326 1.391 . S
C328 C329 1.400 1_545 S
C329 C323 1.491 . S
C329 C328 1.400 1_565 S
C329 C330 1.398 1_565 S
C330 H318 0.950 1_545 S
C330 C329 1.398 1_545 S
C330 C331 1.391 . S
C331 H319 0.950 . S
C331 C327 1.393 . S
C331 C330 1.391 . S
H332 C340 0.950 . S
H333 C345 0.950 . S
H334 C342 0.950 . S
H335 C344 0.950 . S
H336 C346 0.950 . S
H337 C348 0.950 . S
H338 C350 0.950 1_665 S
H339 C351 0.950 . S
C340 H332 0.950 . S
C340 C341 1.386 . S
C340 C342 1.391 . S
C341 C340 1.386 . S
C341 C345 1.393 . S
C342 H334 0.950 . S
C342 C340 1.391 . S
C342 C343 1.400 . S
C343 C342 1.400 . S
C343 C344 1.398 1_655 S
C343 C349 1.491 1_665 S
C344 H335 0.950 . S
C344 C343 1.398 1_455 S
C344 C345 1.391 1_455 S
C345 H333 0.950 . S
C345 C341 1.393 . S
C345 C344 1.391 1_655 S
C346 H336 0.950 . S
C346 C347 1.386 . S
C346 C348 1.391 . S
C347 C346 1.386 . S
C347 C351 1.393 . S
C348 H337 0.950 . S
C348 C346 1.391 . S
C348 C349 1.400 . S
C349 C343 1.491 1_445 S
C349 C348 1.400 . S
C349 C350 1.398 . S
C350 H338 0.950 1_445 S
C350 C349 1.398 . S
C350 C351 1.391 . S
C351 H339 0.950 . S
C351 C347 1.393 . S
C351 C350 1.391 . S
H352 C360 0.950 . S
H353 C365 0.950 1_455 S
H354 C362 0.950 . S
H355 C364 0.950 . S
H356 C366 0.950 . S
H357 C368 0.950 . S
H358 C370 0.950 1_655 S
H359 C371 0.950 . S
C360 H352 0.950 . S
C360 C361 1.386 . S
C360 C362 1.391 . S
C361 C360 1.386 . S
C361 C365 1.393 . S
C362 H354 0.950 . S
C362 C360 1.391 . S
C362 C363 1.400 1_655 S
C363 C362 1.400 1_455 S
C363 C364 1.398 . S
C363 C369 1.491 . S
C364 H355 0.950 . S
C364 C363 1.398 . S
C364 C365 1.391 1_455 S
C365 H353 0.950 1_655 S
C365 C361 1.393 . S
C365 C364 1.391 1_655 S
C366 H356 0.950 . S
C366 C367 1.386 . S
C366 C368 1.391 . S
C367 C366 1.386 . S
C367 C371 1.393 . S
C368 H357 0.950 . S
C368 C366 1.391 . S
C368 C369 1.400 . S
C369 C363 1.491 . S
C369 C368 1.400 . S
C369 C370 1.398 . S
C370 H358 0.950 1_455 S
C370 C369 1.398 . S
C370 C371 1.391 . S
C371 H359 0.950 . S
C371 C367 1.393 . S
C371 C370 1.391 . S
H372 C380 0.950 . S
H373 C385 0.950 . S
H374 C382 0.950 . S
H375 C384 0.950 . S
H376 C386 0.950 . S
H377 C388 0.950 . S
H378 C390 0.950 . S
H379 C391 0.950 . S
C380 H372 0.950 . S
C380 C381 1.386 . S
C380 C382 1.391 . S
C381 C380 1.386 . S
C381 C385 1.393 . S
C382 H374 0.950 . S
C382 C380 1.391 . S
C382 C383 1.400 . S
C383 C382 1.400 . S
C383 C384 1.398 . S
C383 C389 1.491 . S
C384 H375 0.950 . S
C384 C383 1.398 . S
C384 C385 1.391 . S
C385 H373 0.950 . S
C385 C381 1.393 . S
C385 C384 1.391 . S
C386 H376 0.950 . S
C386 C387 1.386 . S
C386 C388 1.391 . S
C387 C386 1.386 . S
C387 C391 1.393 . S
C388 H377 0.950 . S
C388 C386 1.391 . S
C388 C389 1.400 . S
C389 C383 1.491 . S
C389 C388 1.400 . S
C389 C390 1.398 . S
C390 H378 0.950 . S
C390 C389 1.398 . S
C390 C391 1.391 . S
C391 H379 0.950 . S
C391 C387 1.393 . S
C391 C390 1.391 . S
H392 C400 0.950 . S
H393 C405 0.950 . S
H394 C402 0.950 . S
H395 C404 0.944 1_556 S
H396 C406 0.950 . S
H397 C408 0.950 . S
H398 C410 0.944 1_554 S
H399 C411 0.950 . S
C400 H392 0.950 . S
C400 C401 1.386 . S
C400 C402 1.391 . S
C401 C400 1.386 . S
C401 C405 1.393 . S
C402 H394 0.950 . S
C402 C400 1.391 . S
C402 C403 1.400 . S
C403 C402 1.400 . S
C403 C404 1.400 . S
C403 C409 1.491 1_554 S
C404 H395 0.944 1_554 S
C404 C403 1.400 . S
C404 C405 1.395 . S
C405 H393 0.950 . S
C405 C401 1.393 . S
C405 C404 1.395 . S
C406 H396 0.950 . S
C406 C407 1.386 . S
C406 C408 1.391 . S
C407 C406 1.386 . S
C407 C411 1.393 . S
C408 H397 0.950 . S
C408 C406 1.391 . S
C408 C409 1.400 . S
C409 C403 1.491 1_556 S
C409 C408 1.400 . S
C409 C410 1.400 . S
C410 H398 0.944 1_556 S
C410 C409 1.400 . S
C410 C411 1.395 . S
C411 H399 0.950 . S
C411 C407 1.393 . S
C411 C410 1.395 . S
H412 C420 0.950 . S
H413 C425 0.950 . S
H414 C422 0.950 . S
H415 C424 0.950 . S
H416 C426 0.950 . S
H417 C428 0.950 . S
H418 C430 0.950 . S
H419 C431 0.950 . S
C420 H412 0.950 . S
C420 C421 1.386 . S
C420 C422 1.391 . S
C421 C420 1.386 . S
C421 C425 1.393 . S
C422 H414 0.950 . S
C422 C420 1.391 . S
C422 C423 1.400 . S
C423 C422 1.400 . S
C423 C424 1.398 . S
C423 C429 1.491 . S
C424 H415 0.950 . S
C424 C423 1.398 . S
C424 C425 1.391 . S
C425 H413 0.950 . S
C425 C421 1.393 . S
C425 C424 1.391 . S
C426 H416 0.950 . S
C426 C427 1.386 . S
C426 C428 1.391 . S
C427 C426 1.386 . S
C427 C431 1.393 . S
C428 H417 0.950 . S
C428 C426 1.391 . S
C428 C429 1.400 . S
C429 C423 1.491 . S
C429 C428 1.400 . S
C429 C430 1.398 . S
C430 H418 0.950 . S
C430 C429 1.398 . S
C430 C431 1.391 . S
C431 H419 0.950 . S
C431 C427 1.393 . S
C431 C430 1.391 . S
C121 C75 1.558 . S
C127 C5 1.552 . S
C141 C109 1.537 . S
C147 C14 1.530 . S
C161 C37 1.532 . S
C167 C93 1.532 . S
C181 C53 1.527 . S
C187 C56 1.532 . S
C201 C84 1.539 . S
C207 C11 1.529 . S
C221 C23 1.531 . S
C227 C65 1.532 . S
C241 C81 1.537 . S
C247 C28 1.537 . S
C261 C47 1.557 . S
C267 C103 1.553 . S
C281 C67 1.527 . S
C287 C70 1.532 . S
C301 C19 1.555 . S
C307 C33 1.555 . S
C321 C42 1.539 . S
C327 C39 1.528 . S
C341 C51 1.531 . S
C347 C9 1.532 . S
C361 C25 1.539 . S
C367 C0 1.534 . S
C381 C98 1.535 . S
C387 C95 1.538 . S
C401 C61 1.552 . S
C407 C89 1.558 . S
C421 C79 1.532 . S
C427 C107 1.531 . S
