# Generated by pormake.
# Topology unn, (4)-cn, num edge types: 1
# Building blocks:
#     Node 0, Type 0, BuildingBlock: QUQFOY_clean_sbu_1, # of connection points: 4
#     Node 1, Type 0, BuildingBlock: QUQFOY_clean_sbu_1, # of connection points: 4
#     Node 2, Type 0, BuildingBlock: QUQFOY_clean_sbu_1, # of connection points: 4
#     Node 3, Type 0, BuildingBlock: QUQFOY_clean_sbu_1, # of connection points: 4
#     Node 4, Type 0, BuildingBlock: QUQFOY_clean_sbu_1, # of connection points: 4
#     Node 5, Type 0, BuildingBlock: QUQFOY_clean_sbu_1, # of connection points: 4
#     Node 6, Type 0, BuildingBlock: QUQFOY_clean_sbu_1, # of connection points: 4
#     Node 7, Type 0, BuildingBlock: QUQFOY_clean_sbu_1, # of connection points: 4
#     Node 8, Type 0, BuildingBlock: QUQFOY_clean_sbu_1, # of connection points: 4
#     Node 9, Type 0, BuildingBlock: QUQFOY_clean_sbu_1, # of connection points: 4
#     Node 10, Type 0, BuildingBlock: QUQFOY_clean_sbu_1, # of connection points: 4
#     Node 11, Type 0, BuildingBlock: QUQFOY_clean_sbu_1, # of connection points: 4
#     Node 12, Type 0, BuildingBlock: QUQFOY_clean_sbu_1, # of connection points: 4
#     Node 13, Type 0, BuildingBlock: QUQFOY_clean_sbu_1, # of connection points: 4
#     Node 14, Type 0, BuildingBlock: QUQFOY_clean_sbu_1, # of connection points: 4
#     Node 15, Type 0, BuildingBlock: QUQFOY_clean_sbu_1, # of connection points: 4
#     Node 16, Type 0, BuildingBlock: QUQFOY_clean_sbu_1, # of connection points: 4
#     Node 17, Type 0, BuildingBlock: QUQFOY_clean_sbu_1, # of connection points: 4
#     Edge 18, Type (0, 0), BuildingBlock: AJUNOK_clean_linker_0, # of connection points: 2
#     Edge 19, Type (0, 0), BuildingBlock: AJUNOK_clean_linker_0, # of connection points: 2
#     Edge 20, Type (0, 0), BuildingBlock: AJUNOK_clean_linker_0, # of connection points: 2
#     Edge 21, Type (0, 0), BuildingBlock: AJUNOK_clean_linker_0, # of connection points: 2
#     Edge 22, Type (0, 0), BuildingBlock: AJUNOK_clean_linker_0, # of connection points: 2
#     Edge 23, Type (0, 0), BuildingBlock: AJUNOK_clean_linker_0, # of connection points: 2
#     Edge 24, Type (0, 0), BuildingBlock: AJUNOK_clean_linker_0, # of connection points: 2
#     Edge 25, Type (0, 0), BuildingBlock: AJUNOK_clean_linker_0, # of connection points: 2
#     Edge 26, Type (0, 0), BuildingBlock: AJUNOK_clean_linker_0, # of connection points: 2
#     Edge 27, Type (0, 0), BuildingBlock: AJUNOK_clean_linker_0, # of connection points: 2
#     Edge 28, Type (0, 0), BuildingBlock: AJUNOK_clean_linker_0, # of connection points: 2
#     Edge 29, Type (0, 0), BuildingBlock: AJUNOK_clean_linker_0, # of connection points: 2
#     Edge 30, Type (0, 0), BuildingBlock: AJUNOK_clean_linker_0, # of connection points: 2
#     Edge 31, Type (0, 0), BuildingBlock: AJUNOK_clean_linker_0, # of connection points: 2
#     Edge 32, Type (0, 0), BuildingBlock: AJUNOK_clean_linker_0, # of connection points: 2
#     Edge 33, Type (0, 0), BuildingBlock: AJUNOK_clean_linker_0, # of connection points: 2
#     Edge 34, Type (0, 0), BuildingBlock: AJUNOK_clean_linker_0, # of connection points: 2
#     Edge 35, Type (0, 0), BuildingBlock: AJUNOK_clean_linker_0, # of connection points: 2
#     Edge 36, Type (0, 0), BuildingBlock: AJUNOK_clean_linker_0, # of connection points: 2
#     Edge 37, Type (0, 0), BuildingBlock: AJUNOK_clean_linker_0, # of connection points: 2
#     Edge 38, Type (0, 0), BuildingBlock: AJUNOK_clean_linker_0, # of connection points: 2
#     Edge 39, Type (0, 0), BuildingBlock: AJUNOK_clean_linker_0, # of connection points: 2
#     Edge 40, Type (0, 0), BuildingBlock: AJUNOK_clean_linker_0, # of connection points: 2
#     Edge 41, Type (0, 0), BuildingBlock: AJUNOK_clean_linker_0, # of connection points: 2
#     Edge 42, Type (0, 0), BuildingBlock: AJUNOK_clean_linker_0, # of connection points: 2
#     Edge 43, Type (0, 0), BuildingBlock: AJUNOK_clean_linker_0, # of connection points: 2
#     Edge 44, Type (0, 0), BuildingBlock: AJUNOK_clean_linker_0, # of connection points: 2
#     Edge 45, Type (0, 0), BuildingBlock: AJUNOK_clean_linker_0, # of connection points: 2
#     Edge 46, Type (0, 0), BuildingBlock: AJUNOK_clean_linker_0, # of connection points: 2
#     Edge 47, Type (0, 0), BuildingBlock: AJUNOK_clean_linker_0, # of connection points: 2
#     Edge 48, Type (0, 0), BuildingBlock: AJUNOK_clean_linker_0, # of connection points: 2
#     Edge 49, Type (0, 0), BuildingBlock: AJUNOK_clean_linker_0, # of connection points: 2
#     Edge 50, Type (0, 0), BuildingBlock: AJUNOK_clean_linker_0, # of connection points: 2
#     Edge 51, Type (0, 0), BuildingBlock: AJUNOK_clean_linker_0, # of connection points: 2
#     Edge 52, Type (0, 0), BuildingBlock: AJUNOK_clean_linker_0, # of connection points: 2
#     Edge 53, Type (0, 0), BuildingBlock: AJUNOK_clean_linker_0, # of connection points: 2
# Relax obj value: 0.142
# Max RMSD: 0.250
# Mean RMSD: 0.196
data_MOF--net-unn--node1-QUQFOY_clean_sbu_1--edge1-AJUNOK_clean_linker_0
_symmetry_space_group_name_H-M    P1
_symmetry_Int_Tables_number       1
_symmetry_cell_setting            triclinic
loop_
_symmetry_equiv_pos_as_xyz
'x, y, z'
_cell_length_a     32.853192
_cell_length_b     33.636359
_cell_length_c     30.406964
_cell_angle_alpha  90.801083
_cell_angle_beta   88.314292
_cell_angle_gamma 121.53918
loop_
_atom_site_label
_atom_site_type_symbol
_atom_site_fract_x
_atom_site_fract_y
_atom_site_fract_z
_atom_type_partial_charge
O0 O 0.15884 0.79269 0.25582 0.0
Cd1 Cd 0.10008 0.72963 0.24059 0.0
Cd2 Cd 1.06077 0.77643 0.24519 0.0
O3 O 0.11187 0.8087 0.29471 0.0
O4 O 0.11028 0.68209 0.26726 0.0
O5 O 1.0615 0.70417 0.29501 0.0
C6 C 0.08425 0.68275 0.2997 0.0
C7 C 0.97776 0.73871 0.24559 0.0
C8 C 0.15312 0.81443 0.28758 0.0
C9 C 0.07556 0.75138 0.15826 0.0
O10 O 0.08336 0.78693 0.18037 0.0
O11 O 0.07266 0.71698 0.17821 0.0
O12 O 1.00424 0.78371 0.24795 0.0
O13 O 0.99833 0.71507 0.24938 0.0
O14 O 0.51088 0.30216 0.19994 0.0
Cd15 Cd 0.48129 0.34191 0.21154 0.0
Cd16 Cd 0.41557 0.27176 0.25042 0.0
O17 O 0.43716 0.24175 0.19952 0.0
O18 O 0.49204 0.38521 0.16139 0.0
O19 O 0.42652 0.3155 0.1704 0.0
C20 C 0.45128 0.35254 0.147 0.0
C21 C 0.35407 0.28706 0.26571 0.0
C22 C 0.48158 0.26014 0.18893 0.0
C23 C 0.47545 0.33974 0.30895 0.0
O24 O 0.45957 0.29677 0.30246 0.0
O25 O 0.4804 0.36549 0.2763 0.0
O26 O 0.34752 0.24637 0.27394 0.0
O27 O 0.39209 0.31586 0.24365 0.0
O28 O 0.83224 0.16171 0.2238 0.0
Cd29 Cd 0.78433 0.09257 0.23563 0.0
Cd30 Cd 0.84885 0.10114 0.284 0.0
O31 O 0.89029 0.14842 0.23298 0.0
O32 O 0.74512 0.06107 0.18267 0.0
O33 O 0.80746 0.05677 0.20144 0.0
C34 C 0.77484 0.04763 0.17361 0.0
C35 C 0.82725 1.02664 0.3098 0.0
C36 C 0.87584 0.17423 0.21793 0.0
C37 C 0.77355 0.10086 0.32929 0.0
O38 O 0.81856 0.12682 0.32524 0.0
O39 O 0.74995 0.07418 0.29765 0.0
O40 O 0.86768 0.06305 0.32039 0.0
O41 O 0.80293 1.03202 0.28051 0.0
O42 O 0.16108 0.38496 0.76139 0.0
Cd43 Cd 0.10658 0.38832 0.73582 0.0
Cd44 Cd 1.06469 0.29885 0.74354 0.0
O45 O 0.10972 0.32166 0.7984 0.0
O46 O 0.10932 0.44299 0.76628 0.0
O47 O 1.05596 0.3687 0.78127 0.0
C48 C 0.07579 0.41199 0.7919 0.0
C49 C 0.98139 0.25153 0.73759 0.0
C50 C 0.15132 0.35827 0.79422 0.0
C51 C 0.09723 0.3385 0.65522 0.0
O52 O 0.09653 0.30966 0.68227 0.0
O53 O 0.09285 0.37194 0.66953 0.0
O54 O 1.00714 0.23343 0.74401 0.0
O55 O 1.00236 0.29627 0.73894 0.0
O56 O 0.86968 0.66027 0.71248 0.0
Cd57 Cd 0.82049 0.68009 0.71906 0.0
Cd58 Cd 0.88686 0.74776 0.75873 0.0
O59 O 0.92725 0.73405 0.71299 0.0
O60 O 0.78007 0.65893 0.66567 0.0
O61 O 0.83717 0.73238 0.67731 0.0
C62 C 0.80596 0.7014 0.65146 0.0
C63 C 0.87338 0.80789 0.77605 0.0
C64 C 0.91292 0.69148 0.70396 0.0
C65 C 0.81441 0.68257 0.81484 0.0
O66 O 0.85933 0.70277 0.80988 0.0
O67 O 0.7888 0.67484 0.78137 0.0
O68 O 0.91319 0.81122 0.78576 0.0
O69 O 0.84479 0.77386 0.75098 0.0
O70 O 0.35474 1.01251 0.74518 0.0
Cd71 Cd 0.4119 0.0779 0.735 0.0
Cd72 Cd 0.35023 0.09891 0.73555 0.0
O73 O 0.32154 0.04497 0.7828 0.0
O74 O 0.46557 0.08212 0.76852 0.0
O75 O 0.42135 0.11085 0.79192 0.0
C76 C 0.45195 0.0991 0.80019 0.0
C77 C 0.3846 0.17991 0.73538 0.0
C78 C 0.32534 1.00955 0.77492 0.0
C79 C 0.38308 0.09227 0.65051 0.0
O80 O 0.34401 0.07741 0.67191 0.0
O81 O 0.42115 0.10467 0.67131 0.0
O82 O 0.33863 0.15194 0.73805 0.0
O83 O 0.41064 0.16186 0.73878 0.0
O84 O 0.80484 0.12276 0.61374 0.0
Cd85 Cd 0.74003 0.06506 0.60125 0.0
Cd86 Cd 0.71738 0.12343 0.59713 0.0
O87 O 0.76719 0.15261 0.64788 0.0
O88 O 0.73884 1.01422 0.63448 0.0
O89 O 0.70074 0.05012 0.65607 0.0
C90 C 0.71712 1.02374 0.66525 0.0
C91 C 0.63592 0.0924 0.58969 0.0
C92 C 0.80463 0.15027 0.64265 0.0
C93 C 0.73192 0.09081 0.5146 0.0
O94 O 0.74512 0.12867 0.53508 0.0
O95 O 0.71816 0.05374 0.53659 0.0
O96 O 0.66549 0.13709 0.59167 0.0
O97 O 0.65184 0.06565 0.59891 0.0
O98 O 1.06251 0.6696 0.57851 0.0
Cd99 Cd 0.12236 0.66755 0.56862 0.0
Cd100 Cd 1.06453 0.58412 0.55389 0.0
O101 O 1.02773 0.5983 0.60474 0.0
O102 O 0.16774 0.71206 0.61247 0.0
O103 O 0.1275 0.63481 0.61993 0.0
C104 C 0.15229 0.67572 0.63742 0.0
C105 C 0.09705 0.53744 0.5411 0.0
C106 C 1.0309 0.63791 0.60338 0.0
C107 C 0.10517 0.64346 0.47786 0.0
O108 O 0.06579 0.61141 0.49444 0.0
O109 O 0.14037 0.66868 0.50254 0.0
O110 O 1.05133 0.52001 0.54037 0.0
O111 O 0.12323 0.57936 0.55609 0.0
O112 O 0.42876 0.33789 0.60113 0.0
Cd113 Cd 0.42748 0.39213 0.57475 0.0
Cd114 Cd 0.51725 0.42898 0.5754 0.0
O115 O 0.49635 0.38694 0.63301 0.0
O116 O 0.37385 0.39238 0.60812 0.0
O117 O 0.45078 0.44207 0.6195 0.0
C118 C 0.40696 0.42392 0.63261 0.0
C119 C 0.56325 0.51002 0.56184 0.0
C120 C 0.45776 0.34686 0.63176 0.0
C121 C 0.47177 0.3915 0.4916 0.0
O122 O 0.50235 0.39315 0.51739 0.0
O123 O 0.44031 0.40001 0.50652 0.0
O124 O 0.58344 0.48654 0.56941 0.0
O125 O 0.51743 0.48836 0.56589 0.0
O126 O 0.82329 0.70845 0.11446 0.0
Cd127 Cd 0.77076 0.71408 0.08679 0.0
Cd128 Cd 0.73111 0.62495 0.08136 0.0
O129 O 0.7721 0.63706 0.13794 0.0
O130 O 0.77257 0.76779 0.11753 0.0
O131 O 0.71695 0.69356 0.12941 0.0
C132 C 0.73706 0.73664 0.14134 0.0
C133 C 0.64964 0.58025 0.06715 0.0
C134 C 0.81249 0.67514 0.14071 0.0
C135 C 0.76755 0.67661 -0.00058 0.0
O136 O 0.7659 0.64394 0.0214 0.0
O137 O 0.76395 0.70835 0.01911 0.0
O138 O 0.67454 0.56085 0.0712 0.0
O139 O 0.66957 0.62378 0.07733 0.0
O140 O 0.51744 0.98944 0.03236 0.0
Cd141 Cd 0.48041 1.02199 0.04265 0.0
Cd142 Cd 0.5538 0.08539 0.07788 0.0
O143 O 0.58257 0.0594 0.0296 0.0
O144 O 0.43668 1.01296 -0.00663 0.0
O145 O 0.5096 0.07494 -0.00057 0.0
C146 C 0.47132 0.05186 0.97724 0.0
C147 C 0.54428 0.14965 0.09041 0.0
C148 C 0.56131 1.01553 0.02135 0.0
C149 C 0.48387 1.02899 0.13984 0.0
O150 O 0.52808 0.04549 0.13279 0.0
O151 O 0.45723 1.02356 0.10776 0.0
O152 O 0.58469 0.15297 0.09745 0.0
O153 O 0.5122 0.11253 0.07098 0.0
O154 O 1.02113 0.3385 0.07908 0.0
Cd155 Cd 0.08164 0.40177 0.06738 0.0
Cd156 Cd 1.02405 0.42724 0.062 0.0
O157 O 0.99041 0.37596 0.11169 0.0
O158 O 0.13196 0.40272 0.10364 0.0
O159 O 0.09263 0.4379 0.12271 0.0
C160 C 0.11978 0.42266 0.13355 0.0
C161 C 1.06025 0.50802 0.05532 0.0
C162 C 0.99192 0.33886 0.10716 0.0
C163 C 1.05852 0.4157 0.97991 0.0
O164 O 1.01897 0.40223 -0.00012 0.0
O165 O 0.09523 0.42694 0.00245 0.0
O166 O 1.01415 0.48086 0.05669 0.0
O167 O 0.08528 0.48996 0.06473 0.0
O168 O 0.48943 0.47298 0.91957 0.0
Cd169 Cd 0.42466 0.41491 0.90727 0.0
Cd170 Cd 0.40018 0.47323 0.90447 0.0
O171 O 0.44997 0.49976 0.95557 0.0
O172 O 0.42309 0.36311 0.94002 0.0
O173 O 0.38721 0.40044 0.96337 0.0
C174 C 0.40222 0.37278 0.9715 0.0
C175 C 0.31715 0.43645 0.90236 0.0
C176 C 0.4878 0.49813 0.95031 0.0
C177 C 0.40888 0.44015 0.8211 0.0
O178 O 0.42464 0.47906 0.84048 0.0
O179 O 0.39789 0.40414 0.84386 0.0
O180 O 0.34397 0.48151 0.90404 0.0
O181 O 0.33715 0.41272 0.90827 0.0
O182 O 0.83069 0.95056 0.89065 0.0
Cd183 Cd 0.8004 0.98888 0.90209 0.0
Cd184 Cd 0.72808 0.91788 0.93398 0.0
O185 O 0.75678 0.89085 0.88566 0.0
O186 O 0.81069 1.03487 0.85441 0.0
O187 O 0.74831 0.96271 0.8578 0.0
C188 C 0.77154 1.00197 0.83759 0.0
C189 C 0.66902 0.93831 0.94015 0.0
C190 C 0.80183 0.90917 0.87784 0.0
C191 C 0.78162 0.97786 0.0002 0.0
O192 O 0.76054 0.93443 0.99263 0.0
O193 O 0.79515 1.0066 0.96815 0.0
O194 O 0.65763 0.89543 0.94502 0.0
O195 O 0.71191 0.96774 0.92677 0.0
O196 O 0.16717 0.82011 0.87479 0.0
Cd197 Cd 0.12196 0.74992 0.88186 0.0
Cd198 Cd 0.18279 0.76185 0.93584 0.0
O199 O 0.22738 0.81092 0.88779 0.0
O200 O 0.09109 0.72027 0.82473 0.0
O201 O 0.15406 0.72069 0.84993 0.0
C202 C 0.12498 0.71177 0.81852 0.0
C203 C 0.15884 0.68733 0.96253 0.0
C204 C 0.21169 0.83548 0.87225 0.0
C205 C 0.10191 0.75734 0.97297 0.0
O206 O 0.14665 0.7856 0.97112 0.0
O207 O 0.082 0.72859 0.94151 0.0
O208 O 0.19716 0.72368 0.97704 0.0
O209 O 0.13933 0.69295 0.92894 0.0
O210 O 0.49102 0.06025 0.44079 0.0
Cd211 Cd 0.43675 0.06126 0.41135 0.0
Cd212 Cd 0.40156 0.97254 0.40856 0.0
O213 O 0.44198 0.98948 0.46647 0.0
O214 O 0.43534 0.11393 0.44037 0.0
O215 O 0.38146 1.03896 0.4522 0.0
C216 C 0.39985 0.08203 0.46366 0.0
C217 C 0.32031 0.92031 0.39602 0.0
C218 C 0.48105 1.02889 0.46911 0.0
C219 C 0.4383 1.02441 0.32541 0.0
O220 O 0.4366 0.99212 0.34816 0.0
O221 O 0.43201 0.05496 0.34405 0.0
O222 O 0.3494 0.90571 0.40059 0.0
O223 O 0.33624 0.96374 0.40407 0.0
O224 O 0.19212 0.31791 0.36338 0.0
Cd225 Cd 0.14675 0.34191 0.37441 0.0
Cd226 Cd 0.21393 0.40069 0.42119 0.0
O227 O 0.25295 0.38987 0.37082 0.0
O228 O 0.10453 0.33026 0.32326 0.0
O229 O 0.17099 0.39804 0.33539 0.0
C230 C 0.13533 0.37243 0.31065 0.0
C231 C 0.19153 0.45412 0.44383 0.0
C232 C 0.23624 0.34808 0.35687 0.0
C233 C 0.13838 0.33214 0.47018 0.0
O234 O 0.18248 0.34717 0.46484 0.0
O235 O 0.11546 0.3339 0.4379 0.0
O236 O 0.23156 0.45958 0.4563 0.0
O237 O 0.16927 0.42366 0.41363 0.0
O238 O 0.68438 0.67866 0.42595 0.0
Cd239 Cd 0.74709 0.7393 0.41253 0.0
Cd240 Cd 0.6914 0.76701 0.41175 0.0
O241 O 0.66116 0.7189 0.46465 0.0
O242 O 0.7942 0.72713 0.43811 0.0
O243 O 0.77292 0.77439 0.46833 0.0
C244 C 0.79285 0.7501 0.47208 0.0
C245 C 0.73237 0.84805 0.404 0.0
C246 C 0.6598 0.68065 0.45787 0.0
C247 C 0.72128 0.75279 0.32783 0.0
O248 O 0.68261 0.73969 0.34941 0.0
O249 O 0.75911 0.76422 0.34841 0.0
O250 O 0.68611 0.82343 0.40646 0.0
O251 O 0.75512 0.8274 0.41275 0.0
C252 C 1.05982 0.70991 0.08591 0.0
C253 C 0.07186 0.75073 0.10974 0.0
C254 C 1.063 0.71031 0.03981 0.0
C255 C 0.07856 0.75159 0.01619 0.0
H256 H 1.05038 0.67801 0.10293 0.0
H257 H 1.05767 0.67942 0.02301 0.0
S258 S 0.10649 0.86555 0.0617 0.0
N259 N 0.09336 0.83184 0.10529 0.0
N260 N 0.10038 0.83241 0.0188 0.0
C261 C 0.08641 0.7913 0.03916 0.0
C262 C 0.08284 0.79096 0.08595 0.0
C263 C 0.42329 0.40026 0.04816 0.0
C264 C 0.40732 0.36346 0.01758 0.0
C265 C 0.43743 0.39662 0.09018 0.0
C266 C 0.4346 0.35551 0.10348 0.0
H267 H 0.42734 0.43314 0.03879 0.0
H268 H 0.45093 0.42619 0.11226 0.0
S269 S 0.39392 0.24868 0.03658 0.0
N270 N 0.38944 0.28478 0.00359 0.0
N271 N 0.41357 0.27681 0.08356 0.0
C272 C 0.41708 0.31784 0.07389 0.0
C273 C 0.4041 0.32211 0.03062 0.0
C274 C 0.81896 1.03685 0.11108 0.0
C275 C 0.77507 1.02672 0.13066 0.0
C276 C 0.82118 1.021 0.06866 0.0
C277 C 0.77944 0.99342 0.04511 0.0
H278 H 0.85206 0.05848 0.12808 0.0
H279 H 0.85562 1.03036 0.05422 0.0
S280 S 0.65572 0.95555 0.08186 0.0
N281 N 0.68906 0.98712 0.12314 0.0
N282 N 0.69305 0.95553 0.04428 0.0
C283 C 0.73531 0.98202 0.06463 0.0
C284 C 0.73315 0.99915 0.10723 0.0
C285 C 0.76021 0.13461 0.444 0.0
C286 C 0.73508 0.09134 0.46595 0.0
C287 C 0.76895 0.13716 0.39865 0.0
C288 C 0.75215 0.09662 0.37332 0.0
H289 H 0.77541 0.16704 0.46215 0.0
H290 H 0.79112 0.17122 0.38358 0.0
S291 S 0.67957 0.97471 0.4134 0.0
N292 N 0.68973 1.00679 0.45806 0.0
N293 N 0.70589 1.01192 0.37223 0.0
C294 C 0.72401 0.05308 0.39401 0.0
C295 C 0.71562 0.05036 0.44054 0.0
C296 C 0.11614 0.6983 0.419 0.0
C297 C 0.10672 0.65419 0.43115 0.0
C298 C 0.1078 0.70651 0.37622 0.0
C299 C 0.09081 0.67119 0.34414 0.0
H300 H 0.12771 0.72587 0.44319 0.0
H301 H 0.11472 0.74084 0.36815 0.0
S302 S 1.06448 0.55092 0.35889 0.0
N303 N 0.08118 0.57522 0.40788 0.0
N304 N 0.06801 0.5917 0.3264 0.0
C305 C 0.08354 0.62766 0.35525 0.0
C306 C 0.09076 0.61886 0.39919 0.0
C307 C 0.46068 0.3981 0.41099 0.0
C308 C 0.47331 0.37886 0.44492 0.0
C309 C 0.46405 0.38742 0.3666 0.0
C310 C 0.47925 0.35645 0.35481 0.0
H311 H 0.4485 0.42179 0.41874 0.0
H312 H 0.45308 0.40221 0.34152 0.0
S313 S 0.5157 0.2963 0.43118 0.0
N314 N 0.50173 0.32748 0.46351 0.0
N315 N 0.50704 0.3069 0.38057 0.0
C316 C 0.492 0.33715 0.38844 0.0
C317 C 0.48929 0.34848 0.43335 0.0
C318 C 0.10883 0.45071 0.86312 0.0
C319 C 0.06857 0.42286 0.83745 0.0
C320 C 0.10534 0.44868 0.90927 0.0
C321 C 1.06132 0.41933 0.93125 0.0
H322 H 0.14389 0.47144 0.84756 0.0
H323 H 0.13754 0.46935 0.92777 0.0
S324 S 0.9445 0.34341 0.87849 0.0
N325 N 0.98308 0.36789 0.83693 0.0
N326 N 0.97586 0.36478 0.92342 0.0
C327 C 1.02027 0.39381 0.90576 0.0
C328 C 1.02405 0.39547 0.85892 0.0
C329 C 0.80218 0.72001 0.92906 0.0
C330 C 0.77405 0.67736 0.9512 0.0
C331 C 0.81316 0.72109 0.88411 0.0
C332 C 0.79539 0.67966 0.85968 0.0
H333 H 0.81763 0.75263 0.94694 0.0
H334 H 0.83688 0.75458 0.86854 0.0
S335 S 0.71536 0.55943 0.90093 0.0
N336 N 0.72533 0.59277 0.94464 0.0
N337 N 0.74547 0.5953 0.85964 0.0
C338 C 0.76496 0.63699 0.88066 0.0
C339 C 0.75442 0.63573 0.92665 0.0
C340 C 0.42677 0.06524 0.92015 0.0
C341 C 0.46885 0.06829 0.93328 0.0
C342 C 0.42324 0.07864 0.87769 0.0
C343 C 0.46114 0.09419 0.84644 0.0
H344 H 0.39627 0.05206 0.9427 0.0
H345 H 0.38955 0.07444 0.86864 0.0
S346 S 0.57896 0.10836 0.86479 0.0
N347 N 0.54977 0.08925 0.91242 0.0
N348 N 0.54209 0.11223 0.83178 0.0
C349 C 0.50356 0.09778 0.85932 0.0
C350 C 0.50769 0.08544 0.90301 0.0
C351 C 0.42457 0.1281 0.57882 0.0
C352 C 0.38362 0.09406 0.60201 0.0
C353 C 0.42709 0.12776 0.53273 0.0
C354 C 0.38942 0.09236 0.50843 0.0
H355 H 0.45535 0.15441 0.59642 0.0
H356 H 0.46031 0.15314 0.51637 0.0
S357 S 0.272 0.99907 0.55327 0.0
N358 N 0.30228 1.02757 0.59707 0.0
N359 N 0.30799 1.02589 0.51055 0.0
C360 C 0.34701 0.06032 0.53108 0.0
C361 C 0.34397 0.06129 0.57789 0.0
C362 C 0.08878 0.3524 0.57588 0.0
C363 C 0.10371 0.33282 0.60753 0.0
C364 C 0.09616 0.3484 0.53068 0.0
C365 C 0.11938 0.32531 0.51575 0.0
H366 H 0.07196 0.37156 0.58607 0.0
H367 H 0.08619 0.36581 0.50749 0.0
S368 S 0.1636 0.26642 0.58456 0.0
N369 N 0.14087 0.28757 0.62018 0.0
N370 N 0.15544 0.28116 0.53553 0.0
C371 C 0.13302 0.30437 0.54684 0.0
C372 C 0.12503 0.30785 0.59265 0.0
C373 C 0.81198 0.7712 0.55145 0.0
C374 C 0.80295 0.74001 0.51646 0.0
C375 C 0.81309 0.75861 0.59511 0.0
C376 C 0.80339 0.71377 0.60551 0.0
H377 H 0.81744 0.8053 0.54514 0.0
H378 H 0.82045 0.78377 0.62101 0.0
S379 S 0.77887 0.61945 0.52622 0.0
N380 N 0.78605 0.66277 0.49538 0.0
N381 N 0.78617 0.63875 0.57732 0.0
C382 C 0.7948 0.68246 0.57091 0.0
C383 C 0.79517 0.6957 0.52642 0.0
C384 C 0.43273 0.47595 0.7461 0.0
C385 C 0.40273 0.43704 0.77284 0.0
C386 C 0.43062 0.47282 0.70009 0.0
C387 C 0.39765 0.43102 0.67908 0.0
H388 H 0.4598 0.50842 0.76069 0.0
H389 H 0.45682 0.50261 0.68078 0.0
S390 S 0.30619 0.3212 0.7345 0.0
N391 N 0.3356 0.35692 0.77525 0.0
N392 N 0.33097 0.35128 0.6888 0.0
C393 C 0.36481 0.39301 0.70555 0.0
C394 C 0.36763 0.3959 0.75243 0.0
C395 C 0.72 0.97417 0.72384 0.0
C396 C 0.72292 1.01562 0.7115 0.0
C397 C 0.7345 0.96973 0.76545 0.0
C398 C 0.75428 1.00729 0.79527 0.0
H399 H 0.70752 0.94546 0.70083 0.0
H400 H 0.73205 0.93727 0.77363 0.0
S401 S 0.76946 0.12317 0.77889 0.0
N402 N 0.7454 0.09445 0.73308 0.0
N403 N 0.775 0.08666 0.81026 0.0
C404 C 0.75693 0.04868 0.7836 0.0
C405 C 0.74057 0.05267 0.74194 0.0
C406 C 0.09848 0.66082 0.75184 0.0
C407 C 0.1347 0.69883 0.77465 0.0
C408 C 0.10639 0.65132 0.70839 0.0
C409 C 0.1502 0.68052 0.68573 0.0
H410 H 1.06359 0.63889 0.76735 0.0
H411 H 0.0768 0.6226 0.69154 0.0
S412 S 0.25631 0.78463 0.73132 0.0
N413 N 0.21644 0.76498 0.77235 0.0
N414 N 0.23026 0.74862 0.68978 0.0
C415 C 0.18688 0.71822 0.70852 0.0
C416 C 0.17937 0.72697 0.75323 0.0
C417 C 0.68581 0.71462 0.25686 0.0
C418 C 0.72164 0.75319 0.27948 0.0
C419 C 0.68845 0.71164 0.21102 0.0
C420 C 0.72671 0.74745 0.18618 0.0
H421 H 0.65703 0.68534 0.27488 0.0
H422 H 0.66187 0.6797 0.1953 0.0
S423 S 0.82253 0.86112 0.22988 0.0
N424 N 0.79159 0.83131 0.27399 0.0
N425 N 0.79634 0.82652 0.18751 0.0
C426 C 0.75988 0.78846 0.20828 0.0
C427 C 0.75756 0.79103 0.2551 0.0
C428 C 0.44398 0.98493 0.20892 0.0
C429 C 0.46731 1.0271 0.18553 0.0
C430 C 0.43424 0.9843 0.25427 0.0
C431 C 0.44722 1.02579 0.27738 0.0
H432 H 0.43456 0.95258 0.1924 0.0
H433 H 0.41674 0.95114 0.27139 0.0
S434 S 0.50944 0.14509 0.23028 0.0
N435 N 0.50357 0.11106 0.1882 0.0
N436 N 0.48436 0.10997 0.27301 0.0
C437 C 0.46966 0.06797 0.25387 0.0
C438 C 0.48005 0.06858 0.20801 0.0
C439 C 0.17232 0.41072 0.23854 0.0
C440 C 0.13216 0.38985 0.26743 0.0
C441 C 0.16899 0.42315 0.1954 0.0
C442 C 0.12598 0.41701 0.18057 0.0
H443 H 0.20592 0.41542 0.24865 0.0
H444 H 0.1999 0.43678 0.17333 0.0
S445 S 1.01134 0.36589 0.24455 0.0
N446 N 1.04859 0.36414 0.27864 0.0
N447 N 1.04281 0.39007 0.19887 0.0
C448 C 0.08624 0.3981 0.21002 0.0
C449 C 0.08919 0.38383 0.25316 0.0
C450 C 0.26543 0.85087 0.35085 0.0
C451 C 0.27344 0.89042 0.37463 0.0
C452 C 0.22631 0.82675 0.32332 0.0
C453 C 0.19284 0.84049 0.3187 0.0
H454 H 0.29074 0.8395 0.35184 0.0
H455 H 0.22257 0.79713 0.30513 0.0
S456 S 0.19434 0.93876 0.37706 0.0
N457 N 0.24261 0.94049 0.39389 0.0
N458 N 0.1683 0.89415 0.34286 0.0
C459 C 0.19877 0.87835 0.34407 0.0
C460 C 0.23923 0.90355 0.37176 0.0
C461 C 0.27835 0.27093 0.30528 0.0
C462 C 0.32293 0.30303 0.28575 0.0
C463 C 0.25072 0.28593 0.32782 0.0
C464 C 0.26678 0.33375 0.33261 0.0
H465 H 0.26478 0.23388 0.30352 0.0
H466 H 0.21668 0.25962 0.34227 0.0
S467 S 0.38112 0.4323 0.28769 0.0
N468 N 0.3817 0.38532 0.27243 0.0
N469 N 0.33019 0.41307 0.31531 0.0
C470 C 0.31123 0.36624 0.31315 0.0
C471 C 0.33908 0.35101 0.2896 0.0
C472 C 0.75544 0.9507 0.3336 0.0
C473 C 0.80538 0.98144 0.33424 0.0
C474 C 0.73227 0.90924 0.35819 0.0
C475 C 0.75789 0.89577 0.38406 0.0
H476 H 0.7336 0.95889 0.31423 0.0
H477 H 0.69388 0.88689 0.35573 0.0
S478 S 0.88944 0.96337 0.39724 0.0
N479 N 0.87979 0.99569 0.36375 0.0
N480 N 0.83649 0.91683 0.40875 0.0
C481 C 0.80794 0.92607 0.38509 0.0
C482 C 0.83156 0.969 0.36057 0.0
C483 C 0.89193 0.24794 0.18157 0.0
C484 C 0.90779 0.21744 0.19185 0.0
C485 C 0.91946 0.28747 0.15485 0.0
C486 C 0.9637 0.29782 0.13664 0.0
H487 H 0.85762 0.24113 0.194 0.0
H488 H 0.90548 0.30949 0.14767 0.0
S489 S 1.02386 0.23208 0.15618 0.0
N490 N 0.97244 0.20251 0.1837 0.0
N491 N 1.02394 0.27635 0.13333 0.0
C492 C 0.98071 0.26849 0.14757 0.0
C493 C 0.95291 0.22851 0.1752 0.0
C494 C 0.86727 0.65743 0.18062 0.0
C495 C 0.84603 0.68411 0.17639 0.0
C496 C 0.90762 0.67316 0.20684 0.0
C497 C 0.92799 0.71607 0.22962 0.0
H498 H 0.85493 0.62616 0.16111 0.0
H499 H 0.92503 0.65329 0.20645 0.0
S500 S 0.87916 0.79356 0.23586 0.0
N501 N 0.8437 0.75161 0.20189 0.0
N502 N 0.91885 0.78086 0.25119 0.0
C503 C 0.90402 0.74051 0.22876 0.0
C504 C 0.86329 0.72465 0.20207 0.0
C505 C 0.4671 0.19479 0.13753 0.0
C506 C 0.49911 0.2341 0.16213 0.0
C507 C 0.48277 0.16977 0.11218 0.0
C508 C 0.53115 0.18243 0.11065 0.0
H509 H 0.42944 0.18298 0.13795 0.0
H510 H 0.45615 0.13904 0.09498 0.0
S511 S 0.63 0.28367 0.1679 0.0
N512 N 0.58215 0.28562 0.18196 0.0
N513 N 0.61118 0.23815 0.13509 0.0
C514 C 0.56378 0.22241 0.13418 0.0
C515 C 0.5479 0.24824 0.15968 0.0
C516 C 0.87519 0.15603 0.67775 0.0
C517 C 0.84613 0.17484 0.67201 0.0
C518 C 0.91691 0.17938 0.70211 0.0
C519 C 0.93184 0.22295 0.72141 0.0
H520 H 0.86623 0.12322 0.66247 0.0
H521 H 0.93891 0.16421 0.70368 0.0
S522 S 0.86537 0.28461 0.72128 0.0
N523 N 0.83254 0.23728 0.69167 0.0
N524 N 0.91158 0.28188 0.73694 0.0
C525 C 0.90164 0.24091 0.71827 0.0
C526 C 0.85864 0.21669 0.69377 0.0
C527 C 0.95398 0.61774 0.64306 0.0
C528 C 1.00215 0.65016 0.63276 0.0
C529 C 0.92578 0.63129 0.66683 0.0
C530 C 0.94476 0.6777 0.68154 0.0
H531 H 0.93753 0.58217 0.63134 0.0
H532 H 0.88844 0.60524 0.67281 0.0
S533 S 0.07117 0.77411 0.6684 0.0
N534 N 0.06908 0.72947 0.64291 0.0
N535 N 1.01631 0.75472 0.68732 0.0
C536 C 0.99359 0.70976 0.67324 0.0
C537 C 1.02217 0.69603 0.64899 0.0
C538 C 0.37615 0.24367 0.7047 0.0
C539 C 0.40624 0.2289 0.71965 0.0
C540 C 0.39407 0.28363 0.67852 0.0
C541 C 0.44295 0.31109 0.66666 0.0
H542 H 0.33788 0.22254 0.71057 0.0
H543 H 0.36892 0.29188 0.66569 0.0
S544 S 0.53829 0.29255 0.70314 0.0
N545 N 0.48868 0.24855 0.72503 0.0
N546 N 0.52205 0.32414 0.67616 0.0
C547 C 0.47419 0.29948 0.68466 0.0
C548 C 0.45591 0.25828 0.71109 0.0
C549 C 0.25509 0.95473 0.82288 0.0
C550 C 0.2982 0.96606 0.8013 0.0
C551 C 0.22808 0.91286 0.84641 0.0
C552 C 0.24345 0.88095 0.85001 0.0
H553 H 0.2415 0.97784 0.82076 0.0
H554 H 0.19456 0.90532 0.8617 0.0
S555 S 0.3557 0.89576 0.80232 0.0
N556 N 0.3564 0.94298 0.78688 0.0
N557 N 0.30568 0.86464 0.83153 0.0
C558 C 0.2873 0.89257 0.82989 0.0
C559 C 0.31459 0.93496 0.8054 0.0
C560 C 0.21275 0.42226 0.83981 0.0
C561 C 0.18705 0.37448 0.82921 0.0
C562 C 0.25208 0.44125 0.86729 0.0
C563 C 0.26802 0.4134 0.88476 0.0
H564 H 0.20349 0.44565 0.8253 0.0
H565 H 0.27194 0.47865 0.87236 0.0
S566 S 0.20931 0.28494 0.87106 0.0
N567 N 0.17691 0.29877 0.84174 0.0
N568 N 0.25153 0.33421 0.89291 0.0
C569 C 0.24042 0.36481 0.87695 0.0
C570 C 0.19979 0.3454 0.84926 0.0
C571 C 0.80812 0.82202 0.80014 0.0
C572 C 0.85715 0.83714 0.7986 0.0
C573 C 0.79041 0.84493 0.82613 0.0
C574 C 0.82096 0.88429 0.85147 0.0
H575 H 0.78277 0.79129 0.78211 0.0
H576 H 0.75243 0.83166 0.82624 0.0
S577 S 0.95264 0.93893 0.85813 0.0
N578 N 0.93602 0.89459 0.82423 0.0
N579 N 0.90326 0.93785 0.87258 0.0
C580 C 0.87026 0.90028 0.84958 0.0
C581 C 0.88817 0.87674 0.82334 0.0
C582 C 0.63418 0.5724 0.51995 0.0
C583 C 0.59053 0.55772 0.54229 0.0
C584 C 0.65624 0.61258 0.49363 0.0
C585 C 0.6363 0.64058 0.48909 0.0
H586 H 0.65035 0.55143 0.52082 0.0
H587 H 0.68895 0.62126 0.47592 0.0
S588 S 0.52526 0.62066 0.54466 0.0
N589 N 0.52974 0.57639 0.56071 0.0
N590 N 0.57233 0.65283 0.5121 0.0
C591 C 0.59426 0.62808 0.51337 0.0
C592 C 0.57112 0.58645 0.53968 0.0
C593 C 0.56493 1.02671 0.55172 0.0
C594 C 0.58888 0.07281 0.56829 0.0
C595 C 0.52775 1.01117 0.52158 0.0
C596 C 0.51358 1.04134 0.50664 0.0
H597 H 0.57693 1.00329 0.55985 0.0
H598 H 0.51219 0.97645 0.50787 0.0
S599 S 0.5579 0.16193 0.54597 0.0
N600 N 0.5902 0.14571 0.57213 0.0
N601 N 0.52147 0.11697 0.51525 0.0
C602 C 0.53448 0.08604 0.52562 0.0
C603 C 0.57175 0.10163 0.55653 0.0
C604 C 0.19181 0.51098 0.49972 0.0
C605 C 0.16783 0.47645 0.46749 0.0
C606 C 0.16843 0.52948 0.52444 0.0
C607 C 0.11971 0.51349 0.51879 0.0
H608 H 0.22902 0.52397 0.5059 0.0
H609 H 0.18886 0.55678 0.54802 0.0
S610 S 1.04005 0.42295 0.4392 0.0
N611 N 0.092 0.427 0.43157 0.0
N612 N 1.0484 0.46074 0.47834 0.0
C613 C 0.09518 0.4785 0.48713 0.0
C614 C 0.1191 0.46036 0.46143 0.0
C615 C 0.55549 0.49935 0.98712 0.0
C616 C 0.52659 0.51859 0.98297 0.0
C617 C 0.59292 0.51748 0.0168 0.0
C618 C 0.60372 0.55615 0.04343 0.0
H619 H 0.54947 0.47003 0.96695 0.0
H620 H 0.61487 0.5022 0.0173 0.0
S621 S 0.53672 0.6173 0.04808 0.0
N622 N 0.50925 0.57647 0.01046 0.0
N623 N 0.5804 0.61142 0.06566 0.0
C624 C 0.57402 0.57472 0.04093 0.0
C625 C 0.53531 0.55574 0.01095 0.0
C626 C 0.65656 1.00446 0.95721 0.0
C627 C 0.63772 0.95588 0.95584 0.0
C628 C 0.63174 1.02336 0.97813 0.0
C629 C 0.58661 0.99458 -0.00161 0.0
H630 H 0.69174 1.02857 0.94322 0.0
H631 H 0.64837 0.06091 0.97873 0.0
S632 S 0.51997 0.86481 0.0024 0.0
N633 N 0.57022 0.87935 0.97543 0.0
N634 N 0.52317 0.9144 0.01425 0.0
C635 C 0.56656 0.94579 -0.00397 0.0
C636 C 0.59207 0.92656 0.9749 0.0
C637 C 0.15795 0.62967 0.01593 0.0
C638 C 0.13375 0.64189 0.98674 0.0
C639 C 0.1337 0.58719 0.03948 0.0
C640 C 0.08401 0.55588 0.03588 0.0
H641 H 0.19604 0.65262 0.01999 0.0
H642 H 0.15424 0.57853 0.06022 0.0
S643 S 1.00331 0.57305 0.96631 0.0
N644 N 1.05665 0.61966 0.95693 0.0
N645 N 1.01137 0.54146 0.00201 0.0
C646 C 1.05921 0.56864 0.00804 0.0
C647 C 0.08397 0.61109 0.98327 0.0
loop_
_geom_bond_atom_site_label_1
_geom_bond_atom_site_label_2
_geom_bond_distance
_geom_bond_site_symmetry_2
_ccdc_geom_bond_type
O0 Cd1 2.223 . S
O0 C8 1.315 . S
Cd1 O0 2.223 . S
Cd1 O4 2.297 . S
Cd1 O5 2.439 1_455 S
Cd1 O11 2.240 . S
Cd2 O3 2.240 . S
Cd2 O10 2.223 . S
Cd2 O12 2.297 1_455 S
Cd2 O13 2.439 1_455 S
O3 Cd2 2.240 . S
O3 C8 1.279 . S
O4 Cd1 2.297 . S
O4 C6 1.247 1_455 S
O5 Cd1 2.439 1_655 S
O5 C6 1.208 . S
C6 O4 1.247 1_655 S
C6 O5 1.208 . S
C7 O12 1.247 . S
C7 O13 1.208 . S
C8 O0 1.315 . S
C8 O3 1.279 . S
C9 O10 1.315 . S
C9 O11 1.279 . S
O10 Cd2 2.223 . S
O10 C9 1.315 . S
O11 Cd1 2.240 . S
O11 C9 1.279 . S
O12 Cd2 2.297 1_655 S
O12 C7 1.247 . S
O13 Cd2 2.439 1_655 S
O13 C7 1.208 . S
O14 Cd15 2.223 . S
O14 C22 1.315 . S
Cd15 O14 2.223 . S
Cd15 O18 2.297 . S
Cd15 O19 2.439 . S
Cd15 O25 2.240 . S
Cd16 O17 2.240 . S
Cd16 O24 2.223 . S
Cd16 O26 2.297 . S
Cd16 O27 2.439 . S
O17 Cd16 2.240 . S
O17 C22 1.279 . S
O18 Cd15 2.297 . S
O18 C20 1.247 . S
O19 Cd15 2.439 . S
O19 C20 1.208 . S
C20 O18 1.247 . S
C20 O19 1.208 . S
C21 O26 1.247 . S
C21 O27 1.208 . S
C22 O14 1.315 . S
C22 O17 1.279 . S
C23 O24 1.315 . S
C23 O25 1.279 . S
O24 Cd16 2.223 . S
O24 C23 1.315 . S
O25 Cd15 2.240 . S
O25 C23 1.279 . S
O26 Cd16 2.297 . S
O26 C21 1.247 . S
O27 Cd16 2.439 . S
O27 C21 1.208 . S
O28 Cd29 2.223 . S
O28 C36 1.315 . S
Cd29 O28 2.223 . S
Cd29 O32 2.297 . S
Cd29 O33 2.439 1_545 S
Cd29 O39 2.240 . S
Cd30 O31 2.240 . S
Cd30 O38 2.223 . S
Cd30 O40 2.297 1_545 S
Cd30 O41 2.439 1_545 S
O31 Cd30 2.240 . S
O31 C36 1.279 . S
O32 Cd29 2.297 . S
O32 C34 1.247 . S
O33 Cd29 2.439 1_565 S
O33 C34 1.208 1_565 S
C34 O32 1.247 . S
C34 O33 1.208 1_545 S
C35 O40 1.247 . S
C35 O41 1.208 . S
C36 O28 1.315 . S
C36 O31 1.279 . S
C37 O38 1.315 . S
C37 O39 1.279 . S
O38 Cd30 2.223 . S
O38 C37 1.315 . S
O39 Cd29 2.240 . S
O39 C37 1.279 . S
O40 Cd30 2.297 1_565 S
O40 C35 1.247 . S
O41 Cd30 2.439 1_565 S
O41 C35 1.208 . S
O42 Cd43 2.223 . S
O42 C50 1.315 . S
Cd43 O42 2.223 . S
Cd43 O46 2.297 . S
Cd43 O47 2.439 1_455 S
Cd43 O53 2.240 . S
Cd44 O45 2.240 . S
Cd44 O52 2.223 . S
Cd44 O54 2.297 1_455 S
Cd44 O55 2.439 1_455 S
O45 Cd44 2.240 . S
O45 C50 1.279 . S
O46 Cd43 2.297 . S
O46 C48 1.247 1_455 S
O47 Cd43 2.439 1_655 S
O47 C48 1.208 . S
C48 O46 1.247 1_655 S
C48 O47 1.208 . S
C49 O54 1.247 . S
C49 O55 1.208 . S
C50 O42 1.315 . S
C50 O45 1.279 . S
C51 O52 1.315 . S
C51 O53 1.279 . S
O52 Cd44 2.223 . S
O52 C51 1.315 . S
O53 Cd43 2.240 . S
O53 C51 1.279 . S
O54 Cd44 2.297 1_655 S
O54 C49 1.247 . S
O55 Cd44 2.439 1_655 S
O55 C49 1.208 . S
O56 Cd57 2.223 . S
O56 C64 1.315 . S
Cd57 O56 2.223 . S
Cd57 O60 2.297 . S
Cd57 O61 2.439 . S
Cd57 O67 2.240 . S
Cd58 O59 2.240 . S
Cd58 O66 2.223 . S
Cd58 O68 2.297 . S
Cd58 O69 2.439 . S
O59 Cd58 2.240 . S
O59 C64 1.279 . S
O60 Cd57 2.297 . S
O60 C62 1.247 . S
O61 Cd57 2.439 . S
O61 C62 1.208 . S
C62 O60 1.247 . S
C62 O61 1.208 . S
C63 O68 1.247 . S
C63 O69 1.208 . S
C64 O56 1.315 . S
C64 O59 1.279 . S
C65 O66 1.315 . S
C65 O67 1.279 . S
O66 Cd58 2.223 . S
O66 C65 1.315 . S
O67 Cd57 2.240 . S
O67 C65 1.279 . S
O68 Cd58 2.297 . S
O68 C63 1.247 . S
O69 Cd58 2.439 . S
O69 C63 1.208 . S
O70 Cd71 2.223 . S
O70 C78 1.315 . S
Cd71 O70 2.223 . S
Cd71 O74 2.297 . S
Cd71 O75 2.439 1_565 S
Cd71 O81 2.240 1_565 S
Cd72 O73 2.240 1_545 S
Cd72 O80 2.223 1_545 S
Cd72 O82 2.297 . S
Cd72 O83 2.439 . S
O73 Cd72 2.240 1_565 S
O73 C78 1.279 . S
O74 Cd71 2.297 . S
O74 C76 1.247 1_565 S
O75 Cd71 2.439 1_545 S
O75 C76 1.208 . S
C76 O74 1.247 1_545 S
C76 O75 1.208 . S
C77 O82 1.247 . S
C77 O83 1.208 . S
C78 O70 1.315 . S
C78 O73 1.279 . S
C79 O80 1.315 . S
C79 O81 1.279 1_565 S
O80 Cd72 2.223 1_565 S
O80 C79 1.315 . S
O81 Cd71 2.240 1_545 S
O81 C79 1.279 1_545 S
O82 Cd72 2.297 . S
O82 C77 1.247 . S
O83 Cd72 2.439 . S
O83 C77 1.208 . S
O84 Cd85 2.223 . S
O84 C92 1.315 . S
Cd85 O84 2.223 . S
Cd85 O88 2.297 . S
Cd85 O89 2.439 . S
Cd85 O95 2.240 . S
Cd86 O87 2.240 . S
Cd86 O94 2.223 . S
Cd86 O96 2.297 . S
Cd86 O97 2.439 . S
O87 Cd86 2.240 . S
O87 C92 1.279 . S
O88 Cd85 2.297 . S
O88 C90 1.247 . S
O89 Cd85 2.439 . S
O89 C90 1.208 . S
C90 O88 1.247 . S
C90 O89 1.208 . S
C91 O96 1.247 . S
C91 O97 1.208 . S
C92 O84 1.315 . S
C92 O87 1.279 . S
C93 O94 1.315 . S
C93 O95 1.279 . S
O94 Cd86 2.223 . S
O94 C93 1.315 . S
O95 Cd85 2.240 . S
O95 C93 1.279 . S
O96 Cd86 2.297 . S
O96 C91 1.247 . S
O97 Cd86 2.439 . S
O97 C91 1.208 . S
O98 Cd99 2.223 . S
O98 C106 1.315 . S
Cd99 O98 2.223 . S
Cd99 O102 2.297 1_655 S
Cd99 O103 2.439 . S
Cd99 O109 2.240 . S
Cd100 O101 2.240 . S
Cd100 O108 2.223 . S
Cd100 O110 2.297 . S
Cd100 O111 2.439 . S
O101 Cd100 2.240 . S
O101 C106 1.279 . S
O102 Cd99 2.297 1_455 S
O102 C104 1.247 . S
O103 Cd99 2.439 . S
O103 C104 1.208 1_655 S
C104 O102 1.247 . S
C104 O103 1.208 1_455 S
C105 O110 1.247 . S
C105 O111 1.208 . S
C106 O98 1.315 . S
C106 O101 1.279 . S
C107 O108 1.315 . S
C107 O109 1.279 . S
O108 Cd100 2.223 . S
O108 C107 1.315 . S
O109 Cd99 2.240 . S
O109 C107 1.279 . S
O110 Cd100 2.297 . S
O110 C105 1.247 . S
O111 Cd100 2.439 . S
O111 C105 1.208 . S
O112 Cd113 2.223 . S
O112 C120 1.315 . S
Cd113 O112 2.223 . S
Cd113 O116 2.297 . S
Cd113 O117 2.439 . S
Cd113 O123 2.240 . S
Cd114 O115 2.240 . S
Cd114 O122 2.223 . S
Cd114 O124 2.297 . S
Cd114 O125 2.439 . S
O115 Cd114 2.240 . S
O115 C120 1.279 . S
O116 Cd113 2.297 . S
O116 C118 1.247 . S
O117 Cd113 2.439 . S
O117 C118 1.208 . S
C118 O116 1.247 . S
C118 O117 1.208 . S
C119 O124 1.247 . S
C119 O125 1.208 . S
C120 O112 1.315 . S
C120 O115 1.279 . S
C121 O122 1.315 . S
C121 O123 1.279 . S
O122 Cd114 2.223 . S
O122 C121 1.315 . S
O123 Cd113 2.240 . S
O123 C121 1.279 . S
O124 Cd114 2.297 . S
O124 C119 1.247 . S
O125 Cd114 2.439 . S
O125 C119 1.208 . S
O126 Cd127 2.223 . S
O126 C134 1.315 . S
Cd127 O126 2.223 . S
Cd127 O130 2.297 . S
Cd127 O131 2.439 . S
Cd127 O137 2.240 . S
Cd128 O129 2.240 . S
Cd128 O136 2.223 1_554 S
Cd128 O138 2.297 1_554 S
Cd128 O139 2.439 . S
O129 Cd128 2.240 . S
O129 C134 1.279 . S
O130 Cd127 2.297 . S
O130 C132 1.247 . S
O131 Cd127 2.439 . S
O131 C132 1.208 . S
C132 O130 1.247 . S
C132 O131 1.208 . S
C133 O138 1.247 1_554 S
C133 O139 1.208 . S
C134 O126 1.315 . S
C134 O129 1.279 . S
C135 O136 1.315 . S
C135 O137 1.279 1_556 S
O136 Cd128 2.223 1_556 S
O136 C135 1.315 . S
O137 Cd127 2.240 . S
O137 C135 1.279 1_554 S
O138 Cd128 2.297 1_556 S
O138 C133 1.247 1_556 S
O139 Cd128 2.439 . S
O139 C133 1.208 . S
O140 Cd141 2.223 . S
O140 C148 1.315 . S
Cd141 O140 2.223 . S
Cd141 O144 2.297 . S
Cd141 O145 2.439 . S
Cd141 O151 2.240 . S
Cd142 O143 2.240 . S
Cd142 O150 2.223 . S
Cd142 O152 2.297 . S
Cd142 O153 2.439 . S
O143 Cd142 2.240 . S
O143 C148 1.279 . S
O144 Cd141 2.297 . S
O144 C146 1.247 . S
O145 Cd141 2.439 . S
O145 C146 1.208 . S
C146 O144 1.247 . S
C146 O145 1.208 . S
C147 O152 1.247 . S
C147 O153 1.208 . S
C148 O140 1.315 . S
C148 O143 1.279 . S
C149 O150 1.315 . S
C149 O151 1.279 . S
O150 Cd142 2.223 . S
O150 C149 1.315 . S
O151 Cd141 2.240 . S
O151 C149 1.279 . S
O152 Cd142 2.297 . S
O152 C147 1.247 . S
O153 Cd142 2.439 . S
O153 C147 1.208 . S
O154 Cd155 2.223 1_655 S
O154 C162 1.315 . S
Cd155 O154 2.223 1_455 S
Cd155 O158 2.297 . S
Cd155 O159 2.439 . S
Cd155 O165 2.240 1_455 S
Cd156 O157 2.240 . S
Cd156 O164 2.223 . S
Cd156 O166 2.297 . S
Cd156 O167 2.439 . S
O157 Cd156 2.240 . S
O157 C162 1.279 . S
O158 Cd155 2.297 . S
O158 C160 1.247 . S
O159 Cd155 2.439 . S
O159 C160 1.208 . S
C160 O158 1.247 . S
C160 O159 1.208 . S
C161 O166 1.247 . S
C161 O167 1.208 . S
C162 O154 1.315 . S
C162 O157 1.279 . S
C163 O164 1.315 . S
C163 O165 1.279 . S
O164 Cd156 2.223 . S
O164 C163 1.315 . S
O165 Cd155 2.240 1_655 S
O165 C163 1.279 . S
O166 Cd156 2.297 . S
O166 C161 1.247 . S
O167 Cd156 2.439 . S
O167 C161 1.208 . S
O168 Cd169 2.223 . S
O168 C176 1.315 . S
Cd169 O168 2.223 . S
Cd169 O172 2.297 1_556 S
Cd169 O173 2.439 . S
Cd169 O179 2.240 . S
Cd170 O171 2.240 . S
Cd170 O178 2.223 . S
Cd170 O180 2.297 . S
Cd170 O181 2.439 . S
O171 Cd170 2.240 . S
O171 C176 1.279 . S
O172 Cd169 2.297 1_554 S
O172 C174 1.247 . S
O173 Cd169 2.439 . S
O173 C174 1.208 1_556 S
C174 O172 1.247 . S
C174 O173 1.208 1_554 S
C175 O180 1.247 . S
C175 O181 1.208 . S
C176 O168 1.315 . S
C176 O171 1.279 . S
C177 O178 1.315 . S
C177 O179 1.279 . S
O178 Cd170 2.223 . S
O178 C177 1.315 . S
O179 Cd169 2.240 . S
O179 C177 1.279 . S
O180 Cd170 2.297 . S
O180 C175 1.247 . S
O181 Cd170 2.439 . S
O181 C175 1.208 . S
O182 Cd183 2.223 . S
O182 C190 1.315 . S
Cd183 O182 2.223 . S
Cd183 O186 2.297 . S
Cd183 O187 2.439 . S
Cd183 O193 2.240 . S
Cd184 O185 2.240 . S
Cd184 O192 2.223 1_556 S
Cd184 O194 2.297 1_556 S
Cd184 O195 2.439 . S
O185 Cd184 2.240 . S
O185 C190 1.279 . S
O186 Cd183 2.297 . S
O186 C188 1.247 . S
O187 Cd183 2.439 . S
O187 C188 1.208 . S
C188 O186 1.247 . S
C188 O187 1.208 . S
C189 O194 1.247 1_556 S
C189 O195 1.208 . S
C190 O182 1.315 . S
C190 O185 1.279 . S
C191 O192 1.315 1_556 S
C191 O193 1.279 . S
O192 Cd184 2.223 1_554 S
O192 C191 1.315 1_554 S
O193 Cd183 2.240 . S
O193 C191 1.279 . S
O194 Cd184 2.297 1_554 S
O194 C189 1.247 1_554 S
O195 Cd184 2.439 . S
O195 C189 1.208 . S
O196 Cd197 2.223 . S
O196 C204 1.315 . S
Cd197 O196 2.223 . S
Cd197 O200 2.297 . S
Cd197 O201 2.439 . S
Cd197 O207 2.240 . S
Cd198 O199 2.240 . S
Cd198 O206 2.223 1_556 S
Cd198 O208 2.297 1_556 S
Cd198 O209 2.439 . S
O199 Cd198 2.240 . S
O199 C204 1.279 . S
O200 Cd197 2.297 . S
O200 C202 1.247 . S
O201 Cd197 2.439 . S
O201 C202 1.208 . S
C202 O200 1.247 . S
C202 O201 1.208 . S
C203 O208 1.247 1_556 S
C203 O209 1.208 . S
C204 O196 1.315 . S
C204 O199 1.279 . S
C205 O206 1.315 . S
C205 O207 1.279 1_554 S
O206 Cd198 2.223 1_554 S
O206 C205 1.315 . S
O207 Cd197 2.240 . S
O207 C205 1.279 1_556 S
O208 Cd198 2.297 1_554 S
O208 C203 1.247 1_554 S
O209 Cd198 2.439 . S
O209 C203 1.208 . S
O210 Cd211 2.223 . S
O210 C218 1.315 . S
Cd211 O210 2.223 . S
Cd211 O214 2.297 . S
Cd211 O215 2.439 . S
Cd211 O221 2.240 . S
Cd212 O213 2.240 . S
Cd212 O220 2.223 . S
Cd212 O222 2.297 . S
Cd212 O223 2.439 . S
O213 Cd212 2.240 . S
O213 C218 1.279 . S
O214 Cd211 2.297 . S
O214 C216 1.247 . S
O215 Cd211 2.439 . S
O215 C216 1.208 . S
C216 O214 1.247 . S
C216 O215 1.208 . S
C217 O222 1.247 . S
C217 O223 1.208 . S
C218 O210 1.315 . S
C218 O213 1.279 . S
C219 O220 1.315 . S
C219 O221 1.279 . S
O220 Cd212 2.223 . S
O220 C219 1.315 . S
O221 Cd211 2.240 . S
O221 C219 1.279 . S
O222 Cd212 2.297 . S
O222 C217 1.247 . S
O223 Cd212 2.439 . S
O223 C217 1.208 . S
O224 Cd225 2.223 . S
O224 C232 1.315 . S
Cd225 O224 2.223 . S
Cd225 O228 2.297 . S
Cd225 O229 2.439 . S
Cd225 O235 2.240 . S
Cd226 O227 2.240 . S
Cd226 O234 2.223 . S
Cd226 O236 2.297 . S
Cd226 O237 2.439 . S
O227 Cd226 2.240 . S
O227 C232 1.279 . S
O228 Cd225 2.297 . S
O228 C230 1.247 . S
O229 Cd225 2.439 . S
O229 C230 1.208 . S
C230 O228 1.247 . S
C230 O229 1.208 . S
C231 O236 1.247 . S
C231 O237 1.208 . S
C232 O224 1.315 . S
C232 O227 1.279 . S
C233 O234 1.315 . S
C233 O235 1.279 . S
O234 Cd226 2.223 . S
O234 C233 1.315 . S
O235 Cd225 2.240 . S
O235 C233 1.279 . S
O236 Cd226 2.297 . S
O236 C231 1.247 . S
O237 Cd226 2.439 . S
O237 C231 1.208 . S
O238 Cd239 2.223 . S
O238 C246 1.315 . S
Cd239 O238 2.223 . S
Cd239 O242 2.297 . S
Cd239 O243 2.439 . S
Cd239 O249 2.240 . S
Cd240 O241 2.240 . S
Cd240 O248 2.223 . S
Cd240 O250 2.297 . S
Cd240 O251 2.439 . S
O241 Cd240 2.240 . S
O241 C246 1.279 . S
O242 Cd239 2.297 . S
O242 C244 1.247 . S
O243 Cd239 2.439 . S
O243 C244 1.208 . S
C244 O242 1.247 . S
C244 O243 1.208 . S
C245 O250 1.247 . S
C245 O251 1.208 . S
C246 O238 1.315 . S
C246 O241 1.279 . S
C247 O248 1.315 . S
C247 O249 1.279 . S
O248 Cd240 2.223 . S
O248 C247 1.315 . S
O249 Cd239 2.240 . S
O249 C247 1.279 . S
O250 Cd240 2.297 . S
O250 C245 1.247 . S
O251 Cd240 2.439 . S
O251 C245 1.208 . S
C252 C253 1.369 . S
C252 C254 1.419 . S
C252 H256 0.930 . S
C253 C252 1.369 . S
C253 C262 1.429 . S
C254 C252 1.419 . S
C254 C255 1.363 . S
C254 H257 0.929 . S
C255 C254 1.363 . S
C255 C261 1.428 . S
H256 C252 0.930 . S
H257 C254 0.929 . S
S258 N259 1.613 . S
S258 N260 1.610 . S
N259 S258 1.613 . S
N259 C262 1.350 . S
N260 S258 1.610 . S
N260 C261 1.351 . S
C261 C255 1.428 . S
C261 N260 1.351 . S
C261 C262 1.434 . S
C262 C253 1.429 . S
C262 N259 1.350 . S
C262 C261 1.434 . S
C263 C264 1.369 . S
C263 C265 1.419 . S
C263 H267 0.930 . S
C264 C263 1.369 . S
C264 C273 1.429 . S
C265 C263 1.419 . S
C265 C266 1.363 . S
C265 H268 0.929 . S
C266 C265 1.363 . S
C266 C272 1.428 . S
H267 C263 0.930 . S
H268 C265 0.929 . S
S269 N270 1.613 . S
S269 N271 1.610 . S
N270 S269 1.613 . S
N270 C273 1.350 . S
N271 S269 1.610 . S
N271 C272 1.351 . S
C272 C266 1.428 . S
C272 N271 1.351 . S
C272 C273 1.434 . S
C273 C264 1.429 . S
C273 N270 1.350 . S
C273 C272 1.434 . S
C274 C275 1.369 . S
C274 C276 1.419 . S
C274 H278 0.930 . S
C275 C274 1.369 . S
C275 C284 1.429 . S
C276 C274 1.419 . S
C276 C277 1.363 . S
C276 H279 0.929 1_554 S
C277 C276 1.363 . S
C277 C283 1.428 . S
H278 C274 0.930 . S
H279 C276 0.929 1_556 S
S280 N281 1.613 . S
S280 N282 1.610 1_545 S
N281 S280 1.613 . S
N281 C284 1.350 1_545 S
N282 S280 1.610 1_565 S
N282 C283 1.351 . S
C283 C277 1.428 . S
C283 N282 1.351 . S
C283 C284 1.434 . S
C284 C275 1.429 . S
C284 N281 1.350 1_565 S
C284 C283 1.434 . S
C285 C286 1.369 . S
C285 C287 1.419 . S
C285 H289 0.930 . S
C286 C285 1.369 . S
C286 C295 1.429 . S
C287 C285 1.419 . S
C287 C288 1.363 . S
C287 H290 0.929 . S
C288 C287 1.363 . S
C288 C294 1.428 . S
H289 C285 0.930 . S
H290 C287 0.929 . S
S291 N292 1.613 . S
S291 N293 1.610 . S
N292 S291 1.613 . S
N292 C295 1.350 . S
N293 S291 1.610 . S
N293 C294 1.351 . S
C294 C288 1.428 . S
C294 N293 1.351 . S
C294 C295 1.434 . S
C295 C286 1.429 . S
C295 N292 1.350 . S
C295 C294 1.434 . S
C296 C297 1.369 . S
C296 C298 1.419 1_655 S
C296 H300 0.930 1_655 S
C297 C296 1.369 . S
C297 C306 1.429 . S
C298 C296 1.419 1_455 S
C298 C299 1.363 1_455 S
C298 H301 0.929 . S
C299 C298 1.363 1_655 S
C299 C305 1.428 . S
H300 C296 0.930 1_455 S
H301 C298 0.929 . S
S302 N303 1.613 . S
S302 N304 1.610 . S
N303 S302 1.613 . S
N303 C306 1.350 . S
N304 S302 1.610 . S
N304 C305 1.351 . S
C305 C299 1.428 . S
C305 N304 1.351 . S
C305 C306 1.434 . S
C306 C297 1.429 . S
C306 N303 1.350 . S
C306 C305 1.434 . S
C307 C308 1.369 . S
C307 C309 1.419 . S
C307 H311 0.930 . S
C308 C307 1.369 . S
C308 C317 1.429 . S
C309 C307 1.419 . S
C309 C310 1.363 . S
C309 H312 0.929 . S
C310 C309 1.363 . S
C310 C316 1.428 . S
H311 C307 0.930 . S
H312 C309 0.929 . S
S313 N314 1.613 . S
S313 N315 1.610 . S
N314 S313 1.613 . S
N314 C317 1.350 . S
N315 S313 1.610 . S
N315 C316 1.351 . S
C316 C310 1.428 . S
C316 N315 1.351 . S
C316 C317 1.434 . S
C317 C308 1.429 . S
C317 N314 1.350 . S
C317 C316 1.434 . S
C318 C319 1.369 1_455 S
C318 C320 1.419 . S
C318 H322 0.930 . S
C319 C318 1.369 1_655 S
C319 C328 1.429 . S
C320 C318 1.419 . S
C320 C321 1.363 1_455 S
C320 H323 0.929 . S
C321 C320 1.363 1_655 S
C321 C327 1.428 . S
H322 C318 0.930 . S
H323 C320 0.929 . S
S324 N325 1.613 . S
S324 N326 1.610 . S
N325 S324 1.613 . S
N325 C328 1.350 . S
N326 S324 1.610 . S
N326 C327 1.351 . S
C327 C321 1.428 . S
C327 N326 1.351 . S
C327 C328 1.434 . S
C328 C319 1.429 . S
C328 N325 1.350 . S
C328 C327 1.434 . S
C329 C330 1.369 . S
C329 C331 1.419 . S
C329 H333 0.930 . S
C330 C329 1.369 . S
C330 C339 1.429 . S
C331 C329 1.419 . S
C331 C332 1.363 . S
C331 H334 0.929 . S
C332 C331 1.363 . S
C332 C338 1.428 . S
H333 C329 0.930 . S
H334 C331 0.929 . S
S335 N336 1.613 . S
S335 N337 1.610 . S
N336 S335 1.613 . S
N336 C339 1.350 . S
N337 S335 1.610 . S
N337 C338 1.351 . S
C338 C332 1.428 . S
C338 N337 1.351 . S
C338 C339 1.434 . S
C339 C330 1.429 . S
C339 N336 1.350 . S
C339 C338 1.434 . S
C340 C341 1.369 . S
C340 C342 1.419 . S
C340 H344 0.930 . S
C341 C340 1.369 . S
C341 C350 1.429 . S
C342 C340 1.419 . S
C342 C343 1.363 . S
C342 H345 0.929 . S
C343 C342 1.363 . S
C343 C349 1.428 . S
H344 C340 0.930 . S
H345 C342 0.929 . S
S346 N347 1.613 . S
S346 N348 1.610 . S
N347 S346 1.613 . S
N347 C350 1.350 . S
N348 S346 1.610 . S
N348 C349 1.351 . S
C349 C343 1.428 . S
C349 N348 1.351 . S
C349 C350 1.434 . S
C350 C341 1.429 . S
C350 N347 1.350 . S
C350 C349 1.434 . S
C351 C352 1.369 . S
C351 C353 1.419 . S
C351 H355 0.918 1_565 S
C352 C351 1.369 . S
C352 C361 1.429 . S
C353 C351 1.419 . S
C353 C354 1.363 . S
C353 H356 0.929 . S
C354 C353 1.363 . S
C354 C360 1.428 . S
H355 C351 0.918 1_545 S
H356 C353 0.929 . S
S357 N358 1.613 . S
S357 N359 1.610 . S
N358 S357 1.613 . S
N358 C361 1.350 . S
N359 S357 1.610 . S
N359 C360 1.351 . S
C360 C354 1.428 . S
C360 N359 1.351 . S
C360 C361 1.434 . S
C361 C352 1.429 . S
C361 N358 1.350 . S
C361 C360 1.434 . S
C362 C363 1.369 . S
C362 C364 1.419 . S
C362 H366 0.930 . S
C363 C362 1.369 . S
C363 C372 1.429 . S
C364 C362 1.419 . S
C364 C365 1.363 . S
C364 H367 0.929 . S
C365 C364 1.363 . S
C365 C371 1.428 . S
H366 C362 0.930 . S
H367 C364 0.929 . S
S368 N369 1.613 . S
S368 N370 1.610 . S
N369 S368 1.613 . S
N369 C372 1.350 . S
N370 S368 1.610 . S
N370 C371 1.351 . S
C371 C365 1.428 . S
C371 N370 1.351 . S
C371 C372 1.434 . S
C372 C363 1.429 . S
C372 N369 1.350 . S
C372 C371 1.434 . S
C373 C374 1.369 . S
C373 C375 1.419 . S
C373 H377 0.930 . S
C374 C373 1.369 . S
C374 C383 1.429 . S
C375 C373 1.419 . S
C375 C376 1.363 . S
C375 H378 0.929 . S
C376 C375 1.363 . S
C376 C382 1.428 . S
H377 C373 0.930 . S
H378 C375 0.929 . S
S379 N380 1.613 . S
S379 N381 1.610 . S
N380 S379 1.613 . S
N380 C383 1.350 . S
N381 S379 1.610 . S
N381 C382 1.351 . S
C382 C376 1.428 . S
C382 N381 1.351 . S
C382 C383 1.434 . S
C383 C374 1.429 . S
C383 N380 1.350 . S
C383 C382 1.434 . S
C384 C385 1.369 . S
C384 C386 1.419 . S
C384 H388 0.930 . S
C385 C384 1.369 . S
C385 C394 1.429 . S
C386 C384 1.419 . S
C386 C387 1.363 . S
C386 H389 0.929 . S
C387 C386 1.363 . S
C387 C393 1.428 . S
H388 C384 0.930 . S
H389 C386 0.929 . S
S390 N391 1.613 . S
S390 N392 1.610 . S
N391 S390 1.613 . S
N391 C394 1.350 . S
N392 S390 1.610 . S
N392 C393 1.351 . S
C393 C387 1.428 . S
C393 N392 1.351 . S
C393 C394 1.434 . S
C394 C385 1.429 . S
C394 N391 1.350 . S
C394 C393 1.434 . S
C395 C396 1.369 1_565 S
C395 C397 1.419 . S
C395 H399 0.930 . S
C396 C395 1.369 1_545 S
C396 C405 1.429 . S
C397 C395 1.419 . S
C397 C398 1.363 . S
C397 H400 0.929 . S
C398 C397 1.363 . S
C398 C404 1.428 1_565 S
H399 C395 0.930 . S
H400 C397 0.929 . S
S401 N402 1.613 . S
S401 N403 1.610 . S
N402 S401 1.613 . S
N402 C405 1.350 . S
N403 S401 1.610 . S
N403 C404 1.351 . S
C404 C398 1.428 1_545 S
C404 N403 1.351 . S
C404 C405 1.434 . S
C405 C396 1.429 . S
C405 N402 1.350 . S
C405 C404 1.434 . S
C406 C407 1.369 . S
C406 C408 1.419 . S
C406 H410 0.930 . S
C407 C406 1.369 . S
C407 C416 1.429 . S
C408 C406 1.419 . S
C408 C409 1.363 . S
C408 H411 0.929 1_455 S
C409 C408 1.363 . S
C409 C415 1.428 . S
H410 C406 0.930 . S
H411 C408 0.929 1_655 S
S412 N413 1.613 . S
S412 N414 1.610 . S
N413 S412 1.613 . S
N413 C416 1.350 . S
N414 S412 1.610 . S
N414 C415 1.351 . S
C415 C409 1.428 . S
C415 N414 1.351 . S
C415 C416 1.434 . S
C416 C407 1.429 . S
C416 N413 1.350 . S
C416 C415 1.434 . S
C417 C418 1.369 . S
C417 C419 1.419 . S
C417 H421 0.930 . S
C418 C417 1.369 . S
C418 C427 1.429 . S
C419 C417 1.419 . S
C419 C420 1.363 . S
C419 H422 0.929 . S
C420 C419 1.363 . S
C420 C426 1.428 . S
H421 C417 0.930 . S
H422 C419 0.929 . S
S423 N424 1.613 . S
S423 N425 1.610 . S
N424 S423 1.613 . S
N424 C427 1.350 . S
N425 S423 1.610 . S
N425 C426 1.351 . S
C426 C420 1.428 . S
C426 N425 1.351 . S
C426 C427 1.434 . S
C427 C418 1.429 . S
C427 N424 1.350 . S
C427 C426 1.434 . S
C428 C429 1.369 1_565 S
C428 C430 1.419 . S
C428 H432 0.930 . S
C429 C428 1.369 1_545 S
C429 C438 1.429 . S
C430 C428 1.419 . S
C430 C431 1.363 . S
C430 H433 0.929 . S
C431 C430 1.363 . S
C431 C437 1.428 1_565 S
H432 C428 0.930 . S
H433 C430 0.929 . S
S434 N435 1.613 . S
S434 N436 1.610 . S
N435 S434 1.613 . S
N435 C438 1.350 . S
N436 S434 1.610 . S
N436 C437 1.351 . S
C437 C431 1.428 1_545 S
C437 N436 1.351 . S
C437 C438 1.434 . S
C438 C429 1.429 . S
C438 N435 1.350 . S
C438 C437 1.434 . S
C439 C440 1.369 . S
C439 C441 1.419 . S
C439 H443 0.930 . S
C440 C439 1.369 . S
C440 C449 1.429 . S
C441 C439 1.419 . S
C441 C442 1.363 . S
C441 H444 0.929 . S
C442 C441 1.363 . S
C442 C448 1.428 1_455 S
H443 C439 0.930 . S
H444 C441 0.929 . S
S445 N446 1.613 . S
S445 N447 1.610 . S
N446 S445 1.613 . S
N446 C449 1.350 1_655 S
N447 S445 1.610 . S
N447 C448 1.352 . S
C448 C442 1.428 1_655 S
C448 N447 1.352 . S
C448 C449 1.433 1_655 S
C449 C440 1.429 . S
C449 N446 1.350 1_455 S
C449 C448 1.433 1_455 S
C450 C451 1.369 . S
C450 C452 1.419 . S
C450 H454 0.930 . S
C451 C450 1.369 . S
C451 C460 1.429 . S
C452 C450 1.419 . S
C452 C453 1.363 . S
C452 H455 0.929 . S
C453 C452 1.363 . S
C453 C459 1.428 . S
H454 C450 0.930 . S
H455 C452 0.929 . S
S456 N457 1.613 . S
S456 N458 1.610 . S
N457 S456 1.613 . S
N457 C460 1.350 . S
N458 S456 1.610 . S
N458 C459 1.351 . S
C459 C453 1.428 . S
C459 N458 1.351 . S
C459 C460 1.434 . S
C460 C451 1.429 . S
C460 N457 1.350 . S
C460 C459 1.434 . S
C461 C462 1.369 . S
C461 C463 1.419 . S
C461 H465 0.930 . S
C462 C461 1.369 . S
C462 C471 1.429 . S
C463 C461 1.419 . S
C463 C464 1.363 . S
C463 H466 0.929 . S
C464 C463 1.363 . S
C464 C470 1.428 . S
H465 C461 0.930 . S
H466 C463 0.929 . S
S467 N468 1.613 . S
S467 N469 1.610 . S
N468 S467 1.613 . S
N468 C471 1.350 . S
N469 S467 1.610 . S
N469 C470 1.351 . S
C470 C464 1.428 . S
C470 N469 1.351 . S
C470 C471 1.434 . S
C471 C462 1.429 . S
C471 N468 1.350 . S
C471 C470 1.434 . S
C472 C473 1.369 . S
C472 C474 1.419 . S
C472 H476 0.930 . S
C473 C472 1.369 . S
C473 C482 1.429 . S
C474 C472 1.419 . S
C474 C475 1.363 . S
C474 H477 0.929 . S
C475 C474 1.363 . S
C475 C481 1.428 . S
H476 C472 0.930 . S
H477 C474 0.929 . S
S478 N479 1.613 . S
S478 N480 1.610 . S
N479 S478 1.613 . S
N479 C482 1.350 . S
N480 S478 1.610 . S
N480 C481 1.351 . S
C481 C475 1.428 . S
C481 N480 1.351 . S
C481 C482 1.434 . S
C482 C473 1.429 . S
C482 N479 1.350 . S
C482 C481 1.434 . S
C483 C484 1.369 . S
C483 C485 1.419 . S
C483 H487 0.930 . S
C484 C483 1.369 . S
C484 C493 1.429 . S
C485 C483 1.419 . S
C485 C486 1.363 . S
C485 H488 0.929 . S
C486 C485 1.363 . S
C486 C492 1.428 . S
H487 C483 0.930 . S
H488 C485 0.929 . S
S489 N490 1.613 . S
S489 N491 1.610 . S
N490 S489 1.613 . S
N490 C493 1.350 . S
N491 S489 1.610 . S
N491 C492 1.351 . S
C492 C486 1.428 . S
C492 N491 1.351 . S
C492 C493 1.434 . S
C493 C484 1.429 . S
C493 N490 1.350 . S
C493 C492 1.434 . S
C494 C495 1.369 . S
C494 C496 1.419 . S
C494 H498 0.930 . S
C495 C494 1.369 . S
C495 C504 1.429 . S
C496 C494 1.419 . S
C496 C497 1.363 . S
C496 H499 0.929 . S
C497 C496 1.363 . S
C497 C503 1.428 . S
H498 C494 0.930 . S
H499 C496 0.929 . S
S500 N501 1.613 . S
S500 N502 1.610 . S
N501 S500 1.613 . S
N501 C504 1.350 . S
N502 S500 1.610 . S
N502 C503 1.351 . S
C503 C497 1.428 . S
C503 N502 1.351 . S
C503 C504 1.434 . S
C504 C495 1.429 . S
C504 N501 1.350 . S
C504 C503 1.434 . S
C505 C506 1.369 . S
C505 C507 1.419 . S
C505 H509 0.930 . S
C506 C505 1.369 . S
C506 C515 1.429 . S
C507 C505 1.419 . S
C507 C508 1.363 . S
C507 H510 0.929 . S
C508 C507 1.363 . S
C508 C514 1.428 . S
H509 C505 0.930 . S
H510 C507 0.929 . S
S511 N512 1.613 . S
S511 N513 1.610 . S
N512 S511 1.613 . S
N512 C515 1.350 . S
N513 S511 1.610 . S
N513 C514 1.351 . S
C514 C508 1.428 . S
C514 N513 1.351 . S
C514 C515 1.434 . S
C515 C506 1.429 . S
C515 N512 1.350 . S
C515 C514 1.434 . S
C516 C517 1.369 . S
C516 C518 1.419 . S
C516 H520 0.930 . S
C517 C516 1.369 . S
C517 C526 1.429 . S
C518 C516 1.419 . S
C518 C519 1.363 . S
C518 H521 0.929 . S
C519 C518 1.363 . S
C519 C525 1.428 . S
H520 C516 0.930 . S
H521 C518 0.929 . S
S522 N523 1.613 . S
S522 N524 1.610 . S
N523 S522 1.613 . S
N523 C526 1.350 . S
N524 S522 1.610 . S
N524 C525 1.351 . S
C525 C519 1.428 . S
C525 N524 1.351 . S
C525 C526 1.434 . S
C526 C517 1.429 . S
C526 N523 1.350 . S
C526 C525 1.434 . S
C527 C528 1.369 . S
C527 C529 1.419 . S
C527 H531 0.930 . S
C528 C527 1.369 . S
C528 C537 1.429 . S
C529 C527 1.419 . S
C529 C530 1.363 . S
C529 H532 0.929 . S
C530 C529 1.363 . S
C530 C536 1.428 . S
H531 C527 0.930 . S
H532 C529 0.929 . S
S533 N534 1.613 . S
S533 N535 1.610 . S
N534 S533 1.613 . S
N534 C537 1.350 . S
N535 S533 1.610 . S
N535 C536 1.351 . S
C536 C530 1.428 . S
C536 N535 1.351 . S
C536 C537 1.434 . S
C537 C528 1.429 . S
C537 N534 1.350 . S
C537 C536 1.434 . S
C538 C539 1.369 . S
C538 C540 1.419 . S
C538 H542 0.930 . S
C539 C538 1.369 . S
C539 C548 1.429 . S
C540 C538 1.419 . S
C540 C541 1.363 . S
C540 H543 0.929 . S
C541 C540 1.363 . S
C541 C547 1.428 . S
H542 C538 0.930 . S
H543 C540 0.929 . S
S544 N545 1.613 . S
S544 N546 1.610 . S
N545 S544 1.613 . S
N545 C548 1.350 . S
N546 S544 1.610 . S
N546 C547 1.351 . S
C547 C541 1.428 . S
C547 N546 1.351 . S
C547 C548 1.434 . S
C548 C539 1.429 . S
C548 N545 1.350 . S
C548 C547 1.434 . S
C549 C550 1.369 . S
C549 C551 1.419 . S
C549 H553 0.930 . S
C550 C549 1.369 . S
C550 C559 1.429 . S
C551 C549 1.419 . S
C551 C552 1.363 . S
C551 H554 0.929 . S
C552 C551 1.363 . S
C552 C558 1.428 . S
H553 C549 0.930 . S
H554 C551 0.929 . S
S555 N556 1.613 . S
S555 N557 1.610 . S
N556 S555 1.613 . S
N556 C559 1.350 . S
N557 S555 1.610 . S
N557 C558 1.351 . S
C558 C552 1.428 . S
C558 N557 1.351 . S
C558 C559 1.434 . S
C559 C550 1.429 . S
C559 N556 1.350 . S
C559 C558 1.434 . S
C560 C561 1.369 . S
C560 C562 1.419 . S
C560 H564 0.930 . S
C561 C560 1.369 . S
C561 C570 1.429 . S
C562 C560 1.419 . S
C562 C563 1.363 . S
C562 H565 0.929 . S
C563 C562 1.363 . S
C563 C569 1.428 . S
H564 C560 0.930 . S
H565 C562 0.929 . S
S566 N567 1.613 . S
S566 N568 1.610 . S
N567 S566 1.613 . S
N567 C570 1.350 . S
N568 S566 1.610 . S
N568 C569 1.351 . S
C569 C563 1.428 . S
C569 N568 1.351 . S
C569 C570 1.434 . S
C570 C561 1.429 . S
C570 N567 1.350 . S
C570 C569 1.434 . S
C571 C572 1.369 . S
C571 C573 1.419 . S
C571 H575 0.930 . S
C572 C571 1.369 . S
C572 C581 1.429 . S
C573 C571 1.419 . S
C573 C574 1.363 . S
C573 H576 0.929 . S
C574 C573 1.363 . S
C574 C580 1.428 . S
H575 C571 0.930 . S
H576 C573 0.929 . S
S577 N578 1.613 . S
S577 N579 1.610 . S
N578 S577 1.613 . S
N578 C581 1.350 . S
N579 S577 1.610 . S
N579 C580 1.351 . S
C580 C574 1.428 . S
C580 N579 1.351 . S
C580 C581 1.434 . S
C581 C572 1.429 . S
C581 N578 1.350 . S
C581 C580 1.434 . S
C582 C583 1.369 . S
C582 C584 1.419 . S
C582 H586 0.930 . S
C583 C582 1.369 . S
C583 C592 1.429 . S
C584 C582 1.419 . S
C584 C585 1.363 . S
C584 H587 0.929 . S
C585 C584 1.363 . S
C585 C591 1.428 . S
H586 C582 0.930 . S
H587 C584 0.929 . S
S588 N589 1.613 . S
S588 N590 1.610 . S
N589 S588 1.613 . S
N589 C592 1.350 . S
N590 S588 1.610 . S
N590 C591 1.351 . S
C591 C585 1.428 . S
C591 N590 1.351 . S
C591 C592 1.434 . S
C592 C583 1.429 . S
C592 N589 1.350 . S
C592 C591 1.434 . S
C593 C594 1.367 . S
C593 C595 1.420 1_545 S
C593 H597 0.931 . S
C594 C593 1.367 . S
C594 C603 1.429 . S
C595 C593 1.420 1_565 S
C595 C596 1.363 . S
C595 H598 0.929 . S
C596 C595 1.363 . S
C596 C602 1.428 . S
H597 C593 0.931 . S
H598 C595 0.929 . S
S599 N600 1.613 . S
S599 N601 1.610 1_545 S
N600 S599 1.613 . S
N600 C603 1.350 . S
N601 S599 1.610 1_565 S
N601 C602 1.351 . S
C602 C596 1.428 . S
C602 N601 1.351 . S
C602 C603 1.434 1_565 S
C603 C594 1.429 . S
C603 N600 1.350 . S
C603 C602 1.434 1_545 S
C604 C605 1.369 . S
C604 C606 1.419 . S
C604 H608 0.930 . S
C605 C604 1.369 . S
C605 C614 1.429 . S
C606 C604 1.419 . S
C606 C607 1.363 1_455 S
C606 H609 0.929 . S
C607 C606 1.363 1_655 S
C607 C613 1.428 1_655 S
H608 C604 0.930 . S
H609 C606 0.929 . S
S610 N611 1.613 . S
S610 N612 1.593 1_455 S
N611 S610 1.613 . S
N611 C614 1.350 . S
N612 S610 1.593 1_655 S
N612 C613 1.336 1_655 S
C613 C607 1.428 1_455 S
C613 N612 1.336 1_455 S
C613 C614 1.434 . S
C614 C605 1.429 . S
C614 N611 1.350 . S
C614 C613 1.434 . S
C615 C616 1.369 . S
C615 C617 1.419 . S
C615 H619 0.930 . S
C616 C615 1.369 . S
C616 C625 1.429 . S
C617 C615 1.419 . S
C617 C618 1.363 . S
C617 H620 0.929 . S
C618 C617 1.363 . S
C618 C624 1.428 . S
H619 C615 0.930 . S
H620 C617 0.929 . S
S621 N622 1.613 . S
S621 N623 1.610 . S
N622 S621 1.613 . S
N622 C625 1.350 . S
N623 S621 1.610 . S
N623 C624 1.351 . S
C624 C618 1.428 . S
C624 N623 1.351 . S
C624 C625 1.434 . S
C625 C616 1.429 . S
C625 N622 1.350 . S
C625 C624 1.434 . S
C626 C627 1.367 1_545 S
C626 C628 1.435 . S
C626 H630 0.916 1_545 S
C627 C626 1.367 1_565 S
C627 C636 1.429 . S
C628 C626 1.435 . S
C628 C629 1.363 . S
C628 H631 0.929 . S
C629 C628 1.363 . S
C629 C635 1.428 . S
H630 C626 0.916 1_565 S
H631 C628 0.929 . S
S632 N633 1.613 1_545 S
S632 N634 1.610 1_556 S
N633 S632 1.613 1_565 S
N633 C636 1.350 1_556 S
N634 S632 1.610 1_554 S
N634 C635 1.351 . S
C635 C629 1.428 . S
C635 N634 1.351 . S
C635 C636 1.434 1_545 S
C636 C627 1.429 . S
C636 N633 1.350 1_554 S
C636 C635 1.434 1_565 S
C637 C638 1.370 . S
C637 C639 1.419 . S
C637 H641 0.930 . S
C638 C637 1.370 . S
C638 C647 1.429 . S
C639 C637 1.419 . S
C639 C640 1.363 . S
C639 H642 0.929 . S
C640 C639 1.363 . S
C640 C646 1.428 . S
H641 C637 0.930 . S
H642 C639 0.929 . S
S643 N644 1.617 1_655 S
S643 N645 1.610 . S
N644 S643 1.617 1_455 S
N644 C647 1.353 . S
N645 S643 1.610 . S
N645 C646 1.351 1_655 S
C646 C640 1.428 . S
C646 N645 1.351 1_455 S
C646 C647 1.434 . S
C647 C638 1.429 . S
C647 N644 1.353 . S
C647 C646 1.434 . S
C253 C9 1.504 . S
C255 C205 1.505 . S
C264 C174 1.295 . S
C266 C20 1.298 . S
C275 C34 1.152 1_565 S
C277 C191 1.187 1_554 S
C286 C93 1.630 . S
C288 C37 1.632 . S
C297 C107 1.521 . S
C299 C6 1.527 . S
C308 C121 1.512 . S
C310 C23 1.508 . S
C319 C48 1.416 . S
C321 C163 1.433 1_556 S
C330 C135 1.564 . S
C332 C65 1.567 . S
C341 C146 1.196 1_556 S
C343 C76 1.203 . S
C352 C79 1.501 . S
C354 C216 1.485 . S
C363 C51 1.296 . S
C365 C233 1.298 . S
C374 C244 1.129 . S
C376 C62 1.099 . S
C385 C177 1.251 . S
C387 C118 1.224 . S
C396 C90 1.199 . S
C398 C188 1.201 . S
C407 C202 0.871 . S
C409 C104 0.873 . S
C418 C247 1.259 . S
C420 C132 1.250 . S
C429 C149 1.388 . S
C431 C219 1.394 . S
C440 C230 1.055 . S
C442 C160 1.067 . S
C451 C217 2.121 . S
C453 C8 1.771 . S
C462 C21 1.895 . S
C464 C232 1.642 . S
C473 C35 1.849 . S
C475 C245 1.851 . S
C484 C36 1.630 . S
C486 C162 1.615 . S
C495 C134 1.771 . S
C497 C7 2.095 . S
C506 C22 1.654 . S
C508 C147 1.966 . S
C517 C92 1.657 . S
C519 C49 1.981 . S
C528 C106 1.695 . S
C530 C64 1.679 . S
C539 C77 1.972 . S
C541 C120 1.662 . S
C550 C78 1.707 . S
C552 C204 1.716 . S
C561 C50 1.560 . S
C563 C175 1.824 . S
C572 C63 1.989 . S
C574 C190 1.749 . S
C583 C119 1.884 . S
C585 C246 1.629 . S
C594 C91 2.027 . S
C596 C218 1.701 . S
C605 C231 1.944 . S
C607 C105 1.952 . S
C616 C176 1.670 . S
C618 C133 1.901 1_556 S
C627 C189 1.915 1_554 S
C629 C148 1.624 . S
C638 C203 1.925 1_554 S
C640 C161 1.930 1_455 S
