# Generated by pormake.
# Topology vby, (6)-cn, num edge types: 1
# Building blocks:
#     Node 0, Type 0, BuildingBlock: BETDEL_clean_sbu_0, # of connection points: 6
#     Node 1, Type 0, BuildingBlock: BETDEL_clean_sbu_0, # of connection points: 6
#     Node 2, Type 0, BuildingBlock: BETDEL_clean_sbu_0, # of connection points: 6
#     Node 3, Type 0, BuildingBlock: BETDEL_clean_sbu_0, # of connection points: 6
#     Node 4, Type 0, BuildingBlock: BETDEL_clean_sbu_0, # of connection points: 6
#     Node 5, Type 0, BuildingBlock: BETDEL_clean_sbu_0, # of connection points: 6
#     Node 6, Type 0, BuildingBlock: BETDEL_clean_sbu_0, # of connection points: 6
#     Node 7, Type 0, BuildingBlock: BETDEL_clean_sbu_0, # of connection points: 6
#     Edge 8, Type (0, 0), BuildingBlock: XIVTED_clean_linker_0, # of connection points: 2
#     Edge 9, Type (0, 0), BuildingBlock: XIVTED_clean_linker_0, # of connection points: 2
#     Edge 10, Type (0, 0), BuildingBlock: XIVTED_clean_linker_0, # of connection points: 2
#     Edge 11, Type (0, 0), BuildingBlock: XIVTED_clean_linker_0, # of connection points: 2
#     Edge 12, Type (0, 0), BuildingBlock: XIVTED_clean_linker_0, # of connection points: 2
#     Edge 13, Type (0, 0), BuildingBlock: XIVTED_clean_linker_0, # of connection points: 2
#     Edge 14, Type (0, 0), BuildingBlock: XIVTED_clean_linker_0, # of connection points: 2
#     Edge 15, Type (0, 0), BuildingBlock: XIVTED_clean_linker_0, # of connection points: 2
#     Edge 16, Type (0, 0), BuildingBlock: XIVTED_clean_linker_0, # of connection points: 2
#     Edge 17, Type (0, 0), BuildingBlock: XIVTED_clean_linker_0, # of connection points: 2
#     Edge 18, Type (0, 0), BuildingBlock: XIVTED_clean_linker_0, # of connection points: 2
#     Edge 19, Type (0, 0), BuildingBlock: XIVTED_clean_linker_0, # of connection points: 2
#     Edge 20, Type (0, 0), BuildingBlock: XIVTED_clean_linker_0, # of connection points: 2
#     Edge 21, Type (0, 0), BuildingBlock: XIVTED_clean_linker_0, # of connection points: 2
#     Edge 22, Type (0, 0), BuildingBlock: XIVTED_clean_linker_0, # of connection points: 2
#     Edge 23, Type (0, 0), BuildingBlock: XIVTED_clean_linker_0, # of connection points: 2
#     Edge 24, Type (0, 0), BuildingBlock: XIVTED_clean_linker_0, # of connection points: 2
#     Edge 25, Type (0, 0), BuildingBlock: XIVTED_clean_linker_0, # of connection points: 2
#     Edge 26, Type (0, 0), BuildingBlock: XIVTED_clean_linker_0, # of connection points: 2
#     Edge 27, Type (0, 0), BuildingBlock: XIVTED_clean_linker_0, # of connection points: 2
#     Edge 28, Type (0, 0), BuildingBlock: XIVTED_clean_linker_0, # of connection points: 2
#     Edge 29, Type (0, 0), BuildingBlock: XIVTED_clean_linker_0, # of connection points: 2
#     Edge 30, Type (0, 0), BuildingBlock: XIVTED_clean_linker_0, # of connection points: 2
#     Edge 31, Type (0, 0), BuildingBlock: XIVTED_clean_linker_0, # of connection points: 2
# Relax obj value: 0.123
# Max RMSD: 0.163
# Mean RMSD: 0.163
data_MOF--net-vby--node1-BETDEL_clean_sbu_0--edge1-XIVTED_clean_linker_0
_symmetry_space_group_name_H-M    P1
_symmetry_Int_Tables_number       1
_symmetry_cell_setting            triclinic
loop_
_symmetry_equiv_pos_as_xyz
'x, y, z'
_cell_length_a     15.65694
_cell_length_b     70.936027
_cell_length_c     28.914147
_cell_angle_alpha  90.129634
_cell_angle_beta   86.670375
_cell_angle_gamma 90.014826
loop_
_atom_site_label
_atom_site_type_symbol
_atom_site_fract_x
_atom_site_fract_y
_atom_site_fract_z
_atom_type_partial_charge
Dy0 Dy 0.0509 0.40621 0.02242 0.0
C1 C 0.08642 0.32659 0.01464 0.0
C2 C 0.02743 0.4444 0.02081 0.0
Dy3 Dy 0.04839 0.36424 0.01203 0.0
O4 O 0.99673 0.43317 0.05291 0.0
O5 O 0.07084 0.43478 0.98922 0.0
O6 O 0.10818 0.40279 0.09115 0.0
O7 O 0.01897 0.38304 0.07044 0.0
C8 C 0.06808 0.38726 0.10189 0.0
C9 C 0.02072 0.38284 0.93426 0.0
O10 O 0.90924 0.36825 0.02997 0.0
O11 O 0.91318 0.39993 0.01014 0.0
O12 O 0.08124 0.33657 0.97742 0.0
O13 O 0.06709 0.33703 0.05078 0.0
O14 O 0.98433 0.36695 0.94567 0.0
O15 O 0.07503 0.38746 0.96304 0.0
O16 O 0.19067 0.40261 1.00726 0.0
O17 O 0.1874 0.37048 0.02006 0.0
C18 C 0.86997 0.38425 0.02061 0.0
C19 C 0.23006 0.3864 0.01303 0.0
Dy20 Dy 0.94709 0.66725 0.02311 0.0
C21 C 0.96845 0.58498 0.0302 0.0
C22 C 0.90168 0.70437 0.02267 0.0
Dy23 Dy 0.948 0.62268 0.01565 0.0
O24 O 0.89057 0.693 0.05758 0.0
O25 O 0.9406 0.6956 0.98775 0.0
O26 O 0.01659 0.66514 0.08802 0.0
O27 O 0.93082 0.64348 0.07198 0.0
C28 C 0.98597 0.6487 0.0997 0.0
C29 C 0.94533 0.63848 0.93098 0.0
O30 O 0.80682 0.62705 0.0235 0.0
O31 O 0.80852 0.6598 0.01573 0.0
O32 O 0.02311 0.59587 1.008 0.0
O33 O 0.90232 0.59475 0.04552 0.0
O34 O 0.94219 0.6204 0.93746 0.0
O35 O 0.94622 0.6463 0.96979 0.0
O36 O 0.08383 0.66242 0.99939 0.0
O37 O 0.08475 0.63118 0.02445 0.0
C38 C 0.76725 0.64344 0.01929 0.0
C39 C 0.12524 0.64674 0.00972 0.0
Dy40 Dy 0.0604 0.66715 0.50909 0.0
C41 C 0.04182 0.58685 0.51683 0.0
C42 C 0.09758 0.70483 0.51253 0.0
Dy43 Dy 0.06366 0.62513 0.51931 0.0
O44 O 0.09614 0.69474 0.47516 0.0
O45 O 0.07521 0.69448 0.54827 0.0
O46 O 0.99652 0.66436 0.44282 0.0
O47 O 0.08761 0.64388 0.45998 0.0
C48 C 0.03324 0.6485 0.43121 0.0
C49 C 0.07984 0.6445 0.59869 0.0
O50 O 0.203 0.62885 0.50324 0.0
O51 O 0.19931 0.66089 0.51769 0.0
O52 O 0.02707 0.59748 0.5529 0.0
O53 O 0.06852 0.59712 0.48176 0.0
O54 O 0.12122 0.62908 0.58807 0.0
O55 O 0.03059 0.64835 0.56711 0.0
O56 O 0.92112 0.66319 0.52658 0.0
O57 O 0.92477 0.63119 0.50951 0.0
C58 C 0.2422 0.64503 0.5098 0.0
C59 C 0.88181 0.64703 0.51862 0.0
Dy60 Dy 0.94032 0.40822 0.51698 0.0
C61 C 0.90222 0.32848 0.52281 0.0
C62 C 0.96445 0.44642 0.52008 0.0
Dy63 Dy 0.94102 0.36609 0.52649 0.0
O64 O 0.9784 0.43585 0.48382 0.0
O65 O 0.93737 0.43612 0.55504 0.0
O66 O 0.88236 0.40477 0.44833 0.0
O67 O 0.97163 0.385 0.46883 0.0
C68 C 0.92256 0.38924 0.43745 0.0
C69 C 0.96951 0.38461 0.60438 0.0
O70 O 0.0803 0.36973 0.50825 0.0
O71 O 0.07894 0.40164 0.52634 0.0
O72 O 0.90906 0.33827 0.56033 0.0
O73 O 0.92001 0.33909 0.48693 0.0
O74 O 0.00547 0.36868 0.59271 0.0
O75 O 0.91514 0.3893 0.57575 0.0
O76 O 0.8007 0.40487 0.533 0.0
O77 O 0.80213 0.37277 0.51897 0.0
C78 C 0.1208 0.3857 0.51662 0.0
C79 C 0.76037 0.3888 0.52669 0.0
Dy80 Dy 0.55651 0.90797 0.01949 0.0
C81 C 0.59644 0.82838 0.01037 0.0
C82 C 0.53229 0.94615 0.01721 0.0
Dy83 Dy 0.55629 0.86593 1.00918 0.0
O84 O 0.51402 0.93538 0.05254 0.0
O85 O 0.56368 0.93606 0.98272 0.0
O86 O 0.61498 0.90461 0.08796 0.0
O87 O 0.52619 0.88471 0.06747 0.0
C88 C 0.5753 0.88904 0.09883 0.0
C89 C 0.52581 0.88447 0.9318 0.0
O90 O 0.41682 0.86942 0.02716 0.0
O91 O 0.41799 0.90137 0.00986 0.0
O92 O 0.59839 0.83898 0.97389 0.0
O93 O 0.5692 0.83814 0.04642 0.0
O94 O 0.4904 0.8685 0.94342 0.0
O95 O 0.58071 0.8892 0.96015 0.0
O96 O 0.69614 0.90462 1.00346 0.0
O97 O 0.69447 0.87267 0.01871 0.0
C98 C 0.37622 0.88541 0.01928 0.0
C99 C 0.7364 0.88862 0.01046 0.0
Dy100 Dy 0.44699 0.16705 0.0247 0.0
C101 C 0.46588 0.08676 0.01667 0.0
C102 C 0.40906 0.20469 0.02158 0.0
Dy103 Dy 0.44367 0.125 0.01466 0.0
O104 O 0.41517 0.19484 0.05894 0.0
O105 O 0.42741 0.19413 0.98554 0.0
O106 O 0.51116 0.16444 0.0909 0.0
O107 O 0.42007 0.14389 0.07385 0.0
C108 C 0.47457 0.14858 0.10251 0.0
C109 C 0.42694 0.14413 0.9353 0.0
O110 O 0.30421 0.1287 0.03054 0.0
O111 O 0.3078 0.16079 0.01703 0.0
O112 O 0.4844 0.09753 0.98136 0.0
O113 O 0.43526 0.09688 0.05128 0.0
O114 O 0.38559 0.12875 0.94611 0.0
O115 O 0.47645 0.1481 0.96671 0.0
O116 O 0.58607 0.16302 1.00662 0.0
O117 O 0.58233 0.13117 0.02491 0.0
C118 C 0.26497 0.1449 0.0245 0.0
C119 C 0.62538 0.14694 0.01515 0.0
Dy120 Dy 0.55525 0.16723 0.51051 0.0
C121 C 0.53665 0.0869 0.51803 0.0
C122 C 0.59198 0.20493 0.5144 0.0
Dy123 Dy 0.55867 0.12516 0.52013 0.0
O124 O 0.58537 0.19517 0.47684 0.0
O125 O 0.57499 0.19424 0.55023 0.0
O126 O 0.49124 0.16459 0.44423 0.0
O127 O 0.58224 0.14406 0.46114 0.0
C128 C 0.52781 0.14874 0.4325 0.0
C129 C 0.57536 0.14432 0.59965 0.0
O130 O 0.69809 0.12889 0.5042 0.0
O131 O 0.6946 0.16101 0.51774 0.0
O132 O 0.51782 0.09772 0.55331 0.0
O133 O 0.56743 0.09698 0.48348 0.0
O134 O 0.61682 0.12896 0.58868 0.0
O135 O 0.52581 0.14827 0.56829 0.0
O136 O 0.41621 0.16312 0.52856 0.0
O137 O 0.42004 0.13128 0.50978 0.0
C138 C 0.73737 0.14511 0.51021 0.0
C139 C 0.37694 0.14704 0.51974 0.0
Dy140 Dy 0.44724 0.90804 0.51444 0.0
C141 C 0.40808 0.82835 0.51982 0.0
C142 C 0.47165 0.94622 0.5172 0.0
Dy143 Dy 0.44755 0.86591 0.52356 0.0
O144 O 0.49022 0.93544 0.48182 0.0
O145 O 0.43986 0.93614 0.55152 0.0
O146 O 0.38896 0.90477 0.44582 0.0
O147 O 0.47792 0.88489 0.46596 0.0
C148 C 0.42887 0.88924 0.43466 0.0
C149 C 0.4773 0.88423 0.60155 0.0
O150 O 0.58701 0.86954 0.5058 0.0
O151 O 0.58558 0.90141 0.52438 0.0
O152 O 0.40968 0.8384 0.55725 0.0
O153 O 0.43148 0.83867 0.48417 0.0
O154 O 0.5126 0.86825 0.58966 0.0
O155 O 0.42273 0.88906 0.57315 0.0
O156 O 0.30759 0.90468 0.53041 0.0
O157 O 0.30901 0.87268 0.51529 0.0
C158 C 0.62747 0.8855 0.51444 0.0
C159 C 0.26724 0.88866 0.52357 0.0
H160 H 0.33212 0.35585 0.02657 0.0
H161 H 0.76846 0.41454 1.00373 0.0
H162 H 0.34359 0.41574 1.00019 0.0
H163 H 0.75615 0.35514 0.03599 0.0
H164 H 0.61327 0.41513 1.00133 0.0
H165 H 0.48737 0.35524 0.02872 0.0
C166 C 0.36719 0.36889 0.02111 0.0
C167 C 0.3245 0.3859 0.01319 0.0
C168 C 0.64441 0.40196 1.00899 0.0
C169 C 0.50284 0.38525 0.01574 0.0
C170 C 0.73321 0.40159 0.0104 0.0
C171 C 0.77562 0.38473 0.02009 0.0
C172 C 0.59735 0.38536 0.01725 0.0
C173 C 0.72628 0.36845 0.02842 0.0
C174 C 0.45601 0.36852 0.02243 0.0
C175 C 0.37364 0.40231 1.00641 0.0
N176 N 0.63974 0.36916 0.02675 0.0
N177 N 0.46021 0.40158 1.00786 0.0
H178 H 0.23701 0.67632 0.99231 0.0
H179 H 0.65507 0.61362 0.02785 0.0
H180 H 0.23077 0.61684 0.0239 0.0
H181 H 0.66277 0.67383 1.00608 0.0
H182 H 0.49974 0.61446 0.02361 0.0
H183 H 0.39337 0.67559 0.99373 0.0
C184 C 0.26831 0.6631 0.99933 0.0
C185 C 0.22028 0.64665 1.00814 0.0
C186 C 0.53541 0.6275 0.01978 0.0
C187 C 0.39936 0.64572 0.00994 0.0
C188 C 0.62431 0.62703 0.02222 0.0
C189 C 0.67253 0.64368 0.01742 0.0
C190 C 0.49401 0.64473 0.01234 0.0
C191 C 0.62859 0.66062 0.01011 0.0
C192 C 0.35765 0.66271 1.00026 0.0
C193 C 0.26469 0.62993 0.01708 0.0
N194 N 0.54205 0.6607 1.00778 0.0
N195 N 0.35138 0.62992 0.0178 0.0
H196 H 0.77983 0.61657 0.50371 0.0
H197 H 0.3443 0.67562 0.52335 0.0
H198 H 0.76842 0.67633 0.53242 0.0
H199 H 0.35554 0.61566 0.4973 0.0
H200 H 0.4995 0.67619 0.52603 0.0
H201 H 0.62468 0.61603 0.50106 0.0
C202 C 0.74478 0.6296 0.50959 0.0
C203 C 0.78743 0.64655 0.51831 0.0
C204 C 0.4681 0.66291 0.51968 0.0
C205 C 0.60924 0.64599 0.51513 0.0
C206 C 0.37931 0.66256 0.51807 0.0
C207 C 0.3366 0.64554 0.5101 0.0
C208 C 0.51481 0.64613 0.51326 0.0
C209 C 0.38563 0.6291 0.50353 0.0
C210 C 0.65602 0.62926 0.508 0.0
C211 C 0.73835 0.66295 0.52561 0.0
N212 N 0.47213 0.6298 0.5053 0.0
N213 N 0.65185 0.66226 0.52379 0.0
H214 H 0.64913 0.41853 0.53967 0.0
H215 H 0.2321 0.35608 0.50176 0.0
H216 H 0.65601 0.3586 0.51279 0.0
H217 H 0.22504 0.41573 0.53212 0.0
H218 H 0.3878 0.35677 0.50463 0.0
H219 H 0.49353 0.4178 0.53665 0.0
C220 C 0.61804 0.40521 0.53327 0.0
C221 C 0.66589 0.38861 0.52647 0.0
C222 C 0.35211 0.36971 0.51062 0.0
C223 C 0.48771 0.38769 0.52278 0.0
C224 C 0.26317 0.36933 0.50889 0.0
C225 C 0.21527 0.38586 0.51673 0.0
C226 C 0.39347 0.38675 0.52022 0.0
C227 C 0.25916 0.40261 0.52587 0.0
C228 C 0.52914 0.40481 0.53148 0.0
C229 C 0.62193 0.37177 0.51824 0.0
N230 N 0.34565 0.40262 0.5274 0.0
N231 N 0.53544 0.37175 0.51657 0.0
H232 H 0.84789 0.91826 0.99678 0.0
H233 H 0.26479 0.85585 0.03462 0.0
H234 H 0.84048 0.85852 0.02539 0.0
H235 H 0.27204 0.91539 1.00364 0.0
H236 H 0.10898 0.85658 0.03227 0.0
H237 H 0.00354 0.9175 0.99953 0.0
C238 C 0.87887 0.90498 1.00354 0.0
C239 C 0.83087 0.88844 0.01086 0.0
C240 C 0.14475 0.86949 0.02604 0.0
C241 C 0.00911 0.88747 0.01421 0.0
C242 C 0.23375 0.86908 0.02744 0.0
C243 C 0.28173 0.88557 0.0193 0.0
C244 C 0.10341 0.8865 0.01643 0.0
C245 C 0.23787 0.9023 0.01013 0.0
C246 C 0.96781 0.90455 1.00516 0.0
C247 C 0.87468 0.87164 0.01953 0.0
N248 N 0.15133 0.90233 1.00891 0.0
N249 N 0.96121 0.8716 0.021 0.0
H250 H 0.16299 0.17549 0.01102 0.0
H251 H 0.72711 0.11655 0.03078 0.0
H252 H 0.15145 0.11556 0.03695 0.0
H253 H 0.73902 0.17615 1.00079 0.0
H254 H 0.88221 0.11601 0.03362 0.0
H255 H 0.00782 0.17606 1.00821 0.0
C256 C 0.12792 0.16243 0.01626 0.0
C257 C 0.17056 0.14542 0.02423 0.0
C258 C 0.85101 0.12921 0.02635 0.0
C259 C 0.99235 0.14603 0.02089 0.0
C260 C 0.76226 0.12955 0.02466 0.0
C261 C 0.71975 0.14645 0.01553 0.0
C262 C 0.89793 0.14589 0.01891 0.0
C263 C 0.76897 0.1628 1.00792 0.0
C264 C 0.03915 0.16279 0.01456 0.0
C265 C 0.12143 0.12899 0.03072 0.0
N266 N 0.85547 0.16212 0.00985 0.0
N267 N 0.03494 0.12971 0.02887 0.0
H268 H 0.27512 0.11665 0.50388 0.0
H269 H 0.8396 0.17572 0.52335 0.0
H270 H 0.26343 0.17629 0.5341 0.0
H271 H 0.85069 0.11572 0.49781 0.0
H272 H 0.99479 0.17627 0.52611 0.0
H273 H 0.12001 0.11613 0.50086 0.0
C274 C 0.24002 0.12966 0.51001 0.0
C275 C 0.28258 0.14656 0.51927 0.0
C276 C 0.96335 0.16298 0.51985 0.0
C277 C 0.10443 0.14603 0.51567 0.0
C278 C 0.87458 0.16264 0.51818 0.0
C279 C 0.8318 0.14562 0.51036 0.0
C280 C 0.01002 0.14619 0.51363 0.0
C281 C 0.88081 0.12916 0.50394 0.0
C282 C 0.15128 0.12933 0.50822 0.0
C283 C 0.23343 0.16293 0.52688 0.0
N284 N 0.96731 0.12986 0.50576 0.0
N285 N 0.14696 0.16226 0.52485 0.0
H286 H 0.73894 0.85596 0.49862 0.0
H287 H 0.15583 0.9183 0.53783 0.0
H288 H 0.73153 0.91542 0.53118 0.0
H289 H 0.163 0.85855 0.50861 0.0
H290 H 1.00014 0.91754 0.53524 0.0
H291 H 0.89467 0.85668 0.5013 0.0
C292 C 0.76993 0.86917 0.50622 0.0
C293 C 0.72193 0.88565 0.51468 0.0
C294 C 0.03583 0.9046 0.52945 0.0
C295 C 0.90018 0.88656 0.51793 0.0
C296 C 0.12479 0.90502 0.53098 0.0
C297 C 0.17274 0.88847 0.52341 0.0
C298 C 0.99447 0.88752 0.52023 0.0
C299 C 0.12885 0.87167 0.51466 0.0
C300 C 0.85889 0.86957 0.50781 0.0
C301 C 0.76572 0.90236 0.52441 0.0
N302 N 0.04231 0.87164 0.51325 0.0
N303 N 0.85224 0.90237 0.52579 0.0
H304 H 0.86154 0.55951 0.07558 0.0
H305 H 0.10815 0.47017 0.96356 0.0
H306 H 0.09472 0.56352 0.98909 0.0
H307 H 0.92426 0.46549 0.07993 0.0
H308 H 0.09418 0.50454 0.96736 0.0
H309 H 0.87464 0.52497 0.0737 0.0
C310 C 0.91567 0.55311 0.0565 0.0
C311 C 0.97718 0.56431 0.0325 0.0
C312 C 0.05687 0.496 0.99208 0.0
C313 C 0.99193 0.52504 0.02959 0.0
C314 C 0.06458 0.47641 0.98976 0.0
C315 C 0.01738 0.46506 0.02151 0.0
C316 C 1.00089 0.50426 0.02611 0.0
C317 C 0.96192 0.4738 0.05487 0.0
C318 C 0.9231 0.53345 0.05537 0.0
C319 C 0.04594 0.55538 1.00813 0.0
N320 N 0.95496 0.4929 0.05625 0.0
N321 N 0.05118 0.53628 1.00706 0.0
H322 H 0.93702 0.47068 0.5932 0.0
H323 H 0.07016 0.56253 0.44394 0.0
H324 H 0.01862 0.46901 0.44821 0.0
H325 H 0.9883 0.56427 0.58888 0.0
H326 H 0.05186 0.52821 0.44472 0.0
H327 H 0.95588 0.505 0.59255 0.0
C328 C 0.959 0.47756 0.56127 0.0
C329 C 0.97631 0.46706 0.52071 0.0
C330 C 0.03787 0.53609 0.47638 0.0
C331 C 0.99793 0.50622 0.51956 0.0
C332 C 0.04829 0.55566 0.47589 0.0
C333 C 0.03068 0.56619 0.51639 0.0
C334 C 0.00967 0.52701 0.5177 0.0
C335 C 0.00254 0.55664 0.55689 0.0
C336 C 0.96972 0.49713 0.56086 0.0
C337 C 0.00459 0.47661 0.48025 0.0
N338 N 0.99292 0.5376 0.55653 0.0
N339 N 0.01447 0.49565 0.48068 0.0
H340 H 0.46734 0.96825 0.08787 0.0
H341 H 0.52976 0.06463 0.94585 0.0
H342 H 0.57172 0.9709 0.94669 0.0
H343 H 0.4261 0.06201 0.08717 0.0
H344 H 0.54557 0.03034 0.94545 0.0
H345 H 0.45104 1.00253 0.0882 0.0
C346 C 0.4867 0.97608 0.05689 0.0
C347 C 0.52092 0.96678 0.01717 0.0
C348 C 0.51939 0.03723 0.97659 0.0
C349 C 0.50268 1.00601 0.01728 0.0
C350 C 0.51042 0.0568 0.97684 0.0
C351 C 0.4766 0.06611 0.01662 0.0
C352 C 0.49428 0.02687 0.01644 0.0
C353 C 0.45251 0.05533 0.0558 0.0
C354 C 0.47745 0.99565 0.0571 0.0
C355 C 0.54501 0.97756 0.978 0.0
N356 N 0.46177 0.03627 0.05473 0.0
N357 N 0.5355 0.99663 0.97905 0.0
H358 H 0.47252 0.06485 0.58875 0.0
H359 H 0.5373 0.96824 0.44685 0.0
H360 H 0.5772 0.06202 0.44762 0.0
H361 H 0.43138 0.97107 0.58774 0.0
H362 H 0.55332 1.00253 0.44663 0.0
H363 H 0.45717 0.03055 0.58915 0.0
C364 C 0.49218 0.05698 0.5578 0.0
C365 C 0.52615 0.06623 0.51807 0.0
C366 C 0.52663 0.99569 0.47764 0.0
C367 C 0.509 0.02697 0.51826 0.0
C368 C 0.51755 0.97611 0.4778 0.0
C369 C 0.48297 0.96686 0.51739 0.0
C370 C 0.50086 1.0061 0.5174 0.0
C371 C 0.45839 0.97769 0.55652 0.0
C372 C 0.48347 0.0374 0.55805 0.0
C373 C 0.55065 0.05539 0.47894 0.0
N374 N 0.46774 0.99676 0.55553 0.0
N375 N 0.54165 0.03632 0.48002 0.0
H376 H 0.13995 0.30489 0.94075 0.0
H377 H 0.35666 0.22657 0.09534 0.0
H378 H 0.12608 0.30575 0.09012 0.0
H379 H 0.36843 0.22538 0.94599 0.0
H380 H 0.27458 0.25586 0.0941 0.0
H381 H 0.2221 0.27561 0.94192 0.0
C382 C 0.15327 0.29876 0.97384 0.0
C383 C 0.12599 0.3077 0.01543 0.0
C384 C 0.2955 0.24929 0.06155 0.0
C385 C 0.22127 0.27433 0.01707 0.0
C386 C 0.34289 0.23263 0.06223 0.0
C387 C 0.36954 0.22359 0.02067 0.0
C388 C 0.27435 0.25697 0.01897 0.0
C389 C 0.34941 0.23196 0.9788 0.0
C390 C 0.20068 0.2821 0.97449 0.0
C391 C 0.14557 0.29924 0.05729 0.0
N392 N 0.3027 0.24815 0.97901 0.0
N393 N 0.19234 0.28306 0.05704 0.0
H394 H 0.6677 0.80836 0.93753 0.0
H395 H 0.82225 0.72344 0.09449 0.0
H396 H 0.61491 0.80548 0.08539 0.0
H397 H 0.89097 0.72818 0.94838 0.0
H398 H 0.74499 0.75326 0.09162 0.0
H399 H 0.74526 0.77851 0.94023 0.0
C400 C 0.67164 0.80131 0.97053 0.0
C401 C 0.63468 0.80936 0.01132 0.0
C402 C 0.7773 0.74788 0.06019 0.0
C403 C 0.72435 0.77528 0.01477 0.0
C404 C 0.82178 0.73088 0.06183 0.0
C405 C 0.86321 0.72337 0.0216 0.0
C406 C 0.77368 0.75745 0.0179 0.0
C407 C 0.8602 0.73354 0.98022 0.0
C408 C 0.71641 0.78433 0.97209 0.0
C409 C 0.64218 0.79971 0.05313 0.0
N410 N 0.81579 0.75004 0.97938 0.0
N411 N 0.68637 0.7832 0.05381 0.0
H412 H 0.1251 0.72633 0.58904 0.0
H413 H 0.37994 0.80694 0.4432 0.0
H414 H 0.15894 0.72628 0.43996 0.0
H415 H 0.34585 0.80697 0.59227 0.0
H416 H 0.30077 0.77715 0.44119 0.0
H417 H 0.20374 0.75619 0.59097 0.0
C418 C 0.14818 0.73274 0.55672 0.0
C419 C 0.13539 0.72388 0.5143 0.0
C420 C 0.31099 0.78361 0.47437 0.0
C421 C 0.22659 0.75783 0.51614 0.0
C422 C 0.35667 0.80054 0.4755 0.0
C423 C 0.36959 0.80937 0.51795 0.0
C424 C 0.27783 0.7755 0.51601 0.0
C425 C 0.33751 0.80058 0.55879 0.0
C426 C 0.19356 0.74971 0.5578 0.0
C427 C 0.16721 0.73269 0.47343 0.0
N428 N 0.29288 0.78419 0.55681 0.0
N429 N 0.2116 0.74912 0.47536 0.0
H430 H 0.8533 0.30622 0.59628 0.0
H431 H 0.63989 0.22732 0.44101 0.0
H432 H 0.86082 0.30787 0.44703 0.0
H433 H 0.6333 0.22552 0.59023 0.0
H434 H 0.71857 0.25707 0.44255 0.0
H435 H 0.77428 0.27651 0.59477 0.0
C436 C 0.83916 0.30019 0.56313 0.0
C437 C 0.8638 0.30947 0.52169 0.0
C438 C 0.69954 0.25026 0.47502 0.0
C439 C 0.77215 0.27559 0.51968 0.0
C440 C 0.65413 0.23333 0.47417 0.0
C441 C 0.62988 0.22399 0.51559 0.0
C442 C 0.72117 0.25792 0.51763 0.0
C443 C 0.65048 0.23233 0.55753 0.0
C444 C 0.79357 0.28328 0.5623 0.0
C445 C 0.84333 0.30111 0.47976 0.0
N446 N 0.69524 0.24878 0.55748 0.0
N447 N 0.7984 0.28468 0.47982 0.0
H448 H 0.1763 0.38972 0.172 0.0
H449 H 0.81501 0.39236 0.36708 0.0
H450 H 0.92047 0.37282 0.14249 0.0
H451 H 0.06709 0.3732 0.39734 0.0
H452 H 0.85094 0.38694 0.2843 0.0
H453 H 0.13931 0.38534 0.25498 0.0
C454 C 0.11289 0.38477 0.18303 0.0
C455 C 0.05129 0.38165 0.1506 0.0
C456 C 0.89771 0.38361 0.30921 0.0
C457 C 0.008 0.37717 0.24495 0.0
C458 C 0.87733 0.38673 0.35628 0.0
C459 C 0.93827 0.38327 0.38885 0.0
C460 C 0.98037 0.37754 0.29472 0.0
C461 C 0.01827 0.37601 0.37323 0.0
C462 C 0.09188 0.38226 0.23021 0.0
C463 C 0.96985 0.37533 0.16649 0.0
N464 N 0.03774 0.37376 0.32711 0.0
N465 N 0.9499 0.37368 0.21271 0.0
H466 H 0.13151 0.64894 0.14546 0.0
H467 H 0.88923 0.64502 0.38511 0.0
H468 H 0.86891 0.63057 0.15829 0.0
H469 H 0.16023 0.63413 0.37179 0.0
H470 H 0.87937 0.63789 0.30277 0.0
H471 H 0.14581 0.64174 0.22739 0.0
C472 C 0.07742 0.64297 0.16545 0.0
C473 C 0.99881 0.64044 0.14545 0.0
C474 C 0.9407 0.63659 0.31797 0.0
C475 C 0.01384 0.63269 0.2393 0.0
C476 C 0.94635 0.64069 0.36488 0.0
C477 C 0.02567 0.64023 0.38491 0.0
C478 C 0.01549 0.63261 0.29058 0.0
C479 C 0.0979 0.63459 0.35746 0.0
C480 C 0.08563 0.63883 0.21212 0.0
C481 C 0.93059 0.63269 0.17259 0.0
N482 N 0.0915 0.63144 0.31128 0.0
N483 N 0.93901 0.62951 0.21856 0.0
H484 H 0.08576 0.65745 0.89688 0.0
H485 H 0.93346 0.66001 0.63816 0.0
H486 H 0.83768 0.6379 0.86097 0.0
H487 H 0.18665 0.64204 0.66975 0.0
H488 H 0.89766 0.66433 0.72129 0.0
H489 H 0.12168 0.66429 0.8145 0.0
C490 C 0.0378 0.65533 0.87182 0.0
C491 C 0.95842 0.64734 0.88533 0.0
C492 C 0.96155 0.65984 0.7098 0.0
C493 C 0.9987 0.65503 0.79202 0.0
C494 C 0.98219 0.65744 0.66251 0.0
C495 C 0.06292 0.65048 0.64729 0.0
C496 C 0.02273 0.65569 0.74185 0.0
C497 C 0.12352 0.64728 0.68026 0.0
C498 C 0.05857 0.65903 0.825 0.0
C499 C 0.89917 0.64426 0.85166 0.0
N500 N 0.10212 0.64985 0.72614 0.0
N501 N 0.92048 0.6481 0.80642 0.0
H502 H 0.84449 0.40057 0.66229 0.0
H503 H 0.14422 0.39994 0.87761 0.0
H504 H 0.11298 0.38678 0.65143 0.0
H505 H 0.87739 0.38462 0.88696 0.0
H506 H 0.13192 0.40761 0.79519 0.0
H507 H 0.85617 0.40726 0.74534 0.0
C508 C 0.90628 0.39953 0.67713 0.0
C509 C 0.97772 0.39292 0.65054 0.0
C510 C 0.07572 0.40301 0.81573 0.0
C511 C 0.99166 0.40063 0.74447 0.0
C512 C 0.08263 0.39874 0.86261 0.0
C513 C 0.01192 0.39142 0.88853 0.0
C514 C 0.99723 0.40027 0.79535 0.0
C515 C 0.93355 0.39 0.86768 0.0
C516 C 0.91284 0.40324 0.72437 0.0
C517 C 0.05632 0.39166 0.67119 0.0
N518 N 0.92835 0.39424 0.82217 0.0
N519 N 0.06116 0.39532 0.71707 0.0
H520 H 0.68297 0.89201 0.16918 0.0
H521 H 0.32133 0.89237 0.3643 0.0
H522 H 0.42899 0.87393 0.13923 0.0
H523 H 0.5747 0.87392 0.39414 0.0
H524 H 0.35797 0.88754 0.28135 0.0
H525 H 0.64618 0.8873 0.2521 0.0
C526 C 0.62004 0.88675 0.18009 0.0
C527 C 0.55888 0.88338 0.14756 0.0
C528 C 0.4049 0.88424 0.3062 0.0
C529 C 0.51579 0.8785 0.24182 0.0
C530 C 0.3841 0.88701 0.35336 0.0
C531 C 0.44514 0.88357 0.38587 0.0
C532 C 0.48805 0.87854 0.29158 0.0
C533 C 0.52576 0.87669 0.37008 0.0
C534 C 0.59914 0.88404 0.22724 0.0
C535 C 0.47803 0.87664 0.16331 0.0
N536 N 0.54558 0.87478 0.3239 0.0
N537 N 0.45814 0.8748 0.20948 0.0
H538 H 0.35044 0.1322 0.16013 0.0
H539 H 0.65193 0.13231 0.37478 0.0
H540 H 0.61833 0.14656 0.14937 0.0
H541 H 0.38407 0.14668 0.38561 0.0
H542 H 0.63942 0.12514 0.29203 0.0
H543 H 0.36296 0.12511 0.24285 0.0
C544 C 0.41228 0.1333 0.1749 0.0
C545 C 0.48328 0.14018 0.14846 0.0
C546 C 0.58306 0.12941 0.31294 0.0
C547 C 0.4982 0.13201 0.24201 0.0
C548 C 0.5901 0.13339 0.36001 0.0
C549 C 0.51911 0.1403 0.3865 0.0
C550 C 0.50419 0.13204 0.29289 0.0
C551 C 0.44043 0.1416 0.36592 0.0
C552 C 0.41932 0.12936 0.22196 0.0
C553 C 0.56197 0.1415 0.16903 0.0
N554 N 0.43512 0.13766 0.32021 0.0
N555 N 0.56728 0.1376 0.21472 0.0
H556 H 0.31948 0.14141 0.86479 0.0
H557 H 0.68291 0.14171 0.6701 0.0
H558 H 0.57368 0.15918 0.89518 0.0
H559 H 0.42828 0.15918 0.64 0.0
H560 H 0.64572 0.14646 0.753 0.0
H561 H 0.35655 0.14627 0.78197 0.0
C562 C 0.38255 0.14663 0.854 0.0
C563 C 0.44368 0.14986 0.88664 0.0
C564 C 0.5986 0.14958 0.72812 0.0
C565 C 0.48708 0.15493 0.79244 0.0
C566 C 0.61972 0.14685 0.68097 0.0
C567 C 0.55851 0.15002 0.64839 0.0
C568 C 0.51498 0.15496 0.74267 0.0
C569 C 0.47736 0.15661 0.6641 0.0
C570 C 0.4036 0.14942 0.8069 0.0
C571 C 0.52466 0.15656 0.87103 0.0
N572 N 0.45729 0.15849 0.71028 0.0
N573 N 0.54468 0.1585 0.82489 0.0
H574 H 0.62254 0.88614 0.64704 0.0
H575 H 0.38052 0.88663 0.88643 0.0
H576 H 0.35512 0.90073 0.66036 0.0
H577 H 0.64853 0.90069 0.87299 0.0
H578 H 0.3681 0.89408 0.80456 0.0
H579 H 0.63519 0.89373 0.72889 0.0
C580 C 0.5669 0.89135 0.66716 0.0
C581 C 0.48756 0.89268 0.64737 0.0
C582 C 0.42922 0.89601 0.81966 0.0
C583 C 0.50085 0.90089 0.74109 0.0
C584 C 0.43635 0.89171 0.86628 0.0
C585 C 0.51576 0.89292 0.88605 0.0
C586 C 0.50273 0.90096 0.79231 0.0
C587 C 0.58622 0.89958 0.8588 0.0
C588 C 0.57416 0.89574 0.71378 0.0
C589 C 0.41735 0.89953 0.67458 0.0
N590 N 0.57859 0.90291 0.81285 0.0
N591 N 0.42509 0.90294 0.72053 0.0
loop_
_geom_bond_atom_site_label_1
_geom_bond_atom_site_label_2
_geom_bond_distance
_geom_bond_site_symmetry_2
_ccdc_geom_bond_type
Dy0 O4 2.398 . S
Dy0 O5 2.491 1_454 S
Dy0 O6 2.403 . S
Dy0 O7 2.664 . S
Dy0 O11 2.326 1_455 S
Dy0 O15 2.310 1_554 S
Dy0 O16 2.351 . S
C1 O12 1.185 1_554 S
C1 O13 1.355 . S
C2 O4 1.185 1_655 S
C2 O5 1.355 1_554 S
Dy3 O7 2.310 . S
Dy3 O10 2.351 1_455 S
Dy3 O12 2.398 1_554 S
Dy3 O13 2.491 . S
Dy3 O14 2.403 1_554 S
Dy3 O15 2.664 1_554 S
Dy3 O17 2.326 1_554 S
O4 Dy0 2.398 . S
O4 C2 1.185 1_455 S
O5 Dy0 2.491 1_656 S
O5 C2 1.355 1_556 S
O6 Dy0 2.403 . S
O6 C8 1.254 . S
O7 Dy0 2.664 . S
O7 Dy3 2.310 . S
O7 C8 1.268 . S
C8 O6 1.254 . S
C8 O7 1.268 . S
C9 O14 1.254 . S
C9 O15 1.268 . S
O10 Dy3 2.351 1_655 S
O10 C18 1.249 . S
O11 Dy0 2.326 1_655 S
O11 C18 1.267 . S
O12 C1 1.185 1_556 S
O12 Dy3 2.398 1_556 S
O13 C1 1.355 . S
O13 Dy3 2.491 . S
O14 Dy3 2.403 1_556 S
O14 C9 1.254 . S
O15 Dy0 2.310 1_556 S
O15 Dy3 2.664 1_556 S
O15 C9 1.268 . S
O16 Dy0 2.351 . S
O16 C19 1.249 . S
O17 Dy3 2.326 1_556 S
O17 C19 1.267 1_556 S
C18 O10 1.249 . S
C18 O11 1.267 . S
C19 O16 1.249 . S
C19 O17 1.267 1_554 S
Dy20 O24 2.398 . S
Dy20 O25 2.491 1_554 S
Dy20 O26 2.403 . S
Dy20 O27 2.664 . S
Dy20 O31 2.326 . S
Dy20 O35 2.310 1_554 S
Dy20 O36 2.351 1_655 S
C21 O32 1.185 1_454 S
C21 O33 1.355 . S
C22 O24 1.185 . S
C22 O25 1.355 1_554 S
Dy23 O27 2.310 . S
Dy23 O30 2.351 . S
Dy23 O32 2.398 1_554 S
Dy23 O33 2.491 1_655 S
Dy23 O34 2.403 1_554 S
Dy23 O35 2.664 1_554 S
Dy23 O37 2.326 1_654 S
O24 Dy20 2.398 . S
O24 C22 1.185 . S
O25 Dy20 2.491 1_556 S
O25 C22 1.355 1_556 S
O26 Dy20 2.403 . S
O26 C28 1.254 . S
O27 Dy20 2.664 . S
O27 Dy23 2.310 . S
O27 C28 1.268 . S
C28 O26 1.254 . S
C28 O27 1.268 . S
C29 O34 1.254 . S
C29 O35 1.268 . S
O30 Dy23 2.351 . S
O30 C38 1.249 . S
O31 Dy20 2.326 . S
O31 C38 1.267 . S
O32 C21 1.185 1_656 S
O32 Dy23 2.398 1_556 S
O33 C21 1.355 . S
O33 Dy23 2.491 1_455 S
O34 Dy23 2.403 1_556 S
O34 C29 1.254 . S
O35 Dy20 2.310 1_556 S
O35 Dy23 2.664 1_556 S
O35 C29 1.268 . S
O36 Dy20 2.351 1_455 S
O36 C39 1.249 . S
O37 Dy23 2.326 1_456 S
O37 C39 1.267 1_556 S
C38 O30 1.249 . S
C38 O31 1.267 . S
C39 O36 1.249 . S
C39 O37 1.267 1_554 S
Dy40 O44 2.398 . S
Dy40 O45 2.491 . S
Dy40 O46 2.403 . S
Dy40 O47 2.664 . S
Dy40 O51 2.326 . S
Dy40 O55 2.310 . S
Dy40 O56 2.351 1_455 S
C41 O52 1.185 1_655 S
C41 O53 1.355 . S
C42 O44 1.185 . S
C42 O45 1.355 . S
Dy43 O47 2.310 . S
Dy43 O50 2.351 . S
Dy43 O52 2.398 . S
Dy43 O53 2.491 1_455 S
Dy43 O54 2.403 . S
Dy43 O55 2.664 . S
Dy43 O57 2.326 1_455 S
O44 Dy40 2.398 . S
O44 C42 1.185 . S
O45 Dy40 2.491 . S
O45 C42 1.355 . S
O46 Dy40 2.403 . S
O46 C48 1.254 . S
O47 Dy40 2.664 . S
O47 Dy43 2.310 . S
O47 C48 1.268 . S
C48 O46 1.254 . S
C48 O47 1.268 . S
C49 O54 1.254 . S
C49 O55 1.268 . S
O50 Dy43 2.351 . S
O50 C58 1.249 . S
O51 Dy40 2.326 . S
O51 C58 1.267 . S
O52 C41 1.185 1_455 S
O52 Dy43 2.398 . S
O53 C41 1.355 . S
O53 Dy43 2.491 1_655 S
O54 Dy43 2.403 . S
O54 C49 1.254 . S
O55 Dy40 2.310 . S
O55 Dy43 2.664 . S
O55 C49 1.268 . S
O56 Dy40 2.351 1_655 S
O56 C59 1.249 . S
O57 Dy43 2.326 1_655 S
O57 C59 1.267 . S
C58 O50 1.249 . S
C58 O51 1.267 . S
C59 O56 1.249 . S
C59 O57 1.267 . S
Dy60 O64 2.398 . S
Dy60 O65 2.491 1_655 S
Dy60 O66 2.403 . S
Dy60 O67 2.664 . S
Dy60 O71 2.326 1_655 S
Dy60 O75 2.310 . S
Dy60 O76 2.351 . S
C61 O72 1.185 . S
C61 O73 1.355 . S
C62 O64 1.185 1_455 S
C62 O65 1.355 . S
Dy63 O67 2.310 . S
Dy63 O70 2.351 1_655 S
Dy63 O72 2.398 . S
Dy63 O73 2.491 . S
Dy63 O74 2.403 . S
Dy63 O75 2.664 . S
Dy63 O77 2.326 . S
O64 Dy60 2.398 . S
O64 C62 1.185 1_655 S
O65 Dy60 2.491 1_455 S
O65 C62 1.355 . S
O66 Dy60 2.403 . S
O66 C68 1.254 . S
O67 Dy60 2.664 . S
O67 Dy63 2.310 . S
O67 C68 1.268 . S
C68 O66 1.254 . S
C68 O67 1.268 . S
C69 O74 1.254 . S
C69 O75 1.268 . S
O70 Dy63 2.351 1_455 S
O70 C78 1.249 . S
O71 Dy60 2.326 1_455 S
O71 C78 1.267 . S
O72 C61 1.185 . S
O72 Dy63 2.398 . S
O73 C61 1.355 . S
O73 Dy63 2.491 . S
O74 Dy63 2.403 . S
O74 C69 1.254 . S
O75 Dy60 2.310 . S
O75 Dy63 2.664 . S
O75 C69 1.268 . S
O76 Dy60 2.351 . S
O76 C79 1.249 . S
O77 Dy63 2.326 . S
O77 C79 1.267 . S
C78 O70 1.249 . S
C78 O71 1.267 . S
C79 O76 1.249 . S
C79 O77 1.267 . S
Dy80 O84 2.398 . S
Dy80 O85 2.491 1_554 S
Dy80 O86 2.403 . S
Dy80 O87 2.664 . S
Dy80 O91 2.326 . S
Dy80 O95 2.310 1_554 S
Dy80 O96 2.351 . S
C81 O92 1.185 1_554 S
C81 O93 1.355 . S
C82 O84 1.185 . S
C82 O85 1.355 1_554 S
Dy83 O87 2.310 . S
Dy83 O90 2.351 . S
Dy83 O92 2.398 1_554 S
Dy83 O93 2.491 . S
Dy83 O94 2.403 1_554 S
Dy83 O95 2.664 1_554 S
Dy83 O97 2.326 1_554 S
O84 Dy80 2.398 . S
O84 C82 1.185 . S
O85 Dy80 2.491 1_556 S
O85 C82 1.355 1_556 S
O86 Dy80 2.403 . S
O86 C88 1.254 . S
O87 Dy80 2.664 . S
O87 Dy83 2.310 . S
O87 C88 1.268 . S
C88 O86 1.254 . S
C88 O87 1.268 . S
C89 O94 1.254 . S
C89 O95 1.268 . S
O90 Dy83 2.351 . S
O90 C98 1.249 . S
O91 Dy80 2.326 . S
O91 C98 1.267 . S
O92 C81 1.185 1_556 S
O92 Dy83 2.398 1_556 S
O93 C81 1.355 . S
O93 Dy83 2.491 . S
O94 Dy83 2.403 1_556 S
O94 C89 1.254 . S
O95 Dy80 2.310 1_556 S
O95 Dy83 2.664 1_556 S
O95 C89 1.268 . S
O96 Dy80 2.351 . S
O96 C99 1.249 . S
O97 Dy83 2.326 1_556 S
O97 C99 1.267 1_556 S
C98 O90 1.249 . S
C98 O91 1.267 . S
C99 O96 1.249 . S
C99 O97 1.267 1_554 S
Dy100 O104 2.398 . S
Dy100 O105 2.491 1_554 S
Dy100 O106 2.403 . S
Dy100 O107 2.664 . S
Dy100 O111 2.326 . S
Dy100 O115 2.310 1_554 S
Dy100 O116 2.351 . S
C101 O112 1.185 1_554 S
C101 O113 1.355 . S
C102 O104 1.185 . S
C102 O105 1.355 1_554 S
Dy103 O107 2.310 . S
Dy103 O110 2.351 . S
Dy103 O112 2.398 1_554 S
Dy103 O113 2.491 . S
Dy103 O114 2.403 1_554 S
Dy103 O115 2.664 1_554 S
Dy103 O117 2.326 1_554 S
O104 Dy100 2.398 . S
O104 C102 1.185 . S
O105 Dy100 2.491 1_556 S
O105 C102 1.355 1_556 S
O106 Dy100 2.403 . S
O106 C108 1.254 . S
O107 Dy100 2.664 . S
O107 Dy103 2.310 . S
O107 C108 1.268 . S
C108 O106 1.254 . S
C108 O107 1.268 . S
C109 O114 1.254 . S
C109 O115 1.268 . S
O110 Dy103 2.351 . S
O110 C118 1.249 . S
O111 Dy100 2.326 . S
O111 C118 1.267 . S
O112 C101 1.185 1_556 S
O112 Dy103 2.398 1_556 S
O113 C101 1.355 . S
O113 Dy103 2.491 . S
O114 Dy103 2.403 1_556 S
O114 C109 1.254 . S
O115 Dy100 2.310 1_556 S
O115 Dy103 2.664 1_556 S
O115 C109 1.268 . S
O116 Dy100 2.351 . S
O116 C119 1.249 . S
O117 Dy103 2.326 1_556 S
O117 C119 1.267 1_556 S
C118 O110 1.249 . S
C118 O111 1.267 . S
C119 O116 1.249 . S
C119 O117 1.267 1_554 S
Dy120 O124 2.398 . S
Dy120 O125 2.491 . S
Dy120 O126 2.403 . S
Dy120 O127 2.664 . S
Dy120 O131 2.326 . S
Dy120 O135 2.310 . S
Dy120 O136 2.351 . S
C121 O132 1.185 . S
C121 O133 1.355 . S
C122 O124 1.185 . S
C122 O125 1.355 . S
Dy123 O127 2.310 . S
Dy123 O130 2.351 . S
Dy123 O132 2.398 . S
Dy123 O133 2.491 . S
Dy123 O134 2.403 . S
Dy123 O135 2.664 . S
Dy123 O137 2.326 . S
O124 Dy120 2.398 . S
O124 C122 1.185 . S
O125 Dy120 2.491 . S
O125 C122 1.355 . S
O126 Dy120 2.403 . S
O126 C128 1.254 . S
O127 Dy120 2.664 . S
O127 Dy123 2.310 . S
O127 C128 1.268 . S
C128 O126 1.254 . S
C128 O127 1.268 . S
C129 O134 1.254 . S
C129 O135 1.268 . S
O130 Dy123 2.351 . S
O130 C138 1.249 . S
O131 Dy120 2.326 . S
O131 C138 1.267 . S
O132 C121 1.185 . S
O132 Dy123 2.398 . S
O133 C121 1.355 . S
O133 Dy123 2.491 . S
O134 Dy123 2.403 . S
O134 C129 1.254 . S
O135 Dy120 2.310 . S
O135 Dy123 2.664 . S
O135 C129 1.268 . S
O136 Dy120 2.351 . S
O136 C139 1.249 . S
O137 Dy123 2.326 . S
O137 C139 1.267 . S
C138 O130 1.249 . S
C138 O131 1.267 . S
C139 O136 1.249 . S
C139 O137 1.267 . S
Dy140 O144 2.398 . S
Dy140 O145 2.491 . S
Dy140 O146 2.403 . S
Dy140 O147 2.664 . S
Dy140 O151 2.326 . S
Dy140 O155 2.310 . S
Dy140 O156 2.351 . S
C141 O152 1.185 . S
C141 O153 1.355 . S
C142 O144 1.185 . S
C142 O145 1.355 . S
Dy143 O147 2.310 . S
Dy143 O150 2.351 . S
Dy143 O152 2.398 . S
Dy143 O153 2.491 . S
Dy143 O154 2.403 . S
Dy143 O155 2.664 . S
Dy143 O157 2.326 . S
O144 Dy140 2.398 . S
O144 C142 1.185 . S
O145 Dy140 2.491 . S
O145 C142 1.355 . S
O146 Dy140 2.403 . S
O146 C148 1.254 . S
O147 Dy140 2.664 . S
O147 Dy143 2.310 . S
O147 C148 1.268 . S
C148 O146 1.254 . S
C148 O147 1.268 . S
C149 O154 1.254 . S
C149 O155 1.268 . S
O150 Dy143 2.351 . S
O150 C158 1.249 . S
O151 Dy140 2.326 . S
O151 C158 1.267 . S
O152 C141 1.185 . S
O152 Dy143 2.398 . S
O153 C141 1.355 . S
O153 Dy143 2.491 . S
O154 Dy143 2.403 . S
O154 C149 1.254 . S
O155 Dy140 2.310 . S
O155 Dy143 2.664 . S
O155 C149 1.268 . S
O156 Dy140 2.351 . S
O156 C159 1.249 . S
O157 Dy143 2.326 . S
O157 C159 1.267 . S
C158 O150 1.249 . S
C158 O151 1.267 . S
C159 O156 1.249 . S
C159 O157 1.267 . S
H160 C166 0.930 . S
H161 C170 0.930 . S
H162 C175 0.929 . S
H163 C173 0.929 . S
H164 C168 0.929 . S
H165 C174 0.929 . S
C166 H160 0.930 . S
C166 C167 1.367 . S
C166 C174 1.378 . S
C167 C166 1.367 . S
C167 C175 1.433 1_554 S
C168 H164 0.929 . S
C168 C170 1.378 . S
C168 C172 1.350 1_556 S
C169 C172 1.463 . S
C169 C174 1.350 . S
C169 N177 1.427 1_554 S
C170 H161 0.930 . S
C170 C168 1.378 . S
C170 C171 1.367 1_556 S
C171 C170 1.367 1_554 S
C171 C173 1.433 . S
C172 C168 1.350 1_554 S
C172 C169 1.463 . S
C172 N176 1.427 . S
C173 H163 0.929 . S
C173 C171 1.433 . S
C173 N176 1.384 . S
C174 H165 0.929 . S
C174 C166 1.378 . S
C174 C169 1.350 . S
C175 H162 0.929 . S
C175 C167 1.433 1_556 S
C175 N177 1.384 . S
N176 C172 1.427 . S
N176 C173 1.384 . S
N177 C169 1.427 1_556 S
N177 C175 1.384 . S
H178 C184 0.930 . S
H179 C188 0.930 . S
H180 C193 0.929 . S
H181 C191 0.929 . S
H182 C186 0.929 . S
H183 C192 0.929 . S
C184 H178 0.930 . S
C184 C185 1.367 . S
C184 C192 1.378 . S
C185 C184 1.367 . S
C185 C193 1.433 1_554 S
C186 H182 0.929 . S
C186 C188 1.378 . S
C186 C190 1.350 1_556 S
C187 C190 1.463 . S
C187 C192 1.350 . S
C187 N195 1.427 1_554 S
C188 H179 0.930 . S
C188 C186 1.378 . S
C188 C189 1.367 1_556 S
C189 C188 1.367 1_554 S
C189 C191 1.433 . S
C190 C186 1.350 1_554 S
C190 C187 1.463 . S
C190 N194 1.427 . S
C191 H181 0.929 . S
C191 C189 1.433 . S
C191 N194 1.384 . S
C192 H183 0.929 . S
C192 C184 1.378 . S
C192 C187 1.350 . S
C193 H180 0.929 . S
C193 C185 1.433 1_556 S
C193 N195 1.384 . S
N194 C190 1.427 . S
N194 C191 1.384 . S
N195 C187 1.427 1_556 S
N195 C193 1.384 . S
H196 C202 0.930 . S
H197 C206 0.930 . S
H198 C211 0.929 . S
H199 C209 0.929 . S
H200 C204 0.929 . S
H201 C210 0.929 . S
C202 H196 0.930 . S
C202 C203 1.367 . S
C202 C210 1.378 . S
C203 C202 1.367 . S
C203 C211 1.433 . S
C204 H200 0.929 . S
C204 C206 1.378 . S
C204 C208 1.350 . S
C205 C208 1.463 . S
C205 C210 1.350 . S
C205 N213 1.427 . S
C206 H197 0.930 . S
C206 C204 1.378 . S
C206 C207 1.367 . S
C207 C206 1.367 . S
C207 C209 1.433 . S
C208 C204 1.350 . S
C208 C205 1.463 . S
C208 N212 1.427 . S
C209 H199 0.929 . S
C209 C207 1.433 . S
C209 N212 1.384 . S
C210 H201 0.929 . S
C210 C202 1.378 . S
C210 C205 1.350 . S
C211 H198 0.929 . S
C211 C203 1.433 . S
C211 N213 1.384 . S
N212 C208 1.427 . S
N212 C209 1.384 . S
N213 C205 1.427 . S
N213 C211 1.384 . S
H214 C220 0.930 . S
H215 C224 0.930 . S
H216 C229 0.929 . S
H217 C227 0.929 . S
H218 C222 0.929 . S
H219 C228 0.929 . S
C220 H214 0.930 . S
C220 C221 1.367 . S
C220 C228 1.378 . S
C221 C220 1.367 . S
C221 C229 1.433 . S
C222 H218 0.929 . S
C222 C224 1.378 . S
C222 C226 1.350 . S
C223 C226 1.463 . S
C223 C228 1.350 . S
C223 N231 1.427 . S
C224 H215 0.930 . S
C224 C222 1.378 . S
C224 C225 1.367 . S
C225 C224 1.367 . S
C225 C227 1.433 . S
C226 C222 1.350 . S
C226 C223 1.463 . S
C226 N230 1.427 . S
C227 H217 0.929 . S
C227 C225 1.433 . S
C227 N230 1.384 . S
C228 H219 0.929 . S
C228 C220 1.378 . S
C228 C223 1.350 . S
C229 H216 0.929 . S
C229 C221 1.433 . S
C229 N231 1.384 . S
N230 C226 1.427 . S
N230 C227 1.384 . S
N231 C223 1.427 . S
N231 C229 1.384 . S
H232 C238 0.930 . S
H233 C242 0.930 . S
H234 C247 0.929 . S
H235 C245 0.929 . S
H236 C240 0.929 . S
H237 C246 0.929 1_455 S
C238 H232 0.930 . S
C238 C239 1.367 1_556 S
C238 C246 1.378 . S
C239 C238 1.367 1_554 S
C239 C247 1.433 . S
C240 H236 0.929 . S
C240 C242 1.378 . S
C240 C244 1.350 . S
C241 C244 1.463 . S
C241 C246 1.350 1_454 S
C241 N249 1.427 1_455 S
C242 H233 0.930 . S
C242 C240 1.378 . S
C242 C243 1.367 . S
C243 C242 1.367 . S
C243 C245 1.433 1_554 S
C244 C240 1.350 . S
C244 C241 1.463 . S
C244 N248 1.427 1_554 S
C245 H235 0.929 . S
C245 C243 1.433 1_556 S
C245 N248 1.384 . S
C246 H237 0.929 1_655 S
C246 C238 1.378 . S
C246 C241 1.350 1_656 S
C247 H234 0.929 . S
C247 C239 1.433 . S
C247 N249 1.384 . S
N248 C244 1.427 1_556 S
N248 C245 1.384 . S
N249 C241 1.427 1_655 S
N249 C247 1.384 . S
H250 C256 0.930 . S
H251 C260 0.930 . S
H252 C265 0.929 . S
H253 C263 0.929 . S
H254 C258 0.929 . S
H255 C264 0.929 . S
C256 H250 0.930 . S
C256 C257 1.367 1_556 S
C256 C264 1.378 . S
C257 C256 1.367 1_554 S
C257 C265 1.433 . S
C258 H254 0.929 . S
C258 C260 1.378 . S
C258 C262 1.350 . S
C259 C262 1.463 . S
C259 C264 1.350 1_654 S
C259 N267 1.427 1_655 S
C260 H251 0.930 . S
C260 C258 1.378 . S
C260 C261 1.367 . S
C261 C260 1.367 . S
C261 C263 1.433 1_554 S
C262 C258 1.350 . S
C262 C259 1.463 . S
C262 N266 1.427 1_554 S
C263 H253 0.929 . S
C263 C261 1.433 1_556 S
C263 N266 1.384 . S
C264 H255 0.929 . S
C264 C256 1.378 . S
C264 C259 1.350 1_456 S
C265 H252 0.929 . S
C265 C257 1.433 . S
C265 N267 1.384 . S
N266 C262 1.427 1_556 S
N266 C263 1.384 . S
N267 C259 1.427 1_455 S
N267 C265 1.384 . S
H268 C274 0.930 . S
H269 C278 0.930 . S
H270 C283 0.929 . S
H271 C281 0.929 . S
H272 C276 0.929 1_455 S
H273 C282 0.929 . S
C274 H268 0.930 . S
C274 C275 1.367 . S
C274 C282 1.378 . S
C275 C274 1.367 . S
C275 C283 1.433 . S
C276 H272 0.929 1_655 S
C276 C278 1.378 . S
C276 C280 1.350 1_655 S
C277 C280 1.463 . S
C277 C282 1.350 . S
C277 N285 1.427 . S
C278 H269 0.930 . S
C278 C276 1.378 . S
C278 C279 1.367 . S
C279 C278 1.367 . S
C279 C281 1.433 . S
C280 C276 1.350 1_455 S
C280 C277 1.463 . S
C280 N284 1.427 1_455 S
C281 H271 0.929 . S
C281 C279 1.433 . S
C281 N284 1.384 . S
C282 H273 0.929 . S
C282 C274 1.378 . S
C282 C277 1.350 . S
C283 H270 0.929 . S
C283 C275 1.433 . S
C283 N285 1.384 . S
N284 C280 1.427 1_655 S
N284 C281 1.384 . S
N285 C277 1.427 . S
N285 C283 1.384 . S
H286 C292 0.930 . S
H287 C296 0.930 . S
H288 C301 0.929 . S
H289 C299 0.929 . S
H290 C294 0.929 . S
H291 C300 0.929 . S
C292 H286 0.930 . S
C292 C293 1.367 . S
C292 C300 1.378 . S
C293 C292 1.367 . S
C293 C301 1.433 . S
C294 H290 0.929 . S
C294 C296 1.378 . S
C294 C298 1.350 1_455 S
C295 C298 1.463 . S
C295 C300 1.350 . S
C295 N303 1.427 . S
C296 H287 0.930 . S
C296 C294 1.378 . S
C296 C297 1.367 . S
C297 C296 1.367 . S
C297 C299 1.433 . S
C298 C294 1.350 1_655 S
C298 C295 1.463 . S
C298 N302 1.427 1_655 S
C299 H289 0.929 . S
C299 C297 1.433 . S
C299 N302 1.384 . S
C300 H291 0.929 . S
C300 C292 1.378 . S
C300 C295 1.350 . S
C301 H288 0.929 . S
C301 C293 1.433 . S
C301 N303 1.384 . S
N302 C298 1.427 1_455 S
N302 C299 1.384 . S
N303 C295 1.427 . S
N303 C301 1.384 . S
H304 C310 0.930 1_655 S
H305 C314 0.930 1_455 S
H306 C319 0.929 . S
H307 C317 0.929 . S
H308 C312 0.929 . S
H309 C318 0.929 . S
C310 H304 0.930 1_455 S
C310 C311 1.367 . S
C310 C318 1.378 1_455 S
C311 C310 1.367 . S
C311 C319 1.433 1_554 S
C312 H308 0.929 . S
C312 C314 1.378 1_455 S
C312 C316 1.350 1_456 S
C313 C316 1.463 1_455 S
C313 C318 1.350 1_455 S
C313 N321 1.427 1_554 S
C314 H305 0.930 1_655 S
C314 C312 1.378 1_655 S
C314 C315 1.367 1_556 S
C315 C314 1.367 1_554 S
C315 C317 1.433 . S
C316 C312 1.350 1_654 S
C316 C313 1.463 1_655 S
C316 N320 1.427 . S
C317 H307 0.929 . S
C317 C315 1.433 . S
C317 N320 1.384 . S
C318 H309 0.929 . S
C318 C310 1.378 1_655 S
C318 C313 1.350 1_655 S
C319 H306 0.929 . S
C319 C311 1.433 1_556 S
C319 N321 1.384 . S
N320 C316 1.427 . S
N320 C317 1.384 . S
N321 C313 1.427 1_556 S
N321 C319 1.384 . S
H322 C328 0.930 . S
H323 C332 0.930 . S
H324 C337 0.929 . S
H325 C335 0.929 . S
H326 C330 0.929 . S
H327 C336 0.929 . S
C328 H322 0.930 . S
C328 C329 1.367 . S
C328 C336 1.378 . S
C329 C328 1.367 . S
C329 C337 1.433 1_455 S
C330 H326 0.929 . S
C330 C332 1.378 . S
C330 C334 1.350 . S
C331 C334 1.463 1_455 S
C331 C336 1.350 . S
C331 N339 1.427 1_455 S
C332 H323 0.930 . S
C332 C330 1.378 . S
C332 C333 1.367 . S
C333 C332 1.367 . S
C333 C335 1.433 1_655 S
C334 C330 1.350 . S
C334 C331 1.463 1_655 S
C334 N338 1.427 1_655 S
C335 H325 0.929 . S
C335 C333 1.433 1_455 S
C335 N338 1.384 . S
C336 H327 0.929 . S
C336 C328 1.378 . S
C336 C331 1.350 . S
C337 H324 0.929 . S
C337 C329 1.433 1_655 S
C337 N339 1.384 . S
N338 C334 1.427 1_455 S
N338 C335 1.384 . S
N339 C331 1.427 1_655 S
N339 C337 1.384 . S
H340 C346 0.930 . S
H341 C350 0.930 . S
H342 C355 0.929 . S
H343 C353 0.929 . S
H344 C348 0.929 . S
H345 C354 0.929 . S
C346 H340 0.930 . S
C346 C347 1.367 . S
C346 C354 1.378 . S
C347 C346 1.367 . S
C347 C355 1.433 1_554 S
C348 H344 0.929 . S
C348 C350 1.378 . S
C348 C352 1.350 1_556 S
C349 C352 1.463 1_565 S
C349 C354 1.350 . S
C349 N357 1.427 1_554 S
C350 H341 0.930 . S
C350 C348 1.378 . S
C350 C351 1.367 1_556 S
C351 C350 1.367 1_554 S
C351 C353 1.433 . S
C352 C348 1.350 1_554 S
C352 C349 1.463 1_545 S
C352 N356 1.427 . S
C353 H343 0.929 . S
C353 C351 1.433 . S
C353 N356 1.384 . S
C354 H345 0.929 . S
C354 C346 1.378 . S
C354 C349 1.350 . S
C355 H342 0.929 . S
C355 C347 1.433 1_556 S
C355 N357 1.384 . S
N356 C352 1.427 . S
N356 C353 1.384 . S
N357 C349 1.427 1_556 S
N357 C355 1.384 . S
H358 C364 0.930 . S
H359 C368 0.930 . S
H360 C373 0.929 . S
H361 C371 0.929 . S
H362 C366 0.929 . S
H363 C372 0.929 . S
C364 H358 0.930 . S
C364 C365 1.367 . S
C364 C372 1.378 . S
C365 C364 1.367 . S
C365 C373 1.433 . S
C366 H362 0.929 . S
C366 C368 1.378 . S
C366 C370 1.350 . S
C367 C370 1.463 1_545 S
C367 C372 1.350 . S
C367 N375 1.427 . S
C368 H359 0.930 . S
C368 C366 1.378 . S
C368 C369 1.367 . S
C369 C368 1.367 . S
C369 C371 1.433 . S
C370 C366 1.350 . S
C370 C367 1.463 1_565 S
C370 N374 1.427 . S
C371 H361 0.929 . S
C371 C369 1.433 . S
C371 N374 1.384 . S
C372 H363 0.929 . S
C372 C364 1.378 . S
C372 C367 1.350 . S
C373 H360 0.929 . S
C373 C365 1.433 . S
C373 N375 1.384 . S
N374 C370 1.427 . S
N374 C371 1.384 . S
N375 C367 1.427 . S
N375 C373 1.384 . S
H376 C382 0.930 . S
H377 C386 0.930 . S
H378 C391 0.929 . S
H379 C389 0.929 . S
H380 C384 0.929 . S
H381 C390 0.929 . S
C382 H376 0.930 . S
C382 C383 1.367 1_556 S
C382 C390 1.378 . S
C383 C382 1.367 1_554 S
C383 C391 1.433 . S
C384 H380 0.929 . S
C384 C386 1.378 . S
C384 C388 1.350 . S
C385 C388 1.463 . S
C385 C390 1.350 1_554 S
C385 N393 1.427 . S
C386 H377 0.930 . S
C386 C384 1.378 . S
C386 C387 1.367 . S
C387 C386 1.367 . S
C387 C389 1.433 1_554 S
C388 C384 1.350 . S
C388 C385 1.463 . S
C388 N392 1.427 1_554 S
C389 H379 0.929 . S
C389 C387 1.433 1_556 S
C389 N392 1.384 . S
C390 H381 0.929 . S
C390 C382 1.378 . S
C390 C385 1.350 1_556 S
C391 H378 0.929 . S
C391 C383 1.433 . S
C391 N393 1.384 . S
N392 C388 1.427 1_556 S
N392 C389 1.384 . S
N393 C385 1.427 . S
N393 C391 1.384 . S
H394 C400 0.930 . S
H395 C404 0.930 . S
H396 C409 0.929 . S
H397 C407 0.929 . S
H398 C402 0.929 . S
H399 C408 0.929 . S
C400 H394 0.930 . S
C400 C401 1.367 1_556 S
C400 C408 1.378 . S
C401 C400 1.367 1_554 S
C401 C409 1.433 . S
C402 H398 0.929 . S
C402 C404 1.378 . S
C402 C406 1.350 . S
C403 C406 1.463 . S
C403 C408 1.350 1_554 S
C403 N411 1.427 . S
C404 H395 0.930 . S
C404 C402 1.378 . S
C404 C405 1.367 . S
C405 C404 1.367 . S
C405 C407 1.433 1_554 S
C406 C402 1.350 . S
C406 C403 1.463 . S
C406 N410 1.427 1_554 S
C407 H397 0.929 . S
C407 C405 1.433 1_556 S
C407 N410 1.384 . S
C408 H399 0.929 . S
C408 C400 1.378 . S
C408 C403 1.350 1_556 S
C409 H396 0.929 . S
C409 C401 1.433 . S
C409 N411 1.384 . S
N410 C406 1.427 1_556 S
N410 C407 1.384 . S
N411 C403 1.427 . S
N411 C409 1.384 . S
H412 C418 0.930 . S
H413 C422 0.930 . S
H414 C427 0.929 . S
H415 C425 0.929 . S
H416 C420 0.929 . S
H417 C426 0.929 . S
C418 H412 0.930 . S
C418 C419 1.367 . S
C418 C426 1.378 . S
C419 C418 1.367 . S
C419 C427 1.433 . S
C420 H416 0.929 . S
C420 C422 1.378 . S
C420 C424 1.350 . S
C421 C424 1.463 . S
C421 C426 1.350 . S
C421 N429 1.427 . S
C422 H413 0.930 . S
C422 C420 1.378 . S
C422 C423 1.367 . S
C423 C422 1.367 . S
C423 C425 1.433 . S
C424 C420 1.350 . S
C424 C421 1.463 . S
C424 N428 1.427 . S
C425 H415 0.929 . S
C425 C423 1.433 . S
C425 N428 1.384 . S
C426 H417 0.929 . S
C426 C418 1.378 . S
C426 C421 1.350 . S
C427 H414 0.929 . S
C427 C419 1.433 . S
C427 N429 1.384 . S
N428 C424 1.427 . S
N428 C425 1.384 . S
N429 C421 1.427 . S
N429 C427 1.384 . S
H430 C436 0.930 . S
H431 C440 0.930 . S
H432 C445 0.929 . S
H433 C443 0.929 . S
H434 C438 0.929 . S
H435 C444 0.929 . S
C436 H430 0.930 . S
C436 C437 1.367 . S
C436 C444 1.378 . S
C437 C436 1.367 . S
C437 C445 1.433 . S
C438 H434 0.929 . S
C438 C440 1.378 . S
C438 C442 1.350 . S
C439 C442 1.463 . S
C439 C444 1.350 . S
C439 N447 1.427 . S
C440 H431 0.930 . S
C440 C438 1.378 . S
C440 C441 1.367 . S
C441 C440 1.367 . S
C441 C443 1.433 . S
C442 C438 1.350 . S
C442 C439 1.463 . S
C442 N446 1.427 . S
C443 H433 0.929 . S
C443 C441 1.433 . S
C443 N446 1.384 . S
C444 H435 0.929 . S
C444 C436 1.378 . S
C444 C439 1.350 . S
C445 H432 0.929 . S
C445 C437 1.433 . S
C445 N447 1.384 . S
N446 C442 1.427 . S
N446 C443 1.384 . S
N447 C439 1.427 . S
N447 C445 1.384 . S
H448 C454 0.930 . S
H449 C458 0.930 . S
H450 C463 0.929 . S
H451 C461 0.929 . S
H452 C456 0.929 . S
H453 C462 0.929 . S
C454 H448 0.930 . S
C454 C455 1.367 . S
C454 C462 1.378 . S
C455 C454 1.367 . S
C455 C463 1.433 1_455 S
C456 H452 0.929 . S
C456 C458 1.378 . S
C456 C460 1.350 . S
C457 C460 1.463 1_455 S
C457 C462 1.350 . S
C457 N465 1.427 1_455 S
C458 H449 0.930 . S
C458 C456 1.378 . S
C458 C459 1.367 . S
C459 C458 1.367 . S
C459 C461 1.433 1_655 S
C460 C456 1.350 . S
C460 C457 1.463 1_655 S
C460 N464 1.427 1_655 S
C461 H451 0.929 . S
C461 C459 1.433 1_455 S
C461 N464 1.384 . S
C462 H453 0.929 . S
C462 C454 1.378 . S
C462 C457 1.350 . S
C463 H450 0.929 . S
C463 C455 1.433 1_655 S
C463 N465 1.384 . S
N464 C460 1.427 1_455 S
N464 C461 1.384 . S
N465 C457 1.427 1_655 S
N465 C463 1.384 . S
H466 C472 0.930 . S
H467 C476 0.930 . S
H468 C481 0.929 . S
H469 C479 0.929 . S
H470 C474 0.929 1_655 S
H471 C480 0.929 1_455 S
C472 H466 0.930 . S
C472 C473 1.367 . S
C472 C480 1.378 . S
C473 C472 1.367 . S
C473 C481 1.433 . S
C474 H470 0.929 1_455 S
C474 C476 1.378 . S
C474 C478 1.350 . S
C475 C478 1.463 1_655 S
C475 C480 1.350 . S
C475 N483 1.427 . S
C476 H467 0.930 . S
C476 C474 1.378 . S
C476 C477 1.367 . S
C477 C476 1.367 . S
C477 C479 1.433 . S
C478 C474 1.350 . S
C478 C475 1.463 1_455 S
C478 N482 1.427 . S
C479 H469 0.929 . S
C479 C477 1.433 . S
C479 N482 1.384 . S
C480 H471 0.929 1_655 S
C480 C472 1.378 . S
C480 C475 1.350 . S
C481 H468 0.929 . S
C481 C473 1.433 . S
C481 N483 1.384 . S
N482 C478 1.427 . S
N482 C479 1.384 . S
N483 C475 1.427 . S
N483 C481 1.384 . S
H484 C490 0.930 . S
H485 C494 0.930 . S
H486 C499 0.929 . S
H487 C497 0.929 . S
H488 C492 0.929 . S
H489 C498 0.929 . S
C490 H484 0.930 . S
C490 C491 1.367 1_455 S
C490 C498 1.378 . S
C491 C490 1.367 1_655 S
C491 C499 1.433 . S
C492 H488 0.929 . S
C492 C494 1.378 . S
C492 C496 1.350 1_655 S
C493 C496 1.463 1_655 S
C493 C498 1.350 1_655 S
C493 N501 1.427 . S
C494 H485 0.930 . S
C494 C492 1.378 . S
C494 C495 1.367 1_655 S
C495 C494 1.367 1_455 S
C495 C497 1.433 . S
C496 C492 1.350 1_455 S
C496 C493 1.463 1_455 S
C496 N500 1.427 . S
C497 H487 0.929 . S
C497 C495 1.433 . S
C497 N500 1.384 . S
C498 H489 0.929 . S
C498 C490 1.378 . S
C498 C493 1.350 1_455 S
C499 H486 0.929 . S
C499 C491 1.433 . S
C499 N501 1.384 . S
N500 C496 1.427 . S
N500 C497 1.384 . S
N501 C493 1.427 . S
N501 C499 1.384 . S
H502 C508 0.930 . S
H503 C512 0.930 . S
H504 C517 0.929 . S
H505 C515 0.929 . S
H506 C510 0.929 . S
H507 C516 0.929 . S
C508 H502 0.930 . S
C508 C509 1.367 . S
C508 C516 1.378 . S
C509 C508 1.367 . S
C509 C517 1.433 1_655 S
C510 H506 0.929 . S
C510 C512 1.378 . S
C510 C514 1.350 . S
C511 C514 1.463 1_655 S
C511 C516 1.350 . S
C511 N519 1.427 1_655 S
C512 H503 0.930 . S
C512 C510 1.378 . S
C512 C513 1.367 . S
C513 C512 1.367 . S
C513 C515 1.433 1_455 S
C514 C510 1.350 . S
C514 C511 1.463 1_455 S
C514 N518 1.427 1_455 S
C515 H505 0.929 . S
C515 C513 1.433 1_655 S
C515 N518 1.384 . S
C516 H507 0.929 . S
C516 C508 1.378 . S
C516 C511 1.350 . S
C517 H504 0.929 . S
C517 C509 1.433 1_455 S
C517 N519 1.384 . S
N518 C514 1.427 1_655 S
N518 C515 1.384 . S
N519 C511 1.427 1_455 S
N519 C517 1.384 . S
H520 C526 0.930 . S
H521 C530 0.930 . S
H522 C535 0.929 . S
H523 C533 0.929 . S
H524 C528 0.929 . S
H525 C534 0.929 . S
C526 H520 0.930 . S
C526 C527 1.367 . S
C526 C534 1.378 . S
C527 C526 1.367 . S
C527 C535 1.433 . S
C528 H524 0.929 . S
C528 C530 1.378 . S
C528 C532 1.350 . S
C529 C532 1.463 . S
C529 C534 1.350 . S
C529 N537 1.427 . S
C530 H521 0.930 . S
C530 C528 1.378 . S
C530 C531 1.367 . S
C531 C530 1.367 . S
C531 C533 1.433 . S
C532 C528 1.350 . S
C532 C529 1.463 . S
C532 N536 1.427 . S
C533 H523 0.929 . S
C533 C531 1.433 . S
C533 N536 1.384 . S
C534 H525 0.929 . S
C534 C526 1.378 . S
C534 C529 1.350 . S
C535 H522 0.929 . S
C535 C527 1.433 . S
C535 N537 1.384 . S
N536 C532 1.427 . S
N536 C533 1.384 . S
N537 C529 1.427 . S
N537 C535 1.384 . S
H538 C544 0.930 . S
H539 C548 0.930 . S
H540 C553 0.929 . S
H541 C551 0.929 . S
H542 C546 0.929 . S
H543 C552 0.929 . S
C544 H538 0.930 . S
C544 C545 1.367 . S
C544 C552 1.378 . S
C545 C544 1.367 . S
C545 C553 1.433 . S
C546 H542 0.929 . S
C546 C548 1.378 . S
C546 C550 1.350 . S
C547 C550 1.463 . S
C547 C552 1.350 . S
C547 N555 1.427 . S
C548 H539 0.930 . S
C548 C546 1.378 . S
C548 C549 1.367 . S
C549 C548 1.367 . S
C549 C551 1.433 . S
C550 C546 1.350 . S
C550 C547 1.463 . S
C550 N554 1.427 . S
C551 H541 0.929 . S
C551 C549 1.433 . S
C551 N554 1.384 . S
C552 H543 0.929 . S
C552 C544 1.378 . S
C552 C547 1.350 . S
C553 H540 0.929 . S
C553 C545 1.433 . S
C553 N555 1.384 . S
N554 C550 1.427 . S
N554 C551 1.384 . S
N555 C547 1.427 . S
N555 C553 1.384 . S
H556 C562 0.930 . S
H557 C566 0.930 . S
H558 C571 0.929 . S
H559 C569 0.929 . S
H560 C564 0.929 . S
H561 C570 0.929 . S
C562 H556 0.930 . S
C562 C563 1.367 . S
C562 C570 1.378 . S
C563 C562 1.367 . S
C563 C571 1.433 . S
C564 H560 0.929 . S
C564 C566 1.378 . S
C564 C568 1.350 . S
C565 C568 1.463 . S
C565 C570 1.350 . S
C565 N573 1.427 . S
C566 H557 0.930 . S
C566 C564 1.378 . S
C566 C567 1.367 . S
C567 C566 1.367 . S
C567 C569 1.433 . S
C568 C564 1.350 . S
C568 C565 1.463 . S
C568 N572 1.427 . S
C569 H559 0.929 . S
C569 C567 1.433 . S
C569 N572 1.384 . S
C570 H561 0.929 . S
C570 C562 1.378 . S
C570 C565 1.350 . S
C571 H558 0.929 . S
C571 C563 1.433 . S
C571 N573 1.384 . S
N572 C568 1.427 . S
N572 C569 1.384 . S
N573 C565 1.427 . S
N573 C571 1.384 . S
H574 C580 0.930 . S
H575 C584 0.930 . S
H576 C589 0.929 . S
H577 C587 0.929 . S
H578 C582 0.929 . S
H579 C588 0.929 . S
C580 H574 0.930 . S
C580 C581 1.367 . S
C580 C588 1.378 . S
C581 C580 1.367 . S
C581 C589 1.433 . S
C582 H578 0.929 . S
C582 C584 1.378 . S
C582 C586 1.350 . S
C583 C586 1.463 . S
C583 C588 1.350 . S
C583 N591 1.427 . S
C584 H575 0.930 . S
C584 C582 1.378 . S
C584 C585 1.367 . S
C585 C584 1.367 . S
C585 C587 1.433 . S
C586 C582 1.350 . S
C586 C583 1.463 . S
C586 N590 1.427 . S
C587 H577 0.929 . S
C587 C585 1.433 . S
C587 N590 1.384 . S
C588 H579 0.929 . S
C588 C580 1.378 . S
C588 C583 1.350 . S
C589 H576 0.929 . S
C589 C581 1.433 . S
C589 N591 1.384 . S
N590 C586 1.427 . S
N590 C587 1.384 . S
N591 C583 1.427 . S
N591 C589 1.384 . S
C167 C19 1.804 . S
C171 C18 1.804 . S
C185 C39 1.800 . S
C189 C38 1.800 . S
C203 C59 1.802 . S
C207 C58 1.802 . S
C221 C79 1.796 . S
C225 C78 1.796 . S
C239 C99 1.796 . S
C243 C98 1.796 . S
C257 C118 1.801 . S
C261 C119 1.801 . S
C275 C139 1.804 . S
C279 C138 1.804 . S
C293 C158 1.796 . S
C297 C159 1.796 . S
C311 C21 1.757 . S
C315 C2 1.757 . S
C329 C62 1.767 . S
C333 C41 1.767 . S
C347 C82 1.753 . S
C351 C101 1.753 . S
C365 C121 1.764 . S
C369 C142 1.764 . S
C383 C1 1.523 . S
C387 C102 1.523 . S
C401 C81 1.524 . S
C405 C22 1.524 . S
C419 C42 1.521 . S
C423 C141 1.521 . S
C437 C61 1.515 . S
C441 C122 1.515 . S
C455 C8 1.494 . S
C459 C68 1.493 . S
C473 C28 1.569 . S
C477 C48 1.556 . S
C491 C29 1.497 . S
C495 C49 1.487 . S
C509 C69 1.572 . S
C513 C9 1.562 . S
C527 C88 1.492 . S
C531 C148 1.495 . S
C545 C108 1.565 . S
C549 C128 1.570 . S
C563 C109 1.490 . S
C567 C129 1.497 . S
C581 C149 1.557 . S
C585 C89 1.569 . S
