# Generated by pormake.
# Topology wkj, (6)-cn, num edge types: 1
# Building blocks:
#     Node 0, Type 0, BuildingBlock: UKALOJ_clean_sbu_0, # of connection points: 6
#     Node 1, Type 0, BuildingBlock: UKALOJ_clean_sbu_0, # of connection points: 6
#     Node 2, Type 0, BuildingBlock: UKALOJ_clean_sbu_0, # of connection points: 6
#     Node 3, Type 0, BuildingBlock: UKALOJ_clean_sbu_0, # of connection points: 6
#     Node 4, Type 0, BuildingBlock: UKALOJ_clean_sbu_0, # of connection points: 6
#     Node 5, Type 0, BuildingBlock: UKALOJ_clean_sbu_0, # of connection points: 6
#     Node 6, Type 0, BuildingBlock: UKALOJ_clean_sbu_0, # of connection points: 6
#     Node 7, Type 0, BuildingBlock: UKALOJ_clean_sbu_0, # of connection points: 6
#     Node 8, Type 0, BuildingBlock: UKALOJ_clean_sbu_0, # of connection points: 6
#     Node 9, Type 0, BuildingBlock: UKALOJ_clean_sbu_0, # of connection points: 6
#     Node 10, Type 0, BuildingBlock: UKALOJ_clean_sbu_0, # of connection points: 6
#     Node 11, Type 0, BuildingBlock: UKALOJ_clean_sbu_0, # of connection points: 6
#     Edge 12, Type (0, 0), BuildingBlock: ZUJKAS_clean_linker_0, # of connection points: 2
#     Edge 13, Type (0, 0), BuildingBlock: ZUJKAS_clean_linker_0, # of connection points: 2
#     Edge 14, Type (0, 0), BuildingBlock: ZUJKAS_clean_linker_0, # of connection points: 2
#     Edge 15, Type (0, 0), BuildingBlock: ZUJKAS_clean_linker_0, # of connection points: 2
#     Edge 16, Type (0, 0), BuildingBlock: ZUJKAS_clean_linker_0, # of connection points: 2
#     Edge 17, Type (0, 0), BuildingBlock: ZUJKAS_clean_linker_0, # of connection points: 2
#     Edge 18, Type (0, 0), BuildingBlock: ZUJKAS_clean_linker_0, # of connection points: 2
#     Edge 19, Type (0, 0), BuildingBlock: ZUJKAS_clean_linker_0, # of connection points: 2
#     Edge 20, Type (0, 0), BuildingBlock: ZUJKAS_clean_linker_0, # of connection points: 2
#     Edge 21, Type (0, 0), BuildingBlock: ZUJKAS_clean_linker_0, # of connection points: 2
#     Edge 22, Type (0, 0), BuildingBlock: ZUJKAS_clean_linker_0, # of connection points: 2
#     Edge 23, Type (0, 0), BuildingBlock: ZUJKAS_clean_linker_0, # of connection points: 2
#     Edge 24, Type (0, 0), BuildingBlock: ZUJKAS_clean_linker_0, # of connection points: 2
#     Edge 25, Type (0, 0), BuildingBlock: ZUJKAS_clean_linker_0, # of connection points: 2
#     Edge 26, Type (0, 0), BuildingBlock: ZUJKAS_clean_linker_0, # of connection points: 2
#     Edge 27, Type (0, 0), BuildingBlock: ZUJKAS_clean_linker_0, # of connection points: 2
#     Edge 28, Type (0, 0), BuildingBlock: ZUJKAS_clean_linker_0, # of connection points: 2
#     Edge 29, Type (0, 0), BuildingBlock: ZUJKAS_clean_linker_0, # of connection points: 2
#     Edge 30, Type (0, 0), BuildingBlock: ZUJKAS_clean_linker_0, # of connection points: 2
#     Edge 31, Type (0, 0), BuildingBlock: ZUJKAS_clean_linker_0, # of connection points: 2
#     Edge 32, Type (0, 0), BuildingBlock: ZUJKAS_clean_linker_0, # of connection points: 2
#     Edge 33, Type (0, 0), BuildingBlock: ZUJKAS_clean_linker_0, # of connection points: 2
#     Edge 34, Type (0, 0), BuildingBlock: ZUJKAS_clean_linker_0, # of connection points: 2
#     Edge 35, Type (0, 0), BuildingBlock: ZUJKAS_clean_linker_0, # of connection points: 2
#     Edge 36, Type (0, 0), BuildingBlock: ZUJKAS_clean_linker_0, # of connection points: 2
#     Edge 37, Type (0, 0), BuildingBlock: ZUJKAS_clean_linker_0, # of connection points: 2
#     Edge 38, Type (0, 0), BuildingBlock: ZUJKAS_clean_linker_0, # of connection points: 2
#     Edge 39, Type (0, 0), BuildingBlock: ZUJKAS_clean_linker_0, # of connection points: 2
#     Edge 40, Type (0, 0), BuildingBlock: ZUJKAS_clean_linker_0, # of connection points: 2
#     Edge 41, Type (0, 0), BuildingBlock: ZUJKAS_clean_linker_0, # of connection points: 2
#     Edge 42, Type (0, 0), BuildingBlock: ZUJKAS_clean_linker_0, # of connection points: 2
#     Edge 43, Type (0, 0), BuildingBlock: ZUJKAS_clean_linker_0, # of connection points: 2
#     Edge 44, Type (0, 0), BuildingBlock: ZUJKAS_clean_linker_0, # of connection points: 2
#     Edge 45, Type (0, 0), BuildingBlock: ZUJKAS_clean_linker_0, # of connection points: 2
#     Edge 46, Type (0, 0), BuildingBlock: ZUJKAS_clean_linker_0, # of connection points: 2
#     Edge 47, Type (0, 0), BuildingBlock: ZUJKAS_clean_linker_0, # of connection points: 2
# Relax obj value: 0.801
# Max RMSD: 0.238
# Mean RMSD: 0.238
data_MOF--net-wkj--node1-UKALOJ_clean_sbu_0--edge1-ZUJKAS_clean_linker_0
_symmetry_space_group_name_H-M    P1
_symmetry_Int_Tables_number       1
_symmetry_cell_setting            triclinic
loop_
_symmetry_equiv_pos_as_xyz
'x, y, z'
_cell_length_a     79.460435
_cell_length_b     79.475156
_cell_length_c     29.192366
_cell_angle_alpha  89.987124
_cell_angle_beta   89.976534
_cell_angle_gamma 119.97732
loop_
_atom_site_label
_atom_site_type_symbol
_atom_site_fract_x
_atom_site_fract_y
_atom_site_fract_z
_atom_type_partial_charge
Zn0 Zn 0.47555 0.07372 0.26139 0.0
O1 O 0.45357 0.05916 0.30793 0.0
C2 C 0.50025 0.10349 0.33262 0.0
Zn3 Zn 0.4716 0.09958 0.26147 0.0
C4 C 0.44402 0.06662 0.32417 0.0
O5 O 0.4483 0.08372 0.31175 0.0
C6 C 0.50337 0.10513 0.19804 0.0
O7 O 0.45078 0.08516 0.20536 0.0
O8 O 0.45563 0.06019 0.20966 0.0
N9 N 0.46647 0.12265 0.26371 0.0
C10 C 0.46594 0.13496 0.23248 0.0
C11 C 0.46383 0.1452 0.29847 0.0
N12 N 0.465 0.12903 0.30456 0.0
N13 N 0.46438 0.14933 0.25355 0.0
C14 C 0.48904 0.048 0.30103 0.0
C15 C 0.50578 0.04721 0.24559 0.0
N16 N 0.48234 0.05216 0.26288 0.0
N17 N 0.49234 0.05098 0.22809 0.0
N18 N 0.50435 0.04568 0.29165 0.0
H19 H 0.47951 0.05836 0.35897 0.0
H20 H 0.46494 0.03324 0.34654 0.0
H21 H 0.48823 0.04201 0.37375 0.0
C22 C 0.48016 0.04543 0.34784 0.0
C23 C 0.46804 0.13349 0.18188 0.0
H24 H 0.47207 0.12239 0.17353 0.0
H25 H 0.45397 0.12922 0.16497 0.0
H26 H 0.47905 0.14783 0.16797 0.0
O27 O 0.49508 0.11442 0.2117 0.0
O28 O 0.49764 0.08825 0.21367 0.0
C29 C 0.44696 0.06831 0.19172 0.0
O30 O 0.49571 0.08745 0.3138 0.0
O31 O 0.49247 0.11307 0.31777 0.0
Zn32 Zn 0.38001 0.46675 0.59143 0.0
O33 O 0.37116 0.44656 0.53358 0.0
C34 C 0.40612 0.50015 0.52978 0.0
Zn35 Zn 0.41023 0.47058 0.58484 0.0
C36 C 0.38404 0.44419 0.51315 0.0
O37 O 0.40137 0.45282 0.52772 0.0
C38 C 0.40757 0.4939 0.66255 0.0
O39 O 0.40098 0.44639 0.62792 0.0
O40 O 0.37211 0.44301 0.63855 0.0
N41 N 0.43996 0.47419 0.57774 0.0
C42 C 0.44176 0.4572 0.57813 0.0
C43 C 0.4448 0.48525 0.58485 0.0
N44 N 0.44592 0.48489 0.53904 0.0
N45 N 0.44168 0.46996 0.60765 0.0
C46 C 0.34042 0.46515 0.56842 0.0
C47 C 0.32573 0.4562 0.63249 0.0
N48 N 0.35243 0.46309 0.5978 0.0
N49 N 0.34321 0.45754 0.63754 0.0
N50 N 0.32356 0.46098 0.58947 0.0
H51 H 0.3553 0.46588 0.50595 0.0
H52 H 0.33141 0.46296 0.49796 0.0
H53 H 0.35156 0.48614 0.51458 0.0
C54 C 0.34488 0.47019 0.51877 0.0
C55 C 0.42669 0.43628 0.58385 0.0
H56 H 0.41293 0.4329 0.56687 0.0
H57 H 0.43211 0.42725 0.5678 0.0
H58 H 0.42409 0.43243 0.62072 0.0
O59 O 0.41866 0.48938 0.64128 0.0
O60 O 0.38996 0.4867 0.64954 0.0
C61 C 0.38436 0.43751 0.64656 0.0
O62 O 0.38868 0.49099 0.54444 0.0
O63 O 0.41791 0.49464 0.54201 0.0
Zn64 Zn 0.92002 0.3774 0.92158 0.0
O65 O 0.9343 0.36957 0.86875 0.0
C66 C 0.92324 0.4098 0.86019 0.0
Zn67 Zn 0.94763 0.4057 0.93141 0.0
C68 C 0.95207 0.38165 0.85949 0.0
O69 O 0.96073 0.39766 0.88095 0.0
C70 C 0.91657 0.40243 0.99373 0.0
O71 O 0.95579 0.39203 0.97932 0.0
O72 O 0.92905 0.36388 0.97401 0.0
N73 N 0.97397 0.43012 0.94492 0.0
C74 C 0.98169 0.43764 0.98628 0.0
C75 C 1.00455 0.45087 0.93723 0.0
N76 N 0.98823 0.43831 0.91452 0.0
N77 N 1.0009 0.45033 0.98244 0.0
C78 C 0.88413 0.33804 0.88343 0.0
C79 C 0.86736 0.32839 0.94478 0.0
N80 N 0.89385 0.35164 0.91594 0.0
N81 N 0.8833 0.34552 0.95379 0.0
N82 N 0.8674 0.32325 0.90087 0.0
H83 H 0.90409 0.33544 0.83933 0.0
H84 H 0.88093 0.32788 0.81318 0.0
H85 H 0.89816 0.35349 0.82204 0.0
C86 C 0.89206 0.33866 0.83655 0.0
C87 C 0.97006 0.4338 0.02967 0.0
H88 H 0.96136 0.41801 0.03647 0.0
H89 H 0.97901 0.44096 0.06015 0.0
H90 H 0.96008 0.43967 0.02573 0.0
O91 O 0.93406 0.4134 0.98191 0.0
O92 O 0.90658 0.38614 0.97397 0.0
C93 C 0.94573 0.37454 0.99175 0.0
O94 O 0.91203 0.39186 0.87004 0.0
O95 O 0.93936 0.41941 0.88135 0.0
Zn96 Zn 0.54583 0.91069 0.25174 0.0
O97 O 0.56944 0.92467 0.20173 0.0
C98 C 0.51794 0.91316 0.18363 0.0
Zn99 Zn 0.54401 0.93772 0.25611 0.0
C100 C 0.57484 0.94221 0.1908 0.0
O101 O 0.56643 0.95051 0.20892 0.0
C102 C 0.51451 0.90748 0.31658 0.0
O103 O 0.56457 0.94642 0.3072 0.0
O104 O 0.56697 0.92025 0.30829 0.0
N105 N 0.54575 0.96397 0.26423 0.0
C106 C 0.55006 0.97449 0.30321 0.0
C107 C 0.55977 0.99442 0.2473 0.0
N108 N 0.55149 0.97638 0.22956 0.0
N109 N 0.5592 0.99359 0.2934 0.0
C110 C 0.54594 0.87324 0.21434 0.0
C111 C 0.54949 0.86159 0.27696 0.0
N112 N 0.54638 0.88497 0.24846 0.0
N113 N 0.54851 0.87758 0.28722 0.0
N114 N 0.54789 0.85843 0.23142 0.0
H115 H 0.54968 0.89249 0.15823 0.0
H116 H 0.55338 0.87238 0.14375 0.0
H117 H 0.52927 0.86834 0.15346 0.0
C118 C 0.54465 0.87694 0.16452 0.0
C119 C 0.54786 0.96654 0.35102 0.0
H120 H 0.54079 0.9506 0.35218 0.0
H121 H 0.56235 0.97287 0.36744 0.0
H122 H 0.5389 0.97076 0.3718 0.0
O123 O 0.52115 0.92474 0.30246 0.0
O124 O 0.52208 0.89763 0.30184 0.0
C125 C 0.57201 0.93706 0.32394 0.0
O126 O 0.5247 0.90222 0.19579 0.0
O127 O 0.5237 0.92929 0.20386 0.0
Zn128 Zn 0.63972 0.54719 0.58529 0.0
O129 O 0.65005 0.57197 0.53949 0.0
C130 C 0.61026 0.52355 0.51173 0.0
Zn131 Zn 0.6116 0.54683 0.59201 0.0
C132 C 0.63932 0.57956 0.53365 0.0
O133 O 0.62288 0.57214 0.5534 0.0
C134 C 0.61048 0.51437 0.64388 0.0
O135 O 0.62255 0.5629 0.65095 0.0
O136 O 0.65162 0.56659 0.64398 0.0
N137 N 0.58601 0.54667 0.60237 0.0
C138 C 0.58154 0.55687 0.63214 0.0
C139 C 0.555 0.53215 0.61195 0.0
N140 N 0.56942 0.53146 0.58936 0.0
N141 N 0.56222 0.54788 0.63937 0.0
C142 C 0.67897 0.55004 0.54937 0.0
C143 C 0.6865 0.53961 0.6087 0.0
N144 N 0.66515 0.54613 0.58133 0.0
N145 N 0.66999 0.53973 0.61806 0.0
N146 N 0.69255 0.54603 0.56582 0.0
H147 H 0.68657 0.57283 0.50095 0.0
H148 H 0.68539 0.55133 0.4773 0.0
H149 H 0.66326 0.55164 0.49109 0.0
C150 C 0.67845 0.55671 0.50173 0.0
C151 C 0.59575 0.57615 0.65249 0.0
H152 H 0.60829 0.5843 0.62913 0.0
H153 H 0.58857 0.58485 0.65895 0.0
H154 H 0.60103 0.57398 0.68587 0.0
O155 O 0.60015 0.52143 0.63051 0.0
O156 O 0.62819 0.52244 0.63146 0.0
C157 C 0.63973 0.57005 0.66539 0.0
O158 O 0.62704 0.52773 0.52668 0.0
O159 O 0.60081 0.53027 0.53244 0.0
Zn160 Zn 0.07266 0.60648 0.92774 0.0
O161 O 0.07036 0.61939 0.98702 0.0
C162 C 0.10396 0.60491 0.97865 0.0
Zn163 Zn 0.10063 0.63393 0.91883 0.0
C164 C 0.08077 0.63677 1.0 0.0
O165 O 0.09541 0.64839 0.97605 0.0
C166 C 0.09194 0.60205 0.84783 0.0
O167 O 0.08634 0.64395 0.87181 0.0
O168 O 0.0586 0.61802 0.89009 0.0
N169 N 0.12791 0.65758 0.90687 0.0
C170 C 0.13543 0.67693 0.90137 0.0
C171 C 0.15908 0.67147 0.89991 0.0
N172 N 0.14269 0.65432 0.90575 0.0
N173 N 0.15505 0.68602 0.89702 0.0
C174 C 0.03453 0.57968 0.97772 0.0
C175 C 0.03181 0.55219 0.96463 0.0
N176 N 0.04699 0.5821 0.94354 0.0
N177 N 0.04496 0.56486 0.93483 0.0
N178 N 0.0252 0.56113 0.99261 0.0
H179 H 0.03753 0.60162 0.02577 0.0
H180 H 0.0339 0.60624 0.96704 0.0
H181 H 0.01401 0.58791 1.00079 0.0
C182 C 0.0298 0.59482 0.99352 0.0
C183 C 0.1236 0.68682 0.90262 0.0
H184 H 0.10964 0.67773 0.92065 0.0
H185 H 0.13181 0.70118 0.91963 0.0
H186 H 0.12029 0.6891 0.867 0.0
O187 O 0.1051 0.61867 0.86206 0.0
O188 O 0.07572 0.5935 0.86856 0.0
C189 C 0.06787 0.63381 0.86785 0.0
O190 O 0.08659 0.59477 0.96505 0.0
O191 O 0.11377 0.62262 0.96628 0.0
Zn192 Zn 0.92144 0.5513 0.42026 0.0
O193 O 0.934 0.57341 0.47348 0.0
C194 C 0.91853 0.52127 0.48461 0.0
Zn195 Zn 0.94959 0.55049 0.41859 0.0
C196 C 0.95085 0.57815 0.48877 0.0
O197 O 0.96 0.57023 0.47251 0.0
C198 C 0.92086 0.52441 0.34796 0.0
O199 O 0.96313 0.57337 0.37326 0.0
O200 O 0.93568 0.57367 0.36665 0.0
N201 N 0.97606 0.5474 0.4216 0.0
C202 C 0.98533 0.55445 0.37859 0.0
C203 C 0.97246 0.54004 0.44204 0.0
N204 N 0.98535 0.55733 0.45972 0.0
N205 N 0.97243 0.53769 0.39807 0.0
C206 C 0.88462 0.55528 0.44525 0.0
C207 C 0.87278 0.55295 0.37854 0.0
N208 N 0.89676 0.55374 0.41523 0.0
N209 N 0.88935 0.5524 0.3739 0.0
N210 N 0.8694 0.55478 0.42297 0.0
H211 H 0.89339 0.57153 0.50744 0.0
H212 H 0.87294 0.54741 0.51339 0.0
H213 H 0.89729 0.55115 0.50666 0.0
C214 C 0.88719 0.55623 0.49617 0.0
C215 C 1.00626 0.56026 0.37158 0.0
H216 H 0.01557 0.57415 0.38974 0.0
H217 H 0.00943 0.54906 0.38509 0.0
H218 H 0.00979 0.5627 0.33455 0.0
O219 O 0.93814 0.53184 0.36224 0.0
O220 O 0.90942 0.52903 0.36743 0.0
C221 C 0.95339 0.58022 0.35499 0.0
O222 O 0.9084 0.52893 0.47285 0.0
O223 O 0.935 0.52734 0.46609 0.0
Zn224 Zn 0.40318 0.94344 0.73329 0.0
O225 O 0.38855 0.95236 0.69061 0.0
C226 C 0.39871 0.912 0.66884 0.0
Zn227 Zn 0.37534 0.91576 0.74398 0.0
C228 C 0.37112 0.94198 0.67816 0.0
O229 O 0.36118 0.92477 0.6935 0.0
C230 C 0.40823 0.91837 0.80091 0.0
O231 O 0.3694 0.93124 0.79845 0.0
O232 O 0.39787 0.95733 0.786 0.0
N233 N 0.34918 0.89037 0.75289 0.0
C234 C 0.33711 0.88088 0.78826 0.0
C235 C 0.32336 0.86521 0.72738 0.0
N236 N 0.34056 0.88048 0.71531 0.0
N237 N 0.32074 0.86504 0.77296 0.0
C238 C 0.4339 0.9761 0.6731 0.0
C239 C 0.45896 0.98921 0.71546 0.0
N240 N 0.42845 0.96799 0.71516 0.0
N241 N 0.44404 0.97634 0.74161 0.0
N242 N 0.45289 0.98955 0.6725 0.0
H243 H 0.41145 0.95437 0.62904 0.0
H244 H 0.412 0.97719 0.63265 0.0
H245 H 0.42971 0.97519 0.59912 0.0
C246 C 0.42112 0.97025 0.63119 0.0
C247 C 0.34071 0.88823 0.83649 0.0
H248 H 0.33537 0.89865 0.84056 0.0
H249 H 0.33292 0.87626 0.86139 0.0
H250 H 0.35652 0.89602 0.84396 0.0
O251 O 0.39003 0.90751 0.79373 0.0
O252 O 0.41762 0.93427 0.77892 0.0
C253 C 0.38206 0.94881 0.80835 0.0
O254 O 0.40892 0.92956 0.68067 0.0
O255 O 0.38278 0.90138 0.68986 0.0
Zn256 Zn 0.46665 0.37471 0.07748 0.0
O257 O 0.44546 0.36484 0.13255 0.0
C258 C 0.49629 0.40895 0.13278 0.0
Zn259 Zn 0.46397 0.40134 0.06999 0.0
C260 C 0.44061 0.37681 0.14814 0.0
O261 O 0.44706 0.39327 0.12934 0.0
C262 C 0.49033 0.40018 0.99955 0.0
O263 O 0.43924 0.38422 0.0321 0.0
O264 O 0.44389 0.35944 0.02715 0.0
N265 N 0.46022 0.42567 0.06149 0.0
C266 C 0.43905 0.43382 0.03037 0.0
C267 C 0.45774 0.45359 0.09387 0.0
N268 N 0.468 0.44128 0.09696 0.0
N269 N 0.44127 0.4463 0.05698 0.0
C270 C 0.46782 0.33781 0.1153 0.0
C271 C 0.47347 0.32745 0.05311 0.0
N272 N 0.46992 0.35052 0.08191 0.0
N273 N 0.47353 0.34404 0.0435 0.0
N274 N 0.46993 0.32314 0.09794 0.0
H275 H 0.44597 0.33269 0.16464 0.0
H276 H 0.46588 0.33072 0.18752 0.0
H277 H 0.4689 0.35437 0.17445 0.0
C278 C 0.46196 0.33897 0.16343 0.0
C279 C 0.43826 0.44715 0.98159 0.0
H280 H 0.43504 0.43866 0.94931 0.0
H281 H 0.42603 0.45009 0.98575 0.0
H282 H 0.45141 0.46146 0.97551 0.0
O283 O 0.48127 0.40899 0.01051 0.0
O284 O 0.48774 0.38559 0.02307 0.0
C285 C 0.43422 0.36761 0.01616 0.0
O286 O 0.4895 0.39075 0.12661 0.0
O287 O 0.48893 0.41757 0.11078 0.0
Zn288 Zn 0.0985 0.45894 0.41125 0.0
O289 O 0.08717 0.43691 0.46513 0.0
C290 C 0.09178 0.48571 0.47359 0.0
Zn291 Zn 0.06929 0.45612 0.40384 0.0
C292 C 0.0692 0.4294 0.47523 0.0
O293 O 0.05884 0.43488 0.45414 0.0
C294 C 0.09741 0.48607 0.34024 0.0
O295 O 0.06322 0.43489 0.35603 0.0
O296 O 0.09164 0.43683 0.35862 0.0
N297 N 0.04172 0.45066 0.39282 0.0
C298 C 0.03242 0.44893 0.35285 0.0
C299 C 0.01096 0.43764 0.40552 0.0
N300 N 0.02834 0.44357 0.42545 0.0
N301 N 0.01319 0.44067 0.35999 0.0
C302 C 0.13719 0.46191 0.45025 0.0
C303 C 0.15418 0.46966 0.38925 0.0
N304 N 0.12619 0.46292 0.41621 0.0
N305 N 0.13684 0.46773 0.37847 0.0
N306 N 0.15486 0.46605 0.4341 0.0
H307 H 0.12033 0.46281 0.50697 0.0
H308 H 0.12371 0.44208 0.50561 0.0
H309 H 0.1436 0.46539 0.52253 0.0
C310 C 0.13091 0.45795 0.4993 0.0
C311 C 0.04173 0.45418 0.30623 0.0
H312 H 0.05491 0.45294 0.30391 0.0
H313 H 0.03136 0.44478 0.27949 0.0
H314 H 0.04584 0.46942 0.29854 0.0
O315 O 0.07991 0.4778 0.3537 0.0
O316 O 0.10889 0.48109 0.35809 0.0
C317 C 0.07457 0.42922 0.34211 0.0
O318 O 0.10441 0.48094 0.46262 0.0
O319 O 0.0753 0.47746 0.45372 0.0
Zn320 Zn 0.61145 0.06874 0.76185 0.0
O321 O 0.62054 0.05895 0.70649 0.0
C322 C 0.61079 0.09814 0.69911 0.0
Zn323 Zn 0.64018 0.09606 0.76004 0.0
C324 C 0.63705 0.06798 0.68791 0.0
O325 O 0.64947 0.08464 0.70308 0.0
C326 C 0.61307 0.09598 0.83315 0.0
O327 O 0.65081 0.08283 0.80981 0.0
O328 O 0.62215 0.05628 0.8067 0.0
N329 N 0.66663 0.12154 0.75651 0.0
C330 C 0.67967 0.13425 0.78678 0.0
C331 C 0.69098 0.14427 0.7199 0.0
N332 N 0.67374 0.12792 0.7151 0.0
N333 N 0.69519 0.14873 0.76452 0.0
C334 C 0.58216 0.02782 0.73452 0.0
C335 C 0.55683 0.03011 0.72924 0.0
N336 N 0.58537 0.04359 0.75876 0.0
N337 N 0.56931 0.04464 0.7566 0.0
N338 N 0.56472 0.01958 0.71371 0.0
H339 H 0.60788 0.02708 0.75649 0.0
H340 H 0.58734 1.00399 0.74055 0.0
H341 H 0.6013 0.02085 0.69704 0.0
C342 C 0.59563 0.01971 0.73222 0.0
C343 C 0.67742 0.13186 0.83766 0.0
H344 H 0.6671 0.11656 0.84691 0.0
H345 H 0.69169 0.13661 0.85413 0.0
H346 H 0.67152 0.14095 0.85093 0.0
O347 O 0.62993 0.10681 0.81591 0.0
O348 O 0.60239 0.07898 0.81713 0.0
C349 C 0.63931 0.06531 0.82229 0.0
O350 O 0.60045 0.08133 0.71611 0.0
O351 O 0.62855 0.10813 0.71097 0.0
Zn352 Zn 0.5482 0.63357 0.10846 0.0
O353 O 0.57185 0.64957 0.1565 0.0
C354 C 0.52092 0.61454 0.18602 0.0
Zn355 Zn 0.54712 0.60533 0.12858 0.0
C356 C 0.5778 0.6398 0.17884 0.0
O357 O 0.5698 0.62166 0.17295 0.0
C358 C 0.51761 0.59849 0.05643 0.0
O359 O 0.5664 0.60877 0.07657 0.0
O360 O 0.56912 0.6366 0.05562 0.0
N361 N 0.54661 0.57884 0.15708 0.0
C362 C 0.56485 0.58023 0.16718 0.0
C363 C 0.53579 0.57218 0.14886 0.0
N364 N 0.53479 0.57531 0.19351 0.0
N365 N 0.55207 0.5746 0.13299 0.0
C366 C 0.55155 0.67466 0.11163 0.0
C367 C 0.54574 0.67867 0.04252 0.0
N368 N 0.54911 0.65901 0.08768 0.0
N369 N 0.54555 0.66162 0.04473 0.0
N370 N 0.54956 0.68726 0.084 0.0
H371 H 0.57048 0.68635 0.16928 0.0
H372 H 0.54699 0.68412 0.17738 0.0
H373 H 0.54976 0.66296 0.17969 0.0
C374 C 0.55472 0.67702 0.16243 0.0
C375 C 0.58526 0.59602 0.15781 0.0
H376 H 0.58687 0.60495 0.12753 0.0
H377 H 0.59093 0.60547 0.1884 0.0
H378 H 0.59444 0.58926 0.15298 0.0
O379 O 0.52373 0.58953 0.0815 0.0
O380 O 0.52499 0.61682 0.061 0.0
C381 C 0.57371 0.62343 0.05022 0.0
O382 O 0.52672 0.62928 0.16012 0.0
O383 O 0.52738 0.60306 0.17966 0.0
H384 H 0.44506 0.1527 0.18006 0.0
H385 H 0.44605 0.18247 0.15303 0.0
H386 H 0.48599 0.21489 0.26156 0.0
H387 H 0.4854 0.18536 0.28773 0.0
H388 H 0.43572 0.20642 0.20273 0.0
H389 H 0.51291 0.24807 0.14877 0.0
H390 H 0.50045 0.22217 0.15844 0.0
H391 H 0.50947 0.2387 0.20607 0.0
C392 C 0.45447 0.16627 0.19724 0.0
C393 C 0.46552 0.16678 0.23536 0.0
C394 C 0.45485 0.18324 0.18216 0.0
C395 C 0.46637 0.20103 0.20476 0.0
C396 C 0.47734 0.20149 0.24289 0.0
H397 H 0.48863 0.31989 0.17222 0.0
H398 H 0.48668 0.28989 0.20134 0.0
C399 C 0.4769 0.18458 0.258 0.0
C400 C 0.46635 0.21897 0.18999 0.0
H401 H 0.496 0.26563 0.15359 0.0
C402 C 0.44887 0.21933 0.19168 0.0
C403 C 0.48354 0.23588 0.17594 0.0
C404 C 0.50263 0.23621 0.17174 0.0
C405 C 0.44817 0.2362 0.18049 0.0
C406 C 0.46537 0.25312 0.16638 0.0
C407 C 0.48285 0.25274 0.16469 0.0
C408 C 0.46542 0.27109 0.15143 0.0
C409 C 0.42909 0.23587 0.18489 0.0
C410 C 0.45416 0.27055 0.11382 0.0
C411 C 0.45513 0.28759 0.09766 0.0
C412 C 0.46735 0.30555 0.11872 0.0
C413 C 0.47858 0.30614 0.15647 0.0
C414 C 0.47763 0.28905 0.17268 0.0
H415 H 0.41901 0.22425 0.20861 0.0
H416 H 0.4313 0.25003 0.19742 0.0
H417 H 0.42201 0.23297 0.1508 0.0
H418 H 0.44502 0.25703 0.09602 0.0
H419 H 0.44663 0.28685 0.06795 0.0
H420 H 0.28626 0.43521 0.60931 0.0
H421 H 0.25722 0.43603 0.58435 0.0
H422 H 0.29328 0.48845 0.50808 0.0
H423 H 0.32232 0.48775 0.53336 0.0
H424 H 0.24747 0.46462 0.59908 0.0
H425 H 0.25292 0.45413 0.41289 0.0
H426 H 0.26667 0.44944 0.45509 0.0
H427 H 0.27448 0.47392 0.4373 0.0
C428 C 0.28795 0.44679 0.58685 0.0
C429 C 0.30656 0.4611 0.5723 0.0
C430 C 0.27136 0.44727 0.57266 0.0
C431 C 0.27299 0.4621 0.54363 0.0
C432 C 0.29158 0.47656 0.52943 0.0
H433 H 0.19245 0.49222 0.41993 0.0
H434 H 0.22082 0.4914 0.4497 0.0
C435 C 0.3082 0.47608 0.54364 0.0
C436 C 0.25528 0.46271 0.52943 0.0
H437 H 0.22932 0.46238 0.43579 0.0
C438 C 0.24344 0.46403 0.56339 0.0
C439 C 0.24998 0.46192 0.48286 0.0
C440 C 0.26155 0.45959 0.44489 0.0
C441 C 0.22676 0.46506 0.55201 0.0
C442 C 0.22154 0.46441 0.50541 0.0
C443 C 0.23332 0.46294 0.47151 0.0
C444 C 0.20418 0.46558 0.49072 0.0
C445 C 0.21516 0.46737 0.58991 0.0
C446 C 0.1853 0.45144 0.50412 0.0
C447 C 0.16902 0.45197 0.48723 0.0
C448 C 0.17134 0.46662 0.45654 0.0
C449 C 0.19025 0.48086 0.44379 0.0
C450 C 0.20646 0.48037 0.46069 0.0
H451 H 0.22367 0.47257 0.62214 0.0
H452 H 0.21027 0.47772 0.57989 0.0
H453 H 0.20208 0.45309 0.59698 0.0
H454 H 0.1831 0.4396 0.52633 0.0
H455 H 0.15465 0.44044 0.49648 0.0
H456 H 0.85257 0.28791 0.93843 0.0
H457 H 0.82403 0.25793 0.91315 0.0
H458 H 0.81929 0.28777 0.79472 0.0
H459 H 0.84748 0.31815 0.82148 0.0
H460 H 0.7848 0.26675 0.83536 0.0
H461 H 0.81736 0.2199 0.81547 0.0
H462 H 0.82156 0.23034 0.87162 0.0
H463 H 0.83195 0.24586 0.82242 0.0
C464 C 0.84566 0.28794 0.90648 0.0
C465 C 0.85261 0.30522 0.88121 0.0
C466 C 0.82939 0.27077 0.89189 0.0
C467 C 0.81967 0.27036 0.85139 0.0
C468 C 0.82667 0.2876 0.82575 0.0
H469 H 0.73052 0.16371 0.72604 0.0
H470 H 0.7602 0.19332 0.74743 0.0
C471 C 0.84296 0.30489 0.84059 0.0
C472 C 0.80155 0.25226 0.83774 0.0
H473 H 0.78266 0.20359 0.81977 0.0
C474 C 0.78437 0.25297 0.83155 0.0
C475 C 0.80093 0.23424 0.83234 0.0
C476 C 0.81899 0.23255 0.83533 0.0
C477 C 0.76662 0.2362 0.82091 0.0
C478 C 0.76584 0.21803 0.81759 0.0
C479 C 0.78309 0.2174 0.82304 0.0
C480 C 0.74758 0.19966 0.80595 0.0
C481 C 0.74902 0.23827 0.8123 0.0
C482 C 0.7305 0.193 0.83205 0.0
C483 C 0.71332 0.17606 0.81944 0.0
C484 C 0.71299 0.1652 0.78102 0.0
C485 C 0.73026 0.17168 0.75584 0.0
C486 C 0.74729 0.18862 0.76813 0.0
H487 H 0.75318 0.25345 0.80329 0.0
H488 H 0.73996 0.22856 0.78419 0.0
H489 H 0.74006 0.23431 0.84387 0.0
H490 H 0.73037 0.20099 0.86194 0.0
H491 H 0.70025 0.1719 0.8389 0.0
H492 H 0.57475 0.71656 0.13974 0.0
H493 H 0.57395 0.74608 0.15987 0.0
H494 H 0.5249 0.72875 0.07018 0.0
H495 H 0.52519 0.69882 0.0515 0.0
H496 H 0.57788 0.77616 0.1061 0.0
H497 H 0.50509 0.7398 0.18799 0.0
H498 H 0.51798 0.72707 0.1747 0.0
H499 H 0.50523 0.73192 0.13044 0.0
C500 C 0.56351 0.7188 0.12521 0.0
C501 C 0.54963 0.70503 0.09518 0.0
C502 C 0.56321 0.73582 0.13627 0.0
C503 C 0.54908 0.73949 0.11742 0.0
C504 C 0.53561 0.72605 0.08621 0.0
H505 H 0.5253 0.83527 0.1619 0.0
H506 H 0.52599 0.80708 0.12924 0.0
C507 C 0.53589 0.70903 0.07523 0.0
C508 C 0.54865 0.75749 0.12992 0.0
H509 H 0.5202 0.77385 0.1781 0.0
C510 C 0.56526 0.77563 0.12185 0.0
C511 C 0.53216 0.75687 0.15034 0.0
C512 C 0.51416 0.73789 0.16181 0.0
C513 C 0.56583 0.7931 0.13352 0.0
C514 C 0.54944 0.79246 0.15444 0.0
C515 C 0.53272 0.77435 0.16183 0.0
C516 C 0.54979 0.81031 0.17156 0.0
C517 C 0.58396 0.81211 0.12305 0.0
C518 C 0.56286 0.82148 0.20621 0.0
C519 C 0.56251 0.83754 0.22462 0.0
C520 C 0.54915 0.84292 0.2088 0.0
C521 C 0.53613 0.83185 0.17384 0.0
C522 C 0.5364 0.81563 0.15552 0.0
H523 H 0.59274 0.81044 0.09567 0.0
H524 H 0.58033 0.82333 0.11227 0.0
H525 H 0.59307 0.81738 0.15433 0.0
H526 H 0.57303 0.81747 0.21992 0.0
H527 H 0.57257 0.84568 0.25185 0.0
H528 H 0.70407 0.51961 0.57077 0.0
H529 H 0.73509 0.52331 0.54552 0.0
H530 H 0.75172 0.57999 0.49122 0.0
H531 H 0.72036 0.57612 0.51612 0.0
H532 H 0.76247 0.55957 0.43419 0.0
H533 H 0.786 0.55678 0.61088 0.0
H534 H 0.76312 0.53576 0.59741 0.0
H535 H 0.76513 0.55936 0.59876 0.0
C536 C 0.71427 0.53276 0.55296 0.0
C537 C 0.70975 0.54751 0.54515 0.0
C538 C 0.73208 0.53496 0.53894 0.0
C539 C 0.74601 0.55215 0.51753 0.0
C540 C 0.74127 0.56665 0.50799 0.0
H541 H 0.86722 0.57809 0.48842 0.0
H542 H 0.83798 0.57904 0.51178 0.0
C543 C 0.72329 0.56438 0.52181 0.0
C544 C 0.76548 0.55484 0.50557 0.0
H545 H 0.80405 0.55256 0.55063 0.0
C546 C 0.77164 0.55822 0.45973 0.0
C547 C 0.77773 0.55351 0.53896 0.0
C548 C 0.77277 0.55137 0.58931 0.0
C549 C 0.78922 0.55945 0.44611 0.0
C550 C 0.80082 0.5568 0.47904 0.0
C551 C 0.79508 0.55428 0.52518 0.0
C552 C 0.81859 0.556 0.46609 0.0
C553 C 0.79523 0.56371 0.39651 0.0
C554 C 0.81742 0.5424 0.43369 0.0
C555 C 0.83405 0.54183 0.42054 0.0
C556 C 0.85223 0.55456 0.44007 0.0
C557 C 0.85337 0.56782 0.47351 0.0
C558 C 0.83668 0.56848 0.48652 0.0
H559 H 0.78858 0.57152 0.37966 0.0
H560 H 0.81126 0.57258 0.39299 0.0
H561 H 0.79018 0.54981 0.37796 0.0
H562 H 0.8036 0.5322 0.41839 0.0
H563 H 0.83273 0.53142 0.39484 0.0
H564 H 0.28417 0.8552 0.7518 0.0
H565 H 0.25434 0.82718 0.78058 0.0
H566 H 0.28831 0.8137 0.87295 0.0
H567 H 0.3182 0.84186 0.84399 0.0
H568 H 0.24666 0.78969 0.77208 0.0
H569 H 0.2434 0.80639 0.95523 0.0
H570 H 0.25854 0.82478 0.91416 0.0
H571 H 0.26619 0.80881 0.93783 0.0
C572 C 0.28516 0.84655 0.77921 0.0
C573 C 0.30342 0.85094 0.79644 0.0
C574 C 0.26815 0.83051 0.7955 0.0
C575 C 0.26898 0.81839 0.82934 0.0
C576 C 0.2872 0.82307 0.84768 0.0
H577 H 0.19025 0.70441 0.93668 0.0
H578 H 0.2168 0.7373 0.92111 0.0
C579 C 0.30428 0.83922 0.83135 0.0
C580 C 0.25104 0.7999 0.84173 0.0
H581 H 0.22172 0.77391 0.93121 0.0
C582 C 0.2411 0.78633 0.80683 0.0
C583 C 0.24381 0.79544 0.88707 0.0
C584 C 0.25341 0.80967 0.92573 0.0
C585 C 0.22452 0.76828 0.81609 0.0
C586 C 0.2173 0.76375 0.86148 0.0
C587 C 0.22714 0.77739 0.89638 0.0
C588 C 0.20037 0.74443 0.87374 0.0
C589 C 0.21534 0.75394 0.77738 0.0
C590 C 0.18203 0.73755 0.8533 0.0
C591 C 0.16679 0.71862 0.86205 0.0
C592 C 0.16955 0.7063 0.89188 0.0
C593 C 0.18769 0.71355 0.91356 0.0
C594 C 0.20286 0.73238 0.90479 0.0
H595 H 0.22527 0.75771 0.74754 0.0
H596 H 0.21109 0.73899 0.78874 0.0
H597 H 0.20206 0.75396 0.76573 0.0
H598 H 0.17963 0.74666 0.82971 0.0
H599 H 0.15321 0.7134 0.84398 0.0
H600 H 0.62855 0.13288 0.86981 0.0
H601 H 0.61413 0.14363 0.92952 0.0
H602 H 0.56582 0.0852 0.94102 0.0
H603 H 0.57975 0.07453 0.88149 0.0
H604 H 0.55395 0.11212 0.93578 0.0
H605 H 0.6119 0.13368 0.06724 0.0
H606 H 0.61927 0.14516 0.01209 0.0
H607 H 0.61051 0.1196 0.01744 0.0
C608 C 0.61492 0.12234 0.88531 0.0
C609 C 0.60534 0.10284 0.87077 0.0
C610 C 0.60671 0.12849 0.91952 0.0
C611 C 0.58891 0.1152 0.94002 0.0
C612 C 0.5795 0.09576 0.92567 0.0
H613 H 0.52957 0.09341 0.18422 0.0
H614 H 0.55217 0.10142 0.12109 0.0
C615 C 0.58757 0.08967 0.89159 0.0
C616 C 0.57964 0.12105 0.97634 0.0
H617 H 0.58373 0.13409 0.08909 0.0
C618 C 0.56058 0.11727 0.96912 0.0
C619 C 0.58831 0.12779 0.0198 0.0
C620 C 0.60857 0.13171 0.03001 0.0
C621 C 0.5495 0.11878 1.00479 0.0
C622 C 0.55786 0.12467 0.04886 0.0
C623 C 0.57736 0.12969 0.05528 0.0
C624 C 0.54574 0.12229 0.09004 0.0
C625 C 0.5285 0.11266 0.99578 0.0
C626 C 0.53491 0.13183 0.0948 0.0
C627 C 0.52169 0.12715 0.13127 0.0
C628 C 0.51917 0.11287 0.16337 0.0
C629 C 0.53092 0.1043 0.15981 0.0
C630 C 0.544 0.10895 0.12374 0.0
H631 H 0.52352 0.10569 0.9617 0.0
H632 H 0.51897 0.1023 0.02244 0.0
H633 H 0.52667 0.1256 0.99693 0.0
H634 H 0.53626 0.14247 0.06969 0.0
H635 H 0.5129 0.13403 0.13319 0.0
H636 H 0.5198 0.59739 0.26634 0.0
H637 H 0.49406 0.58471 0.32364 0.0
H638 H 0.46354 0.6077 0.24755 0.0
H639 H 0.48974 0.62083 0.18954 0.0
H640 H 0.47446 0.60716 0.37385 0.0
H641 H 0.42885 0.54314 0.26306 0.0
H642 H 0.45493 0.5556 0.25686 0.0
H643 H 0.4418 0.5675 0.24005 0.0
C644 C 0.50781 0.60009 0.26209 0.0
C645 C 0.50673 0.61003 0.22341 0.0
C646 C 0.49313 0.59285 0.29492 0.0
C647 C 0.47689 0.59518 0.28967 0.0
C648 C 0.47602 0.6058 0.25212 0.0
H649 H 0.38492 0.51013 0.47199 0.0
H650 H 0.398 0.53623 0.41408 0.0
C651 C 0.49098 0.61335 0.21924 0.0
C652 C 0.4606 0.58503 0.32239 0.0
H653 H 0.42258 0.53946 0.34258 0.0
C654 C 0.46268 0.59259 0.36673 0.0
C655 C 0.4452 0.56609 0.31298 0.0
C656 C 0.44237 0.55747 0.26568 0.0
C657 C 0.4507 0.58111 0.40274 0.0
C658 C 0.43667 0.56144 0.39436 0.0
C659 C 0.43338 0.5545 0.34913 0.0
C660 C 0.4281 0.54711 0.43234 0.0
C661 C 0.4539 0.58987 0.44997 0.0
C662 C 0.44062 0.54453 0.46163 0.0
C663 C 0.43326 0.52971 0.49411 0.0
C664 C 0.41315 0.51696 0.49822 0.0
C665 C 0.40047 0.51981 0.46985 0.0
C666 C 0.40792 0.53468 0.43677 0.0
H667 H 0.45895 0.60565 0.44799 0.0
H668 H 0.44044 0.58264 0.47091 0.0
H669 H 0.46537 0.58823 0.46759 0.0
H670 H 0.45623 0.55355 0.45819 0.0
H671 H 0.44346 0.52797 0.51539 0.0
H672 H 0.9451 0.4469 0.82805 0.0
H673 H 0.9374 0.46269 0.76662 0.0
H674 H 0.88183 0.41089 0.7477 0.0
H675 H 0.88965 0.39471 0.80886 0.0
H676 H 0.89897 0.42481 0.6671 0.0
H677 H 0.90271 0.48583 0.76538 0.0
H678 H 0.92465 0.48493 0.77217 0.0
H679 H 0.90199 0.46515 0.79291 0.0
C680 C 0.93113 0.43885 0.81123 0.0
C681 C 0.91797 0.4195 0.82373 0.0
C682 C 0.92667 0.448 0.77621 0.0
C683 C 0.90882 0.43822 0.75302 0.0
C684 C 0.89562 0.41887 0.76529 0.0
H685 H 0.88929 0.50992 0.54949 0.0
H686 H 0.88251 0.48735 0.61397 0.0
C687 C 0.90011 0.40962 0.80033 0.0
C688 C 0.90465 0.4479 0.71426 0.0
H689 H 0.90702 0.49057 0.6833 0.0
C690 C 0.9004 0.43904 0.67091 0.0
C691 C 0.90601 0.4663 0.71899 0.0
C692 C 0.90887 0.47599 0.76502 0.0
C693 C 0.89881 0.44858 0.63192 0.0
C694 C 0.90196 0.46772 0.63601 0.0
C695 C 0.90487 0.47604 0.67981 0.0
C696 C 0.90445 0.48005 0.59505 0.0
C697 C 0.89406 0.43813 0.58654 0.0
C698 C 0.91896 0.48349 0.56297 0.0
C699 C 0.9228 0.49624 0.52646 0.0
C700 C 0.91235 0.50613 0.52092 0.0
C701 C 0.89749 0.50243 0.55246 0.0
C702 C 0.89367 0.4896 0.58942 0.0
H703 H 0.88519 0.42215 0.59138 0.0
H704 H 0.88605 0.44289 0.56372 0.0
H705 H 0.90776 0.44121 0.56929 0.0
H706 H 0.92786 0.47679 0.56698 0.0
H707 H 0.93444 0.49873 0.50318 0.0
H708 H 0.39237 0.89266 0.87257 0.0
H709 H 0.40982 0.8878 0.93596 0.0
H710 H 0.46446 0.9274 0.87186 0.0
H711 H 0.44723 0.93278 0.80946 0.0
H712 H 0.43671 0.87549 0.94508 0.0
H713 H 0.46959 0.95289 0.99471 0.0
H714 H 0.45029 0.94175 0.95321 0.0
H715 H 0.475 0.94977 0.93675 0.0
C716 C 0.4081 0.90017 0.87178 0.0
C717 C 0.41842 0.91333 0.8363 0.0
C718 C 0.41806 0.89737 0.90803 0.0
C719 C 0.43848 0.90758 0.90928 0.0
C720 C 0.44873 0.91976 0.87237 0.0
H721 H 0.51463 0.89273 0.10466 0.0
H722 H 0.49435 0.88925 0.03764 0.0
C723 C 0.43883 0.92276 0.83657 0.0
C724 C 0.44912 0.90649 0.9502 0.0
H725 H 0.48165 0.9347 0.03223 0.0
C726 C 0.4465 0.88841 0.9643 0.0
C727 C 0.46168 0.92329 0.97575 0.0
C728 C 0.46418 0.94299 0.96468 0.0
C729 C 0.45625 0.88675 1.00291 0.0
C730 C 0.46927 0.90368 0.02753 0.0
C731 C 0.47179 0.92169 0.01335 0.0
C732 C 0.47993 0.90331 0.06931 0.0
C733 C 0.45214 0.86685 0.01756 0.0
C734 C 0.47861 0.91227 0.10953 0.0
C735 C 0.49041 0.91462 0.14714 0.0
C736 C 0.5037 0.90784 0.14589 0.0
C737 C 0.50437 0.89792 0.1067 0.0
C738 C 0.49272 0.89586 0.06846 0.0
H739 H 0.43814 0.85523 1.00341 0.0
H740 H 0.46386 0.86438 1.00463 0.0
H741 H 0.45168 0.86554 0.05546 0.0
H742 H 0.46884 0.91806 0.11133 0.0
H743 H 0.48947 0.92222 0.17698 0.0
H744 H 0.5132 0.39495 0.19246 0.0
H745 H 0.53626 0.41268 0.2542 0.0
H746 H 0.5369 0.46522 0.2142 0.0
H747 H 0.5142 0.44778 0.15215 0.0
H748 H 0.57373 0.47164 0.23722 0.0
H749 H 0.5194 0.42837 0.3713 0.0
H750 H 0.52465 0.41457 0.33089 0.0
H751 H 0.51288 0.42762 0.31185 0.0
C752 C 0.51841 0.41032 0.19648 0.0
C753 C 0.51168 0.41987 0.1675 0.0
C754 C 0.53152 0.42042 0.232 0.0
C755 C 0.53808 0.44023 0.23941 0.0
C756 C 0.53201 0.44994 0.20934 0.0
H757 H 0.57464 0.51206 0.47515 0.0
H758 H 0.55929 0.49129 0.40924 0.0
C759 C 0.51896 0.43989 0.17388 0.0
C760 C 0.55047 0.45076 0.2796 0.0
H761 H 0.54998 0.4529 0.39653 0.0
C762 C 0.56865 0.46744 0.2721 0.0
C763 C 0.54376 0.44538 0.32514 0.0
C764 C 0.52405 0.42812 0.33553 0.0
C765 C 0.58007 0.47908 0.30875 0.0
C766 C 0.57323 0.4738 0.35421 0.0
C767 C 0.55529 0.45686 0.36172 0.0
C768 C 0.5833 0.48665 0.39409 0.0
C769 C 0.59893 0.4974 0.29847 0.0
C770 C 0.60202 0.49101 0.40787 0.0
C771 C 0.61099 0.50305 0.44598 0.0
C772 C 0.60134 0.51088 0.47097 0.0
C773 C 0.58259 0.50638 0.45689 0.0
C774 C 0.57372 0.49442 0.41912 0.0
H775 H 0.60052 0.50113 0.26145 0.0
H776 H 0.59996 0.50981 0.31826 0.0
H777 H 0.61125 0.4954 0.30882 0.0
H778 H 0.60962 0.48496 0.3895 0.0
H779 H 0.62539 0.50616 0.45592 0.0
H780 H 0.06766 0.56562 0.81513 0.0
H781 H 0.073 0.54903 0.75142 0.0
H782 H 0.12913 0.59935 0.72669 0.0
H783 H 0.12389 0.61625 0.79089 0.0
H784 H 0.10584 0.58297 0.64613 0.0
H785 H 0.11022 0.52689 0.74972 0.0
H786 H 0.08921 0.52893 0.76256 0.0
H787 H 0.11306 0.54902 0.77429 0.0
C788 C 0.08119 0.57324 0.79633 0.0
C789 C 0.09538 0.5923 0.80836 0.0
C790 C 0.08426 0.56364 0.76001 0.0
C791 C 0.10159 0.5728 0.73475 0.0
C792 C 0.11571 0.59194 0.74599 0.0
H793 H 0.12287 0.50277 0.53279 0.0
H794 H 0.12833 0.52598 0.59448 0.0
C795 C 0.11269 0.60158 0.78267 0.0
C796 C 0.10448 0.56235 0.69596 0.0
H797 H 0.10401 0.52022 0.66948 0.0
C798 C 0.10573 0.56939 0.65125 0.0
C799 C 0.10464 0.54478 0.70261 0.0
C800 C 0.10441 0.53703 0.74992 0.0
C801 C 0.10604 0.55879 0.61296 0.0
C802 C 0.10486 0.54057 0.61954 0.0
C803 C 0.10472 0.53408 0.66435 0.0
C804 C 0.10233 0.52741 0.58059 0.0
C805 C 0.10739 0.56708 0.56575 0.0
C806 C 0.08585 0.52038 0.5525 0.0
C807 C 0.08265 0.5071 0.51752 0.0
C808 C 0.09585 0.50046 0.50973 0.0
C809 C 0.11247 0.50764 0.53766 0.0
C810 C 0.1156 0.52089 0.57297 0.0
H811 H 0.11412 0.58315 0.56677 0.0
H812 H 0.11598 0.56325 0.54233 0.0
H813 H 0.09254 0.56102 0.55139 0.0
H814 H 0.07518 0.52484 0.55829 0.0
H815 H 0.06967 0.50188 0.49684 0.0
H816 H 0.39755 0.9877 0.81527 0.0
H817 H 0.40021 0.00639 0.88372 0.0
H818 H 0.36432 0.95332 0.95799 0.0
H819 H 0.36173 0.93433 0.88898 0.0
H820 H 0.37453 0.00939 0.94654 0.0
H821 H 0.41707 0.97853 0.02528 0.0
H822 H 0.41099 0.97578 0.96521 0.0
H823 H 0.39286 0.96134 1.00697 0.0
C824 C 0.38986 0.97996 0.84589 0.0
C825 C 0.37962 0.95952 0.84693 0.0
C826 C 0.39135 0.99071 0.88499 0.0
C827 C 0.38277 0.98129 0.92621 0.0
C828 C 0.37129 0.96088 0.92663 0.0
H829 H 0.41781 0.03136 0.19755 0.0
H830 H 0.39841 0.01025 0.13485 0.0
C831 C 0.36968 0.95004 0.88716 0.0
C832 C 0.38783 0.99294 0.96908 0.0
H833 H 0.41496 1.00262 0.06633 0.0
C834 C 0.38314 0.00776 0.97313 0.0
C835 C 0.39928 0.99098 1.00345 0.0
C836 C 0.40553 0.97593 1.00014 0.0
C837 C 0.38966 0.0207 0.01055 0.0
C838 C 0.40152 0.01901 0.04431 0.0
C839 C 0.40582 1.00392 0.04062 0.0
C840 C 0.41021 0.03285 0.08332 0.0
C841 C 0.38374 0.03597 0.01356 0.0
C842 C 0.42279 0.05287 0.07585 0.0
C843 C 0.43366 0.06511 0.11215 0.0
C844 C 0.43233 0.05739 0.15612 0.0
C845 C 0.419 0.03766 0.16393 0.0
C846 C 0.40797 0.02557 0.12807 0.0
H847 H 0.37014 0.0316 0.99416 0.0
H848 H 0.38156 0.03882 0.04969 0.0
H849 H 0.39536 0.0497 0.99843 0.0
H850 H 0.42514 0.05881 0.04155 0.0
H851 H 0.44411 0.08019 0.10516 0.0
H852 H 0.45271 0.38678 0.23516 0.0
H853 H 0.43386 0.38927 0.29829 0.0
H854 H 0.38217 0.36185 0.21481 0.0
H855 H 0.40133 0.35988 0.15109 0.0
H856 H 0.38756 0.39495 0.24714 0.0
H857 H 0.39542 0.35527 0.39268 0.0
H858 H 0.4188 0.37178 0.36912 0.0
H859 H 0.40114 0.35196 0.33468 0.0
C860 C 0.43715 0.38048 0.23115 0.0
C861 C 0.42831 0.37263 0.18893 0.0
C862 C 0.42634 0.3819 0.26725 0.0
C863 C 0.40644 0.37545 0.26182 0.0
C864 C 0.39742 0.36673 0.22013 0.0
H865 H 0.35787 0.40539 0.50123 0.0
H866 H 0.35776 0.38504 0.43719 0.0
C867 C 0.40829 0.3654 0.18391 0.0
C868 C 0.39602 0.3805 0.29689 0.0
H869 H 0.3903 0.38226 0.41251 0.0
C870 C 0.38774 0.39173 0.28318 0.0
C871 C 0.39587 0.37612 0.34399 0.0
C872 C 0.4031 0.36293 0.36085 0.0
C873 C 0.38077 0.39991 0.3154 0.0
C874 C 0.38241 0.39712 0.36268 0.0
C875 C 0.38923 0.38463 0.37629 0.0
C876 C 0.37988 0.40913 0.39814 0.0
C877 C 0.37234 0.41208 0.29849 0.0
C878 C 0.39206 0.42936 0.3971 0.0
C879 C 0.39215 0.44083 0.43334 0.0
C880 C 0.37995 0.43238 0.47134 0.0
C881 C 0.36704 0.41225 0.4717 0.0
C882 C 0.36712 0.40065 0.43542 0.0
H883 H 0.36573 0.40725 0.26402 0.0
H884 H 0.36114 0.4114 0.32239 0.0
H885 H 0.38412 0.42743 0.29555 0.0
H886 H 0.40235 0.43623 0.3694 0.0
H887 H 0.40249 0.45628 0.43274 0.0
H888 H 0.03502 0.39574 0.47382 0.0
H889 H 0.01447 0.37933 0.5401 0.0
H890 H 0.06097 0.41739 0.63041 0.0
H891 H 0.08185 0.4335 0.56375 0.0
H892 H 0.03664 0.37865 0.66622 0.0
H893 H 0.99376 0.41165 0.60226 0.0
H894 H 0.99624 0.3959 0.56218 0.0
H895 H 0.01735 0.41814 0.57955 0.0
C896 C 0.04113 0.40003 0.50787 0.0
C897 C 0.06002 0.41581 0.51377 0.0
C898 C 0.02931 0.3908 0.5457 0.0
C899 C 0.03599 0.39748 0.59017 0.0
C900 C 0.05548 0.41206 0.59637 0.0
H901 H 0.99102 0.39694 0.85412 0.0
H902 H 0.00996 0.39655 0.78903 0.0
C903 C 0.06747 0.42115 0.55833 0.0
C904 C 0.02203 0.39103 0.62912 0.0
H905 H 0.9823 0.39255 0.66872 0.0
C906 C 0.02469 0.38158 0.66669 0.0
C907 C 1.00641 0.39487 0.62977 0.0
C908 C 1.0033 0.40584 0.59154 0.0
C909 C 0.0122 0.37594 0.70492 0.0
C910 C 0.99683 0.38012 0.70585 0.0
C911 C 0.99392 0.38914 0.6678 0.0
C912 C 0.98503 0.37746 0.74771 0.0
C913 C 0.01563 0.36564 0.74406 0.0
C914 C 0.96458 0.36673 0.74652 0.0
C915 C 0.95359 0.36691 0.78409 0.0
C916 C 0.96294 0.37814 0.82298 0.0
C917 C 0.98337 0.38816 0.82464 0.0
C918 C 0.99427 0.38783 0.78751 0.0
H919 H 0.02323 0.35788 0.73233 0.0
H920 H 0.02496 0.3765 0.77005 0.0
H921 H 1.00176 0.35504 0.76074 0.0
H922 H 0.95714 0.35878 0.71594 0.0
H923 H 0.93789 0.35918 0.78168 0.0
H924 H 0.59853 0.98109 0.18702 0.0
H925 H 0.61746 1.00035 0.12183 0.0
H926 H 0.60393 0.94794 0.04868 0.0
H927 H 0.5845 0.92835 0.11433 0.0
H928 H 0.64856 1.00468 0.06814 0.0
H929 H 0.57933 0.97265 0.96975 0.0
H930 H 0.57986 0.96925 0.03068 0.0
H931 H 0.58616 0.95579 0.99169 0.0
C932 C 0.5999 0.97361 0.15746 0.0
C933 C 0.58982 0.95318 0.15557 0.0
C934 C 0.6108 0.98468 0.1202 0.0
C935 C 0.61183 0.97564 0.07997 0.0
C936 C 0.60307 0.95523 0.07916 0.0
H937 H 0.63667 0.03042 0.81182 0.0
H938 H 0.63455 0.00851 0.87315 0.0
C939 C 0.59213 0.94405 0.11679 0.0
C940 C 0.62019 0.98768 0.03802 0.0
H941 H 0.60687 0.99782 0.93507 0.0
C942 C 0.63956 1.00302 0.03866 0.0
C943 C 0.60839 0.98566 0.99976 0.0
C944 C 0.58724 0.97008 0.99776 0.0
C945 C 0.64732 0.0165 1.00242 0.0
C946 C 0.63531 0.01481 0.96487 0.0
C947 C 0.61615 0.99911 0.96368 0.0
C948 C 0.64161 0.02954 0.92743 0.0
C949 C 0.66826 0.03246 1.00485 0.0
C950 C 0.64729 0.04904 0.93702 0.0
C951 C 0.64893 0.06176 0.90162 0.0
C952 C 0.64464 0.05505 0.8563 0.0
C953 C 0.64033 0.03601 0.84644 0.0
C954 C 0.63896 0.02343 0.88155 0.0
H955 H 0.67695 0.02818 0.0267 0.0
H956 H 0.67494 0.03633 0.97026 0.0
H957 H 0.66899 0.04557 0.02028 0.0
H958 H 0.64899 0.05404 0.9721 0.0
H959 H 0.65175 0.0762 0.91021 0.0
H960 H 0.66252 0.58926 0.45707 0.0
H961 H 0.66372 0.61045 0.39427 0.0
H962 H 0.62756 0.62612 0.47265 0.0
H963 H 0.6266 0.60543 0.53509 0.0
H964 H 0.6311 0.60243 0.34955 0.0
H965 H 0.66354 0.67743 0.41403 0.0
H966 H 0.66679 0.65913 0.44289 0.0
H967 H 0.64527 0.66081 0.45276 0.0
C968 C 0.6555 0.59785 0.46149 0.0
C969 C 0.64438 0.59561 0.50085 0.0
C970 C 0.65612 0.60989 0.42555 0.0
C971 C 0.64588 0.62007 0.42878 0.0
C972 C 0.63597 0.61886 0.46953 0.0
H973 H 0.57547 0.647 0.26844 0.0
H974 H 0.59723 0.64695 0.32793 0.0
C975 C 0.63528 0.60683 0.50515 0.0
C976 C 0.64252 0.6291 0.38765 0.0
H977 H 0.63966 0.66868 0.35261 0.0
C978 C 0.63352 0.61713 0.34964 0.0
C979 C 0.64544 0.64821 0.38791 0.0
C980 C 0.65598 0.66217 0.42648 0.0
C981 C 0.6262 0.62321 0.31344 0.0
C982 C 0.62826 0.64196 0.31477 0.0
C983 C 0.63809 0.65433 0.35165 0.0
C984 C 0.61853 0.64791 0.2802 0.0
C985 C 0.61509 0.60899 0.27561 0.0
C986 C 0.62394 0.64978 0.23389 0.0
C987 C 0.61157 0.64994 0.19999 0.0
C988 C 0.59379 0.64851 0.212 0.0
C989 C 0.58937 0.64869 0.25846 0.0
C990 C 0.60171 0.64847 0.2924 0.0
H991 H 0.61258 0.59418 0.28292 0.0
H992 H 0.60079 0.60803 0.27051 0.0
H993 H 0.62336 0.61408 0.24307 0.0
H994 H 0.63688 0.64944 0.22377 0.0
H995 H 0.615 0.64923 0.16435 0.0
H996 H 0.02899 0.62019 0.86541 0.0
H997 H 0.01001 0.61992 0.79962 0.0
H998 H 0.0628 0.65706 0.72563 0.0
H999 H 0.08205 0.65707 0.79145 0.0
H1000 H 1.00636 0.6461 0.74115 0.0
H1001 H 0.03789 0.60608 0.65287 0.0
H1002 H 0.04096 0.61121 0.71339 0.0
H1003 H 0.05515 0.63 0.67268 0.0
C1004 C 0.03663 0.62871 0.83557 0.0
C1005 C 0.05705 0.63835 0.8333 0.0
C1006 C 0.02571 0.62858 0.798 0.0
C1007 C 0.03496 0.63807 0.75734 0.0
C1008 C 0.05537 0.64933 0.75646 0.0
H1009 H 0.98639 0.60973 0.48437 0.0
H1010 H 1.00655 0.6286 0.54888 0.0
C1011 C 0.06636 0.64946 0.7942 0.0
C1012 C 0.02325 0.63386 0.71481 0.0
H1013 H 0.01432 0.6096 0.61327 0.0
C1014 C 1.00823 0.63834 0.71284 0.0
C1015 C 0.0255 0.62346 0.67823 0.0
C1016 C 0.04061 0.61722 0.6793 0.0
C1017 C 0.99543 0.63269 0.67525 0.0
C1018 C 0.99755 0.62204 0.63909 0.0
C1019 C 0.01277 0.6179 0.64081 0.0
C1020 C 0.9839 0.61423 0.59964 0.0
C1021 C 0.97978 0.63814 0.67458 0.0
C1022 C 0.96413 0.60048 0.60627 0.0
C1023 C 0.95243 0.58989 0.56904 0.0
C1024 C 0.96049 0.59277 0.52498 0.0
C1025 C 0.97983 0.60741 0.51804 0.0
C1026 C 0.99138 0.61813 0.55491 0.0
H1027 H 0.98358 0.65087 0.69692 0.0
H1028 H 0.9772 0.64153 0.63926 0.0
H1029 H 0.96604 0.62574 0.68755 0.0
H1030 H 0.95811 0.59688 0.64051 0.0
H1031 H 0.93767 0.57838 0.57527 0.0
H1032 H 0.53137 0.08326 0.29566 0.0
H1033 H 0.56132 0.098 0.34059 0.0
H1034 H 0.54517 0.04152 0.3962 0.0
H1035 H 0.51487 0.02712 0.35253 0.0
H1036 H 0.56865 0.0699 0.45785 0.0
H1037 H 0.60546 0.09631 0.28941 0.0
H1038 H 0.59154 0.10598 0.3151 0.0
H1039 H 0.57938 0.08255 0.28742 0.0
C1040 C 0.53439 0.07413 0.31779 0.0
C1041 C 0.52136 0.05402 0.31985 0.0
C1042 C 0.55143 0.08255 0.34358 0.0
C1043 C 0.55608 0.07086 0.37063 0.0
C1044 C 0.54223 0.05093 0.37512 0.0
H1045 H 0.54702 1.00263 0.37048 0.0
H1046 H 0.56545 0.02996 0.41964 0.0
C1047 C 0.52501 0.04256 0.34986 0.0
C1048 C 0.57625 0.07782 0.3867 0.0
H1049 H 0.6135 0.07666 0.33281 0.0
C1050 C 0.57882 0.07205 0.43059 0.0
C1051 C 0.59126 0.08278 0.35395 0.0
C1052 C 0.592 0.09245 0.30895 0.0
C1053 C 0.59211 0.06542 0.43635 0.0
C1054 C 0.60029 0.06245 0.39646 0.0
C1055 C 0.60412 0.07574 0.36083 0.0
C1056 C 0.59242 0.04201 0.38027 0.0
C1057 C 0.59331 0.05688 0.48125 0.0
C1058 C 0.60135 0.03803 0.34345 0.0
C1059 C 0.5905 0.02191 0.31531 0.0
C1060 C 0.57068 0.00933 0.32398 0.0
C1061 C 0.56228 0.0121 0.36315 0.0
C1062 C 0.57309 0.02795 0.39152 0.0
H1063 H 0.59753 0.06797 0.50861 0.0
H1064 H 0.57885 0.04448 0.49018 0.0
H1065 H 0.60404 0.05181 0.47996 0.0
H1066 H 0.61625 0.04824 0.33413 0.0
H1067 H 0.59739 0.0196 0.28585 0.0
H1068 H 0.47604 0.47468 0.6348 0.0
H1069 H 0.49106 0.48443 0.7093 0.0
H1070 H 0.43769 0.47772 0.76539 0.0
H1071 H 0.42248 0.46718 0.69031 0.0
H1072 H 0.46455 0.51252 0.783 0.0
H1073 H 0.49956 0.47291 0.83566 0.0
H1074 H 0.50015 0.47106 0.77474 0.0
H1075 H 0.47697 0.46089 0.80389 0.0
C1076 C 0.46729 0.4745 0.66347 0.0
C1077 C 0.44837 0.47087 0.65616 0.0
C1078 C 0.47578 0.47989 0.70654 0.0
C1079 C 0.46552 0.48174 0.74376 0.0
C1080 C 0.44595 0.4764 0.73749 0.0
H1081 H 0.57344 0.55112 0.72795 0.0
H1082 H 0.55212 0.54317 0.79438 0.0
C1083 C 0.43737 0.47078 0.69407 0.0
C1084 C 0.4769 0.49368 0.7836 0.0
H1085 H 0.52425 0.50846 0.80219 0.0
C1086 C 0.47742 0.51149 0.78954 0.0
C1087 C 0.49313 0.49242 0.79869 0.0
C1088 C 0.49221 0.47312 0.80349 0.0
C1089 C 0.49542 0.52865 0.79379 0.0
C1090 C 0.51247 0.52743 0.78983 0.0
C1091 C 0.5112 0.50957 0.80057 0.0
C1092 C 0.52743 0.53972 0.75545 0.0
C1093 C 0.49633 0.54801 0.79416 0.0
C1094 C 0.52111 0.54152 0.7115 0.0
C1095 C 0.53334 0.5462 0.67364 0.0
C1096 C 0.55215 0.54928 0.67876 0.0
C1097 C 0.55918 0.5494 0.72313 0.0
C1098 C 0.54692 0.54471 0.76122 0.0
H1099 H 0.48486 0.54739 0.81694 0.0
H1100 H 0.51076 0.55973 0.80602 0.0
H1101 H 0.49371 0.55163 0.75916 0.0
H1102 H 0.50605 0.53719 0.70522 0.0
H1103 H 0.52758 0.54576 0.63975 0.0
H1104 H 0.02327 0.48902 0.98279 0.0
H1105 H 0.03815 0.50906 0.05001 0.0
H1106 H 0.02272 0.45772 0.13048 0.0
H1107 H 1.00844 0.43768 0.06164 0.0
H1108 H 1.00454 0.47725 0.1617 0.0
H1109 H 0.08064 0.5335 0.14401 0.0
H1110 H 0.07133 0.52396 0.08818 0.0
H1111 H 0.07192 0.5081 0.13147 0.0
C1112 C 0.02395 0.48215 0.01423 0.0
C1113 C 0.01422 0.46192 0.0178 0.0
C1114 C 0.03258 0.49356 0.05281 0.0
C1115 C 0.0316 0.48491 0.09567 0.0
C1116 C 0.02377 0.46473 0.09794 0.0
H1117 H 0.04196 0.58081 0.071 0.0
H1118 H 0.04126 0.56556 0.14334 0.0
C1119 C 0.01549 0.45333 0.05885 0.0
C1120 C 0.03373 0.49645 0.13737 0.0
H1121 H 0.05647 0.5454 0.13969 0.0
C1122 C 0.01626 0.49218 0.15927 0.0
C1123 C 0.0494 0.51565 0.13989 0.0
C1124 C 0.0695 0.52053 0.12531 0.0
C1125 C 0.01225 0.5072 0.1679 0.0
C1126 C 0.02578 0.52611 0.15271 0.0
C1127 C 0.04522 0.53063 0.14713 0.0
C1128 C 0.01918 0.53678 0.12235 0.0
C1129 C 0.99247 0.50234 0.18517 0.0
C1130 C 1.00548 0.52621 0.08781 0.0
C1131 C 1.00553 0.53509 0.04656 0.0
C1132 C 0.01924 0.55462 0.03887 0.0
C1133 C 0.03085 0.56582 0.07584 0.0
C1134 C 0.03063 0.557 0.11745 0.0
H1135 H 0.98924 0.49373 0.21718 0.0
H1136 H 0.99156 0.5156 0.19212 0.0
H1137 H 0.9812 0.49316 0.15975 0.0
H1138 H 0.99656 0.51056 0.0896 0.0
H1139 H 0.99654 0.52616 0.01861 0.0
H1140 H 0.97979 0.40707 0.34582 0.0
H1141 H 0.9515 0.40349 0.30346 0.0
H1142 H 0.9851 0.46378 0.26271 0.0
H1143 H 0.01298 0.4667 0.30239 0.0
H1144 H 0.93665 0.42041 0.34069 0.0
H1145 H 0.94629 0.45373 0.17233 0.0
H1146 H 0.95132 0.43418 0.18421 0.0
H1147 H 0.96957 0.45904 0.19309 0.0
C1148 C 0.98112 0.41917 0.32587 0.0
C1149 C 0.99826 0.43724 0.32769 0.0
C1150 C 0.96511 0.41708 0.30112 0.0
C1151 C 0.96586 0.43331 0.27964 0.0
C1152 C 0.98388 0.45072 0.27738 0.0
H1153 H 0.98569 0.52743 0.32132 0.0
H1154 H 0.97169 0.49618 0.28441 0.0
C1155 C 0.9999 0.45261 0.30109 0.0
C1156 C 0.94797 0.43478 0.27625 0.0
H1157 H 0.94447 0.47309 0.23741 0.0
C1158 C 0.93789 0.43167 0.31766 0.0
C1159 C 0.94701 0.44755 0.24426 0.0
C1160 C 0.95381 0.44857 0.19566 0.0
C1161 C 0.93422 0.44596 0.33498 0.0
C1162 C 0.93903 0.46252 0.30729 0.0
C1163 C 0.94252 0.46149 0.26025 0.0
C1164 C 0.94595 0.48217 0.32761 0.0
C1165 C 0.92785 0.44407 0.38439 0.0
C1166 C 0.93658 0.48529 0.36463 0.0
C1167 C 0.94585 0.50265 0.38923 0.0
C1168 C 0.96356 0.51835 0.374 0.0
C1169 C 0.97218 0.5158 0.3346 0.0
C1170 C 0.9638 0.49785 0.31261 0.0
H1171 H 0.92588 0.43057 0.4007 0.0
H1172 H 0.93878 0.4565 0.40485 0.0
H1173 H 0.91365 0.44353 0.3863 0.0
H1174 H 0.92224 0.47431 0.37538 0.0
H1175 H 0.9386 0.50412 0.41882 0.0
H1176 H 0.46248 0.02009 0.6162 0.0
H1177 H 0.48355 0.02884 0.54796 0.0
H1178 H 0.48956 0.97828 0.57103 0.0
H1179 H 0.46883 0.97001 0.63765 0.0
H1180 H 0.5182 0.04145 0.54871 0.0
H1181 H 0.50062 0.98097 0.44083 0.0
H1182 H 0.48133 0.9821 0.47113 0.0
H1183 H 0.49201 0.96831 0.49386 0.0
C1184 C 0.46843 0.01101 0.60597 0.0
C1185 C 0.46496 0.99492 0.63264 0.0
C1186 C 0.48011 0.01574 0.56667 0.0
C1187 C 0.48832 1.00431 0.55353 0.0
C1188 C 0.48344 0.9874 0.57902 0.0
H1189 H 0.53133 0.9908 0.67994 0.0
H1190 H 0.52152 0.98889 0.60029 0.0
C1191 C 0.47198 0.98284 0.61806 0.0
C1192 C 0.50563 0.01221 0.52283 0.0
H1193 H 0.53088 0.98922 0.49988 0.0
C1194 C 0.52113 0.03042 0.53553 0.0
C1195 C 0.51027 0.9993 0.50021 0.0
C1196 C 0.49503 0.98171 0.4752 0.0
C1197 C 0.53949 0.03257 0.54341 0.0
C1198 C 0.54185 0.01616 0.53696 0.0
C1199 C 0.52854 1.00117 0.50847 0.0
C1200 C 0.55001 0.01052 0.57573 0.0
C1201 C 0.55423 0.05044 0.56876 0.0
C1202 C 0.56963 0.02169 0.58757 0.0
C1203 C 0.57519 0.02281 0.63332 0.0
C1204 C 0.56122 0.0124 0.66754 0.0
C1205 C 0.5423 0.99886 0.65427 0.0
C1206 C 0.53676 0.9978 0.60857 0.0
H1207 H 0.55224 0.06305 0.56133 0.0
H1208 H 0.55241 0.04762 0.60621 0.0
H1209 H 0.56924 0.0544 0.55938 0.0
H1210 H 0.58018 0.03139 0.56293 0.0
H1211 H 0.58985 0.03374 0.64236 0.0
H1212 H 0.54242 0.57443 0.04197 0.0
H1213 H 0.52756 0.54495 0.99513 0.0
H1214 H 0.54608 0.51702 0.09355 0.0
H1215 H 0.5623 0.54678 0.13737 0.0
H1216 H 0.5364 0.49664 0.02048 0.0
H1217 H 0.47779 0.51348 0.05981 0.0
H1218 H 0.49453 0.52874 0.0169 0.0
H1219 H 0.50259 0.52977 0.07524 0.0
C1220 C 0.54424 0.56236 0.05198 0.0
C1221 C 0.55267 0.56251 0.09432 0.0
C1222 C 0.5356 0.54543 0.02551 0.0
C1223 C 0.53443 0.52837 0.04284 0.0
C1224 C 0.54621 0.52979 0.08009 0.0
H1225 H 0.407 0.39789 0.08027 0.0
H1226 H 0.43391 0.4228 0.13224 0.0
C1227 C 0.55558 0.54693 0.10525 0.0
C1228 C 0.51791 0.50893 0.031 0.0
H1229 H 0.46851 0.48273 0.03375 0.0
C1230 C 0.52151 0.49355 0.02331 0.0
C1231 C 0.49842 0.50477 0.03565 0.0
C1232 C 0.49306 0.52 0.04779 0.0
C1233 C 0.50627 0.47416 0.02185 0.0
C1234 C 0.48688 0.47013 0.02652 0.0
C1235 C 0.48331 0.4856 0.0315 0.0
C1236 C 0.46977 0.44992 0.02368 0.0
C1237 C 0.51118 0.45823 0.01701 0.0
C1238 C 0.46621 0.4362 0.9818 0.0
C1239 C 0.44691 0.41676 0.98503 0.0
C1240 C 0.43282 0.42143 0.03171 0.0
C1241 C 0.42203 0.40463 0.06963 0.0
C1242 C 0.43619 0.42067 0.09626 0.0
H1243 H 0.5265 0.46325 0.02661 0.0
H1244 H 0.50155 0.44558 0.03872 0.0
H1245 H 0.50924 0.45347 0.98078 0.0
H1246 H 0.47621 0.43993 0.95351 0.0
H1247 H 0.44223 0.40398 0.96407 0.0
H1248 H 0.36577 0.97254 0.68987 0.0
H1249 H 0.36787 0.99467 0.62905 0.0
H1250 H 0.36581 0.95417 0.52779 0.0
H1251 H 0.36321 0.93185 0.58879 0.0
H1252 H 0.39998 0.00986 0.57785 0.0
H1253 H 0.33656 0.97658 0.46203 0.0
H1254 H 0.33578 0.9677 0.51943 0.0
H1255 H 0.34592 0.9606 0.4732 0.0
C1256 C 0.36453 0.96788 0.65454 0.0
C1257 C 0.36388 0.95034 0.64386 0.0
C1258 C 0.36596 0.98062 0.61979 0.0
C1259 C 0.36695 0.97613 0.57372 0.0
C1260 C 0.36461 0.95782 0.56291 0.0
H1261 H 0.42401 0.02753 0.33133 0.0
H1262 H 0.40232 0.00787 0.39249 0.0
C1263 C 0.363 0.94497 0.59779 0.0
C1264 C 0.37422 0.99175 0.53849 0.0
H1265 H 0.36671 1.00184 0.42914 0.0
C1266 C 0.39246 0.00836 0.5458 0.0
C1267 C 0.36449 0.98977 0.49657 0.0
C1268 C 0.34451 0.97277 0.48749 0.0
C1269 C 0.40177 0.02236 0.51139 0.0
C1270 C 0.39246 0.0199 0.46861 0.0
C1271 C 0.37379 1.0038 0.46204 0.0
C1272 C 0.40315 0.03205 0.42845 0.0
C1273 C 0.42209 0.03894 0.51998 0.0
C1274 C 0.41037 0.05224 0.42737 0.0
C1275 C 0.42291 0.06367 0.39201 0.0
C1276 C 0.42844 0.05502 0.35762 0.0
C1277 C 0.42023 0.0347 0.35761 0.0
C1278 C 0.4077 0.02338 0.39246 0.0
H1279 H 0.42824 0.0372 0.55262 0.0
H1280 H 0.43191 0.04015 0.49153 0.0
H1281 H 0.42185 0.05277 0.52168 0.0
H1282 H 0.40684 0.0592 0.45461 0.0
H1283 H 0.429 0.07927 0.39285 0.0
H1284 H 0.40039 0.36786 0.01493 0.0
H1285 H 0.38448 0.37036 0.94609 0.0
H1286 H 0.42046 0.35592 0.86333 0.0
H1287 H 0.4367 0.35372 0.93264 0.0
H1288 H 0.42562 0.39187 0.84494 0.0
H1289 H 0.34679 0.33881 0.84546 0.0
H1290 H 0.35512 0.35135 0.89903 0.0
H1291 H 0.36391 0.33561 0.87979 0.0
C1292 C 0.40418 0.36419 0.98224 0.0
C1293 C 0.41972 0.36053 0.97907 0.0
C1294 C 0.39506 0.36563 0.94279 0.0
C1295 C 0.40122 0.36331 0.89941 0.0
C1296 C 0.41539 0.35766 0.89648 0.0
H1297 H 0.3913 0.40775 0.63496 0.0
H1298 H 0.39304 0.38719 0.69506 0.0
C1299 C 0.42451 0.35616 0.93612 0.0
C1300 C 0.39574 0.37049 0.8582 0.0
H1301 H 0.35714 0.36755 0.79929 0.0
C1302 C 0.41066 0.38627 0.83443 0.0
C1303 C 0.3762 0.36348 0.84507 0.0
C1304 C 0.3596 0.34626 0.86844 0.0
C1305 C 0.40659 0.39553 0.79881 0.0
C1306 C 0.38705 0.38867 0.78603 0.0
C1307 C 0.37209 0.37276 0.80926 0.0
C1308 C 0.38227 0.39815 0.74855 0.0
C1309 C 0.42318 0.41302 0.77593 0.0
C1310 C 0.37475 0.41043 0.75835 0.0
C1311 C 0.37378 0.42225 0.72394 0.0
C1312 C 0.38042 0.42192 0.67954 0.0
C1313 C 0.38648 0.40852 0.66918 0.0
C1314 C 0.38738 0.39671 0.70336 0.0
H1315 H 0.43701 0.41859 0.79523 0.0
H1316 H 0.42541 0.40896 0.74101 0.0
H1317 H 0.41979 0.42493 0.77243 0.0
H1318 H 0.37076 0.41175 0.79311 0.0
H1319 H 0.36922 0.4326 0.7328 0.0
H1320 H 0.93472 0.36574 0.08096 0.0
H1321 H 0.95623 0.36723 0.14333 0.0
H1322 H 0.99867 0.37222 0.04401 0.0
H1323 H 0.97722 0.37063 0.98205 0.0
H1324 H 0.99745 0.35101 0.12518 0.0
H1325 H 1.00327 0.42246 0.16163 0.0
H1326 H 0.97928 0.40175 0.16636 0.0
H1327 H 0.99105 0.40837 0.11149 0.0
C1328 C 0.94818 0.36609 0.0726 0.0
C1329 C 0.9542 0.36769 0.02682 0.0
C1330 C 0.9606 0.36725 0.10818 0.0
C1331 C 0.97921 0.37016 0.09831 0.0
C1332 C 0.98441 0.36995 0.05248 0.0
H1333 H 0.08423 0.43728 0.2529 0.0
H1334 H 0.06177 0.42015 0.18979 0.0
C1335 C 0.97207 0.36888 0.01707 0.0
C1336 C 0.99429 0.37616 0.13458 0.0
H1337 H 0.02238 0.41383 0.2065 0.0
C1338 C 1.00282 0.36466 0.14325 0.0
C1339 C 1.00153 0.39418 0.15752 0.0
C1340 C 0.99348 0.40753 0.14866 0.0
C1341 C 0.01829 0.37066 0.17452 0.0
C1342 C 0.02548 0.38865 0.19728 0.0
C1343 C 0.01694 0.4001 0.18866 0.0
C1344 C 0.04149 0.39588 0.23134 0.0
C1345 C 0.02712 0.35798 0.18252 0.0
C1346 C 0.03806 0.38742 0.27501 0.0
C1347 C 0.05096 0.39716 0.31096 0.0
C1348 C 0.06755 0.41542 0.30373 0.0
C1349 C 0.07195 0.42292 0.25904 0.0
C1350 C 0.05895 0.41327 0.22314 0.0
H1351 H 0.02205 0.34604 0.15702 0.0
H1352 H 0.04322 0.36679 0.18107 0.0
H1353 H 0.02306 0.35145 0.21723 0.0
H1354 H 0.02456 0.3742 0.28232 0.0
H1355 H 0.0469 0.39143 0.34539 0.0
H1356 H 0.63959 0.03545 0.68976 0.0
H1357 H 0.63437 0.01383 0.62513 0.0
H1358 H 0.63485 0.05642 0.53267 0.0
H1359 H 0.63982 0.07799 0.59789 0.0
H1360 H 0.60254 0.02153 0.52306 0.0
H1361 H 0.66597 0.01052 0.52084 0.0
H1362 H 0.65499 0.00636 0.57647 0.0
H1363 H 0.66602 0.03026 0.55157 0.0
C1364 C 0.63951 0.04055 0.65536 0.0
C1365 C 0.64068 0.0586 0.64859 0.0
C1366 C 0.63646 0.02815 0.61838 0.0
C1367 C 0.63447 0.03353 0.57374 0.0
C1368 C 0.63656 0.05201 0.56666 0.0
H1369 H 0.6082 0.96798 0.31933 0.0
H1370 H 0.62483 0.99119 0.38152 0.0
C1371 C 0.63968 0.06446 0.60379 0.0
C1372 C 0.62784 0.01897 0.53588 0.0
H1373 H 0.63759 0.98676 0.48065 0.0
C1374 C 0.61029 0.01405 0.51366 0.0
C1375 C 0.63798 0.00922 0.52322 0.0
C1376 C 0.65738 0.01449 0.54395 0.0
C1377 C 0.60238 0.99937 0.48023 0.0
C1378 C 0.61213 0.98913 0.46887 0.0
C1379 C 0.62994 0.99436 0.49005 0.0
C1380 C 0.60425 0.97349 0.43368 0.0
C1381 C 0.58384 0.99518 0.45645 0.0
C1382 C 0.58775 0.95537 0.44285 0.0
C1383 C 0.57846 0.94189 0.40745 0.0
C1384 C 0.58557 0.94632 0.3624 0.0
C1385 C 0.60283 0.9639 0.35404 0.0
C1386 C 0.61218 0.9773 0.38941 0.0
H1387 H 0.57848 1.005 0.46794 0.0
H1388 H 0.58634 0.99687 0.4189 0.0
H1389 H 0.57234 0.97996 0.46315 0.0
H1390 H 0.58139 0.95216 0.4768 0.0
H1391 H 0.56478 0.92883 0.41449 0.0
H1392 H 0.59092 0.6014 0.04204 0.0
H1393 H 0.60909 0.59931 0.97745 0.0
H1394 H 0.60377 0.64419 0.90739 0.0
H1395 H 0.58535 0.64642 0.97266 0.0
H1396 H 0.59185 0.6098 0.85569 0.0
H1397 H 0.66455 0.63518 0.93118 0.0
H1398 H 0.6451 0.61717 0.9654 0.0
H1399 H 0.64695 0.64044 0.95665 0.0
C1400 C 0.59386 0.61114 0.01336 0.0
C1401 C 0.58668 0.62415 0.01266 0.0
C1402 C 0.60441 0.60998 0.97647 0.0
C1403 C 0.60808 0.62179 0.93782 0.0
C1404 C 0.60128 0.63508 0.93713 0.0
H1405 H 0.64693 0.60689 0.66825 0.0
H1406 H 0.64244 0.62273 0.73543 0.0
C1407 C 0.5908 0.63639 0.97445 0.0
C1408 C 0.61737 0.6187 0.89688 0.0
H1409 H 0.65722 0.61618 0.8623 0.0
C1410 C 0.6063 0.61159 0.85676 0.0
C1411 C 0.63613 0.62078 0.89856 0.0
C1412 C 0.64896 0.62898 0.94013 0.0
C1413 C 0.61312 0.60572 0.81907 0.0
C1414 C 0.63171 0.60739 0.82113 0.0
C1415 C 0.64301 0.61496 0.86076 0.0
C1416 C 0.63901 0.60037 0.78302 0.0
C1417 C 0.59998 0.59682 0.77816 0.0
C1418 C 0.63981 0.5832 0.78804 0.0
C1419 C 0.64267 0.57428 0.7497 0.0
C1420 C 0.64497 0.58256 0.70605 0.0
C1421 C 0.64578 0.60055 0.70179 0.0
C1422 C 0.64292 0.60944 0.74001 0.0
H1423 H 0.58492 0.59366 0.78497 0.0
H1424 H 0.60579 0.60695 0.74866 0.0
H1425 H 0.59946 0.58309 0.76818 0.0
H1426 H 0.63675 0.57592 0.82092 0.0
H1427 H 0.64134 0.56011 0.75355 0.0
H1428 H 0.07057 0.66467 0.01391 0.0
H1429 H 0.05094 0.6653 0.07862 0.0
H1430 H 0.05604 0.61941 0.14435 0.0
H1431 H 0.07579 0.61918 0.08102 0.0
H1432 H 0.01606 0.63592 0.10074 0.0
H1433 H 0.0623 0.65219 0.25315 0.0
H1434 H 0.07224 0.65685 0.19592 0.0
H1435 H 0.0626 0.63309 0.22133 0.0
C1436 C 0.06833 0.65553 0.04344 0.0
C1437 C 0.07507 0.64222 0.04312 0.0
C1438 C 0.05688 0.65566 0.08007 0.0
C1439 C 0.05216 0.64258 0.11689 0.0
C1440 C 0.05988 0.63008 0.11738 0.0
H1441 H 0.94974 0.57192 0.26485 0.0
H1442 H 0.97308 0.59125 0.20539 0.0
C1443 C 0.07124 0.62997 0.08109 0.0
C1444 C 0.03733 0.63995 0.15187 0.0
H1445 H 0.02747 0.63126 0.26599 0.0
C1446 C 0.01868 0.63537 0.13703 0.0
C1447 C 0.04066 0.63956 0.19938 0.0
C1448 C 0.06062 0.64591 0.21832 0.0
C1449 C 1.00306 0.62907 0.16794 0.0
C1450 C 1.00599 0.62673 0.21487 0.0
C1451 C 0.02496 0.63269 0.23005 0.0
C1452 C 0.98959 0.61661 0.24814 0.0
C1453 C 0.98356 0.62478 0.14966 0.0
C1454 C 0.99077 0.62429 0.29225 0.0
C1455 C 0.97753 0.61303 0.3265 0.0
C1456 C 0.96262 0.59405 0.31707 0.0
C1457 C 0.96064 0.5868 0.27241 0.0
C1458 C 0.97406 0.5979 0.23836 0.0
H1459 H 0.98532 0.63435 0.12013 0.0
H1460 H 0.97553 0.60956 0.13719 0.0
H1461 H 0.97471 0.62672 0.17633 0.0
H1462 H 1.00263 0.63858 0.30097 0.0
H1463 H 0.97971 0.61868 0.3611 0.0
H1464 H 0.51876 0.1391 0.37823 0.0
H1465 H 0.54196 0.14821 0.44268 0.0
H1466 H 0.53561 0.0911 0.43983 0.0
H1467 H 0.5125 0.0819 0.378 0.0
H1468 H 0.53468 0.12511 0.53368 0.0
H1469 H 0.59635 0.13228 0.43061 0.0
H1470 H 0.57648 0.13419 0.40585 0.0
H1471 H 0.57383 0.11077 0.41754 0.0
C1472 C 0.52235 0.12855 0.39149 0.0
C1473 C 0.514 0.10986 0.37208 0.0
C1474 C 0.53561 0.13377 0.42816 0.0
C1475 C 0.54077 0.12041 0.44539 0.0
C1476 C 0.53216 0.10177 0.42657 0.0
H1477 H 0.57286 0.08064 0.67277 0.0
H1478 H 0.55815 0.09114 0.61473 0.0
C1479 C 0.51892 0.09656 0.39082 0.0
C1480 C 0.55463 0.12505 0.48391 0.0
H1481 H 0.59565 0.12336 0.5102 0.0
C1482 C 0.54832 0.12535 0.52863 0.0
C1483 C 0.57249 0.12548 0.47741 0.0
C1484 C 0.58031 0.12588 0.43016 0.0
C1485 C 0.55866 0.12452 0.56691 0.0
C1486 C 0.57552 0.123 0.56021 0.0
C1487 C 0.58266 0.12435 0.51556 0.0
C1488 C 0.58461 0.11774 0.59812 0.0
C1489 C 0.55101 0.12459 0.61415 0.0
C1490 C 0.60458 0.12898 0.60778 0.0
C1491 C 0.61316 0.12296 0.64125 0.0
C1492 C 0.60195 0.10543 0.66519 0.0
C1493 C 0.58197 0.09429 0.65536 0.0
C1494 C 0.57345 0.10036 0.6223 0.0
H1495 H 0.54294 0.13267 0.61446 0.0
H1496 H 0.54075 0.10941 0.62472 0.0
H1497 H 0.56293 0.13121 0.63969 0.0
H1498 H 0.61355 0.14234 0.58916 0.0
H1499 H 0.62859 0.13183 0.64776 0.0
H1500 H 0.44529 0.52042 0.67775 0.0
H1501 H 0.45987 0.53948 0.74631 0.0
H1502 H 0.40323 0.51614 0.80795 0.0
H1503 H 0.3883 0.49695 0.73819 0.0
H1504 H 0.45726 0.56699 0.79268 0.0
H1505 H 0.43163 0.50128 0.90136 0.0
H1506 H 0.42993 0.50012 0.83973 0.0
H1507 H 0.41274 0.50343 0.87291 0.0
C1508 C 0.43583 0.51943 0.70564 0.0
C1509 C 0.41561 0.50703 0.70263 0.0
C1510 C 0.44424 0.53036 0.745 0.0
C1511 C 0.43279 0.5289 0.78299 0.0
C1512 C 0.41246 0.51717 0.77952 0.0
H1513 H 0.49383 0.60921 0.01251 0.0
H1514 H 0.47138 0.59245 0.94919 0.0
C1515 C 0.40391 0.50637 0.73952 0.0
C1516 C 0.44255 0.53918 0.82622 0.0
H1517 H 0.45047 0.5315 0.93742 0.0
C1518 C 0.45562 0.55928 0.82452 0.0
C1519 C 0.44085 0.52904 0.86742 0.0
C1520 C 0.42819 0.50726 0.87063 0.0
C1521 C 0.46733 0.56941 0.86227 0.0
C1522 C 0.46533 0.55937 0.90393 0.0
C1523 C 0.45193 0.53932 0.90585 0.0
C1524 C 0.47783 0.56903 0.94486 0.0
C1525 C 0.48252 0.59051 0.85596 0.0
C1526 C 0.48821 0.56101 0.96558 0.0
C1527 C 0.50055 0.57025 1.00275 0.0
C1528 C 0.50308 0.58791 0.01983 0.0
C1529 C 0.49237 0.59573 0.99988 0.0
C1530 C 0.47966 0.58624 0.96329 0.0
H1531 H 0.48608 0.59423 0.8192 0.0
H1532 H 0.47688 0.59977 0.86957 0.0
H1533 H 0.49614 0.59412 0.87439 0.0
H1534 H 0.48712 0.54777 0.95232 0.0
H1535 H 0.50861 0.56388 0.01718 0.0
H1536 H 0.88761 0.41152 0.99164 0.0
H1537 H 0.88001 0.42823 0.05237 0.0
H1538 H 0.92065 0.42375 0.14214 0.0
H1539 H 0.92867 0.40774 0.08141 0.0
H1540 H 0.88897 0.41989 0.18923 0.0
H1541 H 0.92013 0.48499 0.07629 0.0
H1542 H 0.89959 0.46363 0.05339 0.0
H1543 H 0.92203 0.46385 0.06309 0.0
C1544 C 0.89458 0.41382 0.02474 0.0
C1545 C 0.90879 0.40853 0.03201 0.0
C1546 C 0.89038 0.42348 0.05924 0.0
C1547 C 0.90029 0.42786 0.1014 0.0
C1548 C 0.91323 0.42104 0.10965 0.0
H1549 H 0.94389 0.52353 0.28108 0.0
H1550 H 0.93569 0.49924 0.22162 0.0
C1551 C 0.9177 0.41177 0.07506 0.0
C1552 C 0.89893 0.44117 0.13524 0.0
H1553 H 0.91104 0.48856 0.15026 0.0
C1554 C 0.89352 0.43484 0.18063 0.0
C1555 C 0.90519 0.46079 0.12417 0.0
C1556 C 0.91223 0.46885 0.07675 0.0
C1557 C 0.89464 0.44766 0.21537 0.0
C1558 C 0.9011 0.46732 0.20429 0.0
C1559 C 0.90593 0.47347 0.15866 0.0
C1560 C 0.90527 0.48232 0.23992 0.0
C1561 C 0.8896 0.44017 0.26384 0.0
C1562 C 0.8908 0.48127 0.26961 0.0
C1563 C 0.89551 0.49534 0.30397 0.0
C1564 C 0.91476 0.51056 0.30916 0.0
C1565 C 0.92896 0.51186 0.27834 0.0
C1566 C 0.92428 0.49798 0.24418 0.0
H1567 H 0.89028 0.42666 0.26875 0.0
H1568 H 0.89945 0.45113 0.28899 0.0
H1569 H 0.87457 0.43685 0.27151 0.0
H1570 H 0.87596 0.46951 0.2665 0.0
H1571 H 0.88428 0.49398 0.32725 0.0
H1572 H 0.50308 0.87714 0.37805 0.0
H1573 H 0.47813 0.86733 0.43834 0.0
H1574 H 0.46484 0.91078 0.39108 0.0
H1575 H 0.48938 0.92053 0.33167 0.0
H1576 H 0.47836 0.89188 0.50789 0.0
H1577 H 0.41074 0.86362 0.40759 0.0
H1578 H 0.4328 0.86585 0.38395 0.0
H1579 H 0.42928 0.88654 0.38562 0.0
C1580 C 0.49454 0.88428 0.38008 0.0
C1581 C 0.49824 0.89962 0.35008 0.0
C1582 C 0.48032 0.87871 0.41453 0.0
C1583 C 0.46934 0.88809 0.41878 0.0
C1584 C 0.47273 0.90299 0.38795 0.0
H1585 H 0.43114 0.93332 0.618 0.0
H1586 H 0.44579 0.92241 0.56127 0.0
C1587 C 0.48695 0.90867 0.35415 0.0
C1588 C 0.45576 0.8841 0.45781 0.0
H1589 H 0.41082 0.8778 0.48182 0.0
C1590 C 0.46341 0.88822 0.50236 0.0
C1591 C 0.43615 0.87912 0.45093 0.0
C1592 C 0.4267 0.87333 0.40444 0.0
C1593 C 0.45257 0.88922 0.53928 0.0
C1594 C 0.43366 0.88617 0.53144 0.0
C1595 C 0.42537 0.88033 0.4878 0.0
C1596 C 0.42381 0.89208 0.56593 0.0
C1597 C 0.46185 0.89457 0.58603 0.0
C1598 C 0.40608 0.87869 0.58661 0.0
C1599 C 0.39746 0.88493 0.6197 0.0
C1600 C 0.4064 0.90467 0.63207 0.0
C1601 C 0.42382 0.91796 0.60994 0.0
C1602 C 0.43236 0.91175 0.57745 0.0
H1603 H 0.47328 0.8905 0.58982 0.0
H1604 H 0.46881 0.91052 0.5907 0.0
H1605 H 0.45087 0.88738 0.61353 0.0
H1606 H 0.39913 0.86344 0.57775 0.0
H1607 H 0.38405 0.87434 0.63596 0.0
H1608 H 0.62858 0.50484 0.71088 0.0
H1609 H 0.61259 0.48047 0.77181 0.0
H1610 H 0.55684 0.46253 0.71014 0.0
H1611 H 0.57256 0.48673 0.64999 0.0
H1612 H 0.58419 0.48154 0.83069 0.0
H1613 H 0.55382 0.41051 0.74302 0.0
H1614 H 0.57386 0.43255 0.71992 0.0
H1615 H 0.54928 0.42751 0.71274 0.0
C1616 C 0.61298 0.4953 0.70974 0.0
C1617 C 0.6018 0.49768 0.67577 0.0
C1618 C 0.60387 0.48146 0.74457 0.0
C1619 C 0.58355 0.46953 0.74518 0.0
C1620 C 0.57255 0.47129 0.70992 0.0
H1621 H 0.49128 0.42293 0.92899 0.0
H1622 H 0.51621 0.43841 0.8701 0.0
C1623 C 0.58156 0.48523 0.6757 0.0
C1624 C 0.57333 0.457 0.78512 0.0
H1625 H 0.53767 0.41104 0.81291 0.0
C1626 C 0.57441 0.46603 0.8272 0.0
C1627 C 0.56055 0.43677 0.78052 0.0
C1628 C 0.55941 0.42621 0.73671 0.0
C1629 C 0.56207 0.45561 0.86371 0.0
C1630 C 0.54837 0.43569 0.85797 0.0
C1631 C 0.54815 0.42635 0.81705 0.0
C1632 C 0.53283 0.42511 0.89216 0.0
C1633 C 0.563 0.46612 0.90749 0.0
C1634 C 0.53372 0.41215 0.92339 0.0
C1635 C 0.51952 0.40341 0.95762 0.0
C1636 C 0.50428 0.40755 0.96091 0.0
C1637 C 0.50307 0.41985 0.92814 0.0
C1638 C 0.51724 0.42861 0.89428 0.0
H1639 H 0.57655 0.48044 0.90979 0.0
H1640 H 0.55042 0.46856 0.90895 0.0
H1641 H 0.56211 0.45721 0.9377 0.0
H1642 H 0.54565 0.40923 0.92206 0.0
H1643 H 0.52081 0.39394 0.9823 0.0
H1644 H 0.13327 0.50633 0.29809 0.0
H1645 H 0.14301 0.53116 0.23782 0.0
H1646 H 0.08566 0.52433 0.23995 0.0
H1647 H 0.07607 0.50022 0.30028 0.0
H1648 H 0.12761 0.52809 0.15079 0.0
H1649 H 0.11982 0.58274 0.25092 0.0
H1650 H 0.12069 0.56269 0.27761 0.0
H1651 H 0.09826 0.55937 0.25417 0.0
C1652 C 0.12282 0.51027 0.28593 0.0
C1653 C 0.10389 0.50126 0.30415 0.0
C1654 C 0.1284 0.52443 0.2515 0.0
C1655 C 0.11519 0.52991 0.23506 0.0
C1656 C 0.09628 0.52076 0.2529 0.0
H1657 H 0.09082 0.56651 0.99005 0.0
H1658 H 0.09906 0.5509 0.05044 0.0
C1659 C 0.09075 0.50676 0.28718 0.0
C1660 C 0.12054 0.5445 0.19786 0.0
H1661 H 0.11743 0.58446 0.16852 0.0
C1662 C 0.12582 0.54067 0.1549 0.0
C1663 C 0.11858 0.56115 0.20326 0.0
C1664 C 0.11423 0.56685 0.24916 0.0
C1665 C 0.12775 0.5522 0.11651 0.0
C1666 C 0.12399 0.56776 0.12108 0.0
C1667 C 0.12016 0.57245 0.16476 0.0
C1668 C 0.12139 0.57766 0.08067 0.0
C1669 C 0.13331 0.54724 0.0712 0.0
C1670 C 0.13124 0.59805 0.07712 0.0
C1671 C 0.12653 0.60715 0.04217 0.0
C1672 C 0.11164 0.59595 0.01083 0.0
C1673 C 0.10236 0.57558 0.01363 0.0
C1674 C 0.10716 0.56658 0.04807 0.0
H1675 H 0.14269 0.5407 0.07626 0.0
H1676 H 0.11996 0.53635 0.05324 0.0
H1677 H 0.14108 0.56025 0.04896 0.0
H1678 H 0.14215 0.60691 0.10216 0.0
H1679 H 0.1338 0.62286 0.04111 0.0
loop_
_geom_bond_atom_site_label_1
_geom_bond_atom_site_label_2
_geom_bond_distance
_geom_bond_site_symmetry_2
_ccdc_geom_bond_type
Zn0 O1 2.055 . S
Zn0 O8 2.046 . S
Zn0 N16 2.036 . S
Zn0 O28 2.053 . S
Zn0 O30 2.066 . S
O1 Zn0 2.055 . S
O1 C4 1.259 . S
C2 O30 1.256 . S
C2 O31 1.244 . S
Zn3 O5 2.046 . S
Zn3 O7 2.055 . S
Zn3 N9 2.036 . S
Zn3 O27 2.066 . S
Zn3 O31 2.053 . S
C4 O1 1.259 . S
C4 O5 1.254 . S
O5 Zn3 2.046 . S
O5 C4 1.254 . S
C6 O27 1.256 . S
C6 O28 1.244 . S
O7 Zn3 2.055 . S
O7 C29 1.259 . S
O8 Zn0 2.046 . S
O8 C29 1.254 . S
N9 Zn3 2.036 . S
N9 C10 1.298 . S
N9 N12 1.398 . S
C10 N9 1.298 . S
C10 N13 1.367 . S
C10 C23 1.481 . S
C11 N12 1.299 . S
C11 N13 1.379 . S
N12 N9 1.398 . S
N12 C11 1.299 . S
N13 C10 1.367 . S
N13 C11 1.379 . S
C14 N16 1.298 . S
C14 N18 1.367 . S
C14 C22 1.481 . S
C15 N17 1.299 . S
C15 N18 1.379 . S
N16 Zn0 2.036 . S
N16 C14 1.298 . S
N16 N17 1.398 . S
N17 C15 1.299 . S
N17 N16 1.398 . S
N18 C14 1.367 . S
N18 C15 1.379 . S
H19 C22 0.980 . S
H20 C22 0.981 . S
H21 C22 0.981 . S
C22 C14 1.481 . S
C22 H19 0.980 . S
C22 H20 0.981 . S
C22 H21 0.981 . S
C23 C10 1.481 . S
C23 H24 0.980 . S
C23 H25 0.981 . S
C23 H26 0.981 . S
H24 C23 0.980 . S
H25 C23 0.981 . S
H26 C23 0.981 . S
O27 Zn3 2.066 . S
O27 C6 1.256 . S
O28 Zn0 2.053 . S
O28 C6 1.244 . S
C29 O7 1.259 . S
C29 O8 1.254 . S
O30 Zn0 2.066 . S
O30 C2 1.256 . S
O31 C2 1.244 . S
O31 Zn3 2.053 . S
Zn32 O33 2.055 . S
Zn32 O40 2.046 . S
Zn32 N48 2.036 . S
Zn32 O60 2.053 . S
Zn32 O62 2.066 . S
O33 Zn32 2.055 . S
O33 C36 1.259 . S
C34 O62 1.256 . S
C34 O63 1.244 . S
Zn35 O37 2.046 . S
Zn35 O39 2.055 . S
Zn35 N41 2.036 . S
Zn35 O59 2.066 . S
Zn35 O63 2.053 . S
C36 O33 1.259 . S
C36 O37 1.254 . S
O37 Zn35 2.046 . S
O37 C36 1.254 . S
C38 O59 1.256 . S
C38 O60 1.244 . S
O39 Zn35 2.055 . S
O39 C61 1.259 . S
O40 Zn32 2.046 . S
O40 C61 1.254 . S
N41 Zn35 2.036 . S
N41 C42 1.298 . S
N41 N44 1.398 . S
C42 N41 1.298 . S
C42 N45 1.367 . S
C42 C55 1.481 . S
C43 N44 1.299 . S
C43 N45 1.379 . S
N44 N41 1.398 . S
N44 C43 1.299 . S
N45 C42 1.367 . S
N45 C43 1.379 . S
C46 N48 1.298 . S
C46 N50 1.367 . S
C46 C54 1.481 . S
C47 N49 1.299 . S
C47 N50 1.379 . S
N48 Zn32 2.036 . S
N48 C46 1.298 . S
N48 N49 1.398 . S
N49 C47 1.299 . S
N49 N48 1.398 . S
N50 C46 1.367 . S
N50 C47 1.379 . S
H51 C54 0.980 . S
H52 C54 0.981 . S
H53 C54 0.981 . S
C54 C46 1.481 . S
C54 H51 0.980 . S
C54 H52 0.981 . S
C54 H53 0.981 . S
C55 C42 1.481 . S
C55 H56 0.980 . S
C55 H57 0.981 . S
C55 H58 0.981 . S
H56 C55 0.980 . S
H57 C55 0.981 . S
H58 C55 0.981 . S
O59 Zn35 2.066 . S
O59 C38 1.256 . S
O60 Zn32 2.053 . S
O60 C38 1.244 . S
C61 O39 1.259 . S
C61 O40 1.254 . S
O62 Zn32 2.066 . S
O62 C34 1.256 . S
O63 C34 1.244 . S
O63 Zn35 2.053 . S
Zn64 O65 2.055 . S
Zn64 O72 2.046 . S
Zn64 N80 2.036 . S
Zn64 O92 2.053 . S
Zn64 O94 2.066 . S
O65 Zn64 2.055 . S
O65 C68 1.259 . S
C66 O94 1.256 . S
C66 O95 1.244 . S
Zn67 O69 2.046 . S
Zn67 O71 2.055 . S
Zn67 N73 2.036 . S
Zn67 O91 2.066 . S
Zn67 O95 2.053 . S
C68 O65 1.259 . S
C68 O69 1.254 . S
O69 Zn67 2.046 . S
O69 C68 1.254 . S
C70 O91 1.256 . S
C70 O92 1.244 . S
O71 Zn67 2.055 . S
O71 C93 1.259 . S
O72 Zn64 2.046 . S
O72 C93 1.254 . S
N73 Zn67 2.036 . S
N73 C74 1.298 . S
N73 N76 1.398 . S
C74 N73 1.298 . S
C74 N77 1.367 . S
C74 C87 1.481 1_556 S
C75 N76 1.299 . S
C75 N77 1.379 . S
N76 N73 1.398 . S
N76 C75 1.299 . S
N77 C74 1.367 . S
N77 C75 1.379 . S
C78 N80 1.298 . S
C78 N82 1.367 . S
C78 C86 1.481 . S
C79 N81 1.299 . S
C79 N82 1.379 . S
N80 Zn64 2.036 . S
N80 C78 1.298 . S
N80 N81 1.398 . S
N81 C79 1.299 . S
N81 N80 1.398 . S
N82 C78 1.367 . S
N82 C79 1.379 . S
H83 C86 0.980 . S
H84 C86 0.981 . S
H85 C86 0.981 . S
C86 C78 1.481 . S
C86 H83 0.980 . S
C86 H84 0.981 . S
C86 H85 0.981 . S
C87 C74 1.481 1_554 S
C87 H88 0.980 . S
C87 H89 0.981 . S
C87 H90 0.981 . S
H88 C87 0.980 . S
H89 C87 0.981 . S
H90 C87 0.981 . S
O91 Zn67 2.066 . S
O91 C70 1.256 . S
O92 Zn64 2.053 . S
O92 C70 1.244 . S
C93 O71 1.259 . S
C93 O72 1.254 . S
O94 Zn64 2.066 . S
O94 C66 1.256 . S
O95 C66 1.244 . S
O95 Zn67 2.053 . S
Zn96 O97 2.055 . S
Zn96 O104 2.046 . S
Zn96 N112 2.036 . S
Zn96 O124 2.053 . S
Zn96 O126 2.066 . S
O97 Zn96 2.055 . S
O97 C100 1.259 . S
C98 O126 1.256 . S
C98 O127 1.244 . S
Zn99 O101 2.046 . S
Zn99 O103 2.055 . S
Zn99 N105 2.036 . S
Zn99 O123 2.066 . S
Zn99 O127 2.053 . S
C100 O97 1.259 . S
C100 O101 1.254 . S
O101 Zn99 2.046 . S
O101 C100 1.254 . S
C102 O123 1.256 . S
C102 O124 1.244 . S
O103 Zn99 2.055 . S
O103 C125 1.259 . S
O104 Zn96 2.046 . S
O104 C125 1.254 . S
N105 Zn99 2.036 . S
N105 C106 1.298 . S
N105 N108 1.398 . S
C106 N105 1.298 . S
C106 N109 1.367 . S
C106 C119 1.481 . S
C107 N108 1.299 . S
C107 N109 1.379 . S
N108 N105 1.398 . S
N108 C107 1.299 . S
N109 C106 1.367 . S
N109 C107 1.379 . S
C110 N112 1.298 . S
C110 N114 1.367 . S
C110 C118 1.481 . S
C111 N113 1.299 . S
C111 N114 1.379 . S
N112 Zn96 2.036 . S
N112 C110 1.298 . S
N112 N113 1.398 . S
N113 C111 1.299 . S
N113 N112 1.398 . S
N114 C110 1.367 . S
N114 C111 1.379 . S
H115 C118 0.980 . S
H116 C118 0.981 . S
H117 C118 0.981 . S
C118 C110 1.481 . S
C118 H115 0.980 . S
C118 H116 0.981 . S
C118 H117 0.981 . S
C119 C106 1.481 . S
C119 H120 0.980 . S
C119 H121 0.981 . S
C119 H122 0.981 . S
H120 C119 0.980 . S
H121 C119 0.981 . S
H122 C119 0.981 . S
O123 Zn99 2.066 . S
O123 C102 1.256 . S
O124 Zn96 2.053 . S
O124 C102 1.244 . S
C125 O103 1.259 . S
C125 O104 1.254 . S
O126 Zn96 2.066 . S
O126 C98 1.256 . S
O127 C98 1.244 . S
O127 Zn99 2.053 . S
Zn128 O129 2.055 . S
Zn128 O136 2.046 . S
Zn128 N144 2.036 . S
Zn128 O156 2.053 . S
Zn128 O158 2.066 . S
O129 Zn128 2.055 . S
O129 C132 1.259 . S
C130 O158 1.256 . S
C130 O159 1.244 . S
Zn131 O133 2.046 . S
Zn131 O135 2.055 . S
Zn131 N137 2.036 . S
Zn131 O155 2.066 . S
Zn131 O159 2.053 . S
C132 O129 1.259 . S
C132 O133 1.254 . S
O133 Zn131 2.046 . S
O133 C132 1.254 . S
C134 O155 1.256 . S
C134 O156 1.244 . S
O135 Zn131 2.055 . S
O135 C157 1.259 . S
O136 Zn128 2.046 . S
O136 C157 1.254 . S
N137 Zn131 2.036 . S
N137 C138 1.298 . S
N137 N140 1.398 . S
C138 N137 1.298 . S
C138 N141 1.367 . S
C138 C151 1.481 . S
C139 N140 1.299 . S
C139 N141 1.379 . S
N140 N137 1.398 . S
N140 C139 1.299 . S
N141 C138 1.367 . S
N141 C139 1.379 . S
C142 N144 1.298 . S
C142 N146 1.367 . S
C142 C150 1.481 . S
C143 N145 1.299 . S
C143 N146 1.379 . S
N144 Zn128 2.036 . S
N144 C142 1.298 . S
N144 N145 1.398 . S
N145 C143 1.299 . S
N145 N144 1.398 . S
N146 C142 1.367 . S
N146 C143 1.379 . S
H147 C150 0.980 . S
H148 C150 0.981 . S
H149 C150 0.981 . S
C150 C142 1.481 . S
C150 H147 0.980 . S
C150 H148 0.981 . S
C150 H149 0.981 . S
C151 C138 1.481 . S
C151 H152 0.980 . S
C151 H153 0.981 . S
C151 H154 0.981 . S
H152 C151 0.980 . S
H153 C151 0.981 . S
H154 C151 0.981 . S
O155 Zn131 2.066 . S
O155 C134 1.256 . S
O156 Zn128 2.053 . S
O156 C134 1.244 . S
C157 O135 1.259 . S
C157 O136 1.254 . S
O158 Zn128 2.066 . S
O158 C130 1.256 . S
O159 C130 1.244 . S
O159 Zn131 2.053 . S
Zn160 O161 2.055 . S
Zn160 O168 2.046 . S
Zn160 N176 2.036 . S
Zn160 O188 2.053 . S
Zn160 O190 2.066 . S
O161 Zn160 2.055 . S
O161 C164 1.259 . S
C162 O190 1.256 . S
C162 O191 1.244 . S
Zn163 O165 2.046 . S
Zn163 O167 2.055 . S
Zn163 N169 2.036 . S
Zn163 O187 2.066 . S
Zn163 O191 2.053 . S
C164 O161 1.259 . S
C164 O165 1.254 . S
O165 Zn163 2.046 . S
O165 C164 1.254 . S
C166 O187 1.256 . S
C166 O188 1.244 . S
O167 Zn163 2.055 . S
O167 C189 1.259 . S
O168 Zn160 2.046 . S
O168 C189 1.254 . S
N169 Zn163 2.036 . S
N169 C170 1.298 . S
N169 N172 1.398 . S
C170 N169 1.298 . S
C170 N173 1.367 . S
C170 C183 1.481 . S
C171 N172 1.299 . S
C171 N173 1.379 . S
N172 N169 1.398 . S
N172 C171 1.299 . S
N173 C170 1.367 . S
N173 C171 1.379 . S
C174 N176 1.298 . S
C174 N178 1.367 . S
C174 C182 1.481 1_556 S
C175 N177 1.299 . S
C175 N178 1.379 . S
N176 Zn160 2.036 . S
N176 C174 1.298 . S
N176 N177 1.398 . S
N177 C175 1.299 . S
N177 N176 1.398 . S
N178 C174 1.367 . S
N178 C175 1.379 . S
H179 C182 0.980 . S
H180 C182 0.981 . S
H181 C182 0.981 . S
C182 C174 1.481 1_554 S
C182 H179 0.980 . S
C182 H180 0.981 . S
C182 H181 0.981 . S
C183 C170 1.481 . S
C183 H184 0.980 . S
C183 H185 0.981 . S
C183 H186 0.981 . S
H184 C183 0.980 . S
H185 C183 0.981 . S
H186 C183 0.981 . S
O187 Zn163 2.066 . S
O187 C166 1.256 . S
O188 Zn160 2.053 . S
O188 C166 1.244 . S
C189 O167 1.259 . S
C189 O168 1.254 . S
O190 Zn160 2.066 . S
O190 C162 1.256 . S
O191 C162 1.244 . S
O191 Zn163 2.053 . S
Zn192 O193 2.055 . S
Zn192 O200 2.046 . S
Zn192 N208 2.036 . S
Zn192 O220 2.053 . S
Zn192 O222 2.066 . S
O193 Zn192 2.055 . S
O193 C196 1.259 . S
C194 O222 1.256 . S
C194 O223 1.244 . S
Zn195 O197 2.046 . S
Zn195 O199 2.055 . S
Zn195 N201 2.036 . S
Zn195 O219 2.066 . S
Zn195 O223 2.053 . S
C196 O193 1.259 . S
C196 O197 1.254 . S
O197 Zn195 2.046 . S
O197 C196 1.254 . S
C198 O219 1.256 . S
C198 O220 1.244 . S
O199 Zn195 2.055 . S
O199 C221 1.259 . S
O200 Zn192 2.046 . S
O200 C221 1.254 . S
N201 Zn195 2.036 . S
N201 C202 1.298 . S
N201 N204 1.398 . S
C202 N201 1.298 . S
C202 N205 1.367 . S
C202 C215 1.481 . S
C203 N204 1.299 . S
C203 N205 1.379 . S
N204 N201 1.398 . S
N204 C203 1.299 . S
N205 C202 1.367 . S
N205 C203 1.379 . S
C206 N208 1.298 . S
C206 N210 1.367 . S
C206 C214 1.481 . S
C207 N209 1.299 . S
C207 N210 1.379 . S
N208 Zn192 2.036 . S
N208 C206 1.298 . S
N208 N209 1.398 . S
N209 C207 1.299 . S
N209 N208 1.398 . S
N210 C206 1.367 . S
N210 C207 1.379 . S
H211 C214 0.980 . S
H212 C214 0.981 . S
H213 C214 0.981 . S
C214 C206 1.481 . S
C214 H211 0.980 . S
C214 H212 0.981 . S
C214 H213 0.981 . S
C215 C202 1.481 . S
C215 H216 0.980 . S
C215 H217 0.981 . S
C215 H218 0.981 . S
H216 C215 0.980 . S
H217 C215 0.981 . S
H218 C215 0.981 . S
O219 Zn195 2.066 . S
O219 C198 1.256 . S
O220 Zn192 2.053 . S
O220 C198 1.244 . S
C221 O199 1.259 . S
C221 O200 1.254 . S
O222 Zn192 2.066 . S
O222 C194 1.256 . S
O223 C194 1.244 . S
O223 Zn195 2.053 . S
Zn224 O225 2.055 . S
Zn224 O232 2.046 . S
Zn224 N240 2.036 . S
Zn224 O252 2.053 . S
Zn224 O254 2.066 . S
O225 Zn224 2.055 . S
O225 C228 1.259 . S
C226 O254 1.256 . S
C226 O255 1.244 . S
Zn227 O229 2.046 . S
Zn227 O231 2.055 . S
Zn227 N233 2.036 . S
Zn227 O251 2.066 . S
Zn227 O255 2.053 . S
C228 O225 1.259 . S
C228 O229 1.254 . S
O229 Zn227 2.046 . S
O229 C228 1.254 . S
C230 O251 1.256 . S
C230 O252 1.244 . S
O231 Zn227 2.055 . S
O231 C253 1.259 . S
O232 Zn224 2.046 . S
O232 C253 1.254 . S
N233 Zn227 2.036 . S
N233 C234 1.298 . S
N233 N236 1.398 . S
C234 N233 1.298 . S
C234 N237 1.367 . S
C234 C247 1.481 . S
C235 N236 1.299 . S
C235 N237 1.379 . S
N236 N233 1.398 . S
N236 C235 1.299 . S
N237 C234 1.367 . S
N237 C235 1.379 . S
C238 N240 1.298 . S
C238 N242 1.367 . S
C238 C246 1.481 . S
C239 N241 1.299 . S
C239 N242 1.379 . S
N240 Zn224 2.036 . S
N240 C238 1.298 . S
N240 N241 1.398 . S
N241 C239 1.299 . S
N241 N240 1.398 . S
N242 C238 1.367 . S
N242 C239 1.379 . S
H243 C246 0.980 . S
H244 C246 0.981 . S
H245 C246 0.981 . S
C246 C238 1.481 . S
C246 H243 0.980 . S
C246 H244 0.981 . S
C246 H245 0.981 . S
C247 C234 1.481 . S
C247 H248 0.980 . S
C247 H249 0.981 . S
C247 H250 0.981 . S
H248 C247 0.980 . S
H249 C247 0.981 . S
H250 C247 0.981 . S
O251 Zn227 2.066 . S
O251 C230 1.256 . S
O252 Zn224 2.053 . S
O252 C230 1.244 . S
C253 O231 1.259 . S
C253 O232 1.254 . S
O254 Zn224 2.066 . S
O254 C226 1.256 . S
O255 C226 1.244 . S
O255 Zn227 2.053 . S
Zn256 O257 2.055 . S
Zn256 O264 2.046 . S
Zn256 N272 2.036 . S
Zn256 O284 2.053 . S
Zn256 O286 2.066 . S
O257 Zn256 2.055 . S
O257 C260 1.259 . S
C258 O286 1.256 . S
C258 O287 1.244 . S
Zn259 O261 2.046 . S
Zn259 O263 2.055 . S
Zn259 N265 2.036 . S
Zn259 O283 2.066 . S
Zn259 O287 2.053 . S
C260 O257 1.259 . S
C260 O261 1.254 . S
O261 Zn259 2.046 . S
O261 C260 1.254 . S
C262 O283 1.256 . S
C262 O284 1.244 . S
O263 Zn259 2.055 . S
O263 C285 1.259 . S
O264 Zn256 2.046 . S
O264 C285 1.254 . S
N265 Zn259 2.036 . S
N265 C266 1.298 . S
N265 N268 1.398 . S
C266 N265 1.298 . S
C266 N269 1.367 . S
C266 C279 1.481 1_554 S
C267 N268 1.299 . S
C267 N269 1.379 . S
N268 N265 1.398 . S
N268 C267 1.299 . S
N269 C266 1.367 . S
N269 C267 1.379 . S
C270 N272 1.298 . S
C270 N274 1.367 . S
C270 C278 1.481 . S
C271 N273 1.299 . S
C271 N274 1.379 . S
N272 Zn256 2.036 . S
N272 C270 1.298 . S
N272 N273 1.398 . S
N273 C271 1.299 . S
N273 N272 1.398 . S
N274 C270 1.367 . S
N274 C271 1.379 . S
H275 C278 0.980 . S
H276 C278 0.981 . S
H277 C278 0.981 . S
C278 C270 1.481 . S
C278 H275 0.980 . S
C278 H276 0.981 . S
C278 H277 0.981 . S
C279 C266 1.481 1_556 S
C279 H280 0.980 . S
C279 H281 0.981 . S
C279 H282 0.981 . S
H280 C279 0.980 . S
H281 C279 0.981 . S
H282 C279 0.981 . S
O283 Zn259 2.066 . S
O283 C262 1.256 . S
O284 Zn256 2.053 . S
O284 C262 1.244 . S
C285 O263 1.259 . S
C285 O264 1.254 . S
O286 Zn256 2.066 . S
O286 C258 1.256 . S
O287 C258 1.244 . S
O287 Zn259 2.053 . S
Zn288 O289 2.055 . S
Zn288 O296 2.046 . S
Zn288 N304 2.036 . S
Zn288 O316 2.053 . S
Zn288 O318 2.066 . S
O289 Zn288 2.055 . S
O289 C292 1.259 . S
C290 O318 1.256 . S
C290 O319 1.244 . S
Zn291 O293 2.046 . S
Zn291 O295 2.055 . S
Zn291 N297 2.036 . S
Zn291 O315 2.066 . S
Zn291 O319 2.053 . S
C292 O289 1.259 . S
C292 O293 1.254 . S
O293 Zn291 2.046 . S
O293 C292 1.254 . S
C294 O315 1.256 . S
C294 O316 1.244 . S
O295 Zn291 2.055 . S
O295 C317 1.259 . S
O296 Zn288 2.046 . S
O296 C317 1.254 . S
N297 Zn291 2.036 . S
N297 C298 1.298 . S
N297 N300 1.398 . S
C298 N297 1.298 . S
C298 N301 1.367 . S
C298 C311 1.481 . S
C299 N300 1.299 . S
C299 N301 1.379 . S
N300 N297 1.398 . S
N300 C299 1.299 . S
N301 C298 1.367 . S
N301 C299 1.379 . S
C302 N304 1.298 . S
C302 N306 1.367 . S
C302 C310 1.481 . S
C303 N305 1.299 . S
C303 N306 1.379 . S
N304 Zn288 2.036 . S
N304 C302 1.298 . S
N304 N305 1.398 . S
N305 C303 1.299 . S
N305 N304 1.398 . S
N306 C302 1.367 . S
N306 C303 1.379 . S
H307 C310 0.980 . S
H308 C310 0.981 . S
H309 C310 0.981 . S
C310 C302 1.481 . S
C310 H307 0.980 . S
C310 H308 0.981 . S
C310 H309 0.981 . S
C311 C298 1.481 . S
C311 H312 0.980 . S
C311 H313 0.981 . S
C311 H314 0.981 . S
H312 C311 0.980 . S
H313 C311 0.981 . S
H314 C311 0.981 . S
O315 Zn291 2.066 . S
O315 C294 1.256 . S
O316 Zn288 2.053 . S
O316 C294 1.244 . S
C317 O295 1.259 . S
C317 O296 1.254 . S
O318 Zn288 2.066 . S
O318 C290 1.256 . S
O319 C290 1.244 . S
O319 Zn291 2.053 . S
Zn320 O321 2.055 . S
Zn320 O328 2.046 . S
Zn320 N336 2.036 . S
Zn320 O348 2.053 . S
Zn320 O350 2.066 . S
O321 Zn320 2.055 . S
O321 C324 1.259 . S
C322 O350 1.256 . S
C322 O351 1.244 . S
Zn323 O325 2.046 . S
Zn323 O327 2.055 . S
Zn323 N329 2.036 . S
Zn323 O347 2.066 . S
Zn323 O351 2.053 . S
C324 O321 1.259 . S
C324 O325 1.254 . S
O325 Zn323 2.046 . S
O325 C324 1.254 . S
C326 O347 1.256 . S
C326 O348 1.244 . S
O327 Zn323 2.055 . S
O327 C349 1.259 . S
O328 Zn320 2.046 . S
O328 C349 1.254 . S
N329 Zn323 2.036 . S
N329 C330 1.298 . S
N329 N332 1.398 . S
C330 N329 1.298 . S
C330 N333 1.367 . S
C330 C343 1.481 . S
C331 N332 1.299 . S
C331 N333 1.379 . S
N332 N329 1.398 . S
N332 C331 1.299 . S
N333 C330 1.367 . S
N333 C331 1.379 . S
C334 N336 1.298 . S
C334 N338 1.367 . S
C334 C342 1.481 . S
C335 N337 1.299 . S
C335 N338 1.379 . S
N336 Zn320 2.036 . S
N336 C334 1.298 . S
N336 N337 1.398 . S
N337 C335 1.299 . S
N337 N336 1.398 . S
N338 C334 1.367 . S
N338 C335 1.379 . S
H339 C342 0.980 . S
H340 C342 0.981 . S
H341 C342 0.981 . S
C342 C334 1.481 . S
C342 H339 0.980 . S
C342 H340 0.981 . S
C342 H341 0.981 . S
C343 C330 1.481 . S
C343 H344 0.980 . S
C343 H345 0.981 . S
C343 H346 0.981 . S
H344 C343 0.980 . S
H345 C343 0.981 . S
H346 C343 0.981 . S
O347 Zn323 2.066 . S
O347 C326 1.256 . S
O348 Zn320 2.053 . S
O348 C326 1.244 . S
C349 O327 1.259 . S
C349 O328 1.254 . S
O350 Zn320 2.066 . S
O350 C322 1.256 . S
O351 C322 1.244 . S
O351 Zn323 2.053 . S
Zn352 O353 2.055 . S
Zn352 O360 2.046 . S
Zn352 N368 2.036 . S
Zn352 O380 2.053 . S
Zn352 O382 2.066 . S
O353 Zn352 2.055 . S
O353 C356 1.259 . S
C354 O382 1.256 . S
C354 O383 1.244 . S
Zn355 O357 2.046 . S
Zn355 O359 2.055 . S
Zn355 N361 2.036 . S
Zn355 O379 2.066 . S
Zn355 O383 2.053 . S
C356 O353 1.259 . S
C356 O357 1.254 . S
O357 Zn355 2.046 . S
O357 C356 1.254 . S
C358 O379 1.256 . S
C358 O380 1.244 . S
O359 Zn355 2.055 . S
O359 C381 1.259 . S
O360 Zn352 2.046 . S
O360 C381 1.254 . S
N361 Zn355 2.036 . S
N361 C362 1.298 . S
N361 N364 1.398 . S
C362 N361 1.298 . S
C362 N365 1.367 . S
C362 C375 1.481 1_554 S
C363 N364 1.299 . S
C363 N365 1.379 . S
N364 N361 1.398 . S
N364 C363 1.299 . S
N365 C362 1.367 . S
N365 C363 1.379 . S
C366 N368 1.298 . S
C366 N370 1.367 . S
C366 C374 1.481 . S
C367 N369 1.299 . S
C367 N370 1.379 . S
N368 Zn352 2.036 . S
N368 C366 1.298 . S
N368 N369 1.398 . S
N369 C367 1.299 . S
N369 N368 1.398 . S
N370 C366 1.367 . S
N370 C367 1.379 . S
H371 C374 0.980 . S
H372 C374 0.981 . S
H373 C374 0.981 . S
C374 C366 1.481 . S
C374 H371 0.980 . S
C374 H372 0.981 . S
C374 H373 0.981 . S
C375 C362 1.481 1_556 S
C375 H376 0.980 . S
C375 H377 0.981 . S
C375 H378 0.981 . S
H376 C375 0.980 . S
H377 C375 0.981 . S
H378 C375 0.981 . S
O379 Zn355 2.066 . S
O379 C358 1.256 . S
O380 Zn352 2.053 . S
O380 C358 1.244 . S
C381 O359 1.259 . S
C381 O360 1.254 . S
O382 Zn352 2.066 . S
O382 C354 1.256 . S
O383 C354 1.244 . S
O383 Zn355 2.053 . S
H384 C392 0.929 . S
H385 C394 0.930 . S
H386 C396 0.930 . S
H387 C399 0.929 . S
H388 C402 0.930 . S
H389 C404 0.960 . S
H390 C404 0.960 . S
H391 C404 0.960 . S
C392 H384 0.929 . S
C392 C393 1.377 . S
C392 C394 1.384 . S
C393 C392 1.377 . S
C393 C399 1.390 . S
C394 H385 0.930 . S
C394 C392 1.384 . S
C394 C395 1.372 . S
C395 C394 1.372 . S
C395 C396 1.400 . S
C395 C400 1.490 . S
C396 H386 0.930 . S
C396 C395 1.400 . S
C396 C399 1.386 . S
H397 C413 0.930 . S
H398 C414 0.931 . S
C399 H387 0.929 . S
C399 C393 1.390 . S
C399 C396 1.386 . S
C400 C395 1.490 . S
C400 C402 1.395 . S
C400 C403 1.403 . S
H401 C407 0.930 . S
C402 H388 0.930 . S
C402 C400 1.395 . S
C402 C405 1.403 . S
C403 C400 1.403 . S
C403 C404 1.524 . S
C403 C407 1.400 . S
C404 H389 0.960 . S
C404 H390 0.960 . S
C404 H391 0.960 . S
C404 C403 1.524 . S
C405 C402 1.403 . S
C405 C406 1.392 . S
C405 C409 1.495 . S
C406 C405 1.392 . S
C406 C407 1.385 . S
C406 C408 1.478 . S
C407 H401 0.930 . S
C407 C403 1.400 . S
C407 C406 1.385 . S
C408 C406 1.478 . S
C408 C410 1.381 . S
C408 C414 1.383 . S
C409 C405 1.495 . S
C409 H415 0.959 . S
C409 H416 0.961 . S
C409 H417 0.960 . S
C410 C408 1.381 . S
C410 C411 1.394 . S
C410 H418 0.930 . S
C411 C410 1.394 . S
C411 C412 1.383 . S
C411 H419 0.929 . S
C412 C411 1.383 . S
C412 C413 1.377 . S
C413 H397 0.930 . S
C413 C412 1.377 . S
C413 C414 1.379 . S
C414 H398 0.931 . S
C414 C408 1.383 . S
C414 C413 1.379 . S
H415 C409 0.959 . S
H416 C409 0.961 . S
H417 C409 0.960 . S
H418 C410 0.930 . S
H419 C411 0.929 . S
H420 C428 0.929 . S
H421 C430 0.930 . S
H422 C432 0.930 . S
H423 C435 0.929 . S
H424 C438 0.930 . S
H425 C440 0.960 . S
H426 C440 0.960 . S
H427 C440 0.960 . S
C428 H420 0.929 . S
C428 C429 1.377 . S
C428 C430 1.384 . S
C429 C428 1.377 . S
C429 C435 1.390 . S
C430 H421 0.930 . S
C430 C428 1.384 . S
C430 C431 1.372 . S
C431 C430 1.372 . S
C431 C432 1.400 . S
C431 C436 1.490 . S
C432 H422 0.930 . S
C432 C431 1.400 . S
C432 C435 1.386 . S
H433 C449 0.930 . S
H434 C450 0.931 . S
C435 H423 0.929 . S
C435 C429 1.390 . S
C435 C432 1.386 . S
C436 C431 1.490 . S
C436 C438 1.395 . S
C436 C439 1.403 . S
H437 C443 0.930 . S
C438 H424 0.930 . S
C438 C436 1.395 . S
C438 C441 1.403 . S
C439 C436 1.403 . S
C439 C440 1.524 . S
C439 C443 1.400 . S
C440 H425 0.960 . S
C440 H426 0.960 . S
C440 H427 0.960 . S
C440 C439 1.524 . S
C441 C438 1.403 . S
C441 C442 1.392 . S
C441 C445 1.495 . S
C442 C441 1.392 . S
C442 C443 1.385 . S
C442 C444 1.478 . S
C443 H437 0.930 . S
C443 C439 1.400 . S
C443 C442 1.385 . S
C444 C442 1.478 . S
C444 C446 1.381 . S
C444 C450 1.383 . S
C445 C441 1.495 . S
C445 H451 0.959 . S
C445 H452 0.961 . S
C445 H453 0.960 . S
C446 C444 1.381 . S
C446 C447 1.394 . S
C446 H454 0.930 . S
C447 C446 1.394 . S
C447 C448 1.383 . S
C447 H455 0.929 . S
C448 C447 1.383 . S
C448 C449 1.377 . S
C449 H433 0.930 . S
C449 C448 1.377 . S
C449 C450 1.379 . S
C450 H434 0.931 . S
C450 C444 1.383 . S
C450 C449 1.379 . S
H451 C445 0.959 . S
H452 C445 0.961 . S
H453 C445 0.960 . S
H454 C446 0.930 . S
H455 C447 0.929 . S
H456 C464 0.929 . S
H457 C466 0.930 . S
H458 C468 0.930 . S
H459 C471 0.929 . S
H460 C474 0.930 . S
H461 C476 0.960 . S
H462 C476 0.960 . S
H463 C476 0.960 . S
C464 H456 0.929 . S
C464 C465 1.377 . S
C464 C466 1.384 . S
C465 C464 1.377 . S
C465 C471 1.390 . S
C466 H457 0.930 . S
C466 C464 1.384 . S
C466 C467 1.372 . S
C467 C466 1.372 . S
C467 C468 1.400 . S
C467 C472 1.490 . S
C468 H458 0.930 . S
C468 C467 1.400 . S
C468 C471 1.386 . S
H469 C485 0.930 . S
H470 C486 0.931 . S
C471 H459 0.929 . S
C471 C465 1.390 . S
C471 C468 1.386 . S
C472 C467 1.490 . S
C472 C474 1.395 . S
C472 C475 1.403 . S
H473 C479 0.930 . S
C474 H460 0.930 . S
C474 C472 1.395 . S
C474 C477 1.403 . S
C475 C472 1.403 . S
C475 C476 1.524 . S
C475 C479 1.400 . S
C476 H461 0.960 . S
C476 H462 0.960 . S
C476 H463 0.960 . S
C476 C475 1.524 . S
C477 C474 1.403 . S
C477 C478 1.392 . S
C477 C481 1.495 . S
C478 C477 1.392 . S
C478 C479 1.385 . S
C478 C480 1.478 . S
C479 H473 0.930 . S
C479 C475 1.400 . S
C479 C478 1.385 . S
C480 C478 1.478 . S
C480 C482 1.381 . S
C480 C486 1.383 . S
C481 C477 1.495 . S
C481 H487 0.959 . S
C481 H488 0.961 . S
C481 H489 0.960 . S
C482 C480 1.381 . S
C482 C483 1.394 . S
C482 H490 0.930 . S
C483 C482 1.394 . S
C483 C484 1.383 . S
C483 H491 0.929 . S
C484 C483 1.383 . S
C484 C485 1.377 . S
C485 H469 0.930 . S
C485 C484 1.377 . S
C485 C486 1.379 . S
C486 H470 0.931 . S
C486 C480 1.383 . S
C486 C485 1.379 . S
H487 C481 0.959 . S
H488 C481 0.961 . S
H489 C481 0.960 . S
H490 C482 0.930 . S
H491 C483 0.929 . S
H492 C500 0.929 . S
H493 C502 0.930 . S
H494 C504 0.930 . S
H495 C507 0.929 . S
H496 C510 0.930 . S
H497 C512 0.960 . S
H498 C512 0.960 . S
H499 C512 0.960 . S
C500 H492 0.929 . S
C500 C501 1.377 . S
C500 C502 1.384 . S
C501 C500 1.377 . S
C501 C507 1.390 . S
C502 H493 0.930 . S
C502 C500 1.384 . S
C502 C503 1.372 . S
C503 C502 1.372 . S
C503 C504 1.400 . S
C503 C508 1.490 . S
C504 H494 0.930 . S
C504 C503 1.400 . S
C504 C507 1.386 . S
H505 C521 0.930 . S
H506 C522 0.931 . S
C507 H495 0.929 . S
C507 C501 1.390 . S
C507 C504 1.386 . S
C508 C503 1.490 . S
C508 C510 1.395 . S
C508 C511 1.403 . S
H509 C515 0.930 . S
C510 H496 0.930 . S
C510 C508 1.395 . S
C510 C513 1.403 . S
C511 C508 1.403 . S
C511 C512 1.524 . S
C511 C515 1.400 . S
C512 H497 0.960 . S
C512 H498 0.960 . S
C512 H499 0.960 . S
C512 C511 1.524 . S
C513 C510 1.403 . S
C513 C514 1.392 . S
C513 C517 1.495 . S
C514 C513 1.392 . S
C514 C515 1.385 . S
C514 C516 1.478 . S
C515 H509 0.930 . S
C515 C511 1.400 . S
C515 C514 1.385 . S
C516 C514 1.478 . S
C516 C518 1.381 . S
C516 C522 1.383 . S
C517 C513 1.495 . S
C517 H523 0.959 . S
C517 H524 0.961 . S
C517 H525 0.960 . S
C518 C516 1.381 . S
C518 C519 1.394 . S
C518 H526 0.930 . S
C519 C518 1.394 . S
C519 C520 1.383 . S
C519 H527 0.929 . S
C520 C519 1.383 . S
C520 C521 1.377 . S
C521 H505 0.930 . S
C521 C520 1.377 . S
C521 C522 1.379 . S
C522 H506 0.931 . S
C522 C516 1.383 . S
C522 C521 1.379 . S
H523 C517 0.959 . S
H524 C517 0.961 . S
H525 C517 0.960 . S
H526 C518 0.930 . S
H527 C519 0.929 . S
H528 C536 0.929 . S
H529 C538 0.930 . S
H530 C540 0.930 . S
H531 C543 0.929 . S
H532 C546 0.930 . S
H533 C548 0.960 . S
H534 C548 0.960 . S
H535 C548 0.960 . S
C536 H528 0.929 . S
C536 C537 1.377 . S
C536 C538 1.384 . S
C537 C536 1.377 . S
C537 C543 1.390 . S
C538 H529 0.930 . S
C538 C536 1.384 . S
C538 C539 1.372 . S
C539 C538 1.372 . S
C539 C540 1.400 . S
C539 C544 1.490 . S
C540 H530 0.930 . S
C540 C539 1.400 . S
C540 C543 1.386 . S
H541 C557 0.930 . S
H542 C558 0.931 . S
C543 H531 0.929 . S
C543 C537 1.390 . S
C543 C540 1.386 . S
C544 C539 1.490 . S
C544 C546 1.395 . S
C544 C547 1.403 . S
H545 C551 0.930 . S
C546 H532 0.930 . S
C546 C544 1.395 . S
C546 C549 1.403 . S
C547 C544 1.403 . S
C547 C548 1.524 . S
C547 C551 1.400 . S
C548 H533 0.960 . S
C548 H534 0.960 . S
C548 H535 0.960 . S
C548 C547 1.524 . S
C549 C546 1.403 . S
C549 C550 1.392 . S
C549 C553 1.495 . S
C550 C549 1.392 . S
C550 C551 1.385 . S
C550 C552 1.478 . S
C551 H545 0.930 . S
C551 C547 1.400 . S
C551 C550 1.385 . S
C552 C550 1.478 . S
C552 C554 1.381 . S
C552 C558 1.383 . S
C553 C549 1.495 . S
C553 H559 0.959 . S
C553 H560 0.961 . S
C553 H561 0.960 . S
C554 C552 1.381 . S
C554 C555 1.394 . S
C554 H562 0.930 . S
C555 C554 1.394 . S
C555 C556 1.383 . S
C555 H563 0.929 . S
C556 C555 1.383 . S
C556 C557 1.377 . S
C557 H541 0.930 . S
C557 C556 1.377 . S
C557 C558 1.379 . S
C558 H542 0.931 . S
C558 C552 1.383 . S
C558 C557 1.379 . S
H559 C553 0.959 . S
H560 C553 0.961 . S
H561 C553 0.960 . S
H562 C554 0.930 . S
H563 C555 0.929 . S
H564 C572 0.929 . S
H565 C574 0.930 . S
H566 C576 0.930 . S
H567 C579 0.929 . S
H568 C582 0.930 . S
H569 C584 0.960 . S
H570 C584 0.960 . S
H571 C584 0.960 . S
C572 H564 0.929 . S
C572 C573 1.377 . S
C572 C574 1.384 . S
C573 C572 1.377 . S
C573 C579 1.390 . S
C574 H565 0.930 . S
C574 C572 1.384 . S
C574 C575 1.372 . S
C575 C574 1.372 . S
C575 C576 1.400 . S
C575 C580 1.490 . S
C576 H566 0.930 . S
C576 C575 1.400 . S
C576 C579 1.386 . S
H577 C593 0.930 . S
H578 C594 0.931 . S
C579 H567 0.929 . S
C579 C573 1.390 . S
C579 C576 1.386 . S
C580 C575 1.490 . S
C580 C582 1.395 . S
C580 C583 1.403 . S
H581 C587 0.930 . S
C582 H568 0.930 . S
C582 C580 1.395 . S
C582 C585 1.403 . S
C583 C580 1.403 . S
C583 C584 1.524 . S
C583 C587 1.400 . S
C584 H569 0.960 . S
C584 H570 0.960 . S
C584 H571 0.960 . S
C584 C583 1.524 . S
C585 C582 1.403 . S
C585 C586 1.392 . S
C585 C589 1.495 . S
C586 C585 1.392 . S
C586 C587 1.385 . S
C586 C588 1.478 . S
C587 H581 0.930 . S
C587 C583 1.400 . S
C587 C586 1.385 . S
C588 C586 1.478 . S
C588 C590 1.381 . S
C588 C594 1.383 . S
C589 C585 1.495 . S
C589 H595 0.959 . S
C589 H596 0.961 . S
C589 H597 0.960 . S
C590 C588 1.381 . S
C590 C591 1.394 . S
C590 H598 0.930 . S
C591 C590 1.394 . S
C591 C592 1.383 . S
C591 H599 0.929 . S
C592 C591 1.383 . S
C592 C593 1.377 . S
C593 H577 0.930 . S
C593 C592 1.377 . S
C593 C594 1.379 . S
C594 H578 0.931 . S
C594 C588 1.383 . S
C594 C593 1.379 . S
H595 C589 0.959 . S
H596 C589 0.961 . S
H597 C589 0.960 . S
H598 C590 0.930 . S
H599 C591 0.929 . S
H600 C608 0.929 . S
H601 C610 0.930 . S
H602 C612 0.930 . S
H603 C615 0.929 . S
H604 C618 0.930 . S
H605 C620 0.960 . S
H606 C620 0.960 . S
H607 C620 0.960 1_556 S
C608 H600 0.929 . S
C608 C609 1.377 . S
C608 C610 1.384 . S
C609 C608 1.377 . S
C609 C615 1.390 . S
C610 H601 0.930 . S
C610 C608 1.384 . S
C610 C611 1.372 . S
C611 C610 1.372 . S
C611 C612 1.400 . S
C611 C616 1.490 . S
C612 H602 0.930 . S
C612 C611 1.400 . S
C612 C615 1.386 . S
H613 C629 0.930 . S
H614 C630 0.931 . S
C615 H603 0.929 . S
C615 C609 1.390 . S
C615 C612 1.386 . S
C616 C611 1.490 . S
C616 C618 1.395 . S
C616 C619 1.403 1_556 S
H617 C623 0.930 . S
C618 H604 0.930 . S
C618 C616 1.395 . S
C618 C621 1.403 . S
C619 C616 1.403 1_554 S
C619 C620 1.524 . S
C619 C623 1.400 . S
C620 H605 0.960 . S
C620 H606 0.960 . S
C620 H607 0.960 1_554 S
C620 C619 1.524 . S
C621 C618 1.403 . S
C621 C622 1.392 1_556 S
C621 C625 1.495 . S
C622 C621 1.392 1_554 S
C622 C623 1.385 . S
C622 C624 1.478 . S
C623 H617 0.930 . S
C623 C619 1.400 . S
C623 C622 1.385 . S
C624 C622 1.478 . S
C624 C626 1.381 . S
C624 C630 1.383 . S
C625 C621 1.495 . S
C625 H631 0.959 . S
C625 H632 0.961 . S
C625 H633 0.962 . S
C626 C624 1.381 . S
C626 C627 1.394 . S
C626 H634 0.930 . S
C627 C626 1.394 . S
C627 C628 1.383 . S
C627 H635 0.929 . S
C628 C627 1.383 . S
C628 C629 1.377 . S
C629 H613 0.930 . S
C629 C628 1.377 . S
C629 C630 1.379 . S
C630 H614 0.931 . S
C630 C624 1.383 . S
C630 C629 1.379 . S
H631 C625 0.959 . S
H632 C625 0.961 . S
H633 C625 0.962 . S
H634 C626 0.930 . S
H635 C627 0.929 . S
H636 C644 0.929 . S
H637 C646 0.930 . S
H638 C648 0.930 . S
H639 C651 0.929 . S
H640 C654 0.930 . S
H641 C656 0.960 . S
H642 C656 0.960 . S
H643 C656 0.960 . S
C644 H636 0.929 . S
C644 C645 1.377 . S
C644 C646 1.384 . S
C645 C644 1.377 . S
C645 C651 1.390 . S
C646 H637 0.930 . S
C646 C644 1.384 . S
C646 C647 1.372 . S
C647 C646 1.372 . S
C647 C648 1.400 . S
C647 C652 1.490 . S
C648 H638 0.930 . S
C648 C647 1.400 . S
C648 C651 1.386 . S
H649 C665 0.930 . S
H650 C666 0.931 . S
C651 H639 0.929 . S
C651 C645 1.390 . S
C651 C648 1.386 . S
C652 C647 1.490 . S
C652 C654 1.395 . S
C652 C655 1.403 . S
H653 C659 0.930 . S
C654 H640 0.930 . S
C654 C652 1.395 . S
C654 C657 1.403 . S
C655 C652 1.403 . S
C655 C656 1.524 . S
C655 C659 1.400 . S
C656 H641 0.960 . S
C656 H642 0.960 . S
C656 H643 0.960 . S
C656 C655 1.524 . S
C657 C654 1.403 . S
C657 C658 1.392 . S
C657 C661 1.495 . S
C658 C657 1.392 . S
C658 C659 1.385 . S
C658 C660 1.478 . S
C659 H653 0.930 . S
C659 C655 1.400 . S
C659 C658 1.385 . S
C660 C658 1.478 . S
C660 C662 1.381 . S
C660 C666 1.383 . S
C661 C657 1.495 . S
C661 H667 0.959 . S
C661 H668 0.961 . S
C661 H669 0.960 . S
C662 C660 1.381 . S
C662 C663 1.394 . S
C662 H670 0.930 . S
C663 C662 1.394 . S
C663 C664 1.383 . S
C663 H671 0.929 . S
C664 C663 1.383 . S
C664 C665 1.377 . S
C665 H649 0.930 . S
C665 C664 1.377 . S
C665 C666 1.379 . S
C666 H650 0.931 . S
C666 C660 1.383 . S
C666 C665 1.379 . S
H667 C661 0.959 . S
H668 C661 0.961 . S
H669 C661 0.960 . S
H670 C662 0.930 . S
H671 C663 0.929 . S
H672 C680 0.929 . S
H673 C682 0.930 . S
H674 C684 0.930 . S
H675 C687 0.929 . S
H676 C690 0.930 . S
H677 C692 0.960 . S
H678 C692 0.960 . S
H679 C692 0.960 . S
C680 H672 0.929 . S
C680 C681 1.377 . S
C680 C682 1.384 . S
C681 C680 1.377 . S
C681 C687 1.390 . S
C682 H673 0.930 . S
C682 C680 1.384 . S
C682 C683 1.372 . S
C683 C682 1.372 . S
C683 C684 1.400 . S
C683 C688 1.490 . S
C684 H674 0.930 . S
C684 C683 1.400 . S
C684 C687 1.386 . S
H685 C701 0.930 . S
H686 C702 0.931 . S
C687 H675 0.929 . S
C687 C681 1.390 . S
C687 C684 1.386 . S
C688 C683 1.490 . S
C688 C690 1.395 . S
C688 C691 1.403 . S
H689 C695 0.930 . S
C690 H676 0.930 . S
C690 C688 1.395 . S
C690 C693 1.403 . S
C691 C688 1.403 . S
C691 C692 1.524 . S
C691 C695 1.400 . S
C692 H677 0.960 . S
C692 H678 0.960 . S
C692 H679 0.960 . S
C692 C691 1.524 . S
C693 C690 1.403 . S
C693 C694 1.392 . S
C693 C697 1.495 . S
C694 C693 1.392 . S
C694 C695 1.385 . S
C694 C696 1.478 . S
C695 H689 0.930 . S
C695 C691 1.400 . S
C695 C694 1.385 . S
C696 C694 1.478 . S
C696 C698 1.381 . S
C696 C702 1.383 . S
C697 C693 1.495 . S
C697 H703 0.959 . S
C697 H704 0.961 . S
C697 H705 0.960 . S
C698 C696 1.381 . S
C698 C699 1.394 . S
C698 H706 0.930 . S
C699 C698 1.394 . S
C699 C700 1.383 . S
C699 H707 0.929 . S
C700 C699 1.383 . S
C700 C701 1.377 . S
C701 H685 0.930 . S
C701 C700 1.377 . S
C701 C702 1.379 . S
C702 H686 0.931 . S
C702 C696 1.383 . S
C702 C701 1.379 . S
H703 C697 0.959 . S
H704 C697 0.961 . S
H705 C697 0.960 . S
H706 C698 0.930 . S
H707 C699 0.929 . S
H708 C716 0.929 . S
H709 C718 0.930 . S
H710 C720 0.930 . S
H711 C723 0.929 . S
H712 C726 0.930 . S
H713 C728 0.960 . S
H714 C728 0.960 . S
H715 C728 0.960 . S
C716 H708 0.929 . S
C716 C717 1.377 . S
C716 C718 1.384 . S
C717 C716 1.377 . S
C717 C723 1.390 . S
C718 H709 0.930 . S
C718 C716 1.384 . S
C718 C719 1.372 . S
C719 C718 1.372 . S
C719 C720 1.400 . S
C719 C724 1.490 . S
C720 H710 0.930 . S
C720 C719 1.400 . S
C720 C723 1.386 . S
H721 C737 0.930 . S
H722 C738 0.931 . S
C723 H711 0.929 . S
C723 C717 1.390 . S
C723 C720 1.386 . S
C724 C719 1.490 . S
C724 C726 1.395 1_556 S
C724 C727 1.403 . S
H725 C731 0.929 1_556 S
C726 H712 0.930 . S
C726 C724 1.395 1_554 S
C726 C729 1.403 . S
C727 C724 1.403 . S
C727 C728 1.524 . S
C727 C731 1.388 1_556 S
C728 H713 0.960 . S
C728 H714 0.960 . S
C728 H715 0.960 . S
C728 C727 1.524 . S
C729 C726 1.403 . S
C729 C730 1.392 . S
C729 C733 1.495 . S
C730 C729 1.392 . S
C730 C731 1.398 . S
C730 C732 1.478 . S
C731 H725 0.929 1_554 S
C731 C727 1.388 1_554 S
C731 C730 1.398 . S
C732 C730 1.478 . S
C732 C734 1.381 . S
C732 C738 1.383 . S
C733 C729 1.495 . S
C733 H739 0.959 . S
C733 H740 0.961 . S
C733 H741 0.960 . S
C734 C732 1.381 . S
C734 C735 1.394 . S
C734 H742 0.930 . S
C735 C734 1.394 . S
C735 C736 1.383 . S
C735 H743 0.929 . S
C736 C735 1.383 . S
C736 C737 1.377 . S
C737 H721 0.930 . S
C737 C736 1.377 . S
C737 C738 1.379 . S
C738 H722 0.931 . S
C738 C732 1.383 . S
C738 C737 1.379 . S
H739 C733 0.959 . S
H740 C733 0.961 . S
H741 C733 0.960 . S
H742 C734 0.930 . S
H743 C735 0.929 . S
H744 C752 0.929 . S
H745 C754 0.930 . S
H746 C756 0.930 . S
H747 C759 0.929 . S
H748 C762 0.930 . S
H749 C764 0.960 . S
H750 C764 0.960 . S
H751 C764 0.960 . S
C752 H744 0.929 . S
C752 C753 1.377 . S
C752 C754 1.384 . S
C753 C752 1.377 . S
C753 C759 1.390 . S
C754 H745 0.930 . S
C754 C752 1.384 . S
C754 C755 1.372 . S
C755 C754 1.372 . S
C755 C756 1.400 . S
C755 C760 1.490 . S
C756 H746 0.930 . S
C756 C755 1.400 . S
C756 C759 1.386 . S
H757 C773 0.930 . S
H758 C774 0.931 . S
C759 H747 0.929 . S
C759 C753 1.390 . S
C759 C756 1.386 . S
C760 C755 1.490 . S
C760 C762 1.395 . S
C760 C763 1.403 . S
H761 C767 0.930 . S
C762 H748 0.930 . S
C762 C760 1.395 . S
C762 C765 1.403 . S
C763 C760 1.403 . S
C763 C764 1.524 . S
C763 C767 1.400 . S
C764 H749 0.960 . S
C764 H750 0.960 . S
C764 H751 0.960 . S
C764 C763 1.524 . S
C765 C762 1.403 . S
C765 C766 1.392 . S
C765 C769 1.495 . S
C766 C765 1.392 . S
C766 C767 1.385 . S
C766 C768 1.478 . S
C767 H761 0.930 . S
C767 C763 1.400 . S
C767 C766 1.385 . S
C768 C766 1.478 . S
C768 C770 1.381 . S
C768 C774 1.383 . S
C769 C765 1.495 . S
C769 H775 0.959 . S
C769 H776 0.961 . S
C769 H777 0.960 . S
C770 C768 1.381 . S
C770 C771 1.394 . S
C770 H778 0.930 . S
C771 C770 1.394 . S
C771 C772 1.383 . S
C771 H779 0.929 . S
C772 C771 1.383 . S
C772 C773 1.377 . S
C773 H757 0.930 . S
C773 C772 1.377 . S
C773 C774 1.379 . S
C774 H758 0.931 . S
C774 C768 1.383 . S
C774 C773 1.379 . S
H775 C769 0.959 . S
H776 C769 0.961 . S
H777 C769 0.960 . S
H778 C770 0.930 . S
H779 C771 0.929 . S
H780 C788 0.929 . S
H781 C790 0.930 . S
H782 C792 0.930 . S
H783 C795 0.929 . S
H784 C798 0.930 . S
H785 C800 0.960 . S
H786 C800 0.960 . S
H787 C800 0.960 . S
C788 H780 0.929 . S
C788 C789 1.377 . S
C788 C790 1.384 . S
C789 C788 1.377 . S
C789 C795 1.390 . S
C790 H781 0.930 . S
C790 C788 1.384 . S
C790 C791 1.372 . S
C791 C790 1.372 . S
C791 C792 1.400 . S
C791 C796 1.490 . S
C792 H782 0.930 . S
C792 C791 1.400 . S
C792 C795 1.386 . S
H793 C809 0.930 . S
H794 C810 0.931 . S
C795 H783 0.929 . S
C795 C789 1.390 . S
C795 C792 1.386 . S
C796 C791 1.490 . S
C796 C798 1.395 . S
C796 C799 1.403 . S
H797 C803 0.930 . S
C798 H784 0.930 . S
C798 C796 1.395 . S
C798 C801 1.403 . S
C799 C796 1.403 . S
C799 C800 1.524 . S
C799 C803 1.400 . S
C800 H785 0.960 . S
C800 H786 0.960 . S
C800 H787 0.960 . S
C800 C799 1.524 . S
C801 C798 1.403 . S
C801 C802 1.392 . S
C801 C805 1.495 . S
C802 C801 1.392 . S
C802 C803 1.385 . S
C802 C804 1.478 . S
C803 H797 0.930 . S
C803 C799 1.400 . S
C803 C802 1.385 . S
C804 C802 1.478 . S
C804 C806 1.381 . S
C804 C810 1.383 . S
C805 C801 1.495 . S
C805 H811 0.959 . S
C805 H812 0.961 . S
C805 H813 0.960 . S
C806 C804 1.381 . S
C806 C807 1.394 . S
C806 H814 0.930 . S
C807 C806 1.394 . S
C807 C808 1.383 . S
C807 H815 0.929 . S
C808 C807 1.383 . S
C808 C809 1.377 . S
C809 H793 0.930 . S
C809 C808 1.377 . S
C809 C810 1.379 . S
C810 H794 0.931 . S
C810 C804 1.383 . S
C810 C809 1.379 . S
H811 C805 0.959 . S
H812 C805 0.961 . S
H813 C805 0.960 . S
H814 C806 0.930 . S
H815 C807 0.929 . S
H816 C824 0.929 . S
H817 C826 0.930 . S
H818 C828 0.930 . S
H819 C831 0.929 . S
H820 C834 0.930 . S
H821 C836 0.960 . S
H822 C836 0.960 1_556 S
H823 C836 0.960 . S
C824 H816 0.929 . S
C824 C825 1.377 . S
C824 C826 1.384 . S
C825 C824 1.377 . S
C825 C831 1.390 . S
C826 H817 0.930 . S
C826 C824 1.384 . S
C826 C827 1.372 . S
C827 C826 1.372 . S
C827 C828 1.400 . S
C827 C832 1.490 . S
C828 H818 0.930 . S
C828 C827 1.400 . S
C828 C831 1.386 . S
H829 C845 0.930 . S
H830 C846 0.931 . S
C831 H819 0.929 . S
C831 C825 1.390 . S
C831 C828 1.386 . S
C832 C827 1.490 . S
C832 C834 1.395 1_565 S
C832 C835 1.403 1_556 S
H833 C839 0.930 . S
C834 H820 0.930 . S
C834 C832 1.395 1_545 S
C834 C837 1.403 . S
C835 C832 1.403 1_554 S
C835 C836 1.524 . S
C835 C839 1.400 . S
C836 H821 0.960 . S
C836 H822 0.960 1_554 S
C836 H823 0.960 . S
C836 C835 1.524 . S
C837 C834 1.403 . S
C837 C838 1.392 1_556 S
C837 C841 1.495 . S
C838 C837 1.392 1_554 S
C838 C839 1.385 1_545 S
C838 C840 1.478 . S
C839 H833 0.930 . S
C839 C835 1.400 . S
C839 C838 1.385 1_565 S
C840 C838 1.478 . S
C840 C842 1.381 . S
C840 C846 1.383 . S
C841 C837 1.495 . S
C841 H847 0.959 . S
C841 H848 0.961 . S
C841 H849 0.960 . S
C842 C840 1.381 . S
C842 C843 1.394 . S
C842 H850 0.930 . S
C843 C842 1.394 . S
C843 C844 1.383 . S
C843 H851 0.929 . S
C844 C843 1.383 . S
C844 C845 1.377 . S
C845 H829 0.930 . S
C845 C844 1.377 . S
C845 C846 1.379 . S
C846 H830 0.931 . S
C846 C840 1.383 . S
C846 C845 1.379 . S
H847 C841 0.959 . S
H848 C841 0.961 . S
H849 C841 0.960 . S
H850 C842 0.930 . S
H851 C843 0.929 . S
H852 C860 0.929 . S
H853 C862 0.930 . S
H854 C864 0.930 . S
H855 C867 0.929 . S
H856 C870 0.930 . S
H857 C872 0.960 . S
H858 C872 0.960 . S
H859 C872 0.960 . S
C860 H852 0.929 . S
C860 C861 1.377 . S
C860 C862 1.384 . S
C861 C860 1.377 . S
C861 C867 1.390 . S
C862 H853 0.930 . S
C862 C860 1.384 . S
C862 C863 1.372 . S
C863 C862 1.372 . S
C863 C864 1.400 . S
C863 C868 1.490 . S
C864 H854 0.930 . S
C864 C863 1.400 . S
C864 C867 1.386 . S
H865 C881 0.930 . S
H866 C882 0.931 . S
C867 H855 0.929 . S
C867 C861 1.390 . S
C867 C864 1.386 . S
C868 C863 1.490 . S
C868 C870 1.395 . S
C868 C871 1.403 . S
H869 C875 0.930 . S
C870 H856 0.930 . S
C870 C868 1.395 . S
C870 C873 1.403 . S
C871 C868 1.403 . S
C871 C872 1.524 . S
C871 C875 1.400 . S
C872 H857 0.960 . S
C872 H858 0.960 . S
C872 H859 0.960 . S
C872 C871 1.524 . S
C873 C870 1.403 . S
C873 C874 1.392 . S
C873 C877 1.495 . S
C874 C873 1.392 . S
C874 C875 1.385 . S
C874 C876 1.478 . S
C875 H869 0.930 . S
C875 C871 1.400 . S
C875 C874 1.385 . S
C876 C874 1.478 . S
C876 C878 1.381 . S
C876 C882 1.383 . S
C877 C873 1.495 . S
C877 H883 0.959 . S
C877 H884 0.961 . S
C877 H885 0.960 . S
C878 C876 1.381 . S
C878 C879 1.394 . S
C878 H886 0.930 . S
C879 C878 1.394 . S
C879 C880 1.383 . S
C879 H887 0.929 . S
C880 C879 1.383 . S
C880 C881 1.377 . S
C881 H865 0.930 . S
C881 C880 1.377 . S
C881 C882 1.379 . S
C882 H866 0.931 . S
C882 C876 1.383 . S
C882 C881 1.379 . S
H883 C877 0.959 . S
H884 C877 0.961 . S
H885 C877 0.960 . S
H886 C878 0.930 . S
H887 C879 0.929 . S
H888 C896 0.929 . S
H889 C898 0.930 . S
H890 C900 0.930 . S
H891 C903 0.929 . S
H892 C906 0.930 . S
H893 C908 0.960 . S
H894 C908 0.960 . S
H895 C908 0.960 . S
C896 H888 0.929 . S
C896 C897 1.377 . S
C896 C898 1.384 . S
C897 C896 1.377 . S
C897 C903 1.390 . S
C898 H889 0.930 . S
C898 C896 1.384 . S
C898 C899 1.372 . S
C899 C898 1.372 . S
C899 C900 1.400 . S
C899 C904 1.490 . S
C900 H890 0.930 . S
C900 C899 1.400 . S
C900 C903 1.386 . S
H901 C917 0.930 . S
H902 C918 0.931 . S
C903 H891 0.929 . S
C903 C897 1.390 . S
C903 C900 1.386 . S
C904 C899 1.490 . S
C904 C906 1.395 . S
C904 C907 1.403 . S
H905 C911 0.930 . S
C906 H892 0.930 . S
C906 C904 1.395 . S
C906 C909 1.403 1_455 S
C907 C904 1.403 . S
C907 C908 1.524 . S
C907 C911 1.400 1_455 S
C908 H893 0.960 . S
C908 H894 0.960 . S
C908 H895 0.960 . S
C908 C907 1.524 . S
C909 C906 1.403 1_655 S
C909 C910 1.392 . S
C909 C913 1.495 . S
C910 C909 1.392 . S
C910 C911 1.385 . S
C910 C912 1.478 . S
C911 H905 0.930 . S
C911 C907 1.400 1_655 S
C911 C910 1.385 . S
C912 C910 1.478 . S
C912 C914 1.381 . S
C912 C918 1.383 . S
C913 C909 1.495 . S
C913 H919 0.959 . S
C913 H920 0.961 . S
C913 H921 0.960 . S
C914 C912 1.381 . S
C914 C915 1.394 . S
C914 H922 0.930 . S
C915 C914 1.394 . S
C915 C916 1.383 . S
C915 H923 0.929 . S
C916 C915 1.383 . S
C916 C917 1.377 . S
C917 H901 0.930 . S
C917 C916 1.377 . S
C917 C918 1.379 . S
C918 H902 0.931 . S
C918 C912 1.383 . S
C918 C917 1.379 . S
H919 C913 0.959 . S
H920 C913 0.961 . S
H921 C913 0.960 . S
H922 C914 0.930 . S
H923 C915 0.929 . S
H924 C932 0.929 . S
H925 C934 0.930 . S
H926 C936 0.930 . S
H927 C939 0.929 . S
H928 C942 0.930 . S
H929 C944 0.960 . S
H930 C944 0.960 . S
H931 C944 0.960 . S
C932 H924 0.929 . S
C932 C933 1.377 . S
C932 C934 1.384 . S
C933 C932 1.377 . S
C933 C939 1.390 . S
C934 H925 0.930 . S
C934 C932 1.384 . S
C934 C935 1.372 . S
C935 C934 1.372 . S
C935 C936 1.400 . S
C935 C940 1.490 . S
C936 H926 0.930 . S
C936 C935 1.400 . S
C936 C939 1.386 . S
H937 C953 0.930 . S
H938 C954 0.931 . S
C939 H927 0.929 . S
C939 C933 1.390 . S
C939 C936 1.386 . S
C940 C935 1.490 . S
C940 C942 1.395 1_565 S
C940 C943 1.403 1_554 S
H941 C947 0.930 . S
C942 H928 0.930 . S
C942 C940 1.395 1_545 S
C942 C945 1.403 . S
C943 C940 1.403 1_556 S
C943 C944 1.524 . S
C943 C947 1.400 . S
C944 H929 0.960 . S
C944 H930 0.960 . S
C944 H931 0.960 . S
C944 C943 1.524 . S
C945 C942 1.403 . S
C945 C946 1.392 1_554 S
C945 C949 1.495 . S
C946 C945 1.392 1_556 S
C946 C947 1.385 1_545 S
C946 C948 1.478 . S
C947 H941 0.930 . S
C947 C943 1.400 . S
C947 C946 1.385 1_565 S
C948 C946 1.478 . S
C948 C950 1.381 . S
C948 C954 1.383 . S
C949 C945 1.495 . S
C949 H955 0.959 . S
C949 H956 0.961 . S
C949 H957 0.960 . S
C950 C948 1.381 . S
C950 C951 1.394 . S
C950 H958 0.930 . S
C951 C950 1.394 . S
C951 C952 1.383 . S
C951 H959 0.929 . S
C952 C951 1.383 . S
C952 C953 1.377 . S
C953 H937 0.930 . S
C953 C952 1.377 . S
C953 C954 1.379 . S
C954 H938 0.931 . S
C954 C948 1.383 . S
C954 C953 1.379 . S
H955 C949 0.959 . S
H956 C949 0.961 . S
H957 C949 0.960 . S
H958 C950 0.930 . S
H959 C951 0.929 . S
H960 C968 0.929 . S
H961 C970 0.930 . S
H962 C972 0.930 . S
H963 C975 0.929 . S
H964 C978 0.930 . S
H965 C980 0.960 . S
H966 C980 0.960 . S
H967 C980 0.960 . S
C968 H960 0.929 . S
C968 C969 1.377 . S
C968 C970 1.384 . S
C969 C968 1.377 . S
C969 C975 1.390 . S
C970 H961 0.930 . S
C970 C968 1.384 . S
C970 C971 1.372 . S
C971 C970 1.372 . S
C971 C972 1.400 . S
C971 C976 1.490 . S
C972 H962 0.930 . S
C972 C971 1.400 . S
C972 C975 1.386 . S
H973 C989 0.930 . S
H974 C990 0.931 . S
C975 H963 0.929 . S
C975 C969 1.390 . S
C975 C972 1.386 . S
C976 C971 1.490 . S
C976 C978 1.395 . S
C976 C979 1.403 . S
H977 C983 0.930 . S
C978 H964 0.930 . S
C978 C976 1.395 . S
C978 C981 1.403 . S
C979 C976 1.403 . S
C979 C980 1.524 . S
C979 C983 1.400 . S
C980 H965 0.960 . S
C980 H966 0.960 . S
C980 H967 0.960 . S
C980 C979 1.524 . S
C981 C978 1.403 . S
C981 C982 1.392 . S
C981 C985 1.495 . S
C982 C981 1.392 . S
C982 C983 1.385 . S
C982 C984 1.478 . S
C983 H977 0.930 . S
C983 C979 1.400 . S
C983 C982 1.385 . S
C984 C982 1.478 . S
C984 C986 1.381 . S
C984 C990 1.383 . S
C985 C981 1.495 . S
C985 H991 0.959 . S
C985 H992 0.961 . S
C985 H993 0.960 . S
C986 C984 1.381 . S
C986 C987 1.394 . S
C986 H994 0.930 . S
C987 C986 1.394 . S
C987 C988 1.383 . S
C987 H995 0.929 . S
C988 C987 1.383 . S
C988 C989 1.377 . S
C989 H973 0.930 . S
C989 C988 1.377 . S
C989 C990 1.379 . S
C990 H974 0.931 . S
C990 C984 1.383 . S
C990 C989 1.379 . S
H991 C985 0.959 . S
H992 C985 0.961 . S
H993 C985 0.960 . S
H994 C986 0.930 . S
H995 C987 0.929 . S
H996 C1004 0.929 . S
H997 C1006 0.930 . S
H998 C1008 0.930 . S
H999 C1011 0.929 . S
H1000 C1014 0.930 . S
H1001 C1016 0.960 . S
H1002 C1016 0.960 . S
H1003 C1016 0.960 . S
C1004 H996 0.929 . S
C1004 C1005 1.377 . S
C1004 C1006 1.384 . S
C1005 C1004 1.377 . S
C1005 C1011 1.390 . S
C1006 H997 0.930 . S
C1006 C1004 1.384 . S
C1006 C1007 1.372 . S
C1007 C1006 1.372 . S
C1007 C1008 1.400 . S
C1007 C1012 1.490 . S
C1008 H998 0.930 . S
C1008 C1007 1.400 . S
C1008 C1011 1.386 . S
H1009 C1025 0.930 . S
H1010 C1026 0.931 . S
C1011 H999 0.929 . S
C1011 C1005 1.390 . S
C1011 C1008 1.386 . S
C1012 C1007 1.490 . S
C1012 C1014 1.395 1_455 S
C1012 C1015 1.403 . S
H1013 C1019 0.946 . S
C1014 H1000 0.930 . S
C1014 C1012 1.395 1_655 S
C1014 C1017 1.403 . S
C1015 C1012 1.403 . S
C1015 C1016 1.524 . S
C1015 C1019 1.426 . S
C1016 H1001 0.960 . S
C1016 H1002 0.960 . S
C1016 H1003 0.960 . S
C1016 C1015 1.524 . S
C1017 C1014 1.403 . S
C1017 C1018 1.392 . S
C1017 C1021 1.495 . S
C1018 C1017 1.392 . S
C1018 C1019 1.344 1_655 S
C1018 C1020 1.478 . S
C1019 H1013 0.946 . S
C1019 C1015 1.426 . S
C1019 C1018 1.344 1_455 S
C1020 C1018 1.478 . S
C1020 C1022 1.381 . S
C1020 C1026 1.383 . S
C1021 C1017 1.495 . S
C1021 H1027 0.959 . S
C1021 H1028 0.961 . S
C1021 H1029 0.960 . S
C1022 C1020 1.381 . S
C1022 C1023 1.394 . S
C1022 H1030 0.930 . S
C1023 C1022 1.394 . S
C1023 C1024 1.383 . S
C1023 H1031 0.929 . S
C1024 C1023 1.383 . S
C1024 C1025 1.377 . S
C1025 H1009 0.930 . S
C1025 C1024 1.377 . S
C1025 C1026 1.379 . S
C1026 H1010 0.931 . S
C1026 C1020 1.383 . S
C1026 C1025 1.379 . S
H1027 C1021 0.959 . S
H1028 C1021 0.961 . S
H1029 C1021 0.960 . S
H1030 C1022 0.930 . S
H1031 C1023 0.929 . S
H1032 C1040 0.929 . S
H1033 C1042 0.930 . S
H1034 C1044 0.930 . S
H1035 C1047 0.929 . S
H1036 C1050 0.930 . S
H1037 C1052 0.960 . S
H1038 C1052 0.960 . S
H1039 C1052 0.960 . S
C1040 H1032 0.929 . S
C1040 C1041 1.377 . S
C1040 C1042 1.384 . S
C1041 C1040 1.377 . S
C1041 C1047 1.390 . S
C1042 H1033 0.930 . S
C1042 C1040 1.384 . S
C1042 C1043 1.372 . S
C1043 C1042 1.372 . S
C1043 C1044 1.400 . S
C1043 C1048 1.490 . S
C1044 H1034 0.930 . S
C1044 C1043 1.400 . S
C1044 C1047 1.386 . S
H1045 C1061 0.930 . S
H1046 C1062 0.931 . S
C1047 H1035 0.929 . S
C1047 C1041 1.390 . S
C1047 C1044 1.386 . S
C1048 C1043 1.490 . S
C1048 C1050 1.395 . S
C1048 C1051 1.403 1_545 S
H1049 C1055 0.930 . S
C1050 H1036 0.930 . S
C1050 C1048 1.395 . S
C1050 C1053 1.403 . S
C1051 C1048 1.403 1_565 S
C1051 C1052 1.524 . S
C1051 C1055 1.400 . S
C1052 H1037 0.960 . S
C1052 H1038 0.960 . S
C1052 H1039 0.960 . S
C1052 C1051 1.524 . S
C1053 C1050 1.403 . S
C1053 C1054 1.392 1_545 S
C1053 C1057 1.495 . S
C1054 C1053 1.392 1_565 S
C1054 C1055 1.385 . S
C1054 C1056 1.478 . S
C1055 H1049 0.930 . S
C1055 C1051 1.400 . S
C1055 C1054 1.385 . S
C1056 C1054 1.478 . S
C1056 C1058 1.381 . S
C1056 C1062 1.383 . S
C1057 C1053 1.495 . S
C1057 H1063 0.959 . S
C1057 H1064 0.961 . S
C1057 H1065 0.960 . S
C1058 C1056 1.381 . S
C1058 C1059 1.394 . S
C1058 H1066 0.930 . S
C1059 C1058 1.394 . S
C1059 C1060 1.383 . S
C1059 H1067 0.929 . S
C1060 C1059 1.383 . S
C1060 C1061 1.377 . S
C1061 H1045 0.930 . S
C1061 C1060 1.377 . S
C1061 C1062 1.379 . S
C1062 H1046 0.931 . S
C1062 C1056 1.383 . S
C1062 C1061 1.379 . S
H1063 C1057 0.959 . S
H1064 C1057 0.961 . S
H1065 C1057 0.960 . S
H1066 C1058 0.930 . S
H1067 C1059 0.929 . S
H1068 C1076 0.929 . S
H1069 C1078 0.930 . S
H1070 C1080 0.930 . S
H1071 C1083 0.929 . S
H1072 C1086 0.930 . S
H1073 C1088 0.960 . S
H1074 C1088 0.960 . S
H1075 C1088 0.960 . S
C1076 H1068 0.929 . S
C1076 C1077 1.377 . S
C1076 C1078 1.384 . S
C1077 C1076 1.377 . S
C1077 C1083 1.390 . S
C1078 H1069 0.930 . S
C1078 C1076 1.384 . S
C1078 C1079 1.372 . S
C1079 C1078 1.372 . S
C1079 C1080 1.400 . S
C1079 C1084 1.490 . S
C1080 H1070 0.930 . S
C1080 C1079 1.400 . S
C1080 C1083 1.386 . S
H1081 C1097 0.930 . S
H1082 C1098 0.931 . S
C1083 H1071 0.929 . S
C1083 C1077 1.390 . S
C1083 C1080 1.386 . S
C1084 C1079 1.490 . S
C1084 C1086 1.395 . S
C1084 C1087 1.403 . S
H1085 C1091 0.930 . S
C1086 H1072 0.930 . S
C1086 C1084 1.395 . S
C1086 C1089 1.403 . S
C1087 C1084 1.403 . S
C1087 C1088 1.524 . S
C1087 C1091 1.400 . S
C1088 H1073 0.960 . S
C1088 H1074 0.960 . S
C1088 H1075 0.960 . S
C1088 C1087 1.524 . S
C1089 C1086 1.403 . S
C1089 C1090 1.392 . S
C1089 C1093 1.495 . S
C1090 C1089 1.392 . S
C1090 C1091 1.385 . S
C1090 C1092 1.478 . S
C1091 H1085 0.930 . S
C1091 C1087 1.400 . S
C1091 C1090 1.385 . S
C1092 C1090 1.478 . S
C1092 C1094 1.381 . S
C1092 C1098 1.383 . S
C1093 C1089 1.495 . S
C1093 H1099 0.959 . S
C1093 H1100 0.961 . S
C1093 H1101 0.960 . S
C1094 C1092 1.381 . S
C1094 C1095 1.394 . S
C1094 H1102 0.930 . S
C1095 C1094 1.394 . S
C1095 C1096 1.383 . S
C1095 H1103 0.929 . S
C1096 C1095 1.383 . S
C1096 C1097 1.377 . S
C1097 H1081 0.930 . S
C1097 C1096 1.377 . S
C1097 C1098 1.379 . S
C1098 H1082 0.931 . S
C1098 C1092 1.383 . S
C1098 C1097 1.379 . S
H1099 C1093 0.959 . S
H1100 C1093 0.961 . S
H1101 C1093 0.960 . S
H1102 C1094 0.930 . S
H1103 C1095 0.929 . S
H1104 C1112 0.929 . S
H1105 C1114 0.930 . S
H1106 C1116 0.930 . S
H1107 C1119 0.929 . S
H1108 C1122 0.930 . S
H1109 C1124 0.960 . S
H1110 C1124 0.960 . S
H1111 C1124 0.960 . S
C1112 H1104 0.929 . S
C1112 C1113 1.377 . S
C1112 C1114 1.384 . S
C1113 C1112 1.377 . S
C1113 C1119 1.390 . S
C1114 H1105 0.930 . S
C1114 C1112 1.384 . S
C1114 C1115 1.372 . S
C1115 C1114 1.372 . S
C1115 C1116 1.400 . S
C1115 C1120 1.490 . S
C1116 H1106 0.930 . S
C1116 C1115 1.400 . S
C1116 C1119 1.386 . S
H1117 C1133 0.930 . S
H1118 C1134 0.931 . S
C1119 H1107 0.929 . S
C1119 C1113 1.390 . S
C1119 C1116 1.386 . S
C1120 C1115 1.490 . S
C1120 C1122 1.395 1_556 S
C1120 C1123 1.403 . S
H1121 C1127 0.930 . S
C1122 H1108 0.930 . S
C1122 C1120 1.395 1_554 S
C1122 C1125 1.403 1_655 S
C1123 C1120 1.403 . S
C1123 C1124 1.524 . S
C1123 C1127 1.400 1_655 S
C1124 H1109 0.960 . S
C1124 H1110 0.960 . S
C1124 H1111 0.960 . S
C1124 C1123 1.524 . S
C1125 C1122 1.403 1_455 S
C1125 C1126 1.392 1_554 S
C1125 C1129 1.495 . S
C1126 C1125 1.392 1_556 S
C1126 C1127 1.385 . S
C1126 C1128 1.478 . S
C1127 H1121 0.930 . S
C1127 C1123 1.400 1_455 S
C1127 C1126 1.385 . S
C1128 C1126 1.478 . S
C1128 C1130 1.381 . S
C1128 C1134 1.383 . S
C1129 C1125 1.495 . S
C1129 H1135 0.959 . S
C1129 H1136 0.961 . S
C1129 H1137 0.960 . S
C1130 C1128 1.381 . S
C1130 C1131 1.394 . S
C1130 H1138 0.930 . S
C1131 C1130 1.394 . S
C1131 C1132 1.383 . S
C1131 H1139 0.929 . S
C1132 C1131 1.383 . S
C1132 C1133 1.377 . S
C1133 H1117 0.930 . S
C1133 C1132 1.377 . S
C1133 C1134 1.379 . S
C1134 H1118 0.931 . S
C1134 C1128 1.383 . S
C1134 C1133 1.379 . S
H1135 C1129 0.959 . S
H1136 C1129 0.961 . S
H1137 C1129 0.960 . S
H1138 C1130 0.930 . S
H1139 C1131 0.929 . S
H1140 C1148 0.929 . S
H1141 C1150 0.930 . S
H1142 C1152 0.930 . S
H1143 C1155 0.929 . S
H1144 C1158 0.930 . S
H1145 C1160 0.960 . S
H1146 C1160 0.960 . S
H1147 C1160 0.960 . S
C1148 H1140 0.929 . S
C1148 C1149 1.377 . S
C1148 C1150 1.384 . S
C1149 C1148 1.377 . S
C1149 C1155 1.390 . S
C1150 H1141 0.930 . S
C1150 C1148 1.384 . S
C1150 C1151 1.372 . S
C1151 C1150 1.372 . S
C1151 C1152 1.400 . S
C1151 C1156 1.490 . S
C1152 H1142 0.930 . S
C1152 C1151 1.400 . S
C1152 C1155 1.386 . S
H1153 C1169 0.930 . S
H1154 C1170 0.931 . S
C1155 H1143 0.929 . S
C1155 C1149 1.390 . S
C1155 C1152 1.386 . S
C1156 C1151 1.490 . S
C1156 C1158 1.395 1_455 S
C1156 C1159 1.403 . S
H1157 C1163 0.930 . S
C1158 H1144 0.930 . S
C1158 C1156 1.395 1_655 S
C1158 C1161 1.403 . S
C1159 C1156 1.403 . S
C1159 C1160 1.524 . S
C1159 C1163 1.400 . S
C1160 H1145 0.960 . S
C1160 H1146 0.960 . S
C1160 H1147 0.960 . S
C1160 C1159 1.524 . S
C1161 C1158 1.403 . S
C1161 C1162 1.392 . S
C1161 C1165 1.495 . S
C1162 C1161 1.392 . S
C1162 C1163 1.385 1_655 S
C1162 C1164 1.478 . S
C1163 H1157 0.930 . S
C1163 C1159 1.400 . S
C1163 C1162 1.385 1_455 S
C1164 C1162 1.478 . S
C1164 C1166 1.381 . S
C1164 C1170 1.383 . S
C1165 C1161 1.495 . S
C1165 H1171 0.959 . S
C1165 H1172 0.961 . S
C1165 H1173 0.960 . S
C1166 C1164 1.381 . S
C1166 C1167 1.394 . S
C1166 H1174 0.930 . S
C1167 C1166 1.394 . S
C1167 C1168 1.383 . S
C1167 H1175 0.929 . S
C1168 C1167 1.383 . S
C1168 C1169 1.377 . S
C1169 H1153 0.930 . S
C1169 C1168 1.377 . S
C1169 C1170 1.379 . S
C1170 H1154 0.931 . S
C1170 C1164 1.383 . S
C1170 C1169 1.379 . S
H1171 C1165 0.959 . S
H1172 C1165 0.961 . S
H1173 C1165 0.960 . S
H1174 C1166 0.930 . S
H1175 C1167 0.929 . S
H1176 C1184 0.929 . S
H1177 C1186 0.930 . S
H1178 C1188 0.930 . S
H1179 C1191 0.929 . S
H1180 C1194 0.930 . S
H1181 C1196 0.960 . S
H1182 C1196 0.960 . S
H1183 C1196 0.960 . S
C1184 H1176 0.929 . S
C1184 C1185 1.377 . S
C1184 C1186 1.384 . S
C1185 C1184 1.377 . S
C1185 C1191 1.390 . S
C1186 H1177 0.930 . S
C1186 C1184 1.384 . S
C1186 C1187 1.372 . S
C1187 C1186 1.372 . S
C1187 C1188 1.400 . S
C1187 C1192 1.490 . S
C1188 H1178 0.930 . S
C1188 C1187 1.400 . S
C1188 C1191 1.386 . S
H1189 C1205 0.930 . S
H1190 C1206 0.931 . S
C1191 H1179 0.929 . S
C1191 C1185 1.390 . S
C1191 C1188 1.386 . S
C1192 C1187 1.490 . S
C1192 C1194 1.395 1_565 S
C1192 C1195 1.403 . S
H1193 C1199 0.930 . S
C1194 H1180 0.930 . S
C1194 C1192 1.395 1_545 S
C1194 C1197 1.403 . S
C1195 C1192 1.403 . S
C1195 C1196 1.524 . S
C1195 C1199 1.400 . S
C1196 H1181 0.960 . S
C1196 H1182 0.960 . S
C1196 H1183 0.960 . S
C1196 C1195 1.524 . S
C1197 C1194 1.403 . S
C1197 C1198 1.392 . S
C1197 C1201 1.495 . S
C1198 C1197 1.392 . S
C1198 C1199 1.385 1_545 S
C1198 C1200 1.478 . S
C1199 H1193 0.930 . S
C1199 C1195 1.400 . S
C1199 C1198 1.385 1_565 S
C1200 C1198 1.478 . S
C1200 C1202 1.381 . S
C1200 C1206 1.383 . S
C1201 C1197 1.495 . S
C1201 H1207 0.959 . S
C1201 H1208 0.961 . S
C1201 H1209 0.960 . S
C1202 C1200 1.381 . S
C1202 C1203 1.394 . S
C1202 H1210 0.930 . S
C1203 C1202 1.394 . S
C1203 C1204 1.383 . S
C1203 H1211 0.929 . S
C1204 C1203 1.383 . S
C1204 C1205 1.377 . S
C1205 H1189 0.930 . S
C1205 C1204 1.377 . S
C1205 C1206 1.379 . S
C1206 H1190 0.931 . S
C1206 C1200 1.383 . S
C1206 C1205 1.379 . S
H1207 C1201 0.959 . S
H1208 C1201 0.961 . S
H1209 C1201 0.960 . S
H1210 C1202 0.930 . S
H1211 C1203 0.929 . S
H1212 C1220 0.943 . S
H1213 C1222 0.930 . S
H1214 C1224 0.930 . S
H1215 C1227 0.929 . S
H1216 C1230 0.930 . S
H1217 C1232 0.960 . S
H1218 C1232 0.960 . S
H1219 C1232 0.960 . S
C1220 H1212 0.943 . S
C1220 C1221 1.364 1_556 S
C1220 C1222 1.384 . S
C1221 C1220 1.364 1_554 S
C1221 C1227 1.390 . S
C1222 H1213 0.930 . S
C1222 C1220 1.384 . S
C1222 C1223 1.372 1_556 S
C1223 C1222 1.372 1_554 S
C1223 C1224 1.400 . S
C1223 C1228 1.490 . S
C1224 H1214 0.930 . S
C1224 C1223 1.400 . S
C1224 C1227 1.386 . S
H1225 C1241 0.930 . S
H1226 C1242 0.931 . S
C1227 H1215 0.929 . S
C1227 C1221 1.390 . S
C1227 C1224 1.386 . S
C1228 C1223 1.490 . S
C1228 C1230 1.395 . S
C1228 C1231 1.403 . S
H1229 C1235 0.930 . S
C1230 H1216 0.930 . S
C1230 C1228 1.395 . S
C1230 C1233 1.403 . S
C1231 C1228 1.403 . S
C1231 C1232 1.524 . S
C1231 C1235 1.400 . S
C1232 H1217 0.960 . S
C1232 H1218 0.960 . S
C1232 H1219 0.960 . S
C1232 C1231 1.524 . S
C1233 C1230 1.403 . S
C1233 C1234 1.392 . S
C1233 C1237 1.497 . S
C1234 C1233 1.392 . S
C1234 C1235 1.385 . S
C1234 C1236 1.478 . S
C1235 H1229 0.930 . S
C1235 C1231 1.400 . S
C1235 C1234 1.385 . S
C1236 C1234 1.478 . S
C1236 C1238 1.381 1_554 S
C1236 C1242 1.383 . S
C1237 C1233 1.497 . S
C1237 H1243 0.958 1_554 S
C1237 H1244 0.964 . S
C1237 H1245 0.956 1_554 S
C1238 C1236 1.381 1_556 S
C1238 C1239 1.394 . S
C1238 H1246 0.930 . S
C1239 C1238 1.394 . S
C1239 C1240 1.383 1_556 S
C1239 H1247 0.929 . S
C1240 C1239 1.383 1_554 S
C1240 C1241 1.377 . S
C1241 H1225 0.930 . S
C1241 C1240 1.377 . S
C1241 C1242 1.379 . S
C1242 H1226 0.931 . S
C1242 C1236 1.383 . S
C1242 C1241 1.379 . S
H1243 C1237 0.958 1_556 S
H1244 C1237 0.964 . S
H1245 C1237 0.956 1_556 S
H1246 C1238 0.930 . S
H1247 C1239 0.929 . S
H1248 C1256 0.929 . S
H1249 C1258 0.930 . S
H1250 C1260 0.930 . S
H1251 C1263 0.929 . S
H1252 C1266 0.930 . S
H1253 C1268 0.960 . S
H1254 C1268 0.960 . S
H1255 C1268 0.960 . S
C1256 H1248 0.929 . S
C1256 C1257 1.377 . S
C1256 C1258 1.384 . S
C1257 C1256 1.377 . S
C1257 C1263 1.390 . S
C1258 H1249 0.930 . S
C1258 C1256 1.384 . S
C1258 C1259 1.372 . S
C1259 C1258 1.372 . S
C1259 C1260 1.400 . S
C1259 C1264 1.490 . S
C1260 H1250 0.930 . S
C1260 C1259 1.400 . S
C1260 C1263 1.386 . S
H1261 C1277 0.930 . S
H1262 C1278 0.931 . S
C1263 H1251 0.929 . S
C1263 C1257 1.390 . S
C1263 C1260 1.386 . S
C1264 C1259 1.490 . S
C1264 C1266 1.395 1_565 S
C1264 C1267 1.403 . S
H1265 C1271 0.930 . S
C1266 H1252 0.930 . S
C1266 C1264 1.395 1_545 S
C1266 C1269 1.403 . S
C1267 C1264 1.403 . S
C1267 C1268 1.524 . S
C1267 C1271 1.400 . S
C1268 H1253 0.960 . S
C1268 H1254 0.960 . S
C1268 H1255 0.960 . S
C1268 C1267 1.524 . S
C1269 C1266 1.403 . S
C1269 C1270 1.392 . S
C1269 C1273 1.495 . S
C1270 C1269 1.392 . S
C1270 C1271 1.385 1_545 S
C1270 C1272 1.478 . S
C1271 H1265 0.930 . S
C1271 C1267 1.400 . S
C1271 C1270 1.385 1_565 S
C1272 C1270 1.478 . S
C1272 C1274 1.381 . S
C1272 C1278 1.383 . S
C1273 C1269 1.495 . S
C1273 H1279 0.959 . S
C1273 H1280 0.961 . S
C1273 H1281 0.960 . S
C1274 C1272 1.381 . S
C1274 C1275 1.394 . S
C1274 H1282 0.930 . S
C1275 C1274 1.394 . S
C1275 C1276 1.383 . S
C1275 H1283 0.929 . S
C1276 C1275 1.383 . S
C1276 C1277 1.377 . S
C1277 H1261 0.930 . S
C1277 C1276 1.377 . S
C1277 C1278 1.379 . S
C1278 H1262 0.931 . S
C1278 C1272 1.383 . S
C1278 C1277 1.379 . S
H1279 C1273 0.959 . S
H1280 C1273 0.961 . S
H1281 C1273 0.960 . S
H1282 C1274 0.930 . S
H1283 C1275 0.929 . S
H1284 C1292 0.929 . S
H1285 C1294 0.930 . S
H1286 C1296 0.930 . S
H1287 C1299 0.929 . S
H1288 C1302 0.930 . S
H1289 C1304 0.960 . S
H1290 C1304 0.960 . S
H1291 C1304 0.960 . S
C1292 H1284 0.929 . S
C1292 C1293 1.377 . S
C1292 C1294 1.384 . S
C1293 C1292 1.377 . S
C1293 C1299 1.390 . S
C1294 H1285 0.930 . S
C1294 C1292 1.384 . S
C1294 C1295 1.372 . S
C1295 C1294 1.372 . S
C1295 C1296 1.400 . S
C1295 C1300 1.490 . S
C1296 H1286 0.930 . S
C1296 C1295 1.400 . S
C1296 C1299 1.386 . S
H1297 C1313 0.930 . S
H1298 C1314 0.931 . S
C1299 H1287 0.929 . S
C1299 C1293 1.390 . S
C1299 C1296 1.386 . S
C1300 C1295 1.490 . S
C1300 C1302 1.395 . S
C1300 C1303 1.403 . S
H1301 C1307 0.930 . S
C1302 H1288 0.930 . S
C1302 C1300 1.395 . S
C1302 C1305 1.403 . S
C1303 C1300 1.403 . S
C1303 C1304 1.524 . S
C1303 C1307 1.400 . S
C1304 H1289 0.960 . S
C1304 H1290 0.960 . S
C1304 H1291 0.960 . S
C1304 C1303 1.524 . S
C1305 C1302 1.403 . S
C1305 C1306 1.392 . S
C1305 C1309 1.495 . S
C1306 C1305 1.392 . S
C1306 C1307 1.385 . S
C1306 C1308 1.478 . S
C1307 H1301 0.930 . S
C1307 C1303 1.400 . S
C1307 C1306 1.385 . S
C1308 C1306 1.478 . S
C1308 C1310 1.381 . S
C1308 C1314 1.383 . S
C1309 C1305 1.495 . S
C1309 H1315 0.959 . S
C1309 H1316 0.961 . S
C1309 H1317 0.960 . S
C1310 C1308 1.381 . S
C1310 C1311 1.394 . S
C1310 H1318 0.930 . S
C1311 C1310 1.394 . S
C1311 C1312 1.383 . S
C1311 H1319 0.929 . S
C1312 C1311 1.383 . S
C1312 C1313 1.377 . S
C1313 H1297 0.930 . S
C1313 C1312 1.377 . S
C1313 C1314 1.379 . S
C1314 H1298 0.931 . S
C1314 C1308 1.383 . S
C1314 C1313 1.379 . S
H1315 C1309 0.959 . S
H1316 C1309 0.961 . S
H1317 C1309 0.960 . S
H1318 C1310 0.930 . S
H1319 C1311 0.929 . S
H1320 C1328 0.929 . S
H1321 C1330 0.930 . S
H1322 C1332 0.930 . S
H1323 C1335 0.929 1_556 S
H1324 C1338 0.930 . S
H1325 C1340 0.960 . S
H1326 C1340 0.960 . S
H1327 C1340 0.960 . S
C1328 H1320 0.929 . S
C1328 C1329 1.377 . S
C1328 C1330 1.384 . S
C1329 C1328 1.377 . S
C1329 C1335 1.390 . S
C1330 H1321 0.930 . S
C1330 C1328 1.384 . S
C1330 C1331 1.372 . S
C1331 C1330 1.372 . S
C1331 C1332 1.400 . S
C1331 C1336 1.490 . S
C1332 H1322 0.930 . S
C1332 C1331 1.400 . S
C1332 C1335 1.386 . S
H1333 C1349 0.930 . S
H1334 C1350 0.931 . S
C1335 H1323 0.929 1_554 S
C1335 C1329 1.390 . S
C1335 C1332 1.386 . S
C1336 C1331 1.490 . S
C1336 C1338 1.395 . S
C1336 C1339 1.403 . S
H1337 C1343 0.930 . S
C1338 H1324 0.930 . S
C1338 C1336 1.395 . S
C1338 C1341 1.403 1_655 S
C1339 C1336 1.403 . S
C1339 C1340 1.524 . S
C1339 C1343 1.400 1_655 S
C1340 H1325 0.960 . S
C1340 H1326 0.960 . S
C1340 H1327 0.960 . S
C1340 C1339 1.524 . S
C1341 C1338 1.403 1_455 S
C1341 C1342 1.392 . S
C1341 C1345 1.495 . S
C1342 C1341 1.392 . S
C1342 C1343 1.385 . S
C1342 C1344 1.478 . S
C1343 H1337 0.930 . S
C1343 C1339 1.400 1_455 S
C1343 C1342 1.385 . S
C1344 C1342 1.478 . S
C1344 C1346 1.381 . S
C1344 C1350 1.383 . S
C1345 C1341 1.495 . S
C1345 H1351 0.959 . S
C1345 H1352 0.961 . S
C1345 H1353 0.960 . S
C1346 C1344 1.381 . S
C1346 C1347 1.394 . S
C1346 H1354 0.930 . S
C1347 C1346 1.394 . S
C1347 C1348 1.383 . S
C1347 H1355 0.929 . S
C1348 C1347 1.383 . S
C1348 C1349 1.377 . S
C1349 H1333 0.930 . S
C1349 C1348 1.377 . S
C1349 C1350 1.379 . S
C1350 H1334 0.931 . S
C1350 C1344 1.383 . S
C1350 C1349 1.379 . S
H1351 C1345 0.959 . S
H1352 C1345 0.961 . S
H1353 C1345 0.960 . S
H1354 C1346 0.930 . S
H1355 C1347 0.929 . S
H1356 C1364 0.929 . S
H1357 C1366 0.930 . S
H1358 C1368 0.930 . S
H1359 C1371 0.929 . S
H1360 C1374 0.930 . S
H1361 C1376 0.960 . S
H1362 C1376 0.960 . S
H1363 C1376 0.960 . S
C1364 H1356 0.929 . S
C1364 C1365 1.377 . S
C1364 C1366 1.384 . S
C1365 C1364 1.377 . S
C1365 C1371 1.390 . S
C1366 H1357 0.930 . S
C1366 C1364 1.384 . S
C1366 C1367 1.372 . S
C1367 C1366 1.372 . S
C1367 C1368 1.400 . S
C1367 C1372 1.490 . S
C1368 H1358 0.930 . S
C1368 C1367 1.400 . S
C1368 C1371 1.386 . S
H1369 C1385 0.930 . S
H1370 C1386 0.931 . S
C1371 H1359 0.929 . S
C1371 C1365 1.390 . S
C1371 C1368 1.386 . S
C1372 C1367 1.490 . S
C1372 C1374 1.395 1_545 S
C1372 C1375 1.403 . S
H1373 C1379 0.929 . S
C1374 H1360 0.930 . S
C1374 C1372 1.395 1_565 S
C1374 C1377 1.403 . S
C1375 C1372 1.403 . S
C1375 C1376 1.524 . S
C1375 C1379 1.437 . S
C1376 H1361 0.960 . S
C1376 H1362 0.960 . S
C1376 H1363 0.960 . S
C1376 C1375 1.524 . S
C1377 C1374 1.403 . S
C1377 C1378 1.392 . S
C1377 C1381 1.495 . S
C1378 C1377 1.392 . S
C1378 C1379 1.353 1_565 S
C1378 C1380 1.478 . S
C1379 H1373 0.929 . S
C1379 C1375 1.437 . S
C1379 C1378 1.353 1_545 S
C1380 C1378 1.478 . S
C1380 C1382 1.381 . S
C1380 C1386 1.383 . S
C1381 C1377 1.495 . S
C1381 H1387 0.959 . S
C1381 H1388 0.961 . S
C1381 H1389 0.960 . S
C1382 C1380 1.381 . S
C1382 C1383 1.394 . S
C1382 H1390 0.930 . S
C1383 C1382 1.394 . S
C1383 C1384 1.383 . S
C1383 H1391 0.929 . S
C1384 C1383 1.383 . S
C1384 C1385 1.377 . S
C1385 H1369 0.930 . S
C1385 C1384 1.377 . S
C1385 C1386 1.379 . S
C1386 H1370 0.931 . S
C1386 C1380 1.383 . S
C1386 C1385 1.379 . S
H1387 C1381 0.959 . S
H1388 C1381 0.961 . S
H1389 C1381 0.960 . S
H1390 C1382 0.930 . S
H1391 C1383 0.929 . S
H1392 C1400 0.929 . S
H1393 C1402 0.930 . S
H1394 C1404 0.930 . S
H1395 C1407 0.929 . S
H1396 C1410 0.930 . S
H1397 C1412 0.960 . S
H1398 C1412 0.960 . S
H1399 C1412 0.960 . S
C1400 H1392 0.929 . S
C1400 C1401 1.377 . S
C1400 C1402 1.384 . S
C1401 C1400 1.377 . S
C1401 C1407 1.390 . S
C1402 H1393 0.930 . S
C1402 C1400 1.384 . S
C1402 C1403 1.372 . S
C1403 C1402 1.372 . S
C1403 C1404 1.400 . S
C1403 C1408 1.490 . S
C1404 H1394 0.930 . S
C1404 C1403 1.400 . S
C1404 C1407 1.386 . S
H1405 C1421 0.930 . S
H1406 C1422 0.931 . S
C1407 H1395 0.929 . S
C1407 C1401 1.390 . S
C1407 C1404 1.386 . S
C1408 C1403 1.490 . S
C1408 C1410 1.395 . S
C1408 C1411 1.403 . S
H1409 C1415 0.930 . S
C1410 H1396 0.930 . S
C1410 C1408 1.395 . S
C1410 C1413 1.403 . S
C1411 C1408 1.403 . S
C1411 C1412 1.524 . S
C1411 C1415 1.400 . S
C1412 H1397 0.960 . S
C1412 H1398 0.960 . S
C1412 H1399 0.960 . S
C1412 C1411 1.524 . S
C1413 C1410 1.403 . S
C1413 C1414 1.392 . S
C1413 C1417 1.495 . S
C1414 C1413 1.392 . S
C1414 C1415 1.385 . S
C1414 C1416 1.478 . S
C1415 H1409 0.930 . S
C1415 C1411 1.400 . S
C1415 C1414 1.385 . S
C1416 C1414 1.478 . S
C1416 C1418 1.381 . S
C1416 C1422 1.383 . S
C1417 C1413 1.495 . S
C1417 H1423 0.959 . S
C1417 H1424 0.961 . S
C1417 H1425 0.960 . S
C1418 C1416 1.381 . S
C1418 C1419 1.394 . S
C1418 H1426 0.930 . S
C1419 C1418 1.394 . S
C1419 C1420 1.383 . S
C1419 H1427 0.929 . S
C1420 C1419 1.383 . S
C1420 C1421 1.377 . S
C1421 H1405 0.930 . S
C1421 C1420 1.377 . S
C1421 C1422 1.379 . S
C1422 H1406 0.931 . S
C1422 C1416 1.383 . S
C1422 C1421 1.379 . S
H1423 C1417 0.959 . S
H1424 C1417 0.961 . S
H1425 C1417 0.960 . S
H1426 C1418 0.930 . S
H1427 C1419 0.929 . S
H1428 C1436 0.929 . S
H1429 C1438 0.930 . S
H1430 C1440 0.930 . S
H1431 C1443 0.929 . S
H1432 C1446 0.930 . S
H1433 C1448 0.960 . S
H1434 C1448 0.960 . S
H1435 C1448 0.960 . S
C1436 H1428 0.929 . S
C1436 C1437 1.377 . S
C1436 C1438 1.384 . S
C1437 C1436 1.377 . S
C1437 C1443 1.390 . S
C1438 H1429 0.930 . S
C1438 C1436 1.384 . S
C1438 C1439 1.372 . S
C1439 C1438 1.372 . S
C1439 C1440 1.400 . S
C1439 C1444 1.490 . S
C1440 H1430 0.930 . S
C1440 C1439 1.400 . S
C1440 C1443 1.386 . S
H1441 C1457 0.930 . S
H1442 C1458 0.931 . S
C1443 H1431 0.929 . S
C1443 C1437 1.390 . S
C1443 C1440 1.386 . S
C1444 C1439 1.490 . S
C1444 C1446 1.395 1_455 S
C1444 C1447 1.403 . S
H1445 C1451 0.930 . S
C1446 H1432 0.930 . S
C1446 C1444 1.395 1_655 S
C1446 C1449 1.403 . S
C1447 C1444 1.403 . S
C1447 C1448 1.524 . S
C1447 C1451 1.400 . S
C1448 H1433 0.960 . S
C1448 H1434 0.960 . S
C1448 H1435 0.960 . S
C1448 C1447 1.524 . S
C1449 C1446 1.403 . S
C1449 C1450 1.392 . S
C1449 C1453 1.495 . S
C1450 C1449 1.392 . S
C1450 C1451 1.385 1_655 S
C1450 C1452 1.478 . S
C1451 H1445 0.930 . S
C1451 C1447 1.400 . S
C1451 C1450 1.385 1_455 S
C1452 C1450 1.478 . S
C1452 C1454 1.381 . S
C1452 C1458 1.383 . S
C1453 C1449 1.495 . S
C1453 H1459 0.959 . S
C1453 H1460 0.961 . S
C1453 H1461 0.960 . S
C1454 C1452 1.381 . S
C1454 C1455 1.394 . S
C1454 H1462 0.930 . S
C1455 C1454 1.394 . S
C1455 C1456 1.383 . S
C1455 H1463 0.929 . S
C1456 C1455 1.383 . S
C1456 C1457 1.377 . S
C1457 H1441 0.930 . S
C1457 C1456 1.377 . S
C1457 C1458 1.379 . S
C1458 H1442 0.931 . S
C1458 C1452 1.383 . S
C1458 C1457 1.379 . S
H1459 C1453 0.959 . S
H1460 C1453 0.961 . S
H1461 C1453 0.960 . S
H1462 C1454 0.930 . S
H1463 C1455 0.929 . S
H1464 C1472 0.929 . S
H1465 C1474 0.930 . S
H1466 C1476 0.930 . S
H1467 C1479 0.929 . S
H1468 C1482 0.930 . S
H1469 C1484 0.960 . S
H1470 C1484 0.960 . S
H1471 C1484 0.960 . S
C1472 H1464 0.929 . S
C1472 C1473 1.377 . S
C1472 C1474 1.384 . S
C1473 C1472 1.377 . S
C1473 C1479 1.390 . S
C1474 H1465 0.930 . S
C1474 C1472 1.384 . S
C1474 C1475 1.372 . S
C1475 C1474 1.372 . S
C1475 C1476 1.400 . S
C1475 C1480 1.490 . S
C1476 H1466 0.930 . S
C1476 C1475 1.400 . S
C1476 C1479 1.386 . S
H1477 C1493 0.930 . S
H1478 C1494 0.931 . S
C1479 H1467 0.929 . S
C1479 C1473 1.390 . S
C1479 C1476 1.386 . S
C1480 C1475 1.490 . S
C1480 C1482 1.395 . S
C1480 C1483 1.403 . S
H1481 C1487 0.930 . S
C1482 H1468 0.930 . S
C1482 C1480 1.395 . S
C1482 C1485 1.403 . S
C1483 C1480 1.403 . S
C1483 C1484 1.524 . S
C1483 C1487 1.400 . S
C1484 H1469 0.960 . S
C1484 H1470 0.960 . S
C1484 H1471 0.960 . S
C1484 C1483 1.524 . S
C1485 C1482 1.403 . S
C1485 C1486 1.392 . S
C1485 C1489 1.495 . S
C1486 C1485 1.392 . S
C1486 C1487 1.385 . S
C1486 C1488 1.478 . S
C1487 H1481 0.930 . S
C1487 C1483 1.400 . S
C1487 C1486 1.385 . S
C1488 C1486 1.478 . S
C1488 C1490 1.381 . S
C1488 C1494 1.383 . S
C1489 C1485 1.495 . S
C1489 H1495 0.959 . S
C1489 H1496 0.961 . S
C1489 H1497 0.960 . S
C1490 C1488 1.381 . S
C1490 C1491 1.394 . S
C1490 H1498 0.930 . S
C1491 C1490 1.394 . S
C1491 C1492 1.383 . S
C1491 H1499 0.929 . S
C1492 C1491 1.383 . S
C1492 C1493 1.377 . S
C1493 H1477 0.930 . S
C1493 C1492 1.377 . S
C1493 C1494 1.379 . S
C1494 H1478 0.931 . S
C1494 C1488 1.383 . S
C1494 C1493 1.379 . S
H1495 C1489 0.959 . S
H1496 C1489 0.961 . S
H1497 C1489 0.960 . S
H1498 C1490 0.930 . S
H1499 C1491 0.929 . S
H1500 C1508 0.929 . S
H1501 C1510 0.930 . S
H1502 C1512 0.930 . S
H1503 C1515 0.929 . S
H1504 C1518 0.930 . S
H1505 C1520 0.960 . S
H1506 C1520 0.960 . S
H1507 C1520 0.960 . S
C1508 H1500 0.929 . S
C1508 C1509 1.377 . S
C1508 C1510 1.384 . S
C1509 C1508 1.377 . S
C1509 C1515 1.390 . S
C1510 H1501 0.930 . S
C1510 C1508 1.384 . S
C1510 C1511 1.372 . S
C1511 C1510 1.372 . S
C1511 C1512 1.400 . S
C1511 C1516 1.490 . S
C1512 H1502 0.930 . S
C1512 C1511 1.400 . S
C1512 C1515 1.386 . S
H1513 C1529 0.930 . S
H1514 C1530 0.931 . S
C1515 H1503 0.929 . S
C1515 C1509 1.390 . S
C1515 C1512 1.386 . S
C1516 C1511 1.490 . S
C1516 C1518 1.395 . S
C1516 C1519 1.403 . S
H1517 C1523 0.930 . S
C1518 H1504 0.930 . S
C1518 C1516 1.395 . S
C1518 C1521 1.403 . S
C1519 C1516 1.403 . S
C1519 C1520 1.524 . S
C1519 C1523 1.400 . S
C1520 H1505 0.960 . S
C1520 H1506 0.960 . S
C1520 H1507 0.960 . S
C1520 C1519 1.524 . S
C1521 C1518 1.403 . S
C1521 C1522 1.392 . S
C1521 C1525 1.495 . S
C1522 C1521 1.392 . S
C1522 C1523 1.385 . S
C1522 C1524 1.478 . S
C1523 H1517 0.930 . S
C1523 C1519 1.400 . S
C1523 C1522 1.385 . S
C1524 C1522 1.478 . S
C1524 C1526 1.381 . S
C1524 C1530 1.383 . S
C1525 C1521 1.495 . S
C1525 H1531 0.959 . S
C1525 H1532 0.961 . S
C1525 H1533 0.960 . S
C1526 C1524 1.381 . S
C1526 C1527 1.394 . S
C1526 H1534 0.930 . S
C1527 C1526 1.394 . S
C1527 C1528 1.383 . S
C1527 H1535 0.929 . S
C1528 C1527 1.383 . S
C1528 C1529 1.377 . S
C1529 H1513 0.930 . S
C1529 C1528 1.377 . S
C1529 C1530 1.379 . S
C1530 H1514 0.931 . S
C1530 C1524 1.383 . S
C1530 C1529 1.379 . S
H1531 C1525 0.959 . S
H1532 C1525 0.961 . S
H1533 C1525 0.960 . S
H1534 C1526 0.930 . S
H1535 C1527 0.929 . S
H1536 C1544 0.929 . S
H1537 C1546 0.930 . S
H1538 C1548 0.930 . S
H1539 C1551 0.929 . S
H1540 C1554 0.930 . S
H1541 C1556 0.960 . S
H1542 C1556 0.960 . S
H1543 C1556 0.960 . S
C1544 H1536 0.929 . S
C1544 C1545 1.377 . S
C1544 C1546 1.384 . S
C1545 C1544 1.377 . S
C1545 C1551 1.390 . S
C1546 H1537 0.930 . S
C1546 C1544 1.384 . S
C1546 C1547 1.372 . S
C1547 C1546 1.372 . S
C1547 C1548 1.400 . S
C1547 C1552 1.490 . S
C1548 H1538 0.930 . S
C1548 C1547 1.400 . S
C1548 C1551 1.386 . S
H1549 C1565 0.930 . S
H1550 C1566 0.931 . S
C1551 H1539 0.929 . S
C1551 C1545 1.390 . S
C1551 C1548 1.386 . S
C1552 C1547 1.490 . S
C1552 C1554 1.395 . S
C1552 C1555 1.403 . S
H1553 C1559 0.930 . S
C1554 H1540 0.930 . S
C1554 C1552 1.395 . S
C1554 C1557 1.403 . S
C1555 C1552 1.403 . S
C1555 C1556 1.524 . S
C1555 C1559 1.400 . S
C1556 H1541 0.960 . S
C1556 H1542 0.960 . S
C1556 H1543 0.960 . S
C1556 C1555 1.524 . S
C1557 C1554 1.403 . S
C1557 C1558 1.392 . S
C1557 C1561 1.495 . S
C1558 C1557 1.392 . S
C1558 C1559 1.385 . S
C1558 C1560 1.478 . S
C1559 H1553 0.930 . S
C1559 C1555 1.400 . S
C1559 C1558 1.385 . S
C1560 C1558 1.478 . S
C1560 C1562 1.381 . S
C1560 C1566 1.383 . S
C1561 C1557 1.495 . S
C1561 H1567 0.959 . S
C1561 H1568 0.961 . S
C1561 H1569 0.960 . S
C1562 C1560 1.381 . S
C1562 C1563 1.394 . S
C1562 H1570 0.930 . S
C1563 C1562 1.394 . S
C1563 C1564 1.383 . S
C1563 H1571 0.929 . S
C1564 C1563 1.383 . S
C1564 C1565 1.377 . S
C1565 H1549 0.930 . S
C1565 C1564 1.377 . S
C1565 C1566 1.379 . S
C1566 H1550 0.931 . S
C1566 C1560 1.383 . S
C1566 C1565 1.379 . S
H1567 C1561 0.959 . S
H1568 C1561 0.961 . S
H1569 C1561 0.960 . S
H1570 C1562 0.930 . S
H1571 C1563 0.929 . S
H1572 C1580 0.929 . S
H1573 C1582 0.930 . S
H1574 C1584 0.930 . S
H1575 C1587 0.929 . S
H1576 C1590 0.930 . S
H1577 C1592 0.960 . S
H1578 C1592 0.960 . S
H1579 C1592 0.960 . S
C1580 H1572 0.929 . S
C1580 C1581 1.377 . S
C1580 C1582 1.384 . S
C1581 C1580 1.377 . S
C1581 C1587 1.390 . S
C1582 H1573 0.930 . S
C1582 C1580 1.384 . S
C1582 C1583 1.372 . S
C1583 C1582 1.372 . S
C1583 C1584 1.400 . S
C1583 C1588 1.490 . S
C1584 H1574 0.930 . S
C1584 C1583 1.400 . S
C1584 C1587 1.386 . S
H1585 C1601 0.930 . S
H1586 C1602 0.931 . S
C1587 H1575 0.929 . S
C1587 C1581 1.390 . S
C1587 C1584 1.386 . S
C1588 C1583 1.490 . S
C1588 C1590 1.395 . S
C1588 C1591 1.403 . S
H1589 C1595 0.930 . S
C1590 H1576 0.930 . S
C1590 C1588 1.395 . S
C1590 C1593 1.403 . S
C1591 C1588 1.403 . S
C1591 C1592 1.524 . S
C1591 C1595 1.400 . S
C1592 H1577 0.960 . S
C1592 H1578 0.960 . S
C1592 H1579 0.960 . S
C1592 C1591 1.524 . S
C1593 C1590 1.403 . S
C1593 C1594 1.392 . S
C1593 C1597 1.495 . S
C1594 C1593 1.392 . S
C1594 C1595 1.385 . S
C1594 C1596 1.478 . S
C1595 H1589 0.930 . S
C1595 C1591 1.400 . S
C1595 C1594 1.385 . S
C1596 C1594 1.478 . S
C1596 C1598 1.381 . S
C1596 C1602 1.383 . S
C1597 C1593 1.495 . S
C1597 H1603 0.959 . S
C1597 H1604 0.961 . S
C1597 H1605 0.960 . S
C1598 C1596 1.381 . S
C1598 C1599 1.394 . S
C1598 H1606 0.930 . S
C1599 C1598 1.394 . S
C1599 C1600 1.383 . S
C1599 H1607 0.929 . S
C1600 C1599 1.383 . S
C1600 C1601 1.377 . S
C1601 H1585 0.930 . S
C1601 C1600 1.377 . S
C1601 C1602 1.379 . S
C1602 H1586 0.931 . S
C1602 C1596 1.383 . S
C1602 C1601 1.379 . S
H1603 C1597 0.959 . S
H1604 C1597 0.961 . S
H1605 C1597 0.960 . S
H1606 C1598 0.930 . S
H1607 C1599 0.929 . S
H1608 C1616 0.929 . S
H1609 C1618 0.930 . S
H1610 C1620 0.930 . S
H1611 C1623 0.929 . S
H1612 C1626 0.930 . S
H1613 C1628 0.960 . S
H1614 C1628 0.960 . S
H1615 C1628 0.960 . S
C1616 H1608 0.929 . S
C1616 C1617 1.377 . S
C1616 C1618 1.384 . S
C1617 C1616 1.377 . S
C1617 C1623 1.390 . S
C1618 H1609 0.930 . S
C1618 C1616 1.384 . S
C1618 C1619 1.372 . S
C1619 C1618 1.372 . S
C1619 C1620 1.400 . S
C1619 C1624 1.490 . S
C1620 H1610 0.930 . S
C1620 C1619 1.400 . S
C1620 C1623 1.386 . S
H1621 C1637 0.930 . S
H1622 C1638 0.931 . S
C1623 H1611 0.929 . S
C1623 C1617 1.390 . S
C1623 C1620 1.386 . S
C1624 C1619 1.490 . S
C1624 C1626 1.395 . S
C1624 C1627 1.403 . S
H1625 C1631 0.930 . S
C1626 H1612 0.930 . S
C1626 C1624 1.395 . S
C1626 C1629 1.403 . S
C1627 C1624 1.403 . S
C1627 C1628 1.524 . S
C1627 C1631 1.400 . S
C1628 H1613 0.960 . S
C1628 H1614 0.960 . S
C1628 H1615 0.960 . S
C1628 C1627 1.524 . S
C1629 C1626 1.403 . S
C1629 C1630 1.392 . S
C1629 C1633 1.495 . S
C1630 C1629 1.392 . S
C1630 C1631 1.385 . S
C1630 C1632 1.478 . S
C1631 H1625 0.930 . S
C1631 C1627 1.400 . S
C1631 C1630 1.385 . S
C1632 C1630 1.478 . S
C1632 C1634 1.381 . S
C1632 C1638 1.383 . S
C1633 C1629 1.495 . S
C1633 H1639 0.959 . S
C1633 H1640 0.961 . S
C1633 H1641 0.960 . S
C1634 C1632 1.381 . S
C1634 C1635 1.394 . S
C1634 H1642 0.930 . S
C1635 C1634 1.394 . S
C1635 C1636 1.383 . S
C1635 H1643 0.929 1_556 S
C1636 C1635 1.383 . S
C1636 C1637 1.377 . S
C1637 H1621 0.930 . S
C1637 C1636 1.377 . S
C1637 C1638 1.379 . S
C1638 H1622 0.931 . S
C1638 C1632 1.383 . S
C1638 C1637 1.379 . S
H1639 C1633 0.959 . S
H1640 C1633 0.961 . S
H1641 C1633 0.960 . S
H1642 C1634 0.930 . S
H1643 C1635 0.929 1_554 S
H1644 C1652 0.929 . S
H1645 C1654 0.930 . S
H1646 C1656 0.930 . S
H1647 C1659 0.929 . S
H1648 C1662 0.930 . S
H1649 C1664 0.960 . S
H1650 C1664 0.960 . S
H1651 C1664 0.960 . S
C1652 H1644 0.929 . S
C1652 C1653 1.377 . S
C1652 C1654 1.384 . S
C1653 C1652 1.377 . S
C1653 C1659 1.390 . S
C1654 H1645 0.930 . S
C1654 C1652 1.384 . S
C1654 C1655 1.372 . S
C1655 C1654 1.372 . S
C1655 C1656 1.400 . S
C1655 C1660 1.490 . S
C1656 H1646 0.930 . S
C1656 C1655 1.400 . S
C1656 C1659 1.386 . S
H1657 C1673 0.909 1_556 S
H1658 C1674 0.931 . S
C1659 H1647 0.929 . S
C1659 C1653 1.390 . S
C1659 C1656 1.386 . S
C1660 C1655 1.490 . S
C1660 C1662 1.395 . S
C1660 C1663 1.403 . S
H1661 C1667 0.930 . S
C1662 H1648 0.930 . S
C1662 C1660 1.395 . S
C1662 C1665 1.403 . S
C1663 C1660 1.403 . S
C1663 C1664 1.524 . S
C1663 C1667 1.400 . S
C1664 H1649 0.960 . S
C1664 H1650 0.960 . S
C1664 H1651 0.960 . S
C1664 C1663 1.524 . S
C1665 C1662 1.403 . S
C1665 C1666 1.392 . S
C1665 C1669 1.495 . S
C1666 C1665 1.392 . S
C1666 C1667 1.385 . S
C1666 C1668 1.478 . S
C1667 H1661 0.930 . S
C1667 C1663 1.400 . S
C1667 C1666 1.385 . S
C1668 C1666 1.478 . S
C1668 C1670 1.381 . S
C1668 C1674 1.383 . S
C1669 C1665 1.495 . S
C1669 H1675 0.959 . S
C1669 H1676 0.961 . S
C1669 H1677 0.960 . S
C1670 C1668 1.381 . S
C1670 C1671 1.394 . S
C1670 H1678 0.930 . S
C1671 C1670 1.394 . S
C1671 C1672 1.383 . S
C1671 H1679 0.929 . S
C1672 C1671 1.383 . S
C1672 C1673 1.377 . S
C1673 H1657 0.909 1_554 S
C1673 C1672 1.377 . S
C1673 C1674 1.379 . S
C1674 H1658 0.931 . S
C1674 C1668 1.383 . S
C1674 C1673 1.379 . S
H1675 C1669 0.959 . S
H1676 C1669 0.961 . S
H1677 C1669 0.960 . S
H1678 C1670 0.930 . S
H1679 C1671 0.929 . S
C393 N13 1.088 . S
C412 N274 1.097 . S
C429 N50 1.085 . S
C448 N306 1.101 . S
C465 N82 1.080 . S
C484 N333 1.080 . S
C501 N370 1.088 . S
C520 N114 1.101 . S
C537 N146 1.080 . S
C556 N210 1.062 . S
C573 N237 1.082 . S
C592 N173 1.088 . S
C609 C326 2.191 . S
C628 C6 2.196 . S
C645 C354 2.187 . S
C664 C34 2.190 . S
C681 C66 2.186 . S
C700 C194 2.176 . S
C717 C230 2.186 . S
C736 C98 2.187 . S
C753 C258 2.190 . S
C772 C130 2.199 . S
C789 C166 2.186 . S
C808 C290 2.179 . S
C825 C253 1.700 . S
C844 C29 1.719 . S
C861 C260 1.704 . S
C880 C36 1.703 . S
C897 C292 1.700 . S
C916 C68 1.717 . S
C933 C100 1.702 . S
C952 C349 1.713 . S
C969 C132 1.708 . S
C988 C356 1.680 . S
C1005 C189 1.699 . S
C1024 C196 1.722 . S
C1041 N18 2.740 . S
C1060 N109 2.762 . S
C1077 N45 2.741 . S
C1096 N141 2.751 . S
C1113 N77 2.742 . S
C1132 N178 2.767 . S
C1149 N301 2.746 . S
C1168 N205 2.745 . S
C1185 N242 2.747 . S
C1204 N338 2.740 . S
C1221 N365 2.745 . S
C1240 N269 2.754 . S
C1257 C228 1.331 . S
C1276 C4 1.337 . S
C1293 C285 1.321 1_556 S
C1312 C61 1.293 . S
C1329 C93 1.328 1_554 S
C1348 C317 1.349 . S
C1365 C324 1.330 . S
C1384 C125 1.327 . S
C1401 C381 1.319 1_556 S
C1420 C157 1.296 . S
C1437 C164 1.331 1_554 S
C1456 C221 1.338 . S
C1473 C2 1.618 . S
C1492 C322 1.622 . S
C1509 C38 1.616 . S
C1528 C358 1.636 1_556 S
C1545 C70 1.620 1_554 S
C1564 C198 1.617 . S
C1581 C102 1.623 . S
C1600 C226 1.602 . S
C1617 C134 1.624 . S
C1636 C262 1.594 1_556 S
C1653 C294 1.617 . S
C1672 C162 1.632 1_554 S
