# Generated by pormake.
# Topology snk, (6)-cn, num edge types: 1
# Building blocks:
#     Node 0, Type 0, BuildingBlock: KUMBOL_clean_sbu_0, # of connection points: 6
#     Node 1, Type 0, BuildingBlock: KUMBOL_clean_sbu_0, # of connection points: 6
#     Node 2, Type 0, BuildingBlock: KUMBOL_clean_sbu_0, # of connection points: 6
#     Node 3, Type 0, BuildingBlock: KUMBOL_clean_sbu_0, # of connection points: 6
#     Node 4, Type 0, BuildingBlock: KUMBOL_clean_sbu_0, # of connection points: 6
#     Node 5, Type 0, BuildingBlock: KUMBOL_clean_sbu_0, # of connection points: 6
#     Node 6, Type 0, BuildingBlock: KUMBOL_clean_sbu_0, # of connection points: 6
#     Node 7, Type 0, BuildingBlock: KUMBOL_clean_sbu_0, # of connection points: 6
#     Edge 8, Type (0, 0), BuildingBlock: CIFDUS_clean_linker_0, # of connection points: 2
#     Edge 9, Type (0, 0), BuildingBlock: CIFDUS_clean_linker_0, # of connection points: 2
#     Edge 10, Type (0, 0), BuildingBlock: CIFDUS_clean_linker_0, # of connection points: 2
#     Edge 11, Type (0, 0), BuildingBlock: CIFDUS_clean_linker_0, # of connection points: 2
#     Edge 12, Type (0, 0), BuildingBlock: CIFDUS_clean_linker_0, # of connection points: 2
#     Edge 13, Type (0, 0), BuildingBlock: CIFDUS_clean_linker_0, # of connection points: 2
#     Edge 14, Type (0, 0), BuildingBlock: CIFDUS_clean_linker_0, # of connection points: 2
#     Edge 15, Type (0, 0), BuildingBlock: CIFDUS_clean_linker_0, # of connection points: 2
#     Edge 16, Type (0, 0), BuildingBlock: CIFDUS_clean_linker_0, # of connection points: 2
#     Edge 17, Type (0, 0), BuildingBlock: CIFDUS_clean_linker_0, # of connection points: 2
#     Edge 18, Type (0, 0), BuildingBlock: CIFDUS_clean_linker_0, # of connection points: 2
#     Edge 19, Type (0, 0), BuildingBlock: CIFDUS_clean_linker_0, # of connection points: 2
#     Edge 20, Type (0, 0), BuildingBlock: CIFDUS_clean_linker_0, # of connection points: 2
#     Edge 21, Type (0, 0), BuildingBlock: CIFDUS_clean_linker_0, # of connection points: 2
#     Edge 22, Type (0, 0), BuildingBlock: CIFDUS_clean_linker_0, # of connection points: 2
#     Edge 23, Type (0, 0), BuildingBlock: CIFDUS_clean_linker_0, # of connection points: 2
#     Edge 24, Type (0, 0), BuildingBlock: CIFDUS_clean_linker_0, # of connection points: 2
#     Edge 25, Type (0, 0), BuildingBlock: CIFDUS_clean_linker_0, # of connection points: 2
#     Edge 26, Type (0, 0), BuildingBlock: CIFDUS_clean_linker_0, # of connection points: 2
#     Edge 27, Type (0, 0), BuildingBlock: CIFDUS_clean_linker_0, # of connection points: 2
#     Edge 28, Type (0, 0), BuildingBlock: CIFDUS_clean_linker_0, # of connection points: 2
#     Edge 29, Type (0, 0), BuildingBlock: CIFDUS_clean_linker_0, # of connection points: 2
#     Edge 30, Type (0, 0), BuildingBlock: CIFDUS_clean_linker_0, # of connection points: 2
#     Edge 31, Type (0, 0), BuildingBlock: CIFDUS_clean_linker_0, # of connection points: 2
# Relax obj value: 0.003
# Max RMSD: 0.042
# Mean RMSD: 0.040
data_MOF--net-snk--node1-KUMBOL_clean_sbu_0--edge1-CIFDUS_clean_linker_0
_symmetry_space_group_name_H-M    P1
_symmetry_Int_Tables_number       1
_symmetry_cell_setting            triclinic
loop_
_symmetry_equiv_pos_as_xyz
'x, y, z'
_cell_length_a     32.497391
_cell_length_b     32.360527
_cell_length_c     22.632974
_cell_angle_alpha  87.350958
_cell_angle_beta   87.0706
_cell_angle_gamma 90.122973
loop_
_atom_site_label
_atom_site_type_symbol
_atom_site_fract_x
_atom_site_fract_y
_atom_site_fract_z
_atom_type_partial_charge
Gd0 Gd 0.01166 0.04041 0.57558 0.0
Gd1 Gd 1.00442 0.97503 0.45098 0.0
C2 C 0.93857 0.85106 0.44341 0.0
C3 C 0.99482 0.80571 0.41449 0.0
C4 C 0.00846 0.87769 0.4333 0.0
C5 C 0.9669 0.88395 0.4461 0.0
C6 C 0.02293 0.83838 0.41783 0.0
C7 C 0.95275 0.812 0.42742 0.0
C8 C 0.89663 0.8588 0.45461 0.0
C9 C 0.88369 0.89887 0.46585 0.0
N10 N 0.95389 0.92267 0.45788 0.0
C11 C 0.91279 0.93075 0.46601 0.0
H12 H 0.90214 0.96172 0.47325 0.0
C13 C 0.07562 0.90597 0.41943 0.0
N14 N 0.03455 0.91042 0.4339 0.0
C15 C 0.09158 0.86731 0.40558 0.0
C16 C 0.06511 0.83335 0.4046 0.0
H17 H 0.09626 0.93215 0.41911 0.0
H18 H 0.93134 0.78661 0.42406 0.0
H19 H 0.11476 0.04748 0.55615 0.0
H20 H 0.87396 0.83429 0.45336 0.0
H21 H 0.85126 0.90538 0.47354 0.0
H22 H 1.00525 0.77557 0.40133 0.0
H23 H 0.92307 0.08809 0.60911 0.0
H24 H 0.14997 0.1737 0.57086 0.0
H25 H 0.16872 0.10093 0.55464 0.0
H26 H 0.02212 0.24015 0.62062 0.0
H27 H 0.1242 0.86384 0.39488 0.0
H28 H 0.07743 0.80356 0.3929 0.0
H29 H 0.09517 0.22526 0.5967 0.0
H30 H 0.89886 0.15813 0.63189 0.0
N31 N 0.06523 0.08971 0.5688 0.0
C32 C 0.12597 0.15044 0.57036 0.0
C33 C 0.13668 0.10939 0.5614 0.0
C34 C 0.0845 0.16073 0.58045 0.0
C35 C 0.0544 0.12936 0.57882 0.0
C36 C 0.10585 0.07914 0.56209 0.0
N37 N 0.98548 0.10678 0.59152 0.0
C38 C 0.01327 0.13809 0.59094 0.0
C39 C 0.93111 0.15295 0.62034 0.0
C40 C 0.9593 0.1856 0.61954 0.0
C41 C 0.94491 0.11337 0.60723 0.0
C42 C 1.00102 0.17828 0.60555 0.0
H43 H 0.94867 0.21612 0.63074 0.0
O44 O 0.98519 0.03432 0.66564 0.0
O45 O 0.98645 0.98082 0.5465 0.0
O46 O 0.95038 0.0192 0.46009 0.0
O47 O 0.97459 0.07592 0.50716 0.0
O48 O 0.94753 0.01507 0.59887 0.0
O49 O 0.0512 0.02776 0.64846 0.0
O50 O 0.02819 0.98236 0.35962 0.0
O51 O 0.02903 0.03479 0.48032 0.0
O52 O 0.06393 0.99276 0.56972 0.0
O53 O 0.03771 0.93793 0.52044 0.0
O54 O 0.06803 1.00224 0.42634 0.0
O55 O 0.96237 0.98649 0.38085 0.0
C56 C 0.95109 0.9805 0.57311 0.0
C57 C 0.03085 0.20948 0.60766 0.0
C58 C 0.07245 0.20089 0.59447 0.0
C59 C 0.02094 0.02917 0.68847 0.0
C60 C 0.02817 0.05231 0.74123 0.0
C61 C 0.04781 0.09104 0.73724 0.0
C62 C 0.01539 0.03474 0.79687 0.0
C63 C 0.02218 0.05548 0.84872 0.0
C64 C 0.05441 0.11202 0.7885 0.0
C65 C 0.04177 0.09438 0.84401 0.0
C66 C 0.94889 0.05902 0.47131 0.0
C67 C 0.06417 0.03627 0.45332 0.0
C68 C 0.99155 0.98616 0.33909 0.0
C69 C 0.98353 0.96286 0.2867 0.0
C70 C 0.96296 0.9246 0.29124 0.0
C71 C 0.99628 0.97994 0.23076 0.0
C72 C 0.98868 0.95917 0.1792 0.0
C73 C 0.95556 0.90358 0.2403 0.0
C74 C 0.96826 0.92071 0.18451 0.0
C75 C 0.06338 0.95291 0.55776 0.0
H76 H 0.05829 0.10492 0.69486 0.0
H77 H 1.00086 1.00446 0.79977 0.0
H78 H 0.06949 0.14195 0.7852 0.0
H79 H 0.04707 0.11126 0.88317 0.0
H80 H 0.9523 0.91115 0.3338 0.0
H81 H 0.01141 1.00993 0.22744 0.0
H82 H 0.93977 0.87401 0.24404 0.0
H83 H 0.96233 0.90378 0.14562 0.0
Gd84 Gd 0.21925 0.77095 0.82888 0.0
Gd85 Gd 0.30093 0.76453 0.70739 0.0
C86 C 0.41971 0.69481 0.74201 0.0
C87 C 0.46723 0.75128 0.75596 0.0
C88 C 0.39804 0.76554 0.72523 0.0
C89 C 0.38905 0.72394 0.72845 0.0
C90 C 0.4376 0.77981 0.73705 0.0
C91 C 0.45842 0.70872 0.75796 0.0
C92 C 0.41059 0.65275 0.73839 0.0
C93 C 0.37195 0.64094 0.72041 0.0
N94 N 0.3507 0.71196 0.71561 0.0
C95 C 0.34219 0.67114 0.70902 0.0
H96 H 0.31214 0.6615 0.69677 0.0
C97 C 0.37672 0.83316 0.69788 0.0
N98 N 0.3681 0.79205 0.70886 0.0
C99 C 0.41578 0.84885 0.70809 0.0
C100 C 0.44615 0.82217 0.72891 0.0
H101 H 0.35296 0.85415 0.68387 0.0
H102 H 0.48201 0.68687 0.77051 0.0
H103 H 0.21175 0.87442 0.84314 0.0
H104 H 0.43329 0.62931 0.74833 0.0
H105 H 0.36474 0.60854 0.71656 0.0
H106 H 0.4974 0.76171 0.7673 0.0
H107 H 0.16281 0.68409 0.85175 0.0
H108 H 0.09345 0.91241 0.78663 0.0
H109 H 0.1619 0.92971 0.82227 0.0
H110 H 0.02494 0.7833 0.76031 0.0
H111 H 0.42223 0.88158 0.70082 0.0
H112 H 0.47623 0.83442 0.7374 0.0
H113 H 0.043 0.85733 0.76073 0.0
H114 H 0.0929 0.65979 0.83102 0.0
N115 N 0.17181 0.82585 0.82088 0.0
C116 C 0.11493 0.88789 0.79697 0.0
C117 C 0.15353 0.89774 0.8171 0.0
C118 C 0.10421 0.84636 0.7919 0.0
C119 C 0.13334 0.81577 0.80607 0.0
C120 C 0.18177 0.86616 0.82897 0.0
N121 N 0.15094 0.74675 0.82577 0.0
C122 C 0.12261 0.77463 0.80809 0.0
C123 C 0.1009 0.69221 0.82423 0.0
C124 C 0.07237 0.72025 0.8015 0.0
C125 C 0.14024 0.70611 0.83666 0.0
C126 C 0.08286 0.76224 0.79413 0.0
H127 H 0.04212 0.70937 0.79118 0.0
O128 O 0.2118 0.74038 0.9165 0.0
O129 O 0.27918 0.74391 0.79883 0.0
O130 O 0.25554 0.71099 0.70947 0.0
O131 O 0.19516 0.73807 0.75199 0.0
O132 O 0.23999 0.70537 0.8506 0.0
O133 O 0.23206 0.80423 0.90743 0.0
O134 O 0.30528 0.79472 0.6193 0.0
O135 O 0.2407 0.79089 0.73724 0.0
O136 O 0.26515 0.82396 0.82629 0.0
O137 O 0.32552 0.79599 0.78522 0.0
O138 O 0.27932 0.82983 0.68556 0.0
O139 O 0.29126 0.72923 0.62965 0.0
C140 C 0.27591 0.70823 0.82394 0.0
C141 C 0.05497 0.79224 0.77409 0.0
C142 C 0.06539 0.83436 0.77385 0.0
C143 C 0.22407 0.77245 0.94371 0.0
C144 C 0.20413 0.78021 1.0021 0.0
C145 C 0.16246 0.79084 1.00802 0.0
C146 C 0.22751 0.77646 0.0529 0.0
C147 C 0.2095 0.78325 0.1098 0.0
C148 C 0.1443 0.79763 0.06405 0.0
C149 C 0.16749 0.7939 0.11448 0.0
C150 C 0.21497 0.71119 0.71878 0.0
C151 C 0.24349 0.82663 0.71239 0.0
C152 C 0.29615 0.76125 0.59279 0.0
C153 C 0.31669 0.75483 0.53437 0.0
C154 C 0.3586 0.74514 0.52866 0.0
C155 C 0.29355 0.75864 0.48336 0.0
C156 C 0.31196 0.75266 0.42644 0.0
C157 C 0.37719 0.73924 0.47264 0.0
C158 C 0.3542 0.74288 0.42199 0.0
C159 C 0.30573 0.82287 0.81841 0.0
H160 H 0.14408 0.79385 0.96944 0.0
H161 H 0.25963 0.76772 0.048 0.0
H162 H 0.11209 0.80598 0.06843 0.0
H163 H 0.1526 0.80005 0.15705 0.0
H164 H 0.3768 0.74211 0.56743 0.0
H165 H 0.26124 0.76672 0.48816 0.0
H166 H 0.40958 0.73157 0.46842 0.0
H167 H 0.36944 0.73733 0.37946 0.0
Gd168 Gd 0.50733 0.03557 0.98857 0.0
Gd169 Gd 0.51403 0.96365 0.11898 0.0
C170 C 0.5789 0.83854 0.12449 0.0
C171 C 0.52197 0.79104 0.14942 0.0
C172 C 0.50946 0.86492 0.13692 0.0
C173 C 0.55102 0.87191 0.12446 0.0
C174 C 0.49441 0.82439 0.14962 0.0
C175 C 0.56413 0.79809 0.13684 0.0
C176 C 0.62091 0.84691 0.11339 0.0
C177 C 0.63426 0.88781 0.10416 0.0
N178 N 0.56435 0.91147 0.11421 0.0
C179 C 0.6055 0.9199 0.10563 0.0
H180 H 0.61646 0.95131 0.09904 0.0
C181 C 0.44284 0.8927 0.15319 0.0
N182 N 0.48386 0.89793 0.13816 0.0
C183 C 0.42635 0.85306 0.16514 0.0
C184 C 0.45223 0.81871 0.1632 0.0
H185 H 0.4226 0.91904 0.15504 0.0
H186 H 0.5851 0.7721 0.13733 0.0
H187 H 0.4041 0.04316 0.99279 0.0
H188 H 0.6433 0.82214 0.11282 0.0
H189 H 0.66674 0.8947 0.0963 0.0
H190 H 0.51105 0.75971 0.15944 0.0
H191 H 0.59608 0.08574 0.95372 0.0
H192 H 0.37197 0.17044 1.00905 0.0
H193 H 0.3512 0.09724 1.00256 0.0
H194 H 0.50313 0.23969 0.99342 0.0
H195 H 0.39375 0.84907 0.17615 0.0
H196 H 0.43943 0.78805 0.17294 0.0
H197 H 0.42899 0.22339 1.00706 0.0
H198 H 0.62273 0.15753 0.94911 0.0
N199 N 0.45451 0.08517 0.9937 0.0
C200 C 0.39536 0.14686 1.00409 0.0
C201 C 0.38353 0.10559 1.00034 0.0
C202 C 0.43725 0.15729 1.00006 0.0
C203 C 0.46639 0.12536 0.99383 0.0
C204 C 0.41367 0.07499 0.9947 0.0
N205 N 0.5345 0.1031 0.97696 0.0
C206 C 0.50779 0.13462 0.98543 0.0
C207 C 0.59034 0.15151 0.9596 0.0
C208 C 0.56353 0.18417 0.97135 0.0
C209 C 0.57514 0.11095 0.96189 0.0
C210 C 0.52157 0.176 0.98366 0.0
H211 H 0.57536 0.21556 0.9696 0.0
O212 O 0.53533 0.03396 0.89962 0.0
O213 O 0.53206 0.97578 0.02337 0.0
O214 O 0.5683 1.00774 0.10628 0.0
O215 O 0.54225 0.06637 0.0583 0.0
O216 O 0.57119 0.01087 0.96737 0.0
O217 O 0.46925 0.0253 0.91455 0.0
O218 O 0.48861 0.97149 0.20824 0.0
O219 O 0.48926 0.02274 0.08275 0.0
O220 O 0.45522 0.98753 0.99767 0.0
O221 O 0.48082 0.93066 0.05111 0.0
O222 O 0.45021 0.98997 0.141 0.0
O223 O 0.5549 0.97247 0.19033 0.0
C224 C 0.56716 0.97578 0.99649 0.0
C225 C 0.49299 0.2078 0.99322 0.0
C226 C 0.45085 0.19849 1.00116 0.0
C227 C 0.5003 0.02798 0.87568 0.0
C228 C 0.49372 0.05117 0.81982 0.0
C229 C 0.48599 0.09376 0.81802 0.0
C230 C 0.49585 0.02991 0.76716 0.0
C231 C 0.49039 0.05085 0.71228 0.0
C232 C 0.48051 0.11487 0.76371 0.0
C233 C 0.48274 0.09367 0.71111 0.0
C234 C 0.56845 0.04802 0.09375 0.0
C235 C 0.45417 0.02382 0.109 0.0
C236 C 0.52469 0.97431 0.23036 0.0
C237 C 0.52984 0.95188 0.28729 0.0
C238 C 0.53765 0.9093 0.29066 0.0
C239 C 0.52609 0.97378 0.33935 0.0
C240 C 0.53014 0.95349 0.39509 0.0
C241 C 0.5417 0.88885 0.34579 0.0
C242 C 0.53795 0.91069 0.39772 0.0
C243 C 0.45606 0.94724 1.01209 0.0
H244 H 0.48433 0.11056 0.85837 0.0
H245 H 0.50248 0.99705 0.76897 0.0
H246 H 0.47449 0.14778 0.76235 0.0
H247 H 0.47804 0.11067 0.66967 0.0
H248 H 0.54054 0.89198 0.25091 0.0
H249 H 0.51938 1.0066 0.33635 0.0
H250 H 0.54782 0.85597 0.34829 0.0
H251 H 0.5417 0.89419 0.43982 0.0
Gd252 Gd 0.21999 0.26143 0.21196 0.0
Gd253 Gd 0.29657 0.26599 0.33003 0.0
C254 C 0.42825 0.31453 0.29583 0.0
C255 C 0.4682 0.25108 0.29804 0.0
C256 C 0.39396 0.2488 0.31768 0.0
C257 C 0.39197 0.29108 0.30833 0.0
C258 C 0.43214 0.22825 0.31373 0.0
C259 C 0.46624 0.29419 0.28907 0.0
C260 C 0.4253 0.3577 0.29221 0.0
C261 C 0.3871 0.3763 0.30318 0.0
N262 N 0.35471 0.30949 0.31474 0.0
C263 C 0.35201 0.35155 0.3152 0.0
H264 H 0.32253 0.36616 0.32327 0.0
C265 C 0.35921 0.18648 0.3474 0.0
N266 N 0.35843 0.22789 0.33235 0.0
C267 C 0.39632 0.16465 0.34402 0.0
C268 C 0.43291 0.18553 0.32644 0.0
H269 H 0.33102 0.16989 0.35984 0.0
H270 H 0.49435 0.31157 0.27821 0.0
H271 H 0.19739 0.16055 0.21522 0.0
H272 H 0.45242 0.37689 0.28268 0.0
H273 H 0.38456 0.40967 0.30189 0.0
H274 H 0.4978 0.23584 0.29401 0.0
H275 H 0.18274 0.35685 0.18628 0.0
H276 H 0.06734 0.14493 0.24908 0.0
H277 H 0.13663 0.1148 0.23186 0.0
H278 H 0.0173 0.28436 0.24152 0.0
H279 H 0.39662 0.13169 0.35454 0.0
H280 H 0.46158 0.16854 0.32373 0.0
H281 H 0.02298 0.20856 0.25329 0.0
H282 H 0.11589 0.39278 0.19088 0.0
N283 N 0.16316 0.21596 0.22472 0.0
C284 C 0.09393 0.16513 0.24179 0.0
C285 C 0.13295 0.14803 0.23192 0.0
C286 C 0.08955 0.20817 0.24001 0.0
C287 C 0.12522 0.233 0.23052 0.0
C288 C 0.16734 0.17408 0.22262 0.0
N289 N 0.15695 0.29757 0.21064 0.0
C290 C 0.12197 0.27531 0.22318 0.0
C291 C 0.11715 0.35971 0.20013 0.0
C292 C 0.08103 0.33735 0.21529 0.0
C293 C 0.15498 0.33916 0.19719 0.0
C294 C 0.08305 0.2945 0.22616 0.0
H295 H 0.05176 0.35332 0.21736 0.0
O296 O 0.22931 0.2857 0.12123 0.0
O297 O 0.27821 0.28875 0.24119 0.0
O298 O 0.25508 0.32253 0.32378 0.0
O299 O 0.19375 0.29886 0.28778 0.0
O300 O 0.24963 0.32158 0.17554 0.0
O301 O 0.22409 0.21957 0.1393 0.0
O302 O 0.28657 0.24349 0.42148 0.0
O303 O 0.23845 0.23876 0.30033 0.0
O304 O 0.26219 0.20496 0.21811 0.0
O305 O 0.32321 0.22871 0.25494 0.0
O306 O 0.26501 0.20703 0.36837 0.0
O307 O 0.29511 0.30912 0.40114 0.0
C308 C 0.28186 0.32069 0.20625 0.0
C309 C 0.04748 0.2702 0.23856 0.0
C310 C 0.05072 0.22706 0.24537 0.0
C311 C 0.22881 0.24943 0.09883 0.0
C312 C 0.20658 0.24638 0.04427 0.0
C313 C 0.16435 0.23737 0.04583 0.0
C314 C 0.22824 0.25402 0.98949 0.0
C315 C 0.20805 0.25295 0.93593 0.0
C316 C 0.14407 0.23587 0.99298 0.0
C317 C 0.16563 0.24363 0.93843 0.0
C318 C 0.21456 0.32486 0.31902 0.0
C319 C 0.23322 0.20785 0.33673 0.0
C320 C 0.28917 0.28006 0.44259 0.0
C321 C 0.31181 0.28276 0.49687 0.0
C322 C 0.3541 0.29156 0.49487 0.0
C323 C 0.2904 0.27519 0.55185 0.0
C324 C 0.31089 0.2761 0.60518 0.0
C325 C 0.37467 0.29295 0.54751 0.0
C326 C 0.35335 0.28527 0.60227 0.0
C327 C 0.30268 0.20248 0.22395 0.0
H328 H 0.14715 0.23177 0.08773 0.0
H329 H 0.26099 0.26065 0.98877 0.0
H330 H 0.11141 0.22904 0.99428 0.0
H331 H 0.14888 0.24308 0.89833 0.0
H332 H 0.37112 0.29711 0.45282 0.0
H333 H 0.25761 0.26874 0.55292 0.0
H334 H 0.40736 0.29964 0.54588 0.0
H335 H 0.37029 0.28574 0.6422 0.0
Gd336 Gd 0.72928 0.28077 0.34267 0.0
Gd337 Gd 0.78682 0.25487 0.20455 0.0
C338 C 0.80325 0.12307 0.14238 0.0
C339 C 0.86686 0.102 0.1869 0.0
C340 C 0.83957 0.1711 0.20015 0.0
C341 C 0.80628 0.16187 0.16777 0.0
C342 C 0.87091 0.14165 0.20881 0.0
C343 C 0.83309 0.09275 0.15359 0.0
C344 C 0.77129 0.1166 0.1046 0.0
C345 C 0.74453 0.149 0.09103 0.0
N346 N 0.77826 0.192 0.15768 0.0
C347 C 0.74895 0.18696 0.11725 0.0
H348 H 0.72809 0.21184 0.10669 0.0
C349 C 0.87806 0.22235 0.24393 0.0
N350 N 0.84275 0.20992 0.21953 0.0
C351 C 0.90994 0.19425 0.25382 0.0
C352 C 0.90603 0.15348 0.2372 0.0
H353 H 0.88152 0.25371 0.25712 0.0
H354 H 0.83106 0.06255 0.13512 0.0
H355 H 0.71383 0.3828 0.32186 0.0
H356 H 0.76785 0.08723 0.08421 0.0
H357 H 0.7204 0.14471 0.06062 0.0
H358 H 0.89035 0.07879 0.1937 0.0
H359 H 0.68783 0.19331 0.40787 0.0
H360 H 0.58436 0.40612 0.3288 0.0
H361 H 0.65617 0.43141 0.31369 0.0
H362 H 0.52597 0.27443 0.39235 0.0
H363 H 0.9374 0.20404 0.27453 0.0
H364 H 0.93076 0.13179 0.24487 0.0
H365 H 0.53593 0.34724 0.35809 0.0
H366 H 0.61942 0.16403 0.43637 0.0
N367 N 0.67546 0.32963 0.3382 0.0
C368 C 0.60963 0.38445 0.33183 0.0
C369 C 0.65009 0.39884 0.32343 0.0
C370 C 0.60238 0.34255 0.3466 0.0
C371 C 0.63641 0.31566 0.34982 0.0
C372 C 0.68278 0.37097 0.32773 0.0
N373 N 0.6647 0.25103 0.37477 0.0
C374 C 0.63082 0.27501 0.36913 0.0
C375 C 0.62215 0.19524 0.41717 0.0
C376 C 0.58692 0.21892 0.40872 0.0
C377 C 0.661 0.21207 0.40093 0.0
C378 C 0.591 0.25962 0.38552 0.0
H379 H 0.55688 0.20591 0.42169 0.0
O380 O 0.74961 0.26427 0.43133 0.0
O381 O 0.7866 0.2517 0.30303 0.0
O382 O 0.741 0.20413 0.23357 0.0
O383 O 0.69086 0.23833 0.2909 0.0
O384 O 0.75409 0.21805 0.36937 0.0
O385 O 0.74082 0.328 0.40551 0.0
O386 O 0.84062 0.27756 0.15116 0.0
O387 O 0.74145 0.29802 0.24684 0.0
O388 O 0.76807 0.33387 0.30186 0.0
O389 O 0.82253 0.29956 0.2576 0.0
O390 O 0.72686 0.27527 0.16666 0.0
O391 O 0.78042 0.28705 0.11851 0.0
C392 C 0.78644 0.21825 0.33437 0.0
C393 C 0.55678 0.28568 0.38003 0.0
C394 C 0.56246 0.32712 0.36054 0.0
C395 C 0.74935 0.30191 0.44847 0.0
C396 C 0.72963 0.30874 0.50773 0.0
C397 C 0.68884 0.32258 0.51315 0.0
C398 C 0.75188 0.30185 0.55937 0.0
C399 C 0.73385 0.30956 0.61626 0.0
C400 C 0.6708 0.33037 0.56874 0.0
C401 C 0.69303 0.32431 0.61965 0.0
C402 C 0.70291 0.20808 0.25656 0.0
C403 C 0.71488 0.29933 0.20776 0.0
C404 C 0.81969 0.28863 0.10556 0.0
C405 C 0.83392 0.27374 0.04654 0.0
C406 C 0.8702 0.25039 0.04059 0.0
C407 C 0.81159 0.28314 0.9954 0.0
C408 C 0.82557 0.26961 0.93917 0.0
C409 C 0.88403 0.23691 0.98541 0.0
C410 C 0.86207 0.24642 0.93519 0.0
C411 C 0.80746 0.33173 0.28528 0.0
H412 H 0.67103 0.32774 0.47434 0.0
H413 H 0.78307 0.29026 0.55491 0.0
H414 H 0.63946 0.34159 0.57239 0.0
H415 H 0.67819 0.33196 0.6616 0.0
H416 H 0.88805 0.24243 0.07858 0.0
H417 H 0.78369 0.30129 0.99928 0.0
H418 H 0.91193 0.21882 0.98156 0.0
H419 H 0.87336 0.23489 0.89324 0.0
Gd420 Gd 0.72652 0.75352 0.71416 0.0
Gd421 Gd 0.79526 0.76158 0.83565 0.0
C422 C 0.92038 0.82549 0.83697 0.0
C423 C 0.96601 0.76758 0.85613 0.0
C424 C 0.89307 0.75559 0.84452 0.0
C425 C 0.88698 0.79767 0.8355 0.0
C426 C 0.93274 0.74004 0.85453 0.0
C427 C 0.9599 0.81019 0.84711 0.0
C428 C 0.91275 0.86796 0.83081 0.0
C429 C 0.87236 0.88179 0.82618 0.0
N430 N 0.84802 0.8116 0.82927 0.0
C431 C 0.84014 0.85304 0.82702 0.0
H432 H 0.80893 0.86415 0.82569 0.0
C433 C 0.8643 0.68834 0.8566 0.0
N434 N 0.85989 0.72998 0.84566 0.0
C435 C 0.90322 0.67139 0.86511 0.0
C436 C 0.9376 0.69735 0.86423 0.0
H437 H 0.83796 0.66793 0.85791 0.0
H438 H 0.98575 0.83115 0.84939 0.0
H439 H 0.72899 0.64907 0.72872 0.0
H440 H 0.9376 0.8903 0.83137 0.0
H441 H 0.86593 0.9146 0.82299 0.0
H442 H 0.99647 0.75625 0.86526 0.0
H443 H 0.67007 0.83751 0.68913 0.0
H444 H 0.60667 0.60268 0.71962 0.0
H445 H 0.68101 0.59053 0.7305 0.0
H446 H 0.52824 0.72452 0.6784 0.0
H447 H 0.90659 0.63836 0.87297 0.0
H448 H 0.96764 0.68422 0.87173 0.0
H449 H 0.54994 0.65289 0.69911 0.0
H450 H 0.59778 0.85557 0.67119 0.0
N451 N 0.68243 0.69513 0.72088 0.0
C452 C 0.62759 0.62879 0.71995 0.0
C453 C 0.66951 0.62181 0.72582 0.0
C454 C 0.61336 0.66934 0.71263 0.0
C455 C 0.6418 0.70229 0.71403 0.0
C456 C 0.69672 0.6554 0.72482 0.0
N457 N 0.65757 0.77326 0.70429 0.0
C458 C 0.62902 0.74266 0.7051 0.0
C459 C 0.6061 0.82369 0.68081 0.0
C460 C 0.57631 0.79251 0.68154 0.0
C461 C 0.64694 0.81338 0.69127 0.0
C462 C 0.5877 0.75134 0.69299 0.0
H463 H 0.54484 0.80044 0.67225 0.0
O464 O 0.72664 0.78224 0.62554 0.0
O465 O 0.78461 0.78236 0.74214 0.0
O466 O 0.75029 0.81499 0.83128 0.0
O467 O 0.69292 0.78994 0.78631 0.0
O468 O 0.74667 0.81949 0.69213 0.0
O469 O 0.74429 0.71792 0.63817 0.0
O470 O 0.79025 0.73639 0.92633 0.0
O471 O 0.73597 0.73585 0.80772 0.0
O472 O 0.77695 0.70388 0.71527 0.0
O473 O 0.83172 0.73269 0.76108 0.0
O474 O 0.76922 0.69705 0.86023 0.0
O475 O 0.78459 0.80259 0.9079 0.0
C476 C 0.7814 0.81814 0.71708 0.0
C477 C 0.55952 0.71864 0.69044 0.0
C478 C 0.57208 0.67779 0.70138 0.0
C479 C 0.73782 0.74842 0.60016 0.0
C480 C 0.7163 0.73833 0.54729 0.0
C481 C 0.6754 0.72424 0.55111 0.0
C482 C 0.73735 0.7432 0.49183 0.0
C483 C 0.71776 0.73431 0.43991 0.0
C484 C 0.65568 0.71533 0.49977 0.0
C485 C 0.67662 0.72039 0.44439 0.0
C486 C 0.71042 0.81582 0.82164 0.0
C487 C 0.73516 0.70054 0.83391 0.0
C488 C 0.78554 0.77268 0.94845 0.0
C489 C 0.80833 0.78054 1.0011 0.0
C490 C 0.84974 0.79299 0.99683 0.0
C491 C 0.78773 0.77556 0.05687 0.0
C492 C 0.80812 0.78306 0.10867 0.0
C493 C 0.87032 0.80037 0.04803 0.0
C494 C 0.84973 0.79546 0.10369 0.0
C495 C 0.81692 0.70641 0.72441 0.0
H496 H 0.65878 0.72015 0.59346 0.0
H497 H 0.76886 0.75453 0.48911 0.0
H498 H 0.6241 0.70442 0.5029 0.0
H499 H 0.66084 0.71298 0.4052 0.0
H500 H 0.86608 0.7971 0.95424 0.0
H501 H 0.75584 0.76538 0.05985 0.0
H502 H 0.90228 0.8101 0.04456 0.0
H503 H 0.86618 0.80188 0.1427 0.0
Gd504 Gd 0.51292 0.54454 0.07038 0.0
Gd505 Gd 0.49694 0.47868 0.94664 0.0
C506 C 0.40851 0.36802 0.95429 0.0
C507 C 0.45485 0.31128 0.93279 0.0
C508 C 0.48166 0.3812 0.93784 0.0
C509 C 0.44237 0.39561 0.95019 0.0
C510 C 0.48838 0.33888 0.92854 0.0
C511 C 0.41504 0.32575 0.9461 0.0
C512 C 0.36901 0.38386 0.96529 0.0
C513 C 0.3639 0.42633 0.97037 0.0
N514 N 0.4371 0.43677 0.9567 0.0
C515 C 0.39832 0.45251 0.96507 0.0
H516 H 0.39347 0.48517 0.96916 0.0
C517 C 0.55216 0.39643 0.91656 0.0
N518 N 0.51318 0.40882 0.93285 0.0
C519 C 0.56048 0.35472 0.90773 0.0
C520 C 0.52848 0.32575 0.91397 0.0
H521 H 0.57704 0.41865 0.91128 0.0
H522 H 0.38942 0.30414 0.94886 0.0
H523 H 0.61648 0.54178 0.07047 0.0
H524 H 0.34225 0.36368 0.96902 0.0
H525 H 0.33342 0.439 0.97825 0.0
H526 H 0.45925 0.27884 0.92478 0.0
H527 H 0.43039 0.60295 0.1026 0.0
H528 H 0.66229 0.66539 0.03949 0.0
H529 H 0.67499 0.59053 0.05676 0.0
H530 H 0.53932 0.74712 0.04193 0.0
H531 H 0.59152 0.34498 0.89577 0.0
H532 H 0.53493 0.29349 0.90663 0.0
H533 H 0.61126 0.72365 0.03203 0.0
H534 H 0.41186 0.67722 0.09991 0.0
N535 N 0.57095 0.58848 0.06111 0.0
C536 C 0.63646 0.64418 0.04625 0.0
C537 C 0.64373 0.60196 0.05609 0.0
C538 C 0.59589 0.65863 0.04696 0.0
C539 C 0.56342 0.62967 0.05591 0.0
C540 C 0.61043 0.57441 0.06395 0.0
N541 N 0.49316 0.6143 0.07549 0.0
C542 C 0.52321 0.64303 0.06328 0.0
C543 C 0.44326 0.668 0.08921 0.0
C544 C 0.47333 0.69788 0.0727 0.0
C545 C 0.45385 0.62607 0.09112 0.0
C546 C 0.51405 0.68559 0.06041 0.0
H547 H 0.46502 0.73031 0.07099 0.0
O548 O 0.48505 0.54569 0.15938 0.0
O549 O 0.48208 0.48804 0.04164 0.0
O550 O 0.45004 0.53098 0.952 0.0
O551 O 0.48287 0.58309 0.99842 0.0
O552 O 0.44702 0.52347 0.09665 0.0
O553 O 0.55011 0.53117 0.14568 0.0
O554 O 0.5248 0.48245 0.85736 0.0
O555 O 0.53065 0.53381 0.97625 0.0
O556 O 0.55931 0.491 0.06852 0.0
O557 O 0.529 0.43976 1.01546 0.0
O558 O 0.5642 0.49384 0.92464 0.0
O559 O 0.45986 0.49622 0.87262 0.0
C560 C 0.44764 0.48902 0.07016 0.0
C561 C 0.5459 0.71438 0.04655 0.0
C562 C 0.58683 0.70098 0.04044 0.0
C563 C 0.51966 0.53738 0.18405 0.0
C564 C 0.52861 0.56111 0.23545 0.0
C565 C 0.54907 0.59938 0.22959 0.0
C566 C 0.5161 0.54464 0.29177 0.0
C567 C 0.52385 0.56595 0.34273 0.0
C568 C 0.55714 0.62074 0.28008 0.0
C569 C 0.54475 0.60414 0.33643 0.0
C570 C 0.45489 0.57053 0.96274 0.0
C571 C 0.5659 0.52805 0.95129 0.0
C572 C 0.49025 0.49194 0.83348 0.0
C573 C 0.48131 0.47028 0.78015 0.0
C574 C 0.46079 0.43203 0.78336 0.0
C575 C 0.49402 0.48848 0.72487 0.0
C576 C 0.4863 0.46886 0.67243 0.0
C577 C 0.45297 0.41229 0.73146 0.0
C578 C 0.46555 0.43054 0.67624 0.0
C579 C 0.55536 0.45177 0.05422 0.0
H580 H 0.55879 0.61259 0.1863 0.0
H581 H 0.50069 0.51479 0.29587 0.0
H582 H 0.57297 0.65027 0.27556 0.0
H583 H 0.55098 0.62138 0.37491 0.0
H584 H 0.45079 0.41757 0.8257 0.0
H585 H 0.50946 0.51831 0.72276 0.0
H586 H 0.43715 0.38274 0.73401 0.0
H587 H 0.45946 0.4145 0.63662 0.0
Gd588 Gd 1.00142 0.5509 0.45671 0.0
Gd589 Gd 0.01451 0.47537 0.58333 0.0
C590 C 0.10247 0.36817 0.55036 0.0
C591 C 0.05462 0.31099 0.54373 0.0
C592 C 0.02963 0.37836 0.57143 0.0
C593 C 0.069 0.39418 0.56447 0.0
C594 C 0.02197 0.33627 0.56301 0.0
C595 C 0.09495 0.32671 0.53833 0.0
C596 C 0.14234 0.38466 0.54888 0.0
C597 C 0.14794 0.4259 0.5624 0.0
N598 N 0.07464 0.43486 0.57337 0.0
C599 C 0.11358 0.45072 0.57457 0.0
H600 H 0.11857 0.48269 0.58353 0.0
C601 C 0.96018 0.38915 0.60269 0.0
N602 N 0.99884 0.4042 0.58774 0.0
C603 C 0.95103 0.34739 0.59586 0.0
C604 C 0.98185 0.32102 0.57455 0.0
H605 H 0.93597 0.40988 0.61686 0.0
H606 H 0.12005 0.30652 0.52539 0.0
H607 H 0.89785 0.54931 0.44958 0.0
H608 H 0.16893 0.36574 0.53822 0.0
H609 H 0.17868 0.43886 0.5622 0.0
H610 H 0.04916 0.2792 0.53359 0.0
H611 H 0.0847 0.61174 0.43083 0.0
H612 H 0.85254 0.66883 0.49287 0.0
H613 H 0.83959 0.59665 0.46676 0.0
H614 H 0.97646 0.74787 0.50874 0.0
H615 H 0.92008 0.33578 0.60589 0.0
H616 H 0.97452 0.2889 0.56826 0.0
H617 H 0.90405 0.72477 0.51113 0.0
H618 H 0.10411 0.68467 0.44462 0.0
N619 N 0.94359 0.59452 0.46356 0.0
C620 C 0.87829 0.64845 0.48384 0.0
C621 C 0.87088 0.60774 0.46908 0.0
C622 C 0.91892 0.66254 0.4857 0.0
C623 C 0.95122 0.63476 0.47334 0.0
C624 C 0.90409 0.58099 0.4591 0.0
N625 N 0.02141 0.62092 0.4548 0.0
C626 C 0.99153 0.6484 0.46911 0.0
C627 C 0.07233 0.67481 0.45184 0.0
C628 C 0.04233 0.70274 0.47126 0.0
C629 C 0.06124 0.63376 0.44334 0.0
C630 C 1.00118 0.68978 0.47935 0.0
H631 H 0.0511 0.73431 0.47879 0.0
O632 O 0.03147 0.55731 0.36888 0.0
O633 O 0.03154 0.49395 0.49015 0.0
O634 O 0.06114 0.52834 0.57856 0.0
O635 O 0.02749 0.58304 0.53205 0.0
O636 O 0.06788 0.53143 0.43473 0.0
O637 O 0.96723 0.53814 0.3796 0.0
O638 O 0.98468 0.46953 0.67141 0.0
O639 O 0.98247 0.53124 0.54933 0.0
O640 O 0.95383 0.49931 0.45985 0.0
O641 O 0.98289 0.44352 0.51186 0.0
O642 O 0.94728 0.49088 0.60355 0.0
O643 O 0.0479 0.49121 0.65999 0.0
C644 C 0.06652 0.49612 0.46365 0.0
C645 C 0.9695 0.71662 0.49729 0.0
C646 C 0.92833 0.70329 0.49939 0.0
C647 C 0.99866 0.54618 0.34261 0.0
C648 C 0.99042 0.56774 0.28599 0.0
C649 C 0.97858 0.60932 0.28285 0.0
C650 C 0.99489 0.5458 0.23395 0.0
C651 C 0.98753 0.565 0.17836 0.0
C652 C 0.97132 0.62875 0.22791 0.0
C653 C 0.97576 0.60687 0.176 0.0
C654 C 0.05501 0.56841 0.56821 0.0
C655 C 0.94702 0.52588 0.57398 0.0
C656 C 0.01686 0.48254 0.69729 0.0
C657 C 0.026 0.46202 0.75427 0.0
C658 C 0.03866 0.42069 0.75824 0.0
C659 C 0.02141 0.48453 0.80579 0.0
C660 C 0.02927 0.46608 0.86164 0.0
C661 C 0.04655 0.40206 0.81345 0.0
C662 C 0.04187 0.42446 0.86483 0.0
C663 C 0.95754 0.45914 0.47276 0.0
H664 H 0.97502 0.6266 0.32267 0.0
H665 H 1.00464 0.51378 0.23684 0.0
H666 H 0.96208 0.66088 0.22552 0.0
H667 H 0.96938 0.62256 0.13418 0.0
H668 H 0.04231 0.40298 0.71884 0.0
H669 H 0.01106 0.51635 0.80233 0.0
H670 H 0.05641 0.37013 0.81647 0.0
H671 H 0.04866 0.40937 0.9069 0.0
H672 H 0.14103 0.03877 0.40084 0.0
H673 H 0.04188 0.11938 0.45332 0.0
H674 H 0.08344 0.17993 0.41766 0.0
H675 H 0.1505 0.21048 0.37458 0.0
H676 H 0.24732 0.12775 0.31949 0.0
H677 H 0.20423 0.06815 0.35134 0.0
C678 C 0.12839 0.06959 0.40459 0.0
C679 C 0.08875 0.07424 0.43206 0.0
C680 C 0.15211 0.10419 0.38236 0.0
C681 C 0.07275 0.1146 0.43471 0.0
C682 C 0.09649 0.14935 0.41361 0.0
C683 C 0.16157 0.17938 0.36793 0.0
C684 C 0.20188 0.17377 0.34255 0.0
C685 C 0.1365 0.14467 0.38762 0.0
C686 C 0.21619 0.1331 0.33693 0.0
C687 C 0.19165 0.09889 0.35586 0.0
H688 H 0.13195 0.97154 0.61696 0.0
H689 H 0.05888 0.86837 0.56751 0.0
H690 H 0.10502 0.82021 0.61741 0.0
H691 H 0.16881 0.80682 0.67073 0.0
H692 H 0.24452 0.90978 0.7125 0.0
H693 H 0.19486 0.95831 0.67079 0.0
C694 C 0.12603 0.93854 0.61713 0.0
C695 C 0.09198 0.9238 0.58806 0.0
C696 C 0.15325 0.91081 0.64495 0.0
C697 C 0.085 0.88078 0.58887 0.0
C698 C 0.11135 0.8531 0.61763 0.0
C699 C 0.17381 0.83992 0.67182 0.0
C700 C 0.20963 0.85485 0.69627 0.0
C701 C 0.14585 0.86767 0.6454 0.0
C702 C 0.21669 0.89771 0.69512 0.0
C703 C 0.18845 0.92543 0.67088 0.0
H704 H 0.37518 0.80634 0.87399 0.0
H705 H 0.28935 0.90391 0.83472 0.0
H706 H 0.32871 0.95188 0.89104 0.0
H707 H 0.38732 0.96546 0.95234 0.0
H708 H 0.46865 0.86512 0.99926 0.0
H709 H 0.43104 0.8187 0.9397 0.0
C710 C 0.36537 0.83821 0.87762 0.0
C711 C 0.32992 0.85198 0.85021 0.0
C712 C 0.38709 0.86492 0.91179 0.0
C713 C 0.31676 0.89294 0.85572 0.0
C714 C 0.33916 0.92025 0.88785 0.0
C715 C 0.39664 0.93341 0.94964 0.0
C716 C 0.43084 0.91889 0.97978 0.0
C717 C 0.37427 0.90648 0.91637 0.0
C718 C 0.44239 0.87715 0.97649 0.0
C719 C 0.42104 0.85054 0.94223 0.0
H720 H 0.37191 0.03229 0.13194 0.0
H721 H 0.48616 0.10023 0.12691 0.0
H722 H 0.44992 0.16126 0.16206 0.0
H723 H 0.38544 0.19519 0.19644 0.0
H724 H 0.27058 0.12798 0.19703 0.0
H725 H 0.30699 0.06739 0.1612 0.0
C726 C 0.38872 0.06063 0.13807 0.0
C727 C 0.43162 0.0619 0.12567 0.0
C728 C 0.36746 0.09587 0.15772 0.0
C729 C 0.4531 0.09865 0.13464 0.0
C730 C 0.43235 0.13354 0.15521 0.0
C731 C 0.36835 0.16731 0.18865 0.0
C732 C 0.32522 0.16627 0.19984 0.0
C733 C 0.3895 0.13252 0.16713 0.0
C734 C 0.30367 0.1299 0.18878 0.0
C735 C 0.32453 0.09506 0.16842 0.0
H736 H 0.8748 0.98135 0.62499 0.0
H737 H 0.97169 0.89653 0.57831 0.0
H738 H 0.93003 0.83852 0.62325 0.0
H739 H 0.86379 0.81152 0.6751 0.0
H740 H 0.76893 0.89927 0.72025 0.0
H741 H 0.81221 0.95602 0.67893 0.0
C742 C 0.88692 0.95015 0.62437 0.0
C743 C 0.92607 0.94352 0.59671 0.0
C744 C 0.86318 0.91723 0.65149 0.0
C745 C 0.9413 0.90275 0.59759 0.0
C746 C 0.91753 0.86951 0.62401 0.0
C747 C 0.85316 0.84317 0.67711 0.0
C748 C 0.8132 0.85108 0.70217 0.0
C749 C 0.87821 0.87626 0.65129 0.0
C750 C 0.79957 0.89227 0.7024 0.0
C751 C 0.82424 0.92482 0.67819 0.0
H752 H 0.9408 0.14423 0.46205 0.0
H753 H 0.88361 0.03074 0.41402 0.0
H754 H 0.83101 0.06975 0.36376 0.0
H755 H 0.7988 0.13591 0.3357 0.0
H756 H 0.85417 0.24987 0.38259 0.0
H757 H 0.90953 0.21135 0.4302 0.0
C758 C 0.91675 0.12806 0.44078 0.0
C759 C 0.91639 0.08437 0.4425 0.0
C760 C 0.88621 0.15088 0.41106 0.0
C761 C 0.88501 0.06418 0.41393 0.0
C762 C 0.85471 0.0865 0.38488 0.0
C763 C 0.82352 0.1522 0.35536 0.0
C764 C 0.82326 0.1956 0.35399 0.0
C765 C 0.85482 0.12978 0.38327 0.0
C766 C 0.85462 0.21647 0.38131 0.0
C767 C 0.88598 0.19438 0.40913 0.0
H768 H 0.71254 0.12944 0.22317 0.0
H769 H 0.62246 0.22639 0.24092 0.0
H770 H 0.57324 0.18618 0.18874 0.0
H771 H 0.5573 0.12495 0.13338 0.0
H772 H 0.64621 0.02662 0.12012 0.0
H773 H 0.69506 0.06646 0.17357 0.0
C774 C 0.68197 0.1415 0.21604 0.0
C775 C 0.67121 0.18084 0.23512 0.0
C776 C 0.65405 0.11842 0.1857 0.0
C777 C 0.63137 0.19604 0.22663 0.0
C778 C 0.60339 0.1733 0.19625 0.0
C779 C 0.58745 0.11244 0.14203 0.0
C780 C 0.59847 0.07324 0.12257 0.0
C781 C 0.61473 0.13484 0.17454 0.0
C782 C 0.63728 0.0569 0.13467 0.0
C783 C 0.66508 0.07951 0.16541 0.0
H784 H 0.6327 0.81233 0.87739 0.0
H785 H 0.7352 0.89445 0.83094 0.0
H786 H 0.70148 0.94936 0.88492 0.0
H787 H 0.64327 0.9748 0.94507 0.0
H788 H 0.5399 0.89463 0.99321 0.0
H789 H 0.57369 0.83822 0.94103 0.0
C790 C 0.64723 0.84246 0.87856 0.0
C791 C 0.68629 0.84939 0.84953 0.0
C792 C 0.62788 0.87406 0.9112 0.0
C793 C 0.70515 0.88832 0.85255 0.0
C794 C 0.68597 0.91975 0.88373 0.0
C795 C 0.6283 0.9448 0.94476 0.0
C796 C 0.58926 0.93896 0.97371 0.0
C797 C 0.64754 0.91296 0.9135 0.0
C798 C 0.57018 0.89997 0.97232 0.0
C799 C 0.58938 0.86776 0.94175 0.0
H800 H 0.56365 0.61267 0.91954 0.0
H801 H 0.64617 0.50998 0.945 0.0
H802 H 0.70482 0.55345 0.91096 0.0
H803 H 0.73352 0.62004 0.87204 0.0
H804 H 0.65292 0.7236 0.84352 0.0
H805 H 0.59337 0.68104 0.88002 0.0
C806 C 0.59457 0.60013 0.91849 0.0
C807 C 0.60048 0.55811 0.93647 0.0
C808 C 0.62868 0.62545 0.89735 0.0
C809 C 0.64071 0.54218 0.93263 0.0
C810 C 0.67436 0.56705 0.91284 0.0
C811 C 0.7029 0.63332 0.8736 0.0
C812 C 0.69787 0.67487 0.85376 0.0
C813 C 0.66883 0.6086 0.89472 0.0
C814 C 0.65784 0.69156 0.85705 0.0
C815 C 0.6237 0.66717 0.87834 0.0
H816 H 0.63946 0.29221 0.16631 0.0
H817 H 0.72882 0.3824 0.21088 0.0
H818 H 0.68614 0.43829 0.17056 0.0
H819 H 0.6254 0.46099 0.11571 0.0
H820 H 0.54036 0.3688 0.06207 0.0
H821 H 0.5792 0.31456 0.11199 0.0
C822 C 0.64891 0.32426 0.16858 0.0
C823 C 0.68609 0.33342 0.19438 0.0
C824 C 0.62528 0.35588 0.14242 0.0
C825 C 0.69924 0.3748 0.19414 0.0
C826 C 0.67515 0.40668 0.17012 0.0
C827 C 0.61529 0.42906 0.11515 0.0
C828 C 0.57997 0.41921 0.0848 0.0
C829 C 0.63837 0.39756 0.14319 0.0
C830 C 0.56754 0.3775 0.08443 0.0
C831 C 0.58966 0.34632 0.11331 0.0
H832 H 0.8912 0.47649 0.40837 0.0
H833 H 0.97202 0.37693 0.46017 0.0
H834 H 0.93574 0.32986 0.39967 0.0
H835 H 0.87964 0.31645 0.33448 0.0
H836 H 0.79508 0.41413 0.29025 0.0
H837 H 0.83509 0.46306 0.34376 0.0
C838 C 0.9009 0.44452 0.40643 0.0
C839 C 0.93411 0.43023 0.43889 0.0
C840 C 0.87968 0.41754 0.37207 0.0
C841 C 0.9462 0.38863 0.43616 0.0
C842 C 0.92573 0.36174 0.40116 0.0
C843 C 0.8706 0.34866 0.33571 0.0
C844 C 0.83509 0.36213 0.30812 0.0
C845 C 0.8924 0.37586 0.36903 0.0
C846 C 0.82276 0.40352 0.31089 0.0
C847 C 0.84534 0.43128 0.3418 0.0
H848 H 0.79974 0.63435 0.67167 0.0
H849 H 0.90042 0.71523 0.70705 0.0
H850 H 0.94914 0.66907 0.65763 0.0
H851 H 0.96389 0.60333 0.60937 0.0
H852 H 0.86405 0.51988 0.58174 0.0
H853 H 0.81441 0.56919 0.62269 0.0
C854 C 0.8323 0.64201 0.66839 0.0
C855 C 0.84624 0.67827 0.69335 0.0
C856 C 0.86041 0.61474 0.64111 0.0
C857 C 0.8887 0.68744 0.68877 0.0
C858 C 0.91667 0.66106 0.66036 0.0
C859 C 0.93119 0.59647 0.61112 0.0
C860 C 0.91745 0.55858 0.59094 0.0
C861 C 0.90298 0.62436 0.6369 0.0
C862 C 0.87516 0.54924 0.5959 0.0
C863 C 0.84684 0.57732 0.61961 0.0
H864 H 0.36254 0.31705 0.16171 0.0
H865 H 0.26962 0.40101 0.22558 0.0
H866 H 0.31192 0.46013 0.18863 0.0
H867 H 0.37312 0.48861 0.13152 0.0
H868 H 0.46752 0.40564 0.06964 0.0
H869 H 0.42729 0.34634 0.11101 0.0
C870 C 0.35227 0.34831 0.16925 0.0
C871 C 0.31337 0.35444 0.19855 0.0
C872 C 0.37664 0.38262 0.14635 0.0
C873 C 0.29985 0.3953 0.20518 0.0
C874 C 0.32388 0.42922 0.18327 0.0
C875 C 0.38494 0.45755 0.12693 0.0
C876 C 0.42291 0.452 0.09505 0.0
C877 C 0.36191 0.42337 0.15255 0.0
C878 C 0.43793 0.41131 0.09149 0.0
C879 C 0.41496 0.37714 0.11597 0.0
H880 H 0.38319 0.55685 0.90844 0.0
H881 H 0.46474 0.65492 0.95234 0.0
H882 H 0.41889 0.70628 0.90831 0.0
H883 H 0.35315 0.72385 0.8614 0.0
H884 H 0.27084 0.62542 0.82225 0.0
H885 H 0.31932 0.57398 0.85952 0.0
C886 C 0.3911 0.58942 0.90831 0.0
C887 C 0.42728 0.6018 0.93458 0.0
C888 C 0.36434 0.61891 0.88334 0.0
C889 C 0.43683 0.64432 0.93355 0.0
C890 C 0.41065 0.67382 0.90807 0.0
C891 C 0.34641 0.69109 0.85991 0.0
C892 C 0.30897 0.67832 0.83758 0.0
C893 C 0.37403 0.66157 0.8833 0.0
C894 C 0.29984 0.63587 0.83807 0.0
C895 C 0.32744 0.60647 0.85975 0.0
H896 H 0.13635 0.71788 0.68711 0.0
H897 H 0.23913 0.63379 0.68972 0.0
H898 H 0.19801 0.58107 0.64544 0.0
H899 H 0.13286 0.55934 0.60492 0.0
H900 H 0.03175 0.64538 0.59791 0.0
H901 H 0.07204 0.6968 0.64549 0.0
C902 C 0.14964 0.68791 0.67824 0.0
C903 C 0.19054 0.67955 0.69168 0.0
C904 C 0.1261 0.65814 0.65212 0.0
C905 C 0.2077 0.64092 0.67928 0.0
C906 C 0.18419 0.61076 0.65425 0.0
C907 C 0.11969 0.58926 0.61421 0.0
C908 C 0.07951 0.59859 0.59816 0.0
C909 C 0.14336 0.61907 0.64037 0.0
C910 C 0.06279 0.63761 0.60967 0.0
C911 C 0.08574 0.66701 0.6369 0.0
H912 H 0.13191 0.33233 0.34745 0.0
H913 H 0.24777 0.39706 0.35309 0.0
H914 H 0.21279 0.45515 0.39851 0.0
H915 H 0.1488 0.48862 0.43613 0.0
H916 H 0.03373 0.42295 0.43253 0.0
H917 H 0.06846 0.36481 0.3877 0.0
C918 C 0.14951 0.35917 0.35849 0.0
C919 C 0.19249 0.36015 0.34648 0.0
C920 C 0.12924 0.39249 0.38559 0.0
C921 C 0.21472 0.39518 0.36178 0.0
C922 C 0.19471 0.4286 0.38776 0.0
C923 C 0.1315 0.46137 0.42599 0.0
C924 C 0.08879 0.45975 0.43973 0.0
C925 C 0.15195 0.42771 0.39989 0.0
C926 C 0.0667 0.42455 0.42502 0.0
C927 C 0.08659 0.39133 0.39848 0.0
H928 H 0.06626 0.0511 0.94752 0.0
H929 H 0.94971 0.01578 0.88131 0.0
H930 H 0.92952 0.98189 0.97714 0.0
H931 H 0.94462 0.96318 0.08015 0.0
H932 H 0.06142 0.99814 0.14604 0.0
H933 H 0.08156 0.03193 0.05022 0.0
C934 C 0.03627 0.03636 0.9543 0.0
C935 C 0.00951 0.03603 0.90746 0.0
C936 C 0.02488 0.01695 1.00943 0.0
C937 C 0.97102 0.01616 0.91655 0.0
C938 C 0.9594 0.9969 0.97136 0.0
C939 C 0.97467 0.97777 0.07331 0.0
C940 C 1.00144 0.97817 0.12016 0.0
C941 C 0.98612 0.99704 1.01807 0.0
C942 C 0.04003 0.9978 0.11088 0.0
C943 C 0.05165 0.017 0.05606 0.0
H944 H 0.33567 0.78492 0.31532 0.0
H945 H 0.23218 0.72728 0.41452 0.0
H946 H 0.19179 0.73184 0.32656 0.0
H947 H 0.18588 0.75093 0.22074 0.0
H948 H 0.28947 0.80813 0.12132 0.0
H949 H 0.3299 0.8036 0.20935 0.0
C950 C 0.30442 0.77295 0.31778 0.0
C951 C 0.28721 0.75588 0.37213 0.0
C952 C 0.28133 0.77521 0.26658 0.0
C953 C 0.24628 0.74124 0.37402 0.0
C954 C 0.22315 0.74352 0.32341 0.0
C955 C 0.21718 0.76278 0.21827 0.0
C956 C 0.23438 0.77984 0.16393 0.0
C957 C 0.24031 0.76043 0.26941 0.0
C958 C 0.27537 0.79429 0.16191 0.0
C959 C 0.29852 0.79202 0.21252 0.0
H960 H 0.52914 0.07496 0.60654 0.0
H961 H 0.45778 0.97491 0.69321 0.0
H962 H 0.4642 0.93587 0.60348 0.0
H963 H 0.48988 0.93014 0.50011 0.0
H964 H 0.56155 0.03005 0.41362 0.0
H965 H 0.55445 0.0694 0.50299 0.0
C966 C 0.5146 0.04482 0.60559 0.0
C967 C 0.49309 0.02792 0.65666 0.0
C968 C 0.51837 0.0225 0.55375 0.0
C969 C 0.47496 0.98849 0.65484 0.0
C970 C 0.47847 0.96618 0.60342 0.0
C971 C 0.50427 0.96035 0.50098 0.0
C972 C 0.52619 0.97705 0.4501 0.0
C973 C 0.50026 0.98279 0.55269 0.0
C974 C 0.54407 0.01659 0.45181 0.0
C975 C 0.54021 0.03907 0.50304 0.0
H976 H 0.20026 0.21509 0.83141 0.0
H977 H 0.26781 0.31188 0.90958 0.0
H978 H 0.3058 0.32698 0.81529 0.0
H979 H 0.31904 0.31383 0.70982 0.0
H980 H 0.2514 0.21706 0.63175 0.0
H981 H 0.21356 0.20187 0.7261 0.0
C982 C 0.22298 0.23977 0.82779 0.0
C983 C 0.23107 0.26217 0.87791 0.0
C984 C 0.24456 0.24863 0.77312 0.0
C985 C 0.26123 0.29362 0.87225 0.0
C986 C 0.28284 0.30253 0.8181 0.0
C987 C 0.29631 0.28914 0.71349 0.0
C988 C 0.28812 0.2668 0.66335 0.0
C989 C 0.27478 0.28026 0.7682 0.0
C990 C 0.25802 0.2353 0.66908 0.0
C991 C 0.23649 0.22635 0.72326 0.0
H992 H 0.85597 0.29387 0.82772 0.0
H993 H 0.74221 0.26409 0.92731 0.0
H994 H 0.70434 0.27267 0.83688 0.0
H995 H 0.70381 0.28585 0.72912 0.0
H996 H 0.81724 0.31927 0.6302 0.0
H997 H 0.8549 0.31023 0.72021 0.0
C998 C 0.82286 0.28922 0.82972 0.0
C999 C 0.80208 0.27822 0.88461 0.0
C1000 C 0.80122 0.29414 0.77735 0.0
C1001 C 0.75906 0.27298 0.88614 0.0
C1002 C 0.7374 0.27754 0.83421 0.0
C1003 C 0.73666 0.29191 0.7269 0.0
C1004 C 0.75727 0.30326 0.67185 0.0
C1005 C 0.75819 0.28784 0.77947 0.0
C1006 C 0.80021 0.30974 0.67091 0.0
C1007 C 0.82189 0.30501 0.72279 0.0
H1008 H 0.6896 0.77045 0.33909 0.0
H1009 H 0.79653 0.71113 0.40963 0.0
H1010 H 0.83419 0.72177 0.31391 0.0
H1011 H 0.8364 0.74705 0.20977 0.0
H1012 H 0.72963 0.80703 0.13962 0.0
H1013 H 0.69202 0.79632 0.23522 0.0
C1014 C 0.72101 0.75951 0.3333 0.0
C1015 C 0.7402 0.74001 0.38133 0.0
C1016 C 0.74248 0.76574 0.27819 0.0
C1017 C 0.78118 0.72659 0.37347 0.0
C1018 C 0.80268 0.73253 0.31872 0.0
C1019 C 0.80507 0.75819 0.21559 0.0
C1020 C 0.78587 0.7777 0.16754 0.0
C1021 C 0.78367 0.75213 0.2708 0.0
C1022 C 0.74499 0.7914 0.17562 0.0
C1023 C 0.7235 0.78547 0.23037 0.0
H1024 H 0.44258 0.47583 0.57332 0.0
H1025 H 0.55989 0.50688 0.641 0.0
H1026 H 0.58129 0.54115 0.54592 0.0
H1027 H 0.56716 0.56111 0.4427 0.0
H1028 H 0.44977 0.52985 0.37539 0.0
H1029 H 0.42817 0.4964 0.47081 0.0
C1030 C 0.47297 0.48974 0.56705 0.0
C1031 C 0.49959 0.48873 0.61411 0.0
C1032 C 0.4851 0.50934 0.51229 0.0
C1033 C 0.53865 0.50755 0.60562 0.0
C1034 C 0.55097 0.52703 0.55122 0.0
C1035 C 0.53669 0.5474 0.4492 0.0
C1036 C 0.51019 0.54785 0.40197 0.0
C1037 C 0.52444 0.52815 0.50423 0.0
C1038 C 0.47096 0.52948 0.41083 0.0
C1039 C 0.45852 0.51044 0.46542 0.0
H1040 H 0.99514 0.44043 0.97002 0.0
H1041 H 0.05232 0.54633 0.87598 0.0
H1042 H 0.04378 0.58635 0.9646 0.0
H1043 H 0.02119 0.59106 0.06959 0.0
H1044 H 0.96365 0.48515 0.16327 0.0
H1045 H 0.97208 0.44529 0.07462 0.0
C1046 C 1.00609 0.47214 0.96901 0.0
C1047 C 0.02435 0.49023 0.91619 0.0
C1048 C 1.00122 0.49502 1.0203 0.0
C1049 C 0.03771 0.53166 0.91565 0.0
C1050 C 0.03303 0.55457 0.96648 0.0
C1051 C 0.0101 0.55939 0.07051 0.0
C1052 C 0.99196 0.54121 0.12338 0.0
C1053 C 0.01481 0.53659 1.01909 0.0
C1054 C 0.97833 0.49987 0.12369 0.0
C1055 C 0.98291 0.47705 0.07281 0.0
loop_
_geom_bond_atom_site_label_1
_geom_bond_atom_site_label_2
_geom_bond_distance
_geom_bond_site_symmetry_2
_ccdc_geom_bond_type
Gd0 N31 2.660 1_655 S
Gd0 N37 2.601 1_655 S
Gd0 O44 2.545 . S
Gd0 O45 2.606 1_545 S
Gd0 O47 2.429 . S
Gd0 O48 2.545 1_545 S
Gd0 O49 2.412 1_655 S
Gd0 O51 2.362 1_655 S
Gd0 O52 2.323 1_645 S
Gd0 C59 2.828 . S
Gd1 N10 2.654 1_455 S
Gd1 N14 2.601 1_455 S
Gd1 O45 2.359 1_455 S
Gd1 O46 2.319 1_465 S
Gd1 O50 2.548 . S
Gd1 O51 2.608 1_565 S
Gd1 O53 2.434 . S
Gd1 O54 2.549 1_565 S
Gd1 O55 2.411 1_455 S
Gd1 C68 2.829 . S
C2 C5 1.417 . S
C2 C7 1.431 . S
C2 C8 1.412 . S
C3 C6 1.437 . S
C3 C7 1.317 . S
C3 H22 0.929 . S
C4 C5 1.426 . S
C4 C6 1.413 . S
C4 N14 1.359 . S
C5 C2 1.417 . S
C5 C4 1.426 . S
C5 N10 1.350 . S
C6 C3 1.437 . S
C6 C4 1.413 . S
C6 C16 1.416 . S
C7 C2 1.431 . S
C7 C3 1.317 . S
C7 H18 0.930 . S
C8 C2 1.412 . S
C8 C9 1.355 . S
C8 H20 0.930 . S
C9 C8 1.355 . S
C9 C11 1.402 . S
C9 H21 0.930 . S
N10 Gd1 2.654 1_655 S
N10 C5 1.350 . S
N10 C11 1.307 . S
C11 C9 1.402 . S
C11 N10 1.307 . S
C11 H12 0.930 . S
H12 C11 0.930 . S
C13 N14 1.334 1_455 S
C13 C15 1.394 . S
C13 H17 0.930 . S
N14 Gd1 2.601 1_655 S
N14 C4 1.359 . S
N14 C13 1.334 1_655 S
C15 C13 1.394 . S
C15 C16 1.335 1_455 S
C15 H27 0.930 . S
C16 C6 1.416 . S
C16 C15 1.335 1_655 S
C16 H28 0.929 . S
H17 C13 0.930 . S
H18 C7 0.930 . S
H19 C36 0.930 . S
H20 C8 0.930 . S
H21 C9 0.930 . S
H22 C3 0.929 . S
H23 C41 0.930 . S
H24 C32 0.930 . S
H25 C33 0.930 . S
H26 C57 0.929 . S
H27 C15 0.930 . S
H28 C16 0.929 . S
H29 C58 0.930 . S
H30 C39 0.930 . S
N31 Gd0 2.660 1_455 S
N31 C35 1.350 . S
N31 C36 1.307 . S
C32 H24 0.930 . S
C32 C33 1.355 . S
C32 C34 1.412 . S
C33 H25 0.930 . S
C33 C32 1.355 . S
C33 C36 1.402 . S
C34 C32 1.412 . S
C34 C35 1.417 . S
C34 C58 1.431 . S
C35 N31 1.350 . S
C35 C34 1.417 . S
C35 C38 1.426 . S
C36 H19 0.930 . S
C36 N31 1.307 . S
C36 C33 1.402 . S
N37 Gd0 2.601 1_455 S
N37 C38 1.359 . S
N37 C41 1.334 1_455 S
C38 C35 1.426 . S
C38 N37 1.359 . S
C38 C42 1.413 . S
C39 H30 0.930 . S
C39 C40 1.359 1_655 S
C39 C41 1.394 . S
C40 C39 1.359 1_455 S
C40 C42 1.391 . S
C40 H43 0.930 . S
C41 H23 0.930 . S
C41 N37 1.334 1_655 S
C41 C39 1.394 . S
C42 C38 1.413 . S
C42 C40 1.391 . S
C42 C57 1.437 . S
H43 C40 0.930 . S
O44 Gd0 2.545 . S
O44 C59 1.258 . S
O45 Gd0 2.606 1_565 S
O45 Gd1 2.359 1_655 S
O45 C56 1.284 . S
O46 Gd1 2.319 1_645 S
O46 C66 1.254 . S
O47 Gd0 2.429 . S
O47 C66 1.268 . S
O48 Gd0 2.545 1_565 S
O48 C56 1.250 . S
O49 Gd0 2.412 1_455 S
O49 C59 1.252 1_455 S
O50 Gd1 2.548 . S
O50 C68 1.258 . S
O51 Gd0 2.362 1_455 S
O51 Gd1 2.608 1_545 S
O51 C67 1.284 . S
O52 Gd0 2.323 1_465 S
O52 C75 1.254 . S
O53 Gd1 2.434 . S
O53 C75 1.268 . S
O54 Gd1 2.549 1_545 S
O54 C67 1.250 . S
O55 Gd1 2.411 1_655 S
O55 C68 1.252 1_655 S
C56 O45 1.284 . S
C56 O48 1.250 . S
C57 H26 0.929 . S
C57 C42 1.437 . S
C57 C58 1.317 . S
C58 H29 0.930 . S
C58 C34 1.431 . S
C58 C57 1.317 . S
C59 Gd0 2.828 . S
C59 O44 1.258 . S
C59 O49 1.252 1_655 S
C59 C60 1.497 . S
C60 C59 1.497 . S
C60 C61 1.395 . S
C60 C62 1.380 . S
C61 C60 1.395 . S
C61 C64 1.398 . S
C61 H76 0.930 . S
C62 C60 1.380 . S
C62 C63 1.391 . S
C62 H77 0.930 1_645 S
C63 C62 1.391 . S
C63 C65 1.387 . S
C64 C61 1.398 . S
C64 C65 1.380 . S
C64 H78 0.930 . S
C65 C63 1.387 . S
C65 C64 1.380 . S
C65 H79 0.930 . S
C66 O46 1.254 . S
C66 O47 1.268 . S
C67 O51 1.284 . S
C67 O54 1.250 . S
C68 Gd1 2.829 . S
C68 O50 1.258 . S
C68 O55 1.252 1_455 S
C68 C69 1.497 . S
C69 C68 1.497 . S
C69 C70 1.395 . S
C69 C71 1.380 . S
C70 C69 1.395 . S
C70 C73 1.398 . S
C70 H80 0.930 . S
C71 C69 1.380 . S
C71 C72 1.391 . S
C71 H81 0.930 1_465 S
C72 C71 1.391 . S
C72 C74 1.387 . S
C73 C70 1.398 . S
C73 C74 1.380 . S
C73 H82 0.930 . S
C74 C72 1.387 . S
C74 C73 1.380 . S
C74 H83 0.930 . S
C75 O52 1.254 . S
C75 O53 1.268 . S
H76 C61 0.930 . S
H77 C62 0.930 1_465 S
H78 C64 0.930 . S
H79 C65 0.930 . S
H80 C70 0.930 . S
H81 C71 0.930 1_645 S
H82 C73 0.930 . S
H83 C74 0.930 . S
Gd84 N115 2.661 . S
Gd84 N121 2.601 . S
Gd84 O128 2.545 . S
Gd84 O129 2.606 . S
Gd84 O131 2.429 . S
Gd84 O132 2.545 . S
Gd84 O133 2.412 . S
Gd84 O135 2.362 . S
Gd84 O136 2.324 . S
Gd84 C143 2.828 . S
Gd85 N94 2.661 . S
Gd85 N98 2.601 . S
Gd85 O129 2.362 . S
Gd85 O130 2.324 . S
Gd85 O134 2.545 . S
Gd85 O135 2.606 . S
Gd85 O137 2.429 . S
Gd85 O138 2.545 . S
Gd85 O139 2.412 . S
Gd85 C152 2.828 . S
C86 C89 1.417 . S
C86 C91 1.431 . S
C86 C92 1.412 . S
C87 C90 1.437 . S
C87 C91 1.317 . S
C87 H106 0.929 . S
C88 C89 1.426 . S
C88 C90 1.413 . S
C88 N98 1.359 . S
C89 C86 1.417 . S
C89 C88 1.426 . S
C89 N94 1.350 . S
C90 C87 1.437 . S
C90 C88 1.413 . S
C90 C100 1.391 . S
C91 C86 1.431 . S
C91 C87 1.317 . S
C91 H102 0.930 . S
C92 C86 1.412 . S
C92 C93 1.355 . S
C92 H104 0.930 . S
C93 C92 1.355 . S
C93 C95 1.402 . S
C93 H105 0.930 . S
N94 Gd85 2.661 . S
N94 C89 1.350 . S
N94 C95 1.307 . S
C95 C93 1.402 . S
C95 N94 1.307 . S
C95 H96 0.930 . S
H96 C95 0.930 . S
C97 N98 1.334 . S
C97 C99 1.394 . S
C97 H101 0.930 . S
N98 Gd85 2.601 . S
N98 C88 1.359 . S
N98 C97 1.334 . S
C99 C97 1.394 . S
C99 C100 1.359 . S
C99 H111 0.930 . S
C100 C90 1.391 . S
C100 C99 1.359 . S
C100 H112 0.929 . S
H101 C97 0.930 . S
H102 C91 0.930 . S
H103 C120 0.930 . S
H104 C92 0.930 . S
H105 C93 0.930 . S
H106 C87 0.929 . S
H107 C125 0.930 . S
H108 C116 0.930 . S
H109 C117 0.930 . S
H110 C141 0.929 . S
H111 C99 0.930 . S
H112 C100 0.929 . S
H113 C142 0.930 . S
H114 C123 0.930 . S
N115 Gd84 2.661 . S
N115 C119 1.350 . S
N115 C120 1.307 . S
C116 H108 0.930 . S
C116 C117 1.355 . S
C116 C118 1.412 . S
C117 H109 0.930 . S
C117 C116 1.355 . S
C117 C120 1.402 . S
C118 C116 1.412 . S
C118 C119 1.417 . S
C118 C142 1.431 . S
C119 N115 1.350 . S
C119 C118 1.417 . S
C119 C122 1.426 . S
C120 H103 0.930 . S
C120 N115 1.307 . S
C120 C117 1.402 . S
N121 Gd84 2.601 . S
N121 C122 1.359 . S
N121 C125 1.334 . S
C122 C119 1.426 . S
C122 N121 1.359 . S
C122 C126 1.413 . S
C123 H114 0.930 . S
C123 C124 1.359 . S
C123 C125 1.394 . S
C124 C123 1.359 . S
C124 C126 1.391 . S
C124 H127 0.929 . S
C125 H107 0.930 . S
C125 N121 1.334 . S
C125 C123 1.394 . S
C126 C122 1.413 . S
C126 C124 1.391 . S
C126 C141 1.437 . S
H127 C124 0.929 . S
O128 Gd84 2.545 . S
O128 C143 1.258 . S
O129 Gd84 2.606 . S
O129 Gd85 2.362 . S
O129 C140 1.284 . S
O130 Gd85 2.324 . S
O130 C150 1.254 . S
O131 Gd84 2.429 . S
O131 C150 1.268 . S
O132 Gd84 2.545 . S
O132 C140 1.250 . S
O133 Gd84 2.412 . S
O133 C143 1.252 . S
O134 Gd85 2.545 . S
O134 C152 1.258 . S
O135 Gd84 2.362 . S
O135 Gd85 2.606 . S
O135 C151 1.284 . S
O136 Gd84 2.324 . S
O136 C159 1.254 . S
O137 Gd85 2.429 . S
O137 C159 1.268 . S
O138 Gd85 2.545 . S
O138 C151 1.250 . S
O139 Gd85 2.412 . S
O139 C152 1.252 . S
C140 O129 1.284 . S
C140 O132 1.250 . S
C141 H110 0.929 . S
C141 C126 1.437 . S
C141 C142 1.317 . S
C142 H113 0.930 . S
C142 C118 1.431 . S
C142 C141 1.317 . S
C143 Gd84 2.828 . S
C143 O128 1.258 . S
C143 O133 1.252 . S
C143 C144 1.498 1_556 S
C144 C143 1.498 1_554 S
C144 C145 1.394 . S
C144 C146 1.380 . S
C145 C144 1.394 . S
C145 C148 1.398 . S
C145 H160 0.930 . S
C146 C144 1.380 . S
C146 C147 1.391 . S
C146 H161 0.930 . S
C147 C146 1.391 . S
C147 C149 1.387 . S
C148 C145 1.398 . S
C148 C149 1.380 . S
C148 H162 0.930 . S
C149 C147 1.387 . S
C149 C148 1.380 . S
C149 H163 0.930 . S
C150 O130 1.254 . S
C150 O131 1.268 . S
C151 O135 1.284 . S
C151 O138 1.250 . S
C152 Gd85 2.828 . S
C152 O134 1.258 . S
C152 O139 1.252 . S
C152 C153 1.497 . S
C153 C152 1.497 . S
C153 C154 1.395 . S
C153 C155 1.380 . S
C154 C153 1.395 . S
C154 C157 1.398 . S
C154 H164 0.930 . S
C155 C153 1.380 . S
C155 C156 1.391 . S
C155 H165 0.930 . S
C156 C155 1.391 . S
C156 C158 1.387 . S
C157 C154 1.398 . S
C157 C158 1.380 . S
C157 H166 0.930 . S
C158 C156 1.387 . S
C158 C157 1.380 . S
C158 H167 0.930 . S
C159 O136 1.254 . S
C159 O137 1.268 . S
H160 C145 0.930 . S
H161 C146 0.930 . S
H162 C148 0.930 . S
H163 C149 0.930 . S
H164 C154 0.930 . S
H165 C155 0.930 . S
H166 C157 0.930 . S
H167 C158 0.930 . S
Gd168 N199 2.661 . S
Gd168 N205 2.601 . S
Gd168 O212 2.545 . S
Gd168 O213 2.606 1_545 S
Gd168 O215 2.429 . S
Gd168 O216 2.545 1_545 S
Gd168 O217 2.412 . S
Gd168 O219 2.362 1_556 S
Gd168 O220 2.324 1_545 S
Gd168 C227 2.828 . S
Gd169 N178 2.661 . S
Gd169 N182 2.601 . S
Gd169 O213 2.362 1_554 S
Gd169 O214 2.324 1_565 S
Gd169 O218 2.545 . S
Gd169 O219 2.606 1_565 S
Gd169 O221 2.429 . S
Gd169 O222 2.545 1_565 S
Gd169 O223 2.412 . S
Gd169 C236 2.828 . S
C170 C173 1.417 . S
C170 C175 1.431 . S
C170 C176 1.412 . S
C171 C174 1.437 . S
C171 C175 1.317 . S
C171 H190 0.929 . S
C172 C173 1.426 . S
C172 C174 1.413 . S
C172 N182 1.359 . S
C173 C170 1.417 . S
C173 C172 1.426 . S
C173 N178 1.350 . S
C174 C171 1.437 . S
C174 C172 1.413 . S
C174 C184 1.391 . S
C175 C170 1.431 . S
C175 C171 1.317 . S
C175 H186 0.930 . S
C176 C170 1.412 . S
C176 C177 1.355 . S
C176 H188 0.930 . S
C177 C176 1.355 . S
C177 C179 1.402 . S
C177 H189 0.930 . S
N178 Gd169 2.661 . S
N178 C173 1.350 . S
N178 C179 1.307 . S
C179 C177 1.402 . S
C179 N178 1.307 . S
C179 H180 0.930 . S
H180 C179 0.930 . S
C181 N182 1.334 . S
C181 C183 1.394 . S
C181 H185 0.930 . S
N182 Gd169 2.601 . S
N182 C172 1.359 . S
N182 C181 1.334 . S
C183 C181 1.394 . S
C183 C184 1.359 . S
C183 H195 0.930 . S
C184 C174 1.391 . S
C184 C183 1.359 . S
C184 H196 0.929 . S
H185 C181 0.930 . S
H186 C175 0.930 . S
H187 C204 0.930 . S
H188 C176 0.930 . S
H189 C177 0.930 . S
H190 C171 0.929 . S
H191 C209 0.930 . S
H192 C200 0.930 . S
H193 C201 0.930 . S
H194 C225 0.929 . S
H195 C183 0.930 . S
H196 C184 0.929 . S
H197 C226 0.930 . S
H198 C207 0.930 . S
N199 Gd168 2.661 . S
N199 C203 1.350 . S
N199 C204 1.307 . S
C200 H192 0.930 . S
C200 C201 1.355 . S
C200 C202 1.412 . S
C201 H193 0.930 . S
C201 C200 1.355 . S
C201 C204 1.402 . S
C202 C200 1.412 . S
C202 C203 1.417 . S
C202 C226 1.431 . S
C203 N199 1.350 . S
C203 C202 1.417 . S
C203 C206 1.426 . S
C204 H187 0.930 . S
C204 N199 1.307 . S
C204 C201 1.402 . S
N205 Gd168 2.601 . S
N205 C206 1.359 . S
N205 C209 1.334 . S
C206 C203 1.426 . S
C206 N205 1.359 . S
C206 C210 1.413 . S
C207 H198 0.930 . S
C207 C208 1.359 . S
C207 C209 1.394 . S
C208 C207 1.359 . S
C208 C210 1.391 . S
C208 H211 0.929 . S
C209 H191 0.930 . S
C209 N205 1.334 . S
C209 C207 1.394 . S
C210 C206 1.413 . S
C210 C208 1.391 . S
C210 C225 1.437 . S
H211 C208 0.929 . S
O212 Gd168 2.545 . S
O212 C227 1.258 . S
O213 Gd168 2.606 1_565 S
O213 Gd169 2.362 1_556 S
O213 C224 1.284 . S
O214 Gd169 2.324 1_545 S
O214 C234 1.254 . S
O215 Gd168 2.429 . S
O215 C234 1.268 1_556 S
O216 Gd168 2.545 1_565 S
O216 C224 1.250 . S
O217 Gd168 2.412 . S
O217 C227 1.252 . S
O218 Gd169 2.545 . S
O218 C236 1.258 . S
O219 Gd168 2.362 1_554 S
O219 Gd169 2.606 1_545 S
O219 C235 1.284 . S
O220 Gd168 2.324 1_565 S
O220 C243 1.254 . S
O221 Gd169 2.429 . S
O221 C243 1.268 1_554 S
O222 Gd169 2.545 1_545 S
O222 C235 1.250 . S
O223 Gd169 2.412 . S
O223 C236 1.252 . S
C224 O213 1.284 . S
C224 O216 1.250 . S
C225 H194 0.929 . S
C225 C210 1.437 . S
C225 C226 1.317 . S
C226 H197 0.930 . S
C226 C202 1.431 . S
C226 C225 1.317 . S
C227 Gd168 2.828 . S
C227 O212 1.258 . S
C227 O217 1.252 . S
C227 C228 1.497 . S
C228 C227 1.497 . S
C228 C229 1.395 . S
C228 C230 1.380 . S
C229 C228 1.395 . S
C229 C232 1.398 . S
C229 H244 0.930 . S
C230 C228 1.380 . S
C230 C231 1.391 . S
C230 H245 0.930 1_545 S
C231 C230 1.391 . S
C231 C233 1.387 . S
C232 C229 1.398 . S
C232 C233 1.380 . S
C232 H246 0.930 . S
C233 C231 1.387 . S
C233 C232 1.380 . S
C233 H247 0.930 . S
C234 O214 1.254 . S
C234 O215 1.268 1_554 S
C235 O219 1.284 . S
C235 O222 1.250 . S
C236 Gd169 2.828 . S
C236 O218 1.258 . S
C236 O223 1.252 . S
C236 C237 1.497 . S
C237 C236 1.497 . S
C237 C238 1.395 . S
C237 C239 1.380 . S
C238 C237 1.395 . S
C238 C241 1.398 . S
C238 H248 0.930 . S
C239 C237 1.380 . S
C239 C240 1.391 . S
C239 H249 0.930 1_565 S
C240 C239 1.391 . S
C240 C242 1.387 . S
C241 C238 1.398 . S
C241 C242 1.380 . S
C241 H250 0.930 . S
C242 C240 1.387 . S
C242 C241 1.380 . S
C242 H251 0.930 . S
C243 O220 1.254 . S
C243 O221 1.268 1_556 S
H244 C229 0.930 . S
H245 C230 0.930 1_565 S
H246 C232 0.930 . S
H247 C233 0.930 . S
H248 C238 0.930 . S
H249 C239 0.930 1_545 S
H250 C241 0.930 . S
H251 C242 0.930 . S
Gd252 N283 2.661 . S
Gd252 N289 2.601 . S
Gd252 O296 2.545 . S
Gd252 O297 2.606 . S
Gd252 O299 2.429 . S
Gd252 O300 2.545 . S
Gd252 O301 2.412 . S
Gd252 O303 2.362 . S
Gd252 O304 2.324 . S
Gd252 C311 2.828 . S
Gd253 N262 2.661 . S
Gd253 N266 2.601 . S
Gd253 O297 2.362 . S
Gd253 O298 2.324 . S
Gd253 O302 2.545 . S
Gd253 O303 2.606 . S
Gd253 O305 2.429 . S
Gd253 O306 2.545 . S
Gd253 O307 2.412 . S
Gd253 C320 2.828 . S
C254 C257 1.417 . S
C254 C259 1.431 . S
C254 C260 1.412 . S
C255 C258 1.437 . S
C255 C259 1.317 . S
C255 H274 0.929 . S
C256 C257 1.426 . S
C256 C258 1.413 . S
C256 N266 1.359 . S
C257 C254 1.417 . S
C257 C256 1.426 . S
C257 N262 1.350 . S
C258 C255 1.437 . S
C258 C256 1.413 . S
C258 C268 1.391 . S
C259 C254 1.431 . S
C259 C255 1.317 . S
C259 H270 0.930 . S
C260 C254 1.412 . S
C260 C261 1.355 . S
C260 H272 0.930 . S
C261 C260 1.355 . S
C261 C263 1.402 . S
C261 H273 0.930 . S
N262 Gd253 2.661 . S
N262 C257 1.350 . S
N262 C263 1.307 . S
C263 C261 1.402 . S
C263 N262 1.307 . S
C263 H264 0.930 . S
H264 C263 0.930 . S
C265 N266 1.334 . S
C265 C267 1.394 . S
C265 H269 0.930 . S
N266 Gd253 2.601 . S
N266 C256 1.359 . S
N266 C265 1.334 . S
C267 C265 1.394 . S
C267 C268 1.359 . S
C267 H279 0.930 . S
C268 C258 1.391 . S
C268 C267 1.359 . S
C268 H280 0.929 . S
H269 C265 0.930 . S
H270 C259 0.930 . S
H271 C288 0.930 . S
H272 C260 0.930 . S
H273 C261 0.930 . S
H274 C255 0.929 . S
H275 C293 0.930 . S
H276 C284 0.930 . S
H277 C285 0.930 . S
H278 C309 0.929 . S
H279 C267 0.930 . S
H280 C268 0.929 . S
H281 C310 0.930 . S
H282 C291 0.930 . S
N283 Gd252 2.661 . S
N283 C287 1.350 . S
N283 C288 1.307 . S
C284 H276 0.930 . S
C284 C285 1.355 . S
C284 C286 1.412 . S
C285 H277 0.930 . S
C285 C284 1.355 . S
C285 C288 1.402 . S
C286 C284 1.412 . S
C286 C287 1.417 . S
C286 C310 1.431 . S
C287 N283 1.350 . S
C287 C286 1.417 . S
C287 C290 1.426 . S
C288 H271 0.930 . S
C288 N283 1.307 . S
C288 C285 1.402 . S
N289 Gd252 2.601 . S
N289 C290 1.359 . S
N289 C293 1.334 . S
C290 C287 1.426 . S
C290 N289 1.359 . S
C290 C294 1.413 . S
C291 H282 0.930 . S
C291 C292 1.359 . S
C291 C293 1.394 . S
C292 C291 1.359 . S
C292 C294 1.391 . S
C292 H295 0.929 . S
C293 H275 0.930 . S
C293 N289 1.334 . S
C293 C291 1.394 . S
C294 C290 1.413 . S
C294 C292 1.391 . S
C294 C309 1.437 . S
H295 C292 0.929 . S
O296 Gd252 2.545 . S
O296 C311 1.258 . S
O297 Gd252 2.606 . S
O297 Gd253 2.362 . S
O297 C308 1.284 . S
O298 Gd253 2.324 . S
O298 C318 1.254 . S
O299 Gd252 2.429 . S
O299 C318 1.268 . S
O300 Gd252 2.545 . S
O300 C308 1.250 . S
O301 Gd252 2.412 . S
O301 C311 1.252 . S
O302 Gd253 2.545 . S
O302 C320 1.258 . S
O303 Gd252 2.362 . S
O303 Gd253 2.606 . S
O303 C319 1.284 . S
O304 Gd252 2.324 . S
O304 C327 1.254 . S
O305 Gd253 2.429 . S
O305 C327 1.268 . S
O306 Gd253 2.545 . S
O306 C319 1.250 . S
O307 Gd253 2.412 . S
O307 C320 1.252 . S
C308 O297 1.284 . S
C308 O300 1.250 . S
C309 H278 0.929 . S
C309 C294 1.437 . S
C309 C310 1.317 . S
C310 H281 0.930 . S
C310 C286 1.431 . S
C310 C309 1.317 . S
C311 Gd252 2.828 . S
C311 O296 1.258 . S
C311 O301 1.252 . S
C311 C312 1.477 1_554 S
C312 C311 1.477 1_556 S
C312 C313 1.403 . S
C312 C314 1.392 . S
C313 C312 1.403 . S
C313 C316 1.398 . S
C313 H328 0.930 . S
C314 C312 1.392 . S
C314 C315 1.391 . S
C314 H329 0.930 . S
C315 C314 1.391 . S
C315 C317 1.387 . S
C316 C313 1.398 . S
C316 C317 1.380 . S
C316 H330 0.930 . S
C317 C315 1.387 . S
C317 C316 1.380 . S
C317 H331 0.930 . S
C318 O298 1.254 . S
C318 O299 1.268 . S
C319 O303 1.284 . S
C319 O306 1.250 . S
C320 Gd253 2.828 . S
C320 O302 1.258 . S
C320 O307 1.252 . S
C320 C321 1.497 . S
C321 C320 1.497 . S
C321 C322 1.395 . S
C321 C323 1.380 . S
C322 C321 1.395 . S
C322 C325 1.398 . S
C322 H332 0.930 . S
C323 C321 1.380 . S
C323 C324 1.391 . S
C323 H333 0.930 . S
C324 C323 1.391 . S
C324 C326 1.387 . S
C325 C322 1.398 . S
C325 C326 1.380 . S
C325 H334 0.930 . S
C326 C324 1.387 . S
C326 C325 1.380 . S
C326 H335 0.930 . S
C327 O304 1.254 . S
C327 O305 1.268 . S
H328 C313 0.930 . S
H329 C314 0.930 . S
H330 C316 0.930 . S
H331 C317 0.930 . S
H332 C322 0.930 . S
H333 C323 0.930 . S
H334 C325 0.930 . S
H335 C326 0.930 . S
Gd336 N367 2.661 . S
Gd336 N373 2.601 . S
Gd336 O380 2.545 . S
Gd336 O381 2.606 . S
Gd336 O383 2.429 . S
Gd336 O384 2.545 . S
Gd336 O385 2.412 . S
Gd336 O387 2.362 . S
Gd336 O388 2.324 . S
Gd336 C395 2.828 . S
Gd337 N346 2.661 . S
Gd337 N350 2.601 . S
Gd337 O381 2.362 . S
Gd337 O382 2.324 . S
Gd337 O386 2.545 . S
Gd337 O387 2.606 . S
Gd337 O389 2.429 . S
Gd337 O390 2.545 . S
Gd337 O391 2.412 . S
Gd337 C404 2.828 . S
C338 C341 1.417 . S
C338 C343 1.431 . S
C338 C344 1.412 . S
C339 C342 1.437 . S
C339 C343 1.317 . S
C339 H358 0.929 . S
C340 C341 1.426 . S
C340 C342 1.413 . S
C340 N350 1.359 . S
C341 C338 1.417 . S
C341 C340 1.426 . S
C341 N346 1.350 . S
C342 C339 1.437 . S
C342 C340 1.413 . S
C342 C352 1.391 . S
C343 C338 1.431 . S
C343 C339 1.317 . S
C343 H354 0.930 . S
C344 C338 1.412 . S
C344 C345 1.355 . S
C344 H356 0.930 . S
C345 C344 1.355 . S
C345 C347 1.402 . S
C345 H357 0.930 . S
N346 Gd337 2.661 . S
N346 C341 1.350 . S
N346 C347 1.307 . S
C347 C345 1.402 . S
C347 N346 1.307 . S
C347 H348 0.930 . S
H348 C347 0.930 . S
C349 N350 1.334 . S
C349 C351 1.394 . S
C349 H353 0.930 . S
N350 Gd337 2.601 . S
N350 C340 1.359 . S
N350 C349 1.334 . S
C351 C349 1.394 . S
C351 C352 1.359 . S
C351 H363 0.930 . S
C352 C342 1.391 . S
C352 C351 1.359 . S
C352 H364 0.929 . S
H353 C349 0.930 . S
H354 C343 0.930 . S
H355 C372 0.930 . S
H356 C344 0.930 . S
H357 C345 0.930 . S
H358 C339 0.929 . S
H359 C377 0.930 . S
H360 C368 0.930 . S
H361 C369 0.930 . S
H362 C393 0.929 . S
H363 C351 0.930 . S
H364 C352 0.929 . S
H365 C394 0.930 . S
H366 C375 0.930 . S
N367 Gd336 2.661 . S
N367 C371 1.350 . S
N367 C372 1.307 . S
C368 H360 0.930 . S
C368 C369 1.355 . S
C368 C370 1.412 . S
C369 H361 0.930 . S
C369 C368 1.355 . S
C369 C372 1.402 . S
C370 C368 1.412 . S
C370 C371 1.417 . S
C370 C394 1.431 . S
C371 N367 1.350 . S
C371 C370 1.417 . S
C371 C374 1.426 . S
C372 H355 0.930 . S
C372 N367 1.307 . S
C372 C369 1.402 . S
N373 Gd336 2.601 . S
N373 C374 1.359 . S
N373 C377 1.334 . S
C374 C371 1.426 . S
C374 N373 1.359 . S
C374 C378 1.413 . S
C375 H366 0.930 . S
C375 C376 1.359 . S
C375 C377 1.394 . S
C376 C375 1.359 . S
C376 C378 1.391 . S
C376 H379 0.929 . S
C377 H359 0.930 . S
C377 N373 1.334 . S
C377 C375 1.394 . S
C378 C374 1.413 . S
C378 C376 1.391 . S
C378 C393 1.437 . S
H379 C376 0.929 . S
O380 Gd336 2.545 . S
O380 C395 1.258 . S
O381 Gd336 2.606 . S
O381 Gd337 2.362 . S
O381 C392 1.284 . S
O382 Gd337 2.324 . S
O382 C402 1.254 . S
O383 Gd336 2.429 . S
O383 C402 1.268 . S
O384 Gd336 2.545 . S
O384 C392 1.250 . S
O385 Gd336 2.412 . S
O385 C395 1.252 . S
O386 Gd337 2.545 . S
O386 C404 1.258 . S
O387 Gd336 2.362 . S
O387 Gd337 2.606 . S
O387 C403 1.284 . S
O388 Gd336 2.324 . S
O388 C411 1.254 . S
O389 Gd337 2.429 . S
O389 C411 1.268 . S
O390 Gd337 2.545 . S
O390 C403 1.250 . S
O391 Gd337 2.412 . S
O391 C404 1.252 . S
C392 O381 1.284 . S
C392 O384 1.250 . S
C393 H362 0.929 . S
C393 C378 1.437 . S
C393 C394 1.317 . S
C394 H365 0.930 . S
C394 C370 1.431 . S
C394 C393 1.317 . S
C395 Gd336 2.828 . S
C395 O380 1.258 . S
C395 O385 1.252 . S
C395 C396 1.497 . S
C396 C395 1.497 . S
C396 C397 1.395 . S
C396 C398 1.380 . S
C397 C396 1.395 . S
C397 C400 1.398 . S
C397 H412 0.930 . S
C398 C396 1.380 . S
C398 C399 1.391 . S
C398 H413 0.930 . S
C399 C398 1.391 . S
C399 C401 1.387 . S
C400 C397 1.398 . S
C400 C401 1.380 . S
C400 H414 0.930 . S
C401 C399 1.387 . S
C401 C400 1.380 . S
C401 H415 0.930 . S
C402 O382 1.254 . S
C402 O383 1.268 . S
C403 O387 1.284 . S
C403 O390 1.250 . S
C404 Gd337 2.828 . S
C404 O386 1.258 . S
C404 O391 1.252 . S
C404 C405 1.498 1_554 S
C405 C404 1.498 1_556 S
C405 C406 1.394 . S
C405 C407 1.380 . S
C406 C405 1.394 . S
C406 C409 1.398 . S
C406 H416 0.930 . S
C407 C405 1.380 . S
C407 C408 1.391 . S
C407 H417 0.930 . S
C408 C407 1.391 . S
C408 C410 1.387 . S
C409 C406 1.398 . S
C409 C410 1.380 . S
C409 H418 0.930 . S
C410 C408 1.387 . S
C410 C409 1.380 . S
C410 H419 0.930 . S
C411 O388 1.254 . S
C411 O389 1.268 . S
H412 C397 0.930 . S
H413 C398 0.930 . S
H414 C400 0.930 . S
H415 C401 0.930 . S
H416 C406 0.930 . S
H417 C407 0.930 . S
H418 C409 0.930 . S
H419 C410 0.930 . S
Gd420 N451 2.661 . S
Gd420 N457 2.601 . S
Gd420 O464 2.545 . S
Gd420 O465 2.606 . S
Gd420 O467 2.429 . S
Gd420 O468 2.545 . S
Gd420 O469 2.412 . S
Gd420 O471 2.362 . S
Gd420 O472 2.324 . S
Gd420 C479 2.828 . S
Gd421 N430 2.661 . S
Gd421 N434 2.601 . S
Gd421 O465 2.362 . S
Gd421 O466 2.324 . S
Gd421 O470 2.545 . S
Gd421 O471 2.606 . S
Gd421 O473 2.429 . S
Gd421 O474 2.545 . S
Gd421 O475 2.412 . S
Gd421 C488 2.828 . S
C422 C425 1.417 . S
C422 C427 1.431 . S
C422 C428 1.412 . S
C423 C426 1.437 . S
C423 C427 1.317 . S
C423 H442 0.929 . S
C424 C425 1.426 . S
C424 C426 1.413 . S
C424 N434 1.359 . S
C425 C422 1.417 . S
C425 C424 1.426 . S
C425 N430 1.350 . S
C426 C423 1.437 . S
C426 C424 1.413 . S
C426 C436 1.391 . S
C427 C422 1.431 . S
C427 C423 1.317 . S
C427 H438 0.930 . S
C428 C422 1.412 . S
C428 C429 1.355 . S
C428 H440 0.930 . S
C429 C428 1.355 . S
C429 C431 1.402 . S
C429 H441 0.930 . S
N430 Gd421 2.661 . S
N430 C425 1.350 . S
N430 C431 1.307 . S
C431 C429 1.402 . S
C431 N430 1.307 . S
C431 H432 0.930 . S
H432 C431 0.930 . S
C433 N434 1.334 . S
C433 C435 1.394 . S
C433 H437 0.930 . S
N434 Gd421 2.601 . S
N434 C424 1.359 . S
N434 C433 1.334 . S
C435 C433 1.394 . S
C435 C436 1.359 . S
C435 H447 0.930 . S
C436 C426 1.391 . S
C436 C435 1.359 . S
C436 H448 0.929 . S
H437 C433 0.930 . S
H438 C427 0.930 . S
H439 C456 0.930 . S
H440 C428 0.930 . S
H441 C429 0.930 . S
H442 C423 0.929 . S
H443 C461 0.930 . S
H444 C452 0.930 . S
H445 C453 0.930 . S
H446 C477 0.929 . S
H447 C435 0.930 . S
H448 C436 0.929 . S
H449 C478 0.930 . S
H450 C459 0.930 . S
N451 Gd420 2.661 . S
N451 C455 1.350 . S
N451 C456 1.307 . S
C452 H444 0.930 . S
C452 C453 1.355 . S
C452 C454 1.412 . S
C453 H445 0.930 . S
C453 C452 1.355 . S
C453 C456 1.402 . S
C454 C452 1.412 . S
C454 C455 1.417 . S
C454 C478 1.431 . S
C455 N451 1.350 . S
C455 C454 1.417 . S
C455 C458 1.426 . S
C456 H439 0.930 . S
C456 N451 1.307 . S
C456 C453 1.402 . S
N457 Gd420 2.601 . S
N457 C458 1.359 . S
N457 C461 1.334 . S
C458 C455 1.426 . S
C458 N457 1.359 . S
C458 C462 1.413 . S
C459 H450 0.930 . S
C459 C460 1.359 . S
C459 C461 1.394 . S
C460 C459 1.359 . S
C460 C462 1.391 . S
C460 H463 0.929 . S
C461 H443 0.930 . S
C461 N457 1.334 . S
C461 C459 1.394 . S
C462 C458 1.413 . S
C462 C460 1.391 . S
C462 C477 1.437 . S
H463 C460 0.929 . S
O464 Gd420 2.545 . S
O464 C479 1.258 . S
O465 Gd420 2.606 . S
O465 Gd421 2.362 . S
O465 C476 1.284 . S
O466 Gd421 2.324 . S
O466 C486 1.254 . S
O467 Gd420 2.429 . S
O467 C486 1.268 . S
O468 Gd420 2.545 . S
O468 C476 1.250 . S
O469 Gd420 2.412 . S
O469 C479 1.252 . S
O470 Gd421 2.545 . S
O470 C488 1.258 . S
O471 Gd420 2.362 . S
O471 Gd421 2.606 . S
O471 C487 1.284 . S
O472 Gd420 2.324 . S
O472 C495 1.254 . S
O473 Gd421 2.429 . S
O473 C495 1.268 . S
O474 Gd421 2.545 . S
O474 C487 1.250 . S
O475 Gd421 2.412 . S
O475 C488 1.252 . S
C476 O465 1.284 . S
C476 O468 1.250 . S
C477 H446 0.929 . S
C477 C462 1.437 . S
C477 C478 1.317 . S
C478 H449 0.930 . S
C478 C454 1.431 . S
C478 C477 1.317 . S
C479 Gd420 2.828 . S
C479 O464 1.258 . S
C479 O469 1.252 . S
C479 C480 1.497 . S
C480 C479 1.497 . S
C480 C481 1.395 . S
C480 C482 1.380 . S
C481 C480 1.395 . S
C481 C484 1.398 . S
C481 H496 0.930 . S
C482 C480 1.380 . S
C482 C483 1.391 . S
C482 H497 0.930 . S
C483 C482 1.391 . S
C483 C485 1.387 . S
C484 C481 1.398 . S
C484 C485 1.380 . S
C484 H498 0.930 . S
C485 C483 1.387 . S
C485 C484 1.380 . S
C485 H499 0.930 . S
C486 O466 1.254 . S
C486 O467 1.268 . S
C487 O471 1.284 . S
C487 O474 1.250 . S
C488 Gd421 2.828 . S
C488 O470 1.258 . S
C488 O475 1.252 . S
C488 C489 1.477 1_556 S
C489 C488 1.477 1_554 S
C489 C490 1.403 . S
C489 C491 1.392 . S
C490 C489 1.403 . S
C490 C493 1.398 . S
C490 H500 0.930 . S
C491 C489 1.392 . S
C491 C492 1.391 . S
C491 H501 0.930 . S
C492 C491 1.391 . S
C492 C494 1.387 . S
C493 C490 1.398 . S
C493 C494 1.380 . S
C493 H502 0.930 . S
C494 C492 1.387 . S
C494 C493 1.380 . S
C494 H503 0.930 . S
C495 O472 1.254 . S
C495 O473 1.268 . S
H496 C481 0.930 . S
H497 C482 0.930 . S
H498 C484 0.930 . S
H499 C485 0.930 . S
H500 C490 0.930 . S
H501 C491 0.930 . S
H502 C493 0.930 . S
H503 C494 0.930 . S
Gd504 N535 2.661 . S
Gd504 N541 2.601 . S
Gd504 O548 2.545 . S
Gd504 O549 2.606 . S
Gd504 O551 2.429 . S
Gd504 O552 2.545 . S
Gd504 O553 2.412 . S
Gd504 O555 2.362 1_554 S
Gd504 O556 2.324 . S
Gd504 C563 2.828 . S
Gd505 N514 2.661 . S
Gd505 N518 2.601 . S
Gd505 O549 2.362 1_556 S
Gd505 O550 2.324 . S
Gd505 O554 2.545 . S
Gd505 O555 2.606 . S
Gd505 O557 2.429 . S
Gd505 O558 2.545 . S
Gd505 O559 2.412 . S
Gd505 C572 2.828 . S
C506 C509 1.417 . S
C506 C511 1.431 . S
C506 C512 1.412 . S
C507 C510 1.437 . S
C507 C511 1.317 . S
C507 H526 0.929 . S
C508 C509 1.426 . S
C508 C510 1.413 . S
C508 N518 1.359 . S
C509 C506 1.417 . S
C509 C508 1.426 . S
C509 N514 1.350 . S
C510 C507 1.437 . S
C510 C508 1.413 . S
C510 C520 1.391 . S
C511 C506 1.431 . S
C511 C507 1.317 . S
C511 H522 0.930 . S
C512 C506 1.412 . S
C512 C513 1.355 . S
C512 H524 0.930 . S
C513 C512 1.355 . S
C513 C515 1.402 . S
C513 H525 0.930 . S
N514 Gd505 2.661 . S
N514 C509 1.350 . S
N514 C515 1.307 . S
C515 C513 1.402 . S
C515 N514 1.307 . S
C515 H516 0.930 . S
H516 C515 0.930 . S
C517 N518 1.334 . S
C517 C519 1.394 . S
C517 H521 0.930 . S
N518 Gd505 2.601 . S
N518 C508 1.359 . S
N518 C517 1.334 . S
C519 C517 1.394 . S
C519 C520 1.359 . S
C519 H531 0.930 . S
C520 C510 1.391 . S
C520 C519 1.359 . S
C520 H532 0.929 . S
H521 C517 0.930 . S
H522 C511 0.930 . S
H523 C540 0.930 . S
H524 C512 0.930 . S
H525 C513 0.930 . S
H526 C507 0.929 . S
H527 C545 0.930 . S
H528 C536 0.930 . S
H529 C537 0.930 . S
H530 C561 0.929 . S
H531 C519 0.930 . S
H532 C520 0.929 . S
H533 C562 0.930 . S
H534 C543 0.930 . S
N535 Gd504 2.661 . S
N535 C539 1.350 . S
N535 C540 1.307 . S
C536 H528 0.930 . S
C536 C537 1.355 . S
C536 C538 1.412 . S
C537 H529 0.930 . S
C537 C536 1.355 . S
C537 C540 1.402 . S
C538 C536 1.412 . S
C538 C539 1.417 . S
C538 C562 1.431 . S
C539 N535 1.350 . S
C539 C538 1.417 . S
C539 C542 1.426 . S
C540 H523 0.930 . S
C540 N535 1.307 . S
C540 C537 1.402 . S
N541 Gd504 2.601 . S
N541 C542 1.359 . S
N541 C545 1.334 . S
C542 C539 1.426 . S
C542 N541 1.359 . S
C542 C546 1.413 . S
C543 H534 0.930 . S
C543 C544 1.359 . S
C543 C545 1.394 . S
C544 C543 1.359 . S
C544 C546 1.391 . S
C544 H547 0.929 . S
C545 H527 0.930 . S
C545 N541 1.334 . S
C545 C543 1.394 . S
C546 C542 1.413 . S
C546 C544 1.391 . S
C546 C561 1.437 . S
H547 C544 0.929 . S
O548 Gd504 2.545 . S
O548 C563 1.258 . S
O549 Gd504 2.606 . S
O549 Gd505 2.362 1_554 S
O549 C560 1.284 . S
O550 Gd505 2.324 . S
O550 C570 1.254 . S
O551 Gd504 2.429 . S
O551 C570 1.268 1_554 S
O552 Gd504 2.545 . S
O552 C560 1.250 . S
O553 Gd504 2.412 . S
O553 C563 1.252 . S
O554 Gd505 2.545 . S
O554 C572 1.258 . S
O555 Gd504 2.362 1_556 S
O555 Gd505 2.606 . S
O555 C571 1.284 . S
O556 Gd504 2.324 . S
O556 C579 1.254 . S
O557 Gd505 2.429 . S
O557 C579 1.268 1_556 S
O558 Gd505 2.545 . S
O558 C571 1.250 . S
O559 Gd505 2.412 . S
O559 C572 1.252 . S
C560 O549 1.284 . S
C560 O552 1.250 . S
C561 H530 0.929 . S
C561 C546 1.437 . S
C561 C562 1.317 . S
C562 H533 0.930 . S
C562 C538 1.431 . S
C562 C561 1.317 . S
C563 Gd504 2.828 . S
C563 O548 1.258 . S
C563 O553 1.252 . S
C563 C564 1.497 . S
C564 C563 1.497 . S
C564 C565 1.395 . S
C564 C566 1.380 . S
C565 C564 1.395 . S
C565 C568 1.398 . S
C565 H580 0.930 . S
C566 C564 1.380 . S
C566 C567 1.391 . S
C566 H581 0.930 . S
C567 C566 1.391 . S
C567 C569 1.387 . S
C568 C565 1.398 . S
C568 C569 1.380 . S
C568 H582 0.930 . S
C569 C567 1.387 . S
C569 C568 1.380 . S
C569 H583 0.930 . S
C570 O550 1.254 . S
C570 O551 1.268 1_556 S
C571 O555 1.284 . S
C571 O558 1.250 . S
C572 Gd505 2.828 . S
C572 O554 1.258 . S
C572 O559 1.252 . S
C572 C573 1.497 . S
C573 C572 1.497 . S
C573 C574 1.395 . S
C573 C575 1.380 . S
C574 C573 1.395 . S
C574 C577 1.398 . S
C574 H584 0.930 . S
C575 C573 1.380 . S
C575 C576 1.391 . S
C575 H585 0.930 . S
C576 C575 1.391 . S
C576 C578 1.387 . S
C577 C574 1.398 . S
C577 C578 1.380 . S
C577 H586 0.930 . S
C578 C576 1.387 . S
C578 C577 1.380 . S
C578 H587 0.930 . S
C579 O556 1.254 . S
C579 O557 1.268 1_554 S
H580 C565 0.930 . S
H581 C566 0.930 . S
H582 C568 0.930 . S
H583 C569 0.930 . S
H584 C574 0.930 . S
H585 C575 0.930 . S
H586 C577 0.930 . S
H587 C578 0.930 . S
Gd588 N619 2.654 1_455 S
Gd588 N625 2.601 1_455 S
Gd588 O632 2.548 . S
Gd588 O633 2.608 . S
Gd588 O635 2.434 . S
Gd588 O636 2.549 . S
Gd588 O637 2.411 1_455 S
Gd588 O639 2.359 1_455 S
Gd588 O640 2.319 1_455 S
Gd588 C647 2.829 . S
Gd589 N598 2.660 1_655 S
Gd589 N602 2.601 1_655 S
Gd589 O633 2.362 1_655 S
Gd589 O634 2.324 1_655 S
Gd589 O638 2.545 . S
Gd589 O639 2.606 . S
Gd589 O641 2.429 . S
Gd589 O642 2.545 . S
Gd589 O643 2.412 1_655 S
Gd589 C656 2.828 . S
C590 C593 1.417 . S
C590 C595 1.431 . S
C590 C596 1.412 . S
C591 C594 1.437 . S
C591 C595 1.317 . S
C591 H610 0.929 . S
C592 C593 1.426 . S
C592 C594 1.413 . S
C592 N602 1.359 . S
C593 C590 1.417 . S
C593 C592 1.426 . S
C593 N598 1.350 . S
C594 C591 1.437 . S
C594 C592 1.413 . S
C594 C604 1.391 . S
C595 C590 1.431 . S
C595 C591 1.317 . S
C595 H606 0.930 . S
C596 C590 1.412 . S
C596 C597 1.355 . S
C596 H608 0.930 . S
C597 C596 1.355 . S
C597 C599 1.402 . S
C597 H609 0.930 . S
N598 Gd589 2.660 1_455 S
N598 C593 1.350 . S
N598 C599 1.307 . S
C599 C597 1.402 . S
C599 N598 1.307 . S
C599 H600 0.930 . S
H600 C599 0.930 . S
C601 N602 1.334 1_655 S
C601 C603 1.394 . S
C601 H605 0.930 . S
N602 Gd589 2.601 1_455 S
N602 C592 1.359 . S
N602 C601 1.334 1_455 S
C603 C601 1.394 . S
C603 C604 1.359 1_655 S
C603 H615 0.930 . S
C604 C594 1.391 . S
C604 C603 1.359 1_455 S
C604 H616 0.930 . S
H605 C601 0.930 . S
H606 C595 0.930 . S
H607 C624 0.930 . S
H608 C596 0.930 . S
H609 C597 0.930 . S
H610 C591 0.929 . S
H611 C629 0.930 . S
H612 C620 0.930 . S
H613 C621 0.930 . S
H614 C645 0.929 . S
H615 C603 0.930 . S
H616 C604 0.930 . S
H617 C646 0.930 . S
H618 C627 0.930 . S
N619 Gd588 2.654 1_655 S
N619 C623 1.350 . S
N619 C624 1.307 . S
C620 H612 0.930 . S
C620 C621 1.355 . S
C620 C622 1.412 . S
C621 H613 0.930 . S
C621 C620 1.355 . S
C621 C624 1.402 . S
C622 C620 1.412 . S
C622 C623 1.417 . S
C622 C646 1.431 . S
C623 N619 1.350 . S
C623 C622 1.417 . S
C623 C626 1.426 . S
C624 H607 0.930 . S
C624 N619 1.307 . S
C624 C621 1.402 . S
N625 Gd588 2.601 1_655 S
N625 C626 1.359 . S
N625 C629 1.334 1_655 S
C626 C623 1.426 . S
C626 N625 1.359 . S
C626 C630 1.413 . S
C627 H618 0.930 . S
C627 C628 1.334 1_455 S
C627 C629 1.394 . S
C628 C627 1.334 1_655 S
C628 C630 1.417 . S
C628 H631 0.929 . S
C629 H611 0.930 . S
C629 N625 1.334 1_455 S
C629 C627 1.394 . S
C630 C626 1.413 . S
C630 C628 1.417 . S
C630 C645 1.437 . S
H631 C628 0.929 . S
O632 Gd588 2.548 . S
O632 C647 1.258 . S
O633 Gd588 2.608 . S
O633 Gd589 2.362 1_455 S
O633 C644 1.284 . S
O634 Gd589 2.324 1_455 S
O634 C654 1.254 . S
O635 Gd588 2.434 . S
O635 C654 1.268 . S
O636 Gd588 2.549 . S
O636 C644 1.250 . S
O637 Gd588 2.411 1_655 S
O637 C647 1.252 1_655 S
O638 Gd589 2.545 . S
O638 C656 1.258 . S
O639 Gd588 2.359 1_655 S
O639 Gd589 2.606 . S
O639 C655 1.284 . S
O640 Gd588 2.319 1_655 S
O640 C663 1.254 . S
O641 Gd589 2.429 . S
O641 C663 1.268 . S
O642 Gd589 2.545 . S
O642 C655 1.250 . S
O643 Gd589 2.412 1_455 S
O643 C656 1.252 1_455 S
C644 O633 1.284 . S
C644 O636 1.250 . S
C645 H614 0.929 . S
C645 C630 1.437 . S
C645 C646 1.317 . S
C646 H617 0.930 . S
C646 C622 1.431 . S
C646 C645 1.317 . S
C647 Gd588 2.829 . S
C647 O632 1.258 . S
C647 O637 1.252 1_455 S
C647 C648 1.497 . S
C648 C647 1.497 . S
C648 C649 1.395 . S
C648 C650 1.380 . S
C649 C648 1.395 . S
C649 C652 1.398 . S
C649 H664 0.930 . S
C650 C648 1.380 . S
C650 C651 1.391 . S
C650 H665 0.930 1_455 S
C651 C650 1.391 . S
C651 C653 1.387 . S
C652 C649 1.398 . S
C652 C653 1.380 . S
C652 H666 0.930 . S
C653 C651 1.387 . S
C653 C652 1.380 . S
C653 H667 0.930 . S
C654 O634 1.254 . S
C654 O635 1.268 . S
C655 O639 1.284 . S
C655 O642 1.250 . S
C656 Gd589 2.828 . S
C656 O638 1.258 . S
C656 O643 1.252 1_655 S
C656 C657 1.497 . S
C657 C656 1.497 . S
C657 C658 1.395 . S
C657 C659 1.380 . S
C658 C657 1.395 . S
C658 C661 1.398 . S
C658 H668 0.930 . S
C659 C657 1.380 . S
C659 C660 1.391 . S
C659 H669 0.930 1_655 S
C660 C659 1.391 . S
C660 C662 1.387 . S
C661 C658 1.398 . S
C661 C662 1.380 . S
C661 H670 0.930 . S
C662 C660 1.387 . S
C662 C661 1.380 . S
C662 H671 0.930 . S
C663 O640 1.254 . S
C663 O641 1.268 . S
H664 C649 0.930 . S
H665 C650 0.930 1_655 S
H666 C652 0.930 . S
H667 C653 0.930 . S
H668 C658 0.930 . S
H669 C659 0.930 1_455 S
H670 C661 0.930 . S
H671 C662 0.930 . S
H672 C678 0.930 . S
H673 C681 0.930 . S
H674 C682 0.930 . S
H675 C683 0.930 . S
H676 C686 0.930 . S
H677 C687 0.930 . S
C678 H672 0.930 . S
C678 C679 1.355 . S
C678 C680 1.415 . S
C679 C678 1.355 . S
C679 C681 1.419 . S
C680 C678 1.415 . S
C680 C685 1.425 . S
C680 C687 1.409 . S
C681 H673 0.930 . S
C681 C679 1.419 . S
C681 C682 1.362 . S
C682 H674 0.930 . S
C682 C681 1.362 . S
C682 C685 1.409 . S
C683 H675 0.930 . S
C683 C684 1.355 . S
C683 C685 1.415 . S
C684 C683 1.355 . S
C684 C686 1.419 . S
C685 C680 1.425 . S
C685 C682 1.409 . S
C685 C683 1.415 . S
C686 H676 0.930 . S
C686 C684 1.419 . S
C686 C687 1.362 . S
C687 H677 0.930 . S
C687 C680 1.409 . S
C687 C686 1.362 . S
H688 C694 0.930 . S
H689 C697 0.930 . S
H690 C698 0.930 . S
H691 C699 0.930 . S
H692 C702 0.930 . S
H693 C703 0.930 . S
C694 H688 0.930 . S
C694 C695 1.355 . S
C694 C696 1.415 . S
C695 C694 1.355 . S
C695 C697 1.419 . S
C696 C694 1.415 . S
C696 C701 1.425 . S
C696 C703 1.409 . S
C697 H689 0.930 . S
C697 C695 1.419 . S
C697 C698 1.362 . S
C698 H690 0.930 . S
C698 C697 1.362 . S
C698 C701 1.409 . S
C699 H691 0.930 . S
C699 C700 1.355 . S
C699 C701 1.415 . S
C700 C699 1.355 . S
C700 C702 1.419 . S
C701 C696 1.425 . S
C701 C698 1.409 . S
C701 C699 1.415 . S
C702 H692 0.930 . S
C702 C700 1.419 . S
C702 C703 1.362 . S
C703 H693 0.930 . S
C703 C696 1.409 . S
C703 C702 1.362 . S
H704 C710 0.930 . S
H705 C713 0.930 . S
H706 C714 0.930 . S
H707 C715 0.930 . S
H708 C718 0.930 . S
H709 C719 0.930 . S
C710 H704 0.930 . S
C710 C711 1.355 . S
C710 C712 1.415 . S
C711 C710 1.355 . S
C711 C713 1.419 . S
C712 C710 1.415 . S
C712 C717 1.425 . S
C712 C719 1.409 . S
C713 H705 0.930 . S
C713 C711 1.419 . S
C713 C714 1.362 . S
C714 H706 0.930 . S
C714 C713 1.362 . S
C714 C717 1.409 . S
C715 H707 0.930 . S
C715 C716 1.355 . S
C715 C717 1.415 . S
C716 C715 1.355 . S
C716 C718 1.419 . S
C717 C712 1.425 . S
C717 C714 1.409 . S
C717 C715 1.415 . S
C718 H708 0.930 . S
C718 C716 1.419 . S
C718 C719 1.362 . S
C719 H709 0.930 . S
C719 C712 1.409 . S
C719 C718 1.362 . S
H720 C726 0.930 . S
H721 C729 0.930 . S
H722 C730 0.930 . S
H723 C731 0.930 . S
H724 C734 0.930 . S
H725 C735 0.930 . S
C726 H720 0.930 . S
C726 C727 1.355 . S
C726 C728 1.415 . S
C727 C726 1.355 . S
C727 C729 1.419 . S
C728 C726 1.415 . S
C728 C733 1.425 . S
C728 C735 1.409 . S
C729 H721 0.930 . S
C729 C727 1.419 . S
C729 C730 1.362 . S
C730 H722 0.930 . S
C730 C729 1.362 . S
C730 C733 1.409 . S
C731 H723 0.930 . S
C731 C732 1.355 . S
C731 C733 1.415 . S
C732 C731 1.355 . S
C732 C734 1.419 . S
C733 C728 1.425 . S
C733 C730 1.409 . S
C733 C731 1.415 . S
C734 H724 0.930 . S
C734 C732 1.419 . S
C734 C735 1.362 . S
C735 H725 0.930 . S
C735 C728 1.409 . S
C735 C734 1.362 . S
H736 C742 0.930 . S
H737 C745 0.930 . S
H738 C746 0.930 . S
H739 C747 0.930 . S
H740 C750 0.930 . S
H741 C751 0.930 . S
C742 H736 0.930 . S
C742 C743 1.355 . S
C742 C744 1.415 . S
C743 C742 1.355 . S
C743 C745 1.419 . S
C744 C742 1.415 . S
C744 C749 1.425 . S
C744 C751 1.409 . S
C745 H737 0.930 . S
C745 C743 1.419 . S
C745 C746 1.362 . S
C746 H738 0.930 . S
C746 C745 1.362 . S
C746 C749 1.409 . S
C747 H739 0.930 . S
C747 C748 1.355 . S
C747 C749 1.415 . S
C748 C747 1.355 . S
C748 C750 1.419 . S
C749 C744 1.425 . S
C749 C746 1.409 . S
C749 C747 1.415 . S
C750 H740 0.930 . S
C750 C748 1.419 . S
C750 C751 1.362 . S
C751 H741 0.930 . S
C751 C744 1.409 . S
C751 C750 1.362 . S
H752 C758 0.930 . S
H753 C761 0.930 . S
H754 C762 0.930 . S
H755 C763 0.930 . S
H756 C766 0.930 . S
H757 C767 0.930 . S
C758 H752 0.930 . S
C758 C759 1.355 . S
C758 C760 1.415 . S
C759 C758 1.355 . S
C759 C761 1.419 . S
C760 C758 1.415 . S
C760 C765 1.425 . S
C760 C767 1.409 . S
C761 H753 0.930 . S
C761 C759 1.419 . S
C761 C762 1.362 . S
C762 H754 0.930 . S
C762 C761 1.362 . S
C762 C765 1.409 . S
C763 H755 0.930 . S
C763 C764 1.355 . S
C763 C765 1.415 . S
C764 C763 1.355 . S
C764 C766 1.419 . S
C765 C760 1.425 . S
C765 C762 1.409 . S
C765 C763 1.415 . S
C766 H756 0.930 . S
C766 C764 1.419 . S
C766 C767 1.362 . S
C767 H757 0.930 . S
C767 C760 1.409 . S
C767 C766 1.362 . S
H768 C774 0.930 . S
H769 C777 0.930 . S
H770 C778 0.930 . S
H771 C779 0.930 . S
H772 C782 0.930 . S
H773 C783 0.930 . S
C774 H768 0.930 . S
C774 C775 1.355 . S
C774 C776 1.415 . S
C775 C774 1.355 . S
C775 C777 1.419 . S
C776 C774 1.415 . S
C776 C781 1.425 . S
C776 C783 1.409 . S
C777 H769 0.930 . S
C777 C775 1.419 . S
C777 C778 1.362 . S
C778 H770 0.930 . S
C778 C777 1.362 . S
C778 C781 1.409 . S
C779 H771 0.930 . S
C779 C780 1.355 . S
C779 C781 1.415 . S
C780 C779 1.355 . S
C780 C782 1.419 . S
C781 C776 1.425 . S
C781 C778 1.409 . S
C781 C779 1.415 . S
C782 H772 0.930 . S
C782 C780 1.419 . S
C782 C783 1.362 . S
C783 H773 0.930 . S
C783 C776 1.409 . S
C783 C782 1.362 . S
H784 C790 0.930 . S
H785 C793 0.930 . S
H786 C794 0.930 . S
H787 C795 0.930 . S
H788 C798 0.930 . S
H789 C799 0.930 . S
C790 H784 0.930 . S
C790 C791 1.355 . S
C790 C792 1.415 . S
C791 C790 1.355 . S
C791 C793 1.419 . S
C792 C790 1.415 . S
C792 C797 1.425 . S
C792 C799 1.409 . S
C793 H785 0.930 . S
C793 C791 1.419 . S
C793 C794 1.362 . S
C794 H786 0.930 . S
C794 C793 1.362 . S
C794 C797 1.409 . S
C795 H787 0.930 . S
C795 C796 1.355 . S
C795 C797 1.415 . S
C796 C795 1.355 . S
C796 C798 1.419 . S
C797 C792 1.425 . S
C797 C794 1.409 . S
C797 C795 1.415 . S
C798 H788 0.930 . S
C798 C796 1.419 . S
C798 C799 1.362 . S
C799 H789 0.930 . S
C799 C792 1.409 . S
C799 C798 1.362 . S
H800 C806 0.930 . S
H801 C809 0.930 . S
H802 C810 0.930 . S
H803 C811 0.930 . S
H804 C814 0.930 . S
H805 C815 0.930 . S
C806 H800 0.930 . S
C806 C807 1.355 . S
C806 C808 1.415 . S
C807 C806 1.355 . S
C807 C809 1.419 . S
C808 C806 1.415 . S
C808 C813 1.425 . S
C808 C815 1.409 . S
C809 H801 0.930 . S
C809 C807 1.419 . S
C809 C810 1.362 . S
C810 H802 0.930 . S
C810 C809 1.362 . S
C810 C813 1.409 . S
C811 H803 0.930 . S
C811 C812 1.355 . S
C811 C813 1.415 . S
C812 C811 1.355 . S
C812 C814 1.419 . S
C813 C808 1.425 . S
C813 C810 1.409 . S
C813 C811 1.415 . S
C814 H804 0.930 . S
C814 C812 1.419 . S
C814 C815 1.362 . S
C815 H805 0.930 . S
C815 C808 1.409 . S
C815 C814 1.362 . S
H816 C822 0.930 . S
H817 C825 0.930 . S
H818 C826 0.930 . S
H819 C827 0.930 . S
H820 C830 0.930 . S
H821 C831 0.930 . S
C822 H816 0.930 . S
C822 C823 1.355 . S
C822 C824 1.415 . S
C823 C822 1.355 . S
C823 C825 1.419 . S
C824 C822 1.415 . S
C824 C829 1.425 . S
C824 C831 1.409 . S
C825 H817 0.930 . S
C825 C823 1.419 . S
C825 C826 1.362 . S
C826 H818 0.930 . S
C826 C825 1.362 . S
C826 C829 1.409 . S
C827 H819 0.930 . S
C827 C828 1.355 . S
C827 C829 1.415 . S
C828 C827 1.355 . S
C828 C830 1.419 . S
C829 C824 1.425 . S
C829 C826 1.409 . S
C829 C827 1.415 . S
C830 H820 0.930 . S
C830 C828 1.419 . S
C830 C831 1.362 . S
C831 H821 0.930 . S
C831 C824 1.409 . S
C831 C830 1.362 . S
H832 C838 0.930 . S
H833 C841 0.930 . S
H834 C842 0.930 . S
H835 C843 0.930 . S
H836 C846 0.930 . S
H837 C847 0.930 . S
C838 H832 0.930 . S
C838 C839 1.355 . S
C838 C840 1.415 . S
C839 C838 1.355 . S
C839 C841 1.419 . S
C840 C838 1.415 . S
C840 C845 1.425 . S
C840 C847 1.409 . S
C841 H833 0.930 . S
C841 C839 1.419 . S
C841 C842 1.362 . S
C842 H834 0.930 . S
C842 C841 1.362 . S
C842 C845 1.409 . S
C843 H835 0.930 . S
C843 C844 1.355 . S
C843 C845 1.415 . S
C844 C843 1.355 . S
C844 C846 1.419 . S
C845 C840 1.425 . S
C845 C842 1.409 . S
C845 C843 1.415 . S
C846 H836 0.930 . S
C846 C844 1.419 . S
C846 C847 1.362 . S
C847 H837 0.930 . S
C847 C840 1.409 . S
C847 C846 1.362 . S
H848 C854 0.930 . S
H849 C857 0.930 . S
H850 C858 0.930 . S
H851 C859 0.930 . S
H852 C862 0.930 . S
H853 C863 0.930 . S
C854 H848 0.930 . S
C854 C855 1.355 . S
C854 C856 1.415 . S
C855 C854 1.355 . S
C855 C857 1.419 . S
C856 C854 1.415 . S
C856 C861 1.425 . S
C856 C863 1.409 . S
C857 H849 0.930 . S
C857 C855 1.419 . S
C857 C858 1.362 . S
C858 H850 0.930 . S
C858 C857 1.362 . S
C858 C861 1.409 . S
C859 H851 0.930 . S
C859 C860 1.355 . S
C859 C861 1.415 . S
C860 C859 1.355 . S
C860 C862 1.419 . S
C861 C856 1.425 . S
C861 C858 1.409 . S
C861 C859 1.415 . S
C862 H852 0.930 . S
C862 C860 1.419 . S
C862 C863 1.362 . S
C863 H853 0.930 . S
C863 C856 1.409 . S
C863 C862 1.362 . S
H864 C870 0.930 . S
H865 C873 0.930 . S
H866 C874 0.930 . S
H867 C875 0.930 . S
H868 C878 0.930 . S
H869 C879 0.930 . S
C870 H864 0.930 . S
C870 C871 1.355 . S
C870 C872 1.415 . S
C871 C870 1.355 . S
C871 C873 1.419 . S
C872 C870 1.415 . S
C872 C877 1.425 . S
C872 C879 1.409 . S
C873 H865 0.930 . S
C873 C871 1.419 . S
C873 C874 1.362 . S
C874 H866 0.930 . S
C874 C873 1.362 . S
C874 C877 1.409 . S
C875 H867 0.930 . S
C875 C876 1.355 . S
C875 C877 1.415 . S
C876 C875 1.355 . S
C876 C878 1.419 . S
C877 C872 1.425 . S
C877 C874 1.409 . S
C877 C875 1.415 . S
C878 H868 0.930 . S
C878 C876 1.419 . S
C878 C879 1.362 . S
C879 H869 0.930 . S
C879 C872 1.409 . S
C879 C878 1.362 . S
H880 C886 0.930 . S
H881 C889 0.930 . S
H882 C890 0.930 . S
H883 C891 0.930 . S
H884 C894 0.930 . S
H885 C895 0.930 . S
C886 H880 0.930 . S
C886 C887 1.355 . S
C886 C888 1.415 . S
C887 C886 1.355 . S
C887 C889 1.419 . S
C888 C886 1.415 . S
C888 C893 1.425 . S
C888 C895 1.409 . S
C889 H881 0.930 . S
C889 C887 1.419 . S
C889 C890 1.362 . S
C890 H882 0.930 . S
C890 C889 1.362 . S
C890 C893 1.409 . S
C891 H883 0.930 . S
C891 C892 1.355 . S
C891 C893 1.415 . S
C892 C891 1.355 . S
C892 C894 1.419 . S
C893 C888 1.425 . S
C893 C890 1.409 . S
C893 C891 1.415 . S
C894 H884 0.930 . S
C894 C892 1.419 . S
C894 C895 1.362 . S
C895 H885 0.930 . S
C895 C888 1.409 . S
C895 C894 1.362 . S
H896 C902 0.930 . S
H897 C905 0.930 . S
H898 C906 0.930 . S
H899 C907 0.930 . S
H900 C910 0.930 . S
H901 C911 0.930 . S
C902 H896 0.930 . S
C902 C903 1.355 . S
C902 C904 1.415 . S
C903 C902 1.355 . S
C903 C905 1.419 . S
C904 C902 1.415 . S
C904 C909 1.425 . S
C904 C911 1.409 . S
C905 H897 0.930 . S
C905 C903 1.419 . S
C905 C906 1.362 . S
C906 H898 0.930 . S
C906 C905 1.362 . S
C906 C909 1.409 . S
C907 H899 0.930 . S
C907 C908 1.355 . S
C907 C909 1.415 . S
C908 C907 1.355 . S
C908 C910 1.419 . S
C909 C904 1.425 . S
C909 C906 1.409 . S
C909 C907 1.415 . S
C910 H900 0.930 . S
C910 C908 1.419 . S
C910 C911 1.362 . S
C911 H901 0.930 . S
C911 C904 1.409 . S
C911 C910 1.362 . S
H912 C918 0.930 . S
H913 C921 0.930 . S
H914 C922 0.930 . S
H915 C923 0.930 . S
H916 C926 0.930 . S
H917 C927 0.930 . S
C918 H912 0.930 . S
C918 C919 1.355 . S
C918 C920 1.415 . S
C919 C918 1.355 . S
C919 C921 1.419 . S
C920 C918 1.415 . S
C920 C925 1.425 . S
C920 C927 1.409 . S
C921 H913 0.930 . S
C921 C919 1.419 . S
C921 C922 1.362 . S
C922 H914 0.930 . S
C922 C921 1.362 . S
C922 C925 1.409 . S
C923 H915 0.930 . S
C923 C924 1.355 . S
C923 C925 1.415 . S
C924 C923 1.355 . S
C924 C926 1.419 . S
C925 C920 1.425 . S
C925 C922 1.409 . S
C925 C923 1.415 . S
C926 H916 0.930 . S
C926 C924 1.419 . S
C926 C927 1.362 . S
C927 H917 0.930 . S
C927 C920 1.409 . S
C927 C926 1.362 . S
H928 C934 0.930 . S
H929 C937 0.930 . S
H930 C938 0.930 . S
H931 C939 0.930 . S
H932 C942 0.930 . S
H933 C943 0.930 . S
C934 H928 0.930 . S
C934 C935 1.355 1_465 S
C934 C936 1.415 . S
C935 C934 1.355 1_645 S
C935 C937 1.419 . S
C936 C934 1.415 . S
C936 C941 1.425 1_466 S
C936 C943 1.409 1_556 S
C937 H929 0.930 . S
C937 C935 1.419 . S
C937 C938 1.362 . S
C938 H930 0.930 . S
C938 C937 1.362 . S
C938 C941 1.409 1_556 S
C939 H931 0.930 . S
C939 C940 1.355 1_645 S
C939 C941 1.415 . S
C940 C939 1.355 1_465 S
C940 C942 1.419 . S
C941 C936 1.425 1_644 S
C941 C938 1.409 1_554 S
C941 C939 1.415 . S
C942 H932 0.930 . S
C942 C940 1.419 . S
C942 C943 1.362 . S
C943 H933 0.930 . S
C943 C936 1.409 1_554 S
C943 C942 1.362 . S
H944 C950 0.930 . S
H945 C953 0.930 . S
H946 C954 0.930 . S
H947 C955 0.930 . S
H948 C958 0.930 . S
H949 C959 0.930 . S
C950 H944 0.930 . S
C950 C951 1.355 . S
C950 C952 1.415 . S
C951 C950 1.355 . S
C951 C953 1.419 . S
C952 C950 1.415 . S
C952 C957 1.425 . S
C952 C959 1.409 . S
C953 H945 0.930 . S
C953 C951 1.419 . S
C953 C954 1.362 . S
C954 H946 0.930 . S
C954 C953 1.362 . S
C954 C957 1.409 . S
C955 H947 0.930 . S
C955 C956 1.355 . S
C955 C957 1.415 . S
C956 C955 1.355 . S
C956 C958 1.419 . S
C957 C952 1.425 . S
C957 C954 1.409 . S
C957 C955 1.415 . S
C958 H948 0.930 . S
C958 C956 1.419 . S
C958 C959 1.362 . S
C959 H949 0.930 . S
C959 C952 1.409 . S
C959 C958 1.362 . S
H960 C966 0.930 . S
H961 C969 0.930 . S
H962 C970 0.930 . S
H963 C971 0.930 . S
H964 C974 0.930 . S
H965 C975 0.930 . S
C966 H960 0.930 . S
C966 C967 1.355 1_565 S
C966 C968 1.415 . S
C967 C966 1.355 1_545 S
C967 C969 1.419 . S
C968 C966 1.415 . S
C968 C973 1.425 1_565 S
C968 C975 1.409 . S
C969 H961 0.930 . S
C969 C967 1.419 . S
C969 C970 1.362 . S
C970 H962 0.930 . S
C970 C969 1.362 . S
C970 C973 1.409 . S
C971 H963 0.930 . S
C971 C972 1.355 1_545 S
C971 C973 1.415 . S
C972 C971 1.355 1_565 S
C972 C974 1.419 . S
C973 C968 1.425 1_545 S
C973 C970 1.409 . S
C973 C971 1.415 . S
C974 H964 0.930 . S
C974 C972 1.419 . S
C974 C975 1.362 . S
C975 H965 0.930 . S
C975 C968 1.409 . S
C975 C974 1.362 . S
H976 C982 0.930 . S
H977 C985 0.930 . S
H978 C986 0.930 . S
H979 C987 0.930 . S
H980 C990 0.930 . S
H981 C991 0.930 . S
C982 H976 0.930 . S
C982 C983 1.355 . S
C982 C984 1.415 . S
C983 C982 1.355 . S
C983 C985 1.419 . S
C984 C982 1.415 . S
C984 C989 1.425 . S
C984 C991 1.409 . S
C985 H977 0.930 . S
C985 C983 1.419 . S
C985 C986 1.362 . S
C986 H978 0.930 . S
C986 C985 1.362 . S
C986 C989 1.409 . S
C987 H979 0.930 . S
C987 C988 1.355 . S
C987 C989 1.415 . S
C988 C987 1.355 . S
C988 C990 1.419 . S
C989 C984 1.425 . S
C989 C986 1.409 . S
C989 C987 1.415 . S
C990 H980 0.930 . S
C990 C988 1.419 . S
C990 C991 1.362 . S
C991 H981 0.930 . S
C991 C984 1.409 . S
C991 C990 1.362 . S
H992 C998 0.930 . S
H993 C1001 0.930 . S
H994 C1002 0.930 . S
H995 C1003 0.930 . S
H996 C1006 0.930 . S
H997 C1007 0.930 . S
C998 H992 0.930 . S
C998 C999 1.355 . S
C998 C1000 1.415 . S
C999 C998 1.355 . S
C999 C1001 1.419 . S
C1000 C998 1.415 . S
C1000 C1005 1.425 . S
C1000 C1007 1.409 . S
C1001 H993 0.930 . S
C1001 C999 1.419 . S
C1001 C1002 1.362 . S
C1002 H994 0.930 . S
C1002 C1001 1.362 . S
C1002 C1005 1.409 . S
C1003 H995 0.930 . S
C1003 C1004 1.355 . S
C1003 C1005 1.415 . S
C1004 C1003 1.355 . S
C1004 C1006 1.419 . S
C1005 C1000 1.425 . S
C1005 C1002 1.409 . S
C1005 C1003 1.415 . S
C1006 H996 0.930 . S
C1006 C1004 1.419 . S
C1006 C1007 1.362 . S
C1007 H997 0.930 . S
C1007 C1000 1.409 . S
C1007 C1006 1.362 . S
H1008 C1014 0.930 . S
H1009 C1017 0.930 . S
H1010 C1018 0.930 . S
H1011 C1019 0.930 . S
H1012 C1022 0.930 . S
H1013 C1023 0.930 . S
C1014 H1008 0.930 . S
C1014 C1015 1.355 . S
C1014 C1016 1.415 . S
C1015 C1014 1.355 . S
C1015 C1017 1.419 . S
C1016 C1014 1.415 . S
C1016 C1021 1.425 . S
C1016 C1023 1.409 . S
C1017 H1009 0.930 . S
C1017 C1015 1.419 . S
C1017 C1018 1.362 . S
C1018 H1010 0.930 . S
C1018 C1017 1.362 . S
C1018 C1021 1.409 . S
C1019 H1011 0.930 . S
C1019 C1020 1.355 . S
C1019 C1021 1.415 . S
C1020 C1019 1.355 . S
C1020 C1022 1.419 . S
C1021 C1016 1.425 . S
C1021 C1018 1.409 . S
C1021 C1019 1.415 . S
C1022 H1012 0.930 . S
C1022 C1020 1.419 . S
C1022 C1023 1.362 . S
C1023 H1013 0.930 . S
C1023 C1016 1.409 . S
C1023 C1022 1.362 . S
H1024 C1030 0.930 . S
H1025 C1033 0.930 . S
H1026 C1034 0.930 . S
H1027 C1035 0.930 . S
H1028 C1038 0.930 . S
H1029 C1039 0.930 . S
C1030 H1024 0.930 . S
C1030 C1031 1.355 . S
C1030 C1032 1.415 . S
C1031 C1030 1.355 . S
C1031 C1033 1.419 . S
C1032 C1030 1.415 . S
C1032 C1037 1.425 . S
C1032 C1039 1.409 . S
C1033 H1025 0.930 . S
C1033 C1031 1.419 . S
C1033 C1034 1.362 . S
C1034 H1026 0.930 . S
C1034 C1033 1.362 . S
C1034 C1037 1.409 . S
C1035 H1027 0.930 . S
C1035 C1036 1.355 . S
C1035 C1037 1.415 . S
C1036 C1035 1.355 . S
C1036 C1038 1.419 . S
C1037 C1032 1.425 . S
C1037 C1034 1.409 . S
C1037 C1035 1.415 . S
C1038 H1028 0.930 . S
C1038 C1036 1.419 . S
C1038 C1039 1.362 . S
C1039 H1029 0.930 . S
C1039 C1032 1.409 . S
C1039 C1038 1.362 . S
H1040 C1046 0.930 . S
H1041 C1049 0.930 . S
H1042 C1050 0.930 . S
H1043 C1051 0.930 . S
H1044 C1054 0.930 . S
H1045 C1055 0.930 . S
C1046 H1040 0.930 . S
C1046 C1047 1.355 . S
C1046 C1048 1.415 . S
C1047 C1046 1.355 . S
C1047 C1049 1.419 1_655 S
C1048 C1046 1.415 . S
C1048 C1053 1.425 1_656 S
C1048 C1055 1.409 1_556 S
C1049 H1041 0.930 . S
C1049 C1047 1.419 1_455 S
C1049 C1050 1.362 . S
C1050 H1042 0.930 . S
C1050 C1049 1.362 . S
C1050 C1053 1.409 1_556 S
C1051 H1043 0.930 . S
C1051 C1052 1.355 . S
C1051 C1053 1.415 . S
C1052 C1051 1.355 . S
C1052 C1054 1.419 1_455 S
C1053 C1048 1.425 1_454 S
C1053 C1050 1.409 1_554 S
C1053 C1051 1.415 . S
C1054 H1044 0.930 . S
C1054 C1052 1.419 1_655 S
C1054 C1055 1.362 . S
C1055 H1045 0.930 . S
C1055 C1048 1.409 1_554 S
C1055 C1054 1.362 . S
C679 C67 1.579 . S
C684 C319 1.537 . S
C695 C75 1.478 . S
C700 C151 1.429 . S
C711 C159 1.295 . S
C716 C243 1.346 . S
C727 C235 1.463 . S
C732 C327 1.436 . S
C743 C56 1.590 . S
C748 C476 1.552 . S
C759 C66 1.435 . S
C764 C392 1.475 . S
C775 C402 1.358 . S
C780 C234 1.319 . S
C791 C486 1.444 . S
C796 C224 1.458 . S
C807 C571 1.550 . S
C812 C487 1.594 . S
C823 C403 1.399 . S
C828 C579 1.488 . S
C839 C663 1.323 . S
C844 C411 1.301 . S
C855 C495 1.477 . S
C860 C655 1.432 . S
C871 C308 1.549 . S
C876 C560 1.592 . S
C887 C570 1.491 . S
C892 C140 1.399 . S
C903 C150 1.310 . S
C908 C654 1.357 . S
C919 C318 1.445 . S
C924 C644 1.452 . S
C935 C63 1.347 . S
C940 C72 1.347 . S
C951 C156 1.317 . S
C956 C147 1.317 . S
C967 C231 1.312 . S
C972 C240 1.312 . S
C983 C315 1.423 . S
C988 C324 1.423 . S
C999 C408 1.375 . S
C1004 C399 1.375 . S
C1015 C483 1.345 . S
C1020 C492 1.345 . S
C1031 C576 1.412 . S
C1036 C567 1.412 . S
C1047 C660 1.332 . S
C1052 C651 1.332 . S
