# Generated by pormake.
# Topology qtz-f, (3)-cn, num edge types: 1
# Building blocks:
#     Node 0, Type 0, BuildingBlock: OLANEW_clean_sbu_2, # of connection points: 3
#     Node 1, Type 0, BuildingBlock: OLANEW_clean_sbu_2, # of connection points: 3
#     Node 2, Type 0, BuildingBlock: OLANEW_clean_sbu_2, # of connection points: 3
#     Node 3, Type 0, BuildingBlock: OLANEW_clean_sbu_2, # of connection points: 3
#     Node 4, Type 0, BuildingBlock: OLANEW_clean_sbu_2, # of connection points: 3
#     Node 5, Type 0, BuildingBlock: OLANEW_clean_sbu_2, # of connection points: 3
#     Node 6, Type 0, BuildingBlock: OLANEW_clean_sbu_2, # of connection points: 3
#     Node 7, Type 0, BuildingBlock: OLANEW_clean_sbu_2, # of connection points: 3
#     Node 8, Type 0, BuildingBlock: OLANEW_clean_sbu_2, # of connection points: 3
#     Node 9, Type 0, BuildingBlock: OLANEW_clean_sbu_2, # of connection points: 3
#     Node 10, Type 0, BuildingBlock: OLANEW_clean_sbu_2, # of connection points: 3
#     Node 11, Type 0, BuildingBlock: OLANEW_clean_sbu_2, # of connection points: 3
#     Edge 12, Type (0, 0), BuildingBlock: XUDNAN_clean_linker_2, # of connection points: 2
#     Edge 13, Type (0, 0), BuildingBlock: XUDNAN_clean_linker_2, # of connection points: 2
#     Edge 14, Type (0, 0), BuildingBlock: XUDNAN_clean_linker_2, # of connection points: 2
#     Edge 15, Type (0, 0), BuildingBlock: XUDNAN_clean_linker_2, # of connection points: 2
#     Edge 16, Type (0, 0), BuildingBlock: XUDNAN_clean_linker_2, # of connection points: 2
#     Edge 17, Type (0, 0), BuildingBlock: XUDNAN_clean_linker_2, # of connection points: 2
#     Edge 18, Type (0, 0), BuildingBlock: XUDNAN_clean_linker_2, # of connection points: 2
#     Edge 19, Type (0, 0), BuildingBlock: XUDNAN_clean_linker_2, # of connection points: 2
#     Edge 20, Type (0, 0), BuildingBlock: XUDNAN_clean_linker_2, # of connection points: 2
#     Edge 21, Type (0, 0), BuildingBlock: XUDNAN_clean_linker_2, # of connection points: 2
#     Edge 22, Type (0, 0), BuildingBlock: XUDNAN_clean_linker_2, # of connection points: 2
#     Edge 23, Type (0, 0), BuildingBlock: XUDNAN_clean_linker_2, # of connection points: 2
#     Edge 24, Type (0, 0), BuildingBlock: XUDNAN_clean_linker_2, # of connection points: 2
#     Edge 25, Type (0, 0), BuildingBlock: XUDNAN_clean_linker_2, # of connection points: 2
#     Edge 26, Type (0, 0), BuildingBlock: XUDNAN_clean_linker_2, # of connection points: 2
#     Edge 27, Type (0, 0), BuildingBlock: XUDNAN_clean_linker_2, # of connection points: 2
#     Edge 28, Type (0, 0), BuildingBlock: XUDNAN_clean_linker_2, # of connection points: 2
#     Edge 29, Type (0, 0), BuildingBlock: XUDNAN_clean_linker_2, # of connection points: 2
# Relax obj value: 0.008
# Max RMSD: 0.022
# Mean RMSD: 0.022
data_MOF--net-qtz-f--node1-OLANEW_clean_sbu_2--edge1-XUDNAN_clean_linker_2
_symmetry_space_group_name_H-M    P1
_symmetry_Int_Tables_number       1
_symmetry_cell_setting            triclinic
loop_
_symmetry_equiv_pos_as_xyz
'x, y, z'
_cell_length_a     74.805359
_cell_length_b     74.807764
_cell_length_c     24.43785
_cell_angle_alpha  89.914796
_cell_angle_beta   90.08792
_cell_angle_gamma 119.91128
loop_
_atom_site_label
_atom_site_type_symbol
_atom_site_fract_x
_atom_site_fract_y
_atom_site_fract_z
_atom_type_partial_charge
O0 O 0.12605 0.48627 0.11054 0.0
Cd1 Cd 0.11591 0.45069 0.08682 0.0
O2 O 0.13348 0.48318 0.19592 0.0
Cd3 Cd 0.11656 0.44962 0.18894 0.0
O4 O 0.08561 0.42276 0.18276 0.0
C5 C 0.0725 0.4266 0.16062 0.0
O6 O 0.0788 0.44537 0.14247 0.0
C7 C 0.13331 0.49438 0.15691 0.0
C8 C 0.14938 0.44886 0.04309 0.0
O9 O 0.14609 0.44743 0.09479 0.0
O10 O 0.1367 0.45094 0.01204 0.0
O11 O 0.65218 0.15636 0.49164 0.0
Cd12 Cd 0.68028 0.14856 0.49237 0.0
O13 O 0.62935 0.12407 0.51022 0.0
Cd14 Cd 0.64971 0.11096 0.51118 0.0
O15 O 0.65041 0.08212 0.51459 0.0
C16 C 0.63947 0.06869 0.479 0.0
O17 O 0.63017 0.07367 0.44129 0.0
C18 C 0.63364 0.14252 0.50101 0.0
C19 C 0.7146 0.17759 0.43399 0.0
O20 O 0.71257 0.18006 0.48505 0.0
O21 O 0.70037 0.16139 0.41056 0.0
O22 O 0.49028 0.63275 0.80977 0.0
Cd23 Cd 0.52503 0.65657 0.77668 0.0
O24 O 0.49956 0.63822 0.89634 0.0
Cd25 Cd 0.53244 0.65365 0.87645 0.0
O26 O 0.5603 0.6514 0.86555 0.0
C27 C 0.5708 0.65627 0.82165 0.0
O28 O 0.56571 0.66438 0.78107 0.0
C29 C 0.48551 0.62985 0.86022 0.0
C30 C 0.52594 0.68752 0.71077 0.0
O31 O 0.52328 0.67063 0.69003 0.0
O32 O 0.5282 0.68978 0.76277 0.0
O33 O 0.85085 0.49394 0.11375 0.0
Cd34 Cd 0.86041 0.53024 0.10633 0.0
O35 O 0.85903 0.49596 0.20088 0.0
Cd36 Cd 0.87398 0.52955 0.20133 0.0
O37 O 0.90323 0.55838 0.19421 0.0
C38 C 0.91458 0.55917 0.15458 0.0
O39 O 0.90735 0.54367 0.12002 0.0
C40 C 0.8517 0.48527 0.15771 0.0
C41 C 0.83082 0.53437 0.04686 0.0
O42 O 0.84626 0.53478 0.02296 0.0
O43 O 0.82949 0.53219 0.099 0.0
O44 O 0.34062 0.84189 0.48416 0.0
Cd45 Cd 0.31376 0.85121 0.47426 0.0
O46 O 0.3593 0.86822 0.5383 0.0
Cd47 Cd 0.33988 0.88233 0.53318 0.0
O48 O 0.33793 0.91049 0.53027 0.0
C49 C 0.34616 0.92224 0.48928 0.0
O50 O 0.35366 0.91601 0.44979 0.0
C51 C 0.35659 0.85211 0.51355 0.0
C52 C 0.2756 0.81658 0.45216 0.0
O53 O 0.28789 0.82708 0.41333 0.0
O54 O 0.28133 0.82254 0.50146 0.0
O55 O 0.49112 0.34048 0.87295 0.0
Cd56 Cd 0.45588 0.31162 0.86519 0.0
O57 O 0.48064 0.36305 0.86332 0.0
Cd58 Cd 0.44739 0.34197 0.85941 0.0
O59 O 0.41786 0.3413 0.857 0.0
C60 C 0.41618 0.3523 0.8199 0.0
O61 O 0.43121 0.36155 0.78426 0.0
C62 C 0.49519 0.35908 0.86944 0.0
C63 C 0.4534 0.28455 0.7833 0.0
O64 O 0.45695 0.28192 0.83314 0.0
O65 O 0.45082 0.29988 0.77233 0.0
O66 O 0.49132 0.83701 0.51334 0.0
Cd67 Cd 0.52686 0.84387 0.5166 0.0
O68 O 0.49916 0.86614 0.55463 0.0
Cd69 Cd 0.53263 0.87949 0.55458 0.0
O70 O 0.56218 0.90813 0.54796 0.0
C71 C 0.56391 0.91961 0.50757 0.0
O72 O 0.54882 0.91285 0.4717 0.0
C73 C 0.48576 0.84908 0.5338 0.0
C74 C 0.52787 0.80812 0.54369 0.0
O75 O 0.52866 0.82055 0.5809 0.0
O76 O 0.52677 0.81269 0.4937 0.0
O77 O 0.64306 0.49714 0.88128 0.0
Cd78 Cd 0.67084 0.53309 0.88281 0.0
O79 O 0.61938 0.50603 0.86884 0.0
Cd80 Cd 0.63914 0.53951 0.86683 0.0
O81 O 0.63958 0.56888 0.86132 0.0
C82 C 0.64292 0.57847 0.81615 0.0
O83 O 0.64792 0.57143 0.77305 0.0
C84 C 0.62426 0.49212 0.87505 0.0
C85 C 0.70884 0.53582 0.90293 0.0
O86 O 0.6974 0.53547 0.94239 0.0
O87 O 0.70235 0.535 0.85392 0.0
O88 O 0.13598 0.63458 0.23465 0.0
Cd89 Cd 0.12543 0.66058 0.24275 0.0
O90 O 0.12274 0.62478 0.15237 0.0
Cd91 Cd 0.10671 0.64245 0.15436 0.0
O92 O 0.07765 0.64264 0.15895 0.0
C93 C 0.06388 0.6311 0.12482 0.0
O94 O 0.06853 0.62128 0.088 0.0
C95 C 0.13293 0.6235 0.19241 0.0
C96 C 0.15436 0.69426 0.30317 0.0
O97 O 0.13897 0.67903 0.32659 0.0
O98 O 0.15594 0.69364 0.25108 0.0
O99 O 0.49757 0.15639 0.49727 0.0
Cd100 Cd 0.46168 0.14844 0.50131 0.0
O101 O 0.48838 0.12423 0.51699 0.0
Cd102 Cd 0.45499 0.11141 0.51941 0.0
O103 O 0.42478 0.08342 0.52072 0.0
C104 C 0.42084 0.07102 0.48108 0.0
O105 O 0.43418 0.07655 0.44079 0.0
C106 C 0.50241 0.14261 0.50658 0.0
C107 C 0.45807 0.18031 0.54912 0.0
O108 O 0.45803 0.16607 0.57845 0.0
O109 O 0.4598 0.17946 0.49715 0.0
O110 O 0.34656 0.49442 0.95785 0.0
Cd111 Cd 0.31971 0.45809 0.96205 0.0
O112 O 0.35114 0.4935 0.86926 0.0
Cd113 Cd 0.33268 0.4599 0.86548 0.0
O114 O 0.33221 0.43046 0.86242 0.0
C115 C 0.34286 0.42867 0.82462 0.0
O116 O 0.35193 0.44368 0.78877 0.0
C117 C 0.35528 0.50365 0.91368 0.0
C118 C 0.28053 0.45395 0.96307 0.0
O119 O 0.29013 0.45534 0.00777 0.0
O120 O 0.28942 0.4544 0.91789 0.0
O121 O 0.86505 0.35882 0.24246 0.0
Cd122 Cd 0.87588 0.33415 0.26925 0.0
O123 O 0.85929 0.34846 0.15682 0.0
Cd124 Cd 0.87695 0.33261 0.1667 0.0
O125 O 0.90779 0.33623 0.17012 0.0
C126 C 0.92158 0.35284 0.14821 0.0
O127 O 0.91597 0.3652 0.12542 0.0
C128 C 0.85836 0.35949 0.19505 0.0
C129 C 0.84112 0.29609 0.29172 0.0
O130 O 0.84997 0.3096 0.32944 0.0
O131 O 0.84891 0.30046 0.24357 0.0
H132 H 0.2574 0.45172 0.05256 0.0
H133 H 0.25707 0.45226 0.87489 0.0
H134 H 0.22304 0.45014 0.87591 0.0
H135 H 0.20285 0.41574 0.07001 0.0
H136 H 0.20064 0.4288 0.12934 0.0
H137 H 0.22473 0.42987 0.11451 0.0
H138 H 0.24343 0.46981 0.11546 0.0
H139 H 0.2194 0.46887 0.13025 0.0
H140 H 0.23434 0.483 0.07151 0.0
H141 H 0.18954 0.44906 0.89642 0.0
H142 H 0.15884 0.4487 0.9349 0.0
H143 H 0.181 0.44848 0.09909 0.0
C144 C 0.25015 0.4513 0.01382 0.0
C145 C 0.2599 0.45215 0.96362 0.0
C146 C 0.24989 0.4516 0.91386 0.0
C147 C 0.23056 0.45039 0.91401 0.0
C148 C 0.22142 0.44967 0.96423 0.0
C149 C 0.23086 0.45004 0.01321 0.0
C150 C 0.2179 0.44937 0.06156 0.0
C151 C 0.21113 0.42978 0.09586 0.0
C152 C 0.22946 0.46893 0.09675 0.0
C153 C 0.19977 0.44874 0.03213 0.0
C154 C 0.20208 0.4489 0.97601 0.0
C155 C 0.18751 0.44883 0.9403 0.0
C156 C 0.17014 0.44864 0.96256 0.0
C157 C 0.16748 0.4485 0.01999 0.0
C158 C 0.1825 0.44845 0.05502 0.0
H159 H 0.74662 0.21413 0.47164 0.0
H160 H 0.72376 0.17591 0.32628 0.0
H161 H 0.75407 0.20169 0.27452 0.0
H162 H 0.76604 0.26265 0.40342 0.0
H163 H 0.78828 0.27588 0.44722 0.0
H164 H 0.76503 0.25419 0.47304 0.0
H165 H 0.78559 0.23606 0.50013 0.0
H166 H 0.80891 0.25769 0.47432 0.0
H167 H 0.80063 0.23211 0.44904 0.0
H168 H 0.78667 0.23188 0.23831 0.0
H169 H 0.81892 0.26448 0.22002 0.0
H170 H 0.82035 0.2829 0.38912 0.0
C171 C 0.748 0.21113 0.42896 0.0
C172 C 0.73282 0.19298 0.40302 0.0
C173 C 0.73519 0.18969 0.34705 0.0
C174 C 0.75236 0.20423 0.31731 0.0
C175 C 0.76702 0.22196 0.34413 0.0
C176 C 0.765 0.22547 0.39868 0.0
C177 C 0.78277 0.24592 0.41764 0.0
C178 C 0.77507 0.26052 0.43642 0.0
C179 C 0.79521 0.24275 0.46296 0.0
C180 C 0.79506 0.25341 0.36516 0.0
C181 C 0.78575 0.23935 0.32328 0.0
C182 C 0.79413 0.24299 0.27082 0.0
C183 C 0.81246 0.26154 0.26085 0.0
C184 C 0.82219 0.27624 0.30313 0.0
C185 C 0.81334 0.27197 0.35596 0.0
H186 H 0.53021 0.79426 0.64609 0.0
H187 H 0.52554 0.77845 0.47375 0.0
H188 H 0.52491 0.74607 0.49767 0.0
H189 H 0.56341 0.7741 0.68459 0.0
H190 H 0.55111 0.76466 0.74994 0.0
H191 H 0.55147 0.78673 0.71915 0.0
H192 H 0.51161 0.76838 0.72561 0.0
H193 H 0.51113 0.74626 0.75634 0.0
H194 H 0.49631 0.74324 0.69534 0.0
H195 H 0.52411 0.71508 0.54044 0.0
H196 H 0.52364 0.68792 0.59897 0.0
H197 H 0.52907 0.7241 0.7433 0.0
C198 C 0.52913 0.78404 0.61332 0.0
C199 C 0.52793 0.78891 0.55801 0.0
C200 C 0.52649 0.77507 0.51641 0.0
C201 C 0.52612 0.75663 0.52957 0.0
C202 C 0.52724 0.75227 0.5845 0.0
C203 C 0.52876 0.76559 0.62571 0.0
C204 C 0.5296 0.75719 0.6815 0.0
C205 C 0.55012 0.77152 0.71048 0.0
C206 C 0.51106 0.75355 0.71676 0.0
C207 C 0.52822 0.73701 0.66525 0.0
C208 C 0.52687 0.73447 0.60912 0.0
C209 C 0.52522 0.71693 0.58445 0.0
C210 C 0.52495 0.70158 0.61806 0.0
C211 C 0.52635 0.70387 0.67571 0.0
C212 C 0.52804 0.72189 0.69938 0.0
H213 H 0.72535 0.53479 1.00241 0.0
H214 H 0.73746 0.53905 0.82778 0.0
H215 H 0.77048 0.54012 0.8457 0.0
H216 H 0.77801 0.56875 0.04564 0.0
H217 H 0.77575 0.55365 0.10548 0.0
H218 H 0.75339 0.55387 0.07893 0.0
H219 H 0.73405 0.51399 0.07175 0.0
H220 H 0.75635 0.51365 0.09826 0.0
H221 H 0.74546 0.50162 0.03348 0.0
H222 H 0.80187 0.54002 0.88264 0.0
H223 H 0.8291 0.53834 0.9358 0.0
H224 H 0.79624 0.53389 0.08612 0.0
C225 C 0.73498 0.53608 0.9679 0.0
C226 C 0.72884 0.53689 0.91367 0.0
C227 C 0.74185 0.53842 0.86968 0.0
C228 C 0.76065 0.53906 0.87944 0.0
C229 C 0.76619 0.53814 0.93338 0.0
C230 C 0.75374 0.53667 0.97687 0.0
C231 C 0.76304 0.53544 0.03086 0.0
C232 C 0.76783 0.55404 0.06737 0.0
C233 C 0.74888 0.51496 0.0603 0.0
C234 C 0.78261 0.53632 0.01093 0.0
C235 C 0.78419 0.53796 0.95461 0.0
C236 C 0.80083 0.53879 0.92678 0.0
C237 C 0.81622 0.53782 0.95735 0.0
C238 C 0.81483 0.536 0.01512 0.0
C239 C 0.7978 0.53533 0.04204 0.0
H240 H 0.18946 0.72808 0.2654 0.0
H241 H 0.15488 0.70011 0.41394 0.0
H242 H 0.18167 0.72889 0.46808 0.0
H243 H 0.23929 0.74572 0.32211 0.0
H244 H 0.25146 0.7694 0.28345 0.0
H245 H 0.22916 0.74705 0.25619 0.0
H246 H 0.21042 0.76812 0.24557 0.0
H247 H 0.23269 0.79057 0.27273 0.0
H248 H 0.20781 0.78126 0.30415 0.0
H249 H 0.21279 0.76018 0.50631 0.0
H250 H 0.24589 0.79174 0.52575 0.0
H251 H 0.26 0.79917 0.35208 0.0
C252 C 0.18742 0.72806 0.30927 0.0
C253 C 0.17005 0.71185 0.33543 0.0
C254 C 0.16805 0.71237 0.39297 0.0
C255 C 0.18317 0.72866 0.42408 0.0
C256 C 0.20017 0.74431 0.39702 0.0
C257 C 0.20236 0.74417 0.34091 0.0
C258 C 0.22231 0.76262 0.32195 0.0
C259 C 0.23638 0.75578 0.29431 0.0
C260 C 0.21805 0.77646 0.28385 0.0
C261 C 0.23109 0.77307 0.37622 0.0
C262 C 0.21807 0.76231 0.41902 0.0
C263 C 0.22307 0.76879 0.4731 0.0
C264 C 0.24192 0.78673 0.48372 0.0
C265 C 0.25553 0.79796 0.44046 0.0
C266 C 0.24992 0.791 0.38605 0.0
H267 H 0.4561 0.24948 0.79469 0.0
H268 H 0.44921 0.28799 0.67302 0.0
H269 H 0.44909 0.26519 0.59984 0.0
H270 H 0.4901 0.23879 0.71764 0.0
H271 H 0.47889 0.21251 0.74098 0.0
H272 H 0.47792 0.23156 0.78385 0.0
H273 H 0.43814 0.20895 0.78984 0.0
H274 H 0.43899 0.1898 0.74706 0.0
H275 H 0.42313 0.20066 0.72775 0.0
H276 H 0.45091 0.23885 0.53974 0.0
H277 H 0.45358 0.21033 0.49728 0.0
H278 H 0.45868 0.18879 0.65849 0.0
C279 C 0.45448 0.25309 0.75269 0.0
C280 C 0.45267 0.27054 0.73958 0.0
C281 C 0.45058 0.2747 0.68408 0.0
C282 C 0.45051 0.26185 0.64221 0.0
C283 C 0.45244 0.24486 0.65655 0.0
C284 C 0.45428 0.2404 0.71045 0.0
C285 C 0.45628 0.22128 0.71489 0.0
C286 C 0.47703 0.22635 0.74087 0.0
C287 C 0.43804 0.20416 0.74677 0.0
C288 C 0.45544 0.21577 0.65501 0.0
C289 C 0.45324 0.22957 0.62201 0.0
C290 C 0.45252 0.22788 0.56517 0.0
C291 C 0.45409 0.21165 0.54145 0.0
C292 C 0.45628 0.19729 0.57454 0.0
C293 C 0.4569 0.19943 0.63207 0.0
H294 H 0.12632 0.59548 0.11164 0.0
H295 H 0.15404 0.61573 0.2722 0.0
H296 H 0.16111 0.58685 0.27567 0.0
H297 H 0.1002 0.54361 0.13995 0.0
H298 H 0.10387 0.53528 0.07384 0.0
H299 H 0.10391 0.55923 0.08015 0.0
H300 H 0.14003 0.57867 0.03498 0.0
H301 H 0.14006 0.5547 0.02826 0.0
H302 H 0.16092 0.57615 0.06336 0.0
H303 H 0.16082 0.55323 0.26708 0.0
H304 H 0.1538 0.518 0.24622 0.0
H305 H 0.12674 0.5201 0.09079 0.0
C306 C 0.13436 0.59419 0.14697 0.0
C307 C 0.13967 0.60793 0.19158 0.0
C308 C 0.14989 0.60546 0.23739 0.0
C309 C 0.15401 0.58912 0.2397 0.0
C310 C 0.14802 0.5755 0.19567 0.0
C311 C 0.13859 0.578 0.14991 0.0
C312 C 0.13211 0.56032 0.11014 0.0
C313 C 0.10864 0.54895 0.10051 0.0
C314 C 0.144 0.56792 0.05598 0.0
C315 C 0.13865 0.54709 0.14158 0.0
C316 C 0.14802 0.5562 0.19053 0.0
C317 C 0.15386 0.54611 0.2284 0.0
C318 C 0.14975 0.52608 0.21626 0.0
C319 C 0.13985 0.51634 0.1667 0.0
C320 C 0.13465 0.52723 0.12859 0.0
H321 H 0.51707 0.11614 0.52315 0.0
H322 H 0.5371 0.18016 0.4857 0.0
H323 H 0.57328 0.18764 0.48149 0.0
H324 H 0.55998 0.12551 0.60864 0.0
H325 H 0.56072 0.10317 0.58416 0.0
H326 H 0.53668 0.10323 0.58506 0.0
H327 H 0.53187 0.09467 0.48143 0.0
H328 H 0.55589 0.0946 0.4802 0.0
H329 H 0.55187 0.11113 0.4342 0.0
H330 H 0.60752 0.18763 0.48009 0.0
H331 H 0.63624 0.1801 0.48155 0.0
H332 H 0.59274 0.11609 0.51985 0.0
C333 C 0.52901 0.13179 0.51424 0.0
C334 C 0.52422 0.14757 0.5048 0.0
C335 C 0.54039 0.16781 0.49313 0.0
C336 C 0.56098 0.1722 0.49067 0.0
C337 C 0.5651 0.1562 0.50001 0.0
C338 C 0.5495 0.13641 0.51161 0.0
C339 C 0.55774 0.1218 0.5194 0.0
C340 C 0.55354 0.11291 0.57779 0.0
C341 C 0.54882 0.10454 0.47622 0.0
C342 C 0.58046 0.13639 0.51021 0.0
C343 C 0.58451 0.15619 0.49916 0.0
C344 C 0.6045 0.17218 0.48883 0.0
C345 C 0.62071 0.16776 0.48974 0.0
C346 C 0.61678 0.14751 0.50083 0.0
C347 C 0.59635 0.13175 0.51129 0.0
H348 H 0.45417 0.60162 0.79594 0.0
H349 H 0.46859 0.62435 0.96264 0.0
H350 H 0.43423 0.59683 0.99241 0.0
H351 H 0.39764 0.58349 0.80068 0.0
H352 H 0.39157 0.56113 0.75979 0.0
H353 H 0.41571 0.58469 0.75005 0.0
H354 H 0.43546 0.56489 0.76645 0.0
H355 H 0.41147 0.54136 0.77648 0.0
H356 H 0.43107 0.55035 0.82878 0.0
H357 H 0.40024 0.56443 0.00595 0.0
H358 H 0.36993 0.5294 1.00261 0.0
H359 H 0.3781 0.5275 0.82727 0.0
C360 C 0.44988 0.60122 0.83841 0.0
C361 C 0.46401 0.61525 0.87688 0.0
C362 C 0.45798 0.61384 0.93237 0.0
C363 C 0.43846 0.5983 0.94964 0.0
C364 C 0.42512 0.58433 0.91091 0.0
C365 C 0.43055 0.58571 0.85637 0.0
C366 C 0.41441 0.56754 0.82403 0.0
C367 C 0.40423 0.57464 0.7811 0.0
C368 C 0.42366 0.55532 0.79741 0.0
C369 C 0.39944 0.55532 0.86925 0.0
C370 C 0.40567 0.56544 0.91887 0.0
C371 C 0.39504 0.55651 0.96717 0.0
C372 C 0.37784 0.53657 0.96486 0.0
C373 C 0.37157 0.52567 0.91466 0.0
C374 C 0.38232 0.53545 0.86621 0.0
H375 H 0.86066 0.38985 0.26214 0.0
H376 H 0.84028 0.36298 0.10089 0.0
H377 H 0.83193 0.39015 0.07797 0.0
H378 H 0.82291 0.40819 0.28022 0.0
H379 H 0.84179 0.43144 0.31391 0.0
H380 H 0.84307 0.4081 0.32055 0.0
H381 H 0.8807 0.42733 0.28494 0.0
H382 H 0.87953 0.45064 0.27804 0.0
H383 H 0.88624 0.4404 0.21985 0.0
H384 H 0.82986 0.4225 0.0687 0.0
H385 H 0.83474 0.45761 0.07332 0.0
H386 H 0.85664 0.46336 0.24054 0.0
C387 C 0.85392 0.38932 0.22251 0.0
C388 C 0.85102 0.3742 0.18343 0.0
C389 C 0.84257 0.37435 0.13161 0.0
C390 C 0.8377 0.38968 0.11827 0.0
C391 C 0.84127 0.40468 0.15729 0.0
C392 C 0.84909 0.40455 0.20848 0.0
C393 C 0.85336 0.42346 0.24115 0.0
C394 C 0.83945 0.41743 0.29196 0.0
C395 C 0.87632 0.4362 0.25688 0.0
C396 C 0.84745 0.43464 0.19961 0.0
C397 C 0.8402 0.42342 0.15182 0.0
C398 C 0.8352 0.43128 0.10623 0.0
C399 C 0.83806 0.45127 0.10923 0.0
C400 C 0.846 0.46324 0.15736 0.0
C401 C 0.85028 0.45454 0.2034 0.0
H402 H 0.46907 0.87143 0.57544 0.0
H403 H 0.45306 0.81539 0.48551 0.0
H404 H 0.41727 0.80856 0.47577 0.0
H405 H 0.41994 0.85194 0.64756 0.0
H406 H 0.42055 0.87628 0.64234 0.0
H407 H 0.44431 0.87569 0.64586 0.0
H408 H 0.4565 0.89657 0.55551 0.0
H409 H 0.43279 0.89718 0.55164 0.0
H410 H 0.4405 0.887 0.49533 0.0
H411 H 0.38382 0.80948 0.46988 0.0
H412 H 0.35572 0.81784 0.46941 0.0
H413 H 0.39415 0.87308 0.56408 0.0
C414 C 0.45802 0.85755 0.55432 0.0
C415 C 0.4639 0.84393 0.53131 0.0
C416 C 0.44892 0.82602 0.50368 0.0
C417 C 0.42855 0.82201 0.49796 0.0
C418 C 0.42339 0.83596 0.52044 0.0
C419 C 0.4377 0.8533 0.54836 0.0
C420 C 0.42864 0.86643 0.56653 0.0
C421 C 0.42834 0.86764 0.6293 0.0
C422 C 0.4403 0.88807 0.54069 0.0
C423 C 0.40708 0.854 0.54355 0.0
C424 C 0.40425 0.83642 0.51736 0.0
C425 C 0.38581 0.82309 0.49081 0.0
C426 C 0.36994 0.82798 0.49071 0.0
C427 C 0.37266 0.84607 0.5169 0.0
C428 C 0.39144 0.85903 0.54412 0.0
H429 H 0.58278 0.47695 0.86615 0.0
H430 H 0.62835 0.45758 0.88496 0.0
H431 H 0.60035 0.42109 0.88592 0.0
H432 H 0.54469 0.43898 0.95449 0.0
H433 H 0.52337 0.43573 0.91284 0.0
H434 H 0.54706 0.46009 0.9134 0.0
H435 H 0.54952 0.45852 0.80784 0.0
H436 H 0.52583 0.43416 0.80694 0.0
H437 H 0.5488 0.43631 0.77683 0.0
H438 H 0.5667 0.38641 0.88465 0.0
H439 H 0.53086 0.35711 0.88115 0.0
H440 H 0.50834 0.40025 0.86355 0.0
C441 C 0.58698 0.4651 0.87042 0.0
C442 C 0.6078 0.47016 0.87542 0.0
C443 C 0.61251 0.45409 0.88104 0.0
C444 C 0.59671 0.43333 0.88164 0.0
C445 C 0.57634 0.42894 0.87666 0.0
C446 C 0.57151 0.44444 0.87118 0.0
C447 C 0.54851 0.43586 0.86663 0.0
C448 C 0.54044 0.4431 0.91471 0.0
C449 C 0.54284 0.44155 0.81127 0.0
C450 C 0.54106 0.41306 0.87025 0.0
C451 C 0.55725 0.40927 0.87606 0.0
C452 C 0.55392 0.38923 0.88013 0.0
C453 C 0.53352 0.37269 0.87811 0.0
C454 C 0.51676 0.37634 0.87208 0.0
C455 C 0.52074 0.39685 0.8682 0.0
H456 H 0.04151 0.43075 0.11471 0.0
H457 H 0.05321 0.38719 0.20282 0.0
H458 H 0.0157 0.36233 0.20478 0.0
H459 H -0.00263 0.4213 0.18752 0.0
H460 H 0.98418 0.42404 0.12914 0.0
H461 H 0.01191 0.4375 0.1309 0.0
H462 H 0.01257 0.42063 0.03887 0.0
H463 H 0.9848 0.40716 0.03671 0.0
H464 H -0.00163 0.39294 0.03243 0.0
H465 H 0.97637 0.34323 0.20227 0.0
H466 H 0.93914 0.33163 0.19459 0.0
H467 H 0.9541 0.38808 0.10791 0.0
C468 C 0.03627 0.41589 0.13385 0.0
C469 C 0.05031 0.41091 0.15857 0.0
C470 C 0.04274 0.39132 0.18343 0.0
C471 C 0.02147 0.3771 0.18474 0.0
C472 C 0.00803 0.38269 0.1607 0.0
C473 C 0.0152 0.40159 0.13545 0.0
C474 C -0.00232 0.40434 0.11464 0.0
C475 C -0.0022 0.42289 0.14222 0.0
C476 C -0.0016 0.40638 0.05194 0.0
C477 C 0.97945 0.38418 0.13297 0.0
C478 C 0.98564 0.37179 0.15918 0.0
C479 C 0.97137 0.35274 0.18136 0.0
C480 C 0.95027 0.34629 0.17686 0.0
C481 C 0.94368 0.35891 0.15054 0.0
C482 C 0.95856 0.37799 0.128 0.0
H483 H 0.61357 0.03595 0.41514 0.0
H484 H 0.65414 0.05235 0.55603 0.0
H485 H 0.64236 0.01547 0.57177 0.0
H486 H 0.57226 0.99423 0.47335 0.0
H487 H 0.56388 0.97859 0.41244 0.0
H488 H 0.57802 0.00621 0.40673 0.0
H489 H 0.6053 0.00416 0.34588 0.0
H490 H 0.59114 0.97643 0.35115 0.0
H491 H 0.61796 0.99057 0.37044 0.0
H492 H 0.62263 0.97663 0.57933 0.0
H493 H 0.59682 0.93944 0.57788 0.0
H494 H 0.56937 0.94884 0.43196 0.0
C495 C 0.62043 0.03188 0.44846 0.0
C496 C 0.63484 0.04706 0.48423 0.0
C497 C 0.64316 0.04101 0.52788 0.0
C498 C 0.63659 0.02009 0.53708 0.0
C499 C 0.62185 0.00546 0.50198 0.0
C500 C 0.61403 0.01114 0.45823 0.0
C501 C 0.59696 0.99248 0.42961 0.0
C502 C 0.57659 0.99291 0.43065 0.0
C503 C 0.60322 0.99082 0.37078 0.0
C504 C 0.59582 0.97542 0.46535 0.0
C505 C 0.61049 0.98314 0.5064 0.0
C506 C 0.61133 0.97038 0.54679 0.0
C507 C 0.59657 0.94928 0.54569 0.0
C508 C 0.5811 0.94119 0.50471 0.0
C509 C 0.58111 0.95445 0.46348 0.0
H510 H 0.58334 0.63724 0.89575 0.0
H511 H 0.59408 0.66136 0.73004 0.0
H512 H 0.61757 0.64762 0.71417 0.0
H513 H 0.63614 0.64542 0.92032 0.0
H514 H 0.62619 0.62175 0.95863 0.0
H515 H 0.61274 0.63613 0.9594 0.0
H516 H 0.57939 0.60367 0.92665 0.0
H517 H 0.59271 0.58925 0.92559 0.0
H518 H 0.57997 0.59089 0.86472 0.0
H519 H 0.63622 0.62738 0.71265 0.0
H520 H 0.64853 0.60256 0.72585 0.0
H521 H 0.62577 0.59206 0.89281 0.0
C522 C 0.59101 0.6401 0.85652 0.0
C523 C 0.5869 0.65045 0.81419 0.0
C524 C 0.59706 0.65358 0.76322 0.0
C525 C 0.61047 0.64586 0.75384 0.0
C526 C 0.61373 0.63524 0.79602 0.0
C527 C 0.60442 0.63253 0.84653 0.0
C528 C 0.60906 0.6191 0.88352 0.0
C529 C 0.6218 0.63134 0.93342 0.0
C530 C 0.5891 0.59958 0.90111 0.0
C531 C 0.62175 0.61398 0.84524 0.0
C532 C 0.62454 0.62366 0.79521 0.0
C533 C 0.63445 0.62001 0.75199 0.0
C534 C 0.64136 0.60585 0.75985 0.0
C535 C 0.63822 0.59543 0.81044 0.0
C536 C 0.62869 0.59997 0.8539 0.0
H537 H 0.94348 0.56253 0.08084 0.0
H538 H 0.93529 0.59276 0.22219 0.0
H539 H 0.97275 0.6176 0.22317 0.0
H540 H 0.98784 0.56422 0.12554 0.0
H541 H -8e-05 0.56869 0.05932 0.0
H542 H 0.97228 0.55552 0.06442 0.0
H543 H 0.97116 0.5824 0.9996 0.0
H544 H -0.00113 0.59564 0.99404 0.0
H545 H 0.98612 0.60946 0.01593 0.0
H546 H 0.01162 0.63631 0.21547 0.0
H547 H 0.0483 0.64715 0.19979 0.0
H548 H 0.03059 0.60441 0.06365 0.0
C549 C 0.94943 0.57468 0.11121 0.0
C550 C 0.93643 0.57574 0.15131 0.0
C551 C 0.94494 0.5917 0.19086 0.0
C552 C 0.9662 0.6059 0.19167 0.0
C553 C 0.97868 0.60403 0.15242 0.0
C554 C 0.97055 0.58889 0.11266 0.0
C555 C 0.98734 0.58892 0.07815 0.0
C556 C 0.98681 0.56811 0.08215 0.0
C557 C 0.98577 0.59444 0.01839 0.0
C558 C 0.00625 0.60598 0.10583 0.0
C559 C 0.00099 0.61472 0.14811 0.0
C560 C 0.01592 0.6298 0.1819 0.0
C561 C 0.03671 0.63584 0.17274 0.0
C562 C 0.04234 0.62669 0.13038 0.0
C563 C 0.02686 0.61188 0.09599 0.0
H564 H 0.41146 0.03968 0.40901 0.0
H565 H 0.39122 0.05372 0.56111 0.0
H566 H 0.36555 0.01681 0.57266 0.0
H567 H 0.35995 -0.00423 0.3657 0.0
H568 H 0.3717 0.98168 0.33868 0.0
H569 H 0.38557 0.00948 0.33725 0.0
H570 H 0.41592 0.00979 0.3894 0.0
H571 H 0.40217 0.9821 0.39127 0.0
H572 H 0.41107 -0.00347 0.45408 0.0
H573 H 0.34605 0.97802 0.57473 0.0
H574 H 0.33456 0.9409 0.56725 0.0
H575 H 0.3677 0.95243 0.41381 0.0
C576 C 0.40122 0.03512 0.44393 0.0
C577 C 0.40331 0.04962 0.48405 0.0
C578 C 0.38984 0.04292 0.52967 0.0
C579 C 0.37516 0.02198 0.5365 0.0
C580 C 0.37402 0.00798 0.49709 0.0
C581 C 0.38658 0.01432 0.4514 0.0
C582 C 0.38395 -0.00388 0.41812 0.0
C583 C 0.37474 -0.00426 0.36159 0.0
C584 C 0.40449 -0.00385 0.41297 0.0
C585 C 0.3687 0.97851 0.45355 0.0
C586 C 0.36283 0.98561 0.49839 0.0
C587 C 0.35021 0.97226 0.53923 0.0
C588 C 0.34379 0.95119 0.53468 0.0
C589 C 0.35017 0.94373 0.48985 0.0
C590 C 0.36233 0.95757 0.44822 0.0
H591 H 0.41075 0.37819 0.75184 0.0
H592 H 0.38381 0.33801 0.89235 0.0
H593 H 0.35864 0.35009 0.90176 0.0
H594 H 0.40952 0.41983 0.80508 0.0
H595 H 0.4035 0.42814 0.74187 0.0
H596 H 0.41693 0.41382 0.74052 0.0
H597 H 0.38876 0.38651 0.67714 0.0
H598 H 0.37526 0.40084 0.67802 0.0
H599 H 0.36211 0.37406 0.69789 0.0
H600 H 0.33961 0.37006 0.90317 0.0
H601 H 0.32842 0.396 0.89625 0.0
H602 H 0.36803 0.4229 0.75482 0.0
C603 C 0.39922 0.37148 0.78373 0.0
C604 C 0.39921 0.35709 0.82123 0.0
C605 C 0.38405 0.34897 0.86292 0.0
C606 C 0.36966 0.35571 0.86853 0.0
C607 C 0.37053 0.37042 0.83183 0.0
C608 C 0.38483 0.37806 0.78993 0.0
C609 C 0.3839 0.39512 0.75905 0.0
C610 C 0.40469 0.41542 0.76185 0.0
C611 C 0.3771 0.38874 0.69949 0.0
C612 C 0.36741 0.39648 0.79141 0.0
C613 C 0.35963 0.38193 0.83272 0.0
C614 C 0.34532 0.38128 0.87036 0.0
C615 C 0.33908 0.39611 0.86617 0.0
C616 C 0.34728 0.41145 0.82488 0.0
C617 C 0.36127 0.41126 0.78647 0.0
loop_
_geom_bond_atom_site_label_1
_geom_bond_atom_site_label_2
_geom_bond_distance
_geom_bond_site_symmetry_2
_ccdc_geom_bond_type
O0 Cd1 2.300 . S
O0 C7 1.275 . S
Cd1 O0 2.300 . S
Cd1 O9 2.381 . S
Cd1 O10 2.378 . S
O2 Cd3 2.385 . S
O2 C7 1.255 . S
Cd3 O2 2.385 . S
Cd3 O4 2.317 . S
O4 Cd3 2.317 . S
O4 C5 1.232 . S
C5 O4 1.232 . S
C5 O6 1.218 . S
O6 C5 1.218 . S
C7 O0 1.275 . S
C7 O2 1.255 . S
C8 O9 1.258 . S
C8 O10 1.256 . S
O9 Cd1 2.381 . S
O9 C8 1.258 . S
O10 Cd1 2.378 . S
O10 C8 1.256 . S
O11 Cd12 2.300 . S
O11 C18 1.275 . S
Cd12 O11 2.300 . S
Cd12 O20 2.381 . S
Cd12 O21 2.378 . S
O13 Cd14 2.385 . S
O13 C18 1.255 . S
Cd14 O13 2.385 . S
Cd14 O15 2.317 . S
O15 Cd14 2.317 . S
O15 C16 1.232 . S
C16 O15 1.232 . S
C16 O17 1.218 . S
O17 C16 1.218 . S
C18 O11 1.275 . S
C18 O13 1.255 . S
C19 O20 1.258 . S
C19 O21 1.256 . S
O20 Cd12 2.381 . S
O20 C19 1.258 . S
O21 Cd12 2.378 . S
O21 C19 1.256 . S
O22 Cd23 2.300 . S
O22 C29 1.275 . S
Cd23 O22 2.300 . S
Cd23 O31 2.381 . S
Cd23 O32 2.378 . S
O24 Cd25 2.385 . S
O24 C29 1.255 . S
Cd25 O24 2.385 . S
Cd25 O26 2.317 . S
O26 Cd25 2.317 . S
O26 C27 1.232 . S
C27 O26 1.232 . S
C27 O28 1.218 . S
O28 C27 1.218 . S
C29 O22 1.275 . S
C29 O24 1.255 . S
C30 O31 1.258 . S
C30 O32 1.256 . S
O31 Cd23 2.381 . S
O31 C30 1.258 . S
O32 Cd23 2.378 . S
O32 C30 1.256 . S
O33 Cd34 2.300 . S
O33 C40 1.275 . S
Cd34 O33 2.300 . S
Cd34 O42 2.381 . S
Cd34 O43 2.378 . S
O35 Cd36 2.385 . S
O35 C40 1.255 . S
Cd36 O35 2.385 . S
Cd36 O37 2.317 . S
O37 Cd36 2.317 . S
O37 C38 1.232 . S
C38 O37 1.232 . S
C38 O39 1.218 . S
O39 C38 1.218 . S
C40 O33 1.275 . S
C40 O35 1.255 . S
C41 O42 1.258 . S
C41 O43 1.256 . S
O42 Cd34 2.381 . S
O42 C41 1.258 . S
O43 Cd34 2.378 . S
O43 C41 1.256 . S
O44 Cd45 2.300 . S
O44 C51 1.275 . S
Cd45 O44 2.300 . S
Cd45 O53 2.381 . S
Cd45 O54 2.378 . S
O46 Cd47 2.385 . S
O46 C51 1.255 . S
Cd47 O46 2.385 . S
Cd47 O48 2.317 . S
O48 Cd47 2.317 . S
O48 C49 1.232 . S
C49 O48 1.232 . S
C49 O50 1.218 . S
O50 C49 1.218 . S
C51 O44 1.275 . S
C51 O46 1.255 . S
C52 O53 1.258 . S
C52 O54 1.256 . S
O53 Cd45 2.381 . S
O53 C52 1.258 . S
O54 Cd45 2.378 . S
O54 C52 1.256 . S
O55 Cd56 2.300 . S
O55 C62 1.275 . S
Cd56 O55 2.300 . S
Cd56 O64 2.381 . S
Cd56 O65 2.378 . S
O57 Cd58 2.385 . S
O57 C62 1.255 . S
Cd58 O57 2.385 . S
Cd58 O59 2.317 . S
O59 Cd58 2.317 . S
O59 C60 1.232 . S
C60 O59 1.232 . S
C60 O61 1.218 . S
O61 C60 1.218 . S
C62 O55 1.275 . S
C62 O57 1.255 . S
C63 O64 1.258 . S
C63 O65 1.256 . S
O64 Cd56 2.381 . S
O64 C63 1.258 . S
O65 Cd56 2.378 . S
O65 C63 1.256 . S
O66 Cd67 2.300 . S
O66 C73 1.275 . S
Cd67 O66 2.300 . S
Cd67 O75 2.381 . S
Cd67 O76 2.378 . S
O68 Cd69 2.385 . S
O68 C73 1.255 . S
Cd69 O68 2.385 . S
Cd69 O70 2.317 . S
O70 Cd69 2.317 . S
O70 C71 1.232 . S
C71 O70 1.232 . S
C71 O72 1.218 . S
O72 C71 1.218 . S
C73 O66 1.275 . S
C73 O68 1.255 . S
C74 O75 1.258 . S
C74 O76 1.256 . S
O75 Cd67 2.381 . S
O75 C74 1.258 . S
O76 Cd67 2.378 . S
O76 C74 1.256 . S
O77 Cd78 2.300 . S
O77 C84 1.275 . S
Cd78 O77 2.300 . S
Cd78 O86 2.381 . S
Cd78 O87 2.378 . S
O79 Cd80 2.385 . S
O79 C84 1.255 . S
Cd80 O79 2.385 . S
Cd80 O81 2.317 . S
O81 Cd80 2.317 . S
O81 C82 1.232 . S
C82 O81 1.232 . S
C82 O83 1.218 . S
O83 C82 1.218 . S
C84 O77 1.275 . S
C84 O79 1.255 . S
C85 O86 1.258 . S
C85 O87 1.256 . S
O86 Cd78 2.381 . S
O86 C85 1.258 . S
O87 Cd78 2.378 . S
O87 C85 1.256 . S
O88 Cd89 2.300 . S
O88 C95 1.275 . S
Cd89 O88 2.300 . S
Cd89 O97 2.381 . S
Cd89 O98 2.378 . S
O90 Cd91 2.385 . S
O90 C95 1.255 . S
Cd91 O90 2.385 . S
Cd91 O92 2.317 . S
O92 Cd91 2.317 . S
O92 C93 1.232 . S
C93 O92 1.232 . S
C93 O94 1.218 . S
O94 C93 1.218 . S
C95 O88 1.275 . S
C95 O90 1.255 . S
C96 O97 1.258 . S
C96 O98 1.256 . S
O97 Cd89 2.381 . S
O97 C96 1.258 . S
O98 Cd89 2.378 . S
O98 C96 1.256 . S
O99 Cd100 2.300 . S
O99 C106 1.275 . S
Cd100 O99 2.300 . S
Cd100 O108 2.381 . S
Cd100 O109 2.378 . S
O101 Cd102 2.385 . S
O101 C106 1.255 . S
Cd102 O101 2.385 . S
Cd102 O103 2.317 . S
O103 Cd102 2.317 . S
O103 C104 1.232 . S
C104 O103 1.232 . S
C104 O105 1.218 . S
O105 C104 1.218 . S
C106 O99 1.275 . S
C106 O101 1.255 . S
C107 O108 1.258 . S
C107 O109 1.256 . S
O108 Cd100 2.381 . S
O108 C107 1.258 . S
O109 Cd100 2.378 . S
O109 C107 1.256 . S
O110 Cd111 2.300 . S
O110 C117 1.275 . S
Cd111 O110 2.300 . S
Cd111 O119 2.381 . S
Cd111 O120 2.378 . S
O112 Cd113 2.385 . S
O112 C117 1.255 . S
Cd113 O112 2.385 . S
Cd113 O114 2.317 . S
O114 Cd113 2.317 . S
O114 C115 1.232 . S
C115 O114 1.232 . S
C115 O116 1.218 . S
O116 C115 1.218 . S
C117 O110 1.275 . S
C117 O112 1.255 . S
C118 O119 1.258 . S
C118 O120 1.256 . S
O119 Cd111 2.381 . S
O119 C118 1.258 . S
O120 Cd111 2.378 . S
O120 C118 1.256 . S
O121 Cd122 2.300 . S
O121 C128 1.275 . S
Cd122 O121 2.300 . S
Cd122 O130 2.381 . S
Cd122 O131 2.378 . S
O123 Cd124 2.385 . S
O123 C128 1.255 . S
Cd124 O123 2.385 . S
Cd124 O125 2.317 . S
O125 Cd124 2.317 . S
O125 C126 1.232 . S
C126 O125 1.232 . S
C126 O127 1.218 . S
O127 C126 1.218 . S
C128 O121 1.275 . S
C128 O123 1.255 . S
C129 O130 1.258 . S
C129 O131 1.256 . S
O130 Cd122 2.381 . S
O130 C129 1.258 . S
O131 Cd122 2.378 . S
O131 C129 1.256 . S
H132 C144 0.930 . S
H133 C146 0.930 . S
H134 C147 0.930 . S
H135 C151 0.959 . S
H136 C151 0.959 . S
H137 C151 0.961 . S
H138 C152 0.960 . S
H139 C152 0.961 . S
H140 C152 0.959 . S
H141 C155 0.929 1_556 S
H142 C156 0.931 . S
H143 C158 0.930 . S
C144 H132 0.930 . S
C144 C145 1.399 . S
C144 C149 1.399 . S
C145 C144 1.399 . S
C145 C146 1.376 . S
C146 H133 0.930 . S
C146 C145 1.376 . S
C146 C147 1.388 . S
C147 H134 0.930 . S
C147 C146 1.388 . S
C147 C148 1.390 . S
C148 C147 1.390 . S
C148 C149 1.394 . S
C148 C154 1.465 1_556 S
C149 C144 1.399 . S
C149 C148 1.394 . S
C149 C150 1.516 1_556 S
C150 C149 1.516 1_554 S
C150 C151 1.502 . S
C150 C152 1.561 1_554 S
C150 C153 1.526 . S
C151 H135 0.959 . S
C151 H136 0.959 . S
C151 H137 0.961 . S
C151 C150 1.502 . S
C152 H138 0.960 . S
C152 H139 0.961 . S
C152 H140 0.959 . S
C152 C150 1.561 1_556 S
C153 C150 1.526 . S
C153 C154 1.396 . S
C153 C158 1.390 . S
C154 C148 1.465 1_554 S
C154 C153 1.396 . S
C154 C155 1.399 . S
C155 H141 0.929 1_554 S
C155 C154 1.399 . S
C155 C156 1.385 . S
C156 H142 0.931 . S
C156 C155 1.385 . S
C156 C157 1.389 . S
C157 C156 1.389 . S
C157 C158 1.387 . S
C158 H143 0.930 . S
C158 C153 1.390 . S
C158 C157 1.387 . S
H159 C171 0.930 . S
H160 C173 0.930 . S
H161 C174 0.930 . S
H162 C178 0.959 . S
H163 C178 0.959 . S
H164 C178 0.961 . S
H165 C179 0.960 . S
H166 C179 0.961 . S
H167 C179 0.959 . S
H168 C182 0.929 . S
H169 C183 0.931 . S
H170 C185 0.930 . S
C171 H159 0.930 . S
C171 C172 1.399 . S
C171 C176 1.399 . S
C172 C171 1.399 . S
C172 C173 1.376 . S
C173 H160 0.930 . S
C173 C172 1.376 . S
C173 C174 1.388 . S
C174 H161 0.930 . S
C174 C173 1.388 . S
C174 C175 1.390 . S
C175 C174 1.390 . S
C175 C176 1.394 . S
C175 C181 1.465 . S
C176 C171 1.399 . S
C176 C175 1.394 . S
C176 C177 1.516 . S
C177 C176 1.516 . S
C177 C178 1.502 . S
C177 C179 1.561 . S
C177 C180 1.526 . S
C178 H162 0.959 . S
C178 H163 0.959 . S
C178 H164 0.961 . S
C178 C177 1.502 . S
C179 H165 0.960 . S
C179 H166 0.961 . S
C179 H167 0.959 . S
C179 C177 1.561 . S
C180 C177 1.526 . S
C180 C181 1.396 . S
C180 C185 1.390 . S
C181 C175 1.465 . S
C181 C180 1.396 . S
C181 C182 1.399 . S
C182 H168 0.929 . S
C182 C181 1.399 . S
C182 C183 1.385 . S
C183 H169 0.931 . S
C183 C182 1.385 . S
C183 C184 1.389 . S
C184 C183 1.389 . S
C184 C185 1.387 . S
C185 H170 0.930 . S
C185 C180 1.390 . S
C185 C184 1.387 . S
H186 C198 0.930 . S
H187 C200 0.930 . S
H188 C201 0.930 . S
H189 C205 0.959 . S
H190 C205 0.959 . S
H191 C205 0.961 . S
H192 C206 0.960 . S
H193 C206 0.961 . S
H194 C206 0.959 . S
H195 C209 0.929 . S
H196 C210 0.931 . S
H197 C212 0.930 . S
C198 H186 0.930 . S
C198 C199 1.399 . S
C198 C203 1.399 . S
C199 C198 1.399 . S
C199 C200 1.376 . S
C200 H187 0.930 . S
C200 C199 1.376 . S
C200 C201 1.388 . S
C201 H188 0.930 . S
C201 C200 1.388 . S
C201 C202 1.390 . S
C202 C201 1.390 . S
C202 C203 1.394 . S
C202 C208 1.465 . S
C203 C198 1.399 . S
C203 C202 1.394 . S
C203 C204 1.516 . S
C204 C203 1.516 . S
C204 C205 1.502 . S
C204 C206 1.561 . S
C204 C207 1.526 . S
C205 H189 0.959 . S
C205 H190 0.959 . S
C205 H191 0.961 . S
C205 C204 1.502 . S
C206 H192 0.960 . S
C206 H193 0.961 . S
C206 H194 0.959 . S
C206 C204 1.561 . S
C207 C204 1.526 . S
C207 C208 1.396 . S
C207 C212 1.390 . S
C208 C202 1.465 . S
C208 C207 1.396 . S
C208 C209 1.399 . S
C209 H195 0.929 . S
C209 C208 1.399 . S
C209 C210 1.385 . S
C210 H196 0.931 . S
C210 C209 1.385 . S
C210 C211 1.389 . S
C211 C210 1.389 . S
C211 C212 1.387 . S
C212 H197 0.930 . S
C212 C207 1.390 . S
C212 C211 1.387 . S
H213 C225 0.930 . S
H214 C227 0.930 . S
H215 C228 0.930 . S
H216 C232 0.959 . S
H217 C232 0.959 . S
H218 C232 0.961 . S
H219 C233 0.960 . S
H220 C233 0.961 . S
H221 C233 0.959 . S
H222 C236 0.929 . S
H223 C237 0.931 . S
H224 C239 0.930 . S
C225 H213 0.930 . S
C225 C226 1.399 . S
C225 C230 1.399 . S
C226 C225 1.399 . S
C226 C227 1.376 . S
C227 H214 0.930 . S
C227 C226 1.376 . S
C227 C228 1.388 . S
C228 H215 0.930 . S
C228 C227 1.388 . S
C228 C229 1.390 . S
C229 C228 1.390 . S
C229 C230 1.394 . S
C229 C235 1.465 . S
C230 C225 1.399 . S
C230 C229 1.394 . S
C230 C231 1.516 1_556 S
C231 C230 1.516 1_554 S
C231 C232 1.502 . S
C231 C233 1.561 . S
C231 C234 1.526 . S
C232 H216 0.959 . S
C232 H217 0.959 . S
C232 H218 0.961 . S
C232 C231 1.502 . S
C233 H219 0.960 . S
C233 H220 0.961 . S
C233 H221 0.959 . S
C233 C231 1.561 . S
C234 C231 1.526 . S
C234 C235 1.396 1_554 S
C234 C239 1.390 . S
C235 C229 1.465 . S
C235 C234 1.396 1_556 S
C235 C236 1.399 . S
C236 H222 0.929 . S
C236 C235 1.399 . S
C236 C237 1.385 1_556 S
C237 H223 0.931 . S
C237 C236 1.385 1_554 S
C237 C238 1.389 . S
C238 C237 1.389 . S
C238 C239 1.387 . S
C239 H224 0.930 . S
C239 C234 1.390 . S
C239 C238 1.387 . S
H240 C252 0.930 . S
H241 C254 0.930 . S
H242 C255 0.930 . S
H243 C259 0.959 . S
H244 C259 0.959 . S
H245 C259 0.961 . S
H246 C260 0.960 . S
H247 C260 0.961 . S
H248 C260 0.959 . S
H249 C263 0.929 . S
H250 C264 0.931 . S
H251 C266 0.930 . S
C252 H240 0.930 . S
C252 C253 1.399 . S
C252 C257 1.399 . S
C253 C252 1.399 . S
C253 C254 1.376 . S
C254 H241 0.930 . S
C254 C253 1.376 . S
C254 C255 1.388 . S
C255 H242 0.930 . S
C255 C254 1.388 . S
C255 C256 1.390 . S
C256 C255 1.390 . S
C256 C257 1.394 . S
C256 C262 1.465 . S
C257 C252 1.399 . S
C257 C256 1.394 . S
C257 C258 1.516 . S
C258 C257 1.516 . S
C258 C259 1.502 . S
C258 C260 1.561 . S
C258 C261 1.526 . S
C259 H243 0.959 . S
C259 H244 0.959 . S
C259 H245 0.961 . S
C259 C258 1.502 . S
C260 H246 0.960 . S
C260 H247 0.961 . S
C260 H248 0.959 . S
C260 C258 1.561 . S
C261 C258 1.526 . S
C261 C262 1.396 . S
C261 C266 1.390 . S
C262 C256 1.465 . S
C262 C261 1.396 . S
C262 C263 1.399 . S
C263 H249 0.929 . S
C263 C262 1.399 . S
C263 C264 1.385 . S
C264 H250 0.931 . S
C264 C263 1.385 . S
C264 C265 1.389 . S
C265 C264 1.389 . S
C265 C266 1.387 . S
C266 H251 0.930 . S
C266 C261 1.390 . S
C266 C265 1.387 . S
H267 C279 0.930 . S
H268 C281 0.930 . S
H269 C282 0.930 . S
H270 C286 0.959 . S
H271 C286 0.959 . S
H272 C286 0.961 . S
H273 C287 0.960 . S
H274 C287 0.961 . S
H275 C287 0.959 . S
H276 C290 0.929 . S
H277 C291 0.931 . S
H278 C293 0.930 . S
C279 H267 0.930 . S
C279 C280 1.399 . S
C279 C284 1.399 . S
C280 C279 1.399 . S
C280 C281 1.376 . S
C281 H268 0.930 . S
C281 C280 1.376 . S
C281 C282 1.388 . S
C282 H269 0.930 . S
C282 C281 1.388 . S
C282 C283 1.390 . S
C283 C282 1.390 . S
C283 C284 1.394 . S
C283 C289 1.465 . S
C284 C279 1.399 . S
C284 C283 1.394 . S
C284 C285 1.516 . S
C285 C284 1.516 . S
C285 C286 1.502 . S
C285 C287 1.561 . S
C285 C288 1.526 . S
C286 H270 0.959 . S
C286 H271 0.959 . S
C286 H272 0.961 . S
C286 C285 1.502 . S
C287 H273 0.960 . S
C287 H274 0.961 . S
C287 H275 0.959 . S
C287 C285 1.561 . S
C288 C285 1.526 . S
C288 C289 1.396 . S
C288 C293 1.390 . S
C289 C283 1.465 . S
C289 C288 1.396 . S
C289 C290 1.399 . S
C290 H276 0.929 . S
C290 C289 1.399 . S
C290 C291 1.385 . S
C291 H277 0.931 . S
C291 C290 1.385 . S
C291 C292 1.389 . S
C292 C291 1.389 . S
C292 C293 1.387 . S
C293 H278 0.930 . S
C293 C288 1.390 . S
C293 C292 1.387 . S
H294 C306 0.930 . S
H295 C308 0.930 . S
H296 C309 0.930 . S
H297 C313 0.959 . S
H298 C313 0.959 . S
H299 C313 0.961 . S
H300 C314 0.960 . S
H301 C314 0.961 . S
H302 C314 0.959 . S
H303 C317 0.929 . S
H304 C318 0.931 . S
H305 C320 0.930 . S
C306 H294 0.930 . S
C306 C307 1.399 . S
C306 C311 1.399 . S
C307 C306 1.399 . S
C307 C308 1.376 . S
C308 H295 0.930 . S
C308 C307 1.376 . S
C308 C309 1.388 . S
C309 H296 0.930 . S
C309 C308 1.388 . S
C309 C310 1.390 . S
C310 C309 1.390 . S
C310 C311 1.394 . S
C310 C316 1.465 . S
C311 C306 1.399 . S
C311 C310 1.394 . S
C311 C312 1.516 . S
C312 C311 1.516 . S
C312 C313 1.502 . S
C312 C314 1.561 . S
C312 C315 1.526 . S
C313 H297 0.959 . S
C313 H298 0.959 . S
C313 H299 0.961 . S
C313 C312 1.502 . S
C314 H300 0.960 . S
C314 H301 0.961 . S
C314 H302 0.959 . S
C314 C312 1.561 . S
C315 C312 1.526 . S
C315 C316 1.396 . S
C315 C320 1.390 . S
C316 C310 1.465 . S
C316 C315 1.396 . S
C316 C317 1.399 . S
C317 H303 0.929 . S
C317 C316 1.399 . S
C317 C318 1.385 . S
C318 H304 0.931 . S
C318 C317 1.385 . S
C318 C319 1.389 . S
C319 C318 1.389 . S
C319 C320 1.387 . S
C320 H305 0.930 . S
C320 C315 1.390 . S
C320 C319 1.387 . S
H321 C333 0.930 . S
H322 C335 0.930 . S
H323 C336 0.930 . S
H324 C340 0.959 . S
H325 C340 0.959 . S
H326 C340 0.961 . S
H327 C341 0.960 . S
H328 C341 0.961 . S
H329 C341 0.959 . S
H330 C344 0.929 . S
H331 C345 0.931 . S
H332 C347 0.930 . S
C333 H321 0.930 . S
C333 C334 1.399 . S
C333 C338 1.399 . S
C334 C333 1.399 . S
C334 C335 1.376 . S
C335 H322 0.930 . S
C335 C334 1.376 . S
C335 C336 1.388 . S
C336 H323 0.930 . S
C336 C335 1.388 . S
C336 C337 1.390 . S
C337 C336 1.390 . S
C337 C338 1.394 . S
C337 C343 1.465 . S
C338 C333 1.399 . S
C338 C337 1.394 . S
C338 C339 1.516 . S
C339 C338 1.516 . S
C339 C340 1.502 . S
C339 C341 1.561 . S
C339 C342 1.526 . S
C340 H324 0.959 . S
C340 H325 0.959 . S
C340 H326 0.961 . S
C340 C339 1.502 . S
C341 H327 0.960 . S
C341 H328 0.961 . S
C341 H329 0.959 . S
C341 C339 1.561 . S
C342 C339 1.526 . S
C342 C343 1.396 . S
C342 C347 1.390 . S
C343 C337 1.465 . S
C343 C342 1.396 . S
C343 C344 1.399 . S
C344 H330 0.929 . S
C344 C343 1.399 . S
C344 C345 1.385 . S
C345 H331 0.931 . S
C345 C344 1.385 . S
C345 C346 1.389 . S
C346 C345 1.389 . S
C346 C347 1.387 . S
C347 H332 0.930 . S
C347 C342 1.390 . S
C347 C346 1.387 . S
H348 C360 0.930 . S
H349 C362 0.930 . S
H350 C363 0.930 . S
H351 C367 0.959 . S
H352 C367 0.959 . S
H353 C367 0.961 . S
H354 C368 0.960 . S
H355 C368 0.961 . S
H356 C368 0.959 . S
H357 C371 0.929 . S
H358 C372 0.931 . S
H359 C374 0.930 . S
C360 H348 0.930 . S
C360 C361 1.399 . S
C360 C365 1.399 . S
C361 C360 1.399 . S
C361 C362 1.376 . S
C362 H349 0.930 . S
C362 C361 1.376 . S
C362 C363 1.388 . S
C363 H350 0.930 . S
C363 C362 1.388 . S
C363 C364 1.390 . S
C364 C363 1.390 . S
C364 C365 1.394 . S
C364 C370 1.465 . S
C365 C360 1.399 . S
C365 C364 1.394 . S
C365 C366 1.516 . S
C366 C365 1.516 . S
C366 C367 1.502 . S
C366 C368 1.561 . S
C366 C369 1.526 . S
C367 H351 0.959 . S
C367 H352 0.959 . S
C367 H353 0.961 . S
C367 C366 1.502 . S
C368 H354 0.960 . S
C368 H355 0.961 . S
C368 H356 0.959 . S
C368 C366 1.561 . S
C369 C366 1.526 . S
C369 C370 1.396 . S
C369 C374 1.390 . S
C370 C364 1.465 . S
C370 C369 1.396 . S
C370 C371 1.399 . S
C371 H357 0.929 . S
C371 C370 1.399 . S
C371 C372 1.385 . S
C372 H358 0.931 . S
C372 C371 1.385 . S
C372 C373 1.389 . S
C373 C372 1.389 . S
C373 C374 1.387 . S
C374 H359 0.930 . S
C374 C369 1.390 . S
C374 C373 1.387 . S
H375 C387 0.930 . S
H376 C389 0.930 . S
H377 C390 0.930 . S
H378 C394 0.959 . S
H379 C394 0.959 . S
H380 C394 0.961 . S
H381 C395 0.960 . S
H382 C395 0.961 . S
H383 C395 0.959 . S
H384 C398 0.929 . S
H385 C399 0.931 . S
H386 C401 0.930 . S
C387 H375 0.930 . S
C387 C388 1.399 . S
C387 C392 1.399 . S
C388 C387 1.399 . S
C388 C389 1.376 . S
C389 H376 0.930 . S
C389 C388 1.376 . S
C389 C390 1.388 . S
C390 H377 0.930 . S
C390 C389 1.388 . S
C390 C391 1.390 . S
C391 C390 1.390 . S
C391 C392 1.394 . S
C391 C397 1.465 . S
C392 C387 1.399 . S
C392 C391 1.394 . S
C392 C393 1.516 . S
C393 C392 1.516 . S
C393 C394 1.502 . S
C393 C395 1.561 . S
C393 C396 1.526 . S
C394 H378 0.959 . S
C394 H379 0.959 . S
C394 H380 0.961 . S
C394 C393 1.502 . S
C395 H381 0.960 . S
C395 H382 0.961 . S
C395 H383 0.959 . S
C395 C393 1.561 . S
C396 C393 1.526 . S
C396 C397 1.396 . S
C396 C401 1.390 . S
C397 C391 1.465 . S
C397 C396 1.396 . S
C397 C398 1.399 . S
C398 H384 0.929 . S
C398 C397 1.399 . S
C398 C399 1.385 . S
C399 H385 0.931 . S
C399 C398 1.385 . S
C399 C400 1.389 . S
C400 C399 1.389 . S
C400 C401 1.387 . S
C401 H386 0.930 . S
C401 C396 1.390 . S
C401 C400 1.387 . S
H402 C414 0.930 . S
H403 C416 0.930 . S
H404 C417 0.930 . S
H405 C421 0.959 . S
H406 C421 0.959 . S
H407 C421 0.961 . S
H408 C422 0.960 . S
H409 C422 0.961 . S
H410 C422 0.959 . S
H411 C425 0.929 . S
H412 C426 0.931 . S
H413 C428 0.930 . S
C414 H402 0.930 . S
C414 C415 1.399 . S
C414 C419 1.399 . S
C415 C414 1.399 . S
C415 C416 1.376 . S
C416 H403 0.930 . S
C416 C415 1.376 . S
C416 C417 1.388 . S
C417 H404 0.930 . S
C417 C416 1.388 . S
C417 C418 1.390 . S
C418 C417 1.390 . S
C418 C419 1.394 . S
C418 C424 1.465 . S
C419 C414 1.399 . S
C419 C418 1.394 . S
C419 C420 1.516 . S
C420 C419 1.516 . S
C420 C421 1.502 . S
C420 C422 1.561 . S
C420 C423 1.526 . S
C421 H405 0.959 . S
C421 H406 0.959 . S
C421 H407 0.961 . S
C421 C420 1.502 . S
C422 H408 0.960 . S
C422 H409 0.961 . S
C422 H410 0.959 . S
C422 C420 1.561 . S
C423 C420 1.526 . S
C423 C424 1.396 . S
C423 C428 1.390 . S
C424 C418 1.465 . S
C424 C423 1.396 . S
C424 C425 1.399 . S
C425 H411 0.929 . S
C425 C424 1.399 . S
C425 C426 1.385 . S
C426 H412 0.931 . S
C426 C425 1.385 . S
C426 C427 1.389 . S
C427 C426 1.389 . S
C427 C428 1.387 . S
C428 H413 0.930 . S
C428 C423 1.390 . S
C428 C427 1.387 . S
H429 C441 0.930 . S
H430 C443 0.930 . S
H431 C444 0.930 . S
H432 C448 0.959 . S
H433 C448 0.959 . S
H434 C448 0.961 . S
H435 C449 0.960 . S
H436 C449 0.961 . S
H437 C449 0.959 . S
H438 C452 0.929 . S
H439 C453 0.931 . S
H440 C455 0.930 . S
C441 H429 0.930 . S
C441 C442 1.399 . S
C441 C446 1.399 . S
C442 C441 1.399 . S
C442 C443 1.376 . S
C443 H430 0.930 . S
C443 C442 1.376 . S
C443 C444 1.388 . S
C444 H431 0.930 . S
C444 C443 1.388 . S
C444 C445 1.390 . S
C445 C444 1.390 . S
C445 C446 1.394 . S
C445 C451 1.465 . S
C446 C441 1.399 . S
C446 C445 1.394 . S
C446 C447 1.516 . S
C447 C446 1.516 . S
C447 C448 1.502 . S
C447 C449 1.561 . S
C447 C450 1.526 . S
C448 H432 0.959 . S
C448 H433 0.959 . S
C448 H434 0.961 . S
C448 C447 1.502 . S
C449 H435 0.960 . S
C449 H436 0.961 . S
C449 H437 0.959 . S
C449 C447 1.561 . S
C450 C447 1.526 . S
C450 C451 1.396 . S
C450 C455 1.390 . S
C451 C445 1.465 . S
C451 C450 1.396 . S
C451 C452 1.399 . S
C452 H438 0.929 . S
C452 C451 1.399 . S
C452 C453 1.385 . S
C453 H439 0.931 . S
C453 C452 1.385 . S
C453 C454 1.389 . S
C454 C453 1.389 . S
C454 C455 1.387 . S
C455 H440 0.930 . S
C455 C450 1.390 . S
C455 C454 1.387 . S
H456 C468 0.930 . S
H457 C470 0.930 . S
H458 C471 0.930 . S
H459 C475 0.959 1_655 S
H460 C475 0.959 1_655 S
H461 C475 0.961 . S
H462 C476 0.960 . S
H463 C476 0.961 1_655 S
H464 C476 0.959 . S
H465 C479 0.929 . S
H466 C480 0.931 . S
H467 C482 0.930 . S
C468 H456 0.930 . S
C468 C469 1.399 . S
C468 C473 1.399 . S
C469 C468 1.399 . S
C469 C470 1.376 . S
C470 H457 0.930 . S
C470 C469 1.376 . S
C470 C471 1.388 . S
C471 H458 0.930 . S
C471 C470 1.388 . S
C471 C472 1.390 . S
C472 C471 1.390 . S
C472 C473 1.394 . S
C472 C478 1.465 1_455 S
C473 C468 1.399 . S
C473 C472 1.394 . S
C473 C474 1.516 . S
C474 C473 1.516 . S
C474 C475 1.502 . S
C474 C476 1.561 . S
C474 C477 1.526 1_455 S
C475 H459 0.959 1_455 S
C475 H460 0.959 1_455 S
C475 H461 0.961 . S
C475 C474 1.502 . S
C476 H462 0.960 . S
C476 H463 0.961 1_455 S
C476 H464 0.959 . S
C476 C474 1.561 . S
C477 C474 1.526 1_655 S
C477 C478 1.396 . S
C477 C482 1.390 . S
C478 C472 1.465 1_655 S
C478 C477 1.396 . S
C478 C479 1.399 . S
C479 H465 0.929 . S
C479 C478 1.399 . S
C479 C480 1.385 . S
C480 H466 0.931 . S
C480 C479 1.385 . S
C480 C481 1.389 . S
C481 C480 1.389 . S
C481 C482 1.387 . S
C482 H467 0.930 . S
C482 C477 1.390 . S
C482 C481 1.387 . S
H483 C495 0.930 . S
H484 C497 0.930 . S
H485 C498 0.930 . S
H486 C502 0.964 1_565 S
H487 C502 0.959 1_565 S
H488 C502 0.961 . S
H489 C503 0.960 . S
H490 C503 0.961 1_565 S
H491 C503 0.959 . S
H492 C506 0.929 . S
H493 C507 0.931 . S
H494 C509 0.930 . S
C495 H483 0.930 . S
C495 C496 1.399 . S
C495 C500 1.399 . S
C496 C495 1.399 . S
C496 C497 1.376 . S
C497 H484 0.930 . S
C497 C496 1.376 . S
C497 C498 1.388 . S
C498 H485 0.930 . S
C498 C497 1.388 . S
C498 C499 1.390 . S
C499 C498 1.390 . S
C499 C500 1.394 . S
C499 C505 1.465 1_545 S
C500 C495 1.399 . S
C500 C499 1.394 . S
C500 C501 1.516 . S
C501 C500 1.516 . S
C501 C502 1.502 . S
C501 C503 1.561 . S
C501 C504 1.526 1_545 S
C502 H486 0.964 1_545 S
C502 H487 0.959 1_545 S
C502 H488 0.961 . S
C502 C501 1.502 . S
C503 H489 0.960 . S
C503 H490 0.961 1_545 S
C503 H491 0.959 . S
C503 C501 1.561 . S
C504 C501 1.526 1_565 S
C504 C505 1.396 . S
C504 C509 1.390 . S
C505 C499 1.465 1_565 S
C505 C504 1.396 . S
C505 C506 1.399 . S
C506 H492 0.929 . S
C506 C505 1.399 . S
C506 C507 1.385 . S
C507 H493 0.931 . S
C507 C506 1.385 . S
C507 C508 1.389 . S
C508 C507 1.389 . S
C508 C509 1.387 . S
C509 H494 0.930 . S
C509 C504 1.390 . S
C509 C508 1.387 . S
H510 C522 0.930 . S
H511 C524 0.930 . S
H512 C525 0.930 . S
H513 C529 0.959 . S
H514 C529 0.959 . S
H515 C529 0.961 . S
H516 C530 0.960 . S
H517 C530 0.961 . S
H518 C530 0.959 . S
H519 C533 0.929 . S
H520 C534 0.931 . S
H521 C536 0.930 . S
C522 H510 0.930 . S
C522 C523 1.399 . S
C522 C527 1.399 . S
C523 C522 1.399 . S
C523 C524 1.376 . S
C524 H511 0.930 . S
C524 C523 1.376 . S
C524 C525 1.388 . S
C525 H512 0.930 . S
C525 C524 1.388 . S
C525 C526 1.390 . S
C526 C525 1.390 . S
C526 C527 1.394 . S
C526 C532 1.465 . S
C527 C522 1.399 . S
C527 C526 1.394 . S
C527 C528 1.516 . S
C528 C527 1.516 . S
C528 C529 1.502 . S
C528 C530 1.561 . S
C528 C531 1.526 . S
C529 H513 0.959 . S
C529 H514 0.959 . S
C529 H515 0.961 . S
C529 C528 1.502 . S
C530 H516 0.960 . S
C530 H517 0.961 . S
C530 H518 0.959 . S
C530 C528 1.561 . S
C531 C528 1.526 . S
C531 C532 1.396 . S
C531 C536 1.390 . S
C532 C526 1.465 . S
C532 C531 1.396 . S
C532 C533 1.399 . S
C533 H519 0.929 . S
C533 C532 1.399 . S
C533 C534 1.385 . S
C534 H520 0.931 . S
C534 C533 1.385 . S
C534 C535 1.389 . S
C535 C534 1.389 . S
C535 C536 1.387 . S
C536 H521 0.930 . S
C536 C531 1.390 . S
C536 C535 1.387 . S
H537 C549 0.930 . S
H538 C551 0.930 . S
H539 C552 0.930 . S
H540 C556 0.959 1_455 S
H541 C556 0.959 1_455 S
H542 C556 0.961 . S
H543 C557 0.960 . S
H544 C557 0.961 1_455 S
H545 C557 0.959 . S
H546 C560 0.929 . S
H547 C561 0.931 . S
H548 C563 0.930 . S
C549 H537 0.930 . S
C549 C550 1.399 . S
C549 C554 1.399 . S
C550 C549 1.399 . S
C550 C551 1.376 . S
C551 H538 0.930 . S
C551 C550 1.376 . S
C551 C552 1.388 . S
C552 H539 0.930 . S
C552 C551 1.388 . S
C552 C553 1.390 . S
C553 C552 1.390 . S
C553 C554 1.394 . S
C553 C559 1.465 1_655 S
C554 C549 1.399 . S
C554 C553 1.394 . S
C554 C555 1.516 . S
C555 C554 1.516 . S
C555 C556 1.502 . S
C555 C557 1.561 . S
C555 C558 1.526 1_655 S
C556 H540 0.959 1_655 S
C556 H541 0.959 1_655 S
C556 H542 0.961 . S
C556 C555 1.502 . S
C557 H543 0.960 . S
C557 H544 0.961 1_655 S
C557 H545 0.959 . S
C557 C555 1.561 . S
C558 C555 1.526 1_455 S
C558 C559 1.396 . S
C558 C563 1.390 . S
C559 C553 1.465 1_455 S
C559 C558 1.396 . S
C559 C560 1.399 . S
C560 H546 0.929 . S
C560 C559 1.399 . S
C560 C561 1.385 . S
C561 H547 0.931 . S
C561 C560 1.385 . S
C561 C562 1.389 . S
C562 C561 1.389 . S
C562 C563 1.387 . S
C563 H548 0.930 . S
C563 C558 1.390 . S
C563 C562 1.387 . S
H564 C576 0.930 . S
H565 C578 0.930 . S
H566 C579 0.930 . S
H567 C583 0.959 . S
H568 C583 0.959 . S
H569 C583 0.961 1_545 S
H570 C584 0.960 1_545 S
H571 C584 0.961 . S
H572 C584 0.959 . S
H573 C587 0.929 . S
H574 C588 0.931 . S
H575 C590 0.930 . S
C576 H564 0.930 . S
C576 C577 1.399 . S
C576 C581 1.399 . S
C577 C576 1.399 . S
C577 C578 1.376 . S
C578 H565 0.930 . S
C578 C577 1.376 . S
C578 C579 1.388 . S
C579 H566 0.930 . S
C579 C578 1.388 . S
C579 C580 1.390 . S
C580 C579 1.390 . S
C580 C581 1.394 . S
C580 C586 1.465 1_545 S
C581 C576 1.399 . S
C581 C580 1.394 . S
C581 C582 1.516 1_545 S
C582 C581 1.516 1_565 S
C582 C583 1.502 . S
C582 C584 1.561 . S
C582 C585 1.526 . S
C583 H567 0.959 . S
C583 H568 0.959 . S
C583 H569 0.961 1_565 S
C583 C582 1.502 . S
C584 H570 0.960 1_565 S
C584 H571 0.961 . S
C584 H572 0.959 . S
C584 C582 1.561 . S
C585 C582 1.526 . S
C585 C586 1.396 . S
C585 C590 1.390 . S
C586 C580 1.465 1_565 S
C586 C585 1.396 . S
C586 C587 1.399 . S
C587 H573 0.929 . S
C587 C586 1.399 . S
C587 C588 1.385 . S
C588 H574 0.931 . S
C588 C587 1.385 . S
C588 C589 1.389 . S
C589 C588 1.389 . S
C589 C590 1.387 . S
C590 H575 0.930 . S
C590 C585 1.390 . S
C590 C589 1.387 . S
H591 C603 0.930 . S
H592 C605 0.930 . S
H593 C606 0.930 . S
H594 C610 0.959 . S
H595 C610 0.959 . S
H596 C610 0.961 . S
H597 C611 0.960 . S
H598 C611 0.961 . S
H599 C611 0.959 . S
H600 C614 0.929 . S
H601 C615 0.931 . S
H602 C617 0.930 . S
C603 H591 0.930 . S
C603 C604 1.399 . S
C603 C608 1.399 . S
C604 C603 1.399 . S
C604 C605 1.376 . S
C605 H592 0.930 . S
C605 C604 1.376 . S
C605 C606 1.388 . S
C606 H593 0.930 . S
C606 C605 1.388 . S
C606 C607 1.390 . S
C607 C606 1.390 . S
C607 C608 1.394 . S
C607 C613 1.465 . S
C608 C603 1.399 . S
C608 C607 1.394 . S
C608 C609 1.516 . S
C609 C608 1.516 . S
C609 C610 1.502 . S
C609 C611 1.561 . S
C609 C612 1.526 . S
C610 H594 0.959 . S
C610 H595 0.959 . S
C610 H596 0.961 . S
C610 C609 1.502 . S
C611 H597 0.960 . S
C611 H598 0.961 . S
C611 H599 0.959 . S
C611 C609 1.561 . S
C612 C609 1.526 . S
C612 C613 1.396 . S
C612 C617 1.390 . S
C613 C607 1.465 . S
C613 C612 1.396 . S
C613 C614 1.399 . S
C614 H600 0.929 . S
C614 C613 1.399 . S
C614 C615 1.385 . S
C615 H601 0.931 . S
C615 C614 1.385 . S
C615 C616 1.389 . S
C616 C615 1.389 . S
C616 C617 1.387 . S
C617 H602 0.930 . S
C617 C612 1.390 . S
C617 C616 1.387 . S
C145 C118 1.605 . S
C157 C8 1.600 . S
C172 C19 1.604 . S
C184 C129 1.605 . S
C199 C74 1.589 . S
C211 C30 1.588 . S
C226 C85 1.603 . S
C238 C41 1.596 . S
C253 C96 1.599 . S
C265 C52 1.605 . S
C280 C63 1.601 . S
C292 C107 1.605 . S
C307 C95 1.585 . S
C319 C7 1.592 . S
C334 C106 1.582 . S
C346 C18 1.580 . S
C361 C29 1.621 . S
C373 C117 1.615 . S
C388 C128 1.622 . S
C400 C40 1.618 . S
C415 C73 1.585 . S
C427 C51 1.582 . S
C442 C84 1.588 . S
C454 C62 1.583 . S
C469 C5 1.429 . S
C481 C126 1.475 . S
C496 C16 1.419 . S
C508 C71 1.480 . S
C523 C27 1.417 . S
C535 C82 1.412 . S
C550 C38 1.425 . S
C562 C93 1.477 . S
C577 C104 1.463 . S
C589 C49 1.381 . S
C604 C60 1.385 . S
C616 C115 1.485 . S
