# Generated by pormake.
# Topology vbj, (5)-cn, num edge types: 1
# Building blocks:
#     Node 0, Type 0, BuildingBlock: BEQFEK_clean_sbu_0, # of connection points: 5
#     Node 1, Type 0, BuildingBlock: BEQFEK_clean_sbu_0, # of connection points: 5
#     Node 2, Type 0, BuildingBlock: BEQFEK_clean_sbu_0, # of connection points: 5
#     Node 3, Type 0, BuildingBlock: BEQFEK_clean_sbu_0, # of connection points: 5
#     Node 4, Type 0, BuildingBlock: BEQFEK_clean_sbu_0, # of connection points: 5
#     Node 5, Type 0, BuildingBlock: BEQFEK_clean_sbu_0, # of connection points: 5
#     Node 6, Type 0, BuildingBlock: BEQFEK_clean_sbu_0, # of connection points: 5
#     Node 7, Type 0, BuildingBlock: BEQFEK_clean_sbu_0, # of connection points: 5
#     Node 8, Type 0, BuildingBlock: BEQFEK_clean_sbu_0, # of connection points: 5
#     Node 9, Type 0, BuildingBlock: BEQFEK_clean_sbu_0, # of connection points: 5
#     Node 10, Type 0, BuildingBlock: BEQFEK_clean_sbu_0, # of connection points: 5
#     Node 11, Type 0, BuildingBlock: BEQFEK_clean_sbu_0, # of connection points: 5
#     Node 12, Type 0, BuildingBlock: BEQFEK_clean_sbu_0, # of connection points: 5
#     Node 13, Type 0, BuildingBlock: BEQFEK_clean_sbu_0, # of connection points: 5
#     Node 14, Type 0, BuildingBlock: BEQFEK_clean_sbu_0, # of connection points: 5
#     Node 15, Type 0, BuildingBlock: BEQFEK_clean_sbu_0, # of connection points: 5
#     Edge 16, Type (0, 0), None
#     Edge 17, Type (0, 0), None
#     Edge 18, Type (0, 0), None
#     Edge 19, Type (0, 0), None
#     Edge 20, Type (0, 0), None
#     Edge 21, Type (0, 0), None
#     Edge 22, Type (0, 0), None
#     Edge 23, Type (0, 0), None
#     Edge 24, Type (0, 0), None
#     Edge 25, Type (0, 0), None
#     Edge 26, Type (0, 0), None
#     Edge 27, Type (0, 0), None
#     Edge 28, Type (0, 0), None
#     Edge 29, Type (0, 0), None
#     Edge 30, Type (0, 0), None
#     Edge 31, Type (0, 0), None
#     Edge 32, Type (0, 0), None
#     Edge 33, Type (0, 0), None
#     Edge 34, Type (0, 0), None
#     Edge 35, Type (0, 0), None
#     Edge 36, Type (0, 0), None
#     Edge 37, Type (0, 0), None
#     Edge 38, Type (0, 0), None
#     Edge 39, Type (0, 0), None
#     Edge 40, Type (0, 0), None
#     Edge 41, Type (0, 0), None
#     Edge 42, Type (0, 0), None
#     Edge 43, Type (0, 0), None
#     Edge 44, Type (0, 0), None
#     Edge 45, Type (0, 0), None
#     Edge 46, Type (0, 0), None
#     Edge 47, Type (0, 0), None
#     Edge 48, Type (0, 0), None
#     Edge 49, Type (0, 0), None
#     Edge 50, Type (0, 0), None
#     Edge 51, Type (0, 0), None
#     Edge 52, Type (0, 0), None
#     Edge 53, Type (0, 0), None
#     Edge 54, Type (0, 0), None
#     Edge 55, Type (0, 0), None
# Relax obj value: 0.080
# Max RMSD: 0.114
# Mean RMSD: 0.114
data_MOF--net-vbj--node1-BEQFEK_clean_sbu_0--edge1-none
_symmetry_space_group_name_H-M    P1
_symmetry_Int_Tables_number       1
_symmetry_cell_setting            triclinic
loop_
_symmetry_equiv_pos_as_xyz
'x, y, z'
_cell_length_a     12.660476
_cell_length_b     42.777341
_cell_length_c     21.183059
_cell_angle_alpha  89.606389
_cell_angle_beta   89.99999
_cell_angle_gamma 89.999998
loop_
_atom_site_label
_atom_site_type_symbol
_atom_site_fract_x
_atom_site_fract_y
_atom_site_fract_z
_atom_type_partial_charge
Co0 Co 0.07417 0.1752 0.09444 0.0
Co1 Co 0.07144 0.10152 0.09169 0.0
C2 C 0.01325 0.13748 0.20708 0.0
O3 O 0.02777 0.16371 0.17997 0.0
O4 O 0.02981 0.1118 0.17896 0.0
C5 C 5e-05 0.23661 0.09597 0.0
O6 O 0.91096 0.22138 0.10373 0.0
C7 C 0.19439 0.04443 0.11157 0.0
C8 C 0.10934 0.0103 0.05316 0.0
C9 C 0.20089 0.01442 0.0881 0.0
N10 N 0.10407 0.05767 0.0908 0.0
N11 N 0.052 0.03673 0.05741 0.0
C12 C 0.27802 0.06119 0.14796 0.0
H13 H 0.24972 0.08449 0.16324 0.0
H14 H 0.34994 0.06389 0.11851 0.0
H15 H 0.30037 0.04696 0.1899 0.0
C16 C 0.287 0.16406 0.04121 0.0
N17 N 0.1992 0.15377 0.07054 0.0
N18 N 0.19127 0.1234 0.06238 0.0
C19 C 0.26874 0.11377 0.02352 0.0
C20 C 0.33407 0.13891 0.01045 0.0
C21 C 0.31707 0.19783 0.03659 0.0
H22 H 0.28415 0.21096 0.077 0.0
H23 H 0.40422 0.20055 0.03629 0.0
H24 H 0.28491 0.20785 -0.00788 0.0
O25 O 0.96313 0.16468 0.03258 0.0
O26 O 0.95512 0.11277 0.03382 0.0
H27 H 0.18328 0.07414 -0.01328 0.0
H28 H 0.28443 0.08854 0.93596 0.0
C29 C 0.26383 0.08409 0.98612 0.0
H30 H 0.32121 0.06691 0.00529 0.0
H31 H 0.98145 0.04125 0.03358 0.0
O32 O 0.08618 0.22143 0.09133 0.0
C33 C 0.92375 0.13923 0.01283 0.0
Co34 Co 0.41915 0.8321 0.08657 0.0
Co35 Co 0.40941 0.906 0.08649 0.0
C36 C 0.47548 0.87096 0.20014 0.0
O37 O 0.46205 0.8451 0.17205 0.0
O38 O 0.45704 0.89702 0.17317 0.0
C39 C 0.49943 0.77082 0.09281 0.0
O40 O 0.58903 0.78627 0.09335 0.0
C41 C 0.32263 0.96851 0.1143 0.0
C42 C 0.34872 0.99247 0.02321 0.0
C43 C 0.29683 0.99534 0.08047 0.0
N44 N 0.38311 0.95012 0.07761 0.0
N45 N 0.40219 0.96529 0.02428 0.0
C46 C 0.27893 0.95869 0.17708 0.0
H47 H 0.27884 0.93283 0.1817 0.0
H48 H 0.19788 0.96799 0.18385 0.0
H49 H 0.32986 0.9684 0.21479 0.0
C50 C 0.21094 0.84199 0.02379 0.0
N51 N 0.29285 0.85227 0.0587 0.0
N52 N 0.28556 0.88289 0.06427 0.0
C53 C 0.19624 0.8927 0.03556 0.0
C54 C 0.1484 0.86747 0.00667 0.0
C55 C 0.20067 0.80923 0.00027 0.0
H56 H 0.25353 0.79314 0.02622 0.0
H57 H 0.11801 0.80101 0.00556 0.0
H58 H 0.22157 0.80874 0.94943 0.0
O59 O 0.53062 0.84243 0.02725 0.0
O60 O 0.52402 0.89432 0.02602 0.0
H61 H 0.20233 0.9402 0.00281 0.0
H62 H 0.07134 0.92737 0.02457 0.0
C63 C 0.15622 0.92562 0.0363 0.0
H64 H 0.16298 0.93473 0.08448 0.0
H65 H 0.44369 0.95586 -0.01366 0.0
O66 O 0.41247 0.78573 0.08986 0.0
C67 C 0.56377 0.86858 0.00714 0.0
Co68 Co 0.57417 0.83274 0.37797 0.0
Co69 Co 0.57144 0.90642 0.38072 0.0
C70 C 0.51325 0.87046 0.26532 0.0
O71 O 0.52777 0.84423 0.29243 0.0
O72 O 0.52981 0.89614 0.29345 0.0
C73 C 0.50006 0.77133 0.37643 0.0
O74 O 0.41096 0.78656 0.36867 0.0
C75 C 0.69439 0.96351 0.36084 0.0
C76 C 0.60934 0.99764 0.41924 0.0
C77 C 0.70089 0.99352 0.3843 0.0
N78 N 0.60407 0.95027 0.38161 0.0
N79 N 0.552 0.97121 0.41499 0.0
C80 C 0.77802 0.94675 0.32444 0.0
H81 H 0.74973 0.92345 0.30917 0.0
H82 H 0.84994 0.94405 0.35389 0.0
H83 H 0.80037 0.96099 0.28251 0.0
C84 C 0.787 0.84388 0.43119 0.0
N85 N 0.6992 0.85417 0.40186 0.0
N86 N 0.69127 0.88454 0.41002 0.0
C87 C 0.76874 0.89417 0.44889 0.0
C88 C 0.83407 0.86903 0.46196 0.0
C89 C 0.81707 0.81011 0.43581 0.0
H90 H 0.78415 0.79698 0.39541 0.0
H91 H 0.90422 0.80739 0.43611 0.0
H92 H 0.78491 0.80009 0.48028 0.0
O93 O 0.46313 0.84326 0.43982 0.0
O94 O 0.45512 0.89517 0.43858 0.0
H95 H 0.68328 0.9338 0.48569 0.0
H96 H 0.78443 0.9194 0.53644 0.0
C97 C 0.76383 0.92385 0.48628 0.0
H98 H 0.82121 0.94103 0.46711 0.0
H99 H 0.48145 0.96669 0.43882 0.0
O100 O 0.58619 0.78651 0.38107 0.0
C101 C 0.42375 0.86871 0.45957 0.0
Co102 Co 0.91915 0.17584 0.38583 0.0
Co103 Co 0.90941 0.10194 0.38591 0.0
C104 C 0.97548 0.13698 0.27226 0.0
O105 O 0.96205 0.16284 0.30036 0.0
O106 O 0.95704 0.11092 0.29923 0.0
C107 C -0.00057 0.23712 0.37959 0.0
O108 O 0.08903 0.22168 0.37905 0.0
C109 C 0.82263 0.03943 0.35811 0.0
C110 C 0.84872 0.01547 0.44919 0.0
C111 C 0.79683 0.0126 0.39193 0.0
N112 N 0.88311 0.05782 0.3948 0.0
N113 N 0.90219 0.04265 0.44813 0.0
C114 C 0.77893 0.04925 0.29533 0.0
H115 H 0.77884 0.07511 0.29071 0.0
H116 H 0.69788 0.03995 0.28855 0.0
H117 H 0.82986 0.03954 0.25761 0.0
C118 C 0.71094 0.16595 0.44862 0.0
N119 N 0.79285 0.15567 0.4137 0.0
N120 N 0.78556 0.12505 0.40813 0.0
C121 C 0.69624 0.11524 0.43684 0.0
C122 C 0.6484 0.14047 0.46573 0.0
C123 C 0.70067 0.19871 0.47213 0.0
H124 H 0.75353 0.2148 0.44619 0.0
H125 H 0.61801 0.20694 0.46684 0.0
H126 H 0.72157 0.1992 0.52297 0.0
O127 O 0.03061 0.16551 0.44515 0.0
O128 O 0.02402 0.11362 0.44638 0.0
H129 H 0.70233 0.06774 0.46959 0.0
H130 H 0.57133 0.08057 0.44783 0.0
C131 C 0.65622 0.08232 0.4361 0.0
H132 H 0.66298 0.07321 0.38792 0.0
H133 H 0.94369 0.05209 0.48607 0.0
O134 O 0.91247 0.22221 0.38255 0.0
C135 C 0.06377 0.13936 0.46527 0.0
Co136 Co 0.91197 0.83273 0.87797 0.0
Co137 Co 0.91471 0.90642 0.88073 0.0
C138 C 0.97292 0.87046 0.76533 0.0
O139 O 0.9584 0.84423 0.79244 0.0
O140 O 0.95636 0.89614 0.79346 0.0
C141 C 0.98608 0.77133 0.87644 0.0
O142 O 0.07518 0.78656 0.8687 0.0
C143 C 0.79176 0.9635 0.86084 0.0
C144 C 0.87681 0.99764 0.91924 0.0
C145 C 0.78527 0.99352 0.88429 0.0
N146 N 0.88208 0.95027 0.88161 0.0
N147 N 0.93415 0.97121 0.91499 0.0
C148 C 0.70813 0.94675 0.82445 0.0
H149 H 0.73643 0.92344 0.80917 0.0
H150 H 0.63622 0.94404 0.85391 0.0
H151 H 0.68577 0.96098 0.78252 0.0
C152 C 0.69916 0.84387 0.93121 0.0
N153 N 0.78694 0.85417 0.90185 0.0
N154 N 0.79487 0.88454 0.91002 0.0
C155 C 0.71744 0.89417 0.94892 0.0
C156 C 0.65218 0.86901 0.96204 0.0
C157 C 0.66909 0.8101 0.93582 0.0
H158 H 0.70199 0.79698 0.8954 0.0
H159 H 0.58194 0.80739 0.93612 0.0
H160 H 0.70125 0.80007 0.98028 0.0
O161 O 0.02297 0.84326 0.93985 0.0
O162 O 0.031 0.89517 0.93862 0.0
H163 H 0.80291 0.93379 0.98571 0.0
H164 H 0.70173 0.91941 0.03646 0.0
C165 C 0.72235 0.92385 -0.0137 0.0
H166 H 0.66499 0.94103 0.96711 0.0
H167 H 0.0047 0.96669 0.93882 0.0
O168 O 0.89995 0.7865 0.88106 0.0
C169 C 0.06234 0.86871 0.95962 0.0
Co170 Co 0.56697 0.17584 0.88583 0.0
Co171 Co 0.57674 0.10193 0.8859 0.0
C172 C 0.51067 0.13698 0.77226 0.0
O173 O 0.52409 0.16284 0.80035 0.0
O174 O 0.52911 0.11092 0.79922 0.0
C175 C 0.4867 0.23712 0.87959 0.0
O176 O 0.3971 0.22167 0.87904 0.0
C177 C 0.66354 0.03943 0.8581 0.0
C178 C 0.63742 0.01546 0.94917 0.0
C179 C 0.68933 0.0126 0.89192 0.0
N180 N 0.60304 0.05782 0.89478 0.0
N181 N 0.58395 0.04265 0.94811 0.0
C182 C 0.70725 0.04925 0.79532 0.0
H183 H 0.70731 0.07511 0.7907 0.0
H184 H 0.78831 0.03996 0.78856 0.0
H185 H 0.65635 0.03953 0.7576 0.0
C186 C 0.77511 0.16594 0.94869 0.0
N187 N 0.69326 0.15566 0.91371 0.0
N188 N 0.70058 0.12505 0.90812 0.0
C189 C 0.78985 0.11523 0.93688 0.0
C190 C 0.83758 0.14046 0.96585 0.0
C191 C 0.78535 0.1987 0.97223 0.0
H192 H 0.73241 0.21479 0.94634 0.0
H193 H 0.86799 0.20694 0.9669 0.0
H194 H 0.76454 0.19917 0.02309 0.0
O195 O 0.45551 0.16551 0.94516 0.0
O196 O 0.46215 0.11362 0.94639 0.0
H197 H 0.78384 0.06773 0.96959 0.0
H198 H 0.9148 0.08058 0.94784 0.0
C199 C 0.82992 0.08232 0.93611 0.0
H200 H 0.82317 0.07322 0.88792 0.0
H201 H 0.54244 0.05208 0.98605 0.0
O202 O 0.57366 0.2222 0.88255 0.0
C203 C 0.42239 0.13935 0.96528 0.0
Co204 Co 0.41197 0.17521 0.59443 0.0
Co205 Co 0.41471 0.10152 0.59168 0.0
C206 C 0.47291 0.13748 0.70707 0.0
O207 O 0.4584 0.16371 0.67997 0.0
O208 O 0.45635 0.11181 0.67894 0.0
C209 C 0.48608 0.23661 0.59597 0.0
O210 O 0.57518 0.22138 0.6037 0.0
C211 C 0.29176 0.04444 0.61157 0.0
C212 C 0.37681 0.0103 0.55317 0.0
C213 C 0.28527 0.01442 0.58811 0.0
N214 N 0.38208 0.05767 0.59079 0.0
N215 N 0.43415 0.03673 0.55741 0.0
C216 C 0.20813 0.06119 0.64795 0.0
H217 H 0.23643 0.0845 0.66323 0.0
H218 H 0.13622 0.0639 0.6185 0.0
H219 H 0.18577 0.04696 0.68989 0.0
C220 C 0.19916 0.16407 0.54119 0.0
N221 N 0.28694 0.15377 0.57055 0.0
N222 N 0.29487 0.1234 0.56238 0.0
C223 C 0.21744 0.11377 0.52349 0.0
C224 C 0.15218 0.13893 0.51037 0.0
C225 C 0.16909 0.19784 0.53659 0.0
H226 H 0.20199 0.21097 0.57701 0.0
H227 H 0.08194 0.20055 0.53628 0.0
H228 H 0.20125 0.20787 0.49213 0.0
O229 O 0.52297 0.16468 0.53255 0.0
O230 O 0.531 0.11278 0.53379 0.0
H231 H 0.30291 0.07415 0.4867 0.0
H232 H 0.20173 0.08853 0.43594 0.0
C233 C 0.22235 0.08409 0.4861 0.0
H234 H 0.16499 0.06691 0.50529 0.0
H235 H 0.5047 0.04125 0.53358 0.0
O236 O 0.39995 0.22144 0.59134 0.0
C237 C 0.56234 0.13923 0.51279 0.0
Co238 Co 0.06697 0.8321 0.58657 0.0
Co239 Co 0.07674 0.90601 0.5865 0.0
C240 C 0.01068 0.87096 0.70015 0.0
O241 O 0.02409 0.8451 0.67205 0.0
O242 O 0.02911 0.89702 0.67318 0.0
C243 C 0.9867 0.77082 0.59281 0.0
O244 O 0.8971 0.78627 0.59336 0.0
C245 C 0.16354 0.96851 0.61431 0.0
C246 C 0.13742 0.99248 0.52323 0.0
C247 C 0.18933 0.99534 0.58048 0.0
N248 N 0.10304 0.95012 0.57762 0.0
N249 N 0.08395 0.96529 0.52429 0.0
C250 C 0.20725 0.95869 0.67708 0.0
H251 H 0.20731 0.93283 0.68171 0.0
H252 H 0.28831 0.96798 0.68385 0.0
H253 H 0.15635 0.96841 0.7148 0.0
C254 C 0.27511 0.842 0.52372 0.0
N255 N 0.19326 0.85228 0.55869 0.0
N256 N 0.20058 0.88289 0.56428 0.0
C257 C 0.28985 0.89271 0.53553 0.0
C258 C 0.33758 0.86748 0.50655 0.0
C259 C 0.28535 0.80924 0.50017 0.0
H260 H 0.23241 0.79315 0.52606 0.0
H261 H 0.36799 0.801 0.50551 0.0
H262 H 0.26454 0.80877 0.44932 0.0
O263 O 0.95551 0.84243 0.52725 0.0
O264 O 0.96215 0.89432 0.52602 0.0
H265 H 0.28384 0.94021 0.50281 0.0
H266 H 0.41481 0.92736 0.52457 0.0
C267 C 0.32992 0.92562 0.53629 0.0
H268 H 0.32317 0.93472 0.58449 0.0
H269 H 0.04244 0.95586 0.48636 0.0
O270 O 0.07366 0.78574 0.58986 0.0
C271 C 0.92239 0.86859 0.50712 0.0
Co272 Co 0.57417 0.6752 0.09444 0.0
Co273 Co 0.57144 0.60152 0.09169 0.0
C274 C 0.51325 0.63748 0.20708 0.0
O275 O 0.52777 0.66371 0.17997 0.0
O276 O 0.52981 0.6118 0.17896 0.0
C277 C 0.50006 0.73661 0.09597 0.0
O278 O 0.41096 0.72138 0.10373 0.0
C279 C 0.69439 0.54443 0.11157 0.0
C280 C 0.60934 0.5103 0.05316 0.0
C281 C 0.70089 0.51442 0.0881 0.0
N282 N 0.60407 0.55767 0.0908 0.0
N283 N 0.552 0.53673 0.05741 0.0
C284 C 0.77802 0.56119 0.14796 0.0
H285 H 0.74973 0.58449 0.16324 0.0
H286 H 0.84994 0.56389 0.11851 0.0
H287 H 0.80037 0.54695 0.1899 0.0
C288 C 0.78701 0.66406 0.04121 0.0
N289 N 0.6992 0.65377 0.07054 0.0
N290 N 0.69128 0.6234 0.06238 0.0
C291 C 0.76874 0.61377 0.02352 0.0
C292 C 0.83407 0.63891 0.01045 0.0
C293 C 0.81707 0.69783 0.03659 0.0
H294 H 0.78415 0.71096 0.077 0.0
H295 H 0.90422 0.70055 0.03629 0.0
H296 H 0.78492 0.70785 -0.00788 0.0
O297 O 0.46313 0.66468 0.03258 0.0
O298 O 0.45512 0.61277 0.03382 0.0
H299 H 0.68328 0.57414 -0.01328 0.0
H300 H 0.78443 0.58854 0.93596 0.0
C301 C 0.76383 0.58409 0.98612 0.0
H302 H 0.82121 0.56691 0.00529 0.0
H303 H 0.48145 0.54125 0.03358 0.0
O304 O 0.58619 0.72143 0.09133 0.0
C305 C 0.42375 0.63923 0.01283 0.0
Co306 Co 0.91915 0.3321 0.08657 0.0
Co307 Co 0.90941 0.406 0.08649 0.0
C308 C 0.97548 0.37096 0.20014 0.0
O309 O 0.96205 0.3451 0.17205 0.0
O310 O 0.95704 0.39702 0.17317 0.0
C311 C -0.00057 0.27082 0.09281 0.0
O312 O 0.08903 0.28627 0.09335 0.0
C313 C 0.82263 0.46851 0.11429 0.0
C314 C 0.84872 0.49247 0.02321 0.0
C315 C 0.79683 0.49534 0.08047 0.0
N316 N 0.88311 0.45012 0.07761 0.0
N317 N 0.90219 0.46529 0.02427 0.0
C318 C 0.77893 0.45869 0.17707 0.0
H319 H 0.77885 0.43283 0.1817 0.0
H320 H 0.69788 0.46799 0.18385 0.0
H321 H 0.82986 0.4684 0.21479 0.0
C322 C 0.71094 0.34199 0.02379 0.0
N323 N 0.79285 0.35227 0.0587 0.0
N324 N 0.78556 0.38289 0.06427 0.0
C325 C 0.69624 0.3927 0.03556 0.0
C326 C 0.6484 0.36747 0.00667 0.0
C327 C 0.70067 0.30923 0.00027 0.0
H328 H 0.75353 0.29314 0.02622 0.0
H329 H 0.61801 0.30101 0.00556 0.0
H330 H 0.72157 0.30874 0.94943 0.0
O331 O 0.03061 0.34243 0.02725 0.0
O332 O 0.02402 0.39432 0.02602 0.0
H333 H 0.70232 0.4402 0.00281 0.0
H334 H 0.57133 0.42737 0.02458 0.0
C335 C 0.65622 0.42562 0.0363 0.0
H336 H 0.66298 0.43473 0.08448 0.0
H337 H 0.94369 0.45585 -0.01367 0.0
O338 O 0.91247 0.28573 0.08986 0.0
C339 C 0.06377 0.36858 0.00713 0.0
Co340 Co 0.07417 0.33274 0.37797 0.0
Co341 Co 0.07144 0.40642 0.38072 0.0
C342 C 0.01325 0.37046 0.26532 0.0
O343 O 0.02777 0.34423 0.29243 0.0
O344 O 0.02981 0.39614 0.29345 0.0
C345 C 5e-05 0.27133 0.37643 0.0
O346 O 0.91096 0.28656 0.36867 0.0
C347 C 0.19439 0.46351 0.36083 0.0
C348 C 0.10934 0.49764 0.41924 0.0
C349 C 0.20089 0.49352 0.3843 0.0
N350 N 0.10407 0.45027 0.38161 0.0
N351 N 0.052 0.47121 0.41499 0.0
C352 C 0.27802 0.44675 0.32444 0.0
H353 H 0.24972 0.42345 0.30917 0.0
H354 H 0.34994 0.44405 0.35389 0.0
H355 H 0.30037 0.46099 0.28251 0.0
C356 C 0.287 0.34388 0.43119 0.0
N357 N 0.1992 0.35417 0.40186 0.0
N358 N 0.19127 0.38454 0.41002 0.0
C359 C 0.26874 0.39417 0.44889 0.0
C360 C 0.33407 0.36903 0.46196 0.0
C361 C 0.31707 0.31011 0.43581 0.0
H362 H 0.28415 0.29698 0.39541 0.0
H363 H 0.40421 0.30739 0.43611 0.0
H364 H 0.28491 0.30009 0.48028 0.0
O365 O 0.96313 0.34326 0.43982 0.0
O366 O 0.95512 0.39517 0.43858 0.0
H367 H 0.18328 0.4338 0.48569 0.0
H368 H 0.28443 0.4194 0.53644 0.0
C369 C 0.26383 0.42385 0.48628 0.0
H370 H 0.32121 0.44103 0.46711 0.0
H371 H 0.98145 0.46669 0.43882 0.0
O372 O 0.08618 0.28651 0.38107 0.0
C373 C 0.92375 0.36871 0.45957 0.0
Co374 Co 0.41915 0.67584 0.38583 0.0
Co375 Co 0.40941 0.60194 0.38591 0.0
C376 C 0.47548 0.63698 0.27226 0.0
O377 O 0.46205 0.66284 0.30036 0.0
O378 O 0.45704 0.61092 0.29923 0.0
C379 C 0.49943 0.73712 0.37959 0.0
O380 O 0.58903 0.72168 0.37905 0.0
C381 C 0.32263 0.53943 0.35811 0.0
C382 C 0.34872 0.51547 0.44919 0.0
C383 C 0.29683 0.5126 0.39193 0.0
N384 N 0.38311 0.55782 0.3948 0.0
N385 N 0.40219 0.54265 0.44813 0.0
C386 C 0.27893 0.54925 0.29533 0.0
H387 H 0.27884 0.57511 0.29071 0.0
H388 H 0.19788 0.53995 0.28855 0.0
H389 H 0.32986 0.53954 0.25761 0.0
C390 C 0.21094 0.66595 0.44862 0.0
N391 N 0.29286 0.65567 0.4137 0.0
N392 N 0.28556 0.62505 0.40813 0.0
C393 C 0.19624 0.61524 0.43684 0.0
C394 C 0.1484 0.64047 0.46573 0.0
C395 C 0.20067 0.69871 0.47213 0.0
H396 H 0.25353 0.7148 0.44619 0.0
H397 H 0.11801 0.70693 0.46684 0.0
H398 H 0.22157 0.6992 0.52297 0.0
O399 O 0.53062 0.66551 0.44515 0.0
O400 O 0.52402 0.61362 0.44638 0.0
H401 H 0.20233 0.56774 0.46959 0.0
H402 H 0.07134 0.58057 0.44783 0.0
C403 C 0.15622 0.58232 0.4361 0.0
H404 H 0.16298 0.57321 0.38792 0.0
H405 H 0.44369 0.55208 0.48607 0.0
O406 O 0.41247 0.72221 0.38255 0.0
C407 C 0.56377 0.63936 0.46527 0.0
Co408 Co 0.41197 0.33273 0.87797 0.0
Co409 Co 0.41471 0.40642 0.88073 0.0
C410 C 0.47292 0.37046 0.76533 0.0
O411 O 0.4584 0.34423 0.79244 0.0
O412 O 0.45636 0.39614 0.79346 0.0
C413 C 0.48608 0.27133 0.87644 0.0
O414 O 0.57518 0.28656 0.8687 0.0
C415 C 0.29176 0.4635 0.86084 0.0
C416 C 0.37681 0.49764 0.91924 0.0
C417 C 0.28527 0.49352 0.8843 0.0
N418 N 0.38208 0.45027 0.88162 0.0
N419 N 0.43415 0.47121 0.915 0.0
C420 C 0.20813 0.44675 0.82445 0.0
H421 H 0.23643 0.42344 0.80917 0.0
H422 H 0.13622 0.44404 0.85391 0.0
H423 H 0.18577 0.46098 0.78252 0.0
C424 C 0.19916 0.34387 0.93121 0.0
N425 N 0.28694 0.35417 0.90185 0.0
N426 N 0.29487 0.38454 0.91002 0.0
C427 C 0.21744 0.39417 0.94892 0.0
C428 C 0.15218 0.36901 0.96204 0.0
C429 C 0.16909 0.3101 0.93582 0.0
H430 H 0.20199 0.29698 0.8954 0.0
H431 H 0.08194 0.30739 0.93612 0.0
H432 H 0.20125 0.30007 0.98028 0.0
O433 O 0.52297 0.34326 0.93985 0.0
O434 O 0.531 0.39516 0.93862 0.0
H435 H 0.30291 0.43379 0.98571 0.0
H436 H 0.20173 0.41941 0.03646 0.0
C437 C 0.22235 0.42385 -0.0137 0.0
H438 H 0.16499 0.44103 0.96711 0.0
H439 H 0.5047 0.46669 0.93883 0.0
O440 O 0.39995 0.2865 0.88106 0.0
C441 C 0.56234 0.36871 0.95962 0.0
Co442 Co 0.06697 0.67584 0.88583 0.0
Co443 Co 0.07674 0.60194 0.8859 0.0
C444 C 0.01067 0.63698 0.77226 0.0
O445 O 0.02409 0.66284 0.80035 0.0
O446 O 0.02911 0.61092 0.79923 0.0
C447 C 0.9867 0.73712 0.87959 0.0
O448 O 0.8971 0.72167 0.87904 0.0
C449 C 0.16354 0.53943 0.8581 0.0
C450 C 0.13742 0.51546 0.94917 0.0
C451 C 0.18933 0.5126 0.89192 0.0
N452 N 0.10304 0.55782 0.89478 0.0
N453 N 0.08396 0.54265 0.94811 0.0
C454 C 0.20725 0.54925 0.79532 0.0
H455 H 0.20731 0.57511 0.7907 0.0
H456 H 0.28831 0.53996 0.78856 0.0
H457 H 0.15634 0.53953 0.7576 0.0
C458 C 0.27511 0.66594 0.94869 0.0
N459 N 0.19326 0.65566 0.91371 0.0
N460 N 0.20058 0.62505 0.90812 0.0
C461 C 0.28986 0.61523 0.93688 0.0
C462 C 0.33758 0.64046 0.96585 0.0
C463 C 0.28535 0.6987 0.97223 0.0
H464 H 0.23241 0.71479 0.94634 0.0
H465 H 0.36799 0.70694 0.9669 0.0
H466 H 0.26454 0.69917 0.02309 0.0
O467 O 0.95551 0.66551 0.94516 0.0
O468 O 0.96216 0.61362 0.94639 0.0
H469 H 0.28384 0.56773 0.96959 0.0
H470 H 0.41481 0.58058 0.94783 0.0
C471 C 0.32992 0.58232 0.93611 0.0
H472 H 0.32317 0.57322 0.88792 0.0
H473 H 0.04244 0.55208 0.98605 0.0
O474 O 0.07366 0.7222 0.88255 0.0
C475 C 0.92239 0.63935 0.96528 0.0
Co476 Co 0.91197 0.67521 0.59443 0.0
Co477 Co 0.91471 0.60152 0.59168 0.0
C478 C 0.97291 0.63748 0.70707 0.0
O479 O 0.9584 0.66371 0.67997 0.0
O480 O 0.95636 0.6118 0.67894 0.0
C481 C 0.98608 0.73661 0.59597 0.0
O482 O 0.07518 0.72138 0.6037 0.0
C483 C 0.79176 0.54444 0.61157 0.0
C484 C 0.87681 0.5103 0.55317 0.0
C485 C 0.78527 0.51442 0.58811 0.0
N486 N 0.88208 0.55767 0.59079 0.0
N487 N 0.93415 0.53673 0.55741 0.0
C488 C 0.70813 0.56119 0.64795 0.0
H489 H 0.73643 0.5845 0.66323 0.0
H490 H 0.63622 0.5639 0.6185 0.0
H491 H 0.68577 0.54696 0.68989 0.0
C492 C 0.69917 0.66407 0.54119 0.0
N493 N 0.78694 0.65377 0.57055 0.0
N494 N 0.79487 0.6234 0.56238 0.0
C495 C 0.71744 0.61377 0.52349 0.0
C496 C 0.65218 0.63893 0.51037 0.0
C497 C 0.66909 0.69784 0.53659 0.0
H498 H 0.70199 0.71097 0.57701 0.0
H499 H 0.58194 0.70055 0.53628 0.0
H500 H 0.70126 0.70787 0.49213 0.0
O501 O 0.02297 0.66468 0.53255 0.0
O502 O 0.031 0.61278 0.53379 0.0
H503 H 0.80292 0.57415 0.4867 0.0
H504 H 0.70173 0.58853 0.43594 0.0
C505 C 0.72235 0.58409 0.4861 0.0
H506 H 0.66499 0.56691 0.50529 0.0
H507 H 0.0047 0.54125 0.53358 0.0
O508 O 0.89995 0.72144 0.59134 0.0
C509 C 0.06234 0.63923 0.51279 0.0
Co510 Co 0.56697 0.3321 0.58657 0.0
Co511 Co 0.57674 0.40601 0.58651 0.0
C512 C 0.51068 0.37096 0.70015 0.0
O513 O 0.52409 0.3451 0.67205 0.0
O514 O 0.52911 0.39702 0.67318 0.0
C515 C 0.4867 0.27082 0.59281 0.0
O516 O 0.3971 0.28627 0.59336 0.0
C517 C 0.66354 0.46851 0.61431 0.0
C518 C 0.63742 0.49248 0.52323 0.0
C519 C 0.68933 0.49534 0.58049 0.0
N520 N 0.60304 0.45012 0.57762 0.0
N521 N 0.58395 0.46529 0.52429 0.0
C522 C 0.70725 0.45869 0.67708 0.0
H523 H 0.70731 0.43283 0.68171 0.0
H524 H 0.78831 0.46798 0.68385 0.0
H525 H 0.65635 0.46841 0.7148 0.0
C526 C 0.77511 0.342 0.52372 0.0
N527 N 0.69326 0.35228 0.55869 0.0
N528 N 0.70058 0.38289 0.56428 0.0
C529 C 0.78985 0.39271 0.53553 0.0
C530 C 0.83758 0.36748 0.50655 0.0
C531 C 0.78535 0.30924 0.50017 0.0
H532 H 0.73241 0.29315 0.52606 0.0
H533 H 0.86799 0.301 0.50551 0.0
H534 H 0.76454 0.30877 0.44932 0.0
O535 O 0.45551 0.34243 0.52725 0.0
O536 O 0.46215 0.39432 0.52602 0.0
H537 H 0.78383 0.44021 0.50281 0.0
H538 H 0.9148 0.42736 0.52457 0.0
C539 C 0.82991 0.42562 0.53629 0.0
H540 H 0.82317 0.43472 0.58449 0.0
H541 H 0.54244 0.45586 0.48636 0.0
O542 O 0.57366 0.28574 0.58985 0.0
C543 C 0.42238 0.36859 0.50712 0.0
loop_
_geom_bond_atom_site_label_1
_geom_bond_atom_site_label_2
_geom_bond_distance
_geom_bond_site_symmetry_2
_ccdc_geom_bond_type
Co0 O3 1.970 . S
Co0 N17 1.989 . S
Co0 O25 1.967 1_455 S
Co0 O32 1.920 . S
Co1 O4 1.966 . S
Co1 N10 2.022 . S
Co1 N18 1.993 . S
Co1 O26 1.941 1_455 S
C2 O3 1.258 . S
C2 O4 1.263 . S
O3 Co0 1.970 . S
O3 C2 1.258 . S
O4 Co1 1.966 . S
O4 C2 1.263 . S
C5 O6 1.235 . S
C5 O32 1.289 . S
O6 C5 1.235 . S
C7 C9 1.400 . S
C7 N10 1.351 . S
C7 C12 1.501 . S
C8 C9 1.387 . S
C8 N11 1.341 . S
C9 C7 1.400 . S
C9 C8 1.387 . S
N10 Co1 2.022 . S
N10 C7 1.351 . S
N10 N11 1.365 . S
N11 C8 1.341 . S
N11 N10 1.365 . S
N11 H31 0.867 . S
C12 C7 1.501 . S
C12 H13 0.961 . S
C12 H14 0.961 . S
C12 H15 0.960 . S
H13 C12 0.961 . S
H14 C12 0.961 . S
H15 C12 0.960 . S
C16 N17 1.342 . S
C16 C20 1.401 . S
C16 C21 1.499 . S
N17 Co0 1.989 . S
N17 C16 1.342 . S
N17 N18 1.388 . S
N18 Co1 1.993 . S
N18 N17 1.388 . S
N18 C19 1.346 . S
C19 N18 1.346 . S
C19 C20 1.396 . S
C19 C29 1.510 . S
C20 C16 1.401 . S
C20 C19 1.396 . S
C21 C16 1.499 . S
C21 H22 0.959 . S
C21 H23 0.960 . S
C21 H24 0.961 1_554 S
H22 C21 0.959 . S
H23 C21 0.960 . S
H24 C21 0.961 1_556 S
O25 Co0 1.967 1_655 S
O25 C33 1.258 . S
O26 Co1 1.941 1_655 S
O26 C33 1.266 . S
H27 C29 0.959 1_556 S
H28 C29 0.961 . S
C29 C19 1.510 . S
C29 H27 0.959 1_554 S
C29 H28 0.961 . S
C29 H30 0.960 . S
H30 C29 0.960 . S
H31 N11 0.867 . S
O32 Co0 1.920 . S
O32 C5 1.289 . S
C33 O25 1.258 . S
C33 O26 1.266 . S
Co34 O37 1.970 . S
Co34 N51 1.989 . S
Co34 O59 1.967 . S
Co34 O66 1.920 . S
Co35 O38 1.966 . S
Co35 N44 2.022 . S
Co35 N52 1.993 . S
Co35 O60 1.941 . S
C36 O37 1.258 . S
C36 O38 1.263 . S
O37 Co34 1.970 . S
O37 C36 1.258 . S
O38 Co35 1.966 . S
O38 C36 1.263 . S
C39 O40 1.235 . S
C39 O66 1.289 . S
O40 C39 1.235 . S
C41 C43 1.400 . S
C41 N44 1.351 . S
C41 C46 1.501 . S
C42 C43 1.387 . S
C42 N45 1.341 . S
C43 C41 1.400 . S
C43 C42 1.387 . S
N44 Co35 2.022 . S
N44 C41 1.351 . S
N44 N45 1.365 . S
N45 C42 1.341 . S
N45 N44 1.365 . S
N45 H65 0.867 . S
C46 C41 1.501 . S
C46 H47 0.961 . S
C46 H48 0.961 . S
C46 H49 0.960 . S
H47 C46 0.961 . S
H48 C46 0.961 . S
H49 C46 0.960 . S
C50 N51 1.342 . S
C50 C54 1.401 . S
C50 C55 1.499 . S
N51 Co34 1.989 . S
N51 C50 1.342 . S
N51 N52 1.388 . S
N52 Co35 1.993 . S
N52 N51 1.388 . S
N52 C53 1.346 . S
C53 N52 1.346 . S
C53 C54 1.396 . S
C53 C63 1.510 . S
C54 C50 1.401 . S
C54 C53 1.396 . S
C55 C50 1.499 . S
C55 H56 0.959 . S
C55 H57 0.960 . S
C55 H58 0.961 1_554 S
H56 C55 0.959 . S
H57 C55 0.960 . S
H58 C55 0.961 1_556 S
O59 Co34 1.967 . S
O59 C67 1.258 . S
O60 Co35 1.941 . S
O60 C67 1.266 . S
H61 C63 0.959 1_556 S
H62 C63 0.961 . S
C63 C53 1.510 . S
C63 H61 0.959 1_554 S
C63 H62 0.961 . S
C63 H64 0.960 . S
H64 C63 0.960 . S
H65 N45 0.867 . S
O66 Co34 1.920 . S
O66 C39 1.289 . S
C67 O59 1.258 . S
C67 O60 1.266 . S
Co68 O71 1.970 . S
Co68 N85 1.989 . S
Co68 O93 1.967 . S
Co68 O100 1.920 . S
Co69 O72 1.966 . S
Co69 N78 2.022 . S
Co69 N86 1.993 . S
Co69 O94 1.941 . S
C70 O71 1.258 . S
C70 O72 1.263 . S
O71 Co68 1.970 . S
O71 C70 1.258 . S
O72 Co69 1.966 . S
O72 C70 1.263 . S
C73 O74 1.235 . S
C73 O100 1.289 . S
O74 C73 1.235 . S
C75 C77 1.400 . S
C75 N78 1.351 . S
C75 C80 1.501 . S
C76 C77 1.387 . S
C76 N79 1.341 . S
C77 C75 1.400 . S
C77 C76 1.387 . S
N78 Co69 2.022 . S
N78 C75 1.351 . S
N78 N79 1.365 . S
N79 C76 1.341 . S
N79 N78 1.365 . S
N79 H99 0.862 . S
C80 C75 1.501 . S
C80 H81 0.961 . S
C80 H82 0.961 . S
C80 H83 0.960 . S
H81 C80 0.961 . S
H82 C80 0.961 . S
H83 C80 0.960 . S
C84 N85 1.342 . S
C84 C88 1.401 . S
C84 C89 1.499 . S
N85 Co68 1.989 . S
N85 C84 1.342 . S
N85 N86 1.388 . S
N86 Co69 1.993 . S
N86 N85 1.388 . S
N86 C87 1.346 . S
C87 N86 1.346 . S
C87 C88 1.396 . S
C87 C97 1.510 . S
C88 C84 1.401 . S
C88 C87 1.396 . S
C89 C84 1.499 . S
C89 H90 0.959 . S
C89 H91 0.960 . S
C89 H92 0.961 . S
H90 C89 0.959 . S
H91 C89 0.960 . S
H92 C89 0.961 . S
O93 Co68 1.967 . S
O93 C101 1.258 . S
O94 Co69 1.941 . S
O94 C101 1.266 . S
H95 C97 0.959 . S
H96 C97 0.961 . S
C97 C87 1.510 . S
C97 H95 0.959 . S
C97 H96 0.961 . S
C97 H98 0.960 . S
H98 C97 0.960 . S
H99 N79 0.862 . S
O100 Co68 1.920 . S
O100 C73 1.289 . S
C101 O93 1.258 . S
C101 O94 1.266 . S
Co102 O105 1.970 . S
Co102 N119 1.989 . S
Co102 O127 1.967 1_655 S
Co102 O134 1.920 . S
Co103 O106 1.966 . S
Co103 N112 2.022 . S
Co103 N120 1.993 . S
Co103 O128 1.941 1_655 S
C104 O105 1.258 . S
C104 O106 1.263 . S
O105 Co102 1.970 . S
O105 C104 1.258 . S
O106 Co103 1.966 . S
O106 C104 1.263 . S
C107 O108 1.235 . S
C107 O134 1.289 . S
O108 C107 1.235 . S
C109 C111 1.400 . S
C109 N112 1.351 . S
C109 C114 1.501 . S
C110 C111 1.387 . S
C110 N113 1.341 . S
C111 C109 1.400 . S
C111 C110 1.387 . S
N112 Co103 2.022 . S
N112 C109 1.351 . S
N112 N113 1.365 . S
N113 C110 1.341 . S
N113 N112 1.365 . S
N113 H133 0.862 . S
C114 C109 1.501 . S
C114 H115 0.961 . S
C114 H116 0.961 . S
C114 H117 0.960 . S
H115 C114 0.961 . S
H116 C114 0.961 . S
H117 C114 0.960 . S
C118 N119 1.342 . S
C118 C122 1.401 . S
C118 C123 1.499 . S
N119 Co102 1.989 . S
N119 C118 1.342 . S
N119 N120 1.388 . S
N120 Co103 1.993 . S
N120 N119 1.388 . S
N120 C121 1.346 . S
C121 N120 1.346 . S
C121 C122 1.396 . S
C121 C131 1.510 . S
C122 C118 1.401 . S
C122 C121 1.396 . S
C123 C118 1.499 . S
C123 H124 0.959 . S
C123 H125 0.960 . S
C123 H126 0.961 . S
H124 C123 0.959 . S
H125 C123 0.960 . S
H126 C123 0.961 . S
O127 Co102 1.967 1_455 S
O127 C135 1.258 . S
O128 Co103 1.941 1_455 S
O128 C135 1.266 . S
H129 C131 0.959 . S
H130 C131 0.961 . S
C131 C121 1.510 . S
C131 H129 0.959 . S
C131 H130 0.961 . S
C131 H132 0.960 . S
H132 C131 0.960 . S
H133 N113 0.862 . S
O134 Co102 1.920 . S
O134 C107 1.289 . S
C135 O127 1.258 . S
C135 O128 1.266 . S
Co136 O139 1.970 . S
Co136 N153 1.989 . S
Co136 O161 1.967 1_655 S
Co136 O168 1.920 . S
Co137 O140 1.966 . S
Co137 N146 2.022 . S
Co137 N154 1.993 . S
Co137 O162 1.941 1_655 S
C138 O139 1.258 . S
C138 O140 1.263 . S
O139 Co136 1.970 . S
O139 C138 1.258 . S
O140 Co137 1.966 . S
O140 C138 1.263 . S
C141 O142 1.235 . S
C141 O168 1.289 . S
O142 C141 1.235 . S
C143 C145 1.400 . S
C143 N146 1.351 . S
C143 C148 1.501 . S
C144 C145 1.387 . S
C144 N147 1.341 . S
C145 C143 1.400 . S
C145 C144 1.387 . S
N146 Co137 2.022 . S
N146 C143 1.351 . S
N146 N147 1.365 . S
N147 C144 1.341 . S
N147 N146 1.365 . S
N147 H167 0.867 . S
C148 C143 1.501 . S
C148 H149 0.961 . S
C148 H150 0.961 . S
C148 H151 0.960 . S
H149 C148 0.961 . S
H150 C148 0.961 . S
H151 C148 0.960 . S
C152 N153 1.342 . S
C152 C156 1.401 . S
C152 C157 1.499 . S
N153 Co136 1.989 . S
N153 C152 1.342 . S
N153 N154 1.388 . S
N154 Co137 1.993 . S
N154 N153 1.388 . S
N154 C155 1.346 . S
C155 N154 1.346 . S
C155 C156 1.396 . S
C155 C165 1.510 . S
C156 C152 1.401 . S
C156 C155 1.396 . S
C157 C152 1.499 . S
C157 H158 0.959 . S
C157 H159 0.960 . S
C157 H160 0.961 1_556 S
H158 C157 0.959 . S
H159 C157 0.960 . S
H160 C157 0.961 1_554 S
O161 Co136 1.967 1_455 S
O161 C169 1.258 . S
O162 Co137 1.941 1_455 S
O162 C169 1.266 . S
H163 C165 0.959 1_554 S
H164 C165 0.961 . S
C165 C155 1.510 . S
C165 H163 0.959 1_556 S
C165 H164 0.961 . S
C165 H166 0.960 . S
H166 C165 0.960 . S
H167 N147 0.867 . S
O168 Co136 1.920 . S
O168 C141 1.289 . S
C169 O161 1.258 . S
C169 O162 1.266 . S
Co170 O173 1.970 . S
Co170 N187 1.989 . S
Co170 O195 1.967 . S
Co170 O202 1.920 . S
Co171 O174 1.966 . S
Co171 N180 2.022 . S
Co171 N188 1.993 . S
Co171 O196 1.941 . S
C172 O173 1.258 . S
C172 O174 1.263 . S
O173 Co170 1.970 . S
O173 C172 1.258 . S
O174 Co171 1.966 . S
O174 C172 1.263 . S
C175 O176 1.235 . S
C175 O202 1.289 . S
O176 C175 1.235 . S
C177 C179 1.400 . S
C177 N180 1.351 . S
C177 C182 1.501 . S
C178 C179 1.387 . S
C178 N181 1.341 . S
C179 C177 1.400 . S
C179 C178 1.387 . S
N180 Co171 2.022 . S
N180 C177 1.351 . S
N180 N181 1.365 . S
N181 C178 1.341 . S
N181 N180 1.365 . S
N181 H201 0.867 . S
C182 C177 1.501 . S
C182 H183 0.961 . S
C182 H184 0.961 . S
C182 H185 0.960 . S
H183 C182 0.961 . S
H184 C182 0.961 . S
H185 C182 0.960 . S
C186 N187 1.342 . S
C186 C190 1.401 . S
C186 C191 1.499 . S
N187 Co170 1.989 . S
N187 C186 1.342 . S
N187 N188 1.388 . S
N188 Co171 1.993 . S
N188 N187 1.388 . S
N188 C189 1.346 . S
C189 N188 1.346 . S
C189 C190 1.396 . S
C189 C199 1.510 . S
C190 C186 1.401 . S
C190 C189 1.396 . S
C191 C186 1.499 . S
C191 H192 0.959 . S
C191 H193 0.960 . S
C191 H194 0.961 1_556 S
H192 C191 0.959 . S
H193 C191 0.960 . S
H194 C191 0.961 1_554 S
O195 Co170 1.967 . S
O195 C203 1.258 . S
O196 Co171 1.941 . S
O196 C203 1.266 . S
H197 C199 0.959 1_554 S
H198 C199 0.961 . S
C199 C189 1.510 . S
C199 H197 0.959 1_556 S
C199 H198 0.961 . S
C199 H200 0.960 . S
H200 C199 0.960 . S
H201 N181 0.867 . S
O202 Co170 1.920 . S
O202 C175 1.289 . S
C203 O195 1.258 . S
C203 O196 1.266 . S
Co204 O207 1.970 . S
Co204 N221 1.989 . S
Co204 O229 1.967 . S
Co204 O236 1.920 . S
Co205 O208 1.966 . S
Co205 N214 2.022 . S
Co205 N222 1.993 . S
Co205 O230 1.941 . S
C206 O207 1.258 . S
C206 O208 1.263 . S
O207 Co204 1.970 . S
O207 C206 1.258 . S
O208 Co205 1.966 . S
O208 C206 1.263 . S
C209 O210 1.235 . S
C209 O236 1.289 . S
O210 C209 1.235 . S
C211 C213 1.400 . S
C211 N214 1.351 . S
C211 C216 1.501 . S
C212 C213 1.387 . S
C212 N215 1.341 . S
C213 C211 1.400 . S
C213 C212 1.387 . S
N214 Co205 2.022 . S
N214 C211 1.351 . S
N214 N215 1.365 . S
N215 C212 1.341 . S
N215 N214 1.365 . S
N215 H235 0.862 . S
C216 C211 1.501 . S
C216 H217 0.961 . S
C216 H218 0.961 . S
C216 H219 0.960 . S
H217 C216 0.961 . S
H218 C216 0.961 . S
H219 C216 0.960 . S
C220 N221 1.342 . S
C220 C224 1.401 . S
C220 C225 1.499 . S
N221 Co204 1.989 . S
N221 C220 1.342 . S
N221 N222 1.388 . S
N222 Co205 1.993 . S
N222 N221 1.388 . S
N222 C223 1.346 . S
C223 N222 1.346 . S
C223 C224 1.396 . S
C223 C233 1.510 . S
C224 C220 1.401 . S
C224 C223 1.396 . S
C225 C220 1.499 . S
C225 H226 0.959 . S
C225 H227 0.960 . S
C225 H228 0.961 . S
H226 C225 0.959 . S
H227 C225 0.960 . S
H228 C225 0.961 . S
O229 Co204 1.967 . S
O229 C237 1.258 . S
O230 Co205 1.941 . S
O230 C237 1.266 . S
H231 C233 0.959 . S
H232 C233 0.961 . S
C233 C223 1.510 . S
C233 H231 0.959 . S
C233 H232 0.961 . S
C233 H234 0.960 . S
H234 C233 0.960 . S
H235 N215 0.862 . S
O236 Co204 1.920 . S
O236 C209 1.289 . S
C237 O229 1.258 . S
C237 O230 1.266 . S
Co238 O241 1.970 . S
Co238 N255 1.989 . S
Co238 O263 1.967 1_455 S
Co238 O270 1.920 . S
Co239 O242 1.966 . S
Co239 N248 2.022 . S
Co239 N256 1.993 . S
Co239 O264 1.941 1_455 S
C240 O241 1.258 . S
C240 O242 1.263 . S
O241 Co238 1.970 . S
O241 C240 1.258 . S
O242 Co239 1.966 . S
O242 C240 1.263 . S
C243 O244 1.235 . S
C243 O270 1.289 . S
O244 C243 1.235 . S
C245 C247 1.400 . S
C245 N248 1.351 . S
C245 C250 1.501 . S
C246 C247 1.387 . S
C246 N249 1.341 . S
C247 C245 1.400 . S
C247 C246 1.387 . S
N248 Co239 2.022 . S
N248 C245 1.351 . S
N248 N249 1.365 . S
N249 C246 1.341 . S
N249 N248 1.365 . S
N249 H269 0.862 . S
C250 C245 1.501 . S
C250 H251 0.961 . S
C250 H252 0.961 . S
C250 H253 0.960 . S
H251 C250 0.961 . S
H252 C250 0.961 . S
H253 C250 0.960 . S
C254 N255 1.342 . S
C254 C258 1.401 . S
C254 C259 1.499 . S
N255 Co238 1.989 . S
N255 C254 1.342 . S
N255 N256 1.388 . S
N256 Co239 1.993 . S
N256 N255 1.388 . S
N256 C257 1.346 . S
C257 N256 1.346 . S
C257 C258 1.396 . S
C257 C267 1.510 . S
C258 C254 1.401 . S
C258 C257 1.396 . S
C259 C254 1.499 . S
C259 H260 0.959 . S
C259 H261 0.960 . S
C259 H262 0.961 . S
H260 C259 0.959 . S
H261 C259 0.960 . S
H262 C259 0.961 . S
O263 Co238 1.967 1_655 S
O263 C271 1.258 . S
O264 Co239 1.941 1_655 S
O264 C271 1.266 . S
H265 C267 0.959 . S
H266 C267 0.961 . S
C267 C257 1.510 . S
C267 H265 0.959 . S
C267 H266 0.961 . S
C267 H268 0.960 . S
H268 C267 0.960 . S
H269 N249 0.862 . S
O270 Co238 1.920 . S
O270 C243 1.289 . S
C271 O263 1.258 . S
C271 O264 1.266 . S
Co272 O275 1.970 . S
Co272 N289 1.989 . S
Co272 O297 1.967 . S
Co272 O304 1.920 . S
Co273 O276 1.966 . S
Co273 N282 2.022 . S
Co273 N290 1.993 . S
Co273 O298 1.941 . S
C274 O275 1.258 . S
C274 O276 1.263 . S
O275 Co272 1.970 . S
O275 C274 1.258 . S
O276 Co273 1.966 . S
O276 C274 1.263 . S
C277 O278 1.235 . S
C277 O304 1.289 . S
O278 C277 1.235 . S
C279 C281 1.400 . S
C279 N282 1.351 . S
C279 C284 1.501 . S
C280 C281 1.387 . S
C280 N283 1.341 . S
C281 C279 1.400 . S
C281 C280 1.387 . S
N282 Co273 2.022 . S
N282 C279 1.351 . S
N282 N283 1.365 . S
N283 C280 1.341 . S
N283 N282 1.365 . S
N283 H303 0.867 . S
C284 C279 1.501 . S
C284 H285 0.961 . S
C284 H286 0.961 . S
C284 H287 0.960 . S
H285 C284 0.961 . S
H286 C284 0.961 . S
H287 C284 0.960 . S
C288 N289 1.342 . S
C288 C292 1.401 . S
C288 C293 1.499 . S
N289 Co272 1.989 . S
N289 C288 1.342 . S
N289 N290 1.388 . S
N290 Co273 1.993 . S
N290 N289 1.388 . S
N290 C291 1.346 . S
C291 N290 1.346 . S
C291 C292 1.396 . S
C291 C301 1.510 . S
C292 C288 1.401 . S
C292 C291 1.396 . S
C293 C288 1.499 . S
C293 H294 0.959 . S
C293 H295 0.960 . S
C293 H296 0.961 1_554 S
H294 C293 0.959 . S
H295 C293 0.960 . S
H296 C293 0.961 1_556 S
O297 Co272 1.967 . S
O297 C305 1.258 . S
O298 Co273 1.941 . S
O298 C305 1.266 . S
H299 C301 0.959 1_556 S
H300 C301 0.961 . S
C301 C291 1.510 . S
C301 H299 0.959 1_554 S
C301 H300 0.961 . S
C301 H302 0.960 . S
H302 C301 0.960 . S
H303 N283 0.867 . S
O304 Co272 1.920 . S
O304 C277 1.289 . S
C305 O297 1.258 . S
C305 O298 1.266 . S
Co306 O309 1.970 . S
Co306 N323 1.989 . S
Co306 O331 1.967 1_655 S
Co306 O338 1.920 . S
Co307 O310 1.966 . S
Co307 N316 2.022 . S
Co307 N324 1.993 . S
Co307 O332 1.941 1_655 S
C308 O309 1.258 . S
C308 O310 1.263 . S
O309 Co306 1.970 . S
O309 C308 1.258 . S
O310 Co307 1.966 . S
O310 C308 1.263 . S
C311 O312 1.235 . S
C311 O338 1.289 . S
O312 C311 1.235 . S
C313 C315 1.400 . S
C313 N316 1.351 . S
C313 C318 1.501 . S
C314 C315 1.387 . S
C314 N317 1.341 . S
C315 C313 1.400 . S
C315 C314 1.387 . S
N316 Co307 2.022 . S
N316 C313 1.351 . S
N316 N317 1.365 . S
N317 C314 1.341 . S
N317 N316 1.365 . S
N317 H337 0.867 . S
C318 C313 1.501 . S
C318 H319 0.961 . S
C318 H320 0.961 . S
C318 H321 0.960 . S
H319 C318 0.961 . S
H320 C318 0.961 . S
H321 C318 0.960 . S
C322 N323 1.342 . S
C322 C326 1.401 . S
C322 C327 1.499 . S
N323 Co306 1.989 . S
N323 C322 1.342 . S
N323 N324 1.388 . S
N324 Co307 1.993 . S
N324 N323 1.388 . S
N324 C325 1.346 . S
C325 N324 1.346 . S
C325 C326 1.396 . S
C325 C335 1.510 . S
C326 C322 1.401 . S
C326 C325 1.396 . S
C327 C322 1.499 . S
C327 H328 0.959 . S
C327 H329 0.960 . S
C327 H330 0.961 1_554 S
H328 C327 0.959 . S
H329 C327 0.960 . S
H330 C327 0.961 1_556 S
O331 Co306 1.967 1_455 S
O331 C339 1.258 . S
O332 Co307 1.941 1_455 S
O332 C339 1.266 . S
H333 C335 0.959 1_556 S
H334 C335 0.961 . S
C335 C325 1.510 . S
C335 H333 0.959 1_554 S
C335 H334 0.961 . S
C335 H336 0.960 . S
H336 C335 0.960 . S
H337 N317 0.867 . S
O338 Co306 1.920 . S
O338 C311 1.289 . S
C339 O331 1.258 . S
C339 O332 1.266 . S
Co340 O343 1.970 . S
Co340 N357 1.989 . S
Co340 O365 1.967 1_455 S
Co340 O372 1.920 . S
Co341 O344 1.966 . S
Co341 N350 2.022 . S
Co341 N358 1.993 . S
Co341 O366 1.941 1_455 S
C342 O343 1.258 . S
C342 O344 1.263 . S
O343 Co340 1.970 . S
O343 C342 1.258 . S
O344 Co341 1.966 . S
O344 C342 1.263 . S
C345 O346 1.235 . S
C345 O372 1.289 . S
O346 C345 1.235 . S
C347 C349 1.400 . S
C347 N350 1.351 . S
C347 C352 1.501 . S
C348 C349 1.387 . S
C348 N351 1.341 . S
C349 C347 1.400 . S
C349 C348 1.387 . S
N350 Co341 2.022 . S
N350 C347 1.351 . S
N350 N351 1.365 . S
N351 C348 1.341 . S
N351 N350 1.365 . S
N351 H371 0.862 . S
C352 C347 1.501 . S
C352 H353 0.961 . S
C352 H354 0.961 . S
C352 H355 0.960 . S
H353 C352 0.961 . S
H354 C352 0.961 . S
H355 C352 0.960 . S
C356 N357 1.342 . S
C356 C360 1.401 . S
C356 C361 1.499 . S
N357 Co340 1.989 . S
N357 C356 1.342 . S
N357 N358 1.388 . S
N358 Co341 1.993 . S
N358 N357 1.388 . S
N358 C359 1.346 . S
C359 N358 1.346 . S
C359 C360 1.396 . S
C359 C369 1.510 . S
C360 C356 1.401 . S
C360 C359 1.396 . S
C361 C356 1.499 . S
C361 H362 0.959 . S
C361 H363 0.960 . S
C361 H364 0.961 . S
H362 C361 0.959 . S
H363 C361 0.960 . S
H364 C361 0.961 . S
O365 Co340 1.967 1_655 S
O365 C373 1.258 . S
O366 Co341 1.941 1_655 S
O366 C373 1.266 . S
H367 C369 0.959 . S
H368 C369 0.961 . S
C369 C359 1.510 . S
C369 H367 0.959 . S
C369 H368 0.961 . S
C369 H370 0.960 . S
H370 C369 0.960 . S
H371 N351 0.862 . S
O372 Co340 1.920 . S
O372 C345 1.289 . S
C373 O365 1.258 . S
C373 O366 1.266 . S
Co374 O377 1.970 . S
Co374 N391 1.989 . S
Co374 O399 1.967 . S
Co374 O406 1.920 . S
Co375 O378 1.966 . S
Co375 N384 2.022 . S
Co375 N392 1.993 . S
Co375 O400 1.941 . S
C376 O377 1.258 . S
C376 O378 1.263 . S
O377 Co374 1.970 . S
O377 C376 1.258 . S
O378 Co375 1.966 . S
O378 C376 1.263 . S
C379 O380 1.235 . S
C379 O406 1.289 . S
O380 C379 1.235 . S
C381 C383 1.400 . S
C381 N384 1.351 . S
C381 C386 1.501 . S
C382 C383 1.387 . S
C382 N385 1.341 . S
C383 C381 1.400 . S
C383 C382 1.387 . S
N384 Co375 2.022 . S
N384 C381 1.351 . S
N384 N385 1.365 . S
N385 C382 1.341 . S
N385 N384 1.365 . S
N385 H405 0.862 . S
C386 C381 1.501 . S
C386 H387 0.961 . S
C386 H388 0.961 . S
C386 H389 0.960 . S
H387 C386 0.961 . S
H388 C386 0.961 . S
H389 C386 0.960 . S
C390 N391 1.342 . S
C390 C394 1.401 . S
C390 C395 1.499 . S
N391 Co374 1.989 . S
N391 C390 1.342 . S
N391 N392 1.388 . S
N392 Co375 1.993 . S
N392 N391 1.388 . S
N392 C393 1.346 . S
C393 N392 1.346 . S
C393 C394 1.396 . S
C393 C403 1.510 . S
C394 C390 1.401 . S
C394 C393 1.396 . S
C395 C390 1.499 . S
C395 H396 0.959 . S
C395 H397 0.960 . S
C395 H398 0.961 . S
H396 C395 0.959 . S
H397 C395 0.960 . S
H398 C395 0.961 . S
O399 Co374 1.967 . S
O399 C407 1.258 . S
O400 Co375 1.941 . S
O400 C407 1.266 . S
H401 C403 0.959 . S
H402 C403 0.961 . S
C403 C393 1.510 . S
C403 H401 0.959 . S
C403 H402 0.961 . S
C403 H404 0.960 . S
H404 C403 0.960 . S
H405 N385 0.862 . S
O406 Co374 1.920 . S
O406 C379 1.289 . S
C407 O399 1.258 . S
C407 O400 1.266 . S
Co408 O411 1.970 . S
Co408 N425 1.989 . S
Co408 O433 1.967 . S
Co408 O440 1.920 . S
Co409 O412 1.966 . S
Co409 N418 2.022 . S
Co409 N426 1.993 . S
Co409 O434 1.941 . S
C410 O411 1.258 . S
C410 O412 1.263 . S
O411 Co408 1.970 . S
O411 C410 1.258 . S
O412 Co409 1.966 . S
O412 C410 1.263 . S
C413 O414 1.235 . S
C413 O440 1.289 . S
O414 C413 1.235 . S
C415 C417 1.400 . S
C415 N418 1.351 . S
C415 C420 1.501 . S
C416 C417 1.387 . S
C416 N419 1.341 . S
C417 C415 1.400 . S
C417 C416 1.387 . S
N418 Co409 2.022 . S
N418 C415 1.351 . S
N418 N419 1.365 . S
N419 C416 1.341 . S
N419 N418 1.365 . S
N419 H439 0.867 . S
C420 C415 1.501 . S
C420 H421 0.961 . S
C420 H422 0.961 . S
C420 H423 0.960 . S
H421 C420 0.961 . S
H422 C420 0.961 . S
H423 C420 0.960 . S
C424 N425 1.342 . S
C424 C428 1.401 . S
C424 C429 1.499 . S
N425 Co408 1.989 . S
N425 C424 1.342 . S
N425 N426 1.388 . S
N426 Co409 1.993 . S
N426 N425 1.388 . S
N426 C427 1.346 . S
C427 N426 1.346 . S
C427 C428 1.396 . S
C427 C437 1.510 . S
C428 C424 1.401 . S
C428 C427 1.396 . S
C429 C424 1.499 . S
C429 H430 0.959 . S
C429 H431 0.960 . S
C429 H432 0.961 1_556 S
H430 C429 0.959 . S
H431 C429 0.960 . S
H432 C429 0.961 1_554 S
O433 Co408 1.967 . S
O433 C441 1.258 . S
O434 Co409 1.941 . S
O434 C441 1.266 . S
H435 C437 0.959 1_554 S
H436 C437 0.961 . S
C437 C427 1.510 . S
C437 H435 0.959 1_556 S
C437 H436 0.961 . S
C437 H438 0.960 . S
H438 C437 0.960 . S
H439 N419 0.867 . S
O440 Co408 1.920 . S
O440 C413 1.289 . S
C441 O433 1.258 . S
C441 O434 1.266 . S
Co442 O445 1.970 . S
Co442 N459 1.989 . S
Co442 O467 1.967 1_455 S
Co442 O474 1.920 . S
Co443 O446 1.966 . S
Co443 N452 2.022 . S
Co443 N460 1.993 . S
Co443 O468 1.941 1_455 S
C444 O445 1.258 . S
C444 O446 1.263 . S
O445 Co442 1.970 . S
O445 C444 1.258 . S
O446 Co443 1.966 . S
O446 C444 1.263 . S
C447 O448 1.235 . S
C447 O474 1.289 . S
O448 C447 1.235 . S
C449 C451 1.400 . S
C449 N452 1.351 . S
C449 C454 1.501 . S
C450 C451 1.387 . S
C450 N453 1.341 . S
C451 C449 1.400 . S
C451 C450 1.387 . S
N452 Co443 2.022 . S
N452 C449 1.351 . S
N452 N453 1.365 . S
N453 C450 1.341 . S
N453 N452 1.365 . S
N453 H473 0.867 . S
C454 C449 1.501 . S
C454 H455 0.961 . S
C454 H456 0.961 . S
C454 H457 0.960 . S
H455 C454 0.961 . S
H456 C454 0.961 . S
H457 C454 0.960 . S
C458 N459 1.342 . S
C458 C462 1.401 . S
C458 C463 1.499 . S
N459 Co442 1.989 . S
N459 C458 1.342 . S
N459 N460 1.388 . S
N460 Co443 1.993 . S
N460 N459 1.388 . S
N460 C461 1.346 . S
C461 N460 1.346 . S
C461 C462 1.396 . S
C461 C471 1.510 . S
C462 C458 1.401 . S
C462 C461 1.396 . S
C463 C458 1.499 . S
C463 H464 0.959 . S
C463 H465 0.960 . S
C463 H466 0.961 1_556 S
H464 C463 0.959 . S
H465 C463 0.960 . S
H466 C463 0.961 1_554 S
O467 Co442 1.967 1_655 S
O467 C475 1.258 . S
O468 Co443 1.941 1_655 S
O468 C475 1.266 . S
H469 C471 0.959 1_554 S
H470 C471 0.961 . S
C471 C461 1.510 . S
C471 H469 0.959 1_556 S
C471 H470 0.961 . S
C471 H472 0.960 . S
H472 C471 0.960 . S
H473 N453 0.867 . S
O474 Co442 1.920 . S
O474 C447 1.289 . S
C475 O467 1.258 . S
C475 O468 1.266 . S
Co476 O479 1.970 . S
Co476 N493 1.989 . S
Co476 O501 1.967 1_655 S
Co476 O508 1.920 . S
Co477 O480 1.966 . S
Co477 N486 2.022 . S
Co477 N494 1.993 . S
Co477 O502 1.941 1_655 S
C478 O479 1.258 . S
C478 O480 1.263 . S
O479 Co476 1.970 . S
O479 C478 1.258 . S
O480 Co477 1.966 . S
O480 C478 1.263 . S
C481 O482 1.235 . S
C481 O508 1.289 . S
O482 C481 1.235 . S
C483 C485 1.400 . S
C483 N486 1.351 . S
C483 C488 1.501 . S
C484 C485 1.387 . S
C484 N487 1.341 . S
C485 C483 1.400 . S
C485 C484 1.387 . S
N486 Co477 2.022 . S
N486 C483 1.351 . S
N486 N487 1.365 . S
N487 C484 1.341 . S
N487 N486 1.365 . S
N487 H507 0.862 . S
C488 C483 1.501 . S
C488 H489 0.961 . S
C488 H490 0.961 . S
C488 H491 0.960 . S
H489 C488 0.961 . S
H490 C488 0.961 . S
H491 C488 0.960 . S
C492 N493 1.342 . S
C492 C496 1.401 . S
C492 C497 1.499 . S
N493 Co476 1.989 . S
N493 C492 1.342 . S
N493 N494 1.388 . S
N494 Co477 1.993 . S
N494 N493 1.388 . S
N494 C495 1.346 . S
C495 N494 1.346 . S
C495 C496 1.396 . S
C495 C505 1.510 . S
C496 C492 1.401 . S
C496 C495 1.396 . S
C497 C492 1.499 . S
C497 H498 0.959 . S
C497 H499 0.960 . S
C497 H500 0.961 . S
H498 C497 0.959 . S
H499 C497 0.960 . S
H500 C497 0.961 . S
O501 Co476 1.967 1_455 S
O501 C509 1.258 . S
O502 Co477 1.941 1_455 S
O502 C509 1.266 . S
H503 C505 0.959 . S
H504 C505 0.961 . S
C505 C495 1.510 . S
C505 H503 0.959 . S
C505 H504 0.961 . S
C505 H506 0.960 . S
H506 C505 0.960 . S
H507 N487 0.862 . S
O508 Co476 1.920 . S
O508 C481 1.289 . S
C509 O501 1.258 . S
C509 O502 1.266 . S
Co510 O513 1.970 . S
Co510 N527 1.989 . S
Co510 O535 1.967 . S
Co510 O542 1.920 . S
Co511 O514 1.966 . S
Co511 N520 2.022 . S
Co511 N528 1.993 . S
Co511 O536 1.941 . S
C512 O513 1.258 . S
C512 O514 1.263 . S
O513 Co510 1.970 . S
O513 C512 1.258 . S
O514 Co511 1.966 . S
O514 C512 1.263 . S
C515 O516 1.235 . S
C515 O542 1.289 . S
O516 C515 1.235 . S
C517 C519 1.400 . S
C517 N520 1.351 . S
C517 C522 1.501 . S
C518 C519 1.387 . S
C518 N521 1.341 . S
C519 C517 1.400 . S
C519 C518 1.387 . S
N520 Co511 2.022 . S
N520 C517 1.351 . S
N520 N521 1.365 . S
N521 C518 1.341 . S
N521 N520 1.365 . S
N521 H541 0.862 . S
C522 C517 1.501 . S
C522 H523 0.961 . S
C522 H524 0.961 . S
C522 H525 0.960 . S
H523 C522 0.961 . S
H524 C522 0.961 . S
H525 C522 0.960 . S
C526 N527 1.342 . S
C526 C530 1.401 . S
C526 C531 1.499 . S
N527 Co510 1.989 . S
N527 C526 1.342 . S
N527 N528 1.388 . S
N528 Co511 1.993 . S
N528 N527 1.388 . S
N528 C529 1.346 . S
C529 N528 1.346 . S
C529 C530 1.396 . S
C529 C539 1.510 . S
C530 C526 1.401 . S
C530 C529 1.396 . S
C531 C526 1.499 . S
C531 H532 0.959 . S
C531 H533 0.960 . S
C531 H534 0.961 . S
H532 C531 0.959 . S
H533 C531 0.960 . S
H534 C531 0.961 . S
O535 Co510 1.967 . S
O535 C543 1.258 . S
O536 Co511 1.941 . S
O536 C543 1.266 . S
H537 C539 0.959 . S
H538 C539 0.961 . S
C539 C529 1.510 . S
C539 H537 0.959 . S
C539 H538 0.961 . S
C539 H540 0.960 . S
H540 C539 0.960 . S
H541 N521 0.862 . S
O542 Co510 1.920 . S
O542 C515 1.289 . S
C543 O535 1.258 . S
C543 O536 1.266 . S
C203 C20 1.444 1_556 S
C169 C54 1.444 1_556 S
C88 C271 1.444 . S
C122 C237 1.444 . S
C156 C67 1.444 1_556 S
C190 C33 1.444 1_556 S
C135 C224 1.444 . S
C258 C101 1.444 . S
C292 C475 1.444 1_554 S
C326 C441 1.444 1_554 S
C360 C543 1.444 . S
C394 C509 1.444 . S
C428 C339 1.444 1_556 S
C462 C305 1.444 1_556 S
C407 C496 1.444 . S
C373 C530 1.444 . S
C9 C43 1.524 1_545 S
C77 C111 1.524 1_565 S
C179 C145 1.524 1_545 S
C247 C213 1.524 1_565 S
C315 C281 1.524 . S
C383 C349 1.524 . S
C417 C451 1.524 . S
C485 C519 1.524 . S
C311 C5 2.151 1_655 S
C39 C277 2.151 . S
C73 C379 2.151 . S
C345 C107 2.151 1_455 S
C141 C447 2.151 1_655 S
C175 C413 2.151 . S
C209 C515 2.151 . S
C481 C243 2.151 1_655 S
C2 C104 1.453 1_455 S
C36 C70 1.453 . S
C138 C240 1.453 1_655 S
C172 C206 1.453 . S
C376 C274 1.453 . S
C342 C308 1.453 1_455 S
C410 C512 1.453 . S
C444 C478 1.453 1_455 S
