# Generated by pormake.
# Topology afi, (4)-cn, num edge types: 1
# Building blocks:
#     Node 0, Type 0, BuildingBlock: AZAVOO_clean_sbu_0, # of connection points: 4
#     Node 1, Type 0, BuildingBlock: AZAVOO_clean_sbu_0, # of connection points: 4
#     Node 2, Type 0, BuildingBlock: AZAVOO_clean_sbu_0, # of connection points: 4
#     Node 3, Type 0, BuildingBlock: AZAVOO_clean_sbu_0, # of connection points: 4
#     Node 4, Type 0, BuildingBlock: AZAVOO_clean_sbu_0, # of connection points: 4
#     Node 5, Type 0, BuildingBlock: AZAVOO_clean_sbu_0, # of connection points: 4
#     Node 6, Type 0, BuildingBlock: AZAVOO_clean_sbu_0, # of connection points: 4
#     Node 7, Type 0, BuildingBlock: AZAVOO_clean_sbu_0, # of connection points: 4
#     Node 8, Type 0, BuildingBlock: AZAVOO_clean_sbu_0, # of connection points: 4
#     Node 9, Type 0, BuildingBlock: AZAVOO_clean_sbu_0, # of connection points: 4
#     Node 10, Type 0, BuildingBlock: AZAVOO_clean_sbu_0, # of connection points: 4
#     Node 11, Type 0, BuildingBlock: AZAVOO_clean_sbu_0, # of connection points: 4
#     Node 12, Type 0, BuildingBlock: AZAVOO_clean_sbu_0, # of connection points: 4
#     Node 13, Type 0, BuildingBlock: AZAVOO_clean_sbu_0, # of connection points: 4
#     Node 14, Type 0, BuildingBlock: AZAVOO_clean_sbu_0, # of connection points: 4
#     Node 15, Type 0, BuildingBlock: AZAVOO_clean_sbu_0, # of connection points: 4
#     Node 16, Type 0, BuildingBlock: AZAVOO_clean_sbu_0, # of connection points: 4
#     Node 17, Type 0, BuildingBlock: AZAVOO_clean_sbu_0, # of connection points: 4
#     Node 18, Type 0, BuildingBlock: AZAVOO_clean_sbu_0, # of connection points: 4
#     Node 19, Type 0, BuildingBlock: AZAVOO_clean_sbu_0, # of connection points: 4
#     Node 20, Type 0, BuildingBlock: AZAVOO_clean_sbu_0, # of connection points: 4
#     Node 21, Type 0, BuildingBlock: AZAVOO_clean_sbu_0, # of connection points: 4
#     Node 22, Type 0, BuildingBlock: AZAVOO_clean_sbu_0, # of connection points: 4
#     Node 23, Type 0, BuildingBlock: AZAVOO_clean_sbu_0, # of connection points: 4
#     Edge 24, Type (0, 0), BuildingBlock: AJUNOK_clean_linker_0, # of connection points: 2
#     Edge 25, Type (0, 0), BuildingBlock: AJUNOK_clean_linker_0, # of connection points: 2
#     Edge 26, Type (0, 0), BuildingBlock: AJUNOK_clean_linker_0, # of connection points: 2
#     Edge 27, Type (0, 0), BuildingBlock: AJUNOK_clean_linker_0, # of connection points: 2
#     Edge 28, Type (0, 0), BuildingBlock: AJUNOK_clean_linker_0, # of connection points: 2
#     Edge 29, Type (0, 0), BuildingBlock: AJUNOK_clean_linker_0, # of connection points: 2
#     Edge 30, Type (0, 0), BuildingBlock: AJUNOK_clean_linker_0, # of connection points: 2
#     Edge 31, Type (0, 0), BuildingBlock: AJUNOK_clean_linker_0, # of connection points: 2
#     Edge 32, Type (0, 0), BuildingBlock: AJUNOK_clean_linker_0, # of connection points: 2
#     Edge 33, Type (0, 0), BuildingBlock: AJUNOK_clean_linker_0, # of connection points: 2
#     Edge 34, Type (0, 0), BuildingBlock: AJUNOK_clean_linker_0, # of connection points: 2
#     Edge 35, Type (0, 0), BuildingBlock: AJUNOK_clean_linker_0, # of connection points: 2
#     Edge 36, Type (0, 0), BuildingBlock: AJUNOK_clean_linker_0, # of connection points: 2
#     Edge 37, Type (0, 0), BuildingBlock: AJUNOK_clean_linker_0, # of connection points: 2
#     Edge 38, Type (0, 0), BuildingBlock: AJUNOK_clean_linker_0, # of connection points: 2
#     Edge 39, Type (0, 0), BuildingBlock: AJUNOK_clean_linker_0, # of connection points: 2
#     Edge 40, Type (0, 0), BuildingBlock: AJUNOK_clean_linker_0, # of connection points: 2
#     Edge 41, Type (0, 0), BuildingBlock: AJUNOK_clean_linker_0, # of connection points: 2
#     Edge 42, Type (0, 0), BuildingBlock: AJUNOK_clean_linker_0, # of connection points: 2
#     Edge 43, Type (0, 0), BuildingBlock: AJUNOK_clean_linker_0, # of connection points: 2
#     Edge 44, Type (0, 0), BuildingBlock: AJUNOK_clean_linker_0, # of connection points: 2
#     Edge 45, Type (0, 0), BuildingBlock: AJUNOK_clean_linker_0, # of connection points: 2
#     Edge 46, Type (0, 0), BuildingBlock: AJUNOK_clean_linker_0, # of connection points: 2
#     Edge 47, Type (0, 0), BuildingBlock: AJUNOK_clean_linker_0, # of connection points: 2
#     Edge 48, Type (0, 0), BuildingBlock: AJUNOK_clean_linker_0, # of connection points: 2
#     Edge 49, Type (0, 0), BuildingBlock: AJUNOK_clean_linker_0, # of connection points: 2
#     Edge 50, Type (0, 0), BuildingBlock: AJUNOK_clean_linker_0, # of connection points: 2
#     Edge 51, Type (0, 0), BuildingBlock: AJUNOK_clean_linker_0, # of connection points: 2
#     Edge 52, Type (0, 0), BuildingBlock: AJUNOK_clean_linker_0, # of connection points: 2
#     Edge 53, Type (0, 0), BuildingBlock: AJUNOK_clean_linker_0, # of connection points: 2
#     Edge 54, Type (0, 0), BuildingBlock: AJUNOK_clean_linker_0, # of connection points: 2
#     Edge 55, Type (0, 0), BuildingBlock: AJUNOK_clean_linker_0, # of connection points: 2
#     Edge 56, Type (0, 0), BuildingBlock: AJUNOK_clean_linker_0, # of connection points: 2
#     Edge 57, Type (0, 0), BuildingBlock: AJUNOK_clean_linker_0, # of connection points: 2
#     Edge 58, Type (0, 0), BuildingBlock: AJUNOK_clean_linker_0, # of connection points: 2
#     Edge 59, Type (0, 0), BuildingBlock: AJUNOK_clean_linker_0, # of connection points: 2
#     Edge 60, Type (0, 0), BuildingBlock: AJUNOK_clean_linker_0, # of connection points: 2
#     Edge 61, Type (0, 0), BuildingBlock: AJUNOK_clean_linker_0, # of connection points: 2
#     Edge 62, Type (0, 0), BuildingBlock: AJUNOK_clean_linker_0, # of connection points: 2
#     Edge 63, Type (0, 0), BuildingBlock: AJUNOK_clean_linker_0, # of connection points: 2
#     Edge 64, Type (0, 0), BuildingBlock: AJUNOK_clean_linker_0, # of connection points: 2
#     Edge 65, Type (0, 0), BuildingBlock: AJUNOK_clean_linker_0, # of connection points: 2
#     Edge 66, Type (0, 0), BuildingBlock: AJUNOK_clean_linker_0, # of connection points: 2
#     Edge 67, Type (0, 0), BuildingBlock: AJUNOK_clean_linker_0, # of connection points: 2
#     Edge 68, Type (0, 0), BuildingBlock: AJUNOK_clean_linker_0, # of connection points: 2
#     Edge 69, Type (0, 0), BuildingBlock: AJUNOK_clean_linker_0, # of connection points: 2
#     Edge 70, Type (0, 0), BuildingBlock: AJUNOK_clean_linker_0, # of connection points: 2
#     Edge 71, Type (0, 0), BuildingBlock: AJUNOK_clean_linker_0, # of connection points: 2
# Relax obj value: 0.099
# Max RMSD: 0.128
# Mean RMSD: 0.126
data_MOF--net-afi--node1-AZAVOO_clean_sbu_0--edge1-AJUNOK_clean_linker_0
_symmetry_space_group_name_H-M    P1
_symmetry_Int_Tables_number       1
_symmetry_cell_setting            triclinic
loop_
_symmetry_equiv_pos_as_xyz
'x, y, z'
_cell_length_a     48.490703
_cell_length_b     48.533984
_cell_length_c     31.745416
_cell_angle_alpha  89.79838
_cell_angle_beta   90.051069
_cell_angle_gamma 119.93245
loop_
_atom_site_label
_atom_site_type_symbol
_atom_site_fract_x
_atom_site_fract_y
_atom_site_fract_z
_atom_type_partial_charge
Mg0 Mg 0.43656 0.11218 0.1743 0.0
O1 O 0.47779 0.10457 0.19683 0.0
O2 O 0.46566 0.05649 0.17312 0.0
Mg3 Mg 0.41845 0.03293 0.13837 0.0
C4 C 0.48433 0.08223 0.19234 0.0
C5 C 0.46676 0.17477 0.22786 0.0
O6 O 0.45793 0.15349 0.25814 0.0
O7 O 0.45654 0.1204 0.10759 0.0
O8 O 0.44193 0.0709 0.08743 0.0
O9 O 0.40812 0.08824 0.23232 0.0
O10 O 0.4056 0.0635 0.1732 0.0
C11 C 0.45504 0.10065 0.07985 0.0
C12 C 0.39704 0.06182 0.21179 0.0
O13 O 0.46364 0.1654 0.18988 0.0
Mg14 Mg 0.32443 0.43384 0.16663 0.0
O15 O 0.37106 0.47304 0.19614 0.0
O16 O 0.40902 0.46224 0.17685 0.0
Mg17 Mg 0.38836 0.41834 0.13526 0.0
C18 C 0.40002 0.47937 0.19631 0.0
C19 C 0.29244 0.46436 0.22061 0.0
O20 O 0.30536 0.4559 0.25072 0.0
O21 O 0.34083 0.45814 0.10274 0.0
O22 O 0.37774 0.44555 0.08482 0.0
O23 O 0.3164 0.40209 0.22223 0.0
O24 O 0.34222 0.40287 0.16467 0.0
C25 C 0.36127 0.45881 0.07668 0.0
C26 C 0.33303 0.3922 0.20212 0.0
O27 O 0.29787 0.46047 0.18253 0.0
Mg28 Mg 0.88813 0.32504 0.16694 0.0
O29 O 0.88997 0.36985 0.19396 0.0
O30 O 0.93482 0.41136 0.1695 0.0
Mg31 Mg 0.96256 0.39426 0.13017 0.0
C32 C 0.90909 0.39976 0.19082 0.0
C33 C 0.83295 0.26642 0.19945 0.0
O34 O 0.8572 0.26185 0.19349 0.0
O35 O 0.87542 0.33603 0.10169 0.0
O36 O 0.92289 0.37586 0.08151 0.0
O37 O 0.91606 0.32338 0.22203 0.0
O38 O 0.93752 0.34851 0.16251 0.0
C39 C 0.8936 0.35637 0.07413 0.0
C40 C 0.94134 0.34155 0.2003 0.0
O41 O 0.83638 0.29327 0.18892 0.0
Mg42 Mg 0.54996 0.8805 0.17153 0.0
O43 O 0.5108 0.89072 0.19477 0.0
O44 O 0.52478 0.93958 0.17162 0.0
Mg45 Mg 0.5704 0.96023 0.13333 0.0
C46 C 0.5059 0.91423 0.1917 0.0
C47 C 0.51571 0.82169 0.23074 0.0
O48 O 0.52181 0.84516 0.25654 0.0
O49 O 0.52909 0.8717 0.105 0.0
O50 O 0.54504 0.92149 0.08417 0.0
O51 O 0.57948 0.90503 0.22837 0.0
O52 O 0.58247 0.92882 0.16787 0.0
C53 C 0.53114 0.89169 0.07696 0.0
C54 C 0.59117 0.93099 0.20644 0.0
O55 O 0.52161 0.828 0.19172 0.0
Mg56 Mg 0.66358 0.55244 0.17299 0.0
O57 O 0.61818 0.51109 0.20346 0.0
O58 O 0.57789 0.51656 0.17828 0.0
Mg59 Mg 0.59519 0.55756 0.13202 0.0
C60 C 0.58856 0.5023 0.20114 0.0
C61 C 0.72447 0.55957 0.19864 0.0
O62 O 0.72712 0.58643 0.18524 0.0
O63 O 0.65189 0.52506 0.11115 0.0
O64 O 0.61248 0.53234 0.0878 0.0
O65 O 0.66698 0.58595 0.22361 0.0
O66 O 0.64088 0.5789 0.16417 0.0
C67 C 0.63149 0.52155 0.08299 0.0
C68 C 0.64899 0.59237 0.20031 0.0
O69 O 0.69692 0.53491 0.19747 0.0
Mg70 Mg 0.11593 0.6734 0.1652 0.0
O71 O 0.11488 0.62835 0.19067 0.0
O72 O 0.0691 0.58704 0.1681 0.0
Mg73 Mg 0.03951 0.60492 0.13402 0.0
C74 C 0.09568 0.59847 0.18734 0.0
C75 C 0.18032 0.7085 0.21528 0.0
O76 O 0.16085 0.69223 0.24614 0.0
O77 O 0.12397 0.6617 0.09846 0.0
O78 O 0.07555 0.62262 0.08009 0.0
O79 O 0.09226 0.67597 0.22424 0.0
O80 O 0.06677 0.65047 0.1665 0.0
C81 C 0.10469 0.64206 0.07141 0.0
C82 C 0.06573 0.65769 0.20509 0.0
O83 O 0.16935 0.70429 0.178 0.0
Mg84 Mg 0.88647 0.55276 0.31184 0.0
O85 O 0.88649 0.50928 0.28298 0.0
O86 O 0.92817 0.50806 0.31191 0.0
Mg87 Mg 0.95619 0.55094 0.35447 0.0
C88 C 0.90381 0.49649 0.28795 0.0
C89 C 0.83482 0.56213 0.27794 0.0
O90 O 0.86001 0.58983 0.28595 0.0
O91 O 0.86941 0.52711 0.37537 0.0
O92 O 0.91449 0.53122 0.39969 0.0
O93 O 0.91688 0.58355 0.25923 0.0
O94 O 0.93604 0.57498 0.31779 0.0
C95 C 0.88531 0.52307 0.40451 0.0
C96 C 0.94122 0.5874 0.2807 0.0
O97 O 0.83592 0.53728 0.28793 0.0
Mg98 Mg 0.32844 0.88499 0.31691 0.0
O99 O 0.37465 0.89414 0.28362 0.0
O100 O 0.41265 0.94191 0.30567 0.0
Mg101 Mg 0.39267 0.96285 0.35223 0.0
C102 C 0.40352 0.91687 0.28368 0.0
C103 C 0.29573 0.82527 0.25803 0.0
O104 O 0.30869 0.84791 0.22953 0.0
O105 O 0.34626 0.87403 0.37742 0.0
O106 O 0.38322 0.92261 0.39805 0.0
O107 O 0.31887 0.91102 0.26585 0.0
O108 O 0.34604 0.9335 0.3236 0.0
C109 C 0.36724 0.89257 0.40378 0.0
C110 C 0.33587 0.93658 0.28754 0.0
O111 O 0.30151 0.83278 0.2967 0.0
Mg112 Mg 0.43801 0.32432 0.3211 0.0
O113 O 0.47764 0.37129 0.29193 0.0
O114 O 0.46679 0.40871 0.31333 0.0
Mg115 Mg 0.42194 0.3876 0.35323 0.0
C116 C 0.48423 0.40031 0.29332 0.0
C117 C 0.46868 0.29219 0.26769 0.0
O118 O 0.46173 0.3063 0.23751 0.0
O119 O 0.46206 0.34046 0.38488 0.0
O120 O 0.44884 0.37668 0.40374 0.0
O121 O 0.40661 0.31604 0.2655 0.0
O122 O 0.40703 0.34221 0.32231 0.0
C123 C 0.46243 0.36044 0.41133 0.0
C124 C 0.39668 0.33293 0.28478 0.0
O125 O 0.46418 0.2972 0.30572 0.0
Mg126 Mg 0.11716 0.4462 0.31458 0.0
O127 O 0.11569 0.48836 0.28326 0.0
O128 O 0.07012 0.48528 0.30448 0.0
Mg129 Mg 0.04113 0.44041 0.34384 0.0
C130 C 0.09639 0.49906 0.28432 0.0
C131 C 0.18006 0.47225 0.26214 0.0
O132 O 0.15978 0.46822 0.23205 0.0
O133 O 0.12635 0.47007 0.37884 0.0
O134 O 0.07801 0.46153 0.39647 0.0
O135 O 0.09238 0.41572 0.259 0.0
O136 O 0.06791 0.42005 0.31499 0.0
C137 C 0.10725 0.47171 0.40514 0.0
C138 C 0.06602 0.40879 0.27788 0.0
O139 O 0.17023 0.46731 0.30007 0.0
Mg140 Mg 0.66342 0.10885 0.3126 0.0
O141 O 0.61869 0.10471 0.28027 0.0
O142 O 0.57818 0.05765 0.3014 0.0
Mg143 Mg 0.59501 0.03292 0.34693 0.0
C144 C 0.58922 0.08342 0.28028 0.0
C145 C 0.72307 0.16291 0.28488 0.0
O146 O 0.72649 0.13873 0.29634 0.0
O147 O 0.64856 0.12124 0.37476 0.0
O148 O 0.60928 0.0732 0.3943 0.0
O149 O 0.66978 0.08199 0.2604 0.0
O150 O 0.64173 0.05943 0.31758 0.0
C151 C 0.62743 0.10284 0.40128 0.0
C152 C 0.65122 0.05629 0.28106 0.0
O153 O 0.69589 0.16042 0.29033 0.0
Mg154 Mg 0.54399 0.66619 0.30236 0.0
O155 O 0.50544 0.61622 0.27988 0.0
O156 O 0.52029 0.58246 0.30504 0.0
Mg157 Mg 0.56546 0.60844 0.34374 0.0
C158 C 0.50119 0.58811 0.28402 0.0
C159 C 0.5176 0.71266 0.30217 0.0
O160 O 0.53225 0.71866 0.33867 0.0
O161 O 0.52258 0.6549 0.36864 0.0
O162 O 0.53901 0.62186 0.39132 0.0
O163 O 0.57372 0.6708 0.24604 0.0
O164 O 0.577 0.6509 0.30712 0.0
C165 C 0.52466 0.63753 0.39745 0.0
C166 C 0.58544 0.6567 0.26831 0.0
O167 O 0.51532 0.68962 0.28051 0.0
Mg168 Mg 0.55103 0.87278 0.8105 0.0
O169 O 0.501 0.85374 0.78385 0.0
O170 O 0.47087 0.80325 0.80428 0.0
Mg171 Mg 0.50151 0.78933 0.8438 0.0
C172 C 0.47441 0.82779 0.78461 0.0
C173 C 0.59161 0.93625 0.77015 0.0
O174 O 0.60707 0.92046 0.76894 0.0
O175 O 0.53311 0.87624 0.87574 0.0
O176 O 0.50641 0.82483 0.89449 0.0
O177 O 0.56462 0.85396 0.75509 0.0
O178 O 0.54453 0.82713 0.81407 0.0
C179 C 0.51716 0.85421 0.90267 0.0
C180 C 0.55477 0.828 0.77657 0.0
O181 O 0.56493 0.92341 0.78917 0.0
Mg182 Mg 0.67217 0.54796 0.8226 0.0
O183 O 0.64402 0.49913 0.79218 0.0
O184 O 0.66725 0.47057 0.80745 0.0
Mg185 Mg 0.71107 0.50147 0.84791 0.0
C186 C 0.6453 0.47358 0.78958 0.0
C187 C 0.6243 0.55697 0.76832 0.0
O188 O 0.63758 0.54716 0.74063 0.0
O189 O 0.65168 0.52565 0.88633 0.0
O190 O 0.67911 0.50092 0.90148 0.0
O191 O 0.70385 0.56611 0.76662 0.0
O192 O 0.71297 0.54438 0.82238 0.0
C193 C 0.65887 0.5094 0.91123 0.0
C194 C 0.72094 0.55596 0.78504 0.0
O195 O 0.63226 0.5585 0.80686 0.0
Mg196 Mg 0.12707 0.67759 0.80284 0.0
O197 O 0.14196 0.64275 0.77826 0.0
O198 O 0.19165 0.65902 0.79959 0.0
Mg199 Mg 0.20975 0.70563 0.83561 0.0
C200 C 0.1663 0.63922 0.78039 0.0
C201 C 0.06278 0.65667 0.76407 0.0
O202 O 0.07946 0.68765 0.75886 0.0
O203 O 0.12237 0.65755 0.86927 0.0
O204 O 0.17351 0.67917 0.88784 0.0
O205 O 0.14679 0.70844 0.74578 0.0
O206 O 0.17424 0.71343 0.80379 0.0
C207 C 0.1439 0.66282 0.89659 0.0
C208 C 0.1735 0.72236 0.76593 0.0
O209 O 0.07539 0.64312 0.78431 0.0
Mg210 Mg 0.44393 0.12074 0.81329 0.0
O211 O 0.49398 0.13838 0.7886 0.0
O212 O 0.52558 0.18913 0.80612 0.0
Mg213 Mg 0.49488 0.20437 0.84329 0.0
C214 C 0.52107 0.16365 0.78838 0.0
C215 C 0.43664 0.06296 0.76153 0.0
O216 O 0.44997 0.08575 0.73329 0.0
O217 O 0.46029 0.11848 0.87943 0.0
O218 O 0.48844 0.16994 0.89699 0.0
O219 O 0.43223 0.13865 0.75503 0.0
O220 O 0.45163 0.16653 0.81365 0.0
C221 C 0.47638 0.14046 0.90602 0.0
C222 C 0.44279 0.16514 0.77528 0.0
O223 O 0.43136 0.06983 0.79818 0.0
Mg224 Mg 0.33113 0.45763 0.812 0.0
O225 O 0.36463 0.50699 0.78575 0.0
O226 O 0.34873 0.54051 0.80734 0.0
Mg227 Mg 0.30368 0.51192 0.84711 0.0
C228 C 0.36804 0.53476 0.78712 0.0
C229 C 0.35237 0.41421 0.77386 0.0
O230 O 0.32117 0.39872 0.77104 0.0
O231 O 0.35296 0.47321 0.87702 0.0
O232 O 0.33187 0.50276 0.8979 0.0
O233 O 0.29871 0.44653 0.75702 0.0
O234 O 0.29438 0.46765 0.81641 0.0
C235 C 0.34852 0.48949 0.90502 0.0
C236 C 0.28412 0.45777 0.77908 0.0
O237 O 0.36586 0.44129 0.79149 0.0
Mg238 Mg 0.86794 0.3262 0.80587 0.0
O239 O 0.85328 0.36181 0.78315 0.0
O240 O 0.80336 0.34457 0.80425 0.0
Mg241 Mg 0.7855 0.29743 0.83973 0.0
C242 C 0.82874 0.36499 0.7855 0.0
C243 C 0.93175 0.34477 0.76994 0.0
O244 O 0.91367 0.31379 0.76679 0.0
O245 O 0.87278 0.34451 0.87301 0.0
O246 O 0.82165 0.32243 0.89263 0.0
O247 O 0.84765 0.29716 0.74797 0.0
O248 O 0.82091 0.28997 0.80711 0.0
C249 C 0.85139 0.33857 0.9008 0.0
C250 C 0.82119 0.28201 0.76867 0.0
O251 O 0.91997 0.36011 0.78753 0.0
Mg252 Mg 0.1269 0.45548 0.67231 0.0
O253 O 0.1417 0.50474 0.69826 0.0
O254 O 0.19212 0.53773 0.67953 0.0
Mg255 Mg 0.21008 0.50965 0.64202 0.0
C256 C 0.16643 0.53231 0.6978 0.0
C257 C 0.06083 0.40891 0.70111 0.0
O258 O 0.07707 0.39387 0.70038 0.0
O259 O 0.12335 0.47217 0.60631 0.0
O260 O 0.17479 0.50196 0.5892 0.0
O261 O 0.14606 0.44386 0.72941 0.0
O262 O 0.17376 0.46563 0.67149 0.0
C263 C 0.14531 0.48911 0.57982 0.0
C264 C 0.17283 0.45579 0.70931 0.0
O265 O 0.07484 0.43788 0.68951 0.0
Mg266 Mg 0.663 0.12741 0.66475 0.0
O267 O 0.62929 0.14181 0.69445 0.0
O268 O 0.6446 0.19171 0.67535 0.0
Mg269 Mg 0.68916 0.20998 0.63421 0.0
C270 C 0.62571 0.16612 0.69498 0.0
C271 C 0.64585 0.06131 0.6903 0.0
O272 O 0.67667 0.07723 0.68333 0.0
O273 O 0.64018 0.123 0.60042 0.0
O274 O 0.66077 0.17417 0.58239 0.0
O275 O 0.69625 0.14735 0.71915 0.0
O276 O 0.69907 0.17438 0.66163 0.0
C277 C 0.64432 0.1446 0.57372 0.0
C278 C 0.71006 0.17382 0.69819 0.0
O279 O 0.63009 0.07545 0.68403 0.0
Mg280 Mg 0.54726 0.6713 0.66188 0.0
O281 O 0.49877 0.64012 0.69181 0.0
O282 O 0.46686 0.65974 0.67786 0.0
Mg283 Mg 0.49596 0.70519 0.63888 0.0
C284 C 0.47192 0.63875 0.69473 0.0
C285 C 0.55912 0.62433 0.71429 0.0
O286 O 0.54931 0.63691 0.74305 0.0
O287 O 0.52652 0.65175 0.5972 0.0
O288 O 0.49879 0.67632 0.58367 0.0
O289 O 0.56366 0.70237 0.7186 0.0
O290 O 0.54063 0.71024 0.66339 0.0
C291 C 0.50961 0.65824 0.57253 0.0
C292 C 0.55246 0.71866 0.70044 0.0
O293 O 0.56021 0.63284 0.67606 0.0
Mg294 Mg 0.86798 0.54616 0.66672 0.0
O295 O 0.85246 0.49812 0.69759 0.0
O296 O 0.80136 0.46535 0.68251 0.0
Mg297 Mg 0.78328 0.49322 0.64394 0.0
C298 C 0.8274 0.47089 0.69985 0.0
C299 C 0.93532 0.59131 0.69147 0.0
O300 O 0.92074 0.60792 0.68851 0.0
O301 O 0.86758 0.52537 0.60237 0.0
O302 O 0.81534 0.49723 0.58846 0.0
O303 O 0.85258 0.56254 0.72274 0.0
O304 O 0.82203 0.53833 0.66786 0.0
C305 C 0.84438 0.50852 0.57753 0.0
C306 C 0.82526 0.5511 0.7042 0.0
O307 O 0.91992 0.56205 0.68163 0.0
Mg308 Mg 0.33661 0.86954 0.66255 0.0
O309 O 0.36737 0.85202 0.69454 0.0
O310 O 0.34869 0.8015 0.6754 0.0
Mg311 Mg 0.30417 0.78542 0.63504 0.0
C312 C 0.36865 0.82637 0.69526 0.0
C313 C 0.37866 0.9295 0.71567 0.0
O314 O 0.36457 0.90772 0.74503 0.0
O315 O 0.35913 0.87048 0.59974 0.0
O316 O 0.33434 0.81907 0.58181 0.0
O317 O 0.30264 0.85415 0.71646 0.0
O318 O 0.29851 0.82369 0.66232 0.0
C319 C 0.35333 0.8484 0.57342 0.0
C320 C 0.288 0.82677 0.69807 0.0
O321 O 0.3732 0.92113 0.67726 0.0
Mg322 Mg 0.46537 0.33233 0.6751 0.0
O323 O 0.51493 0.36519 0.70166 0.0
O324 O 0.54742 0.34854 0.6779 0.0
Mg325 Mg 0.51823 0.30364 0.63881 0.0
C326 C 0.54245 0.3679 0.69918 0.0
C327 C 0.41938 0.3528 0.70412 0.0
O328 O 0.40292 0.32174 0.69994 0.0
O329 O 0.48127 0.35427 0.61024 0.0
O330 O 0.50904 0.33167 0.5881 0.0
O331 O 0.45214 0.2999 0.72991 0.0
O332 O 0.47468 0.29471 0.67228 0.0
C333 C 0.49652 0.34904 0.58157 0.0
C334 C 0.46344 0.28467 0.70946 0.0
O335 O 0.44874 0.367 0.69451 0.0
C336 C 0.36375 0.00281 0.20726 0.0
C337 C 0.37809 0.0304 0.23231 0.0
C338 C 0.34875 0.97246 0.22538 0.0
C339 C 0.34745 0.96852 0.26928 0.0
H340 H 0.36468 0.00455 0.17323 0.0
H341 H 0.33926 0.95201 0.20476 0.0
S342 S 0.37654 0.03279 0.34904 0.0
N343 N 0.38687 0.0517 0.3034 0.0
N344 N 0.35804 0.99455 0.33753 0.0
C345 C 0.35969 0.99581 0.29478 0.0
C346 C 0.37511 0.02678 0.27629 0.0
C347 C 0.36454 0.36019 0.28674 0.0
C348 C 0.37713 0.34438 0.26334 0.0
C349 C 0.34887 0.37435 0.26695 0.0
C350 C 0.34523 0.37321 0.22302 0.0
H351 H 0.36733 0.3623 0.32061 0.0
H352 H 0.34072 0.38733 0.28609 0.0
S353 S 0.36944 0.33069 0.1479 0.0
N354 N 0.38188 0.32565 0.19418 0.0
N355 N 0.35204 0.35189 0.15709 0.0
C356 C 0.35587 0.35579 0.19949 0.0
C357 C 0.37186 0.3414 0.21962 0.0
C358 C 0.97669 0.36099 0.26321 0.0
C359 C 0.97332 0.35684 0.2194 0.0
C360 C 0.00683 0.37757 0.28172 0.0
C361 C 0.03474 0.39034 0.25717 0.0
H362 H 0.95592 0.35209 0.28332 0.0
H363 H 0.0082 0.38047 0.31561 0.0
S364 S 0.03875 0.38389 0.14119 0.0
N365 N 0.00032 0.36521 0.15201 0.0
N366 N 0.05703 0.39649 0.18687 0.0
C367 C 0.03171 0.3855 0.21342 0.0
C368 C 0.00098 0.36876 0.19452 0.0
C369 C 0.6065 0.9666 0.26903 0.0
C370 C 0.60992 0.96257 0.22596 0.0
C371 C 0.6207 0.99701 0.28678 0.0
C372 C 0.63881 0.02446 0.26211 0.0
H373 H 0.5918 0.94626 0.28887 0.0
H374 H 0.61695 0.99893 0.31999 0.0
S375 S 0.65833 0.02618 0.14872 0.0
N376 N 0.63539 0.9881 0.15991 0.0
N377 N 0.66168 0.04527 0.19304 0.0
C378 C 0.64378 0.02056 0.21943 0.0
C379 C 0.62938 0.98961 0.20141 0.0
C380 C 0.61992 0.63241 0.27595 0.0
C381 C 0.60443 0.64372 0.24939 0.0
C382 C 0.6351 0.61668 0.25971 0.0
C383 C 0.63545 0.61169 0.21623 0.0
H384 H 0.61991 0.6352 0.30977 0.0
H385 H 0.64582 0.60757 0.28158 0.0
S386 S 0.60225 0.64048 0.13262 0.0
N387 N 0.59282 0.6513 0.1771 0.0
N388 N 0.6221 0.62241 0.1464 0.0
C389 C 0.62167 0.62447 0.18905 0.0
C390 C 0.60605 0.6404 0.20565 0.0
C391 C 0.01289 0.65103 0.2223 0.0
C392 C 0.03555 0.64142 0.22788 0.0
C393 C 0.98235 0.63331 0.2397 0.0
C394 C 0.97356 0.60534 0.26283 0.0
H395 H 0.01868 0.67209 0.20391 0.0
H396 H 0.9655 0.64153 0.23502 0.0
S397 S 0.02362 0.56837 0.28107 0.0
N398 N 0.04709 0.60169 0.25551 0.0
N399 N 0.98931 0.56747 0.2865 0.0
C400 C 0.99598 0.59523 0.26762 0.0
C401 C 0.02714 0.61353 0.25047 0.0
C402 C 0.58962 0.98584 0.75115 0.0
C403 C 0.60488 0.96765 0.74843 0.0
C404 C 0.60233 0.0157 0.73119 0.0
C405 C 0.63085 0.02855 0.70793 0.0
H406 H 0.56789 0.97716 0.76922 0.0
H407 H 0.59015 0.02914 0.73494 0.0
S408 S 0.67866 0.98945 0.68775 0.0
N409 N 0.6492 0.96415 0.71808 0.0
N410 N 0.67278 0.01983 0.68102 0.0
C411 C 0.64579 0.01022 0.70397 0.0
C412 C 0.63292 0.97993 0.72408 0.0
C413 C 0.59381 0.58506 0.78334 0.0
C414 C 0.60398 0.57022 0.75414 0.0
C415 C 0.57819 0.60133 0.77022 0.0
C416 C 0.57216 0.60363 0.7273 0.0
H417 H 0.59885 0.58506 0.81659 0.0
H418 H 0.57185 0.61318 0.79397 0.0
S419 S 0.58995 0.56533 0.63854 0.0
N420 N 0.60389 0.55616 0.68051 0.0
N421 N 0.57477 0.58694 0.65599 0.0
C422 C 0.5806 0.58744 0.69795 0.0
C423 C 0.5964 0.5707 0.71132 0.0
C424 C 0.98554 0.6399 0.71214 0.0
C425 C 0.96824 0.6066 0.70846 0.0
C426 C 0.01586 0.65553 0.73018 0.0
C427 C 0.03033 0.63862 0.74571 0.0
H428 H 0.97559 0.65425 0.70113 0.0
H429 H 0.02791 0.68121 0.7322 0.0
S430 S 0.99554 0.55095 0.74303 0.0
N431 N 0.96804 0.55702 0.7213 0.0
N432 N 0.02523 0.5865 0.75545 0.0
C433 C 0.0135 0.60524 0.74201 0.0
C434 C 0.98248 0.58923 0.72326 0.0
C435 C 0.40833 0.00497 0.7796 0.0
C436 C 0.42526 0.02931 0.74994 0.0
C437 C 0.39454 0.97286 0.76858 0.0
C438 C 0.39692 0.96363 0.72737 0.0
H439 H 0.40488 0.01065 0.81142 0.0
H440 H 0.38093 0.95517 0.79236 0.0
S441 S 0.44214 0.0179 0.63915 0.0
N442 N 0.44625 0.04185 0.67842 0.0
N443 N 0.42007 0.98147 0.65774 0.0
C444 C 0.41512 0.98766 0.69789 0.0
C445 C 0.42935 0.02046 0.70917 0.0
C446 C 0.35435 0.36798 0.74334 0.0
C447 C 0.37078 0.39992 0.7563 0.0
C448 C 0.37037 0.35337 0.72626 0.0
C449 C 0.40362 0.37001 0.72106 0.0
H450 H 0.32873 0.35386 0.74658 0.0
H451 H 0.35636 0.32866 0.71711 0.0
S452 S 0.45807 0.45453 0.74903 0.0
N453 N 0.42238 0.44809 0.7622 0.0
N454 N 0.45261 0.42057 0.72986 0.0
C455 C 0.42051 0.40214 0.73347 0.0
C456 C 0.40409 0.41707 0.7512 0.0
C457 C 0.01338 0.40984 0.73185 0.0
C458 C 0.02753 0.39246 0.71703 0.0
C459 C 0.98255 0.3944 0.74928 0.0
C460 C 0.96458 0.36098 0.75215 0.0
H461 H 0.0264 0.43558 0.73069 0.0
H462 H 0.97274 0.40879 0.76045 0.0
S463 S 0.99036 0.30449 0.71604 0.0
N464 N 0.02077 0.33995 0.70524 0.0
N465 N 0.96329 0.31108 0.73767 0.0
C466 C 0.9784 0.34339 0.73683 0.0
C467 C 0.00971 0.35907 0.71936 0.0
C468 C 0.47159 0.21581 0.27965 0.0
C469 C 0.47391 0.2077 0.23775 0.0
C470 C 0.47212 0.24424 0.28936 0.0
C471 C 0.47491 0.26582 0.25759 0.0
H472 H 0.46774 0.19939 0.30516 0.0
H473 H 0.46856 0.24841 0.32188 0.0
S474 S 0.48778 0.25882 0.14371 0.0
N475 N 0.4836 0.22582 0.16483 0.0
N476 N 0.48453 0.27916 0.18309 0.0
C477 C 0.47991 0.25929 0.21597 0.0
C478 C 0.47945 0.23031 0.20606 0.0
C479 C 0.22975 0.47185 0.28308 0.0
C480 C 0.21186 0.47639 0.25167 0.0
C481 C 0.25689 0.46992 0.27299 0.0
C482 C 0.26738 0.47248 0.23104 0.0
H483 H 0.22192 0.46816 0.3156 0.0
H484 H 0.2688 0.46487 0.2982 0.0
S485 S 0.23241 0.49032 0.13793 0.0
N486 N 0.20912 0.48765 0.17749 0.0
N487 N 0.26007 0.48405 0.15855 0.0
C488 C 0.2512 0.47954 0.19974 0.0
C489 C 0.22349 0.48149 0.21004 0.0
C490 C 0.77636 0.18756 0.25098 0.0
C491 C 0.74997 0.1904 0.26302 0.0
C492 C 0.80237 0.21204 0.23002 0.0
C493 C 0.80361 0.2409 0.22004 0.0
H494 H 0.77712 0.16603 0.25758 0.0
H495 H 0.82183 0.20814 0.22183 0.0
S496 S 0.74073 0.26091 0.24431 0.0
N497 N 0.72647 0.22448 0.26309 0.0
N498 N 0.77585 0.27101 0.22376 0.0
C499 C 0.77736 0.24427 0.23158 0.0
C500 C 0.75048 0.21896 0.253 0.0
C501 C 0.51102 0.78702 0.29206 0.0
C502 C 0.50913 0.79041 0.24822 0.0
C503 C 0.51155 0.76067 0.30934 0.0
C504 C 0.50996 0.73633 0.28366 0.0
H505 H 0.51391 0.8057 0.31329 0.0
H506 H 0.51474 0.76019 0.34306 0.0
S507 S 0.49891 0.73079 0.16755 0.0
N508 N 0.50138 0.76497 0.17992 0.0
N509 N 0.50215 0.71532 0.21242 0.0
C510 C 0.50521 0.73797 0.2401 0.0
C511 C 0.50487 0.76501 0.22241 0.0
C512 C 0.75016 0.53237 0.23732 0.0
C513 C 0.75285 0.55937 0.21663 0.0
C514 C 0.77673 0.53302 0.25661 0.0
C515 C 0.8069 0.56076 0.25616 0.0
H516 H 0.7273 0.51074 0.23928 0.0
H517 H 0.77345 0.51186 0.27266 0.0
S518 S 0.82737 0.63704 0.20304 0.0
N519 N 0.78893 0.61401 0.1947 0.0
N520 N 0.83815 0.61523 0.23082 0.0
C521 C 0.80999 0.58756 0.23457 0.0
C522 C 0.78319 0.58686 0.21485 0.0
C523 C 0.22207 0.74358 0.26712 0.0
C524 C 0.21279 0.73527 0.2249 0.0
C525 C 0.25001 0.77175 0.2775 0.0
C526 C 0.2699 0.7929 0.24611 0.0
H527 H 0.20692 0.72902 0.29262 0.0
H528 H 0.25511 0.77767 0.31052 0.0
S529 S 0.2595 0.77947 0.13064 0.0
N530 N 0.22809 0.74847 0.15137 0.0
N531 N 0.28051 0.80137 0.17086 0.0
C532 C 0.26225 0.78366 0.20374 0.0
C533 C 0.23376 0.7549 0.19314 0.0
C534 C 0.55111 0.76908 0.69614 0.0
C535 C 0.55258 0.74583 0.72113 0.0
C536 C 0.552 0.79571 0.7143 0.0
C537 C 0.55377 0.79972 0.75816 0.0
H538 H 0.54976 0.767 0.66213 0.0
H539 H 0.55103 0.81312 0.69384 0.0
S540 S 0.55778 0.74549 0.83761 0.0
N541 N 0.55583 0.72845 0.79193 0.0
N542 N 0.55702 0.77834 0.82632 0.0
C543 C 0.55493 0.7765 0.78361 0.0
C544 C 0.55451 0.7496 0.76503 0.0
C545 C 0.7718 0.55527 0.78739 0.0
C546 C 0.74738 0.55525 0.76339 0.0
C547 C 0.79708 0.5541 0.76802 0.0
C548 C 0.79842 0.55219 0.72405 0.0
H549 H 0.77155 0.55648 0.82146 0.0
H550 H 0.81548 0.55432 0.78766 0.0
S551 S 0.74028 0.55129 0.64703 0.0
N552 N 0.72611 0.55337 0.69344 0.0
N553 N 0.7734 0.55067 0.65686 0.0
C554 C 0.77408 0.55203 0.69964 0.0
C555 C 0.74861 0.55374 0.71937 0.0
C556 C 0.23266 0.80313 0.72383 0.0
C557 C 0.25957 0.80011 0.71654 0.0
C558 C 0.20425 0.77722 0.73835 0.0
C559 C 0.20234 0.74792 0.74672 0.0
H560 H 0.23342 0.82546 0.71753 0.0
H561 H 0.1839 0.78029 0.7439 0.0
S562 S 0.26644 0.72826 0.73361 0.0
N563 N 0.28277 0.76587 0.71885 0.0
N564 N 0.22945 0.71726 0.74713 0.0
C565 C 0.22915 0.74471 0.73994 0.0
C566 C 0.25784 0.77087 0.72447 0.0
C567 C 0.43246 0.23503 0.75063 0.0
C568 C 0.45952 0.25454 0.72614 0.0
C569 C 0.42649 0.20528 0.76496 0.0
C570 C 0.44724 0.19403 0.75495 0.0
H571 H 0.41552 0.24261 0.75843 0.0
H572 H 0.40572 0.19113 0.78439 0.0
S573 S 0.52303 0.23682 0.6962 0.0
N574 N 0.50851 0.26122 0.69558 0.0
N575 N 0.49674 0.20483 0.72206 0.0
C576 C 0.47455 0.21323 0.73121 0.0
C577 C 0.48082 0.24366 0.7168 0.0
C578 C 0.22557 0.45943 0.70191 0.0
C579 C 0.20163 0.45808 0.72835 0.0
C580 C 0.25239 0.45965 0.71856 0.0
C581 C 0.25653 0.4592 0.76225 0.0
H582 H 0.22322 0.45946 0.66797 0.0
H583 H 0.26992 0.46008 0.69702 0.0
S584 S 0.20144 0.45706 0.8451 0.0
N585 N 0.18411 0.45709 0.80031 0.0
N586 N 0.23486 0.45809 0.83184 0.0
C587 C 0.23319 0.45871 0.78912 0.0
C588 C 0.2056 0.45795 0.77211 0.0
C589 C 0.76881 0.2326 0.77598 0.0
C590 C 0.79222 0.25596 0.74967 0.0
C591 C 0.74208 0.20617 0.75912 0.0
C592 C 0.73751 0.20256 0.7154 0.0
H593 H 0.77156 0.23422 0.80991 0.0
H594 H 0.72496 0.18843 0.78048 0.0
S595 S 0.7911 0.25778 0.63298 0.0
N596 N 0.80874 0.27426 0.67787 0.0
N597 N 0.75817 0.22485 0.646 0.0
C598 C 0.76029 0.22619 0.68873 0.0
C599 C 0.78777 0.25284 0.70591 0.0
C600 C 0.47492 0.14321 0.02476 0.0
C601 C 0.46623 0.11192 0.03638 0.0
C602 C 0.48036 0.15289 0.98259 0.0
C603 C 0.47715 0.13162 0.95039 0.0
H604 H 0.47601 0.15999 0.04802 0.0
H605 H 0.48525 0.17671 0.9751 0.0
S606 S 0.46127 0.04911 0.9647 0.0
N607 N 0.45952 0.06113 0.01268 0.0
N608 N 0.46934 0.07943 0.93337 0.0
C609 C 0.47107 0.10112 0.9618 0.0
C610 C 0.46574 0.09126 0.00481 0.0
C611 C 0.34204 0.49387 0.98215 0.0
C612 C 0.35804 0.48843 0.94906 0.0
C613 C 0.34473 0.48601 0.02377 0.0
C614 C 0.36375 0.4726 0.03408 0.0
H615 H 0.32559 0.50237 0.97574 0.0
H616 H 0.33051 0.48903 0.04759 0.0
S617 S 0.41611 0.46026 0.96017 0.0
N618 N 0.39743 0.47357 0.93016 0.0
N619 N 0.40296 0.45908 0.00846 0.0
C620 C 0.38236 0.46999 0.00185 0.0
C621 C 0.37939 0.47781 0.95933 0.0
C622 C 0.84056 0.32783 0.97764 0.0
C623 C 0.86099 0.34703 0.9452 0.0
C624 C 0.8507 0.33198 0.01961 0.0
C625 C 0.88159 0.3557 0.03085 0.0
H626 H 0.81704 0.3083 0.9704 0.0
H627 H 0.83458 0.3156 0.04305 0.0
S628 S 0.94225 0.41582 0.95825 0.0
N629 N 0.912 0.39288 0.92747 0.0
N630 N 0.93114 0.4014 0.00629 0.0
C631 C 0.90141 0.37663 -0.00105 0.0
C632 C 0.89113 0.37208 0.95616 0.0
C633 C 0.51254 0.84972 0.02157 0.0
C634 C 0.52095 0.88087 0.0331 0.0
C635 C 0.50931 0.8408 0.97923 0.0
C636 C 0.51454 0.8627 0.94665 0.0
H637 H 0.51014 0.83249 0.04517 0.0
H638 H 0.50453 0.81699 0.97211 0.0
S639 S 0.53019 0.94512 0.96009 0.0
N640 N 0.52921 0.93218 0.00853 0.0
N641 N 0.52365 0.91533 0.92891 0.0
C642 C 0.5202 0.89305 0.95774 0.0
C643 C 0.52321 0.90212 0.00095 0.0
C644 C 0.65993 0.50692 0.02985 0.0
C645 C 0.63324 0.50957 0.04074 0.0
C646 C 0.66668 0.50422 0.98773 0.0
C647 C 0.6471 0.50429 0.95501 0.0
H648 H 0.67702 0.50924 0.05358 0.0
H649 H 0.68869 0.50452 0.98071 0.0
S650 S 0.57009 0.50214 0.96727 0.0
N651 N 0.5837 0.50548 0.01577 0.0
N652 N 0.59705 0.5012 0.93653 0.0
C653 C 0.61864 0.50344 0.96565 0.0
C654 C 0.61149 0.50579 0.00858 0.0
C655 C 0.10215 0.63734 0.95238 0.0
C656 C 0.13452 0.65306 0.94107 0.0
C657 C 0.09277 0.63257 -0.00534 0.0
C658 C 0.11535 0.64351 0.0274 0.0
H659 H 0.08384 0.62975 0.92852 0.0
H660 H 0.06757 0.62151 0.00159 0.0
S661 S 0.20286 0.68153 0.01515 0.0
N662 N 0.18915 0.67612 0.9665 0.0
N663 N 0.17125 0.66739 0.04589 0.0
C664 C 0.14767 0.6574 0.01671 0.0
C665 C 0.15729 0.66204 0.9736 0.0
C666 C 0.88179 0.51049 0.52238 0.0
C667 C 0.85152 0.50536 0.53307 0.0
C668 C 0.89148 0.51375 0.48038 0.0
C669 C 0.8715 0.51253 0.44722 0.0
H670 H 0.89868 0.51333 0.54672 0.0
H671 H 0.91562 0.51903 0.47427 0.0
S672 S 0.78795 0.49456 0.45808 0.0
N673 N 0.79998 0.49518 0.5069 0.0
N674 N 0.8185 0.50178 0.4278 0.0
C675 C 0.84023 0.50487 0.45724 0.0
C676 C 0.83017 0.50118 0.50019 0.0
C677 C 0.34558 0.83677 0.49666 0.0
C678 C 0.36382 0.85739 0.52933 0.0
C679 C 0.34867 0.84768 0.45516 0.0
C680 C 0.37025 0.87956 0.44477 0.0
H681 H 0.32691 0.81271 0.50352 0.0
H682 H 0.33244 0.8315 0.43179 0.0
S683 S 0.42974 0.94042 0.51697 0.0
N684 N 0.40852 0.90914 0.5473 0.0
N685 N 0.41484 0.92971 0.46916 0.0
C686 C 0.39142 0.89924 0.47625 0.0
C687 C 0.38806 0.88815 0.5186 0.0
C688 C 0.49935 0.34192 0.50433 0.0
C689 C 0.49473 0.3583 0.53762 0.0
C690 C 0.49048 0.34416 0.46313 0.0
C691 C 0.47684 0.36307 0.45343 0.0
H692 H 0.50796 0.32551 0.51036 0.0
H693 H 0.49295 0.32971 0.43921 0.0
S694 S 0.46644 0.41633 0.52771 0.0
N695 N 0.48045 0.39798 0.55712 0.0
N696 N 0.46402 0.40261 0.47955 0.0
C697 C 0.47504 0.38204 0.48571 0.0
C698 C 0.48392 0.37958 0.52782 0.0
C699 C 0.10428 0.47565 0.52385 0.0
C700 C 0.13656 0.49066 0.53539 0.0
C701 C 0.09516 0.47146 0.48151 0.0
C702 C 0.1179 0.48188 0.44892 0.0
H703 H 0.08577 0.46571 0.54758 0.0
H704 H 0.06994 0.45833 0.47447 0.0
S705 S 0.20555 0.52775 0.46184 0.0
N706 N 0.19149 0.52002 0.51039 0.0
N707 N 0.17406 0.51163 0.43084 0.0
C708 C 0.15024 0.4991 0.45984 0.0
C709 C 0.15962 0.50366 0.50304 0.0
C710 C 0.61219 0.09286 0.47718 0.0
C711 C 0.62641 0.11477 0.44385 0.0
C712 C 0.61607 0.10289 0.51907 0.0
C713 C 0.63411 0.13528 0.52943 0.0
H714 H 0.59951 0.0675 0.47129 0.0
H715 H 0.60624 0.08492 0.54355 0.0
S716 S 0.67035 0.20263 0.45314 0.0
N717 N 0.65498 0.1705 0.42347 0.0
N718 N 0.66205 0.18964 0.50218 0.0
C719 C 0.64573 0.15766 0.49611 0.0
C720 C 0.64201 0.14734 0.45336 0.0
C721 C 0.51985 0.62172 0.47317 0.0
C722 C 0.51381 0.63812 0.44099 0.0
C723 C 0.51626 0.62669 0.51564 0.0
C724 C 0.50621 0.64807 0.52787 0.0
H725 H 0.52915 0.60611 0.46582 0.0
H726 H 0.52294 0.61479 0.53903 0.0
S727 S 0.48105 0.69211 0.45584 0.0
N728 N 0.49276 0.67304 0.42416 0.0
N729 N 0.48568 0.68227 0.50407 0.0
C730 C 0.49706 0.66227 0.496 0.0
C731 C 0.50094 0.65734 0.45256 0.0
C732 C 0.53045 0.10785 0.24282 0.0
C733 C 0.514 0.08546 0.21082 0.0
C734 C 0.5564 0.10863 0.26377 0.0
C735 C 0.56669 0.08713 0.25324 0.0
H736 H 0.52244 0.12398 0.253 0.0
H737 H 0.56745 0.12504 0.28964 0.0
S738 S 0.53525 0.02708 0.16837 0.0
N739 N 0.51269 0.04366 0.16683 0.0
N740 N 0.56084 0.04499 0.20695 0.0
C741 C 0.55173 0.0659 0.22006 0.0
C742 C 0.52556 0.06513 0.19859 0.0
C743 C 0.47651 0.53359 0.25398 0.0
C744 C 0.47431 0.56089 0.26237 0.0
C745 C 0.45223 0.50747 0.23306 0.0
C746 C 0.42441 0.50723 0.21992 0.0
H747 H 0.49746 0.53242 0.26304 0.0
H748 H 0.4554 0.48724 0.22721 0.0
S749 S 0.4062 0.5723 0.23515 0.0
N750 N 0.44174 0.58593 0.25649 0.0
N751 N 0.39571 0.53644 0.21737 0.0
C752 C 0.4215 0.5341 0.22864 0.0
C753 C 0.44656 0.56104 0.24966 0.0
C754 C 0.9114 0.47628 0.22038 0.0
C755 C 0.89857 0.46981 0.26116 0.0
C756 C 0.91338 0.4529 0.19708 0.0
C757 C 0.9023 0.42219 0.21367 0.0
H758 H 0.92157 0.50005 0.20734 0.0
H759 H 0.92462 0.45924 0.16636 0.0
S760 S 0.86489 0.39322 0.31844 0.0
N761 N 0.87356 0.43074 0.31685 0.0
N762 N 0.8764 0.38623 0.27267 0.0
C763 C 0.88783 0.41502 0.25366 0.0
C764 C 0.88631 0.43907 0.27762 0.0
C765 C 0.48018 0.94224 0.22445 0.0
C766 C 0.47853 0.91335 0.21376 0.0
C767 C 0.45552 0.94291 0.24619 0.0
C768 C 0.42788 0.91469 0.25803 0.0
H769 H 0.50108 0.96473 0.21682 0.0
H770 H 0.45833 0.96589 0.254 0.0
S771 S 0.41105 0.83261 0.23654 0.0
N772 N 0.44663 0.85563 0.21585 0.0
N773 N 0.3999 0.85686 0.25671 0.0
C774 C 0.42547 0.88552 0.24687 0.0
C775 C 0.45091 0.88484 0.22493 0.0
C776 C 0.54617 0.48225 0.25481 0.0
C777 C 0.56529 0.47616 0.22772 0.0
C778 C 0.5207 0.45761 0.27644 0.0
C779 C 0.51287 0.42565 0.2714 0.0
H780 H 0.55057 0.5063 0.25867 0.0
H781 H 0.50667 0.46385 0.29665 0.0
S782 S 0.55594 0.39742 0.20319 0.0
N783 N 0.57541 0.43643 0.19677 0.0
N784 N 0.52703 0.38955 0.23704 0.0
C785 C 0.53233 0.41932 0.24476 0.0
C786 C 0.55865 0.44471 0.22301 0.0
C787 C 0.10738 0.57917 0.25396 0.0
C788 C 0.10238 0.57602 0.21019 0.0
C789 C 0.10706 0.55465 0.27789 0.0
C790 C 0.10284 0.52682 0.25851 0.0
H791 H 0.10941 0.59974 0.27012 0.0
H792 H 0.10895 0.55692 0.31186 0.0
S793 S 0.09153 0.5083 0.14464 0.0
N794 N 0.09456 0.54368 0.14827 0.0
N795 N 0.09545 0.49821 0.19311 0.0
C796 C 0.09979 0.52426 0.21458 0.0
C797 C 0.09919 0.54876 0.19039 0.0
C798 C 0.44809 0.85487 0.74948 0.0
C799 C 0.44681 0.82646 0.76236 0.0
C800 C 0.42256 0.85457 0.72843 0.0
C801 C 0.39476 0.82584 0.71893 0.0
H802 H 0.46896 0.87769 0.7558 0.0
H803 H 0.4249 0.87712 0.71902 0.0
S804 S 0.37887 0.74474 0.74639 0.0
N805 N 0.41501 0.76866 0.76455 0.0
N806 N 0.3671 0.76814 0.72487 0.0
C807 C 0.393 0.7972 0.7318 0.0
C808 C 0.41895 0.7975 0.75356 0.0
C809 C 0.59132 0.44605 0.75665 0.0
C810 C 0.61993 0.44646 0.76588 0.0
C811 C 0.56654 0.42058 0.73521 0.0
C812 C 0.56937 0.39454 0.72161 0.0
H813 H 0.58777 0.46541 0.76649 0.0
H814 H 0.54502 0.42149 0.72911 0.0
S815 S 0.63969 0.38423 0.73686 0.0
N816 N 0.64988 0.4187 0.7591 0.0
N817 N 0.60333 0.37086 0.71861 0.0
C818 C 0.59799 0.39474 0.73017 0.0
C819 C 0.62321 0.42064 0.75236 0.0
C820 C 0.19403 0.61229 0.74947 0.0
C821 C 0.16539 0.61149 0.75956 0.0
C822 C 0.19406 0.58666 0.72946 0.0
C823 C 0.16545 0.55897 0.7191 0.0
H824 H 0.21674 0.63306 0.75666 0.0
H825 H 0.2168 0.58857 0.72233 0.0
S826 S 0.0838 0.54463 0.73913 0.0
N827 N 0.10752 0.58056 0.75791 0.0
N828 N 0.10754 0.5323 0.72048 0.0
C829 C 0.13656 0.55772 0.72923 0.0
C830 C 0.13654 0.584 0.74932 0.0
C831 C 0.59952 0.19302 0.73076 0.0
C832 C 0.59889 0.16471 0.71927 0.0
C833 C 0.57456 0.19246 0.75366 0.0
C834 C 0.54776 0.16355 0.76568 0.0
H835 H 0.61956 0.21591 0.72218 0.0
H836 H 0.57612 0.21492 0.76141 0.0
S837 S 0.53423 0.08259 0.74335 0.0
N838 N 0.56905 0.10684 0.72167 0.0
N839 N 0.52223 0.10576 0.76466 0.0
C840 C 0.54682 0.13502 0.75449 0.0
C841 C 0.57234 0.1356 0.73137 0.0
C842 C 0.39408 0.58874 0.75353 0.0
C843 C 0.39503 0.56103 0.76412 0.0
C844 C 0.41891 0.6136 0.73096 0.0
C845 C 0.4459 0.61197 0.71844 0.0
H846 H 0.37381 0.59115 0.76228 0.0
H847 H 0.41694 0.63435 0.72353 0.0
S848 S 0.46048 0.54483 0.73921 0.0
N849 N 0.42553 0.53363 0.76091 0.0
N850 N 0.47214 0.58025 0.71868 0.0
C851 C 0.4473 0.58447 0.72917 0.0
C852 C 0.42191 0.55906 0.75188 0.0
C853 C 0.80052 0.39171 0.75472 0.0
C854 C 0.8293 0.39277 0.76483 0.0
C855 C 0.80018 0.41705 0.73391 0.0
C856 C 0.82863 0.44473 0.72272 0.0
H857 H 0.77792 0.37089 0.76229 0.0
H858 H 0.77734 0.41484 0.7266 0.0
S859 S 0.91058 0.46004 0.74337 0.0
N860 N 0.88714 0.42421 0.76294 0.0
N861 N 0.88657 0.47187 0.72408 0.0
C862 C 0.85766 0.44636 0.73324 0.0
C863 C 0.85798 0.4204 0.75415 0.0
loop_
_geom_bond_atom_site_label_1
_geom_bond_atom_site_label_2
_geom_bond_distance
_geom_bond_site_symmetry_2
_ccdc_geom_bond_type
Mg0 O1 2.028 . S
Mg0 O7 1.986 . S
Mg0 O9 2.114 . S
Mg0 O10 2.251 . S
Mg0 O13 2.010 . S
O1 Mg0 2.028 . S
O1 C4 1.250 . S
O2 Mg3 2.028 . S
O2 C4 1.248 . S
Mg3 O2 2.028 . S
Mg3 O8 2.032 . S
Mg3 O10 2.079 . S
C4 O1 1.250 . S
C4 O2 1.248 . S
C5 O6 1.264 . S
C5 O13 1.249 . S
O6 C5 1.264 . S
O7 Mg0 1.986 . S
O7 C11 1.246 . S
O8 Mg3 2.032 . S
O8 C11 1.259 . S
O9 Mg0 2.114 . S
O9 C12 1.252 . S
O10 Mg0 2.251 . S
O10 Mg3 2.079 . S
O10 C12 1.273 . S
C11 O7 1.246 . S
C11 O8 1.259 . S
C12 O9 1.252 . S
C12 O10 1.273 . S
O13 Mg0 2.010 . S
O13 C5 1.249 . S
Mg14 O15 2.028 . S
Mg14 O21 1.986 . S
Mg14 O23 2.114 . S
Mg14 O24 2.251 . S
Mg14 O27 2.010 . S
O15 Mg14 2.028 . S
O15 C18 1.250 . S
O16 Mg17 2.028 . S
O16 C18 1.248 . S
Mg17 O16 2.028 . S
Mg17 O22 2.032 . S
Mg17 O24 2.079 . S
C18 O15 1.250 . S
C18 O16 1.248 . S
C19 O20 1.264 . S
C19 O27 1.249 . S
O20 C19 1.264 . S
O21 Mg14 1.986 . S
O21 C25 1.246 . S
O22 Mg17 2.032 . S
O22 C25 1.259 . S
O23 Mg14 2.114 . S
O23 C26 1.252 . S
O24 Mg14 2.251 . S
O24 Mg17 2.079 . S
O24 C26 1.273 . S
C25 O21 1.246 . S
C25 O22 1.259 . S
C26 O23 1.252 . S
C26 O24 1.273 . S
O27 Mg14 2.010 . S
O27 C19 1.249 . S
Mg28 O29 2.028 . S
Mg28 O35 1.986 . S
Mg28 O37 2.114 . S
Mg28 O38 2.251 . S
Mg28 O41 2.010 . S
O29 Mg28 2.028 . S
O29 C32 1.250 . S
O30 Mg31 2.028 . S
O30 C32 1.248 . S
Mg31 O30 2.028 . S
Mg31 O36 2.032 . S
Mg31 O38 2.079 . S
C32 O29 1.250 . S
C32 O30 1.248 . S
C33 O34 1.264 . S
C33 O41 1.249 . S
O34 C33 1.264 . S
O35 Mg28 1.986 . S
O35 C39 1.246 . S
O36 Mg31 2.032 . S
O36 C39 1.259 . S
O37 Mg28 2.114 . S
O37 C40 1.252 . S
O38 Mg28 2.251 . S
O38 Mg31 2.079 . S
O38 C40 1.273 . S
C39 O35 1.246 . S
C39 O36 1.259 . S
C40 O37 1.252 . S
C40 O38 1.273 . S
O41 Mg28 2.010 . S
O41 C33 1.249 . S
Mg42 O43 2.028 . S
Mg42 O49 1.986 . S
Mg42 O51 2.114 . S
Mg42 O52 2.251 . S
Mg42 O55 2.010 . S
O43 Mg42 2.028 . S
O43 C46 1.250 . S
O44 Mg45 2.028 . S
O44 C46 1.248 . S
Mg45 O44 2.028 . S
Mg45 O50 2.032 . S
Mg45 O52 2.079 . S
C46 O43 1.250 . S
C46 O44 1.248 . S
C47 O48 1.264 . S
C47 O55 1.249 . S
O48 C47 1.264 . S
O49 Mg42 1.986 . S
O49 C53 1.246 . S
O50 Mg45 2.032 . S
O50 C53 1.259 . S
O51 Mg42 2.114 . S
O51 C54 1.252 . S
O52 Mg42 2.251 . S
O52 Mg45 2.079 . S
O52 C54 1.273 . S
C53 O49 1.246 . S
C53 O50 1.259 . S
C54 O51 1.252 . S
C54 O52 1.273 . S
O55 Mg42 2.010 . S
O55 C47 1.249 . S
Mg56 O57 2.028 . S
Mg56 O63 1.986 . S
Mg56 O65 2.114 . S
Mg56 O66 2.251 . S
Mg56 O69 2.010 . S
O57 Mg56 2.028 . S
O57 C60 1.250 . S
O58 Mg59 2.028 . S
O58 C60 1.248 . S
Mg59 O58 2.028 . S
Mg59 O64 2.032 . S
Mg59 O66 2.079 . S
C60 O57 1.250 . S
C60 O58 1.248 . S
C61 O62 1.264 . S
C61 O69 1.249 . S
O62 C61 1.264 . S
O63 Mg56 1.986 . S
O63 C67 1.246 . S
O64 Mg59 2.032 . S
O64 C67 1.259 . S
O65 Mg56 2.114 . S
O65 C68 1.252 . S
O66 Mg56 2.251 . S
O66 Mg59 2.079 . S
O66 C68 1.273 . S
C67 O63 1.246 . S
C67 O64 1.259 . S
C68 O65 1.252 . S
C68 O66 1.273 . S
O69 Mg56 2.010 . S
O69 C61 1.249 . S
Mg70 O71 2.028 . S
Mg70 O77 1.986 . S
Mg70 O79 2.114 . S
Mg70 O80 2.251 . S
Mg70 O83 2.010 . S
O71 Mg70 2.028 . S
O71 C74 1.250 . S
O72 Mg73 2.028 . S
O72 C74 1.248 . S
Mg73 O72 2.028 . S
Mg73 O78 2.032 . S
Mg73 O80 2.079 . S
C74 O71 1.250 . S
C74 O72 1.248 . S
C75 O76 1.264 . S
C75 O83 1.249 . S
O76 C75 1.264 . S
O77 Mg70 1.986 . S
O77 C81 1.246 . S
O78 Mg73 2.032 . S
O78 C81 1.259 . S
O79 Mg70 2.114 . S
O79 C82 1.252 . S
O80 Mg70 2.251 . S
O80 Mg73 2.079 . S
O80 C82 1.273 . S
C81 O77 1.246 . S
C81 O78 1.259 . S
C82 O79 1.252 . S
C82 O80 1.273 . S
O83 Mg70 2.010 . S
O83 C75 1.249 . S
Mg84 O85 2.028 . S
Mg84 O91 1.986 . S
Mg84 O93 2.114 . S
Mg84 O94 2.251 . S
Mg84 O97 2.010 . S
O85 Mg84 2.028 . S
O85 C88 1.250 . S
O86 Mg87 2.028 . S
O86 C88 1.248 . S
Mg87 O86 2.028 . S
Mg87 O92 2.032 . S
Mg87 O94 2.079 . S
C88 O85 1.250 . S
C88 O86 1.248 . S
C89 O90 1.264 . S
C89 O97 1.249 . S
O90 C89 1.264 . S
O91 Mg84 1.986 . S
O91 C95 1.246 . S
O92 Mg87 2.032 . S
O92 C95 1.259 . S
O93 Mg84 2.114 . S
O93 C96 1.252 . S
O94 Mg84 2.251 . S
O94 Mg87 2.079 . S
O94 C96 1.273 . S
C95 O91 1.246 . S
C95 O92 1.259 . S
C96 O93 1.252 . S
C96 O94 1.273 . S
O97 Mg84 2.010 . S
O97 C89 1.249 . S
Mg98 O99 2.028 . S
Mg98 O105 1.986 . S
Mg98 O107 2.114 . S
Mg98 O108 2.251 . S
Mg98 O111 2.010 . S
O99 Mg98 2.028 . S
O99 C102 1.250 . S
O100 Mg101 2.028 . S
O100 C102 1.248 . S
Mg101 O100 2.028 . S
Mg101 O106 2.032 . S
Mg101 O108 2.079 . S
C102 O99 1.250 . S
C102 O100 1.248 . S
C103 O104 1.264 . S
C103 O111 1.249 . S
O104 C103 1.264 . S
O105 Mg98 1.986 . S
O105 C109 1.246 . S
O106 Mg101 2.032 . S
O106 C109 1.259 . S
O107 Mg98 2.114 . S
O107 C110 1.252 . S
O108 Mg98 2.251 . S
O108 Mg101 2.079 . S
O108 C110 1.273 . S
C109 O105 1.246 . S
C109 O106 1.259 . S
C110 O107 1.252 . S
C110 O108 1.273 . S
O111 Mg98 2.010 . S
O111 C103 1.249 . S
Mg112 O113 2.028 . S
Mg112 O119 1.986 . S
Mg112 O121 2.114 . S
Mg112 O122 2.251 . S
Mg112 O125 2.010 . S
O113 Mg112 2.028 . S
O113 C116 1.250 . S
O114 Mg115 2.028 . S
O114 C116 1.248 . S
Mg115 O114 2.028 . S
Mg115 O120 2.032 . S
Mg115 O122 2.079 . S
C116 O113 1.250 . S
C116 O114 1.248 . S
C117 O118 1.264 . S
C117 O125 1.249 . S
O118 C117 1.264 . S
O119 Mg112 1.986 . S
O119 C123 1.246 . S
O120 Mg115 2.032 . S
O120 C123 1.259 . S
O121 Mg112 2.114 . S
O121 C124 1.252 . S
O122 Mg112 2.251 . S
O122 Mg115 2.079 . S
O122 C124 1.273 . S
C123 O119 1.246 . S
C123 O120 1.259 . S
C124 O121 1.252 . S
C124 O122 1.273 . S
O125 Mg112 2.010 . S
O125 C117 1.249 . S
Mg126 O127 2.028 . S
Mg126 O133 1.986 . S
Mg126 O135 2.114 . S
Mg126 O136 2.251 . S
Mg126 O139 2.010 . S
O127 Mg126 2.028 . S
O127 C130 1.250 . S
O128 Mg129 2.028 . S
O128 C130 1.248 . S
Mg129 O128 2.028 . S
Mg129 O134 2.032 . S
Mg129 O136 2.079 . S
C130 O127 1.250 . S
C130 O128 1.248 . S
C131 O132 1.264 . S
C131 O139 1.249 . S
O132 C131 1.264 . S
O133 Mg126 1.986 . S
O133 C137 1.246 . S
O134 Mg129 2.032 . S
O134 C137 1.259 . S
O135 Mg126 2.114 . S
O135 C138 1.252 . S
O136 Mg126 2.251 . S
O136 Mg129 2.079 . S
O136 C138 1.273 . S
C137 O133 1.246 . S
C137 O134 1.259 . S
C138 O135 1.252 . S
C138 O136 1.273 . S
O139 Mg126 2.010 . S
O139 C131 1.249 . S
Mg140 O141 2.028 . S
Mg140 O147 1.986 . S
Mg140 O149 2.114 . S
Mg140 O150 2.251 . S
Mg140 O153 2.010 . S
O141 Mg140 2.028 . S
O141 C144 1.250 . S
O142 Mg143 2.028 . S
O142 C144 1.248 . S
Mg143 O142 2.028 . S
Mg143 O148 2.032 . S
Mg143 O150 2.079 . S
C144 O141 1.250 . S
C144 O142 1.248 . S
C145 O146 1.264 . S
C145 O153 1.249 . S
O146 C145 1.264 . S
O147 Mg140 1.986 . S
O147 C151 1.246 . S
O148 Mg143 2.032 . S
O148 C151 1.259 . S
O149 Mg140 2.114 . S
O149 C152 1.252 . S
O150 Mg140 2.251 . S
O150 Mg143 2.079 . S
O150 C152 1.273 . S
C151 O147 1.246 . S
C151 O148 1.259 . S
C152 O149 1.252 . S
C152 O150 1.273 . S
O153 Mg140 2.010 . S
O153 C145 1.249 . S
Mg154 O155 2.028 . S
Mg154 O161 1.986 . S
Mg154 O163 2.114 . S
Mg154 O164 2.251 . S
Mg154 O167 2.010 . S
O155 Mg154 2.028 . S
O155 C158 1.250 . S
O156 Mg157 2.028 . S
O156 C158 1.248 . S
Mg157 O156 2.028 . S
Mg157 O162 2.032 . S
Mg157 O164 2.079 . S
C158 O155 1.250 . S
C158 O156 1.248 . S
C159 O160 1.264 . S
C159 O167 1.249 . S
O160 C159 1.264 . S
O161 Mg154 1.986 . S
O161 C165 1.246 . S
O162 Mg157 2.032 . S
O162 C165 1.259 . S
O163 Mg154 2.114 . S
O163 C166 1.252 . S
O164 Mg154 2.251 . S
O164 Mg157 2.079 . S
O164 C166 1.273 . S
C165 O161 1.246 . S
C165 O162 1.259 . S
C166 O163 1.252 . S
C166 O164 1.273 . S
O167 Mg154 2.010 . S
O167 C159 1.249 . S
Mg168 O169 2.028 . S
Mg168 O175 1.986 . S
Mg168 O177 2.114 . S
Mg168 O178 2.251 . S
Mg168 O181 2.010 . S
O169 Mg168 2.028 . S
O169 C172 1.250 . S
O170 Mg171 2.028 . S
O170 C172 1.248 . S
Mg171 O170 2.028 . S
Mg171 O176 2.032 . S
Mg171 O178 2.079 . S
C172 O169 1.250 . S
C172 O170 1.248 . S
C173 O174 1.264 . S
C173 O181 1.249 . S
O174 C173 1.264 . S
O175 Mg168 1.986 . S
O175 C179 1.246 . S
O176 Mg171 2.032 . S
O176 C179 1.259 . S
O177 Mg168 2.114 . S
O177 C180 1.252 . S
O178 Mg168 2.251 . S
O178 Mg171 2.079 . S
O178 C180 1.273 . S
C179 O175 1.246 . S
C179 O176 1.259 . S
C180 O177 1.252 . S
C180 O178 1.273 . S
O181 Mg168 2.010 . S
O181 C173 1.249 . S
Mg182 O183 2.028 . S
Mg182 O189 1.986 . S
Mg182 O191 2.114 . S
Mg182 O192 2.251 . S
Mg182 O195 2.010 . S
O183 Mg182 2.028 . S
O183 C186 1.250 . S
O184 Mg185 2.028 . S
O184 C186 1.248 . S
Mg185 O184 2.028 . S
Mg185 O190 2.032 . S
Mg185 O192 2.079 . S
C186 O183 1.250 . S
C186 O184 1.248 . S
C187 O188 1.264 . S
C187 O195 1.249 . S
O188 C187 1.264 . S
O189 Mg182 1.986 . S
O189 C193 1.246 . S
O190 Mg185 2.032 . S
O190 C193 1.259 . S
O191 Mg182 2.114 . S
O191 C194 1.252 . S
O192 Mg182 2.251 . S
O192 Mg185 2.079 . S
O192 C194 1.273 . S
C193 O189 1.246 . S
C193 O190 1.259 . S
C194 O191 1.252 . S
C194 O192 1.273 . S
O195 Mg182 2.010 . S
O195 C187 1.249 . S
Mg196 O197 2.028 . S
Mg196 O203 1.986 . S
Mg196 O205 2.114 . S
Mg196 O206 2.251 . S
Mg196 O209 2.010 . S
O197 Mg196 2.028 . S
O197 C200 1.250 . S
O198 Mg199 2.028 . S
O198 C200 1.248 . S
Mg199 O198 2.028 . S
Mg199 O204 2.032 . S
Mg199 O206 2.079 . S
C200 O197 1.250 . S
C200 O198 1.248 . S
C201 O202 1.264 . S
C201 O209 1.249 . S
O202 C201 1.264 . S
O203 Mg196 1.986 . S
O203 C207 1.246 . S
O204 Mg199 2.032 . S
O204 C207 1.259 . S
O205 Mg196 2.114 . S
O205 C208 1.252 . S
O206 Mg196 2.251 . S
O206 Mg199 2.079 . S
O206 C208 1.273 . S
C207 O203 1.246 . S
C207 O204 1.259 . S
C208 O205 1.252 . S
C208 O206 1.273 . S
O209 Mg196 2.010 . S
O209 C201 1.249 . S
Mg210 O211 2.028 . S
Mg210 O217 1.986 . S
Mg210 O219 2.114 . S
Mg210 O220 2.251 . S
Mg210 O223 2.010 . S
O211 Mg210 2.028 . S
O211 C214 1.250 . S
O212 Mg213 2.028 . S
O212 C214 1.248 . S
Mg213 O212 2.028 . S
Mg213 O218 2.032 . S
Mg213 O220 2.079 . S
C214 O211 1.250 . S
C214 O212 1.248 . S
C215 O216 1.264 . S
C215 O223 1.249 . S
O216 C215 1.264 . S
O217 Mg210 1.986 . S
O217 C221 1.246 . S
O218 Mg213 2.032 . S
O218 C221 1.259 . S
O219 Mg210 2.114 . S
O219 C222 1.252 . S
O220 Mg210 2.251 . S
O220 Mg213 2.079 . S
O220 C222 1.273 . S
C221 O217 1.246 . S
C221 O218 1.259 . S
C222 O219 1.252 . S
C222 O220 1.273 . S
O223 Mg210 2.010 . S
O223 C215 1.249 . S
Mg224 O225 2.028 . S
Mg224 O231 1.986 . S
Mg224 O233 2.114 . S
Mg224 O234 2.251 . S
Mg224 O237 2.010 . S
O225 Mg224 2.028 . S
O225 C228 1.250 . S
O226 Mg227 2.028 . S
O226 C228 1.248 . S
Mg227 O226 2.028 . S
Mg227 O232 2.032 . S
Mg227 O234 2.079 . S
C228 O225 1.250 . S
C228 O226 1.248 . S
C229 O230 1.264 . S
C229 O237 1.249 . S
O230 C229 1.264 . S
O231 Mg224 1.986 . S
O231 C235 1.246 . S
O232 Mg227 2.032 . S
O232 C235 1.259 . S
O233 Mg224 2.114 . S
O233 C236 1.252 . S
O234 Mg224 2.251 . S
O234 Mg227 2.079 . S
O234 C236 1.273 . S
C235 O231 1.246 . S
C235 O232 1.259 . S
C236 O233 1.252 . S
C236 O234 1.273 . S
O237 Mg224 2.010 . S
O237 C229 1.249 . S
Mg238 O239 2.028 . S
Mg238 O245 1.986 . S
Mg238 O247 2.114 . S
Mg238 O248 2.251 . S
Mg238 O251 2.010 . S
O239 Mg238 2.028 . S
O239 C242 1.250 . S
O240 Mg241 2.028 . S
O240 C242 1.248 . S
Mg241 O240 2.028 . S
Mg241 O246 2.032 . S
Mg241 O248 2.079 . S
C242 O239 1.250 . S
C242 O240 1.248 . S
C243 O244 1.264 . S
C243 O251 1.249 . S
O244 C243 1.264 . S
O245 Mg238 1.986 . S
O245 C249 1.246 . S
O246 Mg241 2.032 . S
O246 C249 1.259 . S
O247 Mg238 2.114 . S
O247 C250 1.252 . S
O248 Mg238 2.251 . S
O248 Mg241 2.079 . S
O248 C250 1.273 . S
C249 O245 1.246 . S
C249 O246 1.259 . S
C250 O247 1.252 . S
C250 O248 1.273 . S
O251 Mg238 2.010 . S
O251 C243 1.249 . S
Mg252 O253 2.028 . S
Mg252 O259 1.986 . S
Mg252 O261 2.114 . S
Mg252 O262 2.251 . S
Mg252 O265 2.010 . S
O253 Mg252 2.028 . S
O253 C256 1.250 . S
O254 Mg255 2.028 . S
O254 C256 1.248 . S
Mg255 O254 2.028 . S
Mg255 O260 2.032 . S
Mg255 O262 2.079 . S
C256 O253 1.250 . S
C256 O254 1.248 . S
C257 O258 1.264 . S
C257 O265 1.249 . S
O258 C257 1.264 . S
O259 Mg252 1.986 . S
O259 C263 1.246 . S
O260 Mg255 2.032 . S
O260 C263 1.259 . S
O261 Mg252 2.114 . S
O261 C264 1.252 . S
O262 Mg252 2.251 . S
O262 Mg255 2.079 . S
O262 C264 1.273 . S
C263 O259 1.246 . S
C263 O260 1.259 . S
C264 O261 1.252 . S
C264 O262 1.273 . S
O265 Mg252 2.010 . S
O265 C257 1.249 . S
Mg266 O267 2.028 . S
Mg266 O273 1.986 . S
Mg266 O275 2.114 . S
Mg266 O276 2.251 . S
Mg266 O279 2.010 . S
O267 Mg266 2.028 . S
O267 C270 1.250 . S
O268 Mg269 2.028 . S
O268 C270 1.248 . S
Mg269 O268 2.028 . S
Mg269 O274 2.032 . S
Mg269 O276 2.079 . S
C270 O267 1.250 . S
C270 O268 1.248 . S
C271 O272 1.264 . S
C271 O279 1.249 . S
O272 C271 1.264 . S
O273 Mg266 1.986 . S
O273 C277 1.246 . S
O274 Mg269 2.032 . S
O274 C277 1.259 . S
O275 Mg266 2.114 . S
O275 C278 1.252 . S
O276 Mg266 2.251 . S
O276 Mg269 2.079 . S
O276 C278 1.273 . S
C277 O273 1.246 . S
C277 O274 1.259 . S
C278 O275 1.252 . S
C278 O276 1.273 . S
O279 Mg266 2.010 . S
O279 C271 1.249 . S
Mg280 O281 2.028 . S
Mg280 O287 1.986 . S
Mg280 O289 2.114 . S
Mg280 O290 2.251 . S
Mg280 O293 2.010 . S
O281 Mg280 2.028 . S
O281 C284 1.250 . S
O282 Mg283 2.028 . S
O282 C284 1.248 . S
Mg283 O282 2.028 . S
Mg283 O288 2.032 . S
Mg283 O290 2.079 . S
C284 O281 1.250 . S
C284 O282 1.248 . S
C285 O286 1.264 . S
C285 O293 1.249 . S
O286 C285 1.264 . S
O287 Mg280 1.986 . S
O287 C291 1.246 . S
O288 Mg283 2.032 . S
O288 C291 1.259 . S
O289 Mg280 2.114 . S
O289 C292 1.252 . S
O290 Mg280 2.251 . S
O290 Mg283 2.079 . S
O290 C292 1.273 . S
C291 O287 1.246 . S
C291 O288 1.259 . S
C292 O289 1.252 . S
C292 O290 1.273 . S
O293 Mg280 2.010 . S
O293 C285 1.249 . S
Mg294 O295 2.028 . S
Mg294 O301 1.986 . S
Mg294 O303 2.114 . S
Mg294 O304 2.251 . S
Mg294 O307 2.010 . S
O295 Mg294 2.028 . S
O295 C298 1.250 . S
O296 Mg297 2.028 . S
O296 C298 1.248 . S
Mg297 O296 2.028 . S
Mg297 O302 2.032 . S
Mg297 O304 2.079 . S
C298 O295 1.250 . S
C298 O296 1.248 . S
C299 O300 1.264 . S
C299 O307 1.249 . S
O300 C299 1.264 . S
O301 Mg294 1.986 . S
O301 C305 1.246 . S
O302 Mg297 2.032 . S
O302 C305 1.259 . S
O303 Mg294 2.114 . S
O303 C306 1.252 . S
O304 Mg294 2.251 . S
O304 Mg297 2.079 . S
O304 C306 1.273 . S
C305 O301 1.246 . S
C305 O302 1.259 . S
C306 O303 1.252 . S
C306 O304 1.273 . S
O307 Mg294 2.010 . S
O307 C299 1.249 . S
Mg308 O309 2.028 . S
Mg308 O315 1.986 . S
Mg308 O317 2.114 . S
Mg308 O318 2.251 . S
Mg308 O321 2.010 . S
O309 Mg308 2.028 . S
O309 C312 1.250 . S
O310 Mg311 2.028 . S
O310 C312 1.248 . S
Mg311 O310 2.028 . S
Mg311 O316 2.032 . S
Mg311 O318 2.079 . S
C312 O309 1.250 . S
C312 O310 1.248 . S
C313 O314 1.264 . S
C313 O321 1.249 . S
O314 C313 1.264 . S
O315 Mg308 1.986 . S
O315 C319 1.246 . S
O316 Mg311 2.032 . S
O316 C319 1.259 . S
O317 Mg308 2.114 . S
O317 C320 1.252 . S
O318 Mg308 2.251 . S
O318 Mg311 2.079 . S
O318 C320 1.273 . S
C319 O315 1.246 . S
C319 O316 1.259 . S
C320 O317 1.252 . S
C320 O318 1.273 . S
O321 Mg308 2.010 . S
O321 C313 1.249 . S
Mg322 O323 2.028 . S
Mg322 O329 1.986 . S
Mg322 O331 2.114 . S
Mg322 O332 2.251 . S
Mg322 O335 2.010 . S
O323 Mg322 2.028 . S
O323 C326 1.250 . S
O324 Mg325 2.028 . S
O324 C326 1.248 . S
Mg325 O324 2.028 . S
Mg325 O330 2.032 . S
Mg325 O332 2.079 . S
C326 O323 1.250 . S
C326 O324 1.248 . S
C327 O328 1.264 . S
C327 O335 1.249 . S
O328 C327 1.264 . S
O329 Mg322 1.986 . S
O329 C333 1.246 . S
O330 Mg325 2.032 . S
O330 C333 1.259 . S
O331 Mg322 2.114 . S
O331 C334 1.252 . S
O332 Mg322 2.251 . S
O332 Mg325 2.079 . S
O332 C334 1.273 . S
C333 O329 1.246 . S
C333 O330 1.259 . S
C334 O331 1.252 . S
C334 O332 1.273 . S
O335 Mg322 2.010 . S
O335 C327 1.249 . S
C336 C337 1.369 . S
C336 C338 1.419 1_545 S
C336 H340 0.930 . S
C337 C336 1.369 . S
C337 C346 1.429 . S
C338 C336 1.419 1_565 S
C338 C339 1.363 . S
C338 H341 0.929 . S
C339 C338 1.363 . S
C339 C345 1.428 . S
H340 C336 0.930 . S
H341 C338 0.929 . S
S342 N343 1.613 . S
S342 N344 1.610 1_545 S
N343 S342 1.613 . S
N343 C346 1.350 . S
N344 S342 1.610 1_565 S
N344 C345 1.351 . S
C345 C339 1.428 . S
C345 N344 1.351 . S
C345 C346 1.434 1_565 S
C346 C337 1.429 . S
C346 N343 1.350 . S
C346 C345 1.434 1_545 S
C347 C348 1.369 . S
C347 C349 1.419 . S
C347 H351 0.930 . S
C348 C347 1.369 . S
C348 C357 1.429 . S
C349 C347 1.419 . S
C349 C350 1.363 . S
C349 H352 0.929 . S
C350 C349 1.363 . S
C350 C356 1.428 . S
H351 C347 0.930 . S
H352 C349 0.929 . S
S353 N354 1.613 . S
S353 N355 1.610 . S
N354 S353 1.613 . S
N354 C357 1.350 . S
N355 S353 1.610 . S
N355 C356 1.351 . S
C356 C350 1.428 . S
C356 N355 1.351 . S
C356 C357 1.434 . S
C357 C348 1.429 . S
C357 N354 1.350 . S
C357 C356 1.434 . S
C358 C359 1.369 . S
C358 C360 1.419 1_655 S
C358 H362 0.930 . S
C359 C358 1.369 . S
C359 C368 1.429 . S
C360 C358 1.419 1_455 S
C360 C361 1.363 . S
C360 H363 0.929 . S
C361 C360 1.363 . S
C361 C367 1.428 . S
H362 C358 0.930 . S
H363 C360 0.929 . S
S364 N365 1.613 1_455 S
S364 N366 1.610 . S
N365 S364 1.613 1_655 S
N365 C368 1.350 . S
N366 S364 1.610 . S
N366 C367 1.351 . S
C367 C361 1.428 . S
C367 N366 1.351 . S
C367 C368 1.434 1_455 S
C368 C359 1.429 . S
C368 N365 1.350 . S
C368 C367 1.434 1_655 S
C369 C370 1.369 . S
C369 C371 1.419 1_565 S
C369 H373 0.930 . S
C370 C369 1.369 . S
C370 C379 1.429 . S
C371 C369 1.419 1_545 S
C371 C372 1.363 . S
C371 H374 0.929 . S
C372 C371 1.363 . S
C372 C378 1.428 . S
H373 C369 0.930 . S
H374 C371 0.929 . S
S375 N376 1.613 1_545 S
S375 N377 1.610 . S
N376 S375 1.613 1_565 S
N376 C379 1.350 . S
N377 S375 1.610 . S
N377 C378 1.351 . S
C378 C372 1.428 . S
C378 N377 1.351 . S
C378 C379 1.434 1_545 S
C379 C370 1.429 . S
C379 N376 1.350 . S
C379 C378 1.434 1_565 S
C380 C381 1.369 . S
C380 C382 1.419 . S
C380 H384 0.930 . S
C381 C380 1.369 . S
C381 C390 1.429 . S
C382 C380 1.419 . S
C382 C383 1.363 . S
C382 H385 0.929 . S
C383 C382 1.363 . S
C383 C389 1.428 . S
H384 C380 0.930 . S
H385 C382 0.929 . S
S386 N387 1.613 . S
S386 N388 1.610 . S
N387 S386 1.613 . S
N387 C390 1.350 . S
N388 S386 1.610 . S
N388 C389 1.351 . S
C389 C383 1.428 . S
C389 N388 1.351 . S
C389 C390 1.434 . S
C390 C381 1.429 . S
C390 N387 1.350 . S
C390 C389 1.434 . S
C391 C392 1.369 . S
C391 C393 1.419 1_455 S
C391 H395 0.930 . S
C392 C391 1.369 . S
C392 C401 1.429 . S
C393 C391 1.419 1_655 S
C393 C394 1.363 . S
C393 H396 0.929 . S
C394 C393 1.363 . S
C394 C400 1.428 . S
H395 C391 0.930 . S
H396 C393 0.929 . S
S397 N398 1.613 . S
S397 N399 1.610 1_455 S
N398 S397 1.613 . S
N398 C401 1.350 . S
N399 S397 1.610 1_655 S
N399 C400 1.351 . S
C400 C394 1.428 . S
C400 N399 1.351 . S
C400 C401 1.434 1_655 S
C401 C392 1.429 . S
C401 N398 1.350 . S
C401 C400 1.434 1_455 S
C402 C403 1.369 . S
C402 C404 1.419 1_565 S
C402 H406 0.930 . S
C403 C402 1.369 . S
C403 C412 1.429 . S
C404 C402 1.419 1_545 S
C404 C405 1.363 . S
C404 H407 0.929 . S
C405 C404 1.363 . S
C405 C411 1.428 . S
H406 C402 0.930 . S
H407 C404 0.929 . S
S408 N409 1.613 . S
S408 N410 1.610 1_565 S
N409 S408 1.613 . S
N409 C412 1.350 . S
N410 S408 1.610 1_545 S
N410 C411 1.351 . S
C411 C405 1.428 . S
C411 N410 1.351 . S
C411 C412 1.434 1_545 S
C412 C403 1.429 . S
C412 N409 1.350 . S
C412 C411 1.434 1_565 S
C413 C414 1.369 . S
C413 C415 1.419 . S
C413 H417 0.930 . S
C414 C413 1.369 . S
C414 C423 1.429 . S
C415 C413 1.419 . S
C415 C416 1.363 . S
C415 H418 0.929 . S
C416 C415 1.363 . S
C416 C422 1.428 . S
H417 C413 0.930 . S
H418 C415 0.929 . S
S419 N420 1.613 . S
S419 N421 1.610 . S
N420 S419 1.613 . S
N420 C423 1.350 . S
N421 S419 1.610 . S
N421 C422 1.351 . S
C422 C416 1.428 . S
C422 N421 1.351 . S
C422 C423 1.434 . S
C423 C414 1.429 . S
C423 N420 1.350 . S
C423 C422 1.434 . S
C424 C425 1.369 . S
C424 C426 1.419 1_655 S
C424 H428 0.930 . S
C425 C424 1.369 . S
C425 C434 1.429 . S
C426 C424 1.419 1_455 S
C426 C427 1.363 . S
C426 H429 0.929 . S
C427 C426 1.363 . S
C427 C433 1.428 . S
H428 C424 0.930 . S
H429 C426 0.929 . S
S430 N431 1.613 . S
S430 N432 1.610 1_655 S
N431 S430 1.613 . S
N431 C434 1.350 . S
N432 S430 1.610 1_455 S
N432 C433 1.351 . S
C433 C427 1.428 . S
C433 N432 1.351 . S
C433 C434 1.434 1_455 S
C434 C425 1.429 . S
C434 N431 1.350 . S
C434 C433 1.434 1_655 S
C435 C436 1.369 . S
C435 C437 1.419 1_545 S
C435 H439 0.930 . S
C436 C435 1.369 . S
C436 C445 1.429 . S
C437 C435 1.419 1_565 S
C437 C438 1.363 . S
C437 H440 0.929 . S
C438 C437 1.363 . S
C438 C444 1.428 . S
H439 C435 0.930 . S
H440 C437 0.929 . S
S441 N442 1.613 . S
S441 N443 1.610 1_545 S
N442 S441 1.613 . S
N442 C445 1.350 . S
N443 S441 1.610 1_565 S
N443 C444 1.351 . S
C444 C438 1.428 . S
C444 N443 1.351 . S
C444 C445 1.434 1_565 S
C445 C436 1.429 . S
C445 N442 1.350 . S
C445 C444 1.434 1_545 S
C446 C447 1.369 . S
C446 C448 1.419 . S
C446 H450 0.930 . S
C447 C446 1.369 . S
C447 C456 1.429 . S
C448 C446 1.419 . S
C448 C449 1.363 . S
C448 H451 0.929 . S
C449 C448 1.363 . S
C449 C455 1.428 . S
H450 C446 0.930 . S
H451 C448 0.929 . S
S452 N453 1.613 . S
S452 N454 1.610 . S
N453 S452 1.613 . S
N453 C456 1.350 . S
N454 S452 1.610 . S
N454 C455 1.351 . S
C455 C449 1.428 . S
C455 N454 1.351 . S
C455 C456 1.434 . S
C456 C447 1.429 . S
C456 N453 1.350 . S
C456 C455 1.434 . S
C457 C458 1.369 . S
C457 C459 1.419 1_455 S
C457 H461 0.930 . S
C458 C457 1.369 . S
C458 C467 1.429 . S
C459 C457 1.419 1_655 S
C459 C460 1.363 . S
C459 H462 0.929 . S
C460 C459 1.363 . S
C460 C466 1.428 . S
H461 C457 0.930 . S
H462 C459 0.929 . S
S463 N464 1.613 1_655 S
S463 N465 1.610 . S
N464 S463 1.613 1_455 S
N464 C467 1.350 . S
N465 S463 1.610 . S
N465 C466 1.351 . S
C466 C460 1.428 . S
C466 N465 1.351 . S
C466 C467 1.434 1_655 S
C467 C458 1.429 . S
C467 N464 1.350 . S
C467 C466 1.434 1_455 S
C468 C469 1.369 . S
C468 C470 1.419 . S
C468 H472 0.930 . S
C469 C468 1.369 . S
C469 C478 1.429 . S
C470 C468 1.419 . S
C470 C471 1.363 . S
C470 H473 0.929 . S
C471 C470 1.363 . S
C471 C477 1.428 . S
H472 C468 0.930 . S
H473 C470 0.929 . S
S474 N475 1.613 . S
S474 N476 1.610 . S
N475 S474 1.613 . S
N475 C478 1.350 . S
N476 S474 1.610 . S
N476 C477 1.351 . S
C477 C471 1.428 . S
C477 N476 1.351 . S
C477 C478 1.434 . S
C478 C469 1.429 . S
C478 N475 1.350 . S
C478 C477 1.434 . S
C479 C480 1.369 . S
C479 C481 1.419 . S
C479 H483 0.930 . S
C480 C479 1.369 . S
C480 C489 1.429 . S
C481 C479 1.419 . S
C481 C482 1.363 . S
C481 H484 0.929 . S
C482 C481 1.363 . S
C482 C488 1.428 . S
H483 C479 0.930 . S
H484 C481 0.929 . S
S485 N486 1.613 . S
S485 N487 1.610 . S
N486 S485 1.613 . S
N486 C489 1.350 . S
N487 S485 1.610 . S
N487 C488 1.351 . S
C488 C482 1.428 . S
C488 N487 1.351 . S
C488 C489 1.434 . S
C489 C480 1.429 . S
C489 N486 1.350 . S
C489 C488 1.434 . S
C490 C491 1.369 . S
C490 C492 1.419 . S
C490 H494 0.930 . S
C491 C490 1.369 . S
C491 C500 1.429 . S
C492 C490 1.419 . S
C492 C493 1.363 . S
C492 H495 0.929 . S
C493 C492 1.363 . S
C493 C499 1.428 . S
H494 C490 0.930 . S
H495 C492 0.929 . S
S496 N497 1.613 . S
S496 N498 1.610 . S
N497 S496 1.613 . S
N497 C500 1.350 . S
N498 S496 1.610 . S
N498 C499 1.351 . S
C499 C493 1.428 . S
C499 N498 1.351 . S
C499 C500 1.434 . S
C500 C491 1.429 . S
C500 N497 1.350 . S
C500 C499 1.434 . S
C501 C502 1.369 . S
C501 C503 1.419 . S
C501 H505 0.930 . S
C502 C501 1.369 . S
C502 C511 1.429 . S
C503 C501 1.419 . S
C503 C504 1.363 . S
C503 H506 0.929 . S
C504 C503 1.363 . S
C504 C510 1.428 . S
H505 C501 0.930 . S
H506 C503 0.929 . S
S507 N508 1.613 . S
S507 N509 1.610 . S
N508 S507 1.613 . S
N508 C511 1.350 . S
N509 S507 1.610 . S
N509 C510 1.351 . S
C510 C504 1.428 . S
C510 N509 1.351 . S
C510 C511 1.434 . S
C511 C502 1.429 . S
C511 N508 1.350 . S
C511 C510 1.434 . S
C512 C513 1.369 . S
C512 C514 1.419 . S
C512 H516 0.930 . S
C513 C512 1.369 . S
C513 C522 1.429 . S
C514 C512 1.419 . S
C514 C515 1.363 . S
C514 H517 0.929 . S
C515 C514 1.363 . S
C515 C521 1.428 . S
H516 C512 0.930 . S
H517 C514 0.929 . S
S518 N519 1.613 . S
S518 N520 1.610 . S
N519 S518 1.613 . S
N519 C522 1.350 . S
N520 S518 1.610 . S
N520 C521 1.351 . S
C521 C515 1.428 . S
C521 N520 1.351 . S
C521 C522 1.434 . S
C522 C513 1.429 . S
C522 N519 1.350 . S
C522 C521 1.434 . S
C523 C524 1.369 . S
C523 C525 1.419 . S
C523 H527 0.930 . S
C524 C523 1.369 . S
C524 C533 1.429 . S
C525 C523 1.419 . S
C525 C526 1.363 . S
C525 H528 0.929 . S
C526 C525 1.363 . S
C526 C532 1.428 . S
H527 C523 0.930 . S
H528 C525 0.929 . S
S529 N530 1.613 . S
S529 N531 1.610 . S
N530 S529 1.613 . S
N530 C533 1.350 . S
N531 S529 1.610 . S
N531 C532 1.351 . S
C532 C526 1.428 . S
C532 N531 1.351 . S
C532 C533 1.434 . S
C533 C524 1.429 . S
C533 N530 1.350 . S
C533 C532 1.434 . S
C534 C535 1.369 . S
C534 C536 1.419 . S
C534 H538 0.930 . S
C535 C534 1.369 . S
C535 C544 1.429 . S
C536 C534 1.419 . S
C536 C537 1.363 . S
C536 H539 0.929 . S
C537 C536 1.363 . S
C537 C543 1.428 . S
H538 C534 0.930 . S
H539 C536 0.929 . S
S540 N541 1.613 . S
S540 N542 1.610 . S
N541 S540 1.613 . S
N541 C544 1.350 . S
N542 S540 1.610 . S
N542 C543 1.351 . S
C543 C537 1.428 . S
C543 N542 1.351 . S
C543 C544 1.434 . S
C544 C535 1.429 . S
C544 N541 1.350 . S
C544 C543 1.434 . S
C545 C546 1.369 . S
C545 C547 1.419 . S
C545 H549 0.930 . S
C546 C545 1.369 . S
C546 C555 1.429 . S
C547 C545 1.419 . S
C547 C548 1.363 . S
C547 H550 0.929 . S
C548 C547 1.363 . S
C548 C554 1.428 . S
H549 C545 0.930 . S
H550 C547 0.929 . S
S551 N552 1.613 . S
S551 N553 1.610 . S
N552 S551 1.613 . S
N552 C555 1.350 . S
N553 S551 1.610 . S
N553 C554 1.351 . S
C554 C548 1.428 . S
C554 N553 1.351 . S
C554 C555 1.434 . S
C555 C546 1.429 . S
C555 N552 1.350 . S
C555 C554 1.434 . S
C556 C557 1.369 . S
C556 C558 1.419 . S
C556 H560 0.930 . S
C557 C556 1.369 . S
C557 C566 1.429 . S
C558 C556 1.419 . S
C558 C559 1.363 . S
C558 H561 0.929 . S
C559 C558 1.363 . S
C559 C565 1.428 . S
H560 C556 0.930 . S
H561 C558 0.929 . S
S562 N563 1.613 . S
S562 N564 1.610 . S
N563 S562 1.613 . S
N563 C566 1.350 . S
N564 S562 1.610 . S
N564 C565 1.351 . S
C565 C559 1.428 . S
C565 N564 1.351 . S
C565 C566 1.434 . S
C566 C557 1.429 . S
C566 N563 1.350 . S
C566 C565 1.434 . S
C567 C568 1.369 . S
C567 C569 1.419 . S
C567 H571 0.930 . S
C568 C567 1.369 . S
C568 C577 1.429 . S
C569 C567 1.419 . S
C569 C570 1.363 . S
C569 H572 0.929 . S
C570 C569 1.363 . S
C570 C576 1.428 . S
H571 C567 0.930 . S
H572 C569 0.929 . S
S573 N574 1.613 . S
S573 N575 1.610 . S
N574 S573 1.613 . S
N574 C577 1.350 . S
N575 S573 1.610 . S
N575 C576 1.351 . S
C576 C570 1.428 . S
C576 N575 1.351 . S
C576 C577 1.434 . S
C577 C568 1.429 . S
C577 N574 1.350 . S
C577 C576 1.434 . S
C578 C579 1.369 . S
C578 C580 1.419 . S
C578 H582 0.930 . S
C579 C578 1.369 . S
C579 C588 1.429 . S
C580 C578 1.419 . S
C580 C581 1.363 . S
C580 H583 0.929 . S
C581 C580 1.363 . S
C581 C587 1.428 . S
H582 C578 0.930 . S
H583 C580 0.929 . S
S584 N585 1.613 . S
S584 N586 1.610 . S
N585 S584 1.613 . S
N585 C588 1.350 . S
N586 S584 1.610 . S
N586 C587 1.351 . S
C587 C581 1.428 . S
C587 N586 1.351 . S
C587 C588 1.434 . S
C588 C579 1.429 . S
C588 N585 1.350 . S
C588 C587 1.434 . S
C589 C590 1.369 . S
C589 C591 1.419 . S
C589 H593 0.930 . S
C590 C589 1.369 . S
C590 C599 1.429 . S
C591 C589 1.419 . S
C591 C592 1.363 . S
C591 H594 0.929 . S
C592 C591 1.363 . S
C592 C598 1.428 . S
H593 C589 0.930 . S
H594 C591 0.929 . S
S595 N596 1.613 . S
S595 N597 1.610 . S
N596 S595 1.613 . S
N596 C599 1.350 . S
N597 S595 1.610 . S
N597 C598 1.351 . S
C598 C592 1.428 . S
C598 N597 1.351 . S
C598 C599 1.434 . S
C599 C590 1.429 . S
C599 N596 1.350 . S
C599 C598 1.434 . S
C600 C601 1.369 . S
C600 C602 1.419 1_554 S
C600 H604 0.930 . S
C601 C600 1.369 . S
C601 C610 1.429 . S
C602 C600 1.419 1_556 S
C602 C603 1.363 . S
C602 H605 0.929 . S
C603 C602 1.363 . S
C603 C609 1.428 . S
H604 C600 0.930 . S
H605 C602 0.929 . S
S606 N607 1.613 1_556 S
S606 N608 1.610 . S
N607 S606 1.613 1_554 S
N607 C610 1.350 . S
N608 S606 1.610 . S
N608 C609 1.351 . S
C609 C603 1.428 . S
C609 N608 1.351 . S
C609 C610 1.434 1_556 S
C610 C601 1.429 . S
C610 N607 1.350 . S
C610 C609 1.434 1_554 S
C611 C612 1.369 . S
C611 C613 1.419 1_556 S
C611 H615 0.930 . S
C612 C611 1.369 . S
C612 C621 1.429 . S
C613 C611 1.419 1_554 S
C613 C614 1.363 . S
C613 H616 0.929 . S
C614 C613 1.363 . S
C614 C620 1.428 . S
H615 C611 0.930 . S
H616 C613 0.929 . S
S617 N618 1.613 . S
S617 N619 1.610 1_556 S
N618 S617 1.613 . S
N618 C621 1.350 . S
N619 S617 1.610 1_554 S
N619 C620 1.351 . S
C620 C614 1.428 . S
C620 N619 1.351 . S
C620 C621 1.434 1_554 S
C621 C612 1.429 . S
C621 N618 1.350 . S
C621 C620 1.434 1_556 S
C622 C623 1.369 . S
C622 C624 1.419 1_556 S
C622 H626 0.930 . S
C623 C622 1.369 . S
C623 C632 1.429 . S
C624 C622 1.419 1_554 S
C624 C625 1.363 . S
C624 H627 0.929 . S
C625 C624 1.363 . S
C625 C631 1.428 . S
H626 C622 0.930 . S
H627 C624 0.929 . S
S628 N629 1.613 . S
S628 N630 1.610 1_556 S
N629 S628 1.613 . S
N629 C632 1.350 . S
N630 S628 1.610 1_554 S
N630 C631 1.351 . S
C631 C625 1.428 . S
C631 N630 1.351 . S
C631 C632 1.434 1_554 S
C632 C623 1.429 . S
C632 N629 1.350 . S
C632 C631 1.434 1_556 S
C633 C634 1.369 . S
C633 C635 1.419 1_554 S
C633 H637 0.930 . S
C634 C633 1.369 . S
C634 C643 1.429 . S
C635 C633 1.419 1_556 S
C635 C636 1.363 . S
C635 H638 0.929 . S
C636 C635 1.363 . S
C636 C642 1.428 . S
H637 C633 0.930 . S
H638 C635 0.929 . S
S639 N640 1.613 1_556 S
S639 N641 1.610 . S
N640 S639 1.613 1_554 S
N640 C643 1.350 . S
N641 S639 1.610 . S
N641 C642 1.351 . S
C642 C636 1.428 . S
C642 N641 1.351 . S
C642 C643 1.434 1_556 S
C643 C634 1.429 . S
C643 N640 1.350 . S
C643 C642 1.434 1_554 S
C644 C645 1.369 . S
C644 C646 1.419 1_554 S
C644 H648 0.930 . S
C645 C644 1.369 . S
C645 C654 1.429 . S
C646 C644 1.419 1_556 S
C646 C647 1.363 . S
C646 H649 0.929 . S
C647 C646 1.363 . S
C647 C653 1.428 . S
H648 C644 0.930 . S
H649 C646 0.929 . S
S650 N651 1.613 1_556 S
S650 N652 1.610 . S
N651 S650 1.613 1_554 S
N651 C654 1.350 . S
N652 S650 1.610 . S
N652 C653 1.351 . S
C653 C647 1.428 . S
C653 N652 1.351 . S
C653 C654 1.434 1_556 S
C654 C645 1.429 . S
C654 N651 1.350 . S
C654 C653 1.434 1_554 S
C655 C656 1.369 . S
C655 C657 1.419 1_556 S
C655 H659 0.930 . S
C656 C655 1.369 . S
C656 C665 1.429 . S
C657 C655 1.419 1_554 S
C657 C658 1.363 . S
C657 H660 0.929 . S
C658 C657 1.363 . S
C658 C664 1.428 . S
H659 C655 0.930 . S
H660 C657 0.929 . S
S661 N662 1.613 1_554 S
S661 N663 1.610 . S
N662 S661 1.613 1_556 S
N662 C665 1.350 . S
N663 S661 1.610 . S
N663 C664 1.351 . S
C664 C658 1.428 . S
C664 N663 1.351 . S
C664 C665 1.434 1_554 S
C665 C656 1.429 . S
C665 N662 1.350 . S
C665 C664 1.434 1_556 S
C666 C667 1.369 . S
C666 C668 1.419 . S
C666 H670 0.930 . S
C667 C666 1.369 . S
C667 C676 1.429 . S
C668 C666 1.419 . S
C668 C669 1.363 . S
C668 H671 0.929 . S
C669 C668 1.363 . S
C669 C675 1.428 . S
H670 C666 0.930 . S
H671 C668 0.929 . S
S672 N673 1.613 . S
S672 N674 1.610 . S
N673 S672 1.613 . S
N673 C676 1.350 . S
N674 S672 1.610 . S
N674 C675 1.351 . S
C675 C669 1.428 . S
C675 N674 1.351 . S
C675 C676 1.434 . S
C676 C667 1.429 . S
C676 N673 1.350 . S
C676 C675 1.434 . S
C677 C678 1.369 . S
C677 C679 1.419 . S
C677 H681 0.930 . S
C678 C677 1.369 . S
C678 C687 1.429 . S
C679 C677 1.419 . S
C679 C680 1.363 . S
C679 H682 0.929 . S
C680 C679 1.363 . S
C680 C686 1.428 . S
H681 C677 0.930 . S
H682 C679 0.929 . S
S683 N684 1.613 . S
S683 N685 1.610 . S
N684 S683 1.613 . S
N684 C687 1.350 . S
N685 S683 1.610 . S
N685 C686 1.351 . S
C686 C680 1.428 . S
C686 N685 1.351 . S
C686 C687 1.434 . S
C687 C678 1.429 . S
C687 N684 1.350 . S
C687 C686 1.434 . S
C688 C689 1.369 . S
C688 C690 1.419 . S
C688 H692 0.930 . S
C689 C688 1.369 . S
C689 C698 1.429 . S
C690 C688 1.419 . S
C690 C691 1.363 . S
C690 H693 0.929 . S
C691 C690 1.363 . S
C691 C697 1.428 . S
H692 C688 0.930 . S
H693 C690 0.929 . S
S694 N695 1.613 . S
S694 N696 1.610 . S
N695 S694 1.613 . S
N695 C698 1.350 . S
N696 S694 1.610 . S
N696 C697 1.351 . S
C697 C691 1.428 . S
C697 N696 1.351 . S
C697 C698 1.434 . S
C698 C689 1.429 . S
C698 N695 1.350 . S
C698 C697 1.434 . S
C699 C700 1.369 . S
C699 C701 1.419 . S
C699 H703 0.930 . S
C700 C699 1.369 . S
C700 C709 1.429 . S
C701 C699 1.419 . S
C701 C702 1.363 . S
C701 H704 0.929 . S
C702 C701 1.363 . S
C702 C708 1.428 . S
H703 C699 0.930 . S
H704 C701 0.929 . S
S705 N706 1.613 . S
S705 N707 1.610 . S
N706 S705 1.613 . S
N706 C709 1.350 . S
N707 S705 1.610 . S
N707 C708 1.351 . S
C708 C702 1.428 . S
C708 N707 1.351 . S
C708 C709 1.434 . S
C709 C700 1.429 . S
C709 N706 1.350 . S
C709 C708 1.434 . S
C710 C711 1.369 . S
C710 C712 1.419 . S
C710 H714 0.930 . S
C711 C710 1.369 . S
C711 C720 1.429 . S
C712 C710 1.419 . S
C712 C713 1.363 . S
C712 H715 0.929 . S
C713 C712 1.363 . S
C713 C719 1.428 . S
H714 C710 0.930 . S
H715 C712 0.929 . S
S716 N717 1.613 . S
S716 N718 1.610 . S
N717 S716 1.613 . S
N717 C720 1.350 . S
N718 S716 1.610 . S
N718 C719 1.351 . S
C719 C713 1.428 . S
C719 N718 1.351 . S
C719 C720 1.434 . S
C720 C711 1.429 . S
C720 N717 1.350 . S
C720 C719 1.434 . S
C721 C722 1.369 . S
C721 C723 1.419 . S
C721 H725 0.930 . S
C722 C721 1.369 . S
C722 C731 1.429 . S
C723 C721 1.419 . S
C723 C724 1.363 . S
C723 H726 0.929 . S
C724 C723 1.363 . S
C724 C730 1.428 . S
H725 C721 0.930 . S
H726 C723 0.929 . S
S727 N728 1.613 . S
S727 N729 1.610 . S
N728 S727 1.613 . S
N728 C731 1.350 . S
N729 S727 1.610 . S
N729 C730 1.351 . S
C730 C724 1.428 . S
C730 N729 1.351 . S
C730 C731 1.434 . S
C731 C722 1.429 . S
C731 N728 1.350 . S
C731 C730 1.434 . S
C732 C733 1.369 . S
C732 C734 1.419 . S
C732 H736 0.930 . S
C733 C732 1.369 . S
C733 C742 1.429 . S
C734 C732 1.419 . S
C734 C735 1.363 . S
C734 H737 0.929 . S
C735 C734 1.363 . S
C735 C741 1.428 . S
H736 C732 0.930 . S
H737 C734 0.929 . S
S738 N739 1.613 . S
S738 N740 1.610 . S
N739 S738 1.613 . S
N739 C742 1.350 . S
N740 S738 1.610 . S
N740 C741 1.351 . S
C741 C735 1.428 . S
C741 N740 1.351 . S
C741 C742 1.434 . S
C742 C733 1.429 . S
C742 N739 1.350 . S
C742 C741 1.434 . S
C743 C744 1.369 . S
C743 C745 1.419 . S
C743 H747 0.930 . S
C744 C743 1.369 . S
C744 C753 1.429 . S
C745 C743 1.419 . S
C745 C746 1.363 . S
C745 H748 0.929 . S
C746 C745 1.363 . S
C746 C752 1.428 . S
H747 C743 0.930 . S
H748 C745 0.929 . S
S749 N750 1.613 . S
S749 N751 1.610 . S
N750 S749 1.613 . S
N750 C753 1.350 . S
N751 S749 1.610 . S
N751 C752 1.351 . S
C752 C746 1.428 . S
C752 N751 1.351 . S
C752 C753 1.434 . S
C753 C744 1.429 . S
C753 N750 1.350 . S
C753 C752 1.434 . S
C754 C755 1.369 . S
C754 C756 1.419 . S
C754 H758 0.930 . S
C755 C754 1.369 . S
C755 C764 1.429 . S
C756 C754 1.419 . S
C756 C757 1.363 . S
C756 H759 0.929 . S
C757 C756 1.363 . S
C757 C763 1.428 . S
H758 C754 0.930 . S
H759 C756 0.929 . S
S760 N761 1.613 . S
S760 N762 1.610 . S
N761 S760 1.613 . S
N761 C764 1.350 . S
N762 S760 1.610 . S
N762 C763 1.351 . S
C763 C757 1.428 . S
C763 N762 1.351 . S
C763 C764 1.434 . S
C764 C755 1.429 . S
C764 N761 1.350 . S
C764 C763 1.434 . S
C765 C766 1.369 . S
C765 C767 1.419 . S
C765 H769 0.930 . S
C766 C765 1.369 . S
C766 C775 1.429 . S
C767 C765 1.419 . S
C767 C768 1.363 . S
C767 H770 0.929 . S
C768 C767 1.363 . S
C768 C774 1.428 . S
H769 C765 0.930 . S
H770 C767 0.929 . S
S771 N772 1.613 . S
S771 N773 1.610 . S
N772 S771 1.613 . S
N772 C775 1.350 . S
N773 S771 1.610 . S
N773 C774 1.351 . S
C774 C768 1.428 . S
C774 N773 1.351 . S
C774 C775 1.434 . S
C775 C766 1.429 . S
C775 N772 1.350 . S
C775 C774 1.434 . S
C776 C777 1.369 . S
C776 C778 1.419 . S
C776 H780 0.930 . S
C777 C776 1.369 . S
C777 C786 1.429 . S
C778 C776 1.419 . S
C778 C779 1.363 . S
C778 H781 0.929 . S
C779 C778 1.363 . S
C779 C785 1.428 . S
H780 C776 0.930 . S
H781 C778 0.929 . S
S782 N783 1.613 . S
S782 N784 1.610 . S
N783 S782 1.613 . S
N783 C786 1.350 . S
N784 S782 1.610 . S
N784 C785 1.351 . S
C785 C779 1.428 . S
C785 N784 1.351 . S
C785 C786 1.434 . S
C786 C777 1.429 . S
C786 N783 1.350 . S
C786 C785 1.434 . S
C787 C788 1.369 . S
C787 C789 1.419 . S
C787 H791 0.930 . S
C788 C787 1.369 . S
C788 C797 1.429 . S
C789 C787 1.419 . S
C789 C790 1.363 . S
C789 H792 0.929 . S
C790 C789 1.363 . S
C790 C796 1.428 . S
H791 C787 0.930 . S
H792 C789 0.929 . S
S793 N794 1.613 . S
S793 N795 1.610 . S
N794 S793 1.613 . S
N794 C797 1.350 . S
N795 S793 1.610 . S
N795 C796 1.351 . S
C796 C790 1.428 . S
C796 N795 1.351 . S
C796 C797 1.434 . S
C797 C788 1.429 . S
C797 N794 1.350 . S
C797 C796 1.434 . S
C798 C799 1.369 . S
C798 C800 1.419 . S
C798 H802 0.930 . S
C799 C798 1.369 . S
C799 C808 1.429 . S
C800 C798 1.419 . S
C800 C801 1.363 . S
C800 H803 0.929 . S
C801 C800 1.363 . S
C801 C807 1.428 . S
H802 C798 0.930 . S
H803 C800 0.929 . S
S804 N805 1.613 . S
S804 N806 1.610 . S
N805 S804 1.613 . S
N805 C808 1.350 . S
N806 S804 1.610 . S
N806 C807 1.351 . S
C807 C801 1.428 . S
C807 N806 1.351 . S
C807 C808 1.434 . S
C808 C799 1.429 . S
C808 N805 1.350 . S
C808 C807 1.434 . S
C809 C810 1.369 . S
C809 C811 1.419 . S
C809 H813 0.930 . S
C810 C809 1.369 . S
C810 C819 1.429 . S
C811 C809 1.419 . S
C811 C812 1.363 . S
C811 H814 0.929 . S
C812 C811 1.363 . S
C812 C818 1.428 . S
H813 C809 0.930 . S
H814 C811 0.929 . S
S815 N816 1.613 . S
S815 N817 1.610 . S
N816 S815 1.613 . S
N816 C819 1.350 . S
N817 S815 1.610 . S
N817 C818 1.351 . S
C818 C812 1.428 . S
C818 N817 1.351 . S
C818 C819 1.434 . S
C819 C810 1.429 . S
C819 N816 1.350 . S
C819 C818 1.434 . S
C820 C821 1.369 . S
C820 C822 1.419 . S
C820 H824 0.930 . S
C821 C820 1.369 . S
C821 C830 1.429 . S
C822 C820 1.419 . S
C822 C823 1.363 . S
C822 H825 0.929 . S
C823 C822 1.363 . S
C823 C829 1.428 . S
H824 C820 0.930 . S
H825 C822 0.929 . S
S826 N827 1.613 . S
S826 N828 1.610 . S
N827 S826 1.613 . S
N827 C830 1.350 . S
N828 S826 1.610 . S
N828 C829 1.351 . S
C829 C823 1.428 . S
C829 N828 1.351 . S
C829 C830 1.434 . S
C830 C821 1.429 . S
C830 N827 1.350 . S
C830 C829 1.434 . S
C831 C832 1.369 . S
C831 C833 1.419 . S
C831 H835 0.930 . S
C832 C831 1.369 . S
C832 C841 1.429 . S
C833 C831 1.419 . S
C833 C834 1.363 . S
C833 H836 0.929 . S
C834 C833 1.363 . S
C834 C840 1.428 . S
H835 C831 0.930 . S
H836 C833 0.929 . S
S837 N838 1.613 . S
S837 N839 1.610 . S
N838 S837 1.613 . S
N838 C841 1.350 . S
N839 S837 1.610 . S
N839 C840 1.351 . S
C840 C834 1.428 . S
C840 N839 1.351 . S
C840 C841 1.434 . S
C841 C832 1.429 . S
C841 N838 1.350 . S
C841 C840 1.434 . S
C842 C843 1.369 . S
C842 C844 1.419 . S
C842 H846 0.930 . S
C843 C842 1.369 . S
C843 C852 1.429 . S
C844 C842 1.419 . S
C844 C845 1.363 . S
C844 H847 0.929 . S
C845 C844 1.363 . S
C845 C851 1.428 . S
H846 C842 0.930 . S
H847 C844 0.929 . S
S848 N849 1.613 . S
S848 N850 1.610 . S
N849 S848 1.613 . S
N849 C852 1.350 . S
N850 S848 1.610 . S
N850 C851 1.351 . S
C851 C845 1.428 . S
C851 N850 1.351 . S
C851 C852 1.434 . S
C852 C843 1.429 . S
C852 N849 1.350 . S
C852 C851 1.434 . S
C853 C854 1.369 . S
C853 C855 1.419 . S
C853 H857 0.930 . S
C854 C853 1.369 . S
C854 C863 1.429 . S
C855 C853 1.419 . S
C855 C856 1.363 . S
C855 H858 0.929 . S
C856 C855 1.363 . S
C856 C862 1.428 . S
H857 C853 0.930 . S
H858 C855 0.929 . S
S859 N860 1.613 . S
S859 N861 1.610 . S
N860 S859 1.613 . S
N860 C863 1.350 . S
N861 S859 1.610 . S
N861 C862 1.351 . S
C862 C856 1.428 . S
C862 N861 1.351 . S
C862 C863 1.434 . S
C863 C854 1.429 . S
C863 N860 1.350 . S
C863 C862 1.434 . S
C337 C12 1.469 . S
C339 C110 1.470 . S
C348 C124 1.467 . S
C350 C26 1.468 . S
C359 C40 1.470 . S
C361 C138 1.470 . S
C370 C54 1.469 . S
C372 C152 1.468 . S
C381 C166 1.466 . S
C383 C68 1.467 . S
C392 C82 1.467 . S
C394 C96 1.467 . S
C403 C173 1.161 . S
C405 C271 1.161 . S
C414 C187 1.165 . S
C416 C285 1.162 . S
C425 C299 1.177 . S
C427 C201 1.172 . S
C436 C215 1.171 . S
C438 C313 1.165 . S
C447 C229 1.177 . S
C449 C327 1.174 . S
C458 C257 1.160 . S
C460 C243 1.166 . S
C469 C5 1.027 . S
C471 C117 1.035 . S
C480 C131 1.027 . S
C482 C19 1.022 . S
C491 C145 1.041 . S
C493 C33 1.038 . S
C502 C47 1.040 . S
C504 C159 1.039 . S
C513 C61 1.019 . S
C515 C89 1.026 . S
C524 C75 1.037 . S
C526 C103 1.039 . S
C535 C292 1.382 . S
C537 C180 1.382 . S
C546 C194 1.382 . S
C548 C306 1.382 . S
C557 C320 1.382 . S
C559 C208 1.382 . S
C568 C334 1.382 . S
C570 C222 1.382 . S
C579 C264 1.382 . S
C581 C236 1.382 . S
C590 C250 1.382 . S
C592 C278 1.382 . S
C601 C11 1.498 . S
C603 C221 1.504 . S
C612 C235 1.504 . S
C614 C25 1.499 . S
C623 C249 1.502 . S
C625 C39 1.497 . S
C634 C53 1.499 . S
C636 C179 1.504 . S
C645 C67 1.497 . S
C647 C193 1.502 . S
C656 C207 1.500 . S
C658 C81 1.499 . S
C667 C305 1.500 . S
C669 C95 1.498 . S
C678 C319 1.503 . S
C680 C109 1.497 . S
C689 C333 1.504 . S
C691 C123 1.498 . S
C700 C263 1.500 . S
C702 C137 1.499 . S
C711 C151 1.501 . S
C713 C277 1.502 . S
C722 C165 1.499 . S
C724 C291 1.501 . S
C733 C4 1.471 . S
C735 C144 1.473 . S
C744 C158 1.479 . S
C746 C18 1.479 . S
C755 C88 1.477 . S
C757 C32 1.478 . S
C766 C46 1.480 . S
C768 C102 1.479 . S
C777 C60 1.477 . S
C779 C116 1.478 . S
C788 C74 1.475 . S
C790 C130 1.477 . S
C799 C172 1.528 . S
C801 C312 1.529 . S
C810 C186 1.528 . S
C812 C326 1.529 . S
C821 C200 1.529 . S
C823 C256 1.530 . S
C832 C270 1.532 . S
C834 C214 1.532 . S
C843 C228 1.532 . S
C845 C284 1.532 . S
C854 C242 1.532 . S
C856 C298 1.531 . S
