# Generated by pormake.
# Topology ung, (4)-cn, num edge types: 1
# Building blocks:
#     Node 0, Type 0, BuildingBlock: QUQFOY_clean_sbu_1, # of connection points: 4
#     Node 1, Type 0, BuildingBlock: QUQFOY_clean_sbu_1, # of connection points: 4
#     Node 2, Type 0, BuildingBlock: QUQFOY_clean_sbu_1, # of connection points: 4
#     Node 3, Type 0, BuildingBlock: QUQFOY_clean_sbu_1, # of connection points: 4
#     Node 4, Type 0, BuildingBlock: QUQFOY_clean_sbu_1, # of connection points: 4
#     Node 5, Type 0, BuildingBlock: QUQFOY_clean_sbu_1, # of connection points: 4
#     Node 6, Type 0, BuildingBlock: QUQFOY_clean_sbu_1, # of connection points: 4
#     Node 7, Type 0, BuildingBlock: QUQFOY_clean_sbu_1, # of connection points: 4
#     Node 8, Type 0, BuildingBlock: QUQFOY_clean_sbu_1, # of connection points: 4
#     Node 9, Type 0, BuildingBlock: QUQFOY_clean_sbu_1, # of connection points: 4
#     Node 10, Type 0, BuildingBlock: QUQFOY_clean_sbu_1, # of connection points: 4
#     Node 11, Type 0, BuildingBlock: QUQFOY_clean_sbu_1, # of connection points: 4
#     Node 12, Type 0, BuildingBlock: QUQFOY_clean_sbu_1, # of connection points: 4
#     Node 13, Type 0, BuildingBlock: QUQFOY_clean_sbu_1, # of connection points: 4
#     Node 14, Type 0, BuildingBlock: QUQFOY_clean_sbu_1, # of connection points: 4
#     Node 15, Type 0, BuildingBlock: QUQFOY_clean_sbu_1, # of connection points: 4
#     Node 16, Type 0, BuildingBlock: QUQFOY_clean_sbu_1, # of connection points: 4
#     Node 17, Type 0, BuildingBlock: QUQFOY_clean_sbu_1, # of connection points: 4
#     Edge 18, Type (0, 0), BuildingBlock: ZUJKAS_clean_linker_0, # of connection points: 2
#     Edge 19, Type (0, 0), BuildingBlock: ZUJKAS_clean_linker_0, # of connection points: 2
#     Edge 20, Type (0, 0), BuildingBlock: ZUJKAS_clean_linker_0, # of connection points: 2
#     Edge 21, Type (0, 0), BuildingBlock: ZUJKAS_clean_linker_0, # of connection points: 2
#     Edge 22, Type (0, 0), BuildingBlock: ZUJKAS_clean_linker_0, # of connection points: 2
#     Edge 23, Type (0, 0), BuildingBlock: ZUJKAS_clean_linker_0, # of connection points: 2
#     Edge 24, Type (0, 0), BuildingBlock: ZUJKAS_clean_linker_0, # of connection points: 2
#     Edge 25, Type (0, 0), BuildingBlock: ZUJKAS_clean_linker_0, # of connection points: 2
#     Edge 26, Type (0, 0), BuildingBlock: ZUJKAS_clean_linker_0, # of connection points: 2
#     Edge 27, Type (0, 0), BuildingBlock: ZUJKAS_clean_linker_0, # of connection points: 2
#     Edge 28, Type (0, 0), BuildingBlock: ZUJKAS_clean_linker_0, # of connection points: 2
#     Edge 29, Type (0, 0), BuildingBlock: ZUJKAS_clean_linker_0, # of connection points: 2
#     Edge 30, Type (0, 0), BuildingBlock: ZUJKAS_clean_linker_0, # of connection points: 2
#     Edge 31, Type (0, 0), BuildingBlock: ZUJKAS_clean_linker_0, # of connection points: 2
#     Edge 32, Type (0, 0), BuildingBlock: ZUJKAS_clean_linker_0, # of connection points: 2
#     Edge 33, Type (0, 0), BuildingBlock: ZUJKAS_clean_linker_0, # of connection points: 2
#     Edge 34, Type (0, 0), BuildingBlock: ZUJKAS_clean_linker_0, # of connection points: 2
#     Edge 35, Type (0, 0), BuildingBlock: ZUJKAS_clean_linker_0, # of connection points: 2
#     Edge 36, Type (0, 0), BuildingBlock: ZUJKAS_clean_linker_0, # of connection points: 2
#     Edge 37, Type (0, 0), BuildingBlock: ZUJKAS_clean_linker_0, # of connection points: 2
#     Edge 38, Type (0, 0), BuildingBlock: ZUJKAS_clean_linker_0, # of connection points: 2
#     Edge 39, Type (0, 0), BuildingBlock: ZUJKAS_clean_linker_0, # of connection points: 2
#     Edge 40, Type (0, 0), BuildingBlock: ZUJKAS_clean_linker_0, # of connection points: 2
#     Edge 41, Type (0, 0), BuildingBlock: ZUJKAS_clean_linker_0, # of connection points: 2
#     Edge 42, Type (0, 0), BuildingBlock: ZUJKAS_clean_linker_0, # of connection points: 2
#     Edge 43, Type (0, 0), BuildingBlock: ZUJKAS_clean_linker_0, # of connection points: 2
#     Edge 44, Type (0, 0), BuildingBlock: ZUJKAS_clean_linker_0, # of connection points: 2
#     Edge 45, Type (0, 0), BuildingBlock: ZUJKAS_clean_linker_0, # of connection points: 2
#     Edge 46, Type (0, 0), BuildingBlock: ZUJKAS_clean_linker_0, # of connection points: 2
#     Edge 47, Type (0, 0), BuildingBlock: ZUJKAS_clean_linker_0, # of connection points: 2
#     Edge 48, Type (0, 0), BuildingBlock: ZUJKAS_clean_linker_0, # of connection points: 2
#     Edge 49, Type (0, 0), BuildingBlock: ZUJKAS_clean_linker_0, # of connection points: 2
#     Edge 50, Type (0, 0), BuildingBlock: ZUJKAS_clean_linker_0, # of connection points: 2
#     Edge 51, Type (0, 0), BuildingBlock: ZUJKAS_clean_linker_0, # of connection points: 2
#     Edge 52, Type (0, 0), BuildingBlock: ZUJKAS_clean_linker_0, # of connection points: 2
#     Edge 53, Type (0, 0), BuildingBlock: ZUJKAS_clean_linker_0, # of connection points: 2
# Relax obj value: 0.067
# Max RMSD: 0.172
# Mean RMSD: 0.149
data_MOF--net-ung--node1-QUQFOY_clean_sbu_1--edge1-ZUJKAS_clean_linker_0
_symmetry_space_group_name_H-M    P1
_symmetry_Int_Tables_number       1
_symmetry_cell_setting            triclinic
loop_
_symmetry_equiv_pos_as_xyz
'x, y, z'
_cell_length_a     90.723852
_cell_length_b     107.7207
_cell_length_c     29.210068
_cell_angle_alpha  90.582169
_cell_angle_beta   93.858028
_cell_angle_gamma 125.09827
loop_
_atom_site_label
_atom_site_type_symbol
_atom_site_fract_x
_atom_site_fract_y
_atom_site_fract_z
_atom_type_partial_charge
O0 O 0.04447 0.55939 0.28644 0.0
Cd1 Cd 0.0495 0.5743 0.236 0.0
Cd2 Cd 0.02249 0.57321 0.27285 0.0
O3 O 0.01886 0.55486 0.30655 0.0
O4 O 0.06133 0.57008 0.1887 0.0
O5 O 0.03406 0.56508 0.17631 0.0
C6 C 0.04663 0.56424 0.16201 0.0
C7 C 1.00019 0.57274 0.22614 0.0
C8 C 0.03076 0.55208 0.30948 0.0
C9 C 0.05977 0.60279 0.28532 0.0
O10 O 0.04388 0.59459 0.29829 0.0
O11 O 0.06475 0.59733 0.25616 0.0
O12 O 1.00043 0.57337 0.27039 0.0
O13 O 0.01197 0.57147 0.2086 0.0
O14 O 0.50547 0.45883 0.31587 0.0
Cd15 Cd 0.48728 0.44964 0.25881 0.0
Cd16 Cd 0.48234 0.42414 0.28766 0.0
O17 O 0.50302 0.43823 0.33807 0.0
O18 O 0.4942 0.46771 0.22345 0.0
O19 O 0.49666 0.4496 0.19827 0.0
C20 C 0.49943 0.46266 0.19288 0.0
C21 C 0.48156 0.40663 0.238 0.0
C22 C 0.51003 0.45238 0.34363 0.0
C23 C 0.45129 0.42681 0.29231 0.0
O24 O 0.45762 0.41912 0.30135 0.0
O25 O 0.46057 0.43922 0.27242 0.0
O26 O 0.47955 0.40441 0.28116 0.0
O27 O 0.48502 0.41927 0.22346 0.0
O28 O 0.58156 0.00789 0.22671 0.0
Cd29 Cd 0.59973 0.01004 0.2775 0.0
Cd30 Cd 0.5877 0.98303 0.23796 0.0
O31 O 0.56725 0.98366 0.2046 0.0
O32 O 0.60224 0.02519 0.32353 0.0
O33 O 0.5898 1.00106 0.3369 0.0
C34 C 0.59347 0.0141 0.35001 0.0
C35 C 0.58513 0.96494 0.28656 0.0
C36 C 0.56893 0.99622 0.2024 0.0
C37 C 0.62556 0.00957 0.22324 0.0
O38 O 0.61198 0.99626 0.21001 0.0
O39 O 0.62458 0.01699 0.25574 0.0
O40 O 0.5819 0.96208 0.24254 0.0
O41 O 0.58858 0.97763 0.30275 0.0
O42 O 0.03788 0.46743 0.78186 0.0
Cd43 Cd 0.04241 0.45654 0.73233 0.0
Cd44 Cd 0.01447 0.43227 0.76746 0.0
O45 O 0.01111 0.44789 0.79826 0.0
O46 O 0.05622 0.47229 0.68718 0.0
O47 O 0.02829 0.45189 0.67101 0.0
C48 C 0.04189 0.4647 0.65875 0.0
C49 C 0.99314 0.41149 0.71755 0.0
C50 C 0.02371 0.46206 0.8027 0.0
C51 C 0.05062 0.43741 0.78488 0.0
O52 O 0.03475 0.431 0.79751 0.0
O53 O 0.05613 0.4472 0.75444 0.0
O54 O 0.99136 0.41125 0.76111 0.0
O55 O 0.00641 0.42387 0.70219 0.0
O56 O 0.60257 0.56354 0.74811 0.0
Cd57 Cd 0.61838 0.57957 0.80065 0.0
Cd58 Cd 0.60143 0.59077 0.76331 0.0
O59 O 0.5828 0.56899 0.73311 0.0
O60 O 0.62262 0.56855 0.84868 0.0
O61 O 0.60644 0.57769 0.85761 0.0
C62 C 0.61206 0.56976 0.87291 0.0
C63 C 0.5962 0.60585 0.80755 0.0
C64 C 0.58796 0.56035 0.72707 0.0
C65 C 0.64069 0.60566 0.7472 0.0
O66 O 0.62547 0.60299 0.73341 0.0
O67 O 0.6419 0.59878 0.78088 0.0
O68 O 0.59252 0.60407 0.76346 0.0
O69 O 0.60145 0.59809 0.82658 0.0
O70 O 0.49137 0.02435 0.79156 0.0
Cd71 Cd 0.4739 0.02119 0.73693 0.0
Cd72 Cd 0.48237 0.04715 0.77579 0.0
O73 O 0.50341 0.04828 0.81305 0.0
O74 O 0.47363 0.00647 0.69375 0.0
O75 O 0.48499 0.03029 0.67853 0.0
C76 C 0.48241 0.01753 0.66719 0.0
C77 C 0.48293 0.0635 0.72347 0.0
C78 C 0.50285 0.03625 0.81681 0.0
C79 C 0.4451 0.01929 0.78455 0.0
O80 O 0.45768 0.03264 0.80041 0.0
O81 O 0.44788 0.01278 0.75301 0.0
O82 O 0.48582 0.06709 0.76714 0.0
O83 O 0.48133 0.05131 0.70988 0.0
O84 O 0.70231 0.889 0.62972 0.0
Cd85 Cd 0.70701 0.90371 0.57897 0.0
Cd86 Cd 0.67987 0.90239 0.61539 0.0
O87 O 0.67635 0.88399 0.6486 0.0
O88 O 0.71962 0.89996 0.53288 0.0
O89 O 0.69197 0.89404 0.51888 0.0
C90 C 0.705 0.89368 0.50561 0.0
C91 C 0.65785 0.90176 0.56682 0.0
C92 C 0.68845 0.88145 0.65212 0.0
C93 C 0.71671 0.93216 0.62795 0.0
O94 O 0.70093 0.92383 0.64153 0.0
O95 O 0.72169 0.92676 0.59858 0.0
O96 O 0.65737 0.90192 0.61091 0.0
O97 O 0.67023 0.90104 0.55044 0.0
O98 O 0.16658 0.79236 0.61994 0.0
Cd99 Cd 0.14819 0.7794 0.56542 0.0
Cd100 Cd 0.1536 0.75946 0.5997 0.0
O101 O 0.17465 0.77741 0.64222 0.0
O102 O 0.14943 0.79476 0.52506 0.0
O103 O 0.158 0.78009 0.50517 0.0
C104 C 0.15681 0.79122 0.49626 0.0
C105 C 0.15471 0.74329 0.54871 0.0
C106 C 0.17629 0.78994 0.64626 0.0
C107 C 0.11746 0.75402 0.60943 0.0
O108 O 0.12845 0.75065 0.62106 0.0
O109 O 0.12192 0.76469 0.58269 0.0
O110 O 0.15547 0.74194 0.59256 0.0
O111 O 0.15475 0.75461 0.53425 0.0
O112 O 0.24638 0.33609 0.62778 0.0
Cd113 Cd 0.25686 0.32935 0.58096 0.0
Cd114 Cd 0.28891 0.35296 0.6326 0.0
O115 O 0.27137 0.35596 0.66435 0.0
O116 O 0.23856 0.31986 0.52526 0.0
O117 O 0.26552 0.34156 0.52597 0.0
C118 C 0.24999 0.33182 0.5044 0.0
C119 C 0.31123 0.37073 0.58751 0.0
C120 C 0.25418 0.34721 0.65766 0.0
C121 C 0.27914 0.32084 0.63429 0.0
O122 O 0.28914 0.33462 0.65022 0.0
O123 O 0.26598 0.3164 0.60398 0.0
O124 O 0.3144 0.37201 0.63175 0.0
O125 O 0.29541 0.35981 0.57007 0.0
O126 O 0.70395 0.80038 0.12529 0.0
Cd127 Cd 0.70964 0.7908 0.07441 0.0
Cd128 Cd 0.68362 0.76535 0.11035 0.0
O129 O 0.67916 0.77959 0.14604 0.0
O130 O 0.72127 0.80674 0.02885 0.0
O131 O 0.6945 0.78488 0.01407 0.0
C132 C 0.70686 0.79817 1.00126 0.0
C133 C 0.66129 0.74315 0.06655 0.0
C134 C 0.69042 0.79401 0.14905 0.0
C135 C 0.72174 0.77358 0.12203 0.0
O136 O 0.70571 0.76556 0.13416 0.0
O137 O 0.72628 0.78404 0.09436 0.0
O138 O 0.66242 0.74362 0.1109 0.0
O139 O 0.67213 0.75564 0.04704 0.0
O140 O 0.24985 0.89529 0.05503 0.0
Cd141 Cd 0.2677 0.91165 0.10486 0.0
Cd142 Cd 0.25323 0.9251 0.06613 0.0
O143 O 0.2334 0.9038 0.03517 0.0
O144 O 0.27235 0.90013 0.15004 0.0
O145 O 0.25791 0.91045 0.16523 0.0
C146 C 0.26304 0.90192 0.17747 0.0
C147 C 0.25075 0.94036 0.11752 0.0
C148 C 0.23631 0.89358 0.03228 0.0
C149 C 0.29138 0.93738 0.04874 0.0
O150 O 0.27697 0.93619 0.03536 0.0
O151 O 0.29153 0.92981 0.08183 0.0
O152 O 0.24559 0.93915 0.07436 0.0
O153 O 0.25595 0.93201 0.13153 0.0
O154 O 0.1624 0.35613 0.11311 0.0
Cd155 Cd 0.14116 0.35019 0.06622 0.0
Cd156 Cd 0.14823 0.37592 0.10571 0.0
O157 O 0.17131 0.37904 0.13804 0.0
O158 O 0.14067 0.33562 0.02209 0.0
O159 O 0.14684 0.35785 0.00303 0.0
C160 C 0.14577 0.34572 0.99202 0.0
C161 C 0.14681 0.39167 0.05435 0.0
C162 C 0.17338 0.36831 0.13774 0.0
C163 C 0.11307 0.3464 0.12273 0.0
O164 O 0.1245 0.36047 0.13398 0.0
O165 O 0.11625 0.33988 0.09227 0.0
O166 O 0.14954 0.39501 0.09813 0.0
O167 O 0.1461 0.37996 0.04 0.0
O168 O 0.372 0.22389 0.96643 0.0
Cd169 Cd 0.37918 0.23922 0.91649 0.0
Cd170 Cd 0.35135 0.23889 0.94651 0.0
O171 O 0.3464 0.22035 0.98212 0.0
O172 O 0.39104 0.23439 0.87089 0.0
O173 O 0.3645 0.23065 0.85586 0.0
C174 C 0.37674 0.22913 0.84303 0.0
C175 C 0.33048 0.23897 0.89524 0.0
C176 C 0.35772 0.21694 0.98742 0.0
C177 C 0.38916 0.268 0.96324 0.0
O178 O 0.37269 0.26028 0.97214 0.0
O179 O 0.39483 0.26212 0.93812 0.0
O180 O 0.32974 0.23971 0.93911 0.0
O181 O 0.34227 0.23714 0.88075 0.0
O182 O 0.82212 0.12284 0.94997 0.0
Cd183 Cd 0.80377 0.10869 0.89663 0.0
Cd184 Cd 0.81336 0.09138 0.93095 0.0
O185 O 0.83477 0.11088 0.96736 0.0
O186 O 0.80306 0.12275 0.85378 0.0
O187 O 0.81406 0.10965 0.8372 0.0
C188 C 0.81151 0.11991 0.82641 0.0
C189 C 0.81393 0.07491 0.87987 0.0
C190 C 0.83415 0.12232 0.97285 0.0
C191 C 0.7762 0.08294 0.94586 0.0
O192 O 0.78913 0.08194 0.9585 0.0
O193 O 0.77815 0.09199 0.91521 0.0
O194 O 0.81677 0.07467 0.92372 0.0
O195 O 0.81224 0.08534 0.86518 0.0
O196 O 0.92873 0.68402 0.89273 0.0
Cd197 Cd 0.94531 0.68614 0.94792 0.0
Cd198 Cd 0.93759 0.66062 0.90749 0.0
O199 O 0.91821 0.66085 0.86609 0.0
O200 O 0.94429 0.69931 0.99423 0.0
O201 O 0.93338 0.67518 0.00351 0.0
C202 C 0.93533 0.68747 0.01789 0.0
C203 C 0.93311 0.64055 0.94945 0.0
C204 C 0.91833 0.67272 0.86437 0.0
C205 C 0.97556 0.68903 0.90566 0.0
O206 O 0.96361 0.67545 0.89026 0.0
O207 O 0.97172 0.69559 0.93407 0.0
O208 O 0.93307 0.64011 0.90523 0.0
O209 O 0.93438 0.65192 0.96939 0.0
O210 O 0.36526 0.13181 0.45955 0.0
Cd211 Cd 0.36997 0.12163 0.40847 0.0
Cd212 Cd 0.34328 0.09659 0.44515 0.0
O213 O 0.33977 0.11161 0.4799 0.0
O214 O 0.38251 0.13766 0.36334 0.0
O215 O 0.35507 0.11655 0.34824 0.0
C216 C 0.36798 0.12966 0.33578 0.0
C217 C 0.32157 0.07587 0.39562 0.0
C218 C 0.3517 0.12593 0.48307 0.0
C219 C 0.38053 0.10334 0.45693 0.0
O220 O 0.36462 0.09586 0.46995 0.0
O221 O 0.38534 0.11365 0.4285 0.0
O222 O 0.32065 0.07528 0.43957 0.0
O223 O 0.33413 0.08854 0.37989 0.0
O224 O 0.91796 0.22712 0.38887 0.0
Cd225 Cd 0.93468 0.24144 0.44378 0.0
Cd226 Cd 0.92537 0.25861 0.4058 0.0
O227 O 0.90547 0.23888 0.36694 0.0
O228 O 0.93494 0.22769 0.48877 0.0
O229 O 0.92273 0.24014 0.50045 0.0
C230 C 0.92553 0.23019 0.5135 0.0
C231 C 0.92187 0.2741 0.45337 0.0
C232 C 0.90645 0.22758 0.36314 0.0
C233 C 0.9635 0.2682 0.39929 0.0
O234 O 0.95083 0.26929 0.38416 0.0
O235 O 0.96062 0.25853 0.42864 0.0
O236 O 0.91959 0.27399 0.40918 0.0
O237 O 0.92477 0.26458 0.47031 0.0
O238 O 0.8329 0.69468 0.45719 0.0
Cd239 Cd 0.81378 0.69032 0.40561 0.0
Cd240 Cd 0.82269 0.71683 0.44123 0.0
O241 O 0.84475 0.71878 0.47555 0.0
O242 O 0.81286 0.6752 0.36283 0.0
O243 O 0.82299 0.69858 0.34497 0.0
C244 C 0.82066 0.68586 0.33453 0.0
C245 C 0.82241 0.73279 0.38845 0.0
C246 C 0.84479 0.70705 0.47995 0.0
C247 C 0.78623 0.68893 0.45788 0.0
O248 O 0.79883 0.70267 0.47029 0.0
O249 O 0.7884 0.68189 0.42669 0.0
O250 O 0.82598 0.7367 0.43193 0.0
O251 O 0.82031 0.72036 0.37509 0.0
H252 H 0.9987 0.45465 0.86481 0.0
H253 H 0.99904 0.47194 0.92097 0.0
H254 H 0.04685 0.51002 0.86817 0.0
H255 H 0.04654 0.493 0.812 0.0
H256 H 0.02678 0.49021 0.98861 0.0
H257 H 0.01541 0.52562 0.87658 0.0
H258 H 0.0105 0.50758 0.85648 0.0
H259 H 0.03329 0.52447 0.85986 0.0
C260 C 0.00909 0.46673 0.86465 0.0
C261 C 0.0226 0.47241 0.83391 0.0
C262 C 0.00929 0.47659 0.8968 0.0
C263 C 0.02284 0.4923 0.89837 0.0
C264 C 0.03604 0.498 0.867 0.0
H265 H 0.06954 0.55872 0.12612 0.0
H266 H 0.06278 0.54131 0.06082 0.0
C267 C 0.03591 0.4882 0.83508 0.0
C268 C 0.02424 0.50264 0.93515 0.0
H269 H 0.02813 0.53583 0.95387 0.0
C270 C 0.02685 0.50008 0.98103 0.0
C271 C 0.02419 0.51546 0.92529 0.0
C272 C 0.02051 0.51839 0.8769 0.0
C273 C 0.03012 0.51029 0.01716 0.0
C274 C 0.03106 0.52354 0.00709 0.0
C275 C 0.02769 0.5258 0.96142 0.0
C276 C 0.03571 0.5352 0.04371 0.0
C277 C 0.03261 0.50684 0.06587 0.0
C278 C 0.02304 0.53805 0.05444 0.0
C279 C 0.02689 0.54807 0.09168 0.0
C280 C 0.04355 0.55548 0.11864 0.0
C281 C 0.05656 0.55317 0.10623 0.0
C282 C 0.05268 0.54314 0.0691 0.0
H283 H 0.027 0.49463 0.0687 0.0
H284 H 0.04727 0.5136 0.07723 0.0
H285 H 0.026 0.50994 0.0896 0.0
H286 H 0.00991 0.53211 0.03503 0.0
H287 H 0.01658 0.5496 0.10025 0.0
H288 H 0.59129 0.57117 0.93333 0.0
H289 H 0.57423 0.55302 0.99078 0.0
H290 H 0.59802 0.52921 0.96067 0.0
H291 H 0.61518 0.54734 0.90302 0.0
H292 H 0.55919 0.51086 0.95391 0.0
H293 H 0.58909 0.5455 0.11909 0.0
H294 H 0.58347 0.55395 0.07479 0.0
H295 H 0.60083 0.55106 0.0675 0.0
C296 C 0.59325 0.5623 0.93969 0.0
C297 C 0.60459 0.5607 0.91356 0.0
C298 C 0.5835 0.55195 0.97262 0.0
C299 C 0.58491 0.53981 0.98008 0.0
C300 C 0.59679 0.53853 0.95549 0.0
H301 H 0.51912 0.45867 0.13504 0.0
H302 H 0.53986 0.47673 0.08174 0.0
C303 C 0.60666 0.54896 0.92274 0.0
C304 C 0.57275 0.52773 0.01039 0.0
H305 H 0.56081 0.52147 0.12045 0.0
C306 C 0.55963 0.5131 0.99045 0.0
C307 C 0.57334 0.53075 0.05789 0.0
C308 C 0.58753 0.54613 0.0813 0.0
C309 C 0.54664 0.5015 0.01649 0.0
C310 C 0.54705 0.50457 0.06395 0.0
C311 C 0.56044 0.51915 0.08402 0.0
C312 C 0.53353 0.493 0.09345 0.0
C313 C 0.53221 0.48628 0.99256 0.0
C314 C 0.52309 0.49611 0.11782 0.0
C315 C 0.51138 0.4859 0.14856 0.0
C316 C 0.50984 0.47231 0.15558 0.0
C317 C 0.51985 0.46895 0.13002 0.0
C318 C 0.53169 0.47926 0.09946 0.0
H319 H 0.53088 0.48704 0.95478 0.0
H320 H 0.53587 0.47819 0.99896 0.0
H321 H 0.51887 0.48156 0.00583 0.0
H322 H 0.52427 0.50663 0.11371 0.0
H323 H 0.50388 0.48884 0.16773 0.0
H324 H 0.55117 0.97942 0.12131 0.0
H325 H 0.53954 0.98678 0.05672 0.0
H326 H 0.55082 0.02512 0.13977 0.0
H327 H 0.56263 0.018 0.20399 0.0
H328 H 0.51272 0.99272 0.04457 0.0
H329 H 0.58194 0.04472 0.03145 0.0
H330 H 0.57762 0.02922 0.06541 0.0
H331 H 0.57366 0.04266 0.08698 0.0
C332 C 0.55074 0.98918 0.12612 0.0
C333 C 0.55802 0.99824 0.16748 0.0
C334 C 0.54421 0.99343 0.08915 0.0
C335 C 0.54484 0.00674 0.09318 0.0
C336 C 0.55069 0.01505 0.13562 0.0
H337 H 0.51832 0.0535 0.89831 0.0
H338 H 0.52972 0.04718 0.96632 0.0
C339 C 0.55731 0.01089 0.17235 0.0
C340 C 0.54032 0.01242 0.0525 0.0
H341 H 0.55835 0.0422 0.9825 0.0
C342 C 0.52268 1.00351 0.03093 0.0
C343 C 0.55339 0.02654 0.03487 0.0
C344 C 0.57276 0.03631 0.05555 0.0
C345 C 0.5177 0.00841 0.99239 0.0
C346 C 0.5308 0.02247 0.9746 0.0
C347 C 0.54838 0.03145 0.99636 0.0
C348 C 0.52648 0.02769 0.93244 0.0
C349 C 0.4984 0.99858 0.97122 0.0
C350 C 0.52187 0.01932 0.89055 0.0
C351 C 0.51547 0.02291 0.85189 0.0
C352 C 0.51363 0.035 0.85431 0.0
C353 C 0.51963 0.04415 0.89537 0.0
C354 C 0.52602 0.04049 0.93427 0.0
H355 H 0.48914 0.99016 0.99519 0.0
H356 H 0.49354 0.00563 0.96092 0.0
H357 H 0.49768 0.99225 0.93995 0.0
H358 H 0.52254 0.00961 0.88826 0.0
H359 H 0.51114 0.01574 0.8206 0.0
H360 H 0.59526 0.03906 0.38054 0.0
H361 H 0.57697 0.03986 0.43657 0.0
H362 H 0.55485 0.99338 0.46596 0.0
H363 H 0.57293 0.9924 0.40954 0.0
H364 H 0.52864 0.99845 0.44196 0.0
H365 H 0.57932 0.04147 0.57669 0.0
H366 H 0.58333 0.04779 0.51933 0.0
H367 H 0.58479 0.03243 0.5354 0.0
C368 C 0.58688 0.02913 0.39978 0.0
C369 C 0.58553 0.01565 0.39046 0.0
C370 C 0.57644 0.02961 0.43189 0.0
C371 C 0.56459 0.01669 0.45556 0.0
C372 C 0.56391 1.00348 0.44805 0.0
H373 H 0.48191 0.99298 0.63915 0.0
H374 H 0.50092 0.99248 0.58479 0.0
C375 C 0.57433 1.00297 0.41594 0.0
C376 C 0.55171 0.01649 0.48478 0.0
H377 H 0.54905 0.03388 0.57905 0.0
C378 C 0.53309 0.00612 0.47214 0.0
C379 C 0.55755 0.0266 0.52385 0.0
C380 C 0.57733 0.03762 0.53996 0.0
C381 C 0.52016 0.00572 0.49717 0.0
C382 C 0.526 0.01581 0.53628 0.0
C383 C 0.54461 0.0262 0.5489 0.0
C384 C 0.51307 0.01557 0.56538 0.0
C385 C 0.50038 0.99473 0.481 0.0
C386 C 0.51347 0.02867 0.57223 0.0
C387 C 0.50262 0.02901 0.60333 0.0
C388 C 0.49129 0.01626 0.62846 0.0
C389 C 0.49039 1.00295 0.62013 0.0
C390 C 0.50124 1.00263 0.589 0.0
H391 H 0.4984 0.99082 0.44433 0.0
H392 H 0.49432 0.98459 0.50178 0.0
H393 H 0.49296 0.99996 0.48533 0.0
H394 H 0.52252 0.03878 0.55436 0.0
H395 H 0.5037 0.03946 0.60904 0.0
H396 H 0.00598 0.5365 0.37288 0.0
H397 H 0.00537 0.51925 0.42823 0.0
H398 H 0.05165 0.52494 0.37294 0.0
H399 H 0.05229 0.54197 0.3175 0.0
H400 H 0.02436 0.49449 0.3906 0.0
H401 H 0.04327 0.53482 0.54022 0.0
H402 H 0.02351 0.5297 0.50404 0.0
H403 H 0.04528 0.54045 0.48172 0.0
C404 C 0.01593 0.53398 0.37227 0.0
C405 C 0.02928 0.54074 0.34098 0.0
C406 C 0.01562 0.52418 0.40405 0.0
C407 C 0.02863 0.52099 0.40508 0.0
C408 C 0.04152 0.52728 0.37284 0.0
H409 H 0.06771 0.4919 0.62578 0.0
H410 H 0.06388 0.50444 0.56152 0.0
C411 C 0.04189 0.53707 0.34124 0.0
C412 C 0.02942 0.51161 0.44071 0.0
H413 H 0.03851 0.51143 0.55596 0.0
C414 C 0.02734 0.49812 0.42681 0.0
C415 C 0.03357 0.5165 0.48782 0.0
C416 C 0.0367 0.53121 0.50454 0.0
C417 C 0.02934 0.4894 0.45882 0.0
C418 C 0.03339 0.49427 0.50594 0.0
C419 C 0.03537 0.50771 0.51981 0.0
C420 C 0.03609 0.48586 0.54157 0.0
C421 C 0.02761 0.47531 0.44185 0.0
C422 C 0.02182 0.47111 0.55119 0.0
C423 C 0.02399 0.46387 0.58788 0.0
C424 C 0.04044 0.47129 0.61579 0.0
C425 C 0.05489 0.48584 0.60497 0.0
C426 C 0.0527 0.49306 0.56834 0.0
H427 H 0.02858 0.47504 0.40418 0.0
H428 H 0.03825 0.47456 0.45966 0.0
H429 H 0.01426 0.46513 0.44933 0.0
H430 H 0.0088 0.46543 0.53143 0.0
H431 H 0.01255 0.45271 0.59544 0.0
H432 H 0.60105 0.54581 0.68959 0.0
H433 H 0.58674 0.52577 0.62897 0.0
H434 H 0.53826 0.52448 0.62665 0.0
H435 H 0.55304 0.54536 0.6864 0.0
H436 H 0.55904 0.49777 0.62106 0.0
H437 H 0.54706 0.52985 0.49454 0.0
H438 H 0.56011 0.53849 0.54894 0.0
H439 H 0.53577 0.5267 0.54569 0.0
C440 C 0.58731 0.54129 0.67643 0.0
C441 C 0.57823 0.54729 0.69263 0.0
C442 C 0.57911 0.52975 0.64169 0.0
C443 C 0.56152 0.52374 0.62253 0.0
C444 C 0.55204 0.52923 0.63993 0.0
H445 H 0.50449 0.44318 0.43085 0.0
H446 H 0.5173 0.45974 0.50123 0.0
C447 C 0.56043 0.54107 0.6743 0.0
C448 C 0.55363 0.51208 0.58356 0.0
H449 H 0.53638 0.50481 0.47146 0.0
C450 C 0.55408 0.49931 0.5883 0.0
C451 C 0.54741 0.51418 0.54058 0.0
C452 C 0.5477 0.52811 0.53185 0.0
C453 C 0.54887 0.48879 0.55116 0.0
C454 C 0.54231 0.49074 0.50847 0.0
C455 C 0.54147 0.50331 0.50409 0.0
C456 C 0.53641 0.48012 0.46742 0.0
C457 C 0.55116 0.4761 0.55774 0.0
C458 C 0.54294 0.48594 0.42487 0.0
C459 C 0.53528 0.47656 0.38457 0.0
C460 C 0.52124 0.4611 0.38614 0.0
C461 C 0.51561 0.455 0.42892 0.0
C462 C 0.52294 0.46448 0.4692 0.0
H463 H 0.56163 0.47908 0.58623 0.0
H464 H 0.5382 0.46579 0.56678 0.0
H465 H 0.55502 0.4733 0.52599 0.0
H466 H 0.55337 0.49793 0.42253 0.0
H467 H 0.53973 0.48154 0.3519 0.0
H468 H 0.71046 0.82495 0.15699 0.0
H469 H 0.70963 0.84103 0.21442 0.0
H470 H 0.6654 0.8013 0.27228 0.0
H471 H 0.66626 0.78495 0.21492 0.0
H472 H 0.68243 0.84423 0.23667 0.0
H473 H 0.70411 0.82343 0.38162 0.0
H474 H 0.70536 0.81954 0.32232 0.0
H475 H 0.684 0.80909 0.34675 0.0
C476 C 0.70045 0.81955 0.18171 0.0
C477 C 0.68854 0.80361 0.18159 0.0
C478 C 0.69997 0.82881 0.21446 0.0
C479 C 0.68764 0.82238 0.24803 0.0
C480 C 0.67523 0.80649 0.24711 0.0
H481 H 0.67462 0.8767 0.44556 0.0
H482 H 0.66948 0.85951 0.38129 0.0
C483 C 0.67568 0.79717 0.21417 0.0
C484 C 0.6885 0.83244 0.28485 0.0
H485 H 0.69932 0.8421 0.39996 0.0
C486 C 0.68597 0.84371 0.27246 0.0
C487 C 0.69339 0.83186 0.3314 0.0
C488 C 0.69703 0.82043 0.34651 0.0
C489 C 0.68839 0.85451 0.30529 0.0
C490 C 0.69327 0.85391 0.35182 0.0
C491 C 0.69556 0.84252 0.36427 0.0
C492 C 0.69666 0.86524 0.38813 0.0
C493 C 0.68631 0.86677 0.28969 0.0
C494 C 0.71366 0.87422 0.41328 0.0
C495 C 0.71663 0.88402 0.45011 0.0
C496 C 0.70261 0.88498 0.46272 0.0
C497 C 0.68575 0.87632 0.43656 0.0
C498 C 0.68279 0.8665 0.39971 0.0
H499 H 0.68672 0.86778 0.25191 0.0
H500 H 0.67307 0.86398 0.29874 0.0
H501 H 0.69711 0.87796 0.30709 0.0
H502 H 0.72456 0.87343 0.40493 0.0
H503 H 0.72975 0.89048 0.46955 0.0
H504 H 0.15642 0.81521 0.46906 0.0
H505 H 0.17495 0.83364 0.41385 0.0
H506 H 0.19614 0.80792 0.38134 0.0
H507 H 0.17773 0.78943 0.43696 0.0
H508 H 0.2229 0.83897 0.40442 0.0
H509 H 0.17069 0.83119 0.27315 0.0
H510 H 0.16697 0.83386 0.33092 0.0
H511 H 0.16592 0.81722 0.31442 0.0
C512 C 0.16472 0.81327 0.44951 0.0
C513 C 0.16559 0.80084 0.4574 0.0
C514 C 0.17528 0.82381 0.41786 0.0
C515 C 0.18683 0.82209 0.3933 0.0
C516 C 0.18728 0.80942 0.3999 0.0
H517 H 0.2668 0.87959 0.20473 0.0
H518 H 0.24969 0.86074 0.26056 0.0
C519 C 0.17667 0.79883 0.4315 0.0
C520 C 0.19934 0.8341 0.3633 0.0
H521 H 0.20056 0.85346 0.27024 0.0
C522 C 0.21805 0.84207 0.37482 0.0
C523 C 0.19295 0.83814 0.32488 0.0
C524 C 0.17304 0.82957 0.30976 0.0
C525 C 0.23056 0.85427 0.3496 0.0
C526 C 0.22415 0.85844 0.31153 0.0
C527 C 0.20544 0.85033 0.29972 0.0
C528 C 0.23651 0.87101 0.28279 0.0
C529 C 0.25047 0.86285 0.36463 0.0
C530 C 0.23503 0.88319 0.27728 0.0
C531 C 0.24475 0.89395 0.2453 0.0
C532 C 0.25606 0.89268 0.21798 0.0
C533 C 0.25831 0.88096 0.22543 0.0
C534 C 0.24854 0.87017 0.2574 0.0
H535 H 0.25286 0.86089 0.40081 0.0
H536 H 0.25665 0.85891 0.34244 0.0
H537 H 0.25746 0.87525 0.36124 0.0
H538 H 0.22582 0.88404 0.29657 0.0
H539 H 0.24268 0.90282 0.2404 0.0
H540 H 0.27134 0.35656 0.45535 0.0
H541 H 0.26181 0.36504 0.39 0.0
H542 H 0.20784 0.32389 0.38661 0.0
H543 H 0.21715 0.31546 0.45306 0.0
H544 H 0.24733 0.35413 0.30253 0.0
H545 H 0.19916 0.35667 0.4022 0.0
H546 H 0.21554 0.35389 0.42861 0.0
H547 H 0.19475 0.33815 0.39931 0.0
C548 C 0.25747 0.34919 0.44041 0.0
C549 C 0.24492 0.3354 0.45979 0.0
C550 C 0.25206 0.35408 0.40302 0.0
C551 C 0.23402 0.3453 0.38422 0.0
C552 C 0.22173 0.33105 0.40145 0.0
H553 H 0.18493 0.35003 0.13335 0.0
H554 H 0.20268 0.34714 0.1926 0.0
C555 C 0.22711 0.32616 0.4391 0.0
C556 C 0.22797 0.35135 0.34783 0.0
H557 H 0.19752 0.35978 0.32187 0.0
C558 C 0.23651 0.35546 0.30683 0.0
C559 C 0.21425 0.35353 0.35401 0.0
C560 C 0.20552 0.35049 0.39859 0.0
C561 C 0.23114 0.36105 0.27107 0.0
C562 C 0.21661 0.36228 0.27612 0.0
C563 C 0.2086 0.35877 0.31785 0.0
C564 C 0.20836 0.3658 0.23743 0.0
C565 C 0.24112 0.3656 0.22828 0.0
C566 C 0.20567 0.37734 0.24261 0.0
C567 C 0.19529 0.37896 0.20867 0.0
C568 C 0.18729 0.36893 0.16933 0.0
C569 C 0.19085 0.35793 0.16328 0.0
C570 C 0.20117 0.35634 0.19703 0.0
H571 H 0.25528 0.36925 0.23599 0.0
H572 H 0.23429 0.35567 0.20306 0.0
H573 H 0.24133 0.37499 0.21219 0.0
H574 H 0.21103 0.38472 0.27368 0.0
H575 H 0.19273 0.38748 0.21446 0.0
H576 H 0.15458 0.32622 0.97089 0.0
H577 H 0.17134 0.32735 0.90737 0.0
H578 H 0.16896 0.36317 0.85157 0.0
H579 H 0.15289 0.36258 0.91653 0.0
H580 H 0.16591 0.32346 0.81812 0.0
H581 H 0.22238 0.38367 0.86379 0.0
H582 H 0.20415 0.3727 0.89977 0.0
H583 H 0.20109 0.38092 0.84983 0.0
C584 C 0.15738 0.3342 0.94478 0.0
C585 C 0.15259 0.34443 0.94898 0.0
C586 C 0.16702 0.33487 0.90848 0.0
C587 C 0.17189 0.34565 0.87535 0.0
C588 C 0.16592 0.35511 0.87757 0.0
H589 H 0.22018 0.33936 0.63429 0.0
H590 H 0.20014 0.34024 0.68395 0.0
C591 C 0.15655 0.35464 0.9144 0.0
C592 C 0.18373 0.34722 0.83977 0.0
H593 H 0.22439 0.3723 0.79718 0.0
C594 C 0.17868 0.33415 0.81345 0.0
C595 C 0.20057 0.36112 0.83428 0.0
C596 C 0.20749 0.37537 0.86371 0.0
C597 C 0.19004 0.33452 0.78235 0.0
C598 C 0.20663 0.34851 0.77588 0.0
C599 C 0.2116 0.36162 0.80177 0.0
C600 C 0.21941 0.34961 0.74414 0.0
C601 C 0.18443 0.31974 0.75839 0.0
C602 C 0.23735 0.35556 0.7605 0.0
C603 C 0.24903 0.3555 0.73173 0.0
C604 C 0.24287 0.34929 0.68631 0.0
C605 C 0.22519 0.34399 0.66941 0.0
C606 C 0.21367 0.34436 0.69786 0.0
H607 H 0.17439 0.30977 0.77708 0.0
H608 H 0.17804 0.31864 0.72345 0.0
H609 H 0.19626 0.31932 0.75509 0.0
H610 H 0.24215 0.3598 0.79599 0.0
H611 H 0.26258 0.35965 0.74564 0.0
H612 H 0.7301 0.82588 0.96717 0.0
H613 H 0.72363 0.83718 0.90389 0.0
H614 H 0.67034 0.79562 0.87629 0.0
H615 H 0.67671 0.78412 0.93964 0.0
H616 H 0.68874 0.80982 0.79561 0.0
H617 H 0.68863 0.84991 0.91604 0.0
H618 H 0.70864 0.85021 0.92372 0.0
H619 H 0.68714 0.83332 0.93469 0.0
C620 C 0.71707 0.81904 0.94733 0.0
C621 C 0.70387 0.80412 0.95872 0.0
C622 C 0.71336 0.82556 0.91134 0.0
C623 C 0.69638 0.81735 0.88608 0.0
C624 C 0.68349 0.80219 0.89566 0.0
H625 H 0.66323 0.86527 0.71409 0.0
H626 H 0.66243 0.84774 0.76861 0.0
C627 C 0.68717 0.79563 0.93179 0.0
C628 C 0.692 0.82484 0.85079 0.0
H629 H 0.68928 0.85491 0.83665 0.0
C630 C 0.68868 0.81959 0.80454 0.0
C631 C 0.69156 0.83738 0.86263 0.0
C632 C 0.694 0.84298 0.912 0.0
C633 C 0.68578 0.82704 0.76959 0.0
C634 C 0.68644 0.84015 0.78124 0.0
C635 C 0.68891 0.84494 0.82768 0.0
C636 C 0.68586 0.8497 0.74582 0.0
C637 C 0.68215 0.82085 0.72048 0.0
C638 C 0.6993 0.85664 0.71505 0.0
C639 C 0.69982 0.86664 0.68408 0.0
C640 C 0.68696 0.87003 0.68328 0.0
C641 C 0.67331 0.86289 0.71368 0.0
C642 C 0.67284 0.85288 0.74486 0.0
H643 H 0.67646 0.80854 0.71865 0.0
H644 H 0.67263 0.82252 0.70049 0.0
H645 H 0.69506 0.82691 0.70403 0.0
H646 H 0.70974 0.85465 0.71584 0.0
H647 H 0.71055 0.87193 0.66129 0.0
H648 H 0.21876 0.892 0.9501 0.0
H649 H 0.20815 0.8729 0.88635 0.0
H650 H 0.22028 0.84711 0.97276 0.0
H651 H 0.23098 0.86611 0.03628 0.0
H652 H 0.23435 0.86638 0.85614 0.0
H653 H 0.16905 0.81506 0.90193 0.0
H654 H 0.17739 0.83402 0.92334 0.0
H655 H 0.18734 0.82484 0.94669 0.0
C656 C 0.21857 0.882 0.95593 0.0
C657 C 0.22572 0.88055 0.99808 0.0
C658 C 0.21265 0.87117 0.91944 0.0
C659 C 0.21346 0.85864 0.92498 0.0
C660 C 0.21941 0.85664 0.96796 0.0
H661 H 0.18776 0.78524 0.72955 0.0
H662 H 0.19976 0.80241 0.799 0.0
C663 C 0.22552 0.86751 0.00417 0.0
C664 C 0.21014 0.84861 0.88479 0.0
H665 H 0.18137 0.81249 0.83683 0.0
C666 C 0.22274 0.8546 0.85176 0.0
C667 C 0.19524 0.8332 0.87992 0.0
C668 C 0.18137 0.82632 0.91462 0.0
C669 C 0.22075 0.84559 0.81358 0.0
C670 C 0.2055 0.83028 0.80775 0.0
C671 C 0.1931 0.82421 0.84141 0.0
C672 C 0.2012 0.82081 0.76503 0.0
C673 C 0.23511 0.85254 0.78011 0.0
C674 C 0.19854 0.82561 0.72279 0.0
C675 C 0.19186 0.81592 0.6833 0.0
C676 C 0.18749 0.80113 0.6852 0.0
C677 C 0.19116 0.79661 0.72692 0.0
C678 C 0.19786 0.80636 0.76665 0.0
H679 H 0.24841 0.86198 0.79711 0.0
H680 H 0.23668 0.84396 0.76452 0.0
H681 H 0.23123 0.85731 0.75219 0.0
H682 H 0.20067 0.83656 0.72076 0.0
H683 H 0.18916 0.81974 0.6517 0.0
H684 H 0.39952 0.2234 0.80733 0.0
H685 H 0.3926 0.20587 0.7422 0.0
H686 H 0.33956 0.19645 0.71778 0.0
H687 H 0.34648 0.21416 0.78228 0.0
H688 H 0.3653 0.17524 0.73565 0.0
H689 H 0.35663 0.20361 0.58915 0.0
H690 H 0.36731 0.21332 0.64476 0.0
H691 H 0.34308 0.20057 0.63554 0.0
C692 C 0.38651 0.21784 0.78755 0.0
C693 C 0.37358 0.22022 0.79996 0.0
C694 C 0.38254 0.20776 0.75046 0.0
C695 C 0.3656 0.1999 0.72494 0.0
C696 C 0.35283 0.20257 0.73643 0.0
H697 H 0.32789 0.11794 0.54934 0.0
H698 H 0.32866 0.13499 0.60748 0.0
C699 C 0.35681 0.21269 0.77344 0.0
C700 C 0.36099 0.18826 0.68825 0.0
H701 H 0.34926 0.17896 0.57312 0.0
C702 C 0.36174 0.17603 0.70011 0.0
C703 C 0.35635 0.18932 0.64193 0.0
C704 C 0.35593 0.20247 0.62684 0.0
C705 C 0.35831 0.16495 0.66685 0.0
C706 C 0.35365 0.16599 0.62052 0.0
C707 C 0.35262 0.1781 0.60875 0.0
C708 C 0.35171 0.15556 0.58317 0.0
C709 C 0.3604 0.15259 0.68132 0.0
C710 C 0.3639 0.1615 0.54922 0.0
C711 C 0.36341 0.15186 0.51599 0.0
C712 C 0.35067 0.136 0.5158 0.0
C713 C 0.33792 0.13007 0.54865 0.0
C714 C 0.33843 0.13979 0.58206 0.0
H715 H 0.36754 0.15518 0.71623 0.0
H716 H 0.34682 0.14174 0.68176 0.0
H717 H 0.368 0.15093 0.65667 0.0
H718 H 0.37421 0.17361 0.54927 0.0
H719 H 0.37336 0.15687 0.49104 0.0
H720 H 0.83294 0.11858 0.76798 0.0
H721 H 0.85196 0.13754 0.71435 0.0
H722 H 0.82921 0.16225 0.74366 0.0
H723 H 0.81032 0.14347 0.79791 0.0
H724 H 0.84493 0.14888 0.63632 0.0
H725 H 0.88351 0.19367 0.77788 0.0
H726 H 0.8683 0.17378 0.78823 0.0
H727 H 0.85952 0.18466 0.77355 0.0
C728 C 0.83174 0.1279 0.76247 0.0
C729 C 0.82024 0.12959 0.7876 0.0
C730 C 0.84267 0.13876 0.7319 0.0
C731 C 0.84233 0.1515 0.72595 0.0
C732 C 0.83 0.1527 0.74864 0.0
H733 H 0.90301 0.23138 0.56833 0.0
H734 H 0.88341 0.21249 0.62152 0.0
C735 C 0.81909 0.14186 0.77931 0.0
C736 C 0.85537 0.1638 0.69742 0.0
H737 H 0.89063 0.2014 0.70221 0.0
C738 C 0.85495 0.16035 0.6507 0.0
C739 C 0.86848 0.17875 0.71638 0.0
C740 C 0.87016 0.18297 0.76684 0.0
C741 C 0.86708 0.17152 0.62221 0.0
C742 C 0.88019 0.18646 0.64118 0.0
C743 C 0.88059 0.18993 0.68785 0.0
C744 C 0.89341 0.19868 0.6128 0.0
C745 C 0.86555 0.16731 0.57183 0.0
C746 C 0.90607 0.19751 0.59186 0.0
C747 C 0.91735 0.20831 0.5616 0.0
C748 C 0.91619 0.2205 0.55183 0.0
C749 C 0.90424 0.22212 0.57503 0.0
C750 C 0.89298 0.21132 0.60533 0.0
H751 H 0.85229 0.15653 0.5607 0.0
H752 H 0.86733 0.17645 0.55033 0.0
H753 H 0.87633 0.16576 0.56537 0.0
H754 H 0.90689 0.18801 0.59797 0.0
H755 H 0.92644 0.20674 0.54445 0.0
H756 H 0.90333 0.65612 0.78165 0.0
H757 H 0.89125 0.66233 0.71491 0.0
H758 H 0.89872 0.69976 0.79466 0.0
H759 H 0.91049 0.69357 0.86128 0.0
H760 H 0.86615 0.68318 0.73863 0.0
H761 H 0.92501 0.69971 0.6417 0.0
H762 H 0.91279 0.68076 0.66126 0.0
H763 H 0.92475 0.69676 0.70244 0.0
C764 C 0.90204 0.66547 0.78518 0.0
C765 C 0.90802 0.67444 0.8266 0.0
C766 C 0.89534 0.66911 0.74693 0.0
C767 C 0.89452 0.68173 0.74964 0.0
C768 C 0.89942 0.69008 0.79173 0.0
H769 H 0.8623 0.72576 0.55818 0.0
H770 H 0.87657 0.72124 0.62413 0.0
C771 C 0.90614 0.6865 0.82978 0.0
C772 C 0.88919 0.68669 0.70853 0.0
H773 H 0.90186 0.70054 0.60287 0.0
C774 C 0.87396 0.68701 0.70896 0.0
C775 C 0.89955 0.69182 0.67014 0.0
C776 C 0.91653 0.6924 0.66877 0.0
C777 C 0.86853 0.69199 0.67151 0.0
C778 C 0.87883 0.69704 0.63301 0.0
C779 C 0.89411 0.69678 0.63264 0.0
C780 C 0.87307 0.70148 0.59142 0.0
C781 C 0.85153 0.69138 0.67289 0.0
C782 C 0.86741 0.69243 0.55051 0.0
C783 C 0.85941 0.69502 0.51293 0.0
C784 C 0.85699 0.70679 0.51547 0.0
C785 C 0.86398 0.71662 0.55521 0.0
C786 C 0.87196 0.71396 0.59302 0.0
H787 H 0.84329 0.68441 0.70077 0.0
H788 H 0.85525 0.70307 0.67904 0.0
H789 H 0.84308 0.68662 0.63961 0.0
H790 H 0.86831 0.68283 0.54845 0.0
H791 H 0.8543 0.68733 0.48262 0.0
H792 H 0.82061 0.66142 0.30753 0.0
H793 H 0.8397 0.66107 0.2529 0.0
H794 H 0.8593 0.70666 0.21862 0.0
H795 H 0.84036 0.70718 0.27324 0.0
H796 H 0.84357 0.66689 0.1558 0.0
H797 H 0.90515 0.70927 0.26917 0.0
H798 H 0.88275 0.69885 0.28866 0.0
H799 H 0.89017 0.71469 0.25352 0.0
C800 C 0.82869 0.67127 0.28769 0.0
C801 C 0.82909 0.68439 0.29507 0.0
C802 C 0.83963 0.67105 0.25661 0.0
C803 C 0.85118 0.68396 0.23259 0.0
C804 C 0.85071 0.69669 0.23756 0.0
H805 H 0.93472 0.7109 0.05158 0.0
H806 H 0.91456 0.70957 0.10581 0.0
C807 C 0.83977 0.69692 0.26853 0.0
C808 C 0.86441 0.68442 0.20427 0.0
H809 H 0.90972 0.70239 0.19704 0.0
C810 C 0.85803 0.67458 0.16482 0.0
C811 C 0.88325 0.69445 0.21637 0.0
C812 C 0.89081 0.70484 0.25943 0.0
C813 C 0.87005 0.67481 0.13633 0.0
C814 C 0.88892 0.68491 0.14832 0.0
C815 C 0.89527 0.69464 0.18802 0.0
C816 C 0.9023 0.68596 0.11906 0.0
C817 C 0.86245 0.66458 0.09292 0.0
C818 C 0.90263 0.6733 0.11003 0.0
C819 C 0.91416 0.67402 0.07899 0.0
C820 C 0.92564 0.68745 0.05671 0.0
C821 C 0.92604 0.70037 0.06804 0.0
C822 C 0.91448 0.69962 0.09896 0.0
H823 H 0.84817 0.66035 0.08313 0.0
H824 H 0.87059 0.67062 0.06385 0.0
H825 H 0.86283 0.65459 0.09845 0.0
H826 H 0.89366 0.66275 0.12609 0.0
H827 H 0.91358 0.66388 0.0712 0.0
H828 H 0.39225 0.15728 0.30241 0.0
H829 H 0.38663 0.16937 0.23994 0.0
H830 H 0.3323 0.12904 0.2124 0.0
H831 H 0.33783 0.11676 0.27471 0.0
H832 H 0.34993 0.14227 0.13229 0.0
H833 H 0.35467 0.18481 0.25249 0.0
H834 H 0.37403 0.18416 0.25892 0.0
H835 H 0.35228 0.1679 0.27154 0.0
C836 C 0.37917 0.15088 0.28273 0.0
C837 C 0.36545 0.13608 0.29378 0.0
C838 C 0.37594 0.15786 0.24727 0.0
C839 C 0.35891 0.15023 0.22229 0.0
C840 C 0.34548 0.13518 0.23158 0.0
H841 H 0.3321 0.20242 0.04968 0.0
H842 H 0.32923 0.18423 0.10484 0.0
C843 C 0.34869 0.12817 0.26711 0.0
C844 C 0.35513 0.15814 0.18721 0.0
H845 H 0.35551 0.18975 0.1728 0.0
C846 C 0.35096 0.15256 0.14115 0.0
C847 C 0.35605 0.17137 0.19897 0.0
C848 C 0.35932 0.17735 0.24822 0.0
C849 C 0.34864 0.16032 0.10621 0.0
C850 C 0.35079 0.17411 0.11766 0.0
C851 C 0.35401 0.17925 0.16399 0.0
C852 C 0.35132 0.18405 0.08201 0.0
C853 C 0.34409 0.15376 0.05731 0.0
C854 C 0.36469 0.19 0.05107 0.0
C855 C 0.36639 0.20037 0.01982 0.0
C856 C 0.35481 0.20512 0.01887 0.0
C857 C 0.34119 0.19896 0.04939 0.0
C858 C 0.33954 0.18859 0.08093 0.0
H859 H 0.33721 0.14126 0.05601 0.0
H860 H 0.33526 0.15625 0.03761 0.0
H861 H 0.35677 0.15887 0.04019 0.0
H862 H 0.37419 0.18696 0.05194 0.0
H863 H 0.37705 0.20485 0.9969 0.0
H864 H 0.88957 0.22859 0.283 0.0
H865 H 0.87685 0.21027 0.2162 0.0
H866 H 0.88737 0.18155 0.29169 0.0
H867 H 0.89983 0.19957 0.35826 0.0
H868 H 0.89721 0.20223 0.17119 0.0
H869 H 0.83581 0.15132 0.23291 0.0
H870 H 0.84691 0.17005 0.2606 0.0
H871 H 0.85587 0.15908 0.27128 0.0
C872 C 0.8887 0.21817 0.28572 0.0
C873 C 0.89573 0.21554 0.32587 0.0
C874 C 0.88155 0.20777 0.24748 0.0
C875 C 0.88109 0.19452 0.24912 0.0
C876 C 0.88733 0.19157 0.28987 0.0
H877 H 0.8516 0.1209 0.05103 0.0
H878 H 0.86545 0.13927 0.11783 0.0
C879 C 0.89453 0.20194 0.32786 0.0
C880 C 0.8756 0.18439 0.20732 0.0
H881 H 0.84598 0.14769 0.16435 0.0
C882 C 0.88592 0.19033 0.16951 0.0
C883 C 0.86104 0.16883 0.20553 0.0
C884 C 0.84915 0.16194 0.24457 0.0
C885 C 0.88218 0.18108 0.13006 0.0
C886 C 0.86757 0.16554 0.12818 0.0
C887 C 0.8573 0.15958 0.16607 0.0
C888 C 0.86179 0.15549 0.08601 0.0
C889 C 0.89407 0.18797 0.09102 0.0
C890 C 0.85555 0.1587 0.0458 0.0
C891 C 0.8477 0.14829 0.00783 0.0
C892 C 0.84585 0.13441 0.00932 0.0
C893 C 0.85299 0.13155 0.04872 0.0
C894 C 0.86077 0.14198 0.08696 0.0
H895 H 0.90754 0.19842 0.10293 0.0
H896 H 0.89603 0.17976 0.07436 0.0
H897 H 0.88754 0.19114 0.06478 0.0
H898 H 0.85592 0.16892 0.04452 0.0
H899 H 0.84233 0.15084 0.97798 0.0
H900 H 0.09461 0.62474 0.26495 0.0
H901 H 0.11522 0.65058 0.30078 0.0
H902 H 0.07429 0.64214 0.38834 0.0
H903 H 0.05364 0.61666 0.35241 0.0
H904 H 0.08994 0.66939 0.35059 0.0
H905 H 0.14264 0.66285 0.42804 0.0
H906 H 0.13754 0.65893 0.36692 0.0
H907 H 0.12064 0.64684 0.40472 0.0
C908 C 0.09002 0.62841 0.29181 0.0
C909 C 0.07245 0.61858 0.30578 0.0
C910 C 0.10186 0.64315 0.31248 0.0
C911 C 0.0964 0.64825 0.34772 0.0
C912 C 0.07884 0.63848 0.36129 0.0
H913 H 0.14728 0.71559 0.56846 0.0
H914 H 0.13583 0.69384 0.51452 0.0
C915 C 0.06703 0.62387 0.34063 0.0
C916 C 0.1086 0.66376 0.37055 0.0
H917 H 0.14734 0.68652 0.44173 0.0
C918 C 0.1026 0.67321 0.37012 0.0
C919 C 0.12503 0.66867 0.39635 0.0
C920 C 0.13185 0.65879 0.39952 0.0
C921 C 0.11217 0.68716 0.39598 0.0
C922 C 0.12856 0.69207 0.42207 0.0
C923 C 0.13488 0.68283 0.4214 0.0
C924 C 0.13828 0.70597 0.45365 0.0
C925 C 0.10406 0.69609 0.39703 0.0
C926 C 0.1443 0.72025 0.43737 0.0
C927 C 0.15069 0.73271 0.46825 0.0
C928 C 0.15146 0.73117 0.51596 0.0
C929 C 0.14682 0.71718 0.53197 0.0
C930 C 0.14026 0.7047 0.50111 0.0
H931 H 0.08955 0.68909 0.3838 0.0
H932 H 0.10525 0.70055 0.43252 0.0
H933 H 0.11141 0.70587 0.37506 0.0
H934 H 0.14337 0.72161 0.40084 0.0
H935 H 0.15431 0.74336 0.45477 0.0
H936 H 0.44053 0.44503 0.3146 0.0
H937 H 0.41652 0.43879 0.36367 0.0
H938 H 0.39992 0.39238 0.36339 0.0
H939 H 0.42415 0.39862 0.31563 0.0
H940 H 0.3796 0.41854 0.36145 0.0
H941 H 0.41321 0.40578 0.49899 0.0
H942 H 0.42381 0.41474 0.44773 0.0
H943 H 0.40774 0.39441 0.44699 0.0
C944 C 0.43149 0.43342 0.32411 0.0
C945 C 0.43437 0.42235 0.31179 0.0
C946 C 0.41784 0.42989 0.35236 0.0
C947 C 0.40683 0.41524 0.36837 0.0
C948 C 0.40865 0.40388 0.35262 0.0
H949 H 0.30819 0.36864 0.49409 0.0
H950 H 0.33214 0.38222 0.4432 0.0
C951 C 0.4224 0.40742 0.32498 0.0
C952 C 0.39418 0.41197 0.40359 0.0
H953 H 0.38291 0.39743 0.50888 0.0
C954 C 0.38041 0.41406 0.3939 0.0
C955 C 0.39559 0.40663 0.44662 0.0
C956 C 0.41101 0.40542 0.46097 0.0
C957 C 0.3674 0.41012 0.42504 0.0
C958 C 0.36795 0.40357 0.46639 0.0
C959 C 0.38231 0.40228 0.47705 0.0
C960 C 0.35309 0.39679 0.49729 0.0
C961 C 0.35323 0.41302 0.4132 0.0
C962 C 0.35684 0.40026 0.54504 0.0
C963 C 0.34313 0.39223 0.57462 0.0
C964 C 0.32545 0.38061 0.55688 0.0
C965 C 0.32164 0.37758 0.50898 0.0
C966 C 0.33532 0.38547 0.47962 0.0
H967 H 0.3585 0.42292 0.39152 0.0
H968 H 0.34145 0.40296 0.39315 0.0
H969 H 0.34853 0.41517 0.44452 0.0
H970 H 0.37048 0.40888 0.55953 0.0
H971 H 0.34649 0.39482 0.61133 0.0
H972 H 0.65812 0.90486 0.47401 0.0
H973 H 0.64161 0.91235 0.42605 0.0
H974 H 0.61413 0.91135 0.54218 0.0
H975 H 0.63062 0.90389 0.59063 0.0
H976 H 0.59205 0.89835 0.44766 0.0
H977 H 0.65517 0.95704 0.45381 0.0
H978 H 0.65699 0.94178 0.43834 0.0
H979 H 0.65179 0.94349 0.49526 0.0
C980 C 0.64833 0.90595 0.48925 0.0
C981 C 0.64581 0.90389 0.5363 0.0
C982 C 0.63893 0.91026 0.46176 0.0
C983 C 0.62679 0.91252 0.48071 0.0
C984 C 0.62346 0.90965 0.52696 0.0
H985 H 0.59378 0.969 0.37943 0.0
H986 H 0.60161 0.95485 0.4277 0.0
C987 C 0.63292 0.90541 0.55458 0.0
C988 C 0.61883 0.91917 0.45338 0.0
H989 H 0.62993 0.95224 0.40755 0.0
C990 C 0.60028 0.91012 0.43881 0.0
C991 C 0.6296 0.93457 0.44243 0.0
C992 C 0.64948 0.94488 0.45842 0.0
C993 C 0.59229 0.91607 0.41283 0.0
C994 C 0.60315 0.93142 0.40124 0.0
C995 C 0.62163 0.94047 0.41641 0.0
C996 C 0.59581 0.93846 0.37333 0.0
C997 C 0.57227 0.906 0.39848 0.0
C998 C 0.58958 0.93376 0.32686 0.0
C999 C 0.58511 0.94186 0.29903 0.0
C1000 C 0.58685 0.95484 0.31719 0.0
C1001 C 0.59227 0.95906 0.36428 0.0
C1002 C 0.59679 0.951 0.39196 0.0
H1003 H 0.56518 0.89562 0.41827 0.0
H1004 H 0.56607 0.91226 0.40314 0.0
H1005 H 0.57013 0.90242 0.36148 0.0
H1006 H 0.58898 0.92426 0.31159 0.0
H1007 H 0.58106 0.93834 0.26289 0.0
H1008 H 0.65916 0.03638 0.24452 0.0
H1009 H 0.68462 0.04878 0.19638 0.0
H1010 H 0.65312 0.01193 0.09284 0.0
H1011 H 0.6282 0.99925 0.14113 0.0
H1012 H 0.68553 0.01901 0.10267 0.0
H1013 H 0.6899 0.07222 0.08598 0.0
H1014 H 0.69299 0.06875 0.14459 0.0
H1015 H 0.67158 0.05589 0.11169 0.0
C1016 C 0.65777 0.0309 0.21165 0.0
C1017 C 0.64165 0.01683 0.19674 0.0
C1018 C 0.67224 0.03807 0.18392 0.0
C1019 C 0.67065 0.03147 0.14044 0.0
C1020 C 0.65469 0.0173 0.12609 0.0
H1021 H 0.7438 0.07941 0.9254 0.0
H1022 H 0.71721 0.06621 0.96983 0.0
C1023 C 0.64042 0.01004 0.15394 0.0
C1024 C 0.68558 0.03897 0.1098 0.0
H1025 H 0.71347 0.07178 0.05652 0.0
C1026 C 0.69156 0.03053 0.09245 0.0
C1027 C 0.69319 0.05388 0.09553 0.0
C1028 C 0.68647 0.06316 0.11 0.0
C1029 C 0.70505 0.03661 0.06186 0.0
C1030 C 0.71337 0.0518 0.04962 0.0
C1031 C 0.7072 0.06018 0.06623 0.0
C1032 C 0.72907 0.0594 0.02154 0.0
C1033 C 0.70999 0.02654 0.04239 0.0
C1034 C 0.74454 0.06003 0.03599 0.0
C1035 C 0.7595 0.06728 0.01046 0.0
C1036 C 0.75956 0.07441 0.97029 0.0
C1037 C 0.74413 0.07394 0.95597 0.0
C1038 C 0.72898 0.06646 0.98141 0.0
H1039 H 0.6985 0.01435 0.04175 0.0
H1040 H 0.71411 0.02937 0.00694 0.0
H1041 H 0.72141 0.02806 0.06452 0.0
H1042 H 0.74518 0.0551 0.06755 0.0
H1043 H 0.77123 0.06759 0.02303 0.0
H1044 H 0.93409 0.63877 0.04301 0.0
H1045 H 0.94075 0.62322 0.08807 0.0
H1046 H 0.94108 0.6018 0.96312 0.0
H1047 H 0.9344 0.61724 0.91773 0.0
H1048 H 0.92311 0.58889 0.08518 0.0
H1049 H 0.99356 0.6249 0.03414 0.0
H1050 H 0.97868 0.63098 0.03009 0.0
H1051 H 0.97557 0.61706 0.98873 0.0
C1052 C 0.9352 0.63053 0.02508 0.0
C1053 C 0.93386 0.62934 0.97673 0.0
C1054 C 0.93899 0.62165 0.05091 0.0
C1055 C 0.9416 0.6115 0.02887 0.0
C1056 C 0.93924 0.60965 0.98073 0.0
H1057 H 0.9946 0.56975 0.13229 0.0
H1058 H 0.97799 0.57692 0.08339 0.0
C1059 C 0.93537 0.61847 0.95487 0.0
C1060 C 0.94837 0.60391 0.05594 0.0
H1061 H 0.98632 0.60488 0.08094 0.0
C1062 C 0.9369 0.59231 0.08424 0.0
C1063 C 0.96636 0.60841 0.05452 0.0
C1064 C 0.97937 0.62108 0.02554 0.0
C1065 C 0.94293 0.58499 0.11098 0.0
C1066 C 0.96105 0.58968 0.11016 0.0
C1067 C 0.97242 0.60121 0.08147 0.0
C1068 C 0.96887 0.58329 0.13982 0.0
C1069 C 0.92975 0.57216 0.13919 0.0
C1070 C 0.96903 0.5842 0.18788 0.0
C1071 C 0.97838 0.57995 0.21594 0.0
C1072 C 0.988 0.57494 0.19652 0.0
C1073 C 0.98733 0.57356 0.14837 0.0
C1074 C 0.97786 0.57768 0.12035 0.0
H1075 H 0.91555 0.56678 0.12485 0.0
H1076 H 0.93238 0.5633 0.14098 0.0
H1077 H 0.93115 0.57672 0.17467 0.0
H1078 H 0.96262 0.58884 0.20387 0.0
H1079 H 0.97875 0.58128 0.25289 0.0
H1080 H 0.42629 0.28513 0.97737 0.0
H1081 H 0.44619 0.30973 0.02123 0.0
H1082 H 0.40024 0.3109 0.03972 0.0
H1083 H 0.38034 0.2863 0.99735 0.0
H1084 H 0.45424 0.33852 0.01303 0.0
H1085 H 0.42007 0.31429 0.17101 0.0
H1086 H 0.41626 0.30256 0.12087 0.0
H1087 H 0.40445 0.31139 0.12397 0.0
C1088 C 0.42049 0.29072 0.99046 0.0
C1089 C 0.4017 0.28366 0.98449 0.0
C1090 C 0.43186 0.30476 0.01554 0.0
C1091 C 0.42463 0.31196 0.03481 0.0
C1092 C 0.40605 0.30534 0.0264 0.0
H1093 H 0.47314 0.40324 0.14504 0.0
H1094 H 0.4621 0.38074 0.0948 0.0
C1095 C 0.3947 0.2913 1.00194 0.0
C1096 C 0.43621 0.3261 0.06507 0.0
H1097 H 0.43886 0.34138 0.17075 0.0
C1098 C 0.45103 0.33914 0.04772 0.0
C1099 C 0.43231 0.32682 0.11074 0.0
C1100 C 0.41753 0.31297 0.13294 0.0
C1101 C 0.46156 0.35304 0.07415 0.0
C1102 C 0.45685 0.354 0.11869 0.0
C1103 C 0.44245 0.34077 0.13653 0.0
C1104 C 0.46604 0.36856 0.14715 0.0
C1105 C 0.47767 0.36648 0.05412 0.0
C1106 C 0.47195 0.36932 0.1935 0.0
C1107 C 0.47786 0.38204 0.22255 0.0
C1108 C 0.47819 0.39437 0.20579 0.0
C1109 C 0.47323 0.39399 0.15887 0.0
C1110 C 0.46702 0.38114 0.12997 0.0
H1111 H 0.48317 0.36276 0.02868 0.0
H1112 H 0.47342 0.37308 0.03591 0.0
H1113 H 0.48864 0.37409 0.08126 0.0
H1114 H 0.47135 0.3598 0.20768 0.0
H1115 H 0.48163 0.382 0.25851 0.0
H1116 H 0.94052 0.28543 0.53731 0.0
H1117 H 0.94729 0.30768 0.58141 0.0
H1118 H 0.91314 0.31192 0.48229 0.0
H1119 H 0.9074 0.29018 0.43615 0.0
H1120 H 0.94142 0.33784 0.49915 0.0
H1121 H 0.9224 0.31519 0.66922 0.0
H1122 H 0.9385 0.31197 0.65161 0.0
H1123 H 0.91676 0.3029 0.61898 0.0
C1124 C 0.93414 0.2909 0.52537 0.0
C1125 C 0.92333 0.28599 0.4834 0.0
C1126 C 0.93791 0.30361 0.55091 0.0
C1127 C 0.93043 0.3114 0.53605 0.0
C1128 C 0.91907 0.30614 0.49479 0.0
H1129 H 0.95865 0.38696 0.72826 0.0
H1130 H 0.94071 0.36302 0.68096 0.0
C1131 C 0.9157 0.29366 0.4685 0.0
C1132 C 0.93584 0.32578 0.56129 0.0
H1133 H 0.94511 0.34248 0.66916 0.0
C1134 C 0.94186 0.33874 0.5363 0.0
C1135 C 0.93606 0.32708 0.60971 0.0
C1136 C 0.92786 0.31346 0.63872 0.0
C1137 C 0.94891 0.35299 0.55836 0.0
C1138 C 0.95094 0.35459 0.60706 0.0
C1139 C 0.94401 0.34148 0.63191 0.0
C1140 C 0.96094 0.36973 0.63296 0.0
C1141 C 0.95391 0.36608 0.52887 0.0
C1142 C 0.97825 0.38164 0.6218 0.0
C1143 C 0.98822 0.39548 0.64789 0.0
C1144 C 0.98145 0.39756 0.68689 0.0
C1145 C 0.96418 0.3857 0.69825 0.0
C1146 C 0.95395 0.37198 0.6713 0.0
H1147 H 0.94504 0.362 0.49615 0.0
H1148 H 0.95282 0.37463 0.54674 0.0
H1149 H 0.968 0.37166 0.5198 0.0
H1150 H 0.98438 0.38012 0.59377 0.0
H1151 H 1.00164 0.40429 0.63879 0.0
H1152 H 0.64035 0.61747 0.6657 0.0
H1153 H 0.6649 0.63162 0.61688 0.0
H1154 H 0.7013 0.63111 0.71854 0.0
H1155 H 0.67636 0.61623 0.7673 0.0
H1156 H 0.69553 0.65832 0.62649 0.0
H1157 H 0.70963 0.61492 0.60638 0.0
H1158 H 0.69018 0.61114 0.63304 0.0
H1159 H 0.71203 0.62132 0.66511 0.0
C1160 C 0.65357 0.62037 0.678 0.0
C1161 C 0.65635 0.61561 0.72041 0.0
C1162 C 0.66762 0.62849 0.64988 0.0
C1163 C 0.68488 0.63218 0.66351 0.0
C1164 C 0.68796 0.628 0.70667 0.0
H1165 H 0.78046 0.69953 0.53469 0.0
H1166 H 0.75548 0.68568 0.58252 0.0
C1167 C 0.67376 0.61965 0.73473 0.0
C1168 C 0.69945 0.64045 0.63214 0.0
H1169 H 0.72983 0.63867 0.57481 0.0
C1170 C 0.70299 0.65399 0.61513 0.0
C1171 C 0.70892 0.63465 0.61648 0.0
C1172 C 0.7049 0.61963 0.63079 0.0
C1173 C 0.71579 0.66192 0.58325 0.0
C1174 C 0.72584 0.65648 0.56919 0.0
C1175 C 0.72219 0.64288 0.5858 0.0
C1176 C 0.74061 0.665 0.53855 0.0
C1177 C 0.71807 0.67586 0.56425 0.0
C1178 C 0.74082 0.6579 0.49819 0.0
C1179 C 0.75536 0.66576 0.47089 0.0
C1180 C 0.76989 0.68087 0.4835 0.0
C1181 C 0.76942 0.68798 0.52352 0.0
C1182 C 0.75506 0.68009 0.55093 0.0
H1183 H 0.70558 0.67542 0.56577 0.0
H1184 H 0.72913 0.6861 0.58526 0.0
H1185 H 0.72151 0.67713 0.52804 0.0
H1186 H 0.72984 0.64623 0.4881 0.0
H1187 H 0.75535 0.65994 0.44045 0.0
H1188 H 0.4176 0.12202 0.46068 0.0
H1189 H 0.43902 0.11821 0.50183 0.0
H1190 H 0.39455 0.07434 0.53967 0.0
H1191 H 0.37314 0.0783 0.50011 0.0
H1192 H 0.4173 0.09037 0.61216 0.0
H1193 H 0.45657 0.09259 0.47098 0.0
H1194 H 0.45646 0.10911 0.47759 0.0
H1195 H 0.4357 0.09098 0.46048 0.0
C1196 C 0.41242 0.11147 0.4772 0.0
C1197 C 0.39367 0.10047 0.4772 0.0
C1198 C 0.42469 0.10927 0.50056 0.0
C1199 C 0.41844 0.09591 0.52353 0.0
C1200 C 0.39973 0.08475 0.5223 0.0
H1201 H 0.46984 0.05523 0.6334 0.0
H1202 H 0.45674 0.06541 0.58466 0.0
C1203 C 0.38749 0.08702 0.49959 0.0
C1204 C 0.43112 0.09381 0.55143 0.0
H1205 H 0.46706 0.09156 0.54647 0.0
C1206 C 0.42821 0.09066 0.59777 0.0
C1207 C 0.44531 0.09413 0.53263 0.0
C1208 C 0.44864 0.09675 0.4826 0.0
C1209 C 0.43873 0.08747 0.62555 0.0
C1210 C 0.45309 0.08797 0.607 0.0
C1211 C 0.45623 0.09139 0.56085 0.0
C1212 C 0.4638 0.08358 0.63383 0.0
C1213 C 0.43375 0.08288 0.67385 0.0
C1214 C 0.47297 0.09087 0.67686 0.0
C1215 C 0.48029 0.08492 0.7052 0.0
C1216 C 0.47887 0.07177 0.69059 0.0
C1217 C 0.47112 0.06534 0.64585 0.0
C1218 C 0.4636 0.07115 0.61785 0.0
H1219 H 0.41984 0.07941 0.67863 0.0
H1220 H 0.43465 0.07331 0.68256 0.0
H1221 H 0.44325 0.09268 0.69852 0.0
H1222 H 0.47378 0.10076 0.68937 0.0
H1223 H 0.48633 0.09024 0.73928 0.0
H1224 H 0.29265 0.94922 0.96616 0.0
H1225 H 0.31794 0.9625 0.91899 0.0
H1226 H 0.35189 0.96018 0.02418 0.0
H1227 H 0.32623 0.94619 0.07121 0.0
H1228 H 0.34919 0.98862 0.93089 0.0
H1229 H 0.36066 0.94357 0.914 0.0
H1230 H 0.34111 0.94038 0.93849 0.0
H1231 H 0.36246 0.94968 0.97271 0.0
C1232 C 0.30549 0.95153 0.97951 0.0
C1233 C 0.30739 0.94657 0.02246 0.0
C1234 C 0.31995 0.95913 0.95235 0.0
C1235 C 0.33674 0.96209 0.96755 0.0
C1236 C 0.33892 0.95763 0.01112 0.0
H1237 H 0.43723 0.02886 0.85964 0.0
H1238 H 0.41028 0.0147 0.90069 0.0
C1239 C 0.32431 0.94978 0.03818 0.0
C1240 C 0.35188 0.97009 0.93774 0.0
H1241 H 0.38293 0.96763 0.88657 0.0
C1242 C 0.35649 0.98397 0.92103 0.0
C1243 C 0.36115 0.96387 0.92396 0.0
C1244 C 0.35598 0.94848 0.9378 0.0
C1245 C 0.3703 0.99194 0.89168 0.0
C1246 C 0.38024 0.98615 0.87998 0.0
C1247 C 0.3754 0.97212 0.89585 0.0
C1248 C 0.39626 0.99484 0.85332 0.0
C1249 C 0.37389 0.00637 0.87302 0.0
C1250 C 0.3976 0.98826 0.81342 0.0
C1251 C 0.41325 0.99629 0.79001 0.0
C1252 C 0.4278 0.01103 0.80619 0.0
C1253 C 0.42624 0.01761 0.8458 0.0
C1254 C 0.41075 0.00955 0.8693 0.0
H1255 H 0.36157 0.00631 0.87162 0.0
H1256 H 0.38451 0.01622 0.89611 0.0
H1257 H 0.37856 0.00803 0.83801 0.0
H1258 H 0.3866 0.97687 0.80066 0.0
H1259 H 0.41406 0.99088 0.75977 0.0
H1260 H 0.0437 0.41884 0.85527 0.0
H1261 H 0.06371 0.41333 0.89434 0.0
H1262 H 0.10496 0.44172 0.80432 0.0
H1263 H 0.08505 0.44763 0.76537 0.0
H1264 H 0.07845 0.39966 0.86113 0.0
H1265 H 0.13267 0.45831 0.93059 0.0
H1266 H 0.11087 0.45309 0.90628 0.0
H1267 H 0.12761 0.4562 0.86931 0.0
C1268 C 0.05702 0.42396 0.84363 0.0
C1269 C 0.06277 0.43374 0.8072 0.0
C1270 C 0.06847 0.42078 0.86609 0.0
C1271 C 0.08594 0.42727 0.85275 0.0
C1272 C 0.09168 0.43684 0.81588 0.0
H1273 H 0.14392 0.38928 0.96036 0.0
H1274 H 0.13173 0.39939 0.90746 0.0
C1275 C 0.08023 0.44011 0.79343 0.0
C1276 C 0.0978 0.42365 0.87736 0.0
H1277 H 0.13718 0.4392 0.94614 0.0
C1278 C 0.09136 0.40832 0.87945 0.0
C1279 C 0.11456 0.43495 0.90164 0.0
C1280 C 0.12183 0.45156 0.90232 0.0
C1281 C 0.10096 0.40392 0.90587 0.0
C1282 C 0.11778 0.41521 0.92997 0.0
C1283 C 0.1244 0.43058 0.92727 0.0
C1284 C 0.12792 0.41113 0.9608 0.0
C1285 C 0.09255 0.38716 0.90934 0.0
C1286 C 0.13093 0.41519 0.00808 0.0
C1287 C 0.13819 0.40964 0.03836 0.0
C1288 C 0.1425 0.39988 0.0219 0.0
C1289 C 0.14057 0.39665 0.97421 0.0
C1290 C 0.13348 0.40233 0.94392 0.0
H1291 H 0.07785 0.3801 0.89809 0.0
H1292 H 0.09917 0.38374 0.88687 0.0
H1293 H 0.09439 0.3846 0.94513 0.0
H1294 H 0.12685 0.42205 0.02187 0.0
H1295 H 0.13952 0.41236 0.07487 0.0
H1296 H 0.59555 0.62936 0.77577 0.0
H1297 H 0.60253 0.65171 0.82067 0.0
H1298 H 0.60486 0.63177 0.94581 0.0
H1299 H 0.59851 0.60963 0.90108 0.0
H1300 H 0.58836 0.65793 0.88921 0.0
H1301 H 0.65498 0.6707 0.95298 0.0
H1302 H 0.64045 0.65625 0.90805 0.0
H1303 H 0.63634 0.65234 0.96739 0.0
C1304 C 0.59724 0.62961 0.81291 0.0
C1305 C 0.59671 0.6178 0.83483 0.0
C1306 C 0.60127 0.64242 0.83855 0.0
C1307 C 0.60474 0.64363 0.88656 0.0
C1308 C 0.60279 0.63131 0.90872 0.0
H1309 H 0.6408 0.71469 0.09854 0.0
H1310 H 0.62509 0.69036 0.05395 0.0
C1311 C 0.599 0.6186 0.88311 0.0
C1312 C 0.61148 0.65811 0.91306 0.0
H1313 H 0.64691 0.68602 0.98552 0.0
C1314 C 0.60117 0.66408 0.9102 0.0
C1315 C 0.62835 0.66627 0.94001 0.0
C1316 C 0.64076 0.66117 0.94199 0.0
C1317 C 0.60713 0.67782 0.93428 0.0
C1318 C 0.62375 0.68571 0.96188 0.0
C1319 C 0.63407 0.67981 0.96462 0.0
C1320 C 0.63095 0.70028 0.98793 0.0
C1321 C 0.59564 0.68379 0.93059 0.0
C1322 C 0.63921 0.71391 0.96544 0.0
C1323 C 0.64834 0.72789 0.99085 0.0
C1324 C 0.64933 0.72845 0.0392 0.0
C1325 C 0.64028 0.7147 0.06139 0.0
C1326 C 0.63129 0.70076 0.03599 0.0
H1327 H 0.58222 0.67556 0.91157 0.0
H1328 H 0.59361 0.68648 0.96543 0.0
H1329 H 0.60274 0.69451 0.9124 0.0
H1330 H 0.63923 0.71376 0.92835 0.0
H1331 H 0.65519 0.73826 0.97268 0.0
H1332 H 0.71064 0.94629 0.69449 0.0
H1333 H 0.73115 0.97212 0.72833 0.0
H1334 H 0.7718 0.9802 0.64037 0.0
H1335 H 0.75135 0.95407 0.60657 0.0
H1336 H 0.78585 0.99086 0.73012 0.0
H1337 H 0.74416 0.01091 0.67099 0.0
H1338 H 0.73151 0.99393 0.70152 0.0
H1339 H 0.74001 0.99344 0.64805 0.0
C1340 C 0.72389 0.95353 0.68198 0.0
C1341 C 0.72927 0.94808 0.64748 0.0
C1342 C 0.73559 0.96837 0.70128 0.0
C1343 C 0.75289 0.97822 0.68629 0.0
C1344 C 0.75845 0.97283 0.65222 0.0
H1345 H 0.81019 0.07331 0.78581 0.0
H1346 H 0.7988 0.05101 0.73412 0.0
C1347 C 0.74673 0.9579 0.63288 0.0
C1348 C 0.76516 0.99397 0.70736 0.0
H1349 H 0.76661 0.0256 0.73397 0.0
C1350 C 0.78179 0.99856 0.73043 0.0
C1351 C 0.76007 0.00417 0.70702 0.0
C1352 C 0.74305 1.00043 0.68013 0.0
C1353 C 0.79299 0.01274 0.75516 0.0
C1354 C 0.78721 0.02245 0.75768 0.0
C1355 C 0.77102 0.01815 0.7326 0.0
C1356 C 0.79704 0.03667 0.78799 0.0
C1357 C 0.81084 0.01712 0.77839 0.0
C1358 C 0.80032 0.03623 0.83545 0.0
C1359 C 0.80706 0.04904 0.86504 0.0
C1360 C 0.81035 0.06249 0.84789 0.0
C1361 C 0.80781 0.06313 0.80016 0.0
C1362 C 0.80125 0.05036 0.77055 0.0
H1363 H 0.81611 0.0115 0.76021 0.0
H1364 H 0.82114 0.02961 0.77989 0.0
H1365 H 0.80891 0.01331 0.814 0.0
H1366 H 0.79678 0.02574 0.85007 0.0
H1367 H 0.80869 0.04809 0.90163 0.0
H1368 H 0.09659 0.76457 0.62034 0.0
H1369 H 0.07302 0.75552 0.67355 0.0
H1370 H 0.0771 0.71854 0.7053 0.0
H1371 H 0.10072 0.72756 0.65294 0.0
H1372 H 0.03938 0.72758 0.6822 0.0
H1373 H 0.08879 0.74132 0.83073 0.0
H1374 H 0.09558 0.74808 0.77441 0.0
H1375 H 0.08788 0.72902 0.78696 0.0
C1376 C 0.09218 0.75432 0.6379 0.0
C1377 C 0.10066 0.74688 0.63289 0.0
C1378 C 0.07881 0.74923 0.66849 0.0
C1379 C 0.07376 0.73665 0.69434 0.0
C1380 C 0.0812 0.72854 0.68666 0.0
H1381 H 0.99035 0.67741 0.85864 0.0
H1382 H 0.01566 0.69107 0.81101 0.0
C1383 C 0.09459 0.73364 0.65642 0.0
C1384 C 0.06119 0.73219 0.73053 0.0
H1385 H 0.05748 0.72571 0.84488 0.0
C1386 C 0.04339 0.72738 0.71786 0.0
C1387 C 0.06655 0.73213 0.77719 0.0
C1388 C 0.08579 0.73806 0.7933 0.0
C1389 C 0.03055 0.72173 0.7503 0.0
C1390 C 0.0357 0.72092 0.79629 0.0
C1391 C 0.05364 0.72632 0.80944 0.0
C1392 C 0.02215 0.71324 0.82996 0.0
C1393 C 0.01137 0.71617 0.73518 0.0
C1394 C 0.01796 0.72134 0.8576 0.0
C1395 C 0.00352 0.71357 0.8852 0.0
C1396 C 0.99306 0.69761 0.88509 0.0
C1397 C 0.99807 0.6897 0.85931 0.0
C1398 C 0.0125 0.69746 0.83202 0.0
H1399 H 0.00983 0.71861 0.69899 0.0
H1400 H 1.00223 0.7037 0.7385 0.0
H1401 H 0.00697 0.72159 0.75781 0.0
H1402 H 0.02537 0.73357 0.85633 0.0
H1403 H 0.99992 0.71997 0.90444 0.0
H1404 H 0.26085 0.29017 0.61138 0.0
H1405 H 0.26618 0.27231 0.64654 0.0
H1406 H 0.31013 0.30889 0.73617 0.0
H1407 H 0.30524 0.32672 0.70094 0.0
H1408 H 0.319 0.29112 0.6989 0.0
H1409 H 0.25279 0.2555 0.7732 0.0
H1410 H 0.25169 0.25716 0.71211 0.0
H1411 H 0.26072 0.27363 0.75027 0.0
C1412 C 0.27169 0.2944 0.63844 0.0
C1413 C 0.28256 0.3099 0.65337 0.0
C1414 C 0.27463 0.28416 0.65875 0.0
C1415 C 0.28838 0.28922 0.69451 0.0
C1416 C 0.29941 0.3047 0.70874 0.0
H1417 H 0.3109 0.25001 0.91545 0.0
H1418 H 0.29863 0.25985 0.86178 0.0
C1419 C 0.29656 0.3149 0.68848 0.0
C1420 C 0.29162 0.27864 0.71751 0.0
H1421 H 0.2733 0.24896 0.78785 0.0
C1422 C 0.30895 0.28179 0.71795 0.0
C1423 C 0.27854 0.26658 0.74275 0.0
C1424 C 0.25992 0.26303 0.74504 0.0
C1425 C 0.31377 0.27357 0.74403 0.0
C1426 C 0.30072 0.26153 0.76945 0.0
C1427 C 0.28323 0.25809 0.76803 0.0
C1428 C 0.30555 0.25335 0.80081 0.0
C1429 C 0.3331 0.27844 0.74599 0.0
C1430 C 0.31277 0.24579 0.78431 0.0
C1431 C 0.31998 0.2403 0.81498 0.0
C1432 C 0.31982 0.24204 0.86271 0.0
C1433 C 0.31127 0.24851 0.87892 0.0
C1434 C 0.30425 0.25415 0.84824 0.0
H1435 H 0.34228 0.28999 0.73345 0.0
H1436 H 0.33818 0.27841 0.78162 0.0
H1437 H 0.33379 0.27039 0.72387 0.0
H1438 H 0.31348 0.24467 0.74778 0.0
H1439 H 0.32631 0.23523 0.80136 0.0
H1440 H 0.99077 0.26409 0.40355 0.0
H1441 H 0.01713 0.27658 0.35848 0.0
H1442 H 1.00171 0.30484 0.30235 0.0
H1443 H 0.97542 0.29242 0.34665 0.0
H1444 H 0.00728 0.28914 0.23572 0.0
H1445 H 0.0647 0.31989 0.37164 0.0
H1446 H 0.04812 0.30001 0.37854 0.0
H1447 H 0.04187 0.31303 0.38221 0.0
C1448 C 0.99323 0.27319 0.38237 0.0
C1449 C 0.98096 0.27722 0.37854 0.0
C1450 C 0.00827 0.2803 0.35663 0.0
C1451 C 0.01133 0.29162 0.3271 0.0
C1452 C 0.99954 0.29608 0.32479 0.0
H1453 H 0.10138 0.35728 0.18482 0.0
H1454 H 0.07632 0.34276 0.23251 0.0
C1455 C 0.98453 0.28898 0.35027 0.0
C1456 C 0.0261 0.29827 0.29627 0.0
H1457 H 0.072 0.32131 0.29497 0.0
C1458 C 0.02145 0.29611 0.2486 0.0
C1459 C 0.04452 0.30737 0.31331 0.0
C1460 C 0.05021 0.31035 0.3642 0.0
C1461 C 0.03475 0.30307 0.21742 0.0
C1462 C 0.05317 0.31226 0.23444 0.0
C1463 C 0.05784 0.31419 0.2821 0.0
C1464 C 0.0678 0.3208 0.20362 0.0
C1465 C 0.02898 0.30099 0.16665 0.0
C1466 C 0.07117 0.31323 0.17108 0.0
C1467 C 0.0855 0.32152 0.14341 0.0
C1468 C 0.09674 0.33751 0.14814 0.0
C1469 C 0.09304 0.34499 0.18024 0.0
C1470 C 0.07875 0.33672 0.20771 0.0
H1471 H 0.01436 0.2961 0.15988 0.0
H1472 H 0.03691 0.312 0.15017 0.0
H1473 H 0.03151 0.29314 0.15013 0.0
H1474 H 0.06299 0.30093 0.16779 0.0
H1475 H 0.08806 0.31541 0.11929 0.0
H1476 H 0.80861 0.72438 0.29884 0.0
H1477 H 0.79696 0.73553 0.24952 0.0
H1478 H 0.81584 0.77147 0.3537 0.0
H1479 H 0.82699 0.76 0.4041 0.0
H1480 H 0.78195 0.75893 0.32821 0.0
H1481 H 0.81665 0.77058 0.16988 0.0
H1482 H 0.80645 0.75125 0.18374 0.0
H1483 H 0.82435 0.76647 0.22235 0.0
C1484 C 0.8107 0.73487 0.31092 0.0
C1485 C 0.81867 0.74125 0.35555 0.0
C1486 C 0.80413 0.74132 0.28241 0.0
C1487 C 0.80568 0.75448 0.29749 0.0
C1488 C 0.81452 0.76134 0.34115 0.0
H1489 H 0.75885 0.7924 0.12336 0.0
H1490 H 0.78077 0.78924 0.1654 0.0
C1491 C 0.82093 0.75479 0.36993 0.0
C1492 C 0.79603 0.75982 0.27038 0.0
H1493 H 0.78775 0.76729 0.1618 0.0
C1494 C 0.78349 0.76101 0.29201 0.0
C1495 C 0.79812 0.76276 0.22322 0.0
C1496 C 0.81228 0.76286 0.19864 0.0
C1497 C 0.77242 0.7643 0.26746 0.0
C1498 C 0.77349 0.76603 0.21958 0.0
C1499 C 0.78667 0.76566 0.19831 0.0
C1500 C 0.76048 0.76756 0.19107 0.0
C1501 C 0.75956 0.76579 0.29316 0.0
C1502 C 0.74186 0.75619 0.19019 0.0
C1503 C 0.72937 0.758 0.1666 0.0
C1504 C 0.73521 0.77113 0.14269 0.0
C1505 C 0.75391 0.78217 0.14151 0.0
C1506 C 0.76644 0.78039 0.16556 0.0
H1507 H 0.76435 0.76902 0.33019 0.0
H1508 H 0.75787 0.77441 0.27847 0.0
H1509 H 0.74613 0.75468 0.29076 0.0
H1510 H 0.73694 0.74599 0.20853 0.0
H1511 H 0.71509 0.74917 0.16774 0.0
H1512 H 0.23362 0.95466 0.10957 0.0
H1513 H 0.23991 0.97621 0.15803 0.0
H1514 H 0.2801 0.97518 0.24232 0.0
H1515 H 0.27294 0.95312 0.19627 0.0
H1516 H 0.26432 0.98181 0.29465 0.0
H1517 H 0.28103 0.01854 0.14752 0.0
H1518 H 0.258 1.0022 0.14241 0.0
H1519 H 0.2761 0.99983 0.14142 0.0
C1520 C 0.24358 0.95893 0.13891 0.0
C1521 C 0.25282 0.95223 0.14902 0.0
C1522 C 0.24736 0.97138 0.16627 0.0
C1523 C 0.26093 0.97773 0.20315 0.0
C1524 C 0.26963 0.97063 0.21409 0.0
H1525 H 0.3292 0.06982 0.31343 0.0
H1526 H 0.31239 0.04576 0.26768 0.0
C1527 C 0.26551 0.95796 0.18766 0.0
C1528 C 0.26659 0.99192 0.22997 0.0
H1529 H 0.28249 0.02917 0.21989 0.0
C1530 C 0.26829 0.99217 0.27823 0.0
C1531 C 0.27195 0.00555 0.20875 0.0
C1532 C 0.27186 0.0066 0.15723 0.0
C1533 C 0.27582 0.00563 0.30568 0.0
C1534 C 0.2809 0.01919 0.28449 0.0
C1535 C 0.27853 0.01881 0.23631 0.0
C1536 C 0.2902 0.03416 0.31105 0.0
C1537 C 0.27919 0.00525 0.35682 0.0
C1538 C 0.28321 0.03598 0.35014 0.0
C1539 C 0.29314 0.04967 0.37723 0.0
C1540 C 0.3099 0.06202 0.36467 0.0
C1541 C 0.31628 0.06054 0.32392 0.0
C1542 C 0.30665 0.04674 0.29769 0.0
H1543 H 0.27947 0.99535 0.36538 0.0
H1544 H 0.29223 0.01575 0.37079 0.0
H1545 H 0.26811 0.00422 0.37443 0.0
H1546 H 0.27024 0.02672 0.36034 0.0
H1547 H 0.2878 0.05055 0.40823 0.0
loop_
_geom_bond_atom_site_label_1
_geom_bond_atom_site_label_2
_geom_bond_distance
_geom_bond_site_symmetry_2
_ccdc_geom_bond_type
O0 Cd1 2.223 . S
O0 C8 1.315 . S
Cd1 O0 2.223 . S
Cd1 O4 2.297 . S
Cd1 O5 2.439 . S
Cd1 O11 2.240 . S
Cd2 O3 2.240 . S
Cd2 O10 2.223 . S
Cd2 O12 2.297 . S
Cd2 O13 2.439 . S
O3 Cd2 2.240 . S
O3 C8 1.279 . S
O4 Cd1 2.297 . S
O4 C6 1.247 . S
O5 Cd1 2.439 . S
O5 C6 1.208 . S
C6 O4 1.247 . S
C6 O5 1.208 . S
C7 O12 1.247 . S
C7 O13 1.208 . S
C8 O0 1.315 . S
C8 O3 1.279 . S
C9 O10 1.315 . S
C9 O11 1.279 . S
O10 Cd2 2.223 . S
O10 C9 1.315 . S
O11 Cd1 2.240 . S
O11 C9 1.279 . S
O12 Cd2 2.297 . S
O12 C7 1.247 . S
O13 Cd2 2.439 . S
O13 C7 1.208 . S
O14 Cd15 2.223 . S
O14 C22 1.315 . S
Cd15 O14 2.223 . S
Cd15 O18 2.297 . S
Cd15 O19 2.439 . S
Cd15 O25 2.240 . S
Cd16 O17 2.240 . S
Cd16 O24 2.223 . S
Cd16 O26 2.297 . S
Cd16 O27 2.439 . S
O17 Cd16 2.240 . S
O17 C22 1.279 . S
O18 Cd15 2.297 . S
O18 C20 1.247 . S
O19 Cd15 2.439 . S
O19 C20 1.208 . S
C20 O18 1.247 . S
C20 O19 1.208 . S
C21 O26 1.247 . S
C21 O27 1.208 . S
C22 O14 1.315 . S
C22 O17 1.279 . S
C23 O24 1.315 . S
C23 O25 1.279 . S
O24 Cd16 2.223 . S
O24 C23 1.315 . S
O25 Cd15 2.240 . S
O25 C23 1.279 . S
O26 Cd16 2.297 . S
O26 C21 1.247 . S
O27 Cd16 2.439 . S
O27 C21 1.208 . S
O28 Cd29 2.223 . S
O28 C36 1.315 . S
Cd29 O28 2.223 . S
Cd29 O32 2.297 . S
Cd29 O33 2.439 . S
Cd29 O39 2.240 . S
Cd30 O31 2.240 . S
Cd30 O38 2.237 . S
Cd30 O40 2.297 . S
Cd30 O41 2.439 . S
O31 Cd30 2.240 . S
O31 C36 1.279 1_565 S
O32 Cd29 2.297 . S
O32 C34 1.247 . S
O33 Cd29 2.439 . S
O33 C34 1.208 . S
C34 O32 1.247 . S
C34 O33 1.208 . S
C35 O40 1.247 . S
C35 O41 1.208 . S
C36 O28 1.315 . S
C36 O31 1.279 1_545 S
C37 O38 1.285 1_545 S
C37 O39 1.279 . S
O38 Cd30 2.237 . S
O38 C37 1.285 1_565 S
O39 Cd29 2.240 . S
O39 C37 1.279 . S
O40 Cd30 2.297 . S
O40 C35 1.247 . S
O41 Cd30 2.439 . S
O41 C35 1.208 . S
O42 Cd43 2.223 . S
O42 C50 1.315 . S
Cd43 O42 2.223 . S
Cd43 O46 2.297 . S
Cd43 O47 2.439 . S
Cd43 O53 2.240 . S
Cd44 O45 2.240 1_655 S
Cd44 O52 2.223 1_655 S
Cd44 O54 2.297 . S
Cd44 O55 2.439 . S
O45 Cd44 2.240 1_455 S
O45 C50 1.279 . S
O46 Cd43 2.297 . S
O46 C48 1.247 . S
O47 Cd43 2.439 . S
O47 C48 1.208 . S
C48 O46 1.247 . S
C48 O47 1.208 . S
C49 O54 1.247 . S
C49 O55 1.208 . S
C50 O42 1.315 . S
C50 O45 1.279 . S
C51 O52 1.315 . S
C51 O53 1.279 . S
O52 Cd44 2.223 1_455 S
O52 C51 1.315 . S
O53 Cd43 2.240 . S
O53 C51 1.279 . S
O54 Cd44 2.297 . S
O54 C49 1.247 . S
O55 Cd44 2.439 . S
O55 C49 1.208 . S
O56 Cd57 2.223 . S
O56 C64 1.315 . S
Cd57 O56 2.223 . S
Cd57 O60 2.297 . S
Cd57 O61 2.439 . S
Cd57 O67 2.240 . S
Cd58 O59 2.240 . S
Cd58 O66 2.223 . S
Cd58 O68 2.297 . S
Cd58 O69 2.439 . S
O59 Cd58 2.240 . S
O59 C64 1.279 . S
O60 Cd57 2.297 . S
O60 C62 1.247 . S
O61 Cd57 2.439 . S
O61 C62 1.208 . S
C62 O60 1.247 . S
C62 O61 1.208 . S
C63 O68 1.247 . S
C63 O69 1.208 . S
C64 O56 1.315 . S
C64 O59 1.279 . S
C65 O66 1.315 . S
C65 O67 1.279 . S
O66 Cd58 2.223 . S
O66 C65 1.315 . S
O67 Cd57 2.240 . S
O67 C65 1.279 . S
O68 Cd58 2.297 . S
O68 C63 1.247 . S
O69 Cd58 2.439 . S
O69 C63 1.208 . S
O70 Cd71 2.223 . S
O70 C78 1.315 . S
Cd71 O70 2.223 . S
Cd71 O74 2.297 . S
Cd71 O75 2.439 . S
Cd71 O81 2.240 . S
Cd72 O73 2.240 . S
Cd72 O80 2.223 . S
Cd72 O82 2.297 . S
Cd72 O83 2.439 . S
O73 Cd72 2.240 . S
O73 C78 1.279 . S
O74 Cd71 2.297 . S
O74 C76 1.247 . S
O75 Cd71 2.439 . S
O75 C76 1.208 . S
C76 O74 1.247 . S
C76 O75 1.208 . S
C77 O82 1.247 . S
C77 O83 1.208 . S
C78 O70 1.315 . S
C78 O73 1.279 . S
C79 O80 1.315 . S
C79 O81 1.279 . S
O80 Cd72 2.223 . S
O80 C79 1.315 . S
O81 Cd71 2.240 . S
O81 C79 1.279 . S
O82 Cd72 2.297 . S
O82 C77 1.247 . S
O83 Cd72 2.439 . S
O83 C77 1.208 . S
O84 Cd85 2.223 . S
O84 C92 1.315 . S
Cd85 O84 2.223 . S
Cd85 O88 2.297 . S
Cd85 O89 2.439 . S
Cd85 O95 2.240 . S
Cd86 O87 2.240 . S
Cd86 O94 2.223 . S
Cd86 O96 2.297 . S
Cd86 O97 2.439 . S
O87 Cd86 2.240 . S
O87 C92 1.279 . S
O88 Cd85 2.297 . S
O88 C90 1.247 . S
O89 Cd85 2.439 . S
O89 C90 1.208 . S
C90 O88 1.247 . S
C90 O89 1.208 . S
C91 O96 1.247 . S
C91 O97 1.208 . S
C92 O84 1.315 . S
C92 O87 1.279 . S
C93 O94 1.315 . S
C93 O95 1.279 . S
O94 Cd86 2.223 . S
O94 C93 1.315 . S
O95 Cd85 2.240 . S
O95 C93 1.279 . S
O96 Cd86 2.297 . S
O96 C91 1.247 . S
O97 Cd86 2.439 . S
O97 C91 1.208 . S
O98 Cd99 2.223 . S
O98 C106 1.315 . S
Cd99 O98 2.223 . S
Cd99 O102 2.297 . S
Cd99 O103 2.439 . S
Cd99 O109 2.240 . S
Cd100 O101 2.240 . S
Cd100 O108 2.223 . S
Cd100 O110 2.297 . S
Cd100 O111 2.439 . S
O101 Cd100 2.240 . S
O101 C106 1.279 . S
O102 Cd99 2.297 . S
O102 C104 1.247 . S
O103 Cd99 2.439 . S
O103 C104 1.208 . S
C104 O102 1.247 . S
C104 O103 1.208 . S
C105 O110 1.247 . S
C105 O111 1.208 . S
C106 O98 1.315 . S
C106 O101 1.279 . S
C107 O108 1.315 . S
C107 O109 1.279 . S
O108 Cd100 2.223 . S
O108 C107 1.315 . S
O109 Cd99 2.240 . S
O109 C107 1.279 . S
O110 Cd100 2.297 . S
O110 C105 1.247 . S
O111 Cd100 2.439 . S
O111 C105 1.208 . S
O112 Cd113 2.223 . S
O112 C120 1.315 . S
Cd113 O112 2.223 . S
Cd113 O116 2.297 . S
Cd113 O117 2.439 . S
Cd113 O123 2.240 . S
Cd114 O115 2.240 . S
Cd114 O122 2.223 . S
Cd114 O124 2.297 . S
Cd114 O125 2.439 . S
O115 Cd114 2.240 . S
O115 C120 1.279 . S
O116 Cd113 2.297 . S
O116 C118 1.247 . S
O117 Cd113 2.439 . S
O117 C118 1.208 . S
C118 O116 1.247 . S
C118 O117 1.208 . S
C119 O124 1.247 . S
C119 O125 1.208 . S
C120 O112 1.315 . S
C120 O115 1.279 . S
C121 O122 1.315 . S
C121 O123 1.279 . S
O122 Cd114 2.223 . S
O122 C121 1.315 . S
O123 Cd113 2.240 . S
O123 C121 1.279 . S
O124 Cd114 2.297 . S
O124 C119 1.247 . S
O125 Cd114 2.439 . S
O125 C119 1.208 . S
O126 Cd127 2.223 . S
O126 C134 1.315 . S
Cd127 O126 2.223 . S
Cd127 O130 2.297 . S
Cd127 O131 2.439 1_554 S
Cd127 O137 2.240 . S
Cd128 O129 2.240 . S
Cd128 O136 2.223 . S
Cd128 O138 2.297 . S
Cd128 O139 2.439 . S
O129 Cd128 2.240 . S
O129 C134 1.279 . S
O130 Cd127 2.297 . S
O130 C132 1.247 1_554 S
O131 Cd127 2.439 1_556 S
O131 C132 1.208 . S
C132 O130 1.247 1_556 S
C132 O131 1.208 . S
C133 O138 1.247 . S
C133 O139 1.208 . S
C134 O126 1.315 . S
C134 O129 1.279 . S
C135 O136 1.315 . S
C135 O137 1.279 . S
O136 Cd128 2.223 . S
O136 C135 1.315 . S
O137 Cd127 2.240 . S
O137 C135 1.279 . S
O138 Cd128 2.297 . S
O138 C133 1.247 . S
O139 Cd128 2.439 . S
O139 C133 1.208 . S
O140 Cd141 2.223 . S
O140 C148 1.315 . S
Cd141 O140 2.223 . S
Cd141 O144 2.297 . S
Cd141 O145 2.439 . S
Cd141 O151 2.240 . S
Cd142 O143 2.240 . S
Cd142 O150 2.223 . S
Cd142 O152 2.297 . S
Cd142 O153 2.439 . S
O143 Cd142 2.240 . S
O143 C148 1.279 . S
O144 Cd141 2.297 . S
O144 C146 1.247 . S
O145 Cd141 2.439 . S
O145 C146 1.208 . S
C146 O144 1.247 . S
C146 O145 1.208 . S
C147 O152 1.247 . S
C147 O153 1.208 . S
C148 O140 1.315 . S
C148 O143 1.279 . S
C149 O150 1.315 . S
C149 O151 1.279 . S
O150 Cd142 2.223 . S
O150 C149 1.315 . S
O151 Cd141 2.240 . S
O151 C149 1.279 . S
O152 Cd142 2.297 . S
O152 C147 1.247 . S
O153 Cd142 2.439 . S
O153 C147 1.208 . S
O154 Cd155 2.223 . S
O154 C162 1.315 . S
Cd155 O154 2.223 . S
Cd155 O158 2.297 . S
Cd155 O159 2.439 1_554 S
Cd155 O165 2.240 . S
Cd156 O157 2.240 . S
Cd156 O164 2.223 . S
Cd156 O166 2.297 . S
Cd156 O167 2.439 . S
O157 Cd156 2.240 . S
O157 C162 1.279 . S
O158 Cd155 2.297 . S
O158 C160 1.247 1_554 S
O159 Cd155 2.439 1_556 S
O159 C160 1.208 . S
C160 O158 1.247 1_556 S
C160 O159 1.208 . S
C161 O166 1.247 . S
C161 O167 1.208 . S
C162 O154 1.315 . S
C162 O157 1.279 . S
C163 O164 1.315 . S
C163 O165 1.279 . S
O164 Cd156 2.223 . S
O164 C163 1.315 . S
O165 Cd155 2.240 . S
O165 C163 1.279 . S
O166 Cd156 2.297 . S
O166 C161 1.247 . S
O167 Cd156 2.439 . S
O167 C161 1.208 . S
O168 Cd169 2.223 . S
O168 C176 1.315 . S
Cd169 O168 2.223 . S
Cd169 O172 2.297 . S
Cd169 O173 2.439 . S
Cd169 O179 2.240 . S
Cd170 O171 2.240 . S
Cd170 O178 2.223 1_556 S
Cd170 O180 2.297 . S
Cd170 O181 2.439 . S
O171 Cd170 2.240 . S
O171 C176 1.279 . S
O172 Cd169 2.297 . S
O172 C174 1.247 . S
O173 Cd169 2.439 . S
O173 C174 1.208 . S
C174 O172 1.247 . S
C174 O173 1.208 . S
C175 O180 1.247 . S
C175 O181 1.208 . S
C176 O168 1.315 . S
C176 O171 1.279 . S
C177 O178 1.315 1_556 S
C177 O179 1.279 . S
O178 Cd170 2.223 1_554 S
O178 C177 1.315 1_554 S
O179 Cd169 2.240 . S
O179 C177 1.279 . S
O180 Cd170 2.297 . S
O180 C175 1.247 . S
O181 Cd170 2.439 . S
O181 C175 1.208 . S
O182 Cd183 2.223 . S
O182 C190 1.315 . S
Cd183 O182 2.223 . S
Cd183 O186 2.297 . S
Cd183 O187 2.439 . S
Cd183 O193 2.240 . S
Cd184 O185 2.240 . S
Cd184 O192 2.223 . S
Cd184 O194 2.297 . S
Cd184 O195 2.439 . S
O185 Cd184 2.240 . S
O185 C190 1.279 . S
O186 Cd183 2.297 . S
O186 C188 1.247 . S
O187 Cd183 2.439 . S
O187 C188 1.208 . S
C188 O186 1.247 . S
C188 O187 1.208 . S
C189 O194 1.247 . S
C189 O195 1.208 . S
C190 O182 1.315 . S
C190 O185 1.279 . S
C191 O192 1.315 . S
C191 O193 1.279 . S
O192 Cd184 2.223 . S
O192 C191 1.315 . S
O193 Cd183 2.240 . S
O193 C191 1.279 . S
O194 Cd184 2.297 . S
O194 C189 1.247 . S
O195 Cd184 2.439 . S
O195 C189 1.208 . S
O196 Cd197 2.223 . S
O196 C204 1.315 . S
Cd197 O196 2.223 . S
Cd197 O200 2.297 . S
Cd197 O201 2.439 . S
Cd197 O207 2.240 . S
Cd198 O199 2.240 . S
Cd198 O206 2.223 . S
Cd198 O208 2.297 . S
Cd198 O209 2.439 . S
O199 Cd198 2.240 . S
O199 C204 1.279 . S
O200 Cd197 2.297 . S
O200 C202 1.247 . S
O201 Cd197 2.439 . S
O201 C202 1.208 . S
C202 O200 1.247 . S
C202 O201 1.208 . S
C203 O208 1.247 . S
C203 O209 1.208 . S
C204 O196 1.315 . S
C204 O199 1.279 . S
C205 O206 1.315 . S
C205 O207 1.279 . S
O206 Cd198 2.223 . S
O206 C205 1.315 . S
O207 Cd197 2.240 . S
O207 C205 1.279 . S
O208 Cd198 2.297 . S
O208 C203 1.247 . S
O209 Cd198 2.439 . S
O209 C203 1.208 . S
O210 Cd211 2.223 . S
O210 C218 1.315 . S
Cd211 O210 2.223 . S
Cd211 O214 2.297 . S
Cd211 O215 2.439 . S
Cd211 O221 2.240 . S
Cd212 O213 2.240 . S
Cd212 O220 2.223 . S
Cd212 O222 2.297 . S
Cd212 O223 2.439 . S
O213 Cd212 2.240 . S
O213 C218 1.279 . S
O214 Cd211 2.297 . S
O214 C216 1.247 . S
O215 Cd211 2.439 . S
O215 C216 1.208 . S
C216 O214 1.247 . S
C216 O215 1.208 . S
C217 O222 1.247 . S
C217 O223 1.208 . S
C218 O210 1.315 . S
C218 O213 1.279 . S
C219 O220 1.315 . S
C219 O221 1.279 . S
O220 Cd212 2.223 . S
O220 C219 1.315 . S
O221 Cd211 2.240 . S
O221 C219 1.279 . S
O222 Cd212 2.297 . S
O222 C217 1.247 . S
O223 Cd212 2.439 . S
O223 C217 1.208 . S
O224 Cd225 2.223 . S
O224 C232 1.315 . S
Cd225 O224 2.223 . S
Cd225 O228 2.297 . S
Cd225 O229 2.439 . S
Cd225 O235 2.240 . S
Cd226 O227 2.240 . S
Cd226 O234 2.223 . S
Cd226 O236 2.297 . S
Cd226 O237 2.439 . S
O227 Cd226 2.240 . S
O227 C232 1.279 . S
O228 Cd225 2.297 . S
O228 C230 1.247 . S
O229 Cd225 2.439 . S
O229 C230 1.208 . S
C230 O228 1.247 . S
C230 O229 1.208 . S
C231 O236 1.247 . S
C231 O237 1.208 . S
C232 O224 1.315 . S
C232 O227 1.279 . S
C233 O234 1.315 . S
C233 O235 1.279 . S
O234 Cd226 2.223 . S
O234 C233 1.315 . S
O235 Cd225 2.240 . S
O235 C233 1.279 . S
O236 Cd226 2.297 . S
O236 C231 1.247 . S
O237 Cd226 2.439 . S
O237 C231 1.208 . S
O238 Cd239 2.223 . S
O238 C246 1.315 . S
Cd239 O238 2.223 . S
Cd239 O242 2.297 . S
Cd239 O243 2.439 . S
Cd239 O249 2.240 . S
Cd240 O241 2.240 . S
Cd240 O248 2.223 . S
Cd240 O250 2.297 . S
Cd240 O251 2.439 . S
O241 Cd240 2.240 . S
O241 C246 1.279 . S
O242 Cd239 2.297 . S
O242 C244 1.247 . S
O243 Cd239 2.439 . S
O243 C244 1.208 . S
C244 O242 1.247 . S
C244 O243 1.208 . S
C245 O250 1.247 . S
C245 O251 1.208 . S
C246 O238 1.315 . S
C246 O241 1.279 . S
C247 O248 1.315 . S
C247 O249 1.279 . S
O248 Cd240 2.223 . S
O248 C247 1.315 . S
O249 Cd239 2.240 . S
O249 C247 1.279 . S
O250 Cd240 2.297 . S
O250 C245 1.247 . S
O251 Cd240 2.439 . S
O251 C245 1.208 . S
H252 C260 0.929 . S
H253 C262 0.930 . S
H254 C264 0.930 . S
H255 C267 0.929 . S
H256 C270 0.930 1_655 S
H257 C272 0.960 . S
H258 C272 0.960 . S
H259 C272 0.960 . S
C260 H252 0.929 . S
C260 C261 1.377 . S
C260 C262 1.384 . S
C261 C260 1.377 . S
C261 C267 1.390 . S
C262 H253 0.930 . S
C262 C260 1.384 . S
C262 C263 1.372 . S
C263 C262 1.372 . S
C263 C264 1.400 . S
C263 C268 1.490 . S
C264 H254 0.930 . S
C264 C263 1.400 . S
C264 C267 1.386 . S
H265 C281 0.930 . S
H266 C282 0.931 . S
C267 H255 0.929 . S
C267 C261 1.390 . S
C267 C264 1.386 . S
C268 C263 1.490 . S
C268 C270 1.395 . S
C268 C271 1.403 . S
H269 C275 0.930 1_554 S
C270 H256 0.930 1_455 S
C270 C268 1.395 . S
C270 C273 1.403 . S
C271 C268 1.403 . S
C271 C272 1.524 . S
C271 C275 1.400 . S
C272 H257 0.960 . S
C272 H258 0.960 . S
C272 H259 0.960 . S
C272 C271 1.524 . S
C273 C270 1.403 . S
C273 C274 1.392 1_556 S
C273 C277 1.503 1_455 S
C274 C273 1.392 1_554 S
C274 C275 1.385 1_554 S
C274 C276 1.478 . S
C275 H269 0.930 1_556 S
C275 C271 1.400 . S
C275 C274 1.385 1_556 S
C276 C274 1.478 . S
C276 C278 1.381 . S
C276 C282 1.383 . S
C277 C273 1.503 1_655 S
C277 H283 0.969 . S
C277 H284 0.941 1_556 S
C277 H285 0.962 . S
C278 C276 1.381 . S
C278 C279 1.394 . S
C278 H286 0.930 . S
C279 C278 1.394 . S
C279 C280 1.383 . S
C279 H287 0.929 . S
C280 C279 1.383 . S
C280 C281 1.377 . S
C281 H265 0.930 . S
C281 C280 1.377 . S
C281 C282 1.379 . S
C282 H266 0.931 . S
C282 C276 1.383 . S
C282 C281 1.379 . S
H283 C277 0.969 . S
H284 C277 0.941 1_554 S
H285 C277 0.962 . S
H286 C278 0.930 . S
H287 C279 0.929 . S
H288 C296 0.929 . S
H289 C298 0.930 . S
H290 C300 0.930 . S
H291 C303 0.929 . S
H292 C306 0.930 . S
H293 C308 0.960 . S
H294 C308 0.960 . S
H295 C308 0.960 . S
C296 H288 0.929 . S
C296 C297 1.377 . S
C296 C298 1.384 . S
C297 C296 1.377 . S
C297 C303 1.390 . S
C298 H289 0.930 . S
C298 C296 1.384 . S
C298 C299 1.372 . S
C299 C298 1.372 . S
C299 C300 1.400 . S
C299 C304 1.490 . S
C300 H290 0.930 . S
C300 C299 1.400 . S
C300 C303 1.386 . S
H301 C317 0.930 . S
H302 C318 0.931 . S
C303 H291 0.929 . S
C303 C297 1.390 . S
C303 C300 1.386 . S
C304 C299 1.490 . S
C304 C306 1.395 . S
C304 C307 1.403 1_556 S
H305 C311 0.930 . S
C306 H292 0.930 . S
C306 C304 1.395 . S
C306 C309 1.403 1_556 S
C307 C304 1.403 1_554 S
C307 C308 1.524 . S
C307 C311 1.400 . S
C308 H293 0.960 . S
C308 H294 0.960 . S
C308 H295 0.960 . S
C308 C307 1.524 . S
C309 C306 1.403 1_554 S
C309 C310 1.392 . S
C309 C313 1.495 1_554 S
C310 C309 1.392 . S
C310 C311 1.385 . S
C310 C312 1.478 . S
C311 H305 0.930 . S
C311 C307 1.400 . S
C311 C310 1.385 . S
C312 C310 1.478 . S
C312 C314 1.381 . S
C312 C318 1.383 . S
C313 C309 1.495 1_556 S
C313 H319 0.959 . S
C313 H320 0.961 1_556 S
C313 H321 0.960 1_556 S
C314 C312 1.381 . S
C314 C315 1.394 . S
C314 H322 0.930 . S
C315 C314 1.394 . S
C315 C316 1.383 . S
C315 H323 0.929 . S
C316 C315 1.383 . S
C316 C317 1.377 . S
C317 H301 0.930 . S
C317 C316 1.377 . S
C317 C318 1.379 . S
C318 H302 0.931 . S
C318 C312 1.383 . S
C318 C317 1.379 . S
H319 C313 0.959 . S
H320 C313 0.961 1_554 S
H321 C313 0.960 1_554 S
H322 C314 0.930 . S
H323 C315 0.929 . S
H324 C332 0.929 . S
H325 C334 0.930 . S
H326 C336 0.930 . S
H327 C339 0.929 1_565 S
H328 C342 0.930 . S
H329 C344 0.960 . S
H330 C344 0.960 . S
H331 C344 0.960 . S
C332 H324 0.929 . S
C332 C333 1.377 . S
C332 C334 1.384 . S
C333 C332 1.377 . S
C333 C339 1.390 . S
C334 H325 0.930 . S
C334 C332 1.384 . S
C334 C335 1.372 . S
C335 C334 1.372 . S
C335 C336 1.400 . S
C335 C340 1.490 . S
C336 H326 0.930 . S
C336 C335 1.400 . S
C336 C339 1.386 . S
H337 C353 0.930 . S
H338 C354 0.931 . S
C339 H327 0.929 1_545 S
C339 C333 1.390 . S
C339 C336 1.386 . S
C340 C335 1.490 . S
C340 C342 1.395 1_554 S
C340 C343 1.403 . S
H341 C347 0.930 . S
C342 H328 0.930 . S
C342 C340 1.395 1_556 S
C342 C345 1.403 . S
C343 C340 1.403 . S
C343 C344 1.524 . S
C343 C347 1.400 . S
C344 H329 0.960 . S
C344 H330 0.960 . S
C344 H331 0.960 . S
C344 C343 1.524 . S
C345 C342 1.403 . S
C345 C346 1.392 . S
C345 C349 1.495 . S
C346 C345 1.392 . S
C346 C347 1.385 1_556 S
C346 C348 1.478 . S
C347 H341 0.930 . S
C347 C343 1.400 . S
C347 C346 1.385 1_554 S
C348 C346 1.478 . S
C348 C350 1.381 . S
C348 C354 1.383 . S
C349 C345 1.495 . S
C349 H355 0.959 . S
C349 H356 0.961 . S
C349 H357 0.960 . S
C350 C348 1.381 . S
C350 C351 1.394 . S
C350 H358 0.930 . S
C351 C350 1.394 . S
C351 C352 1.383 . S
C351 H359 0.929 . S
C352 C351 1.383 . S
C352 C353 1.377 . S
C353 H337 0.930 . S
C353 C352 1.377 . S
C353 C354 1.379 . S
C354 H338 0.931 . S
C354 C348 1.383 . S
C354 C353 1.379 . S
H355 C349 0.959 . S
H356 C349 0.961 . S
H357 C349 0.960 . S
H358 C350 0.930 . S
H359 C351 0.929 . S
H360 C368 0.929 . S
H361 C370 0.930 . S
H362 C372 0.930 . S
H363 C375 0.929 . S
H364 C378 0.930 . S
H365 C380 0.960 . S
H366 C380 0.960 . S
H367 C380 0.960 . S
C368 H360 0.929 . S
C368 C369 1.377 . S
C368 C370 1.384 . S
C369 C368 1.377 . S
C369 C375 1.390 . S
C370 H361 0.930 . S
C370 C368 1.384 . S
C370 C371 1.372 . S
C371 C370 1.372 . S
C371 C372 1.400 . S
C371 C376 1.490 . S
C372 H362 0.930 . S
C372 C371 1.400 . S
C372 C375 1.386 . S
H373 C389 0.930 . S
H374 C390 0.931 . S
C375 H363 0.929 . S
C375 C369 1.390 . S
C375 C372 1.386 . S
C376 C371 1.490 . S
C376 C378 1.395 . S
C376 C379 1.403 . S
H377 C383 0.930 . S
C378 H364 0.930 . S
C378 C376 1.395 . S
C378 C381 1.403 . S
C379 C376 1.403 . S
C379 C380 1.524 . S
C379 C383 1.400 . S
C380 H365 0.960 . S
C380 H366 0.960 . S
C380 H367 0.960 . S
C380 C379 1.524 . S
C381 C378 1.403 . S
C381 C382 1.392 . S
C381 C385 1.495 . S
C382 C381 1.392 . S
C382 C383 1.385 . S
C382 C384 1.478 . S
C383 H377 0.930 . S
C383 C379 1.400 . S
C383 C382 1.385 . S
C384 C382 1.478 . S
C384 C386 1.381 . S
C384 C390 1.383 . S
C385 C381 1.495 . S
C385 H391 0.970 . S
C385 H392 0.992 . S
C385 H393 0.960 . S
C386 C384 1.381 . S
C386 C387 1.394 . S
C386 H394 0.930 . S
C387 C386 1.394 . S
C387 C388 1.383 . S
C387 H395 0.929 . S
C388 C387 1.383 . S
C388 C389 1.377 . S
C389 H373 0.930 . S
C389 C388 1.377 . S
C389 C390 1.379 . S
C390 H374 0.931 . S
C390 C384 1.383 . S
C390 C389 1.379 . S
H391 C385 0.970 . S
H392 C385 0.992 . S
H393 C385 0.960 . S
H394 C386 0.930 . S
H395 C387 0.929 . S
H396 C404 0.929 . S
H397 C406 0.930 . S
H398 C408 0.930 . S
H399 C411 0.929 . S
H400 C414 0.997 . S
H401 C416 0.960 . S
H402 C416 0.960 . S
H403 C416 0.960 . S
C404 H396 0.929 . S
C404 C405 1.377 . S
C404 C406 1.384 . S
C405 C404 1.377 . S
C405 C411 1.390 . S
C406 H397 0.930 . S
C406 C404 1.384 . S
C406 C407 1.372 . S
C407 C406 1.372 . S
C407 C408 1.400 . S
C407 C412 1.490 . S
C408 H398 0.930 . S
C408 C407 1.400 . S
C408 C411 1.386 . S
H409 C425 0.930 . S
H410 C426 0.931 . S
C411 H399 0.929 . S
C411 C405 1.390 . S
C411 C408 1.386 . S
C412 C407 1.490 . S
C412 C414 1.395 . S
C412 C415 1.403 . S
H413 C419 0.930 . S
C414 H400 0.997 . S
C414 C412 1.395 . S
C414 C417 1.403 . S
C415 C412 1.403 . S
C415 C416 1.524 . S
C415 C419 1.400 . S
C416 H401 0.960 . S
C416 H402 0.960 . S
C416 H403 0.960 . S
C416 C415 1.524 . S
C417 C414 1.403 . S
C417 C418 1.392 . S
C417 C421 1.495 1_455 S
C418 C417 1.392 . S
C418 C419 1.385 . S
C418 C420 1.478 . S
C419 H413 0.930 . S
C419 C415 1.400 . S
C419 C418 1.385 . S
C420 C418 1.478 . S
C420 C422 1.381 . S
C420 C426 1.383 . S
C421 C417 1.495 1_655 S
C421 H427 0.959 . S
C421 H428 0.961 . S
C421 H429 0.960 . S
C422 C420 1.381 . S
C422 C423 1.394 . S
C422 H430 0.930 . S
C423 C422 1.394 . S
C423 C424 1.383 . S
C423 H431 0.929 . S
C424 C423 1.383 . S
C424 C425 1.377 . S
C425 H409 0.930 . S
C425 C424 1.377 . S
C425 C426 1.379 . S
C426 H410 0.931 . S
C426 C420 1.383 . S
C426 C425 1.379 . S
H427 C421 0.959 . S
H428 C421 0.961 . S
H429 C421 0.960 . S
H430 C422 0.930 . S
H431 C423 0.929 . S
H432 C440 0.929 . S
H433 C442 0.930 . S
H434 C444 0.930 . S
H435 C447 0.929 . S
H436 C450 0.930 . S
H437 C452 0.960 . S
H438 C452 0.960 . S
H439 C452 0.960 . S
C440 H432 0.929 . S
C440 C441 1.377 . S
C440 C442 1.384 . S
C441 C440 1.377 . S
C441 C447 1.390 . S
C442 H433 0.930 . S
C442 C440 1.384 . S
C442 C443 1.372 . S
C443 C442 1.372 . S
C443 C444 1.400 . S
C443 C448 1.490 . S
C444 H434 0.930 . S
C444 C443 1.400 . S
C444 C447 1.386 . S
H445 C461 0.930 . S
H446 C462 0.931 . S
C447 H435 0.929 . S
C447 C441 1.390 . S
C447 C444 1.386 . S
C448 C443 1.490 . S
C448 C450 1.395 . S
C448 C451 1.403 . S
H449 C455 0.930 . S
C450 H436 0.930 . S
C450 C448 1.395 . S
C450 C453 1.403 . S
C451 C448 1.403 . S
C451 C452 1.524 . S
C451 C455 1.400 . S
C452 H437 0.960 . S
C452 H438 0.960 . S
C452 H439 0.960 . S
C452 C451 1.524 . S
C453 C450 1.403 . S
C453 C454 1.392 . S
C453 C457 1.495 . S
C454 C453 1.392 . S
C454 C455 1.385 . S
C454 C456 1.478 . S
C455 H449 0.930 . S
C455 C451 1.400 . S
C455 C454 1.385 . S
C456 C454 1.478 . S
C456 C458 1.381 . S
C456 C462 1.383 . S
C457 C453 1.495 . S
C457 H463 0.959 . S
C457 H464 0.961 . S
C457 H465 0.960 . S
C458 C456 1.381 . S
C458 C459 1.394 . S
C458 H466 0.930 . S
C459 C458 1.394 . S
C459 C460 1.383 . S
C459 H467 0.929 . S
C460 C459 1.383 . S
C460 C461 1.377 . S
C461 H445 0.930 . S
C461 C460 1.377 . S
C461 C462 1.379 . S
C462 H446 0.931 . S
C462 C456 1.383 . S
C462 C461 1.379 . S
H463 C457 0.959 . S
H464 C457 0.961 . S
H465 C457 0.960 . S
H466 C458 0.930 . S
H467 C459 0.929 . S
H468 C476 0.929 . S
H469 C478 0.930 . S
H470 C480 0.930 . S
H471 C483 0.929 . S
H472 C486 0.930 . S
H473 C488 0.960 . S
H474 C488 0.960 . S
H475 C488 0.960 . S
C476 H468 0.929 . S
C476 C477 1.377 . S
C476 C478 1.384 . S
C477 C476 1.377 . S
C477 C483 1.390 . S
C478 H469 0.930 . S
C478 C476 1.384 . S
C478 C479 1.372 . S
C479 C478 1.372 . S
C479 C480 1.400 . S
C479 C484 1.490 . S
C480 H470 0.930 . S
C480 C479 1.400 . S
C480 C483 1.386 . S
H481 C497 0.930 . S
H482 C498 0.931 . S
C483 H471 0.929 . S
C483 C477 1.390 . S
C483 C480 1.386 . S
C484 C479 1.490 . S
C484 C486 1.395 . S
C484 C487 1.403 . S
H485 C491 0.930 . S
C486 H472 0.930 . S
C486 C484 1.395 . S
C486 C489 1.403 . S
C487 C484 1.403 . S
C487 C488 1.524 . S
C487 C491 1.400 . S
C488 H473 0.960 . S
C488 H474 0.960 . S
C488 H475 0.960 . S
C488 C487 1.524 . S
C489 C486 1.403 . S
C489 C490 1.392 . S
C489 C493 1.495 . S
C490 C489 1.392 . S
C490 C491 1.385 . S
C490 C492 1.478 . S
C491 H485 0.930 . S
C491 C487 1.400 . S
C491 C490 1.385 . S
C492 C490 1.478 . S
C492 C494 1.381 . S
C492 C498 1.383 . S
C493 C489 1.495 . S
C493 H499 0.959 . S
C493 H500 0.961 . S
C493 H501 0.960 . S
C494 C492 1.381 . S
C494 C495 1.394 . S
C494 H502 0.930 . S
C495 C494 1.394 . S
C495 C496 1.383 . S
C495 H503 0.929 . S
C496 C495 1.383 . S
C496 C497 1.377 . S
C497 H481 0.930 . S
C497 C496 1.377 . S
C497 C498 1.379 . S
C498 H482 0.931 . S
C498 C492 1.383 . S
C498 C497 1.379 . S
H499 C493 0.959 . S
H500 C493 0.961 . S
H501 C493 0.960 . S
H502 C494 0.930 . S
H503 C495 0.929 . S
H504 C512 0.929 . S
H505 C514 0.930 . S
H506 C516 0.930 . S
H507 C519 0.929 . S
H508 C522 0.930 . S
H509 C524 0.960 . S
H510 C524 0.960 . S
H511 C524 0.960 . S
C512 H504 0.929 . S
C512 C513 1.377 . S
C512 C514 1.384 . S
C513 C512 1.377 . S
C513 C519 1.390 . S
C514 H505 0.930 . S
C514 C512 1.384 . S
C514 C515 1.372 . S
C515 C514 1.372 . S
C515 C516 1.400 . S
C515 C520 1.490 . S
C516 H506 0.930 . S
C516 C515 1.400 . S
C516 C519 1.386 . S
H517 C533 0.930 . S
H518 C534 0.931 . S
C519 H507 0.929 . S
C519 C513 1.390 . S
C519 C516 1.386 . S
C520 C515 1.490 . S
C520 C522 1.395 . S
C520 C523 1.403 . S
H521 C527 0.930 . S
C522 H508 0.930 . S
C522 C520 1.395 . S
C522 C525 1.403 . S
C523 C520 1.403 . S
C523 C524 1.524 . S
C523 C527 1.400 . S
C524 H509 0.960 . S
C524 H510 0.960 . S
C524 H511 0.960 . S
C524 C523 1.524 . S
C525 C522 1.403 . S
C525 C526 1.392 . S
C525 C529 1.495 . S
C526 C525 1.392 . S
C526 C527 1.385 . S
C526 C528 1.478 . S
C527 H521 0.930 . S
C527 C523 1.400 . S
C527 C526 1.385 . S
C528 C526 1.478 . S
C528 C530 1.381 . S
C528 C534 1.383 . S
C529 C525 1.495 . S
C529 H535 0.959 . S
C529 H536 0.961 . S
C529 H537 0.960 . S
C530 C528 1.381 . S
C530 C531 1.394 . S
C530 H538 0.930 . S
C531 C530 1.394 . S
C531 C532 1.383 . S
C531 H539 0.929 . S
C532 C531 1.383 . S
C532 C533 1.377 . S
C533 H517 0.930 . S
C533 C532 1.377 . S
C533 C534 1.379 . S
C534 H518 0.931 . S
C534 C528 1.383 . S
C534 C533 1.379 . S
H535 C529 0.959 . S
H536 C529 0.961 . S
H537 C529 0.960 . S
H538 C530 0.930 . S
H539 C531 0.929 . S
H540 C548 0.929 . S
H541 C550 0.930 . S
H542 C552 0.930 . S
H543 C555 0.929 . S
H544 C558 0.930 . S
H545 C560 0.960 . S
H546 C560 0.960 . S
H547 C560 0.960 . S
C548 H540 0.929 . S
C548 C549 1.377 . S
C548 C550 1.384 . S
C549 C548 1.377 . S
C549 C555 1.390 . S
C550 H541 0.930 . S
C550 C548 1.384 . S
C550 C551 1.372 . S
C551 C550 1.372 . S
C551 C552 1.400 . S
C551 C556 1.490 . S
C552 H542 0.930 . S
C552 C551 1.400 . S
C552 C555 1.386 . S
H553 C569 0.930 . S
H554 C570 0.931 . S
C555 H543 0.929 . S
C555 C549 1.390 . S
C555 C552 1.386 . S
C556 C551 1.490 . S
C556 C558 1.395 . S
C556 C559 1.403 . S
H557 C563 0.930 . S
C558 H544 0.930 . S
C558 C556 1.395 . S
C558 C561 1.403 . S
C559 C556 1.403 . S
C559 C560 1.524 . S
C559 C563 1.400 . S
C560 H545 0.960 . S
C560 H546 0.960 . S
C560 H547 0.960 . S
C560 C559 1.524 . S
C561 C558 1.403 . S
C561 C562 1.392 . S
C561 C565 1.495 . S
C562 C561 1.392 . S
C562 C563 1.385 . S
C562 C564 1.478 . S
C563 H557 0.930 . S
C563 C559 1.400 . S
C563 C562 1.385 . S
C564 C562 1.478 . S
C564 C566 1.381 . S
C564 C570 1.383 . S
C565 C561 1.495 . S
C565 H571 0.959 . S
C565 H572 0.961 . S
C565 H573 0.960 . S
C566 C564 1.381 . S
C566 C567 1.394 . S
C566 H574 0.930 . S
C567 C566 1.394 . S
C567 C568 1.383 . S
C567 H575 0.929 . S
C568 C567 1.383 . S
C568 C569 1.377 . S
C569 H553 0.930 . S
C569 C568 1.377 . S
C569 C570 1.379 . S
C570 H554 0.931 . S
C570 C564 1.383 . S
C570 C569 1.379 . S
H571 C565 0.959 . S
H572 C565 0.961 . S
H573 C565 0.960 . S
H574 C566 0.930 . S
H575 C567 0.929 . S
H576 C584 0.929 . S
H577 C586 0.930 . S
H578 C588 0.930 . S
H579 C591 0.929 . S
H580 C594 0.930 . S
H581 C596 0.960 . S
H582 C596 0.960 . S
H583 C596 0.960 . S
C584 H576 0.929 . S
C584 C585 1.377 . S
C584 C586 1.384 . S
C585 C584 1.377 . S
C585 C591 1.390 . S
C586 H577 0.930 . S
C586 C584 1.384 . S
C586 C587 1.372 . S
C587 C586 1.372 . S
C587 C588 1.400 . S
C587 C592 1.490 . S
C588 H578 0.930 . S
C588 C587 1.400 . S
C588 C591 1.386 . S
H589 C605 0.930 . S
H590 C606 0.931 . S
C591 H579 0.929 . S
C591 C585 1.390 . S
C591 C588 1.386 . S
C592 C587 1.490 . S
C592 C594 1.395 . S
C592 C595 1.403 . S
H593 C599 0.930 . S
C594 H580 0.930 . S
C594 C592 1.395 . S
C594 C597 1.403 . S
C595 C592 1.403 . S
C595 C596 1.524 . S
C595 C599 1.400 . S
C596 H581 0.960 . S
C596 H582 0.960 . S
C596 H583 0.960 . S
C596 C595 1.524 . S
C597 C594 1.403 . S
C597 C598 1.392 . S
C597 C601 1.495 . S
C598 C597 1.392 . S
C598 C599 1.385 . S
C598 C600 1.478 . S
C599 H593 0.930 . S
C599 C595 1.400 . S
C599 C598 1.385 . S
C600 C598 1.478 . S
C600 C602 1.381 . S
C600 C606 1.383 . S
C601 C597 1.495 . S
C601 H607 0.959 . S
C601 H608 0.961 . S
C601 H609 0.960 . S
C602 C600 1.381 . S
C602 C603 1.394 . S
C602 H610 0.930 . S
C603 C602 1.394 . S
C603 C604 1.383 . S
C603 H611 0.929 . S
C604 C603 1.383 . S
C604 C605 1.377 . S
C605 H589 0.930 . S
C605 C604 1.377 . S
C605 C606 1.379 . S
C606 H590 0.931 . S
C606 C600 1.383 . S
C606 C605 1.379 . S
H607 C601 0.959 . S
H608 C601 0.961 . S
H609 C601 0.960 . S
H610 C602 0.930 . S
H611 C603 0.929 . S
H612 C620 0.929 . S
H613 C622 0.930 . S
H614 C624 0.930 . S
H615 C627 0.929 . S
H616 C630 0.930 . S
H617 C632 0.960 . S
H618 C632 0.960 . S
H619 C632 0.960 . S
C620 H612 0.929 . S
C620 C621 1.377 . S
C620 C622 1.384 . S
C621 C620 1.377 . S
C621 C627 1.390 . S
C622 H613 0.930 . S
C622 C620 1.384 . S
C622 C623 1.372 . S
C623 C622 1.372 . S
C623 C624 1.400 . S
C623 C628 1.490 . S
C624 H614 0.930 . S
C624 C623 1.400 . S
C624 C627 1.386 . S
H625 C641 0.930 . S
H626 C642 0.931 . S
C627 H615 0.929 . S
C627 C621 1.390 . S
C627 C624 1.386 . S
C628 C623 1.490 . S
C628 C630 1.395 . S
C628 C631 1.403 . S
H629 C635 0.930 . S
C630 H616 0.930 . S
C630 C628 1.395 . S
C630 C633 1.403 . S
C631 C628 1.403 . S
C631 C632 1.524 . S
C631 C635 1.400 . S
C632 H617 0.960 . S
C632 H618 0.960 . S
C632 H619 0.960 . S
C632 C631 1.524 . S
C633 C630 1.403 . S
C633 C634 1.392 . S
C633 C637 1.495 . S
C634 C633 1.392 . S
C634 C635 1.385 . S
C634 C636 1.478 . S
C635 H629 0.930 . S
C635 C631 1.400 . S
C635 C634 1.385 . S
C636 C634 1.478 . S
C636 C638 1.381 . S
C636 C642 1.383 . S
C637 C633 1.495 . S
C637 H643 0.959 . S
C637 H644 0.961 . S
C637 H645 0.960 . S
C638 C636 1.381 . S
C638 C639 1.394 . S
C638 H646 0.930 . S
C639 C638 1.394 . S
C639 C640 1.383 . S
C639 H647 0.929 . S
C640 C639 1.383 . S
C640 C641 1.377 . S
C641 H625 0.930 . S
C641 C640 1.377 . S
C641 C642 1.379 . S
C642 H626 0.931 . S
C642 C636 1.383 . S
C642 C641 1.379 . S
H643 C637 0.959 . S
H644 C637 0.961 . S
H645 C637 0.960 . S
H646 C638 0.930 . S
H647 C639 0.929 . S
H648 C656 0.929 . S
H649 C658 0.930 . S
H650 C660 0.930 . S
H651 C663 0.929 1_554 S
H652 C666 0.930 . S
H653 C668 0.960 . S
H654 C668 0.960 . S
H655 C668 0.960 . S
C656 H648 0.929 . S
C656 C657 1.377 . S
C656 C658 1.384 . S
C657 C656 1.377 . S
C657 C663 1.390 . S
C658 H649 0.930 . S
C658 C656 1.384 . S
C658 C659 1.372 . S
C659 C658 1.372 . S
C659 C660 1.400 . S
C659 C664 1.490 . S
C660 H650 0.930 . S
C660 C659 1.400 . S
C660 C663 1.386 . S
H661 C677 0.930 . S
H662 C678 0.931 . S
C663 H651 0.929 1_556 S
C663 C657 1.390 . S
C663 C660 1.386 . S
C664 C659 1.490 . S
C664 C666 1.395 . S
C664 C667 1.403 . S
H665 C671 0.930 . S
C666 H652 0.930 . S
C666 C664 1.395 . S
C666 C669 1.403 . S
C667 C664 1.403 . S
C667 C668 1.524 . S
C667 C671 1.400 . S
C668 H653 0.960 . S
C668 H654 0.960 . S
C668 H655 0.960 . S
C668 C667 1.524 . S
C669 C666 1.403 . S
C669 C670 1.392 . S
C669 C673 1.495 . S
C670 C669 1.392 . S
C670 C671 1.385 . S
C670 C672 1.478 . S
C671 H665 0.930 . S
C671 C667 1.400 . S
C671 C670 1.385 . S
C672 C670 1.478 . S
C672 C674 1.381 . S
C672 C678 1.383 . S
C673 C669 1.495 . S
C673 H679 0.959 . S
C673 H680 0.961 . S
C673 H681 0.960 . S
C674 C672 1.381 . S
C674 C675 1.394 . S
C674 H682 0.930 . S
C675 C674 1.394 . S
C675 C676 1.383 . S
C675 H683 0.929 . S
C676 C675 1.383 . S
C676 C677 1.377 . S
C677 H661 0.930 . S
C677 C676 1.377 . S
C677 C678 1.379 . S
C678 H662 0.931 . S
C678 C672 1.383 . S
C678 C677 1.379 . S
H679 C673 0.959 . S
H680 C673 0.961 . S
H681 C673 0.960 . S
H682 C674 0.930 . S
H683 C675 0.929 . S
H684 C692 0.929 . S
H685 C694 0.930 . S
H686 C696 0.930 . S
H687 C699 0.929 . S
H688 C702 0.930 . S
H689 C704 0.960 . S
H690 C704 0.960 . S
H691 C704 0.960 . S
C692 H684 0.929 . S
C692 C693 1.377 . S
C692 C694 1.384 . S
C693 C692 1.377 . S
C693 C699 1.390 . S
C694 H685 0.930 . S
C694 C692 1.384 . S
C694 C695 1.372 . S
C695 C694 1.372 . S
C695 C696 1.400 . S
C695 C700 1.490 . S
C696 H686 0.930 . S
C696 C695 1.400 . S
C696 C699 1.386 . S
H697 C713 0.930 . S
H698 C714 0.931 . S
C699 H687 0.929 . S
C699 C693 1.390 . S
C699 C696 1.386 . S
C700 C695 1.490 . S
C700 C702 1.395 . S
C700 C703 1.403 . S
H701 C707 0.930 . S
C702 H688 0.930 . S
C702 C700 1.395 . S
C702 C705 1.403 . S
C703 C700 1.403 . S
C703 C704 1.524 . S
C703 C707 1.400 . S
C704 H689 0.960 . S
C704 H690 0.960 . S
C704 H691 0.960 . S
C704 C703 1.524 . S
C705 C702 1.403 . S
C705 C706 1.392 . S
C705 C709 1.495 . S
C706 C705 1.392 . S
C706 C707 1.385 . S
C706 C708 1.478 . S
C707 H701 0.930 . S
C707 C703 1.400 . S
C707 C706 1.385 . S
C708 C706 1.478 . S
C708 C710 1.381 . S
C708 C714 1.383 . S
C709 C705 1.495 . S
C709 H715 0.959 . S
C709 H716 0.961 . S
C709 H717 0.960 . S
C710 C708 1.381 . S
C710 C711 1.394 . S
C710 H718 0.930 . S
C711 C710 1.394 . S
C711 C712 1.383 . S
C711 H719 0.929 . S
C712 C711 1.383 . S
C712 C713 1.377 . S
C713 H697 0.930 . S
C713 C712 1.377 . S
C713 C714 1.379 . S
C714 H698 0.931 . S
C714 C708 1.383 . S
C714 C713 1.379 . S
H715 C709 0.959 . S
H716 C709 0.961 . S
H717 C709 0.960 . S
H718 C710 0.930 . S
H719 C711 0.929 . S
H720 C728 0.929 . S
H721 C730 0.930 . S
H722 C732 0.930 . S
H723 C735 0.929 . S
H724 C738 0.930 . S
H725 C740 0.960 . S
H726 C740 0.960 . S
H727 C740 0.960 . S
C728 H720 0.929 . S
C728 C729 1.377 . S
C728 C730 1.384 . S
C729 C728 1.377 . S
C729 C735 1.390 . S
C730 H721 0.930 . S
C730 C728 1.384 . S
C730 C731 1.372 . S
C731 C730 1.372 . S
C731 C732 1.400 . S
C731 C736 1.490 . S
C732 H722 0.930 . S
C732 C731 1.400 . S
C732 C735 1.386 . S
H733 C749 0.930 . S
H734 C750 0.931 . S
C735 H723 0.929 . S
C735 C729 1.390 . S
C735 C732 1.386 . S
C736 C731 1.490 . S
C736 C738 1.395 . S
C736 C739 1.403 . S
H737 C743 0.930 . S
C738 H724 0.930 . S
C738 C736 1.395 . S
C738 C741 1.403 . S
C739 C736 1.403 . S
C739 C740 1.524 . S
C739 C743 1.400 . S
C740 H725 0.960 . S
C740 H726 0.960 . S
C740 H727 0.960 . S
C740 C739 1.524 . S
C741 C738 1.403 . S
C741 C742 1.392 . S
C741 C745 1.495 . S
C742 C741 1.392 . S
C742 C743 1.385 . S
C742 C744 1.478 . S
C743 H737 0.930 . S
C743 C739 1.400 . S
C743 C742 1.385 . S
C744 C742 1.478 . S
C744 C746 1.381 . S
C744 C750 1.383 . S
C745 C741 1.495 . S
C745 H751 0.959 . S
C745 H752 0.961 . S
C745 H753 0.960 . S
C746 C744 1.381 . S
C746 C747 1.394 . S
C746 H754 0.930 . S
C747 C746 1.394 . S
C747 C748 1.383 . S
C747 H755 0.929 . S
C748 C747 1.383 . S
C748 C749 1.377 . S
C749 H733 0.930 . S
C749 C748 1.377 . S
C749 C750 1.379 . S
C750 H734 0.931 . S
C750 C744 1.383 . S
C750 C749 1.379 . S
H751 C745 0.959 . S
H752 C745 0.961 . S
H753 C745 0.960 . S
H754 C746 0.930 . S
H755 C747 0.929 . S
H756 C764 0.929 . S
H757 C766 0.930 . S
H758 C768 0.930 . S
H759 C771 0.929 . S
H760 C774 0.930 . S
H761 C776 0.960 . S
H762 C776 0.960 . S
H763 C776 0.960 . S
C764 H756 0.929 . S
C764 C765 1.377 . S
C764 C766 1.384 . S
C765 C764 1.377 . S
C765 C771 1.390 . S
C766 H757 0.930 . S
C766 C764 1.384 . S
C766 C767 1.372 . S
C767 C766 1.372 . S
C767 C768 1.400 . S
C767 C772 1.490 . S
C768 H758 0.930 . S
C768 C767 1.400 . S
C768 C771 1.386 . S
H769 C785 0.930 . S
H770 C786 0.931 . S
C771 H759 0.929 . S
C771 C765 1.390 . S
C771 C768 1.386 . S
C772 C767 1.490 . S
C772 C774 1.395 . S
C772 C775 1.403 . S
H773 C779 0.930 . S
C774 H760 0.930 . S
C774 C772 1.395 . S
C774 C777 1.403 . S
C775 C772 1.403 . S
C775 C776 1.524 . S
C775 C779 1.400 . S
C776 H761 0.960 . S
C776 H762 0.960 . S
C776 H763 0.960 . S
C776 C775 1.524 . S
C777 C774 1.403 . S
C777 C778 1.392 . S
C777 C781 1.495 . S
C778 C777 1.392 . S
C778 C779 1.385 . S
C778 C780 1.478 . S
C779 H773 0.930 . S
C779 C775 1.400 . S
C779 C778 1.385 . S
C780 C778 1.478 . S
C780 C782 1.381 . S
C780 C786 1.383 . S
C781 C777 1.495 . S
C781 H787 0.959 . S
C781 H788 0.961 . S
C781 H789 0.960 . S
C782 C780 1.381 . S
C782 C783 1.394 . S
C782 H790 0.930 . S
C783 C782 1.394 . S
C783 C784 1.383 . S
C783 H791 0.929 . S
C784 C783 1.383 . S
C784 C785 1.377 . S
C785 H769 0.930 . S
C785 C784 1.377 . S
C785 C786 1.379 . S
C786 H770 0.931 . S
C786 C780 1.383 . S
C786 C785 1.379 . S
H787 C781 0.959 . S
H788 C781 0.961 . S
H789 C781 0.960 . S
H790 C782 0.930 . S
H791 C783 0.929 . S
H792 C800 0.929 . S
H793 C802 0.930 . S
H794 C804 0.930 . S
H795 C807 0.929 . S
H796 C810 0.930 . S
H797 C812 0.960 . S
H798 C812 0.960 . S
H799 C812 0.960 . S
C800 H792 0.929 . S
C800 C801 1.377 . S
C800 C802 1.384 . S
C801 C800 1.377 . S
C801 C807 1.390 . S
C802 H793 0.930 . S
C802 C800 1.384 . S
C802 C803 1.372 . S
C803 C802 1.372 . S
C803 C804 1.400 . S
C803 C808 1.490 . S
C804 H794 0.930 . S
C804 C803 1.400 . S
C804 C807 1.386 . S
H805 C821 0.930 . S
H806 C822 0.931 . S
C807 H795 0.929 . S
C807 C801 1.390 . S
C807 C804 1.386 . S
C808 C803 1.490 . S
C808 C810 1.395 . S
C808 C811 1.403 . S
H809 C815 0.930 . S
C810 H796 0.930 . S
C810 C808 1.395 . S
C810 C813 1.403 . S
C811 C808 1.403 . S
C811 C812 1.524 . S
C811 C815 1.400 . S
C812 H797 0.960 . S
C812 H798 0.960 . S
C812 H799 0.960 . S
C812 C811 1.524 . S
C813 C810 1.403 . S
C813 C814 1.392 . S
C813 C817 1.495 . S
C814 C813 1.392 . S
C814 C815 1.385 . S
C814 C816 1.478 . S
C815 H809 0.930 . S
C815 C811 1.400 . S
C815 C814 1.385 . S
C816 C814 1.478 . S
C816 C818 1.381 . S
C816 C822 1.383 . S
C817 C813 1.495 . S
C817 H823 0.959 . S
C817 H824 0.961 . S
C817 H825 0.960 . S
C818 C816 1.381 . S
C818 C819 1.394 . S
C818 H826 0.930 . S
C819 C818 1.394 . S
C819 C820 1.383 . S
C819 H827 0.929 . S
C820 C819 1.383 . S
C820 C821 1.377 . S
C821 H805 0.930 . S
C821 C820 1.377 . S
C821 C822 1.379 . S
C822 H806 0.931 . S
C822 C816 1.383 . S
C822 C821 1.379 . S
H823 C817 0.959 . S
H824 C817 0.961 . S
H825 C817 0.960 . S
H826 C818 0.930 . S
H827 C819 0.929 . S
H828 C836 0.929 . S
H829 C838 0.930 . S
H830 C840 0.930 . S
H831 C843 0.929 . S
H832 C846 0.930 . S
H833 C848 0.960 . S
H834 C848 0.960 . S
H835 C848 0.960 . S
C836 H828 0.929 . S
C836 C837 1.377 . S
C836 C838 1.384 . S
C837 C836 1.377 . S
C837 C843 1.390 . S
C838 H829 0.930 . S
C838 C836 1.384 . S
C838 C839 1.372 . S
C839 C838 1.372 . S
C839 C840 1.400 . S
C839 C844 1.490 . S
C840 H830 0.930 . S
C840 C839 1.400 . S
C840 C843 1.386 . S
H841 C857 0.930 . S
H842 C858 0.931 . S
C843 H831 0.929 . S
C843 C837 1.390 . S
C843 C840 1.386 . S
C844 C839 1.490 . S
C844 C846 1.395 . S
C844 C847 1.403 . S
H845 C851 0.930 . S
C846 H832 0.930 . S
C846 C844 1.395 . S
C846 C849 1.403 . S
C847 C844 1.403 . S
C847 C848 1.524 . S
C847 C851 1.400 . S
C848 H833 0.960 . S
C848 H834 0.960 . S
C848 H835 0.960 . S
C848 C847 1.524 . S
C849 C846 1.403 . S
C849 C850 1.392 . S
C849 C853 1.495 . S
C850 C849 1.392 . S
C850 C851 1.385 . S
C850 C852 1.478 . S
C851 H845 0.930 . S
C851 C847 1.400 . S
C851 C850 1.385 . S
C852 C850 1.478 . S
C852 C854 1.381 . S
C852 C858 1.383 . S
C853 C849 1.495 . S
C853 H859 0.959 . S
C853 H860 0.961 . S
C853 H861 0.960 . S
C854 C852 1.381 . S
C854 C855 1.394 . S
C854 H862 0.930 . S
C855 C854 1.394 . S
C855 C856 1.383 . S
C855 H863 0.929 . S
C856 C855 1.383 . S
C856 C857 1.377 . S
C857 H841 0.930 . S
C857 C856 1.377 . S
C857 C858 1.379 . S
C858 H842 0.931 . S
C858 C852 1.383 . S
C858 C857 1.379 . S
H859 C853 0.959 . S
H860 C853 0.961 . S
H861 C853 0.960 . S
H862 C854 0.930 . S
H863 C855 0.929 . S
H864 C872 0.929 . S
H865 C874 0.930 . S
H866 C876 0.930 . S
H867 C879 0.929 . S
H868 C882 0.930 . S
H869 C884 0.960 . S
H870 C884 0.960 . S
H871 C884 0.960 . S
C872 H864 0.929 . S
C872 C873 1.377 . S
C872 C874 1.384 . S
C873 C872 1.377 . S
C873 C879 1.390 . S
C874 H865 0.930 . S
C874 C872 1.384 . S
C874 C875 1.372 . S
C875 C874 1.372 . S
C875 C876 1.400 . S
C875 C880 1.490 . S
C876 H866 0.930 . S
C876 C875 1.400 . S
C876 C879 1.386 . S
H877 C893 0.930 . S
H878 C894 0.931 . S
C879 H867 0.929 . S
C879 C873 1.390 . S
C879 C876 1.386 . S
C880 C875 1.490 . S
C880 C882 1.395 . S
C880 C883 1.403 . S
H881 C887 0.930 . S
C882 H868 0.930 . S
C882 C880 1.395 . S
C882 C885 1.403 . S
C883 C880 1.403 . S
C883 C884 1.524 . S
C883 C887 1.400 . S
C884 H869 0.960 . S
C884 H870 0.960 . S
C884 H871 0.960 . S
C884 C883 1.524 . S
C885 C882 1.403 . S
C885 C886 1.392 . S
C885 C889 1.495 . S
C886 C885 1.392 . S
C886 C887 1.385 . S
C886 C888 1.478 . S
C887 H881 0.930 . S
C887 C883 1.400 . S
C887 C886 1.385 . S
C888 C886 1.478 . S
C888 C890 1.381 . S
C888 C894 1.383 . S
C889 C885 1.495 . S
C889 H895 0.959 . S
C889 H896 0.961 . S
C889 H897 0.960 . S
C890 C888 1.381 . S
C890 C891 1.394 . S
C890 H898 0.930 . S
C891 C890 1.394 . S
C891 C892 1.383 . S
C891 H899 0.929 . S
C892 C891 1.383 . S
C892 C893 1.377 . S
C893 H877 0.930 . S
C893 C892 1.377 . S
C893 C894 1.379 . S
C894 H878 0.931 . S
C894 C888 1.383 . S
C894 C893 1.379 . S
H895 C889 0.959 . S
H896 C889 0.961 . S
H897 C889 0.960 . S
H898 C890 0.930 . S
H899 C891 0.929 . S
H900 C908 0.929 . S
H901 C910 0.930 . S
H902 C912 0.930 . S
H903 C915 0.929 . S
H904 C918 0.930 . S
H905 C920 0.960 . S
H906 C920 0.960 . S
H907 C920 0.960 . S
C908 H900 0.929 . S
C908 C909 1.377 . S
C908 C910 1.384 . S
C909 C908 1.377 . S
C909 C915 1.390 . S
C910 H901 0.930 . S
C910 C908 1.384 . S
C910 C911 1.372 . S
C911 C910 1.372 . S
C911 C912 1.400 . S
C911 C916 1.490 . S
C912 H902 0.930 . S
C912 C911 1.400 . S
C912 C915 1.386 . S
H913 C929 0.930 . S
H914 C930 0.931 . S
C915 H903 0.929 . S
C915 C909 1.390 . S
C915 C912 1.386 . S
C916 C911 1.490 . S
C916 C918 1.395 . S
C916 C919 1.403 . S
H917 C923 0.930 . S
C918 H904 0.930 . S
C918 C916 1.395 . S
C918 C921 1.403 . S
C919 C916 1.403 . S
C919 C920 1.524 . S
C919 C923 1.400 . S
C920 H905 0.960 . S
C920 H906 0.960 . S
C920 H907 0.960 . S
C920 C919 1.524 . S
C921 C918 1.403 . S
C921 C922 1.392 . S
C921 C925 1.495 . S
C922 C921 1.392 . S
C922 C923 1.385 . S
C922 C924 1.478 . S
C923 H917 0.930 . S
C923 C919 1.400 . S
C923 C922 1.385 . S
C924 C922 1.478 . S
C924 C926 1.381 . S
C924 C930 1.383 . S
C925 C921 1.495 . S
C925 H931 0.959 . S
C925 H932 0.961 . S
C925 H933 0.960 . S
C926 C924 1.381 . S
C926 C927 1.394 . S
C926 H934 0.930 . S
C927 C926 1.394 . S
C927 C928 1.383 . S
C927 H935 0.929 . S
C928 C927 1.383 . S
C928 C929 1.377 . S
C929 H913 0.930 . S
C929 C928 1.377 . S
C929 C930 1.379 . S
C930 H914 0.931 . S
C930 C924 1.383 . S
C930 C929 1.379 . S
H931 C925 0.959 . S
H932 C925 0.961 . S
H933 C925 0.960 . S
H934 C926 0.930 . S
H935 C927 0.929 . S
H936 C944 0.929 . S
H937 C946 0.930 . S
H938 C948 0.930 . S
H939 C951 0.929 . S
H940 C954 0.930 . S
H941 C956 0.960 . S
H942 C956 0.960 . S
H943 C956 0.960 . S
C944 H936 0.929 . S
C944 C945 1.377 . S
C944 C946 1.384 . S
C945 C944 1.377 . S
C945 C951 1.390 . S
C946 H937 0.930 . S
C946 C944 1.384 . S
C946 C947 1.372 . S
C947 C946 1.372 . S
C947 C948 1.400 . S
C947 C952 1.490 . S
C948 H938 0.930 . S
C948 C947 1.400 . S
C948 C951 1.386 . S
H949 C965 0.930 . S
H950 C966 0.931 . S
C951 H939 0.929 . S
C951 C945 1.390 . S
C951 C948 1.386 . S
C952 C947 1.490 . S
C952 C954 1.395 . S
C952 C955 1.403 . S
H953 C959 0.930 . S
C954 H940 0.930 . S
C954 C952 1.395 . S
C954 C957 1.403 . S
C955 C952 1.403 . S
C955 C956 1.524 . S
C955 C959 1.400 . S
C956 H941 0.960 . S
C956 H942 0.960 . S
C956 H943 0.960 . S
C956 C955 1.524 . S
C957 C954 1.403 . S
C957 C958 1.392 . S
C957 C961 1.495 . S
C958 C957 1.392 . S
C958 C959 1.385 . S
C958 C960 1.478 . S
C959 H953 0.930 . S
C959 C955 1.400 . S
C959 C958 1.385 . S
C960 C958 1.478 . S
C960 C962 1.381 . S
C960 C966 1.383 . S
C961 C957 1.495 . S
C961 H967 0.959 . S
C961 H968 0.961 . S
C961 H969 0.960 . S
C962 C960 1.381 . S
C962 C963 1.394 . S
C962 H970 0.930 . S
C963 C962 1.394 . S
C963 C964 1.383 . S
C963 H971 0.929 . S
C964 C963 1.383 . S
C964 C965 1.377 . S
C965 H949 0.930 . S
C965 C964 1.377 . S
C965 C966 1.379 . S
C966 H950 0.931 . S
C966 C960 1.383 . S
C966 C965 1.379 . S
H967 C961 0.959 . S
H968 C961 0.961 . S
H969 C961 0.960 . S
H970 C962 0.930 . S
H971 C963 0.929 . S
H972 C980 0.929 . S
H973 C982 0.930 . S
H974 C984 0.930 . S
H975 C987 0.929 . S
H976 C990 0.930 . S
H977 C992 0.960 . S
H978 C992 0.960 . S
H979 C992 0.960 . S
C980 H972 0.929 . S
C980 C981 1.377 . S
C980 C982 1.384 . S
C981 C980 1.377 . S
C981 C987 1.390 . S
C982 H973 0.930 . S
C982 C980 1.384 . S
C982 C983 1.372 . S
C983 C982 1.372 . S
C983 C984 1.400 . S
C983 C988 1.490 . S
C984 H974 0.930 . S
C984 C983 1.400 . S
C984 C987 1.386 . S
H985 C1001 0.930 . S
H986 C1002 0.931 . S
C987 H975 0.929 . S
C987 C981 1.390 . S
C987 C984 1.386 . S
C988 C983 1.490 . S
C988 C990 1.395 . S
C988 C991 1.403 . S
H989 C995 0.930 . S
C990 H976 0.930 . S
C990 C988 1.395 . S
C990 C993 1.403 . S
C991 C988 1.403 . S
C991 C992 1.524 . S
C991 C995 1.400 . S
C992 H977 0.960 . S
C992 H978 0.960 . S
C992 H979 0.960 . S
C992 C991 1.524 . S
C993 C990 1.403 . S
C993 C994 1.392 . S
C993 C997 1.495 . S
C994 C993 1.392 . S
C994 C995 1.385 . S
C994 C996 1.478 . S
C995 H989 0.930 . S
C995 C991 1.400 . S
C995 C994 1.385 . S
C996 C994 1.478 . S
C996 C998 1.381 . S
C996 C1002 1.383 . S
C997 C993 1.495 . S
C997 H1003 0.959 . S
C997 H1004 0.961 . S
C997 H1005 0.960 . S
C998 C996 1.381 . S
C998 C999 1.394 . S
C998 H1006 0.930 . S
C999 C998 1.394 . S
C999 C1000 1.383 . S
C999 H1007 0.929 . S
C1000 C999 1.383 . S
C1000 C1001 1.377 . S
C1001 H985 0.930 . S
C1001 C1000 1.377 . S
C1001 C1002 1.379 . S
C1002 H986 0.931 . S
C1002 C996 1.383 . S
C1002 C1001 1.379 . S
H1003 C997 0.959 . S
H1004 C997 0.961 . S
H1005 C997 0.960 . S
H1006 C998 0.930 . S
H1007 C999 0.929 . S
H1008 C1016 0.929 . S
H1009 C1018 0.930 . S
H1010 C1020 0.930 . S
H1011 C1023 0.929 . S
H1012 C1026 0.930 . S
H1013 C1028 0.960 . S
H1014 C1028 0.960 . S
H1015 C1028 0.960 . S
C1016 H1008 0.929 . S
C1016 C1017 1.377 . S
C1016 C1018 1.384 . S
C1017 C1016 1.377 . S
C1017 C1023 1.390 . S
C1018 H1009 0.930 . S
C1018 C1016 1.384 . S
C1018 C1019 1.372 . S
C1019 C1018 1.372 . S
C1019 C1020 1.400 . S
C1019 C1024 1.490 . S
C1020 H1010 0.930 . S
C1020 C1019 1.400 . S
C1020 C1023 1.386 . S
H1021 C1037 0.930 . S
H1022 C1038 0.931 1_556 S
C1023 H1011 0.929 . S
C1023 C1017 1.390 . S
C1023 C1020 1.386 . S
C1024 C1019 1.490 . S
C1024 C1026 1.395 . S
C1024 C1027 1.403 . S
H1025 C1031 0.930 . S
C1026 H1012 0.930 . S
C1026 C1024 1.395 . S
C1026 C1029 1.403 . S
C1027 C1024 1.403 . S
C1027 C1028 1.524 . S
C1027 C1031 1.400 . S
C1028 H1013 0.960 . S
C1028 H1014 0.960 . S
C1028 H1015 0.960 . S
C1028 C1027 1.524 . S
C1029 C1026 1.403 . S
C1029 C1030 1.392 . S
C1029 C1033 1.495 . S
C1030 C1029 1.392 . S
C1030 C1031 1.385 . S
C1030 C1032 1.478 . S
C1031 H1025 0.930 . S
C1031 C1027 1.400 . S
C1031 C1030 1.385 . S
C1032 C1030 1.478 . S
C1032 C1034 1.381 . S
C1032 C1038 1.383 . S
C1033 C1029 1.495 . S
C1033 H1039 0.959 . S
C1033 H1040 0.961 . S
C1033 H1041 0.960 . S
C1034 C1032 1.381 . S
C1034 C1035 1.394 . S
C1034 H1042 0.930 . S
C1035 C1034 1.394 . S
C1035 C1036 1.383 1_554 S
C1035 H1043 0.929 . S
C1036 C1035 1.383 1_556 S
C1036 C1037 1.377 . S
C1037 H1021 0.930 . S
C1037 C1036 1.377 . S
C1037 C1038 1.379 1_556 S
C1038 H1022 0.931 1_554 S
C1038 C1032 1.383 . S
C1038 C1037 1.379 1_554 S
H1039 C1033 0.959 . S
H1040 C1033 0.961 . S
H1041 C1033 0.960 . S
H1042 C1034 0.930 . S
H1043 C1035 0.929 . S
H1044 C1052 0.929 . S
H1045 C1054 0.930 . S
H1046 C1056 0.930 . S
H1047 C1059 0.929 . S
H1048 C1062 0.930 . S
H1049 C1064 0.960 . S
H1050 C1064 0.960 . S
H1051 C1064 0.960 1_556 S
C1052 H1044 0.929 . S
C1052 C1053 1.377 1_554 S
C1052 C1054 1.384 . S
C1053 C1052 1.377 1_556 S
C1053 C1059 1.390 . S
C1054 H1045 0.930 . S
C1054 C1052 1.384 . S
C1054 C1055 1.372 . S
C1055 C1054 1.372 . S
C1055 C1056 1.400 1_554 S
C1055 C1060 1.490 . S
C1056 H1046 0.930 . S
C1056 C1055 1.400 1_556 S
C1056 C1059 1.386 . S
H1057 C1073 0.930 . S
H1058 C1074 0.931 . S
C1059 H1047 0.929 . S
C1059 C1053 1.390 . S
C1059 C1056 1.386 . S
C1060 C1055 1.490 . S
C1060 C1062 1.395 . S
C1060 C1063 1.403 . S
H1061 C1067 0.930 1_455 S
C1062 H1048 0.930 . S
C1062 C1060 1.395 . S
C1062 C1065 1.403 . S
C1063 C1060 1.403 . S
C1063 C1064 1.524 1_655 S
C1063 C1067 1.400 . S
C1064 H1049 0.960 . S
C1064 H1050 0.960 . S
C1064 H1051 0.960 1_554 S
C1064 C1063 1.524 1_455 S
C1065 C1062 1.403 . S
C1065 C1066 1.392 . S
C1065 C1069 1.495 . S
C1066 C1065 1.392 . S
C1066 C1067 1.385 . S
C1066 C1068 1.478 . S
C1067 H1061 0.930 1_655 S
C1067 C1063 1.400 . S
C1067 C1066 1.385 . S
C1068 C1066 1.478 . S
C1068 C1070 1.381 . S
C1068 C1074 1.383 . S
C1069 C1065 1.495 . S
C1069 H1075 0.959 . S
C1069 H1076 0.961 . S
C1069 H1077 0.960 . S
C1070 C1068 1.381 . S
C1070 C1071 1.362 1_655 S
C1070 H1078 0.930 . S
C1071 C1070 1.362 1_455 S
C1071 C1072 1.415 . S
C1071 H1079 0.931 . S
C1072 C1071 1.415 . S
C1072 C1073 1.377 . S
C1073 H1057 0.930 . S
C1073 C1072 1.377 . S
C1073 C1074 1.379 1_455 S
C1074 H1058 0.931 . S
C1074 C1068 1.383 . S
C1074 C1073 1.379 1_655 S
H1075 C1069 0.959 . S
H1076 C1069 0.961 . S
H1077 C1069 0.960 . S
H1078 C1070 0.930 . S
H1079 C1071 0.931 . S
H1080 C1088 0.929 . S
H1081 C1090 0.930 . S
H1082 C1092 0.930 . S
H1083 C1095 0.929 1_556 S
H1084 C1098 0.930 . S
H1085 C1100 0.960 . S
H1086 C1100 0.960 . S
H1087 C1100 0.960 . S
C1088 H1080 0.929 . S
C1088 C1089 1.377 . S
C1088 C1090 1.384 . S
C1089 C1088 1.377 . S
C1089 C1095 1.390 . S
C1090 H1081 0.930 . S
C1090 C1088 1.384 . S
C1090 C1091 1.372 . S
C1091 C1090 1.372 . S
C1091 C1092 1.400 . S
C1091 C1096 1.490 . S
C1092 H1082 0.930 . S
C1092 C1091 1.400 . S
C1092 C1095 1.386 . S
H1093 C1109 0.930 . S
H1094 C1110 0.931 . S
C1095 H1083 0.929 1_554 S
C1095 C1089 1.390 . S
C1095 C1092 1.386 . S
C1096 C1091 1.490 . S
C1096 C1098 1.395 . S
C1096 C1099 1.403 . S
H1097 C1103 0.930 . S
C1098 H1084 0.930 . S
C1098 C1096 1.395 . S
C1098 C1101 1.403 . S
C1099 C1096 1.403 . S
C1099 C1100 1.524 . S
C1099 C1103 1.400 . S
C1100 H1085 0.960 . S
C1100 H1086 0.960 . S
C1100 H1087 0.960 . S
C1100 C1099 1.524 . S
C1101 C1098 1.403 . S
C1101 C1102 1.392 . S
C1101 C1105 1.495 . S
C1102 C1101 1.392 . S
C1102 C1103 1.385 . S
C1102 C1104 1.478 . S
C1103 H1097 0.930 . S
C1103 C1099 1.400 . S
C1103 C1102 1.385 . S
C1104 C1102 1.478 . S
C1104 C1106 1.381 . S
C1104 C1110 1.383 . S
C1105 C1101 1.495 . S
C1105 H1111 0.959 . S
C1105 H1112 0.961 . S
C1105 H1113 0.960 . S
C1106 C1104 1.381 . S
C1106 C1107 1.394 . S
C1106 H1114 0.930 . S
C1107 C1106 1.394 . S
C1107 C1108 1.383 . S
C1107 H1115 0.929 . S
C1108 C1107 1.383 . S
C1108 C1109 1.377 . S
C1109 H1093 0.930 . S
C1109 C1108 1.377 . S
C1109 C1110 1.379 . S
C1110 H1094 0.931 . S
C1110 C1104 1.383 . S
C1110 C1109 1.379 . S
H1111 C1105 0.959 . S
H1112 C1105 0.961 . S
H1113 C1105 0.960 . S
H1114 C1106 0.930 . S
H1115 C1107 0.929 . S
H1116 C1124 0.929 . S
H1117 C1126 0.930 . S
H1118 C1128 0.930 . S
H1119 C1131 0.929 . S
H1120 C1134 0.930 . S
H1121 C1136 0.960 . S
H1122 C1136 0.960 . S
H1123 C1136 0.960 . S
C1124 H1116 0.929 . S
C1124 C1125 1.377 . S
C1124 C1126 1.384 . S
C1125 C1124 1.377 . S
C1125 C1131 1.390 . S
C1126 H1117 0.930 . S
C1126 C1124 1.384 . S
C1126 C1127 1.372 . S
C1127 C1126 1.372 . S
C1127 C1128 1.400 . S
C1127 C1132 1.490 . S
C1128 H1118 0.930 . S
C1128 C1127 1.400 . S
C1128 C1131 1.386 . S
H1129 C1145 0.930 . S
H1130 C1146 0.931 . S
C1131 H1119 0.929 . S
C1131 C1125 1.390 . S
C1131 C1128 1.386 . S
C1132 C1127 1.490 . S
C1132 C1134 1.395 . S
C1132 C1135 1.403 . S
H1133 C1139 0.930 . S
C1134 H1120 0.930 . S
C1134 C1132 1.395 . S
C1134 C1137 1.403 . S
C1135 C1132 1.403 . S
C1135 C1136 1.524 . S
C1135 C1139 1.400 . S
C1136 H1121 0.960 . S
C1136 H1122 0.960 . S
C1136 H1123 0.960 . S
C1136 C1135 1.524 . S
C1137 C1134 1.403 . S
C1137 C1138 1.392 . S
C1137 C1141 1.495 . S
C1138 C1137 1.392 . S
C1138 C1139 1.385 . S
C1138 C1140 1.478 . S
C1139 H1133 0.930 . S
C1139 C1135 1.400 . S
C1139 C1138 1.385 . S
C1140 C1138 1.478 . S
C1140 C1142 1.381 . S
C1140 C1146 1.383 . S
C1141 C1137 1.495 . S
C1141 H1147 0.959 . S
C1141 H1148 0.961 . S
C1141 H1149 0.960 1_655 S
C1142 C1140 1.381 . S
C1142 C1143 1.394 . S
C1142 H1150 0.927 1_655 S
C1143 C1142 1.394 . S
C1143 C1144 1.383 . S
C1143 H1151 0.929 1_655 S
C1144 C1143 1.383 . S
C1144 C1145 1.377 . S
C1145 H1129 0.930 . S
C1145 C1144 1.377 . S
C1145 C1146 1.379 . S
C1146 H1130 0.931 . S
C1146 C1140 1.383 . S
C1146 C1145 1.379 . S
H1147 C1141 0.959 . S
H1148 C1141 0.961 . S
H1149 C1141 0.960 1_455 S
H1150 C1142 0.927 1_455 S
H1151 C1143 0.929 1_455 S
H1152 C1160 0.929 . S
H1153 C1162 0.930 . S
H1154 C1164 0.930 . S
H1155 C1167 0.929 . S
H1156 C1170 0.930 . S
H1157 C1172 0.960 . S
H1158 C1172 0.960 . S
H1159 C1172 0.960 . S
C1160 H1152 0.929 . S
C1160 C1161 1.377 . S
C1160 C1162 1.384 . S
C1161 C1160 1.377 . S
C1161 C1167 1.390 . S
C1162 H1153 0.930 . S
C1162 C1160 1.384 . S
C1162 C1163 1.372 . S
C1163 C1162 1.372 . S
C1163 C1164 1.400 . S
C1163 C1168 1.490 . S
C1164 H1154 0.930 . S
C1164 C1163 1.400 . S
C1164 C1167 1.386 . S
H1165 C1181 0.930 . S
H1166 C1182 0.931 . S
C1167 H1155 0.929 . S
C1167 C1161 1.390 . S
C1167 C1164 1.386 . S
C1168 C1163 1.490 . S
C1168 C1170 1.395 . S
C1168 C1171 1.403 . S
H1169 C1175 0.930 . S
C1170 H1156 0.930 . S
C1170 C1168 1.395 . S
C1170 C1173 1.403 . S
C1171 C1168 1.403 . S
C1171 C1172 1.524 . S
C1171 C1175 1.400 . S
C1172 H1157 0.960 . S
C1172 H1158 0.960 . S
C1172 H1159 0.960 . S
C1172 C1171 1.524 . S
C1173 C1170 1.403 . S
C1173 C1174 1.392 . S
C1173 C1177 1.495 . S
C1174 C1173 1.392 . S
C1174 C1175 1.385 . S
C1174 C1176 1.478 . S
C1175 H1169 0.930 . S
C1175 C1171 1.400 . S
C1175 C1174 1.385 . S
C1176 C1174 1.478 . S
C1176 C1178 1.381 . S
C1176 C1182 1.383 . S
C1177 C1173 1.495 . S
C1177 H1183 0.959 . S
C1177 H1184 0.961 . S
C1177 H1185 0.960 . S
C1178 C1176 1.381 . S
C1178 C1179 1.394 . S
C1178 H1186 0.930 . S
C1179 C1178 1.394 . S
C1179 C1180 1.383 . S
C1179 H1187 0.929 . S
C1180 C1179 1.383 . S
C1180 C1181 1.377 . S
C1181 H1165 0.930 . S
C1181 C1180 1.377 . S
C1181 C1182 1.379 . S
C1182 H1166 0.931 . S
C1182 C1176 1.383 . S
C1182 C1181 1.379 . S
H1183 C1177 0.959 . S
H1184 C1177 0.961 . S
H1185 C1177 0.960 . S
H1186 C1178 0.930 . S
H1187 C1179 0.929 . S
H1188 C1196 0.929 . S
H1189 C1198 0.930 . S
H1190 C1200 0.930 . S
H1191 C1203 0.929 . S
H1192 C1206 0.930 . S
H1193 C1208 0.960 . S
H1194 C1208 0.960 . S
H1195 C1208 0.960 . S
C1196 H1188 0.929 . S
C1196 C1197 1.377 . S
C1196 C1198 1.384 . S
C1197 C1196 1.377 . S
C1197 C1203 1.390 . S
C1198 H1189 0.930 . S
C1198 C1196 1.384 . S
C1198 C1199 1.372 . S
C1199 C1198 1.372 . S
C1199 C1200 1.400 . S
C1199 C1204 1.490 . S
C1200 H1190 0.930 . S
C1200 C1199 1.400 . S
C1200 C1203 1.386 . S
H1201 C1217 0.930 . S
H1202 C1218 0.931 . S
C1203 H1191 0.929 . S
C1203 C1197 1.390 . S
C1203 C1200 1.386 . S
C1204 C1199 1.490 . S
C1204 C1206 1.395 . S
C1204 C1207 1.403 . S
H1205 C1211 0.930 . S
C1206 H1192 0.930 . S
C1206 C1204 1.395 . S
C1206 C1209 1.403 . S
C1207 C1204 1.403 . S
C1207 C1208 1.524 . S
C1207 C1211 1.400 . S
C1208 H1193 0.960 . S
C1208 H1194 0.960 . S
C1208 H1195 0.960 . S
C1208 C1207 1.524 . S
C1209 C1206 1.403 . S
C1209 C1210 1.392 . S
C1209 C1213 1.495 . S
C1210 C1209 1.392 . S
C1210 C1211 1.385 . S
C1210 C1212 1.478 . S
C1211 H1205 0.930 . S
C1211 C1207 1.400 . S
C1211 C1210 1.385 . S
C1212 C1210 1.478 . S
C1212 C1214 1.381 . S
C1212 C1218 1.383 . S
C1213 C1209 1.495 . S
C1213 H1219 0.959 . S
C1213 H1220 0.961 . S
C1213 H1221 0.960 . S
C1214 C1212 1.381 . S
C1214 C1215 1.394 . S
C1214 H1222 0.930 . S
C1215 C1214 1.394 . S
C1215 C1216 1.383 . S
C1215 H1223 0.929 . S
C1216 C1215 1.383 . S
C1216 C1217 1.377 . S
C1217 H1201 0.930 . S
C1217 C1216 1.377 . S
C1217 C1218 1.379 . S
C1218 H1202 0.931 . S
C1218 C1212 1.383 . S
C1218 C1217 1.379 . S
H1219 C1213 0.959 . S
H1220 C1213 0.961 . S
H1221 C1213 0.960 . S
H1222 C1214 0.930 . S
H1223 C1215 0.929 . S
H1224 C1232 0.929 . S
H1225 C1234 0.930 . S
H1226 C1236 0.930 . S
H1227 C1239 0.929 . S
H1228 C1242 0.930 . S
H1229 C1244 0.960 . S
H1230 C1244 0.960 . S
H1231 C1244 0.960 . S
C1232 H1224 0.929 . S
C1232 C1233 1.377 1_556 S
C1232 C1234 1.384 . S
C1233 C1232 1.377 1_554 S
C1233 C1239 1.390 . S
C1234 H1225 0.930 . S
C1234 C1232 1.384 . S
C1234 C1235 1.372 . S
C1235 C1234 1.372 . S
C1235 C1236 1.400 1_556 S
C1235 C1240 1.490 . S
C1236 H1226 0.930 . S
C1236 C1235 1.400 1_554 S
C1236 C1239 1.386 . S
H1237 C1253 0.930 . S
H1238 C1254 0.917 1_565 S
C1239 H1227 0.929 . S
C1239 C1233 1.390 . S
C1239 C1236 1.386 . S
C1240 C1235 1.490 . S
C1240 C1242 1.395 . S
C1240 C1243 1.403 . S
H1241 C1247 0.930 . S
C1242 H1228 0.930 . S
C1242 C1240 1.395 . S
C1242 C1245 1.403 . S
C1243 C1240 1.403 . S
C1243 C1244 1.524 . S
C1243 C1247 1.400 . S
C1244 H1229 0.960 . S
C1244 H1230 0.960 . S
C1244 H1231 0.960 . S
C1244 C1243 1.524 . S
C1245 C1242 1.403 . S
C1245 C1246 1.392 . S
C1245 C1249 1.495 1_565 S
C1246 C1245 1.392 . S
C1246 C1247 1.385 . S
C1246 C1248 1.478 1_565 S
C1247 H1241 0.930 . S
C1247 C1243 1.400 . S
C1247 C1246 1.385 . S
C1248 C1246 1.478 1_545 S
C1248 C1250 1.381 . S
C1248 C1254 1.383 . S
C1249 C1245 1.495 1_545 S
C1249 H1255 0.959 . S
C1249 H1256 0.961 . S
C1249 H1257 0.960 . S
C1250 C1248 1.381 . S
C1250 C1251 1.394 . S
C1250 H1258 0.930 . S
C1251 C1250 1.394 . S
C1251 C1252 1.383 . S
C1251 H1259 0.929 . S
C1252 C1251 1.383 . S
C1252 C1253 1.377 . S
C1253 H1237 0.930 . S
C1253 C1252 1.377 . S
C1253 C1254 1.379 . S
C1254 H1238 0.917 1_545 S
C1254 C1248 1.383 . S
C1254 C1253 1.379 . S
H1255 C1249 0.959 . S
H1256 C1249 0.961 . S
H1257 C1249 0.960 . S
H1258 C1250 0.930 . S
H1259 C1251 0.929 . S
H1260 C1268 0.929 . S
H1261 C1270 0.930 . S
H1262 C1272 0.930 . S
H1263 C1275 0.929 . S
H1264 C1278 0.930 . S
H1265 C1280 0.960 . S
H1266 C1280 0.960 . S
H1267 C1280 0.960 . S
C1268 H1260 0.929 . S
C1268 C1269 1.377 . S
C1268 C1270 1.384 . S
C1269 C1268 1.377 . S
C1269 C1275 1.390 . S
C1270 H1261 0.930 . S
C1270 C1268 1.384 . S
C1270 C1271 1.372 . S
C1271 C1270 1.372 . S
C1271 C1272 1.400 . S
C1271 C1276 1.490 . S
C1272 H1262 0.930 . S
C1272 C1271 1.400 . S
C1272 C1275 1.386 . S
H1273 C1289 0.930 . S
H1274 C1290 0.931 . S
C1275 H1263 0.929 . S
C1275 C1269 1.390 . S
C1275 C1272 1.386 . S
C1276 C1271 1.490 . S
C1276 C1278 1.395 . S
C1276 C1279 1.403 . S
H1277 C1283 0.930 . S
C1278 H1264 0.930 . S
C1278 C1276 1.395 . S
C1278 C1281 1.403 . S
C1279 C1276 1.403 . S
C1279 C1280 1.524 . S
C1279 C1283 1.400 . S
C1280 H1265 0.960 . S
C1280 H1266 0.960 . S
C1280 H1267 0.960 . S
C1280 C1279 1.524 . S
C1281 C1278 1.403 . S
C1281 C1282 1.392 . S
C1281 C1285 1.495 . S
C1282 C1281 1.392 . S
C1282 C1283 1.385 . S
C1282 C1284 1.478 . S
C1283 H1277 0.930 . S
C1283 C1279 1.400 . S
C1283 C1282 1.385 . S
C1284 C1282 1.478 . S
C1284 C1286 1.381 . S
C1284 C1290 1.383 . S
C1285 C1281 1.495 . S
C1285 H1291 0.959 . S
C1285 H1292 0.961 . S
C1285 H1293 0.960 . S
C1286 C1284 1.381 . S
C1286 C1287 1.394 1_556 S
C1286 H1294 0.930 . S
C1287 C1286 1.394 1_554 S
C1287 C1288 1.383 . S
C1287 H1295 0.929 . S
C1288 C1287 1.383 . S
C1288 C1289 1.377 1_554 S
C1289 H1273 0.930 . S
C1289 C1288 1.377 1_556 S
C1289 C1290 1.379 . S
C1290 H1274 0.931 . S
C1290 C1284 1.383 . S
C1290 C1289 1.379 . S
H1291 C1285 0.959 . S
H1292 C1285 0.961 . S
H1293 C1285 0.960 . S
H1294 C1286 0.930 . S
H1295 C1287 0.929 . S
H1296 C1304 0.929 . S
H1297 C1306 0.930 . S
H1298 C1308 0.930 . S
H1299 C1311 0.929 . S
H1300 C1314 0.930 . S
H1301 C1316 0.960 . S
H1302 C1316 0.960 . S
H1303 C1316 0.960 . S
C1304 H1296 0.929 . S
C1304 C1305 1.377 . S
C1304 C1306 1.384 . S
C1305 C1304 1.377 . S
C1305 C1311 1.390 . S
C1306 H1297 0.930 . S
C1306 C1304 1.384 . S
C1306 C1307 1.372 . S
C1307 C1306 1.372 . S
C1307 C1308 1.400 . S
C1307 C1312 1.490 . S
C1308 H1298 0.930 . S
C1308 C1307 1.400 . S
C1308 C1311 1.386 . S
H1309 C1325 0.930 . S
H1310 C1326 0.931 . S
C1311 H1299 0.929 . S
C1311 C1305 1.390 . S
C1311 C1308 1.386 . S
C1312 C1307 1.490 . S
C1312 C1314 1.395 . S
C1312 C1315 1.403 . S
H1313 C1319 0.930 . S
C1314 H1300 0.930 . S
C1314 C1312 1.395 . S
C1314 C1317 1.403 . S
C1315 C1312 1.403 . S
C1315 C1316 1.524 . S
C1315 C1319 1.400 . S
C1316 H1301 0.960 . S
C1316 H1302 0.960 . S
C1316 H1303 0.960 . S
C1316 C1315 1.524 . S
C1317 C1314 1.403 . S
C1317 C1318 1.392 . S
C1317 C1321 1.495 . S
C1318 C1317 1.392 . S
C1318 C1319 1.385 . S
C1318 C1320 1.478 . S
C1319 H1313 0.930 . S
C1319 C1315 1.400 . S
C1319 C1318 1.385 . S
C1320 C1318 1.478 . S
C1320 C1322 1.381 . S
C1320 C1326 1.383 1_556 S
C1321 C1317 1.495 . S
C1321 H1327 0.959 . S
C1321 H1328 0.961 . S
C1321 H1329 0.960 . S
C1322 C1320 1.381 . S
C1322 C1323 1.394 . S
C1322 H1330 0.930 . S
C1323 C1322 1.394 . S
C1323 C1324 1.383 1_556 S
C1323 H1331 0.929 . S
C1324 C1323 1.383 1_554 S
C1324 C1325 1.377 . S
C1325 H1309 0.930 . S
C1325 C1324 1.377 . S
C1325 C1326 1.379 . S
C1326 H1310 0.931 . S
C1326 C1320 1.383 1_554 S
C1326 C1325 1.379 . S
H1327 C1321 0.959 . S
H1328 C1321 0.961 . S
H1329 C1321 0.960 . S
H1330 C1322 0.930 . S
H1331 C1323 0.929 . S
H1332 C1340 0.929 . S
H1333 C1342 0.930 . S
H1334 C1344 0.930 . S
H1335 C1347 0.929 . S
H1336 C1350 0.930 . S
H1337 C1352 0.960 . S
H1338 C1352 0.960 . S
H1339 C1352 0.960 . S
C1340 H1332 0.929 . S
C1340 C1341 1.377 . S
C1340 C1342 1.384 . S
C1341 C1340 1.377 . S
C1341 C1347 1.390 . S
C1342 H1333 0.930 . S
C1342 C1340 1.384 . S
C1342 C1343 1.372 . S
C1343 C1342 1.372 . S
C1343 C1344 1.400 . S
C1343 C1348 1.490 . S
C1344 H1334 0.930 . S
C1344 C1343 1.400 . S
C1344 C1347 1.386 . S
H1345 C1361 0.930 . S
H1346 C1362 0.931 . S
C1347 H1335 0.929 . S
C1347 C1341 1.390 . S
C1347 C1344 1.386 . S
C1348 C1343 1.490 . S
C1348 C1350 1.395 . S
C1348 C1351 1.403 . S
H1349 C1355 0.930 1_545 S
C1350 H1336 0.930 . S
C1350 C1348 1.395 . S
C1350 C1353 1.403 . S
C1351 C1348 1.403 . S
C1351 C1352 1.524 . S
C1351 C1355 1.400 . S
C1352 H1337 0.960 . S
C1352 H1338 0.960 . S
C1352 H1339 0.960 . S
C1352 C1351 1.524 . S
C1353 C1350 1.403 . S
C1353 C1354 1.392 . S
C1353 C1357 1.495 . S
C1354 C1353 1.392 . S
C1354 C1355 1.385 . S
C1354 C1356 1.478 1_565 S
C1355 H1349 0.930 1_565 S
C1355 C1351 1.400 . S
C1355 C1354 1.385 . S
C1356 C1354 1.478 1_545 S
C1356 C1358 1.381 . S
C1356 C1362 1.383 . S
C1357 C1353 1.495 . S
C1357 H1363 0.959 . S
C1357 H1364 0.961 . S
C1357 H1365 0.960 . S
C1358 C1356 1.381 . S
C1358 C1359 1.394 . S
C1358 H1366 0.930 . S
C1359 C1358 1.394 . S
C1359 C1360 1.383 . S
C1359 H1367 0.929 . S
C1360 C1359 1.383 . S
C1360 C1361 1.377 . S
C1361 H1345 0.930 . S
C1361 C1360 1.377 . S
C1361 C1362 1.379 . S
C1362 H1346 0.931 . S
C1362 C1356 1.383 . S
C1362 C1361 1.379 . S
H1363 C1357 0.959 . S
H1364 C1357 0.961 . S
H1365 C1357 0.960 . S
H1366 C1358 0.930 . S
H1367 C1359 0.929 . S
H1368 C1376 0.929 . S
H1369 C1378 0.930 . S
H1370 C1380 0.930 . S
H1371 C1383 0.929 . S
H1372 C1386 0.930 . S
H1373 C1388 0.960 . S
H1374 C1388 0.960 . S
H1375 C1388 0.960 . S
C1376 H1368 0.929 . S
C1376 C1377 1.377 . S
C1376 C1378 1.384 . S
C1377 C1376 1.377 . S
C1377 C1383 1.390 . S
C1378 H1369 0.930 . S
C1378 C1376 1.384 . S
C1378 C1379 1.372 . S
C1379 C1378 1.372 . S
C1379 C1380 1.400 . S
C1379 C1384 1.490 . S
C1380 H1370 0.930 . S
C1380 C1379 1.400 . S
C1380 C1383 1.386 . S
H1381 C1397 0.930 . S
H1382 C1398 0.931 . S
C1383 H1371 0.929 . S
C1383 C1377 1.390 . S
C1383 C1380 1.386 . S
C1384 C1379 1.490 . S
C1384 C1386 1.395 . S
C1384 C1387 1.403 . S
H1385 C1391 0.930 . S
C1386 H1372 0.930 . S
C1386 C1384 1.395 . S
C1386 C1389 1.403 . S
C1387 C1384 1.403 . S
C1387 C1388 1.524 . S
C1387 C1391 1.400 . S
C1388 H1373 0.960 . S
C1388 H1374 0.960 . S
C1388 H1375 0.960 . S
C1388 C1387 1.524 . S
C1389 C1386 1.403 . S
C1389 C1390 1.392 . S
C1389 C1393 1.495 . S
C1390 C1389 1.392 . S
C1390 C1391 1.385 . S
C1390 C1392 1.478 . S
C1391 H1385 0.930 . S
C1391 C1387 1.400 . S
C1391 C1390 1.385 . S
C1392 C1390 1.478 . S
C1392 C1394 1.381 . S
C1392 C1398 1.383 1_455 S
C1393 C1389 1.495 . S
C1393 H1399 0.959 . S
C1393 H1400 0.961 . S
C1393 H1401 0.960 . S
C1394 C1392 1.381 . S
C1394 C1395 1.394 1_455 S
C1394 H1402 0.930 . S
C1395 C1394 1.394 1_655 S
C1395 C1396 1.383 . S
C1395 H1403 0.929 . S
C1396 C1395 1.383 . S
C1396 C1397 1.377 . S
C1397 H1381 0.930 . S
C1397 C1396 1.377 . S
C1397 C1398 1.379 . S
C1398 H1382 0.931 . S
C1398 C1392 1.383 1_655 S
C1398 C1397 1.379 . S
H1399 C1393 0.959 . S
H1400 C1393 0.961 . S
H1401 C1393 0.960 . S
H1402 C1394 0.930 . S
H1403 C1395 0.929 . S
H1404 C1412 0.929 . S
H1405 C1414 0.930 . S
H1406 C1416 0.930 . S
H1407 C1419 0.929 . S
H1408 C1422 0.930 . S
H1409 C1424 0.960 . S
H1410 C1424 0.960 . S
H1411 C1424 0.960 . S
C1412 H1404 0.929 . S
C1412 C1413 1.377 . S
C1412 C1414 1.384 . S
C1413 C1412 1.377 . S
C1413 C1419 1.390 . S
C1414 H1405 0.930 . S
C1414 C1412 1.384 . S
C1414 C1415 1.372 . S
C1415 C1414 1.372 . S
C1415 C1416 1.400 . S
C1415 C1420 1.490 . S
C1416 H1406 0.930 . S
C1416 C1415 1.400 . S
C1416 C1419 1.386 . S
H1417 C1433 0.930 . S
H1418 C1434 0.931 . S
C1419 H1407 0.929 . S
C1419 C1413 1.390 . S
C1419 C1416 1.386 . S
C1420 C1415 1.490 . S
C1420 C1422 1.395 . S
C1420 C1423 1.403 . S
H1421 C1427 0.930 . S
C1422 H1408 0.930 . S
C1422 C1420 1.395 . S
C1422 C1425 1.403 . S
C1423 C1420 1.403 . S
C1423 C1424 1.524 . S
C1423 C1427 1.400 . S
C1424 H1409 0.960 . S
C1424 H1410 0.960 . S
C1424 H1411 0.960 . S
C1424 C1423 1.524 . S
C1425 C1422 1.403 . S
C1425 C1426 1.392 . S
C1425 C1429 1.495 . S
C1426 C1425 1.392 . S
C1426 C1427 1.385 . S
C1426 C1428 1.478 . S
C1427 H1421 0.930 . S
C1427 C1423 1.400 . S
C1427 C1426 1.385 . S
C1428 C1426 1.478 . S
C1428 C1430 1.381 . S
C1428 C1434 1.383 . S
C1429 C1425 1.495 . S
C1429 H1435 0.959 . S
C1429 H1436 0.961 . S
C1429 H1437 0.960 . S
C1430 C1428 1.381 . S
C1430 C1431 1.394 . S
C1430 H1438 0.930 . S
C1431 C1430 1.394 . S
C1431 C1432 1.383 . S
C1431 H1439 0.929 . S
C1432 C1431 1.383 . S
C1432 C1433 1.377 . S
C1433 H1417 0.930 . S
C1433 C1432 1.377 . S
C1433 C1434 1.379 . S
C1434 H1418 0.931 . S
C1434 C1428 1.383 . S
C1434 C1433 1.379 . S
H1435 C1429 0.959 . S
H1436 C1429 0.961 . S
H1437 C1429 0.960 . S
H1438 C1430 0.930 . S
H1439 C1431 0.929 . S
H1440 C1448 0.929 . S
H1441 C1450 0.930 . S
H1442 C1452 0.930 1_455 S
H1443 C1455 0.929 . S
H1444 C1458 0.930 1_655 S
H1445 C1460 0.960 . S
H1446 C1460 0.960 . S
H1447 C1460 0.960 . S
C1448 H1440 0.929 . S
C1448 C1449 1.377 . S
C1448 C1450 1.384 . S
C1449 C1448 1.377 . S
C1449 C1455 1.390 . S
C1450 H1441 0.930 . S
C1450 C1448 1.384 . S
C1450 C1451 1.372 . S
C1451 C1450 1.372 . S
C1451 C1452 1.400 . S
C1451 C1456 1.490 1_655 S
C1452 H1442 0.930 1_655 S
C1452 C1451 1.400 . S
C1452 C1455 1.386 . S
H1453 C1469 0.930 . S
H1454 C1470 0.931 . S
C1455 H1443 0.929 . S
C1455 C1449 1.390 . S
C1455 C1452 1.386 . S
C1456 C1451 1.490 1_455 S
C1456 C1458 1.395 . S
C1456 C1459 1.403 . S
H1457 C1463 0.930 . S
C1458 H1444 0.930 1_455 S
C1458 C1456 1.395 . S
C1458 C1461 1.403 . S
C1459 C1456 1.403 . S
C1459 C1460 1.524 . S
C1459 C1463 1.400 . S
C1460 H1445 0.960 . S
C1460 H1446 0.960 . S
C1460 H1447 0.960 . S
C1460 C1459 1.524 . S
C1461 C1458 1.403 . S
C1461 C1462 1.392 . S
C1461 C1465 1.495 . S
C1462 C1461 1.392 . S
C1462 C1463 1.385 . S
C1462 C1464 1.478 . S
C1463 H1457 0.930 . S
C1463 C1459 1.400 . S
C1463 C1462 1.385 . S
C1464 C1462 1.478 . S
C1464 C1466 1.381 . S
C1464 C1470 1.383 . S
C1465 C1461 1.495 . S
C1465 H1471 0.959 . S
C1465 H1472 0.961 . S
C1465 H1473 0.960 . S
C1466 C1464 1.381 . S
C1466 C1467 1.394 . S
C1466 H1474 0.930 . S
C1467 C1466 1.394 . S
C1467 C1468 1.383 . S
C1467 H1475 0.929 . S
C1468 C1467 1.383 . S
C1468 C1469 1.377 . S
C1469 H1453 0.930 . S
C1469 C1468 1.377 . S
C1469 C1470 1.379 . S
C1470 H1454 0.931 . S
C1470 C1464 1.383 . S
C1470 C1469 1.379 . S
H1471 C1465 0.959 . S
H1472 C1465 0.961 . S
H1473 C1465 0.960 . S
H1474 C1466 0.930 . S
H1475 C1467 0.929 . S
H1476 C1484 0.929 . S
H1477 C1486 0.930 . S
H1478 C1488 0.930 . S
H1479 C1491 0.929 . S
H1480 C1494 0.930 . S
H1481 C1496 0.960 . S
H1482 C1496 0.960 . S
H1483 C1496 0.960 . S
C1484 H1476 0.929 . S
C1484 C1485 1.377 . S
C1484 C1486 1.384 . S
C1485 C1484 1.377 . S
C1485 C1491 1.390 . S
C1486 H1477 0.930 . S
C1486 C1484 1.384 . S
C1486 C1487 1.372 . S
C1487 C1486 1.372 . S
C1487 C1488 1.400 . S
C1487 C1492 1.490 . S
C1488 H1478 0.930 . S
C1488 C1487 1.400 . S
C1488 C1491 1.386 . S
H1489 C1505 0.930 . S
H1490 C1506 0.931 . S
C1491 H1479 0.929 . S
C1491 C1485 1.390 . S
C1491 C1488 1.386 . S
C1492 C1487 1.490 . S
C1492 C1494 1.395 . S
C1492 C1495 1.403 . S
H1493 C1499 0.930 . S
C1494 H1480 0.930 . S
C1494 C1492 1.395 . S
C1494 C1497 1.403 . S
C1495 C1492 1.403 . S
C1495 C1496 1.524 . S
C1495 C1499 1.400 . S
C1496 H1481 0.960 . S
C1496 H1482 0.960 . S
C1496 H1483 0.960 . S
C1496 C1495 1.524 . S
C1497 C1494 1.403 . S
C1497 C1498 1.392 . S
C1497 C1501 1.495 . S
C1498 C1497 1.392 . S
C1498 C1499 1.385 . S
C1498 C1500 1.478 . S
C1499 H1493 0.930 . S
C1499 C1495 1.400 . S
C1499 C1498 1.385 . S
C1500 C1498 1.478 . S
C1500 C1502 1.381 . S
C1500 C1506 1.383 . S
C1501 C1497 1.495 . S
C1501 H1507 0.959 . S
C1501 H1508 0.961 . S
C1501 H1509 0.960 . S
C1502 C1500 1.381 . S
C1502 C1503 1.394 . S
C1502 H1510 0.930 . S
C1503 C1502 1.394 . S
C1503 C1504 1.383 . S
C1503 H1511 0.929 . S
C1504 C1503 1.383 . S
C1504 C1505 1.377 . S
C1505 H1489 0.930 . S
C1505 C1504 1.377 . S
C1505 C1506 1.379 . S
C1506 H1490 0.931 . S
C1506 C1500 1.383 . S
C1506 C1505 1.379 . S
H1507 C1501 0.959 . S
H1508 C1501 0.961 . S
H1509 C1501 0.960 . S
H1510 C1502 0.930 . S
H1511 C1503 0.929 . S
H1512 C1520 0.929 . S
H1513 C1522 0.930 . S
H1514 C1524 0.930 . S
H1515 C1527 0.929 . S
H1516 C1530 0.930 . S
H1517 C1532 0.960 . S
H1518 C1532 0.960 . S
H1519 C1532 0.960 . S
C1520 H1512 0.929 . S
C1520 C1521 1.377 . S
C1520 C1522 1.384 . S
C1521 C1520 1.377 . S
C1521 C1527 1.390 . S
C1522 H1513 0.930 . S
C1522 C1520 1.384 . S
C1522 C1523 1.372 . S
C1523 C1522 1.372 . S
C1523 C1524 1.400 . S
C1523 C1528 1.490 . S
C1524 H1514 0.930 . S
C1524 C1523 1.400 . S
C1524 C1527 1.386 . S
H1525 C1541 0.930 . S
H1526 C1542 0.931 . S
C1527 H1515 0.929 . S
C1527 C1521 1.390 . S
C1527 C1524 1.386 . S
C1528 C1523 1.490 . S
C1528 C1530 1.395 . S
C1528 C1531 1.403 1_565 S
H1529 C1535 0.930 . S
C1530 H1516 0.930 . S
C1530 C1528 1.395 . S
C1530 C1533 1.403 1_565 S
C1531 C1528 1.403 1_545 S
C1531 C1532 1.524 . S
C1531 C1535 1.400 . S
C1532 H1517 0.960 . S
C1532 H1518 0.960 . S
C1532 H1519 0.960 . S
C1532 C1531 1.524 . S
C1533 C1530 1.403 1_545 S
C1533 C1534 1.392 . S
C1533 C1537 1.495 . S
C1534 C1533 1.392 . S
C1534 C1535 1.385 . S
C1534 C1536 1.478 . S
C1535 H1529 0.930 . S
C1535 C1531 1.400 . S
C1535 C1534 1.385 . S
C1536 C1534 1.478 . S
C1536 C1538 1.381 . S
C1536 C1542 1.383 . S
C1537 C1533 1.495 . S
C1537 H1543 0.959 1_545 S
C1537 H1544 0.961 . S
C1537 H1545 0.960 . S
C1538 C1536 1.381 . S
C1538 C1539 1.394 . S
C1538 H1546 0.930 . S
C1539 C1538 1.394 . S
C1539 C1540 1.383 . S
C1539 H1547 0.929 . S
C1540 C1539 1.383 . S
C1540 C1541 1.377 . S
C1541 H1525 0.930 . S
C1541 C1540 1.377 . S
C1541 C1542 1.379 . S
C1542 H1526 0.931 . S
C1542 C1536 1.383 . S
C1542 C1541 1.379 . S
H1543 C1537 0.959 1_565 S
H1544 C1537 0.961 . S
H1545 C1537 0.960 . S
H1546 C1538 0.930 . S
H1547 C1539 0.929 . S
C261 C50 1.259 . S
C280 C6 1.316 . S
C297 C62 1.498 . S
C316 C20 1.476 . S
C333 C36 1.579 . S
C352 C78 1.528 . S
C369 C34 1.388 . S
C388 C76 1.361 . S
C405 C8 1.323 . S
C424 C48 1.356 . S
C441 C64 1.508 . S
C460 C22 1.490 . S
C477 C134 1.213 . S
C496 C90 1.260 . S
C513 C104 1.361 . S
C532 C146 1.357 . S
C549 C118 1.336 . S
C568 C162 1.293 . S
C585 C160 1.534 . S
C604 C120 1.466 . S
C621 C132 1.392 . S
C640 C92 1.320 . S
C657 C148 1.616 1_556 S
C676 C106 1.584 . S
C693 C174 1.474 . S
C712 C218 1.451 . S
C729 C188 1.413 . S
C748 C230 1.410 . S
C765 C204 1.542 . S
C784 C246 1.522 . S
C801 C244 1.353 . S
C820 C202 1.371 1_554 S
C837 C216 1.322 . S
C856 C176 1.243 1_554 S
C873 C232 1.485 . S
C892 C190 1.431 1_554 S
C909 C9 1.320 . S
C928 C105 1.367 . S
C945 C23 1.363 . S
C964 C119 1.375 . S
C981 C91 1.006 . S
C1000 C35 1.005 . S
C1017 C37 1.578 . S
C1036 C191 1.588 . S
C1053 C203 0.907 . S
C1072 C7 0.893 . S
C1089 C177 1.417 1_554 S
C1108 C21 1.435 . S
C1125 C231 0.974 . S
C1144 C49 0.981 . S
C1161 C65 1.505 . S
C1180 C247 1.525 . S
C1197 C219 1.317 . S
C1216 C77 1.338 . S
C1233 C149 1.551 . S
C1252 C79 1.561 . S
C1269 C51 1.171 . S
C1288 C161 1.218 . S
C1305 C63 0.889 . S
C1324 C133 0.899 . S
C1341 C93 1.197 . S
C1360 C189 1.229 . S
C1377 C107 1.521 . S
C1396 C205 1.507 . S
C1413 C121 1.153 . S
C1432 C175 1.171 . S
C1449 C233 1.492 . S
C1468 C163 1.493 . S
C1485 C245 1.334 . S
C1504 C135 1.287 . S
C1521 C147 0.995 . S
C1540 C217 0.977 . S
