# Generated by pormake.
# Topology ooa, (5)-cn, num edge types: 1
# Building blocks:
#     Node 0, Type 0, BuildingBlock: XOMCOT_clean_sbu_1, # of connection points: 5
#     Node 1, Type 0, BuildingBlock: XOMCOT_clean_sbu_1, # of connection points: 5
#     Node 2, Type 0, BuildingBlock: XOMCOT_clean_sbu_1, # of connection points: 5
#     Node 3, Type 0, BuildingBlock: XOMCOT_clean_sbu_1, # of connection points: 5
#     Node 4, Type 0, BuildingBlock: XOMCOT_clean_sbu_1, # of connection points: 5
#     Node 5, Type 0, BuildingBlock: XOMCOT_clean_sbu_1, # of connection points: 5
#     Node 6, Type 0, BuildingBlock: XOMCOT_clean_sbu_1, # of connection points: 5
#     Node 7, Type 0, BuildingBlock: XOMCOT_clean_sbu_1, # of connection points: 5
#     Edge 8, Type (0, 0), BuildingBlock: OJICUG_clean_linker_0, # of connection points: 2
#     Edge 9, Type (0, 0), BuildingBlock: OJICUG_clean_linker_0, # of connection points: 2
#     Edge 10, Type (0, 0), BuildingBlock: OJICUG_clean_linker_0, # of connection points: 2
#     Edge 11, Type (0, 0), BuildingBlock: OJICUG_clean_linker_0, # of connection points: 2
#     Edge 12, Type (0, 0), BuildingBlock: OJICUG_clean_linker_0, # of connection points: 2
#     Edge 13, Type (0, 0), BuildingBlock: OJICUG_clean_linker_0, # of connection points: 2
#     Edge 14, Type (0, 0), BuildingBlock: OJICUG_clean_linker_0, # of connection points: 2
#     Edge 15, Type (0, 0), BuildingBlock: OJICUG_clean_linker_0, # of connection points: 2
#     Edge 16, Type (0, 0), BuildingBlock: OJICUG_clean_linker_0, # of connection points: 2
#     Edge 17, Type (0, 0), BuildingBlock: OJICUG_clean_linker_0, # of connection points: 2
#     Edge 18, Type (0, 0), BuildingBlock: OJICUG_clean_linker_0, # of connection points: 2
#     Edge 19, Type (0, 0), BuildingBlock: OJICUG_clean_linker_0, # of connection points: 2
#     Edge 20, Type (0, 0), BuildingBlock: OJICUG_clean_linker_0, # of connection points: 2
#     Edge 21, Type (0, 0), BuildingBlock: OJICUG_clean_linker_0, # of connection points: 2
#     Edge 22, Type (0, 0), BuildingBlock: OJICUG_clean_linker_0, # of connection points: 2
#     Edge 23, Type (0, 0), BuildingBlock: OJICUG_clean_linker_0, # of connection points: 2
#     Edge 24, Type (0, 0), BuildingBlock: OJICUG_clean_linker_0, # of connection points: 2
#     Edge 25, Type (0, 0), BuildingBlock: OJICUG_clean_linker_0, # of connection points: 2
#     Edge 26, Type (0, 0), BuildingBlock: OJICUG_clean_linker_0, # of connection points: 2
#     Edge 27, Type (0, 0), BuildingBlock: OJICUG_clean_linker_0, # of connection points: 2
# Relax obj value: 0.419
# Max RMSD: 0.220
# Mean RMSD: 0.220
data_MOF--net-ooa--node1-XOMCOT_clean_sbu_1--edge1-OJICUG_clean_linker_0
_symmetry_space_group_name_H-M    P1
_symmetry_Int_Tables_number       1
_symmetry_cell_setting            triclinic
loop_
_symmetry_equiv_pos_as_xyz
'x, y, z'
_cell_length_a     21.22112
_cell_length_b     23.923069
_cell_length_c     37.999619
_cell_angle_alpha  90.008129
_cell_angle_beta   90.091938
_cell_angle_gamma 90.061893
loop_
_atom_site_label
_atom_site_type_symbol
_atom_site_fract_x
_atom_site_fract_y
_atom_site_fract_z
_atom_type_partial_charge
C0 C 0.10419 0.10176 0.1168 0.0
C1 C 0.14585 0.06113 0.12733 0.0
N2 N 0.19082 0.05624 0.10251 0.0
N3 N 0.12329 0.12303 0.08575 0.0
C4 C 0.17587 0.09417 0.07752 0.0
H5 H 0.0619 0.11432 0.13052 0.0
Co6 Co 0.07889 0.17538 0.05936 0.0
C7 C 0.18731 0.24841 0.0366 0.0
O8 O 0.16209 0.29391 0.04991 0.0
N9 N 1.0306 0.2253 0.03238 0.0
C10 C 0.98945 0.27979 0.99074 0.0
C11 C 0.04438 0.26235 0.00664 0.0
C12 C 0.96723 0.22005 0.03078 0.0
N13 N 0.94091 0.25269 0.00582 0.0
O14 O 0.07235 0.12237 0.02311 0.0
H15 H 0.09087 0.27291 -0.00253 0.0
H16 H 0.94111 0.19065 0.04673 0.0
O17 O 0.15801 0.20182 0.03871 0.0
C18 C 1.03201 0.08432 0.02925 0.0
O19 O 0.99471 0.08966 0.05662 0.0
N20 N 0.08343 0.22511 0.09746 0.0
C21 C 0.08178 0.24342 0.16962 0.0
C22 C 0.139 0.24228 0.15136 0.0
C23 C 0.13892 0.23241 0.11528 0.0
C24 C 1.02738 0.23355 0.11413 0.0
C25 C 1.02545 0.24292 0.15034 0.0
H26 H 0.18341 0.22212 0.10324 0.0
H27 H 0.98364 0.22519 0.10068 0.0
H28 H 0.20209 0.10034 0.05344 0.0
H29 H 0.14207 0.03586 0.15085 0.0
H30 H 0.98605 0.30698 0.96805 0.0
H31 H 0.18354 0.24314 0.16533 0.0
H32 H 0.98021 0.24333 0.16349 0.0
C33 C 0.48016 0.85414 0.11731 0.0
C34 C 0.43857 0.89489 0.12766 0.0
N35 N 0.39345 0.8995 0.10283 0.0
N36 N 0.46087 0.83253 0.08635 0.0
C37 C 0.40824 0.8613 0.078 0.0
H38 H 0.52253 0.84173 0.13108 0.0
Co39 Co 0.50513 0.77988 0.06019 0.0
C40 C 0.39658 0.70661 0.03773 0.0
O41 O 0.42181 0.6613 0.05132 0.0
N42 N 0.55328 0.72967 0.03344 0.0
C43 C 0.59433 0.67456 0.99216 0.0
C44 C 0.53944 0.69218 0.00793 0.0
C45 C 0.61663 0.73497 0.03183 0.0
N46 N 0.64289 0.70197 0.00708 0.0
O47 O 0.51151 0.83248 0.02373 0.0
H48 H 0.49292 0.68137 -0.00116 0.0
H49 H 0.64278 0.76463 0.04763 0.0
O50 O 0.4259 0.75323 0.03962 0.0
C51 C 0.55192 0.87058 0.0297 0.0
O52 O 0.58932 0.86556 0.05712 0.0
N53 N 0.50079 0.73056 0.0985 0.0
C54 C 0.50307 0.71275 0.17071 0.0
C55 C 0.44568 0.71394 0.15252 0.0
C56 C 0.44545 0.72353 0.1164 0.0
C57 C 0.55697 0.72216 0.11514 0.0
C58 C 0.55921 0.71301 0.15137 0.0
H59 H 0.40088 0.73377 0.10435 0.0
H60 H 0.60061 0.73033 0.10163 0.0
H61 H 0.38187 0.85485 0.05395 0.0
H62 H 0.4425 0.92043 0.15108 0.0
H63 H 0.59768 0.647 0.96964 0.0
H64 H 0.40127 0.71326 0.16653 0.0
H65 H 0.60459 0.71258 0.16446 0.0
C66 C 0.10535 0.354 0.37231 0.0
C67 C 0.14702 0.39474 0.36188 0.0
N68 N 0.19214 0.39952 0.38672 0.0
N69 N 0.12457 0.33259 0.40332 0.0
C70 C 0.17725 0.36144 0.41161 0.0
H71 H 0.06293 0.34151 0.35858 0.0
Co72 Co 0.08016 0.28039 0.42983 0.0
C73 C 0.18888 0.20696 0.45175 0.0
O74 O 0.16366 0.1617 0.43802 0.0
N75 N 1.03198 0.23063 0.45697 0.0
C76 C 0.99098 0.17492 0.49798 0.0
C77 C 0.0458 0.19234 0.48198 0.0
C78 C 0.96877 0.23658 0.4591 0.0
N79 N 0.94253 0.20321 0.48368 0.0
O80 O 0.07478 0.33331 0.46615 0.0
H81 H 0.09235 0.18053 0.49045 0.0
H82 H 0.94271 0.26665 0.44362 0.0
O83 O 0.15946 0.25349 0.45012 0.0
C84 C 1.03459 0.37149 0.46015 0.0
O85 O 0.99704 0.36644 0.43279 0.0
N86 N 0.08332 0.23068 0.39169 0.0
C87 C 0.07851 0.20886 0.31993 0.0
C88 C 0.13659 0.21185 0.33736 0.0
C89 C 0.13805 0.22333 0.37328 0.0
C90 C 1.02659 0.22134 0.37583 0.0
C91 C 1.02312 0.21014 0.33988 0.0
H92 H 0.18292 0.2345 0.3847 0.0
H93 H 0.98337 0.22968 0.38968 0.0
H94 H 0.20354 0.35519 0.43571 0.0
H95 H 0.14312 0.42017 0.33843 0.0
H96 H 0.98766 0.14662 0.52013 0.0
H97 H 0.18046 0.212 0.32283 0.0
H98 H 0.97734 0.20755 0.32732 0.0
C99 C 0.4816 0.60229 0.37282 0.0
C100 C 0.43986 0.56165 0.36223 0.0
N101 N 0.39488 0.55663 0.38704 0.0
N102 N 0.46254 0.6234 0.40392 0.0
C103 C 0.4099 0.59447 0.41209 0.0
H104 H 0.52394 0.61491 0.35914 0.0
Co105 Co 0.50708 0.67535 0.43065 0.0
C106 C 0.39844 0.74856 0.45282 0.0
O107 O 0.42363 0.79399 0.43935 0.0
N108 N 0.55539 0.72484 0.45801 0.0
C109 C 0.59649 0.78004 0.49935 0.0
C110 C 0.54163 0.76279 0.48321 0.0
C111 C 0.61863 0.71892 0.46014 0.0
N112 N 0.64492 0.75198 0.48493 0.0
O113 O 0.51261 0.62207 0.46676 0.0
H114 H 0.4951 0.77442 0.49173 0.0
H115 H 0.64466 0.68906 0.44453 0.0
O116 O 0.42787 0.70205 0.45099 0.0
C117 C 0.55274 0.58393 0.46061 0.0
O118 O 0.59018 0.58928 0.43329 0.0
N119 N 0.50372 0.72541 0.3927 0.0
C120 C 0.508 0.74759 0.32099 0.0
C121 C 0.45006 0.74463 0.33846 0.0
C122 C 0.44887 0.73295 0.37434 0.0
C123 C 0.56034 0.7348 0.37684 0.0
C124 C 0.56355 0.74616 0.3409 0.0
H125 H 0.40407 0.72174 0.38574 0.0
H126 H 0.60365 0.72633 0.39065 0.0
H127 H 0.38375 0.60048 0.4362 0.0
H128 H 0.44363 0.53644 0.33868 0.0
H129 H 0.59984 0.80802 0.52166 0.0
H130 H 0.40607 0.74458 0.32395 0.0
H131 H 0.60923 0.74873 0.32832 0.0
C132 C 0.97919 0.85274 0.87327 0.0
C133 C 0.93745 0.89326 0.86267 0.0
N134 N 0.89241 0.89813 0.88744 0.0
N135 N 0.96006 0.83152 0.90433 0.0
C136 C 0.90738 0.86029 0.91248 0.0
H137 H 1.02156 0.84026 0.85961 0.0
Co138 Co 1.00458 0.77938 0.93083 0.0
C139 C 0.89627 0.70612 0.95352 0.0
O140 O 0.92153 0.6607 0.94013 0.0
N141 N 0.05296 0.72967 0.95791 0.0
C142 C 0.09426 0.67494 -0.00063 0.0
C143 C 1.03928 0.69235 0.98351 0.0
C144 C 0.1163 0.73512 0.95956 0.0
N145 N 0.14271 0.70233 0.98442 0.0
O146 O 1.01081 0.83252 0.96702 0.0
H147 H 0.99282 0.68145 0.99255 0.0
H148 H 0.14234 0.76467 0.94369 0.0
O149 O 0.92549 0.75276 0.95145 0.0
C150 C 0.05105 0.87063 0.96085 0.0
O151 O 0.08839 0.86528 0.93349 0.0
N152 N 1.00041 0.72951 0.89278 0.0
C153 C 1.00282 0.71115 0.82064 0.0
C154 C 0.9454 0.71226 0.83871 0.0
C155 C 0.9451 0.72211 0.8748 0.0
C156 C 0.05663 0.72111 0.87629 0.0
C157 C 0.05894 0.71169 0.84009 0.0
H158 H 0.90048 0.73231 0.88673 0.0
H159 H 0.10023 0.72954 0.88985 0.0
H160 H 0.88113 0.85414 0.93656 0.0
H161 H 0.94126 0.9185 0.83913 0.0
H162 H 0.09775 0.64749 0.02194 0.0
H163 H 0.90101 0.71136 0.82459 0.0
H164 H 0.10433 0.71133 0.8271 0.0
C165 C 0.60356 0.10087 0.87247 0.0
C166 C 0.64505 0.06003 0.86208 0.0
N167 N 0.69009 0.0552 0.88695 0.0
N168 N 0.62284 0.12229 0.90348 0.0
C169 C 0.67536 0.09336 0.91181 0.0
H170 H 0.56121 0.11341 0.85871 0.0
Co171 Co 0.57861 0.17453 0.92995 0.0
C172 C 0.68738 0.24796 0.95198 0.0
O173 O 0.66216 0.29322 0.93832 0.0
N174 N 0.53058 0.22434 0.95705 0.0
C175 C 0.48964 0.2799 -0.00187 0.0
C176 C 0.54446 0.26243 0.98219 0.0
C177 C 0.46732 0.21855 0.95903 0.0
N178 N 0.44112 0.25183 0.98364 0.0
O179 O 0.57298 0.12161 0.96628 0.0
H180 H 0.59102 0.27399 0.99083 0.0
H181 H 0.4412 0.18859 0.94345 0.0
O182 O 0.65795 0.20138 0.95029 0.0
C183 C 0.53275 0.08338 0.96026 0.0
O184 O 0.49519 0.08845 0.93292 0.0
N185 N 0.58208 0.22421 0.89181 0.0
C186 C 0.57786 0.24608 0.82004 0.0
C187 C 0.6358 0.24307 0.83761 0.0
C188 C 0.63696 0.23155 0.87351 0.0
C189 C 0.52549 0.23357 0.87582 0.0
C190 C 0.52231 0.24477 0.83986 0.0
H191 H 0.68172 0.22034 0.88502 0.0
H192 H 0.48215 0.22523 0.88957 0.0
H193 H 0.70163 0.0996 0.93592 0.0
H194 H 0.64106 0.03456 0.83865 0.0
H195 H 0.48633 0.30803 0.02036 0.0
H196 H 0.67978 0.24292 0.82318 0.0
H197 H 0.47664 0.24736 0.8272 0.0
C198 C 0.98254 0.60102 0.61778 0.0
C199 C 0.94095 0.56017 0.62813 0.0
N200 N 0.8959 0.55537 0.60326 0.0
N201 N 0.96334 0.62248 0.58678 0.0
C202 C 0.91075 0.59355 0.57842 0.0
H203 H 1.02488 0.61357 0.63157 0.0
Co204 Co 1.00763 0.67491 0.56039 0.0
C205 C 0.89877 0.74812 0.53841 0.0
O206 O 0.92395 0.79346 0.55206 0.0
N207 N 0.05572 0.72488 0.53336 0.0
C208 C 0.09655 0.78036 0.49217 0.0
C209 C 1.04178 0.76291 0.50821 0.0
C210 C 0.11897 0.71915 0.53129 0.0
N211 N 0.1451 0.75235 0.50659 0.0
O212 O 1.01332 0.62213 0.52401 0.0
H213 H 0.99519 0.77438 0.49961 0.0
H214 H 0.14511 0.68922 0.54684 0.0
O215 O 0.92828 0.70163 0.54008 0.0
C216 C 0.05362 0.58402 0.52996 0.0
O217 O 0.09112 0.58906 0.55734 0.0
N218 N 1.00408 0.72447 0.59859 0.0
C219 C 1.00811 0.74614 0.67039 0.0
C220 C 0.95023 0.74312 0.65276 0.0
C221 C 0.94916 0.73169 0.61684 0.0
C222 C 0.06064 0.73384 0.61464 0.0
C223 C 0.06372 0.74493 0.65062 0.0
H224 H 0.90443 0.72043 0.6053 0.0
H225 H 0.104 0.72559 0.6009 0.0
H226 H 0.88449 0.59983 0.55432 0.0
H227 H 0.94484 0.53469 0.65157 0.0
H228 H 0.09976 0.80838 0.46988 0.0
H229 H 0.9062 0.74288 0.66715 0.0
H230 H 0.10936 0.74752 0.66333 0.0
C231 C 0.606 0.35319 0.617 0.0
C232 C 0.64784 0.39373 0.62757 0.0
N233 N 0.69286 0.39857 0.60277 0.0
N234 N 0.62503 0.33192 0.58594 0.0
C235 C 0.67775 0.36071 0.57775 0.0
H236 H 0.56365 0.34068 0.6307 0.0
Co237 Co 0.58045 0.27959 0.55951 0.0
C238 C 0.68882 0.20654 0.53686 0.0
O239 O 0.66359 0.16105 0.55022 0.0
N240 N 0.532 0.22972 0.53248 0.0
C241 C 0.4908 0.17503 0.4909 0.0
C242 C 0.54573 0.19243 0.50688 0.0
C243 C 0.46867 0.23512 0.53074 0.0
N244 N 0.44232 0.20237 0.5058 0.0
O245 O 0.57416 0.33258 0.52328 0.0
H246 H 0.59222 0.18162 0.49786 0.0
H247 H 0.44261 0.26465 0.54658 0.0
O248 O 0.65953 0.25309 0.53891 0.0
C249 C 0.53385 0.37059 0.52939 0.0
O250 O 0.49658 0.36528 0.55678 0.0
N251 N 0.58467 0.22986 0.59759 0.0
C252 C 0.58244 0.21151 0.66974 0.0
C253 C 0.63981 0.21269 0.65162 0.0
C254 C 0.64002 0.22256 0.61554 0.0
C255 C 0.52848 0.22141 0.61413 0.0
C256 C 0.52626 0.212 0.65033 0.0
H257 H 0.68461 0.23283 0.60358 0.0
H258 H 0.48486 0.22976 0.60059 0.0
H259 H 0.70397 0.35452 0.55367 0.0
H260 H 0.64415 0.41898 0.65111 0.0
H261 H 0.4874 0.14766 0.46829 0.0
H262 H 0.68424 0.21184 0.66569 0.0
H263 H 0.48091 0.21158 0.66337 0.0
C264 C 0.9925 -0.01236 0.0187 0.0
C265 C 1.03535 0.03053 0.0106 0.0
H266 H 0.96442 0.903 0.00973 0.0
C267 C 0.08438 0.01993 0.98676 0.0
H268 H 0.95441 -0.0055 0.03713 0.0
C269 C 0.09049 0.96734 0.97136 0.0
C270 C 0.04765 0.92445 0.97947 0.0
H271 H 0.11857 0.05198 0.98032 0.0
H272 H 0.12859 0.96048 0.95293 0.0
C273 C 0.99861 0.93505 0.00329 0.0
C274 C 0.49334 -0.01318 0.9712 0.0
C275 C 0.53627 0.02978 0.9791 0.0
H276 H 0.4652 0.90234 0.98058 0.0
C277 C 0.58543 0.01945 0.00299 0.0
H278 H 0.45515 -0.00652 0.95273 0.0
C279 C 0.59155 0.96706 0.01866 0.0
C280 C 0.54859 0.92411 0.01077 0.0
H281 H 0.61968 0.05155 0.00928 0.0
H282 H 0.62972 0.9604 0.03714 0.0
C283 C 0.49947 0.93444 0.98687 0.0
C284 C 1.00115 0.52021 0.48704 0.0
C285 C 0.05025 0.53053 0.51098 0.0
H286 H 0.95693 0.46123 0.45275 0.0
C287 C 0.0932 0.48765 0.51881 0.0
H288 H 0.96689 0.55227 0.4808 0.0
C289 C 0.08713 0.43533 0.50303 0.0
C290 C 1.03803 0.425 0.4791 0.0
H291 H 0.13135 0.49431 0.53732 0.0
H292 H 0.12139 0.40327 0.50927 0.0
C293 C 0.99509 0.46789 0.47126 0.0
C294 C 0.59213 0.48734 0.47123 0.0
C295 C 0.5493 0.53019 0.47928 0.0
H296 H 0.62028 0.40283 0.48035 0.0
C297 C 0.5003 0.51961 0.50315 0.0
H298 H 0.63021 0.49419 0.45277 0.0
C299 C 0.49424 0.4671 0.51867 0.0
C300 C 0.53711 0.42427 0.51064 0.0
H301 H 0.46612 0.55163 0.50955 0.0
H302 H 0.45619 0.46025 0.53715 0.0
C303 C 0.58608 0.43484 0.48674 0.0
C304 C 0.31686 0.95875 0.13428 0.0
C305 C 0.34196 0.93872 0.1025 0.0
H306 H 0.24973 0.0122 0.15916 0.0
C307 C 0.31664 0.95826 0.07058 0.0
H308 H 0.33489 0.94418 0.1593 0.0
C309 C 0.26744 -0.00286 0.0705 0.0
C310 C 0.24231 0.01702 0.10235 0.0
H311 H 0.33538 0.94412 0.04565 0.0
H312 H 0.24855 0.011 0.04552 0.0
C313 C 0.2676 -0.00266 0.1342 0.0
C314 C 0.26877 0.45889 0.35526 0.0
C315 C 0.24364 0.43885 0.38703 0.0
H316 H 0.33598 0.5124 0.33038 0.0
C317 C 0.26897 0.45845 0.41895 0.0
H318 H 0.25074 0.44428 0.33024 0.0
C319 C 0.31821 0.4974 0.41903 0.0
C320 C 0.34338 0.5173 0.38719 0.0
H321 H 0.25022 0.44433 0.44388 0.0
H322 H 0.33709 0.51129 0.44402 0.0
C323 C 0.31808 0.49755 0.35534 0.0
C324 C 0.81568 0.957 0.85568 0.0
C325 C 0.8409 0.93733 0.88756 0.0
H326 H 0.74855 0.01025 0.83052 0.0
C327 C 0.81573 0.95727 0.91938 0.0
H328 H 0.83358 0.9421 0.83074 0.0
C329 C 0.76661 -0.00377 0.91925 0.0
C330 C 0.7414 0.0158 0.88731 0.0
H331 H 0.83456 0.94342 0.94438 0.0
H332 H 0.74786 0.01041 0.94417 0.0
C333 C 0.76649 -0.00433 0.85556 0.0
C334 C 0.76979 0.45762 0.57083 0.0
C335 C 0.74453 0.43772 0.60265 0.0
H336 H 0.83789 0.51065 0.54604 0.0
C337 C 0.76987 0.45735 0.63453 0.0
H338 H 0.75089 0.44379 0.54583 0.0
C339 C 0.81924 0.49594 0.63465 0.0
C340 C 0.84442 0.51603 0.6029 0.0
H341 H 0.75191 0.44249 0.65947 0.0
H342 H 0.83726 0.51049 0.65968 0.0
C343 C 0.81909 0.4965 0.57095 0.0
C344 C 0.28814 0.29916 0.02334 0.0
C345 C 0.25145 0.25029 0.02122 0.0
H346 H 0.37722 0.33799 0.01284 0.0
C347 C 0.27755 0.20254 0.00537 0.0
H348 H 0.26952 0.33672 0.03536 0.0
C349 C 0.33921 0.20337 0.99247 0.0
C350 C 0.3764 0.25189 -0.00475 0.0
H351 H 0.25067 0.16417 0.00329 0.0
H352 H 0.35825 0.16543 0.98124 0.0
C353 C 0.34999 0.29987 0.01062 0.0
C354 C 0.23393 0.65472 0.01175 0.0
C355 C 0.20753 0.70242 -0.00402 0.0
H356 H 0.31435 0.61833 0.03692 0.0
C357 C 0.24476 0.75086 0.9929 0.0
H358 H 0.20666 0.61667 0.01421 0.0
C359 C 0.3064 0.75192 0.00593 0.0
C360 C 0.33247 0.70448 0.0222 0.0
H361 H 0.22572 0.78859 0.98135 0.0
H362 H 0.33331 0.79025 0.00363 0.0
C363 C 0.29577 0.65565 0.02459 0.0
C364 C 0.35122 0.15495 0.47807 0.0
C365 C 0.37759 0.20255 0.49405 0.0
H366 H 0.27095 0.11871 0.45255 0.0
C367 C 0.34047 0.25099 0.4971 0.0
H368 H 0.3784 0.1169 0.47561 0.0
C369 C 0.27896 0.25214 0.48386 0.0
C370 C 0.25291 0.20479 0.46741 0.0
H371 H 0.35949 0.28865 0.50879 0.0
H372 H 0.25213 0.29046 0.48616 0.0
C373 C 0.28952 0.15597 0.46503 0.0
C374 C 0.24681 0.7038 0.49752 0.0
C375 C 0.20972 0.75231 0.49477 0.0
H376 H 0.33513 0.66449 0.48648 0.0
C377 C 0.2361 0.80017 0.47917 0.0
H378 H 0.2278 0.66594 0.50892 0.0
C379 C 0.2978 0.79936 0.46622 0.0
C380 C 0.3344 0.75049 0.46834 0.0
H381 H 0.20896 0.83829 0.47696 0.0
H382 H 0.31639 0.83683 0.45405 0.0
C383 C 0.30832 0.70286 0.4844 0.0
C384 C 0.73394 0.65425 0.97982 0.0
C385 C 0.70761 0.70204 -0.00453 0.0
H386 H 0.81419 0.61774 0.95467 0.0
C387 C 0.74478 0.75055 -0.00164 0.0
H388 H 0.7067 0.61614 0.9775 0.0
C389 C 0.8063 0.75159 0.98525 0.0
C390 C 0.8323 0.70404 0.96911 0.0
H391 H 0.72578 0.78835 0.00981 0.0
H392 H 0.83316 0.78997 0.9874 0.0
C393 C 0.79565 0.65515 0.96691 0.0
C394 C 0.77739 0.20287 0.98408 0.0
C395 C 0.75142 0.25019 0.96761 0.0
H396 H 0.8579 0.16643 0.00897 0.0
C397 C 0.78813 0.29901 0.96516 0.0
H398 H 0.75048 0.16455 0.98642 0.0
C399 C 0.84986 0.30006 0.97816 0.0
C400 C 0.87615 0.2525 0.99414 0.0
H401 H 0.76962 0.33624 0.95268 0.0
H402 H 0.87714 0.3381 0.97564 0.0
C403 C 0.83893 0.20407 -0.00273 0.0
C404 C 0.80841 0.70251 0.50681 0.0
C405 C 0.83458 0.75008 0.52296 0.0
H406 H 0.7277 0.66564 0.48231 0.0
C407 C 0.79794 0.79889 0.52525 0.0
H408 H 0.83525 0.66419 0.5046 0.0
C409 C 0.73611 0.79971 0.51238 0.0
C410 C 0.70964 0.75191 0.4967 0.0
H411 H 0.81659 0.83631 0.53749 0.0
H412 H 0.70895 0.83779 0.51472 0.0
C413 C 0.74677 0.70346 0.49377 0.0
C414 C 0.84075 0.25167 0.49266 0.0
C415 C 0.87784 0.20315 0.49536 0.0
H416 H 0.75233 0.29086 0.50358 0.0
C417 C 0.85134 0.15515 0.51072 0.0
H418 H 0.85985 0.28963 0.48145 0.0
C419 C 0.78953 0.15583 0.5235 0.0
C420 C 0.75294 0.20471 0.52144 0.0
H421 H 0.87847 0.11701 0.51288 0.0
H422 H 0.77085 0.11826 0.5355 0.0
C423 C 0.77913 0.25248 0.50561 0.0
C424 C 0.11865 0.18518 0.25986 0.0
C425 C 0.0761 0.21446 0.28118 0.0
H426 H 0.15339 0.17123 0.2079 0.0
C427 C 1.03535 0.25374 0.2656 0.0
H428 H 0.15038 0.15457 0.27114 0.0
C429 C 1.0376 0.26394 0.22945 0.0
C430 C 0.08084 0.23525 0.20822 0.0
H431 H 1.00304 0.27795 0.28151 0.0
H432 H 1.00618 0.29481 0.21819 0.0
C433 C 0.12086 0.19532 0.22375 0.0
C434 C 0.46472 0.76109 0.22486 0.0
C435 C 0.50444 0.72103 0.20931 0.0
H436 H 0.43582 0.80201 0.27227 0.0
C437 C 0.54785 0.69231 0.23048 0.0
H438 H 0.43207 0.7852 0.20905 0.0
C439 C 0.55053 0.7026 0.26662 0.0
C440 C 0.51006 0.74201 0.28223 0.0
H441 H 0.57905 0.66133 0.2192 0.0
H442 H 0.58294 0.67835 0.2825 0.0
C443 C 0.46736 0.77133 0.26096 0.0
C444 C 0.05056 0.70112 0.72484 0.0
C445 C 1.01005 0.74047 0.70914 0.0
H446 H 0.07904 0.65987 0.77232 0.0
C447 C 0.96718 0.76966 0.73032 0.0
H448 H 0.08311 0.67698 0.70903 0.0
C449 C 0.96443 0.75936 0.76639 0.0
C450 C 1.00421 0.71938 0.78204 0.0
H451 H 0.93561 0.80031 0.71894 0.0
H452 H 0.93167 0.7834 0.78213 0.0
C453 C 0.04778 0.69078 0.76096 0.0
C454 C 0.53769 0.19097 0.72944 0.0
C455 C 0.58119 0.21967 0.70834 0.0
H456 H 0.50259 0.17697 0.7814 0.0
C457 C 0.62111 0.25963 0.72399 0.0
H458 H 0.50632 0.16007 0.71809 0.0
C459 C 0.61856 0.2698 0.76009 0.0
C460 C 0.57576 0.24051 0.78128 0.0
H461 H 0.65384 0.28373 0.70824 0.0
H462 H 0.65024 0.30043 0.77146 0.0
C463 C 0.5351 0.20119 0.76558 0.0
loop_
_geom_bond_atom_site_label_1
_geom_bond_atom_site_label_2
_geom_bond_distance
_geom_bond_site_symmetry_2
_ccdc_geom_bond_type
C0 C1 1.351 . S
C0 N3 1.368 . S
C0 H5 0.931 . S
C1 C0 1.351 . S
C1 N2 1.373 . S
C1 H29 0.930 . S
N2 C1 1.373 . S
N2 C4 1.340 . S
N3 C0 1.368 . S
N3 C4 1.321 . S
N3 Co6 2.135 . S
C4 N2 1.340 . S
C4 N3 1.321 . S
C4 H28 0.930 . S
H5 C0 0.931 . S
Co6 N3 2.135 . S
Co6 N9 2.121 . S
Co6 O14 2.055 . S
Co6 O17 2.039 . S
Co6 N20 2.140 . S
C7 O8 1.227 . S
C7 O17 1.265 . S
O8 C7 1.227 . S
N9 Co6 2.121 . S
N9 C11 1.375 . S
N9 C12 1.313 1_455 S
C10 C11 1.338 1_655 S
C10 N13 1.377 . S
C10 H30 0.930 . S
C11 N9 1.375 . S
C11 C10 1.338 1_455 S
C11 H15 0.931 . S
C12 N9 1.313 1_655 S
C12 N13 1.344 . S
C12 H16 0.930 . S
N13 C10 1.377 . S
N13 C12 1.344 . S
O14 Co6 2.055 . S
O14 C18 1.253 1_455 S
H15 C11 0.931 . S
H16 C12 0.930 . S
O17 Co6 2.039 . S
O17 C7 1.265 . S
C18 O14 1.253 1_655 S
C18 O19 1.227 . S
O19 C18 1.227 . S
N20 Co6 2.140 . S
N20 C23 1.346 . S
N20 C24 1.345 . S
C21 C22 1.387 . S
C21 C25 1.391 . S
C22 C21 1.387 . S
C22 C23 1.369 . S
C22 H31 0.929 . S
C23 N20 1.346 . S
C23 C22 1.369 . S
C23 H26 0.928 . S
C24 N20 1.345 . S
C24 C25 1.371 . S
C24 H27 0.931 1_455 S
C25 C21 1.391 . S
C25 C24 1.371 . S
C25 H32 0.930 1_455 S
H26 C23 0.928 . S
H27 C24 0.931 1_655 S
H28 C4 0.930 . S
H29 C1 0.930 . S
H30 C10 0.930 . S
H31 C22 0.929 . S
H32 C25 0.930 1_655 S
C33 C34 1.351 . S
C33 N36 1.368 . S
C33 H38 0.931 . S
C34 C33 1.351 . S
C34 N35 1.373 . S
C34 H62 0.930 . S
N35 C34 1.373 . S
N35 C37 1.340 . S
N36 C33 1.368 . S
N36 C37 1.321 . S
N36 Co39 2.135 . S
C37 N35 1.340 . S
C37 N36 1.321 . S
C37 H61 0.930 . S
H38 C33 0.931 . S
Co39 N36 2.135 . S
Co39 N42 2.121 . S
Co39 O47 2.055 . S
Co39 O50 2.039 . S
Co39 N53 2.140 . S
C40 O41 1.227 . S
C40 O50 1.265 . S
O41 C40 1.227 . S
N42 Co39 2.121 . S
N42 C44 1.375 . S
N42 C45 1.313 . S
C43 C44 1.338 . S
C43 N46 1.377 . S
C43 H63 0.930 . S
C44 N42 1.375 . S
C44 C43 1.338 . S
C44 H48 0.931 . S
C45 N42 1.313 . S
C45 N46 1.344 . S
C45 H49 0.930 . S
N46 C43 1.377 . S
N46 C45 1.344 . S
O47 Co39 2.055 . S
O47 C51 1.253 . S
H48 C44 0.931 . S
H49 C45 0.930 . S
O50 Co39 2.039 . S
O50 C40 1.265 . S
C51 O47 1.253 . S
C51 O52 1.227 . S
O52 C51 1.227 . S
N53 Co39 2.140 . S
N53 C56 1.346 . S
N53 C57 1.345 . S
C54 C55 1.387 . S
C54 C58 1.391 . S
C55 C54 1.387 . S
C55 C56 1.369 . S
C55 H64 0.929 . S
C56 N53 1.346 . S
C56 C55 1.369 . S
C56 H59 0.928 . S
C57 N53 1.345 . S
C57 C58 1.371 . S
C57 H60 0.931 . S
C58 C54 1.391 . S
C58 C57 1.371 . S
C58 H65 0.930 . S
H59 C56 0.928 . S
H60 C57 0.931 . S
H61 C37 0.930 . S
H62 C34 0.930 . S
H63 C43 0.930 . S
H64 C55 0.929 . S
H65 C58 0.930 . S
C66 C67 1.351 . S
C66 N69 1.368 . S
C66 H71 0.931 . S
C67 C66 1.351 . S
C67 N68 1.373 . S
C67 H95 0.930 . S
N68 C67 1.373 . S
N68 C70 1.340 . S
N69 C66 1.368 . S
N69 C70 1.321 . S
N69 Co72 2.135 . S
C70 N68 1.340 . S
C70 N69 1.321 . S
C70 H94 0.930 . S
H71 C66 0.931 . S
Co72 N69 2.135 . S
Co72 N75 2.121 . S
Co72 O80 2.055 . S
Co72 O83 2.039 . S
Co72 N86 2.140 . S
C73 O74 1.227 . S
C73 O83 1.265 . S
O74 C73 1.227 . S
N75 Co72 2.121 . S
N75 C77 1.375 . S
N75 C78 1.313 1_455 S
C76 C77 1.338 1_655 S
C76 N79 1.377 . S
C76 H96 0.930 . S
C77 N75 1.375 . S
C77 C76 1.338 1_455 S
C77 H81 0.931 . S
C78 N75 1.313 1_655 S
C78 N79 1.344 . S
C78 H82 0.930 . S
N79 C76 1.377 . S
N79 C78 1.344 . S
O80 Co72 2.055 . S
O80 C84 1.253 1_455 S
H81 C77 0.931 . S
H82 C78 0.930 . S
O83 Co72 2.039 . S
O83 C73 1.265 . S
C84 O80 1.253 1_655 S
C84 O85 1.227 . S
O85 C84 1.227 . S
N86 Co72 2.140 . S
N86 C89 1.346 . S
N86 C90 1.345 . S
C87 C88 1.387 . S
C87 C91 1.391 . S
C88 C87 1.387 . S
C88 C89 1.369 . S
C88 H97 0.929 . S
C89 N86 1.346 . S
C89 C88 1.369 . S
C89 H92 0.928 . S
C90 N86 1.345 . S
C90 C91 1.371 . S
C90 H93 0.931 1_455 S
C91 C87 1.391 . S
C91 C90 1.371 . S
C91 H98 0.930 1_455 S
H92 C89 0.928 . S
H93 C90 0.931 1_655 S
H94 C70 0.930 . S
H95 C67 0.930 . S
H96 C76 0.930 . S
H97 C88 0.929 . S
H98 C91 0.930 1_655 S
C99 C100 1.351 . S
C99 N102 1.368 . S
C99 H104 0.931 . S
C100 C99 1.351 . S
C100 N101 1.373 . S
C100 H128 0.930 . S
N101 C100 1.373 . S
N101 C103 1.340 . S
N102 C99 1.368 . S
N102 C103 1.321 . S
N102 Co105 2.135 . S
C103 N101 1.340 . S
C103 N102 1.321 . S
C103 H127 0.930 . S
H104 C99 0.931 . S
Co105 N102 2.135 . S
Co105 N108 2.121 . S
Co105 O113 2.055 . S
Co105 O116 2.039 . S
Co105 N119 2.140 . S
C106 O107 1.227 . S
C106 O116 1.265 . S
O107 C106 1.227 . S
N108 Co105 2.121 . S
N108 C110 1.375 . S
N108 C111 1.313 . S
C109 C110 1.338 . S
C109 N112 1.377 . S
C109 H129 0.930 . S
C110 N108 1.375 . S
C110 C109 1.338 . S
C110 H114 0.931 . S
C111 N108 1.313 . S
C111 N112 1.344 . S
C111 H115 0.930 . S
N112 C109 1.377 . S
N112 C111 1.344 . S
O113 Co105 2.055 . S
O113 C117 1.253 . S
H114 C110 0.931 . S
H115 C111 0.930 . S
O116 Co105 2.039 . S
O116 C106 1.265 . S
C117 O113 1.253 . S
C117 O118 1.227 . S
O118 C117 1.227 . S
N119 Co105 2.140 . S
N119 C122 1.346 . S
N119 C123 1.345 . S
C120 C121 1.387 . S
C120 C124 1.391 . S
C121 C120 1.387 . S
C121 C122 1.369 . S
C121 H130 0.929 . S
C122 N119 1.346 . S
C122 C121 1.369 . S
C122 H125 0.928 . S
C123 N119 1.345 . S
C123 C124 1.371 . S
C123 H126 0.931 . S
C124 C120 1.391 . S
C124 C123 1.371 . S
C124 H131 0.930 . S
H125 C122 0.928 . S
H126 C123 0.931 . S
H127 C103 0.930 . S
H128 C100 0.930 . S
H129 C109 0.930 . S
H130 C121 0.929 . S
H131 C124 0.930 . S
C132 C133 1.351 . S
C132 N135 1.368 . S
C132 H137 0.931 . S
C133 C132 1.351 . S
C133 N134 1.373 . S
C133 H161 0.930 . S
N134 C133 1.373 . S
N134 C136 1.340 . S
N135 C132 1.368 . S
N135 C136 1.321 . S
N135 Co138 2.135 . S
C136 N134 1.340 . S
C136 N135 1.321 . S
C136 H160 0.930 . S
H137 C132 0.931 . S
Co138 N135 2.135 . S
Co138 N141 2.121 . S
Co138 O146 2.055 . S
Co138 O149 2.039 . S
Co138 N152 2.140 . S
C139 O140 1.227 . S
C139 O149 1.265 . S
O140 C139 1.227 . S
N141 Co138 2.121 . S
N141 C143 1.375 . S
N141 C144 1.313 1_655 S
C142 C143 1.338 1_455 S
C142 N145 1.377 . S
C142 H162 0.930 . S
C143 N141 1.375 . S
C143 C142 1.338 1_655 S
C143 H147 0.931 . S
C144 N141 1.313 1_455 S
C144 N145 1.344 . S
C144 H148 0.930 . S
N145 C142 1.377 . S
N145 C144 1.344 . S
O146 Co138 2.055 . S
O146 C150 1.253 1_655 S
H147 C143 0.931 . S
H148 C144 0.930 . S
O149 Co138 2.039 . S
O149 C139 1.265 . S
C150 O146 1.253 1_455 S
C150 O151 1.227 . S
O151 C150 1.227 . S
N152 Co138 2.140 . S
N152 C155 1.346 . S
N152 C156 1.345 . S
C153 C154 1.387 . S
C153 C157 1.391 . S
C154 C153 1.387 . S
C154 C155 1.369 . S
C154 H163 0.929 . S
C155 N152 1.346 . S
C155 C154 1.369 . S
C155 H158 0.928 . S
C156 N152 1.345 . S
C156 C157 1.371 . S
C156 H159 0.931 1_655 S
C157 C153 1.391 . S
C157 C156 1.371 . S
C157 H164 0.930 1_655 S
H158 C155 0.928 . S
H159 C156 0.931 1_455 S
H160 C136 0.930 . S
H161 C133 0.930 . S
H162 C142 0.930 . S
H163 C154 0.929 . S
H164 C157 0.930 1_455 S
C165 C166 1.351 . S
C165 N168 1.368 . S
C165 H170 0.931 . S
C166 C165 1.351 . S
C166 N167 1.373 . S
C166 H194 0.930 . S
N167 C166 1.373 . S
N167 C169 1.340 . S
N168 C165 1.368 . S
N168 C169 1.321 . S
N168 Co171 2.135 . S
C169 N167 1.340 . S
C169 N168 1.321 . S
C169 H193 0.930 . S
H170 C165 0.931 . S
Co171 N168 2.135 . S
Co171 N174 2.121 . S
Co171 O179 2.055 . S
Co171 O182 2.039 . S
Co171 N185 2.140 . S
C172 O173 1.227 . S
C172 O182 1.265 . S
O173 C172 1.227 . S
N174 Co171 2.121 . S
N174 C176 1.375 . S
N174 C177 1.313 . S
C175 C176 1.338 . S
C175 N178 1.377 . S
C175 H195 0.930 . S
C176 N174 1.375 . S
C176 C175 1.338 . S
C176 H180 0.931 . S
C177 N174 1.313 . S
C177 N178 1.344 . S
C177 H181 0.930 . S
N178 C175 1.377 . S
N178 C177 1.344 . S
O179 Co171 2.055 . S
O179 C183 1.253 . S
H180 C176 0.931 . S
H181 C177 0.930 . S
O182 Co171 2.039 . S
O182 C172 1.265 . S
C183 O179 1.253 . S
C183 O184 1.227 . S
O184 C183 1.227 . S
N185 Co171 2.140 . S
N185 C188 1.346 . S
N185 C189 1.345 . S
C186 C187 1.387 . S
C186 C190 1.391 . S
C187 C186 1.387 . S
C187 C188 1.369 . S
C187 H196 0.929 . S
C188 N185 1.346 . S
C188 C187 1.369 . S
C188 H191 0.928 . S
C189 N185 1.345 . S
C189 C190 1.371 . S
C189 H192 0.931 . S
C190 C186 1.391 . S
C190 C189 1.371 . S
C190 H197 0.930 . S
H191 C188 0.928 . S
H192 C189 0.931 . S
H193 C169 0.930 . S
H194 C166 0.930 . S
H195 C175 0.930 . S
H196 C187 0.929 . S
H197 C190 0.930 . S
C198 C199 1.351 . S
C198 N201 1.368 . S
C198 H203 0.931 . S
C199 C198 1.351 . S
C199 N200 1.373 . S
C199 H227 0.930 . S
N200 C199 1.373 . S
N200 C202 1.340 . S
N201 C198 1.368 . S
N201 C202 1.321 . S
N201 Co204 2.135 . S
C202 N200 1.340 . S
C202 N201 1.321 . S
C202 H226 0.930 . S
H203 C198 0.931 . S
Co204 N201 2.135 . S
Co204 N207 2.121 . S
Co204 O212 2.055 . S
Co204 O215 2.039 . S
Co204 N218 2.140 . S
C205 O206 1.227 . S
C205 O215 1.265 . S
O206 C205 1.227 . S
N207 Co204 2.121 . S
N207 C209 1.375 . S
N207 C210 1.313 1_655 S
C208 C209 1.338 1_455 S
C208 N211 1.377 . S
C208 H228 0.930 . S
C209 N207 1.375 . S
C209 C208 1.338 1_655 S
C209 H213 0.931 . S
C210 N207 1.313 1_455 S
C210 N211 1.344 . S
C210 H214 0.930 . S
N211 C208 1.377 . S
N211 C210 1.344 . S
O212 Co204 2.055 . S
O212 C216 1.253 1_655 S
H213 C209 0.931 . S
H214 C210 0.930 . S
O215 Co204 2.039 . S
O215 C205 1.265 . S
C216 O212 1.253 1_455 S
C216 O217 1.227 . S
O217 C216 1.227 . S
N218 Co204 2.140 . S
N218 C221 1.346 . S
N218 C222 1.345 . S
C219 C220 1.387 . S
C219 C223 1.391 . S
C220 C219 1.387 . S
C220 C221 1.369 . S
C220 H229 0.929 . S
C221 N218 1.346 . S
C221 C220 1.369 . S
C221 H224 0.928 . S
C222 N218 1.345 . S
C222 C223 1.371 . S
C222 H225 0.931 1_655 S
C223 C219 1.391 . S
C223 C222 1.371 . S
C223 H230 0.930 1_655 S
H224 C221 0.928 . S
H225 C222 0.931 1_455 S
H226 C202 0.930 . S
H227 C199 0.930 . S
H228 C208 0.930 . S
H229 C220 0.929 . S
H230 C223 0.930 1_455 S
C231 C232 1.351 . S
C231 N234 1.368 . S
C231 H236 0.931 . S
C232 C231 1.351 . S
C232 N233 1.373 . S
C232 H260 0.930 . S
N233 C232 1.373 . S
N233 C235 1.340 . S
N234 C231 1.368 . S
N234 C235 1.321 . S
N234 Co237 2.135 . S
C235 N233 1.340 . S
C235 N234 1.321 . S
C235 H259 0.930 . S
H236 C231 0.931 . S
Co237 N234 2.135 . S
Co237 N240 2.121 . S
Co237 O245 2.055 . S
Co237 O248 2.039 . S
Co237 N251 2.140 . S
C238 O239 1.227 . S
C238 O248 1.265 . S
O239 C238 1.227 . S
N240 Co237 2.121 . S
N240 C242 1.375 . S
N240 C243 1.313 . S
C241 C242 1.338 . S
C241 N244 1.377 . S
C241 H261 0.930 . S
C242 N240 1.375 . S
C242 C241 1.338 . S
C242 H246 0.931 . S
C243 N240 1.313 . S
C243 N244 1.344 . S
C243 H247 0.930 . S
N244 C241 1.377 . S
N244 C243 1.344 . S
O245 Co237 2.055 . S
O245 C249 1.253 . S
H246 C242 0.931 . S
H247 C243 0.930 . S
O248 Co237 2.039 . S
O248 C238 1.265 . S
C249 O245 1.253 . S
C249 O250 1.227 . S
O250 C249 1.227 . S
N251 Co237 2.140 . S
N251 C254 1.346 . S
N251 C255 1.345 . S
C252 C253 1.387 . S
C252 C256 1.391 . S
C253 C252 1.387 . S
C253 C254 1.369 . S
C253 H262 0.929 . S
C254 N251 1.346 . S
C254 C253 1.369 . S
C254 H257 0.928 . S
C255 N251 1.345 . S
C255 C256 1.371 . S
C255 H258 0.931 . S
C256 C252 1.391 . S
C256 C255 1.371 . S
C256 H263 0.930 . S
H257 C254 0.928 . S
H258 C255 0.931 . S
H259 C235 0.930 . S
H260 C232 0.930 . S
H261 C241 0.930 . S
H262 C253 0.929 . S
H263 C256 0.930 . S
C264 C265 1.387 1_565 S
C264 H268 0.950 . S
C264 C273 1.390 . S
C265 C264 1.387 1_545 S
C265 C267 1.387 1_654 S
H266 C273 0.950 . S
C267 C265 1.387 1_456 S
C267 C269 1.390 . S
C267 H271 0.950 . S
H268 C264 0.950 . S
C269 C267 1.390 . S
C269 C270 1.387 1_545 S
C269 H272 0.950 . S
C270 C269 1.387 1_565 S
C270 C273 1.387 1_456 S
H271 C267 0.950 . S
H272 C269 0.950 . S
C273 C264 1.390 . S
C273 H266 0.950 . S
C273 C270 1.387 1_654 S
C274 C275 1.387 . S
C274 H278 0.950 . S
C274 C283 1.390 1_545 S
C275 C274 1.387 . S
C275 C277 1.387 1_556 S
H276 C283 0.950 . S
C277 C275 1.387 1_554 S
C277 C279 1.390 1_545 S
C277 H281 0.950 . S
H278 C274 0.950 . S
C279 C277 1.390 1_565 S
C279 C280 1.387 . S
C279 H282 0.950 . S
C280 C279 1.387 . S
C280 C283 1.387 1_554 S
H281 C277 0.950 . S
H282 C279 0.950 . S
C283 C274 1.390 1_565 S
C283 H276 0.950 . S
C283 C280 1.387 1_556 S
C284 C285 1.387 1_655 S
C284 H288 0.950 . S
C284 C293 1.390 . S
C285 C284 1.387 1_455 S
C285 C287 1.387 . S
H286 C293 0.950 . S
C287 C285 1.387 . S
C287 C289 1.390 . S
C287 H291 0.950 . S
H288 C284 0.950 . S
C289 C287 1.390 . S
C289 C290 1.387 1_455 S
C289 H292 0.950 . S
C290 C289 1.387 1_655 S
C290 C293 1.387 . S
H291 C287 0.950 . S
H292 C289 0.950 . S
C293 C284 1.390 . S
C293 H286 0.950 . S
C293 C290 1.387 . S
C294 C295 1.387 . S
C294 H298 0.950 . S
C294 C303 1.390 . S
C295 C294 1.387 . S
C295 C297 1.387 . S
H296 C303 0.950 . S
C297 C295 1.387 . S
C297 C299 1.390 . S
C297 H301 0.950 . S
H298 C294 0.950 . S
C299 C297 1.390 . S
C299 C300 1.387 . S
C299 H302 0.950 . S
C300 C299 1.387 . S
C300 C303 1.387 . S
H301 C297 0.950 . S
H302 C299 0.950 . S
C303 C294 1.390 . S
C303 H296 0.950 . S
C303 C300 1.387 . S
C304 C305 1.387 . S
C304 H308 0.950 . S
C304 C313 1.390 1_565 S
C305 C304 1.387 . S
C305 C307 1.387 . S
H306 C313 0.950 . S
C307 C305 1.387 . S
C307 C309 1.390 1_565 S
C307 H311 0.950 . S
H308 C304 0.950 . S
C309 C307 1.390 1_545 S
C309 C310 1.387 . S
C309 H312 0.950 . S
C310 C309 1.387 . S
C310 C313 1.387 . S
H311 C307 0.950 . S
H312 C309 0.950 . S
C313 C304 1.390 1_545 S
C313 H306 0.950 . S
C313 C310 1.387 . S
C314 C315 1.387 . S
C314 H318 0.950 . S
C314 C323 1.390 . S
C315 C314 1.387 . S
C315 C317 1.387 . S
H316 C323 0.950 . S
C317 C315 1.387 . S
C317 C319 1.390 . S
C317 H321 0.950 . S
H318 C314 0.950 . S
C319 C317 1.390 . S
C319 C320 1.387 . S
C319 H322 0.950 . S
C320 C319 1.387 . S
C320 C323 1.387 . S
H321 C317 0.950 . S
H322 C319 0.950 . S
C323 C314 1.390 . S
C323 H316 0.950 . S
C323 C320 1.387 . S
C324 C325 1.387 . S
C324 H328 0.950 . S
C324 C333 1.390 1_565 S
C325 C324 1.387 . S
C325 C327 1.387 . S
H326 C333 0.950 . S
C327 C325 1.387 . S
C327 C329 1.390 1_565 S
C327 H331 0.950 . S
H328 C324 0.950 . S
C329 C327 1.390 1_545 S
C329 C330 1.387 . S
C329 H332 0.950 . S
C330 C329 1.387 . S
C330 C333 1.387 . S
H331 C327 0.950 . S
H332 C329 0.950 . S
C333 C324 1.390 1_545 S
C333 H326 0.950 . S
C333 C330 1.387 . S
C334 C335 1.387 . S
C334 H338 0.950 . S
C334 C343 1.390 . S
C335 C334 1.387 . S
C335 C337 1.387 . S
H336 C343 0.950 . S
C337 C335 1.387 . S
C337 C339 1.390 . S
C337 H341 0.950 . S
H338 C334 0.950 . S
C339 C337 1.390 . S
C339 C340 1.387 . S
C339 H342 0.950 . S
C340 C339 1.387 . S
C340 C343 1.387 . S
H341 C337 0.950 . S
H342 C339 0.950 . S
C343 C334 1.390 . S
C343 H336 0.950 . S
C343 C340 1.387 . S
C344 C345 1.387 . S
C344 H348 0.950 . S
C344 C353 1.390 1_554 S
C345 C344 1.387 . S
C345 C347 1.387 . S
H346 C353 0.950 . S
C347 C345 1.387 . S
C347 C349 1.390 . S
C347 H351 0.950 . S
H348 C344 0.950 . S
C349 C347 1.390 . S
C349 C350 1.387 1_554 S
C349 H352 0.950 . S
C350 C349 1.387 1_556 S
C350 C353 1.387 . S
H351 C347 0.950 . S
H352 C349 0.950 . S
C353 C344 1.390 1_556 S
C353 H346 0.950 . S
C353 C350 1.387 . S
C354 C355 1.387 1_554 S
C354 H358 0.950 . S
C354 C363 1.390 . S
C355 C354 1.387 1_556 S
C355 C357 1.387 . S
H356 C363 0.950 . S
C357 C355 1.387 . S
C357 C359 1.390 . S
C357 H361 0.950 . S
H358 C354 0.950 . S
C359 C357 1.390 . S
C359 C360 1.387 1_556 S
C359 H362 0.950 . S
C360 C359 1.387 1_554 S
C360 C363 1.387 . S
H361 C357 0.950 . S
H362 C359 0.950 . S
C363 C354 1.390 . S
C363 H356 0.950 . S
C363 C360 1.387 . S
C364 C365 1.387 . S
C364 H368 0.950 . S
C364 C373 1.390 . S
C365 C364 1.387 . S
C365 C367 1.387 . S
H366 C373 0.950 . S
C367 C365 1.387 . S
C367 C369 1.390 . S
C367 H371 0.950 . S
H368 C364 0.950 . S
C369 C367 1.390 . S
C369 C370 1.387 . S
C369 H372 0.950 . S
C370 C369 1.387 . S
C370 C373 1.387 . S
H371 C367 0.950 . S
H372 C369 0.950 . S
C373 C364 1.390 . S
C373 H366 0.950 . S
C373 C370 1.387 . S
C374 C375 1.387 . S
C374 H378 0.950 . S
C374 C383 1.390 . S
C375 C374 1.387 . S
C375 C377 1.387 . S
H376 C383 0.950 . S
C377 C375 1.387 . S
C377 C379 1.390 . S
C377 H381 0.950 . S
H378 C374 0.950 . S
C379 C377 1.390 . S
C379 C380 1.387 . S
C379 H382 0.950 . S
C380 C379 1.387 . S
C380 C383 1.387 . S
H381 C377 0.950 . S
H382 C379 0.950 . S
C383 C374 1.390 . S
C383 H376 0.950 . S
C383 C380 1.387 . S
C384 C385 1.387 1_556 S
C384 H388 0.950 . S
C384 C393 1.390 . S
C385 C384 1.387 1_554 S
C385 C387 1.387 . S
H386 C393 0.950 . S
C387 C385 1.387 . S
C387 C389 1.390 . S
C387 H391 0.950 . S
H388 C384 0.950 . S
C389 C387 1.390 . S
C389 C390 1.387 1_554 S
C389 H392 0.950 . S
C390 C389 1.387 1_556 S
C390 C393 1.387 . S
H391 C387 0.950 . S
H392 C389 0.950 . S
C393 C384 1.390 . S
C393 H386 0.950 . S
C393 C390 1.387 . S
C394 C395 1.387 1_554 S
C394 H398 0.950 . S
C394 C403 1.390 . S
C395 C394 1.387 1_556 S
C395 C397 1.387 . S
H396 C403 0.950 . S
C397 C395 1.387 . S
C397 C399 1.390 . S
C397 H401 0.950 . S
H398 C394 0.950 . S
C399 C397 1.390 . S
C399 C400 1.387 1_556 S
C399 H402 0.950 . S
C400 C399 1.387 1_554 S
C400 C403 1.387 . S
H401 C397 0.950 . S
H402 C399 0.950 . S
C403 C394 1.390 . S
C403 H396 0.950 . S
C403 C400 1.387 . S
C404 C405 1.387 . S
C404 H408 0.950 . S
C404 C413 1.390 . S
C405 C404 1.387 . S
C405 C407 1.387 . S
H406 C413 0.950 . S
C407 C405 1.387 . S
C407 C409 1.390 . S
C407 H411 0.950 . S
H408 C404 0.950 . S
C409 C407 1.390 . S
C409 C410 1.387 . S
C409 H412 0.950 . S
C410 C409 1.387 . S
C410 C413 1.387 . S
H411 C407 0.950 . S
H412 C409 0.950 . S
C413 C404 1.390 . S
C413 H406 0.950 . S
C413 C410 1.387 . S
C414 C415 1.387 . S
C414 H418 0.950 . S
C414 C423 1.390 . S
C415 C414 1.387 . S
C415 C417 1.387 . S
H416 C423 0.950 . S
C417 C415 1.387 . S
C417 C419 1.390 . S
C417 H421 0.950 . S
H418 C414 0.950 . S
C419 C417 1.390 . S
C419 C420 1.387 . S
C419 H422 0.950 . S
C420 C419 1.387 . S
C420 C423 1.387 . S
H421 C417 0.950 . S
H422 C419 0.950 . S
C423 C414 1.390 . S
C423 H416 0.950 . S
C423 C420 1.387 . S
C424 C425 1.387 . S
C424 H428 0.950 . S
C424 C433 1.390 . S
C425 C424 1.387 . S
C425 C427 1.387 1_455 S
H426 C433 0.950 . S
C427 C425 1.387 1_655 S
C427 C429 1.390 . S
C427 H431 0.950 . S
H428 C424 0.950 . S
C429 C427 1.390 . S
C429 C430 1.387 1_655 S
C429 H432 0.950 . S
C430 C429 1.387 1_455 S
C430 C433 1.387 . S
H431 C427 0.950 . S
H432 C429 0.950 . S
C433 C424 1.390 . S
C433 H426 0.950 . S
C433 C430 1.387 . S
C434 C435 1.387 . S
C434 H438 0.950 . S
C434 C443 1.390 . S
C435 C434 1.387 . S
C435 C437 1.387 . S
H436 C443 0.950 . S
C437 C435 1.387 . S
C437 C439 1.390 . S
C437 H441 0.950 . S
H438 C434 0.950 . S
C439 C437 1.390 . S
C439 C440 1.387 . S
C439 H442 0.950 . S
C440 C439 1.387 . S
C440 C443 1.387 . S
H441 C437 0.950 . S
H442 C439 0.950 . S
C443 C434 1.390 . S
C443 H436 0.950 . S
C443 C440 1.387 . S
C444 C445 1.387 1_455 S
C444 H448 0.950 . S
C444 C453 1.390 . S
C445 C444 1.387 1_655 S
C445 C447 1.387 . S
H446 C453 0.950 . S
C447 C445 1.387 . S
C447 C449 1.390 . S
C447 H451 0.950 . S
H448 C444 0.950 . S
C449 C447 1.390 . S
C449 C450 1.387 . S
C449 H452 0.950 . S
C450 C449 1.387 . S
C450 C453 1.387 1_655 S
H451 C447 0.950 . S
H452 C449 0.950 . S
C453 C444 1.390 . S
C453 H446 0.950 . S
C453 C450 1.387 1_455 S
C454 C455 1.387 . S
C454 H458 0.950 . S
C454 C463 1.390 . S
C455 C454 1.387 . S
C455 C457 1.387 . S
H456 C463 0.950 . S
C457 C455 1.387 . S
C457 C459 1.390 . S
C457 H461 0.950 . S
H458 C454 0.950 . S
C459 C457 1.390 . S
C459 C460 1.387 . S
C459 H462 0.950 . S
C460 C459 1.387 . S
C460 C463 1.387 . S
H461 C457 0.950 . S
H462 C459 0.950 . S
C463 C454 1.390 . S
C463 H456 0.950 . S
C463 C460 1.387 . S
C265 C18 1.378 . S
C270 C150 1.378 . S
C275 C183 1.382 . S
C280 C51 1.382 . S
C285 C216 1.378 . S
C290 C84 1.378 . S
C295 C117 1.379 . S
C300 C249 1.379 . S
C305 N35 0.862 . S
C310 N2 0.862 . S
C315 N68 0.862 . S
C320 N101 0.862 . S
C325 N134 0.852 . S
C330 N167 0.852 . S
C335 N233 0.862 . S
C340 N200 0.862 . S
C345 C7 1.846 . S
C350 N178 1.944 . S
C355 N145 1.943 . S
C360 C40 1.846 . S
C365 N244 1.944 . S
C370 C73 1.846 . S
C375 N211 1.944 . S
C380 C106 1.843 . S
C385 N46 1.944 . S
C390 C139 1.843 . S
C395 C172 1.846 . S
C400 N13 1.943 . S
C405 C205 1.846 . S
C410 N112 1.943 . S
C415 N79 1.944 . S
C420 C238 1.846 . S
C425 C87 1.530 . S
C430 C21 1.530 . S
C435 C54 1.530 . S
C440 C120 1.530 . S
C445 C219 1.530 . S
C450 C153 1.530 . S
C455 C252 1.530 . S
C460 C186 1.530 . S
