# Generated by pormake.
# Topology upc, (4)-cn, num edge types: 1
# Building blocks:
#     Node 0, Type 0, BuildingBlock: GALJAG_clean_sbu_0, # of connection points: 4
#     Node 1, Type 0, BuildingBlock: GALJAG_clean_sbu_0, # of connection points: 4
#     Node 2, Type 0, BuildingBlock: GALJAG_clean_sbu_0, # of connection points: 4
#     Node 3, Type 0, BuildingBlock: GALJAG_clean_sbu_0, # of connection points: 4
#     Node 4, Type 0, BuildingBlock: GALJAG_clean_sbu_0, # of connection points: 4
#     Node 5, Type 0, BuildingBlock: GALJAG_clean_sbu_0, # of connection points: 4
#     Node 6, Type 0, BuildingBlock: GALJAG_clean_sbu_0, # of connection points: 4
#     Node 7, Type 0, BuildingBlock: GALJAG_clean_sbu_0, # of connection points: 4
#     Node 8, Type 0, BuildingBlock: GALJAG_clean_sbu_0, # of connection points: 4
#     Node 9, Type 0, BuildingBlock: GALJAG_clean_sbu_0, # of connection points: 4
#     Node 10, Type 0, BuildingBlock: GALJAG_clean_sbu_0, # of connection points: 4
#     Node 11, Type 0, BuildingBlock: GALJAG_clean_sbu_0, # of connection points: 4
#     Node 12, Type 0, BuildingBlock: GALJAG_clean_sbu_0, # of connection points: 4
#     Node 13, Type 0, BuildingBlock: GALJAG_clean_sbu_0, # of connection points: 4
#     Node 14, Type 0, BuildingBlock: GALJAG_clean_sbu_0, # of connection points: 4
#     Node 15, Type 0, BuildingBlock: GALJAG_clean_sbu_0, # of connection points: 4
#     Edge 16, Type (0, 0), BuildingBlock: EYOCIG_clean_linker_4, # of connection points: 2
#     Edge 17, Type (0, 0), BuildingBlock: EYOCIG_clean_linker_4, # of connection points: 2
#     Edge 18, Type (0, 0), BuildingBlock: EYOCIG_clean_linker_4, # of connection points: 2
#     Edge 19, Type (0, 0), BuildingBlock: EYOCIG_clean_linker_4, # of connection points: 2
#     Edge 20, Type (0, 0), BuildingBlock: EYOCIG_clean_linker_4, # of connection points: 2
#     Edge 21, Type (0, 0), BuildingBlock: EYOCIG_clean_linker_4, # of connection points: 2
#     Edge 22, Type (0, 0), BuildingBlock: EYOCIG_clean_linker_4, # of connection points: 2
#     Edge 23, Type (0, 0), BuildingBlock: EYOCIG_clean_linker_4, # of connection points: 2
#     Edge 24, Type (0, 0), BuildingBlock: EYOCIG_clean_linker_4, # of connection points: 2
#     Edge 25, Type (0, 0), BuildingBlock: EYOCIG_clean_linker_4, # of connection points: 2
#     Edge 26, Type (0, 0), BuildingBlock: EYOCIG_clean_linker_4, # of connection points: 2
#     Edge 27, Type (0, 0), BuildingBlock: EYOCIG_clean_linker_4, # of connection points: 2
#     Edge 28, Type (0, 0), BuildingBlock: EYOCIG_clean_linker_4, # of connection points: 2
#     Edge 29, Type (0, 0), BuildingBlock: EYOCIG_clean_linker_4, # of connection points: 2
#     Edge 30, Type (0, 0), BuildingBlock: EYOCIG_clean_linker_4, # of connection points: 2
#     Edge 31, Type (0, 0), BuildingBlock: EYOCIG_clean_linker_4, # of connection points: 2
#     Edge 32, Type (0, 0), BuildingBlock: EYOCIG_clean_linker_4, # of connection points: 2
#     Edge 33, Type (0, 0), BuildingBlock: EYOCIG_clean_linker_4, # of connection points: 2
#     Edge 34, Type (0, 0), BuildingBlock: EYOCIG_clean_linker_4, # of connection points: 2
#     Edge 35, Type (0, 0), BuildingBlock: EYOCIG_clean_linker_4, # of connection points: 2
#     Edge 36, Type (0, 0), BuildingBlock: EYOCIG_clean_linker_4, # of connection points: 2
#     Edge 37, Type (0, 0), BuildingBlock: EYOCIG_clean_linker_4, # of connection points: 2
#     Edge 38, Type (0, 0), BuildingBlock: EYOCIG_clean_linker_4, # of connection points: 2
#     Edge 39, Type (0, 0), BuildingBlock: EYOCIG_clean_linker_4, # of connection points: 2
#     Edge 40, Type (0, 0), BuildingBlock: EYOCIG_clean_linker_4, # of connection points: 2
#     Edge 41, Type (0, 0), BuildingBlock: EYOCIG_clean_linker_4, # of connection points: 2
#     Edge 42, Type (0, 0), BuildingBlock: EYOCIG_clean_linker_4, # of connection points: 2
#     Edge 43, Type (0, 0), BuildingBlock: EYOCIG_clean_linker_4, # of connection points: 2
#     Edge 44, Type (0, 0), BuildingBlock: EYOCIG_clean_linker_4, # of connection points: 2
#     Edge 45, Type (0, 0), BuildingBlock: EYOCIG_clean_linker_4, # of connection points: 2
#     Edge 46, Type (0, 0), BuildingBlock: EYOCIG_clean_linker_4, # of connection points: 2
#     Edge 47, Type (0, 0), BuildingBlock: EYOCIG_clean_linker_4, # of connection points: 2
# Relax obj value: 0.220
# Max RMSD: 0.228
# Mean RMSD: 0.228
data_MOF--net-upc--node1-GALJAG_clean_sbu_0--edge1-EYOCIG_clean_linker_4
_symmetry_space_group_name_H-M    P1
_symmetry_Int_Tables_number       1
_symmetry_cell_setting            triclinic
loop_
_symmetry_equiv_pos_as_xyz
'x, y, z'
_cell_length_a     28.475567
_cell_length_b     28.486919
_cell_length_c     33.195285
_cell_angle_alpha  90.040176
_cell_angle_beta   90.014473
_cell_angle_gamma 89.999306
loop_
_atom_site_label
_atom_site_type_symbol
_atom_site_fract_x
_atom_site_fract_y
_atom_site_fract_z
_atom_type_partial_charge
In0 In 0.08944 0.61028 0.10135 0.0
O1 O 0.10675 0.54788 0.1432 0.0
O2 O 0.03582 0.57207 0.13938 0.0
C3 C 0.16648 0.65888 0.08007 0.0
C4 C 0.05492 0.5666 0.03671 0.0
C5 C 0.05726 0.67816 0.14843 0.0
O6 O 0.16908 0.62372 0.10332 0.0
O7 O 0.12651 0.66657 0.06524 0.0
O8 O 0.03874 0.67048 0.11437 0.0
O9 O 0.09195 0.65292 0.15766 0.0
C10 C 0.06452 0.54374 0.15494 0.0
O11 O 0.03652 0.60355 0.05062 0.0
O12 O 0.09253 0.5535 0.05348 0.0
In13 In 0.88042 0.08952 0.10122 0.0
O14 O 0.88719 0.03627 0.05072 0.0
O15 O 0.93736 0.09216 0.05347 0.0
C16 C 0.81172 0.05766 0.14759 0.0
C17 C 0.94664 0.06468 0.15521 0.0
C18 C 0.83269 0.16708 0.07987 0.0
O19 O 0.81953 0.03934 0.11348 0.0
O20 O 0.8373 0.09194 0.15724 0.0
O21 O 0.86761 0.16923 0.10344 0.0
O22 O 0.82482 0.12727 0.06479 0.0
C23 C 0.92421 0.05451 0.03681 0.0
O24 O 0.94276 0.1068 0.14321 0.0
O25 O 0.91818 0.03601 0.13974 0.0
In26 In 0.40186 0.87959 0.1012 0.0
O27 O 0.38531 0.94167 0.14362 0.0
O28 O 0.45589 0.91643 0.13991 0.0
C29 C 0.3237 0.83285 0.07975 0.0
C30 C 0.43752 0.9236 0.0372 0.0
C31 C 0.43312 0.81062 0.14752 0.0
O32 O 0.32197 0.86785 0.10325 0.0
O33 O 0.36343 0.82448 0.06471 0.0
O34 O 0.45148 0.81826 0.11341 0.0
O35 O 0.39899 0.83641 0.15714 0.0
C36 C 0.42752 0.94499 0.15562 0.0
O37 O 0.4551 0.88605 0.05067 0.0
O38 O 0.40011 0.93715 0.05402 0.0
In39 In 0.60984 0.40057 0.101 0.0
O40 O 0.54759 0.38342 0.143 0.0
O41 O 0.57216 0.45424 0.13935 0.0
C42 C 0.65819 0.3237 0.07901 0.0
C43 C 0.56566 0.43588 0.03695 0.0
C44 C 0.6777 0.43133 0.14878 0.0
O45 O 0.62273 0.3209 0.10194 0.0
O46 O 0.66624 0.36386 0.06472 0.0
O47 O 0.67052 0.45037 0.11486 0.0
O48 O 0.65201 0.39679 0.15749 0.0
C49 C 0.54376 0.42561 0.15491 0.0
O50 O 0.6028 0.45405 0.05076 0.0
O51 O 0.5527 0.39807 0.05343 0.0
In52 In 0.08926 0.88065 0.34827 0.0
O53 O 0.03587 0.88662 0.39873 0.0
O54 O 0.09142 0.93716 0.3965 0.0
C55 C 0.05718 0.81214 0.30173 0.0
C56 C 0.06422 0.94721 0.29472 0.0
C57 C 0.1673 0.83307 0.36865 0.0
O58 O 0.03926 0.81958 0.33604 0.0
O59 O 0.09117 0.838 0.29193 0.0
O60 O 0.16901 0.86812 0.34525 0.0
O61 O 0.12775 0.8251 0.38417 0.0
C62 C 0.05378 0.92364 0.41294 0.0
O63 O 0.10629 0.94361 0.30699 0.0
O64 O 0.0357 0.91831 0.30972 0.0
In65 In 0.61079 0.0894 0.34917 0.0
O66 O 0.60532 0.0368 0.40023 0.0
O67 O 0.55383 0.09144 0.39688 0.0
C68 C 0.67871 0.0583 0.30162 0.0
C69 C 0.54465 0.06285 0.29579 0.0
C70 C 0.65795 0.1675 0.37 0.0
O71 O 0.67179 0.0398 0.33579 0.0
O72 O 0.65278 0.09253 0.29256 0.0
O73 O 0.62234 0.16931 0.34715 0.0
O74 O 0.66678 0.12771 0.38469 0.0
C75 C 0.5678 0.05431 0.41388 0.0
O76 O 0.54809 0.10524 0.30727 0.0
O77 O 0.57343 0.03475 0.31154 0.0
In78 In 0.4011 0.60974 0.34818 0.0
O79 O 0.38416 0.54732 0.30626 0.0
O80 O 0.45502 0.57172 0.31028 0.0
C81 C 0.32366 0.65817 0.36861 0.0
C82 C 0.43532 0.56591 0.41284 0.0
C83 C 0.43339 0.67766 0.30129 0.0
O84 O 0.32147 0.62287 0.34545 0.0
O85 O 0.36339 0.666 0.38388 0.0
O86 O 0.45154 0.6703 0.33554 0.0
O87 O 0.39907 0.65207 0.29178 0.0
C88 C 0.42644 0.54331 0.29463 0.0
O89 O 0.45377 0.6029 0.39911 0.0
O90 O 0.39776 0.5529 0.39594 0.0
In91 In 0.88106 0.40102 0.34867 0.0
O92 O 0.94329 0.38397 0.30652 0.0
O93 O 0.91831 0.45464 0.30992 0.0
C94 C 0.83276 0.32387 0.37002 0.0
C95 C 0.9256 0.43587 0.41278 0.0
C96 C 0.81194 0.43236 0.30253 0.0
O97 O 0.86753 0.32146 0.3463 0.0
O98 O 0.82553 0.36364 0.38542 0.0
O99 O 0.81974 0.45074 0.33663 0.0
O100 O 0.83788 0.3984 0.29273 0.0
C101 C 0.94689 0.4261 0.29445 0.0
O102 O 0.88872 0.45447 0.39891 0.0
O103 O 0.93819 0.39794 0.39628 0.0
In104 In 0.90141 0.38065 0.84865 0.0
O105 O 0.95497 0.38715 0.8989 0.0
O106 O 0.89938 0.43771 0.89628 0.0
C107 C 0.93247 0.31292 0.80087 0.0
C108 C 0.92657 0.44707 0.79515 0.0
C109 C 0.82426 0.33261 0.8706 0.0
O110 O 0.95128 0.32 0.83492 0.0
O111 O 0.89797 0.33861 0.79203 0.0
O112 O 0.82164 0.36785 0.84743 0.0
O113 O 0.86437 0.32459 0.88504 0.0
C114 C 0.93712 0.42443 0.91272 0.0
O115 O 0.88435 0.44326 0.80703 0.0
O116 O 0.95513 0.41843 0.81048 0.0
In117 In 0.10969 0.90076 0.84855 0.0
O118 O 0.10301 0.95463 0.89853 0.0
O119 O 0.05296 0.89856 0.89647 0.0
C120 C 0.17817 0.93134 0.80147 0.0
C121 C 0.04351 0.9263 0.79486 0.0
C122 C 0.15776 0.82342 0.86969 0.0
O123 O 0.1712 0.94985 0.83565 0.0
O124 O 0.15182 0.89754 0.79208 0.0
O125 O 0.12262 0.82111 0.84635 0.0
O126 O 0.16543 0.8632 0.88491 0.0
C127 C 0.06601 0.93654 0.91264 0.0
O128 O 0.04675 0.88418 0.80706 0.0
O129 O 0.07262 0.95458 0.80995 0.0
In130 In 0.59038 0.11031 0.84961 0.0
O131 O 0.53756 0.1034 0.90038 0.0
O132 O 0.59301 0.05276 0.8967 0.0
C133 C 0.56018 0.1785 0.80212 0.0
C134 C 0.56387 0.04512 0.7954 0.0
C135 C 0.66764 0.15812 0.87146 0.0
O136 O 0.54101 0.17136 0.83601 0.0
O137 O 0.59456 0.15261 0.79333 0.0
O138 O 0.67019 0.12259 0.84856 0.0
O139 O 0.62753 0.16649 0.88577 0.0
C140 C 0.55559 0.06598 0.91371 0.0
O141 O 0.60631 0.04846 0.80682 0.0
O142 O 0.53569 0.07349 0.81164 0.0
In143 In 0.38014 0.58917 0.8487 0.0
O144 O 0.44273 0.60507 0.8067 0.0
O145 O 0.41718 0.53465 0.81069 0.0
C146 C 0.33295 0.66739 0.86918 0.0
C147 C 0.42346 0.55407 0.91329 0.0
C148 C 0.31187 0.55762 0.80175 0.0
O149 O 0.36835 0.66904 0.84611 0.0
O150 O 0.32442 0.62777 0.88431 0.0
O151 O 0.319 0.53948 0.83603 0.0
O152 O 0.33777 0.59172 0.7923 0.0
C153 C 0.446 0.56275 0.795 0.0
O154 O 0.38594 0.53649 0.89969 0.0
O155 O 0.43726 0.59126 0.89632 0.0
In156 In 0.90094 0.1101 0.60125 0.0
O157 O 0.95426 0.10241 0.55094 0.0
O158 O 0.89804 0.05263 0.55394 0.0
C159 C 0.93286 0.17922 0.64716 0.0
C160 C 0.92595 0.04444 0.65559 0.0
C161 C 0.82351 0.15799 0.57976 0.0
O162 O 0.95099 0.17125 0.61301 0.0
O163 O 0.89878 0.15353 0.6571 0.0
O164 O 0.82128 0.12332 0.60356 0.0
O165 O 0.86328 0.1654 0.56444 0.0
C166 C 0.93587 0.06531 0.53732 0.0
O167 O 0.88377 0.04819 0.64361 0.0
O168 O 0.95457 0.07281 0.63998 0.0
In169 In 0.38086 0.90096 0.60092 0.0
O170 O 0.3879 0.95388 0.5503 0.0
O171 O 0.43828 0.89818 0.55367 0.0
C172 C 0.31187 0.93144 0.64749 0.0
C173 C 0.44612 0.92785 0.65494 0.0
C174 C 0.33338 0.82315 0.58014 0.0
O175 O 0.31895 0.94977 0.61326 0.0
O176 O 0.33836 0.89787 0.65714 0.0
O177 O 0.36853 0.82126 0.6035 0.0
O178 O 0.32545 0.86275 0.5647 0.0
C179 C 0.42525 0.93578 0.53687 0.0
O180 O 0.44317 0.88548 0.64329 0.0
O181 O 0.4172 0.95577 0.63911 0.0
In182 In 0.5895 0.37988 0.60043 0.0
O183 O 0.53574 0.38635 0.55032 0.0
O184 O 0.59104 0.43721 0.55307 0.0
C185 C 0.55966 0.31072 0.64712 0.0
C186 C 0.56339 0.44514 0.65478 0.0
C187 C 0.66739 0.33298 0.57871 0.0
O188 O 0.54086 0.31794 0.6131 0.0
O189 O 0.59342 0.33713 0.6565 0.0
O190 O 0.66937 0.36802 0.60218 0.0
O191 O 0.62758 0.3248 0.56371 0.0
C192 C 0.55336 0.42376 0.53661 0.0
O193 O 0.60556 0.4423 0.64261 0.0
O194 O 0.53527 0.41613 0.6393 0.0
In195 In 0.11059 0.58938 0.6018 0.0
O196 O 0.04792 0.60645 0.64345 0.0
O197 O 0.07339 0.53594 0.64077 0.0
C198 C 0.15792 0.66748 0.58125 0.0
C199 C 0.06717 0.5536 0.53745 0.0
C200 C 0.17955 0.55734 0.6478 0.0
O201 O 0.12303 0.66913 0.60487 0.0
O202 O 0.1658 0.62797 0.56561 0.0
O203 O 0.17191 0.53952 0.61347 0.0
O204 O 0.15369 0.59124 0.65784 0.0
C205 C 0.04453 0.56446 0.65586 0.0
O206 O 0.10432 0.5358 0.5515 0.0
O207 O 0.0537 0.59126 0.55389 0.0
C208 C 0.22991 0.72626 0.07397 0.0
C209 C 0.20257 0.69415 0.07787 0.0
C210 C 0.25938 0.76632 0.07391 0.0
C211 C 0.28706 0.79814 0.07775 0.0
C212 C 0.76576 0.23092 0.07344 0.0
C213 C 0.79772 0.20345 0.07755 0.0
C214 C 0.72561 0.26029 0.07314 0.0
C215 C 0.69346 0.28761 0.07689 0.0
C216 C 0.23106 0.76593 0.37372 0.0
C217 C 0.20366 0.79803 0.37019 0.0
C218 C 0.26027 0.72567 0.37374 0.0
C219 C 0.28753 0.69343 0.37022 0.0
C220 C 0.76479 0.26099 0.3756 0.0
C221 C 0.79712 0.28811 0.37192 0.0
C222 C 0.72451 0.23179 0.37555 0.0
C223 C 0.69252 0.20428 0.37179 0.0
C224 C 0.76063 0.26549 0.87712 0.0
C225 C 0.78798 0.29756 0.87301 0.0
C226 C 0.73133 0.22528 0.87733 0.0
C227 C 0.70397 0.19317 0.87352 0.0
C228 C 0.26611 0.73143 0.87448 0.0
C229 C 0.29822 0.70404 0.87079 0.0
C230 C 0.22571 0.76047 0.87467 0.0
C231 C 0.1933 0.78754 0.87123 0.0
C232 C 0.73107 0.26578 0.57327 0.0
C233 C 0.7037 0.29791 0.57693 0.0
C234 C 0.76023 0.22549 0.57354 0.0
C235 C 0.78747 0.19331 0.57756 0.0
C236 C 0.22518 0.73104 0.57588 0.0
C237 C 0.19297 0.7038 0.5796 0.0
C238 C 0.26563 0.75998 0.57557 0.0
C239 C 0.29802 0.7871 0.57886 0.0
C240 C 0.00478 0.45992 0.23919 0.0
C241 C 0.97978 0.4414 0.26406 0.0
C242 C 0.03067 0.4857 0.21003 0.0
C243 C 0.04928 0.51076 0.18526 0.0
C244 C 0.00463 0.0311 0.21048 0.0
C245 C 0.97958 0.04955 0.1856 0.0
C246 C 0.03047 0.00535 0.23969 0.0
C247 C 0.04901 0.98029 0.26449 0.0
C248 C 0.48719 0.02806 0.24061 0.0
C249 C 0.51202 0.04691 0.26543 0.0
C250 C 0.46156 0.00226 0.21128 0.0
C251 C 0.44303 0.9775 0.18622 0.0
C252 C 0.48608 0.45945 0.21029 0.0
C253 C 0.51098 0.44088 0.18538 0.0
C254 C 0.46036 0.48531 0.23951 0.0
C255 C 0.4418 0.51039 0.26431 0.0
C256 C 0.98655 0.53088 0.71109 0.0
C257 C 0.01156 0.5493 0.6862 0.0
C258 C 0.96063 0.50515 0.74024 0.0
C259 C 0.94193 0.4801 0.76495 0.0
C260 C 0.9855 0.9606 0.73994 0.0
C261 C 0.01049 0.94183 0.76468 0.0
C262 C 0.95974 0.98657 0.71083 0.0
C263 C 0.94123 0.01159 0.68597 0.0
C264 C 0.52907 0.98838 0.73966 0.0
C265 C 0.5479 0.01293 0.76471 0.0
C266 C 0.50329 0.96277 0.7103 0.0
C267 C 0.47854 0.94398 0.68538 0.0
C268 C 0.52899 0.50234 0.71034 0.0
C269 C 0.54764 0.47764 0.68531 0.0
C270 C 0.50332 0.52808 0.73968 0.0
C271 C 0.47855 0.54687 0.76458 0.0
C272 C 0.03059 0.73279 0.20688 0.0
C273 C 0.03835 0.70997 0.17726 0.0
C274 C 0.03061 0.75673 0.2438 0.0
C275 C 0.03836 0.7798 0.27329 0.0
C276 C 0.75637 0.03152 0.20561 0.0
C277 C 0.77939 0.03896 0.17605 0.0
C278 C 0.73274 0.03184 0.24266 0.0
C279 C 0.71026 0.03964 0.27247 0.0
C280 C 0.45989 0.73217 0.24282 0.0
C281 C 0.45229 0.70954 0.27256 0.0
C282 C 0.45969 0.75571 0.20574 0.0
C283 C 0.45195 0.77854 0.17614 0.0
C284 C 0.73188 0.45729 0.20786 0.0
C285 C 0.70925 0.44969 0.17809 0.0
C286 C 0.75577 0.45769 0.24481 0.0
C287 C 0.77912 0.4506 0.27424 0.0
C288 C 0.95901 0.23511 0.70483 0.0
C289 C 0.95157 0.21187 0.67538 0.0
C290 C 0.95875 0.25891 0.74182 0.0
C291 C 0.95103 0.28144 0.77161 0.0
C292 C 0.25658 0.9568 0.70581 0.0
C293 C 0.27945 0.94959 0.67613 0.0
C294 C 0.23306 0.95677 0.7429 0.0
C295 C 0.21031 0.9495 0.77262 0.0
C296 C 0.53471 0.2324 0.74286 0.0
C297 C 0.54196 0.21003 0.7728 0.0
C298 C 0.53462 0.25562 0.70564 0.0
C299 C 0.54168 0.27843 0.67592 0.0
C300 C 0.25789 0.53078 0.74297 0.0
C301 C 0.28025 0.53863 0.77283 0.0
C302 C 0.23462 0.53063 0.70576 0.0
C303 C 0.21183 0.53831 0.67613 0.0
C304 C 0.00936 0.51125 -0.01349 0.0
C305 C 0.03004 0.53664 0.00943 0.0
C306 C 0.98372 0.47995 0.96207 0.0
C307 C 0.96264 0.45442 0.93954 0.0
C308 C 0.01058 0.98307 0.96212 0.0
C309 C 0.03603 0.96197 0.93953 0.0
C310 C 0.9794 0.00875 -0.01337 0.0
C311 C 0.95408 0.02952 0.00954 0.0
C312 C 0.48406 0.97891 -0.01231 0.0
C313 C 0.46302 0.95345 0.01029 0.0
C314 C 0.50974 0.01024 0.96334 0.0
C315 C 0.53052 0.03583 0.94069 0.0
C316 C 0.47852 0.50765 0.96313 0.0
C317 C 0.45315 0.52861 0.94038 0.0
C318 C 0.50985 0.48195 -0.01251 0.0
C319 C 0.53547 0.46106 0.01007 0.0
C320 C 0.00735 0.97826 0.46316 0.0
C321 C 0.02838 0.95316 0.44023 0.0
C322 C 0.98163 0.00938 0.48772 0.0
C323 C 0.96079 0.03497 0.51037 0.0
C324 C 0.51284 0.00776 0.46366 0.0
C325 C 0.53818 0.02876 0.44094 0.0
C326 C 0.48142 0.98197 0.48783 0.0
C327 C 0.45565 0.96101 0.51022 0.0
C328 C 0.50654 0.47905 0.48724 0.0
C329 C 0.52771 0.4536 0.50977 0.0
C330 C 0.48084 0.51031 0.46284 0.0
C331 C 0.46015 0.53579 0.44001 0.0
C332 C 0.98135 0.48139 0.46274 0.0
C333 C 0.95585 0.46065 0.43992 0.0
C334 C 0.01243 0.50705 0.48738 0.0
C335 C 0.03758 0.52815 0.51024 0.0
loop_
_geom_bond_atom_site_label_1
_geom_bond_atom_site_label_2
_geom_bond_distance
_geom_bond_site_symmetry_2
_ccdc_geom_bond_type
In0 O1 2.294 . S
In0 O2 2.326 . S
In0 O6 2.266 . S
In0 O7 2.326 . S
In0 O8 2.266 . S
In0 O9 2.326 . S
In0 O11 2.294 . S
In0 O12 2.326 . S
O1 In0 2.294 . S
O1 C10 1.240 . S
O2 In0 2.326 . S
O2 C10 1.252 . S
C3 O6 1.252 . S
C3 O7 1.260 . S
C4 O11 1.240 . S
C4 O12 1.252 . S
C5 O8 1.252 . S
C5 O9 1.260 . S
O6 In0 2.266 . S
O6 C3 1.252 . S
O7 In0 2.326 . S
O7 C3 1.260 . S
O8 In0 2.266 . S
O8 C5 1.252 . S
O9 In0 2.326 . S
O9 C5 1.260 . S
C10 O1 1.240 . S
C10 O2 1.252 . S
O11 In0 2.294 . S
O11 C4 1.240 . S
O12 In0 2.326 . S
O12 C4 1.252 . S
In13 O14 2.294 . S
In13 O15 2.326 . S
In13 O19 2.266 . S
In13 O20 2.326 . S
In13 O21 2.266 . S
In13 O22 2.326 . S
In13 O24 2.294 . S
In13 O25 2.326 . S
O14 In13 2.294 . S
O14 C23 1.240 . S
O15 In13 2.326 . S
O15 C23 1.252 . S
C16 O19 1.252 . S
C16 O20 1.260 . S
C17 O24 1.240 . S
C17 O25 1.252 . S
C18 O21 1.252 . S
C18 O22 1.260 . S
O19 In13 2.266 . S
O19 C16 1.252 . S
O20 In13 2.326 . S
O20 C16 1.260 . S
O21 In13 2.266 . S
O21 C18 1.252 . S
O22 In13 2.326 . S
O22 C18 1.260 . S
C23 O14 1.240 . S
C23 O15 1.252 . S
O24 In13 2.294 . S
O24 C17 1.240 . S
O25 In13 2.326 . S
O25 C17 1.252 . S
In26 O27 2.294 . S
In26 O28 2.326 . S
In26 O32 2.266 . S
In26 O33 2.326 . S
In26 O34 2.266 . S
In26 O35 2.326 . S
In26 O37 2.294 . S
In26 O38 2.326 . S
O27 In26 2.294 . S
O27 C36 1.240 . S
O28 In26 2.326 . S
O28 C36 1.252 . S
C29 O32 1.252 . S
C29 O33 1.260 . S
C30 O37 1.240 . S
C30 O38 1.252 . S
C31 O34 1.252 . S
C31 O35 1.260 . S
O32 In26 2.266 . S
O32 C29 1.252 . S
O33 In26 2.326 . S
O33 C29 1.260 . S
O34 In26 2.266 . S
O34 C31 1.252 . S
O35 In26 2.326 . S
O35 C31 1.260 . S
C36 O27 1.240 . S
C36 O28 1.252 . S
O37 In26 2.294 . S
O37 C30 1.240 . S
O38 In26 2.326 . S
O38 C30 1.252 . S
In39 O40 2.294 . S
In39 O41 2.326 . S
In39 O45 2.266 . S
In39 O46 2.326 . S
In39 O47 2.266 . S
In39 O48 2.326 . S
In39 O50 2.294 . S
In39 O51 2.326 . S
O40 In39 2.294 . S
O40 C49 1.240 . S
O41 In39 2.326 . S
O41 C49 1.252 . S
C42 O45 1.252 . S
C42 O46 1.260 . S
C43 O50 1.240 . S
C43 O51 1.252 . S
C44 O47 1.252 . S
C44 O48 1.260 . S
O45 In39 2.266 . S
O45 C42 1.252 . S
O46 In39 2.326 . S
O46 C42 1.260 . S
O47 In39 2.266 . S
O47 C44 1.252 . S
O48 In39 2.326 . S
O48 C44 1.260 . S
C49 O40 1.240 . S
C49 O41 1.252 . S
O50 In39 2.294 . S
O50 C43 1.240 . S
O51 In39 2.326 . S
O51 C43 1.252 . S
In52 O53 2.294 . S
In52 O54 2.326 . S
In52 O58 2.266 . S
In52 O59 2.326 . S
In52 O60 2.266 . S
In52 O61 2.326 . S
In52 O63 2.294 . S
In52 O64 2.326 . S
O53 In52 2.294 . S
O53 C62 1.240 . S
O54 In52 2.326 . S
O54 C62 1.252 . S
C55 O58 1.252 . S
C55 O59 1.260 . S
C56 O63 1.240 . S
C56 O64 1.252 . S
C57 O60 1.252 . S
C57 O61 1.260 . S
O58 In52 2.266 . S
O58 C55 1.252 . S
O59 In52 2.326 . S
O59 C55 1.260 . S
O60 In52 2.266 . S
O60 C57 1.252 . S
O61 In52 2.326 . S
O61 C57 1.260 . S
C62 O53 1.240 . S
C62 O54 1.252 . S
O63 In52 2.294 . S
O63 C56 1.240 . S
O64 In52 2.326 . S
O64 C56 1.252 . S
In65 O66 2.294 . S
In65 O67 2.326 . S
In65 O71 2.266 . S
In65 O72 2.326 . S
In65 O73 2.266 . S
In65 O74 2.326 . S
In65 O76 2.294 . S
In65 O77 2.326 . S
O66 In65 2.294 . S
O66 C75 1.240 . S
O67 In65 2.326 . S
O67 C75 1.252 . S
C68 O71 1.252 . S
C68 O72 1.260 . S
C69 O76 1.240 . S
C69 O77 1.252 . S
C70 O73 1.252 . S
C70 O74 1.260 . S
O71 In65 2.266 . S
O71 C68 1.252 . S
O72 In65 2.326 . S
O72 C68 1.260 . S
O73 In65 2.266 . S
O73 C70 1.252 . S
O74 In65 2.326 . S
O74 C70 1.260 . S
C75 O66 1.240 . S
C75 O67 1.252 . S
O76 In65 2.294 . S
O76 C69 1.240 . S
O77 In65 2.326 . S
O77 C69 1.252 . S
In78 O79 2.294 . S
In78 O80 2.326 . S
In78 O84 2.266 . S
In78 O85 2.326 . S
In78 O86 2.266 . S
In78 O87 2.326 . S
In78 O89 2.294 . S
In78 O90 2.326 . S
O79 In78 2.294 . S
O79 C88 1.240 . S
O80 In78 2.326 . S
O80 C88 1.252 . S
C81 O84 1.252 . S
C81 O85 1.260 . S
C82 O89 1.240 . S
C82 O90 1.252 . S
C83 O86 1.252 . S
C83 O87 1.260 . S
O84 In78 2.266 . S
O84 C81 1.252 . S
O85 In78 2.326 . S
O85 C81 1.260 . S
O86 In78 2.266 . S
O86 C83 1.252 . S
O87 In78 2.326 . S
O87 C83 1.260 . S
C88 O79 1.240 . S
C88 O80 1.252 . S
O89 In78 2.294 . S
O89 C82 1.240 . S
O90 In78 2.326 . S
O90 C82 1.252 . S
In91 O92 2.294 . S
In91 O93 2.326 . S
In91 O97 2.266 . S
In91 O98 2.326 . S
In91 O99 2.266 . S
In91 O100 2.326 . S
In91 O102 2.294 . S
In91 O103 2.326 . S
O92 In91 2.294 . S
O92 C101 1.240 . S
O93 In91 2.326 . S
O93 C101 1.252 . S
C94 O97 1.252 . S
C94 O98 1.260 . S
C95 O102 1.240 . S
C95 O103 1.252 . S
C96 O99 1.252 . S
C96 O100 1.260 . S
O97 In91 2.266 . S
O97 C94 1.252 . S
O98 In91 2.326 . S
O98 C94 1.260 . S
O99 In91 2.266 . S
O99 C96 1.252 . S
O100 In91 2.326 . S
O100 C96 1.260 . S
C101 O92 1.240 . S
C101 O93 1.252 . S
O102 In91 2.294 . S
O102 C95 1.240 . S
O103 In91 2.326 . S
O103 C95 1.252 . S
In104 O105 2.294 . S
In104 O106 2.326 . S
In104 O110 2.266 . S
In104 O111 2.326 . S
In104 O112 2.266 . S
In104 O113 2.326 . S
In104 O115 2.294 . S
In104 O116 2.326 . S
O105 In104 2.294 . S
O105 C114 1.240 . S
O106 In104 2.326 . S
O106 C114 1.252 . S
C107 O110 1.252 . S
C107 O111 1.260 . S
C108 O115 1.240 . S
C108 O116 1.252 . S
C109 O112 1.252 . S
C109 O113 1.260 . S
O110 In104 2.266 . S
O110 C107 1.252 . S
O111 In104 2.326 . S
O111 C107 1.260 . S
O112 In104 2.266 . S
O112 C109 1.252 . S
O113 In104 2.326 . S
O113 C109 1.260 . S
C114 O105 1.240 . S
C114 O106 1.252 . S
O115 In104 2.294 . S
O115 C108 1.240 . S
O116 In104 2.326 . S
O116 C108 1.252 . S
In117 O118 2.294 . S
In117 O119 2.326 . S
In117 O123 2.266 . S
In117 O124 2.326 . S
In117 O125 2.266 . S
In117 O126 2.326 . S
In117 O128 2.294 . S
In117 O129 2.326 . S
O118 In117 2.294 . S
O118 C127 1.240 . S
O119 In117 2.326 . S
O119 C127 1.252 . S
C120 O123 1.252 . S
C120 O124 1.260 . S
C121 O128 1.240 . S
C121 O129 1.252 . S
C122 O125 1.252 . S
C122 O126 1.260 . S
O123 In117 2.266 . S
O123 C120 1.252 . S
O124 In117 2.326 . S
O124 C120 1.260 . S
O125 In117 2.266 . S
O125 C122 1.252 . S
O126 In117 2.326 . S
O126 C122 1.260 . S
C127 O118 1.240 . S
C127 O119 1.252 . S
O128 In117 2.294 . S
O128 C121 1.240 . S
O129 In117 2.326 . S
O129 C121 1.252 . S
In130 O131 2.294 . S
In130 O132 2.326 . S
In130 O136 2.266 . S
In130 O137 2.326 . S
In130 O138 2.266 . S
In130 O139 2.326 . S
In130 O141 2.294 . S
In130 O142 2.326 . S
O131 In130 2.294 . S
O131 C140 1.240 . S
O132 In130 2.326 . S
O132 C140 1.252 . S
C133 O136 1.252 . S
C133 O137 1.260 . S
C134 O141 1.240 . S
C134 O142 1.252 . S
C135 O138 1.252 . S
C135 O139 1.260 . S
O136 In130 2.266 . S
O136 C133 1.252 . S
O137 In130 2.326 . S
O137 C133 1.260 . S
O138 In130 2.266 . S
O138 C135 1.252 . S
O139 In130 2.326 . S
O139 C135 1.260 . S
C140 O131 1.240 . S
C140 O132 1.252 . S
O141 In130 2.294 . S
O141 C134 1.240 . S
O142 In130 2.326 . S
O142 C134 1.252 . S
In143 O144 2.294 . S
In143 O145 2.326 . S
In143 O149 2.266 . S
In143 O150 2.326 . S
In143 O151 2.266 . S
In143 O152 2.326 . S
In143 O154 2.294 . S
In143 O155 2.326 . S
O144 In143 2.294 . S
O144 C153 1.240 . S
O145 In143 2.326 . S
O145 C153 1.252 . S
C146 O149 1.252 . S
C146 O150 1.260 . S
C147 O154 1.240 . S
C147 O155 1.252 . S
C148 O151 1.252 . S
C148 O152 1.260 . S
O149 In143 2.266 . S
O149 C146 1.252 . S
O150 In143 2.326 . S
O150 C146 1.260 . S
O151 In143 2.266 . S
O151 C148 1.252 . S
O152 In143 2.326 . S
O152 C148 1.260 . S
C153 O144 1.240 . S
C153 O145 1.252 . S
O154 In143 2.294 . S
O154 C147 1.240 . S
O155 In143 2.326 . S
O155 C147 1.252 . S
In156 O157 2.294 . S
In156 O158 2.326 . S
In156 O162 2.266 . S
In156 O163 2.326 . S
In156 O164 2.266 . S
In156 O165 2.326 . S
In156 O167 2.294 . S
In156 O168 2.326 . S
O157 In156 2.294 . S
O157 C166 1.240 . S
O158 In156 2.326 . S
O158 C166 1.252 . S
C159 O162 1.252 . S
C159 O163 1.260 . S
C160 O167 1.240 . S
C160 O168 1.252 . S
C161 O164 1.252 . S
C161 O165 1.260 . S
O162 In156 2.266 . S
O162 C159 1.252 . S
O163 In156 2.326 . S
O163 C159 1.260 . S
O164 In156 2.266 . S
O164 C161 1.252 . S
O165 In156 2.326 . S
O165 C161 1.260 . S
C166 O157 1.240 . S
C166 O158 1.252 . S
O167 In156 2.294 . S
O167 C160 1.240 . S
O168 In156 2.326 . S
O168 C160 1.252 . S
In169 O170 2.294 . S
In169 O171 2.326 . S
In169 O175 2.266 . S
In169 O176 2.326 . S
In169 O177 2.266 . S
In169 O178 2.326 . S
In169 O180 2.294 . S
In169 O181 2.326 . S
O170 In169 2.294 . S
O170 C179 1.240 . S
O171 In169 2.326 . S
O171 C179 1.252 . S
C172 O175 1.252 . S
C172 O176 1.260 . S
C173 O180 1.240 . S
C173 O181 1.252 . S
C174 O177 1.252 . S
C174 O178 1.260 . S
O175 In169 2.266 . S
O175 C172 1.252 . S
O176 In169 2.326 . S
O176 C172 1.260 . S
O177 In169 2.266 . S
O177 C174 1.252 . S
O178 In169 2.326 . S
O178 C174 1.260 . S
C179 O170 1.240 . S
C179 O171 1.252 . S
O180 In169 2.294 . S
O180 C173 1.240 . S
O181 In169 2.326 . S
O181 C173 1.252 . S
In182 O183 2.294 . S
In182 O184 2.326 . S
In182 O188 2.266 . S
In182 O189 2.326 . S
In182 O190 2.266 . S
In182 O191 2.326 . S
In182 O193 2.294 . S
In182 O194 2.326 . S
O183 In182 2.294 . S
O183 C192 1.240 . S
O184 In182 2.326 . S
O184 C192 1.252 . S
C185 O188 1.252 . S
C185 O189 1.260 . S
C186 O193 1.240 . S
C186 O194 1.252 . S
C187 O190 1.252 . S
C187 O191 1.260 . S
O188 In182 2.266 . S
O188 C185 1.252 . S
O189 In182 2.326 . S
O189 C185 1.260 . S
O190 In182 2.266 . S
O190 C187 1.252 . S
O191 In182 2.326 . S
O191 C187 1.260 . S
C192 O183 1.240 . S
C192 O184 1.252 . S
O193 In182 2.294 . S
O193 C186 1.240 . S
O194 In182 2.326 . S
O194 C186 1.252 . S
In195 O196 2.294 . S
In195 O197 2.326 . S
In195 O201 2.266 . S
In195 O202 2.326 . S
In195 O203 2.266 . S
In195 O204 2.326 . S
In195 O206 2.294 . S
In195 O207 2.326 . S
O196 In195 2.294 . S
O196 C205 1.240 . S
O197 In195 2.326 . S
O197 C205 1.252 . S
C198 O201 1.252 . S
C198 O202 1.260 . S
C199 O206 1.240 . S
C199 O207 1.252 . S
C200 O203 1.252 . S
C200 O204 1.260 . S
O201 In195 2.266 . S
O201 C198 1.252 . S
O202 In195 2.326 . S
O202 C198 1.260 . S
O203 In195 2.266 . S
O203 C200 1.252 . S
O204 In195 2.326 . S
O204 C200 1.260 . S
C205 O196 1.240 . S
C205 O197 1.252 . S
O206 In195 2.294 . S
O206 C199 1.240 . S
O207 In195 2.326 . S
O207 C199 1.252 . S
C208 C209 1.170 . S
C208 C210 1.380 . S
C209 C208 1.170 . S
C210 C208 1.380 . S
C210 C211 1.170 . S
C211 C210 1.170 . S
C212 C213 1.170 . S
C212 C214 1.380 . S
C213 C212 1.170 . S
C214 C212 1.380 . S
C214 C215 1.170 . S
C215 C214 1.170 . S
C216 C217 1.170 . S
C216 C218 1.380 . S
C217 C216 1.170 . S
C218 C216 1.380 . S
C218 C219 1.170 . S
C219 C218 1.170 . S
C220 C221 1.170 . S
C220 C222 1.380 . S
C221 C220 1.170 . S
C222 C220 1.380 . S
C222 C223 1.170 . S
C223 C222 1.170 . S
C224 C225 1.170 . S
C224 C226 1.380 . S
C225 C224 1.170 . S
C226 C224 1.380 . S
C226 C227 1.170 . S
C227 C226 1.170 . S
C228 C229 1.170 . S
C228 C230 1.380 . S
C229 C228 1.170 . S
C230 C228 1.380 . S
C230 C231 1.170 . S
C231 C230 1.170 . S
C232 C233 1.170 . S
C232 C234 1.380 . S
C233 C232 1.170 . S
C234 C232 1.380 . S
C234 C235 1.170 . S
C235 C234 1.170 . S
C236 C237 1.170 . S
C236 C238 1.380 . S
C237 C236 1.170 . S
C238 C236 1.380 . S
C238 C239 1.170 . S
C239 C238 1.170 . S
C240 C241 1.182 . S
C240 C242 1.369 1_655 S
C241 C240 1.182 . S
C242 C240 1.369 1_455 S
C242 C243 1.170 . S
C243 C242 1.170 . S
C244 C245 1.181 . S
C244 C246 1.369 1_645 S
C245 C244 1.181 . S
C246 C244 1.369 1_465 S
C246 C247 1.172 . S
C247 C246 1.172 . S
C248 C249 1.170 . S
C248 C250 1.380 1_545 S
C249 C248 1.170 . S
C250 C248 1.380 1_565 S
C250 C251 1.170 . S
C251 C250 1.170 . S
C252 C253 1.170 . S
C252 C254 1.380 . S
C253 C252 1.170 . S
C254 C252 1.380 . S
C254 C255 1.170 . S
C255 C254 1.170 . S
C256 C257 1.170 . S
C256 C258 1.380 1_455 S
C257 C256 1.170 . S
C258 C256 1.380 1_655 S
C258 C259 1.170 . S
C259 C258 1.170 . S
C260 C261 1.169 . S
C260 C262 1.381 1_465 S
C261 C260 1.169 . S
C262 C260 1.381 1_645 S
C262 C263 1.170 . S
C263 C262 1.170 . S
C264 C265 1.170 . S
C264 C266 1.380 1_545 S
C265 C264 1.170 . S
C266 C264 1.380 1_565 S
C266 C267 1.170 . S
C267 C266 1.170 . S
C268 C269 1.170 . S
C268 C270 1.380 . S
C269 C268 1.170 . S
C270 C268 1.380 . S
C270 C271 1.170 . S
C271 C270 1.170 . S
C272 C273 1.170 . S
C272 C274 1.380 . S
C273 C272 1.170 . S
C274 C272 1.380 . S
C274 C275 1.170 . S
C275 C274 1.170 . S
C276 C277 1.170 . S
C276 C278 1.380 . S
C277 C276 1.170 . S
C278 C276 1.380 . S
C278 C279 1.170 . S
C279 C278 1.170 . S
C280 C281 1.170 . S
C280 C282 1.380 . S
C281 C280 1.170 . S
C282 C280 1.380 . S
C282 C283 1.170 . S
C283 C282 1.170 . S
C284 C285 1.170 . S
C284 C286 1.380 . S
C285 C284 1.170 . S
C286 C284 1.380 . S
C286 C287 1.170 . S
C287 C286 1.170 . S
C288 C289 1.170 . S
C288 C290 1.380 . S
C289 C288 1.170 . S
C290 C288 1.380 . S
C290 C291 1.170 . S
C291 C290 1.170 . S
C292 C293 1.170 . S
C292 C294 1.380 . S
C293 C292 1.170 . S
C294 C292 1.380 . S
C294 C295 1.170 . S
C295 C294 1.170 . S
C296 C297 1.170 . S
C296 C298 1.380 . S
C297 C296 1.170 . S
C298 C296 1.380 . S
C298 C299 1.170 . S
C299 C298 1.170 . S
C300 C301 1.170 . S
C300 C302 1.380 . S
C301 C300 1.170 . S
C302 C300 1.380 . S
C302 C303 1.170 . S
C303 C302 1.170 . S
C304 C305 1.170 . S
C304 C306 1.380 1_454 S
C305 C304 1.170 . S
C306 C304 1.380 1_656 S
C306 C307 1.170 . S
C307 C306 1.170 . S
C308 C309 1.170 . S
C308 C310 1.380 1_466 S
C309 C308 1.170 . S
C310 C308 1.380 1_644 S
C310 C311 1.170 . S
C311 C310 1.170 . S
C312 C313 1.170 . S
C312 C314 1.380 1_564 S
C313 C312 1.170 . S
C314 C312 1.380 1_546 S
C314 C315 1.170 . S
C315 C314 1.170 . S
C316 C317 1.170 . S
C316 C318 1.380 1_556 S
C317 C316 1.170 . S
C318 C316 1.380 1_554 S
C318 C319 1.170 . S
C319 C318 1.170 . S
C320 C321 1.170 . S
C320 C322 1.380 1_465 S
C321 C320 1.170 . S
C322 C320 1.380 1_645 S
C322 C323 1.170 . S
C323 C322 1.170 . S
C324 C325 1.170 . S
C324 C326 1.380 1_545 S
C325 C324 1.170 . S
C326 C324 1.380 1_565 S
C326 C327 1.170 . S
C327 C326 1.170 . S
C328 C329 1.170 . S
C328 C330 1.380 . S
C329 C328 1.170 . S
C330 C328 1.380 . S
C330 C331 1.170 . S
C331 C330 1.170 . S
C332 C333 1.170 . S
C332 C334 1.380 1_655 S
C333 C332 1.170 . S
C334 C332 1.380 1_455 S
C334 C335 1.170 . S
C335 C334 1.170 . S
C209 C3 1.586 . S
C211 C29 1.617 . S
C213 C18 1.606 . S
C215 C42 1.596 . S
C217 C57 1.604 . S
C219 C81 1.599 . S
C221 C94 1.578 . S
C223 C70 1.625 . S
C225 C109 1.617 . S
C227 C135 1.613 . S
C229 C146 1.602 . S
C231 C122 1.578 . S
C233 C187 1.607 . S
C235 C161 1.621 . S
C237 C198 1.600 . S
C239 C174 1.579 . S
C241 C101 1.260 . S
C243 C10 1.265 . S
C245 C17 1.261 . S
C247 C56 1.265 . S
C249 C69 1.257 . S
C251 C36 1.241 . S
C253 C49 1.261 . S
C255 C88 1.265 . S
C257 C205 1.259 . S
C259 C108 1.270 . S
C261 C121 1.271 . S
C263 C160 1.268 . S
C265 C134 1.239 . S
C267 C173 1.245 . S
C269 C186 1.240 . S
C271 C153 1.241 . S
C273 C5 0.918 . S
C275 C55 0.927 . S
C277 C16 0.950 . S
C279 C68 0.895 . S
C281 C83 0.897 . S
C283 C31 0.948 . S
C285 C44 0.889 . S
C287 C96 0.957 . S
C289 C159 0.961 . S
C291 C107 0.902 . S
C293 C172 0.909 . S
C295 C120 0.894 . S
C297 C133 0.884 . S
C299 C185 0.931 . S
C301 C148 0.926 . S
C303 C200 0.957 . S
C305 C4 1.597 . S
C307 C114 1.567 . S
C309 C127 1.567 . S
C311 C23 1.600 . S
C313 C30 1.590 . S
C315 C140 1.588 . S
C317 C147 1.585 . S
C319 C43 1.573 . S
C321 C62 1.597 . S
C323 C166 1.580 . S
C325 C75 1.601 . S
C327 C179 1.571 . S
C329 C192 1.584 . S
C331 C82 1.574 . S
C333 C95 1.575 . S
C335 C199 1.584 . S
