# Generated by pormake.
# Topology pcb, (4)-cn, num edge types: 1
# Building blocks:
#     Node 0, Type 0, BuildingBlock: AZAVOO_clean_sbu_0, # of connection points: 4
#     Node 1, Type 0, BuildingBlock: AZAVOO_clean_sbu_0, # of connection points: 4
#     Node 2, Type 0, BuildingBlock: AZAVOO_clean_sbu_0, # of connection points: 4
#     Node 3, Type 0, BuildingBlock: AZAVOO_clean_sbu_0, # of connection points: 4
#     Node 4, Type 0, BuildingBlock: AZAVOO_clean_sbu_0, # of connection points: 4
#     Node 5, Type 0, BuildingBlock: AZAVOO_clean_sbu_0, # of connection points: 4
#     Node 6, Type 0, BuildingBlock: AZAVOO_clean_sbu_0, # of connection points: 4
#     Node 7, Type 0, BuildingBlock: AZAVOO_clean_sbu_0, # of connection points: 4
#     Node 8, Type 0, BuildingBlock: AZAVOO_clean_sbu_0, # of connection points: 4
#     Node 9, Type 0, BuildingBlock: AZAVOO_clean_sbu_0, # of connection points: 4
#     Node 10, Type 0, BuildingBlock: AZAVOO_clean_sbu_0, # of connection points: 4
#     Node 11, Type 0, BuildingBlock: AZAVOO_clean_sbu_0, # of connection points: 4
#     Node 12, Type 0, BuildingBlock: AZAVOO_clean_sbu_0, # of connection points: 4
#     Node 13, Type 0, BuildingBlock: AZAVOO_clean_sbu_0, # of connection points: 4
#     Node 14, Type 0, BuildingBlock: AZAVOO_clean_sbu_0, # of connection points: 4
#     Node 15, Type 0, BuildingBlock: AZAVOO_clean_sbu_0, # of connection points: 4
#     Edge 16, Type (0, 0), BuildingBlock: EYOCIG_clean_linker_4, # of connection points: 2
#     Edge 17, Type (0, 0), BuildingBlock: EYOCIG_clean_linker_4, # of connection points: 2
#     Edge 18, Type (0, 0), BuildingBlock: EYOCIG_clean_linker_4, # of connection points: 2
#     Edge 19, Type (0, 0), BuildingBlock: EYOCIG_clean_linker_4, # of connection points: 2
#     Edge 20, Type (0, 0), BuildingBlock: EYOCIG_clean_linker_4, # of connection points: 2
#     Edge 21, Type (0, 0), BuildingBlock: EYOCIG_clean_linker_4, # of connection points: 2
#     Edge 22, Type (0, 0), BuildingBlock: EYOCIG_clean_linker_4, # of connection points: 2
#     Edge 23, Type (0, 0), BuildingBlock: EYOCIG_clean_linker_4, # of connection points: 2
#     Edge 24, Type (0, 0), BuildingBlock: EYOCIG_clean_linker_4, # of connection points: 2
#     Edge 25, Type (0, 0), BuildingBlock: EYOCIG_clean_linker_4, # of connection points: 2
#     Edge 26, Type (0, 0), BuildingBlock: EYOCIG_clean_linker_4, # of connection points: 2
#     Edge 27, Type (0, 0), BuildingBlock: EYOCIG_clean_linker_4, # of connection points: 2
#     Edge 28, Type (0, 0), BuildingBlock: EYOCIG_clean_linker_4, # of connection points: 2
#     Edge 29, Type (0, 0), BuildingBlock: EYOCIG_clean_linker_4, # of connection points: 2
#     Edge 30, Type (0, 0), BuildingBlock: EYOCIG_clean_linker_4, # of connection points: 2
#     Edge 31, Type (0, 0), BuildingBlock: EYOCIG_clean_linker_4, # of connection points: 2
#     Edge 32, Type (0, 0), BuildingBlock: EYOCIG_clean_linker_4, # of connection points: 2
#     Edge 33, Type (0, 0), BuildingBlock: EYOCIG_clean_linker_4, # of connection points: 2
#     Edge 34, Type (0, 0), BuildingBlock: EYOCIG_clean_linker_4, # of connection points: 2
#     Edge 35, Type (0, 0), BuildingBlock: EYOCIG_clean_linker_4, # of connection points: 2
#     Edge 36, Type (0, 0), BuildingBlock: EYOCIG_clean_linker_4, # of connection points: 2
#     Edge 37, Type (0, 0), BuildingBlock: EYOCIG_clean_linker_4, # of connection points: 2
#     Edge 38, Type (0, 0), BuildingBlock: EYOCIG_clean_linker_4, # of connection points: 2
#     Edge 39, Type (0, 0), BuildingBlock: EYOCIG_clean_linker_4, # of connection points: 2
#     Edge 40, Type (0, 0), BuildingBlock: EYOCIG_clean_linker_4, # of connection points: 2
#     Edge 41, Type (0, 0), BuildingBlock: EYOCIG_clean_linker_4, # of connection points: 2
#     Edge 42, Type (0, 0), BuildingBlock: EYOCIG_clean_linker_4, # of connection points: 2
#     Edge 43, Type (0, 0), BuildingBlock: EYOCIG_clean_linker_4, # of connection points: 2
#     Edge 44, Type (0, 0), BuildingBlock: EYOCIG_clean_linker_4, # of connection points: 2
#     Edge 45, Type (0, 0), BuildingBlock: EYOCIG_clean_linker_4, # of connection points: 2
#     Edge 46, Type (0, 0), BuildingBlock: EYOCIG_clean_linker_4, # of connection points: 2
#     Edge 47, Type (0, 0), BuildingBlock: EYOCIG_clean_linker_4, # of connection points: 2
# Relax obj value: 0.186
# Max RMSD: 0.083
# Mean RMSD: 0.078
data_MOF--net-pcb--node1-AZAVOO_clean_sbu_0--edge1-EYOCIG_clean_linker_4
_symmetry_space_group_name_H-M    P1
_symmetry_Int_Tables_number       1
_symmetry_cell_setting            triclinic
loop_
_symmetry_equiv_pos_as_xyz
'x, y, z'
_cell_length_a     38.238089
_cell_length_b     38.270677
_cell_length_c     39.834364
_cell_angle_alpha  90.761701
_cell_angle_beta   90.710674
_cell_angle_gamma 89.58096
loop_
_atom_site_label
_atom_site_type_symbol
_atom_site_fract_x
_atom_site_fract_y
_atom_site_fract_z
_atom_type_partial_charge
Mg0 Mg 0.16172 0.13027 0.10925 0.0
O1 O 0.10406 0.14745 0.10535 0.0
O2 O 0.07841 0.11255 0.06684 0.0
Mg3 Mg 0.11923 0.07485 0.04521 0.0
C4 C 0.07736 0.13753 0.08831 0.0
C5 C 0.19725 0.18149 0.15576 0.0
O6 O 0.21693 0.18045 0.12903 0.0
O7 O 0.14598 0.08189 0.13823 0.0
O8 O 0.12427 0.04826 0.09645 0.0
O9 O 0.17612 0.16643 0.06828 0.0
O10 O 0.16039 0.11132 0.06036 0.0
C11 C 0.13308 0.05324 0.12715 0.0
C12 C 0.16926 0.14069 0.04799 0.0
O13 O 0.16997 0.16284 0.15669 0.0
Mg14 Mg 0.85121 0.15268 0.1323 0.0
O15 O 0.83688 0.1501 0.07505 0.0
O16 O 0.8749 0.11175 0.0525 0.0
Mg17 Mg 0.9126 0.09092 0.09265 0.0
C18 C 0.84917 0.133 0.04989 0.0
C19 C 0.80503 0.19844 0.17515 0.0
O20 O 0.83513 0.19668 0.19124 0.0
O21 O 0.82613 0.09912 0.14038 0.0
O22 O 0.86707 0.06369 0.11828 0.0
O23 O 0.89105 0.19474 0.12379 0.0
O24 O 0.90219 0.13804 0.12217 0.0
C25 C 0.83837 0.0687 0.13369 0.0
C26 C 0.91303 0.16939 0.11896 0.0
O27 O 0.8014 0.18243 0.14712 0.0
Mg28 Mg 0.80446 0.82421 0.11619 0.0
O29 O 0.86498 0.81989 0.12189 0.0
O30 O 0.88673 0.85294 0.08109 0.0
Mg31 Mg 0.84244 0.87683 0.04965 0.0
C32 C 0.89073 0.83286 0.10618 0.0
C33 C 0.76718 0.7778 0.16191 0.0
O34 O 0.75077 0.77679 0.1328 0.0
O35 O 0.80516 0.87959 0.13918 0.0
O36 O 0.82533 0.90939 0.09535 0.0
O37 O 0.80333 0.77943 0.07951 0.0
O38 O 0.80864 0.83493 0.06574 0.0
C39 C 0.81327 0.90817 0.12503 0.0
C40 C 0.80722 0.8027 0.05669 0.0
O41 O 0.7939 0.79716 0.16564 0.0
Mg42 Mg 0.14677 0.8316 0.13131 0.0
O43 O 0.08645 0.82397 0.13056 0.0
O44 O 0.06456 0.86795 0.09986 0.0
Mg45 Mg 0.10858 0.90286 0.08167 0.0
C46 C 0.06069 0.84059 0.11735 0.0
C47 C 0.18215 0.78049 0.17714 0.0
O48 O 0.19729 0.81068 0.18286 0.0
O49 O 0.15049 0.81116 0.07646 0.0
O50 O 0.12954 0.8578 0.04893 0.0
O51 O 0.14276 0.86741 0.17645 0.0
O52 O 0.14045 0.88474 0.12377 0.0
C53 C 0.14311 0.82724 0.04925 0.0
C54 C 0.13881 0.89234 0.15516 0.0
O55 O 0.15781 0.77837 0.15512 0.0
Mg56 Mg 0.1265 0.81157 0.8079 0.0
O57 O 0.13428 0.87181 0.8087 0.0
O58 O 0.09031 0.89379 0.83945 0.0
Mg59 Mg 0.05527 0.84989 0.85763 0.0
C60 C 0.1177 0.89759 0.82193 0.0
C61 C 0.17759 0.77603 0.76207 0.0
O62 O 0.14734 0.76096 0.75637 0.0
O63 O 0.14693 0.80778 0.86272 0.0
O64 O 0.10031 0.82882 0.89032 0.0
O65 O 0.09069 0.81567 0.76278 0.0
O66 O 0.07333 0.81802 0.81548 0.0
C67 C 0.13086 0.81518 0.88996 0.0
C68 C 0.06574 0.81968 0.78409 0.0
O69 O 0.17975 0.8004 0.78406 0.0
Mg70 Mg 0.13422 0.15358 0.82311 0.0
O71 O 0.13857 0.0931 0.81736 0.0
O72 O 0.10549 0.07139 0.85819 0.0
Mg73 Mg 0.08156 0.11564 0.88967 0.0
C74 C 0.12558 0.06738 0.83308 0.0
C75 C 0.18059 0.19091 0.77738 0.0
O76 O 0.18155 0.20732 0.8065 0.0
O77 O 0.0788 0.15286 0.80017 0.0
O78 O 0.04897 0.13271 0.84401 0.0
O79 O 0.17905 0.15472 0.85974 0.0
O80 O 0.1235 0.14939 0.87358 0.0
C81 C 0.0502 0.14476 0.81433 0.0
C82 C 0.15576 0.15081 0.88258 0.0
O83 O 0.16128 0.16416 0.77365 0.0
Mg84 Mg 0.80539 0.10713 0.80697 0.0
O85 O 0.808 0.12143 0.86424 0.0
O86 O 0.84627 0.08332 0.88672 0.0
Mg87 Mg 0.86703 0.04562 0.8465 0.0
C88 C 0.82508 0.10909 0.88937 0.0
C89 C 0.75984 0.1534 0.76411 0.0
O90 O 0.76164 0.12335 0.74795 0.0
O91 O 0.85906 0.13205 0.79889 0.0
O92 O 0.89442 0.09106 0.82094 0.0
O93 O 0.76318 0.06743 0.81547 0.0
O94 O 0.81991 0.05615 0.81704 0.0
C95 C 0.88948 0.11975 0.80556 0.0
C96 C 0.7885 0.0454 0.82028 0.0
O97 O 0.77575 0.15696 0.7922 0.0
Mg98 Mg 0.82761 0.79698 0.82999 0.0
O99 O 0.81034 0.85457 0.83392 0.0
O100 O 0.84523 0.88026 0.87242 0.0
Mg101 Mg 0.88298 0.83952 0.89404 0.0
C102 C 0.82024 0.88127 0.85096 0.0
C103 C 0.77645 0.76137 0.78347 0.0
O104 O 0.77752 0.74171 0.8102 0.0
O105 O 0.87603 0.81275 0.80102 0.0
O106 O 0.90964 0.83447 0.8428 0.0
O107 O 0.79141 0.78255 0.87097 0.0
O108 O 0.84655 0.79835 0.87887 0.0
C109 C 0.90469 0.82566 0.81209 0.0
C110 C 0.81717 0.78943 0.89125 0.0
O111 O 0.79506 0.78867 0.78255 0.0
Mg112 Mg 0.66186 0.63064 0.60913 0.0
O113 O 0.60417 0.64776 0.60521 0.0
O114 O 0.57858 0.61283 0.56668 0.0
Mg115 Mg 0.61945 0.57517 0.54507 0.0
C116 C 0.57749 0.6378 0.58816 0.0
C117 C 0.6973 0.68191 0.65565 0.0
O118 O 0.71699 0.68091 0.62892 0.0
O119 O 0.64615 0.58224 0.6381 0.0
O120 O 0.62448 0.5486 0.59632 0.0
O121 O 0.67622 0.66682 0.56817 0.0
O122 O 0.66056 0.61169 0.56025 0.0
C123 C 0.63327 0.55359 0.62703 0.0
C124 C 0.6694 0.64107 0.54787 0.0
O125 O 0.67006 0.66322 0.65658 0.0
Mg126 Mg 0.35132 0.65262 0.6322 0.0
O127 O 0.33695 0.65004 0.57496 0.0
O128 O 0.37499 0.61173 0.55237 0.0
Mg129 Mg 0.41275 0.59093 0.5925 0.0
C130 C 0.34924 0.63295 0.54978 0.0
C131 C 0.30512 0.69829 0.67511 0.0
O132 O 0.33522 0.69653 0.6912 0.0
O133 O 0.3263 0.59903 0.64027 0.0
O134 O 0.36726 0.56364 0.61813 0.0
O135 O 0.39111 0.69473 0.62368 0.0
O136 O 0.40231 0.63803 0.62203 0.0
C137 C 0.33857 0.56862 0.63356 0.0
C138 C 0.41312 0.6694 0.61882 0.0
O139 O 0.3015 0.68231 0.64706 0.0
Mg140 Mg 0.30458 0.32407 0.61626 0.0
O141 O 0.36511 0.31978 0.62192 0.0
O142 O 0.3868 0.35277 0.58103 0.0
Mg143 Mg 0.34247 0.37657 0.54958 0.0
C144 C 0.39084 0.33275 0.60616 0.0
C145 C 0.26733 0.27777 0.66208 0.0
O146 O 0.25087 0.27675 0.63299 0.0
O147 O 0.3053 0.37949 0.63915 0.0
O148 O 0.32542 0.40921 0.59524 0.0
O149 O 0.30342 0.27922 0.57966 0.0
O150 O 0.30871 0.33469 0.56578 0.0
C151 C 0.31339 0.40804 0.62495 0.0
C152 C 0.30728 0.30245 0.55679 0.0
O153 O 0.29407 0.2971 0.66576 0.0
Mg154 Mg 0.64688 0.33193 0.63131 0.0
O155 O 0.58657 0.32423 0.63058 0.0
O156 O 0.56462 0.36815 0.59984 0.0
Mg157 Mg 0.60859 0.4031 0.58163 0.0
C158 C 0.56079 0.34081 0.61736 0.0
C159 C 0.68233 0.28088 0.67716 0.0
O160 O 0.69745 0.31108 0.68286 0.0
O161 O 0.6506 0.31145 0.57649 0.0
O162 O 0.6296 0.35804 0.54892 0.0
O163 O 0.64286 0.36778 0.67643 0.0
O164 O 0.6405 0.38505 0.62373 0.0
C165 C 0.6432 0.3275 0.54927 0.0
C166 C 0.63888 0.39269 0.65512 0.0
O167 O 0.65797 0.27873 0.65516 0.0
Mg168 Mg 0.62642 0.3117 0.30795 0.0
O169 O 0.63415 0.37194 0.30873 0.0
O170 O 0.59019 0.39389 0.33952 0.0
Mg171 Mg 0.5552 0.34996 0.35772 0.0
C172 C 0.61756 0.39771 0.32199 0.0
C173 C 0.67751 0.27621 0.26209 0.0
O174 O 0.64727 0.26111 0.25642 0.0
O175 O 0.64689 0.30794 0.36275 0.0
O176 O 0.60028 0.32893 0.39039 0.0
O177 O 0.59057 0.31574 0.26285 0.0
O178 O 0.57325 0.31809 0.31556 0.0
C179 C 0.63084 0.31533 0.39 0.0
C180 C 0.56563 0.31973 0.28417 0.0
O181 O 0.67967 0.30057 0.28408 0.0
Mg182 Mg 0.6341 0.65371 0.32302 0.0
O183 O 0.63844 0.59323 0.31735 0.0
O184 O 0.60541 0.57157 0.35823 0.0
Mg185 Mg 0.58152 0.61587 0.38968 0.0
C186 C 0.62547 0.56752 0.33311 0.0
C187 C 0.68042 0.69096 0.2772 0.0
O188 O 0.6814 0.70742 0.3063 0.0
O189 O 0.57866 0.65294 0.30013 0.0
O190 O 0.54888 0.63285 0.34402 0.0
O191 O 0.67897 0.65491 0.3596 0.0
O192 O 0.62344 0.6496 0.3735 0.0
C193 C 0.55008 0.64484 0.31432 0.0
C194 C 0.65571 0.65103 0.38247 0.0
O195 O 0.66112 0.66421 0.27352 0.0
Mg196 Mg 0.30531 0.60682 0.30693 0.0
O197 O 0.30792 0.62118 0.36418 0.0
O198 O 0.34624 0.58313 0.38669 0.0
Mg199 Mg 0.36703 0.54541 0.34651 0.0
C200 C 0.32502 0.60888 0.38932 0.0
C201 C 0.25962 0.65299 0.26409 0.0
O202 O 0.26134 0.6229 0.24799 0.0
O203 O 0.35895 0.63179 0.29883 0.0
O204 O 0.39436 0.59087 0.32091 0.0
O205 O 0.26315 0.56709 0.31547 0.0
O206 O 0.31988 0.55586 0.31704 0.0
C207 C 0.38939 0.61954 0.30552 0.0
C208 C 0.28848 0.54509 0.32029 0.0
O209 O 0.27562 0.65662 0.29212 0.0
Mg210 Mg 0.32749 0.29665 0.3301 0.0
O211 O 0.31023 0.35425 0.33405 0.0
O212 O 0.34512 0.37991 0.37256 0.0
Mg213 Mg 0.38285 0.33916 0.39418 0.0
C214 C 0.32014 0.38094 0.35109 0.0
C215 C 0.27645 0.26098 0.28354 0.0
O216 O 0.27761 0.24127 0.31022 0.0
O217 O 0.37592 0.31244 0.30114 0.0
O218 O 0.40952 0.33415 0.34294 0.0
O219 O 0.29129 0.2822 0.37107 0.0
O220 O 0.34642 0.298 0.37898 0.0
C221 C 0.40457 0.32535 0.31223 0.0
C222 C 0.31704 0.28907 0.39136 0.0
O223 O 0.29495 0.28835 0.28266 0.0
C224 C 0.23872 0.23747 0.23252 0.0
C225 C 0.25641 0.24972 0.25486 0.0
C226 C 0.22064 0.21931 0.20678 0.0
C227 C 0.20845 0.20157 0.18443 0.0
C228 C 0.72987 0.25133 0.22612 0.0
C229 C 0.70745 0.26424 0.24354 0.0
C230 C 0.75474 0.23358 0.20594 0.0
C231 C 0.77646 0.21717 0.19045 0.0
C232 C 0.73909 0.73928 0.20861 0.0
C233 C 0.75377 0.75761 0.18891 0.0
C234 C 0.71889 0.71906 0.23045 0.0
C235 C 0.70059 0.70437 0.25017 0.0
C236 C 0.22458 0.70327 0.23328 0.0
C237 C 0.24095 0.68156 0.24878 0.0
C238 C 0.2069 0.72814 0.21309 0.0
C239 C 0.19404 0.75055 0.19567 0.0
C240 C 0.25483 0.7334 0.70593 0.0
C241 C 0.27655 0.717 0.69042 0.0
C242 C 0.22996 0.75114 0.72611 0.0
C243 C 0.20754 0.76406 0.74353 0.0
C244 C 0.21907 0.21906 0.73067 0.0
C245 C 0.20077 0.20435 0.75037 0.0
C246 C 0.23926 0.23929 0.70883 0.0
C247 C 0.25394 0.2576 0.68911 0.0
C248 C 0.72481 0.2037 0.73333 0.0
C249 C 0.74117 0.18198 0.74883 0.0
C250 C 0.70712 0.22856 0.71314 0.0
C251 C 0.69425 0.25096 0.69572 0.0
C252 C 0.73874 0.73786 0.73244 0.0
C253 C 0.75642 0.7501 0.75479 0.0
C254 C 0.72066 0.71972 0.70669 0.0
C255 C 0.70849 0.70198 0.68433 0.0
C256 C 0.16926 0.14722 0.94716 0.0
C257 C 0.1651 0.14898 0.9173 0.0
C258 C 0.17071 0.14625 -0.01762 0.0
C259 C 0.17035 0.14477 0.01246 0.0
C260 C 0.82113 0.13213 0.95206 0.0
C261 C 0.82064 0.12404 0.92255 0.0
C262 C 0.82608 0.13704 -0.01277 0.0
C263 C 0.83421 0.13748 0.01673 0.0
C264 C 0.81164 0.78788 0.95687 0.0
C265 C 0.81309 0.78828 0.92678 0.0
C266 C 0.81072 0.78927 -0.00791 0.0
C267 C 0.809 0.79339 0.02196 0.0
C268 C 0.15379 0.80531 -0.01262 0.0
C269 C 0.15061 0.81156 0.01703 0.0
C270 C 0.1528 0.80438 0.95178 0.0
C271 C 0.14653 0.80762 0.92215 0.0
C272 C 0.01499 0.16529 0.09849 0.0
C273 C 0.04406 0.15358 0.09482 0.0
C274 C 0.97951 0.17362 0.10408 0.0
C275 C 0.94888 0.17522 0.11071 0.0
C276 C 0.80724 0.97184 0.14888 0.0
C277 C 0.80822 0.94107 0.14203 0.0
C278 C 0.81118 0.00849 0.14907 0.0
C279 C 0.82012 0.03808 0.14398 0.0
C280 C 0.95728 0.82248 0.12171 0.0
C281 C 0.92611 0.82535 0.11688 0.0
C282 C -0.00569 0.8237 0.12364 0.0
C283 C 0.02542 0.82894 0.12244 0.0
C284 C 0.12908 -0.00469 0.16116 0.0
C285 C 0.13188 0.02363 0.14871 0.0
C286 C 0.12965 0.95916 0.16739 0.0
C287 C 0.13362 0.92796 0.16556 0.0
C288 C 0.96271 0.82962 0.77809 0.0
C289 C 0.93435 0.82684 0.79053 0.0
C290 C -0.0011 0.82899 0.77187 0.0
C291 C 0.03011 0.82495 0.7737 0.0
C292 C 0.13472 0.96388 0.81562 0.0
C293 C 0.12943 0.9328 0.81683 0.0
C294 C 0.13597 0.00088 0.81753 0.0
C295 C 0.13311 0.03203 0.82236 0.0
C296 C -0.01351 0.15076 0.79048 0.0
C297 C 0.01728 0.14978 0.79734 0.0
C298 C 0.9498 0.14684 0.79026 0.0
C299 C 0.92016 0.13795 0.79532 0.0
C300 C 0.79245 0.94357 0.84078 0.0
C301 C 0.80416 0.91453 0.84444 0.0
C302 C 0.78413 -0.02099 0.83518 0.0
C303 C 0.78257 0.00961 0.82854 0.0
C304 C 0.6693 0.64754 0.44704 0.0
C305 C 0.66509 0.64926 0.41719 0.0
C306 C 0.67079 0.64662 0.48226 0.0
C307 C 0.67046 0.64516 0.51235 0.0
C308 C 0.32607 0.63693 0.48715 0.0
C309 C 0.33423 0.6374 0.51664 0.0
C310 C 0.32109 0.63199 0.45199 0.0
C311 C 0.32059 0.62387 0.42249 0.0
C312 C 0.31154 0.2875 0.45697 0.0
C313 C 0.31296 0.28791 0.42688 0.0
C314 C 0.31067 0.28891 0.4922 0.0
C315 C 0.309 0.29307 0.52207 0.0
C316 C 0.65285 0.30458 0.45181 0.0
C317 C 0.64655 0.30779 0.42218 0.0
C318 C 0.65386 0.30553 0.48741 0.0
C319 C 0.65069 0.31179 0.51706 0.0
C320 C 0.51508 0.66546 0.59833 0.0
C321 C 0.54417 0.65381 0.59467 0.0
C322 C 0.47959 0.67373 0.60392 0.0
C323 C 0.44896 0.67528 0.61057 0.0
C324 C 0.3114 0.5084 0.64892 0.0
C325 C 0.32033 0.53799 0.64384 0.0
C326 C 0.30743 0.47174 0.64874 0.0
C327 C 0.30839 0.44097 0.64191 0.0
C328 C 0.49443 0.3238 0.62364 0.0
C329 C 0.52553 0.32909 0.62244 0.0
C330 C 0.45741 0.3225 0.6217 0.0
C331 C 0.42623 0.32531 0.61687 0.0
C332 C 0.62923 0.49567 0.66105 0.0
C333 C 0.63205 0.52398 0.6486 0.0
C334 C 0.62977 0.45952 0.6673 0.0
C335 C 0.63372 0.42831 0.66549 0.0
C336 C 0.46257 0.32943 0.27822 0.0
C337 C 0.43422 0.32659 0.29067 0.0
C338 C 0.49876 0.32889 0.272 0.0
C339 C 0.52999 0.32491 0.27381 0.0
C340 C 0.63455 0.46401 0.31568 0.0
C341 C 0.62926 0.43293 0.31689 0.0
C342 C 0.63582 0.50101 0.31759 0.0
C343 C 0.63297 0.53216 0.32241 0.0
C344 C 0.48636 0.65071 0.29047 0.0
C345 C 0.51714 0.64979 0.29734 0.0
C346 C 0.44967 0.64672 0.29023 0.0
C347 C 0.42005 0.63778 0.29528 0.0
C348 C 0.29241 0.44326 0.34088 0.0
C349 C 0.3041 0.41421 0.34456 0.0
C350 C 0.28413 0.47871 0.33526 0.0
C351 C 0.28258 0.5093 0.32859 0.0
loop_
_geom_bond_atom_site_label_1
_geom_bond_atom_site_label_2
_geom_bond_distance
_geom_bond_site_symmetry_2
_ccdc_geom_bond_type
Mg0 O1 2.028 . S
Mg0 O7 1.986 . S
Mg0 O9 2.114 . S
Mg0 O10 2.251 . S
Mg0 O13 2.010 . S
O1 Mg0 2.028 . S
O1 C4 1.250 . S
O2 Mg3 2.028 . S
O2 C4 1.248 . S
Mg3 O2 2.028 . S
Mg3 O8 2.032 . S
Mg3 O10 2.079 . S
C4 O1 1.250 . S
C4 O2 1.248 . S
C5 O6 1.264 . S
C5 O13 1.249 . S
O6 C5 1.264 . S
O7 Mg0 1.986 . S
O7 C11 1.246 . S
O8 Mg3 2.032 . S
O8 C11 1.259 . S
O9 Mg0 2.114 . S
O9 C12 1.252 . S
O10 Mg0 2.251 . S
O10 Mg3 2.079 . S
O10 C12 1.273 . S
C11 O7 1.246 . S
C11 O8 1.259 . S
C12 O9 1.252 . S
C12 O10 1.273 . S
O13 Mg0 2.010 . S
O13 C5 1.249 . S
Mg14 O15 2.028 . S
Mg14 O21 1.986 . S
Mg14 O23 2.114 . S
Mg14 O24 2.251 . S
Mg14 O27 2.010 . S
O15 Mg14 2.028 . S
O15 C18 1.250 . S
O16 Mg17 2.028 . S
O16 C18 1.248 . S
Mg17 O16 2.028 . S
Mg17 O22 2.032 . S
Mg17 O24 2.079 . S
C18 O15 1.250 . S
C18 O16 1.248 . S
C19 O20 1.264 . S
C19 O27 1.249 . S
O20 C19 1.264 . S
O21 Mg14 1.986 . S
O21 C25 1.246 . S
O22 Mg17 2.032 . S
O22 C25 1.259 . S
O23 Mg14 2.114 . S
O23 C26 1.252 . S
O24 Mg14 2.251 . S
O24 Mg17 2.079 . S
O24 C26 1.273 . S
C25 O21 1.246 . S
C25 O22 1.259 . S
C26 O23 1.252 . S
C26 O24 1.273 . S
O27 Mg14 2.010 . S
O27 C19 1.249 . S
Mg28 O29 2.028 . S
Mg28 O35 1.986 . S
Mg28 O37 2.114 . S
Mg28 O38 2.251 . S
Mg28 O41 2.010 . S
O29 Mg28 2.028 . S
O29 C32 1.250 . S
O30 Mg31 2.028 . S
O30 C32 1.248 . S
Mg31 O30 2.028 . S
Mg31 O36 2.032 . S
Mg31 O38 2.079 . S
C32 O29 1.250 . S
C32 O30 1.248 . S
C33 O34 1.264 . S
C33 O41 1.249 . S
O34 C33 1.264 . S
O35 Mg28 1.986 . S
O35 C39 1.246 . S
O36 Mg31 2.032 . S
O36 C39 1.259 . S
O37 Mg28 2.114 . S
O37 C40 1.252 . S
O38 Mg28 2.251 . S
O38 Mg31 2.079 . S
O38 C40 1.273 . S
C39 O35 1.246 . S
C39 O36 1.259 . S
C40 O37 1.252 . S
C40 O38 1.273 . S
O41 Mg28 2.010 . S
O41 C33 1.249 . S
Mg42 O43 2.028 . S
Mg42 O49 1.986 . S
Mg42 O51 2.114 . S
Mg42 O52 2.251 . S
Mg42 O55 2.010 . S
O43 Mg42 2.028 . S
O43 C46 1.250 . S
O44 Mg45 2.028 . S
O44 C46 1.248 . S
Mg45 O44 2.028 . S
Mg45 O50 2.032 . S
Mg45 O52 2.079 . S
C46 O43 1.250 . S
C46 O44 1.248 . S
C47 O48 1.264 . S
C47 O55 1.249 . S
O48 C47 1.264 . S
O49 Mg42 1.986 . S
O49 C53 1.246 . S
O50 Mg45 2.032 . S
O50 C53 1.259 . S
O51 Mg42 2.114 . S
O51 C54 1.252 . S
O52 Mg42 2.251 . S
O52 Mg45 2.079 . S
O52 C54 1.273 . S
C53 O49 1.246 . S
C53 O50 1.259 . S
C54 O51 1.252 . S
C54 O52 1.273 . S
O55 Mg42 2.010 . S
O55 C47 1.249 . S
Mg56 O57 2.028 . S
Mg56 O63 1.986 . S
Mg56 O65 2.114 . S
Mg56 O66 2.251 . S
Mg56 O69 2.010 . S
O57 Mg56 2.028 . S
O57 C60 1.250 . S
O58 Mg59 2.028 . S
O58 C60 1.248 . S
Mg59 O58 2.028 . S
Mg59 O64 2.032 . S
Mg59 O66 2.079 . S
C60 O57 1.250 . S
C60 O58 1.248 . S
C61 O62 1.264 . S
C61 O69 1.249 . S
O62 C61 1.264 . S
O63 Mg56 1.986 . S
O63 C67 1.246 . S
O64 Mg59 2.032 . S
O64 C67 1.259 . S
O65 Mg56 2.114 . S
O65 C68 1.252 . S
O66 Mg56 2.251 . S
O66 Mg59 2.079 . S
O66 C68 1.273 . S
C67 O63 1.246 . S
C67 O64 1.259 . S
C68 O65 1.252 . S
C68 O66 1.273 . S
O69 Mg56 2.010 . S
O69 C61 1.249 . S
Mg70 O71 2.028 . S
Mg70 O77 1.986 . S
Mg70 O79 2.114 . S
Mg70 O80 2.251 . S
Mg70 O83 2.010 . S
O71 Mg70 2.028 . S
O71 C74 1.250 . S
O72 Mg73 2.028 . S
O72 C74 1.248 . S
Mg73 O72 2.028 . S
Mg73 O78 2.032 . S
Mg73 O80 2.079 . S
C74 O71 1.250 . S
C74 O72 1.248 . S
C75 O76 1.264 . S
C75 O83 1.249 . S
O76 C75 1.264 . S
O77 Mg70 1.986 . S
O77 C81 1.246 . S
O78 Mg73 2.032 . S
O78 C81 1.259 . S
O79 Mg70 2.114 . S
O79 C82 1.252 . S
O80 Mg70 2.251 . S
O80 Mg73 2.079 . S
O80 C82 1.273 . S
C81 O77 1.246 . S
C81 O78 1.259 . S
C82 O79 1.252 . S
C82 O80 1.273 . S
O83 Mg70 2.010 . S
O83 C75 1.249 . S
Mg84 O85 2.028 . S
Mg84 O91 1.986 . S
Mg84 O93 2.114 . S
Mg84 O94 2.251 . S
Mg84 O97 2.010 . S
O85 Mg84 2.028 . S
O85 C88 1.250 . S
O86 Mg87 2.028 . S
O86 C88 1.248 . S
Mg87 O86 2.028 . S
Mg87 O92 2.032 . S
Mg87 O94 2.079 . S
C88 O85 1.250 . S
C88 O86 1.248 . S
C89 O90 1.264 . S
C89 O97 1.249 . S
O90 C89 1.264 . S
O91 Mg84 1.986 . S
O91 C95 1.246 . S
O92 Mg87 2.032 . S
O92 C95 1.259 . S
O93 Mg84 2.114 . S
O93 C96 1.252 . S
O94 Mg84 2.251 . S
O94 Mg87 2.079 . S
O94 C96 1.273 . S
C95 O91 1.246 . S
C95 O92 1.259 . S
C96 O93 1.252 . S
C96 O94 1.273 . S
O97 Mg84 2.010 . S
O97 C89 1.249 . S
Mg98 O99 2.028 . S
Mg98 O105 1.986 . S
Mg98 O107 2.114 . S
Mg98 O108 2.251 . S
Mg98 O111 2.010 . S
O99 Mg98 2.028 . S
O99 C102 1.250 . S
O100 Mg101 2.028 . S
O100 C102 1.248 . S
Mg101 O100 2.028 . S
Mg101 O106 2.032 . S
Mg101 O108 2.079 . S
C102 O99 1.250 . S
C102 O100 1.248 . S
C103 O104 1.264 . S
C103 O111 1.249 . S
O104 C103 1.264 . S
O105 Mg98 1.986 . S
O105 C109 1.246 . S
O106 Mg101 2.032 . S
O106 C109 1.259 . S
O107 Mg98 2.114 . S
O107 C110 1.252 . S
O108 Mg98 2.251 . S
O108 Mg101 2.079 . S
O108 C110 1.273 . S
C109 O105 1.246 . S
C109 O106 1.259 . S
C110 O107 1.252 . S
C110 O108 1.273 . S
O111 Mg98 2.010 . S
O111 C103 1.249 . S
Mg112 O113 2.028 . S
Mg112 O119 1.986 . S
Mg112 O121 2.114 . S
Mg112 O122 2.251 . S
Mg112 O125 2.010 . S
O113 Mg112 2.028 . S
O113 C116 1.250 . S
O114 Mg115 2.028 . S
O114 C116 1.248 . S
Mg115 O114 2.028 . S
Mg115 O120 2.032 . S
Mg115 O122 2.079 . S
C116 O113 1.250 . S
C116 O114 1.248 . S
C117 O118 1.264 . S
C117 O125 1.249 . S
O118 C117 1.264 . S
O119 Mg112 1.986 . S
O119 C123 1.246 . S
O120 Mg115 2.032 . S
O120 C123 1.259 . S
O121 Mg112 2.114 . S
O121 C124 1.252 . S
O122 Mg112 2.251 . S
O122 Mg115 2.079 . S
O122 C124 1.273 . S
C123 O119 1.246 . S
C123 O120 1.259 . S
C124 O121 1.252 . S
C124 O122 1.273 . S
O125 Mg112 2.010 . S
O125 C117 1.249 . S
Mg126 O127 2.028 . S
Mg126 O133 1.986 . S
Mg126 O135 2.114 . S
Mg126 O136 2.251 . S
Mg126 O139 2.010 . S
O127 Mg126 2.028 . S
O127 C130 1.250 . S
O128 Mg129 2.028 . S
O128 C130 1.248 . S
Mg129 O128 2.028 . S
Mg129 O134 2.032 . S
Mg129 O136 2.079 . S
C130 O127 1.250 . S
C130 O128 1.248 . S
C131 O132 1.264 . S
C131 O139 1.249 . S
O132 C131 1.264 . S
O133 Mg126 1.986 . S
O133 C137 1.246 . S
O134 Mg129 2.032 . S
O134 C137 1.259 . S
O135 Mg126 2.114 . S
O135 C138 1.252 . S
O136 Mg126 2.251 . S
O136 Mg129 2.079 . S
O136 C138 1.273 . S
C137 O133 1.246 . S
C137 O134 1.259 . S
C138 O135 1.252 . S
C138 O136 1.273 . S
O139 Mg126 2.010 . S
O139 C131 1.249 . S
Mg140 O141 2.028 . S
Mg140 O147 1.986 . S
Mg140 O149 2.114 . S
Mg140 O150 2.251 . S
Mg140 O153 2.010 . S
O141 Mg140 2.028 . S
O141 C144 1.250 . S
O142 Mg143 2.028 . S
O142 C144 1.248 . S
Mg143 O142 2.028 . S
Mg143 O148 2.032 . S
Mg143 O150 2.079 . S
C144 O141 1.250 . S
C144 O142 1.248 . S
C145 O146 1.264 . S
C145 O153 1.249 . S
O146 C145 1.264 . S
O147 Mg140 1.986 . S
O147 C151 1.246 . S
O148 Mg143 2.032 . S
O148 C151 1.259 . S
O149 Mg140 2.114 . S
O149 C152 1.252 . S
O150 Mg140 2.251 . S
O150 Mg143 2.079 . S
O150 C152 1.273 . S
C151 O147 1.246 . S
C151 O148 1.259 . S
C152 O149 1.252 . S
C152 O150 1.273 . S
O153 Mg140 2.010 . S
O153 C145 1.249 . S
Mg154 O155 2.028 . S
Mg154 O161 1.986 . S
Mg154 O163 2.114 . S
Mg154 O164 2.251 . S
Mg154 O167 2.010 . S
O155 Mg154 2.028 . S
O155 C158 1.250 . S
O156 Mg157 2.028 . S
O156 C158 1.248 . S
Mg157 O156 2.028 . S
Mg157 O162 2.032 . S
Mg157 O164 2.079 . S
C158 O155 1.250 . S
C158 O156 1.248 . S
C159 O160 1.264 . S
C159 O167 1.249 . S
O160 C159 1.264 . S
O161 Mg154 1.986 . S
O161 C165 1.246 . S
O162 Mg157 2.032 . S
O162 C165 1.259 . S
O163 Mg154 2.114 . S
O163 C166 1.252 . S
O164 Mg154 2.251 . S
O164 Mg157 2.079 . S
O164 C166 1.273 . S
C165 O161 1.246 . S
C165 O162 1.259 . S
C166 O163 1.252 . S
C166 O164 1.273 . S
O167 Mg154 2.010 . S
O167 C159 1.249 . S
Mg168 O169 2.028 . S
Mg168 O175 1.986 . S
Mg168 O177 2.114 . S
Mg168 O178 2.251 . S
Mg168 O181 2.010 . S
O169 Mg168 2.028 . S
O169 C172 1.250 . S
O170 Mg171 2.028 . S
O170 C172 1.248 . S
Mg171 O170 2.028 . S
Mg171 O176 2.032 . S
Mg171 O178 2.079 . S
C172 O169 1.250 . S
C172 O170 1.248 . S
C173 O174 1.264 . S
C173 O181 1.249 . S
O174 C173 1.264 . S
O175 Mg168 1.986 . S
O175 C179 1.246 . S
O176 Mg171 2.032 . S
O176 C179 1.259 . S
O177 Mg168 2.114 . S
O177 C180 1.252 . S
O178 Mg168 2.251 . S
O178 Mg171 2.079 . S
O178 C180 1.273 . S
C179 O175 1.246 . S
C179 O176 1.259 . S
C180 O177 1.252 . S
C180 O178 1.273 . S
O181 Mg168 2.010 . S
O181 C173 1.249 . S
Mg182 O183 2.028 . S
Mg182 O189 1.986 . S
Mg182 O191 2.114 . S
Mg182 O192 2.251 . S
Mg182 O195 2.010 . S
O183 Mg182 2.028 . S
O183 C186 1.250 . S
O184 Mg185 2.028 . S
O184 C186 1.248 . S
Mg185 O184 2.028 . S
Mg185 O190 2.032 . S
Mg185 O192 2.079 . S
C186 O183 1.250 . S
C186 O184 1.248 . S
C187 O188 1.264 . S
C187 O195 1.249 . S
O188 C187 1.264 . S
O189 Mg182 1.986 . S
O189 C193 1.246 . S
O190 Mg185 2.032 . S
O190 C193 1.259 . S
O191 Mg182 2.114 . S
O191 C194 1.252 . S
O192 Mg182 2.251 . S
O192 Mg185 2.079 . S
O192 C194 1.273 . S
C193 O189 1.246 . S
C193 O190 1.259 . S
C194 O191 1.252 . S
C194 O192 1.273 . S
O195 Mg182 2.010 . S
O195 C187 1.249 . S
Mg196 O197 2.028 . S
Mg196 O203 1.986 . S
Mg196 O205 2.114 . S
Mg196 O206 2.251 . S
Mg196 O209 2.010 . S
O197 Mg196 2.028 . S
O197 C200 1.250 . S
O198 Mg199 2.028 . S
O198 C200 1.248 . S
Mg199 O198 2.028 . S
Mg199 O204 2.032 . S
Mg199 O206 2.079 . S
C200 O197 1.250 . S
C200 O198 1.248 . S
C201 O202 1.264 . S
C201 O209 1.249 . S
O202 C201 1.264 . S
O203 Mg196 1.986 . S
O203 C207 1.246 . S
O204 Mg199 2.032 . S
O204 C207 1.259 . S
O205 Mg196 2.114 . S
O205 C208 1.252 . S
O206 Mg196 2.251 . S
O206 Mg199 2.079 . S
O206 C208 1.273 . S
C207 O203 1.246 . S
C207 O204 1.259 . S
C208 O205 1.252 . S
C208 O206 1.273 . S
O209 Mg196 2.010 . S
O209 C201 1.249 . S
Mg210 O211 2.028 . S
Mg210 O217 1.986 . S
Mg210 O219 2.114 . S
Mg210 O220 2.251 . S
Mg210 O223 2.010 . S
O211 Mg210 2.028 . S
O211 C214 1.250 . S
O212 Mg213 2.028 . S
O212 C214 1.248 . S
Mg213 O212 2.028 . S
Mg213 O218 2.032 . S
Mg213 O220 2.079 . S
C214 O211 1.250 . S
C214 O212 1.248 . S
C215 O216 1.264 . S
C215 O223 1.249 . S
O216 C215 1.264 . S
O217 Mg210 1.986 . S
O217 C221 1.246 . S
O218 Mg213 2.032 . S
O218 C221 1.259 . S
O219 Mg210 2.114 . S
O219 C222 1.252 . S
O220 Mg210 2.251 . S
O220 Mg213 2.079 . S
O220 C222 1.273 . S
C221 O217 1.246 . S
C221 O218 1.259 . S
C222 O219 1.252 . S
C222 O220 1.273 . S
O223 Mg210 2.010 . S
O223 C215 1.249 . S
C224 C225 1.170 . S
C224 C226 1.380 . S
C225 C224 1.170 . S
C226 C224 1.380 . S
C226 C227 1.170 . S
C227 C226 1.170 . S
C228 C229 1.170 . S
C228 C230 1.380 . S
C229 C228 1.170 . S
C230 C228 1.380 . S
C230 C231 1.170 . S
C231 C230 1.170 . S
C232 C233 1.170 . S
C232 C234 1.380 . S
C233 C232 1.170 . S
C234 C232 1.380 . S
C234 C235 1.170 . S
C235 C234 1.170 . S
C236 C237 1.170 . S
C236 C238 1.380 . S
C237 C236 1.170 . S
C238 C236 1.380 . S
C238 C239 1.170 . S
C239 C238 1.170 . S
C240 C241 1.170 . S
C240 C242 1.380 . S
C241 C240 1.170 . S
C242 C240 1.380 . S
C242 C243 1.170 . S
C243 C242 1.170 . S
C244 C245 1.170 . S
C244 C246 1.380 . S
C245 C244 1.170 . S
C246 C244 1.380 . S
C246 C247 1.170 . S
C247 C246 1.170 . S
C248 C249 1.170 . S
C248 C250 1.380 . S
C249 C248 1.170 . S
C250 C248 1.380 . S
C250 C251 1.170 . S
C251 C250 1.170 . S
C252 C253 1.170 . S
C252 C254 1.380 . S
C253 C252 1.170 . S
C254 C252 1.380 . S
C254 C255 1.170 . S
C255 C254 1.170 . S
C256 C257 1.170 . S
C256 C258 1.380 1_556 S
C257 C256 1.170 . S
C258 C256 1.380 1_554 S
C258 C259 1.170 . S
C259 C258 1.170 . S
C260 C261 1.170 . S
C260 C262 1.380 1_556 S
C261 C260 1.170 . S
C262 C260 1.380 1_554 S
C262 C263 1.170 . S
C263 C262 1.170 . S
C264 C265 1.170 . S
C264 C266 1.380 1_556 S
C265 C264 1.170 . S
C266 C264 1.380 1_554 S
C266 C267 1.170 . S
C267 C266 1.170 . S
C268 C269 1.170 . S
C268 C270 1.380 1_554 S
C269 C268 1.170 . S
C270 C268 1.380 1_556 S
C270 C271 1.170 . S
C271 C270 1.170 . S
C272 C273 1.170 . S
C272 C274 1.380 1_455 S
C273 C272 1.170 . S
C274 C272 1.380 1_655 S
C274 C275 1.170 . S
C275 C274 1.170 . S
C276 C277 1.170 . S
C276 C278 1.380 1_565 S
C277 C276 1.170 . S
C278 C276 1.380 1_545 S
C278 C279 1.170 . S
C279 C278 1.170 . S
C280 C281 1.170 . S
C280 C282 1.380 1_655 S
C281 C280 1.170 . S
C282 C280 1.380 1_455 S
C282 C283 1.170 . S
C283 C282 1.170 . S
C284 C285 1.170 . S
C284 C286 1.380 1_545 S
C285 C284 1.170 . S
C286 C284 1.380 1_565 S
C286 C287 1.170 . S
C287 C286 1.170 . S
C288 C289 1.170 . S
C288 C290 1.380 1_655 S
C289 C288 1.170 . S
C290 C288 1.380 1_455 S
C290 C291 1.170 . S
C291 C290 1.170 . S
C292 C293 1.170 . S
C292 C294 1.380 1_565 S
C293 C292 1.170 . S
C294 C292 1.380 1_545 S
C294 C295 1.170 . S
C295 C294 1.170 . S
C296 C297 1.170 . S
C296 C298 1.380 1_455 S
C297 C296 1.170 . S
C298 C296 1.380 1_655 S
C298 C299 1.170 . S
C299 C298 1.170 . S
C300 C301 1.170 . S
C300 C302 1.380 1_565 S
C301 C300 1.170 . S
C302 C300 1.380 1_545 S
C302 C303 1.170 . S
C303 C302 1.170 . S
C304 C305 1.170 . S
C304 C306 1.380 . S
C305 C304 1.170 . S
C306 C304 1.380 . S
C306 C307 1.170 . S
C307 C306 1.170 . S
C308 C309 1.170 . S
C308 C310 1.380 . S
C309 C308 1.170 . S
C310 C308 1.380 . S
C310 C311 1.170 . S
C311 C310 1.170 . S
C312 C313 1.170 . S
C312 C314 1.380 . S
C313 C312 1.170 . S
C314 C312 1.380 . S
C314 C315 1.170 . S
C315 C314 1.170 . S
C316 C317 1.170 . S
C316 C318 1.380 . S
C317 C316 1.170 . S
C318 C316 1.380 . S
C318 C319 1.170 . S
C319 C318 1.170 . S
C320 C321 1.170 . S
C320 C322 1.380 . S
C321 C320 1.170 . S
C322 C320 1.380 . S
C322 C323 1.170 . S
C323 C322 1.170 . S
C324 C325 1.170 . S
C324 C326 1.380 . S
C325 C324 1.170 . S
C326 C324 1.380 . S
C326 C327 1.170 . S
C327 C326 1.170 . S
C328 C329 1.170 . S
C328 C330 1.380 . S
C329 C328 1.170 . S
C330 C328 1.380 . S
C330 C331 1.170 . S
C331 C330 1.170 . S
C332 C333 1.170 . S
C332 C334 1.380 . S
C333 C332 1.170 . S
C334 C332 1.380 . S
C334 C335 1.170 . S
C335 C334 1.170 . S
C336 C337 1.170 . S
C336 C338 1.380 . S
C337 C336 1.170 . S
C338 C336 1.380 . S
C338 C339 1.170 . S
C339 C338 1.170 . S
C340 C341 1.170 . S
C340 C342 1.380 . S
C341 C340 1.170 . S
C342 C340 1.380 . S
C342 C343 1.170 . S
C343 C342 1.170 . S
C344 C345 1.170 . S
C344 C346 1.380 . S
C345 C344 1.170 . S
C346 C344 1.380 . S
C346 C347 1.170 . S
C347 C346 1.170 . S
C348 C349 1.170 . S
C348 C350 1.380 . S
C349 C348 1.170 . S
C350 C348 1.380 . S
C350 C351 1.170 . S
C351 C350 1.170 . S
C225 C215 0.874 . S
C227 C5 0.896 . S
C229 C173 0.921 . S
C231 C19 0.921 . S
C233 C33 0.893 . S
C235 C187 0.919 . S
C237 C201 0.951 . S
C239 C47 1.001 . S
C241 C131 0.891 . S
C243 C61 0.917 . S
C245 C75 0.899 . S
C247 C145 0.883 . S
C249 C89 0.890 . S
C251 C159 0.921 . S
C253 C103 0.957 . S
C255 C117 0.962 . S
C257 C82 1.357 . S
C259 C12 1.348 . S
C261 C88 1.546 . S
C263 C18 1.537 . S
C265 C110 1.350 . S
C267 C40 1.354 . S
C269 C53 1.383 . S
C271 C67 1.383 . S
C273 C4 1.395 . S
C275 C26 1.450 . S
C277 C39 1.360 . S
C279 C25 1.368 . S
C281 C32 1.498 . S
C283 C46 1.498 . S
C285 C11 1.323 . S
C287 C54 1.345 . S
C289 C109 1.280 . S
C291 C68 1.337 . S
C293 C60 1.465 . S
C295 C74 1.455 . S
C297 C81 1.314 . S
C299 C95 1.329 . S
C301 C102 1.358 . S
C303 C96 1.458 . S
C305 C194 1.365 . S
C307 C124 1.364 . S
C309 C130 1.558 . S
C311 C200 1.559 . S
C313 C222 1.365 . S
C315 C152 1.364 . S
C317 C179 1.373 . S
C319 C165 1.369 . S
C321 C116 1.351 . S
C323 C138 1.442 . S
C325 C137 1.324 . S
C327 C151 1.316 . S
C329 C158 1.465 . S
C331 C144 1.455 . S
C333 C123 1.321 . S
C335 C166 1.353 . S
C337 C221 1.315 . S
C339 C180 1.339 . S
C341 C172 1.474 . S
C343 C186 1.462 . S
C345 C193 1.360 . S
C347 C207 1.368 . S
C349 C214 1.372 . S
C351 C208 1.460 . S
