# Generated by pormake.
# Topology wji, (4)-cn, num edge types: 1
# Building blocks:
#     Node 0, Type 0, BuildingBlock: AZAVOO_clean_sbu_0, # of connection points: 4
#     Node 1, Type 0, BuildingBlock: AZAVOO_clean_sbu_0, # of connection points: 4
#     Node 2, Type 0, BuildingBlock: AZAVOO_clean_sbu_0, # of connection points: 4
#     Node 3, Type 0, BuildingBlock: AZAVOO_clean_sbu_0, # of connection points: 4
#     Node 4, Type 0, BuildingBlock: AZAVOO_clean_sbu_0, # of connection points: 4
#     Node 5, Type 0, BuildingBlock: AZAVOO_clean_sbu_0, # of connection points: 4
#     Node 6, Type 0, BuildingBlock: AZAVOO_clean_sbu_0, # of connection points: 4
#     Node 7, Type 0, BuildingBlock: AZAVOO_clean_sbu_0, # of connection points: 4
#     Node 8, Type 0, BuildingBlock: AZAVOO_clean_sbu_0, # of connection points: 4
#     Node 9, Type 0, BuildingBlock: AZAVOO_clean_sbu_0, # of connection points: 4
#     Node 10, Type 0, BuildingBlock: AZAVOO_clean_sbu_0, # of connection points: 4
#     Node 11, Type 0, BuildingBlock: AZAVOO_clean_sbu_0, # of connection points: 4
#     Edge 12, Type (0, 0), BuildingBlock: KIFKEQ_clean_linker_1, # of connection points: 2
#     Edge 13, Type (0, 0), BuildingBlock: KIFKEQ_clean_linker_1, # of connection points: 2
#     Edge 14, Type (0, 0), BuildingBlock: KIFKEQ_clean_linker_1, # of connection points: 2
#     Edge 15, Type (0, 0), BuildingBlock: KIFKEQ_clean_linker_1, # of connection points: 2
#     Edge 16, Type (0, 0), BuildingBlock: KIFKEQ_clean_linker_1, # of connection points: 2
#     Edge 17, Type (0, 0), BuildingBlock: KIFKEQ_clean_linker_1, # of connection points: 2
#     Edge 18, Type (0, 0), BuildingBlock: KIFKEQ_clean_linker_1, # of connection points: 2
#     Edge 19, Type (0, 0), BuildingBlock: KIFKEQ_clean_linker_1, # of connection points: 2
#     Edge 20, Type (0, 0), BuildingBlock: KIFKEQ_clean_linker_1, # of connection points: 2
#     Edge 21, Type (0, 0), BuildingBlock: KIFKEQ_clean_linker_1, # of connection points: 2
#     Edge 22, Type (0, 0), BuildingBlock: KIFKEQ_clean_linker_1, # of connection points: 2
#     Edge 23, Type (0, 0), BuildingBlock: KIFKEQ_clean_linker_1, # of connection points: 2
#     Edge 24, Type (0, 0), BuildingBlock: KIFKEQ_clean_linker_1, # of connection points: 2
#     Edge 25, Type (0, 0), BuildingBlock: KIFKEQ_clean_linker_1, # of connection points: 2
#     Edge 26, Type (0, 0), BuildingBlock: KIFKEQ_clean_linker_1, # of connection points: 2
#     Edge 27, Type (0, 0), BuildingBlock: KIFKEQ_clean_linker_1, # of connection points: 2
#     Edge 28, Type (0, 0), BuildingBlock: KIFKEQ_clean_linker_1, # of connection points: 2
#     Edge 29, Type (0, 0), BuildingBlock: KIFKEQ_clean_linker_1, # of connection points: 2
#     Edge 30, Type (0, 0), BuildingBlock: KIFKEQ_clean_linker_1, # of connection points: 2
#     Edge 31, Type (0, 0), BuildingBlock: KIFKEQ_clean_linker_1, # of connection points: 2
#     Edge 32, Type (0, 0), BuildingBlock: KIFKEQ_clean_linker_1, # of connection points: 2
#     Edge 33, Type (0, 0), BuildingBlock: KIFKEQ_clean_linker_1, # of connection points: 2
#     Edge 34, Type (0, 0), BuildingBlock: KIFKEQ_clean_linker_1, # of connection points: 2
#     Edge 35, Type (0, 0), BuildingBlock: KIFKEQ_clean_linker_1, # of connection points: 2
# Relax obj value: 0.176
# Max RMSD: 0.105
# Mean RMSD: 0.105
data_MOF--net-wji--node1-AZAVOO_clean_sbu_0--edge1-KIFKEQ_clean_linker_1
_symmetry_space_group_name_H-M    P1
_symmetry_Int_Tables_number       1
_symmetry_cell_setting            triclinic
loop_
_symmetry_equiv_pos_as_xyz
'x, y, z'
_cell_length_a     59.223952
_cell_length_b     59.222471
_cell_length_c     22.126272
_cell_angle_alpha  90.090402
_cell_angle_beta   89.969421
_cell_angle_gamma 120.00433
loop_
_atom_site_label
_atom_site_type_symbol
_atom_site_fract_x
_atom_site_fract_y
_atom_site_fract_z
_atom_type_partial_charge
Mg0 Mg 0.42572 0.32155 0.38435 0.0
O1 O 0.40697 0.3356 0.45433 0.0
O2 O 0.404 0.36883 0.41604 0.0
Mg3 Mg 0.41969 0.37499 0.31845 0.0
C4 C 0.40063 0.35318 0.4593 0.0
C5 C 0.41167 0.28159 0.48757 0.0
O6 O 0.38926 0.28062 0.47877 0.0
O7 O 0.46561 0.35781 0.40338 0.0
O8 O 0.46077 0.38819 0.35406 0.0
O9 O 0.38641 0.29436 0.34244 0.0
O10 O 0.41265 0.33504 0.31428 0.0
C11 C 0.47468 0.38108 0.38371 0.0
C12 C 0.39095 0.31371 0.30757 0.0
O13 O 0.43131 0.29735 0.45639 0.0
Mg14 Mg 0.0959 0.40922 0.55721 0.0
O15 O 0.06567 0.39088 0.63414 0.0
O16 O 0.02639 0.38083 0.599 0.0
Mg17 Mg 0.03169 0.39454 0.5009 0.0
C18 C 0.04118 0.38146 0.64172 0.0
C19 C 0.12695 0.40253 0.66028 0.0
O20 O 0.10591 0.37939 0.6581 0.0
O21 O 0.09622 0.44783 0.57106 0.0
O22 O 0.05634 0.43635 0.53637 0.0
O23 O 0.08607 0.36937 0.52358 0.0
O24 O 0.06668 0.39108 0.49352 0.0
C25 C 0.07817 0.45306 0.55954 0.0
C26 C 0.0682 0.37022 0.49175 0.0
O27 O 0.12893 0.42018 0.62442 0.0
Mg28 Mg 0.68091 0.09896 0.71081 0.0
O29 O 0.66697 0.06652 0.78126 0.0
O30 O 0.63309 0.03055 0.74366 0.0
Mg31 Mg 0.62663 0.03977 0.64608 0.0
C32 C 0.64903 0.04275 0.7866 0.0
C33 C 0.7285 0.14598 0.76783 0.0
O34 O 0.73658 0.14579 0.71261 0.0
O35 O 0.64508 0.10319 0.73078 0.0
O36 O 0.61405 0.06808 0.68215 0.0
O37 O 0.70741 0.08598 0.66864 0.0
O38 O 0.66678 0.07222 0.64094 0.0
C39 C 0.62164 0.08921 0.71182 0.0
C40 C 0.68782 0.07131 0.63411 0.0
O41 O 0.70548 0.12877 0.7826 0.0
Mg42 Mg 0.57994 0.67959 0.87062 0.0
O43 O 0.60076 0.66827 0.9417 0.0
O44 O 0.60777 0.63744 0.9034 0.0
Mg45 Mg 0.59126 0.629 0.80687 0.0
C46 C 0.60936 0.65243 0.94678 0.0
C47 C 0.57583 0.72476 0.9263 0.0
O48 O 0.58288 0.73253 0.87037 0.0
O49 O 0.54167 0.64172 0.89108 0.0
O50 O 0.55065 0.61293 0.84784 0.0
O51 O 0.61848 0.70853 0.82786 0.0
O52 O 0.59435 0.6673 0.80074 0.0
C53 C 0.53515 0.61834 0.87624 0.0
C54 C 0.61511 0.68942 0.79334 0.0
O55 O 0.57233 0.70262 0.94212 0.0
Mg56 Mg 0.90374 0.58758 0.02777 0.0
O57 O 0.93648 0.60727 0.09758 0.0
O58 O 0.97389 0.61427 0.05684 0.0
Mg59 Mg 0.96491 0.59967 0.95846 0.0
C60 C 0.96089 0.61555 0.10147 0.0
C61 C 0.85037 0.5701 0.08727 0.0
O62 O 0.84385 0.56529 0.02998 0.0
O63 O 0.90311 0.54875 0.04153 0.0
O64 O 0.93986 0.55793 0.99287 0.0
O65 O 0.9132 0.62693 0.99066 0.0
O66 O 0.92981 0.60316 0.95697 0.0
C67 C 0.91914 0.54201 0.02129 0.0
C68 C 0.92862 0.62415 0.95381 0.0
O69 O 0.87404 0.57891 0.10216 0.0
Mg70 Mg 0.31638 0.90119 0.20802 0.0
O71 O 0.32866 0.93174 0.28422 0.0
O72 O 0.35633 0.97127 0.24709 0.0
Mg73 Mg 0.36369 0.96569 0.14808 0.0
C74 C 0.34312 0.95639 0.29066 0.0
C75 C 0.28074 0.86972 0.31387 0.0
O76 O 0.27835 0.89062 0.31384 0.0
O77 O 0.3555 0.90258 0.21922 0.0
O78 O 0.38236 0.94185 0.17985 0.0
O79 O 0.28475 0.90905 0.17624 0.0
O80 O 0.32567 0.93021 0.14498 0.0
C81 C 0.37833 0.92053 0.20395 0.0
C82 C 0.30283 0.92761 0.14452 0.0
O83 O 0.29592 0.86807 0.27578 0.0
Mg84 Mg 0.69317 0.59959 0.44329 0.0
O85 O 0.67586 0.61275 0.36753 0.0
O86 O 0.64268 0.61601 0.40558 0.0
Mg87 Mg 0.6395 0.60593 0.50677 0.0
C88 C 0.65729 0.61765 0.36131 0.0
C89 C 0.72789 0.57899 0.38907 0.0
O90 O 0.727 0.57211 0.44584 0.0
O91 O 0.65794 0.55825 0.43719 0.0
O92 O 0.62717 0.5635 0.48316 0.0
O93 O 0.71998 0.64147 0.47094 0.0
O94 O 0.68043 0.61595 0.5076 0.0
C95 C 0.63487 0.54905 0.45819 0.0
C96 C 0.70104 0.63849 0.50545 0.0
O97 O 0.7156 0.59052 0.37329 0.0
Mg98 Mg 0.09431 0.68221 0.60645 0.0
O99 O 0.06535 0.67166 0.52694 0.0
O100 O 0.02585 0.64215 0.56058 0.0
Mg101 Mg 0.02947 0.63301 0.65915 0.0
C102 C 0.0409 0.65651 0.51842 0.0
C103 C 0.14832 0.72364 0.56913 0.0
O104 O 0.14725 0.72694 0.6276 0.0
O105 O 0.09429 0.6438 0.59231 0.0
O106 O 0.05422 0.61555 0.62613 0.0
O107 O 0.08492 0.71248 0.64024 0.0
O108 O 0.06455 0.67115 0.66869 0.0
C109 C 0.07615 0.62055 0.60378 0.0
C110 C 0.06669 0.69379 0.67139 0.0
O111 O 0.12869 0.70489 0.54344 0.0
Mg112 Mg 0.40526 0.09172 0.79317 0.0
O113 O 0.39068 0.06284 0.71326 0.0
O114 O 0.3855 0.02492 0.74733 0.0
Mg115 Mg 0.39734 0.02963 0.84721 0.0
C116 C 0.38432 0.03899 0.70512 0.0
C117 C 0.40994 0.14283 0.75321 0.0
O118 O 0.40115 0.1397 0.8089 0.0
O119 O 0.44586 0.09657 0.78177 0.0
O120 O 0.43978 0.05928 0.82209 0.0
O121 O 0.36414 0.078 0.82428 0.0
O122 O 0.38806 0.06083 0.85271 0.0
C123 C 0.45454 0.08173 0.79886 0.0
C124 C 0.36605 0.06015 0.85354 0.0
O125 O 0.41458 0.12579 0.73083 0.0
Mg126 Mg 0.314 0.40345 0.95884 0.0
O127 O 0.33016 0.39036 0.87944 0.0
O128 O 0.36238 0.38512 0.91642 0.0
Mg129 Mg 0.36657 0.39411 0.01789 0.0
C130 C 0.3482 0.38467 0.87239 0.0
C131 C 0.27114 0.41359 0.9197 0.0
O132 O 0.26748 0.40885 0.97796 0.0
O133 O 0.35 0.44446 0.95342 0.0
O134 O 0.37973 0.43666 0.99581 0.0
O135 O 0.28621 0.36152 0.98521 0.0
O136 O 0.32637 0.38565 0.0197 0.0
C137 C 0.37307 0.45232 0.97315 0.0
C138 C 0.30527 0.36353 0.01774 0.0
O139 O 0.29052 0.41368 0.89477 0.0
Mg140 Mg 0.90417 0.31691 0.13195 0.0
O141 O 0.93675 0.32802 0.06218 0.0
O142 O 0.97446 0.35884 0.10105 0.0
Mg143 Mg 0.96576 0.36764 0.19664 0.0
C144 C 0.96125 0.34371 0.05772 0.0
C145 C 0.85593 0.27108 0.07441 0.0
O146 O 0.85561 0.26281 0.12965 0.0
O147 O 0.90387 0.35476 0.11042 0.0
O148 O 0.94163 0.38372 0.15351 0.0
O149 O 0.91368 0.28809 0.17528 0.0
O150 O 0.9305 0.32932 0.20257 0.0
C151 C 0.92081 0.37821 0.12461 0.0
C152 C 0.92927 0.30725 0.20983 0.0
O153 O 0.87395 0.29375 0.05969 0.0
Mg154 Mg 0.59018 0.90562 0.28398 0.0
O155 O 0.60658 0.93585 0.20715 0.0
O156 O 0.61519 0.97437 0.24483 0.0
Mg157 Mg 0.6045 0.96899 0.3454 0.0
C158 C 0.6146 0.96015 0.20069 0.0
C159 C 0.58281 0.85469 0.23061 0.0
O160 O 0.5929 0.85561 0.28406 0.0
O161 O 0.551 0.90469 0.27565 0.0
O162 O 0.56181 0.94311 0.31807 0.0
O163 O 0.63097 0.91624 0.31326 0.0
O164 O 0.60897 0.93464 0.34767 0.0
C165 C 0.54501 0.92155 0.29393 0.0
C166 C 0.63012 0.93372 0.34677 0.0
O167 O 0.57841 0.87285 0.2157 0.0
H168 H 0.28458 0.34482 0.12778 0.0
H169 H 0.32662 0.33504 0.98064 0.0
H170 H 0.29975 0.32265 0.1959 0.0
H171 H 0.34147 0.31249 0.04809 0.0
H172 H 0.40343 0.3406 0.20367 0.0
H173 H 0.37455 0.3412 0.12715 0.0
H174 H 0.30776 0.28422 0.2278 0.0
H175 H 0.33726 0.28324 0.30521 0.0
C176 C 0.29575 0.33649 0.10935 0.0
C177 C 0.30441 0.34141 0.04925 0.0
C178 C 0.30447 0.32384 0.14828 0.0
C179 C 0.32211 0.31625 0.1274 0.0
C180 C 0.32805 0.31835 0.06538 0.0
C181 C 0.31943 0.33106 0.02668 0.0
C182 C 0.38261 0.32792 0.20932 0.0
C183 C 0.37255 0.31202 0.26053 0.0
C184 C 0.36604 0.32801 0.16503 0.0
C185 C 0.3389 0.31249 0.17108 0.0
C186 C 0.32865 0.29618 0.22188 0.0
C187 C 0.34544 0.29565 0.26601 0.0
H188 H 0.07118 0.35812 0.37549 0.0
H189 H 0.02054 0.33377 0.53078 0.0
H190 H 0.03387 0.33165 0.30998 0.0
H191 H 0.98312 0.30685 0.46575 0.0
H192 H 0.96053 0.28526 0.20096 0.0
H193 H 0.99347 0.28972 0.27547 0.0
H194 H 0.96708 0.32889 0.39716 0.0
H195 H 0.93504 0.32482 0.32325 0.0
C196 C 0.05221 0.34595 0.3958 0.0
C197 C 0.04854 0.34773 0.45782 0.0
C198 C 0.03084 0.33076 0.3584 0.0
C199 C 0.00552 0.31744 0.38267 0.0
C200 C 0.00239 0.31708 0.44579 0.0
C201 C 0.02375 0.33231 0.48306 0.0
C202 C 0.96145 0.29411 0.24445 0.0
C203 C 0.94548 0.30482 0.25667 0.0
C204 C 0.98026 0.29673 0.28687 0.0
C205 C 0.98276 0.30951 0.34232 0.0
C206 C 0.96541 0.31852 0.35552 0.0
C207 C 0.94719 0.31641 0.31298 0.0
H208 H 0.64553 0.93023 0.45963 0.0
H209 H 0.66326 0.98267 0.30942 0.0
H210 H 0.6698 0.96741 0.52739 0.0
H211 H 0.68778 0.0199 0.37667 0.0
H212 H 0.66322 0.05968 0.52726 0.0
H213 H 0.66052 0.02863 0.45206 0.0
H214 H 0.71113 0.01191 0.56004 0.0
H215 H 0.71434 0.044 0.63593 0.0
C216 C 0.65597 0.94967 0.44064 0.0
C217 C 0.6528 0.95376 0.37956 0.0
C218 C 0.66982 0.97096 0.47937 0.0
C219 C 0.68033 0.99651 0.45736 0.0
C220 C 0.67971 0.00038 0.39481 0.0
C221 C 0.66587 0.97913 0.35624 0.0
C222 C 0.67415 0.04973 0.53464 0.0
C223 C 0.68884 0.05407 0.58745 0.0
C224 C 0.67285 0.03214 0.49119 0.0
C225 C 0.68586 0.01806 0.49983 0.0
C226 C 0.70111 0.02272 0.55214 0.0
C227 C 0.70293 0.04098 0.59537 0.0
H228 H 0.71869 0.65452 0.61883 0.0
H229 H 0.68162 0.66866 0.46767 0.0
H230 H 0.70386 0.6774 0.68576 0.0
H231 H 0.66706 0.69194 0.53406 0.0
H232 H 0.60291 0.6664 0.68475 0.0
H233 H 0.63189 0.66536 0.60892 0.0
H234 H 0.69848 0.71656 0.71862 0.0
H235 H 0.66889 0.71796 0.79523 0.0
C236 C 0.70862 0.66385 0.5995 0.0
C237 C 0.70138 0.66012 0.53839 0.0
C238 C 0.70012 0.67694 0.63772 0.0
C239 C 0.68401 0.68614 0.61523 0.0
C240 C 0.6793 0.68486 0.55263 0.0
C241 C 0.68776 0.67175 0.51455 0.0
C242 C 0.62376 0.67786 0.69227 0.0
C243 C 0.63371 0.6921 0.74586 0.0
C244 C 0.64041 0.67752 0.64847 0.0
C245 C 0.6675 0.69107 0.65752 0.0
C246 C 0.67766 0.70608 0.71041 0.0
C247 C 0.66083 0.7069 0.75405 0.0
H248 H 0.02125 0.69021 0.63539 0.0
H249 H 0.07012 0.70337 0.79081 0.0
H250 H 0.98512 0.68292 0.70192 0.0
H251 H 0.03418 0.69562 0.85757 0.0
H252 H 0.92834 0.61628 0.83493 0.0
H253 H 0.9615 0.6436 0.76236 0.0
H254 H -0.00031 0.70317 0.89899 0.0
H255 H 0.96586 0.6753 0.97214 0.0
C256 C 0.02449 0.69261 0.68375 0.0
C257 C 0.04828 0.69746 0.7084 0.0
C258 C 0.00385 0.68829 0.72185 0.0
C259 C 0.00667 0.68838 0.7851 0.0
C260 C 0.03137 0.69569 0.80922 0.0
C261 C 0.05196 0.70003 0.77109 0.0
C262 C 0.9433 0.63563 0.84873 0.0
C263 C 0.94468 0.64381 0.90871 0.0
C264 C 0.96226 0.65142 0.80707 0.0
C265 C 0.98335 0.67559 0.82484 0.0
C266 C 0.9837 0.68461 0.88405 0.0
C267 C 0.96434 0.66882 0.92575 0.0
H268 H 0.34657 0.00832 0.84099 0.0
H269 H 0.33712 0.06536 0.94201 0.0
H270 H 0.31904 0.97471 0.9132 0.0
H271 H 0.30972 0.03167 0.01561 0.0
H272 H 0.32575 0.97957 0.16116 0.0
H273 H 0.32966 0.01126 0.08566 0.0
H274 H 0.27551 0.94859 0.97027 0.0
H275 H 0.27133 0.91683 0.047 0.0
C276 C 0.33784 0.0134 0.87773 0.0
C277 C 0.34403 0.0393 0.88659 0.0
C278 C 0.32189 0.99415 0.9188 0.0
C279 C 0.31235 0.00063 0.9702 0.0
C280 C 0.31682 0.0262 0.9763 0.0
C281 C 0.33239 0.0454 0.93428 0.0
C282 C 0.3138 0.97271 0.12085 0.0
C283 C 0.2983 0.94595 0.10948 0.0
C284 C 0.31591 0.99081 0.07772 0.0
C285 C 0.303 0.98235 0.02193 0.0
C286 C 0.28562 0.95558 0.01295 0.0
C287 C 0.28315 0.93746 0.05679 0.0
H288 H 0.63297 0.51484 0.37193 0.0
H289 H 0.59358 0.51976 0.53149 0.0
H290 H 0.59764 0.46991 0.35559 0.0
H291 H 0.5587 0.47502 0.51561 0.0
H292 H 0.50397 0.38877 0.48581 0.0
H293 H 0.54715 0.42654 0.50755 0.0
H294 H 0.54997 0.4557 0.32734 0.0
H295 H 0.507 0.41856 0.30626 0.0
C296 C 0.61711 0.50615 0.40418 0.0
C297 C 0.61583 0.52089 0.45247 0.0
C298 C 0.59693 0.4805 0.39483 0.0
C299 C 0.57548 0.46903 0.43439 0.0
C300 C 0.57511 0.48325 0.4848 0.0
C301 C 0.59496 0.50896 0.49348 0.0
C302 C 0.51416 0.403 0.45063 0.0
C303 C 0.50214 0.40098 0.39464 0.0
C304 C 0.53875 0.42457 0.46303 0.0
C305 C 0.55186 0.44399 0.41905 0.0
C306 C 0.54048 0.44092 0.36183 0.0
C307 C 0.51579 0.41978 0.34997 0.0
H308 H 0.0429 0.46319 0.61016 0.0
H309 H 0.12129 0.50115 0.53965 0.0
H310 H 0.04529 0.50509 0.62123 0.0
H311 H 0.1234 0.54357 0.54767 0.0
H312 H 0.12062 0.61731 0.61739 0.0
H313 H 0.12389 0.57762 0.6106 0.0
H314 H 0.04342 0.53435 0.55277 0.0
H315 H 0.03999 0.57329 0.56244 0.0
C316 C 0.06072 0.48065 0.59717 0.0
C317 C 0.0818 0.479 0.57353 0.0
C318 C 0.06204 0.50468 0.60288 0.0
C319 C 0.08424 0.5277 0.58353 0.0
C320 C 0.10597 0.52624 0.56281 0.0
C321 C 0.10481 0.50202 0.55821 0.0
C322 C 0.10381 0.59928 0.60266 0.0
C323 C 0.07994 0.59819 0.59131 0.0
C324 C 0.10565 0.57658 0.59877 0.0
C325 C 0.08371 0.55259 0.58274 0.0
C326 C 0.06044 0.55218 0.56755 0.0
C327 C 0.05851 0.57457 0.57249 0.0
H328 H 0.48842 0.11494 0.71356 0.0
H329 H 0.48363 0.06747 0.86646 0.0
H330 H 0.53309 0.1243 0.6942 0.0
H331 H 0.52816 0.07716 0.84771 0.0
H332 H 0.61452 0.10982 0.81624 0.0
H333 H 0.5768 0.11488 0.84115 0.0
H334 H 0.54701 0.09081 0.66026 0.0
H335 H 0.5841 0.08525 0.63602 0.0
C336 C 0.49708 0.10698 0.7437 0.0
C337 C 0.48247 0.09021 0.79102 0.0
C338 C 0.52258 0.11233 0.73264 0.0
C339 C 0.53404 0.10149 0.76959 0.0
C340 C 0.51993 0.08601 0.81896 0.0
C341 C 0.49434 0.08025 0.82926 0.0
C342 C 0.60018 0.10625 0.78159 0.0
C343 C 0.60201 0.09695 0.72445 0.0
C344 C 0.57864 0.10905 0.79582 0.0
C345 C 0.55905 0.10322 0.75256 0.0
C346 C 0.56193 0.09569 0.69424 0.0
C347 C 0.58305 0.09233 0.68053 0.0
H348 H 0.51974 0.56688 0.87094 0.0
H349 H 0.49186 0.61951 0.9195 0.0
H350 H 0.47816 0.53001 0.89952 0.0
H351 H 0.44951 0.58173 0.94796 0.0
H352 H 0.37365 0.49062 0.90098 0.0
H353 H 0.41132 0.53418 0.88173 0.0
H354 H 0.4561 0.5198 0.01394 0.0
H355 H 0.41905 0.47686 0.03355 0.0
C356 C 0.50472 0.57067 0.88741 0.0
C357 C 0.50925 0.59626 0.89317 0.0
C358 C 0.48089 0.54946 0.90384 0.0
C359 C 0.46083 0.55315 0.92603 0.0
C360 C 0.46482 0.57854 0.93077 0.0
C361 C 0.48901 0.60004 0.91485 0.0
C362 C 0.39134 0.49706 0.92692 0.0
C363 C 0.39355 0.48007 0.96782 0.0
C364 C 0.41277 0.52196 0.91609 0.0
C365 C 0.43649 0.53006 0.94616 0.0
C366 C 0.438 0.51385 0.99005 0.0
C367 C 0.41679 0.48919 0.00088 0.0
H368 H 0.95812 0.4291 0.11806 0.0
H369 H 0.87547 0.37743 0.09079 0.0
H370 H 0.95345 0.46607 0.09026 0.0
H371 H 0.87088 0.41523 0.06279 0.0
H372 H 0.8836 0.50356 0.09726 0.0
H373 H 0.88019 0.4612 0.11877 0.0
H374 H 0.94036 0.47783 0.98737 0.0
H375 H 0.94388 0.51955 0.96584 0.0
C376 C 0.93887 0.42558 0.10627 0.0
C377 C 0.91715 0.40024 0.10652 0.0
C378 C 0.93626 0.44682 0.09014 0.0
C379 C 0.91185 0.44343 0.07418 0.0
C380 C 0.8899 0.41825 0.07511 0.0
C381 C 0.89257 0.39671 0.09066 0.0
C382 C 0.89579 0.49795 0.07243 0.0
C383 C 0.91439 0.5152 0.03079 0.0
C384 C 0.89372 0.4737 0.0845 0.0
C385 C 0.91024 0.46651 0.05512 0.0
C386 C 0.92765 0.48309 0.01116 0.0
C387 C 0.92969 0.50708 0.99911 0.0
H388 H 0.37946 0.87712 0.24554 0.0
H389 H 0.4294 0.95696 0.18856 0.0
H390 H 0.41831 0.8738 0.26874 0.0
H391 H 0.4675 0.95349 0.21177 0.0
H392 H 0.52545 0.95111 0.33805 0.0
H393 H 0.48369 0.9475 0.31661 0.0
H394 H 0.46135 0.87848 0.20978 0.0
H395 H 0.50378 0.88201 0.23103 0.0
C396 C 0.39859 0.89385 0.2377 0.0
C397 C 0.40126 0.91738 0.21569 0.0
C398 C 0.42073 0.89187 0.25065 0.0
C399 C 0.44579 0.91347 0.24249 0.0
C400 C 0.44838 0.93664 0.21912 0.0
C401 C 0.42646 0.93857 0.20573 0.0
C402 C 0.51174 0.93499 0.31024 0.0
C403 C 0.51823 0.91709 0.28539 0.0
C404 C 0.48776 0.93296 0.29807 0.0
C405 C 0.46952 0.91294 0.26095 0.0
C406 C 0.47519 0.8941 0.23857 0.0
C407 C 0.49945 0.89619 0.25057 0.0
H408 H 0.38271 0.36869 0.84133 0.0
H409 H 0.32608 0.38606 0.76412 0.0
H410 H 0.3933 0.36006 0.741 0.0
H411 H 0.33648 0.37694 0.66331 0.0
H412 H 0.38703 0.38967 0.49147 0.0
H413 H 0.3725 0.39583 0.59024 0.0
H414 H 0.37533 0.32903 0.65865 0.0
H415 H 0.39024 0.32309 0.56064 0.0
C416 C 0.37234 0.37049 0.80304 0.0
C417 C 0.35355 0.37814 0.81105 0.0
C418 C 0.37832 0.36536 0.74537 0.0
C419 C 0.36572 0.36775 0.69398 0.0
C420 C 0.34674 0.37516 0.70187 0.0
C421 C 0.34066 0.38022 0.75974 0.0
C422 C 0.3844 0.37618 0.52744 0.0
C423 C 0.39003 0.35601 0.51801 0.0
C424 C 0.37592 0.37964 0.58404 0.0
C425 C 0.37291 0.36304 0.63257 0.0
C426 C 0.37786 0.34245 0.62261 0.0
C427 C 0.3863 0.33898 0.56616 0.0
H428 H 0.94054 0.3132 0.95699 0.0
H429 H 0.01143 0.37902 0.02462 0.0
H430 H 0.9604 0.31922 0.8576 0.0
H431 H 0.03103 0.38542 0.92481 0.0
H432 H 0.06602 0.38078 0.74608 0.0
H433 H 0.04749 0.36861 0.84736 0.0
H434 H 0.9721 0.35013 0.77704 0.0
H435 H 0.99035 0.36162 0.67605 0.0
C436 C 0.96042 0.32887 0.95086 0.0
C437 C 0.97428 0.34574 0.99889 0.0
C438 C 0.97176 0.33242 0.89366 0.0
C439 C 0.99724 0.35298 0.88288 0.0
C440 C 0.01147 0.36923 0.93149 0.0
C441 C 0.00015 0.36563 0.9888 0.0
C442 C 0.04542 0.37385 0.7521 0.0
C443 C 0.02973 0.3723 0.70273 0.0
C444 C 0.03483 0.36702 0.81031 0.0
C445 C 0.0083 0.35846 0.82055 0.0
C446 C 0.99252 0.35628 0.77088 0.0
C447 C 0.00306 0.36307 0.71281 0.0
H448 H 0.61252 0.93594 0.09308 0.0
H449 H 0.6336 0.01121 0.16938 0.0
H450 H 0.62261 0.95516 0.99222 0.0
H451 H 0.64316 0.03017 0.06878 0.0
H452 H 0.67982 0.06211 0.88717 0.0
H453 H 0.67351 0.04166 0.98572 0.0
H454 H 0.60486 0.97311 0.91922 0.0
H455 H 0.61141 0.99336 0.82001 0.0
C456 C 0.61942 0.95659 0.0885 0.0
C457 C 0.6222 0.97199 0.13956 0.0
C458 C 0.62502 0.96756 0.03057 0.0
C459 C 0.63364 0.9942 0.02229 0.0
C460 C 0.63689 0.00966 0.07346 0.0
C461 C 0.63125 0.99872 0.13127 0.0
C462 C 0.66345 0.04259 0.89325 0.0
C463 C 0.64604 0.02948 0.8455 0.0
C464 C 0.65977 0.03092 0.95 0.0
C465 C 0.63856 0.00582 0.96063 0.0
C466 C 0.62154 0.99238 0.9125 0.0
C467 C 0.62523 0.00406 0.85562 0.0
H468 H 0.62763 0.61959 0.97771 0.0
H469 H 0.61418 0.67953 0.05118 0.0
H470 H 0.6406 0.61279 0.0774 0.0
H471 H 0.62761 0.673 0.1506 0.0
H472 H 0.61993 0.62986 0.32928 0.0
H473 H 0.6105 0.63994 0.229 0.0
H474 H 0.6739 0.63233 0.15509 0.0
H475 H 0.68308 0.62176 0.2552 0.0
C476 C 0.62775 0.63157 0.01486 0.0
C477 C 0.6197 0.65003 0.00622 0.0
C478 C 0.63531 0.62773 0.0721 0.0
C479 C 0.635 0.64223 0.12221 0.0
C480 C 0.62767 0.66119 0.11325 0.0
C481 C 0.62014 0.66506 0.05602 0.0
C482 C 0.63195 0.63041 0.29178 0.0
C483 C 0.65222 0.62488 0.30053 0.0
C484 C 0.62664 0.63637 0.23422 0.0
C485 C 0.64143 0.63695 0.18385 0.0
C486 C 0.6619 0.63174 0.1927 0.0
C487 C 0.66725 0.62581 0.25027 0.0
H488 H 0.99003 0.62635 0.48375 0.0
H489 H 0.06633 0.68099 0.41349 0.0
H490 H 0.97198 0.61938 0.38262 0.0
H491 H 0.04796 0.67441 0.31182 0.0
H492 H 0.01059 0.62824 0.13449 0.0
H493 H 0.03045 0.64093 0.23439 0.0
H494 H 0.9611 0.63907 0.30205 0.0
H495 H 0.941 0.62575 0.20287 0.0
C496 C 0.00296 0.63718 0.44687 0.0
C497 C 0.02971 0.65418 0.45702 0.0
C498 C 0.99251 0.63328 0.38868 0.0
C499 C 0.00848 0.64633 0.33885 0.0
C500 C 0.03515 0.6638 0.34903 0.0
C501 C 0.04565 0.6677 0.40744 0.0
C502 C -0.00035 0.63076 0.17052 0.0
C503 C 0.97406 0.62569 0.16061 0.0
C504 C 0.01112 0.63818 0.22783 0.0
C505 C 0.99732 0.64082 0.27656 0.0
C506 C 0.97213 0.63672 0.26596 0.0
C507 C 0.96063 0.6292 0.20885 0.0
H508 H 0.35345 0.00556 0.31871 0.0
H509 H 0.33937 0.9334 0.39954 0.0
H510 H 0.36033 0.02534 0.41849 0.0
H511 H 0.34812 0.95348 0.49891 0.0
H512 H 0.34851 0.98871 0.67799 0.0
H513 H 0.33536 0.96879 0.57853 0.0
H514 H 0.38948 0.04271 0.49613 0.0
H515 H 0.40094 0.0628 0.59573 0.0
C516 C 0.35196 0.99399 0.35798 0.0
C517 C 0.34587 0.96796 0.35139 0.0
C518 C 0.35616 0.00538 0.41533 0.0
C519 C 0.35508 0.99124 0.4675 0.0
C520 C 0.34866 0.96502 0.4605 0.0
C521 C 0.34378 0.95345 0.40329 0.0
C522 C 0.35737 0.00067 0.6384 0.0
C523 C 0.37576 0.02726 0.64449 0.0
C524 C 0.35002 0.98922 0.58118 0.0
C525 C 0.36146 0.00392 0.52852 0.0
C526 C 0.37975 0.03069 0.53503 0.0
C527 C 0.38654 0.04228 0.59227 0.0
H528 H 0.45219 0.27224 0.50259 0.0
H529 H 0.37499 0.24941 0.56859 0.0
H530 H 0.45373 0.24009 0.56901 0.0
H531 H 0.37652 0.21729 0.63443 0.0
H532 H 0.39769 0.1798 0.78605 0.0
H533 H 0.40009 0.215 0.72457 0.0
H534 H 0.4309 0.19134 0.57592 0.0
H535 H 0.42871 0.15609 0.63764 0.0
C536 C 0.43563 0.2605 0.53151 0.0
C537 C 0.41343 0.26333 0.53024 0.0
C538 C 0.43647 0.242 0.56922 0.0
C539 C 0.41524 0.22615 0.60681 0.0
C540 C 0.39329 0.22939 0.60642 0.0
C541 C 0.39237 0.24771 0.56844 0.0
C542 C 0.40514 0.18216 0.7404 0.0
C543 C 0.41287 0.16504 0.71662 0.0
C544 C 0.4064 0.20227 0.70512 0.0
C545 C 0.41554 0.20583 0.64536 0.0
C546 C 0.42396 0.18918 0.62202 0.0
C547 C 0.42256 0.16892 0.65725 0.0
H548 H 0.27274 0.42435 0.79873 0.0
H549 H 0.22532 0.40881 0.95879 0.0
H550 H 0.23836 0.42463 0.73807 0.0
H551 H 0.19119 0.40916 0.89822 0.0
H552 H 0.1253 0.3725 0.75495 0.0
H553 H 0.16125 0.37841 0.81914 0.0
H554 H 0.21347 0.44898 0.72303 0.0
H555 H 0.17736 0.4431 0.65841 0.0
C556 C 0.25515 0.42129 0.82106 0.0
C557 C 0.25166 0.41631 0.88347 0.0
C558 C 0.23555 0.42159 0.78639 0.0
C559 C 0.21205 0.41672 0.81344 0.0
C560 C 0.20897 0.41265 0.8761 0.0
C561 C 0.22859 0.41255 0.91077 0.0
C562 C 0.14439 0.38938 0.7477 0.0
C563 C 0.14852 0.40729 0.70152 0.0
C564 C 0.16494 0.39284 0.78471 0.0
C565 C 0.19014 0.41416 0.77604 0.0
C566 C 0.19426 0.43229 0.73039 0.0
C567 C 0.17358 0.42899 0.69371 0.0
H568 H 0.85046 0.28203 0.95684 0.0
H569 H 0.81674 0.22096 0.09096 0.0
H570 H 0.81861 0.25288 0.88286 0.0
H571 H 0.7854 0.19172 0.01679 0.0
H572 H 0.71787 0.15255 0.88494 0.0
H573 H 0.74767 0.18397 0.95872 0.0
H574 H 0.80927 0.21438 0.82552 0.0
H575 H 0.77938 0.18347 0.75147 0.0
C576 C 0.83626 0.26241 0.97056 0.0
C577 C 0.83618 0.25381 0.02977 0.0
C578 C 0.8181 0.24565 0.92807 0.0
C579 C 0.79948 0.21993 0.94383 0.0
C580 C 0.79921 0.2115 0.00331 0.0
C581 C 0.81732 0.22824 0.04577 0.0
C582 C 0.73774 0.16604 0.87134 0.0
C583 C 0.74626 0.16546 0.81236 0.0
C584 C 0.75486 0.18396 0.91372 0.0
C585 C 0.78089 0.20167 0.89811 0.0
C586 C 0.78927 0.20128 0.83886 0.0
C587 C 0.77216 0.18341 0.79649 0.0
H588 H 0.56166 0.84648 0.11707 0.0
H589 H 0.59384 0.81553 0.24625 0.0
H590 H 0.55665 0.81336 0.04408 0.0
H591 H 0.5895 0.78297 0.17294 0.0
H592 H 0.56073 0.71461 0.04484 0.0
H593 H 0.55902 0.74431 0.11882 0.0
H594 H 0.58464 0.80426 0.98226 0.0
H595 H 0.58566 0.77443 0.90814 0.0
C596 C 0.5676 0.83258 0.12996 0.0
C597 C 0.57827 0.83373 0.18737 0.0
C598 C 0.56486 0.81368 0.08802 0.0
C599 C 0.57279 0.79557 0.10251 0.0
C600 C 0.58287 0.79637 0.16049 0.0
C601 C 0.58552 0.81519 0.20244 0.0
C602 C 0.56579 0.73406 0.03053 0.0
C603 C 0.57344 0.74219 0.97066 0.0
C604 C 0.56494 0.75113 0.073 0.0
C605 C 0.5718 0.77672 0.05658 0.0
C606 C 0.57889 0.7846 0.99633 0.0
C607 C 0.57965 0.76752 0.95387 0.0
H608 H 0.73351 0.59053 0.26855 0.0
H609 H 0.75871 0.55746 0.40913 0.0
H610 H 0.76183 0.58552 0.19667 0.0
H611 H 0.78677 0.55205 0.33675 0.0
H612 H 0.85799 0.58087 0.20828 0.0
H613 H 0.82693 0.58042 0.28126 0.0
H614 H 0.76761 0.55278 0.14271 0.0
H615 H 0.79877 0.55365 0.06939 0.0
C616 C 0.74491 0.58196 0.28402 0.0
C617 C 0.74395 0.57452 0.34467 0.0
C618 C 0.76102 0.57893 0.24267 0.0
C619 C 0.77657 0.5684 0.26101 0.0
C620 C 0.77525 0.5605 0.32141 0.0
C621 C 0.75907 0.56349 0.36278 0.0
C622 C 0.83826 0.57447 0.19348 0.0
C623 C 0.83092 0.5675 0.13289 0.0
C624 C 0.82041 0.57408 0.23542 0.0
C625 C 0.79485 0.56671 0.21769 0.0
C626 C 0.78728 0.55893 0.15755 0.0
C627 C 0.80511 0.5593 0.11562 0.0
H628 H 0.1903 0.76832 0.61024 0.0
H629 H 0.15713 0.72321 0.4475 0.0
H630 H 0.22496 0.80284 0.55082 0.0
H631 H 0.19195 0.75795 0.38803 0.0
H632 H 0.27086 0.81935 0.3076 0.0
H633 H 0.2411 0.7826 0.37129 0.0
H634 H 0.22409 0.834 0.47556 0.0
H635 H 0.25363 0.87057 0.41229 0.0
C636 C 0.19054 0.76561 0.56187 0.0
C637 C 0.17079 0.74311 0.53351 0.0
C638 C 0.21036 0.78545 0.52787 0.0
C639 C 0.21101 0.78316 0.46482 0.0
C640 C 0.192 0.76016 0.43665 0.0
C641 C 0.172 0.74034 0.47066 0.0
C642 C 0.26096 0.82282 0.34454 0.0
C643 C 0.2645 0.84782 0.35485 0.0
C644 C 0.24385 0.80177 0.38069 0.0
C645 C 0.23031 0.80547 0.4283 0.0
C646 C 0.23447 0.83062 0.43958 0.0
C647 C 0.25128 0.85153 0.4031 0.0
loop_
_geom_bond_atom_site_label_1
_geom_bond_atom_site_label_2
_geom_bond_distance
_geom_bond_site_symmetry_2
_ccdc_geom_bond_type
Mg0 O1 2.028 . S
Mg0 O7 1.986 . S
Mg0 O9 2.114 . S
Mg0 O10 2.251 . S
Mg0 O13 2.010 . S
O1 Mg0 2.028 . S
O1 C4 1.250 . S
O2 Mg3 2.028 . S
O2 C4 1.248 . S
Mg3 O2 2.028 . S
Mg3 O8 2.032 . S
Mg3 O10 2.079 . S
C4 O1 1.250 . S
C4 O2 1.248 . S
C5 O6 1.264 . S
C5 O13 1.249 . S
O6 C5 1.264 . S
O7 Mg0 1.986 . S
O7 C11 1.246 . S
O8 Mg3 2.032 . S
O8 C11 1.259 . S
O9 Mg0 2.114 . S
O9 C12 1.252 . S
O10 Mg0 2.251 . S
O10 Mg3 2.079 . S
O10 C12 1.273 . S
C11 O7 1.246 . S
C11 O8 1.259 . S
C12 O9 1.252 . S
C12 O10 1.273 . S
O13 Mg0 2.010 . S
O13 C5 1.249 . S
Mg14 O15 2.028 . S
Mg14 O21 1.986 . S
Mg14 O23 2.114 . S
Mg14 O24 2.251 . S
Mg14 O27 2.010 . S
O15 Mg14 2.028 . S
O15 C18 1.250 . S
O16 Mg17 2.028 . S
O16 C18 1.248 . S
Mg17 O16 2.028 . S
Mg17 O22 2.032 . S
Mg17 O24 2.079 . S
C18 O15 1.250 . S
C18 O16 1.248 . S
C19 O20 1.264 . S
C19 O27 1.249 . S
O20 C19 1.264 . S
O21 Mg14 1.986 . S
O21 C25 1.246 . S
O22 Mg17 2.032 . S
O22 C25 1.259 . S
O23 Mg14 2.114 . S
O23 C26 1.252 . S
O24 Mg14 2.251 . S
O24 Mg17 2.079 . S
O24 C26 1.273 . S
C25 O21 1.246 . S
C25 O22 1.259 . S
C26 O23 1.252 . S
C26 O24 1.273 . S
O27 Mg14 2.010 . S
O27 C19 1.249 . S
Mg28 O29 2.028 . S
Mg28 O35 1.986 . S
Mg28 O37 2.114 . S
Mg28 O38 2.251 . S
Mg28 O41 2.010 . S
O29 Mg28 2.028 . S
O29 C32 1.250 . S
O30 Mg31 2.028 . S
O30 C32 1.248 . S
Mg31 O30 2.028 . S
Mg31 O36 2.032 . S
Mg31 O38 2.079 . S
C32 O29 1.250 . S
C32 O30 1.248 . S
C33 O34 1.264 . S
C33 O41 1.249 . S
O34 C33 1.264 . S
O35 Mg28 1.986 . S
O35 C39 1.246 . S
O36 Mg31 2.032 . S
O36 C39 1.259 . S
O37 Mg28 2.114 . S
O37 C40 1.252 . S
O38 Mg28 2.251 . S
O38 Mg31 2.079 . S
O38 C40 1.273 . S
C39 O35 1.246 . S
C39 O36 1.259 . S
C40 O37 1.252 . S
C40 O38 1.273 . S
O41 Mg28 2.010 . S
O41 C33 1.249 . S
Mg42 O43 2.028 . S
Mg42 O49 1.986 . S
Mg42 O51 2.114 . S
Mg42 O52 2.251 . S
Mg42 O55 2.010 . S
O43 Mg42 2.028 . S
O43 C46 1.250 1_556 S
O44 Mg45 2.028 . S
O44 C46 1.248 1_556 S
Mg45 O44 2.028 . S
Mg45 O50 2.032 . S
Mg45 O52 2.079 . S
C46 O43 1.250 1_554 S
C46 O44 1.248 1_554 S
C47 O48 1.264 . S
C47 O55 1.249 . S
O48 C47 1.264 . S
O49 Mg42 1.986 . S
O49 C53 1.246 . S
O50 Mg45 2.032 . S
O50 C53 1.259 . S
O51 Mg42 2.114 . S
O51 C54 1.252 . S
O52 Mg42 2.251 . S
O52 Mg45 2.079 . S
O52 C54 1.273 . S
C53 O49 1.246 . S
C53 O50 1.259 . S
C54 O51 1.252 . S
C54 O52 1.273 . S
O55 Mg42 2.010 . S
O55 C47 1.249 . S
Mg56 O57 2.028 . S
Mg56 O63 1.986 . S
Mg56 O65 2.114 . S
Mg56 O66 2.251 . S
Mg56 O69 2.010 . S
O57 Mg56 2.028 . S
O57 C60 1.250 . S
O58 Mg59 2.028 . S
O58 C60 1.248 . S
Mg59 O58 2.028 . S
Mg59 O64 2.032 . S
Mg59 O66 2.079 . S
C60 O57 1.250 . S
C60 O58 1.248 . S
C61 O62 1.264 . S
C61 O69 1.249 . S
O62 C61 1.264 . S
O63 Mg56 1.986 . S
O63 C67 1.246 . S
O64 Mg59 2.032 . S
O64 C67 1.259 . S
O65 Mg56 2.114 . S
O65 C68 1.245 1_554 S
O66 Mg56 2.251 . S
O66 Mg59 2.079 . S
O66 C68 1.267 1_554 S
C67 O63 1.246 . S
C67 O64 1.259 . S
C68 O65 1.245 1_556 S
C68 O66 1.267 1_556 S
O69 Mg56 2.010 . S
O69 C61 1.249 . S
Mg70 O71 2.028 . S
Mg70 O77 1.986 . S
Mg70 O79 2.114 . S
Mg70 O80 2.251 . S
Mg70 O83 2.010 . S
O71 Mg70 2.028 . S
O71 C74 1.250 . S
O72 Mg73 2.028 . S
O72 C74 1.248 . S
Mg73 O72 2.028 . S
Mg73 O78 2.032 . S
Mg73 O80 2.079 . S
C74 O71 1.250 . S
C74 O72 1.248 . S
C75 O76 1.264 . S
C75 O83 1.249 . S
O76 C75 1.264 . S
O77 Mg70 1.986 . S
O77 C81 1.246 . S
O78 Mg73 2.032 . S
O78 C81 1.259 . S
O79 Mg70 2.114 . S
O79 C82 1.252 . S
O80 Mg70 2.251 . S
O80 Mg73 2.079 . S
O80 C82 1.273 . S
C81 O77 1.246 . S
C81 O78 1.259 . S
C82 O79 1.252 . S
C82 O80 1.273 . S
O83 Mg70 2.010 . S
O83 C75 1.249 . S
Mg84 O85 2.028 . S
Mg84 O91 1.986 . S
Mg84 O93 2.114 . S
Mg84 O94 2.251 . S
Mg84 O97 2.010 . S
O85 Mg84 2.028 . S
O85 C88 1.250 . S
O86 Mg87 2.028 . S
O86 C88 1.248 . S
Mg87 O86 2.028 . S
Mg87 O92 2.032 . S
Mg87 O94 2.079 . S
C88 O85 1.250 . S
C88 O86 1.248 . S
C89 O90 1.264 . S
C89 O97 1.249 . S
O90 C89 1.264 . S
O91 Mg84 1.986 . S
O91 C95 1.246 . S
O92 Mg87 2.032 . S
O92 C95 1.259 . S
O93 Mg84 2.114 . S
O93 C96 1.252 . S
O94 Mg84 2.251 . S
O94 Mg87 2.079 . S
O94 C96 1.273 . S
C95 O91 1.246 . S
C95 O92 1.259 . S
C96 O93 1.252 . S
C96 O94 1.273 . S
O97 Mg84 2.010 . S
O97 C89 1.249 . S
Mg98 O99 2.028 . S
Mg98 O105 1.986 . S
Mg98 O107 2.114 . S
Mg98 O108 2.251 . S
Mg98 O111 2.010 . S
O99 Mg98 2.028 . S
O99 C102 1.250 . S
O100 Mg101 2.028 . S
O100 C102 1.248 . S
Mg101 O100 2.028 . S
Mg101 O106 2.032 . S
Mg101 O108 2.079 . S
C102 O99 1.250 . S
C102 O100 1.248 . S
C103 O104 1.264 . S
C103 O111 1.249 . S
O104 C103 1.264 . S
O105 Mg98 1.986 . S
O105 C109 1.246 . S
O106 Mg101 2.032 . S
O106 C109 1.259 . S
O107 Mg98 2.114 . S
O107 C110 1.252 . S
O108 Mg98 2.251 . S
O108 Mg101 2.079 . S
O108 C110 1.273 . S
C109 O105 1.246 . S
C109 O106 1.259 . S
C110 O107 1.252 . S
C110 O108 1.273 . S
O111 Mg98 2.010 . S
O111 C103 1.249 . S
Mg112 O113 2.028 . S
Mg112 O119 1.986 . S
Mg112 O121 2.114 . S
Mg112 O122 2.251 . S
Mg112 O125 2.010 . S
O113 Mg112 2.028 . S
O113 C116 1.250 . S
O114 Mg115 2.028 . S
O114 C116 1.248 . S
Mg115 O114 2.028 . S
Mg115 O120 2.032 . S
Mg115 O122 2.079 . S
C116 O113 1.250 . S
C116 O114 1.248 . S
C117 O118 1.264 . S
C117 O125 1.249 . S
O118 C117 1.264 . S
O119 Mg112 1.986 . S
O119 C123 1.246 . S
O120 Mg115 2.032 . S
O120 C123 1.259 . S
O121 Mg112 2.114 . S
O121 C124 1.252 . S
O122 Mg112 2.251 . S
O122 Mg115 2.079 . S
O122 C124 1.273 . S
C123 O119 1.246 . S
C123 O120 1.259 . S
C124 O121 1.252 . S
C124 O122 1.273 . S
O125 Mg112 2.010 . S
O125 C117 1.249 . S
Mg126 O127 2.028 . S
Mg126 O133 1.986 . S
Mg126 O135 2.114 . S
Mg126 O136 2.251 . S
Mg126 O139 2.010 . S
O127 Mg126 2.028 . S
O127 C130 1.250 . S
O128 Mg129 2.028 . S
O128 C130 1.248 . S
Mg129 O128 2.028 . S
Mg129 O134 2.032 . S
Mg129 O136 2.079 . S
C130 O127 1.250 . S
C130 O128 1.248 . S
C131 O132 1.264 . S
C131 O139 1.249 . S
O132 C131 1.264 . S
O133 Mg126 1.986 . S
O133 C137 1.246 . S
O134 Mg129 2.032 . S
O134 C137 1.259 . S
O135 Mg126 2.114 . S
O135 C138 1.246 1_556 S
O136 Mg126 2.251 . S
O136 Mg129 2.079 . S
O136 C138 1.267 1_556 S
C137 O133 1.246 . S
C137 O134 1.259 . S
C138 O135 1.246 1_554 S
C138 O136 1.267 1_554 S
O139 Mg126 2.010 . S
O139 C131 1.249 . S
Mg140 O141 2.028 . S
Mg140 O147 1.986 . S
Mg140 O149 2.114 . S
Mg140 O150 2.251 . S
Mg140 O153 2.010 . S
O141 Mg140 2.028 . S
O141 C144 1.250 1_554 S
O142 Mg143 2.028 . S
O142 C144 1.248 1_554 S
Mg143 O142 2.028 . S
Mg143 O148 2.032 . S
Mg143 O150 2.079 . S
C144 O141 1.250 1_556 S
C144 O142 1.248 1_556 S
C145 O146 1.264 . S
C145 O153 1.249 . S
O146 C145 1.264 . S
O147 Mg140 1.986 . S
O147 C151 1.246 . S
O148 Mg143 2.032 . S
O148 C151 1.259 . S
O149 Mg140 2.114 . S
O149 C152 1.252 . S
O150 Mg140 2.251 . S
O150 Mg143 2.079 . S
O150 C152 1.273 . S
C151 O147 1.246 . S
C151 O148 1.259 . S
C152 O149 1.252 . S
C152 O150 1.273 . S
O153 Mg140 2.010 . S
O153 C145 1.249 . S
Mg154 O155 2.028 . S
Mg154 O161 1.986 . S
Mg154 O163 2.114 . S
Mg154 O164 2.251 . S
Mg154 O167 2.010 . S
O155 Mg154 2.028 . S
O155 C158 1.250 . S
O156 Mg157 2.028 . S
O156 C158 1.248 . S
Mg157 O156 2.028 . S
Mg157 O162 2.032 . S
Mg157 O164 2.079 . S
C158 O155 1.250 . S
C158 O156 1.248 . S
C159 O160 1.264 . S
C159 O167 1.249 . S
O160 C159 1.264 . S
O161 Mg154 1.986 . S
O161 C165 1.246 . S
O162 Mg157 2.032 . S
O162 C165 1.259 . S
O163 Mg154 2.114 . S
O163 C166 1.252 . S
O164 Mg154 2.251 . S
O164 Mg157 2.079 . S
O164 C166 1.273 . S
C165 O161 1.246 . S
C165 O162 1.259 . S
C166 O163 1.252 . S
C166 O164 1.273 . S
O167 Mg154 2.010 . S
O167 C159 1.249 . S
H168 C176 0.950 . S
H169 C181 0.945 1_556 S
H170 C178 0.950 . S
H171 C180 0.950 . S
H172 C182 0.950 . S
H173 C184 0.950 . S
H174 C186 0.950 . S
H175 C187 0.950 . S
C176 H168 0.950 . S
C176 C177 1.386 . S
C176 C178 1.391 . S
C177 C176 1.386 . S
C177 C181 1.393 . S
C178 H170 0.950 . S
C178 C176 1.391 . S
C178 C179 1.400 . S
C179 C178 1.400 . S
C179 C180 1.398 . S
C179 C185 1.491 . S
C180 H171 0.950 . S
C180 C179 1.398 . S
C180 C181 1.391 . S
C181 H169 0.945 1_554 S
C181 C177 1.393 . S
C181 C180 1.391 . S
C182 H172 0.950 . S
C182 C183 1.386 . S
C182 C184 1.391 . S
C183 C182 1.386 . S
C183 C187 1.393 . S
C184 H173 0.950 . S
C184 C182 1.391 . S
C184 C185 1.400 . S
C185 C179 1.491 . S
C185 C184 1.400 . S
C185 C186 1.398 . S
C186 H174 0.950 . S
C186 C185 1.398 . S
C186 C187 1.391 . S
C187 H175 0.950 . S
C187 C183 1.393 . S
C187 C186 1.391 . S
H188 C196 0.950 . S
H189 C201 0.950 . S
H190 C198 0.950 . S
H191 C200 0.950 . S
H192 C202 0.950 . S
H193 C204 0.950 . S
H194 C206 0.950 . S
H195 C207 0.950 . S
C196 H188 0.950 . S
C196 C197 1.386 . S
C196 C198 1.391 . S
C197 C196 1.386 . S
C197 C201 1.393 . S
C198 H190 0.950 . S
C198 C196 1.391 . S
C198 C199 1.400 . S
C199 C198 1.400 . S
C199 C200 1.398 . S
C199 C205 1.491 1_455 S
C200 H191 0.950 . S
C200 C199 1.398 . S
C200 C201 1.391 . S
C201 H189 0.950 . S
C201 C197 1.393 . S
C201 C200 1.391 . S
C202 H192 0.950 . S
C202 C203 1.386 . S
C202 C204 1.391 . S
C203 C202 1.386 . S
C203 C207 1.393 . S
C204 H193 0.950 . S
C204 C202 1.391 . S
C204 C205 1.400 . S
C205 C199 1.491 1_655 S
C205 C204 1.400 . S
C205 C206 1.398 . S
C206 H194 0.950 . S
C206 C205 1.398 . S
C206 C207 1.391 . S
C207 H195 0.950 . S
C207 C203 1.393 . S
C207 C206 1.391 . S
H208 C216 0.950 . S
H209 C221 0.950 . S
H210 C218 0.950 . S
H211 C220 0.950 1_545 S
H212 C222 0.950 . S
H213 C224 0.950 . S
H214 C226 0.950 1_565 S
H215 C227 0.950 . S
C216 H208 0.950 . S
C216 C217 1.386 . S
C216 C218 1.391 . S
C217 C216 1.386 . S
C217 C221 1.393 . S
C218 H210 0.950 . S
C218 C216 1.391 . S
C218 C219 1.400 . S
C219 C218 1.400 . S
C219 C220 1.398 . S
C219 C225 1.491 1_565 S
C220 H211 0.950 1_565 S
C220 C219 1.398 . S
C220 C221 1.391 . S
C221 H209 0.950 . S
C221 C217 1.393 . S
C221 C220 1.391 . S
C222 H212 0.950 . S
C222 C223 1.386 . S
C222 C224 1.391 . S
C223 C222 1.386 . S
C223 C227 1.393 . S
C224 H213 0.950 . S
C224 C222 1.391 . S
C224 C225 1.400 . S
C225 C219 1.491 1_545 S
C225 C224 1.400 . S
C225 C226 1.398 . S
C226 H214 0.950 1_545 S
C226 C225 1.398 . S
C226 C227 1.391 . S
C227 H215 0.950 . S
C227 C223 1.393 . S
C227 C226 1.391 . S
H228 C236 0.950 . S
H229 C241 0.950 . S
H230 C238 0.950 . S
H231 C240 0.950 . S
H232 C242 0.950 . S
H233 C244 0.950 . S
H234 C246 0.950 . S
H235 C247 0.950 . S
C236 H228 0.950 . S
C236 C237 1.386 . S
C236 C238 1.391 . S
C237 C236 1.386 . S
C237 C241 1.393 . S
C238 H230 0.950 . S
C238 C236 1.391 . S
C238 C239 1.400 . S
C239 C238 1.400 . S
C239 C240 1.398 . S
C239 C245 1.491 . S
C240 H231 0.950 . S
C240 C239 1.398 . S
C240 C241 1.391 . S
C241 H229 0.950 . S
C241 C237 1.393 . S
C241 C240 1.391 . S
C242 H232 0.950 . S
C242 C243 1.386 . S
C242 C244 1.391 . S
C243 C242 1.386 . S
C243 C247 1.393 . S
C244 H233 0.950 . S
C244 C242 1.391 . S
C244 C245 1.400 . S
C245 C239 1.491 . S
C245 C244 1.400 . S
C245 C246 1.398 . S
C246 H234 0.950 . S
C246 C245 1.398 . S
C246 C247 1.391 . S
C247 H235 0.950 . S
C247 C243 1.393 . S
C247 C246 1.391 . S
H248 C256 0.950 . S
H249 C261 0.950 . S
H250 C258 0.950 . S
H251 C260 0.950 . S
H252 C262 0.950 . S
H253 C264 0.950 . S
H254 C266 0.950 . S
H255 C267 0.950 . S
C256 H248 0.950 . S
C256 C257 1.386 . S
C256 C258 1.391 . S
C257 C256 1.386 . S
C257 C261 1.393 . S
C258 H250 0.950 . S
C258 C256 1.391 . S
C258 C259 1.400 . S
C259 C258 1.400 . S
C259 C260 1.398 . S
C259 C265 1.491 1_455 S
C260 H251 0.950 . S
C260 C259 1.398 . S
C260 C261 1.391 . S
C261 H249 0.950 . S
C261 C257 1.393 . S
C261 C260 1.391 . S
C262 H252 0.950 . S
C262 C263 1.386 . S
C262 C264 1.391 . S
C263 C262 1.386 . S
C263 C267 1.393 . S
C264 H253 0.950 . S
C264 C262 1.391 . S
C264 C265 1.400 . S
C265 C259 1.491 1_655 S
C265 C264 1.400 . S
C265 C266 1.398 . S
C266 H254 0.950 . S
C266 C265 1.398 . S
C266 C267 1.391 . S
C267 H255 0.950 . S
C267 C263 1.393 . S
C267 C266 1.391 . S
H268 C276 0.950 . S
H269 C281 0.950 . S
H270 C278 0.950 1_565 S
H271 C280 0.950 1_554 S
H272 C282 0.950 . S
H273 C284 0.950 1_545 S
H274 C286 0.950 1_556 S
H275 C287 0.950 . S
C276 H268 0.950 . S
C276 C277 1.386 . S
C276 C278 1.391 . S
C277 C276 1.386 . S
C277 C281 1.393 . S
C278 H270 0.950 1_545 S
C278 C276 1.391 . S
C278 C279 1.400 . S
C279 C278 1.400 . S
C279 C280 1.398 . S
C279 C285 1.491 1_546 S
C280 H271 0.950 1_556 S
C280 C279 1.398 . S
C280 C281 1.391 . S
C281 H269 0.950 . S
C281 C277 1.393 . S
C281 C280 1.391 . S
C282 H272 0.950 . S
C282 C283 1.386 . S
C282 C284 1.391 . S
C283 C282 1.386 . S
C283 C287 1.393 . S
C284 H273 0.950 1_565 S
C284 C282 1.391 . S
C284 C285 1.400 . S
C285 C279 1.491 1_564 S
C285 C284 1.400 . S
C285 C286 1.398 . S
C286 H274 0.950 1_554 S
C286 C285 1.398 . S
C286 C287 1.391 . S
C287 H275 0.950 . S
C287 C283 1.393 . S
C287 C286 1.391 . S
H288 C296 0.950 . S
H289 C301 0.950 . S
H290 C298 0.950 . S
H291 C300 0.950 . S
H292 C302 0.950 . S
H293 C304 0.950 . S
H294 C306 0.950 . S
H295 C307 0.950 . S
C296 H288 0.950 . S
C296 C297 1.386 . S
C296 C298 1.391 . S
C297 C296 1.386 . S
C297 C301 1.393 . S
C298 H290 0.950 . S
C298 C296 1.391 . S
C298 C299 1.400 . S
C299 C298 1.400 . S
C299 C300 1.398 . S
C299 C305 1.491 . S
C300 H291 0.950 . S
C300 C299 1.398 . S
C300 C301 1.391 . S
C301 H289 0.950 . S
C301 C297 1.393 . S
C301 C300 1.391 . S
C302 H292 0.950 . S
C302 C303 1.386 . S
C302 C304 1.391 . S
C303 C302 1.386 . S
C303 C307 1.393 . S
C304 H293 0.950 . S
C304 C302 1.391 . S
C304 C305 1.400 . S
C305 C299 1.491 . S
C305 C304 1.400 . S
C305 C306 1.398 . S
C306 H294 0.950 . S
C306 C305 1.398 . S
C306 C307 1.391 . S
C307 H295 0.950 . S
C307 C303 1.393 . S
C307 C306 1.391 . S
H308 C316 0.950 . S
H309 C321 0.950 . S
H310 C318 0.950 . S
H311 C320 0.950 . S
H312 C322 0.950 . S
H313 C324 0.950 . S
H314 C326 0.950 . S
H315 C327 0.950 . S
C316 H308 0.950 . S
C316 C317 1.386 . S
C316 C318 1.391 . S
C317 C316 1.386 . S
C317 C321 1.393 . S
C318 H310 0.950 . S
C318 C316 1.391 . S
C318 C319 1.400 . S
C319 C318 1.400 . S
C319 C320 1.398 . S
C319 C325 1.491 . S
C320 H311 0.950 . S
C320 C319 1.398 . S
C320 C321 1.391 . S
C321 H309 0.950 . S
C321 C317 1.393 . S
C321 C320 1.391 . S
C322 H312 0.950 . S
C322 C323 1.386 . S
C322 C324 1.391 . S
C323 C322 1.386 . S
C323 C327 1.393 . S
C324 H313 0.950 . S
C324 C322 1.391 . S
C324 C325 1.400 . S
C325 C319 1.491 . S
C325 C324 1.400 . S
C325 C326 1.398 . S
C326 H314 0.950 . S
C326 C325 1.398 . S
C326 C327 1.391 . S
C327 H315 0.950 . S
C327 C323 1.393 . S
C327 C326 1.391 . S
H328 C336 0.950 . S
H329 C341 0.950 . S
H330 C338 0.950 . S
H331 C340 0.950 . S
H332 C342 0.950 . S
H333 C344 0.950 . S
H334 C346 0.950 . S
H335 C347 0.950 . S
C336 H328 0.950 . S
C336 C337 1.386 . S
C336 C338 1.391 . S
C337 C336 1.386 . S
C337 C341 1.393 . S
C338 H330 0.950 . S
C338 C336 1.391 . S
C338 C339 1.400 . S
C339 C338 1.400 . S
C339 C340 1.398 . S
C339 C345 1.491 . S
C340 H331 0.950 . S
C340 C339 1.398 . S
C340 C341 1.391 . S
C341 H329 0.950 . S
C341 C337 1.393 . S
C341 C340 1.391 . S
C342 H332 0.950 . S
C342 C343 1.386 . S
C342 C344 1.391 . S
C343 C342 1.386 . S
C343 C347 1.393 . S
C344 H333 0.950 . S
C344 C342 1.391 . S
C344 C345 1.400 . S
C345 C339 1.491 . S
C345 C344 1.400 . S
C345 C346 1.398 . S
C346 H334 0.950 . S
C346 C345 1.398 . S
C346 C347 1.391 . S
C347 H335 0.950 . S
C347 C343 1.393 . S
C347 C346 1.391 . S
H348 C356 0.950 . S
H349 C361 0.950 1_554 S
H350 C358 0.950 . S
H351 C360 0.950 1_554 S
H352 C362 0.950 . S
H353 C364 0.950 1_554 S
H354 C366 0.950 . S
H355 C367 0.950 . S
C356 H348 0.950 . S
C356 C357 1.386 . S
C356 C358 1.391 . S
C357 C356 1.386 . S
C357 C361 1.393 . S
C358 H350 0.950 . S
C358 C356 1.391 . S
C358 C359 1.400 . S
C359 C358 1.400 . S
C359 C360 1.398 . S
C359 C365 1.491 . S
C360 H351 0.950 1_556 S
C360 C359 1.398 . S
C360 C361 1.391 . S
C361 H349 0.950 1_556 S
C361 C357 1.393 . S
C361 C360 1.391 . S
C362 H352 0.950 . S
C362 C363 1.386 . S
C362 C364 1.391 . S
C363 C362 1.386 . S
C363 C367 1.393 . S
C364 H353 0.950 1_556 S
C364 C362 1.391 . S
C364 C365 1.400 . S
C365 C359 1.491 . S
C365 C364 1.400 . S
C365 C366 1.398 . S
C366 H354 0.950 . S
C366 C365 1.398 . S
C366 C367 1.391 . S
C367 H355 0.950 . S
C367 C363 1.393 . S
C367 C366 1.391 . S
H368 C376 0.950 1_556 S
H369 C381 0.950 . S
H370 C378 0.950 1_556 S
H371 C380 0.950 . S
H372 C382 0.950 . S
H373 C384 0.950 . S
H374 C386 0.950 . S
H375 C387 0.950 . S
C376 H368 0.950 1_554 S
C376 C377 1.386 . S
C376 C378 1.391 . S
C377 C376 1.386 . S
C377 C381 1.393 . S
C378 H370 0.950 1_554 S
C378 C376 1.391 . S
C378 C379 1.400 . S
C379 C378 1.400 . S
C379 C380 1.398 . S
C379 C385 1.491 . S
C380 H371 0.950 . S
C380 C379 1.398 . S
C380 C381 1.391 . S
C381 H369 0.950 . S
C381 C377 1.393 . S
C381 C380 1.391 . S
C382 H372 0.950 . S
C382 C383 1.386 . S
C382 C384 1.391 . S
C383 C382 1.386 . S
C383 C387 1.393 . S
C384 H373 0.950 . S
C384 C382 1.391 . S
C384 C385 1.400 . S
C385 C379 1.491 . S
C385 C384 1.400 . S
C385 C386 1.398 . S
C386 H374 0.950 . S
C386 C385 1.398 . S
C386 C387 1.391 . S
C387 H375 0.950 . S
C387 C383 1.393 . S
C387 C386 1.391 . S
H388 C396 0.950 . S
H389 C401 0.950 . S
H390 C398 0.950 . S
H391 C400 0.950 . S
H392 C402 0.950 . S
H393 C404 0.950 . S
H394 C406 0.950 . S
H395 C407 0.950 . S
C396 H388 0.950 . S
C396 C397 1.386 . S
C396 C398 1.391 . S
C397 C396 1.386 . S
C397 C401 1.393 . S
C398 H390 0.950 . S
C398 C396 1.391 . S
C398 C399 1.400 . S
C399 C398 1.400 . S
C399 C400 1.398 . S
C399 C405 1.491 . S
C400 H391 0.950 . S
C400 C399 1.398 . S
C400 C401 1.391 . S
C401 H389 0.950 . S
C401 C397 1.393 . S
C401 C400 1.391 . S
C402 H392 0.950 . S
C402 C403 1.386 . S
C402 C404 1.391 . S
C403 C402 1.386 . S
C403 C407 1.393 . S
C404 H393 0.950 . S
C404 C402 1.391 . S
C404 C405 1.400 . S
C405 C399 1.491 . S
C405 C404 1.400 . S
C405 C406 1.398 . S
C406 H394 0.950 . S
C406 C405 1.398 . S
C406 C407 1.391 . S
C407 H395 0.950 . S
C407 C403 1.393 . S
C407 C406 1.391 . S
H408 C416 0.950 . S
H409 C421 0.950 . S
H410 C418 0.950 . S
H411 C420 0.950 . S
H412 C422 0.950 . S
H413 C424 0.950 . S
H414 C426 0.950 . S
H415 C427 0.950 . S
C416 H408 0.950 . S
C416 C417 1.386 . S
C416 C418 1.391 . S
C417 C416 1.386 . S
C417 C421 1.393 . S
C418 H410 0.950 . S
C418 C416 1.391 . S
C418 C419 1.400 . S
C419 C418 1.400 . S
C419 C420 1.398 . S
C419 C425 1.491 . S
C420 H411 0.950 . S
C420 C419 1.398 . S
C420 C421 1.391 . S
C421 H409 0.950 . S
C421 C417 1.393 . S
C421 C420 1.391 . S
C422 H412 0.950 . S
C422 C423 1.386 . S
C422 C424 1.391 . S
C423 C422 1.386 . S
C423 C427 1.393 . S
C424 H413 0.950 . S
C424 C422 1.391 . S
C424 C425 1.400 . S
C425 C419 1.491 . S
C425 C424 1.400 . S
C425 C426 1.398 . S
C426 H414 0.950 . S
C426 C425 1.398 . S
C426 C427 1.391 . S
C427 H415 0.950 . S
C427 C423 1.393 . S
C427 C426 1.391 . S
H428 C436 0.950 . S
H429 C441 0.950 . S
H430 C438 0.950 . S
H431 C440 0.950 . S
H432 C442 0.950 . S
H433 C444 0.950 . S
H434 C446 0.950 . S
H435 C447 0.950 . S
C436 H428 0.950 . S
C436 C437 1.386 . S
C436 C438 1.391 . S
C437 C436 1.386 . S
C437 C441 1.393 . S
C438 H430 0.950 . S
C438 C436 1.391 . S
C438 C439 1.400 . S
C439 C438 1.400 . S
C439 C440 1.398 . S
C439 C445 1.491 1_655 S
C440 H431 0.950 . S
C440 C439 1.398 . S
C440 C441 1.391 . S
C441 H429 0.950 . S
C441 C437 1.393 . S
C441 C440 1.391 . S
C442 H432 0.950 . S
C442 C443 1.386 . S
C442 C444 1.391 . S
C443 C442 1.386 . S
C443 C447 1.393 . S
C444 H433 0.950 . S
C444 C442 1.391 . S
C444 C445 1.400 . S
C445 C439 1.491 1_455 S
C445 C444 1.400 . S
C445 C446 1.398 . S
C446 H434 0.950 . S
C446 C445 1.398 . S
C446 C447 1.391 . S
C447 H435 0.950 . S
C447 C443 1.393 . S
C447 C446 1.391 . S
H448 C456 0.950 . S
H449 C461 0.950 . S
H450 C458 0.950 . S
H451 C460 0.950 1_545 S
H452 C462 0.950 . S
H453 C464 0.950 . S
H454 C466 0.950 1_565 S
H455 C467 0.950 . S
C456 H448 0.950 . S
C456 C457 1.386 . S
C456 C458 1.391 . S
C457 C456 1.386 . S
C457 C461 1.393 . S
C458 H450 0.950 . S
C458 C456 1.391 . S
C458 C459 1.400 . S
C459 C458 1.400 . S
C459 C460 1.398 . S
C459 C465 1.491 1_564 S
C460 H451 0.950 1_565 S
C460 C459 1.398 . S
C460 C461 1.391 . S
C461 H449 0.950 . S
C461 C457 1.393 . S
C461 C460 1.391 . S
C462 H452 0.950 . S
C462 C463 1.386 . S
C462 C464 1.391 . S
C463 C462 1.386 . S
C463 C467 1.393 . S
C464 H453 0.950 . S
C464 C462 1.391 . S
C464 C465 1.400 . S
C465 C459 1.491 1_546 S
C465 C464 1.400 . S
C465 C466 1.398 . S
C466 H454 0.950 1_545 S
C466 C465 1.398 . S
C466 C467 1.391 . S
C467 H455 0.950 . S
C467 C463 1.393 . S
C467 C466 1.391 . S
H468 C476 0.950 . S
H469 C481 0.950 . S
H470 C478 0.950 . S
H471 C480 0.950 . S
H472 C482 0.950 . S
H473 C484 0.950 . S
H474 C486 0.950 . S
H475 C487 0.950 . S
C476 H468 0.950 . S
C476 C477 1.386 . S
C476 C478 1.391 . S
C477 C476 1.386 . S
C477 C481 1.393 . S
C478 H470 0.950 . S
C478 C476 1.391 . S
C478 C479 1.400 . S
C479 C478 1.400 . S
C479 C480 1.398 . S
C479 C485 1.491 . S
C480 H471 0.950 . S
C480 C479 1.398 . S
C480 C481 1.391 . S
C481 H469 0.950 . S
C481 C477 1.393 . S
C481 C480 1.391 . S
C482 H472 0.950 . S
C482 C483 1.386 . S
C482 C484 1.391 . S
C483 C482 1.386 . S
C483 C487 1.393 . S
C484 H473 0.950 . S
C484 C482 1.391 . S
C484 C485 1.400 . S
C485 C479 1.491 . S
C485 C484 1.400 . S
C485 C486 1.398 . S
C486 H474 0.950 . S
C486 C485 1.398 . S
C486 C487 1.391 . S
C487 H475 0.950 . S
C487 C483 1.393 . S
C487 C486 1.391 . S
H488 C496 0.950 . S
H489 C501 0.950 . S
H490 C498 0.950 . S
H491 C500 0.950 . S
H492 C502 0.950 . S
H493 C504 0.950 . S
H494 C506 0.950 . S
H495 C507 0.950 . S
C496 H488 0.950 . S
C496 C497 1.386 . S
C496 C498 1.391 . S
C497 C496 1.386 . S
C497 C501 1.393 . S
C498 H490 0.950 . S
C498 C496 1.391 . S
C498 C499 1.400 . S
C499 C498 1.400 . S
C499 C500 1.398 . S
C499 C505 1.491 1_455 S
C500 H491 0.950 . S
C500 C499 1.398 . S
C500 C501 1.391 . S
C501 H489 0.950 . S
C501 C497 1.393 . S
C501 C500 1.391 . S
C502 H492 0.950 . S
C502 C503 1.386 . S
C502 C504 1.391 . S
C503 C502 1.386 . S
C503 C507 1.393 . S
C504 H493 0.950 . S
C504 C502 1.391 . S
C504 C505 1.400 . S
C505 C499 1.491 1_655 S
C505 C504 1.400 . S
C505 C506 1.398 . S
C506 H494 0.950 . S
C506 C505 1.398 . S
C506 C507 1.391 . S
C507 H495 0.950 . S
C507 C503 1.393 . S
C507 C506 1.391 . S
H508 C516 0.950 . S
H509 C521 0.950 . S
H510 C518 0.950 1_545 S
H511 C520 0.950 . S
H512 C522 0.950 . S
H513 C524 0.950 1_565 S
H514 C526 0.950 . S
H515 C527 0.950 . S
C516 H508 0.950 . S
C516 C517 1.386 . S
C516 C518 1.391 . S
C517 C516 1.386 . S
C517 C521 1.393 . S
C518 H510 0.950 1_565 S
C518 C516 1.391 . S
C518 C519 1.400 . S
C519 C518 1.400 . S
C519 C520 1.398 . S
C519 C525 1.491 1_565 S
C520 H511 0.950 . S
C520 C519 1.398 . S
C520 C521 1.391 . S
C521 H509 0.950 . S
C521 C517 1.393 . S
C521 C520 1.391 . S
C522 H512 0.950 . S
C522 C523 1.386 . S
C522 C524 1.391 . S
C523 C522 1.386 . S
C523 C527 1.393 . S
C524 H513 0.950 1_545 S
C524 C522 1.391 . S
C524 C525 1.400 . S
C525 C519 1.491 1_545 S
C525 C524 1.400 . S
C525 C526 1.398 . S
C526 H514 0.950 . S
C526 C525 1.398 . S
C526 C527 1.391 . S
C527 H515 0.950 . S
C527 C523 1.393 . S
C527 C526 1.391 . S
H528 C536 0.950 . S
H529 C541 0.950 . S
H530 C538 0.950 . S
H531 C540 0.950 . S
H532 C542 0.950 . S
H533 C544 0.950 . S
H534 C546 0.950 . S
H535 C547 0.950 . S
C536 H528 0.950 . S
C536 C537 1.386 . S
C536 C538 1.391 . S
C537 C536 1.386 . S
C537 C541 1.393 . S
C538 H530 0.950 . S
C538 C536 1.391 . S
C538 C539 1.400 . S
C539 C538 1.400 . S
C539 C540 1.398 . S
C539 C545 1.491 . S
C540 H531 0.950 . S
C540 C539 1.398 . S
C540 C541 1.391 . S
C541 H529 0.950 . S
C541 C537 1.393 . S
C541 C540 1.391 . S
C542 H532 0.950 . S
C542 C543 1.386 . S
C542 C544 1.391 . S
C543 C542 1.386 . S
C543 C547 1.393 . S
C544 H533 0.950 . S
C544 C542 1.391 . S
C544 C545 1.400 . S
C545 C539 1.491 . S
C545 C544 1.400 . S
C545 C546 1.398 . S
C546 H534 0.950 . S
C546 C545 1.398 . S
C546 C547 1.391 . S
C547 H535 0.950 . S
C547 C543 1.393 . S
C547 C546 1.391 . S
H548 C556 0.950 . S
H549 C561 0.950 . S
H550 C558 0.950 . S
H551 C560 0.950 . S
H552 C562 0.950 . S
H553 C564 0.950 . S
H554 C566 0.950 . S
H555 C567 0.950 . S
C556 H548 0.950 . S
C556 C557 1.386 . S
C556 C558 1.391 . S
C557 C556 1.386 . S
C557 C561 1.393 . S
C558 H550 0.950 . S
C558 C556 1.391 . S
C558 C559 1.400 . S
C559 C558 1.400 . S
C559 C560 1.398 . S
C559 C565 1.491 . S
C560 H551 0.950 . S
C560 C559 1.398 . S
C560 C561 1.391 . S
C561 H549 0.950 . S
C561 C557 1.393 . S
C561 C560 1.391 . S
C562 H552 0.950 . S
C562 C563 1.386 . S
C562 C564 1.391 . S
C563 C562 1.386 . S
C563 C567 1.393 . S
C564 H553 0.950 . S
C564 C562 1.391 . S
C564 C565 1.400 . S
C565 C559 1.491 . S
C565 C564 1.400 . S
C565 C566 1.398 . S
C566 H554 0.950 . S
C566 C565 1.398 . S
C566 C567 1.391 . S
C567 H555 0.950 . S
C567 C563 1.393 . S
C567 C566 1.391 . S
H568 C576 0.950 . S
H569 C581 0.950 . S
H570 C578 0.950 . S
H571 C580 0.942 1_554 S
H572 C582 0.950 . S
H573 C584 0.950 . S
H574 C586 0.950 . S
H575 C587 0.950 . S
C576 H568 0.950 . S
C576 C577 1.386 1_556 S
C576 C578 1.391 . S
C577 C576 1.386 1_554 S
C577 C581 1.393 . S
C578 H570 0.950 . S
C578 C576 1.391 . S
C578 C579 1.400 . S
C579 C578 1.400 . S
C579 C580 1.418 . S
C579 C585 1.491 . S
C580 H571 0.942 1_556 S
C580 C579 1.418 . S
C580 C581 1.379 1_556 S
C581 H569 0.950 . S
C581 C577 1.393 . S
C581 C580 1.379 1_554 S
C582 H572 0.950 . S
C582 C583 1.386 . S
C582 C584 1.391 . S
C583 C582 1.386 . S
C583 C587 1.393 . S
C584 H573 0.950 . S
C584 C582 1.391 . S
C584 C585 1.400 . S
C585 C579 1.491 . S
C585 C584 1.400 . S
C585 C586 1.398 . S
C586 H574 0.950 . S
C586 C585 1.398 . S
C586 C587 1.391 . S
C587 H575 0.950 . S
C587 C583 1.393 . S
C587 C586 1.391 . S
H588 C596 0.950 . S
H589 C601 0.950 . S
H590 C598 0.950 . S
H591 C600 0.950 . S
H592 C602 0.950 . S
H593 C604 0.950 . S
H594 C606 0.950 1_556 S
H595 C607 0.950 . S
C596 H588 0.950 . S
C596 C597 1.386 . S
C596 C598 1.391 . S
C597 C596 1.386 . S
C597 C601 1.393 . S
C598 H590 0.950 . S
C598 C596 1.391 . S
C598 C599 1.400 . S
C599 C598 1.400 . S
C599 C600 1.398 . S
C599 C605 1.491 . S
C600 H591 0.950 . S
C600 C599 1.398 . S
C600 C601 1.391 . S
C601 H589 0.950 . S
C601 C597 1.393 . S
C601 C600 1.391 . S
C602 H592 0.950 . S
C602 C603 1.386 1_554 S
C602 C604 1.391 . S
C603 C602 1.386 1_556 S
C603 C607 1.393 . S
C604 H593 0.950 . S
C604 C602 1.391 . S
C604 C605 1.400 . S
C605 C599 1.491 . S
C605 C604 1.400 . S
C605 C606 1.398 . S
C606 H594 0.950 1_554 S
C606 C605 1.398 . S
C606 C607 1.391 1_554 S
C607 H595 0.950 . S
C607 C603 1.393 . S
C607 C606 1.391 1_556 S
H608 C616 0.950 . S
H609 C621 0.950 . S
H610 C618 0.950 . S
H611 C620 0.950 . S
H612 C622 0.950 . S
H613 C624 0.950 . S
H614 C626 0.950 . S
H615 C627 0.950 . S
C616 H608 0.950 . S
C616 C617 1.386 . S
C616 C618 1.391 . S
C617 C616 1.386 . S
C617 C621 1.393 . S
C618 H610 0.950 . S
C618 C616 1.391 . S
C618 C619 1.400 . S
C619 C618 1.400 . S
C619 C620 1.398 . S
C619 C625 1.491 . S
C620 H611 0.950 . S
C620 C619 1.398 . S
C620 C621 1.391 . S
C621 H609 0.950 . S
C621 C617 1.393 . S
C621 C620 1.391 . S
C622 H612 0.950 . S
C622 C623 1.386 . S
C622 C624 1.391 . S
C623 C622 1.386 . S
C623 C627 1.393 . S
C624 H613 0.950 . S
C624 C622 1.391 . S
C624 C625 1.400 . S
C625 C619 1.491 . S
C625 C624 1.400 . S
C625 C626 1.398 . S
C626 H614 0.950 . S
C626 C625 1.398 . S
C626 C627 1.391 . S
C627 H615 0.950 . S
C627 C623 1.393 . S
C627 C626 1.391 . S
H628 C636 0.950 . S
H629 C641 0.950 . S
H630 C638 0.950 . S
H631 C640 0.950 . S
H632 C642 0.950 . S
H633 C644 0.950 . S
H634 C646 0.950 . S
H635 C647 0.950 . S
C636 H628 0.950 . S
C636 C637 1.386 . S
C636 C638 1.391 . S
C637 C636 1.386 . S
C637 C641 1.393 . S
C638 H630 0.950 . S
C638 C636 1.391 . S
C638 C639 1.400 . S
C639 C638 1.400 . S
C639 C640 1.398 . S
C639 C645 1.491 . S
C640 H631 0.950 . S
C640 C639 1.398 . S
C640 C641 1.391 . S
C641 H629 0.950 . S
C641 C637 1.393 . S
C641 C640 1.391 . S
C642 H632 0.950 . S
C642 C643 1.386 . S
C642 C644 1.391 . S
C643 C642 1.386 . S
C643 C647 1.393 . S
C644 H633 0.950 . S
C644 C642 1.391 . S
C644 C645 1.400 . S
C645 C639 1.491 . S
C645 C644 1.400 . S
C645 C646 1.398 . S
C646 H634 0.950 . S
C646 C645 1.398 . S
C646 C647 1.391 . S
C647 H635 0.950 . S
C647 C643 1.393 . S
C647 C646 1.391 . S
C177 C138 1.301 . S
C183 C12 1.276 . S
C197 C26 1.291 . S
C203 C152 1.290 . S
C217 C166 1.285 . S
C223 C40 1.277 . S
C237 C96 1.288 . S
C243 C54 1.276 . S
C257 C110 1.277 . S
C263 C68 1.297 . S
C277 C124 1.278 . S
C283 C82 1.294 . S
C297 C95 1.462 . S
C303 C11 1.464 . S
C317 C25 1.463 . S
C323 C109 1.468 . S
C337 C123 1.464 . S
C343 C39 1.463 . S
C357 C53 1.453 . S
C363 C137 1.477 . S
C377 C151 1.477 . S
C383 C67 1.453 . S
C397 C81 1.452 . S
C403 C165 1.477 . S
C417 C130 1.036 . S
C423 C4 1.036 . S
C437 C144 1.029 . S
C443 C18 1.041 . S
C457 C158 1.024 . S
C463 C32 1.042 . S
C477 C46 1.038 . S
C483 C88 1.033 . S
C497 C102 1.037 . S
C503 C60 1.034 . S
C517 C74 1.042 . S
C523 C116 1.016 . S
C537 C5 1.265 . S
C543 C117 1.270 . S
C557 C131 1.272 . S
C563 C19 1.257 . S
C577 C145 1.258 . S
C583 C33 1.232 . S
C597 C159 1.263 . S
C603 C47 1.237 . S
C617 C89 1.246 . S
C623 C61 1.228 . S
C637 C103 1.228 . S
C643 C75 1.245 . S
