# Generated by pormake.
# Topology smm, (6)-cn, num edge types: 1
# Building blocks:
#     Node 0, Type 0, BuildingBlock: UKALOJ_clean_sbu_0, # of connection points: 6
#     Node 1, Type 0, BuildingBlock: UKALOJ_clean_sbu_0, # of connection points: 6
#     Node 2, Type 0, BuildingBlock: UKALOJ_clean_sbu_0, # of connection points: 6
#     Node 3, Type 0, BuildingBlock: UKALOJ_clean_sbu_0, # of connection points: 6
#     Node 4, Type 0, BuildingBlock: UKALOJ_clean_sbu_0, # of connection points: 6
#     Node 5, Type 0, BuildingBlock: UKALOJ_clean_sbu_0, # of connection points: 6
#     Node 6, Type 0, BuildingBlock: UKALOJ_clean_sbu_0, # of connection points: 6
#     Node 7, Type 0, BuildingBlock: UKALOJ_clean_sbu_0, # of connection points: 6
#     Node 8, Type 0, BuildingBlock: UKALOJ_clean_sbu_0, # of connection points: 6
#     Edge 9, Type (0, 0), BuildingBlock: CIFDUS_clean_linker_0, # of connection points: 2
#     Edge 10, Type (0, 0), BuildingBlock: CIFDUS_clean_linker_0, # of connection points: 2
#     Edge 11, Type (0, 0), BuildingBlock: CIFDUS_clean_linker_0, # of connection points: 2
#     Edge 12, Type (0, 0), BuildingBlock: CIFDUS_clean_linker_0, # of connection points: 2
#     Edge 13, Type (0, 0), BuildingBlock: CIFDUS_clean_linker_0, # of connection points: 2
#     Edge 14, Type (0, 0), BuildingBlock: CIFDUS_clean_linker_0, # of connection points: 2
#     Edge 15, Type (0, 0), BuildingBlock: CIFDUS_clean_linker_0, # of connection points: 2
#     Edge 16, Type (0, 0), BuildingBlock: CIFDUS_clean_linker_0, # of connection points: 2
#     Edge 17, Type (0, 0), BuildingBlock: CIFDUS_clean_linker_0, # of connection points: 2
#     Edge 18, Type (0, 0), BuildingBlock: CIFDUS_clean_linker_0, # of connection points: 2
#     Edge 19, Type (0, 0), BuildingBlock: CIFDUS_clean_linker_0, # of connection points: 2
#     Edge 20, Type (0, 0), BuildingBlock: CIFDUS_clean_linker_0, # of connection points: 2
#     Edge 21, Type (0, 0), BuildingBlock: CIFDUS_clean_linker_0, # of connection points: 2
#     Edge 22, Type (0, 0), BuildingBlock: CIFDUS_clean_linker_0, # of connection points: 2
#     Edge 23, Type (0, 0), BuildingBlock: CIFDUS_clean_linker_0, # of connection points: 2
#     Edge 24, Type (0, 0), BuildingBlock: CIFDUS_clean_linker_0, # of connection points: 2
#     Edge 25, Type (0, 0), BuildingBlock: CIFDUS_clean_linker_0, # of connection points: 2
#     Edge 26, Type (0, 0), BuildingBlock: CIFDUS_clean_linker_0, # of connection points: 2
#     Edge 27, Type (0, 0), BuildingBlock: CIFDUS_clean_linker_0, # of connection points: 2
#     Edge 28, Type (0, 0), BuildingBlock: CIFDUS_clean_linker_0, # of connection points: 2
#     Edge 29, Type (0, 0), BuildingBlock: CIFDUS_clean_linker_0, # of connection points: 2
#     Edge 30, Type (0, 0), BuildingBlock: CIFDUS_clean_linker_0, # of connection points: 2
#     Edge 31, Type (0, 0), BuildingBlock: CIFDUS_clean_linker_0, # of connection points: 2
#     Edge 32, Type (0, 0), BuildingBlock: CIFDUS_clean_linker_0, # of connection points: 2
#     Edge 33, Type (0, 0), BuildingBlock: CIFDUS_clean_linker_0, # of connection points: 2
#     Edge 34, Type (0, 0), BuildingBlock: CIFDUS_clean_linker_0, # of connection points: 2
#     Edge 35, Type (0, 0), BuildingBlock: CIFDUS_clean_linker_0, # of connection points: 2
# Relax obj value: 0.339
# Max RMSD: 0.277
# Mean RMSD: 0.263
data_MOF--net-smm--node1-UKALOJ_clean_sbu_0--edge1-CIFDUS_clean_linker_0
_symmetry_space_group_name_H-M    P1
_symmetry_Int_Tables_number       1
_symmetry_cell_setting            triclinic
loop_
_symmetry_equiv_pos_as_xyz
'x, y, z'
_cell_length_a     43.044149
_cell_length_b     42.109253
_cell_length_c     17.744801
_cell_angle_alpha  92.816205
_cell_angle_beta   92.907485
_cell_angle_gamma 119.95909
loop_
_atom_site_label
_atom_site_type_symbol
_atom_site_fract_x
_atom_site_fract_y
_atom_site_fract_z
_atom_type_partial_charge
Zn0 Zn 0.01712 0.21128 0.10181 0.0
O1 O 0.97872 0.15488 0.12448 0.0
C2 C 0.05437 0.18082 0.02691 0.0
Zn3 Zn -0.0066 0.19596 0.9824 0.0
C4 C 0.95646 0.13282 0.07049 0.0
O5 O 0.95626 0.1445 0.00642 0.0
C6 C 0.05387 0.27261 1.00136 0.0
O7 O 0.95468 0.21414 0.99927 0.0
O8 O 0.97864 0.22536 0.11636 0.0
N9 N 0.97697 0.17953 0.87005 0.0
C10 C 0.97634 0.19739 0.80942 0.0
C11 C 0.96949 0.14577 0.76776 0.0
N12 N 0.97215 0.14725 0.84385 0.0
N13 N 0.97202 0.17688 0.74454 0.0
C14 C 0.03173 0.20939 0.27526 0.0
C15 C 0.04409 0.26327 0.31584 0.0
N16 N 0.03336 0.22784 0.2142 0.0
N17 N 0.04149 0.26143 0.23966 0.0
N18 N 0.03819 0.23101 0.33966 0.0
H19 H -0.00923 0.15298 0.27385 0.0
H20 H 0.03311 0.16331 0.3203 0.0
H21 H 0.0278 0.16097 0.21847 0.0
C22 C 0.02037 0.16939 0.27164 0.0
C23 C 0.98248 0.23576 0.81347 0.0
H24 H 0.98277 0.24604 0.87227 0.0
H25 H 0.96066 0.23629 0.77866 0.0
H26 H 0.00815 0.25421 0.78942 0.0
O27 O 0.03094 0.24679 0.95494 0.0
O28 O 0.05472 0.2671 0.07141 0.0
C29 C 0.95542 0.22451 0.06857 0.0
O30 O 0.05534 0.19627 0.09068 0.0
O31 O 0.03213 0.17777 0.9727 0.0
Zn32 Zn 0.81307 0.85075 0.11628 0.0
O33 O 0.75609 0.83543 0.09925 0.0
C34 C 0.78875 0.77168 0.09905 0.0
Zn35 Zn 0.81408 0.83337 0.99863 0.0
C36 C 0.74464 0.82855 0.02911 0.0
O37 O 0.76466 0.82752 0.98079 0.0
C38 C 0.88336 0.85706 0.07187 0.0
O39 O 0.83958 0.89106 0.97539 0.0
O40 O 0.82802 0.90273 0.08884 0.0
N41 N 0.8107 0.81657 0.88742 0.0
C42 C 0.79998 0.8262 0.82415 0.0
C43 C 0.81572 0.78746 0.78956 0.0
N44 N 0.82025 0.7923 0.86584 0.0
N45 N 0.80248 0.80801 0.76241 0.0
C46 C 0.80341 0.85322 0.28902 0.0
C47 C 0.84992 0.90471 0.32626 0.0
N48 N 0.81858 0.8695 0.22679 0.0
N49 N 0.84707 0.90178 0.25016 0.0
N50 N 0.82291 0.87457 0.35229 0.0
H51 H 0.7582 0.80436 0.22997 0.0
H52 H 0.75052 0.81735 0.32153 0.0
H53 H 0.77827 0.79707 0.31555 0.0
C54 C 0.77081 0.81571 0.28814 0.0
C55 C 0.79015 0.8557 0.8213 0.0
H56 H 0.7906 0.86797 0.87789 0.0
H57 H 0.76282 0.84406 0.79224 0.0
H58 H 0.80911 0.87764 0.78743 0.0
O59 O 0.86346 0.8391 0.01272 0.0
O60 O 0.87002 0.86612 0.12583 0.0
C61 C 0.84078 0.91401 0.02676 0.0
O62 O 0.79902 0.79893 0.14705 0.0
O63 O 0.78992 0.77683 0.02868 0.0
Zn64 Zn 0.15922 0.01169 0.92775 0.0
O65 O 0.21725 0.05154 0.93822 0.0
C66 C 0.17506 0.9516 0.92382 0.0
Zn67 Zn 0.1599 0.99453 0.04288 0.0
C68 C 0.23086 0.05542 0.00607 0.0
O69 O 0.21169 0.03477 0.05394 0.0
C70 C 0.08758 0.95228 0.97955 0.0
O71 O 0.14517 0.03492 0.08298 0.0
O72 O 0.1505 0.05208 0.96783 0.0
N73 N 0.16828 0.98337 0.14997 0.0
C74 C 0.15535 0.98673 0.21558 0.0
C75 C 0.19933 0.97822 0.24285 0.0
N76 N 0.19529 0.97761 0.16697 0.0
N77 N 0.17451 0.98378 0.27466 0.0
C78 C 0.16595 0.02263 0.75608 0.0
C79 C 0.11854 0.025 0.72699 0.0
N80 N 0.15127 0.02334 0.821 0.0
N81 N 0.12215 0.0254 0.80282 0.0
N82 N 0.14568 0.02326 0.69618 0.0
H83 H 0.20989 0.01716 0.80672 0.0
H84 H 0.21979 0.04326 0.72596 0.0
H85 H 0.19195 0.99432 0.71216 0.0
C86 C 0.19863 0.01885 0.75068 0.0
C87 C 0.12676 -0.00307 0.22202 0.0
H88 H 0.13977 0.02722 0.23327 0.0
H89 H 0.11022 0.98418 0.26934 0.0
H90 H 0.10869 0.9879 0.16914 0.0
O91 O 0.10756 0.95437 0.03646 0.0
O92 O 0.10153 0.97238 0.92534 0.0
C93 C 0.14395 0.05596 0.03505 0.0
O94 O 0.16737 0.97098 0.88354 0.0
O95 O 0.17515 0.9555 0.99575 0.0
Zn96 Zn 0.62459 0.51325 0.26393 0.0
O97 O 0.66429 0.49751 0.23284 0.0
C98 C 0.58778 0.44363 0.32048 0.0
Zn99 Zn 0.64652 0.52198 0.3838 0.0
C100 C 0.68609 0.49933 0.28673 0.0
O101 O 0.68473 0.51127 0.35225 0.0
C102 C 0.58474 0.53323 0.37527 0.0
O103 O 0.68472 0.58081 0.38034 0.0
O104 O 0.66241 0.56717 0.26195 0.0
N105 N 0.66253 0.52096 0.49383 0.0
C106 C 0.66087 0.53707 0.55987 0.0
C107 C 0.67678 0.4982 0.58688 0.0
N108 N 0.67268 0.49702 0.51089 0.0
N109 N 0.66938 0.52303 0.61897 0.0
C110 C 0.61533 0.50358 0.08678 0.0
C111 C 0.59207 0.53676 0.06314 0.0
N112 N 0.60929 0.51514 0.15376 0.0
N113 N 0.59461 0.53553 0.13876 0.0
N114 N 0.60516 0.51717 0.02913 0.0
H115 H 0.65896 0.49295 0.08443 0.0
H116 H 0.6202 0.46207 0.02085 0.0
H117 H 0.6192 0.45741 0.12156 0.0
C118 C 0.62911 0.47735 0.07776 0.0
C119 C 0.65294 0.56787 0.56663 0.0
H120 H 0.65904 0.58283 0.51476 0.0
H121 H 0.66897 0.58725 0.61657 0.0
H122 H 0.62416 0.55666 0.57523 0.0
O123 O 0.60787 0.53188 0.41944 0.0
O124 O 0.58534 0.52825 0.30381 0.0
C125 C 0.68481 0.5904 0.31309 0.0
O126 O 0.58736 0.4591 0.26149 0.0
O127 O 0.60862 0.46281 0.37905 0.0
Zn128 Zn 0.48406 0.16731 0.34253 0.0
O129 O 0.42667 0.14837 0.32123 0.0
C130 C 0.47207 0.09224 0.33472 0.0
Zn131 Zn 0.48853 0.15025 0.22497 0.0
C132 C 0.41502 0.13634 0.25214 0.0
O133 O 0.4357 0.13379 0.20754 0.0
C134 C 0.55875 0.18406 0.30056 0.0
O135 O 0.50179 0.20595 0.19549 0.0
O136 O 0.49448 0.21644 0.31323 0.0
N137 N 0.48511 0.13161 0.11412 0.0
C138 C 0.49712 0.14936 0.05141 0.0
C139 C 0.46221 0.09263 0.0154 0.0
N140 N 0.4636 0.09633 0.09155 0.0
N141 N 0.48277 0.12557 0.98866 0.0
C142 C 0.47027 0.1678 0.5133 0.0
C143 C 0.5106 0.22222 0.55487 0.0
N144 N 0.48661 0.18547 0.45315 0.0
N145 N 0.51148 0.21936 0.47916 0.0
N146 N 0.48509 0.19015 0.57775 0.0
H147 H 0.42435 0.12119 0.45112 0.0
H148 H 0.41958 0.12796 0.55061 0.0
H149 H 0.44755 0.11002 0.52294 0.0
C150 C 0.43851 0.12956 0.50872 0.0
C151 C 0.5244 0.18943 0.05207 0.0
H152 H 0.51042 0.20553 0.05045 0.0
H153 H 0.54015 0.19476 1.0019 0.0
H154 H 0.54303 0.19881 0.10428 0.0
O155 O 0.54175 0.16756 0.23771 0.0
O156 O 0.54181 0.18713 0.35503 0.0
C157 C 0.50198 0.2277 0.24858 0.0
O158 O 0.47419 0.11843 0.37646 0.0
O159 O 0.47551 0.09572 0.26385 0.0
Zn160 Zn 0.82952 0.35001 0.38396 0.0
O161 O 0.85441 0.31617 0.36893 0.0
C162 C 0.90021 0.41681 0.39734 0.0
Zn163 Zn 0.8416 0.37201 0.27244 0.0
C164 C 0.86311 0.31554 0.30133 0.0
O165 O 0.85987 0.33605 0.25592 0.0
C166 C 0.80528 0.40478 0.34082 0.0
O167 O 0.78729 0.3285 0.22778 0.0
O168 O 0.78275 0.30716 0.33888 0.0
N169 N 0.85704 0.38829 0.16788 0.0
C170 C 0.83838 0.38514 0.10194 0.0
C171 C 0.89232 0.40245 0.07785 0.0
N172 N 0.89063 0.39947 0.15289 0.0
N173 N 0.85993 0.39379 0.04466 0.0
C174 C 0.83186 0.33395 0.55308 0.0
C175 C 0.7792 0.32104 0.57882 0.0
N176 N 0.81378 0.33302 0.48793 0.0
N177 N 0.78093 0.32448 0.50396 0.0
N178 N 0.81077 0.32674 0.61097 0.0
H179 H 0.88212 0.34758 0.50582 0.0
H180 H 0.87383 0.32343 0.58975 0.0
H181 H 0.88627 0.37087 0.59788 0.0
C182 C 0.87081 0.34472 0.56133 0.0
C183 C 0.79854 0.37012 0.0928 0.0
H184 H 0.7847 0.33982 0.08041 0.0
H185 H 0.79096 0.38162 0.04515 0.0
H186 H 0.78917 0.37661 0.1453 0.0
O187 O 0.82268 0.40743 0.28397 0.0
O188 O 0.80388 0.38355 0.39127 0.0
C189 C 0.7689 0.30467 0.27306 0.0
O190 O 0.87601 0.39316 0.43369 0.0
O191 O 0.89491 0.41475 0.32525 0.0
Zn192 Zn 0.34573 0.87973 0.71837 0.0
O193 O 0.30361 0.82525 0.74631 0.0
C194 C 0.38306 0.84484 0.66212 0.0
Zn195 Zn 0.32413 0.8593 0.59837 0.0
C196 C 0.28341 0.80101 0.69283 0.0
O197 O 0.28709 0.80931 0.62529 0.0
C198 C 0.38641 0.9355 0.61009 0.0
O199 O 0.28328 0.87592 0.60574 0.0
O200 O 0.30969 0.89706 0.72043 0.0
N201 N 0.31001 0.84093 0.48571 0.0
C202 C 0.31021 0.85842 0.42382 0.0
C203 C 0.30065 0.80535 0.38499 0.0
N204 N 0.30385 0.80788 0.46132 0.0
N205 N 0.30475 0.8368 0.36007 0.0
C206 C 0.35457 0.88149 0.89437 0.0
C207 C 0.37328 0.9378 0.92835 0.0
N208 N 0.35973 0.89914 0.83072 0.0
N209 N 0.37155 0.93417 0.85209 0.0
N210 N 0.3624 0.90503 0.95633 0.0
H211 H 0.31409 0.8249 0.89425 0.0
H212 H 0.35548 0.83729 0.94883 0.0
H213 H 0.35288 0.83258 0.84654 0.0
C214 C 0.3438 0.84178 0.89601 0.0
C215 C 0.31335 0.89554 0.42544 0.0
H216 H 0.30784 0.90355 0.48136 0.0
H217 H 0.29422 0.89532 0.38076 0.0
H218 H 0.34075 0.91644 0.41301 0.0
O219 O 0.36185 0.9091 0.56732 0.0
O220 O 0.38722 0.93287 0.68161 0.0
C221 C 0.28457 0.89068 0.67138 0.0
O222 O 0.38115 0.86156 0.72113 0.0
O223 O 0.36406 0.84131 0.60103 0.0
Zn224 Zn 0.14054 0.52273 0.77235 0.0
O225 O 0.08374 0.50721 0.75106 0.0
C226 C 0.12399 0.44527 0.76069 0.0
Zn227 Zn 0.14382 0.50447 0.65461 0.0
C228 C 0.07204 0.49576 0.68178 0.0
O229 O 0.09187 0.49152 0.63731 0.0
C230 C 0.21378 0.53469 0.73041 0.0
O231 O 0.16042 0.56005 0.62623 0.0
O232 O 0.1549 0.57415 0.74337 0.0
N233 N 0.13946 0.48571 0.54351 0.0
C234 C 0.15246 0.50317 0.48095 0.0
C235 C 0.11456 0.44719 0.44446 0.0
N236 N 0.1161 0.45088 0.52062 0.0
N237 N 0.1369 0.4797 0.41802 0.0
C238 C 0.12719 0.52385 0.94338 0.0
C239 C 0.16918 0.57751 0.98502 0.0
N240 N 0.14401 0.54106 0.88325 0.0
N241 N 0.16993 0.57449 0.9093 0.0
N242 N 0.14271 0.54602 0.00789 0.0
H243 H 0.07988 0.47889 0.8814 0.0
H244 H 0.07613 0.4854 0.98161 0.0
H245 H 0.1023 0.46576 0.95094 0.0
C246 C 0.09437 0.48634 0.93863 0.0
C247 C 0.18171 0.54253 0.48183 0.0
H248 H 0.20012 0.55083 0.53417 0.0
H249 H 0.16952 0.56028 0.48001 0.0
H250 H 0.19735 0.54672 0.43175 0.0
O251 O 0.19618 0.51844 0.66783 0.0
O252 O 0.19763 0.53921 0.78491 0.0
C253 C 0.1632 0.58378 0.67773 0.0
O254 O 0.12721 0.47139 0.80496 0.0
O255 O 0.12799 0.44993 0.69051 0.0
Zn256 Zn 0.49146 0.66714 0.76553 0.0
O257 O 0.47638 0.70884 0.7994 0.0
C258 C 0.42364 0.63234 0.68261 0.0
Zn259 Zn 0.50148 0.69061 0.65536 0.0
C260 C 0.48134 0.73286 0.7529 0.0
O261 O 0.49454 0.73177 0.69191 0.0
C262 C 0.50916 0.62492 0.65171 0.0
O263 O 0.55949 0.72716 0.68459 0.0
O264 O 0.54391 0.70482 0.79391 0.0
N265 N 0.50265 0.70746 0.54923 0.0
C266 C 0.5201 0.70681 0.4887 0.0
C267 C 0.47938 0.71846 0.45061 0.0
N268 N 0.47774 0.71524 0.52552 0.0
N269 N 0.50579 0.71336 0.42601 0.0
C270 C 0.47525 0.65442 0.93425 0.0
C271 C 0.51253 0.63762 0.96973 0.0
N272 N 0.49067 0.65108 0.87241 0.0
N273 N 0.51349 0.64022 0.89451 0.0
N274 N 0.48865 0.64624 0.99599 0.0
H275 H 0.46578 0.69955 0.94502 0.0
H276 H 0.43183 0.65852 0.98117 0.0
H277 H 0.43337 0.66134 0.88033 0.0
C278 C 0.44994 0.66911 0.93518 0.0
C279 C 0.5492 0.6971 0.48971 0.0
H280 H 0.55828 0.69552 0.54817 0.0
H281 H 0.57268 0.71829 0.46318 0.0
H282 H 0.53934 0.67054 0.45564 0.0
O283 O 0.50802 0.64881 0.61341 0.0
O284 O 0.50542 0.6261 0.72262 0.0
C285 C 0.56768 0.72722 0.75493 0.0
O286 O 0.43914 0.62998 0.74259 0.0
O287 O 0.44242 0.65467 0.63505 0.0
H288 H 0.06698 0.28458 0.8556 0.0
H289 H 0.09187 0.3416 0.07851 0.0
H290 H 0.11957 0.40074 0.02192 0.0
H291 H 0.13084 0.43508 0.90878 0.0
H292 H 0.09933 0.37709 0.68599 0.0
H293 H 0.07997 0.31893 0.74307 0.0
C294 C 0.07842 0.30992 0.89209 0.0
C295 C 0.07668 0.30866 0.97124 0.0
C296 C 0.0927 0.34338 0.859 0.0
C297 C 0.09276 0.34178 0.01763 0.0
C298 C 0.10829 0.3755 0.98514 0.0
C299 C 0.11933 0.40971 0.87252 0.0
C300 C 0.11553 0.41031 0.7931 0.0
C301 C 0.10732 0.37646 0.90585 0.0
C302 C 0.10219 0.37737 0.74706 0.0
C303 C 0.09107 0.34417 0.77976 0.0
H304 H 0.7253 0.84191 0.89367 0.0
H305 H 0.68122 0.78925 0.09533 0.0
H306 H 0.62128 0.7548 0.02625 0.0
H307 H 0.58458 0.73342 0.90561 0.0
H308 H 0.62981 0.78117 0.69983 0.0
H309 H 0.68738 0.82316 0.77349 0.0
C310 C 0.70245 0.82326 0.92284 0.0
C311 C 0.7077 0.8177 0.99929 0.0
C312 C 0.66895 0.80192 0.88143 0.0
C313 C 0.67784 0.79422 0.03697 0.0
C314 C 0.6438 0.77406 0.99695 0.0
C315 C 0.60686 0.75297 0.87611 0.0
C316 C 0.60297 0.75366 0.79649 0.0
C317 C 0.63956 0.77656 0.91854 0.0
C318 C 0.63215 0.7797 0.76044 0.0
C319 C 0.66491 0.80378 0.80271 0.0
H320 H 0.17473 0.93837 0.77226 0.0
H321 H 0.20559 0.91457 0.98837 0.0
H322 H 0.2381 0.88877 0.92446 0.0
H323 H 0.26395 0.88091 0.81139 0.0
H324 H 0.23908 0.91031 0.59623 0.0
H325 H 0.1976 0.92628 0.65597 0.0
C326 C 0.18841 0.9274 0.80558 0.0
C327 C 0.18835 0.92914 0.8855 0.0
C328 C 0.20832 0.91417 0.76873 0.0
C329 C 0.20533 0.91379 0.92723 0.0
C330 C 0.22411 0.8993 0.89066 0.0
C331 C 0.2494 0.89073 0.77705 0.0
C332 C 0.25519 0.89533 0.69968 0.0
C333 C 0.22682 0.90069 0.81209 0.0
C334 C 0.23528 0.90685 0.65576 0.0
C335 C 0.2118 0.91609 0.69014 0.0
H336 H 0.39417 0.127 0.10306 0.0
H337 H 0.35566 0.12698 0.32339 0.0
H338 H 0.29598 0.10877 0.26199 0.0
H339 H 0.25426 0.08681 0.14748 0.0
H340 H 0.29183 0.0815 0.92882 0.0
H341 H 0.35366 0.10979 0.98824 0.0
C342 C 0.37286 0.12308 0.13827 0.0
C343 C 0.37916 0.12754 0.21824 0.0
C344 C 0.33892 0.11229 0.10271 0.0
C345 C 0.35139 0.12327 0.26216 0.0
C346 C 0.31742 0.11298 0.22696 0.0
C347 C 0.27612 0.09245 0.11243 0.0
C348 C 0.26859 0.08172 0.03384 0.0
C349 C 0.31082 0.10664 0.14751 0.0
C350 C 0.29703 0.08968 0.98904 0.0
C351 C 0.33216 0.10528 0.02332 0.0
H352 H 0.86307 0.29641 0.15433 0.0
H353 H 0.89309 0.28084 0.37963 0.0
H354 H 0.92132 0.24778 0.32485 0.0
H355 H 0.94165 0.22864 0.21411 0.0
H356 H 0.91377 0.24664 0.98918 0.0
H357 H 0.87976 0.27347 0.04333 0.0
C358 C 0.87565 0.28569 0.19186 0.0
C359 C 0.87652 0.2916 0.2713 0.0
C360 C 0.89212 0.2674 0.16001 0.0
C361 C 0.8922 0.27681 0.31863 0.0
C362 C 0.90842 0.25809 0.28721 0.0
C363 C 0.92798 0.23822 0.17651 0.0
C364 C 0.93066 0.23616 0.09747 0.0
C365 C 0.90921 0.25406 0.20814 0.0
C366 C 0.9122 0.24801 0.04988 0.0
C367 C 0.89298 0.26348 0.08097 0.0
H368 H 0.78877 0.75506 0.2452 0.0
H369 H 0.75343 0.70477 0.01597 0.0
H370 H 0.72081 0.64416 0.06426 0.0
H371 H 0.69855 0.60679 0.16985 0.0
H372 H 0.72964 0.65616 0.40029 0.0
H373 H 0.76792 0.7166 0.35278 0.0
C374 C 0.77384 0.73089 0.20567 0.0
C375 C 0.77298 0.73456 0.12687 0.0
C376 C 0.75431 0.69632 0.23401 0.0
C377 C 0.75443 0.70281 0.07659 0.0
C378 C 0.73564 0.66821 0.10427 0.0
C379 C 0.7136 0.63065 0.21036 0.0
C380 C 0.71073 0.62702 0.28887 0.0
C381 C 0.73474 0.66487 0.18269 0.0
C382 C 0.73118 0.65821 0.33985 0.0
C383 C 0.75293 0.69267 0.31255 0.0
H384 H 0.05936 0.50682 0.53945 0.0
H385 H 0.00671 0.46987 0.7442 0.0
H386 H 0.94799 0.44763 0.67278 0.0
H387 H 0.91236 0.43121 0.54971 0.0
H388 H 0.96579 0.46194 0.34382 0.0
H389 H 0.02412 0.49516 0.41886 0.0
C390 C 0.03505 0.49424 0.56895 0.0
C391 C 0.03719 0.48927 0.64684 0.0
C392 C 0.00181 0.48037 0.52713 0.0
C393 C 0.00569 0.47386 0.68448 0.0
C394 C 0.97223 0.46094 0.64342 0.0
C395 C 0.93673 0.44532 0.521 0.0
C396 C 0.93479 0.44334 0.44088 0.0
C397 C 0.97004 0.46281 0.56429 0.0
C398 C 0.96652 0.46279 0.40502 0.0
C399 C -0.00018 0.48154 0.44797 0.0
H400 H 0.5035 0.61039 0.50039 0.0
H401 H 0.52995 0.57806 0.71035 0.0
H402 H 0.54971 0.54085 0.6388 0.0
H403 H 0.56571 0.5239 0.51846 0.0
H404 H 0.54734 0.564 0.31145 0.0
H405 H 0.51698 0.59126 0.37997 0.0
C406 C 0.51365 0.59531 0.53093 0.0
C407 C 0.5161 0.59775 0.61101 0.0
C408 C 0.52624 0.57544 0.48975 0.0
C409 C 0.52805 0.57691 0.64908 0.0
C410 C 0.53946 0.55581 0.6081 0.0
C411 C 0.55521 0.53876 0.48823 0.0
C412 C 0.55969 0.54288 0.41027 0.0
C413 C 0.53973 0.55593 0.52874 0.0
C414 C 0.54443 0.56063 0.37127 0.0
C415 C 0.52742 0.57646 0.41067 0.0
H416 H 0.48487 0.08817 0.48294 0.0
H417 H 0.44045 0.02031 0.27172 0.0
H418 H 0.41511 0.96508 0.34204 0.0
H419 H 0.39905 0.93745 0.46257 0.0
H420 H 0.43376 0.00636 0.67303 0.0
H421 H 0.4698 0.0604 0.60372 0.0
C422 C 0.46947 0.06129 0.45195 0.0
C423 C 0.46365 0.05839 0.37207 0.0
C424 C 0.45302 0.03016 0.49278 0.0
C425 C 0.44518 0.02336 0.33287 0.0
C426 C 0.43041 0.99189 0.37319 0.0
C427 C 0.41408 0.96433 0.49357 0.0
C428 C 0.4127 0.96801 0.57287 0.0
C429 C 0.43295 -0.00482 0.45302 0.0
C430 C 0.43398 0.00277 0.61223 0.0
C431 C 0.45441 0.0336 0.57248 0.0
H432 H 0.13407 0.09677 0.93538 0.0
H433 H 0.126 0.07485 0.17106 0.0
H434 H 0.1005 0.11514 0.19051 0.0
H435 H 0.07647 0.15253 0.13715 0.0
H436 H 0.07987 0.1683 0.89849 0.0
H437 H 0.11157 0.13407 0.88339 0.0
C438 C 0.1271 0.10085 0.99153 0.0
C439 C 0.13189 0.08268 0.05185 0.0
C440 C 0.11151 0.12274 1.00133 0.0
C441 C 0.12261 0.08848 0.12381 0.0
C442 C 0.10794 0.11139 0.13473 0.0
C443 C 0.08466 0.1489 0.08209 0.0
C444 C 0.07613 0.16303 0.01887 0.0
C445 C 0.10171 0.1281 0.07347 0.0
C446 C 0.08621 0.15765 0.94767 0.0
C447 C 0.10426 0.13811 0.93915 0.0
H448 H 0.86652 0.96716 0.14199 0.0
H449 H 0.85934 0.95084 0.8981 0.0
H450 H 0.8933 0.01773 0.8914 0.0
H451 H 0.92584 0.07983 0.95505 0.0
H452 H 0.93635 0.09608 0.1993 0.0
H453 H 0.89976 0.02934 0.20578 0.0
C454 C 0.87202 0.97813 0.08709 0.0
C455 C 0.8601 0.95409 0.02031 0.0
C456 C 0.89209 0.01629 0.08403 0.0
C457 C 0.86811 0.96878 0.95002 0.0
C458 C 0.88748 0.00692 0.94635 0.0
C459 C 0.9199 0.06894 0.00995 0.0
C460 C 0.93349 0.09294 0.07685 0.0
C461 C 0.89968 0.0308 0.01303 0.0
C462 C 0.92611 0.07823 0.14723 0.0
C463 C 0.90524 0.04015 0.15079 0.0
H464 H 0.91867 0.8665 0.94708 0.0
H465 H 0.93569 0.8824 0.19119 0.0
H466 H 0.00089 0.91078 0.18275 0.0
H467 H 0.0523 0.9334 0.10557 0.0
H468 H 0.03497 0.92291 0.86162 0.0
H469 H 0.96972 0.88946 0.87038 0.0
C470 C 0.9365 0.87566 0.99877 0.0
C471 C 0.92241 0.87196 0.06994 0.0
C472 C 0.97359 0.89293 0.99322 0.0
C473 C 0.94595 0.88478 0.136 0.0
C474 C 0.98309 0.901 0.13104 0.0
C475 C 0.03428 0.92346 0.05415 0.0
C476 C 0.04832 0.93026 0.9828 0.0
C477 C -0.00289 0.90553 0.05989 0.0
C478 C 0.02471 0.91785 0.91691 0.0
C479 C 0.98754 0.89882 0.92204 0.0
H480 H 0.71302 0.47899 0.40153 0.0
H481 H 0.71104 0.48213 0.15846 0.0
H482 H 0.74954 0.45426 0.15497 0.0
H483 H 0.78266 0.42854 0.22219 0.0
H484 H 0.78021 0.4227 0.46439 0.0
H485 H 0.74411 0.45272 0.46707 0.0
C486 C 0.72115 0.47407 0.34737 0.0
C487 C 0.70962 0.48323 0.28019 0.0
C488 C 0.74232 0.45761 0.34599 0.0
C489 C 0.71979 0.47563 0.21082 0.0
C490 C 0.74172 0.45972 0.20903 0.0
C491 C 0.77448 0.43413 0.27571 0.0
C492 C 0.7844 0.42382 0.34341 0.0
C493 C 0.75307 0.4506 0.27642 0.0
C494 C 0.77303 0.43052 0.4119 0.0
C495 C 0.75244 0.44763 0.41332 0.0
H496 H 0.57346 0.3965 0.19764 0.0
H497 H 0.55675 0.40067 0.43494 0.0
H498 H 0.52454 0.3334 0.42869 0.0
H499 H 0.50463 0.27507 0.35895 0.0
H500 H 0.5269 0.26927 0.12544 0.0
H501 H 0.55302 0.33633 0.12633 0.0
C502 C 0.56237 0.38256 0.24774 0.0
C503 C 0.56709 0.40326 0.31676 0.0
C504 C 0.54506 0.34404 0.24416 0.0
C505 C 0.55334 0.38518 0.38155 0.0
C506 C 0.53496 0.34687 0.37781 0.0
C507 C 0.51496 0.28809 0.30754 0.0
C508 C 0.51393 0.26703 0.24201 0.0
C509 C 0.53116 0.32623 0.30978 0.0
C510 C 0.52729 0.28474 0.17641 0.0
C511 C 0.54239 0.32304 0.17723 0.0
H512 H 0.60135 0.21424 0.18812 0.0
H513 H 0.60426 0.19547 0.42469 0.0
H514 H 0.67011 0.22692 0.4319 0.0
H515 H 0.72551 0.26173 0.37346 0.0
H516 H 0.72423 0.28834 0.14153 0.0
H517 H 0.65817 0.25041 0.12897 0.0
C518 C 0.61647 0.21679 0.2411 0.0
C519 C 0.59822 0.20243 0.30594 0.0
C520 C 0.65416 0.2359 0.24518 0.0
C521 C 0.61788 0.2064 0.37446 0.0
C522 C 0.65536 0.2242 0.37832 0.0
C523 C 0.71112 0.25917 0.31945 0.0
C524 C 0.72994 0.27792 0.2582 0.0
C525 C 0.67362 0.2393 0.31428 0.0
C526 C 0.71048 0.27409 0.18924 0.0
C527 C 0.67279 0.25269 0.18241 0.0
H528 H 0.48493 0.77909 0.6501 0.0
H529 H 0.44273 0.74174 0.86458 0.0
H530 H 0.4096 0.77524 0.85564 0.0
H531 H 0.38925 0.81062 0.78104 0.0
H532 H 0.42551 0.8394 0.5591 0.0
H533 H 0.46388 0.81211 0.57554 0.0
C534 C 0.46876 0.77823 0.69575 0.0
C535 C 0.46634 0.75776 0.75826 0.0
C536 C 0.44822 0.79522 0.68765 0.0
C537 C 0.4453 0.75743 0.81636 0.0
C538 C 0.42609 0.7762 0.81067 0.0
C539 C 0.40569 0.81097 0.73641 0.0
C540 C 0.4049 0.82708 0.66893 0.0
C541 C 0.42674 0.79438 0.74563 0.0
C542 C 0.42569 0.82697 0.61102 0.0
C543 C 0.4477 0.81165 0.6208 0.0
H544 H 0.18967 0.63991 0.7871 0.0
H545 H 0.17555 0.61652 0.54397 0.0
H546 H 0.20917 0.68254 0.52877 0.0
H547 H 0.24552 0.74552 0.58445 0.0
H548 H 0.26356 0.76919 0.8276 0.0
H549 H 0.22469 0.70356 0.84304 0.0
C550 C 0.19347 0.64914 0.73054 0.0
C551 C 0.18014 0.6233 0.66646 0.0
C552 C 0.21356 0.68689 0.72252 0.0
C553 C 0.18565 0.6358 0.59393 0.0
C554 C 0.20485 0.67348 0.58537 0.0
C555 C 0.24086 0.73662 0.64118 0.0
C556 C 0.25767 0.76233 0.70507 0.0
C557 C 0.21942 0.6991 0.64932 0.0
C558 C 0.25116 0.75004 0.77771 0.0
C559 C 0.22899 0.71257 0.78639 0.0
H560 H 0.38126 0.60785 0.79694 0.0
H561 H 0.37698 0.61386 0.55469 0.0
H562 H 0.31096 0.58244 0.54893 0.0
H563 H 0.25537 0.55463 0.61358 0.0
H564 H 0.26059 0.55317 0.85697 0.0
H565 H 0.32627 0.58192 0.86164 0.0
C566 C 0.366 0.60207 0.74251 0.0
C567 C 0.38393 0.61269 0.67593 0.0
C568 C 0.32855 0.58506 0.74019 0.0
C569 C 0.36374 0.60571 0.60641 0.0
C570 C 0.32612 0.58783 0.60329 0.0
C571 C 0.27082 0.56029 0.66773 0.0
C572 C 0.25322 0.55137 0.73499 0.0
C573 C 0.30836 0.57751 0.66991 0.0
C574 C 0.27359 0.55963 0.80467 0.0
C575 C 0.31101 0.576 0.80721 0.0
H576 H 0.02197 0.17544 0.6642 0.0
H577 H 0.93913 0.20438 0.65762 0.0
H578 H 0.95341 0.22524 0.53062 0.0
H579 H 0.98907 0.23403 0.42061 0.0
H580 H 0.07159 0.20469 0.42733 0.0
H581 H 0.05787 0.18469 0.55513 0.0
C582 C 0.00706 0.18622 0.63453 0.0
C583 C 0.97984 0.18881 0.6699 0.0
C584 C 0.01532 0.19782 0.56182 0.0
C585 C 0.96066 0.20292 0.63175 0.0
C586 C 0.96867 0.21455 0.55915 0.0
C587 C 0.00402 0.22337 0.45063 0.0
C588 C 0.03092 0.22024 0.4151 0.0
C589 C -0.00406 0.2121 0.52371 0.0
C590 C 0.05035 0.20655 0.45367 0.0
C591 C 0.0426 0.19535 0.52652 0.0
H592 H 0.85399 0.83164 0.66818 0.0
H593 H 0.74292 0.79933 0.6849 0.0
H594 H 0.73898 0.81772 0.55718 0.0
H595 H 0.76869 0.84606 0.44336 0.0
H596 H 0.87985 0.87767 0.42772 0.0
H597 H 0.88278 0.85727 0.55299 0.0
C598 C 0.8289 0.82818 0.64291 0.0
C599 C 0.79888 0.81453 0.68495 0.0
C600 C 0.82713 0.83919 0.57043 0.0
C601 C 0.7664 0.8103 0.65303 0.0
C602 C 0.76421 0.82079 0.58037 0.0
C603 C 0.79325 0.84786 0.46712 0.0
C604 C 0.82394 0.86306 0.42666 0.0
C605 C 0.7946 0.83578 0.53894 0.0
C606 C 0.85603 0.8663 0.45858 0.0
C607 C 0.85764 0.85442 0.52975 0.0
H608 H 0.20086 0.05322 0.60825 0.0
H609 H 0.08965 0.96914 0.60939 0.0
H610 H 0.08887 0.94798 0.47812 0.0
H611 H 0.12035 0.95288 0.3636 0.0
H612 H 0.23118 0.03739 0.36115 0.0
H613 H 0.23246 0.05801 0.49354 0.0
C614 C 0.17671 0.03005 0.57981 0.0
C615 C 0.14548 0.01249 0.61812 0.0
C616 C 0.17661 0.01792 0.50466 0.0
C617 C 0.11391 0.98311 0.58036 0.0
C618 C 0.11354 0.97087 0.50572 0.0
C619 C 0.14452 0.97603 0.39219 0.0
C620 C 0.17541 0.99409 0.35322 0.0
C621 C 0.14474 0.98802 0.46739 0.0
C622 C 0.20713 0.02328 0.39079 0.0
C623 C 0.20776 0.03515 0.46599 0.0
H624 H 0.6106 0.5173 0.67673 0.0
H625 H 0.71604 0.5337 0.73687 0.0
H626 H 0.70545 0.53306 0.87153 0.0
H627 H 0.66568 0.52714 0.97127 0.0
H628 H 0.55957 0.50907 0.91086 0.0
H629 H 0.57098 0.51189 0.77666 0.0
C630 C 0.63153 0.52173 0.7196 0.0
C631 C 0.66442 0.52653 0.69768 0.0
C632 C 0.62488 0.52057 0.79632 0.0
C633 C 0.6908 0.53054 0.75318 0.0
C634 C 0.68465 0.52998 0.82978 0.0
C635 C 0.64479 0.52291 0.92852 0.0
C636 C 0.61141 0.51676 0.95035 0.0
C637 C 0.65163 0.5246 0.8519 0.0
C638 C 0.5852 0.51321 0.89483 0.0
C639 C 0.59177 0.51494 0.8184 0.0
H640 H 0.48654 0.13342 0.63683 0.0
H641 H 0.47678 0.22853 0.69224 0.0
H642 H 0.47521 0.21702 0.82663 0.0
H643 H 0.47712 0.17996 0.92769 0.0
H644 H 0.48851 0.08575 0.87285 0.0
H645 H 0.48797 0.09599 0.73807 0.0
C646 C 0.4831 0.15096 0.67821 0.0
C647 C 0.48082 0.18122 0.65501 0.0
C648 C 0.48288 0.14446 0.7551 0.0
C649 C 0.47806 0.20483 0.70929 0.0
C650 C 0.47731 0.19831 0.78582 0.0
C651 C 0.48039 0.16227 0.88642 0.0
C652 C 0.484 0.13281 0.91013 0.0
C653 C 0.48008 0.16842 0.80942 0.0
C654 C 0.48628 0.1089 0.85566 0.0
C655 C 0.48589 0.11472 0.77882 0.0
H656 H 0.80425 0.37431 0.70348 0.0
H657 H 0.84152 0.29661 0.69584 0.0
H658 H 0.86152 0.31171 0.83143 0.0
H659 H 0.86742 0.34674 0.95229 0.0
H660 H 0.83014 0.4244 0.95946 0.0
H661 H 0.81065 0.40967 0.82362 0.0
C662 C 0.81659 0.36065 0.73199 0.0
C663 C 0.82175 0.33465 0.69049 0.0
C664 C 0.82781 0.36947 0.80938 0.0
C665 C 0.83795 0.31714 0.72698 0.0
C666 C 0.84914 0.32564 0.80427 0.0
C667 C 0.85518 0.36042 0.92353 0.0
C668 C 0.84967 0.38619 0.96493 0.0
C669 C 0.84423 0.35179 0.84592 0.0
C670 C 0.83391 0.40402 0.92817 0.0
C671 C 0.82296 0.39569 0.85085 0.0
H672 H 0.36027 0.89546 0.30826 0.0
H673 H 0.25908 0.7975 0.23892 0.0
H674 H 0.2677 0.8101 0.10569 0.0
H675 H 0.3045 0.84894 0.00963 0.0
H676 H 0.40672 0.94586 0.07843 0.0
H677 H 0.39704 0.93456 0.21172 0.0
C678 C 0.33978 0.87749 0.26395 0.0
C679 C 0.30863 0.8461 0.28293 0.0
C680 C 0.34533 0.88465 0.18778 0.0
C681 C 0.28295 0.82202 0.22511 0.0
C682 C 0.28797 0.82918 0.14925 0.0
C683 C 0.325 0.86705 0.05372 0.0
C684 C 0.35682 0.89757 0.03435 0.0
C685 C 0.31922 0.86023 0.12991 0.0
C686 C 0.3823 0.92193 0.09227 0.0
C687 C 0.37672 0.91549 0.1683 0.0
H688 H 0.1405 0.48742 0.06628 0.0
H689 H 0.13742 0.58629 0.12313 0.0
H690 H 0.13552 0.57467 0.25747 0.0
H691 H 0.1352 0.53637 0.3581 0.0
H692 H 0.13973 0.43823 0.30158 0.0
H693 H 0.13963 0.44879 0.16689 0.0
C694 C 0.13842 0.5058 0.10796 0.0
C695 C 0.13813 0.53715 0.08516 0.0
C696 C 0.13798 0.49919 0.18479 0.0
C697 C 0.13715 0.56177 0.13985 0.0
C698 C 0.13622 0.55518 0.21636 0.0
C699 C 0.13708 0.51786 0.31646 0.0
C700 C 0.13861 0.48717 0.33964 0.0
C701 C 0.137 0.52417 0.23953 0.0
C702 C 0.13912 0.4623 0.28477 0.0
C703 C 0.13898 0.46831 0.20801 0.0
H704 H 0.45258 0.66515 0.3266 0.0
H705 H 0.56611 0.74384 0.35183 0.0
H706 H 0.57114 0.72885 0.21919 0.0
H707 H 0.54248 0.69373 0.09552 0.0
H708 H 0.42892 0.61531 0.07073 0.0
H709 H 0.42411 0.62979 0.20384 0.0
C710 C 0.47831 0.67902 0.30259 0.0
C711 C 0.50903 0.70525 0.34834 0.0
C712 C 0.48077 0.67035 0.22673 0.0
C713 C 0.54237 0.72307 0.31759 0.0
C714 C 0.54512 0.71466 0.24189 0.0
C715 C 0.51683 0.67985 0.11987 0.0
C716 C 0.48594 0.65392 0.07415 0.0
C717 C 0.51448 0.68834 0.19602 0.0
C718 C 0.45274 0.63582 0.10524 0.0
C719 C 0.45011 0.644 0.18105 0.0
loop_
_geom_bond_atom_site_label_1
_geom_bond_atom_site_label_2
_geom_bond_distance
_geom_bond_site_symmetry_2
_ccdc_geom_bond_type
Zn0 O1 2.055 1_455 S
Zn0 O8 2.046 1_455 S
Zn0 N16 2.036 . S
Zn0 O28 2.053 . S
Zn0 O30 2.066 . S
O1 Zn0 2.055 1_655 S
O1 C4 1.259 . S
C2 O30 1.256 . S
C2 O31 1.244 1_554 S
Zn3 O5 2.046 . S
Zn3 O7 2.055 . S
Zn3 N9 2.036 . S
Zn3 O27 2.066 1_655 S
Zn3 O31 2.053 1_655 S
C4 O1 1.259 . S
C4 O5 1.254 1_554 S
O5 Zn3 2.046 . S
O5 C4 1.254 1_556 S
C6 O27 1.256 1_554 S
C6 O28 1.244 . S
O7 Zn3 2.055 . S
O7 C29 1.259 1_556 S
O8 Zn0 2.046 1_655 S
O8 C29 1.254 . S
N9 Zn3 2.036 . S
N9 C10 1.298 . S
N9 N12 1.382 1_655 S
C10 N9 1.298 . S
C10 N13 1.367 . S
C10 C23 1.481 . S
C11 N12 1.299 . S
C11 N13 1.367 1_455 S
N12 N9 1.382 1_455 S
N12 C11 1.299 . S
N13 C10 1.367 . S
N13 C11 1.367 1_655 S
C14 N16 1.298 . S
C14 N18 1.367 . S
C14 C22 1.481 . S
C15 N17 1.299 . S
C15 N18 1.379 . S
N16 Zn0 2.036 . S
N16 C14 1.298 . S
N16 N17 1.398 . S
N17 C15 1.299 . S
N17 N16 1.398 . S
N18 C14 1.367 . S
N18 C15 1.379 . S
H19 C22 0.980 1_655 S
H20 C22 0.981 . S
H21 C22 0.981 . S
C22 C14 1.481 . S
C22 H19 0.980 1_455 S
C22 H20 0.981 . S
C22 H21 0.981 . S
C23 C10 1.481 . S
C23 H24 0.980 . S
C23 H25 0.981 . S
C23 H26 0.981 . S
H24 C23 0.980 . S
H25 C23 0.981 . S
H26 C23 0.981 . S
O27 Zn3 2.066 1_455 S
O27 C6 1.256 1_556 S
O28 Zn0 2.053 . S
O28 C6 1.244 . S
C29 O7 1.259 1_554 S
C29 O8 1.254 . S
O30 Zn0 2.066 . S
O30 C2 1.256 . S
O31 C2 1.244 1_556 S
O31 Zn3 2.053 1_455 S
Zn32 O33 2.055 . S
Zn32 O40 2.046 . S
Zn32 N48 2.036 . S
Zn32 O60 2.053 . S
Zn32 O62 2.066 . S
O33 Zn32 2.055 . S
O33 C36 1.259 . S
C34 O62 1.256 . S
C34 O63 1.244 1_554 S
Zn35 O37 2.046 . S
Zn35 O39 2.055 . S
Zn35 N41 2.036 . S
Zn35 O59 2.066 . S
Zn35 O63 2.053 . S
C36 O33 1.259 . S
C36 O37 1.254 1_554 S
O37 Zn35 2.046 . S
O37 C36 1.254 1_556 S
C38 O59 1.256 1_554 S
C38 O60 1.244 . S
O39 Zn35 2.055 . S
O39 C61 1.259 1_556 S
O40 Zn32 2.046 . S
O40 C61 1.254 . S
N41 Zn35 2.036 . S
N41 C42 1.298 . S
N41 N44 1.398 . S
C42 N41 1.298 . S
C42 N45 1.367 . S
C42 C55 1.481 . S
C43 N44 1.299 . S
C43 N45 1.379 . S
N44 N41 1.398 . S
N44 C43 1.299 . S
N45 C42 1.367 . S
N45 C43 1.379 . S
C46 N48 1.298 . S
C46 N50 1.367 . S
C46 C54 1.481 . S
C47 N49 1.299 . S
C47 N50 1.379 . S
N48 Zn32 2.036 . S
N48 C46 1.298 . S
N48 N49 1.398 . S
N49 C47 1.299 . S
N49 N48 1.398 . S
N50 C46 1.367 . S
N50 C47 1.379 . S
H51 C54 0.980 . S
H52 C54 0.981 . S
H53 C54 0.981 . S
C54 C46 1.481 . S
C54 H51 0.980 . S
C54 H52 0.981 . S
C54 H53 0.981 . S
C55 C42 1.481 . S
C55 H56 0.980 . S
C55 H57 0.981 . S
C55 H58 0.981 . S
H56 C55 0.980 . S
H57 C55 0.981 . S
H58 C55 0.981 . S
O59 Zn35 2.066 . S
O59 C38 1.256 1_556 S
O60 Zn32 2.053 . S
O60 C38 1.244 . S
C61 O39 1.259 1_554 S
C61 O40 1.254 . S
O62 Zn32 2.066 . S
O62 C34 1.256 . S
O63 C34 1.244 1_556 S
O63 Zn35 2.053 . S
Zn64 O65 2.055 . S
Zn64 O72 2.046 . S
Zn64 N80 2.036 . S
Zn64 O92 2.053 1_545 S
Zn64 O94 2.066 1_545 S
O65 Zn64 2.055 . S
O65 C68 1.259 1_556 S
C66 O94 1.256 . S
C66 O95 1.244 1_556 S
Zn67 O69 2.046 . S
Zn67 O71 2.055 . S
Zn67 N73 2.036 1_545 S
Zn67 O91 2.066 1_545 S
Zn67 O95 2.053 1_545 S
C68 O65 1.259 1_554 S
C68 O69 1.254 . S
O69 Zn67 2.046 . S
O69 C68 1.254 . S
C70 O91 1.256 1_556 S
C70 O92 1.244 . S
O71 Zn67 2.055 . S
O71 C93 1.259 . S
O72 Zn64 2.046 . S
O72 C93 1.254 1_556 S
N73 Zn67 2.036 1_565 S
N73 C74 1.307 . S
N73 N76 1.399 . S
C74 N73 1.307 . S
C74 N77 1.388 . S
C74 C87 1.456 1_565 S
C75 N76 1.299 . S
C75 N77 1.379 . S
N76 N73 1.399 . S
N76 C75 1.299 . S
N77 C74 1.388 . S
N77 C75 1.379 . S
C78 N80 1.298 . S
C78 N82 1.367 . S
C78 C86 1.481 . S
C79 N81 1.299 . S
C79 N82 1.379 . S
N80 Zn64 2.036 . S
N80 C78 1.298 . S
N80 N81 1.398 . S
N81 C79 1.299 . S
N81 N80 1.398 . S
N82 C78 1.367 . S
N82 C79 1.379 . S
H83 C86 0.980 . S
H84 C86 0.981 . S
H85 C86 0.981 . S
C86 C78 1.481 . S
C86 H83 0.980 . S
C86 H84 0.981 . S
C86 H85 0.981 . S
C87 C74 1.456 1_545 S
C87 H88 0.980 . S
C87 H89 0.981 . S
C87 H90 0.981 1_545 S
H88 C87 0.980 . S
H89 C87 0.981 . S
H90 C87 0.981 1_565 S
O91 Zn67 2.066 1_565 S
O91 C70 1.256 1_554 S
O92 Zn64 2.053 1_565 S
O92 C70 1.244 . S
C93 O71 1.259 . S
C93 O72 1.254 1_554 S
O94 Zn64 2.066 1_565 S
O94 C66 1.256 . S
O95 C66 1.244 1_554 S
O95 Zn67 2.053 1_565 S
Zn96 O97 2.055 . S
Zn96 O104 2.046 . S
Zn96 N112 2.036 . S
Zn96 O124 2.053 . S
Zn96 O126 2.066 . S
O97 Zn96 2.055 . S
O97 C100 1.259 . S
C98 O126 1.256 . S
C98 O127 1.244 . S
Zn99 O101 2.046 . S
Zn99 O103 2.055 . S
Zn99 N105 2.036 . S
Zn99 O123 2.066 . S
Zn99 O127 2.053 . S
C100 O97 1.259 . S
C100 O101 1.254 . S
O101 Zn99 2.046 . S
O101 C100 1.254 . S
C102 O123 1.256 . S
C102 O124 1.244 . S
O103 Zn99 2.055 . S
O103 C125 1.259 . S
O104 Zn96 2.046 . S
O104 C125 1.254 . S
N105 Zn99 2.036 . S
N105 C106 1.298 . S
N105 N108 1.398 . S
C106 N105 1.298 . S
C106 N109 1.367 . S
C106 C119 1.481 . S
C107 N108 1.299 . S
C107 N109 1.379 . S
N108 N105 1.398 . S
N108 C107 1.299 . S
N109 C106 1.367 . S
N109 C107 1.379 . S
C110 N112 1.298 . S
C110 N114 1.367 . S
C110 C118 1.481 . S
C111 N113 1.299 . S
C111 N114 1.379 . S
N112 Zn96 2.036 . S
N112 C110 1.298 . S
N112 N113 1.398 . S
N113 C111 1.299 . S
N113 N112 1.398 . S
N114 C110 1.367 . S
N114 C111 1.379 . S
H115 C118 0.980 . S
H116 C118 0.981 . S
H117 C118 0.981 . S
C118 C110 1.481 . S
C118 H115 0.980 . S
C118 H116 0.981 . S
C118 H117 0.981 . S
C119 C106 1.481 . S
C119 H120 0.980 . S
C119 H121 0.981 . S
C119 H122 0.981 . S
H120 C119 0.980 . S
H121 C119 0.981 . S
H122 C119 0.981 . S
O123 Zn99 2.066 . S
O123 C102 1.256 . S
O124 Zn96 2.053 . S
O124 C102 1.244 . S
C125 O103 1.259 . S
C125 O104 1.254 . S
O126 Zn96 2.066 . S
O126 C98 1.256 . S
O127 C98 1.244 . S
O127 Zn99 2.053 . S
Zn128 O129 2.055 . S
Zn128 O136 2.046 . S
Zn128 N144 2.036 . S
Zn128 O156 2.053 . S
Zn128 O158 2.066 . S
O129 Zn128 2.055 . S
O129 C132 1.259 . S
C130 O158 1.256 . S
C130 O159 1.244 . S
Zn131 O133 2.046 . S
Zn131 O135 2.055 . S
Zn131 N137 2.036 . S
Zn131 O155 2.066 . S
Zn131 O159 2.053 . S
C132 O129 1.259 . S
C132 O133 1.254 . S
O133 Zn131 2.046 . S
O133 C132 1.254 . S
C134 O155 1.256 . S
C134 O156 1.244 . S
O135 Zn131 2.055 . S
O135 C157 1.259 . S
O136 Zn128 2.046 . S
O136 C157 1.254 . S
N137 Zn131 2.036 . S
N137 C138 1.298 . S
N137 N140 1.398 . S
C138 N137 1.298 . S
C138 N141 1.367 1_554 S
C138 C151 1.481 . S
C139 N140 1.299 1_556 S
C139 N141 1.379 . S
N140 N137 1.398 . S
N140 C139 1.299 1_554 S
N141 C138 1.367 1_556 S
N141 C139 1.379 . S
C142 N144 1.298 . S
C142 N146 1.367 . S
C142 C150 1.481 . S
C143 N145 1.299 . S
C143 N146 1.379 . S
N144 Zn128 2.036 . S
N144 C142 1.298 . S
N144 N145 1.398 . S
N145 C143 1.299 . S
N145 N144 1.398 . S
N146 C142 1.367 . S
N146 C143 1.379 . S
H147 C150 0.980 . S
H148 C150 0.981 . S
H149 C150 0.981 . S
C150 C142 1.481 . S
C150 H147 0.980 . S
C150 H148 0.981 . S
C150 H149 0.981 . S
C151 C138 1.481 . S
C151 H152 0.980 . S
C151 H153 0.981 1_554 S
C151 H154 0.981 . S
H152 C151 0.980 . S
H153 C151 0.981 1_556 S
H154 C151 0.981 . S
O155 Zn131 2.066 . S
O155 C134 1.256 . S
O156 Zn128 2.053 . S
O156 C134 1.244 . S
C157 O135 1.259 . S
C157 O136 1.254 . S
O158 Zn128 2.066 . S
O158 C130 1.256 . S
O159 C130 1.244 . S
O159 Zn131 2.053 . S
Zn160 O161 2.055 . S
Zn160 O168 2.046 . S
Zn160 N176 2.036 . S
Zn160 O188 2.053 . S
Zn160 O190 2.066 . S
O161 Zn160 2.055 . S
O161 C164 1.259 . S
C162 O190 1.256 . S
C162 O191 1.244 . S
Zn163 O165 2.046 . S
Zn163 O167 2.055 . S
Zn163 N169 2.036 . S
Zn163 O187 2.066 . S
Zn163 O191 2.053 . S
C164 O161 1.259 . S
C164 O165 1.254 . S
O165 Zn163 2.046 . S
O165 C164 1.254 . S
C166 O187 1.256 . S
C166 O188 1.244 . S
O167 Zn163 2.055 . S
O167 C189 1.259 . S
O168 Zn160 2.046 . S
O168 C189 1.254 . S
N169 Zn163 2.036 . S
N169 C170 1.298 . S
N169 N172 1.398 . S
C170 N169 1.298 . S
C170 N173 1.367 . S
C170 C183 1.481 . S
C171 N172 1.299 . S
C171 N173 1.379 . S
N172 N169 1.398 . S
N172 C171 1.299 . S
N173 C170 1.367 . S
N173 C171 1.379 . S
C174 N176 1.298 . S
C174 N178 1.367 . S
C174 C182 1.481 . S
C175 N177 1.299 . S
C175 N178 1.379 . S
N176 Zn160 2.036 . S
N176 C174 1.298 . S
N176 N177 1.398 . S
N177 C175 1.299 . S
N177 N176 1.398 . S
N178 C174 1.367 . S
N178 C175 1.379 . S
H179 C182 0.980 . S
H180 C182 0.981 . S
H181 C182 0.981 . S
C182 C174 1.481 . S
C182 H179 0.980 . S
C182 H180 0.981 . S
C182 H181 0.981 . S
C183 C170 1.481 . S
C183 H184 0.980 . S
C183 H185 0.981 . S
C183 H186 0.981 . S
H184 C183 0.980 . S
H185 C183 0.981 . S
H186 C183 0.981 . S
O187 Zn163 2.066 . S
O187 C166 1.256 . S
O188 Zn160 2.053 . S
O188 C166 1.244 . S
C189 O167 1.259 . S
C189 O168 1.254 . S
O190 Zn160 2.066 . S
O190 C162 1.256 . S
O191 C162 1.244 . S
O191 Zn163 2.053 . S
Zn192 O193 2.055 . S
Zn192 O200 2.046 . S
Zn192 N208 2.036 . S
Zn192 O220 2.053 . S
Zn192 O222 2.066 . S
O193 Zn192 2.055 . S
O193 C196 1.259 . S
C194 O222 1.256 . S
C194 O223 1.244 . S
Zn195 O197 2.046 . S
Zn195 O199 2.055 . S
Zn195 N201 2.036 . S
Zn195 O219 2.066 . S
Zn195 O223 2.053 . S
C196 O193 1.259 . S
C196 O197 1.254 . S
O197 Zn195 2.046 . S
O197 C196 1.254 . S
C198 O219 1.256 . S
C198 O220 1.244 . S
O199 Zn195 2.055 . S
O199 C221 1.259 . S
O200 Zn192 2.046 . S
O200 C221 1.254 . S
N201 Zn195 2.036 . S
N201 C202 1.298 . S
N201 N204 1.398 . S
C202 N201 1.298 . S
C202 N205 1.367 . S
C202 C215 1.481 . S
C203 N204 1.299 . S
C203 N205 1.379 . S
N204 N201 1.398 . S
N204 C203 1.299 . S
N205 C202 1.367 . S
N205 C203 1.379 . S
C206 N208 1.298 . S
C206 N210 1.367 . S
C206 C214 1.481 . S
C207 N209 1.299 . S
C207 N210 1.379 . S
N208 Zn192 2.036 . S
N208 C206 1.298 . S
N208 N209 1.398 . S
N209 C207 1.299 . S
N209 N208 1.398 . S
N210 C206 1.367 . S
N210 C207 1.379 . S
H211 C214 0.980 . S
H212 C214 0.981 . S
H213 C214 0.981 . S
C214 C206 1.481 . S
C214 H211 0.980 . S
C214 H212 0.981 . S
C214 H213 0.981 . S
C215 C202 1.481 . S
C215 H216 0.980 . S
C215 H217 0.981 . S
C215 H218 0.981 . S
H216 C215 0.980 . S
H217 C215 0.981 . S
H218 C215 0.981 . S
O219 Zn195 2.066 . S
O219 C198 1.256 . S
O220 Zn192 2.053 . S
O220 C198 1.244 . S
C221 O199 1.259 . S
C221 O200 1.254 . S
O222 Zn192 2.066 . S
O222 C194 1.256 . S
O223 C194 1.244 . S
O223 Zn195 2.053 . S
Zn224 O225 2.055 . S
Zn224 O232 2.046 . S
Zn224 N240 2.036 . S
Zn224 O252 2.053 . S
Zn224 O254 2.066 . S
O225 Zn224 2.055 . S
O225 C228 1.259 . S
C226 O254 1.256 . S
C226 O255 1.244 . S
Zn227 O229 2.046 . S
Zn227 O231 2.055 . S
Zn227 N233 2.036 . S
Zn227 O251 2.066 . S
Zn227 O255 2.053 . S
C228 O225 1.259 . S
C228 O229 1.254 . S
O229 Zn227 2.046 . S
O229 C228 1.254 . S
C230 O251 1.256 . S
C230 O252 1.244 . S
O231 Zn227 2.055 . S
O231 C253 1.259 . S
O232 Zn224 2.046 . S
O232 C253 1.254 . S
N233 Zn227 2.036 . S
N233 C234 1.298 . S
N233 N236 1.398 . S
C234 N233 1.298 . S
C234 N237 1.367 . S
C234 C247 1.481 . S
C235 N236 1.299 . S
C235 N237 1.379 . S
N236 N233 1.398 . S
N236 C235 1.299 . S
N237 C234 1.367 . S
N237 C235 1.379 . S
C238 N240 1.298 . S
C238 N242 1.367 1_556 S
C238 C246 1.481 . S
C239 N241 1.299 1_554 S
C239 N242 1.379 . S
N240 Zn224 2.036 . S
N240 C238 1.298 . S
N240 N241 1.398 . S
N241 C239 1.299 1_556 S
N241 N240 1.398 . S
N242 C238 1.367 1_554 S
N242 C239 1.379 . S
H243 C246 0.980 . S
H244 C246 0.981 . S
H245 C246 0.981 . S
C246 C238 1.481 . S
C246 H243 0.980 . S
C246 H244 0.981 . S
C246 H245 0.981 . S
C247 C234 1.481 . S
C247 H248 0.980 . S
C247 H249 0.981 . S
C247 H250 0.981 . S
H248 C247 0.980 . S
H249 C247 0.981 . S
H250 C247 0.981 . S
O251 Zn227 2.066 . S
O251 C230 1.256 . S
O252 Zn224 2.053 . S
O252 C230 1.244 . S
C253 O231 1.259 . S
C253 O232 1.254 . S
O254 Zn224 2.066 . S
O254 C226 1.256 . S
O255 C226 1.244 . S
O255 Zn227 2.053 . S
Zn256 O257 2.055 . S
Zn256 O264 2.046 . S
Zn256 N272 2.036 . S
Zn256 O284 2.053 . S
Zn256 O286 2.066 . S
O257 Zn256 2.055 . S
O257 C260 1.259 . S
C258 O286 1.256 . S
C258 O287 1.244 . S
Zn259 O261 2.046 . S
Zn259 O263 2.055 . S
Zn259 N265 2.036 . S
Zn259 O283 2.066 . S
Zn259 O287 2.053 . S
C260 O257 1.259 . S
C260 O261 1.254 . S
O261 Zn259 2.046 . S
O261 C260 1.254 . S
C262 O283 1.256 . S
C262 O284 1.244 . S
O263 Zn259 2.055 . S
O263 C285 1.259 . S
O264 Zn256 2.046 . S
O264 C285 1.254 . S
N265 Zn259 2.036 . S
N265 C266 1.298 . S
N265 N268 1.398 . S
C266 N265 1.298 . S
C266 N269 1.367 . S
C266 C279 1.481 . S
C267 N268 1.299 . S
C267 N269 1.379 . S
N268 N265 1.398 . S
N268 C267 1.299 . S
N269 C266 1.367 . S
N269 C267 1.379 . S
C270 N272 1.298 . S
C270 N274 1.373 . S
C270 C278 1.481 . S
C271 N273 1.299 . S
C271 N274 1.381 . S
N272 Zn256 2.036 . S
N272 C270 1.298 . S
N272 N273 1.398 . S
N273 C271 1.299 . S
N273 N272 1.398 . S
N274 C270 1.373 . S
N274 C271 1.381 . S
H275 C278 0.980 . S
H276 C278 0.981 . S
H277 C278 0.981 . S
C278 C270 1.481 . S
C278 H275 0.980 . S
C278 H276 0.981 . S
C278 H277 0.981 . S
C279 C266 1.481 . S
C279 H280 0.980 . S
C279 H281 0.981 . S
C279 H282 0.981 . S
H280 C279 0.980 . S
H281 C279 0.981 . S
H282 C279 0.981 . S
O283 Zn259 2.066 . S
O283 C262 1.256 . S
O284 Zn256 2.053 . S
O284 C262 1.244 . S
C285 O263 1.259 . S
C285 O264 1.254 . S
O286 Zn256 2.066 . S
O286 C258 1.256 . S
O287 C258 1.244 . S
O287 Zn259 2.053 . S
H288 C294 0.930 . S
H289 C297 0.930 . S
H290 C298 0.930 . S
H291 C299 0.930 . S
H292 C302 0.930 . S
H293 C303 0.930 . S
C294 H288 0.930 . S
C294 C295 1.355 . S
C294 C296 1.415 . S
C295 C294 1.355 . S
C295 C297 1.419 . S
C296 C294 1.415 . S
C296 C301 1.425 . S
C296 C303 1.409 . S
C297 H289 0.930 . S
C297 C295 1.419 . S
C297 C298 1.362 . S
C298 H290 0.930 . S
C298 C297 1.362 . S
C298 C301 1.409 . S
C299 H291 0.930 . S
C299 C300 1.355 . S
C299 C301 1.415 . S
C300 C299 1.355 . S
C300 C302 1.419 . S
C301 C296 1.425 . S
C301 C298 1.409 . S
C301 C299 1.415 . S
C302 H292 0.930 . S
C302 C300 1.419 . S
C302 C303 1.362 . S
C303 H293 0.930 . S
C303 C296 1.409 . S
C303 C302 1.362 . S
H304 C310 0.930 . S
H305 C313 0.930 . S
H306 C314 0.930 . S
H307 C315 0.930 . S
H308 C318 0.930 . S
H309 C319 0.930 . S
C310 H304 0.930 . S
C310 C311 1.355 . S
C310 C312 1.415 . S
C311 C310 1.355 . S
C311 C313 1.419 1_556 S
C312 C310 1.415 . S
C312 C317 1.425 . S
C312 C319 1.409 . S
C313 H305 0.930 . S
C313 C311 1.419 1_554 S
C313 C314 1.362 1_554 S
C314 H306 0.930 . S
C314 C313 1.362 1_556 S
C314 C317 1.409 . S
C315 H307 0.930 . S
C315 C316 1.355 . S
C315 C317 1.415 . S
C316 C315 1.355 . S
C316 C318 1.419 . S
C317 C312 1.425 . S
C317 C314 1.409 . S
C317 C315 1.415 . S
C318 H308 0.930 . S
C318 C316 1.419 . S
C318 C319 1.362 . S
C319 H309 0.930 . S
C319 C312 1.409 . S
C319 C318 1.362 . S
H320 C326 0.930 . S
H321 C329 0.930 . S
H322 C330 0.930 . S
H323 C331 0.930 . S
H324 C334 0.930 . S
H325 C335 0.930 . S
C326 H320 0.930 . S
C326 C327 1.355 . S
C326 C328 1.415 . S
C327 C326 1.355 . S
C327 C329 1.419 . S
C328 C326 1.415 . S
C328 C333 1.425 . S
C328 C335 1.409 . S
C329 H321 0.930 . S
C329 C327 1.419 . S
C329 C330 1.362 . S
C330 H322 0.930 . S
C330 C329 1.362 . S
C330 C333 1.409 . S
C331 H323 0.930 . S
C331 C332 1.355 . S
C331 C333 1.415 . S
C332 C331 1.355 . S
C332 C334 1.419 . S
C333 C328 1.425 . S
C333 C330 1.409 . S
C333 C331 1.415 . S
C334 H324 0.930 . S
C334 C332 1.419 . S
C334 C335 1.362 . S
C335 H325 0.930 . S
C335 C328 1.409 . S
C335 C334 1.362 . S
H336 C342 0.930 . S
H337 C345 0.930 . S
H338 C346 0.930 . S
H339 C347 0.930 . S
H340 C350 0.930 . S
H341 C351 0.930 . S
C342 H336 0.930 . S
C342 C343 1.355 . S
C342 C344 1.415 . S
C343 C342 1.355 . S
C343 C345 1.419 . S
C344 C342 1.415 . S
C344 C349 1.425 . S
C344 C351 1.409 . S
C345 H337 0.930 . S
C345 C343 1.419 . S
C345 C346 1.362 . S
C346 H338 0.930 . S
C346 C345 1.362 . S
C346 C349 1.409 . S
C347 H339 0.930 . S
C347 C348 1.355 . S
C347 C349 1.415 . S
C348 C347 1.355 . S
C348 C350 1.419 . S
C349 C344 1.425 . S
C349 C346 1.409 . S
C349 C347 1.415 . S
C350 H340 0.930 . S
C350 C348 1.419 . S
C350 C351 1.362 . S
C351 H341 0.930 . S
C351 C344 1.409 . S
C351 C350 1.362 . S
H352 C358 0.930 . S
H353 C361 0.930 . S
H354 C362 0.930 . S
H355 C363 0.930 . S
H356 C366 0.930 . S
H357 C367 0.930 . S
C358 H352 0.930 . S
C358 C359 1.355 . S
C358 C360 1.415 . S
C359 C358 1.355 . S
C359 C361 1.419 . S
C360 C358 1.415 . S
C360 C365 1.425 . S
C360 C367 1.409 . S
C361 H353 0.930 . S
C361 C359 1.419 . S
C361 C362 1.362 . S
C362 H354 0.930 . S
C362 C361 1.362 . S
C362 C365 1.409 . S
C363 H355 0.930 . S
C363 C364 1.355 . S
C363 C365 1.415 . S
C364 C363 1.355 . S
C364 C366 1.419 . S
C365 C360 1.425 . S
C365 C362 1.409 . S
C365 C363 1.415 . S
C366 H356 0.930 . S
C366 C364 1.419 . S
C366 C367 1.362 . S
C367 H357 0.930 . S
C367 C360 1.409 . S
C367 C366 1.362 . S
H368 C374 0.930 . S
H369 C377 0.929 1_556 S
H370 C378 0.930 . S
H371 C379 0.930 . S
H372 C382 0.930 . S
H373 C383 0.930 . S
C374 H368 0.930 . S
C374 C375 1.355 . S
C374 C376 1.415 . S
C375 C374 1.355 . S
C375 C377 1.419 . S
C376 C374 1.415 . S
C376 C381 1.425 . S
C376 C383 1.409 . S
C377 H369 0.929 1_554 S
C377 C375 1.419 . S
C377 C378 1.362 . S
C378 H370 0.930 . S
C378 C377 1.362 . S
C378 C381 1.409 . S
C379 H371 0.930 . S
C379 C380 1.355 . S
C379 C381 1.415 . S
C380 C379 1.355 . S
C380 C382 1.419 . S
C381 C376 1.425 . S
C381 C378 1.409 . S
C381 C379 1.415 . S
C382 H372 0.930 . S
C382 C380 1.419 . S
C382 C383 1.362 . S
C383 H373 0.930 . S
C383 C376 1.409 . S
C383 C382 1.362 . S
H384 C390 0.930 . S
H385 C393 0.930 . S
H386 C394 0.930 . S
H387 C395 0.930 . S
H388 C398 0.930 . S
H389 C399 0.930 . S
C390 H384 0.930 . S
C390 C391 1.355 . S
C390 C392 1.415 . S
C391 C390 1.355 . S
C391 C393 1.419 . S
C392 C390 1.415 . S
C392 C397 1.425 1_455 S
C392 C399 1.409 . S
C393 H385 0.930 . S
C393 C391 1.419 . S
C393 C394 1.362 1_455 S
C394 H386 0.930 . S
C394 C393 1.362 1_655 S
C394 C397 1.409 . S
C395 H387 0.930 . S
C395 C396 1.355 . S
C395 C397 1.415 . S
C396 C395 1.355 . S
C396 C398 1.419 . S
C397 C392 1.425 1_655 S
C397 C394 1.409 . S
C397 C395 1.415 . S
C398 H388 0.930 . S
C398 C396 1.419 . S
C398 C399 1.362 1_655 S
C399 H389 0.930 . S
C399 C392 1.409 . S
C399 C398 1.362 1_455 S
H400 C406 0.930 . S
H401 C409 0.930 . S
H402 C410 0.930 . S
H403 C411 0.930 . S
H404 C414 0.930 . S
H405 C415 0.930 . S
C406 H400 0.930 . S
C406 C407 1.355 . S
C406 C408 1.415 . S
C407 C406 1.355 . S
C407 C409 1.419 . S
C408 C406 1.415 . S
C408 C413 1.425 . S
C408 C415 1.409 . S
C409 H401 0.930 . S
C409 C407 1.419 . S
C409 C410 1.362 . S
C410 H402 0.930 . S
C410 C409 1.362 . S
C410 C413 1.409 . S
C411 H403 0.930 . S
C411 C412 1.355 . S
C411 C413 1.415 . S
C412 C411 1.355 . S
C412 C414 1.419 . S
C413 C408 1.425 . S
C413 C410 1.409 . S
C413 C411 1.415 . S
C414 H404 0.930 . S
C414 C412 1.419 . S
C414 C415 1.362 . S
C415 H405 0.930 . S
C415 C408 1.409 . S
C415 C414 1.362 . S
H416 C422 0.930 . S
H417 C425 0.930 . S
H418 C426 0.930 . S
H419 C427 0.930 . S
H420 C430 0.930 . S
H421 C431 0.930 . S
C422 H416 0.930 . S
C422 C423 1.355 . S
C422 C424 1.415 . S
C423 C422 1.355 . S
C423 C425 1.419 . S
C424 C422 1.415 . S
C424 C429 1.425 . S
C424 C431 1.409 1_545 S
C425 H417 0.930 . S
C425 C423 1.419 . S
C425 C426 1.362 . S
C426 H418 0.930 . S
C426 C425 1.362 . S
C426 C429 1.409 . S
C427 H419 0.930 . S
C427 C428 1.355 1_545 S
C427 C429 1.415 . S
C428 C427 1.355 1_565 S
C428 C430 1.419 . S
C429 C424 1.425 . S
C429 C426 1.409 . S
C429 C427 1.415 . S
C430 H420 0.930 . S
C430 C428 1.419 . S
C430 C431 1.362 . S
C431 H421 0.930 . S
C431 C424 1.409 1_565 S
C431 C430 1.362 . S
H432 C438 0.930 . S
H433 C441 0.930 . S
H434 C442 0.930 . S
H435 C443 0.930 . S
H436 C446 0.930 . S
H437 C447 0.930 . S
C438 H432 0.930 . S
C438 C439 1.355 . S
C438 C440 1.415 . S
C439 C438 1.355 . S
C439 C441 1.419 . S
C440 C438 1.415 . S
C440 C445 1.425 . S
C440 C447 1.409 . S
C441 H433 0.930 . S
C441 C439 1.419 . S
C441 C442 1.362 . S
C442 H434 0.930 . S
C442 C441 1.362 . S
C442 C445 1.409 . S
C443 H435 0.930 . S
C443 C444 1.355 . S
C443 C445 1.415 . S
C444 C443 1.355 . S
C444 C446 1.419 . S
C445 C440 1.425 . S
C445 C442 1.409 . S
C445 C443 1.415 . S
C446 H436 0.930 . S
C446 C444 1.419 . S
C446 C447 1.362 . S
C447 H437 0.930 . S
C447 C440 1.409 . S
C447 C446 1.362 . S
H448 C454 0.930 . S
H449 C457 0.930 . S
H450 C458 0.930 . S
H451 C459 0.930 . S
H452 C462 0.930 . S
H453 C463 0.930 . S
C454 H448 0.930 . S
C454 C455 1.355 1_556 S
C454 C456 1.415 1_566 S
C455 C454 1.355 1_554 S
C455 C457 1.419 . S
C456 C454 1.415 1_544 S
C456 C461 1.425 . S
C456 C463 1.409 1_554 S
C457 H449 0.930 . S
C457 C455 1.419 . S
C457 C458 1.362 1_565 S
C458 H450 0.930 . S
C458 C457 1.362 1_545 S
C458 C461 1.409 . S
C459 H451 0.930 . S
C459 C460 1.355 . S
C459 C461 1.415 . S
C460 C459 1.355 . S
C460 C462 1.419 1_554 S
C461 C456 1.425 . S
C461 C458 1.409 . S
C461 C459 1.415 . S
C462 H452 0.930 . S
C462 C460 1.419 1_556 S
C462 C463 1.362 . S
C463 H453 0.930 . S
C463 C456 1.409 1_556 S
C463 C462 1.362 . S
H464 C470 0.930 . S
H465 C473 0.930 . S
H466 C474 0.930 . S
H467 C475 0.930 . S
H468 C478 0.930 . S
H469 C479 0.930 . S
C470 H464 0.930 . S
C470 C471 1.355 . S
C470 C472 1.415 . S
C471 C470 1.355 . S
C471 C473 1.419 1_554 S
C472 C470 1.415 . S
C472 C477 1.426 1_654 S
C472 C479 1.409 1_655 S
C473 H465 0.930 . S
C473 C471 1.419 1_556 S
C473 C474 1.362 . S
C474 H466 0.930 . S
C474 C473 1.362 . S
C474 C477 1.404 1_655 S
C475 H467 0.930 . S
C475 C476 1.355 1_556 S
C475 C477 1.420 . S
C476 C475 1.355 1_554 S
C476 C478 1.419 . S
C477 C472 1.426 1_456 S
C477 C474 1.404 1_455 S
C477 C475 1.420 . S
C478 H468 0.930 . S
C478 C476 1.419 . S
C478 C479 1.362 . S
C479 H469 0.930 . S
C479 C472 1.409 1_455 S
C479 C478 1.362 . S
H480 C486 0.930 . S
H481 C489 0.930 . S
H482 C490 0.930 . S
H483 C491 0.930 . S
H484 C494 0.930 . S
H485 C495 0.930 . S
C486 H480 0.930 . S
C486 C487 1.355 . S
C486 C488 1.415 . S
C487 C486 1.355 . S
C487 C489 1.419 . S
C488 C486 1.415 . S
C488 C493 1.425 . S
C488 C495 1.409 . S
C489 H481 0.930 . S
C489 C487 1.419 . S
C489 C490 1.362 . S
C490 H482 0.930 . S
C490 C489 1.362 . S
C490 C493 1.409 . S
C491 H483 0.930 . S
C491 C492 1.355 . S
C491 C493 1.415 . S
C492 C491 1.355 . S
C492 C494 1.419 . S
C493 C488 1.425 . S
C493 C490 1.409 . S
C493 C491 1.415 . S
C494 H484 0.930 . S
C494 C492 1.419 . S
C494 C495 1.362 . S
C495 H485 0.930 . S
C495 C488 1.409 . S
C495 C494 1.362 . S
H496 C502 0.930 . S
H497 C505 0.930 . S
H498 C506 0.930 . S
H499 C507 0.930 . S
H500 C510 0.930 . S
H501 C511 0.930 . S
C502 H496 0.930 . S
C502 C503 1.355 . S
C502 C504 1.415 . S
C503 C502 1.355 . S
C503 C505 1.419 . S
C504 C502 1.415 . S
C504 C509 1.425 . S
C504 C511 1.409 . S
C505 H497 0.930 . S
C505 C503 1.419 . S
C505 C506 1.362 . S
C506 H498 0.930 . S
C506 C505 1.362 . S
C506 C509 1.409 . S
C507 H499 0.930 . S
C507 C508 1.355 . S
C507 C509 1.415 . S
C508 C507 1.355 . S
C508 C510 1.419 . S
C509 C504 1.425 . S
C509 C506 1.409 . S
C509 C507 1.415 . S
C510 H500 0.930 . S
C510 C508 1.419 . S
C510 C511 1.362 . S
C511 H501 0.930 . S
C511 C504 1.409 . S
C511 C510 1.362 . S
H512 C518 0.930 . S
H513 C521 0.930 . S
H514 C522 0.930 . S
H515 C523 0.930 . S
H516 C526 0.930 . S
H517 C527 0.930 . S
C518 H512 0.930 . S
C518 C519 1.355 . S
C518 C520 1.415 . S
C519 C518 1.355 . S
C519 C521 1.419 . S
C520 C518 1.415 . S
C520 C525 1.425 . S
C520 C527 1.409 . S
C521 H513 0.930 . S
C521 C519 1.419 . S
C521 C522 1.362 . S
C522 H514 0.930 . S
C522 C521 1.362 . S
C522 C525 1.409 . S
C523 H515 0.930 . S
C523 C524 1.355 . S
C523 C525 1.415 . S
C524 C523 1.355 . S
C524 C526 1.419 . S
C525 C520 1.425 . S
C525 C522 1.409 . S
C525 C523 1.415 . S
C526 H516 0.930 . S
C526 C524 1.419 . S
C526 C527 1.362 . S
C527 H517 0.930 . S
C527 C520 1.409 . S
C527 C526 1.362 . S
H528 C534 0.930 . S
H529 C537 0.930 . S
H530 C538 0.930 . S
H531 C539 0.930 . S
H532 C542 0.930 . S
H533 C543 0.930 . S
C534 H528 0.930 . S
C534 C535 1.355 . S
C534 C536 1.415 . S
C535 C534 1.355 . S
C535 C537 1.419 . S
C536 C534 1.415 . S
C536 C541 1.425 . S
C536 C543 1.409 . S
C537 H529 0.930 . S
C537 C535 1.419 . S
C537 C538 1.362 . S
C538 H530 0.930 . S
C538 C537 1.362 . S
C538 C541 1.409 . S
C539 H531 0.930 . S
C539 C540 1.355 . S
C539 C541 1.415 . S
C540 C539 1.355 . S
C540 C542 1.419 . S
C541 C536 1.425 . S
C541 C538 1.409 . S
C541 C539 1.415 . S
C542 H532 0.930 . S
C542 C540 1.419 . S
C542 C543 1.362 . S
C543 H533 0.930 . S
C543 C536 1.409 . S
C543 C542 1.362 . S
H544 C550 0.930 . S
H545 C553 0.930 . S
H546 C554 0.930 . S
H547 C555 0.930 . S
H548 C558 0.930 . S
H549 C559 0.930 . S
C550 H544 0.930 . S
C550 C551 1.355 . S
C550 C552 1.415 . S
C551 C550 1.355 . S
C551 C553 1.419 . S
C552 C550 1.415 . S
C552 C557 1.425 . S
C552 C559 1.409 . S
C553 H545 0.930 . S
C553 C551 1.419 . S
C553 C554 1.362 . S
C554 H546 0.930 . S
C554 C553 1.362 . S
C554 C557 1.409 . S
C555 H547 0.930 . S
C555 C556 1.355 . S
C555 C557 1.415 . S
C556 C555 1.355 . S
C556 C558 1.419 . S
C557 C552 1.425 . S
C557 C554 1.409 . S
C557 C555 1.415 . S
C558 H548 0.930 . S
C558 C556 1.419 . S
C558 C559 1.362 . S
C559 H549 0.930 . S
C559 C552 1.409 . S
C559 C558 1.362 . S
H560 C566 0.930 . S
H561 C569 0.930 . S
H562 C570 0.930 . S
H563 C571 0.930 . S
H564 C574 0.930 . S
H565 C575 0.930 . S
C566 H560 0.930 . S
C566 C567 1.355 . S
C566 C568 1.415 . S
C567 C566 1.355 . S
C567 C569 1.419 . S
C568 C566 1.415 . S
C568 C573 1.425 . S
C568 C575 1.409 . S
C569 H561 0.930 . S
C569 C567 1.419 . S
C569 C570 1.362 . S
C570 H562 0.930 . S
C570 C569 1.362 . S
C570 C573 1.409 . S
C571 H563 0.930 . S
C571 C572 1.355 . S
C571 C573 1.415 . S
C572 C571 1.355 . S
C572 C574 1.419 . S
C573 C568 1.425 . S
C573 C570 1.409 . S
C573 C571 1.415 . S
C574 H564 0.930 . S
C574 C572 1.419 . S
C574 C575 1.362 . S
C575 H565 0.930 . S
C575 C568 1.409 . S
C575 C574 1.362 . S
H576 C582 0.930 . S
H577 C585 0.930 . S
H578 C586 0.930 . S
H579 C587 0.930 . S
H580 C590 0.930 . S
H581 C591 0.930 . S
C582 H576 0.930 . S
C582 C583 1.355 1_455 S
C582 C584 1.415 . S
C583 C582 1.355 1_655 S
C583 C585 1.419 . S
C584 C582 1.415 . S
C584 C589 1.425 . S
C584 C591 1.409 . S
C585 H577 0.930 . S
C585 C583 1.419 . S
C585 C586 1.362 1_655 S
C586 H578 0.930 . S
C586 C585 1.362 1_455 S
C586 C589 1.409 . S
C587 H579 0.930 . S
C587 C588 1.355 . S
C587 C589 1.415 . S
C588 C587 1.355 . S
C588 C590 1.419 . S
C589 C584 1.425 . S
C589 C586 1.409 . S
C589 C587 1.415 . S
C590 H580 0.930 . S
C590 C588 1.419 . S
C590 C591 1.362 . S
C591 H581 0.930 . S
C591 C584 1.409 . S
C591 C590 1.362 . S
H592 C598 0.930 . S
H593 C601 0.930 . S
H594 C602 0.930 . S
H595 C603 0.930 . S
H596 C606 0.930 . S
H597 C607 0.930 . S
C598 H592 0.930 . S
C598 C599 1.355 . S
C598 C600 1.415 . S
C599 C598 1.355 . S
C599 C601 1.419 . S
C600 C598 1.415 . S
C600 C605 1.425 . S
C600 C607 1.409 . S
C601 H593 0.930 . S
C601 C599 1.419 . S
C601 C602 1.362 . S
C602 H594 0.930 . S
C602 C601 1.362 . S
C602 C605 1.409 . S
C603 H595 0.930 . S
C603 C604 1.355 . S
C603 C605 1.415 . S
C604 C603 1.355 . S
C604 C606 1.419 . S
C605 C600 1.425 . S
C605 C602 1.409 . S
C605 C603 1.415 . S
C606 H596 0.930 . S
C606 C604 1.419 . S
C606 C607 1.362 . S
C607 H597 0.930 . S
C607 C600 1.409 . S
C607 C606 1.362 . S
H608 C614 0.930 . S
H609 C617 0.927 . S
H610 C618 0.930 . S
H611 C619 0.930 . S
H612 C622 0.926 . S
H613 C623 0.930 . S
C614 H608 0.930 . S
C614 C615 1.355 . S
C614 C616 1.415 . S
C615 C614 1.355 . S
C615 C617 1.418 1_545 S
C616 C614 1.415 . S
C616 C621 1.425 1_545 S
C616 C623 1.409 . S
C617 H609 0.927 . S
C617 C615 1.418 1_565 S
C617 C618 1.367 . S
C618 H610 0.930 . S
C618 C617 1.367 . S
C618 C621 1.409 . S
C619 H611 0.930 . S
C619 C620 1.355 . S
C619 C621 1.415 . S
C620 C619 1.355 . S
C620 C622 1.418 1_565 S
C621 C616 1.425 1_565 S
C621 C618 1.409 . S
C621 C619 1.415 . S
C622 H612 0.926 . S
C622 C620 1.418 1_545 S
C622 C623 1.368 . S
C623 H613 0.930 . S
C623 C616 1.409 . S
C623 C622 1.368 . S
H624 C630 0.930 . S
H625 C633 0.930 . S
H626 C634 0.930 . S
H627 C635 0.930 . S
H628 C638 0.930 . S
H629 C639 0.930 . S
C630 H624 0.930 . S
C630 C631 1.355 . S
C630 C632 1.415 . S
C631 C630 1.355 . S
C631 C633 1.419 . S
C632 C630 1.415 . S
C632 C637 1.425 . S
C632 C639 1.409 . S
C633 H625 0.930 . S
C633 C631 1.419 . S
C633 C634 1.362 . S
C634 H626 0.930 . S
C634 C633 1.362 . S
C634 C637 1.409 . S
C635 H627 0.930 . S
C635 C636 1.355 . S
C635 C637 1.415 . S
C636 C635 1.355 . S
C636 C638 1.419 . S
C637 C632 1.425 . S
C637 C634 1.409 . S
C637 C635 1.415 . S
C638 H628 0.930 . S
C638 C636 1.419 . S
C638 C639 1.362 . S
C639 H629 0.930 . S
C639 C632 1.409 . S
C639 C638 1.362 . S
H640 C646 0.930 . S
H641 C649 0.930 . S
H642 C650 0.930 . S
H643 C651 0.930 . S
H644 C654 0.930 . S
H645 C655 0.930 . S
C646 H640 0.930 . S
C646 C647 1.355 . S
C646 C648 1.415 . S
C647 C646 1.355 . S
C647 C649 1.419 . S
C648 C646 1.415 . S
C648 C653 1.425 . S
C648 C655 1.409 . S
C649 H641 0.930 . S
C649 C647 1.419 . S
C649 C650 1.362 . S
C650 H642 0.930 . S
C650 C649 1.362 . S
C650 C653 1.409 . S
C651 H643 0.930 . S
C651 C652 1.355 . S
C651 C653 1.415 . S
C652 C651 1.355 . S
C652 C654 1.419 . S
C653 C648 1.425 . S
C653 C650 1.409 . S
C653 C651 1.415 . S
C654 H644 0.930 . S
C654 C652 1.419 . S
C654 C655 1.362 . S
C655 H645 0.930 . S
C655 C648 1.409 . S
C655 C654 1.362 . S
H656 C662 0.930 . S
H657 C665 0.930 . S
H658 C666 0.930 . S
H659 C667 0.930 . S
H660 C670 0.930 . S
H661 C671 0.930 . S
C662 H656 0.930 . S
C662 C663 1.355 . S
C662 C664 1.415 . S
C663 C662 1.355 . S
C663 C665 1.419 . S
C664 C662 1.415 . S
C664 C669 1.425 . S
C664 C671 1.409 . S
C665 H657 0.930 . S
C665 C663 1.419 . S
C665 C666 1.362 . S
C666 H658 0.930 . S
C666 C665 1.362 . S
C666 C669 1.409 . S
C667 H659 0.930 . S
C667 C668 1.355 . S
C667 C669 1.415 . S
C668 C667 1.355 . S
C668 C670 1.419 . S
C669 C664 1.425 . S
C669 C666 1.409 . S
C669 C667 1.415 . S
C670 H660 0.930 . S
C670 C668 1.419 . S
C670 C671 1.362 . S
C671 H661 0.930 . S
C671 C664 1.409 . S
C671 C670 1.362 . S
H672 C678 0.930 . S
H673 C681 0.930 . S
H674 C682 0.930 . S
H675 C683 0.930 . S
H676 C686 0.930 . S
H677 C687 0.930 . S
C678 H672 0.930 . S
C678 C679 1.355 . S
C678 C680 1.415 . S
C679 C678 1.355 . S
C679 C681 1.419 . S
C680 C678 1.415 . S
C680 C685 1.425 . S
C680 C687 1.409 . S
C681 H673 0.930 . S
C681 C679 1.419 . S
C681 C682 1.362 . S
C682 H674 0.930 . S
C682 C681 1.362 . S
C682 C685 1.409 . S
C683 H675 0.930 . S
C683 C684 1.355 . S
C683 C685 1.415 . S
C684 C683 1.355 . S
C684 C686 1.419 . S
C685 C680 1.425 . S
C685 C682 1.409 . S
C685 C683 1.415 . S
C686 H676 0.930 . S
C686 C684 1.419 . S
C686 C687 1.362 . S
C687 H677 0.930 . S
C687 C680 1.409 . S
C687 C686 1.362 . S
H688 C694 0.930 . S
H689 C697 0.930 . S
H690 C698 0.930 . S
H691 C699 0.930 . S
H692 C702 0.930 . S
H693 C703 0.930 . S
C694 H688 0.930 . S
C694 C695 1.355 . S
C694 C696 1.415 . S
C695 C694 1.355 . S
C695 C697 1.419 . S
C696 C694 1.415 . S
C696 C701 1.425 . S
C696 C703 1.409 . S
C697 H689 0.930 . S
C697 C695 1.419 . S
C697 C698 1.362 . S
C698 H690 0.930 . S
C698 C697 1.362 . S
C698 C701 1.409 . S
C699 H691 0.930 . S
C699 C700 1.355 . S
C699 C701 1.415 . S
C700 C699 1.355 . S
C700 C702 1.419 . S
C701 C696 1.425 . S
C701 C698 1.409 . S
C701 C699 1.415 . S
C702 H692 0.930 . S
C702 C700 1.419 . S
C702 C703 1.362 . S
C703 H693 0.930 . S
C703 C696 1.409 . S
C703 C702 1.362 . S
H704 C710 0.930 . S
H705 C713 0.930 . S
H706 C714 0.930 . S
H707 C715 0.930 . S
H708 C718 0.930 . S
H709 C719 0.930 . S
C710 H704 0.930 . S
C710 C711 1.355 . S
C710 C712 1.415 . S
C711 C710 1.355 . S
C711 C713 1.419 . S
C712 C710 1.415 . S
C712 C717 1.425 . S
C712 C719 1.409 . S
C713 H705 0.930 . S
C713 C711 1.419 . S
C713 C714 1.362 . S
C714 H706 0.930 . S
C714 C713 1.362 . S
C714 C717 1.409 . S
C715 H707 0.930 . S
C715 C716 1.355 . S
C715 C717 1.415 . S
C716 C715 1.355 . S
C716 C718 1.419 . S
C717 C712 1.425 . S
C717 C714 1.409 . S
C717 C715 1.415 . S
C718 H708 0.930 . S
C718 C716 1.419 . S
C718 C719 1.362 . S
C719 H709 0.930 . S
C719 C712 1.409 . S
C719 C718 1.362 . S
C295 C6 1.827 1_556 S
C300 C226 1.849 . S
C311 C36 1.693 1_556 S
C316 C285 1.694 . S
C327 C66 1.808 . S
C332 C221 1.775 . S
C343 C132 1.468 . S
C348 C68 1.463 . S
C359 C164 1.610 . S
C364 C29 1.611 . S
C375 C34 1.793 . S
C380 C125 1.770 . S
C391 C228 1.808 . S
C396 C162 1.827 . S
C407 C262 1.902 . S
C412 C102 1.919 . S
C423 C130 2.025 . S
C428 C198 2.053 . S
C439 C93 1.299 . S
C444 C2 1.294 . S
C455 C61 1.284 . S
C460 C4 1.286 . S
C471 C38 1.307 . S
C476 C70 1.324 1_554 S
C487 C100 1.312 . S
C492 C166 1.325 . S
C503 C98 1.347 . S
C508 C157 1.353 . S
C519 C134 1.337 . S
C524 C189 1.346 . S
C535 C260 1.371 . S
C540 C194 1.387 . S
C551 C253 1.315 . S
C556 C196 1.312 . S
C567 C258 1.350 . S
C572 C230 1.367 . S
C583 N13 1.285 . S
C588 N18 1.243 . S
C599 N45 1.032 . S
C604 N50 1.077 . S
C615 N82 1.006 . S
C620 N77 0.980 . S
C631 N109 1.270 . S
C636 N114 1.244 1_556 S
C647 N146 1.195 . S
C652 N141 1.178 . S
C663 N178 1.188 . S
C668 N173 1.156 1_556 S
C679 N205 1.317 . S
C684 N210 1.286 1_554 S
C695 N242 1.215 . S
C700 N237 1.187 . S
C711 N269 1.159 . S
C716 N274 1.135 1_554 S
