# Generated by pormake.
# Topology rob, (6)-cn, num edge types: 1
# Building blocks:
#     Node 0, Type 0, BuildingBlock: JUFBIX_clean_sbu_0, # of connection points: 6
#     Node 1, Type 0, BuildingBlock: JUFBIX_clean_sbu_0, # of connection points: 6
#     Node 2, Type 0, BuildingBlock: JUFBIX_clean_sbu_0, # of connection points: 6
#     Node 3, Type 0, BuildingBlock: JUFBIX_clean_sbu_0, # of connection points: 6
#     Edge 4, Type (0, 0), BuildingBlock: EZIPEK_clean_linker_0, # of connection points: 2
#     Edge 5, Type (0, 0), BuildingBlock: EZIPEK_clean_linker_0, # of connection points: 2
#     Edge 6, Type (0, 0), BuildingBlock: EZIPEK_clean_linker_0, # of connection points: 2
#     Edge 7, Type (0, 0), BuildingBlock: EZIPEK_clean_linker_0, # of connection points: 2
#     Edge 8, Type (0, 0), BuildingBlock: EZIPEK_clean_linker_0, # of connection points: 2
#     Edge 9, Type (0, 0), BuildingBlock: EZIPEK_clean_linker_0, # of connection points: 2
#     Edge 10, Type (0, 0), BuildingBlock: EZIPEK_clean_linker_0, # of connection points: 2
#     Edge 11, Type (0, 0), BuildingBlock: EZIPEK_clean_linker_0, # of connection points: 2
#     Edge 12, Type (0, 0), BuildingBlock: EZIPEK_clean_linker_0, # of connection points: 2
#     Edge 13, Type (0, 0), BuildingBlock: EZIPEK_clean_linker_0, # of connection points: 2
#     Edge 14, Type (0, 0), BuildingBlock: EZIPEK_clean_linker_0, # of connection points: 2
#     Edge 15, Type (0, 0), BuildingBlock: EZIPEK_clean_linker_0, # of connection points: 2
# Relax obj value: 0.370
# Max RMSD: 0.272
# Mean RMSD: 0.272
data_MOF--net-rob--node1-JUFBIX_clean_sbu_0--edge1-EZIPEK_clean_linker_0
_symmetry_space_group_name_H-M    P1
_symmetry_Int_Tables_number       1
_symmetry_cell_setting            triclinic
loop_
_symmetry_equiv_pos_as_xyz
'x, y, z'
_cell_length_a     13.010995
_cell_length_b     17.426237
_cell_length_c     21.642423
_cell_angle_alpha  95.146277
_cell_angle_beta   89.84877
_cell_angle_gamma 89.83158
loop_
_atom_site_label
_atom_site_type_symbol
_atom_site_fract_x
_atom_site_fract_y
_atom_site_fract_z
_atom_type_partial_charge
Co0 Co 0.20471 0.29016 0.97509 0.0
C1 C 0.16579 0.13412 0.98986 0.0
Co2 Co 0.33001 0.23134 0.02019 0.0
C3 C 0.07256 0.31032 0.8728 0.0
C4 C 0.05119 0.40244 0.94386 0.0
N5 N 0.10285 0.33559 0.9306 0.0
N6 N 1.00544 0.35865 0.84919 0.0
C7 C 0.99044 0.41659 0.89376 0.0
H8 H 0.10068 0.258 0.84755 0.0
H9 H 0.05927 0.4395 0.98637 0.0
C10 C 0.37044 0.38526 1.00441 0.0
N11 N 0.43638 0.18894 0.06251 0.0
C12 C 0.43592 0.1683 0.12112 0.0
C13 C 0.5364 0.20022 0.04931 0.0
N14 N 0.53076 0.17177 0.14624 0.0
C15 C 0.59424 0.19083 0.10091 0.0
C16 C 0.35509 0.2189 0.89527 0.0
O17 O 0.27996 0.38558 0.98226 0.0
O18 O 0.40586 0.32381 0.0231 0.0
O19 O 0.39369 0.19669 0.9442 0.0
O20 O 0.2748 0.26052 0.8988 0.0
O21 O 0.25271 0.13851 0.0168 0.0
H22 H 0.56421 0.22309 0.00755 0.0
H23 H 0.36672 0.16014 0.14742 0.0
O24 O 0.13076 0.19489 0.96875 0.0
O25 O 0.13531 0.31796 0.05168 0.0
O26 O 0.26566 0.26634 0.09656 0.0
C27 C 0.17944 0.30088 0.10103 0.0
H28 H 0.94092 0.46586 0.88988 0.0
H29 H 0.67545 0.20298 0.10639 0.0
Co30 Co 0.70831 0.79045 0.99348 0.0
C31 C 0.66539 0.63488 0.01364 0.0
Co32 Co 0.83473 0.72421 0.03268 0.0
C33 C 0.59259 0.84488 0.89233 0.0
C34 C 0.49842 0.81978 0.96918 0.0
N35 N 0.59706 0.83088 0.95281 0.0
N36 N 0.49627 0.83707 0.86942 0.0
C37 C 0.43684 0.82243 0.91802 0.0
H38 H 0.6598 0.8509 0.8636 0.0
H39 H 0.4743 0.80073 0.01312 0.0
C40 C 0.87706 0.88059 0.00986 0.0
N41 N 0.9467 0.68319 0.07272 0.0
C42 C 0.95171 0.66389 0.13184 0.0
C43 C 0.04551 0.69338 0.05621 0.0
N44 N 0.04913 0.66584 0.15377 0.0
C45 C 0.10817 0.68394 0.10603 0.0
C46 C 0.84419 0.71014 0.90702 0.0
O47 O 0.78363 0.88372 0.99294 0.0
O48 O 0.9108 0.8182 0.02886 0.0
O49 O 0.8896 0.6874 0.95388 0.0
O50 O 0.76688 0.75458 0.91481 0.0
O51 O 0.75684 0.63102 0.03433 0.0
H52 H 0.06954 0.71534 0.01328 0.0
H53 H 0.88473 0.65823 0.16085 0.0
O54 O 0.63378 0.69747 0.99467 0.0
O55 O 0.65163 0.82473 0.07226 0.0
O56 O 0.77757 0.76091 0.11177 0.0
C57 C 0.69666 0.80178 0.11929 0.0
H58 H 0.35589 0.80826 0.91544 0.0
H59 H 0.18972 0.69601 0.10875 0.0
Co60 Co 0.19672 0.71283 0.53476 0.0
C61 C 0.1694 0.8689 0.50681 0.0
Co62 Co 0.32945 0.76828 0.49167 0.0
C63 C 0.06815 0.66509 0.63452 0.0
C64 C 0.98163 0.68407 0.5535 0.0
N65 N 0.079 0.67877 0.57431 0.0
N66 N 0.96852 0.66402 0.65241 0.0
C67 C 0.91383 0.67598 0.60147 0.0
H68 H 0.13167 0.66448 0.66666 0.0
H69 H 0.96107 0.70085 0.50825 0.0
C70 C 0.35579 0.61182 0.51804 0.0
N71 N 0.4454 0.80232 0.45142 0.0
C72 C 0.45089 0.82306 0.39275 0.0
C73 C 0.5438 0.78898 0.46705 0.0
N74 N 0.548 0.81948 0.37039 0.0
C75 C 0.60677 0.79882 0.41724 0.0
C76 C 0.33881 0.78511 0.61966 0.0
O77 O 0.26366 0.61543 0.53811 0.0
O78 O 0.39575 0.67042 0.49645 0.0
O79 O 0.38467 0.80388 0.57121 0.0
O80 O 0.25606 0.74648 0.61356 0.0
O81 O 0.26148 0.86483 0.48673 0.0
H82 H 0.56737 0.76596 0.50948 0.0
H83 H 0.38418 0.83231 0.36451 0.0
O84 O 0.13084 0.8113 0.5308 0.0
O85 O 0.14078 0.67905 0.45492 0.0
O86 O 0.27293 0.73313 0.41341 0.0
C87 C 0.18915 0.69636 0.40696 0.0
H88 H 0.83156 0.68539 0.60056 0.0
H89 H 0.68822 0.78606 0.41398 0.0
Co90 Co 0.70281 0.21137 0.51993 0.0
C91 C 0.65163 0.3643 0.50564 0.0
Co92 Co 0.82488 0.27593 0.47634 0.0
C93 C 0.59897 0.15278 0.62367 0.0
C94 C 0.49933 0.16611 0.54694 0.0
N95 N 0.59961 0.16477 0.56289 0.0
N96 N 0.50276 0.15282 0.647 0.0
C97 C 0.43984 0.15959 0.5986 0.0
H98 H 0.66681 0.1548 0.65235 0.0
H99 H 0.47075 0.18126 0.50281 0.0
C100 C 0.87671 0.12164 0.4921 0.0
N101 N 0.92331 0.32474 0.43149 0.0
C102 C 0.95442 0.30032 0.37351 0.0
C103 C 0.97167 0.39273 0.44464 0.0
N104 N 0.01871 0.35032 0.34967 0.0
C105 C 0.03113 0.40851 0.39426 0.0
C106 C 0.84785 0.28899 0.60175 0.0
O107 O 0.78687 0.12077 0.51559 0.0
O108 O 0.90728 0.18372 0.47108 0.0
O109 O 0.89136 0.30753 0.55262 0.0
O110 O 0.76581 0.24939 0.59657 0.0
O111 O 0.74183 0.36818 0.48321 0.0
H112 H 0.96205 0.42952 0.48721 0.0
H113 H 0.92878 0.24743 0.34828 0.0
O114 O 0.62033 0.30124 0.52357 0.0
O115 O 0.64089 0.17539 0.44387 0.0
O116 O 0.75665 0.24347 0.39997 0.0
C117 C 0.67789 0.20057 0.39553 0.0
H118 H 0.35728 0.16713 0.60172 0.0
H119 H 0.0775 0.45927 0.39 0.0
C120 C 0.54592 0.54281 0.95342 0.0
C121 C 0.59291 0.5686 0.01105 0.0
C122 C 0.47745 0.48473 0.06481 0.0
C123 C 0.4381 0.4539 0.0067 0.0
N124 N 0.44324 0.44602 0.8949 0.0
N125 N 0.60793 0.56096 0.12162 0.0
C126 C 0.47391 0.48132 0.95082 0.0
C127 C 0.56043 0.53822 0.06673 0.0
N128 N 0.56925 0.57746 0.90088 0.0
N129 N 0.43193 0.46525 0.11828 0.0
H130 H 0.6636 0.60389 0.12628 0.0
H131 H 0.59644 0.53444 0.16228 0.0
H132 H 0.36959 0.42771 0.11838 0.0
H133 H 0.44893 0.49132 0.1622 0.0
H134 H 0.52718 0.56915 0.85997 0.0
H135 H 0.62713 0.61819 0.89864 0.0
H136 H 0.47728 0.45591 0.85276 0.0
H137 H 0.38883 0.40214 0.89052 0.0
C138 C 0.43277 0.49282 0.46426 0.0
C139 C 0.41924 0.54095 0.51971 0.0
C140 C 0.55725 0.47087 0.56832 0.0
C141 C 0.57995 0.43088 0.50963 0.0
N142 N 0.54941 0.41276 0.39943 0.0
N143 N 0.46291 0.57466 0.62651 0.0
C144 C 0.52083 0.4447 0.45685 0.0
C145 C 0.47973 0.52941 0.57257 0.0
N146 N 0.35774 0.4897 0.42025 0.0
N147 N 0.60937 0.45232 0.61976 0.0
H148 H 0.40178 0.61361 0.63187 0.0
H149 H 0.51039 0.57551 0.66517 0.0
H150 H 0.67035 0.41313 0.61751 0.0
H151 H 0.5901 0.47304 0.66489 0.0
H152 H 0.35869 0.45073 0.38079 0.0
H153 H 0.28861 0.51978 0.42754 0.0
H154 H 0.61398 0.37746 0.39212 0.0
H155 H 0.51417 0.42671 0.3587 0.0
C156 C 0.01889 0.04911 0.94393 0.0
C157 C 0.10152 0.06147 0.98724 0.0
C158 C 0.02936 0.96135 0.0473 0.0
C159 C 0.95003 0.94585 1.00296 0.0
N160 N 0.89043 0.96124 0.8987 0.0
N161 N 0.20628 0.99777 0.06059 0.0
C162 C 0.94998 0.9862 0.94851 0.0
C163 C 0.11351 0.00833 0.03309 0.0
N164 N 1.00747 0.09502 0.89646 0.0
N165 N 0.02465 0.93247 0.10385 0.0
H166 H 0.27511 0.01863 0.04439 0.0
H167 H 0.21796 0.95633 0.09178 0.0
H168 H 0.96373 0.89939 0.11752 0.0
H169 H 0.07591 0.9488 0.13958 0.0
H170 H 0.93928 0.09816 0.87162 0.0
H171 H 0.06558 0.12957 0.88134 0.0
H172 H 0.89661 0.98275 0.85548 0.0
H173 H 0.84354 0.91291 0.89719 0.0
C174 C 0.96216 0.01575 0.54826 0.0
C175 C 0.94866 0.05345 0.49281 0.0
C176 C 0.08196 0.96629 0.44341 0.0
C177 C 0.10415 0.93868 0.50157 0.0
N178 N 0.08973 0.96088 0.61206 0.0
N179 N 1.01229 0.06913 0.3886 0.0
C180 C 0.05149 0.97067 0.55476 0.0
C181 C 1.01408 0.03059 0.44081 0.0
N182 N 0.89046 0.02003 0.59462 0.0
N183 N 0.1215 0.92944 0.39015 0.0
H184 H 0.96097 0.11303 0.38148 0.0
H185 H 0.06725 0.06051 0.35351 0.0
H186 H 0.17119 0.8824 0.3898 0.0
H187 H 0.09759 0.94124 0.34605 0.0
H188 H 0.89716 0.98846 0.63316 0.0
H189 H 0.81864 0.04536 0.59193 0.0
H190 H 0.05823 0.98756 0.65289 0.0
H191 H 0.16177 0.93601 0.61698 0.0
C192 C 0.68528 0.13736 0.28705 0.0
C193 C 0.62992 0.18186 0.33412 0.0
C194 C 0.50737 0.22016 0.25716 0.0
C195 C 0.55829 0.1711 0.21067 0.0
N196 N 0.68329 0.07241 0.1831 0.0
N197 N 0.47409 0.24986 0.36661 0.0
C198 C 0.64363 0.12636 0.22636 0.0
C199 C 0.53553 0.21716 0.32015 0.0
N200 N 0.77743 0.10552 0.30066 0.0
N201 N 0.43988 0.27518 0.2411 0.0
H202 H 0.4942 0.25248 0.41328 0.0
H203 H 0.39968 0.26914 0.35893 0.0
H204 H 0.4259 0.28616 0.19539 0.0
H205 H 0.4078 0.31675 0.27312 0.0
H206 H 0.82904 0.08187 0.26733 0.0
H207 H 0.80275 0.10437 0.34613 0.0
H208 H 0.74596 0.03774 0.19092 0.0
H209 H 0.64856 0.05857 0.14016 0.0
C210 C 0.70091 0.86256 0.22935 0.0
C211 C 0.6506 0.81473 0.18224 0.0
C212 C 0.53709 0.76653 0.26031 0.0
C213 C 0.58012 0.81978 0.30644 0.0
N214 N 0.69481 0.92447 0.33468 0.0
N215 N 0.50812 0.73135 0.15124 0.0
C216 C 0.65989 0.86965 0.29076 0.0
C217 C 0.5639 0.77071 0.19712 0.0
N218 N 0.78784 0.90094 0.21514 0.0
N219 N 0.47814 0.70721 0.27726 0.0
H220 H 0.52738 0.72967 0.10443 0.0
H221 H 0.4379 0.70535 0.15933 0.0
H222 H 0.46435 0.69776 0.32338 0.0
H223 H 0.45431 0.6619 0.24597 0.0
H224 H 0.83488 0.93054 0.2479 0.0
H225 H 0.81428 0.90171 0.16977 0.0
H226 H 0.75154 0.96415 0.32676 0.0
H227 H 0.66199 0.93341 0.37877 0.0
C228 C 0.37352 0.86773 0.78856 0.0
C229 C 0.46405 0.82967 0.80514 0.0
C230 C 0.48241 0.77406 0.69729 0.0
C231 C 0.38386 0.80339 0.68286 0.0
N232 N 0.22621 0.86502 0.72097 0.0
N233 N 0.58679 0.72752 0.77815 0.0
C234 C 0.32635 0.84616 0.73041 0.0
C235 C 0.51478 0.77822 0.76024 0.0
N236 N 0.33302 0.92494 0.82867 0.0
N237 N 0.54398 0.73926 0.65182 0.0
H238 H 0.60449 0.72174 0.82434 0.0
H239 H 0.61903 0.68404 0.7479 0.0
H240 H 0.52055 0.72717 0.60612 0.0
H241 H 0.6208 0.72568 0.65932 0.0
H242 H 0.26783 0.95634 0.81928 0.0
H243 H 0.37035 0.94577 0.86934 0.0
H244 H 0.17888 0.89088 0.75568 0.0
H245 H 0.18704 0.84814 0.68036 0.0
C246 C 0.51488 0.22706 0.75041 0.0
C247 C 0.47281 0.16506 0.71129 0.0
C248 C 0.35184 0.13895 0.79341 0.0
C249 C 0.40115 0.19542 0.83415 0.0
N250 N 0.54451 0.28105 0.85577 0.0
N251 N 0.36486 0.05304 0.69932 0.0
C252 C 0.48834 0.2349 0.81423 0.0
C253 C 0.39511 0.11834 0.73401 0.0
N254 N 0.57223 0.28258 0.72594 0.0
N255 N 0.26295 0.10578 0.81111 0.0
H256 H 0.39891 0.03459 0.65685 0.0
H257 H 0.3129 0.01386 0.71508 0.0
H258 H 0.23504 0.11335 0.8564 0.0
H259 H 0.21495 0.074 0.78004 0.0
H260 H 0.59733 0.33217 0.75197 0.0
H261 H 0.58337 0.28471 0.67848 0.0
H262 H 0.61449 0.30523 0.8444 0.0
H263 H 0.52581 0.28957 0.90278 0.0
C264 C 0.16174 0.62163 0.23624 0.0
C265 C 0.08094 0.66959 0.21804 0.0
C266 C 0.05916 0.723 0.32623 0.0
C267 C 0.14598 0.6805 0.34358 0.0
N268 N 0.29002 0.5979 0.31331 0.0
N269 N 0.97746 0.7832 0.24305 0.0
C270 C 0.19999 0.63193 0.29806 0.0
C271 C 0.03537 0.72445 0.26237 0.0
N272 N 0.20247 0.56666 0.19422 0.0
N273 N 1.00102 0.76435 0.37024 0.0
H274 H 0.96665 0.79148 0.19645 0.0
H275 H 0.95219 0.82955 0.27298 0.0
H276 H 0.01902 0.7697 0.41726 0.0
H277 H 0.93045 0.78891 0.36039 0.0
H278 H 0.25212 0.5234 0.20601 0.0
H279 H 0.18069 0.56058 0.1478 0.0
H280 H 0.33714 0.56599 0.28165 0.0
H281 H 0.3227 0.60689 0.35714 0.0
C282 C 0.02827 0.3915 0.24293 0.0
C283 C 0.06078 0.34216 0.28781 0.0
C284 C 0.14461 0.25842 0.20663 0.0
C285 C 0.12978 0.31445 0.16352 0.0
N286 N 0.05948 0.43855 0.14256 0.0
N287 N 0.16522 0.23616 0.31441 0.0
C288 C 0.07156 0.38225 0.18197 0.0
C289 C 0.12419 0.27817 0.27019 0.0
N290 N 0.95391 0.44544 0.25817 0.0
N291 N 0.16998 0.18421 0.18647 0.0
H292 H 0.15279 0.25022 0.36174 0.0
H293 H 0.21957 0.19274 0.30415 0.0
H294 H 0.17305 0.16445 0.13957 0.0
H295 H 0.17382 0.14019 0.216 0.0
H296 H 0.91875 0.47808 0.22616 0.0
H297 H 0.92038 0.45275 0.3021 0.0
H298 H 0.02094 0.49017 0.15453 0.0
H299 H 0.0963 0.43799 0.09986 0.0
C300 C 0.94645 0.37994 0.68047 0.0
C301 C 0.89251 0.30953 0.665 0.0
C302 C 0.8981 0.28259 0.77417 0.0
C303 C 0.96029 0.34766 0.7884 0.0
N304 N 0.06036 0.45141 0.75387 0.0
N305 N 0.85765 0.18183 0.69545 0.0
C306 C 0.9897 0.39444 0.74106 0.0
C307 C 0.87893 0.25755 0.71148 0.0
N308 N 0.9541 0.43381 0.63858 0.0
N309 N 0.85828 0.24394 0.8208 0.0
H310 H 0.85802 0.15856 0.64954 0.0
H311 H 0.85495 0.1406 0.72749 0.0
H312 H 0.87067 0.26165 0.86754 0.0
H313 H 0.80493 0.1996 0.81286 0.0
H314 H 0.99252 0.4859 0.64725 0.0
H315 H 0.91262 0.43113 0.59747 0.0
H316 H 0.09341 0.48283 0.72032 0.0
H317 H 0.09248 0.46313 0.79777 0.0
C318 C 0.96097 0.74329 0.75242 0.0
C319 C 0.93254 0.67547 0.71575 0.0
C320 C 0.8518 0.62564 0.80669 0.0
C321 C 0.88526 0.69221 0.84355 0.0
N322 N 0.99343 0.8043 0.85507 0.0
N323 N 0.82653 0.56265 0.70306 0.0
C324 C 0.94592 0.74824 0.8174 0.0
C325 C 0.8712 0.61919 0.74152 0.0
N326 N 0.9942 0.80568 0.72424 0.0
N327 N 0.80559 0.5675 0.83463 0.0
H328 H 0.83568 0.55938 0.65507 0.0
H329 H 0.77374 0.52326 0.71759 0.0
H330 H 0.79506 0.56991 0.88257 0.0
H331 H 0.78675 0.51436 0.81174 0.0
H332 H 1.00162 0.8602 0.74779 0.0
H333 H 1.00139 0.80529 0.67621 0.0
H334 H 0.04684 0.8423 0.83894 0.0
H335 H 0.98742 0.80751 0.90329 0.0
loop_
_geom_bond_atom_site_label_1
_geom_bond_atom_site_label_2
_geom_bond_distance
_geom_bond_site_symmetry_2
_ccdc_geom_bond_type
Co0 N5 2.057 . S
Co0 O17 2.021 . S
Co0 O20 2.062 . S
Co0 O24 2.117 . S
Co0 O25 2.020 1_556 S
C1 O21 1.270 . S
C1 O24 1.247 1_554 S
Co2 N11 2.057 . S
Co2 O18 2.117 . S
Co2 O19 2.020 1_554 S
Co2 O21 2.021 . S
Co2 O26 2.062 . S
C3 N5 1.316 . S
C3 N6 1.347 1_455 S
C3 H8 0.931 . S
C4 N5 1.379 . S
C4 C7 1.347 1_455 S
C4 H9 0.929 1_455 S
N5 Co0 2.057 . S
N5 C3 1.316 . S
N5 C4 1.379 . S
N6 C3 1.347 1_655 S
N6 C7 1.373 . S
C7 C4 1.347 1_655 S
C7 N6 1.373 . S
C7 H28 0.931 . S
H8 C3 0.931 . S
H9 C4 0.929 1_655 S
C10 O17 1.267 . S
C10 O18 1.250 1_556 S
N11 Co2 2.057 . S
N11 C12 1.316 . S
N11 C13 1.375 . S
C12 N11 1.316 . S
C12 N14 1.347 . S
C12 H23 0.931 . S
C13 N11 1.375 . S
C13 C15 1.350 . S
C13 H22 0.930 . S
N14 C12 1.347 . S
N14 C15 1.373 . S
C15 C13 1.350 . S
C15 N14 1.373 . S
C15 H29 0.931 . S
C16 O19 1.256 . S
C16 O20 1.255 . S
O17 Co0 2.021 . S
O17 C10 1.267 . S
O18 Co2 2.117 . S
O18 C10 1.250 1_554 S
O19 Co2 2.020 1_556 S
O19 C16 1.256 . S
O20 Co0 2.062 . S
O20 C16 1.255 . S
O21 C1 1.270 . S
O21 Co2 2.021 . S
H22 C13 0.930 . S
H23 C12 0.931 . S
O24 Co0 2.117 . S
O24 C1 1.247 1_556 S
O25 Co0 2.020 1_554 S
O25 C27 1.256 . S
O26 Co2 2.062 . S
O26 C27 1.255 . S
C27 O25 1.256 . S
C27 O26 1.255 . S
H28 C7 0.931 . S
H29 C15 0.931 . S
Co30 N35 2.057 . S
Co30 O47 2.021 . S
Co30 O50 2.062 . S
Co30 O54 2.117 . S
Co30 O55 2.020 1_556 S
C31 O51 1.270 . S
C31 O54 1.247 1_554 S
Co32 N41 2.057 . S
Co32 O48 2.117 . S
Co32 O49 2.020 1_554 S
Co32 O51 2.021 . S
Co32 O56 2.062 . S
C33 N35 1.316 . S
C33 N36 1.347 . S
C33 H38 0.931 . S
C34 N35 1.375 . S
C34 C37 1.350 . S
C34 H39 0.930 . S
N35 Co30 2.057 . S
N35 C33 1.316 . S
N35 C34 1.375 . S
N36 C33 1.347 . S
N36 C37 1.373 . S
C37 C34 1.350 . S
C37 N36 1.373 . S
C37 H58 0.931 . S
H38 C33 0.931 . S
H39 C34 0.930 . S
C40 O47 1.267 . S
C40 O48 1.250 1_556 S
N41 Co32 2.057 . S
N41 C42 1.316 . S
N41 C43 1.379 . S
C42 N41 1.316 . S
C42 N44 1.347 1_655 S
C42 H53 0.931 . S
C43 N41 1.379 . S
C43 C45 1.347 1_655 S
C43 H52 0.929 1_655 S
N44 C42 1.347 1_455 S
N44 C45 1.373 . S
C45 C43 1.347 1_455 S
C45 N44 1.373 . S
C45 H59 0.931 . S
C46 O49 1.256 . S
C46 O50 1.255 . S
O47 Co30 2.021 . S
O47 C40 1.267 . S
O48 Co32 2.117 . S
O48 C40 1.250 1_554 S
O49 Co32 2.020 1_556 S
O49 C46 1.256 . S
O50 Co30 2.062 . S
O50 C46 1.255 . S
O51 C31 1.270 . S
O51 Co32 2.021 . S
H52 C43 0.929 1_455 S
H53 C42 0.931 . S
O54 Co30 2.117 . S
O54 C31 1.247 1_556 S
O55 Co30 2.020 1_554 S
O55 C57 1.256 . S
O56 Co32 2.062 . S
O56 C57 1.255 . S
C57 O55 1.256 . S
C57 O56 1.255 . S
H58 C37 0.931 . S
H59 C45 0.931 . S
Co60 N65 2.057 . S
Co60 O77 2.021 . S
Co60 O80 2.062 . S
Co60 O84 2.117 . S
Co60 O85 2.020 . S
C61 O81 1.259 . S
C61 O84 1.258 . S
Co62 N71 2.057 . S
Co62 O78 2.117 . S
Co62 O79 2.020 . S
Co62 O81 2.021 . S
Co62 O86 2.062 . S
C63 N65 1.316 . S
C63 N66 1.347 1_455 S
C63 H68 0.931 . S
C64 N65 1.379 . S
C64 C67 1.347 1_455 S
C64 H69 0.929 1_455 S
N65 Co60 2.057 . S
N65 C63 1.316 . S
N65 C64 1.379 . S
N66 C63 1.347 1_655 S
N66 C67 1.373 . S
C67 C64 1.347 1_655 S
C67 N66 1.373 . S
C67 H88 0.931 . S
H68 C63 0.931 . S
H69 C64 0.929 1_655 S
C70 O77 1.259 . S
C70 O78 1.258 . S
N71 Co62 2.057 . S
N71 C72 1.316 . S
N71 C73 1.375 . S
C72 N71 1.316 . S
C72 N74 1.347 . S
C72 H83 0.931 . S
C73 N71 1.375 . S
C73 C75 1.350 . S
C73 H82 0.930 . S
N74 C72 1.347 . S
N74 C75 1.373 . S
C75 C73 1.350 . S
C75 N74 1.373 . S
C75 H89 0.931 . S
C76 O79 1.256 . S
C76 O80 1.255 . S
O77 Co60 2.021 . S
O77 C70 1.259 . S
O78 Co62 2.117 . S
O78 C70 1.258 . S
O79 Co62 2.020 . S
O79 C76 1.256 . S
O80 Co60 2.062 . S
O80 C76 1.255 . S
O81 C61 1.259 . S
O81 Co62 2.021 . S
H82 C73 0.930 . S
H83 C72 0.931 . S
O84 Co60 2.117 . S
O84 C61 1.258 . S
O85 Co60 2.020 . S
O85 C87 1.256 . S
O86 Co62 2.062 . S
O86 C87 1.255 . S
C87 O85 1.256 . S
C87 O86 1.255 . S
H88 C67 0.931 . S
H89 C75 0.931 . S
Co90 N95 2.057 . S
Co90 O107 2.021 . S
Co90 O110 2.062 . S
Co90 O114 2.117 . S
Co90 O115 2.020 . S
C91 O111 1.259 . S
C91 O114 1.258 . S
Co92 N101 2.057 . S
Co92 O108 2.117 . S
Co92 O109 2.020 . S
Co92 O111 2.021 . S
Co92 O116 2.062 . S
C93 N95 1.316 . S
C93 N96 1.347 . S
C93 H98 0.931 . S
C94 N95 1.375 . S
C94 C97 1.350 . S
C94 H99 0.930 . S
N95 Co90 2.057 . S
N95 C93 1.316 . S
N95 C94 1.375 . S
N96 C93 1.347 . S
N96 C97 1.373 . S
C97 C94 1.350 . S
C97 N96 1.373 . S
C97 H118 0.931 . S
H98 C93 0.931 . S
H99 C94 0.930 . S
C100 O107 1.259 . S
C100 O108 1.258 . S
N101 Co92 2.057 . S
N101 C102 1.316 . S
N101 C103 1.379 . S
C102 N101 1.316 . S
C102 N104 1.347 1_655 S
C102 H113 0.931 . S
C103 N101 1.379 . S
C103 C105 1.347 1_655 S
C103 H112 0.929 1_655 S
N104 C102 1.347 1_455 S
N104 C105 1.373 . S
C105 C103 1.347 1_455 S
C105 N104 1.373 . S
C105 H119 0.931 . S
C106 O109 1.256 . S
C106 O110 1.255 . S
O107 Co90 2.021 . S
O107 C100 1.259 . S
O108 Co92 2.117 . S
O108 C100 1.258 . S
O109 Co92 2.020 . S
O109 C106 1.256 . S
O110 Co90 2.062 . S
O110 C106 1.255 . S
O111 C91 1.259 . S
O111 Co92 2.021 . S
H112 C103 0.929 1_455 S
H113 C102 0.931 . S
O114 Co90 2.117 . S
O114 C91 1.258 . S
O115 Co90 2.020 . S
O115 C117 1.256 . S
O116 Co92 2.062 . S
O116 C117 1.255 . S
C117 O115 1.256 . S
C117 O116 1.255 . S
H118 C97 0.931 . S
H119 C105 0.931 . S
C120 C121 1.370 . S
C120 C126 1.379 . S
C120 N128 1.356 . S
C121 C120 1.370 . S
C121 C127 1.356 1_556 S
C122 C123 1.373 . S
C122 C127 1.379 . S
C122 N129 1.356 . S
C123 C122 1.373 . S
C123 C126 1.352 1_554 S
N124 C126 1.356 . S
N124 H136 0.984 . S
N124 H137 0.985 . S
N125 C127 1.356 . S
N125 H130 0.984 . S
N125 H131 0.985 . S
C126 C120 1.379 . S
C126 C123 1.352 1_556 S
C126 N124 1.356 . S
C127 C121 1.356 1_554 S
C127 C122 1.379 . S
C127 N125 1.356 . S
N128 C120 1.356 . S
N128 H134 0.984 . S
N128 H135 0.984 . S
N129 C122 1.356 . S
N129 H132 0.984 . S
N129 H133 0.985 . S
H130 N125 0.984 . S
H131 N125 0.985 . S
H132 N129 0.984 . S
H133 N129 0.985 . S
H134 N128 0.984 . S
H135 N128 0.984 . S
H136 N124 0.984 . S
H137 N124 0.985 . S
C138 C139 1.363 . S
C138 C144 1.379 . S
C138 N146 1.356 . S
C139 C138 1.363 . S
C139 C145 1.363 . S
C140 C141 1.363 . S
C140 C145 1.379 . S
C140 N147 1.356 . S
C141 C140 1.363 . S
C141 C144 1.363 . S
N142 C144 1.356 . S
N142 H154 0.984 . S
N142 H155 0.985 . S
N143 C145 1.356 . S
N143 H148 0.984 . S
N143 H149 0.985 . S
C144 C138 1.379 . S
C144 C141 1.363 . S
C144 N142 1.356 . S
C145 C139 1.363 . S
C145 C140 1.379 . S
C145 N143 1.356 . S
N146 C138 1.356 . S
N146 H152 0.984 . S
N146 H153 0.984 . S
N147 C140 1.356 . S
N147 H150 0.984 . S
N147 H151 0.985 . S
H148 N143 0.984 . S
H149 N143 0.985 . S
H150 N147 0.984 . S
H151 N147 0.985 . S
H152 N146 0.984 . S
H153 N146 0.984 . S
H154 N142 0.984 . S
H155 N142 0.985 . S
C156 C157 1.370 . S
C156 C162 1.385 1_455 S
C156 N164 1.356 . S
C157 C156 1.370 . S
C157 C163 1.347 1_546 S
C158 C159 1.374 . S
C158 C163 1.385 1_655 S
C158 N165 1.356 . S
C159 C158 1.374 . S
C159 C162 1.344 1_564 S
N160 C162 1.355 1_565 S
N160 H172 0.984 1_565 S
N160 H173 0.985 . S
N161 C163 1.355 1_545 S
N161 H166 0.984 . S
N161 H167 0.985 1_545 S
C162 C156 1.385 1_655 S
C162 C159 1.344 1_546 S
C162 N160 1.355 1_545 S
C163 C157 1.347 1_564 S
C163 C158 1.385 1_455 S
C163 N161 1.355 1_565 S
N164 C156 1.356 . S
N164 H170 0.984 . S
N164 H171 0.984 . S
N165 C158 1.356 . S
N165 H168 0.984 . S
N165 H169 0.985 . S
H166 N161 0.984 . S
H167 N161 0.985 1_565 S
H168 N165 0.984 . S
H169 N165 0.985 . S
H170 N164 0.984 . S
H171 N164 0.984 . S
H172 N160 0.984 1_545 S
H173 N160 0.985 . S
C174 C175 1.363 . S
C174 C180 1.379 1_645 S
C174 N182 1.356 . S
C175 C174 1.363 . S
C175 C181 1.363 . S
C176 C177 1.363 . S
C176 C181 1.379 1_465 S
C176 N183 1.356 . S
C177 C176 1.363 . S
C177 C180 1.363 . S
N178 C180 1.356 . S
N178 H190 0.987 . S
N178 H191 0.985 . S
N179 C181 1.356 . S
N179 H184 0.984 . S
N179 H185 0.987 . S
C180 C174 1.379 1_465 S
C180 C177 1.363 . S
C180 N178 1.356 . S
C181 C175 1.363 . S
C181 C176 1.379 1_645 S
C181 N179 1.356 . S
N182 C174 1.356 . S
N182 H188 0.984 . S
N182 H189 0.984 . S
N183 C176 1.356 . S
N183 H186 0.984 . S
N183 H187 0.985 . S
H184 N179 0.984 . S
H185 N179 0.987 . S
H186 N183 0.984 . S
H187 N183 0.985 . S
H188 N182 0.984 . S
H189 N182 0.984 . S
H190 N178 0.987 . S
H191 N178 0.985 . S
C192 C193 1.363 . S
C192 C198 1.379 . S
C192 N200 1.356 . S
C193 C192 1.363 . S
C193 C199 1.363 . S
C194 C195 1.363 . S
C194 C199 1.379 . S
C194 N201 1.356 . S
C195 C194 1.363 . S
C195 C198 1.363 . S
N196 C198 1.356 . S
N196 H208 0.984 . S
N196 H209 0.985 . S
N197 C199 1.356 . S
N197 H202 0.984 . S
N197 H203 0.985 . S
C198 C192 1.379 . S
C198 C195 1.363 . S
C198 N196 1.356 . S
C199 C193 1.363 . S
C199 C194 1.379 . S
C199 N197 1.356 . S
N200 C192 1.356 . S
N200 H206 0.984 . S
N200 H207 0.984 . S
N201 C194 1.356 . S
N201 H204 0.984 . S
N201 H205 0.985 . S
H202 N197 0.984 . S
H203 N197 0.985 . S
H204 N201 0.984 . S
H205 N201 0.985 . S
H206 N200 0.984 . S
H207 N200 0.984 . S
H208 N196 0.984 . S
H209 N196 0.985 . S
C210 C211 1.363 . S
C210 C216 1.379 . S
C210 N218 1.356 . S
C211 C210 1.363 . S
C211 C217 1.363 . S
C212 C213 1.363 . S
C212 C217 1.379 . S
C212 N219 1.356 . S
C213 C212 1.363 . S
C213 C216 1.363 . S
N214 C216 1.356 . S
N214 H226 0.984 . S
N214 H227 0.985 . S
N215 C217 1.356 . S
N215 H220 0.984 . S
N215 H221 0.985 . S
C216 C210 1.379 . S
C216 C213 1.363 . S
C216 N214 1.356 . S
C217 C211 1.363 . S
C217 C212 1.379 . S
C217 N215 1.356 . S
N218 C210 1.356 . S
N218 H224 0.984 . S
N218 H225 0.984 . S
N219 C212 1.356 . S
N219 H222 0.984 . S
N219 H223 0.985 . S
H220 N215 0.984 . S
H221 N215 0.985 . S
H222 N219 0.984 . S
H223 N219 0.985 . S
H224 N218 0.984 . S
H225 N218 0.984 . S
H226 N214 0.984 . S
H227 N214 0.985 . S
C228 C229 1.363 . S
C228 C234 1.379 . S
C228 N236 1.356 . S
C229 C228 1.363 . S
C229 C235 1.363 . S
C230 C231 1.363 . S
C230 C235 1.379 . S
C230 N237 1.356 . S
C231 C230 1.363 . S
C231 C234 1.363 . S
N232 C234 1.356 . S
N232 H244 0.984 . S
N232 H245 0.985 . S
N233 C235 1.356 . S
N233 H238 0.984 . S
N233 H239 0.985 . S
C234 C228 1.379 . S
C234 C231 1.363 . S
C234 N232 1.356 . S
C235 C229 1.363 . S
C235 C230 1.379 . S
C235 N233 1.356 . S
N236 C228 1.356 . S
N236 H242 0.984 . S
N236 H243 0.984 . S
N237 C230 1.356 . S
N237 H240 0.984 . S
N237 H241 0.985 . S
H238 N233 0.984 . S
H239 N233 0.985 . S
H240 N237 0.984 . S
H241 N237 0.985 . S
H242 N236 0.984 . S
H243 N236 0.984 . S
H244 N232 0.984 . S
H245 N232 0.985 . S
C246 C247 1.363 . S
C246 C252 1.379 . S
C246 N254 1.356 . S
C247 C246 1.363 . S
C247 C253 1.363 . S
C248 C249 1.363 . S
C248 C253 1.379 . S
C248 N255 1.356 . S
C249 C248 1.363 . S
C249 C252 1.363 . S
N250 C252 1.356 . S
N250 H262 0.984 . S
N250 H263 0.985 . S
N251 C253 1.356 . S
N251 H256 0.984 . S
N251 H257 0.985 . S
C252 C246 1.379 . S
C252 C249 1.363 . S
C252 N250 1.356 . S
C253 C247 1.363 . S
C253 C248 1.379 . S
C253 N251 1.356 . S
N254 C246 1.356 . S
N254 H260 0.984 . S
N254 H261 0.984 . S
N255 C248 1.356 . S
N255 H258 0.984 . S
N255 H259 0.985 . S
H256 N251 0.984 . S
H257 N251 0.985 . S
H258 N255 0.984 . S
H259 N255 0.985 . S
H260 N254 0.984 . S
H261 N254 0.984 . S
H262 N250 0.984 . S
H263 N250 0.985 . S
C264 C265 1.363 . S
C264 C270 1.379 . S
C264 N272 1.356 . S
C265 C264 1.363 . S
C265 C271 1.363 1_455 S
C266 C267 1.363 . S
C266 C271 1.379 1_455 S
C266 N273 1.356 1_455 S
C267 C266 1.363 . S
C267 C270 1.363 . S
N268 C270 1.356 . S
N268 H280 0.984 . S
N268 H281 0.985 . S
N269 C271 1.356 . S
N269 H274 0.984 . S
N269 H275 0.985 . S
C270 C264 1.379 . S
C270 C267 1.363 . S
C270 N268 1.356 . S
C271 C265 1.363 1_655 S
C271 C266 1.379 1_655 S
C271 N269 1.356 . S
N272 C264 1.356 . S
N272 H278 0.984 . S
N272 H279 0.984 . S
N273 C266 1.356 1_655 S
N273 H276 0.984 1_655 S
N273 H277 0.985 . S
H274 N269 0.984 . S
H275 N269 0.985 . S
H276 N273 0.984 1_455 S
H277 N273 0.985 . S
H278 N272 0.984 . S
H279 N272 0.984 . S
H280 N268 0.984 . S
H281 N268 0.985 . S
C282 C283 1.363 . S
C282 C288 1.379 . S
C282 N290 1.356 1_455 S
C283 C282 1.363 . S
C283 C289 1.363 . S
C284 C285 1.363 . S
C284 C289 1.379 . S
C284 N291 1.356 . S
C285 C284 1.363 . S
C285 C288 1.363 . S
N286 C288 1.356 . S
N286 H298 0.984 . S
N286 H299 0.985 . S
N287 C289 1.356 . S
N287 H292 0.984 . S
N287 H293 0.985 . S
C288 C282 1.379 . S
C288 C285 1.363 . S
C288 N286 1.356 . S
C289 C283 1.363 . S
C289 C284 1.379 . S
C289 N287 1.356 . S
N290 C282 1.356 1_655 S
N290 H296 0.984 . S
N290 H297 0.984 . S
N291 C284 1.356 . S
N291 H294 0.984 . S
N291 H295 0.985 . S
H292 N287 0.984 . S
H293 N287 0.985 . S
H294 N291 0.984 . S
H295 N291 0.985 . S
H296 N290 0.984 . S
H297 N290 0.984 . S
H298 N286 0.984 . S
H299 N286 0.985 . S
C300 C301 1.363 . S
C300 C306 1.381 . S
C300 N308 1.356 . S
C301 C300 1.363 . S
C301 C307 1.363 . S
C302 C303 1.363 . S
C302 C307 1.379 . S
C302 N309 1.356 . S
C303 C302 1.363 . S
C303 C306 1.366 . S
N304 C306 1.351 1_455 S
N304 H316 0.984 . S
N304 H317 0.985 . S
N305 C307 1.356 . S
N305 H310 0.984 . S
N305 H311 0.985 . S
C306 C300 1.381 . S
C306 C303 1.366 . S
C306 N304 1.351 1_655 S
C307 C301 1.363 . S
C307 C302 1.379 . S
C307 N305 1.356 . S
N308 C300 1.356 . S
N308 H314 0.984 1_655 S
N308 H315 0.984 . S
N309 C302 1.356 . S
N309 H312 0.984 . S
N309 H313 0.985 . S
H310 N305 0.984 . S
H311 N305 0.985 . S
H312 N309 0.984 . S
H313 N309 0.985 . S
H314 N308 0.984 1_455 S
H315 N308 0.984 . S
H316 N304 0.984 . S
H317 N304 0.985 . S
C318 C319 1.363 1_455 S
C318 C324 1.379 1_455 S
C318 N326 1.356 . S
C319 C318 1.363 1_655 S
C319 C325 1.363 . S
C320 C321 1.363 . S
C320 C325 1.379 . S
C320 N327 1.356 . S
C321 C320 1.363 . S
C321 C324 1.363 . S
N322 C324 1.356 . S
N322 H334 0.984 1_655 S
N322 H335 0.985 . S
N323 C325 1.356 . S
N323 H328 0.984 . S
N323 H329 0.985 . S
C324 C318 1.379 1_655 S
C324 C321 1.363 . S
C324 N322 1.356 . S
C325 C319 1.363 . S
C325 C320 1.379 . S
C325 N323 1.356 . S
N326 C318 1.356 . S
N326 H332 0.984 . S
N326 H333 0.984 . S
N327 C320 1.356 . S
N327 H330 0.984 . S
N327 H331 0.985 . S
H328 N323 0.984 . S
H329 N323 0.985 . S
H330 N327 0.984 . S
H331 N327 0.985 . S
H332 N326 0.984 . S
H333 N326 0.984 . S
H334 N322 0.984 1_455 S
H335 N322 0.985 . S
C121 C31 1.726 1_556 S
C123 C10 1.726 1_554 S
C139 C70 1.724 . S
C141 C91 1.724 . S
C157 C1 1.726 1_556 S
C159 C40 1.726 1_554 S
C175 C100 1.724 . S
C177 C61 1.724 . S
C193 C117 1.213 . S
C195 N14 1.165 . S
C211 C57 1.213 . S
C213 N74 1.165 . S
C229 N36 1.167 . S
C231 C76 1.214 . S
C247 N96 1.167 . S
C249 C16 1.214 . S
C265 N44 1.167 . S
C267 C87 1.211 . S
C283 N104 1.167 . S
C285 C27 1.211 . S
C301 C106 1.213 . S
C303 N6 1.169 . S
C319 N66 1.167 . S
C321 C46 1.214 . S
