# Generated by pormake.
# Topology unm, (4)-cn, num edge types: 1
# Building blocks:
#     Node 0, Type 0, BuildingBlock: QUQFOY_clean_sbu_1, # of connection points: 4
#     Node 1, Type 0, BuildingBlock: QUQFOY_clean_sbu_1, # of connection points: 4
#     Node 2, Type 0, BuildingBlock: QUQFOY_clean_sbu_1, # of connection points: 4
#     Node 3, Type 0, BuildingBlock: QUQFOY_clean_sbu_1, # of connection points: 4
#     Node 4, Type 0, BuildingBlock: QUQFOY_clean_sbu_1, # of connection points: 4
#     Node 5, Type 0, BuildingBlock: QUQFOY_clean_sbu_1, # of connection points: 4
#     Node 6, Type 0, BuildingBlock: QUQFOY_clean_sbu_1, # of connection points: 4
#     Node 7, Type 0, BuildingBlock: QUQFOY_clean_sbu_1, # of connection points: 4
#     Edge 8, Type (0, 0), BuildingBlock: KIFKEQ_clean_linker_1, # of connection points: 2
#     Edge 9, Type (0, 0), BuildingBlock: KIFKEQ_clean_linker_1, # of connection points: 2
#     Edge 10, Type (0, 0), BuildingBlock: KIFKEQ_clean_linker_1, # of connection points: 2
#     Edge 11, Type (0, 0), BuildingBlock: KIFKEQ_clean_linker_1, # of connection points: 2
#     Edge 12, Type (0, 0), BuildingBlock: KIFKEQ_clean_linker_1, # of connection points: 2
#     Edge 13, Type (0, 0), BuildingBlock: KIFKEQ_clean_linker_1, # of connection points: 2
#     Edge 14, Type (0, 0), BuildingBlock: KIFKEQ_clean_linker_1, # of connection points: 2
#     Edge 15, Type (0, 0), BuildingBlock: KIFKEQ_clean_linker_1, # of connection points: 2
#     Edge 16, Type (0, 0), BuildingBlock: KIFKEQ_clean_linker_1, # of connection points: 2
#     Edge 17, Type (0, 0), BuildingBlock: KIFKEQ_clean_linker_1, # of connection points: 2
#     Edge 18, Type (0, 0), BuildingBlock: KIFKEQ_clean_linker_1, # of connection points: 2
#     Edge 19, Type (0, 0), BuildingBlock: KIFKEQ_clean_linker_1, # of connection points: 2
#     Edge 20, Type (0, 0), BuildingBlock: KIFKEQ_clean_linker_1, # of connection points: 2
#     Edge 21, Type (0, 0), BuildingBlock: KIFKEQ_clean_linker_1, # of connection points: 2
#     Edge 22, Type (0, 0), BuildingBlock: KIFKEQ_clean_linker_1, # of connection points: 2
#     Edge 23, Type (0, 0), BuildingBlock: KIFKEQ_clean_linker_1, # of connection points: 2
# Relax obj value: 0.173
# Max RMSD: 0.172
# Mean RMSD: 0.172
data_MOF--net-unm--node1-QUQFOY_clean_sbu_1--edge1-KIFKEQ_clean_linker_1
_symmetry_space_group_name_H-M    P1
_symmetry_Int_Tables_number       1
_symmetry_cell_setting            triclinic
loop_
_symmetry_equiv_pos_as_xyz
'x, y, z'
_cell_length_a     28.310629
_cell_length_b     28.311673
_cell_length_c     45.183398
_cell_angle_alpha  90.035056
_cell_angle_beta   90.021589
_cell_angle_gamma 89.922831
loop_
_atom_site_label
_atom_site_type_symbol
_atom_site_fract_x
_atom_site_fract_y
_atom_site_fract_z
_atom_type_partial_charge
O0 O 0.19372 0.26597 0.11565 0.0
Cd1 Cd 0.19152 0.29573 0.15747 0.0
Cd2 Cd 0.1042 0.24018 0.15591 0.0
O3 O 0.13546 0.21403 0.11832 0.0
O4 O 0.25386 0.32802 0.16223 0.0
O5 O 0.23155 0.26789 0.19006 0.0
C6 C 0.26314 0.299 0.18338 0.0
C7 C 0.04777 0.19644 0.18212 0.0
C8 C 0.16963 0.23261 0.10429 0.0
C9 C 0.09959 0.34723 0.15951 0.0
O10 O 0.08023 0.30806 0.15352 0.0
O11 O 0.14362 0.3496 0.16466 0.0
O12 O 0.04164 0.20816 0.15492 0.0
O13 O 0.08825 0.20568 0.19393 0.0
O14 O 0.2311 0.69544 0.61687 0.0
Cd15 Cd 0.20085 0.69332 0.65849 0.0
Cd16 Cd 0.25525 0.60587 0.6569 0.0
O17 O 0.28281 0.6369 0.61965 0.0
O18 O 0.16836 0.75567 0.66267 0.0
O19 O 0.22801 0.73369 0.69109 0.0
C20 C 0.19695 0.76519 0.684 0.0
C21 C 0.29796 0.55053 0.68464 0.0
C22 C 0.26459 0.67134 0.60564 0.0
C23 C 0.14843 0.60206 0.65994 0.0
O24 O 0.18734 0.58226 0.65371 0.0
O25 O 0.14665 0.64599 0.66548 0.0
O26 O 0.28765 0.54343 0.65729 0.0
O27 O 0.28792 0.59136 0.69575 0.0
O28 O 0.79992 0.72477 0.11339 0.0
Cd29 Cd 0.80486 0.69253 0.15438 0.0
Cd30 Cd 0.89144 0.74546 0.15237 0.0
O31 O 0.86069 0.77369 0.11522 0.0
O32 O 0.74112 0.66423 0.1609 0.0
O33 O 0.77146 0.71909 0.19004 0.0
C34 C 0.73688 0.69103 0.1838 0.0
C35 C 0.9446 0.78839 0.18142 0.0
C36 C 0.82476 0.75734 0.10184 0.0
C37 C 0.89553 0.63863 0.15415 0.0
O38 O 0.91569 0.67769 0.14897 0.0
O39 O 0.8514 0.63688 0.15905 0.0
O40 O 0.95318 0.77876 0.15413 0.0
O41 O 0.90354 0.77732 0.19173 0.0
O42 O 0.77766 0.30421 0.61312 0.0
Cd43 Cd 0.80394 0.30946 0.65566 0.0
Cd44 Cd 0.74996 0.394 0.6501 0.0
O45 O 0.72317 0.3602 0.61341 0.0
O46 O 0.83325 0.2463 0.663 0.0
O47 O 0.77434 0.27456 0.68978 0.0
C48 C 0.80399 0.24083 0.68455 0.0
C49 C 0.70582 0.44748 0.67824 0.0
C50 C 0.74389 0.32605 0.60052 0.0
C51 C 0.85617 0.40019 0.65547 0.0
O52 O 0.81772 0.41892 0.64708 0.0
O53 O 0.85767 0.35693 0.66279 0.0
O54 O 0.7155 0.45529 0.65086 0.0
O55 O 0.71738 0.40687 0.68909 0.0
O56 O 0.6935 0.22329 0.37343 0.0
Cd57 Cd 0.68385 0.19436 0.33195 0.0
Cd58 Cd 0.60458 0.25039 0.33816 0.0
O59 O 0.64153 0.2814 0.37229 0.0
O60 O 0.74446 0.15994 0.32492 0.0
O61 O 0.71968 0.21835 0.29648 0.0
C62 C 0.75147 0.18699 0.30246 0.0
C63 C 0.55895 0.28947 0.30309 0.0
C64 C 0.67492 0.2596 0.38525 0.0
C65 C 0.59119 0.14635 0.33804 0.0
O66 O 0.57534 0.18576 0.34702 0.0
O67 O 0.63286 0.14315 0.32782 0.0
O68 O 0.54796 0.29041 0.33076 0.0
O69 O 0.59868 0.27029 0.29563 0.0
O70 O 0.2597 0.19758 0.87698 0.0
Cd71 Cd 0.29527 0.18965 0.83735 0.0
Cd72 Cd 0.24121 0.10684 0.83889 0.0
O73 O 0.20801 0.13942 0.87374 0.0
O74 O 0.3274 0.25178 0.83181 0.0
O75 O 0.27419 0.22393 0.80059 0.0
C76 C 0.30314 0.25719 0.80794 0.0
C77 C 0.20325 0.06072 0.80349 0.0
C78 C 0.22474 0.17488 0.88743 0.0
C79 C 0.34611 0.09739 0.84276 0.0
O80 O 0.30619 0.07885 0.84784 0.0
O81 O 0.34923 0.14068 0.83563 0.0
O82 O 0.20334 0.04903 0.83103 0.0
O83 O 0.22104 0.10113 0.7963 0.0
O84 O 0.29617 0.76123 0.37813 0.0
Cd85 Cd 0.30078 0.79793 0.33876 0.0
Cd86 Cd 0.39013 0.74712 0.33982 0.0
O87 O 0.35967 0.71567 0.37606 0.0
O88 O 0.23636 0.8254 0.33345 0.0
O89 O 0.26835 0.77523 0.30175 0.0
C90 C 0.23302 0.8016 0.30924 0.0
C91 C 0.44648 0.70774 0.31087 0.0
C92 C 0.32233 0.7292 0.3892 0.0
C93 C 0.38919 0.85462 0.34207 0.0
O94 O 0.41085 0.8157 0.34508 0.0
O95 O 0.34499 0.85558 0.3374 0.0
O96 O 0.45368 0.71694 0.33837 0.0
O97 O 0.40529 0.71735 0.30015 0.0
O98 O 0.72849 0.79718 0.87526 0.0
Cd99 Cd 0.69205 0.80365 0.83582 0.0
Cd100 Cd 0.74425 0.89159 0.83807 0.0
O101 O 0.77589 0.85921 0.87362 0.0
O102 O 0.66374 0.73982 0.82958 0.0
O103 O 0.71471 0.77185 0.79852 0.0
C104 C 0.68789 0.73668 0.80551 0.0
C105 C 0.78374 0.94814 0.80945 0.0
C106 C 0.76136 0.82205 0.88649 0.0
C107 C 0.63694 0.89299 0.84083 0.0
O108 O 0.67627 0.91356 0.84441 0.0
O109 O 0.63515 0.84915 0.83497 0.0
O110 O 0.77545 0.95459 0.83713 0.0
O111 O 0.77323 0.90748 0.79831 0.0
H112 H 0.11093 0.18309 0.06768 0.0
H113 H 0.2464 0.25316 0.07005 0.0
H114 H 0.11935 0.17107 0.01463 0.0
H115 H 0.25574 0.23948 0.01721 0.0
H116 H 0.23995 0.25538 0.91926 0.0
H117 H 0.22489 0.26779 0.97172 0.0
H118 H 0.16071 0.12958 0.97719 0.0
H119 H 0.17407 0.11807 0.92449 0.0
C120 C 0.14298 0.19506 0.05699 0.0
C121 C 0.17793 0.21927 0.07307 0.0
C122 C 0.1478 0.18817 0.02652 0.0
C123 C 0.18791 0.20489 0.01149 0.0
C124 C 0.22376 0.2273 0.02788 0.0
C125 C 0.21869 0.23466 0.05827 0.0
C126 C 0.22184 0.22803 0.93157 0.0
C127 C 0.20837 0.18569 0.91775 0.0
C128 C 0.21372 0.23486 0.96174 0.0
C129 C 0.19248 0.19928 0.97888 0.0
C130 C 0.17694 0.15786 0.96471 0.0
C131 C 0.18457 0.15126 0.93443 0.0
H132 H 0.24262 0.74769 0.57142 0.0
H133 H 0.31708 0.61435 0.56939 0.0
H134 H 0.25685 0.75763 0.51872 0.0
H135 H 0.32999 0.62356 0.51641 0.0
H136 H 0.38203 0.68211 0.42657 0.0
H137 H 0.37083 0.66793 0.47926 0.0
H138 H 0.22916 0.72424 0.47329 0.0
H139 H 0.24092 0.73986 0.42087 0.0
C140 C 0.26225 0.7206 0.55976 0.0
C141 C 0.27855 0.68016 0.5746 0.0
C142 C 0.26995 0.72602 0.52945 0.0
C143 C 0.29378 0.69095 0.51319 0.0
C144 C 0.31166 0.65134 0.52825 0.0
C145 C 0.30427 0.64608 0.55866 0.0
C146 C 0.34819 0.69072 0.4364 0.0
C147 C 0.31249 0.7125 0.41958 0.0
C148 C 0.3418 0.68262 0.46664 0.0
C149 C 0.29942 0.69576 0.48064 0.0
C150 C 0.26275 0.71495 0.46339 0.0
C151 C 0.26928 0.72342 0.43325 0.0
H152 H 0.88174 0.80855 0.06503 0.0
H153 H 0.74618 0.73876 0.06872 0.0
H154 H 0.87065 0.82297 0.01238 0.0
H155 H 0.73436 0.75461 0.01632 0.0
H156 H 0.74771 0.74072 0.91781 0.0
H157 H 0.76428 0.72724 0.96997 0.0
H158 H 0.82662 0.86616 0.97637 0.0
H159 H 0.8115 0.87899 0.92395 0.0
C160 C 0.84913 0.79711 0.05475 0.0
C161 C 0.81494 0.77226 0.07106 0.0
C162 C 0.84278 0.80539 0.02452 0.0
C163 C 0.80193 0.78933 0.00997 0.0
C164 C 0.76684 0.76634 0.02662 0.0
C165 C 0.77336 0.75771 0.05676 0.0
C166 C 0.76564 0.76809 0.93023 0.0
C167 C 0.77809 0.811 0.91673 0.0
C168 C 0.77466 0.7606 0.96024 0.0
C169 C 0.79594 0.79599 0.97754 0.0
C170 C 0.81035 0.83806 0.96372 0.0
C171 C 0.8017 0.8454 0.93361 0.0
H172 H 0.72553 0.20651 0.42404 0.0
H173 H 0.65346 0.34055 0.41611 0.0
H174 H 0.73999 0.22169 0.47588 0.0
H175 H 0.67034 0.3572 0.46812 0.0
H176 H 0.6645 0.35034 0.56911 0.0
H177 H 0.64884 0.33564 0.51676 0.0
H178 H 0.78408 0.26543 0.50897 0.0
H179 H 0.79824 0.27776 0.56124 0.0
C180 C 0.71367 0.23983 0.43322 0.0
C181 C 0.68842 0.2724 0.41587 0.0
C182 C 0.72215 0.24866 0.46308 0.0
C183 C 0.70643 0.29075 0.47639 0.0
C184 C 0.68223 0.324 0.45882 0.0
C185 C 0.67302 0.31476 0.42891 0.0
C186 C 0.69051 0.33126 0.5562 0.0
C187 C 0.73236 0.3148 0.56938 0.0
C188 C 0.68184 0.3233 0.5261 0.0
C189 C 0.71519 0.29938 0.50846 0.0
C190 C 0.75703 0.28306 0.52182 0.0
C191 C 0.76526 0.29025 0.5519 0.0
H192 H 0.32109 0.37531 0.18918 0.0
H193 H 0.30846 0.22813 0.21299 0.0
H194 H 0.39707 0.37939 0.21518 0.0
H195 H 0.38517 0.23205 0.23809 0.0
H196 H 0.54834 0.25223 0.24795 0.0
H197 H 0.47781 0.25741 0.21669 0.0
H198 H 0.41698 0.35902 0.27677 0.0
H199 H 0.48676 0.35279 0.30867 0.0
C200 C 0.33469 0.3438 0.1998 0.0
C201 C 0.30884 0.30139 0.19916 0.0
C202 C 0.37805 0.34622 0.2146 0.0
C203 C 0.39687 0.30595 0.22829 0.0
C204 C 0.3714 0.26343 0.2274 0.0
C205 C 0.32748 0.26129 0.21325 0.0
C206 C 0.52058 0.27675 0.25404 0.0
C207 C 0.52302 0.30216 0.28073 0.0
C208 C 0.48014 0.27932 0.2363 0.0
C209 C 0.4421 0.3083 0.24457 0.0
C210 C 0.446 0.33648 0.27 0.0
C211 C 0.48591 0.33303 0.28814 0.0
H212 H 0.12032 0.82305 0.6889 0.0
H213 H 0.26709 0.81091 0.71397 0.0
H214 H 0.11537 0.89923 0.71461 0.0
H215 H 0.26231 0.88783 0.73879 0.0
H216 H 0.24065 0.05102 0.74837 0.0
H217 H 0.23624 0.98065 0.71688 0.0
H218 H 0.13503 0.91872 0.7766 0.0
H219 H 0.14051 0.9883 0.80871 0.0
C220 C 0.15156 0.83682 0.69972 0.0
C221 C 0.19409 0.81105 0.69955 0.0
C222 C 0.14865 0.88029 0.71434 0.0
C223 C 0.18856 0.89928 0.72831 0.0
C224 C 0.23122 0.87391 0.72786 0.0
C225 C 0.23384 0.82989 0.71389 0.0
C226 C 0.21635 0.02306 0.7543 0.0
C227 C 0.19087 0.02507 0.78095 0.0
C228 C 0.21422 0.98272 0.73644 0.0
C229 C 0.18559 0.94444 0.74457 0.0
C230 C 0.15728 0.94795 0.76995 0.0
C231 C 0.16031 0.98774 0.7882 0.0
H232 H 0.44876 0.70053 0.2503 0.0
H233 H 0.53532 0.68352 0.32837 0.0
H234 H 0.51904 0.69238 0.21923 0.0
H235 H 0.60513 0.67514 0.2974 0.0
H236 H 0.72042 0.73579 0.23646 0.0
H237 H 0.64918 0.73261 0.26675 0.0
H238 H 0.58435 0.63875 0.20329 0.0
H239 H 0.65553 0.64211 0.17284 0.0
C240 C 0.48252 0.69391 0.2608 0.0
C241 C 0.48647 0.6931 0.29181 0.0
C242 C 0.5228 0.68932 0.24301 0.0
C243 C 0.56774 0.684 0.25592 0.0
C244 C 0.57115 0.68026 0.28683 0.0
C245 C 0.53101 0.68466 0.30456 0.0
C246 C 0.69102 0.71445 0.22897 0.0
C247 C 0.69368 0.68924 0.20225 0.0
C248 C 0.65031 0.71232 0.24643 0.0
C249 C 0.61121 0.68517 0.23749 0.0
C250 C 0.61377 0.66015 0.21069 0.0
C251 C 0.65463 0.66198 0.19333 0.0
H252 H 0.75592 0.22296 0.73582 0.0
H253 H 0.85404 0.1599 0.67409 0.0
H254 H 0.75789 0.1511 0.76562 0.0
H255 H 0.856 0.08804 0.70399 0.0
H256 H 0.79216 0.95137 0.74892 0.0
H257 H 0.80085 0.02215 0.71834 0.0
H258 H 0.81547 0.10714 0.79717 0.0
H259 H 0.80679 0.03687 0.82765 0.0
C260 C 0.77792 0.19382 0.72863 0.0
C261 C 0.80482 0.19719 0.70262 0.0
C262 C 0.77932 0.15276 0.7458 0.0
C263 C 0.80734 0.11401 0.73722 0.0
C264 C 0.83395 0.11722 0.71108 0.0
C265 C 0.83291 0.15847 0.69405 0.0
C266 C 0.79831 0.985 0.75968 0.0
C267 C 0.79839 0.98849 0.79072 0.0
C268 C 0.8032 0.02555 0.74217 0.0
C269 C 0.80799 0.07029 0.7554 0.0
C270 C 0.81084 0.07329 0.78636 0.0
C271 C 0.80625 0.03289 0.80381 0.0
H272 H 0.82906 0.13267 0.31431 0.0
H273 H 0.77244 0.23067 0.25013 0.0
H274 H 0.90154 0.12586 0.28528 0.0
H275 H 0.84492 0.22387 0.2212 0.0
H276 H 0.96041 0.17218 0.16208 0.0
H277 H 0.88858 0.16413 0.1912 0.0
H278 H 0.9698 0.17822 0.27161 0.0
H279 H 0.04208 0.1862 0.24242 0.0
C280 C 0.83199 0.15263 0.29395 0.0
C281 C 0.79498 0.18227 0.28451 0.0
C282 C 0.87359 0.1488 0.27742 0.0
C283 C 0.87885 0.1741 0.25091 0.0
C284 C 0.84164 0.20336 0.24133 0.0
C285 C 0.80024 0.20754 0.25799 0.0
C286 C 0.96323 0.17254 0.18599 0.0
C287 C 0.00696 0.18033 0.19993 0.0
C288 C 0.92194 0.16832 0.20265 0.0
C289 C 0.92342 0.17152 0.23364 0.0
C290 C 0.96756 0.17565 0.24773 0.0
C291 C 0.00899 0.1801 0.23101 0.0
H292 H 0.30361 0.54647 0.74521 0.0
H293 H 0.3253 0.46309 0.66623 0.0
H294 H 0.31042 0.47507 0.77532 0.0
H295 H 0.33235 0.39211 0.69628 0.0
H296 H 0.26414 0.27592 0.75381 0.0
H297 H 0.27189 0.3478 0.72449 0.0
H298 H 0.36186 0.40832 0.79171 0.0
H299 H 0.35394 0.33648 0.82119 0.0
C300 C 0.31117 0.5132 0.73434 0.0
C301 C 0.31341 0.51041 0.70331 0.0
C302 C 0.31496 0.47226 0.75159 0.0
C303 C 0.32095 0.42784 0.73809 0.0
C304 C 0.32665 0.42567 0.70725 0.0
C305 C 0.32302 0.46647 0.69007 0.0
C306 C 0.28569 0.30446 0.7623 0.0
C307 C 0.30836 0.30046 0.78982 0.0
C308 C 0.29044 0.34553 0.74541 0.0
C309 C 0.31775 0.38366 0.75572 0.0
C310 C 0.34044 0.37966 0.78325 0.0
C311 C 0.33599 0.33842 0.80005 0.0
H312 H 0.21776 0.76262 0.2547 0.0
H313 H 0.15082 0.84809 0.32199 0.0
H314 H 0.14665 0.76801 0.2244 0.0
H315 H 0.07979 0.85375 0.29152 0.0
H316 H 0.94597 0.79253 0.24206 0.0
H317 H 0.01582 0.80078 0.27345 0.0
H318 H 0.10122 0.82732 0.19607 0.0
H319 H 0.03181 0.81874 0.16475 0.0
C320 C 0.18796 0.78267 0.26298 0.0
C321 C 0.18996 0.80487 0.29074 0.0
C322 C 0.14732 0.7861 0.24553 0.0
C323 C 0.10769 0.81161 0.2555 0.0
C324 C 0.10964 0.83369 0.2833 0.0
C325 C 0.15042 0.83053 0.30069 0.0
C326 C 0.97941 0.80137 0.23184 0.0
C327 C 0.98343 0.80446 0.2009 0.0
C328 C 0.01946 0.80599 0.24981 0.0
C329 C 0.06418 0.81372 0.23714 0.0
C330 C 0.06745 0.82025 0.20641 0.0
C331 C 0.02754 0.81574 0.1885 0.0
H332 H 0.6767 0.53483 0.66067 0.0
H333 H 0.69912 0.44971 0.73878 0.0
H334 H 0.66676 0.60461 0.69155 0.0
H335 H 0.68952 0.51989 0.76972 0.0
H336 H 0.64037 0.65483 0.81723 0.0
H337 H 0.63583 0.58387 0.78663 0.0
H338 H 0.72413 0.65055 0.72091 0.0
H339 H 0.7284 0.7216 0.75135 0.0
C340 C 0.67858 0.53079 0.68448 0.0
C341 C 0.68915 0.48673 0.69725 0.0
C342 C 0.6733 0.57092 0.70215 0.0
C343 C 0.6783 0.56796 0.73302 0.0
C344 C 0.68544 0.52333 0.74598 0.0
C345 C 0.69085 0.48308 0.72826 0.0
C346 C 0.65869 0.65443 0.79619 0.0
C347 C 0.68481 0.69389 0.78672 0.0
C348 C 0.65618 0.61368 0.77873 0.0
C349 C 0.6794 0.61164 0.7513 0.0
C350 C 0.7052 0.65126 0.74174 0.0
C351 C 0.70797 0.69187 0.75928 0.0
H352 H 0.98781 0.62937 0.13818 0.0
H353 H 0.86944 0.55032 0.17273 0.0
H354 H 0.03691 0.55916 0.14072 0.0
H355 H 0.91923 0.4801 0.17603 0.0
H356 H 0.1248 0.43712 0.17582 0.0
H357 H 0.07472 0.50742 0.17603 0.0
H358 H 0.95757 0.42427 0.14375 0.0
H359 H 0.00681 0.35419 0.14432 0.0
C360 C 0.97227 0.59702 0.14646 0.0
C361 C 0.92463 0.59537 0.1552 0.0
C362 C 0.00062 0.55687 0.14814 0.0
C363 C 0.98208 0.51416 0.15873 0.0
C364 C 0.93441 0.51242 0.16746 0.0
C365 C 0.9059 0.55262 0.16563 0.0
C366 C 0.08833 0.43391 0.16888 0.0
C367 C 0.06986 0.39011 0.16004 0.0
C368 C 0.05969 0.47415 0.16887 0.0
C369 C 0.01216 0.47136 0.1599 0.0
C370 C 0.99376 0.42749 0.15124 0.0
C371 C 0.02221 0.38735 0.15138 0.0
H372 H 0.94341 0.37544 0.67658 0.0
H373 H 0.86573 0.49191 0.63816 0.0
H374 H 0.01358 0.42506 0.67965 0.0
H375 H 0.93602 0.5409 0.64058 0.0
H376 H 0.14055 0.50883 0.64608 0.0
H377 H 0.06989 0.46054 0.64607 0.0
H378 H 0.98772 0.58022 0.67584 0.0
H379 H 0.05862 0.62927 0.67518 0.0
C380 C 0.94136 0.41149 0.66867 0.0
C381 C 0.89906 0.42966 0.65706 0.0
C382 C 0.98155 0.43987 0.67035 0.0
C383 C 0.98027 0.48689 0.66036 0.0
C384 C 0.93792 0.50506 0.64887 0.0
C385 C 0.89775 0.47679 0.64727 0.0
C386 C 0.10749 0.52499 0.65269 0.0
C387 C 0.10518 0.573 0.66057 0.0
C388 C 0.06703 0.49711 0.65288 0.0
C389 C 0.0233 0.5165 0.66105 0.0
C390 C 0.02091 0.56443 0.66913 0.0
C391 C 0.06149 0.59247 0.66887 0.0
H392 H 0.61188 0.05735 0.31872 0.0
H393 H 0.50117 0.14025 0.35954 0.0
H394 H 0.56119 0.98809 0.32008 0.0
H395 H 0.45087 0.07052 0.36143 0.0
H396 H 0.35961 0.94465 0.32913 0.0
H397 H 0.40781 0.01624 0.32831 0.0
H398 H 0.52879 0.9355 0.35747 0.0
H399 H 0.48138 0.86427 0.35775 0.0
C400 C 0.57685 0.06076 0.32812 0.0
C401 C 0.56064 0.10423 0.33913 0.0
C402 C 0.54789 0.02103 0.32901 0.0
C403 C 0.50217 0.0239 0.34101 0.0
C404 C 0.48578 0.06741 0.35182 0.0
C405 C 0.51474 0.10722 0.3509 0.0
C406 C 0.39643 0.94233 0.3355 0.0
C407 C 0.41675 0.89877 0.34326 0.0
C408 C 0.42395 0.98329 0.33511 0.0
C409 C 0.47215 0.98128 0.34254 0.0
C410 C 0.492 0.93795 0.35104 0.0
C411 C 0.46467 0.89717 0.35135 0.0
H412 H 0.43639 0.12143 0.82759 0.0
H413 H 0.35224 0.00561 0.86079 0.0
H414 H 0.50593 0.07073 0.82774 0.0
H415 H 0.42202 0.95537 0.8616 0.0
H416 H 0.54664 0.867 0.82606 0.0
H417 H 0.47593 0.91653 0.82726 0.0
H418 H 0.55833 0.0321 0.86239 0.0
H419 H 0.6288 0.98339 0.86054 0.0
C420 C 0.43281 0.08533 0.83518 0.0
C421 C 0.38882 0.06757 0.84416 0.0
C422 C 0.47267 0.05632 0.83537 0.0
C423 C 0.46939 0.00905 0.84468 0.0
C424 C 0.4255 0.99143 0.85392 0.0
C425 C 0.38562 0.02037 0.85364 0.0
C426 C 0.54952 0.9029 0.83415 0.0
C427 C 0.59333 0.92135 0.843 0.0
C428 C 0.50905 0.9312 0.83494 0.0
C429 C 0.51171 0.97831 0.84472 0.0
C430 C 0.55533 0.99627 0.85419 0.0
C431 C 0.59567 0.96818 0.85328 0.0
loop_
_geom_bond_atom_site_label_1
_geom_bond_atom_site_label_2
_geom_bond_distance
_geom_bond_site_symmetry_2
_ccdc_geom_bond_type
O0 Cd1 2.223 . S
O0 C8 1.315 . S
Cd1 O0 2.223 . S
Cd1 O4 2.297 . S
Cd1 O5 2.439 . S
Cd1 O11 2.240 . S
Cd2 O3 2.240 . S
Cd2 O10 2.223 . S
Cd2 O12 2.297 . S
Cd2 O13 2.439 . S
O3 Cd2 2.240 . S
O3 C8 1.279 . S
O4 Cd1 2.297 . S
O4 C6 1.247 . S
O5 Cd1 2.439 . S
O5 C6 1.208 . S
C6 O4 1.247 . S
C6 O5 1.208 . S
C7 O12 1.247 . S
C7 O13 1.208 . S
C8 O0 1.315 . S
C8 O3 1.279 . S
C9 O10 1.315 . S
C9 O11 1.279 . S
O10 Cd2 2.223 . S
O10 C9 1.315 . S
O11 Cd1 2.240 . S
O11 C9 1.279 . S
O12 Cd2 2.297 . S
O12 C7 1.247 . S
O13 Cd2 2.439 . S
O13 C7 1.208 . S
O14 Cd15 2.223 . S
O14 C22 1.315 . S
Cd15 O14 2.223 . S
Cd15 O18 2.297 . S
Cd15 O19 2.439 . S
Cd15 O25 2.240 . S
Cd16 O17 2.240 . S
Cd16 O24 2.223 . S
Cd16 O26 2.297 . S
Cd16 O27 2.439 . S
O17 Cd16 2.240 . S
O17 C22 1.279 . S
O18 Cd15 2.297 . S
O18 C20 1.247 . S
O19 Cd15 2.439 . S
O19 C20 1.208 . S
C20 O18 1.247 . S
C20 O19 1.208 . S
C21 O26 1.247 . S
C21 O27 1.208 . S
C22 O14 1.315 . S
C22 O17 1.279 . S
C23 O24 1.315 . S
C23 O25 1.279 . S
O24 Cd16 2.223 . S
O24 C23 1.315 . S
O25 Cd15 2.240 . S
O25 C23 1.279 . S
O26 Cd16 2.297 . S
O26 C21 1.247 . S
O27 Cd16 2.439 . S
O27 C21 1.208 . S
O28 Cd29 2.223 . S
O28 C36 1.315 . S
Cd29 O28 2.223 . S
Cd29 O32 2.297 . S
Cd29 O33 2.439 . S
Cd29 O39 2.240 . S
Cd30 O31 2.240 . S
Cd30 O38 2.223 . S
Cd30 O40 2.297 . S
Cd30 O41 2.439 . S
O31 Cd30 2.240 . S
O31 C36 1.279 . S
O32 Cd29 2.297 . S
O32 C34 1.247 . S
O33 Cd29 2.439 . S
O33 C34 1.208 . S
C34 O32 1.247 . S
C34 O33 1.208 . S
C35 O40 1.247 . S
C35 O41 1.208 . S
C36 O28 1.315 . S
C36 O31 1.279 . S
C37 O38 1.315 . S
C37 O39 1.279 . S
O38 Cd30 2.223 . S
O38 C37 1.315 . S
O39 Cd29 2.240 . S
O39 C37 1.279 . S
O40 Cd30 2.297 . S
O40 C35 1.247 . S
O41 Cd30 2.439 . S
O41 C35 1.208 . S
O42 Cd43 2.223 . S
O42 C50 1.315 . S
Cd43 O42 2.223 . S
Cd43 O46 2.297 . S
Cd43 O47 2.439 . S
Cd43 O53 2.240 . S
Cd44 O45 2.240 . S
Cd44 O52 2.223 . S
Cd44 O54 2.297 . S
Cd44 O55 2.439 . S
O45 Cd44 2.240 . S
O45 C50 1.279 . S
O46 Cd43 2.297 . S
O46 C48 1.247 . S
O47 Cd43 2.439 . S
O47 C48 1.208 . S
C48 O46 1.247 . S
C48 O47 1.208 . S
C49 O54 1.247 . S
C49 O55 1.208 . S
C50 O42 1.315 . S
C50 O45 1.279 . S
C51 O52 1.315 . S
C51 O53 1.279 . S
O52 Cd44 2.223 . S
O52 C51 1.315 . S
O53 Cd43 2.240 . S
O53 C51 1.279 . S
O54 Cd44 2.297 . S
O54 C49 1.247 . S
O55 Cd44 2.439 . S
O55 C49 1.208 . S
O56 Cd57 2.223 . S
O56 C64 1.315 . S
Cd57 O56 2.223 . S
Cd57 O60 2.297 . S
Cd57 O61 2.439 . S
Cd57 O67 2.240 . S
Cd58 O59 2.240 . S
Cd58 O66 2.223 . S
Cd58 O68 2.297 . S
Cd58 O69 2.439 . S
O59 Cd58 2.240 . S
O59 C64 1.279 . S
O60 Cd57 2.297 . S
O60 C62 1.247 . S
O61 Cd57 2.439 . S
O61 C62 1.208 . S
C62 O60 1.247 . S
C62 O61 1.208 . S
C63 O68 1.247 . S
C63 O69 1.208 . S
C64 O56 1.315 . S
C64 O59 1.279 . S
C65 O66 1.315 . S
C65 O67 1.279 . S
O66 Cd58 2.223 . S
O66 C65 1.315 . S
O67 Cd57 2.240 . S
O67 C65 1.279 . S
O68 Cd58 2.297 . S
O68 C63 1.247 . S
O69 Cd58 2.439 . S
O69 C63 1.208 . S
O70 Cd71 2.223 . S
O70 C78 1.315 . S
Cd71 O70 2.223 . S
Cd71 O74 2.297 . S
Cd71 O75 2.439 . S
Cd71 O81 2.240 . S
Cd72 O73 2.240 . S
Cd72 O80 2.223 . S
Cd72 O82 2.297 . S
Cd72 O83 2.439 . S
O73 Cd72 2.240 . S
O73 C78 1.279 . S
O74 Cd71 2.297 . S
O74 C76 1.247 . S
O75 Cd71 2.439 . S
O75 C76 1.208 . S
C76 O74 1.247 . S
C76 O75 1.208 . S
C77 O82 1.247 . S
C77 O83 1.208 . S
C78 O70 1.315 . S
C78 O73 1.279 . S
C79 O80 1.315 . S
C79 O81 1.279 . S
O80 Cd72 2.223 . S
O80 C79 1.315 . S
O81 Cd71 2.240 . S
O81 C79 1.279 . S
O82 Cd72 2.297 . S
O82 C77 1.247 . S
O83 Cd72 2.439 . S
O83 C77 1.208 . S
O84 Cd85 2.223 . S
O84 C92 1.315 . S
Cd85 O84 2.223 . S
Cd85 O88 2.297 . S
Cd85 O89 2.439 . S
Cd85 O95 2.240 . S
Cd86 O87 2.240 . S
Cd86 O94 2.223 . S
Cd86 O96 2.297 . S
Cd86 O97 2.439 . S
O87 Cd86 2.240 . S
O87 C92 1.279 . S
O88 Cd85 2.297 . S
O88 C90 1.247 . S
O89 Cd85 2.439 . S
O89 C90 1.208 . S
C90 O88 1.247 . S
C90 O89 1.208 . S
C91 O96 1.247 . S
C91 O97 1.208 . S
C92 O84 1.315 . S
C92 O87 1.279 . S
C93 O94 1.315 . S
C93 O95 1.279 . S
O94 Cd86 2.223 . S
O94 C93 1.315 . S
O95 Cd85 2.240 . S
O95 C93 1.279 . S
O96 Cd86 2.297 . S
O96 C91 1.247 . S
O97 Cd86 2.439 . S
O97 C91 1.208 . S
O98 Cd99 2.223 . S
O98 C106 1.315 . S
Cd99 O98 2.223 . S
Cd99 O102 2.297 . S
Cd99 O103 2.439 . S
Cd99 O109 2.240 . S
Cd100 O101 2.240 . S
Cd100 O108 2.223 . S
Cd100 O110 2.297 . S
Cd100 O111 2.439 . S
O101 Cd100 2.240 . S
O101 C106 1.279 . S
O102 Cd99 2.297 . S
O102 C104 1.247 . S
O103 Cd99 2.439 . S
O103 C104 1.208 . S
C104 O102 1.247 . S
C104 O103 1.208 . S
C105 O110 1.247 . S
C105 O111 1.208 . S
C106 O98 1.315 . S
C106 O101 1.279 . S
C107 O108 1.315 . S
C107 O109 1.279 . S
O108 Cd100 2.223 . S
O108 C107 1.315 . S
O109 Cd99 2.240 . S
O109 C107 1.279 . S
O110 Cd100 2.297 . S
O110 C105 1.247 . S
O111 Cd100 2.439 . S
O111 C105 1.208 . S
H112 C120 0.950 . S
H113 C125 0.950 . S
H114 C122 0.950 . S
H115 C124 0.950 . S
H116 C126 0.950 . S
H117 C128 0.950 . S
H118 C130 0.950 . S
H119 C131 0.950 . S
C120 H112 0.950 . S
C120 C121 1.386 . S
C120 C122 1.391 . S
C121 C120 1.386 . S
C121 C125 1.393 . S
C122 H114 0.950 . S
C122 C120 1.391 . S
C122 C123 1.400 . S
C123 C122 1.400 . S
C123 C124 1.398 . S
C123 C129 1.491 1_554 S
C124 H115 0.950 . S
C124 C123 1.398 . S
C124 C125 1.391 . S
C125 H113 0.950 . S
C125 C121 1.393 . S
C125 C124 1.391 . S
C126 H116 0.950 . S
C126 C127 1.386 . S
C126 C128 1.391 . S
C127 C126 1.386 . S
C127 C131 1.393 . S
C128 H117 0.950 . S
C128 C126 1.391 . S
C128 C129 1.400 . S
C129 C123 1.491 1_556 S
C129 C128 1.400 . S
C129 C130 1.398 . S
C130 H118 0.950 . S
C130 C129 1.398 . S
C130 C131 1.391 . S
C131 H119 0.950 . S
C131 C127 1.393 . S
C131 C130 1.391 . S
H132 C140 0.950 . S
H133 C145 0.950 . S
H134 C142 0.950 . S
H135 C144 0.950 . S
H136 C146 0.950 . S
H137 C148 0.950 . S
H138 C150 0.950 . S
H139 C151 0.950 . S
C140 H132 0.950 . S
C140 C141 1.386 . S
C140 C142 1.391 . S
C141 C140 1.386 . S
C141 C145 1.393 . S
C142 H134 0.950 . S
C142 C140 1.391 . S
C142 C143 1.400 . S
C143 C142 1.400 . S
C143 C144 1.398 . S
C143 C149 1.491 . S
C144 H135 0.950 . S
C144 C143 1.398 . S
C144 C145 1.391 . S
C145 H133 0.950 . S
C145 C141 1.393 . S
C145 C144 1.391 . S
C146 H136 0.950 . S
C146 C147 1.386 . S
C146 C148 1.391 . S
C147 C146 1.386 . S
C147 C151 1.393 . S
C148 H137 0.950 . S
C148 C146 1.391 . S
C148 C149 1.400 . S
C149 C143 1.491 . S
C149 C148 1.400 . S
C149 C150 1.398 . S
C150 H138 0.950 . S
C150 C149 1.398 . S
C150 C151 1.391 . S
C151 H139 0.950 . S
C151 C147 1.393 . S
C151 C150 1.391 . S
H152 C160 0.950 . S
H153 C165 0.950 . S
H154 C162 0.950 1_556 S
H155 C164 0.950 . S
H156 C166 0.950 . S
H157 C168 0.950 1_554 S
H158 C170 0.950 . S
H159 C171 0.950 . S
C160 H152 0.950 . S
C160 C161 1.386 . S
C160 C162 1.391 . S
C161 C160 1.386 . S
C161 C165 1.393 . S
C162 H154 0.950 1_554 S
C162 C160 1.391 . S
C162 C163 1.400 . S
C163 C162 1.400 . S
C163 C164 1.398 . S
C163 C169 1.491 1_554 S
C164 H155 0.950 . S
C164 C163 1.398 . S
C164 C165 1.391 . S
C165 H153 0.950 . S
C165 C161 1.393 . S
C165 C164 1.391 . S
C166 H156 0.950 . S
C166 C167 1.386 . S
C166 C168 1.391 . S
C167 C166 1.386 . S
C167 C171 1.393 . S
C168 H157 0.950 1_556 S
C168 C166 1.391 . S
C168 C169 1.400 . S
C169 C163 1.491 1_556 S
C169 C168 1.400 . S
C169 C170 1.398 . S
C170 H158 0.950 . S
C170 C169 1.398 . S
C170 C171 1.391 . S
C171 H159 0.950 . S
C171 C167 1.393 . S
C171 C170 1.391 . S
H172 C180 0.950 . S
H173 C185 0.950 . S
H174 C182 0.950 . S
H175 C184 0.950 . S
H176 C186 0.950 . S
H177 C188 0.950 . S
H178 C190 0.950 . S
H179 C191 0.950 . S
C180 H172 0.950 . S
C180 C181 1.386 . S
C180 C182 1.391 . S
C181 C180 1.386 . S
C181 C185 1.393 . S
C182 H174 0.950 . S
C182 C180 1.391 . S
C182 C183 1.400 . S
C183 C182 1.400 . S
C183 C184 1.398 . S
C183 C189 1.491 . S
C184 H175 0.950 . S
C184 C183 1.398 . S
C184 C185 1.391 . S
C185 H173 0.950 . S
C185 C181 1.393 . S
C185 C184 1.391 . S
C186 H176 0.950 . S
C186 C187 1.386 . S
C186 C188 1.391 . S
C187 C186 1.386 . S
C187 C191 1.393 . S
C188 H177 0.950 . S
C188 C186 1.391 . S
C188 C189 1.400 . S
C189 C183 1.491 . S
C189 C188 1.400 . S
C189 C190 1.398 . S
C190 H178 0.950 . S
C190 C189 1.398 . S
C190 C191 1.391 . S
C191 H179 0.950 . S
C191 C187 1.393 . S
C191 C190 1.391 . S
H192 C200 0.950 . S
H193 C205 0.950 . S
H194 C202 0.950 . S
H195 C204 0.950 . S
H196 C206 0.950 . S
H197 C208 0.950 . S
H198 C210 0.950 . S
H199 C211 0.950 . S
C200 H192 0.950 . S
C200 C201 1.386 . S
C200 C202 1.391 . S
C201 C200 1.386 . S
C201 C205 1.393 . S
C202 H194 0.950 . S
C202 C200 1.391 . S
C202 C203 1.400 . S
C203 C202 1.400 . S
C203 C204 1.398 . S
C203 C209 1.491 . S
C204 H195 0.950 . S
C204 C203 1.398 . S
C204 C205 1.391 . S
C205 H193 0.950 . S
C205 C201 1.393 . S
C205 C204 1.391 . S
C206 H196 0.950 . S
C206 C207 1.386 . S
C206 C208 1.391 . S
C207 C206 1.386 . S
C207 C211 1.393 . S
C208 H197 0.950 . S
C208 C206 1.391 . S
C208 C209 1.400 . S
C209 C203 1.491 . S
C209 C208 1.400 . S
C209 C210 1.398 . S
C210 H198 0.950 . S
C210 C209 1.398 . S
C210 C211 1.391 . S
C211 H199 0.950 . S
C211 C207 1.393 . S
C211 C210 1.391 . S
H212 C220 0.950 . S
H213 C225 0.950 . S
H214 C222 0.950 . S
H215 C224 0.950 . S
H216 C226 0.950 . S
H217 C228 0.950 . S
H218 C230 0.950 . S
H219 C231 0.950 1_545 S
C220 H212 0.950 . S
C220 C221 1.386 . S
C220 C222 1.391 . S
C221 C220 1.386 . S
C221 C225 1.393 . S
C222 H214 0.950 . S
C222 C220 1.391 . S
C222 C223 1.400 . S
C223 C222 1.400 . S
C223 C224 1.398 . S
C223 C229 1.491 . S
C224 H215 0.950 . S
C224 C223 1.398 . S
C224 C225 1.391 . S
C225 H213 0.950 . S
C225 C221 1.393 . S
C225 C224 1.391 . S
C226 H216 0.950 . S
C226 C227 1.386 1_565 S
C226 C228 1.391 . S
C227 C226 1.386 1_545 S
C227 C231 1.393 1_545 S
C228 H217 0.950 . S
C228 C226 1.391 . S
C228 C229 1.400 . S
C229 C223 1.491 . S
C229 C228 1.400 . S
C229 C230 1.398 . S
C230 H218 0.950 . S
C230 C229 1.398 . S
C230 C231 1.391 . S
C231 H219 0.950 1_565 S
C231 C227 1.393 1_565 S
C231 C230 1.391 . S
H232 C240 0.950 . S
H233 C245 0.950 . S
H234 C242 0.950 . S
H235 C244 0.950 . S
H236 C246 0.950 . S
H237 C248 0.950 . S
H238 C250 0.950 . S
H239 C251 0.950 . S
C240 H232 0.950 . S
C240 C241 1.386 . S
C240 C242 1.391 . S
C241 C240 1.386 . S
C241 C245 1.393 . S
C242 H234 0.950 . S
C242 C240 1.391 . S
C242 C243 1.400 . S
C243 C242 1.400 . S
C243 C244 1.398 . S
C243 C249 1.491 . S
C244 H235 0.950 . S
C244 C243 1.398 . S
C244 C245 1.391 . S
C245 H233 0.950 . S
C245 C241 1.393 . S
C245 C244 1.391 . S
C246 H236 0.950 . S
C246 C247 1.386 . S
C246 C248 1.391 . S
C247 C246 1.386 . S
C247 C251 1.393 . S
C248 H237 0.950 . S
C248 C246 1.391 . S
C248 C249 1.400 . S
C249 C243 1.491 . S
C249 C248 1.400 . S
C249 C250 1.398 . S
C250 H238 0.950 . S
C250 C249 1.398 . S
C250 C251 1.391 . S
C251 H239 0.950 . S
C251 C247 1.393 . S
C251 C250 1.391 . S
H252 C260 0.950 . S
H253 C265 0.950 . S
H254 C262 0.950 . S
H255 C264 0.950 . S
H256 C266 0.950 . S
H257 C268 0.950 . S
H258 C270 0.950 . S
H259 C271 0.950 . S
C260 H252 0.950 . S
C260 C261 1.386 . S
C260 C262 1.391 . S
C261 C260 1.386 . S
C261 C265 1.393 . S
C262 H254 0.950 . S
C262 C260 1.391 . S
C262 C263 1.400 . S
C263 C262 1.400 . S
C263 C264 1.398 . S
C263 C269 1.491 . S
C264 H255 0.950 . S
C264 C263 1.398 . S
C264 C265 1.391 . S
C265 H253 0.950 . S
C265 C261 1.393 . S
C265 C264 1.391 . S
C266 H256 0.950 . S
C266 C267 1.386 . S
C266 C268 1.391 1_565 S
C267 C266 1.386 . S
C267 C271 1.393 1_565 S
C268 H257 0.950 . S
C268 C266 1.391 1_545 S
C268 C269 1.400 . S
C269 C263 1.491 . S
C269 C268 1.400 . S
C269 C270 1.398 . S
C270 H258 0.950 . S
C270 C269 1.398 . S
C270 C271 1.391 . S
C271 H259 0.950 . S
C271 C267 1.393 1_545 S
C271 C270 1.391 . S
H272 C280 0.950 . S
H273 C285 0.950 . S
H274 C282 0.950 . S
H275 C284 0.950 . S
H276 C286 0.950 . S
H277 C288 0.950 . S
H278 C290 0.950 . S
H279 C291 0.950 . S
C280 H272 0.950 . S
C280 C281 1.386 . S
C280 C282 1.391 . S
C281 C280 1.386 . S
C281 C285 1.393 . S
C282 H274 0.950 . S
C282 C280 1.391 . S
C282 C283 1.400 . S
C283 C282 1.400 . S
C283 C284 1.398 . S
C283 C289 1.491 . S
C284 H275 0.950 . S
C284 C283 1.398 . S
C284 C285 1.391 . S
C285 H273 0.950 . S
C285 C281 1.393 . S
C285 C284 1.391 . S
C286 H276 0.950 . S
C286 C287 1.386 1_655 S
C286 C288 1.391 . S
C287 C286 1.386 1_455 S
C287 C291 1.393 . S
C288 H277 0.950 . S
C288 C286 1.391 . S
C288 C289 1.400 . S
C289 C283 1.491 . S
C289 C288 1.400 . S
C289 C290 1.398 . S
C290 H278 0.950 . S
C290 C289 1.398 . S
C290 C291 1.391 1_655 S
C291 H279 0.950 . S
C291 C287 1.393 . S
C291 C290 1.391 1_455 S
H292 C300 0.950 . S
H293 C305 0.950 . S
H294 C302 0.950 . S
H295 C304 0.950 . S
H296 C306 0.950 . S
H297 C308 0.950 . S
H298 C310 0.950 . S
H299 C311 0.950 . S
C300 H292 0.950 . S
C300 C301 1.386 . S
C300 C302 1.391 . S
C301 C300 1.386 . S
C301 C305 1.393 . S
C302 H294 0.950 . S
C302 C300 1.391 . S
C302 C303 1.400 . S
C303 C302 1.400 . S
C303 C304 1.398 . S
C303 C309 1.491 . S
C304 H295 0.950 . S
C304 C303 1.398 . S
C304 C305 1.391 . S
C305 H293 0.950 . S
C305 C301 1.393 . S
C305 C304 1.391 . S
C306 H296 0.950 . S
C306 C307 1.386 . S
C306 C308 1.391 . S
C307 C306 1.386 . S
C307 C311 1.393 . S
C308 H297 0.950 . S
C308 C306 1.391 . S
C308 C309 1.400 . S
C309 C303 1.491 . S
C309 C308 1.400 . S
C309 C310 1.398 . S
C310 H298 0.950 . S
C310 C309 1.398 . S
C310 C311 1.391 . S
C311 H299 0.950 . S
C311 C307 1.393 . S
C311 C310 1.391 . S
H312 C320 0.950 . S
H313 C325 0.950 . S
H314 C322 0.950 . S
H315 C324 0.950 . S
H316 C326 0.968 . S
H317 C328 0.950 . S
H318 C330 0.950 . S
H319 C331 0.950 . S
C320 H312 0.950 . S
C320 C321 1.386 . S
C320 C322 1.391 . S
C321 C320 1.386 . S
C321 C325 1.393 . S
C322 H314 0.950 . S
C322 C320 1.391 . S
C322 C323 1.400 . S
C323 C322 1.400 . S
C323 C324 1.398 . S
C323 C329 1.491 . S
C324 H315 0.950 . S
C324 C323 1.398 . S
C324 C325 1.391 . S
C325 H313 0.950 . S
C325 C321 1.393 . S
C325 C324 1.391 . S
C326 H316 0.968 . S
C326 C327 1.388 . S
C326 C328 1.371 1_655 S
C327 C326 1.388 . S
C327 C331 1.393 1_655 S
C328 H317 0.950 . S
C328 C326 1.371 1_455 S
C328 C329 1.400 . S
C329 C323 1.491 . S
C329 C328 1.400 . S
C329 C330 1.398 . S
C330 H318 0.950 . S
C330 C329 1.398 . S
C330 C331 1.391 . S
C331 H319 0.950 . S
C331 C327 1.393 1_455 S
C331 C330 1.391 . S
H332 C340 0.950 . S
H333 C345 0.950 . S
H334 C342 0.950 . S
H335 C344 0.950 . S
H336 C346 0.950 . S
H337 C348 0.950 . S
H338 C350 0.950 . S
H339 C351 0.950 . S
C340 H332 0.950 . S
C340 C341 1.386 . S
C340 C342 1.391 . S
C341 C340 1.386 . S
C341 C345 1.393 . S
C342 H334 0.950 . S
C342 C340 1.391 . S
C342 C343 1.400 . S
C343 C342 1.400 . S
C343 C344 1.398 . S
C343 C349 1.491 . S
C344 H335 0.950 . S
C344 C343 1.398 . S
C344 C345 1.391 . S
C345 H333 0.950 . S
C345 C341 1.393 . S
C345 C344 1.391 . S
C346 H336 0.950 . S
C346 C347 1.386 . S
C346 C348 1.391 . S
C347 C346 1.386 . S
C347 C351 1.393 . S
C348 H337 0.950 . S
C348 C346 1.391 . S
C348 C349 1.400 . S
C349 C343 1.491 . S
C349 C348 1.400 . S
C349 C350 1.398 . S
C350 H338 0.950 . S
C350 C349 1.398 . S
C350 C351 1.391 . S
C351 H339 0.950 . S
C351 C347 1.393 . S
C351 C350 1.391 . S
H352 C360 0.950 . S
H353 C365 0.950 . S
H354 C362 0.950 . S
H355 C364 0.950 1_455 S
H356 C366 0.950 . S
H357 C368 0.950 . S
H358 C370 0.950 1_655 S
H359 C371 0.950 . S
C360 H352 0.950 . S
C360 C361 1.386 . S
C360 C362 1.391 . S
C361 C360 1.386 . S
C361 C365 1.393 . S
C362 H354 0.950 . S
C362 C360 1.391 . S
C362 C363 1.400 . S
C363 C362 1.400 . S
C363 C364 1.398 . S
C363 C369 1.491 1_655 S
C364 H355 0.950 1_655 S
C364 C363 1.398 . S
C364 C365 1.391 . S
C365 H353 0.950 . S
C365 C361 1.393 . S
C365 C364 1.391 . S
C366 H356 0.950 . S
C366 C367 1.386 . S
C366 C368 1.391 . S
C367 C366 1.386 . S
C367 C371 1.393 . S
C368 H357 0.950 . S
C368 C366 1.391 . S
C368 C369 1.400 . S
C369 C363 1.491 1_455 S
C369 C368 1.400 . S
C369 C370 1.398 . S
C370 H358 0.950 1_455 S
C370 C369 1.398 . S
C370 C371 1.391 . S
C371 H359 0.950 . S
C371 C367 1.393 . S
C371 C370 1.391 . S
H372 C380 0.950 . S
H373 C385 0.950 . S
H374 C382 0.950 . S
H375 C384 0.950 1_455 S
H376 C386 0.950 . S
H377 C388 0.950 . S
H378 C390 0.950 1_655 S
H379 C391 0.950 . S
C380 H372 0.950 . S
C380 C381 1.386 . S
C380 C382 1.391 . S
C381 C380 1.386 . S
C381 C385 1.393 . S
C382 H374 0.950 . S
C382 C380 1.391 . S
C382 C383 1.400 . S
C383 C382 1.400 . S
C383 C384 1.398 . S
C383 C389 1.491 1_655 S
C384 H375 0.950 1_655 S
C384 C383 1.398 . S
C384 C385 1.391 . S
C385 H373 0.950 . S
C385 C381 1.393 . S
C385 C384 1.391 . S
C386 H376 0.950 . S
C386 C387 1.386 . S
C386 C388 1.391 . S
C387 C386 1.386 . S
C387 C391 1.393 . S
C388 H377 0.950 . S
C388 C386 1.391 . S
C388 C389 1.400 . S
C389 C383 1.491 1_455 S
C389 C388 1.400 . S
C389 C390 1.398 . S
C390 H378 0.950 1_455 S
C390 C389 1.398 . S
C390 C391 1.391 . S
C391 H379 0.950 . S
C391 C387 1.393 . S
C391 C390 1.391 . S
H392 C400 0.950 . S
H393 C405 0.950 . S
H394 C402 0.950 1_565 S
H395 C404 0.950 . S
H396 C406 0.950 . S
H397 C408 0.950 1_545 S
H398 C410 0.950 . S
H399 C411 0.950 . S
C400 H392 0.950 . S
C400 C401 1.386 . S
C400 C402 1.391 . S
C401 C400 1.386 . S
C401 C405 1.393 . S
C402 H394 0.950 1_545 S
C402 C400 1.391 . S
C402 C403 1.400 . S
C403 C402 1.400 . S
C403 C404 1.398 . S
C403 C409 1.491 1_545 S
C404 H395 0.950 . S
C404 C403 1.398 . S
C404 C405 1.391 . S
C405 H393 0.950 . S
C405 C401 1.393 . S
C405 C404 1.391 . S
C406 H396 0.950 . S
C406 C407 1.386 . S
C406 C408 1.391 . S
C407 C406 1.386 . S
C407 C411 1.393 . S
C408 H397 0.950 1_565 S
C408 C406 1.391 . S
C408 C409 1.400 . S
C409 C403 1.491 1_565 S
C409 C408 1.400 . S
C409 C410 1.398 . S
C410 H398 0.950 . S
C410 C409 1.398 . S
C410 C411 1.391 . S
C411 H399 0.950 . S
C411 C407 1.393 . S
C411 C410 1.391 . S
H412 C420 0.950 . S
H413 C425 0.950 . S
H414 C422 0.950 . S
H415 C424 0.950 1_565 S
H416 C426 0.950 . S
H417 C428 0.950 . S
H418 C430 0.950 1_545 S
H419 C431 0.950 . S
C420 H412 0.950 . S
C420 C421 1.386 . S
C420 C422 1.391 . S
C421 C420 1.386 . S
C421 C425 1.393 . S
C422 H414 0.950 . S
C422 C420 1.391 . S
C422 C423 1.400 . S
C423 C422 1.400 . S
C423 C424 1.398 . S
C423 C429 1.491 1_545 S
C424 H415 0.950 1_545 S
C424 C423 1.398 . S
C424 C425 1.391 . S
C425 H413 0.950 . S
C425 C421 1.393 . S
C425 C424 1.391 . S
C426 H416 0.950 . S
C426 C427 1.386 . S
C426 C428 1.391 . S
C427 C426 1.386 . S
C427 C431 1.393 . S
C428 H417 0.950 . S
C428 C426 1.391 . S
C428 C429 1.400 . S
C429 C423 1.491 1_565 S
C429 C428 1.400 . S
C429 C430 1.398 . S
C430 H418 0.950 1_565 S
C430 C429 1.398 . S
C430 C431 1.391 . S
C431 H419 0.950 . S
C431 C427 1.393 . S
C431 C430 1.391 . S
C121 C8 1.518 . S
C127 C78 1.524 . S
C141 C22 1.509 . S
C147 C92 1.507 . S
C161 C36 1.510 . S
C167 C106 1.521 . S
C181 C64 1.508 . S
C187 C50 1.518 . S
C201 C6 1.478 . S
C207 C63 1.496 . S
C221 C20 1.477 . S
C227 C77 1.496 . S
C241 C91 1.480 . S
C247 C34 1.466 . S
C261 C48 1.482 . S
C267 C105 1.480 . S
C281 C62 1.469 . S
C287 C7 1.492 . S
C301 C21 1.480 . S
C307 C76 1.466 . S
C321 C90 1.481 . S
C327 C35 1.479 . S
C341 C49 1.482 . S
C347 C104 1.485 . S
C361 C37 0.968 . S
C367 C9 0.959 . S
C381 C51 0.993 . S
C387 C23 1.004 . S
C401 C65 0.988 . S
C407 C93 0.970 . S
C421 C79 0.978 . S
C427 C107 0.962 . S
