# Generated by pormake.
# Topology fns, (5)-cn, num edge types: 1
# Building blocks:
#     Node 0, Type 0, BuildingBlock: BEQFEK_clean_sbu_0, # of connection points: 5
#     Node 1, Type 0, BuildingBlock: BEQFEK_clean_sbu_0, # of connection points: 5
#     Node 2, Type 0, BuildingBlock: BEQFEK_clean_sbu_0, # of connection points: 5
#     Node 3, Type 0, BuildingBlock: BEQFEK_clean_sbu_0, # of connection points: 5
#     Node 4, Type 0, BuildingBlock: BEQFEK_clean_sbu_0, # of connection points: 5
#     Node 5, Type 0, BuildingBlock: BEQFEK_clean_sbu_0, # of connection points: 5
#     Edge 6, Type (0, 0), BuildingBlock: XIVTED_clean_linker_0, # of connection points: 2
#     Edge 7, Type (0, 0), BuildingBlock: XIVTED_clean_linker_0, # of connection points: 2
#     Edge 8, Type (0, 0), BuildingBlock: XIVTED_clean_linker_0, # of connection points: 2
#     Edge 9, Type (0, 0), BuildingBlock: XIVTED_clean_linker_0, # of connection points: 2
#     Edge 10, Type (0, 0), BuildingBlock: XIVTED_clean_linker_0, # of connection points: 2
#     Edge 11, Type (0, 0), BuildingBlock: XIVTED_clean_linker_0, # of connection points: 2
#     Edge 12, Type (0, 0), BuildingBlock: XIVTED_clean_linker_0, # of connection points: 2
#     Edge 13, Type (0, 0), BuildingBlock: XIVTED_clean_linker_0, # of connection points: 2
#     Edge 14, Type (0, 0), BuildingBlock: XIVTED_clean_linker_0, # of connection points: 2
#     Edge 15, Type (0, 0), BuildingBlock: XIVTED_clean_linker_0, # of connection points: 2
#     Edge 16, Type (0, 0), BuildingBlock: XIVTED_clean_linker_0, # of connection points: 2
#     Edge 17, Type (0, 0), BuildingBlock: XIVTED_clean_linker_0, # of connection points: 2
#     Edge 18, Type (0, 0), BuildingBlock: XIVTED_clean_linker_0, # of connection points: 2
#     Edge 19, Type (0, 0), BuildingBlock: XIVTED_clean_linker_0, # of connection points: 2
#     Edge 20, Type (0, 0), BuildingBlock: XIVTED_clean_linker_0, # of connection points: 2
# Relax obj value: 0.269
# Max RMSD: 0.257
# Mean RMSD: 0.257
data_MOF--net-fns--node1-BEQFEK_clean_sbu_0--edge1-XIVTED_clean_linker_0
_symmetry_space_group_name_H-M    P1
_symmetry_Int_Tables_number       1
_symmetry_cell_setting            triclinic
loop_
_symmetry_equiv_pos_as_xyz
'x, y, z'
_cell_length_a     54.855212
_cell_length_b     54.920379
_cell_length_c     18.620003
_cell_angle_alpha  90.078826
_cell_angle_beta   89.979274
_cell_angle_gamma 120.04397
loop_
_atom_site_label
_atom_site_type_symbol
_atom_site_fract_x
_atom_site_fract_y
_atom_site_fract_z
_atom_type_partial_charge
Co0 Co 0.17389 0.62558 0.08988 0.0
Co1 Co 0.16898 0.5999 0.24281 0.0
C2 C 0.20546 0.662 0.21303 0.0
O3 O 0.19865 0.66026 0.14709 0.0
O4 O 0.19551 0.64028 0.25234 0.0
C5 C 0.15936 0.64686 0.95956 0.0
O6 O 0.14235 0.6521 -0.00236 0.0
C7 C 0.15599 0.6008 0.39195 0.0
C8 C 0.15767 0.56501 0.44003 0.0
C9 C 0.15387 0.58752 0.45628 0.0
N10 N 0.16087 0.58702 0.33947 0.0
N11 N 0.16167 0.56544 0.36833 0.0
C12 C 0.15188 0.62547 0.38032 0.0
H13 H 0.14971 0.62862 0.32237 0.0
H14 H 0.13276 0.62209 0.40938 0.0
H15 H 0.16998 0.64462 0.40308 0.0
C16 C 0.11169 0.58651 0.09662 0.0
N17 N 0.13716 0.60171 0.12833 0.0
N18 N 0.13549 0.59245 0.19441 0.0
C19 C 0.10881 0.57224 0.20794 0.0
C20 C 0.0929 0.56757 0.14629 0.0
C21 C 0.10692 0.5852 0.01717 0.0
H22 H 0.12638 0.58993 0.98795 0.0
H23 H 0.10048 0.6007 0.00225 0.0
H24 H 0.08988 0.5641 0.00023 0.0
O25 O 0.19163 0.60234 0.08315 0.0
O26 O 0.18784 0.58209 0.18921 0.0
H27 H 0.10993 0.54328 0.28284 0.0
H28 H 0.07622 0.5418 0.27823 0.0
C29 C 0.09938 0.5559 0.27656 0.0
H30 H 0.10541 0.57064 0.32241 0.0
H31 H 0.1657 0.55152 0.33953 0.0
O32 O 0.17305 0.63663 0.9894 0.0
C33 C 0.19549 0.58587 0.12342 0.0
Co34 Co 0.54435 0.17599 0.43086 0.0
Co35 Co 0.57315 0.17396 0.57337 0.0
C36 C 0.54558 0.20995 0.55342 0.0
O37 O 0.53689 0.202 0.48952 0.0
O38 O 0.55948 0.2007 0.58674 0.0
C39 C 0.53849 0.19101 0.2911 0.0
O40 O 0.55515 0.21633 0.31698 0.0
C41 C 0.56518 0.16352 0.7242 0.0
C42 C 0.60595 0.17017 0.76386 0.0
C43 C 0.57962 0.16491 0.78602 0.0
N44 N 0.582 0.16786 0.66766 0.0
N45 N 0.60631 0.17147 0.6914 0.0
C46 C 0.5356 0.15796 0.71915 0.0
H47 H 0.52804 0.15397 0.66278 0.0
H48 H 0.5216 0.13951 0.75285 0.0
H49 H 0.53447 0.17619 0.74053 0.0
C50 C 0.51587 0.11429 0.44971 0.0
N51 N 0.53193 0.14067 0.4749 0.0
N52 N 0.54497 0.1399 0.53333 0.0
C53 C 0.5378 0.11312 0.54717 0.0
C54 C 0.51925 0.09598 0.4944 0.0
C55 C 0.50161 0.10751 0.37807 0.0
H56 H 0.51785 0.1146 0.33536 0.0
H57 H 0.48991 0.119 0.37152 0.0
H58 H 0.48692 0.08463 0.37161 0.0
O59 O 0.58523 0.19337 0.41204 0.0
O60 O 0.6069 0.19119 0.51046 0.0
H61 H 0.5737 0.11657 0.60203 0.0
H62 H 0.54281 0.08168 0.60569 0.0
C63 C 0.5504 0.10457 0.60644 0.0
H64 H 0.5446 0.10987 0.65878 0.0
H65 H 0.62354 0.17615 0.6586 0.0
O66 O 0.52832 0.17022 0.33375 0.0
C67 C 0.60749 0.19784 0.44464 0.0
Co68 Co 0.36496 0.54962 0.75374 0.0
Co69 Co 0.39547 0.57046 0.90133 0.0
C70 C 0.33292 0.5487 0.88116 0.0
O71 O 0.33208 0.54224 0.81509 0.0
O72 O 0.35592 0.55996 0.91592 0.0
C73 C 0.33828 0.5188 0.614 0.0
O74 O 0.32347 0.49378 0.64303 0.0
C75 C 0.39718 0.5565 0.04953 0.0
C76 C 0.43065 0.5964 0.09531 0.0
C77 C 0.40962 0.56949 0.11386 0.0
N78 N 0.41006 0.57487 0.99586 0.0
N79 N 0.43047 0.59852 0.02327 0.0
C80 C 0.37129 0.52834 0.03961 0.0
H81 H 0.35405 0.52663 0.07434 0.0
H82 H 0.36447 0.52474 0.98271 0.0
H83 H 0.37586 0.5116 0.05566 0.0
C84 C 0.39491 0.5168 0.75832 0.0
N85 N 0.38571 0.53298 0.78917 0.0
N86 N 0.39829 0.54188 0.85178 0.0
C87 C 0.41531 0.53122 0.86338 0.0
C88 C 0.41357 0.51487 0.80487 0.0
C89 C 0.38882 0.50635 0.68258 0.0
H90 H 0.39219 0.52372 0.64616 0.0
H91 H 0.36652 0.48945 0.67862 0.0
H92 H 0.40231 0.49768 0.66519 0.0
O93 O 0.39133 0.59036 0.74622 0.0
O94 O 0.41533 0.60665 0.8477 0.0
H95 H 0.44707 0.56313 0.93025 0.0
H96 H 0.45153 0.53299 0.91573 0.0
C97 C 0.4359 0.53992 0.92415 0.0
H98 H 0.42429 0.53043 0.97462 0.0
H99 H 0.44296 0.61668 0.99346 0.0
O100 O 0.35393 0.54006 0.65256 0.0
C101 C 0.41022 0.61042 0.78318 0.0
Co102 Co 0.81268 0.36336 0.05995 0.0
Co103 Co 0.82051 0.39286 0.20811 0.0
C104 C 0.7802 0.33048 0.18475 0.0
O105 O 0.78639 0.33012 0.11896 0.0
O106 O 0.79161 0.35317 0.22076 0.0
C107 C 0.81842 0.33723 0.92104 0.0
O108 O 0.8286 0.32249 0.95059 0.0
C109 C 0.83511 0.39467 0.35735 0.0
C110 C 0.82773 0.4277 0.40174 0.0
C111 C 0.83404 0.40708 0.4212 0.0
N112 N 0.82955 0.40721 0.30303 0.0
N113 N 0.82571 0.42735 0.32962 0.0
C114 C 0.83811 0.36919 0.34839 0.0
H115 H 0.82306 0.35205 0.38404 0.0
H116 H 0.83472 0.36196 0.29182 0.0
H117 H 0.85971 0.37444 0.36397 0.0
C118 C 0.87557 0.39361 0.06971 0.0
N119 N 0.84976 0.38413 0.09835 0.0
N120 N 0.85262 0.39628 0.16124 0.0
C121 C 0.88014 0.41332 0.17522 0.0
C122 C 0.89557 0.41202 0.11804 0.0
C123 C 0.88092 0.38777 0.99463 0.0
H124 H 0.87555 0.36551 0.99073 0.0
H125 H 0.90332 0.40131 0.97915 0.0
H126 H 0.86735 0.39123 0.95674 0.0
O127 O 0.79795 0.3894 0.05075 0.0
O128 O 0.80451 0.41264 0.15301 0.0
H129 H 0.87858 0.44426 0.24239 0.0
H130 H 0.91366 0.44979 0.22941 0.0
C131 C 0.89117 0.43366 0.2367 0.0
H132 H 0.88909 0.42198 0.28696 0.0
H133 H 0.81993 0.43958 0.29909 0.0
O134 O 0.81239 0.35266 0.95917 0.0
C135 C 0.79622 0.40792 0.08794 0.0
Co136 Co 0.44702 0.81538 0.4191 0.0
Co137 Co 0.4229 0.8199 0.56694 0.0
C138 C 0.45064 0.78455 0.54345 0.0
O139 O 0.45717 0.79139 0.478 0.0
O140 O 0.43728 0.79382 0.57911 0.0
C141 C 0.48024 0.82488 0.28073 0.0
O142 O 0.50525 0.83869 0.31058 0.0
C143 C 0.43536 0.8348 0.71596 0.0
C144 C 0.39396 0.82336 0.76228 0.0
C145 C 0.42176 0.8324 0.78042 0.0
N146 N 0.41658 0.82756 0.66239 0.0
N147 N 0.39193 0.82119 0.69017 0.0
C148 C 0.46496 0.84082 0.7057 0.0
H149 H 0.46911 0.83829 0.64874 0.0
H150 H 0.47986 0.86283 0.72175 0.0
H151 H 0.46897 0.82676 0.74032 0.0
C152 C 0.47355 0.87803 0.42886 0.0
N153 N 0.45985 0.85199 0.45777 0.0
N154 N 0.44931 0.85336 0.52024 0.0
C155 C 0.45611 0.8801 0.53339 0.0
C156 C 0.47162 0.8966 0.47598 0.0
C157 C 0.48408 0.88425 0.35321 0.0
H158 H 0.46819 0.86831 0.31648 0.0
H159 H 0.50373 0.88328 0.34926 0.0
H160 H 0.48867 0.90547 0.33606 0.0
O161 O 0.40574 0.79724 0.40935 0.0
O162 O 0.38713 0.80132 0.51129 0.0
H163 H 0.42261 0.87613 0.60066 0.0
H164 H 0.45218 0.9117 0.5949 0.0
C165 C 0.44587 0.88914 0.59709 0.0
H166 H 0.45497 0.88575 0.64655 0.0
H167 H 0.37341 0.81371 0.66043 0.0
O168 O 0.45812 0.81599 0.31841 0.0
C169 C 0.38452 0.79342 0.44596 0.0
Co170 Co 0.6261 0.44903 0.7437 0.0
Co171 Co 0.60133 0.42922 0.89757 0.0
C172 C 0.66323 0.45439 0.86569 0.0
O173 O 0.66104 0.45903 0.79973 0.0
O174 O 0.64176 0.44291 0.90608 0.0
C175 C 0.64779 0.48499 0.61438 0.0
O176 O 0.65355 0.50719 0.65331 0.0
C177 C 0.60273 0.4433 0.04666 0.0
C178 C 0.56638 0.40626 0.0949 0.0
C179 C 0.58928 0.43238 0.111 0.0
N180 N 0.58866 0.42468 0.99432 0.0
N181 N 0.56677 0.40255 0.02325 0.0
C182 C 0.62771 0.4719 0.03478 0.0
H183 H 0.63063 0.4773 0.97686 0.0
H184 H 0.6249 0.48782 0.06469 0.0
H185 H 0.64682 0.47254 0.05635 0.0
C186 C 0.58797 0.47323 0.75197 0.0
N187 N 0.60286 0.46249 0.78284 0.0
N188 N 0.59396 0.45523 0.84932 0.0
C189 C 0.57425 0.46228 0.86384 0.0
C190 C 0.56957 0.47362 0.80253 0.0
C191 C 0.58651 0.47692 0.67271 0.0
H192 H 0.59065 0.46193 0.64279 0.0
H193 H 0.6024 0.49875 0.65789 0.0
H194 H 0.56553 0.47345 0.65662 0.0
O195 O 0.6024 0.40796 0.73759 0.0
O196 O 0.58294 0.39243 0.84491 0.0
H197 H 0.54542 0.43273 0.94005 0.0
H198 H 0.54451 0.46521 0.9353 0.0
C199 C 0.55833 0.45586 0.93312 0.0
H200 H 0.57339 0.46461 0.97833 0.0
H201 H 0.55255 0.3847 0.99451 0.0
O202 O 0.63699 0.46088 0.64331 0.0
C203 C 0.58608 0.388 0.77908 0.0
H204 H 0.19476 0.57196 0.98332 0.0
H205 H 0.32465 0.54792 0.02566 0.0
H206 H 0.2282 0.56731 0.18927 0.0
H207 H 0.28345 0.54117 0.82313 0.0
H208 H 0.28622 0.54913 0.08779 0.0
H209 H 0.22321 0.55494 0.9257 0.0
C210 C 0.20794 0.56706 0.01658 0.0
C211 C 0.2095 0.57149 0.09114 0.0
C212 C 0.28531 0.54697 0.02988 0.0
C213 C 0.24245 0.5522 0.02513 0.0
C214 C 0.3073 0.54632 0.9942 0.0
C215 C 0.30749 0.54487 0.91884 0.0
C216 C 0.26343 0.54655 0.99 0.0
C217 C 0.28427 0.5425 0.88117 0.0
C218 C 0.22413 0.55724 0.98356 0.0
C219 C 0.22653 0.56434 0.13162 0.0
N220 N 0.26338 0.54387 0.91711 0.0
N221 N 0.24276 0.55549 0.09789 0.0
H222 H 0.61466 0.20382 0.29938 0.0
H223 H 0.77581 0.31841 0.32717 0.0
H224 H 0.66152 0.2233 0.4978 0.0
H225 H 0.73418 0.28486 0.12465 0.0
H226 H 0.73545 0.28098 0.38965 0.0
H227 H 0.65871 0.23058 0.23378 0.0
C228 C 0.63426 0.21356 0.32921 0.0
C229 C 0.63437 0.21165 0.40446 0.0
C230 C 0.73524 0.28144 0.33152 0.0
C231 C 0.68498 0.24247 0.32931 0.0
C232 C 0.7583 0.30284 0.29575 0.0
C233 C 0.75819 0.3049 0.22063 0.0
C234 C 0.71157 0.2622 0.29206 0.0
C235 C 0.73507 0.28405 0.18262 0.0
C236 C 0.65944 0.22873 0.29154 0.0
C237 C 0.66043 0.22439 0.43994 0.0
N238 N 0.71241 0.26382 0.21888 0.0
N239 N 0.68467 0.2396 0.40212 0.0
H240 H 0.45634 0.77885 0.68657 0.0
H241 H 0.41979 0.62168 0.64071 0.0
H242 H 0.45686 0.74254 0.4814 0.0
H243 H 0.43597 0.66268 0.84716 0.0
H244 H 0.43922 0.66724 0.58205 0.0
H245 H 0.4554 0.73901 0.74663 0.0
C246 C 0.45678 0.7627 0.65412 0.0
C247 C 0.45622 0.76377 0.5788 0.0
C248 C 0.43895 0.66643 0.64016 0.0
C249 C 0.45463 0.71776 0.6474 0.0
C250 C 0.42773 0.64038 0.67378 0.0
C251 C 0.4258 0.63838 0.74897 0.0
C252 C 0.44789 0.69073 0.68187 0.0
C253 C 0.43686 0.6633 0.78907 0.0
C254 C 0.45626 0.73994 0.68853 0.0
C255 C 0.45713 0.74245 0.53953 0.0
N256 N 0.44696 0.68845 0.75496 0.0
N257 N 0.45571 0.71999 0.57432 0.0
H258 H 0.67995 0.46376 0.0054 0.0
H259 H 0.79033 0.41386 0.9448 0.0
H260 H 0.70744 0.45472 0.79519 0.0
H261 H 0.77373 0.43736 0.15263 0.0
H262 H 0.76476 0.43435 0.88825 0.0
H263 H 0.71874 0.46073 0.05896 0.0
C264 C 0.69453 0.46175 0.97033 0.0
C265 C 0.69022 0.45916 0.89576 0.0
C266 C 0.76699 0.43541 0.94613 0.0
C267 C 0.73448 0.45494 0.957 0.0
C268 C 0.78148 0.42356 0.97862 0.0
C269 C 0.78373 0.42344 0.05377 0.0
C270 C 0.75423 0.4469 0.98901 0.0
C271 C 0.77228 0.43676 0.09461 0.0
C272 C 0.71671 0.45995 0.00104 0.0
C273 C 0.70992 0.45672 0.85294 0.0
N274 N 0.75761 0.44755 0.06174 0.0
N275 N 0.7309 0.45408 0.88431 0.0
H276 H 0.37382 0.78609 0.30222 0.0
H277 H 0.21167 0.6785 0.35273 0.0
H278 H 0.33183 0.77001 0.50736 0.0
H279 H 0.25071 0.70554 0.14503 0.0
H280 H 0.25376 0.71612 0.40896 0.0
H281 H 0.32823 0.76065 0.24302 0.0
C282 C 0.35497 0.77729 0.33495 0.0
C283 C 0.35668 0.77979 0.41016 0.0
C284 C 0.25302 0.71426 0.35099 0.0
C285 C 0.30422 0.75054 0.34219 0.0
C286 C 0.2289 0.69278 0.31877 0.0
C287 C 0.22777 0.68868 0.24417 0.0
C288 C 0.27652 0.73151 0.30843 0.0
C289 C 0.2507 0.70793 0.20275 0.0
C290 C 0.3289 0.7629 0.30088 0.0
C291 C 0.33151 0.76837 0.44939 0.0
N292 N 0.27441 0.72821 0.2356 0.0
N293 N 0.30631 0.75389 0.41499 0.0
H294 H 0.54868 0.2211 0.69664 0.0
H295 H 0.57266 0.37328 0.63907 0.0
H296 H 0.53441 0.24907 0.49272 0.0
H297 H 0.56577 0.33742 0.84929 0.0
H298 H 0.55426 0.32679 0.58585 0.0
H299 H 0.55013 0.2614 0.75476 0.0
C300 C 0.54529 0.23544 0.66415 0.0
C301 C 0.54161 0.23175 0.58947 0.0
C302 C 0.55635 0.32893 0.64368 0.0
C303 C 0.54397 0.27859 0.65587 0.0
C304 C 0.56699 0.35551 0.67418 0.0
C305 C 0.57121 0.35927 0.7487 0.0
C306 C 0.55029 0.30592 0.68781 0.0
C307 C 0.56305 0.33547 0.79159 0.0
C308 C 0.54616 0.25854 0.69753 0.0
C309 C 0.53738 0.25113 0.55034 0.0
N310 N 0.55344 0.30984 0.76037 0.0
N311 N 0.53921 0.27404 0.58384 0.0
H312 H 0.20306 0.66674 0.86652 0.0
H313 H 0.11422 0.56157 0.56106 0.0
H314 H 0.11238 0.62267 0.87545 0.0
H315 H 0.19183 0.63769 0.5136 0.0
H316 H 0.1138 0.58072 0.68061 0.0
H317 H 0.20046 0.65484 0.73889 0.0
C318 C 0.18262 0.65518 0.84087 0.0
C319 C 0.1579 0.64586 0.88085 0.0
C320 C 0.13072 0.59328 0.64355 0.0
C321 C 0.15474 0.63109 0.73657 0.0
C322 C 0.13108 0.58229 0.57603 0.0
C323 C 0.15304 0.5982 0.52812 0.0
C324 C 0.15288 0.61997 0.6633 0.0
C325 C 0.17444 0.62495 0.54926 0.0
C326 C 0.18113 0.64827 0.76839 0.0
C327 C 0.13188 0.63051 0.84589 0.0
N328 N 0.17402 0.63491 0.61571 0.0
N329 N 0.13093 0.62304 0.77581 0.0
H330 H 0.57166 0.13091 0.90096 0.0
H331 H 0.55471 0.2296 0.18262 0.0
H332 H 0.56914 0.20495 0.83654 0.0
H333 H 0.52209 0.14115 0.22204 0.0
H334 H 0.5623 0.22225 0.05682 0.0
H335 H 0.55687 0.13571 0.02251 0.0
C336 C 0.56798 0.14813 0.91273 0.0
C337 C 0.57138 0.16748 0.85942 0.0
C338 C 0.55312 0.2044 0.09291 0.0
C339 C 0.5548 0.17326 -0.00315 0.0
C340 C 0.5487 0.20857 0.16459 0.0
C341 C 0.53795 0.18601 0.21302 0.0
C342 C 0.54723 0.17762 0.07 0.0
C343 C 0.53052 0.15918 0.18671 0.0
C344 C 0.55937 0.15077 0.98153 0.0
C345 C 0.56642 0.18949 0.87653 0.0
N346 N 0.53574 0.15581 0.1172 0.0
N347 N 0.55856 0.19193 0.94403 0.0
H348 H 0.3478 0.56491 0.53973 0.0
H349 H 0.38925 0.5172 0.17565 0.0
H350 H 0.33703 0.48214 0.51127 0.0
H351 H 0.40395 0.60072 0.2182 0.0
H352 H 0.36651 0.50208 0.29332 0.0
H353 H 0.36309 0.57592 0.41556 0.0
C354 C 0.34819 0.54885 0.50667 0.0
C355 C 0.34128 0.52264 0.53566 0.0
C356 C 0.37463 0.52367 0.27667 0.0
C357 C 0.35956 0.53534 0.39367 0.0
C358 C 0.38749 0.53228 0.20944 0.0
C359 C 0.39813 0.56016 0.18679 0.0
C360 C 0.37246 0.54313 0.32129 0.0
C361 C 0.39613 0.57906 0.23364 0.0
C362 C 0.35713 0.55521 0.43587 0.0
C363 C 0.34205 0.50255 0.49062 0.0
N364 N 0.38344 0.57017 0.29842 0.0
N365 N 0.35146 0.50945 0.42181 0.0
H366 H 0.85375 0.33561 0.81855 0.0
H367 H 0.79664 0.40099 0.52442 0.0
H368 H 0.78173 0.34652 0.84644 0.0
H369 H 0.86672 0.38792 0.48453 0.0
H370 H 0.79043 0.37932 0.64192 0.0
H371 H 0.85725 0.35094 0.69296 0.0
C372 C 0.83829 0.34052 0.79766 0.0
C373 C 0.81754 0.34002 0.84266 0.0
C374 C 0.80713 0.38102 0.60752 0.0
C375 C 0.8217 0.35799 0.70076 0.0
C376 C 0.81084 0.39367 0.54066 0.0
C377 C 0.832 0.39594 0.49441 0.0
C378 C 0.82491 0.37079 0.62887 0.0
C379 C 0.8497 0.38593 0.51792 0.0
C380 C 0.84045 0.34954 0.72642 0.0
C381 C 0.79821 0.34689 0.81355 0.0
N382 N 0.84579 0.37378 0.58373 0.0
N383 N 0.80091 0.35581 0.74476 0.0
H384 H 0.438 0.78281 0.20603 0.0
H385 H 0.47263 0.8704 0.84105 0.0
H386 H 0.51328 0.86333 0.17824 0.0
H387 H 0.39485 0.79385 0.88509 0.0
H388 H 0.4906 0.86665 0.95862 0.0
H389 H 0.42551 0.784 0.08132 0.0
C390 C 0.45218 0.80055 0.17299 0.0
C391 C 0.4766 0.82308 0.2023 0.0
C392 C 0.46966 0.85064 0.94234 0.0
C393 C 0.46206 0.82502 0.05979 0.0
C394 C 0.45945 0.8527 0.8752 0.0
C395 C 0.43236 0.83219 0.8531 0.0
C396 C 0.4526 0.82788 0.98735 0.0
C397 C 0.41581 0.81018 0.90023 0.0
C398 C 0.44494 0.80133 0.10191 0.0
C399 C 0.49432 0.8455 0.15732 0.0
N400 N 0.42623 0.80855 0.96493 0.0
N401 N 0.48648 0.84612 0.08824 0.0
H402 H 0.56324 0.44591 0.21591 0.0
H403 H 0.66806 0.46178 0.52084 0.0
H404 H 0.63956 0.44484 0.168 0.0
H405 H 0.62399 0.50825 0.53102 0.0
H406 H 0.65653 0.45302 0.39296 0.0
H407 H 0.58238 0.46546 0.33548 0.0
C408 C 0.58401 0.44988 0.23077 0.0
C409 C 0.59999 0.44396 0.18274 0.0
C410 C 0.6499 0.46566 0.42278 0.0
C411 C 0.62174 0.46586 0.31789 0.0
C412 C 0.6566 0.47076 0.4954 0.0
C413 C 0.64715 0.48593 0.53577 0.0
C414 C 0.63278 0.47495 0.39123 0.0
C415 C 0.63192 0.49675 0.50112 0.0
C416 C 0.595 0.46122 0.29829 0.0
C417 C 0.62679 0.44943 0.20372 0.0
N418 N 0.62463 0.49052 0.43087 0.0
N419 N 0.63673 0.45978 0.27017 0.0
H420 H 0.91847 0.45711 0.02883 0.0
H421 H 0.07515 0.51222 0.17035 0.0
H422 H 0.94005 0.41212 0.18156 0.0
H423 H 0.04766 0.56735 0.08457 0.0
H424 H 0.02788 0.47213 0.15136 0.0
H425 H 0.96818 0.49442 0.02451 0.0
C426 C 0.93392 0.45489 0.05998 0.0
C427 C 0.92559 0.43167 0.10511 0.0
C428 C 0.03217 0.49298 0.13662 0.0
C429 C 0.98184 0.47396 0.10138 0.0
C430 C 0.05902 0.51584 0.14792 0.0
C431 C 0.06486 0.54311 0.13111 0.0
C432 C 0.01117 0.4974 0.10721 0.0
C433 C 0.04369 0.54661 0.09931 0.0
C434 C 0.96209 0.47617 0.05804 0.0
C435 C 0.94596 0.42972 0.1457 0.0
N436 N 0.01761 0.52398 0.08876 0.0
N437 N 0.97324 0.45069 0.14306 0.0
H438 H 0.46655 0.05036 0.48279 0.0
H439 H 0.52362 0.9421 0.45406 0.0
H440 H 0.5545 0.07568 0.46906 0.0
H441 H 0.43565 0.91686 0.46546 0.0
H442 H 0.53529 0.99138 0.44521 0.0
H443 H 0.45442 0.00135 0.4633 0.0
C444 C 0.48322 0.04548 0.47516 0.0
C445 C 0.51147 0.06671 0.47851 0.0
C446 C 0.51341 0.97507 0.44904 0.0
C447 C 0.49804 0.01115 0.45644 0.0
C448 C 0.50683 0.94706 0.45387 0.0
C449 C 0.47878 0.92579 0.46186 0.0
C450 C 0.49169 0.98162 0.45226 0.0
C451 C 0.4576 0.93294 0.46071 0.0
C452 C 0.47638 0.01763 0.46408 0.0
C453 C 0.53245 0.05963 0.46796 0.0
N454 N 0.4645 0.96032 0.45688 0.0
N455 N 0.52533 0.03238 0.45796 0.0
H456 H 0.41231 0.46822 0.85691 0.0
H457 H 0.57037 0.51972 0.7452 0.0
H458 H 0.45977 0.53975 0.71949 0.0
H459 H 0.51408 0.43659 0.82649 0.0
H460 H 0.53014 0.52738 0.73178 0.0
H461 H 0.4491 0.45562 0.84389 0.0
C462 C 0.43032 0.48087 0.82286 0.0
C463 C 0.43319 0.50478 0.78866 0.0
C464 C 0.52658 0.50739 0.75211 0.0
C465 C 0.47552 0.49123 0.77495 0.0
C466 C 0.54949 0.5031 0.75986 0.0
C467 C 0.54547 0.47787 0.78891 0.0
C468 C 0.49965 0.48626 0.77391 0.0
C469 C 0.51807 0.45671 0.8061 0.0
C470 C 0.45131 0.47381 0.8155 0.0
C471 C 0.45693 0.52096 0.74599 0.0
N472 N 0.49622 0.46151 0.79924 0.0
N473 N 0.47746 0.51408 0.74094 0.0
loop_
_geom_bond_atom_site_label_1
_geom_bond_atom_site_label_2
_geom_bond_distance
_geom_bond_site_symmetry_2
_ccdc_geom_bond_type
Co0 O3 1.970 . S
Co0 N17 1.989 . S
Co0 O25 1.967 . S
Co0 O32 1.920 1_554 S
Co1 O4 1.966 . S
Co1 N10 2.022 . S
Co1 N18 1.993 . S
Co1 O26 1.941 . S
C2 O3 1.258 . S
C2 O4 1.263 . S
O3 Co0 1.970 . S
O3 C2 1.258 . S
O4 Co1 1.966 . S
O4 C2 1.263 . S
C5 O6 1.235 . S
C5 O32 1.289 . S
O6 C5 1.235 . S
C7 C9 1.400 . S
C7 N10 1.351 . S
C7 C12 1.501 . S
C8 C9 1.387 . S
C8 N11 1.341 . S
C9 C7 1.400 . S
C9 C8 1.387 . S
N10 Co1 2.022 . S
N10 C7 1.351 . S
N10 N11 1.365 . S
N11 C8 1.341 . S
N11 N10 1.365 . S
N11 H31 0.862 . S
C12 C7 1.501 . S
C12 H13 0.961 . S
C12 H14 0.961 . S
C12 H15 0.960 . S
H13 C12 0.961 . S
H14 C12 0.961 . S
H15 C12 0.960 . S
C16 N17 1.342 . S
C16 C20 1.401 . S
C16 C21 1.499 . S
N17 Co0 1.989 . S
N17 C16 1.342 . S
N17 N18 1.388 . S
N18 Co1 1.993 . S
N18 N17 1.388 . S
N18 C19 1.346 . S
C19 N18 1.346 . S
C19 C20 1.396 . S
C19 C29 1.510 . S
C20 C16 1.401 . S
C20 C19 1.396 . S
C21 C16 1.499 . S
C21 H22 0.959 1_554 S
C21 H23 0.960 . S
C21 H24 0.961 1_554 S
H22 C21 0.959 1_556 S
H23 C21 0.960 . S
H24 C21 0.961 1_556 S
O25 Co0 1.967 . S
O25 C33 1.258 . S
O26 Co1 1.941 . S
O26 C33 1.266 . S
H27 C29 0.959 . S
H28 C29 0.961 . S
C29 C19 1.510 . S
C29 H27 0.959 . S
C29 H28 0.961 . S
C29 H30 0.960 . S
H30 C29 0.960 . S
H31 N11 0.862 . S
O32 Co0 1.920 1_556 S
O32 C5 1.289 . S
C33 O25 1.258 . S
C33 O26 1.266 . S
Co34 O37 1.970 . S
Co34 N51 1.989 . S
Co34 O59 1.967 . S
Co34 O66 1.920 . S
Co35 O38 1.966 . S
Co35 N44 2.022 . S
Co35 N52 1.993 . S
Co35 O60 1.941 . S
C36 O37 1.258 . S
C36 O38 1.263 . S
O37 Co34 1.970 . S
O37 C36 1.258 . S
O38 Co35 1.966 . S
O38 C36 1.263 . S
C39 O40 1.235 . S
C39 O66 1.289 . S
O40 C39 1.235 . S
C41 C43 1.400 . S
C41 N44 1.351 . S
C41 C46 1.501 . S
C42 C43 1.387 . S
C42 N45 1.341 . S
C43 C41 1.400 . S
C43 C42 1.387 . S
N44 Co35 2.022 . S
N44 C41 1.351 . S
N44 N45 1.365 . S
N45 C42 1.341 . S
N45 N44 1.365 . S
N45 H65 0.862 . S
C46 C41 1.501 . S
C46 H47 0.961 . S
C46 H48 0.961 . S
C46 H49 0.960 . S
H47 C46 0.961 . S
H48 C46 0.961 . S
H49 C46 0.960 . S
C50 N51 1.342 . S
C50 C54 1.401 . S
C50 C55 1.499 . S
N51 Co34 1.989 . S
N51 C50 1.342 . S
N51 N52 1.388 . S
N52 Co35 1.993 . S
N52 N51 1.388 . S
N52 C53 1.346 . S
C53 N52 1.346 . S
C53 C54 1.396 . S
C53 C63 1.510 . S
C54 C50 1.401 . S
C54 C53 1.396 . S
C55 C50 1.499 . S
C55 H56 0.959 . S
C55 H57 0.960 . S
C55 H58 0.961 . S
H56 C55 0.959 . S
H57 C55 0.960 . S
H58 C55 0.961 . S
O59 Co34 1.967 . S
O59 C67 1.258 . S
O60 Co35 1.941 . S
O60 C67 1.266 . S
H61 C63 0.959 . S
H62 C63 0.961 . S
C63 C53 1.510 . S
C63 H61 0.959 . S
C63 H62 0.961 . S
C63 H64 0.960 . S
H64 C63 0.960 . S
H65 N45 0.862 . S
O66 Co34 1.920 . S
O66 C39 1.289 . S
C67 O59 1.258 . S
C67 O60 1.266 . S
Co68 O71 1.970 . S
Co68 N85 1.989 . S
Co68 O93 1.967 . S
Co68 O100 1.920 . S
Co69 O72 1.966 . S
Co69 N78 2.022 1_556 S
Co69 N86 1.993 . S
Co69 O94 1.941 . S
C70 O71 1.258 . S
C70 O72 1.263 . S
O71 Co68 1.970 . S
O71 C70 1.258 . S
O72 Co69 1.966 . S
O72 C70 1.263 . S
C73 O74 1.235 . S
C73 O100 1.289 . S
O74 C73 1.235 . S
C75 C77 1.400 . S
C75 N78 1.351 . S
C75 C80 1.501 . S
C76 C77 1.387 . S
C76 N79 1.341 . S
C77 C75 1.400 . S
C77 C76 1.387 . S
N78 Co69 2.022 1_554 S
N78 C75 1.351 . S
N78 N79 1.365 . S
N79 C76 1.341 . S
N79 N78 1.365 . S
N79 H99 0.862 . S
C80 C75 1.501 . S
C80 H81 0.961 . S
C80 H82 0.961 . S
C80 H83 0.960 . S
H81 C80 0.961 . S
H82 C80 0.961 . S
H83 C80 0.960 . S
C84 N85 1.342 . S
C84 C88 1.401 . S
C84 C89 1.499 . S
N85 Co68 1.989 . S
N85 C84 1.342 . S
N85 N86 1.388 . S
N86 Co69 1.993 . S
N86 N85 1.388 . S
N86 C87 1.346 . S
C87 N86 1.346 . S
C87 C88 1.396 . S
C87 C97 1.510 . S
C88 C84 1.401 . S
C88 C87 1.396 . S
C89 C84 1.499 . S
C89 H90 0.959 . S
C89 H91 0.960 . S
C89 H92 0.961 . S
H90 C89 0.959 . S
H91 C89 0.960 . S
H92 C89 0.961 . S
O93 Co68 1.967 . S
O93 C101 1.258 . S
O94 Co69 1.941 . S
O94 C101 1.266 . S
H95 C97 0.959 . S
H96 C97 0.961 . S
C97 C87 1.510 . S
C97 H95 0.959 . S
C97 H96 0.961 . S
C97 H98 0.960 . S
H98 C97 0.960 . S
H99 N79 0.862 . S
O100 Co68 1.920 . S
O100 C73 1.289 . S
C101 O93 1.258 . S
C101 O94 1.266 . S
Co102 O105 1.970 . S
Co102 N119 1.989 . S
Co102 O127 1.967 . S
Co102 O134 1.920 1_554 S
Co103 O106 1.966 . S
Co103 N112 2.022 . S
Co103 N120 1.993 . S
Co103 O128 1.941 . S
C104 O105 1.258 . S
C104 O106 1.263 . S
O105 Co102 1.970 . S
O105 C104 1.258 . S
O106 Co103 1.966 . S
O106 C104 1.263 . S
C107 O108 1.235 . S
C107 O134 1.289 . S
O108 C107 1.235 . S
C109 C111 1.400 . S
C109 N112 1.351 . S
C109 C114 1.501 . S
C110 C111 1.387 . S
C110 N113 1.341 . S
C111 C109 1.400 . S
C111 C110 1.387 . S
N112 Co103 2.022 . S
N112 C109 1.351 . S
N112 N113 1.365 . S
N113 C110 1.341 . S
N113 N112 1.365 . S
N113 H133 0.862 . S
C114 C109 1.501 . S
C114 H115 0.961 . S
C114 H116 0.961 . S
C114 H117 0.960 . S
H115 C114 0.961 . S
H116 C114 0.961 . S
H117 C114 0.960 . S
C118 N119 1.342 . S
C118 C122 1.401 . S
C118 C123 1.499 . S
N119 Co102 1.989 . S
N119 C118 1.342 . S
N119 N120 1.388 . S
N120 Co103 1.993 . S
N120 N119 1.388 . S
N120 C121 1.346 . S
C121 N120 1.346 . S
C121 C122 1.396 . S
C121 C131 1.510 . S
C122 C118 1.401 . S
C122 C121 1.396 . S
C123 C118 1.499 . S
C123 H124 0.959 1_554 S
C123 H125 0.960 . S
C123 H126 0.961 1_554 S
H124 C123 0.959 1_556 S
H125 C123 0.960 . S
H126 C123 0.961 1_556 S
O127 Co102 1.967 . S
O127 C135 1.258 . S
O128 Co103 1.941 . S
O128 C135 1.266 . S
H129 C131 0.959 . S
H130 C131 0.961 . S
C131 C121 1.510 . S
C131 H129 0.959 . S
C131 H130 0.961 . S
C131 H132 0.960 . S
H132 C131 0.960 . S
H133 N113 0.862 . S
O134 Co102 1.920 1_556 S
O134 C107 1.289 . S
C135 O127 1.258 . S
C135 O128 1.266 . S
Co136 O139 1.970 . S
Co136 N153 1.989 . S
Co136 O161 1.967 . S
Co136 O168 1.920 . S
Co137 O140 1.966 . S
Co137 N146 2.022 . S
Co137 N154 1.993 . S
Co137 O162 1.941 . S
C138 O139 1.258 . S
C138 O140 1.263 . S
O139 Co136 1.970 . S
O139 C138 1.258 . S
O140 Co137 1.966 . S
O140 C138 1.263 . S
C141 O142 1.235 . S
C141 O168 1.289 . S
O142 C141 1.235 . S
C143 C145 1.400 . S
C143 N146 1.351 . S
C143 C148 1.501 . S
C144 C145 1.387 . S
C144 N147 1.341 . S
C145 C143 1.400 . S
C145 C144 1.387 . S
N146 Co137 2.022 . S
N146 C143 1.351 . S
N146 N147 1.365 . S
N147 C144 1.341 . S
N147 N146 1.365 . S
N147 H167 0.862 . S
C148 C143 1.501 . S
C148 H149 0.961 . S
C148 H150 0.961 . S
C148 H151 0.960 . S
H149 C148 0.961 . S
H150 C148 0.961 . S
H151 C148 0.960 . S
C152 N153 1.342 . S
C152 C156 1.401 . S
C152 C157 1.499 . S
N153 Co136 1.989 . S
N153 C152 1.342 . S
N153 N154 1.388 . S
N154 Co137 1.993 . S
N154 N153 1.388 . S
N154 C155 1.346 . S
C155 N154 1.346 . S
C155 C156 1.396 . S
C155 C165 1.510 . S
C156 C152 1.401 . S
C156 C155 1.396 . S
C157 C152 1.499 . S
C157 H158 0.959 . S
C157 H159 0.960 . S
C157 H160 0.961 . S
H158 C157 0.959 . S
H159 C157 0.960 . S
H160 C157 0.961 . S
O161 Co136 1.967 . S
O161 C169 1.258 . S
O162 Co137 1.941 . S
O162 C169 1.266 . S
H163 C165 0.959 . S
H164 C165 0.961 . S
C165 C155 1.510 . S
C165 H163 0.959 . S
C165 H164 0.961 . S
C165 H166 0.960 . S
H166 C165 0.960 . S
H167 N147 0.862 . S
O168 Co136 1.920 . S
O168 C141 1.289 . S
C169 O161 1.258 . S
C169 O162 1.266 . S
Co170 O173 1.970 . S
Co170 N187 1.989 . S
Co170 O195 1.967 . S
Co170 O202 1.920 . S
Co171 O174 1.966 . S
Co171 N180 2.022 1_556 S
Co171 N188 1.993 . S
Co171 O196 1.941 . S
C172 O173 1.258 . S
C172 O174 1.263 . S
O173 Co170 1.970 . S
O173 C172 1.258 . S
O174 Co171 1.966 . S
O174 C172 1.263 . S
C175 O176 1.235 . S
C175 O202 1.289 . S
O176 C175 1.235 . S
C177 C179 1.400 . S
C177 N180 1.351 . S
C177 C182 1.501 . S
C178 C179 1.387 . S
C178 N181 1.341 . S
C179 C177 1.400 . S
C179 C178 1.387 . S
N180 Co171 2.022 1_554 S
N180 C177 1.351 . S
N180 N181 1.365 . S
N181 C178 1.341 . S
N181 N180 1.365 . S
N181 H201 0.862 . S
C182 C177 1.501 . S
C182 H183 0.961 . S
C182 H184 0.961 . S
C182 H185 0.960 . S
H183 C182 0.961 . S
H184 C182 0.961 . S
H185 C182 0.960 . S
C186 N187 1.342 . S
C186 C190 1.401 . S
C186 C191 1.499 . S
N187 Co170 1.989 . S
N187 C186 1.342 . S
N187 N188 1.388 . S
N188 Co171 1.993 . S
N188 N187 1.388 . S
N188 C189 1.346 . S
C189 N188 1.346 . S
C189 C190 1.396 . S
C189 C199 1.510 . S
C190 C186 1.401 . S
C190 C189 1.396 . S
C191 C186 1.499 . S
C191 H192 0.959 . S
C191 H193 0.960 . S
C191 H194 0.961 . S
H192 C191 0.959 . S
H193 C191 0.960 . S
H194 C191 0.961 . S
O195 Co170 1.967 . S
O195 C203 1.258 . S
O196 Co171 1.941 . S
O196 C203 1.266 . S
H197 C199 0.959 . S
H198 C199 0.961 . S
C199 C189 1.510 . S
C199 H197 0.959 . S
C199 H198 0.961 . S
C199 H200 0.960 . S
H200 C199 0.960 . S
H201 N181 0.862 . S
O202 Co170 1.920 . S
O202 C175 1.289 . S
C203 O195 1.258 . S
C203 O196 1.266 . S
H204 C210 0.930 . S
H205 C214 0.930 . S
H206 C219 0.929 . S
H207 C217 0.929 . S
H208 C212 0.929 . S
H209 C218 0.929 1_556 S
C210 H204 0.930 . S
C210 C211 1.367 . S
C210 C218 1.378 . S
C211 C210 1.367 . S
C211 C219 1.433 . S
C212 H208 0.929 . S
C212 C214 1.378 . S
C212 C216 1.350 . S
C213 C216 1.463 1_554 S
C213 C218 1.350 . S
C213 N221 1.427 . S
C214 H205 0.930 . S
C214 C212 1.378 . S
C214 C215 1.367 . S
C215 C214 1.367 . S
C215 C217 1.433 . S
C216 C212 1.350 . S
C216 C213 1.463 1_556 S
C216 N220 1.427 . S
C217 H207 0.929 . S
C217 C215 1.433 . S
C217 N220 1.384 . S
C218 H209 0.929 1_554 S
C218 C210 1.378 . S
C218 C213 1.350 . S
C219 H206 0.929 . S
C219 C211 1.433 . S
C219 N221 1.384 . S
N220 C216 1.427 . S
N220 C217 1.384 . S
N221 C213 1.427 . S
N221 C219 1.384 . S
H222 C228 0.930 . S
H223 C232 0.930 . S
H224 C237 0.929 . S
H225 C235 0.929 . S
H226 C230 0.929 . S
H227 C236 0.929 . S
C228 H222 0.930 . S
C228 C229 1.367 . S
C228 C236 1.378 . S
C229 C228 1.367 . S
C229 C237 1.433 . S
C230 H226 0.929 . S
C230 C232 1.378 . S
C230 C234 1.350 . S
C231 C234 1.463 . S
C231 C236 1.350 . S
C231 N239 1.427 . S
C232 H223 0.930 . S
C232 C230 1.378 . S
C232 C233 1.367 . S
C233 C232 1.367 . S
C233 C235 1.433 . S
C234 C230 1.350 . S
C234 C231 1.463 . S
C234 N238 1.427 . S
C235 H225 0.929 . S
C235 C233 1.433 . S
C235 N238 1.384 . S
C236 H227 0.929 . S
C236 C228 1.378 . S
C236 C231 1.350 . S
C237 H224 0.929 . S
C237 C229 1.433 . S
C237 N239 1.384 . S
N238 C234 1.427 . S
N238 C235 1.384 . S
N239 C231 1.427 . S
N239 C237 1.384 . S
H240 C246 0.930 . S
H241 C250 0.930 . S
H242 C255 0.929 . S
H243 C253 0.929 . S
H244 C248 0.929 . S
H245 C254 0.929 . S
C246 H240 0.930 . S
C246 C247 1.367 . S
C246 C254 1.378 . S
C247 C246 1.367 . S
C247 C255 1.433 . S
C248 H244 0.929 . S
C248 C250 1.378 . S
C248 C252 1.350 . S
C249 C252 1.463 . S
C249 C254 1.350 . S
C249 N257 1.427 . S
C250 H241 0.930 . S
C250 C248 1.378 . S
C250 C251 1.367 . S
C251 C250 1.367 . S
C251 C253 1.433 . S
C252 C248 1.350 . S
C252 C249 1.463 . S
C252 N256 1.427 . S
C253 H243 0.929 . S
C253 C251 1.433 . S
C253 N256 1.384 . S
C254 H245 0.929 . S
C254 C246 1.378 . S
C254 C249 1.350 . S
C255 H242 0.929 . S
C255 C247 1.433 . S
C255 N257 1.384 . S
N256 C252 1.427 . S
N256 C253 1.384 . S
N257 C249 1.427 . S
N257 C255 1.384 . S
H258 C264 0.930 . S
H259 C268 0.930 . S
H260 C273 0.929 . S
H261 C271 0.929 . S
H262 C266 0.929 . S
H263 C272 0.929 . S
C264 H258 0.930 . S
C264 C265 1.367 . S
C264 C272 1.378 . S
C265 C264 1.367 . S
C265 C273 1.433 . S
C266 H262 0.929 . S
C266 C268 1.378 1_556 S
C266 C270 1.350 1_556 S
C267 C270 1.463 1_556 S
C267 C272 1.350 . S
C267 N275 1.427 . S
C268 H259 0.930 . S
C268 C266 1.378 1_554 S
C268 C269 1.367 . S
C269 C268 1.367 . S
C269 C271 1.433 . S
C270 C266 1.350 1_554 S
C270 C267 1.463 1_554 S
C270 N274 1.427 . S
C271 H261 0.929 . S
C271 C269 1.433 . S
C271 N274 1.384 . S
C272 H263 0.929 . S
C272 C264 1.378 . S
C272 C267 1.350 . S
C273 H260 0.929 . S
C273 C265 1.433 . S
C273 N275 1.384 . S
N274 C270 1.427 . S
N274 C271 1.384 . S
N275 C267 1.427 . S
N275 C273 1.384 . S
H276 C282 0.930 . S
H277 C286 0.930 . S
H278 C291 0.929 . S
H279 C289 0.929 . S
H280 C284 0.929 . S
H281 C290 0.929 . S
C282 H276 0.930 . S
C282 C283 1.367 . S
C282 C290 1.378 . S
C283 C282 1.367 . S
C283 C291 1.433 . S
C284 H280 0.929 . S
C284 C286 1.378 . S
C284 C288 1.350 . S
C285 C288 1.463 . S
C285 C290 1.350 . S
C285 N293 1.427 . S
C286 H277 0.930 . S
C286 C284 1.378 . S
C286 C287 1.367 . S
C287 C286 1.367 . S
C287 C289 1.433 . S
C288 C284 1.350 . S
C288 C285 1.463 . S
C288 N292 1.427 . S
C289 H279 0.929 . S
C289 C287 1.433 . S
C289 N292 1.384 . S
C290 H281 0.929 . S
C290 C282 1.378 . S
C290 C285 1.350 . S
C291 H278 0.929 . S
C291 C283 1.433 . S
C291 N293 1.384 . S
N292 C288 1.427 . S
N292 C289 1.384 . S
N293 C285 1.427 . S
N293 C291 1.384 . S
H294 C300 0.930 . S
H295 C304 0.930 . S
H296 C309 0.929 . S
H297 C307 0.929 . S
H298 C302 0.929 . S
H299 C308 0.929 . S
C300 H294 0.930 . S
C300 C301 1.367 . S
C300 C308 1.378 . S
C301 C300 1.367 . S
C301 C309 1.433 . S
C302 H298 0.929 . S
C302 C304 1.378 . S
C302 C306 1.350 . S
C303 C306 1.463 . S
C303 C308 1.350 . S
C303 N311 1.427 . S
C304 H295 0.930 . S
C304 C302 1.378 . S
C304 C305 1.367 . S
C305 C304 1.367 . S
C305 C307 1.433 . S
C306 C302 1.350 . S
C306 C303 1.463 . S
C306 N310 1.427 . S
C307 H297 0.929 . S
C307 C305 1.433 . S
C307 N310 1.384 . S
C308 H299 0.929 . S
C308 C300 1.378 . S
C308 C303 1.350 . S
C309 H296 0.929 . S
C309 C301 1.433 . S
C309 N311 1.384 . S
N310 C306 1.427 . S
N310 C307 1.384 . S
N311 C303 1.427 . S
N311 C309 1.384 . S
H312 C318 0.930 . S
H313 C322 0.930 . S
H314 C327 0.929 . S
H315 C325 0.929 . S
H316 C320 0.929 . S
H317 C326 0.929 . S
C318 H312 0.930 . S
C318 C319 1.367 . S
C318 C326 1.378 . S
C319 C318 1.367 . S
C319 C327 1.433 . S
C320 H316 0.929 . S
C320 C322 1.378 . S
C320 C324 1.350 . S
C321 C324 1.463 . S
C321 C326 1.350 . S
C321 N329 1.427 . S
C322 H313 0.930 . S
C322 C320 1.378 . S
C322 C323 1.367 . S
C323 C322 1.367 . S
C323 C325 1.433 . S
C324 C320 1.350 . S
C324 C321 1.463 . S
C324 N328 1.427 . S
C325 H315 0.929 . S
C325 C323 1.433 . S
C325 N328 1.384 . S
C326 H317 0.929 . S
C326 C318 1.378 . S
C326 C321 1.350 . S
C327 H314 0.929 . S
C327 C319 1.433 . S
C327 N329 1.384 . S
N328 C324 1.427 . S
N328 C325 1.384 . S
N329 C321 1.427 . S
N329 C327 1.384 . S
H330 C336 0.930 . S
H331 C340 0.930 . S
H332 C345 0.929 . S
H333 C343 0.929 . S
H334 C338 0.929 . S
H335 C344 0.922 1_554 S
C336 H330 0.930 . S
C336 C337 1.367 . S
C336 C344 1.378 . S
C337 C336 1.367 . S
C337 C345 1.433 . S
C338 H334 0.929 . S
C338 C340 1.378 . S
C338 C342 1.350 . S
C339 C342 1.463 1_556 S
C339 C344 1.350 . S
C339 N347 1.427 . S
C340 H331 0.930 . S
C340 C338 1.378 . S
C340 C341 1.367 . S
C341 C340 1.367 . S
C341 C343 1.433 . S
C342 C338 1.350 . S
C342 C339 1.463 1_554 S
C342 N346 1.427 . S
C343 H333 0.929 . S
C343 C341 1.433 . S
C343 N346 1.384 . S
C344 H335 0.922 1_556 S
C344 C336 1.378 . S
C344 C339 1.350 . S
C345 H332 0.929 . S
C345 C337 1.433 . S
C345 N347 1.384 . S
N346 C342 1.427 . S
N346 C343 1.384 . S
N347 C339 1.427 . S
N347 C345 1.384 . S
H348 C354 0.930 . S
H349 C358 0.930 . S
H350 C363 0.929 . S
H351 C361 0.929 . S
H352 C356 0.929 . S
H353 C362 0.929 . S
C354 H348 0.930 . S
C354 C355 1.367 . S
C354 C362 1.378 . S
C355 C354 1.367 . S
C355 C363 1.433 . S
C356 H352 0.929 . S
C356 C358 1.378 . S
C356 C360 1.350 . S
C357 C360 1.463 . S
C357 C362 1.350 . S
C357 N365 1.427 . S
C358 H349 0.930 . S
C358 C356 1.378 . S
C358 C359 1.367 . S
C359 C358 1.367 . S
C359 C361 1.433 . S
C360 C356 1.350 . S
C360 C357 1.463 . S
C360 N364 1.427 . S
C361 H351 0.929 . S
C361 C359 1.433 . S
C361 N364 1.384 . S
C362 H353 0.929 . S
C362 C354 1.378 . S
C362 C357 1.350 . S
C363 H350 0.929 . S
C363 C355 1.433 . S
C363 N365 1.384 . S
N364 C360 1.427 . S
N364 C361 1.384 . S
N365 C357 1.427 . S
N365 C363 1.384 . S
H366 C372 0.930 . S
H367 C376 0.930 . S
H368 C381 0.929 . S
H369 C379 0.929 . S
H370 C374 0.929 . S
H371 C380 0.929 . S
C372 H366 0.930 . S
C372 C373 1.367 . S
C372 C380 1.378 . S
C373 C372 1.367 . S
C373 C381 1.433 . S
C374 H370 0.929 . S
C374 C376 1.378 . S
C374 C378 1.350 . S
C375 C378 1.463 . S
C375 C380 1.350 . S
C375 N383 1.427 . S
C376 H367 0.930 . S
C376 C374 1.378 . S
C376 C377 1.367 . S
C377 C376 1.367 . S
C377 C379 1.433 . S
C378 C374 1.350 . S
C378 C375 1.463 . S
C378 N382 1.427 . S
C379 H369 0.929 . S
C379 C377 1.433 . S
C379 N382 1.384 . S
C380 H371 0.929 . S
C380 C372 1.378 . S
C380 C375 1.350 . S
C381 H368 0.929 . S
C381 C373 1.433 . S
C381 N383 1.384 . S
N382 C378 1.427 . S
N382 C379 1.384 . S
N383 C375 1.427 . S
N383 C381 1.384 . S
H384 C390 0.930 . S
H385 C394 0.930 . S
H386 C399 0.929 . S
H387 C397 0.929 . S
H388 C392 0.929 . S
H389 C398 0.929 . S
C390 H384 0.930 . S
C390 C391 1.367 . S
C390 C398 1.378 . S
C391 C390 1.367 . S
C391 C399 1.433 . S
C392 H388 0.929 . S
C392 C394 1.378 . S
C392 C396 1.350 . S
C393 C396 1.463 1_554 S
C393 C398 1.350 . S
C393 N401 1.427 . S
C394 H385 0.930 . S
C394 C392 1.378 . S
C394 C395 1.367 . S
C395 C394 1.367 . S
C395 C397 1.433 . S
C396 C392 1.350 . S
C396 C393 1.463 1_556 S
C396 N400 1.427 . S
C397 H387 0.929 . S
C397 C395 1.433 . S
C397 N400 1.384 . S
C398 H389 0.929 . S
C398 C390 1.378 . S
C398 C393 1.350 . S
C399 H386 0.929 . S
C399 C391 1.433 . S
C399 N401 1.384 . S
N400 C396 1.427 . S
N400 C397 1.384 . S
N401 C393 1.427 . S
N401 C399 1.384 . S
H402 C408 0.930 . S
H403 C412 0.930 . S
H404 C417 0.929 . S
H405 C415 0.929 . S
H406 C410 0.929 . S
H407 C416 0.929 . S
C408 H402 0.930 . S
C408 C409 1.367 . S
C408 C416 1.378 . S
C409 C408 1.367 . S
C409 C417 1.433 . S
C410 H406 0.929 . S
C410 C412 1.378 . S
C410 C414 1.350 . S
C411 C414 1.463 . S
C411 C416 1.350 . S
C411 N419 1.427 . S
C412 H403 0.930 . S
C412 C410 1.378 . S
C412 C413 1.367 . S
C413 C412 1.367 . S
C413 C415 1.433 . S
C414 C410 1.350 . S
C414 C411 1.463 . S
C414 N418 1.427 . S
C415 H405 0.929 . S
C415 C413 1.433 . S
C415 N418 1.384 . S
C416 H407 0.929 . S
C416 C408 1.378 . S
C416 C411 1.350 . S
C417 H404 0.929 . S
C417 C409 1.433 . S
C417 N419 1.384 . S
N418 C414 1.427 . S
N418 C415 1.384 . S
N419 C411 1.427 . S
N419 C417 1.384 . S
H420 C426 0.930 . S
H421 C430 0.930 . S
H422 C435 0.929 . S
H423 C433 0.929 . S
H424 C428 0.929 . S
H425 C434 0.929 . S
C426 H420 0.930 . S
C426 C427 1.367 . S
C426 C434 1.378 . S
C427 C426 1.367 . S
C427 C435 1.433 . S
C428 H424 0.929 . S
C428 C430 1.378 . S
C428 C432 1.350 . S
C429 C432 1.463 1_655 S
C429 C434 1.350 . S
C429 N437 1.427 . S
C430 H421 0.930 . S
C430 C428 1.378 . S
C430 C431 1.367 . S
C431 C430 1.367 . S
C431 C433 1.433 . S
C432 C428 1.350 . S
C432 C429 1.463 1_455 S
C432 N436 1.427 . S
C433 H423 0.929 . S
C433 C431 1.433 . S
C433 N436 1.384 . S
C434 H425 0.929 . S
C434 C426 1.378 . S
C434 C429 1.350 . S
C435 H422 0.929 . S
C435 C427 1.433 . S
C435 N437 1.384 . S
N436 C432 1.427 . S
N436 C433 1.384 . S
N437 C429 1.427 . S
N437 C435 1.384 . S
H438 C444 0.930 . S
H439 C448 0.930 . S
H440 C453 0.929 . S
H441 C451 0.929 . S
H442 C446 0.929 . S
H443 C452 0.929 . S
C444 H438 0.930 . S
C444 C445 1.367 . S
C444 C452 1.378 . S
C445 C444 1.367 . S
C445 C453 1.433 . S
C446 H442 0.929 . S
C446 C448 1.378 . S
C446 C450 1.350 . S
C447 C450 1.463 1_545 S
C447 C452 1.350 . S
C447 N455 1.427 . S
C448 H439 0.930 . S
C448 C446 1.378 . S
C448 C449 1.367 . S
C449 C448 1.367 . S
C449 C451 1.433 . S
C450 C446 1.350 . S
C450 C447 1.463 1_565 S
C450 N454 1.427 . S
C451 H441 0.929 . S
C451 C449 1.433 . S
C451 N454 1.384 . S
C452 H443 0.929 . S
C452 C444 1.378 . S
C452 C447 1.350 . S
C453 H440 0.929 . S
C453 C445 1.433 . S
C453 N455 1.384 . S
N454 C450 1.427 . S
N454 C451 1.384 . S
N455 C447 1.427 . S
N455 C453 1.384 . S
H456 C462 0.930 . S
H457 C466 0.930 . S
H458 C471 0.929 . S
H459 C469 0.929 . S
H460 C464 0.929 . S
H461 C470 0.929 . S
C462 H456 0.930 . S
C462 C463 1.367 . S
C462 C470 1.378 . S
C463 C462 1.367 . S
C463 C471 1.433 . S
C464 H460 0.929 . S
C464 C466 1.378 . S
C464 C468 1.350 . S
C465 C468 1.463 . S
C465 C470 1.350 . S
C465 N473 1.427 . S
C466 H457 0.930 . S
C466 C464 1.378 . S
C466 C467 1.367 . S
C467 C466 1.367 . S
C467 C469 1.433 . S
C468 C464 1.350 . S
C468 C465 1.463 . S
C468 N472 1.427 . S
C469 H459 0.929 . S
C469 C467 1.433 . S
C469 N472 1.384 . S
C470 H461 0.929 . S
C470 C462 1.378 . S
C470 C465 1.350 . S
C471 H458 0.929 . S
C471 C463 1.433 . S
C471 N473 1.384 . S
N472 C468 1.427 . S
N472 C469 1.384 . S
N473 C465 1.427 . S
N473 C471 1.384 . S
C211 C33 1.495 . S
C215 C70 1.439 . S
C229 C67 1.490 . S
C233 C104 1.445 . S
C247 C138 1.444 . S
C251 C101 1.490 . S
C265 C172 1.451 . S
C269 C135 1.491 . S
C283 C169 1.493 . S
C287 C2 1.454 . S
C301 C36 1.439 . S
C305 C203 1.493 . S
C319 C5 1.222 . S
C323 C9 1.234 . S
C337 C43 1.232 . S
C341 C39 1.225 . S
C355 C73 1.216 . S
C359 C77 1.235 . S
C373 C107 1.223 . S
C377 C111 1.226 . S
C391 C141 1.220 . S
C395 C145 1.235 . S
C409 C179 1.234 . S
C413 C175 1.223 . S
C427 C122 1.531 . S
C431 C20 1.531 . S
C445 C54 1.534 . S
C449 C156 1.534 . S
C463 C88 1.535 . S
C467 C190 1.535 . S
