# Generated by pormake.
# Topology eci, (8)-cn, num edge types: 1
# Building blocks:
#     Node 0, Type 0, BuildingBlock: TAGTUT_clean_sbu_1, # of connection points: 8
#     Node 1, Type 0, BuildingBlock: TAGTUT_clean_sbu_1, # of connection points: 8
#     Node 2, Type 0, BuildingBlock: TAGTUT_clean_sbu_1, # of connection points: 8
#     Node 3, Type 0, BuildingBlock: TAGTUT_clean_sbu_1, # of connection points: 8
#     Edge 4, Type (0, 0), BuildingBlock: FUNLAD_clean_linker_0, # of connection points: 2
#     Edge 5, Type (0, 0), BuildingBlock: FUNLAD_clean_linker_0, # of connection points: 2
#     Edge 6, Type (0, 0), BuildingBlock: FUNLAD_clean_linker_0, # of connection points: 2
#     Edge 7, Type (0, 0), BuildingBlock: FUNLAD_clean_linker_0, # of connection points: 2
#     Edge 8, Type (0, 0), BuildingBlock: FUNLAD_clean_linker_0, # of connection points: 2
#     Edge 9, Type (0, 0), BuildingBlock: FUNLAD_clean_linker_0, # of connection points: 2
#     Edge 10, Type (0, 0), BuildingBlock: FUNLAD_clean_linker_0, # of connection points: 2
#     Edge 11, Type (0, 0), BuildingBlock: FUNLAD_clean_linker_0, # of connection points: 2
#     Edge 12, Type (0, 0), BuildingBlock: FUNLAD_clean_linker_0, # of connection points: 2
#     Edge 13, Type (0, 0), BuildingBlock: FUNLAD_clean_linker_0, # of connection points: 2
#     Edge 14, Type (0, 0), BuildingBlock: FUNLAD_clean_linker_0, # of connection points: 2
#     Edge 15, Type (0, 0), BuildingBlock: FUNLAD_clean_linker_0, # of connection points: 2
#     Edge 16, Type (0, 0), BuildingBlock: FUNLAD_clean_linker_0, # of connection points: 2
#     Edge 17, Type (0, 0), BuildingBlock: FUNLAD_clean_linker_0, # of connection points: 2
#     Edge 18, Type (0, 0), BuildingBlock: FUNLAD_clean_linker_0, # of connection points: 2
#     Edge 19, Type (0, 0), BuildingBlock: FUNLAD_clean_linker_0, # of connection points: 2
# Relax obj value: 0.208
# Max RMSD: 0.265
# Mean RMSD: 0.256
data_MOF--net-eci--node1-TAGTUT_clean_sbu_1--edge1-FUNLAD_clean_linker_0
_symmetry_space_group_name_H-M    P1
_symmetry_Int_Tables_number       1
_symmetry_cell_setting            triclinic
loop_
_symmetry_equiv_pos_as_xyz
'x, y, z'
_cell_length_a     32.708022
_cell_length_b     34.75137
_cell_length_c     21.136915
_cell_angle_alpha  92.725575
_cell_angle_beta   92.880781
_cell_angle_gamma 89.999251
loop_
_atom_site_label
_atom_site_type_symbol
_atom_site_fract_x
_atom_site_fract_y
_atom_site_fract_z
_atom_type_partial_charge
C0 C 0.80248 0.68739 0.13531 0.0
C1 C 0.85127 0.79038 0.23967 0.0
C2 C 0.76838 0.86525 0.04948 0.0
Mg3 Mg 0.87668 0.74121 0.12289 0.0
O4 O 0.83746 0.76669 0.07332 0.0
Mg5 Mg 0.78473 0.78168 0.11156 0.0
Mg6 Mg 0.8499 0.81375 0.02835 0.0
O7 O 0.86198 0.86041 0.98172 0.0
Mg8 Mg 0.82027 0.8781 0.92685 0.0
Mg9 Mg 0.91378 0.84243 0.94244 0.0
C10 C 0.93335 0.76255 0.01102 0.0
C11 C 0.9295 0.8595 0.09464 0.0
O12 O 0.77861 0.71686 0.13616 0.0
O13 O 0.84106 0.69002 0.12831 0.0
O14 O 0.81682 0.79585 0.21001 0.0
O15 O 0.8801 0.77165 0.21381 0.0
O16 O 0.92814 0.74439 0.0616 0.0
O17 O 0.90509 0.78363 0.98604 0.0
C18 C 0.76716 0.77395 0.9593 0.0
O19 O 0.80156 0.79031 0.95054 0.0
O20 O 0.75553 0.76781 0.01469 0.0
O21 O 0.91645 0.90364 0.90409 0.0
O22 O 0.8527 0.9283 0.90035 0.0
O23 O 0.88148 0.82157 0.84717 0.0
C24 C 0.89124 0.93117 0.89277 0.0
O25 O 0.81618 0.84007 0.8438 0.0
O26 O 0.77207 0.87995 -0.00477 0.0
C27 C 0.84602 0.82247 0.81885 0.0
O28 O 0.79588 0.8433 0.07418 0.0
O29 O 0.89667 0.84068 0.10459 0.0
O30 O 0.9418 0.86299 0.03854 0.0
C31 C 0.68134 0.17584 0.15838 0.0
C32 C 0.66398 0.28095 0.0493 0.0
C33 C 0.75038 0.3562 0.24652 0.0
Mg34 Mg 0.62521 0.24706 0.16466 0.0
O35 O 0.6698 0.26499 0.21672 0.0
Mg36 Mg 0.72479 0.26472 0.18149 0.0
Mg37 Mg 0.67034 0.31666 0.25951 0.0
O38 O 0.67055 0.369 0.30731 0.0
Mg39 Mg 0.71492 0.38348 0.36654 0.0
Mg40 Mg 0.61454 0.36557 0.3417 0.0
C41 C 0.57708 0.29094 0.27359 0.0
C42 C 0.60349 0.36871 0.18731 0.0
O43 O 0.71259 0.19861 0.16092 0.0
O44 O 0.64453 0.18832 0.1603 0.0
O45 O 0.6988 0.27882 0.07968 0.0
O46 O 0.63089 0.27191 0.07445 0.0
O47 O 0.57647 0.26929 0.22253 0.0
O48 O 0.61038 0.30294 0.30245 0.0
C49 C 0.73632 0.26417 0.33475 0.0
O50 O 0.70816 0.28945 0.33994 0.0
O51 O 0.74785 0.25164 0.28078 0.0
O52 O 0.6254 0.42909 0.371 0.0
O53 O 0.693 0.44316 0.37756 0.0
O54 O 0.63776 0.34771 0.44295 0.0
C55 C 0.65514 0.45321 0.37925 0.0
O56 O 0.70505 0.35726 0.45406 0.0
O57 O 0.7559 0.34952 0.30512 0.0
C58 C 0.67165 0.34622 0.4758 0.0
O59 O 0.72974 0.33168 0.21039 0.0
O60 O 0.63213 0.34396 0.18123 0.0
O61 O 0.59235 0.38113 0.24186 0.0
C62 C 0.25219 0.24786 0.37085 0.0
C63 C 0.14572 0.19267 0.27056 0.0
C64 C 0.06272 0.27422 0.45544 0.0
Mg65 Mg 0.19772 0.17778 0.39231 0.0
O66 O 0.16904 0.21675 0.43423 0.0
Mg67 Mg 0.15214 0.26284 0.3866 0.0
Mg68 Mg 0.12131 0.20962 0.48639 0.0
O69 O 0.07387 0.20448 0.54512 0.0
Mg70 Mg 0.06319 0.25743 0.58793 0.0
Mg71 Mg 0.09395 0.15311 0.5913 0.0
C72 C 0.17434 0.13415 0.51652 0.0
C73 C 0.07772 0.12558 0.44255 0.0
O74 O 0.21979 0.26829 0.36292 0.0
O75 O 0.25107 0.21236 0.38463 0.0
O76 O 0.13821 0.22584 0.29589 0.0
O77 O 0.1674 0.168 0.2999 0.0
O78 O 0.19215 0.13541 0.46378 0.0
O79 O 0.15402 0.16288 0.54009 0.0
C80 C 0.16465 0.29361 0.53224 0.0
O81 O 0.14906 0.26254 0.55171 0.0
O82 O 0.16722 0.29877 0.47358 0.0
O83 O 0.04137 0.19632 0.57268 0.0
O84 O 0.00123 0.24106 0.60931 0.0
O85 O 0.11505 0.19139 0.67784 0.0
C86 C 0.00859 0.20516 0.60191 0.0
O87 O 0.10202 0.25496 0.67488 0.0
O88 O 0.07709 0.29097 0.50669 0.0
C89 C 0.11731 0.22575 0.70255 0.0
O90 O 0.08695 0.25331 0.42313 0.0
O91 O 0.09375 0.15683 0.42436 0.0
O92 O 0.07446 0.11942 0.50127 0.0
C93 C 0.27308 0.80265 0.59898 0.0
C94 C 0.33401 0.70945 0.49329 0.0
C95 C 0.27064 0.61715 0.67575 0.0
Mg96 Mg 0.35495 0.7594 0.61611 0.0
O97 O 0.32213 0.72636 0.65907 0.0
Mg98 Mg 0.27121 0.70464 0.61545 0.0
Mg99 Mg 0.34366 0.68129 0.70344 0.0
O100 O 0.36524 0.63671 0.75014 0.0
Mg101 Mg 0.32838 0.61485 0.80318 0.0
Mg102 Mg 0.41457 0.66177 0.79561 0.0
C103 C 0.41938 0.74255 0.73018 0.0
C104 C 0.42993 0.65424 0.64436 0.0
O105 O 0.25436 0.76979 0.59357 0.0
O106 O 0.31181 0.80533 0.61084 0.0
O107 O 0.30259 0.69634 0.51917 0.0
O108 O 0.35878 0.73336 0.52254 0.0
O109 O 0.40993 0.76065 0.67984 0.0
O110 O 0.39433 0.71913 0.7536 0.0
C111 C 0.25869 0.709 0.76641 0.0
O112 O 0.29528 0.69682 0.77745 0.0
O113 O 0.24385 0.7136 0.71028 0.0
O114 O 0.42897 0.60063 0.83007 0.0
O115 O 0.36879 0.56916 0.831 0.0
O116 O 0.38313 0.67523 0.88991 0.0
C117 C 0.40792 0.57028 0.83917 0.0
O118 O 0.31968 0.65173 0.88582 0.0
O119 O 0.27903 0.60543 0.73172 0.0
C120 C 0.3487 0.6709 0.91474 0.0
O121 O 0.29277 0.64289 0.65085 0.0
O122 O 0.39305 0.66535 0.6311 0.0
O123 O 0.44349 0.65017 0.70161 0.0
C124 C 0.82111 0.81131 0.34226 0.0
C125 C 0.85571 0.80105 0.30836 0.0
C126 C 0.8236 0.81441 0.40848 0.0
C127 C 0.86083 0.80745 0.44219 0.0
C128 C 0.89599 0.80003 0.40827 0.0
C129 C 0.89346 0.79657 0.34204 0.0
C130 C 0.86406 0.8076 0.5125 0.0
C131 C 0.83283 0.79757 0.5477 0.0
C132 C 0.83595 0.79841 0.61808 0.0
C133 C 0.8007 0.80602 0.6517 0.0
C134 C 0.80332 0.81126 0.71776 0.0
C135 C 0.8413 0.80853 0.75155 0.0
H136 H 0.90078 0.78494 0.62807 0.0
C137 C 0.87593 0.7976 0.71821 0.0
C138 C 0.87331 0.79261 0.65218 0.0
H139 H 0.90559 0.79473 0.74271 0.0
H140 H 0.79161 0.81536 0.31788 0.0
H141 H 0.79622 0.82185 0.43298 0.0
H142 H 0.92522 0.79533 0.43312 0.0
H143 H 0.92081 0.78905 0.31741 0.0
H144 H 0.89357 0.81524 0.53548 0.0
H145 H 0.80332 0.78996 0.52466 0.0
H146 H 0.77137 0.80981 0.62662 0.0
H147 H 0.77592 0.81923 0.74194 0.0
C148 C 0.63636 0.33051 0.57499 0.0
C149 C 0.6725 0.33359 0.54215 0.0
C150 C 0.63805 0.32189 0.63931 0.0
C151 C 0.67599 0.31597 0.67208 0.0
C152 C 0.71182 0.31766 0.63847 0.0
C153 C 0.71018 0.32664 0.57466 0.0
C154 C 0.67985 0.30736 0.74066 0.0
C155 C 0.65194 0.31762 0.78327 0.0
C156 C 0.65647 0.30948 0.85207 0.0
C157 C 0.62119 0.30848 0.88717 0.0
C158 C 0.62374 0.29993 0.95127 0.0
C159 C 0.66181 0.29261 0.98236 0.0
H160 H 0.72294 0.30535 0.8593 0.0
C161 C 0.69736 0.2951 0.948 0.0
C162 C 0.69478 0.30342 0.88366 0.0
H163 H 0.72723 0.29 0.97049 0.0
H164 H 0.6068 0.33555 0.55142 0.0
H165 H 0.60958 0.31967 0.66281 0.0
H166 H 0.74143 0.31282 0.66205 0.0
H167 H 0.73869 0.32859 0.5511 0.0
H168 H 0.70759 0.29278 0.7565 0.0
H169 H 0.62414 0.33209 0.7674 0.0
H170 H 0.59133 0.31363 0.86462 0.0
H171 H 0.5957 0.29877 0.97631 0.0
C172 C 0.15297 0.19925 0.79783 0.0
C173 C 0.13202 0.22994 0.76974 0.0
C174 C 0.15723 0.19776 0.86361 0.0
C175 C 0.14048 0.22693 0.90262 0.0
C176 C 0.1234 0.2595 0.87469 0.0
C177 C 0.11908 0.26101 0.8087 0.0
C178 C 0.13868 0.22354 0.97204 0.0
C179 C 0.13648 0.1894 -0.00044 0.0
C180 C 0.13286 0.18673 0.06872 0.0
C181 C 0.15263 0.15675 0.1002 0.0
C182 C 0.15405 0.15657 0.16645 0.0
C183 C 0.1353 0.18626 0.20199 0.0
H184 H 0.09359 0.23662 0.08073 0.0
C185 C 0.11196 0.21392 0.16984 0.0
C186 C 0.11082 0.21421 0.1039 0.0
H187 H 0.09639 0.23675 0.19568 0.0
H188 H 0.16413 0.17524 0.76904 0.0
H189 H 0.17251 0.17316 0.88351 0.0
H190 H 0.1111 0.28278 0.90388 0.0
H191 H 0.103 0.28516 0.78856 0.0
H192 H 0.13692 0.25015 0.00092 0.0
H193 H 0.13842 0.16257 0.97141 0.0
H194 H 0.16901 0.13471 0.07379 0.0
H195 H 0.17201 0.13466 0.18969 0.0
C196 C 0.37885 0.68099 0.02472 0.0
C197 C 0.34471 0.68326 0.98194 0.0
C198 C 0.37466 0.6875 0.08974 0.0
C199 C 0.33645 0.69737 0.11309 0.0
C200 C 0.30268 0.70146 0.0703 0.0
C201 C 0.30657 0.6937 0.00523 0.0
C202 C 0.33191 0.7041 0.18198 0.0
C203 C 0.34644 0.67901 0.22415 0.0
C204 C 0.34379 0.68649 0.2933 0.0
C205 C 0.33116 0.65717 0.33149 0.0
C206 C 0.32809 0.66431 0.3969 0.0
C207 C 0.33922 0.70042 0.42524 0.0
H208 H 0.36566 0.74533 0.29341 0.0
C209 C 0.35329 0.72923 0.38715 0.0
C210 C 0.35508 0.72249 0.32173 0.0
H211 H 0.36179 0.75743 0.4077 0.0
H212 H 0.40855 0.67265 0.00819 0.0
H213 H 0.40129 0.68485 0.12183 0.0
H214 H 0.27304 0.70944 0.08743 0.0
H215 H 0.2798 0.69558 0.97327 0.0
H216 H 0.31512 0.72941 0.19811 0.0
H217 H 0.35948 0.65182 0.20749 0.0
H218 H 0.32274 0.62906 0.31047 0.0
H219 H 0.31721 0.64165 0.4253 0.0
C220 C 0.49368 0.75636 0.71753 0.0
C221 C 0.46248 0.74435 0.75569 0.0
C222 C 0.53475 0.75572 0.7394 0.0
C223 C 0.54562 0.74343 0.80047 0.0
C224 C 0.51432 0.7317 0.83866 0.0
C225 C 0.47328 0.73217 0.81664 0.0
C226 C 0.58888 0.74165 0.82618 0.0
C227 C 0.62117 0.75834 0.80071 0.0
C228 C 0.66299 0.75834 0.83205 0.0
C229 C 0.68886 0.79024 0.82694 0.0
C230 C 0.72547 0.79388 0.86417 0.0
C231 C 0.737 0.76535 0.90633 0.0
H232 H 0.65834 0.70244 0.87308 0.0
C233 C 0.713 0.73189 0.90709 0.0
C234 C 0.67655 0.72823 0.86999 0.0
H235 H 0.72126 0.70946 0.93927 0.0
H236 H 0.48654 0.76537 0.66988 0.0
H237 H 0.5576 0.76419 0.70757 0.0
H238 H 0.52162 0.72202 0.88588 0.0
H239 H 0.45004 0.72293 0.84739 0.0
H240 H 0.59386 0.72742 0.87056 0.0
H241 H 0.6166 0.77548 0.75943 0.0
H242 H 0.6794 0.81365 0.79749 0.0
H243 H 0.74266 0.82045 0.86402 0.0
C244 C 0.65459 0.10863 0.16475 0.0
C245 C 0.68796 0.13369 0.15946 0.0
C246 C 0.66075 0.0692 0.17092 0.0
C247 C 0.70049 0.05377 0.17127 0.0
C248 C 0.73379 0.0788 0.16614 0.0
C249 C 0.72765 0.11827 0.16019 0.0
C250 C 0.70881 0.01185 0.17487 0.0
C251 C 0.68081 0.98396 0.1599 0.0
C252 C 0.69412 0.94405 0.14445 0.0
C253 C 0.67881 0.9259 0.08751 0.0
C254 C 0.7003 0.89541 0.0596 0.0
C255 C 0.73682 0.88237 0.08909 0.0
H256 H 0.73848 0.93995 0.22359 0.0
C257 C 0.74802 0.89611 0.15109 0.0
C258 C 0.7269 0.92709 0.17854 0.0
H259 H 0.77595 0.88639 0.175 0.0
H260 H 0.62358 0.11952 0.16533 0.0
H261 H 0.63427 0.05124 0.17623 0.0
H262 H 0.76478 0.06776 0.16625 0.0
H263 H 0.75409 0.13669 0.15681 0.0
H264 H 0.74069 1.00365 0.18257 0.0
H265 H 0.64948 0.99137 0.14636 0.0
H266 H 0.65315 0.9381 0.06095 0.0
H267 H 0.69089 0.88495 0.01196 0.0
C268 C 0.29516 0.30622 0.35744 0.0
C269 C 0.29212 0.26761 0.37392 0.0
C270 C 0.33231 0.32594 0.36655 0.0
C271 C 0.36691 0.30732 0.39253 0.0
C272 C 0.36366 0.26912 0.41009 0.0
C273 C 0.32679 0.24931 0.40037 0.0
C274 C 0.40798 0.3249 0.39569 0.0
C275 C 0.42094 0.34432 0.34703 0.0
C276 C 0.46342 0.33926 0.32815 0.0
C277 C 0.46946 0.32908 0.26439 0.0
C278 C 0.50658 0.31351 0.24673 0.0
C279 C 0.53851 0.30854 0.29248 0.0
H280 H 0.49265 0.3456 0.42258 0.0
C281 C 0.53374 0.32188 0.3554 0.0
C282 C 0.49637 0.33719 0.37321 0.0
H283 H 0.5583 0.31914 0.39122 0.0
H284 H 0.2688 0.32132 0.33793 0.0
H285 H 0.33396 0.35557 0.35318 0.0
H286 H 0.39007 0.25412 0.42971 0.0
H287 H 0.3254 0.21984 0.41467 0.0
H288 H 0.43036 0.31275 0.42886 0.0
H289 H 0.39878 0.35371 0.31095 0.0
H290 H 0.44452 0.33062 0.22883 0.0
H291 H 0.51 0.30474 0.1974 0.0
C292 C 0.2686 0.87442 0.61481 0.0
C293 C 0.24965 0.83928 0.59434 0.0
C294 C 0.24777 0.90934 0.61034 0.0
C295 C 0.2072 0.91031 0.58515 0.0
C296 C 0.18805 0.87525 0.5649 0.0
C297 C 0.20886 0.84006 0.57002 0.0
C298 C 0.18605 0.94758 0.57336 0.0
C299 C 0.19568 0.98111 0.60597 0.0
C300 C 0.18222 0.01988 0.58535 0.0
C301 C 0.18629 0.05215 0.62831 0.0
C302 C 0.18081 0.08975 0.60752 0.0
C303 C 0.172 0.09561 0.54309 0.0
H304 H 0.16772 1.00247 0.48649 0.0
C305 C 0.16563 0.06337 0.50099 0.0
C306 C 0.17056 0.02606 0.52168 0.0
H307 H 0.15845 0.06708 0.45102 0.0
H308 H 0.29993 0.87514 0.63405 0.0
H309 H 0.26423 0.93559 0.62463 0.0
H310 H 0.157 0.87511 0.54446 0.0
H311 H 0.19329 0.81363 0.55382 0.0
H312 H 0.16268 0.94731 0.53504 0.0
H313 H 0.21607 0.98054 0.64808 0.0
H314 H 0.1954 0.04836 0.67761 0.0
H315 H 0.18596 0.11411 0.64088 0.0
C316 C 0.98057 0.77325 0.92328 0.0
C317 C 0.97439 0.7611 0.98445 0.0
C318 C 0.01951 0.77128 0.89883 0.0
C319 C 0.0531 0.75712 0.93485 0.0
C320 C 0.04698 0.74569 -0.00339 0.0
C321 C 0.00807 0.74744 0.02084 0.0
C322 C 0.09377 0.75519 0.90624 0.0
C323 C 0.12607 0.73482 0.92888 0.0
C324 C 0.16483 0.73129 0.89522 0.0
C325 C 0.18823 0.69745 0.89956 0.0
C326 C 0.22148 0.69107 0.86108 0.0
C327 C 0.23179 0.71867 0.81831 0.0
H328 H 0.16174 0.7874 0.85386 0.0
C329 C 0.21053 0.7537 0.8177 0.0
C330 C 0.1777 0.7602 0.85629 0.0
H331 H 0.21824 0.77547 0.78517 0.0
H332 H 0.95531 0.78381 0.89393 0.0
H333 H 0.02329 0.78054 0.85124 0.0
H334 H 0.07195 0.73573 0.02698 0.0
H335 H 0.00456 0.73837 0.0686 0.0
H336 H 0.09619 0.76956 0.86207 0.0
H337 H 0.12319 0.71746 0.96971 0.0
H338 H 0.17935 0.67497 0.92995 0.0
H339 H 0.23716 0.66364 0.86162 0.0
C340 C 0.72441 0.40935 0.17736 0.0
C341 C 0.74588 0.39749 0.23248 0.0
C342 C 0.71973 0.44864 0.16665 0.0
C343 C 0.73613 0.4766 0.21117 0.0
C344 C 0.75711 0.46477 0.26616 0.0
C345 C 0.7626 0.42579 0.27616 0.0
C346 C 0.73412 0.51834 0.20067 0.0
C347 C 0.74146 0.53234 0.14423 0.0
C348 C 0.7536 0.573 0.13879 0.0
C349 C 0.78677 0.58078 0.10199 0.0
C350 C 0.80255 0.61798 0.10151 0.0
C351 C 0.78474 0.64844 0.13645 0.0
H352 H 0.70893 0.5983 0.2008 0.0
C353 C 0.75016 0.64115 0.17085 0.0
C354 C 0.73495 0.60354 0.17266 0.0
H355 H 0.73565 0.66426 0.1976 0.0
H356 H 0.7111 0.38842 0.14269 0.0
H357 H 0.70314 0.45711 0.12392 0.0
H358 H 0.77031 0.48581 0.30082 0.0
H359 H 0.77976 0.41785 0.31872 0.0
H360 H 0.73404 0.5379 0.24238 0.0
H361 H 0.74611 0.51244 0.10397 0.0
H362 H 0.80156 0.55773 0.07545 0.0
H363 H 0.82876 0.62291 0.07354 0.0
C364 C 0.77254 0.27939 0.43895 0.0
C365 C 0.75971 0.25199 0.39132 0.0
C366 C 0.80498 0.2711 0.48151 0.0
C367 C 0.82513 0.23555 0.476 0.0
C368 C 0.80808 0.20622 0.43475 0.0
C369 C 0.77584 0.2146 0.39202 0.0
C370 C 0.86813 0.23377 0.50068 0.0
C371 C 0.89692 0.21912 0.46306 0.0
C372 C 0.93997 0.23237 0.46663 0.0
C373 C 0.96898 0.20998 0.43502 0.0
C374 C 0.00866 0.22372 0.42982 0.0
C375 C 0.02024 0.26011 0.45683 0.0
H376 H 0.9294 0.28817 0.51437 0.0
C377 C 0.99106 0.2828 0.48756 0.0
C378 C 0.95128 0.26919 0.49227 0.0
H379 H -0.00097 0.31117 0.50797 0.0
H380 H 0.76093 0.30847 0.43876 0.0
H381 H 0.81737 0.29406 0.51333 0.0
H382 H 0.82213 0.17804 0.43122 0.0
H383 H 0.76577 0.19278 0.35627 0.0
H384 H 0.87703 0.25219 0.54201 0.0
H385 H 0.88789 0.20067 0.42178 0.0
H386 H 0.96075 0.18197 0.41338 0.0
H387 H 0.03024 0.2056 0.40524 0.0
C388 C 0.21246 0.34722 0.56119 0.0
C389 C 0.17664 0.32734 0.57448 0.0
C390 C 0.21763 0.3862 0.57914 0.0
C391 C 0.18703 0.40646 0.61103 0.0
C392 C 0.15313 0.38568 0.63016 0.0
C393 C 0.14774 0.34647 0.61155 0.0
C394 C 0.19002 0.44909 0.62429 0.0
C395 C 0.20738 0.47305 0.58435 0.0
C396 C 0.21518 0.51524 0.5981 0.0
C397 C 0.19628 0.53668 0.64661 0.0
C398 C 0.21028 0.57379 0.66544 0.0
C399 C 0.24349 0.59035 0.63652 0.0
H400 H 0.25929 0.51849 0.52536 0.0
C401 C 0.25879 0.57102 0.5829 0.0
C402 C 0.2447 0.53386 0.56389 0.0
H403 H 0.28474 0.58261 0.56014 0.0
H404 H 0.23514 0.33329 0.53226 0.0
H405 H 0.24504 0.40069 0.56604 0.0
H406 H 0.12948 0.40037 0.656 0.0
H407 H 0.11946 0.33221 0.62135 0.0
H408 H 0.17734 0.46052 0.66769 0.0
H409 H 0.21883 0.46073 0.54048 0.0
H410 H 0.17221 0.52439 0.67254 0.0
H411 H 0.19789 0.58797 0.70704 0.0
C412 C 0.05408 0.05793 0.41819 0.0
C413 C 0.06366 0.09431 0.3961 0.0
C414 C 0.04041 0.02787 0.37643 0.0
C415 C 0.03538 0.0333 0.31107 0.0
C416 C 0.04582 0.06937 0.28856 0.0
C417 C 0.0598 0.09962 0.3306 0.0
C418 C 0.02066 1.00165 0.26527 0.0
C419 C -0.00098 0.9708 0.28191 0.0
C420 C 0.98403 0.93939 0.23605 0.0
C421 C 0.94946 0.91772 0.2496 0.0
C422 C 0.93293 0.88979 0.2055 0.0
C423 C 0.95091 0.88277 0.14705 0.0
H424 H 0.03129 0.94518 0.16848 0.0
C425 C 0.98719 0.90258 0.13562 0.0
C426 C 0.00357 0.93047 0.1795 0.0
H427 H 0.00233 0.89754 0.09157 0.0
H428 H 0.0575 0.05231 0.46815 0.0
H429 H 0.03454 1.00031 0.39589 0.0
H430 H 0.04284 0.07427 0.2383 0.0
H431 H 0.06724 0.12711 0.31192 0.0
H432 H 0.02653 0.00486 0.2157 0.0
H433 H 0.98967 0.96931 0.33025 0.0
H434 H 0.93425 0.92341 0.29344 0.0
H435 H 0.90508 0.87504 0.21605 0.0
C436 C 0.60973 0.50839 0.3569 0.0
C437 C 0.64365 0.49376 0.39131 0.0
C438 C 0.59106 0.54251 0.37739 0.0
C439 C 0.60545 0.56225 0.43374 0.0
C440 C 0.64194 0.54968 0.46438 0.0
C441 C 0.66099 0.51561 0.4433 0.0
C442 C 0.58108 0.59306 0.46556 0.0
C443 C 0.53973 0.59454 0.45904 0.0
C444 C 0.51329 0.61668 0.5032 0.0
C445 C 0.47122 0.62028 0.48676 0.0
C446 C 0.44396 0.63452 0.5313 0.0
C447 C 0.4583 0.64494 0.59344 0.0
H448 H 0.55954 0.62699 0.58002 0.0
C449 C 0.50061 0.64355 0.60868 0.0
C450 C 0.52775 0.62957 0.56435 0.0
H451 H 0.51278 0.65196 0.65595 0.0
H452 H 0.59629 0.49229 0.31585 0.0
H453 H 0.56434 0.55222 0.35046 0.0
H454 H 0.6541 0.56468 0.50737 0.0
H455 H 0.68713 0.50485 0.47055 0.0
H456 H 0.59736 0.61177 0.50079 0.0
H457 H 0.52369 0.57576 0.42361 0.0
H458 H 0.45912 0.61052 0.44008 0.0
H459 H 0.41156 0.63548 0.51802 0.0
C460 C -0.00269 0.13745 0.6297 0.0
C461 C 0.98749 0.17659 0.63787 0.0
C462 C 0.97958 0.11031 0.66624 0.0
C463 C 0.95176 0.12181 0.71208 0.0
C464 C 0.94044 0.1607 0.71819 0.0
C465 C 0.95828 0.18796 0.68153 0.0
C466 C 0.93374 0.09355 0.75298 0.0
C467 C 0.95449 0.06211 0.77098 0.0
C468 C 0.93723 0.03118 0.80766 0.0
C469 C 0.96423 1.004 0.83341 0.0
C470 C 0.94938 0.97215 0.86282 0.0
C471 C 0.90707 0.96673 0.86705 0.0
H472 H 0.87283 0.04604 0.79313 0.0
C473 C 0.88001 0.99456 0.84313 0.0
C474 C 0.89487 0.02636 0.81341 0.0
H475 H 0.8472 0.99117 0.84535 0.0
H476 H 0.01889 0.12771 0.59525 0.0
H477 H 0.9876 0.08031 0.65814 0.0
H478 H 0.91849 0.17011 0.75238 0.0
H479 H 0.94975 0.21794 0.6882 0.0
H480 H 0.90359 0.09971 0.77002 0.0
H481 H 0.98611 0.05867 0.75827 0.0
H482 H -0.00301 0.00692 0.82955 0.0
H483 H 0.97112 0.95138 0.88102 0.0
C484 C 0.5447 0.40187 0.13439 0.0
C485 C 0.58276 0.38362 0.1301 0.0
C486 C 0.52581 0.41796 0.08147 0.0
C487 C 0.54456 0.4161 0.02293 0.0
C488 C 0.58237 0.39737 0.01831 0.0
C489 C 0.60118 0.38089 0.07135 0.0
C490 C 0.52721 0.43723 0.9687 0.0
C491 C 0.48677 0.44347 0.96041 0.0
C492 C 0.46877 0.47319 0.91951 0.0
C493 C 0.42648 0.47215 0.90495 0.0
C494 C 0.40692 0.50303 0.87651 0.0
C495 C 0.42929 0.53583 0.86247 0.0
H496 H 0.52402 0.50763 0.91427 0.0
C497 C 0.47196 0.53612 0.87423 0.0
C498 C 0.49153 0.50519 0.90262 0.0
H499 H 0.49015 0.56086 0.86379 0.0
H500 H 0.52971 0.40429 0.17896 0.0
H501 H 0.49733 0.43325 0.08746 0.0
H502 H 0.59763 0.39599 0.97393 0.0
H503 H 0.63066 0.36711 0.0668 0.0
H504 H 0.54847 0.44941 0.93724 0.0
H505 H 0.46576 0.42786 0.98818 0.0
H506 H 0.4082 0.44798 0.91782 0.0
H507 H 0.37403 0.50167 0.8677 0.0
loop_
_geom_bond_atom_site_label_1
_geom_bond_atom_site_label_2
_geom_bond_distance
_geom_bond_site_symmetry_2
_ccdc_geom_bond_type
C0 O12 1.241 . S
C0 O13 1.280 . S
C1 O14 1.277 . S
C1 O15 1.245 . S
C2 O26 1.247 1_554 S
C2 O28 1.289 . S
Mg3 O4 1.926 . S
Mg3 O13 1.984 . S
Mg3 O15 1.988 . S
Mg3 O16 2.061 . S
O4 Mg3 1.926 . S
O4 Mg5 1.986 . S
O4 Mg6 1.917 . S
Mg5 O4 1.986 . S
Mg5 O12 2.042 . S
Mg5 O14 2.041 . S
Mg5 O20 2.038 . S
Mg5 O28 2.238 . S
Mg6 O4 1.917 . S
Mg6 O7 1.917 1_554 S
Mg6 O17 2.106 1_554 S
Mg6 O19 2.079 1_554 S
Mg6 O28 2.106 . S
Mg6 O29 2.079 . S
O7 Mg6 1.917 1_556 S
O7 Mg8 1.926 . S
O7 Mg9 1.986 . S
Mg8 O7 1.926 . S
Mg8 O22 1.984 . S
Mg8 O25 1.988 . S
Mg8 O26 2.061 . S
Mg9 O7 1.986 . S
Mg9 O17 2.238 . S
Mg9 O21 2.042 . S
Mg9 O23 2.041 . S
Mg9 O30 2.038 1_556 S
C10 O16 1.247 1_556 S
C10 O17 1.289 . S
C11 O29 1.245 . S
C11 O30 1.274 . S
O12 C0 1.241 . S
O12 Mg5 2.042 . S
O13 C0 1.280 . S
O13 Mg3 1.984 . S
O14 C1 1.277 . S
O14 Mg5 2.041 . S
O15 C1 1.245 . S
O15 Mg3 1.988 . S
O16 Mg3 2.061 . S
O16 C10 1.247 1_554 S
O17 Mg6 2.106 1_556 S
O17 Mg9 2.238 . S
O17 C10 1.289 . S
C18 O19 1.245 . S
C18 O20 1.274 1_556 S
O19 Mg6 2.079 1_556 S
O19 C18 1.245 . S
O20 Mg5 2.038 . S
O20 C18 1.274 1_554 S
O21 Mg9 2.042 . S
O21 C24 1.241 . S
O22 Mg8 1.984 . S
O22 C24 1.280 . S
O23 Mg9 2.041 . S
O23 C27 1.277 . S
C24 O21 1.241 . S
C24 O22 1.280 . S
O25 Mg8 1.988 . S
O25 C27 1.245 . S
O26 C2 1.247 1_556 S
O26 Mg8 2.061 . S
C27 O23 1.277 . S
C27 O25 1.245 . S
O28 C2 1.289 . S
O28 Mg5 2.238 . S
O28 Mg6 2.106 . S
O29 Mg6 2.079 . S
O29 C11 1.245 . S
O30 Mg9 2.038 1_554 S
O30 C11 1.274 . S
C31 O43 1.241 . S
C31 O44 1.280 . S
C32 O45 1.277 . S
C32 O46 1.245 . S
C33 O57 1.247 . S
C33 O59 1.289 . S
Mg34 O35 1.926 . S
Mg34 O44 1.984 . S
Mg34 O46 1.988 . S
Mg34 O47 2.061 . S
O35 Mg34 1.926 . S
O35 Mg36 1.986 . S
O35 Mg37 1.917 . S
Mg36 O35 1.986 . S
Mg36 O43 2.042 . S
Mg36 O45 2.041 . S
Mg36 O51 2.038 . S
Mg36 O59 2.238 . S
Mg37 O35 1.917 . S
Mg37 O38 1.917 . S
Mg37 O48 2.106 . S
Mg37 O50 2.079 . S
Mg37 O59 2.106 . S
Mg37 O60 2.079 . S
O38 Mg37 1.917 . S
O38 Mg39 1.926 . S
O38 Mg40 1.986 . S
Mg39 O38 1.926 . S
Mg39 O53 1.984 . S
Mg39 O56 1.988 . S
Mg39 O57 2.061 . S
Mg40 O38 1.986 . S
Mg40 O48 2.238 . S
Mg40 O52 2.042 . S
Mg40 O54 2.041 . S
Mg40 O61 2.038 . S
C41 O47 1.247 . S
C41 O48 1.289 . S
C42 O60 1.245 . S
C42 O61 1.274 . S
O43 C31 1.241 . S
O43 Mg36 2.042 . S
O44 C31 1.280 . S
O44 Mg34 1.984 . S
O45 C32 1.277 . S
O45 Mg36 2.041 . S
O46 C32 1.245 . S
O46 Mg34 1.988 . S
O47 Mg34 2.061 . S
O47 C41 1.247 . S
O48 Mg37 2.106 . S
O48 Mg40 2.238 . S
O48 C41 1.289 . S
C49 O50 1.245 . S
C49 O51 1.274 . S
O50 Mg37 2.079 . S
O50 C49 1.245 . S
O51 Mg36 2.038 . S
O51 C49 1.274 . S
O52 Mg40 2.042 . S
O52 C55 1.241 . S
O53 Mg39 1.984 . S
O53 C55 1.280 . S
O54 Mg40 2.041 . S
O54 C58 1.277 . S
C55 O52 1.241 . S
C55 O53 1.280 . S
O56 Mg39 1.988 . S
O56 C58 1.245 . S
O57 C33 1.247 . S
O57 Mg39 2.061 . S
C58 O54 1.277 . S
C58 O56 1.245 . S
O59 C33 1.289 . S
O59 Mg36 2.238 . S
O59 Mg37 2.106 . S
O60 Mg37 2.079 . S
O60 C42 1.245 . S
O61 Mg40 2.038 . S
O61 C42 1.274 . S
C62 O74 1.241 . S
C62 O75 1.280 . S
C63 O76 1.277 . S
C63 O77 1.245 . S
C64 O88 1.247 . S
C64 O90 1.289 . S
Mg65 O66 1.926 . S
Mg65 O75 1.984 . S
Mg65 O77 1.988 . S
Mg65 O78 2.061 . S
O66 Mg65 1.926 . S
O66 Mg67 1.986 . S
O66 Mg68 1.917 . S
Mg67 O66 1.986 . S
Mg67 O74 2.042 . S
Mg67 O76 2.041 . S
Mg67 O82 2.038 . S
Mg67 O90 2.238 . S
Mg68 O66 1.917 . S
Mg68 O69 1.917 . S
Mg68 O79 2.106 . S
Mg68 O81 2.079 . S
Mg68 O90 2.106 . S
Mg68 O91 2.079 . S
O69 Mg68 1.917 . S
O69 Mg70 1.926 . S
O69 Mg71 1.986 . S
Mg70 O69 1.926 . S
Mg70 O84 1.984 . S
Mg70 O87 1.988 . S
Mg70 O88 2.061 . S
Mg71 O69 1.986 . S
Mg71 O79 2.238 . S
Mg71 O83 2.042 . S
Mg71 O85 2.041 . S
Mg71 O92 2.038 . S
C72 O78 1.247 . S
C72 O79 1.289 . S
C73 O91 1.245 . S
C73 O92 1.274 . S
O74 C62 1.241 . S
O74 Mg67 2.042 . S
O75 C62 1.280 . S
O75 Mg65 1.984 . S
O76 C63 1.277 . S
O76 Mg67 2.041 . S
O77 C63 1.245 . S
O77 Mg65 1.988 . S
O78 Mg65 2.061 . S
O78 C72 1.247 . S
O79 Mg68 2.106 . S
O79 Mg71 2.238 . S
O79 C72 1.289 . S
C80 O81 1.245 . S
C80 O82 1.274 . S
O81 Mg68 2.079 . S
O81 C80 1.245 . S
O82 Mg67 2.038 . S
O82 C80 1.274 . S
O83 Mg71 2.042 . S
O83 C86 1.241 . S
O84 Mg70 1.984 . S
O84 C86 1.280 . S
O85 Mg71 2.041 . S
O85 C89 1.277 . S
C86 O83 1.241 . S
C86 O84 1.280 . S
O87 Mg70 1.988 . S
O87 C89 1.245 . S
O88 C64 1.247 . S
O88 Mg70 2.061 . S
C89 O85 1.277 . S
C89 O87 1.245 . S
O90 C64 1.289 . S
O90 Mg67 2.238 . S
O90 Mg68 2.106 . S
O91 Mg68 2.079 . S
O91 C73 1.245 . S
O92 Mg71 2.038 . S
O92 C73 1.274 . S
C93 O105 1.241 . S
C93 O106 1.280 . S
C94 O107 1.277 . S
C94 O108 1.245 . S
C95 O119 1.247 . S
C95 O121 1.289 . S
Mg96 O97 1.926 . S
Mg96 O106 1.984 . S
Mg96 O108 1.988 . S
Mg96 O109 2.061 . S
O97 Mg96 1.926 . S
O97 Mg98 1.986 . S
O97 Mg99 1.917 . S
Mg98 O97 1.986 . S
Mg98 O105 2.042 . S
Mg98 O107 2.041 . S
Mg98 O113 2.038 . S
Mg98 O121 2.238 . S
Mg99 O97 1.917 . S
Mg99 O100 1.917 . S
Mg99 O110 2.106 . S
Mg99 O112 2.079 . S
Mg99 O121 2.106 . S
Mg99 O122 2.079 . S
O100 Mg99 1.917 . S
O100 Mg101 1.926 . S
O100 Mg102 1.986 . S
Mg101 O100 1.926 . S
Mg101 O115 1.984 . S
Mg101 O118 1.988 . S
Mg101 O119 2.061 . S
Mg102 O100 1.986 . S
Mg102 O110 2.238 . S
Mg102 O114 2.042 . S
Mg102 O116 2.041 . S
Mg102 O123 2.038 . S
C103 O109 1.247 . S
C103 O110 1.289 . S
C104 O122 1.245 . S
C104 O123 1.274 . S
O105 C93 1.241 . S
O105 Mg98 2.042 . S
O106 C93 1.280 . S
O106 Mg96 1.984 . S
O107 C94 1.277 . S
O107 Mg98 2.041 . S
O108 C94 1.245 . S
O108 Mg96 1.988 . S
O109 Mg96 2.061 . S
O109 C103 1.247 . S
O110 Mg99 2.106 . S
O110 Mg102 2.238 . S
O110 C103 1.289 . S
C111 O112 1.245 . S
C111 O113 1.274 . S
O112 Mg99 2.079 . S
O112 C111 1.245 . S
O113 Mg98 2.038 . S
O113 C111 1.274 . S
O114 Mg102 2.042 . S
O114 C117 1.241 . S
O115 Mg101 1.984 . S
O115 C117 1.280 . S
O116 Mg102 2.041 . S
O116 C120 1.277 . S
C117 O114 1.241 . S
C117 O115 1.280 . S
O118 Mg101 1.988 . S
O118 C120 1.245 . S
O119 C95 1.247 . S
O119 Mg101 2.061 . S
C120 O116 1.277 . S
C120 O118 1.245 . S
O121 C95 1.289 . S
O121 Mg98 2.238 . S
O121 Mg99 2.106 . S
O122 Mg99 2.079 . S
O122 C104 1.245 . S
O123 Mg102 2.038 . S
O123 C104 1.274 . S
C124 C125 1.386 . S
C124 C126 1.383 . S
C124 H140 0.951 . S
C125 C124 1.386 . S
C125 C129 1.383 . S
C126 C124 1.383 . S
C126 C127 1.402 . S
C126 H141 0.951 . S
C127 C126 1.402 . S
C127 C128 1.375 . S
C127 C130 1.481 . S
C128 C127 1.375 . S
C128 C129 1.367 . S
C128 H142 0.951 . S
C129 C125 1.383 . S
C129 C128 1.367 . S
C129 H143 0.950 . S
C130 C127 1.481 . S
C130 C131 1.297 . S
C130 H144 0.950 . S
C131 C130 1.297 . S
C131 C132 1.479 . S
C131 H145 0.950 . S
C132 C131 1.479 . S
C132 C133 1.375 . S
C132 C138 1.404 . S
C133 C132 1.375 . S
C133 C134 1.369 . S
C133 H146 0.950 . S
C134 C133 1.369 . S
C134 C135 1.392 . S
C134 H147 0.951 . S
C135 C134 1.392 . S
C135 C137 1.384 . S
H136 C138 0.949 . S
C137 C135 1.384 . S
C137 C138 1.385 . S
C137 H139 0.950 . S
C138 C132 1.404 . S
C138 H136 0.949 . S
C138 C137 1.385 . S
H139 C137 0.950 . S
H140 C124 0.951 . S
H141 C126 0.951 . S
H142 C128 0.951 . S
H143 C129 0.950 . S
H144 C130 0.950 . S
H145 C131 0.950 . S
H146 C133 0.950 . S
H147 C134 0.951 . S
C148 C149 1.386 . S
C148 C150 1.383 . S
C148 H164 0.951 . S
C149 C148 1.386 . S
C149 C153 1.383 . S
C150 C148 1.383 . S
C150 C151 1.402 . S
C150 H165 0.951 . S
C151 C150 1.402 . S
C151 C152 1.375 . S
C151 C154 1.481 . S
C152 C151 1.375 . S
C152 C153 1.367 . S
C152 H166 0.951 . S
C153 C149 1.383 . S
C153 C152 1.367 . S
C153 H167 0.950 . S
C154 C151 1.481 . S
C154 C155 1.297 . S
C154 H168 0.950 . S
C155 C154 1.297 . S
C155 C156 1.479 . S
C155 H169 0.950 . S
C156 C155 1.479 . S
C156 C157 1.375 . S
C156 C162 1.404 . S
C157 C156 1.375 . S
C157 C158 1.369 . S
C157 H170 0.950 . S
C158 C157 1.369 . S
C158 C159 1.392 . S
C158 H171 0.951 . S
C159 C158 1.392 . S
C159 C161 1.384 . S
H160 C162 0.949 . S
C161 C159 1.384 . S
C161 C162 1.385 . S
C161 H163 0.950 . S
C162 C156 1.404 . S
C162 H160 0.949 . S
C162 C161 1.385 . S
H163 C161 0.950 . S
H164 C148 0.951 . S
H165 C150 0.951 . S
H166 C152 0.951 . S
H167 C153 0.950 . S
H168 C154 0.950 . S
H169 C155 0.950 . S
H170 C157 0.950 . S
H171 C158 0.951 . S
C172 C173 1.386 . S
C172 C174 1.383 . S
C172 H188 0.951 . S
C173 C172 1.386 . S
C173 C177 1.383 . S
C174 C172 1.383 . S
C174 C175 1.402 . S
C174 H189 0.951 . S
C175 C174 1.402 . S
C175 C176 1.375 . S
C175 C178 1.481 . S
C176 C175 1.375 . S
C176 C177 1.367 . S
C176 H190 0.951 . S
C177 C173 1.383 . S
C177 C176 1.367 . S
C177 H191 0.950 . S
C178 C175 1.481 . S
C178 C179 1.297 1_556 S
C178 H192 0.950 . S
C179 C178 1.297 1_554 S
C179 C180 1.479 . S
C179 H193 0.950 1_554 S
C180 C179 1.479 . S
C180 C181 1.375 . S
C180 C186 1.404 . S
C181 C180 1.375 . S
C181 C182 1.369 . S
C181 H194 0.950 . S
C182 C181 1.369 . S
C182 C183 1.392 . S
C182 H195 0.951 . S
C183 C182 1.392 . S
C183 C185 1.384 . S
H184 C186 0.949 . S
C185 C183 1.384 . S
C185 C186 1.385 . S
C185 H187 0.950 . S
C186 C180 1.404 . S
C186 H184 0.949 . S
C186 C185 1.385 . S
H187 C185 0.950 . S
H188 C172 0.951 . S
H189 C174 0.951 . S
H190 C176 0.951 . S
H191 C177 0.950 . S
H192 C178 0.950 . S
H193 C179 0.950 1_556 S
H194 C181 0.950 . S
H195 C182 0.951 . S
C196 C197 1.386 . S
C196 C198 1.383 . S
C196 H212 0.951 . S
C197 C196 1.386 . S
C197 C201 1.383 . S
C198 C196 1.383 . S
C198 C199 1.402 . S
C198 H213 0.951 . S
C199 C198 1.402 . S
C199 C200 1.375 . S
C199 C202 1.481 . S
C200 C199 1.375 . S
C200 C201 1.367 . S
C200 H214 0.951 . S
C201 C197 1.383 . S
C201 C200 1.367 . S
C201 H215 0.950 . S
C202 C199 1.481 . S
C202 C203 1.297 . S
C202 H216 0.950 . S
C203 C202 1.297 . S
C203 C204 1.479 . S
C203 H217 0.950 . S
C204 C203 1.479 . S
C204 C205 1.375 . S
C204 C210 1.404 . S
C205 C204 1.375 . S
C205 C206 1.369 . S
C205 H218 0.950 . S
C206 C205 1.369 . S
C206 C207 1.392 . S
C206 H219 0.951 . S
C207 C206 1.392 . S
C207 C209 1.384 . S
H208 C210 0.949 . S
C209 C207 1.384 . S
C209 C210 1.385 . S
C209 H211 0.950 . S
C210 C204 1.404 . S
C210 H208 0.949 . S
C210 C209 1.385 . S
H211 C209 0.950 . S
H212 C196 0.951 . S
H213 C198 0.951 . S
H214 C200 0.951 . S
H215 C201 0.950 . S
H216 C202 0.950 . S
H217 C203 0.950 . S
H218 C205 0.950 . S
H219 C206 0.951 . S
C220 C221 1.386 . S
C220 C222 1.383 . S
C220 H236 0.951 . S
C221 C220 1.386 . S
C221 C225 1.383 . S
C222 C220 1.383 . S
C222 C223 1.402 . S
C222 H237 0.951 . S
C223 C222 1.402 . S
C223 C224 1.375 . S
C223 C226 1.481 . S
C224 C223 1.375 . S
C224 C225 1.367 . S
C224 H238 0.951 . S
C225 C221 1.383 . S
C225 C224 1.367 . S
C225 H239 0.950 . S
C226 C223 1.481 . S
C226 C227 1.297 . S
C226 H240 0.950 . S
C227 C226 1.297 . S
C227 C228 1.479 . S
C227 H241 0.950 . S
C228 C227 1.479 . S
C228 C229 1.375 . S
C228 C234 1.404 . S
C229 C228 1.375 . S
C229 C230 1.369 . S
C229 H242 0.950 . S
C230 C229 1.369 . S
C230 C231 1.392 . S
C230 H243 0.951 . S
C231 C230 1.392 . S
C231 C233 1.384 . S
H232 C234 0.949 . S
C233 C231 1.384 . S
C233 C234 1.385 . S
C233 H235 0.950 . S
C234 C228 1.404 . S
C234 H232 0.949 . S
C234 C233 1.385 . S
H235 C233 0.950 . S
H236 C220 0.951 . S
H237 C222 0.951 . S
H238 C224 0.951 . S
H239 C225 0.950 . S
H240 C226 0.950 . S
H241 C227 0.950 . S
H242 C229 0.950 . S
H243 C230 0.951 . S
C244 C245 1.386 . S
C244 C246 1.383 . S
C244 H260 0.951 . S
C245 C244 1.386 . S
C245 C249 1.383 . S
C246 C244 1.383 . S
C246 C247 1.402 . S
C246 H261 0.951 . S
C247 C246 1.402 . S
C247 C248 1.375 . S
C247 C250 1.481 . S
C248 C247 1.375 . S
C248 C249 1.367 . S
C248 H262 0.951 . S
C249 C245 1.383 . S
C249 C248 1.367 . S
C249 H263 0.950 . S
C250 C247 1.481 . S
C250 C251 1.297 . S
C250 H264 0.950 . S
C251 C250 1.297 . S
C251 C252 1.479 . S
C251 H265 0.950 . S
C252 C251 1.479 . S
C252 C253 1.375 1_545 S
C252 C258 1.404 . S
C253 C252 1.375 1_565 S
C253 C254 1.369 . S
C253 H266 0.950 1_565 S
C254 C253 1.369 . S
C254 C255 1.392 . S
C254 H267 0.951 . S
C255 C254 1.392 . S
C255 C257 1.384 . S
H256 C258 0.949 . S
C257 C255 1.384 . S
C257 C258 1.385 1_565 S
C257 H259 0.950 . S
C258 C252 1.404 . S
C258 H256 0.949 . S
C258 C257 1.385 1_545 S
H259 C257 0.950 . S
H260 C244 0.951 . S
H261 C246 0.951 . S
H262 C248 0.951 . S
H263 C249 0.950 . S
H264 C250 0.950 . S
H265 C251 0.950 . S
H266 C253 0.950 1_545 S
H267 C254 0.951 . S
C268 C269 1.386 . S
C268 C270 1.383 . S
C268 H284 0.951 . S
C269 C268 1.386 . S
C269 C273 1.383 . S
C270 C268 1.383 . S
C270 C271 1.402 . S
C270 H285 0.951 . S
C271 C270 1.402 . S
C271 C272 1.375 . S
C271 C274 1.481 . S
C272 C271 1.375 . S
C272 C273 1.367 . S
C272 H286 0.951 . S
C273 C269 1.383 . S
C273 C272 1.367 . S
C273 H287 0.950 . S
C274 C271 1.481 . S
C274 C275 1.297 . S
C274 H288 0.950 . S
C275 C274 1.297 . S
C275 C276 1.479 . S
C275 H289 0.950 . S
C276 C275 1.479 . S
C276 C277 1.375 . S
C276 C282 1.404 . S
C277 C276 1.375 . S
C277 C278 1.369 . S
C277 H290 0.950 . S
C278 C277 1.369 . S
C278 C279 1.392 . S
C278 H291 0.951 . S
C279 C278 1.392 . S
C279 C281 1.384 . S
H280 C282 0.949 . S
C281 C279 1.384 . S
C281 C282 1.385 . S
C281 H283 0.950 . S
C282 C276 1.404 . S
C282 H280 0.949 . S
C282 C281 1.385 . S
H283 C281 0.950 . S
H284 C268 0.951 . S
H285 C270 0.951 . S
H286 C272 0.951 . S
H287 C273 0.950 . S
H288 C274 0.950 . S
H289 C275 0.950 . S
H290 C277 0.950 . S
H291 C278 0.951 . S
C292 C293 1.386 . S
C292 C294 1.383 . S
C292 H308 0.951 . S
C293 C292 1.386 . S
C293 C297 1.383 . S
C294 C292 1.383 . S
C294 C295 1.402 . S
C294 H309 0.951 . S
C295 C294 1.402 . S
C295 C296 1.375 . S
C295 C298 1.481 . S
C296 C295 1.375 . S
C296 C297 1.367 . S
C296 H310 0.951 . S
C297 C293 1.383 . S
C297 C296 1.367 . S
C297 H311 0.950 . S
C298 C295 1.481 . S
C298 C299 1.297 . S
C298 H312 0.950 . S
C299 C298 1.297 . S
C299 C300 1.479 . S
C299 H313 0.950 . S
C300 C299 1.479 . S
C300 C301 1.375 . S
C300 C306 1.404 . S
C301 C300 1.375 . S
C301 C302 1.369 1_565 S
C301 H314 0.950 . S
C302 C301 1.369 1_545 S
C302 C303 1.392 . S
C302 H315 0.951 . S
C303 C302 1.392 . S
C303 C305 1.384 . S
H304 C306 0.949 . S
C305 C303 1.384 . S
C305 C306 1.385 1_545 S
C305 H307 0.950 . S
C306 C300 1.404 . S
C306 H304 0.949 . S
C306 C305 1.385 1_565 S
H307 C305 0.950 . S
H308 C292 0.951 . S
H309 C294 0.951 . S
H310 C296 0.951 . S
H311 C297 0.950 . S
H312 C298 0.950 . S
H313 C299 0.950 . S
H314 C301 0.950 . S
H315 C302 0.951 . S
C316 C317 1.386 . S
C316 C318 1.383 1_655 S
C316 H332 0.951 . S
C317 C316 1.386 . S
C317 C321 1.383 . S
C318 C316 1.383 1_455 S
C318 C319 1.402 . S
C318 H333 0.951 . S
C319 C318 1.402 . S
C319 C320 1.375 . S
C319 C322 1.481 . S
C320 C319 1.375 . S
C320 C321 1.367 1_455 S
C320 H334 0.951 . S
C321 C317 1.383 . S
C321 C320 1.367 1_655 S
C321 H335 0.950 1_556 S
C322 C319 1.481 . S
C322 C323 1.297 . S
C322 H336 0.950 . S
C323 C322 1.297 . S
C323 C324 1.479 . S
C323 H337 0.950 . S
C324 C323 1.479 . S
C324 C325 1.375 . S
C324 C330 1.404 . S
C325 C324 1.375 . S
C325 C326 1.369 . S
C325 H338 0.950 . S
C326 C325 1.369 . S
C326 C327 1.392 . S
C326 H339 0.951 . S
C327 C326 1.392 . S
C327 C329 1.384 . S
H328 C330 0.949 . S
C329 C327 1.384 . S
C329 C330 1.385 . S
C329 H331 0.950 . S
C330 C324 1.404 . S
C330 H328 0.949 . S
C330 C329 1.385 . S
H331 C329 0.950 . S
H332 C316 0.951 . S
H333 C318 0.951 . S
H334 C320 0.951 . S
H335 C321 0.950 1_554 S
H336 C322 0.950 . S
H337 C323 0.950 . S
H338 C325 0.950 . S
H339 C326 0.951 . S
C340 C341 1.386 . S
C340 C342 1.383 . S
C340 H356 0.951 . S
C341 C340 1.386 . S
C341 C345 1.383 . S
C342 C340 1.383 . S
C342 C343 1.402 . S
C342 H357 0.951 . S
C343 C342 1.402 . S
C343 C344 1.375 . S
C343 C346 1.481 . S
C344 C343 1.375 . S
C344 C345 1.367 . S
C344 H358 0.951 . S
C345 C341 1.383 . S
C345 C344 1.367 . S
C345 H359 0.950 . S
C346 C343 1.481 . S
C346 C347 1.297 . S
C346 H360 0.950 . S
C347 C346 1.297 . S
C347 C348 1.479 . S
C347 H361 0.950 . S
C348 C347 1.479 . S
C348 C349 1.375 . S
C348 C354 1.404 . S
C349 C348 1.375 . S
C349 C350 1.369 . S
C349 H362 0.950 . S
C350 C349 1.369 . S
C350 C351 1.392 . S
C350 H363 0.951 . S
C351 C350 1.392 . S
C351 C353 1.384 . S
H352 C354 0.949 . S
C353 C351 1.384 . S
C353 C354 1.385 . S
C353 H355 0.950 . S
C354 C348 1.404 . S
C354 H352 0.949 . S
C354 C353 1.385 . S
H355 C353 0.950 . S
H356 C340 0.951 . S
H357 C342 0.951 . S
H358 C344 0.951 . S
H359 C345 0.950 . S
H360 C346 0.950 . S
H361 C347 0.950 . S
H362 C349 0.950 . S
H363 C350 0.951 . S
C364 C365 1.386 . S
C364 C366 1.383 . S
C364 H380 0.951 . S
C365 C364 1.386 . S
C365 C369 1.383 . S
C366 C364 1.383 . S
C366 C367 1.402 . S
C366 H381 0.951 . S
C367 C366 1.402 . S
C367 C368 1.375 . S
C367 C370 1.481 . S
C368 C367 1.375 . S
C368 C369 1.367 . S
C368 H382 0.951 . S
C369 C365 1.383 . S
C369 C368 1.367 . S
C369 H383 0.950 . S
C370 C367 1.481 . S
C370 C371 1.297 . S
C370 H384 0.950 . S
C371 C370 1.297 . S
C371 C372 1.479 . S
C371 H385 0.950 . S
C372 C371 1.479 . S
C372 C373 1.375 . S
C372 C378 1.404 . S
C373 C372 1.375 . S
C373 C374 1.369 1_655 S
C373 H386 0.950 . S
C374 C373 1.369 1_455 S
C374 C375 1.392 . S
C374 H387 0.951 . S
C375 C374 1.392 . S
C375 C377 1.384 . S
H376 C378 0.949 . S
C377 C375 1.384 . S
C377 C378 1.385 1_455 S
C377 H379 0.950 . S
C378 C372 1.404 . S
C378 H376 0.949 . S
C378 C377 1.385 1_655 S
H379 C377 0.950 . S
H380 C364 0.951 . S
H381 C366 0.951 . S
H382 C368 0.951 . S
H383 C369 0.950 . S
H384 C370 0.950 . S
H385 C371 0.950 . S
H386 C373 0.950 . S
H387 C374 0.951 . S
C388 C389 1.386 . S
C388 C390 1.383 . S
C388 H404 0.951 . S
C389 C388 1.386 . S
C389 C393 1.383 . S
C390 C388 1.383 . S
C390 C391 1.402 . S
C390 H405 0.951 . S
C391 C390 1.402 . S
C391 C392 1.375 . S
C391 C394 1.481 . S
C392 C391 1.375 . S
C392 C393 1.367 . S
C392 H406 0.951 . S
C393 C389 1.383 . S
C393 C392 1.367 . S
C393 H407 0.950 . S
C394 C391 1.481 . S
C394 C395 1.297 . S
C394 H408 0.950 . S
C395 C394 1.297 . S
C395 C396 1.479 . S
C395 H409 0.950 . S
C396 C395 1.479 . S
C396 C397 1.375 . S
C396 C402 1.404 . S
C397 C396 1.375 . S
C397 C398 1.369 . S
C397 H410 0.950 . S
C398 C397 1.369 . S
C398 C399 1.392 . S
C398 H411 0.951 . S
C399 C398 1.392 . S
C399 C401 1.384 . S
H400 C402 0.949 . S
C401 C399 1.384 . S
C401 C402 1.385 . S
C401 H403 0.950 . S
C402 C396 1.404 . S
C402 H400 0.949 . S
C402 C401 1.385 . S
H403 C401 0.950 . S
H404 C388 0.951 . S
H405 C390 0.951 . S
H406 C392 0.951 . S
H407 C393 0.950 . S
H408 C394 0.950 . S
H409 C395 0.950 . S
H410 C397 0.950 . S
H411 C398 0.951 . S
C412 C413 1.386 . S
C412 C414 1.383 . S
C412 H428 0.951 . S
C413 C412 1.386 . S
C413 C417 1.383 . S
C414 C412 1.383 . S
C414 C415 1.402 . S
C414 H429 0.951 1_545 S
C415 C414 1.402 . S
C415 C416 1.375 . S
C415 C418 1.497 . S
C416 C415 1.375 . S
C416 C417 1.367 . S
C416 H430 0.951 . S
C417 C413 1.383 . S
C417 C416 1.367 . S
C417 H431 0.950 . S
C418 C415 1.497 . S
C418 C419 1.289 1_445 S
C418 H432 0.943 1_455 S
C419 C418 1.289 1_665 S
C419 C420 1.479 . S
C419 H433 0.950 . S
C420 C419 1.479 . S
C420 C421 1.375 . S
C420 C426 1.404 . S
C421 C420 1.375 . S
C421 C422 1.369 . S
C421 H434 0.950 . S
C422 C421 1.369 . S
C422 C423 1.392 . S
C422 H435 0.951 . S
C423 C422 1.392 . S
C423 C425 1.384 . S
H424 C426 0.949 1_545 S
C425 C423 1.384 . S
C425 C426 1.385 . S
C425 H427 0.950 . S
C426 C420 1.404 . S
C426 H424 0.949 1_565 S
C426 C425 1.385 . S
H427 C425 0.950 . S
H428 C412 0.951 . S
H429 C414 0.951 1_565 S
H430 C416 0.951 . S
H431 C417 0.950 . S
H432 C418 0.943 1_655 S
H433 C419 0.950 . S
H434 C421 0.950 . S
H435 C422 0.951 . S
C436 C437 1.386 . S
C436 C438 1.383 . S
C436 H452 0.951 . S
C437 C436 1.386 . S
C437 C441 1.383 . S
C438 C436 1.383 . S
C438 C439 1.402 . S
C438 H453 0.951 . S
C439 C438 1.402 . S
C439 C440 1.375 . S
C439 C442 1.481 . S
C440 C439 1.375 . S
C440 C441 1.367 . S
C440 H454 0.951 . S
C441 C437 1.383 . S
C441 C440 1.367 . S
C441 H455 0.950 . S
C442 C439 1.481 . S
C442 C443 1.297 . S
C442 H456 0.950 . S
C443 C442 1.297 . S
C443 C444 1.479 . S
C443 H457 0.950 . S
C444 C443 1.479 . S
C444 C445 1.375 . S
C444 C450 1.404 . S
C445 C444 1.375 . S
C445 C446 1.369 . S
C445 H458 0.950 . S
C446 C445 1.369 . S
C446 C447 1.392 . S
C446 H459 0.951 . S
C447 C446 1.392 . S
C447 C449 1.384 . S
H448 C450 0.949 . S
C449 C447 1.384 . S
C449 C450 1.385 . S
C449 H451 0.950 . S
C450 C444 1.404 . S
C450 H448 0.949 . S
C450 C449 1.385 . S
H451 C449 0.950 . S
H452 C436 0.951 . S
H453 C438 0.951 . S
H454 C440 0.951 . S
H455 C441 0.950 . S
H456 C442 0.950 . S
H457 C443 0.950 . S
H458 C445 0.950 . S
H459 C446 0.951 . S
C460 C461 1.386 . S
C460 C462 1.383 . S
C460 H476 0.951 . S
C461 C460 1.386 . S
C461 C465 1.383 1_455 S
C462 C460 1.383 . S
C462 C463 1.402 1_455 S
C462 H477 0.951 . S
C463 C462 1.402 1_655 S
C463 C464 1.375 . S
C463 C466 1.481 . S
C464 C463 1.375 . S
C464 C465 1.367 . S
C464 H478 0.951 . S
C465 C461 1.383 1_655 S
C465 C464 1.367 . S
C465 H479 0.950 . S
C466 C463 1.481 . S
C466 C467 1.297 . S
C466 H480 0.950 . S
C467 C466 1.297 . S
C467 C468 1.479 . S
C467 H481 0.950 . S
C468 C467 1.479 . S
C468 C469 1.375 1_545 S
C468 C474 1.404 . S
C469 C468 1.375 1_565 S
C469 C470 1.369 . S
C469 H482 0.950 . S
C470 C469 1.369 . S
C470 C471 1.392 . S
C470 H483 0.951 . S
C471 C470 1.392 . S
C471 C473 1.384 1_565 S
H472 C474 0.949 . S
C473 C471 1.384 1_545 S
C473 C474 1.385 . S
C473 H475 0.950 . S
C474 C468 1.404 . S
C474 H472 0.949 . S
C474 C473 1.385 . S
H475 C473 0.950 . S
H476 C460 0.951 . S
H477 C462 0.951 . S
H478 C464 0.951 . S
H479 C465 0.950 . S
H480 C466 0.950 . S
H481 C467 0.950 . S
H482 C469 0.950 . S
H483 C470 0.951 . S
C484 C485 1.386 . S
C484 C486 1.383 . S
C484 H500 0.951 . S
C485 C484 1.386 . S
C485 C489 1.383 . S
C486 C484 1.383 . S
C486 C487 1.402 . S
C486 H501 0.951 . S
C487 C486 1.402 . S
C487 C488 1.375 . S
C487 C490 1.481 . S
C488 C487 1.375 . S
C488 C489 1.367 . S
C488 H502 0.951 . S
C489 C485 1.383 . S
C489 C488 1.367 . S
C489 H503 0.950 . S
C490 C487 1.481 . S
C490 C491 1.297 . S
C490 H504 0.950 . S
C491 C490 1.297 . S
C491 C492 1.479 1_554 S
C491 H505 0.950 . S
C492 C491 1.479 1_556 S
C492 C493 1.375 . S
C492 C498 1.404 . S
C493 C492 1.375 . S
C493 C494 1.369 . S
C493 H506 0.950 . S
C494 C493 1.369 . S
C494 C495 1.392 . S
C494 H507 0.951 . S
C495 C494 1.392 . S
C495 C497 1.384 . S
H496 C498 0.949 . S
C497 C495 1.384 . S
C497 C498 1.385 . S
C497 H499 0.950 . S
C498 C492 1.404 . S
C498 H496 0.949 . S
C498 C497 1.385 . S
H499 C497 0.950 . S
H500 C484 0.951 . S
H501 C486 0.951 . S
H502 C488 0.951 . S
H503 C489 0.950 . S
H504 C490 0.950 . S
H505 C491 0.950 . S
H506 C493 0.950 . S
H507 C494 0.951 . S
C125 C1 1.504 . S
C135 C27 1.556 . S
C149 C58 1.575 . S
C159 C32 1.514 1_556 S
C173 C89 1.519 . S
C183 C63 1.526 . S
C197 C120 1.585 1_554 S
C207 C94 1.523 . S
C221 C103 1.575 . S
C231 C18 1.494 . S
C245 C31 1.266 . S
C255 C2 1.175 . S
C269 C62 1.286 . S
C279 C41 1.152 . S
C293 C93 1.906 . S
C303 C72 1.670 . S
C317 C10 2.108 . S
C327 C111 2.121 . S
C341 C33 1.673 . S
C351 C0 1.754 . S
C365 C49 1.490 . S
C375 C64 1.496 . S
C389 C80 2.127 . S
C399 C95 2.212 . S
C413 C73 0.890 . S
C423 C11 0.896 . S
C437 C55 0.535 . S
C447 C104 0.530 . S
C461 C86 0.723 . S
C471 C24 0.859 . S
C485 C42 0.493 . S
C495 C117 0.450 . S
