# Generated by pormake.
# Topology pcu-i, (5)-cn, num edge types: 1
# Building blocks:
#     Node 0, Type 0, BuildingBlock: XOMCOT_clean_sbu_0, # of connection points: 5
#     Node 1, Type 0, BuildingBlock: XOMCOT_clean_sbu_0, # of connection points: 5
#     Node 2, Type 0, BuildingBlock: XOMCOT_clean_sbu_0, # of connection points: 5
#     Node 3, Type 0, BuildingBlock: XOMCOT_clean_sbu_0, # of connection points: 5
#     Node 4, Type 0, BuildingBlock: XOMCOT_clean_sbu_0, # of connection points: 5
#     Node 5, Type 0, BuildingBlock: XOMCOT_clean_sbu_0, # of connection points: 5
#     Node 6, Type 0, BuildingBlock: XOMCOT_clean_sbu_0, # of connection points: 5
#     Node 7, Type 0, BuildingBlock: XOMCOT_clean_sbu_0, # of connection points: 5
#     Node 8, Type 0, BuildingBlock: XOMCOT_clean_sbu_0, # of connection points: 5
#     Node 9, Type 0, BuildingBlock: XOMCOT_clean_sbu_0, # of connection points: 5
#     Node 10, Type 0, BuildingBlock: XOMCOT_clean_sbu_0, # of connection points: 5
#     Node 11, Type 0, BuildingBlock: XOMCOT_clean_sbu_0, # of connection points: 5
#     Node 12, Type 0, BuildingBlock: XOMCOT_clean_sbu_0, # of connection points: 5
#     Node 13, Type 0, BuildingBlock: XOMCOT_clean_sbu_0, # of connection points: 5
#     Node 14, Type 0, BuildingBlock: XOMCOT_clean_sbu_0, # of connection points: 5
#     Node 15, Type 0, BuildingBlock: XOMCOT_clean_sbu_0, # of connection points: 5
#     Node 16, Type 0, BuildingBlock: XOMCOT_clean_sbu_0, # of connection points: 5
#     Node 17, Type 0, BuildingBlock: XOMCOT_clean_sbu_0, # of connection points: 5
#     Node 18, Type 0, BuildingBlock: XOMCOT_clean_sbu_0, # of connection points: 5
#     Node 19, Type 0, BuildingBlock: XOMCOT_clean_sbu_0, # of connection points: 5
#     Node 20, Type 0, BuildingBlock: XOMCOT_clean_sbu_0, # of connection points: 5
#     Node 21, Type 0, BuildingBlock: XOMCOT_clean_sbu_0, # of connection points: 5
#     Node 22, Type 0, BuildingBlock: XOMCOT_clean_sbu_0, # of connection points: 5
#     Node 23, Type 0, BuildingBlock: XOMCOT_clean_sbu_0, # of connection points: 5
#     Edge 24, Type (0, 0), BuildingBlock: ZUJKAS_clean_linker_0, # of connection points: 2
#     Edge 25, Type (0, 0), BuildingBlock: ZUJKAS_clean_linker_0, # of connection points: 2
#     Edge 26, Type (0, 0), BuildingBlock: ZUJKAS_clean_linker_0, # of connection points: 2
#     Edge 27, Type (0, 0), BuildingBlock: ZUJKAS_clean_linker_0, # of connection points: 2
#     Edge 28, Type (0, 0), BuildingBlock: ZUJKAS_clean_linker_0, # of connection points: 2
#     Edge 29, Type (0, 0), BuildingBlock: ZUJKAS_clean_linker_0, # of connection points: 2
#     Edge 30, Type (0, 0), BuildingBlock: ZUJKAS_clean_linker_0, # of connection points: 2
#     Edge 31, Type (0, 0), BuildingBlock: ZUJKAS_clean_linker_0, # of connection points: 2
#     Edge 32, Type (0, 0), BuildingBlock: ZUJKAS_clean_linker_0, # of connection points: 2
#     Edge 33, Type (0, 0), BuildingBlock: ZUJKAS_clean_linker_0, # of connection points: 2
#     Edge 34, Type (0, 0), BuildingBlock: ZUJKAS_clean_linker_0, # of connection points: 2
#     Edge 35, Type (0, 0), BuildingBlock: ZUJKAS_clean_linker_0, # of connection points: 2
#     Edge 36, Type (0, 0), BuildingBlock: ZUJKAS_clean_linker_0, # of connection points: 2
#     Edge 37, Type (0, 0), BuildingBlock: ZUJKAS_clean_linker_0, # of connection points: 2
#     Edge 38, Type (0, 0), BuildingBlock: ZUJKAS_clean_linker_0, # of connection points: 2
#     Edge 39, Type (0, 0), BuildingBlock: ZUJKAS_clean_linker_0, # of connection points: 2
#     Edge 40, Type (0, 0), BuildingBlock: ZUJKAS_clean_linker_0, # of connection points: 2
#     Edge 41, Type (0, 0), BuildingBlock: ZUJKAS_clean_linker_0, # of connection points: 2
#     Edge 42, Type (0, 0), BuildingBlock: ZUJKAS_clean_linker_0, # of connection points: 2
#     Edge 43, Type (0, 0), BuildingBlock: ZUJKAS_clean_linker_0, # of connection points: 2
#     Edge 44, Type (0, 0), BuildingBlock: ZUJKAS_clean_linker_0, # of connection points: 2
#     Edge 45, Type (0, 0), BuildingBlock: ZUJKAS_clean_linker_0, # of connection points: 2
#     Edge 46, Type (0, 0), BuildingBlock: ZUJKAS_clean_linker_0, # of connection points: 2
#     Edge 47, Type (0, 0), BuildingBlock: ZUJKAS_clean_linker_0, # of connection points: 2
#     Edge 48, Type (0, 0), BuildingBlock: ZUJKAS_clean_linker_0, # of connection points: 2
#     Edge 49, Type (0, 0), BuildingBlock: ZUJKAS_clean_linker_0, # of connection points: 2
#     Edge 50, Type (0, 0), BuildingBlock: ZUJKAS_clean_linker_0, # of connection points: 2
#     Edge 51, Type (0, 0), BuildingBlock: ZUJKAS_clean_linker_0, # of connection points: 2
#     Edge 52, Type (0, 0), BuildingBlock: ZUJKAS_clean_linker_0, # of connection points: 2
#     Edge 53, Type (0, 0), BuildingBlock: ZUJKAS_clean_linker_0, # of connection points: 2
#     Edge 54, Type (0, 0), BuildingBlock: ZUJKAS_clean_linker_0, # of connection points: 2
#     Edge 55, Type (0, 0), BuildingBlock: ZUJKAS_clean_linker_0, # of connection points: 2
#     Edge 56, Type (0, 0), BuildingBlock: ZUJKAS_clean_linker_0, # of connection points: 2
#     Edge 57, Type (0, 0), BuildingBlock: ZUJKAS_clean_linker_0, # of connection points: 2
#     Edge 58, Type (0, 0), BuildingBlock: ZUJKAS_clean_linker_0, # of connection points: 2
#     Edge 59, Type (0, 0), BuildingBlock: ZUJKAS_clean_linker_0, # of connection points: 2
#     Edge 60, Type (0, 0), BuildingBlock: ZUJKAS_clean_linker_0, # of connection points: 2
#     Edge 61, Type (0, 0), BuildingBlock: ZUJKAS_clean_linker_0, # of connection points: 2
#     Edge 62, Type (0, 0), BuildingBlock: ZUJKAS_clean_linker_0, # of connection points: 2
#     Edge 63, Type (0, 0), BuildingBlock: ZUJKAS_clean_linker_0, # of connection points: 2
#     Edge 64, Type (0, 0), BuildingBlock: ZUJKAS_clean_linker_0, # of connection points: 2
#     Edge 65, Type (0, 0), BuildingBlock: ZUJKAS_clean_linker_0, # of connection points: 2
#     Edge 66, Type (0, 0), BuildingBlock: ZUJKAS_clean_linker_0, # of connection points: 2
#     Edge 67, Type (0, 0), BuildingBlock: ZUJKAS_clean_linker_0, # of connection points: 2
#     Edge 68, Type (0, 0), BuildingBlock: ZUJKAS_clean_linker_0, # of connection points: 2
#     Edge 69, Type (0, 0), BuildingBlock: ZUJKAS_clean_linker_0, # of connection points: 2
#     Edge 70, Type (0, 0), BuildingBlock: ZUJKAS_clean_linker_0, # of connection points: 2
#     Edge 71, Type (0, 0), BuildingBlock: ZUJKAS_clean_linker_0, # of connection points: 2
#     Edge 72, Type (0, 0), BuildingBlock: ZUJKAS_clean_linker_0, # of connection points: 2
#     Edge 73, Type (0, 0), BuildingBlock: ZUJKAS_clean_linker_0, # of connection points: 2
#     Edge 74, Type (0, 0), BuildingBlock: ZUJKAS_clean_linker_0, # of connection points: 2
#     Edge 75, Type (0, 0), BuildingBlock: ZUJKAS_clean_linker_0, # of connection points: 2
#     Edge 76, Type (0, 0), BuildingBlock: ZUJKAS_clean_linker_0, # of connection points: 2
#     Edge 77, Type (0, 0), BuildingBlock: ZUJKAS_clean_linker_0, # of connection points: 2
#     Edge 78, Type (0, 0), BuildingBlock: ZUJKAS_clean_linker_0, # of connection points: 2
#     Edge 79, Type (0, 0), BuildingBlock: ZUJKAS_clean_linker_0, # of connection points: 2
#     Edge 80, Type (0, 0), BuildingBlock: ZUJKAS_clean_linker_0, # of connection points: 2
#     Edge 81, Type (0, 0), BuildingBlock: ZUJKAS_clean_linker_0, # of connection points: 2
#     Edge 82, Type (0, 0), BuildingBlock: ZUJKAS_clean_linker_0, # of connection points: 2
#     Edge 83, Type (0, 0), BuildingBlock: ZUJKAS_clean_linker_0, # of connection points: 2
# Relax obj value: 0.303
# Max RMSD: 0.283
# Mean RMSD: 0.283
data_MOF--net-pcu-i--node1-XOMCOT_clean_sbu_0--edge1-ZUJKAS_clean_linker_0
_symmetry_space_group_name_H-M    P1
_symmetry_Int_Tables_number       1
_symmetry_cell_setting            triclinic
loop_
_symmetry_equiv_pos_as_xyz
'x, y, z'
_cell_length_a     70.98343
_cell_length_b     70.946443
_cell_length_c     70.960258
_cell_angle_alpha  90.042943
_cell_angle_beta   89.9986
_cell_angle_gamma 89.99978
loop_
_atom_site_label
_atom_site_type_symbol
_atom_site_fract_x
_atom_site_fract_y
_atom_site_fract_z
_atom_type_partial_charge
Co0 Co 0.12385 0.15532 0.34749 0.0
C1 C 0.08241 0.14996 0.3423 0.0
C2 C 0.08938 0.17697 0.35398 0.0
C3 C 0.07019 0.17609 0.3516 0.0
N4 N 0.09708 0.16055 0.34831 0.0
N5 N 0.06583 0.15913 0.34423 0.0
H6 H 0.0837 0.13592 0.33655 0.0
H7 H 0.0972 0.18902 0.35904 0.0
C8 C 0.1416 0.18996 0.32956 0.0
O9 O 0.15757 0.18672 0.33833 0.0
N10 N 0.15055 0.15009 0.34641 0.0
C11 C 0.16286 0.14723 0.3606 0.0
C12 C 0.18051 0.14432 0.35294 0.0
C13 C 0.16065 0.1483 0.33046 0.0
N14 N 0.17904 0.14523 0.334 0.0
C15 C 0.12233 0.15646 0.38752 0.0
C16 C 0.13773 0.19169 0.39332 0.0
C17 C 0.13481 0.1799 0.40889 0.0
C18 C 0.12651 0.16228 0.40577 0.0
C19 C 0.13333 0.18527 0.37516 0.0
N20 N 0.12668 0.16738 0.37227 0.0
H21 H 0.11605 0.14276 0.38582 0.0
H22 H 0.1352 0.19497 0.3638 0.0
H23 H 0.15943 0.14754 0.37543 0.0
H24 H 0.15467 0.14987 0.31652 0.0
O25 O 0.1199 0.1299 0.35612 0.0
O26 O 0.12044 0.13819 0.32613 0.0
O27 O 0.12714 0.17961 0.33269 0.0
C28 C 0.11924 0.12478 0.33862 0.0
H29 H 0.06028 0.18731 0.35452 0.0
H30 H 0.19348 0.14235 0.36071 0.0
H31 H 0.14342 0.20574 0.39511 0.0
H32 H 0.12388 0.15259 0.41726 0.0
Co33 Co 0.84256 0.12184 0.33732 0.0
C34 C 0.84739 0.07985 0.33983 0.0
C35 C 0.8299 0.08869 0.3169 0.0
C36 C 0.83344 0.06987 0.31482 0.0
N37 N 0.83822 0.09509 0.3328 0.0
N38 N 0.84453 0.06434 0.32911 0.0
H39 H 0.85749 0.08038 0.35122 0.0
H40 H 0.8233 0.09736 0.3063 0.0
C41 C 0.80212 0.12119 0.32591 0.0
O42 O 0.79934 0.10864 0.33925 0.0
N43 N 0.8471 0.14841 0.34031 0.0
C44 C 0.8539 0.15805 0.3552 0.0
C45 C 0.85616 0.17668 0.34993 0.0
C46 C 0.84557 0.16101 0.32628 0.0
N47 N 0.85104 0.17836 0.33168 0.0
C48 C 0.83774 0.11133 0.37583 0.0
C49 C 0.81133 0.13855 0.3846 0.0
C50 C 0.82043 0.12911 0.39946 0.0
C51 C 0.83338 0.11489 0.39468 0.0
C52 C 0.81653 0.13494 0.36593 0.0
N53 N 0.82981 0.12162 0.36169 0.0
H54 H 0.84887 0.1015 0.37283 0.0
H55 H 0.81088 0.14393 0.35503 0.0
H56 H 0.85734 0.15192 0.36872 0.0
H57 H 0.84084 0.15739 0.31223 0.0
O58 O 0.86752 0.11667 0.34629 0.0
O59 O 0.86022 0.12174 0.31635 0.0
O60 O 0.81856 0.12809 0.32331 0.0
C61 C 0.87314 0.11831 0.32897 0.0
H62 H 0.82926 0.06118 0.30299 0.0
H63 H 0.86182 0.18791 0.35857 0.0
H64 H 0.80095 0.14939 0.38727 0.0
H65 H 0.84129 0.1074 0.40533 0.0
Co66 Co 0.87237 0.83871 0.33979 0.0
C67 C 0.91427 0.84149 0.34357 0.0
C68 C 0.90599 0.81991 0.32424 0.0
C69 C 0.92511 0.82198 0.32314 0.0
N70 N 0.89897 0.83178 0.3374 0.0
N71 N 0.93036 0.83576 0.33506 0.0
H72 H 0.91352 0.8536 0.3528 0.0
H73 H 0.89793 0.81158 0.31446 0.0
C74 C 0.86786 0.79814 0.32892 0.0
O75 O 0.87761 0.79361 0.344 0.0
N76 N 0.84618 0.84594 0.34072 0.0
C77 C 0.83687 0.85583 0.35397 0.0
C78 C 0.81882 0.85927 0.34749 0.0
C79 C 0.83394 0.84366 0.32645 0.0
N80 N 0.81707 0.85165 0.3301 0.0
C81 C 0.88189 0.83031 0.37801 0.0
C82 C 0.84903 0.81114 0.38645 0.0
C83 C 0.861 0.81656 0.40122 0.0
C84 C 0.87794 0.82567 0.3967 0.0
C85 C 0.85358 0.81596 0.3679 0.0
N86 N 0.86963 0.82586 0.36389 0.0
H87 H 0.89413 0.8388 0.37518 0.0
H88 H 0.84359 0.81274 0.35686 0.0
H89 H 0.84289 0.86058 0.36715 0.0
H90 H 0.83754 0.83651 0.31348 0.0
O91 O 0.87922 0.86288 0.34971 0.0
O92 O 0.87571 0.85655 0.31926 0.0
O93 O 0.86479 0.81548 0.32505 0.0
C94 C 0.87939 0.86888 0.33245 0.0
H95 H 0.93426 0.81465 0.31339 0.0
H96 H 0.80811 0.8673 0.35477 0.0
H97 H 0.83586 0.80399 0.38927 0.0
H98 H 0.88745 0.83048 0.40763 0.0
Co99 Co 0.15517 0.8731 0.35041 0.0
C100 C 0.15163 0.91491 0.34561 0.0
C101 C 0.17948 0.90627 0.35354 0.0
C102 C 0.17962 0.92541 0.35048 0.0
N103 N 0.16194 0.89964 0.35052 0.0
N104 N 0.16212 0.93081 0.34544 0.0
H105 H 0.13697 0.91445 0.34154 0.0
H106 H 0.1915 0.89768 0.35728 0.0
C107 C 0.18751 0.85432 0.32868 0.0
O108 O 0.18221 0.8373 0.33354 0.0
N109 N 0.14821 0.84663 0.34971 0.0
C110 C 0.14542 0.83453 0.36411 0.0
C111 C 0.14035 0.81721 0.3568 0.0
C112 C 0.14365 0.83686 0.33403 0.0
N113 N 0.13928 0.81879 0.3379 0.0
C114 C 0.16288 0.88084 0.38863 0.0
C115 C 0.18687 0.85103 0.39575 0.0
C116 C 0.17976 0.86149 0.41096 0.0
C117 C 0.16827 0.87705 0.40711 0.0
C118 C 0.18142 0.85559 0.37731 0.0
N119 N 0.16878 0.86975 0.37406 0.0
H120 H 0.15296 0.89212 0.38613 0.0
H121 H 0.1862 0.84671 0.36604 0.0
H122 H 0.14689 0.83795 0.37888 0.0
H123 H 0.1445 0.84263 0.31993 0.0
O124 O 0.13104 0.87838 0.36135 0.0
O125 O 0.13667 0.87757 0.33061 0.0
O126 O 0.17855 0.86887 0.33448 0.0
C127 C 0.12452 0.87952 0.34432 0.0
H128 H 0.19172 0.93461 0.35176 0.0
H129 H 0.13761 0.80448 0.36474 0.0
H130 H 0.19588 0.83895 0.39815 0.0
H131 H 0.16233 0.88545 0.41839 0.0
Co132 Co 0.13365 0.85046 0.66739 0.0
C133 C 0.09191 0.85632 0.66345 0.0
C134 C 0.09911 0.83584 0.68434 0.0
C135 C 0.08024 0.83938 0.68566 0.0
N136 N 0.1066 0.84598 0.67006 0.0
N137 N 0.0757 0.85242 0.67271 0.0
H138 H 0.09327 0.86775 0.65346 0.0
H139 H 0.10692 0.82782 0.6946 0.0
C140 C 0.13283 0.80947 0.67629 0.0
O141 O 0.12168 0.80746 0.66164 0.0
N142 N 0.1604 0.85513 0.66638 0.0
C143 C 0.1706 0.86442 0.65334 0.0
C144 C 0.18903 0.86546 0.65958 0.0
C145 C 0.17253 0.85083 0.68028 0.0
N146 N 0.19016 0.85682 0.67651 0.0
C147 C 0.12359 0.84498 0.62862 0.0
C148 C 0.15373 0.82193 0.61972 0.0
C149 C 0.14264 0.8292 0.60509 0.0
C150 C 0.12704 0.84036 0.6098 0.0
C151 C 0.14968 0.82674 0.6384 0.0
N152 N 0.13498 0.83848 0.64267 0.0
H153 H 0.11258 0.85493 0.63165 0.0
H154 H 0.1591 0.82194 0.64936 0.0
H155 H 0.16498 0.87024 0.64043 0.0
H156 H 0.16831 0.8441 0.69329 0.0
O157 O 0.12896 0.87558 0.65879 0.0
O158 O 0.13218 0.86751 0.68884 0.0
O159 O 0.13901 0.82583 0.68071 0.0
C160 C 0.12937 0.88073 0.67634 0.0
H161 H 0.07081 0.83364 0.69618 0.0
H162 H 0.20063 0.87214 0.65228 0.0
H163 H 0.1659 0.81322 0.61672 0.0
H164 H 0.11831 0.84661 0.59895 0.0
Co165 Co 0.15113 0.13154 0.6542 0.0
C166 C 0.14867 0.08975 0.65816 0.0
C167 C 0.1747 0.09861 0.64566 0.0
C168 C 0.17534 0.07941 0.64823 0.0
N169 N 0.15788 0.10512 0.65167 0.0
N170 N 0.159 0.07388 0.65618 0.0
H171 H 0.1349 0.0901 0.66463 0.0
H172 H 0.1861 0.10732 0.64053 0.0
C173 C 0.18322 0.14784 0.67818 0.0
O174 O 0.17847 0.16534 0.6746 0.0
N175 N 0.14426 0.1578 0.65727 0.0
C176 C 0.14144 0.1711 0.64402 0.0
C177 C 0.13668 0.18777 0.65289 0.0
C178 C 0.14018 0.16622 0.6738 0.0
N179 N 0.13615 0.18469 0.67166 0.0
C180 C 0.1587 0.12857 0.61531 0.0
C181 C 0.18523 0.15688 0.61233 0.0
C182 C 0.17772 0.14902 0.5958 0.0
C183 C 0.16474 0.13423 0.59755 0.0
C184 C 0.17879 0.15072 0.62994 0.0
N185 N 0.16511 0.13723 0.63123 0.0
H186 H 0.14809 0.11769 0.61624 0.0
H187 H 0.18405 0.15769 0.64224 0.0
H188 H 0.14297 0.16899 0.629 0.0
H189 H 0.14097 0.15905 0.68723 0.0
O190 O 0.12721 0.12729 0.64243 0.0
O191 O 0.13229 0.12531 0.67321 0.0
O192 O 0.17415 0.13404 0.67091 0.0
C193 C 0.12045 0.12443 0.65914 0.0
H194 H 0.18729 0.07038 0.64534 0.0
H195 H 0.13452 0.20124 0.64608 0.0
H196 H 0.19549 0.16816 0.61168 0.0
H197 H 0.15831 0.12778 0.5853 0.0
Co198 Co 0.86756 0.15597 0.65415 0.0
C199 C 0.9094 0.15639 0.6487 0.0
C200 C 0.90031 0.17647 0.66925 0.0
C201 C 0.91958 0.1762 0.66921 0.0
N202 N 0.89369 0.16454 0.65594 0.0
N203 N 0.92533 0.16349 0.65639 0.0
H204 H 0.90927 0.14462 0.63902 0.0
H205 H 0.89203 0.1835 0.67985 0.0
C206 C 0.86142 0.19624 0.66532 0.0
O207 O 0.87071 0.20122 0.6501 0.0
N208 N 0.84186 0.14721 0.65386 0.0
C209 C 0.83174 0.13905 0.63999 0.0
C210 C 0.81412 0.13458 0.64707 0.0
C211 C 0.83063 0.14721 0.66909 0.0
N212 N 0.81365 0.13962 0.66541 0.0
C213 C 0.87522 0.16319 0.6155 0.0
C214 C 0.84231 0.18234 0.60752 0.0
C215 C 0.85351 0.17599 0.59244 0.0
C216 C 0.87046 0.16678 0.59682 0.0
C217 C 0.84749 0.17817 0.62613 0.0
N218 N 0.86365 0.16836 0.62993 0.0
H219 H 0.88747 0.15469 0.61814 0.0
H220 H 0.83788 0.18176 0.63739 0.0
H221 H 0.83681 0.13647 0.62584 0.0
H222 H 0.83487 0.1527 0.68269 0.0
O223 O 0.8757 0.13223 0.64425 0.0
O224 O 0.87249 0.13849 0.67475 0.0
O225 O 0.85891 0.17876 0.669 0.0
C226 C 0.87678 0.12641 0.66153 0.0
H227 H 0.92862 0.18347 0.67913 0.0
H228 H 0.80274 0.12781 0.6395 0.0
H229 H 0.82921 0.18973 0.60503 0.0
H230 H 0.87946 0.16103 0.58594 0.0
Co231 Co 0.85041 0.87371 0.6544 0.0
C232 C 0.85111 0.91544 0.64757 0.0
C233 C 0.83105 0.90754 0.66859 0.0
C234 C 0.8316 0.92678 0.66776 0.0
N235 N 0.84269 0.90016 0.65542 0.0
N236 N 0.84428 0.93178 0.65465 0.0
H237 H 0.86281 0.91473 0.63782 0.0
H238 H 0.82399 0.89982 0.67959 0.0
C239 C 0.81017 0.86947 0.66578 0.0
O240 O 0.80571 0.87879 0.65042 0.0
N241 N 0.85835 0.8477 0.65486 0.0
C242 C 0.86689 0.83737 0.64142 0.0
C243 C 0.87018 0.81953 0.64855 0.0
C244 C 0.85688 0.83633 0.66994 0.0
N245 N 0.86393 0.81902 0.66652 0.0
C246 C 0.84164 0.88048 0.61567 0.0
C247 C 0.82231 0.84717 0.60967 0.0
C248 C 0.82748 0.85815 0.59408 0.0
C249 C 0.8367 0.87532 0.59735 0.0
C250 C 0.82744 0.85291 0.62782 0.0
N251 N 0.83738 0.8692 0.63063 0.0
H252 H 0.85021 0.89284 0.61754 0.0
H253 H 0.82443 0.84364 0.63952 0.0
H254 H 0.87046 0.84243 0.62749 0.0
H255 H 0.85067 0.84067 0.68318 0.0
O256 O 0.8742 0.8807 0.64383 0.0
O257 O 0.86838 0.87883 0.6745 0.0
O258 O 0.8275 0.86633 0.66968 0.0
C259 C 0.8804 0.88218 0.66096 0.0
H260 H 0.82456 0.93636 0.67733 0.0
H261 H 0.87696 0.80799 0.64122 0.0
H262 H 0.81512 0.83383 0.60782 0.0
H263 H 0.84137 0.88408 0.58576 0.0
Co264 Co 0.33052 0.13279 0.14961 0.0
C265 C 0.33233 0.09041 0.14508 0.0
C266 C 0.30822 0.10032 0.16026 0.0
C267 C 0.30602 0.08144 0.15721 0.0
N268 N 0.32493 0.1061 0.15319 0.0
N269 N 0.32109 0.0752 0.14762 0.0
H270 H 0.34457 0.09025 0.13606 0.0
H271 H 0.29748 0.10946 0.16599 0.0
C272 C 0.31852 0.13081 0.18948 0.0
O273 O 0.33135 0.11758 0.1914 0.0
N274 N 0.33425 0.15946 0.14575 0.0
C275 C 0.34992 0.16919 0.14114 0.0
C276 C 0.34528 0.1881 0.1399 0.0
C277 C 0.32036 0.17232 0.14676 0.0
N278 N 0.32668 0.18984 0.14332 0.0
C279 C 0.36834 0.12038 0.1562 0.0
C280 C 0.37728 0.14779 0.18243 0.0
C281 C 0.39185 0.13711 0.17442 0.0
C282 C 0.38703 0.12268 0.1618 0.0
C283 C 0.35868 0.14487 0.17659 0.0
N284 N 0.35442 0.13161 0.16322 0.0
H285 H 0.36548 0.11065 0.14497 0.0
H286 H 0.34797 0.15447 0.1816 0.0
H287 H 0.36366 0.16301 0.13884 0.0
H288 H 0.30584 0.16888 0.14995 0.0
O289 O 0.34023 0.12783 0.12494 0.0
O290 O 0.31017 0.13362 0.13125 0.0
O291 O 0.31618 0.13877 0.17347 0.0
C292 C 0.32316 0.12998 0.11874 0.0
H293 H 0.29385 0.07306 0.16102 0.0
H294 H 0.35467 0.19958 0.13633 0.0
H295 H 0.38032 0.15928 0.19201 0.0
H296 H 0.39776 0.11394 0.15537 0.0
Co297 Co 0.86692 0.32881 0.15085 0.0
C298 C 0.90918 0.33163 0.14843 0.0
C299 C 0.89948 0.30886 0.16566 0.0
C300 C 0.91854 0.30706 0.16352 0.0
N301 N 0.89345 0.32453 0.15666 0.0
N302 N 0.92464 0.32128 0.15262 0.0
H303 H 0.90922 0.34283 0.13813 0.0
H304 H 0.89049 0.29837 0.17204 0.0
C305 C 0.86645 0.32016 0.19164 0.0
O306 O 0.87902 0.33366 0.19333 0.0
N307 N 0.84058 0.3316 0.14475 0.0
C308 C 0.83256 0.34425 0.13306 0.0
C309 C 0.81392 0.3393 0.13048 0.0
C310 C 0.82685 0.31928 0.14919 0.0
N311 N 0.81044 0.32368 0.14072 0.0
C312 C 0.87782 0.36756 0.15614 0.0
C313 C 0.84824 0.37673 0.17981 0.0
C314 C 0.85956 0.39124 0.17269 0.0
C315 C 0.87484 0.38639 0.16112 0.0
C316 C 0.8517 0.3581 0.17449 0.0
N317 N 0.86629 0.35364 0.16268 0.0
H318 H 0.88852 0.36447 0.14589 0.0
H319 H 0.84191 0.34737 0.17904 0.0
H320 H 0.83991 0.35578 0.12634 0.0
H321 H 0.82905 0.30675 0.15759 0.0
O322 O 0.8735 0.33678 0.12591 0.0
O323 O 0.86786 0.30713 0.13407 0.0
O324 O 0.85976 0.31611 0.17537 0.0
C325 C 0.87211 0.31924 0.12089 0.0
H326 H 0.92713 0.29559 0.16875 0.0
H327 H 0.80382 0.34635 0.12148 0.0
H328 H 0.83627 0.37979 0.18877 0.0
H329 H 0.88366 0.39716 0.15487 0.0
Co330 Co 0.66688 0.86877 0.14754 0.0
C331 C 0.66352 0.91081 0.14373 0.0
C332 C 0.68449 0.90235 0.16366 0.0
C333 C 0.68587 0.92142 0.1612 0.0
N334 N 0.67012 0.89553 0.15317 0.0
N335 N 0.67281 0.92675 0.14857 0.0
H336 H 0.65351 0.91017 0.13228 0.0
H337 H 0.6946 0.89399 0.17133 0.0
C338 C 0.67504 0.86773 0.1887 0.0
O339 O 0.66071 0.87925 0.19093 0.0
N340 N 0.66521 0.84227 0.1417 0.0
C341 C 0.65177 0.83292 0.13213 0.0
C342 C 0.65769 0.81453 0.1296 0.0
C343 C 0.67908 0.8297 0.14469 0.0
N344 N 0.67494 0.8126 0.13743 0.0
C345 C 0.62822 0.87929 0.15189 0.0
C346 C 0.61797 0.84916 0.17435 0.0
C347 C 0.60383 0.86042 0.1664 0.0
C348 C 0.60922 0.87604 0.15561 0.0
C349 C 0.6369 0.85292 0.17026 0.0
N350 N 0.64184 0.86767 0.15885 0.0
H351 H 0.63173 0.89033 0.14217 0.0
H352 H 0.64749 0.84317 0.17522 0.0
H353 H 0.63886 0.83914 0.12692 0.0
H354 H 0.69212 0.83322 0.15175 0.0
O355 O 0.65899 0.87469 0.12245 0.0
O356 O 0.68873 0.87031 0.131 0.0
O357 O 0.67956 0.86207 0.17217 0.0
C358 C 0.6766 0.8739 0.11763 0.0
H359 H 0.69637 0.93052 0.1675 0.0
H360 H 0.65018 0.80368 0.12194 0.0
H361 H 0.61442 0.8368 0.18257 0.0
H362 H 0.59876 0.88515 0.14925 0.0
Co363 Co 0.12977 0.66772 0.15165 0.0
C364 C 0.08775 0.66366 0.14475 0.0
C365 C 0.09636 0.69042 0.15581 0.0
C366 C 0.07758 0.69142 0.15164 0.0
N367 N 0.10286 0.67297 0.15186 0.0
N368 N 0.07218 0.67466 0.14463 0.0
H369 H 0.08814 0.64979 0.1386 0.0
H370 H 0.10499 0.70204 0.16058 0.0
C371 C 0.12173 0.68105 0.19047 0.0
O372 O 0.10777 0.66887 0.19062 0.0
N373 N 0.15665 0.66417 0.15121 0.0
C374 C 0.1668 0.64973 0.14427 0.0
C375 C 0.18562 0.65475 0.14471 0.0
C376 C 0.1692 0.67763 0.1557 0.0
N377 N 0.18708 0.67239 0.15183 0.0
C378 C 0.11895 0.6292 0.15521 0.0
C379 C 0.14022 0.62128 0.1868 0.0
C380 C 0.13237 0.60623 0.17659 0.0
C381 C 0.12118 0.61056 0.1609 0.0
C382 C 0.13768 0.63986 0.18054 0.0
N383 N 0.12722 0.64368 0.16479 0.0
H384 H 0.11211 0.63163 0.14193 0.0
H385 H 0.1454 0.65095 0.18754 0.0
H386 H 0.16092 0.63684 0.13864 0.0
H387 H 0.16507 0.69122 0.16119 0.0
O388 O 0.12798 0.6581 0.12649 0.0
O389 O 0.13268 0.68816 0.13345 0.0
O390 O 0.13245 0.68225 0.17603 0.0
C391 C 0.13056 0.67518 0.12057 0.0
H392 H 0.06865 0.7037 0.15317 0.0
H393 H 0.19715 0.64631 0.13941 0.0
H394 H 0.14903 0.61874 0.19899 0.0
H395 H 0.11537 0.59958 0.15203 0.0
Co396 Co 0.35007 0.86762 0.85374 0.0
C397 C 0.3524 0.90962 0.8569 0.0
C398 C 0.35115 0.90011 0.82826 0.0
C399 C 0.351 0.91944 0.82831 0.0
N400 N 0.352 0.89385 0.84617 0.0
N401 N 0.35172 0.92547 0.84632 0.0
H402 H 0.35294 0.9096 0.87211 0.0
H403 H 0.34998 0.89131 0.81589 0.0
C404 C 0.33123 0.84839 0.82059 0.0
O405 O 0.34138 0.83315 0.82332 0.0
N406 N 0.34758 0.84147 0.86117 0.0
C407 C 0.36088 0.8287 0.86577 0.0
C408 C 0.35218 0.81171 0.86944 0.0
C409 C 0.33105 0.83224 0.86264 0.0
N410 N 0.33342 0.81395 0.86728 0.0
C411 C 0.38976 0.86224 0.85125 0.0
C412 C 0.39284 0.85571 0.81303 0.0
C413 C 0.40903 0.85501 0.82425 0.0
C414 C 0.40733 0.85854 0.84351 0.0
C415 C 0.37538 0.85987 0.82135 0.0
N416 N 0.3738 0.86239 0.84045 0.0
H417 H 0.3892 0.86448 0.86622 0.0
H418 H 0.36346 0.86133 0.81216 0.0
H419 H 0.37585 0.83125 0.8662 0.0
H420 H 0.31757 0.83878 0.85985 0.0
O421 O 0.36047 0.87329 0.87813 0.0
O422 O 0.33006 0.87382 0.87162 0.0
O423 O 0.33366 0.86297 0.83091 0.0
C424 C 0.3434 0.87554 0.88412 0.0
H425 H 0.34963 0.9283 0.81598 0.0
H426 H 0.3592 0.79859 0.87276 0.0
H427 H 0.39372 0.85342 0.79796 0.0
H428 H 0.41952 0.85805 0.8527 0.0
Co429 Co 0.13373 0.34535 0.85111 0.0
C430 C 0.09177 0.34286 0.85455 0.0
C431 C 0.10091 0.34877 0.82635 0.0
C432 C 0.08162 0.34715 0.82633 0.0
N433 N 0.10732 0.34626 0.84406 0.0
N434 N 0.0759 0.34338 0.84405 0.0
H435 H 0.09193 0.33991 0.86948 0.0
H436 H 0.10973 0.35118 0.81416 0.0
C437 C 0.15087 0.31922 0.82098 0.0
O438 O 0.1683 0.32337 0.82549 0.0
N439 N 0.16003 0.34404 0.85834 0.0
C440 C 0.17239 0.3583 0.86059 0.0
C441 C 0.18953 0.35086 0.8659 0.0
C442 C 0.16944 0.32836 0.86347 0.0
N443 N 0.18765 0.332 0.86755 0.0
C444 C 0.12847 0.38291 0.83903 0.0
C445 C 0.15868 0.38513 0.81457 0.0
C446 C 0.14917 0.4017 0.81965 0.0
C447 C 0.13341 0.4003 0.83142 0.0
C448 C 0.15301 0.36787 0.82226 0.0
N449 N 0.1386 0.36706 0.83501 0.0
H450 H 0.11706 0.38234 0.8491 0.0
H451 H 0.16124 0.35563 0.81906 0.0
H452 H 0.16927 0.37305 0.85834 0.0
H453 H 0.16333 0.31439 0.86297 0.0
O454 O 0.12893 0.35915 0.87386 0.0
O455 O 0.12805 0.32797 0.87159 0.0
O456 O 0.13696 0.32678 0.82962 0.0
C457 C 0.12666 0.34301 0.88213 0.0
H458 H 0.07256 0.34806 0.8141 0.0
H459 H 0.20242 0.3587 0.86813 0.0
H460 H 0.17092 0.38564 0.80548 0.0
H461 H 0.12577 0.41274 0.8359 0.0
Co462 Co 0.65942 0.13364 0.84811 0.0
C463 C 0.66339 0.09164 0.85098 0.0
C464 C 0.65566 0.10103 0.82329 0.0
C465 C 0.65802 0.08182 0.8228 0.0
N466 N 0.65904 0.10725 0.84092 0.0
N467 N 0.66293 0.07594 0.84018 0.0
H468 H 0.66736 0.09169 0.86568 0.0
H469 H 0.65198 0.10993 0.81149 0.0
C470 C 0.6794 0.15279 0.81475 0.0
O471 O 0.67438 0.16981 0.81995 0.0
N472 N 0.66018 0.15996 0.85535 0.0
C473 C 0.64577 0.17126 0.86034 0.0
C474 C 0.65296 0.18855 0.86557 0.0
C475 C 0.67589 0.17016 0.8585 0.0
N476 N 0.67193 0.18787 0.86428 0.0
C477 C 0.62071 0.12639 0.84251 0.0
C478 C 0.61298 0.15565 0.81803 0.0
C479 C 0.59796 0.14581 0.82626 0.0
C480 C 0.60207 0.13049 0.83799 0.0
C481 C 0.63152 0.15105 0.82294 0.0
N482 N 0.63516 0.1371 0.8357 0.0
H483 H 0.62353 0.11515 0.85238 0.0
H484 H 0.64261 0.15966 0.81746 0.0
H485 H 0.63108 0.16721 0.86035 0.0
H486 H 0.68992 0.16484 0.8558 0.0
O487 O 0.6498 0.1279 0.8727 0.0
O488 O 0.6802 0.12914 0.86548 0.0
O489 O 0.6743 0.13827 0.82415 0.0
C490 C 0.66717 0.12688 0.87827 0.0
H491 H 0.65621 0.07286 0.81058 0.0
H492 H 0.64479 0.20061 0.87009 0.0
H493 H 0.61042 0.1676 0.80889 0.0
H494 H 0.5909 0.12222 0.84431 0.0
Co495 Co 0.87198 0.66383 0.84697 0.0
C496 C 0.91404 0.66075 0.85121 0.0
C497 C 0.90535 0.6834 0.83332 0.0
C498 C 0.92431 0.68497 0.83619 0.0
N499 N 0.89875 0.66791 0.84222 0.0
N500 N 0.92979 0.67086 0.84757 0.0
H501 H 0.91348 0.64965 0.86162 0.0
H502 H 0.89681 0.69401 0.82654 0.0
C503 C 0.8725 0.67418 0.8064 0.0
O504 O 0.88466 0.66039 0.8042 0.0
N505 N 0.84544 0.66129 0.85206 0.0
C506 C 0.83618 0.64718 0.86075 0.0
C507 C 0.81771 0.65272 0.86342 0.0
C508 C 0.83272 0.67512 0.84971 0.0
N509 N 0.81562 0.67031 0.85645 0.0
C510 C 0.88292 0.62533 0.84078 0.0
C511 C 0.8537 0.61667 0.81649 0.0
C512 C 0.86477 0.60198 0.82367 0.0
C513 C 0.87992 0.6066 0.83549 0.0
C514 C 0.85725 0.63524 0.82204 0.0
N515 N 0.87155 0.63941 0.8343 0.0
H516 H 0.89347 0.6282 0.85125 0.0
H517 H 0.84766 0.64613 0.81744 0.0
H518 H 0.84253 0.63409 0.86527 0.0
H519 H 0.83628 0.68884 0.84408 0.0
O520 O 0.87746 0.65495 0.87189 0.0
O521 O 0.87261 0.68493 0.86446 0.0
O522 O 0.86567 0.67757 0.82276 0.0
C523 C 0.87606 0.67234 0.87742 0.0
H524 H 0.93323 0.69625 0.83111 0.0
H525 H 0.80679 0.64455 0.87024 0.0
H526 H 0.84184 0.61377 0.80733 0.0
H527 H 0.88857 0.5957 0.84176 0.0
Co528 Co 0.15133 0.34872 0.13675 0.0
C529 C 0.15005 0.35474 0.09472 0.0
C530 C 0.16876 0.33264 0.10306 0.0
C531 C 0.1682 0.33307 0.08381 0.0
N532 N 0.15807 0.34674 0.11013 0.0
N533 N 0.15641 0.34689 0.07853 0.0
H534 H 0.13892 0.3651 0.09519 0.0
H535 H 0.17538 0.32164 0.11121 0.0
C536 C 0.19239 0.34015 0.13835 0.0
O537 O 0.19489 0.35461 0.12705 0.0
N538 N 0.14447 0.34903 0.16302 0.0
C539 C 0.13572 0.3624 0.17328 0.0
C540 C 0.13209 0.35513 0.19102 0.0
C541 C 0.14582 0.33392 0.17435 0.0
N542 N 0.13833 0.33715 0.19149 0.0
C543 C 0.15497 0.38799 0.12887 0.0
C544 C 0.17812 0.39676 0.15892 0.0
C545 C 0.16998 0.41155 0.14856 0.0
C546 C 0.15862 0.40682 0.13309 0.0
C547 C 0.17396 0.378 0.15428 0.0
N548 N 0.16237 0.37378 0.13945 0.0
H549 H 0.14488 0.38503 0.118 0.0
H550 H 0.17914 0.36693 0.16336 0.0
H551 H 0.13183 0.37621 0.16812 0.0
H552 H 0.15187 0.32063 0.16991 0.0
O553 O 0.12641 0.35668 0.13011 0.0
O554 O 0.1351 0.32683 0.13348 0.0
O555 O 0.17579 0.33585 0.14393 0.0
C556 C 0.12179 0.339 0.12982 0.0
H557 H 0.17479 0.32299 0.07442 0.0
H558 H 0.1248 0.36223 0.20238 0.0
H559 H 0.18704 0.39959 0.17096 0.0
H560 H 0.15144 0.41755 0.12497 0.0
Co561 Co 0.15756 0.6501 0.86913 0.0
C562 C 0.15497 0.65562 0.91082 0.0
C563 C 0.18174 0.64461 0.90216 0.0
C564 C 0.18227 0.64771 0.92127 0.0
N565 N 0.16454 0.64933 0.89559 0.0
N566 N 0.16547 0.6547 0.92668 0.0
H567 H 0.14077 0.66109 0.91041 0.0
H568 H 0.19337 0.63987 0.89353 0.0
C569 C 0.18896 0.67408 0.85139 0.0
O570 O 0.18427 0.6696 0.83408 0.0
N571 N 0.15045 0.65132 0.8428 0.0
C572 C 0.14746 0.63699 0.83067 0.0
C573 C 0.1423 0.64441 0.81347 0.0
C574 C 0.14599 0.66708 0.83319 0.0
N575 N 0.14153 0.66335 0.81509 0.0
C576 C 0.16683 0.61176 0.87476 0.0
C577 C 0.19211 0.60778 0.84542 0.0
C578 C 0.18591 0.59167 0.85499 0.0
C579 C 0.17363 0.59391 0.87027 0.0
C580 C 0.18522 0.62551 0.85064 0.0
N581 N 0.17214 0.62724 0.86467 0.0
H582 H 0.15652 0.61308 0.8859 0.0
H583 H 0.18944 0.63745 0.84245 0.0
H584 H 0.14898 0.6222 0.834 0.0
H585 H 0.14713 0.6811 0.83912 0.0
O586 O 0.13382 0.63809 0.87416 0.0
O587 O 0.13844 0.669 0.8744 0.0
O588 O 0.18014 0.6672 0.86553 0.0
C589 C 0.12675 0.65487 0.87598 0.0
H590 H 0.19436 0.64571 0.93035 0.0
H591 H 0.13945 0.63648 0.80075 0.0
H592 H 0.20163 0.6066 0.83354 0.0
H593 H 0.16833 0.58182 0.87794 0.0
Co594 Co 0.34666 0.15236 0.86668 0.0
C595 C 0.34217 0.15042 0.90847 0.0
C596 C 0.35404 0.17665 0.89932 0.0
C597 C 0.35151 0.17744 0.91852 0.0
N598 N 0.34842 0.15962 0.89301 0.0
N599 N 0.34397 0.16098 0.92421 0.0
H600 H 0.33613 0.13645 0.90833 0.0
H601 H 0.35905 0.18801 0.89048 0.0
C602 C 0.32353 0.18459 0.84924 0.0
O603 O 0.32751 0.17973 0.83185 0.0
N604 N 0.34442 0.14505 0.84049 0.0
C605 C 0.35813 0.14128 0.8279 0.0
C606 C 0.34986 0.13609 0.81107 0.0
C607 C 0.32815 0.14117 0.83151 0.0
N608 N 0.33097 0.13625 0.81336 0.0
C609 C 0.38549 0.15977 0.87123 0.0
C610 C 0.3899 0.18537 0.84225 0.0
C611 C 0.40596 0.17849 0.85148 0.0
C612 C 0.40349 0.16594 0.86651 0.0
C613 C 0.37201 0.17896 0.84759 0.0
N614 N 0.37003 0.16583 0.86153 0.0
H615 H 0.38399 0.14946 0.88232 0.0
H616 H 0.36008 0.18376 0.83971 0.0
H617 H 0.37308 0.14233 0.83065 0.0
H618 H 0.31447 0.1425 0.8381 0.0
O619 O 0.35774 0.12823 0.87184 0.0
O620 O 0.32703 0.13415 0.87259 0.0
O621 O 0.33043 0.17558 0.86324 0.0
C622 C 0.34073 0.12199 0.87422 0.0
H623 H 0.35427 0.1895 0.92746 0.0
H624 H 0.35718 0.13304 0.79805 0.0
H625 H 0.39117 0.19519 0.83063 0.0
H626 H 0.41545 0.16005 0.87393 0.0
Co627 Co 0.85026 0.3475 0.87046 0.0
C628 C 0.85199 0.33988 0.91178 0.0
C629 C 0.83178 0.36142 0.90575 0.0
C630 C 0.83181 0.35824 0.92481 0.0
N631 N 0.84457 0.35003 0.89739 0.0
N632 N 0.84454 0.34472 0.92864 0.0
H633 H 0.86272 0.32922 0.91008 0.0
H634 H 0.82279 0.37145 0.89872 0.0
C635 C 0.80932 0.33602 0.8704 0.0
O636 O 0.80437 0.35294 0.87596 0.0
N637 N 0.85584 0.34431 0.844 0.0
C638 C 0.86539 0.35619 0.83272 0.0
C639 C 0.86667 0.3482 0.81505 0.0
C640 C 0.8516 0.32926 0.83322 0.0
N641 N 0.85799 0.33125 0.81538 0.0
C642 C 0.84546 0.38695 0.87375 0.0
C643 C 0.82196 0.39198 0.84309 0.0
C644 C 0.829 0.40784 0.85258 0.0
C645 C 0.84061 0.40512 0.86826 0.0
C646 C 0.82678 0.37386 0.84942 0.0
N647 N 0.83836 0.37154 0.86467 0.0
H648 H 0.85543 0.38522 0.88513 0.0
H649 H 0.82197 0.36173 0.84155 0.0
H650 H 0.87111 0.36964 0.83708 0.0
H651 H 0.84395 0.31713 0.83838 0.0
O652 O 0.87513 0.3573 0.87446 0.0
O653 O 0.86768 0.32698 0.87571 0.0
O654 O 0.82658 0.33212 0.86714 0.0
C655 C 0.88064 0.34001 0.87668 0.0
H656 H 0.82284 0.36518 0.93502 0.0
H657 H 0.87382 0.35429 0.80305 0.0
H658 H 0.81323 0.39357 0.83068 0.0
H659 H 0.84678 0.41699 0.87564 0.0
Co660 Co 0.65584 0.8483 0.86633 0.0
C661 C 0.66055 0.85201 0.90801 0.0
C662 C 0.6469 0.82622 0.90011 0.0
C663 C 0.64932 0.82626 0.91933 0.0
N664 N 0.65371 0.84246 0.89298 0.0
N665 N 0.65797 0.84245 0.92426 0.0
H666 H 0.66754 0.86552 0.90718 0.0
H667 H 0.64113 0.81478 0.89185 0.0
C668 C 0.67784 0.81486 0.85003 0.0
O669 O 0.67375 0.81952 0.83262 0.0
N670 N 0.65827 0.85426 0.83982 0.0
C671 C 0.64457 0.85686 0.82692 0.0
C672 C 0.65285 0.86089 0.80981 0.0
C673 C 0.67453 0.85774 0.83065 0.0
N674 N 0.67172 0.8612 0.81216 0.0
C675 C 0.61644 0.84299 0.8698 0.0
C676 C 0.61228 0.81438 0.84371 0.0
C677 C 0.59612 0.82316 0.85091 0.0
C678 C 0.5984 0.83722 0.86461 0.0
C679 C 0.63013 0.82055 0.84935 0.0
N680 N 0.63206 0.83524 0.86168 0.0
H681 H 0.61787 0.85434 0.87985 0.0
H682 H 0.64211 0.81409 0.84292 0.0
H683 H 0.62963 0.8557 0.82963 0.0
H684 H 0.68821 0.85697 0.83734 0.0
O685 O 0.64555 0.87306 0.87017 0.0
O686 O 0.67599 0.86624 0.87146 0.0
O687 O 0.67141 0.82439 0.86396 0.0
C688 C 0.66273 0.87897 0.87223 0.0
H689 H 0.64569 0.81491 0.92885 0.0
H690 H 0.64552 0.86275 0.79657 0.0
H691 H 0.61118 0.80322 0.83334 0.0
H692 H 0.58639 0.84451 0.87055 0.0
Co693 Co 0.84489 0.64473 0.12719 0.0
C694 C 0.84638 0.65266 0.08595 0.0
C695 C 0.82516 0.63214 0.09202 0.0
C696 C 0.82523 0.63539 0.07296 0.0
N697 N 0.83855 0.64285 0.10034 0.0
N698 N 0.83861 0.64827 0.06911 0.0
H699 H 0.85773 0.66267 0.08759 0.0
H700 H 0.81585 0.6224 0.09905 0.0
C701 C 0.80436 0.65759 0.12848 0.0
O702 O 0.79881 0.641 0.12254 0.0
N703 N 0.85119 0.64729 0.15353 0.0
C704 C 0.86056 0.63498 0.16448 0.0
C705 C 0.86279 0.64288 0.1821 0.0
C706 C 0.848 0.6625 0.16444 0.0
N707 N 0.85489 0.66022 0.18204 0.0
C708 C 0.83846 0.60557 0.12341 0.0
C709 C 0.81594 0.60102 0.15487 0.0
C710 C 0.82226 0.58503 0.1451 0.0
C711 C 0.83331 0.58752 0.12898 0.0
C712 C 0.82102 0.61901 0.14846 0.0
N713 N 0.8322 0.6211 0.13288 0.0
H714 H 0.84812 0.60709 0.11174 0.0
H715 H 0.81686 0.63122 0.15659 0.0
H716 H 0.86558 0.62132 0.15991 0.0
H717 H 0.8408 0.67499 0.15949 0.0
O718 O 0.86928 0.63403 0.12244 0.0
O719 O 0.86296 0.66463 0.12192 0.0
O720 O 0.82182 0.6609 0.13136 0.0
C721 C 0.87539 0.65114 0.12044 0.0
H722 H 0.81595 0.62887 0.06277 0.0
H723 H 0.87009 0.63649 0.19385 0.0
H724 H 0.80766 0.59959 0.16761 0.0
H725 H 0.83893 0.57553 0.12136 0.0
Co726 Co 0.34403 0.84767 0.13787 0.0
C727 C 0.34632 0.84941 0.0957 0.0
C728 C 0.32718 0.8283 0.10547 0.0
C729 C 0.32498 0.83004 0.08643 0.0
N730 N 0.34089 0.84009 0.11152 0.0
N731 N 0.3368 0.84348 0.08027 0.0
H732 H 0.35556 0.86154 0.09566 0.0
H733 H 0.31767 0.82042 0.11429 0.0
C734 C 0.3356 0.80667 0.1427 0.0
O735 O 0.35032 0.80314 0.13203 0.0
N736 N 0.3456 0.85544 0.1639 0.0
C737 C 0.35814 0.86701 0.17224 0.0
C738 C 0.35213 0.87053 0.19045 0.0
C739 C 0.33224 0.85213 0.17694 0.0
N740 N 0.33588 0.86106 0.1933 0.0
C741 C 0.38241 0.84141 0.1273 0.0
C742 C 0.39267 0.82208 0.15953 0.0
C743 C 0.40685 0.82816 0.14715 0.0
C744 C 0.40139 0.83748 0.13059 0.0
C745 C 0.37382 0.82639 0.15574 0.0
N746 N 0.36888 0.83619 0.1399 0.0
H747 H 0.37882 0.8499 0.11526 0.0
H748 H 0.36327 0.82266 0.16607 0.0
H749 H 0.37043 0.8729 0.16541 0.0
H750 H 0.31956 0.84412 0.17418 0.0
O751 O 0.35235 0.87214 0.13013 0.0
O752 O 0.32245 0.86436 0.13499 0.0
O753 O 0.33098 0.82374 0.14634 0.0
C754 C 0.3348 0.87723 0.13043 0.0
H755 H 0.31448 0.82291 0.07796 0.0
H756 H 0.359 0.87954 0.20067 0.0
H757 H 0.39613 0.81468 0.17241 0.0
H758 H 0.41176 0.84288 0.12079 0.0
Co759 Co 0.64291 0.15344 0.13018 0.0
C760 C 0.64937 0.15299 0.08872 0.0
C761 C 0.63022 0.17503 0.09628 0.0
C762 C 0.63319 0.17576 0.07716 0.0
N763 N 0.6403 0.16066 0.10368 0.0
N764 N 0.64523 0.16189 0.07243 0.0
H765 H 0.65912 0.14134 0.08963 0.0
H766 H 0.62108 0.1844 0.10401 0.0
C767 C 0.65582 0.19399 0.13327 0.0
O768 O 0.63887 0.20012 0.12924 0.0
N769 N 0.64619 0.14626 0.15621 0.0
C770 C 0.63425 0.13624 0.167 0.0
C771 C 0.64259 0.13326 0.18427 0.0
C772 C 0.66161 0.14912 0.16689 0.0
N773 N 0.65983 0.14136 0.1842 0.0
C774 C 0.60369 0.1602 0.12757 0.0
C775 C 0.59997 0.1811 0.16027 0.0
C776 C 0.58368 0.17514 0.15075 0.0
C777 C 0.58578 0.16491 0.13399 0.0
C778 C 0.61776 0.17627 0.15317 0.0
N779 N 0.61945 0.16592 0.13698 0.0
H780 H 0.60492 0.15115 0.11537 0.0
H781 H 0.63015 0.18002 0.1612 0.0
H782 H 0.62057 0.13124 0.16251 0.0
H783 H 0.6739 0.15663 0.16195 0.0
O784 O 0.63216 0.12911 0.12499 0.0
O785 O 0.66267 0.13565 0.12371 0.0
O786 O 0.65924 0.17635 0.1345 0.0
C787 C 0.64924 0.12315 0.12232 0.0
H788 H 0.62669 0.18556 0.06745 0.0
H789 H 0.63655 0.12527 0.19575 0.0
H790 H 0.59897 0.18886 0.17337 0.0
H791 H 0.57365 0.15951 0.12646 0.0
H792 H 0.18201 0.18636 0.58639 0.0
H793 H 0.18182 0.19992 0.55474 0.0
H794 H 0.18032 0.14403 0.5308 0.0
H795 H 0.18196 0.13041 0.56221 0.0
H796 H 0.19984 0.16673 0.50889 0.0
H797 H 0.1324 0.20195 0.52798 0.0
H798 H 0.15261 0.20938 0.54122 0.0
H799 H 0.14398 0.18565 0.54358 0.0
C800 C 0.18229 0.17694 0.57439 0.0
C801 C 0.18156 0.15725 0.57689 0.0
C802 C 0.18187 0.18474 0.55628 0.0
C803 C 0.18031 0.17302 0.5404 0.0
C804 C 0.18123 0.1534 0.54283 0.0
H805 H 0.11705 0.17293 0.44241 0.0
H806 H 0.13027 0.17574 0.47389 0.0
C807 C 0.18198 0.14561 0.56085 0.0
C808 C 0.17603 0.18072 0.5214 0.0
H809 H 0.14143 0.20296 0.49641 0.0
C810 C 0.18721 0.1749 0.50614 0.0
C811 C 0.15949 0.19134 0.51785 0.0
C812 C 0.14632 0.19735 0.53346 0.0
C813 C 0.18166 0.17819 0.48743 0.0
C814 C 0.16479 0.18826 0.48389 0.0
C815 C 0.15436 0.19528 0.49917 0.0
C816 C 0.15618 0.18906 0.46481 0.0
C817 C 0.1932 0.1696 0.47175 0.0
C818 C 0.16596 0.19632 0.44921 0.0
C819 C 0.1586 0.19427 0.43101 0.0
C820 C 0.14117 0.1852 0.42816 0.0
C821 C 0.13075 0.17946 0.444 0.0
C822 C 0.13822 0.18125 0.46208 0.0
H823 H 0.20358 0.15916 0.47709 0.0
H824 H 0.18399 0.16246 0.46131 0.0
H825 H 0.20112 0.18088 0.46438 0.0
H826 H 0.17958 0.20294 0.45102 0.0
H827 H 0.16699 0.19891 0.41915 0.0
H828 H 0.81112 0.16453 0.41308 0.0
H829 H 0.81098 0.17528 0.4455 0.0
H830 H 0.82676 0.11965 0.46417 0.0
H831 H 0.82452 0.10809 0.43207 0.0
H832 H 0.80576 0.13338 0.48888 0.0
H833 H 0.85709 0.18964 0.47188 0.0
H834 H 0.83521 0.19289 0.45977 0.0
H835 H 0.84963 0.17258 0.45466 0.0
C836 C 0.81398 0.15429 0.42399 0.0
C837 C 0.8182 0.13536 0.41956 0.0
C838 C 0.81435 0.16068 0.44265 0.0
C839 C 0.81972 0.14856 0.45733 0.0
C840 C 0.82291 0.12946 0.45314 0.0
H841 H 0.87485 0.17914 0.56011 0.0
H842 H 0.86475 0.17353 0.52795 0.0
C843 C 0.8219 0.1229 0.43458 0.0
C844 C 0.82253 0.15567 0.47695 0.0
H845 H 0.84555 0.18902 0.50303 0.0
C846 C 0.81453 0.14552 0.49195 0.0
C847 C 0.83413 0.17143 0.4811 0.0
C848 C 0.84466 0.18213 0.46602 0.0
C849 C 0.81824 0.15022 0.51084 0.0
C850 C 0.8294 0.16629 0.51498 0.0
C851 C 0.83687 0.17682 0.49996 0.0
C852 C 0.83504 0.17141 0.53461 0.0
C853 C 0.81098 0.13718 0.52601 0.0
C854 C 0.82174 0.17292 0.54922 0.0
C855 C 0.82759 0.17526 0.56793 0.0
C856 C 0.84688 0.17685 0.57241 0.0
C857 C 0.85995 0.17721 0.55747 0.0
C858 C 0.85414 0.17425 0.5389 0.0
H859 H 0.80765 0.12296 0.52033 0.0
H860 H 0.82142 0.1355 0.53754 0.0
H861 H 0.7978 0.14306 0.53201 0.0
H862 H 0.80684 0.17165 0.54627 0.0
H863 H 0.81698 0.17493 0.57887 0.0
H864 H 0.88241 0.80655 0.43181 0.0
H865 H 0.87375 0.80921 0.46509 0.0
H866 H 0.81763 0.82622 0.44925 0.0
H867 H 0.82616 0.82367 0.41602 0.0
H868 H 0.86295 0.84282 0.48091 0.0
H869 H 0.80736 0.78903 0.492 0.0
H870 H 0.82313 0.78853 0.47202 0.0
H871 H 0.80318 0.80413 0.47213 0.0
C872 C 0.86813 0.81054 0.43542 0.0
C873 C 0.855 0.81492 0.42124 0.0
C874 C 0.86319 0.812 0.45443 0.0
C875 C 0.845 0.81777 0.45967 0.0
C876 C 0.83161 0.82134 0.44557 0.0
H877 H 0.8171 0.87764 0.56235 0.0
H878 H 0.81963 0.86698 0.52962 0.0
C879 C 0.83653 0.81986 0.42654 0.0
C880 C 0.84074 0.82218 0.47966 0.0
H881 H 0.81076 0.81239 0.51608 0.0
C882 C 0.85162 0.83607 0.48862 0.0
C883 C 0.82598 0.81332 0.48973 0.0
C884 C 0.81433 0.7978 0.48106 0.0
C885 C 0.84797 0.84156 0.50724 0.0
C886 C 0.83284 0.83316 0.51711 0.0
C887 C 0.82217 0.81899 0.50835 0.0
C888 C 0.82843 0.83869 0.53676 0.0
C889 C 0.86049 0.85621 0.51629 0.0
C890 C 0.83169 0.82604 0.55157 0.0
C891 C 0.83028 0.83208 0.57029 0.0
C892 C 0.82553 0.85089 0.5745 0.0
C893 C 0.82108 0.86316 0.55958 0.0
C894 C 0.82249 0.8571 0.54089 0.0
H895 H 0.87383 0.8582 0.50834 0.0
H896 H 0.85297 0.86991 0.51665 0.0
H897 H 0.86397 0.85222 0.53101 0.0
H898 H 0.83628 0.81177 0.54866 0.0
H899 H 0.83401 0.8223 0.58139 0.0
H900 H 0.12029 0.82151 0.57454 0.0
H901 H 0.12925 0.82249 0.54123 0.0
H902 H 0.18677 0.83412 0.55703 0.0
H903 H 0.17795 0.8329 0.59026 0.0
H904 H 0.14236 0.85292 0.52372 0.0
H905 H 0.19473 0.79564 0.51598 0.0
H906 H 0.17938 0.79748 0.53619 0.0
H907 H 0.20045 0.81153 0.5348 0.0
C908 C 0.1349 0.82394 0.57089 0.0
C909 C 0.14841 0.82708 0.58504 0.0
C910 C 0.14003 0.82446 0.55187 0.0
C911 C 0.15874 0.82817 0.54658 0.0
C912 C 0.17236 0.83073 0.5607 0.0
H913 H 0.1889 0.8828 0.44177 0.0
H914 H 0.18576 0.87371 0.47491 0.0
C915 C 0.16728 0.83007 0.57973 0.0
C916 C 0.16356 0.83138 0.52644 0.0
H917 H 0.19383 0.81858 0.49117 0.0
C918 C 0.15352 0.84529 0.51659 0.0
C919 C 0.17804 0.82134 0.51704 0.0
C920 C 0.18864 0.80553 0.52649 0.0
C921 C 0.15774 0.84968 0.4978 0.0
C922 C 0.17276 0.84026 0.48867 0.0
C923 C 0.18255 0.82603 0.49831 0.0
C924 C 0.17802 0.84481 0.46893 0.0
C925 C 0.14584 0.86423 0.48782 0.0
C926 C 0.17593 0.83127 0.45466 0.0
C927 C 0.17795 0.83638 0.43571 0.0
C928 C 0.18205 0.85514 0.43076 0.0
C929 C 0.18552 0.8683 0.44517 0.0
C930 C 0.18365 0.86315 0.46408 0.0
H931 H 0.1321 0.8664 0.49499 0.0
H932 H 0.15341 0.87791 0.48773 0.0
H933 H 0.14311 0.86004 0.47298 0.0
H934 H 0.17169 0.81702 0.45811 0.0
H935 H 0.17504 0.82596 0.42493 0.0
H936 H 0.40962 0.14865 0.20707 0.0
H937 H 0.44257 0.15895 0.21055 0.0
H938 H 0.45215 0.14821 0.15155 0.0
H939 H 0.4195 0.13838 0.14781 0.0
H940 H 0.47924 0.13213 0.18728 0.0
H941 H 0.46642 0.20879 0.17616 0.0
H942 H 0.45008 0.19421 0.18919 0.0
H943 H 0.45182 0.19179 0.16412 0.0
C944 C 0.41876 0.1485 0.19486 0.0
C945 C 0.41194 0.14246 0.17721 0.0
C946 C 0.43754 0.15434 0.19689 0.0
C947 C 0.44967 0.1543 0.18128 0.0
C948 C 0.44296 0.14825 0.16375 0.0
H949 H 0.55135 0.18533 0.13253 0.0
H950 H 0.51914 0.18258 0.14433 0.0
C951 C 0.42432 0.14245 0.1617 0.0
C952 C 0.46949 0.16044 0.18284 0.0
H953 H 0.49793 0.19818 0.17393 0.0
C954 C 0.48344 0.14663 0.18487 0.0
C955 C 0.47473 0.17933 0.17948 0.0
C956 C 0.46006 0.19452 0.17714 0.0
C957 C 0.50259 0.15105 0.18258 0.0
C958 C 0.50785 0.16985 0.17839 0.0
C959 C 0.49388 0.18383 0.17728 0.0
C960 C 0.52736 0.17463 0.1726 0.0
C961 C 0.51688 0.1353 0.18336 0.0
C962 C 0.54269 0.17192 0.18481 0.0
C963 C 0.56117 0.17335 0.17803 0.0
C964 C 0.56457 0.17759 0.15896 0.0
C965 C 0.54918 0.18175 0.14721 0.0
C966 C 0.53076 0.18029 0.15397 0.0
H967 H 0.51013 0.12118 0.18359 0.0
H968 H 0.52652 0.13599 0.17105 0.0
H969 H 0.52549 0.13678 0.19632 0.0
H970 H 0.54037 0.16787 0.19933 0.0
H971 H 0.57271 0.17 0.18743 0.0
H972 H 0.80891 0.55457 0.12603 0.0
H973 H 0.81164 0.52152 0.13542 0.0
H974 H 0.83343 0.53868 0.18953 0.0
H975 H 0.83037 0.57182 0.18026 0.0
H976 H 0.84634 0.50701 0.14283 0.0
H977 H 0.79891 0.49483 0.20383 0.0
H978 H 0.79628 0.51473 0.18818 0.0
H979 H 0.81411 0.51495 0.20615 0.0
C980 C 0.81369 0.55127 0.14015 0.0
C981 C 0.81944 0.5657 0.15243 0.0
C982 C 0.81529 0.53241 0.14549 0.0
C983 C 0.82273 0.52761 0.16318 0.0
C984 C 0.82734 0.54203 0.17595 0.0
H985 H 0.88274 0.42144 0.1797 0.0
H986 H 0.87409 0.45488 0.17982 0.0
C987 C 0.82558 0.56097 0.17065 0.0
C988 C 0.82805 0.50775 0.16704 0.0
H989 H 0.8211 0.47061 0.19687 0.0
C990 C 0.84078 0.49905 0.15464 0.0
C991 C 0.82079 0.49741 0.18244 0.0
C992 C 0.80663 0.50586 0.19585 0.0
C993 C 0.84637 0.48028 0.1571 0.0
C994 C 0.83937 0.46998 0.17266 0.0
C995 C 0.82662 0.47863 0.1851 0.0
C996 C 0.84435 0.44988 0.17541 0.0
C997 C 0.85933 0.47148 0.14268 0.0
C998 C 0.83039 0.436 0.17373 0.0
C999 C 0.83527 0.41692 0.17369 0.0
C1000 C 0.85423 0.41134 0.17539 0.0
C1001 C 0.86807 0.42528 0.17808 0.0
C1002 C 0.86315 0.44438 0.17818 0.0
H1003 H 0.85994 0.47986 0.12948 0.0
H1004 H 0.87379 0.47069 0.14857 0.0
H1005 H 0.85471 0.45694 0.13914 0.0
H1006 H 0.8158 0.43995 0.17155 0.0
H1007 H 0.82427 0.4066 0.17137 0.0
H1008 H 0.58372 0.84861 0.1974 0.0
H1009 H 0.55025 0.83942 0.19847 0.0
H1010 H 0.54534 0.8502 0.13892 0.0
H1011 H 0.57849 0.85931 0.13768 0.0
H1012 H 0.51733 0.86665 0.17898 0.0
H1013 H 0.52523 0.79245 0.15465 0.0
H1014 H 0.54326 0.80435 0.16818 0.0
H1015 H 0.53978 0.81027 0.14388 0.0
C1016 C 0.57548 0.84895 0.18456 0.0
C1017 C 0.58367 0.85489 0.1675 0.0
C1018 C 0.55643 0.84374 0.1852 0.0
C1019 C 0.54546 0.8441 0.16875 0.0
C1020 C 0.55364 0.84982 0.15173 0.0
H1021 H 0.43692 0.82105 0.12379 0.0
H1022 H 0.47038 0.82353 0.13143 0.0
C1023 C 0.57253 0.85517 0.15111 0.0
C1024 C 0.52524 0.83913 0.16911 0.0
H1025 H 0.49432 0.80499 0.15525 0.0
C1026 C 0.51221 0.85308 0.17414 0.0
C1027 C 0.51878 0.8215 0.16254 0.0
C1028 C 0.53241 0.80616 0.15705 0.0
C1029 C 0.49275 0.85013 0.17201 0.0
C1030 C 0.48621 0.83255 0.16509 0.0
C1031 C 0.49932 0.8184 0.16062 0.0
C1032 C 0.46595 0.82915 0.16108 0.0
C1033 C 0.47949 0.86623 0.17621 0.0
C1034 C 0.45232 0.83081 0.17532 0.0
C1035 C 0.43314 0.82971 0.17094 0.0
C1036 C 0.42718 0.82665 0.15224 0.0
C1037 C 0.44095 0.82381 0.13825 0.0
C1038 C 0.46011 0.82507 0.14262 0.0
H1039 H 0.487 0.87995 0.17701 0.0
H1040 H 0.46835 0.8673 0.16528 0.0
H1041 H 0.47258 0.86376 0.19001 0.0
H1042 H 0.4565 0.83352 0.18974 0.0
H1043 H 0.42302 0.83211 0.18209 0.0
H1044 H 0.17209 0.42565 0.18476 0.0
H1045 H 0.17032 0.45854 0.19465 0.0
H1046 H 0.1679 0.47594 0.13648 0.0
H1047 H 0.17136 0.44334 0.12645 0.0
H1048 H 0.18719 0.50031 0.15523 0.0
H1049 H 0.12186 0.48624 0.19581 0.0
H1050 H 0.14194 0.47354 0.20437 0.0
H1051 H 0.13279 0.46859 0.18121 0.0
C1052 C 0.17172 0.43645 0.17401 0.0
C1053 C 0.17153 0.43165 0.15473 0.0
C1054 C 0.17033 0.45531 0.17974 0.0
C1055 C 0.16824 0.46975 0.16636 0.0
C1056 C 0.16919 0.4651 0.14714 0.0
H1057 H 0.11028 0.57464 0.17259 0.0
H1058 H 0.12055 0.54192 0.17247 0.0
C1059 C 0.17097 0.44634 0.1414 0.0
C1060 C 0.16437 0.48961 0.17208 0.0
H1061 H 0.13316 0.5174 0.19609 0.0
C1062 C 0.17541 0.50404 0.16424 0.0
C1063 C 0.14887 0.49454 0.18369 0.0
C1064 C 0.13557 0.47995 0.19162 0.0
C1065 C 0.17106 0.52316 0.16707 0.0
C1066 C 0.15567 0.5281 0.17883 0.0
C1067 C 0.14503 0.51366 0.18722 0.0
C1068 C 0.14919 0.54798 0.18106 0.0
C1069 C 0.18239 0.53776 0.15652 0.0
C1070 C 0.16157 0.56237 0.18672 0.0
C1071 C 0.15587 0.58127 0.18624 0.0
C1072 C 0.13749 0.58616 0.18053 0.0
C1073 C 0.12469 0.57154 0.17651 0.0
C1074 C 0.13051 0.55273 0.17661 0.0
H1075 H 0.19018 0.53148 0.14446 0.0
H1076 H 0.17319 0.54915 0.15102 0.0
H1077 H 0.1929 0.54411 0.16618 0.0
H1078 H 0.17586 0.55907 0.19089 0.0
H1079 H 0.1662 0.59203 0.18944 0.0
H1080 H 0.44116 0.87518 0.82813 0.0
H1081 H 0.4732 0.86422 0.82255 0.0
H1082 H 0.45158 0.81286 0.79812 0.0
H1083 H 0.41923 0.82381 0.80405 0.0
H1084 H 0.47578 0.80582 0.82636 0.0
H1085 H 0.5088 0.85763 0.77911 0.0
H1086 H 0.49691 0.86972 0.79781 0.0
H1087 H 0.48353 0.85562 0.78142 0.0
C1088 C 0.44325 0.86181 0.82103 0.0
C1089 C 0.4278 0.85031 0.81654 0.0
C1090 C 0.46157 0.8556 0.81771 0.0
C1091 C 0.46484 0.8378 0.80971 0.0
C1092 C 0.44938 0.82672 0.80416 0.0
H1093 H 0.58646 0.8174 0.81399 0.0
H1094 H 0.55474 0.81561 0.80066 0.0
C1095 C 0.43094 0.833 0.80744 0.0
C1096 C 0.48422 0.82998 0.80997 0.0
H1097 H 0.5298 0.84313 0.80247 0.0
C1098 C 0.4876 0.81368 0.82067 0.0
C1099 C 0.49967 0.83993 0.80227 0.0
C1100 C 0.49699 0.85657 0.78934 0.0
C1101 C 0.50599 0.80813 0.82535 0.0
C1102 C 0.52135 0.81942 0.81951 0.0
C1103 C 0.51804 0.83465 0.8073 0.0
C1104 C 0.54051 0.81716 0.82758 0.0
C1105 C 0.50872 0.79059 0.83703 0.0
C1106 C 0.5431 0.81826 0.84718 0.0
C1107 C 0.56119 0.81907 0.85485 0.0
C1108 C 0.57712 0.81908 0.84308 0.0
C1109 C 0.57453 0.81717 0.8235 0.0
C1110 C 0.55639 0.81628 0.81583 0.0
H1111 H 0.49749 0.78009 0.83405 0.0
H1112 H 0.52264 0.78397 0.83434 0.0
H1113 H 0.50778 0.79432 0.85219 0.0
H1114 H 0.53111 0.81942 0.85654 0.0
H1115 H 0.56269 0.82037 0.86999 0.0
H1116 H 0.18559 0.4134 0.82308 0.0
H1117 H 0.19672 0.44605 0.82391 0.0
H1118 H 0.14146 0.46539 0.80777 0.0
H1119 H 0.13019 0.43277 0.80701 0.0
H1120 H 0.19607 0.47955 0.79931 0.0
H1121 H 0.15026 0.48464 0.86266 0.0
H1122 H 0.15621 0.4624 0.85184 0.0
H1123 H 0.13843 0.4772 0.84154 0.0
C1124 C 0.17599 0.42455 0.81903 0.0
C1125 C 0.15695 0.42058 0.8152 0.0
C1126 C 0.18236 0.4432 0.81957 0.0
C1127 C 0.16981 0.45809 0.81624 0.0
C1128 C 0.15128 0.45406 0.81064 0.0
H1129 H 0.18302 0.57891 0.81888 0.0
H1130 H 0.1827 0.54605 0.8085 0.0
C1131 C 0.14487 0.43545 0.8102 0.0
C1132 C 0.17521 0.4776 0.82125 0.0
H1133 H 0.16516 0.51257 0.85266 0.0
C1134 C 0.18937 0.48682 0.81097 0.0
C1135 C 0.16673 0.48684 0.83675 0.0
C1136 C 0.15218 0.47725 0.84898 0.0
C1137 C 0.19493 0.50532 0.81555 0.0
C1138 C 0.18595 0.51476 0.83066 0.0
C1139 C 0.17205 0.50533 0.84108 0.0
C1140 C 0.19008 0.53461 0.83579 0.0
C1141 C 0.21049 0.51447 0.80435 0.0
C1142 C 0.19467 0.53918 0.85451 0.0
C1143 C 0.19465 0.55792 0.86051 0.0
C1144 C 0.19011 0.57247 0.84789 0.0
C1145 C 0.18684 0.56801 0.82885 0.0
C1146 C 0.18669 0.54921 0.82288 0.0
H1147 H 0.21956 0.5038 0.79735 0.0
H1148 H 0.20418 0.52345 0.79321 0.0
H1149 H 0.21943 0.52353 0.81346 0.0
H1150 H 0.19731 0.52814 0.86471 0.0
H1151 H 0.1973 0.56099 0.87523 0.0
H1152 H 0.43728 0.18639 0.87248 0.0
H1153 H 0.46987 0.18704 0.86168 0.0
H1154 H 0.45116 0.1809 0.80416 0.0
H1155 H 0.41844 0.17952 0.81499 0.0
H1156 H 0.47678 0.15485 0.81311 0.0
H1157 H 0.50394 0.22399 0.83591 0.0
H1158 H 0.49256 0.21229 0.85516 0.0
H1159 H 0.47902 0.21895 0.83472 0.0
C1160 C 0.44007 0.1855 0.8575 0.0
C1161 C 0.42527 0.18278 0.84461 0.0
C1162 C 0.45872 0.18611 0.8513 0.0
C1163 C 0.463 0.18426 0.83207 0.0
C1164 C 0.44819 0.18251 0.81905 0.0
H1165 H 0.57945 0.15754 0.79421 0.0
H1166 H 0.54674 0.16891 0.79186 0.0
C1167 C 0.42948 0.18186 0.82526 0.0
C1168 C 0.48288 0.18165 0.82608 0.0
H1169 H 0.52724 0.19878 0.83333 0.0
C1170 C 0.48778 0.16471 0.81703 0.0
C1171 C 0.49724 0.19453 0.83111 0.0
C1172 C 0.49287 0.21354 0.83958 0.0
C1173 C 0.50671 0.15969 0.81424 0.0
C1174 C 0.52103 0.17193 0.82063 0.0
C1175 C 0.51617 0.18938 0.82856 0.0
C1176 C 0.54088 0.16571 0.8216 0.0
C1177 C 0.51136 0.14079 0.80566 0.0
C1178 C 0.54829 0.16029 0.83906 0.0
C1179 C 0.56674 0.15374 0.84042 0.0
C1180 C 0.57825 0.15254 0.82432 0.0
C1181 C 0.5709 0.15828 0.80682 0.0
C1182 C 0.55227 0.16473 0.80546 0.0
H1183 H 0.49853 0.13267 0.80185 0.0
H1184 H 0.51998 0.14286 0.79278 0.0
H1185 H 0.51986 0.13235 0.81573 0.0
H1186 H 0.53969 0.16099 0.85167 0.0
H1187 H 0.57209 0.14982 0.85416 0.0
H1188 H 0.8294 0.58679 0.825 0.0
H1189 H 0.82087 0.55342 0.82533 0.0
H1190 H 0.87907 0.5383 0.81676 0.0
H1191 H 0.88777 0.57173 0.81647 0.0
H1192 H 0.82568 0.52225 0.80078 0.0
H1193 H 0.86571 0.51415 0.86756 0.0
H1194 H 0.86039 0.53689 0.85755 0.0
H1195 H 0.87936 0.52296 0.84817 0.0
C1196 C 0.84035 0.57641 0.82271 0.0
C1197 C 0.85931 0.58192 0.82086 0.0
C1198 C 0.83543 0.55732 0.82297 0.0
C1199 C 0.84937 0.54339 0.82141 0.0
C1200 C 0.86814 0.54884 0.81836 0.0
H1201 H 0.83596 0.4213 0.81724 0.0
H1202 H 0.83857 0.45451 0.80801 0.0
C1203 C 0.87309 0.56793 0.81819 0.0
C1204 C 0.84446 0.5233 0.82458 0.0
H1205 H 0.8525 0.48659 0.85455 0.0
C1206 C 0.83153 0.5144 0.81251 0.0
C1207 C 0.85185 0.51322 0.84011 0.0
C1208 C 0.86496 0.5223 0.85421 0.0
C1209 C 0.82597 0.49558 0.81545 0.0
C1210 C 0.83372 0.4854 0.83074 0.0
C1211 C 0.84657 0.49439 0.84281 0.0
C1212 C 0.82883 0.46545 0.83479 0.0
C1213 C 0.81159 0.4869 0.80243 0.0
C1214 C 0.82214 0.46052 0.85275 0.0
C1215 C 0.82083 0.44163 0.85807 0.0
C1216 C 0.8261 0.42726 0.8455 0.0
C1217 C 0.83155 0.43211 0.82708 0.0
C1218 C 0.83303 0.45108 0.82181 0.0
H1219 H 0.80337 0.49782 0.7948 0.0
H1220 H 0.81893 0.47808 0.79181 0.0
H1221 H 0.80167 0.47773 0.81034 0.0
H1222 H 0.8188 0.47135 0.86299 0.0
H1223 H 0.81659 0.43825 0.87234 0.0
H1224 H 0.12749 0.94625 0.35016 0.0
H1225 H 0.11815 0.97875 0.34326 0.0
H1226 H 0.17392 0.99031 0.32205 0.0
H1227 H 0.18334 0.95797 0.32911 0.0
H1228 H 0.16322 0.01607 0.34716 0.0
H1229 H 0.10585 0.00662 0.29513 0.0
H1230 H 0.1021 0.99332 0.3163 0.0
H1231 H 0.12185 0.98784 0.30136 0.0
C1232 C 0.13764 0.95564 0.34373 0.0
C1233 C 0.15619 0.94957 0.3403 0.0
C1234 C 0.13227 0.9742 0.33969 0.0
C1235 C 0.14525 0.98694 0.33187 0.0
C1236 C 0.16363 0.98074 0.32803 0.0
H1237 H 0.131 0.10759 0.30597 0.0
H1238 H 0.1362 0.07355 0.30142 0.0
C1239 C 0.16905 0.96228 0.3322 0.0
C1240 C 0.14029 0.00714 0.32936 0.0
H1241 H 0.10799 0.03715 0.30982 0.0
C1242 C 0.1513 0.02064 0.33876 0.0
C1243 C 0.1248 0.01319 0.31832 0.0
C1244 C 0.11308 0.99949 0.30704 0.0
C1245 C 0.14686 0.03987 0.33798 0.0
C1246 C 0.13089 0.0458 0.32769 0.0
C1247 C 0.12018 0.03248 0.31776 0.0
C1248 C 0.12461 0.06566 0.32848 0.0
C1249 C 0.15902 0.05377 0.34855 0.0
C1250 C 0.11582 0.07227 0.34487 0.0
C1251 C 0.11294 0.09152 0.3475 0.0
C1252 C 0.11871 0.10455 0.33375 0.0
C1253 C 0.1263 0.09783 0.31672 0.0
C1254 C 0.12931 0.07845 0.31413 0.0
H1255 H 0.17251 0.04739 0.35326 0.0
H1256 H 0.16216 0.06621 0.33959 0.0
H1257 H 0.15129 0.05884 0.36118 0.0
H1258 H 0.11211 0.06258 0.35607 0.0
H1259 H 0.10696 0.09628 0.36073 0.0
H1260 H 0.90137 0.10778 0.35236 0.0
H1261 H 0.93506 0.11157 0.34758 0.0
H1262 H 0.92507 0.13124 0.29094 0.0
H1263 H 0.89093 0.12792 0.29585 0.0
H1264 H 0.96119 0.09785 0.32279 0.0
H1265 H 0.95257 0.17551 0.31494 0.0
H1266 H 0.93352 0.1605 0.32248 0.0
H1267 H 0.94037 0.16103 0.29812 0.0
C1268 C 0.90628 0.11273 0.33878 0.0
C1269 C 0.89348 0.11782 0.32456 0.0
C1270 C 0.92559 0.1148 0.33605 0.0
C1271 C 0.93259 0.122 0.31904 0.0
C1272 C 0.91994 0.126 0.30432 0.0
H1273 H 0.0568 0.13497 0.3159 0.0
H1274 H 0.02507 0.12501 0.30649 0.0
C1275 C 0.90047 0.12397 0.30708 0.0
C1276 C 0.95294 0.1266 0.31773 0.0
H1277 H 0.98329 0.16393 0.31739 0.0
C1278 C 0.96611 0.11225 0.32128 0.0
C1279 C 0.95926 0.14544 0.31593 0.0
C1280 C 0.94575 0.16158 0.31279 0.0
C1281 C 0.98528 0.11634 0.32406 0.0
C1282 C 0.99147 0.13525 0.32286 0.0
C1283 C 0.97847 0.14945 0.3183 0.0
C1284 C 0.01084 0.14096 0.32826 0.0
C1285 C 0.9985 0.10056 0.32941 0.0
C1286 C 0.01336 0.15341 0.34342 0.0
C1287 C 0.03138 0.15919 0.34872 0.0
C1288 C 0.04732 0.15262 0.33899 0.0
C1289 C 0.04481 0.14005 0.32385 0.0
C1290 C 0.0267 0.13436 0.31845 0.0
H1291 H 0.9908 0.08749 0.33328 0.0
H1292 H 0.00779 0.09728 0.31727 0.0
H1293 H 0.00756 0.10478 0.34144 0.0
H1294 H 0.00133 0.15863 0.35125 0.0
H1295 H 0.03285 0.16868 0.36057 0.0
H1296 H 0.86615 0.88945 0.30261 0.0
H1297 H 0.86503 0.92402 0.30044 0.0
H1298 H 0.89653 0.92839 0.35222 0.0
H1299 H 0.89766 0.89408 0.35447 0.0
H1300 H 0.8476 0.94543 0.33039 0.0
H1301 H 0.92129 0.96829 0.31721 0.0
H1302 H 0.91296 0.94485 0.31167 0.0
H1303 H 0.91841 0.95109 0.33559 0.0
C1304 C 0.87332 0.89782 0.31318 0.0
C1305 C 0.88196 0.88915 0.32872 0.0
C1306 C 0.8726 0.91752 0.31199 0.0
C1307 C 0.88079 0.92872 0.32613 0.0
C1308 C 0.89036 0.92002 0.34104 0.0
H1309 H 0.84835 0.04263 0.36018 0.0
H1310 H 0.85909 0.00955 0.3608 0.0
C1311 C 0.89091 0.90042 0.34234 0.0
C1312 C 0.87744 0.94931 0.32667 0.0
H1313 H 0.89953 0.9921 0.32649 0.0
C1314 C 0.85893 0.95564 0.32945 0.0
C1315 C 0.89229 0.96254 0.32556 0.0
C1316 C 0.91236 0.95643 0.32219 0.0
C1317 C 0.85487 0.9749 0.3313 0.0
C1318 C 0.86973 0.98813 0.33046 0.0
C1319 C 0.88823 0.98185 0.32745 0.0
C1320 C 0.86591 0.0086 0.33107 0.0
C1321 C 0.83467 0.98104 0.33386 0.0
C1322 C 0.86683 0.01903 0.31436 0.0
C1323 C 0.86064 0.03766 0.314 0.0
C1324 C 0.85358 0.04627 0.33039 0.0
C1325 C 0.85379 0.03624 0.34742 0.0
C1326 C 0.85981 0.01742 0.34774 0.0
H1327 H 0.82459 0.96925 0.33173 0.0
H1328 H 0.83275 0.98663 0.34834 0.0
H1329 H 0.83116 0.99252 0.32382 0.0
H1330 H 0.87153 0.01247 0.30139 0.0
H1331 H 0.86081 0.04523 0.30076 0.0
H1332 H 0.95673 0.83685 0.30743 0.0
H1333 H 0.98857 0.84918 0.3096 0.0
H1334 H 0.97779 0.86762 0.36651 0.0
H1335 H 0.94582 0.8545 0.36471 0.0
H1336 H 0.00254 0.88471 0.31641 0.0
H1337 H 0.0243 0.83442 0.37245 0.0
H1338 H 0.00258 0.83182 0.35953 0.0
H1339 H 0.00435 0.84891 0.37815 0.0
C1340 C 0.9611 0.84328 0.32054 0.0
C1341 C 0.9488 0.84426 0.33608 0.0
C1342 C 0.9793 0.85056 0.32165 0.0
C1343 C 0.98567 0.85905 0.33829 0.0
C1344 C 0.97325 0.8608 0.35363 0.0
H1345 H 0.09885 0.89253 0.36935 0.0
H1346 H 0.06463 0.89062 0.36706 0.0
C1347 C 0.95496 0.85343 0.35255 0.0
C1348 C 0.00557 0.8653 0.33956 0.0
H1349 H 0.04708 0.85603 0.36194 0.0
C1350 C 0.01228 0.87855 0.32644 0.0
C1351 C 0.01826 0.85711 0.35255 0.0
C1352 C 0.01212 0.84216 0.36638 0.0
C1353 C 0.03137 0.88379 0.32597 0.0
C1354 C 0.04405 0.87542 0.33882 0.0
C1355 C 0.03728 0.86245 0.35213 0.0
C1356 C 0.06452 0.87952 0.33868 0.0
C1357 C 0.0378 0.89827 0.31182 0.0
C1358 C 0.07584 0.8744 0.32323 0.0
C1359 C 0.09552 0.87555 0.32446 0.0
C1360 C 0.10407 0.88164 0.34124 0.0
C1361 C 0.09265 0.88767 0.35627 0.0
C1362 C 0.07309 0.88661 0.355 0.0
H1363 H 0.02582 0.9067 0.30629 0.0
H1364 H 0.04831 0.90799 0.31816 0.0
H1365 H 0.04458 0.89099 0.29975 0.0
H1366 H 0.06952 0.86859 0.31061 0.0
H1367 H 0.104 0.87064 0.31276 0.0
H1368 H 0.1362 0.06424 0.68542 0.0
H1369 H 0.12912 0.03235 0.69655 0.0
H1370 H 0.16401 0.00921 0.65249 0.0
H1371 H 0.17117 0.04095 0.64136 0.0
H1372 H 0.11207 0.00312 0.6789 0.0
H1373 H 0.18443 0.9824 0.69844 0.0
H1374 H 0.17797 0.00657 0.6938 0.0
H1375 H 0.18354 0.99083 0.67465 0.0
C1376 C 0.14229 0.05236 0.67805 0.0
C1377 C 0.15435 0.05515 0.66254 0.0
C1378 C 0.13833 0.03415 0.68451 0.0
C1379 C 0.1464 0.01841 0.67564 0.0
C1380 C 0.15811 0.02115 0.65994 0.0
H1381 H 0.11497 0.90824 0.65438 0.0
H1382 H 0.11682 0.94207 0.65924 0.0
C1383 C 0.16213 0.03931 0.65353 0.0
C1384 C 0.14198 0.99902 0.6821 0.0
H1385 H 0.16273 0.95682 0.69211 0.0
C1386 C 0.12312 0.99308 0.68216 0.0
C1387 C 0.15631 0.986 0.6869 0.0
C1388 C 0.17667 0.99184 0.68866 0.0
C1389 C 0.11836 0.97414 0.68538 0.0
C1390 C 0.13288 0.96077 0.68823 0.0
C1391 C 0.15159 0.967 0.6897 0.0
C1392 C 0.12937 0.94019 0.68698 0.0
C1393 C 0.09786 0.96858 0.68516 0.0
C1394 C 0.13586 0.92772 0.70096 0.0
C1395 C 0.13492 0.90816 0.69813 0.0
C1396 C 0.12774 0.9009 0.68117 0.0
C1397 C 0.1206 0.91341 0.66759 0.0
C1398 C 0.12147 0.93281 0.67044 0.0
H1399 H 0.08882 0.98033 0.6902 0.0
H1400 H 0.09358 0.96528 0.67048 0.0
H1401 H 0.09521 0.95599 0.69408 0.0
H1402 H 0.14219 0.93313 0.71375 0.0
H1403 H 0.14063 0.89882 0.70876 0.0
H1404 H 0.09676 0.10798 0.63434 0.0
H1405 H 0.06239 0.10959 0.63435 0.0
H1406 H 0.0636 0.13697 0.68862 0.0
H1407 H 0.09821 0.135 0.68886 0.0
H1408 H 0.03214 0.11107 0.68271 0.0
H1409 H 0.04112 0.16303 0.62482 0.0
H1410 H 0.05181 0.14049 0.62056 0.0
H1411 H 0.06049 0.1552 0.63928 0.0
C1412 C 0.08967 0.1139 0.64651 0.0
C1413 C 0.10006 0.12155 0.66152 0.0
C1414 C 0.07007 0.11485 0.64646 0.0
C1415 C 0.06054 0.12378 0.66127 0.0
C1416 C 0.07076 0.13009 0.67702 0.0
H1417 H 0.95675 0.18441 0.6594 0.0
H1418 H 0.98921 0.17309 0.66005 0.0
C1419 C 0.09048 0.12892 0.67719 0.0
C1420 C 0.04031 0.1284 0.65924 0.0
H1421 H 0.00998 0.15479 0.63284 0.0
C1422 C 0.02722 0.12056 0.6718 0.0
C1423 C 0.03404 0.14098 0.64508 0.0
C1424 C 0.04758 0.15057 0.63175 0.0
C1425 C 0.00795 0.12499 0.67055 0.0
C1426 C 0.00169 0.13738 0.65623 0.0
C1427 C 0.0148 0.14512 0.64365 0.0
C1428 C 0.98191 0.14391 0.65502 0.0
C1429 C 0.99455 0.1169 0.68492 0.0
C1430 C 0.96705 0.13132 0.65145 0.0
C1431 C 0.94841 0.1378 0.65109 0.0
C1432 C 0.94441 0.15696 0.65429 0.0
C1433 C 0.95941 0.16956 0.65712 0.0
C1434 C 0.97795 0.16311 0.65746 0.0
H1435 H 0.0021 0.11067 0.69714 0.0
H1436 H 0.98475 0.12792 0.69017 0.0
H1437 H 0.98601 0.10563 0.67823 0.0
H1438 H 0.96986 0.11649 0.64916 0.0
H1439 H 0.93713 0.12774 0.64901 0.0
H1440 H 0.8806 0.94305 0.65046 0.0
H1441 H 0.89203 0.97582 0.65143 0.0
H1442 H 0.83468 0.99566 0.65478 0.0
H1443 H 0.82333 0.96315 0.65361 0.0
H1444 H 0.8579 0.01616 0.62962 0.0
H1445 H 0.88992 0.00793 0.70079 0.0
H1446 H 0.89717 0.9915 0.68286 0.0
H1447 H 0.87335 0.99112 0.69127 0.0
C1448 C 0.8705 0.95448 0.65095 0.0
C1449 C 0.85109 0.95067 0.652 0.0
C1450 C 0.87702 0.97312 0.65176 0.0
C1451 C 0.86419 0.9881 0.65354 0.0
C1452 C 0.84481 0.98429 0.65356 0.0
H1453 H 0.86172 0.10344 0.68855 0.0
H1454 H 0.86205 0.06877 0.68792 0.0
C1455 C 0.83834 0.96577 0.65287 0.0
C1456 C 0.8706 0.00782 0.65583 0.0
H1457 H 0.89071 0.03829 0.68732 0.0
C1458 C 0.86529 0.02098 0.64211 0.0
C1459 C 0.87996 0.01404 0.67232 0.0
C1460 C 0.88537 0.0005 0.68777 0.0
C1461 C 0.86878 0.04027 0.64453 0.0
C1462 C 0.87813 0.04653 0.66101 0.0
C1463 C 0.88369 0.03338 0.67467 0.0
C1464 C 0.88139 0.06686 0.6644 0.0
C1465 C 0.8618 0.05388 0.62974 0.0
C1466 C 0.89296 0.0771 0.65213 0.0
C1467 C 0.89267 0.09675 0.65239 0.0
C1468 C 0.88103 0.10645 0.66514 0.0
C1469 C 0.87092 0.09624 0.67871 0.0
C1470 C 0.87105 0.07649 0.6783 0.0
H1471 H 0.8515 0.0472 0.62001 0.0
H1472 H 0.85504 0.06633 0.63639 0.0
H1473 H 0.87391 0.05891 0.62123 0.0
H1474 H 0.90125 0.06991 0.6415 0.0
H1475 H 0.90069 0.10436 0.64186 0.0
H1476 H 0.05877 0.86532 0.64099 0.0
H1477 H 0.02637 0.87745 0.63846 0.0
H1478 H 0.01967 0.87191 0.69863 0.0
H1479 H 0.05185 0.86046 0.70122 0.0
H1480 H 0.99541 0.85694 0.64813 0.0
H1481 H 0.99592 0.92274 0.68991 0.0
H1482 H 0.01729 0.91159 0.68174 0.0
H1483 H 0.00577 0.90338 0.70281 0.0
C1484 C 0.05048 0.86718 0.65366 0.0
C1485 C 0.05773 0.86172 0.67124 0.0
C1486 C 0.032 0.87403 0.65223 0.0
C1487 C 0.02065 0.87579 0.6684 0.0
C1488 C 0.02822 0.87107 0.68601 0.0
H1489 H 0.90153 0.87472 0.69254 0.0
H1490 H 0.93613 0.87569 0.69476 0.0
C1491 C 0.04656 0.86423 0.68743 0.0
C1492 C 0.00031 0.88033 0.66686 0.0
H1493 H 0.96551 0.90814 0.68532 0.0
C1494 C 0.98893 0.86833 0.65601 0.0
C1495 C 0.99183 0.89511 0.67728 0.0
C1496 C 0.00338 0.90905 0.68844 0.0
C1497 C 0.96928 0.87028 0.65583 0.0
C1498 C 0.96079 0.8847 0.66666 0.0
C1499 C 0.97211 0.89698 0.6772 0.0
C1500 C 0.94011 0.88715 0.6668 0.0
C1501 C 0.95762 0.8566 0.64443 0.0
C1502 C 0.93104 0.89394 0.65066 0.0
C1503 C 0.91146 0.89338 0.64937 0.0
C1504 C 0.90057 0.88605 0.66422 0.0
C1505 C 0.90959 0.88047 0.68093 0.0
C1506 C 0.9293 0.88099 0.68219 0.0
H1507 H 0.96608 0.84447 0.63928 0.0
H1508 H 0.94569 0.85116 0.65297 0.0
H1509 H 0.95162 0.86401 0.63204 0.0
H1510 H 0.93917 0.89886 0.63871 0.0
H1511 H 0.90488 0.89796 0.63637 0.0
H1512 H 0.35963 0.17296 0.95675 0.0
H1513 H 0.34951 0.16535 0.98875 0.0
H1514 H 0.30458 0.13097 0.96649 0.0
H1515 H 0.31482 0.13839 0.93437 0.0
H1516 H 0.31579 0.1721 0.00624 0.0
H1517 H 0.33024 0.09509 0.00293 0.0
H1518 H 0.33871 0.11127 0.98527 0.0
H1519 H 0.31445 0.10404 0.98529 0.0
C1520 C 0.34758 0.16381 0.95867 0.0
C1521 C 0.3381 0.1562 0.94305 0.0
C1522 C 0.34182 0.15945 0.97695 0.0
C1523 C 0.32641 0.14744 0.98002 0.0
C1524 C 0.31675 0.13995 0.96447 0.0
H1525 H 0.29094 0.14028 0.09972 0.0
H1526 H 0.28713 0.1428 0.06534 0.0
C1527 C 0.32262 0.14419 0.94613 0.0
C1528 C 0.32068 0.14291 0.9996 0.0
H1529 H 0.31896 0.10708 0.03164 0.0
C1530 C 0.31624 0.15786 0.01179 0.0
C1531 C 0.32128 0.1243 0.00674 0.0
C1532 C 0.32656 0.10773 0.99447 0.0
C1533 C 0.31333 0.15487 0.03112 0.0
C1534 C 0.31446 0.13632 0.03837 0.0
C1535 C 0.31794 0.12125 0.026 0.0
C1536 C 0.31519 0.13267 0.05893 0.0
C1537 C 0.31029 0.17171 0.04378 0.0
C1538 C 0.33184 0.12535 0.06661 0.0
C1539 C 0.33395 0.12375 0.08604 0.0
C1540 C 0.31945 0.12945 0.09828 0.0
C1541 C 0.30236 0.13587 0.09061 0.0
C1542 C 0.30023 0.13743 0.07101 0.0
H1543 H 0.31289 0.18524 0.03635 0.0
H1544 H 0.29552 0.17175 0.04888 0.0
H1545 H 0.31971 0.17101 0.05625 0.0
H1546 H 0.34355 0.12154 0.05758 0.0
H1547 H 0.34724 0.11858 0.09147 0.0
H1548 H 0.88861 0.33976 0.09338 0.0
H1549 H 0.88615 0.33505 0.05949 0.0
H1550 H 0.8567 0.28267 0.06864 0.0
H1551 H 0.85889 0.2875 0.10293 0.0
H1552 H 0.89624 0.30678 0.03364 0.0
H1553 H 0.81843 0.31552 0.03999 0.0
H1554 H 0.83414 0.32056 0.05932 0.0
H1555 H 0.82909 0.29658 0.053 0.0
C1556 C 0.88188 0.32705 0.08823 0.0
C1557 C 0.87371 0.31411 0.10078 0.0
C1558 C 0.88057 0.32434 0.06883 0.0
C1559 C 0.87098 0.30868 0.06154 0.0
C1560 C 0.86392 0.295 0.07401 0.0
H1561 H 0.85851 0.30991 0.93694 0.0
H1562 H 0.86535 0.29729 0.9684 0.0
C1563 C 0.86529 0.2977 0.09356 0.0
C1564 C 0.86687 0.30815 0.04105 0.0
H1565 H 0.83132 0.31653 0.00973 0.0
C1566 C 0.88202 0.30846 0.0283 0.0
C1567 C 0.8483 0.31056 0.0342 0.0
C1568 C 0.83151 0.31092 0.04726 0.0
C1569 C 0.87918 0.31211 0.00904 0.0
C1570 C 0.86069 0.31536 0.0024 0.0
C1571 C 0.84547 0.31399 0.01493 0.0
C1572 C 0.85699 0.32264 0.98317 0.0
C1573 C 0.89601 0.31372 0.99618 0.0
C1574 C 0.84999 0.34099 0.98108 0.0
C1575 C 0.84614 0.34822 0.96323 0.0
C1576 C 0.8491 0.33723 0.947 0.0
C1577 C 0.85627 0.31884 0.9491 0.0
C1578 C 0.86014 0.31158 0.96707 0.0
H1579 H 0.90955 0.31299 0.00401 0.0
H1580 H 0.89572 0.30206 0.98575 0.0
H1581 H 0.89551 0.32721 0.98826 0.0
H1582 H 0.84757 0.34979 0.99333 0.0
H1583 H 0.84097 0.36253 0.96218 0.0
H1584 H 0.64124 0.8332 0.95714 0.0
H1585 H 0.65181 0.84127 0.98888 0.0
H1586 H 0.69918 0.8714 0.96563 0.0
H1587 H 0.68851 0.86351 0.93373 0.0
H1588 H 0.68492 0.83234 0.00643 0.0
H1589 H 0.67669 0.91017 0.00134 0.0
H1590 H 0.66686 0.89429 0.98408 0.0
H1591 H 0.69163 0.89943 0.98394 0.0
C1592 C 0.65392 0.84153 0.95877 0.0
C1593 C 0.664 0.84775 0.94292 0.0
C1594 C 0.65994 0.84615 0.97692 0.0
C1595 C 0.6762 0.85707 0.97965 0.0
C1596 C 0.68639 0.86328 0.96387 0.0
H1597 H 0.70933 0.86261 0.10004 0.0
H1598 H 0.71457 0.86046 0.06581 0.0
C1599 C 0.68027 0.85877 0.94565 0.0
C1600 C 0.68231 0.86165 0.99913 0.0
H1601 H 0.68645 0.89795 0.03048 0.0
C1602 C 0.68553 0.84669 0.01167 0.0
C1603 C 0.68312 0.8804 0.00588 0.0
C1604 C 0.67927 0.89703 0.9932 0.0
C1605 C 0.68845 0.84988 0.03098 0.0
C1606 C 0.68862 0.86862 0.03786 0.0
C1607 C 0.68648 0.88363 0.02513 0.0
C1608 C 0.68762 0.87271 0.05836 0.0
C1609 C 0.68999 0.83312 0.04399 0.0
C1610 C 0.67131 0.88128 0.06546 0.0
C1611 C 0.66842 0.88267 0.08481 0.0
C1612 C 0.68179 0.87553 0.09755 0.0
C1613 C 0.69878 0.86817 0.09053 0.0
C1614 C 0.70169 0.86679 0.07101 0.0
H1615 H 0.68656 0.81966 0.03674 0.0
H1616 H 0.70461 0.8321 0.04941 0.0
H1617 H 0.68038 0.83475 0.05623 0.0
H1618 H 0.66029 0.88602 0.05602 0.0
H1619 H 0.65527 0.88862 0.08978 0.0
H1620 H 0.12251 0.65063 0.09259 0.0
H1621 H 0.12641 0.65486 0.05892 0.0
H1622 H 0.1442 0.71231 0.06792 0.0
H1623 H 0.14064 0.708 0.1022 0.0
H1624 H 0.11043 0.67939 0.03356 0.0
H1625 H 0.18817 0.68933 0.03832 0.0
H1626 H 0.1744 0.68118 0.05806 0.0
H1627 H 0.1736 0.70553 0.05127 0.0
C1628 C 0.12718 0.66424 0.08752 0.0
C1629 C 0.13147 0.67894 0.1001 0.0
C1630 C 0.12932 0.66665 0.06819 0.0
C1631 C 0.13579 0.68381 0.06089 0.0
C1632 C 0.13945 0.69884 0.0733 0.0
H1633 H 0.14171 0.6832 0.93614 0.0
H1634 H 0.1339 0.69398 0.96803 0.0
C1635 C 0.13732 0.69642 0.09283 0.0
C1636 C 0.13943 0.68508 0.04033 0.0
H1637 H 0.17527 0.68522 0.00826 0.0
C1638 C 0.12455 0.68103 0.02793 0.0
C1639 C 0.15789 0.68707 0.0331 0.0
C1640 C 0.17451 0.6909 0.04581 0.0
C1641 C 0.12777 0.67778 0.00867 0.0
C1642 C 0.14635 0.67907 0.00156 0.0
C1643 C 0.16106 0.68422 0.01377 0.0
C1644 C 0.15118 0.67315 0.98209 0.0
C1645 C 0.11146 0.67177 0.9964 0.0
C1646 C 0.16376 0.65812 0.97936 0.0
C1647 C 0.16832 0.65205 0.96122 0.0
C1648 C 0.16038 0.66084 0.94537 0.0
C1649 C 0.1478 0.67593 0.94808 0.0
C1650 C 0.14335 0.68212 0.96629 0.0
H1651 H 0.0989 0.66778 0.00485 0.0
H1652 H 0.10741 0.68362 0.98704 0.0
H1653 H 0.11547 0.65961 0.98739 0.0
H1654 H 0.16991 0.65092 0.99134 0.0
H1655 H 0.17791 0.6403 0.9596 0.0
H1656 H 0.30627 0.84884 0.05829 0.0
H1657 H 0.30585 0.85915 0.02553 0.0
H1658 H 0.366 0.86741 0.0272 0.0
H1659 H 0.3665 0.85697 0.06035 0.0
H1660 H 0.34338 0.89674 0.00719 0.0
H1661 H 0.32773 0.82344 0.98425 0.0
H1662 H 0.31236 0.83267 0.00214 0.0
H1663 H 0.33684 0.82891 0.00737 0.0
C1664 C 0.31944 0.85284 0.05172 0.0
C1665 C 0.33651 0.85169 0.06172 0.0
C1666 C 0.31914 0.85881 0.03303 0.0
C1667 C 0.33592 0.86367 0.02387 0.0
C1668 C 0.35291 0.86359 0.03405 0.0
H1669 H 0.36876 0.88684 0.9103 0.0
H1670 H 0.36509 0.88674 0.9444 0.0
C1671 C 0.3532 0.85766 0.05291 0.0
C1672 C 0.33566 0.86765 0.00339 0.0
H1673 H 0.32678 0.847 0.96086 0.0
C1674 C 0.3398 0.8859 0.99702 0.0
C1675 C 0.33082 0.85348 0.99022 0.0
C1676 C 0.32683 0.83347 0.99625 0.0
C1677 C 0.3391 0.89038 0.97772 0.0
C1678 C 0.33444 0.87613 0.96453 0.0
C1679 C 0.33013 0.85795 0.97099 0.0
C1680 C 0.33557 0.87915 0.94387 0.0
C1681 C 0.34317 0.91034 0.97167 0.0
C1682 C 0.32015 0.87498 0.93213 0.0
C1683 C 0.32224 0.87493 0.91249 0.0
C1684 C 0.33986 0.87879 0.90437 0.0
C1685 C 0.35499 0.88378 0.91614 0.0
C1686 C 0.35289 0.8839 0.93568 0.0
H1687 H 0.34034 0.92052 0.98323 0.0
H1688 H 0.35827 0.91155 0.96783 0.0
H1689 H 0.3346 0.91435 0.95921 0.0
H1690 H 0.30669 0.87112 0.9382 0.0
H1691 H 0.31038 0.87092 0.90375 0.0
H1692 H 0.13461 0.31431 0.90674 0.0
H1693 H 0.13409 0.31612 0.9413 0.0
H1694 H 0.11064 0.37214 0.93807 0.0
H1695 H 0.11161 0.37057 0.90375 0.0
H1696 H 0.14166 0.3716 0.95901 0.0
H1697 H 0.09442 0.31404 0.98231 0.0
H1698 H 0.11242 0.30607 0.96643 0.0
H1699 H 0.09487 0.32247 0.9583 0.0
C1700 C 0.1289 0.32677 0.91346 0.0
C1701 C 0.12326 0.34233 0.90263 0.0
C1702 C 0.12853 0.32779 0.9332 0.0
C1703 C 0.12221 0.34425 0.9423 0.0
C1704 C 0.11559 0.35932 0.93139 0.0
H1705 H 0.12108 0.35513 0.0663 0.0
H1706 H 0.11068 0.3567 0.03321 0.0
C1707 C 0.11616 0.3584 0.91177 0.0
C1708 C 0.1246 0.34676 0.96294 0.0
H1709 H 0.11522 0.32693 0.00578 0.0
C1710 C 0.13563 0.36196 0.96923 0.0
C1711 C 0.11658 0.33435 0.97632 0.0
C1712 C 0.10375 0.31843 0.97053 0.0
C1713 C 0.13949 0.36464 0.98841 0.0
C1714 C 0.13242 0.3516 0.00167 0.0
C1715 C 0.12072 0.33686 0.99554 0.0
C1716 C 0.1385 0.35205 0.02163 0.0
C1717 C 0.15136 0.38128 0.9943 0.0
C1718 C 0.15753 0.34908 0.02599 0.0
C1719 C 0.16342 0.34824 0.04469 0.0
C1720 C 0.15042 0.35028 0.05947 0.0
C1721 C 0.13141 0.35378 0.05516 0.0
C1722 C 0.12545 0.3545 0.03633 0.0
H1723 H 0.15083 0.39276 0.98366 0.0
H1724 H 0.14667 0.38699 0.0081 0.0
H1725 H 0.16625 0.37672 0.9957 0.0
H1726 H 0.16778 0.34691 0.01489 0.0
H1727 H 0.17814 0.34557 0.04766 0.0
H1728 H 0.65012 0.18591 0.04322 0.0
H1729 H 0.65865 0.17774 0.01084 0.0
H1730 H 0.66387 0.11934 0.02675 0.0
H1731 H 0.65533 0.12741 0.05923 0.0
H1732 H 0.6926 0.13236 0.00112 0.0
H1733 H 0.62018 0.15 0.97732 0.0
H1734 H 0.63191 0.16869 0.98972 0.0
H1735 H 0.62617 0.14722 0.00186 0.0
C1736 C 0.65309 0.17133 0.03984 0.0
C1737 C 0.65179 0.15728 0.05374 0.0
C1738 C 0.65804 0.1667 0.02136 0.0
C1739 C 0.66161 0.1479 0.01636 0.0
C1740 C 0.66115 0.13393 0.03034 0.0
H1741 H 0.64727 0.10662 0.90351 0.0
H1742 H 0.64875 0.10917 0.93779 0.0
C1743 C 0.65629 0.13857 0.04889 0.0
C1744 C 0.66449 0.1427 0.99633 0.0
H1745 H 0.64249 0.1431 0.95363 0.0
C1746 C 0.68167 0.13463 0.9907 0.0
C1747 C 0.65008 0.14546 0.98285 0.0
C1748 C 0.63098 0.15315 0.98821 0.0
C1749 C 0.6849 0.12951 0.97179 0.0
C1750 C 0.67063 0.13273 0.95826 0.0
C1751 C 0.65344 0.14066 0.96401 0.0
C1752 C 0.6728 0.12792 0.93801 0.0
C1753 C 0.70337 0.12044 0.96653 0.0
C1754 C 0.68639 0.13693 0.92674 0.0
C1755 C 0.68574 0.13521 0.90706 0.0
C1756 C 0.67129 0.12475 0.89848 0.0
C1757 C 0.65853 0.11479 0.90982 0.0
C1758 C 0.65934 0.11627 0.92939 0.0
H1759 H 0.71071 0.11457 0.97904 0.0
H1760 H 0.70121 0.10898 0.95609 0.0
H1761 H 0.7127 0.1312 0.96005 0.0
H1762 H 0.69668 0.14627 0.93304 0.0
H1763 H 0.69554 0.14325 0.89856 0.0
H1764 H 0.88961 0.65026 0.9054 0.0
H1765 H 0.88546 0.65447 0.9392 0.0
H1766 H 0.85953 0.70859 0.92953 0.0
H1767 H 0.86342 0.7043 0.89535 0.0
H1768 H 0.89592 0.68189 0.96589 0.0
H1769 H 0.81814 0.67762 0.95593 0.0
H1770 H 0.83444 0.67188 0.93729 0.0
H1771 H 0.83037 0.69605 0.94359 0.0
C1772 C 0.88329 0.66322 0.91044 0.0
C1773 C 0.87662 0.67685 0.89773 0.0
C1774 C 0.881 0.66564 0.92979 0.0
C1775 C 0.87192 0.68169 0.93687 0.0
C1776 C 0.86633 0.69596 0.92432 0.0
H1777 H 0.85488 0.68204 0.06077 0.0
H1778 H 0.86333 0.69379 0.02939 0.0
C1779 C 0.86868 0.69356 0.90483 0.0
C1780 C 0.86689 0.68225 0.95715 0.0
H1781 H 0.8295 0.67618 0.98681 0.0
C1782 C 0.8814 0.68106 0.97056 0.0
C1783 C 0.84792 0.68095 0.96313 0.0
C1784 C 0.83176 0.68156 0.9493 0.0
C1785 C 0.87746 0.67767 0.98967 0.0
C1786 C 0.85852 0.67564 0.99549 0.0
C1787 C 0.844 0.67781 0.98226 0.0
C1788 C 0.85352 0.66897 0.01464 0.0
C1789 C 0.89359 0.67512 0.00328 0.0
C1790 C 0.84506 0.65124 0.01671 0.0
C1791 C 0.84027 0.64449 0.03453 0.0
C1792 C 0.84375 0.65536 0.05075 0.0
C1793 C 0.85223 0.67319 0.04864 0.0
C1794 C 0.85703 0.67995 0.03072 0.0
H1795 H 0.90744 0.67455 0.996 0.0
H1796 H 0.89383 0.68709 0.01335 0.0
H1797 H 0.89172 0.66196 0.01154 0.0
H1798 H 0.84231 0.64249 0.00449 0.0
H1799 H 0.83407 0.6306 0.03559 0.0
H1800 H 0.94442 0.35357 0.14836 0.0
H1801 H 0.97804 0.35613 0.14002 0.0
H1802 H 0.98077 0.29587 0.13255 0.0
H1803 H 0.94745 0.2933 0.14086 0.0
H1804 H 0.00716 0.33523 0.16162 0.0
H1805 H 0.00767 0.31885 0.08498 0.0
H1806 H 0.98705 0.32777 0.097 0.0
H1807 H 0.99371 0.3035 0.09955 0.0
C1808 C 0.95218 0.34099 0.14455 0.0
C1809 C 0.94346 0.32325 0.14539 0.0
C1810 C 0.97131 0.34243 0.13987 0.0
C1811 C 0.9818 0.32618 0.13559 0.0
C1812 C 0.97288 0.30858 0.13563 0.0
H1813 H 0.10313 0.30802 0.14338 0.0
H1814 H 0.06878 0.3032 0.14349 0.0
C1815 C 0.9539 0.30712 0.14051 0.0
C1816 C 0.00243 0.32724 0.13274 0.0
H1817 H 0.03733 0.31947 0.10049 0.0
C1818 C 0.01377 0.33187 0.14825 0.0
C1819 C 0.01094 0.32275 0.1153 0.0
C1820 C 0.99927 0.31806 0.09817 0.0
C1821 C 0.03349 0.33194 0.14682 0.0
C1822 C 0.04202 0.32718 0.12945 0.0
C1823 C 0.03069 0.32281 0.11385 0.0
C1824 C 0.0627 0.32814 0.12704 0.0
C1825 C 0.0451 0.33736 0.16379 0.0
C1826 C 0.07053 0.34332 0.11719 0.0
C1827 C 0.08998 0.34613 0.1172 0.0
C1828 C 0.10194 0.33367 0.12689 0.0
C1829 C 0.09421 0.31774 0.1357 0.0
C1830 C 0.07464 0.31505 0.13587 0.0
H1831 H 0.03629 0.34311 0.1754 0.0
H1832 H 0.05266 0.32475 0.16912 0.0
H1833 H 0.05583 0.34805 0.15987 0.0
H1834 H 0.06153 0.35354 0.11028 0.0
H1835 H 0.0956 0.3585 0.11023 0.0
H1836 H 0.95333 0.69885 0.8579 0.0
H1837 H 0.98629 0.69578 0.86712 0.0
H1838 H 0.98144 0.63524 0.86487 0.0
H1839 H 0.94815 0.63827 0.85545 0.0
H1840 H 0.0037 0.65257 0.89738 0.0
H1841 H 0.02482 0.67686 0.82594 0.0
H1842 H 0.00779 0.69137 0.83784 0.0
H1843 H 0.0016 0.66779 0.83101 0.0
C1844 C 0.95923 0.68486 0.85943 0.0
C1845 C 0.94831 0.66878 0.85557 0.0
C1846 C 0.97803 0.68315 0.86479 0.0
C1847 C 0.98633 0.66532 0.86635 0.0
C1848 C 0.97524 0.64914 0.86364 0.0
H1849 H 0.1007 0.62761 0.88263 0.0
H1850 H 0.06652 0.63081 0.8826 0.0
C1851 C 0.95628 0.65086 0.85831 0.0
C1852 C 0.00689 0.66386 0.86943 0.0
H1853 H 0.04903 0.67372 0.84851 0.0
C1854 C 0.01367 0.65709 0.88671 0.0
C1855 C 0.01977 0.6699 0.85549 0.0
C1856 C 0.01321 0.67676 0.83645 0.0
C1857 C 0.0331 0.65649 0.89052 0.0
C1858 C 0.04599 0.66254 0.87655 0.0
C1859 C 0.03914 0.66927 0.85928 0.0
C1860 C 0.06669 0.66108 0.87897 0.0
C1861 C 0.03965 0.64971 0.90957 0.0
C1862 C 0.07822 0.67706 0.87688 0.0
C1863 C 0.09786 0.67527 0.87677 0.0
C1864 C 0.10625 0.65743 0.87855 0.0
C1865 C 0.09467 0.64157 0.88125 0.0
C1866 C 0.07509 0.64338 0.8814 0.0
H1867 H 0.02836 0.651 0.92033 0.0
H1868 H 0.0436 0.63461 0.90855 0.0
H1869 H 0.05217 0.65774 0.91443 0.0
H1870 H 0.07199 0.69085 0.87483 0.0
H1871 H 0.10642 0.68771 0.87457 0.0
H1872 H 0.31392 0.09906 0.85903 0.0
H1873 H 0.31379 0.06451 0.85983 0.0
H1874 H 0.36048 0.06531 0.89883 0.0
H1875 H 0.36125 0.09969 0.89714 0.0
H1876 H 0.3689 0.04441 0.87086 0.0
H1877 H 0.29771 0.02308 0.89386 0.0
H1878 H 0.29647 0.03881 0.87416 0.0
H1879 H 0.30609 0.04699 0.8962 0.0
C1880 C 0.32373 0.09179 0.86819 0.0
C1881 C 0.3376 0.10189 0.87801 0.0
C1882 C 0.32362 0.07205 0.86873 0.0
C1883 C 0.33705 0.06222 0.87952 0.0
C1884 C 0.35002 0.07251 0.89037 0.0
H1885 H 0.34007 0.93825 0.88067 0.0
H1886 H 0.33731 0.97112 0.89073 0.0
C1887 C 0.35042 0.09214 0.88945 0.0
C1888 C 0.33938 0.04148 0.8775 0.0
H1889 H 0.31566 0.99958 0.87686 0.0
C1890 C 0.35727 0.03462 0.8725 0.0
C1891 C 0.32434 0.02857 0.87981 0.0
C1892 C 0.30514 0.03474 0.88651 0.0
C1893 C 0.36041 0.01542 0.86913 0.0
C1894 C 0.34509 0.00273 0.8701 0.0
C1895 C 0.32734 0.00938 0.87584 0.0
C1896 C 0.34707 0.98274 0.86429 0.0
C1897 C 0.38016 0.00898 0.86457 0.0
C1898 C 0.35339 0.97835 0.84609 0.0
C1899 C 0.35531 0.95962 0.84041 0.0
C1900 C 0.35059 0.94478 0.85268 0.0
C1901 C 0.34413 0.94923 0.87092 0.0
C1902 C 0.34235 0.96804 0.87665 0.0
H1903 H 0.39085 0.0187 0.87063 0.0
H1904 H 0.38288 0.99456 0.86998 0.0
H1905 H 0.3821 0.0089 0.84905 0.0
H1906 H 0.35674 0.98944 0.83616 0.0
H1907 H 0.3605 0.95684 0.82636 0.0
H1908 H 0.90881 0.36507 0.88257 0.0
H1909 H 0.94255 0.35935 0.88141 0.0
H1910 H 0.93248 0.29976 0.87467 0.0
H1911 H 0.89831 0.30548 0.87542 0.0
H1912 H 0.9675 0.33778 0.90187 0.0
H1913 H 0.96247 0.31332 0.82741 0.0
H1914 H 0.94294 0.32432 0.83938 0.0
H1915 H 0.9491 0.30032 0.84453 0.0
C1916 C 0.9137 0.35068 0.88104 0.0
C1917 C 0.9009 0.33574 0.87883 0.0
C1918 C 0.93304 0.34743 0.88046 0.0
C1919 C 0.94004 0.32918 0.87764 0.0
C1920 C 0.92735 0.31401 0.87652 0.0
H1921 H 0.06442 0.32082 0.87278 0.0
H1922 H 0.03188 0.31449 0.88242 0.0
C1923 C 0.90786 0.31727 0.87708 0.0
C1924 C 0.96055 0.3267 0.87449 0.0
H1925 H 0.99267 0.31784 0.83979 0.0
C1926 C 0.97308 0.3331 0.88842 0.0
C1927 C 0.96773 0.3208 0.85684 0.0
C1928 C 0.95493 0.31441 0.84108 0.0
C1929 C 0.99249 0.33462 0.88488 0.0
C1930 C 0.99957 0.32922 0.86704 0.0
C1931 C 0.98717 0.32195 0.85345 0.0
C1932 C 0.01939 0.33276 0.86145 0.0
C1933 C 0.00506 0.34302 0.89984 0.0
C1934 C 0.02316 0.34488 0.8463 0.0
C1935 C 0.04167 0.34844 0.84072 0.0
C1936 C 0.05685 0.33995 0.85018 0.0
C1937 C 0.05306 0.32781 0.8654 0.0
C1938 C 0.03448 0.32417 0.87092 0.0
H1939 H 0.99684 0.34983 0.9113 0.0
H1940 H 0.01377 0.3317 0.90619 0.0
H1941 H 0.01472 0.35365 0.89364 0.0
H1942 H 0.01174 0.35172 0.83883 0.0
H1943 H 0.04411 0.358 0.8291 0.0
H1944 H 0.6569 0.05988 0.87434 0.0
H1945 H 0.66142 0.02664 0.88264 0.0
H1946 H 0.68296 0.0156 0.82687 0.0
H1947 H 0.67829 0.04864 0.81851 0.0
H1948 H 0.65514 0.9918 0.83618 0.0
H1949 H 0.70732 0.9944 0.89427 0.0
H1950 H 0.68721 0.00928 0.89809 0.0
H1951 H 0.70298 0.01419 0.87887 0.0
C1952 C 0.66292 0.05042 0.864 0.0
C1953 C 0.66707 0.05683 0.84572 0.0
C1954 C 0.66559 0.03145 0.86878 0.0
C1955 C 0.67272 0.01865 0.85544 0.0
C1956 C 0.67745 0.02521 0.8374 0.0
H1957 H 0.69604 0.89769 0.86607 0.0
H1958 H 0.70022 0.93203 0.86351 0.0
C1959 C 0.67466 0.04407 0.83259 0.0
C1960 C 0.6735 0.99813 0.85951 0.0
H1961 H 0.69125 0.96503 0.88973 0.0
C1962 C 0.66318 0.98598 0.8478 0.0
C1963 C 0.68411 0.99049 0.87459 0.0
C1964 C 0.69619 0.00273 0.88708 0.0
C1965 C 0.66281 0.9665 0.85097 0.0
C1966 C 0.67277 0.95894 0.86647 0.0
C1967 C 0.68351 0.97094 0.87795 0.0
C1968 C 0.67144 0.93863 0.87108 0.0
C1969 C 0.65168 0.95412 0.8377 0.0
C1970 C 0.65413 0.93114 0.87687 0.0
C1971 C 0.6517 0.91169 0.87825 0.0
C1972 C 0.6666 0.89935 0.87399 0.0
C1973 C 0.68434 0.90689 0.86946 0.0
C1974 C 0.68674 0.92646 0.86798 0.0
H1975 H 0.64855 0.96138 0.82419 0.0
H1976 H 0.65943 0.94088 0.8346 0.0
H1977 H 0.63809 0.95031 0.84442 0.0
H1978 H 0.64223 0.94033 0.87951 0.0
H1979 H 0.63791 0.90631 0.88195 0.0
H1980 H 0.05307 0.64193 0.14873 0.0
H1981 H 0.01982 0.63638 0.14045 0.0
H1982 H 0.01642 0.69223 0.11676 0.0
H1983 H 0.04941 0.69776 0.12496 0.0
H1984 H 0.98989 0.66124 0.15485 0.0
H1985 H 0.99109 0.65702 0.07665 0.0
H1986 H 0.01161 0.65234 0.091 0.0
H1987 H 0.00424 0.67618 0.08681 0.0
C1988 C 0.04528 0.65279 0.14138 0.0
C1989 C 0.05369 0.67029 0.13759 0.0
C1990 C 0.02635 0.64967 0.13674 0.0
C1991 C 0.01575 0.66388 0.1279 0.0
C1992 C 0.02441 0.68103 0.12338 0.0
H1993 H 0.89488 0.68383 0.12709 0.0
H1994 H 0.92932 0.68762 0.12758 0.0
C1995 C 0.04319 0.68421 0.1282 0.0
C1996 C 0.99524 0.66164 0.125 0.0
H1997 H 0.96104 0.66048 0.09114 0.0
C1998 C 0.98357 0.66095 0.14094 0.0
C1999 C 0.9871 0.66134 0.10682 0.0
C2000 C 0.99912 0.66161 0.08929 0.0
C2001 C 0.9639 0.66028 0.13917 0.0
C2002 C 0.95574 0.66039 0.121 0.0
C2003 C 0.9674 0.6607 0.10503 0.0
C2004 C 0.93512 0.65909 0.11847 0.0
C2005 C 0.95192 0.65934 0.15671 0.0
C2006 C 0.92712 0.64201 0.11266 0.0
C2007 C 0.9076 0.63979 0.11248 0.0
C2008 C 0.89571 0.65469 0.11793 0.0
C2009 C 0.90371 0.67215 0.12275 0.0
C2010 C 0.92333 0.6743 0.12311 0.0
H2011 H 0.96046 0.65675 0.16957 0.0
H2012 H 0.94428 0.67287 0.1585 0.0
H2013 H 0.94124 0.64797 0.15538 0.0
H2014 H 0.93602 0.63014 0.10901 0.0
H2015 H 0.90182 0.6262 0.10861 0.0
H2016 H 0.29414 0.05358 0.13203 0.0
H2017 H 0.29619 0.0199 0.125 0.0
H2018 H 0.35499 0.02027 0.14027 0.0
H2019 H 0.35292 0.05423 0.14739 0.0
H2020 H 0.32139 0.99765 0.10063 0.0
H2021 H 0.3277 0.98249 0.17736 0.0
H2022 H 0.31966 0.00496 0.16852 0.0
H2023 H 0.34423 0.99909 0.16767 0.0
C2024 C 0.30756 0.04652 0.13364 0.0
C2025 C 0.32333 0.05637 0.14046 0.0
C2026 C 0.30873 0.02733 0.12955 0.0
C2027 C 0.32565 0.01759 0.13238 0.0
C2028 C 0.34175 0.02757 0.13817 0.0
H2029 H 0.35482 0.90235 0.11001 0.0
H2030 H 0.3505 0.93643 0.10872 0.0
C2031 C 0.34062 0.04691 0.1421 0.0
C2032 C 0.32585 0.9968 0.13063 0.0
H2033 H 0.32828 0.95646 0.15671 0.0
C2034 C 0.32296 0.98861 0.11285 0.0
C2035 C 0.32747 0.98512 0.14668 0.0
C2036 C 0.3298 0.99326 0.16619 0.0
C2037 C 0.32205 0.96894 0.11067 0.0
C2038 C 0.32409 0.95725 0.12668 0.0
C2039 C 0.32665 0.96548 0.14448 0.0
C2040 C 0.32489 0.93644 0.12522 0.0
C2041 C 0.31877 0.96079 0.09131 0.0
C2042 C 0.31175 0.92508 0.13475 0.0
C2043 C 0.31413 0.90548 0.13543 0.0
C2044 C 0.32989 0.8971 0.12689 0.0
C2045 C 0.34254 0.90846 0.11673 0.0
C2046 C 0.34006 0.92793 0.11589 0.0
H2047 H 0.31264 0.97138 0.08154 0.0
H2048 H 0.33242 0.95604 0.08535 0.0
H2049 H 0.30922 0.94841 0.09199 0.0
H2050 H 0.30002 0.93145 0.14215 0.0
H2051 H 0.3043 0.89705 0.14351 0.0
H2052 H 0.62341 0.09524 0.11771 0.0
H2053 H 0.62901 0.06132 0.11735 0.0
H2054 H 0.68894 0.07105 0.1197 0.0
H2055 H 0.68343 0.1052 0.12037 0.0
H2056 H 0.6499 0.03662 0.09422 0.0
H2057 H 0.67788 0.04005 0.16735 0.0
H2058 H 0.6657 0.05954 0.1565 0.0
H2059 H 0.68985 0.05474 0.15058 0.0
C2060 C 0.63782 0.09021 0.11792 0.0
C2061 C 0.65299 0.10289 0.11931 0.0
C2062 C 0.64098 0.0708 0.11765 0.0
C2063 C 0.65935 0.06368 0.11882 0.0
C2064 C 0.67462 0.07629 0.11911 0.0
H2065 H 0.70082 0.95153 0.14173 0.0
H2066 H 0.69754 0.98433 0.13202 0.0
C2067 C 0.67146 0.09578 0.1194 0.0
C2068 C 0.66227 0.04314 0.12116 0.0
H2069 H 0.67755 0.01029 0.15274 0.0
C2070 C 0.65603 0.03082 0.10696 0.0
C2071 C 0.67006 0.03564 0.1379 0.0
C2072 C 0.67612 0.04812 0.15405 0.0
C2073 C 0.6576 0.01117 0.10898 0.0
C2074 C 0.66536 0.00371 0.12574 0.0
C2075 C 0.67166 0.01605 0.13987 0.0
C2076 C 0.66723 0.98318 0.12914 0.0
C2077 C 0.65118 0.99856 0.0931 0.0
C2078 C 0.65127 0.9715 0.13041 0.0
C2079 C 0.65313 0.95264 0.13599 0.0
C2080 C 0.67092 0.94532 0.14064 0.0
C2081 C 0.68688 0.95688 0.13861 0.0
C2082 C 0.68505 0.9756 0.13296 0.0
H2083 H 0.65005 0.00638 0.07959 0.0
H2084 H 0.66102 0.98655 0.09117 0.0
H2085 H 0.63708 0.99277 0.09654 0.0
H2086 H 0.63734 0.97716 0.12785 0.0
H2087 H 0.64062 0.94404 0.13754 0.0
H2088 H 0.11186 0.20013 0.30707 0.0
H2089 H 0.11037 0.22655 0.28491 0.0
H2090 H 0.16621 0.24378 0.30153 0.0
H2091 H 0.16801 0.21728 0.32335 0.0
H2092 H 0.11355 0.26538 0.28979 0.0
H2093 H 0.17129 0.23791 0.24475 0.0
H2094 H 0.16015 0.22382 0.26272 0.0
H2095 H 0.1778 0.24089 0.269 0.0
C2096 C 0.12381 0.20956 0.30604 0.0
C2097 C 0.14013 0.20646 0.31685 0.0
C2098 C 0.12292 0.22468 0.2934 0.0
C2099 C 0.13831 0.23694 0.29134 0.0
C2100 C 0.15434 0.23425 0.30259 0.0
H2101 H 0.13936 0.34387 0.22913 0.0
H2102 H 0.13854 0.32019 0.25438 0.0
C2103 C 0.1553 0.21911 0.31512 0.0
C2104 C 0.1378 0.25226 0.27712 0.0
H2105 H 0.1601 0.26854 0.23776 0.0
C2106 C 0.1237 0.26609 0.27839 0.0
C2107 C 0.15094 0.25302 0.26215 0.0
C2108 C 0.16579 0.23803 0.25941 0.0
C2109 C 0.12247 0.28076 0.26512 0.0
C2110 C 0.13587 0.28173 0.2504 0.0
C2111 C 0.14992 0.26786 0.24915 0.0
C2112 C 0.13517 0.29642 0.23551 0.0
C2113 C 0.10656 0.29477 0.2667 0.0
C2114 C 0.13369 0.29094 0.21658 0.0
C2115 C 0.13433 0.30436 0.20224 0.0
C2116 C 0.1365 0.32359 0.20649 0.0
C2117 C 0.13753 0.32917 0.22548 0.0
C2118 C 0.13701 0.31566 0.23989 0.0
H2119 H 0.09501 0.28945 0.27583 0.0
H2120 H 0.11198 0.30802 0.273 0.0
H2121 H 0.10067 0.29814 0.2526 0.0
H2122 H 0.13219 0.2762 0.21287 0.0
H2123 H 0.13315 0.29964 0.18778 0.0
H2124 H 0.6538 0.13431 0.22144 0.0
H2125 H 0.67743 0.13272 0.24639 0.0
H2126 H 0.7209 0.14669 0.20641 0.0
H2127 H 0.69761 0.14776 0.18121 0.0
H2128 H 0.71183 0.10799 0.24469 0.0
H2129 H 0.72711 0.18454 0.25247 0.0
H2130 H 0.70529 0.17588 0.2426 0.0
H2131 H 0.7265 0.17521 0.22888 0.0
C2132 C 0.66836 0.13694 0.21783 0.0
C2133 C 0.67367 0.14112 0.19916 0.0
C2134 C 0.68183 0.13616 0.23218 0.0
C2135 C 0.70083 0.13978 0.22823 0.0
C2136 C 0.70623 0.14414 0.20976 0.0
H2137 H 0.80462 0.13982 0.29225 0.0
H2138 H 0.77958 0.14464 0.26906 0.0
C2139 C 0.69282 0.14478 0.19535 0.0
C2140 C 0.71517 0.13808 0.24326 0.0
H2141 H 0.74629 0.16347 0.26973 0.0
C2142 C 0.71932 0.1201 0.25028 0.0
C2143 C 0.72496 0.15391 0.25031 0.0
C2144 C 0.72074 0.17354 0.24332 0.0
C2145 C 0.73332 0.11744 0.26398 0.0
C2146 C 0.74302 0.13332 0.27126 0.0
C2147 C 0.7388 0.15133 0.26422 0.0
C2148 C 0.75785 0.13142 0.28588 0.0
C2149 C 0.73799 0.09759 0.27005 0.0
C2150 C 0.75384 0.12288 0.30326 0.0
C2151 C 0.76816 0.11992 0.31646 0.0
C2152 C 0.7867 0.12575 0.31265 0.0
C2153 C 0.7905 0.13511 0.2956 0.0
C2154 C 0.7762 0.13789 0.28233 0.0
H2155 H 0.73329 0.08704 0.25946 0.0
H2156 H 0.75337 0.09585 0.27232 0.0
H2157 H 0.73064 0.09446 0.28349 0.0
H2158 H 0.73967 0.11827 0.30654 0.0
H2159 H 0.76472 0.11289 0.32955 0.0
H2160 H 0.87046 0.75996 0.33318 0.0
H2161 H 0.86588 0.73576 0.30908 0.0
H2162 H 0.85076 0.77859 0.26873 0.0
H2163 H 0.85486 0.80289 0.29287 0.0
H2164 H 0.82829 0.74704 0.26597 0.0
H2165 H 0.90381 0.72678 0.26727 0.0
H2166 H 0.89243 0.72502 0.28978 0.0
H2167 H 0.89509 0.74771 0.27879 0.0
C2168 C 0.86602 0.76424 0.31922 0.0
C2169 C 0.86326 0.78338 0.31489 0.0
C2170 C 0.86352 0.75039 0.30543 0.0
C2171 C 0.85845 0.75542 0.28699 0.0
C2172 C 0.85484 0.77442 0.28284 0.0
H2173 H 0.85021 0.69824 0.17954 0.0
H2174 H 0.84973 0.72089 0.20539 0.0
C2175 C 0.8572 0.78829 0.29666 0.0
C2176 C 0.85741 0.74095 0.27191 0.0
H2177 H 0.88356 0.70785 0.24866 0.0
C2178 C 0.84037 0.73849 0.26216 0.0
C2179 C 0.87324 0.72986 0.26689 0.0
C2180 C 0.89223 0.73256 0.27609 0.0
C2181 C 0.83867 0.72506 0.24769 0.0
C2182 C 0.85446 0.71394 0.24279 0.0
C2183 C 0.87145 0.71634 0.25257 0.0
C2184 C 0.85383 0.70004 0.22722 0.0
C2185 C 0.81995 0.72268 0.23791 0.0
C2186 C 0.85653 0.68082 0.2309 0.0
C2187 C 0.8567 0.66774 0.21614 0.0
C2188 C 0.85437 0.67367 0.19735 0.0
C2189 C 0.8517 0.69302 0.19378 0.0
C2190 C 0.85144 0.70605 0.20856 0.0
H2191 H 0.80825 0.72911 0.24609 0.0
H2192 H 0.82053 0.72967 0.22394 0.0
H2193 H 0.81678 0.70753 0.23558 0.0
H2194 H 0.85848 0.67592 0.24523 0.0
H2195 H 0.85856 0.653 0.21952 0.0
H2196 H 0.32987 0.89035 0.21717 0.0
H2197 H 0.30703 0.89145 0.24321 0.0
H2198 H 0.29159 0.83374 0.23206 0.0
H2199 H 0.31432 0.83256 0.20617 0.0
H2200 H 0.26632 0.88307 0.23813 0.0
H2201 H 0.30132 0.83657 0.2904 0.0
H2202 H 0.31407 0.84837 0.27177 0.0
H2203 H 0.30056 0.82757 0.26672 0.0
C2204 C 0.32184 0.87782 0.22053 0.0
C2205 C 0.32384 0.86137 0.20964 0.0
C2206 C 0.30876 0.8785 0.2353 0.0
C2207 C 0.29776 0.86263 0.23962 0.0
C2208 C 0.3001 0.84607 0.22908 0.0
H2209 H 0.20654 0.82693 0.30947 0.0
H2210 H 0.23368 0.83067 0.2887 0.0
C2211 C 0.31298 0.84545 0.21423 0.0
C2212 C 0.28294 0.86355 0.25428 0.0
H2213 H 0.26894 0.84347 0.29566 0.0
C2214 C 0.26695 0.87465 0.25087 0.0
C2215 C 0.28382 0.85244 0.27077 0.0
C2216 C 0.30092 0.84065 0.27529 0.0
C2217 C 0.25139 0.87428 0.26312 0.0
C2218 C 0.2521 0.86286 0.27947 0.0
C2219 C 0.26838 0.85221 0.28313 0.0
C2220 C 0.23574 0.86089 0.2924 0.0
C2221 C 0.23403 0.88541 0.25793 0.0
C2222 C 0.22795 0.87661 0.30159 0.0
C2223 C 0.21226 0.87454 0.31337 0.0
C2224 C 0.20425 0.85665 0.3164 0.0
C2225 C 0.21234 0.84091 0.30747 0.0
C2226 C 0.22789 0.84302 0.2956 0.0
H2227 H 0.23403 0.88949 0.24281 0.0
H2228 H 0.22103 0.87721 0.26086 0.0
H2229 H 0.23357 0.89852 0.26645 0.0
H2230 H 0.23404 0.89047 0.29971 0.0
H2231 H 0.2065 0.88693 0.32017 0.0
H2232 H 0.11947 0.77356 0.67248 0.0
H2233 H 0.12131 0.74795 0.69538 0.0
H2234 H 0.15405 0.78322 0.73249 0.0
H2235 H 0.15245 0.80897 0.70958 0.0
H2236 H 0.16742 0.74537 0.72908 0.0
H2237 H 0.09087 0.7487 0.74509 0.0
H2238 H 0.0965 0.74609 0.72054 0.0
H2239 H 0.10312 0.76727 0.73276 0.0
C2240 C 0.1272 0.77587 0.68544 0.0
C2241 C 0.13564 0.7934 0.68929 0.0
C2242 C 0.12814 0.76123 0.69854 0.0
C2243 C 0.13748 0.76384 0.71575 0.0
C2244 C 0.14664 0.781 0.71932 0.0
H2245 H 0.12791 0.69887 0.81847 0.0
H2246 H 0.12693 0.72307 0.79394 0.0
C2247 C 0.1457 0.79569 0.70622 0.0
C2248 C 0.13732 0.7488 0.7302 0.0
H2249 H 0.10801 0.72354 0.75881 0.0
C2250 C 0.15445 0.74057 0.7356 0.0
C2251 C 0.12038 0.74278 0.73882 0.0
C2252 C 0.10167 0.75175 0.73417 0.0
C2253 C 0.15508 0.72626 0.74924 0.0
C2254 C 0.13808 0.71991 0.75749 0.0
C2255 C 0.12098 0.72832 0.75228 0.0
C2256 C 0.13784 0.70492 0.772 0.0
C2257 C 0.17394 0.71831 0.75498 0.0
C2258 C 0.14381 0.68658 0.76764 0.0
C2259 C 0.14443 0.67274 0.78164 0.0
C2260 C 0.13905 0.677 0.80025 0.0
C2261 C 0.13242 0.69522 0.80436 0.0
C2262 C 0.13177 0.70903 0.79035 0.0
H2263 H 0.18576 0.72757 0.75057 0.0
H2264 H 0.17464 0.7163 0.77048 0.0
H2265 H 0.17592 0.70435 0.74819 0.0
H2266 H 0.14825 0.68305 0.75347 0.0
H2267 H 0.14973 0.6589 0.77801 0.0
H2268 H 0.19836 0.11357 0.68776 0.0
H2269 H 0.22493 0.10756 0.70894 0.0
H2270 H 0.23147 0.16733 0.71789 0.0
H2271 H 0.20514 0.17352 0.69667 0.0
H2272 H 0.26567 0.14799 0.71109 0.0
H2273 H 0.22249 0.11352 0.76674 0.0
H2274 H 0.22059 0.10373 0.74344 0.0
H2275 H 0.21212 0.12715 0.74794 0.0
C2276 C 0.20546 0.12545 0.69422 0.0
C2277 C 0.19954 0.14404 0.6906 0.0
C2278 C 0.2206 0.12197 0.70636 0.0
C2279 C 0.23 0.137 0.71513 0.0
C2280 C 0.22436 0.15554 0.71127 0.0
H2281 H 0.29591 0.15139 0.81322 0.0
H2282 H 0.2723 0.14885 0.78853 0.0
C2283 C 0.20927 0.15904 0.69916 0.0
C2284 C 0.24555 0.13359 0.72861 0.0
H2285 H 0.25497 0.11655 0.77259 0.0
C2286 C 0.26343 0.14094 0.72447 0.0
C2287 C 0.24247 0.12449 0.74606 0.0
C2288 C 0.22337 0.11687 0.75147 0.0
C2289 C 0.27824 0.13986 0.73754 0.0
C2290 C 0.27508 0.13099 0.7551 0.0
C2291 C 0.25734 0.12321 0.75904 0.0
C2292 C 0.28937 0.13137 0.7703 0.0
C2293 C 0.29686 0.14898 0.73283 0.0
C2294 C 0.30674 0.12213 0.76836 0.0
C2295 C 0.32034 0.12345 0.7826 0.0
C2296 C 0.31673 0.13396 0.79903 0.0
C2297 C 0.29912 0.14288 0.80098 0.0
C2298 C 0.2856 0.14155 0.7868 0.0
H2299 H 0.29595 0.158 0.72007 0.0
H2300 H 0.30188 0.15772 0.74481 0.0
H2301 H 0.30753 0.13785 0.73019 0.0
H2302 H 0.3098 0.11397 0.75582 0.0
H2303 H 0.33365 0.11624 0.78075 0.0
H2304 H 0.86021 0.33865 0.77785 0.0
H2305 H 0.85819 0.316 0.75199 0.0
H2306 H 0.84952 0.27101 0.79183 0.0
H2307 H 0.85187 0.29343 0.81782 0.0
H2308 H 0.88189 0.28378 0.74697 0.0
H2309 H 0.80639 0.26396 0.75298 0.0
H2310 H 0.8159 0.2851 0.76354 0.0
H2311 H 0.81976 0.2626 0.77445 0.0
C2312 C 0.85796 0.32396 0.78119 0.0
C2313 C 0.85623 0.31796 0.80002 0.0
C2314 C 0.85667 0.31104 0.76635 0.0
C2315 C 0.85345 0.29188 0.76998 0.0
C2316 C 0.85161 0.2858 0.78869 0.0
H2317 H 0.84973 0.19053 0.70171 0.0
H2318 H 0.8469 0.21414 0.7267 0.0
C2319 C 0.85297 0.29869 0.80356 0.0
C2320 C 0.85302 0.27814 0.75424 0.0
H2321 H 0.825 0.24611 0.73168 0.0
C2322 C 0.86943 0.27562 0.74353 0.0
C2323 C 0.83677 0.26743 0.74992 0.0
C2324 C 0.81863 0.26995 0.7607 0.0
C2325 C 0.87017 0.26243 0.7288 0.0
C2326 C 0.85388 0.25181 0.72433 0.0
C2327 C 0.83744 0.25432 0.73506 0.0
C2328 C 0.85382 0.2378 0.70877 0.0
C2329 C 0.88859 0.25962 0.71853 0.0
C2330 C 0.85796 0.24334 0.69024 0.0
C2331 C 0.85971 0.22988 0.67595 0.0
C2332 C 0.85714 0.21063 0.67986 0.0
C2333 C 0.85189 0.20523 0.69821 0.0
C2334 C 0.85027 0.21871 0.71253 0.0
H2335 H 0.90074 0.26494 0.72686 0.0
H2336 H 0.89099 0.24449 0.71529 0.0
H2337 H 0.88822 0.26751 0.70504 0.0
H2338 H 0.86026 0.25806 0.68691 0.0
H2339 H 0.86354 0.23455 0.66193 0.0
H2340 H 0.70719 0.84691 0.81327 0.0
H2341 H 0.73071 0.84777 0.78831 0.0
H2342 H 0.69214 0.87829 0.7527 0.0
H2343 H 0.66848 0.87784 0.77783 0.0
H2344 H 0.71002 0.8456 0.73575 0.0
H2345 H 0.76138 0.894 0.76977 0.0
H2346 H 0.75367 0.87458 0.78407 0.0
H2347 H 0.73709 0.89241 0.77719 0.0
C2348 C 0.70376 0.85419 0.80034 0.0
C2349 C 0.68593 0.86247 0.79767 0.0
C2350 C 0.71724 0.85457 0.78603 0.0
C2351 C 0.71322 0.86326 0.76877 0.0
C2352 C 0.6955 0.87155 0.76598 0.0
H2353 H 0.77269 0.8778 0.66359 0.0
H2354 H 0.74907 0.87479 0.68835 0.0
C2355 C 0.68199 0.87123 0.78033 0.0
C2356 C 0.72735 0.86312 0.75345 0.0
H2357 H 0.77119 0.87893 0.74168 0.0
C2358 C 0.72338 0.85294 0.73697 0.0
C2359 C 0.74478 0.87258 0.75522 0.0
C2360 C 0.74951 0.88415 0.77244 0.0
C2361 C 0.73652 0.85177 0.72224 0.0
C2362 C 0.75391 0.86138 0.72392 0.0
C2363 C 0.75788 0.8715 0.74046 0.0
C2364 C 0.76792 0.86176 0.70845 0.0
C2365 C 0.73182 0.83998 0.70517 0.0
C2366 C 0.78644 0.85557 0.71157 0.0
C2367 C 0.80008 0.85741 0.69746 0.0
C2368 C 0.79544 0.86561 0.68003 0.0
C2369 C 0.77675 0.87136 0.67682 0.0
C2370 C 0.76316 0.86955 0.69093 0.0
H2371 H 0.72088 0.82926 0.70841 0.0
H2372 H 0.72622 0.84926 0.6939 0.0
H2373 H 0.74451 0.83267 0.69965 0.0
H2374 H 0.79042 0.84959 0.72504 0.0
H2375 H 0.81434 0.85284 0.7004 0.0
H2376 H 0.21208 0.1262 0.33633 0.0
H2377 H 0.23723 0.12541 0.31263 0.0
H2378 H 0.20512 0.16297 0.27726 0.0
H2379 H 0.18009 0.16383 0.30078 0.0
H2380 H 0.21844 0.13147 0.25841 0.0
H2381 H 0.27561 0.16638 0.29895 0.0
H2382 H 0.26495 0.14657 0.31055 0.0
H2383 H 0.25121 0.16737 0.30609 0.0
C2384 C 0.21051 0.13441 0.32359 0.0
C2385 C 0.19405 0.14494 0.32036 0.0
C2386 C 0.22489 0.13401 0.3101 0.0
C2387 C 0.2231 0.1443 0.2933 0.0
C2388 C 0.20676 0.15492 0.29013 0.0
H2389 H 0.28845 0.15503 0.18993 0.0
H2390 H 0.26561 0.1595 0.21543 0.0
C2391 C 0.1924 0.15528 0.30353 0.0
C2392 C 0.23779 0.14339 0.27853 0.0
H2393 H 0.28401 0.15307 0.2694 0.0
C2394 C 0.23276 0.13629 0.26077 0.0
C2395 C 0.25643 0.14967 0.2817 0.0
C2396 C 0.2624 0.15809 0.30029 0.0
C2397 C 0.24596 0.13499 0.24614 0.0
C2398 C 0.2646 0.14127 0.24929 0.0
C2399 C 0.26966 0.14836 0.26705 0.0
C2400 C 0.27917 0.13991 0.23446 0.0
C2401 C 0.23997 0.12647 0.22758 0.0
C2402 C 0.29469 0.12799 0.23704 0.0
C2403 C 0.30777 0.12547 0.22258 0.0
C2404 C 0.3056 0.1349 0.20529 0.0
C2405 C 0.29044 0.14746 0.20303 0.0
C2406 C 0.27734 0.14996 0.21753 0.0
H2407 H 0.22655 0.11852 0.22885 0.0
H2408 H 0.23785 0.1379 0.21712 0.0
H2409 H 0.25099 0.11683 0.22204 0.0
H2410 H 0.29638 0.12019 0.25006 0.0
H2411 H 0.31935 0.11579 0.22484 0.0
H2412 H 0.84407 0.28865 0.19315 0.0
H2413 H 0.83943 0.2677 0.22017 0.0
H2414 H 0.87361 0.3043 0.25462 0.0
H2415 H 0.87846 0.32519 0.22777 0.0
H2416 H 0.88528 0.26697 0.25487 0.0
H2417 H 0.80861 0.27241 0.26911 0.0
H2418 H 0.81432 0.26765 0.2449 0.0
H2419 H 0.82128 0.28967 0.25533 0.0
C2420 C 0.85035 0.2924 0.20655 0.0
C2421 C 0.86175 0.30852 0.20827 0.0
C2422 C 0.84759 0.28047 0.22201 0.0
C2423 C 0.85606 0.28455 0.23942 0.0
C2424 C 0.86691 0.30095 0.24131 0.0
H2425 H 0.8457 0.21486 0.34172 0.0
H2426 H 0.84713 0.2425 0.32077 0.0
C2427 C 0.86967 0.31285 0.22592 0.0
C2428 C 0.85517 0.27085 0.25512 0.0
H2429 H 0.82487 0.24661 0.28356 0.0
C2430 C 0.87209 0.2627 0.26131 0.0
C2431 C 0.83797 0.26543 0.26359 0.0
C2432 C 0.81951 0.27436 0.25804 0.0
C2433 C 0.87219 0.24869 0.27522 0.0
C2434 C 0.85494 0.24265 0.28304 0.0
C2435 C 0.83807 0.25129 0.27744 0.0
C2436 C 0.8541 0.22631 0.29588 0.0
C2437 C 0.89071 0.24015 0.28122 0.0
C2438 C 0.85752 0.20823 0.28873 0.0
C2439 C 0.85666 0.19258 0.30054 0.0
C2440 C 0.85239 0.19471 0.31978 0.0
C2441 C 0.84914 0.21288 0.32698 0.0
C2442 C 0.84984 0.2286 0.31506 0.0
H2443 H 0.90288 0.24905 0.27698 0.0
H2444 H 0.89109 0.23813 0.29674 0.0
H2445 H 0.89233 0.22612 0.27449 0.0
H2446 H 0.86079 0.20623 0.27394 0.0
H2447 H 0.85951 0.17881 0.29464 0.0
H2448 H 0.66811 0.87465 0.22594 0.0
H2449 H 0.6896 0.87021 0.25249 0.0
H2450 H 0.73149 0.84731 0.21486 0.0
H2451 H 0.70991 0.85124 0.18829 0.0
H2452 H 0.7293 0.82762 0.2479 0.0
H2453 H 0.73408 0.90443 0.26257 0.0
H2454 H 0.71059 0.89511 0.26339 0.0
H2455 H 0.72331 0.89522 0.24147 0.0
C2456 C 0.68186 0.86855 0.22332 0.0
C2457 C 0.68738 0.86348 0.20496 0.0
C2458 C 0.69416 0.86614 0.23851 0.0
C2459 C 0.71231 0.85886 0.23559 0.0
C2460 C 0.71759 0.85309 0.21741 0.0
H2461 H 0.81725 0.84743 0.29199 0.0
H2462 H 0.79034 0.84808 0.27087 0.0
C2463 C 0.70524 0.85535 0.20223 0.0
C2464 C 0.726 0.8576 0.25135 0.0
H2465 H 0.75054 0.88417 0.28319 0.0
C2466 C 0.73387 0.83997 0.25567 0.0
C2467 C 0.73196 0.87376 0.26149 0.0
C2468 C 0.7247 0.89323 0.25693 0.0
C2469 C 0.7477 0.8381 0.26968 0.0
C2470 C 0.75385 0.85427 0.27955 0.0
C2471 C 0.74565 0.87181 0.27564 0.0
C2472 C 0.76992 0.8535 0.29279 0.0
C2473 C 0.75581 0.81887 0.27374 0.0
C2474 C 0.76737 0.85666 0.31214 0.0
C2475 C 0.7828 0.85606 0.32444 0.0
C2476 C 0.80106 0.85251 0.31754 0.0
C2477 C 0.80346 0.84972 0.29802 0.0
C2478 C 0.78806 0.85016 0.28583 0.0
H2479 H 0.74672 0.80741 0.26815 0.0
H2480 H 0.76986 0.81769 0.26696 0.0
H2481 H 0.7577 0.8168 0.28913 0.0
H2482 H 0.75343 0.8594 0.31772 0.0
H2483 H 0.78036 0.85817 0.33934 0.0
H2484 H 0.0955 0.69079 0.21672 0.0
H2485 H 0.09855 0.71386 0.24207 0.0
H2486 H 0.15646 0.72359 0.22633 0.0
H2487 H 0.15318 0.70114 0.2003 0.0
H2488 H 0.11896 0.71565 0.27224 0.0
H2489 H 0.13804 0.77644 0.22722 0.0
H2490 H 0.13024 0.7543 0.2175 0.0
H2491 H 0.15436 0.75731 0.22483 0.0
C2492 C 0.1089 0.69785 0.21864 0.0
C2493 C 0.12407 0.69426 0.20643 0.0
C2494 C 0.11062 0.71105 0.23316 0.0
C2495 C 0.12762 0.72081 0.23593 0.0
C2496 C 0.14302 0.71674 0.22414 0.0
H2497 H 0.1521 0.78301 0.33955 0.0
H2498 H 0.14913 0.75877 0.31515 0.0
C2499 C 0.14118 0.70378 0.20936 0.0
C2500 C 0.12909 0.7351 0.25125 0.0
H2501 H 0.14099 0.78086 0.26028 0.0
C2502 C 0.1237 0.72994 0.26959 0.0
C2503 C 0.13495 0.75387 0.2478 0.0
C2504 C 0.13953 0.76088 0.22824 0.0
C2505 C 0.12407 0.74294 0.28454 0.0
C2506 C 0.13072 0.76147 0.28125 0.0
C2507 C 0.13605 0.76664 0.26289 0.0
C2508 C 0.13205 0.77586 0.29649 0.0
C2509 C 0.11677 0.73675 0.30354 0.0
C2510 C 0.1239 0.79375 0.294 0.0
C2511 C 0.12599 0.80772 0.30775 0.0
C2512 C 0.13606 0.80402 0.32437 0.0
C2513 C 0.14395 0.78606 0.32703 0.0
C2514 C 0.14219 0.7722 0.31311 0.0
H2515 H 0.10674 0.72481 0.30219 0.0
H2516 H 0.12875 0.73188 0.31232 0.0
H2517 H 0.10957 0.74848 0.311 0.0
H2518 H 0.11604 0.79697 0.28132 0.0
H2519 H 0.11976 0.82145 0.30541 0.0
H2520 H 0.32247 0.82056 0.7952 0.0
H2521 H 0.30004 0.82226 0.76904 0.0
H2522 H 0.28733 0.8799 0.78355 0.0
H2523 H 0.30955 0.87834 0.80977 0.0
H2524 H 0.25548 0.85751 0.77823 0.0
H2525 H 0.30547 0.85026 0.71846 0.0
H2526 H 0.30739 0.83222 0.73611 0.0
H2527 H 0.31302 0.85619 0.74204 0.0
C2528 C 0.31499 0.83364 0.79277 0.0
C2529 C 0.31784 0.84932 0.80458 0.0
C2530 C 0.30226 0.83461 0.77774 0.0
C2531 C 0.29223 0.85129 0.77419 0.0
C2532 C 0.29501 0.86693 0.78598 0.0
H2533 H 0.22036 0.88033 0.67866 0.0
H2534 H 0.24603 0.87892 0.70178 0.0
C2535 C 0.30772 0.86598 0.80098 0.0
C2536 C 0.27816 0.85223 0.75878 0.0
H2537 H 0.27281 0.84877 0.71103 0.0
C2538 C 0.25928 0.85566 0.76353 0.0
C2539 C 0.28319 0.85002 0.73961 0.0
C2540 C 0.30339 0.84713 0.73365 0.0
C2541 C 0.24523 0.85658 0.74967 0.0
C2542 C 0.25016 0.85378 0.73056 0.0
C2543 C 0.26908 0.85074 0.72572 0.0
C2544 C 0.23568 0.85376 0.71552 0.0
C2545 C 0.22521 0.86069 0.75556 0.0
C2546 C 0.22176 0.83976 0.71526 0.0
C2547 C 0.20719 0.84048 0.70208 0.0
C2548 C 0.20624 0.85521 0.68884 0.0
C2549 C 0.2207 0.86877 0.6886 0.0
C2550 C 0.23533 0.86803 0.70183 0.0
H2551 H 0.22451 0.86683 0.76995 0.0
H2552 H 0.21837 0.87057 0.74555 0.0
H2553 H 0.21702 0.84736 0.75557 0.0
H2554 H 0.222 0.82842 0.72547 0.0
H2555 H 0.19655 0.82956 0.70237 0.0
H2556 H 0.11677 0.30876 0.80606 0.0
H2557 H 0.11103 0.28703 0.77988 0.0
H2558 H 0.17082 0.27807 0.77401 0.0
H2559 H 0.17676 0.29989 0.79997 0.0
H2560 H 0.15226 0.28466 0.7397 0.0
H2561 H 0.11634 0.22934 0.78201 0.0
H2562 H 0.10655 0.25263 0.78386 0.0
H2563 H 0.12982 0.2481 0.79268 0.0
C2564 C 0.12872 0.30214 0.79924 0.0
C2565 C 0.14724 0.30602 0.80519 0.0
C2566 C 0.12539 0.28967 0.78432 0.0
C2567 C 0.14049 0.28078 0.77516 0.0
C2568 C 0.15897 0.28477 0.78093 0.0
H2569 H 0.15081 0.18272 0.7069 0.0
H2570 H 0.14958 0.20678 0.73131 0.0
C2571 C 0.16232 0.29722 0.79581 0.0
C2572 C 0.1372 0.26733 0.7595 0.0
H2573 H 0.11879 0.22404 0.74929 0.0
C2574 C 0.14482 0.27146 0.74173 0.0
C2575 C 0.1276 0.25008 0.76228 0.0
C2576 C 0.11971 0.24462 0.78125 0.0
C2577 C 0.14339 0.25865 0.7267 0.0
C2578 C 0.13384 0.24138 0.72949 0.0
C2579 C 0.12594 0.23738 0.74718 0.0
C2580 C 0.13337 0.22656 0.71475 0.0
C2581 C 0.15276 0.26337 0.7082 0.0
C2582 C 0.12436 0.22955 0.6974 0.0
C2583 C 0.12494 0.2157 0.68333 0.0
C2584 C 0.13445 0.19857 0.68644 0.0
C2585 C 0.14306 0.19554 0.70405 0.0
C2586 C 0.14248 0.20935 0.71804 0.0
H2587 H 0.16257 0.27551 0.70952 0.0
H2588 H 0.16073 0.25105 0.70273 0.0
H2589 H 0.14182 0.26708 0.69768 0.0
H2590 H 0.11698 0.24264 0.6947 0.0
H2591 H 0.11798 0.2184 0.67004 0.0
H2592 H 0.69603 0.1204 0.80185 0.0
H2593 H 0.71707 0.11693 0.77477 0.0
H2594 H 0.71004 0.17585 0.76164 0.0
H2595 H 0.68939 0.17959 0.78892 0.0
H2596 H 0.7127 0.12319 0.73657 0.0
H2597 H 0.76678 0.17102 0.76664 0.0
H2598 H 0.74724 0.16225 0.78031 0.0
H2599 H 0.74398 0.18169 0.76437 0.0
C2600 C 0.69893 0.13263 0.79319 0.0
C2601 C 0.69123 0.15034 0.79772 0.0
C2602 C 0.71091 0.13059 0.77768 0.0
C2603 C 0.71539 0.1462 0.7664 0.0
C2604 C 0.70712 0.16371 0.77042 0.0
H2605 H 0.77633 0.14425 0.65893 0.0
H2606 H 0.75122 0.14463 0.68279 0.0
C2607 C 0.69526 0.1658 0.786 0.0
C2608 C 0.72921 0.14429 0.75083 0.0
H2609 H 0.77162 0.16073 0.73531 0.0
C2610 C 0.72561 0.13136 0.73626 0.0
C2611 C 0.74615 0.15479 0.75062 0.0
C2612 C 0.7514 0.16808 0.7664 0.0
C2613 C 0.73847 0.12874 0.72141 0.0
C2614 C 0.75519 0.13959 0.72099 0.0
C2615 C 0.75875 0.15249 0.73558 0.0
C2616 C 0.76966 0.13747 0.70604 0.0
C2617 C 0.73428 0.11406 0.70661 0.0
C2618 C 0.7883 0.13332 0.71114 0.0
C2619 C 0.80257 0.13337 0.69764 0.0
C2620 C 0.79851 0.13749 0.67871 0.0
C2621 C 0.77975 0.14086 0.6734 0.0
C2622 C 0.76543 0.14102 0.68701 0.0
H2623 H 0.72365 0.10369 0.71157 0.0
H2624 H 0.72855 0.1211 0.69388 0.0
H2625 H 0.74726 0.10635 0.70249 0.0
H2626 H 0.7919 0.13047 0.7257 0.0
H2627 H 0.81688 0.13048 0.70204 0.0
H2628 H 0.88757 0.67282 0.77104 0.0
H2629 H 0.8847 0.69628 0.74605 0.0
H2630 H 0.84688 0.72886 0.78066 0.0
H2631 H 0.84966 0.70543 0.80591 0.0
H2632 H 0.83691 0.7238 0.73926 0.0
H2633 H 0.90933 0.75032 0.75352 0.0
H2634 H 0.90677 0.72524 0.75075 0.0
H2635 H 0.89613 0.7368 0.77056 0.0
C2636 C 0.87847 0.68485 0.77333 0.0
C2637 C 0.86899 0.68734 0.79058 0.0
C2638 C 0.87688 0.69825 0.75902 0.0
C2639 C 0.86576 0.71435 0.76163 0.0
C2640 C 0.85558 0.71652 0.77845 0.0
H2641 H 0.86737 0.82121 0.7044 0.0
H2642 H 0.86728 0.79512 0.72684 0.0
C2643 C 0.85721 0.70313 0.79285 0.0
C2644 C 0.86562 0.72939 0.7472 0.0
H2645 H 0.89326 0.76354 0.7276 0.0
C2646 C 0.8492 0.73249 0.73665 0.0
C2647 C 0.88168 0.74074 0.74398 0.0
C2648 C 0.89948 0.73829 0.75535 0.0
C2649 C 0.84849 0.74663 0.7228 0.0
C2650 C 0.86463 0.75783 0.71945 0.0
C2651 C 0.88098 0.75479 0.73011 0.0
C2652 C 0.86457 0.77343 0.70559 0.0
C2653 C 0.8304 0.74979 0.7121 0.0
C2654 C 0.86335 0.76983 0.68618 0.0
C2655 C 0.86343 0.78476 0.67327 0.0
C2656 C 0.86464 0.80351 0.67961 0.0
C2657 C 0.8661 0.80697 0.69908 0.0
C2658 C 0.86615 0.79208 0.71192 0.0
H2659 H 0.81835 0.74215 0.71853 0.0
H2660 H 0.82698 0.76505 0.71152 0.0
H2661 H 0.83215 0.74471 0.6974 0.0
H2662 H 0.86237 0.75549 0.68102 0.0
H2663 H 0.8622 0.78167 0.65838 0.0
H2664 H 0.29518 0.19494 0.12321 0.0
H2665 H 0.27443 0.2225 0.12368 0.0
H2666 H 0.31112 0.24928 0.16422 0.0
H2667 H 0.33249 0.22206 0.16264 0.0
H2668 H 0.25431 0.23544 0.15014 0.0
H2669 H 0.30361 0.29254 0.13029 0.0
H2670 H 0.30995 0.26801 0.12859 0.0
H2671 H 0.31126 0.28012 0.15089 0.0
C2672 C 0.2989 0.20693 0.13191 0.0
C2673 C 0.3154 0.20661 0.14274 0.0
C2674 C 0.28705 0.22262 0.13227 0.0
C2675 C 0.29124 0.23818 0.14383 0.0
C2676 C 0.3078 0.2378 0.15473 0.0
H2677 H 0.19736 0.31591 0.16793 0.0
H2678 H 0.22226 0.29224 0.17161 0.0
C2679 C 0.31995 0.22225 0.15394 0.0
C2680 C 0.27765 0.25417 0.14505 0.0
H2681 H 0.27354 0.30202 0.14153 0.0
C2682 C 0.25855 0.24999 0.14815 0.0
C2683 C 0.28306 0.2732 0.14237 0.0
C2684 C 0.30305 0.27874 0.13766 0.0
C2685 C 0.24469 0.26411 0.14819 0.0
C2686 C 0.25016 0.2832 0.14608 0.0
C2687 C 0.26932 0.28744 0.14336 0.0
C2688 C 0.23614 0.29883 0.1452 0.0
C2689 C 0.2243 0.25819 0.1496 0.0
C2690 C 0.23629 0.31128 0.12982 0.0
C2691 C 0.22251 0.32523 0.12809 0.0
C2692 C 0.20808 0.32684 0.14154 0.0
C2693 C 0.20822 0.31482 0.15726 0.0
C2694 C 0.22233 0.30117 0.15925 0.0
H2695 H 0.22233 0.24321 0.14546 0.0
H2696 H 0.21951 0.25967 0.16441 0.0
H2697 H 0.21516 0.26703 0.14049 0.0
H2698 H 0.24676 0.30987 0.1188 0.0
H2699 H 0.22273 0.33423 0.11576 0.0
H2700 H 0.20288 0.68672 0.88516 0.0
H2701 H 0.22826 0.70952 0.89023 0.0
H2702 H 0.23599 0.71443 0.83017 0.0
H2703 H 0.21079 0.69158 0.82491 0.0
H2704 H 0.26998 0.71057 0.85093 0.0
H2705 H 0.22352 0.76667 0.87992 0.0
H2706 H 0.22195 0.74412 0.89134 0.0
H2707 H 0.21442 0.74653 0.8673 0.0
C2708 C 0.20999 0.69262 0.87301 0.0
C2709 C 0.20471 0.6874 0.85461 0.0
C2710 C 0.22444 0.7057 0.87595 0.0
C2711 C 0.23381 0.71382 0.86056 0.0
C2712 C 0.22887 0.70835 0.84222 0.0
H2713 H 0.30014 0.81379 0.84849 0.0
H2714 H 0.27642 0.78896 0.84847 0.0
C2715 C 0.21443 0.69531 0.83926 0.0
C2716 C 0.24869 0.72817 0.86345 0.0
H2717 H 0.25612 0.77311 0.87903 0.0
C2718 C 0.26702 0.72421 0.85717 0.0
C2719 C 0.24467 0.74599 0.87144 0.0
C2720 C 0.22506 0.75124 0.87777 0.0
C2721 C 0.28145 0.73768 0.85855 0.0
C2722 C 0.27745 0.75547 0.86661 0.0
C2723 C 0.25915 0.75938 0.87302 0.0
C2724 C 0.29174 0.77066 0.8674 0.0
C2725 C 0.30069 0.73301 0.8508 0.0
C2726 C 0.30812 0.76872 0.8783 0.0
C2727 C 0.32172 0.783 0.87846 0.0
C2728 C 0.31912 0.79951 0.86779 0.0
C2729 C 0.30251 0.80146 0.85714 0.0
C2730 C 0.28895 0.78722 0.857 0.0
H2731 H 0.30043 0.72023 0.84174 0.0
H2732 H 0.30633 0.74497 0.84245 0.0
H2733 H 0.31051 0.73037 0.86267 0.0
H2734 H 0.31037 0.75616 0.88667 0.0
H2735 H 0.33422 0.78115 0.88699 0.0
H2736 H 0.31109 0.19798 0.88327 0.0
H2737 H 0.28838 0.22329 0.8889 0.0
H2738 H 0.28417 0.23295 0.82906 0.0
H2739 H 0.30658 0.20748 0.82323 0.0
H2740 H 0.28913 0.26124 0.87961 0.0
H2741 H 0.2294 0.22505 0.84456 0.0
H2742 H 0.25097 0.21305 0.85063 0.0
H2743 H 0.24977 0.22739 0.82977 0.0
C2744 C 0.30535 0.20549 0.87128 0.0
C2745 C 0.31055 0.20057 0.85277 0.0
C2746 C 0.29239 0.21997 0.87454 0.0
C2747 C 0.28434 0.22977 0.85939 0.0
C2748 C 0.2899 0.22528 0.84094 0.0
H2749 H 0.22425 0.33539 0.85724 0.0
H2750 H 0.24816 0.31066 0.85756 0.0
C2751 C 0.30281 0.21077 0.83764 0.0
C2752 C 0.27005 0.24463 0.86284 0.0
H2753 H 0.22491 0.25738 0.85231 0.0
C2754 C 0.27504 0.26037 0.87375 0.0
C2755 C 0.25158 0.24329 0.85547 0.0
C2756 C 0.24501 0.2262 0.84461 0.0
C2757 C 0.2622 0.2751 0.87702 0.0
C2758 C 0.24402 0.27416 0.86889 0.0
C2759 C 0.23889 0.25816 0.85842 0.0
C2760 C 0.23018 0.28975 0.87058 0.0
C2761 C 0.26819 0.29142 0.88927 0.0
C2762 C 0.21207 0.28624 0.87773 0.0
C2763 C 0.19833 0.30035 0.87746 0.0
C2764 C 0.20241 0.31824 0.86998 0.0
C2765 C 0.22074 0.32189 0.8634 0.0
C2766 C 0.23444 0.30775 0.86359 0.0
H2767 H 0.27988 0.2874 0.89887 0.0
H2768 H 0.27327 0.30307 0.88018 0.0
H2769 H 0.25624 0.29675 0.89786 0.0
H2770 H 0.20846 0.27244 0.88317 0.0
H2771 H 0.18441 0.29716 0.8828 0.0
H2772 H 0.70955 0.18513 0.87116 0.0
H2773 H 0.73232 0.21089 0.87235 0.0
H2774 H 0.68755 0.25116 0.86473 0.0
H2775 H 0.66465 0.22552 0.86291 0.0
H2776 H 0.73614 0.24 0.84125 0.0
H2777 H 0.71971 0.26913 0.91227 0.0
H2778 H 0.7144 0.24505 0.90584 0.0
H2779 H 0.7002 0.26393 0.89689 0.0
C2780 C 0.70446 0.19942 0.86966 0.0
C2781 C 0.68518 0.20314 0.86679 0.0
C2782 C 0.71753 0.21413 0.87046 0.0
C2783 C 0.71158 0.23287 0.86868 0.0
C2784 C 0.69236 0.23676 0.86631 0.0
H2785 H 0.77102 0.33989 0.87245 0.0
H2786 H 0.74724 0.315 0.87091 0.0
C2787 C 0.67928 0.22205 0.86536 0.0
C2788 C 0.7256 0.24829 0.86845 0.0
H2789 H 0.7422 0.28545 0.89407 0.0
C2790 C 0.73753 0.24995 0.85279 0.0
C2791 C 0.72718 0.26127 0.88345 0.0
C2792 C 0.7148 0.25982 0.90067 0.0
C2793 C 0.75097 0.26443 0.85164 0.0
C2794 C 0.75284 0.27726 0.86683 0.0
C2795 C 0.74078 0.27561 0.88245 0.0
C2796 C 0.7673 0.29238 0.86691 0.0
C2797 C 0.76269 0.26608 0.83397 0.0
C2798 C 0.78651 0.28796 0.86521 0.0
C2799 C 0.80013 0.30217 0.86589 0.0
C2800 C 0.79483 0.32109 0.86861 0.0
C2801 C 0.77559 0.32548 0.87033 0.0
C2802 C 0.76197 0.31126 0.86949 0.0
H2803 H 0.75571 0.25919 0.82176 0.0
H2804 H 0.76544 0.28106 0.83036 0.0
H2805 H 0.77642 0.25895 0.83623 0.0
H2806 H 0.79102 0.27345 0.8637 0.0
H2807 H 0.81484 0.29827 0.86469 0.0
H2808 H 0.69051 0.78942 0.8241 0.0
H2809 H 0.71083 0.76224 0.82941 0.0
H2810 H 0.71214 0.77456 0.8889 0.0
H2811 H 0.69173 0.80197 0.88375 0.0
H2812 H 0.74792 0.76925 0.87224 0.0
H2813 H 0.69943 0.71083 0.85393 0.0
H2814 H 0.70003 0.72918 0.83652 0.0
H2815 H 0.69121 0.73424 0.85974 0.0
C2816 C 0.69494 0.78631 0.83836 0.0
C2817 C 0.6895 0.79791 0.8535 0.0
C2818 C 0.70644 0.77065 0.84138 0.0
C2819 C 0.71273 0.76622 0.85958 0.0
C2820 C 0.70727 0.77766 0.87477 0.0
H2821 H 0.78672 0.66874 0.88167 0.0
H2822 H 0.76047 0.69108 0.88444 0.0
C2823 C 0.69564 0.79331 0.87179 0.0
C2824 C 0.72619 0.75052 0.86232 0.0
H2825 H 0.73255 0.70359 0.85354 0.0
C2826 C 0.74447 0.75484 0.86847 0.0
C2827 C 0.72161 0.7317 0.85754 0.0
C2828 C 0.70195 0.72613 0.85174 0.0
C2829 C 0.75858 0.74101 0.86896 0.0
C2830 C 0.75429 0.72248 0.86305 0.0
C2831 C 0.73579 0.71789 0.85789 0.0
C2832 C 0.76925 0.70817 0.8608 0.0
C2833 C 0.77815 0.74641 0.87527 0.0
C2834 C 0.78247 0.71015 0.84629 0.0
C2835 C 0.79729 0.69738 0.84454 0.0
C2836 C 0.79928 0.68238 0.85735 0.0
C2837 C 0.78558 0.68005 0.87152 0.0
C2838 C 0.77064 0.69284 0.87319 0.0
H2839 H 0.7782 0.75992 0.8832 0.0
H2840 H 0.78433 0.73521 0.88429 0.0
H2841 H 0.78732 0.74807 0.86271 0.0
H2842 H 0.78142 0.72176 0.83642 0.0
H2843 H 0.80729 0.69937 0.83321 0.0
H2844 H 0.71313 0.81193 0.14009 0.0
H2845 H 0.73352 0.78432 0.13992 0.0
H2846 H 0.68506 0.74826 0.13362 0.0
H2847 H 0.66437 0.7759 0.13408 0.0
H2848 H 0.7327 0.75248 0.1648 0.0
H2849 H 0.72065 0.73266 0.08989 0.0
H2850 H 0.7147 0.75564 0.09908 0.0
H2851 H 0.69989 0.73576 0.10408 0.0
C2852 C 0.70669 0.79817 0.13887 0.0
C2853 C 0.68702 0.7962 0.13716 0.0
C2854 C 0.71843 0.78239 0.13867 0.0
C2855 C 0.71083 0.76428 0.1366 0.0
C2856 C 0.69123 0.76216 0.13495 0.0
H2857 H 0.76605 0.65516 0.1251 0.0
H2858 H 0.74294 0.68047 0.12848 0.0
C2859 C 0.67943 0.77798 0.13519 0.0
C2860 C 0.72353 0.7477 0.13628 0.0
H2861 H 0.74022 0.71268 0.1078 0.0
C2862 C 0.73433 0.74373 0.15237 0.0
C2863 C 0.72558 0.73631 0.12005 0.0
C2864 C 0.71473 0.74031 0.10221 0.0
C2865 C 0.74711 0.72862 0.15268 0.0
C2866 C 0.74944 0.71744 0.13632 0.0
C2867 C 0.73843 0.72126 0.12032 0.0
C2868 C 0.76347 0.70195 0.1353 0.0
C2869 C 0.7578 0.72462 0.17063 0.0
C2870 C 0.78273 0.7056 0.13798 0.0
C2871 C 0.796 0.69114 0.13616 0.0
C2872 C 0.79028 0.67276 0.13139 0.0
C2873 C 0.77096 0.66914 0.12879 0.0
C2874 C 0.75771 0.68359 0.13069 0.0
H2875 H 0.75048 0.73058 0.18313 0.0
H2876 H 0.7597 0.70924 0.17278 0.0
H2877 H 0.77193 0.73125 0.16977 0.0
H2878 H 0.78756 0.71974 0.14111 0.0
H2879 H 0.81076 0.69445 0.13815 0.0
H2880 H 0.22383 0.66096 0.15054 0.0
H2881 H 0.25187 0.68098 0.15217 0.0
H2882 H 0.21671 0.73002 0.15873 0.0
H2883 H 0.18878 0.71056 0.15656 0.0
H2884 H 0.25924 0.71348 0.12695 0.0
H2885 H 0.25624 0.73329 0.20258 0.0
H2886 H 0.2447 0.71255 0.19329 0.0
H2887 H 0.23432 0.73541 0.19007 0.0
C2888 C 0.22198 0.67598 0.15229 0.0
C2889 C 0.20382 0.68396 0.15348 0.0
C2890 C 0.23807 0.68738 0.15334 0.0
C2891 C 0.23632 0.70691 0.15587 0.0
C2892 C 0.21835 0.71492 0.15717 0.0
H2893 H 0.29968 0.80918 0.15657 0.0
H2894 H 0.27714 0.78347 0.16089 0.0
C2895 C 0.20231 0.70363 0.15596 0.0
C2896 C 0.25309 0.7193 0.15605 0.0
H2897 H 0.27619 0.75185 0.18294 0.0
C2898 C 0.26321 0.72166 0.13925 0.0
C2899 C 0.25803 0.73004 0.17209 0.0
C2900 C 0.24788 0.72764 0.1906 0.0
C2901 C 0.27761 0.73515 0.13779 0.0
C2902 C 0.28234 0.74619 0.15375 0.0
C2903 C 0.27257 0.74339 0.17073 0.0
C2904 C 0.29663 0.76144 0.15278 0.0
C2905 C 0.28693 0.73809 0.11889 0.0
C2906 C 0.31526 0.75755 0.14742 0.0
C2907 C 0.32813 0.77223 0.14477 0.0
C2908 C 0.32268 0.79107 0.14769 0.0
C2909 C 0.30432 0.79484 0.15412 0.0
C2910 C 0.29141 0.78015 0.1566 0.0
H2911 H 0.27852 0.73192 0.1072 0.0
H2912 H 0.28905 0.75332 0.116 0.0
H2913 H 0.30092 0.73112 0.1189 0.0
H2914 H 0.31975 0.74318 0.14491 0.0
H2915 H 0.34223 0.76883 0.14005 0.0
H2916 H 0.69334 0.18852 0.12719 0.0
H2917 H 0.71865 0.21169 0.12995 0.0
H2918 H 0.67859 0.25334 0.14899 0.0
H2919 H 0.65307 0.23048 0.14511 0.0
H2920 H 0.70059 0.26892 0.1254 0.0
H2921 H 0.74602 0.22962 0.17475 0.0
H2922 H 0.74204 0.21607 0.15383 0.0
H2923 H 0.72252 0.22189 0.16904 0.0
C2924 C 0.68998 0.20258 0.13211 0.0
C2925 C 0.67126 0.20769 0.13601 0.0
C2926 C 0.70449 0.2158 0.13384 0.0
C2927 C 0.70069 0.2342 0.14014 0.0
C2928 C 0.68196 0.23924 0.14418 0.0
H2929 H 0.79443 0.30783 0.17119 0.0
H2930 H 0.7664 0.28765 0.17182 0.0
C2931 C 0.66738 0.22616 0.14199 0.0
C2932 C 0.71605 0.24843 0.14164 0.0
H2933 H 0.76069 0.25521 0.15821 0.0
C2934 C 0.71364 0.26598 0.13279 0.0
C2935 C 0.73298 0.24487 0.15159 0.0
C2936 C 0.73595 0.22717 0.16301 0.0
C2937 C 0.72778 0.27983 0.1332 0.0
C2938 C 0.74523 0.27572 0.14198 0.0
C2939 C 0.74746 0.25835 0.15122 0.0
C2940 C 0.76143 0.28909 0.14171 0.0
C2941 C 0.7236 0.29881 0.12456 0.0
C2942 C 0.768 0.29675 0.12465 0.0
C2943 C 0.78368 0.30869 0.12442 0.0
C2944 C 0.79346 0.31268 0.14114 0.0
C2945 C 0.78705 0.30492 0.15815 0.0
C2946 C 0.77109 0.29338 0.15847 0.0
H2947 H 0.70826 0.30189 0.12481 0.0
H2948 H 0.73109 0.31033 0.13205 0.0
H2949 H 0.72813 0.29875 0.1096 0.0
H2950 H 0.76131 0.29315 0.11143 0.0
H2951 H 0.78863 0.31422 0.11109 0.0
loop_
_geom_bond_atom_site_label_1
_geom_bond_atom_site_label_2
_geom_bond_distance
_geom_bond_site_symmetry_2
_ccdc_geom_bond_type
Co0 N4 2.148 . S
Co0 N10 2.128 . S
Co0 N20 2.194 . S
Co0 O25 2.351 . S
Co0 O26 2.155 . S
Co0 O27 2.096 . S
C1 N4 1.301 . S
C1 N5 1.328 . S
C1 H6 0.930 . S
C2 C3 1.333 . S
C2 N4 1.317 . S
C2 H7 0.930 . S
C3 C2 1.333 . S
C3 N5 1.350 . S
C3 H29 0.931 . S
N4 Co0 2.148 . S
N4 C1 1.301 . S
N4 C2 1.317 . S
N5 C1 1.328 . S
N5 C3 1.350 . S
H6 C1 0.930 . S
H7 C2 0.930 . S
C8 O9 1.224 . S
C8 O27 1.247 . S
O9 C8 1.224 . S
N10 Co0 2.128 . S
N10 C11 1.355 . S
N10 C13 1.311 . S
C11 N10 1.355 . S
C11 C12 1.363 . S
C11 H23 0.929 . S
C12 C11 1.363 . S
C12 N14 1.375 . S
C12 H30 0.931 . S
C13 N10 1.311 . S
C13 N14 1.347 . S
C13 H24 0.929 . S
N14 C12 1.375 . S
N14 C13 1.347 . S
C15 C18 1.365 . S
C15 N20 1.328 . S
C15 H21 0.929 . S
C16 C17 1.362 . S
C16 C19 1.378 . S
C16 H31 0.929 . S
C17 C16 1.362 . S
C17 C18 1.366 . S
C18 C15 1.365 . S
C18 C17 1.366 . S
C18 H32 0.930 . S
C19 C16 1.378 . S
C19 N20 1.315 . S
C19 H22 0.930 . S
N20 Co0 2.194 . S
N20 C15 1.328 . S
N20 C19 1.315 . S
H21 C15 0.929 . S
H22 C19 0.930 . S
H23 C11 0.929 . S
H24 C13 0.929 . S
O25 Co0 2.351 . S
O25 C28 1.244 . S
O26 Co0 2.155 . S
O26 C28 1.240 . S
O27 Co0 2.096 . S
O27 C8 1.247 . S
C28 O25 1.244 . S
C28 O26 1.240 . S
H29 C3 0.931 . S
H30 C12 0.931 . S
H31 C16 0.929 . S
H32 C18 0.930 . S
Co33 N37 2.148 . S
Co33 N43 2.128 . S
Co33 N53 2.194 . S
Co33 O58 2.351 . S
Co33 O59 2.155 . S
Co33 O60 2.096 . S
C34 N37 1.301 . S
C34 N38 1.328 . S
C34 H39 0.930 . S
C35 C36 1.333 . S
C35 N37 1.317 . S
C35 H40 0.930 . S
C36 C35 1.333 . S
C36 N38 1.350 . S
C36 H62 0.931 . S
N37 Co33 2.148 . S
N37 C34 1.301 . S
N37 C35 1.317 . S
N38 C34 1.328 . S
N38 C36 1.350 . S
H39 C34 0.930 . S
H40 C35 0.930 . S
C41 O42 1.224 . S
C41 O60 1.247 . S
O42 C41 1.224 . S
N43 Co33 2.128 . S
N43 C44 1.355 . S
N43 C46 1.311 . S
C44 N43 1.355 . S
C44 C45 1.363 . S
C44 H56 0.929 . S
C45 C44 1.363 . S
C45 N47 1.375 . S
C45 H63 0.931 . S
C46 N43 1.311 . S
C46 N47 1.347 . S
C46 H57 0.929 . S
N47 C45 1.375 . S
N47 C46 1.347 . S
C48 C51 1.365 . S
C48 N53 1.328 . S
C48 H54 0.929 . S
C49 C50 1.362 . S
C49 C52 1.378 . S
C49 H64 0.929 . S
C50 C49 1.362 . S
C50 C51 1.366 . S
C51 C48 1.365 . S
C51 C50 1.366 . S
C51 H65 0.930 . S
C52 C49 1.378 . S
C52 N53 1.315 . S
C52 H55 0.930 . S
N53 Co33 2.194 . S
N53 C48 1.328 . S
N53 C52 1.315 . S
H54 C48 0.929 . S
H55 C52 0.930 . S
H56 C44 0.929 . S
H57 C46 0.929 . S
O58 Co33 2.351 . S
O58 C61 1.244 . S
O59 Co33 2.155 . S
O59 C61 1.240 . S
O60 Co33 2.096 . S
O60 C41 1.247 . S
C61 O58 1.244 . S
C61 O59 1.240 . S
H62 C36 0.931 . S
H63 C45 0.931 . S
H64 C49 0.929 . S
H65 C51 0.930 . S
Co66 N70 2.148 . S
Co66 N76 2.128 . S
Co66 N86 2.194 . S
Co66 O91 2.351 . S
Co66 O92 2.155 . S
Co66 O93 2.096 . S
C67 N70 1.301 . S
C67 N71 1.328 . S
C67 H72 0.930 . S
C68 C69 1.333 . S
C68 N70 1.317 . S
C68 H73 0.930 . S
C69 C68 1.333 . S
C69 N71 1.350 . S
C69 H95 0.931 . S
N70 Co66 2.148 . S
N70 C67 1.301 . S
N70 C68 1.317 . S
N71 C67 1.328 . S
N71 C69 1.350 . S
H72 C67 0.930 . S
H73 C68 0.930 . S
C74 O75 1.224 . S
C74 O93 1.247 . S
O75 C74 1.224 . S
N76 Co66 2.128 . S
N76 C77 1.355 . S
N76 C79 1.311 . S
C77 N76 1.355 . S
C77 C78 1.363 . S
C77 H89 0.929 . S
C78 C77 1.363 . S
C78 N80 1.375 . S
C78 H96 0.931 . S
C79 N76 1.311 . S
C79 N80 1.347 . S
C79 H90 0.929 . S
N80 C78 1.375 . S
N80 C79 1.347 . S
C81 C84 1.365 . S
C81 N86 1.328 . S
C81 H87 0.929 . S
C82 C83 1.362 . S
C82 C85 1.378 . S
C82 H97 0.929 . S
C83 C82 1.362 . S
C83 C84 1.366 . S
C84 C81 1.365 . S
C84 C83 1.366 . S
C84 H98 0.930 . S
C85 C82 1.378 . S
C85 N86 1.315 . S
C85 H88 0.930 . S
N86 Co66 2.194 . S
N86 C81 1.328 . S
N86 C85 1.315 . S
H87 C81 0.929 . S
H88 C85 0.930 . S
H89 C77 0.929 . S
H90 C79 0.929 . S
O91 Co66 2.351 . S
O91 C94 1.244 . S
O92 Co66 2.155 . S
O92 C94 1.240 . S
O93 Co66 2.096 . S
O93 C74 1.247 . S
C94 O91 1.244 . S
C94 O92 1.240 . S
H95 C69 0.931 . S
H96 C78 0.931 . S
H97 C82 0.929 . S
H98 C84 0.930 . S
Co99 N103 2.148 . S
Co99 N109 2.128 . S
Co99 N119 2.194 . S
Co99 O124 2.351 . S
Co99 O125 2.155 . S
Co99 O126 2.096 . S
C100 N103 1.301 . S
C100 N104 1.328 . S
C100 H105 0.930 . S
C101 C102 1.333 . S
C101 N103 1.317 . S
C101 H106 0.930 . S
C102 C101 1.333 . S
C102 N104 1.350 . S
C102 H128 0.931 . S
N103 Co99 2.148 . S
N103 C100 1.301 . S
N103 C101 1.317 . S
N104 C100 1.328 . S
N104 C102 1.350 . S
H105 C100 0.930 . S
H106 C101 0.930 . S
C107 O108 1.224 . S
C107 O126 1.247 . S
O108 C107 1.224 . S
N109 Co99 2.128 . S
N109 C110 1.355 . S
N109 C112 1.311 . S
C110 N109 1.355 . S
C110 C111 1.363 . S
C110 H122 0.929 . S
C111 C110 1.363 . S
C111 N113 1.375 . S
C111 H129 0.931 . S
C112 N109 1.311 . S
C112 N113 1.347 . S
C112 H123 0.929 . S
N113 C111 1.375 . S
N113 C112 1.347 . S
C114 C117 1.365 . S
C114 N119 1.328 . S
C114 H120 0.929 . S
C115 C116 1.362 . S
C115 C118 1.378 . S
C115 H130 0.929 . S
C116 C115 1.362 . S
C116 C117 1.366 . S
C117 C114 1.365 . S
C117 C116 1.366 . S
C117 H131 0.930 . S
C118 C115 1.378 . S
C118 N119 1.315 . S
C118 H121 0.930 . S
N119 Co99 2.194 . S
N119 C114 1.328 . S
N119 C118 1.315 . S
H120 C114 0.929 . S
H121 C118 0.930 . S
H122 C110 0.929 . S
H123 C112 0.929 . S
O124 Co99 2.351 . S
O124 C127 1.244 . S
O125 Co99 2.155 . S
O125 C127 1.240 . S
O126 Co99 2.096 . S
O126 C107 1.247 . S
C127 O124 1.244 . S
C127 O125 1.240 . S
H128 C102 0.931 . S
H129 C111 0.931 . S
H130 C115 0.929 . S
H131 C117 0.930 . S
Co132 N136 2.148 . S
Co132 N142 2.128 . S
Co132 N152 2.194 . S
Co132 O157 2.351 . S
Co132 O158 2.155 . S
Co132 O159 2.096 . S
C133 N136 1.301 . S
C133 N137 1.328 . S
C133 H138 0.930 . S
C134 C135 1.333 . S
C134 N136 1.317 . S
C134 H139 0.930 . S
C135 C134 1.333 . S
C135 N137 1.350 . S
C135 H161 0.931 . S
N136 Co132 2.148 . S
N136 C133 1.301 . S
N136 C134 1.317 . S
N137 C133 1.328 . S
N137 C135 1.350 . S
H138 C133 0.930 . S
H139 C134 0.930 . S
C140 O141 1.224 . S
C140 O159 1.247 . S
O141 C140 1.224 . S
N142 Co132 2.128 . S
N142 C143 1.355 . S
N142 C145 1.311 . S
C143 N142 1.355 . S
C143 C144 1.363 . S
C143 H155 0.929 . S
C144 C143 1.363 . S
C144 N146 1.375 . S
C144 H162 0.931 . S
C145 N142 1.311 . S
C145 N146 1.347 . S
C145 H156 0.929 . S
N146 C144 1.375 . S
N146 C145 1.347 . S
C147 C150 1.365 . S
C147 N152 1.328 . S
C147 H153 0.929 . S
C148 C149 1.362 . S
C148 C151 1.378 . S
C148 H163 0.929 . S
C149 C148 1.362 . S
C149 C150 1.366 . S
C150 C147 1.365 . S
C150 C149 1.366 . S
C150 H164 0.930 . S
C151 C148 1.378 . S
C151 N152 1.315 . S
C151 H154 0.930 . S
N152 Co132 2.194 . S
N152 C147 1.328 . S
N152 C151 1.315 . S
H153 C147 0.929 . S
H154 C151 0.930 . S
H155 C143 0.929 . S
H156 C145 0.929 . S
O157 Co132 2.351 . S
O157 C160 1.244 . S
O158 Co132 2.155 . S
O158 C160 1.240 . S
O159 Co132 2.096 . S
O159 C140 1.247 . S
C160 O157 1.244 . S
C160 O158 1.240 . S
H161 C135 0.931 . S
H162 C144 0.931 . S
H163 C148 0.929 . S
H164 C150 0.930 . S
Co165 N169 2.148 . S
Co165 N175 2.128 . S
Co165 N185 2.194 . S
Co165 O190 2.351 . S
Co165 O191 2.155 . S
Co165 O192 2.096 . S
C166 N169 1.301 . S
C166 N170 1.328 . S
C166 H171 0.930 . S
C167 C168 1.333 . S
C167 N169 1.317 . S
C167 H172 0.930 . S
C168 C167 1.333 . S
C168 N170 1.350 . S
C168 H194 0.931 . S
N169 Co165 2.148 . S
N169 C166 1.301 . S
N169 C167 1.317 . S
N170 C166 1.328 . S
N170 C168 1.350 . S
H171 C166 0.930 . S
H172 C167 0.930 . S
C173 O174 1.224 . S
C173 O192 1.247 . S
O174 C173 1.224 . S
N175 Co165 2.128 . S
N175 C176 1.355 . S
N175 C178 1.311 . S
C176 N175 1.355 . S
C176 C177 1.363 . S
C176 H188 0.929 . S
C177 C176 1.363 . S
C177 N179 1.375 . S
C177 H195 0.931 . S
C178 N175 1.311 . S
C178 N179 1.347 . S
C178 H189 0.929 . S
N179 C177 1.375 . S
N179 C178 1.347 . S
C180 C183 1.365 . S
C180 N185 1.328 . S
C180 H186 0.929 . S
C181 C182 1.362 . S
C181 C184 1.378 . S
C181 H196 0.929 . S
C182 C181 1.362 . S
C182 C183 1.366 . S
C183 C180 1.365 . S
C183 C182 1.366 . S
C183 H197 0.930 . S
C184 C181 1.378 . S
C184 N185 1.315 . S
C184 H187 0.930 . S
N185 Co165 2.194 . S
N185 C180 1.328 . S
N185 C184 1.315 . S
H186 C180 0.929 . S
H187 C184 0.930 . S
H188 C176 0.929 . S
H189 C178 0.929 . S
O190 Co165 2.351 . S
O190 C193 1.244 . S
O191 Co165 2.155 . S
O191 C193 1.240 . S
O192 Co165 2.096 . S
O192 C173 1.247 . S
C193 O190 1.244 . S
C193 O191 1.240 . S
H194 C168 0.931 . S
H195 C177 0.931 . S
H196 C181 0.929 . S
H197 C183 0.930 . S
Co198 N202 2.148 . S
Co198 N208 2.128 . S
Co198 N218 2.194 . S
Co198 O223 2.351 . S
Co198 O224 2.155 . S
Co198 O225 2.096 . S
C199 N202 1.301 . S
C199 N203 1.328 . S
C199 H204 0.930 . S
C200 C201 1.333 . S
C200 N202 1.317 . S
C200 H205 0.930 . S
C201 C200 1.333 . S
C201 N203 1.350 . S
C201 H227 0.931 . S
N202 Co198 2.148 . S
N202 C199 1.301 . S
N202 C200 1.317 . S
N203 C199 1.328 . S
N203 C201 1.350 . S
H204 C199 0.930 . S
H205 C200 0.930 . S
C206 O207 1.224 . S
C206 O225 1.247 . S
O207 C206 1.224 . S
N208 Co198 2.128 . S
N208 C209 1.355 . S
N208 C211 1.311 . S
C209 N208 1.355 . S
C209 C210 1.363 . S
C209 H221 0.929 . S
C210 C209 1.363 . S
C210 N212 1.375 . S
C210 H228 0.931 . S
C211 N208 1.311 . S
C211 N212 1.347 . S
C211 H222 0.929 . S
N212 C210 1.375 . S
N212 C211 1.347 . S
C213 C216 1.365 . S
C213 N218 1.328 . S
C213 H219 0.929 . S
C214 C215 1.362 . S
C214 C217 1.378 . S
C214 H229 0.929 . S
C215 C214 1.362 . S
C215 C216 1.366 . S
C216 C213 1.365 . S
C216 C215 1.366 . S
C216 H230 0.930 . S
C217 C214 1.378 . S
C217 N218 1.315 . S
C217 H220 0.930 . S
N218 Co198 2.194 . S
N218 C213 1.328 . S
N218 C217 1.315 . S
H219 C213 0.929 . S
H220 C217 0.930 . S
H221 C209 0.929 . S
H222 C211 0.929 . S
O223 Co198 2.351 . S
O223 C226 1.244 . S
O224 Co198 2.155 . S
O224 C226 1.240 . S
O225 Co198 2.096 . S
O225 C206 1.247 . S
C226 O223 1.244 . S
C226 O224 1.240 . S
H227 C201 0.931 . S
H228 C210 0.931 . S
H229 C214 0.929 . S
H230 C216 0.930 . S
Co231 N235 2.148 . S
Co231 N241 2.128 . S
Co231 N251 2.194 . S
Co231 O256 2.351 . S
Co231 O257 2.155 . S
Co231 O258 2.096 . S
C232 N235 1.301 . S
C232 N236 1.328 . S
C232 H237 0.930 . S
C233 C234 1.333 . S
C233 N235 1.317 . S
C233 H238 0.930 . S
C234 C233 1.333 . S
C234 N236 1.350 . S
C234 H260 0.931 . S
N235 Co231 2.148 . S
N235 C232 1.301 . S
N235 C233 1.317 . S
N236 C232 1.328 . S
N236 C234 1.350 . S
H237 C232 0.930 . S
H238 C233 0.930 . S
C239 O240 1.224 . S
C239 O258 1.247 . S
O240 C239 1.224 . S
N241 Co231 2.128 . S
N241 C242 1.355 . S
N241 C244 1.311 . S
C242 N241 1.355 . S
C242 C243 1.363 . S
C242 H254 0.929 . S
C243 C242 1.363 . S
C243 N245 1.375 . S
C243 H261 0.931 . S
C244 N241 1.311 . S
C244 N245 1.347 . S
C244 H255 0.929 . S
N245 C243 1.375 . S
N245 C244 1.347 . S
C246 C249 1.365 . S
C246 N251 1.328 . S
C246 H252 0.929 . S
C247 C248 1.362 . S
C247 C250 1.378 . S
C247 H262 0.929 . S
C248 C247 1.362 . S
C248 C249 1.366 . S
C249 C246 1.365 . S
C249 C248 1.366 . S
C249 H263 0.930 . S
C250 C247 1.378 . S
C250 N251 1.315 . S
C250 H253 0.930 . S
N251 Co231 2.194 . S
N251 C246 1.328 . S
N251 C250 1.315 . S
H252 C246 0.929 . S
H253 C250 0.930 . S
H254 C242 0.929 . S
H255 C244 0.929 . S
O256 Co231 2.351 . S
O256 C259 1.244 . S
O257 Co231 2.155 . S
O257 C259 1.240 . S
O258 Co231 2.096 . S
O258 C239 1.247 . S
C259 O256 1.244 . S
C259 O257 1.240 . S
H260 C234 0.931 . S
H261 C243 0.931 . S
H262 C247 0.929 . S
H263 C249 0.930 . S
Co264 N268 2.148 . S
Co264 N274 2.128 . S
Co264 N284 2.194 . S
Co264 O289 2.351 . S
Co264 O290 2.155 . S
Co264 O291 2.096 . S
C265 N268 1.301 . S
C265 N269 1.328 . S
C265 H270 0.930 . S
C266 C267 1.333 . S
C266 N268 1.317 . S
C266 H271 0.930 . S
C267 C266 1.333 . S
C267 N269 1.350 . S
C267 H293 0.931 . S
N268 Co264 2.148 . S
N268 C265 1.301 . S
N268 C266 1.317 . S
N269 C265 1.328 . S
N269 C267 1.350 . S
H270 C265 0.930 . S
H271 C266 0.930 . S
C272 O273 1.224 . S
C272 O291 1.247 . S
O273 C272 1.224 . S
N274 Co264 2.128 . S
N274 C275 1.355 . S
N274 C277 1.311 . S
C275 N274 1.355 . S
C275 C276 1.363 . S
C275 H287 0.929 . S
C276 C275 1.363 . S
C276 N278 1.375 . S
C276 H294 0.931 . S
C277 N274 1.311 . S
C277 N278 1.347 . S
C277 H288 0.929 . S
N278 C276 1.375 . S
N278 C277 1.347 . S
C279 C282 1.365 . S
C279 N284 1.328 . S
C279 H285 0.929 . S
C280 C281 1.362 . S
C280 C283 1.378 . S
C280 H295 0.929 . S
C281 C280 1.362 . S
C281 C282 1.366 . S
C282 C279 1.365 . S
C282 C281 1.366 . S
C282 H296 0.930 . S
C283 C280 1.378 . S
C283 N284 1.315 . S
C283 H286 0.930 . S
N284 Co264 2.194 . S
N284 C279 1.328 . S
N284 C283 1.315 . S
H285 C279 0.929 . S
H286 C283 0.930 . S
H287 C275 0.929 . S
H288 C277 0.929 . S
O289 Co264 2.351 . S
O289 C292 1.244 . S
O290 Co264 2.155 . S
O290 C292 1.240 . S
O291 Co264 2.096 . S
O291 C272 1.247 . S
C292 O289 1.244 . S
C292 O290 1.240 . S
H293 C267 0.931 . S
H294 C276 0.931 . S
H295 C280 0.929 . S
H296 C282 0.930 . S
Co297 N301 2.148 . S
Co297 N307 2.128 . S
Co297 N317 2.194 . S
Co297 O322 2.351 . S
Co297 O323 2.155 . S
Co297 O324 2.096 . S
C298 N301 1.301 . S
C298 N302 1.328 . S
C298 H303 0.930 . S
C299 C300 1.333 . S
C299 N301 1.317 . S
C299 H304 0.930 . S
C300 C299 1.333 . S
C300 N302 1.350 . S
C300 H326 0.931 . S
N301 Co297 2.148 . S
N301 C298 1.301 . S
N301 C299 1.317 . S
N302 C298 1.328 . S
N302 C300 1.350 . S
H303 C298 0.930 . S
H304 C299 0.930 . S
C305 O306 1.224 . S
C305 O324 1.247 . S
O306 C305 1.224 . S
N307 Co297 2.128 . S
N307 C308 1.355 . S
N307 C310 1.311 . S
C308 N307 1.355 . S
C308 C309 1.363 . S
C308 H320 0.929 . S
C309 C308 1.363 . S
C309 N311 1.375 . S
C309 H327 0.931 . S
C310 N307 1.311 . S
C310 N311 1.347 . S
C310 H321 0.929 . S
N311 C309 1.375 . S
N311 C310 1.347 . S
C312 C315 1.365 . S
C312 N317 1.328 . S
C312 H318 0.929 . S
C313 C314 1.362 . S
C313 C316 1.378 . S
C313 H328 0.929 . S
C314 C313 1.362 . S
C314 C315 1.366 . S
C315 C312 1.365 . S
C315 C314 1.366 . S
C315 H329 0.930 . S
C316 C313 1.378 . S
C316 N317 1.315 . S
C316 H319 0.930 . S
N317 Co297 2.194 . S
N317 C312 1.328 . S
N317 C316 1.315 . S
H318 C312 0.929 . S
H319 C316 0.930 . S
H320 C308 0.929 . S
H321 C310 0.929 . S
O322 Co297 2.351 . S
O322 C325 1.244 . S
O323 Co297 2.155 . S
O323 C325 1.240 . S
O324 Co297 2.096 . S
O324 C305 1.247 . S
C325 O322 1.244 . S
C325 O323 1.240 . S
H326 C300 0.931 . S
H327 C309 0.931 . S
H328 C313 0.929 . S
H329 C315 0.930 . S
Co330 N334 2.148 . S
Co330 N340 2.128 . S
Co330 N350 2.194 . S
Co330 O355 2.351 . S
Co330 O356 2.155 . S
Co330 O357 2.096 . S
C331 N334 1.301 . S
C331 N335 1.328 . S
C331 H336 0.930 . S
C332 C333 1.333 . S
C332 N334 1.317 . S
C332 H337 0.930 . S
C333 C332 1.333 . S
C333 N335 1.350 . S
C333 H359 0.931 . S
N334 Co330 2.148 . S
N334 C331 1.301 . S
N334 C332 1.317 . S
N335 C331 1.328 . S
N335 C333 1.350 . S
H336 C331 0.930 . S
H337 C332 0.930 . S
C338 O339 1.224 . S
C338 O357 1.247 . S
O339 C338 1.224 . S
N340 Co330 2.128 . S
N340 C341 1.355 . S
N340 C343 1.311 . S
C341 N340 1.355 . S
C341 C342 1.363 . S
C341 H353 0.929 . S
C342 C341 1.363 . S
C342 N344 1.375 . S
C342 H360 0.931 . S
C343 N340 1.311 . S
C343 N344 1.347 . S
C343 H354 0.929 . S
N344 C342 1.375 . S
N344 C343 1.347 . S
C345 C348 1.365 . S
C345 N350 1.328 . S
C345 H351 0.929 . S
C346 C347 1.362 . S
C346 C349 1.378 . S
C346 H361 0.929 . S
C347 C346 1.362 . S
C347 C348 1.366 . S
C348 C345 1.365 . S
C348 C347 1.366 . S
C348 H362 0.930 . S
C349 C346 1.378 . S
C349 N350 1.315 . S
C349 H352 0.930 . S
N350 Co330 2.194 . S
N350 C345 1.328 . S
N350 C349 1.315 . S
H351 C345 0.929 . S
H352 C349 0.930 . S
H353 C341 0.929 . S
H354 C343 0.929 . S
O355 Co330 2.351 . S
O355 C358 1.244 . S
O356 Co330 2.155 . S
O356 C358 1.240 . S
O357 Co330 2.096 . S
O357 C338 1.247 . S
C358 O355 1.244 . S
C358 O356 1.240 . S
H359 C333 0.931 . S
H360 C342 0.931 . S
H361 C346 0.929 . S
H362 C348 0.930 . S
Co363 N367 2.148 . S
Co363 N373 2.128 . S
Co363 N383 2.194 . S
Co363 O388 2.351 . S
Co363 O389 2.155 . S
Co363 O390 2.096 . S
C364 N367 1.301 . S
C364 N368 1.328 . S
C364 H369 0.930 . S
C365 C366 1.333 . S
C365 N367 1.317 . S
C365 H370 0.930 . S
C366 C365 1.333 . S
C366 N368 1.350 . S
C366 H392 0.931 . S
N367 Co363 2.148 . S
N367 C364 1.301 . S
N367 C365 1.317 . S
N368 C364 1.328 . S
N368 C366 1.350 . S
H369 C364 0.930 . S
H370 C365 0.930 . S
C371 O372 1.224 . S
C371 O390 1.247 . S
O372 C371 1.224 . S
N373 Co363 2.128 . S
N373 C374 1.355 . S
N373 C376 1.311 . S
C374 N373 1.355 . S
C374 C375 1.363 . S
C374 H386 0.929 . S
C375 C374 1.363 . S
C375 N377 1.375 . S
C375 H393 0.931 . S
C376 N373 1.311 . S
C376 N377 1.347 . S
C376 H387 0.929 . S
N377 C375 1.375 . S
N377 C376 1.347 . S
C378 C381 1.365 . S
C378 N383 1.328 . S
C378 H384 0.929 . S
C379 C380 1.362 . S
C379 C382 1.378 . S
C379 H394 0.929 . S
C380 C379 1.362 . S
C380 C381 1.366 . S
C381 C378 1.365 . S
C381 C380 1.366 . S
C381 H395 0.930 . S
C382 C379 1.378 . S
C382 N383 1.315 . S
C382 H385 0.930 . S
N383 Co363 2.194 . S
N383 C378 1.328 . S
N383 C382 1.315 . S
H384 C378 0.929 . S
H385 C382 0.930 . S
H386 C374 0.929 . S
H387 C376 0.929 . S
O388 Co363 2.351 . S
O388 C391 1.244 . S
O389 Co363 2.155 . S
O389 C391 1.240 . S
O390 Co363 2.096 . S
O390 C371 1.247 . S
C391 O388 1.244 . S
C391 O389 1.240 . S
H392 C366 0.931 . S
H393 C375 0.931 . S
H394 C379 0.929 . S
H395 C381 0.930 . S
Co396 N400 2.148 . S
Co396 N406 2.128 . S
Co396 N416 2.194 . S
Co396 O421 2.351 . S
Co396 O422 2.155 . S
Co396 O423 2.096 . S
C397 N400 1.301 . S
C397 N401 1.328 . S
C397 H402 0.930 . S
C398 C399 1.333 . S
C398 N400 1.317 . S
C398 H403 0.930 . S
C399 C398 1.333 . S
C399 N401 1.350 . S
C399 H425 0.931 . S
N400 Co396 2.148 . S
N400 C397 1.301 . S
N400 C398 1.317 . S
N401 C397 1.328 . S
N401 C399 1.350 . S
H402 C397 0.930 . S
H403 C398 0.930 . S
C404 O405 1.224 . S
C404 O423 1.247 . S
O405 C404 1.224 . S
N406 Co396 2.128 . S
N406 C407 1.355 . S
N406 C409 1.311 . S
C407 N406 1.355 . S
C407 C408 1.363 . S
C407 H419 0.929 . S
C408 C407 1.363 . S
C408 N410 1.375 . S
C408 H426 0.931 . S
C409 N406 1.311 . S
C409 N410 1.347 . S
C409 H420 0.929 . S
N410 C408 1.375 . S
N410 C409 1.347 . S
C411 C414 1.365 . S
C411 N416 1.328 . S
C411 H417 0.929 . S
C412 C413 1.362 . S
C412 C415 1.378 . S
C412 H427 0.929 . S
C413 C412 1.362 . S
C413 C414 1.366 . S
C414 C411 1.365 . S
C414 C413 1.366 . S
C414 H428 0.930 . S
C415 C412 1.378 . S
C415 N416 1.315 . S
C415 H418 0.930 . S
N416 Co396 2.194 . S
N416 C411 1.328 . S
N416 C415 1.315 . S
H417 C411 0.929 . S
H418 C415 0.930 . S
H419 C407 0.929 . S
H420 C409 0.929 . S
O421 Co396 2.351 . S
O421 C424 1.244 . S
O422 Co396 2.155 . S
O422 C424 1.240 . S
O423 Co396 2.096 . S
O423 C404 1.247 . S
C424 O421 1.244 . S
C424 O422 1.240 . S
H425 C399 0.931 . S
H426 C408 0.931 . S
H427 C412 0.929 . S
H428 C414 0.930 . S
Co429 N433 2.148 . S
Co429 N439 2.128 . S
Co429 N449 2.194 . S
Co429 O454 2.351 . S
Co429 O455 2.155 . S
Co429 O456 2.096 . S
C430 N433 1.301 . S
C430 N434 1.328 . S
C430 H435 0.930 . S
C431 C432 1.333 . S
C431 N433 1.317 . S
C431 H436 0.930 . S
C432 C431 1.333 . S
C432 N434 1.350 . S
C432 H458 0.931 . S
N433 Co429 2.148 . S
N433 C430 1.301 . S
N433 C431 1.317 . S
N434 C430 1.328 . S
N434 C432 1.350 . S
H435 C430 0.930 . S
H436 C431 0.930 . S
C437 O438 1.224 . S
C437 O456 1.247 . S
O438 C437 1.224 . S
N439 Co429 2.128 . S
N439 C440 1.355 . S
N439 C442 1.311 . S
C440 N439 1.355 . S
C440 C441 1.363 . S
C440 H452 0.929 . S
C441 C440 1.363 . S
C441 N443 1.375 . S
C441 H459 0.931 . S
C442 N439 1.311 . S
C442 N443 1.347 . S
C442 H453 0.929 . S
N443 C441 1.375 . S
N443 C442 1.347 . S
C444 C447 1.365 . S
C444 N449 1.328 . S
C444 H450 0.929 . S
C445 C446 1.362 . S
C445 C448 1.378 . S
C445 H460 0.929 . S
C446 C445 1.362 . S
C446 C447 1.366 . S
C447 C444 1.365 . S
C447 C446 1.366 . S
C447 H461 0.930 . S
C448 C445 1.378 . S
C448 N449 1.315 . S
C448 H451 0.930 . S
N449 Co429 2.194 . S
N449 C444 1.328 . S
N449 C448 1.315 . S
H450 C444 0.929 . S
H451 C448 0.930 . S
H452 C440 0.929 . S
H453 C442 0.929 . S
O454 Co429 2.351 . S
O454 C457 1.244 . S
O455 Co429 2.155 . S
O455 C457 1.240 . S
O456 Co429 2.096 . S
O456 C437 1.247 . S
C457 O454 1.244 . S
C457 O455 1.240 . S
H458 C432 0.931 . S
H459 C441 0.931 . S
H460 C445 0.929 . S
H461 C447 0.930 . S
Co462 N466 2.148 . S
Co462 N472 2.128 . S
Co462 N482 2.194 . S
Co462 O487 2.351 . S
Co462 O488 2.155 . S
Co462 O489 2.096 . S
C463 N466 1.301 . S
C463 N467 1.328 . S
C463 H468 0.930 . S
C464 C465 1.333 . S
C464 N466 1.317 . S
C464 H469 0.930 . S
C465 C464 1.333 . S
C465 N467 1.350 . S
C465 H491 0.931 . S
N466 Co462 2.148 . S
N466 C463 1.301 . S
N466 C464 1.317 . S
N467 C463 1.328 . S
N467 C465 1.350 . S
H468 C463 0.930 . S
H469 C464 0.930 . S
C470 O471 1.224 . S
C470 O489 1.247 . S
O471 C470 1.224 . S
N472 Co462 2.128 . S
N472 C473 1.355 . S
N472 C475 1.311 . S
C473 N472 1.355 . S
C473 C474 1.363 . S
C473 H485 0.929 . S
C474 C473 1.363 . S
C474 N476 1.375 . S
C474 H492 0.931 . S
C475 N472 1.311 . S
C475 N476 1.347 . S
C475 H486 0.929 . S
N476 C474 1.375 . S
N476 C475 1.347 . S
C477 C480 1.365 . S
C477 N482 1.328 . S
C477 H483 0.929 . S
C478 C479 1.362 . S
C478 C481 1.378 . S
C478 H493 0.929 . S
C479 C478 1.362 . S
C479 C480 1.366 . S
C480 C477 1.365 . S
C480 C479 1.366 . S
C480 H494 0.930 . S
C481 C478 1.378 . S
C481 N482 1.315 . S
C481 H484 0.930 . S
N482 Co462 2.194 . S
N482 C477 1.328 . S
N482 C481 1.315 . S
H483 C477 0.929 . S
H484 C481 0.930 . S
H485 C473 0.929 . S
H486 C475 0.929 . S
O487 Co462 2.351 . S
O487 C490 1.244 . S
O488 Co462 2.155 . S
O488 C490 1.240 . S
O489 Co462 2.096 . S
O489 C470 1.247 . S
C490 O487 1.244 . S
C490 O488 1.240 . S
H491 C465 0.931 . S
H492 C474 0.931 . S
H493 C478 0.929 . S
H494 C480 0.930 . S
Co495 N499 2.148 . S
Co495 N505 2.128 . S
Co495 N515 2.194 . S
Co495 O520 2.351 . S
Co495 O521 2.155 . S
Co495 O522 2.096 . S
C496 N499 1.301 . S
C496 N500 1.328 . S
C496 H501 0.930 . S
C497 C498 1.333 . S
C497 N499 1.317 . S
C497 H502 0.930 . S
C498 C497 1.333 . S
C498 N500 1.350 . S
C498 H524 0.931 . S
N499 Co495 2.148 . S
N499 C496 1.301 . S
N499 C497 1.317 . S
N500 C496 1.328 . S
N500 C498 1.350 . S
H501 C496 0.930 . S
H502 C497 0.930 . S
C503 O504 1.224 . S
C503 O522 1.247 . S
O504 C503 1.224 . S
N505 Co495 2.128 . S
N505 C506 1.355 . S
N505 C508 1.311 . S
C506 N505 1.355 . S
C506 C507 1.363 . S
C506 H518 0.929 . S
C507 C506 1.363 . S
C507 N509 1.375 . S
C507 H525 0.931 . S
C508 N505 1.311 . S
C508 N509 1.347 . S
C508 H519 0.929 . S
N509 C507 1.375 . S
N509 C508 1.347 . S
C510 C513 1.365 . S
C510 N515 1.328 . S
C510 H516 0.929 . S
C511 C512 1.362 . S
C511 C514 1.378 . S
C511 H526 0.929 . S
C512 C511 1.362 . S
C512 C513 1.366 . S
C513 C510 1.365 . S
C513 C512 1.366 . S
C513 H527 0.930 . S
C514 C511 1.378 . S
C514 N515 1.315 . S
C514 H517 0.930 . S
N515 Co495 2.194 . S
N515 C510 1.328 . S
N515 C514 1.315 . S
H516 C510 0.929 . S
H517 C514 0.930 . S
H518 C506 0.929 . S
H519 C508 0.929 . S
O520 Co495 2.351 . S
O520 C523 1.244 . S
O521 Co495 2.155 . S
O521 C523 1.240 . S
O522 Co495 2.096 . S
O522 C503 1.247 . S
C523 O520 1.244 . S
C523 O521 1.240 . S
H524 C498 0.931 . S
H525 C507 0.931 . S
H526 C511 0.929 . S
H527 C513 0.930 . S
Co528 N532 2.148 . S
Co528 N538 2.128 . S
Co528 N548 2.194 . S
Co528 O553 2.351 . S
Co528 O554 2.155 . S
Co528 O555 2.096 . S
C529 N532 1.301 . S
C529 N533 1.328 . S
C529 H534 0.930 . S
C530 C531 1.333 . S
C530 N532 1.317 . S
C530 H535 0.930 . S
C531 C530 1.333 . S
C531 N533 1.350 . S
C531 H557 0.931 . S
N532 Co528 2.148 . S
N532 C529 1.301 . S
N532 C530 1.317 . S
N533 C529 1.328 . S
N533 C531 1.350 . S
H534 C529 0.930 . S
H535 C530 0.930 . S
C536 O537 1.224 . S
C536 O555 1.247 . S
O537 C536 1.224 . S
N538 Co528 2.128 . S
N538 C539 1.355 . S
N538 C541 1.311 . S
C539 N538 1.355 . S
C539 C540 1.363 . S
C539 H551 0.929 . S
C540 C539 1.363 . S
C540 N542 1.375 . S
C540 H558 0.931 . S
C541 N538 1.311 . S
C541 N542 1.347 . S
C541 H552 0.929 . S
N542 C540 1.375 . S
N542 C541 1.347 . S
C543 C546 1.365 . S
C543 N548 1.328 . S
C543 H549 0.929 . S
C544 C545 1.362 . S
C544 C547 1.378 . S
C544 H559 0.929 . S
C545 C544 1.362 . S
C545 C546 1.366 . S
C546 C543 1.365 . S
C546 C545 1.366 . S
C546 H560 0.930 . S
C547 C544 1.378 . S
C547 N548 1.315 . S
C547 H550 0.930 . S
N548 Co528 2.194 . S
N548 C543 1.328 . S
N548 C547 1.315 . S
H549 C543 0.929 . S
H550 C547 0.930 . S
H551 C539 0.929 . S
H552 C541 0.929 . S
O553 Co528 2.351 . S
O553 C556 1.244 . S
O554 Co528 2.155 . S
O554 C556 1.240 . S
O555 Co528 2.096 . S
O555 C536 1.247 . S
C556 O553 1.244 . S
C556 O554 1.240 . S
H557 C531 0.931 . S
H558 C540 0.931 . S
H559 C544 0.929 . S
H560 C546 0.930 . S
Co561 N565 2.148 . S
Co561 N571 2.128 . S
Co561 N581 2.194 . S
Co561 O586 2.351 . S
Co561 O587 2.155 . S
Co561 O588 2.096 . S
C562 N565 1.301 . S
C562 N566 1.328 . S
C562 H567 0.930 . S
C563 C564 1.333 . S
C563 N565 1.317 . S
C563 H568 0.930 . S
C564 C563 1.333 . S
C564 N566 1.350 . S
C564 H590 0.931 . S
N565 Co561 2.148 . S
N565 C562 1.301 . S
N565 C563 1.317 . S
N566 C562 1.328 . S
N566 C564 1.350 . S
H567 C562 0.930 . S
H568 C563 0.930 . S
C569 O570 1.224 . S
C569 O588 1.247 . S
O570 C569 1.224 . S
N571 Co561 2.128 . S
N571 C572 1.355 . S
N571 C574 1.311 . S
C572 N571 1.355 . S
C572 C573 1.363 . S
C572 H584 0.929 . S
C573 C572 1.363 . S
C573 N575 1.375 . S
C573 H591 0.931 . S
C574 N571 1.311 . S
C574 N575 1.347 . S
C574 H585 0.929 . S
N575 C573 1.375 . S
N575 C574 1.347 . S
C576 C579 1.365 . S
C576 N581 1.328 . S
C576 H582 0.929 . S
C577 C578 1.362 . S
C577 C580 1.378 . S
C577 H592 0.929 . S
C578 C577 1.362 . S
C578 C579 1.366 . S
C579 C576 1.365 . S
C579 C578 1.366 . S
C579 H593 0.930 . S
C580 C577 1.378 . S
C580 N581 1.315 . S
C580 H583 0.930 . S
N581 Co561 2.194 . S
N581 C576 1.328 . S
N581 C580 1.315 . S
H582 C576 0.929 . S
H583 C580 0.930 . S
H584 C572 0.929 . S
H585 C574 0.929 . S
O586 Co561 2.351 . S
O586 C589 1.244 . S
O587 Co561 2.155 . S
O587 C589 1.240 . S
O588 Co561 2.096 . S
O588 C569 1.247 . S
C589 O586 1.244 . S
C589 O587 1.240 . S
H590 C564 0.931 . S
H591 C573 0.931 . S
H592 C577 0.929 . S
H593 C579 0.930 . S
Co594 N598 2.148 . S
Co594 N604 2.128 . S
Co594 N614 2.194 . S
Co594 O619 2.351 . S
Co594 O620 2.155 . S
Co594 O621 2.096 . S
C595 N598 1.301 . S
C595 N599 1.328 . S
C595 H600 0.930 . S
C596 C597 1.333 . S
C596 N598 1.317 . S
C596 H601 0.930 . S
C597 C596 1.333 . S
C597 N599 1.350 . S
C597 H623 0.931 . S
N598 Co594 2.148 . S
N598 C595 1.301 . S
N598 C596 1.317 . S
N599 C595 1.328 . S
N599 C597 1.350 . S
H600 C595 0.930 . S
H601 C596 0.930 . S
C602 O603 1.224 . S
C602 O621 1.247 . S
O603 C602 1.224 . S
N604 Co594 2.128 . S
N604 C605 1.355 . S
N604 C607 1.311 . S
C605 N604 1.355 . S
C605 C606 1.363 . S
C605 H617 0.929 . S
C606 C605 1.363 . S
C606 N608 1.375 . S
C606 H624 0.931 . S
C607 N604 1.311 . S
C607 N608 1.347 . S
C607 H618 0.929 . S
N608 C606 1.375 . S
N608 C607 1.347 . S
C609 C612 1.365 . S
C609 N614 1.328 . S
C609 H615 0.929 . S
C610 C611 1.362 . S
C610 C613 1.378 . S
C610 H625 0.929 . S
C611 C610 1.362 . S
C611 C612 1.366 . S
C612 C609 1.365 . S
C612 C611 1.366 . S
C612 H626 0.930 . S
C613 C610 1.378 . S
C613 N614 1.315 . S
C613 H616 0.930 . S
N614 Co594 2.194 . S
N614 C609 1.328 . S
N614 C613 1.315 . S
H615 C609 0.929 . S
H616 C613 0.930 . S
H617 C605 0.929 . S
H618 C607 0.929 . S
O619 Co594 2.351 . S
O619 C622 1.244 . S
O620 Co594 2.155 . S
O620 C622 1.240 . S
O621 Co594 2.096 . S
O621 C602 1.247 . S
C622 O619 1.244 . S
C622 O620 1.240 . S
H623 C597 0.931 . S
H624 C606 0.931 . S
H625 C610 0.929 . S
H626 C612 0.930 . S
Co627 N631 2.148 . S
Co627 N637 2.128 . S
Co627 N647 2.194 . S
Co627 O652 2.351 . S
Co627 O653 2.155 . S
Co627 O654 2.096 . S
C628 N631 1.301 . S
C628 N632 1.328 . S
C628 H633 0.930 . S
C629 C630 1.333 . S
C629 N631 1.317 . S
C629 H634 0.930 . S
C630 C629 1.333 . S
C630 N632 1.350 . S
C630 H656 0.931 . S
N631 Co627 2.148 . S
N631 C628 1.301 . S
N631 C629 1.317 . S
N632 C628 1.328 . S
N632 C630 1.350 . S
H633 C628 0.930 . S
H634 C629 0.930 . S
C635 O636 1.224 . S
C635 O654 1.247 . S
O636 C635 1.224 . S
N637 Co627 2.128 . S
N637 C638 1.355 . S
N637 C640 1.311 . S
C638 N637 1.355 . S
C638 C639 1.363 . S
C638 H650 0.929 . S
C639 C638 1.363 . S
C639 N641 1.375 . S
C639 H657 0.931 . S
C640 N637 1.311 . S
C640 N641 1.347 . S
C640 H651 0.929 . S
N641 C639 1.375 . S
N641 C640 1.347 . S
C642 C645 1.365 . S
C642 N647 1.328 . S
C642 H648 0.929 . S
C643 C644 1.362 . S
C643 C646 1.378 . S
C643 H658 0.929 . S
C644 C643 1.362 . S
C644 C645 1.366 . S
C645 C642 1.365 . S
C645 C644 1.366 . S
C645 H659 0.930 . S
C646 C643 1.378 . S
C646 N647 1.315 . S
C646 H649 0.930 . S
N647 Co627 2.194 . S
N647 C642 1.328 . S
N647 C646 1.315 . S
H648 C642 0.929 . S
H649 C646 0.930 . S
H650 C638 0.929 . S
H651 C640 0.929 . S
O652 Co627 2.351 . S
O652 C655 1.244 . S
O653 Co627 2.155 . S
O653 C655 1.240 . S
O654 Co627 2.096 . S
O654 C635 1.247 . S
C655 O652 1.244 . S
C655 O653 1.240 . S
H656 C630 0.931 . S
H657 C639 0.931 . S
H658 C643 0.929 . S
H659 C645 0.930 . S
Co660 N664 2.148 . S
Co660 N670 2.128 . S
Co660 N680 2.194 . S
Co660 O685 2.351 . S
Co660 O686 2.155 . S
Co660 O687 2.096 . S
C661 N664 1.301 . S
C661 N665 1.328 . S
C661 H666 0.930 . S
C662 C663 1.333 . S
C662 N664 1.317 . S
C662 H667 0.930 . S
C663 C662 1.333 . S
C663 N665 1.350 . S
C663 H689 0.931 . S
N664 Co660 2.148 . S
N664 C661 1.301 . S
N664 C662 1.317 . S
N665 C661 1.328 . S
N665 C663 1.350 . S
H666 C661 0.930 . S
H667 C662 0.930 . S
C668 O669 1.224 . S
C668 O687 1.247 . S
O669 C668 1.224 . S
N670 Co660 2.128 . S
N670 C671 1.355 . S
N670 C673 1.311 . S
C671 N670 1.355 . S
C671 C672 1.363 . S
C671 H683 0.929 . S
C672 C671 1.363 . S
C672 N674 1.375 . S
C672 H690 0.931 . S
C673 N670 1.311 . S
C673 N674 1.347 . S
C673 H684 0.929 . S
N674 C672 1.375 . S
N674 C673 1.347 . S
C675 C678 1.365 . S
C675 N680 1.328 . S
C675 H681 0.929 . S
C676 C677 1.362 . S
C676 C679 1.378 . S
C676 H691 0.929 . S
C677 C676 1.362 . S
C677 C678 1.366 . S
C678 C675 1.365 . S
C678 C677 1.366 . S
C678 H692 0.930 . S
C679 C676 1.378 . S
C679 N680 1.315 . S
C679 H682 0.930 . S
N680 Co660 2.194 . S
N680 C675 1.328 . S
N680 C679 1.315 . S
H681 C675 0.929 . S
H682 C679 0.930 . S
H683 C671 0.929 . S
H684 C673 0.929 . S
O685 Co660 2.351 . S
O685 C688 1.244 . S
O686 Co660 2.155 . S
O686 C688 1.240 . S
O687 Co660 2.096 . S
O687 C668 1.247 . S
C688 O685 1.244 . S
C688 O686 1.240 . S
H689 C663 0.931 . S
H690 C672 0.931 . S
H691 C676 0.929 . S
H692 C678 0.930 . S
Co693 N697 2.148 . S
Co693 N703 2.128 . S
Co693 N713 2.194 . S
Co693 O718 2.351 . S
Co693 O719 2.155 . S
Co693 O720 2.096 . S
C694 N697 1.301 . S
C694 N698 1.328 . S
C694 H699 0.930 . S
C695 C696 1.333 . S
C695 N697 1.317 . S
C695 H700 0.930 . S
C696 C695 1.333 . S
C696 N698 1.350 . S
C696 H722 0.931 . S
N697 Co693 2.148 . S
N697 C694 1.301 . S
N697 C695 1.317 . S
N698 C694 1.328 . S
N698 C696 1.350 . S
H699 C694 0.930 . S
H700 C695 0.930 . S
C701 O702 1.224 . S
C701 O720 1.247 . S
O702 C701 1.224 . S
N703 Co693 2.128 . S
N703 C704 1.355 . S
N703 C706 1.311 . S
C704 N703 1.355 . S
C704 C705 1.363 . S
C704 H716 0.929 . S
C705 C704 1.363 . S
C705 N707 1.375 . S
C705 H723 0.931 . S
C706 N703 1.311 . S
C706 N707 1.347 . S
C706 H717 0.929 . S
N707 C705 1.375 . S
N707 C706 1.347 . S
C708 C711 1.365 . S
C708 N713 1.328 . S
C708 H714 0.929 . S
C709 C710 1.362 . S
C709 C712 1.378 . S
C709 H724 0.929 . S
C710 C709 1.362 . S
C710 C711 1.366 . S
C711 C708 1.365 . S
C711 C710 1.366 . S
C711 H725 0.930 . S
C712 C709 1.378 . S
C712 N713 1.315 . S
C712 H715 0.930 . S
N713 Co693 2.194 . S
N713 C708 1.328 . S
N713 C712 1.315 . S
H714 C708 0.929 . S
H715 C712 0.930 . S
H716 C704 0.929 . S
H717 C706 0.929 . S
O718 Co693 2.351 . S
O718 C721 1.244 . S
O719 Co693 2.155 . S
O719 C721 1.240 . S
O720 Co693 2.096 . S
O720 C701 1.247 . S
C721 O718 1.244 . S
C721 O719 1.240 . S
H722 C696 0.931 . S
H723 C705 0.931 . S
H724 C709 0.929 . S
H725 C711 0.930 . S
Co726 N730 2.148 . S
Co726 N736 2.128 . S
Co726 N746 2.194 . S
Co726 O751 2.351 . S
Co726 O752 2.155 . S
Co726 O753 2.096 . S
C727 N730 1.301 . S
C727 N731 1.328 . S
C727 H732 0.930 . S
C728 C729 1.333 . S
C728 N730 1.317 . S
C728 H733 0.930 . S
C729 C728 1.333 . S
C729 N731 1.350 . S
C729 H755 0.931 . S
N730 Co726 2.148 . S
N730 C727 1.301 . S
N730 C728 1.317 . S
N731 C727 1.328 . S
N731 C729 1.350 . S
H732 C727 0.930 . S
H733 C728 0.930 . S
C734 O735 1.224 . S
C734 O753 1.247 . S
O735 C734 1.224 . S
N736 Co726 2.128 . S
N736 C737 1.355 . S
N736 C739 1.311 . S
C737 N736 1.355 . S
C737 C738 1.363 . S
C737 H749 0.929 . S
C738 C737 1.363 . S
C738 N740 1.375 . S
C738 H756 0.931 . S
C739 N736 1.311 . S
C739 N740 1.347 . S
C739 H750 0.929 . S
N740 C738 1.375 . S
N740 C739 1.347 . S
C741 C744 1.365 . S
C741 N746 1.328 . S
C741 H747 0.929 . S
C742 C743 1.362 . S
C742 C745 1.378 . S
C742 H757 0.929 . S
C743 C742 1.362 . S
C743 C744 1.366 . S
C744 C741 1.365 . S
C744 C743 1.366 . S
C744 H758 0.930 . S
C745 C742 1.378 . S
C745 N746 1.315 . S
C745 H748 0.930 . S
N746 Co726 2.194 . S
N746 C741 1.328 . S
N746 C745 1.315 . S
H747 C741 0.929 . S
H748 C745 0.930 . S
H749 C737 0.929 . S
H750 C739 0.929 . S
O751 Co726 2.351 . S
O751 C754 1.244 . S
O752 Co726 2.155 . S
O752 C754 1.240 . S
O753 Co726 2.096 . S
O753 C734 1.247 . S
C754 O751 1.244 . S
C754 O752 1.240 . S
H755 C729 0.931 . S
H756 C738 0.931 . S
H757 C742 0.929 . S
H758 C744 0.930 . S
Co759 N763 2.148 . S
Co759 N769 2.128 . S
Co759 N779 2.194 . S
Co759 O784 2.351 . S
Co759 O785 2.155 . S
Co759 O786 2.096 . S
C760 N763 1.301 . S
C760 N764 1.328 . S
C760 H765 0.930 . S
C761 C762 1.333 . S
C761 N763 1.317 . S
C761 H766 0.930 . S
C762 C761 1.333 . S
C762 N764 1.350 . S
C762 H788 0.931 . S
N763 Co759 2.148 . S
N763 C760 1.301 . S
N763 C761 1.317 . S
N764 C760 1.328 . S
N764 C762 1.350 . S
H765 C760 0.930 . S
H766 C761 0.930 . S
C767 O768 1.224 . S
C767 O786 1.247 . S
O768 C767 1.224 . S
N769 Co759 2.128 . S
N769 C770 1.355 . S
N769 C772 1.311 . S
C770 N769 1.355 . S
C770 C771 1.363 . S
C770 H782 0.929 . S
C771 C770 1.363 . S
C771 N773 1.375 . S
C771 H789 0.931 . S
C772 N769 1.311 . S
C772 N773 1.347 . S
C772 H783 0.929 . S
N773 C771 1.375 . S
N773 C772 1.347 . S
C774 C777 1.365 . S
C774 N779 1.328 . S
C774 H780 0.929 . S
C775 C776 1.362 . S
C775 C778 1.378 . S
C775 H790 0.929 . S
C776 C775 1.362 . S
C776 C777 1.366 . S
C777 C774 1.365 . S
C777 C776 1.366 . S
C777 H791 0.930 . S
C778 C775 1.378 . S
C778 N779 1.315 . S
C778 H781 0.930 . S
N779 Co759 2.194 . S
N779 C774 1.328 . S
N779 C778 1.315 . S
H780 C774 0.929 . S
H781 C778 0.930 . S
H782 C770 0.929 . S
H783 C772 0.929 . S
O784 Co759 2.351 . S
O784 C787 1.244 . S
O785 Co759 2.155 . S
O785 C787 1.240 . S
O786 Co759 2.096 . S
O786 C767 1.247 . S
C787 O784 1.244 . S
C787 O785 1.240 . S
H788 C762 0.931 . S
H789 C771 0.931 . S
H790 C775 0.929 . S
H791 C777 0.930 . S
H792 C800 0.929 . S
H793 C802 0.930 . S
H794 C804 0.930 . S
H795 C807 0.929 . S
H796 C810 0.930 . S
H797 C812 0.960 . S
H798 C812 0.960 . S
H799 C812 0.960 . S
C800 H792 0.929 . S
C800 C801 1.377 . S
C800 C802 1.384 . S
C801 C800 1.377 . S
C801 C807 1.390 . S
C802 H793 0.930 . S
C802 C800 1.384 . S
C802 C803 1.372 . S
C803 C802 1.372 . S
C803 C804 1.400 . S
C803 C808 1.490 . S
C804 H794 0.930 . S
C804 C803 1.400 . S
C804 C807 1.386 . S
H805 C821 0.930 . S
H806 C822 0.931 . S
C807 H795 0.929 . S
C807 C801 1.390 . S
C807 C804 1.386 . S
C808 C803 1.490 . S
C808 C810 1.395 . S
C808 C811 1.403 . S
H809 C815 0.930 . S
C810 H796 0.930 . S
C810 C808 1.395 . S
C810 C813 1.403 . S
C811 C808 1.403 . S
C811 C812 1.524 . S
C811 C815 1.400 . S
C812 H797 0.960 . S
C812 H798 0.960 . S
C812 H799 0.960 . S
C812 C811 1.524 . S
C813 C810 1.403 . S
C813 C814 1.392 . S
C813 C817 1.495 . S
C814 C813 1.392 . S
C814 C815 1.385 . S
C814 C816 1.478 . S
C815 H809 0.930 . S
C815 C811 1.400 . S
C815 C814 1.385 . S
C816 C814 1.478 . S
C816 C818 1.381 . S
C816 C822 1.383 . S
C817 C813 1.495 . S
C817 H823 0.959 . S
C817 H824 0.961 . S
C817 H825 0.960 . S
C818 C816 1.381 . S
C818 C819 1.394 . S
C818 H826 0.930 . S
C819 C818 1.394 . S
C819 C820 1.383 . S
C819 H827 0.929 . S
C820 C819 1.383 . S
C820 C821 1.377 . S
C821 H805 0.930 . S
C821 C820 1.377 . S
C821 C822 1.379 . S
C822 H806 0.931 . S
C822 C816 1.383 . S
C822 C821 1.379 . S
H823 C817 0.959 . S
H824 C817 0.961 . S
H825 C817 0.960 . S
H826 C818 0.930 . S
H827 C819 0.929 . S
H828 C836 0.929 . S
H829 C838 0.930 . S
H830 C840 0.930 . S
H831 C843 0.929 . S
H832 C846 0.930 . S
H833 C848 0.960 . S
H834 C848 0.960 . S
H835 C848 0.960 . S
C836 H828 0.929 . S
C836 C837 1.377 . S
C836 C838 1.384 . S
C837 C836 1.377 . S
C837 C843 1.390 . S
C838 H829 0.930 . S
C838 C836 1.384 . S
C838 C839 1.372 . S
C839 C838 1.372 . S
C839 C840 1.400 . S
C839 C844 1.490 . S
C840 H830 0.930 . S
C840 C839 1.400 . S
C840 C843 1.386 . S
H841 C857 0.930 . S
H842 C858 0.931 . S
C843 H831 0.929 . S
C843 C837 1.390 . S
C843 C840 1.386 . S
C844 C839 1.490 . S
C844 C846 1.395 . S
C844 C847 1.403 . S
H845 C851 0.930 . S
C846 H832 0.930 . S
C846 C844 1.395 . S
C846 C849 1.403 . S
C847 C844 1.403 . S
C847 C848 1.524 . S
C847 C851 1.400 . S
C848 H833 0.960 . S
C848 H834 0.960 . S
C848 H835 0.960 . S
C848 C847 1.524 . S
C849 C846 1.403 . S
C849 C850 1.392 . S
C849 C853 1.495 . S
C850 C849 1.392 . S
C850 C851 1.385 . S
C850 C852 1.478 . S
C851 H845 0.930 . S
C851 C847 1.400 . S
C851 C850 1.385 . S
C852 C850 1.478 . S
C852 C854 1.381 . S
C852 C858 1.383 . S
C853 C849 1.495 . S
C853 H859 0.959 . S
C853 H860 0.961 . S
C853 H861 0.960 . S
C854 C852 1.381 . S
C854 C855 1.394 . S
C854 H862 0.930 . S
C855 C854 1.394 . S
C855 C856 1.383 . S
C855 H863 0.929 . S
C856 C855 1.383 . S
C856 C857 1.377 . S
C857 H841 0.930 . S
C857 C856 1.377 . S
C857 C858 1.379 . S
C858 H842 0.931 . S
C858 C852 1.383 . S
C858 C857 1.379 . S
H859 C853 0.959 . S
H860 C853 0.961 . S
H861 C853 0.960 . S
H862 C854 0.930 . S
H863 C855 0.929 . S
H864 C872 0.929 . S
H865 C874 0.930 . S
H866 C876 0.930 . S
H867 C879 0.929 . S
H868 C882 0.930 . S
H869 C884 0.960 . S
H870 C884 0.960 . S
H871 C884 0.960 . S
C872 H864 0.929 . S
C872 C873 1.377 . S
C872 C874 1.384 . S
C873 C872 1.377 . S
C873 C879 1.390 . S
C874 H865 0.930 . S
C874 C872 1.384 . S
C874 C875 1.372 . S
C875 C874 1.372 . S
C875 C876 1.400 . S
C875 C880 1.490 . S
C876 H866 0.930 . S
C876 C875 1.400 . S
C876 C879 1.386 . S
H877 C893 0.930 . S
H878 C894 0.931 . S
C879 H867 0.929 . S
C879 C873 1.390 . S
C879 C876 1.386 . S
C880 C875 1.490 . S
C880 C882 1.395 . S
C880 C883 1.403 . S
H881 C887 0.930 . S
C882 H868 0.930 . S
C882 C880 1.395 . S
C882 C885 1.403 . S
C883 C880 1.403 . S
C883 C884 1.524 . S
C883 C887 1.400 . S
C884 H869 0.960 . S
C884 H870 0.960 . S
C884 H871 0.960 . S
C884 C883 1.524 . S
C885 C882 1.403 . S
C885 C886 1.392 . S
C885 C889 1.495 . S
C886 C885 1.392 . S
C886 C887 1.385 . S
C886 C888 1.478 . S
C887 H881 0.930 . S
C887 C883 1.400 . S
C887 C886 1.385 . S
C888 C886 1.478 . S
C888 C890 1.381 . S
C888 C894 1.383 . S
C889 C885 1.495 . S
C889 H895 0.959 . S
C889 H896 0.961 . S
C889 H897 0.960 . S
C890 C888 1.381 . S
C890 C891 1.394 . S
C890 H898 0.930 . S
C891 C890 1.394 . S
C891 C892 1.383 . S
C891 H899 0.929 . S
C892 C891 1.383 . S
C892 C893 1.377 . S
C893 H877 0.930 . S
C893 C892 1.377 . S
C893 C894 1.379 . S
C894 H878 0.931 . S
C894 C888 1.383 . S
C894 C893 1.379 . S
H895 C889 0.959 . S
H896 C889 0.961 . S
H897 C889 0.960 . S
H898 C890 0.930 . S
H899 C891 0.929 . S
H900 C908 0.929 . S
H901 C910 0.930 . S
H902 C912 0.930 . S
H903 C915 0.929 . S
H904 C918 0.930 . S
H905 C920 0.960 . S
H906 C920 0.960 . S
H907 C920 0.960 . S
C908 H900 0.929 . S
C908 C909 1.377 . S
C908 C910 1.384 . S
C909 C908 1.377 . S
C909 C915 1.390 . S
C910 H901 0.930 . S
C910 C908 1.384 . S
C910 C911 1.372 . S
C911 C910 1.372 . S
C911 C912 1.400 . S
C911 C916 1.490 . S
C912 H902 0.930 . S
C912 C911 1.400 . S
C912 C915 1.386 . S
H913 C929 0.930 . S
H914 C930 0.931 . S
C915 H903 0.929 . S
C915 C909 1.390 . S
C915 C912 1.386 . S
C916 C911 1.490 . S
C916 C918 1.395 . S
C916 C919 1.403 . S
H917 C923 0.930 . S
C918 H904 0.930 . S
C918 C916 1.395 . S
C918 C921 1.403 . S
C919 C916 1.403 . S
C919 C920 1.524 . S
C919 C923 1.400 . S
C920 H905 0.960 . S
C920 H906 0.960 . S
C920 H907 0.960 . S
C920 C919 1.524 . S
C921 C918 1.403 . S
C921 C922 1.392 . S
C921 C925 1.495 . S
C922 C921 1.392 . S
C922 C923 1.385 . S
C922 C924 1.478 . S
C923 H917 0.930 . S
C923 C919 1.400 . S
C923 C922 1.385 . S
C924 C922 1.478 . S
C924 C926 1.381 . S
C924 C930 1.383 . S
C925 C921 1.495 . S
C925 H931 0.959 . S
C925 H932 0.961 . S
C925 H933 0.960 . S
C926 C924 1.381 . S
C926 C927 1.394 . S
C926 H934 0.930 . S
C927 C926 1.394 . S
C927 C928 1.383 . S
C927 H935 0.929 . S
C928 C927 1.383 . S
C928 C929 1.377 . S
C929 H913 0.930 . S
C929 C928 1.377 . S
C929 C930 1.379 . S
C930 H914 0.931 . S
C930 C924 1.383 . S
C930 C929 1.379 . S
H931 C925 0.959 . S
H932 C925 0.961 . S
H933 C925 0.960 . S
H934 C926 0.930 . S
H935 C927 0.929 . S
H936 C944 0.929 . S
H937 C946 0.930 . S
H938 C948 0.930 . S
H939 C951 0.929 . S
H940 C954 0.930 . S
H941 C956 0.960 . S
H942 C956 0.960 . S
H943 C956 0.960 . S
C944 H936 0.929 . S
C944 C945 1.377 . S
C944 C946 1.384 . S
C945 C944 1.377 . S
C945 C951 1.390 . S
C946 H937 0.930 . S
C946 C944 1.384 . S
C946 C947 1.372 . S
C947 C946 1.372 . S
C947 C948 1.400 . S
C947 C952 1.490 . S
C948 H938 0.930 . S
C948 C947 1.400 . S
C948 C951 1.386 . S
H949 C965 0.930 . S
H950 C966 0.931 . S
C951 H939 0.929 . S
C951 C945 1.390 . S
C951 C948 1.386 . S
C952 C947 1.490 . S
C952 C954 1.395 . S
C952 C955 1.403 . S
H953 C959 0.930 . S
C954 H940 0.930 . S
C954 C952 1.395 . S
C954 C957 1.403 . S
C955 C952 1.403 . S
C955 C956 1.524 . S
C955 C959 1.400 . S
C956 H941 0.960 . S
C956 H942 0.960 . S
C956 H943 0.960 . S
C956 C955 1.524 . S
C957 C954 1.403 . S
C957 C958 1.392 . S
C957 C961 1.495 . S
C958 C957 1.392 . S
C958 C959 1.385 . S
C958 C960 1.478 . S
C959 H953 0.930 . S
C959 C955 1.400 . S
C959 C958 1.385 . S
C960 C958 1.478 . S
C960 C962 1.381 . S
C960 C966 1.383 . S
C961 C957 1.495 . S
C961 H967 0.959 . S
C961 H968 0.961 . S
C961 H969 0.960 . S
C962 C960 1.381 . S
C962 C963 1.394 . S
C962 H970 0.930 . S
C963 C962 1.394 . S
C963 C964 1.383 . S
C963 H971 0.929 . S
C964 C963 1.383 . S
C964 C965 1.377 . S
C965 H949 0.930 . S
C965 C964 1.377 . S
C965 C966 1.379 . S
C966 H950 0.931 . S
C966 C960 1.383 . S
C966 C965 1.379 . S
H967 C961 0.959 . S
H968 C961 0.961 . S
H969 C961 0.960 . S
H970 C962 0.930 . S
H971 C963 0.929 . S
H972 C980 0.929 . S
H973 C982 0.930 . S
H974 C984 0.930 . S
H975 C987 0.929 . S
H976 C990 0.930 . S
H977 C992 0.960 . S
H978 C992 0.960 . S
H979 C992 0.960 . S
C980 H972 0.929 . S
C980 C981 1.377 . S
C980 C982 1.384 . S
C981 C980 1.377 . S
C981 C987 1.390 . S
C982 H973 0.930 . S
C982 C980 1.384 . S
C982 C983 1.372 . S
C983 C982 1.372 . S
C983 C984 1.400 . S
C983 C988 1.490 . S
C984 H974 0.930 . S
C984 C983 1.400 . S
C984 C987 1.386 . S
H985 C1001 0.930 . S
H986 C1002 0.931 . S
C987 H975 0.929 . S
C987 C981 1.390 . S
C987 C984 1.386 . S
C988 C983 1.490 . S
C988 C990 1.395 . S
C988 C991 1.403 . S
H989 C995 0.930 . S
C990 H976 0.930 . S
C990 C988 1.395 . S
C990 C993 1.403 . S
C991 C988 1.403 . S
C991 C992 1.524 . S
C991 C995 1.400 . S
C992 H977 0.960 . S
C992 H978 0.960 . S
C992 H979 0.960 . S
C992 C991 1.524 . S
C993 C990 1.403 . S
C993 C994 1.392 . S
C993 C997 1.495 . S
C994 C993 1.392 . S
C994 C995 1.385 . S
C994 C996 1.478 . S
C995 H989 0.930 . S
C995 C991 1.400 . S
C995 C994 1.385 . S
C996 C994 1.478 . S
C996 C998 1.381 . S
C996 C1002 1.383 . S
C997 C993 1.495 . S
C997 H1003 0.959 . S
C997 H1004 0.961 . S
C997 H1005 0.960 . S
C998 C996 1.381 . S
C998 C999 1.394 . S
C998 H1006 0.930 . S
C999 C998 1.394 . S
C999 C1000 1.383 . S
C999 H1007 0.929 . S
C1000 C999 1.383 . S
C1000 C1001 1.377 . S
C1001 H985 0.930 . S
C1001 C1000 1.377 . S
C1001 C1002 1.379 . S
C1002 H986 0.931 . S
C1002 C996 1.383 . S
C1002 C1001 1.379 . S
H1003 C997 0.959 . S
H1004 C997 0.961 . S
H1005 C997 0.960 . S
H1006 C998 0.930 . S
H1007 C999 0.929 . S
H1008 C1016 0.929 . S
H1009 C1018 0.930 . S
H1010 C1020 0.930 . S
H1011 C1023 0.929 . S
H1012 C1026 0.930 . S
H1013 C1028 0.960 . S
H1014 C1028 0.960 . S
H1015 C1028 0.960 . S
C1016 H1008 0.929 . S
C1016 C1017 1.377 . S
C1016 C1018 1.384 . S
C1017 C1016 1.377 . S
C1017 C1023 1.390 . S
C1018 H1009 0.930 . S
C1018 C1016 1.384 . S
C1018 C1019 1.372 . S
C1019 C1018 1.372 . S
C1019 C1020 1.400 . S
C1019 C1024 1.490 . S
C1020 H1010 0.930 . S
C1020 C1019 1.400 . S
C1020 C1023 1.386 . S
H1021 C1037 0.930 . S
H1022 C1038 0.931 . S
C1023 H1011 0.929 . S
C1023 C1017 1.390 . S
C1023 C1020 1.386 . S
C1024 C1019 1.490 . S
C1024 C1026 1.395 . S
C1024 C1027 1.403 . S
H1025 C1031 0.930 . S
C1026 H1012 0.930 . S
C1026 C1024 1.395 . S
C1026 C1029 1.403 . S
C1027 C1024 1.403 . S
C1027 C1028 1.524 . S
C1027 C1031 1.400 . S
C1028 H1013 0.960 . S
C1028 H1014 0.960 . S
C1028 H1015 0.960 . S
C1028 C1027 1.524 . S
C1029 C1026 1.403 . S
C1029 C1030 1.392 . S
C1029 C1033 1.495 . S
C1030 C1029 1.392 . S
C1030 C1031 1.385 . S
C1030 C1032 1.478 . S
C1031 H1025 0.930 . S
C1031 C1027 1.400 . S
C1031 C1030 1.385 . S
C1032 C1030 1.478 . S
C1032 C1034 1.381 . S
C1032 C1038 1.383 . S
C1033 C1029 1.495 . S
C1033 H1039 0.959 . S
C1033 H1040 0.961 . S
C1033 H1041 0.960 . S
C1034 C1032 1.381 . S
C1034 C1035 1.394 . S
C1034 H1042 0.930 . S
C1035 C1034 1.394 . S
C1035 C1036 1.383 . S
C1035 H1043 0.929 . S
C1036 C1035 1.383 . S
C1036 C1037 1.377 . S
C1037 H1021 0.930 . S
C1037 C1036 1.377 . S
C1037 C1038 1.379 . S
C1038 H1022 0.931 . S
C1038 C1032 1.383 . S
C1038 C1037 1.379 . S
H1039 C1033 0.959 . S
H1040 C1033 0.961 . S
H1041 C1033 0.960 . S
H1042 C1034 0.930 . S
H1043 C1035 0.929 . S
H1044 C1052 0.929 . S
H1045 C1054 0.930 . S
H1046 C1056 0.930 . S
H1047 C1059 0.929 . S
H1048 C1062 0.930 . S
H1049 C1064 0.960 . S
H1050 C1064 0.960 . S
H1051 C1064 0.960 . S
C1052 H1044 0.929 . S
C1052 C1053 1.377 . S
C1052 C1054 1.384 . S
C1053 C1052 1.377 . S
C1053 C1059 1.390 . S
C1054 H1045 0.930 . S
C1054 C1052 1.384 . S
C1054 C1055 1.372 . S
C1055 C1054 1.372 . S
C1055 C1056 1.400 . S
C1055 C1060 1.490 . S
C1056 H1046 0.930 . S
C1056 C1055 1.400 . S
C1056 C1059 1.386 . S
H1057 C1073 0.930 . S
H1058 C1074 0.931 . S
C1059 H1047 0.929 . S
C1059 C1053 1.390 . S
C1059 C1056 1.386 . S
C1060 C1055 1.490 . S
C1060 C1062 1.395 . S
C1060 C1063 1.403 . S
H1061 C1067 0.930 . S
C1062 H1048 0.930 . S
C1062 C1060 1.395 . S
C1062 C1065 1.403 . S
C1063 C1060 1.403 . S
C1063 C1064 1.524 . S
C1063 C1067 1.400 . S
C1064 H1049 0.960 . S
C1064 H1050 0.960 . S
C1064 H1051 0.960 . S
C1064 C1063 1.524 . S
C1065 C1062 1.403 . S
C1065 C1066 1.392 . S
C1065 C1069 1.495 . S
C1066 C1065 1.392 . S
C1066 C1067 1.385 . S
C1066 C1068 1.478 . S
C1067 H1061 0.930 . S
C1067 C1063 1.400 . S
C1067 C1066 1.385 . S
C1068 C1066 1.478 . S
C1068 C1070 1.381 . S
C1068 C1074 1.383 . S
C1069 C1065 1.495 . S
C1069 H1075 0.959 . S
C1069 H1076 0.961 . S
C1069 H1077 0.960 . S
C1070 C1068 1.381 . S
C1070 C1071 1.394 . S
C1070 H1078 0.930 . S
C1071 C1070 1.394 . S
C1071 C1072 1.383 . S
C1071 H1079 0.929 . S
C1072 C1071 1.383 . S
C1072 C1073 1.377 . S
C1073 H1057 0.930 . S
C1073 C1072 1.377 . S
C1073 C1074 1.379 . S
C1074 H1058 0.931 . S
C1074 C1068 1.383 . S
C1074 C1073 1.379 . S
H1075 C1069 0.959 . S
H1076 C1069 0.961 . S
H1077 C1069 0.960 . S
H1078 C1070 0.930 . S
H1079 C1071 0.929 . S
H1080 C1088 0.929 . S
H1081 C1090 0.930 . S
H1082 C1092 0.930 . S
H1083 C1095 0.929 . S
H1084 C1098 0.930 . S
H1085 C1100 0.960 . S
H1086 C1100 0.960 . S
H1087 C1100 0.960 . S
C1088 H1080 0.929 . S
C1088 C1089 1.377 . S
C1088 C1090 1.384 . S
C1089 C1088 1.377 . S
C1089 C1095 1.390 . S
C1090 H1081 0.930 . S
C1090 C1088 1.384 . S
C1090 C1091 1.372 . S
C1091 C1090 1.372 . S
C1091 C1092 1.400 . S
C1091 C1096 1.490 . S
C1092 H1082 0.930 . S
C1092 C1091 1.400 . S
C1092 C1095 1.386 . S
H1093 C1109 0.930 . S
H1094 C1110 0.931 . S
C1095 H1083 0.929 . S
C1095 C1089 1.390 . S
C1095 C1092 1.386 . S
C1096 C1091 1.490 . S
C1096 C1098 1.395 . S
C1096 C1099 1.403 . S
H1097 C1103 0.930 . S
C1098 H1084 0.930 . S
C1098 C1096 1.395 . S
C1098 C1101 1.403 . S
C1099 C1096 1.403 . S
C1099 C1100 1.524 . S
C1099 C1103 1.400 . S
C1100 H1085 0.960 . S
C1100 H1086 0.960 . S
C1100 H1087 0.960 . S
C1100 C1099 1.524 . S
C1101 C1098 1.403 . S
C1101 C1102 1.392 . S
C1101 C1105 1.495 . S
C1102 C1101 1.392 . S
C1102 C1103 1.385 . S
C1102 C1104 1.478 . S
C1103 H1097 0.930 . S
C1103 C1099 1.400 . S
C1103 C1102 1.385 . S
C1104 C1102 1.478 . S
C1104 C1106 1.381 . S
C1104 C1110 1.383 . S
C1105 C1101 1.495 . S
C1105 H1111 0.959 . S
C1105 H1112 0.961 . S
C1105 H1113 0.960 . S
C1106 C1104 1.381 . S
C1106 C1107 1.394 . S
C1106 H1114 0.930 . S
C1107 C1106 1.394 . S
C1107 C1108 1.383 . S
C1107 H1115 0.929 . S
C1108 C1107 1.383 . S
C1108 C1109 1.377 . S
C1109 H1093 0.930 . S
C1109 C1108 1.377 . S
C1109 C1110 1.379 . S
C1110 H1094 0.931 . S
C1110 C1104 1.383 . S
C1110 C1109 1.379 . S
H1111 C1105 0.959 . S
H1112 C1105 0.961 . S
H1113 C1105 0.960 . S
H1114 C1106 0.930 . S
H1115 C1107 0.929 . S
H1116 C1124 0.929 . S
H1117 C1126 0.930 . S
H1118 C1128 0.930 . S
H1119 C1131 0.929 . S
H1120 C1134 0.930 . S
H1121 C1136 0.960 . S
H1122 C1136 0.960 . S
H1123 C1136 0.960 . S
C1124 H1116 0.929 . S
C1124 C1125 1.377 . S
C1124 C1126 1.384 . S
C1125 C1124 1.377 . S
C1125 C1131 1.390 . S
C1126 H1117 0.930 . S
C1126 C1124 1.384 . S
C1126 C1127 1.372 . S
C1127 C1126 1.372 . S
C1127 C1128 1.400 . S
C1127 C1132 1.490 . S
C1128 H1118 0.930 . S
C1128 C1127 1.400 . S
C1128 C1131 1.386 . S
H1129 C1145 0.930 . S
H1130 C1146 0.931 . S
C1131 H1119 0.929 . S
C1131 C1125 1.390 . S
C1131 C1128 1.386 . S
C1132 C1127 1.490 . S
C1132 C1134 1.395 . S
C1132 C1135 1.403 . S
H1133 C1139 0.930 . S
C1134 H1120 0.930 . S
C1134 C1132 1.395 . S
C1134 C1137 1.403 . S
C1135 C1132 1.403 . S
C1135 C1136 1.524 . S
C1135 C1139 1.400 . S
C1136 H1121 0.960 . S
C1136 H1122 0.960 . S
C1136 H1123 0.960 . S
C1136 C1135 1.524 . S
C1137 C1134 1.403 . S
C1137 C1138 1.392 . S
C1137 C1141 1.495 . S
C1138 C1137 1.392 . S
C1138 C1139 1.385 . S
C1138 C1140 1.478 . S
C1139 H1133 0.930 . S
C1139 C1135 1.400 . S
C1139 C1138 1.385 . S
C1140 C1138 1.478 . S
C1140 C1142 1.381 . S
C1140 C1146 1.383 . S
C1141 C1137 1.495 . S
C1141 H1147 0.959 . S
C1141 H1148 0.961 . S
C1141 H1149 0.960 . S
C1142 C1140 1.381 . S
C1142 C1143 1.394 . S
C1142 H1150 0.930 . S
C1143 C1142 1.394 . S
C1143 C1144 1.383 . S
C1143 H1151 0.929 . S
C1144 C1143 1.383 . S
C1144 C1145 1.377 . S
C1145 H1129 0.930 . S
C1145 C1144 1.377 . S
C1145 C1146 1.379 . S
C1146 H1130 0.931 . S
C1146 C1140 1.383 . S
C1146 C1145 1.379 . S
H1147 C1141 0.959 . S
H1148 C1141 0.961 . S
H1149 C1141 0.960 . S
H1150 C1142 0.930 . S
H1151 C1143 0.929 . S
H1152 C1160 0.929 . S
H1153 C1162 0.930 . S
H1154 C1164 0.930 . S
H1155 C1167 0.929 . S
H1156 C1170 0.930 . S
H1157 C1172 0.960 . S
H1158 C1172 0.960 . S
H1159 C1172 0.960 . S
C1160 H1152 0.929 . S
C1160 C1161 1.377 . S
C1160 C1162 1.384 . S
C1161 C1160 1.377 . S
C1161 C1167 1.390 . S
C1162 H1153 0.930 . S
C1162 C1160 1.384 . S
C1162 C1163 1.372 . S
C1163 C1162 1.372 . S
C1163 C1164 1.400 . S
C1163 C1168 1.490 . S
C1164 H1154 0.930 . S
C1164 C1163 1.400 . S
C1164 C1167 1.386 . S
H1165 C1181 0.930 . S
H1166 C1182 0.931 . S
C1167 H1155 0.929 . S
C1167 C1161 1.390 . S
C1167 C1164 1.386 . S
C1168 C1163 1.490 . S
C1168 C1170 1.395 . S
C1168 C1171 1.403 . S
H1169 C1175 0.930 . S
C1170 H1156 0.930 . S
C1170 C1168 1.395 . S
C1170 C1173 1.403 . S
C1171 C1168 1.403 . S
C1171 C1172 1.524 . S
C1171 C1175 1.400 . S
C1172 H1157 0.960 . S
C1172 H1158 0.960 . S
C1172 H1159 0.960 . S
C1172 C1171 1.524 . S
C1173 C1170 1.403 . S
C1173 C1174 1.392 . S
C1173 C1177 1.495 . S
C1174 C1173 1.392 . S
C1174 C1175 1.385 . S
C1174 C1176 1.478 . S
C1175 H1169 0.930 . S
C1175 C1171 1.400 . S
C1175 C1174 1.385 . S
C1176 C1174 1.478 . S
C1176 C1178 1.381 . S
C1176 C1182 1.383 . S
C1177 C1173 1.495 . S
C1177 H1183 0.959 . S
C1177 H1184 0.961 . S
C1177 H1185 0.960 . S
C1178 C1176 1.381 . S
C1178 C1179 1.394 . S
C1178 H1186 0.930 . S
C1179 C1178 1.394 . S
C1179 C1180 1.383 . S
C1179 H1187 0.929 . S
C1180 C1179 1.383 . S
C1180 C1181 1.377 . S
C1181 H1165 0.930 . S
C1181 C1180 1.377 . S
C1181 C1182 1.379 . S
C1182 H1166 0.931 . S
C1182 C1176 1.383 . S
C1182 C1181 1.379 . S
H1183 C1177 0.959 . S
H1184 C1177 0.961 . S
H1185 C1177 0.960 . S
H1186 C1178 0.930 . S
H1187 C1179 0.929 . S
H1188 C1196 0.929 . S
H1189 C1198 0.930 . S
H1190 C1200 0.930 . S
H1191 C1203 0.929 . S
H1192 C1206 0.930 . S
H1193 C1208 0.960 . S
H1194 C1208 0.960 . S
H1195 C1208 0.960 . S
C1196 H1188 0.929 . S
C1196 C1197 1.377 . S
C1196 C1198 1.384 . S
C1197 C1196 1.377 . S
C1197 C1203 1.390 . S
C1198 H1189 0.930 . S
C1198 C1196 1.384 . S
C1198 C1199 1.372 . S
C1199 C1198 1.372 . S
C1199 C1200 1.400 . S
C1199 C1204 1.490 . S
C1200 H1190 0.930 . S
C1200 C1199 1.400 . S
C1200 C1203 1.386 . S
H1201 C1217 0.930 . S
H1202 C1218 0.931 . S
C1203 H1191 0.929 . S
C1203 C1197 1.390 . S
C1203 C1200 1.386 . S
C1204 C1199 1.490 . S
C1204 C1206 1.395 . S
C1204 C1207 1.403 . S
H1205 C1211 0.930 . S
C1206 H1192 0.930 . S
C1206 C1204 1.395 . S
C1206 C1209 1.403 . S
C1207 C1204 1.403 . S
C1207 C1208 1.524 . S
C1207 C1211 1.400 . S
C1208 H1193 0.960 . S
C1208 H1194 0.960 . S
C1208 H1195 0.960 . S
C1208 C1207 1.524 . S
C1209 C1206 1.403 . S
C1209 C1210 1.392 . S
C1209 C1213 1.495 . S
C1210 C1209 1.392 . S
C1210 C1211 1.385 . S
C1210 C1212 1.478 . S
C1211 H1205 0.930 . S
C1211 C1207 1.400 . S
C1211 C1210 1.385 . S
C1212 C1210 1.478 . S
C1212 C1214 1.381 . S
C1212 C1218 1.383 . S
C1213 C1209 1.495 . S
C1213 H1219 0.959 . S
C1213 H1220 0.961 . S
C1213 H1221 0.960 . S
C1214 C1212 1.381 . S
C1214 C1215 1.394 . S
C1214 H1222 0.930 . S
C1215 C1214 1.394 . S
C1215 C1216 1.383 . S
C1215 H1223 0.929 . S
C1216 C1215 1.383 . S
C1216 C1217 1.377 . S
C1217 H1201 0.930 . S
C1217 C1216 1.377 . S
C1217 C1218 1.379 . S
C1218 H1202 0.931 . S
C1218 C1212 1.383 . S
C1218 C1217 1.379 . S
H1219 C1213 0.959 . S
H1220 C1213 0.961 . S
H1221 C1213 0.960 . S
H1222 C1214 0.930 . S
H1223 C1215 0.929 . S
H1224 C1232 0.929 . S
H1225 C1234 0.930 . S
H1226 C1236 0.930 . S
H1227 C1239 0.929 . S
H1228 C1242 0.958 . S
H1229 C1244 0.960 1_545 S
H1230 C1244 0.960 . S
H1231 C1244 0.960 . S
C1232 H1224 0.929 . S
C1232 C1233 1.377 . S
C1232 C1234 1.384 . S
C1233 C1232 1.377 . S
C1233 C1239 1.390 . S
C1234 H1225 0.930 . S
C1234 C1232 1.384 . S
C1234 C1235 1.372 . S
C1235 C1234 1.372 . S
C1235 C1236 1.400 . S
C1235 C1240 1.490 . S
C1236 H1226 0.930 . S
C1236 C1235 1.400 . S
C1236 C1239 1.386 . S
H1237 C1253 0.930 . S
H1238 C1254 0.931 . S
C1239 H1227 0.929 . S
C1239 C1233 1.390 . S
C1239 C1236 1.386 . S
C1240 C1235 1.490 . S
C1240 C1242 1.395 1_565 S
C1240 C1243 1.403 1_565 S
H1241 C1247 0.930 . S
C1242 H1228 0.958 . S
C1242 C1240 1.395 1_545 S
C1242 C1245 1.403 . S
C1243 C1240 1.403 1_545 S
C1243 C1244 1.524 1_545 S
C1243 C1247 1.400 . S
C1244 H1229 0.960 1_565 S
C1244 H1230 0.960 . S
C1244 H1231 0.960 . S
C1244 C1243 1.524 1_565 S
C1245 C1242 1.403 . S
C1245 C1246 1.392 . S
C1245 C1249 1.495 . S
C1246 C1245 1.392 . S
C1246 C1247 1.385 . S
C1246 C1248 1.478 . S
C1247 H1241 0.930 . S
C1247 C1243 1.400 . S
C1247 C1246 1.385 . S
C1248 C1246 1.478 . S
C1248 C1250 1.381 . S
C1248 C1254 1.383 . S
C1249 C1245 1.495 . S
C1249 H1255 0.959 . S
C1249 H1256 0.961 . S
C1249 H1257 0.960 . S
C1250 C1248 1.381 . S
C1250 C1251 1.394 . S
C1250 H1258 0.930 . S
C1251 C1250 1.394 . S
C1251 C1252 1.383 . S
C1251 H1259 0.929 . S
C1252 C1251 1.383 . S
C1252 C1253 1.377 . S
C1253 H1237 0.930 . S
C1253 C1252 1.377 . S
C1253 C1254 1.379 . S
C1254 H1238 0.931 . S
C1254 C1248 1.383 . S
C1254 C1253 1.379 . S
H1255 C1249 0.959 . S
H1256 C1249 0.961 . S
H1257 C1249 0.960 . S
H1258 C1250 0.930 . S
H1259 C1251 0.929 . S
H1260 C1268 0.929 . S
H1261 C1270 0.930 . S
H1262 C1272 0.930 . S
H1263 C1275 0.929 . S
H1264 C1278 0.930 . S
H1265 C1280 0.960 . S
H1266 C1280 0.960 . S
H1267 C1280 0.960 . S
C1268 H1260 0.929 . S
C1268 C1269 1.377 . S
C1268 C1270 1.384 . S
C1269 C1268 1.377 . S
C1269 C1275 1.390 . S
C1270 H1261 0.930 . S
C1270 C1268 1.384 . S
C1270 C1271 1.372 . S
C1271 C1270 1.372 . S
C1271 C1272 1.400 . S
C1271 C1276 1.490 . S
C1272 H1262 0.930 . S
C1272 C1271 1.400 . S
C1272 C1275 1.386 . S
H1273 C1289 0.930 . S
H1274 C1290 0.931 . S
C1275 H1263 0.929 . S
C1275 C1269 1.390 . S
C1275 C1272 1.386 . S
C1276 C1271 1.490 . S
C1276 C1278 1.395 . S
C1276 C1279 1.403 . S
H1277 C1283 0.930 1_455 S
C1278 H1264 0.930 . S
C1278 C1276 1.395 . S
C1278 C1281 1.403 . S
C1279 C1276 1.403 . S
C1279 C1280 1.524 . S
C1279 C1283 1.400 . S
C1280 H1265 0.960 . S
C1280 H1266 0.960 . S
C1280 H1267 0.960 . S
C1280 C1279 1.524 . S
C1281 C1278 1.403 . S
C1281 C1282 1.392 1_655 S
C1281 C1285 1.495 1_655 S
C1282 C1281 1.392 1_455 S
C1282 C1283 1.385 1_455 S
C1282 C1284 1.478 . S
C1283 H1277 0.930 1_655 S
C1283 C1279 1.400 . S
C1283 C1282 1.385 1_655 S
C1284 C1282 1.478 . S
C1284 C1286 1.381 . S
C1284 C1290 1.383 . S
C1285 C1281 1.495 1_455 S
C1285 H1291 0.959 1_455 S
C1285 H1292 0.961 . S
C1285 H1293 0.960 . S
C1286 C1284 1.381 . S
C1286 C1287 1.394 . S
C1286 H1294 0.930 . S
C1287 C1286 1.394 . S
C1287 C1288 1.383 . S
C1287 H1295 0.929 . S
C1288 C1287 1.383 . S
C1288 C1289 1.377 . S
C1289 H1273 0.930 . S
C1289 C1288 1.377 . S
C1289 C1290 1.379 . S
C1290 H1274 0.931 . S
C1290 C1284 1.383 . S
C1290 C1289 1.379 . S
H1291 C1285 0.959 1_655 S
H1292 C1285 0.961 . S
H1293 C1285 0.960 . S
H1294 C1286 0.930 . S
H1295 C1287 0.929 . S
H1296 C1304 0.929 . S
H1297 C1306 0.930 . S
H1298 C1308 0.930 . S
H1299 C1311 0.929 . S
H1300 C1314 0.930 . S
H1301 C1316 0.960 . S
H1302 C1316 0.960 . S
H1303 C1316 0.960 . S
C1304 H1296 0.929 . S
C1304 C1305 1.377 . S
C1304 C1306 1.384 . S
C1305 C1304 1.377 . S
C1305 C1311 1.390 . S
C1306 H1297 0.930 . S
C1306 C1304 1.384 . S
C1306 C1307 1.372 . S
C1307 C1306 1.372 . S
C1307 C1308 1.400 . S
C1307 C1312 1.490 . S
C1308 H1298 0.930 . S
C1308 C1307 1.400 . S
C1308 C1311 1.386 . S
H1309 C1325 0.930 . S
H1310 C1326 0.931 . S
C1311 H1299 0.929 . S
C1311 C1305 1.390 . S
C1311 C1308 1.386 . S
C1312 C1307 1.490 . S
C1312 C1314 1.395 . S
C1312 C1315 1.403 . S
H1313 C1319 0.930 1_545 S
C1314 H1300 0.930 . S
C1314 C1312 1.395 . S
C1314 C1317 1.403 . S
C1315 C1312 1.403 . S
C1315 C1316 1.524 . S
C1315 C1319 1.400 . S
C1316 H1301 0.960 . S
C1316 H1302 0.960 . S
C1316 H1303 0.960 . S
C1316 C1315 1.524 . S
C1317 C1314 1.403 . S
C1317 C1318 1.392 1_565 S
C1317 C1321 1.495 1_565 S
C1318 C1317 1.392 1_545 S
C1318 C1319 1.385 1_545 S
C1318 C1320 1.478 . S
C1319 H1313 0.930 1_565 S
C1319 C1315 1.400 . S
C1319 C1318 1.385 1_565 S
C1320 C1318 1.478 . S
C1320 C1322 1.381 . S
C1320 C1326 1.383 . S
C1321 C1317 1.495 1_545 S
C1321 H1327 0.959 1_545 S
C1321 H1328 0.961 . S
C1321 H1329 0.960 . S
C1322 C1320 1.381 . S
C1322 C1323 1.394 . S
C1322 H1330 0.930 . S
C1323 C1322 1.394 . S
C1323 C1324 1.383 . S
C1323 H1331 0.929 . S
C1324 C1323 1.383 . S
C1324 C1325 1.377 . S
C1325 H1309 0.930 . S
C1325 C1324 1.377 . S
C1325 C1326 1.379 . S
C1326 H1310 0.931 . S
C1326 C1320 1.383 . S
C1326 C1325 1.379 . S
H1327 C1321 0.959 1_565 S
H1328 C1321 0.961 . S
H1329 C1321 0.960 . S
H1330 C1322 0.930 . S
H1331 C1323 0.929 . S
H1332 C1340 0.929 . S
H1333 C1342 0.930 . S
H1334 C1344 0.930 . S
H1335 C1347 0.929 . S
H1336 C1350 0.930 1_655 S
H1337 C1352 0.960 . S
H1338 C1352 0.960 1_655 S
H1339 C1352 0.960 1_655 S
C1340 H1332 0.929 . S
C1340 C1341 1.377 . S
C1340 C1342 1.384 . S
C1341 C1340 1.377 . S
C1341 C1347 1.390 . S
C1342 H1333 0.930 . S
C1342 C1340 1.384 . S
C1342 C1343 1.372 . S
C1343 C1342 1.372 . S
C1343 C1344 1.400 . S
C1343 C1348 1.490 . S
C1344 H1334 0.930 . S
C1344 C1343 1.400 . S
C1344 C1347 1.386 . S
H1345 C1361 0.930 . S
H1346 C1362 0.931 . S
C1347 H1335 0.929 . S
C1347 C1341 1.390 . S
C1347 C1344 1.386 . S
C1348 C1343 1.490 . S
C1348 C1350 1.395 1_655 S
C1348 C1351 1.403 1_655 S
H1349 C1355 0.930 . S
C1350 H1336 0.930 1_455 S
C1350 C1348 1.395 1_455 S
C1350 C1353 1.403 . S
C1351 C1348 1.403 1_455 S
C1351 C1352 1.524 . S
C1351 C1355 1.400 . S
C1352 H1337 0.960 . S
C1352 H1338 0.960 1_455 S
C1352 H1339 0.960 1_455 S
C1352 C1351 1.524 . S
C1353 C1350 1.403 . S
C1353 C1354 1.392 . S
C1353 C1357 1.495 . S
C1354 C1353 1.392 . S
C1354 C1355 1.385 . S
C1354 C1356 1.478 . S
C1355 H1349 0.930 . S
C1355 C1351 1.400 . S
C1355 C1354 1.385 . S
C1356 C1354 1.478 . S
C1356 C1358 1.381 . S
C1356 C1362 1.383 . S
C1357 C1353 1.495 . S
C1357 H1363 0.959 . S
C1357 H1364 0.961 . S
C1357 H1365 0.960 . S
C1358 C1356 1.381 . S
C1358 C1359 1.394 . S
C1358 H1366 0.930 . S
C1359 C1358 1.394 . S
C1359 C1360 1.383 . S
C1359 H1367 0.929 . S
C1360 C1359 1.383 . S
C1360 C1361 1.377 . S
C1361 H1345 0.930 . S
C1361 C1360 1.377 . S
C1361 C1362 1.379 . S
C1362 H1346 0.931 . S
C1362 C1356 1.383 . S
C1362 C1361 1.379 . S
H1363 C1357 0.959 . S
H1364 C1357 0.961 . S
H1365 C1357 0.960 . S
H1366 C1358 0.930 . S
H1367 C1359 0.929 . S
H1368 C1376 0.929 . S
H1369 C1378 0.930 . S
H1370 C1380 0.930 . S
H1371 C1383 0.929 . S
H1372 C1386 0.930 1_545 S
H1373 C1388 1.000 . S
H1374 C1388 0.931 1_545 S
H1375 C1388 0.936 1_545 S
C1376 H1368 0.929 . S
C1376 C1377 1.377 . S
C1376 C1378 1.384 . S
C1377 C1376 1.377 . S
C1377 C1383 1.390 . S
C1378 H1369 0.930 . S
C1378 C1376 1.384 . S
C1378 C1379 1.372 . S
C1379 C1378 1.372 . S
C1379 C1380 1.400 . S
C1379 C1384 1.490 . S
C1380 H1370 0.930 . S
C1380 C1379 1.400 . S
C1380 C1383 1.386 . S
H1381 C1397 0.930 . S
H1382 C1398 0.931 . S
C1383 H1371 0.929 . S
C1383 C1377 1.390 . S
C1383 C1380 1.386 . S
C1384 C1379 1.490 . S
C1384 C1386 1.395 1_545 S
C1384 C1387 1.403 1_545 S
H1385 C1391 0.930 . S
C1386 H1372 0.930 1_565 S
C1386 C1384 1.395 1_565 S
C1386 C1389 1.403 . S
C1387 C1384 1.403 1_565 S
C1387 C1388 1.540 . S
C1387 C1391 1.400 . S
C1388 H1373 1.000 . S
C1388 H1374 0.931 1_565 S
C1388 H1375 0.936 1_565 S
C1388 C1387 1.540 . S
C1389 C1386 1.403 . S
C1389 C1390 1.392 . S
C1389 C1393 1.495 . S
C1390 C1389 1.392 . S
C1390 C1391 1.385 . S
C1390 C1392 1.478 . S
C1391 H1385 0.930 . S
C1391 C1387 1.400 . S
C1391 C1390 1.385 . S
C1392 C1390 1.478 . S
C1392 C1394 1.381 . S
C1392 C1398 1.383 . S
C1393 C1389 1.495 . S
C1393 H1399 0.959 . S
C1393 H1400 0.961 . S
C1393 H1401 0.960 . S
C1394 C1392 1.381 . S
C1394 C1395 1.394 . S
C1394 H1402 0.930 . S
C1395 C1394 1.394 . S
C1395 C1396 1.383 . S
C1395 H1403 0.929 . S
C1396 C1395 1.383 . S
C1396 C1397 1.377 . S
C1397 H1381 0.930 . S
C1397 C1396 1.377 . S
C1397 C1398 1.379 . S
C1398 H1382 0.931 . S
C1398 C1392 1.383 . S
C1398 C1397 1.379 . S
H1399 C1393 0.959 . S
H1400 C1393 0.961 . S
H1401 C1393 0.960 . S
H1402 C1394 0.930 . S
H1403 C1395 0.929 . S
H1404 C1412 0.929 . S
H1405 C1414 0.930 . S
H1406 C1416 0.930 . S
H1407 C1419 0.929 . S
H1408 C1422 0.930 . S
H1409 C1424 0.960 . S
H1410 C1424 0.960 . S
H1411 C1424 0.960 . S
C1412 H1404 0.929 . S
C1412 C1413 1.377 . S
C1412 C1414 1.384 . S
C1413 C1412 1.377 . S
C1413 C1419 1.390 . S
C1414 H1405 0.930 . S
C1414 C1412 1.384 . S
C1414 C1415 1.372 . S
C1415 C1414 1.372 . S
C1415 C1416 1.400 . S
C1415 C1420 1.490 . S
C1416 H1406 0.930 . S
C1416 C1415 1.400 . S
C1416 C1419 1.386 . S
H1417 C1433 0.930 . S
H1418 C1434 0.931 . S
C1419 H1407 0.929 . S
C1419 C1413 1.390 . S
C1419 C1416 1.386 . S
C1420 C1415 1.490 . S
C1420 C1422 1.395 . S
C1420 C1423 1.403 . S
H1421 C1427 0.929 1_655 S
C1422 H1408 0.930 . S
C1422 C1420 1.395 . S
C1422 C1425 1.403 . S
C1423 C1420 1.403 . S
C1423 C1424 1.524 . S
C1423 C1427 1.400 . S
C1424 H1409 0.960 . S
C1424 H1410 0.960 . S
C1424 H1411 0.960 . S
C1424 C1423 1.524 . S
C1425 C1422 1.403 . S
C1425 C1426 1.392 1_455 S
C1425 C1429 1.495 1_455 S
C1426 C1425 1.392 1_655 S
C1426 C1427 1.385 1_655 S
C1426 C1428 1.478 . S
C1427 H1421 0.929 1_455 S
C1427 C1423 1.400 . S
C1427 C1426 1.385 1_455 S
C1428 C1426 1.478 . S
C1428 C1430 1.381 . S
C1428 C1434 1.383 . S
C1429 C1425 1.495 1_655 S
C1429 H1435 0.978 . S
C1429 H1436 0.961 . S
C1429 H1437 0.960 . S
C1430 C1428 1.381 . S
C1430 C1431 1.394 . S
C1430 H1438 0.930 . S
C1431 C1430 1.394 . S
C1431 C1432 1.383 . S
C1431 H1439 0.929 . S
C1432 C1431 1.383 . S
C1432 C1433 1.377 . S
C1433 H1417 0.930 . S
C1433 C1432 1.377 . S
C1433 C1434 1.379 . S
C1434 H1418 0.931 . S
C1434 C1428 1.383 . S
C1434 C1433 1.379 . S
H1435 C1429 0.978 . S
H1436 C1429 0.961 . S
H1437 C1429 0.960 . S
H1438 C1430 0.930 . S
H1439 C1431 0.929 . S
H1440 C1448 0.929 . S
H1441 C1450 0.930 . S
H1442 C1452 0.930 . S
H1443 C1455 0.929 . S
H1444 C1458 0.930 1_565 S
H1445 C1460 0.960 1_545 S
H1446 C1460 0.960 . S
H1447 C1460 0.960 . S
C1448 H1440 0.929 . S
C1448 C1449 1.377 . S
C1448 C1450 1.384 . S
C1449 C1448 1.377 . S
C1449 C1455 1.390 . S
C1450 H1441 0.930 . S
C1450 C1448 1.384 . S
C1450 C1451 1.372 . S
C1451 C1450 1.372 . S
C1451 C1452 1.400 . S
C1451 C1456 1.490 . S
C1452 H1442 0.930 . S
C1452 C1451 1.400 . S
C1452 C1455 1.386 . S
H1453 C1469 0.930 . S
H1454 C1470 0.931 . S
C1455 H1443 0.929 . S
C1455 C1449 1.390 . S
C1455 C1452 1.386 . S
C1456 C1451 1.490 . S
C1456 C1458 1.395 1_565 S
C1456 C1459 1.403 1_565 S
H1457 C1463 0.930 . S
C1458 H1444 0.930 1_545 S
C1458 C1456 1.395 1_545 S
C1458 C1461 1.403 . S
C1459 C1456 1.403 1_545 S
C1459 C1460 1.524 1_545 S
C1459 C1463 1.400 . S
C1460 H1445 0.960 1_565 S
C1460 H1446 0.960 . S
C1460 H1447 0.960 . S
C1460 C1459 1.524 1_565 S
C1461 C1458 1.403 . S
C1461 C1462 1.392 . S
C1461 C1465 1.495 . S
C1462 C1461 1.392 . S
C1462 C1463 1.385 . S
C1462 C1464 1.478 . S
C1463 H1457 0.930 . S
C1463 C1459 1.400 . S
C1463 C1462 1.385 . S
C1464 C1462 1.478 . S
C1464 C1466 1.381 . S
C1464 C1470 1.383 . S
C1465 C1461 1.495 . S
C1465 H1471 0.959 . S
C1465 H1472 0.961 . S
C1465 H1473 0.960 . S
C1466 C1464 1.381 . S
C1466 C1467 1.394 . S
C1466 H1474 0.930 . S
C1467 C1466 1.394 . S
C1467 C1468 1.383 . S
C1467 H1475 0.929 . S
C1468 C1467 1.383 . S
C1468 C1469 1.377 . S
C1469 H1453 0.930 . S
C1469 C1468 1.377 . S
C1469 C1470 1.379 . S
C1470 H1454 0.931 . S
C1470 C1464 1.383 . S
C1470 C1469 1.379 . S
H1471 C1465 0.959 . S
H1472 C1465 0.961 . S
H1473 C1465 0.960 . S
H1474 C1466 0.930 . S
H1475 C1467 0.929 . S
H1476 C1484 0.929 . S
H1477 C1486 0.930 . S
H1478 C1488 0.930 . S
H1479 C1491 0.929 . S
H1480 C1494 0.930 . S
H1481 C1496 0.923 1_655 S
H1482 C1496 0.960 . S
H1483 C1496 0.960 . S
C1484 H1476 0.929 . S
C1484 C1485 1.377 . S
C1484 C1486 1.384 . S
C1485 C1484 1.377 . S
C1485 C1491 1.390 . S
C1486 H1477 0.930 . S
C1486 C1484 1.384 . S
C1486 C1487 1.372 . S
C1487 C1486 1.372 . S
C1487 C1488 1.400 . S
C1487 C1492 1.490 . S
C1488 H1478 0.930 . S
C1488 C1487 1.400 . S
C1488 C1491 1.386 . S
H1489 C1505 0.930 . S
H1490 C1506 0.931 . S
C1491 H1479 0.929 . S
C1491 C1485 1.390 . S
C1491 C1488 1.386 . S
C1492 C1487 1.490 . S
C1492 C1494 1.395 1_455 S
C1492 C1495 1.403 1_455 S
H1493 C1499 0.930 . S
C1494 H1480 0.930 . S
C1494 C1492 1.395 1_655 S
C1494 C1497 1.403 . S
C1495 C1492 1.403 1_655 S
C1495 C1496 1.524 1_655 S
C1495 C1499 1.400 . S
C1496 H1481 0.923 1_455 S
C1496 H1482 0.960 . S
C1496 H1483 0.960 . S
C1496 C1495 1.524 1_455 S
C1497 C1494 1.403 . S
C1497 C1498 1.392 . S
C1497 C1501 1.495 . S
C1498 C1497 1.392 . S
C1498 C1499 1.385 . S
C1498 C1500 1.478 . S
C1499 H1493 0.930 . S
C1499 C1495 1.400 . S
C1499 C1498 1.385 . S
C1500 C1498 1.478 . S
C1500 C1502 1.381 . S
C1500 C1506 1.383 . S
C1501 C1497 1.495 . S
C1501 H1507 0.959 . S
C1501 H1508 0.961 . S
C1501 H1509 0.960 . S
C1502 C1500 1.381 . S
C1502 C1503 1.394 . S
C1502 H1510 0.930 . S
C1503 C1502 1.394 . S
C1503 C1504 1.383 . S
C1503 H1511 0.929 . S
C1504 C1503 1.383 . S
C1504 C1505 1.377 . S
C1505 H1489 0.930 . S
C1505 C1504 1.377 . S
C1505 C1506 1.379 . S
C1506 H1490 0.931 . S
C1506 C1500 1.383 . S
C1506 C1505 1.379 . S
H1507 C1501 0.959 . S
H1508 C1501 0.961 . S
H1509 C1501 0.960 . S
H1510 C1502 0.930 . S
H1511 C1503 0.929 . S
H1512 C1520 0.929 . S
H1513 C1522 0.930 . S
H1514 C1524 0.930 . S
H1515 C1527 0.929 . S
H1516 C1530 0.930 1_556 S
H1517 C1532 0.960 1_554 S
H1518 C1532 0.960 . S
H1519 C1532 0.960 . S
C1520 H1512 0.929 . S
C1520 C1521 1.377 . S
C1520 C1522 1.384 . S
C1521 C1520 1.377 . S
C1521 C1527 1.390 . S
C1522 H1513 0.930 . S
C1522 C1520 1.384 . S
C1522 C1523 1.372 . S
C1523 C1522 1.372 . S
C1523 C1524 1.400 . S
C1523 C1528 1.490 . S
C1524 H1514 0.930 . S
C1524 C1523 1.400 . S
C1524 C1527 1.386 . S
H1525 C1541 0.930 . S
H1526 C1542 0.931 . S
C1527 H1515 0.929 . S
C1527 C1521 1.390 . S
C1527 C1524 1.386 . S
C1528 C1523 1.490 . S
C1528 C1530 1.395 1_556 S
C1528 C1531 1.403 1_556 S
H1529 C1535 0.930 . S
C1530 H1516 0.930 1_554 S
C1530 C1528 1.395 1_554 S
C1530 C1533 1.403 . S
C1531 C1528 1.403 1_554 S
C1531 C1532 1.524 1_554 S
C1531 C1535 1.400 . S
C1532 H1517 0.960 1_556 S
C1532 H1518 0.960 . S
C1532 H1519 0.960 . S
C1532 C1531 1.524 1_556 S
C1533 C1530 1.403 . S
C1533 C1534 1.392 . S
C1533 C1537 1.495 . S
C1534 C1533 1.392 . S
C1534 C1535 1.385 . S
C1534 C1536 1.478 . S
C1535 H1529 0.930 . S
C1535 C1531 1.400 . S
C1535 C1534 1.385 . S
C1536 C1534 1.478 . S
C1536 C1538 1.381 . S
C1536 C1542 1.383 . S
C1537 C1533 1.495 . S
C1537 H1543 0.959 . S
C1537 H1544 0.961 . S
C1537 H1545 0.960 . S
C1538 C1536 1.381 . S
C1538 C1539 1.394 . S
C1538 H1546 0.930 . S
C1539 C1538 1.394 . S
C1539 C1540 1.383 . S
C1539 H1547 0.929 . S
C1540 C1539 1.383 . S
C1540 C1541 1.377 . S
C1541 H1525 0.930 . S
C1541 C1540 1.377 . S
C1541 C1542 1.379 . S
C1542 H1526 0.931 . S
C1542 C1536 1.383 . S
C1542 C1541 1.379 . S
H1543 C1537 0.959 . S
H1544 C1537 0.961 . S
H1545 C1537 0.960 . S
H1546 C1538 0.930 . S
H1547 C1539 0.929 . S
H1548 C1556 0.929 . S
H1549 C1558 0.930 . S
H1550 C1560 0.930 . S
H1551 C1563 0.929 . S
H1552 C1566 0.930 . S
H1553 C1568 0.960 . S
H1554 C1568 0.960 . S
H1555 C1568 0.960 . S
C1556 H1548 0.929 . S
C1556 C1557 1.377 . S
C1556 C1558 1.384 . S
C1557 C1556 1.377 . S
C1557 C1563 1.390 . S
C1558 H1549 0.930 . S
C1558 C1556 1.384 . S
C1558 C1559 1.372 . S
C1559 C1558 1.372 . S
C1559 C1560 1.400 . S
C1559 C1564 1.490 . S
C1560 H1550 0.930 . S
C1560 C1559 1.400 . S
C1560 C1563 1.386 . S
H1561 C1577 0.930 . S
H1562 C1578 0.931 . S
C1563 H1551 0.929 . S
C1563 C1557 1.390 . S
C1563 C1560 1.386 . S
C1564 C1559 1.490 . S
C1564 C1566 1.395 . S
C1564 C1567 1.403 . S
H1565 C1571 0.930 1_556 S
C1566 H1552 0.930 . S
C1566 C1564 1.395 . S
C1566 C1569 1.403 . S
C1567 C1564 1.403 . S
C1567 C1568 1.524 . S
C1567 C1571 1.400 . S
C1568 H1553 0.960 . S
C1568 H1554 0.960 . S
C1568 H1555 0.960 . S
C1568 C1567 1.524 . S
C1569 C1566 1.403 . S
C1569 C1570 1.392 1_554 S
C1569 C1573 1.495 . S
C1570 C1569 1.392 1_556 S
C1570 C1571 1.385 1_556 S
C1570 C1572 1.478 . S
C1571 H1565 0.930 1_554 S
C1571 C1567 1.400 . S
C1571 C1570 1.385 1_554 S
C1572 C1570 1.478 . S
C1572 C1574 1.381 . S
C1572 C1578 1.383 . S
C1573 C1569 1.495 . S
C1573 H1579 0.959 . S
C1573 H1580 0.961 1_554 S
C1573 H1581 0.960 1_554 S
C1574 C1572 1.381 . S
C1574 C1575 1.394 . S
C1574 H1582 0.930 . S
C1575 C1574 1.394 . S
C1575 C1576 1.383 . S
C1575 H1583 0.929 . S
C1576 C1575 1.383 . S
C1576 C1577 1.377 . S
C1577 H1561 0.930 . S
C1577 C1576 1.377 . S
C1577 C1578 1.379 . S
C1578 H1562 0.931 . S
C1578 C1572 1.383 . S
C1578 C1577 1.379 . S
H1579 C1573 0.959 . S
H1580 C1573 0.961 1_556 S
H1581 C1573 0.960 1_556 S
H1582 C1574 0.930 . S
H1583 C1575 0.929 . S
H1584 C1592 0.929 . S
H1585 C1594 0.930 . S
H1586 C1596 0.930 . S
H1587 C1599 0.929 . S
H1588 C1602 0.922 1_556 S
H1589 C1604 0.960 1_554 S
H1590 C1604 0.960 . S
H1591 C1604 0.960 . S
C1592 H1584 0.929 . S
C1592 C1593 1.377 . S
C1592 C1594 1.384 . S
C1593 C1592 1.377 . S
C1593 C1599 1.390 . S
C1594 H1585 0.930 . S
C1594 C1592 1.384 . S
C1594 C1595 1.372 . S
C1595 C1594 1.372 . S
C1595 C1596 1.400 . S
C1595 C1600 1.490 . S
C1596 H1586 0.930 . S
C1596 C1595 1.400 . S
C1596 C1599 1.386 . S
H1597 C1613 0.930 . S
H1598 C1614 0.931 . S
C1599 H1587 0.929 . S
C1599 C1593 1.390 . S
C1599 C1596 1.386 . S
C1600 C1595 1.490 . S
C1600 C1602 1.395 1_556 S
C1600 C1603 1.403 1_556 S
H1601 C1607 0.930 . S
C1602 H1588 0.922 1_554 S
C1602 C1600 1.395 1_554 S
C1602 C1605 1.403 . S
C1603 C1600 1.403 1_554 S
C1603 C1604 1.524 1_554 S
C1603 C1607 1.400 . S
C1604 H1589 0.960 1_556 S
C1604 H1590 0.960 . S
C1604 H1591 0.960 . S
C1604 C1603 1.524 1_556 S
C1605 C1602 1.403 . S
C1605 C1606 1.392 . S
C1605 C1609 1.495 . S
C1606 C1605 1.392 . S
C1606 C1607 1.385 . S
C1606 C1608 1.478 . S
C1607 H1601 0.930 . S
C1607 C1603 1.400 . S
C1607 C1606 1.385 . S
C1608 C1606 1.478 . S
C1608 C1610 1.381 . S
C1608 C1614 1.383 . S
C1609 C1605 1.495 . S
C1609 H1615 0.959 . S
C1609 H1616 0.961 . S
C1609 H1617 0.960 . S
C1610 C1608 1.381 . S
C1610 C1611 1.394 . S
C1610 H1618 0.930 . S
C1611 C1610 1.394 . S
C1611 C1612 1.383 . S
C1611 H1619 0.929 . S
C1612 C1611 1.383 . S
C1612 C1613 1.377 . S
C1613 H1597 0.930 . S
C1613 C1612 1.377 . S
C1613 C1614 1.379 . S
C1614 H1598 0.931 . S
C1614 C1608 1.383 . S
C1614 C1613 1.379 . S
H1615 C1609 0.959 . S
H1616 C1609 0.961 . S
H1617 C1609 0.960 . S
H1618 C1610 0.930 . S
H1619 C1611 0.929 . S
H1620 C1628 0.929 . S
H1621 C1630 0.930 . S
H1622 C1632 0.930 . S
H1623 C1635 0.929 . S
H1624 C1638 0.930 . S
H1625 C1640 0.960 . S
H1626 C1640 0.960 . S
H1627 C1640 0.960 . S
C1628 H1620 0.929 . S
C1628 C1629 1.377 . S
C1628 C1630 1.384 . S
C1629 C1628 1.377 . S
C1629 C1635 1.390 . S
C1630 H1621 0.930 . S
C1630 C1628 1.384 . S
C1630 C1631 1.372 . S
C1631 C1630 1.372 . S
C1631 C1632 1.400 . S
C1631 C1636 1.490 . S
C1632 H1622 0.930 . S
C1632 C1631 1.400 . S
C1632 C1635 1.386 . S
H1633 C1649 0.930 . S
H1634 C1650 0.931 . S
C1635 H1623 0.929 . S
C1635 C1629 1.390 . S
C1635 C1632 1.386 . S
C1636 C1631 1.490 . S
C1636 C1638 1.395 . S
C1636 C1639 1.403 . S
H1637 C1643 0.930 1_556 S
C1638 H1624 0.930 . S
C1638 C1636 1.395 . S
C1638 C1641 1.403 . S
C1639 C1636 1.403 . S
C1639 C1640 1.524 . S
C1639 C1643 1.400 . S
C1640 H1625 0.960 . S
C1640 H1626 0.960 . S
C1640 H1627 0.960 . S
C1640 C1639 1.524 . S
C1641 C1638 1.403 . S
C1641 C1642 1.392 1_554 S
C1641 C1645 1.495 . S
C1642 C1641 1.392 1_556 S
C1642 C1643 1.385 1_556 S
C1642 C1644 1.478 . S
C1643 H1637 0.930 1_554 S
C1643 C1639 1.400 . S
C1643 C1642 1.385 1_554 S
C1644 C1642 1.478 . S
C1644 C1646 1.381 . S
C1644 C1650 1.383 . S
C1645 C1641 1.495 . S
C1645 H1651 0.959 . S
C1645 H1652 0.961 1_554 S
C1645 H1653 0.960 1_554 S
C1646 C1644 1.381 . S
C1646 C1647 1.394 . S
C1646 H1654 0.930 . S
C1647 C1646 1.394 . S
C1647 C1648 1.383 . S
C1647 H1655 0.929 . S
C1648 C1647 1.383 . S
C1648 C1649 1.377 . S
C1649 H1633 0.930 . S
C1649 C1648 1.377 . S
C1649 C1650 1.379 . S
C1650 H1634 0.931 . S
C1650 C1644 1.383 . S
C1650 C1649 1.379 . S
H1651 C1645 0.959 . S
H1652 C1645 0.961 1_556 S
H1653 C1645 0.960 1_556 S
H1654 C1646 0.930 . S
H1655 C1647 0.929 . S
H1656 C1664 0.929 . S
H1657 C1666 0.930 . S
H1658 C1668 0.930 . S
H1659 C1671 0.929 . S
H1660 C1674 0.930 1_554 S
H1661 C1676 0.976 . S
H1662 C1676 0.948 1_554 S
H1663 C1676 0.950 1_554 S
C1664 H1656 0.929 . S
C1664 C1665 1.377 . S
C1664 C1666 1.384 . S
C1665 C1664 1.377 . S
C1665 C1671 1.390 . S
C1666 H1657 0.930 . S
C1666 C1664 1.384 . S
C1666 C1667 1.372 . S
C1667 C1666 1.372 . S
C1667 C1668 1.400 . S
C1667 C1672 1.490 . S
C1668 H1658 0.930 . S
C1668 C1667 1.400 . S
C1668 C1671 1.386 . S
H1669 C1685 0.930 . S
H1670 C1686 0.931 . S
C1671 H1659 0.929 . S
C1671 C1665 1.390 . S
C1671 C1668 1.386 . S
C1672 C1667 1.490 . S
C1672 C1674 1.395 1_554 S
C1672 C1675 1.403 1_554 S
H1673 C1679 0.930 . S
C1674 H1660 0.930 1_556 S
C1674 C1672 1.395 1_556 S
C1674 C1677 1.403 . S
C1675 C1672 1.403 1_556 S
C1675 C1676 1.530 . S
C1675 C1679 1.400 . S
C1676 H1661 0.976 . S
C1676 H1662 0.948 1_556 S
C1676 H1663 0.950 1_556 S
C1676 C1675 1.530 . S
C1677 C1674 1.403 . S
C1677 C1678 1.392 . S
C1677 C1681 1.495 . S
C1678 C1677 1.392 . S
C1678 C1679 1.385 . S
C1678 C1680 1.478 . S
C1679 H1673 0.930 . S
C1679 C1675 1.400 . S
C1679 C1678 1.385 . S
C1680 C1678 1.478 . S
C1680 C1682 1.381 . S
C1680 C1686 1.383 . S
C1681 C1677 1.495 . S
C1681 H1687 0.959 . S
C1681 H1688 0.961 . S
C1681 H1689 0.960 . S
C1682 C1680 1.381 . S
C1682 C1683 1.394 . S
C1682 H1690 0.930 . S
C1683 C1682 1.394 . S
C1683 C1684 1.383 . S
C1683 H1691 0.929 . S
C1684 C1683 1.383 . S
C1684 C1685 1.377 . S
C1685 H1669 0.930 . S
C1685 C1684 1.377 . S
C1685 C1686 1.379 . S
C1686 H1670 0.931 . S
C1686 C1680 1.383 . S
C1686 C1685 1.379 . S
H1687 C1681 0.959 . S
H1688 C1681 0.961 . S
H1689 C1681 0.960 . S
H1690 C1682 0.930 . S
H1691 C1683 0.929 . S
H1692 C1700 0.929 . S
H1693 C1702 0.930 . S
H1694 C1704 0.930 . S
H1695 C1707 0.929 . S
H1696 C1710 0.930 . S
H1697 C1712 0.960 . S
H1698 C1712 0.960 . S
H1699 C1712 0.960 . S
C1700 H1692 0.929 . S
C1700 C1701 1.377 . S
C1700 C1702 1.384 . S
C1701 C1700 1.377 . S
C1701 C1707 1.390 . S
C1702 H1693 0.930 . S
C1702 C1700 1.384 . S
C1702 C1703 1.372 . S
C1703 C1702 1.372 . S
C1703 C1704 1.400 . S
C1703 C1708 1.490 . S
C1704 H1694 0.930 . S
C1704 C1703 1.400 . S
C1704 C1707 1.386 . S
H1705 C1721 0.930 . S
H1706 C1722 0.931 . S
C1707 H1695 0.929 . S
C1707 C1701 1.390 . S
C1707 C1704 1.386 . S
C1708 C1703 1.490 . S
C1708 C1710 1.395 . S
C1708 C1711 1.403 . S
H1709 C1715 0.930 1_554 S
C1710 H1696 0.930 . S
C1710 C1708 1.395 . S
C1710 C1713 1.403 . S
C1711 C1708 1.403 . S
C1711 C1712 1.524 . S
C1711 C1715 1.400 . S
C1712 H1697 0.960 . S
C1712 H1698 0.960 . S
C1712 H1699 0.960 . S
C1712 C1711 1.524 . S
C1713 C1710 1.403 . S
C1713 C1714 1.392 1_556 S
C1713 C1717 1.495 . S
C1714 C1713 1.392 1_554 S
C1714 C1715 1.385 1_554 S
C1714 C1716 1.478 . S
C1715 H1709 0.930 1_556 S
C1715 C1711 1.400 . S
C1715 C1714 1.385 1_556 S
C1716 C1714 1.478 . S
C1716 C1718 1.381 . S
C1716 C1722 1.383 . S
C1717 C1713 1.495 . S
C1717 H1723 0.959 . S
C1717 H1724 0.961 1_556 S
C1717 H1725 0.960 1_556 S
C1718 C1716 1.381 . S
C1718 C1719 1.394 . S
C1718 H1726 0.930 . S
C1719 C1718 1.394 . S
C1719 C1720 1.383 . S
C1719 H1727 0.929 . S
C1720 C1719 1.383 . S
C1720 C1721 1.377 . S
C1721 H1705 0.930 . S
C1721 C1720 1.377 . S
C1721 C1722 1.379 . S
C1722 H1706 0.931 . S
C1722 C1716 1.383 . S
C1722 C1721 1.379 . S
H1723 C1717 0.959 . S
H1724 C1717 0.961 1_554 S
H1725 C1717 0.960 1_554 S
H1726 C1718 0.930 . S
H1727 C1719 0.929 . S
H1728 C1736 0.929 . S
H1729 C1738 0.930 . S
H1730 C1740 0.930 . S
H1731 C1743 0.929 . S
H1732 C1746 0.930 1_554 S
H1733 C1748 0.960 . S
H1734 C1748 0.960 1_554 S
H1735 C1748 0.960 1_554 S
C1736 H1728 0.929 . S
C1736 C1737 1.377 . S
C1736 C1738 1.384 . S
C1737 C1736 1.377 . S
C1737 C1743 1.390 . S
C1738 H1729 0.930 . S
C1738 C1736 1.384 . S
C1738 C1739 1.372 . S
C1739 C1738 1.372 . S
C1739 C1740 1.400 . S
C1739 C1744 1.490 . S
C1740 H1730 0.930 . S
C1740 C1739 1.400 . S
C1740 C1743 1.386 . S
H1741 C1757 0.930 . S
H1742 C1758 0.931 . S
C1743 H1731 0.929 . S
C1743 C1737 1.390 . S
C1743 C1740 1.386 . S
C1744 C1739 1.490 . S
C1744 C1746 1.395 1_554 S
C1744 C1747 1.403 1_554 S
H1745 C1751 0.930 . S
C1746 H1732 0.930 1_556 S
C1746 C1744 1.395 1_556 S
C1746 C1749 1.403 . S
C1747 C1744 1.403 1_556 S
C1747 C1748 1.524 . S
C1747 C1751 1.400 . S
C1748 H1733 0.960 . S
C1748 H1734 0.960 1_556 S
C1748 H1735 0.960 1_556 S
C1748 C1747 1.524 . S
C1749 C1746 1.403 . S
C1749 C1750 1.392 . S
C1749 C1753 1.495 . S
C1750 C1749 1.392 . S
C1750 C1751 1.385 . S
C1750 C1752 1.478 . S
C1751 H1745 0.930 . S
C1751 C1747 1.400 . S
C1751 C1750 1.385 . S
C1752 C1750 1.478 . S
C1752 C1754 1.381 . S
C1752 C1758 1.383 . S
C1753 C1749 1.495 . S
C1753 H1759 0.959 . S
C1753 H1760 0.961 . S
C1753 H1761 0.960 . S
C1754 C1752 1.381 . S
C1754 C1755 1.394 . S
C1754 H1762 0.930 . S
C1755 C1754 1.394 . S
C1755 C1756 1.383 . S
C1755 H1763 0.929 . S
C1756 C1755 1.383 . S
C1756 C1757 1.377 . S
C1757 H1741 0.930 . S
C1757 C1756 1.377 . S
C1757 C1758 1.379 . S
C1758 H1742 0.931 . S
C1758 C1752 1.383 . S
C1758 C1757 1.379 . S
H1759 C1753 0.959 . S
H1760 C1753 0.961 . S
H1761 C1753 0.960 . S
H1762 C1754 0.930 . S
H1763 C1755 0.929 . S
H1764 C1772 0.929 . S
H1765 C1774 0.930 . S
H1766 C1776 0.930 . S
H1767 C1779 0.929 . S
H1768 C1782 0.930 . S
H1769 C1784 0.960 . S
H1770 C1784 0.960 . S
H1771 C1784 0.960 . S
C1772 H1764 0.929 . S
C1772 C1773 1.377 . S
C1772 C1774 1.384 . S
C1773 C1772 1.377 . S
C1773 C1779 1.390 . S
C1774 H1765 0.930 . S
C1774 C1772 1.384 . S
C1774 C1775 1.372 . S
C1775 C1774 1.372 . S
C1775 C1776 1.400 . S
C1775 C1780 1.490 . S
C1776 H1766 0.930 . S
C1776 C1775 1.400 . S
C1776 C1779 1.386 . S
H1777 C1793 0.930 . S
H1778 C1794 0.931 . S
C1779 H1767 0.929 . S
C1779 C1773 1.390 . S
C1779 C1776 1.386 . S
C1780 C1775 1.490 . S
C1780 C1782 1.395 . S
C1780 C1783 1.403 . S
H1781 C1787 0.930 1_554 S
C1782 H1768 0.930 . S
C1782 C1780 1.395 . S
C1782 C1785 1.403 . S
C1783 C1780 1.403 . S
C1783 C1784 1.524 . S
C1783 C1787 1.400 . S
C1784 H1769 0.960 . S
C1784 H1770 0.960 . S
C1784 H1771 0.960 . S
C1784 C1783 1.524 . S
C1785 C1782 1.403 . S
C1785 C1786 1.392 1_556 S
C1785 C1789 1.495 . S
C1786 C1785 1.392 1_554 S
C1786 C1787 1.385 1_554 S
C1786 C1788 1.478 . S
C1787 H1781 0.930 1_556 S
C1787 C1783 1.400 . S
C1787 C1786 1.385 1_556 S
C1788 C1786 1.478 . S
C1788 C1790 1.381 . S
C1788 C1794 1.383 . S
C1789 C1785 1.495 . S
C1789 H1795 0.959 . S
C1789 H1796 0.961 1_556 S
C1789 H1797 0.960 1_556 S
C1790 C1788 1.381 . S
C1790 C1791 1.394 . S
C1790 H1798 0.930 . S
C1791 C1790 1.394 . S
C1791 C1792 1.383 . S
C1791 H1799 0.929 . S
C1792 C1791 1.383 . S
C1792 C1793 1.377 . S
C1793 H1777 0.930 . S
C1793 C1792 1.377 . S
C1793 C1794 1.379 . S
C1794 H1778 0.931 . S
C1794 C1788 1.383 . S
C1794 C1793 1.379 . S
H1795 C1789 0.959 . S
H1796 C1789 0.961 1_554 S
H1797 C1789 0.960 1_554 S
H1798 C1790 0.930 . S
H1799 C1791 0.929 . S
H1800 C1808 0.929 . S
H1801 C1810 0.930 . S
H1802 C1812 0.930 . S
H1803 C1815 0.929 . S
H1804 C1818 0.907 1_655 S
H1805 C1820 0.960 1_455 S
H1806 C1820 0.960 . S
H1807 C1820 0.960 . S
C1808 H1800 0.929 . S
C1808 C1809 1.377 . S
C1808 C1810 1.384 . S
C1809 C1808 1.377 . S
C1809 C1815 1.390 . S
C1810 H1801 0.930 . S
C1810 C1808 1.384 . S
C1810 C1811 1.372 . S
C1811 C1810 1.372 . S
C1811 C1812 1.400 . S
C1811 C1816 1.490 . S
C1812 H1802 0.930 . S
C1812 C1811 1.400 . S
C1812 C1815 1.386 . S
H1813 C1829 0.930 . S
H1814 C1830 0.931 . S
C1815 H1803 0.929 . S
C1815 C1809 1.390 . S
C1815 C1812 1.386 . S
C1816 C1811 1.490 . S
C1816 C1818 1.395 1_655 S
C1816 C1819 1.403 1_655 S
H1817 C1823 0.930 . S
C1818 H1804 0.907 1_455 S
C1818 C1816 1.395 1_455 S
C1818 C1821 1.403 . S
C1819 C1816 1.403 1_455 S
C1819 C1820 1.524 1_455 S
C1819 C1823 1.400 . S
C1820 H1805 0.960 1_655 S
C1820 H1806 0.960 . S
C1820 H1807 0.960 . S
C1820 C1819 1.524 1_655 S
C1821 C1818 1.403 . S
C1821 C1822 1.392 . S
C1821 C1825 1.495 . S
C1822 C1821 1.392 . S
C1822 C1823 1.385 . S
C1822 C1824 1.478 . S
C1823 H1817 0.930 . S
C1823 C1819 1.400 . S
C1823 C1822 1.385 . S
C1824 C1822 1.478 . S
C1824 C1826 1.381 . S
C1824 C1830 1.383 . S
C1825 C1821 1.495 . S
C1825 H1831 0.959 . S
C1825 H1832 0.961 . S
C1825 H1833 0.960 . S
C1826 C1824 1.381 . S
C1826 C1827 1.394 . S
C1826 H1834 0.930 . S
C1827 C1826 1.394 . S
C1827 C1828 1.383 . S
C1827 H1835 0.929 . S
C1828 C1827 1.383 . S
C1828 C1829 1.377 . S
C1829 H1813 0.930 . S
C1829 C1828 1.377 . S
C1829 C1830 1.379 . S
C1830 H1814 0.931 . S
C1830 C1824 1.383 . S
C1830 C1829 1.379 . S
H1831 C1825 0.959 . S
H1832 C1825 0.961 . S
H1833 C1825 0.960 . S
H1834 C1826 0.930 . S
H1835 C1827 0.929 . S
H1836 C1844 0.929 . S
H1837 C1846 0.930 . S
H1838 C1848 0.930 . S
H1839 C1851 0.929 . S
H1840 C1854 0.930 1_655 S
H1841 C1856 0.960 1_455 S
H1842 C1856 0.960 . S
H1843 C1856 0.960 . S
C1844 H1836 0.929 . S
C1844 C1845 1.377 . S
C1844 C1846 1.384 . S
C1845 C1844 1.377 . S
C1845 C1851 1.390 . S
C1846 H1837 0.930 . S
C1846 C1844 1.384 . S
C1846 C1847 1.372 . S
C1847 C1846 1.372 . S
C1847 C1848 1.400 . S
C1847 C1852 1.490 . S
C1848 H1838 0.930 . S
C1848 C1847 1.400 . S
C1848 C1851 1.386 . S
H1849 C1865 0.930 . S
H1850 C1866 0.931 . S
C1851 H1839 0.929 . S
C1851 C1845 1.390 . S
C1851 C1848 1.386 . S
C1852 C1847 1.490 . S
C1852 C1854 1.395 1_655 S
C1852 C1855 1.403 1_655 S
H1853 C1859 0.930 . S
C1854 H1840 0.930 1_455 S
C1854 C1852 1.395 1_455 S
C1854 C1857 1.403 . S
C1855 C1852 1.403 1_455 S
C1855 C1856 1.524 1_455 S
C1855 C1859 1.400 . S
C1856 H1841 0.960 1_655 S
C1856 H1842 0.960 . S
C1856 H1843 0.960 . S
C1856 C1855 1.524 1_655 S
C1857 C1854 1.403 . S
C1857 C1858 1.392 . S
C1857 C1861 1.495 . S
C1858 C1857 1.392 . S
C1858 C1859 1.385 . S
C1858 C1860 1.478 . S
C1859 H1853 0.930 . S
C1859 C1855 1.400 . S
C1859 C1858 1.385 . S
C1860 C1858 1.478 . S
C1860 C1862 1.381 . S
C1860 C1866 1.383 . S
C1861 C1857 1.495 . S
C1861 H1867 0.959 . S
C1861 H1868 0.961 . S
C1861 H1869 0.960 . S
C1862 C1860 1.381 . S
C1862 C1863 1.394 . S
C1862 H1870 0.930 . S
C1863 C1862 1.394 . S
C1863 C1864 1.383 . S
C1863 H1871 0.929 . S
C1864 C1863 1.383 . S
C1864 C1865 1.377 . S
C1865 H1849 0.930 . S
C1865 C1864 1.377 . S
C1865 C1866 1.379 . S
C1866 H1850 0.931 . S
C1866 C1860 1.383 . S
C1866 C1865 1.379 . S
H1867 C1861 0.959 . S
H1868 C1861 0.961 . S
H1869 C1861 0.960 . S
H1870 C1862 0.930 . S
H1871 C1863 0.929 . S
H1872 C1880 0.929 . S
H1873 C1882 0.930 . S
H1874 C1884 0.930 . S
H1875 C1887 0.929 . S
H1876 C1890 0.930 . S
H1877 C1892 0.960 . S
H1878 C1892 0.960 . S
H1879 C1892 0.960 . S
C1880 H1872 0.929 . S
C1880 C1881 1.377 . S
C1880 C1882 1.384 . S
C1881 C1880 1.377 . S
C1881 C1887 1.390 . S
C1882 H1873 0.930 . S
C1882 C1880 1.384 . S
C1882 C1883 1.372 . S
C1883 C1882 1.372 . S
C1883 C1884 1.400 . S
C1883 C1888 1.490 . S
C1884 H1874 0.930 . S
C1884 C1883 1.400 . S
C1884 C1887 1.386 . S
H1885 C1901 0.930 . S
H1886 C1902 0.931 . S
C1887 H1875 0.929 . S
C1887 C1881 1.390 . S
C1887 C1884 1.386 . S
C1888 C1883 1.490 . S
C1888 C1890 1.395 . S
C1888 C1891 1.403 . S
H1889 C1895 0.930 1_565 S
C1890 H1876 0.930 . S
C1890 C1888 1.395 . S
C1890 C1893 1.403 . S
C1891 C1888 1.403 . S
C1891 C1892 1.524 . S
C1891 C1895 1.400 . S
C1892 H1877 0.960 . S
C1892 H1878 0.960 . S
C1892 H1879 0.960 . S
C1892 C1891 1.524 . S
C1893 C1890 1.403 . S
C1893 C1894 1.392 1_545 S
C1893 C1897 1.495 . S
C1894 C1893 1.392 1_565 S
C1894 C1895 1.385 1_565 S
C1894 C1896 1.478 . S
C1895 H1889 0.930 1_545 S
C1895 C1891 1.400 . S
C1895 C1894 1.385 1_545 S
C1896 C1894 1.478 . S
C1896 C1898 1.381 . S
C1896 C1902 1.383 . S
C1897 C1893 1.495 . S
C1897 H1903 0.959 . S
C1897 H1904 0.961 1_545 S
C1897 H1905 0.960 1_545 S
C1898 C1896 1.381 . S
C1898 C1899 1.394 . S
C1898 H1906 0.930 . S
C1899 C1898 1.394 . S
C1899 C1900 1.383 . S
C1899 H1907 0.929 . S
C1900 C1899 1.383 . S
C1900 C1901 1.377 . S
C1901 H1885 0.930 . S
C1901 C1900 1.377 . S
C1901 C1902 1.379 . S
C1902 H1886 0.931 . S
C1902 C1896 1.383 . S
C1902 C1901 1.379 . S
H1903 C1897 0.959 . S
H1904 C1897 0.961 1_565 S
H1905 C1897 0.960 1_565 S
H1906 C1898 0.930 . S
H1907 C1899 0.929 . S
H1908 C1916 0.929 . S
H1909 C1918 0.930 . S
H1910 C1920 0.930 . S
H1911 C1923 0.929 . S
H1912 C1926 0.930 . S
H1913 C1928 0.960 . S
H1914 C1928 0.960 . S
H1915 C1928 0.960 . S
C1916 H1908 0.929 . S
C1916 C1917 1.377 . S
C1916 C1918 1.384 . S
C1917 C1916 1.377 . S
C1917 C1923 1.390 . S
C1918 H1909 0.930 . S
C1918 C1916 1.384 . S
C1918 C1919 1.372 . S
C1919 C1918 1.372 . S
C1919 C1920 1.400 . S
C1919 C1924 1.490 . S
C1920 H1910 0.930 . S
C1920 C1919 1.400 . S
C1920 C1923 1.386 . S
H1921 C1937 0.930 . S
H1922 C1938 0.931 . S
C1923 H1911 0.929 . S
C1923 C1917 1.390 . S
C1923 C1920 1.386 . S
C1924 C1919 1.490 . S
C1924 C1926 1.395 . S
C1924 C1927 1.403 . S
H1925 C1931 0.930 1_455 S
C1926 H1912 0.930 . S
C1926 C1924 1.395 . S
C1926 C1929 1.403 . S
C1927 C1924 1.403 . S
C1927 C1928 1.524 . S
C1927 C1931 1.400 . S
C1928 H1913 0.960 . S
C1928 H1914 0.960 . S
C1928 H1915 0.960 . S
C1928 C1927 1.524 . S
C1929 C1926 1.403 . S
C1929 C1930 1.392 1_655 S
C1929 C1933 1.495 1_655 S
C1930 C1929 1.392 1_455 S
C1930 C1931 1.385 1_455 S
C1930 C1932 1.478 . S
C1931 H1925 0.930 1_655 S
C1931 C1927 1.400 . S
C1931 C1930 1.385 1_655 S
C1932 C1930 1.478 . S
C1932 C1934 1.381 . S
C1932 C1938 1.383 . S
C1933 C1929 1.495 1_455 S
C1933 H1939 0.959 1_455 S
C1933 H1940 0.961 . S
C1933 H1941 0.960 . S
C1934 C1932 1.381 . S
C1934 C1935 1.394 . S
C1934 H1942 0.930 . S
C1935 C1934 1.394 . S
C1935 C1936 1.383 . S
C1935 H1943 0.929 . S
C1936 C1935 1.383 . S
C1936 C1937 1.377 . S
C1937 H1921 0.930 . S
C1937 C1936 1.377 . S
C1937 C1938 1.379 . S
C1938 H1922 0.931 . S
C1938 C1932 1.383 . S
C1938 C1937 1.379 . S
H1939 C1933 0.959 1_655 S
H1940 C1933 0.961 . S
H1941 C1933 0.960 . S
H1942 C1934 0.930 . S
H1943 C1935 0.929 . S
H1944 C1952 0.929 . S
H1945 C1954 0.930 . S
H1946 C1956 0.930 . S
H1947 C1959 0.929 . S
H1948 C1962 0.957 . S
H1949 C1964 0.960 1_565 S
H1950 C1964 0.960 . S
H1951 C1964 0.960 . S
C1952 H1944 0.929 . S
C1952 C1953 1.377 . S
C1952 C1954 1.384 . S
C1953 C1952 1.377 . S
C1953 C1959 1.390 . S
C1954 H1945 0.930 . S
C1954 C1952 1.384 . S
C1954 C1955 1.372 . S
C1955 C1954 1.372 . S
C1955 C1956 1.400 . S
C1955 C1960 1.490 . S
C1956 H1946 0.930 . S
C1956 C1955 1.400 . S
C1956 C1959 1.386 . S
H1957 C1973 0.930 . S
H1958 C1974 0.931 . S
C1959 H1947 0.929 . S
C1959 C1953 1.390 . S
C1959 C1956 1.386 . S
C1960 C1955 1.490 . S
C1960 C1962 1.395 1_545 S
C1960 C1963 1.403 1_545 S
H1961 C1967 0.930 . S
C1962 H1948 0.957 . S
C1962 C1960 1.395 1_565 S
C1962 C1965 1.403 . S
C1963 C1960 1.403 1_565 S
C1963 C1964 1.524 1_565 S
C1963 C1967 1.400 . S
C1964 H1949 0.960 1_545 S
C1964 H1950 0.960 . S
C1964 H1951 0.960 . S
C1964 C1963 1.524 1_545 S
C1965 C1962 1.403 . S
C1965 C1966 1.392 . S
C1965 C1969 1.495 . S
C1966 C1965 1.392 . S
C1966 C1967 1.385 . S
C1966 C1968 1.478 . S
C1967 H1961 0.930 . S
C1967 C1963 1.400 . S
C1967 C1966 1.385 . S
C1968 C1966 1.478 . S
C1968 C1970 1.381 . S
C1968 C1974 1.383 . S
C1969 C1965 1.495 . S
C1969 H1975 0.959 . S
C1969 H1976 0.961 . S
C1969 H1977 0.960 . S
C1970 C1968 1.381 . S
C1970 C1971 1.394 . S
C1970 H1978 0.930 . S
C1971 C1970 1.394 . S
C1971 C1972 1.383 . S
C1971 H1979 0.929 . S
C1972 C1971 1.383 . S
C1972 C1973 1.377 . S
C1973 H1957 0.930 . S
C1973 C1972 1.377 . S
C1973 C1974 1.379 . S
C1974 H1958 0.931 . S
C1974 C1968 1.383 . S
C1974 C1973 1.379 . S
H1975 C1969 0.959 . S
H1976 C1969 0.961 . S
H1977 C1969 0.960 . S
H1978 C1970 0.930 . S
H1979 C1971 0.929 . S
H1980 C1988 0.929 . S
H1981 C1990 0.930 . S
H1982 C1992 0.930 . S
H1983 C1995 0.929 . S
H1984 C1998 0.930 1_455 S
H1985 C2000 0.960 1_655 S
H1986 C2000 0.960 . S
H1987 C2000 0.960 . S
C1988 H1980 0.929 . S
C1988 C1989 1.377 . S
C1988 C1990 1.384 . S
C1989 C1988 1.377 . S
C1989 C1995 1.390 . S
C1990 H1981 0.930 . S
C1990 C1988 1.384 . S
C1990 C1991 1.372 . S
C1991 C1990 1.372 . S
C1991 C1992 1.400 . S
C1991 C1996 1.490 . S
C1992 H1982 0.930 . S
C1992 C1991 1.400 . S
C1992 C1995 1.386 . S
H1993 C2009 0.930 . S
H1994 C2010 0.931 . S
C1995 H1983 0.929 . S
C1995 C1989 1.390 . S
C1995 C1992 1.386 . S
C1996 C1991 1.490 . S
C1996 C1998 1.395 1_455 S
C1996 C1999 1.403 1_455 S
H1997 C2003 0.930 . S
C1998 H1984 0.930 1_655 S
C1998 C1996 1.395 1_655 S
C1998 C2001 1.403 . S
C1999 C1996 1.403 1_655 S
C1999 C2000 1.524 1_655 S
C1999 C2003 1.400 . S
C2000 H1985 0.960 1_455 S
C2000 H1986 0.960 . S
C2000 H1987 0.960 . S
C2000 C1999 1.524 1_455 S
C2001 C1998 1.403 . S
C2001 C2002 1.392 . S
C2001 C2005 1.495 . S
C2002 C2001 1.392 . S
C2002 C2003 1.385 . S
C2002 C2004 1.478 . S
C2003 H1997 0.930 . S
C2003 C1999 1.400 . S
C2003 C2002 1.385 . S
C2004 C2002 1.478 . S
C2004 C2006 1.381 . S
C2004 C2010 1.383 . S
C2005 C2001 1.495 . S
C2005 H2011 0.959 . S
C2005 H2012 0.961 . S
C2005 H2013 0.960 . S
C2006 C2004 1.381 . S
C2006 C2007 1.394 . S
C2006 H2014 0.930 . S
C2007 C2006 1.394 . S
C2007 C2008 1.383 . S
C2007 H2015 0.929 . S
C2008 C2007 1.383 . S
C2008 C2009 1.377 . S
C2009 H1993 0.930 . S
C2009 C2008 1.377 . S
C2009 C2010 1.379 . S
C2010 H1994 0.931 . S
C2010 C2004 1.383 . S
C2010 C2009 1.379 . S
H2011 C2005 0.959 . S
H2012 C2005 0.961 . S
H2013 C2005 0.960 . S
H2014 C2006 0.930 . S
H2015 C2007 0.929 . S
H2016 C2024 0.929 . S
H2017 C2026 0.930 . S
H2018 C2028 0.930 . S
H2019 C2031 0.929 . S
H2020 C2034 0.930 1_545 S
H2021 C2036 0.960 1_565 S
H2022 C2036 0.960 . S
H2023 C2036 0.960 . S
C2024 H2016 0.929 . S
C2024 C2025 1.377 . S
C2024 C2026 1.384 . S
C2025 C2024 1.377 . S
C2025 C2031 1.390 . S
C2026 H2017 0.930 . S
C2026 C2024 1.384 . S
C2026 C2027 1.372 . S
C2027 C2026 1.372 . S
C2027 C2028 1.400 . S
C2027 C2032 1.490 . S
C2028 H2018 0.930 . S
C2028 C2027 1.400 . S
C2028 C2031 1.386 . S
H2029 C2045 0.930 . S
H2030 C2046 0.931 . S
C2031 H2019 0.929 . S
C2031 C2025 1.390 . S
C2031 C2028 1.386 . S
C2032 C2027 1.490 . S
C2032 C2034 1.395 1_545 S
C2032 C2035 1.403 1_545 S
H2033 C2039 0.930 . S
C2034 H2020 0.930 1_565 S
C2034 C2032 1.395 1_565 S
C2034 C2037 1.403 . S
C2035 C2032 1.403 1_565 S
C2035 C2036 1.524 1_565 S
C2035 C2039 1.400 . S
C2036 H2021 0.960 1_545 S
C2036 H2022 0.960 . S
C2036 H2023 0.960 . S
C2036 C2035 1.524 1_545 S
C2037 C2034 1.403 . S
C2037 C2038 1.392 . S
C2037 C2041 1.495 . S
C2038 C2037 1.392 . S
C2038 C2039 1.385 . S
C2038 C2040 1.478 . S
C2039 H2033 0.930 . S
C2039 C2035 1.400 . S
C2039 C2038 1.385 . S
C2040 C2038 1.478 . S
C2040 C2042 1.381 . S
C2040 C2046 1.383 . S
C2041 C2037 1.495 . S
C2041 H2047 0.959 . S
C2041 H2048 0.961 . S
C2041 H2049 0.960 . S
C2042 C2040 1.381 . S
C2042 C2043 1.394 . S
C2042 H2050 0.930 . S
C2043 C2042 1.394 . S
C2043 C2044 1.383 . S
C2043 H2051 0.929 . S
C2044 C2043 1.383 . S
C2044 C2045 1.377 . S
C2045 H2029 0.930 . S
C2045 C2044 1.377 . S
C2045 C2046 1.379 . S
C2046 H2030 0.931 . S
C2046 C2040 1.383 . S
C2046 C2045 1.379 . S
H2047 C2041 0.959 . S
H2048 C2041 0.961 . S
H2049 C2041 0.960 . S
H2050 C2042 0.930 . S
H2051 C2043 0.929 . S
H2052 C2060 0.929 . S
H2053 C2062 0.930 . S
H2054 C2064 0.930 . S
H2055 C2067 0.929 . S
H2056 C2070 0.930 . S
H2057 C2072 0.960 . S
H2058 C2072 0.960 . S
H2059 C2072 0.960 . S
C2060 H2052 0.929 . S
C2060 C2061 1.377 . S
C2060 C2062 1.384 . S
C2061 C2060 1.377 . S
C2061 C2067 1.390 . S
C2062 H2053 0.930 . S
C2062 C2060 1.384 . S
C2062 C2063 1.372 . S
C2063 C2062 1.372 . S
C2063 C2064 1.400 . S
C2063 C2068 1.490 . S
C2064 H2054 0.930 . S
C2064 C2063 1.400 . S
C2064 C2067 1.386 . S
H2065 C2081 0.930 . S
H2066 C2082 0.931 . S
C2067 H2055 0.929 . S
C2067 C2061 1.390 . S
C2067 C2064 1.386 . S
C2068 C2063 1.490 . S
C2068 C2070 1.395 . S
C2068 C2071 1.403 . S
H2069 C2075 0.930 1_565 S
C2070 H2056 0.930 . S
C2070 C2068 1.395 . S
C2070 C2073 1.403 . S
C2071 C2068 1.403 . S
C2071 C2072 1.524 . S
C2071 C2075 1.400 . S
C2072 H2057 0.960 . S
C2072 H2058 0.960 . S
C2072 H2059 0.960 . S
C2072 C2071 1.524 . S
C2073 C2070 1.403 . S
C2073 C2074 1.392 1_545 S
C2073 C2077 1.495 1_545 S
C2074 C2073 1.392 1_565 S
C2074 C2075 1.385 1_565 S
C2074 C2076 1.478 . S
C2075 H2069 0.930 1_545 S
C2075 C2071 1.400 . S
C2075 C2074 1.385 1_545 S
C2076 C2074 1.478 . S
C2076 C2078 1.381 . S
C2076 C2082 1.383 . S
C2077 C2073 1.495 1_565 S
C2077 H2083 0.959 1_565 S
C2077 H2084 0.961 . S
C2077 H2085 0.960 . S
C2078 C2076 1.381 . S
C2078 C2079 1.394 . S
C2078 H2086 0.930 . S
C2079 C2078 1.394 . S
C2079 C2080 1.383 . S
C2079 H2087 0.929 . S
C2080 C2079 1.383 . S
C2080 C2081 1.377 . S
C2081 H2065 0.930 . S
C2081 C2080 1.377 . S
C2081 C2082 1.379 . S
C2082 H2066 0.931 . S
C2082 C2076 1.383 . S
C2082 C2081 1.379 . S
H2083 C2077 0.959 1_545 S
H2084 C2077 0.961 . S
H2085 C2077 0.960 . S
H2086 C2078 0.930 . S
H2087 C2079 0.929 . S
H2088 C2096 0.929 . S
H2089 C2098 0.930 . S
H2090 C2100 0.930 . S
H2091 C2103 0.929 . S
H2092 C2106 0.930 . S
H2093 C2108 0.960 . S
H2094 C2108 0.960 . S
H2095 C2108 0.960 . S
C2096 H2088 0.929 . S
C2096 C2097 1.377 . S
C2096 C2098 1.384 . S
C2097 C2096 1.377 . S
C2097 C2103 1.390 . S
C2098 H2089 0.930 . S
C2098 C2096 1.384 . S
C2098 C2099 1.372 . S
C2099 C2098 1.372 . S
C2099 C2100 1.400 . S
C2099 C2104 1.490 . S
C2100 H2090 0.930 . S
C2100 C2099 1.400 . S
C2100 C2103 1.386 . S
H2101 C2117 0.930 . S
H2102 C2118 0.931 . S
C2103 H2091 0.929 . S
C2103 C2097 1.390 . S
C2103 C2100 1.386 . S
C2104 C2099 1.490 . S
C2104 C2106 1.395 . S
C2104 C2107 1.403 . S
H2105 C2111 0.930 . S
C2106 H2092 0.930 . S
C2106 C2104 1.395 . S
C2106 C2109 1.403 . S
C2107 C2104 1.403 . S
C2107 C2108 1.524 . S
C2107 C2111 1.400 . S
C2108 H2093 0.960 . S
C2108 H2094 0.960 . S
C2108 H2095 0.960 . S
C2108 C2107 1.524 . S
C2109 C2106 1.403 . S
C2109 C2110 1.392 . S
C2109 C2113 1.495 . S
C2110 C2109 1.392 . S
C2110 C2111 1.385 . S
C2110 C2112 1.478 . S
C2111 H2105 0.930 . S
C2111 C2107 1.400 . S
C2111 C2110 1.385 . S
C2112 C2110 1.478 . S
C2112 C2114 1.381 . S
C2112 C2118 1.383 . S
C2113 C2109 1.495 . S
C2113 H2119 0.959 . S
C2113 H2120 0.961 . S
C2113 H2121 0.960 . S
C2114 C2112 1.381 . S
C2114 C2115 1.394 . S
C2114 H2122 0.930 . S
C2115 C2114 1.394 . S
C2115 C2116 1.383 . S
C2115 H2123 0.929 . S
C2116 C2115 1.383 . S
C2116 C2117 1.377 . S
C2117 H2101 0.930 . S
C2117 C2116 1.377 . S
C2117 C2118 1.379 . S
C2118 H2102 0.931 . S
C2118 C2112 1.383 . S
C2118 C2117 1.379 . S
H2119 C2113 0.959 . S
H2120 C2113 0.961 . S
H2121 C2113 0.960 . S
H2122 C2114 0.930 . S
H2123 C2115 0.929 . S
H2124 C2132 0.929 . S
H2125 C2134 0.930 . S
H2126 C2136 0.930 . S
H2127 C2139 0.929 . S
H2128 C2142 0.930 . S
H2129 C2144 0.960 . S
H2130 C2144 0.960 . S
H2131 C2144 0.960 . S
C2132 H2124 0.929 . S
C2132 C2133 1.377 . S
C2132 C2134 1.384 . S
C2133 C2132 1.377 . S
C2133 C2139 1.390 . S
C2134 H2125 0.930 . S
C2134 C2132 1.384 . S
C2134 C2135 1.372 . S
C2135 C2134 1.372 . S
C2135 C2136 1.400 . S
C2135 C2140 1.490 . S
C2136 H2126 0.930 . S
C2136 C2135 1.400 . S
C2136 C2139 1.386 . S
H2137 C2153 0.930 . S
H2138 C2154 0.931 . S
C2139 H2127 0.929 . S
C2139 C2133 1.390 . S
C2139 C2136 1.386 . S
C2140 C2135 1.490 . S
C2140 C2142 1.395 . S
C2140 C2143 1.403 . S
H2141 C2147 0.930 . S
C2142 H2128 0.930 . S
C2142 C2140 1.395 . S
C2142 C2145 1.403 . S
C2143 C2140 1.403 . S
C2143 C2144 1.524 . S
C2143 C2147 1.400 . S
C2144 H2129 0.960 . S
C2144 H2130 0.960 . S
C2144 H2131 0.960 . S
C2144 C2143 1.524 . S
C2145 C2142 1.403 . S
C2145 C2146 1.392 . S
C2145 C2149 1.495 . S
C2146 C2145 1.392 . S
C2146 C2147 1.385 . S
C2146 C2148 1.478 . S
C2147 H2141 0.930 . S
C2147 C2143 1.400 . S
C2147 C2146 1.385 . S
C2148 C2146 1.478 . S
C2148 C2150 1.381 . S
C2148 C2154 1.383 . S
C2149 C2145 1.495 . S
C2149 H2155 0.959 . S
C2149 H2156 0.961 . S
C2149 H2157 0.960 . S
C2150 C2148 1.381 . S
C2150 C2151 1.394 . S
C2150 H2158 0.930 . S
C2151 C2150 1.394 . S
C2151 C2152 1.383 . S
C2151 H2159 0.929 . S
C2152 C2151 1.383 . S
C2152 C2153 1.377 . S
C2153 H2137 0.930 . S
C2153 C2152 1.377 . S
C2153 C2154 1.379 . S
C2154 H2138 0.931 . S
C2154 C2148 1.383 . S
C2154 C2153 1.379 . S
H2155 C2149 0.959 . S
H2156 C2149 0.961 . S
H2157 C2149 0.960 . S
H2158 C2150 0.930 . S
H2159 C2151 0.929 . S
H2160 C2168 0.929 . S
H2161 C2170 0.930 . S
H2162 C2172 0.930 . S
H2163 C2175 0.929 . S
H2164 C2178 0.930 . S
H2165 C2180 0.960 . S
H2166 C2180 0.960 . S
H2167 C2180 0.960 . S
C2168 H2160 0.929 . S
C2168 C2169 1.377 . S
C2168 C2170 1.384 . S
C2169 C2168 1.377 . S
C2169 C2175 1.390 . S
C2170 H2161 0.930 . S
C2170 C2168 1.384 . S
C2170 C2171 1.372 . S
C2171 C2170 1.372 . S
C2171 C2172 1.400 . S
C2171 C2176 1.490 . S
C2172 H2162 0.930 . S
C2172 C2171 1.400 . S
C2172 C2175 1.386 . S
H2173 C2189 0.930 . S
H2174 C2190 0.931 . S
C2175 H2163 0.929 . S
C2175 C2169 1.390 . S
C2175 C2172 1.386 . S
C2176 C2171 1.490 . S
C2176 C2178 1.395 . S
C2176 C2179 1.403 . S
H2177 C2183 0.930 . S
C2178 H2164 0.930 . S
C2178 C2176 1.395 . S
C2178 C2181 1.403 . S
C2179 C2176 1.403 . S
C2179 C2180 1.524 . S
C2179 C2183 1.400 . S
C2180 H2165 0.960 . S
C2180 H2166 0.960 . S
C2180 H2167 0.960 . S
C2180 C2179 1.524 . S
C2181 C2178 1.403 . S
C2181 C2182 1.392 . S
C2181 C2185 1.495 . S
C2182 C2181 1.392 . S
C2182 C2183 1.385 . S
C2182 C2184 1.478 . S
C2183 H2177 0.930 . S
C2183 C2179 1.400 . S
C2183 C2182 1.385 . S
C2184 C2182 1.478 . S
C2184 C2186 1.381 . S
C2184 C2190 1.383 . S
C2185 C2181 1.495 . S
C2185 H2191 0.959 . S
C2185 H2192 0.961 . S
C2185 H2193 0.960 . S
C2186 C2184 1.381 . S
C2186 C2187 1.394 . S
C2186 H2194 0.930 . S
C2187 C2186 1.394 . S
C2187 C2188 1.383 . S
C2187 H2195 0.929 . S
C2188 C2187 1.383 . S
C2188 C2189 1.377 . S
C2189 H2173 0.930 . S
C2189 C2188 1.377 . S
C2189 C2190 1.379 . S
C2190 H2174 0.931 . S
C2190 C2184 1.383 . S
C2190 C2189 1.379 . S
H2191 C2185 0.959 . S
H2192 C2185 0.961 . S
H2193 C2185 0.960 . S
H2194 C2186 0.930 . S
H2195 C2187 0.929 . S
H2196 C2204 0.929 . S
H2197 C2206 0.930 . S
H2198 C2208 0.930 . S
H2199 C2211 0.929 . S
H2200 C2214 0.930 . S
H2201 C2216 0.960 . S
H2202 C2216 0.960 . S
H2203 C2216 0.960 . S
C2204 H2196 0.929 . S
C2204 C2205 1.377 . S
C2204 C2206 1.384 . S
C2205 C2204 1.377 . S
C2205 C2211 1.390 . S
C2206 H2197 0.930 . S
C2206 C2204 1.384 . S
C2206 C2207 1.372 . S
C2207 C2206 1.372 . S
C2207 C2208 1.400 . S
C2207 C2212 1.490 . S
C2208 H2198 0.930 . S
C2208 C2207 1.400 . S
C2208 C2211 1.386 . S
H2209 C2225 0.930 . S
H2210 C2226 0.931 . S
C2211 H2199 0.929 . S
C2211 C2205 1.390 . S
C2211 C2208 1.386 . S
C2212 C2207 1.490 . S
C2212 C2214 1.395 . S
C2212 C2215 1.403 . S
H2213 C2219 0.930 . S
C2214 H2200 0.930 . S
C2214 C2212 1.395 . S
C2214 C2217 1.403 . S
C2215 C2212 1.403 . S
C2215 C2216 1.524 . S
C2215 C2219 1.400 . S
C2216 H2201 0.960 . S
C2216 H2202 0.960 . S
C2216 H2203 0.960 . S
C2216 C2215 1.524 . S
C2217 C2214 1.403 . S
C2217 C2218 1.392 . S
C2217 C2221 1.495 . S
C2218 C2217 1.392 . S
C2218 C2219 1.385 . S
C2218 C2220 1.478 . S
C2219 H2213 0.930 . S
C2219 C2215 1.400 . S
C2219 C2218 1.385 . S
C2220 C2218 1.478 . S
C2220 C2222 1.381 . S
C2220 C2226 1.383 . S
C2221 C2217 1.495 . S
C2221 H2227 0.959 . S
C2221 H2228 0.961 . S
C2221 H2229 0.960 . S
C2222 C2220 1.381 . S
C2222 C2223 1.394 . S
C2222 H2230 0.930 . S
C2223 C2222 1.394 . S
C2223 C2224 1.383 . S
C2223 H2231 0.929 . S
C2224 C2223 1.383 . S
C2224 C2225 1.377 . S
C2225 H2209 0.930 . S
C2225 C2224 1.377 . S
C2225 C2226 1.379 . S
C2226 H2210 0.931 . S
C2226 C2220 1.383 . S
C2226 C2225 1.379 . S
H2227 C2221 0.959 . S
H2228 C2221 0.961 . S
H2229 C2221 0.960 . S
H2230 C2222 0.930 . S
H2231 C2223 0.929 . S
H2232 C2240 0.929 . S
H2233 C2242 0.930 . S
H2234 C2244 0.930 . S
H2235 C2247 0.929 . S
H2236 C2250 0.930 . S
H2237 C2252 0.960 . S
H2238 C2252 0.960 . S
H2239 C2252 0.960 . S
C2240 H2232 0.929 . S
C2240 C2241 1.377 . S
C2240 C2242 1.384 . S
C2241 C2240 1.377 . S
C2241 C2247 1.390 . S
C2242 H2233 0.930 . S
C2242 C2240 1.384 . S
C2242 C2243 1.372 . S
C2243 C2242 1.372 . S
C2243 C2244 1.400 . S
C2243 C2248 1.490 . S
C2244 H2234 0.930 . S
C2244 C2243 1.400 . S
C2244 C2247 1.386 . S
H2245 C2261 0.930 . S
H2246 C2262 0.931 . S
C2247 H2235 0.929 . S
C2247 C2241 1.390 . S
C2247 C2244 1.386 . S
C2248 C2243 1.490 . S
C2248 C2250 1.395 . S
C2248 C2251 1.403 . S
H2249 C2255 0.930 . S
C2250 H2236 0.930 . S
C2250 C2248 1.395 . S
C2250 C2253 1.403 . S
C2251 C2248 1.403 . S
C2251 C2252 1.524 . S
C2251 C2255 1.400 . S
C2252 H2237 0.960 . S
C2252 H2238 0.960 . S
C2252 H2239 0.960 . S
C2252 C2251 1.524 . S
C2253 C2250 1.403 . S
C2253 C2254 1.392 . S
C2253 C2257 1.495 . S
C2254 C2253 1.392 . S
C2254 C2255 1.385 . S
C2254 C2256 1.478 . S
C2255 H2249 0.930 . S
C2255 C2251 1.400 . S
C2255 C2254 1.385 . S
C2256 C2254 1.478 . S
C2256 C2258 1.381 . S
C2256 C2262 1.383 . S
C2257 C2253 1.495 . S
C2257 H2263 0.959 . S
C2257 H2264 0.961 . S
C2257 H2265 0.960 . S
C2258 C2256 1.381 . S
C2258 C2259 1.394 . S
C2258 H2266 0.930 . S
C2259 C2258 1.394 . S
C2259 C2260 1.383 . S
C2259 H2267 0.929 . S
C2260 C2259 1.383 . S
C2260 C2261 1.377 . S
C2261 H2245 0.930 . S
C2261 C2260 1.377 . S
C2261 C2262 1.379 . S
C2262 H2246 0.931 . S
C2262 C2256 1.383 . S
C2262 C2261 1.379 . S
H2263 C2257 0.959 . S
H2264 C2257 0.961 . S
H2265 C2257 0.960 . S
H2266 C2258 0.930 . S
H2267 C2259 0.929 . S
H2268 C2276 0.929 . S
H2269 C2278 0.930 . S
H2270 C2280 0.930 . S
H2271 C2283 0.929 . S
H2272 C2286 0.930 . S
H2273 C2288 0.960 . S
H2274 C2288 0.960 . S
H2275 C2288 0.960 . S
C2276 H2268 0.929 . S
C2276 C2277 1.377 . S
C2276 C2278 1.384 . S
C2277 C2276 1.377 . S
C2277 C2283 1.390 . S
C2278 H2269 0.930 . S
C2278 C2276 1.384 . S
C2278 C2279 1.372 . S
C2279 C2278 1.372 . S
C2279 C2280 1.400 . S
C2279 C2284 1.490 . S
C2280 H2270 0.930 . S
C2280 C2279 1.400 . S
C2280 C2283 1.386 . S
H2281 C2297 0.930 . S
H2282 C2298 0.931 . S
C2283 H2271 0.929 . S
C2283 C2277 1.390 . S
C2283 C2280 1.386 . S
C2284 C2279 1.490 . S
C2284 C2286 1.395 . S
C2284 C2287 1.403 . S
H2285 C2291 0.930 . S
C2286 H2272 0.930 . S
C2286 C2284 1.395 . S
C2286 C2289 1.403 . S
C2287 C2284 1.403 . S
C2287 C2288 1.524 . S
C2287 C2291 1.400 . S
C2288 H2273 0.960 . S
C2288 H2274 0.960 . S
C2288 H2275 0.960 . S
C2288 C2287 1.524 . S
C2289 C2286 1.403 . S
C2289 C2290 1.392 . S
C2289 C2293 1.495 . S
C2290 C2289 1.392 . S
C2290 C2291 1.385 . S
C2290 C2292 1.478 . S
C2291 H2285 0.930 . S
C2291 C2287 1.400 . S
C2291 C2290 1.385 . S
C2292 C2290 1.478 . S
C2292 C2294 1.381 . S
C2292 C2298 1.383 . S
C2293 C2289 1.495 . S
C2293 H2299 0.959 . S
C2293 H2300 0.961 . S
C2293 H2301 0.960 . S
C2294 C2292 1.381 . S
C2294 C2295 1.394 . S
C2294 H2302 0.930 . S
C2295 C2294 1.394 . S
C2295 C2296 1.383 . S
C2295 H2303 0.929 . S
C2296 C2295 1.383 . S
C2296 C2297 1.377 . S
C2297 H2281 0.930 . S
C2297 C2296 1.377 . S
C2297 C2298 1.379 . S
C2298 H2282 0.931 . S
C2298 C2292 1.383 . S
C2298 C2297 1.379 . S
H2299 C2293 0.959 . S
H2300 C2293 0.961 . S
H2301 C2293 0.960 . S
H2302 C2294 0.930 . S
H2303 C2295 0.929 . S
H2304 C2312 0.929 . S
H2305 C2314 0.930 . S
H2306 C2316 0.930 . S
H2307 C2319 0.929 . S
H2308 C2322 0.930 . S
H2309 C2324 0.960 . S
H2310 C2324 0.960 . S
H2311 C2324 0.960 . S
C2312 H2304 0.929 . S
C2312 C2313 1.377 . S
C2312 C2314 1.384 . S
C2313 C2312 1.377 . S
C2313 C2319 1.390 . S
C2314 H2305 0.930 . S
C2314 C2312 1.384 . S
C2314 C2315 1.372 . S
C2315 C2314 1.372 . S
C2315 C2316 1.400 . S
C2315 C2320 1.490 . S
C2316 H2306 0.930 . S
C2316 C2315 1.400 . S
C2316 C2319 1.386 . S
H2317 C2333 0.930 . S
H2318 C2334 0.931 . S
C2319 H2307 0.929 . S
C2319 C2313 1.390 . S
C2319 C2316 1.386 . S
C2320 C2315 1.490 . S
C2320 C2322 1.395 . S
C2320 C2323 1.403 . S
H2321 C2327 0.930 . S
C2322 H2308 0.930 . S
C2322 C2320 1.395 . S
C2322 C2325 1.403 . S
C2323 C2320 1.403 . S
C2323 C2324 1.524 . S
C2323 C2327 1.400 . S
C2324 H2309 0.960 . S
C2324 H2310 0.960 . S
C2324 H2311 0.960 . S
C2324 C2323 1.524 . S
C2325 C2322 1.403 . S
C2325 C2326 1.392 . S
C2325 C2329 1.495 . S
C2326 C2325 1.392 . S
C2326 C2327 1.385 . S
C2326 C2328 1.478 . S
C2327 H2321 0.930 . S
C2327 C2323 1.400 . S
C2327 C2326 1.385 . S
C2328 C2326 1.478 . S
C2328 C2330 1.381 . S
C2328 C2334 1.383 . S
C2329 C2325 1.495 . S
C2329 H2335 0.959 . S
C2329 H2336 0.961 . S
C2329 H2337 0.960 . S
C2330 C2328 1.381 . S
C2330 C2331 1.394 . S
C2330 H2338 0.930 . S
C2331 C2330 1.394 . S
C2331 C2332 1.383 . S
C2331 H2339 0.929 . S
C2332 C2331 1.383 . S
C2332 C2333 1.377 . S
C2333 H2317 0.930 . S
C2333 C2332 1.377 . S
C2333 C2334 1.379 . S
C2334 H2318 0.931 . S
C2334 C2328 1.383 . S
C2334 C2333 1.379 . S
H2335 C2329 0.959 . S
H2336 C2329 0.961 . S
H2337 C2329 0.960 . S
H2338 C2330 0.930 . S
H2339 C2331 0.929 . S
H2340 C2348 0.929 . S
H2341 C2350 0.930 . S
H2342 C2352 0.930 . S
H2343 C2355 0.929 . S
H2344 C2358 0.930 . S
H2345 C2360 0.960 . S
H2346 C2360 0.960 . S
H2347 C2360 0.960 . S
C2348 H2340 0.929 . S
C2348 C2349 1.377 . S
C2348 C2350 1.384 . S
C2349 C2348 1.377 . S
C2349 C2355 1.390 . S
C2350 H2341 0.930 . S
C2350 C2348 1.384 . S
C2350 C2351 1.372 . S
C2351 C2350 1.372 . S
C2351 C2352 1.400 . S
C2351 C2356 1.490 . S
C2352 H2342 0.930 . S
C2352 C2351 1.400 . S
C2352 C2355 1.386 . S
H2353 C2369 0.930 . S
H2354 C2370 0.931 . S
C2355 H2343 0.929 . S
C2355 C2349 1.390 . S
C2355 C2352 1.386 . S
C2356 C2351 1.490 . S
C2356 C2358 1.395 . S
C2356 C2359 1.403 . S
H2357 C2363 0.930 . S
C2358 H2344 0.930 . S
C2358 C2356 1.395 . S
C2358 C2361 1.403 . S
C2359 C2356 1.403 . S
C2359 C2360 1.524 . S
C2359 C2363 1.400 . S
C2360 H2345 0.960 . S
C2360 H2346 0.960 . S
C2360 H2347 0.960 . S
C2360 C2359 1.524 . S
C2361 C2358 1.403 . S
C2361 C2362 1.392 . S
C2361 C2365 1.495 . S
C2362 C2361 1.392 . S
C2362 C2363 1.385 . S
C2362 C2364 1.478 . S
C2363 H2357 0.930 . S
C2363 C2359 1.400 . S
C2363 C2362 1.385 . S
C2364 C2362 1.478 . S
C2364 C2366 1.381 . S
C2364 C2370 1.383 . S
C2365 C2361 1.495 . S
C2365 H2371 0.959 . S
C2365 H2372 0.961 . S
C2365 H2373 0.960 . S
C2366 C2364 1.381 . S
C2366 C2367 1.394 . S
C2366 H2374 0.930 . S
C2367 C2366 1.394 . S
C2367 C2368 1.383 . S
C2367 H2375 0.929 . S
C2368 C2367 1.383 . S
C2368 C2369 1.377 . S
C2369 H2353 0.930 . S
C2369 C2368 1.377 . S
C2369 C2370 1.379 . S
C2370 H2354 0.931 . S
C2370 C2364 1.383 . S
C2370 C2369 1.379 . S
H2371 C2365 0.959 . S
H2372 C2365 0.961 . S
H2373 C2365 0.960 . S
H2374 C2366 0.930 . S
H2375 C2367 0.929 . S
H2376 C2384 0.929 . S
H2377 C2386 0.930 . S
H2378 C2388 0.930 . S
H2379 C2391 0.929 . S
H2380 C2394 0.930 . S
H2381 C2396 0.960 . S
H2382 C2396 0.960 . S
H2383 C2396 0.960 . S
C2384 H2376 0.929 . S
C2384 C2385 1.377 . S
C2384 C2386 1.384 . S
C2385 C2384 1.377 . S
C2385 C2391 1.390 . S
C2386 H2377 0.930 . S
C2386 C2384 1.384 . S
C2386 C2387 1.372 . S
C2387 C2386 1.372 . S
C2387 C2388 1.400 . S
C2387 C2392 1.490 . S
C2388 H2378 0.930 . S
C2388 C2387 1.400 . S
C2388 C2391 1.386 . S
H2389 C2405 0.930 . S
H2390 C2406 0.931 . S
C2391 H2379 0.929 . S
C2391 C2385 1.390 . S
C2391 C2388 1.386 . S
C2392 C2387 1.490 . S
C2392 C2394 1.395 . S
C2392 C2395 1.403 . S
H2393 C2399 0.930 . S
C2394 H2380 0.930 . S
C2394 C2392 1.395 . S
C2394 C2397 1.403 . S
C2395 C2392 1.403 . S
C2395 C2396 1.524 . S
C2395 C2399 1.400 . S
C2396 H2381 0.960 . S
C2396 H2382 0.960 . S
C2396 H2383 0.960 . S
C2396 C2395 1.524 . S
C2397 C2394 1.403 . S
C2397 C2398 1.392 . S
C2397 C2401 1.495 . S
C2398 C2397 1.392 . S
C2398 C2399 1.385 . S
C2398 C2400 1.478 . S
C2399 H2393 0.930 . S
C2399 C2395 1.400 . S
C2399 C2398 1.385 . S
C2400 C2398 1.478 . S
C2400 C2402 1.381 . S
C2400 C2406 1.383 . S
C2401 C2397 1.495 . S
C2401 H2407 0.959 . S
C2401 H2408 0.961 . S
C2401 H2409 0.960 . S
C2402 C2400 1.381 . S
C2402 C2403 1.394 . S
C2402 H2410 0.930 . S
C2403 C2402 1.394 . S
C2403 C2404 1.383 . S
C2403 H2411 0.929 . S
C2404 C2403 1.383 . S
C2404 C2405 1.377 . S
C2405 H2389 0.930 . S
C2405 C2404 1.377 . S
C2405 C2406 1.379 . S
C2406 H2390 0.931 . S
C2406 C2400 1.383 . S
C2406 C2405 1.379 . S
H2407 C2401 0.959 . S
H2408 C2401 0.961 . S
H2409 C2401 0.960 . S
H2410 C2402 0.930 . S
H2411 C2403 0.929 . S
H2412 C2420 0.929 . S
H2413 C2422 0.930 . S
H2414 C2424 0.930 . S
H2415 C2427 0.929 . S
H2416 C2430 0.930 . S
H2417 C2432 0.960 . S
H2418 C2432 0.960 . S
H2419 C2432 0.960 . S
C2420 H2412 0.929 . S
C2420 C2421 1.377 . S
C2420 C2422 1.384 . S
C2421 C2420 1.377 . S
C2421 C2427 1.390 . S
C2422 H2413 0.930 . S
C2422 C2420 1.384 . S
C2422 C2423 1.372 . S
C2423 C2422 1.372 . S
C2423 C2424 1.400 . S
C2423 C2428 1.490 . S
C2424 H2414 0.930 . S
C2424 C2423 1.400 . S
C2424 C2427 1.386 . S
H2425 C2441 0.930 . S
H2426 C2442 0.931 . S
C2427 H2415 0.929 . S
C2427 C2421 1.390 . S
C2427 C2424 1.386 . S
C2428 C2423 1.490 . S
C2428 C2430 1.395 . S
C2428 C2431 1.403 . S
H2429 C2435 0.930 . S
C2430 H2416 0.930 . S
C2430 C2428 1.395 . S
C2430 C2433 1.403 . S
C2431 C2428 1.403 . S
C2431 C2432 1.524 . S
C2431 C2435 1.400 . S
C2432 H2417 0.960 . S
C2432 H2418 0.960 . S
C2432 H2419 0.960 . S
C2432 C2431 1.524 . S
C2433 C2430 1.403 . S
C2433 C2434 1.392 . S
C2433 C2437 1.495 . S
C2434 C2433 1.392 . S
C2434 C2435 1.385 . S
C2434 C2436 1.478 . S
C2435 H2429 0.930 . S
C2435 C2431 1.400 . S
C2435 C2434 1.385 . S
C2436 C2434 1.478 . S
C2436 C2438 1.381 . S
C2436 C2442 1.383 . S
C2437 C2433 1.495 . S
C2437 H2443 0.959 . S
C2437 H2444 0.961 . S
C2437 H2445 0.960 . S
C2438 C2436 1.381 . S
C2438 C2439 1.394 . S
C2438 H2446 0.930 . S
C2439 C2438 1.394 . S
C2439 C2440 1.383 . S
C2439 H2447 0.929 . S
C2440 C2439 1.383 . S
C2440 C2441 1.377 . S
C2441 H2425 0.930 . S
C2441 C2440 1.377 . S
C2441 C2442 1.379 . S
C2442 H2426 0.931 . S
C2442 C2436 1.383 . S
C2442 C2441 1.379 . S
H2443 C2437 0.959 . S
H2444 C2437 0.961 . S
H2445 C2437 0.960 . S
H2446 C2438 0.930 . S
H2447 C2439 0.929 . S
H2448 C2456 0.929 . S
H2449 C2458 0.930 . S
H2450 C2460 0.930 . S
H2451 C2463 0.929 . S
H2452 C2466 0.930 . S
H2453 C2468 0.960 . S
H2454 C2468 0.960 . S
H2455 C2468 0.960 . S
C2456 H2448 0.929 . S
C2456 C2457 1.377 . S
C2456 C2458 1.384 . S
C2457 C2456 1.377 . S
C2457 C2463 1.390 . S
C2458 H2449 0.930 . S
C2458 C2456 1.384 . S
C2458 C2459 1.372 . S
C2459 C2458 1.372 . S
C2459 C2460 1.400 . S
C2459 C2464 1.490 . S
C2460 H2450 0.930 . S
C2460 C2459 1.400 . S
C2460 C2463 1.386 . S
H2461 C2477 0.930 . S
H2462 C2478 0.931 . S
C2463 H2451 0.929 . S
C2463 C2457 1.390 . S
C2463 C2460 1.386 . S
C2464 C2459 1.490 . S
C2464 C2466 1.395 . S
C2464 C2467 1.403 . S
H2465 C2471 0.930 . S
C2466 H2452 0.930 . S
C2466 C2464 1.395 . S
C2466 C2469 1.403 . S
C2467 C2464 1.403 . S
C2467 C2468 1.524 . S
C2467 C2471 1.400 . S
C2468 H2453 0.960 . S
C2468 H2454 0.960 . S
C2468 H2455 0.960 . S
C2468 C2467 1.524 . S
C2469 C2466 1.403 . S
C2469 C2470 1.392 . S
C2469 C2473 1.495 . S
C2470 C2469 1.392 . S
C2470 C2471 1.385 . S
C2470 C2472 1.478 . S
C2471 H2465 0.930 . S
C2471 C2467 1.400 . S
C2471 C2470 1.385 . S
C2472 C2470 1.478 . S
C2472 C2474 1.381 . S
C2472 C2478 1.383 . S
C2473 C2469 1.495 . S
C2473 H2479 0.959 . S
C2473 H2480 0.961 . S
C2473 H2481 0.960 . S
C2474 C2472 1.381 . S
C2474 C2475 1.394 . S
C2474 H2482 0.930 . S
C2475 C2474 1.394 . S
C2475 C2476 1.383 . S
C2475 H2483 0.929 . S
C2476 C2475 1.383 . S
C2476 C2477 1.377 . S
C2477 H2461 0.930 . S
C2477 C2476 1.377 . S
C2477 C2478 1.379 . S
C2478 H2462 0.931 . S
C2478 C2472 1.383 . S
C2478 C2477 1.379 . S
H2479 C2473 0.959 . S
H2480 C2473 0.961 . S
H2481 C2473 0.960 . S
H2482 C2474 0.930 . S
H2483 C2475 0.929 . S
H2484 C2492 0.929 . S
H2485 C2494 0.930 . S
H2486 C2496 0.930 . S
H2487 C2499 0.929 . S
H2488 C2502 0.930 . S
H2489 C2504 0.960 . S
H2490 C2504 0.960 . S
H2491 C2504 0.960 . S
C2492 H2484 0.929 . S
C2492 C2493 1.377 . S
C2492 C2494 1.384 . S
C2493 C2492 1.377 . S
C2493 C2499 1.390 . S
C2494 H2485 0.930 . S
C2494 C2492 1.384 . S
C2494 C2495 1.372 . S
C2495 C2494 1.372 . S
C2495 C2496 1.400 . S
C2495 C2500 1.490 . S
C2496 H2486 0.930 . S
C2496 C2495 1.400 . S
C2496 C2499 1.386 . S
H2497 C2513 0.930 . S
H2498 C2514 0.931 . S
C2499 H2487 0.929 . S
C2499 C2493 1.390 . S
C2499 C2496 1.386 . S
C2500 C2495 1.490 . S
C2500 C2502 1.395 . S
C2500 C2503 1.403 . S
H2501 C2507 0.930 . S
C2502 H2488 0.930 . S
C2502 C2500 1.395 . S
C2502 C2505 1.403 . S
C2503 C2500 1.403 . S
C2503 C2504 1.524 . S
C2503 C2507 1.400 . S
C2504 H2489 0.960 . S
C2504 H2490 0.960 . S
C2504 H2491 0.960 . S
C2504 C2503 1.524 . S
C2505 C2502 1.403 . S
C2505 C2506 1.392 . S
C2505 C2509 1.495 . S
C2506 C2505 1.392 . S
C2506 C2507 1.385 . S
C2506 C2508 1.478 . S
C2507 H2501 0.930 . S
C2507 C2503 1.400 . S
C2507 C2506 1.385 . S
C2508 C2506 1.478 . S
C2508 C2510 1.381 . S
C2508 C2514 1.383 . S
C2509 C2505 1.495 . S
C2509 H2515 0.959 . S
C2509 H2516 0.961 . S
C2509 H2517 0.960 . S
C2510 C2508 1.381 . S
C2510 C2511 1.394 . S
C2510 H2518 0.930 . S
C2511 C2510 1.394 . S
C2511 C2512 1.383 . S
C2511 H2519 0.929 . S
C2512 C2511 1.383 . S
C2512 C2513 1.377 . S
C2513 H2497 0.930 . S
C2513 C2512 1.377 . S
C2513 C2514 1.379 . S
C2514 H2498 0.931 . S
C2514 C2508 1.383 . S
C2514 C2513 1.379 . S
H2515 C2509 0.959 . S
H2516 C2509 0.961 . S
H2517 C2509 0.960 . S
H2518 C2510 0.930 . S
H2519 C2511 0.929 . S
H2520 C2528 0.929 . S
H2521 C2530 0.930 . S
H2522 C2532 0.930 . S
H2523 C2535 0.929 . S
H2524 C2538 0.930 . S
H2525 C2540 0.960 . S
H2526 C2540 0.960 . S
H2527 C2540 0.960 . S
C2528 H2520 0.929 . S
C2528 C2529 1.377 . S
C2528 C2530 1.384 . S
C2529 C2528 1.377 . S
C2529 C2535 1.390 . S
C2530 H2521 0.930 . S
C2530 C2528 1.384 . S
C2530 C2531 1.372 . S
C2531 C2530 1.372 . S
C2531 C2532 1.400 . S
C2531 C2536 1.490 . S
C2532 H2522 0.930 . S
C2532 C2531 1.400 . S
C2532 C2535 1.386 . S
H2533 C2549 0.930 . S
H2534 C2550 0.931 . S
C2535 H2523 0.929 . S
C2535 C2529 1.390 . S
C2535 C2532 1.386 . S
C2536 C2531 1.490 . S
C2536 C2538 1.395 . S
C2536 C2539 1.403 . S
H2537 C2543 0.930 . S
C2538 H2524 0.930 . S
C2538 C2536 1.395 . S
C2538 C2541 1.403 . S
C2539 C2536 1.403 . S
C2539 C2540 1.524 . S
C2539 C2543 1.400 . S
C2540 H2525 0.960 . S
C2540 H2526 0.960 . S
C2540 H2527 0.960 . S
C2540 C2539 1.524 . S
C2541 C2538 1.403 . S
C2541 C2542 1.392 . S
C2541 C2545 1.495 . S
C2542 C2541 1.392 . S
C2542 C2543 1.385 . S
C2542 C2544 1.478 . S
C2543 H2537 0.930 . S
C2543 C2539 1.400 . S
C2543 C2542 1.385 . S
C2544 C2542 1.478 . S
C2544 C2546 1.381 . S
C2544 C2550 1.383 . S
C2545 C2541 1.495 . S
C2545 H2551 0.959 . S
C2545 H2552 0.961 . S
C2545 H2553 0.960 . S
C2546 C2544 1.381 . S
C2546 C2547 1.394 . S
C2546 H2554 0.930 . S
C2547 C2546 1.394 . S
C2547 C2548 1.383 . S
C2547 H2555 0.929 . S
C2548 C2547 1.383 . S
C2548 C2549 1.377 . S
C2549 H2533 0.930 . S
C2549 C2548 1.377 . S
C2549 C2550 1.379 . S
C2550 H2534 0.931 . S
C2550 C2544 1.383 . S
C2550 C2549 1.379 . S
H2551 C2545 0.959 . S
H2552 C2545 0.961 . S
H2553 C2545 0.960 . S
H2554 C2546 0.930 . S
H2555 C2547 0.929 . S
H2556 C2564 0.929 . S
H2557 C2566 0.930 . S
H2558 C2568 0.930 . S
H2559 C2571 0.929 . S
H2560 C2574 0.930 . S
H2561 C2576 0.960 . S
H2562 C2576 0.960 . S
H2563 C2576 0.960 . S
C2564 H2556 0.929 . S
C2564 C2565 1.377 . S
C2564 C2566 1.384 . S
C2565 C2564 1.377 . S
C2565 C2571 1.390 . S
C2566 H2557 0.930 . S
C2566 C2564 1.384 . S
C2566 C2567 1.372 . S
C2567 C2566 1.372 . S
C2567 C2568 1.400 . S
C2567 C2572 1.490 . S
C2568 H2558 0.930 . S
C2568 C2567 1.400 . S
C2568 C2571 1.386 . S
H2569 C2585 0.930 . S
H2570 C2586 0.931 . S
C2571 H2559 0.929 . S
C2571 C2565 1.390 . S
C2571 C2568 1.386 . S
C2572 C2567 1.490 . S
C2572 C2574 1.395 . S
C2572 C2575 1.403 . S
H2573 C2579 0.930 . S
C2574 H2560 0.930 . S
C2574 C2572 1.395 . S
C2574 C2577 1.403 . S
C2575 C2572 1.403 . S
C2575 C2576 1.524 . S
C2575 C2579 1.400 . S
C2576 H2561 0.960 . S
C2576 H2562 0.960 . S
C2576 H2563 0.960 . S
C2576 C2575 1.524 . S
C2577 C2574 1.403 . S
C2577 C2578 1.392 . S
C2577 C2581 1.495 . S
C2578 C2577 1.392 . S
C2578 C2579 1.385 . S
C2578 C2580 1.478 . S
C2579 H2573 0.930 . S
C2579 C2575 1.400 . S
C2579 C2578 1.385 . S
C2580 C2578 1.478 . S
C2580 C2582 1.381 . S
C2580 C2586 1.383 . S
C2581 C2577 1.495 . S
C2581 H2587 0.959 . S
C2581 H2588 0.961 . S
C2581 H2589 0.960 . S
C2582 C2580 1.381 . S
C2582 C2583 1.394 . S
C2582 H2590 0.930 . S
C2583 C2582 1.394 . S
C2583 C2584 1.383 . S
C2583 H2591 0.929 . S
C2584 C2583 1.383 . S
C2584 C2585 1.377 . S
C2585 H2569 0.930 . S
C2585 C2584 1.377 . S
C2585 C2586 1.379 . S
C2586 H2570 0.931 . S
C2586 C2580 1.383 . S
C2586 C2585 1.379 . S
H2587 C2581 0.959 . S
H2588 C2581 0.961 . S
H2589 C2581 0.960 . S
H2590 C2582 0.930 . S
H2591 C2583 0.929 . S
H2592 C2600 0.929 . S
H2593 C2602 0.930 . S
H2594 C2604 0.930 . S
H2595 C2607 0.929 . S
H2596 C2610 0.930 . S
H2597 C2612 0.960 . S
H2598 C2612 0.960 . S
H2599 C2612 0.960 . S
C2600 H2592 0.929 . S
C2600 C2601 1.377 . S
C2600 C2602 1.384 . S
C2601 C2600 1.377 . S
C2601 C2607 1.390 . S
C2602 H2593 0.930 . S
C2602 C2600 1.384 . S
C2602 C2603 1.372 . S
C2603 C2602 1.372 . S
C2603 C2604 1.400 . S
C2603 C2608 1.490 . S
C2604 H2594 0.930 . S
C2604 C2603 1.400 . S
C2604 C2607 1.386 . S
H2605 C2621 0.930 . S
H2606 C2622 0.931 . S
C2607 H2595 0.929 . S
C2607 C2601 1.390 . S
C2607 C2604 1.386 . S
C2608 C2603 1.490 . S
C2608 C2610 1.395 . S
C2608 C2611 1.403 . S
H2609 C2615 0.930 . S
C2610 H2596 0.930 . S
C2610 C2608 1.395 . S
C2610 C2613 1.403 . S
C2611 C2608 1.403 . S
C2611 C2612 1.524 . S
C2611 C2615 1.400 . S
C2612 H2597 0.960 . S
C2612 H2598 0.960 . S
C2612 H2599 0.960 . S
C2612 C2611 1.524 . S
C2613 C2610 1.403 . S
C2613 C2614 1.392 . S
C2613 C2617 1.495 . S
C2614 C2613 1.392 . S
C2614 C2615 1.385 . S
C2614 C2616 1.478 . S
C2615 H2609 0.930 . S
C2615 C2611 1.400 . S
C2615 C2614 1.385 . S
C2616 C2614 1.478 . S
C2616 C2618 1.381 . S
C2616 C2622 1.383 . S
C2617 C2613 1.495 . S
C2617 H2623 0.959 . S
C2617 H2624 0.961 . S
C2617 H2625 0.960 . S
C2618 C2616 1.381 . S
C2618 C2619 1.394 . S
C2618 H2626 0.930 . S
C2619 C2618 1.394 . S
C2619 C2620 1.383 . S
C2619 H2627 0.929 . S
C2620 C2619 1.383 . S
C2620 C2621 1.377 . S
C2621 H2605 0.930 . S
C2621 C2620 1.377 . S
C2621 C2622 1.379 . S
C2622 H2606 0.931 . S
C2622 C2616 1.383 . S
C2622 C2621 1.379 . S
H2623 C2617 0.959 . S
H2624 C2617 0.961 . S
H2625 C2617 0.960 . S
H2626 C2618 0.930 . S
H2627 C2619 0.929 . S
H2628 C2636 0.929 . S
H2629 C2638 0.930 . S
H2630 C2640 0.930 . S
H2631 C2643 0.929 . S
H2632 C2646 0.930 . S
H2633 C2648 0.960 . S
H2634 C2648 0.960 . S
H2635 C2648 0.960 . S
C2636 H2628 0.929 . S
C2636 C2637 1.377 . S
C2636 C2638 1.384 . S
C2637 C2636 1.377 . S
C2637 C2643 1.390 . S
C2638 H2629 0.930 . S
C2638 C2636 1.384 . S
C2638 C2639 1.372 . S
C2639 C2638 1.372 . S
C2639 C2640 1.400 . S
C2639 C2644 1.490 . S
C2640 H2630 0.930 . S
C2640 C2639 1.400 . S
C2640 C2643 1.386 . S
H2641 C2657 0.930 . S
H2642 C2658 0.931 . S
C2643 H2631 0.929 . S
C2643 C2637 1.390 . S
C2643 C2640 1.386 . S
C2644 C2639 1.490 . S
C2644 C2646 1.395 . S
C2644 C2647 1.403 . S
H2645 C2651 0.930 . S
C2646 H2632 0.930 . S
C2646 C2644 1.395 . S
C2646 C2649 1.403 . S
C2647 C2644 1.403 . S
C2647 C2648 1.524 . S
C2647 C2651 1.400 . S
C2648 H2633 0.960 . S
C2648 H2634 0.960 . S
C2648 H2635 0.960 . S
C2648 C2647 1.524 . S
C2649 C2646 1.403 . S
C2649 C2650 1.392 . S
C2649 C2653 1.495 . S
C2650 C2649 1.392 . S
C2650 C2651 1.385 . S
C2650 C2652 1.478 . S
C2651 H2645 0.930 . S
C2651 C2647 1.400 . S
C2651 C2650 1.385 . S
C2652 C2650 1.478 . S
C2652 C2654 1.381 . S
C2652 C2658 1.383 . S
C2653 C2649 1.495 . S
C2653 H2659 0.959 . S
C2653 H2660 0.961 . S
C2653 H2661 0.960 . S
C2654 C2652 1.381 . S
C2654 C2655 1.394 . S
C2654 H2662 0.930 . S
C2655 C2654 1.394 . S
C2655 C2656 1.383 . S
C2655 H2663 0.929 . S
C2656 C2655 1.383 . S
C2656 C2657 1.377 . S
C2657 H2641 0.930 . S
C2657 C2656 1.377 . S
C2657 C2658 1.379 . S
C2658 H2642 0.931 . S
C2658 C2652 1.383 . S
C2658 C2657 1.379 . S
H2659 C2653 0.959 . S
H2660 C2653 0.961 . S
H2661 C2653 0.960 . S
H2662 C2654 0.930 . S
H2663 C2655 0.929 . S
H2664 C2672 0.929 . S
H2665 C2674 0.930 . S
H2666 C2676 0.930 . S
H2667 C2679 0.929 . S
H2668 C2682 0.930 . S
H2669 C2684 0.960 . S
H2670 C2684 0.960 . S
H2671 C2684 0.960 . S
C2672 H2664 0.929 . S
C2672 C2673 1.377 . S
C2672 C2674 1.384 . S
C2673 C2672 1.377 . S
C2673 C2679 1.390 . S
C2674 H2665 0.930 . S
C2674 C2672 1.384 . S
C2674 C2675 1.372 . S
C2675 C2674 1.372 . S
C2675 C2676 1.400 . S
C2675 C2680 1.490 . S
C2676 H2666 0.930 . S
C2676 C2675 1.400 . S
C2676 C2679 1.386 . S
H2677 C2693 0.930 . S
H2678 C2694 0.931 . S
C2679 H2667 0.929 . S
C2679 C2673 1.390 . S
C2679 C2676 1.386 . S
C2680 C2675 1.490 . S
C2680 C2682 1.395 . S
C2680 C2683 1.403 . S
H2681 C2687 0.930 . S
C2682 H2668 0.930 . S
C2682 C2680 1.395 . S
C2682 C2685 1.403 . S
C2683 C2680 1.403 . S
C2683 C2684 1.524 . S
C2683 C2687 1.400 . S
C2684 H2669 0.960 . S
C2684 H2670 0.960 . S
C2684 H2671 0.960 . S
C2684 C2683 1.524 . S
C2685 C2682 1.403 . S
C2685 C2686 1.392 . S
C2685 C2689 1.495 . S
C2686 C2685 1.392 . S
C2686 C2687 1.385 . S
C2686 C2688 1.478 . S
C2687 H2681 0.930 . S
C2687 C2683 1.400 . S
C2687 C2686 1.385 . S
C2688 C2686 1.478 . S
C2688 C2690 1.381 . S
C2688 C2694 1.383 . S
C2689 C2685 1.495 . S
C2689 H2695 0.959 . S
C2689 H2696 0.961 . S
C2689 H2697 0.960 . S
C2690 C2688 1.381 . S
C2690 C2691 1.394 . S
C2690 H2698 0.930 . S
C2691 C2690 1.394 . S
C2691 C2692 1.383 . S
C2691 H2699 0.929 . S
C2692 C2691 1.383 . S
C2692 C2693 1.377 . S
C2693 H2677 0.930 . S
C2693 C2692 1.377 . S
C2693 C2694 1.379 . S
C2694 H2678 0.931 . S
C2694 C2688 1.383 . S
C2694 C2693 1.379 . S
H2695 C2689 0.959 . S
H2696 C2689 0.961 . S
H2697 C2689 0.960 . S
H2698 C2690 0.930 . S
H2699 C2691 0.929 . S
H2700 C2708 0.929 . S
H2701 C2710 0.930 . S
H2702 C2712 0.930 . S
H2703 C2715 0.929 . S
H2704 C2718 0.930 . S
H2705 C2720 0.960 . S
H2706 C2720 0.960 . S
H2707 C2720 0.960 . S
C2708 H2700 0.929 . S
C2708 C2709 1.377 . S
C2708 C2710 1.384 . S
C2709 C2708 1.377 . S
C2709 C2715 1.390 . S
C2710 H2701 0.930 . S
C2710 C2708 1.384 . S
C2710 C2711 1.372 . S
C2711 C2710 1.372 . S
C2711 C2712 1.400 . S
C2711 C2716 1.490 . S
C2712 H2702 0.930 . S
C2712 C2711 1.400 . S
C2712 C2715 1.386 . S
H2713 C2729 0.930 . S
H2714 C2730 0.931 . S
C2715 H2703 0.929 . S
C2715 C2709 1.390 . S
C2715 C2712 1.386 . S
C2716 C2711 1.490 . S
C2716 C2718 1.395 . S
C2716 C2719 1.403 . S
H2717 C2723 0.930 . S
C2718 H2704 0.930 . S
C2718 C2716 1.395 . S
C2718 C2721 1.403 . S
C2719 C2716 1.403 . S
C2719 C2720 1.524 . S
C2719 C2723 1.400 . S
C2720 H2705 0.960 . S
C2720 H2706 0.960 . S
C2720 H2707 0.960 . S
C2720 C2719 1.524 . S
C2721 C2718 1.403 . S
C2721 C2722 1.392 . S
C2721 C2725 1.495 . S
C2722 C2721 1.392 . S
C2722 C2723 1.385 . S
C2722 C2724 1.478 . S
C2723 H2717 0.930 . S
C2723 C2719 1.400 . S
C2723 C2722 1.385 . S
C2724 C2722 1.478 . S
C2724 C2726 1.381 . S
C2724 C2730 1.383 . S
C2725 C2721 1.495 . S
C2725 H2731 0.959 . S
C2725 H2732 0.961 . S
C2725 H2733 0.960 . S
C2726 C2724 1.381 . S
C2726 C2727 1.394 . S
C2726 H2734 0.930 . S
C2727 C2726 1.394 . S
C2727 C2728 1.383 . S
C2727 H2735 0.929 . S
C2728 C2727 1.383 . S
C2728 C2729 1.377 . S
C2729 H2713 0.930 . S
C2729 C2728 1.377 . S
C2729 C2730 1.379 . S
C2730 H2714 0.931 . S
C2730 C2724 1.383 . S
C2730 C2729 1.379 . S
H2731 C2725 0.959 . S
H2732 C2725 0.961 . S
H2733 C2725 0.960 . S
H2734 C2726 0.930 . S
H2735 C2727 0.929 . S
H2736 C2744 0.929 . S
H2737 C2746 0.930 . S
H2738 C2748 0.930 . S
H2739 C2751 0.929 . S
H2740 C2754 0.930 . S
H2741 C2756 0.960 . S
H2742 C2756 0.960 . S
H2743 C2756 0.960 . S
C2744 H2736 0.929 . S
C2744 C2745 1.377 . S
C2744 C2746 1.384 . S
C2745 C2744 1.377 . S
C2745 C2751 1.390 . S
C2746 H2737 0.930 . S
C2746 C2744 1.384 . S
C2746 C2747 1.372 . S
C2747 C2746 1.372 . S
C2747 C2748 1.400 . S
C2747 C2752 1.490 . S
C2748 H2738 0.930 . S
C2748 C2747 1.400 . S
C2748 C2751 1.386 . S
H2749 C2765 0.930 . S
H2750 C2766 0.931 . S
C2751 H2739 0.929 . S
C2751 C2745 1.390 . S
C2751 C2748 1.386 . S
C2752 C2747 1.490 . S
C2752 C2754 1.395 . S
C2752 C2755 1.403 . S
H2753 C2759 0.930 . S
C2754 H2740 0.930 . S
C2754 C2752 1.395 . S
C2754 C2757 1.403 . S
C2755 C2752 1.403 . S
C2755 C2756 1.524 . S
C2755 C2759 1.400 . S
C2756 H2741 0.960 . S
C2756 H2742 0.960 . S
C2756 H2743 0.960 . S
C2756 C2755 1.524 . S
C2757 C2754 1.403 . S
C2757 C2758 1.392 . S
C2757 C2761 1.495 . S
C2758 C2757 1.392 . S
C2758 C2759 1.385 . S
C2758 C2760 1.478 . S
C2759 H2753 0.930 . S
C2759 C2755 1.400 . S
C2759 C2758 1.385 . S
C2760 C2758 1.478 . S
C2760 C2762 1.381 . S
C2760 C2766 1.383 . S
C2761 C2757 1.495 . S
C2761 H2767 0.959 . S
C2761 H2768 0.961 . S
C2761 H2769 0.960 . S
C2762 C2760 1.381 . S
C2762 C2763 1.394 . S
C2762 H2770 0.930 . S
C2763 C2762 1.394 . S
C2763 C2764 1.383 . S
C2763 H2771 0.929 . S
C2764 C2763 1.383 . S
C2764 C2765 1.377 . S
C2765 H2749 0.930 . S
C2765 C2764 1.377 . S
C2765 C2766 1.379 . S
C2766 H2750 0.931 . S
C2766 C2760 1.383 . S
C2766 C2765 1.379 . S
H2767 C2761 0.959 . S
H2768 C2761 0.961 . S
H2769 C2761 0.960 . S
H2770 C2762 0.930 . S
H2771 C2763 0.929 . S
H2772 C2780 0.929 . S
H2773 C2782 0.930 . S
H2774 C2784 0.930 . S
H2775 C2787 0.929 . S
H2776 C2790 0.930 . S
H2777 C2792 0.960 . S
H2778 C2792 0.960 . S
H2779 C2792 0.960 . S
C2780 H2772 0.929 . S
C2780 C2781 1.377 . S
C2780 C2782 1.384 . S
C2781 C2780 1.377 . S
C2781 C2787 1.390 . S
C2782 H2773 0.930 . S
C2782 C2780 1.384 . S
C2782 C2783 1.372 . S
C2783 C2782 1.372 . S
C2783 C2784 1.400 . S
C2783 C2788 1.490 . S
C2784 H2774 0.930 . S
C2784 C2783 1.400 . S
C2784 C2787 1.386 . S
H2785 C2801 0.930 . S
H2786 C2802 0.931 . S
C2787 H2775 0.929 . S
C2787 C2781 1.390 . S
C2787 C2784 1.386 . S
C2788 C2783 1.490 . S
C2788 C2790 1.395 . S
C2788 C2791 1.403 . S
H2789 C2795 0.930 . S
C2790 H2776 0.930 . S
C2790 C2788 1.395 . S
C2790 C2793 1.403 . S
C2791 C2788 1.403 . S
C2791 C2792 1.524 . S
C2791 C2795 1.400 . S
C2792 H2777 0.960 . S
C2792 H2778 0.960 . S
C2792 H2779 0.960 . S
C2792 C2791 1.524 . S
C2793 C2790 1.403 . S
C2793 C2794 1.392 . S
C2793 C2797 1.495 . S
C2794 C2793 1.392 . S
C2794 C2795 1.385 . S
C2794 C2796 1.478 . S
C2795 H2789 0.930 . S
C2795 C2791 1.400 . S
C2795 C2794 1.385 . S
C2796 C2794 1.478 . S
C2796 C2798 1.381 . S
C2796 C2802 1.383 . S
C2797 C2793 1.495 . S
C2797 H2803 0.959 . S
C2797 H2804 0.961 . S
C2797 H2805 0.960 . S
C2798 C2796 1.381 . S
C2798 C2799 1.394 . S
C2798 H2806 0.930 . S
C2799 C2798 1.394 . S
C2799 C2800 1.383 . S
C2799 H2807 0.929 . S
C2800 C2799 1.383 . S
C2800 C2801 1.377 . S
C2801 H2785 0.930 . S
C2801 C2800 1.377 . S
C2801 C2802 1.379 . S
C2802 H2786 0.931 . S
C2802 C2796 1.383 . S
C2802 C2801 1.379 . S
H2803 C2797 0.959 . S
H2804 C2797 0.961 . S
H2805 C2797 0.960 . S
H2806 C2798 0.930 . S
H2807 C2799 0.929 . S
H2808 C2816 0.929 . S
H2809 C2818 0.930 . S
H2810 C2820 0.930 . S
H2811 C2823 0.929 . S
H2812 C2826 0.930 . S
H2813 C2828 0.960 . S
H2814 C2828 0.960 . S
H2815 C2828 0.960 . S
C2816 H2808 0.929 . S
C2816 C2817 1.377 . S
C2816 C2818 1.384 . S
C2817 C2816 1.377 . S
C2817 C2823 1.390 . S
C2818 H2809 0.930 . S
C2818 C2816 1.384 . S
C2818 C2819 1.372 . S
C2819 C2818 1.372 . S
C2819 C2820 1.400 . S
C2819 C2824 1.490 . S
C2820 H2810 0.930 . S
C2820 C2819 1.400 . S
C2820 C2823 1.386 . S
H2821 C2837 0.930 . S
H2822 C2838 0.931 . S
C2823 H2811 0.929 . S
C2823 C2817 1.390 . S
C2823 C2820 1.386 . S
C2824 C2819 1.490 . S
C2824 C2826 1.395 . S
C2824 C2827 1.403 . S
H2825 C2831 0.930 . S
C2826 H2812 0.930 . S
C2826 C2824 1.395 . S
C2826 C2829 1.403 . S
C2827 C2824 1.403 . S
C2827 C2828 1.524 . S
C2827 C2831 1.400 . S
C2828 H2813 0.960 . S
C2828 H2814 0.960 . S
C2828 H2815 0.960 . S
C2828 C2827 1.524 . S
C2829 C2826 1.403 . S
C2829 C2830 1.392 . S
C2829 C2833 1.495 . S
C2830 C2829 1.392 . S
C2830 C2831 1.385 . S
C2830 C2832 1.478 . S
C2831 H2825 0.930 . S
C2831 C2827 1.400 . S
C2831 C2830 1.385 . S
C2832 C2830 1.478 . S
C2832 C2834 1.381 . S
C2832 C2838 1.383 . S
C2833 C2829 1.495 . S
C2833 H2839 0.959 . S
C2833 H2840 0.961 . S
C2833 H2841 0.960 . S
C2834 C2832 1.381 . S
C2834 C2835 1.394 . S
C2834 H2842 0.930 . S
C2835 C2834 1.394 . S
C2835 C2836 1.383 . S
C2835 H2843 0.929 . S
C2836 C2835 1.383 . S
C2836 C2837 1.377 . S
C2837 H2821 0.930 . S
C2837 C2836 1.377 . S
C2837 C2838 1.379 . S
C2838 H2822 0.931 . S
C2838 C2832 1.383 . S
C2838 C2837 1.379 . S
H2839 C2833 0.959 . S
H2840 C2833 0.961 . S
H2841 C2833 0.960 . S
H2842 C2834 0.930 . S
H2843 C2835 0.929 . S
H2844 C2852 0.929 . S
H2845 C2854 0.930 . S
H2846 C2856 0.930 . S
H2847 C2859 0.929 . S
H2848 C2862 0.930 . S
H2849 C2864 0.960 . S
H2850 C2864 0.960 . S
H2851 C2864 0.960 . S
C2852 H2844 0.929 . S
C2852 C2853 1.377 . S
C2852 C2854 1.384 . S
C2853 C2852 1.377 . S
C2853 C2859 1.390 . S
C2854 H2845 0.930 . S
C2854 C2852 1.384 . S
C2854 C2855 1.372 . S
C2855 C2854 1.372 . S
C2855 C2856 1.400 . S
C2855 C2860 1.490 . S
C2856 H2846 0.930 . S
C2856 C2855 1.400 . S
C2856 C2859 1.386 . S
H2857 C2873 0.930 . S
H2858 C2874 0.931 . S
C2859 H2847 0.929 . S
C2859 C2853 1.390 . S
C2859 C2856 1.386 . S
C2860 C2855 1.490 . S
C2860 C2862 1.395 . S
C2860 C2863 1.403 . S
H2861 C2867 0.930 . S
C2862 H2848 0.930 . S
C2862 C2860 1.395 . S
C2862 C2865 1.403 . S
C2863 C2860 1.403 . S
C2863 C2864 1.524 . S
C2863 C2867 1.400 . S
C2864 H2849 0.960 . S
C2864 H2850 0.960 . S
C2864 H2851 0.960 . S
C2864 C2863 1.524 . S
C2865 C2862 1.403 . S
C2865 C2866 1.392 . S
C2865 C2869 1.495 . S
C2866 C2865 1.392 . S
C2866 C2867 1.385 . S
C2866 C2868 1.478 . S
C2867 H2861 0.930 . S
C2867 C2863 1.400 . S
C2867 C2866 1.385 . S
C2868 C2866 1.478 . S
C2868 C2870 1.381 . S
C2868 C2874 1.383 . S
C2869 C2865 1.495 . S
C2869 H2875 0.959 . S
C2869 H2876 0.961 . S
C2869 H2877 0.960 . S
C2870 C2868 1.381 . S
C2870 C2871 1.394 . S
C2870 H2878 0.930 . S
C2871 C2870 1.394 . S
C2871 C2872 1.383 . S
C2871 H2879 0.929 . S
C2872 C2871 1.383 . S
C2872 C2873 1.377 . S
C2873 H2857 0.930 . S
C2873 C2872 1.377 . S
C2873 C2874 1.379 . S
C2874 H2858 0.931 . S
C2874 C2868 1.383 . S
C2874 C2873 1.379 . S
H2875 C2869 0.959 . S
H2876 C2869 0.961 . S
H2877 C2869 0.960 . S
H2878 C2870 0.930 . S
H2879 C2871 0.929 . S
H2880 C2888 0.929 . S
H2881 C2890 0.930 . S
H2882 C2892 0.930 . S
H2883 C2895 0.929 . S
H2884 C2898 0.930 . S
H2885 C2900 0.960 . S
H2886 C2900 0.960 . S
H2887 C2900 0.960 . S
C2888 H2880 0.929 . S
C2888 C2889 1.377 . S
C2888 C2890 1.384 . S
C2889 C2888 1.377 . S
C2889 C2895 1.390 . S
C2890 H2881 0.930 . S
C2890 C2888 1.384 . S
C2890 C2891 1.372 . S
C2891 C2890 1.372 . S
C2891 C2892 1.400 . S
C2891 C2896 1.490 . S
C2892 H2882 0.930 . S
C2892 C2891 1.400 . S
C2892 C2895 1.386 . S
H2893 C2909 0.930 . S
H2894 C2910 0.931 . S
C2895 H2883 0.929 . S
C2895 C2889 1.390 . S
C2895 C2892 1.386 . S
C2896 C2891 1.490 . S
C2896 C2898 1.395 . S
C2896 C2899 1.403 . S
H2897 C2903 0.930 . S
C2898 H2884 0.930 . S
C2898 C2896 1.395 . S
C2898 C2901 1.403 . S
C2899 C2896 1.403 . S
C2899 C2900 1.524 . S
C2899 C2903 1.400 . S
C2900 H2885 0.960 . S
C2900 H2886 0.960 . S
C2900 H2887 0.960 . S
C2900 C2899 1.524 . S
C2901 C2898 1.403 . S
C2901 C2902 1.392 . S
C2901 C2905 1.495 . S
C2902 C2901 1.392 . S
C2902 C2903 1.385 . S
C2902 C2904 1.478 . S
C2903 H2897 0.930 . S
C2903 C2899 1.400 . S
C2903 C2902 1.385 . S
C2904 C2902 1.478 . S
C2904 C2906 1.381 . S
C2904 C2910 1.383 . S
C2905 C2901 1.495 . S
C2905 H2911 0.959 . S
C2905 H2912 0.961 . S
C2905 H2913 0.960 . S
C2906 C2904 1.381 . S
C2906 C2907 1.394 . S
C2906 H2914 0.930 . S
C2907 C2906 1.394 . S
C2907 C2908 1.383 . S
C2907 H2915 0.929 . S
C2908 C2907 1.383 . S
C2908 C2909 1.377 . S
C2909 H2893 0.930 . S
C2909 C2908 1.377 . S
C2909 C2910 1.379 . S
C2910 H2894 0.931 . S
C2910 C2904 1.383 . S
C2910 C2909 1.379 . S
H2911 C2905 0.959 . S
H2912 C2905 0.961 . S
H2913 C2905 0.960 . S
H2914 C2906 0.930 . S
H2915 C2907 0.929 . S
H2916 C2924 0.929 . S
H2917 C2926 0.930 . S
H2918 C2928 0.930 . S
H2919 C2931 0.929 . S
H2920 C2934 0.930 . S
H2921 C2936 0.960 . S
H2922 C2936 0.960 . S
H2923 C2936 0.960 . S
C2924 H2916 0.929 . S
C2924 C2925 1.377 . S
C2924 C2926 1.384 . S
C2925 C2924 1.377 . S
C2925 C2931 1.390 . S
C2926 H2917 0.930 . S
C2926 C2924 1.384 . S
C2926 C2927 1.372 . S
C2927 C2926 1.372 . S
C2927 C2928 1.400 . S
C2927 C2932 1.490 . S
C2928 H2918 0.930 . S
C2928 C2927 1.400 . S
C2928 C2931 1.386 . S
H2929 C2945 0.930 . S
H2930 C2946 0.931 . S
C2931 H2919 0.929 . S
C2931 C2925 1.390 . S
C2931 C2928 1.386 . S
C2932 C2927 1.490 . S
C2932 C2934 1.395 . S
C2932 C2935 1.403 . S
H2933 C2939 0.930 . S
C2934 H2920 0.930 . S
C2934 C2932 1.395 . S
C2934 C2937 1.403 . S
C2935 C2932 1.403 . S
C2935 C2936 1.524 . S
C2935 C2939 1.400 . S
C2936 H2921 0.960 . S
C2936 H2922 0.960 . S
C2936 H2923 0.960 . S
C2936 C2935 1.524 . S
C2937 C2934 1.403 . S
C2937 C2938 1.392 . S
C2937 C2941 1.495 . S
C2938 C2937 1.392 . S
C2938 C2939 1.385 . S
C2938 C2940 1.478 . S
C2939 H2933 0.930 . S
C2939 C2935 1.400 . S
C2939 C2938 1.385 . S
C2940 C2938 1.478 . S
C2940 C2942 1.381 . S
C2940 C2946 1.383 . S
C2941 C2937 1.495 . S
C2941 H2947 0.959 . S
C2941 H2948 0.961 . S
C2941 H2949 0.960 . S
C2942 C2940 1.381 . S
C2942 C2943 1.394 . S
C2942 H2950 0.930 . S
C2943 C2942 1.394 . S
C2943 C2944 1.383 . S
C2943 H2951 0.929 . S
C2944 C2943 1.383 . S
C2944 C2945 1.377 . S
C2945 H2929 0.930 . S
C2945 C2944 1.377 . S
C2945 C2946 1.379 . S
C2946 H2930 0.931 . S
C2946 C2940 1.383 . S
C2946 C2945 1.379 . S
H2947 C2941 0.959 . S
H2948 C2941 0.961 . S
H2949 C2941 0.960 . S
H2950 C2942 0.930 . S
H2951 C2943 0.929 . S
C801 C182 0.809 . S
C820 C17 0.813 . S
C837 C50 0.812 . S
C856 C215 0.798 . S
C873 C83 0.808 . S
C892 C248 0.776 . S
C909 C149 0.814 . S
C928 C116 0.771 . S
C945 C281 0.814 . S
C964 C776 0.774 . S
C981 C710 0.814 . S
C1000 C314 0.771 . S
C1017 C347 0.814 . S
C1036 C743 0.780 . S
C1053 C545 0.808 . S
C1072 C380 0.819 . S
C1089 C413 0.805 . S
C1108 C677 0.788 . S
C1125 C446 0.799 . S
C1144 C578 0.846 . S
C1161 C611 0.808 . S
C1180 C479 0.775 . S
C1197 C512 0.798 . S
C1216 C644 0.845 . S
C1233 N104 1.660 . S
C1252 C28 1.711 . S
C1269 C61 1.728 . S
C1288 N5 1.678 . S
C1305 C94 1.734 . S
C1324 N38 1.623 . S
C1341 N71 1.651 . S
C1360 C127 1.744 . S
C1377 N170 1.650 . S
C1396 C160 1.742 . S
C1413 C193 1.731 . S
C1432 N203 1.631 . S
C1449 N236 1.652 . S
C1468 C226 1.723 . S
C1485 N137 1.659 . S
C1504 C259 1.712 . S
C1521 N599 1.660 . S
C1540 C292 1.727 . S
C1557 C325 1.731 . S
C1576 N632 1.679 . S
C1593 N665 1.662 . S
C1612 C358 1.715 . S
C1629 C391 1.731 . S
C1648 N566 1.679 . S
C1665 N731 1.649 . S
C1684 C424 1.741 . S
C1701 C457 1.732 . S
C1720 N533 1.671 . S
C1737 N764 1.653 . S
C1756 C490 1.743 . S
C1773 C523 1.730 . S
C1792 N698 1.681 . S
C1809 N302 1.662 . S
C1828 C556 1.717 . S
C1845 N500 1.649 . S
C1864 C589 1.736 . S
C1881 C622 1.733 . S
C1900 N401 1.660 . S
C1917 C655 1.728 . S
C1936 N434 1.677 . S
C1953 N467 1.657 . S
C1972 C688 1.713 . S
C1989 N368 1.662 . S
C2008 C721 1.719 . S
C2025 N269 1.651 . S
C2044 C754 1.727 . S
C2061 C787 1.728 . S
C2080 N335 1.675 . S
C2097 C8 1.079 . S
C2116 N542 1.011 . S
C2133 N773 1.057 . S
C2152 C41 1.073 . S
C2169 C74 1.075 . S
C2188 N707 1.059 . S
C2205 N740 1.049 . S
C2224 C107 1.093 . S
C2241 C140 1.077 . S
C2260 N575 1.080 . S
C2277 C173 1.081 . S
C2296 N608 1.078 . S
C2313 N641 1.056 . S
C2332 C206 1.070 . S
C2349 N674 1.051 . S
C2368 C239 1.061 . S
C2385 N14 1.049 . S
C2404 C272 1.093 . S
C2421 C305 1.080 . S
C2440 N47 1.015 . S
C2457 C338 1.076 . S
C2476 N80 1.069 . S
C2493 C371 1.082 . S
C2512 N113 1.049 . S
C2529 C404 1.075 . S
C2548 N146 1.027 . S
C2565 C437 1.082 . S
C2584 N179 1.056 . S
C2601 C470 1.079 . S
C2620 N212 1.013 . S
C2637 C503 1.077 . S
C2656 N245 1.080 . S
C2673 N278 1.046 . S
C2692 C536 1.089 . S
C2709 C569 1.081 . S
C2728 N410 1.079 . S
C2745 C602 1.077 . S
C2764 N443 1.010 . S
C2781 N476 1.042 . S
C2800 C635 1.077 . S
C2817 C668 1.075 . S
C2836 N509 1.023 . S
C2853 N344 1.043 . S
C2872 C701 1.082 . S
C2889 N377 1.056 . S
C2908 C734 1.071 . S
C2925 C767 1.082 . S
C2944 N311 1.049 . S
