# Generated by pormake.
# Topology fnj, (5)-cn, num edge types: 1
# Building blocks:
#     Node 0, Type 0, BuildingBlock: XOMCOT_clean_sbu_1, # of connection points: 5
#     Node 1, Type 0, BuildingBlock: XOMCOT_clean_sbu_1, # of connection points: 5
#     Node 2, Type 0, BuildingBlock: XOMCOT_clean_sbu_1, # of connection points: 5
#     Node 3, Type 0, BuildingBlock: XOMCOT_clean_sbu_1, # of connection points: 5
#     Node 4, Type 0, BuildingBlock: XOMCOT_clean_sbu_1, # of connection points: 5
#     Node 5, Type 0, BuildingBlock: XOMCOT_clean_sbu_1, # of connection points: 5
#     Node 6, Type 0, BuildingBlock: XOMCOT_clean_sbu_1, # of connection points: 5
#     Node 7, Type 0, BuildingBlock: XOMCOT_clean_sbu_1, # of connection points: 5
#     Node 8, Type 0, BuildingBlock: XOMCOT_clean_sbu_1, # of connection points: 5
#     Node 9, Type 0, BuildingBlock: XOMCOT_clean_sbu_1, # of connection points: 5
#     Node 10, Type 0, BuildingBlock: XOMCOT_clean_sbu_1, # of connection points: 5
#     Node 11, Type 0, BuildingBlock: XOMCOT_clean_sbu_1, # of connection points: 5
#     Node 12, Type 0, BuildingBlock: XOMCOT_clean_sbu_1, # of connection points: 5
#     Node 13, Type 0, BuildingBlock: XOMCOT_clean_sbu_1, # of connection points: 5
#     Node 14, Type 0, BuildingBlock: XOMCOT_clean_sbu_1, # of connection points: 5
#     Node 15, Type 0, BuildingBlock: XOMCOT_clean_sbu_1, # of connection points: 5
#     Edge 16, Type (0, 0), BuildingBlock: AJUNOK_clean_linker_0, # of connection points: 2
#     Edge 17, Type (0, 0), BuildingBlock: AJUNOK_clean_linker_0, # of connection points: 2
#     Edge 18, Type (0, 0), BuildingBlock: AJUNOK_clean_linker_0, # of connection points: 2
#     Edge 19, Type (0, 0), BuildingBlock: AJUNOK_clean_linker_0, # of connection points: 2
#     Edge 20, Type (0, 0), BuildingBlock: AJUNOK_clean_linker_0, # of connection points: 2
#     Edge 21, Type (0, 0), BuildingBlock: AJUNOK_clean_linker_0, # of connection points: 2
#     Edge 22, Type (0, 0), BuildingBlock: AJUNOK_clean_linker_0, # of connection points: 2
#     Edge 23, Type (0, 0), BuildingBlock: AJUNOK_clean_linker_0, # of connection points: 2
#     Edge 24, Type (0, 0), BuildingBlock: AJUNOK_clean_linker_0, # of connection points: 2
#     Edge 25, Type (0, 0), BuildingBlock: AJUNOK_clean_linker_0, # of connection points: 2
#     Edge 26, Type (0, 0), BuildingBlock: AJUNOK_clean_linker_0, # of connection points: 2
#     Edge 27, Type (0, 0), BuildingBlock: AJUNOK_clean_linker_0, # of connection points: 2
#     Edge 28, Type (0, 0), BuildingBlock: AJUNOK_clean_linker_0, # of connection points: 2
#     Edge 29, Type (0, 0), BuildingBlock: AJUNOK_clean_linker_0, # of connection points: 2
#     Edge 30, Type (0, 0), BuildingBlock: AJUNOK_clean_linker_0, # of connection points: 2
#     Edge 31, Type (0, 0), BuildingBlock: AJUNOK_clean_linker_0, # of connection points: 2
#     Edge 32, Type (0, 0), BuildingBlock: AJUNOK_clean_linker_0, # of connection points: 2
#     Edge 33, Type (0, 0), BuildingBlock: AJUNOK_clean_linker_0, # of connection points: 2
#     Edge 34, Type (0, 0), BuildingBlock: AJUNOK_clean_linker_0, # of connection points: 2
#     Edge 35, Type (0, 0), BuildingBlock: AJUNOK_clean_linker_0, # of connection points: 2
#     Edge 36, Type (0, 0), BuildingBlock: AJUNOK_clean_linker_0, # of connection points: 2
#     Edge 37, Type (0, 0), BuildingBlock: AJUNOK_clean_linker_0, # of connection points: 2
#     Edge 38, Type (0, 0), BuildingBlock: AJUNOK_clean_linker_0, # of connection points: 2
#     Edge 39, Type (0, 0), BuildingBlock: AJUNOK_clean_linker_0, # of connection points: 2
#     Edge 40, Type (0, 0), BuildingBlock: AJUNOK_clean_linker_0, # of connection points: 2
#     Edge 41, Type (0, 0), BuildingBlock: AJUNOK_clean_linker_0, # of connection points: 2
#     Edge 42, Type (0, 0), BuildingBlock: AJUNOK_clean_linker_0, # of connection points: 2
#     Edge 43, Type (0, 0), BuildingBlock: AJUNOK_clean_linker_0, # of connection points: 2
#     Edge 44, Type (0, 0), BuildingBlock: AJUNOK_clean_linker_0, # of connection points: 2
#     Edge 45, Type (0, 0), BuildingBlock: AJUNOK_clean_linker_0, # of connection points: 2
#     Edge 46, Type (0, 0), BuildingBlock: AJUNOK_clean_linker_0, # of connection points: 2
#     Edge 47, Type (0, 0), BuildingBlock: AJUNOK_clean_linker_0, # of connection points: 2
#     Edge 48, Type (0, 0), BuildingBlock: AJUNOK_clean_linker_0, # of connection points: 2
#     Edge 49, Type (0, 0), BuildingBlock: AJUNOK_clean_linker_0, # of connection points: 2
#     Edge 50, Type (0, 0), BuildingBlock: AJUNOK_clean_linker_0, # of connection points: 2
#     Edge 51, Type (0, 0), BuildingBlock: AJUNOK_clean_linker_0, # of connection points: 2
#     Edge 52, Type (0, 0), BuildingBlock: AJUNOK_clean_linker_0, # of connection points: 2
#     Edge 53, Type (0, 0), BuildingBlock: AJUNOK_clean_linker_0, # of connection points: 2
#     Edge 54, Type (0, 0), BuildingBlock: AJUNOK_clean_linker_0, # of connection points: 2
#     Edge 55, Type (0, 0), BuildingBlock: AJUNOK_clean_linker_0, # of connection points: 2
# Relax obj value: 0.170
# Max RMSD: 0.163
# Mean RMSD: 0.159
data_MOF--net-fnj--node1-XOMCOT_clean_sbu_1--edge1-AJUNOK_clean_linker_0
_symmetry_space_group_name_H-M    P1
_symmetry_Int_Tables_number       1
_symmetry_cell_setting            triclinic
loop_
_symmetry_equiv_pos_as_xyz
'x, y, z'
_cell_length_a     56.205581
_cell_length_b     56.196005
_cell_length_c     13.57351
_cell_angle_alpha  92.007063
_cell_angle_beta   92.070817
_cell_angle_gamma 91.911412
loop_
_atom_site_label
_atom_site_type_symbol
_atom_site_fract_x
_atom_site_fract_y
_atom_site_fract_z
_atom_type_partial_charge
C0 C 0.44132 0.04027 0.12504 0.0
C1 C 0.44148 0.03889 0.22608 0.0
N2 N 0.43777 0.06076 0.26498 0.0
N3 N 0.4374 0.06289 0.10046 0.0
C4 C 0.43567 0.07505 0.18747 0.0
H5 H 0.44328 0.02561 0.07252 0.0
Co6 Co 0.43314 0.07311 0.97187 0.0
C7 C 0.3929 0.10527 0.98381 0.0
O8 O 0.38663 0.09696 0.89466 0.0
N9 N 0.42994 0.08387 0.84059 0.0
C10 C 0.43171 0.10894 0.71678 0.0
C11 C 0.43163 0.10708 0.81749 0.0
C12 C 0.43024 0.07205 0.75188 0.0
N13 N 0.43068 0.08682 0.67551 0.0
O14 O 0.46308 0.09041 0.98357 0.0
H15 H 0.43334 0.12182 0.87096 0.0
H16 H 0.43207 0.05313 0.74239 0.0
O17 O 0.41326 0.09977 0.02177 0.0
C18 C 0.47661 0.0743 0.95019 0.0
O19 O 0.4669 0.0531 0.9277 0.0
N20 N 0.40589 0.05314 0.95805 0.0
C21 C 0.36905 0.01919 0.93884 0.0
C22 C 0.36849 0.0375 0.01089 0.0
C23 C 0.3875 0.05393 0.02129 0.0
C24 C 0.4077 0.03396 0.89513 0.0
C25 C 0.38912 0.01716 0.8817 0.0
H26 H 0.38778 0.06665 0.08277 0.0
H27 H 0.42417 0.03082 0.85966 0.0
H28 H 0.43208 0.09383 0.19406 0.0
H29 H 0.44398 0.02302 0.2677 0.0
H30 H 0.43292 0.1253 0.67715 0.0
H31 H 0.35403 0.03853 0.06135 0.0
H32 H 0.39075 1.00236 0.82933 0.0
C33 C 0.29697 0.20621 0.4831 0.0
C34 C 0.29805 0.20553 0.58442 0.0
N35 N 0.27593 0.20094 0.61496 0.0
N36 N 0.2743 0.20168 0.44943 0.0
C37 C 0.26183 0.19904 0.53216 0.0
H38 H 0.31186 0.21018 0.43764 0.0
Co39 Co 0.26276 0.20024 0.31745 0.0
C40 C 0.22036 0.16247 0.31717 0.0
O41 O 0.22479 0.15617 0.22577 0.0
N42 N 0.25102 0.19935 0.18544 0.0
C43 C 0.22699 0.20322 0.05359 0.0
C44 C 0.22851 0.20367 0.15506 0.0
C45 C 0.26299 0.19713 0.10101 0.0
N46 N 0.24873 0.19904 0.01933 0.0
O47 O 0.24901 0.23223 0.33757 0.0
H48 H 0.21415 0.2072 0.20385 0.0
H49 H 0.28204 0.1955 0.09952 0.0
O50 O 0.23337 0.17963 0.3601 0.0
C51 C 0.2645 0.24667 0.30047 0.0
O52 O 0.28282 0.23716 0.25925 0.0
N53 N 0.28158 0.17343 0.29115 0.0
C54 C 0.31805 0.14505 0.22147 0.0
C55 C 0.29636 0.1346 0.25122 0.0
C56 C 0.27833 0.14919 0.28754 0.0
C57 C 0.30299 0.18331 0.26694 0.0
C58 C 0.32126 0.16968 0.23267 0.0
H59 H 0.26198 0.14093 0.31062 0.0
H60 H 0.30576 0.20233 0.26995 0.0
H61 H 0.24275 0.19584 0.53224 0.0
H62 H 0.31375 0.20878 0.63216 0.0
H63 H 0.21109 0.20599 1.00866 0.0
H64 H 0.29328 0.11548 0.2453 0.0
H65 H 0.33742 0.17865 0.21004 0.0
C66 C 0.11636 0.01948 0.35951 0.0
C67 C 0.11688 0.01886 0.25826 0.0
N68 N 0.11671 0.04139 0.22781 0.0
N69 N 0.11607 0.04235 0.39351 0.0
C70 C 0.1157 0.05522 0.31097 0.0
H71 H 0.11604 1.00406 0.40466 0.0
Co72 Co 0.11645 0.05404 0.52573 0.0
C73 C 0.15427 0.0966 0.52439 0.0
O74 O 0.16057 0.093 0.61667 0.0
N75 N 0.11639 0.06602 0.65731 0.0
C76 C 0.11202 0.09048 0.7877 0.0
C77 C 0.1119 0.08861 0.68615 0.0
C78 C 0.11845 0.0544 0.74279 0.0
N79 N 0.11634 0.06892 0.82331 0.0
O80 O 0.08461 0.06771 0.50294 0.0
H81 H 0.10857 0.10282 0.63627 0.0
H82 H 0.12039 0.03543 0.74654 0.0
O83 O 0.1371 0.0833 0.4832 0.0
C84 C 0.06971 0.0498 0.50994 0.0
O85 O 0.07861 0.02867 0.51747 0.0
N86 N 0.14317 0.0355 0.55584 0.0
C87 C 0.1714 0.99892 0.62565 0.0
C88 C 0.18196 0.02017 0.59177 0.0
C89 C 0.16742 0.03827 0.55548 0.0
C90 C 0.13313 1.01463 0.58549 0.0
C91 C 0.14668 0.99631 0.61982 0.0
H92 H 0.17567 0.05428 0.5288 0.0
H93 H 0.11406 1.01239 0.58632 0.0
H94 H 0.11483 0.07441 0.31176 0.0
H95 H 0.117 1.00301 0.21064 0.0
H96 H 0.10911 0.10646 0.83184 0.0
H97 H 0.20114 0.02282 0.5941 0.0
H98 H 0.13764 0.98057 0.64625 0.0
C99 C 0.27239 0.8713 0.72891 0.0
C100 C 0.27335 0.86988 0.62764 0.0
N101 N 0.25145 0.87367 0.58897 0.0
N102 N 0.25006 0.87628 0.75397 0.0
C103 C 0.23765 0.87741 0.66714 0.0
H104 H 0.28717 0.86949 0.78112 0.0
Co105 Co 0.24017 0.88195 0.88251 0.0
C106 C 0.21079 0.92414 0.86498 0.0
O107 O 0.2201 0.93075 0.95223 0.0
N108 N 0.22959 0.88633 0.01418 0.0
C109 C 0.20435 0.88691 0.1377 0.0
C110 C 0.20648 0.8881 0.03748 0.0
C111 C 0.24083 0.88255 0.10221 0.0
N112 N 0.22601 0.88321 0.1784 0.0
O113 O 0.22149 0.85276 0.87394 0.0
H114 H 0.19179 0.88935 0.98449 0.0
H115 H 0.25904 0.87729 0.11066 0.0
O116 O 0.21455 0.90298 0.83024 0.0
C117 C 0.23675 0.83897 0.91218 0.0
O118 O 0.25843 0.8477 0.93272 0.0
N119 N 0.26132 0.90852 0.89344 0.0
C120 C 0.29537 0.94536 0.90952 0.0
C121 C 0.27828 0.94453 0.83212 0.0
C122 C 0.26177 0.92559 0.8239 0.0
C123 C 0.27929 0.90802 0.96315 0.0
C124 C 0.29614 0.92663 0.97451 0.0
H125 H 0.24961 0.92447 0.76034 0.0
H126 H 0.28145 0.89265 1.00682 0.0
H127 H 0.21908 0.88183 0.6612 0.0
H128 H 0.28899 0.86658 0.5856 0.0
H129 H 0.18803 0.88832 0.17701 0.0
H130 H 0.27817 0.95795 0.77671 0.0
H131 H 0.30995 0.9261 0.0321 0.0
C132 C 0.63825 0.10026 0.72137 0.0
C133 C 0.63784 0.10171 0.6206 0.0
N134 N 0.62626 0.08211 0.58072 0.0
N135 N 0.62742 0.0796 0.74516 0.0
C136 C 0.62031 0.06886 0.65795 0.0
H137 H 0.64571 0.11358 0.77411 0.0
Co138 Co 0.62173 0.07074 0.8726 0.0
C139 C 0.64096 0.02294 0.89382 0.0
O140 O 0.64555 0.02974 0.98631 0.0
N141 N 0.61445 0.06225 1.00367 0.0
C142 C 0.59708 0.0424 0.12338 0.0
C143 C 0.59949 0.04372 0.02323 0.0
C144 C 0.61992 0.0725 0.09396 0.0
N145 N 0.60987 0.06063 0.16737 0.0
O146 O 0.58863 0.06617 0.83946 0.0
H147 H 0.59108 0.03162 0.96773 0.0
H148 H 0.63093 0.08837 0.10761 0.0
O149 O 0.62945 0.03686 0.8371 0.0
C150 C 0.57737 0.08464 0.86519 0.0
O151 O 0.58987 0.10389 0.89505 0.0
N152 N 0.65407 0.07727 0.90602 0.0
C153 C 0.69844 0.08247 0.99613 0.0
C154 C 0.6949 0.06641 0.91615 0.0
C155 C 0.67251 0.06498 0.86823 0.0
C156 C 0.6589 0.0964 0.9681 0.0
C157 C 0.68101 0.09901 0.01678 0.0
H158 H 0.66969 0.05298 0.80509 0.0
H159 H 0.64501 0.10859 0.985 0.0
H160 H 0.61025 0.05208 0.65142 0.0
H161 H 0.64556 0.11611 0.58002 0.0
H162 H 0.58653 0.0293 0.16092 0.0
H163 H 0.70868 0.0545 0.89426 0.0
H164 H 0.68395 0.11273 0.07451 0.0
C165 C 0.73788 0.89637 0.59016 0.0
C166 C 0.73682 0.89702 0.48896 0.0
N167 N 0.7592 0.89941 0.45794 0.0
N168 N 0.76084 0.89851 0.62295 0.0
C169 C 0.77346 0.89998 0.54028 0.0
H170 H 0.72278 0.89468 0.63683 0.0
Co171 Co 0.77156 0.9006 0.75507 0.0
C172 C 0.81284 0.93798 0.75833 0.0
O173 O 0.80474 0.94624 0.84195 0.0
N174 N 0.78265 0.90212 0.8881 0.0
C175 C 0.80725 0.89803 0.01836 0.0
C176 C 0.80527 0.89772 0.91711 0.0
C177 C 0.77108 0.90431 0.9736 0.0
N178 N 0.78571 0.90228 0.05396 0.0
O179 O 0.78419 0.86817 0.74367 0.0
H180 H 0.8194 0.89398 0.86743 0.0
H181 H 0.7521 0.90599 0.97764 0.0
O182 O 0.80192 0.91956 0.71497 0.0
C183 C 0.76605 0.85402 0.75782 0.0
O184 O 0.74519 0.8636 0.76517 0.0
N185 N 0.75403 0.92839 0.77143 0.0
C186 C 0.71582 0.95891 0.78842 0.0
C187 C 0.73691 0.96647 0.74359 0.0
C188 C 0.7558 0.95064 0.73398 0.0
C189 C 0.73334 0.92085 0.81131 0.0
C190 C 0.71429 0.93564 0.82092 0.0
H191 H 0.77123 0.95602 0.69397 0.0
H192 H 0.73115 0.90261 0.83239 0.0
H193 H 0.79267 0.90194 0.54019 0.0
H194 H 0.72086 0.89568 0.44173 0.0
H195 H 0.82325 0.89501 0.06227 0.0
H196 H 0.73875 0.98429 0.71631 0.0
H197 H 0.69821 0.92865 0.85279 0.0
C198 C 0.92104 0.07929 0.75173 0.0
C199 C 0.92108 0.07968 0.85308 0.0
N200 N 0.92195 0.0571 0.88247 0.0
N201 N 0.92151 0.05651 0.71698 0.0
C202 C 0.92233 0.04342 0.79868 0.0
H203 H 0.92068 0.09475 0.70667 0.0
Co204 Co 0.92058 0.04547 0.58477 0.0
C205 C 0.88248 1.00445 0.58046 0.0
O206 O 0.8754 1.01112 0.49266 0.0
N207 N 0.92023 0.03392 0.45249 0.0
C208 C 0.92527 1.0087 0.3252 0.0
C209 C 0.92458 1.01113 0.42615 0.0
C210 C 0.91898 0.04513 0.36577 0.0
N211 N 0.92195 0.0302 0.2872 0.0
O212 O 0.95255 0.03222 0.60279 0.0
H213 H 0.92739 0.99712 0.47753 0.0
H214 H 0.9169 0.06404 0.35948 0.0
O215 O 0.90056 0.01581 0.62451 0.0
C216 C 0.96734 0.05016 0.59453 0.0
O217 O 0.9585 0.07144 0.59154 0.0
N218 N 0.89346 0.06349 0.56104 0.0
C219 C 0.86409 0.10171 0.52406 0.0
C220 C 0.85496 0.08101 0.56733 0.0
C221 C 0.87018 0.06206 0.58702 0.0
C222 C 0.90244 0.08391 0.52341 0.0
C223 C 0.88833 0.1031 0.50529 0.0
H224 H 0.86339 0.04679 0.62459 0.0
H225 H 0.92119 0.08561 0.50955 0.0
H226 H 0.92282 0.02418 0.79669 0.0
H227 H 0.9207 0.09536 0.9016 0.0
H228 H 0.92791 0.99232 0.28343 0.0
H229 H 0.83637 0.0795 0.5853 0.0
H230 H 0.89646 0.11902 0.47636 0.0
C231 C 0.72629 0.18981 0.56577 0.0
C232 C 0.72541 0.18988 0.66682 0.0
N233 N 0.74673 0.19791 0.70508 0.0
N234 N 0.74819 0.19737 0.54077 0.0
C235 C 0.76026 0.20231 0.62714 0.0
H236 H 0.71184 0.18475 0.51363 0.0
Co237 Co 0.75768 0.20117 0.41342 0.0
C238 C 0.80305 0.17701 0.39545 0.0
O239 O 0.79492 0.17108 0.30565 0.0
N240 N 0.76709 0.20658 0.2824 0.0
C241 C 0.78935 0.22076 0.16318 0.0
C242 C 0.78762 0.21854 0.26299 0.0
C243 C 0.75619 0.20279 0.19229 0.0
N244 N 0.76949 0.21088 0.11877 0.0
O245 O 0.76495 0.23411 0.44144 0.0
H246 H 0.80091 0.22478 0.31835 0.0
H247 H 0.73859 0.19496 0.17924 0.0
O248 O 0.7907 0.1907 0.45054 0.0
C249 C 0.74697 0.24621 0.41659 0.0
O250 O 0.72655 0.23469 0.39642 0.0
N251 N 0.74844 0.16923 0.38463 0.0
C252 C 0.74124 0.12469 0.2986 0.0
C253 C 0.75623 0.12761 0.38238 0.0
C254 C 0.75864 0.15022 0.42805 0.0
C255 C 0.72989 0.16535 0.31877 0.0
C256 C 0.72634 0.14312 0.27201 0.0
H257 H 0.77022 0.15279 0.49291 0.0
H258 H 0.7189 0.1799 0.29812 0.0
H259 H 0.77857 0.20896 0.63265 0.0
H260 H 0.71015 0.18495 0.70905 0.0
H261 H 0.80437 0.22847 0.12642 0.0
H262 H 0.76678 0.11317 0.40853 0.0
H263 H 0.7133 0.14075 0.21135 0.0
C264 C 0.94122 0.539 0.72431 0.0
C265 C 0.94156 0.53806 0.82551 0.0
N266 N 0.93874 0.56024 0.86324 0.0
N267 N 0.93828 0.56168 0.69844 0.0
C268 C 0.93708 0.57426 0.7846 0.0
H269 H 0.94259 0.52406 0.67264 0.0
Co270 Co 0.93534 0.57195 0.56991 0.0
C271 C 0.89662 0.60613 0.57577 0.0
O272 O 0.89046 0.59769 0.48664 0.0
N273 N 0.93346 0.58274 0.43867 0.0
C274 C 0.93653 0.60807 0.31614 0.0
C275 C 0.93643 0.60596 0.41666 0.0
C276 C 0.93318 0.57107 0.3495 0.0
N277 N 0.93446 0.58607 0.27435 0.0
O278 O 0.96588 0.58811 0.58385 0.0
H279 H 0.93892 0.6205 0.47078 0.0
H280 H 0.93301 0.552 0.33829 0.0
O281 O 0.91625 0.59959 0.61708 0.0
C282 C 0.97915 0.57162 0.55183 0.0
O283 O 0.9692 0.55036 0.53293 0.0
N284 N 0.90739 0.55322 0.55321 0.0
C285 C 0.86723 0.52489 0.50755 0.0
C286 C 0.86703 0.542 0.58477 0.0
C287 C 0.88782 0.55532 0.6095 0.0
C288 C 0.90881 0.53424 0.4892 0.0
C289 C 0.8887 0.52021 0.46279 0.0
H290 H 0.88799 0.56759 0.67253 0.0
H291 H 0.92569 0.52981 0.45948 0.0
H292 H 0.93517 0.59335 0.78955 0.0
H293 H 0.94318 0.52221 0.868 0.0
H294 H 0.93896 0.62437 0.27693 0.0
H295 H 0.85104 0.54527 0.62459 0.0
H296 H 0.88992 0.50577 0.40834 0.0
C297 C 0.79404 0.70762 0.99898 0.0
C298 C 0.7949 0.707 0.10024 0.0
N299 N 0.77243 0.70508 0.13079 0.0
N300 N 0.77111 0.70593 0.96547 0.0
C301 C 0.75835 0.70479 0.04796 0.0
H302 H 0.80927 0.70927 0.95305 0.0
Co303 Co 0.75992 0.70477 0.83326 0.0
C304 C 0.71845 0.66655 0.83214 0.0
O305 O 0.72476 0.65908 0.74441 0.0
N306 N 0.74834 0.70404 0.70087 0.0
C307 C 0.72368 0.70764 0.57038 0.0
C308 C 0.72562 0.70793 0.67184 0.0
C309 C 0.75997 0.70217 0.61542 0.0
N310 N 0.74534 0.70385 0.53491 0.0
O311 O 0.74642 0.73691 0.85123 0.0
H312 H 0.71135 0.71108 0.72156 0.0
H313 H 0.77899 0.70079 0.61148 0.0
O314 O 0.73028 0.68456 0.87456 0.0
C315 C 0.76457 0.75131 0.8402 0.0
O316 O 0.78531 0.74176 0.83006 0.0
N317 N 0.77854 0.67782 0.80919 0.0
C318 C 0.81739 0.64937 0.76929 0.0
C319 C 0.79629 0.63933 0.80647 0.0
C320 C 0.77709 0.65411 0.82848 0.0
C321 C 0.79902 0.68736 0.77381 0.0
C322 C 0.81837 0.67368 0.75329 0.0
H323 H 0.76156 0.64656 0.86191 0.0
H324 H 0.80052 0.7061 0.76089 0.0
H325 H 0.73909 0.70344 0.04756 0.0
H326 H 0.8108 0.70819 0.14784 0.0
H327 H 0.7076 0.71016 0.52623 0.0
H328 H 0.79485 0.62045 0.81962 0.0
H329 H 0.83393 0.68215 0.72276 0.0
C330 C 0.61177 0.52519 0.86523 0.0
C331 C 0.61156 0.5248 0.76375 0.0
N332 N 0.61045 0.54736 0.73412 0.0
N333 N 0.61118 0.54797 0.89988 0.0
C334 C 0.61007 0.56102 0.81804 0.0
H335 H 0.61243 0.50977 0.91046 0.0
Co336 Co 0.61235 0.55937 0.03184 0.0
C337 C 0.65074 0.60075 0.02921 0.0
O338 O 0.65821 0.59505 0.11784 0.0
N339 N 0.61299 0.57127 0.16399 0.0
C340 C 0.60883 0.59658 0.29187 0.0
C341 C 0.60948 0.59422 0.19075 0.0
C342 C 0.61377 0.55995 0.25059 0.0
N343 N 0.61134 0.57492 0.32954 0.0
O344 O 0.58007 0.57255 0.01325 0.0
H345 H 0.60718 0.60837 0.13962 0.0
H346 H 0.61508 0.54095 0.25659 0.0
O347 O 0.63248 0.5889 0.98864 0.0
C348 C 0.56587 0.55428 0.02503 0.0
O349 O 0.57571 0.53368 0.03598 0.0
N350 N 0.63948 0.54113 0.05662 0.0
C351 C 0.66878 0.50285 0.09502 0.0
C352 C 0.67815 0.52382 0.05453 0.0
C353 C 0.66294 0.5427 0.03324 0.0
C354 C 0.63054 0.52076 0.09526 0.0
C355 C 0.64468 0.50165 0.11506 0.0
H356 H 0.66991 0.55802 0.99655 0.0
H357 H 0.61188 0.51904 0.10979 0.0
H358 H 0.60944 0.58023 0.82009 0.0
H359 H 0.61206 0.50911 0.71536 0.0
H360 H 0.60676 0.61304 0.33398 0.0
H361 H 0.69683 0.52537 0.03792 0.0
H362 H 0.63675 0.48607 0.14754 0.0
C363 C 0.78542 0.38659 0.12801 0.0
C364 C 0.78616 0.38634 0.02677 0.0
N365 N 0.76364 0.38651 0.98929 0.0
N366 N 0.76252 0.3869 0.15421 0.0
C367 C 0.74966 0.38661 0.0682 0.0
H368 H 0.80058 0.38673 0.17941 0.0
Co369 Co 0.75187 0.38782 0.28252 0.0
C370 C 0.71538 0.42437 0.28059 0.0
O371 O 0.72304 0.43013 0.3712 0.0
N372 N 0.74067 0.38775 0.41323 0.0
C373 C 0.71534 0.38219 0.53411 0.0
C374 C 0.71769 0.3827 0.43371 0.0
C375 C 0.75207 0.38904 0.50313 0.0
N376 N 0.73703 0.38623 0.57731 0.0
O377 O 0.73742 0.3566 0.26238 0.0
H378 H 0.70349 0.37925 0.37862 0.0
H379 H 0.77104 0.39132 0.51576 0.0
O380 O 0.72341 0.40575 0.23678 0.0
C381 C 0.75499 0.34424 0.29102 0.0
O382 O 0.77545 0.35557 0.31246 0.0
N383 N 0.7692 0.41636 0.30566 0.0
C384 C 0.79641 0.45631 0.36515 0.0
C385 C 0.77928 0.45765 0.28835 0.0
C386 C 0.76636 0.43702 0.25691 0.0
C387 C 0.78846 0.41415 0.36758 0.0
C388 C 0.80196 0.43405 0.40081 0.0
H389 H 0.75403 0.43773 0.19435 0.0
H390 H 0.79335 0.39679 0.39124 0.0
H391 H 0.73039 0.38608 0.06365 0.0
H392 H 0.80206 0.38639 0.98404 0.0
H393 H 0.69914 0.37834 0.57224 0.0
H394 H 0.77587 0.47434 0.25373 0.0
H395 H 0.81668 0.43204 0.45327 0.0
C396 C 0.13709 0.5975 0.27869 0.0
C397 C 0.13693 0.59845 0.17758 0.0
N398 N 0.12612 0.5783 0.13908 0.0
N399 N 0.12678 0.57667 0.30356 0.0
C400 C 0.12018 0.56537 0.21706 0.0
H401 H 0.14403 0.61121 0.3309 0.0
Co402 Co 0.12156 0.56748 0.43053 0.0
C403 C 0.14047 0.51929 0.44553 0.0
O404 O 0.14543 0.5254 0.53851 0.0
N405 N 0.11471 0.55859 0.56118 0.0
C406 C 0.09769 0.53835 0.68035 0.0
C407 C 0.1002 0.53972 0.58041 0.0
C408 C 0.11961 0.56909 0.65138 0.0
N409 N 0.10991 0.55694 0.72498 0.0
O410 O 0.0882 0.56339 0.40025 0.0
H411 H 0.0923 0.52732 0.52483 0.0
H412 H 0.12935 0.58575 0.66447 0.0
O413 O 0.12871 0.53363 0.3917 0.0
C414 C 0.0772 0.58188 0.42799 0.0
O415 O 0.08995 0.60123 0.45444 0.0
N416 N 0.15421 0.57335 0.46186 0.0
C417 C 0.19804 0.57454 0.55748 0.0
C418 C 0.19428 0.56014 0.47236 0.0
C419 C 0.17223 0.56083 0.42188 0.0
C420 C 0.15972 0.59136 0.52862 0.0
C421 C 0.18144 0.59179 0.58058 0.0
H422 H 0.16907 0.54982 0.35591 0.0
H423 H 0.14651 0.60416 0.54699 0.0
H424 H 0.11121 0.548 0.21156 0.0
H425 H 0.14371 0.61306 0.13554 0.0
H426 H 0.08814 0.52438 0.71691 0.0
H427 H 0.20746 0.54775 0.44866 0.0
H428 H 0.18459 0.60434 0.64239 0.0
C429 C 0.237 0.39327 0.1164 0.0
C430 C 0.23579 0.39369 0.01502 0.0
N431 N 0.2581 0.3963 0.98325 0.0
N432 N 0.25997 0.3959 0.14854 0.0
C433 C 0.27244 0.39717 0.06541 0.0
H434 H 0.22203 0.39139 0.16359 0.0
Co435 Co 0.271 0.39843 0.28005 0.0
C436 C 0.31181 0.4367 0.28017 0.0
O437 O 0.30451 0.44458 0.3658 0.0
N438 N 0.28231 0.40032 0.41321 0.0
C439 C 0.30682 0.39698 0.54435 0.0
C440 C 0.30505 0.39672 0.44296 0.0
C441 C 0.2705 0.40195 0.49834 0.0
N442 N 0.28504 0.40035 0.57929 0.0
O443 O 0.28434 0.36613 0.26711 0.0
H444 H 0.31941 0.39355 0.39374 0.0
H445 H 0.25142 0.40281 0.50155 0.0
O446 O 0.30082 0.41812 0.23806 0.0
C447 C 0.26761 0.35225 0.29868 0.0
O448 O 0.24802 0.36226 0.32541 0.0
N449 N 0.25286 0.42597 0.29713 0.0
C450 C 0.21489 0.45658 0.32114 0.0
C451 C 0.23579 0.46439 0.27565 0.0
C452 C 0.25457 0.44854 0.26256 0.0
C453 C 0.23221 0.41823 0.33691 0.0
C454 C 0.2133 0.43302 0.34991 0.0
H455 H 0.2699 0.45425 0.22274 0.0
H456 H 0.22995 0.39993 0.35641 0.0
H457 H 0.29163 0.39901 0.06487 0.0
H458 H 0.21977 0.39201 0.96824 0.0
H459 H 0.32287 0.39449 0.58878 0.0
H460 H 0.23763 0.48245 0.25098 0.0
H461 H 0.19734 0.42588 0.38222 0.0
C462 C 0.42048 0.58116 0.27006 0.0
C463 C 0.41986 0.58231 0.37128 0.0
N464 N 0.41728 0.55996 0.40267 0.0
N465 N 0.41812 0.55819 0.23767 0.0
C466 C 0.41656 0.54564 0.32055 0.0
H467 H 0.4223 0.5962 0.22309 0.0
Co468 Co 0.41595 0.54746 0.10571 0.0
C469 C 0.3787 0.506 0.1026 0.0
O470 O 0.37043 0.51412 0.01895 0.0
N471 N 0.41439 0.53643 0.97274 0.0
C472 C 0.41846 0.51192 0.84235 0.0
C473 C 0.41876 0.51382 0.94359 0.0
C474 C 0.41226 0.54808 0.88736 0.0
N475 N 0.41429 0.53351 0.80688 0.0
O476 O 0.44851 0.53493 0.11698 0.0
H477 H 0.42247 0.49964 0.99316 0.0
H478 H 0.41066 0.56708 0.88359 0.0
O479 O 0.3971 0.51698 0.14601 0.0
C480 C 0.46265 0.553 0.10139 0.0
O481 O 0.453 0.57377 0.09198 0.0
N482 N 0.388 0.56488 0.08958 0.0
C483 C 0.35676 0.60254 0.0717 0.0
C484 C 0.34959 0.58135 0.11673 0.0
C485 C 0.36576 0.56276 0.12686 0.0
C486 C 0.3952 0.5857 0.04972 0.0
C487 C 0.38006 0.6045 0.03966 0.0
H488 H 0.36062 0.54728 0.16698 0.0
H489 H 0.41342 0.5882 0.02881 0.0
H490 H 0.41444 0.52644 0.32095 0.0
H491 H 0.42137 0.5983 0.41826 0.0
H492 H 0.42147 0.49594 0.79835 0.0
H493 H 0.33178 0.57915 0.14364 0.0
H494 H 0.38675 0.62068 1.00766 0.0
C495 C 0.21057 0.67987 0.12555 0.0
C496 C 0.20937 0.67937 0.22632 0.0
N497 N 0.23041 0.68772 0.26643 0.0
N498 N 0.23231 0.68831 0.10259 0.0
C499 C 0.24396 0.69326 0.1899 0.0
H500 H 0.19644 0.67466 0.07215 0.0
Co501 Co 0.24158 0.69295 0.97601 0.0
C502 C 0.2897 0.67413 0.96028 0.0
O503 O 0.28267 0.66792 0.86936 0.0
N504 N 0.25043 0.69915 0.8451 0.0
C505 C 0.27065 0.71485 0.72311 0.0
C506 C 0.26918 0.71357 0.82363 0.0
C507 C 0.24006 0.69313 0.75577 0.0
N508 N 0.25242 0.70172 0.68046 0.0
O509 O 0.24532 0.72642 1.00479 0.0
H510 H 0.28134 0.7223 0.87808 0.0
H511 H 0.2232 0.68366 0.74499 0.0
O512 O 0.27569 0.68619 0.01465 0.0
C513 C 0.22739 0.73745 0.9712 0.0
O514 O 0.20934 0.72486 0.92988 0.0
N515 N 0.23585 0.66007 0.94812 0.0
C516 C 0.23279 0.61426 0.8701 0.0
C517 C 0.24804 0.61962 0.95143 0.0
C518 C 0.24826 0.64264 0.99329 0.0
C519 C 0.21742 0.65365 0.88427 0.0
C520 C 0.21591 0.63078 0.84171 0.0
H521 H 0.25963 0.6468 0.05745 0.0
H522 H 0.20474 0.66666 0.86233 0.0
H523 H 0.26195 0.70077 0.1973 0.0
H524 H 0.19406 0.67383 0.26705 0.0
H525 H 0.28426 0.72446 0.68454 0.0
H526 H 0.26031 0.60672 0.97886 0.0
H527 H 0.20286 0.62657 0.78253 0.0
C528 C 0.44509 0.09456 0.50885 0.0
C529 C 0.43184 0.08029 0.57195 0.0
C530 C 0.44676 0.08823 0.4084 0.0
C531 C 0.43543 0.0673 0.36761 0.0
H532 H 0.4546 0.11053 0.53762 0.0
H533 H 0.45737 0.0995 0.3626 0.0
S534 S 0.39632 0.0253 0.49757 0.0
N535 N 0.40548 0.04537 0.58361 0.0
N536 N 0.40906 0.03331 0.39556 0.0
C537 C 0.42171 0.05317 0.42905 0.0
C538 C 0.41981 0.05969 0.531 0.0
C539 C 0.24278 0.21176 0.84719 0.0
C540 C 0.25547 0.19862 0.91721 0.0
C541 C 0.24922 0.21205 0.74823 0.0
C542 C 0.26881 0.1995 0.71557 0.0
H543 H 0.22801 0.22234 0.8692 0.0
H544 H 0.23923 0.22267 0.69732 0.0
S545 S 0.30653 0.16039 0.86464 0.0
N546 N 0.2874 0.17099 0.94312 0.0
N547 N 0.29994 0.1724 0.75819 0.0
C548 C 0.2814 0.18596 0.78365 0.0
C549 C 0.27465 0.18531 0.88412 0.0
C550 C 0.10325 0.06724 0.09411 0.0
C551 C 0.11761 0.04891 0.12732 0.0
C552 C 0.10308 0.07386 0.9951 0.0
C553 C 0.11738 0.06248 0.92568 0.0
H554 H 0.09162 0.07608 0.14448 0.0
H555 H 0.09124 0.0876 0.97227 0.0
S556 S 0.1607 0.01575 0.97929 0.0
N557 N 0.14807 0.02102 0.08546 0.0
N558 N 0.14808 0.03363 0.90044 0.0
C559 C 0.13252 0.04477 0.95922 0.0
C560 C 0.13256 0.03796 0.05967 0.0
C561 C 0.26053 0.88655 0.42179 0.0
C562 C 0.24485 0.87542 0.48581 0.0
C563 C 0.25432 0.88884 0.32156 0.0
C564 C 0.2322 0.88002 0.28127 0.0
H565 H 0.27756 0.89399 0.44988 0.0
H566 H 0.26674 0.898 0.27557 0.0
S567 S 0.18599 0.8469 0.41556 0.0
N568 N 0.20702 0.85399 0.5006 0.0
N569 N 0.1954 0.85794 0.31218 0.0
C570 C 0.21661 0.86827 0.34408 0.0
C571 C 0.22292 0.86607 0.44629 0.0
C572 C 0.62155 0.05324 0.43897 0.0
C573 C 0.62093 0.0768 0.47738 0.0
C574 C 0.61746 0.04797 0.33773 0.0
C575 C 0.61274 0.06609 0.27155 0.0
H576 H 0.62579 0.03891 0.48715 0.0
H577 H 0.61862 0.02972 0.31049 0.0
S578 S 0.60591 0.13002 0.33606 0.0
N579 N 0.61278 0.11796 0.44213 0.0
N580 N 0.60558 0.10801 0.25214 0.0
C581 C 0.61131 0.08953 0.30931 0.0
C582 C 0.61528 0.09489 0.41216 0.0
C583 C 0.78496 0.88752 0.32271 0.0
C584 C 0.76628 0.9011 0.35755 0.0
C585 C 0.79129 0.8881 0.22372 0.0
C586 C 0.77933 0.90248 0.15619 0.0
H587 H 0.79429 0.87592 0.37184 0.0
H588 H 0.80531 0.87678 0.19952 0.0
S589 S 0.7312 0.94376 0.21516 0.0
N590 N 0.73711 0.93065 0.31983 0.0
N591 N 0.74935 0.93231 0.13458 0.0
C592 C 0.76117 0.9168 0.19146 0.0
C593 C 0.75457 0.91597 0.29191 0.0
C594 C 0.90724 0.05422 0.15003 0.0
C595 C 0.92197 0.03629 0.1846 0.0
C596 C 0.90719 0.06074 0.05121 0.0
C597 C 0.92176 0.04951 0.98281 0.0
H598 H 0.89551 0.06319 0.19964 0.0
H599 H 0.89553 0.07459 0.02781 0.0
S600 S 0.9649 1.0028 0.03636 0.0
N601 N 0.95253 1.00834 0.14288 0.0
N602 N 0.95201 0.02036 0.95697 0.0
C603 C 0.93659 0.03161 0.01605 0.0
C604 C 0.93681 0.02506 0.11692 0.0
C605 C 0.74592 0.18431 0.87529 0.0
C606 C 0.75318 0.20133 0.80814 0.0
C607 C 0.75127 0.18761 0.97647 0.0
C608 C 0.764 0.20811 0.01437 0.0
H609 H 0.73619 0.16823 0.8491 0.0
H610 H 0.74561 0.17387 0.02533 0.0
S611 S 0.78504 0.25902 0.86965 0.0
N612 N 0.77256 0.23995 0.78638 0.0
N613 N 0.78241 0.24638 0.97692 0.0
C614 C 0.77107 0.22544 0.94794 0.0
C615 C 0.76572 0.22199 0.84473 0.0
C616 C 0.9503 0.56191 0.13819 0.0
C617 C 0.93527 0.57977 0.17104 0.0
C618 C 0.95146 0.55576 0.03749 0.0
C619 C 0.93749 0.56714 0.9662 0.0
H620 H 0.96148 0.55291 0.19073 0.0
H621 H 0.96355 0.54216 0.0151 0.0
S622 S 0.89315 0.61307 0.01678 0.0
N623 N 0.90504 0.60763 0.12639 0.0
N624 N 0.90671 0.59579 0.93712 0.0
C625 C 0.92198 0.58468 0.9987 0.0
C626 C 0.92099 0.59105 0.10115 0.0
C627 C 0.73981 0.71719 0.36363 0.0
C628 C 0.75177 0.70321 0.43264 0.0
C629 C 0.74631 0.71738 0.26466 0.0
C630 C 0.76514 0.70378 0.23123 0.0
H631 H 0.72566 0.72848 0.38668 0.0
H632 H 0.73698 0.72872 0.21444 0.0
S633 S 0.80019 0.66189 0.37806 0.0
N634 N 0.78186 0.67362 0.45723 0.0
N635 N 0.79436 0.67451 0.2722 0.0
C636 C 0.7768 0.68924 0.29844 0.0
C637 C 0.77006 0.68883 0.39884 0.0
C638 C 0.62493 0.54344 0.56471 0.0
C639 C 0.61075 0.55502 0.63365 0.0
C640 C 0.62514 0.55015 0.46609 0.0
C641 C 0.6111 0.56868 0.43209 0.0
H642 H 0.63614 0.52918 0.58749 0.0
H643 H 0.63656 0.54087 0.41618 0.0
S644 S 0.5694 0.60344 0.58163 0.0
N645 N 0.58154 0.58521 0.66029 0.0
N646 N 0.58162 0.59768 0.47497 0.0
C647 C 0.59667 0.5803 0.50026 0.0
C648 C 0.59657 0.57352 0.60092 0.0
C649 C 0.76298 0.37384 0.71514 0.0
C650 C 0.74322 0.38626 0.68104 0.0
C651 C 0.76939 0.37384 0.81594 0.0
C652 C 0.75637 0.38641 0.88624 0.0
H653 H 0.77338 0.36384 0.66348 0.0
H654 H 0.78455 0.36376 0.83915 0.0
S655 S 0.70466 0.42386 0.83245 0.0
N656 N 0.71153 0.41255 0.72363 0.0
N657 N 0.72377 0.41302 0.91309 0.0
C658 C 0.73678 0.39926 0.85259 0.0
C659 C 0.73017 0.39907 0.74998 0.0
C660 C 0.1349 0.57321 0.86646 0.0
C661 C 0.11336 0.56223 0.82949 0.0
C662 C 0.139 0.57816 0.96758 0.0
C663 C 0.12171 0.57237 0.03587 0.0
H664 H 0.14888 0.57777 0.81697 0.0
H665 H 0.15593 0.5864 0.99274 0.0
S666 S 0.06136 0.54586 0.97726 0.0
N667 N 0.07383 0.54734 0.86925 0.0
N668 N 0.08167 0.55656 0.05952 0.0
C669 C 0.09995 0.56175 1.00023 0.0
C670 C 0.09573 0.55674 0.89703 0.0
C671 C 0.28443 0.38541 0.84821 0.0
C672 C 0.26509 0.39811 0.88257 0.0
C673 C 0.2909 0.38631 0.74939 0.0
C674 C 0.27843 0.40016 0.68136 0.0
H675 H 0.29425 0.37427 0.89764 0.0
H676 H 0.30549 0.37567 0.72575 0.0
S677 S 0.22842 0.43926 0.73884 0.0
N678 N 0.23473 0.42639 0.84369 0.0
N679 N 0.24718 0.42862 0.65888 0.0
C680 C 0.25956 0.41361 0.7161 0.0
C681 C 0.25284 0.41247 0.81641 0.0
C682 C 0.42846 0.52789 0.63721 0.0
C683 C 0.41417 0.53994 0.70468 0.0
C684 C 0.42906 0.53419 0.53818 0.0
C685 C 0.41561 0.55296 0.50321 0.0
H686 H 0.43968 0.51378 0.66145 0.0
H687 H 0.44057 0.52476 0.4891 0.0
S688 S 0.37328 0.58841 0.64542 0.0
N689 N 0.3846 0.57017 0.72611 0.0
N690 N 0.38632 0.58238 0.54078 0.0
C691 C 0.40086 0.56481 0.5688 0.0
C692 C 0.4 0.55823 0.66931 0.0
C693 C 0.24838 0.71169 0.40738 0.0
C694 C 0.23668 0.69065 0.36975 0.0
C695 C 0.25348 0.7152 0.50891 0.0
C696 C 0.24726 0.69768 0.57613 0.0
H697 H 0.25305 0.72573 0.35821 0.0
H698 H 0.26194 0.73193 0.53504 0.0
S699 S 0.21881 0.63834 0.51139 0.0
N700 N 0.22045 0.65152 0.40509 0.0
N701 N 0.23062 0.65761 0.59535 0.0
C702 C 0.23627 0.67621 0.53834 0.0
C703 C 0.23085 0.67283 0.43531 0.0
C704 C 0.37924 0.12731 0.1363 0.0
C705 C 0.37371 0.11428 0.04764 0.0
C706 C 0.36112 0.13598 0.19562 0.0
C707 C 0.33673 0.13158 0.16983 0.0
H708 H 0.39765 0.13137 0.1588 0.0
H709 H 0.36624 0.14678 0.2611 0.0
S710 S 0.31258 0.09607 0.9514 0.0
N711 N 0.34174 0.09568 0.94177 0.0
N712 N 0.30817 0.11205 0.05297 0.0
C713 C 0.331 0.11757 0.08426 0.0
C714 C 0.34933 0.10896 0.02326 0.0
C715 C 0.18567 0.13081 0.52154 0.0
C716 C 0.16911 0.11489 0.46918 0.0
C717 C 0.20135 0.14672 0.47352 0.0
C718 C 0.20164 0.14759 0.36977 0.0
H719 H 0.18691 0.13078 0.60132 0.0
H720 H 0.21388 0.15786 0.5184 0.0
S721 S 0.16132 0.11074 0.19612 0.0
N722 N 0.15381 0.10208 0.30604 0.0
N723 N 0.18267 0.13142 0.21634 0.0
C724 C 0.18472 0.13222 0.3165 0.0
C725 C 0.16871 0.11615 0.3656 0.0
C726 C 0.18835 0.93765 0.71285 0.0
C727 C 0.20214 0.94323 0.79959 0.0
C728 C 0.17975 0.95573 0.65301 0.0
C729 C 0.18494 0.98012 0.67632 0.0
H730 H 0.18359 0.91925 0.69249 0.0
H731 H 0.16829 0.95062 0.58937 0.0
S732 S 0.2225 1.00433 0.88876 0.0
N733 N 0.22227 0.97521 0.90069 0.0
N734 N 0.206 1.00868 0.78847 0.0
C735 C 0.19974 0.98585 0.75963 0.0
C736 C 0.20829 0.96758 0.82118 0.0
C737 C 0.35559 0.97673 0.93201 0.0
C738 C 0.34986 1.00084 0.93008 0.0
C739 C 0.33776 0.95888 0.92564 0.0
C740 C 0.31367 0.96461 0.91738 0.0
H741 H 0.37397 0.97162 0.93953 0.0
H742 H 0.34288 0.94047 0.92631 0.0
S743 S 0.28946 0.0251 0.90929 0.0
N744 N 0.31865 0.02966 0.91831 0.0
N745 N 0.28487 0.9959 0.90862 0.0
C746 C 0.30767 0.98864 0.91547 0.0
C747 C 0.32586 1.00685 0.92164 0.0
C748 C 0.68562 0.97468 0.90126 0.0
C749 C 0.69555 0.97476 0.80762 0.0
C750 C 0.6663 0.98857 0.92389 0.0
C751 C 0.65609 1.00373 0.85487 0.0
H752 H 0.69322 0.96412 0.95903 0.0
H753 H 0.6601 0.98829 0.99853 0.0
S754 S 0.6735 1.00859 0.59484 0.0
N755 N 0.69226 0.98956 0.64165 0.0
N756 N 0.65598 0.01627 0.68497 0.0
C757 C 0.66492 1.00313 0.75889 0.0
C758 C 0.68477 0.98875 0.7355 0.0
C759 C 0.83491 0.95388 0.61063 0.0
C760 C 0.83312 0.95212 0.71346 0.0
C761 C 0.85144 0.97008 0.56937 0.0
C762 C 0.86743 0.98523 0.62822 0.0
H763 H 0.82269 0.94348 0.56137 0.0
H764 H 0.85124 0.9711 0.48982 0.0
S765 S 0.87164 0.98635 0.9019 0.0
N766 N 0.85014 0.96626 0.87329 0.0
N767 N 0.88092 0.99604 0.79597 0.0
C768 C 0.86658 0.98281 0.73097 0.0
C769 C 0.84957 0.96654 0.77316 0.0
C770 C 0.83404 0.13325 0.56056 0.0
C771 C 0.84902 0.1218 0.49409 0.0
C772 C 0.82068 0.15291 0.5322 0.0
C773 C 0.82176 0.16162 0.43618 0.0
H774 H 0.83258 0.12692 0.63463 0.0
H775 H 0.80858 0.1605 0.58407 0.0
S776 S 0.85909 0.13857 0.23622 0.0
N777 N 0.86438 0.12104 0.32886 0.0
N778 N 0.84024 0.15812 0.27738 0.0
C779 C 0.83748 0.15089 0.37104 0.0
C780 C 0.85073 0.13089 0.39921 0.0
C781 C 0.72508 0.08531 0.24359 0.0
C782 C 0.74187 0.10385 0.23158 0.0
C783 C 0.71375 0.07391 0.16076 0.0
C784 C 0.71878 0.08135 0.0656 0.0
H785 H 0.71802 0.08231 0.31553 0.0
H786 H 0.69832 0.06234 0.17163 0.0
S787 S 0.76707 0.12313 0.99825 0.0
N788 N 0.76787 0.12417 0.12015 0.0
N789 N 0.7457 0.10335 0.96382 0.0
C790 C 0.73874 0.09627 0.05335 0.0
C791 C 0.75063 0.10745 0.13749 0.0
C792 C 0.83414 0.61779 0.66114 0.0
C793 C 0.83785 0.63514 0.73729 0.0
C794 C 0.85337 0.60849 0.61109 0.0
C795 C 0.87721 0.6159 0.63566 0.0
H796 H 0.81619 0.61239 0.63595 0.0
H797 H 0.84936 0.59557 0.55119 0.0
S798 S 0.89661 0.65947 0.8357 0.0
N799 N 0.86723 0.65842 0.83945 0.0
N800 N 0.90338 0.64039 0.74646 0.0
C801 C 0.88127 0.63217 0.71565 0.0
C802 C 0.86161 0.64194 0.76598 0.0
C803 C 0.69824 0.65083 0.98549 0.0
C804 C 0.69897 0.65213 0.88201 0.0
C805 C 0.68217 0.63491 0.0312 0.0
C806 C 0.66554 0.6195 0.97662 0.0
H807 H 0.71086 0.66153 0.03186 0.0
H808 H 0.68318 0.63437 0.1109 0.0
S809 S 0.65855 0.61693 0.70331 0.0
N810 N 0.68028 0.6371 0.72638 0.0
N811 N 0.65044 0.60784 0.81187 0.0
C812 C 0.66542 0.62135 0.87331 0.0
C813 C 0.68194 0.63736 0.82654 0.0
C814 C 0.70123 0.48669 0.20043 0.0
C815 C 0.68362 0.48271 0.1254 0.0
C816 C 0.7114 0.46761 0.24859 0.0
C817 C 0.70469 0.44366 0.22284 0.0
H818 H 0.7062 0.50471 0.22615 0.0
H819 H 0.72446 0.47177 0.30784 0.0
S820 S 0.66065 0.42363 0.02543 0.0
N821 N 0.66067 0.45303 0.0236 0.0
N822 N 0.68047 0.41714 0.11245 0.0
C823 C 0.68811 0.43938 0.14401 0.0
C824 C 0.6774 0.45888 0.0959 0.0
C825 C 0.82255 0.49161 0.33776 0.0
C826 C 0.81019 0.47745 0.40326 0.0
C827 C 0.84005 0.50822 0.37316 0.0
C828 C 0.84564 0.51105 0.47481 0.0
H829 H 0.81986 0.48872 0.25874 0.0
H830 H 0.85013 0.51806 0.32045 0.0
S831 S 0.81552 0.48068 0.67636 0.0
N832 N 0.80218 0.46939 0.57401 0.0
N833 N 0.83578 0.50022 0.64083 0.0
C834 C 0.83202 0.49839 0.54133 0.0
C835 C 0.81409 0.48161 0.50529 0.0
C836 C 0.16677 0.48527 0.46827 0.0
C837 C 0.15566 0.50062 0.4024 0.0
C838 C 0.18599 0.47173 0.44099 0.0
C839 C 0.19494 0.47239 0.34567 0.0
H840 H 0.16131 0.48449 0.54389 0.0
H841 H 0.19423 0.46089 0.4963 0.0
S842 S 0.17057 0.50718 0.14008 0.0
N843 N 0.15381 0.51409 0.23377 0.0
N844 N 0.18996 0.48812 0.18191 0.0
C845 C 0.18337 0.48668 0.27683 0.0
C846 C 0.16359 0.50067 0.30492 0.0
C847 C 0.34653 0.46734 0.29139 0.0
C848 C 0.33126 0.45147 0.23245 0.0
C849 C 0.36281 0.48382 0.25026 0.0
C850 C 0.36453 0.4857 0.14744 0.0
H851 H 0.34551 0.46749 0.37093 0.0
H852 H 0.37329 0.49595 0.29961 0.0
S853 S 0.32989 0.44764 0.95874 0.0
N854 N 0.32023 0.43829 0.06462 0.0
N855 N 0.35017 0.46894 0.98751 0.0
C856 C 0.34999 0.46937 0.08765 0.0
C857 C 0.33364 0.45242 0.12973 0.0
C858 C 0.32566 0.65094 0.93377 0.0
C859 C 0.30977 0.66042 1.00143 0.0
C860 C 0.34041 0.63234 0.95782 0.0
C861 C 0.34042 0.62241 0.05154 0.0
H862 H 0.3258 0.65706 0.85893 0.0
H863 H 0.35144 0.62518 0.90084 0.0
S864 S 0.30495 0.64307 0.26156 0.0
N865 N 0.29679 0.66016 0.17053 0.0
N866 N 0.32496 0.62516 0.21646 0.0
C867 C 0.32574 0.63261 0.12251 0.0
C868 C 0.31054 0.65177 0.0977 0.0
C869 C 0.23745 0.58657 0.62725 0.0
C870 C 0.21752 0.57098 0.62945 0.0
C871 C 0.24658 0.59782 0.71474 0.0
C872 C 0.23585 0.59343 0.8047 0.0
H873 H 0.24318 0.59317 0.55763 0.0
H874 H 0.25907 0.61281 0.70954 0.0
S875 S 0.19102 0.54601 0.85046 0.0
N876 N 0.19339 0.54535 0.72938 0.0
N877 N 0.21023 0.567 0.89437 0.0
C878 C 0.22001 0.57386 0.80937 0.0
C879 C 0.21101 0.56221 0.7206 0.0
C880 C 0.5153 0.05856 0.89845 0.0
C881 C 0.50221 0.0783 0.92965 0.0
C882 C 0.53921 0.06096 0.87446 0.0
C883 C 0.55131 0.08322 0.88084 0.0
H884 H 0.50711 0.04082 0.89268 0.0
H885 H 0.54837 0.04506 0.85273 0.0
S886 S 0.52521 0.14084 0.95525 0.0
N887 N 0.50305 0.12104 0.96305 0.0
N888 N 0.5482 0.12574 0.91849 0.0
C889 C 0.53845 0.10327 0.91081 0.0
C890 C 0.51391 0.10077 0.93524 0.0
C891 C 0.28138 0.31147 0.24041 0.0
C892 C 0.26812 0.32543 0.30456 0.0
C893 C 0.27935 0.2863 0.23885 0.0
C894 C 0.26401 0.27359 0.30139 0.0
H895 H 0.29297 0.32001 0.1892 0.0
H896 H 0.29003 0.27667 0.18706 0.0
S897 S 0.22648 0.30158 0.48845 0.0
N898 N 0.2397 0.32437 0.4364 0.0
N899 N 0.23614 0.27743 0.43224 0.0
C900 C 0.2509 0.28731 0.36675 0.0
C901 C 0.25295 0.31299 0.3687 0.0
C902 C 0.03309 0.07005 0.57395 0.0
C903 C 0.04317 0.05106 0.522 0.0
C904 C 1.00893 0.06893 0.60029 0.0
C905 C 0.99362 0.04872 0.57705 0.0
H906 H 0.04408 0.08559 0.59705 0.0
H907 H 1.00214 0.08421 0.63969 0.0
S908 S 1.0106 0.99487 0.43495 0.0
N909 N 0.03527 1.01174 0.44357 0.0
N910 N 0.99038 1.00989 0.49384 0.0
C911 C 1.00339 0.02979 0.52408 0.0
C912 C 0.02789 0.03095 0.4964 0.0
C913 C 0.21378 0.77457 0.89193 0.0
C914 C 0.22789 0.76376 0.96497 0.0
C915 C 0.21555 0.79925 0.87787 0.0
C916 C 0.23143 0.81391 0.93668 0.0
H917 H 0.20196 0.76379 0.8424 0.0
H918 H 0.2053 0.80664 0.81786 0.0
S919 S 0.26921 0.79508 0.14875 0.0
N920 N 0.25616 0.7701 0.10348 0.0
N921 N 0.25925 0.81633 0.07893 0.0
C922 C 0.24444 0.80352 0.01405 0.0
C923 C 0.24277 0.77847 0.02767 0.0
C924 C 0.74445 0.78885 0.78371 0.0
C925 C 0.76401 0.77794 0.8283 0.0
C926 C 0.74583 0.81308 0.75823 0.0
C927 C 0.76686 0.82765 0.77499 0.0
H928 H 0.72819 0.77847 0.76582 0.0
H929 H 0.7301 0.8205 0.72452 0.0
S930 S 0.82262 0.80841 0.89669 0.0
N931 N 0.80488 0.78434 0.89317 0.0
N932 N 0.80718 0.82931 0.84411 0.0
C933 C 0.78639 0.81707 0.82058 0.0
C934 C 0.78499 0.7925 0.84753 0.0
C935 C 0.72902 0.2848 0.37077 0.0
C936 C 0.74953 0.27153 0.38916 0.0
C937 C 0.7306 0.30799 0.33516 0.0
C938 C 0.75277 0.31872 0.31565 0.0
H939 H 0.7115 0.27722 0.38404 0.0
H940 H 0.71443 0.31771 0.3249 0.0
S941 S 0.8118 0.29111 0.3449 0.0
N942 N 0.79263 0.27082 0.3824 0.0
N943 N 0.79568 0.31374 0.31247 0.0
C944 C 0.77338 0.30543 0.33169 0.0
C945 C 0.77177 0.28206 0.36945 0.0
C946 C 0.01752 0.55545 0.49816 0.0
C947 C 1.0043 0.57552 0.524 0.0
C948 C 0.04058 0.55772 0.46339 0.0
C949 C 0.05169 0.5802 0.45348 0.0
H950 H 1.01002 0.53759 0.50455 0.0
H951 H 0.04993 0.54163 0.44632 0.0
S952 S 0.02478 0.63858 0.50793 0.0
N953 N 1.00389 0.61872 0.53469 0.0
N954 N 0.0475 0.62316 0.47049 0.0
C955 C 0.03872 0.60053 0.47854 0.0
C956 C 1.01503 0.59816 0.51372 0.0
C957 C 0.50351 0.57344 0.09877 0.0
C958 C 0.48912 0.55218 0.08575 0.0
C959 C 0.52787 0.57463 0.07515 0.0
C960 C 0.53916 0.55463 0.03637 0.0
H961 H 0.49584 0.58952 0.12802 0.0
H962 H 0.53803 0.59118 0.08974 0.0
S963 S 0.50938 0.49507 0.97986 0.0
N964 N 0.4881 0.51104 0.02664 0.0
N965 N 0.53331 0.51296 0.98115 0.0
C966 C 0.52481 0.53336 0.02109 0.0
C967 C 0.50009 0.53217 0.04607 0.0
loop_
_geom_bond_atom_site_label_1
_geom_bond_atom_site_label_2
_geom_bond_distance
_geom_bond_site_symmetry_2
_ccdc_geom_bond_type
C0 C1 1.351 . S
C0 N3 1.368 . S
C0 H5 0.931 . S
C1 C0 1.351 . S
C1 N2 1.373 . S
C1 H29 0.930 . S
N2 C1 1.373 . S
N2 C4 1.340 . S
N3 C0 1.368 . S
N3 C4 1.321 . S
N3 Co6 2.135 . S
C4 N2 1.340 . S
C4 N3 1.321 . S
C4 H28 0.930 . S
H5 C0 0.931 . S
Co6 N3 2.135 . S
Co6 N9 2.121 1_554 S
Co6 O14 2.055 . S
Co6 O17 2.039 . S
Co6 N20 2.140 . S
C7 O8 1.227 . S
C7 O17 1.265 . S
O8 C7 1.227 . S
N9 Co6 2.121 1_556 S
N9 C11 1.375 . S
N9 C12 1.313 . S
C10 C11 1.338 . S
C10 N13 1.377 . S
C10 H30 0.930 . S
C11 N9 1.375 . S
C11 C10 1.338 . S
C11 H15 0.931 . S
C12 N9 1.313 . S
C12 N13 1.344 . S
C12 H16 0.930 . S
N13 C10 1.377 . S
N13 C12 1.344 . S
O14 Co6 2.055 . S
O14 C18 1.253 . S
H15 C11 0.931 . S
H16 C12 0.930 . S
O17 Co6 2.039 . S
O17 C7 1.265 . S
C18 O14 1.253 . S
C18 O19 1.227 . S
O19 C18 1.227 . S
N20 Co6 2.140 . S
N20 C23 1.346 . S
N20 C24 1.345 1_554 S
C21 C22 1.387 . S
C21 C25 1.391 1_554 S
C22 C21 1.387 . S
C22 C23 1.369 1_565 S
C22 H31 0.929 . S
C23 N20 1.346 . S
C23 C22 1.369 1_545 S
C23 H26 0.928 . S
C24 N20 1.345 1_556 S
C24 C25 1.371 1_545 S
C24 H27 0.931 . S
C25 C21 1.391 1_556 S
C25 C24 1.371 1_565 S
C25 H32 0.930 . S
H26 C23 0.928 . S
H27 C24 0.931 . S
H28 C4 0.930 . S
H29 C1 0.930 . S
H30 C10 0.930 . S
H31 C22 0.929 . S
H32 C25 0.930 . S
C33 C34 1.351 . S
C33 N36 1.368 . S
C33 H38 0.931 . S
C34 C33 1.351 . S
C34 N35 1.373 . S
C34 H62 0.930 . S
N35 C34 1.373 . S
N35 C37 1.340 . S
N36 C33 1.368 . S
N36 C37 1.321 . S
N36 Co39 2.135 . S
C37 N35 1.340 . S
C37 N36 1.321 . S
C37 H61 0.930 . S
H38 C33 0.931 . S
Co39 N36 2.135 . S
Co39 N42 2.121 . S
Co39 O47 2.055 . S
Co39 O50 2.039 . S
Co39 N53 2.140 . S
C40 O41 1.227 . S
C40 O50 1.265 . S
O41 C40 1.227 . S
N42 Co39 2.121 . S
N42 C44 1.375 . S
N42 C45 1.313 . S
C43 C44 1.338 . S
C43 N46 1.377 . S
C43 H63 0.930 1_554 S
C44 N42 1.375 . S
C44 C43 1.338 . S
C44 H48 0.931 . S
C45 N42 1.313 . S
C45 N46 1.344 . S
C45 H49 0.930 . S
N46 C43 1.377 . S
N46 C45 1.344 . S
O47 Co39 2.055 . S
O47 C51 1.253 . S
H48 C44 0.931 . S
H49 C45 0.930 . S
O50 Co39 2.039 . S
O50 C40 1.265 . S
C51 O47 1.253 . S
C51 O52 1.227 . S
O52 C51 1.227 . S
N53 Co39 2.140 . S
N53 C56 1.346 . S
N53 C57 1.345 . S
C54 C55 1.387 . S
C54 C58 1.391 . S
C55 C54 1.387 . S
C55 C56 1.369 . S
C55 H64 0.929 . S
C56 N53 1.346 . S
C56 C55 1.369 . S
C56 H59 0.928 . S
C57 N53 1.345 . S
C57 C58 1.371 . S
C57 H60 0.931 . S
C58 C54 1.391 . S
C58 C57 1.371 . S
C58 H65 0.930 . S
H59 C56 0.928 . S
H60 C57 0.931 . S
H61 C37 0.930 . S
H62 C34 0.930 . S
H63 C43 0.930 1_556 S
H64 C55 0.929 . S
H65 C58 0.930 . S
C66 C67 1.351 . S
C66 N69 1.368 . S
C66 H71 0.931 . S
C67 C66 1.351 . S
C67 N68 1.373 . S
C67 H95 0.930 . S
N68 C67 1.373 . S
N68 C70 1.340 . S
N69 C66 1.368 . S
N69 C70 1.321 . S
N69 Co72 2.135 . S
C70 N68 1.340 . S
C70 N69 1.321 . S
C70 H94 0.930 . S
H71 C66 0.931 . S
Co72 N69 2.135 . S
Co72 N75 2.121 . S
Co72 O80 2.055 . S
Co72 O83 2.039 . S
Co72 N86 2.140 . S
C73 O74 1.227 . S
C73 O83 1.265 . S
O74 C73 1.227 . S
N75 Co72 2.121 . S
N75 C77 1.375 . S
N75 C78 1.313 . S
C76 C77 1.338 . S
C76 N79 1.377 . S
C76 H96 0.930 . S
C77 N75 1.375 . S
C77 C76 1.338 . S
C77 H81 0.931 . S
C78 N75 1.313 . S
C78 N79 1.344 . S
C78 H82 0.930 . S
N79 C76 1.377 . S
N79 C78 1.344 . S
O80 Co72 2.055 . S
O80 C84 1.253 . S
H81 C77 0.931 . S
H82 C78 0.930 . S
O83 Co72 2.039 . S
O83 C73 1.265 . S
C84 O80 1.253 . S
C84 O85 1.227 . S
O85 C84 1.227 . S
N86 Co72 2.140 . S
N86 C89 1.346 . S
N86 C90 1.345 . S
C87 C88 1.387 . S
C87 C91 1.391 . S
C88 C87 1.387 . S
C88 C89 1.369 1_565 S
C88 H97 0.929 . S
C89 N86 1.346 . S
C89 C88 1.369 1_545 S
C89 H92 0.928 . S
C90 N86 1.345 . S
C90 C91 1.371 1_545 S
C90 H93 0.931 . S
C91 C87 1.391 . S
C91 C90 1.371 1_565 S
C91 H98 0.930 . S
H92 C89 0.928 . S
H93 C90 0.931 . S
H94 C70 0.930 . S
H95 C67 0.930 . S
H96 C76 0.930 . S
H97 C88 0.929 . S
H98 C91 0.930 . S
C99 C100 1.351 . S
C99 N102 1.368 . S
C99 H104 0.931 . S
C100 C99 1.351 . S
C100 N101 1.373 . S
C100 H128 0.930 . S
N101 C100 1.373 . S
N101 C103 1.340 . S
N102 C99 1.368 . S
N102 C103 1.321 . S
N102 Co105 2.135 . S
C103 N101 1.340 . S
C103 N102 1.321 . S
C103 H127 0.930 . S
H104 C99 0.931 . S
Co105 N102 2.135 . S
Co105 N108 2.121 . S
Co105 O113 2.055 . S
Co105 O116 2.039 . S
Co105 N119 2.140 . S
C106 O107 1.227 . S
C106 O116 1.265 . S
O107 C106 1.227 . S
N108 Co105 2.121 . S
N108 C110 1.375 . S
N108 C111 1.313 . S
C109 C110 1.338 1_554 S
C109 N112 1.377 . S
C109 H129 0.930 . S
C110 N108 1.375 . S
C110 C109 1.338 1_556 S
C110 H114 0.931 . S
C111 N108 1.313 . S
C111 N112 1.344 1_556 S
C111 H115 0.930 . S
N112 C109 1.377 . S
N112 C111 1.344 1_554 S
O113 Co105 2.055 . S
O113 C117 1.253 . S
H114 C110 0.931 . S
H115 C111 0.930 . S
O116 Co105 2.039 . S
O116 C106 1.265 . S
C117 O113 1.253 . S
C117 O118 1.227 . S
O118 C117 1.227 . S
N119 Co105 2.140 . S
N119 C122 1.346 . S
N119 C123 1.345 . S
C120 C121 1.387 . S
C120 C124 1.391 . S
C121 C120 1.387 . S
C121 C122 1.369 . S
C121 H130 0.929 . S
C122 N119 1.346 . S
C122 C121 1.369 . S
C122 H125 0.928 . S
C123 N119 1.345 . S
C123 C124 1.371 . S
C123 H126 0.931 . S
C124 C120 1.391 . S
C124 C123 1.371 . S
C124 H131 0.930 . S
H125 C122 0.928 . S
H126 C123 0.931 . S
H127 C103 0.930 . S
H128 C100 0.930 . S
H129 C109 0.930 . S
H130 C121 0.929 . S
H131 C124 0.930 . S
C132 C133 1.351 . S
C132 N135 1.368 . S
C132 H137 0.931 . S
C133 C132 1.351 . S
C133 N134 1.373 . S
C133 H161 0.930 . S
N134 C133 1.373 . S
N134 C136 1.340 . S
N135 C132 1.368 . S
N135 C136 1.321 . S
N135 Co138 2.135 . S
C136 N134 1.340 . S
C136 N135 1.321 . S
C136 H160 0.930 . S
H137 C132 0.931 . S
Co138 N135 2.135 . S
Co138 N141 2.121 1_556 S
Co138 O146 2.055 . S
Co138 O149 2.039 1_545 S
Co138 N152 2.140 1_556 S
C139 O140 1.227 1_565 S
C139 O149 1.265 . S
O140 C139 1.227 1_545 S
N141 Co138 2.121 1_554 S
N141 C143 1.375 . S
N141 C144 1.313 . S
C142 C143 1.338 . S
C142 N145 1.377 . S
C142 H162 0.930 . S
C143 N141 1.375 . S
C143 C142 1.338 . S
C143 H147 0.931 . S
C144 N141 1.313 . S
C144 N145 1.344 . S
C144 H148 0.930 . S
N145 C142 1.377 . S
N145 C144 1.344 . S
O146 Co138 2.055 . S
O146 C150 1.253 1_556 S
H147 C143 0.931 . S
H148 C144 0.930 . S
O149 Co138 2.039 1_565 S
O149 C139 1.265 . S
C150 O146 1.253 1_554 S
C150 O151 1.227 . S
O151 C150 1.227 . S
N152 Co138 2.140 1_554 S
N152 C155 1.346 1_554 S
N152 C156 1.345 . S
C153 C154 1.387 1_554 S
C153 C157 1.391 . S
C154 C153 1.387 1_556 S
C154 C155 1.369 . S
C154 H163 0.929 . S
C155 N152 1.346 1_556 S
C155 C154 1.369 . S
C155 H158 0.928 . S
C156 N152 1.345 . S
C156 C157 1.371 . S
C156 H159 0.931 . S
C157 C153 1.391 . S
C157 C156 1.371 . S
C157 H164 0.930 . S
H158 C155 0.928 . S
H159 C156 0.931 . S
H160 C136 0.930 . S
H161 C133 0.930 . S
H162 C142 0.930 . S
H163 C154 0.929 . S
H164 C157 0.930 . S
C165 C166 1.351 . S
C165 N168 1.368 . S
C165 H170 0.931 . S
C166 C165 1.351 . S
C166 N167 1.373 . S
C166 H194 0.930 . S
N167 C166 1.373 . S
N167 C169 1.340 . S
N168 C165 1.368 . S
N168 C169 1.321 . S
N168 Co171 2.135 . S
C169 N167 1.340 . S
C169 N168 1.321 . S
C169 H193 0.930 . S
H170 C165 0.931 . S
Co171 N168 2.135 . S
Co171 N174 2.121 . S
Co171 O179 2.055 . S
Co171 O182 2.039 . S
Co171 N185 2.140 . S
C172 O173 1.227 . S
C172 O182 1.265 . S
O173 C172 1.227 . S
N174 Co171 2.121 . S
N174 C176 1.375 . S
N174 C177 1.313 . S
C175 C176 1.338 1_554 S
C175 N178 1.377 . S
C175 H195 0.930 . S
C176 N174 1.375 . S
C176 C175 1.338 1_556 S
C176 H180 0.931 . S
C177 N174 1.313 . S
C177 N178 1.344 1_556 S
C177 H181 0.930 . S
N178 C175 1.377 . S
N178 C177 1.344 1_554 S
O179 Co171 2.055 . S
O179 C183 1.253 . S
H180 C176 0.931 . S
H181 C177 0.930 . S
O182 Co171 2.039 . S
O182 C172 1.265 . S
C183 O179 1.253 . S
C183 O184 1.227 . S
O184 C183 1.227 . S
N185 Co171 2.140 . S
N185 C188 1.346 . S
N185 C189 1.345 . S
C186 C187 1.387 . S
C186 C190 1.391 . S
C187 C186 1.387 . S
C187 C188 1.369 . S
C187 H196 0.929 . S
C188 N185 1.346 . S
C188 C187 1.369 . S
C188 H191 0.928 . S
C189 N185 1.345 . S
C189 C190 1.371 . S
C189 H192 0.931 . S
C190 C186 1.391 . S
C190 C189 1.371 . S
C190 H197 0.930 . S
H191 C188 0.928 . S
H192 C189 0.931 . S
H193 C169 0.930 . S
H194 C166 0.930 . S
H195 C175 0.930 . S
H196 C187 0.929 . S
H197 C190 0.930 . S
C198 C199 1.351 . S
C198 N201 1.368 . S
C198 H203 0.931 . S
C199 C198 1.351 . S
C199 N200 1.373 . S
C199 H227 0.930 . S
N200 C199 1.373 . S
N200 C202 1.340 . S
N201 C198 1.368 . S
N201 C202 1.321 . S
N201 Co204 2.135 . S
C202 N200 1.340 . S
C202 N201 1.321 . S
C202 H226 0.930 . S
H203 C198 0.931 . S
Co204 N201 2.135 . S
Co204 N207 2.121 . S
Co204 O212 2.055 . S
Co204 O215 2.039 1_545 S
Co204 N218 2.140 . S
C205 O206 1.227 1_565 S
C205 O215 1.265 . S
O206 C205 1.227 1_545 S
N207 Co204 2.121 . S
N207 C209 1.375 . S
N207 C210 1.313 . S
C208 C209 1.338 . S
C208 N211 1.377 . S
C208 H228 0.930 . S
C209 N207 1.375 . S
C209 C208 1.338 . S
C209 H213 0.931 . S
C210 N207 1.313 . S
C210 N211 1.344 . S
C210 H214 0.930 . S
N211 C208 1.377 . S
N211 C210 1.344 . S
O212 Co204 2.055 . S
O212 C216 1.253 . S
H213 C209 0.931 . S
H214 C210 0.930 . S
O215 Co204 2.039 1_565 S
O215 C205 1.265 . S
C216 O212 1.253 . S
C216 O217 1.227 . S
O217 C216 1.227 . S
N218 Co204 2.140 . S
N218 C221 1.346 . S
N218 C222 1.345 . S
C219 C220 1.387 . S
C219 C223 1.391 . S
C220 C219 1.387 . S
C220 C221 1.369 . S
C220 H229 0.929 . S
C221 N218 1.346 . S
C221 C220 1.369 . S
C221 H224 0.928 . S
C222 N218 1.345 . S
C222 C223 1.371 . S
C222 H225 0.931 . S
C223 C219 1.391 . S
C223 C222 1.371 . S
C223 H230 0.930 . S
H224 C221 0.928 . S
H225 C222 0.931 . S
H226 C202 0.930 . S
H227 C199 0.930 . S
H228 C208 0.930 . S
H229 C220 0.929 . S
H230 C223 0.930 . S
C231 C232 1.351 . S
C231 N234 1.368 . S
C231 H236 0.931 . S
C232 C231 1.351 . S
C232 N233 1.373 . S
C232 H260 0.930 . S
N233 C232 1.373 . S
N233 C235 1.340 . S
N234 C231 1.368 . S
N234 C235 1.321 . S
N234 Co237 2.135 . S
C235 N233 1.340 . S
C235 N234 1.321 . S
C235 H259 0.930 . S
H236 C231 0.931 . S
Co237 N234 2.135 . S
Co237 N240 2.121 . S
Co237 O245 2.055 . S
Co237 O248 2.039 . S
Co237 N251 2.140 . S
C238 O239 1.227 . S
C238 O248 1.265 . S
O239 C238 1.227 . S
N240 Co237 2.121 . S
N240 C242 1.375 . S
N240 C243 1.313 . S
C241 C242 1.338 . S
C241 N244 1.377 . S
C241 H261 0.930 . S
C242 N240 1.375 . S
C242 C241 1.338 . S
C242 H246 0.931 . S
C243 N240 1.313 . S
C243 N244 1.344 . S
C243 H247 0.930 . S
N244 C241 1.377 . S
N244 C243 1.344 . S
O245 Co237 2.055 . S
O245 C249 1.253 . S
H246 C242 0.931 . S
H247 C243 0.930 . S
O248 Co237 2.039 . S
O248 C238 1.265 . S
C249 O245 1.253 . S
C249 O250 1.227 . S
O250 C249 1.227 . S
N251 Co237 2.140 . S
N251 C254 1.346 . S
N251 C255 1.345 . S
C252 C253 1.387 . S
C252 C256 1.391 . S
C253 C252 1.387 . S
C253 C254 1.369 . S
C253 H262 0.929 . S
C254 N251 1.346 . S
C254 C253 1.369 . S
C254 H257 0.928 . S
C255 N251 1.345 . S
C255 C256 1.371 . S
C255 H258 0.931 . S
C256 C252 1.391 . S
C256 C255 1.371 . S
C256 H263 0.930 . S
H257 C254 0.928 . S
H258 C255 0.931 . S
H259 C235 0.930 . S
H260 C232 0.930 . S
H261 C241 0.930 . S
H262 C253 0.929 . S
H263 C256 0.930 . S
C264 C265 1.351 . S
C264 N267 1.368 . S
C264 H269 0.931 . S
C265 C264 1.351 . S
C265 N266 1.373 . S
C265 H293 0.930 . S
N266 C265 1.373 . S
N266 C268 1.340 . S
N267 C264 1.368 . S
N267 C268 1.321 . S
N267 Co270 2.135 . S
C268 N266 1.340 . S
C268 N267 1.321 . S
C268 H292 0.930 . S
H269 C264 0.931 . S
Co270 N267 2.135 . S
Co270 N273 2.121 . S
Co270 O278 2.055 . S
Co270 O281 2.039 . S
Co270 N284 2.140 . S
C271 O272 1.227 . S
C271 O281 1.265 . S
O272 C271 1.227 . S
N273 Co270 2.121 . S
N273 C275 1.375 . S
N273 C276 1.313 . S
C274 C275 1.338 . S
C274 N277 1.377 . S
C274 H294 0.930 . S
C275 N273 1.375 . S
C275 C274 1.338 . S
C275 H279 0.931 . S
C276 N273 1.313 . S
C276 N277 1.344 . S
C276 H280 0.930 . S
N277 C274 1.377 . S
N277 C276 1.344 . S
O278 Co270 2.055 . S
O278 C282 1.253 . S
H279 C275 0.931 . S
H280 C276 0.930 . S
O281 Co270 2.039 . S
O281 C271 1.265 . S
C282 O278 1.253 . S
C282 O283 1.227 . S
O283 C282 1.227 . S
N284 Co270 2.140 . S
N284 C287 1.346 . S
N284 C288 1.345 . S
C285 C286 1.387 . S
C285 C289 1.391 . S
C286 C285 1.387 . S
C286 C287 1.369 . S
C286 H295 0.929 . S
C287 N284 1.346 . S
C287 C286 1.369 . S
C287 H290 0.928 . S
C288 N284 1.345 . S
C288 C289 1.371 . S
C288 H291 0.931 . S
C289 C285 1.391 . S
C289 C288 1.371 . S
C289 H296 0.930 . S
H290 C287 0.928 . S
H291 C288 0.931 . S
H292 C268 0.930 . S
H293 C265 0.930 . S
H294 C274 0.930 . S
H295 C286 0.929 . S
H296 C289 0.930 . S
C297 C298 1.351 . S
C297 N300 1.368 1_554 S
C297 H302 0.931 1_554 S
C298 C297 1.351 . S
C298 N299 1.373 . S
C298 H326 0.930 . S
N299 C298 1.373 . S
N299 C301 1.340 . S
N300 C297 1.368 1_556 S
N300 C301 1.321 1_556 S
N300 Co303 2.135 . S
C301 N299 1.340 . S
C301 N300 1.321 1_554 S
C301 H325 0.930 . S
H302 C297 0.931 1_556 S
Co303 N300 2.135 . S
Co303 N306 2.121 . S
Co303 O311 2.055 . S
Co303 O314 2.039 . S
Co303 N317 2.140 . S
C304 O305 1.227 . S
C304 O314 1.265 . S
O305 C304 1.227 . S
N306 Co303 2.121 . S
N306 C308 1.375 . S
N306 C309 1.313 . S
C307 C308 1.338 . S
C307 N310 1.377 . S
C307 H327 0.930 . S
C308 N306 1.375 . S
C308 C307 1.338 . S
C308 H312 0.931 . S
C309 N306 1.313 . S
C309 N310 1.344 . S
C309 H313 0.930 . S
N310 C307 1.377 . S
N310 C309 1.344 . S
O311 Co303 2.055 . S
O311 C315 1.253 . S
H312 C308 0.931 . S
H313 C309 0.930 . S
O314 Co303 2.039 . S
O314 C304 1.265 . S
C315 O311 1.253 . S
C315 O316 1.227 . S
O316 C315 1.227 . S
N317 Co303 2.140 . S
N317 C320 1.346 . S
N317 C321 1.345 . S
C318 C319 1.387 . S
C318 C322 1.391 . S
C319 C318 1.387 . S
C319 C320 1.369 . S
C319 H328 0.929 . S
C320 N317 1.346 . S
C320 C319 1.369 . S
C320 H323 0.928 . S
C321 N317 1.345 . S
C321 C322 1.371 . S
C321 H324 0.931 . S
C322 C318 1.391 . S
C322 C321 1.371 . S
C322 H329 0.930 . S
H323 C320 0.928 . S
H324 C321 0.931 . S
H325 C301 0.930 . S
H326 C298 0.930 . S
H327 C307 0.930 . S
H328 C319 0.929 . S
H329 C322 0.930 . S
C330 C331 1.351 . S
C330 N333 1.368 . S
C330 H335 0.931 . S
C331 C330 1.351 . S
C331 N332 1.373 . S
C331 H359 0.930 . S
N332 C331 1.373 . S
N332 C334 1.340 . S
N333 C330 1.368 . S
N333 C334 1.321 . S
N333 Co336 2.135 1_556 S
C334 N332 1.340 . S
C334 N333 1.321 . S
C334 H358 0.930 . S
H335 C330 0.931 . S
Co336 N333 2.135 1_554 S
Co336 N339 2.121 . S
Co336 O344 2.055 . S
Co336 O347 2.039 1_554 S
Co336 N350 2.140 . S
C337 O338 1.227 . S
C337 O347 1.265 . S
O338 C337 1.227 . S
N339 Co336 2.121 . S
N339 C341 1.375 . S
N339 C342 1.313 . S
C340 C341 1.338 . S
C340 N343 1.377 . S
C340 H360 0.930 . S
C341 N339 1.375 . S
C341 C340 1.338 . S
C341 H345 0.931 . S
C342 N339 1.313 . S
C342 N343 1.344 . S
C342 H346 0.930 . S
N343 C340 1.377 . S
N343 C342 1.344 . S
O344 Co336 2.055 . S
O344 C348 1.253 . S
H345 C341 0.931 . S
H346 C342 0.930 . S
O347 Co336 2.039 1_556 S
O347 C337 1.265 . S
C348 O344 1.253 . S
C348 O349 1.227 . S
O349 C348 1.227 . S
N350 Co336 2.140 . S
N350 C353 1.346 1_554 S
N350 C354 1.345 . S
C351 C352 1.387 1_554 S
C351 C355 1.391 . S
C352 C351 1.387 1_556 S
C352 C353 1.369 . S
C352 H361 0.929 . S
C353 N350 1.346 1_556 S
C353 C352 1.369 . S
C353 H356 0.928 . S
C354 N350 1.345 . S
C354 C355 1.371 . S
C354 H357 0.931 . S
C355 C351 1.391 . S
C355 C354 1.371 . S
C355 H362 0.930 . S
H356 C353 0.928 . S
H357 C354 0.931 . S
H358 C334 0.930 . S
H359 C331 0.930 . S
H360 C340 0.930 . S
H361 C352 0.929 . S
H362 C355 0.930 . S
C363 C364 1.351 1_554 S
C363 N366 1.368 . S
C363 H368 0.931 . S
C364 C363 1.351 1_556 S
C364 N365 1.373 . S
C364 H392 0.930 . S
N365 C364 1.373 . S
N365 C367 1.340 1_556 S
N366 C363 1.368 . S
N366 C367 1.321 . S
N366 Co369 2.135 . S
C367 N365 1.340 1_554 S
C367 N366 1.321 . S
C367 H391 0.930 . S
H368 C363 0.931 . S
Co369 N366 2.135 . S
Co369 N372 2.121 . S
Co369 O377 2.055 . S
Co369 O380 2.039 . S
Co369 N383 2.140 . S
C370 O371 1.227 . S
C370 O380 1.265 . S
O371 C370 1.227 . S
N372 Co369 2.121 . S
N372 C374 1.375 . S
N372 C375 1.313 . S
C373 C374 1.338 . S
C373 N376 1.377 . S
C373 H393 0.930 . S
C374 N372 1.375 . S
C374 C373 1.338 . S
C374 H378 0.931 . S
C375 N372 1.313 . S
C375 N376 1.344 . S
C375 H379 0.930 . S
N376 C373 1.377 . S
N376 C375 1.344 . S
O377 Co369 2.055 . S
O377 C381 1.253 . S
H378 C374 0.931 . S
H379 C375 0.930 . S
O380 Co369 2.039 . S
O380 C370 1.265 . S
C381 O377 1.253 . S
C381 O382 1.227 . S
O382 C381 1.227 . S
N383 Co369 2.140 . S
N383 C386 1.346 . S
N383 C387 1.345 . S
C384 C385 1.387 . S
C384 C388 1.391 . S
C385 C384 1.387 . S
C385 C386 1.369 . S
C385 H394 0.929 . S
C386 N383 1.346 . S
C386 C385 1.369 . S
C386 H389 0.928 . S
C387 N383 1.345 . S
C387 C388 1.371 . S
C387 H390 0.931 . S
C388 C384 1.391 . S
C388 C387 1.371 . S
C388 H395 0.930 . S
H389 C386 0.928 . S
H390 C387 0.931 . S
H391 C367 0.930 . S
H392 C364 0.930 . S
H393 C373 0.930 . S
H394 C385 0.929 . S
H395 C388 0.930 . S
C396 C397 1.351 . S
C396 N399 1.368 . S
C396 H401 0.931 . S
C397 C396 1.351 . S
C397 N398 1.373 . S
C397 H425 0.930 . S
N398 C397 1.373 . S
N398 C400 1.340 . S
N399 C396 1.368 . S
N399 C400 1.321 . S
N399 Co402 2.135 . S
C400 N398 1.340 . S
C400 N399 1.321 . S
C400 H424 0.930 . S
H401 C396 0.931 . S
Co402 N399 2.135 . S
Co402 N405 2.121 . S
Co402 O410 2.055 . S
Co402 O413 2.039 . S
Co402 N416 2.140 . S
C403 O404 1.227 . S
C403 O413 1.265 . S
O404 C403 1.227 . S
N405 Co402 2.121 . S
N405 C407 1.375 . S
N405 C408 1.313 . S
C406 C407 1.338 . S
C406 N409 1.377 . S
C406 H426 0.930 . S
C407 N405 1.375 . S
C407 C406 1.338 . S
C407 H411 0.931 . S
C408 N405 1.313 . S
C408 N409 1.344 . S
C408 H412 0.930 . S
N409 C406 1.377 . S
N409 C408 1.344 . S
O410 Co402 2.055 . S
O410 C414 1.253 . S
H411 C407 0.931 . S
H412 C408 0.930 . S
O413 Co402 2.039 . S
O413 C403 1.265 . S
C414 O410 1.253 . S
C414 O415 1.227 . S
O415 C414 1.227 . S
N416 Co402 2.140 . S
N416 C419 1.346 . S
N416 C420 1.345 . S
C417 C418 1.387 . S
C417 C421 1.391 . S
C418 C417 1.387 . S
C418 C419 1.369 . S
C418 H427 0.929 . S
C419 N416 1.346 . S
C419 C418 1.369 . S
C419 H422 0.928 . S
C420 N416 1.345 . S
C420 C421 1.371 . S
C420 H423 0.931 . S
C421 C417 1.391 . S
C421 C420 1.371 . S
C421 H428 0.930 . S
H422 C419 0.928 . S
H423 C420 0.931 . S
H424 C400 0.930 . S
H425 C397 0.930 . S
H426 C406 0.930 . S
H427 C418 0.929 . S
H428 C421 0.930 . S
C429 C430 1.351 1_554 S
C429 N432 1.368 . S
C429 H434 0.931 . S
C430 C429 1.351 1_556 S
C430 N431 1.373 . S
C430 H458 0.930 . S
N431 C430 1.373 . S
N431 C433 1.340 1_556 S
N432 C429 1.368 . S
N432 C433 1.321 . S
N432 Co435 2.135 . S
C433 N431 1.340 1_554 S
C433 N432 1.321 . S
C433 H457 0.930 . S
H434 C429 0.931 . S
Co435 N432 2.135 . S
Co435 N438 2.121 . S
Co435 O443 2.055 . S
Co435 O446 2.039 . S
Co435 N449 2.140 . S
C436 O437 1.227 . S
C436 O446 1.265 . S
O437 C436 1.227 . S
N438 Co435 2.121 . S
N438 C440 1.375 . S
N438 C441 1.313 . S
C439 C440 1.338 . S
C439 N442 1.377 . S
C439 H459 0.930 . S
C440 N438 1.375 . S
C440 C439 1.338 . S
C440 H444 0.931 . S
C441 N438 1.313 . S
C441 N442 1.344 . S
C441 H445 0.930 . S
N442 C439 1.377 . S
N442 C441 1.344 . S
O443 Co435 2.055 . S
O443 C447 1.253 . S
H444 C440 0.931 . S
H445 C441 0.930 . S
O446 Co435 2.039 . S
O446 C436 1.265 . S
C447 O443 1.253 . S
C447 O448 1.227 . S
O448 C447 1.227 . S
N449 Co435 2.140 . S
N449 C452 1.346 . S
N449 C453 1.345 . S
C450 C451 1.387 . S
C450 C454 1.391 . S
C451 C450 1.387 . S
C451 C452 1.369 . S
C451 H460 0.929 . S
C452 N449 1.346 . S
C452 C451 1.369 . S
C452 H455 0.928 . S
C453 N449 1.345 . S
C453 C454 1.371 . S
C453 H456 0.931 . S
C454 C450 1.391 . S
C454 C453 1.371 . S
C454 H461 0.930 . S
H455 C452 0.928 . S
H456 C453 0.931 . S
H457 C433 0.930 . S
H458 C430 0.930 . S
H459 C439 0.930 . S
H460 C451 0.929 . S
H461 C454 0.930 . S
C462 C463 1.351 . S
C462 N465 1.368 . S
C462 H467 0.931 . S
C463 C462 1.351 . S
C463 N464 1.373 . S
C463 H491 0.930 . S
N464 C463 1.373 . S
N464 C466 1.340 . S
N465 C462 1.368 . S
N465 C466 1.321 . S
N465 Co468 2.135 . S
C466 N464 1.340 . S
C466 N465 1.321 . S
C466 H490 0.930 . S
H467 C462 0.931 . S
Co468 N465 2.135 . S
Co468 N471 2.121 1_554 S
Co468 O476 2.055 . S
Co468 O479 2.039 . S
Co468 N482 2.140 . S
C469 O470 1.227 . S
C469 O479 1.265 . S
O470 C469 1.227 . S
N471 Co468 2.121 1_556 S
N471 C473 1.375 . S
N471 C474 1.313 . S
C472 C473 1.338 . S
C472 N475 1.377 . S
C472 H492 0.930 . S
C473 N471 1.375 . S
C473 C472 1.338 . S
C473 H477 0.931 . S
C474 N471 1.313 . S
C474 N475 1.344 . S
C474 H478 0.930 . S
N475 C472 1.377 . S
N475 C474 1.344 . S
O476 Co468 2.055 . S
O476 C480 1.253 . S
H477 C473 0.931 . S
H478 C474 0.930 . S
O479 Co468 2.039 . S
O479 C469 1.265 . S
C480 O476 1.253 . S
C480 O481 1.227 . S
O481 C480 1.227 . S
N482 Co468 2.140 . S
N482 C485 1.346 . S
N482 C486 1.349 . S
C483 C484 1.387 . S
C483 C487 1.391 1_554 S
C484 C483 1.387 . S
C484 C485 1.369 . S
C484 H493 0.929 . S
C485 N482 1.346 . S
C485 C484 1.369 . S
C485 H488 0.928 . S
C486 N482 1.349 . S
C486 C487 1.371 1_554 S
C486 H489 0.927 1_554 S
C487 C483 1.391 1_556 S
C487 C486 1.371 1_556 S
C487 H494 0.930 . S
H488 C485 0.928 . S
H489 C486 0.927 1_556 S
H490 C466 0.930 . S
H491 C463 0.930 . S
H492 C472 0.930 . S
H493 C484 0.929 . S
H494 C487 0.930 . S
C495 C496 1.351 . S
C495 N498 1.368 1_554 S
C495 H500 0.931 1_554 S
C496 C495 1.351 . S
C496 N497 1.373 . S
C496 H524 0.930 . S
N497 C496 1.373 . S
N497 C499 1.340 . S
N498 C495 1.368 1_556 S
N498 C499 1.321 1_556 S
N498 Co501 2.135 . S
C499 N497 1.340 . S
C499 N498 1.321 1_554 S
C499 H523 0.930 . S
H500 C495 0.931 1_556 S
Co501 N498 2.135 . S
Co501 N504 2.121 . S
Co501 O509 2.055 . S
Co501 O512 2.039 . S
Co501 N515 2.140 . S
C502 O503 1.227 . S
C502 O512 1.265 . S
O503 C502 1.227 . S
N504 Co501 2.121 . S
N504 C506 1.375 . S
N504 C507 1.313 . S
C505 C506 1.338 . S
C505 N508 1.377 . S
C505 H525 0.930 . S
C506 N504 1.375 . S
C506 C505 1.338 . S
C506 H510 0.931 . S
C507 N504 1.313 . S
C507 N508 1.344 . S
C507 H511 0.930 . S
N508 C505 1.377 . S
N508 C507 1.344 . S
O509 Co501 2.055 . S
O509 C513 1.253 . S
H510 C506 0.931 . S
H511 C507 0.930 . S
O512 Co501 2.039 . S
O512 C502 1.265 . S
C513 O509 1.253 . S
C513 O514 1.227 . S
O514 C513 1.227 . S
N515 Co501 2.140 . S
N515 C518 1.346 . S
N515 C519 1.345 . S
C516 C517 1.387 . S
C516 C520 1.391 . S
C517 C516 1.387 . S
C517 C518 1.369 . S
C517 H526 0.929 . S
C518 N515 1.346 . S
C518 C517 1.369 . S
C518 H521 0.928 . S
C519 N515 1.345 . S
C519 C520 1.371 . S
C519 H522 0.931 . S
C520 C516 1.391 . S
C520 C519 1.371 . S
C520 H527 0.930 . S
H521 C518 0.928 . S
H522 C519 0.931 . S
H523 C499 0.930 . S
H524 C496 0.930 . S
H525 C505 0.930 . S
H526 C517 0.929 . S
H527 C520 0.930 . S
C528 C529 1.369 . S
C528 C530 1.419 . S
C528 H532 0.930 . S
C529 C528 1.369 . S
C529 C538 1.429 . S
C530 C528 1.419 . S
C530 C531 1.363 . S
C530 H533 0.929 . S
C531 C530 1.363 . S
C531 C537 1.428 . S
H532 C528 0.930 . S
H533 C530 0.929 . S
S534 N535 1.613 . S
S534 N536 1.610 . S
N535 S534 1.613 . S
N535 C538 1.350 . S
N536 S534 1.610 . S
N536 C537 1.351 . S
C537 C531 1.428 . S
C537 N536 1.351 . S
C537 C538 1.434 . S
C538 C529 1.429 . S
C538 N535 1.350 . S
C538 C537 1.434 . S
C539 C540 1.369 . S
C539 C541 1.419 . S
C539 H543 0.930 . S
C540 C539 1.369 . S
C540 C549 1.429 . S
C541 C539 1.419 . S
C541 C542 1.363 . S
C541 H544 0.929 . S
C542 C541 1.363 . S
C542 C548 1.428 . S
H543 C539 0.930 . S
H544 C541 0.929 . S
S545 N546 1.613 . S
S545 N547 1.610 . S
N546 S545 1.613 . S
N546 C549 1.350 . S
N547 S545 1.610 . S
N547 C548 1.351 . S
C548 C542 1.428 . S
C548 N547 1.351 . S
C548 C549 1.434 . S
C549 C540 1.429 . S
C549 N546 1.350 . S
C549 C548 1.434 . S
C550 C551 1.369 . S
C550 C552 1.419 1_554 S
C550 H554 0.930 . S
C551 C550 1.369 . S
C551 C560 1.429 . S
C552 C550 1.419 1_556 S
C552 C553 1.363 . S
C552 H555 0.929 . S
C553 C552 1.363 . S
C553 C559 1.428 . S
H554 C550 0.930 . S
H555 C552 0.929 . S
S556 N557 1.609 1_566 S
S556 N558 1.592 1_565 S
N557 S556 1.609 1_544 S
N557 C560 1.350 . S
N558 S556 1.592 1_545 S
N558 C559 1.351 . S
C559 C553 1.428 . S
C559 N558 1.351 . S
C559 C560 1.434 1_556 S
C560 C551 1.429 . S
C560 N557 1.350 . S
C560 C559 1.434 1_554 S
C561 C562 1.369 . S
C561 C563 1.419 . S
C561 H565 0.930 . S
C562 C561 1.369 . S
C562 C571 1.429 . S
C563 C561 1.419 . S
C563 C564 1.363 . S
C563 H566 0.929 . S
C564 C563 1.363 . S
C564 C570 1.428 . S
H565 C561 0.930 . S
H566 C563 0.929 . S
S567 N568 1.613 . S
S567 N569 1.610 . S
N568 S567 1.613 . S
N568 C571 1.350 . S
N569 S567 1.610 . S
N569 C570 1.351 . S
C570 C564 1.428 . S
C570 N569 1.351 . S
C570 C571 1.434 . S
C571 C562 1.429 . S
C571 N568 1.350 . S
C571 C570 1.434 . S
C572 C573 1.369 . S
C572 C574 1.419 . S
C572 H576 0.930 . S
C573 C572 1.369 . S
C573 C582 1.429 . S
C574 C572 1.419 . S
C574 C575 1.363 . S
C574 H577 0.929 . S
C575 C574 1.363 . S
C575 C581 1.428 . S
H576 C572 0.930 . S
H577 C574 0.929 . S
S578 N579 1.613 . S
S578 N580 1.610 . S
N579 S578 1.613 . S
N579 C582 1.350 . S
N580 S578 1.610 . S
N580 C581 1.351 . S
C581 C575 1.428 . S
C581 N580 1.351 . S
C581 C582 1.434 . S
C582 C573 1.429 . S
C582 N579 1.350 . S
C582 C581 1.434 . S
C583 C584 1.369 . S
C583 C585 1.419 . S
C583 H587 0.930 . S
C584 C583 1.369 . S
C584 C593 1.429 . S
C585 C583 1.419 . S
C585 C586 1.363 . S
C585 H588 0.929 . S
C586 C585 1.363 . S
C586 C592 1.428 . S
H587 C583 0.930 . S
H588 C585 0.929 . S
S589 N590 1.613 . S
S589 N591 1.610 . S
N590 S589 1.613 . S
N590 C593 1.350 . S
N591 S589 1.610 . S
N591 C592 1.351 . S
C592 C586 1.428 . S
C592 N591 1.351 . S
C592 C593 1.434 . S
C593 C584 1.429 . S
C593 N590 1.350 . S
C593 C592 1.434 . S
C594 C595 1.369 . S
C594 C596 1.419 . S
C594 H598 0.930 . S
C595 C594 1.369 . S
C595 C604 1.429 . S
C596 C594 1.419 . S
C596 C597 1.363 1_554 S
C596 H599 0.929 . S
C597 C596 1.363 1_556 S
C597 C603 1.428 1_556 S
H598 C594 0.930 . S
H599 C596 0.929 . S
S600 N601 1.613 . S
S600 N602 1.574 1_564 S
N601 S600 1.613 . S
N601 C604 1.350 1_565 S
N602 S600 1.574 1_546 S
N602 C603 1.376 1_556 S
C603 C597 1.428 1_554 S
C603 N602 1.376 1_554 S
C603 C604 1.434 . S
C604 C595 1.429 . S
C604 N601 1.350 1_545 S
C604 C603 1.434 . S
C605 C606 1.369 . S
C605 C607 1.419 . S
C605 H609 0.930 . S
C606 C605 1.369 . S
C606 C615 1.429 . S
C607 C605 1.419 . S
C607 C608 1.363 . S
C607 H610 0.929 . S
C608 C607 1.363 . S
C608 C614 1.428 . S
H609 C605 0.930 . S
H610 C607 0.929 . S
S611 N612 1.613 . S
S611 N613 1.610 . S
N612 S611 1.613 . S
N612 C615 1.350 . S
N613 S611 1.610 . S
N613 C614 1.351 . S
C614 C608 1.428 . S
C614 N613 1.351 . S
C614 C615 1.434 . S
C615 C606 1.429 . S
C615 N612 1.350 . S
C615 C614 1.434 . S
C616 C617 1.369 . S
C616 C618 1.419 . S
C616 H620 0.930 . S
C617 C616 1.369 . S
C617 C626 1.429 . S
C618 C616 1.419 . S
C618 C619 1.363 1_554 S
C618 H621 0.929 . S
C619 C618 1.363 1_556 S
C619 C625 1.428 1_556 S
H620 C616 0.930 . S
H621 C618 0.929 . S
S622 N623 1.613 . S
S622 N624 1.602 1_554 S
N623 S622 1.613 . S
N623 C626 1.350 . S
N624 S622 1.602 1_556 S
N624 C625 1.348 1_556 S
C625 C619 1.428 1_554 S
C625 N624 1.348 1_554 S
C625 C626 1.434 . S
C626 C617 1.429 . S
C626 N623 1.350 . S
C626 C625 1.434 . S
C627 C628 1.369 . S
C627 C629 1.419 . S
C627 H631 0.930 . S
C628 C627 1.369 . S
C628 C637 1.429 . S
C629 C627 1.419 . S
C629 C630 1.363 . S
C629 H632 0.929 . S
C630 C629 1.363 . S
C630 C636 1.428 . S
H631 C627 0.930 . S
H632 C629 0.929 . S
S633 N634 1.613 . S
S633 N635 1.610 . S
N634 S633 1.613 . S
N634 C637 1.350 . S
N635 S633 1.610 . S
N635 C636 1.351 . S
C636 C630 1.428 . S
C636 N635 1.351 . S
C636 C637 1.434 . S
C637 C628 1.429 . S
C637 N634 1.350 . S
C637 C636 1.434 . S
C638 C639 1.369 . S
C638 C640 1.419 . S
C638 H642 0.930 . S
C639 C638 1.369 . S
C639 C648 1.429 . S
C640 C638 1.419 . S
C640 C641 1.363 . S
C640 H643 0.929 . S
C641 C640 1.363 . S
C641 C647 1.428 . S
H642 C638 0.930 . S
H643 C640 0.929 . S
S644 N645 1.613 . S
S644 N646 1.610 . S
N645 S644 1.613 . S
N645 C648 1.350 . S
N646 S644 1.610 . S
N646 C647 1.351 . S
C647 C641 1.428 . S
C647 N646 1.351 . S
C647 C648 1.434 . S
C648 C639 1.429 . S
C648 N645 1.350 . S
C648 C647 1.434 . S
C649 C650 1.369 . S
C649 C651 1.419 . S
C649 H653 0.930 . S
C650 C649 1.369 . S
C650 C659 1.429 . S
C651 C649 1.419 . S
C651 C652 1.363 . S
C651 H654 0.929 . S
C652 C651 1.363 . S
C652 C658 1.428 . S
H653 C649 0.930 . S
H654 C651 0.929 . S
S655 N656 1.613 . S
S655 N657 1.610 . S
N656 S655 1.613 . S
N656 C659 1.350 . S
N657 S655 1.610 . S
N657 C658 1.351 . S
C658 C652 1.428 . S
C658 N657 1.351 . S
C658 C659 1.434 . S
C659 C650 1.429 . S
C659 N656 1.350 . S
C659 C658 1.434 . S
C660 C661 1.369 . S
C660 C662 1.419 1_556 S
C660 H664 0.930 . S
C661 C660 1.369 . S
C661 C670 1.429 . S
C662 C660 1.419 1_554 S
C662 C663 1.363 . S
C662 H665 0.929 . S
C663 C662 1.363 . S
C663 C669 1.428 . S
H664 C660 0.930 . S
H665 C662 0.929 . S
S666 N667 1.613 1_554 S
S666 N668 1.610 . S
N667 S666 1.613 1_556 S
N667 C670 1.350 . S
N668 S666 1.610 . S
N668 C669 1.351 . S
C669 C663 1.428 . S
C669 N668 1.351 . S
C669 C670 1.434 1_554 S
C670 C661 1.429 . S
C670 N667 1.350 . S
C670 C669 1.434 1_556 S
C671 C672 1.369 . S
C671 C673 1.419 . S
C671 H675 0.930 . S
C672 C671 1.369 . S
C672 C681 1.429 . S
C673 C671 1.419 . S
C673 C674 1.363 . S
C673 H676 0.929 . S
C674 C673 1.363 . S
C674 C680 1.428 . S
H675 C671 0.930 . S
H676 C673 0.929 . S
S677 N678 1.613 . S
S677 N679 1.610 . S
N678 S677 1.613 . S
N678 C681 1.350 . S
N679 S677 1.610 . S
N679 C680 1.351 . S
C680 C674 1.428 . S
C680 N679 1.351 . S
C680 C681 1.434 . S
C681 C672 1.429 . S
C681 N678 1.350 . S
C681 C680 1.434 . S
C682 C683 1.369 . S
C682 C684 1.419 . S
C682 H686 0.930 . S
C683 C682 1.369 . S
C683 C692 1.429 . S
C684 C682 1.419 . S
C684 C685 1.363 . S
C684 H687 0.929 . S
C685 C684 1.363 . S
C685 C691 1.428 . S
H686 C682 0.930 . S
H687 C684 0.929 . S
S688 N689 1.613 . S
S688 N690 1.610 . S
N689 S688 1.613 . S
N689 C692 1.350 . S
N690 S688 1.610 . S
N690 C691 1.351 . S
C691 C685 1.428 . S
C691 N690 1.351 . S
C691 C692 1.434 . S
C692 C683 1.429 . S
C692 N689 1.350 . S
C692 C691 1.434 . S
C693 C694 1.369 . S
C693 C695 1.419 . S
C693 H697 0.930 . S
C694 C693 1.369 . S
C694 C703 1.429 . S
C695 C693 1.419 . S
C695 C696 1.363 . S
C695 H698 0.929 . S
C696 C695 1.363 . S
C696 C702 1.428 . S
H697 C693 0.930 . S
H698 C695 0.929 . S
S699 N700 1.613 . S
S699 N701 1.610 . S
N700 S699 1.613 . S
N700 C703 1.350 . S
N701 S699 1.610 . S
N701 C702 1.351 . S
C702 C696 1.428 . S
C702 N701 1.351 . S
C702 C703 1.434 . S
C703 C694 1.429 . S
C703 N700 1.350 . S
C703 C702 1.434 . S
C704 C705 1.369 . S
C704 C706 1.419 . S
C704 H708 0.930 . S
C705 C704 1.369 . S
C705 C714 1.429 . S
C706 C704 1.419 . S
C706 C707 1.363 . S
C706 H709 0.929 . S
C707 C706 1.363 . S
C707 C713 1.428 . S
H708 C704 0.930 . S
H709 C706 0.929 . S
S710 N711 1.613 . S
S710 N712 1.610 . S
N711 S710 1.613 . S
N711 C714 1.350 . S
N712 S710 1.610 . S
N712 C713 1.351 . S
C713 C707 1.428 . S
C713 N712 1.351 . S
C713 C714 1.434 . S
C714 C705 1.429 . S
C714 N711 1.350 . S
C714 C713 1.434 . S
C715 C716 1.369 . S
C715 C717 1.419 . S
C715 H719 0.930 . S
C716 C715 1.369 . S
C716 C725 1.429 . S
C717 C715 1.419 . S
C717 C718 1.363 . S
C717 H720 0.929 . S
C718 C717 1.363 . S
C718 C724 1.428 . S
H719 C715 0.930 . S
H720 C717 0.929 . S
S721 N722 1.613 . S
S721 N723 1.610 . S
N722 S721 1.613 . S
N722 C725 1.350 . S
N723 S721 1.610 . S
N723 C724 1.351 . S
C724 C718 1.428 . S
C724 N723 1.351 . S
C724 C725 1.434 . S
C725 C716 1.429 . S
C725 N722 1.350 . S
C725 C724 1.434 . S
C726 C727 1.369 . S
C726 C728 1.419 . S
C726 H730 0.930 . S
C727 C726 1.369 . S
C727 C736 1.429 . S
C728 C726 1.419 . S
C728 C729 1.363 . S
C728 H731 0.929 . S
C729 C728 1.363 . S
C729 C735 1.428 . S
H730 C726 0.930 . S
H731 C728 0.929 . S
S732 N733 1.613 . S
S732 N734 1.610 . S
N733 S732 1.613 . S
N733 C736 1.350 . S
N734 S732 1.610 . S
N734 C735 1.351 . S
C735 C729 1.428 . S
C735 N734 1.351 . S
C735 C736 1.434 . S
C736 C727 1.429 . S
C736 N733 1.350 . S
C736 C735 1.434 . S
C737 C738 1.369 . S
C737 C739 1.419 . S
C737 H741 0.930 . S
C738 C737 1.369 . S
C738 C747 1.429 1_556 S
C739 C737 1.419 . S
C739 C740 1.363 . S
C739 H742 0.929 . S
C740 C739 1.363 . S
C740 C746 1.428 . S
H741 C737 0.930 . S
H742 C739 0.929 . S
S743 N744 1.613 . S
S743 N745 1.610 1_554 S
N744 S743 1.613 . S
N744 C747 1.350 . S
N745 S743 1.610 1_556 S
N745 C746 1.351 . S
C746 C740 1.428 . S
C746 N745 1.351 . S
C746 C747 1.434 1_556 S
C747 C738 1.429 1_554 S
C747 N744 1.350 . S
C747 C746 1.434 1_554 S
C748 C749 1.369 . S
C748 C750 1.419 . S
C748 H752 0.930 . S
C749 C748 1.369 . S
C749 C758 1.429 . S
C750 C748 1.419 . S
C750 C751 1.363 . S
C750 H753 0.929 . S
C751 C750 1.363 . S
C751 C757 1.428 . S
H752 C748 0.930 . S
H753 C750 0.929 . S
S754 N755 1.613 . S
S754 N756 1.610 . S
N755 S754 1.613 . S
N755 C758 1.350 . S
N756 S754 1.610 . S
N756 C757 1.351 . S
C757 C751 1.428 . S
C757 N756 1.351 . S
C757 C758 1.434 . S
C758 C749 1.429 . S
C758 N755 1.350 . S
C758 C757 1.434 . S
C759 C760 1.369 . S
C759 C761 1.419 . S
C759 H763 0.930 . S
C760 C759 1.369 . S
C760 C769 1.429 . S
C761 C759 1.419 . S
C761 C762 1.363 . S
C761 H764 0.929 . S
C762 C761 1.363 . S
C762 C768 1.428 . S
H763 C759 0.930 . S
H764 C761 0.929 . S
S765 N766 1.613 . S
S765 N767 1.610 . S
N766 S765 1.613 . S
N766 C769 1.350 . S
N767 S765 1.610 . S
N767 C768 1.351 . S
C768 C762 1.428 . S
C768 N767 1.351 . S
C768 C769 1.434 . S
C769 C760 1.429 . S
C769 N766 1.350 . S
C769 C768 1.434 . S
C770 C771 1.369 . S
C770 C772 1.419 . S
C770 H774 0.930 . S
C771 C770 1.369 . S
C771 C780 1.429 . S
C772 C770 1.419 . S
C772 C773 1.363 . S
C772 H775 0.929 . S
C773 C772 1.363 . S
C773 C779 1.428 . S
H774 C770 0.930 . S
H775 C772 0.929 . S
S776 N777 1.613 . S
S776 N778 1.610 . S
N777 S776 1.613 . S
N777 C780 1.350 . S
N778 S776 1.610 . S
N778 C779 1.351 . S
C779 C773 1.428 . S
C779 N778 1.351 . S
C779 C780 1.434 . S
C780 C771 1.429 . S
C780 N777 1.350 . S
C780 C779 1.434 . S
C781 C782 1.369 . S
C781 C783 1.419 . S
C781 H785 0.930 . S
C782 C781 1.369 . S
C782 C791 1.429 . S
C783 C781 1.419 . S
C783 C784 1.363 . S
C783 H786 0.929 . S
C784 C783 1.363 . S
C784 C790 1.428 . S
H785 C781 0.930 . S
H786 C783 0.929 . S
S787 N788 1.613 1_556 S
S787 N789 1.610 . S
N788 S787 1.613 1_554 S
N788 C791 1.350 . S
N789 S787 1.610 . S
N789 C790 1.351 1_556 S
C790 C784 1.428 . S
C790 N789 1.351 1_554 S
C790 C791 1.434 . S
C791 C782 1.429 . S
C791 N788 1.350 . S
C791 C790 1.434 . S
C792 C793 1.369 . S
C792 C794 1.419 . S
C792 H796 0.930 . S
C793 C792 1.369 . S
C793 C802 1.429 . S
C794 C792 1.419 . S
C794 C795 1.363 . S
C794 H797 0.929 . S
C795 C794 1.363 . S
C795 C801 1.428 . S
H796 C792 0.930 . S
H797 C794 0.929 . S
S798 N799 1.613 . S
S798 N800 1.610 . S
N799 S798 1.613 . S
N799 C802 1.350 . S
N800 S798 1.610 . S
N800 C801 1.351 . S
C801 C795 1.428 . S
C801 N800 1.351 . S
C801 C802 1.434 . S
C802 C793 1.429 . S
C802 N799 1.350 . S
C802 C801 1.434 . S
C803 C804 1.369 . S
C803 C805 1.419 . S
C803 H807 0.930 . S
C804 C803 1.369 . S
C804 C813 1.429 . S
C805 C803 1.419 . S
C805 C806 1.363 . S
C805 H808 0.929 . S
C806 C805 1.363 . S
C806 C812 1.428 . S
H807 C803 0.930 . S
H808 C805 0.929 . S
S809 N810 1.613 . S
S809 N811 1.610 . S
N810 S809 1.613 . S
N810 C813 1.350 . S
N811 S809 1.610 . S
N811 C812 1.351 . S
C812 C806 1.428 . S
C812 N811 1.351 . S
C812 C813 1.434 . S
C813 C804 1.429 . S
C813 N810 1.350 . S
C813 C812 1.434 . S
C814 C815 1.369 . S
C814 C816 1.419 . S
C814 H818 0.930 . S
C815 C814 1.369 . S
C815 C824 1.429 . S
C816 C814 1.419 . S
C816 C817 1.363 . S
C816 H819 0.929 . S
C817 C816 1.363 . S
C817 C823 1.428 . S
H818 C814 0.930 . S
H819 C816 0.929 . S
S820 N821 1.613 . S
S820 N822 1.610 . S
N821 S820 1.613 . S
N821 C824 1.350 . S
N822 S820 1.610 . S
N822 C823 1.351 . S
C823 C817 1.428 . S
C823 N822 1.351 . S
C823 C824 1.434 . S
C824 C815 1.429 . S
C824 N821 1.350 . S
C824 C823 1.434 . S
C825 C826 1.369 . S
C825 C827 1.419 . S
C825 H829 0.930 . S
C826 C825 1.369 . S
C826 C835 1.429 . S
C827 C825 1.419 . S
C827 C828 1.363 . S
C827 H830 0.929 . S
C828 C827 1.363 . S
C828 C834 1.428 . S
H829 C825 0.930 . S
H830 C827 0.929 . S
S831 N832 1.613 . S
S831 N833 1.610 . S
N832 S831 1.613 . S
N832 C835 1.350 . S
N833 S831 1.610 . S
N833 C834 1.351 . S
C834 C828 1.428 . S
C834 N833 1.351 . S
C834 C835 1.434 . S
C835 C826 1.429 . S
C835 N832 1.350 . S
C835 C834 1.434 . S
C836 C837 1.369 . S
C836 C838 1.419 . S
C836 H840 0.930 . S
C837 C836 1.369 . S
C837 C846 1.429 . S
C838 C836 1.419 . S
C838 C839 1.363 . S
C838 H841 0.929 . S
C839 C838 1.363 . S
C839 C845 1.428 . S
H840 C836 0.930 . S
H841 C838 0.929 . S
S842 N843 1.613 . S
S842 N844 1.610 . S
N843 S842 1.613 . S
N843 C846 1.350 . S
N844 S842 1.610 . S
N844 C845 1.351 . S
C845 C839 1.428 . S
C845 N844 1.351 . S
C845 C846 1.434 . S
C846 C837 1.429 . S
C846 N843 1.350 . S
C846 C845 1.434 . S
C847 C848 1.369 . S
C847 C849 1.419 . S
C847 H851 0.930 . S
C848 C847 1.369 . S
C848 C857 1.429 . S
C849 C847 1.419 . S
C849 C850 1.363 . S
C849 H852 0.929 . S
C850 C849 1.363 . S
C850 C856 1.428 . S
H851 C847 0.930 . S
H852 C849 0.929 . S
S853 N854 1.613 1_556 S
S853 N855 1.610 . S
N854 S853 1.613 1_554 S
N854 C857 1.350 . S
N855 S853 1.610 . S
N855 C856 1.351 1_556 S
C856 C850 1.428 . S
C856 N855 1.351 1_554 S
C856 C857 1.434 . S
C857 C848 1.429 . S
C857 N854 1.350 . S
C857 C856 1.434 . S
C858 C859 1.369 . S
C858 C860 1.419 . S
C858 H862 0.930 . S
C859 C858 1.369 . S
C859 C868 1.429 1_556 S
C860 C858 1.419 . S
C860 C861 1.363 1_556 S
C860 H863 0.929 . S
C861 C860 1.363 1_554 S
C861 C867 1.428 . S
H862 C858 0.930 . S
H863 C860 0.929 . S
S864 N865 1.613 . S
S864 N866 1.610 . S
N865 S864 1.613 . S
N865 C868 1.350 . S
N866 S864 1.610 . S
N866 C867 1.351 . S
C867 C861 1.428 . S
C867 N866 1.351 . S
C867 C868 1.434 . S
C868 C859 1.429 1_554 S
C868 N865 1.350 . S
C868 C867 1.434 . S
C869 C870 1.369 . S
C869 C871 1.419 . S
C869 H873 0.930 . S
C870 C869 1.369 . S
C870 C879 1.429 . S
C871 C869 1.419 . S
C871 C872 1.363 . S
C871 H874 0.929 . S
C872 C871 1.363 . S
C872 C878 1.428 . S
H873 C869 0.930 . S
H874 C871 0.929 . S
S875 N876 1.613 . S
S875 N877 1.610 . S
N876 S875 1.613 . S
N876 C879 1.350 . S
N877 S875 1.610 . S
N877 C878 1.351 . S
C878 C872 1.428 . S
C878 N877 1.351 . S
C878 C879 1.434 . S
C879 C870 1.429 . S
C879 N876 1.350 . S
C879 C878 1.434 . S
C880 C881 1.369 . S
C880 C882 1.419 . S
C880 H884 0.930 . S
C881 C880 1.369 . S
C881 C890 1.429 1_554 S
C882 C880 1.419 . S
C882 C883 1.363 . S
C882 H885 0.929 . S
C883 C882 1.363 . S
C883 C889 1.428 1_554 S
H884 C880 0.930 . S
H885 C882 0.929 . S
S886 N887 1.613 . S
S886 N888 1.610 . S
N887 S886 1.613 . S
N887 C890 1.350 . S
N888 S886 1.610 . S
N888 C889 1.351 . S
C889 C883 1.428 1_556 S
C889 N888 1.351 . S
C889 C890 1.434 . S
C890 C881 1.429 1_556 S
C890 N887 1.350 . S
C890 C889 1.434 . S
C891 C892 1.369 . S
C891 C893 1.419 . S
C891 H895 0.930 . S
C892 C891 1.369 . S
C892 C901 1.429 . S
C893 C891 1.419 . S
C893 C894 1.363 . S
C893 H896 0.929 . S
C894 C893 1.363 . S
C894 C900 1.428 . S
H895 C891 0.930 . S
H896 C893 0.929 . S
S897 N898 1.613 . S
S897 N899 1.610 . S
N898 S897 1.613 . S
N898 C901 1.350 . S
N899 S897 1.610 . S
N899 C900 1.351 . S
C900 C894 1.428 . S
C900 N899 1.351 . S
C900 C901 1.434 . S
C901 C892 1.429 . S
C901 N898 1.350 . S
C901 C900 1.434 . S
C902 C903 1.369 . S
C902 C904 1.419 1_455 S
C902 H906 0.930 . S
C903 C902 1.369 . S
C903 C912 1.429 . S
C904 C902 1.419 1_655 S
C904 C905 1.363 . S
C904 H907 0.929 . S
C905 C904 1.363 . S
C905 C911 1.428 . S
H906 C902 0.930 . S
H907 C904 0.929 . S
S908 N909 1.613 1_665 S
S908 N910 1.610 1_565 S
N909 S908 1.613 1_445 S
N909 C912 1.350 . S
N910 S908 1.610 1_545 S
N910 C911 1.351 . S
C911 C905 1.428 . S
C911 N910 1.351 . S
C911 C912 1.434 1_655 S
C912 C903 1.429 . S
C912 N909 1.350 . S
C912 C911 1.434 1_455 S
C913 C914 1.369 . S
C913 C915 1.419 . S
C913 H917 0.930 . S
C914 C913 1.369 . S
C914 C923 1.429 . S
C915 C913 1.419 . S
C915 C916 1.363 . S
C915 H918 0.929 . S
C916 C915 1.363 . S
C916 C922 1.428 . S
H917 C913 0.930 . S
H918 C915 0.929 . S
S919 N920 1.613 1_554 S
S919 N921 1.610 1_554 S
N920 S919 1.613 1_556 S
N920 C923 1.350 . S
N921 S919 1.610 1_556 S
N921 C922 1.351 . S
C922 C916 1.428 . S
C922 N921 1.351 . S
C922 C923 1.434 . S
C923 C914 1.429 . S
C923 N920 1.350 . S
C923 C922 1.434 . S
C924 C925 1.369 . S
C924 C926 1.419 . S
C924 H928 0.930 . S
C925 C924 1.369 . S
C925 C934 1.429 . S
C926 C924 1.419 . S
C926 C927 1.363 . S
C926 H929 0.929 . S
C927 C926 1.363 . S
C927 C933 1.428 . S
H928 C924 0.930 . S
H929 C926 0.929 . S
S930 N931 1.613 . S
S930 N932 1.610 . S
N931 S930 1.613 . S
N931 C934 1.350 . S
N932 S930 1.610 . S
N932 C933 1.351 . S
C933 C927 1.428 . S
C933 N932 1.351 . S
C933 C934 1.434 . S
C934 C925 1.429 . S
C934 N931 1.350 . S
C934 C933 1.434 . S
C935 C936 1.369 . S
C935 C937 1.419 . S
C935 H939 0.930 . S
C936 C935 1.369 . S
C936 C945 1.429 . S
C937 C935 1.419 . S
C937 C938 1.363 . S
C937 H940 0.929 . S
C938 C937 1.363 . S
C938 C944 1.428 . S
H939 C935 0.930 . S
H940 C937 0.929 . S
S941 N942 1.613 . S
S941 N943 1.610 . S
N942 S941 1.613 . S
N942 C945 1.350 . S
N943 S941 1.610 . S
N943 C944 1.351 . S
C944 C938 1.428 . S
C944 N943 1.351 . S
C944 C945 1.434 . S
C945 C936 1.429 . S
C945 N942 1.350 . S
C945 C944 1.434 . S
C946 C947 1.369 . S
C946 C948 1.419 1_655 S
C946 H950 0.930 . S
C947 C946 1.369 . S
C947 C956 1.429 . S
C948 C946 1.419 1_455 S
C948 C949 1.363 . S
C948 H951 0.929 . S
C949 C948 1.363 . S
C949 C955 1.428 . S
H950 C946 0.930 . S
H951 C948 0.929 . S
S952 N953 1.613 . S
S952 N954 1.610 1_655 S
N953 S952 1.613 . S
N953 C956 1.350 . S
N954 S952 1.610 1_455 S
N954 C955 1.351 . S
C955 C949 1.428 . S
C955 N954 1.351 . S
C955 C956 1.434 1_455 S
C956 C947 1.429 . S
C956 N953 1.350 . S
C956 C955 1.434 1_655 S
C957 C958 1.369 . S
C957 C959 1.419 . S
C957 H961 0.930 . S
C958 C957 1.369 . S
C958 C967 1.429 1_554 S
C959 C957 1.419 . S
C959 C960 1.363 . S
C959 H962 0.929 . S
C960 C959 1.363 . S
C960 C966 1.428 1_554 S
H961 C957 0.930 . S
H962 C959 0.929 . S
S963 N964 1.613 . S
S963 N965 1.610 . S
N964 S963 1.613 . S
N964 C967 1.350 . S
N965 S963 1.610 . S
N965 C966 1.351 . S
C966 C960 1.428 1_556 S
C966 N965 1.351 . S
C966 C967 1.434 . S
C967 C958 1.429 1_556 S
C967 N964 1.350 . S
C967 C966 1.434 . S
C529 N13 1.367 . S
C531 N2 1.361 . S
C540 N46 1.402 1_556 S
C542 N35 1.399 . S
C551 N68 1.401 . S
C553 N79 1.400 . S
C562 N101 1.357 . S
C564 N112 1.369 . S
C573 N134 1.358 . S
C575 N145 1.368 . S
C584 N167 1.397 . S
C586 N178 1.403 . S
C595 N211 1.402 . S
C597 N200 1.399 . S
C606 N233 1.358 . S
C608 N244 1.368 1_556 S
C617 N277 1.360 . S
C619 N266 1.366 . S
C628 N310 1.401 . S
C630 N299 1.399 . S
C639 N332 1.399 . S
C641 N343 1.401 . S
C650 N376 1.360 . S
C652 N365 1.366 . S
C661 N409 1.367 . S
C663 N398 1.361 . S
C672 N431 1.400 . S
C674 N442 1.400 . S
C683 N475 1.399 . S
C685 N464 1.400 . S
C694 N497 1.361 . S
C696 N508 1.366 . S
C705 C7 1.535 . S
C707 C54 1.566 . S
C716 C73 1.895 . S
C718 C40 1.895 . S
C727 C106 1.531 . S
C729 C87 1.567 . S
C738 C21 1.273 1_556 S
C740 C120 1.265 . S
C749 C186 1.569 . S
C751 C139 1.536 . S
C760 C172 1.900 . S
C762 C205 1.896 . S
C771 C219 1.566 . S
C773 C238 1.536 . S
C782 C252 1.267 . S
C784 C153 1.273 . S
C793 C318 1.572 . S
C795 C271 1.532 . S
C804 C304 1.897 . S
C806 C337 1.894 . S
C815 C351 1.567 . S
C817 C370 1.537 . S
C826 C384 1.264 . S
C828 C285 1.272 . S
C837 C403 1.538 . S
C839 C450 1.568 . S
C848 C436 1.895 . S
C850 C469 1.899 . S
C859 C502 1.531 . S
C861 C483 1.572 . S
C870 C417 1.267 . S
C872 C516 1.273 . S
C881 C18 1.061 . S
C883 C150 1.065 . S
C892 C447 1.426 . S
C894 C51 1.428 . S
C903 C84 1.427 . S
C905 C216 1.426 . S
C914 C513 1.066 . S
C916 C117 1.062 . S
C925 C315 1.428 . S
C927 C183 1.427 . S
C936 C249 1.064 . S
C938 C381 1.064 . S
C947 C282 1.061 . S
C949 C414 1.066 . S
C958 C480 1.426 . S
C960 C348 1.427 . S
