# Generated by pormake.
# Topology rac, (4)-cn, num edge types: 1
# Building blocks:
#     Node 0, Type 0, BuildingBlock: UXUYUI_clean_sbu_0, # of connection points: 4
#     Node 1, Type 0, BuildingBlock: UXUYUI_clean_sbu_0, # of connection points: 4
#     Node 2, Type 0, BuildingBlock: UXUYUI_clean_sbu_0, # of connection points: 4
#     Node 3, Type 0, BuildingBlock: UXUYUI_clean_sbu_0, # of connection points: 4
#     Node 4, Type 0, BuildingBlock: UXUYUI_clean_sbu_0, # of connection points: 4
#     Node 5, Type 0, BuildingBlock: UXUYUI_clean_sbu_0, # of connection points: 4
#     Node 6, Type 0, BuildingBlock: UXUYUI_clean_sbu_0, # of connection points: 4
#     Node 7, Type 0, BuildingBlock: UXUYUI_clean_sbu_0, # of connection points: 4
#     Edge 8, Type (0, 0), BuildingBlock: MIFKUJ_clean_linker_0, # of connection points: 2
#     Edge 9, Type (0, 0), BuildingBlock: MIFKUJ_clean_linker_0, # of connection points: 2
#     Edge 10, Type (0, 0), BuildingBlock: MIFKUJ_clean_linker_0, # of connection points: 2
#     Edge 11, Type (0, 0), BuildingBlock: MIFKUJ_clean_linker_0, # of connection points: 2
#     Edge 12, Type (0, 0), BuildingBlock: MIFKUJ_clean_linker_0, # of connection points: 2
#     Edge 13, Type (0, 0), BuildingBlock: MIFKUJ_clean_linker_0, # of connection points: 2
#     Edge 14, Type (0, 0), BuildingBlock: MIFKUJ_clean_linker_0, # of connection points: 2
#     Edge 15, Type (0, 0), BuildingBlock: MIFKUJ_clean_linker_0, # of connection points: 2
#     Edge 16, Type (0, 0), BuildingBlock: MIFKUJ_clean_linker_0, # of connection points: 2
#     Edge 17, Type (0, 0), BuildingBlock: MIFKUJ_clean_linker_0, # of connection points: 2
#     Edge 18, Type (0, 0), BuildingBlock: MIFKUJ_clean_linker_0, # of connection points: 2
#     Edge 19, Type (0, 0), BuildingBlock: MIFKUJ_clean_linker_0, # of connection points: 2
#     Edge 20, Type (0, 0), BuildingBlock: MIFKUJ_clean_linker_0, # of connection points: 2
#     Edge 21, Type (0, 0), BuildingBlock: MIFKUJ_clean_linker_0, # of connection points: 2
#     Edge 22, Type (0, 0), BuildingBlock: MIFKUJ_clean_linker_0, # of connection points: 2
#     Edge 23, Type (0, 0), BuildingBlock: MIFKUJ_clean_linker_0, # of connection points: 2
# Relax obj value: 0.361
# Max RMSD: 0.174
# Mean RMSD: 0.174
data_MOF--net-rac--node1-UXUYUI_clean_sbu_0--edge1-MIFKUJ_clean_linker_0
_symmetry_space_group_name_H-M    P1
_symmetry_Int_Tables_number       1
_symmetry_cell_setting            triclinic
loop_
_symmetry_equiv_pos_as_xyz
'x, y, z'
_cell_length_a     68.705671
_cell_length_b     35.361891
_cell_length_c     74.041915
_cell_angle_alpha  90.00549
_cell_angle_beta   89.99855
_cell_angle_gamma 89.971748
loop_
_atom_site_label
_atom_site_type_symbol
_atom_site_fract_x
_atom_site_fract_y
_atom_site_fract_z
_atom_type_partial_charge
Li0 Li 0.40819 0.26134 0.06263 0.0
Li1 Li 0.40376 0.23732 0.0936 0.0
Li2 Li 0.38537 0.20903 0.06654 0.0
Li3 Li 0.37829 0.27206 0.07758 0.0
C4 C 0.43074 0.20259 0.06265 0.0
N5 N 0.46466 0.19319 0.04319 0.0
C6 C 0.44876 0.20558 0.07127 0.0
C7 C 0.42992 0.1946 0.04419 0.0
C8 C 0.46577 0.20077 0.06117 0.0
C9 C 0.44725 0.19002 0.03457 0.0
C10 C 0.40047 0.32662 0.08933 0.0
C11 C 0.3883 0.3735 0.11015 0.0
N12 N 0.39118 0.40075 0.09747 0.0
C13 C 0.40336 0.35513 0.07653 0.0
C14 C 0.39294 0.33588 0.10631 0.0
C15 C 0.39858 0.39243 0.0809 0.0
C16 C 0.42198 0.30088 0.03161 0.0
N17 N 0.42701 0.28724 0.04813 0.0
C18 C 0.4556 0.3258 0.04851 0.0
C19 C 0.44367 0.29848 0.05645 0.0
C20 C 0.45017 0.3423 0.03197 0.0
C21 C 0.43344 0.32848 0.02321 0.0
H22 H 0.40838 0.29233 0.02554 0.0
H23 H 0.44702 0.28809 0.06983 0.0
C24 C 0.41212 0.19534 0.12544 0.0
N25 N 0.4149 0.2287 0.11672 0.0
C26 C 0.41663 0.19213 0.1438 0.0
C27 C 0.42745 0.25715 0.14354 0.0
C28 C 0.42302 0.25889 0.12518 0.0
C29 C 0.42374 0.22378 0.1533 0.0
H30 H 0.40546 0.17189 0.11838 0.0
H31 H 0.425 0.28511 0.11791 0.0
C32 C 0.36447 0.25397 0.04309 0.0
N33 N 0.32928 0.24895 0.02512 0.0
C34 C 0.3476 0.24366 0.05241 0.0
C35 C 0.3634 0.26196 0.02462 0.0
C36 C 0.32997 0.2412 0.0431 0.0
C37 C 0.34549 0.25921 0.01578 0.0
C38 C 0.36247 0.22106 0.10453 0.0
C39 C 0.34488 0.20212 0.10157 0.0
C40 C 0.36639 0.23613 0.12163 0.0
C41 C 0.33151 0.19879 0.11569 0.0
C42 C 0.35266 0.23214 0.1354 0.0
N43 N 0.33564 0.21372 0.13218 0.0
C44 C 0.36719 0.13909 0.07158 0.0
C45 C 0.36539 0.16052 0.04132 0.0
C46 C 0.35307 0.11153 0.0682 0.0
N47 N 0.37241 0.16393 0.05843 0.0
C48 C 0.35104 0.13367 0.0374 0.0
C49 C 0.34419 0.10965 0.05113 0.0
H50 H 0.3729 0.14251 0.08509 0.0
H51 H 0.36993 0.18022 0.031 0.0
C52 C 0.35718 0.33445 0.06612 0.0
N53 N 0.35812 0.30901 0.07987 0.0
C54 C 0.34279 0.36221 0.06596 0.0
C55 C 0.33064 0.3374 0.09421 0.0
C56 C 0.34533 0.31025 0.09387 0.0
C57 C 0.3292 0.36364 0.08006 0.0
H58 H 0.36759 0.33296 0.05519 0.0
H59 H 0.34639 0.29038 0.10479 0.0
O60 O 0.41396 0.20797 0.07219 0.0
O61 O 0.4046 0.28976 0.08515 0.0
O62 O 0.38198 0.25639 0.05188 0.0
O63 O 0.37595 0.22394 0.09094 0.0
H64 H 0.44958 0.21186 0.08556 0.0
H65 H 0.41603 0.19234 0.03736 0.0
H66 H 0.47984 0.20317 0.06762 0.0
H67 H 0.44686 0.18402 0.02025 0.0
H68 H 0.38235 0.381 0.12319 0.0
H69 H 0.40899 0.34856 0.06327 0.0
H70 H 0.39047 0.31421 0.11635 0.0
H71 H 0.40065 0.41472 0.07109 0.0
H72 H 0.46848 0.3351 0.05566 0.0
H73 H 0.4285 0.34062 0.01059 0.0
H74 H 0.41389 0.16554 0.15058 0.0
H75 H 0.43263 0.28252 0.15015 0.0
H76 H 0.3481 0.23762 0.06666 0.0
H77 H 0.37628 0.26998 0.01715 0.0
H78 H 0.31684 0.23313 0.05017 0.0
H79 H 0.34447 0.26519 0.00149 0.0
H80 H 0.34151 0.1901 0.08852 0.0
H81 H 0.37971 0.25132 0.12421 0.0
H82 H 0.31785 0.18427 0.11355 0.0
H83 H 0.35551 0.24382 0.14865 0.0
H84 H 0.34819 0.09372 0.0792 0.0
H85 H 0.34481 0.13272 0.02397 0.0
H86 H 0.34208 0.38181 0.05474 0.0
H87 H 0.32057 0.338 0.10546 0.0
Li88 Li 0.09624 0.74665 0.05978 0.0
Li89 Li 0.10326 0.76482 0.09052 0.0
Li90 Li 0.12223 0.79305 0.06363 0.0
Li91 Li 0.126 0.7274 0.07271 0.0
C92 C 0.07496 0.80622 0.06549 0.0
N93 N 0.03688 0.81821 0.05491 0.0
C94 C 0.05963 0.79686 0.07707 0.0
C95 C 0.07092 0.82207 0.04861 0.0
C96 C 0.04048 0.80304 0.07145 0.0
C97 C 0.05157 0.8278 0.04348 0.0
C98 C 0.09667 0.67595 0.07708 0.0
C99 C 0.08396 0.61461 0.0851 0.0
N100 N 0.08942 0.60109 0.06866 0.0
C101 C 0.10228 0.66132 0.06031 0.0
C102 C 0.08752 0.65235 0.08961 0.0
C103 C 0.09843 0.62348 0.05629 0.0
C104 C 0.07541 0.72058 0.02758 0.0
N105 N 0.07471 0.72627 0.04575 0.0
C106 C 0.04718 0.68501 0.04818 0.0
C107 C 0.06033 0.71043 0.05588 0.0
C108 C 0.04868 0.67593 0.02976 0.0
C109 C 0.06249 0.69542 0.01928 0.0
H110 H 0.08659 0.73365 0.01956 0.0
H111 H 0.06007 0.71506 0.07032 0.0
C112 C 0.10293 0.79766 0.12551 0.0
N113 N 0.09427 0.77185 0.11453 0.0
C114 C 0.09877 0.79804 0.144 0.0
C115 C 0.07638 0.7462 0.13933 0.0
C116 C 0.08091 0.74694 0.12096 0.0
C117 C 0.08572 0.77137 0.15118 0.0
H118 H 0.11376 0.81668 0.12005 0.0
H119 H 0.07429 0.72673 0.11189 0.0
C120 C 0.12251 0.7514 0.03004 0.0
N121 N 0.12285 0.75923 0.99291 0.0
C122 C 0.12825 0.72117 0.01909 0.0
C123 C 0.11717 0.78574 0.02211 0.0
C124 C 0.12824 0.72565 1.00035 0.0
C125 C 0.11739 0.78911 0.00332 0.0
C126 C 0.14742 0.7614 0.09687 0.0
C127 C 0.16615 0.76834 0.0903 0.0
C128 C 0.14502 0.74126 0.11296 0.0
C129 C 0.1822 0.75478 0.09991 0.0
C130 C 0.16144 0.72823 0.12218 0.0
N131 N 0.17953 0.73517 0.11551 0.0
C132 C 0.13719 0.86977 0.06194 0.0
C133 C 0.15494 0.82181 0.04682 0.0
C134 C 0.15238 0.89564 0.05909 0.0
N135 N 0.13893 0.83347 0.05606 0.0
C136 C 0.17042 0.84648 0.0438 0.0
C137 C 0.16953 0.88364 0.0504 0.0
H138 H 0.12452 0.87809 0.06965 0.0
H139 H 0.15622 0.79257 0.04271 0.0
C140 C 0.14481 0.66295 0.08724 0.0
N141 N 0.14518 0.68952 0.074 0.0
C142 C 0.15949 0.63581 0.08822 0.0
C143 C 0.17448 0.66397 0.06187 0.0
C144 C 0.15954 0.69055 0.06143 0.0
C145 C 0.1746 0.63621 0.07544 0.0
H146 H 0.13326 0.66319 0.09717 0.0
H147 H 0.15943 0.71225 0.05114 0.0
O148 O 0.09377 0.79948 0.07064 0.0
O149 O 0.10001 0.71315 0.08127 0.0
O150 O 0.12262 0.74752 0.04841 0.0
O151 O 0.13149 0.77338 0.08737 0.0
H152 H 0.06248 0.78458 0.09017 0.0
H153 H 0.08256 0.82989 0.03954 0.0
H154 H 0.02848 0.79568 0.08023 0.0
H155 H 0.04824 0.83989 0.03043 0.0
H156 H 0.07685 0.59608 0.09466 0.0
H157 H 0.1094 0.67899 0.05044 0.0
H158 H 0.08319 0.66304 0.1027 0.0
H159 H 0.10259 0.61191 0.04333 0.0
H160 H 0.03688 0.67066 0.05686 0.0
H161 H 0.06387 0.69006 0.00494 0.0
H162 H 0.10643 0.81766 0.15269 0.0
H163 H 0.06605 0.72553 0.14428 0.0
H164 H 0.13261 0.6945 0.02502 0.0
H165 H 0.11301 0.80956 0.03038 0.0
H166 H 0.13255 0.70244 0.99171 0.0
H167 H 0.11324 0.8155 0.99701 0.0
H168 H 0.16829 0.78368 0.07783 0.0
H169 H 0.13062 0.73516 0.11811 0.0
H170 H 0.19678 0.75977 0.09493 0.0
H171 H 0.15979 0.71241 0.13459 0.0
H172 H 0.15119 0.92399 0.06452 0.0
H173 H 0.18327 0.83615 0.0369 0.0
H174 H 0.1592 0.61519 0.09903 0.0
H175 H 0.18573 0.66497 0.05164 0.0
Li176 Li 0.37287 0.23213 0.42666 0.0
Li177 Li 0.38082 0.29685 0.43274 0.0
Li178 Li 0.39678 0.26221 0.40729 0.0
Li179 Li 0.40429 0.24567 0.43969 0.0
C180 C 0.35379 0.27472 0.39889 0.0
N181 N 0.3226 0.27321 0.37528 0.0
C182 C 0.33602 0.29119 0.40376 0.0
C183 C 0.3557 0.25787 0.38189 0.0
C184 C 0.32043 0.29003 0.39167 0.0
C185 C 0.33976 0.25728 0.37018 0.0
C186 C 0.3631 0.25984 0.46184 0.0
C187 C 0.35017 0.26617 0.49197 0.0
N188 N 0.33208 0.27147 0.48493 0.0
C189 C 0.34439 0.26519 0.45492 0.0
C190 C 0.36604 0.26021 0.48051 0.0
C191 C 0.32889 0.27109 0.4668 0.0
C192 C 0.35573 0.17097 0.44294 0.0
N193 N 0.35334 0.19425 0.4285 0.0
C194 C 0.32528 0.15983 0.41906 0.0
C195 C 0.33849 0.18928 0.4166 0.0
C196 C 0.32757 0.13518 0.43376 0.0
C197 C 0.34301 0.14093 0.44579 0.0
H198 H 0.36773 0.17556 0.45214 0.0
H199 H 0.33696 0.20758 0.40509 0.0
C200 C 0.36083 0.36314 0.42482 0.0
N201 N 0.3685 0.34385 0.43901 0.0
C202 C 0.34683 0.39115 0.42766 0.0
C203 C 0.35031 0.38184 0.4598 0.0
C204 C 0.36418 0.35368 0.45631 0.0
C205 C 0.3408 0.39998 0.44533 0.0
H206 H 0.36447 0.35476 0.41119 0.0
H207 H 0.37058 0.33822 0.46741 0.0
C208 C 0.39452 0.17525 0.41532 0.0
N209 N 0.38496 0.10061 0.40866 0.0
C210 C 0.40051 0.14684 0.42722 0.0
C211 C 0.3839 0.16558 0.3999 0.0
C212 C 0.39549 0.1093 0.42364 0.0
C213 C 0.37913 0.12773 0.39681 0.0
C214 C 0.41935 0.31932 0.43781 0.0
C215 C 0.43271 0.34519 0.43076 0.0
C216 C 0.41592 0.31834 0.45642 0.0
C217 C 0.44244 0.36973 0.44248 0.0
C218 C 0.42593 0.34335 0.46768 0.0
N219 N 0.43887 0.36831 0.46054 0.0
C220 C 0.40342 0.29538 0.37277 0.0
C221 C 0.41438 0.23221 0.37631 0.0
C222 C 0.40771 0.29428 0.3543 0.0
N223 N 0.40646 0.26432 0.38324 0.0
C224 C 0.41859 0.22968 0.35793 0.0
C225 C 0.41488 0.26071 0.34663 0.0
H226 H 0.39687 0.32037 0.37862 0.0
H227 H 0.41673 0.20799 0.38493 0.0
C228 C 0.41521 0.20043 0.46852 0.0
N229 N 0.42289 0.22222 0.45518 0.0
C230 C 0.42664 0.17328 0.47717 0.0
C231 C 0.45415 0.19356 0.45927 0.0
C232 C 0.44206 0.22003 0.45071 0.0
C233 C 0.4462 0.16881 0.47216 0.0
H234 H 0.3998 0.20194 0.47139 0.0
H235 H 0.44764 0.23692 0.43969 0.0
O236 O 0.36935 0.27608 0.41046 0.0
O237 O 0.37856 0.2546 0.45046 0.0
O238 O 0.39881 0.21235 0.41887 0.0
O239 O 0.40968 0.29529 0.42645 0.0
H240 H 0.33422 0.30485 0.41671 0.0
H241 H 0.36929 0.24524 0.37774 0.0
H242 H 0.30661 0.30259 0.3953 0.0
H243 H 0.34105 0.24418 0.35703 0.0
H244 H 0.35224 0.26667 0.50645 0.0
H245 H 0.34187 0.26474 0.44055 0.0
H246 H 0.38046 0.25625 0.48608 0.0
H247 H 0.31434 0.27536 0.46161 0.0
H248 H 0.31364 0.15589 0.40937 0.0
H249 H 0.34515 0.12255 0.45733 0.0
H250 H 0.33992 0.40379 0.41599 0.0
H251 H 0.34656 0.38823 0.47366 0.0
H252 H 0.40889 0.15362 0.43912 0.0
H253 H 0.37914 0.18711 0.39054 0.0
H254 H 0.39994 0.08709 0.4328 0.0
H255 H 0.37075 0.11994 0.38501 0.0
H256 H 0.43551 0.34631 0.41638 0.0
H257 H 0.40567 0.29854 0.46216 0.0
H258 H 0.45282 0.38991 0.43721 0.0
H259 H 0.42341 0.34291 0.4821 0.0
H260 H 0.40455 0.31867 0.34595 0.0
H261 H 0.42427 0.20345 0.3525 0.0
H262 H 0.42002 0.15471 0.48705 0.0
H263 H 0.46914 0.19066 0.45496 0.0
Li264 Li 0.11875 0.7059 0.43267 0.0
Li265 Li 0.12866 0.77051 0.42172 0.0
Li266 Li 0.09759 0.76105 0.43396 0.0
Li267 Li 0.10347 0.73552 0.40441 0.0
C268 C 0.11827 0.76622 0.46299 0.0
N269 N 0.10738 0.79457 0.49624 0.0
C270 C 0.1226 0.80363 0.46755 0.0
C271 C 0.10853 0.74313 0.47534 0.0
C272 C 0.11692 0.81746 0.48443 0.0
C273 C 0.10313 0.75801 0.49209 0.0
C274 C 0.1498 0.71355 0.4039 0.0
C275 C 0.17413 0.70482 0.38073 0.0
N276 N 0.18758 0.69685 0.39367 0.0
C277 C 0.1639 0.70527 0.41693 0.0
C278 C 0.15497 0.71324 0.38562 0.0
C279 C 0.18289 0.69688 0.41151 0.0
C280 C 0.13387 0.63353 0.42829 0.0
N281 N 0.13085 0.6605 0.44107 0.0
C282 C 0.15539 0.63322 0.45996 0.0
C283 C 0.14077 0.66013 0.45698 0.0
C284 C 0.15999 0.60706 0.4463 0.0
C285 C 0.14847 0.60645 0.43063 0.0
H286 H 0.12621 0.63525 0.41554 0.0
H287 H 0.13865 0.68274 0.46661 0.0
C288 C 0.15186 0.8362 0.41267 0.0
N289 N 0.15067 0.80321 0.42205 0.0
C290 C 0.16786 0.85994 0.41491 0.0
C291 C 0.181 0.81589 0.43667 0.0
C292 C 0.16475 0.793 0.434 0.0
C293 C 0.1826 0.85 0.42714 0.0
H294 H 0.14027 0.84498 0.40386 0.0
H295 H 0.16305 0.76762 0.44195 0.0
C296 C 0.07257 0.70322 0.43175 0.0
N297 N 0.03549 0.69234 0.44512 0.0
C298 C 0.05673 0.72128 0.42364 0.0
C299 C 0.06959 0.67943 0.44655 0.0
C300 C 0.03809 0.71552 0.43065 0.0
C301 C 0.05071 0.6743 0.45313 0.0
C302 C 0.10617 0.81127 0.39657 0.0
C303 C 0.09508 0.84406 0.39422 0.0
C304 C 0.11911 0.80009 0.383 0.0
C305 C 0.0973 0.86533 0.37845 0.0
C306 C 0.12088 0.82204 0.3674 0.0
N307 N 0.11004 0.85396 0.36547 0.0
C308 C 0.08254 0.82907 0.44433 0.0
C309 C 0.06539 0.78077 0.45968 0.0
C310 C 0.07098 0.85681 0.45225 0.0
N311 N 0.07938 0.79179 0.44773 0.0
C312 C 0.05345 0.80786 0.46807 0.0
C313 C 0.05599 0.84647 0.4641 0.0
H314 H 0.0943 0.83746 0.43554 0.0
H315 H 0.06349 0.7512 0.46279 0.0
C316 C 0.1031 0.69936 0.37029 0.0
N317 N 0.09405 0.72571 0.38066 0.0
C318 C 0.09921 0.69728 0.35179 0.0
C319 C 0.0759 0.74798 0.35527 0.0
C320 C 0.08013 0.74884 0.37371 0.0
C321 C 0.08592 0.72272 0.34392 0.0
H322 H 0.114 0.68111 0.37623 0.0
H323 H 0.07317 0.76959 0.38228 0.0
O324 O 0.12316 0.75253 0.44634 0.0
O325 O 0.13098 0.72107 0.40894 0.0
O326 O 0.09087 0.70808 0.42495 0.0
O327 O 0.10351 0.78933 0.41162 0.0
H328 H 0.13004 0.82189 0.45806 0.0
H329 H 0.10494 0.7142 0.47192 0.0
H330 H 0.12005 0.84643 0.48811 0.0
H331 H 0.09547 0.74056 0.50175 0.0
H332 H 0.1783 0.70452 0.36665 0.0
H333 H 0.16028 0.70537 0.43111 0.0
H334 H 0.14433 0.71929 0.37526 0.0
H335 H 0.19389 0.69037 0.42149 0.0
H336 H 0.16408 0.63491 0.47214 0.0
H337 H 0.15148 0.58664 0.41982 0.0
H338 H 0.16855 0.88606 0.40729 0.0
H339 H 0.19182 0.80762 0.44654 0.0
H340 H 0.05885 0.7397 0.41213 0.0
H341 H 0.08174 0.66512 0.45289 0.0
H342 H 0.02568 0.72945 0.42459 0.0
H343 H 0.04816 0.65604 0.4646 0.0
H344 H 0.08471 0.85285 0.40439 0.0
H345 H 0.1277 0.77481 0.38449 0.0
H346 H 0.08881 0.89077 0.37648 0.0
H347 H 0.13085 0.81366 0.35683 0.0
H348 H 0.07392 0.88624 0.44924 0.0
H349 H 0.04218 0.79869 0.4773 0.0
H350 H 0.10697 0.67677 0.34367 0.0
H351 H 0.06569 0.76839 0.34987 0.0
Li352 Li 0.59354 0.75089 0.94223 0.0
Li353 Li 0.62288 0.72883 0.92921 0.0
Li354 Li 0.62039 0.79464 0.93597 0.0
Li355 Li 0.60139 0.76593 0.91067 0.0
C356 C 0.61892 0.76625 0.97038 0.0
N357 N 0.61699 0.79569 0.00491 0.0
C358 C 0.63023 0.75071 0.98421 0.0
C359 C 0.60667 0.79687 0.9741 0.0
C360 C 0.62903 0.76596 0.00158 0.0
C361 C 0.60589 0.81131 0.99165 0.0
C362 C 0.59085 0.68034 0.92667 0.0
C363 C 0.57065 0.62513 0.92277 0.0
N364 N 0.57814 0.61016 0.93819 0.0
C365 C 0.5984 0.6643 0.94247 0.0
C366 C 0.5769 0.66053 0.91672 0.0
C367 C 0.59178 0.62883 0.94806 0.0
C368 C 0.55515 0.728 0.94818 0.0
N369 N 0.57242 0.73273 0.95685 0.0
C370 C 0.5624 0.69061 0.98036 0.0
C371 C 0.576 0.71556 0.97296 0.0
C372 C 0.54507 0.68284 0.97099 0.0
C373 C 0.54119 0.70308 0.95505 0.0
H374 H 0.55293 0.74099 0.93511 0.0
H375 H 0.59008 0.71817 0.97927 0.0
C376 C 0.65634 0.69007 0.93998 0.0
N377 N 0.64097 0.68872 0.92848 0.0
C378 C 0.67037 0.66161 0.93964 0.0
C379 C 0.6524 0.63101 0.91562 0.0
C380 C 0.63871 0.66004 0.91645 0.0
C381 C 0.66849 0.63165 0.9273 0.0
H382 H 0.65777 0.71351 0.94927 0.0
H383 H 0.62636 0.65993 0.90739 0.0
C384 C 0.58755 0.83622 0.9229 0.0
N385 N 0.579 0.90563 0.9077 0.0
C386 C 0.60011 0.8522 0.91018 0.0
C387 C 0.57061 0.85548 0.92786 0.0
C388 C 0.59554 0.88733 0.90265 0.0
C389 C 0.56656 0.89058 0.92005 0.0
C390 C 0.64456 0.75676 0.90335 0.0
C391 C 0.66389 0.76423 0.90802 0.0
C392 C 0.64052 0.73277 0.88882 0.0
C393 C 0.67887 0.74735 0.89813 0.0
C394 C 0.65591 0.71648 0.87925 0.0
N395 N 0.67461 0.72401 0.88408 0.0
C396 C 0.65447 0.8211 0.95011 0.0
C397 C 0.63463 0.87287 0.94166 0.0
C398 C 0.67007 0.84516 0.95368 0.0
N399 N 0.63737 0.83497 0.94369 0.0
C400 C 0.65 0.89811 0.94495 0.0
C401 C 0.66825 0.88417 0.95051 0.0
H402 H 0.65627 0.79091 0.95175 0.0
H403 H 0.62086 0.88364 0.93692 0.0
C404 C 0.57569 0.75158 0.88177 0.0
N405 N 0.59184 0.77129 0.88663 0.0
C406 C 0.57014 0.74955 0.86363 0.0
C407 C 0.59733 0.78988 0.85601 0.0
C408 C 0.60249 0.79072 0.87424 0.0
C409 C 0.58124 0.76832 0.85046 0.0
H410 H 0.56756 0.73626 0.8919 0.0
H411 H 0.61556 0.80538 0.87836 0.0
O412 O 0.62015 0.7516 0.95331 0.0
O413 O 0.59645 0.71582 0.92131 0.0
O414 O 0.59137 0.8014 0.93011 0.0
O415 O 0.62965 0.77217 0.91317 0.0
H416 H 0.63983 0.72707 0.98152 0.0
H417 H 0.59785 0.80942 0.96363 0.0
H418 H 0.63768 0.75417 0.01241 0.0
H419 H 0.59647 0.83496 0.99472 0.0
H420 H 0.55978 0.60961 0.91523 0.0
H421 H 0.60902 0.67928 0.95051 0.0
H422 H 0.57082 0.67251 0.90451 0.0
H423 H 0.5974 0.61625 0.96032 0.0
H424 H 0.5662 0.67522 0.9925 0.0
H425 H 0.52796 0.6982 0.94745 0.0
H426 H 0.68273 0.66341 0.94868 0.0
H427 H 0.65034 0.60823 0.90603 0.0
H428 H 0.61341 0.83799 0.90639 0.0
H429 H 0.56067 0.84334 0.93762 0.0
H430 H 0.60519 0.90009 0.89285 0.0
H431 H 0.5535 0.9058 0.92377 0.0
H432 H 0.66732 0.78271 0.91919 0.0
H433 H 0.62566 0.72614 0.88519 0.0
H434 H 0.6939 0.75277 0.90165 0.0
H435 H 0.65299 0.69765 0.86806 0.0
H436 H 0.68361 0.83309 0.95846 0.0
H437 H 0.64783 0.92795 0.94237 0.0
H438 H 0.55757 0.73281 0.85988 0.0
H439 H 0.60644 0.80428 0.84626 0.0
Li440 Li 0.90584 0.2634 0.93521 0.0
Li441 Li 0.87483 0.27391 0.92039 0.0
Li442 Li 0.88217 0.21292 0.93097 0.0
Li443 Li 0.89893 0.23655 0.90376 0.0
C444 C 0.87683 0.28882 0.9575 0.0
N445 N 0.87201 0.34931 0.98075 0.0
C446 C 0.88115 0.32554 0.95178 0.0
C447 C 0.86996 0.28294 0.97504 0.0
C448 C 0.87865 0.35572 0.96372 0.0
C449 C 0.86764 0.31386 0.98659 0.0
C450 C 0.90182 0.32089 0.90087 0.0
C451 C 0.89833 0.34979 0.8715 0.0
N452 N 0.90481 0.38311 0.8784 0.0
C453 C 0.90853 0.35545 0.90763 0.0
C454 C 0.89672 0.31805 0.88263 0.0
C455 C 0.90988 0.38657 0.89608 0.0
C456 C 0.93915 0.30762 0.93889 0.0
N457 N 0.92553 0.28915 0.94885 0.0
C458 C 0.93614 0.32085 0.97565 0.0
C459 C 0.9243 0.29416 0.96703 0.0
C460 C 0.94946 0.34229 0.96547 0.0
C461 C 0.9513 0.33442 0.94694 0.0
H462 H 0.93976 0.30324 0.92445 0.0
H463 H 0.91346 0.27895 0.97471 0.0
C464 C 0.83878 0.30158 0.93053 0.0
N465 N 0.85328 0.30793 0.9184 0.0
C466 C 0.82252 0.32505 0.93105 0.0
C467 C 0.83607 0.36082 0.90625 0.0
C468 C 0.85209 0.33658 0.90621 0.0
C469 C 0.82113 0.3554 0.91892 0.0
H470 H 0.8399 0.27821 0.93989 0.0
H471 H 0.86351 0.34106 0.89654 0.0
C472 C 0.9141 0.17566 0.93166 0.0
N473 N 0.91847 0.10284 0.94447 0.0
C474 C 0.91487 0.14532 0.9196 0.0
C475 C 0.91562 0.16909 0.95022 0.0
C476 C 0.91708 0.10867 0.92635 0.0
C477 C 0.9178 0.13202 0.95643 0.0
C478 C 0.85306 0.2295 0.90019 0.0
C479 C 0.83675 0.2189 0.91029 0.0
C480 C 0.85057 0.24479 0.88294 0.0
C481 C 0.81819 0.2241 0.903 0.0
C482 C 0.83176 0.24958 0.87614 0.0
N483 N 0.8161 0.23925 0.88623 0.0
C484 C 0.86044 0.17047 0.9566 0.0
C485 C 0.86487 0.14113 0.92813 0.0
C486 C 0.84623 0.14388 0.96128 0.0
N487 N 0.86902 0.16919 0.94008 0.0
C488 C 0.85083 0.1139 0.93227 0.0
C489 C 0.84078 0.11583 0.9488 0.0
H490 H 0.86369 0.19352 0.96568 0.0
H491 H 0.87142 0.14153 0.91484 0.0
C492 C 0.9254 0.24505 0.87488 0.0
N493 N 0.90934 0.22599 0.88055 0.0
C494 C 0.93101 0.24356 0.85675 0.0
C495 C 0.90433 0.20061 0.85102 0.0
C496 C 0.8991 0.20329 0.8692 0.0
C497 C 0.92012 0.22184 0.8445 0.0
H498 H 0.93316 0.26311 0.88421 0.0
H499 H 0.88629 0.18873 0.87409 0.0
O500 O 0.87929 0.25865 0.94609 0.0
O501 O 0.90086 0.28981 0.9119 0.0
O502 O 0.91143 0.21158 0.92537 0.0
O503 O 0.87135 0.22529 0.90722 0.0
H504 H 0.88632 0.33074 0.93828 0.0
H505 H 0.86654 0.25476 0.97974 0.0
H506 H 0.88198 0.38425 0.95944 0.0
H507 H 0.86238 0.30967 1.00022 0.0
H508 H 0.89435 0.34794 0.85739 0.0
H509 H 0.91268 0.35833 0.92165 0.0
H510 H 0.89127 0.29184 0.87714 0.0
H511 H 0.91501 0.41346 0.90116 0.0
H512 H 0.93446 0.32548 0.99003 0.0
H513 H 0.9612 0.35037 0.93849 0.0
H514 H 0.81116 0.31946 0.94082 0.0
H515 H 0.83562 0.38406 0.89673 0.0
H516 H 0.9136 0.15004 0.9052 0.0
H517 H 0.91493 0.19237 0.9597 0.0
H518 H 0.91762 0.08486 0.91719 0.0
H519 H 0.91891 0.12644 0.97075 0.0
H520 H 0.83837 0.20732 0.92372 0.0
H521 H 0.86301 0.25299 0.8749 0.0
H522 H 0.80544 0.21624 0.91071 0.0
H523 H 0.82962 0.26154 0.86284 0.0
H524 H 0.83902 0.14622 0.97424 0.0
H525 H 0.84694 0.0932 0.92212 0.0
H526 H 0.94335 0.26011 0.85226 0.0
H527 H 0.89545 0.18384 0.84197 0.0
Li528 Li 0.60111 0.73597 0.59835 0.0
Li529 Li 0.6171 0.7108 0.57096 0.0
Li530 Li 0.62437 0.77259 0.58033 0.0
Li531 Li 0.59288 0.76078 0.56678 0.0
C532 C 0.64698 0.7305 0.60077 0.0
N533 N 0.68414 0.7432 0.6137 0.0
C534 C 0.66317 0.71976 0.59053 0.0
C535 C 0.64969 0.74737 0.61765 0.0
C536 C 0.68183 0.7265 0.59729 0.0
C537 C 0.66859 0.75364 0.62393 0.0
C538 C 0.58518 0.67305 0.57186 0.0
C539 C 0.58119 0.62752 0.54793 0.0
N540 N 0.58038 0.59935 0.56042 0.0
C541 C 0.58425 0.64374 0.58448 0.0
C542 C 0.58358 0.66501 0.55345 0.0
C543 C 0.58183 0.60662 0.57842 0.0
C544 C 0.57531 0.74547 0.62762 0.0
N545 N 0.59142 0.72657 0.62193 0.0
C546 C 0.59709 0.70279 0.65166 0.0
C547 C 0.60204 0.70475 0.63339 0.0
C548 C 0.58121 0.72383 0.65816 0.0
C549 C 0.56998 0.7447 0.64582 0.0
H550 H 0.56724 0.76282 0.61819 0.0
H551 H 0.61487 0.69029 0.62848 0.0
C552 C 0.63988 0.66817 0.54618 0.0
N553 N 0.63049 0.6668 0.56232 0.0
C554 C 0.65434 0.64162 0.54206 0.0
C555 C 0.64841 0.61154 0.57082 0.0
C556 C 0.63417 0.63878 0.57443 0.0
C557 C 0.65921 0.61349 0.55471 0.0
H558 H 0.63711 0.69133 0.53702 0.0
H559 H 0.62708 0.63921 0.58747 0.0
C560 C 0.59825 0.82066 0.60005 0.0
N561 N 0.59641 0.88476 0.62142 0.0
C562 C 0.59199 0.85509 0.59273 0.0
C563 C 0.6035 0.81897 0.61829 0.0
C564 C 0.59121 0.88714 0.60374 0.0
C565 C 0.60247 0.85163 0.62885 0.0
C566 C 0.62063 0.78462 0.54291 0.0
C567 C 0.61693 0.82189 0.54818 0.0
C568 C 0.62593 0.77704 0.52505 0.0
C569 C 0.61852 0.85095 0.53549 0.0
C570 C 0.62738 0.80687 0.51275 0.0
N571 N 0.62366 0.8429 0.51818 0.0
C572 C 0.65992 0.8003 0.56861 0.0
C573 C 0.6472 0.83642 0.59285 0.0
C574 C 0.67602 0.82406 0.56734 0.0
N575 N 0.6458 0.80704 0.58108 0.0
C576 C 0.66298 0.86108 0.59198 0.0
C577 C 0.67753 0.85516 0.579 0.0
H578 H 0.65858 0.77648 0.55954 0.0
H579 H 0.63618 0.84102 0.6029 0.0
C580 C 0.56024 0.80641 0.56442 0.0
N581 N 0.57255 0.7862 0.55376 0.0
C582 C 0.54837 0.83436 0.55698 0.0
C583 C 0.56037 0.8175 0.52738 0.0
C584 C 0.57233 0.79015 0.53546 0.0
C585 C 0.54882 0.84098 0.53831 0.0
H586 H 0.56065 0.80265 0.57891 0.0
H587 H 0.58227 0.77384 0.52725 0.0
O588 O 0.6286 0.725 0.59419 0.0
O589 O 0.58801 0.70941 0.57748 0.0
O590 O 0.59867 0.78868 0.58956 0.0
O591 O 0.61894 0.75553 0.55504 0.0
H592 H 0.66137 0.7069 0.57739 0.0
H593 H 0.63736 0.75568 0.62579 0.0
H594 H 0.69448 0.7186 0.58945 0.0
H595 H 0.6709 0.76684 0.63693 0.0
H596 H 0.58002 0.6208 0.53372 0.0
H597 H 0.58556 0.6496 0.59878 0.0
H598 H 0.58437 0.68749 0.54354 0.0
H599 H 0.58117 0.58359 0.58801 0.0
H600 H 0.60622 0.68665 0.66077 0.0
H601 H 0.55756 0.76107 0.6503 0.0
H602 H 0.66217 0.64403 0.52942 0.0
H603 H 0.65184 0.5908 0.5811 0.0
H604 H 0.58775 0.85719 0.57871 0.0
H605 H 0.60863 0.79294 0.6242 0.0
H606 H 0.58642 0.9139 0.59822 0.0
H607 H 0.60657 0.85066 0.64295 0.0
H608 H 0.61293 0.82834 0.5619 0.0
H609 H 0.62877 0.74838 0.52067 0.0
H610 H 0.61567 0.87989 0.53942 0.0
H611 H 0.63141 0.80137 0.49887 0.0
H612 H 0.68693 0.81866 0.5571 0.0
H613 H 0.66383 0.88446 0.6014 0.0
H614 H 0.5395 0.85171 0.5658 0.0
H615 H 0.56109 0.82189 0.51292 0.0
Li616 Li 0.88005 0.29108 0.56628 0.0
Li617 Li 0.89826 0.26122 0.59182 0.0
Li618 Li 0.90649 0.24558 0.56034 0.0
Li619 Li 0.87654 0.22555 0.5729 0.0
C620 C 0.91342 0.33075 0.57962 0.0
N621 N 0.92292 0.3998 0.59469 0.0
C622 C 0.90127 0.34716 0.59256 0.0
C623 C 0.93043 0.34938 0.57437 0.0
C624 C 0.90632 0.38209 0.60002 0.0
C625 C 0.93496 0.38432 0.58212 0.0
C626 C 0.85477 0.25428 0.5983 0.0
C627 C 0.8422 0.21406 0.62189 0.0
N628 N 0.82375 0.22274 0.61667 0.0
C629 C 0.83569 0.26292 0.59322 0.0
C630 C 0.85808 0.22973 0.61278 0.0
C631 C 0.82021 0.24663 0.60265 0.0
C632 C 0.84664 0.31867 0.55116 0.0
N633 N 0.86341 0.33206 0.5585 0.0
C634 C 0.85035 0.39497 0.55865 0.0
C635 C 0.86578 0.36971 0.5617 0.0
C636 C 0.8324 0.38135 0.55217 0.0
C637 C 0.83099 0.34279 0.54779 0.0
H638 H 0.84503 0.28867 0.54877 0.0
H639 H 0.87923 0.38013 0.5673 0.0
C640 C 0.92372 0.24589 0.62077 0.0
N641 N 0.90764 0.26586 0.61595 0.0
C642 C 0.9293 0.24369 0.6389 0.0
C643 C 0.90221 0.28424 0.64661 0.0
C644 C 0.89702 0.28525 0.62839 0.0
C645 C 0.91828 0.26256 0.6521 0.0
H646 H 0.93181 0.23057 0.6106 0.0
H647 H 0.884 0.30014 0.6243 0.0
C648 C 0.8819 0.26264 0.53182 0.0
N649 N 0.88501 0.29179 0.49732 0.0
C650 C 0.87099 0.24713 0.51772 0.0
C651 C 0.89434 0.2931 0.52839 0.0
C652 C 0.87278 0.26223 0.50037 0.0
C653 C 0.89571 0.3074 0.51085 0.0
C654 C 0.90755 0.17495 0.57616 0.0
C655 C 0.90049 0.15958 0.56003 0.0
C656 C 0.92038 0.15388 0.5868 0.0
C657 C 0.90651 0.12348 0.55477 0.0
C658 C 0.92605 0.11787 0.58108 0.0
N659 N 0.91907 0.10356 0.5653 0.0
C660 C 0.9442 0.21758 0.5554 0.0
C661 C 0.92426 0.21011 0.52955 0.0
C662 C 0.95752 0.19116 0.54868 0.0
N663 N 0.92761 0.22551 0.54611 0.0
C664 C 0.93729 0.18386 0.52225 0.0
C665 C 0.95378 0.17287 0.53218 0.0
H666 H 0.94622 0.22919 0.56879 0.0
H667 H 0.9107 0.21526 0.52267 0.0
C668 C 0.84289 0.18937 0.56109 0.0
N669 N 0.85786 0.18652 0.57298 0.0
C670 C 0.82866 0.16137 0.56047 0.0
C671 C 0.84563 0.12809 0.58431 0.0
C672 C 0.85948 0.15685 0.58454 0.0
C673 C 0.83 0.1302 0.57214 0.0
H674 H 0.84204 0.21346 0.55213 0.0
H675 H 0.87147 0.15564 0.59398 0.0
O676 O 0.90914 0.29606 0.57249 0.0
O677 O 0.87015 0.26911 0.58894 0.0
O678 O 0.88009 0.24813 0.54887 0.0
O679 O 0.90252 0.21091 0.58126 0.0
H680 H 0.88792 0.33343 0.59659 0.0
H681 H 0.94005 0.3369 0.56444 0.0
H682 H 0.897 0.39519 0.61 0.0
H683 H 0.94808 0.39907 0.57817 0.0
H684 H 0.84455 0.19482 0.63304 0.0
H685 H 0.83283 0.28184 0.58207 0.0
H686 H 0.87274 0.22225 0.61673 0.0
H687 H 0.80536 0.25296 0.59882 0.0
H688 H 0.85217 0.42445 0.56221 0.0
H689 H 0.81769 0.33101 0.54233 0.0
H690 H 0.94185 0.22684 0.64259 0.0
H691 H 0.89317 0.29872 0.6564 0.0
H692 H 0.86126 0.22362 0.52018 0.0
H693 H 0.90285 0.30565 0.53908 0.0
H694 H 0.86445 0.25045 0.48932 0.0
H695 H 0.90529 0.33092 0.508 0.0
H696 H 0.89069 0.17551 0.5515 0.0
H697 H 0.92603 0.16533 0.5993 0.0
H698 H 0.90127 0.1114 0.54226 0.0
H699 H 0.93605 0.10134 0.58914 0.0
H700 H 0.97012 0.18375 0.55673 0.0
H701 H 0.93363 0.1701 0.50963 0.0
H702 H 0.81688 0.16382 0.55081 0.0
H703 H 0.84699 0.10473 0.59369 0.0
H704 H 0.33857 0.03602 0.06162 0.0
H705 H 0.3086 0.99872 0.05934 0.0
H706 H 0.28015 0.09177 0.0325 0.0
H707 H 0.31002 0.12923 0.03479 0.0
H708 H 0.25829 0.06204 0.06082 0.0
H709 H 0.29229 0.01671 0.0085 0.0
H710 H 0.32008 0.98971 0.99182 0.0
H711 H 0.31744 0.88942 0.02442 0.0
H712 H 0.28979 0.91605 0.04147 0.0
H713 H 0.17174 0.95835 0.04024 0.0
H714 H 0.20101 0.99792 0.03833 0.0
H715 H 0.23593 0.90431 0.05706 0.0
H716 H 0.20693 0.86469 0.05852 0.0
H717 H 0.25415 0.93674 0.03098 0.0
H718 H 0.22235 0.98176 0.08465 0.0
H719 H 0.19532 0.00793 0.10267 0.0
H720 H 0.19462 0.10739 0.0694 0.0
H721 H 0.2215 0.08156 0.05103 0.0
C722 C 0.32597 0.04839 0.0551 0.0
C723 C 0.32671 0.08549 0.04829 0.0
C724 C 0.30888 0.02702 0.05375 0.0
C725 C 0.29214 0.04242 0.04569 0.0
C726 C 0.29289 0.07931 0.03874 0.0
C727 C 0.31003 0.10053 0.03991 0.0
C728 C 0.27368 0.02047 0.04508 0.0
C729 C 0.25727 0.03489 0.05405 0.0
C730 C 0.27249 0.98467 0.03664 0.0
C731 C 0.28908 0.96854 0.02637 0.0
C732 C 0.29773 0.98903 0.01221 0.0
C733 C 0.31344 0.97377 0.00267 0.0
C734 C 0.32055 0.93791 0.00709 0.0
C735 C 0.31193 0.91721 0.02103 0.0
C736 C 0.29623 0.93236 0.03062 0.0
C737 C 0.18568 0.94635 0.04398 0.0
C738 C 0.18704 0.90836 0.04942 0.0
C739 C 0.20241 0.96898 0.04294 0.0
C740 C 0.22076 0.95428 0.0477 0.0
C741 C 0.22204 0.91636 0.05319 0.0
C742 C 0.20542 0.89369 0.05401 0.0
C743 C 0.23871 0.978 0.04694 0.0
C744 C 0.25507 0.96395 0.03769 0.0
C745 C 0.23992 0.01396 0.05532 0.0
C746 C 0.22378 0.02954 0.06635 0.0
C747 C 0.21633 0.00908 0.08109 0.0
C748 C 0.20105 0.02387 0.09138 0.0
C749 C 0.19322 0.05925 0.08715 0.0
C750 C 0.20068 0.07996 0.07264 0.0
C751 C 0.21594 0.06527 0.0623 0.0
H752 H 0.1814 0.07066 0.09513 0.0
H753 H 0.33271 0.92614 0.99968 0.0
H754 H 0.1733 0.56403 0.47468 0.0
H755 H 0.20389 0.52836 0.47641 0.0
H756 H 0.21848 0.56433 0.42237 0.0
H757 H 0.18778 0.5988 0.42044 0.0
H758 H 0.22792 0.49485 0.42536 0.0
H759 H 0.23891 0.60439 0.46229 0.0
H760 H 0.23234 0.64941 0.48699 0.0
H761 H 0.23855 0.56019 0.5259 0.0
H762 H 0.2449 0.51451 0.5014 0.0
H763 H 0.32962 0.46285 0.4259 0.0
H764 H 0.29894 0.49746 0.42807 0.0
H765 H 0.28228 0.43014 0.47402 0.0
H766 H 0.31248 0.39398 0.47149 0.0
H767 H 0.2738 0.51259 0.47642 0.0
H768 H 0.26409 0.40396 0.43797 0.0
H769 H 0.27249 0.36205 0.41251 0.0
H770 H 0.26539 0.45441 0.37544 0.0
H771 H 0.25729 0.49706 0.40074 0.0
C772 C 0.18303 0.56409 0.46317 0.0
C773 C 0.17806 0.58394 0.44738 0.0
C774 C 0.20058 0.5439 0.46419 0.0
C775 C 0.21373 0.54395 0.4496 0.0
C776 C 0.20863 0.56358 0.43379 0.0
C777 C 0.19102 0.58323 0.43268 0.0
C778 C 0.2328 0.5237 0.45063 0.0
C779 C 0.23797 0.49917 0.43647 0.0
C780 C 0.24594 0.52856 0.46524 0.0
C781 C 0.24217 0.55596 0.48 0.0
C782 C 0.23873 0.59432 0.4761 0.0
C783 C 0.23506 0.61996 0.49007 0.0
C784 C 0.23497 0.60765 0.508 0.0
C785 C 0.23859 0.56967 0.512 0.0
C786 C 0.24224 0.5439 0.49808 0.0
C787 C 0.31949 0.45524 0.43649 0.0
C788 C 0.32358 0.42513 0.44837 0.0
C789 C 0.302 0.47532 0.43778 0.0
C790 C 0.28828 0.46616 0.45112 0.0
C791 C 0.29271 0.43772 0.46366 0.0
C792 C 0.31009 0.41721 0.46223 0.0
C793 C 0.26881 0.48446 0.4511 0.0
C794 C 0.26362 0.5084 0.46541 0.0
C795 C 0.25575 0.47954 0.43653 0.0
C796 C 0.26027 0.45378 0.42127 0.0
C797 C 0.26447 0.41541 0.4244 0.0
C798 C 0.26916 0.39151 0.41001 0.0
C799 C 0.26952 0.40558 0.39238 0.0
C800 C 0.26513 0.44356 0.38911 0.0
C801 C 0.26048 0.46761 0.40347 0.0
H802 H 0.27316 0.38703 0.38125 0.0
H803 H 0.23213 0.62755 0.51879 0.0
H804 H 0.7058 0.86844 0.94075 0.0
H805 H 0.73437 0.90877 0.94327 0.0
H806 H 0.69898 0.99812 0.96547 0.0
H807 H 0.67014 0.95746 0.9633 0.0
H808 H 0.7241 0.02428 0.93958 0.0
H809 H 0.72863 0.9488 0.9928 0.0
H810 H 0.72888 0.88999 0.01067 0.0
H811 H 0.77897 0.85096 0.98141 0.0
H812 H 0.77885 0.90933 0.96316 0.0
H813 H 0.80577 0.13609 0.96354 0.0
H814 H 0.77639 0.09766 0.96638 0.0
H815 H 0.80679 0.00213 0.94367 0.0
H816 H 0.83645 0.04024 0.94116 0.0
H817 H 0.78336 0.9813 0.97197 0.0
H818 H 0.77753 0.05507 0.91765 0.0
H819 H 0.77743 0.11397 0.89983 0.0
H820 H 0.72967 0.15623 0.93134 0.0
H821 H 0.72969 0.09778 0.94955 0.0
C822 C 0.70404 0.89641 0.94648 0.0
C823 C 0.68561 0.9094 0.95206 0.0
C824 C 0.72044 0.91955 0.94783 0.0
C825 C 0.71891 0.95631 0.9548 0.0
C826 C 0.70053 0.96978 0.9601 0.0
C827 C 0.68404 0.94653 0.9588 0.0
C828 C 0.73655 0.9806 0.95623 0.0
C829 C 0.73692 0.0152 0.94694 0.0
C830 C 0.75346 0.96844 0.96552 0.0
C831 C 0.75363 0.93332 0.9765 0.0
C832 C 0.73961 0.92755 0.99007 0.0
C833 C 0.73974 0.89431 1.00029 0.0
C834 C 0.7539 0.86672 0.99715 0.0
C835 C 0.76799 0.87235 0.98382 0.0
C836 C 0.76791 0.90552 0.97354 0.0
C837 C 0.80637 0.10669 0.95949 0.0
C838 C 0.82351 0.09127 0.95211 0.0
C839 C 0.78947 0.08485 0.96096 0.0
C840 C 0.78929 0.04715 0.95501 0.0
C841 C 0.80656 0.03121 0.94827 0.0
C842 C 0.82347 0.05308 0.94675 0.0
C843 C 0.77094 0.02476 0.95519 0.0
C844 C 0.77046 0.9905 0.96475 0.0
C845 C 0.75393 0.03724 0.94615 0.0
C846 C 0.75375 0.07222 0.93509 0.0
C847 C 0.7671 0.07704 0.92087 0.0
C848 C 0.76705 0.11033 0.91069 0.0
C849 C 0.75359 0.13887 0.91448 0.0
C850 C 0.74011 0.13413 0.92844 0.0
C851 C 0.74013 0.10092 0.93869 0.0
H852 H 0.75357 0.16463 0.90659 0.0
H853 H 0.75398 0.84101 0.00508 0.0
H854 H 0.695 0.63354 0.54161 0.0
H855 H 0.72431 0.59471 0.53967 0.0
H856 H 0.69238 0.49887 0.56016 0.0
H857 H 0.66298 0.53777 0.56227 0.0
H858 H 0.72571 0.50536 0.57738 0.0
H859 H 0.70691 0.50634 0.51491 0.0
H860 H 0.69763 0.53537 0.48588 0.0
H861 H 0.75233 0.59388 0.48382 0.0
H862 H 0.76183 0.56559 0.51298 0.0
H863 H 0.7948 0.36307 0.56068 0.0
H864 H 0.766 0.40302 0.55945 0.0
H865 H 0.801 0.49661 0.54108 0.0
H866 H 0.83001 0.45611 0.54157 0.0
H867 H 0.7669 0.49299 0.52266 0.0
H868 H 0.7858 0.49141 0.58491 0.0
H869 H 0.79515 0.46214 0.61386 0.0
H870 H 0.74014 0.40481 0.61628 0.0
H871 H 0.73056 0.43333 0.5872 0.0
C872 C 0.69408 0.60399 0.54536 0.0
C873 C 0.67656 0.58874 0.55201 0.0
C874 C 0.71091 0.58179 0.54427 0.0
C875 C 0.7106 0.54366 0.54961 0.0
C876 C 0.69305 0.5282 0.55599 0.0
C877 C 0.67623 0.55047 0.55719 0.0
C878 C 0.72873 0.52039 0.54933 0.0
C879 C 0.73453 0.50223 0.56531 0.0
C880 C 0.74066 0.51718 0.53378 0.0
C881 C 0.735 0.53412 0.51622 0.0
C882 C 0.7169 0.52562 0.50834 0.0
C883 C 0.7116 0.5419 0.49185 0.0
C884 C 0.72436 0.56653 0.48303 0.0
C885 C 0.74245 0.57484 0.49067 0.0
C886 C 0.74781 0.55866 0.50717 0.0
C887 C 0.79644 0.39195 0.55608 0.0
C888 C 0.81483 0.40621 0.55113 0.0
C889 C 0.77992 0.41496 0.5556 0.0
C890 C 0.78131 0.45303 0.55042 0.0
C891 C 0.79955 0.46736 0.5452 0.0
C892 C 0.81616 0.44424 0.54563 0.0
C893 C 0.7637 0.47769 0.55064 0.0
C894 C 0.75805 0.49617 0.53469 0.0
C895 C 0.75187 0.48124 0.56623 0.0
C896 C 0.75753 0.46427 0.58379 0.0
C897 C 0.77575 0.47236 0.59155 0.0
C898 C 0.78108 0.45593 0.60799 0.0
C899 C 0.76827 0.43157 0.61689 0.0
C900 C 0.75006 0.42366 0.60937 0.0
C901 C 0.74466 0.43998 0.59292 0.0
H902 H 0.77242 0.41887 0.62961 0.0
H903 H 0.72023 0.57911 0.47027 0.0
H904 H 0.40098 0.18578 0.17785 0.0
H905 H 0.40175 0.19027 0.21058 0.0
H906 H 0.45001 0.26795 0.20741 0.0
H907 H 0.45047 0.26115 0.17463 0.0
H908 H 0.45484 0.22616 0.23545 0.0
H909 H 0.4014 0.29804 0.21288 0.0
H910 H 0.37157 0.31015 0.19528 0.0
H911 H 0.34111 0.22578 0.22593 0.0
H912 H 0.37085 0.21275 0.24354 0.0
H913 H 0.43458 0.30748 0.32349 0.0
H914 H 0.43795 0.30052 0.29056 0.0
H915 H 0.40312 0.19919 0.29235 0.0
H916 H 0.40003 0.20559 0.32517 0.0
H917 H 0.39205 0.25633 0.26531 0.0
H918 H 0.4477 0.18589 0.28759 0.0
H919 H 0.47794 0.17857 0.30517 0.0
H920 H 0.50449 0.26838 0.27491 0.0
H921 H 0.47427 0.2766 0.25732 0.0
C922 C 0.41217 0.203 0.18402 0.0
C923 C 0.42555 0.22339 0.17341 0.0
C924 C 0.41235 0.20606 0.20282 0.0
C925 C 0.42553 0.2304 0.21149 0.0
C926 C 0.43952 0.24936 0.20106 0.0
C927 C 0.43961 0.24574 0.18225 0.0
C928 C 0.42426 0.23698 0.23132 0.0
C929 C 0.44114 0.23325 0.2419 0.0
C930 C 0.4064 0.24618 0.23987 0.0
C931 C 0.38841 0.25418 0.22942 0.0
C932 C 0.38837 0.2819 0.21579 0.0
C933 C 0.37148 0.28894 0.20582 0.0
C934 C 0.35447 0.26868 0.20945 0.0
C935 C 0.35431 0.24141 0.22311 0.0
C936 C 0.37118 0.2342 0.23311 0.0
C937 C 0.42771 0.28374 0.31681 0.0
C938 C 0.41716 0.25693 0.32682 0.0
C939 C 0.42967 0.27974 0.29808 0.0
C940 C 0.42082 0.24928 0.2891 0.0
C941 C 0.41008 0.22282 0.29907 0.0
C942 C 0.40842 0.2264 0.31778 0.0
C943 C 0.42251 0.24501 0.26928 0.0
C944 C 0.40571 0.24935 0.25875 0.0
C945 C 0.44048 0.23719 0.26077 0.0
C946 C 0.45866 0.23215 0.27129 0.0
C947 C 0.45992 0.20432 0.28481 0.0
C948 C 0.47707 0.19996 0.29475 0.0
C949 C 0.49311 0.22307 0.2912 0.0
C950 C 0.49205 0.25053 0.27767 0.0
C951 C 0.47492 0.25504 0.2677 0.0
H952 H 0.50638 0.21964 0.29891 0.0
H953 H 0.34141 0.27416 0.20171 0.0
H954 H 0.1143 0.71502 0.31821 0.0
H955 H 0.11139 0.7239 0.28571 0.0
H956 H 0.05013 0.74747 0.2917 0.0
H957 H 0.05269 0.73664 0.32424 0.0
H958 H 0.05584 0.70658 0.26247 0.0
H959 H 0.08323 0.81923 0.28672 0.0
H960 H 0.10615 0.85746 0.30469 0.0
H961 H 0.15367 0.81859 0.2719 0.0
H962 H 0.13107 0.77964 0.2539 0.0
H963 H 0.08055 0.82817 0.17599 0.0
H964 H 0.07729 0.8219 0.20882 0.0
H965 H 0.08219 0.70066 0.20394 0.0
H966 H 0.08512 0.70674 0.17124 0.0
H967 H 0.10114 0.79703 0.23319 0.0
H968 H 0.05757 0.65599 0.23663 0.0
H969 H 0.03223 0.6226 0.21923 0.0
H970 H 0.01233 0.72819 0.19734 0.0
H971 H 0.03736 0.76227 0.21478 0.0
C972 C 0.10008 0.72122 0.31264 0.0
C973 C 0.08373 0.72519 0.32393 0.0
C974 C 0.09851 0.72684 0.29403 0.0
C975 C 0.08062 0.73715 0.28629 0.0
C976 C 0.06411 0.73983 0.29738 0.0
C977 C 0.06564 0.73393 0.31602 0.0
C978 C 0.07933 0.74588 0.26668 0.0
C979 C 0.06572 0.72638 0.25606 0.0
C980 C 0.09183 0.77257 0.25838 0.0
C981 C 0.10546 0.79628 0.26905 0.0
C982 C 0.09858 0.81865 0.28341 0.0
C983 C 0.11152 0.84047 0.29359 0.0
C984 C 0.13136 0.8404 0.28946 0.0
C985 C 0.1383 0.81859 0.2751 0.0
C986 C 0.12543 0.79666 0.26489 0.0
C987 C 0.08082 0.8002 0.18195 0.0
C988 C 0.08292 0.76794 0.17102 0.0
C989 C 0.07895 0.79663 0.20069 0.0
C990 C 0.07922 0.76077 0.20887 0.0
C991 C 0.08143 0.72858 0.19796 0.0
C992 C 0.08311 0.7321 0.17924 0.0
C993 C 0.07801 0.75691 0.22885 0.0
C994 C 0.09117 0.77736 0.23957 0.0
C995 C 0.06473 0.73186 0.23729 0.0
C996 C 0.04946 0.71164 0.22691 0.0
C997 C 0.04773 0.6721 0.22817 0.0
C998 C 0.03343 0.65305 0.21829 0.0
C999 C 0.02072 0.67325 0.20715 0.0
C1000 C 0.02223 0.71257 0.20592 0.0
C1001 C 0.03649 0.73176 0.21578 0.0
H1002 H 0.00967 0.65844 0.1995 0.0
H1003 H 0.14135 0.8573 0.29736 0.0
H1004 H 0.5798 0.82244 0.82406 0.0
H1005 H 0.57608 0.81262 0.79146 0.0
H1006 H 0.57031 0.69257 0.80019 0.0
H1007 H 0.57399 0.7022 0.83277 0.0
H1008 H 0.59829 0.71225 0.77405 0.0
H1009 H 0.53153 0.73969 0.78835 0.0
H1010 H 0.50473 0.77707 0.80146 0.0
H1011 H 0.5197 0.87107 0.76749 0.0
H1012 H 0.54679 0.83442 0.75436 0.0
H1013 H 0.57975 0.66624 0.68285 0.0
H1014 H 0.57613 0.67162 0.71566 0.0
H1015 H 0.57144 0.7929 0.7107 0.0
H1016 H 0.5745 0.7875 0.67792 0.0
H1017 H 0.54731 0.77004 0.73543 0.0
H1018 H 0.61478 0.74772 0.72278 0.0
H1019 H 0.64299 0.71406 0.7099 0.0
H1020 H 0.6287 0.61536 0.74096 0.0
H1021 H 0.60022 0.64829 0.75384 0.0
C1022 C 0.57755 0.79402 0.81902 0.0
C1023 C 0.57713 0.7631 0.83095 0.0
C1024 C 0.57534 0.78847 0.80043 0.0
C1025 C 0.57285 0.75187 0.79344 0.0
C1026 C 0.57215 0.72103 0.80534 0.0
C1027 C 0.57412 0.72661 0.82394 0.0
C1028 C 0.57208 0.7456 0.77366 0.0
C1029 C 0.58696 0.7243 0.76561 0.0
C1030 C 0.55764 0.76236 0.76266 0.0
C1031 C 0.54131 0.78441 0.77049 0.0
C1032 C 0.52922 0.76844 0.78379 0.0
C1033 C 0.51395 0.78948 0.7912 0.0
C1034 C 0.51054 0.82645 0.78534 0.0
C1035 C 0.52237 0.84244 0.77202 0.0
C1036 C 0.53767 0.82153 0.76458 0.0
C1037 C 0.57779 0.69398 0.68879 0.0
C1038 C 0.57744 0.72644 0.67785 0.0
C1039 C 0.57579 0.69707 0.70753 0.0
C1040 C 0.57386 0.73275 0.71572 0.0
C1041 C 0.57289 0.76507 0.70473 0.0
C1042 C 0.57462 0.76194 0.68599 0.0
C1043 C 0.57358 0.73668 0.73573 0.0
C1044 C 0.55856 0.75766 0.74384 0.0
C1045 C 0.58811 0.72016 0.7468 0.0
C1046 C 0.60525 0.70032 0.73911 0.0
C1047 C 0.61757 0.71874 0.72676 0.0
C1048 C 0.63362 0.69981 0.71947 0.0
C1049 C 0.6376 0.66256 0.72457 0.0
C1050 C 0.62557 0.64419 0.737 0.0
C1051 C 0.60948 0.66298 0.7443 0.0
H1052 H 0.65004 0.64795 0.71892 0.0
H1053 H 0.49871 0.84269 0.79109 0.0
H1054 H 0.91993 0.31692 0.67837 0.0
H1055 H 0.92411 0.30748 0.71095 0.0
H1056 H 0.92989 0.18734 0.70245 0.0
H1057 H 0.92573 0.19659 0.66989 0.0
H1058 H 0.90241 0.20703 0.72895 0.0
H1059 H 0.96881 0.23491 0.71368 0.0
H1060 H 0.99533 0.27226 0.70009 0.0
H1061 H 0.98064 0.36671 0.73391 0.0
H1062 H 0.95384 0.33009 0.74752 0.0
H1063 H 0.92209 0.16351 0.82022 0.0
H1064 H 0.92559 0.16799 0.78736 0.0
H1065 H 0.92961 0.28948 0.79151 0.0
H1066 H 0.92662 0.285 0.82432 0.0
H1067 H 0.95371 0.26618 0.7667 0.0
H1068 H 0.88644 0.24332 0.78018 0.0
H1069 H 0.85857 0.20952 0.79357 0.0
H1070 H 0.87297 0.11027 0.76293 0.0
H1071 H 0.90111 0.14335 0.74954 0.0
C1072 C 0.92227 0.28856 0.68346 0.0
C1073 C 0.92256 0.2575 0.6716 0.0
C1074 C 0.92475 0.28322 0.70203 0.0
C1075 C 0.92738 0.24672 0.70908 0.0
C1076 C 0.92793 0.21573 0.69726 0.0
C1077 C 0.92569 0.2211 0.67867 0.0
C1078 C 0.9285 0.24071 0.72887 0.0
C1079 C 0.91382 0.21937 0.7372 0.0
C1080 C 0.94305 0.25782 0.73963 0.0
C1081 C 0.9592 0.27985 0.73151 0.0
C1082 C 0.97113 0.26375 0.71811 0.0
C1083 C 0.98623 0.28477 0.71042 0.0
C1084 C 0.98964 0.32186 0.7161 0.0
C1085 C 0.97798 0.33798 0.72951 0.0
C1086 C 0.96284 0.3171 0.73723 0.0
C1087 C 0.92389 0.1911 0.81409 0.0
C1088 C 0.92404 0.2239 0.82481 0.0
C1089 C 0.92583 0.19367 0.79533 0.0
C1090 C 0.92751 0.22915 0.7869 0.0
C1091 C 0.92834 0.2618 0.79766 0.0
C1092 C 0.92667 0.2592 0.81643 0.0
C1093 C 0.92756 0.23252 0.76687 0.0
C1094 C 0.9424 0.25349 0.75848 0.0
C1095 C 0.91296 0.21558 0.75604 0.0
C1096 C 0.89601 0.19567 0.76402 0.0
C1097 C 0.88375 0.2142 0.7764 0.0
C1098 C 0.86789 0.19519 0.78398 0.0
C1099 C 0.86404 0.15774 0.77914 0.0
C1100 C 0.876 0.13926 0.76669 0.0
C1101 C 0.8919 0.15812 0.75909 0.0
H1102 H 0.85175 0.14307 0.78502 0.0
H1103 H 0.00134 0.33809 0.71013 0.0
H1104 H 0.46527 0.40144 0.05127 0.0
H1105 H 0.48068 0.45865 0.03988 0.0
H1106 H 0.47349 0.41882 0.98524 0.0
H1107 H 0.45865 0.36045 0.99661 0.0
H1108 H 0.50871 0.45206 0.98972 0.0
H1109 H 0.44252 0.48409 0.00271 0.0
H1110 H 0.41283 0.48785 0.02133 0.0
H1111 H 0.44294 0.55659 0.0601 0.0
H1112 H 0.47293 0.55277 0.04185 0.0
H1113 H 0.52789 0.62947 0.94952 0.0
H1114 H 0.51024 0.57289 0.95893 0.0
H1115 H 0.51699 0.60529 0.01473 0.0
H1116 H 0.53414 0.66275 0.00538 0.0
H1117 H 0.48101 0.57575 0.00835 0.0
H1118 H 0.54748 0.54206 0.99549 0.0
H1119 H 0.5768 0.5396 0.97632 0.0
H1120 H 0.54576 0.47434 0.93681 0.0
H1121 H 0.51611 0.47704 0.95559 0.0
C1122 C 0.46729 0.40431 0.03684 0.0
C1123 C 0.46071 0.37611 0.02488 0.0
C1124 C 0.47591 0.43739 0.03032 0.0
C1125 C 0.47796 0.44341 0.01168 0.0
C1126 C 0.47196 0.41493 0.99968 0.0
C1127 C 0.46335 0.38168 0.0062 0.0
C1128 C 0.48601 0.47978 0.00482 0.0
C1129 C 0.50247 0.47907 0.99358 0.0
C1130 C 0.47809 0.51514 0.01007 0.0
C1131 C 0.46002 0.51787 0.02098 0.0
C1132 C 0.44286 0.4998 0.01527 0.0
C1133 C 0.42597 0.50196 0.02575 0.0
C1134 C 0.42601 0.52237 0.04191 0.0
C1135 C 0.44294 0.54076 0.04759 0.0
C1136 C 0.45988 0.53863 0.03718 0.0
C1137 C 0.52521 0.62513 0.96378 0.0
C1138 C 0.53244 0.65074 0.9767 0.0
C1139 C 0.5153 0.59248 0.96915 0.0
C1140 C 0.51256 0.58449 0.98756 0.0
C1141 C 0.51901 0.61076 0.00046 0.0
C1142 C 0.52892 0.64348 0.9951 0.0
C1143 C 0.50376 0.54802 0.99338 0.0
C1144 C 0.48719 0.54872 0.00444 0.0
C1145 C 0.51155 0.51268 0.98793 0.0
C1146 C 0.52952 0.51006 0.97687 0.0
C1147 C 0.54687 0.52735 0.98267 0.0
C1148 C 0.56355 0.52593 0.97187 0.0
C1149 C 0.56313 0.5069 0.95534 0.0
C1150 C 0.54605 0.48912 0.94961 0.0
C1151 C 0.5293 0.49058 0.96032 0.0
H1152 H 0.57604 0.50588 0.94698 0.0
H1153 H 0.41292 0.524 0.05001 0.0
H1154 H 0.06125 0.62193 0.006 0.0
H1155 H 0.04373 0.56644 0.99517 0.0
H1156 H 0.99314 0.60025 0.02565 0.0
H1157 H 0.01057 0.65626 0.03647 0.0
H1158 H 0.00109 0.52632 0.03064 0.0
H1159 H 0.99408 0.60859 0.97973 0.0
H1160 H 0.00514 0.65182 0.95571 0.0
H1161 H 0.04056 0.56363 0.93312 0.0
H1162 H 0.02992 0.51999 0.95716 0.0
H1163 H 0.9359 0.39441 0.98979 0.0
H1164 H 0.95251 0.45063 0.00114 0.0
H1165 H 0.00378 0.42065 0.97071 0.0
H1166 H 0.98727 0.36416 0.95936 0.0
H1167 H 0.99478 0.49346 0.96577 0.0
H1168 H 0.00219 0.41148 0.0169 0.0
H1169 H 0.99127 0.36825 0.04098 0.0
H1170 H 0.95516 0.45584 0.06317 0.0
H1171 H 0.96567 0.49947 0.03907 0.0
C1172 C 0.04625 0.61814 0.01011 0.0
C1173 C 0.0373 0.64385 0.02202 0.0
C1174 C 0.03627 0.5862 0.00396 0.0
C1175 C 0.01704 0.57924 0.00947 0.0
C1176 C 0.00797 0.60497 0.02123 0.0
C1177 C 0.01797 0.63698 0.02741 0.0
C1178 C 0.00669 0.54451 0.00337 0.0
C1179 C 0.99943 0.51943 0.01645 0.0
C1180 C 0.00495 0.53498 0.98487 0.0
C1181 C 0.01133 0.56112 0.97035 0.0
C1182 C 0.00434 0.59849 0.96972 0.0
C1183 C 0.01051 0.62306 0.95609 0.0
C1184 C 0.02358 0.61051 0.94292 0.0
C1185 C 0.03046 0.57333 0.94334 0.0
C1186 C 0.02434 0.54865 0.95696 0.0
C1187 C 0.95085 0.39928 0.9858 0.0
C1188 C 0.96025 0.37461 0.97368 0.0
C1189 C 0.96032 0.43159 0.99226 0.0
C1190 C 0.97946 0.43986 0.98687 0.0
C1191 C 0.98899 0.41498 0.97502 0.0
C1192 C 0.97952 0.38269 0.96853 0.0
C1193 C 0.98926 0.47515 0.99304 0.0
C1194 C 0.9964 0.50036 0.97997 0.0
C1195 C 0.9909 0.48478 0.01155 0.0
C1196 C 0.98457 0.45862 0.02607 0.0
C1197 C 0.9918 0.42143 0.02683 0.0
C1198 C 0.9857 0.39687 0.0405 0.0
C1199 C 0.97249 0.40926 0.05357 0.0
C1200 C 0.96538 0.44627 0.05302 0.0
C1201 C 0.97141 0.47093 0.03937 0.0
H1202 H 0.96779 0.3902 0.06414 0.0
H1203 H 0.02834 0.62957 0.93238 0.0
H1204 H 0.55364 0.91407 0.54824 0.0
H1205 H 0.53718 0.96999 0.53635 0.0
H1206 H 0.50429 0.89941 0.49984 0.0
H1207 H 0.5217 0.84346 0.51115 0.0
H1208 H 0.5131 0.95956 0.48294 0.0
H1209 H 0.48492 0.93859 0.54085 0.0
H1210 H 0.48419 0.92766 0.57374 0.0
H1211 H 0.51181 0.03492 0.58271 0.0
H1212 H 0.51295 0.04628 0.54985 0.0
H1213 H 0.43582 0.09482 0.47084 0.0
H1214 H 0.45434 0.03984 0.48141 0.0
H1215 H 0.50044 0.1134 0.49943 0.0
H1216 H 0.48209 0.16868 0.48841 0.0
H1217 H 0.4846 0.05286 0.52548 0.0
H1218 H 0.51116 0.07152 0.4655 0.0
H1219 H 0.50852 0.08022 0.43256 0.0
H1220 H 0.47928 0.97339 0.42783 0.0
H1221 H 0.48148 0.96433 0.46081 0.0
C1222 C 0.54287 0.91057 0.53768 0.0
C1223 C 0.53874 0.87449 0.53073 0.0
C1224 C 0.53337 0.94252 0.53094 0.0
C1225 C 0.51904 0.93905 0.51749 0.0
C1226 C 0.51518 0.90297 0.51028 0.0
C1227 C 0.52506 0.87099 0.51675 0.0
C1228 C 0.5082 0.97309 0.51099 0.0
C1229 C 0.50669 0.97961 0.49231 0.0
C1230 C 0.4999 0.99976 0.52309 0.0
C1231 C 0.49918 0.99311 0.54287 0.0
C1232 C 0.49096 0.95973 0.54983 0.0
C1233 C 0.49046 0.95347 0.56847 0.0
C1234 C 0.49799 0.98053 0.5803 0.0
C1235 C 0.506 0.01396 0.57352 0.0
C1236 C 0.50656 0.02034 0.5549 0.0
C1237 C 0.44988 0.09926 0.47712 0.0
C1238 C 0.4575 0.13596 0.47893 0.0
C1239 C 0.46046 0.06787 0.48306 0.0
C1240 C 0.47873 0.07261 0.49118 0.0
C1241 C 0.48633 0.10924 0.4932 0.0
C1242 C 0.47591 0.14069 0.48689 0.0
C1243 C 0.48975 0.03912 0.49761 0.0
C1244 C 0.49114 0.03271 0.51624 0.0
C1245 C 0.4975 0.01215 0.48548 0.0
C1246 C 0.4963 0.01744 0.46565 0.0
C1247 C 0.504 0.05005 0.45746 0.0
C1248 C 0.50262 0.05502 0.43878 0.0
C1249 C 0.49369 0.02743 0.42811 0.0
C1250 C 0.48617 0.99476 0.43611 0.0
C1251 C 0.4875 0.98968 0.4548 0.0
H1252 H 0.49264 0.03132 0.41364 0.0
H1253 H 0.49759 0.97564 0.59473 0.0
H1254 H 0.96629 0.15567 0.49794 0.0
H1255 H 0.98298 0.09826 0.4879 0.0
H1256 H 0.98446 0.05746 0.54277 0.0
H1257 H 0.96778 0.11479 0.55291 0.0
H1258 H 0.01822 0.04238 0.526 0.0
H1259 H 0.95073 0.02451 0.51309 0.0
H1260 H 0.91859 0.04101 0.50054 0.0
H1261 H 0.94255 0.04118 0.44698 0.0
H1262 H 0.97492 0.02526 0.45924 0.0
H1263 H 0.04377 0.85412 0.49932 0.0
H1264 H 0.02534 0.90695 0.51246 0.0
H1265 H 0.02171 0.95943 0.45998 0.0
H1266 H 0.03965 0.90663 0.4468 0.0
H1267 H 0.98773 0.96554 0.4776 0.0
H1268 H 0.05568 0.98719 0.49111 0.0
H1269 H 0.08772 0.97072 0.50392 0.0
H1270 H 0.0624 0.96258 0.5568 0.0
H1271 H 0.03014 0.97849 0.54425 0.0
C1272 C 0.97024 0.13456 0.50788 0.0
C1273 C 0.96568 0.13989 0.52623 0.0
C1274 C 0.97975 0.10169 0.50212 0.0
C1275 C 0.98471 0.07318 0.51453 0.0
C1276 C 0.98078 0.07899 0.53294 0.0
C1277 C 0.97133 0.11193 0.53872 0.0
C1278 C 0.99355 0.037 0.50824 0.0
C1279 C 0.0114 0.0253 0.51561 0.0
C1280 C 0.98478 0.01477 0.49455 0.0
C1281 C 0.9653 0.02401 0.48711 0.0
C1282 C 0.94918 0.02832 0.49865 0.0
C1283 C 0.93092 0.03754 0.49159 0.0
C1284 C 0.92854 0.04221 0.47298 0.0
C1285 C 0.94442 0.03758 0.46139 0.0
C1286 C 0.96273 0.02843 0.46839 0.0
C1287 C 0.03876 0.87666 0.49057 0.0
C1288 C 0.04333 0.87637 0.47205 0.0
C1289 C 0.02838 0.90699 0.49811 0.0
C1290 C 0.02237 0.9375 0.48725 0.0
C1291 C 0.02625 0.93639 0.46866 0.0
C1292 C 0.03663 0.90627 0.46116 0.0
C1293 C 0.01255 0.97126 0.49514 0.0
C1294 C 0.99448 0.98249 0.48808 0.0
C1295 C 0.02108 0.99294 0.50915 0.0
C1296 C 0.04047 0.98361 0.51671 0.0
C1297 C 0.05692 0.9816 0.50545 0.0
C1298 C 0.07512 0.97241 0.51266 0.0
C1299 C 0.07709 0.9655 0.53116 0.0
C1300 C 0.06086 0.96787 0.54248 0.0
C1301 C 0.04261 0.97699 0.53532 0.0
H1302 H 0.09119 0.95839 0.53672 0.0
H1303 H 0.91439 0.04935 0.46754 0.0
H1304 H 0.21348 0.64826 0.07042 0.0
H1305 H 0.23962 0.60143 0.07113 0.0
H1306 H 0.19791 0.51389 0.0833 0.0
H1307 H 0.1716 0.56052 0.0824 0.0
H1308 H 0.23038 0.51006 0.10475 0.0
H1309 H 0.2156 0.52104 0.04159 0.0
H1310 H 0.21028 0.55484 0.01289 0.0
H1311 H 0.26889 0.59683 0.01448 0.0
H1312 H 0.27447 0.5637 0.04334 0.0
H1313 H 0.29078 0.35207 0.08727 0.0
H1314 H 0.26453 0.39871 0.0867 0.0
H1315 H 0.30564 0.48555 0.07182 0.0
H1316 H 0.33196 0.43887 0.07223 0.0
H1317 H 0.27334 0.48977 0.05174 0.0
H1318 H 0.28823 0.47924 0.11486 0.0
H1319 H 0.29367 0.44572 0.14362 0.0
H1320 H 0.23512 0.40344 0.14227 0.0
H1321 H 0.2294 0.43629 0.11335 0.0
C1322 C 0.20984 0.61898 0.07308 0.0
C1323 C 0.19048 0.60799 0.07625 0.0
C1324 C 0.22479 0.59232 0.07353 0.0
C1325 C 0.22062 0.55423 0.07708 0.0
C1326 C 0.20138 0.54322 0.08054 0.0
C1327 C 0.1864 0.56987 0.08008 0.0
C1328 C 0.2364 0.52588 0.07723 0.0
C1329 C 0.23963 0.5052 0.0931 0.0
C1330 C 0.24868 0.52036 0.06213 0.0
C1331 C 0.24539 0.54018 0.04473 0.0
C1332 C 0.2273 0.53773 0.0359 0.0
C1333 C 0.22425 0.55672 0.01959 0.0
C1334 C 0.23922 0.57805 0.01189 0.0
C1335 C 0.25729 0.58034 0.02047 0.0
C1336 C 0.26042 0.56143 0.0368 0.0
C1337 C 0.29423 0.38118 0.08404 0.0
C1338 C 0.31339 0.39196 0.07988 0.0
C1339 C 0.27924 0.40776 0.08371 0.0
C1340 C 0.28321 0.44564 0.07945 0.0
C1341 C 0.3023 0.45643 0.07515 0.0
C1342 C 0.31729 0.42979 0.07536 0.0
C1343 C 0.26738 0.47394 0.07929 0.0
C1344 C 0.26412 0.49461 0.06341 0.0
C1345 C 0.25509 0.47952 0.0944 0.0
C1346 C 0.25845 0.45995 0.11186 0.0
C1347 C 0.27656 0.46258 0.12063 0.0
C1348 C 0.27968 0.44373 0.13697 0.0
C1349 C 0.26477 0.42239 0.14475 0.0
C1350 C 0.24667 0.41995 0.13622 0.0
C1351 C 0.24347 0.4387 0.11987 0.0
H1352 H 0.26722 0.40782 0.1574 0.0
H1353 H 0.23683 0.59273 0.99926 0.0
H1354 H 0.33674 0.06154 0.44047 0.0
H1355 H 0.3142 0.00811 0.44335 0.0
H1356 H 0.26558 0.08368 0.43568 0.0
H1357 H 0.28801 0.13715 0.43284 0.0
H1358 H 0.26027 0.02994 0.46379 0.0
H1359 H 0.28104 0.03645 0.40109 0.0
H1360 H 0.30565 0.03729 0.37685 0.0
H1361 H 0.32654 0.92848 0.39383 0.0
H1362 H 0.30221 0.92728 0.41836 0.0
H1363 H 0.18121 0.92653 0.43112 0.0
H1364 H 0.20833 0.96965 0.43619 0.0
H1365 H 0.24824 0.87538 0.43667 0.0
H1366 H 0.22112 0.83196 0.43099 0.0
H1367 H 0.26144 0.93176 0.41589 0.0
H1368 H 0.23753 0.92034 0.47565 0.0
H1369 H 0.21316 0.91891 0.50007 0.0
H1370 H 0.1987 0.03501 0.48965 0.0
H1371 H 0.22278 0.037 0.46498 0.0
C1372 C 0.32122 0.06672 0.43962 0.0
C1373 C 0.31404 0.10329 0.43634 0.0
C1374 C 0.30842 0.03627 0.44121 0.0
C1375 C 0.28831 0.04211 0.43965 0.0
C1376 C 0.28108 0.07876 0.43694 0.0
C1377 C 0.29387 0.10912 0.43518 0.0
C1378 C 0.27472 0.00989 0.43984 0.0
C1379 C 0.26042 0.00847 0.45332 0.0
C1380 C 0.27545 0.98137 0.42649 0.0
C1381 C 0.28998 0.98199 0.41169 0.0
C1382 C 0.291 0.01286 0.39975 0.0
C1383 C 0.30487 0.01337 0.38594 0.0
C1384 C 0.31769 0.98301 0.38384 0.0
C1385 C 0.31663 0.95202 0.3955 0.0
C1386 C 0.3028 0.9514 0.40936 0.0
C1387 C 0.19577 0.91497 0.43218 0.0
C1388 C 0.19908 0.87591 0.43055 0.0
C1389 C 0.21121 0.93958 0.43532 0.0
C1390 C 0.23023 0.9256 0.43707 0.0
C1391 C 0.23362 0.88663 0.43548 0.0
C1392 C 0.21814 0.86192 0.43232 0.0
C1393 C 0.24657 0.95222 0.4396 0.0
C1394 C 0.26143 0.95266 0.42662 0.0
C1395 C 0.24641 0.9797 0.4535 0.0
C1396 C 0.2319 0.97873 0.46837 0.0
C1397 C 0.22906 0.94549 0.47847 0.0
C1398 C 0.2153 0.94459 0.49238 0.0
C1399 C 0.20436 0.97683 0.49639 0.0
C1400 C 0.20718 0.01006 0.48653 0.0
C1401 C 0.2209 0.0111 0.47259 0.0
H1402 H 0.19373 0.97608 0.50717 0.0
H1403 H 0.32842 0.98345 0.37313 0.0
H1404 H 0.68613 0.59568 0.95554 0.0
H1405 H 0.71142 0.54711 0.95412 0.0
H1406 H 0.70967 0.55075 0.8959 0.0
H1407 H 0.68444 0.59951 0.8972 0.0
H1408 H 0.71085 0.47842 0.90869 0.0
H1409 H 0.74549 0.59489 0.91812 0.0
H1410 H 0.75304 0.6549 0.93357 0.0
H1411 H 0.76633 0.59433 0.9823 0.0
H1412 H 0.75859 0.53396 0.9672 0.0
H1413 H 0.80062 0.38593 0.89081 0.0
H1414 H 0.77383 0.43137 0.89247 0.0
H1415 H 0.77697 0.42932 0.95067 0.0
H1416 H 0.80416 0.38491 0.9491 0.0
H1417 H 0.77477 0.50029 0.93809 0.0
H1418 H 0.74068 0.38371 0.92868 0.0
H1419 H 0.73307 0.32359 0.91337 0.0
H1420 H 0.7187 0.38392 0.86484 0.0
H1421 H 0.72649 0.4444 0.87979 0.0
C1422 C 0.69122 0.58628 0.94244 0.0
C1423 C 0.6834 0.60149 0.92648 0.0
C1424 C 0.70561 0.5585 0.94165 0.0
C1425 C 0.71251 0.54569 0.9249 0.0
C1426 C 0.70448 0.56027 0.90895 0.0
C1427 C 0.69006 0.58802 0.90972 0.0
C1428 C 0.72834 0.51747 0.92402 0.0
C1429 C 0.72492 0.48332 0.91492 0.0
C1430 C 0.7465 0.52369 0.93251 0.0
C1431 C 0.75128 0.55994 0.94158 0.0
C1432 C 0.74988 0.59439 0.93217 0.0
C1433 C 0.75421 0.62846 0.94086 0.0
C1434 C 0.76011 0.62843 0.95892 0.0
C1435 C 0.76174 0.59431 0.96831 0.0
C1436 C 0.75739 0.56016 0.9597 0.0
C1437 C 0.79565 0.3953 0.90395 0.0
C1438 C 0.80445 0.38183 0.91983 0.0
C1439 C 0.78024 0.42096 0.90488 0.0
C1440 C 0.77332 0.43335 0.92171 0.0
C1441 C 0.78207 0.41995 0.93757 0.0
C1442 C 0.79748 0.39435 0.93665 0.0
C1443 C 0.7573 0.46116 0.92277 0.0
C1444 C 0.76069 0.49529 0.93189 0.0
C1445 C 0.73912 0.45488 0.91432 0.0
C1446 C 0.73435 0.41856 0.90531 0.0
C1447 C 0.73605 0.38414 0.9147 0.0
C1448 C 0.73168 0.35 0.90609 0.0
C1449 C 0.72545 0.34993 0.88813 0.0
C1450 C 0.72354 0.38401 0.87875 0.0
C1451 C 0.72792 0.41824 0.88729 0.0
H1452 H 0.72207 0.32346 0.88149 0.0
H1453 H 0.76346 0.65484 0.96562 0.0
H1454 H 0.71611 0.8382 0.57541 0.0
H1455 H 0.74328 0.88273 0.57267 0.0
H1456 H 0.70315 0.97632 0.57622 0.0
H1457 H 0.67594 0.93202 0.57875 0.0
H1458 H 0.73056 0.98431 0.54869 0.0
H1459 H 0.72833 0.95266 0.6122 0.0
H1460 H 0.72836 0.90892 0.63813 0.0
H1461 H 0.78454 0.86709 0.62238 0.0
H1462 H 0.78471 0.91024 0.59618 0.0
H1463 H 0.79062 0.13881 0.57071 0.0
H1464 H 0.76595 0.08911 0.57013 0.0
H1465 H 0.81103 0.00415 0.57194 0.0
H1466 H 0.83581 0.05386 0.57266 0.0
H1467 H 0.7827 0.98789 0.59505 0.0
H1468 H 0.78643 0.02193 0.53286 0.0
H1469 H 0.78674 0.06474 0.50659 0.0
H1470 H 0.72851 0.10058 0.5189 0.0
H1471 H 0.72795 0.05837 0.54542 0.0
C1472 C 0.71312 0.86828 0.5755 0.0
C1473 C 0.69398 0.88177 0.57738 0.0
C1474 C 0.72861 0.8936 0.57402 0.0
C1475 C 0.72515 0.93269 0.57435 0.0
C1476 C 0.70605 0.9462 0.57595 0.0
C1477 C 0.69058 0.92094 0.57756 0.0
C1478 C 0.74146 0.95972 0.57329 0.0
C1479 C 0.74189 0.9854 0.55888 0.0
C1480 C 0.75648 0.96015 0.58633 0.0
C1481 C 0.75643 0.93436 0.60212 0.0
C1482 C 0.74061 0.9339 0.61418 0.0
C1483 C 0.74061 0.90927 0.62894 0.0
C1484 C 0.75642 0.88516 0.63187 0.0
C1485 C 0.77229 0.88573 0.62007 0.0
C1486 C 0.77235 0.91028 0.60527 0.0
C1487 C 0.79526 0.10953 0.57081 0.0
C1488 C 0.8151 0.10012 0.57167 0.0
C1489 C 0.78118 0.08119 0.57046 0.0
C1490 C 0.7867 0.04297 0.57073 0.0
C1491 C 0.80649 0.03349 0.57169 0.0
C1492 C 0.8206 0.06185 0.57215 0.0
C1493 C 0.77171 0.01301 0.57055 0.0
C1494 C 0.7715 0.98669 0.58472 0.0
C1495 C 0.75697 0.01184 0.55721 0.0
C1496 C 0.75721 0.03719 0.54123 0.0
C1497 C 0.77374 0.03915 0.53005 0.0
C1498 C 0.77396 0.06328 0.5151 0.0
C1499 C 0.75767 0.08543 0.5111 0.0
C1500 C 0.74112 0.08342 0.52202 0.0
C1501 C 0.74084 0.05937 0.53701 0.0
H1502 H 0.75787 0.10409 0.49952 0.0
H1503 H 0.75639 0.86611 0.64331 0.0
loop_
_geom_bond_atom_site_label_1
_geom_bond_atom_site_label_2
_geom_bond_distance
_geom_bond_site_symmetry_2
_ccdc_geom_bond_type
Li0 N17 1.990 . S
Li0 O60 1.956 . S
Li0 O61 1.970 . S
Li0 O62 1.961 . S
Li1 N25 1.990 . S
Li1 O60 1.970 . S
Li1 O61 1.956 . S
Li1 O63 1.961 . S
Li2 N47 1.990 . S
Li2 O60 1.961 . S
Li2 O62 1.956 . S
Li2 O63 1.970 . S
Li3 N53 1.990 . S
Li3 O61 1.961 . S
Li3 O62 1.970 . S
Li3 O63 1.956 . S
C4 C6 1.348 . S
C4 C7 1.356 . S
C4 O60 1.325 . S
N5 C8 1.314 . S
N5 C9 1.279 . S
C6 C4 1.348 . S
C6 C8 1.353 . S
C6 H64 0.929 . S
C7 C4 1.356 . S
C7 C9 1.358 . S
C7 H65 0.930 . S
C8 N5 1.314 . S
C8 C6 1.353 . S
C8 H66 0.930 . S
C9 N5 1.279 . S
C9 C7 1.358 . S
C9 H67 0.930 . S
C10 C13 1.348 . S
C10 C14 1.356 . S
C10 O61 1.325 . S
C11 N12 1.279 . S
C11 C14 1.358 . S
C11 H68 0.930 . S
N12 C11 1.279 . S
N12 C15 1.314 . S
C13 C10 1.348 . S
C13 C15 1.353 . S
C13 H69 0.929 . S
C14 C10 1.356 . S
C14 C11 1.358 . S
C14 H70 0.930 . S
C15 N12 1.314 . S
C15 C13 1.353 . S
C15 H71 0.930 . S
C16 N17 1.314 . S
C16 C21 1.353 . S
C16 H22 0.930 . S
N17 Li0 1.990 . S
N17 C16 1.314 . S
N17 C19 1.279 . S
C18 C19 1.358 . S
C18 C20 1.356 . S
C18 H72 0.930 . S
C19 N17 1.279 . S
C19 C18 1.358 . S
C19 H23 0.930 . S
C20 C18 1.356 . S
C20 C21 1.348 . S
C21 C16 1.353 . S
C21 C20 1.348 . S
C21 H73 0.929 . S
H22 C16 0.930 . S
H23 C19 0.930 . S
C24 N25 1.314 . S
C24 C26 1.353 . S
C24 H30 0.930 . S
N25 Li1 1.990 . S
N25 C24 1.314 . S
N25 C28 1.279 . S
C26 C24 1.353 . S
C26 C29 1.348 . S
C26 H74 0.929 . S
C27 C28 1.358 . S
C27 C29 1.356 . S
C27 H75 0.930 . S
C28 N25 1.279 . S
C28 C27 1.358 . S
C28 H31 0.930 . S
C29 C26 1.348 . S
C29 C27 1.356 . S
H30 C24 0.930 . S
H31 C28 0.930 . S
C32 C34 1.348 . S
C32 C35 1.356 . S
C32 O62 1.325 . S
N33 C36 1.314 1_556 S
N33 C37 1.279 . S
C34 C32 1.348 . S
C34 C36 1.353 . S
C34 H76 0.929 . S
C35 C32 1.356 . S
C35 C37 1.358 1_554 S
C35 H77 0.930 . S
C36 N33 1.314 1_554 S
C36 C34 1.353 . S
C36 H78 0.922 1_554 S
C37 N33 1.279 . S
C37 C35 1.358 1_556 S
C37 H79 0.930 . S
C38 C39 1.348 . S
C38 C40 1.356 . S
C38 O63 1.325 . S
C39 C38 1.348 . S
C39 C41 1.353 . S
C39 H80 0.929 . S
C40 C38 1.356 . S
C40 C42 1.358 . S
C40 H81 0.930 . S
C41 C39 1.353 . S
C41 N43 1.314 . S
C41 H82 0.930 . S
C42 C40 1.358 . S
C42 N43 1.279 . S
C42 H83 0.930 . S
N43 C41 1.314 . S
N43 C42 1.279 . S
C44 C46 1.353 . S
C44 N47 1.314 . S
C44 H50 0.930 . S
C45 N47 1.279 . S
C45 C48 1.358 . S
C45 H51 0.930 . S
C46 C44 1.353 . S
C46 C49 1.348 . S
C46 H84 0.929 . S
N47 Li2 1.990 . S
N47 C44 1.314 . S
N47 C45 1.279 . S
C48 C45 1.358 . S
C48 C49 1.356 . S
C48 H85 0.930 . S
C49 C46 1.348 . S
C49 C48 1.356 . S
H50 C44 0.930 . S
H51 C45 0.930 . S
C52 N53 1.314 . S
C52 C54 1.353 . S
C52 H58 0.930 . S
N53 Li3 1.990 . S
N53 C52 1.314 . S
N53 C56 1.279 . S
C54 C52 1.353 . S
C54 C57 1.348 . S
C54 H86 0.929 . S
C55 C56 1.358 . S
C55 C57 1.356 . S
C55 H87 0.930 . S
C56 N53 1.279 . S
C56 C55 1.358 . S
C56 H59 0.930 . S
C57 C54 1.348 . S
C57 C55 1.356 . S
H58 C52 0.930 . S
H59 C56 0.930 . S
O60 Li0 1.956 . S
O60 Li1 1.970 . S
O60 Li2 1.961 . S
O60 C4 1.325 . S
O61 Li0 1.970 . S
O61 Li1 1.956 . S
O61 Li3 1.961 . S
O61 C10 1.325 . S
O62 Li0 1.961 . S
O62 Li2 1.956 . S
O62 Li3 1.970 . S
O62 C32 1.325 . S
O63 Li1 1.961 . S
O63 Li2 1.970 . S
O63 Li3 1.956 . S
O63 C38 1.325 . S
H64 C6 0.929 . S
H65 C7 0.930 . S
H66 C8 0.930 . S
H67 C9 0.930 . S
H68 C11 0.930 . S
H69 C13 0.929 . S
H70 C14 0.930 . S
H71 C15 0.930 . S
H72 C18 0.930 . S
H73 C21 0.929 . S
H74 C26 0.929 . S
H75 C27 0.930 . S
H76 C34 0.929 . S
H77 C35 0.930 . S
H78 C36 0.922 1_556 S
H79 C37 0.930 . S
H80 C39 0.929 . S
H81 C40 0.930 . S
H82 C41 0.930 . S
H83 C42 0.930 . S
H84 C46 0.929 . S
H85 C48 0.930 . S
H86 C54 0.929 . S
H87 C55 0.930 . S
Li88 N105 1.990 . S
Li88 O148 1.956 . S
Li88 O149 1.970 . S
Li88 O150 1.961 . S
Li89 N113 1.990 . S
Li89 O148 1.970 . S
Li89 O149 1.956 . S
Li89 O151 1.961 . S
Li90 N135 1.990 . S
Li90 O148 1.961 . S
Li90 O150 1.956 . S
Li90 O151 1.970 . S
Li91 N141 1.990 . S
Li91 O149 1.961 . S
Li91 O150 1.970 . S
Li91 O151 1.956 . S
C92 C94 1.348 . S
C92 C95 1.356 . S
C92 O148 1.325 . S
N93 C96 1.314 . S
N93 C97 1.279 . S
C94 C92 1.348 . S
C94 C96 1.353 . S
C94 H152 0.929 . S
C95 C92 1.356 . S
C95 C97 1.358 . S
C95 H153 0.930 . S
C96 N93 1.314 . S
C96 C94 1.353 . S
C96 H154 0.930 . S
C97 N93 1.279 . S
C97 C95 1.358 . S
C97 H155 0.930 . S
C98 C101 1.348 . S
C98 C102 1.356 . S
C98 O149 1.325 . S
C99 N100 1.279 . S
C99 C102 1.358 . S
C99 H156 0.930 . S
N100 C99 1.279 . S
N100 C103 1.314 . S
C101 C98 1.348 . S
C101 C103 1.353 . S
C101 H157 0.929 . S
C102 C98 1.356 . S
C102 C99 1.358 . S
C102 H158 0.930 . S
C103 N100 1.314 . S
C103 C101 1.353 . S
C103 H159 0.930 . S
C104 N105 1.314 . S
C104 C109 1.353 . S
C104 H110 0.930 . S
N105 Li88 1.990 . S
N105 C104 1.314 . S
N105 C107 1.279 . S
C106 C107 1.358 . S
C106 C108 1.356 . S
C106 H160 0.930 . S
C107 N105 1.279 . S
C107 C106 1.358 . S
C107 H111 0.930 . S
C108 C106 1.356 . S
C108 C109 1.348 . S
C109 C104 1.353 . S
C109 C108 1.348 . S
C109 H161 0.929 . S
H110 C104 0.930 . S
H111 C107 0.930 . S
C112 N113 1.314 . S
C112 C114 1.353 . S
C112 H118 0.930 . S
N113 Li89 1.990 . S
N113 C112 1.314 . S
N113 C116 1.279 . S
C114 C112 1.353 . S
C114 C117 1.348 . S
C114 H162 0.929 . S
C115 C116 1.358 . S
C115 C117 1.356 . S
C115 H163 0.930 . S
C116 N113 1.279 . S
C116 C115 1.358 . S
C116 H119 0.930 . S
C117 C114 1.348 . S
C117 C115 1.356 . S
H118 C112 0.930 . S
H119 C116 0.930 . S
C120 C122 1.348 . S
C120 C123 1.356 . S
C120 O150 1.325 . S
N121 C124 1.314 1_556 S
N121 C125 1.279 . S
C122 C120 1.348 . S
C122 C124 1.353 . S
C122 H164 0.929 . S
C123 C120 1.356 . S
C123 C125 1.358 1_554 S
C123 H165 0.930 . S
C124 N121 1.314 1_554 S
C124 C122 1.353 . S
C124 H166 0.922 1_554 S
C125 N121 1.279 . S
C125 C123 1.358 1_556 S
C125 H167 0.930 . S
C126 C127 1.348 . S
C126 C128 1.356 . S
C126 O151 1.325 . S
C127 C126 1.348 . S
C127 C129 1.353 . S
C127 H168 0.929 . S
C128 C126 1.356 . S
C128 C130 1.358 . S
C128 H169 0.930 . S
C129 C127 1.353 . S
C129 N131 1.314 . S
C129 H170 0.930 . S
C130 C128 1.358 . S
C130 N131 1.279 . S
C130 H171 0.930 . S
N131 C129 1.314 . S
N131 C130 1.279 . S
C132 C134 1.353 . S
C132 N135 1.314 . S
C132 H138 0.930 . S
C133 N135 1.279 . S
C133 C136 1.358 . S
C133 H139 0.930 . S
C134 C132 1.353 . S
C134 C137 1.348 . S
C134 H172 0.929 . S
N135 Li90 1.990 . S
N135 C132 1.314 . S
N135 C133 1.279 . S
C136 C133 1.358 . S
C136 C137 1.356 . S
C136 H173 0.930 . S
C137 C134 1.348 . S
C137 C136 1.356 . S
H138 C132 0.930 . S
H139 C133 0.930 . S
C140 N141 1.314 . S
C140 C142 1.353 . S
C140 H146 0.930 . S
N141 Li91 1.990 . S
N141 C140 1.314 . S
N141 C144 1.279 . S
C142 C140 1.353 . S
C142 C145 1.348 . S
C142 H174 0.929 . S
C143 C144 1.358 . S
C143 C145 1.356 . S
C143 H175 0.930 . S
C144 N141 1.279 . S
C144 C143 1.358 . S
C144 H147 0.930 . S
C145 C142 1.348 . S
C145 C143 1.356 . S
H146 C140 0.930 . S
H147 C144 0.930 . S
O148 Li88 1.956 . S
O148 Li89 1.970 . S
O148 Li90 1.961 . S
O148 C92 1.325 . S
O149 Li88 1.970 . S
O149 Li89 1.956 . S
O149 Li91 1.961 . S
O149 C98 1.325 . S
O150 Li88 1.961 . S
O150 Li90 1.956 . S
O150 Li91 1.970 . S
O150 C120 1.325 . S
O151 Li89 1.961 . S
O151 Li90 1.970 . S
O151 Li91 1.956 . S
O151 C126 1.325 . S
H152 C94 0.929 . S
H153 C95 0.930 . S
H154 C96 0.930 . S
H155 C97 0.930 . S
H156 C99 0.930 . S
H157 C101 0.929 . S
H158 C102 0.930 . S
H159 C103 0.930 . S
H160 C106 0.930 . S
H161 C109 0.929 . S
H162 C114 0.929 . S
H163 C115 0.930 . S
H164 C122 0.929 . S
H165 C123 0.930 . S
H166 C124 0.922 1_556 S
H167 C125 0.930 . S
H168 C127 0.929 . S
H169 C128 0.930 . S
H170 C129 0.930 . S
H171 C130 0.930 . S
H172 C134 0.929 . S
H173 C136 0.930 . S
H174 C142 0.929 . S
H175 C143 0.930 . S
Li176 N193 1.990 . S
Li176 O236 1.956 . S
Li176 O237 1.970 . S
Li176 O238 1.961 . S
Li177 N201 1.990 . S
Li177 O236 1.970 . S
Li177 O237 1.956 . S
Li177 O239 1.961 . S
Li178 N223 1.990 . S
Li178 O236 1.961 . S
Li178 O238 1.956 . S
Li178 O239 1.970 . S
Li179 N229 1.990 . S
Li179 O237 1.961 . S
Li179 O238 1.970 . S
Li179 O239 1.956 . S
C180 C182 1.348 . S
C180 C183 1.356 . S
C180 O236 1.325 . S
N181 C184 1.314 . S
N181 C185 1.279 . S
C182 C180 1.348 . S
C182 C184 1.353 . S
C182 H240 0.929 . S
C183 C180 1.356 . S
C183 C185 1.358 . S
C183 H241 0.930 . S
C184 N181 1.314 . S
C184 C182 1.353 . S
C184 H242 0.930 . S
C185 N181 1.279 . S
C185 C183 1.358 . S
C185 H243 0.930 . S
C186 C189 1.348 . S
C186 C190 1.356 . S
C186 O237 1.325 . S
C187 N188 1.279 . S
C187 C190 1.358 . S
C187 H244 0.930 . S
N188 C187 1.279 . S
N188 C191 1.314 . S
C189 C186 1.348 . S
C189 C191 1.353 . S
C189 H245 0.929 . S
C190 C186 1.356 . S
C190 C187 1.358 . S
C190 H246 0.930 . S
C191 N188 1.314 . S
C191 C189 1.353 . S
C191 H247 0.930 . S
C192 N193 1.314 . S
C192 C197 1.353 . S
C192 H198 0.930 . S
N193 Li176 1.990 . S
N193 C192 1.314 . S
N193 C195 1.279 . S
C194 C195 1.358 . S
C194 C196 1.356 . S
C194 H248 0.930 . S
C195 N193 1.279 . S
C195 C194 1.358 . S
C195 H199 0.930 . S
C196 C194 1.356 . S
C196 C197 1.348 . S
C197 C192 1.353 . S
C197 C196 1.348 . S
C197 H249 0.929 . S
H198 C192 0.930 . S
H199 C195 0.930 . S
C200 N201 1.314 . S
C200 C202 1.353 . S
C200 H206 0.930 . S
N201 Li177 1.990 . S
N201 C200 1.314 . S
N201 C204 1.279 . S
C202 C200 1.353 . S
C202 C205 1.348 . S
C202 H250 0.929 . S
C203 C204 1.358 . S
C203 C205 1.356 . S
C203 H251 0.930 . S
C204 N201 1.279 . S
C204 C203 1.358 . S
C204 H207 0.930 . S
C205 C202 1.348 . S
C205 C203 1.356 . S
H206 C200 0.930 . S
H207 C204 0.930 . S
C208 C210 1.348 . S
C208 C211 1.356 . S
C208 O238 1.325 . S
N209 C212 1.314 . S
N209 C213 1.279 . S
C210 C208 1.348 . S
C210 C212 1.353 . S
C210 H252 0.929 . S
C211 C208 1.356 . S
C211 C213 1.358 . S
C211 H253 0.930 . S
C212 N209 1.314 . S
C212 C210 1.353 . S
C212 H254 0.930 . S
C213 N209 1.279 . S
C213 C211 1.358 . S
C213 H255 0.930 . S
C214 C215 1.348 . S
C214 C216 1.356 . S
C214 O239 1.325 . S
C215 C214 1.348 . S
C215 C217 1.353 . S
C215 H256 0.929 . S
C216 C214 1.356 . S
C216 C218 1.358 . S
C216 H257 0.930 . S
C217 C215 1.353 . S
C217 N219 1.314 . S
C217 H258 0.930 . S
C218 C216 1.358 . S
C218 N219 1.279 . S
C218 H259 0.930 . S
N219 C217 1.314 . S
N219 C218 1.279 . S
C220 C222 1.353 . S
C220 N223 1.314 . S
C220 H226 0.930 . S
C221 N223 1.279 . S
C221 C224 1.358 . S
C221 H227 0.930 . S
C222 C220 1.353 . S
C222 C225 1.348 . S
C222 H260 0.929 . S
N223 Li178 1.990 . S
N223 C220 1.314 . S
N223 C221 1.279 . S
C224 C221 1.358 . S
C224 C225 1.356 . S
C224 H261 0.930 . S
C225 C222 1.348 . S
C225 C224 1.356 . S
H226 C220 0.930 . S
H227 C221 0.930 . S
C228 N229 1.314 . S
C228 C230 1.353 . S
C228 H234 0.930 . S
N229 Li179 1.990 . S
N229 C228 1.314 . S
N229 C232 1.279 . S
C230 C228 1.353 . S
C230 C233 1.348 . S
C230 H262 0.929 . S
C231 C232 1.358 . S
C231 C233 1.356 . S
C231 H263 0.930 . S
C232 N229 1.279 . S
C232 C231 1.358 . S
C232 H235 0.930 . S
C233 C230 1.348 . S
C233 C231 1.356 . S
H234 C228 0.930 . S
H235 C232 0.930 . S
O236 Li176 1.956 . S
O236 Li177 1.970 . S
O236 Li178 1.961 . S
O236 C180 1.325 . S
O237 Li176 1.970 . S
O237 Li177 1.956 . S
O237 Li179 1.961 . S
O237 C186 1.325 . S
O238 Li176 1.961 . S
O238 Li178 1.956 . S
O238 Li179 1.970 . S
O238 C208 1.325 . S
O239 Li177 1.961 . S
O239 Li178 1.970 . S
O239 Li179 1.956 . S
O239 C214 1.325 . S
H240 C182 0.929 . S
H241 C183 0.930 . S
H242 C184 0.930 . S
H243 C185 0.930 . S
H244 C187 0.930 . S
H245 C189 0.929 . S
H246 C190 0.930 . S
H247 C191 0.930 . S
H248 C194 0.930 . S
H249 C197 0.929 . S
H250 C202 0.929 . S
H251 C203 0.930 . S
H252 C210 0.929 . S
H253 C211 0.930 . S
H254 C212 0.930 . S
H255 C213 0.930 . S
H256 C215 0.929 . S
H257 C216 0.930 . S
H258 C217 0.930 . S
H259 C218 0.930 . S
H260 C222 0.929 . S
H261 C224 0.930 . S
H262 C230 0.929 . S
H263 C231 0.930 . S
Li264 N281 1.990 . S
Li264 O324 1.956 . S
Li264 O325 1.970 . S
Li264 O326 1.961 . S
Li265 N289 1.990 . S
Li265 O324 1.970 . S
Li265 O325 1.956 . S
Li265 O327 1.961 . S
Li266 N311 1.990 . S
Li266 O324 1.961 . S
Li266 O326 1.956 . S
Li266 O327 1.970 . S
Li267 N317 1.990 . S
Li267 O325 1.961 . S
Li267 O326 1.970 . S
Li267 O327 1.956 . S
C268 C270 1.348 . S
C268 C271 1.356 . S
C268 O324 1.325 . S
N269 C272 1.314 . S
N269 C273 1.279 . S
C270 C268 1.348 . S
C270 C272 1.353 . S
C270 H328 0.929 . S
C271 C268 1.356 . S
C271 C273 1.358 . S
C271 H329 0.930 . S
C272 N269 1.314 . S
C272 C270 1.353 . S
C272 H330 0.930 . S
C273 N269 1.279 . S
C273 C271 1.358 . S
C273 H331 0.930 . S
C274 C277 1.348 . S
C274 C278 1.356 . S
C274 O325 1.325 . S
C275 N276 1.279 . S
C275 C278 1.358 . S
C275 H332 0.930 . S
N276 C275 1.279 . S
N276 C279 1.314 . S
C277 C274 1.348 . S
C277 C279 1.353 . S
C277 H333 0.929 . S
C278 C274 1.356 . S
C278 C275 1.358 . S
C278 H334 0.930 . S
C279 N276 1.314 . S
C279 C277 1.353 . S
C279 H335 0.930 . S
C280 N281 1.314 . S
C280 C285 1.353 . S
C280 H286 0.930 . S
N281 Li264 1.990 . S
N281 C280 1.314 . S
N281 C283 1.279 . S
C282 C283 1.358 . S
C282 C284 1.356 . S
C282 H336 0.930 . S
C283 N281 1.279 . S
C283 C282 1.358 . S
C283 H287 0.930 . S
C284 C282 1.356 . S
C284 C285 1.348 . S
C285 C280 1.353 . S
C285 C284 1.348 . S
C285 H337 0.929 . S
H286 C280 0.930 . S
H287 C283 0.930 . S
C288 N289 1.314 . S
C288 C290 1.353 . S
C288 H294 0.930 . S
N289 Li265 1.990 . S
N289 C288 1.314 . S
N289 C292 1.279 . S
C290 C288 1.353 . S
C290 C293 1.348 . S
C290 H338 0.929 . S
C291 C292 1.358 . S
C291 C293 1.356 . S
C291 H339 0.930 . S
C292 N289 1.279 . S
C292 C291 1.358 . S
C292 H295 0.930 . S
C293 C290 1.348 . S
C293 C291 1.356 . S
H294 C288 0.930 . S
H295 C292 0.930 . S
C296 C298 1.348 . S
C296 C299 1.356 . S
C296 O326 1.325 . S
N297 C300 1.314 . S
N297 C301 1.279 . S
C298 C296 1.348 . S
C298 C300 1.353 . S
C298 H340 0.929 . S
C299 C296 1.356 . S
C299 C301 1.358 . S
C299 H341 0.930 . S
C300 N297 1.314 . S
C300 C298 1.353 . S
C300 H342 0.930 . S
C301 N297 1.279 . S
C301 C299 1.358 . S
C301 H343 0.930 . S
C302 C303 1.348 . S
C302 C304 1.356 . S
C302 O327 1.325 . S
C303 C302 1.348 . S
C303 C305 1.353 . S
C303 H344 0.929 . S
C304 C302 1.356 . S
C304 C306 1.358 . S
C304 H345 0.930 . S
C305 C303 1.353 . S
C305 N307 1.314 . S
C305 H346 0.930 . S
C306 C304 1.358 . S
C306 N307 1.279 . S
C306 H347 0.930 . S
N307 C305 1.314 . S
N307 C306 1.279 . S
C308 C310 1.353 . S
C308 N311 1.314 . S
C308 H314 0.930 . S
C309 N311 1.279 . S
C309 C312 1.358 . S
C309 H315 0.930 . S
C310 C308 1.353 . S
C310 C313 1.348 . S
C310 H348 0.929 . S
N311 Li266 1.990 . S
N311 C308 1.314 . S
N311 C309 1.279 . S
C312 C309 1.358 . S
C312 C313 1.356 . S
C312 H349 0.930 . S
C313 C310 1.348 . S
C313 C312 1.356 . S
H314 C308 0.930 . S
H315 C309 0.930 . S
C316 N317 1.314 . S
C316 C318 1.353 . S
C316 H322 0.930 . S
N317 Li267 1.990 . S
N317 C316 1.314 . S
N317 C320 1.279 . S
C318 C316 1.353 . S
C318 C321 1.348 . S
C318 H350 0.929 . S
C319 C320 1.358 . S
C319 C321 1.356 . S
C319 H351 0.930 . S
C320 N317 1.279 . S
C320 C319 1.358 . S
C320 H323 0.930 . S
C321 C318 1.348 . S
C321 C319 1.356 . S
H322 C316 0.930 . S
H323 C320 0.930 . S
O324 Li264 1.956 . S
O324 Li265 1.970 . S
O324 Li266 1.961 . S
O324 C268 1.325 . S
O325 Li264 1.970 . S
O325 Li265 1.956 . S
O325 Li267 1.961 . S
O325 C274 1.325 . S
O326 Li264 1.961 . S
O326 Li266 1.956 . S
O326 Li267 1.970 . S
O326 C296 1.325 . S
O327 Li265 1.961 . S
O327 Li266 1.970 . S
O327 Li267 1.956 . S
O327 C302 1.325 . S
H328 C270 0.929 . S
H329 C271 0.930 . S
H330 C272 0.930 . S
H331 C273 0.930 . S
H332 C275 0.930 . S
H333 C277 0.929 . S
H334 C278 0.930 . S
H335 C279 0.930 . S
H336 C282 0.930 . S
H337 C285 0.929 . S
H338 C290 0.929 . S
H339 C291 0.930 . S
H340 C298 0.929 . S
H341 C299 0.930 . S
H342 C300 0.930 . S
H343 C301 0.930 . S
H344 C303 0.929 . S
H345 C304 0.930 . S
H346 C305 0.930 . S
H347 C306 0.930 . S
H348 C310 0.929 . S
H349 C312 0.930 . S
H350 C318 0.929 . S
H351 C319 0.930 . S
Li352 N369 1.990 . S
Li352 O412 1.956 . S
Li352 O413 1.970 . S
Li352 O414 1.961 . S
Li353 N377 1.990 . S
Li353 O412 1.970 . S
Li353 O413 1.956 . S
Li353 O415 1.961 . S
Li354 N399 1.990 . S
Li354 O412 1.961 . S
Li354 O414 1.956 . S
Li354 O415 1.970 . S
Li355 N405 1.990 . S
Li355 O413 1.961 . S
Li355 O414 1.970 . S
Li355 O415 1.956 . S
C356 C358 1.348 . S
C356 C359 1.356 . S
C356 O412 1.325 . S
N357 C360 1.314 1_554 S
N357 C361 1.279 . S
C358 C356 1.348 . S
C358 C360 1.353 . S
C358 H416 0.929 . S
C359 C356 1.356 . S
C359 C361 1.358 1_556 S
C359 H417 0.930 . S
C360 N357 1.314 1_556 S
C360 C358 1.353 . S
C360 H418 0.930 1_556 S
C361 N357 1.279 . S
C361 C359 1.358 1_554 S
C361 H419 0.930 . S
C362 C365 1.348 . S
C362 C366 1.356 . S
C362 O413 1.325 . S
C363 N364 1.279 . S
C363 C366 1.358 . S
C363 H420 0.930 . S
N364 C363 1.279 . S
N364 C367 1.314 . S
C365 C362 1.348 . S
C365 C367 1.353 . S
C365 H421 0.929 . S
C366 C362 1.356 . S
C366 C363 1.358 . S
C366 H422 0.930 . S
C367 N364 1.314 . S
C367 C365 1.353 . S
C367 H423 0.930 . S
C368 N369 1.314 . S
C368 C373 1.353 . S
C368 H374 0.930 . S
N369 Li352 1.990 . S
N369 C368 1.314 . S
N369 C371 1.279 . S
C370 C371 1.358 . S
C370 C372 1.356 . S
C370 H424 0.930 . S
C371 N369 1.279 . S
C371 C370 1.358 . S
C371 H375 0.930 . S
C372 C370 1.356 . S
C372 C373 1.348 . S
C373 C368 1.353 . S
C373 C372 1.348 . S
C373 H425 0.929 . S
H374 C368 0.930 . S
H375 C371 0.930 . S
C376 N377 1.314 . S
C376 C378 1.353 . S
C376 H382 0.930 . S
N377 Li353 1.990 . S
N377 C376 1.314 . S
N377 C380 1.279 . S
C378 C376 1.353 . S
C378 C381 1.348 . S
C378 H426 0.929 . S
C379 C380 1.358 . S
C379 C381 1.356 . S
C379 H427 0.930 . S
C380 N377 1.279 . S
C380 C379 1.358 . S
C380 H383 0.930 . S
C381 C378 1.348 . S
C381 C379 1.356 . S
H382 C376 0.930 . S
H383 C380 0.930 . S
C384 C386 1.348 . S
C384 C387 1.356 . S
C384 O414 1.325 . S
N385 C388 1.314 . S
N385 C389 1.279 . S
C386 C384 1.348 . S
C386 C388 1.353 . S
C386 H428 0.929 . S
C387 C384 1.356 . S
C387 C389 1.358 . S
C387 H429 0.930 . S
C388 N385 1.314 . S
C388 C386 1.353 . S
C388 H430 0.930 . S
C389 N385 1.279 . S
C389 C387 1.358 . S
C389 H431 0.930 . S
C390 C391 1.348 . S
C390 C392 1.356 . S
C390 O415 1.325 . S
C391 C390 1.348 . S
C391 C393 1.353 . S
C391 H432 0.929 . S
C392 C390 1.356 . S
C392 C394 1.358 . S
C392 H433 0.930 . S
C393 C391 1.353 . S
C393 N395 1.314 . S
C393 H434 0.930 . S
C394 C392 1.358 . S
C394 N395 1.279 . S
C394 H435 0.930 . S
N395 C393 1.314 . S
N395 C394 1.279 . S
C396 C398 1.353 . S
C396 N399 1.314 . S
C396 H402 0.930 . S
C397 N399 1.279 . S
C397 C400 1.358 . S
C397 H403 0.930 . S
C398 C396 1.353 . S
C398 C401 1.348 . S
C398 H436 0.929 . S
N399 Li354 1.990 . S
N399 C396 1.314 . S
N399 C397 1.279 . S
C400 C397 1.358 . S
C400 C401 1.356 . S
C400 H437 0.930 . S
C401 C398 1.348 . S
C401 C400 1.356 . S
H402 C396 0.930 . S
H403 C397 0.930 . S
C404 N405 1.314 . S
C404 C406 1.353 . S
C404 H410 0.930 . S
N405 Li355 1.990 . S
N405 C404 1.314 . S
N405 C408 1.279 . S
C406 C404 1.353 . S
C406 C409 1.348 . S
C406 H438 0.929 . S
C407 C408 1.358 . S
C407 C409 1.356 . S
C407 H439 0.930 . S
C408 N405 1.279 . S
C408 C407 1.358 . S
C408 H411 0.930 . S
C409 C406 1.348 . S
C409 C407 1.356 . S
H410 C404 0.930 . S
H411 C408 0.930 . S
O412 Li352 1.956 . S
O412 Li353 1.970 . S
O412 Li354 1.961 . S
O412 C356 1.325 . S
O413 Li352 1.970 . S
O413 Li353 1.956 . S
O413 Li355 1.961 . S
O413 C362 1.325 . S
O414 Li352 1.961 . S
O414 Li354 1.956 . S
O414 Li355 1.970 . S
O414 C384 1.325 . S
O415 Li353 1.961 . S
O415 Li354 1.970 . S
O415 Li355 1.956 . S
O415 C390 1.325 . S
H416 C358 0.929 . S
H417 C359 0.930 . S
H418 C360 0.930 1_554 S
H419 C361 0.930 . S
H420 C363 0.930 . S
H421 C365 0.929 . S
H422 C366 0.930 . S
H423 C367 0.930 . S
H424 C370 0.930 . S
H425 C373 0.929 . S
H426 C378 0.929 . S
H427 C379 0.930 . S
H428 C386 0.929 . S
H429 C387 0.930 . S
H430 C388 0.930 . S
H431 C389 0.930 . S
H432 C391 0.929 . S
H433 C392 0.930 . S
H434 C393 0.930 . S
H435 C394 0.930 . S
H436 C398 0.929 . S
H437 C400 0.930 . S
H438 C406 0.929 . S
H439 C407 0.930 . S
Li440 N457 1.990 . S
Li440 O500 1.956 . S
Li440 O501 1.970 . S
Li440 O502 1.961 . S
Li441 N465 1.990 . S
Li441 O500 1.970 . S
Li441 O501 1.956 . S
Li441 O503 1.961 . S
Li442 N487 1.990 . S
Li442 O500 1.961 . S
Li442 O502 1.956 . S
Li442 O503 1.970 . S
Li443 N493 1.990 . S
Li443 O501 1.961 . S
Li443 O502 1.970 . S
Li443 O503 1.956 . S
C444 C446 1.348 . S
C444 C447 1.356 . S
C444 O500 1.325 . S
N445 C448 1.314 1_554 S
N445 C449 1.279 . S
C446 C444 1.348 . S
C446 C448 1.353 . S
C446 H504 0.929 . S
C447 C444 1.356 . S
C447 C449 1.358 1_556 S
C447 H505 0.930 . S
C448 N445 1.314 1_556 S
C448 C446 1.353 . S
C448 H506 0.930 1_556 S
C449 N445 1.279 . S
C449 C447 1.358 1_554 S
C449 H507 0.930 . S
C450 C453 1.348 . S
C450 C454 1.356 . S
C450 O501 1.325 . S
C451 N452 1.279 . S
C451 C454 1.358 . S
C451 H508 0.930 . S
N452 C451 1.279 . S
N452 C455 1.314 . S
C453 C450 1.348 . S
C453 C455 1.353 . S
C453 H509 0.929 . S
C454 C450 1.356 . S
C454 C451 1.358 . S
C454 H510 0.930 . S
C455 N452 1.314 . S
C455 C453 1.353 . S
C455 H511 0.930 . S
C456 N457 1.314 . S
C456 C461 1.353 . S
C456 H462 0.930 . S
N457 Li440 1.990 . S
N457 C456 1.314 . S
N457 C459 1.279 . S
C458 C459 1.358 . S
C458 C460 1.356 . S
C458 H512 0.930 . S
C459 N457 1.279 . S
C459 C458 1.358 . S
C459 H463 0.930 . S
C460 C458 1.356 . S
C460 C461 1.348 . S
C461 C456 1.353 . S
C461 C460 1.348 . S
C461 H513 0.929 . S
H462 C456 0.930 . S
H463 C459 0.930 . S
C464 N465 1.314 . S
C464 C466 1.353 . S
C464 H470 0.930 . S
N465 Li441 1.990 . S
N465 C464 1.314 . S
N465 C468 1.279 . S
C466 C464 1.353 . S
C466 C469 1.348 . S
C466 H514 0.929 . S
C467 C468 1.358 . S
C467 C469 1.356 . S
C467 H515 0.930 . S
C468 N465 1.279 . S
C468 C467 1.358 . S
C468 H471 0.930 . S
C469 C466 1.348 . S
C469 C467 1.356 . S
H470 C464 0.930 . S
H471 C468 0.930 . S
C472 C474 1.348 . S
C472 C475 1.356 . S
C472 O502 1.325 . S
N473 C476 1.314 . S
N473 C477 1.279 . S
C474 C472 1.348 . S
C474 C476 1.353 . S
C474 H516 0.929 . S
C475 C472 1.356 . S
C475 C477 1.358 . S
C475 H517 0.930 . S
C476 N473 1.314 . S
C476 C474 1.353 . S
C476 H518 0.930 . S
C477 N473 1.279 . S
C477 C475 1.358 . S
C477 H519 0.930 . S
C478 C479 1.348 . S
C478 C480 1.356 . S
C478 O503 1.325 . S
C479 C478 1.348 . S
C479 C481 1.353 . S
C479 H520 0.929 . S
C480 C478 1.356 . S
C480 C482 1.358 . S
C480 H521 0.930 . S
C481 C479 1.353 . S
C481 N483 1.314 . S
C481 H522 0.930 . S
C482 C480 1.358 . S
C482 N483 1.279 . S
C482 H523 0.930 . S
N483 C481 1.314 . S
N483 C482 1.279 . S
C484 C486 1.353 . S
C484 N487 1.314 . S
C484 H490 0.930 . S
C485 N487 1.279 . S
C485 C488 1.358 . S
C485 H491 0.930 . S
C486 C484 1.353 . S
C486 C489 1.348 . S
C486 H524 0.929 . S
N487 Li442 1.990 . S
N487 C484 1.314 . S
N487 C485 1.279 . S
C488 C485 1.358 . S
C488 C489 1.356 . S
C488 H525 0.930 . S
C489 C486 1.348 . S
C489 C488 1.356 . S
H490 C484 0.930 . S
H491 C485 0.930 . S
C492 N493 1.314 . S
C492 C494 1.353 . S
C492 H498 0.930 . S
N493 Li443 1.990 . S
N493 C492 1.314 . S
N493 C496 1.279 . S
C494 C492 1.353 . S
C494 C497 1.348 . S
C494 H526 0.929 . S
C495 C496 1.358 . S
C495 C497 1.356 . S
C495 H527 0.930 . S
C496 N493 1.279 . S
C496 C495 1.358 . S
C496 H499 0.930 . S
C497 C494 1.348 . S
C497 C495 1.356 . S
H498 C492 0.930 . S
H499 C496 0.930 . S
O500 Li440 1.956 . S
O500 Li441 1.970 . S
O500 Li442 1.961 . S
O500 C444 1.325 . S
O501 Li440 1.970 . S
O501 Li441 1.956 . S
O501 Li443 1.961 . S
O501 C450 1.325 . S
O502 Li440 1.961 . S
O502 Li442 1.956 . S
O502 Li443 1.970 . S
O502 C472 1.325 . S
O503 Li441 1.961 . S
O503 Li442 1.970 . S
O503 Li443 1.956 . S
O503 C478 1.325 . S
H504 C446 0.929 . S
H505 C447 0.930 . S
H506 C448 0.930 1_554 S
H507 C449 0.930 . S
H508 C451 0.930 . S
H509 C453 0.929 . S
H510 C454 0.930 . S
H511 C455 0.930 . S
H512 C458 0.930 . S
H513 C461 0.929 . S
H514 C466 0.929 . S
H515 C467 0.930 . S
H516 C474 0.929 . S
H517 C475 0.930 . S
H518 C476 0.930 . S
H519 C477 0.930 . S
H520 C479 0.929 . S
H521 C480 0.930 . S
H522 C481 0.930 . S
H523 C482 0.930 . S
H524 C486 0.929 . S
H525 C488 0.930 . S
H526 C494 0.929 . S
H527 C495 0.930 . S
Li528 N545 1.990 . S
Li528 O588 1.956 . S
Li528 O589 1.970 . S
Li528 O590 1.961 . S
Li529 N553 1.990 . S
Li529 O588 1.970 . S
Li529 O589 1.956 . S
Li529 O591 1.961 . S
Li530 N575 1.990 . S
Li530 O588 1.961 . S
Li530 O590 1.956 . S
Li530 O591 1.970 . S
Li531 N581 1.990 . S
Li531 O589 1.961 . S
Li531 O590 1.970 . S
Li531 O591 1.956 . S
C532 C534 1.348 . S
C532 C535 1.356 . S
C532 O588 1.325 . S
N533 C536 1.314 . S
N533 C537 1.279 . S
C534 C532 1.348 . S
C534 C536 1.353 . S
C534 H592 0.929 . S
C535 C532 1.356 . S
C535 C537 1.358 . S
C535 H593 0.930 . S
C536 N533 1.314 . S
C536 C534 1.353 . S
C536 H594 0.930 . S
C537 N533 1.279 . S
C537 C535 1.358 . S
C537 H595 0.930 . S
C538 C541 1.348 . S
C538 C542 1.356 . S
C538 O589 1.325 . S
C539 N540 1.279 . S
C539 C542 1.358 . S
C539 H596 0.930 . S
N540 C539 1.279 . S
N540 C543 1.314 . S
C541 C538 1.348 . S
C541 C543 1.353 . S
C541 H597 0.929 . S
C542 C538 1.356 . S
C542 C539 1.358 . S
C542 H598 0.930 . S
C543 N540 1.314 . S
C543 C541 1.353 . S
C543 H599 0.930 . S
C544 N545 1.314 . S
C544 C549 1.353 . S
C544 H550 0.930 . S
N545 Li528 1.990 . S
N545 C544 1.314 . S
N545 C547 1.279 . S
C546 C547 1.358 . S
C546 C548 1.356 . S
C546 H600 0.930 . S
C547 N545 1.279 . S
C547 C546 1.358 . S
C547 H551 0.930 . S
C548 C546 1.356 . S
C548 C549 1.348 . S
C549 C544 1.353 . S
C549 C548 1.348 . S
C549 H601 0.929 . S
H550 C544 0.930 . S
H551 C547 0.930 . S
C552 N553 1.314 . S
C552 C554 1.353 . S
C552 H558 0.930 . S
N553 Li529 1.990 . S
N553 C552 1.314 . S
N553 C556 1.279 . S
C554 C552 1.353 . S
C554 C557 1.348 . S
C554 H602 0.929 . S
C555 C556 1.358 . S
C555 C557 1.356 . S
C555 H603 0.930 . S
C556 N553 1.279 . S
C556 C555 1.358 . S
C556 H559 0.930 . S
C557 C554 1.348 . S
C557 C555 1.356 . S
H558 C552 0.930 . S
H559 C556 0.930 . S
C560 C562 1.348 . S
C560 C563 1.356 . S
C560 O590 1.325 . S
N561 C564 1.314 . S
N561 C565 1.279 . S
C562 C560 1.348 . S
C562 C564 1.353 . S
C562 H604 0.929 . S
C563 C560 1.356 . S
C563 C565 1.358 . S
C563 H605 0.930 . S
C564 N561 1.314 . S
C564 C562 1.353 . S
C564 H606 0.930 . S
C565 N561 1.279 . S
C565 C563 1.358 . S
C565 H607 0.930 . S
C566 C567 1.348 . S
C566 C568 1.356 . S
C566 O591 1.325 . S
C567 C566 1.348 . S
C567 C569 1.353 . S
C567 H608 0.929 . S
C568 C566 1.356 . S
C568 C570 1.358 . S
C568 H609 0.930 . S
C569 C567 1.353 . S
C569 N571 1.314 . S
C569 H610 0.930 . S
C570 C568 1.358 . S
C570 N571 1.279 . S
C570 H611 0.930 . S
N571 C569 1.314 . S
N571 C570 1.279 . S
C572 C574 1.353 . S
C572 N575 1.314 . S
C572 H578 0.930 . S
C573 N575 1.279 . S
C573 C576 1.358 . S
C573 H579 0.930 . S
C574 C572 1.353 . S
C574 C577 1.348 . S
C574 H612 0.929 . S
N575 Li530 1.990 . S
N575 C572 1.314 . S
N575 C573 1.279 . S
C576 C573 1.358 . S
C576 C577 1.356 . S
C576 H613 0.930 . S
C577 C574 1.348 . S
C577 C576 1.356 . S
H578 C572 0.930 . S
H579 C573 0.930 . S
C580 N581 1.314 . S
C580 C582 1.353 . S
C580 H586 0.930 . S
N581 Li531 1.990 . S
N581 C580 1.314 . S
N581 C584 1.279 . S
C582 C580 1.353 . S
C582 C585 1.348 . S
C582 H614 0.929 . S
C583 C584 1.358 . S
C583 C585 1.356 . S
C583 H615 0.930 . S
C584 N581 1.279 . S
C584 C583 1.358 . S
C584 H587 0.930 . S
C585 C582 1.348 . S
C585 C583 1.356 . S
H586 C580 0.930 . S
H587 C584 0.930 . S
O588 Li528 1.956 . S
O588 Li529 1.970 . S
O588 Li530 1.961 . S
O588 C532 1.325 . S
O589 Li528 1.970 . S
O589 Li529 1.956 . S
O589 Li531 1.961 . S
O589 C538 1.325 . S
O590 Li528 1.961 . S
O590 Li530 1.956 . S
O590 Li531 1.970 . S
O590 C560 1.325 . S
O591 Li529 1.961 . S
O591 Li530 1.970 . S
O591 Li531 1.956 . S
O591 C566 1.325 . S
H592 C534 0.929 . S
H593 C535 0.930 . S
H594 C536 0.930 . S
H595 C537 0.930 . S
H596 C539 0.930 . S
H597 C541 0.929 . S
H598 C542 0.930 . S
H599 C543 0.930 . S
H600 C546 0.930 . S
H601 C549 0.929 . S
H602 C554 0.929 . S
H603 C555 0.930 . S
H604 C562 0.929 . S
H605 C563 0.930 . S
H606 C564 0.930 . S
H607 C565 0.930 . S
H608 C567 0.929 . S
H609 C568 0.930 . S
H610 C569 0.930 . S
H611 C570 0.930 . S
H612 C574 0.929 . S
H613 C576 0.930 . S
H614 C582 0.929 . S
H615 C583 0.930 . S
Li616 N633 1.990 . S
Li616 O676 1.956 . S
Li616 O677 1.970 . S
Li616 O678 1.961 . S
Li617 N641 1.990 . S
Li617 O676 1.970 . S
Li617 O677 1.956 . S
Li617 O679 1.961 . S
Li618 N663 1.990 . S
Li618 O676 1.961 . S
Li618 O678 1.956 . S
Li618 O679 1.970 . S
Li619 N669 1.990 . S
Li619 O677 1.961 . S
Li619 O678 1.970 . S
Li619 O679 1.956 . S
C620 C622 1.348 . S
C620 C623 1.356 . S
C620 O676 1.325 . S
N621 C624 1.314 . S
N621 C625 1.279 . S
C622 C620 1.348 . S
C622 C624 1.353 . S
C622 H680 0.929 . S
C623 C620 1.356 . S
C623 C625 1.358 . S
C623 H681 0.930 . S
C624 N621 1.314 . S
C624 C622 1.353 . S
C624 H682 0.930 . S
C625 N621 1.279 . S
C625 C623 1.358 . S
C625 H683 0.930 . S
C626 C629 1.348 . S
C626 C630 1.356 . S
C626 O677 1.325 . S
C627 N628 1.279 . S
C627 C630 1.358 . S
C627 H684 0.930 . S
N628 C627 1.279 . S
N628 C631 1.314 . S
C629 C626 1.348 . S
C629 C631 1.353 . S
C629 H685 0.929 . S
C630 C626 1.356 . S
C630 C627 1.358 . S
C630 H686 0.930 . S
C631 N628 1.314 . S
C631 C629 1.353 . S
C631 H687 0.930 . S
C632 N633 1.314 . S
C632 C637 1.353 . S
C632 H638 0.930 . S
N633 Li616 1.990 . S
N633 C632 1.314 . S
N633 C635 1.279 . S
C634 C635 1.358 . S
C634 C636 1.356 . S
C634 H688 0.930 . S
C635 N633 1.279 . S
C635 C634 1.358 . S
C635 H639 0.930 . S
C636 C634 1.356 . S
C636 C637 1.348 . S
C637 C632 1.353 . S
C637 C636 1.348 . S
C637 H689 0.929 . S
H638 C632 0.930 . S
H639 C635 0.930 . S
C640 N641 1.314 . S
C640 C642 1.353 . S
C640 H646 0.930 . S
N641 Li617 1.990 . S
N641 C640 1.314 . S
N641 C644 1.279 . S
C642 C640 1.353 . S
C642 C645 1.348 . S
C642 H690 0.929 . S
C643 C644 1.358 . S
C643 C645 1.356 . S
C643 H691 0.930 . S
C644 N641 1.279 . S
C644 C643 1.358 . S
C644 H647 0.930 . S
C645 C642 1.348 . S
C645 C643 1.356 . S
H646 C640 0.930 . S
H647 C644 0.930 . S
C648 C650 1.348 . S
C648 C651 1.356 . S
C648 O678 1.325 . S
N649 C652 1.314 . S
N649 C653 1.279 . S
C650 C648 1.348 . S
C650 C652 1.353 . S
C650 H692 0.929 . S
C651 C648 1.356 . S
C651 C653 1.358 . S
C651 H693 0.930 . S
C652 N649 1.314 . S
C652 C650 1.353 . S
C652 H694 0.930 . S
C653 N649 1.279 . S
C653 C651 1.358 . S
C653 H695 0.930 . S
C654 C655 1.348 . S
C654 C656 1.356 . S
C654 O679 1.325 . S
C655 C654 1.348 . S
C655 C657 1.353 . S
C655 H696 0.929 . S
C656 C654 1.356 . S
C656 C658 1.358 . S
C656 H697 0.930 . S
C657 C655 1.353 . S
C657 N659 1.314 . S
C657 H698 0.930 . S
C658 C656 1.358 . S
C658 N659 1.279 . S
C658 H699 0.930 . S
N659 C657 1.314 . S
N659 C658 1.279 . S
C660 C662 1.353 . S
C660 N663 1.314 . S
C660 H666 0.930 . S
C661 N663 1.279 . S
C661 C664 1.358 . S
C661 H667 0.930 . S
C662 C660 1.353 . S
C662 C665 1.348 . S
C662 H700 0.929 . S
N663 Li618 1.990 . S
N663 C660 1.314 . S
N663 C661 1.279 . S
C664 C661 1.358 . S
C664 C665 1.356 . S
C664 H701 0.930 . S
C665 C662 1.348 . S
C665 C664 1.356 . S
H666 C660 0.930 . S
H667 C661 0.930 . S
C668 N669 1.314 . S
C668 C670 1.353 . S
C668 H674 0.930 . S
N669 Li619 1.990 . S
N669 C668 1.314 . S
N669 C672 1.279 . S
C670 C668 1.353 . S
C670 C673 1.348 . S
C670 H702 0.929 . S
C671 C672 1.358 . S
C671 C673 1.356 . S
C671 H703 0.930 . S
C672 N669 1.279 . S
C672 C671 1.358 . S
C672 H675 0.930 . S
C673 C670 1.348 . S
C673 C671 1.356 . S
H674 C668 0.930 . S
H675 C672 0.930 . S
O676 Li616 1.956 . S
O676 Li617 1.970 . S
O676 Li618 1.961 . S
O676 C620 1.325 . S
O677 Li616 1.970 . S
O677 Li617 1.956 . S
O677 Li619 1.961 . S
O677 C626 1.325 . S
O678 Li616 1.961 . S
O678 Li618 1.956 . S
O678 Li619 1.970 . S
O678 C648 1.325 . S
O679 Li617 1.961 . S
O679 Li618 1.970 . S
O679 Li619 1.956 . S
O679 C654 1.325 . S
H680 C622 0.929 . S
H681 C623 0.930 . S
H682 C624 0.930 . S
H683 C625 0.930 . S
H684 C627 0.930 . S
H685 C629 0.929 . S
H686 C630 0.930 . S
H687 C631 0.930 . S
H688 C634 0.930 . S
H689 C637 0.929 . S
H690 C642 0.929 . S
H691 C643 0.930 . S
H692 C650 0.929 . S
H693 C651 0.930 . S
H694 C652 0.930 . S
H695 C653 0.930 . S
H696 C655 0.929 . S
H697 C656 0.930 . S
H698 C657 0.930 . S
H699 C658 0.930 . S
H700 C662 0.929 . S
H701 C664 0.930 . S
H702 C670 0.929 . S
H703 C671 0.930 . S
H704 C722 0.951 . S
H705 C724 0.951 1_565 S
H706 C726 0.950 . S
H707 C727 0.950 . S
H708 C729 0.950 . S
H709 C732 0.950 1_545 S
H710 C733 0.950 1_545 S
H711 C735 0.950 . S
H712 C736 0.950 . S
H713 C737 0.951 . S
H714 C739 0.951 1_545 S
H715 C741 0.950 . S
H716 C742 0.950 . S
H717 C744 0.950 . S
H718 C747 0.950 1_565 S
H719 C748 0.950 1_565 S
H720 C750 0.950 . S
H721 C751 0.950 . S
C722 H704 0.951 . S
C722 C723 1.366 . S
C722 C724 1.388 . S
C723 C722 1.366 . S
C723 C727 1.385 . S
C724 H705 0.951 1_545 S
C724 C722 1.388 . S
C724 C725 1.366 . S
C725 C724 1.366 . S
C725 C726 1.414 . S
C725 C728 1.499 . S
C726 H706 0.950 . S
C726 C725 1.414 . S
C726 C727 1.374 . S
C727 H707 0.950 . S
C727 C723 1.385 . S
C727 C726 1.374 . S
C728 C725 1.499 . S
C728 C729 1.373 . S
C728 C730 1.389 1_545 S
C729 H708 0.950 . S
C729 C728 1.373 . S
C729 C745 1.377 . S
C730 C728 1.389 1_565 S
C730 C731 1.524 . S
C730 C744 1.377 . S
C731 C730 1.524 . S
C731 C732 1.397 1_554 S
C731 C736 1.363 . S
C732 H709 0.950 1_565 S
C732 C731 1.397 1_556 S
C732 C733 1.334 . S
C733 H710 0.950 1_565 S
C733 C732 1.334 . S
C733 C734 1.287 . S
C734 C733 1.287 . S
C734 C735 1.524 . S
C734 H753 0.913 . S
C735 H711 0.950 . S
C735 C734 1.524 . S
C735 C736 1.415 1_556 S
C736 H712 0.950 . S
C736 C731 1.363 . S
C736 C735 1.415 1_554 S
C737 H713 0.951 . S
C737 C738 1.366 . S
C737 C739 1.388 . S
C738 C737 1.366 . S
C738 C742 1.385 . S
C739 H714 0.951 1_565 S
C739 C737 1.388 . S
C739 C740 1.366 . S
C740 C739 1.366 . S
C740 C741 1.414 . S
C740 C743 1.499 . S
C741 H715 0.950 . S
C741 C740 1.414 . S
C741 C742 1.374 . S
C742 H716 0.950 . S
C742 C738 1.385 . S
C742 C741 1.374 . S
C743 C740 1.499 . S
C743 C744 1.373 . S
C743 C745 1.389 1_565 S
C744 H717 0.950 . S
C744 C730 1.377 . S
C744 C743 1.373 . S
C745 C729 1.377 . S
C745 C743 1.389 1_545 S
C745 C746 1.524 . S
C746 C745 1.524 . S
C746 C747 1.397 . S
C746 C751 1.363 . S
C747 H718 0.950 1_545 S
C747 C746 1.397 . S
C747 C748 1.334 . S
C748 H719 0.950 1_545 S
C748 C747 1.334 . S
C748 C749 1.287 . S
C749 C748 1.287 . S
C749 C750 1.524 . S
C749 H752 0.999 . S
C750 H720 0.950 . S
C750 C749 1.524 . S
C750 C751 1.415 . S
C751 H721 0.950 . S
C751 C746 1.363 . S
C751 C750 1.415 . S
H752 C749 0.999 . S
H753 C734 0.913 . S
H754 C772 0.951 . S
H755 C774 0.951 . S
H756 C776 0.950 . S
H757 C777 0.950 . S
H758 C779 0.950 . S
H759 C782 0.950 . S
H760 C783 0.950 . S
H761 C785 0.950 . S
H762 C786 0.950 . S
H763 C787 0.951 . S
H764 C789 0.951 . S
H765 C791 0.950 . S
H766 C792 0.950 . S
H767 C794 0.950 . S
H768 C797 0.950 . S
H769 C798 0.950 . S
H770 C800 0.950 . S
H771 C801 0.950 . S
C772 H754 0.951 . S
C772 C773 1.366 . S
C772 C774 1.388 . S
C773 C772 1.366 . S
C773 C777 1.385 . S
C774 H755 0.951 . S
C774 C772 1.388 . S
C774 C775 1.366 . S
C775 C774 1.366 . S
C775 C776 1.414 . S
C775 C778 1.499 . S
C776 H756 0.950 . S
C776 C775 1.414 . S
C776 C777 1.374 . S
C777 H757 0.950 . S
C777 C773 1.385 . S
C777 C776 1.374 . S
C778 C775 1.499 . S
C778 C779 1.373 . S
C778 C780 1.389 . S
C779 H758 0.950 . S
C779 C778 1.373 . S
C779 C795 1.377 . S
C780 C778 1.389 . S
C780 C781 1.524 . S
C780 C794 1.377 . S
C781 C780 1.524 . S
C781 C782 1.397 . S
C781 C786 1.363 . S
C782 H759 0.950 . S
C782 C781 1.397 . S
C782 C783 1.334 . S
C783 H760 0.950 . S
C783 C782 1.334 . S
C783 C784 1.287 . S
C784 C783 1.287 . S
C784 C785 1.524 . S
C784 H803 0.913 . S
C785 H761 0.950 . S
C785 C784 1.524 . S
C785 C786 1.415 . S
C786 H762 0.950 . S
C786 C781 1.363 . S
C786 C785 1.415 . S
C787 H763 0.951 . S
C787 C788 1.366 . S
C787 C789 1.388 . S
C788 C787 1.366 . S
C788 C792 1.385 . S
C789 H764 0.951 . S
C789 C787 1.388 . S
C789 C790 1.366 . S
C790 C789 1.366 . S
C790 C791 1.414 . S
C790 C793 1.499 . S
C791 H765 0.950 . S
C791 C790 1.414 . S
C791 C792 1.374 . S
C792 H766 0.950 . S
C792 C788 1.385 . S
C792 C791 1.374 . S
C793 C790 1.499 . S
C793 C794 1.373 . S
C793 C795 1.389 . S
C794 H767 0.950 . S
C794 C780 1.377 . S
C794 C793 1.373 . S
C795 C779 1.377 . S
C795 C793 1.389 . S
C795 C796 1.524 . S
C796 C795 1.524 . S
C796 C797 1.397 . S
C796 C801 1.363 . S
C797 H768 0.950 . S
C797 C796 1.397 . S
C797 C798 1.334 . S
C798 H769 0.950 . S
C798 C797 1.334 . S
C798 C799 1.287 . S
C799 C798 1.287 . S
C799 C800 1.524 . S
C799 H802 0.999 . S
C800 H770 0.950 . S
C800 C799 1.524 . S
C800 C801 1.415 . S
C801 H771 0.950 . S
C801 C796 1.363 . S
C801 C800 1.415 . S
H802 C799 0.999 . S
H803 C784 0.913 . S
H804 C822 0.951 . S
H805 C824 0.951 . S
H806 C826 0.950 1_545 S
H807 C827 0.950 . S
H808 C829 0.950 . S
H809 C832 0.950 . S
H810 C833 0.950 . S
H811 C835 0.950 . S
H812 C836 0.950 1_556 S
H813 C837 0.951 . S
H814 C839 0.951 . S
H815 C841 0.950 1_565 S
H816 C842 0.950 . S
H817 C844 0.950 . S
H818 C847 0.950 . S
H819 C848 0.950 . S
H820 C850 0.950 . S
H821 C851 0.950 . S
C822 H804 0.951 . S
C822 C823 1.366 . S
C822 C824 1.388 . S
C823 C822 1.366 . S
C823 C827 1.385 . S
C824 H805 0.951 . S
C824 C822 1.388 . S
C824 C825 1.366 . S
C825 C824 1.366 . S
C825 C826 1.414 . S
C825 C828 1.499 . S
C826 H806 0.950 1_565 S
C826 C825 1.414 . S
C826 C827 1.374 . S
C827 H807 0.950 . S
C827 C823 1.385 . S
C827 C826 1.374 . S
C828 C825 1.499 . S
C828 C829 1.373 1_565 S
C828 C830 1.389 . S
C829 H808 0.950 . S
C829 C828 1.373 1_545 S
C829 C845 1.377 . S
C830 C828 1.389 . S
C830 C831 1.524 . S
C830 C844 1.377 . S
C831 C830 1.524 . S
C831 C832 1.397 1_556 S
C831 C836 1.363 1_556 S
C832 H809 0.950 . S
C832 C831 1.397 1_554 S
C832 C833 1.334 . S
C833 H810 0.950 . S
C833 C832 1.334 . S
C833 C834 1.287 . S
C834 C833 1.287 . S
C834 C835 1.524 . S
C834 H853 0.913 . S
C835 H811 0.950 . S
C835 C834 1.524 . S
C835 C836 1.415 . S
C836 H812 0.950 1_554 S
C836 C831 1.363 1_554 S
C836 C835 1.415 . S
C837 H813 0.951 . S
C837 C838 1.366 . S
C837 C839 1.388 . S
C838 C837 1.366 . S
C838 C842 1.385 . S
C839 H814 0.951 . S
C839 C837 1.388 . S
C839 C840 1.366 . S
C840 C839 1.366 . S
C840 C841 1.414 . S
C840 C843 1.499 . S
C841 H815 0.950 1_545 S
C841 C840 1.414 . S
C841 C842 1.374 . S
C842 H816 0.950 . S
C842 C838 1.385 . S
C842 C841 1.374 . S
C843 C840 1.499 . S
C843 C844 1.373 1_545 S
C843 C845 1.389 . S
C844 H817 0.950 . S
C844 C830 1.377 . S
C844 C843 1.373 1_565 S
C845 C829 1.377 . S
C845 C843 1.389 . S
C845 C846 1.524 . S
C846 C845 1.524 . S
C846 C847 1.397 . S
C846 C851 1.363 . S
C847 H818 0.950 . S
C847 C846 1.397 . S
C847 C848 1.334 . S
C848 H819 0.950 . S
C848 C847 1.334 . S
C848 C849 1.287 . S
C849 C848 1.287 . S
C849 C850 1.524 . S
C849 H852 0.999 . S
C850 H820 0.950 . S
C850 C849 1.524 . S
C850 C851 1.415 . S
C851 H821 0.950 . S
C851 C846 1.363 . S
C851 C850 1.415 . S
H852 C849 0.999 . S
H853 C834 0.913 . S
H854 C872 0.951 . S
H855 C874 0.951 . S
H856 C876 0.950 . S
H857 C877 0.950 . S
H858 C879 0.950 . S
H859 C882 0.950 . S
H860 C883 0.950 . S
H861 C885 0.950 . S
H862 C886 0.950 . S
H863 C887 0.951 . S
H864 C889 0.951 . S
H865 C891 0.950 . S
H866 C892 0.950 . S
H867 C894 0.950 . S
H868 C897 0.950 . S
H869 C898 0.950 . S
H870 C900 0.950 . S
H871 C901 0.950 . S
C872 H854 0.951 . S
C872 C873 1.366 . S
C872 C874 1.388 . S
C873 C872 1.366 . S
C873 C877 1.385 . S
C874 H855 0.951 . S
C874 C872 1.388 . S
C874 C875 1.366 . S
C875 C874 1.366 . S
C875 C876 1.414 . S
C875 C878 1.499 . S
C876 H856 0.950 . S
C876 C875 1.414 . S
C876 C877 1.374 . S
C877 H857 0.950 . S
C877 C873 1.385 . S
C877 C876 1.374 . S
C878 C875 1.499 . S
C878 C879 1.373 . S
C878 C880 1.389 . S
C879 H858 0.950 . S
C879 C878 1.373 . S
C879 C895 1.377 . S
C880 C878 1.389 . S
C880 C881 1.524 . S
C880 C894 1.377 . S
C881 C880 1.524 . S
C881 C882 1.397 . S
C881 C886 1.363 . S
C882 H859 0.950 . S
C882 C881 1.397 . S
C882 C883 1.334 . S
C883 H860 0.950 . S
C883 C882 1.334 . S
C883 C884 1.287 . S
C884 C883 1.287 . S
C884 C885 1.524 . S
C884 H903 0.913 . S
C885 H861 0.950 . S
C885 C884 1.524 . S
C885 C886 1.415 . S
C886 H862 0.950 . S
C886 C881 1.363 . S
C886 C885 1.415 . S
C887 H863 0.951 . S
C887 C888 1.366 . S
C887 C889 1.388 . S
C888 C887 1.366 . S
C888 C892 1.385 . S
C889 H864 0.951 . S
C889 C887 1.388 . S
C889 C890 1.366 . S
C890 C889 1.366 . S
C890 C891 1.414 . S
C890 C893 1.499 . S
C891 H865 0.950 . S
C891 C890 1.414 . S
C891 C892 1.374 . S
C892 H866 0.950 . S
C892 C888 1.385 . S
C892 C891 1.374 . S
C893 C890 1.499 . S
C893 C894 1.373 . S
C893 C895 1.389 . S
C894 H867 0.950 . S
C894 C880 1.377 . S
C894 C893 1.373 . S
C895 C879 1.377 . S
C895 C893 1.389 . S
C895 C896 1.524 . S
C896 C895 1.524 . S
C896 C897 1.397 . S
C896 C901 1.363 . S
C897 H868 0.950 . S
C897 C896 1.397 . S
C897 C898 1.334 . S
C898 H869 0.950 . S
C898 C897 1.334 . S
C898 C899 1.287 . S
C899 C898 1.287 . S
C899 C900 1.524 . S
C899 H902 0.999 . S
C900 H870 0.950 . S
C900 C899 1.524 . S
C900 C901 1.415 . S
C901 H871 0.950 . S
C901 C896 1.363 . S
C901 C900 1.415 . S
H902 C899 0.999 . S
H903 C884 0.913 . S
H904 C922 0.951 . S
H905 C924 0.951 . S
H906 C926 0.950 . S
H907 C927 0.950 . S
H908 C929 0.950 . S
H909 C932 0.950 . S
H910 C933 0.950 . S
H911 C935 0.950 . S
H912 C936 0.950 . S
H913 C937 0.951 . S
H914 C939 0.951 . S
H915 C941 0.950 . S
H916 C942 0.950 . S
H917 C944 0.950 . S
H918 C947 0.950 . S
H919 C948 0.950 . S
H920 C950 0.950 . S
H921 C951 0.950 . S
C922 H904 0.951 . S
C922 C923 1.366 . S
C922 C924 1.388 . S
C923 C922 1.366 . S
C923 C927 1.385 . S
C924 H905 0.951 . S
C924 C922 1.388 . S
C924 C925 1.366 . S
C925 C924 1.366 . S
C925 C926 1.414 . S
C925 C928 1.499 . S
C926 H906 0.950 . S
C926 C925 1.414 . S
C926 C927 1.374 . S
C927 H907 0.950 . S
C927 C923 1.385 . S
C927 C926 1.374 . S
C928 C925 1.499 . S
C928 C929 1.373 . S
C928 C930 1.389 . S
C929 H908 0.950 . S
C929 C928 1.373 . S
C929 C945 1.377 . S
C930 C928 1.389 . S
C930 C931 1.524 . S
C930 C944 1.377 . S
C931 C930 1.524 . S
C931 C932 1.397 . S
C931 C936 1.363 . S
C932 H909 0.950 . S
C932 C931 1.397 . S
C932 C933 1.334 . S
C933 H910 0.950 . S
C933 C932 1.334 . S
C933 C934 1.287 . S
C934 C933 1.287 . S
C934 C935 1.524 . S
C934 H953 0.913 . S
C935 H911 0.950 . S
C935 C934 1.524 . S
C935 C936 1.415 . S
C936 H912 0.950 . S
C936 C931 1.363 . S
C936 C935 1.415 . S
C937 H913 0.951 . S
C937 C938 1.366 . S
C937 C939 1.388 . S
C938 C937 1.366 . S
C938 C942 1.385 . S
C939 H914 0.951 . S
C939 C937 1.388 . S
C939 C940 1.366 . S
C940 C939 1.366 . S
C940 C941 1.414 . S
C940 C943 1.499 . S
C941 H915 0.950 . S
C941 C940 1.414 . S
C941 C942 1.374 . S
C942 H916 0.950 . S
C942 C938 1.385 . S
C942 C941 1.374 . S
C943 C940 1.499 . S
C943 C944 1.373 . S
C943 C945 1.389 . S
C944 H917 0.950 . S
C944 C930 1.377 . S
C944 C943 1.373 . S
C945 C929 1.377 . S
C945 C943 1.389 . S
C945 C946 1.524 . S
C946 C945 1.524 . S
C946 C947 1.397 . S
C946 C951 1.363 . S
C947 H918 0.950 . S
C947 C946 1.397 . S
C947 C948 1.334 . S
C948 H919 0.950 . S
C948 C947 1.334 . S
C948 C949 1.287 . S
C949 C948 1.287 . S
C949 C950 1.524 . S
C949 H952 0.999 . S
C950 H920 0.950 . S
C950 C949 1.524 . S
C950 C951 1.415 . S
C951 H921 0.950 . S
C951 C946 1.363 . S
C951 C950 1.415 . S
H952 C949 0.999 . S
H953 C934 0.913 . S
H954 C972 0.951 . S
H955 C974 0.951 . S
H956 C976 0.950 . S
H957 C977 0.950 . S
H958 C979 0.950 . S
H959 C982 0.950 . S
H960 C983 0.950 . S
H961 C985 0.950 . S
H962 C986 0.950 . S
H963 C987 0.951 . S
H964 C989 0.951 . S
H965 C991 0.950 . S
H966 C992 0.950 . S
H967 C994 0.950 . S
H968 C997 0.950 . S
H969 C998 0.950 . S
H970 C1000 0.950 . S
H971 C1001 0.950 . S
C972 H954 0.951 . S
C972 C973 1.366 . S
C972 C974 1.388 . S
C973 C972 1.366 . S
C973 C977 1.385 . S
C974 H955 0.951 . S
C974 C972 1.388 . S
C974 C975 1.366 . S
C975 C974 1.366 . S
C975 C976 1.414 . S
C975 C978 1.499 . S
C976 H956 0.950 . S
C976 C975 1.414 . S
C976 C977 1.374 . S
C977 H957 0.950 . S
C977 C973 1.385 . S
C977 C976 1.374 . S
C978 C975 1.499 . S
C978 C979 1.373 . S
C978 C980 1.389 . S
C979 H958 0.950 . S
C979 C978 1.373 . S
C979 C995 1.377 . S
C980 C978 1.389 . S
C980 C981 1.524 . S
C980 C994 1.377 . S
C981 C980 1.524 . S
C981 C982 1.397 . S
C981 C986 1.363 . S
C982 H959 0.950 . S
C982 C981 1.397 . S
C982 C983 1.334 . S
C983 H960 0.950 . S
C983 C982 1.334 . S
C983 C984 1.287 . S
C984 C983 1.287 . S
C984 C985 1.524 . S
C984 H1003 0.913 . S
C985 H961 0.950 . S
C985 C984 1.524 . S
C985 C986 1.415 . S
C986 H962 0.950 . S
C986 C981 1.363 . S
C986 C985 1.415 . S
C987 H963 0.951 . S
C987 C988 1.366 . S
C987 C989 1.388 . S
C988 C987 1.366 . S
C988 C992 1.385 . S
C989 H964 0.951 . S
C989 C987 1.388 . S
C989 C990 1.366 . S
C990 C989 1.366 . S
C990 C991 1.414 . S
C990 C993 1.499 . S
C991 H965 0.950 . S
C991 C990 1.414 . S
C991 C992 1.374 . S
C992 H966 0.950 . S
C992 C988 1.385 . S
C992 C991 1.374 . S
C993 C990 1.499 . S
C993 C994 1.373 . S
C993 C995 1.389 . S
C994 H967 0.950 . S
C994 C980 1.377 . S
C994 C993 1.373 . S
C995 C979 1.377 . S
C995 C993 1.389 . S
C995 C996 1.524 . S
C996 C995 1.524 . S
C996 C997 1.397 . S
C996 C1001 1.363 . S
C997 H968 0.950 . S
C997 C996 1.397 . S
C997 C998 1.334 . S
C998 H969 0.950 . S
C998 C997 1.334 . S
C998 C999 1.287 . S
C999 C998 1.287 . S
C999 C1000 1.524 . S
C999 H1002 0.999 . S
C1000 H970 0.950 . S
C1000 C999 1.524 . S
C1000 C1001 1.415 . S
C1001 H971 0.950 . S
C1001 C996 1.363 . S
C1001 C1000 1.415 . S
H1002 C999 0.999 . S
H1003 C984 0.913 . S
H1004 C1022 0.951 . S
H1005 C1024 0.951 . S
H1006 C1026 0.950 . S
H1007 C1027 0.950 . S
H1008 C1029 0.950 . S
H1009 C1032 0.950 . S
H1010 C1033 0.950 . S
H1011 C1035 0.950 . S
H1012 C1036 0.950 . S
H1013 C1037 0.951 . S
H1014 C1039 0.951 . S
H1015 C1041 0.950 . S
H1016 C1042 0.950 . S
H1017 C1044 0.950 . S
H1018 C1047 0.950 . S
H1019 C1048 0.950 . S
H1020 C1050 0.950 . S
H1021 C1051 0.950 . S
C1022 H1004 0.951 . S
C1022 C1023 1.366 . S
C1022 C1024 1.388 . S
C1023 C1022 1.366 . S
C1023 C1027 1.385 . S
C1024 H1005 0.951 . S
C1024 C1022 1.388 . S
C1024 C1025 1.366 . S
C1025 C1024 1.366 . S
C1025 C1026 1.414 . S
C1025 C1028 1.499 . S
C1026 H1006 0.950 . S
C1026 C1025 1.414 . S
C1026 C1027 1.374 . S
C1027 H1007 0.950 . S
C1027 C1023 1.385 . S
C1027 C1026 1.374 . S
C1028 C1025 1.499 . S
C1028 C1029 1.373 . S
C1028 C1030 1.389 . S
C1029 H1008 0.950 . S
C1029 C1028 1.373 . S
C1029 C1045 1.377 . S
C1030 C1028 1.389 . S
C1030 C1031 1.524 . S
C1030 C1044 1.377 . S
C1031 C1030 1.524 . S
C1031 C1032 1.397 . S
C1031 C1036 1.363 . S
C1032 H1009 0.950 . S
C1032 C1031 1.397 . S
C1032 C1033 1.334 . S
C1033 H1010 0.950 . S
C1033 C1032 1.334 . S
C1033 C1034 1.287 . S
C1034 C1033 1.287 . S
C1034 C1035 1.524 . S
C1034 H1053 0.913 . S
C1035 H1011 0.950 . S
C1035 C1034 1.524 . S
C1035 C1036 1.415 . S
C1036 H1012 0.950 . S
C1036 C1031 1.363 . S
C1036 C1035 1.415 . S
C1037 H1013 0.951 . S
C1037 C1038 1.366 . S
C1037 C1039 1.388 . S
C1038 C1037 1.366 . S
C1038 C1042 1.385 . S
C1039 H1014 0.951 . S
C1039 C1037 1.388 . S
C1039 C1040 1.366 . S
C1040 C1039 1.366 . S
C1040 C1041 1.414 . S
C1040 C1043 1.499 . S
C1041 H1015 0.950 . S
C1041 C1040 1.414 . S
C1041 C1042 1.374 . S
C1042 H1016 0.950 . S
C1042 C1038 1.385 . S
C1042 C1041 1.374 . S
C1043 C1040 1.499 . S
C1043 C1044 1.373 . S
C1043 C1045 1.389 . S
C1044 H1017 0.950 . S
C1044 C1030 1.377 . S
C1044 C1043 1.373 . S
C1045 C1029 1.377 . S
C1045 C1043 1.389 . S
C1045 C1046 1.524 . S
C1046 C1045 1.524 . S
C1046 C1047 1.397 . S
C1046 C1051 1.363 . S
C1047 H1018 0.950 . S
C1047 C1046 1.397 . S
C1047 C1048 1.334 . S
C1048 H1019 0.950 . S
C1048 C1047 1.334 . S
C1048 C1049 1.287 . S
C1049 C1048 1.287 . S
C1049 C1050 1.524 . S
C1049 H1052 0.999 . S
C1050 H1020 0.950 . S
C1050 C1049 1.524 . S
C1050 C1051 1.415 . S
C1051 H1021 0.950 . S
C1051 C1046 1.363 . S
C1051 C1050 1.415 . S
H1052 C1049 0.999 . S
H1053 C1034 0.913 . S
H1054 C1072 0.951 . S
H1055 C1074 0.951 . S
H1056 C1076 0.950 . S
H1057 C1077 0.950 . S
H1058 C1079 0.950 . S
H1059 C1082 0.950 . S
H1060 C1083 0.950 . S
H1061 C1085 0.950 . S
H1062 C1086 0.950 . S
H1063 C1087 0.951 . S
H1064 C1089 0.951 . S
H1065 C1091 0.950 . S
H1066 C1092 0.950 . S
H1067 C1094 0.950 . S
H1068 C1097 0.950 . S
H1069 C1098 0.950 . S
H1070 C1100 0.950 . S
H1071 C1101 0.950 . S
C1072 H1054 0.951 . S
C1072 C1073 1.366 . S
C1072 C1074 1.388 . S
C1073 C1072 1.366 . S
C1073 C1077 1.385 . S
C1074 H1055 0.951 . S
C1074 C1072 1.388 . S
C1074 C1075 1.366 . S
C1075 C1074 1.366 . S
C1075 C1076 1.414 . S
C1075 C1078 1.499 . S
C1076 H1056 0.950 . S
C1076 C1075 1.414 . S
C1076 C1077 1.374 . S
C1077 H1057 0.950 . S
C1077 C1073 1.385 . S
C1077 C1076 1.374 . S
C1078 C1075 1.499 . S
C1078 C1079 1.373 . S
C1078 C1080 1.389 . S
C1079 H1058 0.950 . S
C1079 C1078 1.373 . S
C1079 C1095 1.377 . S
C1080 C1078 1.389 . S
C1080 C1081 1.524 . S
C1080 C1094 1.377 . S
C1081 C1080 1.524 . S
C1081 C1082 1.397 . S
C1081 C1086 1.363 . S
C1082 H1059 0.950 . S
C1082 C1081 1.397 . S
C1082 C1083 1.334 . S
C1083 H1060 0.950 . S
C1083 C1082 1.334 . S
C1083 C1084 1.287 . S
C1084 C1083 1.287 . S
C1084 C1085 1.524 . S
C1084 H1103 0.913 . S
C1085 H1061 0.950 . S
C1085 C1084 1.524 . S
C1085 C1086 1.415 . S
C1086 H1062 0.950 . S
C1086 C1081 1.363 . S
C1086 C1085 1.415 . S
C1087 H1063 0.951 . S
C1087 C1088 1.366 . S
C1087 C1089 1.388 . S
C1088 C1087 1.366 . S
C1088 C1092 1.385 . S
C1089 H1064 0.951 . S
C1089 C1087 1.388 . S
C1089 C1090 1.366 . S
C1090 C1089 1.366 . S
C1090 C1091 1.414 . S
C1090 C1093 1.499 . S
C1091 H1065 0.950 . S
C1091 C1090 1.414 . S
C1091 C1092 1.374 . S
C1092 H1066 0.950 . S
C1092 C1088 1.385 . S
C1092 C1091 1.374 . S
C1093 C1090 1.499 . S
C1093 C1094 1.373 . S
C1093 C1095 1.389 . S
C1094 H1067 0.950 . S
C1094 C1080 1.377 . S
C1094 C1093 1.373 . S
C1095 C1079 1.377 . S
C1095 C1093 1.389 . S
C1095 C1096 1.524 . S
C1096 C1095 1.524 . S
C1096 C1097 1.397 . S
C1096 C1101 1.363 . S
C1097 H1068 0.950 . S
C1097 C1096 1.397 . S
C1097 C1098 1.334 . S
C1098 H1069 0.950 . S
C1098 C1097 1.334 . S
C1098 C1099 1.287 . S
C1099 C1098 1.287 . S
C1099 C1100 1.524 . S
C1099 H1102 0.999 . S
C1100 H1070 0.950 . S
C1100 C1099 1.524 . S
C1100 C1101 1.415 . S
C1101 H1071 0.950 . S
C1101 C1096 1.363 . S
C1101 C1100 1.415 . S
H1102 C1099 0.999 . S
H1103 C1084 0.913 . S
H1104 C1122 0.951 . S
H1105 C1124 0.951 . S
H1106 C1126 0.950 . S
H1107 C1127 0.950 . S
H1108 C1129 0.950 . S
H1109 C1132 0.950 . S
H1110 C1133 0.950 . S
H1111 C1135 0.950 . S
H1112 C1136 0.950 . S
H1113 C1137 0.951 . S
H1114 C1139 0.951 . S
H1115 C1141 0.950 . S
H1116 C1142 0.950 . S
H1117 C1144 0.950 . S
H1118 C1147 0.950 . S
H1119 C1148 0.950 . S
H1120 C1150 0.950 . S
H1121 C1151 0.950 . S
C1122 H1104 0.951 . S
C1122 C1123 1.366 . S
C1122 C1124 1.388 . S
C1123 C1122 1.366 . S
C1123 C1127 1.385 1_554 S
C1124 H1105 0.951 . S
C1124 C1122 1.388 . S
C1124 C1125 1.366 . S
C1125 C1124 1.366 . S
C1125 C1126 1.414 1_554 S
C1125 C1128 1.499 . S
C1126 H1106 0.950 . S
C1126 C1125 1.414 1_556 S
C1126 C1127 1.374 . S
C1127 H1107 0.950 . S
C1127 C1123 1.385 1_556 S
C1127 C1126 1.374 . S
C1128 C1125 1.499 . S
C1128 C1129 1.373 1_554 S
C1128 C1130 1.389 . S
C1129 H1108 0.950 . S
C1129 C1128 1.373 1_556 S
C1129 C1145 1.377 . S
C1130 C1128 1.389 . S
C1130 C1131 1.524 . S
C1130 C1144 1.377 . S
C1131 C1130 1.524 . S
C1131 C1132 1.397 . S
C1131 C1136 1.363 . S
C1132 H1109 0.950 . S
C1132 C1131 1.397 . S
C1132 C1133 1.334 . S
C1133 H1110 0.950 . S
C1133 C1132 1.334 . S
C1133 C1134 1.287 . S
C1134 C1133 1.287 . S
C1134 C1135 1.524 . S
C1134 H1153 0.913 . S
C1135 H1111 0.950 . S
C1135 C1134 1.524 . S
C1135 C1136 1.415 . S
C1136 H1112 0.950 . S
C1136 C1131 1.363 . S
C1136 C1135 1.415 . S
C1137 H1113 0.951 . S
C1137 C1138 1.366 . S
C1137 C1139 1.388 . S
C1138 C1137 1.366 . S
C1138 C1142 1.385 1_556 S
C1139 H1114 0.951 . S
C1139 C1137 1.388 . S
C1139 C1140 1.366 . S
C1140 C1139 1.366 . S
C1140 C1141 1.414 1_556 S
C1140 C1143 1.499 . S
C1141 H1115 0.950 . S
C1141 C1140 1.414 1_554 S
C1141 C1142 1.374 . S
C1142 H1116 0.950 . S
C1142 C1138 1.385 1_554 S
C1142 C1141 1.374 . S
C1143 C1140 1.499 . S
C1143 C1144 1.373 1_556 S
C1143 C1145 1.389 . S
C1144 H1117 0.950 . S
C1144 C1130 1.377 . S
C1144 C1143 1.373 1_554 S
C1145 C1129 1.377 . S
C1145 C1143 1.389 . S
C1145 C1146 1.524 . S
C1146 C1145 1.524 . S
C1146 C1147 1.397 . S
C1146 C1151 1.363 . S
C1147 H1118 0.950 . S
C1147 C1146 1.397 . S
C1147 C1148 1.334 . S
C1148 H1119 0.950 . S
C1148 C1147 1.334 . S
C1148 C1149 1.287 . S
C1149 C1148 1.287 . S
C1149 C1150 1.524 . S
C1149 H1152 0.999 . S
C1150 H1120 0.950 . S
C1150 C1149 1.524 . S
C1150 C1151 1.415 . S
C1151 H1121 0.950 . S
C1151 C1146 1.363 . S
C1151 C1150 1.415 . S
H1152 C1149 0.999 . S
H1153 C1134 0.913 . S
H1154 C1172 0.951 . S
H1155 C1174 0.951 . S
H1156 C1176 0.950 1_655 S
H1157 C1177 0.950 . S
H1158 C1179 0.950 . S
H1159 C1182 0.950 . S
H1160 C1183 0.950 . S
H1161 C1185 0.950 . S
H1162 C1186 0.950 . S
H1163 C1187 0.951 . S
H1164 C1189 0.951 . S
H1165 C1191 0.950 1_455 S
H1166 C1192 0.950 . S
H1167 C1194 0.950 . S
H1168 C1197 0.950 . S
H1169 C1198 0.950 . S
H1170 C1200 0.950 . S
H1171 C1201 0.950 . S
C1172 H1154 0.951 . S
C1172 C1173 1.366 . S
C1172 C1174 1.388 . S
C1173 C1172 1.366 . S
C1173 C1177 1.385 . S
C1174 H1155 0.951 . S
C1174 C1172 1.388 . S
C1174 C1175 1.366 . S
C1175 C1174 1.366 . S
C1175 C1176 1.414 . S
C1175 C1178 1.499 . S
C1176 H1156 0.950 1_455 S
C1176 C1175 1.414 . S
C1176 C1177 1.374 . S
C1177 H1157 0.950 . S
C1177 C1173 1.385 . S
C1177 C1176 1.374 . S
C1178 C1175 1.499 . S
C1178 C1179 1.373 1_455 S
C1178 C1180 1.389 1_554 S
C1179 H1158 0.950 . S
C1179 C1178 1.373 1_655 S
C1179 C1195 1.377 . S
C1180 C1178 1.389 1_556 S
C1180 C1181 1.524 . S
C1180 C1194 1.377 . S
C1181 C1180 1.524 . S
C1181 C1182 1.397 . S
C1181 C1186 1.363 . S
C1182 H1159 0.950 . S
C1182 C1181 1.397 . S
C1182 C1183 1.334 . S
C1183 H1160 0.950 . S
C1183 C1182 1.334 . S
C1183 C1184 1.287 . S
C1184 C1183 1.287 . S
C1184 C1185 1.524 . S
C1184 H1203 0.913 . S
C1185 H1161 0.950 . S
C1185 C1184 1.524 . S
C1185 C1186 1.415 . S
C1186 H1162 0.950 . S
C1186 C1181 1.363 . S
C1186 C1185 1.415 . S
C1187 H1163 0.951 . S
C1187 C1188 1.366 . S
C1187 C1189 1.388 . S
C1188 C1187 1.366 . S
C1188 C1192 1.385 . S
C1189 H1164 0.951 . S
C1189 C1187 1.388 . S
C1189 C1190 1.366 . S
C1190 C1189 1.366 . S
C1190 C1191 1.414 . S
C1190 C1193 1.499 . S
C1191 H1165 0.950 1_655 S
C1191 C1190 1.414 . S
C1191 C1192 1.374 . S
C1192 H1166 0.950 . S
C1192 C1188 1.385 . S
C1192 C1191 1.374 . S
C1193 C1190 1.499 . S
C1193 C1194 1.373 1_655 S
C1193 C1195 1.389 1_556 S
C1194 H1167 0.950 . S
C1194 C1180 1.377 . S
C1194 C1193 1.373 1_455 S
C1195 C1179 1.377 . S
C1195 C1193 1.389 1_554 S
C1195 C1196 1.524 . S
C1196 C1195 1.524 . S
C1196 C1197 1.397 . S
C1196 C1201 1.363 . S
C1197 H1168 0.950 . S
C1197 C1196 1.397 . S
C1197 C1198 1.334 . S
C1198 H1169 0.950 . S
C1198 C1197 1.334 . S
C1198 C1199 1.287 . S
C1199 C1198 1.287 . S
C1199 C1200 1.524 . S
C1199 H1202 0.999 . S
C1200 H1170 0.950 . S
C1200 C1199 1.524 . S
C1200 C1201 1.415 . S
C1201 H1171 0.950 . S
C1201 C1196 1.363 . S
C1201 C1200 1.415 . S
H1202 C1199 0.999 . S
H1203 C1184 0.913 . S
H1204 C1222 0.951 . S
H1205 C1224 0.951 . S
H1206 C1226 0.950 . S
H1207 C1227 0.950 . S
H1208 C1229 0.950 . S
H1209 C1232 0.950 . S
H1210 C1233 0.950 . S
H1211 C1235 0.956 . S
H1212 C1236 0.950 1_545 S
H1213 C1237 0.951 . S
H1214 C1239 0.951 . S
H1215 C1241 0.950 . S
H1216 C1242 0.950 . S
H1217 C1244 0.950 . S
H1218 C1247 0.950 . S
H1219 C1248 0.950 . S
H1220 C1250 0.948 . S
H1221 C1251 0.950 1_565 S
C1222 H1204 0.951 . S
C1222 C1223 1.366 . S
C1222 C1224 1.388 . S
C1223 C1222 1.366 . S
C1223 C1227 1.385 . S
C1224 H1205 0.951 . S
C1224 C1222 1.388 . S
C1224 C1225 1.366 . S
C1225 C1224 1.366 . S
C1225 C1226 1.414 . S
C1225 C1228 1.499 . S
C1226 H1206 0.950 . S
C1226 C1225 1.414 . S
C1226 C1227 1.374 . S
C1227 H1207 0.950 . S
C1227 C1223 1.385 . S
C1227 C1226 1.374 . S
C1228 C1225 1.499 . S
C1228 C1229 1.373 . S
C1228 C1230 1.389 . S
C1229 H1208 0.950 . S
C1229 C1228 1.373 . S
C1229 C1245 1.377 1_565 S
C1230 C1228 1.389 . S
C1230 C1231 1.524 . S
C1230 C1244 1.377 1_565 S
C1231 C1230 1.524 . S
C1231 C1232 1.397 . S
C1231 C1236 1.363 . S
C1232 H1209 0.950 . S
C1232 C1231 1.397 . S
C1232 C1233 1.334 . S
C1233 H1210 0.950 . S
C1233 C1232 1.334 . S
C1233 C1234 1.287 . S
C1234 C1233 1.287 . S
C1234 C1235 1.524 . S
C1234 H1253 0.913 . S
C1235 H1211 0.956 . S
C1235 C1234 1.524 . S
C1235 C1236 1.415 . S
C1236 H1212 0.950 1_565 S
C1236 C1231 1.363 . S
C1236 C1235 1.415 . S
C1237 H1213 0.951 . S
C1237 C1238 1.366 . S
C1237 C1239 1.388 . S
C1238 C1237 1.366 . S
C1238 C1242 1.385 . S
C1239 H1214 0.951 . S
C1239 C1237 1.388 . S
C1239 C1240 1.366 . S
C1240 C1239 1.366 . S
C1240 C1241 1.414 . S
C1240 C1243 1.499 . S
C1241 H1215 0.950 . S
C1241 C1240 1.414 . S
C1241 C1242 1.374 . S
C1242 H1216 0.950 . S
C1242 C1238 1.385 . S
C1242 C1241 1.374 . S
C1243 C1240 1.499 . S
C1243 C1244 1.373 . S
C1243 C1245 1.389 . S
C1244 H1217 0.950 . S
C1244 C1230 1.377 1_545 S
C1244 C1243 1.373 . S
C1245 C1229 1.377 1_545 S
C1245 C1243 1.389 . S
C1245 C1246 1.524 . S
C1246 C1245 1.524 . S
C1246 C1247 1.397 . S
C1246 C1251 1.363 . S
C1247 H1218 0.950 . S
C1247 C1246 1.397 . S
C1247 C1248 1.334 . S
C1248 H1219 0.950 . S
C1248 C1247 1.334 . S
C1248 C1249 1.287 . S
C1249 C1248 1.287 . S
C1249 C1250 1.524 . S
C1249 H1252 0.999 . S
C1250 H1220 0.948 . S
C1250 C1249 1.524 . S
C1250 C1251 1.415 . S
C1251 H1221 0.950 1_545 S
C1251 C1246 1.363 . S
C1251 C1250 1.415 . S
H1252 C1249 0.999 . S
H1253 C1234 0.913 . S
H1254 C1272 0.951 . S
H1255 C1274 0.952 1_455 S
H1256 C1276 0.950 . S
H1257 C1277 0.950 . S
H1258 C1279 0.950 . S
H1259 C1282 0.950 . S
H1260 C1283 0.950 . S
H1261 C1285 0.950 1_455 S
H1262 C1286 0.946 . S
H1263 C1287 0.951 . S
H1264 C1289 0.961 . S
H1265 C1291 0.950 . S
H1266 C1292 0.950 . S
H1267 C1294 0.950 . S
H1268 C1297 0.950 . S
H1269 C1298 0.950 . S
H1270 C1300 0.917 1_655 S
H1271 C1301 0.935 1_655 S
C1272 H1254 0.951 . S
C1272 C1273 1.366 . S
C1272 C1274 1.388 . S
C1273 C1272 1.366 . S
C1273 C1277 1.385 . S
C1274 H1255 0.952 1_655 S
C1274 C1272 1.388 . S
C1274 C1275 1.366 . S
C1275 C1274 1.366 . S
C1275 C1276 1.414 . S
C1275 C1278 1.499 . S
C1276 H1256 0.950 . S
C1276 C1275 1.414 . S
C1276 C1277 1.374 . S
C1277 H1257 0.950 . S
C1277 C1273 1.385 . S
C1277 C1276 1.374 . S
C1278 C1275 1.499 . S
C1278 C1279 1.373 . S
C1278 C1280 1.389 . S
C1279 H1258 0.950 . S
C1279 C1278 1.373 . S
C1279 C1295 1.377 1_645 S
C1280 C1278 1.389 . S
C1280 C1281 1.524 . S
C1280 C1294 1.377 1_645 S
C1281 C1280 1.524 . S
C1281 C1282 1.397 . S
C1281 C1286 1.365 1_655 S
C1282 H1259 0.950 . S
C1282 C1281 1.397 . S
C1282 C1283 1.334 . S
C1283 H1260 0.950 . S
C1283 C1282 1.334 . S
C1283 C1284 1.287 . S
C1284 C1283 1.287 . S
C1284 C1285 1.524 . S
C1284 H1303 0.913 . S
C1285 H1261 0.950 1_655 S
C1285 C1284 1.524 . S
C1285 C1286 1.416 1_655 S
C1286 H1262 0.946 . S
C1286 C1281 1.365 1_455 S
C1286 C1285 1.416 1_455 S
C1287 H1263 0.951 . S
C1287 C1288 1.366 . S
C1287 C1289 1.388 . S
C1288 C1287 1.366 . S
C1288 C1292 1.385 . S
C1289 H1264 0.961 . S
C1289 C1287 1.388 . S
C1289 C1290 1.366 . S
C1290 C1289 1.366 . S
C1290 C1291 1.414 . S
C1290 C1293 1.499 . S
C1291 H1265 0.950 . S
C1291 C1290 1.414 . S
C1291 C1292 1.374 . S
C1292 H1266 0.950 . S
C1292 C1288 1.385 . S
C1292 C1291 1.374 . S
C1293 C1290 1.499 . S
C1293 C1294 1.373 . S
C1293 C1295 1.389 . S
C1294 H1267 0.950 . S
C1294 C1280 1.377 1_465 S
C1294 C1293 1.373 . S
C1295 C1279 1.377 1_465 S
C1295 C1293 1.389 . S
C1295 C1296 1.524 . S
C1296 C1295 1.524 . S
C1296 C1297 1.397 . S
C1296 C1301 1.373 . S
C1297 H1268 0.950 . S
C1297 C1296 1.397 . S
C1297 C1298 1.334 . S
C1298 H1269 0.950 . S
C1298 C1297 1.334 . S
C1298 C1299 1.287 . S
C1299 C1298 1.287 . S
C1299 C1300 1.524 . S
C1299 H1302 0.999 . S
C1300 H1270 0.917 1_455 S
C1300 C1299 1.524 . S
C1300 C1301 1.420 . S
C1301 H1271 0.935 1_455 S
C1301 C1296 1.373 . S
C1301 C1300 1.420 . S
H1302 C1299 0.999 . S
H1303 C1284 0.913 . S
H1304 C1322 0.951 . S
H1305 C1324 0.951 . S
H1306 C1326 0.950 . S
H1307 C1327 0.950 . S
H1308 C1329 0.950 . S
H1309 C1332 0.950 . S
H1310 C1333 0.950 . S
H1311 C1335 0.950 . S
H1312 C1336 0.950 . S
H1313 C1337 0.951 . S
H1314 C1339 0.951 . S
H1315 C1341 0.950 . S
H1316 C1342 0.950 . S
H1317 C1344 0.950 . S
H1318 C1347 0.950 . S
H1319 C1348 0.950 . S
H1320 C1350 0.950 . S
H1321 C1351 0.950 . S
C1322 H1304 0.951 . S
C1322 C1323 1.366 . S
C1322 C1324 1.388 . S
C1323 C1322 1.366 . S
C1323 C1327 1.385 . S
C1324 H1305 0.951 . S
C1324 C1322 1.388 . S
C1324 C1325 1.366 . S
C1325 C1324 1.366 . S
C1325 C1326 1.414 . S
C1325 C1328 1.499 . S
C1326 H1306 0.950 . S
C1326 C1325 1.414 . S
C1326 C1327 1.374 . S
C1327 H1307 0.950 . S
C1327 C1323 1.385 . S
C1327 C1326 1.374 . S
C1328 C1325 1.499 . S
C1328 C1329 1.373 . S
C1328 C1330 1.389 . S
C1329 H1308 0.950 . S
C1329 C1328 1.373 . S
C1329 C1345 1.377 . S
C1330 C1328 1.389 . S
C1330 C1331 1.524 . S
C1330 C1344 1.377 . S
C1331 C1330 1.524 . S
C1331 C1332 1.397 . S
C1331 C1336 1.363 . S
C1332 H1309 0.950 . S
C1332 C1331 1.397 . S
C1332 C1333 1.334 . S
C1333 H1310 0.950 . S
C1333 C1332 1.334 . S
C1333 C1334 1.287 . S
C1334 C1333 1.287 . S
C1334 C1335 1.524 . S
C1334 H1353 0.913 . S
C1335 H1311 0.950 . S
C1335 C1334 1.524 . S
C1335 C1336 1.415 . S
C1336 H1312 0.950 . S
C1336 C1331 1.363 . S
C1336 C1335 1.415 . S
C1337 H1313 0.951 . S
C1337 C1338 1.366 . S
C1337 C1339 1.388 . S
C1338 C1337 1.366 . S
C1338 C1342 1.385 . S
C1339 H1314 0.951 . S
C1339 C1337 1.388 . S
C1339 C1340 1.366 . S
C1340 C1339 1.366 . S
C1340 C1341 1.414 . S
C1340 C1343 1.499 . S
C1341 H1315 0.950 . S
C1341 C1340 1.414 . S
C1341 C1342 1.374 . S
C1342 H1316 0.950 . S
C1342 C1338 1.385 . S
C1342 C1341 1.374 . S
C1343 C1340 1.499 . S
C1343 C1344 1.373 . S
C1343 C1345 1.389 . S
C1344 H1317 0.950 . S
C1344 C1330 1.377 . S
C1344 C1343 1.373 . S
C1345 C1329 1.377 . S
C1345 C1343 1.389 . S
C1345 C1346 1.524 . S
C1346 C1345 1.524 . S
C1346 C1347 1.397 . S
C1346 C1351 1.363 . S
C1347 H1318 0.950 . S
C1347 C1346 1.397 . S
C1347 C1348 1.334 . S
C1348 H1319 0.950 . S
C1348 C1347 1.334 . S
C1348 C1349 1.287 . S
C1349 C1348 1.287 . S
C1349 C1350 1.524 . S
C1349 H1352 0.999 . S
C1350 H1320 0.950 . S
C1350 C1349 1.524 . S
C1350 C1351 1.415 . S
C1351 H1321 0.950 . S
C1351 C1346 1.363 . S
C1351 C1350 1.415 . S
H1352 C1349 0.999 . S
H1353 C1334 0.913 . S
H1354 C1372 0.951 . S
H1355 C1374 0.951 . S
H1356 C1376 0.950 . S
H1357 C1377 0.950 . S
H1358 C1379 0.950 . S
H1359 C1382 0.950 . S
H1360 C1383 0.950 . S
H1361 C1385 0.950 1_565 S
H1362 C1386 0.950 . S
H1363 C1387 0.951 . S
H1364 C1389 0.951 . S
H1365 C1391 0.950 . S
H1366 C1392 0.950 . S
H1367 C1394 0.950 . S
H1368 C1397 0.950 . S
H1369 C1398 0.950 . S
H1370 C1400 0.950 1_545 S
H1371 C1401 0.950 . S
C1372 H1354 0.951 . S
C1372 C1373 1.366 . S
C1372 C1374 1.388 . S
C1373 C1372 1.366 . S
C1373 C1377 1.385 . S
C1374 H1355 0.951 . S
C1374 C1372 1.388 . S
C1374 C1375 1.366 . S
C1375 C1374 1.366 . S
C1375 C1376 1.414 . S
C1375 C1378 1.499 . S
C1376 H1356 0.950 . S
C1376 C1375 1.414 . S
C1376 C1377 1.374 . S
C1377 H1357 0.950 . S
C1377 C1373 1.385 . S
C1377 C1376 1.374 . S
C1378 C1375 1.499 . S
C1378 C1379 1.373 . S
C1378 C1380 1.389 . S
C1379 H1358 0.950 . S
C1379 C1378 1.373 . S
C1379 C1395 1.377 1_545 S
C1380 C1378 1.389 . S
C1380 C1381 1.524 . S
C1380 C1394 1.377 1_545 S
C1381 C1380 1.524 . S
C1381 C1382 1.397 . S
C1381 C1386 1.363 1_545 S
C1382 H1359 0.950 . S
C1382 C1381 1.397 . S
C1382 C1383 1.334 . S
C1383 H1360 0.950 . S
C1383 C1382 1.334 . S
C1383 C1384 1.287 . S
C1384 C1383 1.287 . S
C1384 C1385 1.524 . S
C1384 H1403 0.913 . S
C1385 H1361 0.950 1_545 S
C1385 C1384 1.524 . S
C1385 C1386 1.415 1_545 S
C1386 H1362 0.950 . S
C1386 C1381 1.363 1_565 S
C1386 C1385 1.415 1_565 S
C1387 H1363 0.951 . S
C1387 C1388 1.366 . S
C1387 C1389 1.388 . S
C1388 C1387 1.366 . S
C1388 C1392 1.385 . S
C1389 H1364 0.951 . S
C1389 C1387 1.388 . S
C1389 C1390 1.366 . S
C1390 C1389 1.366 . S
C1390 C1391 1.414 . S
C1390 C1393 1.499 . S
C1391 H1365 0.950 . S
C1391 C1390 1.414 . S
C1391 C1392 1.374 . S
C1392 H1366 0.950 . S
C1392 C1388 1.385 . S
C1392 C1391 1.374 . S
C1393 C1390 1.499 . S
C1393 C1394 1.373 . S
C1393 C1395 1.389 . S
C1394 H1367 0.950 . S
C1394 C1380 1.377 1_565 S
C1394 C1393 1.373 . S
C1395 C1379 1.377 1_565 S
C1395 C1393 1.389 . S
C1395 C1396 1.524 . S
C1396 C1395 1.524 . S
C1396 C1397 1.397 . S
C1396 C1401 1.363 1_565 S
C1397 H1368 0.950 . S
C1397 C1396 1.397 . S
C1397 C1398 1.334 . S
C1398 H1369 0.950 . S
C1398 C1397 1.334 . S
C1398 C1399 1.287 . S
C1399 C1398 1.287 . S
C1399 C1400 1.524 . S
C1399 H1402 0.999 . S
C1400 H1370 0.950 1_565 S
C1400 C1399 1.524 . S
C1400 C1401 1.415 1_565 S
C1401 H1371 0.950 . S
C1401 C1396 1.363 1_545 S
C1401 C1400 1.415 1_545 S
H1402 C1399 0.999 . S
H1403 C1384 0.913 . S
H1404 C1422 0.951 . S
H1405 C1424 0.951 . S
H1406 C1426 0.950 . S
H1407 C1427 0.950 . S
H1408 C1429 0.950 . S
H1409 C1432 0.950 . S
H1410 C1433 0.950 . S
H1411 C1435 0.950 . S
H1412 C1436 0.950 . S
H1413 C1437 0.951 . S
H1414 C1439 0.951 . S
H1415 C1441 0.950 . S
H1416 C1442 0.950 . S
H1417 C1444 0.950 . S
H1418 C1447 0.950 . S
H1419 C1448 0.950 . S
H1420 C1450 0.950 . S
H1421 C1451 0.950 . S
C1422 H1404 0.951 . S
C1422 C1423 1.366 . S
C1422 C1424 1.388 . S
C1423 C1422 1.366 . S
C1423 C1427 1.385 . S
C1424 H1405 0.951 . S
C1424 C1422 1.388 . S
C1424 C1425 1.366 . S
C1425 C1424 1.366 . S
C1425 C1426 1.414 . S
C1425 C1428 1.499 . S
C1426 H1406 0.950 . S
C1426 C1425 1.414 . S
C1426 C1427 1.374 . S
C1427 H1407 0.950 . S
C1427 C1423 1.385 . S
C1427 C1426 1.374 . S
C1428 C1425 1.499 . S
C1428 C1429 1.373 . S
C1428 C1430 1.389 . S
C1429 H1408 0.950 . S
C1429 C1428 1.373 . S
C1429 C1445 1.377 . S
C1430 C1428 1.389 . S
C1430 C1431 1.524 . S
C1430 C1444 1.377 . S
C1431 C1430 1.524 . S
C1431 C1432 1.397 . S
C1431 C1436 1.363 . S
C1432 H1409 0.950 . S
C1432 C1431 1.397 . S
C1432 C1433 1.334 . S
C1433 H1410 0.950 . S
C1433 C1432 1.334 . S
C1433 C1434 1.287 . S
C1434 C1433 1.287 . S
C1434 C1435 1.524 . S
C1434 H1453 0.913 . S
C1435 H1411 0.950 . S
C1435 C1434 1.524 . S
C1435 C1436 1.415 . S
C1436 H1412 0.950 . S
C1436 C1431 1.363 . S
C1436 C1435 1.415 . S
C1437 H1413 0.951 . S
C1437 C1438 1.366 . S
C1437 C1439 1.388 . S
C1438 C1437 1.366 . S
C1438 C1442 1.385 . S
C1439 H1414 0.951 . S
C1439 C1437 1.388 . S
C1439 C1440 1.366 . S
C1440 C1439 1.366 . S
C1440 C1441 1.414 . S
C1440 C1443 1.499 . S
C1441 H1415 0.950 . S
C1441 C1440 1.414 . S
C1441 C1442 1.374 . S
C1442 H1416 0.950 . S
C1442 C1438 1.385 . S
C1442 C1441 1.374 . S
C1443 C1440 1.499 . S
C1443 C1444 1.373 . S
C1443 C1445 1.389 . S
C1444 H1417 0.950 . S
C1444 C1430 1.377 . S
C1444 C1443 1.373 . S
C1445 C1429 1.377 . S
C1445 C1443 1.389 . S
C1445 C1446 1.524 . S
C1446 C1445 1.524 . S
C1446 C1447 1.397 . S
C1446 C1451 1.363 . S
C1447 H1418 0.950 . S
C1447 C1446 1.397 . S
C1447 C1448 1.334 . S
C1448 H1419 0.950 . S
C1448 C1447 1.334 . S
C1448 C1449 1.287 . S
C1449 C1448 1.287 . S
C1449 C1450 1.524 . S
C1449 H1452 0.999 . S
C1450 H1420 0.950 . S
C1450 C1449 1.524 . S
C1450 C1451 1.415 . S
C1451 H1421 0.950 . S
C1451 C1446 1.363 . S
C1451 C1450 1.415 . S
H1452 C1449 0.999 . S
H1453 C1434 0.913 . S
H1454 C1472 0.951 . S
H1455 C1474 0.951 . S
H1456 C1476 0.950 . S
H1457 C1477 0.950 . S
H1458 C1479 0.950 . S
H1459 C1482 0.950 . S
H1460 C1483 0.950 . S
H1461 C1485 0.950 . S
H1462 C1486 0.950 . S
H1463 C1487 0.951 . S
H1464 C1489 0.951 . S
H1465 C1491 0.950 . S
H1466 C1492 0.950 . S
H1467 C1494 0.950 . S
H1468 C1497 0.950 . S
H1469 C1498 0.950 . S
H1470 C1500 0.950 . S
H1471 C1501 0.950 . S
C1472 H1454 0.951 . S
C1472 C1473 1.366 . S
C1472 C1474 1.388 . S
C1473 C1472 1.366 . S
C1473 C1477 1.385 . S
C1474 H1455 0.951 . S
C1474 C1472 1.388 . S
C1474 C1475 1.366 . S
C1475 C1474 1.366 . S
C1475 C1476 1.414 . S
C1475 C1478 1.499 . S
C1476 H1456 0.950 . S
C1476 C1475 1.414 . S
C1476 C1477 1.374 . S
C1477 H1457 0.950 . S
C1477 C1473 1.385 . S
C1477 C1476 1.374 . S
C1478 C1475 1.499 . S
C1478 C1479 1.371 1_565 S
C1478 C1480 1.389 . S
C1479 H1458 0.950 . S
C1479 C1478 1.371 1_545 S
C1479 C1495 1.379 . S
C1480 C1478 1.389 . S
C1480 C1481 1.524 . S
C1480 C1494 1.379 . S
C1481 C1480 1.524 . S
C1481 C1482 1.397 . S
C1481 C1486 1.363 . S
C1482 H1459 0.950 . S
C1482 C1481 1.397 . S
C1482 C1483 1.334 . S
C1483 H1460 0.950 . S
C1483 C1482 1.334 . S
C1483 C1484 1.287 . S
C1484 C1483 1.287 . S
C1484 C1485 1.524 . S
C1484 H1503 0.913 . S
C1485 H1461 0.950 . S
C1485 C1484 1.524 . S
C1485 C1486 1.415 . S
C1486 H1462 0.950 . S
C1486 C1481 1.363 . S
C1486 C1485 1.415 . S
C1487 H1463 0.951 . S
C1487 C1488 1.366 . S
C1487 C1489 1.388 . S
C1488 C1487 1.366 . S
C1488 C1492 1.385 . S
C1489 H1464 0.951 . S
C1489 C1487 1.388 . S
C1489 C1490 1.366 . S
C1490 C1489 1.366 . S
C1490 C1491 1.414 . S
C1490 C1493 1.499 . S
C1491 H1465 0.950 . S
C1491 C1490 1.414 . S
C1491 C1492 1.374 . S
C1492 H1466 0.950 . S
C1492 C1488 1.385 . S
C1492 C1491 1.374 . S
C1493 C1490 1.499 . S
C1493 C1494 1.370 1_545 S
C1493 C1495 1.389 . S
C1494 H1467 0.950 . S
C1494 C1480 1.379 . S
C1494 C1493 1.370 1_565 S
C1495 C1479 1.379 . S
C1495 C1493 1.389 . S
C1495 C1496 1.524 . S
C1496 C1495 1.524 . S
C1496 C1497 1.397 . S
C1496 C1501 1.363 . S
C1497 H1468 0.950 . S
C1497 C1496 1.397 . S
C1497 C1498 1.334 . S
C1498 H1469 0.950 . S
C1498 C1497 1.334 . S
C1498 C1499 1.287 . S
C1499 C1498 1.287 . S
C1499 C1500 1.524 . S
C1499 H1502 0.999 . S
C1500 H1470 0.950 . S
C1500 C1499 1.524 . S
C1500 C1501 1.415 . S
C1501 H1471 0.950 . S
C1501 C1496 1.363 . S
C1501 C1500 1.415 . S
H1502 C1499 0.999 . S
H1503 C1484 0.913 . S
C723 C49 1.679 . S
C738 C137 1.679 . S
C773 C284 1.679 . S
C788 C205 1.680 . S
C823 C401 1.689 . S
C838 C489 1.690 . S
C873 C557 1.689 . S
C888 C636 1.690 . S
C923 C29 1.605 . S
C938 C225 1.605 . S
C973 C321 1.605 . S
C988 C117 1.605 . S
C1023 C409 1.602 . S
C1038 C548 1.603 . S
C1073 C645 1.602 . S
C1088 C497 1.603 . S
C1123 C20 1.991 . S
C1138 C372 1.986 . S
C1173 C108 1.990 . S
C1188 C460 1.985 . S
C1223 C585 1.986 . S
C1238 C233 1.990 . S
C1273 C665 1.985 . S
C1288 C313 1.990 . S
C1323 C145 0.365 . S
C1338 C57 0.366 . S
C1373 C196 0.367 . S
C1388 C293 0.365 . S
C1423 C381 0.346 . S
C1438 C469 0.346 . S
C1473 C577 0.347 . S
C1488 C673 0.345 . S
