# Generated by pormake.
# Topology whk, (6)-cn, num edge types: 1
# Building blocks:
#     Node 0, Type 0, BuildingBlock: CUWYAW_clean_sbu_0, # of connection points: 6
#     Node 1, Type 0, BuildingBlock: CUWYAW_clean_sbu_0, # of connection points: 6
#     Node 2, Type 0, BuildingBlock: CUWYAW_clean_sbu_0, # of connection points: 6
#     Node 3, Type 0, BuildingBlock: CUWYAW_clean_sbu_0, # of connection points: 6
#     Node 4, Type 0, BuildingBlock: CUWYAW_clean_sbu_0, # of connection points: 6
#     Node 5, Type 0, BuildingBlock: CUWYAW_clean_sbu_0, # of connection points: 6
#     Node 6, Type 0, BuildingBlock: CUWYAW_clean_sbu_0, # of connection points: 6
#     Node 7, Type 0, BuildingBlock: CUWYAW_clean_sbu_0, # of connection points: 6
#     Node 8, Type 0, BuildingBlock: CUWYAW_clean_sbu_0, # of connection points: 6
#     Node 9, Type 0, BuildingBlock: CUWYAW_clean_sbu_0, # of connection points: 6
#     Node 10, Type 0, BuildingBlock: CUWYAW_clean_sbu_0, # of connection points: 6
#     Node 11, Type 0, BuildingBlock: CUWYAW_clean_sbu_0, # of connection points: 6
#     Node 12, Type 0, BuildingBlock: CUWYAW_clean_sbu_0, # of connection points: 6
#     Node 13, Type 0, BuildingBlock: CUWYAW_clean_sbu_0, # of connection points: 6
#     Node 14, Type 0, BuildingBlock: CUWYAW_clean_sbu_0, # of connection points: 6
#     Node 15, Type 0, BuildingBlock: CUWYAW_clean_sbu_0, # of connection points: 6
#     Edge 16, Type (0, 0), BuildingBlock: CIFDUS_clean_linker_0, # of connection points: 2
#     Edge 17, Type (0, 0), BuildingBlock: CIFDUS_clean_linker_0, # of connection points: 2
#     Edge 18, Type (0, 0), BuildingBlock: CIFDUS_clean_linker_0, # of connection points: 2
#     Edge 19, Type (0, 0), BuildingBlock: CIFDUS_clean_linker_0, # of connection points: 2
#     Edge 20, Type (0, 0), BuildingBlock: CIFDUS_clean_linker_0, # of connection points: 2
#     Edge 21, Type (0, 0), BuildingBlock: CIFDUS_clean_linker_0, # of connection points: 2
#     Edge 22, Type (0, 0), BuildingBlock: CIFDUS_clean_linker_0, # of connection points: 2
#     Edge 23, Type (0, 0), BuildingBlock: CIFDUS_clean_linker_0, # of connection points: 2
#     Edge 24, Type (0, 0), BuildingBlock: CIFDUS_clean_linker_0, # of connection points: 2
#     Edge 25, Type (0, 0), BuildingBlock: CIFDUS_clean_linker_0, # of connection points: 2
#     Edge 26, Type (0, 0), BuildingBlock: CIFDUS_clean_linker_0, # of connection points: 2
#     Edge 27, Type (0, 0), BuildingBlock: CIFDUS_clean_linker_0, # of connection points: 2
#     Edge 28, Type (0, 0), BuildingBlock: CIFDUS_clean_linker_0, # of connection points: 2
#     Edge 29, Type (0, 0), BuildingBlock: CIFDUS_clean_linker_0, # of connection points: 2
#     Edge 30, Type (0, 0), BuildingBlock: CIFDUS_clean_linker_0, # of connection points: 2
#     Edge 31, Type (0, 0), BuildingBlock: CIFDUS_clean_linker_0, # of connection points: 2
#     Edge 32, Type (0, 0), BuildingBlock: CIFDUS_clean_linker_0, # of connection points: 2
#     Edge 33, Type (0, 0), BuildingBlock: CIFDUS_clean_linker_0, # of connection points: 2
#     Edge 34, Type (0, 0), BuildingBlock: CIFDUS_clean_linker_0, # of connection points: 2
#     Edge 35, Type (0, 0), BuildingBlock: CIFDUS_clean_linker_0, # of connection points: 2
#     Edge 36, Type (0, 0), BuildingBlock: CIFDUS_clean_linker_0, # of connection points: 2
#     Edge 37, Type (0, 0), BuildingBlock: CIFDUS_clean_linker_0, # of connection points: 2
#     Edge 38, Type (0, 0), BuildingBlock: CIFDUS_clean_linker_0, # of connection points: 2
#     Edge 39, Type (0, 0), BuildingBlock: CIFDUS_clean_linker_0, # of connection points: 2
#     Edge 40, Type (0, 0), BuildingBlock: CIFDUS_clean_linker_0, # of connection points: 2
#     Edge 41, Type (0, 0), BuildingBlock: CIFDUS_clean_linker_0, # of connection points: 2
#     Edge 42, Type (0, 0), BuildingBlock: CIFDUS_clean_linker_0, # of connection points: 2
#     Edge 43, Type (0, 0), BuildingBlock: CIFDUS_clean_linker_0, # of connection points: 2
#     Edge 44, Type (0, 0), BuildingBlock: CIFDUS_clean_linker_0, # of connection points: 2
#     Edge 45, Type (0, 0), BuildingBlock: CIFDUS_clean_linker_0, # of connection points: 2
#     Edge 46, Type (0, 0), BuildingBlock: CIFDUS_clean_linker_0, # of connection points: 2
#     Edge 47, Type (0, 0), BuildingBlock: CIFDUS_clean_linker_0, # of connection points: 2
#     Edge 48, Type (0, 0), BuildingBlock: CIFDUS_clean_linker_0, # of connection points: 2
#     Edge 49, Type (0, 0), BuildingBlock: CIFDUS_clean_linker_0, # of connection points: 2
#     Edge 50, Type (0, 0), BuildingBlock: CIFDUS_clean_linker_0, # of connection points: 2
#     Edge 51, Type (0, 0), BuildingBlock: CIFDUS_clean_linker_0, # of connection points: 2
#     Edge 52, Type (0, 0), BuildingBlock: CIFDUS_clean_linker_0, # of connection points: 2
#     Edge 53, Type (0, 0), BuildingBlock: CIFDUS_clean_linker_0, # of connection points: 2
#     Edge 54, Type (0, 0), BuildingBlock: CIFDUS_clean_linker_0, # of connection points: 2
#     Edge 55, Type (0, 0), BuildingBlock: CIFDUS_clean_linker_0, # of connection points: 2
#     Edge 56, Type (0, 0), BuildingBlock: CIFDUS_clean_linker_0, # of connection points: 2
#     Edge 57, Type (0, 0), BuildingBlock: CIFDUS_clean_linker_0, # of connection points: 2
#     Edge 58, Type (0, 0), BuildingBlock: CIFDUS_clean_linker_0, # of connection points: 2
#     Edge 59, Type (0, 0), BuildingBlock: CIFDUS_clean_linker_0, # of connection points: 2
#     Edge 60, Type (0, 0), BuildingBlock: CIFDUS_clean_linker_0, # of connection points: 2
#     Edge 61, Type (0, 0), BuildingBlock: CIFDUS_clean_linker_0, # of connection points: 2
#     Edge 62, Type (0, 0), BuildingBlock: CIFDUS_clean_linker_0, # of connection points: 2
#     Edge 63, Type (0, 0), BuildingBlock: CIFDUS_clean_linker_0, # of connection points: 2
# Relax obj value: 0.654
# Max RMSD: 0.315
# Mean RMSD: 0.315
data_MOF--net-whk--node1-CUWYAW_clean_sbu_0--edge1-CIFDUS_clean_linker_0
_symmetry_space_group_name_H-M    P1
_symmetry_Int_Tables_number       1
_symmetry_cell_setting            triclinic
loop_
_symmetry_equiv_pos_as_xyz
'x, y, z'
_cell_length_a     42.210559
_cell_length_b     42.128553
_cell_length_c     32.242345
_cell_angle_alpha  90.007197
_cell_angle_beta   89.945709
_cell_angle_gamma 89.994423
loop_
_atom_site_label
_atom_site_type_symbol
_atom_site_fract_x
_atom_site_fract_y
_atom_site_fract_z
_atom_type_partial_charge
C0 C 0.53096 0.19068 0.41239 0.0
Eu1 Eu 0.5797 0.22904 0.40895 0.0
C2 C 0.50304 0.16846 0.41129 0.0
C3 C 0.48566 0.16092 0.44723 0.0
C4 C 0.45798 0.14217 0.44493 0.0
C5 C 0.44685 0.13017 0.40664 0.0
C6 C 0.4648 0.13717 0.37093 0.0
C7 C 0.49228 0.15603 0.3732 0.0
C8 C 0.60579 0.27497 0.45838 0.0
C9 C 0.55393 0.29856 0.37547 0.0
C10 C 0.66536 0.29996 0.32237 0.0
Eu11 Eu 0.62423 0.26852 0.36495 0.0
C12 C 0.67688 0.28924 0.2817 0.0
C13 C 0.67688 0.3098 0.24749 0.0
C14 C 0.68391 0.29826 0.20774 0.0
C15 C 0.69158 0.26596 0.20154 0.0
C16 C 0.68903 0.24529 0.23593 0.0
C17 C 0.68195 0.25678 0.27521 0.0
C18 C 0.60661 0.21715 0.31773 0.0
C19 C 0.65196 0.21368 0.42838 0.0
O20 O 0.54341 0.20135 0.37788 0.0
O21 O 0.54559 0.20035 0.44614 0.0
O22 O 0.59611 0.24762 0.47277 0.0
O23 O 0.5974 0.27788 0.42129 0.0
O24 O 0.54623 0.26925 0.38661 0.0
O25 O 0.58426 0.30529 0.37003 0.0
O26 O 0.67344 0.28279 0.35462 0.0
O27 O 0.63533 0.30698 0.32232 0.0
O28 O 0.60338 0.24638 0.30679 0.0
O29 O 0.61309 0.21714 0.356 0.0
O30 O 0.65783 0.24134 0.40962 0.0
O31 O 0.62308 0.20133 0.42798 0.0
H32 H 0.49306 0.17005 0.47708 0.0
H33 H 0.44525 0.1371 0.47333 0.0
H34 H 0.45713 0.12887 0.34079 0.0
H35 H 0.50484 0.16129 0.34472 0.0
H36 H 0.67136 0.33472 0.2515 0.0
H37 H 0.68483 0.31496 0.18226 0.0
H38 H 0.69446 0.22029 0.23365 0.0
H39 H 0.68052 0.24004 0.30066 0.0
C40 C 0.38416 0.54011 0.41367 0.0
Eu41 Eu 0.34494 0.5884 0.41369 0.0
C42 C 0.40767 0.51327 0.41059 0.0
C43 C 0.40856 0.48828 0.43967 0.0
C44 C 0.42906 0.46198 0.4341 0.0
C45 C 0.44969 0.46016 0.39964 0.0
C46 C 0.44888 0.48542 0.37095 0.0
C47 C 0.42815 0.51129 0.37616 0.0
C48 C 0.29768 0.61132 0.46468 0.0
C49 C 0.27627 0.56193 0.3769 0.0
C50 C 0.25931 0.67783 0.36223 0.0
Eu51 Eu 0.30177 0.6348 0.37572 0.0
C52 C 0.22455 0.68071 0.36603 0.0
C53 C 0.21175 0.69916 0.398 0.0
C54 C 0.17996 0.70797 0.3971 0.0
C55 C 0.16025 0.69912 0.36361 0.0
C56 C 0.17212 0.67674 0.33507 0.0
C57 C 0.20409 0.66798 0.3359 0.0
C58 C 0.35058 0.62027 0.32269 0.0
C59 C 0.36292 0.66055 0.43181 0.0
O60 O 0.37467 0.55494 0.38019 0.0
O61 O 0.37288 0.55209 0.44838 0.0
O62 O 0.32616 0.60495 0.47836 0.0
O63 O 0.29599 0.60298 0.42756 0.0
O64 O 0.30539 0.5549 0.38951 0.0
O65 O 0.26838 0.59208 0.37206 0.0
O66 O 0.27025 0.65903 0.33323 0.0
O67 O 0.27564 0.67641 0.39668 0.0
O68 O 0.32095 0.62205 0.31244 0.0
O69 O 0.35275 0.62419 0.36169 0.0
O70 O 0.33549 0.66747 0.41342 0.0
O71 O 0.3736 0.631 0.43289 0.0
H72 H 0.39293 0.48873 0.46632 0.0
H73 H 0.42903 0.44324 0.45708 0.0
H74 H 0.46402 0.48499 0.34382 0.0
H75 H 0.4281 0.52982 0.35288 0.0
H76 H 0.22679 0.70881 0.42212 0.0
H77 H 0.17223 0.72471 0.42035 0.0
H78 H 0.15758 0.66838 0.30968 0.0
H79 H 0.21311 0.65296 0.31132 0.0
C80 C 0.03862 0.38759 0.41455 0.0
Eu81 Eu 0.99114 0.34769 0.41749 0.0
C82 C 0.06518 0.41126 0.41033 0.0
C83 C 0.08987 0.41333 0.43962 0.0
C84 C 0.11577 0.43418 0.43347 0.0
C85 C 0.11743 0.45399 0.39821 0.0
C86 C 0.09249 0.45198 0.36925 0.0
C87 C 0.06703 0.43086 0.37503 0.0
C88 C 0.96793 0.30185 0.46889 0.0
C89 C 1.01583 0.27877 0.37959 0.0
C90 C 0.8989 0.26043 0.36423 0.0
Eu91 Eu 0.94211 0.30335 0.37921 0.0
C92 C 0.87194 0.25477 0.33631 0.0
C93 C 0.84533 0.27469 0.33635 0.0
C94 C 0.82428 0.27387 0.30305 0.0
C95 C 0.82923 0.25275 0.2699 0.0
C96 C 0.8533 0.23003 0.27274 0.0
C97 C 0.87472 0.23121 0.30561 0.0
C98 C 0.95536 0.3547 0.32866 0.0
C99 C 0.91819 0.36406 0.43713 0.0
O100 O 1.0239 0.37671 0.38166 0.0
O101 O 1.02702 0.37729 0.45002 0.0
O102 O 0.97698 0.3297 0.48259 0.0
O103 O 0.97467 0.29926 0.43113 0.0
O104 O 1.02374 0.30657 0.396 0.0
O105 O 0.98581 0.27209 0.37204 0.0
O106 O 0.89611 0.2818 0.39357 0.0
O107 O 0.92635 0.26181 0.34563 0.0
O108 O 0.94975 0.32609 0.31566 0.0
O109 O 0.95404 0.35394 0.36783 0.0
O110 O 0.91105 0.33607 0.42011 0.0
O111 O 0.94759 0.37541 0.43674 0.0
H112 H 0.08947 0.39842 0.46698 0.0
H113 H 0.13428 0.43511 0.45667 0.0
H114 H 0.09285 0.46652 0.34155 0.0
H115 H 0.04868 0.42988 0.3516 0.0
H116 H 0.84216 0.29258 0.36013 0.0
H117 H 0.80498 0.29077 0.30222 0.0
H118 H 0.85679 0.21277 0.24834 0.0
H119 H 0.89464 0.21498 0.30565 0.0
C120 C 0.19352 0.04458 0.41515 0.0
Eu121 Eu 0.22737 0.99261 0.41083 0.0
C122 C 0.17398 0.07447 0.41453 0.0
C123 C 0.16476 0.09011 0.45119 0.0
C124 C 0.14677 0.11836 0.44972 0.0
C125 C 0.13728 0.13185 0.41152 0.0
C126 C 0.14646 0.11596 0.37496 0.0
C127 C 0.16446 0.08788 0.37645 0.0
C128 C 0.27315 0.96402 0.45843 0.0
C129 C 0.29773 1.0118 0.3703 0.0
C130 C 0.28145 0.89254 0.33424 0.0
Eu131 Eu 0.26197 0.94463 0.36631 0.0
C132 C 0.25785 0.86879 0.3204 0.0
C133 C 0.24086 0.87337 0.28318 0.0
C134 C 0.21177 0.85817 0.27676 0.0
C135 C 0.19888 0.83862 0.30771 0.0
C136 C 0.21701 0.83237 0.34334 0.0
C137 C 0.24625 0.84684 0.34932 0.0
C138 C 0.21279 0.96679 0.32006 0.0
C139 C 0.20323 0.92264 0.42834 0.0
O140 O 0.20366 1.03196 0.38045 0.0
O141 O 0.20187 1.02882 0.44863 0.0
O142 O 0.24635 0.97436 0.47371 0.0
O143 O 0.27521 0.97208 0.42104 0.0
O144 O 0.27064 1.02174 0.38703 0.0
O145 O 0.30142 0.98126 0.36196 0.0
O146 O 0.28243 0.89748 0.37437 0.0
O147 O 0.28169 0.9191 0.31329 0.0
O148 O 0.24213 0.96754 0.30873 0.0
O149 O 0.21193 0.96016 0.35843 0.0
O150 O 0.2297 0.91444 0.40881 0.0
O151 O 0.19463 0.95279 0.42996 0.0
H152 H 0.17151 0.08056 0.48109 0.0
H153 H 0.13999 0.12944 0.47869 0.0
H154 H 0.14022 0.12552 0.34489 0.0
H155 H 0.17105 0.07672 0.34744 0.0
H156 H 0.24903 0.89013 0.26006 0.0
H157 H 0.19894 0.86259 0.24828 0.0
H158 H 0.20869 0.81599 0.36679 0.0
H159 H 0.25873 0.84245 0.37812 0.0
C160 C 0.0375 0.88515 0.07866 0.0
Eu161 Eu 0.08668 0.84723 0.08049 0.0
C162 C 1.0089 0.90652 0.08045 0.0
C163 C 0.99604 0.92056 0.04461 0.0
C164 C 0.96796 0.93875 0.04658 0.0
C165 C 0.95172 0.94352 0.08449 0.0
C166 C 0.96499 0.92977 0.12035 0.0
C167 C 0.99298 0.91163 0.11836 0.0
C168 C 0.11274 0.80396 0.02652 0.0
C169 C 0.06091 0.77686 0.11011 0.0
C170 C 0.17623 0.76064 0.13825 0.0
Eu171 Eu 0.13332 0.80249 0.11818 0.0
C172 C 0.19649 0.75356 0.17404 0.0
C173 C 0.19399 0.72375 0.19348 0.0
C174 C 0.2102 0.71765 0.23041 0.0
C175 C 0.22868 0.7415 0.24844 0.0
C176 C 0.23184 0.77096 0.22838 0.0
C177 C 0.21606 0.77689 0.19132 0.0
C178 C 0.11481 0.84904 0.17347 0.0
C179 C 0.1592 0.86529 0.06697 0.0
O180 O 0.04919 0.87271 0.1126 0.0
O181 O 0.05343 0.87793 0.04486 0.0
O182 O 0.10422 0.83243 0.01495 0.0
O183 O 0.10397 0.79954 0.06312 0.0
O184 O 0.05348 0.80659 0.10095 0.0
O185 O 0.09101 0.76891 0.11402 0.0
O186 O 0.18245 0.78594 0.1161 0.0
O187 O 0.14605 0.75722 0.14535 0.0
O188 O 0.11851 0.8193 0.18232 0.0
O189 O 0.12 0.85235 0.13507 0.0
O190 O 0.16547 0.83572 0.07928 0.0
O191 O 0.13015 0.87711 0.06962 0.0
H192 H 1.00747 0.91719 0.01485 0.0
H193 H 0.95906 0.94918 0.01821 0.0
H194 H 0.95333 0.93227 0.15009 0.0
H195 H 1.00184 0.9011 0.1467 0.0
H196 H 0.179 0.70541 0.18046 0.0
H197 H 0.20825 0.69454 0.24491 0.0
H198 H 0.24683 0.78937 0.24128 0.0
H199 H 0.21836 0.80006 0.17707 0.0
C200 C 0.69484 0.04196 0.08574 0.0
Eu201 Eu 0.73434 0.09025 0.0846 0.0
C202 C 0.67167 1.01455 0.08885 0.0
C203 C 0.66796 0.99202 0.05676 0.0
C204 C 0.64835 0.96489 0.06187 0.0
C205 C 0.63133 0.95963 0.09903 0.0
C206 C 0.635 0.9824 0.13084 0.0
C207 C 0.65489 1.00907 0.12599 0.0
C208 C 0.78175 0.1116 0.03395 0.0
C209 C 0.80218 0.06056 0.12246 0.0
C210 C 0.8295 0.17304 0.13424 0.0
Eu211 Eu 0.78185 0.13462 0.12397 0.0
C212 C 0.84481 0.20394 0.14006 0.0
C213 C 0.8329 0.23146 0.1216 0.0
C214 C 0.84731 0.26066 0.12937 0.0
C215 C 0.87393 0.26291 0.15584 0.0
C216 C 0.88702 0.23479 0.17174 0.0
C217 C 0.87253 0.20558 0.16391 0.0
C218 C 0.73233 0.12134 0.17671 0.0
C219 C 0.7208 0.16497 0.07162 0.0
O220 O 0.70658 0.05534 0.11912 0.0
O221 O 0.70338 0.05598 0.05095 0.0
O222 O 0.75295 0.10652 0.0203 0.0
O223 O 0.78358 0.10285 0.07111 0.0
O224 O 0.77522 0.05542 0.10214 0.0
O225 O 0.80952 0.08941 0.13483 0.0
O226 O 0.817 0.16666 0.09808 0.0
O227 O 0.81424 0.1601 0.16529 0.0
O228 O 0.76191 0.12362 0.18745 0.0
O229 O 0.73046 0.12554 0.13772 0.0
O230 O 0.74913 0.1694 0.08911 0.0
O231 O 0.70798 0.13611 0.06915 0.0
H232 H 0.68075 0.99501 0.02789 0.0
H233 H 0.64614 0.94826 0.03644 0.0
H234 H 0.62271 0.97941 0.16007 0.0
H235 H 0.65721 1.02545 0.1517 0.0
H236 H 0.81176 0.23059 0.1026 0.0
H237 H 0.83603 0.28163 0.11687 0.0
H238 H 0.90766 0.23544 0.19163 0.0
H239 H 0.88248 0.18429 0.17754 0.0
C240 C 0.53633 0.68343 0.0745 0.0
Eu241 Eu 0.49463 0.72946 0.08509 0.0
C242 C 0.56877 0.66879 0.07705 0.0
C243 C 0.57101 0.63574 0.08261 0.0
C244 C 0.60053 0.62044 0.08615 0.0
C245 C 0.62918 0.63759 0.08428 0.0
C246 C 0.62693 0.67087 0.07844 0.0
C247 C 0.59716 0.68627 0.07501 0.0
C248 C 0.46851 0.7757 0.03665 0.0
C249 C 0.52539 0.79769 0.11674 0.0
C250 C 0.41623 0.80963 0.17465 0.0
Eu251 Eu 0.45369 0.77287 0.13218 0.0
C252 C 0.40452 0.80534 0.21733 0.0
C253 C 0.42322 0.78939 0.2469 0.0
C254 C 0.40947 0.77698 0.2828 0.0
C255 C 0.37696 0.78087 0.28992 0.0
C256 C 0.35946 0.80085 0.26327 0.0
C257 C 0.37306 0.81264 0.22693 0.0
C258 C 0.47083 0.72055 0.17839 0.0
C259 C 0.41935 0.72046 0.07092 0.0
O260 O 0.52095 0.68862 0.10908 0.0
O261 O 0.52913 0.70406 0.04549 0.0
O262 O 0.47618 0.74764 0.02241 0.0
O263 O 0.47838 0.77878 0.07325 0.0
O264 O 0.53142 0.76757 0.10665 0.0
O265 O 0.49568 0.80624 0.12329 0.0
O266 O 0.40578 0.78917 0.14733 0.0
O267 O 0.44662 0.81437 0.17128 0.0
O268 O 0.4754 0.74963 0.18918 0.0
O269 O 0.46271 0.72106 0.14071 0.0
O270 O 0.4167 0.74834 0.0903 0.0
O271 O 0.44742 0.7063 0.06777 0.0
H272 H 0.54966 0.62152 0.08425 0.0
H273 H 0.60079 0.59489 0.08976 0.0
H274 H 0.6482 0.68518 0.07712 0.0
H275 H 0.59637 0.71178 0.07101 0.0
H276 H 0.44787 0.78427 0.24088 0.0
H277 H 0.42341 0.7616 0.30261 0.0
H278 H 0.33419 0.80404 0.26762 0.0
H279 H 0.35832 0.82511 0.20478 0.0
C280 C 0.88598 0.54077 0.07385 0.0
Eu281 Eu 0.84741 0.49244 0.07631 0.0
C282 C 0.9101 0.56676 0.07669 0.0
C283 C 0.91104 0.59192 0.04797 0.0
C284 C 0.93224 0.61756 0.05331 0.0
C285 C 0.95341 0.61842 0.08717 0.0
C286 C 0.95254 0.59295 0.11549 0.0
C287 C 0.93115 0.56771 0.11048 0.0
C288 C 0.8025 0.46397 0.02905 0.0
C289 C 0.77935 0.51836 0.11458 0.0
C290 C 0.77241 0.40727 0.16501 0.0
Eu291 Eu 0.80837 0.44668 0.12411 0.0
C292 C 0.77275 0.40313 0.21047 0.0
C293 C 0.77006 0.37268 0.22742 0.0
C294 C 0.78807 0.36488 0.26243 0.0
C295 C 0.81132 0.38646 0.27623 0.0
C296 C 0.80582 0.41875 0.26843 0.0
C297 C 0.78647 0.42715 0.23495 0.0
C298 C 0.86218 0.4649 0.16686 0.0
C299 C 0.86217 0.41922 0.05925 0.0
O300 O 0.87412 0.52879 0.10806 0.0
O301 O 0.87714 0.52614 0.03963 0.0
O302 O 0.82953 0.47413 0.01398 0.0
O303 O 0.79927 0.47274 0.06635 0.0
O304 O 0.80515 0.52533 0.0929 0.0
O305 O 0.77587 0.48955 0.13 0.0
O306 O 0.79844 0.39851 0.14614 0.0
O307 O 0.76264 0.43483 0.15197 0.0
O308 O 0.83384 0.46516 0.18185 0.0
O309 O 0.8593 0.45927 0.12868 0.0
O310 O 0.83426 0.41368 0.07757 0.0
O311 O 0.8748 0.44809 0.05876 0.0
H312 H 0.89494 0.59209 0.02183 0.0
H313 H 0.93231 0.63654 0.03067 0.0
H314 H 0.96814 0.59275 0.14213 0.0
H315 H 0.93097 0.54889 0.13338 0.0
H316 H 0.75763 0.35417 0.21082 0.0
H317 H 0.78964 0.34011 0.27098 0.0
H318 H 0.82167 0.43649 0.28108 0.0
H319 H 0.78653 0.45153 0.22448 0.0
C320 C 0.40166 0.76804 0.65598 0.0
Eu321 Eu 0.44355 0.80664 0.62529 0.0
C322 C 0.38173 0.77108 0.69273 0.0
C323 C 0.38645 0.79669 0.7198 0.0
C324 C 0.3665 0.80103 0.75365 0.0
C325 C 0.34136 0.77992 0.76087 0.0
C326 C 0.33755 0.75352 0.73452 0.0
C327 C 0.35773 0.74907 0.7007 0.0
C328 C 0.46116 0.85456 0.67888 0.0
C329 C 0.41142 0.86655 0.57532 0.0
C330 C 0.53398 0.8909 0.58023 0.0
Eu331 Eu 0.48531 0.8521 0.58437 0.0
C332 C 0.56236 0.91285 0.58089 0.0
C333 C 0.5758 0.92514 0.54425 0.0
C334 C 0.60406 0.94322 0.54525 0.0
C335 C 0.61996 0.94976 0.58295 0.0
C336 C 0.60602 0.93789 0.6196 0.0
C337 C 0.5779 0.9198 0.61857 0.0
C338 C 0.45769 0.80971 0.53069 0.0
C339 C 0.51386 0.781 0.60887 0.0
O340 O 0.3954 0.78776 0.62572 0.0
O341 O 0.43187 0.76615 0.66395 0.0
O342 O 0.46329 0.82455 0.68653 0.0
O343 O 0.4539 0.85755 0.64103 0.0
O344 O 0.40799 0.83706 0.5893 0.0
O345 O 0.43979 0.88025 0.57459 0.0
O346 O 0.52274 0.87895 0.61473 0.0
O347 O 0.5176 0.88298 0.54711 0.0
O348 O 0.46456 0.83893 0.52039 0.0
O349 O 0.46872 0.80404 0.56615 0.0
O350 O 0.52034 0.81132 0.60143 0.0
O351 O 0.48411 0.77248 0.61389 0.0
H352 H 0.40493 0.81392 0.71401 0.0
H353 H 0.36976 0.8218 0.77292 0.0
H354 H 0.31793 0.73725 0.73857 0.0
H355 H 0.35395 0.72914 0.68005 0.0
H356 H 0.5648 0.9203 0.51458 0.0
H357 H 0.61341 0.95213 0.51622 0.0
H358 H 0.61731 0.94175 0.64931 0.0
H359 H 0.56868 0.91066 0.64756 0.0
C360 C 0.78601 0.39762 0.64109 0.0
Eu361 Eu 0.76332 0.44918 0.61357 0.0
C362 C 0.76183 0.37382 0.65264 0.0
C363 C 0.74027 0.38064 0.68488 0.0
C364 C 0.71087 0.36556 0.68662 0.0
C365 C 0.70218 0.34359 0.65612 0.0
C366 C 0.72468 0.33482 0.62598 0.0
C367 C 0.75418 0.3497 0.6243 0.0
C368 C 0.71011 0.46465 0.65861 0.0
C369 C 0.70691 0.41981 0.55375 0.0
C370 C 0.68449 0.54173 0.5639 0.0
Eu371 Eu 0.72228 0.49264 0.56747 0.0
C372 C 0.66416 0.57101 0.56468 0.0
C373 C 0.63943 0.57552 0.53608 0.0
C374 C 0.61885 0.60179 0.53946 0.0
C375 C 0.62261 0.62466 0.57119 0.0
C376 C 0.6481 0.62065 0.59883 0.0
C377 C 0.66836 0.59416 0.59582 0.0
C378 C 0.76811 0.46552 0.51939 0.0
C379 C 0.79285 0.51866 0.60352 0.0
O380 O 0.78692 0.40401 0.60136 0.0
O381 O 0.78668 0.42339 0.66388 0.0
O382 O 0.73884 0.46645 0.67242 0.0
O383 O 0.71173 0.45932 0.62006 0.0
O384 O 0.73516 0.41626 0.57091 0.0
O385 O 0.69329 0.44819 0.553 0.0
O386 O 0.69775 0.5314 0.59809 0.0
O387 O 0.69145 0.52498 0.53061 0.0
O388 O 0.74024 0.47352 0.50493 0.0
O389 O 0.77102 0.47558 0.556 0.0
O390 O 0.76456 0.52524 0.58706 0.0
O391 O 0.7993 0.48926 0.61518 0.0
H392 H 0.74524 0.39895 0.70753 0.0
H393 H 0.69483 0.37144 0.71154 0.0
H394 H 0.71931 0.31674 0.60316 0.0
H395 H 0.77014 0.34388 0.59908 0.0
H396 H 0.63543 0.55826 0.51175 0.0
H397 H 0.59973 0.60408 0.51728 0.0
H398 H 0.65175 0.63742 0.62383 0.0
H399 H 0.68718 0.59158 0.61838 0.0
C400 C 0.15849 0.8064 0.66609 0.0
Eu401 Eu 0.12156 0.77172 0.62186 0.0
C402 C 0.16719 0.7988 0.70907 0.0
C403 C 0.15986 0.82009 0.74112 0.0
C404 C 0.16649 0.81222 0.7823 0.0
C405 C 0.18183 0.78343 0.7919 0.0
C406 C 0.18535 0.7607 0.7601 0.0
C407 C 0.17817 0.76834 0.71921 0.0
C408 C 0.10377 0.7216 0.67145 0.0
C409 C 0.15661 0.71598 0.56829 0.0
C410 C 1.03467 0.68841 0.57329 0.0
Eu411 Eu 0.08194 0.7287 0.57743 0.0
C412 C 1.0084 0.66419 0.57501 0.0
C413 C 0.98501 0.6619 0.54394 0.0
C414 C 0.95862 0.64141 0.5487 0.0
C415 C 0.9551 0.62222 0.58438 0.0
C416 C 0.97886 0.62436 0.61498 0.0
C417 C 1.00481 0.64504 0.61051 0.0
C418 C 0.11002 0.7722 0.52615 0.0
C419 C 0.05228 0.79923 0.60382 0.0
O420 O 0.16945 0.78769 0.6369 0.0
O421 O 0.12852 0.81282 0.66151 0.0
O422 O 0.09864 0.75107 0.67981 0.0
O423 O 0.11224 0.72031 0.63397 0.0
O424 O 0.15907 0.74528 0.58345 0.0
O425 O 0.12843 0.70181 0.56675 0.0
O426 O 0.04629 0.69988 0.60778 0.0
O427 O 0.0495 0.69812 0.53966 0.0
O428 O 0.10376 0.74306 0.51479 0.0
O429 O 0.09839 0.77743 0.56146 0.0
O430 O 0.04598 0.76911 0.59452 0.0
O431 O 0.082 0.80721 0.61032 0.0
H432 H 0.14954 0.84303 0.7342 0.0
H433 H 0.16247 0.82991 0.80611 0.0
H434 H 0.19648 0.73795 0.76574 0.0
H435 H 0.18208 0.75058 0.69544 0.0
H436 H 0.98668 0.67654 0.51643 0.0
H437 H 0.94108 0.64039 0.52425 0.0
H438 H 0.97712 0.61041 0.6431 0.0
H439 H 1.02203 0.64625 0.63535 0.0
C440 C 0.75901 0.17802 0.64912 0.0
Eu441 Eu 0.80041 0.13573 0.62696 0.0
C442 C 0.72412 0.18049 0.65166 0.0
C443 C 0.70723 0.19502 0.61954 0.0
C444 C 0.67568 0.20372 0.62523 0.0
C445 C 0.66037 0.199 0.6639 0.0
C446 C 0.67598 0.17974 0.69328 0.0
C447 C 0.70772 0.17117 0.6876 0.0
C448 C 0.85077 0.1194 0.67687 0.0
C449 C 0.85974 0.16559 0.573 0.0
C450 C 0.8816 0.04261 0.57996 0.0
Eu451 Eu 0.84327 0.09169 0.58393 0.0
C452 C 0.90261 1.01348 0.57969 0.0
C453 C 0.92773 1.01016 0.55126 0.0
C454 C 0.9482 0.98359 0.55266 0.0
C455 C 0.94404 0.95902 0.5821 0.0
C456 C 0.91827 0.96195 0.60973 0.0
C457 C 0.89814 0.98879 0.60877 0.0
C458 C 0.79925 0.11892 0.53289 0.0
C459 C 0.77295 0.06465 0.61709 0.0
O460 O 0.77298 0.15899 0.67534 0.0
O461 O 0.77178 0.17723 0.61214 0.0
O462 O 0.82133 0.11951 0.6881 0.0
O463 O 0.85185 0.12497 0.63823 0.0
O464 O 0.83167 0.1702 0.59056 0.0
O465 O 0.87208 0.13658 0.57068 0.0
O466 O 0.86693 0.05165 0.61385 0.0
O467 O 0.87594 0.0608 0.54762 0.0
O468 O 0.8277 0.11093 0.52054 0.0
O469 O 0.79482 0.10882 0.56935 0.0
O470 O 0.80032 0.05819 0.59828 0.0
O471 O 0.76739 0.0936 0.63059 0.0
H472 H 0.71894 0.20177 0.59095 0.0
H473 H 0.66496 0.21723 0.60046 0.0
H474 H 0.66485 0.17372 0.72246 0.0
H475 H 0.71985 0.15899 0.71255 0.0
H476 H 0.93202 1.02847 0.52837 0.0
H477 H 0.96747 0.98234 0.53054 0.0
H478 H 0.91422 0.94391 0.63307 0.0
H479 H 0.87904 0.99028 0.63114 0.0
C480 C 0.91654 0.3009 0.81941 0.0
Eu481 Eu 0.95423 0.26984 0.86691 0.0
C482 C 0.90789 0.29002 0.77757 0.0
C483 C 0.91604 0.30826 0.74275 0.0
C484 C 0.90993 0.29696 0.70277 0.0
C485 C 0.89433 0.26769 0.69693 0.0
C486 C 0.88972 0.24808 0.73196 0.0
C487 C 0.89633 0.25915 0.77164 0.0
C488 C 0.97324 0.2182 0.82102 0.0
C489 C 0.91984 0.21498 0.92282 0.0
C490 C 0.04338 0.19218 0.92404 0.0
Eu491 Eu 0.99392 0.22948 0.91556 0.0
C492 C 0.06637 0.16494 0.9219 0.0
C493 C 0.09353 0.16494 0.94724 0.0
C494 C 0.11805 0.14256 0.94139 0.0
C495 C 0.11612 0.11912 0.91022 0.0
C496 C 0.08845 0.1187 0.88555 0.0
C497 C 0.06416 0.14142 0.891 0.0
C498 C 0.96403 0.27374 0.96382 0.0
C499 C 1.02251 0.30018 0.88781 0.0
O500 O 0.90603 0.28415 0.85081 0.0
O501 O 0.94638 0.30826 0.82311 0.0
O502 O 0.97861 0.24736 0.8112 0.0
O503 O 0.96468 0.21819 0.85855 0.0
O504 O 0.91687 0.24366 0.9059 0.0
O505 O 0.94826 0.20153 0.92571 0.0
O506 O 1.03544 0.2065 0.88954 0.0
O507 O 1.02313 0.19685 0.95451 0.0
O508 O 0.97331 0.24609 0.97774 0.0
O509 O 0.97514 0.27821 0.92795 0.0
O510 O 1.02884 0.27101 0.90112 0.0
O511 O 0.99323 0.30675 0.87644 0.0
H512 H 0.92677 0.33145 0.7465 0.0
H513 H 0.91485 0.31234 0.67664 0.0
H514 H 0.87845 0.22508 0.72958 0.0
H515 H 0.89168 0.24361 0.79772 0.0
H516 H 0.09633 0.18302 0.97085 0.0
H517 H 0.13861 0.14366 0.9614 0.0
H518 H 0.08595 0.10134 0.861 0.0
H519 H 0.04392 0.14102 0.87037 0.0
C520 C 0.28654 0.88686 0.88194 0.0
Eu521 Eu 0.30815 0.94303 0.89033 0.0
C522 C 0.31056 0.86192 0.87661 0.0
C523 C 0.30848 0.83283 0.89742 0.0
C524 C 0.33454 0.8122 0.89789 0.0
C525 C 0.36355 0.82096 0.87907 0.0
C526 C 0.36521 0.85021 0.85842 0.0
C527 C 0.33905 0.8701 0.85676 0.0
C528 C 0.3533 0.96001 0.83342 0.0
C529 C 0.37309 0.92471 0.94381 0.0
C530 C 0.38359 0.0445 0.92233 0.0
Eu531 Eu 0.34877 0.99316 0.92309 0.0
C532 C 0.40372 0.07382 0.91979 0.0
C533 C 0.41174 0.09137 0.95539 0.0
C534 C 0.42981 0.11941 0.95232 0.0
C535 C 0.44054 0.13078 0.91353 0.0
C536 C 0.43273 0.11292 0.87803 0.0
C537 C 0.41459 0.085 0.88111 0.0
C538 C 0.30647 0.96781 0.97898 0.0
C539 C 0.27587 1.01177 0.88865 0.0
O540 O 0.28779 0.90045 0.91832 0.0
O541 O 0.28461 0.90754 0.85159 0.0
O542 O 0.32327 0.95724 0.82575 0.0
O543 O 0.35758 0.95698 0.87227 0.0
O544 O 0.34458 0.91653 0.93066 0.0
O545 O 0.38296 0.95428 0.94068 0.0
O546 O 0.37405 1.02981 0.88877 0.0
O547 O 0.37434 1.03109 0.95708 0.0
O548 O 0.33523 0.97605 0.98927 0.0
O549 O 0.30185 0.97536 0.94196 0.0
O550 O 0.30511 1.02122 0.89842 0.0
O551 O 0.26963 0.98098 0.8861 0.0
H552 H 0.28695 0.82629 0.9136 0.0
H553 H 0.33181 0.78946 0.91305 0.0
H554 H 0.38694 0.85842 0.84432 0.0
H555 H 0.34169 0.89275 0.84141 0.0
H556 H 0.40388 0.08355 0.9857 0.0
H557 H 0.43558 0.13208 0.98053 0.0
H558 H 0.44005 0.12085 0.84756 0.0
H559 H 0.40889 0.07227 0.8529 0.0
C560 C 0.67968 0.2701 0.85207 0.0
Eu561 Eu 0.63285 0.30651 0.87466 0.0
C562 C 0.70366 0.27294 0.81971 0.0
C563 C 0.70542 0.30088 0.79653 0.0
C564 C 0.72605 0.30294 0.76304 0.0
C565 C 0.74563 0.27725 0.75193 0.0
C566 C 0.74387 0.24925 0.77591 0.0
C567 C 0.72282 0.24707 0.8093 0.0
C568 C 0.61664 0.35793 0.82609 0.0
C569 C 0.655 0.36535 0.93628 0.0
C570 C 0.53361 0.38291 0.91898 0.0
Eu571 Eu 0.58377 0.34617 0.91667 0.0
C572 C 0.50459 0.40391 0.91757 0.0
C573 C 0.49005 0.41555 0.95385 0.0
C574 C 0.46212 0.43406 0.95187 0.0
C575 C 0.44766 0.44163 0.91351 0.0
C576 C 0.46254 0.43012 0.8773 0.0
C577 C 0.49036 0.41166 0.8793 0.0
C578 C 0.61065 0.29997 0.96551 0.0
C579 C 0.56136 0.27725 0.87725 0.0
O580 O 0.68162 0.2903 0.88277 0.0
O581 O 0.6509 0.26735 0.83795 0.0
O582 O 0.62101 0.32931 0.81264 0.0
O583 O 0.61896 0.35713 0.8653 0.0
O584 O 0.66275 0.33793 0.91834 0.0
O585 O 0.62549 0.37605 0.93584 0.0
O586 O 0.54674 0.37249 0.88469 0.0
O587 O 0.54835 0.37389 0.95298 0.0
O588 O 0.60083 0.32715 0.98042 0.0
O589 O 0.60262 0.29798 0.92816 0.0
O590 O 0.55255 0.30459 0.89404 0.0
O591 O 0.59159 0.27192 0.86924 0.0
H592 H 0.69032 0.32094 0.80384 0.0
H593 H 0.72624 0.3248 0.74586 0.0
H594 H 0.7591 0.22915 0.76975 0.0
H595 H 0.72146 0.2252 0.82689 0.0
H596 H 0.50013 0.41019 0.98392 0.0
H597 H 0.452 0.44263 0.98062 0.0
H598 H 0.45231 0.43473 0.84712 0.0
H599 H 0.50054 0.40311 0.85055 0.0
C600 C 0.31548 0.67151 0.83118 0.0
Eu601 Eu 0.27319 0.6331 0.86051 0.0
C602 C 0.35002 0.66938 0.83405 0.0
C603 C 0.36412 0.64928 0.86343 0.0
C604 C 0.39609 0.65288 0.87351 0.0
C605 C 0.41397 0.67744 0.85525 0.0
C606 C 0.40108 0.69238 0.81954 0.0
C607 C 0.36908 0.68901 0.80989 0.0
C608 C 0.22024 0.61695 0.81598 0.0
C609 C 0.21752 0.66648 0.91869 0.0
C610 C 0.19289 0.54397 0.91399 0.0
Eu611 Eu 0.23194 0.59244 0.90976 0.0
C612 C 0.16942 0.51678 0.91233 0.0
C613 C 0.16608 0.49451 0.94477 0.0
C614 C 0.14584 0.46773 0.94069 0.0
C615 C 0.12786 0.46263 0.90429 0.0
C616 C 0.13118 0.48517 0.87218 0.0
C617 C 0.15162 0.51147 0.87601 0.0
C618 C 0.28023 0.61959 0.95476 0.0
C619 C 0.29938 0.56142 0.87398 0.0
O620 O 0.30195 0.64967 0.80867 0.0
O621 O 0.30089 0.67634 0.86647 0.0
O622 O 0.24902 0.61504 0.80254 0.0
O623 O 0.22127 0.62407 0.85419 0.0
O624 O 0.24462 0.66988 0.89795 0.0
O625 O 0.20493 0.63788 0.92426 0.0
O626 O 0.2049 0.55527 0.87949 0.0
O627 O 0.20152 0.55974 0.94749 0.0
O628 O 0.25218 0.61362 0.97052 0.0
O629 O 0.28172 0.60797 0.91872 0.0
O630 O 0.27277 0.55668 0.89517 0.0
O631 O 0.30504 0.58972 0.8583 0.0
H632 H 0.34986 0.63267 0.8809 0.0
H633 H 0.40549 0.63926 0.89917 0.0
H634 H 0.41412 0.71001 0.80211 0.0
H635 H 0.35882 0.70349 0.78567 0.0
H636 H 0.1796 0.49743 0.97304 0.0
H637 H 0.14396 0.45123 0.96632 0.0
H638 H 0.11823 0.48227 0.84346 0.0
H639 H 0.15356 0.52772 0.8501 0.0
H640 H 0.65407 0.17306 0.33148 0.0
H641 H 0.59606 0.21238 0.23439 0.0
H642 H 0.6271 0.18376 0.18218 0.0
H643 H 0.67428 0.15119 0.16303 0.0
H644 H 0.73404 0.11504 0.2605 0.0
H645 H 0.69898 0.13804 0.31274 0.0
C646 C 0.64761 0.17474 0.29902 0.0
C647 C 0.6222 0.19474 0.28729 0.0
C648 C 0.6663 0.15877 0.26875 0.0
C649 C 0.61505 0.197 0.24469 0.0
C650 C 0.63302 0.18069 0.21463 0.0
C651 C 0.6793 0.14778 0.19569 0.0
C652 C 0.70709 0.13121 0.20744 0.0
C653 C 0.65919 0.16196 0.22607 0.0
C654 C 0.71304 0.12754 0.25017 0.0
C655 C 0.69296 0.14087 0.28028 0.0
H656 H 0.42577 0.67358 0.16623 0.0
H657 H 0.48088 0.71861 0.26204 0.0
H658 H 0.45134 0.68953 0.31518 0.0
H659 H 0.40606 0.6548 0.33542 0.0
H660 H 0.34972 0.61173 0.23927 0.0
H661 H 0.38323 0.63598 0.18623 0.0
C662 C 0.4319 0.6765 0.19866 0.0
C663 C 0.45602 0.69828 0.2097 0.0
C664 C 0.41419 0.66002 0.22948 0.0
C665 C 0.46284 0.70194 0.25223 0.0
C666 C 0.44576 0.68532 0.28284 0.0
C667 C 0.4016 0.65001 0.30291 0.0
C668 C 0.37522 0.63106 0.29172 0.0
C669 C 0.4209 0.66468 0.27204 0.0
C670 C 0.36973 0.62594 0.24913 0.0
C671 C 0.38891 0.64 0.21858 0.0
H672 H 0.95876 0.36628 0.24457 0.0
H673 H 0.92119 0.4051 0.35814 0.0
H674 H 0.89162 0.44475 0.31891 0.0
H675 H 0.87153 0.46507 0.25158 0.0
H676 H 0.91077 0.42773 0.1381 0.0
H677 H 0.94486 0.39215 0.17765 0.0
C678 C 0.9448 0.38397 0.26081 0.0
C679 C 0.94243 0.38242 0.30451 0.0
C680 C 0.92801 0.40735 0.23789 0.0
C681 C 0.92387 0.40556 0.32474 0.0
C682 C 0.90673 0.42834 0.3022 0.0
C683 C 0.88815 0.44979 0.2355 0.0
C684 C 0.8881 0.44918 0.19162 0.0
C685 C 0.90796 0.42907 0.25866 0.0
C686 C 0.91001 0.42903 0.17163 0.0
C687 C 0.92955 0.40837 0.19436 0.0
H688 H 0.16384 0.92367 0.33206 0.0
H689 H 0.21056 0.97889 0.23752 0.0
H690 H 0.18202 0.94991 0.18365 0.0
H691 H 0.14849 0.90453 0.16254 0.0
H692 H 0.10269 0.84822 0.25662 0.0
H693 H 0.12514 0.88221 0.31076 0.0
C694 C 0.16703 0.9301 0.29977 0.0
C695 C 0.18942 0.95379 0.28917 0.0
C696 C 0.15071 0.91282 0.26847 0.0
C697 C 0.19351 0.96104 0.24685 0.0
C698 C 0.17727 0.94426 0.21585 0.0
C699 C 0.14278 0.9001 0.19482 0.0
C700 C 0.1238 0.87362 0.20524 0.0
C701 C 0.15649 0.91944 0.22611 0.0
C702 C 0.11709 0.86832 0.24746 0.0
C703 C 0.1301 0.88775 0.27859 0.0
H704 H 0.40429 0.91891 0.84218 0.0
H705 H 0.35284 0.97284 0.75087 0.0
H706 H 0.38329 0.94764 0.69528 0.0
H707 H 0.42149 0.90668 0.67152 0.0
H708 H 0.47056 0.85021 0.76253 0.0
H709 H 0.44448 0.87958 0.81844 0.0
C710 C 0.40027 0.92574 0.8102 0.0
C711 C 0.37637 0.9483 0.80106 0.0
C712 C 0.41735 0.91021 0.7779 0.0
C713 C 0.37116 0.95598 0.75911 0.0
C714 C 0.38851 0.94134 0.72713 0.0
C715 C 0.42706 0.90123 0.70355 0.0
C716 C 0.44851 0.87627 0.71238 0.0
C717 C 0.41128 0.91792 0.73594 0.0
C718 C 0.4546 0.86937 0.75442 0.0
C719 C 0.43949 0.88615 0.7866 0.0
H720 H 0.61145 0.36978 0.74206 0.0
H721 H 0.65454 0.40633 0.85345 0.0
H722 H 0.68543 0.44394 0.81244 0.0
H723 H 0.70455 0.46323 0.74403 0.0
H724 H 0.65938 0.42896 0.63281 0.0
H725 H 0.62489 0.39487 0.67424 0.0
C726 C 0.62694 0.38656 0.75749 0.0
C727 C 0.63038 0.38495 0.80113 0.0
C728 C 0.64447 0.40886 0.73353 0.0
C729 C 0.65096 0.40688 0.8202 0.0
C730 C 0.66892 0.42843 0.7966 0.0
C731 C 0.68668 0.44888 0.72884 0.0
C732 C 0.68499 0.44887 0.68498 0.0
C733 C 0.66652 0.42919 0.75311 0.0
C734 C 0.66146 0.42987 0.66626 0.0
C735 C 0.64164 0.41012 0.69008 0.0
H736 H 0.14105 0.668 0.66177 0.0
H737 H 0.10111 0.72874 0.75585 0.0
H738 H 0.13114 0.70069 0.80929 0.0
H739 H 0.17233 0.6612 0.82942 0.0
H740 H 0.21278 0.6012 0.73492 0.0
H741 H 0.17907 0.62603 0.68253 0.0
C742 C 0.13833 0.67472 0.69404 0.0
C743 C 0.11842 0.70061 0.70434 0.0
C744 C 0.15609 0.65849 0.725 0.0
C745 C 0.11585 0.70893 0.74659 0.0
C746 C 0.13325 0.69289 0.77738 0.0
C747 C 0.17324 0.65299 0.79757 0.0
C748 C 0.19513 0.62891 0.78652 0.0
C749 C 0.15391 0.6679 0.76702 0.0
C750 C 0.19617 0.61935 0.74467 0.0
C751 C 0.17693 0.63373 0.71448 0.0
H752 H 0.90453 0.15659 0.66361 0.0
H753 H 0.85207 0.10908 0.7601 0.0
H754 H 0.88633 0.13281 0.8127 0.0
H755 H 0.92885 0.17046 0.83257 0.0
H756 H 0.98053 0.21939 0.73659 0.0
H757 H 0.94951 0.19191 0.68347 0.0
C758 C 0.90098 0.15086 0.69606 0.0
C759 C 0.87555 0.13064 0.70747 0.0
C760 C 0.92074 0.16518 0.72672 0.0
C761 C 0.87132 0.12424 0.75002 0.0
C762 C 0.89094 0.138 0.78034 0.0
C763 C 0.93391 0.17464 0.80005 0.0
C764 C 0.95756 0.19701 0.78906 0.0
C765 C 0.91544 0.15896 0.76927 0.0
C766 C 0.96295 0.20223 0.74642 0.0
C767 C 0.94499 0.18654 0.71581 0.0
H768 H 0.43272 0.07862 0.35668 0.0
H769 H 0.39124 0.13949 0.44966 0.0
H770 H 0.34152 0.1101 0.44501 0.0
H771 H 0.3094 0.06624 0.41544 0.0
H772 H 0.35145 1.00463 0.32388 0.0
H773 H 0.40052 1.03537 0.32651 0.0
C774 C 0.4128 0.08573 0.37576 0.0
C775 C 0.41626 0.11146 0.40369 0.0
C776 C 0.38394 0.06858 0.37296 0.0
C777 C 0.3899 0.11965 0.42838 0.0
C778 C 0.36117 0.10293 0.42549 0.0
C779 C 0.3291 0.0598 0.39555 0.0
C780 C 0.3263 1.03315 0.36908 0.0
C781 C 0.35782 0.07727 0.39795 0.0
C782 C 0.35258 1.025 0.34433 0.0
C783 C 0.38084 0.04256 0.34596 0.0
H784 H 0.43961 0.3953 0.40907 0.0
H785 H 0.512 0.46307 0.37631 0.0
H786 H 0.54956 0.42 0.36434 0.0
H787 H 0.56277 0.36283 0.36374 0.0
H788 H 0.4906 0.29454 0.39546 0.0
H789 H 0.45263 0.33756 0.40682 0.0
C790 C 0.46364 0.40069 0.39953 0.0
C791 C 0.47263 0.43281 0.39363 0.0
C792 C 0.48541 0.37547 0.39215 0.0
C793 C 0.50399 0.43888 0.38077 0.0
C794 C 0.52567 0.41413 0.37397 0.0
C795 C 0.53866 0.3572 0.37274 0.0
C796 C 0.52986 0.32506 0.37846 0.0
C797 C 0.51673 0.38227 0.37943 0.0
C798 C 0.49835 0.31875 0.39047 0.0
C799 C 0.47651 0.3435 0.39722 0.0
H800 H 0.18222 0.4452 0.40804 0.0
H801 H 0.11332 0.51599 0.37354 0.0
H802 H 0.1556 0.55449 0.36177 0.0
H803 H 0.21228 0.56905 0.36252 0.0
H804 H 0.28173 0.49841 0.39581 0.0
H805 H 0.23956 0.45937 0.40623 0.0
C806 C 0.17642 0.46907 0.3981 0.0
C807 C 0.14425 0.47739 0.39178 0.0
C808 C 0.20118 0.49133 0.39079 0.0
C809 C 0.1376 0.50854 0.37839 0.0
C810 C 0.16189 0.53073 0.37168 0.0
C811 C 0.21838 0.54502 0.37153 0.0
C812 C 0.25057 0.53698 0.3781 0.0
C813 C 0.19381 0.52249 0.37774 0.0
C814 C 0.25747 0.50557 0.39015 0.0
C815 C 0.23321 0.48313 0.39641 0.0
H816 H 0.08943 0.1484 0.35723 0.0
H817 H 0.1421 0.18482 0.4615 0.0
H818 H 0.11149 0.23402 0.45907 0.0
H819 H 0.06822 0.26675 0.42858 0.0
H820 H 1.01506 0.22925 0.32553 0.0
H821 H 0.04771 0.18138 0.32565 0.0
C822 C 0.0946 0.16716 0.37921 0.0
C823 C 0.1183 0.16237 0.40964 0.0
C824 C 0.0768 0.19567 0.37766 0.0
C825 C 0.12387 0.18717 0.43811 0.0
C826 C 0.10645 0.21562 0.43653 0.0
C827 C 0.06422 0.2484 0.4056 0.0
C828 C 0.03929 0.25203 0.37668 0.0
C829 C 0.08271 0.2202 0.40655 0.0
C830 C 1.0341 0.22742 0.34793 0.0
C831 C 0.05271 0.19984 0.34812 0.0
H832 H 0.92972 0.9831 0.14677 0.0
H833 H 0.90334 0.946 0.02692 0.0
H834 H 0.85395 0.97612 0.02939 0.0
H835 H 0.81837 1.015 0.06447 0.0
H836 H 0.84576 0.05256 0.18348 0.0
H837 H 0.89353 1.01981 0.18287 0.0
C838 C 0.9131 0.98115 0.1213 0.0
C839 C 0.92091 0.9621 0.08655 0.0
C840 C 0.88437 0.99858 0.12293 0.0
C841 C 0.89878 0.96071 0.05381 0.0
C842 C 0.87016 0.97781 0.05534 0.0
C843 C 0.83439 1.0154 0.09074 0.0
C844 C 0.82796 1.03601 0.12437 0.0
C845 C 0.86265 0.99702 0.08964 0.0
C846 C 0.84971 1.03679 0.15744 0.0
C847 C 0.87728 1.01817 0.15696 0.0
H848 H 0.52024 0.86061 0.13839 0.0
H849 H 0.5869 0.79408 0.08634 0.0
H850 H 0.62489 0.8374 0.07509 0.0
H851 H 0.63918 0.89532 0.07871 0.0
H852 H 0.57178 0.96052 0.1323 0.0
H853 H 0.5347 0.91708 0.14382 0.0
C854 C 0.54317 0.85531 0.12486 0.0
C855 C 0.55036 0.82358 0.11346 0.0
C856 C 0.56502 0.88051 0.11837 0.0
C857 C 0.58042 0.81785 0.09587 0.0
C858 C 0.60222 0.84285 0.08915 0.0
C859 C 0.61634 0.90009 0.09277 0.0
C860 C 0.60871 0.93172 0.10464 0.0
C861 C 0.59477 0.87446 0.09994 0.0
C862 C 0.57886 0.93682 0.12316 0.0
C863 C 0.55741 0.91182 0.12972 0.0
H864 H 0.64522 0.58637 0.1336 0.0
H865 H 0.68543 0.64995 0.04294 0.0
H866 H 0.73558 0.62083 0.04585 0.0
H867 H 0.76783 0.57491 0.0715 0.0
H868 H 0.72627 0.5119 0.16203 0.0
H869 H 0.67762 0.54276 0.16132 0.0
C870 C 0.66479 0.59393 0.1142 0.0
C871 C 0.66088 0.62054 0.0878 0.0
C872 C 0.69378 0.57689 0.11588 0.0
C873 C 0.68727 0.62993 0.06386 0.0
C874 C 0.71613 0.61305 0.06532 0.0
C875 C 0.74834 0.56816 0.09154 0.0
C876 C 0.75127 0.54071 0.11679 0.0
C877 C 0.71971 0.58621 0.09094 0.0
C878 C 0.72524 0.5326 0.14215 0.0
C879 C 0.6971 0.5503 0.14174 0.0
H880 H 0.06872 0.71264 0.12039 0.0
H881 H 0.99723 0.78277 0.09318 0.0
H882 H 0.95813 0.74065 0.08273 0.0
H883 H 0.94411 0.68326 0.07982 0.0
H884 H 1.01601 0.61374 0.10777 0.0
H885 H 0.05461 0.65594 0.11917 0.0
C886 C 0.04453 0.71887 0.11255 0.0
C887 C 0.03619 0.75117 0.10776 0.0
C888 C 1.02204 0.69439 0.10634 0.0
C889 C 1.00458 0.75835 0.09736 0.0
C890 C 0.98212 0.73415 0.09114 0.0
C891 C 0.96826 0.67733 0.08818 0.0
C892 C 0.97689 0.64507 0.09291 0.0
C893 C 0.99058 0.70199 0.09515 0.0
C894 C 1.00837 0.63814 0.10426 0.0
C895 C 1.0306 0.66236 0.11072 0.0
H896 H 0.75553 1.01774 0.56042 0.0
H897 H 0.72748 0.06043 0.67629 0.0
H898 H 0.67882 1.02921 0.67653 0.0
H899 H 0.64225 0.99177 0.64254 0.0
H900 H 0.66904 0.94928 0.52592 0.0
H901 H 0.71904 0.97847 0.52709 0.0
C902 C 0.73909 1.01973 0.58613 0.0
C903 C 0.74574 0.04138 0.61863 0.0
C904 C 0.71025 1.00204 0.58562 0.0
C905 C 0.72344 0.04398 0.65101 0.0
C906 C 0.69533 1.02616 0.65108 0.0
C907 C 0.65903 0.98846 0.61746 0.0
C908 C 0.65113 0.96806 0.58405 0.0
C909 C 0.68815 1.00541 0.61831 0.0
C910 C 0.6736 0.96499 0.5518 0.0
C911 C 0.7026 0.98159 0.55259 0.0
H912 H 0.63316 0.68826 0.58949 0.0
H913 H 0.55809 0.62104 0.56649 0.0
H914 H 0.51868 0.66258 0.57718 0.0
H915 H 0.50488 0.71792 0.59314 0.0
H916 H 0.57904 0.7866 0.61303 0.0
H917 H 0.61907 0.74484 0.60386 0.0
C918 C 0.60818 0.68267 0.58689 0.0
C919 C 0.59888 0.65121 0.57695 0.0
C920 C 0.5853 0.70705 0.59274 0.0
C921 C 0.56625 0.64482 0.57344 0.0
C922 C 0.54355 0.66864 0.57985 0.0
C923 C 0.52979 0.72388 0.59581 0.0
C924 C 0.53872 0.75559 0.60432 0.0
C925 C 0.55272 0.69982 0.58956 0.0
C926 C 0.57128 0.76257 0.60677 0.0
C927 C 0.59424 0.73859 0.60145 0.0
H928 H 0.89099 0.63153 0.56815 0.0
H929 H 0.95664 0.5612 0.61352 0.0
H930 H 0.91307 0.52429 0.6254 0.0
H931 H 0.85615 0.51099 0.62233 0.0
H932 H 0.7899 0.58086 0.57729 0.0
H933 H 0.83336 0.61839 0.56634 0.0
C934 C 0.89583 0.60808 0.58041 0.0
C935 C 0.9275 0.59953 0.58995 0.0
C936 C 0.87029 0.58667 0.58761 0.0
C937 C 0.93281 0.56892 0.60624 0.0
C938 C 0.90776 0.5476 0.613 0.0
C939 C 0.85101 0.53453 0.61055 0.0
C940 C 0.81932 0.5428 0.60096 0.0
C941 C 0.87634 0.55614 0.60396 0.0
C942 C 0.81371 0.57354 0.58531 0.0
C943 C 0.83874 0.59511 0.57879 0.0
H944 H 0.93315 0.89415 0.59396 0.0
H945 H 1.0087 0.96204 0.57808 0.0
H946 H 0.04779 0.91967 0.58404 0.0
H947 H 0.06139 0.86328 0.59395 0.0
H948 H 0.98683 0.79406 0.6064 0.0
H949 H 0.94706 0.83653 0.60179 0.0
C950 C 0.95816 0.89973 0.59188 0.0
C951 C 0.96759 0.93176 0.58538 0.0
C952 C 0.98097 0.87479 0.59485 0.0
C953 C 1.00033 0.93798 0.58248 0.0
C954 C 1.02289 0.91361 0.58614 0.0
C955 C 0.03645 0.85731 0.59588 0.0
C956 C 1.02743 0.82512 0.601 0.0
C957 C 1.0136 0.88192 0.59235 0.0
C958 C 0.99477 0.81833 0.60265 0.0
C959 C 0.97192 0.84277 0.6 0.0
H960 H 0.18102 0.12888 0.91088 0.0
H961 H 0.11143 0.0551 0.89409 0.0
H962 H 0.15366 1.01609 0.88395 0.0
H963 H 0.21093 1.00205 0.88187 0.0
H964 H 0.28027 0.07636 0.89736 0.0
H965 H 0.23803 0.11534 0.9057 0.0
C966 C 0.17498 0.10426 0.90517 0.0
C967 C 0.14265 0.09528 0.90351 0.0
C968 C 0.19962 0.08173 0.89891 0.0
C969 C 0.13578 0.06311 0.89533 0.0
C970 C 0.16008 0.04062 0.88962 0.0
C971 C 0.21691 1.02682 0.88652 0.0
C972 C 0.24923 1.03586 0.88881 0.0
C973 C 0.19218 0.04952 0.89144 0.0
C974 C 0.25597 0.06828 0.89523 0.0
C975 C 0.23166 0.09078 0.90023 0.0
H976 H 0.49071 0.14466 0.86161 0.0
H977 H 0.43262 0.18626 0.95745 0.0
H978 H 0.46286 0.23555 0.95278 0.0
H979 H 0.50712 0.26689 0.92295 0.0
H980 H 0.56582 0.22461 0.82836 0.0
H981 H 0.53376 0.17635 0.83045 0.0
C982 C 0.48435 0.16456 0.88124 0.0
C983 C 0.45924 0.16127 0.91004 0.0
C984 C 0.50196 0.1931 0.87842 0.0
C985 C 0.45199 0.18752 0.93547 0.0
C986 C 0.46919 0.21598 0.93259 0.0
C987 C 0.51256 0.24735 0.90224 0.0
C988 C 0.53884 0.24973 0.8752 0.0
C989 C 0.49437 0.21908 0.90433 0.0
C990 C 0.54576 0.22371 0.84932 0.0
C991 C 0.52747 0.19593 0.85064 0.0
H992 H 0.42869 0.48517 0.85398 0.0
H993 H 0.39682 0.44182 0.96784 0.0
H994 H 0.34791 0.47273 0.96483 0.0
H995 H 0.31385 0.51361 0.93063 0.0
H996 H 0.34674 0.55677 0.81723 0.0
H997 H 0.39443 0.52417 0.81897 0.0
C998 C 0.41101 0.48203 0.87802 0.0
C999 C 0.41715 0.46087 0.91124 0.0
C1000 C 0.38253 0.49993 0.87606 0.0
C1001 C 0.3936 0.45806 0.94218 0.0
C1002 C 0.36524 0.47566 0.94032 0.0
C1003 C 0.33114 0.51545 0.90588 0.0
C1004 C 0.32615 0.53765 0.87352 0.0
C1005 C 0.35935 0.49683 0.90747 0.0
C1006 C 0.3495 0.53995 0.84239 0.0
C1007 C 0.37705 0.52132 0.84344 0.0
H1008 H 0.13528 0.39867 0.92582 0.0
H1009 H 0.06795 0.46361 0.87179 0.0
H1010 H 1.03073 0.42016 0.86098 0.0
H1011 H 1.01633 0.36345 0.86666 0.0
H1012 H 0.08324 0.29765 0.91961 0.0
H1013 H 0.12091 0.34108 0.93064 0.0
C1014 C 0.11241 0.40341 0.9119 0.0
C1015 C 0.1049 0.43491 0.89957 0.0
C1016 C 0.09076 0.37784 0.90524 0.0
C1017 C 0.07498 0.43997 0.88122 0.0
C1018 C 0.05344 0.41496 0.87508 0.0
C1019 C 0.03921 0.3584 0.88041 0.0
C1020 C 0.04658 0.32679 0.89207 0.0
C1021 C 0.06099 0.38372 0.88676 0.0
C1022 C 0.07657 0.32135 0.90999 0.0
C1023 C 0.09824 0.34639 0.91651 0.0
H1024 H 0.73032 0.30087 0.14755 0.0
H1025 H 0.69854 0.20581 0.16032 0.0
H1026 H 0.75135 0.18871 0.18278 0.0
H1027 H 0.79594 0.20729 0.22834 0.0
H1028 H 0.82144 0.30631 0.22517 0.0
H1029 H 0.7831 0.31608 0.17052 0.0
C1030 C 0.7352 0.27617 0.15442 0.0
C1031 C 0.71001 0.25567 0.16395 0.0
C1032 C 0.76462 0.26825 0.17156 0.0
C1033 C 0.71742 0.22312 0.16135 0.0
C1034 C 0.74741 0.21339 0.17508 0.0
C1035 C 0.7935 0.23077 0.21494 0.0
C1036 C 0.81064 0.25634 0.23155 0.0
C1037 C 0.76967 0.23679 0.18569 0.0
C1038 C 0.80785 0.28656 0.21354 0.0
C1039 C 0.78584 0.29222 0.18243 0.0
H1040 H 0.13906 0.71576 0.28541 0.0
H1041 H 0.11713 0.73235 0.41391 0.0
H1042 H 0.11783 0.78951 0.40184 0.0
H1043 H 0.15161 0.82857 0.36434 0.0
H1044 H 0.17574 0.8111 0.2368 0.0
H1045 H 0.14682 0.76088 0.23855 0.0
C1046 C 0.13296 0.73158 0.3107 0.0
C1047 C 0.13324 0.72042 0.35196 0.0
C1048 C 0.13572 0.76431 0.30394 0.0
C1049 C 0.12078 0.74084 0.38254 0.0
C1050 C 0.12178 0.77363 0.37592 0.0
C1051 C 0.14948 0.81432 0.33644 0.0
C1052 C 0.16862 0.82127 0.30181 0.0
C1053 C 0.13373 0.7851 0.33822 0.0
C1054 C 0.1636 0.80439 0.26492 0.0
C1055 C 0.14697 0.77578 0.26589 0.0
H1056 H 0.33195 0.78912 0.35058 0.0
H1057 H 0.38106 0.71756 0.28048 0.0
H1058 H 0.33219 0.68862 0.27018 0.0
H1059 H 0.27616 0.69938 0.25424 0.0
H1060 H 0.22588 0.77033 0.32357 0.0
H1061 H 0.27422 0.78356 0.36213 0.0
C1062 C 0.33223 0.76599 0.33576 0.0
C1063 C 0.35929 0.75657 0.31356 0.0
C1064 C 0.30349 0.75035 0.32806 0.0
C1065 C 0.36011 0.72588 0.29646 0.0
C1066 C 0.33188 0.70963 0.28959 0.0
C1067 C 0.27539 0.71637 0.27954 0.0
C1068 C 0.24851 0.73537 0.28492 0.0
C1069 C 0.30325 0.72396 0.30086 0.0
C1070 C 0.24717 0.75668 0.31825 0.0
C1071 C 0.27473 0.76423 0.33999 0.0
H1072 H 0.84438 0.39576 0.20752 0.0
H1073 H 0.85059 0.35003 0.32657 0.0
H1074 H 0.88793 0.31116 0.29704 0.0
H1075 H 0.89384 0.27807 0.23446 0.0
H1076 H 0.87569 0.31955 0.11445 0.0
H1077 H 0.86548 0.3706 0.14697 0.0
C1078 C 0.85467 0.37787 0.22756 0.0
C1079 C 0.84395 0.37505 0.26872 0.0
C1080 C 0.87158 0.35311 0.20937 0.0
C1081 C 0.85791 0.35224 0.29451 0.0
C1082 C 0.87841 0.32953 0.27738 0.0
C1083 C 0.8894 0.29853 0.21501 0.0
C1084 C 0.88373 0.29454 0.17213 0.0
C1085 C 0.88192 0.32757 0.23412 0.0
C1086 C 0.87885 0.32166 0.14763 0.0
C1087 C 0.87305 0.35091 0.16618 0.0
H1088 H 0.21534 0.83178 0.82586 0.0
H1089 H 0.2001 0.73168 0.84142 0.0
H1090 H 0.25729 0.72289 0.84347 0.0
H1091 H 0.30796 0.74078 0.81247 0.0
H1092 H 0.31644 0.83843 0.77307 0.0
H1093 H 0.26578 0.85074 0.80391 0.0
C1094 C 0.22437 0.808 0.83096 0.0
C1095 C 0.20384 0.7819 0.82792 0.0
C1096 C 0.25657 0.80269 0.82435 0.0
C1097 C 0.21571 0.75207 0.84007 0.0
C1098 C 0.2485 0.74689 0.83994 0.0
C1099 C 0.29912 0.76493 0.81203 0.0
C1100 C 0.31589 0.78853 0.79026 0.0
C1101 C 0.26877 0.77154 0.82748 0.0
C1102 C 0.30428 0.81979 0.78986 0.0
C1103 C 0.27507 0.82689 0.80731 0.0
H1104 H 0.61671 0.23425 0.61686 0.0
H1105 H 0.63988 0.21688 0.74436 0.0
H1106 H 0.64618 0.2732 0.75629 0.0
H1107 H 0.67083 0.31975 0.72319 0.0
H1108 H 0.66207 0.33233 0.59154 0.0
H1109 H 0.62602 0.28712 0.58735 0.0
C1110 C 0.6228 0.2429 0.64751 0.0
C1111 C 0.63444 0.22139 0.67731 0.0
C1112 C 0.63099 0.27496 0.65233 0.0
C1113 C 0.63563 0.23269 0.71855 0.0
C1114 C 0.6397 0.26517 0.72558 0.0
C1115 C 0.6604 0.31312 0.69385 0.0
C1116 C 0.67095 0.32748 0.6571 0.0
C1117 C 0.64196 0.28556 0.69141 0.0
C1118 C 0.65552 0.32019 0.61971 0.0
C1119 C 0.63488 0.29438 0.61744 0.0
H1120 H 0.86442 0.31244 0.64881 0.0
H1121 H 0.8744 0.2117 0.6551 0.0
H1122 H 0.81767 0.2059 0.66654 0.0
H1123 H 0.77175 0.23057 0.7025 0.0
H1124 H 0.77486 0.3318 0.72517 0.0
H1125 H 0.81854 0.33713 0.67801 0.0
C1126 C 0.854 0.28903 0.65184 0.0
C1127 C 0.87372 0.26291 0.65973 0.0
C1128 C 0.82291 0.28684 0.66649 0.0
C1129 C 0.85975 0.2328 0.65473 0.0
C1130 C 0.82723 0.22949 0.66253 0.0
C1131 C 0.78167 0.25387 0.69699 0.0
C1132 C 0.76936 0.28066 0.71781 0.0
C1133 C 0.80956 0.25654 0.67351 0.0
C1134 C 0.78251 0.31068 0.70905 0.0
C1135 C 0.80804 0.31386 0.68215 0.0
H1136 H 0.38075 0.77822 0.93923 0.0
H1137 H 0.4116 0.81586 0.82093 0.0
H1138 H 0.45079 0.77448 0.81516 0.0
H1139 H 0.46354 0.71934 0.83258 0.0
H1140 H 0.42589 0.67768 0.9423 0.0
H1141 H 0.40597 0.72902 0.96556 0.0
C1142 C 0.39588 0.77747 0.91206 0.0
C1143 C 0.39153 0.79933 0.87951 0.0
C1144 C 0.41784 0.75277 0.90789 0.0
C1145 C 0.41324 0.79907 0.84612 0.0
C1146 C 0.43613 0.77537 0.84276 0.0
C1147 C 0.45161 0.72183 0.86222 0.0
C1148 C 0.43845 0.69464 0.88074 0.0
C1149 C 0.4369 0.75083 0.87185 0.0
C1150 C 0.43042 0.6982 0.92303 0.0
C1151 C 0.41834 0.72747 0.93618 0.0
H1152 H 0.71626 0.20597 0.41131 0.0
H1153 H 0.64422 0.18222 0.50095 0.0
H1154 H 0.68269 0.15197 0.54126 0.0
H1155 H 0.73671 0.13065 0.55097 0.0
H1156 H 0.8086 0.15119 0.45993 0.0
H1157 H 0.7708 0.18367 0.42073 0.0
C1158 C 0.70908 0.19434 0.43979 0.0
C1159 C 0.67712 0.19659 0.45289 0.0
C1160 C 0.73142 0.17595 0.46263 0.0
C1161 C 0.6684 0.18091 0.48977 0.0
C1162 C 0.69048 0.1635 0.51299 0.0
C1163 C 0.74414 0.14214 0.52247 0.0
C1164 C 0.77565 0.13818 0.50849 0.0
C1165 C 0.72202 0.16053 0.49964 0.0
C1166 C 0.7846 0.15347 0.47145 0.0
C1167 C 0.76291 0.17222 0.449 0.0
H1168 H 0.4531 0.74606 0.54334 0.0
H1169 H 0.41945 0.82011 0.46254 0.0
H1170 H 0.38645 0.78138 0.42518 0.0
H1171 H 0.36638 0.72566 0.41611 0.0
H1172 H 0.40328 0.65234 0.49614 0.0
H1173 H 0.43532 0.69127 0.53277 0.0
C1174 C 0.43866 0.75381 0.51745 0.0
C1175 C 0.43889 0.78612 0.5059 0.0
C1176 C 0.42002 0.73133 0.4959 0.0
C1177 C 0.42 0.79547 0.47207 0.0
C1178 C 0.40096 0.77326 0.45078 0.0
C1179 C 0.38137 0.71825 0.44162 0.0
C1180 C 0.38212 0.6858 0.45322 0.0
C1181 C 0.40059 0.74101 0.46251 0.0
C1182 C 0.40211 0.67686 0.48616 0.0
C1183 C 0.42052 0.69922 0.50735 0.0
H1184 H 0.85496 0.36986 0.41557 0.0
H1185 H 0.92443 0.40347 0.50319 0.0
H1186 H 0.88467 0.43726 0.536 0.0
H1187 H 0.83016 0.45783 0.54023 0.0
H1188 H 0.76078 0.42746 0.45073 0.0
H1189 H 0.80014 0.39233 0.41833 0.0
C1190 C 0.86129 0.38444 0.44201 0.0
C1191 C 0.89279 0.38381 0.45702 0.0
C1192 C 0.83826 0.40471 0.46031 0.0
C1193 C 0.90055 0.40336 0.49089 0.0
C1194 C 0.87775 0.42277 0.50975 0.0
C1195 C 0.82364 0.44364 0.5135 0.0
C1196 C 0.79245 0.44545 0.49793 0.0
C1197 C 0.84656 0.42378 0.49473 0.0
C1198 C 0.78459 0.42684 0.4632 0.0
C1199 C 0.80712 0.40657 0.44478 0.0
H1200 H 0.10472 0.83673 0.52813 0.0
H1201 H 0.15922 0.76153 0.47276 0.0
H1202 H 0.19322 0.80071 0.43809 0.0
H1203 H 0.20834 0.85712 0.42494 0.0
H1204 H 0.15159 0.93186 0.47828 0.0
H1205 H 0.11807 0.89254 0.51227 0.0
C1206 C 0.12387 0.82893 0.50812 0.0
C1207 C 0.12914 0.79611 0.50258 0.0
C1208 C 0.14314 0.85174 0.48799 0.0
C1209 C 0.15422 0.78653 0.47681 0.0
C1210 C 0.17383 0.80904 0.45724 0.0
C1211 C 0.18846 0.86484 0.44356 0.0
C1212 C 0.18272 0.89775 0.44859 0.0
C1213 C 0.16862 0.84182 0.46265 0.0
C1214 C 0.15685 0.90696 0.47349 0.0
C1215 C 0.13752 0.88438 0.49307 0.0
H1216 H 0.2436 0.96278 0.96558 0.0
H1217 H 0.31722 0.92766 0.04571 0.0
H1218 H 0.27898 0.89162 0.07914 0.0
H1219 H 0.2238 0.86924 0.08454 0.0
H1220 H 0.15097 0.90791 0.00545 0.0
H1221 H 0.18948 0.94288 0.97274 0.0
C1222 C 0.25134 0.94742 0.9906 0.0
C1223 C 0.28335 0.94806 0.00308 0.0
C1224 C 0.22919 0.92703 0.00974 0.0
C1225 C 0.29276 0.92797 0.03566 0.0
C1226 C 0.27085 0.90716 0.05458 0.0
C1227 C 0.21647 0.88524 0.06004 0.0
C1228 C 0.1843 0.88567 0.04745 0.0
C1229 C 0.23891 0.90625 0.0417 0.0
C1230 C 0.17532 0.90697 0.01599 0.0
C1231 C 0.1974 0.92708 0.99715 0.0
H1232 H 0.66275 0.16763 0.03166 0.0
H1233 H 0.73874 0.22762 0.07474 0.0
H1234 H 0.71032 0.27454 0.05079 0.0
H1235 H 0.66442 0.29933 0.01441 0.0
H1236 H 0.59127 0.23881 0.9654 0.0
H1237 H 0.61757 0.19212 0.99458 0.0
C1238 C 0.67315 0.19093 0.03594 0.0
C1239 C 0.70293 0.19362 0.05574 0.0
C1240 C 0.65691 0.21816 0.02092 0.0
C1241 C 0.71585 0.22434 0.06022 0.0
C1242 C 0.69954 0.25144 0.04638 0.0
C1243 C 0.65394 0.27598 0.01095 0.0
C1244 C 0.62536 0.27279 0.98857 0.0
C1245 C 0.67004 0.24878 0.0265 0.0
C1246 C 0.61285 0.24211 0.98307 0.0
C1247 C 0.62805 0.21529 -0.00044 0.0
H1248 H 0.28304 0.67047 0.00996 0.0
H1249 H 0.34178 0.60183 0.94746 0.0
H1250 H 0.38924 0.62599 0.97724 0.0
H1251 H 0.41497 0.66721 0.02055 0.0
H1252 H 0.35687 0.73795 0.08026 0.0
H1253 H 0.30919 0.71275 0.05253 0.0
C1254 C 0.3062 0.66056 0.00331 0.0
C1255 C 0.3085 0.63393 0.97661 0.0
C1256 C 0.33392 0.67524 0.01999 0.0
C1257 C 0.339 0.6221 0.96783 0.0
C1258 C 0.36632 0.63601 0.98489 0.0
C1259 C 0.39193 0.67722 0.0276 0.0
C1260 C 0.39005 0.70472 0.05285 0.0
C1261 C 0.36424 0.66273 0.01088 0.0
C1262 C 0.35958 0.71702 0.06107 0.0
C1263 C 0.33205 0.70248 0.04517 0.0
H1264 H 0.89906 0.37087 0.08994 0.0
H1265 H 0.86509 0.41103 0.97585 0.0
H1266 H 0.89384 0.37048 0.93626 0.0
H1267 H 0.9288 0.32314 0.93392 0.0
H1268 H 0.95954 0.28027 0.04832 0.0
H1269 H 0.932 0.32162 0.08786 0.0
C1270 C 0.89703 0.36998 0.05659 0.0
C1271 C 0.87886 0.39331 0.03606 0.0
C1272 C 0.91337 0.34609 0.03401 0.0
C1273 C 0.87827 0.39305 0.99249 0.0
C1274 C 0.89483 0.36985 0.96983 0.0
C1275 C 0.92935 0.32278 0.96755 0.0
C1276 C 0.94649 0.29858 0.98805 0.0
C1277 C 0.91247 0.34618 0.99019 0.0
C1278 C 0.94662 0.29844 0.03165 0.0
C1279 C 0.93073 0.32214 0.05432 0.0
H1280 H 0.40772 0.91861 0.52357 0.0
H1281 H 0.34941 0.85324 0.59261 0.0
H1282 H 0.30165 0.87898 0.56631 0.0
H1283 H 0.27564 0.91873 0.52038 0.0
H1284 H 0.3343 0.98136 0.44778 0.0
H1285 H 0.38193 0.9586 0.4787 0.0
C1286 C 0.38459 0.91016 0.53318 0.0
C1287 C 0.38249 0.88388 0.5602 0.0
C1288 C 0.35689 0.92476 0.51715 0.0
C1289 C 0.35206 0.87323 0.57178 0.0
C1290 C 0.32455 0.88804 0.55675 0.0
C1291 C 0.29884 0.92774 0.512 0.0
C1292 C 0.30122 0.95208 0.48211 0.0
C1293 C 0.32654 0.91368 0.52903 0.0
C1294 C 0.33162 0.96284 0.47084 0.0
C1295 C 0.35901 0.94972 0.48845 0.0
H1296 H 0.64341 0.4086 0.53544 0.0
H1297 H 0.73584 0.36488 0.53149 0.0
H1298 H 0.7128 0.31586 0.50575 0.0
H1299 H 0.66652 0.28465 0.48296 0.0
H1300 H 0.57415 0.32777 0.48383 0.0
H1301 H 0.59659 0.3769 0.51245 0.0
C1302 C 0.6585 0.38843 0.52867 0.0
C1303 C 0.69146 0.39078 0.53571 0.0
C1304 C 0.64495 0.35973 0.51366 0.0
C1305 C 0.71044 0.36406 0.52684 0.0
C1306 C 0.69727 0.3358 0.51195 0.0
C1307 C 0.65126 0.3046 0.49033 0.0
C1308 C 0.61855 0.30219 0.48262 0.0
C1309 C 0.66457 0.33319 0.50541 0.0
C1310 C 0.59925 0.32868 0.49077 0.0
C1311 C 0.61218 0.35696 0.50662 0.0
H1312 H 0.29427 0.6629 0.51889 0.0
H1313 H 0.237 0.59235 0.45785 0.0
H1314 H 0.18887 0.61734 0.48416 0.0
H1315 H 0.16205 0.6605 0.52262 0.0
H1316 H 0.21864 0.7332 0.58056 0.0
H1317 H 0.26704 0.70658 0.55768 0.0
C1318 C 0.27129 0.6526 0.51225 0.0
C1319 C 0.26957 0.62511 0.48714 0.0
C1320 C 0.24315 0.66788 0.52659 0.0
C1321 C 0.2393 0.61302 0.47762 0.0
C1322 C 0.21158 0.62749 0.49249 0.0
C1323 C 0.18492 0.67053 0.53046 0.0
C1324 C 0.18621 0.69903 0.5536 0.0
C1325 C 0.21304 0.65515 0.51668 0.0
C1326 C 0.21645 0.71148 0.56284 0.0
C1327 C 0.24438 0.69612 0.54979 0.0
H1328 H 0.92065 0.16982 0.54083 0.0
H1329 H 0.83779 0.22641 0.56715 0.0
H1330 H 0.86487 0.27381 0.54286 0.0
H1331 H 0.91148 0.2998 0.5107 0.0
H1332 H 0.99237 0.24289 0.47788 0.0
H1333 H 0.96716 0.19579 0.50795 0.0
C1334 C 0.9085 0.19249 0.5413 0.0
C1335 C 0.87716 0.19417 0.5566 0.0
C1336 C 0.9241 0.22003 0.52615 0.0
C1337 C 0.86195 0.224 0.55627 0.0
C1338 C 0.87745 0.25139 0.54223 0.0
C1339 C 0.92383 0.27723 0.51114 0.0
C1340 C 0.9542 0.27508 0.49322 0.0
C1341 C 0.90852 0.2498 0.52696 0.0
C1342 C 0.96932 0.24533 0.49239 0.0
C1343 C 0.95476 0.21829 0.50927 0.0
H1344 H 0.91591 0.16161 0.97226 0.0
H1345 H 0.85742 0.22975 0.90838 0.0
H1346 H 0.80972 0.20295 0.93347 0.0
H1347 H 0.7838 0.16066 0.97611 0.0
H1348 H 0.84299 0.09492 0.04296 0.0
H1349 H 0.8904 0.11974 0.01422 0.0
C1350 C 0.89277 0.17058 0.9636 0.0
C1351 C 0.89067 0.19788 0.93825 0.0
C1352 C 0.86513 0.1552 0.97872 0.0
C1353 C 0.86016 0.20899 0.92787 0.0
C1354 C 0.83267 0.19355 0.9422 0.0
C1355 C 0.80706 0.15144 0.98369 0.0
C1356 C 0.8096 0.12546 0.01125 0.0
C1357 C 0.83471 0.16664 0.96786 0.0
C1358 C 0.84014 0.11456 0.02157 0.0
C1359 C 0.86741 0.12889 0.00525 0.0
H1360 H 0.41275 0.87904 0.91214 0.0
H1361 H 0.37559 0.91624 0.02666 0.0
H1362 H 0.40202 0.87386 0.06553 0.0
H1363 H 0.43416 0.82494 0.0669 0.0
H1364 H 0.47116 0.78684 0.95276 0.0
H1365 H 0.44774 0.83128 0.91415 0.0
C1366 C 0.4107 0.87788 0.94561 0.0
C1367 C 0.39226 0.90076 0.9666 0.0
C1368 C 0.42598 0.85322 0.96782 0.0
C1369 C 0.3898 0.89905 0.00994 0.0
C1370 C 0.40481 0.87472 0.03213 0.0
C1371 C 0.43689 0.82624 0.03348 0.0
C1372 C 0.45399 0.80227 0.01265 0.0
C1373 C 0.42264 0.85143 0.0114 0.0
C1374 C 0.45762 0.80456 0.96946 0.0
C1375 C 0.44421 0.83002 0.94738 0.0
H1376 H 0.7406 0.454 0.0494 0.0
H1377 H 0.81059 0.43038 0.95708 0.0
H1378 H 0.7721 0.39651 0.92125 0.0
H1379 H 0.71792 0.3734 0.91602 0.0
H1380 H 0.64722 0.40098 0.00565 0.0
H1381 H 0.68627 0.43321 0.0424 0.0
C1382 C 0.74741 0.44152 0.02134 0.0
C1383 C 0.77856 0.44469 0.00607 0.0
C1384 C 0.72488 0.42262 0.00037 0.0
C1385 C 0.78684 0.42846 0.96953 0.0
C1386 C 0.7648 0.40899 0.94905 0.0
C1387 C 0.71116 0.38637 0.9437 0.0
C1388 C 0.67963 0.38453 0.95817 0.0
C1389 C 0.73369 0.40578 0.96419 0.0
C1390 C 0.67121 0.40194 0.99373 0.0
C1391 C 0.69358 0.42041 0.01485 0.0
H1392 H 0.16955 0.80153 0.98444 0.0
H1393 H 0.08681 0.74621 0.01408 0.0
H1394 H 0.11095 0.69914 0.98281 0.0
H1395 H 0.1569 0.67246 0.95024 0.0
H1396 H 0.24151 0.72666 0.92573 0.0
H1397 H 0.21567 0.77469 0.95118 0.0
C1398 C 0.15654 0.77936 0.98296 0.0
C1399 C 0.12594 0.77771 0.00053 0.0
C1400 C 0.17121 0.7518 0.96623 0.0
C1401 C 0.11001 0.74838 -7e-05 0.0
C1402 C 0.12398 0.7213 0.98237 0.0
C1403 C 0.16973 0.69475 0.95039 0.0
C1404 C 0.20117 0.69565 0.93531 0.0
C1405 C 0.15481 0.72249 0.966 0.0
C1406 C 0.21721 0.72499 0.93629 0.0
C1407 C 0.20242 0.75266 0.95109 0.0
loop_
_geom_bond_atom_site_label_1
_geom_bond_atom_site_label_2
_geom_bond_distance
_geom_bond_site_symmetry_2
_ccdc_geom_bond_type
C0 Eu1 2.835 . S
C0 C2 1.500 . S
C0 O20 1.257 . S
C0 O21 1.260 . S
Eu1 C0 2.835 . S
Eu1 O20 2.473 . S
Eu1 O21 2.480 . S
Eu1 O22 2.430 . S
Eu1 O23 2.670 . S
Eu1 O24 2.394 . S
Eu1 O29 2.355 . S
Eu1 O31 2.374 . S
C2 C0 1.500 . S
C2 C3 1.377 . S
C2 C7 1.377 . S
C3 C2 1.377 . S
C3 C4 1.395 . S
C3 H32 0.931 . S
C4 C3 1.395 . S
C4 C5 1.383 . S
C4 H33 0.931 . S
C5 C4 1.383 . S
C5 C6 1.394 . S
C6 C5 1.394 . S
C6 C7 1.378 . S
C6 H34 0.931 . S
C7 C2 1.377 . S
C7 C6 1.378 . S
C7 H35 0.931 . S
C8 O22 1.259 . S
C8 O23 1.270 . S
C9 O24 1.251 . S
C9 O25 1.251 . S
C10 Eu11 2.835 . S
C10 C12 1.500 . S
C10 O26 1.257 . S
C10 O27 1.260 . S
Eu11 C10 2.835 . S
Eu11 O23 2.355 . S
Eu11 O25 2.374 . S
Eu11 O26 2.473 . S
Eu11 O27 2.480 . S
Eu11 O28 2.430 . S
Eu11 O29 2.670 . S
Eu11 O30 2.394 . S
C12 C10 1.500 . S
C12 C13 1.377 . S
C12 C17 1.377 . S
C13 C12 1.377 . S
C13 C14 1.395 . S
C13 H36 0.931 . S
C14 C13 1.395 . S
C14 C15 1.383 . S
C14 H37 0.931 . S
C15 C14 1.383 . S
C15 C16 1.394 . S
C16 C15 1.394 . S
C16 C17 1.378 . S
C16 H38 0.931 . S
C17 C12 1.377 . S
C17 C16 1.378 . S
C17 H39 0.931 . S
C18 O28 1.259 . S
C18 O29 1.270 . S
C19 O30 1.251 . S
C19 O31 1.251 . S
O20 C0 1.257 . S
O20 Eu1 2.473 . S
O21 C0 1.260 . S
O21 Eu1 2.480 . S
O22 Eu1 2.430 . S
O22 C8 1.259 . S
O23 Eu1 2.670 . S
O23 C8 1.270 . S
O23 Eu11 2.355 . S
O24 Eu1 2.394 . S
O24 C9 1.251 . S
O25 C9 1.251 . S
O25 Eu11 2.374 . S
O26 C10 1.257 . S
O26 Eu11 2.473 . S
O27 C10 1.260 . S
O27 Eu11 2.480 . S
O28 Eu11 2.430 . S
O28 C18 1.259 . S
O29 Eu1 2.355 . S
O29 Eu11 2.670 . S
O29 C18 1.270 . S
O30 Eu11 2.394 . S
O30 C19 1.251 . S
O31 Eu1 2.374 . S
O31 C19 1.251 . S
H32 C3 0.931 . S
H33 C4 0.931 . S
H34 C6 0.931 . S
H35 C7 0.931 . S
H36 C13 0.931 . S
H37 C14 0.931 . S
H38 C16 0.931 . S
H39 C17 0.931 . S
C40 Eu41 2.835 . S
C40 C42 1.500 . S
C40 O60 1.257 . S
C40 O61 1.260 . S
Eu41 C40 2.835 . S
Eu41 O60 2.473 . S
Eu41 O61 2.480 . S
Eu41 O62 2.430 . S
Eu41 O63 2.670 . S
Eu41 O64 2.394 . S
Eu41 O69 2.355 . S
Eu41 O71 2.374 . S
C42 C40 1.500 . S
C42 C43 1.377 . S
C42 C47 1.377 . S
C43 C42 1.377 . S
C43 C44 1.395 . S
C43 H72 0.931 . S
C44 C43 1.395 . S
C44 C45 1.383 . S
C44 H73 0.931 . S
C45 C44 1.383 . S
C45 C46 1.394 . S
C46 C45 1.394 . S
C46 C47 1.378 . S
C46 H74 0.931 . S
C47 C42 1.377 . S
C47 C46 1.378 . S
C47 H75 0.931 . S
C48 O62 1.259 . S
C48 O63 1.270 . S
C49 O64 1.251 . S
C49 O65 1.251 . S
C50 Eu51 2.835 . S
C50 C52 1.500 . S
C50 O66 1.257 . S
C50 O67 1.260 . S
Eu51 C50 2.835 . S
Eu51 O63 2.355 . S
Eu51 O65 2.374 . S
Eu51 O66 2.473 . S
Eu51 O67 2.480 . S
Eu51 O68 2.430 . S
Eu51 O69 2.670 . S
Eu51 O70 2.394 . S
C52 C50 1.500 . S
C52 C53 1.377 . S
C52 C57 1.377 . S
C53 C52 1.377 . S
C53 C54 1.395 . S
C53 H76 0.931 . S
C54 C53 1.395 . S
C54 C55 1.383 . S
C54 H77 0.931 . S
C55 C54 1.383 . S
C55 C56 1.394 . S
C56 C55 1.394 . S
C56 C57 1.378 . S
C56 H78 0.931 . S
C57 C52 1.377 . S
C57 C56 1.378 . S
C57 H79 0.931 . S
C58 O68 1.259 . S
C58 O69 1.270 . S
C59 O70 1.251 . S
C59 O71 1.251 . S
O60 C40 1.257 . S
O60 Eu41 2.473 . S
O61 C40 1.260 . S
O61 Eu41 2.480 . S
O62 Eu41 2.430 . S
O62 C48 1.259 . S
O63 Eu41 2.670 . S
O63 C48 1.270 . S
O63 Eu51 2.355 . S
O64 Eu41 2.394 . S
O64 C49 1.251 . S
O65 C49 1.251 . S
O65 Eu51 2.374 . S
O66 C50 1.257 . S
O66 Eu51 2.473 . S
O67 C50 1.260 . S
O67 Eu51 2.480 . S
O68 Eu51 2.430 . S
O68 C58 1.259 . S
O69 Eu41 2.355 . S
O69 Eu51 2.670 . S
O69 C58 1.270 . S
O70 Eu51 2.394 . S
O70 C59 1.251 . S
O71 Eu41 2.374 . S
O71 C59 1.251 . S
H72 C43 0.931 . S
H73 C44 0.931 . S
H74 C46 0.931 . S
H75 C47 0.931 . S
H76 C53 0.931 . S
H77 C54 0.931 . S
H78 C56 0.931 . S
H79 C57 0.931 . S
C80 Eu81 2.835 1_455 S
C80 C82 1.500 . S
C80 O100 1.257 . S
C80 O101 1.260 . S
Eu81 C80 2.835 1_655 S
Eu81 O100 2.473 1_655 S
Eu81 O101 2.480 1_655 S
Eu81 O102 2.430 . S
Eu81 O103 2.670 . S
Eu81 O104 2.394 1_655 S
Eu81 O109 2.355 . S
Eu81 O111 2.374 . S
C82 C80 1.500 . S
C82 C83 1.377 . S
C82 C87 1.377 . S
C83 C82 1.377 . S
C83 C84 1.395 . S
C83 H112 0.931 . S
C84 C83 1.395 . S
C84 C85 1.383 . S
C84 H113 0.931 . S
C85 C84 1.383 . S
C85 C86 1.394 . S
C86 C85 1.394 . S
C86 C87 1.378 . S
C86 H114 0.931 . S
C87 C82 1.377 . S
C87 C86 1.378 . S
C87 H115 0.931 . S
C88 O102 1.259 . S
C88 O103 1.270 . S
C89 O104 1.251 . S
C89 O105 1.251 1_455 S
C90 Eu91 2.835 . S
C90 C92 1.500 . S
C90 O106 1.257 . S
C90 O107 1.260 . S
Eu91 C90 2.835 . S
Eu91 O103 2.355 . S
Eu91 O105 2.374 . S
Eu91 O106 2.473 . S
Eu91 O107 2.480 . S
Eu91 O108 2.430 . S
Eu91 O109 2.670 . S
Eu91 O110 2.394 . S
C92 C90 1.500 . S
C92 C93 1.377 . S
C92 C97 1.377 . S
C93 C92 1.377 . S
C93 C94 1.395 . S
C93 H116 0.931 . S
C94 C93 1.395 . S
C94 C95 1.383 . S
C94 H117 0.931 . S
C95 C94 1.383 . S
C95 C96 1.394 . S
C96 C95 1.394 . S
C96 C97 1.378 . S
C96 H118 0.931 . S
C97 C92 1.377 . S
C97 C96 1.378 . S
C97 H119 0.931 . S
C98 O108 1.259 . S
C98 O109 1.270 . S
C99 O110 1.251 . S
C99 O111 1.251 . S
O100 C80 1.257 . S
O100 Eu81 2.473 1_455 S
O101 C80 1.260 . S
O101 Eu81 2.480 1_455 S
O102 Eu81 2.430 . S
O102 C88 1.259 . S
O103 Eu81 2.670 . S
O103 C88 1.270 . S
O103 Eu91 2.355 . S
O104 Eu81 2.394 1_455 S
O104 C89 1.251 . S
O105 C89 1.251 1_655 S
O105 Eu91 2.374 . S
O106 C90 1.257 . S
O106 Eu91 2.473 . S
O107 C90 1.260 . S
O107 Eu91 2.480 . S
O108 Eu91 2.430 . S
O108 C98 1.259 . S
O109 Eu81 2.355 . S
O109 Eu91 2.670 . S
O109 C98 1.270 . S
O110 Eu91 2.394 . S
O110 C99 1.251 . S
O111 Eu81 2.374 . S
O111 C99 1.251 . S
H112 C83 0.931 . S
H113 C84 0.931 . S
H114 C86 0.931 . S
H115 C87 0.931 . S
H116 C93 0.931 . S
H117 C94 0.931 . S
H118 C96 0.931 . S
H119 C97 0.931 . S
C120 Eu121 2.835 1_545 S
C120 C122 1.500 . S
C120 O140 1.257 . S
C120 O141 1.260 . S
Eu121 C120 2.835 1_565 S
Eu121 O140 2.473 1_565 S
Eu121 O141 2.480 1_565 S
Eu121 O142 2.430 . S
Eu121 O143 2.670 . S
Eu121 O144 2.394 1_565 S
Eu121 O149 2.355 . S
Eu121 O151 2.374 . S
C122 C120 1.500 . S
C122 C123 1.377 . S
C122 C127 1.377 . S
C123 C122 1.377 . S
C123 C124 1.395 . S
C123 H152 0.931 . S
C124 C123 1.395 . S
C124 C125 1.383 . S
C124 H153 0.931 . S
C125 C124 1.383 . S
C125 C126 1.394 . S
C126 C125 1.394 . S
C126 C127 1.378 . S
C126 H154 0.931 . S
C127 C122 1.377 . S
C127 C126 1.378 . S
C127 H155 0.931 . S
C128 O142 1.259 . S
C128 O143 1.270 . S
C129 O144 1.251 . S
C129 O145 1.251 1_545 S
C130 Eu131 2.835 . S
C130 C132 1.500 . S
C130 O146 1.257 . S
C130 O147 1.260 . S
Eu131 C130 2.835 . S
Eu131 O143 2.355 . S
Eu131 O145 2.374 . S
Eu131 O146 2.473 . S
Eu131 O147 2.480 . S
Eu131 O148 2.430 . S
Eu131 O149 2.670 . S
Eu131 O150 2.394 . S
C132 C130 1.500 . S
C132 C133 1.377 . S
C132 C137 1.377 . S
C133 C132 1.377 . S
C133 C134 1.395 . S
C133 H156 0.931 . S
C134 C133 1.395 . S
C134 C135 1.383 . S
C134 H157 0.931 . S
C135 C134 1.383 . S
C135 C136 1.394 . S
C136 C135 1.394 . S
C136 C137 1.378 . S
C136 H158 0.931 . S
C137 C132 1.377 . S
C137 C136 1.378 . S
C137 H159 0.931 . S
C138 O148 1.259 . S
C138 O149 1.270 . S
C139 O150 1.251 . S
C139 O151 1.251 . S
O140 C120 1.257 . S
O140 Eu121 2.473 1_545 S
O141 C120 1.260 . S
O141 Eu121 2.480 1_545 S
O142 Eu121 2.430 . S
O142 C128 1.259 . S
O143 Eu121 2.670 . S
O143 C128 1.270 . S
O143 Eu131 2.355 . S
O144 Eu121 2.394 1_545 S
O144 C129 1.251 . S
O145 C129 1.251 1_565 S
O145 Eu131 2.374 . S
O146 C130 1.257 . S
O146 Eu131 2.473 . S
O147 C130 1.260 . S
O147 Eu131 2.480 . S
O148 Eu131 2.430 . S
O148 C138 1.259 . S
O149 Eu121 2.355 . S
O149 Eu131 2.670 . S
O149 C138 1.270 . S
O150 Eu131 2.394 . S
O150 C139 1.251 . S
O151 Eu121 2.374 . S
O151 C139 1.251 . S
H152 C123 0.931 . S
H153 C124 0.931 . S
H154 C126 0.931 . S
H155 C127 0.931 . S
H156 C133 0.931 . S
H157 C134 0.931 . S
H158 C136 0.931 . S
H159 C137 0.931 . S
C160 Eu161 2.835 1_655 S
C160 C162 1.500 . S
C160 O180 1.257 . S
C160 O181 1.260 . S
Eu161 C160 2.835 1_455 S
Eu161 O180 2.473 1_455 S
Eu161 O181 2.480 1_455 S
Eu161 O182 2.430 1_554 S
Eu161 O183 2.670 . S
Eu161 O184 2.394 1_455 S
Eu161 O189 2.355 . S
Eu161 O191 2.374 . S
C162 C160 1.500 . S
C162 C163 1.377 . S
C162 C167 1.377 . S
C163 C162 1.377 . S
C163 C164 1.395 . S
C163 H192 0.931 1_554 S
C164 C163 1.395 . S
C164 C165 1.383 . S
C164 H193 0.931 1_554 S
C165 C164 1.383 . S
C165 C166 1.394 . S
C166 C165 1.394 . S
C166 C167 1.378 . S
C166 H194 0.931 . S
C167 C162 1.377 . S
C167 C166 1.378 . S
C167 H195 0.931 . S
C168 O182 1.259 1_554 S
C168 O183 1.270 . S
C169 O184 1.251 . S
C169 O185 1.251 1_655 S
C170 Eu171 2.835 . S
C170 C172 1.500 . S
C170 O186 1.257 . S
C170 O187 1.260 . S
Eu171 C170 2.835 . S
Eu171 O183 2.355 . S
Eu171 O185 2.374 . S
Eu171 O186 2.473 . S
Eu171 O187 2.480 . S
Eu171 O188 2.430 . S
Eu171 O189 2.670 . S
Eu171 O190 2.394 . S
C172 C170 1.500 . S
C172 C173 1.377 . S
C172 C177 1.377 . S
C173 C172 1.377 . S
C173 C174 1.395 . S
C173 H196 0.931 . S
C174 C173 1.395 . S
C174 C175 1.383 . S
C174 H197 0.931 . S
C175 C174 1.383 . S
C175 C176 1.394 . S
C176 C175 1.394 . S
C176 C177 1.378 . S
C176 H198 0.931 . S
C177 C172 1.377 . S
C177 C176 1.378 . S
C177 H199 0.931 . S
C178 O188 1.259 . S
C178 O189 1.270 . S
C179 O190 1.251 . S
C179 O191 1.251 . S
O180 C160 1.257 . S
O180 Eu161 2.473 1_655 S
O181 C160 1.260 . S
O181 Eu161 2.480 1_655 S
O182 Eu161 2.430 1_556 S
O182 C168 1.259 1_556 S
O183 Eu161 2.670 . S
O183 C168 1.270 . S
O183 Eu171 2.355 . S
O184 Eu161 2.394 1_655 S
O184 C169 1.251 . S
O185 C169 1.251 1_455 S
O185 Eu171 2.374 . S
O186 C170 1.257 . S
O186 Eu171 2.473 . S
O187 C170 1.260 . S
O187 Eu171 2.480 . S
O188 Eu171 2.430 . S
O188 C178 1.259 . S
O189 Eu161 2.355 . S
O189 Eu171 2.670 . S
O189 C178 1.270 . S
O190 Eu171 2.394 . S
O190 C179 1.251 . S
O191 Eu161 2.374 . S
O191 C179 1.251 . S
H192 C163 0.931 1_556 S
H193 C164 0.931 1_556 S
H194 C166 0.931 . S
H195 C167 0.931 . S
H196 C173 0.931 . S
H197 C174 0.931 . S
H198 C176 0.931 . S
H199 C177 0.931 . S
C200 Eu201 2.835 1_565 S
C200 C202 1.500 . S
C200 O220 1.257 . S
C200 O221 1.260 . S
Eu201 C200 2.835 1_545 S
Eu201 O220 2.473 1_545 S
Eu201 O221 2.480 1_545 S
Eu201 O222 2.430 1_554 S
Eu201 O223 2.670 . S
Eu201 O224 2.394 1_545 S
Eu201 O229 2.355 . S
Eu201 O231 2.374 . S
C202 C200 1.500 . S
C202 C203 1.377 . S
C202 C207 1.377 . S
C203 C202 1.377 . S
C203 C204 1.395 . S
C203 H232 0.931 1_554 S
C204 C203 1.395 . S
C204 C205 1.383 . S
C204 H233 0.931 1_554 S
C205 C204 1.383 . S
C205 C206 1.394 . S
C206 C205 1.394 . S
C206 C207 1.378 . S
C206 H234 0.931 . S
C207 C202 1.377 . S
C207 C206 1.378 . S
C207 H235 0.931 . S
C208 O222 1.259 1_554 S
C208 O223 1.270 . S
C209 O224 1.251 . S
C209 O225 1.251 1_565 S
C210 Eu211 2.835 . S
C210 C212 1.500 . S
C210 O226 1.257 . S
C210 O227 1.260 . S
Eu211 C210 2.835 . S
Eu211 O223 2.355 . S
Eu211 O225 2.374 . S
Eu211 O226 2.473 . S
Eu211 O227 2.480 . S
Eu211 O228 2.430 . S
Eu211 O229 2.670 . S
Eu211 O230 2.394 . S
C212 C210 1.500 . S
C212 C213 1.377 . S
C212 C217 1.377 . S
C213 C212 1.377 . S
C213 C214 1.395 . S
C213 H236 0.931 . S
C214 C213 1.395 . S
C214 C215 1.383 . S
C214 H237 0.931 . S
C215 C214 1.383 . S
C215 C216 1.394 . S
C216 C215 1.394 . S
C216 C217 1.378 . S
C216 H238 0.931 . S
C217 C212 1.377 . S
C217 C216 1.378 . S
C217 H239 0.931 . S
C218 O228 1.259 . S
C218 O229 1.270 . S
C219 O230 1.251 . S
C219 O231 1.251 . S
O220 C200 1.257 . S
O220 Eu201 2.473 1_565 S
O221 C200 1.260 . S
O221 Eu201 2.480 1_565 S
O222 Eu201 2.430 1_556 S
O222 C208 1.259 1_556 S
O223 Eu201 2.670 . S
O223 C208 1.270 . S
O223 Eu211 2.355 . S
O224 Eu201 2.394 1_565 S
O224 C209 1.251 . S
O225 C209 1.251 1_545 S
O225 Eu211 2.374 . S
O226 C210 1.257 . S
O226 Eu211 2.473 . S
O227 C210 1.260 . S
O227 Eu211 2.480 . S
O228 Eu211 2.430 . S
O228 C218 1.259 . S
O229 Eu201 2.355 . S
O229 Eu211 2.670 . S
O229 C218 1.270 . S
O230 Eu211 2.394 . S
O230 C219 1.251 . S
O231 Eu201 2.374 . S
O231 C219 1.251 . S
H232 C203 0.931 1_556 S
H233 C204 0.931 1_556 S
H234 C206 0.931 . S
H235 C207 0.931 . S
H236 C213 0.931 . S
H237 C214 0.931 . S
H238 C216 0.931 . S
H239 C217 0.931 . S
C240 Eu241 2.835 . S
C240 C242 1.500 . S
C240 O260 1.257 . S
C240 O261 1.260 . S
Eu241 C240 2.835 . S
Eu241 O260 2.473 . S
Eu241 O261 2.480 . S
Eu241 O262 2.430 1_554 S
Eu241 O263 2.670 . S
Eu241 O264 2.394 . S
Eu241 O269 2.355 . S
Eu241 O271 2.374 . S
C242 C240 1.500 . S
C242 C243 1.377 . S
C242 C247 1.377 . S
C243 C242 1.377 . S
C243 C244 1.395 . S
C243 H272 0.931 1_554 S
C244 C243 1.395 . S
C244 C245 1.383 . S
C244 H273 0.931 1_554 S
C245 C244 1.383 . S
C245 C246 1.394 . S
C246 C245 1.394 . S
C246 C247 1.378 . S
C246 H274 0.931 . S
C247 C242 1.377 . S
C247 C246 1.378 . S
C247 H275 0.931 . S
C248 O262 1.259 1_554 S
C248 O263 1.270 . S
C249 O264 1.251 . S
C249 O265 1.251 . S
C250 Eu251 2.835 . S
C250 C252 1.500 . S
C250 O266 1.257 . S
C250 O267 1.260 . S
Eu251 C250 2.835 . S
Eu251 O263 2.355 . S
Eu251 O265 2.374 . S
Eu251 O266 2.473 . S
Eu251 O267 2.480 . S
Eu251 O268 2.430 . S
Eu251 O269 2.670 . S
Eu251 O270 2.394 . S
C252 C250 1.500 . S
C252 C253 1.377 . S
C252 C257 1.377 . S
C253 C252 1.377 . S
C253 C254 1.395 . S
C253 H276 0.931 . S
C254 C253 1.395 . S
C254 C255 1.383 . S
C254 H277 0.931 . S
C255 C254 1.383 . S
C255 C256 1.394 . S
C256 C255 1.394 . S
C256 C257 1.378 . S
C256 H278 0.931 . S
C257 C252 1.377 . S
C257 C256 1.378 . S
C257 H279 0.931 . S
C258 O268 1.259 . S
C258 O269 1.270 . S
C259 O270 1.251 . S
C259 O271 1.251 . S
O260 C240 1.257 . S
O260 Eu241 2.473 . S
O261 C240 1.260 . S
O261 Eu241 2.480 . S
O262 Eu241 2.430 1_556 S
O262 C248 1.259 1_556 S
O263 Eu241 2.670 . S
O263 C248 1.270 . S
O263 Eu251 2.355 . S
O264 Eu241 2.394 . S
O264 C249 1.251 . S
O265 C249 1.251 . S
O265 Eu251 2.374 . S
O266 C250 1.257 . S
O266 Eu251 2.473 . S
O267 C250 1.260 . S
O267 Eu251 2.480 . S
O268 Eu251 2.430 . S
O268 C258 1.259 . S
O269 Eu241 2.355 . S
O269 Eu251 2.670 . S
O269 C258 1.270 . S
O270 Eu251 2.394 . S
O270 C259 1.251 . S
O271 Eu241 2.374 . S
O271 C259 1.251 . S
H272 C243 0.931 1_556 S
H273 C244 0.931 1_556 S
H274 C246 0.931 . S
H275 C247 0.931 . S
H276 C253 0.931 . S
H277 C254 0.931 . S
H278 C256 0.931 . S
H279 C257 0.931 . S
C280 Eu281 2.835 . S
C280 C282 1.500 . S
C280 O300 1.257 . S
C280 O301 1.260 . S
Eu281 C280 2.835 . S
Eu281 O300 2.473 . S
Eu281 O301 2.480 . S
Eu281 O302 2.430 1_554 S
Eu281 O303 2.670 . S
Eu281 O304 2.394 . S
Eu281 O309 2.355 . S
Eu281 O311 2.374 . S
C282 C280 1.500 . S
C282 C283 1.377 . S
C282 C287 1.377 . S
C283 C282 1.377 . S
C283 C284 1.395 . S
C283 H312 0.931 1_554 S
C284 C283 1.395 . S
C284 C285 1.383 . S
C284 H313 0.931 1_554 S
C285 C284 1.383 . S
C285 C286 1.394 . S
C286 C285 1.394 . S
C286 C287 1.378 . S
C286 H314 0.931 . S
C287 C282 1.377 . S
C287 C286 1.378 . S
C287 H315 0.931 . S
C288 O302 1.259 1_554 S
C288 O303 1.270 . S
C289 O304 1.251 . S
C289 O305 1.251 . S
C290 Eu291 2.835 . S
C290 C292 1.500 . S
C290 O306 1.257 . S
C290 O307 1.260 . S
Eu291 C290 2.835 . S
Eu291 O303 2.355 . S
Eu291 O305 2.374 . S
Eu291 O306 2.473 . S
Eu291 O307 2.480 . S
Eu291 O308 2.430 . S
Eu291 O309 2.670 . S
Eu291 O310 2.394 . S
C292 C290 1.500 . S
C292 C293 1.377 . S
C292 C297 1.377 . S
C293 C292 1.377 . S
C293 C294 1.395 . S
C293 H316 0.931 . S
C294 C293 1.395 . S
C294 C295 1.383 . S
C294 H317 0.931 . S
C295 C294 1.383 . S
C295 C296 1.394 . S
C296 C295 1.394 . S
C296 C297 1.378 . S
C296 H318 0.931 . S
C297 C292 1.377 . S
C297 C296 1.378 . S
C297 H319 0.931 . S
C298 O308 1.259 . S
C298 O309 1.270 . S
C299 O310 1.251 . S
C299 O311 1.251 . S
O300 C280 1.257 . S
O300 Eu281 2.473 . S
O301 C280 1.260 . S
O301 Eu281 2.480 . S
O302 Eu281 2.430 1_556 S
O302 C288 1.259 1_556 S
O303 Eu281 2.670 . S
O303 C288 1.270 . S
O303 Eu291 2.355 . S
O304 Eu281 2.394 . S
O304 C289 1.251 . S
O305 C289 1.251 . S
O305 Eu291 2.374 . S
O306 C290 1.257 . S
O306 Eu291 2.473 . S
O307 C290 1.260 . S
O307 Eu291 2.480 . S
O308 Eu291 2.430 . S
O308 C298 1.259 . S
O309 Eu281 2.355 . S
O309 Eu291 2.670 . S
O309 C298 1.270 . S
O310 Eu291 2.394 . S
O310 C299 1.251 . S
O311 Eu281 2.374 . S
O311 C299 1.251 . S
H312 C283 0.931 1_556 S
H313 C284 0.931 1_556 S
H314 C286 0.931 . S
H315 C287 0.931 . S
H316 C293 0.931 . S
H317 C294 0.931 . S
H318 C296 0.931 . S
H319 C297 0.931 . S
C320 Eu321 2.835 . S
C320 C322 1.500 . S
C320 O340 1.257 . S
C320 O341 1.260 . S
Eu321 C320 2.835 . S
Eu321 O340 2.473 . S
Eu321 O341 2.480 . S
Eu321 O342 2.430 . S
Eu321 O343 2.670 . S
Eu321 O344 2.394 . S
Eu321 O349 2.355 . S
Eu321 O351 2.374 . S
C322 C320 1.500 . S
C322 C323 1.377 . S
C322 C327 1.377 . S
C323 C322 1.377 . S
C323 C324 1.395 . S
C323 H352 0.931 . S
C324 C323 1.395 . S
C324 C325 1.383 . S
C324 H353 0.931 . S
C325 C324 1.383 . S
C325 C326 1.394 . S
C326 C325 1.394 . S
C326 C327 1.378 . S
C326 H354 0.931 . S
C327 C322 1.377 . S
C327 C326 1.378 . S
C327 H355 0.931 . S
C328 O342 1.259 . S
C328 O343 1.270 . S
C329 O344 1.251 . S
C329 O345 1.251 . S
C330 Eu331 2.835 . S
C330 C332 1.500 . S
C330 O346 1.257 . S
C330 O347 1.260 . S
Eu331 C330 2.835 . S
Eu331 O343 2.355 . S
Eu331 O345 2.374 . S
Eu331 O346 2.473 . S
Eu331 O347 2.480 . S
Eu331 O348 2.430 . S
Eu331 O349 2.670 . S
Eu331 O350 2.394 . S
C332 C330 1.500 . S
C332 C333 1.377 . S
C332 C337 1.377 . S
C333 C332 1.377 . S
C333 C334 1.395 . S
C333 H356 0.931 . S
C334 C333 1.395 . S
C334 C335 1.383 . S
C334 H357 0.931 . S
C335 C334 1.383 . S
C335 C336 1.394 . S
C336 C335 1.394 . S
C336 C337 1.378 . S
C336 H358 0.931 . S
C337 C332 1.377 . S
C337 C336 1.378 . S
C337 H359 0.931 . S
C338 O348 1.259 . S
C338 O349 1.270 . S
C339 O350 1.251 . S
C339 O351 1.251 . S
O340 C320 1.257 . S
O340 Eu321 2.473 . S
O341 C320 1.260 . S
O341 Eu321 2.480 . S
O342 Eu321 2.430 . S
O342 C328 1.259 . S
O343 Eu321 2.670 . S
O343 C328 1.270 . S
O343 Eu331 2.355 . S
O344 Eu321 2.394 . S
O344 C329 1.251 . S
O345 C329 1.251 . S
O345 Eu331 2.374 . S
O346 C330 1.257 . S
O346 Eu331 2.473 . S
O347 C330 1.260 . S
O347 Eu331 2.480 . S
O348 Eu331 2.430 . S
O348 C338 1.259 . S
O349 Eu321 2.355 . S
O349 Eu331 2.670 . S
O349 C338 1.270 . S
O350 Eu331 2.394 . S
O350 C339 1.251 . S
O351 Eu321 2.374 . S
O351 C339 1.251 . S
H352 C323 0.931 . S
H353 C324 0.931 . S
H354 C326 0.931 . S
H355 C327 0.931 . S
H356 C333 0.931 . S
H357 C334 0.931 . S
H358 C336 0.931 . S
H359 C337 0.931 . S
C360 Eu361 2.835 . S
C360 C362 1.500 . S
C360 O380 1.257 . S
C360 O381 1.260 . S
Eu361 C360 2.835 . S
Eu361 O380 2.473 . S
Eu361 O381 2.480 . S
Eu361 O382 2.430 . S
Eu361 O383 2.670 . S
Eu361 O384 2.394 . S
Eu361 O389 2.355 . S
Eu361 O391 2.374 . S
C362 C360 1.500 . S
C362 C363 1.377 . S
C362 C367 1.377 . S
C363 C362 1.377 . S
C363 C364 1.395 . S
C363 H392 0.931 . S
C364 C363 1.395 . S
C364 C365 1.383 . S
C364 H393 0.931 . S
C365 C364 1.383 . S
C365 C366 1.394 . S
C366 C365 1.394 . S
C366 C367 1.378 . S
C366 H394 0.931 . S
C367 C362 1.377 . S
C367 C366 1.378 . S
C367 H395 0.931 . S
C368 O382 1.259 . S
C368 O383 1.270 . S
C369 O384 1.251 . S
C369 O385 1.251 . S
C370 Eu371 2.835 . S
C370 C372 1.500 . S
C370 O386 1.257 . S
C370 O387 1.260 . S
Eu371 C370 2.835 . S
Eu371 O383 2.355 . S
Eu371 O385 2.374 . S
Eu371 O386 2.473 . S
Eu371 O387 2.480 . S
Eu371 O388 2.430 . S
Eu371 O389 2.670 . S
Eu371 O390 2.394 . S
C372 C370 1.500 . S
C372 C373 1.377 . S
C372 C377 1.377 . S
C373 C372 1.377 . S
C373 C374 1.395 . S
C373 H396 0.931 . S
C374 C373 1.395 . S
C374 C375 1.383 . S
C374 H397 0.931 . S
C375 C374 1.383 . S
C375 C376 1.394 . S
C376 C375 1.394 . S
C376 C377 1.378 . S
C376 H398 0.931 . S
C377 C372 1.377 . S
C377 C376 1.378 . S
C377 H399 0.931 . S
C378 O388 1.259 . S
C378 O389 1.270 . S
C379 O390 1.251 . S
C379 O391 1.251 . S
O380 C360 1.257 . S
O380 Eu361 2.473 . S
O381 C360 1.260 . S
O381 Eu361 2.480 . S
O382 Eu361 2.430 . S
O382 C368 1.259 . S
O383 Eu361 2.670 . S
O383 C368 1.270 . S
O383 Eu371 2.355 . S
O384 Eu361 2.394 . S
O384 C369 1.251 . S
O385 C369 1.251 . S
O385 Eu371 2.374 . S
O386 C370 1.257 . S
O386 Eu371 2.473 . S
O387 C370 1.260 . S
O387 Eu371 2.480 . S
O388 Eu371 2.430 . S
O388 C378 1.259 . S
O389 Eu361 2.355 . S
O389 Eu371 2.670 . S
O389 C378 1.270 . S
O390 Eu371 2.394 . S
O390 C379 1.251 . S
O391 Eu361 2.374 . S
O391 C379 1.251 . S
H392 C363 0.931 . S
H393 C364 0.931 . S
H394 C366 0.931 . S
H395 C367 0.931 . S
H396 C373 0.931 . S
H397 C374 0.931 . S
H398 C376 0.931 . S
H399 C377 0.931 . S
C400 Eu401 2.835 . S
C400 C402 1.500 . S
C400 O420 1.257 . S
C400 O421 1.260 . S
Eu401 C400 2.835 . S
Eu401 O420 2.473 . S
Eu401 O421 2.480 . S
Eu401 O422 2.430 . S
Eu401 O423 2.670 . S
Eu401 O424 2.394 . S
Eu401 O429 2.355 . S
Eu401 O431 2.374 . S
C402 C400 1.500 . S
C402 C403 1.377 . S
C402 C407 1.377 . S
C403 C402 1.377 . S
C403 C404 1.395 . S
C403 H432 0.931 . S
C404 C403 1.395 . S
C404 C405 1.383 . S
C404 H433 0.931 . S
C405 C404 1.383 . S
C405 C406 1.394 . S
C406 C405 1.394 . S
C406 C407 1.378 . S
C406 H434 0.931 . S
C407 C402 1.377 . S
C407 C406 1.378 . S
C407 H435 0.931 . S
C408 O422 1.259 . S
C408 O423 1.270 . S
C409 O424 1.251 . S
C409 O425 1.251 . S
C410 Eu411 2.835 1_655 S
C410 C412 1.500 . S
C410 O426 1.257 . S
C410 O427 1.260 . S
Eu411 C410 2.835 1_455 S
Eu411 O423 2.355 . S
Eu411 O425 2.374 . S
Eu411 O426 2.473 1_455 S
Eu411 O427 2.480 1_455 S
Eu411 O428 2.430 . S
Eu411 O429 2.670 . S
Eu411 O430 2.394 1_455 S
C412 C410 1.500 . S
C412 C413 1.377 . S
C412 C417 1.377 . S
C413 C412 1.377 . S
C413 C414 1.395 . S
C413 H436 0.931 . S
C414 C413 1.395 . S
C414 C415 1.383 . S
C414 H437 0.931 . S
C415 C414 1.383 . S
C415 C416 1.394 . S
C416 C415 1.394 . S
C416 C417 1.378 . S
C416 H438 0.931 . S
C417 C412 1.377 . S
C417 C416 1.378 . S
C417 H439 0.931 . S
C418 O428 1.259 . S
C418 O429 1.270 . S
C419 O430 1.251 . S
C419 O431 1.251 1_655 S
O420 C400 1.257 . S
O420 Eu401 2.473 . S
O421 C400 1.260 . S
O421 Eu401 2.480 . S
O422 Eu401 2.430 . S
O422 C408 1.259 . S
O423 Eu401 2.670 . S
O423 C408 1.270 . S
O423 Eu411 2.355 . S
O424 Eu401 2.394 . S
O424 C409 1.251 . S
O425 C409 1.251 . S
O425 Eu411 2.374 . S
O426 C410 1.257 . S
O426 Eu411 2.473 1_655 S
O427 C410 1.260 . S
O427 Eu411 2.480 1_655 S
O428 Eu411 2.430 . S
O428 C418 1.259 . S
O429 Eu401 2.355 . S
O429 Eu411 2.670 . S
O429 C418 1.270 . S
O430 Eu411 2.394 1_655 S
O430 C419 1.251 . S
O431 Eu401 2.374 . S
O431 C419 1.251 1_455 S
H432 C403 0.931 . S
H433 C404 0.931 . S
H434 C406 0.931 . S
H435 C407 0.931 . S
H436 C413 0.931 . S
H437 C414 0.931 . S
H438 C416 0.931 . S
H439 C417 0.931 . S
C440 Eu441 2.835 . S
C440 C442 1.500 . S
C440 O460 1.257 . S
C440 O461 1.260 . S
Eu441 C440 2.835 . S
Eu441 O460 2.473 . S
Eu441 O461 2.480 . S
Eu441 O462 2.430 . S
Eu441 O463 2.670 . S
Eu441 O464 2.394 . S
Eu441 O469 2.355 . S
Eu441 O471 2.374 . S
C442 C440 1.500 . S
C442 C443 1.377 . S
C442 C447 1.377 . S
C443 C442 1.377 . S
C443 C444 1.395 . S
C443 H472 0.931 . S
C444 C443 1.395 . S
C444 C445 1.383 . S
C444 H473 0.931 . S
C445 C444 1.383 . S
C445 C446 1.394 . S
C446 C445 1.394 . S
C446 C447 1.378 . S
C446 H474 0.931 . S
C447 C442 1.377 . S
C447 C446 1.378 . S
C447 H475 0.931 . S
C448 O462 1.259 . S
C448 O463 1.270 . S
C449 O464 1.251 . S
C449 O465 1.251 . S
C450 Eu451 2.835 1_565 S
C450 C452 1.500 . S
C450 O466 1.257 . S
C450 O467 1.260 . S
Eu451 C450 2.835 1_545 S
Eu451 O463 2.355 . S
Eu451 O465 2.374 . S
Eu451 O466 2.473 1_545 S
Eu451 O467 2.480 1_545 S
Eu451 O468 2.430 . S
Eu451 O469 2.670 . S
Eu451 O470 2.394 1_545 S
C452 C450 1.500 . S
C452 C453 1.377 . S
C452 C457 1.377 . S
C453 C452 1.377 . S
C453 C454 1.395 . S
C453 H476 0.931 . S
C454 C453 1.395 . S
C454 C455 1.383 . S
C454 H477 0.931 . S
C455 C454 1.383 . S
C455 C456 1.394 . S
C456 C455 1.394 . S
C456 C457 1.378 . S
C456 H478 0.931 . S
C457 C452 1.377 . S
C457 C456 1.378 . S
C457 H479 0.931 . S
C458 O468 1.259 . S
C458 O469 1.270 . S
C459 O470 1.251 . S
C459 O471 1.251 1_565 S
O460 C440 1.257 . S
O460 Eu441 2.473 . S
O461 C440 1.260 . S
O461 Eu441 2.480 . S
O462 Eu441 2.430 . S
O462 C448 1.259 . S
O463 Eu441 2.670 . S
O463 C448 1.270 . S
O463 Eu451 2.355 . S
O464 Eu441 2.394 . S
O464 C449 1.251 . S
O465 C449 1.251 . S
O465 Eu451 2.374 . S
O466 C450 1.257 . S
O466 Eu451 2.473 1_565 S
O467 C450 1.260 . S
O467 Eu451 2.480 1_565 S
O468 Eu451 2.430 . S
O468 C458 1.259 . S
O469 Eu441 2.355 . S
O469 Eu451 2.670 . S
O469 C458 1.270 . S
O470 Eu451 2.394 1_565 S
O470 C459 1.251 . S
O471 Eu441 2.374 . S
O471 C459 1.251 1_545 S
H472 C443 0.931 . S
H473 C444 0.931 . S
H474 C446 0.931 . S
H475 C447 0.931 . S
H476 C453 0.931 . S
H477 C454 0.931 . S
H478 C456 0.931 . S
H479 C457 0.931 . S
C480 Eu481 2.835 . S
C480 C482 1.500 . S
C480 O500 1.257 . S
C480 O501 1.260 . S
Eu481 C480 2.835 . S
Eu481 O500 2.473 . S
Eu481 O501 2.480 . S
Eu481 O502 2.430 . S
Eu481 O503 2.670 . S
Eu481 O504 2.394 . S
Eu481 O509 2.355 . S
Eu481 O511 2.374 . S
C482 C480 1.500 . S
C482 C483 1.377 . S
C482 C487 1.377 . S
C483 C482 1.377 . S
C483 C484 1.395 . S
C483 H512 0.931 . S
C484 C483 1.395 . S
C484 C485 1.383 . S
C484 H513 0.931 . S
C485 C484 1.383 . S
C485 C486 1.394 . S
C486 C485 1.394 . S
C486 C487 1.378 . S
C486 H514 0.931 . S
C487 C482 1.377 . S
C487 C486 1.378 . S
C487 H515 0.931 . S
C488 O502 1.259 . S
C488 O503 1.270 . S
C489 O504 1.251 . S
C489 O505 1.251 . S
C490 Eu491 2.835 1_455 S
C490 C492 1.500 . S
C490 O506 1.257 . S
C490 O507 1.260 . S
Eu491 C490 2.835 1_655 S
Eu491 O503 2.355 . S
Eu491 O505 2.374 . S
Eu491 O506 2.473 1_655 S
Eu491 O507 2.480 1_655 S
Eu491 O508 2.430 1_556 S
Eu491 O509 2.670 . S
Eu491 O510 2.394 1_655 S
C492 C490 1.500 . S
C492 C493 1.377 . S
C492 C497 1.377 . S
C493 C492 1.377 . S
C493 C494 1.395 . S
C493 H516 0.931 1_556 S
C494 C493 1.395 . S
C494 C495 1.383 . S
C494 H517 0.931 1_556 S
C495 C494 1.383 . S
C495 C496 1.394 . S
C496 C495 1.394 . S
C496 C497 1.378 . S
C496 H518 0.931 . S
C497 C492 1.377 . S
C497 C496 1.378 . S
C497 H519 0.931 . S
C498 O508 1.259 1_556 S
C498 O509 1.270 . S
C499 O510 1.251 . S
C499 O511 1.251 1_455 S
O500 C480 1.257 . S
O500 Eu481 2.473 . S
O501 C480 1.260 . S
O501 Eu481 2.480 . S
O502 Eu481 2.430 . S
O502 C488 1.259 . S
O503 Eu481 2.670 . S
O503 C488 1.270 . S
O503 Eu491 2.355 . S
O504 Eu481 2.394 . S
O504 C489 1.251 . S
O505 C489 1.251 . S
O505 Eu491 2.374 . S
O506 C490 1.257 . S
O506 Eu491 2.473 1_455 S
O507 C490 1.260 . S
O507 Eu491 2.480 1_455 S
O508 Eu491 2.430 1_554 S
O508 C498 1.259 1_554 S
O509 Eu481 2.355 . S
O509 Eu491 2.670 . S
O509 C498 1.270 . S
O510 Eu491 2.394 1_455 S
O510 C499 1.251 . S
O511 Eu481 2.374 . S
O511 C499 1.251 1_655 S
H512 C483 0.931 . S
H513 C484 0.931 . S
H514 C486 0.931 . S
H515 C487 0.931 . S
H516 C493 0.931 1_554 S
H517 C494 0.931 1_554 S
H518 C496 0.931 . S
H519 C497 0.931 . S
C520 Eu521 2.835 . S
C520 C522 1.500 . S
C520 O540 1.257 . S
C520 O541 1.260 . S
Eu521 C520 2.835 . S
Eu521 O540 2.473 . S
Eu521 O541 2.480 . S
Eu521 O542 2.430 . S
Eu521 O543 2.670 . S
Eu521 O544 2.394 . S
Eu521 O549 2.355 . S
Eu521 O551 2.374 . S
C522 C520 1.500 . S
C522 C523 1.377 . S
C522 C527 1.377 . S
C523 C522 1.377 . S
C523 C524 1.395 . S
C523 H552 0.931 . S
C524 C523 1.395 . S
C524 C525 1.383 . S
C524 H553 0.931 . S
C525 C524 1.383 . S
C525 C526 1.394 . S
C526 C525 1.394 . S
C526 C527 1.378 . S
C526 H554 0.931 . S
C527 C522 1.377 . S
C527 C526 1.378 . S
C527 H555 0.931 . S
C528 O542 1.259 . S
C528 O543 1.270 . S
C529 O544 1.251 . S
C529 O545 1.251 . S
C530 Eu531 2.835 1_545 S
C530 C532 1.500 . S
C530 O546 1.257 . S
C530 O547 1.260 . S
Eu531 C530 2.835 1_565 S
Eu531 O543 2.355 . S
Eu531 O545 2.374 . S
Eu531 O546 2.473 1_565 S
Eu531 O547 2.480 1_565 S
Eu531 O548 2.430 1_556 S
Eu531 O549 2.670 . S
Eu531 O550 2.394 1_565 S
C532 C530 1.500 . S
C532 C533 1.377 . S
C532 C537 1.377 . S
C533 C532 1.377 . S
C533 C534 1.395 . S
C533 H556 0.931 1_556 S
C534 C533 1.395 . S
C534 C535 1.383 . S
C534 H557 0.931 1_556 S
C535 C534 1.383 . S
C535 C536 1.394 . S
C536 C535 1.394 . S
C536 C537 1.378 . S
C536 H558 0.931 . S
C537 C532 1.377 . S
C537 C536 1.378 . S
C537 H559 0.931 . S
C538 O548 1.259 1_556 S
C538 O549 1.270 . S
C539 O550 1.251 . S
C539 O551 1.251 1_545 S
O540 C520 1.257 . S
O540 Eu521 2.473 . S
O541 C520 1.260 . S
O541 Eu521 2.480 . S
O542 Eu521 2.430 . S
O542 C528 1.259 . S
O543 Eu521 2.670 . S
O543 C528 1.270 . S
O543 Eu531 2.355 . S
O544 Eu521 2.394 . S
O544 C529 1.251 . S
O545 C529 1.251 . S
O545 Eu531 2.374 . S
O546 C530 1.257 . S
O546 Eu531 2.473 1_545 S
O547 C530 1.260 . S
O547 Eu531 2.480 1_545 S
O548 Eu531 2.430 1_554 S
O548 C538 1.259 1_554 S
O549 Eu521 2.355 . S
O549 Eu531 2.670 . S
O549 C538 1.270 . S
O550 Eu531 2.394 1_545 S
O550 C539 1.251 . S
O551 Eu521 2.374 . S
O551 C539 1.251 1_565 S
H552 C523 0.931 . S
H553 C524 0.931 . S
H554 C526 0.931 . S
H555 C527 0.931 . S
H556 C533 0.931 1_554 S
H557 C534 0.931 1_554 S
H558 C536 0.931 . S
H559 C537 0.931 . S
C560 Eu561 2.835 . S
C560 C562 1.500 . S
C560 O580 1.257 . S
C560 O581 1.260 . S
Eu561 C560 2.835 . S
Eu561 O580 2.473 . S
Eu561 O581 2.480 . S
Eu561 O582 2.430 . S
Eu561 O583 2.670 . S
Eu561 O584 2.394 . S
Eu561 O589 2.355 . S
Eu561 O591 2.374 . S
C562 C560 1.500 . S
C562 C563 1.377 . S
C562 C567 1.377 . S
C563 C562 1.377 . S
C563 C564 1.395 . S
C563 H592 0.931 . S
C564 C563 1.395 . S
C564 C565 1.383 . S
C564 H593 0.931 . S
C565 C564 1.383 . S
C565 C566 1.394 . S
C566 C565 1.394 . S
C566 C567 1.378 . S
C566 H594 0.931 . S
C567 C562 1.377 . S
C567 C566 1.378 . S
C567 H595 0.931 . S
C568 O582 1.259 . S
C568 O583 1.270 . S
C569 O584 1.251 . S
C569 O585 1.251 . S
C570 Eu571 2.835 . S
C570 C572 1.500 . S
C570 O586 1.257 . S
C570 O587 1.260 . S
Eu571 C570 2.835 . S
Eu571 O583 2.355 . S
Eu571 O585 2.374 . S
Eu571 O586 2.473 . S
Eu571 O587 2.480 . S
Eu571 O588 2.430 1_556 S
Eu571 O589 2.670 . S
Eu571 O590 2.394 . S
C572 C570 1.500 . S
C572 C573 1.377 . S
C572 C577 1.377 . S
C573 C572 1.377 . S
C573 C574 1.395 . S
C573 H596 0.931 1_556 S
C574 C573 1.395 . S
C574 C575 1.383 . S
C574 H597 0.931 1_556 S
C575 C574 1.383 . S
C575 C576 1.394 . S
C576 C575 1.394 . S
C576 C577 1.378 . S
C576 H598 0.931 . S
C577 C572 1.377 . S
C577 C576 1.378 . S
C577 H599 0.931 . S
C578 O588 1.259 1_556 S
C578 O589 1.270 . S
C579 O590 1.251 . S
C579 O591 1.251 . S
O580 C560 1.257 . S
O580 Eu561 2.473 . S
O581 C560 1.260 . S
O581 Eu561 2.480 . S
O582 Eu561 2.430 . S
O582 C568 1.259 . S
O583 Eu561 2.670 . S
O583 C568 1.270 . S
O583 Eu571 2.355 . S
O584 Eu561 2.394 . S
O584 C569 1.251 . S
O585 C569 1.251 . S
O585 Eu571 2.374 . S
O586 C570 1.257 . S
O586 Eu571 2.473 . S
O587 C570 1.260 . S
O587 Eu571 2.480 . S
O588 Eu571 2.430 1_554 S
O588 C578 1.259 1_554 S
O589 Eu561 2.355 . S
O589 Eu571 2.670 . S
O589 C578 1.270 . S
O590 Eu571 2.394 . S
O590 C579 1.251 . S
O591 Eu561 2.374 . S
O591 C579 1.251 . S
H592 C563 0.931 . S
H593 C564 0.931 . S
H594 C566 0.931 . S
H595 C567 0.931 . S
H596 C573 0.931 1_554 S
H597 C574 0.931 1_554 S
H598 C576 0.931 . S
H599 C577 0.931 . S
C600 Eu601 2.835 . S
C600 C602 1.500 . S
C600 O620 1.257 . S
C600 O621 1.260 . S
Eu601 C600 2.835 . S
Eu601 O620 2.473 . S
Eu601 O621 2.480 . S
Eu601 O622 2.430 . S
Eu601 O623 2.670 . S
Eu601 O624 2.394 . S
Eu601 O629 2.355 . S
Eu601 O631 2.374 . S
C602 C600 1.500 . S
C602 C603 1.377 . S
C602 C607 1.377 . S
C603 C602 1.377 . S
C603 C604 1.395 . S
C603 H632 0.931 . S
C604 C603 1.395 . S
C604 C605 1.383 . S
C604 H633 0.931 . S
C605 C604 1.383 . S
C605 C606 1.394 . S
C606 C605 1.394 . S
C606 C607 1.378 . S
C606 H634 0.931 . S
C607 C602 1.377 . S
C607 C606 1.378 . S
C607 H635 0.931 . S
C608 O622 1.259 . S
C608 O623 1.270 . S
C609 O624 1.251 . S
C609 O625 1.251 . S
C610 Eu611 2.835 . S
C610 C612 1.500 . S
C610 O626 1.257 . S
C610 O627 1.260 . S
Eu611 C610 2.835 . S
Eu611 O623 2.355 . S
Eu611 O625 2.374 . S
Eu611 O626 2.473 . S
Eu611 O627 2.480 . S
Eu611 O628 2.430 1_556 S
Eu611 O629 2.670 . S
Eu611 O630 2.394 . S
C612 C610 1.500 . S
C612 C613 1.377 . S
C612 C617 1.377 . S
C613 C612 1.377 . S
C613 C614 1.395 . S
C613 H636 0.931 1_556 S
C614 C613 1.395 . S
C614 C615 1.383 . S
C614 H637 0.931 1_556 S
C615 C614 1.383 . S
C615 C616 1.394 . S
C616 C615 1.394 . S
C616 C617 1.378 . S
C616 H638 0.931 . S
C617 C612 1.377 . S
C617 C616 1.378 . S
C617 H639 0.931 . S
C618 O628 1.259 1_556 S
C618 O629 1.270 . S
C619 O630 1.251 . S
C619 O631 1.251 . S
O620 C600 1.257 . S
O620 Eu601 2.473 . S
O621 C600 1.260 . S
O621 Eu601 2.480 . S
O622 Eu601 2.430 . S
O622 C608 1.259 . S
O623 Eu601 2.670 . S
O623 C608 1.270 . S
O623 Eu611 2.355 . S
O624 Eu601 2.394 . S
O624 C609 1.251 . S
O625 C609 1.251 . S
O625 Eu611 2.374 . S
O626 C610 1.257 . S
O626 Eu611 2.473 . S
O627 C610 1.260 . S
O627 Eu611 2.480 . S
O628 Eu611 2.430 1_554 S
O628 C618 1.259 1_554 S
O629 Eu601 2.355 . S
O629 Eu611 2.670 . S
O629 C618 1.270 . S
O630 Eu611 2.394 . S
O630 C619 1.251 . S
O631 Eu601 2.374 . S
O631 C619 1.251 . S
H632 C603 0.931 . S
H633 C604 0.931 . S
H634 C606 0.931 . S
H635 C607 0.931 . S
H636 C613 0.931 1_554 S
H637 C614 0.931 1_554 S
H638 C616 0.931 . S
H639 C617 0.931 . S
H640 C646 0.930 . S
H641 C649 0.930 . S
H642 C650 0.930 . S
H643 C651 0.930 . S
H644 C654 0.930 . S
H645 C655 0.930 . S
C646 H640 0.930 . S
C646 C647 1.355 . S
C646 C648 1.415 . S
C647 C646 1.355 . S
C647 C649 1.419 . S
C648 C646 1.415 . S
C648 C653 1.425 . S
C648 C655 1.409 . S
C649 H641 0.930 . S
C649 C647 1.419 . S
C649 C650 1.362 . S
C650 H642 0.930 . S
C650 C649 1.362 . S
C650 C653 1.409 . S
C651 H643 0.930 . S
C651 C652 1.355 . S
C651 C653 1.415 . S
C652 C651 1.355 . S
C652 C654 1.419 . S
C653 C648 1.425 . S
C653 C650 1.409 . S
C653 C651 1.415 . S
C654 H644 0.930 . S
C654 C652 1.419 . S
C654 C655 1.362 . S
C655 H645 0.930 . S
C655 C648 1.409 . S
C655 C654 1.362 . S
H656 C662 0.930 . S
H657 C665 0.930 . S
H658 C666 0.930 . S
H659 C667 0.930 . S
H660 C670 0.930 . S
H661 C671 0.930 . S
C662 H656 0.930 . S
C662 C663 1.355 . S
C662 C664 1.415 . S
C663 C662 1.355 . S
C663 C665 1.419 . S
C664 C662 1.415 . S
C664 C669 1.425 . S
C664 C671 1.409 . S
C665 H657 0.930 . S
C665 C663 1.419 . S
C665 C666 1.362 . S
C666 H658 0.930 . S
C666 C665 1.362 . S
C666 C669 1.409 . S
C667 H659 0.930 . S
C667 C668 1.355 . S
C667 C669 1.415 . S
C668 C667 1.355 . S
C668 C670 1.419 . S
C669 C664 1.425 . S
C669 C666 1.409 . S
C669 C667 1.415 . S
C670 H660 0.930 . S
C670 C668 1.419 . S
C670 C671 1.362 . S
C671 H661 0.930 . S
C671 C664 1.409 . S
C671 C670 1.362 . S
H672 C678 0.930 . S
H673 C681 0.930 . S
H674 C682 0.930 . S
H675 C683 0.930 . S
H676 C686 0.930 . S
H677 C687 0.930 . S
C678 H672 0.930 . S
C678 C679 1.355 . S
C678 C680 1.415 . S
C679 C678 1.355 . S
C679 C681 1.419 . S
C680 C678 1.415 . S
C680 C685 1.425 . S
C680 C687 1.409 . S
C681 H673 0.930 . S
C681 C679 1.419 . S
C681 C682 1.362 . S
C682 H674 0.930 . S
C682 C681 1.362 . S
C682 C685 1.409 . S
C683 H675 0.930 . S
C683 C684 1.355 . S
C683 C685 1.415 . S
C684 C683 1.355 . S
C684 C686 1.419 . S
C685 C680 1.425 . S
C685 C682 1.409 . S
C685 C683 1.415 . S
C686 H676 0.930 . S
C686 C684 1.419 . S
C686 C687 1.362 . S
C687 H677 0.930 . S
C687 C680 1.409 . S
C687 C686 1.362 . S
H688 C694 0.930 . S
H689 C697 0.930 . S
H690 C698 0.930 . S
H691 C699 0.930 . S
H692 C702 0.930 . S
H693 C703 0.930 . S
C694 H688 0.930 . S
C694 C695 1.355 . S
C694 C696 1.415 . S
C695 C694 1.355 . S
C695 C697 1.419 . S
C696 C694 1.415 . S
C696 C701 1.425 . S
C696 C703 1.409 . S
C697 H689 0.930 . S
C697 C695 1.419 . S
C697 C698 1.362 . S
C698 H690 0.930 . S
C698 C697 1.362 . S
C698 C701 1.409 . S
C699 H691 0.930 . S
C699 C700 1.355 . S
C699 C701 1.415 . S
C700 C699 1.355 . S
C700 C702 1.419 . S
C701 C696 1.425 . S
C701 C698 1.409 . S
C701 C699 1.415 . S
C702 H692 0.930 . S
C702 C700 1.419 . S
C702 C703 1.362 . S
C703 H693 0.930 . S
C703 C696 1.409 . S
C703 C702 1.362 . S
H704 C710 0.930 . S
H705 C713 0.930 . S
H706 C714 0.930 . S
H707 C715 0.930 . S
H708 C718 0.930 . S
H709 C719 0.930 . S
C710 H704 0.930 . S
C710 C711 1.355 . S
C710 C712 1.415 . S
C711 C710 1.355 . S
C711 C713 1.419 . S
C712 C710 1.415 . S
C712 C717 1.425 . S
C712 C719 1.409 . S
C713 H705 0.930 . S
C713 C711 1.419 . S
C713 C714 1.362 . S
C714 H706 0.930 . S
C714 C713 1.362 . S
C714 C717 1.409 . S
C715 H707 0.930 . S
C715 C716 1.355 . S
C715 C717 1.415 . S
C716 C715 1.355 . S
C716 C718 1.419 . S
C717 C712 1.425 . S
C717 C714 1.409 . S
C717 C715 1.415 . S
C718 H708 0.930 . S
C718 C716 1.419 . S
C718 C719 1.362 . S
C719 H709 0.930 . S
C719 C712 1.409 . S
C719 C718 1.362 . S
H720 C726 0.930 . S
H721 C729 0.930 . S
H722 C730 0.930 . S
H723 C731 0.930 . S
H724 C734 0.930 . S
H725 C735 0.930 . S
C726 H720 0.930 . S
C726 C727 1.355 . S
C726 C728 1.415 . S
C727 C726 1.355 . S
C727 C729 1.419 . S
C728 C726 1.415 . S
C728 C733 1.425 . S
C728 C735 1.409 . S
C729 H721 0.930 . S
C729 C727 1.419 . S
C729 C730 1.362 . S
C730 H722 0.930 . S
C730 C729 1.362 . S
C730 C733 1.409 . S
C731 H723 0.930 . S
C731 C732 1.355 . S
C731 C733 1.415 . S
C732 C731 1.355 . S
C732 C734 1.419 . S
C733 C728 1.425 . S
C733 C730 1.409 . S
C733 C731 1.415 . S
C734 H724 0.930 . S
C734 C732 1.419 . S
C734 C735 1.362 . S
C735 H725 0.930 . S
C735 C728 1.409 . S
C735 C734 1.362 . S
H736 C742 0.930 . S
H737 C745 0.930 . S
H738 C746 0.930 . S
H739 C747 0.930 . S
H740 C750 0.930 . S
H741 C751 0.930 . S
C742 H736 0.930 . S
C742 C743 1.355 . S
C742 C744 1.415 . S
C743 C742 1.355 . S
C743 C745 1.419 . S
C744 C742 1.415 . S
C744 C749 1.425 . S
C744 C751 1.409 . S
C745 H737 0.930 . S
C745 C743 1.419 . S
C745 C746 1.362 . S
C746 H738 0.930 . S
C746 C745 1.362 . S
C746 C749 1.409 . S
C747 H739 0.930 . S
C747 C748 1.355 . S
C747 C749 1.415 . S
C748 C747 1.355 . S
C748 C750 1.419 . S
C749 C744 1.425 . S
C749 C746 1.409 . S
C749 C747 1.415 . S
C750 H740 0.930 . S
C750 C748 1.419 . S
C750 C751 1.362 . S
C751 H741 0.930 . S
C751 C744 1.409 . S
C751 C750 1.362 . S
H752 C758 0.930 . S
H753 C761 0.930 . S
H754 C762 0.930 . S
H755 C763 0.930 . S
H756 C766 0.930 . S
H757 C767 0.930 . S
C758 H752 0.930 . S
C758 C759 1.355 . S
C758 C760 1.415 . S
C759 C758 1.355 . S
C759 C761 1.419 . S
C760 C758 1.415 . S
C760 C765 1.425 . S
C760 C767 1.409 . S
C761 H753 0.930 . S
C761 C759 1.419 . S
C761 C762 1.362 . S
C762 H754 0.930 . S
C762 C761 1.362 . S
C762 C765 1.409 . S
C763 H755 0.930 . S
C763 C764 1.355 . S
C763 C765 1.415 . S
C764 C763 1.355 . S
C764 C766 1.419 . S
C765 C760 1.425 . S
C765 C762 1.409 . S
C765 C763 1.415 . S
C766 H756 0.930 . S
C766 C764 1.419 . S
C766 C767 1.362 . S
C767 H757 0.930 . S
C767 C760 1.409 . S
C767 C766 1.362 . S
H768 C774 0.930 . S
H769 C777 0.930 . S
H770 C778 0.930 . S
H771 C779 0.930 . S
H772 C782 0.930 . S
H773 C783 0.930 . S
C774 H768 0.930 . S
C774 C775 1.355 . S
C774 C776 1.415 . S
C775 C774 1.355 . S
C775 C777 1.419 . S
C776 C774 1.415 . S
C776 C781 1.425 . S
C776 C783 1.409 . S
C777 H769 0.930 . S
C777 C775 1.419 . S
C777 C778 1.362 . S
C778 H770 0.930 . S
C778 C777 1.362 . S
C778 C781 1.409 . S
C779 H771 0.930 . S
C779 C780 1.355 . S
C779 C781 1.415 . S
C780 C779 1.355 . S
C780 C782 1.419 . S
C781 C776 1.425 . S
C781 C778 1.409 . S
C781 C779 1.415 . S
C782 H772 0.930 . S
C782 C780 1.419 . S
C782 C783 1.362 . S
C783 H773 0.930 . S
C783 C776 1.409 . S
C783 C782 1.362 . S
H784 C790 0.930 . S
H785 C793 0.930 . S
H786 C794 0.930 . S
H787 C795 0.930 . S
H788 C798 0.930 . S
H789 C799 0.930 . S
C790 H784 0.930 . S
C790 C791 1.355 . S
C790 C792 1.415 . S
C791 C790 1.355 . S
C791 C793 1.419 . S
C792 C790 1.415 . S
C792 C797 1.425 . S
C792 C799 1.409 . S
C793 H785 0.930 . S
C793 C791 1.419 . S
C793 C794 1.362 . S
C794 H786 0.930 . S
C794 C793 1.362 . S
C794 C797 1.409 . S
C795 H787 0.930 . S
C795 C796 1.355 . S
C795 C797 1.415 . S
C796 C795 1.355 . S
C796 C798 1.419 . S
C797 C792 1.425 . S
C797 C794 1.409 . S
C797 C795 1.415 . S
C798 H788 0.930 . S
C798 C796 1.419 . S
C798 C799 1.362 . S
C799 H789 0.930 . S
C799 C792 1.409 . S
C799 C798 1.362 . S
H800 C806 0.930 . S
H801 C809 0.930 . S
H802 C810 0.930 . S
H803 C811 0.930 . S
H804 C814 0.930 . S
H805 C815 0.930 . S
C806 H800 0.930 . S
C806 C807 1.355 . S
C806 C808 1.415 . S
C807 C806 1.355 . S
C807 C809 1.419 . S
C808 C806 1.415 . S
C808 C813 1.425 . S
C808 C815 1.409 . S
C809 H801 0.930 . S
C809 C807 1.419 . S
C809 C810 1.362 . S
C810 H802 0.930 . S
C810 C809 1.362 . S
C810 C813 1.409 . S
C811 H803 0.930 . S
C811 C812 1.355 . S
C811 C813 1.415 . S
C812 C811 1.355 . S
C812 C814 1.419 . S
C813 C808 1.425 . S
C813 C810 1.409 . S
C813 C811 1.415 . S
C814 H804 0.930 . S
C814 C812 1.419 . S
C814 C815 1.362 . S
C815 H805 0.930 . S
C815 C808 1.409 . S
C815 C814 1.362 . S
H816 C822 0.930 . S
H817 C825 0.930 . S
H818 C826 0.930 . S
H819 C827 0.930 . S
H820 C830 0.930 . S
H821 C831 0.930 . S
C822 H816 0.930 . S
C822 C823 1.355 . S
C822 C824 1.415 . S
C823 C822 1.355 . S
C823 C825 1.419 . S
C824 C822 1.415 . S
C824 C829 1.425 . S
C824 C831 1.409 . S
C825 H817 0.930 . S
C825 C823 1.419 . S
C825 C826 1.362 . S
C826 H818 0.930 . S
C826 C825 1.362 . S
C826 C829 1.409 . S
C827 H819 0.930 . S
C827 C828 1.355 . S
C827 C829 1.415 . S
C828 C827 1.355 . S
C828 C830 1.419 . S
C829 C824 1.425 . S
C829 C826 1.409 . S
C829 C827 1.415 . S
C830 H820 0.930 . S
C830 C828 1.419 . S
C830 C831 1.362 . S
C831 H821 0.930 . S
C831 C824 1.409 . S
C831 C830 1.362 . S
H832 C838 0.930 . S
H833 C841 0.930 . S
H834 C842 0.930 . S
H835 C843 0.930 . S
H836 C846 0.931 1_545 S
H837 C847 0.930 . S
C838 H832 0.930 . S
C838 C839 1.355 . S
C838 C840 1.415 . S
C839 C838 1.355 . S
C839 C841 1.419 . S
C840 C838 1.415 . S
C840 C845 1.425 . S
C840 C847 1.409 . S
C841 H833 0.930 . S
C841 C839 1.419 . S
C841 C842 1.362 . S
C842 H834 0.930 . S
C842 C841 1.362 . S
C842 C845 1.409 . S
C843 H835 0.930 . S
C843 C844 1.355 . S
C843 C845 1.415 . S
C844 C843 1.355 . S
C844 C846 1.419 . S
C845 C840 1.425 . S
C845 C842 1.409 . S
C845 C843 1.415 . S
C846 H836 0.931 1_565 S
C846 C844 1.419 . S
C846 C847 1.362 . S
C847 H837 0.930 . S
C847 C840 1.409 . S
C847 C846 1.362 . S
H848 C854 0.930 . S
H849 C857 0.930 . S
H850 C858 0.930 . S
H851 C859 0.930 . S
H852 C862 0.930 . S
H853 C863 0.930 . S
C854 H848 0.930 . S
C854 C855 1.355 . S
C854 C856 1.415 . S
C855 C854 1.355 . S
C855 C857 1.419 . S
C856 C854 1.415 . S
C856 C861 1.425 . S
C856 C863 1.409 . S
C857 H849 0.930 . S
C857 C855 1.419 . S
C857 C858 1.362 . S
C858 H850 0.930 . S
C858 C857 1.362 . S
C858 C861 1.409 . S
C859 H851 0.930 . S
C859 C860 1.355 . S
C859 C861 1.415 . S
C860 C859 1.355 . S
C860 C862 1.419 . S
C861 C856 1.425 . S
C861 C858 1.409 . S
C861 C859 1.415 . S
C862 H852 0.930 . S
C862 C860 1.419 . S
C862 C863 1.362 . S
C863 H853 0.930 . S
C863 C856 1.409 . S
C863 C862 1.362 . S
H864 C870 0.930 . S
H865 C873 0.930 . S
H866 C874 0.930 . S
H867 C875 0.930 . S
H868 C878 0.930 . S
H869 C879 0.930 . S
C870 H864 0.930 . S
C870 C871 1.355 . S
C870 C872 1.415 . S
C871 C870 1.355 . S
C871 C873 1.419 . S
C872 C870 1.415 . S
C872 C877 1.425 . S
C872 C879 1.409 . S
C873 H865 0.930 . S
C873 C871 1.419 . S
C873 C874 1.362 . S
C874 H866 0.930 . S
C874 C873 1.362 . S
C874 C877 1.409 . S
C875 H867 0.930 . S
C875 C876 1.355 . S
C875 C877 1.415 . S
C876 C875 1.355 . S
C876 C878 1.419 . S
C877 C872 1.425 . S
C877 C874 1.409 . S
C877 C875 1.415 . S
C878 H868 0.930 . S
C878 C876 1.419 . S
C878 C879 1.362 . S
C879 H869 0.930 . S
C879 C872 1.409 . S
C879 C878 1.362 . S
H880 C886 0.930 . S
H881 C889 0.930 . S
H882 C890 0.930 . S
H883 C891 0.930 . S
H884 C894 0.930 . S
H885 C895 0.930 . S
C886 H880 0.930 . S
C886 C887 1.355 . S
C886 C888 1.415 . S
C887 C886 1.355 . S
C887 C889 1.419 . S
C888 C886 1.415 . S
C888 C893 1.425 . S
C888 C895 1.409 . S
C889 H881 0.930 . S
C889 C887 1.419 . S
C889 C890 1.362 . S
C890 H882 0.930 . S
C890 C889 1.362 . S
C890 C893 1.409 . S
C891 H883 0.930 . S
C891 C892 1.355 . S
C891 C893 1.415 . S
C892 C891 1.355 . S
C892 C894 1.419 . S
C893 C888 1.425 . S
C893 C890 1.409 . S
C893 C891 1.415 . S
C894 H884 0.930 . S
C894 C892 1.419 . S
C894 C895 1.362 . S
C895 H885 0.930 . S
C895 C888 1.409 . S
C895 C894 1.362 . S
H896 C902 0.930 . S
H897 C905 0.930 . S
H898 C906 0.930 . S
H899 C907 0.930 . S
H900 C910 0.930 . S
H901 C911 0.930 . S
C902 H896 0.930 . S
C902 C903 1.355 . S
C902 C904 1.415 . S
C903 C902 1.355 . S
C903 C905 1.419 . S
C904 C902 1.415 . S
C904 C909 1.425 . S
C904 C911 1.409 . S
C905 H897 0.930 . S
C905 C903 1.419 . S
C905 C906 1.362 . S
C906 H898 0.930 . S
C906 C905 1.362 . S
C906 C909 1.409 . S
C907 H899 0.930 . S
C907 C908 1.355 . S
C907 C909 1.415 . S
C908 C907 1.355 . S
C908 C910 1.419 . S
C909 C904 1.425 . S
C909 C906 1.409 . S
C909 C907 1.415 . S
C910 H900 0.930 . S
C910 C908 1.419 . S
C910 C911 1.362 . S
C911 H901 0.930 . S
C911 C904 1.409 . S
C911 C910 1.362 . S
H912 C918 0.930 . S
H913 C921 0.930 . S
H914 C922 0.930 . S
H915 C923 0.930 . S
H916 C926 0.930 . S
H917 C927 0.930 . S
C918 H912 0.930 . S
C918 C919 1.355 . S
C918 C920 1.415 . S
C919 C918 1.355 . S
C919 C921 1.419 . S
C920 C918 1.415 . S
C920 C925 1.425 . S
C920 C927 1.409 . S
C921 H913 0.930 . S
C921 C919 1.419 . S
C921 C922 1.362 . S
C922 H914 0.930 . S
C922 C921 1.362 . S
C922 C925 1.409 . S
C923 H915 0.930 . S
C923 C924 1.355 . S
C923 C925 1.415 . S
C924 C923 1.355 . S
C924 C926 1.419 . S
C925 C920 1.425 . S
C925 C922 1.409 . S
C925 C923 1.415 . S
C926 H916 0.930 . S
C926 C924 1.419 . S
C926 C927 1.362 . S
C927 H917 0.930 . S
C927 C920 1.409 . S
C927 C926 1.362 . S
H928 C934 0.930 . S
H929 C937 0.930 . S
H930 C938 0.930 . S
H931 C939 0.930 . S
H932 C942 0.930 . S
H933 C943 0.930 . S
C934 H928 0.930 . S
C934 C935 1.355 . S
C934 C936 1.415 . S
C935 C934 1.355 . S
C935 C937 1.419 . S
C936 C934 1.415 . S
C936 C941 1.425 . S
C936 C943 1.409 . S
C937 H929 0.930 . S
C937 C935 1.419 . S
C937 C938 1.362 . S
C938 H930 0.930 . S
C938 C937 1.362 . S
C938 C941 1.409 . S
C939 H931 0.930 . S
C939 C940 1.355 . S
C939 C941 1.415 . S
C940 C939 1.355 . S
C940 C942 1.419 . S
C941 C936 1.425 . S
C941 C938 1.409 . S
C941 C939 1.415 . S
C942 H932 0.930 . S
C942 C940 1.419 . S
C942 C943 1.362 . S
C943 H933 0.930 . S
C943 C936 1.409 . S
C943 C942 1.362 . S
H944 C950 0.930 . S
H945 C953 0.930 . S
H946 C954 0.930 . S
H947 C955 0.930 . S
H948 C958 0.930 . S
H949 C959 0.930 . S
C950 H944 0.930 . S
C950 C951 1.355 . S
C950 C952 1.415 . S
C951 C950 1.355 . S
C951 C953 1.419 . S
C952 C950 1.415 . S
C952 C957 1.425 . S
C952 C959 1.409 . S
C953 H945 0.930 . S
C953 C951 1.419 . S
C953 C954 1.362 . S
C954 H946 0.930 . S
C954 C953 1.362 . S
C954 C957 1.409 . S
C955 H947 0.930 . S
C955 C956 1.355 . S
C955 C957 1.415 . S
C956 C955 1.355 . S
C956 C958 1.419 . S
C957 C952 1.425 . S
C957 C954 1.409 . S
C957 C955 1.415 . S
C958 H948 0.930 . S
C958 C956 1.419 . S
C958 C959 1.362 . S
C959 H949 0.930 . S
C959 C952 1.409 . S
C959 C958 1.362 . S
H960 C966 0.930 . S
H961 C969 0.930 . S
H962 C970 0.930 . S
H963 C971 0.930 . S
H964 C974 0.930 . S
H965 C975 0.930 . S
C966 H960 0.930 . S
C966 C967 1.355 . S
C966 C968 1.415 . S
C967 C966 1.355 . S
C967 C969 1.419 . S
C968 C966 1.415 . S
C968 C973 1.425 . S
C968 C975 1.409 . S
C969 H961 0.930 . S
C969 C967 1.419 . S
C969 C970 1.362 . S
C970 H962 0.930 . S
C970 C969 1.362 . S
C970 C973 1.409 . S
C971 H963 0.930 . S
C971 C972 1.355 . S
C971 C973 1.415 . S
C972 C971 1.355 . S
C972 C974 1.419 . S
C973 C968 1.425 . S
C973 C970 1.409 . S
C973 C971 1.415 . S
C974 H964 0.930 . S
C974 C972 1.419 . S
C974 C975 1.362 . S
C975 H965 0.930 . S
C975 C968 1.409 . S
C975 C974 1.362 . S
H976 C982 0.930 . S
H977 C985 0.930 . S
H978 C986 0.930 . S
H979 C987 0.930 . S
H980 C990 0.930 . S
H981 C991 0.930 . S
C982 H976 0.930 . S
C982 C983 1.355 . S
C982 C984 1.415 . S
C983 C982 1.355 . S
C983 C985 1.419 . S
C984 C982 1.415 . S
C984 C989 1.425 . S
C984 C991 1.409 . S
C985 H977 0.930 . S
C985 C983 1.419 . S
C985 C986 1.362 . S
C986 H978 0.930 . S
C986 C985 1.362 . S
C986 C989 1.409 . S
C987 H979 0.930 . S
C987 C988 1.355 . S
C987 C989 1.415 . S
C988 C987 1.355 . S
C988 C990 1.419 . S
C989 C984 1.425 . S
C989 C986 1.409 . S
C989 C987 1.415 . S
C990 H980 0.930 . S
C990 C988 1.419 . S
C990 C991 1.362 . S
C991 H981 0.930 . S
C991 C984 1.409 . S
C991 C990 1.362 . S
H992 C998 0.930 . S
H993 C1001 0.930 . S
H994 C1002 0.930 . S
H995 C1003 0.930 . S
H996 C1006 0.930 . S
H997 C1007 0.930 . S
C998 H992 0.930 . S
C998 C999 1.355 . S
C998 C1000 1.415 . S
C999 C998 1.355 . S
C999 C1001 1.419 . S
C1000 C998 1.415 . S
C1000 C1005 1.425 . S
C1000 C1007 1.409 . S
C1001 H993 0.930 . S
C1001 C999 1.419 . S
C1001 C1002 1.362 . S
C1002 H994 0.930 . S
C1002 C1001 1.362 . S
C1002 C1005 1.409 . S
C1003 H995 0.930 . S
C1003 C1004 1.355 . S
C1003 C1005 1.415 . S
C1004 C1003 1.355 . S
C1004 C1006 1.419 . S
C1005 C1000 1.425 . S
C1005 C1002 1.409 . S
C1005 C1003 1.415 . S
C1006 H996 0.930 . S
C1006 C1004 1.419 . S
C1006 C1007 1.362 . S
C1007 H997 0.930 . S
C1007 C1000 1.409 . S
C1007 C1006 1.362 . S
H1008 C1014 0.930 . S
H1009 C1017 0.930 . S
H1010 C1018 0.930 . S
H1011 C1019 0.930 . S
H1012 C1022 0.930 . S
H1013 C1023 0.930 . S
C1014 H1008 0.930 . S
C1014 C1015 1.355 . S
C1014 C1016 1.415 . S
C1015 C1014 1.355 . S
C1015 C1017 1.419 . S
C1016 C1014 1.415 . S
C1016 C1021 1.425 . S
C1016 C1023 1.409 . S
C1017 H1009 0.930 . S
C1017 C1015 1.419 . S
C1017 C1018 1.362 . S
C1018 H1010 0.930 . S
C1018 C1017 1.362 . S
C1018 C1021 1.409 . S
C1019 H1011 0.930 . S
C1019 C1020 1.355 . S
C1019 C1021 1.415 . S
C1020 C1019 1.355 . S
C1020 C1022 1.419 . S
C1021 C1016 1.425 . S
C1021 C1018 1.409 . S
C1021 C1019 1.415 . S
C1022 H1012 0.930 . S
C1022 C1020 1.419 . S
C1022 C1023 1.362 . S
C1023 H1013 0.930 . S
C1023 C1016 1.409 . S
C1023 C1022 1.362 . S
H1024 C1030 0.930 . S
H1025 C1033 0.930 . S
H1026 C1034 0.930 . S
H1027 C1035 0.930 . S
H1028 C1038 0.930 . S
H1029 C1039 0.930 . S
C1030 H1024 0.930 . S
C1030 C1031 1.355 . S
C1030 C1032 1.415 . S
C1031 C1030 1.355 . S
C1031 C1033 1.419 . S
C1032 C1030 1.415 . S
C1032 C1037 1.425 . S
C1032 C1039 1.409 . S
C1033 H1025 0.930 . S
C1033 C1031 1.419 . S
C1033 C1034 1.362 . S
C1034 H1026 0.930 . S
C1034 C1033 1.362 . S
C1034 C1037 1.409 . S
C1035 H1027 0.930 . S
C1035 C1036 1.355 . S
C1035 C1037 1.415 . S
C1036 C1035 1.355 . S
C1036 C1038 1.419 . S
C1037 C1032 1.425 . S
C1037 C1034 1.409 . S
C1037 C1035 1.415 . S
C1038 H1028 0.930 . S
C1038 C1036 1.419 . S
C1038 C1039 1.362 . S
C1039 H1029 0.930 . S
C1039 C1032 1.409 . S
C1039 C1038 1.362 . S
H1040 C1046 0.930 . S
H1041 C1049 0.930 . S
H1042 C1050 0.930 . S
H1043 C1051 0.930 . S
H1044 C1054 0.930 . S
H1045 C1055 0.930 . S
C1046 H1040 0.930 . S
C1046 C1047 1.355 . S
C1046 C1048 1.415 . S
C1047 C1046 1.355 . S
C1047 C1049 1.419 . S
C1048 C1046 1.415 . S
C1048 C1053 1.425 . S
C1048 C1055 1.409 . S
C1049 H1041 0.930 . S
C1049 C1047 1.419 . S
C1049 C1050 1.362 . S
C1050 H1042 0.930 . S
C1050 C1049 1.362 . S
C1050 C1053 1.409 . S
C1051 H1043 0.930 . S
C1051 C1052 1.355 . S
C1051 C1053 1.415 . S
C1052 C1051 1.355 . S
C1052 C1054 1.419 . S
C1053 C1048 1.425 . S
C1053 C1050 1.409 . S
C1053 C1051 1.415 . S
C1054 H1044 0.930 . S
C1054 C1052 1.419 . S
C1054 C1055 1.362 . S
C1055 H1045 0.930 . S
C1055 C1048 1.409 . S
C1055 C1054 1.362 . S
H1056 C1062 0.930 . S
H1057 C1065 0.930 . S
H1058 C1066 0.930 . S
H1059 C1067 0.930 . S
H1060 C1070 0.930 . S
H1061 C1071 0.930 . S
C1062 H1056 0.930 . S
C1062 C1063 1.355 . S
C1062 C1064 1.415 . S
C1063 C1062 1.355 . S
C1063 C1065 1.419 . S
C1064 C1062 1.415 . S
C1064 C1069 1.425 . S
C1064 C1071 1.409 . S
C1065 H1057 0.930 . S
C1065 C1063 1.419 . S
C1065 C1066 1.362 . S
C1066 H1058 0.930 . S
C1066 C1065 1.362 . S
C1066 C1069 1.409 . S
C1067 H1059 0.930 . S
C1067 C1068 1.355 . S
C1067 C1069 1.415 . S
C1068 C1067 1.355 . S
C1068 C1070 1.419 . S
C1069 C1064 1.425 . S
C1069 C1066 1.409 . S
C1069 C1067 1.415 . S
C1070 H1060 0.930 . S
C1070 C1068 1.419 . S
C1070 C1071 1.362 . S
C1071 H1061 0.930 . S
C1071 C1064 1.409 . S
C1071 C1070 1.362 . S
H1072 C1078 0.930 . S
H1073 C1081 0.930 . S
H1074 C1082 0.930 . S
H1075 C1083 0.930 . S
H1076 C1086 0.930 . S
H1077 C1087 0.930 . S
C1078 H1072 0.930 . S
C1078 C1079 1.355 . S
C1078 C1080 1.415 . S
C1079 C1078 1.355 . S
C1079 C1081 1.419 . S
C1080 C1078 1.415 . S
C1080 C1085 1.425 . S
C1080 C1087 1.409 . S
C1081 H1073 0.930 . S
C1081 C1079 1.419 . S
C1081 C1082 1.362 . S
C1082 H1074 0.930 . S
C1082 C1081 1.362 . S
C1082 C1085 1.409 . S
C1083 H1075 0.930 . S
C1083 C1084 1.355 . S
C1083 C1085 1.415 . S
C1084 C1083 1.355 . S
C1084 C1086 1.419 . S
C1085 C1080 1.425 . S
C1085 C1082 1.409 . S
C1085 C1083 1.415 . S
C1086 H1076 0.930 . S
C1086 C1084 1.419 . S
C1086 C1087 1.362 . S
C1087 H1077 0.930 . S
C1087 C1080 1.409 . S
C1087 C1086 1.362 . S
H1088 C1094 0.930 . S
H1089 C1097 0.930 . S
H1090 C1098 0.930 . S
H1091 C1099 0.930 . S
H1092 C1102 0.930 . S
H1093 C1103 0.930 . S
C1094 H1088 0.930 . S
C1094 C1095 1.355 . S
C1094 C1096 1.415 . S
C1095 C1094 1.355 . S
C1095 C1097 1.419 . S
C1096 C1094 1.415 . S
C1096 C1101 1.425 . S
C1096 C1103 1.409 . S
C1097 H1089 0.930 . S
C1097 C1095 1.419 . S
C1097 C1098 1.362 . S
C1098 H1090 0.930 . S
C1098 C1097 1.362 . S
C1098 C1101 1.409 . S
C1099 H1091 0.930 . S
C1099 C1100 1.355 . S
C1099 C1101 1.415 . S
C1100 C1099 1.355 . S
C1100 C1102 1.419 . S
C1101 C1096 1.425 . S
C1101 C1098 1.409 . S
C1101 C1099 1.415 . S
C1102 H1092 0.930 . S
C1102 C1100 1.419 . S
C1102 C1103 1.362 . S
C1103 H1093 0.930 . S
C1103 C1096 1.409 . S
C1103 C1102 1.362 . S
H1104 C1110 0.930 . S
H1105 C1113 0.930 . S
H1106 C1114 0.930 . S
H1107 C1115 0.930 . S
H1108 C1118 0.930 . S
H1109 C1119 0.930 . S
C1110 H1104 0.930 . S
C1110 C1111 1.355 . S
C1110 C1112 1.415 . S
C1111 C1110 1.355 . S
C1111 C1113 1.419 . S
C1112 C1110 1.415 . S
C1112 C1117 1.425 . S
C1112 C1119 1.409 . S
C1113 H1105 0.930 . S
C1113 C1111 1.419 . S
C1113 C1114 1.362 . S
C1114 H1106 0.930 . S
C1114 C1113 1.362 . S
C1114 C1117 1.409 . S
C1115 H1107 0.930 . S
C1115 C1116 1.355 . S
C1115 C1117 1.415 . S
C1116 C1115 1.355 . S
C1116 C1118 1.419 . S
C1117 C1112 1.425 . S
C1117 C1114 1.409 . S
C1117 C1115 1.415 . S
C1118 H1108 0.930 . S
C1118 C1116 1.419 . S
C1118 C1119 1.362 . S
C1119 H1109 0.930 . S
C1119 C1112 1.409 . S
C1119 C1118 1.362 . S
H1120 C1126 0.930 . S
H1121 C1129 0.930 . S
H1122 C1130 0.930 . S
H1123 C1131 0.930 . S
H1124 C1134 0.930 . S
H1125 C1135 0.930 . S
C1126 H1120 0.930 . S
C1126 C1127 1.355 . S
C1126 C1128 1.415 . S
C1127 C1126 1.355 . S
C1127 C1129 1.419 . S
C1128 C1126 1.415 . S
C1128 C1133 1.425 . S
C1128 C1135 1.409 . S
C1129 H1121 0.930 . S
C1129 C1127 1.419 . S
C1129 C1130 1.362 . S
C1130 H1122 0.930 . S
C1130 C1129 1.362 . S
C1130 C1133 1.409 . S
C1131 H1123 0.930 . S
C1131 C1132 1.355 . S
C1131 C1133 1.415 . S
C1132 C1131 1.355 . S
C1132 C1134 1.419 . S
C1133 C1128 1.425 . S
C1133 C1130 1.409 . S
C1133 C1131 1.415 . S
C1134 H1124 0.930 . S
C1134 C1132 1.419 . S
C1134 C1135 1.362 . S
C1135 H1125 0.930 . S
C1135 C1128 1.409 . S
C1135 C1134 1.362 . S
H1136 C1142 0.930 . S
H1137 C1145 0.930 . S
H1138 C1146 0.930 . S
H1139 C1147 0.930 . S
H1140 C1150 0.930 . S
H1141 C1151 0.930 . S
C1142 H1136 0.930 . S
C1142 C1143 1.355 . S
C1142 C1144 1.415 . S
C1143 C1142 1.355 . S
C1143 C1145 1.419 . S
C1144 C1142 1.415 . S
C1144 C1149 1.425 . S
C1144 C1151 1.409 . S
C1145 H1137 0.930 . S
C1145 C1143 1.419 . S
C1145 C1146 1.362 . S
C1146 H1138 0.930 . S
C1146 C1145 1.362 . S
C1146 C1149 1.409 . S
C1147 H1139 0.930 . S
C1147 C1148 1.355 . S
C1147 C1149 1.415 . S
C1148 C1147 1.355 . S
C1148 C1150 1.419 . S
C1149 C1144 1.425 . S
C1149 C1146 1.409 . S
C1149 C1147 1.415 . S
C1150 H1140 0.930 . S
C1150 C1148 1.419 . S
C1150 C1151 1.362 . S
C1151 H1141 0.930 . S
C1151 C1144 1.409 . S
C1151 C1150 1.362 . S
H1152 C1158 0.930 . S
H1153 C1161 0.930 . S
H1154 C1162 0.930 . S
H1155 C1163 0.930 . S
H1156 C1166 0.930 . S
H1157 C1167 0.930 . S
C1158 H1152 0.930 . S
C1158 C1159 1.355 . S
C1158 C1160 1.415 . S
C1159 C1158 1.355 . S
C1159 C1161 1.419 . S
C1160 C1158 1.415 . S
C1160 C1165 1.425 . S
C1160 C1167 1.409 . S
C1161 H1153 0.930 . S
C1161 C1159 1.419 . S
C1161 C1162 1.362 . S
C1162 H1154 0.930 . S
C1162 C1161 1.362 . S
C1162 C1165 1.409 . S
C1163 H1155 0.930 . S
C1163 C1164 1.355 . S
C1163 C1165 1.415 . S
C1164 C1163 1.355 . S
C1164 C1166 1.419 . S
C1165 C1160 1.425 . S
C1165 C1162 1.409 . S
C1165 C1163 1.415 . S
C1166 H1156 0.930 . S
C1166 C1164 1.419 . S
C1166 C1167 1.362 . S
C1167 H1157 0.930 . S
C1167 C1160 1.409 . S
C1167 C1166 1.362 . S
H1168 C1174 0.930 . S
H1169 C1177 0.930 . S
H1170 C1178 0.930 . S
H1171 C1179 0.930 . S
H1172 C1182 0.930 . S
H1173 C1183 0.930 . S
C1174 H1168 0.930 . S
C1174 C1175 1.355 . S
C1174 C1176 1.415 . S
C1175 C1174 1.355 . S
C1175 C1177 1.419 . S
C1176 C1174 1.415 . S
C1176 C1181 1.425 . S
C1176 C1183 1.409 . S
C1177 H1169 0.930 . S
C1177 C1175 1.419 . S
C1177 C1178 1.362 . S
C1178 H1170 0.930 . S
C1178 C1177 1.362 . S
C1178 C1181 1.409 . S
C1179 H1171 0.930 . S
C1179 C1180 1.355 . S
C1179 C1181 1.415 . S
C1180 C1179 1.355 . S
C1180 C1182 1.419 . S
C1181 C1176 1.425 . S
C1181 C1178 1.409 . S
C1181 C1179 1.415 . S
C1182 H1172 0.930 . S
C1182 C1180 1.419 . S
C1182 C1183 1.362 . S
C1183 H1173 0.930 . S
C1183 C1176 1.409 . S
C1183 C1182 1.362 . S
H1184 C1190 0.930 . S
H1185 C1193 0.930 . S
H1186 C1194 0.930 . S
H1187 C1195 0.930 . S
H1188 C1198 0.930 . S
H1189 C1199 0.930 . S
C1190 H1184 0.930 . S
C1190 C1191 1.355 . S
C1190 C1192 1.415 . S
C1191 C1190 1.355 . S
C1191 C1193 1.419 . S
C1192 C1190 1.415 . S
C1192 C1197 1.425 . S
C1192 C1199 1.409 . S
C1193 H1185 0.930 . S
C1193 C1191 1.419 . S
C1193 C1194 1.362 . S
C1194 H1186 0.930 . S
C1194 C1193 1.362 . S
C1194 C1197 1.409 . S
C1195 H1187 0.930 . S
C1195 C1196 1.355 . S
C1195 C1197 1.415 . S
C1196 C1195 1.355 . S
C1196 C1198 1.419 . S
C1197 C1192 1.425 . S
C1197 C1194 1.409 . S
C1197 C1195 1.415 . S
C1198 H1188 0.930 . S
C1198 C1196 1.419 . S
C1198 C1199 1.362 . S
C1199 H1189 0.930 . S
C1199 C1192 1.409 . S
C1199 C1198 1.362 . S
H1200 C1206 0.930 . S
H1201 C1209 0.930 . S
H1202 C1210 0.930 . S
H1203 C1211 0.930 . S
H1204 C1214 0.930 . S
H1205 C1215 0.930 . S
C1206 H1200 0.930 . S
C1206 C1207 1.355 . S
C1206 C1208 1.415 . S
C1207 C1206 1.355 . S
C1207 C1209 1.419 . S
C1208 C1206 1.415 . S
C1208 C1213 1.425 . S
C1208 C1215 1.409 . S
C1209 H1201 0.930 . S
C1209 C1207 1.419 . S
C1209 C1210 1.362 . S
C1210 H1202 0.930 . S
C1210 C1209 1.362 . S
C1210 C1213 1.409 . S
C1211 H1203 0.930 . S
C1211 C1212 1.355 . S
C1211 C1213 1.415 . S
C1212 C1211 1.355 . S
C1212 C1214 1.419 . S
C1213 C1208 1.425 . S
C1213 C1210 1.409 . S
C1213 C1211 1.415 . S
C1214 H1204 0.930 . S
C1214 C1212 1.419 . S
C1214 C1215 1.362 . S
C1215 H1205 0.930 . S
C1215 C1208 1.409 . S
C1215 C1214 1.362 . S
H1216 C1222 0.930 . S
H1217 C1225 0.930 . S
H1218 C1226 0.930 . S
H1219 C1227 0.930 . S
H1220 C1230 0.930 . S
H1221 C1231 0.930 . S
C1222 H1216 0.930 . S
C1222 C1223 1.355 1_556 S
C1222 C1224 1.419 . S
C1223 C1222 1.355 1_554 S
C1223 C1225 1.419 . S
C1224 C1222 1.419 . S
C1224 C1229 1.414 1_556 S
C1224 C1231 1.416 . S
C1225 H1217 0.930 . S
C1225 C1223 1.419 . S
C1225 C1226 1.362 . S
C1226 H1218 0.930 . S
C1226 C1225 1.362 . S
C1226 C1229 1.409 . S
C1227 H1219 0.930 . S
C1227 C1228 1.355 . S
C1227 C1229 1.415 . S
C1228 C1227 1.355 . S
C1228 C1230 1.419 1_554 S
C1229 C1224 1.414 1_554 S
C1229 C1226 1.409 . S
C1229 C1227 1.415 . S
C1230 H1220 0.930 . S
C1230 C1228 1.419 1_556 S
C1230 C1231 1.362 . S
C1231 H1221 0.930 . S
C1231 C1224 1.416 . S
C1231 C1230 1.362 . S
H1232 C1238 0.930 1_556 S
H1233 C1241 0.930 . S
H1234 C1242 0.930 . S
H1235 C1243 0.930 . S
H1236 C1246 0.930 . S
H1237 C1247 0.930 . S
C1238 H1232 0.930 1_554 S
C1238 C1239 1.355 . S
C1238 C1240 1.415 . S
C1239 C1238 1.355 . S
C1239 C1241 1.419 . S
C1240 C1238 1.415 . S
C1240 C1245 1.425 . S
C1240 C1247 1.409 1_554 S
C1241 H1233 0.930 . S
C1241 C1239 1.419 . S
C1241 C1242 1.362 . S
C1242 H1234 0.930 . S
C1242 C1241 1.362 . S
C1242 C1245 1.409 . S
C1243 H1235 0.930 . S
C1243 C1244 1.355 . S
C1243 C1245 1.415 . S
C1244 C1243 1.355 . S
C1244 C1246 1.419 1_554 S
C1245 C1240 1.425 . S
C1245 C1242 1.409 . S
C1245 C1243 1.415 . S
C1246 H1236 0.930 . S
C1246 C1244 1.419 1_556 S
C1246 C1247 1.362 . S
C1247 H1237 0.930 . S
C1247 C1240 1.409 1_556 S
C1247 C1246 1.362 . S
H1248 C1254 0.930 . S
H1249 C1257 0.930 . S
H1250 C1258 0.930 . S
H1251 C1259 0.930 1_556 S
H1252 C1262 0.930 . S
H1253 C1263 0.930 . S
C1254 H1248 0.930 . S
C1254 C1255 1.355 . S
C1254 C1256 1.415 . S
C1255 C1254 1.355 . S
C1255 C1257 1.419 1_554 S
C1256 C1254 1.415 . S
C1256 C1261 1.442 . S
C1256 C1263 1.409 . S
C1257 H1249 0.930 . S
C1257 C1255 1.419 1_556 S
C1257 C1258 1.362 . S
C1258 H1250 0.930 . S
C1258 C1257 1.362 . S
C1258 C1261 1.393 1_556 S
C1259 H1251 0.930 1_554 S
C1259 C1260 1.355 . S
C1259 C1261 1.415 . S
C1260 C1259 1.355 . S
C1260 C1262 1.419 . S
C1261 C1256 1.442 . S
C1261 C1258 1.393 1_554 S
C1261 C1259 1.415 . S
C1262 H1252 0.930 . S
C1262 C1260 1.419 . S
C1262 C1263 1.362 . S
C1263 H1253 0.930 . S
C1263 C1256 1.409 . S
C1263 C1262 1.362 . S
H1264 C1270 0.930 . S
H1265 C1273 0.930 . S
H1266 C1274 0.930 . S
H1267 C1275 0.930 . S
H1268 C1278 0.930 . S
H1269 C1279 0.930 . S
C1270 H1264 0.930 . S
C1270 C1271 1.355 . S
C1270 C1272 1.415 . S
C1271 C1270 1.355 . S
C1271 C1273 1.419 1_554 S
C1272 C1270 1.415 . S
C1272 C1277 1.406 1_554 S
C1272 C1279 1.409 . S
C1273 H1265 0.930 . S
C1273 C1271 1.419 1_556 S
C1273 C1274 1.362 . S
C1274 H1266 0.930 . S
C1274 C1273 1.362 . S
C1274 C1277 1.422 . S
C1275 H1267 0.930 . S
C1275 C1276 1.355 1_556 S
C1275 C1277 1.421 . S
C1276 C1275 1.355 1_554 S
C1276 C1278 1.419 . S
C1277 C1272 1.406 1_556 S
C1277 C1274 1.422 . S
C1277 C1275 1.421 . S
C1278 H1268 0.930 . S
C1278 C1276 1.419 . S
C1278 C1279 1.362 . S
C1279 H1269 0.930 . S
C1279 C1272 1.409 . S
C1279 C1278 1.362 . S
H1280 C1286 0.930 . S
H1281 C1289 0.930 . S
H1282 C1290 0.930 . S
H1283 C1291 0.930 . S
H1284 C1294 0.930 . S
H1285 C1295 0.930 . S
C1286 H1280 0.930 . S
C1286 C1287 1.355 . S
C1286 C1288 1.415 . S
C1287 C1286 1.355 . S
C1287 C1289 1.419 . S
C1288 C1286 1.415 . S
C1288 C1293 1.425 . S
C1288 C1295 1.409 . S
C1289 H1281 0.930 . S
C1289 C1287 1.419 . S
C1289 C1290 1.362 . S
C1290 H1282 0.930 . S
C1290 C1289 1.362 . S
C1290 C1293 1.409 . S
C1291 H1283 0.930 . S
C1291 C1292 1.355 . S
C1291 C1293 1.415 . S
C1292 C1291 1.355 . S
C1292 C1294 1.419 . S
C1293 C1288 1.425 . S
C1293 C1290 1.409 . S
C1293 C1291 1.415 . S
C1294 H1284 0.930 . S
C1294 C1292 1.419 . S
C1294 C1295 1.362 . S
C1295 H1285 0.930 . S
C1295 C1288 1.409 . S
C1295 C1294 1.362 . S
H1296 C1302 0.930 . S
H1297 C1305 0.930 . S
H1298 C1306 0.930 . S
H1299 C1307 0.930 . S
H1300 C1310 0.930 . S
H1301 C1311 0.930 . S
C1302 H1296 0.930 . S
C1302 C1303 1.355 . S
C1302 C1304 1.415 . S
C1303 C1302 1.355 . S
C1303 C1305 1.419 . S
C1304 C1302 1.415 . S
C1304 C1309 1.425 . S
C1304 C1311 1.409 . S
C1305 H1297 0.930 . S
C1305 C1303 1.419 . S
C1305 C1306 1.362 . S
C1306 H1298 0.930 . S
C1306 C1305 1.362 . S
C1306 C1309 1.409 . S
C1307 H1299 0.930 . S
C1307 C1308 1.355 . S
C1307 C1309 1.415 . S
C1308 C1307 1.355 . S
C1308 C1310 1.419 . S
C1309 C1304 1.425 . S
C1309 C1306 1.409 . S
C1309 C1307 1.415 . S
C1310 H1300 0.930 . S
C1310 C1308 1.419 . S
C1310 C1311 1.362 . S
C1311 H1301 0.930 . S
C1311 C1304 1.409 . S
C1311 C1310 1.362 . S
H1312 C1318 0.930 . S
H1313 C1321 0.930 . S
H1314 C1322 0.930 . S
H1315 C1323 0.930 . S
H1316 C1326 0.930 . S
H1317 C1327 0.930 . S
C1318 H1312 0.930 . S
C1318 C1319 1.355 . S
C1318 C1320 1.415 . S
C1319 C1318 1.355 . S
C1319 C1321 1.419 . S
C1320 C1318 1.415 . S
C1320 C1325 1.425 . S
C1320 C1327 1.409 . S
C1321 H1313 0.930 . S
C1321 C1319 1.419 . S
C1321 C1322 1.362 . S
C1322 H1314 0.930 . S
C1322 C1321 1.362 . S
C1322 C1325 1.409 . S
C1323 H1315 0.930 . S
C1323 C1324 1.355 . S
C1323 C1325 1.415 . S
C1324 C1323 1.355 . S
C1324 C1326 1.419 . S
C1325 C1320 1.425 . S
C1325 C1322 1.409 . S
C1325 C1323 1.415 . S
C1326 H1316 0.930 . S
C1326 C1324 1.419 . S
C1326 C1327 1.362 . S
C1327 H1317 0.930 . S
C1327 C1320 1.409 . S
C1327 C1326 1.362 . S
H1328 C1334 0.930 . S
H1329 C1337 0.930 . S
H1330 C1338 0.930 . S
H1331 C1339 0.930 . S
H1332 C1342 0.930 . S
H1333 C1343 0.930 . S
C1334 H1328 0.930 . S
C1334 C1335 1.355 . S
C1334 C1336 1.415 . S
C1335 C1334 1.355 . S
C1335 C1337 1.419 . S
C1336 C1334 1.415 . S
C1336 C1341 1.425 . S
C1336 C1343 1.409 . S
C1337 H1329 0.930 . S
C1337 C1335 1.419 . S
C1337 C1338 1.362 . S
C1338 H1330 0.930 . S
C1338 C1337 1.362 . S
C1338 C1341 1.409 . S
C1339 H1331 0.930 . S
C1339 C1340 1.355 . S
C1339 C1341 1.415 . S
C1340 C1339 1.355 . S
C1340 C1342 1.419 . S
C1341 C1336 1.425 . S
C1341 C1338 1.409 . S
C1341 C1339 1.415 . S
C1342 H1332 0.930 . S
C1342 C1340 1.419 . S
C1342 C1343 1.362 . S
C1343 H1333 0.930 . S
C1343 C1336 1.409 . S
C1343 C1342 1.362 . S
H1344 C1350 0.930 . S
H1345 C1353 0.925 1_554 S
H1346 C1354 0.930 . S
H1347 C1355 0.930 . S
H1348 C1358 0.930 . S
H1349 C1359 0.930 . S
C1350 H1344 0.930 . S
C1350 C1351 1.355 . S
C1350 C1352 1.415 . S
C1351 C1350 1.355 . S
C1351 C1353 1.419 . S
C1352 C1350 1.415 . S
C1352 C1357 1.425 . S
C1352 C1359 1.409 . S
C1353 H1345 0.925 1_556 S
C1353 C1351 1.419 . S
C1353 C1354 1.362 1_556 S
C1354 H1346 0.930 . S
C1354 C1353 1.362 1_554 S
C1354 C1357 1.409 1_554 S
C1355 H1347 0.930 . S
C1355 C1356 1.355 1_554 S
C1355 C1357 1.415 1_554 S
C1356 C1355 1.355 1_556 S
C1356 C1358 1.419 . S
C1357 C1352 1.425 . S
C1357 C1354 1.409 1_556 S
C1357 C1355 1.415 1_556 S
C1358 H1348 0.930 . S
C1358 C1356 1.419 . S
C1358 C1359 1.362 . S
C1359 H1349 0.930 . S
C1359 C1352 1.409 . S
C1359 C1358 1.362 . S
H1360 C1366 0.930 . S
H1361 C1369 0.930 1_554 S
H1362 C1370 0.930 . S
H1363 C1371 0.930 . S
H1364 C1374 0.930 . S
H1365 C1375 0.930 . S
C1366 H1360 0.930 . S
C1366 C1367 1.355 . S
C1366 C1368 1.415 . S
C1367 C1366 1.355 . S
C1367 C1369 1.419 . S
C1368 C1366 1.415 . S
C1368 C1373 1.425 . S
C1368 C1375 1.409 . S
C1369 H1361 0.930 1_556 S
C1369 C1367 1.419 . S
C1369 C1370 1.362 1_556 S
C1370 H1362 0.930 . S
C1370 C1369 1.362 1_554 S
C1370 C1373 1.409 1_554 S
C1371 H1363 0.930 . S
C1371 C1372 1.355 1_554 S
C1371 C1373 1.415 1_554 S
C1372 C1371 1.355 1_556 S
C1372 C1374 1.419 . S
C1373 C1368 1.425 . S
C1373 C1370 1.409 1_556 S
C1373 C1371 1.415 1_556 S
C1374 H1364 0.930 . S
C1374 C1372 1.419 . S
C1374 C1375 1.362 . S
C1375 H1365 0.930 . S
C1375 C1368 1.409 . S
C1375 C1374 1.362 . S
H1376 C1382 0.930 . S
H1377 C1385 0.930 . S
H1378 C1386 0.930 . S
H1379 C1387 0.930 . S
H1380 C1390 0.930 1_554 S
H1381 C1391 0.930 . S
C1382 H1376 0.930 . S
C1382 C1383 1.355 1_554 S
C1382 C1384 1.415 1_554 S
C1383 C1382 1.355 1_556 S
C1383 C1385 1.419 . S
C1384 C1382 1.415 1_556 S
C1384 C1389 1.425 . S
C1384 C1391 1.409 1_556 S
C1385 H1377 0.930 . S
C1385 C1383 1.419 . S
C1385 C1386 1.362 . S
C1386 H1378 0.930 . S
C1386 C1385 1.362 . S
C1386 C1389 1.409 . S
C1387 H1379 0.930 . S
C1387 C1388 1.355 . S
C1387 C1389 1.415 . S
C1388 C1387 1.355 . S
C1388 C1390 1.419 . S
C1389 C1384 1.425 . S
C1389 C1386 1.409 . S
C1389 C1387 1.415 . S
C1390 H1380 0.930 1_556 S
C1390 C1388 1.419 . S
C1390 C1391 1.362 1_556 S
C1391 H1381 0.930 . S
C1391 C1384 1.409 1_554 S
C1391 C1390 1.362 1_554 S
H1392 C1398 0.930 . S
H1393 C1401 0.930 . S
H1394 C1402 0.930 . S
H1395 C1403 0.930 1_554 S
H1396 C1406 0.930 . S
H1397 C1407 0.930 . S
C1398 H1392 0.930 . S
C1398 C1399 1.355 . S
C1398 C1400 1.415 . S
C1399 C1398 1.355 . S
C1399 C1401 1.419 1_556 S
C1400 C1398 1.415 . S
C1400 C1405 1.425 . S
C1400 C1407 1.409 . S
C1401 H1393 0.930 . S
C1401 C1399 1.419 1_554 S
C1401 C1402 1.362 . S
C1402 H1394 0.930 . S
C1402 C1401 1.362 . S
C1402 C1405 1.409 1_554 S
C1403 H1395 0.930 1_556 S
C1403 C1404 1.355 . S
C1403 C1405 1.415 . S
C1404 C1403 1.355 . S
C1404 C1406 1.419 . S
C1405 C1400 1.425 . S
C1405 C1402 1.409 1_556 S
C1405 C1403 1.415 . S
C1406 H1396 0.930 . S
C1406 C1404 1.419 . S
C1406 C1407 1.362 . S
C1407 H1397 0.930 . S
C1407 C1400 1.409 . S
C1407 C1406 1.362 . S
C647 C18 2.268 . S
C652 C218 2.316 . S
C663 C258 2.321 . S
C668 C58 2.297 . S
C679 C98 2.284 . S
C684 C298 2.300 . S
C695 C138 2.275 . S
C700 C178 2.341 . S
C711 C528 2.273 . S
C716 C328 2.311 . S
C727 C568 2.336 . S
C732 C368 2.282 . S
C743 C408 2.265 . S
C748 C608 2.318 . S
C759 C448 2.342 . S
C764 C488 2.274 . S
C775 C5 1.999 . S
C780 C129 1.889 . S
C791 C45 1.965 . S
C796 C9 1.832 . S
C807 C85 1.963 . S
C812 C49 1.823 . S
C823 C125 2.009 . S
C828 C89 1.883 . S
C839 C165 2.007 . S
C844 C209 1.824 . S
C855 C249 1.804 . S
C860 C205 1.981 . S
C871 C245 1.980 . S
C876 C289 1.807 . S
C887 C169 1.841 . S
C892 C285 1.960 . S
C903 C459 1.843 . S
C908 C335 2.010 . S
C919 C375 1.966 . S
C924 C339 1.863 . S
C935 C415 1.964 . S
C940 C379 1.820 . S
C951 C455 1.971 . S
C956 C419 1.876 . S
C967 C495 1.965 . S
C972 C539 1.829 . S
C983 C535 2.011 . S
C988 C579 1.852 . S
C999 C575 2.009 . S
C1004 C619 1.828 . S
C1015 C615 1.961 . S
C1020 C499 1.858 . S
C1031 C15 1.246 . S
C1036 C95 1.247 . S
C1047 C55 1.179 . S
C1052 C135 1.187 . S
C1063 C255 1.168 . S
C1068 C175 1.176 . S
C1079 C295 1.157 . S
C1084 C215 1.164 . S
C1095 C405 1.228 . S
C1100 C325 1.235 . S
C1111 C445 1.161 . S
C1116 C365 1.155 . S
C1127 C485 1.221 . S
C1132 C565 1.228 . S
C1143 C525 1.154 . S
C1148 C605 1.149 . S
C1159 C19 2.817 . S
C1164 C458 2.826 . S
C1175 C338 2.813 . S
C1180 C59 2.804 . S
C1191 C99 2.802 . S
C1196 C378 2.812 . S
C1207 C418 2.803 . S
C1212 C139 2.789 . S
C1223 C538 2.825 1_554 S
C1228 C179 2.813 . S
C1239 C219 2.790 . S
C1244 C578 2.805 1_554 S
C1255 C618 2.805 1_554 S
C1260 C259 2.789 . S
C1271 C299 2.817 . S
C1276 C498 2.825 1_554 S
C1287 C329 2.796 . S
C1292 C128 2.812 . S
C1303 C369 2.791 . S
C1308 C8 2.804 . S
C1319 C48 2.814 . S
C1324 C409 2.797 . S
C1335 C449 2.789 . S
C1340 C88 2.803 . S
C1351 C489 2.808 . S
C1356 C208 2.822 1_556 S
C1367 C529 2.810 . S
C1372 C248 2.824 1_556 S
C1383 C288 2.811 1_556 S
C1388 C569 2.802 . S
C1399 C168 2.816 1_556 S
C1404 C609 2.801 . S
