# Generated by pormake.
# Topology cha, (4)-cn, num edge types: 1
# Building blocks:
#     Node 0, Type 0, BuildingBlock: CEKHIL_clean_sbu_0, # of connection points: 4
#     Node 1, Type 0, BuildingBlock: CEKHIL_clean_sbu_0, # of connection points: 4
#     Node 2, Type 0, BuildingBlock: CEKHIL_clean_sbu_0, # of connection points: 4
#     Node 3, Type 0, BuildingBlock: CEKHIL_clean_sbu_0, # of connection points: 4
#     Node 4, Type 0, BuildingBlock: CEKHIL_clean_sbu_0, # of connection points: 4
#     Node 5, Type 0, BuildingBlock: CEKHIL_clean_sbu_0, # of connection points: 4
#     Node 6, Type 0, BuildingBlock: CEKHIL_clean_sbu_0, # of connection points: 4
#     Node 7, Type 0, BuildingBlock: CEKHIL_clean_sbu_0, # of connection points: 4
#     Node 8, Type 0, BuildingBlock: CEKHIL_clean_sbu_0, # of connection points: 4
#     Node 9, Type 0, BuildingBlock: CEKHIL_clean_sbu_0, # of connection points: 4
#     Node 10, Type 0, BuildingBlock: CEKHIL_clean_sbu_0, # of connection points: 4
#     Node 11, Type 0, BuildingBlock: CEKHIL_clean_sbu_0, # of connection points: 4
#     Node 12, Type 0, BuildingBlock: CEKHIL_clean_sbu_0, # of connection points: 4
#     Node 13, Type 0, BuildingBlock: CEKHIL_clean_sbu_0, # of connection points: 4
#     Node 14, Type 0, BuildingBlock: CEKHIL_clean_sbu_0, # of connection points: 4
#     Node 15, Type 0, BuildingBlock: CEKHIL_clean_sbu_0, # of connection points: 4
#     Node 16, Type 0, BuildingBlock: CEKHIL_clean_sbu_0, # of connection points: 4
#     Node 17, Type 0, BuildingBlock: CEKHIL_clean_sbu_0, # of connection points: 4
#     Node 18, Type 0, BuildingBlock: CEKHIL_clean_sbu_0, # of connection points: 4
#     Node 19, Type 0, BuildingBlock: CEKHIL_clean_sbu_0, # of connection points: 4
#     Node 20, Type 0, BuildingBlock: CEKHIL_clean_sbu_0, # of connection points: 4
#     Node 21, Type 0, BuildingBlock: CEKHIL_clean_sbu_0, # of connection points: 4
#     Node 22, Type 0, BuildingBlock: CEKHIL_clean_sbu_0, # of connection points: 4
#     Node 23, Type 0, BuildingBlock: CEKHIL_clean_sbu_0, # of connection points: 4
#     Node 24, Type 0, BuildingBlock: CEKHIL_clean_sbu_0, # of connection points: 4
#     Node 25, Type 0, BuildingBlock: CEKHIL_clean_sbu_0, # of connection points: 4
#     Node 26, Type 0, BuildingBlock: CEKHIL_clean_sbu_0, # of connection points: 4
#     Node 27, Type 0, BuildingBlock: CEKHIL_clean_sbu_0, # of connection points: 4
#     Node 28, Type 0, BuildingBlock: CEKHIL_clean_sbu_0, # of connection points: 4
#     Node 29, Type 0, BuildingBlock: CEKHIL_clean_sbu_0, # of connection points: 4
#     Node 30, Type 0, BuildingBlock: CEKHIL_clean_sbu_0, # of connection points: 4
#     Node 31, Type 0, BuildingBlock: CEKHIL_clean_sbu_0, # of connection points: 4
#     Node 32, Type 0, BuildingBlock: CEKHIL_clean_sbu_0, # of connection points: 4
#     Node 33, Type 0, BuildingBlock: CEKHIL_clean_sbu_0, # of connection points: 4
#     Node 34, Type 0, BuildingBlock: CEKHIL_clean_sbu_0, # of connection points: 4
#     Node 35, Type 0, BuildingBlock: CEKHIL_clean_sbu_0, # of connection points: 4
#     Edge 36, Type (0, 0), BuildingBlock: EZIPEK_clean_linker_0, # of connection points: 2
#     Edge 37, Type (0, 0), BuildingBlock: EZIPEK_clean_linker_0, # of connection points: 2
#     Edge 38, Type (0, 0), BuildingBlock: EZIPEK_clean_linker_0, # of connection points: 2
#     Edge 39, Type (0, 0), BuildingBlock: EZIPEK_clean_linker_0, # of connection points: 2
#     Edge 40, Type (0, 0), BuildingBlock: EZIPEK_clean_linker_0, # of connection points: 2
#     Edge 41, Type (0, 0), BuildingBlock: EZIPEK_clean_linker_0, # of connection points: 2
#     Edge 42, Type (0, 0), BuildingBlock: EZIPEK_clean_linker_0, # of connection points: 2
#     Edge 43, Type (0, 0), BuildingBlock: EZIPEK_clean_linker_0, # of connection points: 2
#     Edge 44, Type (0, 0), BuildingBlock: EZIPEK_clean_linker_0, # of connection points: 2
#     Edge 45, Type (0, 0), BuildingBlock: EZIPEK_clean_linker_0, # of connection points: 2
#     Edge 46, Type (0, 0), BuildingBlock: EZIPEK_clean_linker_0, # of connection points: 2
#     Edge 47, Type (0, 0), BuildingBlock: EZIPEK_clean_linker_0, # of connection points: 2
#     Edge 48, Type (0, 0), BuildingBlock: EZIPEK_clean_linker_0, # of connection points: 2
#     Edge 49, Type (0, 0), BuildingBlock: EZIPEK_clean_linker_0, # of connection points: 2
#     Edge 50, Type (0, 0), BuildingBlock: EZIPEK_clean_linker_0, # of connection points: 2
#     Edge 51, Type (0, 0), BuildingBlock: EZIPEK_clean_linker_0, # of connection points: 2
#     Edge 52, Type (0, 0), BuildingBlock: EZIPEK_clean_linker_0, # of connection points: 2
#     Edge 53, Type (0, 0), BuildingBlock: EZIPEK_clean_linker_0, # of connection points: 2
#     Edge 54, Type (0, 0), BuildingBlock: EZIPEK_clean_linker_0, # of connection points: 2
#     Edge 55, Type (0, 0), BuildingBlock: EZIPEK_clean_linker_0, # of connection points: 2
#     Edge 56, Type (0, 0), BuildingBlock: EZIPEK_clean_linker_0, # of connection points: 2
#     Edge 57, Type (0, 0), BuildingBlock: EZIPEK_clean_linker_0, # of connection points: 2
#     Edge 58, Type (0, 0), BuildingBlock: EZIPEK_clean_linker_0, # of connection points: 2
#     Edge 59, Type (0, 0), BuildingBlock: EZIPEK_clean_linker_0, # of connection points: 2
#     Edge 60, Type (0, 0), BuildingBlock: EZIPEK_clean_linker_0, # of connection points: 2
#     Edge 61, Type (0, 0), BuildingBlock: EZIPEK_clean_linker_0, # of connection points: 2
#     Edge 62, Type (0, 0), BuildingBlock: EZIPEK_clean_linker_0, # of connection points: 2
#     Edge 63, Type (0, 0), BuildingBlock: EZIPEK_clean_linker_0, # of connection points: 2
#     Edge 64, Type (0, 0), BuildingBlock: EZIPEK_clean_linker_0, # of connection points: 2
#     Edge 65, Type (0, 0), BuildingBlock: EZIPEK_clean_linker_0, # of connection points: 2
#     Edge 66, Type (0, 0), BuildingBlock: EZIPEK_clean_linker_0, # of connection points: 2
#     Edge 67, Type (0, 0), BuildingBlock: EZIPEK_clean_linker_0, # of connection points: 2
#     Edge 68, Type (0, 0), BuildingBlock: EZIPEK_clean_linker_0, # of connection points: 2
#     Edge 69, Type (0, 0), BuildingBlock: EZIPEK_clean_linker_0, # of connection points: 2
#     Edge 70, Type (0, 0), BuildingBlock: EZIPEK_clean_linker_0, # of connection points: 2
#     Edge 71, Type (0, 0), BuildingBlock: EZIPEK_clean_linker_0, # of connection points: 2
#     Edge 72, Type (0, 0), BuildingBlock: EZIPEK_clean_linker_0, # of connection points: 2
#     Edge 73, Type (0, 0), BuildingBlock: EZIPEK_clean_linker_0, # of connection points: 2
#     Edge 74, Type (0, 0), BuildingBlock: EZIPEK_clean_linker_0, # of connection points: 2
#     Edge 75, Type (0, 0), BuildingBlock: EZIPEK_clean_linker_0, # of connection points: 2
#     Edge 76, Type (0, 0), BuildingBlock: EZIPEK_clean_linker_0, # of connection points: 2
#     Edge 77, Type (0, 0), BuildingBlock: EZIPEK_clean_linker_0, # of connection points: 2
#     Edge 78, Type (0, 0), BuildingBlock: EZIPEK_clean_linker_0, # of connection points: 2
#     Edge 79, Type (0, 0), BuildingBlock: EZIPEK_clean_linker_0, # of connection points: 2
#     Edge 80, Type (0, 0), BuildingBlock: EZIPEK_clean_linker_0, # of connection points: 2
#     Edge 81, Type (0, 0), BuildingBlock: EZIPEK_clean_linker_0, # of connection points: 2
#     Edge 82, Type (0, 0), BuildingBlock: EZIPEK_clean_linker_0, # of connection points: 2
#     Edge 83, Type (0, 0), BuildingBlock: EZIPEK_clean_linker_0, # of connection points: 2
#     Edge 84, Type (0, 0), BuildingBlock: EZIPEK_clean_linker_0, # of connection points: 2
#     Edge 85, Type (0, 0), BuildingBlock: EZIPEK_clean_linker_0, # of connection points: 2
#     Edge 86, Type (0, 0), BuildingBlock: EZIPEK_clean_linker_0, # of connection points: 2
#     Edge 87, Type (0, 0), BuildingBlock: EZIPEK_clean_linker_0, # of connection points: 2
#     Edge 88, Type (0, 0), BuildingBlock: EZIPEK_clean_linker_0, # of connection points: 2
#     Edge 89, Type (0, 0), BuildingBlock: EZIPEK_clean_linker_0, # of connection points: 2
#     Edge 90, Type (0, 0), BuildingBlock: EZIPEK_clean_linker_0, # of connection points: 2
#     Edge 91, Type (0, 0), BuildingBlock: EZIPEK_clean_linker_0, # of connection points: 2
#     Edge 92, Type (0, 0), BuildingBlock: EZIPEK_clean_linker_0, # of connection points: 2
#     Edge 93, Type (0, 0), BuildingBlock: EZIPEK_clean_linker_0, # of connection points: 2
#     Edge 94, Type (0, 0), BuildingBlock: EZIPEK_clean_linker_0, # of connection points: 2
#     Edge 95, Type (0, 0), BuildingBlock: EZIPEK_clean_linker_0, # of connection points: 2
#     Edge 96, Type (0, 0), BuildingBlock: EZIPEK_clean_linker_0, # of connection points: 2
#     Edge 97, Type (0, 0), BuildingBlock: EZIPEK_clean_linker_0, # of connection points: 2
#     Edge 98, Type (0, 0), BuildingBlock: EZIPEK_clean_linker_0, # of connection points: 2
#     Edge 99, Type (0, 0), BuildingBlock: EZIPEK_clean_linker_0, # of connection points: 2
#     Edge 100, Type (0, 0), BuildingBlock: EZIPEK_clean_linker_0, # of connection points: 2
#     Edge 101, Type (0, 0), BuildingBlock: EZIPEK_clean_linker_0, # of connection points: 2
#     Edge 102, Type (0, 0), BuildingBlock: EZIPEK_clean_linker_0, # of connection points: 2
#     Edge 103, Type (0, 0), BuildingBlock: EZIPEK_clean_linker_0, # of connection points: 2
#     Edge 104, Type (0, 0), BuildingBlock: EZIPEK_clean_linker_0, # of connection points: 2
#     Edge 105, Type (0, 0), BuildingBlock: EZIPEK_clean_linker_0, # of connection points: 2
#     Edge 106, Type (0, 0), BuildingBlock: EZIPEK_clean_linker_0, # of connection points: 2
#     Edge 107, Type (0, 0), BuildingBlock: EZIPEK_clean_linker_0, # of connection points: 2
# Relax obj value: 0.072
# Max RMSD: 0.096
# Mean RMSD: 0.096
data_MOF--net-cha--node1-CEKHIL_clean_sbu_0--edge1-EZIPEK_clean_linker_0
_symmetry_space_group_name_H-M    P1
_symmetry_Int_Tables_number       1
_symmetry_cell_setting            triclinic
loop_
_symmetry_equiv_pos_as_xyz
'x, y, z'
_cell_length_a     39.147614
_cell_length_b     39.129379
_cell_length_c     62.796782
_cell_angle_alpha  90.020776
_cell_angle_beta   89.981704
_cell_angle_gamma 119.9515
loop_
_atom_site_label
_atom_site_type_symbol
_atom_site_fract_x
_atom_site_fract_y
_atom_site_fract_z
_atom_type_partial_charge
Co0 Co 0.04141 0.30481 0.09482 0.0
O1 O 0.03999 0.2957 0.12507 0.0
O2 O 0.01793 0.33173 0.11004 0.0
C3 C 0.10473 0.31861 0.09173 0.0
O4 O 0.04001 0.32119 0.06365 0.0
Co5 Co 0.0559 0.25037 0.06461 0.0
O6 O 0.06023 0.28812 0.04241 0.0
C7 C 0.97664 0.22187 0.08299 0.0
C8 C 0.02444 0.31777 0.1275 0.0
C9 C 0.04896 0.31322 0.04513 0.0
O10 O 0.98775 0.25624 0.09086 0.0
O11 O 1.00022 0.21291 0.07366 0.0
O12 O 0.09684 0.3458 0.09745 0.0
O13 O 0.07444 0.28393 0.08932 0.0
Co14 Co 0.74745 0.75902 0.09611 0.0
O15 O 0.75244 0.76631 0.12651 0.0
O16 O 0.72156 0.70815 0.11056 0.0
C17 C 0.72975 0.80517 0.09066 0.0
O18 O 0.73617 0.7407 0.06468 0.0
Co19 Co 0.80236 0.82841 0.06675 0.0
O20 O 0.76944 0.79372 0.04342 0.0
C21 C 0.83353 0.78348 0.08906 0.0
C22 C 0.73273 0.72834 0.12821 0.0
C23 C 0.7453 0.75713 0.04607 0.0
O24 O 0.7987 0.75856 0.09558 0.0
O25 O 0.84165 0.8149 0.0788 0.0
O26 O 0.70347 0.76944 0.09591 0.0
O27 O 0.76575 0.81254 0.0903 0.0
Co28 Co 0.30172 0.01569 0.09308 0.0
O29 O 0.29724 0.01844 0.12348 0.0
O30 O 0.35352 0.03908 0.10641 0.0
C31 C 0.25201 0.95246 0.09071 0.0
O32 O 0.31703 0.01701 0.06148 0.0
Co33 Co 0.23113 0.00114 0.06463 0.0
O34 O 0.26349 0.99926 0.04096 0.0
C35 C 0.28115 0.07933 0.08405 0.0
C36 C 0.33507 0.03388 0.12446 0.0
C37 C 0.29977 0.00979 0.04312 0.0
O38 O 0.30611 0.06907 0.09011 0.0
O39 O 0.24815 0.05575 0.07521 0.0
O40 O 0.28751 0.96023 0.09528 0.0
O41 O 0.24727 0.98269 0.08903 0.0
Co42 Co 0.31313 0.04495 0.90957 0.0
O43 O 0.30687 0.04717 0.87922 0.0
O44 O 0.33847 0.02003 0.89448 0.0
C45 C 0.33062 0.10885 0.91513 0.0
O46 O 0.32618 0.03826 0.94061 0.0
Co47 Co 0.25868 0.05883 0.93971 0.0
O48 O 0.28922 0.052 0.96275 0.0
C49 C 0.2271 0.98387 0.9167 0.0
C50 C 0.32655 0.02891 0.87705 0.0
C51 C 0.31532 0.04222 0.95948 0.0
O52 O 0.26212 0.99302 0.91085 0.0
O53 O 0.2189 0.00746 0.92657 0.0
O54 O 0.35685 0.0995 0.9095 0.0
O55 O 0.2948 0.07998 0.91594 0.0
Co56 Co 0.01977 0.30205 0.91049 0.0
O57 O 0.01664 0.29581 0.87997 0.0
O58 O 0.04426 0.35341 0.89649 0.0
C59 C 0.95605 0.25533 0.91604 0.0
O60 O 0.02724 0.31951 0.94209 0.0
Co61 Co 0.00668 0.23209 0.93887 0.0
O62 O 0.01098 0.26659 0.96291 0.0
C63 C 0.08197 0.27772 0.91617 0.0
C64 C 0.03485 0.33385 0.87862 0.0
C65 C 0.02176 0.3029 0.96058 0.0
O66 O 0.07171 0.30275 0.91023 0.0
O67 O 0.05904 0.24591 0.9262 0.0
O68 O 0.96528 0.29128 0.91142 0.0
O69 O 0.98488 0.24821 0.91589 0.0
Co70 Co 0.76414 0.75367 0.91185 0.0
O71 O 0.76943 0.76106 0.88147 0.0
O72 O 0.71248 0.72669 0.8982 0.0
C73 C 0.81264 0.73841 0.91465 0.0
O74 O 0.74801 0.73928 0.94334 0.0
Co75 Co 0.83467 0.80817 0.94086 0.0
O76 O 0.80186 0.7727 0.96399 0.0
C77 C 0.78697 0.83859 0.921 0.0
C78 C 0.73154 0.73948 0.88029 0.0
C79 C 0.76534 0.74785 0.96171 0.0
O80 O 0.76149 0.80369 0.91473 0.0
O81 O 0.81937 0.84702 0.93023 0.0
O82 O 0.77703 0.71146 0.90966 0.0
O83 O 0.81821 0.77369 0.91639 0.0
Co84 Co 0.02227 0.75185 0.9111 0.0
O85 O 0.02305 0.75858 0.88068 0.0
O86 O 0.04626 0.72445 0.89712 0.0
C87 C 0.95889 0.73745 0.91446 0.0
O88 O 0.02556 0.73824 0.94261 0.0
Co89 Co 0.00783 0.80695 0.94056 0.0
O90 O 0.0051 0.77127 0.96361 0.0
C91 C 0.08428 0.83693 0.91872 0.0
C92 C 0.03956 0.73717 0.8793 0.0
C93 C 0.01698 0.74661 0.96111 0.0
O94 O 0.07495 0.80175 0.91307 0.0
O95 O 0.0605 0.84555 0.92808 0.0
O96 O 0.96699 0.70998 0.90961 0.0
O97 O 0.98891 0.7725 0.91611 0.0
Co98 Co 0.31248 0.3016 0.91037 0.0
O99 O 0.30559 0.29345 0.88003 0.0
O100 O 0.33811 0.35198 0.89545 0.0
C101 C 0.32963 0.25488 0.91551 0.0
O102 O 0.32621 0.32092 0.94151 0.0
Co103 Co 0.25824 0.23343 0.94051 0.0
O104 O 0.29147 0.2693 0.96346 0.0
C105 C 0.2265 0.27672 0.91743 0.0
C106 C 0.32578 0.33136 0.87797 0.0
C107 C 0.31696 0.30539 0.96032 0.0
O108 O 0.26161 0.30287 0.91189 0.0
O109 O 0.21838 0.2448 0.92713 0.0
O110 O 0.3559 0.29032 0.90977 0.0
O111 O 0.29387 0.24812 0.91652 0.0
Co112 Co 0.76288 0.0453 0.91012 0.0
O113 O 0.77156 0.04594 0.87985 0.0
O114 O 0.71278 0.02031 0.89496 0.0
C115 C 0.80954 0.10927 0.91497 0.0
O116 O 0.7429 0.04026 0.94099 0.0
Co117 Co 0.83091 0.06096 0.9411 0.0
O118 O 0.79392 0.05783 0.9635 0.0
C119 C 0.78647 0.98383 0.91981 0.0
C120 C 0.73371 0.02847 0.87763 0.0
C121 C 0.75778 0.04656 0.95994 0.0
O122 O 0.76138 0.99311 0.91265 0.0
O123 O 0.81777 0.00775 0.92994 0.0
O124 O 0.77427 0.10007 0.90891 0.0
O125 O 0.81619 0.08025 0.9165 0.0
Co126 Co 0.74751 0.01533 0.09239 0.0
O127 O 0.75594 0.01592 0.1227 0.0
O128 O 0.72325 0.04167 0.10719 0.0
C129 C 0.72896 0.9508 0.08855 0.0
O130 O 0.73246 0.01939 0.0614 0.0
Co131 Co 0.7985 0.99682 0.06185 0.0
O132 O 0.76627 0.00174 0.03916 0.0
C133 C 0.83237 0.07563 0.08123 0.0
C134 C 0.73605 0.03399 0.12467 0.0
C135 C 0.74146 0.01314 0.04254 0.0
O136 O 0.79864 0.06678 0.08919 0.0
O137 O 0.83907 0.05109 0.07123 0.0
O138 O 0.70347 0.9611 0.0942 0.0
O139 O 0.76483 0.97921 0.08666 0.0
Co140 Co 0.04013 0.75979 0.0958 0.0
O141 O 0.0396 0.76535 0.12626 0.0
O142 O 0.0151 0.70816 0.10955 0.0
C143 C 0.10395 0.80754 0.09239 0.0
O144 O 0.0367 0.7435 0.06418 0.0
Co145 Co 0.05616 0.83082 0.06703 0.0
O146 O 0.05769 0.79768 0.04368 0.0
C147 C 0.97941 0.78494 0.08851 0.0
C148 C 0.02239 0.72737 0.12749 0.0
C149 C 0.04538 0.76098 0.04584 0.0
O150 O 0.98806 0.75843 0.09386 0.0
O151 O 0.00375 0.81755 0.07956 0.0
O152 O 0.09498 0.77173 0.09721 0.0
O153 O 0.0745 0.81355 0.091 0.0
Co154 Co 0.30373 0.30928 0.0942 0.0
O155 O 0.29841 0.3011 0.12459 0.0
O156 O 0.35518 0.33745 0.10806 0.0
C157 C 0.25358 0.32223 0.09178 0.0
O158 O 0.32014 0.32488 0.06278 0.0
Co159 Co 0.23444 0.25503 0.06438 0.0
O160 O 0.26674 0.29231 0.04174 0.0
C161 C 0.28346 0.22557 0.08392 0.0
C162 C 0.33616 0.32378 0.1259 0.0
C163 C 0.30314 0.31726 0.04431 0.0
O164 O 0.30815 0.26029 0.09083 0.0
O165 O 0.25121 0.21698 0.07444 0.0
O166 O 0.2888 0.35005 0.09679 0.0
O167 O 0.24943 0.28761 0.08955 0.0
Co168 Co 0.70493 0.64017 0.42945 0.0
O169 O 0.70309 0.63051 0.45964 0.0
O170 O 0.68334 0.66868 0.44475 0.0
C171 C 0.76738 0.6515 0.42616 0.0
O172 O 0.70409 0.65727 0.39841 0.0
Co173 Co 0.71669 0.58441 0.39887 0.0
O174 O 0.72197 0.62275 0.37679 0.0
C175 C 0.6379 0.55864 0.41731 0.0
C176 C 0.68906 0.65391 0.46212 0.0
C177 C 0.71206 0.64884 0.37977 0.0
O178 O 0.65031 0.59309 0.42539 0.0
O179 O 0.66067 0.54856 0.408 0.0
O180 O 0.76091 0.67954 0.43207 0.0
O181 O 0.73627 0.61742 0.42372 0.0
Co182 Co 0.41886 0.09459 0.42663 0.0
O183 O 0.42544 0.0996 0.45707 0.0
O184 O 0.39254 0.04271 0.4401 0.0
C185 C 0.40251 0.14231 0.42387 0.0
O186 O 0.40578 0.07905 0.39493 0.0
Co187 Co 0.47381 0.16643 0.39841 0.0
O188 O 0.43978 0.1336 0.3748 0.0
C189 C 0.50467 0.12005 0.41926 0.0
C190 C 0.40472 0.06162 0.4581 0.0
C191 C 0.41511 0.09691 0.37669 0.0
O192 O 0.46947 0.09319 0.42418 0.0
O193 O 0.51302 0.15307 0.41081 0.0
O194 O 0.37588 0.10638 0.42855 0.0
O195 O 0.43801 0.14849 0.4223 0.0
Co196 Co 0.97024 0.34993 0.42752 0.0
O197 O 0.96238 0.34874 0.4579 0.0
O198 O 0.02074 0.37437 0.4423 0.0
C199 C 0.9227 0.28634 0.42237 0.0
O200 O 0.98957 0.35535 0.39642 0.0
Co201 Co 0.9024 0.33683 0.39722 0.0
O202 O 0.93832 0.33924 0.37434 0.0
C203 C 0.94655 0.41192 0.42018 0.0
C204 C 1.00031 0.36633 0.45982 0.0
C205 C 0.97429 0.34947 0.37757 0.0
O206 O 0.97225 0.40244 0.42594 0.0
O207 O 0.91465 0.38849 0.41038 0.0
O208 O 0.95796 0.29482 0.42811 0.0
O209 O 0.91667 0.31582 0.42133 0.0
Co210 Co 0.98204 0.37616 0.24443 0.0
O211 O 0.97525 0.37579 0.21395 0.0
O212 O 0.01069 0.35395 0.23025 0.0
C213 C 0.99475 0.43894 0.24889 0.0
O214 O 0.99653 0.37252 0.27563 0.0
Co215 Co 0.92543 0.3871 0.27444 0.0
O216 O 0.95811 0.38438 0.29765 0.0
C217 C 0.89803 0.31102 0.25284 0.0
C218 C 0.99749 0.36012 0.21247 0.0
C219 C 0.98557 0.37654 0.29445 0.0
O220 O 0.93331 0.32223 0.24646 0.0
O221 O 0.88829 0.33351 0.26268 0.0
O222 O 0.02274 0.43201 0.24345 0.0
O223 O 0.95997 0.4084 0.25008 0.0
Co224 Co 0.68348 0.63434 0.24608 0.0
O225 O 0.6826 0.62702 0.2157 0.0
O226 O 0.70917 0.68518 0.23158 0.0
C227 C 0.61925 0.58828 0.2506 0.0
O228 O 0.68899 0.65294 0.27733 0.0
Co229 Co 0.66667 0.56465 0.27592 0.0
O230 O 0.66952 0.60045 0.29898 0.0
C231 C 0.74335 0.60813 0.25416 0.0
C232 C 0.70059 0.66499 0.21394 0.0
C233 C 0.68187 0.637 0.29605 0.0
O234 O 0.73501 0.63443 0.24794 0.0
O235 O 0.71903 0.57658 0.26397 0.0
O236 O 0.62912 0.62408 0.24523 0.0
O237 O 0.64779 0.58086 0.25172 0.0
Co238 Co 0.43314 0.08889 0.24227 0.0
O239 O 0.44129 0.09718 0.21201 0.0
O240 O 0.38295 0.06224 0.2269 0.0
C241 C 0.48206 0.07431 0.24594 0.0
O242 O 0.41463 0.07366 0.27342 0.0
Co243 Co 0.50167 0.14305 0.27253 0.0
O244 O 0.46727 0.10672 0.29501 0.0
C245 C 0.4527 0.1726 0.25293 0.0
C246 C 0.4037 0.07559 0.20949 0.0
C247 C 0.43089 0.08199 0.29209 0.0
O248 O 0.42879 0.13799 0.2456 0.0
O249 O 0.4853 0.1813 0.26209 0.0
O250 O 0.44688 0.0472 0.24041 0.0
O251 O 0.48694 0.10926 0.24795 0.0
Co252 Co 0.68955 0.08236 0.24221 0.0
O253 O 0.69148 0.08947 0.21179 0.0
O254 O 0.71269 0.05386 0.22847 0.0
C255 C 0.62652 0.0694 0.24519 0.0
O256 O 0.69125 0.06822 0.27376 0.0
Co257 Co 0.67554 0.13872 0.27109 0.0
O258 O 0.67217 0.10301 0.29432 0.0
C259 C 0.75334 0.1665 0.25116 0.0
C260 C 0.70684 0.06702 0.21058 0.0
C261 C 0.68304 0.07749 0.2921 0.0
O262 O 0.74304 0.13124 0.24509 0.0
O263 O 0.72983 0.17598 0.26008 0.0
O264 O 0.63383 0.04147 0.24024 0.0
O265 O 0.657 0.10411 0.24677 0.0
Co266 Co 0.97379 0.63106 0.24506 0.0
O267 O 0.96619 0.62358 0.21469 0.0
O268 O 0.99967 0.68172 0.2304 0.0
C269 C 0.99044 0.58377 0.24936 0.0
O270 O 0.98852 0.65 0.27621 0.0
Co271 Co 0.9209 0.56266 0.27554 0.0
O272 O 0.95533 0.59821 0.29825 0.0
C273 C 0.88854 0.60717 0.25404 0.0
C274 C 0.98707 0.66149 0.21282 0.0
C275 C 0.98026 0.63444 0.29503 0.0
O276 O 0.92315 0.6327 0.24741 0.0
O277 O 0.88095 0.5757 0.26406 0.0
O278 O 0.0168 0.6192 0.24368 0.0
O279 O 0.95487 0.57737 0.25087 0.0
Co280 Co 0.42759 0.37837 0.24439 0.0
O281 O 0.43618 0.37929 0.21408 0.0
O282 O 0.37739 0.35185 0.22926 0.0
C283 C 0.47283 0.44286 0.2492 0.0
O284 O 0.4078 0.3726 0.27532 0.0
Co285 Co 0.49695 0.39636 0.27502 0.0
O286 O 0.45906 0.38993 0.29766 0.0
C287 C 0.45324 0.3185 0.25446 0.0
C288 C 0.39828 0.36048 0.21188 0.0
C289 C 0.42278 0.37815 0.29421 0.0
O290 O 0.42787 0.32712 0.247 0.0
O291 O 0.4845 0.34307 0.2644 0.0
O292 O 0.43719 0.43258 0.24329 0.0
O293 O 0.48058 0.41459 0.25063 0.0
Co294 Co 0.41124 0.3497 0.42716 0.0
O295 O 0.41988 0.35249 0.45746 0.0
O296 O 0.38387 0.37369 0.44121 0.0
C297 C 0.39754 0.2864 0.42458 0.0
O298 O 0.39572 0.35089 0.39589 0.0
Co299 Co 0.46535 0.33407 0.39748 0.0
O300 O 0.42897 0.33093 0.37473 0.0
C301 C 0.49454 0.41324 0.41604 0.0
C302 C 0.39775 0.36819 0.45895 0.0
C303 C 0.40407 0.34247 0.37737 0.0
O304 O 0.46007 0.40288 0.42344 0.0
O305 O 0.50326 0.38948 0.40672 0.0
O306 O 0.37006 0.29423 0.42974 0.0
O307 O 0.43235 0.31654 0.42245 0.0
Co308 Co 0.71086 0.09426 0.42641 0.0
O309 O 0.71235 0.10186 0.45683 0.0
O310 O 0.68606 0.04358 0.44109 0.0
C311 C 0.77484 0.14096 0.42133 0.0
O312 O 0.70497 0.07543 0.39514 0.0
Co313 Co 0.72471 0.16297 0.39679 0.0
O314 O 0.71966 0.12688 0.37343 0.0
C315 C 0.64915 0.11858 0.41919 0.0
C316 C 0.69438 0.0639 0.45868 0.0
C317 C 0.70987 0.09095 0.37639 0.0
O318 O 0.65876 0.09313 0.42524 0.0
O319 O 0.67262 0.15041 0.40935 0.0
O320 O 0.76545 0.10525 0.42665 0.0
O321 O 0.74592 0.14792 0.42054 0.0
Co322 Co 0.96622 0.64095 0.42892 0.0
O323 O 0.96042 0.63396 0.45935 0.0
O324 O 0.0174 0.67002 0.44293 0.0
C325 C 0.91547 0.65279 0.42556 0.0
O326 O 0.98319 0.65546 0.39745 0.0
Co327 Co 0.89835 0.58485 0.39906 0.0
O328 O 0.93024 0.62195 0.37625 0.0
C329 C 0.94694 0.557 0.42066 0.0
C330 C 0.99816 0.65667 0.46074 0.0
C331 C 0.96646 0.64738 0.3789 0.0
O332 O 0.97143 0.5923 0.42682 0.0
O333 O 0.91455 0.54749 0.41107 0.0
O334 O 0.95049 0.68119 0.43045 0.0
O335 O 0.9119 0.6183 0.42388 0.0
Co336 Co 0.37663 0.98033 0.76012 0.0
O337 O 0.3753 0.97442 0.79061 0.0
O338 O 0.35208 0.00784 0.77347 0.0
C339 C 0.44035 0.9953 0.75736 0.0
O340 O 0.3742 0.9932 0.72837 0.0
Co341 Co 0.39231 0.92471 0.73189 0.0
O342 O 0.39488 0.95929 0.70826 0.0
C343 C 0.31406 0.89532 0.75152 0.0
C344 C 0.35881 0.99587 0.79153 0.0
C345 C 0.38289 0.98399 0.71014 0.0
O346 O 0.32387 0.93033 0.75779 0.0
O347 O 0.33781 0.88653 0.74229 0.0
O348 O 0.43176 0.02257 0.76176 0.0
O349 O 0.41062 0.96 0.756 0.0
Co350 Co 0.08208 0.42804 0.76074 0.0
O351 O 0.08967 0.43546 0.79111 0.0
O352 O 0.05573 0.37736 0.77539 0.0
C353 C 0.06598 0.47576 0.75646 0.0
O354 O 0.06739 0.40928 0.72959 0.0
Co355 Co 0.13574 0.4966 0.73044 0.0
O356 O 0.10267 0.46062 0.70754 0.0
C357 C 0.16705 0.45086 0.75157 0.0
C358 C 0.06853 0.39757 0.79295 0.0
C359 C 0.07684 0.42468 0.71076 0.0
O360 O 0.1324 0.42578 0.75836 0.0
O361 O 0.17504 0.48249 0.74161 0.0
O362 O 0.03938 0.44037 0.76205 0.0
O363 O 0.10144 0.48184 0.75497 0.0
Co364 Co 0.63582 0.68887 0.76287 0.0
O365 O 0.62936 0.68926 0.79324 0.0
O366 O 0.68689 0.71204 0.77712 0.0
C367 C 0.58645 0.62573 0.75918 0.0
O368 O 0.6533 0.69232 0.73146 0.0
Co369 Co 0.56748 0.67567 0.73305 0.0
O370 O 0.6002 0.6718 0.71025 0.0
C371 C 0.61513 0.75259 0.75429 0.0
C372 C 0.66715 0.70522 0.79483 0.0
C373 C 0.63666 0.68358 0.71291 0.0
O374 O 0.6396 0.74211 0.76094 0.0
O375 O 0.58309 0.72945 0.74449 0.0
O376 O 0.62178 0.63335 0.76412 0.0
O377 O 0.58169 0.65597 0.75771 0.0
Co378 Co 0.64862 0.71342 0.57894 0.0
O379 O 0.64405 0.71467 0.54839 0.0
O380 O 0.6758 0.6892 0.56519 0.0
C381 C 0.66451 0.77707 0.58385 0.0
O382 O 0.66053 0.70773 0.61036 0.0
Co383 Co 0.59244 0.72635 0.60796 0.0
O384 O 0.6237 0.72283 0.63173 0.0
C385 C 0.56241 0.65161 0.58476 0.0
C386 C 0.66447 0.69698 0.54723 0.0
C387 C 0.64984 0.71294 0.629 0.0
O388 O 0.59787 0.66096 0.57966 0.0
O389 O 0.55363 0.67514 0.59424 0.0
O390 O 0.6915 0.76835 0.57894 0.0
O391 O 0.62887 0.74775 0.5843 0.0
Co392 Co 0.3533 0.96634 0.57578 0.0
O393 O 0.35309 0.95879 0.54544 0.0
O394 O 0.37878 0.01707 0.56112 0.0
C395 C 0.28925 0.91982 0.58014 0.0
O396 O 0.35807 0.98479 0.60701 0.0
Co397 Co 0.33655 0.89637 0.60561 0.0
O398 O 0.33912 0.93223 0.6286 0.0
C399 C 0.41384 0.94133 0.58451 0.0
C400 C 0.37078 0.99672 0.54355 0.0
C401 C 0.35109 0.96872 0.6257 0.0
O402 O 0.40519 0.9674 0.57828 0.0
O403 O 0.38924 0.90912 0.59373 0.0
O404 O 0.29867 0.95538 0.57452 0.0
O405 O 0.31807 0.91289 0.58144 0.0
Co406 Co 0.09555 0.41776 0.57767 0.0
O407 O 0.10294 0.42457 0.54723 0.0
O408 O 0.04489 0.39196 0.56306 0.0
C409 C 0.14279 0.40108 0.58226 0.0
O410 O 0.07629 0.40334 0.60875 0.0
Co411 Co 0.16367 0.47047 0.60842 0.0
O412 O 0.12759 0.43648 0.63108 0.0
C413 C 0.11944 0.50314 0.58686 0.0
C414 C 0.06498 0.40378 0.54542 0.0
C415 C 0.09143 0.41161 0.62765 0.0
O416 O 0.09422 0.46869 0.57982 0.0
O417 O 0.15056 0.51048 0.59717 0.0
O418 O 0.10738 0.37463 0.57659 0.0
O419 O 0.14914 0.43665 0.58369 0.0
Co420 Co 0.35434 0.42087 0.57653 0.0
O421 O 0.35105 0.42496 0.5461 0.0
O422 O 0.37829 0.394 0.56199 0.0
C423 C 0.29068 0.40386 0.58244 0.0
O424 O 0.36197 0.40999 0.60792 0.0
Co425 Co 0.34207 0.47739 0.60555 0.0
O426 O 0.3466 0.44675 0.62925 0.0
C427 C 0.4173 0.50701 0.58282 0.0
C428 C 0.36884 0.40477 0.54434 0.0
C429 C 0.35691 0.42094 0.62656 0.0
O430 O 0.40652 0.47184 0.57645 0.0
O431 O 0.39468 0.51595 0.59315 0.0
O432 O 0.29989 0.37728 0.57743 0.0
O433 O 0.3195 0.43983 0.58243 0.0
Co434 Co 0.64696 0.96998 0.57685 0.0
O435 O 0.64041 0.96208 0.54646 0.0
O436 O 0.67221 0.02051 0.56201 0.0
C437 C 0.66477 0.9237 0.58182 0.0
O438 O 0.66027 0.98928 0.60798 0.0
Co439 Co 0.59453 0.90089 0.60735 0.0
O440 O 0.62796 0.93731 0.63005 0.0
C441 C 0.56125 0.9445 0.58551 0.0
C442 C 0.66056 1.00002 0.54447 0.0
C443 C 0.65187 0.9738 0.62682 0.0
O444 O 0.59564 0.97039 0.57875 0.0
O445 O 0.55431 0.91326 0.5956 0.0
O446 O 0.69083 0.95924 0.57613 0.0
O447 O 0.62899 0.91667 0.58295 0.0
Co448 Co 0.09504 0.7102 0.57798 0.0
O449 O 0.10176 0.71016 0.54755 0.0
O450 O 0.04399 0.68519 0.56372 0.0
C451 C 0.14242 0.77417 0.5821 0.0
O452 O 0.07711 0.70609 0.60927 0.0
Co453 Co 0.16467 0.72556 0.6075 0.0
O454 O 0.12917 0.72238 0.63079 0.0
C455 C 0.11889 0.64854 0.58643 0.0
C456 C 0.0638 0.69275 0.546 0.0
C457 C 0.09311 0.71215 0.62793 0.0
O458 O 0.09326 0.65781 0.58021 0.0
O459 O 0.15098 0.67249 0.59592 0.0
O460 O 0.10679 0.76508 0.57684 0.0
O461 O 0.14886 0.74497 0.58334 0.0
Co462 Co 0.08426 0.68737 0.76149 0.0
O463 O 0.0917 0.68741 0.79184 0.0
O464 O 0.05799 0.71185 0.77611 0.0
C465 C 0.06824 0.62356 0.75726 0.0
O466 O 0.06981 0.69142 0.73033 0.0
Co467 Co 0.13842 0.67249 0.73153 0.0
O468 O 0.10513 0.6749 0.70855 0.0
C469 C 0.16917 0.74976 0.7524 0.0
C470 C 0.0707 0.70433 0.79368 0.0
C471 C 0.07939 0.68523 0.71159 0.0
O472 O 0.13434 0.74006 0.75896 0.0
O473 O 0.17748 0.72591 0.74288 0.0
O474 O 0.04159 0.63234 0.76279 0.0
O475 O 0.10368 0.65294 0.75584 0.0
Co476 Co 0.37565 0.43031 0.7612 0.0
O477 O 0.3735 0.43503 0.79163 0.0
O478 O 0.35166 0.37842 0.77464 0.0
C479 C 0.43905 0.47956 0.75875 0.0
O480 O 0.37429 0.41525 0.72953 0.0
Co481 Co 0.39106 0.50194 0.73299 0.0
O482 O 0.39453 0.47002 0.70958 0.0
C483 C 0.3128 0.45211 0.75242 0.0
C484 C 0.35772 0.39716 0.79266 0.0
C485 C 0.38317 0.43346 0.71139 0.0
O486 O 0.32264 0.42673 0.75832 0.0
O487 O 0.33661 0.48515 0.74368 0.0
O488 O 0.43092 0.44395 0.76339 0.0
O489 O 0.40898 0.48451 0.75702 0.0
Co490 Co 0.6368 0.9819 0.76065 0.0
O491 O 0.63163 0.97454 0.79105 0.0
O492 O 0.68845 0.00951 0.77423 0.0
C493 C 0.58744 0.99589 0.75788 0.0
O494 O 0.6526 0.99615 0.72912 0.0
Co495 Co 0.56629 0.92591 0.73183 0.0
O496 O 0.59885 0.96123 0.70857 0.0
C497 C 0.61421 0.89699 0.75288 0.0
C498 C 0.66952 0.99631 0.79215 0.0
C499 C 0.63518 0.98683 0.71077 0.0
O500 O 0.64032 0.93244 0.75791 0.0
O501 O 0.58103 0.8878 0.74436 0.0
O502 O 0.62286 0.02337 0.76284 0.0
O503 O 0.58275 0.96097 0.75604 0.0
C504 C 0.1762 0.35222 0.08057 0.0
C505 C 0.14503 0.32426 0.09357 0.0
C506 C 0.18966 0.30416 0.10931 0.0
C507 C 0.21849 0.32707 0.09387 0.0
N508 N 0.24151 0.37523 0.0658 0.0
N509 N 0.12244 0.27553 0.12169 0.0
C510 C 0.21264 0.35225 0.07997 0.0
C511 C 0.15192 0.30082 0.10836 0.0
N512 N 0.17103 0.37886 0.06899 0.0
N513 N 0.19929 0.28744 0.12568 0.0
H514 H 0.09634 0.27604 0.12391 0.0
H515 H 0.12331 0.25317 0.13021 0.0
H516 H 0.22728 0.29084 0.12745 0.0
H517 H 0.18119 0.27371 0.13873 0.0
H518 H 0.19343 0.40227 0.06063 0.0
H519 H 0.14472 0.3794 0.06896 0.0
H520 H 0.23775 0.39049 0.05329 0.0
H521 H 0.26939 0.37808 0.06624 0.0
C522 C 0.71737 0.89098 0.1089 0.0
C523 C 0.71993 0.90926 0.08898 0.0
C524 C 0.71717 0.85281 0.07037 0.0
C525 C 0.72079 0.83771 0.09019 0.0
N526 N 0.72397 0.84117 0.12852 0.0
N527 N 0.71993 0.90746 0.05073 0.0
C528 C 0.7201 0.85608 0.10955 0.0
C529 C 0.71883 0.88992 0.06969 0.0
N530 N 0.71249 0.90709 0.12719 0.0
N531 N 0.7113 0.8311 0.05233 0.0
H532 H 0.71734 0.93258 0.04991 0.0
H533 H 0.72422 0.89791 0.03603 0.0
H534 H 0.7091 0.80351 0.05275 0.0
H535 H 0.70528 0.83847 0.03743 0.0
H536 H 0.70622 0.89314 0.14194 0.0
H537 H 0.71159 0.93325 0.12747 0.0
H538 H 0.72903 0.8558 0.14302 0.0
H539 H 0.72398 0.81462 0.12971 0.0
C540 C 0.15284 0.87099 0.1096 0.0
C541 C 0.14476 0.84125 0.0942 0.0
C542 C 0.21081 0.88164 0.07888 0.0
C543 C 0.21751 0.91235 0.09324 0.0
N544 N 0.20131 0.93178 0.12642 0.0
N545 N 0.16891 0.81335 0.06808 0.0
C546 C 0.19033 0.90572 0.10982 0.0
C547 C 0.17478 0.84494 0.0801 0.0
N548 N 0.12465 0.86594 0.12412 0.0
N549 N 0.23846 0.88808 0.06375 0.0
H550 H 0.14304 0.78615 0.0688 0.0
H551 H 0.19051 0.81281 0.05868 0.0
H552 H 0.26613 0.91343 0.06363 0.0
H553 H 0.23384 0.86918 0.05105 0.0
H554 H 0.12607 0.88866 0.13341 0.0
H555 H 0.09904 0.83902 0.12662 0.0
H556 H 0.1846 0.92696 0.14013 0.0
H557 H 0.22921 0.95668 0.12755 0.0
C558 C 0.33693 0.16718 0.93523 0.0
C559 C 0.33906 0.15026 0.91566 0.0
C560 C 0.34123 0.20558 0.89606 0.0
C561 C 0.33798 0.22186 0.91566 0.0
N562 N 0.34198 0.22386 0.95382 0.0
N563 N 0.35183 0.15697 0.87783 0.0
C564 C 0.33864 0.20432 0.93525 0.0
C565 C 0.34427 0.17081 0.8962 0.0
N566 N 0.33276 0.14735 0.95379 0.0
N567 N 0.33919 0.2221 0.87725 0.0
H568 H 0.35264 0.1308 0.87701 0.0
H569 H 0.36038 0.17283 0.86365 0.0
H570 H 0.33843 0.24829 0.8764 0.0
H571 H 0.336 0.20887 0.86244 0.0
H572 H 0.3258 0.15497 0.96837 0.0
H573 H 0.33538 0.12223 0.95434 0.0
H574 H 0.34608 0.21478 0.9687 0.0
H575 H 0.34418 0.25144 0.95402 0.0
C576 C 0.89537 0.20701 0.89631 0.0
C577 C 0.91467 0.22245 0.91605 0.0
C578 C 0.85887 0.16892 0.93506 0.0
C579 C 0.84256 0.15052 0.91531 0.0
N580 N 0.84492 0.15079 0.87693 0.0
N581 N 0.91504 0.21961 0.95429 0.0
C582 C 0.86034 0.16954 0.89585 0.0
C583 C 0.89629 0.20394 0.93547 0.0
N584 N 0.91064 0.2281 0.87799 0.0
N585 N 0.83793 0.15325 0.95332 0.0
H586 H 0.94067 0.24689 0.95505 0.0
H587 H 0.90611 0.20535 0.96892 0.0
H588 H 0.81011 0.12823 0.95313 0.0
H589 H 0.84615 0.16658 0.96821 0.0
H590 H 0.89584 0.22079 0.86348 0.0
H591 H 0.93698 0.25488 0.87755 0.0
H592 H 0.85913 0.16047 0.86233 0.0
H593 H 0.81862 0.12403 0.87585 0.0
C594 C 0.85139 0.70585 0.92624 0.0
C595 C 0.84671 0.73192 0.91244 0.0
C596 C 0.91171 0.75382 0.89674 0.0
C597 C 0.91852 0.73152 0.9123 0.0
N598 N 0.89502 0.68419 0.94084 0.0
N599 N 0.8658 0.77014 0.88012 0.0
C600 C 0.88808 0.7063 0.92652 0.0
C601 C 0.87509 0.75303 0.89643 0.0
N602 N 0.82046 0.68023 0.93866 0.0
N603 N 0.94053 0.77605 0.88229 0.0
H604 H 0.83844 0.76832 0.87875 0.0
H605 H 0.88334 0.7829 0.86677 0.0
H606 H 0.96542 0.77335 0.87996 0.0
H607 H 0.94048 0.79786 0.87285 0.0
H608 H 0.82046 0.65848 0.94816 0.0
H609 H 0.79315 0.67872 0.93828 0.0
H610 H 0.8763 0.66848 0.95333 0.0
H611 H 0.92061 0.6823 0.94052 0.0
C612 C 0.81378 0.63198 0.44214 0.0
C613 C 0.80717 0.65572 0.42745 0.0
C614 C 0.87407 0.68191 0.41314 0.0
C615 C 0.88002 0.65714 0.42731 0.0
N616 N 0.86085 0.61813 0.45939 0.0
N617 N 0.83338 0.70967 0.40244 0.0
C618 C 0.85131 0.63477 0.44295 0.0
C619 C 0.83816 0.68285 0.41408 0.0
N620 N 0.78431 0.60698 0.45556 0.0
N621 N 0.90227 0.70351 0.39836 0.0
H622 H 0.8074 0.71084 0.40257 0.0
H623 H 0.85591 0.7327 0.39393 0.0
H624 H 0.92969 0.7053 0.39831 0.0
H625 H 0.89814 0.71825 0.38572 0.0
H626 H 0.78498 0.58447 0.46404 0.0
H627 H 0.75836 0.60777 0.45785 0.0
H628 H 0.84291 0.60497 0.47257 0.0
H629 H 0.88863 0.621 0.46109 0.0
C630 C 0.41228 0.23894 0.44299 0.0
C631 C 0.39211 0.24627 0.42649 0.0
C632 C 0.36918 0.18005 0.41201 0.0
C633 C 0.39512 0.17581 0.42614 0.0
N634 N 0.43904 0.19929 0.45645 0.0
N635 N 0.34914 0.22394 0.39609 0.0
C636 C 0.41587 0.20466 0.44209 0.0
C637 C 0.3694 0.21658 0.41139 0.0
N638 N 0.42636 0.26395 0.46006 0.0
N639 N 0.34427 0.14913 0.39937 0.0
H640 H 0.34684 0.24933 0.39625 0.0
H641 H 0.33588 0.2059 0.38295 0.0
H642 H 0.34333 0.12206 0.39962 0.0
H643 H 0.32236 0.14897 0.38993 0.0
H644 H 0.43791 0.25847 0.47371 0.0
H645 H 0.42287 0.28855 0.46158 0.0
H646 H 0.45962 0.22159 0.4662 0.0
H647 H 0.43857 0.17261 0.4583 0.0
C648 C 0.8716 0.22594 0.44141 0.0
C649 C 0.88908 0.24529 0.42196 0.0
C650 C 0.83436 0.19274 0.40186 0.0
C651 C 0.8163 0.17386 0.42128 0.0
N652 N 0.82108 0.1674 0.45923 0.0
N653 N 0.89245 0.24348 0.38385 0.0
C654 C 0.83617 0.18873 0.44096 0.0
C655 C 0.87201 0.22751 0.40221 0.0
N656 N 0.88775 0.24414 0.46035 0.0
N657 N 0.81517 0.17755 0.38309 0.0
H658 H 0.92035 0.26838 0.38395 0.0
H659 H 0.88373 0.23054 0.36889 0.0
H660 H 0.78957 0.15028 0.3823 0.0
H661 H 0.82378 0.19212 0.36853 0.0
H662 H 0.87387 0.23436 0.47502 0.0
H663 H 0.91439 0.27058 0.46141 0.0
H664 H 0.83626 0.17426 0.47363 0.0
H665 H 0.79445 0.14088 0.4598 0.0
C666 C 0.0018 0.49802 0.2686 0.0
C667 C 1.00022 0.47929 0.249 0.0
C668 C 0.99748 0.53219 0.22942 0.0
C669 C 0.99836 0.55049 0.2491 0.0
N670 N 0.00901 0.55589 0.28689 0.0
N671 N 0.00302 0.481 0.21063 0.0
C672 C 0.00285 0.53487 0.26855 0.0
C673 C 1.00034 0.49734 0.22936 0.0
N674 N 0.00155 0.48008 0.28728 0.0
N675 N 0.992 0.54714 0.21086 0.0
H676 H 0.0027 0.45429 0.20988 0.0
H677 H 0.00804 0.49487 0.1959 0.0
H678 H 0.9917 0.57357 0.21012 0.0
H679 H 0.98584 0.53264 0.19628 0.0
H680 H 0.99773 0.48917 0.30222 0.0
H681 H 0.00391 0.45481 0.28766 0.0
H682 H 0.01606 0.54843 0.30148 0.0
H683 H 0.01015 0.58299 0.28703 0.0
C684 C 0.56019 0.53824 0.23038 0.0
C685 C 0.5778 0.5557 0.25018 0.0
C686 C 0.52191 0.50278 0.26937 0.0
C687 C 0.5051 0.48449 0.24964 0.0
N688 N 0.50289 0.48845 0.2114 0.0
N689 N 0.57266 0.56003 0.28807 0.0
C690 C 0.52243 0.50361 0.23015 0.0
C691 C 0.55767 0.53961 0.26957 0.0
N692 N 0.58057 0.55351 0.21186 0.0
N693 N 0.5038 0.48441 0.28788 0.0
H694 H 0.59857 0.58717 0.28837 0.0
H695 H 0.55835 0.55197 0.30271 0.0
H696 H 0.4759 0.45949 0.28799 0.0
H697 H 0.51632 0.49309 0.30293 0.0
H698 H 0.57194 0.53949 0.19716 0.0
H699 H 0.60763 0.57952 0.21128 0.0
H700 H 0.51165 0.50313 0.19687 0.0
H701 H 0.47596 0.46234 0.2105 0.0
C702 C 0.54514 0.08892 0.22818 0.0
C703 C 0.51637 0.0681 0.24415 0.0
C704 C 0.55633 0.04061 0.25805 0.0
C705 C 0.58656 0.06456 0.24346 0.0
N706 N 0.60522 0.10096 0.21055 0.0
N707 N 0.49284 0.02317 0.2738 0.0
C708 C 0.57971 0.08585 0.22738 0.0
C709 C 0.52117 0.04307 0.25874 0.0
N710 N 0.53959 0.11206 0.21387 0.0
N711 N 0.56112 0.01508 0.27085 0.0
H712 H 0.46642 0.02352 0.27415 0.0
H713 H 0.49561 0.00742 0.28636 0.0
H714 H 0.58606 0.01208 0.27008 0.0
H715 H 0.53968 0.99483 0.28107 0.0
H716 H 0.56172 0.13285 0.20413 0.0
H717 H 0.51293 0.11158 0.21209 0.0
H718 H 0.60029 0.1134 0.1971 0.0
H719 H 0.62984 0.09756 0.2089 0.0
C720 C 0.51146 0.02703 0.74555 0.0
C721 C 0.48091 0.00185 0.75968 0.0
C722 C 0.52323 0.97876 0.77512 0.0
C723 C 0.55284 0.0016 0.75991 0.0
N724 N 0.57974 0.05468 0.73439 0.0
N725 N 0.46226 0.96477 0.79238 0.0
C726 C 0.54848 0.02822 0.74634 0.0
C727 C 0.4881 0.98084 0.77577 0.0
N728 N 0.50459 0.04888 0.73104 0.0
N729 N 0.52876 0.95517 0.78912 0.0
H730 H 0.43722 0.96747 0.79392 0.0
H731 H 0.46743 0.95242 0.8058 0.0
H732 H 0.55591 0.95686 0.79143 0.0
H733 H 0.5062 0.93312 0.79812 0.0
H734 H 0.52332 0.06406 0.71843 0.0
H735 H 0.47913 0.05101 0.73137 0.0
H736 H 0.57984 0.07708 0.72543 0.0
H737 H 0.60705 0.05618 0.7346 0.0
C738 C 0.05714 0.52689 0.73719 0.0
C739 C 0.05844 0.50932 0.75669 0.0
C740 C 0.05863 0.56341 0.77669 0.0
C741 C 0.06052 0.58241 0.7571 0.0
N742 N 0.05289 0.57945 0.7191 0.0
N743 N 0.05955 0.50918 0.79507 0.0
C744 C 0.05725 0.56327 0.73743 0.0
C745 C 0.05812 0.52674 0.7765 0.0
N746 N 0.05672 0.50899 0.71846 0.0
N747 N 0.05722 0.58052 0.79543 0.0
H748 H 0.05754 0.48163 0.79558 0.0
H749 H 0.0639 0.52196 0.81006 0.0
H750 H 0.05929 0.60807 0.7962 0.0
H751 H 0.05196 0.567 0.81025 0.0
H752 H 0.06045 0.52172 0.70349 0.0
H753 H 0.05326 0.4809 0.71804 0.0
H754 H 0.04744 0.56623 0.70418 0.0
H755 H 0.05178 0.60541 0.71916 0.0
C756 C 0.51012 0.51849 0.74707 0.0
C757 C 0.47941 0.5139 0.7609 0.0
C758 C 0.52381 0.57799 0.77727 0.0
C759 C 0.55183 0.58547 0.76102 0.0
N760 N 0.5738 0.56296 0.73121 0.0
N761 N 0.4575 0.53736 0.7906 0.0
C762 C 0.54584 0.55549 0.7463 0.0
C763 C 0.48647 0.54309 0.77646 0.0
N764 N 0.50525 0.48744 0.73488 0.0
N765 N 0.53381 0.60334 0.79414 0.0
H766 H 0.43188 0.51028 0.7927 0.0
H767 H 0.45829 0.55972 0.79995 0.0
H768 H 0.56152 0.62833 0.79573 0.0
H769 H 0.51644 0.59781 0.80766 0.0
H770 H 0.52753 0.48758 0.72578 0.0
H771 H 0.4796 0.46003 0.73519 0.0
H772 H 0.56962 0.54467 0.71826 0.0
H773 H 0.60113 0.58868 0.7313 0.0
C774 C 0.67375 0.83606 0.56344 0.0
C775 C 0.67212 0.81819 0.58339 0.0
C776 C 0.67712 0.87574 0.60192 0.0
C777 C 0.6732 0.89081 0.58215 0.0
N778 N 0.66672 0.88567 0.54395 0.0
N779 N 0.67191 0.82015 0.62168 0.0
C780 C 0.67188 0.87141 0.56283 0.0
C781 C 0.67404 0.83798 0.60267 0.0
N782 N 0.6768 0.81906 0.54506 0.0
N783 N 0.68447 0.89802 0.61987 0.0
H784 H 0.67198 0.79368 0.62262 0.0
H785 H 0.66839 0.83045 0.63632 0.0
H786 H 0.68745 0.92595 0.61943 0.0
H787 H 0.69107 0.89069 0.63463 0.0
H788 H 0.68288 0.83279 0.53025 0.0
H789 H 0.67599 0.7921 0.54476 0.0
H790 H 0.66024 0.87036 0.52961 0.0
H791 H 0.6668 0.91225 0.54274 0.0
C792 C 0.19341 0.83521 0.60084 0.0
C793 C 0.17575 0.8153 0.58157 0.0
C794 C 0.22999 0.86759 0.56106 0.0
C795 C 0.24797 0.88701 0.58039 0.0
N796 N 0.24345 0.89492 0.61801 0.0
N797 N 0.17229 0.81597 0.54323 0.0
C798 C 0.22853 0.87251 0.60011 0.0
C799 C 0.19238 0.83278 0.56163 0.0
N800 N 0.17696 0.81793 0.61984 0.0
N801 N 0.2498 0.88136 0.54224 0.0
H802 H 0.14549 0.78965 0.54293 0.0
H803 H 0.18052 0.82945 0.52837 0.0
H804 H 0.27667 0.90752 0.54107 0.0
H805 H 0.24089 0.86595 0.52793 0.0
H806 H 0.19053 0.82812 0.63455 0.0
H807 H 0.14987 0.79212 0.6207 0.0
H808 H 0.22928 0.88805 0.63271 0.0
H809 H 0.26879 0.92252 0.6176 0.0
C810 C 0.23109 0.39527 0.60223 0.0
C811 C 0.24918 0.39513 0.58269 0.0
C812 C 0.19366 0.39196 0.56284 0.0
C813 C 0.17618 0.3933 0.58241 0.0
N814 N 0.17276 0.38691 0.62046 0.0
N815 N 0.24415 0.3843 0.5447 0.0
C816 C 0.1933 0.39211 0.60205 0.0
C817 C 0.22918 0.39035 0.56309 0.0
N818 N 0.25037 0.39889 0.62092 0.0
N819 N 0.17739 0.39433 0.54402 0.0
H820 H 0.27067 0.38417 0.54405 0.0
H821 H 0.22892 0.37626 0.53032 0.0
H822 H 0.15059 0.39386 0.5431 0.0
H823 H 0.19131 0.39889 0.52932 0.0
H824 H 0.24162 0.40426 0.6356 0.0
H825 H 0.27618 0.39752 0.62155 0.0
H826 H 0.18159 0.38244 0.63533 0.0
H827 H 0.14468 0.38349 0.62044 0.0
C828 C 0.99759 0.29873 0.16513 0.0
C829 C 0.01783 0.32862 0.14943 0.0
C830 C 0.02666 0.37927 0.17567 0.0
C831 C 0.00657 0.34944 0.19125 0.0
N832 N 0.97642 0.28132 0.20187 0.0
N833 N 0.05991 0.39775 0.14149 0.0
C834 C 0.99322 0.30937 0.18628 0.0
C835 C 0.0343 0.36903 0.15511 0.0
N836 N 0.98123 0.25985 0.15971 0.0
N837 N 0.03915 0.41773 0.1807 0.0
H838 H 0.06811 0.39176 0.12679 0.0
H839 H 0.07623 0.42749 0.14546 0.0
H840 H 0.03916 0.42712 0.19623 0.0
H841 H 0.0483 0.44016 0.16945 0.0
H842 H 0.96079 0.23662 0.16902 0.0
H843 H 0.98667 0.25028 0.14539 0.0
H844 H 0.97121 0.25262 0.2004 0.0
H845 H 0.96937 0.28701 0.21696 0.0
C846 C 0.68504 0.69288 0.15798 0.0
C847 C 0.72381 0.70978 0.14965 0.0
C848 C 0.74833 0.70259 0.18452 0.0
C849 C 0.70918 0.68346 0.19247 0.0
N850 N 0.63961 0.65767 0.1868 0.0
N851 N 0.79156 0.72638 0.15365 0.0
C852 C 0.67734 0.67772 0.17915 0.0
C853 C 0.7553 0.7136 0.1626 0.0
N854 N 0.65597 0.69307 0.14597 0.0
N855 N 0.77883 0.71028 0.19796 0.0
H856 H 0.7975 0.73418 0.13763 0.0
H857 H 0.81495 0.72632 0.16146 0.0
H858 H 0.77468 0.7013 0.21384 0.0
H859 H 0.80841 0.72778 0.19392 0.0
H860 H 0.62824 0.6856 0.15184 0.0
H861 H 0.66027 0.70316 0.13029 0.0
H862 H 0.61466 0.64762 0.17728 0.0
H863 H 0.63305 0.64955 0.20274 0.0
C864 C 0.34357 0.01458 0.16148 0.0
C865 C 0.35525 0.04422 0.14555 0.0
C866 C 0.39759 0.09464 0.1716 0.0
C867 C 0.38652 0.06485 0.18752 0.0
N868 N 0.35714 0.99556 0.19579 0.0
N869 N 0.39677 0.11168 0.13448 0.0
C870 C 0.36148 0.02457 0.18201 0.0
C871 C 0.38345 0.08394 0.15031 0.0
N872 N 0.31547 0.97654 0.15694 0.0
N873 N 0.42037 0.13353 0.17694 0.0
H874 H 0.38488 0.10619 0.1192 0.0
H875 H 0.42128 0.13973 0.136 0.0
H876 H 0.43385 0.14314 0.19165 0.0
H877 H 0.42435 0.15676 0.16721 0.0
H878 H 0.3013 0.95496 0.16855 0.0
H879 H 0.30489 0.96673 0.14161 0.0
H880 H 0.34292 0.96575 0.19184 0.0
H881 H 0.37118 0.00124 0.21051 0.0
C882 C 0.37387 0.03835 0.84753 0.0
C883 C 0.3347 0.0191 0.85539 0.0
C884 C 0.31046 0.98673 0.82049 0.0
C885 C 0.34972 0.00669 0.81263 0.0
N886 N 0.41919 0.05257 0.81902 0.0
N887 N 0.26498 0.97693 0.84938 0.0
C888 C 0.38126 0.03252 0.82615 0.0
C889 C 0.30275 0.99392 0.84182 0.0
N890 N 0.40455 0.06349 0.86025 0.0
N891 N 0.28092 0.95937 0.8079 0.0
H892 H 0.25839 0.9785 0.86531 0.0
H893 H 0.23997 0.96236 0.83989 0.0
H894 H 0.2854 0.95412 0.79214 0.0
H895 H 0.25239 0.94033 0.81318 0.0
H896 H 0.43375 0.07821 0.85497 0.0
H897 H 0.40096 0.06979 0.87595 0.0
H898 H 0.42777 0.05117 0.80346 0.0
H899 H 0.42777 0.05117 0.80346 0.0
C900 C 0.02109 0.36587 0.82335 0.0
C901 C 0.05901 0.37914 0.81445 0.0
C902 C 0.08268 0.36901 0.84888 0.0
C903 C 0.04408 0.35313 0.85734 0.0
N904 N 0.9756 0.33339 0.8526 0.0
N905 N 0.12431 0.38823 0.81736 0.0
C906 C 0.013 0.35063 0.84452 0.0
C907 C 0.08944 0.37946 0.82689 0.0
N908 N 0.99333 0.36939 0.81186 0.0
N909 N 0.11288 0.37418 0.86191 0.0
H910 H 0.12965 0.39492 0.8012 0.0
H911 H 0.14659 0.38558 0.82484 0.0
H912 H 0.10879 0.36588 0.8779 0.0
H913 H 0.14241 0.38928 0.85742 0.0
H914 H 0.96674 0.36469 0.81817 0.0
H915 H 0.99783 0.37951 0.79618 0.0
H916 H 0.95068 0.32576 0.84341 0.0
H917 H 0.96918 0.32507 0.86852 0.0
C918 C 0.67835 0.68235 0.83015 0.0
C919 C 0.68578 0.71403 0.81625 0.0
C920 C 0.7165 0.76098 0.84567 0.0
C921 C 0.71205 0.72978 0.85907 0.0
N922 N 0.6939 0.66154 0.8634 0.0
N923 N 0.71562 0.78384 0.80982 0.0
C924 C 0.69411 0.69058 0.85119 0.0
C925 C 0.70618 0.7535 0.82371 0.0
N926 N 0.65599 0.64428 0.82326 0.0
N927 N 0.72898 0.79746 0.85426 0.0
H928 H 0.70733 0.77943 0.79383 0.0
H929 H 0.7341 0.81339 0.81367 0.0
H930 H 0.73523 0.80338 0.87043 0.0
H931 H 0.72952 0.82075 0.84598 0.0
H932 H 0.64513 0.61993 0.83332 0.0
H933 H 0.6464 0.63694 0.80756 0.0
H934 H 0.68566 0.63349 0.85769 0.0
H935 H 0.70468 0.66619 0.87894 0.0
C936 C 0.07777 0.7591 0.84517 0.0
C937 C 0.04946 0.72786 0.85801 0.0
C938 C 0.03448 0.68135 0.82842 0.0
C939 C 0.06105 0.71304 0.81519 0.0
N940 N 0.10512 0.78252 0.80987 0.0
N941 N 0.99717 0.66042 0.86141 0.0
C942 C 0.08177 0.75211 0.82325 0.0
C943 C 0.02702 0.68919 0.84957 0.0
N944 N 0.10183 0.79513 0.85423 0.0
N945 N 0.0164 0.64363 0.82072 0.0
H946 H 0.99124 0.66478 0.87706 0.0
H947 H 0.97657 0.63294 0.85541 0.0
H948 H 0.01819 0.63705 0.80481 0.0
H949 H 1.00103 0.61868 0.8302 0.0
H950 H 0.12564 0.81826 0.8465 0.0
H951 H 0.10005 0.80102 0.87028 0.0
H952 H 0.11792 0.81215 0.81401 0.0
H953 H 0.10964 0.77829 0.79395 0.0
C954 C 0.38131 0.38583 0.82771 0.0
C955 C 0.34935 0.3775 0.81382 0.0
C956 C 0.30249 0.34313 0.84289 0.0
C957 C 0.3343 0.34945 0.85638 0.0
N958 N 0.40329 0.37096 0.86078 0.0
N959 N 0.27949 0.34459 0.80712 0.0
C960 C 0.37358 0.36942 0.8486 0.0
C961 C 0.30989 0.35481 0.82108 0.0
N962 N 0.41922 0.40973 0.82096 0.0
N963 N 0.26539 0.32756 0.85126 0.0
H964 H 0.2838 0.35396 0.7913 0.0
H965 H 0.25017 0.32461 0.81067 0.0
H966 H 0.25902 0.3194 0.86721 0.0
H967 H 0.2415 0.32576 0.84302 0.0
H968 H 0.44352 0.42141 0.83108 0.0
H969 H 0.42641 0.41966 0.80531 0.0
H970 H 0.43173 0.38087 0.85515 0.0
H971 H 0.39895 0.35949 0.87616 0.0
C972 C 0.71772 0.05112 0.84359 0.0
C973 C 0.71604 0.01992 0.85598 0.0
C974 C 0.69021 0.97542 0.82515 0.0
C975 C 0.68926 0.00581 0.81326 0.0
N976 N 0.69733 0.07096 0.81159 0.0
N977 N 0.6979 0.95167 0.85962 0.0
C978 C 0.70198 0.04334 0.82255 0.0
C979 C 0.7014 0.9818 0.84705 0.0
N980 N 0.73479 0.08836 0.85191 0.0
N981 N 0.68146 0.94086 0.81522 0.0
H982 H 0.70674 0.95561 0.87553 0.0
H983 H 0.68394 0.92229 0.85487 0.0
H984 H 0.67347 0.93547 0.7992 0.0
H985 H 0.68504 0.91874 0.82219 0.0
H986 H 0.74153 0.11334 0.84297 0.0
H987 H 0.74428 0.09477 0.86767 0.0
H988 H 0.70133 0.09701 0.81833 0.0
H989 H 0.68694 0.06678 0.79598 0.0
C990 C 0.69135 0.01714 0.15642 0.0
C991 C 0.72742 0.04356 0.14622 0.0
C992 C 0.75237 0.08077 0.17961 0.0
C993 C 0.7153 0.05616 0.18934 0.0
N994 N 0.64773 0.00385 0.18662 0.0
N995 N 0.78985 0.10386 0.14673 0.0
C996 C 0.68428 0.02512 0.17762 0.0
C997 C 0.75733 0.07631 0.15747 0.0
N998 N 0.66432 0.98376 0.14604 0.0
N999 N 0.78293 0.10809 0.19166 0.0
H1000 H 0.79355 0.10189 0.13041 0.0
H1001 H 0.8113 0.1303 0.15339 0.0
H1002 H 0.78009 0.112 0.20787 0.0
H1003 H 0.81176 0.12456 0.18614 0.0
H1004 H 0.63961 0.96091 0.15338 0.0
H1005 H 0.6678 0.97766 0.13027 0.0
H1006 H 0.62264 0.98426 0.17815 0.0
H1007 H 0.64195 0.00743 0.20243 0.0
C1008 C 0.04457 0.71534 0.16285 0.0
C1009 C 0.01315 0.70791 0.14874 0.0
C1010 C 0.96542 0.67479 0.17763 0.0
C1011 C 0.99657 0.67996 0.19131 0.0
N1012 N 0.06501 0.69941 0.19612 0.0
N1013 N 0.94345 0.67672 0.14169 0.0
C1014 C 0.036 0.6989 0.18374 0.0
C1015 C 0.97347 0.68622 0.15581 0.0
N1016 N 0.08276 0.73832 0.15628 0.0
N1017 N 0.9284 0.66065 0.18584 0.0
H1018 H 0.94819 0.68602 0.12586 0.0
H1019 H 0.91393 0.65734 0.14515 0.0
H1020 H 0.9218 0.65316 0.20185 0.0
H1021 H 0.90502 0.65964 0.17742 0.0
H1022 H 0.10683 0.74936 0.16654 0.0
H1023 H 0.09046 0.74812 0.14064 0.0
H1024 H 0.09337 0.70848 0.19065 0.0
H1025 H 0.06007 0.68792 0.2115 0.0
C1026 C 0.36751 0.37235 0.15587 0.0
C1027 C 0.35544 0.33449 0.14719 0.0
C1028 C 0.36634 0.31216 0.18188 0.0
C1029 C 0.38054 0.35064 0.19021 0.0
N1030 N 0.39833 0.41857 0.18502 0.0
N1031 N 0.34877 0.2702 0.15051 0.0
C1032 C 0.3823 0.38111 0.17712 0.0
C1033 C 0.35627 0.30485 0.15985 0.0
N1034 N 0.36308 0.39934 0.14414 0.0
N1035 N 0.36223 0.28257 0.1951 0.0
H1036 H 0.34239 0.26455 0.13433 0.0
H1037 H 0.35218 0.24851 0.15816 0.0
H1038 H 0.37013 0.28714 0.21115 0.0
H1039 H 0.34847 0.25301 0.1907 0.0
H1040 H 0.36669 0.42564 0.15031 0.0
H1041 H 0.35334 0.39446 0.1284 0.0
H1042 H 0.40545 0.4432 0.17567 0.0
H1043 H 0.40629 0.42543 0.20096 0.0
C1044 C 0.6573 0.64557 0.52067 0.0
C1045 C 0.6735 0.68592 0.52612 0.0
C1046 C 0.70231 0.70535 0.4902 0.0
C1047 C 0.683 0.66499 0.48405 0.0
N1048 N 0.64134 0.59627 0.49328 0.0
N1049 N 0.71123 0.75457 0.51653 0.0
C1050 C 0.66067 0.63501 0.49934 0.0
C1051 C 0.69575 0.71585 0.51094 0.0
N1052 N 0.6387 0.61721 0.53593 0.0
N1053 N 0.72928 0.73351 0.47682 0.0
H1054 H 0.71189 0.76359 0.53221 0.0
H1055 H 0.72237 0.77769 0.50562 0.0
H1056 H 0.73633 0.72715 0.46189 0.0
H1057 H 0.74752 0.76286 0.4811 0.0
H1058 H 0.63097 0.58781 0.53401 0.0
H1059 H 0.63281 0.62321 0.55123 0.0
H1060 H 0.61997 0.57344 0.50243 0.0
H1061 H 0.64502 0.58667 0.4785 0.0
C1062 C 0.42652 0.04597 0.49248 0.0
C1063 C 0.39523 0.04186 0.47925 0.0
C1064 C 0.34803 0.00849 0.50832 0.0
C1065 C 0.37968 0.01495 0.522 0.0
N1066 N 0.44932 0.04272 0.52806 0.0
N1067 N 0.32713 0.02411 0.4751 0.0
C1068 C 0.41906 0.03471 0.51436 0.0
C1069 C 0.35614 0.02411 0.48724 0.0
N1070 N 0.46311 0.05934 0.48382 0.0
N1071 N 0.31006 0.98732 0.51553 0.0
H1072 H 0.33167 0.03467 0.45952 0.0
H1073 H 0.29918 0.01614 0.48083 0.0
H1074 H 0.30296 0.97859 0.53135 0.0
H1075 H 0.28546 0.9768 0.50568 0.0
H1076 H 0.48651 0.05968 0.49185 0.0
H1077 H 0.46933 0.06715 0.46782 0.0
H1078 H 0.47896 0.06063 0.52425 0.0
H1079 H 0.44486 0.03352 0.5439 0.0
C1080 C 0.01465 0.34569 0.49496 0.0
C1081 C 0.0187 0.37643 0.48131 0.0
C1082 C 0.05162 0.42485 0.50996 0.0
C1083 C 0.04624 0.39389 0.52392 0.0
N1084 N 0.01946 0.32442 0.53063 0.0
N1085 N 0.03671 0.44431 0.47598 0.0
C1086 C 0.0266 0.35413 0.5167 0.0
C1087 C 0.0363 0.41584 0.48881 0.0
N1088 N 1.00079 0.30864 0.48678 0.0
N1089 N 0.07127 0.46297 0.51706 0.0
H1090 H 0.02663 0.43899 0.46029 0.0
H1091 H 0.04492 0.47269 0.48105 0.0
H1092 H 0.07887 0.47026 0.53299 0.0
H1093 H 0.08111 0.48749 0.50722 0.0
H1094 H 1.00062 0.28552 0.49504 0.0
H1095 H 0.99209 0.30155 0.47094 0.0
H1096 H 0.00125 0.29463 0.52726 0.0
H1097 H 0.02989 0.32937 0.54623 0.0
C1098 C 0.35777 0.35526 0.51566 0.0
C1099 C 0.37758 0.39493 0.52286 0.0
C1100 C 0.40574 0.41748 0.48707 0.0
C1101 C 0.38816 0.37764 0.48031 0.0
N1102 N 0.35076 0.30813 0.48846 0.0
N1103 N 0.4249 0.46341 0.5167 0.0
C1104 C 0.36524 0.34641 0.49474 0.0
C1105 C 0.40266 0.42598 0.50886 0.0
N1106 N 0.33028 0.32624 0.52844 0.0
N1107 N 0.4255 0.44719 0.47267 0.0
H1108 H 0.42397 0.47056 0.53262 0.0
H1109 H 0.44676 0.48678 0.50805 0.0
H1110 H 0.42978 0.4421 0.45685 0.0
H1111 H 0.43535 0.47676 0.4759 0.0
H1112 H 0.31137 0.29754 0.52329 0.0
H1113 H 0.32419 0.33142 0.54389 0.0
H1114 H 0.33851 0.28431 0.49892 0.0
H1115 H 0.35278 0.30015 0.47287 0.0
C1116 C 0.65154 0.03808 0.51479 0.0
C1117 C 0.67076 0.01821 0.52289 0.0
C1118 C 0.70526 0.02775 0.48868 0.0
C1119 C 0.68421 0.04543 0.48017 0.0
N1120 N 0.63367 0.06304 0.48379 0.0
N1121 N 0.71357 0.99115 0.51746 0.0
C1122 C 0.65645 0.04955 0.49292 0.0
C1123 C 0.69683 0.01207 0.50975 0.0
N1124 N 0.62861 0.04599 0.52804 0.0
N1125 N 0.73474 0.02774 0.47697 0.0
H1126 H 0.71123 0.98244 0.53333 0.0
H1127 H 0.72838 0.98086 0.508 0.0
H1128 H 0.74139 0.03838 0.46141 0.0
H1129 H 0.75445 0.01968 0.48303 0.0
H1130 H 0.61716 0.06404 0.52393 0.0
H1131 H 0.623 0.03657 0.54383 0.0
H1132 H 0.61016 0.06321 0.49141 0.0
H1133 H 0.63616 0.07122 0.46781 0.0
C1134 C 0.03248 0.70545 0.49032 0.0
C1135 C 0.01742 0.6668 0.48202 0.0
C1136 C 0.02754 0.644 0.51677 0.0
C1137 C 0.04483 0.68314 0.52464 0.0
N1138 N 0.06692 0.75197 0.51887 0.0
N1139 N 0.00523 0.60042 0.486 0.0
C1140 C 0.04831 0.71412 0.51135 0.0
C1141 C 0.01608 0.63632 0.49493 0.0
N1142 N 0.02981 0.73336 0.47847 0.0
N1143 N 0.02193 0.61416 0.53023 0.0
H1144 H 0.99723 0.59402 0.47003 0.0
H1145 H 0.00717 0.57797 0.49377 0.0
H1146 H 0.03109 0.61893 0.54609 0.0
H1147 H 0.00586 0.5844 0.52626 0.0
H1148 H 0.03583 0.76065 0.48439 0.0
H1149 H 0.019 0.72838 0.46293 0.0
H1150 H 0.07533 0.77662 0.5093 0.0
H1151 H 0.07562 0.759 0.53471 0.0
C1152 C 0.00398 0.3153 0.01714 0.0
C1153 C 0.0428 0.33003 0.02511 0.0
C1154 C 0.06912 0.346 0.98869 0.0
C1155 C 0.03009 0.32593 0.98073 0.0
N1156 N 0.96247 0.30671 0.98637 0.0
N1157 N 0.11222 0.37158 0.0196 0.0
C1158 C 0.99822 0.31602 0.99475 0.0
C1159 C 0.07539 0.34993 0.01114 0.0
N1160 N 0.97259 0.29793 0.0307 0.0
N1161 N 0.09986 0.35892 0.97476 0.0
H1162 H 0.11651 0.37485 0.03602 0.0
H1163 H 0.1375 0.38877 0.01065 0.0
H1164 H 0.09557 0.35832 0.95836 0.0
H1165 H 0.12902 0.36959 0.9793 0.0
H1166 H 0.9434 0.28214 0.02563 0.0
H1167 H 0.97589 0.29823 0.04718 0.0
H1168 H 0.93809 0.30134 0.99551 0.0
H1169 H 0.95888 0.30859 0.97001 0.0
C1170 C 0.71596 0.74226 0.98949 0.0
C1171 C 0.74296 0.73078 0.9819 0.0
C1172 C 0.75361 0.71587 0.01848 0.0
C1173 C 0.73187 0.73333 0.02612 0.0
N1174 N 0.67952 0.7467 0.01987 0.0
N1175 N 0.77554 0.69357 0.98796 0.0
C1176 C 0.70851 0.7408 0.01182 0.0
C1177 C 0.75743 0.71277 0.9961 0.0
N1178 N 0.69965 0.757 0.97567 0.0
N1179 N 0.7726 0.70476 0.03268 0.0
H1180 H 0.7778 0.6909 0.97158 0.0
H1181 H 0.78497 0.67763 0.99707 0.0
H1182 H 0.7677 0.70443 0.049 0.0
H1183 H 0.79308 0.69639 0.02845 0.0
H1184 H 0.68381 0.77053 0.9805 0.0
H1185 H 0.7029 0.75665 0.95923 0.0
H1186 H 0.65953 0.7502 0.01052 0.0
H1187 H 0.67317 0.74362 0.03614 0.0
C1188 C 0.31563 0.99451 0.98576 0.0
C1189 C 0.33169 0.03396 0.97896 0.0
C1190 C 0.34697 0.05689 0.01595 0.0
C1191 C 0.32248 0.01732 0.02285 0.0
N1192 N 0.29075 0.94807 0.01529 0.0
N1193 N 0.37595 0.10213 0.98591 0.0
C1194 C 0.30995 0.98594 0.00798 0.0
C1195 C 0.35212 0.06503 0.99365 0.0
N1196 N 0.30552 0.96566 0.97085 0.0
N1197 N 0.36282 0.08659 0.03064 0.0
H1198 H 0.38087 0.1072 0.96957 0.0
H1199 H 0.39299 0.12684 0.99526 0.0
H1200 H 0.36083 0.08124 0.04696 0.0
H1201 H 0.37782 0.11644 0.02687 0.0
H1202 H 0.29462 0.93603 0.97437 0.0
H1203 H 0.31112 0.97231 0.95469 0.0
H1204 H 0.2771 0.92318 0.00564 0.0
H1205 H 0.28871 0.94191 0.03152 0.0
C1206 C 0.06399 0.74833 0.98886 0.0
C1207 C 0.02477 0.73119 0.98123 0.0
C1208 C 0.99964 0.71457 0.01786 0.0
C1209 C 0.03865 0.73855 0.02551 0.0
N1210 N 0.10788 0.76642 0.01954 0.0
N1211 N 0.95637 0.68599 0.98713 0.0
C1212 C 0.07085 0.75114 0.01129 0.0
C1213 C 0.99292 0.71 0.99543 0.0
N1214 N 0.09442 0.76375 0.97465 0.0
N1215 N 0.96913 0.69818 0.03201 0.0
H1216 H 0.95221 0.68172 0.97074 0.0
H1217 H 0.93138 0.66809 0.99611 0.0
H1218 H 0.97376 0.69859 0.04836 0.0
H1219 H 0.93952 0.68407 0.02774 0.0
H1220 H 0.12399 0.78057 0.97881 0.0
H1221 H 0.08968 0.75905 0.95833 0.0
H1222 H 0.13322 0.77516 0.01054 0.0
H1223 H 0.11249 0.76748 0.03593 0.0
C1224 C 0.35047 0.31998 0.01623 0.0
C1225 C 0.32609 0.33434 0.02427 0.0
C1226 C 0.31616 0.35105 0.98795 0.0
C1227 C 0.33366 0.32962 0.97995 0.0
N1228 N 0.38176 0.30991 0.9851 0.0
N1229 N 0.29898 0.37661 0.01905 0.0
C1230 C 0.35586 0.3197 0.99377 0.0
C1231 C 0.31363 0.3546 0.01042 0.0
N1232 N 0.36626 0.30448 0.02989 0.0
N1233 N 0.30053 0.36622 0.97398 0.0
H1234 H 0.29912 0.38047 0.03547 0.0
H1235 H 0.29018 0.39343 0.01029 0.0
H1236 H 0.30528 0.36644 0.95763 0.0
H1237 H 0.28355 0.37871 0.9784 0.0
H1238 H 0.38039 0.28927 0.02499 0.0
H1239 H 0.36457 0.30636 0.04637 0.0
H1240 H 0.40066 0.30398 0.99396 0.0
H1241 H 0.38683 0.31186 0.9687 0.0
C1242 C 0.71025 0.99808 0.9863 0.0
C1243 C 0.73261 0.03765 0.97923 0.0
C1244 C 0.74181 0.06124 0.01605 0.0
C1245 C 0.72527 0.02172 0.02313 0.0
N1246 N 0.67973 0.95357 0.01633 0.0
N1247 N 0.75313 0.10527 0.98615 0.0
C1248 C 0.70435 0.99044 0.00857 0.0
C1249 C 0.74251 0.06873 0.99382 0.0
N1250 N 0.69717 0.96806 0.97187 0.0
N1251 N 0.75924 0.09143 0.03035 0.0
H1252 H 0.75162 0.10986 0.96988 0.0
H1253 H 0.75894 0.12926 0.99577 0.0
H1254 H 0.75778 0.08658 0.04674 0.0
H1255 H 0.77607 0.12094 0.02596 0.0
H1256 H 0.68479 0.93849 0.97607 0.0
H1257 H 0.69976 0.97316 0.9555 0.0
H1258 H 0.66183 0.92936 0.0068 0.0
H1259 H 0.67456 0.94863 0.03265 0.0
C1260 C 0.73048 0.68176 0.32327 0.0
C1261 C 0.6911 0.66124 0.3158 0.0
C1262 C 0.66643 0.6513 0.35245 0.0
C1263 C 0.7055 0.6658 0.35995 0.0
N1264 N 0.77473 0.70703 0.35381 0.0
N1265 N 0.62405 0.64323 0.32222 0.0
C1266 C 0.7376 0.68561 0.34568 0.0
C1267 C 0.65988 0.6519 0.33017 0.0
N1268 N 0.76069 0.69534 0.30895 0.0
N1269 N 0.63552 0.63425 0.36634 0.0
H1270 H 0.62021 0.64567 0.30594 0.0
H1271 H 0.6001 0.63818 0.33165 0.0
H1272 H 0.63939 0.63463 0.38277 0.0
H1273 H 0.60615 0.61861 0.36156 0.0
H1274 H 0.79015 0.70689 0.31311 0.0
H1275 H 0.75585 0.69448 0.29258 0.0
H1276 H 0.79984 0.72391 0.34469 0.0
H1277 H 0.77952 0.71033 0.37019 0.0
C1278 C 0.38188 0.08952 0.34173 0.0
C1279 C 0.39949 0.07505 0.35618 0.0
C1280 C 0.41469 0.04445 0.32622 0.0
C1281 C 0.40678 0.0676 0.31193 0.0
N1282 N 0.3764 0.10686 0.3052 0.0
N1283 N 0.42579 0.03207 0.36282 0.0
C1284 C 0.38721 0.08753 0.31939 0.0
C1285 C 0.41282 0.04949 0.34865 0.0
N1286 N 0.36092 0.10593 0.34968 0.0
N1287 N 0.42439 0.01811 0.31806 0.0
H1288 H 0.4221 0.03302 0.3792 0.0
H1289 H 0.4404 0.01704 0.35851 0.0
H1290 H 0.42412 0.01362 0.30168 0.0
H1291 H 0.42883 0.99848 0.32719 0.0
H1292 H 0.34507 0.1152 0.34038 0.0
H1293 H 0.35672 0.10686 0.36601 0.0
H1294 H 0.36635 0.12597 0.30955 0.0
H1295 H 0.37845 0.10437 0.28878 0.0
C1296 C 0.98808 0.32489 0.344 0.0
C1297 C 0.9987 0.35688 0.35804 0.0
C1298 C 0.02451 0.4024 0.32782 0.0
C1299 C 0.00326 0.37005 0.31393 0.0
N1300 N 0.97248 0.30034 0.30764 0.0
N1301 N 0.03701 0.42643 0.3644 0.0
C1302 C 0.98833 0.33113 0.32163 0.0
C1303 C 0.02101 0.39593 0.35027 0.0
N1304 N 0.97759 0.28884 0.35237 0.0
N1305 N 0.04733 0.43899 0.31926 0.0
H1306 H 0.03694 0.42153 0.38073 0.0
H1307 H 0.0504 0.45603 0.36012 0.0
H1308 H 0.05118 0.44295 0.30281 0.0
H1309 H 0.06473 0.46431 0.32813 0.0
H1310 H 0.97079 0.26398 0.34329 0.0
H1311 H 0.97976 0.28535 0.36871 0.0
H1312 H 0.95714 0.27085 0.31221 0.0
H1313 H 0.97436 0.30476 0.2912 0.0
C1314 C 0.66374 0.04483 0.34882 0.0
C1315 C 0.7027 0.06713 0.35664 0.0
C1316 C 0.72869 0.0773 0.32022 0.0
C1317 C 0.68969 0.06166 0.31236 0.0
N1318 N 0.62052 0.01898 0.31792 0.0
N1319 N 0.7711 0.08986 0.35115 0.0
C1320 C 0.65728 0.04115 0.32637 0.0
C1321 C 0.73484 0.07813 0.34266 0.0
N1322 N 0.63325 0.02899 0.36296 0.0
N1323 N 0.75974 0.09371 0.3064 0.0
H1324 H 0.7749 0.089 0.36757 0.0
H1325 H 0.79606 0.09663 0.34219 0.0
H1326 H 0.75593 0.09186 0.28993 0.0
H1327 H 0.78909 0.1098 0.31113 0.0
H1328 H 0.60364 0.01561 0.35876 0.0
H1329 H 0.63823 0.02896 0.37927 0.0
H1330 H 0.59509 0.0021 0.32679 0.0
H1331 H 0.61636 0.01537 0.3015 0.0
C1332 C 0.97853 0.6852 0.34501 0.0
C1333 C 0.98975 0.664 0.35891 0.0
C1334 C 0.01878 0.6482 0.32854 0.0
C1335 C 0.99723 0.65877 0.31461 0.0
N1336 N 0.9654 0.6967 0.30857 0.0
N1337 N 0.02754 0.6317 0.36464 0.0
C1338 C 0.98062 0.68112 0.32253 0.0
C1339 C 0.01304 0.64837 0.35094 0.0
N1340 N 0.96572 0.70879 0.35358 0.0
N1341 N 0.04459 0.63814 0.32006 0.0
H1342 H 0.02609 0.63412 0.38109 0.0
H1343 H 0.04044 0.61529 0.35977 0.0
H1344 H 0.05033 0.64068 0.30372 0.0
H1345 H 0.06302 0.63178 0.32909 0.0
H1346 H 0.95808 0.72646 0.34475 0.0
H1347 H 0.96671 0.71328 0.36997 0.0
H1348 H 0.94915 0.70995 0.31306 0.0
H1349 H 0.96917 0.69605 0.29216 0.0
C1350 C 0.40414 0.39025 0.35053 0.0
C1351 C 0.38874 0.35066 0.3574 0.0
C1352 C 0.37665 0.32796 0.3203 0.0
C1353 C 0.39757 0.36779 0.31354 0.0
N1354 N 0.41579 0.43475 0.32077 0.0
N1355 N 0.34643 0.28215 0.34977 0.0
C1356 C 0.40577 0.39823 0.32829 0.0
C1357 C 0.36994 0.31958 0.34247 0.0
N1358 N 0.41982 0.42027 0.36501 0.0
N1359 N 0.36575 0.29848 0.30569 0.0
H1360 H 0.34058 0.2766 0.36598 0.0
H1361 H 0.32986 0.25793 0.33997 0.0
H1362 H 0.36896 0.30397 0.28935 0.0
H1363 H 0.35472 0.269 0.3097 0.0
H1364 H 0.43604 0.44993 0.36083 0.0
H1365 H 0.41759 0.41538 0.38139 0.0
H1366 H 0.42008 0.45818 0.33044 0.0
H1367 H 0.41555 0.4399 0.30447 0.0
C1368 C 0.33753 0.98629 0.6822 0.0
C1369 C 0.37643 0.99945 0.68964 0.0
C1370 C 0.40089 0.01192 0.65278 0.0
C1371 C 0.36143 0.99306 0.64545 0.0
N1372 N 0.29536 0.9785 0.65188 0.0
N1373 N 0.44576 0.03833 0.68289 0.0
C1374 C 0.33078 0.98585 0.65985 0.0
C1375 C 0.40837 0.01718 0.67509 0.0
N1376 N 0.30689 0.97189 0.69628 0.0
N1377 N 0.43078 0.02235 0.6385 0.0
H1378 H 0.45093 0.04288 0.69919 0.0
H1379 H 0.4707 0.05422 0.67348 0.0
H1380 H 0.42605 0.02046 0.62209 0.0
H1381 H 0.45984 0.03179 0.64278 0.0
H1382 H 0.2774 0.95724 0.69169 0.0
H1383 H 0.31102 0.97364 0.71271 0.0
H1384 H 0.27192 0.97505 0.66126 0.0
H1385 H 0.29151 0.98044 0.63556 0.0
C1386 C 0.03867 0.41182 0.67721 0.0
C1387 C 0.05961 0.40052 0.6912 0.0
C1388 C 0.07655 0.37232 0.66096 0.0
C1389 C 0.06663 0.39442 0.64703 0.0
N1390 N 0.02983 0.42751 0.64086 0.0
N1391 N 0.09114 0.36221 0.6973 0.0
C1392 C 0.04404 0.41091 0.6548 0.0
C1393 C 0.07536 0.37731 0.68338 0.0
N1394 N 0.01428 0.42379 0.68566 0.0
N1395 N 0.08727 0.347 0.65247 0.0
H1396 H 0.0886 0.36395 0.71375 0.0
H1397 H 0.10717 0.3488 0.69265 0.0
H1398 H 0.08573 0.34197 0.63607 0.0
H1399 H 0.09341 0.32838 0.66147 0.0
H1400 H 0.99659 0.43113 0.67663 0.0
H1401 H 0.00914 0.42237 0.70204 0.0
H1402 H 0.01686 0.44398 0.64547 0.0
H1403 H 0.03169 0.42504 0.62441 0.0
C1404 C 0.68291 0.73042 0.68533 0.0
C1405 C 0.66011 0.69119 0.69291 0.0
C1406 C 0.65025 0.6663 0.65623 0.0
C1407 C 0.66611 0.70546 0.64878 0.0
N1408 N 0.71141 0.7739 0.65467 0.0
N1409 N 0.63663 0.62276 0.68668 0.0
C1410 C 0.68733 0.73732 0.66293 0.0
C1411 C 0.64883 0.65937 0.67859 0.0
N1412 N 0.69835 0.76087 0.69952 0.0
N1413 N 0.63503 0.636 0.64196 0.0
H1414 H 0.63807 0.61873 0.70298 0.0
H1415 H 0.62905 0.59784 0.6775 0.0
H1416 H 0.63903 0.64108 0.62561 0.0
H1417 H 0.61889 0.60635 0.64614 0.0
H1418 H 0.71119 0.79043 0.69524 0.0
H1419 H 0.69824 0.75608 0.71584 0.0
H1420 H 0.72938 0.79872 0.66376 0.0
H1421 H 0.71599 0.77814 0.63827 0.0
C1422 C 0.33908 0.38744 0.68272 0.0
C1423 C 0.37768 0.41202 0.69086 0.0
C1424 C 0.40436 0.42505 0.65449 0.0
C1425 C 0.36539 0.40575 0.64645 0.0
N1426 N 0.29793 0.3564 0.65153 0.0
N1427 N 0.44733 0.4419 0.6854 0.0
C1428 C 0.3335 0.38252 0.66022 0.0
C1429 C 0.41047 0.4263 0.67692 0.0
N1430 N 0.30769 0.37128 0.69631 0.0
N1431 N 0.43513 0.44428 0.64071 0.0
H1432 H 0.45154 0.44215 0.7018 0.0
H1433 H 0.47282 0.4511 0.67644 0.0
H1434 H 0.431 0.44154 0.62427 0.0
H1435 H 0.46414 0.46304 0.6454 0.0
H1436 H 0.27843 0.35721 0.69134 0.0
H1437 H 0.31103 0.37291 0.71281 0.0
H1438 H 0.27353 0.3366 0.66038 0.0
H1439 H 0.29444 0.35221 0.63507 0.0
C1440 C 0.68393 0.9916 0.68297 0.0
C1441 C 0.65736 0.00365 0.69051 0.0
C1442 C 0.64626 0.01775 0.65381 0.0
C1443 C 0.66658 0.99865 0.64636 0.0
N1444 N 0.71799 0.98386 0.65243 0.0
N1445 N 0.6246 0.0406 0.68433 0.0
C1446 C 0.69008 0.99129 0.6606 0.0
C1447 C 0.64274 0.0214 0.67621 0.0
N1448 N 0.70107 0.97809 0.697 0.0
N1449 N 0.62865 0.03019 0.63945 0.0
H1450 H 0.6227 0.04369 0.70071 0.0
H1451 H 0.61418 0.05568 0.67523 0.0
H1452 H 0.63272 0.02933 0.62308 0.0
H1453 H 0.6101 0.04106 0.6435 0.0
H1454 H 0.71669 0.9642 0.69245 0.0
H1455 H 0.6991 0.98035 0.71343 0.0
H1456 H 0.73796 0.98008 0.66163 0.0
H1457 H 0.7235 0.98576 0.63607 0.0
C1458 C 0.08038 0.73188 0.68397 0.0
C1459 C 0.06296 0.69287 0.69195 0.0
C1460 C 0.04656 0.66652 0.65567 0.0
C1461 C 0.06953 0.70538 0.64769 0.0
N1462 N 0.09267 0.77404 0.65305 0.0
N1463 N 0.01503 0.62496 0.68659 0.0
C1464 C 0.08091 0.7378 0.66156 0.0
C1465 C 0.04089 0.66075 0.67808 0.0
N1466 N 0.09858 0.76297 0.69767 0.0
N1467 N 0.0325 0.6353 0.642 0.0
H1468 H 0.00962 0.62167 0.70296 0.0
H1469 H 0.9963 0.60032 0.67754 0.0
H1470 H 0.03489 0.63905 0.62551 0.0
H1471 H 0.01959 0.60606 0.64695 0.0
H1472 H 0.11595 0.7921 0.69274 0.0
H1473 H 0.09702 0.75914 0.71415 0.0
H1474 H 0.09964 0.79899 0.66209 0.0
H1475 H 0.09116 0.77766 0.63666 0.0
C1476 C 0.88167 0.13513 0.10176 0.0
C1477 C 0.86474 0.11705 0.08203 0.0
C1478 C 0.91622 0.17411 0.06285 0.0
C1479 C 0.93405 0.19131 0.08264 0.0
N1480 N 0.92389 0.19643 0.12001 0.0
N1481 N 0.8587 0.12363 0.04424 0.0
C1482 C 0.91363 0.17449 0.10187 0.0
C1483 C 0.87975 0.13799 0.06266 0.0
N1484 N 0.86878 0.1142 0.12029 0.0
N1485 N 0.93453 0.19223 0.04428 0.0
H1486 H 0.83174 0.09737 0.04365 0.0
H1487 H 0.86602 0.13916 0.02995 0.0
H1488 H 0.95928 0.22043 0.04391 0.0
H1489 H 0.926 0.17906 0.02935 0.0
H1490 H 0.88295 0.12476 0.13485 0.0
H1491 H 0.84581 0.08503 0.12084 0.0
H1492 H 0.90837 0.1865 0.13427 0.0
H1493 H 0.94398 0.22648 0.11973 0.0
C1494 C 0.93434 0.80336 0.10683 0.0
C1495 C 0.9392 0.77788 0.09268 0.0
C1496 C 0.86923 0.74589 0.08324 0.0
C1497 C 0.86668 0.77657 0.09382 0.0
N1498 N 0.8949 0.83259 0.1174 0.0
N1499 N 0.91197 0.72528 0.06681 0.0
C1500 C 0.89863 0.80452 0.10634 0.0
C1501 C 0.90664 0.74867 0.08102 0.0
N1502 N 0.96374 0.82588 0.1209 0.0
N1503 N 0.83606 0.71424 0.07528 0.0
H1504 H 0.93882 0.72623 0.06486 0.0
H1505 H 0.89064 0.70697 0.05588 0.0
H1506 H 0.80813 0.71085 0.07706 0.0
H1507 H 0.83555 0.68933 0.06903 0.0
H1508 H 0.96099 0.84266 0.13292 0.0
H1509 H 0.98994 0.82503 0.12175 0.0
H1510 H 0.91837 0.85683 0.12469 0.0
H1511 H 0.86813 0.83221 0.11871 0.0
C1512 C 0.30097 0.14363 0.06634 0.0
C1513 C 0.29199 0.12128 0.0854 0.0
C1514 C 0.28633 0.17247 0.10491 0.0
C1515 C 0.29321 0.19374 0.0856 0.0
N1516 N 0.31673 0.20563 0.04947 0.0
N1517 N 0.28606 0.11789 0.1236 0.0
C1518 C 0.30387 0.18127 0.06681 0.0
C1519 C 0.28828 0.13707 0.10502 0.0
N1520 N 0.30523 0.12807 0.04769 0.0
N1521 N 0.27563 0.18488 0.12275 0.0
H1522 H 0.28664 0.09153 0.12403 0.0
H1523 H 0.28684 0.12948 0.13862 0.0
H1524 H 0.27457 0.21099 0.12322 0.0
H1525 H 0.26592 0.16858 0.13675 0.0
H1526 H 0.30721 0.14052 0.03278 0.0
H1527 H 0.30514 0.10139 0.04699 0.0
H1528 H 0.32849 0.20027 0.03586 0.0
H1529 H 0.31857 0.23315 0.04939 0.0
C1530 C 0.1662 0.93445 0.89775 0.0
C1531 C 0.19477 0.94291 0.91378 0.0
C1532 C 0.15597 0.87569 0.92767 0.0
C1533 C 0.12444 0.86981 0.91424 0.0
N1534 N 0.09926 0.89125 0.88535 0.0
N1535 N 0.21745 0.92278 0.94442 0.0
C1536 C 0.12968 0.89837 0.89871 0.0
C1537 C 0.19022 0.91359 0.92861 0.0
N1538 N 0.17428 0.96093 0.88165 0.0
N1539 N 0.15293 0.84515 0.93963 0.0
H1540 H 0.24302 0.9502 0.94548 0.0
H1541 H 0.21365 0.90438 0.95725 0.0
H1542 H 0.12807 0.81716 0.93926 0.0
H1543 H 0.17619 0.84638 0.94829 0.0
H1544 H 0.15628 0.95543 0.86841 0.0
H1545 H 0.20088 0.98755 0.88071 0.0
H1546 H 0.09918 0.91234 0.8753 0.0
H1547 H 0.07317 0.86408 0.88481 0.0
C1548 C 0.16391 0.25932 0.89836 0.0
C1549 C 0.19349 0.28395 0.91305 0.0
C1550 C 0.15488 0.31529 0.92274 0.0
C1551 C 0.12229 0.28532 0.91145 0.0
N1552 N 0.09578 0.23069 0.88696 0.0
N1553 N 0.2176 0.33514 0.93969 0.0
C1554 C 0.127 0.25815 0.89857 0.0
C1555 C 0.1895 0.31248 0.92506 0.0
N1556 N 0.17151 0.23755 0.8841 0.0
N1557 N 0.15268 0.34619 0.93135 0.0
H1558 H 0.24346 0.33411 0.94166 0.0
H1559 H 0.21418 0.35289 0.95085 0.0
H1560 H 0.128 0.3494 0.9297 0.0
H1561 H 0.17664 0.37072 0.93813 0.0
H1562 H 0.15262 0.22147 0.87172 0.0
H1563 H 0.19858 0.2384 0.88351 0.0
H1564 H 0.09546 0.20695 0.87929 0.0
H1565 H 0.0694 0.23107 0.88556 0.0
C1566 C 0.78681 0.89282 0.89975 0.0
C1567 C 0.77778 0.87074 0.9189 0.0
C1568 C 0.7667 0.91942 0.93738 0.0
C1569 C 0.77728 0.94237 0.91848 0.0
N1570 N 0.78784 0.94733 0.88057 0.0
N1571 N 0.74994 0.85704 0.95414 0.0
C1572 C 0.7839 0.92768 0.89922 0.0
C1573 C 0.76456 0.88211 0.93713 0.0
N1574 N 0.80022 0.8816 0.88252 0.0
N1575 N 0.76013 0.93407 0.95575 0.0
H1576 H 0.74857 0.82973 0.95442 0.0
H1577 H 0.73628 0.8616 0.96717 0.0
H1578 H 0.75961 0.96045 0.95628 0.0
H1579 H 0.75694 0.92122 0.97066 0.0
H1580 H 0.81144 0.89857 0.86882 0.0
H1581 H 0.80203 0.85588 0.88234 0.0
H1582 H 0.78909 0.93636 0.86567 0.0
H1583 H 0.78665 0.97335 0.87985 0.0
C1584 C 0.54155 0.47477 0.39682 0.0
C1585 C 0.52534 0.45541 0.41643 0.0
C1586 C 0.57271 0.51479 0.43562 0.0
C1587 C 0.59485 0.52938 0.41661 0.0
N1588 N 0.59716 0.52791 0.37832 0.0
N1589 N 0.52483 0.45695 0.45489 0.0
C1590 C 0.57795 0.51092 0.3969 0.0
C1591 C 0.54024 0.47562 0.43598 0.0
N1592 N 0.52164 0.45882 0.37825 0.0
N1593 N 0.5817 0.53865 0.45297 0.0
H1594 H 0.50096 0.42832 0.45587 0.0
H1595 H 0.53754 0.46886 0.46959 0.0
H1596 H 0.60205 0.56862 0.45212 0.0
H1597 H 0.565 0.53039 0.46689 0.0
H1598 H 0.52991 0.47297 0.36356 0.0
H1599 H 0.49459 0.43264 0.3778 0.0
H1600 H 0.58945 0.51388 0.36358 0.0
H1601 H 0.62171 0.55623 0.37779 0.0
C1602 C 0.60263 0.13455 0.43818 0.0
C1603 C 0.60867 0.11092 0.42322 0.0
C1604 C 0.54285 0.08723 0.40831 0.0
C1605 C 0.53749 0.11222 0.42261 0.0
N1606 N 0.55661 0.15131 0.45457 0.0
N1607 N 0.58132 0.05669 0.39845 0.0
C1608 C 0.56564 0.13319 0.43871 0.0
C1609 C 0.57752 0.08435 0.40983 0.0
N1610 N 0.6327 0.15897 0.45143 0.0
N1611 N 0.51598 0.06818 0.39247 0.0
H1612 H 0.60646 0.05409 0.39924 0.0
H1613 H 0.5584 0.03407 0.3899 0.0
H1614 H 0.49006 0.06932 0.39103 0.0
H1615 H 0.5204 0.05336 0.37996 0.0
H1616 H 0.63211 0.1804 0.46099 0.0
H1617 H 0.65916 0.15864 0.45231 0.0
H1618 H 0.57431 0.16436 0.46785 0.0
H1619 H 0.52949 0.15033 0.45535 0.0
C1620 C 0.9805 0.48357 0.41043 0.0
C1621 C 0.95456 0.45252 0.4241 0.0
C1622 C 0.93126 0.49465 0.43959 0.0
C1623 C 0.95551 0.52485 0.42503 0.0
N1624 N 0.0114 0.55301 0.40141 0.0
N1625 N 0.91341 0.43104 0.45527 0.0
C1626 C 0.98308 0.521 0.41214 0.0
C1627 C 0.93261 0.45899 0.43993 0.0
N1628 N 1.00077 0.47652 0.39497 0.0
N1629 N 0.90623 0.49985 0.45261 0.0
H1630 H 0.91434 0.40485 0.45585 0.0
H1631 H 0.8994 0.43497 0.46834 0.0
H1632 H 0.90662 0.52667 0.4537 0.0
H1633 H 0.88438 0.47755 0.46182 0.0
H1634 H 0.01647 0.49631 0.38283 0.0
H1635 H 0.99987 0.44958 0.39351 0.0
H1636 H 0.03454 0.55312 0.39318 0.0
H1637 H 0.01398 0.58074 0.40252 0.0
C1638 C 0.81272 0.21628 0.23079 0.0
C1639 C 0.7954 0.1974 0.25034 0.0
C1640 C 0.85347 0.24649 0.26986 0.0
C1641 C 0.86729 0.26903 0.25094 0.0
N1642 N 0.86297 0.27554 0.21308 0.0
N1643 N 0.79948 0.19178 0.28837 0.0
C1644 C 0.84824 0.25355 0.23117 0.0
C1645 C 0.81623 0.21138 0.26982 0.0
N1646 N 0.79472 0.1989 0.21203 0.0
N1647 N 0.87623 0.25892 0.28782 0.0
H1648 H 0.77321 0.16483 0.28874 0.0
H1649 H 0.81054 0.20265 0.30345 0.0
H1650 H 0.90343 0.2849 0.28828 0.0
H1651 H 0.86999 0.24236 0.30171 0.0
H1652 H 0.80719 0.20914 0.19711 0.0
H1653 H 0.76813 0.17227 0.21141 0.0
H1654 H 0.84855 0.26826 0.19846 0.0
H1655 H 0.88948 0.30229 0.21285 0.0
C1656 C 0.8321 0.60406 0.23341 0.0
C1657 C 0.85599 0.61579 0.25194 0.0
C1658 C 0.80891 0.6291 0.27054 0.0
C1659 C 0.78436 0.61626 0.25225 0.0
N1660 N 0.77555 0.60007 0.21495 0.0
N1661 N 0.87264 0.648 0.28608 0.0
C1662 C 0.79711 0.60676 0.23316 0.0
C1663 C 0.84618 0.6313 0.26981 0.0
N1664 N 0.84195 0.58864 0.21652 0.0
N1665 N 0.79571 0.63749 0.28889 0.0
H1666 H 0.89972 0.64896 0.28617 0.0
H1667 H 0.86934 0.66359 0.29858 0.0
H1668 H 0.76901 0.63725 0.28981 0.0
H1669 H 0.80998 0.64262 0.3035 0.0
H1670 H 0.82377 0.57551 0.20342 0.0
H1671 H 0.86788 0.58725 0.2161 0.0
H1672 H 0.78476 0.59627 0.20003 0.0
H1673 H 0.7496 0.6014 0.21449 0.0
C1674 C 0.44099 0.25739 0.27335 0.0
C1675 C 0.4442 0.27702 0.25382 0.0
C1676 C 0.43425 0.21857 0.23434 0.0
C1677 C 0.44091 0.20342 0.25343 0.0
N1678 N 0.44508 0.20518 0.29179 0.0
N1679 N 0.44431 0.27681 0.21538 0.0
C1680 C 0.44223 0.22175 0.27319 0.0
C1681 C 0.44034 0.25755 0.23417 0.0
N1682 N 0.43577 0.27243 0.29195 0.0
N1683 N 0.42097 0.19545 0.21663 0.0
H1684 H 0.44878 0.30537 0.21457 0.0
H1685 H 0.4461 0.26556 0.20064 0.0
H1686 H 0.41228 0.16568 0.2171 0.0
H1687 H 0.41304 0.20399 0.20263 0.0
H1688 H 0.42929 0.25765 0.30646 0.0
H1689 H 0.43424 0.29827 0.29256 0.0
H1690 H 0.45155 0.21951 0.30645 0.0
H1691 H 0.44208 0.17717 0.29246 0.0
C1692 C 0.25016 0.84998 0.73405 0.0
C1693 C 0.27237 0.86368 0.75308 0.0
C1694 C 0.21938 0.8088 0.77297 0.0
C1695 C 0.20076 0.79163 0.75333 0.0
N1696 N 0.19568 0.79621 0.71528 0.0
N1697 N 0.27842 0.85878 0.79094 0.0
C1698 C 0.21509 0.81266 0.73392 0.0
C1699 C 0.25667 0.8443 0.77275 0.0
N1700 N 0.2627 0.87306 0.71619 0.0
N1701 N 0.20164 0.79083 0.79167 0.0
H1702 H 0.30517 0.88529 0.79131 0.0
H1703 H 0.27101 0.84407 0.80547 0.0
H1704 H 0.17493 0.76433 0.79224 0.0
H1705 H 0.21167 0.80333 0.80661 0.0
H1706 H 0.24632 0.86689 0.70224 0.0
H1707 H 0.28848 0.90045 0.71588 0.0
H1708 H 0.20683 0.80739 0.70025 0.0
H1709 H 0.16858 0.77012 0.71476 0.0
C1710 C 0.24865 0.43221 0.73465 0.0
C1711 C 0.27102 0.44167 0.7537 0.0
C1712 C 0.22057 0.44918 0.77279 0.0
C1713 C 0.19919 0.44163 0.75347 0.0
N1714 N 0.18695 0.41677 0.71757 0.0
N1715 N 0.27477 0.44929 0.79179 0.0
C1716 C 0.21132 0.42996 0.73491 0.0
C1717 C 0.2556 0.4466 0.77314 0.0
N1718 N 0.26394 0.42692 0.71616 0.0
N1719 N 0.20859 0.46102 0.79037 0.0
H1720 H 0.30078 0.44807 0.79238 0.0
H1721 H 0.26343 0.44944 0.80676 0.0
H1722 H 0.18281 0.46267 0.79063 0.0
H1723 H 0.22501 0.47113 0.80431 0.0
H1724 H 0.25157 0.4246 0.7012 0.0
H1725 H 0.29034 0.42645 0.71565 0.0
H1726 H 0.19201 0.40421 0.7042 0.0
H1727 H 0.15974 0.41557 0.71725 0.0
C1728 C 0.59922 0.79954 0.77274 0.0
C1729 C 0.6234 0.79331 0.75828 0.0
C1730 C 0.64832 0.85929 0.74328 0.0
C1731 C 0.62249 0.86465 0.75692 0.0
N1732 N 0.58218 0.84589 0.78842 0.0
N1733 N 0.67919 0.82055 0.73458 0.0
C1734 C 0.60081 0.83664 0.77295 0.0
C1735 C 0.65091 0.82447 0.74522 0.0
N1736 N 0.57398 0.76952 0.78579 0.0
N1737 N 0.6685 0.88632 0.72768 0.0
H1738 H 0.6818 0.79545 0.73592 0.0
H1739 H 0.70225 0.84337 0.72622 0.0
H1740 H 0.66774 0.91242 0.72606 0.0
H1741 H 0.6841 0.88193 0.71559 0.0
H1742 H 0.55213 0.77027 0.79488 0.0
H1743 H 0.57407 0.74295 0.78695 0.0
H1744 H 0.56856 0.82826 0.80165 0.0
H1745 H 0.58339 0.87314 0.78898 0.0
C1746 C 0.52556 0.5783 0.59106 0.0
C1747 C 0.52953 0.61153 0.5798 0.0
C1748 C 0.46251 0.57205 0.56572 0.0
C1749 C 0.45773 0.53956 0.57804 0.0
N1750 N 0.48814 0.50758 0.59652 0.0
N1751 N 0.50712 0.63758 0.55186 0.0
C1752 C 0.49052 0.54123 0.58865 0.0
C1753 C 0.49962 0.60752 0.56559 0.0
N1754 N 0.55409 0.58269 0.60513 0.0
N1755 N 0.43117 0.56907 0.55454 0.0
H1756 H 0.53436 0.66357 0.5513 0.0
H1757 H 0.48794 0.6356 0.53983 0.0
H1758 H 0.40465 0.54252 0.55301 0.0
H1759 H 0.4309 0.59289 0.54735 0.0
H1760 H 0.55074 0.56098 0.61588 0.0
H1761 H 0.58039 0.60915 0.60702 0.0
H1762 H 0.51214 0.50635 0.60276 0.0
H1763 H 0.4632 0.47993 0.59475 0.0
C1764 C 0.47377 0.95151 0.56424 0.0
C1765 C 0.45547 0.9508 0.58389 0.0
C1766 C 0.51322 0.95886 0.60342 0.0
C1767 C 0.52837 0.95282 0.58416 0.0
N1768 N 0.52499 0.94469 0.54607 0.0
N1769 N 0.45781 0.95594 0.62223 0.0
C1770 C 0.50963 0.95035 0.56442 0.0
C1771 C 0.47549 0.95562 0.60348 0.0
N1772 N 0.45657 0.95272 0.54552 0.0
N1773 N 0.53539 0.9682 0.62159 0.0
H1774 H 0.43143 0.9564 0.62292 0.0
H1775 H 0.46821 0.95412 0.63719 0.0
H1776 H 0.56295 0.9702 0.62208 0.0
H1777 H 0.52828 0.97712 0.63571 0.0
H1778 H 0.47004 0.95708 0.53071 0.0
H1779 H 0.42968 0.95216 0.54489 0.0
H1780 H 0.51074 0.93827 0.53141 0.0
H1781 H 0.5516 0.94465 0.54567 0.0
C1782 C 0.11632 0.59269 0.5656 0.0
C1783 C 0.10955 0.60706 0.58492 0.0
C1784 C 0.09771 0.54695 0.60339 0.0
C1785 C 0.1108 0.53575 0.58501 0.0
N1786 N 0.13432 0.54796 0.54882 0.0
N1787 N 0.09286 0.59851 0.62223 0.0
C1788 C 0.11991 0.55822 0.566 0.0
C1789 C 0.09938 0.58405 0.60377 0.0
N1790 N 0.11976 0.61231 0.54701 0.0
N1791 N 0.08379 0.522 0.62047 0.0
H1792 H 0.092 0.62471 0.62283 0.0
H1793 H 0.09005 0.58572 0.63712 0.0
H1794 H 0.08329 0.49512 0.62083 0.0
H1795 H 0.0701 0.52629 0.63358 0.0
H1796 H 0.12114 0.60153 0.53207 0.0
H1797 H 0.1178 0.63793 0.5464 0.0
H1798 H 0.14547 0.5653 0.53524 0.0
H1799 H 0.13747 0.52301 0.54869 0.0
loop_
_geom_bond_atom_site_label_1
_geom_bond_atom_site_label_2
_geom_bond_distance
_geom_bond_site_symmetry_2
_ccdc_geom_bond_type
Co0 O1 2.216 . S
Co0 O2 2.091 . S
Co0 O4 2.004 . S
Co0 O10 2.021 1_455 S
Co0 O12 2.137 . S
Co0 O13 2.244 . S
O1 Co0 2.216 . S
O1 C8 1.247 . S
O2 Co0 2.091 . S
O2 C8 1.261 . S
C3 O12 1.247 . S
C3 O13 1.272 . S
O4 Co0 2.004 . S
O4 C9 1.259 . S
Co5 O6 2.061 . S
Co5 O11 2.052 1_455 S
Co5 O13 2.135 . S
O6 Co5 2.061 . S
O6 C9 1.235 . S
C7 O10 1.238 . S
C7 O11 1.241 . S
C8 O1 1.247 . S
C8 O2 1.261 . S
C9 O4 1.259 . S
C9 O6 1.235 . S
O10 Co0 2.021 1_655 S
O10 C7 1.238 . S
O11 Co5 2.052 1_655 S
O11 C7 1.241 . S
O12 Co0 2.137 . S
O12 C3 1.247 . S
O13 Co0 2.244 . S
O13 C3 1.272 . S
O13 Co5 2.135 . S
Co14 O15 2.216 . S
Co14 O16 2.091 . S
Co14 O18 2.004 . S
Co14 O24 2.021 . S
Co14 O26 2.137 . S
Co14 O27 2.244 . S
O15 Co14 2.216 . S
O15 C22 1.247 . S
O16 Co14 2.091 . S
O16 C22 1.261 . S
C17 O26 1.247 . S
C17 O27 1.272 . S
O18 Co14 2.004 . S
O18 C23 1.259 . S
Co19 O20 2.061 . S
Co19 O25 2.052 . S
Co19 O27 2.135 . S
O20 Co19 2.061 . S
O20 C23 1.235 . S
C21 O24 1.238 . S
C21 O25 1.241 . S
C22 O15 1.247 . S
C22 O16 1.261 . S
C23 O18 1.259 . S
C23 O20 1.235 . S
O24 Co14 2.021 . S
O24 C21 1.238 . S
O25 Co19 2.052 . S
O25 C21 1.241 . S
O26 Co14 2.137 . S
O26 C17 1.247 . S
O27 Co14 2.244 . S
O27 C17 1.272 . S
O27 Co19 2.135 . S
Co28 O29 2.216 . S
Co28 O30 2.091 . S
Co28 O32 2.004 . S
Co28 O38 2.021 . S
Co28 O40 2.137 1_545 S
Co28 O41 2.244 1_545 S
O29 Co28 2.216 . S
O29 C36 1.247 . S
O30 Co28 2.091 . S
O30 C36 1.261 . S
C31 O40 1.247 . S
C31 O41 1.272 . S
O32 Co28 2.004 . S
O32 C37 1.259 . S
Co33 O34 2.061 . S
Co33 O39 2.052 . S
Co33 O41 2.135 1_545 S
O34 Co33 2.061 . S
O34 C37 1.235 . S
C35 O38 1.238 . S
C35 O39 1.241 . S
C36 O29 1.247 . S
C36 O30 1.261 . S
C37 O32 1.259 . S
C37 O34 1.235 . S
O38 Co28 2.021 . S
O38 C35 1.238 . S
O39 Co33 2.052 . S
O39 C35 1.241 . S
O40 Co28 2.137 1_565 S
O40 C31 1.247 . S
O41 Co28 2.244 1_565 S
O41 C31 1.272 . S
O41 Co33 2.135 1_565 S
Co42 O43 2.216 . S
Co42 O44 2.091 . S
Co42 O46 2.004 . S
Co42 O52 2.021 1_545 S
Co42 O54 2.137 . S
Co42 O55 2.244 . S
O43 Co42 2.216 . S
O43 C50 1.247 . S
O44 Co42 2.091 . S
O44 C50 1.261 . S
C45 O54 1.247 . S
C45 O55 1.272 . S
O46 Co42 2.004 . S
O46 C51 1.259 . S
Co47 O48 2.061 . S
Co47 O53 2.052 1_545 S
Co47 O55 2.135 . S
O48 Co47 2.061 . S
O48 C51 1.235 . S
C49 O52 1.238 . S
C49 O53 1.241 . S
C50 O43 1.247 . S
C50 O44 1.261 . S
C51 O46 1.259 . S
C51 O48 1.235 . S
O52 Co42 2.021 1_565 S
O52 C49 1.238 . S
O53 Co47 2.052 1_565 S
O53 C49 1.241 . S
O54 Co42 2.137 . S
O54 C45 1.247 . S
O55 Co42 2.244 . S
O55 C45 1.272 . S
O55 Co47 2.135 . S
Co56 O57 2.216 . S
Co56 O58 2.091 . S
Co56 O60 2.004 . S
Co56 O66 2.021 . S
Co56 O68 2.137 1_455 S
Co56 O69 2.244 1_455 S
O57 Co56 2.216 . S
O57 C64 1.247 . S
O58 Co56 2.091 . S
O58 C64 1.261 . S
C59 O68 1.247 . S
C59 O69 1.272 . S
O60 Co56 2.004 . S
O60 C65 1.259 . S
Co61 O62 2.061 . S
Co61 O67 2.052 . S
Co61 O69 2.135 1_455 S
O62 Co61 2.061 . S
O62 C65 1.235 . S
C63 O66 1.238 . S
C63 O67 1.241 . S
C64 O57 1.247 . S
C64 O58 1.261 . S
C65 O60 1.259 . S
C65 O62 1.235 . S
O66 Co56 2.021 . S
O66 C63 1.238 . S
O67 Co61 2.052 . S
O67 C63 1.241 . S
O68 Co56 2.137 1_655 S
O68 C59 1.247 . S
O69 Co56 2.244 1_655 S
O69 C59 1.272 . S
O69 Co61 2.135 1_655 S
Co70 O71 2.216 . S
Co70 O72 2.091 . S
Co70 O74 2.004 . S
Co70 O80 2.021 . S
Co70 O82 2.137 . S
Co70 O83 2.244 . S
O71 Co70 2.216 . S
O71 C78 1.247 . S
O72 Co70 2.091 . S
O72 C78 1.261 . S
C73 O82 1.247 . S
C73 O83 1.272 . S
O74 Co70 2.004 . S
O74 C79 1.259 . S
Co75 O76 2.061 . S
Co75 O81 2.052 . S
Co75 O83 2.135 . S
O76 Co75 2.061 . S
O76 C79 1.235 . S
C77 O80 1.238 . S
C77 O81 1.241 . S
C78 O71 1.247 . S
C78 O72 1.261 . S
C79 O74 1.259 . S
C79 O76 1.235 . S
O80 Co70 2.021 . S
O80 C77 1.238 . S
O81 Co75 2.052 . S
O81 C77 1.241 . S
O82 Co70 2.137 . S
O82 C73 1.247 . S
O83 Co70 2.244 . S
O83 C73 1.272 . S
O83 Co75 2.135 . S
Co84 O85 2.216 . S
Co84 O86 2.091 . S
Co84 O88 2.004 . S
Co84 O94 2.021 . S
Co84 O96 2.137 1_455 S
Co84 O97 2.244 1_455 S
O85 Co84 2.216 . S
O85 C92 1.247 . S
O86 Co84 2.091 . S
O86 C92 1.261 . S
C87 O96 1.247 . S
C87 O97 1.272 . S
O88 Co84 2.004 . S
O88 C93 1.259 . S
Co89 O90 2.061 . S
Co89 O95 2.052 . S
Co89 O97 2.135 1_455 S
O90 Co89 2.061 . S
O90 C93 1.235 . S
C91 O94 1.238 . S
C91 O95 1.241 . S
C92 O85 1.247 . S
C92 O86 1.261 . S
C93 O88 1.259 . S
C93 O90 1.235 . S
O94 Co84 2.021 . S
O94 C91 1.238 . S
O95 Co89 2.052 . S
O95 C91 1.241 . S
O96 Co84 2.137 1_655 S
O96 C87 1.247 . S
O97 Co84 2.244 1_655 S
O97 C87 1.272 . S
O97 Co89 2.135 1_655 S
Co98 O99 2.216 . S
Co98 O100 2.091 . S
Co98 O102 2.004 . S
Co98 O108 2.021 . S
Co98 O110 2.137 . S
Co98 O111 2.244 . S
O99 Co98 2.216 . S
O99 C106 1.247 . S
O100 Co98 2.091 . S
O100 C106 1.261 . S
C101 O110 1.247 . S
C101 O111 1.272 . S
O102 Co98 2.004 . S
O102 C107 1.259 . S
Co103 O104 2.061 . S
Co103 O109 2.052 . S
Co103 O111 2.135 . S
O104 Co103 2.061 . S
O104 C107 1.235 . S
C105 O108 1.238 . S
C105 O109 1.241 . S
C106 O99 1.247 . S
C106 O100 1.261 . S
C107 O102 1.259 . S
C107 O104 1.235 . S
O108 Co98 2.021 . S
O108 C105 1.238 . S
O109 Co103 2.052 . S
O109 C105 1.241 . S
O110 Co98 2.137 . S
O110 C101 1.247 . S
O111 Co98 2.244 . S
O111 C101 1.272 . S
O111 Co103 2.135 . S
Co112 O113 2.216 . S
Co112 O114 2.091 . S
Co112 O116 2.004 . S
Co112 O122 2.021 1_545 S
Co112 O124 2.137 . S
Co112 O125 2.244 . S
O113 Co112 2.216 . S
O113 C120 1.247 . S
O114 Co112 2.091 . S
O114 C120 1.261 . S
C115 O124 1.247 . S
C115 O125 1.272 . S
O116 Co112 2.004 . S
O116 C121 1.259 . S
Co117 O118 2.061 . S
Co117 O123 2.052 1_545 S
Co117 O125 2.135 . S
O118 Co117 2.061 . S
O118 C121 1.235 . S
C119 O122 1.238 . S
C119 O123 1.241 . S
C120 O113 1.247 . S
C120 O114 1.261 . S
C121 O116 1.259 . S
C121 O118 1.235 . S
O122 Co112 2.021 1_565 S
O122 C119 1.238 . S
O123 Co117 2.052 1_565 S
O123 C119 1.241 . S
O124 Co112 2.137 . S
O124 C115 1.247 . S
O125 Co112 2.244 . S
O125 C115 1.272 . S
O125 Co117 2.135 . S
Co126 O127 2.216 . S
Co126 O128 2.091 . S
Co126 O130 2.004 . S
Co126 O136 2.021 . S
Co126 O138 2.137 1_545 S
Co126 O139 2.244 1_545 S
O127 Co126 2.216 . S
O127 C134 1.247 . S
O128 Co126 2.091 . S
O128 C134 1.261 . S
C129 O138 1.247 . S
C129 O139 1.272 . S
O130 Co126 2.004 . S
O130 C135 1.259 . S
Co131 O132 2.061 . S
Co131 O137 2.052 . S
Co131 O139 2.135 1_545 S
O132 Co131 2.061 . S
O132 C135 1.235 . S
C133 O136 1.238 . S
C133 O137 1.241 . S
C134 O127 1.247 . S
C134 O128 1.261 . S
C135 O130 1.259 . S
C135 O132 1.235 . S
O136 Co126 2.021 . S
O136 C133 1.238 . S
O137 Co131 2.052 . S
O137 C133 1.241 . S
O138 Co126 2.137 1_565 S
O138 C129 1.247 . S
O139 Co126 2.244 1_565 S
O139 C129 1.272 . S
O139 Co131 2.135 1_565 S
Co140 O141 2.216 . S
Co140 O142 2.091 . S
Co140 O144 2.004 . S
Co140 O150 2.021 1_455 S
Co140 O152 2.137 . S
Co140 O153 2.244 . S
O141 Co140 2.216 . S
O141 C148 1.247 . S
O142 Co140 2.091 . S
O142 C148 1.261 . S
C143 O152 1.247 . S
C143 O153 1.272 . S
O144 Co140 2.004 . S
O144 C149 1.259 . S
Co145 O146 2.061 . S
Co145 O151 2.052 1_455 S
Co145 O153 2.135 . S
O146 Co145 2.061 . S
O146 C149 1.235 . S
C147 O150 1.238 . S
C147 O151 1.241 . S
C148 O141 1.247 . S
C148 O142 1.261 . S
C149 O144 1.259 . S
C149 O146 1.235 . S
O150 Co140 2.021 1_655 S
O150 C147 1.238 . S
O151 Co145 2.052 1_655 S
O151 C147 1.241 . S
O152 Co140 2.137 . S
O152 C143 1.247 . S
O153 Co140 2.244 . S
O153 C143 1.272 . S
O153 Co145 2.135 . S
Co154 O155 2.216 . S
Co154 O156 2.091 . S
Co154 O158 2.004 . S
Co154 O164 2.021 . S
Co154 O166 2.137 . S
Co154 O167 2.244 . S
O155 Co154 2.216 . S
O155 C162 1.247 . S
O156 Co154 2.091 . S
O156 C162 1.261 . S
C157 O166 1.247 . S
C157 O167 1.272 . S
O158 Co154 2.004 . S
O158 C163 1.259 . S
Co159 O160 2.061 . S
Co159 O165 2.052 . S
Co159 O167 2.135 . S
O160 Co159 2.061 . S
O160 C163 1.235 . S
C161 O164 1.238 . S
C161 O165 1.241 . S
C162 O155 1.247 . S
C162 O156 1.261 . S
C163 O158 1.259 . S
C163 O160 1.235 . S
O164 Co154 2.021 . S
O164 C161 1.238 . S
O165 Co159 2.052 . S
O165 C161 1.241 . S
O166 Co154 2.137 . S
O166 C157 1.247 . S
O167 Co154 2.244 . S
O167 C157 1.272 . S
O167 Co159 2.135 . S
Co168 O169 2.216 . S
Co168 O170 2.091 . S
Co168 O172 2.004 . S
Co168 O178 2.021 . S
Co168 O180 2.137 . S
Co168 O181 2.244 . S
O169 Co168 2.216 . S
O169 C176 1.247 . S
O170 Co168 2.091 . S
O170 C176 1.261 . S
C171 O180 1.247 . S
C171 O181 1.272 . S
O172 Co168 2.004 . S
O172 C177 1.259 . S
Co173 O174 2.061 . S
Co173 O179 2.052 . S
Co173 O181 2.135 . S
O174 Co173 2.061 . S
O174 C177 1.235 . S
C175 O178 1.238 . S
C175 O179 1.241 . S
C176 O169 1.247 . S
C176 O170 1.261 . S
C177 O172 1.259 . S
C177 O174 1.235 . S
O178 Co168 2.021 . S
O178 C175 1.238 . S
O179 Co173 2.052 . S
O179 C175 1.241 . S
O180 Co168 2.137 . S
O180 C171 1.247 . S
O181 Co168 2.244 . S
O181 C171 1.272 . S
O181 Co173 2.135 . S
Co182 O183 2.216 . S
Co182 O184 2.091 . S
Co182 O186 2.004 . S
Co182 O192 2.021 . S
Co182 O194 2.137 . S
Co182 O195 2.244 . S
O183 Co182 2.216 . S
O183 C190 1.247 . S
O184 Co182 2.091 . S
O184 C190 1.261 . S
C185 O194 1.247 . S
C185 O195 1.272 . S
O186 Co182 2.004 . S
O186 C191 1.259 . S
Co187 O188 2.061 . S
Co187 O193 2.052 . S
Co187 O195 2.135 . S
O188 Co187 2.061 . S
O188 C191 1.235 . S
C189 O192 1.238 . S
C189 O193 1.241 . S
C190 O183 1.247 . S
C190 O184 1.261 . S
C191 O186 1.259 . S
C191 O188 1.235 . S
O192 Co182 2.021 . S
O192 C189 1.238 . S
O193 Co187 2.052 . S
O193 C189 1.241 . S
O194 Co182 2.137 . S
O194 C185 1.247 . S
O195 Co182 2.244 . S
O195 C185 1.272 . S
O195 Co187 2.135 . S
Co196 O197 2.216 . S
Co196 O198 2.091 1_655 S
Co196 O200 2.004 1_655 S
Co196 O206 2.021 . S
Co196 O208 2.137 . S
Co196 O209 2.244 . S
O197 Co196 2.216 . S
O197 C204 1.247 1_655 S
O198 Co196 2.091 1_455 S
O198 C204 1.261 . S
C199 O208 1.247 . S
C199 O209 1.272 . S
O200 Co196 2.004 1_455 S
O200 C205 1.259 1_455 S
Co201 O202 2.061 . S
Co201 O207 2.052 . S
Co201 O209 2.135 . S
O202 Co201 2.061 . S
O202 C205 1.235 . S
C203 O206 1.238 . S
C203 O207 1.241 . S
C204 O197 1.247 1_455 S
C204 O198 1.261 . S
C205 O200 1.259 1_655 S
C205 O202 1.235 . S
O206 Co196 2.021 . S
O206 C203 1.238 . S
O207 Co201 2.052 . S
O207 C203 1.241 . S
O208 Co196 2.137 . S
O208 C199 1.247 . S
O209 Co196 2.244 . S
O209 C199 1.272 . S
O209 Co201 2.135 . S
Co210 O211 2.216 . S
Co210 O212 2.091 1_655 S
Co210 O214 2.004 1_655 S
Co210 O220 2.021 . S
Co210 O222 2.137 1_655 S
Co210 O223 2.244 . S
O211 Co210 2.216 . S
O211 C218 1.247 1_655 S
O212 Co210 2.091 1_455 S
O212 C218 1.261 . S
C213 O222 1.247 1_655 S
C213 O223 1.272 . S
O214 Co210 2.004 1_455 S
O214 C219 1.259 1_455 S
Co215 O216 2.061 . S
Co215 O221 2.052 . S
Co215 O223 2.135 . S
O216 Co215 2.061 . S
O216 C219 1.235 . S
C217 O220 1.238 . S
C217 O221 1.241 . S
C218 O211 1.247 1_455 S
C218 O212 1.261 . S
C219 O214 1.259 1_655 S
C219 O216 1.235 . S
O220 Co210 2.021 . S
O220 C217 1.238 . S
O221 Co215 2.052 . S
O221 C217 1.241 . S
O222 Co210 2.137 1_455 S
O222 C213 1.247 1_455 S
O223 Co210 2.244 . S
O223 C213 1.272 . S
O223 Co215 2.135 . S
Co224 O225 2.216 . S
Co224 O226 2.091 . S
Co224 O228 2.004 . S
Co224 O234 2.021 . S
Co224 O236 2.137 . S
Co224 O237 2.244 . S
O225 Co224 2.216 . S
O225 C232 1.247 . S
O226 Co224 2.091 . S
O226 C232 1.261 . S
C227 O236 1.247 . S
C227 O237 1.272 . S
O228 Co224 2.004 . S
O228 C233 1.259 . S
Co229 O230 2.061 . S
Co229 O235 2.052 . S
Co229 O237 2.135 . S
O230 Co229 2.061 . S
O230 C233 1.235 . S
C231 O234 1.238 . S
C231 O235 1.241 . S
C232 O225 1.247 . S
C232 O226 1.261 . S
C233 O228 1.259 . S
C233 O230 1.235 . S
O234 Co224 2.021 . S
O234 C231 1.238 . S
O235 Co229 2.052 . S
O235 C231 1.241 . S
O236 Co224 2.137 . S
O236 C227 1.247 . S
O237 Co224 2.244 . S
O237 C227 1.272 . S
O237 Co229 2.135 . S
Co238 O239 2.216 . S
Co238 O240 2.091 . S
Co238 O242 2.004 . S
Co238 O248 2.021 . S
Co238 O250 2.137 . S
Co238 O251 2.244 . S
O239 Co238 2.216 . S
O239 C246 1.247 . S
O240 Co238 2.091 . S
O240 C246 1.261 . S
C241 O250 1.247 . S
C241 O251 1.272 . S
O242 Co238 2.004 . S
O242 C247 1.259 . S
Co243 O244 2.061 . S
Co243 O249 2.052 . S
Co243 O251 2.135 . S
O244 Co243 2.061 . S
O244 C247 1.235 . S
C245 O248 1.238 . S
C245 O249 1.241 . S
C246 O239 1.247 . S
C246 O240 1.261 . S
C247 O242 1.259 . S
C247 O244 1.235 . S
O248 Co238 2.021 . S
O248 C245 1.238 . S
O249 Co243 2.052 . S
O249 C245 1.241 . S
O250 Co238 2.137 . S
O250 C241 1.247 . S
O251 Co238 2.244 . S
O251 C241 1.272 . S
O251 Co243 2.135 . S
Co252 O253 2.216 . S
Co252 O254 2.091 . S
Co252 O256 2.004 . S
Co252 O262 2.021 . S
Co252 O264 2.137 . S
Co252 O265 2.244 . S
O253 Co252 2.216 . S
O253 C260 1.247 . S
O254 Co252 2.091 . S
O254 C260 1.261 . S
C255 O264 1.247 . S
C255 O265 1.272 . S
O256 Co252 2.004 . S
O256 C261 1.259 . S
Co257 O258 2.061 . S
Co257 O263 2.052 . S
Co257 O265 2.135 . S
O258 Co257 2.061 . S
O258 C261 1.235 . S
C259 O262 1.238 . S
C259 O263 1.241 . S
C260 O253 1.247 . S
C260 O254 1.261 . S
C261 O256 1.259 . S
C261 O258 1.235 . S
O262 Co252 2.021 . S
O262 C259 1.238 . S
O263 Co257 2.052 . S
O263 C259 1.241 . S
O264 Co252 2.137 . S
O264 C255 1.247 . S
O265 Co252 2.244 . S
O265 C255 1.272 . S
O265 Co257 2.135 . S
Co266 O267 2.216 . S
Co266 O268 2.091 1_655 S
Co266 O270 2.004 1_655 S
Co266 O276 2.021 . S
Co266 O278 2.137 1_655 S
Co266 O279 2.244 . S
O267 Co266 2.216 . S
O267 C274 1.247 1_655 S
O268 Co266 2.091 1_455 S
O268 C274 1.261 . S
C269 O278 1.247 1_655 S
C269 O279 1.272 . S
O270 Co266 2.004 1_455 S
O270 C275 1.259 1_455 S
Co271 O272 2.061 . S
Co271 O277 2.052 . S
Co271 O279 2.135 . S
O272 Co271 2.061 . S
O272 C275 1.235 . S
C273 O276 1.238 . S
C273 O277 1.241 . S
C274 O267 1.247 1_455 S
C274 O268 1.261 . S
C275 O270 1.259 1_655 S
C275 O272 1.235 . S
O276 Co266 2.021 . S
O276 C273 1.238 . S
O277 Co271 2.052 . S
O277 C273 1.241 . S
O278 Co266 2.137 1_455 S
O278 C269 1.247 1_455 S
O279 Co266 2.244 . S
O279 C269 1.272 . S
O279 Co271 2.135 . S
Co280 O281 2.216 . S
Co280 O282 2.091 . S
Co280 O284 2.004 . S
Co280 O290 2.021 . S
Co280 O292 2.137 . S
Co280 O293 2.244 . S
O281 Co280 2.216 . S
O281 C288 1.247 . S
O282 Co280 2.091 . S
O282 C288 1.261 . S
C283 O292 1.247 . S
C283 O293 1.272 . S
O284 Co280 2.004 . S
O284 C289 1.259 . S
Co285 O286 2.061 . S
Co285 O291 2.052 . S
Co285 O293 2.135 . S
O286 Co285 2.061 . S
O286 C289 1.235 . S
C287 O290 1.238 . S
C287 O291 1.241 . S
C288 O281 1.247 . S
C288 O282 1.261 . S
C289 O284 1.259 . S
C289 O286 1.235 . S
O290 Co280 2.021 . S
O290 C287 1.238 . S
O291 Co285 2.052 . S
O291 C287 1.241 . S
O292 Co280 2.137 . S
O292 C283 1.247 . S
O293 Co280 2.244 . S
O293 C283 1.272 . S
O293 Co285 2.135 . S
Co294 O295 2.216 . S
Co294 O296 2.091 . S
Co294 O298 2.004 . S
Co294 O304 2.021 . S
Co294 O306 2.137 . S
Co294 O307 2.244 . S
O295 Co294 2.216 . S
O295 C302 1.247 . S
O296 Co294 2.091 . S
O296 C302 1.261 . S
C297 O306 1.247 . S
C297 O307 1.272 . S
O298 Co294 2.004 . S
O298 C303 1.259 . S
Co299 O300 2.061 . S
Co299 O305 2.052 . S
Co299 O307 2.135 . S
O300 Co299 2.061 . S
O300 C303 1.235 . S
C301 O304 1.238 . S
C301 O305 1.241 . S
C302 O295 1.247 . S
C302 O296 1.261 . S
C303 O298 1.259 . S
C303 O300 1.235 . S
O304 Co294 2.021 . S
O304 C301 1.238 . S
O305 Co299 2.052 . S
O305 C301 1.241 . S
O306 Co294 2.137 . S
O306 C297 1.247 . S
O307 Co294 2.244 . S
O307 C297 1.272 . S
O307 Co299 2.135 . S
Co308 O309 2.216 . S
Co308 O310 2.091 . S
Co308 O312 2.004 . S
Co308 O318 2.021 . S
Co308 O320 2.137 . S
Co308 O321 2.244 . S
O309 Co308 2.216 . S
O309 C316 1.247 . S
O310 Co308 2.091 . S
O310 C316 1.261 . S
C311 O320 1.247 . S
C311 O321 1.272 . S
O312 Co308 2.004 . S
O312 C317 1.259 . S
Co313 O314 2.061 . S
Co313 O319 2.052 . S
Co313 O321 2.135 . S
O314 Co313 2.061 . S
O314 C317 1.235 . S
C315 O318 1.238 . S
C315 O319 1.241 . S
C316 O309 1.247 . S
C316 O310 1.261 . S
C317 O312 1.259 . S
C317 O314 1.235 . S
O318 Co308 2.021 . S
O318 C315 1.238 . S
O319 Co313 2.052 . S
O319 C315 1.241 . S
O320 Co308 2.137 . S
O320 C311 1.247 . S
O321 Co308 2.244 . S
O321 C311 1.272 . S
O321 Co313 2.135 . S
Co322 O323 2.216 . S
Co322 O324 2.091 1_655 S
Co322 O326 2.004 1_655 S
Co322 O332 2.021 . S
Co322 O334 2.137 . S
Co322 O335 2.244 . S
O323 Co322 2.216 . S
O323 C330 1.247 1_655 S
O324 Co322 2.091 1_455 S
O324 C330 1.261 . S
C325 O334 1.247 . S
C325 O335 1.272 . S
O326 Co322 2.004 1_455 S
O326 C331 1.259 1_455 S
Co327 O328 2.061 . S
Co327 O333 2.052 . S
Co327 O335 2.135 . S
O328 Co327 2.061 . S
O328 C331 1.235 . S
C329 O332 1.238 . S
C329 O333 1.241 . S
C330 O323 1.247 1_455 S
C330 O324 1.261 . S
C331 O326 1.259 1_655 S
C331 O328 1.235 . S
O332 Co322 2.021 . S
O332 C329 1.238 . S
O333 Co327 2.052 . S
O333 C329 1.241 . S
O334 Co322 2.137 . S
O334 C325 1.247 . S
O335 Co322 2.244 . S
O335 C325 1.272 . S
O335 Co327 2.135 . S
Co336 O337 2.216 . S
Co336 O338 2.091 1_565 S
Co336 O340 2.004 1_565 S
Co336 O346 2.021 . S
Co336 O348 2.137 1_565 S
Co336 O349 2.244 . S
O337 Co336 2.216 . S
O337 C344 1.247 1_565 S
O338 Co336 2.091 1_545 S
O338 C344 1.261 . S
C339 O348 1.247 1_565 S
C339 O349 1.272 . S
O340 Co336 2.004 1_545 S
O340 C345 1.259 1_545 S
Co341 O342 2.061 . S
Co341 O347 2.052 . S
Co341 O349 2.135 . S
O342 Co341 2.061 . S
O342 C345 1.235 . S
C343 O346 1.238 . S
C343 O347 1.241 . S
C344 O337 1.247 1_545 S
C344 O338 1.261 . S
C345 O340 1.259 1_565 S
C345 O342 1.235 . S
O346 Co336 2.021 . S
O346 C343 1.238 . S
O347 Co341 2.052 . S
O347 C343 1.241 . S
O348 Co336 2.137 1_545 S
O348 C339 1.247 1_545 S
O349 Co336 2.244 . S
O349 C339 1.272 . S
O349 Co341 2.135 . S
Co350 O351 2.216 . S
Co350 O352 2.091 . S
Co350 O354 2.004 . S
Co350 O360 2.021 . S
Co350 O362 2.137 . S
Co350 O363 2.244 . S
O351 Co350 2.216 . S
O351 C358 1.247 . S
O352 Co350 2.091 . S
O352 C358 1.261 . S
C353 O362 1.247 . S
C353 O363 1.272 . S
O354 Co350 2.004 . S
O354 C359 1.259 . S
Co355 O356 2.061 . S
Co355 O361 2.052 . S
Co355 O363 2.135 . S
O356 Co355 2.061 . S
O356 C359 1.235 . S
C357 O360 1.238 . S
C357 O361 1.241 . S
C358 O351 1.247 . S
C358 O352 1.261 . S
C359 O354 1.259 . S
C359 O356 1.235 . S
O360 Co350 2.021 . S
O360 C357 1.238 . S
O361 Co355 2.052 . S
O361 C357 1.241 . S
O362 Co350 2.137 . S
O362 C353 1.247 . S
O363 Co350 2.244 . S
O363 C353 1.272 . S
O363 Co355 2.135 . S
Co364 O365 2.216 . S
Co364 O366 2.091 . S
Co364 O368 2.004 . S
Co364 O374 2.021 . S
Co364 O376 2.137 . S
Co364 O377 2.244 . S
O365 Co364 2.216 . S
O365 C372 1.247 . S
O366 Co364 2.091 . S
O366 C372 1.261 . S
C367 O376 1.247 . S
C367 O377 1.272 . S
O368 Co364 2.004 . S
O368 C373 1.259 . S
Co369 O370 2.061 . S
Co369 O375 2.052 . S
Co369 O377 2.135 . S
O370 Co369 2.061 . S
O370 C373 1.235 . S
C371 O374 1.238 . S
C371 O375 1.241 . S
C372 O365 1.247 . S
C372 O366 1.261 . S
C373 O368 1.259 . S
C373 O370 1.235 . S
O374 Co364 2.021 . S
O374 C371 1.238 . S
O375 Co369 2.052 . S
O375 C371 1.241 . S
O376 Co364 2.137 . S
O376 C367 1.247 . S
O377 Co364 2.244 . S
O377 C367 1.272 . S
O377 Co369 2.135 . S
Co378 O379 2.216 . S
Co378 O380 2.091 . S
Co378 O382 2.004 . S
Co378 O388 2.021 . S
Co378 O390 2.137 . S
Co378 O391 2.244 . S
O379 Co378 2.216 . S
O379 C386 1.247 . S
O380 Co378 2.091 . S
O380 C386 1.261 . S
C381 O390 1.247 . S
C381 O391 1.272 . S
O382 Co378 2.004 . S
O382 C387 1.259 . S
Co383 O384 2.061 . S
Co383 O389 2.052 . S
Co383 O391 2.135 . S
O384 Co383 2.061 . S
O384 C387 1.235 . S
C385 O388 1.238 . S
C385 O389 1.241 . S
C386 O379 1.247 . S
C386 O380 1.261 . S
C387 O382 1.259 . S
C387 O384 1.235 . S
O388 Co378 2.021 . S
O388 C385 1.238 . S
O389 Co383 2.052 . S
O389 C385 1.241 . S
O390 Co378 2.137 . S
O390 C381 1.247 . S
O391 Co378 2.244 . S
O391 C381 1.272 . S
O391 Co383 2.135 . S
Co392 O393 2.216 . S
Co392 O394 2.091 1_565 S
Co392 O396 2.004 1_565 S
Co392 O402 2.021 . S
Co392 O404 2.137 . S
Co392 O405 2.244 . S
O393 Co392 2.216 . S
O393 C400 1.247 1_565 S
O394 Co392 2.091 1_545 S
O394 C400 1.261 . S
C395 O404 1.247 . S
C395 O405 1.272 . S
O396 Co392 2.004 1_545 S
O396 C401 1.259 1_545 S
Co397 O398 2.061 . S
Co397 O403 2.052 . S
Co397 O405 2.135 . S
O398 Co397 2.061 . S
O398 C401 1.235 . S
C399 O402 1.238 . S
C399 O403 1.241 . S
C400 O393 1.247 1_545 S
C400 O394 1.261 . S
C401 O396 1.259 1_565 S
C401 O398 1.235 . S
O402 Co392 2.021 . S
O402 C399 1.238 . S
O403 Co397 2.052 . S
O403 C399 1.241 . S
O404 Co392 2.137 . S
O404 C395 1.247 . S
O405 Co392 2.244 . S
O405 C395 1.272 . S
O405 Co397 2.135 . S
Co406 O407 2.216 . S
Co406 O408 2.091 . S
Co406 O410 2.004 . S
Co406 O416 2.021 . S
Co406 O418 2.137 . S
Co406 O419 2.244 . S
O407 Co406 2.216 . S
O407 C414 1.247 . S
O408 Co406 2.091 . S
O408 C414 1.261 . S
C409 O418 1.247 . S
C409 O419 1.272 . S
O410 Co406 2.004 . S
O410 C415 1.259 . S
Co411 O412 2.061 . S
Co411 O417 2.052 . S
Co411 O419 2.135 . S
O412 Co411 2.061 . S
O412 C415 1.235 . S
C413 O416 1.238 . S
C413 O417 1.241 . S
C414 O407 1.247 . S
C414 O408 1.261 . S
C415 O410 1.259 . S
C415 O412 1.235 . S
O416 Co406 2.021 . S
O416 C413 1.238 . S
O417 Co411 2.052 . S
O417 C413 1.241 . S
O418 Co406 2.137 . S
O418 C409 1.247 . S
O419 Co406 2.244 . S
O419 C409 1.272 . S
O419 Co411 2.135 . S
Co420 O421 2.216 . S
Co420 O422 2.091 . S
Co420 O424 2.004 . S
Co420 O430 2.021 . S
Co420 O432 2.137 . S
Co420 O433 2.244 . S
O421 Co420 2.216 . S
O421 C428 1.247 . S
O422 Co420 2.091 . S
O422 C428 1.261 . S
C423 O432 1.247 . S
C423 O433 1.272 . S
O424 Co420 2.004 . S
O424 C429 1.259 . S
Co425 O426 2.061 . S
Co425 O431 2.052 . S
Co425 O433 2.135 . S
O426 Co425 2.061 . S
O426 C429 1.235 . S
C427 O430 1.238 . S
C427 O431 1.241 . S
C428 O421 1.247 . S
C428 O422 1.261 . S
C429 O424 1.259 . S
C429 O426 1.235 . S
O430 Co420 2.021 . S
O430 C427 1.238 . S
O431 Co425 2.052 . S
O431 C427 1.241 . S
O432 Co420 2.137 . S
O432 C423 1.247 . S
O433 Co420 2.244 . S
O433 C423 1.272 . S
O433 Co425 2.135 . S
Co434 O435 2.216 . S
Co434 O436 2.091 1_565 S
Co434 O438 2.004 1_565 S
Co434 O444 2.021 . S
Co434 O446 2.137 . S
Co434 O447 2.244 . S
O435 Co434 2.216 . S
O435 C442 1.247 1_565 S
O436 Co434 2.091 1_545 S
O436 C442 1.261 . S
C437 O446 1.247 . S
C437 O447 1.272 . S
O438 Co434 2.004 1_545 S
O438 C443 1.259 1_545 S
Co439 O440 2.061 . S
Co439 O445 2.052 . S
Co439 O447 2.135 . S
O440 Co439 2.061 . S
O440 C443 1.235 . S
C441 O444 1.238 . S
C441 O445 1.241 . S
C442 O435 1.247 1_545 S
C442 O436 1.261 . S
C443 O438 1.259 1_565 S
C443 O440 1.235 . S
O444 Co434 2.021 . S
O444 C441 1.238 . S
O445 Co439 2.052 . S
O445 C441 1.241 . S
O446 Co434 2.137 . S
O446 C437 1.247 . S
O447 Co434 2.244 . S
O447 C437 1.272 . S
O447 Co439 2.135 . S
Co448 O449 2.216 . S
Co448 O450 2.091 . S
Co448 O452 2.004 . S
Co448 O458 2.021 . S
Co448 O460 2.137 . S
Co448 O461 2.244 . S
O449 Co448 2.216 . S
O449 C456 1.247 . S
O450 Co448 2.091 . S
O450 C456 1.261 . S
C451 O460 1.247 . S
C451 O461 1.272 . S
O452 Co448 2.004 . S
O452 C457 1.259 . S
Co453 O454 2.061 . S
Co453 O459 2.052 . S
Co453 O461 2.135 . S
O454 Co453 2.061 . S
O454 C457 1.235 . S
C455 O458 1.238 . S
C455 O459 1.241 . S
C456 O449 1.247 . S
C456 O450 1.261 . S
C457 O452 1.259 . S
C457 O454 1.235 . S
O458 Co448 2.021 . S
O458 C455 1.238 . S
O459 Co453 2.052 . S
O459 C455 1.241 . S
O460 Co448 2.137 . S
O460 C451 1.247 . S
O461 Co448 2.244 . S
O461 C451 1.272 . S
O461 Co453 2.135 . S
Co462 O463 2.216 . S
Co462 O464 2.091 . S
Co462 O466 2.004 . S
Co462 O472 2.021 . S
Co462 O474 2.137 . S
Co462 O475 2.244 . S
O463 Co462 2.216 . S
O463 C470 1.247 . S
O464 Co462 2.091 . S
O464 C470 1.261 . S
C465 O474 1.247 . S
C465 O475 1.272 . S
O466 Co462 2.004 . S
O466 C471 1.259 . S
Co467 O468 2.061 . S
Co467 O473 2.052 . S
Co467 O475 2.135 . S
O468 Co467 2.061 . S
O468 C471 1.235 . S
C469 O472 1.238 . S
C469 O473 1.241 . S
C470 O463 1.247 . S
C470 O464 1.261 . S
C471 O466 1.259 . S
C471 O468 1.235 . S
O472 Co462 2.021 . S
O472 C469 1.238 . S
O473 Co467 2.052 . S
O473 C469 1.241 . S
O474 Co462 2.137 . S
O474 C465 1.247 . S
O475 Co462 2.244 . S
O475 C465 1.272 . S
O475 Co467 2.135 . S
Co476 O477 2.216 . S
Co476 O478 2.091 . S
Co476 O480 2.004 . S
Co476 O486 2.021 . S
Co476 O488 2.137 . S
Co476 O489 2.244 . S
O477 Co476 2.216 . S
O477 C484 1.247 . S
O478 Co476 2.091 . S
O478 C484 1.261 . S
C479 O488 1.247 . S
C479 O489 1.272 . S
O480 Co476 2.004 . S
O480 C485 1.259 . S
Co481 O482 2.061 . S
Co481 O487 2.052 . S
Co481 O489 2.135 . S
O482 Co481 2.061 . S
O482 C485 1.235 . S
C483 O486 1.238 . S
C483 O487 1.241 . S
C484 O477 1.247 . S
C484 O478 1.261 . S
C485 O480 1.259 . S
C485 O482 1.235 . S
O486 Co476 2.021 . S
O486 C483 1.238 . S
O487 Co481 2.052 . S
O487 C483 1.241 . S
O488 Co476 2.137 . S
O488 C479 1.247 . S
O489 Co476 2.244 . S
O489 C479 1.272 . S
O489 Co481 2.135 . S
Co490 O491 2.216 . S
Co490 O492 2.091 1_565 S
Co490 O494 2.004 1_565 S
Co490 O500 2.021 . S
Co490 O502 2.137 1_565 S
Co490 O503 2.244 . S
O491 Co490 2.216 . S
O491 C498 1.247 1_565 S
O492 Co490 2.091 1_545 S
O492 C498 1.261 . S
C493 O502 1.247 1_565 S
C493 O503 1.272 . S
O494 Co490 2.004 1_545 S
O494 C499 1.259 1_545 S
Co495 O496 2.061 . S
Co495 O501 2.052 . S
Co495 O503 2.135 . S
O496 Co495 2.061 . S
O496 C499 1.235 . S
C497 O500 1.238 . S
C497 O501 1.241 . S
C498 O491 1.247 1_545 S
C498 O492 1.261 . S
C499 O494 1.259 1_565 S
C499 O496 1.235 . S
O500 Co490 2.021 . S
O500 C497 1.238 . S
O501 Co495 2.052 . S
O501 C497 1.241 . S
O502 Co490 2.137 1_545 S
O502 C493 1.247 1_545 S
O503 Co490 2.244 . S
O503 C493 1.272 . S
O503 Co495 2.135 . S
C504 C505 1.363 . S
C504 C510 1.379 . S
C504 N512 1.356 . S
C505 C504 1.363 . S
C505 C511 1.363 . S
C506 C507 1.363 . S
C506 C511 1.379 . S
C506 N513 1.356 . S
C507 C506 1.363 . S
C507 C510 1.363 . S
N508 C510 1.356 . S
N508 H520 0.984 . S
N508 H521 0.985 . S
N509 C511 1.356 . S
N509 H514 0.984 . S
N509 H515 0.985 . S
C510 C504 1.379 . S
C510 C507 1.363 . S
C510 N508 1.356 . S
C511 C505 1.363 . S
C511 C506 1.379 . S
C511 N509 1.356 . S
N512 C504 1.356 . S
N512 H518 0.984 . S
N512 H519 0.984 . S
N513 C506 1.356 . S
N513 H516 0.984 . S
N513 H517 0.985 . S
H514 N509 0.984 . S
H515 N509 0.985 . S
H516 N513 0.984 . S
H517 N513 0.985 . S
H518 N512 0.984 . S
H519 N512 0.984 . S
H520 N508 0.984 . S
H521 N508 0.985 . S
C522 C523 1.363 . S
C522 C528 1.379 . S
C522 N530 1.356 . S
C523 C522 1.363 . S
C523 C529 1.363 . S
C524 C525 1.363 . S
C524 C529 1.379 . S
C524 N531 1.356 . S
C525 C524 1.363 . S
C525 C528 1.363 . S
N526 C528 1.356 . S
N526 H538 0.984 . S
N526 H539 0.985 . S
N527 C529 1.356 . S
N527 H532 0.984 . S
N527 H533 0.985 . S
C528 C522 1.379 . S
C528 C525 1.363 . S
C528 N526 1.356 . S
C529 C523 1.363 . S
C529 C524 1.379 . S
C529 N527 1.356 . S
N530 C522 1.356 . S
N530 H536 0.984 . S
N530 H537 0.984 . S
N531 C524 1.356 . S
N531 H534 0.984 . S
N531 H535 0.985 . S
H532 N527 0.984 . S
H533 N527 0.985 . S
H534 N531 0.984 . S
H535 N531 0.985 . S
H536 N530 0.984 . S
H537 N530 0.984 . S
H538 N526 0.984 . S
H539 N526 0.985 . S
C540 C541 1.363 . S
C540 C546 1.379 . S
C540 N548 1.356 . S
C541 C540 1.363 . S
C541 C547 1.363 . S
C542 C543 1.363 . S
C542 C547 1.379 . S
C542 N549 1.356 . S
C543 C542 1.363 . S
C543 C546 1.363 . S
N544 C546 1.356 . S
N544 H556 0.984 . S
N544 H557 0.985 . S
N545 C547 1.356 . S
N545 H550 0.984 . S
N545 H551 0.985 . S
C546 C540 1.379 . S
C546 C543 1.363 . S
C546 N544 1.356 . S
C547 C541 1.363 . S
C547 C542 1.379 . S
C547 N545 1.356 . S
N548 C540 1.356 . S
N548 H554 0.984 . S
N548 H555 0.984 . S
N549 C542 1.356 . S
N549 H552 0.984 . S
N549 H553 0.985 . S
H550 N545 0.984 . S
H551 N545 0.985 . S
H552 N549 0.984 . S
H553 N549 0.985 . S
H554 N548 0.984 . S
H555 N548 0.984 . S
H556 N544 0.984 . S
H557 N544 0.985 . S
C558 C559 1.363 . S
C558 C564 1.379 . S
C558 N566 1.356 . S
C559 C558 1.363 . S
C559 C565 1.363 . S
C560 C561 1.363 . S
C560 C565 1.379 . S
C560 N567 1.356 . S
C561 C560 1.363 . S
C561 C564 1.363 . S
N562 C564 1.356 . S
N562 H574 0.984 . S
N562 H575 0.985 . S
N563 C565 1.356 . S
N563 H568 0.984 . S
N563 H569 0.985 . S
C564 C558 1.379 . S
C564 C561 1.363 . S
C564 N562 1.356 . S
C565 C559 1.363 . S
C565 C560 1.379 . S
C565 N563 1.356 . S
N566 C558 1.356 . S
N566 H572 0.984 . S
N566 H573 0.984 . S
N567 C560 1.356 . S
N567 H570 0.984 . S
N567 H571 0.985 . S
H568 N563 0.984 . S
H569 N563 0.985 . S
H570 N567 0.984 . S
H571 N567 0.985 . S
H572 N566 0.984 . S
H573 N566 0.984 . S
H574 N562 0.984 . S
H575 N562 0.985 . S
C576 C577 1.363 . S
C576 C582 1.379 . S
C576 N584 1.356 . S
C577 C576 1.363 . S
C577 C583 1.363 . S
C578 C579 1.363 . S
C578 C583 1.379 . S
C578 N585 1.356 . S
C579 C578 1.363 . S
C579 C582 1.363 . S
N580 C582 1.356 . S
N580 H592 0.984 . S
N580 H593 0.985 . S
N581 C583 1.356 . S
N581 H586 0.984 . S
N581 H587 0.985 . S
C582 C576 1.379 . S
C582 C579 1.363 . S
C582 N580 1.356 . S
C583 C577 1.363 . S
C583 C578 1.379 . S
C583 N581 1.356 . S
N584 C576 1.356 . S
N584 H590 0.984 . S
N584 H591 0.984 . S
N585 C578 1.356 . S
N585 H588 0.984 . S
N585 H589 0.985 . S
H586 N581 0.984 . S
H587 N581 0.985 . S
H588 N585 0.984 . S
H589 N585 0.985 . S
H590 N584 0.984 . S
H591 N584 0.984 . S
H592 N580 0.984 . S
H593 N580 0.985 . S
C594 C595 1.363 . S
C594 C600 1.379 . S
C594 N602 1.356 . S
C595 C594 1.363 . S
C595 C601 1.363 . S
C596 C597 1.363 . S
C596 C601 1.379 . S
C596 N603 1.356 . S
C597 C596 1.363 . S
C597 C600 1.363 . S
N598 C600 1.356 . S
N598 H610 0.984 . S
N598 H611 0.985 . S
N599 C601 1.356 . S
N599 H604 0.984 . S
N599 H605 0.985 . S
C600 C594 1.379 . S
C600 C597 1.363 . S
C600 N598 1.356 . S
C601 C595 1.363 . S
C601 C596 1.379 . S
C601 N599 1.356 . S
N602 C594 1.356 . S
N602 H608 0.984 . S
N602 H609 0.984 . S
N603 C596 1.356 . S
N603 H606 0.984 . S
N603 H607 0.985 . S
H604 N599 0.984 . S
H605 N599 0.985 . S
H606 N603 0.984 . S
H607 N603 0.985 . S
H608 N602 0.984 . S
H609 N602 0.984 . S
H610 N598 0.984 . S
H611 N598 0.985 . S
C612 C613 1.363 . S
C612 C618 1.379 . S
C612 N620 1.356 . S
C613 C612 1.363 . S
C613 C619 1.363 . S
C614 C615 1.363 . S
C614 C619 1.379 . S
C614 N621 1.356 . S
C615 C614 1.363 . S
C615 C618 1.363 . S
N616 C618 1.356 . S
N616 H628 0.984 . S
N616 H629 0.985 . S
N617 C619 1.356 . S
N617 H622 0.984 . S
N617 H623 0.985 . S
C618 C612 1.379 . S
C618 C615 1.363 . S
C618 N616 1.356 . S
C619 C613 1.363 . S
C619 C614 1.379 . S
C619 N617 1.356 . S
N620 C612 1.356 . S
N620 H626 0.984 . S
N620 H627 0.984 . S
N621 C614 1.356 . S
N621 H624 0.984 . S
N621 H625 0.985 . S
H622 N617 0.984 . S
H623 N617 0.985 . S
H624 N621 0.984 . S
H625 N621 0.985 . S
H626 N620 0.984 . S
H627 N620 0.984 . S
H628 N616 0.984 . S
H629 N616 0.985 . S
C630 C631 1.363 . S
C630 C636 1.379 . S
C630 N638 1.356 . S
C631 C630 1.363 . S
C631 C637 1.363 . S
C632 C633 1.363 . S
C632 C637 1.379 . S
C632 N639 1.356 . S
C633 C632 1.363 . S
C633 C636 1.363 . S
N634 C636 1.356 . S
N634 H646 0.984 . S
N634 H647 0.985 . S
N635 C637 1.356 . S
N635 H640 0.984 . S
N635 H641 0.985 . S
C636 C630 1.379 . S
C636 C633 1.363 . S
C636 N634 1.356 . S
C637 C631 1.363 . S
C637 C632 1.379 . S
C637 N635 1.356 . S
N638 C630 1.356 . S
N638 H644 0.984 . S
N638 H645 0.984 . S
N639 C632 1.356 . S
N639 H642 0.984 . S
N639 H643 0.985 . S
H640 N635 0.984 . S
H641 N635 0.985 . S
H642 N639 0.984 . S
H643 N639 0.985 . S
H644 N638 0.984 . S
H645 N638 0.984 . S
H646 N634 0.984 . S
H647 N634 0.985 . S
C648 C649 1.363 . S
C648 C654 1.379 . S
C648 N656 1.356 . S
C649 C648 1.363 . S
C649 C655 1.363 . S
C650 C651 1.363 . S
C650 C655 1.379 . S
C650 N657 1.356 . S
C651 C650 1.363 . S
C651 C654 1.363 . S
N652 C654 1.356 . S
N652 H664 0.984 . S
N652 H665 0.985 . S
N653 C655 1.356 . S
N653 H658 0.984 . S
N653 H659 0.985 . S
C654 C648 1.379 . S
C654 C651 1.363 . S
C654 N652 1.356 . S
C655 C649 1.363 . S
C655 C650 1.379 . S
C655 N653 1.356 . S
N656 C648 1.356 . S
N656 H662 0.984 . S
N656 H663 0.984 . S
N657 C650 1.356 . S
N657 H660 0.984 . S
N657 H661 0.985 . S
H658 N653 0.984 . S
H659 N653 0.985 . S
H660 N657 0.984 . S
H661 N657 0.985 . S
H662 N656 0.984 . S
H663 N656 0.984 . S
H664 N652 0.984 . S
H665 N652 0.985 . S
C666 C667 1.363 . S
C666 C672 1.379 . S
C666 N674 1.356 . S
C667 C666 1.363 . S
C667 C673 1.363 1_655 S
C668 C669 1.363 1_455 S
C668 C673 1.379 . S
C668 N675 1.356 . S
C669 C668 1.363 1_655 S
C669 C672 1.363 . S
N670 C672 1.356 . S
N670 H682 0.984 . S
N670 H683 0.985 . S
N671 C673 1.356 . S
N671 H676 0.984 . S
N671 H677 0.985 . S
C672 C666 1.379 . S
C672 C669 1.363 . S
C672 N670 1.356 . S
C673 C667 1.363 1_455 S
C673 C668 1.379 . S
C673 N671 1.356 . S
N674 C666 1.356 . S
N674 H680 0.984 . S
N674 H681 0.984 . S
N675 C668 1.356 . S
N675 H678 0.984 . S
N675 H679 0.985 . S
H676 N671 0.984 . S
H677 N671 0.985 . S
H678 N675 0.984 . S
H679 N675 0.985 . S
H680 N674 0.984 . S
H681 N674 0.984 . S
H682 N670 0.984 . S
H683 N670 0.985 . S
C684 C685 1.363 . S
C684 C690 1.379 . S
C684 N692 1.356 . S
C685 C684 1.363 . S
C685 C691 1.363 . S
C686 C687 1.363 . S
C686 C691 1.379 . S
C686 N693 1.356 . S
C687 C686 1.363 . S
C687 C690 1.363 . S
N688 C690 1.356 . S
N688 H700 0.984 . S
N688 H701 0.985 . S
N689 C691 1.356 . S
N689 H694 0.984 . S
N689 H695 0.985 . S
C690 C684 1.379 . S
C690 C687 1.363 . S
C690 N688 1.356 . S
C691 C685 1.363 . S
C691 C686 1.379 . S
C691 N689 1.356 . S
N692 C684 1.356 . S
N692 H698 0.984 . S
N692 H699 0.984 . S
N693 C686 1.356 . S
N693 H696 0.984 . S
N693 H697 0.985 . S
H694 N689 0.984 . S
H695 N689 0.985 . S
H696 N693 0.984 . S
H697 N693 0.985 . S
H698 N692 0.984 . S
H699 N692 0.984 . S
H700 N688 0.984 . S
H701 N688 0.985 . S
C702 C703 1.363 . S
C702 C708 1.379 . S
C702 N710 1.356 . S
C703 C702 1.363 . S
C703 C709 1.363 . S
C704 C705 1.363 . S
C704 C709 1.379 . S
C704 N711 1.356 . S
C705 C704 1.363 . S
C705 C708 1.363 . S
N706 C708 1.356 . S
N706 H718 0.984 . S
N706 H719 0.985 . S
N707 C709 1.356 . S
N707 H712 0.984 . S
N707 H713 0.985 . S
C708 C702 1.379 . S
C708 C705 1.363 . S
C708 N706 1.356 . S
C709 C703 1.363 . S
C709 C704 1.379 . S
C709 N707 1.356 . S
N710 C702 1.356 . S
N710 H716 0.984 . S
N710 H717 0.984 . S
N711 C704 1.356 . S
N711 H714 0.984 . S
N711 H715 0.985 . S
H712 N707 0.984 . S
H713 N707 0.985 . S
H714 N711 0.984 . S
H715 N711 0.985 . S
H716 N710 0.984 . S
H717 N710 0.984 . S
H718 N706 0.984 . S
H719 N706 0.985 . S
C720 C721 1.363 1_545 S
C720 C726 1.379 . S
C720 N728 1.356 . S
C721 C720 1.363 1_565 S
C721 C727 1.363 . S
C722 C723 1.363 . S
C722 C727 1.379 . S
C722 N729 1.356 . S
C723 C722 1.363 . S
C723 C726 1.363 1_565 S
N724 C726 1.356 . S
N724 H736 0.984 . S
N724 H737 0.985 . S
N725 C727 1.356 . S
N725 H730 0.984 . S
N725 H731 0.985 . S
C726 C720 1.379 . S
C726 C723 1.363 1_545 S
C726 N724 1.356 . S
C727 C721 1.363 . S
C727 C722 1.379 . S
C727 N725 1.356 . S
N728 C720 1.356 . S
N728 H734 0.984 . S
N728 H735 0.984 . S
N729 C722 1.356 . S
N729 H732 0.984 . S
N729 H733 0.985 . S
H730 N725 0.984 . S
H731 N725 0.985 . S
H732 N729 0.984 . S
H733 N729 0.985 . S
H734 N728 0.984 . S
H735 N728 0.984 . S
H736 N724 0.984 . S
H737 N724 0.985 . S
C738 C739 1.363 . S
C738 C744 1.379 . S
C738 N746 1.356 . S
C739 C738 1.363 . S
C739 C745 1.363 . S
C740 C741 1.363 . S
C740 C745 1.379 . S
C740 N747 1.356 . S
C741 C740 1.363 . S
C741 C744 1.363 . S
N742 C744 1.356 . S
N742 H754 0.984 . S
N742 H755 0.985 . S
N743 C745 1.356 . S
N743 H748 0.984 . S
N743 H749 0.985 . S
C744 C738 1.379 . S
C744 C741 1.363 . S
C744 N742 1.356 . S
C745 C739 1.363 . S
C745 C740 1.379 . S
C745 N743 1.356 . S
N746 C738 1.356 . S
N746 H752 0.984 . S
N746 H753 0.984 . S
N747 C740 1.356 . S
N747 H750 0.984 . S
N747 H751 0.985 . S
H748 N743 0.984 . S
H749 N743 0.985 . S
H750 N747 0.984 . S
H751 N747 0.985 . S
H752 N746 0.984 . S
H753 N746 0.984 . S
H754 N742 0.984 . S
H755 N742 0.985 . S
C756 C757 1.363 . S
C756 C762 1.379 . S
C756 N764 1.356 . S
C757 C756 1.363 . S
C757 C763 1.363 . S
C758 C759 1.363 . S
C758 C763 1.379 . S
C758 N765 1.356 . S
C759 C758 1.363 . S
C759 C762 1.363 . S
N760 C762 1.356 . S
N760 H772 0.984 . S
N760 H773 0.985 . S
N761 C763 1.356 . S
N761 H766 0.984 . S
N761 H767 0.985 . S
C762 C756 1.379 . S
C762 C759 1.363 . S
C762 N760 1.356 . S
C763 C757 1.363 . S
C763 C758 1.379 . S
C763 N761 1.356 . S
N764 C756 1.356 . S
N764 H770 0.984 . S
N764 H771 0.984 . S
N765 C758 1.356 . S
N765 H768 0.984 . S
N765 H769 0.985 . S
H766 N761 0.984 . S
H767 N761 0.985 . S
H768 N765 0.984 . S
H769 N765 0.985 . S
H770 N764 0.984 . S
H771 N764 0.984 . S
H772 N760 0.984 . S
H773 N760 0.985 . S
C774 C775 1.363 . S
C774 C780 1.379 . S
C774 N782 1.356 . S
C775 C774 1.363 . S
C775 C781 1.363 . S
C776 C777 1.363 . S
C776 C781 1.379 . S
C776 N783 1.356 . S
C777 C776 1.363 . S
C777 C780 1.363 . S
N778 C780 1.356 . S
N778 H790 0.984 . S
N778 H791 0.985 . S
N779 C781 1.356 . S
N779 H784 0.984 . S
N779 H785 0.985 . S
C780 C774 1.379 . S
C780 C777 1.363 . S
C780 N778 1.356 . S
C781 C775 1.363 . S
C781 C776 1.379 . S
C781 N779 1.356 . S
N782 C774 1.356 . S
N782 H788 0.984 . S
N782 H789 0.984 . S
N783 C776 1.356 . S
N783 H786 0.984 . S
N783 H787 0.985 . S
H784 N779 0.984 . S
H785 N779 0.985 . S
H786 N783 0.984 . S
H787 N783 0.985 . S
H788 N782 0.984 . S
H789 N782 0.984 . S
H790 N778 0.984 . S
H791 N778 0.985 . S
C792 C793 1.363 . S
C792 C798 1.379 . S
C792 N800 1.356 . S
C793 C792 1.363 . S
C793 C799 1.363 . S
C794 C795 1.363 . S
C794 C799 1.379 . S
C794 N801 1.356 . S
C795 C794 1.363 . S
C795 C798 1.363 . S
N796 C798 1.356 . S
N796 H808 0.984 . S
N796 H809 0.985 . S
N797 C799 1.356 . S
N797 H802 0.984 . S
N797 H803 0.985 . S
C798 C792 1.379 . S
C798 C795 1.363 . S
C798 N796 1.356 . S
C799 C793 1.363 . S
C799 C794 1.379 . S
C799 N797 1.356 . S
N800 C792 1.356 . S
N800 H806 0.984 . S
N800 H807 0.984 . S
N801 C794 1.356 . S
N801 H804 0.984 . S
N801 H805 0.985 . S
H802 N797 0.984 . S
H803 N797 0.985 . S
H804 N801 0.984 . S
H805 N801 0.985 . S
H806 N800 0.984 . S
H807 N800 0.984 . S
H808 N796 0.984 . S
H809 N796 0.985 . S
C810 C811 1.363 . S
C810 C816 1.379 . S
C810 N818 1.356 . S
C811 C810 1.363 . S
C811 C817 1.363 . S
C812 C813 1.363 . S
C812 C817 1.379 . S
C812 N819 1.356 . S
C813 C812 1.363 . S
C813 C816 1.363 . S
N814 C816 1.356 . S
N814 H826 0.984 . S
N814 H827 0.985 . S
N815 C817 1.356 . S
N815 H820 0.984 . S
N815 H821 0.985 . S
C816 C810 1.379 . S
C816 C813 1.363 . S
C816 N814 1.356 . S
C817 C811 1.363 . S
C817 C812 1.379 . S
C817 N815 1.356 . S
N818 C810 1.356 . S
N818 H824 0.984 . S
N818 H825 0.984 . S
N819 C812 1.356 . S
N819 H822 0.984 . S
N819 H823 0.985 . S
H820 N815 0.984 . S
H821 N815 0.985 . S
H822 N819 0.984 . S
H823 N819 0.985 . S
H824 N818 0.984 . S
H825 N818 0.984 . S
H826 N814 0.984 . S
H827 N814 0.985 . S
C828 C829 1.363 1_655 S
C828 C834 1.379 . S
C828 N836 1.356 . S
C829 C828 1.363 1_455 S
C829 C835 1.363 . S
C830 C831 1.363 . S
C830 C835 1.379 . S
C830 N837 1.356 . S
C831 C830 1.363 . S
C831 C834 1.363 1_455 S
N832 C834 1.356 . S
N832 H844 0.984 . S
N832 H845 0.985 . S
N833 C835 1.356 . S
N833 H838 0.984 . S
N833 H839 0.985 . S
C834 C828 1.379 . S
C834 C831 1.363 1_655 S
C834 N832 1.356 . S
C835 C829 1.363 . S
C835 C830 1.379 . S
C835 N833 1.356 . S
N836 C828 1.356 . S
N836 H842 0.984 . S
N836 H843 0.984 . S
N837 C830 1.356 . S
N837 H840 0.984 . S
N837 H841 0.985 . S
H838 N833 0.984 . S
H839 N833 0.985 . S
H840 N837 0.984 . S
H841 N837 0.985 . S
H842 N836 0.984 . S
H843 N836 0.984 . S
H844 N832 0.984 . S
H845 N832 0.985 . S
C846 C847 1.363 . S
C846 C852 1.379 . S
C846 N854 1.356 . S
C847 C846 1.363 . S
C847 C853 1.363 . S
C848 C849 1.363 . S
C848 C853 1.379 . S
C848 N855 1.356 . S
C849 C848 1.363 . S
C849 C852 1.363 . S
N850 C852 1.356 . S
N850 H862 0.984 . S
N850 H863 0.985 . S
N851 C853 1.356 . S
N851 H856 0.984 . S
N851 H857 0.985 . S
C852 C846 1.379 . S
C852 C849 1.363 . S
C852 N850 1.356 . S
C853 C847 1.363 . S
C853 C848 1.379 . S
C853 N851 1.356 . S
N854 C846 1.356 . S
N854 H860 0.984 . S
N854 H861 0.984 . S
N855 C848 1.356 . S
N855 H858 0.984 . S
N855 H859 0.985 . S
H856 N851 0.984 . S
H857 N851 0.985 . S
H858 N855 0.984 . S
H859 N855 0.985 . S
H860 N854 0.984 . S
H861 N854 0.984 . S
H862 N850 0.984 . S
H863 N850 0.985 . S
C864 C865 1.363 . S
C864 C870 1.379 . S
C864 N872 1.356 1_545 S
C865 C864 1.363 . S
C865 C871 1.363 . S
C866 C867 1.363 . S
C866 C871 1.379 . S
C866 N873 1.356 . S
C867 C866 1.363 . S
C867 C870 1.363 . S
N868 C870 1.356 1_565 S
N868 H880 0.984 . S
N868 H881 0.984 1_565 S
N869 C871 1.356 . S
N869 H874 0.984 . S
N869 H875 0.985 . S
C870 C864 1.379 . S
C870 C867 1.363 . S
C870 N868 1.356 1_545 S
C871 C865 1.363 . S
C871 C866 1.379 . S
C871 N869 1.356 . S
N872 C864 1.356 1_565 S
N872 H878 0.984 . S
N872 H879 0.984 . S
N873 C866 1.356 . S
N873 H876 0.984 . S
N873 H877 0.985 . S
H874 N869 0.984 . S
H875 N869 0.985 . S
H876 N873 0.984 . S
H877 N873 0.985 . S
H878 N872 0.984 . S
H879 N872 0.984 . S
H880 N868 0.984 . S
H881 N868 0.984 1_545 S
C882 C883 1.363 1_565 S
C882 C888 1.379 . S
C882 N890 1.356 . S
C883 C882 1.363 1_545 S
C883 C889 1.363 . S
C884 C885 1.363 . S
C884 C889 1.379 . S
C884 N891 1.356 . S
C885 C884 1.363 . S
C885 C888 1.363 1_545 S
N886 C888 1.356 . S
N886 H898 0.984 . S
N886 H899 0.985 . S
N887 C889 1.356 . S
N887 H892 0.984 . S
N887 H893 0.985 . S
C888 C882 1.379 . S
C888 C885 1.363 1_565 S
C888 N886 1.356 . S
C889 C883 1.363 . S
C889 C884 1.379 . S
C889 N887 1.356 . S
N890 C882 1.356 . S
N890 H896 0.984 . S
N890 H897 0.984 . S
N891 C884 1.356 . S
N891 H894 0.984 . S
N891 H895 0.985 . S
H892 N887 0.984 . S
H893 N887 0.985 . S
H894 N891 0.984 . S
H895 N891 0.985 . S
H896 N890 0.984 . S
H897 N890 0.984 . S
H898 N886 0.984 . S
H899 N886 0.985 . S
C900 C901 1.363 . S
C900 C906 1.379 . S
C900 N908 1.356 1_455 S
C901 C900 1.363 . S
C901 C907 1.363 . S
C902 C903 1.363 . S
C902 C907 1.379 . S
C902 N909 1.356 . S
C903 C902 1.363 . S
C903 C906 1.363 . S
N904 C906 1.356 1_655 S
N904 H916 0.984 . S
N904 H917 0.985 . S
N905 C907 1.356 . S
N905 H910 0.984 . S
N905 H911 0.985 . S
C906 C900 1.379 . S
C906 C903 1.363 . S
C906 N904 1.356 1_455 S
C907 C901 1.363 . S
C907 C902 1.379 . S
C907 N905 1.356 . S
N908 C900 1.356 1_655 S
N908 H914 0.984 . S
N908 H915 0.984 . S
N909 C902 1.356 . S
N909 H912 0.984 . S
N909 H913 0.985 . S
H910 N905 0.984 . S
H911 N905 0.985 . S
H912 N909 0.984 . S
H913 N909 0.985 . S
H914 N908 0.984 . S
H915 N908 0.984 . S
H916 N904 0.984 . S
H917 N904 0.985 . S
C918 C919 1.363 . S
C918 C924 1.379 . S
C918 N926 1.356 . S
C919 C918 1.363 . S
C919 C925 1.363 . S
C920 C921 1.363 . S
C920 C925 1.379 . S
C920 N927 1.356 . S
C921 C920 1.363 . S
C921 C924 1.363 . S
N922 C924 1.356 . S
N922 H934 0.984 . S
N922 H935 0.985 . S
N923 C925 1.356 . S
N923 H928 0.984 . S
N923 H929 0.985 . S
C924 C918 1.379 . S
C924 C921 1.363 . S
C924 N922 1.356 . S
C925 C919 1.363 . S
C925 C920 1.379 . S
C925 N923 1.356 . S
N926 C918 1.356 . S
N926 H932 0.984 . S
N926 H933 0.984 . S
N927 C920 1.356 . S
N927 H930 0.984 . S
N927 H931 0.985 . S
H928 N923 0.984 . S
H929 N923 0.985 . S
H930 N927 0.984 . S
H931 N927 0.985 . S
H932 N926 0.984 . S
H933 N926 0.984 . S
H934 N922 0.984 . S
H935 N922 0.985 . S
C936 C937 1.363 . S
C936 C942 1.379 . S
C936 N944 1.356 . S
C937 C936 1.363 . S
C937 C943 1.363 . S
C938 C939 1.363 . S
C938 C943 1.379 . S
C938 N945 1.356 . S
C939 C938 1.363 . S
C939 C942 1.363 . S
N940 C942 1.356 . S
N940 H952 0.984 . S
N940 H953 0.985 . S
N941 C943 1.356 . S
N941 H946 0.984 . S
N941 H947 0.985 . S
C942 C936 1.379 . S
C942 C939 1.363 . S
C942 N940 1.356 . S
C943 C937 1.363 . S
C943 C938 1.379 . S
C943 N941 1.356 . S
N944 C936 1.356 . S
N944 H950 0.984 . S
N944 H951 0.984 . S
N945 C938 1.356 . S
N945 H948 0.984 . S
N945 H949 0.985 . S
H946 N941 0.984 . S
H947 N941 0.985 . S
H948 N945 0.984 . S
H949 N945 0.985 . S
H950 N944 0.984 . S
H951 N944 0.984 . S
H952 N940 0.984 . S
H953 N940 0.985 . S
C954 C955 1.363 . S
C954 C960 1.379 . S
C954 N962 1.356 . S
C955 C954 1.363 . S
C955 C961 1.363 . S
C956 C957 1.363 . S
C956 C961 1.379 . S
C956 N963 1.356 . S
C957 C956 1.363 . S
C957 C960 1.363 . S
N958 C960 1.356 . S
N958 H970 0.984 . S
N958 H971 0.985 . S
N959 C961 1.356 . S
N959 H964 0.984 . S
N959 H965 0.985 . S
C960 C954 1.379 . S
C960 C957 1.363 . S
C960 N958 1.356 . S
C961 C955 1.363 . S
C961 C956 1.379 . S
C961 N959 1.356 . S
N962 C954 1.356 . S
N962 H968 0.984 . S
N962 H969 0.984 . S
N963 C956 1.356 . S
N963 H966 0.984 . S
N963 H967 0.985 . S
H964 N959 0.984 . S
H965 N959 0.985 . S
H966 N963 0.984 . S
H967 N963 0.985 . S
H968 N962 0.984 . S
H969 N962 0.984 . S
H970 N958 0.984 . S
H971 N958 0.985 . S
C972 C973 1.363 . S
C972 C978 1.379 . S
C972 N980 1.356 . S
C973 C972 1.363 . S
C973 C979 1.363 1_545 S
C974 C975 1.363 1_565 S
C974 C979 1.379 . S
C974 N981 1.356 . S
C975 C974 1.363 1_545 S
C975 C978 1.363 . S
N976 C978 1.356 . S
N976 H988 0.984 . S
N976 H989 0.985 . S
N977 C979 1.356 . S
N977 H982 0.984 . S
N977 H983 0.985 . S
C978 C972 1.379 . S
C978 C975 1.363 . S
C978 N976 1.356 . S
C979 C973 1.363 1_565 S
C979 C974 1.379 . S
C979 N977 1.356 . S
N980 C972 1.356 . S
N980 H986 0.984 . S
N980 H987 0.984 . S
N981 C974 1.356 . S
N981 H984 0.984 . S
N981 H985 0.985 . S
H982 N977 0.984 . S
H983 N977 0.985 . S
H984 N981 0.984 . S
H985 N981 0.985 . S
H986 N980 0.984 . S
H987 N980 0.984 . S
H988 N976 0.984 . S
H989 N976 0.985 . S
C990 C991 1.363 . S
C990 C996 1.379 . S
C990 N998 1.356 1_545 S
C991 C990 1.363 . S
C991 C997 1.363 . S
C992 C993 1.363 . S
C992 C997 1.379 . S
C992 N999 1.356 . S
C993 C992 1.363 . S
C993 C996 1.363 . S
N994 C996 1.356 1_565 S
N994 H1006 0.984 . S
N994 H1007 0.985 1_565 S
N995 C997 1.356 . S
N995 H1000 0.984 . S
N995 H1001 0.985 . S
C996 C990 1.379 . S
C996 C993 1.363 . S
C996 N994 1.356 1_545 S
C997 C991 1.363 . S
C997 C992 1.379 . S
C997 N995 1.356 . S
N998 C990 1.356 1_565 S
N998 H1004 0.984 . S
N998 H1005 0.984 . S
N999 C992 1.356 . S
N999 H1002 0.984 . S
N999 H1003 0.985 . S
H1000 N995 0.984 . S
H1001 N995 0.985 . S
H1002 N999 0.984 . S
H1003 N999 0.985 . S
H1004 N998 0.984 . S
H1005 N998 0.984 . S
H1006 N994 0.984 . S
H1007 N994 0.985 1_545 S
C1008 C1009 1.363 . S
C1008 C1014 1.379 . S
C1008 N1016 1.356 . S
C1009 C1008 1.363 . S
C1009 C1015 1.363 1_455 S
C1010 C1011 1.363 1_655 S
C1010 C1015 1.379 . S
C1010 N1017 1.356 . S
C1011 C1010 1.363 1_455 S
C1011 C1014 1.363 . S
N1012 C1014 1.356 . S
N1012 H1024 0.984 . S
N1012 H1025 0.985 . S
N1013 C1015 1.356 . S
N1013 H1018 0.984 . S
N1013 H1019 0.985 . S
C1014 C1008 1.379 . S
C1014 C1011 1.363 . S
C1014 N1012 1.356 . S
C1015 C1009 1.363 1_655 S
C1015 C1010 1.379 . S
C1015 N1013 1.356 . S
N1016 C1008 1.356 . S
N1016 H1022 0.984 . S
N1016 H1023 0.984 . S
N1017 C1010 1.356 . S
N1017 H1020 0.984 . S
N1017 H1021 0.985 . S
H1018 N1013 0.984 . S
H1019 N1013 0.985 . S
H1020 N1017 0.984 . S
H1021 N1017 0.985 . S
H1022 N1016 0.984 . S
H1023 N1016 0.984 . S
H1024 N1012 0.984 . S
H1025 N1012 0.985 . S
C1026 C1027 1.363 . S
C1026 C1032 1.379 . S
C1026 N1034 1.356 . S
C1027 C1026 1.363 . S
C1027 C1033 1.363 . S
C1028 C1029 1.363 . S
C1028 C1033 1.379 . S
C1028 N1035 1.356 . S
C1029 C1028 1.363 . S
C1029 C1032 1.363 . S
N1030 C1032 1.356 . S
N1030 H1042 0.984 . S
N1030 H1043 0.985 . S
N1031 C1033 1.356 . S
N1031 H1036 0.984 . S
N1031 H1037 0.985 . S
C1032 C1026 1.379 . S
C1032 C1029 1.363 . S
C1032 N1030 1.356 . S
C1033 C1027 1.363 . S
C1033 C1028 1.379 . S
C1033 N1031 1.356 . S
N1034 C1026 1.356 . S
N1034 H1040 0.984 . S
N1034 H1041 0.984 . S
N1035 C1028 1.356 . S
N1035 H1038 0.984 . S
N1035 H1039 0.985 . S
H1036 N1031 0.984 . S
H1037 N1031 0.985 . S
H1038 N1035 0.984 . S
H1039 N1035 0.985 . S
H1040 N1034 0.984 . S
H1041 N1034 0.984 . S
H1042 N1030 0.984 . S
H1043 N1030 0.985 . S
C1044 C1045 1.363 . S
C1044 C1050 1.379 . S
C1044 N1052 1.356 . S
C1045 C1044 1.363 . S
C1045 C1051 1.363 . S
C1046 C1047 1.363 . S
C1046 C1051 1.379 . S
C1046 N1053 1.356 . S
C1047 C1046 1.363 . S
C1047 C1050 1.363 . S
N1048 C1050 1.356 . S
N1048 H1060 0.984 . S
N1048 H1061 0.985 . S
N1049 C1051 1.356 . S
N1049 H1054 0.984 . S
N1049 H1055 0.985 . S
C1050 C1044 1.379 . S
C1050 C1047 1.363 . S
C1050 N1048 1.356 . S
C1051 C1045 1.363 . S
C1051 C1046 1.379 . S
C1051 N1049 1.356 . S
N1052 C1044 1.356 . S
N1052 H1058 0.984 . S
N1052 H1059 0.984 . S
N1053 C1046 1.356 . S
N1053 H1056 0.984 . S
N1053 H1057 0.985 . S
H1054 N1049 0.984 . S
H1055 N1049 0.985 . S
H1056 N1053 0.984 . S
H1057 N1053 0.985 . S
H1058 N1052 0.984 . S
H1059 N1052 0.984 . S
H1060 N1048 0.984 . S
H1061 N1048 0.985 . S
C1062 C1063 1.363 . S
C1062 C1068 1.379 . S
C1062 N1070 1.356 . S
C1063 C1062 1.363 . S
C1063 C1069 1.363 . S
C1064 C1065 1.363 . S
C1064 C1069 1.379 . S
C1064 N1071 1.356 1_545 S
C1065 C1064 1.363 . S
C1065 C1068 1.363 . S
N1066 C1068 1.356 . S
N1066 H1078 0.984 . S
N1066 H1079 0.985 . S
N1067 C1069 1.356 1_565 S
N1067 H1072 0.984 . S
N1067 H1073 0.985 . S
C1068 C1062 1.379 . S
C1068 C1065 1.363 . S
C1068 N1066 1.356 . S
C1069 C1063 1.363 . S
C1069 C1064 1.379 . S
C1069 N1067 1.356 1_545 S
N1070 C1062 1.356 . S
N1070 H1076 0.984 . S
N1070 H1077 0.984 . S
N1071 C1064 1.356 1_565 S
N1071 H1074 0.984 . S
N1071 H1075 0.985 . S
H1072 N1067 0.984 . S
H1073 N1067 0.985 . S
H1074 N1071 0.984 . S
H1075 N1071 0.985 . S
H1076 N1070 0.984 . S
H1077 N1070 0.984 . S
H1078 N1066 0.984 . S
H1079 N1066 0.985 . S
C1080 C1081 1.363 1_655 S
C1080 C1086 1.379 1_655 S
C1080 N1088 1.356 . S
C1081 C1080 1.363 1_455 S
C1081 C1087 1.363 . S
C1082 C1083 1.363 . S
C1082 C1087 1.379 . S
C1082 N1089 1.356 . S
C1083 C1082 1.363 . S
C1083 C1086 1.363 . S
N1084 C1086 1.356 1_655 S
N1084 H1096 0.984 . S
N1084 H1097 0.985 . S
N1085 C1087 1.356 . S
N1085 H1090 0.984 . S
N1085 H1091 0.985 . S
C1086 C1080 1.379 1_455 S
C1086 C1083 1.363 . S
C1086 N1084 1.356 1_455 S
C1087 C1081 1.363 . S
C1087 C1082 1.379 . S
C1087 N1085 1.356 . S
N1088 C1080 1.356 . S
N1088 H1094 0.984 . S
N1088 H1095 0.984 . S
N1089 C1082 1.356 . S
N1089 H1092 0.984 . S
N1089 H1093 0.985 . S
H1090 N1085 0.984 . S
H1091 N1085 0.985 . S
H1092 N1089 0.984 . S
H1093 N1089 0.985 . S
H1094 N1088 0.984 . S
H1095 N1088 0.984 . S
H1096 N1084 0.984 . S
H1097 N1084 0.985 . S
C1098 C1099 1.363 . S
C1098 C1104 1.379 . S
C1098 N1106 1.356 . S
C1099 C1098 1.363 . S
C1099 C1105 1.363 . S
C1100 C1101 1.363 . S
C1100 C1105 1.379 . S
C1100 N1107 1.356 . S
C1101 C1100 1.363 . S
C1101 C1104 1.363 . S
N1102 C1104 1.356 . S
N1102 H1114 0.984 . S
N1102 H1115 0.985 . S
N1103 C1105 1.356 . S
N1103 H1108 0.984 . S
N1103 H1109 0.985 . S
C1104 C1098 1.379 . S
C1104 C1101 1.363 . S
C1104 N1102 1.356 . S
C1105 C1099 1.363 . S
C1105 C1100 1.379 . S
C1105 N1103 1.356 . S
N1106 C1098 1.356 . S
N1106 H1112 0.984 . S
N1106 H1113 0.984 . S
N1107 C1100 1.356 . S
N1107 H1110 0.984 . S
N1107 H1111 0.985 . S
H1108 N1103 0.984 . S
H1109 N1103 0.985 . S
H1110 N1107 0.984 . S
H1111 N1107 0.985 . S
H1112 N1106 0.984 . S
H1113 N1106 0.984 . S
H1114 N1102 0.984 . S
H1115 N1102 0.985 . S
C1116 C1117 1.363 . S
C1116 C1122 1.379 . S
C1116 N1124 1.356 . S
C1117 C1116 1.363 . S
C1117 C1123 1.363 . S
C1118 C1119 1.363 . S
C1118 C1123 1.379 . S
C1118 N1125 1.356 1_545 S
C1119 C1118 1.363 . S
C1119 C1122 1.363 . S
N1120 C1122 1.356 . S
N1120 H1132 0.984 . S
N1120 H1133 0.985 . S
N1121 C1123 1.356 1_565 S
N1121 H1126 0.984 . S
N1121 H1127 0.985 . S
C1122 C1116 1.379 . S
C1122 C1119 1.363 . S
C1122 N1120 1.356 . S
C1123 C1117 1.363 . S
C1123 C1118 1.379 . S
C1123 N1121 1.356 1_545 S
N1124 C1116 1.356 . S
N1124 H1130 0.984 . S
N1124 H1131 0.984 . S
N1125 C1118 1.356 1_565 S
N1125 H1128 0.984 . S
N1125 H1129 0.985 . S
H1126 N1121 0.984 . S
H1127 N1121 0.985 . S
H1128 N1125 0.984 . S
H1129 N1125 0.985 . S
H1130 N1124 0.984 . S
H1131 N1124 0.984 . S
H1132 N1120 0.984 . S
H1133 N1120 0.985 . S
C1134 C1135 1.363 . S
C1134 C1140 1.379 . S
C1134 N1142 1.356 . S
C1135 C1134 1.363 . S
C1135 C1141 1.363 1_455 S
C1136 C1137 1.363 . S
C1136 C1141 1.379 1_455 S
C1136 N1143 1.356 1_455 S
C1137 C1136 1.363 . S
C1137 C1140 1.363 . S
N1138 C1140 1.356 . S
N1138 H1150 0.984 . S
N1138 H1151 0.985 . S
N1139 C1141 1.356 . S
N1139 H1144 0.984 . S
N1139 H1145 0.985 . S
C1140 C1134 1.379 . S
C1140 C1137 1.363 . S
C1140 N1138 1.356 . S
C1141 C1135 1.363 1_655 S
C1141 C1136 1.379 1_655 S
C1141 N1139 1.356 . S
N1142 C1134 1.356 . S
N1142 H1148 0.984 . S
N1142 H1149 0.984 . S
N1143 C1136 1.356 1_655 S
N1143 H1146 0.984 . S
N1143 H1147 0.985 . S
H1144 N1139 0.984 . S
H1145 N1139 0.985 . S
H1146 N1143 0.984 . S
H1147 N1143 0.985 . S
H1148 N1142 0.984 . S
H1149 N1142 0.984 . S
H1150 N1138 0.984 . S
H1151 N1138 0.985 . S
C1152 C1153 1.363 . S
C1152 C1158 1.379 1_554 S
C1152 N1160 1.356 . S
C1153 C1152 1.363 . S
C1153 C1159 1.363 . S
C1154 C1155 1.363 . S
C1154 C1159 1.379 1_556 S
C1154 N1161 1.356 . S
C1155 C1154 1.363 . S
C1155 C1158 1.363 . S
N1156 C1158 1.356 . S
N1156 H1168 0.984 . S
N1156 H1169 0.985 . S
N1157 C1159 1.356 . S
N1157 H1162 0.984 . S
N1157 H1163 0.985 . S
C1158 C1152 1.379 1_556 S
C1158 C1155 1.363 . S
C1158 N1156 1.356 . S
C1159 C1153 1.363 . S
C1159 C1154 1.379 1_554 S
C1159 N1157 1.356 . S
N1160 C1152 1.356 . S
N1160 H1166 0.984 . S
N1160 H1167 0.984 . S
N1161 C1154 1.356 . S
N1161 H1164 0.984 . S
N1161 H1165 0.985 . S
H1162 N1157 0.984 . S
H1163 N1157 0.985 . S
H1164 N1161 0.984 . S
H1165 N1161 0.985 . S
H1166 N1160 0.984 . S
H1167 N1160 0.984 . S
H1168 N1156 0.984 . S
H1169 N1156 0.985 . S
C1170 C1171 1.363 . S
C1170 C1176 1.379 1_556 S
C1170 N1178 1.356 . S
C1171 C1170 1.363 . S
C1171 C1177 1.363 . S
C1172 C1173 1.363 . S
C1172 C1177 1.379 1_554 S
C1172 N1179 1.356 . S
C1173 C1172 1.363 . S
C1173 C1176 1.363 . S
N1174 C1176 1.356 . S
N1174 H1186 0.984 . S
N1174 H1187 0.985 . S
N1175 C1177 1.356 . S
N1175 H1180 0.984 . S
N1175 H1181 0.985 . S
C1176 C1170 1.379 1_554 S
C1176 C1173 1.363 . S
C1176 N1174 1.356 . S
C1177 C1171 1.363 . S
C1177 C1172 1.379 1_556 S
C1177 N1175 1.356 . S
N1178 C1170 1.356 . S
N1178 H1184 0.984 . S
N1178 H1185 0.984 . S
N1179 C1172 1.356 . S
N1179 H1182 0.984 . S
N1179 H1183 0.985 . S
H1180 N1175 0.984 . S
H1181 N1175 0.985 . S
H1182 N1179 0.984 . S
H1183 N1179 0.985 . S
H1184 N1178 0.984 . S
H1185 N1178 0.984 . S
H1186 N1174 0.984 . S
H1187 N1174 0.985 . S
C1188 C1189 1.363 . S
C1188 C1194 1.379 1_556 S
C1188 N1196 1.356 1_545 S
C1189 C1188 1.363 . S
C1189 C1195 1.363 . S
C1190 C1191 1.363 . S
C1190 C1195 1.379 1_554 S
C1190 N1197 1.356 . S
C1191 C1190 1.363 . S
C1191 C1194 1.363 . S
N1192 C1194 1.356 1_565 S
N1192 H1204 0.984 . S
N1192 H1205 0.985 . S
N1193 C1195 1.356 . S
N1193 H1198 0.984 . S
N1193 H1199 0.985 . S
C1194 C1188 1.379 1_554 S
C1194 C1191 1.363 . S
C1194 N1192 1.356 1_545 S
C1195 C1189 1.363 . S
C1195 C1190 1.379 1_556 S
C1195 N1193 1.356 . S
N1196 C1188 1.356 1_565 S
N1196 H1202 0.984 . S
N1196 H1203 0.984 . S
N1197 C1190 1.356 . S
N1197 H1200 0.984 . S
N1197 H1201 0.985 . S
H1198 N1193 0.984 . S
H1199 N1193 0.985 . S
H1200 N1197 0.984 . S
H1201 N1197 0.985 . S
H1202 N1196 0.984 . S
H1203 N1196 0.984 . S
H1204 N1192 0.984 . S
H1205 N1192 0.985 . S
C1206 C1207 1.363 . S
C1206 C1212 1.379 1_556 S
C1206 N1214 1.356 . S
C1207 C1206 1.363 . S
C1207 C1213 1.363 1_455 S
C1208 C1209 1.381 . S
C1208 C1213 1.377 1_454 S
C1208 N1215 1.345 1_455 S
C1209 C1208 1.381 . S
C1209 C1212 1.363 . S
N1210 C1212 1.356 . S
N1210 H1222 0.984 . S
N1210 H1223 0.985 . S
N1211 C1213 1.356 . S
N1211 H1216 0.984 . S
N1211 H1217 0.985 . S
C1212 C1206 1.379 1_554 S
C1212 C1209 1.363 . S
C1212 N1210 1.356 . S
C1213 C1207 1.363 1_655 S
C1213 C1208 1.377 1_656 S
C1213 N1211 1.356 . S
N1214 C1206 1.356 . S
N1214 H1220 0.984 . S
N1214 H1221 0.984 . S
N1215 C1208 1.345 1_655 S
N1215 H1218 0.984 . S
N1215 H1219 0.985 . S
H1216 N1211 0.984 . S
H1217 N1211 0.985 . S
H1218 N1215 0.984 . S
H1219 N1215 0.985 . S
H1220 N1214 0.984 . S
H1221 N1214 0.984 . S
H1222 N1210 0.984 . S
H1223 N1210 0.985 . S
C1224 C1225 1.363 . S
C1224 C1230 1.379 1_554 S
C1224 N1232 1.356 . S
C1225 C1224 1.363 . S
C1225 C1231 1.363 . S
C1226 C1227 1.363 . S
C1226 C1231 1.379 1_556 S
C1226 N1233 1.356 . S
C1227 C1226 1.363 . S
C1227 C1230 1.363 . S
N1228 C1230 1.356 . S
N1228 H1240 0.984 . S
N1228 H1241 0.985 . S
N1229 C1231 1.356 . S
N1229 H1234 0.984 . S
N1229 H1235 0.985 . S
C1230 C1224 1.379 1_556 S
C1230 C1227 1.363 . S
C1230 N1228 1.356 . S
C1231 C1225 1.363 . S
C1231 C1226 1.379 1_554 S
C1231 N1229 1.356 . S
N1232 C1224 1.356 . S
N1232 H1238 0.984 . S
N1232 H1239 0.984 . S
N1233 C1226 1.356 . S
N1233 H1236 0.984 . S
N1233 H1237 0.985 . S
H1234 N1229 0.984 . S
H1235 N1229 0.985 . S
H1236 N1233 0.984 . S
H1237 N1233 0.985 . S
H1238 N1232 0.984 . S
H1239 N1232 0.984 . S
H1240 N1228 0.984 . S
H1241 N1228 0.985 . S
C1242 C1243 1.363 . S
C1242 C1248 1.379 1_546 S
C1242 N1250 1.356 1_545 S
C1243 C1242 1.363 . S
C1243 C1249 1.363 . S
C1244 C1245 1.363 . S
C1244 C1249 1.379 1_554 S
C1244 N1251 1.356 . S
C1245 C1244 1.363 . S
C1245 C1248 1.364 1_545 S
N1246 C1248 1.355 . S
N1246 H1258 0.984 . S
N1246 H1259 0.985 . S
N1247 C1249 1.356 . S
N1247 H1252 0.984 . S
N1247 H1253 0.985 . S
C1248 C1242 1.379 1_564 S
C1248 C1245 1.364 1_565 S
C1248 N1246 1.355 . S
C1249 C1243 1.363 . S
C1249 C1244 1.379 1_556 S
C1249 N1247 1.356 . S
N1250 C1242 1.356 1_565 S
N1250 H1256 0.984 . S
N1250 H1257 0.984 . S
N1251 C1244 1.356 . S
N1251 H1254 0.984 . S
N1251 H1255 0.985 . S
H1252 N1247 0.984 . S
H1253 N1247 0.985 . S
H1254 N1251 0.984 . S
H1255 N1251 0.985 . S
H1256 N1250 0.984 . S
H1257 N1250 0.984 . S
H1258 N1246 0.984 . S
H1259 N1246 0.985 . S
C1260 C1261 1.363 . S
C1260 C1266 1.379 . S
C1260 N1268 1.356 . S
C1261 C1260 1.363 . S
C1261 C1267 1.363 . S
C1262 C1263 1.363 . S
C1262 C1267 1.379 . S
C1262 N1269 1.356 . S
C1263 C1262 1.363 . S
C1263 C1266 1.363 . S
N1264 C1266 1.356 . S
N1264 H1276 0.984 . S
N1264 H1277 0.985 . S
N1265 C1267 1.356 . S
N1265 H1270 0.984 . S
N1265 H1271 0.985 . S
C1266 C1260 1.379 . S
C1266 C1263 1.363 . S
C1266 N1264 1.356 . S
C1267 C1261 1.363 . S
C1267 C1262 1.379 . S
C1267 N1265 1.356 . S
N1268 C1260 1.356 . S
N1268 H1274 0.984 . S
N1268 H1275 0.984 . S
N1269 C1262 1.356 . S
N1269 H1272 0.984 . S
N1269 H1273 0.985 . S
H1270 N1265 0.984 . S
H1271 N1265 0.985 . S
H1272 N1269 0.984 . S
H1273 N1269 0.985 . S
H1274 N1268 0.984 . S
H1275 N1268 0.984 . S
H1276 N1264 0.984 . S
H1277 N1264 0.985 . S
C1278 C1279 1.363 . S
C1278 C1284 1.379 . S
C1278 N1286 1.356 . S
C1279 C1278 1.363 . S
C1279 C1285 1.363 . S
C1280 C1281 1.363 . S
C1280 C1285 1.379 . S
C1280 N1287 1.356 . S
C1281 C1280 1.363 . S
C1281 C1284 1.363 . S
N1282 C1284 1.356 . S
N1282 H1294 0.984 . S
N1282 H1295 0.985 . S
N1283 C1285 1.356 . S
N1283 H1288 0.984 . S
N1283 H1289 0.985 1_545 S
C1284 C1278 1.379 . S
C1284 C1281 1.363 . S
C1284 N1282 1.356 . S
C1285 C1279 1.363 . S
C1285 C1280 1.379 . S
C1285 N1283 1.356 . S
N1286 C1278 1.356 . S
N1286 H1292 0.984 . S
N1286 H1293 0.984 . S
N1287 C1280 1.356 . S
N1287 H1290 0.984 . S
N1287 H1291 0.985 1_545 S
H1288 N1283 0.984 . S
H1289 N1283 0.985 1_565 S
H1290 N1287 0.984 . S
H1291 N1287 0.985 1_565 S
H1292 N1286 0.984 . S
H1293 N1286 0.984 . S
H1294 N1282 0.984 . S
H1295 N1282 0.985 . S
C1296 C1297 1.363 1_455 S
C1296 C1302 1.379 . S
C1296 N1304 1.356 . S
C1297 C1296 1.363 1_655 S
C1297 C1303 1.363 . S
C1298 C1299 1.346 1_655 S
C1298 C1303 1.379 . S
C1298 N1305 1.356 . S
C1299 C1298 1.346 1_455 S
C1299 C1302 1.380 . S
N1300 C1302 1.356 . S
N1300 H1312 0.984 . S
N1300 H1313 0.985 . S
N1301 C1303 1.356 . S
N1301 H1306 0.984 . S
N1301 H1307 0.985 . S
C1302 C1296 1.379 . S
C1302 C1299 1.380 . S
C1302 N1300 1.356 . S
C1303 C1297 1.363 . S
C1303 C1298 1.379 . S
C1303 N1301 1.356 . S
N1304 C1296 1.356 . S
N1304 H1310 0.984 . S
N1304 H1311 0.984 . S
N1305 C1298 1.356 . S
N1305 H1308 0.984 . S
N1305 H1309 0.985 . S
H1306 N1301 0.984 . S
H1307 N1301 0.985 . S
H1308 N1305 0.984 . S
H1309 N1305 0.985 . S
H1310 N1304 0.984 . S
H1311 N1304 0.984 . S
H1312 N1300 0.984 . S
H1313 N1300 0.985 . S
C1314 C1315 1.363 . S
C1314 C1320 1.379 . S
C1314 N1322 1.356 . S
C1315 C1314 1.363 . S
C1315 C1321 1.363 . S
C1316 C1317 1.363 . S
C1316 C1321 1.379 . S
C1316 N1323 1.356 . S
C1317 C1316 1.363 . S
C1317 C1320 1.363 . S
N1318 C1320 1.356 . S
N1318 H1330 0.984 . S
N1318 H1331 0.985 . S
N1319 C1321 1.356 . S
N1319 H1324 0.984 . S
N1319 H1325 0.985 1_545 S
C1320 C1314 1.379 . S
C1320 C1317 1.363 . S
C1320 N1318 1.356 . S
C1321 C1315 1.363 . S
C1321 C1316 1.379 . S
C1321 N1319 1.356 . S
N1322 C1314 1.356 . S
N1322 H1328 0.984 . S
N1322 H1329 0.984 . S
N1323 C1316 1.356 . S
N1323 H1326 0.984 . S
N1323 H1327 0.985 1_545 S
H1324 N1319 0.984 . S
H1325 N1319 0.985 1_565 S
H1326 N1323 0.984 . S
H1327 N1323 0.985 1_565 S
H1328 N1322 0.984 . S
H1329 N1322 0.984 . S
H1330 N1318 0.984 . S
H1331 N1318 0.985 . S
C1332 C1333 1.363 . S
C1332 C1338 1.379 . S
C1332 N1340 1.356 . S
C1333 C1332 1.363 . S
C1333 C1339 1.363 1_655 S
C1334 C1335 1.377 . S
C1334 C1339 1.379 . S
C1334 N1341 1.356 . S
C1335 C1334 1.377 . S
C1335 C1338 1.347 1_455 S
N1336 C1338 1.356 . S
N1336 H1348 0.984 . S
N1336 H1349 0.985 . S
N1337 C1339 1.356 . S
N1337 H1342 0.986 . S
N1337 H1343 0.985 . S
C1338 C1332 1.379 . S
C1338 C1335 1.347 1_655 S
C1338 N1336 1.356 . S
C1339 C1333 1.363 1_455 S
C1339 C1334 1.379 . S
C1339 N1337 1.356 . S
N1340 C1332 1.356 . S
N1340 H1346 0.984 . S
N1340 H1347 0.984 . S
N1341 C1334 1.356 . S
N1341 H1344 0.984 . S
N1341 H1345 0.985 . S
H1342 N1337 0.986 . S
H1343 N1337 0.985 . S
H1344 N1341 0.984 . S
H1345 N1341 0.985 . S
H1346 N1340 0.984 . S
H1347 N1340 0.984 . S
H1348 N1336 0.984 . S
H1349 N1336 0.985 . S
C1350 C1351 1.363 . S
C1350 C1356 1.379 . S
C1350 N1358 1.356 . S
C1351 C1350 1.363 . S
C1351 C1357 1.363 . S
C1352 C1353 1.363 . S
C1352 C1357 1.379 . S
C1352 N1359 1.356 . S
C1353 C1352 1.363 . S
C1353 C1356 1.363 . S
N1354 C1356 1.356 . S
N1354 H1366 0.984 . S
N1354 H1367 0.985 . S
N1355 C1357 1.356 . S
N1355 H1360 0.984 . S
N1355 H1361 0.985 . S
C1356 C1350 1.379 . S
C1356 C1353 1.363 . S
C1356 N1354 1.356 . S
C1357 C1351 1.363 . S
C1357 C1352 1.379 . S
C1357 N1355 1.356 . S
N1358 C1350 1.356 . S
N1358 H1364 0.984 . S
N1358 H1365 0.984 . S
N1359 C1352 1.356 . S
N1359 H1362 0.984 . S
N1359 H1363 0.985 . S
H1360 N1355 0.984 . S
H1361 N1355 0.985 . S
H1362 N1359 0.984 . S
H1363 N1359 0.985 . S
H1364 N1358 0.984 . S
H1365 N1358 0.984 . S
H1366 N1354 0.984 . S
H1367 N1354 0.985 . S
C1368 C1369 1.391 . S
C1368 C1374 1.379 . S
C1368 N1376 1.356 . S
C1369 C1368 1.391 . S
C1369 C1375 1.335 1_545 S
C1370 C1371 1.363 . S
C1370 C1375 1.379 . S
C1370 N1377 1.356 . S
C1371 C1370 1.363 . S
C1371 C1374 1.363 1_565 S
N1372 C1374 1.356 . S
N1372 H1384 0.984 . S
N1372 H1385 0.985 . S
N1373 C1375 1.356 . S
N1373 H1378 0.984 . S
N1373 H1379 0.985 . S
C1374 C1368 1.379 . S
C1374 C1371 1.363 1_545 S
C1374 N1372 1.356 . S
C1375 C1369 1.335 1_565 S
C1375 C1370 1.379 . S
C1375 N1373 1.356 . S
N1376 C1368 1.356 . S
N1376 H1382 0.984 . S
N1376 H1383 0.984 . S
N1377 C1370 1.356 . S
N1377 H1380 0.984 . S
N1377 H1381 0.985 . S
H1378 N1373 0.984 . S
H1379 N1373 0.985 . S
H1380 N1377 0.984 . S
H1381 N1377 0.985 . S
H1382 N1376 0.984 . S
H1383 N1376 0.984 . S
H1384 N1372 0.984 . S
H1385 N1372 0.985 . S
C1386 C1387 1.363 . S
C1386 C1392 1.379 . S
C1386 N1394 1.356 . S
C1387 C1386 1.363 . S
C1387 C1393 1.363 . S
C1388 C1389 1.363 . S
C1388 C1393 1.379 . S
C1388 N1395 1.356 . S
C1389 C1388 1.363 . S
C1389 C1392 1.363 . S
N1390 C1392 1.356 . S
N1390 H1402 0.984 . S
N1390 H1403 0.985 . S
N1391 C1393 1.356 . S
N1391 H1396 0.984 . S
N1391 H1397 0.985 . S
C1392 C1386 1.379 . S
C1392 C1389 1.363 . S
C1392 N1390 1.356 . S
C1393 C1387 1.363 . S
C1393 C1388 1.379 . S
C1393 N1391 1.356 . S
N1394 C1386 1.356 . S
N1394 H1400 0.984 . S
N1394 H1401 0.984 . S
N1395 C1388 1.356 . S
N1395 H1398 0.984 . S
N1395 H1399 0.985 . S
H1396 N1391 0.984 . S
H1397 N1391 0.985 . S
H1398 N1395 0.984 . S
H1399 N1395 0.985 . S
H1400 N1394 0.984 . S
H1401 N1394 0.984 . S
H1402 N1390 0.984 . S
H1403 N1390 0.985 . S
C1404 C1405 1.363 . S
C1404 C1410 1.379 . S
C1404 N1412 1.356 . S
C1405 C1404 1.363 . S
C1405 C1411 1.363 . S
C1406 C1407 1.363 . S
C1406 C1411 1.379 . S
C1406 N1413 1.356 . S
C1407 C1406 1.363 . S
C1407 C1410 1.363 . S
N1408 C1410 1.356 . S
N1408 H1420 0.984 . S
N1408 H1421 0.985 . S
N1409 C1411 1.356 . S
N1409 H1414 0.984 . S
N1409 H1415 0.985 . S
C1410 C1404 1.379 . S
C1410 C1407 1.363 . S
C1410 N1408 1.356 . S
C1411 C1405 1.363 . S
C1411 C1406 1.379 . S
C1411 N1409 1.356 . S
N1412 C1404 1.356 . S
N1412 H1418 0.984 . S
N1412 H1419 0.984 . S
N1413 C1406 1.356 . S
N1413 H1416 0.984 . S
N1413 H1417 0.985 . S
H1414 N1409 0.984 . S
H1415 N1409 0.985 . S
H1416 N1413 0.984 . S
H1417 N1413 0.985 . S
H1418 N1412 0.984 . S
H1419 N1412 0.984 . S
H1420 N1408 0.984 . S
H1421 N1408 0.985 . S
C1422 C1423 1.363 . S
C1422 C1428 1.379 . S
C1422 N1430 1.356 . S
C1423 C1422 1.363 . S
C1423 C1429 1.363 . S
C1424 C1425 1.363 . S
C1424 C1429 1.379 . S
C1424 N1431 1.356 . S
C1425 C1424 1.363 . S
C1425 C1428 1.363 . S
N1426 C1428 1.356 . S
N1426 H1438 0.984 . S
N1426 H1439 0.985 . S
N1427 C1429 1.356 . S
N1427 H1432 0.984 . S
N1427 H1433 0.985 . S
C1428 C1422 1.379 . S
C1428 C1425 1.363 . S
C1428 N1426 1.356 . S
C1429 C1423 1.363 . S
C1429 C1424 1.379 . S
C1429 N1427 1.356 . S
N1430 C1422 1.356 . S
N1430 H1436 0.984 . S
N1430 H1437 0.984 . S
N1431 C1424 1.356 . S
N1431 H1434 0.984 . S
N1431 H1435 0.985 . S
H1432 N1427 0.984 . S
H1433 N1427 0.985 . S
H1434 N1431 0.984 . S
H1435 N1431 0.985 . S
H1436 N1430 0.984 . S
H1437 N1430 0.984 . S
H1438 N1426 0.984 . S
H1439 N1426 0.985 . S
C1440 C1441 1.335 1_565 S
C1440 C1446 1.379 . S
C1440 N1448 1.356 . S
C1441 C1440 1.335 1_545 S
C1441 C1447 1.389 . S
C1442 C1443 1.363 1_545 S
C1442 C1447 1.379 . S
C1442 N1449 1.356 . S
C1443 C1442 1.363 1_565 S
C1443 C1446 1.363 . S
N1444 C1446 1.356 . S
N1444 H1456 0.984 . S
N1444 H1457 0.985 . S
N1445 C1447 1.356 . S
N1445 H1450 0.984 . S
N1445 H1451 0.985 . S
C1446 C1440 1.379 . S
C1446 C1443 1.363 . S
C1446 N1444 1.356 . S
C1447 C1441 1.389 . S
C1447 C1442 1.379 . S
C1447 N1445 1.356 . S
N1448 C1440 1.356 . S
N1448 H1454 0.984 . S
N1448 H1455 0.984 . S
N1449 C1442 1.356 . S
N1449 H1452 0.984 . S
N1449 H1453 0.985 . S
H1450 N1445 0.984 . S
H1451 N1445 0.985 . S
H1452 N1449 0.984 . S
H1453 N1449 0.985 . S
H1454 N1448 0.984 . S
H1455 N1448 0.984 . S
H1456 N1444 0.984 . S
H1457 N1444 0.985 . S
C1458 C1459 1.363 . S
C1458 C1464 1.379 . S
C1458 N1466 1.356 . S
C1459 C1458 1.363 . S
C1459 C1465 1.363 . S
C1460 C1461 1.363 . S
C1460 C1465 1.379 . S
C1460 N1467 1.356 . S
C1461 C1460 1.363 . S
C1461 C1464 1.363 . S
N1462 C1464 1.356 . S
N1462 H1474 0.984 . S
N1462 H1475 0.985 . S
N1463 C1465 1.356 . S
N1463 H1468 0.984 . S
N1463 H1469 0.985 . S
C1464 C1458 1.379 . S
C1464 C1461 1.363 . S
C1464 N1462 1.356 . S
C1465 C1459 1.363 . S
C1465 C1460 1.379 . S
C1465 N1463 1.356 . S
N1466 C1458 1.356 . S
N1466 H1472 0.984 . S
N1466 H1473 0.984 . S
N1467 C1460 1.356 . S
N1467 H1470 0.984 . S
N1467 H1471 0.985 . S
H1468 N1463 0.984 . S
H1469 N1463 0.985 . S
H1470 N1467 0.984 . S
H1471 N1467 0.985 . S
H1472 N1466 0.984 . S
H1473 N1466 0.984 . S
H1474 N1462 0.984 . S
H1475 N1462 0.985 . S
C1476 C1477 1.363 . S
C1476 C1482 1.379 . S
C1476 N1484 1.356 . S
C1477 C1476 1.363 . S
C1477 C1483 1.363 . S
C1478 C1479 1.363 . S
C1478 C1483 1.379 . S
C1478 N1485 1.356 . S
C1479 C1478 1.363 . S
C1479 C1482 1.363 . S
N1480 C1482 1.356 . S
N1480 H1492 0.984 . S
N1480 H1493 0.985 . S
N1481 C1483 1.356 . S
N1481 H1486 0.984 . S
N1481 H1487 0.985 . S
C1482 C1476 1.379 . S
C1482 C1479 1.363 . S
C1482 N1480 1.356 . S
C1483 C1477 1.363 . S
C1483 C1478 1.379 . S
C1483 N1481 1.356 . S
N1484 C1476 1.356 . S
N1484 H1490 0.984 . S
N1484 H1491 0.984 . S
N1485 C1478 1.356 . S
N1485 H1488 0.984 . S
N1485 H1489 0.985 . S
H1486 N1481 0.984 . S
H1487 N1481 0.985 . S
H1488 N1485 0.984 . S
H1489 N1485 0.985 . S
H1490 N1484 0.984 . S
H1491 N1484 0.984 . S
H1492 N1480 0.984 . S
H1493 N1480 0.985 . S
C1494 C1495 1.363 . S
C1494 C1500 1.379 . S
C1494 N1502 1.356 . S
C1495 C1494 1.363 . S
C1495 C1501 1.363 . S
C1496 C1497 1.363 . S
C1496 C1501 1.379 . S
C1496 N1503 1.356 . S
C1497 C1496 1.363 . S
C1497 C1500 1.363 . S
N1498 C1500 1.356 . S
N1498 H1510 0.984 . S
N1498 H1511 0.985 . S
N1499 C1501 1.356 . S
N1499 H1504 0.984 . S
N1499 H1505 0.985 . S
C1500 C1494 1.379 . S
C1500 C1497 1.363 . S
C1500 N1498 1.356 . S
C1501 C1495 1.363 . S
C1501 C1496 1.379 . S
C1501 N1499 1.356 . S
N1502 C1494 1.356 . S
N1502 H1508 0.984 . S
N1502 H1509 0.984 . S
N1503 C1496 1.356 . S
N1503 H1506 0.984 . S
N1503 H1507 0.985 . S
H1504 N1499 0.984 . S
H1505 N1499 0.985 . S
H1506 N1503 0.984 . S
H1507 N1503 0.985 . S
H1508 N1502 0.984 . S
H1509 N1502 0.984 . S
H1510 N1498 0.984 . S
H1511 N1498 0.985 . S
C1512 C1513 1.363 . S
C1512 C1518 1.379 . S
C1512 N1520 1.356 . S
C1513 C1512 1.363 . S
C1513 C1519 1.363 . S
C1514 C1515 1.363 . S
C1514 C1519 1.379 . S
C1514 N1521 1.356 . S
C1515 C1514 1.363 . S
C1515 C1518 1.363 . S
N1516 C1518 1.356 . S
N1516 H1528 0.984 . S
N1516 H1529 0.985 . S
N1517 C1519 1.356 . S
N1517 H1522 0.984 . S
N1517 H1523 0.985 . S
C1518 C1512 1.379 . S
C1518 C1515 1.363 . S
C1518 N1516 1.356 . S
C1519 C1513 1.363 . S
C1519 C1514 1.379 . S
C1519 N1517 1.356 . S
N1520 C1512 1.356 . S
N1520 H1526 0.984 . S
N1520 H1527 0.984 . S
N1521 C1514 1.356 . S
N1521 H1524 0.984 . S
N1521 H1525 0.985 . S
H1522 N1517 0.984 . S
H1523 N1517 0.985 . S
H1524 N1521 0.984 . S
H1525 N1521 0.985 . S
H1526 N1520 0.984 . S
H1527 N1520 0.984 . S
H1528 N1516 0.984 . S
H1529 N1516 0.985 . S
C1530 C1531 1.363 . S
C1530 C1536 1.379 . S
C1530 N1538 1.356 . S
C1531 C1530 1.363 . S
C1531 C1537 1.363 . S
C1532 C1533 1.363 . S
C1532 C1537 1.379 . S
C1532 N1539 1.356 . S
C1533 C1532 1.363 . S
C1533 C1536 1.363 . S
N1534 C1536 1.356 . S
N1534 H1546 0.984 . S
N1534 H1547 0.985 . S
N1535 C1537 1.356 . S
N1535 H1540 0.984 . S
N1535 H1541 0.985 . S
C1536 C1530 1.379 . S
C1536 C1533 1.363 . S
C1536 N1534 1.356 . S
C1537 C1531 1.363 . S
C1537 C1532 1.379 . S
C1537 N1535 1.356 . S
N1538 C1530 1.356 . S
N1538 H1544 0.984 . S
N1538 H1545 0.984 . S
N1539 C1532 1.356 . S
N1539 H1542 0.984 . S
N1539 H1543 0.985 . S
H1540 N1535 0.984 . S
H1541 N1535 0.985 . S
H1542 N1539 0.984 . S
H1543 N1539 0.985 . S
H1544 N1538 0.984 . S
H1545 N1538 0.984 . S
H1546 N1534 0.984 . S
H1547 N1534 0.985 . S
C1548 C1549 1.363 . S
C1548 C1554 1.379 . S
C1548 N1556 1.356 . S
C1549 C1548 1.363 . S
C1549 C1555 1.363 . S
C1550 C1551 1.363 . S
C1550 C1555 1.379 . S
C1550 N1557 1.356 . S
C1551 C1550 1.363 . S
C1551 C1554 1.363 . S
N1552 C1554 1.356 . S
N1552 H1564 0.984 . S
N1552 H1565 0.985 . S
N1553 C1555 1.356 . S
N1553 H1558 0.984 . S
N1553 H1559 0.985 . S
C1554 C1548 1.379 . S
C1554 C1551 1.363 . S
C1554 N1552 1.356 . S
C1555 C1549 1.363 . S
C1555 C1550 1.379 . S
C1555 N1553 1.356 . S
N1556 C1548 1.356 . S
N1556 H1562 0.984 . S
N1556 H1563 0.984 . S
N1557 C1550 1.356 . S
N1557 H1560 0.984 . S
N1557 H1561 0.985 . S
H1558 N1553 0.984 . S
H1559 N1553 0.985 . S
H1560 N1557 0.984 . S
H1561 N1557 0.985 . S
H1562 N1556 0.984 . S
H1563 N1556 0.984 . S
H1564 N1552 0.984 . S
H1565 N1552 0.985 . S
C1566 C1567 1.363 . S
C1566 C1572 1.379 . S
C1566 N1574 1.356 . S
C1567 C1566 1.363 . S
C1567 C1573 1.363 . S
C1568 C1569 1.363 . S
C1568 C1573 1.379 . S
C1568 N1575 1.356 . S
C1569 C1568 1.363 . S
C1569 C1572 1.363 . S
N1570 C1572 1.356 . S
N1570 H1582 0.984 . S
N1570 H1583 0.985 . S
N1571 C1573 1.356 . S
N1571 H1576 0.984 . S
N1571 H1577 0.985 . S
C1572 C1566 1.379 . S
C1572 C1569 1.363 . S
C1572 N1570 1.356 . S
C1573 C1567 1.363 . S
C1573 C1568 1.379 . S
C1573 N1571 1.356 . S
N1574 C1566 1.356 . S
N1574 H1580 0.984 . S
N1574 H1581 0.984 . S
N1575 C1568 1.356 . S
N1575 H1578 0.984 . S
N1575 H1579 0.985 . S
H1576 N1571 0.984 . S
H1577 N1571 0.985 . S
H1578 N1575 0.984 . S
H1579 N1575 0.985 . S
H1580 N1574 0.984 . S
H1581 N1574 0.984 . S
H1582 N1570 0.984 . S
H1583 N1570 0.985 . S
C1584 C1585 1.363 . S
C1584 C1590 1.379 . S
C1584 N1592 1.356 . S
C1585 C1584 1.363 . S
C1585 C1591 1.363 . S
C1586 C1587 1.363 . S
C1586 C1591 1.379 . S
C1586 N1593 1.356 . S
C1587 C1586 1.363 . S
C1587 C1590 1.363 . S
N1588 C1590 1.356 . S
N1588 H1600 0.984 . S
N1588 H1601 0.985 . S
N1589 C1591 1.356 . S
N1589 H1594 0.984 . S
N1589 H1595 0.985 . S
C1590 C1584 1.379 . S
C1590 C1587 1.363 . S
C1590 N1588 1.356 . S
C1591 C1585 1.363 . S
C1591 C1586 1.379 . S
C1591 N1589 1.356 . S
N1592 C1584 1.356 . S
N1592 H1598 0.984 . S
N1592 H1599 0.984 . S
N1593 C1586 1.356 . S
N1593 H1596 0.984 . S
N1593 H1597 0.985 . S
H1594 N1589 0.984 . S
H1595 N1589 0.985 . S
H1596 N1593 0.984 . S
H1597 N1593 0.985 . S
H1598 N1592 0.984 . S
H1599 N1592 0.984 . S
H1600 N1588 0.984 . S
H1601 N1588 0.985 . S
C1602 C1603 1.363 . S
C1602 C1608 1.379 . S
C1602 N1610 1.356 . S
C1603 C1602 1.363 . S
C1603 C1609 1.363 . S
C1604 C1605 1.363 . S
C1604 C1609 1.379 . S
C1604 N1611 1.356 . S
C1605 C1604 1.363 . S
C1605 C1608 1.363 . S
N1606 C1608 1.356 . S
N1606 H1618 0.984 . S
N1606 H1619 0.985 . S
N1607 C1609 1.356 . S
N1607 H1612 0.984 . S
N1607 H1613 0.985 . S
C1608 C1602 1.379 . S
C1608 C1605 1.363 . S
C1608 N1606 1.356 . S
C1609 C1603 1.363 . S
C1609 C1604 1.379 . S
C1609 N1607 1.356 . S
N1610 C1602 1.356 . S
N1610 H1616 0.984 . S
N1610 H1617 0.984 . S
N1611 C1604 1.356 . S
N1611 H1614 0.984 . S
N1611 H1615 0.985 . S
H1612 N1607 0.984 . S
H1613 N1607 0.985 . S
H1614 N1611 0.984 . S
H1615 N1611 0.985 . S
H1616 N1610 0.984 . S
H1617 N1610 0.984 . S
H1618 N1606 0.984 . S
H1619 N1606 0.985 . S
C1620 C1621 1.364 . S
C1620 C1626 1.379 . S
C1620 N1628 1.352 1_655 S
C1621 C1620 1.364 . S
C1621 C1627 1.363 . S
C1622 C1623 1.363 . S
C1622 C1627 1.379 . S
C1622 N1629 1.356 . S
C1623 C1622 1.363 . S
C1623 C1626 1.368 . S
N1624 C1626 1.356 1_455 S
N1624 H1636 0.984 . S
N1624 H1637 0.985 . S
N1625 C1627 1.356 . S
N1625 H1630 0.984 . S
N1625 H1631 0.985 . S
C1626 C1620 1.379 . S
C1626 C1623 1.368 . S
C1626 N1624 1.356 1_655 S
C1627 C1621 1.363 . S
C1627 C1622 1.379 . S
C1627 N1625 1.356 . S
N1628 C1620 1.352 1_455 S
N1628 H1634 0.984 . S
N1628 H1635 0.984 . S
N1629 C1622 1.356 . S
N1629 H1632 0.984 . S
N1629 H1633 0.985 . S
H1630 N1625 0.984 . S
H1631 N1625 0.985 . S
H1632 N1629 0.984 . S
H1633 N1629 0.985 . S
H1634 N1628 0.984 . S
H1635 N1628 0.984 . S
H1636 N1624 0.984 . S
H1637 N1624 0.985 . S
C1638 C1639 1.363 . S
C1638 C1644 1.379 . S
C1638 N1646 1.356 . S
C1639 C1638 1.363 . S
C1639 C1645 1.363 . S
C1640 C1641 1.363 . S
C1640 C1645 1.379 . S
C1640 N1647 1.356 . S
C1641 C1640 1.363 . S
C1641 C1644 1.363 . S
N1642 C1644 1.356 . S
N1642 H1654 0.984 . S
N1642 H1655 0.985 . S
N1643 C1645 1.356 . S
N1643 H1648 0.984 . S
N1643 H1649 0.985 . S
C1644 C1638 1.379 . S
C1644 C1641 1.363 . S
C1644 N1642 1.356 . S
C1645 C1639 1.363 . S
C1645 C1640 1.379 . S
C1645 N1643 1.356 . S
N1646 C1638 1.356 . S
N1646 H1652 0.984 . S
N1646 H1653 0.984 . S
N1647 C1640 1.356 . S
N1647 H1650 0.984 . S
N1647 H1651 0.985 . S
H1648 N1643 0.984 . S
H1649 N1643 0.985 . S
H1650 N1647 0.984 . S
H1651 N1647 0.985 . S
H1652 N1646 0.984 . S
H1653 N1646 0.984 . S
H1654 N1642 0.984 . S
H1655 N1642 0.985 . S
C1656 C1657 1.363 . S
C1656 C1662 1.379 . S
C1656 N1664 1.356 . S
C1657 C1656 1.363 . S
C1657 C1663 1.363 . S
C1658 C1659 1.363 . S
C1658 C1663 1.379 . S
C1658 N1665 1.356 . S
C1659 C1658 1.363 . S
C1659 C1662 1.363 . S
N1660 C1662 1.356 . S
N1660 H1672 0.984 . S
N1660 H1673 0.985 . S
N1661 C1663 1.356 . S
N1661 H1666 0.984 . S
N1661 H1667 0.985 . S
C1662 C1656 1.379 . S
C1662 C1659 1.363 . S
C1662 N1660 1.356 . S
C1663 C1657 1.363 . S
C1663 C1658 1.379 . S
C1663 N1661 1.356 . S
N1664 C1656 1.356 . S
N1664 H1670 0.984 . S
N1664 H1671 0.984 . S
N1665 C1658 1.356 . S
N1665 H1668 0.984 . S
N1665 H1669 0.985 . S
H1666 N1661 0.984 . S
H1667 N1661 0.985 . S
H1668 N1665 0.984 . S
H1669 N1665 0.985 . S
H1670 N1664 0.984 . S
H1671 N1664 0.984 . S
H1672 N1660 0.984 . S
H1673 N1660 0.985 . S
C1674 C1675 1.363 . S
C1674 C1680 1.379 . S
C1674 N1682 1.356 . S
C1675 C1674 1.363 . S
C1675 C1681 1.363 . S
C1676 C1677 1.363 . S
C1676 C1681 1.379 . S
C1676 N1683 1.356 . S
C1677 C1676 1.363 . S
C1677 C1680 1.363 . S
N1678 C1680 1.356 . S
N1678 H1690 0.984 . S
N1678 H1691 0.985 . S
N1679 C1681 1.356 . S
N1679 H1684 0.984 . S
N1679 H1685 0.985 . S
C1680 C1674 1.379 . S
C1680 C1677 1.363 . S
C1680 N1678 1.356 . S
C1681 C1675 1.363 . S
C1681 C1676 1.379 . S
C1681 N1679 1.356 . S
N1682 C1674 1.356 . S
N1682 H1688 0.984 . S
N1682 H1689 0.984 . S
N1683 C1676 1.356 . S
N1683 H1686 0.984 . S
N1683 H1687 0.985 . S
H1684 N1679 0.984 . S
H1685 N1679 0.985 . S
H1686 N1683 0.984 . S
H1687 N1683 0.985 . S
H1688 N1682 0.984 . S
H1689 N1682 0.984 . S
H1690 N1678 0.984 . S
H1691 N1678 0.985 . S
C1692 C1693 1.363 . S
C1692 C1698 1.379 . S
C1692 N1700 1.356 . S
C1693 C1692 1.363 . S
C1693 C1699 1.363 . S
C1694 C1695 1.363 . S
C1694 C1699 1.379 . S
C1694 N1701 1.356 . S
C1695 C1694 1.363 . S
C1695 C1698 1.363 . S
N1696 C1698 1.356 . S
N1696 H1708 0.984 . S
N1696 H1709 0.985 . S
N1697 C1699 1.356 . S
N1697 H1702 0.984 . S
N1697 H1703 0.985 . S
C1698 C1692 1.379 . S
C1698 C1695 1.363 . S
C1698 N1696 1.356 . S
C1699 C1693 1.363 . S
C1699 C1694 1.379 . S
C1699 N1697 1.356 . S
N1700 C1692 1.356 . S
N1700 H1706 0.984 . S
N1700 H1707 0.984 . S
N1701 C1694 1.356 . S
N1701 H1704 0.984 . S
N1701 H1705 0.985 . S
H1702 N1697 0.984 . S
H1703 N1697 0.985 . S
H1704 N1701 0.984 . S
H1705 N1701 0.985 . S
H1706 N1700 0.984 . S
H1707 N1700 0.984 . S
H1708 N1696 0.984 . S
H1709 N1696 0.985 . S
C1710 C1711 1.363 . S
C1710 C1716 1.379 . S
C1710 N1718 1.356 . S
C1711 C1710 1.363 . S
C1711 C1717 1.363 . S
C1712 C1713 1.363 . S
C1712 C1717 1.379 . S
C1712 N1719 1.356 . S
C1713 C1712 1.363 . S
C1713 C1716 1.363 . S
N1714 C1716 1.356 . S
N1714 H1726 0.984 . S
N1714 H1727 0.985 . S
N1715 C1717 1.356 . S
N1715 H1720 0.984 . S
N1715 H1721 0.985 . S
C1716 C1710 1.379 . S
C1716 C1713 1.363 . S
C1716 N1714 1.356 . S
C1717 C1711 1.363 . S
C1717 C1712 1.379 . S
C1717 N1715 1.356 . S
N1718 C1710 1.356 . S
N1718 H1724 0.984 . S
N1718 H1725 0.984 . S
N1719 C1712 1.356 . S
N1719 H1722 0.984 . S
N1719 H1723 0.985 . S
H1720 N1715 0.984 . S
H1721 N1715 0.985 . S
H1722 N1719 0.984 . S
H1723 N1719 0.985 . S
H1724 N1718 0.984 . S
H1725 N1718 0.984 . S
H1726 N1714 0.984 . S
H1727 N1714 0.985 . S
C1728 C1729 1.363 . S
C1728 C1734 1.379 . S
C1728 N1736 1.356 . S
C1729 C1728 1.363 . S
C1729 C1735 1.363 . S
C1730 C1731 1.363 . S
C1730 C1735 1.379 . S
C1730 N1737 1.356 . S
C1731 C1730 1.363 . S
C1731 C1734 1.363 . S
N1732 C1734 1.356 . S
N1732 H1744 0.984 . S
N1732 H1745 0.985 . S
N1733 C1735 1.356 . S
N1733 H1738 0.984 . S
N1733 H1739 0.985 . S
C1734 C1728 1.379 . S
C1734 C1731 1.363 . S
C1734 N1732 1.356 . S
C1735 C1729 1.363 . S
C1735 C1730 1.379 . S
C1735 N1733 1.356 . S
N1736 C1728 1.356 . S
N1736 H1742 0.984 . S
N1736 H1743 0.984 . S
N1737 C1730 1.356 . S
N1737 H1740 0.984 . S
N1737 H1741 0.985 . S
H1738 N1733 0.984 . S
H1739 N1733 0.985 . S
H1740 N1737 0.984 . S
H1741 N1737 0.985 . S
H1742 N1736 0.984 . S
H1743 N1736 0.984 . S
H1744 N1732 0.984 . S
H1745 N1732 0.985 . S
C1746 C1747 1.363 . S
C1746 C1752 1.379 . S
C1746 N1754 1.356 . S
C1747 C1746 1.363 . S
C1747 C1753 1.363 . S
C1748 C1749 1.363 . S
C1748 C1753 1.379 . S
C1748 N1755 1.356 . S
C1749 C1748 1.363 . S
C1749 C1752 1.363 . S
N1750 C1752 1.356 . S
N1750 H1762 0.984 . S
N1750 H1763 0.985 . S
N1751 C1753 1.356 . S
N1751 H1756 0.984 . S
N1751 H1757 0.985 . S
C1752 C1746 1.379 . S
C1752 C1749 1.363 . S
C1752 N1750 1.356 . S
C1753 C1747 1.363 . S
C1753 C1748 1.379 . S
C1753 N1751 1.356 . S
N1754 C1746 1.356 . S
N1754 H1760 0.984 . S
N1754 H1761 0.984 . S
N1755 C1748 1.356 . S
N1755 H1758 0.984 . S
N1755 H1759 0.985 . S
H1756 N1751 0.984 . S
H1757 N1751 0.985 . S
H1758 N1755 0.984 . S
H1759 N1755 0.985 . S
H1760 N1754 0.984 . S
H1761 N1754 0.984 . S
H1762 N1750 0.984 . S
H1763 N1750 0.985 . S
C1764 C1765 1.363 1_545 S
C1764 C1770 1.379 . S
C1764 N1772 1.356 . S
C1765 C1764 1.363 1_565 S
C1765 C1771 1.363 . S
C1766 C1767 1.363 . S
C1766 C1771 1.379 . S
C1766 N1773 1.356 . S
C1767 C1766 1.363 . S
C1767 C1770 1.363 1_565 S
N1768 C1770 1.356 . S
N1768 H1780 0.984 . S
N1768 H1781 0.985 . S
N1769 C1771 1.356 . S
N1769 H1774 0.984 . S
N1769 H1775 0.985 . S
C1770 C1764 1.379 . S
C1770 C1767 1.363 1_545 S
C1770 N1768 1.356 . S
C1771 C1765 1.363 . S
C1771 C1766 1.379 . S
C1771 N1769 1.356 . S
N1772 C1764 1.356 . S
N1772 H1778 0.984 . S
N1772 H1779 0.984 . S
N1773 C1766 1.356 . S
N1773 H1776 0.984 . S
N1773 H1777 0.985 . S
H1774 N1769 0.984 . S
H1775 N1769 0.985 . S
H1776 N1773 0.984 . S
H1777 N1773 0.985 . S
H1778 N1772 0.984 . S
H1779 N1772 0.984 . S
H1780 N1768 0.984 . S
H1781 N1768 0.985 . S
C1782 C1783 1.363 . S
C1782 C1788 1.379 . S
C1782 N1790 1.356 . S
C1783 C1782 1.363 . S
C1783 C1789 1.363 . S
C1784 C1785 1.363 . S
C1784 C1789 1.379 . S
C1784 N1791 1.356 . S
C1785 C1784 1.363 . S
C1785 C1788 1.363 . S
N1786 C1788 1.356 . S
N1786 H1798 0.984 . S
N1786 H1799 0.985 . S
N1787 C1789 1.356 . S
N1787 H1792 0.984 . S
N1787 H1793 0.985 . S
C1788 C1782 1.379 . S
C1788 C1785 1.363 . S
C1788 N1786 1.356 . S
C1789 C1783 1.363 . S
C1789 C1784 1.379 . S
C1789 N1787 1.356 . S
N1790 C1782 1.356 . S
N1790 H1796 0.984 . S
N1790 H1797 0.984 . S
N1791 C1784 1.356 . S
N1791 H1794 0.984 . S
N1791 H1795 0.985 . S
H1792 N1787 0.984 . S
H1793 N1787 0.985 . S
H1794 N1791 0.984 . S
H1795 N1791 0.985 . S
H1796 N1790 0.984 . S
H1797 N1790 0.984 . S
H1798 N1786 0.984 . S
H1799 N1786 0.985 . S
C505 C3 1.576 . S
C507 C157 1.576 . S
C523 C129 1.576 . S
C525 C17 1.576 . S
C541 C143 1.576 . S
C543 C31 1.576 . S
C559 C45 1.576 . S
C561 C101 1.576 . S
C577 C59 1.576 . S
C579 C115 1.576 . S
C595 C73 1.576 . S
C597 C87 1.576 . S
C613 C171 1.576 . S
C615 C325 1.576 . S
C631 C297 1.575 . S
C633 C185 1.575 . S
C649 C199 1.576 . S
C651 C311 1.576 . S
C667 C213 1.576 . S
C669 C269 1.576 . S
C685 C227 1.576 . S
C687 C283 1.576 . S
C703 C241 1.576 . S
C705 C255 1.576 . S
C721 C339 1.576 . S
C723 C493 1.576 . S
C739 C353 1.576 . S
C741 C465 1.576 . S
C757 C479 1.576 . S
C759 C367 1.576 . S
C775 C381 1.576 . S
C777 C437 1.576 . S
C793 C451 1.576 . S
C795 C395 1.576 . S
C811 C423 1.575 . S
C813 C409 1.575 . S
C829 C8 1.400 . S
C831 C218 1.400 . S
C847 C22 1.400 . S
C849 C232 1.400 . S
C865 C36 1.400 . S
C867 C246 1.400 . S
C883 C50 1.400 . S
C885 C344 1.400 . S
C901 C358 1.400 . S
C903 C64 1.400 . S
C919 C372 1.400 . S
C921 C78 1.400 . S
C937 C92 1.400 . S
C939 C470 1.400 . S
C955 C484 1.400 . S
C957 C106 1.400 . S
C973 C120 1.400 . S
C975 C498 1.400 . S
C991 C134 1.400 . S
C993 C260 1.400 . S
C1009 C148 1.400 . S
C1011 C274 1.400 . S
C1027 C162 1.400 . S
C1029 C288 1.400 . S
C1045 C386 1.400 . S
C1047 C176 1.400 . S
C1063 C190 1.400 . S
C1065 C400 1.400 . S
C1081 C204 1.400 . S
C1083 C414 1.400 . S
C1099 C428 1.400 . S
C1101 C302 1.400 . S
C1117 C442 1.400 . S
C1119 C316 1.400 . S
C1135 C330 1.400 . S
C1137 C456 1.400 . S
C1153 C9 1.344 . S
C1155 C65 1.344 . S
C1171 C79 1.344 . S
C1173 C23 1.344 . S
C1189 C51 1.344 . S
C1191 C37 1.344 . S
C1207 C93 1.344 . S
C1209 C149 1.344 . S
C1225 C163 1.344 . S
C1227 C107 1.344 . S
C1243 C121 1.344 . S
C1245 C135 1.344 . S
C1261 C233 1.344 . S
C1263 C177 1.344 . S
C1279 C191 1.344 . S
C1281 C247 1.344 . S
C1297 C205 1.344 . S
C1299 C219 1.334 1_455 S
C1315 C317 1.344 . S
C1317 C261 1.344 . S
C1333 C331 1.343 . S
C1335 C275 1.340 1_455 S
C1351 C303 1.344 . S
C1353 C289 1.344 . S
C1369 C345 1.334 1_545 S
C1371 C401 1.344 . S
C1387 C359 1.344 . S
C1389 C415 1.344 . S
C1405 C373 1.344 . S
C1407 C387 1.344 . S
C1423 C485 1.344 . S
C1425 C429 1.344 . S
C1441 C499 1.340 1_545 S
C1443 C443 1.344 . S
C1459 C471 1.344 . S
C1461 C457 1.344 . S
C1477 C133 1.542 . S
C1479 C7 1.542 . S
C1495 C147 1.542 . S
C1497 C21 1.542 . S
C1513 C35 1.542 . S
C1515 C161 1.542 . S
C1531 C49 1.542 . S
C1533 C91 1.542 . S
C1549 C105 1.542 . S
C1551 C63 1.542 . S
C1567 C77 1.542 . S
C1569 C119 1.542 . S
C1585 C301 1.542 . S
C1587 C175 1.542 . S
C1603 C315 1.542 . S
C1605 C189 1.542 . S
C1621 C203 1.542 . S
C1623 C329 1.542 . S
C1639 C259 1.542 . S
C1641 C217 1.542 . S
C1657 C273 1.542 . S
C1659 C231 1.542 . S
C1675 C287 1.542 . S
C1677 C245 1.542 . S
C1693 C343 1.542 . S
C1695 C469 1.542 . S
C1711 C483 1.542 . S
C1713 C357 1.542 . S
C1729 C371 1.542 . S
C1731 C497 1.542 . S
C1747 C385 1.542 . S
C1749 C427 1.542 . S
C1765 C399 1.542 . S
C1767 C441 1.542 . S
C1783 C455 1.542 . S
C1785 C413 1.542 . S
