# Generated by pormake.
# Topology ske, (6)-cn, num edge types: 1
# Building blocks:
#     Node 0, Type 0, BuildingBlock: VOLQOD_clean_sbu_1, # of connection points: 6
#     Node 1, Type 0, BuildingBlock: VOLQOD_clean_sbu_1, # of connection points: 6
#     Node 2, Type 0, BuildingBlock: VOLQOD_clean_sbu_1, # of connection points: 6
#     Node 3, Type 0, BuildingBlock: VOLQOD_clean_sbu_1, # of connection points: 6
#     Node 4, Type 0, BuildingBlock: VOLQOD_clean_sbu_1, # of connection points: 6
#     Node 5, Type 0, BuildingBlock: VOLQOD_clean_sbu_1, # of connection points: 6
#     Node 6, Type 0, BuildingBlock: VOLQOD_clean_sbu_1, # of connection points: 6
#     Node 7, Type 0, BuildingBlock: VOLQOD_clean_sbu_1, # of connection points: 6
#     Edge 8, Type (0, 0), BuildingBlock: CIFDUS_clean_linker_0, # of connection points: 2
#     Edge 9, Type (0, 0), BuildingBlock: CIFDUS_clean_linker_0, # of connection points: 2
#     Edge 10, Type (0, 0), BuildingBlock: CIFDUS_clean_linker_0, # of connection points: 2
#     Edge 11, Type (0, 0), BuildingBlock: CIFDUS_clean_linker_0, # of connection points: 2
#     Edge 12, Type (0, 0), BuildingBlock: CIFDUS_clean_linker_0, # of connection points: 2
#     Edge 13, Type (0, 0), BuildingBlock: CIFDUS_clean_linker_0, # of connection points: 2
#     Edge 14, Type (0, 0), BuildingBlock: CIFDUS_clean_linker_0, # of connection points: 2
#     Edge 15, Type (0, 0), BuildingBlock: CIFDUS_clean_linker_0, # of connection points: 2
#     Edge 16, Type (0, 0), BuildingBlock: CIFDUS_clean_linker_0, # of connection points: 2
#     Edge 17, Type (0, 0), BuildingBlock: CIFDUS_clean_linker_0, # of connection points: 2
#     Edge 18, Type (0, 0), BuildingBlock: CIFDUS_clean_linker_0, # of connection points: 2
#     Edge 19, Type (0, 0), BuildingBlock: CIFDUS_clean_linker_0, # of connection points: 2
#     Edge 20, Type (0, 0), BuildingBlock: CIFDUS_clean_linker_0, # of connection points: 2
#     Edge 21, Type (0, 0), BuildingBlock: CIFDUS_clean_linker_0, # of connection points: 2
#     Edge 22, Type (0, 0), BuildingBlock: CIFDUS_clean_linker_0, # of connection points: 2
#     Edge 23, Type (0, 0), BuildingBlock: CIFDUS_clean_linker_0, # of connection points: 2
#     Edge 24, Type (0, 0), BuildingBlock: CIFDUS_clean_linker_0, # of connection points: 2
#     Edge 25, Type (0, 0), BuildingBlock: CIFDUS_clean_linker_0, # of connection points: 2
#     Edge 26, Type (0, 0), BuildingBlock: CIFDUS_clean_linker_0, # of connection points: 2
#     Edge 27, Type (0, 0), BuildingBlock: CIFDUS_clean_linker_0, # of connection points: 2
#     Edge 28, Type (0, 0), BuildingBlock: CIFDUS_clean_linker_0, # of connection points: 2
#     Edge 29, Type (0, 0), BuildingBlock: CIFDUS_clean_linker_0, # of connection points: 2
#     Edge 30, Type (0, 0), BuildingBlock: CIFDUS_clean_linker_0, # of connection points: 2
#     Edge 31, Type (0, 0), BuildingBlock: CIFDUS_clean_linker_0, # of connection points: 2
# Relax obj value: 0.030
# Max RMSD: 0.058
# Mean RMSD: 0.058
data_MOF--net-ske--node1-VOLQOD_clean_sbu_1--edge1-CIFDUS_clean_linker_0
_symmetry_space_group_name_H-M    P1
_symmetry_Int_Tables_number       1
_symmetry_cell_setting            triclinic
loop_
_symmetry_equiv_pos_as_xyz
'x, y, z'
_cell_length_a     59.252372
_cell_length_b     29.733149
_cell_length_c     15.169611
_cell_angle_alpha  90.005639
_cell_angle_beta   89.926407
_cell_angle_gamma 89.97035
loop_
_atom_site_label
_atom_site_type_symbol
_atom_site_fract_x
_atom_site_fract_y
_atom_site_fract_z
_atom_type_partial_charge
O0 O 0.12072 0.27306 0.76197 0.0
Zn1 Zn 0.11063 0.27946 0.63529 0.0
O2 O 0.12851 0.2391 0.56217 0.0
Zn3 Zn 0.15063 0.27302 0.49526 0.0
Zn4 Zn 0.14362 0.19415 0.63239 0.0
Zn5 Zn 0.10874 0.20815 0.48259 0.0
O6 O 0.14665 0.26133 0.36417 0.0
O7 O 0.11144 0.23484 0.36274 0.0
O8 O 0.11405 0.34416 0.59325 0.0
O9 O 0.14481 0.33906 0.50937 0.0
O10 O 0.18239 0.26052 0.53859 0.0
O11 O 0.17702 0.19883 0.61885 0.0
O12 O 0.13454 0.13079 0.60055 0.0
O13 O 0.0777 0.2621 0.63165 0.0
O14 O 0.11628 0.14236 0.47485 0.0
O15 O 0.0767 0.21138 0.52438 0.0
C16 C 0.13111 0.24127 0.80134 0.0
C17 C 0.12853 0.25121 0.32328 0.0
C18 C 0.18997 0.22817 0.58503 0.0
C19 C 0.12932 0.36227 0.54566 0.0
C20 C 0.12516 0.11589 0.53088 0.0
C21 C 0.06689 0.23398 0.58446 0.0
O22 O 0.139 0.20748 0.75996 0.0
O23 O 0.88136 0.21977 0.84155 0.0
Zn24 Zn 0.88899 0.20593 0.71437 0.0
O25 O 0.87335 0.24909 0.63935 0.0
Zn26 Zn 0.85208 0.21939 0.56147 0.0
Zn27 Zn 0.85689 0.29216 0.70839 0.0
Zn28 Zn 0.89491 0.28196 0.57054 0.0
O29 O 0.85781 0.23737 0.43536 0.0
O30 O 0.89344 0.26092 0.44587 0.0
O31 O 0.88016 0.14169 0.68153 0.0
O32 O 0.85773 0.15299 0.56592 0.0
O33 O 0.81941 0.22804 0.60147 0.0
O34 O 0.82486 0.27477 0.71364 0.0
O35 O 0.85929 0.35547 0.66113 0.0
O36 O 0.92307 0.21276 0.70234 0.0
O37 O 0.88848 0.34826 0.57022 0.0
O38 O 0.92607 0.2727 0.61514 0.0
C39 C 0.87353 0.2552 0.87806 0.0
C40 C 0.87665 0.24796 0.40027 0.0
C41 C 0.81205 0.24994 0.66782 0.0
C42 C 0.86833 0.12672 0.61759 0.0
C43 C 0.87342 0.37227 0.60717 0.0
C44 C 0.93487 0.24285 0.66411 0.0
O45 O 0.86603 0.28825 0.8336 0.0
O46 O 0.09061 0.69941 0.16925 0.0
Zn47 Zn 0.0876 0.6961 0.30324 0.0
O48 O 0.1088 0.73788 0.35831 0.0
Zn49 Zn 0.13257 0.70678 0.42304 0.0
Zn50 Zn 0.122 0.7769 0.27043 0.0
Zn51 Zn 0.09266 0.77485 0.44096 0.0
O52 O 0.13189 0.72309 0.5532 0.0
O53 O 0.09765 0.75326 0.5644 0.0
O54 O 0.09358 0.63268 0.3478 0.0
O55 O 0.12594 0.64041 0.42077 0.0
O56 O 0.16361 0.71738 0.3683 0.0
O57 O 0.15469 0.76306 0.25762 0.0
O58 O 0.1191 0.84296 0.30188 0.0
O59 O 0.05533 0.71344 0.33265 0.0
O60 O 0.10321 0.83861 0.43432 0.0
O61 O 0.05959 0.77457 0.41555 0.0
C62 C 0.09919 0.72971 0.11983 0.0
C63 C 0.11527 0.73672 0.59965 0.0
C64 C 0.16906 0.73984 0.29984 0.0
C65 C 0.10983 0.61599 0.39239 0.0
C66 C 0.11246 0.86141 0.37321 0.0
C67 C 0.04711 0.74692 0.37431 0.0
O68 O 0.10989 0.76312 0.15131 0.0
O69 O 0.86261 0.7783 0.23667 0.0
Zn70 Zn 0.87023 0.78924 0.36439 0.0
O71 O 0.85177 0.75067 0.43895 0.0
Zn72 Zn 0.82971 0.787 0.50239 0.0
Zn73 Zn 0.83685 0.7068 0.36523 0.0
Zn74 Zn 0.87052 0.7181 0.52039 0.0
O75 O 0.83096 0.77346 0.63263 0.0
O76 O 0.86384 0.73741 0.64365 0.0
O77 O 0.86597 0.85485 0.3953 0.0
O78 O 0.8386 0.85248 0.49569 0.0
O79 O 0.79816 0.77871 0.44933 0.0
O80 O 0.80479 0.72527 0.34961 0.0
O81 O 0.83817 0.64323 0.41419 0.0
O82 O 0.90335 0.77389 0.37968 0.0
O83 O 0.86442 0.65228 0.51669 0.0
O84 O 0.90314 0.72482 0.4903 0.0
C85 C 0.85695 0.74155 0.19956 0.0
C86 C 0.8468 0.75645 0.67878 0.0
C87 C 0.7916 0.75341 0.38623 0.0
C88 C 0.85307 0.87431 0.45069 0.0
C89 C 0.851 0.62724 0.47375 0.0
C90 C 0.91365 0.74746 0.43218 0.0
O91 O 0.8499 0.70786 0.24341 0.0
O92 O 0.60527 0.77762 0.25338 0.0
Zn93 Zn 0.59813 0.78608 0.1239 0.0
O94 O 0.61728 0.7472 0.05439 0.0
Zn95 Zn 0.64028 0.78076 0.99174 0.0
Zn96 Zn 0.63098 0.70413 0.13253 0.0
Zn97 Zn 0.5993 0.71567 0.97021 0.0
O98 O 0.63854 0.76934 0.85966 0.0
O99 O 0.604 0.74029 0.84984 0.0
O100 O 0.60236 0.85055 0.0866 0.0
O101 O 0.63315 0.84614 0.00298 0.0
O102 O 0.67137 0.77012 0.04521 0.0
O103 O 0.663 0.72273 0.15415 0.0
O104 O 0.63093 0.64142 0.07952 0.0
O105 O 0.56533 0.76937 0.10662 0.0
O106 O 0.60967 0.65271 0.96109 0.0
O107 O 0.56653 0.71613 0.00371 0.0
C108 C 0.60982 0.74091 0.29312 0.0
C109 C 0.62157 0.75681 0.814 0.0
C110 C 0.67699 0.74788 0.11379 0.0
C111 C 0.61748 0.869 0.03901 0.0
C112 C 0.622 0.62743 0.00816 0.0
C113 C 0.55555 0.74018 0.05838 0.0
O114 O 0.6162 0.70589 0.25158 0.0
O115 O 0.37651 0.70742 0.30071 0.0
Zn116 Zn 0.37978 0.70249 0.16748 0.0
O117 O 0.35952 0.74558 0.11088 0.0
Zn118 Zn 0.33505 0.7158 0.04782 0.0
Zn119 Zn 0.34709 0.78711 0.19664 0.0
Zn120 Zn 0.37669 0.77942 0.0265 0.0
O121 O 0.3358 0.73097 0.91685 0.0
O122 O 0.37073 0.75768 0.90418 0.0
O123 O 0.37244 0.63934 0.12564 0.0
O124 O 0.33998 0.64902 0.05395 0.0
O125 O 0.3045 0.72881 0.10357 0.0
O126 O 0.314 0.77648 0.20995 0.0
O127 O 0.35193 0.85251 0.16179 0.0
O128 O 0.41254 0.71612 0.13905 0.0
O129 O 0.36826 0.84429 0.03085 0.0
O130 O 0.40976 0.77563 0.0511 0.0
C131 C 0.36857 0.73875 0.34929 0.0
C132 C 0.35264 0.74283 0.86971 0.0
C133 C 0.29931 0.7529 0.17015 0.0
C134 C 0.35561 0.62367 0.08321 0.0
C135 C 0.35949 0.86909 0.09 0.0
C136 C 0.42158 0.74775 0.09472 0.0
O137 O 0.35871 0.77304 0.31695 0.0
O138 O 0.61126 0.21122 0.6763 0.0
Zn139 Zn 0.6053 0.20306 0.8075 0.0
O140 O 0.62393 0.24461 0.8731 0.0
Zn141 Zn 0.64851 0.21449 0.93344 0.0
Zn142 Zn 0.63498 0.28951 0.79244 0.0
Zn143 Zn 0.60609 0.27452 0.95929 0.0
O144 O 0.64676 0.22421 0.06728 0.0
O145 O 0.61152 0.24953 0.07824 0.0
O146 O 0.61225 0.13957 0.84535 0.0
O147 O 0.64451 0.14822 0.91886 0.0
O148 O 0.67855 0.23061 0.8763 0.0
O149 O 0.66739 0.27651 0.76895 0.0
O150 O 0.63297 0.3525 0.84327 0.0
O151 O 0.57213 0.2161 0.82997 0.0
O152 O 0.61509 0.33828 0.9688 0.0
O153 O 0.57346 0.27148 0.92869 0.0
C154 C 0.61467 0.24786 0.63456 0.0
C155 C 0.62947 0.2346 0.11362 0.0
C156 C 0.68271 0.25378 0.80721 0.0
C157 C 0.6291 0.12337 0.88674 0.0
C158 C 0.62532 0.36523 0.91777 0.0
C159 C 0.56242 0.24561 0.87785 0.0
O160 O 0.62003 0.2841 0.6742 0.0
O161 O 0.38282 0.28249 0.70581 0.0
Zn162 Zn 0.38728 0.28683 0.8377 0.0
O163 O 0.36674 0.24607 0.89772 0.0
Zn164 Zn 0.34338 0.27929 0.96038 0.0
Zn165 Zn 0.35326 0.20494 0.81432 0.0
Zn166 Zn 0.38354 0.21143 0.98221 0.0
O167 O 0.34281 0.26153 0.09009 0.0
O168 O 0.37765 0.23428 0.10384 0.0
O169 O 0.38279 0.35054 0.88124 0.0
O170 O 0.35128 0.34511 0.96036 0.0
O171 O 0.31284 0.27195 0.90056 0.0
O172 O 0.32037 0.21733 0.80516 0.0
O173 O 0.35708 0.13968 0.84999 0.0
O174 O 0.4195 0.26914 0.86042 0.0
O175 O 0.37385 0.14698 0.98008 0.0
O176 O 0.41678 0.21281 0.95602 0.0
C177 C 0.37428 0.25146 0.65831 0.0
C178 C 0.35945 0.24912 0.13771 0.0
C179 C 0.30664 0.24513 0.83954 0.0
C180 C 0.36747 0.36835 0.92897 0.0
C181 C 0.36442 0.12275 0.92167 0.0
C182 C 0.42854 0.2384 0.9069 0.0
O183 O 0.36426 0.21765 0.69193 0.0
H184 H 0.2107 0.29152 0.68153 0.0
H185 H 0.2209 0.16243 0.5589 0.0
H186 H 0.25806 0.15609 0.62862 0.0
H187 H 0.28658 0.18571 0.72927 0.0
H188 H 0.2755 0.31264 0.86078 0.0
H189 H 0.23937 0.32097 0.78453 0.0
C190 C 0.2214 0.26261 0.66868 0.0
C191 C 0.21359 0.22801 0.61354 0.0
C192 C 0.24219 0.25835 0.71227 0.0
C193 C 0.22698 0.1898 0.59963 0.0
C194 C 0.24803 0.18601 0.64018 0.0
C195 C 0.27627 0.21521 0.74165 0.0
C196 C 0.28376 0.2485 0.80082 0.0
C197 C 0.25561 0.21975 0.6977 0.0
C198 C 0.27007 0.28632 0.81624 0.0
C199 C 0.24951 0.2913 0.77204 0.0
H200 H 0.72235 0.22972 0.88436 0.0
H201 H 0.69392 0.27528 0.63823 0.0
H202 H 0.73115 0.27387 0.56974 0.0
H203 H 0.77236 0.26284 0.58128 0.0
H204 H 0.80082 0.22278 0.83041 0.0
H205 H 0.76319 0.21821 0.89568 0.0
C206 C 0.72431 0.23919 0.81572 0.0
C207 C 0.70543 0.25282 0.76686 0.0
C208 C 0.74583 0.23904 0.77695 0.0
C209 C 0.70824 0.26514 0.67786 0.0
C210 C 0.72952 0.26414 0.63831 0.0
C211 C 0.77014 0.25246 0.64929 0.0
C212 C 0.78908 0.24277 0.70102 0.0
C213 C 0.74849 0.2515 0.68734 0.0
C214 C 0.78628 0.23018 0.7896 0.0
C215 C 0.76483 0.22773 0.82699 0.0
H216 H 0.25993 0.73599 0.0837 0.0
H217 H 0.28714 0.76518 0.34105 0.0
H218 H 0.24952 0.76024 0.4058 0.0
H219 H 0.20851 0.74907 0.38917 0.0
H220 H 0.18096 0.72691 0.13005 0.0
H221 H 0.21888 0.72716 0.06633 0.0
C222 C 0.25757 0.74122 0.15387 0.0
C223 C 0.27625 0.75099 0.20733 0.0
C224 C 0.23579 0.73937 0.19053 0.0
C225 C 0.27297 0.75804 0.29821 0.0
C226 C 0.25148 0.755 0.3355 0.0
C227 C 0.21094 0.74389 0.31901 0.0
C228 C 0.19216 0.7376 0.26434 0.0
C229 C 0.23273 0.7458 0.28234 0.0
C230 C 0.19531 0.73174 0.17323 0.0
C231 C 0.21695 0.73195 0.13678 0.0
H232 H 0.68838 0.75423 0.2856 0.0
H233 H 0.71679 0.75219 0.02381 0.0
H234 H 0.75495 0.75468 0.08597 0.0
H235 H 0.78004 0.75396 0.21502 0.0
H236 H 0.75183 0.76221 0.47657 0.0
H237 H 0.71357 0.76124 0.41448 0.0
C238 C 0.70298 0.75444 0.24234 0.0
C239 C 0.69993 0.75234 0.15039 0.0
C240 C 0.72474 0.75704 0.27853 0.0
C241 C 0.71883 0.75362 0.09472 0.0
C242 C 0.74058 0.75494 0.13026 0.0
C243 C 0.76547 0.75581 0.25828 0.0
C244 C 0.76859 0.75758 0.35015 0.0
C245 C 0.74371 0.75614 0.22202 0.0
C246 C 0.74973 0.7608 0.40569 0.0
C247 C 0.72792 0.76003 0.3702 0.0
H248 H 0.11748 0.90456 0.52862 0.0
H249 H 0.11485 0.92738 0.24799 0.0
H250 H 0.11854 0.00851 0.27208 0.0
H251 H 0.12161 0.07288 0.37359 0.0
H252 H 0.12642 0.04908 0.6536 0.0
H253 H 0.12285 0.96818 0.62906 0.0
C254 C 0.11769 0.92731 0.47272 0.0
C255 C 0.11566 0.91017 0.38672 0.0
C256 C 0.12021 0.97361 0.48701 0.0
C257 C 0.11638 0.93987 0.3148 0.0
C258 C 0.11843 0.9862 0.32858 0.0
C259 C 0.12189 0.04994 0.42918 0.0
C260 C 0.12408 0.0669 0.51535 0.0
C261 C 0.1202 0.00344 0.41446 0.0
C262 C 0.12477 0.03681 0.58667 0.0
C263 C 0.12266 0.9906 0.57272 0.0
H264 H 0.8365 0.42186 0.56545 0.0
H265 H 0.90858 0.42989 0.60011 0.0
H266 H 0.90786 0.5099 0.56285 0.0
H267 H 0.88682 0.57718 0.52002 0.0
H268 H 0.8153 0.56876 0.47109 0.0
H269 H 0.8156 0.48903 0.51325 0.0
C270 C 0.85195 0.4414 0.56524 0.0
C271 C 0.87253 0.42054 0.58646 0.0
C272 C 0.85149 0.48698 0.54057 0.0
C273 C 0.89258 0.44557 0.58428 0.0
C274 C 0.89216 0.49117 0.56295 0.0
C275 C 0.8713 0.55783 0.51858 0.0
C276 C 0.85103 0.57867 0.49335 0.0
C277 C 0.87174 0.51214 0.54085 0.0
C278 C 0.8311 0.55323 0.49018 0.0
C279 C 0.83127 0.50782 0.51466 0.0
H280 H 0.85497 0.91597 0.60882 0.0
H281 H 0.85816 0.94075 0.32915 0.0
H282 H 0.86301 0.02143 0.35644 0.0
H283 H 0.86607 0.08473 0.46008 0.0
H284 H 0.86663 0.05934 0.73988 0.0
H285 H 0.86084 0.97886 0.71277 0.0
C286 C 0.85662 0.93921 0.55406 0.0
C287 C 0.85587 0.92285 0.4671 0.0
C288 C 0.86023 0.98518 0.57043 0.0
C289 C 0.85856 0.95284 0.3965 0.0
C290 C 0.86135 -0.00116 0.41214 0.0
C291 C 0.86498 0.06149 0.51505 0.0
C292 C 0.86658 0.07781 0.60186 0.0
C293 C 0.86218 0.01535 0.4988 0.0
C294 C 0.8655 0.04742 0.67254 0.0
C295 C 0.86208 0.00152 0.65703 0.0
H296 H 0.14517 0.56532 0.44743 0.0
H297 H 0.07379 0.55824 0.39316 0.0
H298 H 0.07308 0.47998 0.44302 0.0
H299 H 0.09296 0.4131 0.50141 0.0
H300 H 0.16476 0.41952 0.54487 0.0
H301 H 0.16506 0.49871 0.50149 0.0
C302 C 0.12944 0.5467 0.44635 0.0
C303 C 0.10956 0.56768 0.4167 0.0
C304 C 0.1292 0.5017 0.47422 0.0
C305 C 0.08937 0.54285 0.41508 0.0
C306 C 0.08892 0.49817 0.44415 0.0
C307 C 0.10855 0.43219 0.50248 0.0
C308 C 0.12876 0.41095 0.52744 0.0
C309 C 0.10872 0.47728 0.47418 0.0
C310 C 0.149 0.43545 0.5265 0.0
C311 C 0.14919 0.48059 0.50135 0.0
H312 H 0.62879 0.55295 0.10799 0.0
H313 H 0.62353 0.59861 0.83891 0.0
H314 H 0.62644 0.52135 0.78588 0.0
H315 H 0.62743 0.4403 0.81649 0.0
H316 H 0.62949 0.39443 0.0861 0.0
H317 H 0.63106 0.47196 0.13838 0.0
C318 C 0.62859 0.54588 0.03783 0.0
C319 C 0.62585 0.58113 0.9775 0.0
C320 C 0.62955 0.50129 0.00786 0.0
C321 C 0.62541 0.57175 0.88665 0.0
C322 C 0.62709 0.52766 0.85621 0.0
C323 C 0.62851 0.44742 0.8865 0.0
C324 C 0.62823 0.41197 0.94734 0.0
C325 C 0.6287 0.49208 0.91627 0.0
C326 C 0.62946 0.4214 0.03806 0.0
C327 C 0.63038 0.46566 0.06805 0.0
H328 H 0.35863 0.91121 0.93213 0.0
H329 H 0.3581 0.93675 0.21215 0.0
H330 H 0.3594 0.01785 0.18436 0.0
H331 H 0.36221 0.08106 0.08029 0.0
H332 H 0.36094 0.05532 0.80034 0.0
H333 H 0.35878 0.97443 0.82833 0.0
C334 C 0.35875 0.93454 0.98713 0.0
C335 C 0.35852 0.91808 0.07411 0.0
C336 C 0.35925 0.98092 0.97062 0.0
C337 C 0.35827 0.94865 0.14466 0.0
C338 C 0.35911 -0.00505 0.12878 0.0
C339 C 0.36145 0.05771 0.02541 0.0
C340 C 0.362 0.07404 0.93833 0.0
C341 C 0.35987 0.01139 0.04204 0.0
C342 C 0.36058 0.04353 0.86789 0.0
C343 C 0.3594 -0.00268 0.88387 0.0
H344 H 0.33359 0.42268 0.98517 0.0
H345 H 0.40493 0.42196 0.92758 0.0
H346 H 0.40791 0.50011 0.97644 0.0
H347 H 0.39012 0.56892 0.03539 0.0
H348 H 0.31834 0.57082 0.08217 0.0
H349 H 0.31566 0.49175 0.03893 0.0
C350 C 0.34979 0.43963 0.98317 0.0
C351 C 0.36901 0.4165 0.95295 0.0
C352 C 0.35132 0.48465 0.01025 0.0
C353 C 0.38984 0.43909 0.95 0.0
C354 C 0.39159 0.48369 0.97845 0.0
C355 C 0.37398 0.55173 0.03698 0.0
C356 C 0.35449 0.57525 0.06288 0.0
C357 C 0.37245 0.50676 0.00902 0.0
C358 C 0.33356 0.55315 0.06282 0.0
C359 C 0.33202 0.50806 0.0379 0.0
H360 H 0.59494 0.07005 0.94028 0.0
H361 H 0.66595 0.06971 0.87809 0.0
H362 H 0.66869 0.99062 0.92135 0.0
H363 H 0.65105 0.92248 0.97932 0.0
H364 H 0.58055 0.92379 0.05141 0.0
H365 H 0.5775 0.00209 0.00359 0.0
C366 C 0.61089 0.05229 0.93516 0.0
C367 C 0.63015 0.075 0.90491 0.0
C368 C 0.61249 0.00748 0.96333 0.0
C369 C 0.65091 0.05242 0.90058 0.0
C370 C 0.65249 0.00744 0.92567 0.0
C371 C 0.63502 0.93993 0.9849 0.0
C372 C 0.61605 0.9174 0.01863 0.0
C373 C 0.63344 0.98481 0.95784 0.0
C374 C 0.59545 0.94054 0.02623 0.0
C375 C 0.59364 0.98516 -0.00175 0.0
H376 H 0.15962 0.22893 0.20038 0.0
H377 H 0.09357 0.28728 0.23356 0.0
H378 H 0.08916 0.29298 0.07362 0.0
H379 H 0.10316 0.27686 0.92437 0.0
H380 H 0.16752 0.21111 0.89173 0.0
H381 H 0.17361 0.21268 0.05097 0.0
C382 C 0.14445 0.24342 0.17217 0.0
C383 C 0.127 0.25793 0.22771 0.0
C384 C 0.14166 0.24481 0.0804 0.0
C385 C 0.10718 0.27592 0.19129 0.0
C386 C 0.10465 0.27911 0.10013 0.0
C387 C 0.11856 0.26325 0.95237 0.0
C388 C 0.13484 0.24387 0.89701 0.0
C389 C 0.12162 0.26297 0.04403 0.0
C390 C 0.15467 0.22586 0.93359 0.0
C391 C 0.15819 0.22686 0.02444 0.0
H392 H 0.84675 0.27413 0.27714 0.0
H393 H 0.91276 0.2157 0.3107 0.0
H394 H 0.91751 0.21089 0.1506 0.0
H395 H 0.90284 0.22428 0.0009 0.0
H396 H 0.83838 0.28964 0.96891 0.0
H397 H 0.83299 0.29102 0.12845 0.0
C398 C 0.86208 0.26019 0.249 0.0
C399 C 0.8793 0.24494 0.30452 0.0
C400 C 0.86498 0.25902 0.15746 0.0
C401 C 0.89932 0.22763 0.26832 0.0
C402 C 0.90202 0.22485 0.17713 0.0
C403 C 0.88767 0.23875 0.0293 0.0
C404 C 0.87103 0.25675 0.9741 0.0
C405 C 0.88498 0.24059 0.12105 0.0
C406 C 0.85148 0.27591 0.01081 0.0
C407 C 0.84834 0.27655 0.10176 0.0
H408 H 0.13364 0.74276 0.00803 0.0
H409 H 0.06334 0.70588 0.01643 0.0
H410 H 0.06211 0.7047 0.85454 0.0
H411 H 0.08091 0.71758 0.71122 0.0
H412 H 0.152 0.74856 0.70446 0.0
H413 H 0.15319 0.74849 0.86576 0.0
C414 C 0.11808 0.73431 0.97417 0.0
C415 C 0.0985 0.72503 0.02329 0.0
C416 C 0.1177 0.73278 0.88189 0.0
C417 C 0.07855 0.71322 0.97945 0.0
C418 C 0.07786 0.71272 0.88719 0.0
C419 C 0.09665 0.72418 0.74532 0.0
C420 C 0.1163 0.73366 0.69653 0.0
C421 C 0.09728 0.72302 0.83782 0.0
C422 C 0.13669 0.74129 0.74092 0.0
C423 C 0.13735 0.74137 0.83293 0.0
H424 H 0.86358 0.697 0.79565 0.0
H425 H 0.82812 0.82339 0.7777 0.0
H426 H 0.82927 0.83122 0.93835 0.0
H427 H 0.84087 0.80224 0.08368 0.0
H428 H 0.87332 0.6728 0.10149 0.0
H429 H 0.87311 0.66602 0.94059 0.0
C430 C 0.85607 0.72619 0.82709 0.0
C431 C 0.84591 0.75971 0.77545 0.0
C432 C 0.85645 0.73 0.91903 0.0
C433 C 0.83594 0.79709 0.81655 0.0
C434 C 0.83672 0.80169 0.90813 0.0
C435 C 0.84803 0.77281 0.05185 0.0
C436 C 0.85743 0.73835 0.10322 0.0
C437 C 0.84707 0.76849 0.95991 0.0
C438 C 0.86617 0.69977 0.06241 0.0
C439 C 0.866 0.69588 0.97081 0.0
H440 H 0.62853 0.79977 0.40717 0.0
H441 H 0.58998 0.67709 0.39376 0.0
H442 H 0.58995 0.67172 0.55482 0.0
H443 H 0.60137 0.70132 0.69845 0.0
H444 H 0.6429 0.82014 0.71304 0.0
H445 H 0.64163 0.82753 0.55204 0.0
C446 C 0.61996 0.77221 0.44001 0.0
C447 C 0.60895 0.73922 0.38971 0.0
C448 C 0.6208 0.76849 0.53223 0.0
C449 C 0.59838 0.70294 0.4319 0.0
C450 C 0.59842 0.69984 0.52363 0.0
C451 C 0.61012 0.72888 0.66631 0.0
C452 C 0.62206 0.76037 0.71713 0.0
C453 C 0.60966 0.7323 0.5743 0.0
C454 C 0.63366 0.79546 0.67493 0.0
C455 C 0.63283 0.79979 0.58314 0.0
H456 H 0.38631 0.721 0.75731 0.0
H457 H 0.31607 0.75886 0.76569 0.0
H458 H 0.31494 0.76106 0.60432 0.0
H459 H 0.33446 0.75528 0.46157 0.0
H460 H 0.40376 0.71137 0.45215 0.0
H461 H 0.40485 0.70828 0.61382 0.0
C462 C 0.37075 0.72952 0.72357 0.0
C463 C 0.35135 0.74026 0.77282 0.0
C464 C 0.37015 0.72977 0.6311 0.0
C465 C 0.33117 0.75048 0.72885 0.0
C466 C 0.33057 0.75192 0.63681 0.0
C467 C 0.34977 0.74499 0.49519 0.0
C468 C 0.36913 0.73423 0.44586 0.0
C469 C 0.35003 0.74218 0.58743 0.0
C470 C 0.38874 0.71996 0.48933 0.0
C471 C 0.38934 0.7183 0.58146 0.0
H472 H 0.60584 0.28483 0.22872 0.0
H473 H 0.65392 0.17606 0.21623 0.0
H474 H 0.65222 0.16812 0.37726 0.0
H475 H 0.63691 0.19279 0.52182 0.0
H476 H 0.59135 0.30572 0.53201 0.0
H477 H 0.59184 0.31102 0.37103 0.0
C478 C 0.61594 0.25928 0.26114 0.0
C479 C 0.62987 0.23082 0.21078 0.0
C480 C 0.6151 0.25548 0.35307 0.0
C481 C 0.64313 0.19843 0.25376 0.0
C482 C 0.64205 0.19375 0.34562 0.0
C483 C 0.62691 0.21808 0.48824 0.0
C484 C 0.61378 0.24837 0.53776 0.0
C485 C 0.62801 0.222 0.39591 0.0
C486 C 0.60135 0.28188 0.49459 0.0
C487 C 0.60172 0.28499 0.40287 0.0
H488 H 0.39265 0.27088 0.25122 0.0
H489 H 0.32264 0.23181 0.24027 0.0
H490 H 0.32119 0.22846 0.40165 0.0
H491 H 0.34041 0.23386 0.54517 0.0
H492 H 0.40946 0.27911 0.55634 0.0
H493 H 0.41084 0.28291 0.39496 0.0
C494 C 0.37706 0.26185 0.2844 0.0
C495 C 0.35783 0.25112 0.2345 0.0
C496 C 0.37628 0.26091 0.37674 0.0
C497 C 0.33761 0.24022 0.27771 0.0
C498 C 0.33683 0.2381 0.36972 0.0
C499 C 0.35574 0.24452 0.51196 0.0
C500 C 0.37494 0.25553 0.56174 0.0
C501 C 0.35615 0.24784 0.41975 0.0
C502 C 0.39456 0.2703 0.51881 0.0
C503 C 0.39533 0.27241 0.42684 0.0
H504 H 0.03805 0.28762 0.67645 0.0
H505 H 0.041 0.16386 0.52795 0.0
H506 H 0.0006 0.15261 0.54991 0.0
H507 H 0.96385 0.18057 0.60264 0.0
H508 H 0.96045 0.30719 0.73971 0.0
H509 H 0.00161 0.31439 0.73274 0.0
C510 C 0.02989 0.25803 0.64943 0.0
C511 C 0.04251 0.22682 0.6002 0.0
C512 C 0.00657 0.25216 0.66088 0.0
C513 C 0.03164 0.1887 0.56536 0.0
C514 C 0.00855 0.1821 0.57817 0.0
C515 C 0.9723 0.2091 0.63262 0.0
C516 C 0.95948 0.24296 0.67289 0.0
C517 C -0.00421 0.21388 0.62481 0.0
C518 C 0.97025 0.28054 0.7095 0.0
C519 C -0.00632 0.28478 0.7049 0.0
H520 H 0.94544 0.80914 0.38682 0.0
H521 H 0.93652 0.66952 0.45542 0.0
H522 H 0.97691 0.65609 0.43691 0.0
H523 H 0.01499 0.68437 0.40412 0.0
H524 H 0.02463 0.82544 0.35132 0.0
H525 H 0.98383 0.83814 0.36003 0.0
C526 C 0.95241 0.77585 0.39747 0.0
C527 C 0.93813 0.74037 0.42221 0.0
C528 C 0.97576 0.76866 0.3893 0.0
C529 C 0.94729 0.69741 0.43688 0.0
C530 C 0.97034 0.68965 0.42598 0.0
C531 C 0.00805 0.71774 0.39385 0.0
C532 C 0.02256 0.75386 0.37625 0.0
C533 C 0.98475 0.72503 0.40249 0.0
C534 C 0.0136 0.79719 0.36477 0.0
C535 C 0.99034 0.80444 0.3698 0.0
H536 H 0.52404 0.80407 0.08985 0.0
H537 H 0.53215 0.66192 0.04353 0.0
H538 H 0.49134 0.65095 0.05678 0.0
H539 H 0.45317 0.68231 0.07848 0.0
H540 H 0.44497 0.82552 0.10893 0.0
H541 H 0.48592 0.83573 0.10544 0.0
C542 C 0.51682 0.77072 0.0831 0.0
C543 C 0.53097 0.73382 0.06631 0.0
C544 C 0.49335 0.76494 0.08796 0.0
C545 C 0.52149 0.69082 0.05625 0.0
C546 C 0.49821 0.68453 0.06403 0.0
C547 C 0.46046 0.71561 0.0849 0.0
C548 C 0.44626 0.75309 0.09462 0.0
C549 C 0.48395 0.72138 0.07952 0.0
C550 C 0.4557 0.79625 0.10134 0.0
C551 C 0.47906 0.80209 0.09941 0.0
H552 H 0.46019 0.30179 0.87531 0.0
H553 H 0.45195 0.16025 0.9284 0.0
H554 H 0.49278 0.14911 0.91711 0.0
H555 H 0.531 0.18019 0.89468 0.0
H556 H 0.53917 0.32286 0.85646 0.0
H557 H 0.49819 0.33314 0.85833 0.0
C558 C 0.46736 0.26852 0.88415 0.0
C559 C 0.45317 0.23188 0.90229 0.0
C560 C 0.4908 0.26262 0.87979 0.0
C561 C 0.46262 0.189 0.91481 0.0
C562 C 0.48592 0.18259 0.90799 0.0
C563 C 0.52367 0.21334 0.88596 0.0
C564 C 0.53782 0.2507 0.87448 0.0
C565 C 0.50018 0.21917 0.89066 0.0
C566 C 0.52841 0.29373 0.86505 0.0
C567 C 0.50506 0.29959 0.86627 0.0
loop_
_geom_bond_atom_site_label_1
_geom_bond_atom_site_label_2
_geom_bond_distance
_geom_bond_site_symmetry_2
_ccdc_geom_bond_type
O0 Zn1 1.953 . S
O0 C16 1.225 . S
Zn1 O0 1.953 . S
Zn1 O2 1.949 . S
Zn1 O8 1.919 . S
Zn1 O13 1.924 . S
O2 Zn1 1.949 . S
O2 Zn3 1.923 . S
O2 Zn4 1.950 . S
O2 Zn5 1.945 . S
Zn3 O2 1.923 . S
Zn3 O6 1.933 . S
Zn3 O9 1.941 . S
Zn3 O10 1.965 . S
Zn4 O2 1.950 . S
Zn4 O11 1.938 . S
Zn4 O12 1.906 . S
Zn4 O22 1.953 . S
Zn5 O2 1.945 . S
Zn5 O7 1.932 . S
Zn5 O14 1.977 . S
Zn5 O15 1.910 . S
O6 Zn3 1.933 . S
O6 C17 1.226 . S
O7 Zn5 1.932 . S
O7 C17 1.307 . S
O8 Zn1 1.919 . S
O8 C19 1.253 . S
O9 Zn3 1.941 . S
O9 C19 1.283 . S
O10 Zn3 1.965 . S
O10 C18 1.303 . S
O11 Zn4 1.938 . S
O11 C18 1.247 . S
O12 Zn4 1.906 . S
O12 C20 1.304 . S
O13 Zn1 1.924 . S
O13 C21 1.311 . S
O14 Zn5 1.977 . S
O14 C20 1.272 . S
O15 Zn5 1.910 . S
O15 C21 1.231 . S
C16 O0 1.225 . S
C16 O22 1.298 . S
C17 O6 1.226 . S
C17 O7 1.307 . S
C18 O10 1.303 . S
C18 O11 1.247 . S
C19 O8 1.253 . S
C19 O9 1.283 . S
C20 O12 1.304 . S
C20 O14 1.272 . S
C21 O13 1.311 . S
C21 O15 1.231 . S
O22 Zn4 1.953 . S
O22 C16 1.298 . S
O23 Zn24 1.953 . S
O23 C39 1.225 . S
Zn24 O23 1.953 . S
Zn24 O25 1.949 . S
Zn24 O31 1.919 . S
Zn24 O36 1.924 . S
O25 Zn24 1.949 . S
O25 Zn26 1.923 . S
O25 Zn27 1.950 . S
O25 Zn28 1.945 . S
Zn26 O25 1.923 . S
Zn26 O29 1.933 . S
Zn26 O32 1.941 . S
Zn26 O33 1.965 . S
Zn27 O25 1.950 . S
Zn27 O34 1.938 . S
Zn27 O35 1.906 . S
Zn27 O45 1.953 . S
Zn28 O25 1.945 . S
Zn28 O30 1.932 . S
Zn28 O37 1.977 . S
Zn28 O38 1.910 . S
O29 Zn26 1.933 . S
O29 C40 1.226 . S
O30 Zn28 1.932 . S
O30 C40 1.307 . S
O31 Zn24 1.919 . S
O31 C42 1.253 . S
O32 Zn26 1.941 . S
O32 C42 1.283 . S
O33 Zn26 1.965 . S
O33 C41 1.303 . S
O34 Zn27 1.938 . S
O34 C41 1.247 . S
O35 Zn27 1.906 . S
O35 C43 1.304 . S
O36 Zn24 1.924 . S
O36 C44 1.311 . S
O37 Zn28 1.977 . S
O37 C43 1.272 . S
O38 Zn28 1.910 . S
O38 C44 1.231 . S
C39 O23 1.225 . S
C39 O45 1.298 . S
C40 O29 1.226 . S
C40 O30 1.307 . S
C41 O33 1.303 . S
C41 O34 1.247 . S
C42 O31 1.253 . S
C42 O32 1.283 . S
C43 O35 1.304 . S
C43 O37 1.272 . S
C44 O36 1.311 . S
C44 O38 1.231 . S
O45 Zn27 1.953 . S
O45 C39 1.298 . S
O46 Zn47 1.953 . S
O46 C62 1.225 . S
Zn47 O46 1.953 . S
Zn47 O48 1.949 . S
Zn47 O54 1.919 . S
Zn47 O59 1.924 . S
O48 Zn47 1.949 . S
O48 Zn49 1.923 . S
O48 Zn50 1.950 . S
O48 Zn51 1.945 . S
Zn49 O48 1.923 . S
Zn49 O52 1.933 . S
Zn49 O55 1.941 . S
Zn49 O56 1.965 . S
Zn50 O48 1.950 . S
Zn50 O57 1.938 . S
Zn50 O58 1.906 . S
Zn50 O68 1.953 . S
Zn51 O48 1.945 . S
Zn51 O53 1.932 . S
Zn51 O60 1.977 . S
Zn51 O61 1.910 . S
O52 Zn49 1.933 . S
O52 C63 1.226 . S
O53 Zn51 1.932 . S
O53 C63 1.307 . S
O54 Zn47 1.919 . S
O54 C65 1.253 . S
O55 Zn49 1.941 . S
O55 C65 1.283 . S
O56 Zn49 1.965 . S
O56 C64 1.303 . S
O57 Zn50 1.938 . S
O57 C64 1.247 . S
O58 Zn50 1.906 . S
O58 C66 1.304 . S
O59 Zn47 1.924 . S
O59 C67 1.311 . S
O60 Zn51 1.977 . S
O60 C66 1.272 . S
O61 Zn51 1.910 . S
O61 C67 1.231 . S
C62 O46 1.225 . S
C62 O68 1.298 . S
C63 O52 1.226 . S
C63 O53 1.307 . S
C64 O56 1.303 . S
C64 O57 1.247 . S
C65 O54 1.253 . S
C65 O55 1.283 . S
C66 O58 1.304 . S
C66 O60 1.272 . S
C67 O59 1.311 . S
C67 O61 1.231 . S
O68 Zn50 1.953 . S
O68 C62 1.298 . S
O69 Zn70 1.953 . S
O69 C85 1.225 . S
Zn70 O69 1.953 . S
Zn70 O71 1.949 . S
Zn70 O77 1.919 . S
Zn70 O82 1.924 . S
O71 Zn70 1.949 . S
O71 Zn72 1.923 . S
O71 Zn73 1.950 . S
O71 Zn74 1.945 . S
Zn72 O71 1.923 . S
Zn72 O75 1.933 . S
Zn72 O78 1.941 . S
Zn72 O79 1.965 . S
Zn73 O71 1.950 . S
Zn73 O80 1.938 . S
Zn73 O81 1.906 . S
Zn73 O91 1.953 . S
Zn74 O71 1.945 . S
Zn74 O76 1.932 . S
Zn74 O83 1.977 . S
Zn74 O84 1.910 . S
O75 Zn72 1.933 . S
O75 C86 1.226 . S
O76 Zn74 1.932 . S
O76 C86 1.307 . S
O77 Zn70 1.919 . S
O77 C88 1.253 . S
O78 Zn72 1.941 . S
O78 C88 1.283 . S
O79 Zn72 1.965 . S
O79 C87 1.303 . S
O80 Zn73 1.938 . S
O80 C87 1.247 . S
O81 Zn73 1.906 . S
O81 C89 1.304 . S
O82 Zn70 1.924 . S
O82 C90 1.311 . S
O83 Zn74 1.977 . S
O83 C89 1.272 . S
O84 Zn74 1.910 . S
O84 C90 1.231 . S
C85 O69 1.225 . S
C85 O91 1.298 . S
C86 O75 1.226 . S
C86 O76 1.307 . S
C87 O79 1.303 . S
C87 O80 1.247 . S
C88 O77 1.253 . S
C88 O78 1.283 . S
C89 O81 1.304 . S
C89 O83 1.272 . S
C90 O82 1.311 . S
C90 O84 1.231 . S
O91 Zn73 1.953 . S
O91 C85 1.298 . S
O92 Zn93 1.953 . S
O92 C108 1.225 . S
Zn93 O92 1.953 . S
Zn93 O94 1.949 . S
Zn93 O100 1.919 . S
Zn93 O105 1.924 . S
O94 Zn93 1.949 . S
O94 Zn95 1.923 . S
O94 Zn96 1.950 . S
O94 Zn97 1.945 . S
Zn95 O94 1.923 . S
Zn95 O98 1.933 1_554 S
Zn95 O101 1.941 . S
Zn95 O102 1.965 . S
Zn96 O94 1.950 . S
Zn96 O103 1.938 . S
Zn96 O104 1.906 . S
Zn96 O114 1.953 . S
Zn97 O94 1.945 . S
Zn97 O99 1.932 1_554 S
Zn97 O106 1.977 . S
Zn97 O107 1.910 . S
O98 Zn95 1.933 1_556 S
O98 C109 1.226 . S
O99 Zn97 1.932 1_556 S
O99 C109 1.307 . S
O100 Zn93 1.919 . S
O100 C111 1.253 . S
O101 Zn95 1.941 . S
O101 C111 1.283 . S
O102 Zn95 1.965 . S
O102 C110 1.303 . S
O103 Zn96 1.938 . S
O103 C110 1.247 . S
O104 Zn96 1.906 . S
O104 C112 1.304 . S
O105 Zn93 1.924 . S
O105 C113 1.311 . S
O106 Zn97 1.977 . S
O106 C112 1.272 . S
O107 Zn97 1.910 . S
O107 C113 1.231 . S
C108 O92 1.225 . S
C108 O114 1.298 . S
C109 O98 1.226 . S
C109 O99 1.307 . S
C110 O102 1.303 . S
C110 O103 1.247 . S
C111 O100 1.253 . S
C111 O101 1.283 . S
C112 O104 1.304 . S
C112 O106 1.272 . S
C113 O105 1.311 . S
C113 O107 1.231 . S
O114 Zn96 1.953 . S
O114 C108 1.298 . S
O115 Zn116 1.953 . S
O115 C131 1.225 . S
Zn116 O115 1.953 . S
Zn116 O117 1.949 . S
Zn116 O123 1.919 . S
Zn116 O128 1.924 . S
O117 Zn116 1.949 . S
O117 Zn118 1.923 . S
O117 Zn119 1.950 . S
O117 Zn120 1.945 . S
Zn118 O117 1.923 . S
Zn118 O121 1.933 1_554 S
Zn118 O124 1.941 . S
Zn118 O125 1.965 . S
Zn119 O117 1.950 . S
Zn119 O126 1.938 . S
Zn119 O127 1.906 . S
Zn119 O137 1.953 . S
Zn120 O117 1.945 . S
Zn120 O122 1.932 1_554 S
Zn120 O129 1.977 . S
Zn120 O130 1.910 . S
O121 Zn118 1.933 1_556 S
O121 C132 1.226 . S
O122 Zn120 1.932 1_556 S
O122 C132 1.307 . S
O123 Zn116 1.919 . S
O123 C134 1.253 . S
O124 Zn118 1.941 . S
O124 C134 1.283 . S
O125 Zn118 1.965 . S
O125 C133 1.303 . S
O126 Zn119 1.938 . S
O126 C133 1.247 . S
O127 Zn119 1.906 . S
O127 C135 1.304 . S
O128 Zn116 1.924 . S
O128 C136 1.311 . S
O129 Zn120 1.977 . S
O129 C135 1.272 . S
O130 Zn120 1.910 . S
O130 C136 1.231 . S
C131 O115 1.225 . S
C131 O137 1.298 . S
C132 O121 1.226 . S
C132 O122 1.307 . S
C133 O125 1.303 . S
C133 O126 1.247 . S
C134 O123 1.253 . S
C134 O124 1.283 . S
C135 O127 1.304 . S
C135 O129 1.272 . S
C136 O128 1.311 . S
C136 O130 1.231 . S
O137 Zn119 1.953 . S
O137 C131 1.298 . S
O138 Zn139 1.953 . S
O138 C154 1.225 . S
Zn139 O138 1.953 . S
Zn139 O140 1.949 . S
Zn139 O146 1.919 . S
Zn139 O151 1.924 . S
O140 Zn139 1.949 . S
O140 Zn141 1.923 . S
O140 Zn142 1.950 . S
O140 Zn143 1.945 . S
Zn141 O140 1.923 . S
Zn141 O144 1.933 1_556 S
Zn141 O147 1.941 . S
Zn141 O148 1.965 . S
Zn142 O140 1.950 . S
Zn142 O149 1.938 . S
Zn142 O150 1.906 . S
Zn142 O160 1.953 . S
Zn143 O140 1.945 . S
Zn143 O145 1.932 1_556 S
Zn143 O152 1.977 . S
Zn143 O153 1.910 . S
O144 Zn141 1.933 1_554 S
O144 C155 1.226 . S
O145 Zn143 1.932 1_554 S
O145 C155 1.307 . S
O146 Zn139 1.919 . S
O146 C157 1.253 . S
O147 Zn141 1.941 . S
O147 C157 1.283 . S
O148 Zn141 1.965 . S
O148 C156 1.303 . S
O149 Zn142 1.938 . S
O149 C156 1.247 . S
O150 Zn142 1.906 . S
O150 C158 1.304 . S
O151 Zn139 1.924 . S
O151 C159 1.311 . S
O152 Zn143 1.977 . S
O152 C158 1.272 . S
O153 Zn143 1.910 . S
O153 C159 1.231 . S
C154 O138 1.225 . S
C154 O160 1.298 . S
C155 O144 1.226 . S
C155 O145 1.307 . S
C156 O148 1.303 . S
C156 O149 1.247 . S
C157 O146 1.253 . S
C157 O147 1.283 . S
C158 O150 1.304 . S
C158 O152 1.272 . S
C159 O151 1.311 . S
C159 O153 1.231 . S
O160 Zn142 1.953 . S
O160 C154 1.298 . S
O161 Zn162 1.953 . S
O161 C177 1.225 . S
Zn162 O161 1.953 . S
Zn162 O163 1.949 . S
Zn162 O169 1.919 . S
Zn162 O174 1.924 . S
O163 Zn162 1.949 . S
O163 Zn164 1.923 . S
O163 Zn165 1.950 . S
O163 Zn166 1.945 . S
Zn164 O163 1.923 . S
Zn164 O167 1.933 1_556 S
Zn164 O170 1.941 . S
Zn164 O171 1.965 . S
Zn165 O163 1.950 . S
Zn165 O172 1.938 . S
Zn165 O173 1.906 . S
Zn165 O183 1.953 . S
Zn166 O163 1.945 . S
Zn166 O168 1.932 1_556 S
Zn166 O175 1.977 . S
Zn166 O176 1.910 . S
O167 Zn164 1.933 1_554 S
O167 C178 1.226 . S
O168 Zn166 1.932 1_554 S
O168 C178 1.307 . S
O169 Zn162 1.919 . S
O169 C180 1.253 . S
O170 Zn164 1.941 . S
O170 C180 1.283 . S
O171 Zn164 1.965 . S
O171 C179 1.303 . S
O172 Zn165 1.938 . S
O172 C179 1.247 . S
O173 Zn165 1.906 . S
O173 C181 1.304 . S
O174 Zn162 1.924 . S
O174 C182 1.311 . S
O175 Zn166 1.977 . S
O175 C181 1.272 . S
O176 Zn166 1.910 . S
O176 C182 1.231 . S
C177 O161 1.225 . S
C177 O183 1.298 . S
C178 O167 1.226 . S
C178 O168 1.307 . S
C179 O171 1.303 . S
C179 O172 1.247 . S
C180 O169 1.253 . S
C180 O170 1.283 . S
C181 O173 1.304 . S
C181 O175 1.272 . S
C182 O174 1.311 . S
C182 O176 1.231 . S
O183 Zn165 1.953 . S
O183 C177 1.298 . S
H184 C190 0.930 . S
H185 C193 0.930 . S
H186 C194 0.930 . S
H187 C195 0.930 . S
H188 C198 0.930 . S
H189 C199 0.930 . S
C190 H184 0.930 . S
C190 C191 1.355 . S
C190 C192 1.415 . S
C191 C190 1.355 . S
C191 C193 1.419 . S
C192 C190 1.415 . S
C192 C197 1.425 . S
C192 C199 1.409 . S
C193 H185 0.930 . S
C193 C191 1.419 . S
C193 C194 1.362 . S
C194 H186 0.930 . S
C194 C193 1.362 . S
C194 C197 1.409 . S
C195 H187 0.930 . S
C195 C196 1.355 . S
C195 C197 1.415 . S
C196 C195 1.355 . S
C196 C198 1.419 . S
C197 C192 1.425 . S
C197 C194 1.409 . S
C197 C195 1.415 . S
C198 H188 0.930 . S
C198 C196 1.419 . S
C198 C199 1.362 . S
C199 H189 0.930 . S
C199 C192 1.409 . S
C199 C198 1.362 . S
H200 C206 0.930 . S
H201 C209 0.930 . S
H202 C210 0.930 . S
H203 C211 0.930 . S
H204 C214 0.930 . S
H205 C215 0.930 . S
C206 H200 0.930 . S
C206 C207 1.355 . S
C206 C208 1.415 . S
C207 C206 1.355 . S
C207 C209 1.419 . S
C208 C206 1.415 . S
C208 C213 1.425 . S
C208 C215 1.409 . S
C209 H201 0.930 . S
C209 C207 1.419 . S
C209 C210 1.362 . S
C210 H202 0.930 . S
C210 C209 1.362 . S
C210 C213 1.409 . S
C211 H203 0.930 . S
C211 C212 1.355 . S
C211 C213 1.415 . S
C212 C211 1.355 . S
C212 C214 1.419 . S
C213 C208 1.425 . S
C213 C210 1.409 . S
C213 C211 1.415 . S
C214 H204 0.930 . S
C214 C212 1.419 . S
C214 C215 1.362 . S
C215 H205 0.930 . S
C215 C208 1.409 . S
C215 C214 1.362 . S
H216 C222 0.930 . S
H217 C225 0.930 . S
H218 C226 0.930 . S
H219 C227 0.930 . S
H220 C230 0.930 . S
H221 C231 0.930 . S
C222 H216 0.930 . S
C222 C223 1.355 . S
C222 C224 1.415 . S
C223 C222 1.355 . S
C223 C225 1.419 . S
C224 C222 1.415 . S
C224 C229 1.425 . S
C224 C231 1.409 . S
C225 H217 0.930 . S
C225 C223 1.419 . S
C225 C226 1.362 . S
C226 H218 0.930 . S
C226 C225 1.362 . S
C226 C229 1.409 . S
C227 H219 0.930 . S
C227 C228 1.355 . S
C227 C229 1.415 . S
C228 C227 1.355 . S
C228 C230 1.419 . S
C229 C224 1.425 . S
C229 C226 1.409 . S
C229 C227 1.415 . S
C230 H220 0.930 . S
C230 C228 1.419 . S
C230 C231 1.362 . S
C231 H221 0.930 . S
C231 C224 1.409 . S
C231 C230 1.362 . S
H232 C238 0.930 . S
H233 C241 0.930 . S
H234 C242 0.930 . S
H235 C243 0.930 . S
H236 C246 0.930 . S
H237 C247 0.930 . S
C238 H232 0.930 . S
C238 C239 1.355 . S
C238 C240 1.415 . S
C239 C238 1.355 . S
C239 C241 1.419 . S
C240 C238 1.415 . S
C240 C245 1.425 . S
C240 C247 1.409 . S
C241 H233 0.930 . S
C241 C239 1.419 . S
C241 C242 1.362 . S
C242 H234 0.930 . S
C242 C241 1.362 . S
C242 C245 1.409 . S
C243 H235 0.930 . S
C243 C244 1.355 . S
C243 C245 1.415 . S
C244 C243 1.355 . S
C244 C246 1.419 . S
C245 C240 1.425 . S
C245 C242 1.409 . S
C245 C243 1.415 . S
C246 H236 0.930 . S
C246 C244 1.419 . S
C246 C247 1.362 . S
C247 H237 0.930 . S
C247 C240 1.409 . S
C247 C246 1.362 . S
H248 C254 0.930 . S
H249 C257 0.930 . S
H250 C258 0.930 1_545 S
H251 C259 0.930 . S
H252 C262 0.930 . S
H253 C263 0.930 1_565 S
C254 H248 0.930 . S
C254 C255 1.355 . S
C254 C256 1.415 . S
C255 C254 1.355 . S
C255 C257 1.419 . S
C256 C254 1.415 . S
C256 C261 1.425 1_565 S
C256 C263 1.409 1_565 S
C257 H249 0.930 . S
C257 C255 1.419 . S
C257 C258 1.362 . S
C258 H250 0.930 1_565 S
C258 C257 1.362 . S
C258 C261 1.409 1_565 S
C259 H251 0.930 . S
C259 C260 1.355 . S
C259 C261 1.415 . S
C260 C259 1.355 . S
C260 C262 1.419 . S
C261 C256 1.425 1_545 S
C261 C258 1.409 1_545 S
C261 C259 1.415 . S
C262 H252 0.930 . S
C262 C260 1.419 . S
C262 C263 1.362 . S
C263 H253 0.930 1_545 S
C263 C256 1.409 1_545 S
C263 C262 1.362 . S
H264 C270 0.930 . S
H265 C273 0.930 . S
H266 C274 0.930 . S
H267 C275 0.930 . S
H268 C278 0.930 . S
H269 C279 0.930 . S
C270 H264 0.930 . S
C270 C271 1.355 . S
C270 C272 1.415 . S
C271 C270 1.355 . S
C271 C273 1.419 . S
C272 C270 1.415 . S
C272 C277 1.425 . S
C272 C279 1.409 . S
C273 H265 0.930 . S
C273 C271 1.419 . S
C273 C274 1.362 . S
C274 H266 0.930 . S
C274 C273 1.362 . S
C274 C277 1.409 . S
C275 H267 0.930 . S
C275 C276 1.355 . S
C275 C277 1.415 . S
C276 C275 1.355 . S
C276 C278 1.419 . S
C277 C272 1.425 . S
C277 C274 1.409 . S
C277 C275 1.415 . S
C278 H268 0.930 . S
C278 C276 1.419 . S
C278 C279 1.362 . S
C279 H269 0.930 . S
C279 C272 1.409 . S
C279 C278 1.362 . S
H280 C286 0.930 . S
H281 C289 0.930 . S
H282 C290 0.930 1_545 S
H283 C291 0.930 . S
H284 C294 0.930 . S
H285 C295 0.930 1_565 S
C286 H280 0.930 . S
C286 C287 1.355 . S
C286 C288 1.415 . S
C287 C286 1.355 . S
C287 C289 1.419 . S
C288 C286 1.415 . S
C288 C293 1.425 1_565 S
C288 C295 1.409 1_565 S
C289 H281 0.930 . S
C289 C287 1.419 . S
C289 C290 1.362 . S
C290 H282 0.930 1_565 S
C290 C289 1.362 . S
C290 C293 1.409 1_565 S
C291 H283 0.930 . S
C291 C292 1.355 . S
C291 C293 1.415 . S
C292 C291 1.355 . S
C292 C294 1.419 . S
C293 C288 1.425 1_545 S
C293 C290 1.409 1_545 S
C293 C291 1.415 . S
C294 H284 0.930 . S
C294 C292 1.419 . S
C294 C295 1.362 . S
C295 H285 0.930 1_545 S
C295 C288 1.409 1_545 S
C295 C294 1.362 . S
H296 C302 0.930 . S
H297 C305 0.930 . S
H298 C306 0.930 . S
H299 C307 0.930 . S
H300 C310 0.930 . S
H301 C311 0.930 . S
C302 H296 0.930 . S
C302 C303 1.355 . S
C302 C304 1.415 . S
C303 C302 1.355 . S
C303 C305 1.419 . S
C304 C302 1.415 . S
C304 C309 1.425 . S
C304 C311 1.409 . S
C305 H297 0.930 . S
C305 C303 1.419 . S
C305 C306 1.362 . S
C306 H298 0.930 . S
C306 C305 1.362 . S
C306 C309 1.409 . S
C307 H299 0.930 . S
C307 C308 1.355 . S
C307 C309 1.415 . S
C308 C307 1.355 . S
C308 C310 1.419 . S
C309 C304 1.425 . S
C309 C306 1.409 . S
C309 C307 1.415 . S
C310 H300 0.930 . S
C310 C308 1.419 . S
C310 C311 1.362 . S
C311 H301 0.930 . S
C311 C304 1.409 . S
C311 C310 1.362 . S
H312 C318 0.930 . S
H313 C321 0.930 . S
H314 C322 0.930 . S
H315 C323 0.930 . S
H316 C326 0.930 . S
H317 C327 0.930 . S
C318 H312 0.930 . S
C318 C319 1.355 . S
C318 C320 1.415 . S
C319 C318 1.355 . S
C319 C321 1.419 1_554 S
C320 C318 1.415 . S
C320 C325 1.425 1_554 S
C320 C327 1.409 . S
C321 H313 0.930 . S
C321 C319 1.419 1_556 S
C321 C322 1.362 . S
C322 H314 0.930 . S
C322 C321 1.362 . S
C322 C325 1.409 . S
C323 H315 0.930 . S
C323 C324 1.355 . S
C323 C325 1.415 . S
C324 C323 1.355 . S
C324 C326 1.419 1_556 S
C325 C320 1.425 1_556 S
C325 C322 1.409 . S
C325 C323 1.415 . S
C326 H316 0.930 . S
C326 C324 1.419 1_554 S
C326 C327 1.362 . S
C327 H317 0.930 . S
C327 C320 1.409 . S
C327 C326 1.362 . S
H328 C334 0.930 . S
H329 C337 0.930 . S
H330 C338 0.930 1_545 S
H331 C339 0.930 . S
H332 C342 0.930 . S
H333 C343 0.930 1_565 S
C334 H328 0.930 . S
C334 C335 1.355 1_556 S
C334 C336 1.415 . S
C335 C334 1.355 1_554 S
C335 C337 1.419 . S
C336 C334 1.415 . S
C336 C341 1.425 1_566 S
C336 C343 1.409 1_565 S
C337 H329 0.930 . S
C337 C335 1.419 . S
C337 C338 1.362 . S
C338 H330 0.930 1_565 S
C338 C337 1.362 . S
C338 C341 1.409 1_565 S
C339 H331 0.930 . S
C339 C340 1.355 1_554 S
C339 C341 1.415 . S
C340 C339 1.355 1_556 S
C340 C342 1.419 . S
C341 C336 1.425 1_544 S
C341 C338 1.409 1_545 S
C341 C339 1.415 . S
C342 H332 0.930 . S
C342 C340 1.419 . S
C342 C343 1.362 . S
C343 H333 0.930 1_545 S
C343 C336 1.409 1_545 S
C343 C342 1.362 . S
H344 C350 0.930 . S
H345 C353 0.930 . S
H346 C354 0.930 . S
H347 C355 0.930 . S
H348 C358 0.930 . S
H349 C359 0.930 . S
C350 H344 0.930 . S
C350 C351 1.355 1_554 S
C350 C352 1.415 . S
C351 C350 1.355 1_556 S
C351 C353 1.419 . S
C352 C350 1.415 . S
C352 C357 1.425 1_554 S
C352 C359 1.409 . S
C353 H345 0.930 . S
C353 C351 1.419 . S
C353 C354 1.362 . S
C354 H346 0.930 . S
C354 C353 1.362 . S
C354 C357 1.409 . S
C355 H347 0.930 . S
C355 C356 1.355 1_556 S
C355 C357 1.415 . S
C356 C355 1.355 1_554 S
C356 C358 1.419 . S
C357 C352 1.425 1_556 S
C357 C354 1.409 . S
C357 C355 1.415 . S
C358 H348 0.930 . S
C358 C356 1.419 . S
C358 C359 1.362 . S
C359 H349 0.930 . S
C359 C352 1.409 . S
C359 C358 1.362 . S
H360 C366 0.930 . S
H361 C369 0.930 1_554 S
H362 C370 0.930 . S
H363 C371 0.930 . S
H364 C374 0.930 1_556 S
H365 C375 0.930 . S
C366 H360 0.930 . S
C366 C367 1.355 . S
C366 C368 1.415 . S
C367 C366 1.355 . S
C367 C369 1.419 . S
C368 C366 1.415 . S
C368 C373 1.425 1_546 S
C368 C375 1.409 1_545 S
C369 H361 0.930 1_556 S
C369 C367 1.419 . S
C369 C370 1.362 1_556 S
C370 H362 0.930 . S
C370 C369 1.362 1_554 S
C370 C373 1.409 1_545 S
C371 H363 0.930 . S
C371 C372 1.355 . S
C371 C373 1.415 . S
C372 C371 1.355 . S
C372 C374 1.419 . S
C373 C368 1.425 1_564 S
C373 C370 1.409 1_565 S
C373 C371 1.415 . S
C374 H364 0.930 1_554 S
C374 C372 1.419 . S
C374 C375 1.362 1_554 S
C375 H365 0.930 . S
C375 C368 1.409 1_565 S
C375 C374 1.362 1_556 S
H376 C382 0.930 . S
H377 C385 0.930 . S
H378 C386 0.930 . S
H379 C387 0.930 . S
H380 C390 0.930 . S
H381 C391 0.930 . S
C382 H376 0.930 . S
C382 C383 1.355 . S
C382 C384 1.415 . S
C383 C382 1.355 . S
C383 C385 1.419 . S
C384 C382 1.415 . S
C384 C389 1.425 . S
C384 C391 1.409 . S
C385 H377 0.930 . S
C385 C383 1.419 . S
C385 C386 1.362 . S
C386 H378 0.930 . S
C386 C385 1.362 . S
C386 C389 1.409 . S
C387 H379 0.930 . S
C387 C388 1.355 . S
C387 C389 1.415 1_556 S
C388 C387 1.355 . S
C388 C390 1.419 . S
C389 C384 1.425 . S
C389 C386 1.409 . S
C389 C387 1.415 1_554 S
C390 H380 0.930 . S
C390 C388 1.419 . S
C390 C391 1.362 1_556 S
C391 H381 0.930 . S
C391 C384 1.409 . S
C391 C390 1.362 1_554 S
H392 C398 0.930 . S
H393 C401 0.930 . S
H394 C402 0.930 . S
H395 C403 0.931 . S
H396 C406 0.930 . S
H397 C407 0.930 . S
C398 H392 0.930 . S
C398 C399 1.355 . S
C398 C400 1.415 . S
C399 C398 1.355 . S
C399 C401 1.419 . S
C400 C398 1.415 . S
C400 C405 1.425 . S
C400 C407 1.409 . S
C401 H393 0.930 . S
C401 C399 1.419 . S
C401 C402 1.362 . S
C402 H394 0.930 . S
C402 C401 1.362 . S
C402 C405 1.409 . S
C403 H395 0.931 . S
C403 C404 1.358 . S
C403 C405 1.410 1_556 S
C404 C403 1.358 . S
C404 C406 1.419 . S
C405 C400 1.425 . S
C405 C402 1.409 . S
C405 C403 1.410 1_554 S
C406 H396 0.930 . S
C406 C404 1.419 . S
C406 C407 1.362 1_556 S
C407 H397 0.930 . S
C407 C400 1.409 . S
C407 C406 1.362 1_554 S
H408 C414 0.930 . S
H409 C417 0.930 . S
H410 C418 0.930 . S
H411 C419 0.930 . S
H412 C422 0.930 . S
H413 C423 0.930 . S
C414 H408 0.930 . S
C414 C415 1.355 . S
C414 C416 1.415 1_554 S
C415 C414 1.355 . S
C415 C417 1.419 . S
C416 C414 1.415 1_556 S
C416 C421 1.425 . S
C416 C423 1.409 . S
C417 H409 0.930 . S
C417 C415 1.419 . S
C417 C418 1.362 1_554 S
C418 H410 0.930 . S
C418 C417 1.362 1_556 S
C418 C421 1.409 . S
C419 H411 0.930 . S
C419 C420 1.355 . S
C419 C421 1.415 . S
C420 C419 1.355 . S
C420 C422 1.419 . S
C421 C416 1.425 . S
C421 C418 1.409 . S
C421 C419 1.415 . S
C422 H412 0.930 . S
C422 C420 1.419 . S
C422 C423 1.362 . S
C423 H413 0.930 . S
C423 C416 1.409 . S
C423 C422 1.362 . S
H424 C430 0.930 . S
H425 C433 0.930 . S
H426 C434 0.930 . S
H427 C435 0.930 . S
H428 C438 0.930 . S
H429 C439 0.930 . S
C430 H424 0.930 . S
C430 C431 1.355 . S
C430 C432 1.415 . S
C431 C430 1.355 . S
C431 C433 1.419 . S
C432 C430 1.415 . S
C432 C437 1.425 . S
C432 C439 1.409 . S
C433 H425 0.930 . S
C433 C431 1.419 . S
C433 C434 1.362 . S
C434 H426 0.930 . S
C434 C433 1.362 . S
C434 C437 1.409 . S
C435 H427 0.930 . S
C435 C436 1.355 . S
C435 C437 1.415 1_554 S
C436 C435 1.355 . S
C436 C438 1.419 . S
C437 C432 1.425 . S
C437 C434 1.409 . S
C437 C435 1.415 1_556 S
C438 H428 0.930 . S
C438 C436 1.419 . S
C438 C439 1.362 1_554 S
C439 H429 0.930 . S
C439 C432 1.409 . S
C439 C438 1.362 1_556 S
H440 C446 0.930 . S
H441 C449 0.930 . S
H442 C450 0.930 . S
H443 C451 0.930 . S
H444 C454 0.930 . S
H445 C455 0.930 . S
C446 H440 0.930 . S
C446 C447 1.355 . S
C446 C448 1.415 . S
C447 C446 1.355 . S
C447 C449 1.419 . S
C448 C446 1.415 . S
C448 C453 1.425 . S
C448 C455 1.409 . S
C449 H441 0.930 . S
C449 C447 1.419 . S
C449 C450 1.362 . S
C450 H442 0.930 . S
C450 C449 1.362 . S
C450 C453 1.409 . S
C451 H443 0.930 . S
C451 C452 1.355 . S
C451 C453 1.415 . S
C452 C451 1.355 . S
C452 C454 1.419 . S
C453 C448 1.425 . S
C453 C450 1.409 . S
C453 C451 1.415 . S
C454 H444 0.930 . S
C454 C452 1.419 . S
C454 C455 1.362 . S
C455 H445 0.930 . S
C455 C448 1.409 . S
C455 C454 1.362 . S
H456 C462 0.930 . S
H457 C465 0.930 . S
H458 C466 0.930 . S
H459 C467 0.930 . S
H460 C470 0.930 . S
H461 C471 0.930 . S
C462 H456 0.930 . S
C462 C463 1.355 . S
C462 C464 1.415 . S
C463 C462 1.355 . S
C463 C465 1.419 . S
C464 C462 1.415 . S
C464 C469 1.425 . S
C464 C471 1.409 . S
C465 H457 0.930 . S
C465 C463 1.419 . S
C465 C466 1.362 . S
C466 H458 0.930 . S
C466 C465 1.362 . S
C466 C469 1.409 . S
C467 H459 0.930 . S
C467 C468 1.355 . S
C467 C469 1.415 . S
C468 C467 1.355 . S
C468 C470 1.419 . S
C469 C464 1.425 . S
C469 C466 1.409 . S
C469 C467 1.415 . S
C470 H460 0.930 . S
C470 C468 1.419 . S
C470 C471 1.362 . S
C471 H461 0.930 . S
C471 C464 1.409 . S
C471 C470 1.362 . S
H472 C478 0.930 . S
H473 C481 0.930 . S
H474 C482 0.930 . S
H475 C483 0.930 . S
H476 C486 0.930 . S
H477 C487 0.930 . S
C478 H472 0.930 . S
C478 C479 1.355 . S
C478 C480 1.415 . S
C479 C478 1.355 . S
C479 C481 1.419 . S
C480 C478 1.415 . S
C480 C485 1.425 . S
C480 C487 1.409 . S
C481 H473 0.930 . S
C481 C479 1.419 . S
C481 C482 1.362 . S
C482 H474 0.930 . S
C482 C481 1.362 . S
C482 C485 1.409 . S
C483 H475 0.930 . S
C483 C484 1.355 . S
C483 C485 1.415 . S
C484 C483 1.355 . S
C484 C486 1.419 . S
C485 C480 1.425 . S
C485 C482 1.409 . S
C485 C483 1.415 . S
C486 H476 0.930 . S
C486 C484 1.419 . S
C486 C487 1.362 . S
C487 H477 0.930 . S
C487 C480 1.409 . S
C487 C486 1.362 . S
H488 C494 0.930 . S
H489 C497 0.930 . S
H490 C498 0.930 . S
H491 C499 0.930 . S
H492 C502 0.930 . S
H493 C503 0.930 . S
C494 H488 0.930 . S
C494 C495 1.355 . S
C494 C496 1.415 . S
C495 C494 1.355 . S
C495 C497 1.419 . S
C496 C494 1.415 . S
C496 C501 1.425 . S
C496 C503 1.409 . S
C497 H489 0.930 . S
C497 C495 1.419 . S
C497 C498 1.362 . S
C498 H490 0.930 . S
C498 C497 1.362 . S
C498 C501 1.409 . S
C499 H491 0.930 . S
C499 C500 1.355 . S
C499 C501 1.415 . S
C500 C499 1.355 . S
C500 C502 1.419 . S
C501 C496 1.425 . S
C501 C498 1.409 . S
C501 C499 1.415 . S
C502 H492 0.930 . S
C502 C500 1.419 . S
C502 C503 1.362 . S
C503 H493 0.930 . S
C503 C496 1.409 . S
C503 C502 1.362 . S
H504 C510 0.930 . S
H505 C513 0.930 . S
H506 C514 0.930 . S
H507 C515 0.930 . S
H508 C518 0.930 . S
H509 C519 0.930 . S
C510 H504 0.930 . S
C510 C511 1.355 . S
C510 C512 1.415 . S
C511 C510 1.355 . S
C511 C513 1.419 . S
C512 C510 1.415 . S
C512 C517 1.425 1_455 S
C512 C519 1.409 1_455 S
C513 H505 0.930 . S
C513 C511 1.419 . S
C513 C514 1.362 . S
C514 H506 0.930 . S
C514 C513 1.362 . S
C514 C517 1.409 1_455 S
C515 H507 0.930 . S
C515 C516 1.355 . S
C515 C517 1.415 . S
C516 C515 1.355 . S
C516 C518 1.419 . S
C517 C512 1.425 1_655 S
C517 C514 1.409 1_655 S
C517 C515 1.415 . S
C518 H508 0.930 . S
C518 C516 1.419 . S
C518 C519 1.362 . S
C519 H509 0.930 . S
C519 C512 1.409 1_655 S
C519 C518 1.362 . S
H520 C526 0.930 . S
H521 C529 0.930 . S
H522 C530 0.930 . S
H523 C531 0.930 . S
H524 C534 0.930 . S
H525 C535 0.930 . S
C526 H520 0.930 . S
C526 C527 1.355 . S
C526 C528 1.415 . S
C527 C526 1.355 . S
C527 C529 1.419 . S
C528 C526 1.415 . S
C528 C533 1.425 1_655 S
C528 C535 1.409 1_655 S
C529 H521 0.930 . S
C529 C527 1.419 . S
C529 C530 1.362 . S
C530 H522 0.930 . S
C530 C529 1.362 . S
C530 C533 1.409 1_655 S
C531 H523 0.930 . S
C531 C532 1.355 . S
C531 C533 1.415 . S
C532 C531 1.355 . S
C532 C534 1.419 . S
C533 C528 1.425 1_455 S
C533 C530 1.409 1_455 S
C533 C531 1.415 . S
C534 H524 0.930 . S
C534 C532 1.419 . S
C534 C535 1.362 . S
C535 H525 0.930 . S
C535 C528 1.409 1_455 S
C535 C534 1.362 . S
H536 C542 0.930 . S
H537 C545 0.930 . S
H538 C546 0.930 . S
H539 C547 0.930 . S
H540 C550 0.930 . S
H541 C551 0.930 . S
C542 H536 0.930 . S
C542 C543 1.355 . S
C542 C544 1.415 . S
C543 C542 1.355 . S
C543 C545 1.419 . S
C544 C542 1.415 . S
C544 C549 1.425 . S
C544 C551 1.409 . S
C545 H537 0.930 . S
C545 C543 1.419 . S
C545 C546 1.362 . S
C546 H538 0.930 . S
C546 C545 1.362 . S
C546 C549 1.409 . S
C547 H539 0.930 . S
C547 C548 1.355 . S
C547 C549 1.415 . S
C548 C547 1.355 . S
C548 C550 1.419 . S
C549 C544 1.425 . S
C549 C546 1.409 . S
C549 C547 1.415 . S
C550 H540 0.930 . S
C550 C548 1.419 . S
C550 C551 1.362 . S
C551 H541 0.930 . S
C551 C544 1.409 . S
C551 C550 1.362 . S
H552 C558 0.930 . S
H553 C561 0.930 . S
H554 C562 0.930 . S
H555 C563 0.930 . S
H556 C566 0.930 . S
H557 C567 0.930 . S
C558 H552 0.930 . S
C558 C559 1.355 . S
C558 C560 1.415 . S
C559 C558 1.355 . S
C559 C561 1.419 . S
C560 C558 1.415 . S
C560 C565 1.425 . S
C560 C567 1.409 . S
C561 H553 0.930 . S
C561 C559 1.419 . S
C561 C562 1.362 . S
C562 H554 0.930 . S
C562 C561 1.362 . S
C562 C565 1.409 . S
C563 H555 0.930 . S
C563 C564 1.355 . S
C563 C565 1.415 . S
C564 C563 1.355 . S
C564 C566 1.419 . S
C565 C560 1.425 . S
C565 C562 1.409 . S
C565 C563 1.415 . S
C566 H556 0.930 . S
C566 C564 1.419 . S
C566 C567 1.362 . S
C567 H557 0.930 . S
C567 C560 1.409 . S
C567 C566 1.362 . S
C191 C18 1.442 . S
C196 C179 1.476 . S
C207 C156 1.457 . S
C212 C41 1.467 . S
C223 C133 1.448 . S
C228 C64 1.473 . S
C239 C110 1.461 . S
C244 C87 1.434 . S
C255 C66 1.538 . S
C260 C20 1.562 . S
C271 C43 1.543 . S
C276 C89 1.568 . S
C287 C88 1.502 . S
C292 C42 1.513 . S
C303 C65 1.520 . S
C308 C19 1.506 . S
C319 C112 1.558 . S
C324 C158 1.561 . S
C335 C135 1.539 . S
C340 C181 1.559 . S
C351 C180 1.504 . S
C356 C134 1.502 . S
C367 C157 1.518 . S
C372 C111 1.529 . S
C383 C17 1.397 . S
C388 C16 1.395 . S
C399 C40 1.395 . S
C404 C39 1.391 . S
C415 C62 1.402 . S
C420 C63 1.401 . S
C431 C86 1.402 . S
C436 C85 1.402 . S
C447 C108 1.392 . S
C452 C109 1.395 . S
C463 C132 1.397 . S
C468 C131 1.398 . S
C479 C155 1.403 . S
C484 C154 1.404 . S
C495 C178 1.397 . S
C500 C177 1.397 . S
C511 C21 1.480 . S
C516 C44 1.468 . S
C527 C90 1.470 . S
C532 C67 1.478 . S
C543 C113 1.471 . S
C548 C136 1.477 . S
C559 C182 1.468 . S
C564 C159 1.479 . S
