# Generated by pormake.
# Topology wji, (4)-cn, num edge types: 1
# Building blocks:
#     Node 0, Type 0, BuildingBlock: NAHDIM_clean_sbu_0, # of connection points: 4
#     Node 1, Type 0, BuildingBlock: NAHDIM_clean_sbu_0, # of connection points: 4
#     Node 2, Type 0, BuildingBlock: NAHDIM_clean_sbu_0, # of connection points: 4
#     Node 3, Type 0, BuildingBlock: NAHDIM_clean_sbu_0, # of connection points: 4
#     Node 4, Type 0, BuildingBlock: NAHDIM_clean_sbu_0, # of connection points: 4
#     Node 5, Type 0, BuildingBlock: NAHDIM_clean_sbu_0, # of connection points: 4
#     Node 6, Type 0, BuildingBlock: NAHDIM_clean_sbu_0, # of connection points: 4
#     Node 7, Type 0, BuildingBlock: NAHDIM_clean_sbu_0, # of connection points: 4
#     Node 8, Type 0, BuildingBlock: NAHDIM_clean_sbu_0, # of connection points: 4
#     Node 9, Type 0, BuildingBlock: NAHDIM_clean_sbu_0, # of connection points: 4
#     Node 10, Type 0, BuildingBlock: NAHDIM_clean_sbu_0, # of connection points: 4
#     Node 11, Type 0, BuildingBlock: NAHDIM_clean_sbu_0, # of connection points: 4
#     Edge 12, Type (0, 0), BuildingBlock: XIVTED_clean_linker_0, # of connection points: 2
#     Edge 13, Type (0, 0), BuildingBlock: XIVTED_clean_linker_0, # of connection points: 2
#     Edge 14, Type (0, 0), BuildingBlock: XIVTED_clean_linker_0, # of connection points: 2
#     Edge 15, Type (0, 0), BuildingBlock: XIVTED_clean_linker_0, # of connection points: 2
#     Edge 16, Type (0, 0), BuildingBlock: XIVTED_clean_linker_0, # of connection points: 2
#     Edge 17, Type (0, 0), BuildingBlock: XIVTED_clean_linker_0, # of connection points: 2
#     Edge 18, Type (0, 0), BuildingBlock: XIVTED_clean_linker_0, # of connection points: 2
#     Edge 19, Type (0, 0), BuildingBlock: XIVTED_clean_linker_0, # of connection points: 2
#     Edge 20, Type (0, 0), BuildingBlock: XIVTED_clean_linker_0, # of connection points: 2
#     Edge 21, Type (0, 0), BuildingBlock: XIVTED_clean_linker_0, # of connection points: 2
#     Edge 22, Type (0, 0), BuildingBlock: XIVTED_clean_linker_0, # of connection points: 2
#     Edge 23, Type (0, 0), BuildingBlock: XIVTED_clean_linker_0, # of connection points: 2
#     Edge 24, Type (0, 0), BuildingBlock: XIVTED_clean_linker_0, # of connection points: 2
#     Edge 25, Type (0, 0), BuildingBlock: XIVTED_clean_linker_0, # of connection points: 2
#     Edge 26, Type (0, 0), BuildingBlock: XIVTED_clean_linker_0, # of connection points: 2
#     Edge 27, Type (0, 0), BuildingBlock: XIVTED_clean_linker_0, # of connection points: 2
#     Edge 28, Type (0, 0), BuildingBlock: XIVTED_clean_linker_0, # of connection points: 2
#     Edge 29, Type (0, 0), BuildingBlock: XIVTED_clean_linker_0, # of connection points: 2
#     Edge 30, Type (0, 0), BuildingBlock: XIVTED_clean_linker_0, # of connection points: 2
#     Edge 31, Type (0, 0), BuildingBlock: XIVTED_clean_linker_0, # of connection points: 2
#     Edge 32, Type (0, 0), BuildingBlock: XIVTED_clean_linker_0, # of connection points: 2
#     Edge 33, Type (0, 0), BuildingBlock: XIVTED_clean_linker_0, # of connection points: 2
#     Edge 34, Type (0, 0), BuildingBlock: XIVTED_clean_linker_0, # of connection points: 2
#     Edge 35, Type (0, 0), BuildingBlock: XIVTED_clean_linker_0, # of connection points: 2
# Relax obj value: 0.154
# Max RMSD: 0.090
# Mean RMSD: 0.090
data_MOF--net-wji--node1-NAHDIM_clean_sbu_0--edge1-XIVTED_clean_linker_0
_symmetry_space_group_name_H-M    P1
_symmetry_Int_Tables_number       1
_symmetry_cell_setting            triclinic
loop_
_symmetry_equiv_pos_as_xyz
'x, y, z'
_cell_length_a     57.803344
_cell_length_b     57.770021
_cell_length_c     23.121885
_cell_angle_alpha  89.872239
_cell_angle_beta   90.06489
_cell_angle_gamma 120.06938
loop_
_atom_site_label
_atom_site_type_symbol
_atom_site_fract_x
_atom_site_fract_y
_atom_site_fract_z
_atom_type_partial_charge
C0 C 0.428 0.2917 0.48639 0.0
O1 O 0.42756 0.31016 0.51858 0.0
O2 O 0.46731 0.35847 0.39129 0.0
Zn3 Zn 0.42953 0.32756 0.40047 0.0
O4 O 0.40952 0.3371 0.45788 0.0
C5 C 0.40646 0.34175 0.31397 0.0
O6 O 0.41824 0.36293 0.3474 0.0
O7 O 0.42912 0.29444 0.43157 0.0
C8 C 0.41878 0.35926 0.48418 0.0
O9 O 0.44329 0.3785 0.47365 0.0
C10 C 0.48517 0.36453 0.42979 0.0
O11 O 0.47938 0.34963 0.47643 0.0
O12 O 0.40931 0.32178 0.3256 0.0
C13 C 0.11224 0.38401 0.63138 0.0
O14 O 0.09155 0.3794 0.66317 0.0
O15 O 0.08958 0.4288 0.54104 0.0
Zn16 Zn 0.08013 0.39032 0.54652 0.0
O17 O 0.04942 0.37202 0.60149 0.0
C18 C 0.07494 0.38761 0.42311 0.0
O19 O 0.09545 0.41202 0.42678 0.0
O20 O 0.11199 0.38855 0.57753 0.0
C21 C 0.03038 0.377 0.60133 0.0
O22 O 0.03028 0.39368 0.56275 0.0
C23 C 0.09246 0.4431 0.58512 0.0
O24 O 0.09023 0.43289 0.63703 0.0
O25 O 0.06658 0.37346 0.4687 0.0
C26 C 0.72672 0.12789 0.81651 0.0
O27 O 0.72425 0.10564 0.83764 0.0
O28 O 0.64728 0.09519 0.7427 0.0
Zn29 Zn 0.67929 0.09095 0.75566 0.0
O30 O 0.671 0.06585 0.82199 0.0
C31 C 0.68101 0.08118 0.63536 0.0
O32 O 0.67743 0.10186 0.63128 0.0
O33 O 0.71065 0.12659 0.77736 0.0
C34 C 0.64882 0.04418 0.82572 0.0
O35 O 0.63094 0.03787 0.78461 0.0
C36 C 0.63723 0.10166 0.78409 0.0
O37 O 0.64849 0.10626 0.83538 0.0
O38 O 0.68451 0.07401 0.68501 0.0
C39 C 0.56272 0.70094 0.00524 0.0
O40 O 0.54562 0.67744 0.02703 0.0
O41 O 0.54104 0.63728 0.93888 0.0
Zn42 Zn 0.57816 0.66737 0.95658 0.0
O43 O 0.58723 0.65963 0.03516 0.0
C44 C 0.61863 0.65765 0.90972 0.0
O45 O 0.61659 0.64734 0.9614 0.0
O46 O 0.57896 0.70221 0.96661 0.0
C47 C 0.60714 0.67743 0.063 0.0
O48 O 0.62241 0.70094 0.03909 0.0
C49 C 0.53793 0.61412 0.9468 0.0
O50 O 0.55874 0.61204 0.96174 0.0
O51 O 0.6046 0.66836 0.89743 0.0
C52 C 0.84272 0.5898 0.07949 0.0
O53 O 0.83841 0.56738 0.05556 0.0
O54 O 0.88788 0.57035 0.03479 0.0
Zn55 Zn 0.89637 0.60864 0.03935 0.0
O56 O 0.92632 0.62689 0.09567 0.0
C57 C 0.90179 0.61177 0.91639 0.0
O58 O 0.88139 0.5873 0.92024 0.0
O59 O 0.86535 0.6108 0.07275 0.0
C60 C 0.94619 0.62322 0.09346 0.0
O61 O 0.9473 0.60815 0.05231 0.0
C62 C 0.88593 0.55681 0.07979 0.0
O63 O 0.8886 0.5677 0.13098 0.0
O64 O 0.91004 0.62593 0.96185 0.0
C65 C 0.25786 0.86601 0.30351 0.0
O66 O 0.26166 0.88868 0.32489 0.0
O67 O 0.33891 0.8885 0.24802 0.0
Zn68 Zn 0.31148 0.89951 0.26164 0.0
O69 O 0.32064 0.91925 0.33725 0.0
C70 C 0.33783 0.94603 0.19796 0.0
O71 O 0.35548 0.94807 0.23652 0.0
O72 O 0.27554 0.8662 0.27051 0.0
C73 C 0.31596 0.93811 0.34731 0.0
O74 O 0.30452 0.94515 0.30724 0.0
C75 C 0.3469 0.88025 0.29031 0.0
O76 O 0.33633 0.87824 0.34166 0.0
O77 O 0.31486 0.92503 0.19796 0.0
C78 C 0.72616 0.57818 0.41127 0.0
O79 O 0.70771 0.55461 0.43012 0.0
O80 O 0.66197 0.55705 0.46622 0.0
Zn81 Zn 0.69175 0.59557 0.46214 0.0
O82 O 0.67984 0.61497 0.40952 0.0
C83 C 0.69219 0.60113 0.58703 0.0
O84 O 0.68554 0.57579 0.5875 0.0
O85 O 0.72467 0.59873 0.42463 0.0
C86 C 0.65652 0.61186 0.41211 0.0
O87 O 0.63949 0.59542 0.45065 0.0
C88 C 0.65024 0.54534 0.41966 0.0
O89 O 0.65828 0.55845 0.37048 0.0
O90 O 0.69755 0.61356 0.53916 0.0
C91 C 0.12768 0.69271 0.492 0.0
O92 O 0.12132 0.67033 0.46501 0.0
O93 O 0.08832 0.62658 0.56176 0.0
Zn94 Zn 0.08017 0.65635 0.54665 0.0
O95 O 0.06053 0.64962 0.47169 0.0
C96 C 0.03178 0.6386 0.60558 0.0
O97 O 0.02474 0.62057 0.56462 0.0
O98 O 0.11353 0.69199 0.5348 0.0
C99 C 0.05456 0.66674 0.45369 0.0
O100 O 0.06062 0.68782 0.48559 0.0
C101 C 0.08667 0.61128 0.5205 0.0
O102 O 0.08007 0.61536 0.46868 0.0
O103 O 0.0561 0.6571 0.60882 0.0
C104 C 0.42227 0.13504 0.68829 0.0
O105 O 0.42685 0.11861 0.65778 0.0
O106 O 0.45047 0.09994 0.77474 0.0
Zn107 Zn 0.41349 0.09527 0.76819 0.0
O108 O 0.39263 0.06801 0.70781 0.0
C109 C 0.40636 0.0859 0.89095 0.0
O110 O 0.43203 0.10358 0.89189 0.0
O111 O 0.41606 0.12976 0.74143 0.0
C112 C 0.38753 0.04395 0.70989 0.0
O113 O 0.39612 0.03592 0.75394 0.0
C114 C 0.46131 0.09412 0.73377 0.0
O115 O 0.44829 0.08493 0.68491 0.0
O116 O 0.39388 0.08072 0.8432 0.0
C117 C 0.27828 0.41373 0.834 0.0
O118 O 0.30176 0.4275 0.80899 0.0
O119 O 0.33917 0.44321 0.92737 0.0
Zn120 Zn 0.31084 0.40522 0.91075 0.0
O121 O 0.32672 0.39486 0.84615 0.0
C122 C 0.31004 0.36294 0.98063 0.0
O123 O 0.31233 0.35371 0.93041 0.0
O124 O 0.27669 0.40242 0.88226 0.0
C125 C 0.31417 0.37759 0.80722 0.0
O126 O 0.28794 0.36345 0.80881 0.0
C127 C 0.36085 0.44447 0.94315 0.0
O128 O 0.36121 0.42206 0.94987 0.0
O129 O 0.30687 0.38319 0.98199 0.0
C130 C 0.84694 0.30416 0.00532 0.0
O131 O 0.85165 0.32593 0.97751 0.0
O132 O 0.88724 0.37178 0.06907 0.0
Zn133 Zn 0.89564 0.34214 0.05488 0.0
O134 O 0.91453 0.34868 0.97901 0.0
C135 C 0.94486 0.3604 0.11182 0.0
O136 O 0.95187 0.37798 0.06973 0.0
O137 O 0.86256 0.30606 0.04613 0.0
C138 C 0.92035 0.33172 0.95948 0.0
O139 O 0.91453 0.31035 0.99033 0.0
C140 C 0.88745 0.38592 0.02657 0.0
O141 O 0.89249 0.38055 0.9745 0.0
O142 O 0.92047 0.34222 0.11629 0.0
C143 C 0.5917 0.86212 0.22621 0.0
O144 O 0.61184 0.88561 0.21185 0.0
O145 O 0.53289 0.8841 0.28715 0.0
Zn146 Zn 0.57093 0.8943 0.27073 0.0
O147 O 0.5814 0.91552 0.19668 0.0
C148 C 0.5937 0.93986 0.33745 0.0
O149 O 0.57781 0.94315 0.30192 0.0
O150 O 0.57279 0.86096 0.25641 0.0
C151 C 0.60506 0.93433 0.18681 0.0
O152 O 0.62371 0.94037 0.22597 0.0
C153 C 0.51634 0.876 0.24548 0.0
O154 O 0.52438 0.8735 0.19395 0.0
O155 O 0.59448 0.91826 0.33464 0.0
H156 H 0.3122 0.38112 0.09077 0.0
H157 H 0.38479 0.30585 0.22384 0.0
H158 H 0.32477 0.32478 0.99288 0.0
H159 H 0.38779 0.37599 0.29705 0.0
H160 H 0.35614 0.3065 0.1458 0.0
H161 H 0.33201 0.37235 0.17503 0.0
C162 C 0.31873 0.36657 0.08717 0.0
C163 C 0.31717 0.35397 0.03435 0.0
C164 C 0.36303 0.32163 0.17921 0.0
C165 C 0.34024 0.34409 0.1307 0.0
C166 C 0.37937 0.32129 0.22361 0.0
C167 C 0.38891 0.34105 0.26663 0.0
C168 C 0.35599 0.34166 0.17853 0.0
C169 C 0.38119 0.36052 0.26447 0.0
C170 C 0.33021 0.36169 0.13528 0.0
C171 C 0.32582 0.33516 0.03257 0.0
N172 N 0.36524 0.36032 0.22125 0.0
N173 N 0.33728 0.331 0.0799 0.0
H174 H 0.02649 0.34206 0.4066 0.0
H175 H -0.00159 0.39642 0.11199 0.0
H176 H 0.08478 0.41417 0.31983 0.0
H177 H 0.93788 0.32789 0.205 0.0
H178 H 0.03171 0.39983 0.18146 0.0
H179 H -0.00435 0.3328 0.32613 0.0
C180 C 0.03301 0.35572 0.3702 0.0
C181 C 0.05818 0.37913 0.37035 0.0
C182 C 0.01118 0.38396 0.18661 0.0
C183 C 0.0228 0.36877 0.2784 0.0
C184 C 0.9921 0.38202 0.14697 0.0
C185 C 0.96523 0.36198 0.15297 0.0
C186 C 0.0034 0.36576 0.23279 0.0
C187 C 0.95833 0.34378 0.19895 0.0
C188 C 0.0153 0.35048 0.3244 0.0
C189 C 0.06551 0.39602 0.32188 0.0
N190 N 0.97727 0.34619 0.2373 0.0
N191 N 0.0478 0.39065 0.27819 0.0
H192 H 0.6241 0.93853 0.42784 0.0
H193 H 0.66885 0.08818 0.52475 0.0
H194 H 0.60271 0.99079 0.33831 0.0
H195 H 0.67989 0.03312 0.63181 0.0
H196 H 0.65188 0.055 0.44763 0.0
H197 H 0.65096 0.97494 0.49566 0.0
C198 C 0.62516 0.95766 0.42228 0.0
C199 C 0.6109 0.96154 0.37781 0.0
C200 C 0.65826 0.05025 0.48778 0.0
C201 C 0.64167 0.00319 0.45457 0.0
C202 C 0.66809 0.06927 0.53179 0.0
C203 C 0.67544 0.0633 0.58517 0.0
C204 C 0.65567 0.02502 0.49719 0.0
C205 C 0.6742 0.0385 0.59154 0.0
C206 C 0.64049 0.97841 0.4609 0.0
C207 C 0.61308 0.98676 0.37236 0.0
N208 N 0.66416 0.02012 0.54831 0.0
N209 N 0.62807 0.00654 0.41034 0.0
H210 H 0.6832 0.58216 0.69834 0.0
H211 H 0.63018 0.67835 0.79955 0.0
H212 H 0.69174 0.64818 0.59437 0.0
H213 H 0.6439 0.62856 0.91797 0.0
H214 H 0.65353 0.66833 0.72406 0.0
H215 H 0.66996 0.59961 0.78033 0.0
C216 C 0.68266 0.60052 0.69297 0.0
C217 C 0.68835 0.61357 0.63927 0.0
C218 C 0.65168 0.65986 0.76679 0.0
C219 C 0.6728 0.63341 0.73255 0.0
C220 C 0.6383 0.66552 0.80983 0.0
C221 C 0.63486 0.65409 0.865 0.0
C222 C 0.66136 0.64237 0.77884 0.0
C223 C 0.64593 0.63771 0.87598 0.0
C224 C 0.67509 0.61047 0.73978 0.0
C225 C 0.68742 0.63736 0.63488 0.0
N226 N 0.65838 0.63209 0.83312 0.0
N227 N 0.67938 0.64629 0.68064 0.0
H228 H 0.9783 0.60248 0.60658 0.0
H229 H 0.95037 0.65723 0.89996 0.0
H230 H 0.03886 0.67151 0.69786 0.0
H231 H 0.89193 0.58536 0.81319 0.0
H232 H 0.98126 0.66645 0.81963 0.0
H233 H 0.9451 0.59923 0.67588 0.0
C234 C 0.98464 0.61702 0.64117 0.0
C235 C 0.0115 0.63716 0.64671 0.0
C236 C 0.96156 0.64884 0.81786 0.0
C237 C 0.9734 0.63355 0.72639 0.0
C238 C 0.94382 0.64362 0.86358 0.0
C239 C 0.91859 0.62029 0.86368 0.0
C240 C 0.95402 0.6306 0.77192 0.0
C241 C 0.91124 0.60345 0.81527 0.0
C242 C 0.96561 0.61517 0.6807 0.0
C243 C 0.01842 0.65555 0.69217 0.0
N244 N 0.92896 0.6088 0.77168 0.0
N245 N -0.00049 0.6532 0.73049 0.0
H246 H 0.42742 0.09019 -0.00096 0.0
H247 H 0.309 0.94752 0.10441 0.0
H248 H 0.35594 0.04215 0.89899 0.0
H249 H 0.38312 0.99483 0.1966 0.0
H250 H 0.32315 0.98396 0.03385 0.0
H251 H 0.40848 0.05783 0.07776 0.0
C252 C 0.40759 0.07301 0.99387 0.0
C253 C 0.39339 0.06875 0.94204 0.0
C254 C 0.3362 0.98637 0.06978 0.0
C255 C 0.37166 0.03134 0.03189 0.0
C256 C 0.32815 0.96559 0.11 0.0
C257 C 0.34502 0.96802 0.15612 0.0
C258 C 0.36124 0.00971 0.07595 0.0
C259 C 0.36955 0.99192 0.16143 0.0
C260 C 0.3968 0.05446 0.03881 0.0
C261 C 0.36768 0.04617 0.93803 0.0
N262 N 0.37694 0.01173 0.12176 0.0
N263 N 0.35776 0.02815 0.98211 0.0
H264 H 0.63061 0.51091 0.51195 0.0
H265 H 0.50474 0.39901 0.33771 0.0
H266 H 0.61777 0.51668 0.32977 0.0
H267 H 0.52458 0.38758 0.51153 0.0
H268 H 0.54615 0.44215 0.33388 0.0
H269 H 0.59177 0.46573 0.51292 0.0
C270 C 0.61969 0.50266 0.47212 0.0
C271 C 0.62741 0.51764 0.42074 0.0
C272 C 0.54153 0.43012 0.37272 0.0
C273 C 0.58289 0.46599 0.42159 0.0
C274 C 0.51788 0.40548 0.37494 0.0
C275 C 0.51111 0.38968 0.4251 0.0
C276 C 0.55847 0.43917 0.42118 0.0
C277 C 0.52896 0.39908 0.47198 0.0
C278 C 0.59755 0.47684 0.47267 0.0
C279 C 0.61254 0.50589 0.37039 0.0
N280 N 0.55171 0.42329 0.46902 0.0
N281 N 0.59092 0.48083 0.37216 0.0
H282 H 0.09545 0.47808 0.66904 0.0
H283 H 0.08991 0.57883 0.43949 0.0
H284 H 0.0967 0.46937 0.48382 0.0
H285 H 0.09351 0.59181 0.6239 0.0
H286 H 0.09469 0.53982 0.4558 0.0
H287 H 0.09717 0.5209 0.65439 0.0
C288 C 0.09631 0.48525 0.62534 0.0
C289 C 0.09574 0.47001 0.57757 0.0
C290 C 0.09458 0.55123 0.4928 0.0
C291 C 0.09758 0.51887 0.56056 0.0
C292 C 0.0918 0.57353 0.48351 0.0
C293 C 0.09112 0.58852 0.53044 0.0
C294 C 0.09652 0.54363 0.54952 0.0
C295 C 0.09387 0.58077 0.58646 0.0
C296 C 0.09726 0.50969 0.61703 0.0
C297 C 0.09694 0.48033 0.52195 0.0
N298 N 0.09626 0.55872 0.5945 0.0
N299 N 0.09764 0.504 0.51503 0.0
H300 H 0.49299 0.11019 0.8306 0.0
H301 H 0.60828 0.09181 0.68436 0.0
H302 H 0.49056 0.0847 0.65419 0.0
H303 H 0.60944 0.11343 0.86344 0.0
H304 H 0.56624 0.09148 0.6714 0.0
H305 H 0.5367 0.11374 0.84241 0.0
C306 C 0.50167 0.10542 0.79429 0.0
C307 C 0.48805 0.09706 0.74135 0.0
C308 C 0.5757 0.09637 0.71351 0.0
C309 C 0.53805 0.10107 0.7546 0.0
C310 C 0.59975 0.09659 0.72095 0.0
C311 C 0.61237 0.10257 0.77515 0.0
C312 C 0.56412 0.10215 0.76059 0.0
C313 C 0.60039 0.10865 0.82092 0.0
C314 C 0.52662 0.10743 0.80109 0.0
C315 C 0.50028 0.09115 0.69582 0.0
N316 N 0.57688 0.10821 0.81264 0.0
N317 N 0.52454 0.09323 0.70354 0.0
H318 H 0.48941 0.6103 0.92276 0.0
H319 H 0.40878 0.45252 0.98125 0.0
H320 H 0.52553 0.56268 0.96554 0.0
H321 H 0.37044 0.49511 0.91654 0.0
H322 H 0.45125 0.49407 0.9821 0.0
H323 H 0.4453 0.56951 0.92429 0.0
C324 C 0.48809 0.5913 0.93217 0.0
C325 C 0.5112 0.58989 0.9441 0.0
C326 C 0.4336 0.49446 0.96778 0.0
C327 C 0.46099 0.54342 0.94646 0.0
C328 C 0.40925 0.47068 0.96747 0.0
C329 C 0.38601 0.47029 0.94847 0.0
C330 C 0.43491 0.5182 0.94892 0.0
C331 C 0.3879 0.49454 0.93147 0.0
C332 C 0.46294 0.56808 0.93318 0.0
C333 C 0.50834 0.56479 0.95615 0.0
N334 N 0.41202 0.51757 0.93184 0.0
N335 N 0.48375 0.54264 0.95716 0.0
H336 H 0.88199 0.41644 0.94367 0.0
H337 H 0.88401 0.52318 0.16608 0.0
H338 H 0.88382 0.40807 0.12897 0.0
H339 H 0.87992 0.52879 0.98048 0.0
H340 H 0.88117 0.47973 0.15456 0.0
H341 H 0.87839 0.45625 0.95748 0.0
C342 C 0.88152 0.42291 0.98737 0.0
C343 C 0.88342 0.409 0.03525 0.0
C344 C 0.88073 0.49041 0.11643 0.0
C345 C 0.8794 0.45481 0.05143 0.0
C346 C 0.88233 0.51521 0.12295 0.0
C347 C 0.88238 0.52974 0.07414 0.0
C348 C 0.87921 0.48011 0.06069 0.0
C349 C 0.8801 0.5184 0.01934 0.0
C350 C 0.87944 0.44568 0.99523 0.0
C351 C 0.88249 0.41825 0.09083 0.0
N352 N 0.87876 0.49436 0.01414 0.0
N353 N 0.88074 0.44072 0.09741 0.0
H354 H 0.3704 0.87814 0.18923 0.0
H355 H 0.49199 0.87622 0.3469 0.0
H356 H 0.3746 0.87086 0.37431 0.0
H357 H 0.47894 0.86678 0.16247 0.0
H358 H 0.44861 0.87338 0.35814 0.0
H359 H 0.4097 0.87315 0.17849 0.0
C360 C 0.37948 0.87531 0.2276 0.0
C361 C 0.36931 0.8751 0.28279 0.0
C362 C 0.45513 0.87169 0.31527 0.0
C363 C 0.41442 0.86957 0.27083 0.0
C364 C 0.47991 0.87335 0.30881 0.0
C365 C 0.48919 0.87193 0.25361 0.0
C366 C 0.43963 0.86888 0.26612 0.0
C367 C 0.47264 0.86807 0.20583 0.0
C368 C 0.40189 0.87241 0.22142 0.0
C369 C 0.38181 0.87122 0.33094 0.0
N370 N 0.44878 0.86694 0.21313 0.0
N371 N 0.40387 0.86887 0.32388 0.0
H372 H 0.36763 0.40787 0.78647 0.0
H373 H 0.36614 0.32522 0.50952 0.0
H374 H 0.29532 0.34126 0.71824 0.0
H375 H 0.43414 0.40058 0.5604 0.0
H376 H 0.34004 0.3297 0.58709 0.0
H377 H 0.39257 0.4041 0.70599 0.0
C378 C 0.35697 0.39236 0.7546 0.0
C379 C 0.32931 0.37479 0.75912 0.0
C380 C 0.36062 0.34531 0.58107 0.0
C381 C 0.35787 0.37045 0.66661 0.0
C382 C 0.37556 0.34278 0.53686 0.0
C383 C 0.40241 0.36254 0.52867 0.0
C384 C 0.37268 0.36765 0.61762 0.0
C385 C 0.41353 0.38487 0.56519 0.0
C386 C 0.37125 0.39032 0.70847 0.0
C387 C 0.31661 0.3552 0.71641 0.0
N388 N 0.39865 0.38674 0.60833 0.0
N389 N 0.33103 0.3535 0.6719 0.0
H390 H 0.9285 0.36964 0.8787 0.0
H391 H 0.02188 0.33839 0.6806 0.0
H392 H 0.94245 0.304 0.91139 0.0
H393 H 0.99385 0.39206 0.62956 0.0
H394 H 0.99228 0.32486 0.76441 0.0
H395 H 0.95205 0.37787 0.78677 0.0
C396 C 0.93648 0.35691 0.86647 0.0
C397 C 0.93371 0.33622 0.90293 0.0
C398 C 0.99239 0.33939 0.73457 0.0
C399 C 0.96069 0.34557 0.7978 0.0
C400 C 0.0093 0.34715 0.68674 0.0
C401 C 0.01047 0.36654 0.64832 0.0
C402 C 0.97676 0.35133 0.74442 0.0
C403 C 0.99364 0.37711 0.65819 0.0
C404 C 0.94981 0.36155 0.81384 0.0
C405 C 0.94423 0.32023 0.88468 0.0
N406 N 0.97767 0.36957 0.70567 0.0
N407 N 0.95747 0.32539 0.83354 0.0
H408 H 0.57162 0.92614 0.09555 0.0
H409 H 0.68233 0.05073 0.91538 0.0
H410 H 0.65301 0.97661 0.15296 0.0
H411 H 0.60215 -0.00156 0.85312 0.0
H412 H 0.67204 0.02312 0.00183 0.0
H413 H 0.58249 0.95179 0.00571 0.0
C414 C 0.59179 0.94259 0.08924 0.0
C415 C 0.61144 0.94931 0.13189 0.0
C416 C 0.6567 0.01761 0.96922 0.0
C417 C 0.62397 0.97872 0.02924 0.0
C418 C 0.66256 0.03338 0.9198 0.0
C419 C 0.64302 0.02693 0.87704 0.0
C420 C 0.63109 0.99525 0.97615 0.0
C421 C 0.61779 0.00417 0.88505 0.0
C422 C 0.59798 0.9572 0.0379 0.0
C423 C 0.63723 0.97076 0.12132 0.0
N424 N 0.61251 0.98919 0.93382 0.0
N425 N 0.64273 0.98475 0.0711 0.0
H426 H 0.65348 0.7057 0.12455 0.0
H427 H 0.60562 0.5992 0.38275 0.0
H428 H 0.57543 0.63479 0.1321 0.0
H429 H 0.68848 0.65403 0.34234 0.0
H430 H 0.5925 0.6182 0.30304 0.0
H431 H 0.66475 0.69283 0.21671 0.0
C432 C 0.63865 0.68756 0.14583 0.0
C433 C 0.61362 0.6711 0.1204 0.0
C434 C 0.61353 0.62619 0.31207 0.0
C435 C 0.62628 0.65642 0.22558 0.0
C436 C 0.62103 0.61545 0.35761 0.0
C437 C 0.64816 0.62487 0.36861 0.0
C438 C 0.63334 0.64663 0.2779 0.0
C439 C 0.66732 0.64596 0.33479 0.0
C440 C 0.6451 0.68022 0.19827 0.0
C441 C 0.59509 0.64788 0.1499 0.0
N442 N 0.65954 0.65607 0.29075 0.0
N443 N 0.60183 0.64117 0.20089 0.0
H444 H 0.03233 0.69502 0.409 0.0
H445 H 0.98428 0.60965 0.11711 0.0
H446 H 0.04641 0.63001 0.37023 0.0
H447 H 0.95298 0.65923 0.17756 0.0
H448 H 0.01353 0.62275 0.20176 0.0
H449 H 0.00906 0.68749 0.31654 0.0
C450 C 0.03061 0.67924 0.38096 0.0
C451 C 0.04109 0.66296 0.39749 0.0
C452 C 0.00037 0.63088 0.19621 0.0
C453 C 0.01472 0.6544 0.29174 0.0
C454 C 0.98378 0.62353 0.1478 0.0
C455 C 0.96601 0.63318 0.14063 0.0
C456 C -0.00072 0.64813 0.2374 0.0
C457 C 0.96621 0.65112 0.18172 0.0
C458 C 0.01733 0.67495 0.32827 0.0
C459 C 0.03839 0.64287 0.35941 0.0
N460 N 0.9825 0.65793 0.22853 0.0
N461 N 0.02543 0.63913 0.30831 0.0
H462 H 0.31176 0.98119 0.38107 0.0
H463 H 0.38003 0.99385 0.68967 0.0
H464 H 0.33759 0.92693 0.44114 0.0
H465 H 0.36381 0.05337 0.61796 0.0
H466 H 0.35991 0.96621 0.60379 0.0
H467 H 0.32625 0.00517 0.47269 0.0
C468 C 0.32038 0.97425 0.4136 0.0
C469 C 0.32365 0.95216 0.4033 0.0
C470 C 0.36065 0.98527 0.60709 0.0
C471 C 0.34028 0.97948 0.50824 0.0
C472 C 0.37206 0.00101 0.65613 0.0
C473 C 0.37378 0.02602 0.66074 0.0
C474 C 0.35083 0.99463 0.56263 0.0
C475 C 0.36311 0.0343 0.61603 0.0
C476 C 0.32867 0.98796 0.4659 0.0
C477 C 0.33486 0.94399 0.44712 0.0
N478 N 0.35219 0.01869 0.56878 0.0
N479 N 0.34286 0.95772 0.49764 0.0
H480 H 0.43176 0.25057 0.43608 0.0
H481 H 0.41514 0.17438 0.73699 0.0
H482 H 0.42258 0.27971 0.60136 0.0
H483 H 0.43214 0.14923 0.57455 0.0
H484 H 0.41658 0.21256 0.68746 0.0
H485 H 0.43061 0.21243 0.48546 0.0
C486 C 0.42949 0.24895 0.48265 0.0
C487 C 0.42729 0.26836 0.51459 0.0
C488 C 0.42004 0.19869 0.66271 0.0
C489 C 0.42592 0.22487 0.57132 0.0
C490 C 0.41921 0.1769 0.691 0.0
C491 C 0.42352 0.15859 0.65992 0.0
C492 C 0.42511 0.20212 0.6029 0.0
C493 C 0.42871 0.16285 0.60032 0.0
C494 C 0.42887 0.22722 0.51085 0.0
C495 C 0.4244 0.26527 0.5749 0.0
N496 N 0.42931 0.18412 0.57377 0.0
N497 N 0.42377 0.24395 0.60124 0.0
H498 H 0.27456 0.43043 0.72543 0.0
H499 H 0.11653 0.36999 0.74181 0.0
H500 H 0.22657 0.38735 0.87331 0.0
H501 H 0.16247 0.40309 0.5857 0.0
H502 H 0.15677 0.37677 0.79091 0.0
H503 H 0.23402 0.42183 0.67442 0.0
C504 C 0.2555 0.41926 0.74733 0.0
C505 C 0.25396 0.40963 0.80383 0.0
C506 C 0.15806 0.38244 0.74584 0.0
C507 C 0.20745 0.39961 0.74545 0.0
C508 C 0.13507 0.37856 0.71769 0.0
C509 C 0.13615 0.38608 0.65956 0.0
C510 C 0.18244 0.39412 0.71585 0.0
C511 C 0.16072 0.39699 0.63052 0.0
C512 C 0.23235 0.41425 0.71801 0.0
C513 C 0.22871 0.39518 0.82985 0.0
N514 N 0.18296 0.40085 0.65911 0.0
N515 N 0.20645 0.39064 0.80046 0.0
H516 H 0.81024 0.29368 0.92032 0.0
H517 H 0.7614 0.13745 0.90609 0.0
H518 H 0.8381 0.25456 0.03743 0.0
H519 H 0.73433 0.1774 0.78931 0.0
H520 H 0.7893 0.17991 0.95548 0.0
H521 H 0.78103 0.25078 0.8744 0.0
C522 C 0.81002 0.27601 0.93681 0.0
C523 C 0.82674 0.27775 0.98266 0.0
C524 C 0.77731 0.17939 0.91896 0.0
C525 C 0.79351 0.22851 0.92968 0.0
C526 C 0.76146 0.15518 0.89051 0.0
C527 C 0.74548 0.15385 0.84343 0.0
C528 C 0.77718 0.20246 0.90023 0.0
C529 C 0.74633 0.17746 0.82534 0.0
C530 C 0.7934 0.2515 0.91035 0.0
C531 C 0.82554 0.25415 0.00222 0.0
N532 N 0.76186 0.20077 0.85385 0.0
N533 N 0.80934 0.23051 0.97535 0.0
H534 H 0.55101 0.81047 0.24042 0.0
H535 H 0.60252 0.75287 0.98766 0.0
H536 H 0.62491 0.85818 0.14755 0.0
H537 H 0.53092 0.70467 0.08736 0.0
H538 H 0.61039 0.79209 0.04345 0.0
H539 H 0.54341 0.77144 0.18472 0.0
C540 C 0.5658 0.8127 0.20878 0.0
C541 C 0.58859 0.83768 0.19854 0.0
C542 C 0.59289 0.77294 0.0529 0.0
C543 C 0.57981 0.79312 0.13396 0.0
C544 C 0.58828 0.75059 0.02075 0.0
C545 C 0.56605 0.72544 0.03294 0.0
C546 C 0.57513 0.77011 0.09746 0.0
C547 C 0.54835 0.72364 0.07656 0.0
C548 C 0.56137 0.79042 0.17673 0.0
C549 C 0.60704 0.83934 0.1569 0.0
N550 N 0.55333 0.74564 0.10736 0.0
N551 N 0.60216 0.8174 0.12589 0.0
H552 H 0.72905 0.53736 0.35865 0.0
H553 H 0.84567 0.63203 0.13997 0.0
H554 H 0.76612 0.62345 0.35971 0.0
H555 H 0.79752 0.54633 0.12105 0.0
H556 H 0.8181 0.62965 0.22246 0.0
H557 H 0.75655 0.54058 0.27569 0.0
C558 C 0.7432 0.55698 0.34191 0.0
C559 C 0.74521 0.58017 0.36615 0.0
C560 C 0.81346 0.61141 0.19994 0.0
C561 C 0.77656 0.58397 0.27054 0.0
C562 C 0.82911 0.61276 0.15265 0.0
C563 C 0.82397 0.58933 0.1236 0.0
C564 C 0.79268 0.58644 0.21861 0.0
C565 C 0.80226 0.56492 0.14206 0.0
C566 C 0.75874 0.55879 0.29417 0.0
C567 C 0.76386 0.60503 0.34238 0.0
N568 N 0.78758 0.5641 0.18865 0.0
N569 N 0.77877 0.60628 0.29579 0.0
H570 H 0.16239 0.70041 0.40448 0.0
H571 H 0.22037 0.85833 0.38515 0.0
H572 H 0.13919 0.74349 0.52106 0.0
H573 H 0.24643 0.81527 0.27575 0.0
H574 H 0.18889 0.81628 0.43233 0.0
H575 H 0.1927 0.74231 0.35588 0.0
C576 C 0.16383 0.71874 0.42022 0.0
C577 C 0.14821 0.71843 0.46693 0.0
C578 C 0.20139 0.81602 0.39779 0.0
C579 C 0.18271 0.76655 0.41085 0.0
C580 C 0.21926 0.84 0.37052 0.0
C581 C 0.23618 0.84036 0.32655 0.0
C582 C 0.20041 0.7922 0.38097 0.0
C583 C 0.23385 0.81598 0.30952 0.0
C584 C 0.18109 0.74267 0.39223 0.0
C585 C 0.15094 0.74281 0.48537 0.0
N586 N 0.21642 0.79293 0.33697 0.0
N587 N 0.16777 0.76589 0.45708 0.0
loop_
_geom_bond_atom_site_label_1
_geom_bond_atom_site_label_2
_geom_bond_distance
_geom_bond_site_symmetry_2
_ccdc_geom_bond_type
C0 O1 1.160 . S
C0 O7 1.185 . S
O1 C0 1.160 . S
O2 Zn3 1.899 . S
O2 C10 1.284 . S
Zn3 O2 1.899 . S
Zn3 O4 2.032 . S
Zn3 O7 2.086 . S
Zn3 O12 1.977 . S
O4 Zn3 2.032 . S
O4 C8 1.278 . S
C5 O6 1.203 . S
C5 O12 1.267 . S
O6 C5 1.203 . S
O7 C0 1.185 . S
O7 Zn3 2.086 . S
C8 O4 1.278 . S
C8 O9 1.211 . S
O9 C8 1.211 . S
C10 O2 1.284 . S
C10 O11 1.273 . S
O11 C10 1.273 . S
O12 Zn3 1.977 . S
O12 C5 1.267 . S
C13 O14 1.160 . S
C13 O20 1.185 . S
O14 C13 1.160 . S
O15 Zn16 1.899 . S
O15 C23 1.284 . S
Zn16 O15 1.899 . S
Zn16 O17 2.032 . S
Zn16 O20 2.086 . S
Zn16 O25 1.977 . S
O17 Zn16 2.032 . S
O17 C21 1.278 . S
C18 O19 1.203 . S
C18 O25 1.267 . S
O19 C18 1.203 . S
O20 C13 1.185 . S
O20 Zn16 2.086 . S
C21 O17 1.278 . S
C21 O22 1.211 . S
O22 C21 1.211 . S
C23 O15 1.284 . S
C23 O24 1.273 . S
O24 C23 1.273 . S
O25 Zn16 1.977 . S
O25 C18 1.267 . S
C26 O27 1.160 . S
C26 O33 1.185 . S
O27 C26 1.160 . S
O28 Zn29 1.899 . S
O28 C36 1.284 . S
Zn29 O28 1.899 . S
Zn29 O30 2.032 . S
Zn29 O33 2.086 . S
Zn29 O38 1.977 . S
O30 Zn29 2.032 . S
O30 C34 1.278 . S
C31 O32 1.203 . S
C31 O38 1.267 . S
O32 C31 1.203 . S
O33 C26 1.185 . S
O33 Zn29 2.086 . S
C34 O30 1.278 . S
C34 O35 1.211 . S
O35 C34 1.211 . S
C36 O28 1.284 . S
C36 O37 1.273 . S
O37 C36 1.273 . S
O38 Zn29 1.977 . S
O38 C31 1.267 . S
C39 O40 1.160 . S
C39 O46 1.185 . S
O40 C39 1.160 . S
O41 Zn42 1.899 . S
O41 C49 1.284 . S
Zn42 O41 1.899 . S
Zn42 O43 2.032 1_556 S
Zn42 O46 2.086 . S
Zn42 O51 1.977 . S
O43 Zn42 2.032 1_554 S
O43 C47 1.278 . S
C44 O45 1.203 . S
C44 O51 1.267 . S
O45 C44 1.203 . S
O46 C39 1.185 . S
O46 Zn42 2.086 . S
C47 O43 1.278 . S
C47 O48 1.211 1_554 S
O48 C47 1.211 1_556 S
C49 O41 1.284 . S
C49 O50 1.273 . S
O50 C49 1.273 . S
O51 Zn42 1.977 . S
O51 C44 1.267 . S
C52 O53 1.160 . S
C52 O59 1.185 . S
O53 C52 1.160 . S
O54 Zn55 1.899 . S
O54 C62 1.284 . S
Zn55 O54 1.899 . S
Zn55 O56 2.032 . S
Zn55 O59 2.086 . S
Zn55 O64 1.977 . S
O56 Zn55 2.032 . S
O56 C60 1.278 . S
C57 O58 1.203 1_556 S
C57 O64 1.267 1_556 S
O58 C57 1.203 1_554 S
O59 C52 1.185 . S
O59 Zn55 2.086 . S
C60 O56 1.278 . S
C60 O61 1.211 . S
O61 C60 1.211 . S
C62 O54 1.284 . S
C62 O63 1.273 . S
O63 C62 1.273 . S
O64 Zn55 1.977 . S
O64 C57 1.267 1_554 S
C65 O66 1.160 . S
C65 O72 1.185 . S
O66 C65 1.160 . S
O67 Zn68 1.899 . S
O67 C75 1.284 . S
Zn68 O67 1.899 . S
Zn68 O69 2.032 . S
Zn68 O72 2.086 . S
Zn68 O77 1.977 . S
O69 Zn68 2.032 . S
O69 C73 1.278 . S
C70 O71 1.203 . S
C70 O77 1.267 . S
O71 C70 1.203 . S
O72 C65 1.185 . S
O72 Zn68 2.086 . S
C73 O69 1.278 . S
C73 O74 1.211 . S
O74 C73 1.211 . S
C75 O67 1.284 . S
C75 O76 1.273 . S
O76 C75 1.273 . S
O77 Zn68 1.977 . S
O77 C70 1.267 . S
C78 O79 1.160 . S
C78 O85 1.185 . S
O79 C78 1.160 . S
O80 Zn81 1.899 . S
O80 C88 1.284 . S
Zn81 O80 1.899 . S
Zn81 O82 2.032 . S
Zn81 O85 2.086 . S
Zn81 O90 1.977 . S
O82 Zn81 2.032 . S
O82 C86 1.278 . S
C83 O84 1.203 . S
C83 O90 1.267 . S
O84 C83 1.203 . S
O85 C78 1.185 . S
O85 Zn81 2.086 . S
C86 O82 1.278 . S
C86 O87 1.211 . S
O87 C86 1.211 . S
C88 O80 1.284 . S
C88 O89 1.273 . S
O89 C88 1.273 . S
O90 Zn81 1.977 . S
O90 C83 1.267 . S
C91 O92 1.160 . S
C91 O98 1.185 . S
O92 C91 1.160 . S
O93 Zn94 1.899 . S
O93 C101 1.284 . S
Zn94 O93 1.899 . S
Zn94 O95 2.032 . S
Zn94 O98 2.086 . S
Zn94 O103 1.977 . S
O95 Zn94 2.032 . S
O95 C99 1.278 . S
C96 O97 1.203 . S
C96 O103 1.267 . S
O97 C96 1.203 . S
O98 C91 1.185 . S
O98 Zn94 2.086 . S
C99 O95 1.278 . S
C99 O100 1.211 . S
O100 C99 1.211 . S
C101 O93 1.284 . S
C101 O102 1.273 . S
O102 C101 1.273 . S
O103 Zn94 1.977 . S
O103 C96 1.267 . S
C104 O105 1.160 . S
C104 O111 1.185 . S
O105 C104 1.160 . S
O106 Zn107 1.899 . S
O106 C114 1.284 . S
Zn107 O106 1.899 . S
Zn107 O108 2.032 . S
Zn107 O111 2.086 . S
Zn107 O116 1.977 . S
O108 Zn107 2.032 . S
O108 C112 1.278 . S
C109 O110 1.203 . S
C109 O116 1.267 . S
O110 C109 1.203 . S
O111 C104 1.185 . S
O111 Zn107 2.086 . S
C112 O108 1.278 . S
C112 O113 1.211 . S
O113 C112 1.211 . S
C114 O106 1.284 . S
C114 O115 1.273 . S
O115 C114 1.273 . S
O116 Zn107 1.977 . S
O116 C109 1.267 . S
C117 O118 1.160 . S
C117 O124 1.185 . S
O118 C117 1.160 . S
O119 Zn120 1.899 . S
O119 C127 1.284 . S
Zn120 O119 1.899 . S
Zn120 O121 2.032 . S
Zn120 O124 2.086 . S
Zn120 O129 1.977 . S
O121 Zn120 2.032 . S
O121 C125 1.278 . S
C122 O123 1.203 1_554 S
C122 O129 1.267 1_554 S
O123 C122 1.203 1_556 S
O124 C117 1.185 . S
O124 Zn120 2.086 . S
C125 O121 1.278 . S
C125 O126 1.211 . S
O126 C125 1.211 . S
C127 O119 1.284 . S
C127 O128 1.273 . S
O128 C127 1.273 . S
O129 Zn120 1.977 . S
O129 C122 1.267 1_556 S
C130 O131 1.160 . S
C130 O137 1.185 . S
O131 C130 1.160 . S
O132 Zn133 1.899 . S
O132 C140 1.284 . S
Zn133 O132 1.899 . S
Zn133 O134 2.032 1_554 S
Zn133 O137 2.086 . S
Zn133 O142 1.977 . S
O134 Zn133 2.032 1_556 S
O134 C138 1.278 . S
C135 O136 1.203 . S
C135 O142 1.267 . S
O136 C135 1.203 . S
O137 C130 1.185 . S
O137 Zn133 2.086 . S
C138 O134 1.278 . S
C138 O139 1.211 1_556 S
O139 C138 1.211 1_554 S
C140 O132 1.284 . S
C140 O141 1.273 . S
O141 C140 1.273 . S
O142 Zn133 1.977 . S
O142 C135 1.267 . S
C143 O144 1.160 . S
C143 O150 1.185 . S
O144 C143 1.160 . S
O145 Zn146 1.899 . S
O145 C153 1.284 . S
Zn146 O145 1.899 . S
Zn146 O147 2.032 . S
Zn146 O150 2.086 . S
Zn146 O155 1.977 . S
O147 Zn146 2.032 . S
O147 C151 1.278 . S
C148 O149 1.203 . S
C148 O155 1.267 . S
O149 C148 1.203 . S
O150 C143 1.185 . S
O150 Zn146 2.086 . S
C151 O147 1.278 . S
C151 O152 1.211 . S
O152 C151 1.211 . S
C153 O145 1.284 . S
C153 O154 1.273 . S
O154 C153 1.273 . S
O155 Zn146 1.977 . S
O155 C148 1.267 . S
H156 C162 0.930 . S
H157 C166 0.930 . S
H158 C171 0.929 . S
H159 C169 0.929 . S
H160 C164 0.929 . S
H161 C170 0.929 . S
C162 H156 0.930 . S
C162 C163 1.367 . S
C162 C170 1.378 . S
C163 C162 1.367 . S
C163 C171 1.433 . S
C164 H160 0.929 . S
C164 C166 1.378 . S
C164 C168 1.350 . S
C165 C168 1.463 . S
C165 C170 1.350 . S
C165 N173 1.427 . S
C166 H157 0.930 . S
C166 C164 1.378 . S
C166 C167 1.367 . S
C167 C166 1.367 . S
C167 C169 1.433 . S
C168 C164 1.350 . S
C168 C165 1.463 . S
C168 N172 1.427 . S
C169 H159 0.929 . S
C169 C167 1.433 . S
C169 N172 1.384 . S
C170 H161 0.929 . S
C170 C162 1.378 . S
C170 C165 1.350 . S
C171 H158 0.929 . S
C171 C163 1.433 . S
C171 N173 1.384 . S
N172 C168 1.427 . S
N172 C169 1.384 . S
N173 C165 1.427 . S
N173 C171 1.384 . S
H174 C180 0.930 . S
H175 C184 0.930 . S
H176 C189 0.929 . S
H177 C187 0.929 . S
H178 C182 0.924 1_455 S
H179 C188 0.925 1_655 S
C180 H174 0.930 . S
C180 C181 1.367 . S
C180 C188 1.378 . S
C181 C180 1.367 . S
C181 C189 1.433 . S
C182 H178 0.924 1_655 S
C182 C184 1.378 . S
C182 C186 1.350 . S
C183 C186 1.463 1_455 S
C183 C188 1.350 . S
C183 N191 1.427 . S
C184 H175 0.930 . S
C184 C182 1.378 . S
C184 C185 1.367 . S
C185 C184 1.367 . S
C185 C187 1.433 . S
C186 C182 1.350 . S
C186 C183 1.463 1_655 S
C186 N190 1.427 . S
C187 H177 0.929 . S
C187 C185 1.433 . S
C187 N190 1.384 . S
C188 H179 0.925 1_455 S
C188 C180 1.378 . S
C188 C183 1.350 . S
C189 H176 0.929 . S
C189 C181 1.433 . S
C189 N191 1.384 . S
N190 C186 1.427 . S
N190 C187 1.384 . S
N191 C183 1.427 . S
N191 C189 1.384 . S
H192 C198 0.930 . S
H193 C202 0.930 . S
H194 C207 0.929 . S
H195 C205 0.929 . S
H196 C200 0.929 . S
H197 C206 0.929 . S
C198 H192 0.930 . S
C198 C199 1.367 . S
C198 C206 1.378 . S
C199 C198 1.367 . S
C199 C207 1.433 . S
C200 H196 0.929 . S
C200 C202 1.378 . S
C200 C204 1.350 . S
C201 C204 1.463 1_565 S
C201 C206 1.350 . S
C201 N209 1.427 . S
C202 H193 0.930 . S
C202 C200 1.378 . S
C202 C203 1.367 . S
C203 C202 1.367 . S
C203 C205 1.433 . S
C204 C200 1.350 . S
C204 C201 1.463 1_545 S
C204 N208 1.427 . S
C205 H195 0.929 . S
C205 C203 1.433 . S
C205 N208 1.384 . S
C206 H197 0.929 . S
C206 C198 1.378 . S
C206 C201 1.350 . S
C207 H194 0.929 . S
C207 C199 1.433 . S
C207 N209 1.384 . S
N208 C204 1.427 . S
N208 C205 1.384 . S
N209 C201 1.427 . S
N209 C207 1.384 . S
H210 C216 0.930 . S
H211 C220 0.930 . S
H212 C225 0.929 . S
H213 C223 0.929 . S
H214 C218 0.929 . S
H215 C224 0.929 . S
C216 H210 0.930 . S
C216 C217 1.367 . S
C216 C224 1.378 . S
C217 C216 1.367 . S
C217 C225 1.433 . S
C218 H214 0.929 . S
C218 C220 1.378 . S
C218 C222 1.350 . S
C219 C222 1.463 . S
C219 C224 1.350 . S
C219 N227 1.427 . S
C220 H211 0.930 . S
C220 C218 1.378 . S
C220 C221 1.367 . S
C221 C220 1.367 . S
C221 C223 1.433 . S
C222 C218 1.350 . S
C222 C219 1.463 . S
C222 N226 1.427 . S
C223 H213 0.929 . S
C223 C221 1.433 . S
C223 N226 1.384 . S
C224 H215 0.929 . S
C224 C216 1.378 . S
C224 C219 1.350 . S
C225 H212 0.929 . S
C225 C217 1.433 . S
C225 N227 1.384 . S
N226 C222 1.427 . S
N226 C223 1.384 . S
N227 C219 1.427 . S
N227 C225 1.384 . S
H228 C234 0.930 . S
H229 C238 0.930 . S
H230 C243 0.929 . S
H231 C241 0.929 . S
H232 C236 0.929 . S
H233 C242 0.929 . S
C234 H228 0.930 . S
C234 C235 1.367 . S
C234 C242 1.378 . S
C235 C234 1.367 . S
C235 C243 1.433 . S
C236 H232 0.929 . S
C236 C238 1.378 . S
C236 C240 1.350 . S
C237 C240 1.463 1_455 S
C237 C242 1.350 . S
C237 N245 1.427 . S
C238 H229 0.930 . S
C238 C236 1.378 . S
C238 C239 1.367 . S
C239 C238 1.367 . S
C239 C241 1.433 . S
C240 C236 1.350 . S
C240 C237 1.463 1_655 S
C240 N244 1.427 . S
C241 H231 0.929 . S
C241 C239 1.433 . S
C241 N244 1.384 . S
C242 H233 0.929 . S
C242 C234 1.378 . S
C242 C237 1.350 . S
C243 H230 0.929 . S
C243 C235 1.433 . S
C243 N245 1.384 . S
N244 C240 1.427 . S
N244 C241 1.384 . S
N245 C237 1.427 . S
N245 C243 1.384 . S
H246 C252 0.930 . S
H247 C256 0.930 . S
H248 C261 0.929 . S
H249 C259 0.929 . S
H250 C254 0.929 . S
H251 C260 0.929 . S
C252 H246 0.930 . S
C252 C253 1.367 . S
C252 C260 1.378 . S
C253 C252 1.367 . S
C253 C261 1.433 . S
C254 H250 0.929 . S
C254 C256 1.378 . S
C254 C258 1.350 . S
C255 C258 1.463 1_546 S
C255 C260 1.350 . S
C255 N263 1.427 . S
C256 H247 0.930 . S
C256 C254 1.378 . S
C256 C257 1.367 . S
C257 C256 1.367 . S
C257 C259 1.433 . S
C258 C254 1.350 . S
C258 C255 1.463 1_564 S
C258 N262 1.427 . S
C259 H249 0.929 . S
C259 C257 1.433 . S
C259 N262 1.384 . S
C260 H251 0.929 . S
C260 C252 1.378 . S
C260 C255 1.350 . S
C261 H248 0.929 . S
C261 C253 1.433 . S
C261 N263 1.384 . S
N262 C258 1.427 . S
N262 C259 1.384 . S
N263 C255 1.427 . S
N263 C261 1.384 . S
H264 C270 0.930 . S
H265 C274 0.930 . S
H266 C279 0.929 . S
H267 C277 0.929 . S
H268 C272 0.929 . S
H269 C278 0.929 . S
C270 H264 0.930 . S
C270 C271 1.367 . S
C270 C278 1.378 . S
C271 C270 1.367 . S
C271 C279 1.433 . S
C272 H268 0.929 . S
C272 C274 1.378 . S
C272 C276 1.350 . S
C273 C276 1.463 . S
C273 C278 1.350 . S
C273 N281 1.427 . S
C274 H265 0.930 . S
C274 C272 1.378 . S
C274 C275 1.367 . S
C275 C274 1.367 . S
C275 C277 1.433 . S
C276 C272 1.350 . S
C276 C273 1.463 . S
C276 N280 1.427 . S
C277 H267 0.929 . S
C277 C275 1.433 . S
C277 N280 1.384 . S
C278 H269 0.929 . S
C278 C270 1.378 . S
C278 C273 1.350 . S
C279 H266 0.929 . S
C279 C271 1.433 . S
C279 N281 1.384 . S
N280 C276 1.427 . S
N280 C277 1.384 . S
N281 C273 1.427 . S
N281 C279 1.384 . S
H282 C288 0.930 . S
H283 C292 0.930 . S
H284 C297 0.929 . S
H285 C295 0.929 . S
H286 C290 0.929 . S
H287 C296 0.929 . S
C288 H282 0.930 . S
C288 C289 1.367 . S
C288 C296 1.378 . S
C289 C288 1.367 . S
C289 C297 1.433 . S
C290 H286 0.929 . S
C290 C292 1.378 . S
C290 C294 1.350 . S
C291 C294 1.463 . S
C291 C296 1.350 . S
C291 N299 1.427 . S
C292 H283 0.930 . S
C292 C290 1.378 . S
C292 C293 1.367 . S
C293 C292 1.367 . S
C293 C295 1.433 . S
C294 C290 1.350 . S
C294 C291 1.463 . S
C294 N298 1.427 . S
C295 H285 0.929 . S
C295 C293 1.433 . S
C295 N298 1.384 . S
C296 H287 0.929 . S
C296 C288 1.378 . S
C296 C291 1.350 . S
C297 H284 0.929 . S
C297 C289 1.433 . S
C297 N299 1.384 . S
N298 C294 1.427 . S
N298 C295 1.384 . S
N299 C291 1.427 . S
N299 C297 1.384 . S
H300 C306 0.930 . S
H301 C310 0.930 . S
H302 C315 0.929 . S
H303 C313 0.929 . S
H304 C308 0.929 . S
H305 C314 0.929 . S
C306 H300 0.930 . S
C306 C307 1.367 . S
C306 C314 1.378 . S
C307 C306 1.367 . S
C307 C315 1.433 . S
C308 H304 0.929 . S
C308 C310 1.378 . S
C308 C312 1.350 . S
C309 C312 1.463 . S
C309 C314 1.350 . S
C309 N317 1.427 . S
C310 H301 0.930 . S
C310 C308 1.378 . S
C310 C311 1.367 . S
C311 C310 1.367 . S
C311 C313 1.433 . S
C312 C308 1.350 . S
C312 C309 1.463 . S
C312 N316 1.427 . S
C313 H303 0.929 . S
C313 C311 1.433 . S
C313 N316 1.384 . S
C314 H305 0.929 . S
C314 C306 1.378 . S
C314 C309 1.350 . S
C315 H302 0.929 . S
C315 C307 1.433 . S
C315 N317 1.384 . S
N316 C312 1.427 . S
N316 C313 1.384 . S
N317 C309 1.427 . S
N317 C315 1.384 . S
H318 C324 0.930 . S
H319 C328 0.930 . S
H320 C333 0.929 . S
H321 C331 0.929 . S
H322 C326 0.929 . S
H323 C332 0.929 . S
C324 H318 0.930 . S
C324 C325 1.367 . S
C324 C332 1.378 . S
C325 C324 1.367 . S
C325 C333 1.433 . S
C326 H322 0.929 . S
C326 C328 1.378 . S
C326 C330 1.350 . S
C327 C330 1.463 . S
C327 C332 1.350 . S
C327 N335 1.427 . S
C328 H319 0.930 . S
C328 C326 1.378 . S
C328 C329 1.367 . S
C329 C328 1.367 . S
C329 C331 1.433 . S
C330 C326 1.350 . S
C330 C327 1.463 . S
C330 N334 1.427 . S
C331 H321 0.929 . S
C331 C329 1.433 . S
C331 N334 1.384 . S
C332 H323 0.929 . S
C332 C324 1.378 . S
C332 C327 1.350 . S
C333 H320 0.929 . S
C333 C325 1.433 . S
C333 N335 1.384 . S
N334 C330 1.427 . S
N334 C331 1.384 . S
N335 C327 1.427 . S
N335 C333 1.384 . S
H336 C342 0.921 1_556 S
H337 C346 0.930 . S
H338 C351 0.929 . S
H339 C349 0.929 . S
H340 C344 0.929 . S
H341 C350 0.929 . S
C342 H336 0.921 1_554 S
C342 C343 1.367 . S
C342 C350 1.378 . S
C343 C342 1.367 . S
C343 C351 1.433 . S
C344 H340 0.929 . S
C344 C346 1.378 . S
C344 C348 1.350 . S
C345 C348 1.463 . S
C345 C350 1.350 . S
C345 N353 1.427 . S
C346 H337 0.930 . S
C346 C344 1.378 . S
C346 C347 1.367 . S
C347 C346 1.367 . S
C347 C349 1.433 . S
C348 C344 1.350 . S
C348 C345 1.463 . S
C348 N352 1.427 . S
C349 H339 0.929 . S
C349 C347 1.433 . S
C349 N352 1.384 . S
C350 H341 0.929 . S
C350 C342 1.378 . S
C350 C345 1.350 . S
C351 H338 0.929 . S
C351 C343 1.433 . S
C351 N353 1.384 . S
N352 C348 1.427 . S
N352 C349 1.384 . S
N353 C345 1.427 . S
N353 C351 1.384 . S
H354 C360 0.930 . S
H355 C364 0.930 . S
H356 C369 0.929 . S
H357 C367 0.929 . S
H358 C362 0.929 . S
H359 C368 0.929 . S
C360 H354 0.930 . S
C360 C361 1.367 . S
C360 C368 1.378 . S
C361 C360 1.367 . S
C361 C369 1.433 . S
C362 H358 0.929 . S
C362 C364 1.378 . S
C362 C366 1.350 . S
C363 C366 1.463 . S
C363 C368 1.350 . S
C363 N371 1.427 . S
C364 H355 0.930 . S
C364 C362 1.378 . S
C364 C365 1.367 . S
C365 C364 1.367 . S
C365 C367 1.433 . S
C366 C362 1.350 . S
C366 C363 1.463 . S
C366 N370 1.427 . S
C367 H357 0.929 . S
C367 C365 1.433 . S
C367 N370 1.384 . S
C368 H359 0.929 . S
C368 C360 1.378 . S
C368 C363 1.350 . S
C369 H356 0.929 . S
C369 C361 1.433 . S
C369 N371 1.384 . S
N370 C366 1.427 . S
N370 C367 1.384 . S
N371 C363 1.427 . S
N371 C369 1.384 . S
H372 C378 0.930 . S
H373 C382 0.930 . S
H374 C387 0.929 . S
H375 C385 0.929 . S
H376 C380 0.929 . S
H377 C386 0.929 . S
C378 H372 0.930 . S
C378 C379 1.367 . S
C378 C386 1.378 . S
C379 C378 1.367 . S
C379 C387 1.433 . S
C380 H376 0.929 . S
C380 C382 1.378 . S
C380 C384 1.350 . S
C381 C384 1.463 . S
C381 C386 1.350 . S
C381 N389 1.427 . S
C382 H373 0.930 . S
C382 C380 1.378 . S
C382 C383 1.367 . S
C383 C382 1.367 . S
C383 C385 1.433 . S
C384 C380 1.350 . S
C384 C381 1.463 . S
C384 N388 1.427 . S
C385 H375 0.929 . S
C385 C383 1.433 . S
C385 N388 1.384 . S
C386 H377 0.929 . S
C386 C378 1.378 . S
C386 C381 1.350 . S
C387 H374 0.929 . S
C387 C379 1.433 . S
C387 N389 1.384 . S
N388 C384 1.427 . S
N388 C385 1.384 . S
N389 C381 1.427 . S
N389 C387 1.384 . S
H390 C396 0.930 . S
H391 C400 0.930 . S
H392 C405 0.937 . S
H393 C403 0.929 . S
H394 C398 0.929 . S
H395 C404 0.929 . S
C396 H390 0.930 . S
C396 C397 1.367 . S
C396 C404 1.378 . S
C397 C396 1.367 . S
C397 C405 1.433 . S
C398 H394 0.929 . S
C398 C400 1.378 . S
C398 C402 1.350 . S
C399 C402 1.463 1_655 S
C399 C404 1.350 . S
C399 N407 1.427 1_655 S
C400 H391 0.930 . S
C400 C398 1.378 . S
C400 C401 1.367 . S
C401 C400 1.367 . S
C401 C403 1.433 . S
C402 C398 1.350 . S
C402 C399 1.463 1_455 S
C402 N406 1.427 1_455 S
C403 H393 0.929 . S
C403 C401 1.433 . S
C403 N406 1.384 1_455 S
C404 H395 0.929 . S
C404 C396 1.378 . S
C404 C399 1.350 . S
C405 H392 0.937 . S
C405 C397 1.433 . S
C405 N407 1.384 1_655 S
N406 C402 1.427 1_655 S
N406 C403 1.384 1_655 S
N407 C399 1.427 1_455 S
N407 C405 1.384 1_455 S
H408 C414 0.930 . S
H409 C418 0.930 . S
H410 C423 0.929 . S
H411 C421 0.929 . S
H412 C416 0.929 1_554 S
H413 C422 0.929 1_556 S
C414 H408 0.930 . S
C414 C415 1.367 . S
C414 C422 1.378 . S
C415 C414 1.367 . S
C415 C423 1.433 . S
C416 H412 0.929 1_556 S
C416 C418 1.378 . S
C416 C420 1.350 . S
C417 C420 1.463 1_564 S
C417 C422 1.350 . S
C417 N425 1.427 1_565 S
C418 H409 0.930 . S
C418 C416 1.378 . S
C418 C419 1.367 . S
C419 C418 1.367 . S
C419 C421 1.433 . S
C420 C416 1.350 . S
C420 C417 1.463 1_546 S
C420 N424 1.427 1_545 S
C421 H411 0.929 . S
C421 C419 1.433 . S
C421 N424 1.384 1_545 S
C422 H413 0.929 1_554 S
C422 C414 1.378 . S
C422 C417 1.350 . S
C423 H410 0.929 . S
C423 C415 1.433 . S
C423 N425 1.384 1_565 S
N424 C420 1.427 1_565 S
N424 C421 1.384 1_565 S
N425 C417 1.427 1_545 S
N425 C423 1.384 1_545 S
H426 C432 0.930 . S
H427 C436 0.930 . S
H428 C441 0.929 . S
H429 C439 0.929 . S
H430 C434 0.929 . S
H431 C440 0.929 . S
C432 H426 0.930 . S
C432 C433 1.367 . S
C432 C440 1.378 . S
C433 C432 1.367 . S
C433 C441 1.433 . S
C434 H430 0.929 . S
C434 C436 1.378 . S
C434 C438 1.350 . S
C435 C438 1.463 . S
C435 C440 1.350 . S
C435 N443 1.427 . S
C436 H427 0.930 . S
C436 C434 1.378 . S
C436 C437 1.367 . S
C437 C436 1.367 . S
C437 C439 1.433 . S
C438 C434 1.350 . S
C438 C435 1.463 . S
C438 N442 1.427 . S
C439 H429 0.929 . S
C439 C437 1.433 . S
C439 N442 1.384 . S
C440 H431 0.929 . S
C440 C432 1.378 . S
C440 C435 1.350 . S
C441 H428 0.929 . S
C441 C433 1.433 . S
C441 N443 1.384 . S
N442 C438 1.427 . S
N442 C439 1.384 . S
N443 C435 1.427 . S
N443 C441 1.384 . S
H444 C450 0.930 . S
H445 C454 0.930 . S
H446 C459 0.929 . S
H447 C457 0.929 . S
H448 C452 0.929 1_455 S
H449 C458 0.929 1_655 S
C450 H444 0.930 . S
C450 C451 1.367 . S
C450 C458 1.378 . S
C451 C450 1.367 . S
C451 C459 1.433 . S
C452 H448 0.929 1_655 S
C452 C454 1.378 . S
C452 C456 1.350 . S
C453 C456 1.463 1_455 S
C453 C458 1.350 . S
C453 N461 1.427 . S
C454 H445 0.930 . S
C454 C452 1.378 . S
C454 C455 1.367 . S
C455 C454 1.367 . S
C455 C457 1.433 . S
C456 C452 1.350 . S
C456 C453 1.463 1_655 S
C456 N460 1.427 . S
C457 H447 0.929 . S
C457 C455 1.433 . S
C457 N460 1.384 . S
C458 H449 0.929 1_455 S
C458 C450 1.378 . S
C458 C453 1.350 . S
C459 H446 0.929 . S
C459 C451 1.433 . S
C459 N461 1.384 . S
N460 C456 1.427 . S
N460 C457 1.384 . S
N461 C453 1.427 . S
N461 C459 1.384 . S
H462 C468 0.930 . S
H463 C472 0.930 . S
H464 C477 0.929 . S
H465 C475 0.929 . S
H466 C470 0.929 1_565 S
H467 C476 0.929 1_545 S
C468 H462 0.930 . S
C468 C469 1.367 . S
C468 C476 1.378 . S
C469 C468 1.367 . S
C469 C477 1.433 . S
C470 H466 0.929 1_545 S
C470 C472 1.378 . S
C470 C474 1.350 . S
C471 C474 1.463 1_565 S
C471 C476 1.350 . S
C471 N479 1.427 . S
C472 H463 0.930 . S
C472 C470 1.378 . S
C472 C473 1.367 . S
C473 C472 1.367 . S
C473 C475 1.433 . S
C474 C470 1.350 . S
C474 C471 1.463 1_545 S
C474 N478 1.427 . S
C475 H465 0.929 . S
C475 C473 1.433 . S
C475 N478 1.384 . S
C476 H467 0.929 1_565 S
C476 C468 1.378 . S
C476 C471 1.350 . S
C477 H464 0.929 . S
C477 C469 1.433 . S
C477 N479 1.384 . S
N478 C474 1.427 . S
N478 C475 1.384 . S
N479 C471 1.427 . S
N479 C477 1.384 . S
H480 C486 0.930 . S
H481 C490 0.930 . S
H482 C495 0.929 . S
H483 C493 0.929 . S
H484 C488 0.929 . S
H485 C494 0.929 . S
C486 H480 0.930 . S
C486 C487 1.367 . S
C486 C494 1.378 . S
C487 C486 1.367 . S
C487 C495 1.433 . S
C488 H484 0.929 . S
C488 C490 1.378 . S
C488 C492 1.350 . S
C489 C492 1.463 . S
C489 C494 1.350 . S
C489 N497 1.427 . S
C490 H481 0.930 . S
C490 C488 1.378 . S
C490 C491 1.367 . S
C491 C490 1.367 . S
C491 C493 1.433 . S
C492 C488 1.350 . S
C492 C489 1.463 . S
C492 N496 1.427 . S
C493 H483 0.929 . S
C493 C491 1.433 . S
C493 N496 1.384 . S
C494 H485 0.929 . S
C494 C486 1.378 . S
C494 C489 1.350 . S
C495 H482 0.929 . S
C495 C487 1.433 . S
C495 N497 1.384 . S
N496 C492 1.427 . S
N496 C493 1.384 . S
N497 C489 1.427 . S
N497 C495 1.384 . S
H498 C504 0.930 . S
H499 C508 0.930 . S
H500 C513 0.929 . S
H501 C511 0.929 . S
H502 C506 0.929 . S
H503 C512 0.929 . S
C504 H498 0.930 . S
C504 C505 1.367 . S
C504 C512 1.378 . S
C505 C504 1.367 . S
C505 C513 1.433 . S
C506 H502 0.929 . S
C506 C508 1.378 . S
C506 C510 1.350 . S
C507 C510 1.463 . S
C507 C512 1.350 . S
C507 N515 1.427 . S
C508 H499 0.930 . S
C508 C506 1.378 . S
C508 C509 1.367 . S
C509 C508 1.367 . S
C509 C511 1.433 . S
C510 C506 1.350 . S
C510 C507 1.463 . S
C510 N514 1.427 . S
C511 H501 0.929 . S
C511 C509 1.433 . S
C511 N514 1.384 . S
C512 H503 0.929 . S
C512 C504 1.378 . S
C512 C507 1.350 . S
C513 H500 0.929 . S
C513 C505 1.433 . S
C513 N515 1.384 . S
N514 C510 1.427 . S
N514 C511 1.384 . S
N515 C507 1.427 . S
N515 C513 1.384 . S
H516 C522 0.930 . S
H517 C526 0.930 . S
H518 C531 0.929 . S
H519 C529 0.929 . S
H520 C524 0.929 . S
H521 C530 0.929 . S
C522 H516 0.930 . S
C522 C523 1.367 1_556 S
C522 C530 1.378 . S
C523 C522 1.367 1_554 S
C523 C531 1.433 . S
C524 H520 0.929 . S
C524 C526 1.378 . S
C524 C528 1.350 . S
C525 C528 1.463 . S
C525 C530 1.350 . S
C525 N533 1.427 . S
C526 H517 0.930 . S
C526 C524 1.378 . S
C526 C527 1.367 . S
C527 C526 1.367 . S
C527 C529 1.433 . S
C528 C524 1.350 . S
C528 C525 1.463 . S
C528 N532 1.427 . S
C529 H519 0.929 . S
C529 C527 1.433 . S
C529 N532 1.384 . S
C530 H521 0.929 . S
C530 C522 1.378 . S
C530 C525 1.350 . S
C531 H518 0.929 . S
C531 C523 1.433 . S
C531 N533 1.384 1_554 S
N532 C528 1.427 . S
N532 C529 1.384 . S
N533 C525 1.427 . S
N533 C531 1.384 1_556 S
H534 C540 0.930 . S
H535 C544 0.930 . S
H536 C549 0.929 . S
H537 C547 0.929 . S
H538 C542 0.929 . S
H539 C548 0.929 . S
C540 H534 0.930 . S
C540 C541 1.367 . S
C540 C548 1.378 . S
C541 C540 1.367 . S
C541 C549 1.433 . S
C542 H538 0.929 . S
C542 C544 1.378 1_554 S
C542 C546 1.350 . S
C543 C546 1.463 . S
C543 C548 1.350 . S
C543 N551 1.427 . S
C544 H535 0.930 . S
C544 C542 1.378 1_556 S
C544 C545 1.367 . S
C545 C544 1.367 . S
C545 C547 1.433 1_556 S
C546 C542 1.350 . S
C546 C543 1.463 . S
C546 N550 1.427 . S
C547 H537 0.929 . S
C547 C545 1.433 1_554 S
C547 N550 1.384 . S
C548 H539 0.929 . S
C548 C540 1.378 . S
C548 C543 1.350 . S
C549 H536 0.929 . S
C549 C541 1.433 . S
C549 N551 1.384 . S
N550 C546 1.427 . S
N550 C547 1.384 . S
N551 C543 1.427 . S
N551 C549 1.384 . S
H552 C558 0.930 . S
H553 C562 0.930 . S
H554 C567 0.929 . S
H555 C565 0.929 . S
H556 C560 0.929 . S
H557 C566 0.929 . S
C558 H552 0.930 . S
C558 C559 1.367 . S
C558 C566 1.378 . S
C559 C558 1.367 . S
C559 C567 1.433 . S
C560 H556 0.929 . S
C560 C562 1.378 . S
C560 C564 1.350 . S
C561 C564 1.463 . S
C561 C566 1.350 . S
C561 N569 1.427 . S
C562 H553 0.930 . S
C562 C560 1.378 . S
C562 C563 1.367 . S
C563 C562 1.367 . S
C563 C565 1.433 . S
C564 C560 1.350 . S
C564 C561 1.463 . S
C564 N568 1.427 . S
C565 H555 0.929 . S
C565 C563 1.433 . S
C565 N568 1.384 . S
C566 H557 0.929 . S
C566 C558 1.378 . S
C566 C561 1.350 . S
C567 H554 0.929 . S
C567 C559 1.433 . S
C567 N569 1.384 . S
N568 C564 1.427 . S
N568 C565 1.384 . S
N569 C561 1.427 . S
N569 C567 1.384 . S
H570 C576 0.930 . S
H571 C580 0.930 . S
H572 C585 0.929 . S
H573 C583 0.929 . S
H574 C578 0.929 . S
H575 C584 0.929 . S
C576 H570 0.930 . S
C576 C577 1.367 . S
C576 C584 1.378 . S
C577 C576 1.367 . S
C577 C585 1.433 . S
C578 H574 0.929 . S
C578 C580 1.378 . S
C578 C582 1.350 . S
C579 C582 1.463 . S
C579 C584 1.350 . S
C579 N587 1.427 . S
C580 H571 0.930 . S
C580 C578 1.378 . S
C580 C581 1.367 . S
C581 C580 1.367 . S
C581 C583 1.433 . S
C582 C578 1.350 . S
C582 C579 1.463 . S
C582 N586 1.427 . S
C583 H573 0.929 . S
C583 C581 1.433 . S
C583 N586 1.384 . S
C584 H575 0.929 . S
C584 C576 1.378 . S
C584 C579 1.350 . S
C585 H572 0.929 . S
C585 C577 1.433 . S
C585 N587 1.384 . S
N586 C582 1.427 . S
N586 C583 1.384 . S
N587 C579 1.427 . S
N587 C585 1.384 . S
C163 C122 1.381 . S
C167 C5 1.385 . S
C181 C18 1.385 . S
C185 C135 1.369 . S
C199 C148 1.388 . S
C203 C31 1.374 . S
C217 C83 1.376 . S
C221 C44 1.388 . S
C235 C96 1.370 . S
C239 C57 1.386 . S
C253 C109 1.370 . S
C257 C70 1.387 . S
C271 C88 1.440 . S
C275 C10 1.449 . S
C289 C23 1.445 . S
C293 C101 1.436 . S
C307 C114 1.449 . S
C311 C36 1.442 . S
C325 C49 1.446 . S
C329 C127 1.436 . S
C343 C140 1.441 . S
C347 C62 1.437 . S
C361 C75 1.449 . S
C365 C153 1.442 . S
C379 C125 0.983 . S
C383 C8 0.987 . S
C397 C138 0.989 . S
C401 C21 0.989 . S
C415 C151 0.988 . S
C419 C34 0.989 . S
C433 C47 0.978 . S
C437 C86 0.975 . S
C451 C99 0.978 . S
C455 C60 0.975 . S
C469 C73 0.979 . S
C473 C112 0.975 . S
C487 C0 1.332 . S
C491 C104 1.335 . S
C505 C117 1.324 . S
C509 C13 1.322 . S
C523 C130 1.325 . S
C527 C26 1.322 . S
C541 C143 1.328 . S
C545 C39 1.337 . S
C559 C78 1.322 . S
C563 C52 1.334 . S
C577 C91 1.321 . S
C581 C65 1.327 . S
