# Generated by pormake.
# Topology ums, (4)-cn, num edge types: 1
# Building blocks:
#     Node 0, Type 0, BuildingBlock: CEKHIL_clean_sbu_0, # of connection points: 4
#     Node 1, Type 0, BuildingBlock: CEKHIL_clean_sbu_0, # of connection points: 4
#     Node 2, Type 0, BuildingBlock: CEKHIL_clean_sbu_0, # of connection points: 4
#     Node 3, Type 0, BuildingBlock: CEKHIL_clean_sbu_0, # of connection points: 4
#     Node 4, Type 0, BuildingBlock: CEKHIL_clean_sbu_0, # of connection points: 4
#     Node 5, Type 0, BuildingBlock: CEKHIL_clean_sbu_0, # of connection points: 4
#     Node 6, Type 0, BuildingBlock: CEKHIL_clean_sbu_0, # of connection points: 4
#     Node 7, Type 0, BuildingBlock: CEKHIL_clean_sbu_0, # of connection points: 4
#     Node 8, Type 0, BuildingBlock: CEKHIL_clean_sbu_0, # of connection points: 4
#     Node 9, Type 0, BuildingBlock: CEKHIL_clean_sbu_0, # of connection points: 4
#     Node 10, Type 0, BuildingBlock: CEKHIL_clean_sbu_0, # of connection points: 4
#     Node 11, Type 0, BuildingBlock: CEKHIL_clean_sbu_0, # of connection points: 4
#     Node 12, Type 0, BuildingBlock: CEKHIL_clean_sbu_0, # of connection points: 4
#     Node 13, Type 0, BuildingBlock: CEKHIL_clean_sbu_0, # of connection points: 4
#     Node 14, Type 0, BuildingBlock: CEKHIL_clean_sbu_0, # of connection points: 4
#     Node 15, Type 0, BuildingBlock: CEKHIL_clean_sbu_0, # of connection points: 4
#     Node 16, Type 0, BuildingBlock: CEKHIL_clean_sbu_0, # of connection points: 4
#     Node 17, Type 0, BuildingBlock: CEKHIL_clean_sbu_0, # of connection points: 4
#     Node 18, Type 0, BuildingBlock: CEKHIL_clean_sbu_0, # of connection points: 4
#     Node 19, Type 0, BuildingBlock: CEKHIL_clean_sbu_0, # of connection points: 4
#     Node 20, Type 0, BuildingBlock: CEKHIL_clean_sbu_0, # of connection points: 4
#     Node 21, Type 0, BuildingBlock: CEKHIL_clean_sbu_0, # of connection points: 4
#     Node 22, Type 0, BuildingBlock: CEKHIL_clean_sbu_0, # of connection points: 4
#     Node 23, Type 0, BuildingBlock: CEKHIL_clean_sbu_0, # of connection points: 4
#     Node 24, Type 0, BuildingBlock: CEKHIL_clean_sbu_0, # of connection points: 4
#     Node 25, Type 0, BuildingBlock: CEKHIL_clean_sbu_0, # of connection points: 4
#     Node 26, Type 0, BuildingBlock: CEKHIL_clean_sbu_0, # of connection points: 4
#     Node 27, Type 0, BuildingBlock: CEKHIL_clean_sbu_0, # of connection points: 4
#     Node 28, Type 0, BuildingBlock: CEKHIL_clean_sbu_0, # of connection points: 4
#     Node 29, Type 0, BuildingBlock: CEKHIL_clean_sbu_0, # of connection points: 4
#     Node 30, Type 0, BuildingBlock: CEKHIL_clean_sbu_0, # of connection points: 4
#     Node 31, Type 0, BuildingBlock: CEKHIL_clean_sbu_0, # of connection points: 4
#     Node 32, Type 0, BuildingBlock: CEKHIL_clean_sbu_0, # of connection points: 4
#     Node 33, Type 0, BuildingBlock: CEKHIL_clean_sbu_0, # of connection points: 4
#     Node 34, Type 0, BuildingBlock: CEKHIL_clean_sbu_0, # of connection points: 4
#     Node 35, Type 0, BuildingBlock: CEKHIL_clean_sbu_0, # of connection points: 4
#     Edge 36, Type (0, 0), BuildingBlock: TEMPAE_clean_linker_10, # of connection points: 2
#     Edge 37, Type (0, 0), BuildingBlock: TEMPAE_clean_linker_10, # of connection points: 2
#     Edge 38, Type (0, 0), BuildingBlock: TEMPAE_clean_linker_10, # of connection points: 2
#     Edge 39, Type (0, 0), BuildingBlock: TEMPAE_clean_linker_10, # of connection points: 2
#     Edge 40, Type (0, 0), BuildingBlock: TEMPAE_clean_linker_10, # of connection points: 2
#     Edge 41, Type (0, 0), BuildingBlock: TEMPAE_clean_linker_10, # of connection points: 2
#     Edge 42, Type (0, 0), BuildingBlock: TEMPAE_clean_linker_10, # of connection points: 2
#     Edge 43, Type (0, 0), BuildingBlock: TEMPAE_clean_linker_10, # of connection points: 2
#     Edge 44, Type (0, 0), BuildingBlock: TEMPAE_clean_linker_10, # of connection points: 2
#     Edge 45, Type (0, 0), BuildingBlock: TEMPAE_clean_linker_10, # of connection points: 2
#     Edge 46, Type (0, 0), BuildingBlock: TEMPAE_clean_linker_10, # of connection points: 2
#     Edge 47, Type (0, 0), BuildingBlock: TEMPAE_clean_linker_10, # of connection points: 2
#     Edge 48, Type (0, 0), BuildingBlock: TEMPAE_clean_linker_10, # of connection points: 2
#     Edge 49, Type (0, 0), BuildingBlock: TEMPAE_clean_linker_10, # of connection points: 2
#     Edge 50, Type (0, 0), BuildingBlock: TEMPAE_clean_linker_10, # of connection points: 2
#     Edge 51, Type (0, 0), BuildingBlock: TEMPAE_clean_linker_10, # of connection points: 2
#     Edge 52, Type (0, 0), BuildingBlock: TEMPAE_clean_linker_10, # of connection points: 2
#     Edge 53, Type (0, 0), BuildingBlock: TEMPAE_clean_linker_10, # of connection points: 2
#     Edge 54, Type (0, 0), BuildingBlock: TEMPAE_clean_linker_10, # of connection points: 2
#     Edge 55, Type (0, 0), BuildingBlock: TEMPAE_clean_linker_10, # of connection points: 2
#     Edge 56, Type (0, 0), BuildingBlock: TEMPAE_clean_linker_10, # of connection points: 2
#     Edge 57, Type (0, 0), BuildingBlock: TEMPAE_clean_linker_10, # of connection points: 2
#     Edge 58, Type (0, 0), BuildingBlock: TEMPAE_clean_linker_10, # of connection points: 2
#     Edge 59, Type (0, 0), BuildingBlock: TEMPAE_clean_linker_10, # of connection points: 2
#     Edge 60, Type (0, 0), BuildingBlock: TEMPAE_clean_linker_10, # of connection points: 2
#     Edge 61, Type (0, 0), BuildingBlock: TEMPAE_clean_linker_10, # of connection points: 2
#     Edge 62, Type (0, 0), BuildingBlock: TEMPAE_clean_linker_10, # of connection points: 2
#     Edge 63, Type (0, 0), BuildingBlock: TEMPAE_clean_linker_10, # of connection points: 2
#     Edge 64, Type (0, 0), BuildingBlock: TEMPAE_clean_linker_10, # of connection points: 2
#     Edge 65, Type (0, 0), BuildingBlock: TEMPAE_clean_linker_10, # of connection points: 2
#     Edge 66, Type (0, 0), BuildingBlock: TEMPAE_clean_linker_10, # of connection points: 2
#     Edge 67, Type (0, 0), BuildingBlock: TEMPAE_clean_linker_10, # of connection points: 2
#     Edge 68, Type (0, 0), BuildingBlock: TEMPAE_clean_linker_10, # of connection points: 2
#     Edge 69, Type (0, 0), BuildingBlock: TEMPAE_clean_linker_10, # of connection points: 2
#     Edge 70, Type (0, 0), BuildingBlock: TEMPAE_clean_linker_10, # of connection points: 2
#     Edge 71, Type (0, 0), BuildingBlock: TEMPAE_clean_linker_10, # of connection points: 2
#     Edge 72, Type (0, 0), BuildingBlock: TEMPAE_clean_linker_10, # of connection points: 2
#     Edge 73, Type (0, 0), BuildingBlock: TEMPAE_clean_linker_10, # of connection points: 2
#     Edge 74, Type (0, 0), BuildingBlock: TEMPAE_clean_linker_10, # of connection points: 2
#     Edge 75, Type (0, 0), BuildingBlock: TEMPAE_clean_linker_10, # of connection points: 2
#     Edge 76, Type (0, 0), BuildingBlock: TEMPAE_clean_linker_10, # of connection points: 2
#     Edge 77, Type (0, 0), BuildingBlock: TEMPAE_clean_linker_10, # of connection points: 2
#     Edge 78, Type (0, 0), BuildingBlock: TEMPAE_clean_linker_10, # of connection points: 2
#     Edge 79, Type (0, 0), BuildingBlock: TEMPAE_clean_linker_10, # of connection points: 2
#     Edge 80, Type (0, 0), BuildingBlock: TEMPAE_clean_linker_10, # of connection points: 2
#     Edge 81, Type (0, 0), BuildingBlock: TEMPAE_clean_linker_10, # of connection points: 2
#     Edge 82, Type (0, 0), BuildingBlock: TEMPAE_clean_linker_10, # of connection points: 2
#     Edge 83, Type (0, 0), BuildingBlock: TEMPAE_clean_linker_10, # of connection points: 2
#     Edge 84, Type (0, 0), BuildingBlock: TEMPAE_clean_linker_10, # of connection points: 2
#     Edge 85, Type (0, 0), BuildingBlock: TEMPAE_clean_linker_10, # of connection points: 2
#     Edge 86, Type (0, 0), BuildingBlock: TEMPAE_clean_linker_10, # of connection points: 2
#     Edge 87, Type (0, 0), BuildingBlock: TEMPAE_clean_linker_10, # of connection points: 2
#     Edge 88, Type (0, 0), BuildingBlock: TEMPAE_clean_linker_10, # of connection points: 2
#     Edge 89, Type (0, 0), BuildingBlock: TEMPAE_clean_linker_10, # of connection points: 2
#     Edge 90, Type (0, 0), BuildingBlock: TEMPAE_clean_linker_10, # of connection points: 2
#     Edge 91, Type (0, 0), BuildingBlock: TEMPAE_clean_linker_10, # of connection points: 2
#     Edge 92, Type (0, 0), BuildingBlock: TEMPAE_clean_linker_10, # of connection points: 2
#     Edge 93, Type (0, 0), BuildingBlock: TEMPAE_clean_linker_10, # of connection points: 2
#     Edge 94, Type (0, 0), BuildingBlock: TEMPAE_clean_linker_10, # of connection points: 2
#     Edge 95, Type (0, 0), BuildingBlock: TEMPAE_clean_linker_10, # of connection points: 2
#     Edge 96, Type (0, 0), BuildingBlock: TEMPAE_clean_linker_10, # of connection points: 2
#     Edge 97, Type (0, 0), BuildingBlock: TEMPAE_clean_linker_10, # of connection points: 2
#     Edge 98, Type (0, 0), BuildingBlock: TEMPAE_clean_linker_10, # of connection points: 2
#     Edge 99, Type (0, 0), BuildingBlock: TEMPAE_clean_linker_10, # of connection points: 2
#     Edge 100, Type (0, 0), BuildingBlock: TEMPAE_clean_linker_10, # of connection points: 2
#     Edge 101, Type (0, 0), BuildingBlock: TEMPAE_clean_linker_10, # of connection points: 2
#     Edge 102, Type (0, 0), BuildingBlock: TEMPAE_clean_linker_10, # of connection points: 2
#     Edge 103, Type (0, 0), BuildingBlock: TEMPAE_clean_linker_10, # of connection points: 2
#     Edge 104, Type (0, 0), BuildingBlock: TEMPAE_clean_linker_10, # of connection points: 2
#     Edge 105, Type (0, 0), BuildingBlock: TEMPAE_clean_linker_10, # of connection points: 2
#     Edge 106, Type (0, 0), BuildingBlock: TEMPAE_clean_linker_10, # of connection points: 2
#     Edge 107, Type (0, 0), BuildingBlock: TEMPAE_clean_linker_10, # of connection points: 2
# Relax obj value: 0.198
# Max RMSD: 0.149
# Mean RMSD: 0.148
data_MOF--net-ums--node1-CEKHIL_clean_sbu_0--edge1-TEMPAE_clean_linker_10
_symmetry_space_group_name_H-M    P1
_symmetry_Int_Tables_number       1
_symmetry_cell_setting            triclinic
loop_
_symmetry_equiv_pos_as_xyz
'x, y, z'
_cell_length_a     101.24002
_cell_length_b     101.26078
_cell_length_c     24.071066
_cell_angle_alpha  89.993941
_cell_angle_beta   90.016893
_cell_angle_gamma 120.00281
loop_
_atom_site_label
_atom_site_type_symbol
_atom_site_fract_x
_atom_site_fract_y
_atom_site_fract_z
_atom_type_partial_charge
Co0 Co 0.1798 0.25558 0.18791 0.0
O1 O 0.19298 0.25132 0.23264 0.0
O2 O 0.17603 0.23531 0.17217 0.0
C3 C 0.19798 0.27907 0.16018 0.0
O4 O 0.16476 0.25588 0.1326 0.0
Co5 Co 0.17442 0.28271 0.21346 0.0
O6 O 0.16378 0.27747 0.14088 0.0
C7 C 0.15978 0.25482 0.28226 0.0
C8 C 0.18677 0.23816 0.20787 0.0
C9 C 0.16006 0.26493 0.11635 0.0
O10 O 0.16385 0.24766 0.24852 0.0
O11 O 0.16396 0.26897 0.27796 0.0
O12 O 0.19646 0.26701 0.13518 0.0
O13 O 0.18944 0.27649 0.20319 0.0
Co14 Co 0.74561 0.92348 0.18119 0.0
O15 O 0.74971 0.94064 0.22738 0.0
O16 O 0.7658 0.94022 0.16604 0.0
C17 C 0.72202 0.91811 0.15439 0.0
O18 O 0.74551 0.90854 0.12436 0.0
Co19 Co 0.71862 0.89066 0.20398 0.0
O20 O 0.72384 0.88595 0.1302 0.0
C21 C 0.74673 0.9034 0.27189 0.0
C22 C 0.76286 0.94783 0.20261 0.0
C23 C 0.73647 0.89494 0.10656 0.0
O24 O 0.75367 0.91526 0.24068 0.0
O25 O 0.7327 0.89317 0.26635 0.0
O26 O 0.73401 0.92883 0.12963 0.0
O27 O 0.72471 0.91194 0.19648 0.0
Co28 Co 0.07734 0.82183 0.20246 0.0
O29 O 0.06144 0.81068 0.25609 0.0
O30 O 0.06054 0.82527 0.18937 0.0
C31 C 0.08135 0.80232 0.18192 0.0
O32 O 0.09062 0.83449 0.13775 0.0
Co33 Co 0.11042 0.82742 0.21296 0.0
O34 O 0.11249 0.83395 0.13463 0.0
C35 C 0.101 0.84665 0.2758 0.0
C36 C 0.05375 0.81593 0.23031 0.0
C37 C 0.10318 0.83756 0.11366 0.0
O38 O 0.08757 0.83996 0.25412 0.0
O39 O 0.11106 0.8428 0.26643 0.0
O40 O 0.07021 0.80316 0.15858 0.0
O41 O 0.08897 0.81261 0.21867 0.0
Co42 Co 0.26114 0.17707 0.29865 0.0
O43 O 0.25698 0.18844 0.24406 0.0
O44 O 0.24012 0.17194 0.30356 0.0
C45 C 0.28321 0.19725 0.32829 0.0
O46 O 0.26076 0.16368 0.36252 0.0
Co47 Co 0.2902 0.17404 0.2998 0.0
O48 O 0.28385 0.16631 0.3763 0.0
C49 C 0.26452 0.1551 0.22299 0.0
C50 C 0.24324 0.18186 0.26425 0.0
C51 C 0.27008 0.16128 0.39112 0.0
O52 O 0.25616 0.16024 0.24314 0.0
O53 O 0.27827 0.15975 0.23828 0.0
O54 O 0.27025 0.19496 0.34776 0.0
O55 O 0.28235 0.1878 0.29072 0.0
Co56 Co 0.82561 0.08349 0.30116 0.0
O57 O 0.81378 0.06809 0.24674 0.0
O58 O 0.82996 0.06705 0.30611 0.0
C59 C 0.8061 0.08641 0.33165 0.0
O60 O 0.8393 0.09635 0.36482 0.0
Co61 Co 0.82993 0.11616 0.30036 0.0
O62 O 0.83714 0.11714 0.37739 0.0
C63 C 0.84826 0.10829 0.22505 0.0
C64 C 0.81995 0.06051 0.26681 0.0
C65 C 0.84184 0.10819 0.39297 0.0
O66 O 0.84256 0.09477 0.24551 0.0
O67 O 0.84415 0.11787 0.23965 0.0
O68 O 0.80779 0.07529 0.3504 0.0
O69 O 0.81555 0.09464 0.29344 0.0
Co70 Co 0.91628 0.74114 0.30889 0.0
O71 O 0.93296 0.74463 0.26071 0.0
O72 O 0.93311 0.76145 0.31991 0.0
C73 C 0.91115 0.71789 0.33912 0.0
O74 O 0.90227 0.74208 0.36728 0.0
Co75 Co 0.88304 0.71409 0.29605 0.0
O76 O 0.87985 0.72023 0.37057 0.0
C77 C 0.89433 0.74144 0.22409 0.0
C78 C 0.9404 0.75807 0.28343 0.0
C79 C 0.88922 0.73338 0.38976 0.0
O80 O 0.90727 0.74839 0.24933 0.0
O81 O 0.88386 0.72779 0.23487 0.0
O82 O 0.9222 0.73017 0.36126 0.0
O83 O 0.90439 0.72004 0.29766 0.0
Co84 Co 0.82035 0.74304 0.80476 0.0
O85 O 0.8086 0.74763 0.75327 0.0
O86 O 0.82404 0.76337 0.81782 0.0
C87 C 0.80103 0.71963 0.82784 0.0
O88 O 0.83382 0.74271 0.86704 0.0
Co89 Co 0.82573 0.71547 0.79315 0.0
O90 O 0.83299 0.72016 0.87072 0.0
C91 C 0.84413 0.74373 0.72706 0.0
C92 C 0.81427 0.76072 0.77837 0.0
C93 C 0.83701 0.73327 0.89082 0.0
O94 O 0.8378 0.75064 0.75014 0.0
O95 O 0.84036 0.72986 0.73697 0.0
O96 O 0.80221 0.73172 0.85149 0.0
O97 O 0.8109 0.72213 0.78957 0.0
Co98 Co 0.25686 0.07703 0.79894 0.0
O99 O 0.25148 0.05962 0.7523 0.0
O100 O 0.23629 0.06117 0.81494 0.0
C101 C 0.27999 0.08067 0.82379 0.0
O102 O 0.25825 0.09235 0.85676 0.0
Co103 Co 0.2853 0.10903 0.77754 0.0
O104 O 0.28092 0.11394 0.85248 0.0
C105 C 0.25717 0.09842 0.71057 0.0
C106 C 0.23847 0.05306 0.77815 0.0
C107 C 0.26807 0.10554 0.87579 0.0
O108 O 0.24964 0.08634 0.7404 0.0
O109 O 0.27139 0.10797 0.71668 0.0
O110 O 0.26778 0.07056 0.84938 0.0
O111 O 0.27772 0.08738 0.78248 0.0
Co112 Co 0.92361 0.18067 0.80298 0.0
O113 O 0.9408 0.19366 0.75663 0.0
O114 O 0.94015 0.17688 0.81728 0.0
C115 C 0.9186 0.19901 0.8313 0.0
O116 O 0.90876 0.16587 0.86 0.0
Co117 Co 0.89084 0.17522 0.78266 0.0
O118 O 0.88641 0.16547 0.85676 0.0
C119 C 0.90277 0.15925 0.71384 0.0
C120 C 0.94788 0.18754 0.78116 0.0
C121 C 0.89536 0.1616 0.87917 0.0
O122 O 0.915 0.16444 0.74322 0.0
O123 O 0.89256 0.16301 0.72086 0.0
O124 O 0.92931 0.19754 0.85511 0.0
O125 O 0.91222 0.19029 0.78901 0.0
Co126 Co 0.74198 0.82454 0.68102 0.0
O127 O 0.7451 0.81218 0.73459 0.0
O128 O 0.76256 0.82835 0.67593 0.0
C129 C 0.71931 0.80555 0.6497 0.0
O130 O 0.74343 0.83868 0.61817 0.0
Co131 Co 0.71438 0.83001 0.68121 0.0
O132 O 0.72093 0.83745 0.60463 0.0
C133 C 0.74045 0.84736 0.75817 0.0
C134 C 0.75882 0.81811 0.71444 0.0
C135 C 0.73456 0.84177 0.58982 0.0
O136 O 0.74801 0.84137 0.73757 0.0
O137 O 0.72692 0.84371 0.74303 0.0
O138 O 0.73198 0.80689 0.63101 0.0
O139 O 0.72075 0.81502 0.68818 0.0
Co140 Co 0.17477 0.91674 0.69945 0.0
O141 O 0.18636 0.93228 0.75399 0.0
O142 O 0.17079 0.93333 0.69179 0.0
C143 C 0.19416 0.91319 0.67208 0.0
O144 O 0.16151 0.90407 0.63498 0.0
Co145 Co 0.16955 0.88374 0.70195 0.0
O146 O 0.16219 0.88242 0.62495 0.0
C147 C 0.1508 0.89212 0.77283 0.0
C148 C 0.1805 0.93992 0.73184 0.0
C149 C 0.15829 0.89188 0.60795 0.0
O150 O 0.15724 0.90579 0.75327 0.0
O151 O 0.15462 0.88226 0.75936 0.0
O152 O 0.19295 0.92448 0.65223 0.0
O153 O 0.18435 0.90516 0.70969 0.0
Co154 Co 0.08397 0.25861 0.68779 0.0
O155 O 0.0688 0.25583 0.74226 0.0
O156 O 0.06739 0.2379 0.68582 0.0
C157 C 0.087 0.28073 0.65342 0.0
O158 O 0.09632 0.25672 0.62456 0.0
Co159 Co 0.11685 0.28651 0.68388 0.0
O160 O 0.11722 0.27932 0.60788 0.0
C161 C 0.10896 0.26152 0.7649 0.0
C162 C 0.061 0.24191 0.7239 0.0
C163 C 0.10798 0.26553 0.5947 0.0
O164 O 0.0954 0.25346 0.74478 0.0
O165 O 0.11852 0.27499 0.74814 0.0
O166 O 0.07564 0.2678 0.63695 0.0
O167 O 0.09546 0.27993 0.69175 0.0
Co168 Co 0.84379 0.58946 0.54098 0.0
O169 O 0.85841 0.58685 0.58378 0.0
O170 O 0.8412 0.56953 0.52729 0.0
C171 C 0.86053 0.61301 0.50863 0.0
O172 O 0.82739 0.58794 0.488 0.0
Co173 Co 0.83676 0.61561 0.56524 0.0
O174 O 0.82364 0.6079 0.49858 0.0
C175 C 0.82414 0.58841 0.63759 0.0
C176 C 0.85267 0.5735 0.56069 0.0
C177 C 0.8208 0.59554 0.47455 0.0
O178 O 0.82873 0.58148 0.60479 0.0
O179 O 0.82733 0.60224 0.63123 0.0
O180 O 0.85942 0.60098 0.4848 0.0
O181 O 0.8525 0.61048 0.55303 0.0
Co182 Co 0.40941 0.2533 0.52883 0.0
O183 O 0.41279 0.26937 0.58008 0.0
O184 O 0.42986 0.27012 0.52072 0.0
C185 C 0.38644 0.24909 0.49885 0.0
O186 O 0.41057 0.23996 0.46768 0.0
Co187 Co 0.38211 0.22015 0.5333 0.0
O188 O 0.38751 0.21931 0.45494 0.0
C189 C 0.40874 0.22982 0.6084 0.0
C190 C 0.42633 0.27704 0.55829 0.0
C191 C 0.40115 0.22824 0.43936 0.0
O192 O 0.41598 0.24326 0.58673 0.0
O193 O 0.39524 0.21962 0.59418 0.0
O194 O 0.39891 0.26024 0.47823 0.0
O195 O 0.38823 0.24149 0.53818 0.0
Co196 Co 0.7486 0.15434 0.53739 0.0
O197 O 0.7323 0.1425 0.58884 0.0
O198 O 0.73228 0.15862 0.52663 0.0
C199 C 0.75214 0.13492 0.51072 0.0
O200 O 0.76238 0.168 0.47558 0.0
Co201 Co 0.7813 0.1589 0.54667 0.0
O202 O 0.78391 0.16687 0.47008 0.0
C203 C 0.77225 0.17742 0.61578 0.0
C204 C 0.72507 0.14861 0.5653 0.0
C205 C 0.77493 0.17118 0.45118 0.0
O206 O 0.75893 0.17141 0.59334 0.0
O207 O 0.78212 0.17344 0.60444 0.0
O208 O 0.7413 0.13652 0.48864 0.0
O209 O 0.75972 0.14439 0.54987 0.0
Co210 Co 0.92902 0.51223 0.6376 0.0
O211 O 0.92548 0.52471 0.5857 0.0
O212 O 0.90876 0.50898 0.64726 0.0
C213 C 0.95237 0.53083 0.66522 0.0
O214 O 0.92799 0.49812 0.69971 0.0
Co215 Co 0.95593 0.50572 0.63122 0.0
O216 O 0.94975 0.49753 0.70724 0.0
C217 C 0.92849 0.48845 0.56002 0.0
C218 C 0.9121 0.5191 0.6086 0.0
C219 C 0.93655 0.49403 0.72496 0.0
O220 O 0.92169 0.4951 0.58154 0.0
O221 O 0.94206 0.49164 0.57262 0.0
O222 O 0.94015 0.52993 0.68657 0.0
O223 O 0.9501 0.52118 0.62634 0.0
Co224 Co 0.49304 0.41516 0.63633 0.0
O225 O 0.479 0.39854 0.58952 0.0
O226 O 0.49578 0.39783 0.64663 0.0
C227 C 0.47569 0.42115 0.66899 0.0
O228 O 0.50877 0.429 0.69325 0.0
Co229 Co 0.50019 0.44871 0.62166 0.0
O230 O 0.5132 0.45307 0.68811 0.0
C231 C 0.51425 0.43601 0.54664 0.0
C232 C 0.48468 0.39073 0.61151 0.0
C233 C 0.5155 0.44293 0.70972 0.0
O234 O 0.50877 0.42349 0.57455 0.0
O235 O 0.51122 0.44661 0.55675 0.0
O236 O 0.47672 0.40995 0.69073 0.0
O237 O 0.48431 0.42758 0.62656 0.0
Co238 Co 0.58758 0.0768 0.63983 0.0
O239 O 0.60406 0.08049 0.59035 0.0
O240 O 0.60456 0.09696 0.65205 0.0
C241 C 0.58248 0.05332 0.66698 0.0
O242 O 0.57377 0.07744 0.69978 0.0
Co243 Co 0.55427 0.04998 0.62687 0.0
O244 O 0.55128 0.05567 0.70243 0.0
C245 C 0.56541 0.07798 0.5584 0.0
C246 C 0.61168 0.09373 0.61437 0.0
C247 C 0.56074 0.06868 0.72232 0.0
O248 O 0.57853 0.08457 0.58247 0.0
O249 O 0.55487 0.06432 0.56858 0.0
O250 O 0.59359 0.06543 0.68979 0.0
O251 O 0.57558 0.05577 0.62674 0.0
Co252 Co 0.49169 0.0781 0.13784 0.0
O253 O 0.47943 0.08165 0.08537 0.0
O254 O 0.49478 0.09832 0.14788 0.0
C255 C 0.47298 0.05472 0.16425 0.0
O256 O 0.50556 0.07875 0.20047 0.0
Co257 Co 0.49794 0.05099 0.12914 0.0
O258 O 0.50516 0.05644 0.20648 0.0
C259 C 0.51556 0.07882 0.06028 0.0
C260 C 0.48481 0.09495 0.10853 0.0
C261 C 0.50896 0.0696 0.22541 0.0
O262 O 0.50898 0.08561 0.08255 0.0
O263 O 0.51219 0.06514 0.07161 0.0
O264 O 0.47383 0.06687 0.18596 0.0
O265 O 0.48271 0.0571 0.12553 0.0
Co266 Co 0.9241 0.41332 0.13454 0.0
O267 O 0.91932 0.39689 0.08336 0.0
O268 O 0.90385 0.39665 0.14889 0.0
C269 C 0.94767 0.41758 0.15609 0.0
O270 O 0.92476 0.42726 0.1969 0.0
Co271 Co 0.95164 0.44628 0.12068 0.0
O272 O 0.94723 0.44909 0.19835 0.0
C273 C 0.923 0.43619 0.05673 0.0
C274 C 0.90636 0.38946 0.10931 0.0
C275 C 0.9343 0.44001 0.21973 0.0
O276 O 0.91618 0.42302 0.08044 0.0
O277 O 0.93694 0.4463 0.06546 0.0
O278 O 0.93573 0.4067 0.18057 0.0
O279 O 0.94493 0.42479 0.11791 0.0
Co280 Co 0.58826 0.51558 0.13882 0.0
O281 O 0.60543 0.52888 0.09269 0.0
O282 O 0.60421 0.51057 0.14651 0.0
C283 C 0.5849 0.53444 0.17384 0.0
O284 O 0.57345 0.50003 0.19441 0.0
Co285 Co 0.55605 0.51236 0.1309 0.0
O286 O 0.55201 0.50126 0.20214 0.0
C287 C 0.56678 0.4986 0.04525 0.0
C288 C 0.61214 0.52183 0.11282 0.0
C289 C 0.56062 0.49617 0.218 0.0
O290 O 0.57838 0.50086 0.07475 0.0
O291 O 0.5578 0.50353 0.05907 0.0
O292 O 0.59511 0.53177 0.19549 0.0
O293 O 0.57775 0.52621 0.1316 0.0
Co294 Co 0.40717 0.15439 0.02387 0.0
O295 O 0.41063 0.1406 0.06843 0.0
O296 O 0.4279 0.15885 0.0148 0.0
C297 C 0.38468 0.13656 0.98751 0.0
O298 O 0.40802 0.17029 0.97009 0.0
Co299 Co 0.37923 0.15891 0.04195 0.0
O300 O 0.38624 0.17106 0.97257 0.0
C301 C 0.40441 0.17096 0.12285 0.0
C302 C 0.42439 0.1475 0.04831 0.0
C303 C 0.39933 0.17521 0.95185 0.0
O304 O 0.41305 0.16908 0.08834 0.0
O305 O 0.39022 0.16604 0.11445 0.0
O306 O 0.3974 0.13863 0.96644 0.0
O307 O 0.38597 0.14429 0.03172 0.0
Co308 Co 0.84539 0.25238 0.03636 0.0
O309 O 0.85766 0.26905 0.08594 0.0
O310 O 0.84094 0.2686 0.0255 0.0
C311 C 0.86452 0.24863 0.00728 0.0
O312 O 0.83122 0.23814 0.97652 0.0
Co313 Co 0.84104 0.21979 0.04864 0.0
O314 O 0.83217 0.21648 0.97329 0.0
C315 C 0.82313 0.22935 0.11861 0.0
C316 C 0.85128 0.27608 0.06292 0.0
C317 C 0.82777 0.22533 0.95369 0.0
O318 O 0.82882 0.24242 0.09443 0.0
O319 O 0.8271 0.21943 0.10797 0.0
O320 O 0.86273 0.25937 0.98537 0.0
O321 O 0.85553 0.24139 0.04805 0.0
Co322 Co 0.74933 0.59485 0.03958 0.0
O323 O 0.73285 0.59142 0.08871 0.0
O324 O 0.73333 0.57384 0.03546 0.0
C325 C 0.75208 0.61665 0.00258 0.0
O326 O 0.76337 0.59364 0.98168 0.0
Co327 Co 0.78154 0.62396 0.04117 0.0
O328 O 0.78434 0.61646 0.96875 0.0
C329 C 0.77282 0.59964 0.12659 0.0
C330 C 0.72585 0.5775 0.0701 0.0
C331 C 0.77571 0.60256 0.95522 0.0
O332 O 0.76017 0.59053 0.10166 0.0
O333 O 0.78175 0.61339 0.11081 0.0
O334 O 0.74157 0.60351 0.9838 0.0
O335 O 0.75986 0.61611 0.04387 0.0
Co336 Co 0.51285 0.92464 0.85782 0.0
O337 O 0.52562 0.92069 0.90647 0.0
O338 O 0.5093 0.90431 0.8454 0.0
C339 C 0.53139 0.94801 0.83015 0.0
O340 O 0.49832 0.92438 0.79862 0.0
Co341 Co 0.50722 0.95203 0.87262 0.0
O342 O 0.49882 0.9468 0.79653 0.0
C343 C 0.4902 0.9241 0.94133 0.0
C344 C 0.51975 0.90742 0.88263 0.0
C345 C 0.4947 0.93368 0.77625 0.0
O346 O 0.49625 0.91719 0.91618 0.0
O347 O 0.49367 0.93789 0.93159 0.0
O348 O 0.5301 0.93582 0.80698 0.0
O349 O 0.52226 0.94565 0.87103 0.0
Co350 Co 0.08075 0.59038 0.86163 0.0
O351 O 0.08364 0.60667 0.9108 0.0
O352 O 0.10091 0.60761 0.85198 0.0
C353 C 0.05742 0.58502 0.83114 0.0
O354 O 0.08229 0.57683 0.80253 0.0
Co355 Co 0.05398 0.55687 0.87074 0.0
O356 O 0.05989 0.55503 0.79409 0.0
C357 C 0.08111 0.56812 0.94457 0.0
C358 C 0.0971 0.61452 0.88861 0.0
C359 C 0.07327 0.56437 0.7771 0.0
O360 O 0.08797 0.58133 0.9211 0.0
O361 O 0.06765 0.55753 0.93185 0.0
O362 O 0.06965 0.59624 0.80941 0.0
O363 O 0.05966 0.57813 0.87188 0.0
Co364 Co 0.41213 0.48701 0.86033 0.0
O365 O 0.39482 0.47318 0.90495 0.0
O366 O 0.39506 0.4899 0.84515 0.0
C367 C 0.4185 0.4696 0.83184 0.0
O368 O 0.42687 0.50254 0.80483 0.0
Co369 Co 0.4454 0.49402 0.88188 0.0
O370 O 0.44978 0.50415 0.80844 0.0
C371 C 0.43185 0.50828 0.9518 0.0
C372 C 0.38742 0.47894 0.88024 0.0
C373 C 0.44045 0.50754 0.78614 0.0
O374 O 0.41976 0.50291 0.92141 0.0
O375 O 0.44251 0.50516 0.94485 0.0
O376 O 0.40758 0.47056 0.80719 0.0
O377 O 0.4243 0.47825 0.87466 0.0
Co378 Co 0.59369 0.84409 0.96344 0.0
O379 O 0.58971 0.85636 0.91224 0.0
O380 O 0.57318 0.84026 0.97343 0.0
C381 C 0.61677 0.86311 0.99139 0.0
O382 O 0.59332 0.83007 0.02495 0.0
Co383 Co 0.6215 0.83894 0.95452 0.0
O384 O 0.61579 0.83079 0.03075 0.0
C385 C 0.59412 0.82119 0.88361 0.0
C386 C 0.57631 0.85046 0.93519 0.0
C387 C 0.60251 0.82665 0.04942 0.0
O388 O 0.58685 0.82718 0.90655 0.0
O389 O 0.6079 0.82495 0.89531 0.0
O390 O 0.60438 0.86172 0.01309 0.0
O391 O 0.61478 0.85372 0.95188 0.0
Co392 Co 0.15447 0.75141 0.96556 0.0
O393 O 0.14118 0.73424 0.91959 0.0
O394 O 0.16021 0.73596 0.97051 0.0
C395 C 0.13562 0.75405 0.00479 0.0
O396 O 0.17016 0.76639 0.02024 0.0
Co397 Co 0.15662 0.78315 0.95871 0.0
O398 O 0.16844 0.78756 0.02846 0.0
C399 C 0.1704 0.77314 0.87117 0.0
C400 C 0.14878 0.72788 0.93762 0.0
C401 C 0.17391 0.77921 0.04365 0.0
O402 O 0.16862 0.7617 0.90049 0.0
O403 O 0.16516 0.78182 0.88557 0.0
O404 O 0.1388 0.74396 0.02407 0.0
O405 O 0.14321 0.76137 0.96154 0.0
Co406 Co 0.24971 0.40516 0.95159 0.0
O407 O 0.26596 0.40873 0.90093 0.0
O408 O 0.26622 0.42587 0.95868 0.0
C409 C 0.24611 0.38261 0.98385 0.0
O410 O 0.23606 0.40607 0.01201 0.0
Co411 Co 0.21694 0.37705 0.94732 0.0
O412 O 0.21601 0.38265 0.02541 0.0
C413 C 0.22586 0.40328 0.87082 0.0
C414 C 0.27337 0.42237 0.92196 0.0
C415 C 0.22453 0.39641 0.04067 0.0
O416 O 0.23927 0.41097 0.89248 0.0
O417 O 0.21595 0.38973 0.88562 0.0
O418 O 0.25703 0.39535 0.00382 0.0
O419 O 0.23847 0.38394 0.94359 0.0
Co420 Co 0.15134 0.40597 0.45392 0.0
O421 O 0.13893 0.41091 0.40774 0.0
O422 O 0.15694 0.427 0.46506 0.0
C423 C 0.13184 0.38372 0.48529 0.0
O424 O 0.16599 0.40516 0.50985 0.0
Co425 Co 0.15354 0.3767 0.43633 0.0
O426 O 0.16461 0.38234 0.50827 0.0
C427 C 0.16863 0.40268 0.35857 0.0
C428 C 0.14618 0.42442 0.42979 0.0
C429 C 0.16959 0.39555 0.52929 0.0
O430 O 0.16667 0.4115 0.39189 0.0
O431 O 0.16292 0.38834 0.36632 0.0
O432 O 0.13481 0.39649 0.50869 0.0
O433 O 0.14004 0.38494 0.44264 0.0
Co434 Co 0.59181 0.74555 0.46303 0.0
O435 O 0.58663 0.72874 0.41318 0.0
O436 O 0.57122 0.72952 0.47672 0.0
C437 C 0.61489 0.74888 0.48712 0.0
O438 O 0.59271 0.75994 0.52387 0.0
Co439 Co 0.62022 0.77793 0.44983 0.0
O440 O 0.61546 0.7814 0.52627 0.0
C441 C 0.59222 0.76876 0.38289 0.0
C442 C 0.57352 0.72186 0.4384 0.0
C443 C 0.6023 0.77266 0.54667 0.0
O444 O 0.58483 0.75565 0.40687 0.0
O445 O 0.60622 0.7785 0.39261 0.0
O446 O 0.60261 0.73844 0.51139 0.0
O447 O 0.61276 0.75626 0.44786 0.0
Co448 Co 0.25454 0.84687 0.46236 0.0
O449 O 0.27122 0.86059 0.41523 0.0
O450 O 0.27155 0.84363 0.47247 0.0
C451 C 0.24896 0.86449 0.49507 0.0
O452 O 0.24051 0.83137 0.51945 0.0
Co453 Co 0.22119 0.84041 0.44737 0.0
O454 O 0.21667 0.82765 0.51456 0.0
C455 C 0.23335 0.82566 0.37332 0.0
C456 C 0.27877 0.85458 0.4369 0.0
C457 C 0.22662 0.82505 0.53619 0.0
O458 O 0.24591 0.83109 0.40092 0.0
O459 O 0.22289 0.82891 0.38326 0.0
O460 O 0.26009 0.86329 0.51664 0.0
O461 O 0.24245 0.85594 0.45255 0.0
Co462 Co 0.07495 0.49023 0.35618 0.0
O463 O 0.07797 0.47628 0.40139 0.0
O464 O 0.09565 0.4945 0.34873 0.0
C465 C 0.05252 0.47245 0.31906 0.0
O466 O 0.07636 0.50632 0.30212 0.0
Co467 Co 0.04708 0.49507 0.36985 0.0
O468 O 0.05456 0.50706 0.30032 0.0
C469 C 0.07158 0.50657 0.45411 0.0
C470 C 0.09184 0.4831 0.3823 0.0
C471 C 0.06789 0.51126 0.28186 0.0
O472 O 0.08051 0.50476 0.42088 0.0
O473 O 0.05753 0.50187 0.44349 0.0
O474 O 0.06529 0.47453 0.29837 0.0
O475 O 0.05376 0.48031 0.36278 0.0
Co476 Co 0.50855 0.58504 0.36371 0.0
O477 O 0.52032 0.60097 0.41663 0.0
O478 O 0.50453 0.60158 0.35439 0.0
C479 C 0.52813 0.58164 0.33788 0.0
O480 O 0.49498 0.57176 0.30046 0.0
Co481 Co 0.50365 0.55221 0.36833 0.0
O482 O 0.49668 0.55063 0.29069 0.0
C483 C 0.48543 0.56102 0.4406 0.0
C484 C 0.51448 0.6085 0.39354 0.0
C485 C 0.49223 0.55966 0.27363 0.0
O486 O 0.49134 0.57442 0.41891 0.0
O487 O 0.48939 0.55122 0.42768 0.0
O488 O 0.52666 0.59259 0.31618 0.0
O489 O 0.51828 0.57367 0.37545 0.0
Co490 Co 0.4164 0.92653 0.35718 0.0
O491 O 0.40002 0.92307 0.40674 0.0
O492 O 0.39939 0.90627 0.34633 0.0
C493 C 0.42123 0.9498 0.32855 0.0
O494 O 0.43022 0.92572 0.29738 0.0
Co495 Co 0.44963 0.95367 0.36866 0.0
O496 O 0.45237 0.94784 0.29301 0.0
C497 C 0.43878 0.92611 0.43958 0.0
C498 C 0.39234 0.90973 0.3836 0.0
C499 C 0.44309 0.93465 0.274 0.0
O500 O 0.42566 0.91922 0.41545 0.0
O501 O 0.44919 0.93977 0.42847 0.0
O502 O 0.41019 0.93755 0.30624 0.0
O503 O 0.42826 0.9476 0.36897 0.0
C504 C 0.23628 0.19811 0.20745 0.0
C505 C 0.23228 0.18679 0.24796 0.0
C506 C 0.22721 0.20476 0.19804 0.0
C507 C 0.21383 0.19998 0.23001 0.0
C508 C 0.20921 0.18787 0.26838 0.0
C509 C 0.2185 0.1814 0.27688 0.0
C510 C 0.23246 0.21756 0.15633 0.0
C511 C 0.19497 0.18239 0.30296 0.0
C512 C 0.2039 0.23086 0.25668 0.0
C513 C 0.19248 0.22745 0.21711 0.0
C514 C 0.21057 0.2217 0.26239 0.0
C515 C 0.20573 0.20881 0.22759 0.0
C516 C 0.19381 0.20497 0.18892 0.0
C517 C 0.18731 0.21435 0.18414 0.0
C518 C 0.22318 0.22613 0.30445 0.0
C519 C 0.18833 0.19129 0.15129 0.0
H520 H 0.24686 0.20226 0.18466 0.0
H521 H 0.21529 0.1726 0.30811 0.0
H522 H 0.22296 0.21557 0.12817 0.0
H523 H 0.23608 0.22846 0.17847 0.0
H524 H 0.24218 0.21884 0.13087 0.0
H525 H 0.1919 0.17163 0.32536 0.0
H526 H 0.1968 0.19124 0.33405 0.0
H527 H 0.18521 0.18052 0.27654 0.0
H528 H 0.2079 0.24092 0.28247 0.0
H529 H 0.17847 0.21164 0.15347 0.0
H530 H 0.23398 0.22908 0.28274 0.0
H531 H 0.22046 0.21638 0.33239 0.0
H532 H 0.22508 0.23603 0.33019 0.0
H533 H 0.19754 0.19314 0.12189 0.0
H534 H 0.1781 0.1891 0.12695 0.0
H535 H 0.18554 0.18096 0.17593 0.0
C536 C 0.80316 0.03757 0.20961 0.0
C537 C 0.81458 0.04457 0.25 0.0
C538 C 0.79627 0.02187 0.19918 0.0
C539 C 0.80091 0.01297 0.22997 0.0
C540 C 0.81306 0.02013 0.26844 0.0
C541 C 0.81976 0.03587 0.27799 0.0
C542 C 0.78343 0.01468 0.15746 0.0
C543 C 0.81839 0.01104 0.3018 0.0
C544 C 0.76999 0.97196 0.25338 0.0
C545 C 0.77347 0.96423 0.21288 0.0
C546 C 0.77911 0.98777 0.26033 0.0
C547 C 0.79202 0.99606 0.22585 0.0
C548 C 0.79589 0.98827 0.18607 0.0
C549 C 0.78656 0.97241 0.18008 0.0
C550 C 0.77464 0.99565 0.30349 0.0
C551 C 0.80958 0.99673 0.14865 0.0
H552 H 0.79916 0.04424 0.18756 0.0
H553 H 0.82863 0.04121 0.30913 0.0
H554 H 0.78535 0.00735 0.12817 0.0
H555 H 0.77253 0.00728 0.17941 0.0
H556 H 0.78219 0.02334 0.1332 0.0
H557 H 0.82907 0.01849 0.32501 0.0
H558 H 0.80942 0.00373 0.33206 0.0
H559 H 0.82033 0.00339 0.2743 0.0
H560 H 0.75992 0.9657 0.279 0.0
H561 H 0.78931 0.9665 0.14866 0.0
H562 H 0.77174 0.00367 0.28283 0.0
H563 H 0.78436 0.00246 0.33185 0.0
H564 H 0.7647 0.98747 0.32868 0.0
H565 H 0.80779 0.0044 0.12063 0.0
H566 H 0.8117 0.98889 0.12284 0.0
H567 H 0.81993 0.004 0.17367 0.0
C568 C 0.96476 0.78242 0.30064 0.0
C569 C 0.95677 0.76853 0.272 0.0
C570 C 0.98062 0.7917 0.29478 0.0
C571 C 0.98863 0.78697 0.25944 0.0
C572 C 0.98054 0.77324 0.22887 0.0
C573 C 0.9647 0.76418 0.23552 0.0
C574 C 0.98884 0.80629 0.32787 0.0
C575 C 0.98869 0.76785 0.19055 0.0
C576 C 0.02879 0.81429 0.20897 0.0
C577 C 0.03747 0.81021 0.24284 0.0
C578 C 0.01291 0.80724 0.21527 0.0
C579 C 0.00557 0.79589 0.25646 0.0
C580 C 0.01437 0.79231 0.29262 0.0
C581 C 0.03022 0.79951 0.28534 0.0
C582 C 0.00392 0.81143 0.17615 0.0
C583 C 0.00697 0.78036 0.3374 0.0
H584 H 0.9587 0.78586 0.32888 0.0
H585 H 0.95859 0.75348 0.21321 0.0
H586 H 0.99646 0.80534 0.35879 0.0
H587 H 0.99614 0.816 0.30019 0.0
H588 H 0.98084 0.80893 0.35023 0.0
H589 H 0.98066 0.75733 0.1676 0.0
H590 H 0.99567 0.77688 0.15999 0.0
H591 H 0.99659 0.7655 0.21496 0.0
H592 H 0.03433 0.82257 0.17608 0.0
H593 H 0.03686 0.79635 0.31181 0.0
H594 H 0.99604 0.81396 0.19979 0.0
H595 H 0.99684 0.80163 0.14845 0.0
H596 H 0.01142 0.82146 0.14999 0.0
H597 H 0.99942 0.7828 0.36354 0.0
H598 H 0.01549 0.77972 0.36464 0.0
H599 H 0.99974 0.76902 0.31802 0.0
C600 C 0.81298 0.78418 0.80044 0.0
C601 C 0.80871 0.77143 0.76636 0.0
C602 C 0.80632 0.79336 0.79388 0.0
C603 C 0.79518 0.78972 0.75211 0.0
C604 C 0.79133 0.77726 0.71603 0.0
C605 C 0.79812 0.76824 0.72366 0.0
C606 C 0.81074 0.80657 0.83305 0.0
C607 C 0.77959 0.77309 0.67062 0.0
C608 C 0.76426 0.80018 0.76768 0.0
C609 C 0.76912 0.8123 0.73006 0.0
C610 C 0.77297 0.79312 0.77694 0.0
C611 C 0.78687 0.79832 0.74786 0.0
C612 C 0.7922 0.81103 0.71195 0.0
C613 C 0.78326 0.81788 0.70347 0.0
C614 C 0.76695 0.77965 0.8159 0.0
C615 C 0.807 0.81696 0.68048 0.0
H616 H 0.82117 0.78671 0.83356 0.0
H617 H 0.79481 0.75844 0.69704 0.0
H618 H 0.81386 0.81713 0.80936 0.0
H619 H 0.80087 0.80421 0.85974 0.0
H620 H 0.82047 0.80866 0.86023 0.0
H621 H 0.77856 0.76365 0.64403 0.0
H622 H 0.76829 0.76955 0.68933 0.0
H623 H 0.78261 0.78314 0.64393 0.0
H624 H 0.75337 0.79583 0.78848 0.0
H625 H 0.78711 0.82728 0.67443 0.0
H626 H 0.77578 0.78135 0.84685 0.0
H627 H 0.76413 0.76919 0.79202 0.0
H628 H 0.75655 0.77774 0.83837 0.0
H629 H 0.81637 0.81885 0.70916 0.0
H630 H 0.81026 0.82779 0.65839 0.0
H631 H 0.80588 0.80835 0.64947 0.0
C632 C 0.21463 0.02905 0.80484 0.0
C633 C 0.22738 0.03668 0.76994 0.0
C634 C 0.20513 0.01315 0.80183 0.0
C635 C 0.20847 0.00473 0.76302 0.0
C636 C 0.22095 0.01246 0.72618 0.0
C637 C 0.23024 0.02833 0.73011 0.0
C638 C 0.19188 0.00531 0.84155 0.0
C639 C 0.22483 0.00391 0.68386 0.0
C640 C 0.19765 0.96349 0.78575 0.0
C641 C 0.18588 0.95599 0.74695 0.0
C642 C 0.20453 0.9793 0.79381 0.0
C643 C 0.19952 0.98778 0.76226 0.0
C644 C 0.18698 0.98011 0.72571 0.0
C645 C 0.18031 0.9643 0.71847 0.0
C646 C 0.21778 0.98704 0.83362 0.0
C647 C 0.18122 0.98872 0.6917 0.0
H648 H 0.21236 0.03544 0.83577 0.0
H649 H 0.24002 0.03414 0.70288 0.0
H650 H 0.18128 0.99751 0.81869 0.0
H651 H 0.1941 0.99826 0.87127 0.0
H652 H 0.18995 0.01357 0.86552 0.0
H653 H 0.23445 0.01168 0.65656 0.0
H654 H 0.22797 0.99618 0.70544 0.0
H655 H 0.21475 0.99672 0.65747 0.0
H656 H 0.20195 0.95713 0.80815 0.0
H657 H 0.17114 0.95856 0.68865 0.0
H658 H 0.21617 0.99477 0.86187 0.0
H659 H 0.22845 0.99412 0.8099 0.0
H660 H 0.21927 0.97872 0.85907 0.0
H661 H 0.17968 0.99681 0.71823 0.0
H662 H 0.17022 0.98096 0.67084 0.0
H663 H 0.18975 0.99553 0.65939 0.0
C664 C 0.03791 0.23668 0.77867 0.0
C665 C 0.04493 0.23174 0.74027 0.0
C666 C 0.02212 0.22821 0.78798 0.0
C667 C 0.01316 0.21453 0.75799 0.0
C668 C 0.0203 0.20907 0.72145 0.0
C669 C 0.03612 0.21773 0.71312 0.0
C670 C 0.01494 0.23431 0.82781 0.0
C671 C 0.01114 0.19453 0.68883 0.0
C672 C 0.97237 0.18858 0.80618 0.0
C673 C 0.96432 0.19333 0.77187 0.0
C674 C 0.98826 0.19516 0.80153 0.0
C675 C 0.99623 0.20667 0.76139 0.0
C676 C 0.98808 0.21112 0.72539 0.0
C677 C 0.97223 0.20442 0.73119 0.0
C678 C 0.99657 0.19015 0.84068 0.0
C679 C 0.99616 0.22325 0.68165 0.0
H680 H 0.04465 0.24745 0.79996 0.0
H681 H 0.04147 0.21382 0.68345 0.0
H682 H 0.00775 0.23781 0.80434 0.0
H683 H 0.00739 0.22531 0.85754 0.0
H684 H 0.0236 0.2443 0.85164 0.0
H685 H 0.01853 0.19106 0.66652 0.0
H686 H 0.00336 0.1851 0.71671 0.0
H687 H 0.00395 0.19614 0.65786 0.0
H688 H 0.96633 0.18004 0.83784 0.0
H689 H 0.96607 0.20811 0.70444 0.0
H690 H 0.00429 0.19982 0.86785 0.0
H691 H 0.00378 0.18674 0.81693 0.0
H692 H 0.98863 0.18045 0.86736 0.0
H693 H 0.00413 0.23426 0.70186 0.0
H694 H 0.98809 0.22492 0.65537 0.0
H695 H 0.00304 0.22017 0.65442 0.0
C696 C 0.8553 0.55095 0.53533 0.0
C697 C 0.85967 0.56384 0.56874 0.0
C698 C 0.86286 0.54252 0.5391 0.0
C699 C 0.87497 0.54704 0.57746 0.0
C700 C 0.87912 0.55978 0.61236 0.0
C701 C 0.87146 0.56806 0.60744 0.0
C702 C 0.85814 0.52902 0.50113 0.0
C703 C 0.89188 0.56487 0.65421 0.0
C704 C 0.88804 0.51969 0.62513 0.0
C705 C 0.90169 0.52498 0.5954 0.0
C706 C 0.87894 0.52642 0.61829 0.0
C707 C 0.88356 0.53868 0.58065 0.0
C708 C 0.89697 0.54362 0.54866 0.0
C709 C 0.9059 0.53671 0.5565 0.0
C710 C 0.86472 0.52083 0.65315 0.0
C711 C 0.90221 0.55659 0.50776 0.0
H712 H 0.84624 0.54766 0.50516 0.0
H713 H 0.87487 0.57798 0.63346 0.0
H714 H 0.86777 0.53116 0.47343 0.0
H715 H 0.85529 0.51868 0.52585 0.0
H716 H 0.84814 0.52665 0.47502 0.0
H717 H 0.89336 0.5747 0.6795 0.0
H718 H 0.8896 0.55533 0.68258 0.0
H719 H 0.90276 0.5682 0.63245 0.0
H720 H 0.88469 0.5106 0.65523 0.0
H721 H 0.91641 0.54083 0.53329 0.0
H722 H 0.85479 0.51826 0.62644 0.0
H723 H 0.86622 0.52991 0.6826 0.0
H724 H 0.86208 0.51045 0.67734 0.0
H725 H 0.89282 0.55446 0.47881 0.0
H726 H 0.91221 0.55827 0.4831 0.0
H727 H 0.90537 0.56732 0.53038 0.0
C728 C 0.43233 0.30083 0.60995 0.0
C729 C 0.43662 0.29336 0.5711 0.0
C730 C 0.44109 0.31668 0.61748 0.0
C731 C 0.45441 0.32525 0.5852 0.0
C732 C 0.4591 0.3177 0.5474 0.0
C733 C 0.45017 0.30183 0.54091 0.0
C734 C 0.43579 0.32431 0.65864 0.0
C735 C 0.47323 0.32644 0.51225 0.0
C736 C 0.46627 0.36682 0.56175 0.0
C737 C 0.47794 0.37419 0.60102 0.0
C738 C 0.45878 0.35092 0.55523 0.0
C739 C 0.46299 0.34219 0.58912 0.0
C740 C 0.47503 0.3496 0.62782 0.0
C741 C 0.48241 0.36553 0.63315 0.0
C742 C 0.4461 0.34344 0.51303 0.0
C743 C 0.47981 0.34067 0.66479 0.0
H744 H 0.42189 0.29435 0.63347 0.0
H745 H 0.45357 0.29615 0.51076 0.0
H746 H 0.44514 0.33147 0.68788 0.0
H747 H 0.43269 0.33196 0.63631 0.0
H748 H 0.42574 0.31593 0.68297 0.0
H749 H 0.47585 0.31879 0.48741 0.0
H750 H 0.47166 0.33409 0.48339 0.0
H751 H 0.48321 0.33375 0.53886 0.0
H752 H 0.46278 0.37345 0.53672 0.0
H753 H 0.49139 0.37114 0.66374 0.0
H754 H 0.43517 0.33585 0.53447 0.0
H755 H 0.44839 0.33624 0.48436 0.0
H756 H 0.44471 0.3519 0.48811 0.0
H757 H 0.47022 0.3331 0.6925 0.0
H758 H 0.48985 0.34819 0.69089 0.0
H759 H 0.48261 0.33326 0.63935 0.0
C760 C 0.70106 0.13174 0.61722 0.0
C761 C 0.70885 0.14321 0.5776 0.0
C762 C 0.68523 0.12503 0.62396 0.0
C763 C 0.67701 0.12988 0.59017 0.0
C764 C 0.68491 0.14196 0.55199 0.0
C765 C 0.70075 0.1485 0.54619 0.0
C766 C 0.67723 0.11226 0.66552 0.0
C767 C 0.67654 0.14749 0.51545 0.0
C768 C 0.63572 0.09992 0.56447 0.0
C769 C 0.6281 0.10399 0.60342 0.0
C770 C 0.65161 0.10857 0.55846 0.0
C771 C 0.66007 0.12159 0.59232 0.0
C772 C 0.65238 0.12612 0.63011 0.0
C773 C 0.63647 0.11727 0.63517 0.0
C774 C 0.6594 0.10344 0.51735 0.0
C775 C 0.66101 0.13995 0.66678 0.0
H776 H 0.70726 0.12764 0.64178 0.0
H777 H 0.7067 0.15739 0.51554 0.0
H778 H 0.66992 0.11462 0.69339 0.0
H779 H 0.66966 0.10145 0.64333 0.0
H780 H 0.68537 0.11059 0.69134 0.0
H781 H 0.68446 0.15788 0.49165 0.0
H782 H 0.66923 0.1384 0.48556 0.0
H783 H 0.66892 0.15003 0.54081 0.0
H784 H 0.62932 0.0897 0.5397 0.0
H785 H 0.63065 0.12049 0.66537 0.0
H786 H 0.66682 0.10007 0.53987 0.0
H787 H 0.66683 0.11297 0.48915 0.0
H788 H 0.65113 0.09362 0.49186 0.0
H789 H 0.66817 0.13793 0.69659 0.0
H790 H 0.65327 0.14265 0.69065 0.0
H791 H 0.66879 0.15004 0.64147 0.0
C792 C 0.48237 0.11792 0.12757 0.0
C793 C 0.47867 0.10509 0.09469 0.0
C794 C 0.47498 0.12638 0.11986 0.0
C795 C 0.46369 0.12193 0.07811 0.0
C796 C 0.46051 0.10949 0.04288 0.0
C797 C 0.46801 0.10119 0.0517 0.0
C798 C 0.47869 0.13959 0.15818 0.0
C799 C 0.44866 0.10449 -0.0025 0.0
C800 C 0.43105 0.12978 0.09646 0.0
C801 C 0.43515 0.14198 0.05984 0.0
C802 C 0.44048 0.12346 0.10397 0.0
C803 C 0.45433 0.12945 0.07396 0.0
C804 C 0.45878 0.14209 0.03824 0.0
C805 C 0.44913 0.14823 0.03166 0.0
C806 C 0.43539 0.11005 0.14277 0.0
C807 C 0.47346 0.14878 0.00558 0.0
H808 H 0.49061 0.121 0.16087 0.0
H809 H 0.46516 0.09134 0.02593 0.0
H810 H 0.48096 0.14983 0.1339 0.0
H811 H 0.46876 0.13667 0.1854 0.0
H812 H 0.48874 0.14251 0.18486 0.0
H813 H 0.44845 0.09543 0.97081 0.0
H814 H 0.4372 0.10005 0.01629 0.0
H815 H 0.45085 0.11433 0.97091 0.0
H816 H 0.42028 0.12493 0.11849 0.0
H817 H 0.45237 0.15766 0.00324 0.0
H818 H 0.44443 0.11246 0.1738 0.0
H819 H 0.43344 0.09986 0.11885 0.0
H820 H 0.42471 0.10726 0.16517 0.0
H821 H 0.4832 0.1516 0.03369 0.0
H822 H 0.47578 0.15923 0.98258 0.0
H823 H 0.47287 0.14024 0.97527 0.0
C824 C 0.85085 0.30017 0.04421 0.0
C825 C 0.85662 0.29233 0.07462 0.0
C826 C 0.85723 0.31601 0.0496 0.0
C827 C 0.86964 0.32418 0.08626 0.0
C828 C 0.87501 0.31621 0.11902 0.0
C829 C 0.86844 0.30038 0.11279 0.0
C830 C 0.85113 0.32409 0.01424 0.0
C831 C 0.88817 0.3245 0.15889 0.0
C832 C 0.89928 0.36541 0.05787 0.0
C833 C 0.89573 0.3731 0.09831 0.0
C834 C 0.89048 0.34952 0.05206 0.0
C835 C 0.87782 0.34113 0.08755 0.0
C836 C 0.87372 0.34891 0.12659 0.0
C837 C 0.88274 0.36482 0.13153 0.0
C838 C 0.89517 0.34166 0.00962 0.0
C839 C 0.86024 0.34037 0.16486 0.0
H840 H 0.84169 0.29401 0.0147 0.0
H841 H 0.87291 0.29439 0.13659 0.0
H842 H 0.84883 0.33178 0.04014 0.0
H843 H 0.85981 0.33127 0.9829 0.0
H844 H 0.84048 0.31598 0.99214 0.0
H845 H 0.89028 0.31654 0.18408 0.0
H846 H 0.8987 0.33212 0.13533 0.0
H847 H 0.88594 0.33177 0.18743 0.0
H848 H 0.90926 0.37173 0.03191 0.0
H849 H 0.8799 0.3707 0.16282 0.0
H850 H 0.88533 0.33408 0.98289 0.0
H851 H 0.89891 0.33439 0.03113 0.0
H852 H 0.90463 0.34989 0.9827 0.0
H853 H 0.84997 0.33235 0.14084 0.0
H854 H 0.85764 0.34817 0.1888 0.0
H855 H 0.86266 0.33348 0.19464 0.0
C856 C 0.63661 0.53905 0.06388 0.0
C857 C 0.62852 0.52743 0.10271 0.0
C858 C 0.6525 0.54581 0.05875 0.0
C859 C 0.66052 0.54094 0.0937 0.0
C860 C 0.65234 0.52883 0.13151 0.0
C861 C 0.63643 0.52216 0.13538 0.0
C862 C 0.66078 0.55855 0.01731 0.0
C863 C 0.66048 0.52336 0.1696 0.0
C864 C 0.70128 0.55346 0.05145 0.0
C865 C 0.70951 0.56696 0.08214 0.0
C866 C 0.68535 0.54455 0.05614 0.0
C867 C 0.6775 0.54919 0.09273 0.0
C868 C 0.68584 0.56237 0.12598 0.0
C869 C 0.70175 0.57113 0.12012 0.0
C870 C 0.67687 0.5306 0.01993 0.0
C871 C 0.67791 0.56759 0.16606 0.0
H872 H 0.63057 0.54313 0.03836 0.0
H873 H 0.63025 0.51322 0.16562 0.0
H874 H 0.66825 0.56936 0.03964 0.0
H875 H 0.66821 0.55613 0.99035 0.0
H876 H 0.6528 0.56024 0.99056 0.0
H877 H 0.6524 0.51305 0.19346 0.0
H878 H 0.6682 0.52072 0.14543 0.0
H879 H 0.66764 0.53254 0.19944 0.0
H880 H 0.7072 0.55018 0.0219 0.0
H881 H 0.70804 0.58151 0.14411 0.0
H882 H 0.66993 0.53259 0.98893 0.0
H883 H 0.66889 0.52061 0.04527 0.0
H884 H 0.6847 0.52776 -0.00258 0.0
H885 H 0.67074 0.57111 0.14262 0.0
H886 H 0.68611 0.57735 0.19199 0.0
H887 H 0.67023 0.55808 0.19387 0.0
C888 C 0.5205 0.88353 0.86255 0.0
C889 C 0.52569 0.89695 0.89368 0.0
C890 C 0.52727 0.87441 0.86817 0.0
C891 C 0.53951 0.87883 0.90585 0.0
C892 C 0.54439 0.89203 0.93895 0.0
C893 C 0.53743 0.90093 0.93244 0.0
C894 C 0.52171 0.86039 0.83234 0.0
C895 C 0.55734 0.89707 0.97989 0.0
C896 C 0.55249 0.85139 0.95411 0.0
C897 C 0.56579 0.85624 0.92258 0.0
C898 C 0.54347 0.85825 0.94771 0.0
C899 C 0.54784 0.87019 0.90874 0.0
C900 C 0.56084 0.87462 0.87495 0.0
C901 C 0.56967 0.8676 0.88234 0.0
C902 C 0.52966 0.85318 0.98438 0.0
C903 C 0.56581 0.88722 0.83257 0.0
H904 H 0.51142 0.88037 0.83251 0.0
H905 H 0.54148 0.91126 0.95675 0.0
H906 H 0.5308 0.86204 0.80267 0.0
H907 H 0.51916 0.85033 0.85832 0.0
H908 H 0.51133 0.85785 0.80836 0.0
H909 H 0.55919 0.90711 0.00467 0.0
H910 H 0.55505 0.88762 0.00877 0.0
H911 H 0.56804 0.90007 0.95732 0.0
H912 H 0.5494 0.8426 0.9853 0.0
H913 H 0.5799 0.87137 0.85768 0.0
H914 H 0.51954 0.85075 0.95902 0.0
H915 H 0.53171 0.86248 0.01363 0.0
H916 H 0.527 0.84284 0.00891 0.0
H917 H 0.55618 0.88494 0.80465 0.0
H918 H 0.57552 0.88855 0.80688 0.0
H919 H 0.56931 0.89818 0.85405 0.0
C920 C 0.1027 0.63816 0.94028 0.0
C921 C 0.10697 0.63098 0.90014 0.0
C922 C 0.11089 0.65406 0.94682 0.0
C923 C 0.12359 0.66299 0.91208 0.0
C924 C 0.12833 0.65575 0.87305 0.0
C925 C 0.11999 0.63982 0.86768 0.0
C926 C 0.10559 0.66135 0.98942 0.0
C927 C 0.14179 0.66488 0.83524 0.0
C928 C 0.13177 0.70343 0.88836 0.0
C929 C 0.14367 0.71168 0.926 0.0
C930 C 0.12552 0.68764 0.88195 0.0
C931 C 0.13123 0.67991 0.91433 0.0
C932 C 0.14363 0.68827 0.95087 0.0
C933 C 0.14975 0.70408 0.95609 0.0
C934 C 0.11243 0.67916 0.84196 0.0
C935 C 0.14999 0.68042 0.98618 0.0
H936 H 0.09269 0.6314 0.96566 0.0
H937 H 0.12335 0.63435 0.83651 0.0
H938 H 0.11523 0.66913 0.01657 0.0
H939 H 0.10145 0.66831 0.96811 0.0
H940 H 0.09625 0.65277 0.01589 0.0
H941 H 0.14477 0.6575 0.81039 0.0
H942 H 0.13912 0.67176 0.8063 0.0
H943 H 0.15192 0.67296 0.85979 0.0
H944 H 0.12707 0.70925 0.86482 0.0
H945 H 0.15893 0.71039 0.98539 0.0
H946 H 0.10198 0.67123 0.86533 0.0
H947 H 0.11497 0.67218 0.81306 0.0
H948 H 0.11002 0.68697 0.81718 0.0
H949 H 0.14124 0.67281 0.0166 0.0
H950 H 0.16037 0.68867 0.00931 0.0
H951 H 0.15283 0.67317 0.96 0.0
C952 C 0.2982 0.44609 0.94107 0.0
C953 C 0.28974 0.43274 0.9098 0.0
C954 C 0.31412 0.45487 0.93578 0.0
C955 C 0.32176 0.45024 0.89809 0.0
C956 C 0.3132 0.4372 0.86442 0.0
C957 C 0.2973 0.42858 0.8708 0.0
C958 C 0.32284 0.4687 0.97238 0.0
C959 C 0.3209 0.43199 0.82325 0.0
C960 C 0.36277 0.47762 0.85552 0.0
C961 C 0.37082 0.47253 0.88829 0.0
C962 C 0.34682 0.47069 0.85898 0.0
C963 C 0.33874 0.45842 0.89627 0.0
C964 C 0.34684 0.45355 0.93069 0.0
C965 C 0.36278 0.46064 0.92619 0.0
C966 C 0.33859 0.4762 0.82159 0.0
C967 C 0.33865 0.44058 0.97134 0.0
H968 H 0.29245 0.44938 0.97135 0.0
H969 H 0.29084 0.41831 0.84637 0.0
H970 H 0.32995 0.46662 0.00222 0.0
H971 H 0.33067 0.47876 0.94704 0.0
H972 H 0.31515 0.47149 0.99622 0.0
H973 H 0.31255 0.42233 0.7973 0.0
H974 H 0.32852 0.44154 0.7955 0.0
H975 H 0.32809 0.42834 0.84578 0.0
H976 H 0.3689 0.4868 0.82605 0.0
H977 H 0.36891 0.45666 0.9517 0.0
H978 H 0.33117 0.47908 0.84655 0.0
H979 H 0.3311 0.46697 0.79247 0.0
H980 H 0.34659 0.48637 0.79697 0.0
H981 H 0.33142 0.44296 -0.00042 0.0
H982 H 0.34666 0.43862 0.99681 0.0
H983 H 0.33097 0.42992 0.9485 0.0
C984 C 0.09807 0.46531 0.43217 0.0
C985 C 0.10235 0.47732 0.39449 0.0
C986 C 0.10699 0.4584 0.43914 0.0
C987 C 0.12047 0.46359 0.4074 0.0
C988 C 0.12525 0.4762 0.3713 0.0
C989 C 0.11613 0.48295 0.36535 0.0
C990 C 0.10159 0.44507 0.4785 0.0
C991 C 0.13956 0.48206 0.33684 0.0
C992 C 0.14657 0.44871 0.45265 0.0
C993 C 0.14132 0.43572 0.41906 0.0
C994 C 0.14034 0.45833 0.44786 0.0
C995 C 0.12868 0.45487 0.40841 0.0
C996 C 0.12396 0.44224 0.3724 0.0
C997 C 0.13032 0.4328 0.37826 0.0
C998 C 0.14568 0.47172 0.48687 0.0
C999 C 0.11166 0.43826 0.32937 0.0
H1000 H 0.08749 0.46098 0.4551 0.0
H1001 H 0.11952 0.49226 0.33621 0.0
H1002 H 0.09832 0.43451 0.45451 0.0
H1003 H 0.11092 0.44684 0.50717 0.0
H1004 H 0.09161 0.44329 0.50353 0.0
H1005 H 0.14259 0.49296 0.31562 0.0
H1006 H 0.1493 0.4838 0.36316 0.0
H1007 H 0.13787 0.47347 0.30481 0.0
H1008 H 0.15508 0.45103 0.48428 0.0
H1009 H 0.1263 0.42284 0.35191 0.0
H1010 H 0.13644 0.4695 0.51666 0.0
H1011 H 0.14832 0.4822 0.46349 0.0
H1012 H 0.15595 0.47385 0.51079 0.0
H1013 H 0.10065 0.4348 0.35039 0.0
H1014 H 0.11015 0.4288 0.30182 0.0
H1015 H 0.11442 0.44835 0.30333 0.0
C1016 C 0.51505 0.63311 0.37584 0.0
C1017 C 0.52023 0.62477 0.4063 0.0
C1018 C 0.52205 0.64901 0.3813 0.0
C1019 C 0.53453 0.65673 0.41809 0.0
C1020 C 0.53926 0.64827 0.45116 0.0
C1021 C 0.53205 0.63239 0.44486 0.0
C1022 C 0.51661 0.65762 0.34565 0.0
C1023 C 0.55245 0.65607 0.4912 0.0
C1024 C 0.56555 0.69738 0.38856 0.0
C1025 C 0.56243 0.70557 0.42824 0.0
C1026 C 0.55621 0.68153 0.38349 0.0
C1027 C 0.54344 0.67368 0.41903 0.0
C1028 C 0.53983 0.68198 0.45746 0.0
C1029 C 0.54937 0.69784 0.46159 0.0
C1030 C 0.56037 0.6731 0.34164 0.0
C1031 C 0.52628 0.67403 0.49585 0.0
H1032 H 0.50589 0.6273 0.34604 0.0
H1033 H 0.53609 0.62602 0.46868 0.0
H1034 H 0.51486 0.66572 0.37128 0.0
H1035 H 0.52544 0.66443 0.31419 0.0
H1036 H 0.5058 0.64987 0.32369 0.0
H1037 H 0.55394 0.6478 0.51692 0.0
H1038 H 0.56315 0.66319 0.46771 0.0
H1039 H 0.55073 0.66378 0.51922 0.0
H1040 H 0.57559 0.70328 0.36254 0.0
H1041 H 0.54687 0.70411 0.49236 0.0
H1042 H 0.55043 0.66584 0.31478 0.0
H1043 H 0.56353 0.66544 0.36364 0.0
H1044 H 0.57007 0.68096 0.3148 0.0
H1045 H 0.51585 0.66634 0.47194 0.0
H1046 H 0.52421 0.68222 0.51964 0.0
H1047 H 0.52824 0.66684 0.52577 0.0
C1048 C 0.36863 0.90361 0.43575 0.0
C1049 C 0.3759 0.89964 0.39494 0.0
C1050 C 0.35275 0.89518 0.44256 0.0
C1051 C 0.34393 0.88253 0.4075 0.0
C1052 C 0.35126 0.87815 0.36752 0.0
C1053 C 0.36718 0.88674 0.36183 0.0
C1054 C 0.34536 0.90012 0.48606 0.0
C1055 C 0.34223 0.86475 0.32936 0.0
C1056 C 0.3034 0.85517 0.45426 0.0
C1057 C 0.29515 0.86069 0.42509 0.0
C1058 C 0.31925 0.86189 0.44781 0.0
C1059 C 0.327 0.87438 0.41116 0.0
C1060 C 0.31866 0.87962 0.38001 0.0
C1061 C 0.30282 0.87273 0.38744 0.0
C1062 C 0.32776 0.85598 0.4817 0.0
C1063 C 0.32651 0.89284 0.34014 0.0
H1064 H 0.37531 0.91354 0.46156 0.0
H1065 H 0.37272 0.88363 0.33009 0.0
H1066 H 0.33794 0.90385 0.46562 0.0
H1067 H 0.33799 0.8904 0.5136 0.0
H1068 H 0.35389 0.90965 0.51204 0.0
H1069 H 0.34971 0.86222 0.303 0.0
H1070 H 0.33459 0.85442 0.35385 0.0
H1071 H 0.3349 0.86716 0.30185 0.0
H1072 H 0.29754 0.84585 0.48343 0.0
H1073 H 0.29651 0.87701 0.36465 0.0
H1074 H 0.33548 0.86489 0.51141 0.0
H1075 H 0.33497 0.85337 0.45432 0.0
H1076 H 0.31994 0.84555 0.50551 0.0
H1077 H 0.33433 0.90336 0.36342 0.0
H1078 H 0.31829 0.89492 0.31659 0.0
H1079 H 0.33355 0.89069 0.31014 0.0
C1080 C 0.10401 0.24735 0.85483 0.0
C1081 C 0.114 0.25572 0.81171 0.0
C1082 C 0.10971 0.24535 0.90554 0.0
C1083 C 0.12568 0.25192 0.91266 0.0
C1084 C 0.13557 0.25899 0.86712 0.0
C1085 C 0.12959 0.26077 0.81722 0.0
C1086 C 0.09879 0.23742 0.95279 0.0
C1087 C 0.15266 0.26605 0.8726 0.0
C1088 C 0.14493 0.27051 0.04785 0.0
C1089 C 0.14998 0.2607 0.06695 0.0
C1090 C 0.13623 0.26726 -0.00071 0.0
C1091 C 0.13241 0.25384 0.96896 0.0
C1092 C 0.13678 0.24348 0.98935 0.0
C1093 C 0.14558 0.24705 0.03804 0.0
C1094 C 0.13181 0.27864 0.97894 0.0
C1095 C 0.13277 0.22897 0.95846 0.0
H1096 H 0.09193 0.24337 0.85054 0.0
H1097 H 0.1373 0.26701 0.78343 0.0
H1098 H 0.10215 0.2302 0.97669 0.0
H1099 H 0.09906 0.24609 0.98167 0.0
H1100 H 0.0869 0.23022 0.93773 0.0
H1101 H 0.15852 0.26943 0.83171 0.0
H1102 H 0.15719 0.27638 0.89914 0.0
H1103 H 0.15559 0.25802 0.8929 0.0
H1104 H 0.1481 0.28099 0.07003 0.0
H1105 H 0.14926 0.23929 0.0527 0.0
H1106 H 0.11939 0.27285 0.97022 0.0
H1107 H 0.13786 0.28385 0.93951 0.0
H1108 H 0.13465 0.28792 0.00946 0.0
H1109 H 0.12069 0.22313 0.94476 0.0
H1110 H 0.13466 0.22097 0.98426 0.0
H1111 H 0.13995 0.23176 0.92066 0.0
C1112 C 0.75509 0.89837 0.03099 0.0
C1113 C 0.74088 0.88939 0.05681 0.0
C1114 C 0.75902 0.89332 0.98265 0.0
C1115 C 0.7484 0.87906 0.95939 0.0
C1116 C 0.73429 0.86974 0.98637 0.0
C1117 C 0.73073 0.87499 0.03468 0.0
C1118 C 0.77424 0.90348 0.95545 0.0
C1119 C 0.72261 0.85444 0.96289 0.0
C1120 C 0.74309 0.86998 0.80716 0.0
C1121 C 0.74695 0.8585 0.80377 0.0
C1122 C 0.74504 0.878 0.85657 0.0
C1123 C 0.75098 0.87441 0.90374 0.0
C1124 C 0.75655 0.86411 0.89863 0.0
C1125 C 0.75446 0.85621 0.84836 0.0
C1126 C 0.73912 0.88903 0.8598 0.0
C1127 C 0.7633 0.86028 0.94765 0.0
H1128 H 0.7631 0.90945 0.04804 0.0
H1129 H 0.71978 0.86789 0.05438 0.0
H1130 H 0.77958 0.89676 0.94187 0.0
H1131 H 0.77256 0.90882 0.9179 0.0
H1132 H 0.78223 0.9127 0.98373 0.0
H1133 H 0.71259 0.84821 0.99067 0.0
H1134 H 0.71853 0.85608 0.92207 0.0
H1135 H 0.72782 0.8472 0.95594 0.0
H1136 H 0.73751 0.87193 0.77221 0.0
H1137 H 0.75751 0.84738 0.84565 0.0
H1138 H 0.7473 0.89957 0.88206 0.0
H1139 H 0.72825 0.8837 0.88344 0.0
H1140 H 0.73695 0.8922 0.81798 0.0
H1141 H 0.77067 0.87062 0.97257 0.0
H1142 H 0.7701 0.85498 0.93432 0.0
H1143 H 0.75396 0.8521 0.97501 0.0
C1144 C 0.12078 0.84919 0.03306 0.0
C1145 C 0.10752 0.84644 0.06121 0.0
C1146 C 0.12555 0.85808 0.98483 0.0
C1147 C 0.11685 0.86442 0.9639 0.0
C1148 C 0.10343 0.86171 0.99183 0.0
C1149 C 0.09888 0.8527 0.04016 0.0
C1150 C 0.13991 0.86059 0.95609 0.0
C1151 C 0.09385 0.86822 0.97049 0.0
C1152 C 0.14162 0.89581 0.86421 0.0
C1153 C 0.13891 0.88727 0.81559 0.0
C1154 C 0.13314 0.88894 0.91251 0.0
C1155 C 0.12177 0.8733 0.91137 0.0
C1156 C 0.11769 0.86535 0.86024 0.0
C1157 C 0.12641 0.87243 0.81295 0.0
C1158 C 0.13764 0.89788 0.96603 0.0
C1159 C 0.10548 0.84877 0.85674 0.0
H1160 H 0.12753 0.84441 0.04875 0.0
H1161 H 0.08863 0.85068 0.06167 0.0
H1162 H 0.13717 0.85587 0.91335 0.0
H1163 H 0.14816 0.87298 0.95257 0.0
H1164 H 0.14552 0.85513 0.9785 0.0
H1165 H 0.08453 0.86623 -0.00032 0.0
H1166 H 0.10106 0.88067 0.96328 0.0
H1167 H 0.08871 0.86292 0.92999 0.0
H1168 H 0.1513 0.9073 0.86613 0.0
H1169 H 0.12424 0.86591 0.77493 0.0
H1170 H 0.14505 0.89485 0.99042 0.0
H1171 H 0.12746 0.89507 0.99169 0.0
H1172 H 0.14404 0.91037 0.95824 0.0
H1173 H 0.11012 0.8416 0.87249 0.0
H1174 H 0.10157 0.84527 0.81331 0.0
H1175 H 0.0955 0.8464 0.88277 0.0
C1176 C 0.24732 0.11456 0.6751 0.0
C1177 C 0.24957 0.10216 0.66669 0.0
C1178 C 0.24674 0.12301 0.62994 0.0
C1179 C 0.24867 0.11897 0.57548 0.0
C1180 C 0.249 0.1053 0.56672 0.0
C1181 C 0.24951 0.09704 0.61272 0.0
C1182 C 0.24608 0.13733 0.64119 0.0
C1183 C 0.25082 0.10045 0.50929 0.0
C1184 C 0.24864 0.14155 0.449 0.0
C1185 C 0.26435 0.15135 0.44083 0.0
C1186 C 0.24323 0.1311 0.49332 0.0
C1187 C 0.25379 0.13053 0.53033 0.0
C1188 C 0.26961 0.1408 0.52347 0.0
C1189 C 0.27468 0.15103 0.47877 0.0
C1190 C 0.2263 0.12035 0.49933 0.0
C1191 C 0.28128 0.14078 0.56264 0.0
H1192 H 0.24758 0.1186 0.71707 0.0
H1193 H 0.2515 0.08757 0.60646 0.0
H1194 H 0.25779 0.14732 0.63954 0.0
H1195 H 0.23915 0.13902 0.60935 0.0
H1196 H 0.24124 0.13704 0.68291 0.0
H1197 H 0.24802 0.08835 0.50844 0.0
H1198 H 0.24343 0.10198 0.47902 0.0
H1199 H 0.26282 0.10769 0.49556 0.0
H1200 H 0.24056 0.14169 0.41978 0.0
H1201 H 0.28682 0.15867 0.47317 0.0
H1202 H 0.22266 0.12 0.54303 0.0
H1203 H 0.22359 0.10864 0.48805 0.0
H1204 H 0.21953 0.12364 0.47218 0.0
H1205 H 0.27871 0.14245 0.60602 0.0
H1206 H 0.29309 0.14986 0.55259 0.0
H1207 H 0.28078 0.1296 0.56073 0.0
C1208 C 0.86189 0.10707 0.45092 0.0
C1209 C 0.85158 0.11237 0.44312 0.0
C1210 C 0.87229 0.11235 0.49546 0.0
C1211 C 0.87226 0.1231 0.53297 0.0
C1212 C 0.86142 0.12795 0.52653 0.0
C1213 C 0.85128 0.12258 0.48166 0.0
C1214 C 0.88364 0.1069 0.50096 0.0
C1215 C 0.86077 0.13918 0.56624 0.0
C1216 C 0.88784 0.13313 0.67786 0.0
C1217 C 0.89964 0.14813 0.66969 0.0
C1218 C 0.87988 0.12386 0.63251 0.0
C1219 C 0.88377 0.12992 0.57815 0.0
C1220 C 0.89695 0.14436 0.5697 0.0
C1221 C 0.90474 0.15338 0.61589 0.0
C1222 C 0.86612 0.10841 0.64339 0.0
C1223 C 0.90164 0.15113 0.51235 0.0
H1224 H 0.86222 0.09921 0.42114 0.0
H1225 H 0.84322 0.12657 0.4763 0.0
H1226 H 0.89505 0.11612 0.48766 0.0
H1227 H 0.88463 0.10415 0.54482 0.0
H1228 H 0.88047 0.09669 0.47491 0.0
H1229 H 0.85129 0.14135 0.55647 0.0
H1230 H 0.85928 0.13486 0.60946 0.0
H1231 H 0.87166 0.1502 0.5646 0.0
H1232 H 0.88384 0.12919 0.71973 0.0
H1233 H 0.91376 0.16508 0.60982 0.0
H1234 H 0.86504 0.10002 0.61149 0.0
H1235 H 0.85567 0.10937 0.64149 0.0
H1236 H 0.86667 0.10401 0.68511 0.0
H1237 H 0.90071 0.14243 0.48219 0.0
H1238 H 0.91352 0.1609 0.51181 0.0
H1239 H 0.89391 0.15527 0.49826 0.0
C1240 C 0.86863 0.74958 0.68526 0.0
C1241 C 0.85579 0.75136 0.68401 0.0
C1242 C 0.87681 0.75096 0.63673 0.0
C1243 C 0.87185 0.75404 0.58595 0.0
C1244 C 0.86027 0.75802 0.58612 0.0
C1245 C 0.85229 0.75662 0.63557 0.0
C1246 C 0.88932 0.74697 0.63877 0.0
C1247 C 0.855 0.76184 0.53303 0.0
C1248 C 0.89339 0.75426 0.4562 0.0
C1249 C 0.88471 0.73899 0.43899 0.0
C1250 C 0.88911 0.7596 0.50283 0.0
C1251 C 0.87599 0.74936 0.5333 0.0
C1252 C 0.8671 0.734 0.51565 0.0
C1253 C 0.87153 0.72904 0.46872 0.0
C1254 C 0.89882 0.77606 0.5201 0.0
C1255 C 0.85304 0.72264 0.54714 0.0
H1256 H 0.87137 0.74564 0.72314 0.0
H1257 H 0.84234 0.758 0.63476 0.0
H1258 H 0.88478 0.73512 0.62362 0.0
H1259 H 0.89896 0.75461 0.61149 0.0
H1260 H 0.89368 0.7477 0.68168 0.0
H1261 H 0.84864 0.76794 0.54138 0.0
H1262 H 0.86481 0.76897 0.50544 0.0
H1263 H 0.84731 0.75113 0.51048 0.0
H1264 H 0.90354 0.76208 0.43328 0.0
H1265 H 0.86475 0.71724 0.45583 0.0
H1266 H 0.90597 0.77677 0.55618 0.0
H1267 H 0.89164 0.78094 0.53312 0.0
H1268 H 0.90652 0.78317 0.4861 0.0
H1269 H 0.85622 0.72128 0.59 0.0
H1270 H 0.84717 0.71125 0.52697 0.0
H1271 H 0.84484 0.72685 0.55042 0.0
C1272 C 0.85572 0.75363 0.95479 0.0
C1273 C 0.84659 0.73811 0.94149 0.0
C1274 C 0.86561 0.75829 0.00079 0.0
C1275 C 0.86624 0.74715 0.03431 0.0
C1276 C 0.85683 0.73147 0.02161 0.0
C1277 C 0.84718 0.72717 0.97532 0.0
C1278 C 0.87554 0.77509 0.01287 0.0
C1279 C 0.85695 0.71917 0.05686 0.0
C1280 C 0.89788 0.75107 0.12759 0.0
C1281 C 0.89085 0.74903 0.17933 0.0
C1282 C 0.89078 0.75233 0.07932 0.0
C1283 C 0.87641 0.75151 0.08362 0.0
C1284 C 0.87038 0.75148 0.13666 0.0
C1285 C 0.87764 0.75011 0.18399 0.0
C1286 C 0.89771 0.75261 0.02356 0.0
C1287 C 0.85525 0.75086 0.14332 0.0
H1288 H 0.85541 0.76217 0.92853 0.0
H1289 H 0.84009 0.71516 0.96556 0.0
H1290 H 0.87427 0.77754 0.05684 0.0
H1291 H 0.88769 0.77848 0.00661 0.0
H1292 H 0.87279 0.78224 0.98562 0.0
H1293 H 0.84886 0.70752 0.04141 0.0
H1294 H 0.86857 0.72065 0.05751 0.0
H1295 H 0.85385 0.72009 0.10034 0.0
H1296 H 0.90803 0.75008 0.12417 0.0
H1297 H 0.87223 0.74847 0.22428 0.0
H1298 H 0.89631 0.76028 0.9943 0.0
H1299 H 0.89176 0.74097 0.00547 0.0
H1300 H 0.91003 0.75636 0.02719 0.0
H1301 H 0.85413 0.75855 0.11333 0.0
H1302 H 0.85375 0.75403 0.18607 0.0
H1303 H 0.84589 0.73908 0.13489 0.0
C1304 C 0.25036 0.10248 0.95427 0.0
C1305 C 0.26426 0.11135 0.92633 0.0
C1306 C 0.24692 0.1078 0.00302 0.0
C1307 C 0.25765 0.12228 0.02431 0.0
C1308 C 0.27149 0.13144 0.99547 0.0
C1309 C 0.27461 0.12587 0.94697 0.0
C1310 C 0.23205 0.09774 0.03262 0.0
C1311 C 0.28327 0.14698 0.01685 0.0
C1312 C 0.25094 0.14543 0.13252 0.0
C1313 C 0.25869 0.14379 0.17778 0.0
C1314 C 0.24922 0.13737 0.08293 0.0
C1315 C 0.25533 0.12749 0.07927 0.0
C1316 C 0.26166 0.12463 0.127 0.0
C1317 C 0.26332 0.13288 0.17561 0.0
C1318 C 0.2422 0.14055 0.03312 0.0
C1319 C 0.26813 0.11404 0.12528 0.0
H1320 H 0.24222 0.09127 0.93857 0.0
H1321 H 0.28533 0.13289 0.92566 0.0
H1322 H 0.23433 0.09364 0.07223 0.0
H1323 H 0.22629 0.10429 0.04316 0.0
H1324 H 0.22416 0.08767 0.00729 0.0
H1325 H 0.29303 0.15302 0.98783 0.0
H1326 H 0.27801 0.15417 0.02366 0.0
H1327 H 0.28774 0.14575 0.05746 0.0
H1328 H 0.24736 0.15388 0.13424 0.0
H1329 H 0.26914 0.13147 0.21102 0.0
H1330 H 0.23478 0.12991 0.00981 0.0
H1331 H 0.2514 0.14842 0.0046 0.0
H1332 H 0.23539 0.14594 0.04525 0.0
H1333 H 0.26017 0.10322 0.104 0.0
H1334 H 0.27054 0.11135 0.16754 0.0
H1335 H 0.27896 0.1195 0.10138 0.0
C1336 C 0.85718 0.10381 0.13414 0.0
C1337 C 0.85955 0.11324 0.17998 0.0
C1338 C 0.86508 0.11001 0.08418 0.0
C1339 C 0.87549 0.12589 0.08078 0.0
C1340 C 0.8792 0.135 0.12915 0.0
C1341 C 0.87112 0.12855 0.17817 0.0
C1342 C 0.86107 0.09987 0.03376 0.0
C1343 C 0.8904 0.15193 0.12773 0.0
C1344 C 0.899 0.14616 0.95315 0.0
C1345 C 0.89002 0.15164 0.92893 0.0
C1346 C 0.89413 0.13709 0.00127 0.0
C1347 C 0.88006 0.13357 0.02589 0.0
C1348 C 0.87077 0.13869 0.00072 0.0
C1349 C 0.87585 0.14761 0.95262 0.0
C1350 C 0.90428 0.13175 0.02668 0.0
C1351 C 0.85568 0.13521 0.02575 0.0
H1352 H 0.84825 0.09194 0.13566 0.0
H1353 H 0.87309 0.13578 0.21408 0.0
H1354 H 0.853 0.10147 0.0073 0.0
H1355 H 0.87137 0.1029 0.00848 0.0
H1356 H 0.85557 0.08764 0.04548 0.0
H1357 H 0.89378 0.15681 0.17014 0.0
H1358 H 0.9008 0.15439 0.10429 0.0
H1359 H 0.88509 0.15782 0.1062 0.0
H1360 H 0.90992 0.14909 0.93495 0.0
H1361 H 0.86877 0.15168 0.9342 0.0
H1362 H 0.89751 0.11959 0.03915 0.0
H1363 H 0.90972 0.13847 0.06473 0.0
H1364 H 0.91342 0.13313 -0.0023 0.0
H1365 H 0.84829 0.12274 0.03184 0.0
H1366 H 0.84947 0.13934 -0.00058 0.0
H1367 H 0.85761 0.14069 0.06717 0.0
C1368 C 0.75875 0.88935 0.30872 0.0
C1369 C 0.75491 0.90071 0.31648 0.0
C1370 C 0.75988 0.88132 0.35423 0.0
C1371 C 0.75687 0.88471 0.4082 0.0
C1372 C 0.75513 0.89761 0.41652 0.0
C1373 C 0.75407 0.90545 0.37023 0.0
C1374 C 0.76216 0.86792 0.3436 0.0
C1375 C 0.75226 0.90184 0.47354 0.0
C1376 C 0.73066 0.85154 0.50007 0.0
C1377 C 0.74069 0.85175 0.54055 0.0
C1378 C 0.73597 0.86189 0.45583 0.0
C1379 C 0.7517 0.87288 0.45228 0.0
C1380 C 0.762 0.87282 0.49186 0.0
C1381 C 0.75637 0.86218 0.53555 0.0
C1382 C 0.7246 0.86132 0.41376 0.0
C1383 C 0.77882 0.88435 0.48966 0.0
H1384 H 0.75924 0.88563 0.26688 0.0
H1385 H 0.75092 0.91415 0.37593 0.0
H1386 H 0.76915 0.86682 0.37682 0.0
H1387 H 0.75089 0.85728 0.34328 0.0
H1388 H 0.76775 0.86893 0.30286 0.0
H1389 H 0.7541 0.91362 0.47446 0.0
H1390 H 0.74027 0.89384 0.48575 0.0
H1391 H 0.75979 0.9009 0.50484 0.0
H1392 H 0.71857 0.84339 0.50338 0.0
H1393 H 0.76417 0.86243 0.56694 0.0
H1394 H 0.72816 0.86026 0.37117 0.0
H1395 H 0.72419 0.87206 0.41545 0.0
H1396 H 0.71291 0.85162 0.42112 0.0
H1397 H 0.78316 0.88613 0.44641 0.0
H1398 H 0.7856 0.88085 0.51572 0.0
H1399 H 0.7807 0.89547 0.50528 0.0
C1400 C 0.11968 0.87187 0.31236 0.0
C1401 C 0.10529 0.85878 0.31701 0.0
C1402 C 0.12722 0.88051 0.35933 0.0
C1403 C 0.12019 0.87572 0.41194 0.0
C1404 C 0.10477 0.86386 0.41538 0.0
C1405 C 0.09743 0.85548 0.36745 0.0
C1406 C 0.14351 0.89326 0.35341 0.0
C1407 C 0.09675 0.85862 0.47056 0.0
C1408 C 0.14626 0.87566 0.52439 0.0
C1409 C 0.14894 0.88824 0.55685 0.0
C1410 C 0.13689 0.87153 0.47741 0.0
C1411 C 0.12995 0.88019 0.46232 0.0
C1412 C 0.13267 0.893 0.49444 0.0
C1413 C 0.14218 0.89691 0.54134 0.0
C1414 C 0.13443 0.85785 0.44392 0.0
C1415 C 0.12553 0.90251 0.47936 0.0
H1416 H 0.12568 0.87443 0.273 0.0
H1417 H 0.0863 0.84531 0.3709 0.0
H1418 H 0.14608 0.90272 0.38258 0.0
H1419 H 0.15131 0.88884 0.36332 0.0
H1420 H 0.14598 0.89783 0.31038 0.0
H1421 H 0.08416 0.85199 0.46537 0.0
H1422 H 0.10043 0.85117 0.49111 0.0
H1423 H 0.09974 0.86843 0.49847 0.0
H1424 H 0.15147 0.86893 0.53577 0.0
H1425 H 0.14415 0.90665 0.56621 0.0
H1426 H 0.13842 0.86134 0.40064 0.0
H1427 H 0.12209 0.84928 0.44212 0.0
H1428 H 0.14057 0.85229 0.46162 0.0
H1429 H 0.12943 0.90759 0.43756 0.0
H1430 H 0.12842 0.91185 0.50963 0.0
H1431 H 0.11294 0.89521 0.47734 0.0
C1432 C 0.10759 0.24381 0.54331 0.0
C1433 C 0.11165 0.25924 0.54556 0.0
C1434 C 0.11294 0.23831 0.50025 0.0
C1435 C 0.12241 0.24849 0.45853 0.0
C1436 C 0.1257 0.26385 0.45889 0.0
C1437 C 0.12037 0.26903 0.50258 0.0
C1438 C 0.10915 0.22189 0.50137 0.0
C1439 C 0.13546 0.27504 0.41446 0.0
C1440 C 0.15476 0.24896 0.38166 0.0
C1441 C 0.14912 0.24665 0.32742 0.0
C1442 C 0.14536 0.24745 0.42679 0.0
C1443 C 0.13013 0.24386 0.41678 0.0
C1444 C 0.1239 0.23951 0.36277 0.0
C1445 C 0.13355 0.24104 0.3184 0.0
C1446 C 0.15235 0.25177 0.48398 0.0
C1447 C 0.10763 0.23526 0.3505 0.0
H1448 H 0.10086 0.23619 0.57659 0.0
H1449 H 0.12333 0.28091 0.50378 0.0
H1450 H 0.1071 0.21699 0.45891 0.0
H1451 H 0.11893 0.22126 0.51917 0.0
H1452 H 0.09895 0.21475 0.52739 0.0
H1453 H 0.13604 0.28625 0.41881 0.0
H1454 H 0.14723 0.27693 0.41674 0.0
H1455 H 0.13089 0.2704 0.37264 0.0
H1456 H 0.16687 0.25344 0.38829 0.0
H1457 H 0.12928 0.23943 0.27615 0.0
H1458 H 0.1443 0.24404 0.5159 0.0
H1459 H 0.15492 0.26353 0.49381 0.0
H1460 H 0.16313 0.25143 0.48673 0.0
H1461 H 0.0999 0.22834 0.38464 0.0
H1462 H 0.10356 0.22878 0.31098 0.0
H1463 H 0.10693 0.24581 0.34659 0.0
C1464 C 0.811 0.58164 0.38436 0.0
C1465 C 0.80975 0.59009 0.42815 0.0
C1466 C 0.80232 0.57888 0.33572 0.0
C1467 C 0.79216 0.58463 0.33127 0.0
C1468 C 0.78964 0.5916 0.3779 0.0
C1469 C 0.79857 0.59436 0.4256 0.0
C1470 C 0.80525 0.57127 0.28717 0.0
C1471 C 0.77877 0.59772 0.37539 0.0
C1472 C 0.79232 0.60432 0.1984 0.0
C1473 C 0.77776 0.59456 0.17634 0.0
C1474 C 0.79722 0.60083 0.24752 0.0
C1475 C 0.78742 0.58709 0.2756 0.0
C1476 C 0.77298 0.57674 0.25252 0.0
C1477 C 0.76826 0.58063 0.20302 0.0
C1478 C 0.81272 0.61228 0.27049 0.0
C1479 C 0.76242 0.56183 0.28086 0.0
H1480 H 0.8195 0.57813 0.38642 0.0
H1481 H 0.79726 0.60053 0.46002 0.0
H1482 H 0.79457 0.56386 0.26404 0.0
H1483 H 0.81331 0.58014 0.25803 0.0
H1484 H 0.81037 0.56433 0.30079 0.0
H1485 H 0.77593 0.60007 0.41747 0.0
H1486 H 0.78411 0.60853 0.3514 0.0
H1487 H 0.76804 0.58958 0.35394 0.0
H1488 H 0.79993 0.61501 0.17794 0.0
H1489 H 0.75707 0.57295 0.18602 0.0
H1490 H 0.81967 0.60677 0.27768 0.0
H1491 H 0.81135 0.61666 0.31107 0.0
H1492 H 0.81915 0.62216 0.24229 0.0
H1493 H 0.76848 0.55545 0.28933 0.0
H1494 H 0.75212 0.55454 0.25553 0.0
H1495 H 0.75874 0.56404 0.3215 0.0
C1496 C 0.42161 0.19568 0.16875 0.0
C1497 C 0.41088 0.18014 0.17315 0.0
C1498 C 0.42392 0.20564 0.21311 0.0
C1499 C 0.41534 0.19976 0.26256 0.0
C1500 C 0.40584 0.1838 0.26901 0.0
C1501 C 0.40358 0.1742 0.22387 0.0
C1502 C 0.43423 0.22254 0.20467 0.0
C1503 C 0.39676 0.17698 0.32146 0.0
C1504 C 0.41961 0.22222 0.39401 0.0
C1505 C 0.40666 0.2238 0.3903 0.0
C1506 C 0.42327 0.2152 0.35106 0.0
C1507 C 0.41392 0.21004 0.30314 0.0
C1508 C 0.4016 0.21285 0.29752 0.0
C1509 C 0.39794 0.21944 0.3417 0.0
C1510 C 0.43634 0.21223 0.35901 0.0
C1511 C 0.39162 0.20796 0.24636 0.0
H1512 H 0.42711 0.20024 0.12912 0.0
H1513 H 0.39525 0.16214 0.22693 0.0
H1514 H 0.42721 0.22774 0.19321 0.0
H1515 H 0.4405 0.22815 0.24332 0.0
H1516 H 0.4426 0.22495 0.17082 0.0
H1517 H 0.39189 0.16443 0.32313 0.0
H1518 H 0.40398 0.18215 0.35873 0.0
H1519 H 0.38721 0.17939 0.32336 0.0
H1520 H 0.42627 0.22552 0.43199 0.0
H1521 H 0.38799 0.22079 0.33896 0.0
H1522 H 0.44296 0.21436 0.32006 0.0
H1523 H 0.43174 0.20008 0.37029 0.0
H1524 H 0.44417 0.21941 0.39262 0.0
H1525 H 0.39872 0.2116 0.20822 0.0
H1526 H 0.38387 0.21278 0.24541 0.0
H1527 H 0.38456 0.19534 0.2454 0.0
C1528 C 0.81566 0.23267 0.21333 0.0
C1529 C 0.81161 0.2251 0.16224 0.0
C1530 C 0.80732 0.22541 0.26146 0.0
C1531 C 0.79476 0.21035 0.25762 0.0
C1532 C 0.78952 0.20361 0.2048 0.0
C1533 C 0.79811 0.21106 0.15766 0.0
C1534 C 0.81311 0.23309 0.31692 0.0
C1535 C 0.77604 0.18771 0.19857 0.0
C1536 C 0.79199 0.18276 0.36925 0.0
C1537 C 0.77957 0.18092 0.4009 0.0
C1538 C 0.79703 0.1924 0.32292 0.0
C1539 C 0.7895 0.20048 0.30775 0.0
C1540 C 0.77689 0.19865 0.33918 0.0
C1541 C 0.77204 0.18885 0.38542 0.0
C1542 C 0.81042 0.19386 0.29004 0.0
C1543 C 0.76863 0.20711 0.32428 0.0
H1544 H 0.82619 0.2435 0.21671 0.0
H1545 H 0.79504 0.20526 0.11784 0.0
H1546 H 0.80352 0.23082 0.34499 0.0
H1547 H 0.81979 0.22843 0.337 0.0
H1548 H 0.82062 0.24561 0.31236 0.0
H1549 H 0.7716 0.18545 0.15533 0.0
H1550 H 0.77962 0.17929 0.20926 0.0
H1551 H 0.76668 0.18584 0.22715 0.0
H1552 H 0.79784 0.17665 0.38063 0.0
H1553 H 0.76248 0.18758 0.40986 0.0
H1554 H 0.81968 0.20595 0.28896 0.0
H1555 H 0.80691 0.19018 0.2465 0.0
H1556 H 0.81509 0.1869 0.30775 0.0
H1557 H 0.7765 0.21956 0.32859 0.0
H1558 H 0.75852 0.2038 0.3511 0.0
H1559 H 0.76487 0.20494 0.2803 0.0
C1560 C 0.9403 0.48142 0.80774 0.0
C1561 C 0.93055 0.48423 0.77489 0.0
C1562 C 0.93482 0.47181 0.85404 0.0
C1563 C 0.91912 0.46471 0.86789 0.0
C1564 C 0.90917 0.46749 0.83512 0.0
C1565 C 0.91501 0.47725 0.78897 0.0
C1566 C 0.9459 0.46933 0.88838 0.0
C1567 C 0.89238 0.46004 0.84837 0.0
C1568 C 0.91112 0.43232 0.96391 0.0
C1569 C 0.91517 0.44019 0.01444 0.0
C1570 C 0.91028 0.43958 0.91536 0.0
C1571 C 0.91362 0.45493 0.91822 0.0
C1572 C 0.91538 0.46194 0.97063 0.0
C1573 C 0.9162 0.45447 0.01826 0.0
C1574 C 0.90793 0.43156 0.86039 0.0
C1575 C 0.91866 0.47817 0.97586 0.0
H1576 H 0.95231 0.48679 0.79739 0.0
H1577 H 0.90735 0.47925 0.76354 0.0
H1578 H 0.94607 0.47313 0.93176 0.0
H1579 H 0.94223 0.45702 0.8897 0.0
H1580 H 0.95771 0.47564 0.87172 0.0
H1581 H 0.88647 0.46451 0.8221 0.0
H1582 H 0.88692 0.44756 0.84159 0.0
H1583 H 0.89065 0.46179 0.89267 0.0
H1584 H 0.91037 0.42128 0.96109 0.0
H1585 H 0.91929 0.46048 0.05766 0.0
H1586 H 0.91919 0.43539 0.84071 0.0
H1587 H 0.90113 0.43438 0.83169 0.0
H1588 H 0.90211 0.41898 0.86571 0.0
H1589 H 0.93083 0.48608 0.96574 0.0
H1590 H 0.91651 0.48071 0.0187 0.0
H1591 H 0.91164 0.48048 0.9464 0.0
C1592 C 0.56796 0.47944 0.981 0.0
C1593 C 0.56291 0.48975 0.99285 0.0
C1594 C 0.56263 0.47003 0.93349 0.0
C1595 C 0.55191 0.47093 0.89798 0.0
C1596 C 0.54725 0.48171 0.90902 0.0
C1597 C 0.55293 0.49104 0.95566 0.0
C1598 C 0.56808 0.45888 0.9225 0.0
C1599 C 0.5359 0.48318 0.87238 0.0
C1600 C 0.54111 0.4599 0.74961 0.0
C1601 C 0.52634 0.44753 0.75607 0.0
C1602 C 0.55071 0.46633 0.79568 0.0
C1603 C 0.54505 0.46066 0.84942 0.0
C1604 C 0.53066 0.44722 0.85531 0.0
C1605 C 0.52149 0.44069 0.80818 0.0
C1606 C 0.56624 0.4802 0.78739 0.0
C1607 C 0.52418 0.44083 0.91183 0.0
H1608 H 0.57568 0.47839 0.00948 0.0
H1609 H 0.54919 0.49919 0.96363 0.0
H1610 H 0.55933 0.4474 0.93713 0.0
H1611 H 0.56983 0.45804 0.87742 0.0
H1612 H 0.5789 0.46215 0.94481 0.0
H1613 H 0.53318 0.49188 0.88792 0.0
H1614 H 0.54049 0.48642 0.82963 0.0
H1615 H 0.52512 0.47209 0.86981 0.0
H1616 H 0.54491 0.46497 0.70885 0.0
H1617 H 0.51006 0.43103 0.81278 0.0
H1618 H 0.5747 0.48001 0.81619 0.0
H1619 H 0.56563 0.49063 0.79641 0.0
H1620 H 0.57031 0.48097 0.74401 0.0
H1621 H 0.53297 0.44064 0.93875 0.0
H1622 H 0.51421 0.42911 0.90908 0.0
H1623 H 0.52045 0.44826 0.93215 0.0
C1624 C 0.56471 0.08948 0.78877 0.0
C1625 C 0.55629 0.07415 0.77206 0.0
C1626 C 0.56033 0.09475 0.83536 0.0
C1627 C 0.54738 0.08437 0.86629 0.0
C1628 C 0.53879 0.06892 0.84933 0.0
C1629 C 0.54332 0.06403 0.80241 0.0
C1630 C 0.56971 0.1113 0.85196 0.0
C1631 C 0.52494 0.05741 0.88138 0.0
C1632 C 0.54011 0.08499 0.01815 0.0
C1633 C 0.52705 0.08639 0.01667 0.0
C1634 C 0.54829 0.08636 0.96963 0.0
C1635 C 0.5431 0.08904 0.91861 0.0
C1636 C 0.53124 0.09262 0.91839 0.0
C1637 C 0.52327 0.09124 0.96785 0.0
C1638 C 0.56107 0.08276 0.97206 0.0
C1639 C 0.52567 0.09597 0.865 0.0
H1640 H 0.5747 0.09742 0.76531 0.0
H1641 H 0.53674 0.05218 0.78991 0.0
H1642 H 0.56223 0.11602 0.86283 0.0
H1643 H 0.57655 0.11229 0.88933 0.0
H1644 H 0.57764 0.11837 0.81842 0.0
H1645 H 0.51933 0.04594 0.86182 0.0
H1646 H 0.52828 0.05635 0.92434 0.0
H1647 H 0.51647 0.06129 0.88436 0.0
H1648 H 0.54306 0.08136 0.05632 0.0
H1649 H 0.51314 0.09233 0.96686 0.0
H1650 H 0.57056 0.09037 0.94414 0.0
H1651 H 0.55673 0.07086 0.95798 0.0
H1652 H 0.56559 0.08388 0.01492 0.0
H1653 H 0.53535 0.1031 0.83691 0.0
H1654 H 0.51909 0.10186 0.87288 0.0
H1655 H 0.51811 0.08508 0.84323 0.0
C1656 C 0.52684 0.09034 0.29022 0.0
C1657 C 0.5184 0.07479 0.27635 0.0
C1658 C 0.53655 0.0953 0.33674 0.0
C1659 C 0.53778 0.08445 0.37 0.0
C1660 C 0.52907 0.06873 0.35667 0.0
C1661 C 0.51954 0.06413 0.31007 0.0
C1662 C 0.5457 0.11213 0.34953 0.0
C1663 C 0.52982 0.0567 0.39156 0.0
C1664 C 0.56943 0.08897 0.46387 0.0
C1665 C 0.56193 0.08594 0.51503 0.0
C1666 C 0.56248 0.09056 0.41576 0.0
C1667 C 0.54782 0.08907 0.4197 0.0
C1668 C 0.54135 0.08823 0.47258 0.0
C1669 C 0.54845 0.08652 0.51973 0.0
C1670 C 0.56989 0.09177 0.36021 0.0
C1671 C 0.52594 0.08699 0.47889 0.0
H1672 H 0.52611 0.09867 0.26411 0.0
H1673 H 0.51298 0.0521 0.29997 0.0
H1674 H 0.54483 0.11427 0.3942 0.0
H1675 H 0.55792 0.11635 0.34052 0.0
H1676 H 0.54193 0.11885 0.3244 0.0
H1677 H 0.5223 0.04499 0.3754 0.0
H1678 H 0.54169 0.05886 0.39279 0.0
H1679 H 0.52637 0.0572 0.43491 0.0
H1680 H 0.57983 0.08844 0.46042 0.0
H1681 H 0.54273 0.0842 0.55962 0.0
H1682 H 0.56822 0.09946 0.33194 0.0
H1683 H 0.56451 0.08032 0.34055 0.0
H1684 H 0.5823 0.09601 0.36456 0.0
H1685 H 0.52463 0.09471 0.44955 0.0
H1686 H 0.52411 0.08974 0.52189 0.0
H1687 H 0.51689 0.07515 0.46933 0.0
C1688 C 0.91469 0.43702 0.2904 0.0
C1689 C 0.92984 0.44478 0.27133 0.0
C1690 C 0.91036 0.44195 0.33809 0.0
C1691 C 0.92147 0.45485 0.36746 0.0
C1692 C 0.93677 0.46266 0.3485 0.0
C1693 C 0.94074 0.45756 0.30076 0.0
C1694 C 0.89397 0.43337 0.35713 0.0
C1695 C 0.94905 0.47639 0.37894 0.0
C1696 C 0.91632 0.48063 0.46703 0.0
C1697 C 0.92103 0.47692 0.51634 0.0
C1698 C 0.9146 0.47228 0.41824 0.0
C1699 C 0.91762 0.46003 0.41959 0.0
C1700 C 0.92034 0.45508 0.47108 0.0
C1701 C 0.92212 0.46368 0.51887 0.0
C1702 C 0.91141 0.47775 0.36431 0.0
C1703 C 0.92339 0.44196 0.47477 0.0
H1704 H 0.90616 0.42718 0.26778 0.0
H1705 H 0.95247 0.4636 0.28658 0.0
H1706 H 0.89325 0.4283 0.39865 0.0
H1707 H 0.88945 0.44129 0.36146 0.0
H1708 H 0.88655 0.4241 0.32794 0.0
H1709 H 0.96032 0.48133 0.3581 0.0
H1710 H 0.94585 0.48537 0.38196 0.0
H1711 H 0.95024 0.47315 0.4219 0.0
H1712 H 0.91553 0.49091 0.46518 0.0
H1713 H 0.92566 0.4608 0.55736 0.0
H1714 H 0.90382 0.468 0.33726 0.0
H1715 H 0.9223 0.48471 0.34171 0.0
H1716 H 0.90609 0.4849 0.37148 0.0
H1717 H 0.91554 0.43241 0.44747 0.0
H1718 H 0.92218 0.43765 0.518 0.0
H1719 H 0.93522 0.44584 0.46071 0.0
C1720 C 0.53914 0.4523 0.50327 0.0
C1721 C 0.52482 0.43908 0.50039 0.0
C1722 C 0.54704 0.45973 0.45488 0.0
C1723 C 0.54034 0.45374 0.40254 0.0
C1724 C 0.52688 0.43927 0.39966 0.0
C1725 C 0.51917 0.4321 0.44896 0.0
C1726 C 0.5614 0.47504 0.4602 0.0
C1727 C 0.51958 0.43229 0.34469 0.0
C1728 C 0.54373 0.48359 0.29965 0.0
C1729 C 0.55546 0.48511 0.26461 0.0
C1730 C 0.53865 0.47327 0.34405 0.0
C1731 C 0.54532 0.46405 0.35346 0.0
C1732 C 0.55702 0.46534 0.31786 0.0
C1733 C 0.56205 0.47595 0.27403 0.0
C1734 C 0.52627 0.47244 0.38151 0.0
C1735 C 0.56425 0.45557 0.32622 0.0
H1736 H 0.54341 0.45772 0.54329 0.0
H1737 H 0.508 0.42194 0.44684 0.0
H1738 H 0.5699 0.47647 0.42826 0.0
H1739 H 0.55857 0.4842 0.45384 0.0
H1740 H 0.56667 0.47659 0.50193 0.0
H1741 H 0.51149 0.41985 0.34863 0.0
H1742 H 0.51315 0.43779 0.32938 0.0
H1743 H 0.52833 0.43417 0.31311 0.0
H1744 H 0.53862 0.49065 0.2929 0.0
H1745 H 0.57104 0.47697 0.24685 0.0
H1746 H 0.53057 0.47533 0.42476 0.0
H1747 H 0.51637 0.46067 0.38187 0.0
H1748 H 0.52224 0.48034 0.36827 0.0
H1749 H 0.56993 0.45799 0.36737 0.0
H1750 H 0.57282 0.45755 0.29364 0.0
H1751 H 0.55535 0.44334 0.32592 0.0
C1752 C 0.42092 0.23492 0.70187 0.0
C1753 C 0.41546 0.22568 0.65461 0.0
C1754 C 0.42221 0.2288 0.7527 0.0
C1755 C 0.41792 0.21317 0.75559 0.0
C1756 C 0.41432 0.20445 0.70624 0.0
C1757 C 0.41309 0.21082 0.65633 0.0
C1758 C 0.42653 0.23858 0.80417 0.0
C1759 C 0.4099 0.18783 0.70708 0.0
C1760 C 0.41974 0.19267 0.8851 0.0
C1761 C 0.40464 0.18599 0.90435 0.0
C1762 C 0.42459 0.20229 0.8384 0.0
C1763 C 0.41401 0.20509 0.80987 0.0
C1764 C 0.39891 0.19879 0.8302 0.0
C1765 C 0.39445 0.1894 0.87723 0.0
C1766 C 0.44083 0.20897 0.81852 0.0
C1767 C 0.38721 0.2014 0.80085 0.0
H1768 H 0.42275 0.24643 0.70048 0.0
H1769 H 0.40903 0.20375 0.61941 0.0
H1770 H 0.41603 0.23603 0.82728 0.0
H1771 H 0.43373 0.2361 0.83216 0.0
H1772 H 0.43274 0.25092 0.79371 0.0
H1773 H 0.40976 0.18341 0.66471 0.0
H1774 H 0.41787 0.18604 0.73331 0.0
H1775 H 0.39833 0.18101 0.72524 0.0
H1776 H 0.42777 0.19024 0.90609 0.0
H1777 H 0.38279 0.18436 0.89176 0.0
H1778 H 0.44557 0.22103 0.80564 0.0
H1779 H 0.4411 0.20252 0.78175 0.0
H1780 H 0.44831 0.2084 0.85105 0.0
H1781 H 0.39157 0.2138 0.79589 0.0
H1782 H 0.3762 0.19631 0.82357 0.0
H1783 H 0.38505 0.19632 0.75865 0.0
C1784 C 0.768 0.18604 0.70734 0.0
C1785 C 0.77671 0.18912 0.65897 0.0
C1786 C 0.77465 0.19431 0.75623 0.0
C1787 C 0.79025 0.20582 0.75593 0.0
C1788 C 0.79835 0.21025 0.70513 0.0
C1789 C 0.79147 0.20176 0.65722 0.0
C1790 C 0.76555 0.18949 0.80937 0.0
C1791 C 0.8149 0.2226 0.70258 0.0
C1792 C 0.81124 0.22877 0.88393 0.0
C1793 C 0.81788 0.22036 0.90375 0.0
C1794 C 0.80176 0.22398 0.83682 0.0
C1795 C 0.799 0.21057 0.80873 0.0
C1796 C 0.80552 0.20196 0.82896 0.0
C1797 C 0.81483 0.20694 0.87613 0.0
C1798 C 0.79499 0.23342 0.81651 0.0
C1799 C 0.80294 0.1876 0.80007 0.0
H1800 H 0.75657 0.17624 0.70854 0.0
H1801 H 0.79812 0.20418 0.6194 0.0
H1802 H 0.76855 0.18198 0.83325 0.0
H1803 H 0.76825 0.19952 0.83574 0.0
H1804 H 0.75309 0.18308 0.80103 0.0
H1805 H 0.81858 0.22658 0.65934 0.0
H1806 H 0.81701 0.23251 0.72855 0.0
H1807 H 0.8221 0.21807 0.71902 0.0
H1808 H 0.81345 0.23912 0.90514 0.0
H1809 H 0.81986 0.20034 0.89101 0.0
H1810 H 0.7827 0.22603 0.8068 0.0
H1811 H 0.80077 0.23937 0.77761 0.0
H1812 H 0.79627 0.24212 0.84747 0.0
H1813 H 0.79055 0.17935 0.79666 0.0
H1814 H 0.80842 0.18197 0.82227 0.0
H1815 H 0.80762 0.19034 0.75727 0.0
C1816 C 0.79093 0.60619 0.86942 0.0
C1817 C 0.78052 0.5963 0.90888 0.0
C1818 C 0.79621 0.60067 0.82657 0.0
C1819 C 0.79112 0.58485 0.82342 0.0
C1820 C 0.78049 0.57475 0.86278 0.0
C1821 C 0.77524 0.58059 0.90495 0.0
C1822 C 0.80733 0.61185 0.78479 0.0
C1823 C 0.77498 0.55788 0.86122 0.0
C1824 C 0.79862 0.57676 0.67846 0.0
C1825 C 0.81381 0.58032 0.68373 0.0
C1826 C 0.79013 0.57619 0.7253 0.0
C1827 C 0.79712 0.57927 0.77829 0.0
C1828 C 0.81167 0.5806 0.78428 0.0
C1829 C 0.81996 0.58128 0.73657 0.0
C1830 C 0.77461 0.57455 0.71689 0.0
C1831 C 0.81933 0.58342 0.84022 0.0
H1832 H 0.79497 0.61831 0.87193 0.0
H1833 H 0.76728 0.5729 0.93565 0.0
H1834 H 0.81824 0.61178 0.78658 0.0
H1835 H 0.80271 0.60845 0.74211 0.0
H1836 H 0.80978 0.62369 0.79224 0.0
H1837 H 0.76539 0.55135 0.89047 0.0
H1838 H 0.77126 0.55328 0.81872 0.0
H1839 H 0.78451 0.55595 0.8726 0.0
H1840 H 0.79398 0.57621 0.63733 0.0
H1841 H 0.8318 0.58421 0.74043 0.0
H1842 H 0.77573 0.58603 0.7173 0.0
H1843 H 0.76668 0.56778 0.75078 0.0
H1844 H 0.76952 0.56904 0.67648 0.0
H1845 H 0.82415 0.5956 0.85162 0.0
H1846 H 0.82877 0.58083 0.83972 0.0
H1847 H 0.81102 0.57644 0.87285 0.0
C1848 C 0.43445 0.91508 0.53431 0.0
C1849 C 0.44242 0.91856 0.48405 0.0
C1850 C 0.44116 0.9136 0.58331 0.0
C1851 C 0.45607 0.91564 0.58122 0.0
C1852 C 0.46318 0.91711 0.52918 0.0
C1853 C 0.45628 0.91867 0.48116 0.0
C1854 C 0.43311 0.91178 0.63787 0.0
C1855 C 0.47894 0.91909 0.52477 0.0
C1856 C 0.48338 0.93968 0.69483 0.0
C1857 C 0.48485 0.92883 0.72623 0.0
C1858 C 0.4739 0.93541 0.64812 0.0
C1859 C 0.46554 0.91986 0.63239 0.0
C1860 C 0.46687 0.90879 0.6639 0.0
C1861 C 0.47658 0.91341 0.71042 0.0
C1862 C 0.47298 0.94765 0.61522 0.0
C1863 C 0.45805 0.89211 0.64853 0.0
H1864 H 0.42376 0.9151 0.53641 0.0
H1865 H 0.46239 0.92135 0.44199 0.0
H1866 H 0.43494 0.90427 0.6665 0.0
H1867 H 0.43782 0.92311 0.65807 0.0
H1868 H 0.42066 0.90702 0.63192 0.0
H1869 H 0.48147 0.91698 0.48182 0.0
H1870 H 0.48752 0.93096 0.53642 0.0
H1871 H 0.4803 0.9113 0.55355 0.0
H1872 H 0.48977 0.95161 0.7065 0.0
H1873 H 0.47756 0.90493 0.73475 0.0
H1874 H 0.46099 0.94512 0.61312 0.0
H1875 H 0.47689 0.94788 0.57199 0.0
H1876 H 0.48005 0.95918 0.63356 0.0
H1877 H 0.44563 0.88802 0.64957 0.0
H1878 H 0.46046 0.88494 0.67702 0.0
H1879 H 0.46087 0.89046 0.6055 0.0
C1880 C 0.07302 0.55977 0.67623 0.0
C1881 C 0.07893 0.55994 0.72877 0.0
C1882 C 0.07606 0.55291 0.63126 0.0
C1883 C 0.0848 0.54568 0.63987 0.0
C1884 C 0.09172 0.54685 0.69215 0.0
C1885 C 0.08872 0.55407 0.73619 0.0
C1886 C 0.06877 0.55225 0.5758 0.0
C1887 C 0.1011 0.53932 0.70299 0.0
C1888 C 0.06808 0.51008 0.55319 0.0
C1889 C 0.07748 0.51507 0.50627 0.0
C1890 C 0.07117 0.51958 0.59923 0.0
C1891 C 0.08394 0.53451 0.598 0.0
C1892 C 0.09429 0.53911 0.55285 0.0
C1893 C 0.09094 0.52924 0.50722 0.0
C1894 C 0.05996 0.51407 0.64692 0.0
C1895 C 0.10814 0.55484 0.55039 0.0
H1896 H 0.06549 0.56441 0.67093 0.0
H1897 H 0.09321 0.55423 0.77726 0.0
H1898 H 0.07711 0.555 0.54165 0.0
H1899 H 0.05916 0.54051 0.56862 0.0
H1900 H 0.06429 0.56026 0.57376 0.0
H1901 H 0.10816 0.54387 0.74109 0.0
H1902 H 0.09337 0.52688 0.70856 0.0
H1903 H 0.10867 0.5409 0.66726 0.0
H1904 H 0.05775 0.49902 0.55249 0.0
H1905 H 0.0982 0.53309 0.47075 0.0
H1906 H 0.05347 0.52024 0.64659 0.0
H1907 H 0.06604 0.51647 0.68723 0.0
H1908 H 0.05169 0.50164 0.64434 0.0
H1909 H 0.10463 0.56306 0.53618 0.0
H1910 H 0.11679 0.55531 0.52082 0.0
H1911 H 0.11347 0.55859 0.59194 0.0
C1912 C 0.43643 0.52341 0.71517 0.0
C1913 C 0.44549 0.51772 0.73696 0.0
C1914 C 0.44095 0.53266 0.66748 0.0
C1915 C 0.45473 0.5361 0.64063 0.0
C1916 C 0.46412 0.53076 0.66337 0.0
C1917 C 0.45941 0.52171 0.71125 0.0
C1918 C 0.43073 0.53827 0.64488 0.0
C1919 C 0.4789 0.53412 0.63589 0.0
C1920 C 0.46227 0.54131 0.48752 0.0
C1921 C 0.47416 0.55648 0.48559 0.0
C1922 C 0.45451 0.53489 0.53711 0.0
C1923 C 0.45884 0.5439 0.58586 0.0
C1924 C 0.46948 0.55973 0.58242 0.0
C1925 C 0.47708 0.56589 0.53194 0.0
C1926 C 0.44307 0.51802 0.53855 0.0
C1927 C 0.47407 0.56978 0.6332 0.0
H1928 H 0.42571 0.52053 0.73502 0.0
H1929 H 0.46654 0.51745 0.72777 0.0
H1930 H 0.43751 0.55037 0.63176 0.0
H1931 H 0.42461 0.53149 0.60772 0.0
H1932 H 0.42211 0.53718 0.67589 0.0
H1933 H 0.48522 0.52974 0.66032 0.0
H1934 H 0.47652 0.5288 0.59406 0.0
H1935 H 0.48639 0.54659 0.63026 0.0
H1936 H 0.45992 0.5341 0.45127 0.0
H1937 H 0.48628 0.57764 0.53036 0.0
H1938 H 0.43295 0.51572 0.56359 0.0
H1939 H 0.44837 0.5119 0.55835 0.0
H1940 H 0.43922 0.51327 0.49621 0.0
H1941 H 0.46405 0.56684 0.65997 0.0
H1942 H 0.4796 0.58204 0.62183 0.0
H1943 H 0.48231 0.56802 0.65799 0.0
C1944 C 0.60764 0.81444 0.13031 0.0
C1945 C 0.59728 0.8169 0.09977 0.0
C1946 C 0.60296 0.80491 0.17695 0.0
C1947 C 0.58747 0.79758 0.19367 0.0
C1948 C 0.5769 0.79999 0.16326 0.0
C1949 C 0.58194 0.80966 0.11665 0.0
C1950 C 0.61468 0.8028 0.20858 0.0
C1951 C 0.56032 0.79235 0.1799 0.0
C1952 C 0.58057 0.76535 0.28955 0.0
C1953 C 0.58488 0.77321 0.34007 0.0
C1954 C 0.5795 0.77261 0.24136 0.0
C1955 C 0.58283 0.78796 0.2445 0.0
C1956 C 0.58513 0.79508 0.29697 0.0
C1957 C 0.58622 0.78762 0.34419 0.0
C1958 C 0.57676 0.76453 0.18632 0.0
C1959 C 0.58851 0.81133 0.30253 0.0
H1960 H 0.61952 0.81999 0.11787 0.0
H1961 H 0.57382 0.81143 0.09316 0.0
H1962 H 0.61545 0.80679 0.25203 0.0
H1963 H 0.61119 0.79053 0.21016 0.0
H1964 H 0.6262 0.80915 0.18957 0.0
H1965 H 0.55357 0.79551 0.15217 0.0
H1966 H 0.55527 0.77978 0.17889 0.0
H1967 H 0.55928 0.79549 0.22316 0.0
H1968 H 0.57965 0.75424 0.28647 0.0
H1969 H 0.58956 0.79365 0.38354 0.0
H1970 H 0.58786 0.76847 0.1652 0.0
H1971 H 0.56962 0.76719 0.15877 0.0
H1972 H 0.57114 0.75197 0.19174 0.0
H1973 H 0.60055 0.8192 0.29059 0.0
H1974 H 0.58688 0.81401 0.34588 0.0
H1975 H 0.58116 0.81358 0.27455 0.0
C1976 C 0.21656 0.80092 0.32968 0.0
C1977 C 0.23013 0.81495 0.32743 0.0
C1978 C 0.20939 0.79304 0.28098 0.0
C1979 C 0.216 0.79948 0.22899 0.0
C1980 C 0.23075 0.81259 0.22706 0.0
C1981 C 0.23767 0.82027 0.27667 0.0
C1982 C 0.19377 0.77904 0.28524 0.0
C1983 C 0.23835 0.81958 0.17251 0.0
C1984 C 0.19393 0.77768 0.10056 0.0
C1985 C 0.18514 0.7846 0.08971 0.0
C1986 C 0.20449 0.78271 0.14454 0.0
C1987 C 0.20609 0.79475 0.17887 0.0
C1988 C 0.19737 0.80188 0.16767 0.0
C1989 C 0.18709 0.79677 0.12316 0.0
C1990 C 0.2137 0.77496 0.15486 0.0
C1991 C 0.19859 0.81469 0.2036 0.0
H1992 H 0.21076 0.79689 0.36921 0.0
H1993 H 0.24812 0.83122 0.27507 0.0
H1994 H 0.18498 0.78225 0.27634 0.0
H1995 H 0.19237 0.7703 0.25443 0.0
H1996 H 0.1916 0.77391 0.32742 0.0
H1997 H 0.25083 0.82727 0.17768 0.0
H1998 H 0.23637 0.81063 0.14164 0.0
H1999 H 0.23343 0.82636 0.15551 0.0
H2000 H 0.19259 0.76833 0.07466 0.0
H2001 H 0.18035 0.80218 0.11526 0.0
H2002 H 0.20978 0.7682 0.19372 0.0
H2003 H 0.22594 0.78355 0.16046 0.0
H2004 H 0.21261 0.7672 0.12033 0.0
H2005 H 0.19524 0.81062 0.24689 0.0
H2006 H 0.19122 0.81919 0.18854 0.0
H2007 H 0.21056 0.82421 0.20462 0.0
C2008 C 0.22072 0.41583 0.09101 0.0
C2009 C 0.22001 0.40165 0.09049 0.0
C2010 C 0.21421 0.41983 0.13478 0.0
C2011 C 0.20717 0.4095 0.1793 0.0
C2012 C 0.20749 0.39567 0.18073 0.0
C2013 C 0.21371 0.39182 0.13588 0.0
C2014 C 0.21394 0.43458 0.13146 0.0
C2015 C 0.2005 0.38451 0.22817 0.0
C2016 C 0.19436 0.41739 0.31686 0.0
C2017 C 0.17853 0.40901 0.3099 0.0
C2018 C 0.20414 0.41893 0.27277 0.0
C2019 C 0.1978 0.41199 0.22099 0.0
C2020 C 0.18185 0.40496 0.21253 0.0
C2021 C 0.17238 0.40339 0.25741 0.0
C2022 C 0.22106 0.42654 0.28353 0.0
C2023 C 0.17461 0.39767 0.15772 0.0
H2024 H 0.22556 0.42341 0.05569 0.0
H2025 H 0.21335 0.38093 0.1357 0.0
H2026 H 0.20228 0.43207 0.12026 0.0
H2027 H 0.21679 0.44046 0.17225 0.0
H2028 H 0.22202 0.44242 0.09971 0.0
H2029 H 0.20326 0.3752 0.22607 0.0
H2030 H 0.20456 0.39047 0.26859 0.0
H2031 H 0.18791 0.37934 0.22717 0.0
H2032 H 0.19905 0.4215 0.35789 0.0
H2033 H 0.16009 0.39679 0.2525 0.0
H2034 H 0.22768 0.43331 0.24706 0.0
H2035 H 0.22421 0.41766 0.29121 0.0
H2036 H 0.22444 0.43412 0.32047 0.0
H2037 H 0.181 0.40531 0.12263 0.0
H2038 H 0.16253 0.39486 0.15528 0.0
H2039 H 0.17497 0.38696 0.15252 0.0
C2040 C 0.22991 0.41446 0.77583 0.0
C2041 C 0.22127 0.40963 0.82465 0.0
C2042 C 0.22328 0.41554 0.72588 0.0
C2043 C 0.20776 0.41174 0.72543 0.0
C2044 C 0.19965 0.40862 0.7761 0.0
C2045 C 0.2065 0.40752 0.82506 0.0
C2046 C 0.23239 0.41919 0.67287 0.0
C2047 C 0.18318 0.40473 0.77787 0.0
C2048 C 0.18738 0.41509 0.59798 0.0
C2049 C 0.18002 0.40004 0.57784 0.0
C2050 C 0.19699 0.41932 0.6447 0.0
C2051 C 0.19915 0.4082 0.67224 0.0
C2052 C 0.192 0.39309 0.65144 0.0
C2053 C 0.18259 0.38922 0.60452 0.0
C2054 C 0.20448 0.43555 0.66543 0.0
C2055 C 0.19392 0.38083 0.67978 0.0
H2056 H 0.24131 0.41601 0.77553 0.0
H2057 H 0.19987 0.40386 0.86309 0.0
H2058 H 0.22896 0.40846 0.64985 0.0
H2059 H 0.2301 0.42666 0.64561 0.0
H2060 H 0.24483 0.42485 0.68127 0.0
H2061 H 0.17935 0.405 0.8209 0.0
H2062 H 0.1814 0.41275 0.75191 0.0
H2063 H 0.17586 0.3931 0.76083 0.0
H2064 H 0.18558 0.42359 0.57747 0.0
H2065 H 0.17699 0.37758 0.58942 0.0
H2066 H 0.21678 0.43998 0.67361 0.0
H2067 H 0.19918 0.43592 0.70527 0.0
H2068 H 0.20332 0.44323 0.63539 0.0
H2069 H 0.2062 0.38451 0.68367 0.0
H2070 H 0.18814 0.36982 0.65694 0.0
H2071 H 0.18912 0.37889 0.7224 0.0
C2072 C 0.58825 0.79659 0.84269 0.0
C2073 C 0.58695 0.8097 0.83968 0.0
C2074 C 0.58705 0.78819 0.79492 0.0
C2075 C 0.58467 0.79319 0.74296 0.0
C2076 C 0.58147 0.80532 0.74087 0.0
C2077 C 0.58265 0.81349 0.78962 0.0
C2078 C 0.59031 0.77522 0.79937 0.0
C2079 C 0.57862 0.81083 0.6864 0.0
C2080 C 0.60837 0.79062 0.62633 0.0
C2081 C 0.59763 0.77772 0.59705 0.0
C2082 C 0.60416 0.79584 0.67323 0.0
C2083 C 0.58878 0.78801 0.69139 0.0
C2084 C 0.57783 0.77504 0.66199 0.0
C2085 C 0.58239 0.77 0.61523 0.0
C2086 C 0.61626 0.80966 0.70376 0.0
C2087 C 0.56135 0.76645 0.68013 0.0
H2088 H 0.59155 0.79369 0.8817 0.0
H2089 H 0.58175 0.82371 0.78738 0.0
H2090 H 0.58267 0.76562 0.77187 0.0
H2091 H 0.60222 0.77925 0.78599 0.0
H2092 H 0.58898 0.77092 0.84266 0.0
H2093 H 0.57318 0.81791 0.69268 0.0
H2094 H 0.58965 0.81788 0.66475 0.0
H2095 H 0.57126 0.8011 0.65887 0.0
H2096 H 0.62016 0.79665 0.61279 0.0
H2097 H 0.57397 0.76006 0.59271 0.0
H2098 H 0.6173 0.80651 0.74704 0.0
H2099 H 0.61298 0.81859 0.70591 0.0
H2100 H 0.62762 0.81461 0.68353 0.0
H2101 H 0.56048 0.76154 0.72207 0.0
H2102 H 0.55409 0.75706 0.65108 0.0
H2103 H 0.55677 0.77435 0.68316 0.0
C2104 C 0.17764 0.78702 0.78154 0.0
C2105 C 0.17919 0.7772 0.81867 0.0
C2106 C 0.18692 0.79281 0.7348 0.0
C2107 C 0.19797 0.78849 0.72387 0.0
C2108 C 0.19913 0.77794 0.75936 0.0
C2109 C 0.18974 0.77245 0.80678 0.0
C2110 C 0.18516 0.80396 0.69804 0.0
C2111 C 0.21058 0.77285 0.7485 0.0
C2112 C 0.20958 0.79945 0.57582 0.0
C2113 C 0.22182 0.81428 0.58271 0.0
C2114 C 0.20296 0.78987 0.62177 0.0
C2115 C 0.20832 0.7956 0.67573 0.0
C2116 C 0.22158 0.81009 0.68222 0.0
C2117 C 0.2283 0.81925 0.63525 0.0
C2118 C 0.18927 0.77425 0.61295 0.0
C2119 C 0.22761 0.81664 0.73901 0.0
H2120 H 0.16931 0.79054 0.78964 0.0
H2121 H 0.19099 0.76485 0.83524 0.0
H2122 H 0.19608 0.81494 0.69605 0.0
H2123 H 0.18221 0.79942 0.65513 0.0
H2124 H 0.17615 0.80629 0.71311 0.0
H2125 H 0.20762 0.76216 0.77116 0.0
H2126 H 0.21141 0.77104 0.70347 0.0
H2127 H 0.222 0.78184 0.76275 0.0
H2128 H 0.20478 0.79559 0.53474 0.0
H2129 H 0.23784 0.83074 0.64016 0.0
H2130 H 0.17871 0.77466 0.62137 0.0
H2131 H 0.18952 0.76584 0.64192 0.0
H2132 H 0.18872 0.77022 0.56962 0.0
H2133 H 0.21987 0.82008 0.75865 0.0
H2134 H 0.23923 0.82681 0.73688 0.0
H2135 H 0.22795 0.80798 0.76622 0.0
C2136 C 0.08761 0.55047 0.99083 0.0
C2137 C 0.0883 0.56462 0.99086 0.0
C2138 C 0.08841 0.54374 0.04053 0.0
C2139 C 0.08982 0.55138 0.09131 0.0
C2140 C 0.09266 0.56659 0.09065 0.0
C2141 C 0.09184 0.57308 0.04005 0.0
C2142 C 0.08558 0.52762 0.03896 0.0
C2143 C 0.09466 0.57528 0.14379 0.0
C2144 C 0.06381 0.52485 0.20305 0.0
C2145 C 0.07383 0.52224 0.23511 0.0
C2146 C 0.06904 0.53467 0.15723 0.0
C2147 C 0.08475 0.54228 0.14336 0.0
C2148 C 0.09505 0.54014 0.1766 0.0
C2149 C 0.08945 0.53002 0.22186 0.0
C2150 C 0.0576 0.5365 0.12254 0.0
C2151 C 0.11189 0.54823 0.16363 0.0
H2152 H 0.08495 0.544 0.95246 0.0
H2153 H 0.09234 0.58403 0.03997 0.0
H2154 H 0.09298 0.52608 0.06911 0.0
H2155 H 0.07355 0.51961 0.0506 0.0
H2156 H 0.08761 0.52447 0.9969 0.0
H2157 H 0.10031 0.58775 0.13616 0.0
H2158 H 0.0833 0.57153 0.16239 0.0
H2159 H 0.10146 0.57301 0.17447 0.0
H2160 H 0.05174 0.51889 0.21287 0.0
H2161 H 0.09731 0.5282 0.24677 0.0
H2162 H 0.05737 0.53235 0.07969 0.0
H2163 H 0.06097 0.54872 0.11963 0.0
H2164 H 0.04587 0.53011 0.13989 0.0
H2165 H 0.11384 0.54344 0.12513 0.0
H2166 H 0.11862 0.54703 0.19771 0.0
H2167 H 0.11625 0.56054 0.15609 0.0
C2168 C 0.44563 0.53426 0.98953 0.0
C2169 C 0.43436 0.519 0.99687 0.0
C2170 C 0.45352 0.54341 0.03524 0.0
C2171 C 0.45007 0.53699 0.08917 0.0
C2172 C 0.43735 0.52219 0.09706 0.0
C2173 C 0.42966 0.51329 0.05052 0.0
C2174 C 0.46681 0.5592 0.02491 0.0
C2175 C 0.43309 0.51503 0.15397 0.0
C2176 C 0.48316 0.54543 0.18443 0.0
C2177 C 0.48242 0.55526 0.22363 0.0
C2178 C 0.47299 0.53987 0.13962 0.0
C2179 C 0.46161 0.54405 0.13421 0.0
C2180 C 0.46109 0.55436 0.17261 0.0
C2181 C 0.47158 0.55992 0.21682 0.0
C2182 C 0.4742 0.52917 0.09884 0.0
C2183 C 0.4491 0.55901 0.16845 0.0
H2184 H 0.44937 0.53856 0.94779 0.0
H2185 H 0.42109 0.50139 0.05596 0.0
H2186 H 0.46763 0.56725 0.05777 0.0
H2187 H 0.47755 0.55877 0.02558 0.0
H2188 H 0.46589 0.56369 0.98385 0.0
H2189 H 0.42143 0.5049 0.15447 0.0
H2190 H 0.44128 0.51133 0.16665 0.0
H2191 H 0.4337 0.52337 0.1852 0.0
H2192 H 0.49161 0.54192 0.18918 0.0
H2193 H 0.4709 0.56745 0.24724 0.0
H2194 H 0.47528 0.53357 0.05588 0.0
H2195 H 0.46368 0.51783 0.10051 0.0
H2196 H 0.48413 0.52765 0.10752 0.0
H2197 H 0.44796 0.56199 0.12504 0.0
H2198 H 0.45171 0.56887 0.19575 0.0
H2199 H 0.43789 0.54928 0.18095 0.0
C2200 C 0.46513 0.91656 0.98163 0.0
C2201 C 0.47884 0.9164 0.98522 0.0
C2202 C 0.45674 0.9154 0.02941 0.0
C2203 C 0.46238 0.91423 0.08186 0.0
C2204 C 0.47512 0.91199 0.08473 0.0
C2205 C 0.48328 0.91313 0.03601 0.0
C2206 C 0.44312 0.91763 0.02413 0.0
C2207 C 0.48131 0.91039 0.13975 0.0
C2208 C 0.46005 0.93961 0.19217 0.0
C2209 C 0.4477 0.92921 0.22455 0.0
C2210 C 0.46496 0.93476 0.14617 0.0
C2211 C 0.45741 0.91906 0.1322 0.0
C2212 C 0.44496 0.90845 0.16469 0.0
C2213 C 0.44019 0.91366 0.21043 0.0
C2214 C 0.47818 0.94653 0.11219 0.0
C2215 C 0.43675 0.89164 0.15125 0.0
H2216 H 0.46175 0.91911 0.94207 0.0
H2217 H 0.49397 0.91312 0.03867 0.0
H2218 H 0.43398 0.91023 0.05366 0.0
H2219 H 0.44665 0.92965 0.03412 0.0
H2220 H 0.43838 0.91517 0.98132 0.0
H2221 H 0.48876 0.90531 0.13464 0.0
H2222 H 0.48819 0.92183 0.15884 0.0
H2223 H 0.47194 0.90324 0.16889 0.0
H2224 H 0.46588 0.95164 0.20255 0.0
H2225 H 0.43071 0.90552 0.23553 0.0
H2226 H 0.47447 0.94643 0.06873 0.0
H2227 H 0.48748 0.94376 0.11105 0.0
H2228 H 0.48287 0.95825 0.12901 0.0
H2229 H 0.43213 0.88971 0.10837 0.0
H2230 H 0.42721 0.88487 0.18044 0.0
H2231 H 0.44487 0.88731 0.1529 0.0
C2232 C 0.22741 0.35491 0.9922 0.0
C2233 C 0.24109 0.36759 0.00981 0.0
C2234 C 0.22178 0.34067 0.01762 0.0
C2235 C 0.2302 0.33892 0.06103 0.0
C2236 C 0.24431 0.35153 0.07783 0.0
C2237 C 0.24954 0.3658 0.05231 0.0
C2238 C 0.20656 0.3276 -0.00093 0.0
C2239 C 0.25371 0.34999 0.12328 0.0
C2240 C 0.20606 0.3067 0.16003 0.0
C2241 C 0.20739 0.29464 0.13761 0.0
C2242 C 0.21392 0.32134 0.13682 0.0
C2243 C 0.2236 0.32407 0.09066 0.0
C2244 C 0.22561 0.31213 0.06952 0.0
C2245 C 0.21735 0.29749 0.09296 0.0
C2246 C 0.21123 0.33367 0.15998 0.0
C2247 C 0.23605 0.3147 0.02095 0.0
H2248 H 0.22085 0.35614 0.95913 0.0
H2249 H 0.26017 0.37554 0.06575 0.0
H2250 H 0.20781 0.3178 0.98586 0.0
H2251 H 0.19839 0.32369 0.03429 0.0
H2252 H 0.20156 0.33082 0.9641 0.0
H2253 H 0.26497 0.3605 0.1283 0.0
H2254 H 0.24749 0.34748 0.16332 0.0
H2255 H 0.25557 0.34029 0.11424 0.0
H2256 H 0.19847 0.30463 0.1948 0.0
H2257 H 0.21854 0.28824 0.07584 0.0
H2258 H 0.20542 0.33695 0.12833 0.0
H2259 H 0.22225 0.34402 0.16984 0.0
H2260 H 0.2041 0.32996 0.19813 0.0
H2261 H 0.23111 0.3166 0.98269 0.0
H2262 H 0.23779 0.30484 0.01388 0.0
H2263 H 0.24731 0.32506 0.0278 0.0
C2264 C 0.70327 0.91947 0.08986 0.0
C2265 C 0.70637 0.91202 0.13264 0.0
C2266 C 0.68848 0.91324 0.06773 0.0
C2267 C 0.67667 0.89912 0.0882 0.0
C2268 C 0.6797 0.89177 0.13229 0.0
C2269 C 0.69446 0.8984 0.15431 0.0
C2270 C 0.68559 0.92153 0.02142 0.0
C2271 C 0.66752 0.87656 0.15463 0.0
C2272 C 0.63453 0.88347 0.05766 0.0
C2273 C 0.63217 0.87329 0.01424 0.0
C2274 C 0.64914 0.89253 0.08072 0.0
C2275 C 0.66154 0.89117 0.06029 0.0
C2276 C 0.65924 0.88119 0.01557 0.0
C2277 C 0.64464 0.87249 0.99286 0.0
C2278 C 0.65125 0.90326 0.12779 0.0
C2279 C 0.67209 0.87922 0.99303 0.0
H2280 H 0.71241 0.93009 0.07336 0.0
H2281 H 0.69673 0.89262 0.18764 0.0
H2282 H 0.68326 0.91496 0.98225 0.0
H2283 H 0.67537 0.92249 0.03079 0.0
H2284 H 0.69546 0.93314 0.01454 0.0
H2285 H 0.67155 0.87271 0.1908 0.0
H2286 H 0.65733 0.87721 0.16738 0.0
H2287 H 0.66385 0.86779 0.12152 0.0
H2288 H 0.62496 0.88422 0.07403 0.0
H2289 H 0.64295 0.86475 0.95899 0.0
H2290 H 0.661 0.9148 0.119 0.0
H2291 H 0.65396 0.89918 0.16657 0.0
H2292 H 0.64089 0.90415 0.13502 0.0
H2293 H 0.68181 0.89041 0.98041 0.0
H2294 H 0.66851 0.87141 0.9567 0.0
H2295 H 0.67627 0.87455 0.02595 0.0
C2296 C 0.12479 0.77116 0.01365 0.0
C2297 C 0.12535 0.75836 0.03282 0.0
C2298 C 0.11588 0.77622 0.04028 0.0
C2299 C 0.10695 0.76808 0.08669 0.0
C2300 C 0.10691 0.75476 0.10502 0.0
C2301 C 0.11627 0.75012 0.07814 0.0
C2302 C 0.1165 0.79065 0.01988 0.0
C2303 C 0.09724 0.74563 0.15361 0.0
C2304 C 0.10043 0.79369 0.18271 0.0
C2305 C 0.08663 0.7919 0.16246 0.0
C2306 C 0.10672 0.78527 0.16071 0.0
C2307 C 0.09885 0.77451 0.11818 0.0
C2308 C 0.08436 0.77182 0.10042 0.0
C2309 C 0.07847 0.78069 0.12239 0.0
C2310 C 0.12232 0.78873 0.18015 0.0
C2311 C 0.07547 0.76017 0.05612 0.0
H2312 H 0.13164 0.77753 0.97831 0.0
H2313 H 0.11654 0.74013 0.0927 0.0
H2314 H 0.10487 0.78839 0.00963 0.0
H2315 H 0.12105 0.79941 0.05314 0.0
H2316 H 0.1238 0.79544 0.98248 0.0
H2317 H 0.09705 0.73462 0.15841 0.0
H2318 H 0.10177 0.75229 0.19246 0.0
H2319 H 0.08537 0.74329 0.14851 0.0
H2320 H 0.10671 0.80219 0.21425 0.0
H2321 H 0.06769 0.7791 0.10721 0.0
H2322 H 0.1307 0.79436 0.14613 0.0
H2323 H 0.12229 0.77806 0.19069 0.0
H2324 H 0.12627 0.79635 0.21701 0.0
H2325 H 0.08083 0.7646 0.01504 0.0
H2326 H 0.06343 0.75752 0.0541 0.0
H2327 H 0.07566 0.74945 0.0638 0.0
C2328 C 0.31142 0.21162 0.32207 0.0
C2329 C 0.29819 0.20866 0.35097 0.0
C2330 C 0.32589 0.22069 0.34522 0.0
C2331 C 0.32721 0.22701 0.3987 0.0
C2332 C 0.31397 0.22501 0.42644 0.0
C2333 C 0.29954 0.21579 0.4022 0.0
C2334 C 0.33966 0.22245 0.31419 0.0
C2335 C 0.31496 0.23177 0.48319 0.0
C2336 C 0.35952 0.22892 0.4835 0.0
C2337 C 0.37118 0.244 0.47502 0.0
C2338 C 0.34508 0.22342 0.45987 0.0
C2339 C 0.34201 0.23339 0.42852 0.0
C2340 C 0.3535 0.24885 0.42185 0.0
C2341 C 0.3681 0.25393 0.44443 0.0
C2342 C 0.33333 0.20673 0.4667 0.0
C2343 C 0.35044 0.25991 0.39026 0.0
H2344 H 0.31045 0.20634 0.28195 0.0
H2345 H 0.28934 0.21362 0.42447 0.0
H2346 H 0.34885 0.23456 0.31342 0.0
H2347 H 0.34422 0.2159 0.33583 0.0
H2348 H 0.33688 0.21827 0.27071 0.0
H2349 H 0.30423 0.23159 0.49452 0.0
H2350 H 0.31717 0.22512 0.51476 0.0
H2351 H 0.32456 0.24369 0.48503 0.0
H2352 H 0.36174 0.2212 0.50741 0.0
H2353 H 0.37704 0.26566 0.43857 0.0
H2354 H 0.33023 0.20111 0.4254 0.0
H2355 H 0.32277 0.2055 0.48547 0.0
H2356 H 0.33748 0.20058 0.49319 0.0
H2357 H 0.34859 0.25672 0.34569 0.0
H2358 H 0.36002 0.27183 0.39375 0.0
H2359 H 0.33988 0.25939 0.40593 0.0
C2360 C 0.74947 0.11473 0.44361 0.0
C2361 C 0.7572 0.12464 0.48781 0.0
C2362 C 0.75519 0.106 0.41912 0.0
C2363 C 0.76906 0.10746 0.43879 0.0
C2364 C 0.77648 0.11692 0.48502 0.0
C2365 C 0.77039 0.12526 0.50922 0.0
C2366 C 0.74679 0.09575 0.37067 0.0
C2367 C 0.79141 0.11899 0.50685 0.0
C2368 C 0.78501 0.08191 0.3976 0.0
C2369 C 0.7955 0.0908 0.35643 0.0
C2370 C 0.77559 0.08672 0.42286 0.0
C2371 C 0.77697 0.10084 0.40714 0.0
C2372 C 0.78721 0.10958 0.36438 0.0
C2373 C 0.79621 0.10438 0.33925 0.0
C2374 C 0.76455 0.07696 0.4675 0.0
C2375 C 0.78923 0.12482 0.34689 0.0
H2376 H 0.73917 0.11407 0.42735 0.0
H2377 H 0.77634 0.13274 0.54383 0.0
H2378 H 0.75318 0.1009 0.33175 0.0
H2379 H 0.74599 0.08448 0.37561 0.0
H2380 H 0.73511 0.09402 0.36611 0.0
H2381 H 0.79513 0.12589 0.54554 0.0
H2382 H 0.79041 0.10777 0.51535 0.0
H2383 H 0.80043 0.12479 0.47498 0.0
H2384 H 0.7843 0.07132 0.41058 0.0
H2385 H 0.80417 0.11125 0.30705 0.0
H2386 H 0.75315 0.0757 0.46009 0.0
H2387 H 0.76859 0.08257 0.50848 0.0
H2388 H 0.76334 0.06545 0.46955 0.0
H2389 H 0.77808 0.12361 0.33513 0.0
H2390 H 0.79718 0.12987 0.31125 0.0
H2391 H 0.79375 0.13293 0.38225 0.0
C2392 C 0.91281 0.69997 0.40724 0.0
C2393 C 0.90528 0.70251 0.36322 0.0
C2394 C 0.90684 0.68539 0.43099 0.0
C2395 C 0.89293 0.67318 0.41068 0.0
C2396 C 0.88544 0.67567 0.36571 0.0
C2397 C 0.89177 0.69024 0.34229 0.0
C2398 C 0.91525 0.68309 0.47839 0.0
C2399 C 0.87047 0.66303 0.34332 0.0
C2400 C 0.87972 0.63153 0.44115 0.0
C2401 C 0.86941 0.62849 0.48475 0.0
C2402 C 0.88796 0.64622 0.41799 0.0
C2403 C 0.8856 0.65801 0.43831 0.0
C2404 C 0.87533 0.65501 0.48276 0.0
C2405 C 0.86749 0.64034 0.50574 0.0
C2406 C 0.89899 0.64906 0.37119 0.0
C2407 C 0.87227 0.66718 0.50497 0.0
H2408 H 0.92331 0.70939 0.42331 0.0
H2409 H 0.8859 0.69207 0.30808 0.0
H2410 H 0.90828 0.68018 0.51677 0.0
H2411 H 0.9171 0.6734 0.46924 0.0
H2412 H 0.92647 0.69342 0.48654 0.0
H2413 H 0.86631 0.66676 0.3072 0.0
H2414 H 0.8717 0.65318 0.33044 0.0
H2415 H 0.86166 0.65896 0.37641 0.0
H2416 H 0.88134 0.62244 0.42512 0.0
H2417 H 0.85958 0.6381 0.53955 0.0
H2418 H 0.9103 0.65906 0.38088 0.0
H2419 H 0.89484 0.65175 0.33254 0.0
H2420 H 0.90045 0.63905 0.3632 0.0
H2421 H 0.88309 0.67733 0.51809 0.0
H2422 H 0.86431 0.66312 0.54087 0.0
H2423 H 0.86727 0.67092 0.4717 0.0
C2424 C 0.79214 0.69187 0.82708 0.0
C2425 C 0.79061 0.70398 0.84787 0.0
C2426 C 0.78361 0.67716 0.84898 0.0
C2427 C 0.77302 0.67437 0.89201 0.0
C2428 C 0.77062 0.68629 0.9105 0.0
C2429 C 0.77959 0.70105 0.8886 0.0
C2430 C 0.78676 0.66487 0.82874 0.0
C2431 C 0.75914 0.68365 0.95534 0.0
C2432 C 0.74816 0.63251 0.93094 0.0
C2433 C 0.75645 0.63139 0.97554 0.0
C2434 C 0.75293 0.64663 0.90474 0.0
C2435 C 0.76642 0.65975 0.92307 0.0
C2436 C 0.77458 0.65868 0.96887 0.0
C2437 C 0.76941 0.64459 0.99479 0.0
C2438 C 0.74378 0.64745 0.85675 0.0
C2439 C 0.78918 0.6723 0.98927 0.0
H2440 H 0.80049 0.69398 0.79506 0.0
H2441 H 0.7782 0.71033 0.9042 0.0
H2442 H 0.79233 0.6619 0.86235 0.0
H2443 H 0.77596 0.65436 0.81812 0.0
H2444 H 0.79433 0.66851 0.79172 0.0
H2445 H 0.75674 0.6932 0.95815 0.0
H2446 H 0.74828 0.67289 0.9476 0.0
H2447 H 0.76359 0.6825 0.99608 0.0
H2448 H 0.73805 0.62237 0.91628 0.0
H2449 H 0.77582 0.6439 0.02962 0.0
H2450 H 0.7503 0.6495 0.8176 0.0
H2451 H 0.74171 0.65714 0.86243 0.0
H2452 H 0.73263 0.63678 0.85213 0.0
H2453 H 0.79788 0.67645 0.9558 0.0
H2454 H 0.79394 0.6696 0.0263 0.0
H2455 H 0.78714 0.68178 8e-05 0.0
C2456 C 0.36668 0.11392 0.93061 0.0
C2457 C 0.36971 0.12693 0.96104 0.0
C2458 C 0.35213 0.10442 0.90767 0.0
C2459 C 0.34062 0.10837 0.91402 0.0
C2460 C 0.34378 0.12165 0.94402 0.0
C2461 C 0.35819 0.13061 0.96783 0.0
C2462 C 0.34904 0.09015 0.87705 0.0
C2463 C 0.33198 0.12655 0.95038 0.0
C2464 C 0.3081 0.09634 0.81264 0.0
C2465 C 0.29558 0.08593 0.84444 0.0
C2466 C 0.32298 0.10301 0.83351 0.0
C2467 C 0.32542 0.09917 0.88753 0.0
C2468 C 0.31293 0.08797 0.91857 0.0
C2469 C 0.2981 0.08147 0.89662 0.0
C2470 C 0.33595 0.11493 0.79908 0.0
C2471 C 0.31512 0.08348 0.97615 0.0
H2472 H 0.37555 0.11098 0.92588 0.0
H2473 H 0.3605 0.1407 0.99104 0.0
H2474 H 0.33928 0.08005 0.89652 0.0
H2475 H 0.34579 0.09066 0.83342 0.0
H2476 H 0.35908 0.08848 0.87699 0.0
H2477 H 0.33634 0.13728 0.97453 0.0
H2478 H 0.32834 0.12829 0.90884 0.0
H2479 H 0.32171 0.11748 0.97159 0.0
H2480 H 0.30624 0.09969 0.77193 0.0
H2481 H 0.28847 0.07336 0.9212 0.0
H2482 H 0.34556 0.11263 0.79773 0.0
H2483 H 0.34026 0.12631 0.81843 0.0
H2484 H 0.33239 0.1154 0.7558 0.0
H2485 H 0.3248 0.08125 0.97672 0.0
H2486 H 0.30473 0.07318 0.9915 0.0
H2487 H 0.31794 0.093 0.00538 0.0
C2488 C 0.89882 0.20677 0.83495 0.0
C2489 C 0.91259 0.20844 0.85494 0.0
C2490 C 0.89224 0.2147 0.8591 0.0
C2491 C 0.89979 0.22485 0.90359 0.0
C2492 C 0.91405 0.22713 0.9224 0.0
C2493 C 0.92022 0.21876 0.89819 0.0
C2494 C 0.87688 0.21171 0.83848 0.0
C2495 C 0.92256 0.23809 0.96905 0.0
C2496 C 0.88445 0.25131 0.93892 0.0
C2497 C 0.87454 0.24342 0.9829 0.0
C2498 C 0.89332 0.24579 0.91413 0.0
C2499 C 0.89202 0.23195 0.93326 0.0
C2500 C 0.8823 0.22416 0.97851 0.0
C2501 C 0.87381 0.23007 0.00306 0.0
C2502 C 0.90379 0.25454 0.86662 0.0
C2503 C 0.88038 0.20925 -0.00033 0.0
H2504 H 0.89289 0.19889 0.80131 0.0
H2505 H 0.93094 0.22021 0.91343 0.0
H2506 H 0.86832 0.20651 0.87221 0.0
H2507 H 0.87745 0.22257 0.82677 0.0
H2508 H 0.87282 0.20394 0.80203 0.0
H2509 H 0.9342 0.23979 0.97476 0.0
H2510 H 0.9235 0.24931 0.96089 0.0
H2511 H 0.91616 0.23368 0.00847 0.0
H2512 H 0.88515 0.2617 0.9235 0.0
H2513 H 0.86627 0.22395 0.03732 0.0
H2514 H 0.89949 0.24787 0.82766 0.0
H2515 H 0.91537 0.25628 0.87415 0.0
H2516 H 0.90467 0.26582 0.86041 0.0
H2517 H 0.8755 0.20051 0.96637 0.0
H2518 H 0.87277 0.20491 0.0365 0.0
H2519 H 0.89161 0.21062 0.01102 0.0
C2520 C 0.69196 0.79743 0.63631 0.0
C2521 C 0.70421 0.79503 0.62545 0.0
C2522 C 0.67757 0.78802 0.61311 0.0
C2523 C 0.67517 0.7756 0.57927 0.0
C2524 C 0.68733 0.77275 0.56955 0.0
C2525 C 0.70182 0.78265 0.59224 0.0
C2526 C 0.66503 0.79171 0.62353 0.0
C2527 C 0.68507 0.75938 0.53476 0.0
C2528 C 0.63296 0.74817 0.55705 0.0
C2529 C 0.63046 0.75381 0.50739 0.0
C2530 C 0.64775 0.75436 0.57916 0.0
C2531 C 0.66021 0.7665 0.55103 0.0
C2532 C 0.65782 0.77152 0.49912 0.0
C2533 C 0.643 0.76507 0.47791 0.0
C2534 C 0.64991 0.74855 0.63418 0.0
C2535 C 0.67073 0.78449 0.46786 0.0
H2536 H 0.69367 0.8069 0.66215 0.0
H2537 H 0.71122 0.78066 0.58433 0.0
H2538 H 0.66127 0.79422 0.58356 0.0
H2539 H 0.65498 0.78176 0.64233 0.0
H2540 H 0.66872 0.80167 0.65152 0.0
H2541 H 0.69529 0.75799 0.535 0.0
H2542 H 0.67515 0.74871 0.5503 0.0
H2543 H 0.68254 0.76094 0.49121 0.0
H2544 H 0.62333 0.73936 0.57972 0.0
H2545 H 0.64119 0.76934 0.43902 0.0
H2546 H 0.65193 0.75702 0.66713 0.0
H2547 H 0.66004 0.74706 0.63288 0.0
H2548 H 0.63976 0.73753 0.64592 0.0
H2549 H 0.67461 0.79529 0.49105 0.0
H2550 H 0.66728 0.78589 0.42543 0.0
H2551 H 0.68061 0.78265 0.46436 0.0
C2552 C 0.2037 0.89483 0.66806 0.0
C2553 C 0.20455 0.9083 0.6486 0.0
C2554 C 0.21246 0.88915 0.64412 0.0
C2555 C 0.22252 0.89724 0.60005 0.0
C2556 C 0.22399 0.91122 0.58183 0.0
C2557 C 0.21488 0.91655 0.60612 0.0
C2558 C 0.21039 0.8741 0.6644 0.0
C2559 C 0.2348 0.92028 0.53554 0.0
C2560 C 0.25053 0.88382 0.56418 0.0
C2561 C 0.24295 0.87377 0.52016 0.0
C2562 C 0.24442 0.89217 0.58905 0.0
C2563 C 0.23029 0.89019 0.56997 0.0
C2564 C 0.2228 0.88031 0.52474 0.0
C2565 C 0.22929 0.87235 0.50015 0.0
C2566 C 0.25285 0.90279 0.6366 0.0
C2567 C 0.2076 0.87767 0.50364 0.0
H2568 H 0.19585 0.88844 0.70122 0.0
H2569 H 0.21568 0.92703 0.59125 0.0
H2570 H 0.2055 0.86552 0.63062 0.0
H2571 H 0.22157 0.87532 0.67572 0.0
H2572 H 0.20271 0.86966 0.70102 0.0
H2573 H 0.23591 0.9317 0.53063 0.0
H2574 H 0.24626 0.92175 0.54343 0.0
H2575 H 0.23061 0.91399 0.4958 0.0
H2576 H 0.26117 0.88507 0.57947 0.0
H2577 H 0.22339 0.86469 0.46591 0.0
H2578 H 0.24628 0.89821 0.67559 0.0
H2579 H 0.25397 0.91413 0.62928 0.0
H2580 H 0.2644 0.90429 0.64259 0.0
H2581 H 0.19889 0.87236 0.53684 0.0
H2582 H 0.20359 0.87012 0.46659 0.0
H2583 H 0.20839 0.88868 0.49269 0.0
C2584 C 0.1163 0.35566 0.47495 0.0
C2585 C 0.12105 0.36859 0.50836 0.0
C2586 C 0.10799 0.34097 0.49725 0.0
C2587 C 0.10443 0.33918 0.55455 0.0
C2588 C 0.10815 0.35217 0.5876 0.0
C2589 C 0.11643 0.3668 0.564 0.0
C2590 C 0.10422 0.32745 0.46042 0.0
C2591 C 0.10441 0.3507 0.64875 0.0
C2592 C 0.07987 0.29846 0.60705 0.0
C2593 C 0.09108 0.29544 0.62712 0.0
C2594 C 0.08392 0.31287 0.58486 0.0
C2595 C 0.09953 0.3242 0.58119 0.0
C2596 C 0.11084 0.32103 0.6007 0.0
C2597 C 0.10645 0.3068 0.62422 0.0
C2598 C 0.07156 0.31603 0.56592 0.0
C2599 C 0.12766 0.33259 0.59602 0.0
H2600 H 0.11963 0.35701 0.43158 0.0
H2601 H 0.12 0.37679 0.58983 0.0
H2602 H 0.11184 0.32287 0.47099 0.0
H2603 H 0.09232 0.31818 0.4672 0.0
H2604 H 0.10572 0.33056 0.41567 0.0
H2605 H 0.10556 0.36139 0.66617 0.0
H2606 H 0.09263 0.34123 0.65628 0.0
H2607 H 0.11229 0.34801 0.67159 0.0
H2608 H 0.06796 0.28972 0.61005 0.0
H2609 H 0.11516 0.30454 0.63957 0.0
H2610 H 0.07313 0.31929 0.5214 0.0
H2611 H 0.07235 0.3258 0.58958 0.0
H2612 H 0.05997 0.30603 0.57172 0.0
H2613 H 0.13074 0.33578 0.55185 0.0
H2614 H 0.13498 0.32822 0.61268 0.0
H2615 H 0.13029 0.34313 0.61895 0.0
C2616 C 0.03929 0.58648 0.76332 0.0
C2617 C 0.04198 0.57909 0.80742 0.0
C2618 C 0.02464 0.58034 0.73988 0.0
C2619 C 0.01254 0.56642 0.76063 0.0
C2620 C 0.01518 0.55913 0.8059 0.0
C2621 C 0.0298 0.56561 0.82895 0.0
C2622 C 0.02218 0.58853 0.69212 0.0
C2623 C 0.00268 0.54416 0.82876 0.0
C2624 C 0.97056 0.55154 0.72953 0.0
C2625 C 0.96788 0.5409 0.68751 0.0
C2626 C 0.98526 0.56054 0.75203 0.0
C2627 C 0.99743 0.55867 0.73248 0.0
C2628 C 0.99482 0.54823 0.68908 0.0
C2629 C 0.98013 0.53958 0.66691 0.0
C2630 C 0.98767 0.57172 0.79778 0.0
C2631 C 0.00741 0.5457 0.66757 0.0
H2632 H 0.04863 0.59695 0.74681 0.0
H2633 H 0.03174 0.55987 0.86328 0.0
H2634 H 0.01965 0.58161 0.65375 0.0
H2635 H 0.0122 0.58998 0.70048 0.0
H2636 H 0.03232 0.59992 0.6844 0.0
H2637 H 0.00645 0.54029 0.86557 0.0
H2638 H 0.99266 0.54519 0.84073 0.0
H2639 H 0.99885 0.53522 0.79622 0.0
H2640 H 0.96116 0.5527 0.74528 0.0
H2641 H 0.9782 0.53146 0.63416 0.0
H2642 H 0.99762 0.58307 0.78811 0.0
H2643 H 0.99023 0.5678 0.83727 0.0
H2644 H 0.9775 0.573 0.80422 0.0
H2645 H 0.01738 0.55668 0.65472 0.0
H2646 H 0.00369 0.53775 0.63165 0.0
H2647 H 0.01128 0.54092 0.70116 0.0
C2648 C 0.41877 0.45092 0.76379 0.0
C2649 C 0.42535 0.46082 0.809 0.0
C2650 C 0.42571 0.44306 0.74115 0.0
C2651 C 0.43965 0.4454 0.76374 0.0
C2652 C 0.44617 0.45519 0.80993 0.0
C2653 C 0.43888 0.46265 0.83225 0.0
C2654 C 0.4183 0.43252 0.69242 0.0
C2655 C 0.46115 0.4582 0.83472 0.0
C2656 C 0.45535 0.41889 0.73438 0.0
C2657 C 0.46602 0.4269 0.69249 0.0
C2658 C 0.44624 0.42447 0.75668 0.0
C2659 C 0.44804 0.43848 0.73715 0.0
C2660 C 0.45869 0.44651 0.69446 0.0
C2661 C 0.46745 0.44056 0.67242 0.0
C2662 C 0.43486 0.41551 0.80167 0.0
C2663 C 0.46114 0.4616 0.67305 0.0
H2664 H 0.40826 0.44938 0.74591 0.0
H2665 H 0.44402 0.4702 0.86739 0.0
H2666 H 0.42565 0.43716 0.65516 0.0
H2667 H 0.41704 0.42118 0.70113 0.0
H2668 H 0.40689 0.43098 0.68262 0.0
H2669 H 0.46446 0.46578 0.87164 0.0
H2670 H 0.46043 0.44732 0.84713 0.0
H2671 H 0.47033 0.46361 0.80318 0.0
H2672 H 0.45411 0.40826 0.7497 0.0
H2673 H 0.47562 0.4468 0.63992 0.0
H2674 H 0.42341 0.41357 0.7902 0.0
H2675 H 0.43822 0.42212 0.84097 0.0
H2676 H 0.43404 0.4043 0.80934 0.0
H2677 H 0.45021 0.46035 0.65816 0.0
H2678 H 0.46954 0.46617 0.63855 0.0
H2679 H 0.46529 0.47009 0.70725 0.0
C2680 C 0.53997 0.97572 0.83003 0.0
C2681 C 0.54101 0.96352 0.80725 0.0
C2682 C 0.54807 0.99037 0.80721 0.0
C2683 C 0.55769 0.993 0.76095 0.0
C2684 C 0.5593 0.98089 0.73905 0.0
C2685 C 0.55083 0.96622 0.76224 0.0
C2686 C 0.54585 0.0029 0.83136 0.0
C2687 C 0.56964 0.98335 0.69027 0.0
C2688 C 0.56312 0.02565 0.66883 0.0
C2689 C 0.57687 0.03776 0.6889 0.0
C2690 C 0.55702 0.01093 0.69076 0.0
C2691 C 0.565 0.00816 0.73321 0.0
C2692 C 0.5792 0.02019 0.75217 0.0
C2693 C 0.58492 0.03492 0.73008 0.0
C2694 C 0.54172 0.99849 0.67 0.0
C2695 C 0.58813 0.01759 0.79678 0.0
H2696 H 0.53251 0.97378 0.86509 0.0
H2697 H 0.55175 0.95685 0.74475 0.0
H2698 H 0.55701 0.01285 0.84288 0.0
H2699 H 0.54061 0.00685 0.79973 0.0
H2700 H 0.53841 0.99911 0.86872 0.0
H2701 H 0.5708 0.97319 0.68171 0.0
H2702 H 0.56503 0.98593 0.65258 0.0
H2703 H 0.58114 0.99329 0.698 0.0
H2704 H 0.55686 0.02773 0.63677 0.0
H2705 H 0.59563 0.04421 0.74534 0.0
H2706 H 0.53328 0.9946 0.70431 0.0
H2707 H 0.54256 0.98849 0.65608 0.0
H2708 H 0.53734 0.00236 0.63499 0.0
H2709 H 0.58187 0.01499 0.83674 0.0
H2710 H 0.59965 0.02769 0.80283 0.0
H2711 H 0.58939 0.00761 0.78613 0.0
C2712 C 0.4525 0.03646 0.22892 0.0
C2713 C 0.46306 0.03921 0.18652 0.0
C2714 C 0.44374 0.02179 0.25179 0.0
C2715 C 0.44582 0.00975 0.23226 0.0
C2716 C 0.45615 0.01242 0.18839 0.0
C2717 C 0.46452 0.02706 0.1658 0.0
C2718 C 0.43263 0.01927 0.29792 0.0
C2719 C 0.45887 0.99996 0.16685 0.0
C2720 C 0.43996 0.97761 0.32775 0.0
C2721 C 0.42665 0.96526 0.30608 0.0
C2722 C 0.44597 0.99226 0.30538 0.0
C2723 C 0.43838 0.9947 0.26065 0.0
C2724 C 0.42457 0.98242 0.24006 0.0
C2725 C 0.4189 0.96777 0.26281 0.0
C2726 C 0.46084 0.00499 0.32808 0.0
C2727 C 0.41605 0.98467 0.19291 0.0
H2728 H 0.45123 0.04579 0.24472 0.0
H2729 H 0.47256 0.02905 0.13269 0.0
H2730 H 0.42137 0.00913 0.28891 0.0
H2731 H 0.43681 0.01701 0.33738 0.0
H2732 H 0.4311 0.0293 0.30404 0.0
H2733 H 0.46676 0.00373 0.13075 0.0
H2734 H 0.46382 0.99623 0.20034 0.0
H2735 H 0.44793 0.98987 0.15425 0.0
H2736 H 0.44596 0.97579 0.3615 0.0
H2737 H 0.40853 0.95828 0.24628 0.0
H2738 H 0.45957 0.01488 0.33995 0.0
H2739 H 0.46977 0.00895 0.29547 0.0
H2740 H 0.46487 0.00139 0.36491 0.0
H2741 H 0.41453 0.9946 0.20137 0.0
H2742 H 0.40468 0.97444 0.18595 0.0
H2743 H 0.42278 0.98715 0.15406 0.0
C2744 C 0.03543 0.45201 0.25176 0.0
C2745 C 0.03747 0.46262 0.29312 0.0
C2746 C 0.02098 0.44268 0.22785 0.0
C2747 C 0.00846 0.44428 0.24502 0.0
C2748 C 0.0105 0.45491 0.28701 0.0
C2749 C 0.02491 0.4638 0.31086 0.0
C2750 C 0.01912 0.43124 0.18391 0.0
C2751 C 0.99755 0.45722 0.30579 0.0
C2752 C 0.9755 0.43596 0.15005 0.0
C2753 C 0.96346 0.42304 0.17517 0.0
C2754 C 0.9904 0.44248 0.17052 0.0
C2755 C 0.99342 0.4358 0.21682 0.0
C2756 C 0.9815 0.42218 0.24021 0.0
C2757 C 0.96659 0.416 0.21933 0.0
C2758 C 0.00271 0.4571 0.14477 0.0
C2759 C 0.98436 0.41458 0.28897 0.0
H2760 H 0.04508 0.45095 0.23836 0.0
H2761 H 0.02636 0.47191 0.34297 0.0
H2762 H 0.00956 0.41978 0.19495 0.0
H2763 H 0.01621 0.43445 0.14357 0.0
H2764 H 0.02964 0.43053 0.17843 0.0
H2765 H 0.001 0.46581 0.33954 0.0
H2766 H 0.99332 0.46105 0.27022 0.0
H2767 H 0.98788 0.4463 0.32084 0.0
H2768 H 0.97322 0.44137 0.11542 0.0
H2769 H 0.95735 0.40592 0.23847 0.0
H2770 H 0.01294 0.4562 0.13515 0.0
H2771 H 0.00624 0.46661 0.17477 0.0
H2772 H 0.99881 0.46007 0.10601 0.0
H2773 H 0.99475 0.41375 0.2819 0.0
H2774 H 0.97458 0.40297 0.29678 0.0
H2775 H 0.98633 0.42156 0.32688 0.0
C2776 C 0.58619 0.55261 0.24817 0.0
C2777 C 0.58003 0.5447 0.19846 0.0
C2778 C 0.58032 0.56124 0.27276 0.0
C2779 C 0.56789 0.56166 0.24736 0.0
C2780 C 0.56217 0.55426 0.1959 0.0
C2781 C 0.56839 0.54603 0.17196 0.0
C2782 C 0.58697 0.56935 0.32694 0.0
C2783 C 0.54878 0.55418 0.16764 0.0
C2784 C 0.53734 0.56308 0.33247 0.0
C2785 C 0.53929 0.57735 0.31796 0.0
C2786 C 0.54709 0.55817 0.31195 0.0
C2787 C 0.55939 0.56795 0.27712 0.0
C2788 C 0.562 0.58276 0.26495 0.0
C2789 C 0.55175 0.58723 0.28489 0.0
C2790 C 0.54363 0.54214 0.3249 0.0
C2791 C 0.57526 0.59365 0.22929 0.0
H2792 H 0.59531 0.55178 0.26846 0.0
H2793 H 0.5637 0.54016 0.13303 0.0
H2794 H 0.58849 0.58099 0.32618 0.0
H2795 H 0.57901 0.56303 0.36136 0.0
H2796 H 0.59813 0.5702 0.33607 0.0
H2797 H 0.54627 0.54858 0.12626 0.0
H2798 H 0.53846 0.54803 0.194 0.0
H2799 H 0.551 0.56599 0.16222 0.0
H2800 H 0.52784 0.55543 0.35849 0.0
H2801 H 0.55345 0.59838 0.27438 0.0
H2802 H 0.55388 0.54229 0.34187 0.0
H2803 H 0.54041 0.53529 0.28611 0.0
H2804 H 0.53417 0.53631 0.35524 0.0
H2805 H 0.58583 0.59373 0.24208 0.0
H2806 H 0.57725 0.60546 0.23166 0.0
H2807 H 0.57299 0.58987 0.18535 0.0
loop_
_geom_bond_atom_site_label_1
_geom_bond_atom_site_label_2
_geom_bond_distance
_geom_bond_site_symmetry_2
_ccdc_geom_bond_type
Co0 O1 2.216 . S
Co0 O2 2.091 . S
Co0 O4 2.004 . S
Co0 O10 2.021 . S
Co0 O12 2.137 . S
Co0 O13 2.244 . S
O1 Co0 2.216 . S
O1 C8 1.247 . S
O2 Co0 2.091 . S
O2 C8 1.261 . S
C3 O12 1.247 . S
C3 O13 1.272 . S
O4 Co0 2.004 . S
O4 C9 1.259 . S
Co5 O6 2.061 . S
Co5 O11 2.052 . S
Co5 O13 2.135 . S
O6 Co5 2.061 . S
O6 C9 1.235 . S
C7 O10 1.238 . S
C7 O11 1.241 . S
C8 O1 1.247 . S
C8 O2 1.261 . S
C9 O4 1.259 . S
C9 O6 1.235 . S
O10 Co0 2.021 . S
O10 C7 1.238 . S
O11 Co5 2.052 . S
O11 C7 1.241 . S
O12 Co0 2.137 . S
O12 C3 1.247 . S
O13 Co0 2.244 . S
O13 C3 1.272 . S
O13 Co5 2.135 . S
Co14 O15 2.216 . S
Co14 O16 2.091 . S
Co14 O18 2.004 . S
Co14 O24 2.021 . S
Co14 O26 2.137 . S
Co14 O27 2.244 . S
O15 Co14 2.216 . S
O15 C22 1.247 . S
O16 Co14 2.091 . S
O16 C22 1.261 . S
C17 O26 1.247 . S
C17 O27 1.272 . S
O18 Co14 2.004 . S
O18 C23 1.259 . S
Co19 O20 2.061 . S
Co19 O25 2.052 . S
Co19 O27 2.135 . S
O20 Co19 2.061 . S
O20 C23 1.235 . S
C21 O24 1.238 . S
C21 O25 1.241 . S
C22 O15 1.247 . S
C22 O16 1.261 . S
C23 O18 1.259 . S
C23 O20 1.235 . S
O24 Co14 2.021 . S
O24 C21 1.238 . S
O25 Co19 2.052 . S
O25 C21 1.241 . S
O26 Co14 2.137 . S
O26 C17 1.247 . S
O27 Co14 2.244 . S
O27 C17 1.272 . S
O27 Co19 2.135 . S
Co28 O29 2.216 . S
Co28 O30 2.091 . S
Co28 O32 2.004 . S
Co28 O38 2.021 . S
Co28 O40 2.137 . S
Co28 O41 2.244 . S
O29 Co28 2.216 . S
O29 C36 1.247 . S
O30 Co28 2.091 . S
O30 C36 1.261 . S
C31 O40 1.247 . S
C31 O41 1.272 . S
O32 Co28 2.004 . S
O32 C37 1.259 . S
Co33 O34 2.061 . S
Co33 O39 2.052 . S
Co33 O41 2.135 . S
O34 Co33 2.061 . S
O34 C37 1.235 . S
C35 O38 1.238 . S
C35 O39 1.241 . S
C36 O29 1.247 . S
C36 O30 1.261 . S
C37 O32 1.259 . S
C37 O34 1.235 . S
O38 Co28 2.021 . S
O38 C35 1.238 . S
O39 Co33 2.052 . S
O39 C35 1.241 . S
O40 Co28 2.137 . S
O40 C31 1.247 . S
O41 Co28 2.244 . S
O41 C31 1.272 . S
O41 Co33 2.135 . S
Co42 O43 2.216 . S
Co42 O44 2.091 . S
Co42 O46 2.004 . S
Co42 O52 2.021 . S
Co42 O54 2.137 . S
Co42 O55 2.244 . S
O43 Co42 2.216 . S
O43 C50 1.247 . S
O44 Co42 2.091 . S
O44 C50 1.261 . S
C45 O54 1.247 . S
C45 O55 1.272 . S
O46 Co42 2.004 . S
O46 C51 1.259 . S
Co47 O48 2.061 . S
Co47 O53 2.052 . S
Co47 O55 2.135 . S
O48 Co47 2.061 . S
O48 C51 1.235 . S
C49 O52 1.238 . S
C49 O53 1.241 . S
C50 O43 1.247 . S
C50 O44 1.261 . S
C51 O46 1.259 . S
C51 O48 1.235 . S
O52 Co42 2.021 . S
O52 C49 1.238 . S
O53 Co47 2.052 . S
O53 C49 1.241 . S
O54 Co42 2.137 . S
O54 C45 1.247 . S
O55 Co42 2.244 . S
O55 C45 1.272 . S
O55 Co47 2.135 . S
Co56 O57 2.216 . S
Co56 O58 2.091 . S
Co56 O60 2.004 . S
Co56 O66 2.021 . S
Co56 O68 2.137 . S
Co56 O69 2.244 . S
O57 Co56 2.216 . S
O57 C64 1.247 . S
O58 Co56 2.091 . S
O58 C64 1.261 . S
C59 O68 1.247 . S
C59 O69 1.272 . S
O60 Co56 2.004 . S
O60 C65 1.259 . S
Co61 O62 2.061 . S
Co61 O67 2.052 . S
Co61 O69 2.135 . S
O62 Co61 2.061 . S
O62 C65 1.235 . S
C63 O66 1.238 . S
C63 O67 1.241 . S
C64 O57 1.247 . S
C64 O58 1.261 . S
C65 O60 1.259 . S
C65 O62 1.235 . S
O66 Co56 2.021 . S
O66 C63 1.238 . S
O67 Co61 2.052 . S
O67 C63 1.241 . S
O68 Co56 2.137 . S
O68 C59 1.247 . S
O69 Co56 2.244 . S
O69 C59 1.272 . S
O69 Co61 2.135 . S
Co70 O71 2.216 . S
Co70 O72 2.091 . S
Co70 O74 2.004 . S
Co70 O80 2.021 . S
Co70 O82 2.137 . S
Co70 O83 2.244 . S
O71 Co70 2.216 . S
O71 C78 1.247 . S
O72 Co70 2.091 . S
O72 C78 1.261 . S
C73 O82 1.247 . S
C73 O83 1.272 . S
O74 Co70 2.004 . S
O74 C79 1.259 . S
Co75 O76 2.061 . S
Co75 O81 2.052 . S
Co75 O83 2.135 . S
O76 Co75 2.061 . S
O76 C79 1.235 . S
C77 O80 1.238 . S
C77 O81 1.241 . S
C78 O71 1.247 . S
C78 O72 1.261 . S
C79 O74 1.259 . S
C79 O76 1.235 . S
O80 Co70 2.021 . S
O80 C77 1.238 . S
O81 Co75 2.052 . S
O81 C77 1.241 . S
O82 Co70 2.137 . S
O82 C73 1.247 . S
O83 Co70 2.244 . S
O83 C73 1.272 . S
O83 Co75 2.135 . S
Co84 O85 2.216 . S
Co84 O86 2.091 . S
Co84 O88 2.004 . S
Co84 O94 2.021 . S
Co84 O96 2.137 . S
Co84 O97 2.244 . S
O85 Co84 2.216 . S
O85 C92 1.247 . S
O86 Co84 2.091 . S
O86 C92 1.261 . S
C87 O96 1.247 . S
C87 O97 1.272 . S
O88 Co84 2.004 . S
O88 C93 1.259 . S
Co89 O90 2.061 . S
Co89 O95 2.052 . S
Co89 O97 2.135 . S
O90 Co89 2.061 . S
O90 C93 1.235 . S
C91 O94 1.238 . S
C91 O95 1.241 . S
C92 O85 1.247 . S
C92 O86 1.261 . S
C93 O88 1.259 . S
C93 O90 1.235 . S
O94 Co84 2.021 . S
O94 C91 1.238 . S
O95 Co89 2.052 . S
O95 C91 1.241 . S
O96 Co84 2.137 . S
O96 C87 1.247 . S
O97 Co84 2.244 . S
O97 C87 1.272 . S
O97 Co89 2.135 . S
Co98 O99 2.216 . S
Co98 O100 2.091 . S
Co98 O102 2.004 . S
Co98 O108 2.021 . S
Co98 O110 2.137 . S
Co98 O111 2.244 . S
O99 Co98 2.216 . S
O99 C106 1.247 . S
O100 Co98 2.091 . S
O100 C106 1.261 . S
C101 O110 1.247 . S
C101 O111 1.272 . S
O102 Co98 2.004 . S
O102 C107 1.259 . S
Co103 O104 2.061 . S
Co103 O109 2.052 . S
Co103 O111 2.135 . S
O104 Co103 2.061 . S
O104 C107 1.235 . S
C105 O108 1.238 . S
C105 O109 1.241 . S
C106 O99 1.247 . S
C106 O100 1.261 . S
C107 O102 1.259 . S
C107 O104 1.235 . S
O108 Co98 2.021 . S
O108 C105 1.238 . S
O109 Co103 2.052 . S
O109 C105 1.241 . S
O110 Co98 2.137 . S
O110 C101 1.247 . S
O111 Co98 2.244 . S
O111 C101 1.272 . S
O111 Co103 2.135 . S
Co112 O113 2.216 . S
Co112 O114 2.091 . S
Co112 O116 2.004 . S
Co112 O122 2.021 . S
Co112 O124 2.137 . S
Co112 O125 2.244 . S
O113 Co112 2.216 . S
O113 C120 1.247 . S
O114 Co112 2.091 . S
O114 C120 1.261 . S
C115 O124 1.247 . S
C115 O125 1.272 . S
O116 Co112 2.004 . S
O116 C121 1.259 . S
Co117 O118 2.061 . S
Co117 O123 2.052 . S
Co117 O125 2.135 . S
O118 Co117 2.061 . S
O118 C121 1.235 . S
C119 O122 1.238 . S
C119 O123 1.241 . S
C120 O113 1.247 . S
C120 O114 1.261 . S
C121 O116 1.259 . S
C121 O118 1.235 . S
O122 Co112 2.021 . S
O122 C119 1.238 . S
O123 Co117 2.052 . S
O123 C119 1.241 . S
O124 Co112 2.137 . S
O124 C115 1.247 . S
O125 Co112 2.244 . S
O125 C115 1.272 . S
O125 Co117 2.135 . S
Co126 O127 2.216 . S
Co126 O128 2.091 . S
Co126 O130 2.004 . S
Co126 O136 2.021 . S
Co126 O138 2.137 . S
Co126 O139 2.244 . S
O127 Co126 2.216 . S
O127 C134 1.247 . S
O128 Co126 2.091 . S
O128 C134 1.261 . S
C129 O138 1.247 . S
C129 O139 1.272 . S
O130 Co126 2.004 . S
O130 C135 1.259 . S
Co131 O132 2.061 . S
Co131 O137 2.052 . S
Co131 O139 2.135 . S
O132 Co131 2.061 . S
O132 C135 1.235 . S
C133 O136 1.238 . S
C133 O137 1.241 . S
C134 O127 1.247 . S
C134 O128 1.261 . S
C135 O130 1.259 . S
C135 O132 1.235 . S
O136 Co126 2.021 . S
O136 C133 1.238 . S
O137 Co131 2.052 . S
O137 C133 1.241 . S
O138 Co126 2.137 . S
O138 C129 1.247 . S
O139 Co126 2.244 . S
O139 C129 1.272 . S
O139 Co131 2.135 . S
Co140 O141 2.216 . S
Co140 O142 2.091 . S
Co140 O144 2.004 . S
Co140 O150 2.021 . S
Co140 O152 2.137 . S
Co140 O153 2.244 . S
O141 Co140 2.216 . S
O141 C148 1.247 . S
O142 Co140 2.091 . S
O142 C148 1.261 . S
C143 O152 1.247 . S
C143 O153 1.272 . S
O144 Co140 2.004 . S
O144 C149 1.259 . S
Co145 O146 2.061 . S
Co145 O151 2.052 . S
Co145 O153 2.135 . S
O146 Co145 2.061 . S
O146 C149 1.235 . S
C147 O150 1.238 . S
C147 O151 1.241 . S
C148 O141 1.247 . S
C148 O142 1.261 . S
C149 O144 1.259 . S
C149 O146 1.235 . S
O150 Co140 2.021 . S
O150 C147 1.238 . S
O151 Co145 2.052 . S
O151 C147 1.241 . S
O152 Co140 2.137 . S
O152 C143 1.247 . S
O153 Co140 2.244 . S
O153 C143 1.272 . S
O153 Co145 2.135 . S
Co154 O155 2.216 . S
Co154 O156 2.091 . S
Co154 O158 2.004 . S
Co154 O164 2.021 . S
Co154 O166 2.137 . S
Co154 O167 2.244 . S
O155 Co154 2.216 . S
O155 C162 1.247 . S
O156 Co154 2.091 . S
O156 C162 1.261 . S
C157 O166 1.247 . S
C157 O167 1.272 . S
O158 Co154 2.004 . S
O158 C163 1.259 . S
Co159 O160 2.061 . S
Co159 O165 2.052 . S
Co159 O167 2.135 . S
O160 Co159 2.061 . S
O160 C163 1.235 . S
C161 O164 1.238 . S
C161 O165 1.241 . S
C162 O155 1.247 . S
C162 O156 1.261 . S
C163 O158 1.259 . S
C163 O160 1.235 . S
O164 Co154 2.021 . S
O164 C161 1.238 . S
O165 Co159 2.052 . S
O165 C161 1.241 . S
O166 Co154 2.137 . S
O166 C157 1.247 . S
O167 Co154 2.244 . S
O167 C157 1.272 . S
O167 Co159 2.135 . S
Co168 O169 2.216 . S
Co168 O170 2.091 . S
Co168 O172 2.004 . S
Co168 O178 2.021 . S
Co168 O180 2.137 . S
Co168 O181 2.244 . S
O169 Co168 2.216 . S
O169 C176 1.247 . S
O170 Co168 2.091 . S
O170 C176 1.261 . S
C171 O180 1.247 . S
C171 O181 1.272 . S
O172 Co168 2.004 . S
O172 C177 1.259 . S
Co173 O174 2.061 . S
Co173 O179 2.052 . S
Co173 O181 2.135 . S
O174 Co173 2.061 . S
O174 C177 1.235 . S
C175 O178 1.238 . S
C175 O179 1.241 . S
C176 O169 1.247 . S
C176 O170 1.261 . S
C177 O172 1.259 . S
C177 O174 1.235 . S
O178 Co168 2.021 . S
O178 C175 1.238 . S
O179 Co173 2.052 . S
O179 C175 1.241 . S
O180 Co168 2.137 . S
O180 C171 1.247 . S
O181 Co168 2.244 . S
O181 C171 1.272 . S
O181 Co173 2.135 . S
Co182 O183 2.216 . S
Co182 O184 2.091 . S
Co182 O186 2.004 . S
Co182 O192 2.021 . S
Co182 O194 2.137 . S
Co182 O195 2.244 . S
O183 Co182 2.216 . S
O183 C190 1.247 . S
O184 Co182 2.091 . S
O184 C190 1.261 . S
C185 O194 1.247 . S
C185 O195 1.272 . S
O186 Co182 2.004 . S
O186 C191 1.259 . S
Co187 O188 2.061 . S
Co187 O193 2.052 . S
Co187 O195 2.135 . S
O188 Co187 2.061 . S
O188 C191 1.235 . S
C189 O192 1.238 . S
C189 O193 1.241 . S
C190 O183 1.247 . S
C190 O184 1.261 . S
C191 O186 1.259 . S
C191 O188 1.235 . S
O192 Co182 2.021 . S
O192 C189 1.238 . S
O193 Co187 2.052 . S
O193 C189 1.241 . S
O194 Co182 2.137 . S
O194 C185 1.247 . S
O195 Co182 2.244 . S
O195 C185 1.272 . S
O195 Co187 2.135 . S
Co196 O197 2.216 . S
Co196 O198 2.091 . S
Co196 O200 2.004 . S
Co196 O206 2.021 . S
Co196 O208 2.137 . S
Co196 O209 2.244 . S
O197 Co196 2.216 . S
O197 C204 1.247 . S
O198 Co196 2.091 . S
O198 C204 1.261 . S
C199 O208 1.247 . S
C199 O209 1.272 . S
O200 Co196 2.004 . S
O200 C205 1.259 . S
Co201 O202 2.061 . S
Co201 O207 2.052 . S
Co201 O209 2.135 . S
O202 Co201 2.061 . S
O202 C205 1.235 . S
C203 O206 1.238 . S
C203 O207 1.241 . S
C204 O197 1.247 . S
C204 O198 1.261 . S
C205 O200 1.259 . S
C205 O202 1.235 . S
O206 Co196 2.021 . S
O206 C203 1.238 . S
O207 Co201 2.052 . S
O207 C203 1.241 . S
O208 Co196 2.137 . S
O208 C199 1.247 . S
O209 Co196 2.244 . S
O209 C199 1.272 . S
O209 Co201 2.135 . S
Co210 O211 2.216 . S
Co210 O212 2.091 . S
Co210 O214 2.004 . S
Co210 O220 2.021 . S
Co210 O222 2.137 . S
Co210 O223 2.244 . S
O211 Co210 2.216 . S
O211 C218 1.247 . S
O212 Co210 2.091 . S
O212 C218 1.261 . S
C213 O222 1.247 . S
C213 O223 1.272 . S
O214 Co210 2.004 . S
O214 C219 1.259 . S
Co215 O216 2.061 . S
Co215 O221 2.052 . S
Co215 O223 2.135 . S
O216 Co215 2.061 . S
O216 C219 1.235 . S
C217 O220 1.238 . S
C217 O221 1.241 . S
C218 O211 1.247 . S
C218 O212 1.261 . S
C219 O214 1.259 . S
C219 O216 1.235 . S
O220 Co210 2.021 . S
O220 C217 1.238 . S
O221 Co215 2.052 . S
O221 C217 1.241 . S
O222 Co210 2.137 . S
O222 C213 1.247 . S
O223 Co210 2.244 . S
O223 C213 1.272 . S
O223 Co215 2.135 . S
Co224 O225 2.216 . S
Co224 O226 2.091 . S
Co224 O228 2.004 . S
Co224 O234 2.021 . S
Co224 O236 2.137 . S
Co224 O237 2.244 . S
O225 Co224 2.216 . S
O225 C232 1.247 . S
O226 Co224 2.091 . S
O226 C232 1.261 . S
C227 O236 1.247 . S
C227 O237 1.272 . S
O228 Co224 2.004 . S
O228 C233 1.259 . S
Co229 O230 2.061 . S
Co229 O235 2.052 . S
Co229 O237 2.135 . S
O230 Co229 2.061 . S
O230 C233 1.235 . S
C231 O234 1.238 . S
C231 O235 1.241 . S
C232 O225 1.247 . S
C232 O226 1.261 . S
C233 O228 1.259 . S
C233 O230 1.235 . S
O234 Co224 2.021 . S
O234 C231 1.238 . S
O235 Co229 2.052 . S
O235 C231 1.241 . S
O236 Co224 2.137 . S
O236 C227 1.247 . S
O237 Co224 2.244 . S
O237 C227 1.272 . S
O237 Co229 2.135 . S
Co238 O239 2.216 . S
Co238 O240 2.091 . S
Co238 O242 2.004 . S
Co238 O248 2.021 . S
Co238 O250 2.137 . S
Co238 O251 2.244 . S
O239 Co238 2.216 . S
O239 C246 1.247 . S
O240 Co238 2.091 . S
O240 C246 1.261 . S
C241 O250 1.247 . S
C241 O251 1.272 . S
O242 Co238 2.004 . S
O242 C247 1.259 . S
Co243 O244 2.061 . S
Co243 O249 2.052 . S
Co243 O251 2.135 . S
O244 Co243 2.061 . S
O244 C247 1.235 . S
C245 O248 1.238 . S
C245 O249 1.241 . S
C246 O239 1.247 . S
C246 O240 1.261 . S
C247 O242 1.259 . S
C247 O244 1.235 . S
O248 Co238 2.021 . S
O248 C245 1.238 . S
O249 Co243 2.052 . S
O249 C245 1.241 . S
O250 Co238 2.137 . S
O250 C241 1.247 . S
O251 Co238 2.244 . S
O251 C241 1.272 . S
O251 Co243 2.135 . S
Co252 O253 2.216 . S
Co252 O254 2.091 . S
Co252 O256 2.004 . S
Co252 O262 2.021 . S
Co252 O264 2.137 . S
Co252 O265 2.244 . S
O253 Co252 2.216 . S
O253 C260 1.247 . S
O254 Co252 2.091 . S
O254 C260 1.261 . S
C255 O264 1.247 . S
C255 O265 1.272 . S
O256 Co252 2.004 . S
O256 C261 1.259 . S
Co257 O258 2.061 . S
Co257 O263 2.052 . S
Co257 O265 2.135 . S
O258 Co257 2.061 . S
O258 C261 1.235 . S
C259 O262 1.238 . S
C259 O263 1.241 . S
C260 O253 1.247 . S
C260 O254 1.261 . S
C261 O256 1.259 . S
C261 O258 1.235 . S
O262 Co252 2.021 . S
O262 C259 1.238 . S
O263 Co257 2.052 . S
O263 C259 1.241 . S
O264 Co252 2.137 . S
O264 C255 1.247 . S
O265 Co252 2.244 . S
O265 C255 1.272 . S
O265 Co257 2.135 . S
Co266 O267 2.216 . S
Co266 O268 2.091 . S
Co266 O270 2.004 . S
Co266 O276 2.021 . S
Co266 O278 2.137 . S
Co266 O279 2.244 . S
O267 Co266 2.216 . S
O267 C274 1.247 . S
O268 Co266 2.091 . S
O268 C274 1.261 . S
C269 O278 1.247 . S
C269 O279 1.272 . S
O270 Co266 2.004 . S
O270 C275 1.259 . S
Co271 O272 2.061 . S
Co271 O277 2.052 . S
Co271 O279 2.135 . S
O272 Co271 2.061 . S
O272 C275 1.235 . S
C273 O276 1.238 . S
C273 O277 1.241 . S
C274 O267 1.247 . S
C274 O268 1.261 . S
C275 O270 1.259 . S
C275 O272 1.235 . S
O276 Co266 2.021 . S
O276 C273 1.238 . S
O277 Co271 2.052 . S
O277 C273 1.241 . S
O278 Co266 2.137 . S
O278 C269 1.247 . S
O279 Co266 2.244 . S
O279 C269 1.272 . S
O279 Co271 2.135 . S
Co280 O281 2.216 . S
Co280 O282 2.091 . S
Co280 O284 2.004 . S
Co280 O290 2.021 . S
Co280 O292 2.137 . S
Co280 O293 2.244 . S
O281 Co280 2.216 . S
O281 C288 1.247 . S
O282 Co280 2.091 . S
O282 C288 1.261 . S
C283 O292 1.247 . S
C283 O293 1.272 . S
O284 Co280 2.004 . S
O284 C289 1.259 . S
Co285 O286 2.061 . S
Co285 O291 2.052 . S
Co285 O293 2.135 . S
O286 Co285 2.061 . S
O286 C289 1.235 . S
C287 O290 1.238 . S
C287 O291 1.241 . S
C288 O281 1.247 . S
C288 O282 1.261 . S
C289 O284 1.259 . S
C289 O286 1.235 . S
O290 Co280 2.021 . S
O290 C287 1.238 . S
O291 Co285 2.052 . S
O291 C287 1.241 . S
O292 Co280 2.137 . S
O292 C283 1.247 . S
O293 Co280 2.244 . S
O293 C283 1.272 . S
O293 Co285 2.135 . S
Co294 O295 2.216 1_556 S
Co294 O296 2.091 . S
Co294 O298 2.004 . S
Co294 O304 2.021 1_556 S
Co294 O306 2.137 . S
Co294 O307 2.245 . S
O295 Co294 2.216 1_554 S
O295 C302 1.247 . S
O296 Co294 2.091 . S
O296 C302 1.261 1_556 S
C297 O306 1.247 . S
C297 O307 1.281 . S
O298 Co294 2.004 . S
O298 C303 1.259 . S
Co299 O300 2.061 1_554 S
Co299 O305 2.052 . S
Co299 O307 2.134 1_554 S
O300 Co299 2.061 1_556 S
O300 C303 1.235 . S
C301 O304 1.238 . S
C301 O305 1.241 . S
C302 O295 1.247 . S
C302 O296 1.261 1_554 S
C303 O298 1.259 . S
C303 O300 1.235 . S
O304 Co294 2.021 1_554 S
O304 C301 1.238 . S
O305 Co299 2.052 . S
O305 C301 1.241 . S
O306 Co294 2.137 . S
O306 C297 1.247 . S
O307 Co294 2.245 . S
O307 C297 1.281 . S
O307 Co299 2.134 1_556 S
Co308 O309 2.216 1_556 S
Co308 O310 2.091 . S
Co308 O312 2.004 . S
Co308 O318 2.021 1_556 S
Co308 O320 2.137 . S
Co308 O321 2.245 . S
O309 Co308 2.216 1_554 S
O309 C316 1.247 . S
O310 Co308 2.091 . S
O310 C316 1.261 1_556 S
C311 O320 1.247 . S
C311 O321 1.282 . S
O312 Co308 2.004 . S
O312 C317 1.259 . S
Co313 O314 2.061 1_554 S
Co313 O319 2.052 . S
Co313 O321 2.134 1_554 S
O314 Co313 2.061 1_556 S
O314 C317 1.235 . S
C315 O318 1.238 . S
C315 O319 1.241 . S
C316 O309 1.247 . S
C316 O310 1.261 1_554 S
C317 O312 1.259 . S
C317 O314 1.235 . S
O318 Co308 2.021 1_554 S
O318 C315 1.238 . S
O319 Co313 2.052 . S
O319 C315 1.241 . S
O320 Co308 2.137 . S
O320 C311 1.247 . S
O321 Co308 2.245 . S
O321 C311 1.282 . S
O321 Co313 2.134 1_556 S
Co322 O323 2.216 1_556 S
Co322 O324 2.091 . S
Co322 O326 2.004 . S
Co322 O332 2.021 1_556 S
Co322 O334 2.137 . S
Co322 O335 2.245 . S
O323 Co322 2.216 1_554 S
O323 C330 1.247 . S
O324 Co322 2.091 . S
O324 C330 1.261 1_556 S
C325 O334 1.247 . S
C325 O335 1.282 . S
O326 Co322 2.004 . S
O326 C331 1.259 . S
Co327 O328 2.061 1_554 S
Co327 O333 2.052 . S
Co327 O335 2.134 1_554 S
O328 Co327 2.061 1_556 S
O328 C331 1.235 . S
C329 O332 1.238 . S
C329 O333 1.241 . S
C330 O323 1.247 . S
C330 O324 1.261 1_554 S
C331 O326 1.259 . S
C331 O328 1.235 . S
O332 Co322 2.021 1_554 S
O332 C329 1.238 . S
O333 Co327 2.052 . S
O333 C329 1.241 . S
O334 Co322 2.137 . S
O334 C325 1.247 . S
O335 Co322 2.245 . S
O335 C325 1.282 . S
O335 Co327 2.134 1_556 S
Co336 O337 2.216 . S
Co336 O338 2.091 . S
Co336 O340 2.004 . S
Co336 O346 2.021 . S
Co336 O348 2.137 . S
Co336 O349 2.244 . S
O337 Co336 2.216 . S
O337 C344 1.247 . S
O338 Co336 2.091 . S
O338 C344 1.261 . S
C339 O348 1.247 . S
C339 O349 1.272 . S
O340 Co336 2.004 . S
O340 C345 1.259 . S
Co341 O342 2.061 . S
Co341 O347 2.052 . S
Co341 O349 2.135 . S
O342 Co341 2.061 . S
O342 C345 1.235 . S
C343 O346 1.238 . S
C343 O347 1.241 . S
C344 O337 1.247 . S
C344 O338 1.261 . S
C345 O340 1.259 . S
C345 O342 1.235 . S
O346 Co336 2.021 . S
O346 C343 1.238 . S
O347 Co341 2.052 . S
O347 C343 1.241 . S
O348 Co336 2.137 . S
O348 C339 1.247 . S
O349 Co336 2.244 . S
O349 C339 1.272 . S
O349 Co341 2.135 . S
Co350 O351 2.216 . S
Co350 O352 2.091 . S
Co350 O354 2.004 . S
Co350 O360 2.021 . S
Co350 O362 2.137 . S
Co350 O363 2.244 . S
O351 Co350 2.216 . S
O351 C358 1.247 . S
O352 Co350 2.091 . S
O352 C358 1.261 . S
C353 O362 1.247 . S
C353 O363 1.272 . S
O354 Co350 2.004 . S
O354 C359 1.259 . S
Co355 O356 2.061 . S
Co355 O361 2.052 . S
Co355 O363 2.135 . S
O356 Co355 2.061 . S
O356 C359 1.235 . S
C357 O360 1.238 . S
C357 O361 1.241 . S
C358 O351 1.247 . S
C358 O352 1.261 . S
C359 O354 1.259 . S
C359 O356 1.235 . S
O360 Co350 2.021 . S
O360 C357 1.238 . S
O361 Co355 2.052 . S
O361 C357 1.241 . S
O362 Co350 2.137 . S
O362 C353 1.247 . S
O363 Co350 2.244 . S
O363 C353 1.272 . S
O363 Co355 2.135 . S
Co364 O365 2.216 . S
Co364 O366 2.091 . S
Co364 O368 2.004 . S
Co364 O374 2.021 . S
Co364 O376 2.137 . S
Co364 O377 2.244 . S
O365 Co364 2.216 . S
O365 C372 1.247 . S
O366 Co364 2.091 . S
O366 C372 1.261 . S
C367 O376 1.247 . S
C367 O377 1.272 . S
O368 Co364 2.004 . S
O368 C373 1.259 . S
Co369 O370 2.061 . S
Co369 O375 2.052 . S
Co369 O377 2.135 . S
O370 Co369 2.061 . S
O370 C373 1.235 . S
C371 O374 1.238 . S
C371 O375 1.241 . S
C372 O365 1.247 . S
C372 O366 1.261 . S
C373 O368 1.259 . S
C373 O370 1.235 . S
O374 Co364 2.021 . S
O374 C371 1.238 . S
O375 Co369 2.052 . S
O375 C371 1.241 . S
O376 Co364 2.137 . S
O376 C367 1.247 . S
O377 Co364 2.244 . S
O377 C367 1.272 . S
O377 Co369 2.135 . S
Co378 O379 2.216 1_554 S
Co378 O380 2.091 . S
Co378 O382 2.004 . S
Co378 O388 2.021 1_554 S
Co378 O390 2.137 . S
Co378 O391 2.245 . S
O379 Co378 2.216 1_556 S
O379 C386 1.247 . S
O380 Co378 2.091 . S
O380 C386 1.261 1_554 S
C381 O390 1.247 . S
C381 O391 1.281 . S
O382 Co378 2.004 . S
O382 C387 1.259 . S
Co383 O384 2.061 1_556 S
Co383 O389 2.052 . S
Co383 O391 2.134 1_556 S
O384 Co383 2.061 1_554 S
O384 C387 1.235 . S
C385 O388 1.238 . S
C385 O389 1.241 . S
C386 O379 1.247 . S
C386 O380 1.261 1_556 S
C387 O382 1.259 . S
C387 O384 1.235 . S
O388 Co378 2.021 1_556 S
O388 C385 1.238 . S
O389 Co383 2.052 . S
O389 C385 1.241 . S
O390 Co378 2.137 . S
O390 C381 1.247 . S
O391 Co378 2.245 . S
O391 C381 1.281 . S
O391 Co383 2.134 1_554 S
Co392 O393 2.216 1_554 S
Co392 O394 2.091 . S
Co392 O396 2.004 . S
Co392 O402 2.021 1_554 S
Co392 O404 2.137 . S
Co392 O405 2.245 . S
O393 Co392 2.216 1_556 S
O393 C400 1.247 . S
O394 Co392 2.091 . S
O394 C400 1.261 1_554 S
C395 O404 1.247 . S
C395 O405 1.282 . S
O396 Co392 2.004 . S
O396 C401 1.259 . S
Co397 O398 2.061 1_556 S
Co397 O403 2.052 . S
Co397 O405 2.134 1_556 S
O398 Co397 2.061 1_554 S
O398 C401 1.235 . S
C399 O402 1.238 . S
C399 O403 1.241 . S
C400 O393 1.247 . S
C400 O394 1.261 1_556 S
C401 O396 1.259 . S
C401 O398 1.235 . S
O402 Co392 2.021 1_556 S
O402 C399 1.238 . S
O403 Co397 2.052 . S
O403 C399 1.241 . S
O404 Co392 2.137 . S
O404 C395 1.247 . S
O405 Co392 2.245 . S
O405 C395 1.282 . S
O405 Co397 2.134 1_554 S
Co406 O407 2.216 1_554 S
Co406 O408 2.091 . S
Co406 O410 2.004 . S
Co406 O416 2.021 1_554 S
Co406 O418 2.137 . S
Co406 O419 2.245 . S
O407 Co406 2.216 1_556 S
O407 C414 1.247 . S
O408 Co406 2.091 . S
O408 C414 1.261 1_554 S
C409 O418 1.247 . S
C409 O419 1.282 . S
O410 Co406 2.004 . S
O410 C415 1.259 . S
Co411 O412 2.061 1_556 S
Co411 O417 2.052 . S
Co411 O419 2.134 1_556 S
O412 Co411 2.061 1_554 S
O412 C415 1.235 . S
C413 O416 1.238 . S
C413 O417 1.241 . S
C414 O407 1.247 . S
C414 O408 1.261 1_556 S
C415 O410 1.259 . S
C415 O412 1.235 . S
O416 Co406 2.021 1_556 S
O416 C413 1.238 . S
O417 Co411 2.052 . S
O417 C413 1.241 . S
O418 Co406 2.137 . S
O418 C409 1.247 . S
O419 Co406 2.245 . S
O419 C409 1.282 . S
O419 Co411 2.134 1_554 S
Co420 O421 2.216 . S
Co420 O422 2.091 . S
Co420 O424 2.004 . S
Co420 O430 2.021 . S
Co420 O432 2.137 . S
Co420 O433 2.244 . S
O421 Co420 2.216 . S
O421 C428 1.247 . S
O422 Co420 2.091 . S
O422 C428 1.261 . S
C423 O432 1.247 . S
C423 O433 1.272 . S
O424 Co420 2.004 . S
O424 C429 1.259 . S
Co425 O426 2.061 . S
Co425 O431 2.052 . S
Co425 O433 2.135 . S
O426 Co425 2.061 . S
O426 C429 1.235 . S
C427 O430 1.238 . S
C427 O431 1.241 . S
C428 O421 1.247 . S
C428 O422 1.261 . S
C429 O424 1.259 . S
C429 O426 1.235 . S
O430 Co420 2.021 . S
O430 C427 1.238 . S
O431 Co425 2.052 . S
O431 C427 1.241 . S
O432 Co420 2.137 . S
O432 C423 1.247 . S
O433 Co420 2.244 . S
O433 C423 1.272 . S
O433 Co425 2.135 . S
Co434 O435 2.216 . S
Co434 O436 2.091 . S
Co434 O438 2.004 . S
Co434 O444 2.021 . S
Co434 O446 2.137 . S
Co434 O447 2.244 . S
O435 Co434 2.216 . S
O435 C442 1.247 . S
O436 Co434 2.091 . S
O436 C442 1.261 . S
C437 O446 1.247 . S
C437 O447 1.272 . S
O438 Co434 2.004 . S
O438 C443 1.259 . S
Co439 O440 2.061 . S
Co439 O445 2.052 . S
Co439 O447 2.135 . S
O440 Co439 2.061 . S
O440 C443 1.235 . S
C441 O444 1.238 . S
C441 O445 1.241 . S
C442 O435 1.247 . S
C442 O436 1.261 . S
C443 O438 1.259 . S
C443 O440 1.235 . S
O444 Co434 2.021 . S
O444 C441 1.238 . S
O445 Co439 2.052 . S
O445 C441 1.241 . S
O446 Co434 2.137 . S
O446 C437 1.247 . S
O447 Co434 2.244 . S
O447 C437 1.272 . S
O447 Co439 2.135 . S
Co448 O449 2.216 . S
Co448 O450 2.091 . S
Co448 O452 2.004 . S
Co448 O458 2.021 . S
Co448 O460 2.137 . S
Co448 O461 2.244 . S
O449 Co448 2.216 . S
O449 C456 1.247 . S
O450 Co448 2.091 . S
O450 C456 1.261 . S
C451 O460 1.247 . S
C451 O461 1.272 . S
O452 Co448 2.004 . S
O452 C457 1.259 . S
Co453 O454 2.061 . S
Co453 O459 2.052 . S
Co453 O461 2.135 . S
O454 Co453 2.061 . S
O454 C457 1.235 . S
C455 O458 1.238 . S
C455 O459 1.241 . S
C456 O449 1.247 . S
C456 O450 1.261 . S
C457 O452 1.259 . S
C457 O454 1.235 . S
O458 Co448 2.021 . S
O458 C455 1.238 . S
O459 Co453 2.052 . S
O459 C455 1.241 . S
O460 Co448 2.137 . S
O460 C451 1.247 . S
O461 Co448 2.244 . S
O461 C451 1.272 . S
O461 Co453 2.135 . S
Co462 O463 2.216 . S
Co462 O464 2.091 . S
Co462 O466 2.004 . S
Co462 O472 2.021 . S
Co462 O474 2.137 . S
Co462 O475 2.244 . S
O463 Co462 2.216 . S
O463 C470 1.247 . S
O464 Co462 2.091 . S
O464 C470 1.261 . S
C465 O474 1.247 . S
C465 O475 1.272 . S
O466 Co462 2.004 . S
O466 C471 1.259 . S
Co467 O468 2.061 . S
Co467 O473 2.052 . S
Co467 O475 2.135 . S
O468 Co467 2.061 . S
O468 C471 1.235 . S
C469 O472 1.238 . S
C469 O473 1.241 . S
C470 O463 1.247 . S
C470 O464 1.261 . S
C471 O466 1.259 . S
C471 O468 1.235 . S
O472 Co462 2.021 . S
O472 C469 1.238 . S
O473 Co467 2.052 . S
O473 C469 1.241 . S
O474 Co462 2.137 . S
O474 C465 1.247 . S
O475 Co462 2.244 . S
O475 C465 1.272 . S
O475 Co467 2.135 . S
Co476 O477 2.216 . S
Co476 O478 2.091 . S
Co476 O480 2.004 . S
Co476 O486 2.021 . S
Co476 O488 2.137 . S
Co476 O489 2.244 . S
O477 Co476 2.216 . S
O477 C484 1.247 . S
O478 Co476 2.091 . S
O478 C484 1.261 . S
C479 O488 1.247 . S
C479 O489 1.272 . S
O480 Co476 2.004 . S
O480 C485 1.259 . S
Co481 O482 2.061 . S
Co481 O487 2.052 . S
Co481 O489 2.135 . S
O482 Co481 2.061 . S
O482 C485 1.235 . S
C483 O486 1.238 . S
C483 O487 1.241 . S
C484 O477 1.247 . S
C484 O478 1.261 . S
C485 O480 1.259 . S
C485 O482 1.235 . S
O486 Co476 2.021 . S
O486 C483 1.238 . S
O487 Co481 2.052 . S
O487 C483 1.241 . S
O488 Co476 2.137 . S
O488 C479 1.247 . S
O489 Co476 2.244 . S
O489 C479 1.272 . S
O489 Co481 2.135 . S
Co490 O491 2.216 . S
Co490 O492 2.091 . S
Co490 O494 2.004 . S
Co490 O500 2.021 . S
Co490 O502 2.137 . S
Co490 O503 2.244 . S
O491 Co490 2.216 . S
O491 C498 1.247 . S
O492 Co490 2.091 . S
O492 C498 1.261 . S
C493 O502 1.247 . S
C493 O503 1.272 . S
O494 Co490 2.004 . S
O494 C499 1.259 . S
Co495 O496 2.061 . S
Co495 O501 2.052 . S
Co495 O503 2.135 . S
O496 Co495 2.061 . S
O496 C499 1.235 . S
C497 O500 1.238 . S
C497 O501 1.241 . S
C498 O491 1.247 . S
C498 O492 1.261 . S
C499 O494 1.259 . S
C499 O496 1.235 . S
O500 Co490 2.021 . S
O500 C497 1.238 . S
O501 Co495 2.052 . S
O501 C497 1.241 . S
O502 Co490 2.137 . S
O502 C493 1.247 . S
O503 Co490 2.244 . S
O503 C493 1.272 . S
O503 Co495 2.135 . S
C504 C505 1.391 . S
C504 C506 1.394 . S
C504 H520 0.931 . S
C505 C504 1.391 . S
C505 C509 1.376 . S
C506 C504 1.394 . S
C506 C507 1.369 . S
C506 C510 1.531 . S
C507 C506 1.369 . S
C507 C508 1.410 . S
C507 C515 1.503 . S
C508 C507 1.410 . S
C508 C509 1.392 . S
C508 C511 1.511 . S
C509 C505 1.376 . S
C509 C508 1.392 . S
C509 H521 0.929 . S
C510 C506 1.531 . S
C510 H522 0.960 . S
C510 H523 0.962 . S
C510 H524 0.960 . S
C511 C508 1.511 . S
C511 H525 0.961 . S
C511 H526 0.961 . S
C511 H527 0.961 . S
C512 C513 1.370 . S
C512 C514 1.363 . S
C512 H528 0.931 . S
C513 C512 1.370 . S
C513 C517 1.408 . S
C514 C512 1.363 . S
C514 C515 1.370 . S
C514 C518 1.524 . S
C515 C507 1.503 . S
C515 C514 1.370 . S
C515 C516 1.403 . S
C516 C515 1.403 . S
C516 C517 1.404 . S
C516 C519 1.539 . S
C517 C513 1.408 . S
C517 C516 1.404 . S
C517 H529 0.930 . S
C518 C514 1.524 . S
C518 H530 0.956 . S
C518 H531 0.961 . S
C518 H532 0.961 . S
C519 C516 1.539 . S
C519 H533 0.958 . S
C519 H534 0.961 . S
C519 H535 0.960 . S
H520 C504 0.931 . S
H521 C509 0.929 . S
H522 C510 0.960 . S
H523 C510 0.962 . S
H524 C510 0.960 . S
H525 C511 0.961 . S
H526 C511 0.961 . S
H527 C511 0.961 . S
H528 C512 0.931 . S
H529 C517 0.930 . S
H530 C518 0.956 . S
H531 C518 0.961 . S
H532 C518 0.961 . S
H533 C519 0.958 . S
H534 C519 0.961 . S
H535 C519 0.960 . S
C536 C537 1.391 . S
C536 C538 1.394 . S
C536 H552 0.931 . S
C537 C536 1.391 . S
C537 C541 1.376 . S
C538 C536 1.394 . S
C538 C539 1.369 . S
C538 C542 1.531 . S
C539 C538 1.369 . S
C539 C540 1.410 . S
C539 C547 1.503 1_545 S
C540 C539 1.410 . S
C540 C541 1.392 . S
C540 C543 1.511 . S
C541 C537 1.376 . S
C541 C540 1.392 . S
C541 H553 0.929 . S
C542 C538 1.531 . S
C542 H554 0.960 1_545 S
C542 H555 0.933 1_545 S
C542 H556 0.960 . S
C543 C540 1.511 . S
C543 H557 0.961 . S
C543 H558 0.961 . S
C543 H559 0.961 . S
C544 C545 1.370 . S
C544 C546 1.363 . S
C544 H560 0.931 . S
C545 C544 1.370 . S
C545 C549 1.408 . S
C546 C544 1.363 . S
C546 C547 1.370 . S
C546 C550 1.524 . S
C547 C539 1.503 1_565 S
C547 C546 1.370 . S
C547 C548 1.403 . S
C548 C547 1.403 . S
C548 C549 1.404 . S
C548 C551 1.495 1_565 S
C549 C545 1.408 . S
C549 C548 1.404 . S
C549 H561 0.930 . S
C550 C546 1.524 . S
C550 H562 0.956 . S
C550 H563 0.961 . S
C550 H564 0.961 . S
C551 C548 1.495 1_545 S
C551 H565 0.996 . S
C551 H566 0.939 1_545 S
C551 H567 0.993 . S
H552 C536 0.931 . S
H553 C541 0.929 . S
H554 C542 0.960 1_565 S
H555 C542 0.933 1_565 S
H556 C542 0.960 . S
H557 C543 0.961 . S
H558 C543 0.961 . S
H559 C543 0.961 . S
H560 C544 0.931 . S
H561 C549 0.930 . S
H562 C550 0.956 . S
H563 C550 0.961 . S
H564 C550 0.961 . S
H565 C551 0.996 . S
H566 C551 0.939 1_565 S
H567 C551 0.993 . S
C568 C569 1.391 . S
C568 C570 1.394 . S
C568 H584 0.931 . S
C569 C568 1.391 . S
C569 C573 1.376 . S
C570 C568 1.394 . S
C570 C571 1.369 . S
C570 C574 1.531 . S
C571 C570 1.369 . S
C571 C572 1.410 . S
C571 C579 1.503 1_655 S
C572 C571 1.410 . S
C572 C573 1.392 . S
C572 C575 1.511 . S
C573 C569 1.376 . S
C573 C572 1.392 . S
C573 H585 0.929 . S
C574 C570 1.531 . S
C574 H586 0.960 1_655 S
C574 H587 0.962 . S
C574 H588 0.960 . S
C575 C572 1.511 . S
C575 H589 0.961 . S
C575 H590 0.961 1_655 S
C575 H591 0.981 . S
C576 C577 1.370 . S
C576 C578 1.363 . S
C576 H592 0.931 . S
C577 C576 1.370 . S
C577 C581 1.408 . S
C578 C576 1.363 . S
C578 C579 1.370 . S
C578 C582 1.524 1_455 S
C579 C571 1.503 1_455 S
C579 C578 1.370 . S
C579 C580 1.403 . S
C580 C579 1.403 . S
C580 C581 1.404 . S
C580 C583 1.539 . S
C581 C577 1.408 . S
C581 C580 1.404 . S
C581 H593 0.930 . S
C582 C578 1.524 1_655 S
C582 H594 0.956 . S
C582 H595 0.961 . S
C582 H596 0.944 1_655 S
C583 C580 1.539 . S
C583 H597 0.958 . S
C583 H598 0.961 . S
C583 H599 0.960 . S
H584 C568 0.931 . S
H585 C573 0.929 . S
H586 C574 0.960 1_455 S
H587 C574 0.962 . S
H588 C574 0.960 . S
H589 C575 0.961 . S
H590 C575 0.961 1_455 S
H591 C575 0.981 . S
H592 C576 0.931 . S
H593 C581 0.930 . S
H594 C582 0.956 . S
H595 C582 0.961 . S
H596 C582 0.944 1_455 S
H597 C583 0.958 . S
H598 C583 0.961 . S
H599 C583 0.960 . S
C600 C601 1.391 . S
C600 C602 1.394 . S
C600 H616 0.931 . S
C601 C600 1.391 . S
C601 C605 1.376 . S
C602 C600 1.394 . S
C602 C603 1.369 . S
C602 C606 1.531 . S
C603 C602 1.369 . S
C603 C604 1.410 . S
C603 C611 1.503 . S
C604 C603 1.410 . S
C604 C605 1.392 . S
C604 C607 1.511 . S
C605 C601 1.376 . S
C605 C604 1.392 . S
C605 H617 0.929 . S
C606 C602 1.531 . S
C606 H618 0.960 . S
C606 H619 0.962 . S
C606 H620 0.960 . S
C607 C604 1.511 . S
C607 H621 0.961 . S
C607 H622 0.961 . S
C607 H623 0.961 . S
C608 C609 1.370 . S
C608 C610 1.363 . S
C608 H624 0.931 . S
C609 C608 1.370 . S
C609 C613 1.408 . S
C610 C608 1.363 . S
C610 C611 1.370 . S
C610 C614 1.524 . S
C611 C603 1.503 . S
C611 C610 1.370 . S
C611 C612 1.403 . S
C612 C611 1.403 . S
C612 C613 1.404 . S
C612 C615 1.539 . S
C613 C609 1.408 . S
C613 C612 1.404 . S
C613 H625 0.930 . S
C614 C610 1.524 . S
C614 H626 0.956 . S
C614 H627 0.961 . S
C614 H628 0.961 . S
C615 C612 1.539 . S
C615 H629 0.958 . S
C615 H630 0.961 . S
C615 H631 0.960 . S
H616 C600 0.931 . S
H617 C605 0.929 . S
H618 C606 0.960 . S
H619 C606 0.962 . S
H620 C606 0.960 . S
H621 C607 0.961 . S
H622 C607 0.961 . S
H623 C607 0.961 . S
H624 C608 0.931 . S
H625 C613 0.930 . S
H626 C614 0.956 . S
H627 C614 0.961 . S
H628 C614 0.961 . S
H629 C615 0.958 . S
H630 C615 0.961 . S
H631 C615 0.960 . S
C632 C633 1.391 . S
C632 C634 1.394 . S
C632 H648 0.931 . S
C633 C632 1.391 . S
C633 C637 1.376 . S
C634 C632 1.394 . S
C634 C635 1.369 . S
C634 C638 1.531 . S
C635 C634 1.369 . S
C635 C636 1.410 . S
C635 C643 1.503 1_545 S
C636 C635 1.410 . S
C636 C637 1.392 . S
C636 C639 1.511 . S
C637 C633 1.376 . S
C637 C636 1.392 . S
C637 H649 0.929 . S
C638 C634 1.531 . S
C638 H650 0.960 . S
C638 H651 0.962 . S
C638 H652 0.960 . S
C639 C636 1.511 . S
C639 H653 0.961 . S
C639 H654 0.961 1_545 S
C639 H655 0.961 . S
C640 C641 1.370 . S
C640 C642 1.363 . S
C640 H656 0.931 . S
C641 C640 1.370 . S
C641 C645 1.408 . S
C642 C640 1.363 . S
C642 C643 1.370 . S
C642 C646 1.524 . S
C643 C635 1.503 1_565 S
C643 C642 1.370 . S
C643 C644 1.403 . S
C644 C643 1.403 . S
C644 C645 1.404 . S
C644 C647 1.539 1_565 S
C645 C641 1.408 . S
C645 C644 1.404 . S
C645 H657 0.930 . S
C646 C642 1.524 . S
C646 H658 0.956 . S
C646 H659 0.961 . S
C646 H660 0.961 . S
C647 C644 1.539 1_545 S
C647 H661 0.958 . S
C647 H662 0.961 1_545 S
C647 H663 0.960 . S
H648 C632 0.931 . S
H649 C637 0.929 . S
H650 C638 0.960 . S
H651 C638 0.962 . S
H652 C638 0.960 . S
H653 C639 0.961 . S
H654 C639 0.961 1_565 S
H655 C639 0.961 . S
H656 C640 0.931 . S
H657 C645 0.930 . S
H658 C646 0.956 . S
H659 C646 0.961 . S
H660 C646 0.961 . S
H661 C647 0.958 . S
H662 C647 0.961 1_565 S
H663 C647 0.960 . S
C664 C665 1.391 . S
C664 C666 1.394 . S
C664 H680 0.931 . S
C665 C664 1.391 . S
C665 C669 1.376 . S
C666 C664 1.394 . S
C666 C667 1.369 . S
C666 C670 1.531 . S
C667 C666 1.369 . S
C667 C668 1.410 . S
C667 C675 1.503 1_455 S
C668 C667 1.410 . S
C668 C669 1.392 . S
C668 C671 1.511 . S
C669 C665 1.376 . S
C669 C668 1.392 . S
C669 H681 0.929 . S
C670 C666 1.531 . S
C670 H682 0.960 1_455 S
C670 H683 0.962 . S
C670 H684 0.960 . S
C671 C668 1.511 . S
C671 H685 0.961 . S
C671 H686 0.961 1_455 S
C671 H687 0.961 1_455 S
C672 C673 1.370 . S
C672 C674 1.363 . S
C672 H688 0.931 . S
C673 C672 1.370 . S
C673 C677 1.408 . S
C674 C672 1.363 . S
C674 C675 1.370 . S
C674 C678 1.524 1_655 S
C675 C667 1.503 1_655 S
C675 C674 1.370 . S
C675 C676 1.403 . S
C676 C675 1.403 . S
C676 C677 1.404 . S
C676 C679 1.539 . S
C677 C673 1.408 . S
C677 C676 1.404 . S
C677 H689 0.930 . S
C678 C674 1.524 1_455 S
C678 H690 0.956 . S
C678 H691 0.961 . S
C678 H692 0.961 1_455 S
C679 C676 1.539 . S
C679 H693 0.958 . S
C679 H694 0.961 . S
C679 H695 0.960 . S
H680 C664 0.931 . S
H681 C669 0.929 . S
H682 C670 0.960 1_655 S
H683 C670 0.962 . S
H684 C670 0.960 . S
H685 C671 0.961 . S
H686 C671 0.961 1_655 S
H687 C671 0.961 1_655 S
H688 C672 0.931 . S
H689 C677 0.930 . S
H690 C678 0.956 . S
H691 C678 0.961 . S
H692 C678 0.961 1_655 S
H693 C679 0.958 . S
H694 C679 0.961 . S
H695 C679 0.960 . S
C696 C697 1.391 . S
C696 C698 1.394 . S
C696 H712 0.931 . S
C697 C696 1.391 . S
C697 C701 1.376 . S
C698 C696 1.394 . S
C698 C699 1.369 . S
C698 C702 1.531 . S
C699 C698 1.369 . S
C699 C700 1.410 . S
C699 C707 1.503 . S
C700 C699 1.410 . S
C700 C701 1.392 . S
C700 C703 1.511 . S
C701 C697 1.376 . S
C701 C700 1.392 . S
C701 H713 0.929 . S
C702 C698 1.531 . S
C702 H714 0.960 . S
C702 H715 0.962 . S
C702 H716 0.960 . S
C703 C700 1.511 . S
C703 H717 0.961 . S
C703 H718 0.961 . S
C703 H719 0.961 . S
C704 C705 1.370 . S
C704 C706 1.363 . S
C704 H720 0.931 . S
C705 C704 1.370 . S
C705 C709 1.408 . S
C706 C704 1.363 . S
C706 C707 1.370 . S
C706 C710 1.524 . S
C707 C699 1.503 . S
C707 C706 1.370 . S
C707 C708 1.403 . S
C708 C707 1.403 . S
C708 C709 1.404 . S
C708 C711 1.539 . S
C709 C705 1.408 . S
C709 C708 1.404 . S
C709 H721 0.930 . S
C710 C706 1.524 . S
C710 H722 0.956 . S
C710 H723 0.961 . S
C710 H724 0.961 . S
C711 C708 1.539 . S
C711 H725 0.958 . S
C711 H726 0.961 . S
C711 H727 0.960 . S
H712 C696 0.931 . S
H713 C701 0.929 . S
H714 C702 0.960 . S
H715 C702 0.962 . S
H716 C702 0.960 . S
H717 C703 0.961 . S
H718 C703 0.961 . S
H719 C703 0.961 . S
H720 C704 0.931 . S
H721 C709 0.930 . S
H722 C710 0.956 . S
H723 C710 0.961 . S
H724 C710 0.961 . S
H725 C711 0.958 . S
H726 C711 0.961 . S
H727 C711 0.960 . S
C728 C729 1.391 . S
C728 C730 1.394 . S
C728 H744 0.931 . S
C729 C728 1.391 . S
C729 C733 1.376 . S
C730 C728 1.394 . S
C730 C731 1.369 . S
C730 C734 1.531 . S
C731 C730 1.369 . S
C731 C732 1.410 . S
C731 C739 1.503 . S
C732 C731 1.410 . S
C732 C733 1.392 . S
C732 C735 1.511 . S
C733 C729 1.376 . S
C733 C732 1.392 . S
C733 H745 0.929 . S
C734 C730 1.531 . S
C734 H746 0.960 . S
C734 H747 0.962 . S
C734 H748 0.960 . S
C735 C732 1.511 . S
C735 H749 0.961 . S
C735 H750 0.961 . S
C735 H751 0.961 . S
C736 C737 1.370 . S
C736 C738 1.363 . S
C736 H752 0.931 . S
C737 C736 1.370 . S
C737 C741 1.408 . S
C738 C736 1.363 . S
C738 C739 1.370 . S
C738 C742 1.524 . S
C739 C731 1.503 . S
C739 C738 1.370 . S
C739 C740 1.403 . S
C740 C739 1.403 . S
C740 C741 1.404 . S
C740 C743 1.539 . S
C741 C737 1.408 . S
C741 C740 1.404 . S
C741 H753 0.930 . S
C742 C738 1.524 . S
C742 H754 0.956 . S
C742 H755 0.961 . S
C742 H756 0.961 . S
C743 C740 1.539 . S
C743 H757 0.958 . S
C743 H758 0.961 . S
C743 H759 0.960 . S
H744 C728 0.931 . S
H745 C733 0.929 . S
H746 C734 0.960 . S
H747 C734 0.962 . S
H748 C734 0.960 . S
H749 C735 0.961 . S
H750 C735 0.961 . S
H751 C735 0.961 . S
H752 C736 0.931 . S
H753 C741 0.930 . S
H754 C742 0.956 . S
H755 C742 0.961 . S
H756 C742 0.961 . S
H757 C743 0.958 . S
H758 C743 0.961 . S
H759 C743 0.960 . S
C760 C761 1.391 . S
C760 C762 1.394 . S
C760 H776 0.931 . S
C761 C760 1.391 . S
C761 C765 1.376 . S
C762 C760 1.394 . S
C762 C763 1.369 . S
C762 C766 1.531 . S
C763 C762 1.369 . S
C763 C764 1.410 . S
C763 C771 1.503 . S
C764 C763 1.410 . S
C764 C765 1.392 . S
C764 C767 1.511 . S
C765 C761 1.376 . S
C765 C764 1.392 . S
C765 H777 0.929 . S
C766 C762 1.531 . S
C766 H778 0.960 . S
C766 H779 0.962 . S
C766 H780 0.960 . S
C767 C764 1.511 . S
C767 H781 0.961 . S
C767 H782 0.961 . S
C767 H783 0.961 . S
C768 C769 1.370 . S
C768 C770 1.363 . S
C768 H784 0.931 . S
C769 C768 1.370 . S
C769 C773 1.408 . S
C770 C768 1.363 . S
C770 C771 1.370 . S
C770 C774 1.524 . S
C771 C763 1.503 . S
C771 C770 1.370 . S
C771 C772 1.403 . S
C772 C771 1.403 . S
C772 C773 1.404 . S
C772 C775 1.539 . S
C773 C769 1.408 . S
C773 C772 1.404 . S
C773 H785 0.930 . S
C774 C770 1.524 . S
C774 H786 0.956 . S
C774 H787 0.961 . S
C774 H788 0.961 . S
C775 C772 1.539 . S
C775 H789 0.958 . S
C775 H790 0.961 . S
C775 H791 0.960 . S
H776 C760 0.931 . S
H777 C765 0.929 . S
H778 C766 0.960 . S
H779 C766 0.962 . S
H780 C766 0.960 . S
H781 C767 0.961 . S
H782 C767 0.961 . S
H783 C767 0.961 . S
H784 C768 0.931 . S
H785 C773 0.930 . S
H786 C774 0.956 . S
H787 C774 0.961 . S
H788 C774 0.961 . S
H789 C775 0.958 . S
H790 C775 0.961 . S
H791 C775 0.960 . S
C792 C793 1.391 . S
C792 C794 1.394 . S
C792 H808 0.931 . S
C793 C792 1.391 . S
C793 C797 1.376 . S
C794 C792 1.394 . S
C794 C795 1.369 . S
C794 C798 1.531 . S
C795 C794 1.369 . S
C795 C796 1.410 . S
C795 C803 1.503 . S
C796 C795 1.410 . S
C796 C797 1.392 . S
C796 C799 1.511 1_554 S
C797 C793 1.376 . S
C797 C796 1.392 . S
C797 H809 0.929 . S
C798 C794 1.531 . S
C798 H810 0.960 . S
C798 H811 0.962 . S
C798 H812 0.960 . S
C799 C796 1.511 1_556 S
C799 H813 0.961 . S
C799 H814 0.961 . S
C799 H815 0.961 . S
C800 C801 1.370 . S
C800 C802 1.363 . S
C800 H816 0.931 . S
C801 C800 1.370 . S
C801 C805 1.408 . S
C802 C800 1.363 . S
C802 C803 1.370 . S
C802 C806 1.524 . S
C803 C795 1.503 . S
C803 C802 1.370 . S
C803 C804 1.403 . S
C804 C803 1.403 . S
C804 C805 1.404 . S
C804 C807 1.539 . S
C805 C801 1.408 . S
C805 C804 1.404 . S
C805 H817 0.930 . S
C806 C802 1.524 . S
C806 H818 0.956 . S
C806 H819 0.961 . S
C806 H820 0.961 . S
C807 C804 1.539 . S
C807 H821 0.958 . S
C807 H822 0.961 . S
C807 H823 0.960 . S
H808 C792 0.931 . S
H809 C797 0.929 . S
H810 C798 0.960 . S
H811 C798 0.962 . S
H812 C798 0.960 . S
H813 C799 0.961 . S
H814 C799 0.961 . S
H815 C799 0.961 . S
H816 C800 0.931 . S
H817 C805 0.930 . S
H818 C806 0.956 . S
H819 C806 0.961 . S
H820 C806 0.961 . S
H821 C807 0.958 . S
H822 C807 0.961 . S
H823 C807 0.960 . S
C824 C825 1.391 . S
C824 C826 1.394 . S
C824 H840 0.931 1_554 S
C825 C824 1.391 . S
C825 C829 1.376 . S
C826 C824 1.394 . S
C826 C827 1.369 . S
C826 C830 1.531 1_554 S
C827 C826 1.369 . S
C827 C828 1.410 . S
C827 C835 1.503 . S
C828 C827 1.410 . S
C828 C829 1.392 . S
C828 C831 1.511 . S
C829 C825 1.376 . S
C829 C828 1.392 . S
C829 H841 0.929 . S
C830 C826 1.531 1_556 S
C830 H842 0.960 . S
C830 H843 0.962 . S
C830 H844 0.960 . S
C831 C828 1.511 . S
C831 H845 0.961 . S
C831 H846 0.961 . S
C831 H847 0.961 . S
C832 C833 1.370 . S
C832 C834 1.363 . S
C832 H848 0.931 . S
C833 C832 1.370 . S
C833 C837 1.408 . S
C834 C832 1.363 . S
C834 C835 1.370 . S
C834 C838 1.524 . S
C835 C827 1.503 . S
C835 C834 1.370 . S
C835 C836 1.403 . S
C836 C835 1.403 . S
C836 C837 1.404 . S
C836 C839 1.539 . S
C837 C833 1.408 . S
C837 C836 1.404 . S
C837 H849 0.930 . S
C838 C834 1.524 . S
C838 H850 0.956 . S
C838 H851 0.961 . S
C838 H852 0.961 . S
C839 C836 1.539 . S
C839 H853 0.958 . S
C839 H854 0.961 . S
C839 H855 0.960 . S
H840 C824 0.931 1_556 S
H841 C829 0.929 . S
H842 C830 0.960 . S
H843 C830 0.962 . S
H844 C830 0.960 . S
H845 C831 0.961 . S
H846 C831 0.961 . S
H847 C831 0.961 . S
H848 C832 0.931 . S
H849 C837 0.930 . S
H850 C838 0.956 . S
H851 C838 0.961 . S
H852 C838 0.961 . S
H853 C839 0.958 . S
H854 C839 0.961 . S
H855 C839 0.960 . S
C856 C857 1.391 . S
C856 C858 1.394 . S
C856 H872 0.931 . S
C857 C856 1.391 . S
C857 C861 1.376 . S
C858 C856 1.394 . S
C858 C859 1.369 . S
C858 C862 1.531 1_554 S
C859 C858 1.369 . S
C859 C860 1.410 . S
C859 C867 1.503 . S
C860 C859 1.410 . S
C860 C861 1.392 . S
C860 C863 1.511 . S
C861 C857 1.376 . S
C861 C860 1.392 . S
C861 H873 0.929 . S
C862 C858 1.531 1_556 S
C862 H874 0.960 . S
C862 H875 0.962 . S
C862 H876 0.960 . S
C863 C860 1.511 . S
C863 H877 0.961 . S
C863 H878 0.961 . S
C863 H879 0.961 . S
C864 C865 1.370 . S
C864 C866 1.363 . S
C864 H880 0.931 . S
C865 C864 1.370 . S
C865 C869 1.408 . S
C866 C864 1.363 . S
C866 C867 1.370 . S
C866 C870 1.524 . S
C867 C859 1.503 . S
C867 C866 1.370 . S
C867 C868 1.403 . S
C868 C867 1.403 . S
C868 C869 1.404 . S
C868 C871 1.539 . S
C869 C865 1.408 . S
C869 C868 1.404 . S
C869 H881 0.930 . S
C870 C866 1.524 . S
C870 H882 0.956 . S
C870 H883 0.961 . S
C870 H884 0.961 . S
C871 C868 1.539 . S
C871 H885 0.958 . S
C871 H886 0.961 . S
C871 H887 0.960 . S
H872 C856 0.931 . S
H873 C861 0.929 . S
H874 C862 0.960 . S
H875 C862 0.962 . S
H876 C862 0.960 . S
H877 C863 0.961 . S
H878 C863 0.961 . S
H879 C863 0.961 . S
H880 C864 0.931 . S
H881 C869 0.930 . S
H882 C870 0.956 . S
H883 C870 0.961 . S
H884 C870 0.961 . S
H885 C871 0.958 . S
H886 C871 0.961 . S
H887 C871 0.960 . S
C888 C889 1.391 . S
C888 C890 1.394 . S
C888 H904 0.931 . S
C889 C888 1.391 . S
C889 C893 1.376 . S
C890 C888 1.394 . S
C890 C891 1.369 . S
C890 C894 1.531 . S
C891 C890 1.369 . S
C891 C892 1.410 . S
C891 C899 1.503 . S
C892 C891 1.410 . S
C892 C893 1.392 . S
C892 C895 1.511 . S
C893 C889 1.376 . S
C893 C892 1.392 . S
C893 H905 0.929 . S
C894 C890 1.531 . S
C894 H906 0.960 . S
C894 H907 0.962 . S
C894 H908 0.960 . S
C895 C892 1.511 . S
C895 H909 0.961 . S
C895 H910 0.961 . S
C895 H911 0.961 . S
C896 C897 1.370 . S
C896 C898 1.363 . S
C896 H912 0.931 1_556 S
C897 C896 1.370 . S
C897 C901 1.408 . S
C898 C896 1.363 . S
C898 C899 1.370 . S
C898 C902 1.524 1_556 S
C899 C891 1.503 . S
C899 C898 1.370 . S
C899 C900 1.403 . S
C900 C899 1.403 . S
C900 C901 1.404 . S
C900 C903 1.539 . S
C901 C897 1.408 . S
C901 C900 1.404 . S
C901 H913 0.930 . S
C902 C898 1.524 1_554 S
C902 H914 0.956 . S
C902 H915 0.961 1_554 S
C902 H916 0.961 . S
C903 C900 1.539 . S
C903 H917 0.958 . S
C903 H918 0.961 . S
C903 H919 0.960 . S
H904 C888 0.931 . S
H905 C893 0.929 . S
H906 C894 0.960 . S
H907 C894 0.962 . S
H908 C894 0.960 . S
H909 C895 0.961 . S
H910 C895 0.961 . S
H911 C895 0.961 . S
H912 C896 0.931 1_554 S
H913 C901 0.930 . S
H914 C902 0.956 . S
H915 C902 0.961 1_556 S
H916 C902 0.961 . S
H917 C903 0.958 . S
H918 C903 0.961 . S
H919 C903 0.960 . S
C920 C921 1.391 . S
C920 C922 1.394 . S
C920 H936 0.931 . S
C921 C920 1.391 . S
C921 C925 1.376 . S
C922 C920 1.394 . S
C922 C923 1.369 . S
C922 C926 1.531 . S
C923 C922 1.369 . S
C923 C924 1.410 . S
C923 C931 1.503 . S
C924 C923 1.410 . S
C924 C925 1.392 . S
C924 C927 1.511 . S
C925 C921 1.376 . S
C925 C924 1.392 . S
C925 H937 0.929 . S
C926 C922 1.531 . S
C926 H938 0.960 . S
C926 H939 0.962 . S
C926 H940 0.960 . S
C927 C924 1.511 . S
C927 H941 0.961 . S
C927 H942 0.961 . S
C927 H943 0.961 . S
C928 C929 1.370 . S
C928 C930 1.363 . S
C928 H944 0.931 . S
C929 C928 1.370 . S
C929 C933 1.408 . S
C930 C928 1.363 . S
C930 C931 1.370 . S
C930 C934 1.524 . S
C931 C923 1.503 . S
C931 C930 1.370 . S
C931 C932 1.403 . S
C932 C931 1.403 . S
C932 C933 1.404 . S
C932 C935 1.539 1_556 S
C933 C929 1.408 . S
C933 C932 1.404 . S
C933 H945 0.930 1_556 S
C934 C930 1.524 . S
C934 H946 0.956 . S
C934 H947 0.961 . S
C934 H948 0.961 . S
C935 C932 1.539 1_554 S
C935 H949 0.958 . S
C935 H950 0.961 . S
C935 H951 0.960 . S
H936 C920 0.931 . S
H937 C925 0.929 . S
H938 C926 0.960 . S
H939 C926 0.962 . S
H940 C926 0.960 . S
H941 C927 0.961 . S
H942 C927 0.961 . S
H943 C927 0.961 . S
H944 C928 0.931 . S
H945 C933 0.930 1_554 S
H946 C934 0.956 . S
H947 C934 0.961 . S
H948 C934 0.961 . S
H949 C935 0.958 . S
H950 C935 0.961 . S
H951 C935 0.960 . S
C952 C953 1.391 . S
C952 C954 1.394 . S
C952 H968 0.931 1_556 S
C953 C952 1.391 . S
C953 C957 1.376 . S
C954 C952 1.394 . S
C954 C955 1.369 . S
C954 C958 1.531 1_556 S
C955 C954 1.369 . S
C955 C956 1.410 . S
C955 C963 1.503 . S
C956 C955 1.410 . S
C956 C957 1.392 . S
C956 C959 1.511 . S
C957 C953 1.376 . S
C957 C956 1.392 . S
C957 H969 0.929 . S
C958 C954 1.531 1_554 S
C958 H970 0.960 . S
C958 H971 0.962 1_554 S
C958 H972 0.960 . S
C959 C956 1.511 . S
C959 H973 0.961 . S
C959 H974 0.961 . S
C959 H975 0.961 . S
C960 C961 1.370 . S
C960 C962 1.363 . S
C960 H976 0.931 . S
C961 C960 1.370 . S
C961 C965 1.408 . S
C962 C960 1.363 . S
C962 C963 1.370 . S
C962 C966 1.524 . S
C963 C955 1.503 . S
C963 C962 1.370 . S
C963 C964 1.403 . S
C964 C963 1.403 . S
C964 C965 1.404 . S
C964 C967 1.539 . S
C965 C961 1.408 . S
C965 C964 1.404 . S
C965 H977 0.930 . S
C966 C962 1.524 . S
C966 H978 0.956 . S
C966 H979 0.961 . S
C966 H980 0.961 . S
C967 C964 1.539 . S
C967 H981 0.958 1_556 S
C967 H982 0.961 . S
C967 H983 0.960 . S
H968 C952 0.931 1_554 S
H969 C957 0.929 . S
H970 C958 0.960 . S
H971 C958 0.962 1_556 S
H972 C958 0.960 . S
H973 C959 0.961 . S
H974 C959 0.961 . S
H975 C959 0.961 . S
H976 C960 0.931 . S
H977 C965 0.930 . S
H978 C966 0.956 . S
H979 C966 0.961 . S
H980 C966 0.961 . S
H981 C967 0.958 1_554 S
H982 C967 0.961 . S
H983 C967 0.960 . S
C984 C985 1.391 . S
C984 C986 1.394 . S
C984 H1000 0.931 . S
C985 C984 1.391 . S
C985 C989 1.376 . S
C986 C984 1.394 . S
C986 C987 1.369 . S
C986 C990 1.531 . S
C987 C986 1.369 . S
C987 C988 1.410 . S
C987 C995 1.503 . S
C988 C987 1.410 . S
C988 C989 1.392 . S
C988 C991 1.511 . S
C989 C985 1.376 . S
C989 C988 1.392 . S
C989 H1001 0.929 . S
C990 C986 1.531 . S
C990 H1002 0.960 . S
C990 H1003 0.962 . S
C990 H1004 0.960 . S
C991 C988 1.511 . S
C991 H1005 0.961 . S
C991 H1006 0.961 . S
C991 H1007 0.961 . S
C992 C993 1.370 . S
C992 C994 1.363 . S
C992 H1008 0.931 . S
C993 C992 1.370 . S
C993 C997 1.408 . S
C994 C992 1.363 . S
C994 C995 1.370 . S
C994 C998 1.524 . S
C995 C987 1.503 . S
C995 C994 1.370 . S
C995 C996 1.403 . S
C996 C995 1.403 . S
C996 C997 1.404 . S
C996 C999 1.539 . S
C997 C993 1.408 . S
C997 C996 1.404 . S
C997 H1009 0.930 . S
C998 C994 1.524 . S
C998 H1010 0.956 . S
C998 H1011 0.961 . S
C998 H1012 0.961 . S
C999 C996 1.539 . S
C999 H1013 0.958 . S
C999 H1014 0.961 . S
C999 H1015 0.960 . S
H1000 C984 0.931 . S
H1001 C989 0.929 . S
H1002 C990 0.960 . S
H1003 C990 0.962 . S
H1004 C990 0.960 . S
H1005 C991 0.961 . S
H1006 C991 0.961 . S
H1007 C991 0.961 . S
H1008 C992 0.931 . S
H1009 C997 0.930 . S
H1010 C998 0.956 . S
H1011 C998 0.961 . S
H1012 C998 0.961 . S
H1013 C999 0.958 . S
H1014 C999 0.961 . S
H1015 C999 0.960 . S
C1016 C1017 1.391 . S
C1016 C1018 1.394 . S
C1016 H1032 0.931 . S
C1017 C1016 1.391 . S
C1017 C1021 1.376 . S
C1018 C1016 1.394 . S
C1018 C1019 1.369 . S
C1018 C1022 1.531 . S
C1019 C1018 1.369 . S
C1019 C1020 1.410 . S
C1019 C1027 1.503 . S
C1020 C1019 1.410 . S
C1020 C1021 1.392 . S
C1020 C1023 1.511 . S
C1021 C1017 1.376 . S
C1021 C1020 1.392 . S
C1021 H1033 0.929 . S
C1022 C1018 1.531 . S
C1022 H1034 0.960 . S
C1022 H1035 0.962 . S
C1022 H1036 0.960 . S
C1023 C1020 1.511 . S
C1023 H1037 0.961 . S
C1023 H1038 0.961 . S
C1023 H1039 0.961 . S
C1024 C1025 1.370 . S
C1024 C1026 1.363 . S
C1024 H1040 0.931 . S
C1025 C1024 1.370 . S
C1025 C1029 1.408 . S
C1026 C1024 1.363 . S
C1026 C1027 1.370 . S
C1026 C1030 1.524 . S
C1027 C1019 1.503 . S
C1027 C1026 1.370 . S
C1027 C1028 1.403 . S
C1028 C1027 1.403 . S
C1028 C1029 1.404 . S
C1028 C1031 1.539 . S
C1029 C1025 1.408 . S
C1029 C1028 1.404 . S
C1029 H1041 0.930 . S
C1030 C1026 1.524 . S
C1030 H1042 0.956 . S
C1030 H1043 0.961 . S
C1030 H1044 0.961 . S
C1031 C1028 1.539 . S
C1031 H1045 0.958 . S
C1031 H1046 0.961 . S
C1031 H1047 0.960 . S
H1032 C1016 0.931 . S
H1033 C1021 0.929 . S
H1034 C1022 0.960 . S
H1035 C1022 0.962 . S
H1036 C1022 0.960 . S
H1037 C1023 0.961 . S
H1038 C1023 0.961 . S
H1039 C1023 0.961 . S
H1040 C1024 0.931 . S
H1041 C1029 0.930 . S
H1042 C1030 0.956 . S
H1043 C1030 0.961 . S
H1044 C1030 0.961 . S
H1045 C1031 0.958 . S
H1046 C1031 0.961 . S
H1047 C1031 0.960 . S
C1048 C1049 1.391 . S
C1048 C1050 1.394 . S
C1048 H1064 0.931 . S
C1049 C1048 1.391 . S
C1049 C1053 1.376 . S
C1050 C1048 1.394 . S
C1050 C1051 1.369 . S
C1050 C1054 1.531 . S
C1051 C1050 1.369 . S
C1051 C1052 1.410 . S
C1051 C1059 1.503 . S
C1052 C1051 1.410 . S
C1052 C1053 1.392 . S
C1052 C1055 1.511 . S
C1053 C1049 1.376 . S
C1053 C1052 1.392 . S
C1053 H1065 0.929 . S
C1054 C1050 1.531 . S
C1054 H1066 0.960 . S
C1054 H1067 0.962 . S
C1054 H1068 0.960 . S
C1055 C1052 1.511 . S
C1055 H1069 0.961 . S
C1055 H1070 0.961 . S
C1055 H1071 0.961 . S
C1056 C1057 1.370 . S
C1056 C1058 1.363 . S
C1056 H1072 0.931 . S
C1057 C1056 1.370 . S
C1057 C1061 1.408 . S
C1058 C1056 1.363 . S
C1058 C1059 1.370 . S
C1058 C1062 1.524 . S
C1059 C1051 1.503 . S
C1059 C1058 1.370 . S
C1059 C1060 1.403 . S
C1060 C1059 1.403 . S
C1060 C1061 1.404 . S
C1060 C1063 1.539 . S
C1061 C1057 1.408 . S
C1061 C1060 1.404 . S
C1061 H1073 0.930 . S
C1062 C1058 1.524 . S
C1062 H1074 0.956 . S
C1062 H1075 0.961 . S
C1062 H1076 0.961 . S
C1063 C1060 1.539 . S
C1063 H1077 0.958 . S
C1063 H1078 0.961 . S
C1063 H1079 0.960 . S
H1064 C1048 0.931 . S
H1065 C1053 0.929 . S
H1066 C1054 0.960 . S
H1067 C1054 0.962 . S
H1068 C1054 0.960 . S
H1069 C1055 0.961 . S
H1070 C1055 0.961 . S
H1071 C1055 0.961 . S
H1072 C1056 0.931 . S
H1073 C1061 0.930 . S
H1074 C1062 0.956 . S
H1075 C1062 0.961 . S
H1076 C1062 0.961 . S
H1077 C1063 0.958 . S
H1078 C1063 0.961 . S
H1079 C1063 0.960 . S
C1080 C1081 1.391 . S
C1080 C1082 1.394 . S
C1080 H1096 0.931 . S
C1081 C1080 1.391 . S
C1081 C1085 1.376 . S
C1082 C1080 1.394 . S
C1082 C1083 1.369 . S
C1082 C1086 1.531 . S
C1083 C1082 1.369 . S
C1083 C1084 1.410 . S
C1083 C1091 1.503 . S
C1084 C1083 1.410 . S
C1084 C1085 1.392 . S
C1084 C1087 1.511 . S
C1085 C1081 1.376 . S
C1085 C1084 1.392 . S
C1085 H1097 0.929 . S
C1086 C1082 1.531 . S
C1086 H1098 0.960 . S
C1086 H1099 0.962 . S
C1086 H1100 0.960 . S
C1087 C1084 1.511 . S
C1087 H1101 0.961 . S
C1087 H1102 0.961 . S
C1087 H1103 0.961 . S
C1088 C1089 1.370 . S
C1088 C1090 1.363 1_554 S
C1088 H1104 0.931 . S
C1089 C1088 1.370 . S
C1089 C1093 1.408 1_554 S
C1090 C1088 1.363 1_556 S
C1090 C1091 1.370 . S
C1090 C1094 1.524 . S
C1091 C1083 1.503 . S
C1091 C1090 1.370 . S
C1091 C1092 1.403 . S
C1092 C1091 1.403 . S
C1092 C1093 1.404 . S
C1092 C1095 1.539 . S
C1093 C1089 1.408 1_556 S
C1093 C1092 1.404 . S
C1093 H1105 0.930 . S
C1094 C1090 1.524 . S
C1094 H1106 0.956 . S
C1094 H1107 0.961 . S
C1094 H1108 0.961 1_556 S
C1095 C1092 1.539 . S
C1095 H1109 0.958 . S
C1095 H1110 0.961 . S
C1095 H1111 0.960 . S
H1096 C1080 0.931 . S
H1097 C1085 0.929 . S
H1098 C1086 0.960 . S
H1099 C1086 0.962 . S
H1100 C1086 0.960 . S
H1101 C1087 0.961 . S
H1102 C1087 0.961 . S
H1103 C1087 0.961 . S
H1104 C1088 0.931 . S
H1105 C1093 0.930 . S
H1106 C1094 0.956 . S
H1107 C1094 0.961 . S
H1108 C1094 0.961 1_554 S
H1109 C1095 0.958 . S
H1110 C1095 0.961 . S
H1111 C1095 0.960 . S
C1112 C1113 1.391 1_556 S
C1112 C1114 1.394 . S
C1112 H1128 0.931 . S
C1113 C1112 1.391 1_554 S
C1113 C1117 1.376 . S
C1114 C1112 1.394 . S
C1114 C1115 1.369 . S
C1114 C1118 1.531 . S
C1115 C1114 1.369 . S
C1115 C1116 1.410 . S
C1115 C1123 1.503 . S
C1116 C1115 1.410 . S
C1116 C1117 1.392 1_556 S
C1116 C1119 1.511 . S
C1117 C1113 1.376 . S
C1117 C1116 1.392 1_554 S
C1117 H1129 0.929 . S
C1118 C1114 1.531 . S
C1118 H1130 0.960 . S
C1118 H1131 0.962 . S
C1118 H1132 0.960 . S
C1119 C1116 1.511 . S
C1119 H1133 0.959 1_556 S
C1119 H1134 0.961 . S
C1119 H1135 0.961 . S
C1120 C1121 1.370 . S
C1120 C1122 1.363 . S
C1120 H1136 0.931 . S
C1121 C1120 1.370 . S
C1121 C1125 1.408 . S
C1122 C1120 1.363 . S
C1122 C1123 1.370 . S
C1122 C1126 1.524 . S
C1123 C1115 1.503 . S
C1123 C1122 1.370 . S
C1123 C1124 1.403 . S
C1124 C1123 1.403 . S
C1124 C1125 1.404 . S
C1124 C1127 1.539 . S
C1125 C1121 1.408 . S
C1125 C1124 1.404 . S
C1125 H1137 0.930 . S
C1126 C1122 1.524 . S
C1126 H1138 0.956 . S
C1126 H1139 0.961 . S
C1126 H1140 0.961 . S
C1127 C1124 1.539 . S
C1127 H1141 0.958 . S
C1127 H1142 0.961 . S
C1127 H1143 0.960 . S
H1128 C1112 0.931 . S
H1129 C1117 0.929 . S
H1130 C1118 0.960 . S
H1131 C1118 0.962 . S
H1132 C1118 0.960 . S
H1133 C1119 0.959 1_554 S
H1134 C1119 0.961 . S
H1135 C1119 0.961 . S
H1136 C1120 0.931 . S
H1137 C1125 0.930 . S
H1138 C1126 0.956 . S
H1139 C1126 0.961 . S
H1140 C1126 0.961 . S
H1141 C1127 0.958 . S
H1142 C1127 0.961 . S
H1143 C1127 0.960 . S
C1144 C1145 1.391 . S
C1144 C1146 1.394 1_554 S
C1144 H1160 0.931 . S
C1145 C1144 1.391 . S
C1145 C1149 1.376 1_554 S
C1146 C1144 1.394 1_556 S
C1146 C1147 1.369 . S
C1146 C1150 1.531 . S
C1147 C1146 1.369 . S
C1147 C1148 1.410 . S
C1147 C1155 1.503 . S
C1148 C1147 1.410 . S
C1148 C1149 1.392 . S
C1148 C1151 1.511 . S
C1149 C1145 1.376 1_556 S
C1149 C1148 1.392 . S
C1149 H1161 0.929 . S
C1150 C1146 1.531 . S
C1150 H1162 0.960 . S
C1150 H1163 0.962 . S
C1150 H1164 0.960 1_556 S
C1151 C1148 1.511 . S
C1151 H1165 0.961 . S
C1151 H1166 0.961 . S
C1151 H1167 0.961 . S
C1152 C1153 1.370 . S
C1152 C1154 1.363 . S
C1152 H1168 0.931 . S
C1153 C1152 1.370 . S
C1153 C1157 1.408 . S
C1154 C1152 1.363 . S
C1154 C1155 1.370 . S
C1154 C1158 1.524 . S
C1155 C1147 1.503 . S
C1155 C1154 1.370 . S
C1155 C1156 1.403 . S
C1156 C1155 1.403 . S
C1156 C1157 1.404 . S
C1156 C1159 1.539 . S
C1157 C1153 1.408 . S
C1157 C1156 1.404 . S
C1157 H1169 0.930 . S
C1158 C1154 1.524 . S
C1158 H1170 0.956 . S
C1158 H1171 0.961 . S
C1158 H1172 0.961 . S
C1159 C1156 1.539 . S
C1159 H1173 0.958 . S
C1159 H1174 0.961 . S
C1159 H1175 0.960 . S
H1160 C1144 0.931 . S
H1161 C1149 0.929 . S
H1162 C1150 0.960 . S
H1163 C1150 0.962 . S
H1164 C1150 0.960 1_554 S
H1165 C1151 0.961 . S
H1166 C1151 0.961 . S
H1167 C1151 0.961 . S
H1168 C1152 0.931 . S
H1169 C1157 0.930 . S
H1170 C1158 0.956 . S
H1171 C1158 0.961 . S
H1172 C1158 0.961 . S
H1173 C1159 0.958 . S
H1174 C1159 0.961 . S
H1175 C1159 0.960 . S
C1176 C1177 1.391 . S
C1176 C1178 1.394 . S
C1176 H1192 0.931 . S
C1177 C1176 1.391 . S
C1177 C1181 1.376 . S
C1178 C1176 1.394 . S
C1178 C1179 1.369 . S
C1178 C1182 1.531 . S
C1179 C1178 1.369 . S
C1179 C1180 1.410 . S
C1179 C1187 1.503 . S
C1180 C1179 1.410 . S
C1180 C1181 1.392 . S
C1180 C1183 1.511 . S
C1181 C1177 1.376 . S
C1181 C1180 1.392 . S
C1181 H1193 0.929 . S
C1182 C1178 1.531 . S
C1182 H1194 0.960 . S
C1182 H1195 0.962 . S
C1182 H1196 0.960 . S
C1183 C1180 1.511 . S
C1183 H1197 0.961 . S
C1183 H1198 0.961 . S
C1183 H1199 0.961 . S
C1184 C1185 1.370 . S
C1184 C1186 1.363 . S
C1184 H1200 0.931 . S
C1185 C1184 1.370 . S
C1185 C1189 1.408 . S
C1186 C1184 1.363 . S
C1186 C1187 1.370 . S
C1186 C1190 1.524 . S
C1187 C1179 1.503 . S
C1187 C1186 1.370 . S
C1187 C1188 1.403 . S
C1188 C1187 1.403 . S
C1188 C1189 1.404 . S
C1188 C1191 1.539 . S
C1189 C1185 1.408 . S
C1189 C1188 1.404 . S
C1189 H1201 0.930 . S
C1190 C1186 1.524 . S
C1190 H1202 0.956 . S
C1190 H1203 0.961 . S
C1190 H1204 0.961 . S
C1191 C1188 1.539 . S
C1191 H1205 0.958 . S
C1191 H1206 0.961 . S
C1191 H1207 0.960 . S
H1192 C1176 0.931 . S
H1193 C1181 0.929 . S
H1194 C1182 0.960 . S
H1195 C1182 0.962 . S
H1196 C1182 0.960 . S
H1197 C1183 0.961 . S
H1198 C1183 0.961 . S
H1199 C1183 0.961 . S
H1200 C1184 0.931 . S
H1201 C1189 0.930 . S
H1202 C1190 0.956 . S
H1203 C1190 0.961 . S
H1204 C1190 0.961 . S
H1205 C1191 0.958 . S
H1206 C1191 0.961 . S
H1207 C1191 0.960 . S
C1208 C1209 1.391 . S
C1208 C1210 1.394 . S
C1208 H1224 0.931 . S
C1209 C1208 1.391 . S
C1209 C1213 1.376 . S
C1210 C1208 1.394 . S
C1210 C1211 1.369 . S
C1210 C1214 1.531 . S
C1211 C1210 1.369 . S
C1211 C1212 1.410 . S
C1211 C1219 1.503 . S
C1212 C1211 1.410 . S
C1212 C1213 1.392 . S
C1212 C1215 1.511 . S
C1213 C1209 1.376 . S
C1213 C1212 1.392 . S
C1213 H1225 0.929 . S
C1214 C1210 1.531 . S
C1214 H1226 0.960 . S
C1214 H1227 0.962 . S
C1214 H1228 0.960 . S
C1215 C1212 1.511 . S
C1215 H1229 0.961 . S
C1215 H1230 0.961 . S
C1215 H1231 0.961 . S
C1216 C1217 1.370 . S
C1216 C1218 1.363 . S
C1216 H1232 0.931 . S
C1217 C1216 1.370 . S
C1217 C1221 1.408 . S
C1218 C1216 1.363 . S
C1218 C1219 1.370 . S
C1218 C1222 1.524 . S
C1219 C1211 1.503 . S
C1219 C1218 1.370 . S
C1219 C1220 1.403 . S
C1220 C1219 1.403 . S
C1220 C1221 1.404 . S
C1220 C1223 1.539 . S
C1221 C1217 1.408 . S
C1221 C1220 1.404 . S
C1221 H1233 0.930 . S
C1222 C1218 1.524 . S
C1222 H1234 0.956 . S
C1222 H1235 0.961 . S
C1222 H1236 0.961 . S
C1223 C1220 1.539 . S
C1223 H1237 0.958 . S
C1223 H1238 0.961 . S
C1223 H1239 0.960 . S
H1224 C1208 0.931 . S
H1225 C1213 0.929 . S
H1226 C1214 0.960 . S
H1227 C1214 0.962 . S
H1228 C1214 0.960 . S
H1229 C1215 0.961 . S
H1230 C1215 0.961 . S
H1231 C1215 0.961 . S
H1232 C1216 0.931 . S
H1233 C1221 0.930 . S
H1234 C1222 0.956 . S
H1235 C1222 0.961 . S
H1236 C1222 0.961 . S
H1237 C1223 0.958 . S
H1238 C1223 0.961 . S
H1239 C1223 0.960 . S
C1240 C1241 1.391 . S
C1240 C1242 1.394 . S
C1240 H1256 0.931 . S
C1241 C1240 1.391 . S
C1241 C1245 1.376 . S
C1242 C1240 1.394 . S
C1242 C1243 1.369 . S
C1242 C1246 1.531 . S
C1243 C1242 1.369 . S
C1243 C1244 1.410 . S
C1243 C1251 1.503 . S
C1244 C1243 1.410 . S
C1244 C1245 1.392 . S
C1244 C1247 1.511 . S
C1245 C1241 1.376 . S
C1245 C1244 1.392 . S
C1245 H1257 0.929 . S
C1246 C1242 1.531 . S
C1246 H1258 0.960 . S
C1246 H1259 0.962 . S
C1246 H1260 0.960 . S
C1247 C1244 1.511 . S
C1247 H1261 0.961 . S
C1247 H1262 0.961 . S
C1247 H1263 0.961 . S
C1248 C1249 1.370 . S
C1248 C1250 1.363 . S
C1248 H1264 0.931 . S
C1249 C1248 1.370 . S
C1249 C1253 1.408 . S
C1250 C1248 1.363 . S
C1250 C1251 1.370 . S
C1250 C1254 1.524 . S
C1251 C1243 1.503 . S
C1251 C1250 1.370 . S
C1251 C1252 1.403 . S
C1252 C1251 1.403 . S
C1252 C1253 1.404 . S
C1252 C1255 1.539 . S
C1253 C1249 1.408 . S
C1253 C1252 1.404 . S
C1253 H1265 0.930 . S
C1254 C1250 1.524 . S
C1254 H1266 0.956 . S
C1254 H1267 0.961 . S
C1254 H1268 0.961 . S
C1255 C1252 1.539 . S
C1255 H1269 0.958 . S
C1255 H1270 0.961 . S
C1255 H1271 0.960 . S
H1256 C1240 0.931 . S
H1257 C1245 0.929 . S
H1258 C1246 0.960 . S
H1259 C1246 0.962 . S
H1260 C1246 0.960 . S
H1261 C1247 0.961 . S
H1262 C1247 0.961 . S
H1263 C1247 0.961 . S
H1264 C1248 0.931 . S
H1265 C1253 0.930 . S
H1266 C1254 0.956 . S
H1267 C1254 0.961 . S
H1268 C1254 0.961 . S
H1269 C1255 0.958 . S
H1270 C1255 0.961 . S
H1271 C1255 0.960 . S
C1272 C1273 1.391 . S
C1272 C1274 1.394 1_556 S
C1272 H1288 0.931 . S
C1273 C1272 1.391 . S
C1273 C1277 1.376 1_556 S
C1274 C1272 1.394 1_554 S
C1274 C1275 1.369 . S
C1274 C1278 1.531 . S
C1275 C1274 1.369 . S
C1275 C1276 1.410 . S
C1275 C1283 1.503 . S
C1276 C1275 1.410 . S
C1276 C1277 1.392 . S
C1276 C1279 1.511 . S
C1277 C1273 1.376 1_554 S
C1277 C1276 1.392 . S
C1277 H1289 0.929 . S
C1278 C1274 1.531 . S
C1278 H1290 0.960 . S
C1278 H1291 0.962 . S
C1278 H1292 0.960 1_554 S
C1279 C1276 1.511 . S
C1279 H1293 0.961 . S
C1279 H1294 0.961 . S
C1279 H1295 0.961 . S
C1280 C1281 1.370 . S
C1280 C1282 1.363 . S
C1280 H1296 0.931 . S
C1281 C1280 1.370 . S
C1281 C1285 1.408 . S
C1282 C1280 1.363 . S
C1282 C1283 1.370 . S
C1282 C1286 1.524 . S
C1283 C1275 1.503 . S
C1283 C1282 1.370 . S
C1283 C1284 1.403 . S
C1284 C1283 1.403 . S
C1284 C1285 1.404 . S
C1284 C1287 1.539 . S
C1285 C1281 1.408 . S
C1285 C1284 1.404 . S
C1285 H1297 0.930 . S
C1286 C1282 1.524 . S
C1286 H1298 0.956 . S
C1286 H1299 0.961 . S
C1286 H1300 0.961 . S
C1287 C1284 1.539 . S
C1287 H1301 0.958 . S
C1287 H1302 0.961 . S
C1287 H1303 0.960 . S
H1288 C1272 0.931 . S
H1289 C1277 0.929 . S
H1290 C1278 0.960 . S
H1291 C1278 0.962 . S
H1292 C1278 0.960 1_556 S
H1293 C1279 0.961 . S
H1294 C1279 0.961 . S
H1295 C1279 0.961 . S
H1296 C1280 0.931 . S
H1297 C1285 0.930 . S
H1298 C1286 0.956 . S
H1299 C1286 0.961 . S
H1300 C1286 0.961 . S
H1301 C1287 0.958 . S
H1302 C1287 0.961 . S
H1303 C1287 0.960 . S
C1304 C1305 1.391 1_554 S
C1304 C1306 1.394 . S
C1304 H1320 0.931 . S
C1305 C1304 1.391 1_556 S
C1305 C1309 1.376 1_556 S
C1306 C1304 1.394 . S
C1306 C1307 1.369 . S
C1306 C1310 1.531 . S
C1307 C1306 1.369 . S
C1307 C1308 1.410 . S
C1307 C1315 1.503 . S
C1308 C1307 1.410 . S
C1308 C1309 1.392 . S
C1308 C1311 1.511 . S
C1309 C1305 1.376 1_554 S
C1309 C1308 1.392 . S
C1309 H1321 0.929 1_554 S
C1310 C1306 1.531 . S
C1310 H1322 0.960 . S
C1310 H1323 0.962 . S
C1310 H1324 0.960 . S
C1311 C1308 1.511 . S
C1311 H1325 0.961 . S
C1311 H1326 0.961 . S
C1311 H1327 0.961 . S
C1312 C1313 1.370 . S
C1312 C1314 1.363 . S
C1312 H1328 0.931 . S
C1313 C1312 1.370 . S
C1313 C1317 1.408 . S
C1314 C1312 1.363 . S
C1314 C1315 1.370 . S
C1314 C1318 1.524 . S
C1315 C1307 1.503 . S
C1315 C1314 1.370 . S
C1315 C1316 1.403 . S
C1316 C1315 1.403 . S
C1316 C1317 1.404 . S
C1316 C1319 1.539 . S
C1317 C1313 1.408 . S
C1317 C1316 1.404 . S
C1317 H1329 0.930 . S
C1318 C1314 1.524 . S
C1318 H1330 0.956 . S
C1318 H1331 0.961 . S
C1318 H1332 0.961 . S
C1319 C1316 1.539 . S
C1319 H1333 0.958 . S
C1319 H1334 0.961 . S
C1319 H1335 0.960 . S
H1320 C1304 0.931 . S
H1321 C1309 0.929 1_556 S
H1322 C1310 0.960 . S
H1323 C1310 0.962 . S
H1324 C1310 0.960 . S
H1325 C1311 0.961 . S
H1326 C1311 0.961 . S
H1327 C1311 0.961 . S
H1328 C1312 0.931 . S
H1329 C1317 0.930 . S
H1330 C1318 0.956 . S
H1331 C1318 0.961 . S
H1332 C1318 0.961 . S
H1333 C1319 0.958 . S
H1334 C1319 0.961 . S
H1335 C1319 0.960 . S
C1336 C1337 1.391 . S
C1336 C1338 1.394 . S
C1336 H1352 0.931 . S
C1337 C1336 1.391 . S
C1337 C1341 1.376 . S
C1338 C1336 1.394 . S
C1338 C1339 1.369 . S
C1338 C1342 1.531 . S
C1339 C1338 1.369 . S
C1339 C1340 1.410 . S
C1339 C1347 1.503 . S
C1340 C1339 1.410 . S
C1340 C1341 1.392 . S
C1340 C1343 1.511 . S
C1341 C1337 1.376 . S
C1341 C1340 1.392 . S
C1341 H1353 0.929 . S
C1342 C1338 1.531 . S
C1342 H1354 0.960 . S
C1342 H1355 0.962 . S
C1342 H1356 0.960 . S
C1343 C1340 1.511 . S
C1343 H1357 0.961 . S
C1343 H1358 0.961 . S
C1343 H1359 0.961 . S
C1344 C1345 1.370 1_554 S
C1344 C1346 1.363 . S
C1344 H1360 0.931 . S
C1345 C1344 1.370 1_556 S
C1345 C1349 1.408 . S
C1346 C1344 1.363 . S
C1346 C1347 1.370 . S
C1346 C1350 1.524 . S
C1347 C1339 1.503 . S
C1347 C1346 1.370 . S
C1347 C1348 1.403 . S
C1348 C1347 1.403 . S
C1348 C1349 1.404 1_554 S
C1348 C1351 1.539 . S
C1349 C1345 1.408 . S
C1349 C1348 1.404 1_556 S
C1349 H1361 0.930 . S
C1350 C1346 1.524 . S
C1350 H1362 0.956 . S
C1350 H1363 0.961 . S
C1350 H1364 0.961 . S
C1351 C1348 1.539 . S
C1351 H1365 0.958 . S
C1351 H1366 0.961 . S
C1351 H1367 0.960 . S
H1352 C1336 0.931 . S
H1353 C1341 0.929 . S
H1354 C1342 0.960 . S
H1355 C1342 0.962 . S
H1356 C1342 0.960 . S
H1357 C1343 0.961 . S
H1358 C1343 0.961 . S
H1359 C1343 0.961 . S
H1360 C1344 0.931 . S
H1361 C1349 0.930 . S
H1362 C1350 0.956 . S
H1363 C1350 0.961 . S
H1364 C1350 0.961 . S
H1365 C1351 0.958 . S
H1366 C1351 0.961 . S
H1367 C1351 0.960 . S
C1368 C1369 1.391 . S
C1368 C1370 1.394 . S
C1368 H1384 0.931 . S
C1369 C1368 1.391 . S
C1369 C1373 1.376 . S
C1370 C1368 1.394 . S
C1370 C1371 1.369 . S
C1370 C1374 1.531 . S
C1371 C1370 1.369 . S
C1371 C1372 1.410 . S
C1371 C1379 1.503 . S
C1372 C1371 1.410 . S
C1372 C1373 1.392 . S
C1372 C1375 1.511 . S
C1373 C1369 1.376 . S
C1373 C1372 1.392 . S
C1373 H1385 0.929 . S
C1374 C1370 1.531 . S
C1374 H1386 0.960 . S
C1374 H1387 0.962 . S
C1374 H1388 0.960 . S
C1375 C1372 1.511 . S
C1375 H1389 0.961 . S
C1375 H1390 0.961 . S
C1375 H1391 0.961 . S
C1376 C1377 1.370 . S
C1376 C1378 1.363 . S
C1376 H1392 0.931 . S
C1377 C1376 1.370 . S
C1377 C1381 1.408 . S
C1378 C1376 1.363 . S
C1378 C1379 1.370 . S
C1378 C1382 1.524 . S
C1379 C1371 1.503 . S
C1379 C1378 1.370 . S
C1379 C1380 1.403 . S
C1380 C1379 1.403 . S
C1380 C1381 1.404 . S
C1380 C1383 1.539 . S
C1381 C1377 1.408 . S
C1381 C1380 1.404 . S
C1381 H1393 0.930 . S
C1382 C1378 1.524 . S
C1382 H1394 0.956 . S
C1382 H1395 0.961 . S
C1382 H1396 0.961 . S
C1383 C1380 1.539 . S
C1383 H1397 0.958 . S
C1383 H1398 0.961 . S
C1383 H1399 0.960 . S
H1384 C1368 0.931 . S
H1385 C1373 0.929 . S
H1386 C1374 0.960 . S
H1387 C1374 0.962 . S
H1388 C1374 0.960 . S
H1389 C1375 0.961 . S
H1390 C1375 0.961 . S
H1391 C1375 0.961 . S
H1392 C1376 0.931 . S
H1393 C1381 0.930 . S
H1394 C1382 0.956 . S
H1395 C1382 0.961 . S
H1396 C1382 0.961 . S
H1397 C1383 0.958 . S
H1398 C1383 0.961 . S
H1399 C1383 0.960 . S
C1400 C1401 1.391 . S
C1400 C1402 1.394 . S
C1400 H1416 0.931 . S
C1401 C1400 1.391 . S
C1401 C1405 1.376 . S
C1402 C1400 1.394 . S
C1402 C1403 1.369 . S
C1402 C1406 1.531 . S
C1403 C1402 1.369 . S
C1403 C1404 1.410 . S
C1403 C1411 1.503 . S
C1404 C1403 1.410 . S
C1404 C1405 1.392 . S
C1404 C1407 1.511 . S
C1405 C1401 1.376 . S
C1405 C1404 1.392 . S
C1405 H1417 0.929 . S
C1406 C1402 1.531 . S
C1406 H1418 0.960 . S
C1406 H1419 0.962 . S
C1406 H1420 0.960 . S
C1407 C1404 1.511 . S
C1407 H1421 0.961 . S
C1407 H1422 0.961 . S
C1407 H1423 0.961 . S
C1408 C1409 1.370 . S
C1408 C1410 1.363 . S
C1408 H1424 0.931 . S
C1409 C1408 1.370 . S
C1409 C1413 1.408 . S
C1410 C1408 1.363 . S
C1410 C1411 1.370 . S
C1410 C1414 1.524 . S
C1411 C1403 1.503 . S
C1411 C1410 1.370 . S
C1411 C1412 1.403 . S
C1412 C1411 1.403 . S
C1412 C1413 1.404 . S
C1412 C1415 1.539 . S
C1413 C1409 1.408 . S
C1413 C1412 1.404 . S
C1413 H1425 0.930 . S
C1414 C1410 1.524 . S
C1414 H1426 0.956 . S
C1414 H1427 0.961 . S
C1414 H1428 0.961 . S
C1415 C1412 1.539 . S
C1415 H1429 0.958 . S
C1415 H1430 0.961 . S
C1415 H1431 0.960 . S
H1416 C1400 0.931 . S
H1417 C1405 0.929 . S
H1418 C1406 0.960 . S
H1419 C1406 0.962 . S
H1420 C1406 0.960 . S
H1421 C1407 0.961 . S
H1422 C1407 0.961 . S
H1423 C1407 0.961 . S
H1424 C1408 0.931 . S
H1425 C1413 0.930 . S
H1426 C1414 0.956 . S
H1427 C1414 0.961 . S
H1428 C1414 0.961 . S
H1429 C1415 0.958 . S
H1430 C1415 0.961 . S
H1431 C1415 0.960 . S
C1432 C1433 1.391 . S
C1432 C1434 1.394 . S
C1432 H1448 0.931 . S
C1433 C1432 1.391 . S
C1433 C1437 1.376 . S
C1434 C1432 1.394 . S
C1434 C1435 1.369 . S
C1434 C1438 1.531 . S
C1435 C1434 1.369 . S
C1435 C1436 1.410 . S
C1435 C1443 1.503 . S
C1436 C1435 1.410 . S
C1436 C1437 1.392 . S
C1436 C1439 1.511 . S
C1437 C1433 1.376 . S
C1437 C1436 1.392 . S
C1437 H1449 0.929 . S
C1438 C1434 1.531 . S
C1438 H1450 0.960 . S
C1438 H1451 0.962 . S
C1438 H1452 0.960 . S
C1439 C1436 1.511 . S
C1439 H1453 0.961 . S
C1439 H1454 0.961 . S
C1439 H1455 0.961 . S
C1440 C1441 1.370 . S
C1440 C1442 1.363 . S
C1440 H1456 0.931 . S
C1441 C1440 1.370 . S
C1441 C1445 1.408 . S
C1442 C1440 1.363 . S
C1442 C1443 1.370 . S
C1442 C1446 1.524 . S
C1443 C1435 1.503 . S
C1443 C1442 1.370 . S
C1443 C1444 1.403 . S
C1444 C1443 1.403 . S
C1444 C1445 1.404 . S
C1444 C1447 1.539 . S
C1445 C1441 1.408 . S
C1445 C1444 1.404 . S
C1445 H1457 0.930 . S
C1446 C1442 1.524 . S
C1446 H1458 0.956 . S
C1446 H1459 0.961 . S
C1446 H1460 0.961 . S
C1447 C1444 1.539 . S
C1447 H1461 0.958 . S
C1447 H1462 0.961 . S
C1447 H1463 0.960 . S
H1448 C1432 0.931 . S
H1449 C1437 0.929 . S
H1450 C1438 0.960 . S
H1451 C1438 0.962 . S
H1452 C1438 0.960 . S
H1453 C1439 0.961 . S
H1454 C1439 0.961 . S
H1455 C1439 0.961 . S
H1456 C1440 0.931 . S
H1457 C1445 0.930 . S
H1458 C1446 0.956 . S
H1459 C1446 0.961 . S
H1460 C1446 0.961 . S
H1461 C1447 0.958 . S
H1462 C1447 0.961 . S
H1463 C1447 0.960 . S
C1464 C1465 1.391 . S
C1464 C1466 1.394 . S
C1464 H1480 0.931 . S
C1465 C1464 1.391 . S
C1465 C1469 1.376 . S
C1466 C1464 1.394 . S
C1466 C1467 1.369 . S
C1466 C1470 1.531 . S
C1467 C1466 1.369 . S
C1467 C1468 1.410 . S
C1467 C1475 1.503 . S
C1468 C1467 1.410 . S
C1468 C1469 1.392 . S
C1468 C1471 1.511 . S
C1469 C1465 1.376 . S
C1469 C1468 1.392 . S
C1469 H1481 0.929 . S
C1470 C1466 1.531 . S
C1470 H1482 0.960 . S
C1470 H1483 0.962 . S
C1470 H1484 0.960 . S
C1471 C1468 1.511 . S
C1471 H1485 0.961 . S
C1471 H1486 0.961 . S
C1471 H1487 0.961 . S
C1472 C1473 1.370 . S
C1472 C1474 1.363 . S
C1472 H1488 0.931 . S
C1473 C1472 1.370 . S
C1473 C1477 1.408 . S
C1474 C1472 1.363 . S
C1474 C1475 1.370 . S
C1474 C1478 1.524 . S
C1475 C1467 1.503 . S
C1475 C1474 1.370 . S
C1475 C1476 1.403 . S
C1476 C1475 1.403 . S
C1476 C1477 1.404 . S
C1476 C1479 1.539 . S
C1477 C1473 1.408 . S
C1477 C1476 1.404 . S
C1477 H1489 0.930 . S
C1478 C1474 1.524 . S
C1478 H1490 0.956 . S
C1478 H1491 0.961 . S
C1478 H1492 0.961 . S
C1479 C1476 1.539 . S
C1479 H1493 0.958 . S
C1479 H1494 0.961 . S
C1479 H1495 0.960 . S
H1480 C1464 0.931 . S
H1481 C1469 0.929 . S
H1482 C1470 0.960 . S
H1483 C1470 0.962 . S
H1484 C1470 0.960 . S
H1485 C1471 0.961 . S
H1486 C1471 0.961 . S
H1487 C1471 0.961 . S
H1488 C1472 0.931 . S
H1489 C1477 0.930 . S
H1490 C1478 0.956 . S
H1491 C1478 0.961 . S
H1492 C1478 0.961 . S
H1493 C1479 0.958 . S
H1494 C1479 0.961 . S
H1495 C1479 0.960 . S
C1496 C1497 1.391 . S
C1496 C1498 1.394 . S
C1496 H1512 0.931 . S
C1497 C1496 1.391 . S
C1497 C1501 1.376 . S
C1498 C1496 1.394 . S
C1498 C1499 1.369 . S
C1498 C1502 1.531 . S
C1499 C1498 1.369 . S
C1499 C1500 1.410 . S
C1499 C1507 1.503 . S
C1500 C1499 1.410 . S
C1500 C1501 1.392 . S
C1500 C1503 1.511 . S
C1501 C1497 1.376 . S
C1501 C1500 1.392 . S
C1501 H1513 0.929 . S
C1502 C1498 1.531 . S
C1502 H1514 0.960 . S
C1502 H1515 0.962 . S
C1502 H1516 0.960 . S
C1503 C1500 1.511 . S
C1503 H1517 0.961 . S
C1503 H1518 0.961 . S
C1503 H1519 0.961 . S
C1504 C1505 1.370 . S
C1504 C1506 1.363 . S
C1504 H1520 0.931 . S
C1505 C1504 1.370 . S
C1505 C1509 1.408 . S
C1506 C1504 1.363 . S
C1506 C1507 1.370 . S
C1506 C1510 1.524 . S
C1507 C1499 1.503 . S
C1507 C1506 1.370 . S
C1507 C1508 1.403 . S
C1508 C1507 1.403 . S
C1508 C1509 1.404 . S
C1508 C1511 1.539 . S
C1509 C1505 1.408 . S
C1509 C1508 1.404 . S
C1509 H1521 0.930 . S
C1510 C1506 1.524 . S
C1510 H1522 0.956 . S
C1510 H1523 0.961 . S
C1510 H1524 0.961 . S
C1511 C1508 1.539 . S
C1511 H1525 0.958 . S
C1511 H1526 0.961 . S
C1511 H1527 0.960 . S
H1512 C1496 0.931 . S
H1513 C1501 0.929 . S
H1514 C1502 0.960 . S
H1515 C1502 0.962 . S
H1516 C1502 0.960 . S
H1517 C1503 0.961 . S
H1518 C1503 0.961 . S
H1519 C1503 0.961 . S
H1520 C1504 0.931 . S
H1521 C1509 0.930 . S
H1522 C1510 0.956 . S
H1523 C1510 0.961 . S
H1524 C1510 0.961 . S
H1525 C1511 0.958 . S
H1526 C1511 0.961 . S
H1527 C1511 0.960 . S
C1528 C1529 1.391 . S
C1528 C1530 1.394 . S
C1528 H1544 0.931 . S
C1529 C1528 1.391 . S
C1529 C1533 1.376 . S
C1530 C1528 1.394 . S
C1530 C1531 1.369 . S
C1530 C1534 1.531 . S
C1531 C1530 1.369 . S
C1531 C1532 1.410 . S
C1531 C1539 1.503 . S
C1532 C1531 1.410 . S
C1532 C1533 1.392 . S
C1532 C1535 1.511 . S
C1533 C1529 1.376 . S
C1533 C1532 1.392 . S
C1533 H1545 0.929 . S
C1534 C1530 1.531 . S
C1534 H1546 0.960 . S
C1534 H1547 0.962 . S
C1534 H1548 0.960 . S
C1535 C1532 1.511 . S
C1535 H1549 0.961 . S
C1535 H1550 0.961 . S
C1535 H1551 0.961 . S
C1536 C1537 1.370 . S
C1536 C1538 1.363 . S
C1536 H1552 0.931 . S
C1537 C1536 1.370 . S
C1537 C1541 1.408 . S
C1538 C1536 1.363 . S
C1538 C1539 1.370 . S
C1538 C1542 1.524 . S
C1539 C1531 1.503 . S
C1539 C1538 1.370 . S
C1539 C1540 1.403 . S
C1540 C1539 1.403 . S
C1540 C1541 1.404 . S
C1540 C1543 1.539 . S
C1541 C1537 1.408 . S
C1541 C1540 1.404 . S
C1541 H1553 0.930 . S
C1542 C1538 1.524 . S
C1542 H1554 0.956 . S
C1542 H1555 0.961 . S
C1542 H1556 0.961 . S
C1543 C1540 1.539 . S
C1543 H1557 0.958 . S
C1543 H1558 0.961 . S
C1543 H1559 0.960 . S
H1544 C1528 0.931 . S
H1545 C1533 0.929 . S
H1546 C1534 0.960 . S
H1547 C1534 0.962 . S
H1548 C1534 0.960 . S
H1549 C1535 0.961 . S
H1550 C1535 0.961 . S
H1551 C1535 0.961 . S
H1552 C1536 0.931 . S
H1553 C1541 0.930 . S
H1554 C1542 0.956 . S
H1555 C1542 0.961 . S
H1556 C1542 0.961 . S
H1557 C1543 0.958 . S
H1558 C1543 0.961 . S
H1559 C1543 0.960 . S
C1560 C1561 1.391 . S
C1560 C1562 1.394 . S
C1560 H1576 0.931 . S
C1561 C1560 1.391 . S
C1561 C1565 1.376 . S
C1562 C1560 1.394 . S
C1562 C1563 1.369 . S
C1562 C1566 1.531 . S
C1563 C1562 1.369 . S
C1563 C1564 1.410 . S
C1563 C1571 1.503 . S
C1564 C1563 1.410 . S
C1564 C1565 1.392 . S
C1564 C1567 1.511 . S
C1565 C1561 1.376 . S
C1565 C1564 1.392 . S
C1565 H1577 0.929 . S
C1566 C1562 1.531 . S
C1566 H1578 0.960 . S
C1566 H1579 0.962 . S
C1566 H1580 0.960 . S
C1567 C1564 1.511 . S
C1567 H1581 0.961 . S
C1567 H1582 0.961 . S
C1567 H1583 0.961 . S
C1568 C1569 1.370 1_556 S
C1568 C1570 1.363 . S
C1568 H1584 0.931 . S
C1569 C1568 1.370 1_554 S
C1569 C1573 1.408 . S
C1570 C1568 1.363 . S
C1570 C1571 1.370 . S
C1570 C1574 1.524 . S
C1571 C1563 1.503 . S
C1571 C1570 1.370 . S
C1571 C1572 1.403 1_556 S
C1572 C1571 1.403 1_554 S
C1572 C1573 1.404 . S
C1572 C1575 1.539 . S
C1573 C1569 1.408 . S
C1573 C1572 1.404 . S
C1573 H1585 0.930 . S
C1574 C1570 1.524 . S
C1574 H1586 0.956 . S
C1574 H1587 0.961 . S
C1574 H1588 0.961 . S
C1575 C1572 1.539 . S
C1575 H1589 0.958 . S
C1575 H1590 0.961 . S
C1575 H1591 0.960 . S
H1576 C1560 0.931 . S
H1577 C1565 0.929 . S
H1578 C1566 0.960 . S
H1579 C1566 0.962 . S
H1580 C1566 0.960 . S
H1581 C1567 0.961 . S
H1582 C1567 0.961 . S
H1583 C1567 0.961 . S
H1584 C1568 0.931 . S
H1585 C1573 0.930 . S
H1586 C1574 0.956 . S
H1587 C1574 0.961 . S
H1588 C1574 0.961 . S
H1589 C1575 0.958 . S
H1590 C1575 0.961 . S
H1591 C1575 0.960 . S
C1592 C1593 1.391 . S
C1592 C1594 1.394 1_554 S
C1592 H1608 0.931 . S
C1593 C1592 1.391 . S
C1593 C1597 1.376 . S
C1594 C1592 1.394 1_556 S
C1594 C1595 1.369 . S
C1594 C1598 1.531 . S
C1595 C1594 1.369 . S
C1595 C1596 1.410 . S
C1595 C1603 1.503 . S
C1596 C1595 1.410 . S
C1596 C1597 1.392 1_556 S
C1596 C1599 1.511 . S
C1597 C1593 1.376 . S
C1597 C1596 1.392 1_554 S
C1597 H1609 0.929 . S
C1598 C1594 1.531 . S
C1598 H1610 0.960 . S
C1598 H1611 0.962 . S
C1598 H1612 0.960 1_556 S
C1599 C1596 1.511 . S
C1599 H1613 0.961 . S
C1599 H1614 0.961 . S
C1599 H1615 0.961 . S
C1600 C1601 1.370 . S
C1600 C1602 1.363 . S
C1600 H1616 0.931 . S
C1601 C1600 1.370 . S
C1601 C1605 1.408 . S
C1602 C1600 1.363 . S
C1602 C1603 1.370 . S
C1602 C1606 1.524 . S
C1603 C1595 1.503 . S
C1603 C1602 1.370 . S
C1603 C1604 1.403 . S
C1604 C1603 1.403 . S
C1604 C1605 1.404 . S
C1604 C1607 1.539 . S
C1605 C1601 1.408 . S
C1605 C1604 1.404 . S
C1605 H1617 0.930 . S
C1606 C1602 1.524 . S
C1606 H1618 0.956 . S
C1606 H1619 0.961 . S
C1606 H1620 0.961 . S
C1607 C1604 1.539 . S
C1607 H1621 0.958 . S
C1607 H1622 0.961 . S
C1607 H1623 0.960 . S
H1608 C1592 0.931 . S
H1609 C1597 0.929 . S
H1610 C1598 0.960 . S
H1611 C1598 0.962 . S
H1612 C1598 0.960 1_554 S
H1613 C1599 0.961 . S
H1614 C1599 0.961 . S
H1615 C1599 0.961 . S
H1616 C1600 0.931 . S
H1617 C1605 0.930 . S
H1618 C1606 0.956 . S
H1619 C1606 0.961 . S
H1620 C1606 0.961 . S
H1621 C1607 0.958 . S
H1622 C1607 0.961 . S
H1623 C1607 0.960 . S
C1624 C1625 1.391 . S
C1624 C1626 1.394 . S
C1624 H1640 0.931 . S
C1625 C1624 1.391 . S
C1625 C1629 1.376 . S
C1626 C1624 1.394 . S
C1626 C1627 1.369 . S
C1626 C1630 1.531 . S
C1627 C1626 1.369 . S
C1627 C1628 1.410 . S
C1627 C1635 1.503 . S
C1628 C1627 1.410 . S
C1628 C1629 1.392 . S
C1628 C1631 1.511 . S
C1629 C1625 1.376 . S
C1629 C1628 1.392 . S
C1629 H1641 0.929 . S
C1630 C1626 1.531 . S
C1630 H1642 0.960 . S
C1630 H1643 0.962 . S
C1630 H1644 0.960 . S
C1631 C1628 1.511 . S
C1631 H1645 0.961 . S
C1631 H1646 0.961 . S
C1631 H1647 0.961 . S
C1632 C1633 1.370 . S
C1632 C1634 1.363 . S
C1632 H1648 0.931 . S
C1633 C1632 1.370 . S
C1633 C1637 1.408 1_554 S
C1634 C1632 1.363 . S
C1634 C1635 1.370 1_554 S
C1634 C1638 1.524 . S
C1635 C1627 1.503 . S
C1635 C1634 1.370 1_556 S
C1635 C1636 1.403 . S
C1636 C1635 1.403 . S
C1636 C1637 1.404 . S
C1636 C1639 1.539 . S
C1637 C1633 1.408 1_556 S
C1637 C1636 1.404 . S
C1637 H1649 0.930 . S
C1638 C1634 1.524 . S
C1638 H1650 0.956 1_554 S
C1638 H1651 0.961 1_554 S
C1638 H1652 0.961 . S
C1639 C1636 1.539 . S
C1639 H1653 0.958 . S
C1639 H1654 0.961 . S
C1639 H1655 0.960 . S
H1640 C1624 0.931 . S
H1641 C1629 0.929 . S
H1642 C1630 0.960 . S
H1643 C1630 0.962 . S
H1644 C1630 0.960 . S
H1645 C1631 0.961 . S
H1646 C1631 0.961 . S
H1647 C1631 0.961 . S
H1648 C1632 0.931 . S
H1649 C1637 0.930 . S
H1650 C1638 0.956 1_556 S
H1651 C1638 0.961 1_556 S
H1652 C1638 0.961 . S
H1653 C1639 0.958 . S
H1654 C1639 0.961 . S
H1655 C1639 0.960 . S
C1656 C1657 1.391 . S
C1656 C1658 1.394 . S
C1656 H1672 0.931 . S
C1657 C1656 1.391 . S
C1657 C1661 1.376 . S
C1658 C1656 1.394 . S
C1658 C1659 1.369 . S
C1658 C1662 1.531 . S
C1659 C1658 1.369 . S
C1659 C1660 1.410 . S
C1659 C1667 1.503 . S
C1660 C1659 1.410 . S
C1660 C1661 1.392 . S
C1660 C1663 1.511 . S
C1661 C1657 1.376 . S
C1661 C1660 1.392 . S
C1661 H1673 0.929 . S
C1662 C1658 1.531 . S
C1662 H1674 0.960 . S
C1662 H1675 0.962 . S
C1662 H1676 0.960 . S
C1663 C1660 1.511 . S
C1663 H1677 0.961 . S
C1663 H1678 0.961 . S
C1663 H1679 0.961 . S
C1664 C1665 1.370 . S
C1664 C1666 1.363 . S
C1664 H1680 0.931 . S
C1665 C1664 1.370 . S
C1665 C1669 1.408 . S
C1666 C1664 1.363 . S
C1666 C1667 1.370 . S
C1666 C1670 1.524 . S
C1667 C1659 1.503 . S
C1667 C1666 1.370 . S
C1667 C1668 1.403 . S
C1668 C1667 1.403 . S
C1668 C1669 1.404 . S
C1668 C1671 1.539 . S
C1669 C1665 1.408 . S
C1669 C1668 1.404 . S
C1669 H1681 0.930 . S
C1670 C1666 1.524 . S
C1670 H1682 0.956 . S
C1670 H1683 0.961 . S
C1670 H1684 0.961 . S
C1671 C1668 1.539 . S
C1671 H1685 0.958 . S
C1671 H1686 0.961 . S
C1671 H1687 0.960 . S
H1672 C1656 0.931 . S
H1673 C1661 0.929 . S
H1674 C1662 0.960 . S
H1675 C1662 0.962 . S
H1676 C1662 0.960 . S
H1677 C1663 0.961 . S
H1678 C1663 0.961 . S
H1679 C1663 0.961 . S
H1680 C1664 0.931 . S
H1681 C1669 0.930 . S
H1682 C1670 0.956 . S
H1683 C1670 0.961 . S
H1684 C1670 0.961 . S
H1685 C1671 0.958 . S
H1686 C1671 0.961 . S
H1687 C1671 0.960 . S
C1688 C1689 1.391 . S
C1688 C1690 1.394 . S
C1688 H1704 0.931 . S
C1689 C1688 1.391 . S
C1689 C1693 1.376 . S
C1690 C1688 1.394 . S
C1690 C1691 1.369 . S
C1690 C1694 1.531 . S
C1691 C1690 1.369 . S
C1691 C1692 1.410 . S
C1691 C1699 1.503 . S
C1692 C1691 1.410 . S
C1692 C1693 1.392 . S
C1692 C1695 1.511 . S
C1693 C1689 1.376 . S
C1693 C1692 1.392 . S
C1693 H1705 0.929 . S
C1694 C1690 1.531 . S
C1694 H1706 0.960 . S
C1694 H1707 0.962 . S
C1694 H1708 0.960 . S
C1695 C1692 1.511 . S
C1695 H1709 0.961 . S
C1695 H1710 0.961 . S
C1695 H1711 0.961 . S
C1696 C1697 1.370 . S
C1696 C1698 1.363 . S
C1696 H1712 0.931 . S
C1697 C1696 1.370 . S
C1697 C1701 1.408 . S
C1698 C1696 1.363 . S
C1698 C1699 1.370 . S
C1698 C1702 1.524 . S
C1699 C1691 1.503 . S
C1699 C1698 1.370 . S
C1699 C1700 1.403 . S
C1700 C1699 1.403 . S
C1700 C1701 1.404 . S
C1700 C1703 1.539 . S
C1701 C1697 1.408 . S
C1701 C1700 1.404 . S
C1701 H1713 0.930 . S
C1702 C1698 1.524 . S
C1702 H1714 0.956 . S
C1702 H1715 0.961 . S
C1702 H1716 0.961 . S
C1703 C1700 1.539 . S
C1703 H1717 0.958 . S
C1703 H1718 0.961 . S
C1703 H1719 0.960 . S
H1704 C1688 0.931 . S
H1705 C1693 0.929 . S
H1706 C1694 0.960 . S
H1707 C1694 0.962 . S
H1708 C1694 0.960 . S
H1709 C1695 0.961 . S
H1710 C1695 0.961 . S
H1711 C1695 0.961 . S
H1712 C1696 0.931 . S
H1713 C1701 0.930 . S
H1714 C1702 0.956 . S
H1715 C1702 0.961 . S
H1716 C1702 0.961 . S
H1717 C1703 0.958 . S
H1718 C1703 0.961 . S
H1719 C1703 0.960 . S
C1720 C1721 1.391 . S
C1720 C1722 1.394 . S
C1720 H1736 0.931 . S
C1721 C1720 1.391 . S
C1721 C1725 1.376 . S
C1722 C1720 1.394 . S
C1722 C1723 1.369 . S
C1722 C1726 1.531 . S
C1723 C1722 1.369 . S
C1723 C1724 1.410 . S
C1723 C1731 1.503 . S
C1724 C1723 1.410 . S
C1724 C1725 1.392 . S
C1724 C1727 1.511 . S
C1725 C1721 1.376 . S
C1725 C1724 1.392 . S
C1725 H1737 0.929 . S
C1726 C1722 1.531 . S
C1726 H1738 0.960 . S
C1726 H1739 0.962 . S
C1726 H1740 0.960 . S
C1727 C1724 1.511 . S
C1727 H1741 0.961 . S
C1727 H1742 0.961 . S
C1727 H1743 0.961 . S
C1728 C1729 1.370 . S
C1728 C1730 1.363 . S
C1728 H1744 0.931 . S
C1729 C1728 1.370 . S
C1729 C1733 1.408 . S
C1730 C1728 1.363 . S
C1730 C1731 1.370 . S
C1730 C1734 1.524 . S
C1731 C1723 1.503 . S
C1731 C1730 1.370 . S
C1731 C1732 1.403 . S
C1732 C1731 1.403 . S
C1732 C1733 1.404 . S
C1732 C1735 1.539 . S
C1733 C1729 1.408 . S
C1733 C1732 1.404 . S
C1733 H1745 0.930 . S
C1734 C1730 1.524 . S
C1734 H1746 0.956 . S
C1734 H1747 0.961 . S
C1734 H1748 0.961 . S
C1735 C1732 1.539 . S
C1735 H1749 0.958 . S
C1735 H1750 0.961 . S
C1735 H1751 0.960 . S
H1736 C1720 0.931 . S
H1737 C1725 0.929 . S
H1738 C1726 0.960 . S
H1739 C1726 0.962 . S
H1740 C1726 0.960 . S
H1741 C1727 0.961 . S
H1742 C1727 0.961 . S
H1743 C1727 0.961 . S
H1744 C1728 0.931 . S
H1745 C1733 0.930 . S
H1746 C1734 0.956 . S
H1747 C1734 0.961 . S
H1748 C1734 0.961 . S
H1749 C1735 0.958 . S
H1750 C1735 0.961 . S
H1751 C1735 0.960 . S
C1752 C1753 1.391 . S
C1752 C1754 1.394 . S
C1752 H1768 0.931 . S
C1753 C1752 1.391 . S
C1753 C1757 1.376 . S
C1754 C1752 1.394 . S
C1754 C1755 1.369 . S
C1754 C1758 1.531 . S
C1755 C1754 1.369 . S
C1755 C1756 1.410 . S
C1755 C1763 1.503 . S
C1756 C1755 1.410 . S
C1756 C1757 1.392 . S
C1756 C1759 1.511 . S
C1757 C1753 1.376 . S
C1757 C1756 1.392 . S
C1757 H1769 0.929 . S
C1758 C1754 1.531 . S
C1758 H1770 0.960 . S
C1758 H1771 0.962 . S
C1758 H1772 0.960 . S
C1759 C1756 1.511 . S
C1759 H1773 0.961 . S
C1759 H1774 0.961 . S
C1759 H1775 0.961 . S
C1760 C1761 1.370 . S
C1760 C1762 1.363 . S
C1760 H1776 0.931 . S
C1761 C1760 1.370 . S
C1761 C1765 1.408 . S
C1762 C1760 1.363 . S
C1762 C1763 1.370 . S
C1762 C1766 1.524 . S
C1763 C1755 1.503 . S
C1763 C1762 1.370 . S
C1763 C1764 1.403 . S
C1764 C1763 1.403 . S
C1764 C1765 1.404 . S
C1764 C1767 1.539 . S
C1765 C1761 1.408 . S
C1765 C1764 1.404 . S
C1765 H1777 0.930 . S
C1766 C1762 1.524 . S
C1766 H1778 0.956 . S
C1766 H1779 0.961 . S
C1766 H1780 0.961 . S
C1767 C1764 1.539 . S
C1767 H1781 0.958 . S
C1767 H1782 0.961 . S
C1767 H1783 0.960 . S
H1768 C1752 0.931 . S
H1769 C1757 0.929 . S
H1770 C1758 0.960 . S
H1771 C1758 0.962 . S
H1772 C1758 0.960 . S
H1773 C1759 0.961 . S
H1774 C1759 0.961 . S
H1775 C1759 0.961 . S
H1776 C1760 0.931 . S
H1777 C1765 0.930 . S
H1778 C1766 0.956 . S
H1779 C1766 0.961 . S
H1780 C1766 0.961 . S
H1781 C1767 0.958 . S
H1782 C1767 0.961 . S
H1783 C1767 0.960 . S
C1784 C1785 1.391 . S
C1784 C1786 1.394 . S
C1784 H1800 0.931 . S
C1785 C1784 1.391 . S
C1785 C1789 1.376 . S
C1786 C1784 1.394 . S
C1786 C1787 1.369 . S
C1786 C1790 1.531 . S
C1787 C1786 1.369 . S
C1787 C1788 1.410 . S
C1787 C1795 1.503 . S
C1788 C1787 1.410 . S
C1788 C1789 1.392 . S
C1788 C1791 1.511 . S
C1789 C1785 1.376 . S
C1789 C1788 1.392 . S
C1789 H1801 0.929 . S
C1790 C1786 1.531 . S
C1790 H1802 0.960 . S
C1790 H1803 0.962 . S
C1790 H1804 0.960 . S
C1791 C1788 1.511 . S
C1791 H1805 0.961 . S
C1791 H1806 0.961 . S
C1791 H1807 0.961 . S
C1792 C1793 1.370 . S
C1792 C1794 1.363 . S
C1792 H1808 0.931 . S
C1793 C1792 1.370 . S
C1793 C1797 1.408 . S
C1794 C1792 1.363 . S
C1794 C1795 1.370 . S
C1794 C1798 1.524 . S
C1795 C1787 1.503 . S
C1795 C1794 1.370 . S
C1795 C1796 1.403 . S
C1796 C1795 1.403 . S
C1796 C1797 1.404 . S
C1796 C1799 1.539 . S
C1797 C1793 1.408 . S
C1797 C1796 1.404 . S
C1797 H1809 0.930 . S
C1798 C1794 1.524 . S
C1798 H1810 0.956 . S
C1798 H1811 0.961 . S
C1798 H1812 0.961 . S
C1799 C1796 1.539 . S
C1799 H1813 0.958 . S
C1799 H1814 0.961 . S
C1799 H1815 0.960 . S
H1800 C1784 0.931 . S
H1801 C1789 0.929 . S
H1802 C1790 0.960 . S
H1803 C1790 0.962 . S
H1804 C1790 0.960 . S
H1805 C1791 0.961 . S
H1806 C1791 0.961 . S
H1807 C1791 0.961 . S
H1808 C1792 0.931 . S
H1809 C1797 0.930 . S
H1810 C1798 0.956 . S
H1811 C1798 0.961 . S
H1812 C1798 0.961 . S
H1813 C1799 0.958 . S
H1814 C1799 0.961 . S
H1815 C1799 0.960 . S
C1816 C1817 1.391 . S
C1816 C1818 1.394 . S
C1816 H1832 0.931 . S
C1817 C1816 1.391 . S
C1817 C1821 1.376 . S
C1818 C1816 1.394 . S
C1818 C1819 1.369 . S
C1818 C1822 1.531 . S
C1819 C1818 1.369 . S
C1819 C1820 1.410 . S
C1819 C1827 1.503 . S
C1820 C1819 1.410 . S
C1820 C1821 1.392 . S
C1820 C1823 1.511 . S
C1821 C1817 1.376 . S
C1821 C1820 1.392 . S
C1821 H1833 0.929 . S
C1822 C1818 1.531 . S
C1822 H1834 0.960 . S
C1822 H1835 0.962 . S
C1822 H1836 0.960 . S
C1823 C1820 1.511 . S
C1823 H1837 0.961 . S
C1823 H1838 0.961 . S
C1823 H1839 0.961 . S
C1824 C1825 1.370 . S
C1824 C1826 1.363 . S
C1824 H1840 0.931 . S
C1825 C1824 1.370 . S
C1825 C1829 1.408 . S
C1826 C1824 1.363 . S
C1826 C1827 1.370 . S
C1826 C1830 1.524 . S
C1827 C1819 1.503 . S
C1827 C1826 1.370 . S
C1827 C1828 1.403 . S
C1828 C1827 1.403 . S
C1828 C1829 1.404 . S
C1828 C1831 1.539 . S
C1829 C1825 1.408 . S
C1829 C1828 1.404 . S
C1829 H1841 0.930 . S
C1830 C1826 1.524 . S
C1830 H1842 0.956 . S
C1830 H1843 0.961 . S
C1830 H1844 0.961 . S
C1831 C1828 1.539 . S
C1831 H1845 0.958 . S
C1831 H1846 0.961 . S
C1831 H1847 0.960 . S
H1832 C1816 0.931 . S
H1833 C1821 0.929 . S
H1834 C1822 0.960 . S
H1835 C1822 0.962 . S
H1836 C1822 0.960 . S
H1837 C1823 0.961 . S
H1838 C1823 0.961 . S
H1839 C1823 0.961 . S
H1840 C1824 0.931 . S
H1841 C1829 0.930 . S
H1842 C1830 0.956 . S
H1843 C1830 0.961 . S
H1844 C1830 0.961 . S
H1845 C1831 0.958 . S
H1846 C1831 0.961 . S
H1847 C1831 0.960 . S
C1848 C1849 1.391 . S
C1848 C1850 1.394 . S
C1848 H1864 0.931 . S
C1849 C1848 1.391 . S
C1849 C1853 1.376 . S
C1850 C1848 1.394 . S
C1850 C1851 1.369 . S
C1850 C1854 1.531 . S
C1851 C1850 1.369 . S
C1851 C1852 1.410 . S
C1851 C1859 1.503 . S
C1852 C1851 1.410 . S
C1852 C1853 1.392 . S
C1852 C1855 1.511 . S
C1853 C1849 1.376 . S
C1853 C1852 1.392 . S
C1853 H1865 0.929 . S
C1854 C1850 1.531 . S
C1854 H1866 0.960 . S
C1854 H1867 0.962 . S
C1854 H1868 0.960 . S
C1855 C1852 1.511 . S
C1855 H1869 0.961 . S
C1855 H1870 0.961 . S
C1855 H1871 0.961 . S
C1856 C1857 1.370 . S
C1856 C1858 1.363 . S
C1856 H1872 0.931 . S
C1857 C1856 1.370 . S
C1857 C1861 1.408 . S
C1858 C1856 1.363 . S
C1858 C1859 1.370 . S
C1858 C1862 1.524 . S
C1859 C1851 1.503 . S
C1859 C1858 1.370 . S
C1859 C1860 1.403 . S
C1860 C1859 1.403 . S
C1860 C1861 1.404 . S
C1860 C1863 1.539 . S
C1861 C1857 1.408 . S
C1861 C1860 1.404 . S
C1861 H1873 0.930 . S
C1862 C1858 1.524 . S
C1862 H1874 0.956 . S
C1862 H1875 0.961 . S
C1862 H1876 0.961 . S
C1863 C1860 1.539 . S
C1863 H1877 0.958 . S
C1863 H1878 0.961 . S
C1863 H1879 0.960 . S
H1864 C1848 0.931 . S
H1865 C1853 0.929 . S
H1866 C1854 0.960 . S
H1867 C1854 0.962 . S
H1868 C1854 0.960 . S
H1869 C1855 0.961 . S
H1870 C1855 0.961 . S
H1871 C1855 0.961 . S
H1872 C1856 0.931 . S
H1873 C1861 0.930 . S
H1874 C1862 0.956 . S
H1875 C1862 0.961 . S
H1876 C1862 0.961 . S
H1877 C1863 0.958 . S
H1878 C1863 0.961 . S
H1879 C1863 0.960 . S
C1880 C1881 1.391 . S
C1880 C1882 1.394 . S
C1880 H1896 0.931 . S
C1881 C1880 1.391 . S
C1881 C1885 1.376 . S
C1882 C1880 1.394 . S
C1882 C1883 1.369 . S
C1882 C1886 1.531 . S
C1883 C1882 1.369 . S
C1883 C1884 1.410 . S
C1883 C1891 1.503 . S
C1884 C1883 1.410 . S
C1884 C1885 1.392 . S
C1884 C1887 1.511 . S
C1885 C1881 1.376 . S
C1885 C1884 1.392 . S
C1885 H1897 0.929 . S
C1886 C1882 1.531 . S
C1886 H1898 0.960 . S
C1886 H1899 0.962 . S
C1886 H1900 0.960 . S
C1887 C1884 1.511 . S
C1887 H1901 0.961 . S
C1887 H1902 0.961 . S
C1887 H1903 0.961 . S
C1888 C1889 1.370 . S
C1888 C1890 1.363 . S
C1888 H1904 0.931 . S
C1889 C1888 1.370 . S
C1889 C1893 1.408 . S
C1890 C1888 1.363 . S
C1890 C1891 1.370 . S
C1890 C1894 1.524 . S
C1891 C1883 1.503 . S
C1891 C1890 1.370 . S
C1891 C1892 1.403 . S
C1892 C1891 1.403 . S
C1892 C1893 1.404 . S
C1892 C1895 1.539 . S
C1893 C1889 1.408 . S
C1893 C1892 1.404 . S
C1893 H1905 0.930 . S
C1894 C1890 1.524 . S
C1894 H1906 0.956 . S
C1894 H1907 0.961 . S
C1894 H1908 0.961 . S
C1895 C1892 1.539 . S
C1895 H1909 0.958 . S
C1895 H1910 0.961 . S
C1895 H1911 0.960 . S
H1896 C1880 0.931 . S
H1897 C1885 0.929 . S
H1898 C1886 0.960 . S
H1899 C1886 0.962 . S
H1900 C1886 0.960 . S
H1901 C1887 0.961 . S
H1902 C1887 0.961 . S
H1903 C1887 0.961 . S
H1904 C1888 0.931 . S
H1905 C1893 0.930 . S
H1906 C1894 0.956 . S
H1907 C1894 0.961 . S
H1908 C1894 0.961 . S
H1909 C1895 0.958 . S
H1910 C1895 0.961 . S
H1911 C1895 0.960 . S
C1912 C1913 1.391 . S
C1912 C1914 1.394 . S
C1912 H1928 0.931 . S
C1913 C1912 1.391 . S
C1913 C1917 1.376 . S
C1914 C1912 1.394 . S
C1914 C1915 1.369 . S
C1914 C1918 1.531 . S
C1915 C1914 1.369 . S
C1915 C1916 1.410 . S
C1915 C1923 1.503 . S
C1916 C1915 1.410 . S
C1916 C1917 1.392 . S
C1916 C1919 1.511 . S
C1917 C1913 1.376 . S
C1917 C1916 1.392 . S
C1917 H1929 0.929 . S
C1918 C1914 1.531 . S
C1918 H1930 0.960 . S
C1918 H1931 0.962 . S
C1918 H1932 0.960 . S
C1919 C1916 1.511 . S
C1919 H1933 0.961 . S
C1919 H1934 0.961 . S
C1919 H1935 0.961 . S
C1920 C1921 1.370 . S
C1920 C1922 1.363 . S
C1920 H1936 0.931 . S
C1921 C1920 1.370 . S
C1921 C1925 1.408 . S
C1922 C1920 1.363 . S
C1922 C1923 1.370 . S
C1922 C1926 1.524 . S
C1923 C1915 1.503 . S
C1923 C1922 1.370 . S
C1923 C1924 1.403 . S
C1924 C1923 1.403 . S
C1924 C1925 1.404 . S
C1924 C1927 1.539 . S
C1925 C1921 1.408 . S
C1925 C1924 1.404 . S
C1925 H1937 0.930 . S
C1926 C1922 1.524 . S
C1926 H1938 0.956 . S
C1926 H1939 0.961 . S
C1926 H1940 0.961 . S
C1927 C1924 1.539 . S
C1927 H1941 0.958 . S
C1927 H1942 0.961 . S
C1927 H1943 0.960 . S
H1928 C1912 0.931 . S
H1929 C1917 0.929 . S
H1930 C1918 0.960 . S
H1931 C1918 0.962 . S
H1932 C1918 0.960 . S
H1933 C1919 0.961 . S
H1934 C1919 0.961 . S
H1935 C1919 0.961 . S
H1936 C1920 0.931 . S
H1937 C1925 0.930 . S
H1938 C1926 0.956 . S
H1939 C1926 0.961 . S
H1940 C1926 0.961 . S
H1941 C1927 0.958 . S
H1942 C1927 0.961 . S
H1943 C1927 0.960 . S
C1944 C1945 1.391 . S
C1944 C1946 1.394 . S
C1944 H1960 0.931 . S
C1945 C1944 1.391 . S
C1945 C1949 1.376 . S
C1946 C1944 1.394 . S
C1946 C1947 1.369 . S
C1946 C1950 1.531 . S
C1947 C1946 1.369 . S
C1947 C1948 1.410 . S
C1947 C1955 1.503 . S
C1948 C1947 1.410 . S
C1948 C1949 1.392 . S
C1948 C1951 1.511 . S
C1949 C1945 1.376 . S
C1949 C1948 1.392 . S
C1949 H1961 0.929 . S
C1950 C1946 1.531 . S
C1950 H1962 0.960 . S
C1950 H1963 0.962 . S
C1950 H1964 0.960 . S
C1951 C1948 1.511 . S
C1951 H1965 0.961 . S
C1951 H1966 0.961 . S
C1951 H1967 0.961 . S
C1952 C1953 1.370 . S
C1952 C1954 1.363 . S
C1952 H1968 0.931 . S
C1953 C1952 1.370 . S
C1953 C1957 1.408 . S
C1954 C1952 1.363 . S
C1954 C1955 1.370 . S
C1954 C1958 1.524 . S
C1955 C1947 1.503 . S
C1955 C1954 1.370 . S
C1955 C1956 1.403 . S
C1956 C1955 1.403 . S
C1956 C1957 1.404 . S
C1956 C1959 1.539 . S
C1957 C1953 1.408 . S
C1957 C1956 1.404 . S
C1957 H1969 0.930 . S
C1958 C1954 1.524 . S
C1958 H1970 0.956 . S
C1958 H1971 0.961 . S
C1958 H1972 0.961 . S
C1959 C1956 1.539 . S
C1959 H1973 0.958 . S
C1959 H1974 0.961 . S
C1959 H1975 0.960 . S
H1960 C1944 0.931 . S
H1961 C1949 0.929 . S
H1962 C1950 0.960 . S
H1963 C1950 0.962 . S
H1964 C1950 0.960 . S
H1965 C1951 0.961 . S
H1966 C1951 0.961 . S
H1967 C1951 0.961 . S
H1968 C1952 0.931 . S
H1969 C1957 0.930 . S
H1970 C1958 0.956 . S
H1971 C1958 0.961 . S
H1972 C1958 0.961 . S
H1973 C1959 0.958 . S
H1974 C1959 0.961 . S
H1975 C1959 0.960 . S
C1976 C1977 1.391 . S
C1976 C1978 1.394 . S
C1976 H1992 0.931 . S
C1977 C1976 1.391 . S
C1977 C1981 1.376 . S
C1978 C1976 1.394 . S
C1978 C1979 1.369 . S
C1978 C1982 1.531 . S
C1979 C1978 1.369 . S
C1979 C1980 1.410 . S
C1979 C1987 1.503 . S
C1980 C1979 1.410 . S
C1980 C1981 1.392 . S
C1980 C1983 1.511 . S
C1981 C1977 1.376 . S
C1981 C1980 1.392 . S
C1981 H1993 0.929 . S
C1982 C1978 1.531 . S
C1982 H1994 0.960 . S
C1982 H1995 0.962 . S
C1982 H1996 0.960 . S
C1983 C1980 1.511 . S
C1983 H1997 0.961 . S
C1983 H1998 0.961 . S
C1983 H1999 0.961 . S
C1984 C1985 1.370 . S
C1984 C1986 1.363 . S
C1984 H2000 0.931 . S
C1985 C1984 1.370 . S
C1985 C1989 1.408 . S
C1986 C1984 1.363 . S
C1986 C1987 1.370 . S
C1986 C1990 1.524 . S
C1987 C1979 1.503 . S
C1987 C1986 1.370 . S
C1987 C1988 1.403 . S
C1988 C1987 1.403 . S
C1988 C1989 1.404 . S
C1988 C1991 1.539 . S
C1989 C1985 1.408 . S
C1989 C1988 1.404 . S
C1989 H2001 0.930 . S
C1990 C1986 1.524 . S
C1990 H2002 0.956 . S
C1990 H2003 0.961 . S
C1990 H2004 0.961 . S
C1991 C1988 1.539 . S
C1991 H2005 0.958 . S
C1991 H2006 0.961 . S
C1991 H2007 0.960 . S
H1992 C1976 0.931 . S
H1993 C1981 0.929 . S
H1994 C1982 0.960 . S
H1995 C1982 0.962 . S
H1996 C1982 0.960 . S
H1997 C1983 0.961 . S
H1998 C1983 0.961 . S
H1999 C1983 0.961 . S
H2000 C1984 0.931 . S
H2001 C1989 0.930 . S
H2002 C1990 0.956 . S
H2003 C1990 0.961 . S
H2004 C1990 0.961 . S
H2005 C1991 0.958 . S
H2006 C1991 0.961 . S
H2007 C1991 0.960 . S
C2008 C2009 1.391 . S
C2008 C2010 1.394 . S
C2008 H2024 0.931 . S
C2009 C2008 1.391 . S
C2009 C2013 1.376 . S
C2010 C2008 1.394 . S
C2010 C2011 1.369 . S
C2010 C2014 1.531 . S
C2011 C2010 1.369 . S
C2011 C2012 1.410 . S
C2011 C2019 1.503 . S
C2012 C2011 1.410 . S
C2012 C2013 1.392 . S
C2012 C2015 1.511 . S
C2013 C2009 1.376 . S
C2013 C2012 1.392 . S
C2013 H2025 0.929 . S
C2014 C2010 1.531 . S
C2014 H2026 0.960 . S
C2014 H2027 0.962 . S
C2014 H2028 0.960 . S
C2015 C2012 1.511 . S
C2015 H2029 0.961 . S
C2015 H2030 0.961 . S
C2015 H2031 0.961 . S
C2016 C2017 1.370 . S
C2016 C2018 1.363 . S
C2016 H2032 0.931 . S
C2017 C2016 1.370 . S
C2017 C2021 1.408 . S
C2018 C2016 1.363 . S
C2018 C2019 1.370 . S
C2018 C2022 1.524 . S
C2019 C2011 1.503 . S
C2019 C2018 1.370 . S
C2019 C2020 1.403 . S
C2020 C2019 1.403 . S
C2020 C2021 1.404 . S
C2020 C2023 1.539 . S
C2021 C2017 1.408 . S
C2021 C2020 1.404 . S
C2021 H2033 0.930 . S
C2022 C2018 1.524 . S
C2022 H2034 0.956 . S
C2022 H2035 0.961 . S
C2022 H2036 0.961 . S
C2023 C2020 1.539 . S
C2023 H2037 0.958 . S
C2023 H2038 0.961 . S
C2023 H2039 0.960 . S
H2024 C2008 0.931 . S
H2025 C2013 0.929 . S
H2026 C2014 0.960 . S
H2027 C2014 0.962 . S
H2028 C2014 0.960 . S
H2029 C2015 0.961 . S
H2030 C2015 0.961 . S
H2031 C2015 0.961 . S
H2032 C2016 0.931 . S
H2033 C2021 0.930 . S
H2034 C2022 0.956 . S
H2035 C2022 0.961 . S
H2036 C2022 0.961 . S
H2037 C2023 0.958 . S
H2038 C2023 0.961 . S
H2039 C2023 0.960 . S
C2040 C2041 1.391 . S
C2040 C2042 1.394 . S
C2040 H2056 0.931 . S
C2041 C2040 1.391 . S
C2041 C2045 1.376 . S
C2042 C2040 1.394 . S
C2042 C2043 1.369 . S
C2042 C2046 1.531 . S
C2043 C2042 1.369 . S
C2043 C2044 1.410 . S
C2043 C2051 1.503 . S
C2044 C2043 1.410 . S
C2044 C2045 1.392 . S
C2044 C2047 1.511 . S
C2045 C2041 1.376 . S
C2045 C2044 1.392 . S
C2045 H2057 0.929 . S
C2046 C2042 1.531 . S
C2046 H2058 0.960 . S
C2046 H2059 0.962 . S
C2046 H2060 0.960 . S
C2047 C2044 1.511 . S
C2047 H2061 0.961 . S
C2047 H2062 0.961 . S
C2047 H2063 0.961 . S
C2048 C2049 1.370 . S
C2048 C2050 1.363 . S
C2048 H2064 0.931 . S
C2049 C2048 1.370 . S
C2049 C2053 1.408 . S
C2050 C2048 1.363 . S
C2050 C2051 1.370 . S
C2050 C2054 1.524 . S
C2051 C2043 1.503 . S
C2051 C2050 1.370 . S
C2051 C2052 1.403 . S
C2052 C2051 1.403 . S
C2052 C2053 1.404 . S
C2052 C2055 1.539 . S
C2053 C2049 1.408 . S
C2053 C2052 1.404 . S
C2053 H2065 0.930 . S
C2054 C2050 1.524 . S
C2054 H2066 0.956 . S
C2054 H2067 0.961 . S
C2054 H2068 0.961 . S
C2055 C2052 1.539 . S
C2055 H2069 0.958 . S
C2055 H2070 0.961 . S
C2055 H2071 0.960 . S
H2056 C2040 0.931 . S
H2057 C2045 0.929 . S
H2058 C2046 0.960 . S
H2059 C2046 0.962 . S
H2060 C2046 0.960 . S
H2061 C2047 0.961 . S
H2062 C2047 0.961 . S
H2063 C2047 0.961 . S
H2064 C2048 0.931 . S
H2065 C2053 0.930 . S
H2066 C2054 0.956 . S
H2067 C2054 0.961 . S
H2068 C2054 0.961 . S
H2069 C2055 0.958 . S
H2070 C2055 0.961 . S
H2071 C2055 0.960 . S
C2072 C2073 1.391 . S
C2072 C2074 1.394 . S
C2072 H2088 0.931 . S
C2073 C2072 1.391 . S
C2073 C2077 1.376 . S
C2074 C2072 1.394 . S
C2074 C2075 1.369 . S
C2074 C2078 1.531 . S
C2075 C2074 1.369 . S
C2075 C2076 1.410 . S
C2075 C2083 1.503 . S
C2076 C2075 1.410 . S
C2076 C2077 1.392 . S
C2076 C2079 1.511 . S
C2077 C2073 1.376 . S
C2077 C2076 1.392 . S
C2077 H2089 0.929 . S
C2078 C2074 1.531 . S
C2078 H2090 0.960 . S
C2078 H2091 0.962 . S
C2078 H2092 0.960 . S
C2079 C2076 1.511 . S
C2079 H2093 0.961 . S
C2079 H2094 0.961 . S
C2079 H2095 0.961 . S
C2080 C2081 1.370 . S
C2080 C2082 1.363 . S
C2080 H2096 0.931 . S
C2081 C2080 1.370 . S
C2081 C2085 1.408 . S
C2082 C2080 1.363 . S
C2082 C2083 1.370 . S
C2082 C2086 1.524 . S
C2083 C2075 1.503 . S
C2083 C2082 1.370 . S
C2083 C2084 1.403 . S
C2084 C2083 1.403 . S
C2084 C2085 1.404 . S
C2084 C2087 1.539 . S
C2085 C2081 1.408 . S
C2085 C2084 1.404 . S
C2085 H2097 0.930 . S
C2086 C2082 1.524 . S
C2086 H2098 0.956 . S
C2086 H2099 0.961 . S
C2086 H2100 0.961 . S
C2087 C2084 1.539 . S
C2087 H2101 0.958 . S
C2087 H2102 0.961 . S
C2087 H2103 0.960 . S
H2088 C2072 0.931 . S
H2089 C2077 0.929 . S
H2090 C2078 0.960 . S
H2091 C2078 0.962 . S
H2092 C2078 0.960 . S
H2093 C2079 0.961 . S
H2094 C2079 0.961 . S
H2095 C2079 0.961 . S
H2096 C2080 0.931 . S
H2097 C2085 0.930 . S
H2098 C2086 0.956 . S
H2099 C2086 0.961 . S
H2100 C2086 0.961 . S
H2101 C2087 0.958 . S
H2102 C2087 0.961 . S
H2103 C2087 0.960 . S
C2104 C2105 1.391 . S
C2104 C2106 1.394 . S
C2104 H2120 0.931 . S
C2105 C2104 1.391 . S
C2105 C2109 1.376 . S
C2106 C2104 1.394 . S
C2106 C2107 1.369 . S
C2106 C2110 1.531 . S
C2107 C2106 1.369 . S
C2107 C2108 1.410 . S
C2107 C2115 1.503 . S
C2108 C2107 1.410 . S
C2108 C2109 1.392 . S
C2108 C2111 1.511 . S
C2109 C2105 1.376 . S
C2109 C2108 1.392 . S
C2109 H2121 0.929 . S
C2110 C2106 1.531 . S
C2110 H2122 0.960 . S
C2110 H2123 0.962 . S
C2110 H2124 0.960 . S
C2111 C2108 1.511 . S
C2111 H2125 0.961 . S
C2111 H2126 0.961 . S
C2111 H2127 0.961 . S
C2112 C2113 1.370 . S
C2112 C2114 1.363 . S
C2112 H2128 0.931 . S
C2113 C2112 1.370 . S
C2113 C2117 1.408 . S
C2114 C2112 1.363 . S
C2114 C2115 1.370 . S
C2114 C2118 1.524 . S
C2115 C2107 1.503 . S
C2115 C2114 1.370 . S
C2115 C2116 1.403 . S
C2116 C2115 1.403 . S
C2116 C2117 1.404 . S
C2116 C2119 1.539 . S
C2117 C2113 1.408 . S
C2117 C2116 1.404 . S
C2117 H2129 0.930 . S
C2118 C2114 1.524 . S
C2118 H2130 0.956 . S
C2118 H2131 0.961 . S
C2118 H2132 0.961 . S
C2119 C2116 1.539 . S
C2119 H2133 0.958 . S
C2119 H2134 0.961 . S
C2119 H2135 0.960 . S
H2120 C2104 0.931 . S
H2121 C2109 0.929 . S
H2122 C2110 0.960 . S
H2123 C2110 0.962 . S
H2124 C2110 0.960 . S
H2125 C2111 0.961 . S
H2126 C2111 0.961 . S
H2127 C2111 0.961 . S
H2128 C2112 0.931 . S
H2129 C2117 0.930 . S
H2130 C2118 0.956 . S
H2131 C2118 0.961 . S
H2132 C2118 0.961 . S
H2133 C2119 0.958 . S
H2134 C2119 0.961 . S
H2135 C2119 0.960 . S
C2136 C2137 1.391 . S
C2136 C2138 1.394 . S
C2136 H2152 0.931 . S
C2137 C2136 1.391 . S
C2137 C2141 1.376 1_556 S
C2138 C2136 1.394 . S
C2138 C2139 1.369 1_556 S
C2138 C2142 1.531 . S
C2139 C2138 1.369 1_554 S
C2139 C2140 1.410 . S
C2139 C2147 1.503 . S
C2140 C2139 1.410 . S
C2140 C2141 1.392 . S
C2140 C2143 1.511 . S
C2141 C2137 1.376 1_554 S
C2141 C2140 1.392 . S
C2141 H2153 0.929 . S
C2142 C2138 1.531 . S
C2142 H2154 0.960 1_556 S
C2142 H2155 0.962 . S
C2142 H2156 0.960 . S
C2143 C2140 1.511 . S
C2143 H2157 0.961 . S
C2143 H2158 0.961 . S
C2143 H2159 0.961 . S
C2144 C2145 1.370 . S
C2144 C2146 1.363 . S
C2144 H2160 0.931 . S
C2145 C2144 1.370 . S
C2145 C2149 1.408 . S
C2146 C2144 1.363 . S
C2146 C2147 1.370 . S
C2146 C2150 1.524 . S
C2147 C2139 1.503 . S
C2147 C2146 1.370 . S
C2147 C2148 1.403 . S
C2148 C2147 1.403 . S
C2148 C2149 1.404 . S
C2148 C2151 1.539 . S
C2149 C2145 1.408 . S
C2149 C2148 1.404 . S
C2149 H2161 0.930 . S
C2150 C2146 1.524 . S
C2150 H2162 0.956 . S
C2150 H2163 0.961 . S
C2150 H2164 0.961 . S
C2151 C2148 1.539 . S
C2151 H2165 0.958 . S
C2151 H2166 0.961 . S
C2151 H2167 0.960 . S
H2152 C2136 0.931 . S
H2153 C2141 0.929 . S
H2154 C2142 0.960 1_554 S
H2155 C2142 0.962 . S
H2156 C2142 0.960 . S
H2157 C2143 0.961 . S
H2158 C2143 0.961 . S
H2159 C2143 0.961 . S
H2160 C2144 0.931 . S
H2161 C2149 0.930 . S
H2162 C2150 0.956 . S
H2163 C2150 0.961 . S
H2164 C2150 0.961 . S
H2165 C2151 0.958 . S
H2166 C2151 0.961 . S
H2167 C2151 0.960 . S
C2168 C2169 1.391 . S
C2168 C2170 1.394 1_556 S
C2168 H2184 0.931 . S
C2169 C2168 1.391 . S
C2169 C2173 1.376 . S
C2170 C2168 1.394 1_554 S
C2170 C2171 1.369 . S
C2170 C2174 1.531 . S
C2171 C2170 1.369 . S
C2171 C2172 1.410 . S
C2171 C2179 1.503 . S
C2172 C2171 1.410 . S
C2172 C2173 1.392 1_554 S
C2172 C2175 1.511 . S
C2173 C2169 1.376 . S
C2173 C2172 1.392 1_556 S
C2173 H2185 0.929 . S
C2174 C2170 1.531 . S
C2174 H2186 0.960 . S
C2174 H2187 0.962 . S
C2174 H2188 0.960 . S
C2175 C2172 1.511 . S
C2175 H2189 0.961 . S
C2175 H2190 0.961 . S
C2175 H2191 0.961 . S
C2176 C2177 1.370 . S
C2176 C2178 1.363 . S
C2176 H2192 0.931 . S
C2177 C2176 1.370 . S
C2177 C2181 1.408 . S
C2178 C2176 1.363 . S
C2178 C2179 1.370 . S
C2178 C2182 1.524 . S
C2179 C2171 1.503 . S
C2179 C2178 1.370 . S
C2179 C2180 1.403 . S
C2180 C2179 1.403 . S
C2180 C2181 1.404 . S
C2180 C2183 1.539 . S
C2181 C2177 1.408 . S
C2181 C2180 1.404 . S
C2181 H2193 0.930 . S
C2182 C2178 1.524 . S
C2182 H2194 0.956 . S
C2182 H2195 0.961 . S
C2182 H2196 0.961 . S
C2183 C2180 1.539 . S
C2183 H2197 0.958 . S
C2183 H2198 0.961 . S
C2183 H2199 0.960 . S
H2184 C2168 0.931 . S
H2185 C2173 0.929 . S
H2186 C2174 0.960 . S
H2187 C2174 0.962 . S
H2188 C2174 0.960 . S
H2189 C2175 0.961 . S
H2190 C2175 0.961 . S
H2191 C2175 0.961 . S
H2192 C2176 0.931 . S
H2193 C2181 0.930 . S
H2194 C2182 0.956 . S
H2195 C2182 0.961 . S
H2196 C2182 0.961 . S
H2197 C2183 0.958 . S
H2198 C2183 0.961 . S
H2199 C2183 0.960 . S
C2200 C2201 1.391 . S
C2200 C2202 1.394 1_556 S
C2200 H2216 0.931 . S
C2201 C2200 1.391 . S
C2201 C2205 1.376 . S
C2202 C2200 1.394 1_554 S
C2202 C2203 1.369 . S
C2202 C2206 1.531 . S
C2203 C2202 1.369 . S
C2203 C2204 1.410 . S
C2203 C2211 1.503 . S
C2204 C2203 1.410 . S
C2204 C2205 1.392 1_554 S
C2204 C2207 1.511 . S
C2205 C2201 1.376 . S
C2205 C2204 1.392 1_556 S
C2205 H2217 0.929 . S
C2206 C2202 1.531 . S
C2206 H2218 0.960 . S
C2206 H2219 0.962 1_554 S
C2206 H2220 0.960 1_554 S
C2207 C2204 1.511 . S
C2207 H2221 0.961 . S
C2207 H2222 0.961 . S
C2207 H2223 0.961 . S
C2208 C2209 1.370 . S
C2208 C2210 1.363 . S
C2208 H2224 0.931 . S
C2209 C2208 1.370 . S
C2209 C2213 1.408 . S
C2210 C2208 1.363 . S
C2210 C2211 1.370 . S
C2210 C2214 1.524 . S
C2211 C2203 1.503 . S
C2211 C2210 1.370 . S
C2211 C2212 1.403 . S
C2212 C2211 1.403 . S
C2212 C2213 1.404 . S
C2212 C2215 1.539 . S
C2213 C2209 1.408 . S
C2213 C2212 1.404 . S
C2213 H2225 0.930 . S
C2214 C2210 1.524 . S
C2214 H2226 0.956 . S
C2214 H2227 0.961 . S
C2214 H2228 0.961 . S
C2215 C2212 1.539 . S
C2215 H2229 0.958 . S
C2215 H2230 0.961 . S
C2215 H2231 0.960 . S
H2216 C2200 0.931 . S
H2217 C2205 0.929 . S
H2218 C2206 0.960 . S
H2219 C2206 0.962 1_556 S
H2220 C2206 0.960 1_556 S
H2221 C2207 0.961 . S
H2222 C2207 0.961 . S
H2223 C2207 0.961 . S
H2224 C2208 0.931 . S
H2225 C2213 0.930 . S
H2226 C2214 0.956 . S
H2227 C2214 0.961 . S
H2228 C2214 0.961 . S
H2229 C2215 0.958 . S
H2230 C2215 0.961 . S
H2231 C2215 0.960 . S
C2232 C2233 1.391 . S
C2232 C2234 1.394 . S
C2232 H2248 0.931 . S
C2233 C2232 1.391 . S
C2233 C2237 1.376 . S
C2234 C2232 1.394 . S
C2234 C2235 1.369 . S
C2234 C2238 1.531 . S
C2235 C2234 1.369 . S
C2235 C2236 1.410 . S
C2235 C2243 1.503 . S
C2236 C2235 1.410 . S
C2236 C2237 1.392 . S
C2236 C2239 1.511 . S
C2237 C2233 1.376 . S
C2237 C2236 1.392 . S
C2237 H2249 0.929 . S
C2238 C2234 1.531 . S
C2238 H2250 0.960 . S
C2238 H2251 0.962 . S
C2238 H2252 0.960 1_554 S
C2239 C2236 1.511 . S
C2239 H2253 0.961 . S
C2239 H2254 0.961 . S
C2239 H2255 0.961 . S
C2240 C2241 1.370 . S
C2240 C2242 1.363 . S
C2240 H2256 0.931 . S
C2241 C2240 1.370 . S
C2241 C2245 1.408 . S
C2242 C2240 1.363 . S
C2242 C2243 1.370 . S
C2242 C2246 1.524 . S
C2243 C2235 1.503 . S
C2243 C2242 1.370 . S
C2243 C2244 1.403 . S
C2244 C2243 1.403 . S
C2244 C2245 1.404 . S
C2244 C2247 1.539 1_554 S
C2245 C2241 1.408 . S
C2245 C2244 1.404 . S
C2245 H2257 0.930 . S
C2246 C2242 1.524 . S
C2246 H2258 0.956 . S
C2246 H2259 0.961 . S
C2246 H2260 0.961 . S
C2247 C2244 1.539 1_556 S
C2247 H2261 0.958 . S
C2247 H2262 0.961 . S
C2247 H2263 0.960 . S
H2248 C2232 0.931 . S
H2249 C2237 0.929 . S
H2250 C2238 0.960 . S
H2251 C2238 0.962 . S
H2252 C2238 0.960 1_556 S
H2253 C2239 0.961 . S
H2254 C2239 0.961 . S
H2255 C2239 0.961 . S
H2256 C2240 0.931 . S
H2257 C2245 0.930 . S
H2258 C2246 0.956 . S
H2259 C2246 0.961 . S
H2260 C2246 0.961 . S
H2261 C2247 0.958 . S
H2262 C2247 0.961 . S
H2263 C2247 0.960 . S
C2264 C2265 1.391 . S
C2264 C2266 1.394 . S
C2264 H2280 0.931 . S
C2265 C2264 1.391 . S
C2265 C2269 1.376 . S
C2266 C2264 1.394 . S
C2266 C2267 1.369 . S
C2266 C2270 1.531 . S
C2267 C2266 1.369 . S
C2267 C2268 1.410 . S
C2267 C2275 1.503 . S
C2268 C2267 1.410 . S
C2268 C2269 1.392 . S
C2268 C2271 1.511 . S
C2269 C2265 1.376 . S
C2269 C2268 1.392 . S
C2269 H2281 0.929 . S
C2270 C2266 1.531 . S
C2270 H2282 0.960 . S
C2270 H2283 0.962 . S
C2270 H2284 0.960 . S
C2271 C2268 1.511 . S
C2271 H2285 0.961 . S
C2271 H2286 0.961 . S
C2271 H2287 0.961 1_554 S
C2272 C2273 1.370 . S
C2272 C2274 1.363 . S
C2272 H2288 0.931 . S
C2273 C2272 1.370 . S
C2273 C2277 1.408 . S
C2274 C2272 1.363 . S
C2274 C2275 1.370 . S
C2274 C2278 1.524 . S
C2275 C2267 1.503 . S
C2275 C2274 1.370 . S
C2275 C2276 1.403 . S
C2276 C2275 1.403 . S
C2276 C2277 1.404 . S
C2276 C2279 1.539 1_554 S
C2277 C2273 1.408 . S
C2277 C2276 1.404 . S
C2277 H2289 0.930 1_554 S
C2278 C2274 1.524 . S
C2278 H2290 0.956 . S
C2278 H2291 0.961 . S
C2278 H2292 0.961 . S
C2279 C2276 1.539 1_556 S
C2279 H2293 0.958 . S
C2279 H2294 0.961 . S
C2279 H2295 0.960 . S
H2280 C2264 0.931 . S
H2281 C2269 0.929 . S
H2282 C2270 0.960 . S
H2283 C2270 0.962 . S
H2284 C2270 0.960 . S
H2285 C2271 0.961 . S
H2286 C2271 0.961 . S
H2287 C2271 0.961 1_556 S
H2288 C2272 0.931 . S
H2289 C2277 0.930 1_556 S
H2290 C2278 0.956 . S
H2291 C2278 0.961 . S
H2292 C2278 0.961 . S
H2293 C2279 0.958 . S
H2294 C2279 0.961 . S
H2295 C2279 0.960 . S
C2296 C2297 1.391 . S
C2296 C2298 1.394 . S
C2296 H2312 0.931 1_554 S
C2297 C2296 1.391 . S
C2297 C2301 1.376 . S
C2298 C2296 1.394 . S
C2298 C2299 1.369 . S
C2298 C2302 1.531 1_554 S
C2299 C2298 1.369 . S
C2299 C2300 1.410 . S
C2299 C2307 1.503 . S
C2300 C2299 1.410 . S
C2300 C2301 1.392 . S
C2300 C2303 1.511 . S
C2301 C2297 1.376 . S
C2301 C2300 1.392 . S
C2301 H2313 0.929 . S
C2302 C2298 1.531 1_556 S
C2302 H2314 0.960 . S
C2302 H2315 0.962 . S
C2302 H2316 0.960 . S
C2303 C2300 1.511 . S
C2303 H2317 0.961 . S
C2303 H2318 0.961 . S
C2303 H2319 0.961 . S
C2304 C2305 1.370 . S
C2304 C2306 1.363 . S
C2304 H2320 0.931 . S
C2305 C2304 1.370 . S
C2305 C2309 1.408 . S
C2306 C2304 1.363 . S
C2306 C2307 1.370 . S
C2306 C2310 1.524 . S
C2307 C2299 1.503 . S
C2307 C2306 1.370 . S
C2307 C2308 1.403 . S
C2308 C2307 1.403 . S
C2308 C2309 1.404 . S
C2308 C2311 1.539 . S
C2309 C2305 1.408 . S
C2309 C2308 1.404 . S
C2309 H2321 0.930 . S
C2310 C2306 1.524 . S
C2310 H2322 0.956 . S
C2310 H2323 0.961 . S
C2310 H2324 0.961 . S
C2311 C2308 1.539 . S
C2311 H2325 0.958 1_554 S
C2311 H2326 0.961 . S
C2311 H2327 0.960 . S
H2312 C2296 0.931 1_556 S
H2313 C2301 0.929 . S
H2314 C2302 0.960 . S
H2315 C2302 0.962 . S
H2316 C2302 0.960 . S
H2317 C2303 0.961 . S
H2318 C2303 0.961 . S
H2319 C2303 0.961 . S
H2320 C2304 0.931 . S
H2321 C2309 0.930 . S
H2322 C2310 0.956 . S
H2323 C2310 0.961 . S
H2324 C2310 0.961 . S
H2325 C2311 0.958 1_556 S
H2326 C2311 0.961 . S
H2327 C2311 0.960 . S
C2328 C2329 1.391 . S
C2328 C2330 1.394 . S
C2328 H2344 0.931 . S
C2329 C2328 1.391 . S
C2329 C2333 1.376 . S
C2330 C2328 1.394 . S
C2330 C2331 1.369 . S
C2330 C2334 1.531 . S
C2331 C2330 1.369 . S
C2331 C2332 1.410 . S
C2331 C2339 1.503 . S
C2332 C2331 1.410 . S
C2332 C2333 1.392 . S
C2332 C2335 1.511 . S
C2333 C2329 1.376 . S
C2333 C2332 1.392 . S
C2333 H2345 0.929 . S
C2334 C2330 1.531 . S
C2334 H2346 0.960 . S
C2334 H2347 0.962 . S
C2334 H2348 0.960 . S
C2335 C2332 1.511 . S
C2335 H2349 0.961 . S
C2335 H2350 0.961 . S
C2335 H2351 0.961 . S
C2336 C2337 1.370 . S
C2336 C2338 1.363 . S
C2336 H2352 0.931 . S
C2337 C2336 1.370 . S
C2337 C2341 1.408 . S
C2338 C2336 1.363 . S
C2338 C2339 1.370 . S
C2338 C2342 1.524 . S
C2339 C2331 1.503 . S
C2339 C2338 1.370 . S
C2339 C2340 1.403 . S
C2340 C2339 1.403 . S
C2340 C2341 1.404 . S
C2340 C2343 1.539 . S
C2341 C2337 1.408 . S
C2341 C2340 1.404 . S
C2341 H2353 0.930 . S
C2342 C2338 1.524 . S
C2342 H2354 0.956 . S
C2342 H2355 0.961 . S
C2342 H2356 0.961 . S
C2343 C2340 1.539 . S
C2343 H2357 0.958 . S
C2343 H2358 0.961 . S
C2343 H2359 0.960 . S
H2344 C2328 0.931 . S
H2345 C2333 0.929 . S
H2346 C2334 0.960 . S
H2347 C2334 0.962 . S
H2348 C2334 0.960 . S
H2349 C2335 0.961 . S
H2350 C2335 0.961 . S
H2351 C2335 0.961 . S
H2352 C2336 0.931 . S
H2353 C2341 0.930 . S
H2354 C2342 0.956 . S
H2355 C2342 0.961 . S
H2356 C2342 0.961 . S
H2357 C2343 0.958 . S
H2358 C2343 0.961 . S
H2359 C2343 0.960 . S
C2360 C2361 1.391 . S
C2360 C2362 1.394 . S
C2360 H2376 0.931 . S
C2361 C2360 1.391 . S
C2361 C2365 1.376 . S
C2362 C2360 1.394 . S
C2362 C2363 1.369 . S
C2362 C2366 1.531 . S
C2363 C2362 1.369 . S
C2363 C2364 1.410 . S
C2363 C2371 1.503 . S
C2364 C2363 1.410 . S
C2364 C2365 1.392 . S
C2364 C2367 1.511 . S
C2365 C2361 1.376 . S
C2365 C2364 1.392 . S
C2365 H2377 0.929 . S
C2366 C2362 1.531 . S
C2366 H2378 0.960 . S
C2366 H2379 0.962 . S
C2366 H2380 0.960 . S
C2367 C2364 1.511 . S
C2367 H2381 0.961 . S
C2367 H2382 0.961 . S
C2367 H2383 0.961 . S
C2368 C2369 1.370 . S
C2368 C2370 1.363 . S
C2368 H2384 0.931 . S
C2369 C2368 1.370 . S
C2369 C2373 1.408 . S
C2370 C2368 1.363 . S
C2370 C2371 1.370 . S
C2370 C2374 1.524 . S
C2371 C2363 1.503 . S
C2371 C2370 1.370 . S
C2371 C2372 1.403 . S
C2372 C2371 1.403 . S
C2372 C2373 1.404 . S
C2372 C2375 1.539 . S
C2373 C2369 1.408 . S
C2373 C2372 1.404 . S
C2373 H2385 0.930 . S
C2374 C2370 1.524 . S
C2374 H2386 0.956 . S
C2374 H2387 0.961 . S
C2374 H2388 0.961 . S
C2375 C2372 1.539 . S
C2375 H2389 0.958 . S
C2375 H2390 0.961 . S
C2375 H2391 0.960 . S
H2376 C2360 0.931 . S
H2377 C2365 0.929 . S
H2378 C2366 0.960 . S
H2379 C2366 0.962 . S
H2380 C2366 0.960 . S
H2381 C2367 0.961 . S
H2382 C2367 0.961 . S
H2383 C2367 0.961 . S
H2384 C2368 0.931 . S
H2385 C2373 0.930 . S
H2386 C2374 0.956 . S
H2387 C2374 0.961 . S
H2388 C2374 0.961 . S
H2389 C2375 0.958 . S
H2390 C2375 0.961 . S
H2391 C2375 0.960 . S
C2392 C2393 1.391 . S
C2392 C2394 1.394 . S
C2392 H2408 0.931 . S
C2393 C2392 1.391 . S
C2393 C2397 1.376 . S
C2394 C2392 1.394 . S
C2394 C2395 1.369 . S
C2394 C2398 1.531 . S
C2395 C2394 1.369 . S
C2395 C2396 1.410 . S
C2395 C2403 1.503 . S
C2396 C2395 1.410 . S
C2396 C2397 1.392 . S
C2396 C2399 1.511 . S
C2397 C2393 1.376 . S
C2397 C2396 1.392 . S
C2397 H2409 0.929 . S
C2398 C2394 1.531 . S
C2398 H2410 0.960 . S
C2398 H2411 0.962 . S
C2398 H2412 0.960 . S
C2399 C2396 1.511 . S
C2399 H2413 0.961 . S
C2399 H2414 0.961 . S
C2399 H2415 0.961 . S
C2400 C2401 1.370 . S
C2400 C2402 1.363 . S
C2400 H2416 0.931 . S
C2401 C2400 1.370 . S
C2401 C2405 1.408 . S
C2402 C2400 1.363 . S
C2402 C2403 1.370 . S
C2402 C2406 1.524 . S
C2403 C2395 1.503 . S
C2403 C2402 1.370 . S
C2403 C2404 1.403 . S
C2404 C2403 1.403 . S
C2404 C2405 1.404 . S
C2404 C2407 1.539 . S
C2405 C2401 1.408 . S
C2405 C2404 1.404 . S
C2405 H2417 0.930 . S
C2406 C2402 1.524 . S
C2406 H2418 0.956 . S
C2406 H2419 0.961 . S
C2406 H2420 0.961 . S
C2407 C2404 1.539 . S
C2407 H2421 0.958 . S
C2407 H2422 0.961 . S
C2407 H2423 0.960 . S
H2408 C2392 0.931 . S
H2409 C2397 0.929 . S
H2410 C2398 0.960 . S
H2411 C2398 0.962 . S
H2412 C2398 0.960 . S
H2413 C2399 0.961 . S
H2414 C2399 0.961 . S
H2415 C2399 0.961 . S
H2416 C2400 0.931 . S
H2417 C2405 0.930 . S
H2418 C2406 0.956 . S
H2419 C2406 0.961 . S
H2420 C2406 0.961 . S
H2421 C2407 0.958 . S
H2422 C2407 0.961 . S
H2423 C2407 0.960 . S
C2424 C2425 1.391 . S
C2424 C2426 1.394 . S
C2424 H2440 0.931 . S
C2425 C2424 1.391 . S
C2425 C2429 1.376 . S
C2426 C2424 1.394 . S
C2426 C2427 1.369 . S
C2426 C2430 1.531 . S
C2427 C2426 1.369 . S
C2427 C2428 1.410 . S
C2427 C2435 1.503 . S
C2428 C2427 1.410 . S
C2428 C2429 1.392 . S
C2428 C2431 1.511 . S
C2429 C2425 1.376 . S
C2429 C2428 1.392 . S
C2429 H2441 0.929 . S
C2430 C2426 1.531 . S
C2430 H2442 0.960 . S
C2430 H2443 0.962 . S
C2430 H2444 0.960 . S
C2431 C2428 1.511 . S
C2431 H2445 0.961 . S
C2431 H2446 0.961 . S
C2431 H2447 0.961 . S
C2432 C2433 1.370 . S
C2432 C2434 1.363 . S
C2432 H2448 0.931 . S
C2433 C2432 1.370 . S
C2433 C2437 1.408 1_556 S
C2434 C2432 1.363 . S
C2434 C2435 1.370 . S
C2434 C2438 1.524 . S
C2435 C2427 1.503 . S
C2435 C2434 1.370 . S
C2435 C2436 1.403 . S
C2436 C2435 1.403 . S
C2436 C2437 1.404 1_556 S
C2436 C2439 1.539 1_556 S
C2437 C2433 1.408 1_554 S
C2437 C2436 1.404 1_554 S
C2437 H2449 0.930 . S
C2438 C2434 1.524 . S
C2438 H2450 0.956 . S
C2438 H2451 0.961 . S
C2438 H2452 0.961 . S
C2439 C2436 1.539 1_554 S
C2439 H2453 0.958 . S
C2439 H2454 0.961 . S
C2439 H2455 0.960 . S
H2440 C2424 0.931 . S
H2441 C2429 0.929 . S
H2442 C2430 0.960 . S
H2443 C2430 0.962 . S
H2444 C2430 0.960 . S
H2445 C2431 0.961 . S
H2446 C2431 0.961 . S
H2447 C2431 0.961 . S
H2448 C2432 0.931 . S
H2449 C2437 0.930 . S
H2450 C2438 0.956 . S
H2451 C2438 0.961 . S
H2452 C2438 0.961 . S
H2453 C2439 0.958 . S
H2454 C2439 0.961 . S
H2455 C2439 0.960 . S
C2456 C2457 1.391 . S
C2456 C2458 1.394 . S
C2456 H2472 0.931 1_556 S
C2457 C2456 1.391 . S
C2457 C2461 1.376 . S
C2458 C2456 1.394 . S
C2458 C2459 1.369 . S
C2458 C2462 1.531 1_556 S
C2459 C2458 1.369 . S
C2459 C2460 1.410 . S
C2459 C2467 1.503 . S
C2460 C2459 1.410 . S
C2460 C2461 1.392 . S
C2460 C2463 1.511 . S
C2461 C2457 1.376 . S
C2461 C2460 1.392 . S
C2461 H2473 0.929 . S
C2462 C2458 1.531 1_554 S
C2462 H2474 0.960 . S
C2462 H2475 0.962 1_554 S
C2462 H2476 0.960 . S
C2463 C2460 1.511 . S
C2463 H2477 0.961 . S
C2463 H2478 0.961 . S
C2463 H2479 0.961 . S
C2464 C2465 1.370 . S
C2464 C2466 1.363 . S
C2464 H2480 0.931 . S
C2465 C2464 1.370 . S
C2465 C2469 1.408 . S
C2466 C2464 1.363 . S
C2466 C2467 1.370 . S
C2466 C2470 1.524 . S
C2467 C2459 1.503 . S
C2467 C2466 1.370 . S
C2467 C2468 1.403 . S
C2468 C2467 1.403 . S
C2468 C2469 1.404 . S
C2468 C2471 1.539 1_556 S
C2469 C2465 1.408 . S
C2469 C2468 1.404 . S
C2469 H2481 0.930 . S
C2470 C2466 1.524 . S
C2470 H2482 0.956 . S
C2470 H2483 0.961 . S
C2470 H2484 0.961 . S
C2471 C2468 1.539 1_554 S
C2471 H2485 0.958 . S
C2471 H2486 0.961 . S
C2471 H2487 0.960 . S
H2472 C2456 0.931 1_554 S
H2473 C2461 0.929 . S
H2474 C2462 0.960 . S
H2475 C2462 0.962 1_556 S
H2476 C2462 0.960 . S
H2477 C2463 0.961 . S
H2478 C2463 0.961 . S
H2479 C2463 0.961 . S
H2480 C2464 0.931 . S
H2481 C2469 0.930 . S
H2482 C2470 0.956 . S
H2483 C2470 0.961 . S
H2484 C2470 0.961 . S
H2485 C2471 0.958 . S
H2486 C2471 0.961 . S
H2487 C2471 0.960 . S
C2488 C2489 1.391 . S
C2488 C2490 1.394 . S
C2488 H2504 0.931 . S
C2489 C2488 1.391 . S
C2489 C2493 1.376 . S
C2490 C2488 1.394 . S
C2490 C2491 1.369 . S
C2490 C2494 1.531 . S
C2491 C2490 1.369 . S
C2491 C2492 1.410 . S
C2491 C2499 1.503 . S
C2492 C2491 1.410 . S
C2492 C2493 1.392 . S
C2492 C2495 1.511 . S
C2493 C2489 1.376 . S
C2493 C2492 1.392 . S
C2493 H2505 0.929 . S
C2494 C2490 1.531 . S
C2494 H2506 0.960 1_556 S
C2494 H2507 0.962 . S
C2494 H2508 0.960 1_556 S
C2495 C2492 1.511 . S
C2495 H2509 0.961 . S
C2495 H2510 0.961 . S
C2495 H2511 0.961 . S
C2496 C2497 1.370 . S
C2496 C2498 1.363 . S
C2496 H2512 0.931 . S
C2497 C2496 1.370 . S
C2497 C2501 1.408 . S
C2498 C2496 1.363 . S
C2498 C2499 1.370 . S
C2498 C2502 1.524 . S
C2499 C2491 1.503 . S
C2499 C2498 1.370 . S
C2499 C2500 1.403 . S
C2500 C2499 1.403 . S
C2500 C2501 1.404 . S
C2500 C2503 1.539 1_556 S
C2501 C2497 1.408 . S
C2501 C2500 1.404 . S
C2501 H2513 0.930 1_556 S
C2502 C2498 1.524 . S
C2502 H2514 0.956 . S
C2502 H2515 0.961 . S
C2502 H2516 0.961 . S
C2503 C2500 1.539 1_554 S
C2503 H2517 0.958 . S
C2503 H2518 0.961 . S
C2503 H2519 0.960 . S
H2504 C2488 0.931 . S
H2505 C2493 0.929 . S
H2506 C2494 0.960 1_554 S
H2507 C2494 0.962 . S
H2508 C2494 0.960 1_554 S
H2509 C2495 0.961 . S
H2510 C2495 0.961 . S
H2511 C2495 0.961 . S
H2512 C2496 0.931 . S
H2513 C2501 0.930 1_554 S
H2514 C2502 0.956 . S
H2515 C2502 0.961 . S
H2516 C2502 0.961 . S
H2517 C2503 0.958 . S
H2518 C2503 0.961 . S
H2519 C2503 0.960 . S
C2520 C2521 1.391 . S
C2520 C2522 1.394 . S
C2520 H2536 0.931 . S
C2521 C2520 1.391 . S
C2521 C2525 1.376 . S
C2522 C2520 1.394 . S
C2522 C2523 1.369 . S
C2522 C2526 1.531 . S
C2523 C2522 1.369 . S
C2523 C2524 1.410 . S
C2523 C2531 1.503 . S
C2524 C2523 1.410 . S
C2524 C2525 1.392 . S
C2524 C2527 1.511 . S
C2525 C2521 1.376 . S
C2525 C2524 1.392 . S
C2525 H2537 0.929 . S
C2526 C2522 1.531 . S
C2526 H2538 0.960 . S
C2526 H2539 0.962 . S
C2526 H2540 0.960 . S
C2527 C2524 1.511 . S
C2527 H2541 0.961 . S
C2527 H2542 0.961 . S
C2527 H2543 0.961 . S
C2528 C2529 1.370 . S
C2528 C2530 1.363 . S
C2528 H2544 0.931 . S
C2529 C2528 1.370 . S
C2529 C2533 1.408 . S
C2530 C2528 1.363 . S
C2530 C2531 1.370 . S
C2530 C2534 1.524 . S
C2531 C2523 1.503 . S
C2531 C2530 1.370 . S
C2531 C2532 1.403 . S
C2532 C2531 1.403 . S
C2532 C2533 1.404 . S
C2532 C2535 1.539 . S
C2533 C2529 1.408 . S
C2533 C2532 1.404 . S
C2533 H2545 0.930 . S
C2534 C2530 1.524 . S
C2534 H2546 0.956 . S
C2534 H2547 0.961 . S
C2534 H2548 0.961 . S
C2535 C2532 1.539 . S
C2535 H2549 0.958 . S
C2535 H2550 0.961 . S
C2535 H2551 0.960 . S
H2536 C2520 0.931 . S
H2537 C2525 0.929 . S
H2538 C2526 0.960 . S
H2539 C2526 0.962 . S
H2540 C2526 0.960 . S
H2541 C2527 0.961 . S
H2542 C2527 0.961 . S
H2543 C2527 0.961 . S
H2544 C2528 0.931 . S
H2545 C2533 0.930 . S
H2546 C2534 0.956 . S
H2547 C2534 0.961 . S
H2548 C2534 0.961 . S
H2549 C2535 0.958 . S
H2550 C2535 0.961 . S
H2551 C2535 0.960 . S
C2552 C2553 1.391 . S
C2552 C2554 1.394 . S
C2552 H2568 0.931 . S
C2553 C2552 1.391 . S
C2553 C2557 1.376 . S
C2554 C2552 1.394 . S
C2554 C2555 1.369 . S
C2554 C2558 1.531 . S
C2555 C2554 1.369 . S
C2555 C2556 1.410 . S
C2555 C2563 1.503 . S
C2556 C2555 1.410 . S
C2556 C2557 1.392 . S
C2556 C2559 1.511 . S
C2557 C2553 1.376 . S
C2557 C2556 1.392 . S
C2557 H2569 0.929 . S
C2558 C2554 1.531 . S
C2558 H2570 0.960 . S
C2558 H2571 0.962 . S
C2558 H2572 0.960 . S
C2559 C2556 1.511 . S
C2559 H2573 0.961 . S
C2559 H2574 0.961 . S
C2559 H2575 0.961 . S
C2560 C2561 1.370 . S
C2560 C2562 1.363 . S
C2560 H2576 0.931 . S
C2561 C2560 1.370 . S
C2561 C2565 1.408 . S
C2562 C2560 1.363 . S
C2562 C2563 1.370 . S
C2562 C2566 1.524 . S
C2563 C2555 1.503 . S
C2563 C2562 1.370 . S
C2563 C2564 1.403 . S
C2564 C2563 1.403 . S
C2564 C2565 1.404 . S
C2564 C2567 1.539 . S
C2565 C2561 1.408 . S
C2565 C2564 1.404 . S
C2565 H2577 0.930 . S
C2566 C2562 1.524 . S
C2566 H2578 0.956 . S
C2566 H2579 0.961 . S
C2566 H2580 0.961 . S
C2567 C2564 1.539 . S
C2567 H2581 0.958 . S
C2567 H2582 0.961 . S
C2567 H2583 0.960 . S
H2568 C2552 0.931 . S
H2569 C2557 0.929 . S
H2570 C2558 0.960 . S
H2571 C2558 0.962 . S
H2572 C2558 0.960 . S
H2573 C2559 0.961 . S
H2574 C2559 0.961 . S
H2575 C2559 0.961 . S
H2576 C2560 0.931 . S
H2577 C2565 0.930 . S
H2578 C2566 0.956 . S
H2579 C2566 0.961 . S
H2580 C2566 0.961 . S
H2581 C2567 0.958 . S
H2582 C2567 0.961 . S
H2583 C2567 0.960 . S
C2584 C2585 1.391 . S
C2584 C2586 1.394 . S
C2584 H2600 0.931 . S
C2585 C2584 1.391 . S
C2585 C2589 1.376 . S
C2586 C2584 1.394 . S
C2586 C2587 1.369 . S
C2586 C2590 1.531 . S
C2587 C2586 1.369 . S
C2587 C2588 1.410 . S
C2587 C2595 1.503 . S
C2588 C2587 1.410 . S
C2588 C2589 1.392 . S
C2588 C2591 1.511 . S
C2589 C2585 1.376 . S
C2589 C2588 1.392 . S
C2589 H2601 0.929 . S
C2590 C2586 1.531 . S
C2590 H2602 0.960 . S
C2590 H2603 0.962 . S
C2590 H2604 0.960 . S
C2591 C2588 1.511 . S
C2591 H2605 0.961 . S
C2591 H2606 0.961 . S
C2591 H2607 0.961 . S
C2592 C2593 1.370 . S
C2592 C2594 1.363 . S
C2592 H2608 0.931 . S
C2593 C2592 1.370 . S
C2593 C2597 1.408 . S
C2594 C2592 1.363 . S
C2594 C2595 1.370 . S
C2594 C2598 1.524 . S
C2595 C2587 1.503 . S
C2595 C2594 1.370 . S
C2595 C2596 1.403 . S
C2596 C2595 1.403 . S
C2596 C2597 1.404 . S
C2596 C2599 1.539 . S
C2597 C2593 1.408 . S
C2597 C2596 1.404 . S
C2597 H2609 0.930 . S
C2598 C2594 1.524 . S
C2598 H2610 0.956 . S
C2598 H2611 0.961 . S
C2598 H2612 0.961 . S
C2599 C2596 1.539 . S
C2599 H2613 0.958 . S
C2599 H2614 0.961 . S
C2599 H2615 0.960 . S
H2600 C2584 0.931 . S
H2601 C2589 0.929 . S
H2602 C2590 0.960 . S
H2603 C2590 0.962 . S
H2604 C2590 0.960 . S
H2605 C2591 0.961 . S
H2606 C2591 0.961 . S
H2607 C2591 0.961 . S
H2608 C2592 0.931 . S
H2609 C2597 0.930 . S
H2610 C2598 0.956 . S
H2611 C2598 0.961 . S
H2612 C2598 0.961 . S
H2613 C2599 0.958 . S
H2614 C2599 0.961 . S
H2615 C2599 0.960 . S
C2616 C2617 1.391 . S
C2616 C2618 1.394 . S
C2616 H2632 0.931 . S
C2617 C2616 1.391 . S
C2617 C2621 1.376 . S
C2618 C2616 1.394 . S
C2618 C2619 1.369 . S
C2618 C2622 1.531 . S
C2619 C2618 1.369 . S
C2619 C2620 1.410 . S
C2619 C2627 1.503 1_455 S
C2620 C2619 1.410 . S
C2620 C2621 1.392 . S
C2620 C2623 1.511 . S
C2621 C2617 1.376 . S
C2621 C2620 1.392 . S
C2621 H2633 0.929 . S
C2622 C2618 1.531 . S
C2622 H2634 0.960 . S
C2622 H2635 0.962 . S
C2622 H2636 0.960 . S
C2623 C2620 1.511 . S
C2623 H2637 0.961 . S
C2623 H2638 0.961 1_455 S
C2623 H2639 0.961 . S
C2624 C2625 1.370 . S
C2624 C2626 1.363 . S
C2624 H2640 0.931 . S
C2625 C2624 1.370 . S
C2625 C2629 1.408 . S
C2626 C2624 1.363 . S
C2626 C2627 1.370 . S
C2626 C2630 1.524 . S
C2627 C2619 1.503 1_655 S
C2627 C2626 1.370 . S
C2627 C2628 1.403 . S
C2628 C2627 1.403 . S
C2628 C2629 1.404 . S
C2628 C2631 1.539 . S
C2629 C2625 1.408 . S
C2629 C2628 1.404 . S
C2629 H2641 0.930 . S
C2630 C2626 1.524 . S
C2630 H2642 0.958 . S
C2630 H2643 0.961 . S
C2630 H2644 0.961 . S
C2631 C2628 1.539 . S
C2631 H2645 0.958 . S
C2631 H2646 0.961 . S
C2631 H2647 0.965 1_655 S
H2632 C2616 0.931 . S
H2633 C2621 0.929 . S
H2634 C2622 0.960 . S
H2635 C2622 0.962 . S
H2636 C2622 0.960 . S
H2637 C2623 0.961 . S
H2638 C2623 0.961 1_655 S
H2639 C2623 0.961 . S
H2640 C2624 0.931 . S
H2641 C2629 0.930 . S
H2642 C2630 0.958 . S
H2643 C2630 0.961 . S
H2644 C2630 0.961 . S
H2645 C2631 0.958 . S
H2646 C2631 0.961 . S
H2647 C2631 0.965 1_455 S
C2648 C2649 1.391 . S
C2648 C2650 1.394 . S
C2648 H2664 0.931 . S
C2649 C2648 1.391 . S
C2649 C2653 1.376 . S
C2650 C2648 1.394 . S
C2650 C2651 1.369 . S
C2650 C2654 1.531 . S
C2651 C2650 1.369 . S
C2651 C2652 1.410 . S
C2651 C2659 1.503 . S
C2652 C2651 1.410 . S
C2652 C2653 1.392 . S
C2652 C2655 1.511 . S
C2653 C2649 1.376 . S
C2653 C2652 1.392 . S
C2653 H2665 0.929 . S
C2654 C2650 1.531 . S
C2654 H2666 0.960 . S
C2654 H2667 0.962 . S
C2654 H2668 0.960 . S
C2655 C2652 1.511 . S
C2655 H2669 0.961 . S
C2655 H2670 0.961 . S
C2655 H2671 0.961 . S
C2656 C2657 1.370 . S
C2656 C2658 1.363 . S
C2656 H2672 0.931 . S
C2657 C2656 1.370 . S
C2657 C2661 1.408 . S
C2658 C2656 1.363 . S
C2658 C2659 1.370 . S
C2658 C2662 1.524 . S
C2659 C2651 1.503 . S
C2659 C2658 1.370 . S
C2659 C2660 1.403 . S
C2660 C2659 1.403 . S
C2660 C2661 1.404 . S
C2660 C2663 1.539 . S
C2661 C2657 1.408 . S
C2661 C2660 1.404 . S
C2661 H2673 0.930 . S
C2662 C2658 1.524 . S
C2662 H2674 0.956 . S
C2662 H2675 0.961 . S
C2662 H2676 0.961 . S
C2663 C2660 1.539 . S
C2663 H2677 0.958 . S
C2663 H2678 0.961 . S
C2663 H2679 0.960 . S
H2664 C2648 0.931 . S
H2665 C2653 0.929 . S
H2666 C2654 0.960 . S
H2667 C2654 0.962 . S
H2668 C2654 0.960 . S
H2669 C2655 0.961 . S
H2670 C2655 0.961 . S
H2671 C2655 0.961 . S
H2672 C2656 0.931 . S
H2673 C2661 0.930 . S
H2674 C2662 0.956 . S
H2675 C2662 0.961 . S
H2676 C2662 0.961 . S
H2677 C2663 0.958 . S
H2678 C2663 0.961 . S
H2679 C2663 0.960 . S
C2680 C2681 1.391 . S
C2680 C2682 1.394 . S
C2680 H2696 0.931 . S
C2681 C2680 1.391 . S
C2681 C2685 1.376 . S
C2682 C2680 1.394 . S
C2682 C2683 1.369 . S
C2682 C2686 1.531 . S
C2683 C2682 1.369 . S
C2683 C2684 1.410 . S
C2683 C2691 1.503 1_565 S
C2684 C2683 1.410 . S
C2684 C2685 1.392 . S
C2684 C2687 1.511 . S
C2685 C2681 1.376 . S
C2685 C2684 1.392 . S
C2685 H2697 0.929 . S
C2686 C2682 1.531 . S
C2686 H2698 0.960 1_565 S
C2686 H2699 0.962 . S
C2686 H2700 0.960 . S
C2687 C2684 1.511 . S
C2687 H2701 0.961 . S
C2687 H2702 0.961 . S
C2687 H2703 0.961 . S
C2688 C2689 1.370 . S
C2688 C2690 1.363 . S
C2688 H2704 0.931 . S
C2689 C2688 1.370 . S
C2689 C2693 1.408 . S
C2690 C2688 1.363 . S
C2690 C2691 1.370 . S
C2690 C2694 1.524 . S
C2691 C2683 1.503 1_545 S
C2691 C2690 1.370 . S
C2691 C2692 1.403 . S
C2692 C2691 1.403 . S
C2692 C2693 1.404 . S
C2692 C2695 1.539 . S
C2693 C2689 1.408 . S
C2693 C2692 1.404 . S
C2693 H2705 0.930 . S
C2694 C2690 1.524 . S
C2694 H2706 0.954 1_545 S
C2694 H2707 0.961 1_545 S
C2694 H2708 0.961 . S
C2695 C2692 1.539 . S
C2695 H2709 0.958 . S
C2695 H2710 0.961 . S
C2695 H2711 0.960 . S
H2696 C2680 0.931 . S
H2697 C2685 0.929 . S
H2698 C2686 0.960 1_545 S
H2699 C2686 0.962 . S
H2700 C2686 0.960 . S
H2701 C2687 0.961 . S
H2702 C2687 0.961 . S
H2703 C2687 0.961 . S
H2704 C2688 0.931 . S
H2705 C2693 0.930 . S
H2706 C2694 0.954 1_565 S
H2707 C2694 0.961 1_565 S
H2708 C2694 0.961 . S
H2709 C2695 0.958 . S
H2710 C2695 0.961 . S
H2711 C2695 0.960 . S
C2712 C2713 1.391 . S
C2712 C2714 1.394 . S
C2712 H2728 0.931 . S
C2713 C2712 1.391 . S
C2713 C2717 1.376 . S
C2714 C2712 1.394 . S
C2714 C2715 1.369 . S
C2714 C2718 1.531 . S
C2715 C2714 1.369 . S
C2715 C2716 1.410 . S
C2715 C2723 1.503 1_545 S
C2716 C2715 1.410 . S
C2716 C2717 1.392 . S
C2716 C2719 1.511 . S
C2717 C2713 1.376 . S
C2717 C2716 1.392 . S
C2717 H2729 0.929 . S
C2718 C2714 1.531 . S
C2718 H2730 0.960 1_545 S
C2718 H2731 0.962 . S
C2718 H2732 0.960 . S
C2719 C2716 1.511 . S
C2719 H2733 0.961 . S
C2719 H2734 0.927 1_545 S
C2719 H2735 0.961 . S
C2720 C2721 1.370 . S
C2720 C2722 1.363 . S
C2720 H2736 0.931 . S
C2721 C2720 1.370 . S
C2721 C2725 1.408 . S
C2722 C2720 1.363 . S
C2722 C2723 1.370 . S
C2722 C2726 1.524 . S
C2723 C2715 1.503 1_565 S
C2723 C2722 1.370 . S
C2723 C2724 1.403 . S
C2724 C2723 1.403 . S
C2724 C2725 1.404 . S
C2724 C2727 1.539 . S
C2725 C2721 1.408 . S
C2725 C2724 1.404 . S
C2725 H2737 0.930 . S
C2726 C2722 1.524 . S
C2726 H2738 0.956 1_565 S
C2726 H2739 0.961 1_565 S
C2726 H2740 0.961 . S
C2727 C2724 1.539 . S
C2727 H2741 0.958 . S
C2727 H2742 0.961 . S
C2727 H2743 0.960 . S
H2728 C2712 0.931 . S
H2729 C2717 0.929 . S
H2730 C2718 0.960 1_565 S
H2731 C2718 0.962 . S
H2732 C2718 0.960 . S
H2733 C2719 0.961 . S
H2734 C2719 0.927 1_565 S
H2735 C2719 0.961 . S
H2736 C2720 0.931 . S
H2737 C2725 0.930 . S
H2738 C2726 0.956 1_545 S
H2739 C2726 0.961 1_545 S
H2740 C2726 0.961 . S
H2741 C2727 0.958 . S
H2742 C2727 0.961 . S
H2743 C2727 0.960 . S
C2744 C2745 1.391 . S
C2744 C2746 1.394 . S
C2744 H2760 0.931 . S
C2745 C2744 1.391 . S
C2745 C2749 1.376 . S
C2746 C2744 1.394 . S
C2746 C2747 1.369 . S
C2746 C2750 1.531 . S
C2747 C2746 1.369 . S
C2747 C2748 1.410 . S
C2747 C2755 1.503 1_455 S
C2748 C2747 1.410 . S
C2748 C2749 1.392 . S
C2748 C2751 1.511 . S
C2749 C2745 1.376 . S
C2749 C2748 1.392 . S
C2749 H2761 0.929 . S
C2750 C2746 1.531 . S
C2750 H2762 0.960 1_455 S
C2750 H2763 0.962 . S
C2750 H2764 0.960 . S
C2751 C2748 1.511 . S
C2751 H2765 0.961 . S
C2751 H2766 0.911 1_455 S
C2751 H2767 0.961 . S
C2752 C2753 1.370 . S
C2752 C2754 1.363 . S
C2752 H2768 0.931 . S
C2753 C2752 1.370 . S
C2753 C2757 1.408 . S
C2754 C2752 1.363 . S
C2754 C2755 1.370 . S
C2754 C2758 1.524 . S
C2755 C2747 1.503 1_655 S
C2755 C2754 1.370 . S
C2755 C2756 1.403 . S
C2756 C2755 1.403 . S
C2756 C2757 1.404 . S
C2756 C2759 1.539 . S
C2757 C2753 1.408 . S
C2757 C2756 1.404 . S
C2757 H2769 0.930 . S
C2758 C2754 1.524 . S
C2758 H2770 0.956 1_655 S
C2758 H2771 0.961 1_655 S
C2758 H2772 0.961 . S
C2759 C2756 1.539 . S
C2759 H2773 0.958 . S
C2759 H2774 0.961 . S
C2759 H2775 0.960 . S
H2760 C2744 0.931 . S
H2761 C2749 0.929 . S
H2762 C2750 0.960 1_655 S
H2763 C2750 0.962 . S
H2764 C2750 0.960 . S
H2765 C2751 0.961 . S
H2766 C2751 0.911 1_655 S
H2767 C2751 0.961 . S
H2768 C2752 0.931 . S
H2769 C2757 0.930 . S
H2770 C2758 0.956 1_455 S
H2771 C2758 0.961 1_455 S
H2772 C2758 0.961 . S
H2773 C2759 0.958 . S
H2774 C2759 0.961 . S
H2775 C2759 0.960 . S
C2776 C2777 1.391 . S
C2776 C2778 1.394 . S
C2776 H2792 0.931 . S
C2777 C2776 1.391 . S
C2777 C2781 1.376 . S
C2778 C2776 1.394 . S
C2778 C2779 1.369 . S
C2778 C2782 1.531 . S
C2779 C2778 1.369 . S
C2779 C2780 1.410 . S
C2779 C2787 1.503 . S
C2780 C2779 1.410 . S
C2780 C2781 1.392 . S
C2780 C2783 1.511 . S
C2781 C2777 1.376 . S
C2781 C2780 1.392 . S
C2781 H2793 0.929 . S
C2782 C2778 1.531 . S
C2782 H2794 0.960 . S
C2782 H2795 0.962 . S
C2782 H2796 0.960 . S
C2783 C2780 1.511 . S
C2783 H2797 0.961 . S
C2783 H2798 0.961 . S
C2783 H2799 0.961 . S
C2784 C2785 1.370 . S
C2784 C2786 1.363 . S
C2784 H2800 0.931 . S
C2785 C2784 1.370 . S
C2785 C2789 1.408 . S
C2786 C2784 1.363 . S
C2786 C2787 1.370 . S
C2786 C2790 1.524 . S
C2787 C2779 1.503 . S
C2787 C2786 1.370 . S
C2787 C2788 1.403 . S
C2788 C2787 1.403 . S
C2788 C2789 1.404 . S
C2788 C2791 1.539 . S
C2789 C2785 1.408 . S
C2789 C2788 1.404 . S
C2789 H2801 0.930 . S
C2790 C2786 1.524 . S
C2790 H2802 0.956 . S
C2790 H2803 0.961 . S
C2790 H2804 0.961 . S
C2791 C2788 1.539 . S
C2791 H2805 0.958 . S
C2791 H2806 0.961 . S
C2791 H2807 0.960 . S
H2792 C2776 0.931 . S
H2793 C2781 0.929 . S
H2794 C2782 0.960 . S
H2795 C2782 0.962 . S
H2796 C2782 0.960 . S
H2797 C2783 0.961 . S
H2798 C2783 0.961 . S
H2799 C2783 0.961 . S
H2800 C2784 0.931 . S
H2801 C2789 0.930 . S
H2802 C2790 0.956 . S
H2803 C2790 0.961 . S
H2804 C2790 0.961 . S
H2805 C2791 0.958 . S
H2806 C2791 0.961 . S
H2807 C2791 0.960 . S
C505 C50 1.119 . S
C513 C8 1.119 . S
C537 C64 1.122 . S
C545 C22 1.119 . S
C569 C78 1.114 . S
C577 C36 1.122 . S
C601 C92 1.114 . S
C609 C134 1.120 . S
C633 C106 1.121 . S
C641 C148 1.119 . S
C665 C162 1.116 . S
C673 C120 1.122 . S
C697 C176 1.113 . S
C705 C218 1.109 . S
C729 C190 1.108 . S
C737 C232 1.108 . S
C761 C204 1.110 . S
C769 C246 1.108 . S
C793 C260 1.103 . S
C801 C302 1.105 . S
C825 C316 1.101 . S
C833 C274 1.105 . S
C857 C288 1.109 . S
C865 C330 1.108 . S
C889 C344 1.099 . S
C897 C386 1.109 . S
C921 C358 1.110 . S
C929 C400 1.104 . S
C953 C414 1.104 . S
C961 C372 1.109 . S
C985 C470 1.108 . S
C993 C428 1.112 . S
C1017 C484 1.110 . S
C1025 C442 1.107 . S
C1049 C498 1.111 . S
C1057 C456 1.111 . S
C1081 C161 1.477 . S
C1089 C9 1.527 . S
C1113 C23 1.532 . S
C1121 C133 1.499 . S
C1145 C37 1.499 . S
C1153 C147 1.471 . S
C1177 C105 1.458 . S
C1185 C51 1.526 . S
C1209 C65 1.507 . S
C1217 C119 1.488 . S
C1241 C91 1.462 . S
C1249 C79 1.523 . S
C1273 C93 1.541 . S
C1281 C77 1.491 . S
C1305 C107 1.515 . S
C1313 C49 1.473 . S
C1337 C63 1.466 . S
C1345 C121 1.512 . S
C1369 C21 1.522 . S
C1377 C135 1.534 . S
C1401 C35 1.508 . S
C1409 C149 1.542 . S
C1433 C163 1.552 . S
C1441 C7 1.504 . S
C1465 C177 1.515 . S
C1473 C329 1.466 . S
C1497 C301 1.427 . S
C1505 C191 1.491 . S
C1529 C315 1.487 . S
C1537 C205 1.501 . S
C1561 C219 1.531 . S
C1569 C273 1.479 . S
C1593 C287 1.453 . S
C1601 C233 1.524 . S
C1625 C247 1.514 . S
C1633 C259 1.486 . S
C1657 C261 1.540 . S
C1665 C245 1.484 . S
C1689 C275 1.513 . S
C1697 C217 1.465 . S
C1721 C231 1.509 . S
C1729 C289 1.528 . S
C1753 C189 1.472 . S
C1761 C303 1.544 . S
C1785 C203 1.486 . S
C1793 C317 1.542 . S
C1817 C331 1.524 . S
C1825 C175 1.506 . S
C1849 C497 1.507 . S
C1857 C345 1.527 . S
C1881 C359 1.541 . S
C1889 C469 1.491 . S
C1913 C373 1.527 . S
C1921 C483 1.491 . S
C1945 C387 1.557 . S
C1953 C441 1.510 . S
C1977 C455 1.471 . S
C1985 C401 1.545 . S
C2009 C415 1.523 . S
C2017 C427 1.500 . S
C2041 C413 1.428 . S
C2049 C429 1.483 . S
C2073 C385 1.481 . S
C2081 C443 1.502 . S
C2105 C399 1.426 . S
C2113 C457 1.494 . S
C2137 C357 1.513 . S
C2145 C471 1.534 . S
C2169 C371 1.503 . S
C2177 C485 1.525 . S
C2201 C343 1.511 . S
C2209 C499 1.528 . S
C2233 C409 1.375 . S
C2241 C3 1.378 . S
C2265 C17 1.378 . S
C2273 C381 1.375 . S
C2297 C395 1.381 . S
C2305 C31 1.380 . S
C2329 C45 1.383 . S
C2337 C185 1.378 . S
C2361 C199 1.360 . S
C2369 C59 1.369 . S
C2393 C73 1.358 . S
C2401 C171 1.369 . S
C2425 C87 1.368 . S
C2433 C325 1.373 . S
C2457 C297 1.361 . S
C2465 C101 1.370 . S
C2489 C115 1.378 . S
C2497 C311 1.377 . S
C2521 C129 1.382 . S
C2529 C437 1.379 . S
C2553 C143 1.361 . S
C2561 C451 1.370 . S
C2585 C423 1.360 . S
C2593 C157 1.371 . S
C2617 C353 1.359 . S
C2625 C213 1.370 . S
C2649 C367 1.378 . S
C2657 C227 1.375 . S
C2681 C339 1.383 . S
C2689 C241 1.382 . S
C2713 C255 1.367 . S
C2721 C493 1.375 . S
C2745 C465 1.368 . S
C2753 C269 1.375 . S
C2777 C283 1.387 . S
C2785 C479 1.382 . S
