# Generated by pormake.
# Topology smk, (6)-cn, num edge types: 1
# Building blocks:
#     Node 0, Type 0, BuildingBlock: FUNLAD_clean_sbu_0, # of connection points: 6
#     Node 1, Type 0, BuildingBlock: FUNLAD_clean_sbu_0, # of connection points: 6
#     Node 2, Type 0, BuildingBlock: FUNLAD_clean_sbu_0, # of connection points: 6
#     Node 3, Type 0, BuildingBlock: FUNLAD_clean_sbu_0, # of connection points: 6
#     Node 4, Type 0, BuildingBlock: FUNLAD_clean_sbu_0, # of connection points: 6
#     Node 5, Type 0, BuildingBlock: FUNLAD_clean_sbu_0, # of connection points: 6
#     Edge 6, Type (0, 0), BuildingBlock: XIVTED_clean_linker_0, # of connection points: 2
#     Edge 7, Type (0, 0), BuildingBlock: XIVTED_clean_linker_0, # of connection points: 2
#     Edge 8, Type (0, 0), BuildingBlock: XIVTED_clean_linker_0, # of connection points: 2
#     Edge 9, Type (0, 0), BuildingBlock: XIVTED_clean_linker_0, # of connection points: 2
#     Edge 10, Type (0, 0), BuildingBlock: XIVTED_clean_linker_0, # of connection points: 2
#     Edge 11, Type (0, 0), BuildingBlock: XIVTED_clean_linker_0, # of connection points: 2
#     Edge 12, Type (0, 0), BuildingBlock: XIVTED_clean_linker_0, # of connection points: 2
#     Edge 13, Type (0, 0), BuildingBlock: XIVTED_clean_linker_0, # of connection points: 2
#     Edge 14, Type (0, 0), BuildingBlock: XIVTED_clean_linker_0, # of connection points: 2
#     Edge 15, Type (0, 0), BuildingBlock: XIVTED_clean_linker_0, # of connection points: 2
#     Edge 16, Type (0, 0), BuildingBlock: XIVTED_clean_linker_0, # of connection points: 2
#     Edge 17, Type (0, 0), BuildingBlock: XIVTED_clean_linker_0, # of connection points: 2
#     Edge 18, Type (0, 0), BuildingBlock: XIVTED_clean_linker_0, # of connection points: 2
#     Edge 19, Type (0, 0), BuildingBlock: XIVTED_clean_linker_0, # of connection points: 2
#     Edge 20, Type (0, 0), BuildingBlock: XIVTED_clean_linker_0, # of connection points: 2
#     Edge 21, Type (0, 0), BuildingBlock: XIVTED_clean_linker_0, # of connection points: 2
#     Edge 22, Type (0, 0), BuildingBlock: XIVTED_clean_linker_0, # of connection points: 2
#     Edge 23, Type (0, 0), BuildingBlock: XIVTED_clean_linker_0, # of connection points: 2
# Relax obj value: 0.410
# Max RMSD: 0.247
# Mean RMSD: 0.247
data_MOF--net-smk--node1-FUNLAD_clean_sbu_0--edge1-XIVTED_clean_linker_0
_symmetry_space_group_name_H-M    P1
_symmetry_Int_Tables_number       1
_symmetry_cell_setting            triclinic
loop_
_symmetry_equiv_pos_as_xyz
'x, y, z'
_cell_length_a     48.314457
_cell_length_b     48.361425
_cell_length_c     15.491069
_cell_angle_alpha  89.959908
_cell_angle_beta   90.099994
_cell_angle_gamma 120.38652
loop_
_atom_site_label
_atom_site_type_symbol
_atom_site_fract_x
_atom_site_fract_y
_atom_site_fract_z
_atom_type_partial_charge
C0 C 0.47635 0.2853 0.40157 0.0
N1 N 0.54147 0.3539 0.56801 0.0
C2 C 0.56313 0.35247 0.51492 0.0
C3 C 0.59145 0.38001 0.49252 0.0
C4 C 0.59805 0.4099 0.52412 0.0
C5 C 0.57552 0.41104 0.57926 0.0
C6 C 0.54719 0.38249 0.60082 0.0
Zn7 Zn 0.49868 0.31102 0.57851 0.0
C8 C 0.44174 0.31884 0.57532 0.0
N9 N 0.41131 0.21998 0.57693 0.0
C10 C 0.38877 0.21554 0.51704 0.0
C11 C 0.40843 0.19504 0.62472 0.0
C12 C 0.38327 0.16387 0.60889 0.0
C13 C 0.36087 0.15831 0.54325 0.0
C14 C 0.36324 0.18482 0.49923 0.0
Zn15 Zn 0.45324 0.26341 0.57912 0.0
O16 O 0.49782 0.309 0.44321 0.0
C17 C 0.51056 0.25605 0.59113 0.0
O18 O 0.45425 0.26181 0.44258 0.0
H19 H 0.42665 0.19902 0.67175 0.0
H20 H 0.55796 0.32999 0.48637 0.0
H21 H 0.39152 0.23563 0.47946 0.0
O22 O 0.52428 0.28629 0.58488 0.0
O23 O 0.48013 0.2394 0.589 0.0
H24 H 0.52946 0.38331 0.64158 0.0
O25 O 0.45315 0.26579 0.71418 0.0
O26 O 0.49855 0.31223 0.71491 0.0
O27 O 0.42721 0.28833 0.57397 0.0
O28 O 0.47226 0.33471 0.57543 0.0
C29 C 0.47556 0.28912 0.7557 0.0
H30 H 0.60753 0.37793 0.44784 0.0
H31 H 0.57964 0.43366 0.60478 0.0
H32 H 0.38262 0.1442 0.64409 0.0
H33 H 0.34624 0.18177 0.4492 0.0
C34 C 0.29718 0.48033 0.84337 0.0
N35 N 0.36872 0.53867 0.67405 0.0
C36 C 0.36939 0.56312 0.71931 0.0
C37 C 0.3982 0.59064 0.73822 0.0
C38 C 0.42717 0.59328 0.71226 0.0
C39 C 0.4263 0.5678 0.66626 0.0
C40 C 0.39648 0.54052 0.64704 0.0
Zn41 Zn 0.32361 0.49846 0.66632 0.0
C42 C 0.32469 0.43772 0.67919 0.0
N43 N 0.22775 0.41761 0.67181 0.0
C44 C 0.2088 0.42383 0.72352 0.0
C45 C 0.21577 0.38873 0.63134 0.0
C46 C 0.18326 0.36507 0.64144 0.0
C47 C 0.16332 0.37169 0.69273 0.0
C48 C 0.17666 0.40131 0.73474 0.0
Zn49 Zn 0.2741 0.45562 0.66567 0.0
O50 O 0.32141 0.50096 0.80172 0.0
C51 C 0.27405 0.51707 0.64107 0.0
O52 O 0.27354 0.45844 0.8023 0.0
H53 H 0.23127 0.38413 0.59103 0.0
H54 H 0.34756 0.56099 0.74431 0.0
H55 H 0.21854 0.44655 0.75643 0.0
O56 O 0.3039 0.52799 0.64858 0.0
O57 O 0.25501 0.48716 0.64958 0.0
H58 H 0.39559 0.5206 0.61286 0.0
O59 O 0.27588 0.45348 0.53045 0.0
O60 O 0.32509 0.49524 0.53037 0.0
O61 O 0.29425 0.42506 0.6757 0.0
O62 O 0.34239 0.46808 0.6794 0.0
C63 C 0.30079 0.47375 0.48927 0.0
H64 H 0.39783 0.60933 0.77586 0.0
H65 H 0.44828 0.56895 0.64588 0.0
H66 H 0.17369 0.34233 0.60827 0.0
H67 H 0.16224 0.40713 0.77606 0.0
C68 C 0.79895 0.22607 0.71959 0.0
N69 N 0.72501 0.20654 0.88718 0.0
C70 C 0.70711 0.18559 0.82363 0.0
C71 C 0.67835 0.18306 0.79696 0.0
C72 C 0.66763 0.20197 0.83652 0.0
C73 C 0.68504 0.22137 0.90687 0.0
C74 C 0.71402 0.22347 0.93101 0.0
Zn75 Zn 0.77202 0.21753 0.89549 0.0
C76 C 0.77639 0.15762 0.88894 0.0
N77 N 0.86981 0.23947 0.89363 0.0
C78 C 0.88783 0.26527 0.84226 0.0
C79 C 0.88293 0.22347 0.9326 0.0
C80 C 0.91558 0.23369 0.92063 0.0
C81 C 0.93458 0.26069 0.86889 0.0
C82 C 0.92013 0.27625 0.82918 0.0
Zn83 Zn 0.8223 0.22687 0.8984 0.0
O84 O 0.77418 0.22134 0.76002 0.0
C85 C 0.81686 0.28641 0.9159 0.0
O86 O 0.82291 0.22935 0.76185 0.0
H87 H 0.86811 0.20275 -0.02767 0.0
H88 H 0.71622 0.17247 0.78899 0.0
H89 H 0.87707 0.27732 0.8099 0.0
O90 O 0.78717 0.26633 0.90701 0.0
O91 O 0.83683 0.2767 0.91104 0.0
H92 H 0.72869 0.24019 -0.0192 0.0
O93 O 0.82067 0.22391 0.03367 0.0
O94 O 0.77084 0.21416 0.03159 0.0
O95 O 0.80658 0.17687 0.89171 0.0
O96 O 0.75756 0.16877 0.8875 0.0
C97 C 0.79536 0.21834 0.07378 0.0
H98 H 0.66545 0.16767 0.74287 0.0
H99 H 0.67756 0.23646 0.93863 0.0
H100 H 0.92591 0.22099 -0.04791 0.0
H101 H 0.93366 0.29668 0.78715 0.0
C102 C 0.62473 0.85479 0.19888 0.0
N103 N 0.56399 0.86338 0.028 0.0
C104 C 0.54048 0.84001 0.07723 0.0
C105 C 0.51215 0.8398 0.09322 0.0
C106 C 0.50761 0.8641 0.0595 0.0
C107 C 0.53221 0.88836 0.00962 0.0
C108 C 0.5604 0.88742 -0.00598 0.0
Zn109 Zn 0.60524 0.86074 0.02169 0.0
C110 C 0.66459 0.92392 0.02819 0.0
N111 N 0.68827 0.85054 0.02747 0.0
C112 C 0.68571 0.82769 0.08349 0.0
C113 C 0.7162 0.86972 -0.01532 0.0
C114 C 0.74313 0.8665 -0.00087 0.0
C115 C 0.74119 0.84378 0.0592 0.0
C116 C 0.7119 0.82402 0.10062 0.0
Zn117 Zn 0.64852 0.85536 0.02129 0.0
O118 O 0.60392 0.8579 0.15715 0.0
C119 C 0.58848 0.79235 0.00292 0.0
O120 O 0.6464 0.85292 0.15792 0.0
H121 H 0.71775 0.88782 0.94065 0.0
H122 H 0.54391 0.82171 0.10668 0.0
H123 H 0.66337 0.81253 0.11668 0.0
O124 O 0.57715 0.81083 0.00977 0.0
O125 O 0.61862 0.80412 0.00912 0.0
H126 H 0.57955 0.90613 -0.04368 0.0
O127 O 0.64995 0.85819 0.8861 0.0
O128 O 0.60731 0.8637 0.88552 0.0
O129 O 0.6776 0.90664 0.02757 0.0
O130 O 0.63417 0.91051 0.02919 0.0
C131 C 0.62906 0.86158 0.84467 0.0
H132 H 0.49417 0.82109 0.13379 0.0
H133 H 0.5296 0.90762 -0.01708 0.0
H134 H 0.76535 0.88203 -0.03447 0.0
H135 H 0.7092 0.80572 0.14586 0.0
C136 C 0.86279 0.61446 0.05532 0.0
N137 N 0.87004 0.55176 0.22036 0.0
C138 C 0.84629 0.52984 0.16841 0.0
C139 C 0.84395 0.50071 0.15025 0.0
C140 C 0.86651 0.49369 0.1842 0.0
C141 C 0.89139 0.51668 0.23631 0.0
C142 C 0.89258 0.54581 0.25433 0.0
Zn143 Zn 0.86896 0.59375 0.23127 0.0
C144 C 0.93221 0.65253 0.22599 0.0
N145 N 0.85891 0.67682 0.23109 0.0
C146 C 0.83579 0.6746 0.17645 0.0
C147 C 0.87871 0.70465 0.27359 0.0
C148 C 0.8759 0.73185 0.26011 0.0
C149 C 0.85295 0.73025 0.20124 0.0
C150 C 0.83251 0.70104 0.16029 0.0
Zn151 Zn 0.86314 0.63672 0.2343 0.0
O152 O 0.86662 0.59392 0.09584 0.0
C153 C 0.80013 0.57708 0.25007 0.0
O154 O 0.8602 0.63546 0.09753 0.0
H155 H 0.89703 0.70594 0.31644 0.0
H156 H 0.8292 0.53505 0.13878 0.0
H157 H 0.82018 0.65236 0.14334 0.0
O158 O 0.81891 0.5662 0.2417 0.0
O159 O 0.81166 0.60721 0.24725 0.0
H160 H 0.91164 0.5637 0.29416 0.0
O161 O 0.86642 0.63733 0.36932 0.0
O162 O 0.87155 0.59449 0.36756 0.0
O163 O 0.9147 0.66532 0.22699 0.0
O164 O 0.91898 0.62213 0.22509 0.0
C165 C 0.86962 0.61613 0.40958 0.0
H166 H 0.82487 0.48397 0.10809 0.0
H167 H 0.90941 0.51208 0.26302 0.0
H168 H 0.89193 0.75401 0.29331 0.0
H169 H 0.81404 0.69864 0.11594 0.0
C170 C 0.23948 0.80268 0.50011 0.0
N171 N 0.22919 0.73203 0.33266 0.0
C172 C 0.25271 0.73232 0.38187 0.0
C173 C 0.2529 0.70428 0.39871 0.0
C174 C 0.22835 0.67511 0.3664 0.0
C175 C 0.20382 0.67489 0.31695 0.0
C176 C 0.20485 0.704 0.30009 0.0
Zn177 Zn 0.23261 0.77622 0.32432 0.0
C178 C 0.1699 0.77284 0.33092 0.0
N179 N 0.24571 0.87086 0.32688 0.0
C180 C 0.2695 0.89064 0.38211 0.0
C181 C 0.22715 0.88074 0.28632 0.0
C182 C 0.23189 0.91144 0.3028 0.0
C183 C 0.25547 0.9315 0.36261 0.0
C184 C 0.27466 0.92092 0.40118 0.0
Zn185 Zn 0.23917 0.82542 0.32101 0.0
O186 O 0.23578 0.7783 0.45974 0.0
C187 C 0.30156 0.82728 0.30421 0.0
O188 O 0.2418 0.82617 0.45777 0.0
H189 H 0.20827 0.86463 0.24293 0.0
H190 H 0.27119 0.75431 0.4106 0.0
H191 H 0.28412 0.88261 0.41386 0.0
O192 O 0.28231 0.79747 0.31194 0.0
O193 O 0.2906 0.84621 0.30846 0.0
H194 H 0.186 0.7041 0.26254 0.0
O195 O 0.23609 0.82353 0.18593 0.0
O196 O 0.2293 0.77482 0.18806 0.0
O197 O 0.18752 0.80333 0.32789 0.0
O198 O 0.18302 0.75575 0.33281 0.0
C199 C 0.23197 0.79872 0.14586 0.0
H200 H 0.27184 0.70534 0.43876 0.0
H201 H 0.18434 0.65264 0.29157 0.0
H202 H 0.21674 0.919 0.27158 0.0
H203 H 0.29342 0.93592 0.44654 0.0
H204 H 0.5213 0.33132 0.29627 0.0
H205 H 0.43059 0.24312 0.86116 0.0
H206 H 0.43259 0.24033 0.29038 0.0
H207 H 0.51952 0.33391 0.86701 0.0
H208 H 0.43083 0.24183 0.01835 0.0
H209 H 0.52112 0.33255 0.13903 0.0
C210 C 0.50179 0.31154 0.26188 0.0
C211 C 0.47687 0.28567 0.30647 0.0
C212 C 0.45028 0.26205 -0.01467 0.0
C213 C 0.47653 0.28702 0.12638 0.0
C214 C 0.45015 0.26286 0.8955 0.0
C215 C 0.4751 0.28869 0.85086 0.0
C216 C 0.47553 0.28725 0.03098 0.0
C217 C 0.49981 0.31353 0.89879 0.0
C218 C 0.50171 0.31229 0.17205 0.0
C219 C 0.45227 0.26072 0.25857 0.0
N220 N 0.49941 0.31218 -0.01364 0.0
N221 N 0.4527 0.26205 0.17099 0.0
H222 H 0.25305 0.43161 0.38182 0.0
H223 H 0.34472 0.52289 0.9506 0.0
H224 H 0.34793 0.51548 0.37957 0.0
H225 H 0.2503 0.43838 -0.04696 0.0
H226 H 0.34604 0.52101 0.1079 0.0
H227 H 0.25175 0.43361 0.22465 0.0
C228 C 0.2737 0.45036 0.34828 0.0
C229 C 0.30065 0.47345 0.39398 0.0
C230 C 0.325 0.50292 0.07407 0.0
C231 C 0.29918 0.47598 0.21392 0.0
C232 C 0.32418 0.50403 -0.01577 0.0
C233 C 0.29737 0.4807 0.93861 0.0
C234 C 0.29884 0.4783 0.11865 0.0
C235 C 0.27147 0.45683 -0.01441 0.0
C236 C 0.27289 0.45153 0.25848 0.0
C237 C 0.32667 0.49718 0.34702 0.0
N238 N 0.27289 0.45621 0.07306 0.0
N239 N 0.32525 0.49788 0.25953 0.0
H240 H 0.74645 0.20938 0.18074 0.0
H241 H 0.84792 0.23531 0.61263 0.0
H242 H 0.84358 0.22731 0.18367 0.0
H243 H 0.75062 0.21691 0.60994 0.0
H244 H 0.84693 0.23292 0.45518 0.0
H245 H 0.74742 0.21181 0.33817 0.0
C246 C 0.76793 0.21368 0.21447 0.0
C247 C 0.79498 0.21816 0.16898 0.0
C248 C 0.82582 0.22947 0.48903 0.0
C249 C 0.79632 0.22116 0.34907 0.0
C250 C 0.82639 0.2309 0.57891 0.0
C251 C 0.7993 0.22627 0.62444 0.0
C252 C 0.79795 0.22335 0.44438 0.0
C253 C 0.77207 0.22063 0.57744 0.0
C254 C 0.7685 0.21515 0.30436 0.0
C255 C 0.82217 0.22372 0.21607 0.0
N256 N 0.77207 0.21927 0.48994 0.0
N257 N 0.82216 0.22512 0.30356 0.0
H258 H 0.58198 0.85897 0.30545 0.0
H259 H 0.67172 0.85728 0.73792 0.0
H260 H 0.66685 0.8506 0.30889 0.0
H261 H 0.58695 0.86584 0.73461 0.0
H262 H 0.67046 0.85508 0.58065 0.0
H263 H 0.58319 0.86114 0.46279 0.0
C264 C 0.60081 0.85748 0.33932 0.0
C265 C 0.6244 0.85466 0.29401 0.0
C266 C 0.65216 0.8575 0.61428 0.0
C267 C 0.62598 0.85727 0.47407 0.0
C268 C 0.65289 0.85882 0.70412 0.0
C269 C 0.62937 0.86172 0.74949 0.0
C270 C 0.62773 0.85906 0.5694 0.0
C271 C 0.60557 0.8636 0.70227 0.0
C272 C 0.60152 0.85878 0.42917 0.0
C273 C 0.64821 0.85281 0.34123 0.0
N274 N 0.60533 0.86218 0.61474 0.0
N275 N 0.64842 0.85421 0.42877 0.0
H276 H 0.8742 0.5738 0.51788 0.0
H277 H 0.85757 0.65639 0.94706 0.0
H278 H 0.86507 0.65816 0.51809 0.0
H279 H 0.86786 0.57271 0.94703 0.0
H280 H 0.85968 0.65709 0.78948 0.0
H281 H 0.87201 0.57304 0.67541 0.0
C282 C 0.87187 0.59223 0.55102 0.0
C283 C 0.86979 0.61606 0.50477 0.0
C284 C 0.86143 0.63855 0.82398 0.0
C285 C 0.86709 0.61523 0.68485 0.0
C286 C 0.86015 0.6381 0.91391 0.0
C287 C 0.86261 0.6145 -0.03982 0.0
C288 C 0.86518 0.61524 0.78013 0.0
C289 C 0.86593 0.5914 0.91394 0.0
C290 C 0.87054 0.59174 0.64095 0.0
C291 C 0.86674 0.63932 0.55109 0.0
N292 N 0.86717 0.59238 0.82645 0.0
N293 N 0.86543 0.63828 0.63858 0.0
H294 H 0.22574 0.75089 0.03863 0.0
H295 H 0.24549 0.8504 0.60722 0.0
H296 H 0.23805 0.8458 0.03625 0.0
H297 H 0.23354 0.75564 0.60958 0.0
H298 H 0.24311 0.84928 0.76469 0.0
H299 H 0.22809 0.752 0.88118 0.0
C300 C 0.22879 0.77191 0.00502 0.0
C301 C 0.23174 0.79831 0.05066 0.0
C302 C 0.24106 0.82875 0.73076 0.0
C303 C 0.23463 0.7998 0.87058 0.0
C304 C 0.2425 0.82941 0.64087 0.0
C305 C 0.23965 0.80305 0.59526 0.0
C306 C 0.23674 0.80154 0.77529 0.0
C307 C 0.2358 0.77649 0.64215 0.0
C308 C 0.23021 0.77255 0.91512 0.0
C309 C 0.2357 0.82491 0.00372 0.0
N310 N 0.2344 0.77639 0.72964 0.0
N311 N 0.23708 0.82499 0.91624 0.0
H312 H 0.34235 0.13573 0.37824 0.0
H313 H 0.25512 0.95287 0.5243 0.0
H314 H 0.32606 0.1047 0.64406 0.0
H315 H 0.26845 0.98249 0.25788 0.0
H316 H 0.27385 1.00803 0.56839 0.0
H317 H 0.30876 0.08013 0.33248 0.0
C318 C 0.33123 0.11734 0.42721 0.0
C319 C 0.3373 0.12502 0.51536 0.0
C320 C 0.27229 1.00253 0.50018 0.0
C321 C 0.29917 0.06101 0.46292 0.0
C322 C 0.26151 0.97104 0.47504 0.0
C323 C 0.26055 0.9633 0.38742 0.0
C324 C 0.28262 0.02667 0.43729 0.0
C325 C 0.26887 0.98756 0.32608 0.0
C326 C 0.31218 0.0855 0.40084 0.0
C327 C 0.32257 0.09994 0.57546 0.0
N328 N 0.28006 0.01833 0.35223 0.0
N329 N 0.30446 0.06911 0.54812 0.0
H330 H 0.46595 0.38332 0.58835 0.0
H331 H 0.29635 0.37254 0.65214 0.0
H332 H 0.37635 0.29319 0.58651 0.0
H333 H 0.38841 0.4581 0.69138 0.0
H334 H 0.32401 0.34252 0.62503 0.0
H335 H 0.4367 0.41094 0.61835 0.0
C336 C 0.44005 0.36931 0.59353 0.0
C337 C 0.42362 0.33584 0.58496 0.0
C338 C 0.33804 0.36782 0.64023 0.0
C339 C 0.38982 0.36747 0.62042 0.0
C340 C 0.32228 0.38492 0.65619 0.0
C341 C 0.34006 0.41793 0.67378 0.0
C342 C 0.37176 0.38393 0.64148 0.0
C343 C 0.37363 0.43274 0.67772 0.0
C344 C 0.42333 0.38512 0.61126 0.0
C345 C 0.39001 0.31904 0.59257 0.0
N346 N 0.38831 0.41572 0.66117 0.0
N347 N 0.37418 0.33503 0.61004 0.0
H348 H 0.98224 0.32263 0.88071 0.0
H349 H 0.13201 0.3087 0.74807 0.0
H350 H 0.96599 0.22822 0.82402 0.0
H351 H 0.11567 0.38419 0.66316 0.0
H352 H 0.07538 0.27762 0.7955 0.0
H353 H 0.03729 0.34576 0.83097 0.0
C354 C 0.99041 0.30673 0.85846 0.0
C355 C 0.96935 0.27352 0.85479 0.0
C356 C 0.08425 0.30075 0.76505 0.0
C357 C 0.03253 0.29994 0.79763 0.0
C358 C 0.11632 0.3183 0.73746 0.0
C359 C 0.12846 0.34914 0.70268 0.0
C360 C 0.06484 0.31461 0.75862 0.0
C361 C 0.10734 0.36071 0.69083 0.0
C362 C 1.02177 0.31995 0.8297 0.0
C363 C 0.9815 0.25398 0.8274 0.0
N364 N 0.07681 0.34371 0.72001 0.0
N365 N 1.01242 0.26752 0.79902 0.0
H366 H 0.73015 0.96191 0.00674 0.0
H367 H 0.71418 0.11162 0.86407 0.0
H368 H 0.64304 0.96606 0.02053 0.0
H369 H 0.80619 0.12372 0.93452 0.0
H370 H 0.68886 0.05519 0.90035 0.0
H371 H 0.75965 0.01904 -0.03296 0.0
C372 C 0.71732 0.97486 0.00262 0.0
C373 C 0.68401 0.9591 0.01669 0.0
C374 C 0.71462 0.07007 0.90771 0.0
C375 C 0.71736 0.02386 -0.03047 0.0
C376 C 0.72918 0.10234 0.88638 0.0
C377 C 0.76236 0.12256 0.89713 0.0
C378 C 0.73323 0.05762 0.94 0.0
C379 C 0.78052 0.10896 0.92544 0.0
C380 C 0.73413 1.00735 -0.02044 0.0
C381 C 0.66861 0.97703 0.01004 0.0
N382 N 0.76566 0.07725 0.94655 0.0
N383 N 0.68533 1.00825 -0.01374 0.0
H384 H 0.84654 0.76992 0.31541 0.0
H385 H 0.7807 0.83687 0.94551 0.0
H386 H 0.85018 0.75349 0.04327 0.0
H387 H 0.76403 0.84043 0.21753 0.0
H388 H 0.8187 0.81898 -0.01956 0.0
H389 H 0.82904 0.80826 0.28075 0.0
C390 C 0.84442 0.77502 0.2484 0.0
C391 C 0.84923 0.75821 0.18211 0.0
C392 C 0.80715 0.82423 0.03255 0.0
C393 C 0.82895 0.80153 0.14189 0.0
C394 C 0.78565 0.83463 0.01257 0.0
C395 C 0.76885 0.83955 0.07871 0.0
C396 C 0.81184 0.81881 0.11922 0.0
C397 C 0.77606 0.83624 0.16461 0.0
C398 C 0.83424 0.7967 0.22856 0.0
C399 C 0.8461 0.76558 0.09627 0.0
N400 N 0.79668 0.82567 0.18238 0.0
N401 N 0.83574 0.78635 0.07863 0.0
H402 H 0.9699 0.71831 0.24094 0.0
H403 H 0.12715 0.70901 0.34546 0.0
H404 H 0.97523 0.63187 0.23269 0.0
H405 H 0.13176 0.79931 0.29913 0.0
H406 H 0.06988 0.68117 0.31772 0.0
H407 H 0.02787 0.74918 0.27035 0.0
C408 C 0.98325 0.70586 0.24438 0.0
C409 C 0.96759 0.67239 0.23441 0.0
C410 C 0.08327 0.70708 0.31372 0.0
C411 C 0.0336 0.70744 0.26944 0.0
C412 C 0.11608 0.7231 0.33011 0.0
C413 C 0.13445 0.75663 0.32424 0.0
C414 C 0.06835 0.72455 0.29126 0.0
C415 C 0.11854 0.77344 0.30441 0.0
C416 C 1.01627 0.72349 0.26151 0.0
C417 C 0.9861 0.65756 0.23996 0.0
N418 N 0.08634 0.75719 0.28826 0.0
N419 N 1.01794 0.67512 0.25755 0.0
H420 H 0.60616 0.46827 0.47132 0.0
H421 H 0.76825 0.51234 0.23652 0.0
H422 H 0.65786 0.41802 0.50948 0.0
H423 H 0.75577 0.59002 0.32472 0.0
H424 H 0.71847 0.47442 0.30746 0.0
H425 H 0.65385 0.51174 0.39865 0.0
C426 C 0.62762 0.46661 0.46588 0.0
C427 C 0.62782 0.43916 0.49512 0.0
C428 C 0.72644 0.49975 0.3107 0.0
C429 C 0.68153 0.48794 0.41034 0.0
C430 C 0.75476 0.52146 0.2696 0.0
C431 C 0.7665 0.55451 0.27565 0.0
C432 C 0.70934 0.51092 0.35793 0.0
C433 C 0.74762 0.56474 0.31871 0.0
C434 C 0.65462 0.49125 0.42392 0.0
C435 C 0.65625 0.43825 0.486 0.0
N436 N 0.71993 0.54296 0.35909 0.0
N437 N 0.68165 0.46193 0.44333 0.0
H438 H 0.21209 0.50273 0.60353 0.0
H439 H 0.27703 0.66409 0.33667 0.0
H440 H 0.3106 0.58027 0.60149 0.0
H441 H 0.18247 0.62041 0.4482 0.0
H442 H 0.285 0.62308 0.40432 0.0
H443 H 0.19664 0.53764 0.52667 0.0
C444 C 0.23034 0.52711 0.58819 0.0
C445 C 0.26274 0.53851 0.60873 0.0
C446 C 0.26231 0.62216 0.41318 0.0
C447 C 0.24539 0.57774 0.51892 0.0
C448 C 0.25765 0.64533 0.37392 0.0
C449 C 0.2292 0.64572 0.38768 0.0
C450 C 0.23835 0.59907 0.46664 0.0
C451 C 0.20473 0.6208 0.43613 0.0
C452 C 0.22152 0.54684 0.54401 0.0
C453 C 0.28539 0.57026 0.58689 0.0
N454 N 0.20997 0.59851 0.47502 0.0
N455 N 0.27634 0.58851 0.54237 0.0
H456 H 0.61404 0.19664 0.91496 0.0
H457 H 0.57026 0.2738 0.53217 0.0
H458 H 0.66141 0.21397 0.66855 0.0
H459 H 0.49603 0.2067 0.70235 0.0
H460 H 0.60627 0.25605 0.58758 0.0
H461 H 0.57233 0.20441 0.84676 0.0
C462 C 0.61548 0.20184 0.84655 0.0
C463 C 0.64103 0.20453 0.79712 0.0
C464 C 0.58193 0.24484 0.61176 0.0
C465 C 0.59409 0.21392 0.71959 0.0
C466 C 0.56141 0.25488 0.58005 0.0
C467 C 0.53013 0.24145 0.61228 0.0
C468 C 0.57143 0.22198 0.67817 0.0
C469 C 0.51988 0.2173 0.6751 0.0
C470 C 0.59169 0.20607 0.8077 0.0
C471 C 0.64191 0.21137 0.70872 0.0
N472 N 0.5407 0.20871 0.70733 0.0
N473 N 0.61905 0.21625 0.67303 0.0
H474 H 0.60388 0.74684 -0.04836 0.0
H475 H 0.44297 0.65499 0.68783 0.0
H476 H 0.5239 0.76239 -0.0182 0.0
H477 H 0.47932 0.59767 0.79812 0.0
H478 H 0.48501 0.70189 0.76273 0.0
H479 H 0.56821 0.69676 0.87273 0.0
C480 C 0.57883 0.7395 0.94332 0.0
C481 C 0.56697 0.75907 -0.02731 0.0
C482 C 0.48409 0.67914 0.7695 0.0
C483 C 0.5269 0.70297 0.88065 0.0
C484 C 0.46032 0.65248 0.72636 0.0
C485 C 0.45744 0.62239 0.73793 0.0
C486 C 0.50541 0.67589 0.8242 0.0
C487 C 0.48079 0.62051 0.78781 0.0
C488 C 0.55867 0.71112 0.89794 0.0
C489 C 0.53432 0.74841 -0.04027 0.0
N490 N 0.50376 0.64697 0.83031 0.0
N491 N 0.51567 0.72148 0.91348 0.0
H492 H 0.81394 0.43495 0.20428 0.0
H493 H 0.87834 0.33635 0.94589 0.0
H494 H 0.91109 0.48169 0.10958 0.0
H495 H 0.77894 0.31097 -0.04092 0.0
H496 H 0.8934 0.38708 0.01978 0.0
H497 H 0.80372 0.38514 0.13678 0.0
C498 C 0.83332 0.43448 0.17051 0.0
C499 C 0.8633 0.46245 0.1618 0.0
C500 C 0.86838 0.37043 0.0056 0.0
C501 C 0.85164 0.40563 0.08282 0.0
C502 C 0.85975 0.34161 -0.03696 0.0
C503 C 0.82728 0.3193 0.94629 0.0
C504 C 0.84431 0.37659 0.03273 0.0
C505 C 0.80424 0.32732 -0.02958 0.0
C506 C 0.8274 0.40616 0.13125 0.0
C507 C 0.88768 0.46055 0.11786 0.0
N508 N 0.81318 0.35507 0.01311 0.0
N509 N 0.88125 0.43258 0.07906 0.0
H510 H 0.44717 0.81355 0.04389 0.0
H511 H 0.34891 0.88748 0.24895 0.0
H512 H 0.49904 0.9127 0.1226 0.0
H513 H 0.33031 0.79158 0.29726 0.0
H514 H 0.4004 0.90048 0.18122 0.0
H515 H 0.39839 0.80826 0.10565 0.0
C516 C 0.44814 0.83437 0.07318 0.0
C517 C 0.47726 0.86343 0.07955 0.0
C518 C 0.38501 0.87679 0.20772 0.0
C519 C 0.42145 0.85749 0.15089 0.0
C520 C 0.35582 0.86939 0.24675 0.0
C521 C 0.33507 0.83828 0.27816 0.0
C522 C 0.3929 0.85268 0.19896 0.0
C523 C 0.3452 0.81576 0.27324 0.0
C524 C 0.42037 0.83129 0.10883 0.0
C525 C 0.47703 0.88984 0.11674 0.0
N526 N 0.37304 0.82327 0.23335 0.0
N527 N 0.44949 0.8862 0.15206 0.0
loop_
_geom_bond_atom_site_label_1
_geom_bond_atom_site_label_2
_geom_bond_distance
_geom_bond_site_symmetry_2
_ccdc_geom_bond_type
C0 O16 1.251 . S
C0 O18 1.254 . S
N1 C2 1.333 . S
N1 C6 1.307 . S
N1 Zn7 2.020 . S
C2 N1 1.333 . S
C2 C3 1.379 . S
C2 H20 0.952 . S
C3 C2 1.379 . S
C3 C4 1.390 . S
C3 H30 0.949 . S
C4 C3 1.390 . S
C4 C5 1.357 . S
C5 C4 1.357 . S
C5 C6 1.370 . S
C5 H31 0.950 . S
C6 N1 1.307 . S
C6 C5 1.370 . S
C6 H24 0.948 . S
Zn7 N1 2.020 . S
Zn7 O16 2.039 . S
Zn7 O22 2.034 . S
Zn7 O26 2.025 . S
Zn7 O28 2.024 . S
C8 O27 1.246 . S
C8 O28 1.249 . S
N9 C10 1.307 . S
N9 C11 1.333 . S
N9 Zn15 2.020 . S
C10 N9 1.307 . S
C10 C14 1.370 . S
C10 H21 0.948 . S
C11 N9 1.333 . S
C11 C12 1.379 . S
C11 H19 0.952 . S
C12 C11 1.379 . S
C12 C13 1.390 . S
C12 H32 0.949 . S
C13 C12 1.390 . S
C13 C14 1.357 . S
C14 C10 1.370 . S
C14 C13 1.357 . S
C14 H33 0.950 . S
Zn15 N9 2.020 . S
Zn15 O18 2.025 . S
Zn15 O23 2.024 . S
Zn15 O25 2.039 . S
Zn15 O27 2.034 . S
O16 C0 1.251 . S
O16 Zn7 2.039 . S
C17 O22 1.246 . S
C17 O23 1.249 . S
O18 C0 1.254 . S
O18 Zn15 2.025 . S
H19 C11 0.952 . S
H20 C2 0.952 . S
H21 C10 0.948 . S
O22 Zn7 2.034 . S
O22 C17 1.246 . S
O23 Zn15 2.024 . S
O23 C17 1.249 . S
H24 C6 0.948 . S
O25 Zn15 2.039 . S
O25 C29 1.251 . S
O26 Zn7 2.025 . S
O26 C29 1.254 . S
O27 C8 1.246 . S
O27 Zn15 2.034 . S
O28 Zn7 2.024 . S
O28 C8 1.249 . S
C29 O25 1.251 . S
C29 O26 1.254 . S
H30 C3 0.949 . S
H31 C5 0.950 . S
H32 C12 0.949 . S
H33 C14 0.950 . S
C34 O50 1.251 . S
C34 O52 1.254 . S
N35 C36 1.333 . S
N35 C40 1.307 . S
N35 Zn41 2.020 . S
C36 N35 1.333 . S
C36 C37 1.379 . S
C36 H54 0.952 . S
C37 C36 1.379 . S
C37 C38 1.390 . S
C37 H64 0.949 . S
C38 C37 1.390 . S
C38 C39 1.357 . S
C39 C38 1.357 . S
C39 C40 1.370 . S
C39 H65 0.950 . S
C40 N35 1.307 . S
C40 C39 1.370 . S
C40 H58 0.948 . S
Zn41 N35 2.020 . S
Zn41 O50 2.039 . S
Zn41 O56 2.034 . S
Zn41 O60 2.025 . S
Zn41 O62 2.024 . S
C42 O61 1.246 . S
C42 O62 1.249 . S
N43 C44 1.307 . S
N43 C45 1.333 . S
N43 Zn49 2.020 . S
C44 N43 1.307 . S
C44 C48 1.370 . S
C44 H55 0.948 . S
C45 N43 1.333 . S
C45 C46 1.379 . S
C45 H53 0.952 . S
C46 C45 1.379 . S
C46 C47 1.390 . S
C46 H66 0.949 . S
C47 C46 1.390 . S
C47 C48 1.357 . S
C48 C44 1.370 . S
C48 C47 1.357 . S
C48 H67 0.950 . S
Zn49 N43 2.020 . S
Zn49 O52 2.025 . S
Zn49 O57 2.024 . S
Zn49 O59 2.039 . S
Zn49 O61 2.034 . S
O50 C34 1.251 . S
O50 Zn41 2.039 . S
C51 O56 1.246 . S
C51 O57 1.249 . S
O52 C34 1.254 . S
O52 Zn49 2.025 . S
H53 C45 0.952 . S
H54 C36 0.952 . S
H55 C44 0.948 . S
O56 Zn41 2.034 . S
O56 C51 1.246 . S
O57 Zn49 2.024 . S
O57 C51 1.249 . S
H58 C40 0.948 . S
O59 Zn49 2.039 . S
O59 C63 1.251 . S
O60 Zn41 2.025 . S
O60 C63 1.254 . S
O61 C42 1.246 . S
O61 Zn49 2.034 . S
O62 Zn41 2.024 . S
O62 C42 1.249 . S
C63 O59 1.251 . S
C63 O60 1.254 . S
H64 C37 0.949 . S
H65 C39 0.950 . S
H66 C46 0.949 . S
H67 C48 0.950 . S
C68 O84 1.251 . S
C68 O86 1.254 . S
N69 C70 1.333 . S
N69 C74 1.307 . S
N69 Zn75 2.020 . S
C70 N69 1.333 . S
C70 C71 1.379 . S
C70 H88 0.952 . S
C71 C70 1.379 . S
C71 C72 1.390 . S
C71 H98 0.949 . S
C72 C71 1.390 . S
C72 C73 1.357 . S
C73 C72 1.357 . S
C73 C74 1.370 . S
C73 H99 0.950 1_556 S
C74 N69 1.307 . S
C74 C73 1.370 . S
C74 H92 0.948 1_556 S
Zn75 N69 2.020 . S
Zn75 O84 2.039 . S
Zn75 O90 2.034 . S
Zn75 O94 2.025 1_556 S
Zn75 O96 2.024 . S
C76 O95 1.246 . S
C76 O96 1.249 . S
N77 C78 1.307 . S
N77 C79 1.333 1_556 S
N77 Zn83 2.020 . S
C78 N77 1.307 . S
C78 C82 1.370 . S
C78 H89 0.948 . S
C79 N77 1.333 1_554 S
C79 C80 1.379 . S
C79 H87 0.952 . S
C80 C79 1.379 . S
C80 C81 1.390 1_554 S
C80 H100 0.949 . S
C81 C80 1.390 1_556 S
C81 C82 1.357 . S
C82 C78 1.370 . S
C82 C81 1.357 . S
C82 H101 0.950 . S
Zn83 N77 2.020 . S
Zn83 O86 2.025 . S
Zn83 O91 2.024 . S
Zn83 O93 2.039 1_556 S
Zn83 O95 2.034 . S
O84 C68 1.251 . S
O84 Zn75 2.039 . S
C85 O90 1.246 . S
C85 O91 1.249 . S
O86 C68 1.254 . S
O86 Zn83 2.025 . S
H87 C79 0.952 . S
H88 C70 0.952 . S
H89 C78 0.948 . S
O90 Zn75 2.034 . S
O90 C85 1.246 . S
O91 Zn83 2.024 . S
O91 C85 1.249 . S
H92 C74 0.948 1_554 S
O93 Zn83 2.039 1_554 S
O93 C97 1.251 . S
O94 Zn75 2.025 1_554 S
O94 C97 1.254 . S
O95 C76 1.246 . S
O95 Zn83 2.034 . S
O96 Zn75 2.024 . S
O96 C76 1.249 . S
C97 O93 1.251 . S
C97 O94 1.254 . S
H98 C71 0.949 . S
H99 C73 0.950 1_554 S
H100 C80 0.949 . S
H101 C82 0.950 . S
C102 O118 1.251 . S
C102 O120 1.254 . S
N103 C104 1.333 . S
N103 C108 1.307 . S
N103 Zn109 2.020 . S
C104 N103 1.333 . S
C104 C105 1.379 . S
C104 H122 0.952 . S
C105 C104 1.379 . S
C105 C106 1.390 . S
C105 H132 0.949 . S
C106 C105 1.390 . S
C106 C107 1.357 . S
C107 C106 1.357 . S
C107 C108 1.370 . S
C107 H133 0.950 1_554 S
C108 N103 1.307 . S
C108 C107 1.370 . S
C108 H126 0.948 1_554 S
Zn109 N103 2.020 . S
Zn109 O118 2.039 . S
Zn109 O124 2.034 . S
Zn109 O128 2.025 1_554 S
Zn109 O130 2.024 . S
C110 O129 1.246 . S
C110 O130 1.249 . S
N111 C112 1.307 . S
N111 C113 1.333 1_554 S
N111 Zn117 2.020 . S
C112 N111 1.307 . S
C112 C116 1.370 . S
C112 H123 0.948 . S
C113 N111 1.333 1_556 S
C113 C114 1.379 . S
C113 H121 0.952 . S
C114 C113 1.379 . S
C114 C115 1.390 1_556 S
C114 H134 0.949 . S
C115 C114 1.390 1_554 S
C115 C116 1.357 . S
C116 C112 1.370 . S
C116 C115 1.357 . S
C116 H135 0.950 . S
Zn117 N111 2.020 . S
Zn117 O120 2.025 . S
Zn117 O125 2.024 . S
Zn117 O127 2.039 1_554 S
Zn117 O129 2.034 . S
O118 C102 1.251 . S
O118 Zn109 2.039 . S
C119 O124 1.246 . S
C119 O125 1.249 . S
O120 C102 1.254 . S
O120 Zn117 2.025 . S
H121 C113 0.952 . S
H122 C104 0.952 . S
H123 C112 0.948 . S
O124 Zn109 2.034 . S
O124 C119 1.246 . S
O125 Zn117 2.024 . S
O125 C119 1.249 . S
H126 C108 0.948 1_556 S
O127 Zn117 2.039 1_556 S
O127 C131 1.251 . S
O128 Zn109 2.025 1_556 S
O128 C131 1.254 . S
O129 C110 1.246 . S
O129 Zn117 2.034 . S
O130 Zn109 2.024 . S
O130 C110 1.249 . S
C131 O127 1.251 . S
C131 O128 1.254 . S
H132 C105 0.949 . S
H133 C107 0.950 1_556 S
H134 C114 0.949 . S
H135 C116 0.950 . S
C136 O152 1.251 . S
C136 O154 1.254 . S
N137 C138 1.333 . S
N137 C142 1.307 . S
N137 Zn143 2.020 . S
C138 N137 1.333 . S
C138 C139 1.379 . S
C138 H156 0.952 . S
C139 C138 1.379 . S
C139 C140 1.390 . S
C139 H166 0.949 . S
C140 C139 1.390 . S
C140 C141 1.357 . S
C141 C140 1.357 . S
C141 C142 1.370 . S
C141 H167 0.950 . S
C142 N137 1.307 . S
C142 C141 1.370 . S
C142 H160 0.948 . S
Zn143 N137 2.020 . S
Zn143 O152 2.039 . S
Zn143 O158 2.034 . S
Zn143 O162 2.025 . S
Zn143 O164 2.024 . S
C144 O163 1.246 . S
C144 O164 1.249 . S
N145 C146 1.307 . S
N145 C147 1.333 . S
N145 Zn151 2.020 . S
C146 N145 1.307 . S
C146 C150 1.370 . S
C146 H157 0.948 . S
C147 N145 1.333 . S
C147 C148 1.379 . S
C147 H155 0.952 . S
C148 C147 1.379 . S
C148 C149 1.390 . S
C148 H168 0.949 . S
C149 C148 1.390 . S
C149 C150 1.357 . S
C150 C146 1.370 . S
C150 C149 1.357 . S
C150 H169 0.950 . S
Zn151 N145 2.020 . S
Zn151 O154 2.025 . S
Zn151 O159 2.024 . S
Zn151 O161 2.039 . S
Zn151 O163 2.034 . S
O152 C136 1.251 . S
O152 Zn143 2.039 . S
C153 O158 1.246 . S
C153 O159 1.249 . S
O154 C136 1.254 . S
O154 Zn151 2.025 . S
H155 C147 0.952 . S
H156 C138 0.952 . S
H157 C146 0.948 . S
O158 Zn143 2.034 . S
O158 C153 1.246 . S
O159 Zn151 2.024 . S
O159 C153 1.249 . S
H160 C142 0.948 . S
O161 Zn151 2.039 . S
O161 C165 1.251 . S
O162 Zn143 2.025 . S
O162 C165 1.254 . S
O163 C144 1.246 . S
O163 Zn151 2.034 . S
O164 Zn143 2.024 . S
O164 C144 1.249 . S
C165 O161 1.251 . S
C165 O162 1.254 . S
H166 C139 0.949 . S
H167 C141 0.950 . S
H168 C148 0.949 . S
H169 C150 0.950 . S
C170 O186 1.251 . S
C170 O188 1.254 . S
N171 C172 1.333 . S
N171 C176 1.307 . S
N171 Zn177 2.020 . S
C172 N171 1.333 . S
C172 C173 1.379 . S
C172 H190 0.952 . S
C173 C172 1.379 . S
C173 C174 1.390 . S
C173 H200 0.949 . S
C174 C173 1.390 . S
C174 C175 1.357 . S
C175 C174 1.357 . S
C175 C176 1.370 . S
C175 H201 0.950 . S
C176 N171 1.307 . S
C176 C175 1.370 . S
C176 H194 0.948 . S
Zn177 N171 2.020 . S
Zn177 O186 2.039 . S
Zn177 O192 2.034 . S
Zn177 O196 2.025 . S
Zn177 O198 2.024 . S
C178 O197 1.246 . S
C178 O198 1.249 . S
N179 C180 1.307 . S
N179 C181 1.333 . S
N179 Zn185 2.020 . S
C180 N179 1.307 . S
C180 C184 1.370 . S
C180 H191 0.948 . S
C181 N179 1.333 . S
C181 C182 1.379 . S
C181 H189 0.952 . S
C182 C181 1.379 . S
C182 C183 1.390 . S
C182 H202 0.949 . S
C183 C182 1.390 . S
C183 C184 1.357 . S
C184 C180 1.370 . S
C184 C183 1.357 . S
C184 H203 0.950 . S
Zn185 N179 2.020 . S
Zn185 O188 2.025 . S
Zn185 O193 2.024 . S
Zn185 O195 2.039 . S
Zn185 O197 2.034 . S
O186 C170 1.251 . S
O186 Zn177 2.039 . S
C187 O192 1.246 . S
C187 O193 1.249 . S
O188 C170 1.254 . S
O188 Zn185 2.025 . S
H189 C181 0.952 . S
H190 C172 0.952 . S
H191 C180 0.948 . S
O192 Zn177 2.034 . S
O192 C187 1.246 . S
O193 Zn185 2.024 . S
O193 C187 1.249 . S
H194 C176 0.948 . S
O195 Zn185 2.039 . S
O195 C199 1.251 . S
O196 Zn177 2.025 . S
O196 C199 1.254 . S
O197 C178 1.246 . S
O197 Zn185 2.034 . S
O198 Zn177 2.024 . S
O198 C178 1.249 . S
C199 O195 1.251 . S
C199 O196 1.254 . S
H200 C173 0.949 . S
H201 C175 0.950 . S
H202 C182 0.949 . S
H203 C184 0.950 . S
H204 C210 0.930 . S
H205 C214 0.930 . S
H206 C219 0.929 . S
H207 C217 0.929 . S
H208 C212 0.929 . S
H209 C218 0.929 . S
C210 H204 0.930 . S
C210 C211 1.367 . S
C210 C218 1.378 . S
C211 C210 1.367 . S
C211 C219 1.433 . S
C212 H208 0.929 . S
C212 C214 1.378 1_554 S
C212 C216 1.350 . S
C213 C216 1.463 . S
C213 C218 1.350 . S
C213 N221 1.427 . S
C214 H205 0.930 . S
C214 C212 1.378 1_556 S
C214 C215 1.367 . S
C215 C214 1.367 . S
C215 C217 1.433 . S
C216 C212 1.350 . S
C216 C213 1.463 . S
C216 N220 1.427 . S
C217 H207 0.929 . S
C217 C215 1.433 . S
C217 N220 1.384 1_556 S
C218 H209 0.929 . S
C218 C210 1.378 . S
C218 C213 1.350 . S
C219 H206 0.929 . S
C219 C211 1.433 . S
C219 N221 1.384 . S
N220 C216 1.427 . S
N220 C217 1.384 1_554 S
N221 C213 1.427 . S
N221 C219 1.384 . S
H222 C228 0.930 . S
H223 C232 0.930 1_556 S
H224 C237 0.929 . S
H225 C235 0.929 1_556 S
H226 C230 0.929 . S
H227 C236 0.929 . S
C228 H222 0.930 . S
C228 C229 1.367 . S
C228 C236 1.378 . S
C229 C228 1.367 . S
C229 C237 1.433 . S
C230 H226 0.929 . S
C230 C232 1.378 . S
C230 C234 1.350 . S
C231 C234 1.463 . S
C231 C236 1.350 . S
C231 N239 1.427 . S
C232 H223 0.930 1_554 S
C232 C230 1.378 . S
C232 C233 1.367 1_554 S
C233 C232 1.367 1_556 S
C233 C235 1.433 1_556 S
C234 C230 1.350 . S
C234 C231 1.463 . S
C234 N238 1.427 . S
C235 H225 0.929 1_554 S
C235 C233 1.433 1_554 S
C235 N238 1.384 . S
C236 H227 0.929 . S
C236 C228 1.378 . S
C236 C231 1.350 . S
C237 H224 0.929 . S
C237 C229 1.433 . S
C237 N239 1.384 . S
N238 C234 1.427 . S
N238 C235 1.384 . S
N239 C231 1.427 . S
N239 C237 1.384 . S
H240 C246 0.930 . S
H241 C250 0.930 . S
H242 C255 0.929 . S
H243 C253 0.929 . S
H244 C248 0.929 . S
H245 C254 0.929 . S
C246 H240 0.930 . S
C246 C247 1.367 . S
C246 C254 1.378 . S
C247 C246 1.367 . S
C247 C255 1.433 . S
C248 H244 0.929 . S
C248 C250 1.378 . S
C248 C252 1.350 . S
C249 C252 1.463 . S
C249 C254 1.350 . S
C249 N257 1.427 . S
C250 H241 0.930 . S
C250 C248 1.378 . S
C250 C251 1.367 . S
C251 C250 1.367 . S
C251 C253 1.433 . S
C252 C248 1.350 . S
C252 C249 1.463 . S
C252 N256 1.427 . S
C253 H243 0.929 . S
C253 C251 1.433 . S
C253 N256 1.384 . S
C254 H245 0.929 . S
C254 C246 1.378 . S
C254 C249 1.350 . S
C255 H242 0.929 . S
C255 C247 1.433 . S
C255 N257 1.384 . S
N256 C252 1.427 . S
N256 C253 1.384 . S
N257 C249 1.427 . S
N257 C255 1.384 . S
H258 C264 0.930 . S
H259 C268 0.930 . S
H260 C273 0.929 . S
H261 C271 0.929 . S
H262 C266 0.929 . S
H263 C272 0.929 . S
C264 H258 0.930 . S
C264 C265 1.367 . S
C264 C272 1.378 . S
C265 C264 1.367 . S
C265 C273 1.433 . S
C266 H262 0.929 . S
C266 C268 1.378 . S
C266 C270 1.350 . S
C267 C270 1.463 . S
C267 C272 1.350 . S
C267 N275 1.427 . S
C268 H259 0.930 . S
C268 C266 1.378 . S
C268 C269 1.367 . S
C269 C268 1.367 . S
C269 C271 1.433 . S
C270 C266 1.350 . S
C270 C267 1.463 . S
C270 N274 1.427 . S
C271 H261 0.929 . S
C271 C269 1.433 . S
C271 N274 1.384 . S
C272 H263 0.929 . S
C272 C264 1.378 . S
C272 C267 1.350 . S
C273 H260 0.929 . S
C273 C265 1.433 . S
C273 N275 1.384 . S
N274 C270 1.427 . S
N274 C271 1.384 . S
N275 C267 1.427 . S
N275 C273 1.384 . S
H276 C282 0.930 . S
H277 C286 0.930 1_554 S
H278 C291 0.929 . S
H279 C289 0.929 1_554 S
H280 C284 0.929 . S
H281 C290 0.929 . S
C282 H276 0.930 . S
C282 C283 1.367 . S
C282 C290 1.378 . S
C283 C282 1.367 . S
C283 C291 1.433 . S
C284 H280 0.929 . S
C284 C286 1.378 . S
C284 C288 1.350 . S
C285 C288 1.463 . S
C285 C290 1.350 . S
C285 N293 1.427 . S
C286 H277 0.930 1_556 S
C286 C284 1.378 . S
C286 C287 1.367 1_556 S
C287 C286 1.367 1_554 S
C287 C289 1.433 1_554 S
C288 C284 1.350 . S
C288 C285 1.463 . S
C288 N292 1.427 . S
C289 H279 0.929 1_556 S
C289 C287 1.433 1_556 S
C289 N292 1.384 . S
C290 H281 0.929 . S
C290 C282 1.378 . S
C290 C285 1.350 . S
C291 H278 0.929 . S
C291 C283 1.433 . S
C291 N293 1.384 . S
N292 C288 1.427 . S
N292 C289 1.384 . S
N293 C285 1.427 . S
N293 C291 1.384 . S
H294 C300 0.930 . S
H295 C304 0.930 . S
H296 C309 0.929 . S
H297 C307 0.929 . S
H298 C302 0.929 . S
H299 C308 0.929 . S
C300 H294 0.930 . S
C300 C301 1.367 . S
C300 C308 1.378 1_554 S
C301 C300 1.367 . S
C301 C309 1.433 . S
C302 H298 0.929 . S
C302 C304 1.378 . S
C302 C306 1.350 . S
C303 C306 1.463 . S
C303 C308 1.350 . S
C303 N311 1.427 . S
C304 H295 0.930 . S
C304 C302 1.378 . S
C304 C305 1.367 . S
C305 C304 1.367 . S
C305 C307 1.433 . S
C306 C302 1.350 . S
C306 C303 1.463 . S
C306 N310 1.427 . S
C307 H297 0.929 . S
C307 C305 1.433 . S
C307 N310 1.384 . S
C308 H299 0.929 . S
C308 C300 1.378 1_556 S
C308 C303 1.350 . S
C309 H296 0.929 . S
C309 C301 1.433 . S
C309 N311 1.384 1_554 S
N310 C306 1.427 . S
N310 C307 1.384 . S
N311 C303 1.427 . S
N311 C309 1.384 1_556 S
H312 C318 0.930 . S
H313 C322 0.930 . S
H314 C327 0.929 . S
H315 C325 0.929 . S
H316 C320 0.929 . S
H317 C326 0.929 . S
C318 H312 0.930 . S
C318 C319 1.367 . S
C318 C326 1.378 . S
C319 C318 1.367 . S
C319 C327 1.433 . S
C320 H316 0.929 . S
C320 C322 1.378 . S
C320 C324 1.350 1_565 S
C321 C324 1.463 . S
C321 C326 1.350 . S
C321 N329 1.427 . S
C322 H313 0.930 . S
C322 C320 1.378 . S
C322 C323 1.367 . S
C323 C322 1.367 . S
C323 C325 1.433 . S
C324 C320 1.350 1_545 S
C324 C321 1.463 . S
C324 N328 1.427 . S
C325 H315 0.929 . S
C325 C323 1.433 . S
C325 N328 1.384 1_565 S
C326 H317 0.929 . S
C326 C318 1.378 . S
C326 C321 1.350 . S
C327 H314 0.929 . S
C327 C319 1.433 . S
C327 N329 1.384 . S
N328 C324 1.427 . S
N328 C325 1.384 1_545 S
N329 C321 1.427 . S
N329 C327 1.384 . S
H330 C336 0.930 . S
H331 C340 0.930 . S
H332 C345 0.929 . S
H333 C343 0.929 . S
H334 C338 0.929 . S
H335 C344 0.929 . S
C336 H330 0.930 . S
C336 C337 1.367 . S
C336 C344 1.378 . S
C337 C336 1.367 . S
C337 C345 1.433 . S
C338 H334 0.929 . S
C338 C340 1.378 . S
C338 C342 1.350 . S
C339 C342 1.463 . S
C339 C344 1.350 . S
C339 N347 1.427 . S
C340 H331 0.930 . S
C340 C338 1.378 . S
C340 C341 1.367 . S
C341 C340 1.367 . S
C341 C343 1.433 . S
C342 C338 1.350 . S
C342 C339 1.463 . S
C342 N346 1.427 . S
C343 H333 0.929 . S
C343 C341 1.433 . S
C343 N346 1.384 . S
C344 H335 0.929 . S
C344 C336 1.378 . S
C344 C339 1.350 . S
C345 H332 0.929 . S
C345 C337 1.433 . S
C345 N347 1.384 . S
N346 C342 1.427 . S
N346 C343 1.384 . S
N347 C339 1.427 . S
N347 C345 1.384 . S
H348 C354 0.930 . S
H349 C358 0.930 . S
H350 C363 0.929 . S
H351 C361 0.929 . S
H352 C356 0.929 . S
H353 C362 0.929 1_455 S
C354 H348 0.930 . S
C354 C355 1.367 . S
C354 C362 1.378 . S
C355 C354 1.367 . S
C355 C363 1.433 . S
C356 H352 0.929 . S
C356 C358 1.378 . S
C356 C360 1.350 . S
C357 C360 1.463 . S
C357 C362 1.350 1_455 S
C357 N365 1.427 1_455 S
C358 H349 0.930 . S
C358 C356 1.378 . S
C358 C359 1.367 . S
C359 C358 1.367 . S
C359 C361 1.433 . S
C360 C356 1.350 . S
C360 C357 1.463 . S
C360 N364 1.427 . S
C361 H351 0.929 . S
C361 C359 1.433 . S
C361 N364 1.384 . S
C362 H353 0.929 1_655 S
C362 C354 1.378 . S
C362 C357 1.350 1_655 S
C363 H350 0.929 . S
C363 C355 1.433 . S
C363 N365 1.382 . S
N364 C360 1.427 . S
N364 C361 1.384 . S
N365 C357 1.427 1_655 S
N365 C363 1.382 . S
H366 C372 0.930 . S
H367 C376 0.930 . S
H368 C381 0.929 . S
H369 C379 0.929 . S
H370 C374 0.929 . S
H371 C380 0.929 . S
C372 H366 0.930 . S
C372 C373 1.367 . S
C372 C380 1.378 1_565 S
C373 C372 1.367 . S
C373 C381 1.433 1_554 S
C374 H370 0.929 . S
C374 C376 1.378 . S
C374 C378 1.350 . S
C375 C378 1.463 1_554 S
C375 C380 1.350 . S
C375 N383 1.427 1_544 S
C376 H367 0.930 . S
C376 C374 1.378 . S
C376 C377 1.367 . S
C377 C376 1.367 . S
C377 C379 1.433 1_556 S
C378 C374 1.350 . S
C378 C375 1.463 1_556 S
C378 N382 1.427 1_556 S
C379 H369 0.929 . S
C379 C377 1.433 1_554 S
C379 N382 1.384 . S
C380 H371 0.929 . S
C380 C372 1.378 1_545 S
C380 C375 1.350 . S
C381 H368 0.929 . S
C381 C373 1.433 1_556 S
C381 N383 1.384 . S
N382 C378 1.427 1_554 S
N382 C379 1.384 . S
N383 C375 1.427 1_566 S
N383 C381 1.384 . S
H384 C390 0.930 . S
H385 C394 0.930 1_556 S
H386 C399 0.929 . S
H387 C397 0.929 . S
H388 C392 0.929 . S
H389 C398 0.929 . S
C390 H384 0.930 . S
C390 C391 1.367 . S
C390 C398 1.378 . S
C391 C390 1.367 . S
C391 C399 1.433 . S
C392 H388 0.929 . S
C392 C394 1.378 . S
C392 C396 1.350 . S
C393 C396 1.463 . S
C393 C398 1.350 . S
C393 N401 1.427 . S
C394 H385 0.930 1_554 S
C394 C392 1.378 . S
C394 C395 1.367 . S
C395 C394 1.367 . S
C395 C397 1.433 . S
C396 C392 1.350 . S
C396 C393 1.463 . S
C396 N400 1.427 . S
C397 H387 0.929 . S
C397 C395 1.433 . S
C397 N400 1.384 . S
C398 H389 0.929 . S
C398 C390 1.378 . S
C398 C393 1.350 . S
C399 H386 0.929 . S
C399 C391 1.433 . S
C399 N401 1.384 . S
N400 C396 1.427 . S
N400 C397 1.384 . S
N401 C393 1.427 . S
N401 C399 1.384 . S
H402 C408 0.930 . S
H403 C412 0.930 . S
H404 C417 0.929 . S
H405 C415 0.929 . S
H406 C410 0.929 . S
H407 C416 0.929 1_455 S
C408 H402 0.930 . S
C408 C409 1.367 . S
C408 C416 1.378 . S
C409 C408 1.367 . S
C409 C417 1.433 . S
C410 H406 0.929 . S
C410 C412 1.378 . S
C410 C414 1.350 . S
C411 C414 1.463 . S
C411 C416 1.350 1_455 S
C411 N419 1.427 1_455 S
C412 H403 0.930 . S
C412 C410 1.378 . S
C412 C413 1.367 . S
C413 C412 1.367 . S
C413 C415 1.433 . S
C414 C410 1.350 . S
C414 C411 1.463 . S
C414 N418 1.427 . S
C415 H405 0.929 . S
C415 C413 1.433 . S
C415 N418 1.384 . S
C416 H407 0.929 1_655 S
C416 C408 1.378 . S
C416 C411 1.350 1_655 S
C417 H404 0.929 . S
C417 C409 1.433 . S
C417 N419 1.384 . S
N418 C414 1.427 . S
N418 C415 1.384 . S
N419 C411 1.427 1_655 S
N419 C417 1.384 . S
H420 C426 0.930 . S
H421 C430 0.930 . S
H422 C435 0.929 . S
H423 C433 0.929 . S
H424 C428 0.929 . S
H425 C434 0.929 . S
C426 H420 0.930 . S
C426 C427 1.367 . S
C426 C434 1.378 . S
C427 C426 1.367 . S
C427 C435 1.433 . S
C428 H424 0.929 . S
C428 C430 1.378 . S
C428 C432 1.350 . S
C429 C432 1.463 . S
C429 C434 1.350 . S
C429 N437 1.427 . S
C430 H421 0.930 . S
C430 C428 1.378 . S
C430 C431 1.367 . S
C431 C430 1.367 . S
C431 C433 1.433 . S
C432 C428 1.350 . S
C432 C429 1.463 . S
C432 N436 1.427 . S
C433 H423 0.929 . S
C433 C431 1.433 . S
C433 N436 1.384 . S
C434 H425 0.929 . S
C434 C426 1.378 . S
C434 C429 1.350 . S
C435 H422 0.929 . S
C435 C427 1.433 . S
C435 N437 1.384 . S
N436 C432 1.427 . S
N436 C433 1.384 . S
N437 C429 1.427 . S
N437 C435 1.384 . S
H438 C444 0.930 . S
H439 C448 0.930 . S
H440 C453 0.929 . S
H441 C451 0.929 . S
H442 C446 0.929 . S
H443 C452 0.929 . S
C444 H438 0.930 . S
C444 C445 1.367 . S
C444 C452 1.378 . S
C445 C444 1.367 . S
C445 C453 1.433 . S
C446 H442 0.929 . S
C446 C448 1.378 . S
C446 C450 1.350 . S
C447 C450 1.463 . S
C447 C452 1.350 . S
C447 N455 1.427 . S
C448 H439 0.930 . S
C448 C446 1.378 . S
C448 C449 1.367 . S
C449 C448 1.367 . S
C449 C451 1.433 . S
C450 C446 1.350 . S
C450 C447 1.463 . S
C450 N454 1.427 . S
C451 H441 0.929 . S
C451 C449 1.433 . S
C451 N454 1.384 . S
C452 H443 0.929 . S
C452 C444 1.378 . S
C452 C447 1.350 . S
C453 H440 0.929 . S
C453 C445 1.433 . S
C453 N455 1.384 . S
N454 C450 1.427 . S
N454 C451 1.384 . S
N455 C447 1.427 . S
N455 C453 1.384 . S
H456 C462 0.930 . S
H457 C466 0.930 . S
H458 C471 0.929 . S
H459 C469 0.929 . S
H460 C464 0.929 . S
H461 C470 0.929 . S
C462 H456 0.930 . S
C462 C463 1.367 . S
C462 C470 1.378 . S
C463 C462 1.367 . S
C463 C471 1.433 . S
C464 H460 0.929 . S
C464 C466 1.378 . S
C464 C468 1.350 . S
C465 C468 1.463 . S
C465 C470 1.350 . S
C465 N473 1.427 . S
C466 H457 0.930 . S
C466 C464 1.378 . S
C466 C467 1.367 . S
C467 C466 1.367 . S
C467 C469 1.433 . S
C468 C464 1.350 . S
C468 C465 1.463 . S
C468 N472 1.427 . S
C469 H459 0.929 . S
C469 C467 1.433 . S
C469 N472 1.384 . S
C470 H461 0.929 . S
C470 C462 1.378 . S
C470 C465 1.350 . S
C471 H458 0.929 . S
C471 C463 1.433 . S
C471 N473 1.384 . S
N472 C468 1.427 . S
N472 C469 1.384 . S
N473 C465 1.427 . S
N473 C471 1.384 . S
H474 C480 0.930 . S
H475 C484 0.930 . S
H476 C489 0.929 1_554 S
H477 C487 0.929 . S
H478 C482 0.929 . S
H479 C488 0.929 . S
C480 H474 0.930 . S
C480 C481 1.367 1_556 S
C480 C488 1.378 . S
C481 C480 1.367 1_554 S
C481 C489 1.433 1_554 S
C482 H478 0.929 . S
C482 C484 1.378 . S
C482 C486 1.350 . S
C483 C486 1.463 . S
C483 C488 1.350 . S
C483 N491 1.427 . S
C484 H475 0.930 . S
C484 C482 1.378 . S
C484 C485 1.367 . S
C485 C484 1.367 . S
C485 C487 1.433 . S
C486 C482 1.350 . S
C486 C483 1.463 . S
C486 N490 1.427 . S
C487 H477 0.929 . S
C487 C485 1.433 . S
C487 N490 1.384 . S
C488 H479 0.929 . S
C488 C480 1.378 . S
C488 C483 1.350 . S
C489 H476 0.929 1_556 S
C489 C481 1.433 1_556 S
C489 N491 1.384 . S
N490 C486 1.427 . S
N490 C487 1.384 . S
N491 C483 1.427 . S
N491 C489 1.384 . S
H492 C498 0.930 . S
H493 C502 0.930 1_556 S
H494 C507 0.929 . S
H495 C505 0.929 . S
H496 C500 0.929 . S
H497 C506 0.929 . S
C498 H492 0.930 . S
C498 C499 1.367 . S
C498 C506 1.378 . S
C499 C498 1.367 . S
C499 C507 1.433 . S
C500 H496 0.929 . S
C500 C502 1.378 . S
C500 C504 1.350 . S
C501 C504 1.463 . S
C501 C506 1.350 . S
C501 N509 1.427 . S
C502 H493 0.930 1_554 S
C502 C500 1.378 . S
C502 C503 1.367 1_554 S
C503 C502 1.367 1_556 S
C503 C505 1.433 1_556 S
C504 C500 1.350 . S
C504 C501 1.463 . S
C504 N508 1.427 . S
C505 H495 0.929 . S
C505 C503 1.433 1_554 S
C505 N508 1.384 . S
C506 H497 0.929 . S
C506 C498 1.378 . S
C506 C501 1.350 . S
C507 H494 0.929 . S
C507 C499 1.433 . S
C507 N509 1.384 . S
N508 C504 1.427 . S
N508 C505 1.384 . S
N509 C501 1.427 . S
N509 C507 1.384 . S
H510 C516 0.930 . S
H511 C520 0.930 . S
H512 C525 0.929 . S
H513 C523 0.929 . S
H514 C518 0.929 . S
H515 C524 0.929 . S
C516 H510 0.930 . S
C516 C517 1.367 . S
C516 C524 1.378 . S
C517 C516 1.367 . S
C517 C525 1.433 . S
C518 H514 0.929 . S
C518 C520 1.378 . S
C518 C522 1.350 . S
C519 C522 1.463 . S
C519 C524 1.350 . S
C519 N527 1.427 . S
C520 H511 0.930 . S
C520 C518 1.378 . S
C520 C521 1.367 . S
C521 C520 1.367 . S
C521 C523 1.433 . S
C522 C518 1.350 . S
C522 C519 1.463 . S
C522 N526 1.427 . S
C523 H513 0.929 . S
C523 C521 1.433 . S
C523 N526 1.384 . S
C524 H515 0.929 . S
C524 C516 1.378 . S
C524 C519 1.350 . S
C525 H512 0.929 . S
C525 C517 1.433 . S
C525 N527 1.384 . S
N526 C522 1.427 . S
N526 C523 1.384 . S
N527 C519 1.427 . S
N527 C525 1.384 . S
C211 C0 0.972 . S
C215 C29 0.972 . S
C229 C63 0.972 . S
C233 C34 0.972 . S
C247 C97 0.972 . S
C251 C68 0.972 . S
C265 C102 0.973 . S
C269 C131 0.973 . S
C283 C165 0.972 . S
C287 C136 0.972 . S
C301 C199 0.972 . S
C305 C170 0.972 . S
C319 C13 1.728 . S
C323 C183 1.733 . S
C337 C8 1.807 . S
C341 C42 1.808 . S
C355 C81 1.731 . S
C359 C47 1.738 . S
C373 C110 1.808 . S
C377 C76 1.805 . S
C391 C149 1.743 . S
C395 C115 1.739 . S
C409 C144 1.806 . S
C413 C178 1.800 . S
C427 C4 1.951 . S
C431 C153 2.022 . S
C445 C51 2.025 . S
C449 C174 1.951 . S
C463 C72 1.957 . S
C467 C17 2.026 . S
C481 C119 2.022 . S
C485 C38 1.946 . S
C499 C140 1.946 . S
C503 C85 2.023 . S
C517 C106 1.945 . S
C521 C187 2.022 . S
