# Generated by pormake.
# Topology bcg, (8)-cn, num edge types: 1
# Building blocks:
#     Node 0, Type 0, BuildingBlock: AJUNOK_clean_sbu_0, # of connection points: 8
#     Node 1, Type 0, BuildingBlock: AJUNOK_clean_sbu_0, # of connection points: 8
#     Node 2, Type 0, BuildingBlock: AJUNOK_clean_sbu_0, # of connection points: 8
#     Node 3, Type 0, BuildingBlock: AJUNOK_clean_sbu_0, # of connection points: 8
#     Edge 4, Type (0, 0), BuildingBlock: FUNLAD_clean_linker_1, # of connection points: 2
#     Edge 5, Type (0, 0), BuildingBlock: FUNLAD_clean_linker_1, # of connection points: 2
#     Edge 6, Type (0, 0), BuildingBlock: FUNLAD_clean_linker_1, # of connection points: 2
#     Edge 7, Type (0, 0), BuildingBlock: FUNLAD_clean_linker_1, # of connection points: 2
#     Edge 8, Type (0, 0), BuildingBlock: FUNLAD_clean_linker_1, # of connection points: 2
#     Edge 9, Type (0, 0), BuildingBlock: FUNLAD_clean_linker_1, # of connection points: 2
#     Edge 10, Type (0, 0), BuildingBlock: FUNLAD_clean_linker_1, # of connection points: 2
#     Edge 11, Type (0, 0), BuildingBlock: FUNLAD_clean_linker_1, # of connection points: 2
#     Edge 12, Type (0, 0), BuildingBlock: FUNLAD_clean_linker_1, # of connection points: 2
#     Edge 13, Type (0, 0), BuildingBlock: FUNLAD_clean_linker_1, # of connection points: 2
#     Edge 14, Type (0, 0), BuildingBlock: FUNLAD_clean_linker_1, # of connection points: 2
#     Edge 15, Type (0, 0), BuildingBlock: FUNLAD_clean_linker_1, # of connection points: 2
#     Edge 16, Type (0, 0), BuildingBlock: FUNLAD_clean_linker_1, # of connection points: 2
#     Edge 17, Type (0, 0), BuildingBlock: FUNLAD_clean_linker_1, # of connection points: 2
#     Edge 18, Type (0, 0), BuildingBlock: FUNLAD_clean_linker_1, # of connection points: 2
#     Edge 19, Type (0, 0), BuildingBlock: FUNLAD_clean_linker_1, # of connection points: 2
# Relax obj value: 0.150
# Max RMSD: 0.195
# Mean RMSD: 0.195
data_MOF--net-bcg--node1-AJUNOK_clean_sbu_0--edge1-FUNLAD_clean_linker_1
_symmetry_space_group_name_H-M    P1
_symmetry_Int_Tables_number       1
_symmetry_cell_setting            triclinic
loop_
_symmetry_equiv_pos_as_xyz
'x, y, z'
_cell_length_a     17.436815
_cell_length_b     26.133884
_cell_length_c     39.099143
_cell_angle_alpha  89.708208
_cell_angle_beta   89.724709
_cell_angle_gamma 91.196662
loop_
_atom_site_label
_atom_site_type_symbol
_atom_site_fract_x
_atom_site_fract_y
_atom_site_fract_z
_atom_type_partial_charge
Cd0 Cd 0.1149 0.32085 0.01818 0.0
Cd1 Cd 0.30502 0.2315 0.02384 0.0
C2 C 0.15483 0.33848 0.09915 0.0
N3 N 0.11701 0.30633 0.07743 0.0
C4 C 0.05477 0.26346 0.1244 0.0
C5 C 0.08981 0.29769 0.1474 0.0
C6 C 0.14249 0.33444 0.13453 0.0
C7 C 0.0684 0.26897 0.08947 0.0
H8 H 0.19211 0.36852 0.089 0.0
H9 H 0.03682 0.24494 0.07187 0.0
C10 C 0.12951 0.17975 0.02046 0.0
C11 C 0.2569 0.2162 0.94348 0.0
C12 C 0.26536 0.22075 0.90789 0.0
C13 C 0.31788 0.25719 0.89416 0.0
C14 C 0.35885 0.28876 0.91682 0.0
C15 C 0.34961 0.28236 0.95198 0.0
N16 N 0.29884 0.24688 0.9647 0.0
H17 H 0.21863 0.18711 0.95411 0.0
H18 H 0.38568 0.30438 0.96908 0.0
C19 C 0.24258 0.20761 0.10242 0.0
N20 N 0.28313 0.24177 0.08268 0.0
C21 C 0.32942 0.28511 0.13243 0.0
C22 C 0.2919 0.24876 0.15356 0.0
C23 C 0.24562 0.2108 0.13818 0.0
C24 C 0.32499 0.28045 0.09703 0.0
H25 H 0.21074 0.17655 0.0906 0.0
H26 H 0.35806 0.30658 0.08103 0.0
C27 C 0.29161 0.37253 0.01976 0.0
C28 C -0.03579 0.35962 1.01229 0.0
N29 N 0.11682 0.2961 0.96073 0.0
C30 C 0.15845 0.32389 0.93741 0.0
C31 C 0.14561 0.31734 0.90234 0.0
C32 C 0.08865 0.28214 0.89134 0.0
C33 C 0.04862 0.25305 0.91607 0.0
C34 C 0.06257 0.26125 0.95065 0.0
C35 C 0.4567 0.19414 0.02443 0.0
O36 O 0.11035 0.22631 0.01914 0.0
O37 O 0.19963 0.16832 0.02301 0.0
O38 O 0.31131 0.32607 0.02143 0.0
O39 O 0.22118 0.38367 0.01816 0.0
O40 O -0.01126 0.34182 0.04009 0.0
O41 O 0.01265 0.36571 0.98845 0.0
O42 O 0.40387 0.16732 1.01085 0.0
O43 O 0.43691 0.23493 0.03893 0.0
H44 H 0.19935 0.35264 0.94606 0.0
H45 H 0.0265 0.2419 0.96939 0.0
H46 H 0.01567 0.23334 0.13304 0.0
H47 H 0.1713 0.36113 0.15152 0.0
H48 H 0.23173 0.19555 0.89176 0.0
H49 H 0.40016 0.31704 0.90741 0.0
H50 H 0.3634 0.31632 0.14292 0.0
H51 H 0.21506 0.18246 0.15363 0.0
H52 H 0.17918 0.34028 0.88447 0.0
H53 H 0.0038 0.22594 0.90881 0.0
Cd54 Cd 0.58272 0.81111 0.02224 0.0
Cd55 Cd 0.84441 0.73245 0.02697 0.0
C56 C 0.57196 0.8121 0.10435 0.0
N57 N 0.53786 0.79057 0.07663 0.0
C58 C 0.43773 0.75421 0.1115 0.0
C59 C 0.47039 0.77684 0.14059 0.0
C60 C 0.53908 0.80574 0.13681 0.0
C61 C 0.47259 0.76152 0.0796 0.0
H62 H 0.62309 0.83582 0.10103 0.0
H63 H 0.44612 0.74553 0.05701 0.0
C64 C 0.67141 0.6891 0.02242 0.0
C65 C 0.82498 0.68982 0.94804 0.0
C66 C 0.84498 0.68458 0.91352 0.0
C67 C 0.91092 0.70997 0.90074 0.0
C68 C 0.95347 0.7419 0.92261 0.0
C69 C 0.93059 0.74688 0.95653 0.0
N70 N 0.86841 0.72026 0.9688 0.0
H71 H 0.77498 0.66971 0.95814 0.0
H72 H -0.03744 0.77234 0.97309 0.0
C73 C 0.88029 0.66992 0.09532 0.0
N74 N 0.83091 0.70483 0.08287 0.0
C75 C 0.79247 0.72789 0.1393 0.0
C76 C 0.84797 0.69557 0.15291 0.0
C77 C 0.88952 0.66438 0.13056 0.0
C78 C 0.78538 0.73241 0.10387 0.0
H79 H 0.91629 0.649 0.07793 0.0
H80 H 0.74769 0.76059 0.0931 0.0
C81 C 0.76168 0.85691 0.02383 0.0
C82 C 0.47898 0.88907 1.00763 0.0
N83 N 0.54202 0.77204 0.97231 0.0
C84 C 0.581 0.78301 0.94297 0.0
C85 C 0.54716 0.77312 0.91133 0.0
C86 C 0.47213 0.75199 0.91005 0.0
C87 C 0.43544 0.73844 0.9409 0.0
C88 C 0.47153 0.74887 0.97192 0.0
C89 C -0.00161 0.76087 0.04055 0.0
O90 O 0.66951 0.73766 0.02265 0.0
O91 O 0.73698 0.66847 0.02351 0.0
O92 O 0.76907 0.80894 0.02465 0.0
O93 O 0.69392 0.87371 0.0232 0.0
O94 O 0.45671 0.84502 0.01803 0.0
O95 O 0.55086 0.89722 1.00453 0.0
O96 O 0.94319 0.79112 0.04501 0.0
O97 O -0.01778 0.71557 0.03053 0.0
H98 H 0.636 0.80285 0.94417 0.0
H99 H 0.44098 0.74185 0.99565 0.0
H100 H 0.38463 0.73205 0.11329 0.0
H101 H 0.56563 0.82524 0.15815 0.0
H102 H 0.81004 0.66043 0.8971 0.0
H103 H 0.00297 0.76378 0.91348 0.0
H104 H 0.75906 0.75222 0.15577 0.0
H105 H 0.9312 0.63772 0.14002 0.0
H106 H 0.57799 0.78537 0.88861 0.0
H107 H 0.37762 0.7224 0.94109 0.0
Cd108 Cd 0.3046 0.77967 0.52724 0.0
Cd109 Cd 0.10507 0.70805 0.52105 0.0
C110 C 0.26583 0.8013 0.44738 0.0
N111 N 0.3024 0.7676 0.46798 0.0
C112 C 0.3595 0.72799 0.41943 0.0
C113 C 0.32286 0.76211 0.39745 0.0
C114 C 0.27503 0.79919 0.41181 0.0
C115 C 0.34952 0.73188 0.45467 0.0
H116 H 0.2313 0.83079 0.45859 0.0
H117 H 0.38207 0.70757 0.47136 0.0
C118 C 0.27307 0.64294 0.52123 0.0
C119 C 0.15351 0.67048 0.59728 0.0
C120 C 0.15015 0.6683 0.63294 0.0
C121 C 0.11489 0.70754 0.65121 0.0
C122 C 0.08692 0.74962 0.63287 0.0
C123 C 0.09133 0.75018 0.59726 0.0
N124 N 0.12416 0.71101 0.58017 0.0
H125 H 0.17663 0.63869 0.58339 0.0
H126 H 0.06554 0.78107 0.58332 0.0
C127 C 0.1622 0.69415 0.44323 0.0
N128 N 0.12195 0.72682 0.4631 0.0
C129 C 0.06688 0.76517 0.41357 0.0
C130 C 0.10497 0.73032 0.39259 0.0
C131 C 0.15524 0.69575 0.40766 0.0
C132 C 0.07522 0.76214 0.44894 0.0
H133 H 0.19651 0.66502 0.45496 0.0
H134 H 0.04006 0.78571 0.465 0.0
C135 C 0.13206 0.84394 0.525 0.0
C136 C 0.45512 0.82172 0.528 0.0
N137 N 0.29039 0.76727 0.5862 0.0
C138 C 0.26108 0.80377 0.60689 0.0
C139 C 0.26749 0.79938 0.64248 0.0
C140 C 0.30534 0.7572 0.65673 0.0
C141 C 0.33359 0.71997 0.63461 0.0
C142 C 0.32619 0.72595 0.59942 0.0
C143 C 0.9534 0.66757 0.51597 0.0
O144 O 0.309 0.68552 0.52368 0.0
O145 O 0.20045 0.64101 0.5197 0.0
O146 O 0.09278 0.80262 0.52218 0.0
O147 O 0.20441 0.84339 0.52804 0.0
O148 O 0.40242 0.84695 0.51412 0.0
O149 O 0.4356 0.78006 0.54244 0.0
O150 O -0.02348 0.69099 0.54221 0.0
O151 O 0.00295 0.65833 0.49334 0.0
H152 H 0.23535 0.83724 0.5958 0.0
H153 H 0.35257 0.69864 0.58271 0.0
H154 H 0.39758 0.69939 0.40944 0.0
H155 H 0.24676 0.82729 0.39621 0.0
H156 H 0.1725 0.63523 0.64607 0.0
H157 H 0.06067 0.78162 0.64538 0.0
H158 H 0.02842 0.79307 0.40302 0.0
H159 H 0.18552 0.66831 0.39224 0.0
H160 H 0.24538 0.82972 0.65811 0.0
H161 H 0.36382 0.68721 0.6444 0.0
Cd162 Cd 0.84729 0.29077 0.51191 0.0
Cd163 Cd 0.59825 0.22892 0.5223 0.0
C164 C 0.77579 0.32169 0.43774 0.0
N165 N 0.8026 0.28136 0.45597 0.0
C166 C 0.82924 0.23582 0.40463 0.0
C167 C 0.80894 0.2787 0.38524 0.0
C168 C 0.77734 0.32076 0.40193 0.0
C169 C 0.82555 0.23799 0.44019 0.0
H170 H 0.75976 0.3563 0.45074 0.0
H171 H 0.84812 0.20687 0.45512 0.0
C172 C 0.77402 0.16132 0.52496 0.0
C173 C 0.59502 0.23421 0.60482 0.0
C174 C 0.56064 0.23886 0.63705 0.0
C175 C 0.49143 0.26536 0.64029 0.0
C176 C 0.46099 0.28875 0.61114 0.0
C177 C 0.49757 0.28351 0.57955 0.0
N178 N 0.56217 0.25551 0.57686 0.0
H179 H 0.64502 0.21081 0.60175 0.0
H180 H 0.47153 0.29898 0.5568 0.0
C181 C 0.62167 0.22197 0.44059 0.0
N182 N 0.58262 0.24852 0.46459 0.0
C183 C 0.50839 0.28908 0.42138 0.0
C184 C 0.54516 0.26027 0.39606 0.0
C185 C 0.60434 0.22778 0.40592 0.0
C186 C 0.52795 0.28237 0.4557 0.0
H187 H 0.66427 0.19487 0.44848 0.0
H188 H 0.49746 0.30271 0.47539 0.0
C189 C 0.68844 0.35896 0.52121 0.0
C190 C 0.00628 0.30426 0.49447 0.0
N191 N 0.86709 0.27795 0.57012 0.0
C192 C 0.82588 0.2998 0.59558 0.0
C193 C 0.85257 0.29828 0.62935 0.0
C194 C 0.92254 0.27444 0.63655 0.0
C195 C -0.0382 0.25077 0.6098 0.0
C196 C 0.93282 0.25277 0.57672 0.0
C197 C 0.46363 0.16673 0.52288 0.0
O198 O 0.8187 0.19978 0.52048 0.0
O199 O 0.70164 0.16607 0.52621 0.0
O200 O 0.65727 0.31457 0.52159 0.0
O201 O 0.76098 0.36353 0.51879 0.0
O202 O -0.03529 0.26734 0.48438 0.0
O203 O -0.02625 0.3384 0.51204 0.0
O204 O 0.46063 0.21486 0.5186 0.0
O205 O 0.52957 0.14754 0.52587 0.0
H206 H 0.7746 0.32052 0.58948 0.0
H207 H -0.03515 0.23639 0.55585 0.0
H208 H 0.85268 0.20235 0.39252 0.0
H209 H 0.7609 0.35437 0.38762 0.0
H210 H 0.58545 0.21895 0.6585 0.0
H211 H 0.40761 0.30916 0.61251 0.0
H212 H 0.4641 0.31584 0.41499 0.0
H213 H 0.63451 0.20534 0.38713 0.0
H214 H 0.82094 0.31801 0.64897 0.0
H215 H 0.01592 0.23224 0.61424 0.0
H216 H 0.553 0.1598 0.99655 0.0
C217 C 0.53813 0.18545 0.01723 0.0
H218 H 0.57514 0.24506 0.04976 0.0
H219 H 0.92517 0.24706 1.01685 0.0
H220 H 0.93 0.18053 0.06051 0.0
H221 H 0.812 0.13579 0.08017 0.0
H222 H 0.68759 0.15833 0.05706 0.0
C223 C 0.59028 0.21908 0.02929 0.0
C224 C 0.66066 0.23322 1.01009 0.0
C225 C 0.73245 0.21832 0.02282 0.0
C226 C 0.80026 0.24395 1.01127 0.0
C227 C 0.87158 0.2293 0.02507 0.0
C228 C 0.87527 0.19092 0.04988 0.0
C229 C 0.80872 0.16579 0.06107 0.0
C230 C 0.73787 0.17916 0.04776 0.0
H231 H 0.84242 0.36158 0.02529 0.0
C232 C 0.88274 0.35314 1.00488 0.0
H233 H 0.90489 0.30554 0.96254 0.0
H234 H 0.53181 0.26684 0.97694 0.0
H235 H 0.52783 0.3316 0.93258 0.0
H236 H 0.6465 0.37461 0.91183 0.0
H237 H 0.77028 0.35343 0.93605 0.0
C238 C 0.86293 0.31841 0.9811 0.0
C239 C 0.79524 0.28466 0.98725 0.0
C240 C 0.72453 0.29585 0.97189 0.0
C241 C 0.65661 0.27035 0.9835 0.0
C242 C 0.58565 0.28434 0.969 0.0
C243 C 0.58247 0.32151 0.9434 0.0
C244 C 0.6493 0.34582 0.93176 0.0
C245 C 0.71975 0.33343 0.94587 0.0
H246 H 0.08446 0.82001 0.05196 0.0
C247 C 0.0774 0.78101 0.0427 0.0
H248 H 0.13032 0.71995 0.01738 0.0
H249 H 0.33593 0.88632 0.93862 0.0
H250 H 0.28452 0.83394 0.89253 0.0
H251 H 0.19764 0.76037 0.9049 0.0
H252 H 0.16219 0.73838 0.96331 0.0
C253 C 0.13757 0.75776 0.02844 0.0
C254 C 0.20869 0.78868 0.02134 0.0
C255 C 0.22946 0.80026 0.98701 0.0
C256 C 0.27883 0.843 0.97984 0.0
C257 C 0.29796 0.85454 0.94538 0.0
C258 C 0.26896 0.82478 0.91874 0.0
C259 C 0.22005 0.78334 0.9257 0.0
C260 C 0.19998 0.7712 0.95938 0.0
H261 H 0.44807 0.96696 0.99215 0.0
C262 C 0.42447 0.9296 0.99927 0.0
H263 H 0.31302 0.95521 0.99157 0.0
H264 H 0.202 0.76449 0.08909 0.0
H265 H 0.26239 0.81211 0.13556 0.0
H266 H 0.342 0.88937 0.12352 0.0
H267 H 0.36241 0.91923 0.06515 0.0
C268 C 0.34774 0.92312 0.99921 0.0
C269 C 0.30696 0.87375 1.00697 0.0
C270 C 0.29386 0.85816 0.04134 0.0
C271 C 0.24628 0.81463 0.04841 0.0
C272 C 0.23595 0.7984 0.08271 0.0
C273 C 0.27051 0.82516 0.10945 0.0
C274 C 0.31544 0.86863 0.10265 0.0
C275 C 0.32678 0.88532 0.06905 0.0
H276 H 0.55116 0.85852 0.49979 0.0
C277 C 0.53633 0.83294 0.52092 0.0
H278 H 0.57309 0.77485 0.55429 0.0
H279 H 0.75974 0.66903 0.43922 0.0
H280 H 0.63405 0.6441 0.41747 0.0
H281 H 0.51724 0.68397 0.43981 0.0
H282 H 0.52505 0.74956 0.48313 0.0
C283 C 0.58809 0.80069 0.53331 0.0
C284 C 0.65691 0.7872 0.51369 0.0
C285 C 0.65039 0.74973 0.48754 0.0
C286 C 0.71713 0.7258 0.47515 0.0
C287 C 0.71011 0.6878 0.44965 0.0
C288 C 0.63851 0.67324 0.43697 0.0
C289 C 0.57277 0.69582 0.44948 0.0
C290 C 0.5782 0.73356 0.47446 0.0
H291 H 0.83112 0.66119 0.52712 0.0
C292 C 0.87276 0.67081 0.50718 0.0
H293 H 0.89868 0.71988 0.46539 0.0
H294 H 0.68792 0.86158 0.56071 0.0
H295 H 0.81348 0.88359 0.58411 0.0
H296 H 0.92905 0.84 0.56389 0.0
H297 H 0.92103 0.77744 0.5182 0.0
C298 C 0.85506 0.70558 0.48323 0.0
C299 C 0.78895 0.7386 0.48943 0.0
C300 C 0.79609 0.77884 0.51355 0.0
C301 C 0.72959 0.80312 0.52576 0.0
C302 C 0.73712 0.84152 0.55102 0.0
C303 C 0.80862 0.85459 0.56452 0.0
C304 C 0.87378 0.83028 0.55296 0.0
C305 C 0.86821 0.79374 0.52719 0.0
H306 H 0.10752 0.27111 0.47253 0.0
C307 C 0.08963 0.30133 0.48963 0.0
H308 H 0.12102 0.34983 0.52982 0.0
H309 H 0.31838 0.17465 0.58935 0.0
H310 H 0.26987 0.21748 0.63997 0.0
H311 H 0.19792 0.29745 0.6347 0.0
H312 H 0.17421 0.33518 0.57895 0.0
C313 C 0.14094 0.32225 0.51135 0.0
C314 C 0.21525 0.29556 0.5168 0.0
C315 C 0.23172 0.2759 0.54975 0.0
C316 C 0.27356 0.22998 0.55284 0.0
C317 C 0.28636 0.2093 0.58576 0.0
C318 C 0.25913 0.23358 0.61492 0.0
C319 C 0.21853 0.2786 0.61194 0.0
C320 C 0.20455 0.29959 0.57977 0.0
H321 H 0.40262 0.09268 0.52733 0.0
C322 C 0.39435 0.13362 0.52494 0.0
H323 H 0.27579 0.12211 0.52823 0.0
H324 H 0.22645 0.33885 0.45373 0.0
H325 H 0.28606 0.30116 0.40323 0.0
H326 H 0.34934 0.21747 0.40733 0.0
H327 H 0.35729 0.17276 0.46166 0.0
C328 C 0.32198 0.15031 0.52517 0.0
C329 C 0.29977 0.20494 0.5231 0.0
C330 C 0.29591 0.23012 0.49102 0.0
C331 C 0.25629 0.27684 0.48828 0.0
C332 C 0.25445 0.30245 0.45642 0.0
C333 C 0.28837 0.2813 0.42755 0.0
C334 C 0.32418 0.23432 0.42986 0.0
C335 C 0.32818 0.20888 0.46118 0.0
H336 H 0.54514 0.67727 0.02265 0.0
C337 C 0.59954 0.65781 0.02149 0.0
H338 H 0.65426 0.58669 0.01949 0.0
H339 H 0.38703 0.45103 0.08179 0.0
H340 H 0.47228 0.45725 0.13036 0.0
H341 H 0.58397 0.51674 0.12946 0.0
H342 H 0.61069 0.57067 0.08001 0.0
C343 C 0.59999 0.60639 0.01954 0.0
C344 C 0.52836 0.5739 0.02072 0.0
C345 C 0.51401 0.54185 0.04955 0.0
C346 C 0.4503 0.50679 0.04982 0.0
C347 C 0.43598 0.47694 0.07961 0.0
C348 C 0.48411 0.48047 0.10786 0.0
C349 C 0.54693 0.514 0.10737 0.0
C350 C 0.56181 0.54456 0.07872 0.0
H351 H 0.41164 0.40076 0.02136 0.0
C352 C 0.35246 0.41296 0.02015 0.0
H353 H 0.27949 0.47637 0.0177 0.0
H354 H 0.53753 0.63038 0.9615 0.0
H355 H 0.4503 0.6257 0.91352 0.0
H356 H 0.34023 0.56492 0.91394 0.0
H357 H 0.31674 0.50826 0.96236 0.0
C358 C 0.33808 0.46341 0.01985 0.0
C359 C 0.40175 0.5028 0.02084 0.0
C360 C 0.41415 0.53639 0.99259 0.0
C361 C 0.47758 0.57181 0.99245 0.0
C362 C 0.48975 0.60347 0.96333 0.0
C363 C 0.44026 0.60103 0.9355 0.0
C364 C 0.37828 0.56679 0.93572 0.0
C365 C 0.36534 0.53457 0.96375 0.0
H366 H 0.67175 0.44246 0.52239 0.0
C367 C 0.64172 0.40558 0.52212 0.0
H368 H 0.53346 0.36778 0.52163 0.0
H369 H 0.35916 0.5581 0.58291 0.0
H370 H 0.35506 0.49965 0.63124 0.0
H371 H 0.42567 0.41883 0.62985 0.0
H372 H 0.50164 0.3964 0.58023 0.0
C373 C 0.56456 0.40419 0.52128 0.0
C374 C 0.51927 0.45212 0.52125 0.0
C375 C 0.47411 0.46447 0.55022 0.0
C376 C 0.43242 0.51078 0.55081 0.0
C377 C 0.3903 0.52291 0.58066 0.0
C378 C 0.38781 0.48982 0.60871 0.0
C379 C 0.42763 0.44435 0.60795 0.0
C380 C 0.47075 0.4318 0.57922 0.0
H381 H 0.28309 0.5588 0.51933 0.0
C382 C 0.31574 0.59461 0.52082 0.0
H383 H 0.42648 0.62894 0.52317 0.0
H384 H 0.592 0.43726 0.45991 0.0
H385 H 0.59429 0.49501 0.41119 0.0
H386 H 0.52409 0.57596 0.41267 0.0
H387 H 0.45105 0.59963 0.46289 0.0
C388 C 0.39276 0.59349 0.52272 0.0
C389 C 0.43484 0.54435 0.52215 0.0
C390 C 0.47904 0.53163 0.49298 0.0
C391 C 0.52054 0.48526 0.49235 0.0
C392 C 0.56136 0.47264 0.46224 0.0
C393 C 0.5627 0.50529 0.43396 0.0
C394 C 0.52316 0.55086 0.43478 0.0
C395 C 0.4816 0.56403 0.46382 0.0
H396 H 0.01036 0.15174 1.01418 0.0
C397 C 0.06861 0.13957 0.01871 0.0
H398 H 0.1395 0.07658 0.02796 0.0
H399 H 0.87331 0.93135 0.08505 0.0
H400 H 0.95095 0.9449 0.13555 0.0
H401 H 0.05953 1.00691 0.13488 0.0
H402 H 0.09129 0.05567 0.08368 0.0
C403 C 0.08196 0.08933 0.02239 0.0
C404 C 0.01785 0.05032 0.02203 0.0
C405 C 0.00055 0.02145 0.05204 0.0
C406 C 0.93788 0.9855 0.05241 0.0
C407 C 0.92085 0.95844 0.08309 0.0
C408 C -0.03524 0.96604 0.11236 0.0
C409 C 0.02589 1.00095 0.11199 0.0
C410 C 0.04364 0.02858 0.08234 0.0
H411 H 0.88628 0.87542 0.0243 0.0
C412 C 0.8297 0.8919 0.02391 0.0
H413 H 0.76763 0.96035 0.02169 0.0
H414 H 0.04087 0.09395 0.95877 0.0
H415 H -0.03678 0.08029 0.90832 0.0
H416 H 0.85254 0.01996 0.9095 0.0
H417 H 0.81911 0.97269 0.96119 0.0
C418 C 0.82371 0.94317 0.02337 0.0
C419 C 0.89258 0.97824 0.02269 0.0
C420 C 0.91069 1.00643 0.99252 0.0
C421 C -0.02619 0.04199 0.99202 0.0
C422 C -0.00784 0.06785 0.96103 0.0
C423 C 0.94842 0.06003 0.93173 0.0
C424 C 0.88616 0.02602 0.93238 0.0
C425 C 0.86745 0.99927 0.96228 0.0
H426 H 0.76668 0.07693 0.53016 0.0
C427 C 0.80613 0.10933 0.52675 0.0
H428 H 0.922 0.13264 0.51913 0.0
H429 H 0.02208 0.91597 0.58321 0.0
H430 H 0.01709 0.96368 0.63606 0.0
H431 H -0.03407 0.05096 0.63725 0.0
H432 H 0.9177 0.09054 0.58555 0.0
C433 C 0.88153 0.10086 0.5227 0.0
C434 C 0.91238 0.04808 0.52194 0.0
C435 C 0.94288 0.02613 0.552 0.0
C436 C -0.02455 0.97659 0.55098 0.0
C437 C 0.00054 0.9544 0.582 0.0
C438 C -0.0028 0.98119 0.61266 0.0
C439 C -0.03182 0.03027 0.61335 0.0
C440 C 0.94087 0.05257 0.5835 0.0
H441 H 0.12746 0.92733 0.53353 0.0
C442 C 0.09375 0.89395 0.52575 0.0
H443 H -0.01267 0.86707 0.50736 0.0
H444 H 0.85636 0.07833 0.46004 0.0
H445 H 0.86041 0.03075 0.40699 0.0
H446 H 0.92001 0.94605 0.40462 0.0
H447 H -0.02403 0.9084 0.45517 0.0
C448 C 0.01958 0.89951 0.51745 0.0
C449 C -0.01913 0.95003 0.51942 0.0
C450 C 0.94818 0.97148 0.48954 0.0
C451 C 0.91396 0.02049 0.49083 0.0
C452 C 0.88272 0.04122 0.46052 0.0
C453 C 0.88475 0.01435 0.42988 0.0
C454 C 0.91829 0.96666 0.42855 0.0
C455 C 0.95002 0.9454 0.45787 0.0
H456 H 0.56308 0.25103 0.34026 0.0
C457 C 0.52133 0.26161 0.35959 0.0
H458 H 0.40559 0.28018 0.36863 0.0
H459 H 0.32436 0.35643 0.22098 0.0
H460 H 0.31243 0.4342 0.25411 0.0
H461 H 0.35196 0.43693 0.31459 0.0
H462 H 0.40345 0.36205 0.34236 0.0
C463 C 0.44866 0.27028 0.34989 0.0
C464 C 0.42403 0.26792 0.31343 0.0
C465 C 0.39415 0.31219 0.29759 0.0
C466 C 0.37217 0.31086 0.2626 0.0
C467 C 0.34261 0.35557 0.2474 0.0
C468 C 0.33529 0.4004 0.26613 0.0
C469 C 0.35745 0.40191 0.30019 0.0
C470 C 0.38676 0.35854 0.31585 0.0
H471 H 0.25876 0.23064 0.20736 0.0
C472 C 0.30281 0.2486 0.19129 0.0
H473 H 0.41425 0.2827 0.19043 0.0
H474 H 0.46333 0.17312 0.33749 0.0
H475 H 0.47455 0.09564 0.30424 0.0
H476 H 0.44455 0.09513 0.24265 0.0
H477 H 0.40158 0.172 0.21411 0.0
C478 C 0.36777 0.26662 0.20587 0.0
C479 C 0.38037 0.26546 0.24344 0.0
C480 C 0.40747 0.22065 0.2595 0.0
C481 C 0.42782 0.22154 0.29473 0.0
C482 C 0.45064 0.17541 0.3105 0.0
C483 C 0.45662 0.13046 0.29176 0.0
C484 C 0.43952 0.13013 0.25711 0.0
C485 C 0.415 0.17454 0.24104 0.0
H486 H 0.36711 0.76367 0.17286 0.0
C487 C 0.42826 0.77271 0.17367 0.0
H488 H 0.5223 0.7884 0.20629 0.0
H489 H 0.33717 0.87994 0.32812 0.0
H490 H 0.39693 0.9567 0.30401 0.0
H491 H 0.46443 0.95431 0.24847 0.0
H492 H 0.47315 0.87507 0.21682 0.0
C493 C 0.46139 0.77974 0.2043 0.0
C494 C 0.41511 0.78114 0.23638 0.0
C495 C 0.40936 0.82798 0.25428 0.0
C496 C 0.36951 0.82953 0.28606 0.0
C497 C 0.36622 0.87662 0.30374 0.0
C498 C 0.40025 0.92101 0.29019 0.0
C499 C 0.43832 0.91966 0.25894 0.0
C500 C 0.44303 0.87384 0.24108 0.0
H501 H 0.39038 0.73681 0.35306 0.0
C502 C 0.34151 0.75968 0.36037 0.0
H503 H 0.25542 0.80809 0.34099 0.0
H504 H 0.41645 0.6845 0.20925 0.0
H505 H 0.34996 0.60909 0.23175 0.0
H506 H 0.27356 0.61338 0.28491 0.0
H507 H 0.26466 0.69301 0.31627 0.0
C508 C 0.30431 0.78451 0.33545 0.0
C509 C 0.33533 0.78426 0.29987 0.0
C510 C 0.33723 0.73806 0.28103 0.0
C511 C 0.37854 0.73617 0.2496 0.0
C512 C 0.38351 0.68869 0.23253 0.0
C513 C 0.34597 0.64498 0.24528 0.0
C514 C 0.30318 0.64734 0.27527 0.0
C515 C 0.29881 0.6932 0.29309 0.0
H516 H 0.36164 0.72174 0.70104 0.0
C517 C 0.32253 0.75181 0.69378 0.0
H518 H 0.25883 0.81358 0.71274 0.0
H519 H 0.39137 0.66549 0.84123 0.0
H520 H 0.30695 0.59863 0.8192 0.0
H521 H 0.22694 0.61401 0.76837 0.0
H522 H 0.23335 0.69598 0.73877 0.0
C523 C 0.2964 0.78238 0.71862 0.0
C524 C 0.32629 0.77771 0.75417 0.0
C525 C 0.31888 0.73075 0.77241 0.0
C526 C 0.36157 0.72297 0.80282 0.0
C527 C 0.35775 0.67429 0.81888 0.0
C528 C 0.30976 0.63545 0.8064 0.0
C529 C 0.265 0.64401 0.77771 0.0
C530 C 0.2695 0.69099 0.76079 0.0
H531 H 0.36496 0.74451 0.88025 0.0
C532 C 0.42691 0.74925 0.87791 0.0
H533 H 0.51848 0.76055 0.84267 0.0
H534 H 0.34325 0.8754 0.72867 0.0
H535 H 0.41467 0.94549 0.75446 0.0
H536 H 0.48263 0.93361 0.80901 0.0
H537 H 0.48016 0.85126 0.8379 0.0
C538 C 0.4572 0.75549 0.84646 0.0
C539 C 0.40777 0.76342 0.81607 0.0
C540 C 0.40856 0.81207 0.79982 0.0
C541 C 0.36813 0.81919 0.76872 0.0
C542 C 0.37201 0.86781 0.75253 0.0
C543 C 0.41288 0.9085 0.76706 0.0
C544 C 0.45122 0.9018 0.79775 0.0
C545 C 0.44949 0.85424 0.81401 0.0
H546 H 0.37691 0.29261 0.8497 0.0
C547 C 0.33571 0.26259 0.857 0.0
H548 H 0.27112 0.19936 0.83791 0.0
H549 H 0.4081 0.34645 0.70769 0.0
H550 H 0.32013 0.41037 0.72774 0.0
H551 H 0.23899 0.39426 0.77874 0.0
H552 H 0.24756 0.31452 0.81051 0.0
C553 C 0.30979 0.23127 0.83218 0.0
C554 C 0.34282 0.2357 0.79692 0.0
C555 C 0.33469 0.28129 0.77754 0.0
C556 C 0.37832 0.28928 0.74702 0.0
C557 C 0.37351 0.33703 0.72993 0.0
C558 C 0.32364 0.37433 0.74136 0.0
C559 C 0.27823 0.36538 0.77014 0.0
C560 C 0.28382 0.3196 0.78822 0.0
H561 H 0.38373 0.26882 0.6703 0.0
C562 C 0.44544 0.26461 0.67245 0.0
H563 H 0.53718 0.25417 0.70668 0.0
H564 H 0.36571 0.1416 0.82594 0.0
H565 H 0.44415 0.0742 0.80323 0.0
H566 H 0.51406 0.08587 0.74868 0.0
H567 H 0.50657 0.16522 0.71667 0.0
C568 C 0.47574 0.25815 0.70371 0.0
C569 C 0.42669 0.25022 0.73481 0.0
C570 C 0.43019 0.20306 0.75288 0.0
C571 C 0.3886 0.19591 0.78402 0.0
C572 C 0.39523 0.14899 0.80198 0.0
C573 C 0.44012 0.10989 0.78924 0.0
C574 C 0.47956 0.11649 0.75855 0.0
C575 C 0.47492 0.16238 0.74049 0.0
H576 H 0.13205 0.71051 0.33889 0.0
C577 C 0.08847 0.72622 0.35556 0.0
H578 H -0.02747 0.74858 0.35908 0.0
H579 H 0.93649 0.79182 0.20071 0.0
H580 H 0.94595 0.87877 0.22179 0.0
H581 H -0.02043 0.89597 0.28193 0.0
H582 H 0.00442 0.82622 0.32129 0.0
C583 C 0.01826 0.7347 0.34288 0.0
C584 C -0.00095 0.72394 0.30664 0.0
C585 C -0.01638 0.76507 0.28414 0.0
C586 C -0.03662 0.7551 0.2496 0.0
C587 C 0.95054 0.79704 0.22739 0.0
C588 C 0.95614 0.84721 0.23912 0.0
C589 C -0.02487 0.8569 0.27297 0.0
C590 C -0.01096 0.81649 0.29531 0.0
H591 H 0.82182 0.71178 0.20728 0.0
C592 C 0.86608 0.6988 0.18985 0.0
H593 H -0.01578 0.68246 0.18476 0.0
H594 H 0.01763 0.63579 0.34399 0.0
H595 H 0.00866 0.54895 0.32279 0.0
H596 H -0.02271 0.53196 0.26245 0.0
H597 H 0.95334 0.60175 0.22299 0.0
C598 C 0.93778 0.69324 0.20166 0.0
C599 C -0.04245 0.7039 0.23785 0.0
C600 C -0.02692 0.66279 0.26031 0.0
C601 C -0.00709 0.67272 0.2949 0.0
C602 C 0.00468 0.63071 0.31719 0.0
C603 C -0.0008 0.58056 0.30542 0.0
C604 C -0.01866 0.57097 0.27145 0.0
C605 C -0.032 0.6114 0.24907 0.0
H606 H 0.78926 0.2984 0.33063 0.0
C607 C 0.82983 0.28236 0.34854 0.0
H608 H 0.94216 0.25661 0.35647 0.0
H609 H 0.02931 0.18796 0.20913 0.0
H610 H 0.02794 0.10735 0.24021 0.0
H611 H -0.02079 0.10203 0.29949 0.0
H612 H 0.93191 0.17716 0.3281 0.0
C613 C 0.90119 0.27094 0.33805 0.0
C614 C 0.92705 0.27457 0.30171 0.0
C615 C 0.95362 0.22997 0.28521 0.0
C616 C -0.01939 0.23276 0.25085 0.0
C617 C 0.00744 0.1878 0.23509 0.0
C618 C 0.00711 0.14131 0.25264 0.0
C619 C -0.02021 0.13834 0.28603 0.0
C620 C 0.95307 0.18192 0.30221 0.0
H621 H 0.11205 0.31154 0.20257 0.0
C622 C 0.0701 0.29676 0.18444 0.0
H623 H 0.95626 0.26823 0.17835 0.0
H624 H 0.89389 0.36946 0.32727 0.0
H625 H 0.89423 0.44945 0.29568 0.0
H626 H 0.93142 0.4525 0.23469 0.0
H627 H -0.0288 0.37592 0.20538 0.0
C628 C 0.00048 0.28112 0.19593 0.0
C629 C -0.01977 0.2799 0.23288 0.0
C630 C 0.95498 0.32466 0.24941 0.0
C631 C 0.92997 0.32231 0.28412 0.0
C632 C 0.90974 0.36835 0.30054 0.0
C633 C 0.91038 0.41471 0.28277 0.0
C634 C 0.93167 0.41651 0.2485 0.0
C635 C 0.95418 0.37221 0.23193 0.0
H636 H 0.02444 0.24524 0.84932 0.0
C637 C 0.0654 0.276 0.85498 0.0
H638 H 0.12337 0.34087 0.8339 0.0
H639 H -0.02254 0.19262 0.70768 0.0
H640 H 0.06214 0.12675 0.72794 0.0
H641 H 0.14631 0.14209 0.77759 0.0
H642 H 0.1438 0.22271 0.808 0.0
C643 C 0.08614 0.30795 0.8293 0.0
C644 C 0.04981 0.303 0.79491 0.0
C645 C 0.05587 0.25708 0.77596 0.0
C646 C 0.01164 0.24974 0.74582 0.0
C647 C 0.01325 0.20154 0.72944 0.0
C648 C 0.06114 0.16317 0.741 0.0
C649 C 0.10819 0.17167 0.76905 0.0
C650 C 0.10574 0.21797 0.78644 0.0
H651 H 0.02217 0.27247 0.67112 0.0
C652 C -0.0397 0.27711 0.67051 0.0
H653 H 0.86156 0.289 0.70084 0.0
H654 H 0.02774 0.39698 0.82393 0.0
H655 H 0.95283 0.46569 0.80082 0.0
H656 H 0.88445 0.45573 0.74609 0.0
H657 H 0.8897 0.37633 0.71447 0.0
C658 C 0.92323 0.28425 0.70027 0.0
C659 C -0.0336 0.29009 0.73297 0.0
C660 C -0.0362 0.33709 0.7509 0.0
C661 C 0.00487 0.34337 0.78204 0.0
C662 C -0.00089 0.39023 0.79986 0.0
C663 C 0.95606 0.43013 0.78689 0.0
C664 C 0.91748 0.42445 0.75613 0.0
C665 C 0.92094 0.37857 0.73827 0.0
H666 H 0.13606 0.67085 0.70125 0.0
C667 C 0.1061 0.70191 0.68889 0.0
H668 H 0.02683 0.76133 0.69722 0.0
H669 H -0.04267 0.6156 0.83255 0.0
H670 H 0.90552 0.55381 0.79227 0.0
H671 H 0.91815 0.56825 0.7301 0.0
H672 H -0.01729 0.64449 0.70785 0.0
C673 C 0.05916 0.73034 0.70809 0.0
C674 C 0.05043 0.72129 0.74548 0.0
C675 C 0.01057 0.6771 0.75792 0.0
C676 C 0.00025 0.66981 0.79372 0.0
C677 C -0.03654 0.62422 0.80558 0.0
C678 C 0.93427 0.58813 0.78274 0.0
C679 C 0.94151 0.59623 0.74774 0.0
C680 C -0.02089 0.64011 0.73532 0.0
H681 H 0.88673 0.70244 0.84553 0.0
C682 C 0.93249 0.70522 0.86427 0.0
H683 H 0.0521 0.70623 0.87249 0.0
H684 H 0.1292 0.80986 0.72993 0.0
H685 H 0.18501 0.87021 0.7702 0.0
H686 H 0.16901 0.85703 0.83238 0.0
H687 H 0.09652 0.78405 0.85455 0.0
C688 C 0.00618 0.70479 0.85382 0.0
C689 C 0.02701 0.70773 0.81688 0.0
C690 C 0.07036 0.75055 0.8045 0.0
C691 C 0.08075 0.75778 0.76871 0.0
C692 C 0.12137 0.80194 0.7569 0.0
C693 C 0.15322 0.83705 0.77973 0.0
C694 C 0.14418 0.82963 0.81471 0.0
C695 C 0.10253 0.78734 0.8271 0.0
loop_
_geom_bond_atom_site_label_1
_geom_bond_atom_site_label_2
_geom_bond_distance
_geom_bond_site_symmetry_2
_ccdc_geom_bond_type
Cd0 N3 2.334 . S
Cd0 N29 2.304 1_554 S
Cd0 O36 2.268 . S
Cd0 O39 2.273 . S
Cd0 O40 2.417 1_455 S
Cd0 O41 2.330 . S
Cd1 N16 2.304 1_554 S
Cd1 N20 2.334 . S
Cd1 O37 2.273 . S
Cd1 O38 2.268 . S
Cd1 O42 2.417 . S
Cd1 O43 2.330 . S
C2 N3 1.332 . S
C2 C6 1.381 . S
C2 H8 0.931 . S
N3 Cd0 2.334 . S
N3 C2 1.332 . S
N3 C7 1.328 . S
C4 C5 1.396 . S
C4 C7 1.378 . S
C4 H46 0.931 . S
C5 C4 1.396 . S
C5 C6 1.382 . S
C6 C2 1.381 . S
C6 C5 1.382 . S
C6 H47 0.930 . S
C7 N3 1.328 . S
C7 C4 1.378 . S
C7 H9 0.930 . S
H8 C2 0.931 . S
H9 C7 0.930 . S
C10 O36 1.238 . S
C10 O37 1.253 . S
C11 C12 1.379 . S
C11 N16 1.337 . S
C11 H17 0.929 . S
C12 C11 1.379 . S
C12 C13 1.380 . S
C12 H48 0.929 . S
C13 C12 1.380 . S
C13 C14 1.399 . S
C14 C13 1.399 . S
C14 C15 1.376 . S
C14 H49 0.931 . S
C15 C14 1.376 . S
C15 N16 1.338 . S
C15 H18 0.930 . S
N16 Cd1 2.304 1_556 S
N16 C11 1.337 . S
N16 C15 1.338 . S
H17 C11 0.929 . S
H18 C15 0.930 . S
C19 N20 1.332 . S
C19 C23 1.381 . S
C19 H25 0.931 . S
N20 Cd1 2.334 . S
N20 C19 1.332 . S
N20 C24 1.328 . S
C21 C22 1.396 . S
C21 C24 1.378 . S
C21 H50 0.931 . S
C22 C21 1.396 . S
C22 C23 1.382 . S
C23 C19 1.381 . S
C23 C22 1.382 . S
C23 H51 0.930 . S
C24 N20 1.328 . S
C24 C21 1.378 . S
C24 H26 0.930 . S
H25 C19 0.931 . S
H26 C24 0.930 . S
C27 O38 1.238 . S
C27 O39 1.253 . S
C28 O40 1.239 . S
C28 O41 1.230 1_655 S
N29 Cd0 2.304 1_556 S
N29 C30 1.337 . S
N29 C34 1.338 . S
C30 N29 1.337 . S
C30 C31 1.379 . S
C30 H44 0.929 . S
C31 C30 1.379 . S
C31 C32 1.380 . S
C31 H52 0.929 . S
C32 C31 1.380 . S
C32 C33 1.399 . S
C33 C32 1.399 . S
C33 C34 1.376 . S
C33 H53 0.931 . S
C34 N29 1.338 . S
C34 C33 1.376 . S
C34 H45 0.930 . S
C35 O42 1.239 . S
C35 O43 1.230 . S
O36 Cd0 2.268 . S
O36 C10 1.238 . S
O37 Cd1 2.273 . S
O37 C10 1.253 . S
O38 Cd1 2.268 . S
O38 C27 1.238 . S
O39 Cd0 2.273 . S
O39 C27 1.253 . S
O40 Cd0 2.417 1_655 S
O40 C28 1.239 . S
O41 Cd0 2.330 . S
O41 C28 1.230 1_455 S
O42 Cd1 2.417 . S
O42 C35 1.239 . S
O43 Cd1 2.330 . S
O43 C35 1.230 . S
H44 C30 0.929 . S
H45 C34 0.930 . S
H46 C4 0.931 . S
H47 C6 0.930 . S
H48 C12 0.929 . S
H49 C14 0.931 . S
H50 C21 0.931 . S
H51 C23 0.930 . S
H52 C31 0.929 . S
H53 C33 0.931 . S
Cd54 N57 2.334 . S
Cd54 N83 2.304 1_554 S
Cd54 O90 2.268 . S
Cd54 O93 2.273 . S
Cd54 O94 2.417 . S
Cd54 O95 2.330 . S
Cd55 N70 2.304 1_554 S
Cd55 N74 2.334 . S
Cd55 O91 2.273 . S
Cd55 O92 2.268 . S
Cd55 O96 2.417 1_655 S
Cd55 O97 2.330 . S
C56 N57 1.332 . S
C56 C60 1.381 . S
C56 H62 0.931 . S
N57 Cd54 2.334 . S
N57 C56 1.332 . S
N57 C61 1.328 . S
C58 C59 1.396 . S
C58 C61 1.378 . S
C58 H100 0.931 . S
C59 C58 1.396 . S
C59 C60 1.382 . S
C60 C56 1.381 . S
C60 C59 1.382 . S
C60 H101 0.930 . S
C61 N57 1.328 . S
C61 C58 1.378 . S
C61 H63 0.930 . S
H62 C56 0.931 . S
H63 C61 0.930 . S
C64 O90 1.238 . S
C64 O91 1.253 . S
C65 C66 1.379 . S
C65 N70 1.337 . S
C65 H71 0.929 . S
C66 C65 1.379 . S
C66 C67 1.380 . S
C66 H102 0.929 . S
C67 C66 1.380 . S
C67 C68 1.399 . S
C68 C67 1.399 . S
C68 C69 1.376 . S
C68 H103 0.931 . S
C69 C68 1.376 . S
C69 N70 1.338 . S
C69 H72 0.930 . S
N70 Cd55 2.304 1_556 S
N70 C65 1.337 . S
N70 C69 1.338 . S
H71 C65 0.929 . S
H72 C69 0.930 . S
C73 N74 1.332 . S
C73 C77 1.381 . S
C73 H79 0.931 . S
N74 Cd55 2.334 . S
N74 C73 1.332 . S
N74 C78 1.328 . S
C75 C76 1.396 . S
C75 C78 1.378 . S
C75 H104 0.931 . S
C76 C75 1.396 . S
C76 C77 1.382 . S
C77 C73 1.381 . S
C77 C76 1.382 . S
C77 H105 0.930 . S
C78 N74 1.328 . S
C78 C75 1.378 . S
C78 H80 0.930 . S
H79 C73 0.931 . S
H80 C78 0.930 . S
C81 O92 1.238 . S
C81 O93 1.253 . S
C82 O94 1.239 . S
C82 O95 1.230 . S
N83 Cd54 2.304 1_556 S
N83 C84 1.337 . S
N83 C88 1.338 . S
C84 N83 1.337 . S
C84 C85 1.379 . S
C84 H98 0.929 . S
C85 C84 1.379 . S
C85 C86 1.380 . S
C85 H106 0.929 . S
C86 C85 1.380 . S
C86 C87 1.399 . S
C87 C86 1.399 . S
C87 C88 1.376 . S
C87 H107 0.931 . S
C88 N83 1.338 . S
C88 C87 1.376 . S
C88 H99 0.930 . S
C89 O96 1.239 . S
C89 O97 1.230 1_455 S
O90 Cd54 2.268 . S
O90 C64 1.238 . S
O91 Cd55 2.273 . S
O91 C64 1.253 . S
O92 Cd55 2.268 . S
O92 C81 1.238 . S
O93 Cd54 2.273 . S
O93 C81 1.253 . S
O94 Cd54 2.417 . S
O94 C82 1.239 . S
O95 Cd54 2.330 . S
O95 C82 1.230 . S
O96 Cd55 2.417 1_455 S
O96 C89 1.239 . S
O97 Cd55 2.330 . S
O97 C89 1.230 1_655 S
H98 C84 0.929 . S
H99 C88 0.930 . S
H100 C58 0.931 . S
H101 C60 0.930 . S
H102 C66 0.929 . S
H103 C68 0.931 . S
H104 C75 0.931 . S
H105 C77 0.930 . S
H106 C85 0.929 . S
H107 C87 0.931 . S
Cd108 N111 2.334 . S
Cd108 N137 2.304 . S
Cd108 O144 2.268 . S
Cd108 O147 2.273 . S
Cd108 O148 2.417 . S
Cd108 O149 2.330 . S
Cd109 N124 2.304 . S
Cd109 N128 2.334 . S
Cd109 O145 2.273 . S
Cd109 O146 2.268 . S
Cd109 O150 2.417 1_455 S
Cd109 O151 2.330 . S
C110 N111 1.332 . S
C110 C114 1.381 . S
C110 H116 0.931 . S
N111 Cd108 2.334 . S
N111 C110 1.332 . S
N111 C115 1.328 . S
C112 C113 1.396 . S
C112 C115 1.378 . S
C112 H154 0.931 . S
C113 C112 1.396 . S
C113 C114 1.382 . S
C114 C110 1.381 . S
C114 C113 1.382 . S
C114 H155 0.930 . S
C115 N111 1.328 . S
C115 C112 1.378 . S
C115 H117 0.930 . S
H116 C110 0.931 . S
H117 C115 0.930 . S
C118 O144 1.238 . S
C118 O145 1.253 . S
C119 C120 1.379 . S
C119 N124 1.337 . S
C119 H125 0.929 . S
C120 C119 1.379 . S
C120 C121 1.380 . S
C120 H156 0.929 . S
C121 C120 1.380 . S
C121 C122 1.399 . S
C122 C121 1.399 . S
C122 C123 1.376 . S
C122 H157 0.931 . S
C123 C122 1.376 . S
C123 N124 1.338 . S
C123 H126 0.930 . S
N124 Cd109 2.304 . S
N124 C119 1.337 . S
N124 C123 1.338 . S
H125 C119 0.929 . S
H126 C123 0.930 . S
C127 N128 1.332 . S
C127 C131 1.381 . S
C127 H133 0.931 . S
N128 Cd109 2.334 . S
N128 C127 1.332 . S
N128 C132 1.328 . S
C129 C130 1.396 . S
C129 C132 1.378 . S
C129 H158 0.931 . S
C130 C129 1.396 . S
C130 C131 1.382 . S
C131 C127 1.381 . S
C131 C130 1.382 . S
C131 H159 0.930 . S
C132 N128 1.328 . S
C132 C129 1.378 . S
C132 H134 0.930 . S
H133 C127 0.931 . S
H134 C132 0.930 . S
C135 O146 1.238 . S
C135 O147 1.253 . S
C136 O148 1.239 . S
C136 O149 1.230 . S
N137 Cd108 2.304 . S
N137 C138 1.337 . S
N137 C142 1.338 . S
C138 N137 1.337 . S
C138 C139 1.379 . S
C138 H152 0.929 . S
C139 C138 1.379 . S
C139 C140 1.380 . S
C139 H160 0.929 . S
C140 C139 1.380 . S
C140 C141 1.399 . S
C141 C140 1.399 . S
C141 C142 1.376 . S
C141 H161 0.931 . S
C142 N137 1.338 . S
C142 C141 1.376 . S
C142 H153 0.930 . S
C143 O150 1.239 . S
C143 O151 1.230 1_655 S
O144 Cd108 2.268 . S
O144 C118 1.238 . S
O145 Cd109 2.273 . S
O145 C118 1.253 . S
O146 Cd109 2.268 . S
O146 C135 1.238 . S
O147 Cd108 2.273 . S
O147 C135 1.253 . S
O148 Cd108 2.417 . S
O148 C136 1.239 . S
O149 Cd108 2.330 . S
O149 C136 1.230 . S
O150 Cd109 2.417 1_655 S
O150 C143 1.239 . S
O151 Cd109 2.330 . S
O151 C143 1.230 1_455 S
H152 C138 0.929 . S
H153 C142 0.930 . S
H154 C112 0.931 . S
H155 C114 0.930 . S
H156 C120 0.929 . S
H157 C122 0.931 . S
H158 C129 0.931 . S
H159 C131 0.930 . S
H160 C139 0.929 . S
H161 C141 0.931 . S
Cd162 N165 2.334 . S
Cd162 N191 2.304 . S
Cd162 O198 2.268 . S
Cd162 O201 2.273 . S
Cd162 O202 2.417 1_655 S
Cd162 O203 2.330 . S
Cd163 N178 2.304 . S
Cd163 N182 2.334 . S
Cd163 O199 2.273 . S
Cd163 O200 2.268 . S
Cd163 O204 2.417 . S
Cd163 O205 2.330 . S
C164 N165 1.332 . S
C164 C168 1.381 . S
C164 H170 0.931 . S
N165 Cd162 2.334 . S
N165 C164 1.332 . S
N165 C169 1.328 . S
C166 C167 1.396 . S
C166 C169 1.378 . S
C166 H208 0.931 . S
C167 C166 1.396 . S
C167 C168 1.382 . S
C168 C164 1.381 . S
C168 C167 1.382 . S
C168 H209 0.930 . S
C169 N165 1.328 . S
C169 C166 1.378 . S
C169 H171 0.930 . S
H170 C164 0.931 . S
H171 C169 0.930 . S
C172 O198 1.238 . S
C172 O199 1.253 . S
C173 C174 1.379 . S
C173 N178 1.337 . S
C173 H179 0.929 . S
C174 C173 1.379 . S
C174 C175 1.380 . S
C174 H210 0.929 . S
C175 C174 1.380 . S
C175 C176 1.399 . S
C176 C175 1.399 . S
C176 C177 1.376 . S
C176 H211 0.931 . S
C177 C176 1.376 . S
C177 N178 1.338 . S
C177 H180 0.930 . S
N178 Cd163 2.304 . S
N178 C173 1.337 . S
N178 C177 1.338 . S
H179 C173 0.929 . S
H180 C177 0.930 . S
C181 N182 1.332 . S
C181 C185 1.381 . S
C181 H187 0.931 . S
N182 Cd163 2.334 . S
N182 C181 1.332 . S
N182 C186 1.328 . S
C183 C184 1.396 . S
C183 C186 1.378 . S
C183 H212 0.931 . S
C184 C183 1.396 . S
C184 C185 1.382 . S
C185 C181 1.381 . S
C185 C184 1.382 . S
C185 H213 0.930 . S
C186 N182 1.328 . S
C186 C183 1.378 . S
C186 H188 0.930 . S
H187 C181 0.931 . S
H188 C186 0.930 . S
C189 O200 1.238 . S
C189 O201 1.253 . S
C190 O202 1.239 . S
C190 O203 1.230 1_455 S
N191 Cd162 2.304 . S
N191 C192 1.337 . S
N191 C196 1.338 . S
C192 N191 1.337 . S
C192 C193 1.379 . S
C192 H206 0.929 . S
C193 C192 1.379 . S
C193 C194 1.380 . S
C193 H214 0.929 . S
C194 C193 1.380 . S
C194 C195 1.399 . S
C195 C194 1.399 . S
C195 C196 1.376 . S
C195 H215 0.931 . S
C196 N191 1.338 . S
C196 C195 1.376 . S
C196 H207 0.930 . S
C197 O204 1.239 . S
C197 O205 1.230 . S
O198 Cd162 2.268 . S
O198 C172 1.238 . S
O199 Cd163 2.273 . S
O199 C172 1.253 . S
O200 Cd163 2.268 . S
O200 C189 1.238 . S
O201 Cd162 2.273 . S
O201 C189 1.253 . S
O202 Cd162 2.417 1_455 S
O202 C190 1.239 . S
O203 Cd162 2.330 . S
O203 C190 1.230 1_655 S
O204 Cd163 2.417 . S
O204 C197 1.239 . S
O205 Cd163 2.330 . S
O205 C197 1.230 . S
H206 C192 0.929 . S
H207 C196 0.930 . S
H208 C166 0.931 . S
H209 C168 0.930 . S
H210 C174 0.929 . S
H211 C176 0.931 . S
H212 C183 0.931 . S
H213 C185 0.930 . S
H214 C193 0.929 . S
H215 C195 0.931 . S
H216 C217 0.951 1_556 S
C217 H216 0.951 1_554 S
C217 C223 1.265 . S
H218 C223 0.950 . S
H219 C227 0.949 . S
H220 C228 0.950 . S
H221 C229 0.951 . S
H222 C230 0.951 . S
C223 C217 1.265 . S
C223 H218 0.950 . S
C223 C224 1.478 . S
C224 C223 1.478 . S
C224 C225 1.397 . S
C224 C241 1.394 1_554 S
C225 C224 1.397 . S
C225 C226 1.438 . S
C225 C230 1.429 . S
C226 C225 1.438 . S
C226 C227 1.428 . S
C226 C239 1.392 1_554 S
C227 H219 0.949 . S
C227 C226 1.428 . S
C227 C228 1.345 . S
C228 H220 0.950 . S
C228 C227 1.345 . S
C228 C229 1.424 . S
C229 H221 0.951 . S
C229 C228 1.424 . S
C229 C230 1.347 . S
C230 H222 0.951 . S
C230 C225 1.429 . S
C230 C229 1.347 . S
H231 C232 0.951 . S
C232 H231 0.951 . S
C232 C238 1.265 1_554 S
H233 C238 0.950 . S
H234 C242 0.949 . S
H235 C243 0.950 . S
H236 C244 0.951 . S
H237 C245 0.951 . S
C238 C232 1.265 1_556 S
C238 H233 0.950 . S
C238 C239 1.478 . S
C239 C226 1.392 1_556 S
C239 C238 1.478 . S
C239 C240 1.398 . S
C240 C239 1.398 . S
C240 C241 1.438 . S
C240 C245 1.429 . S
C241 C224 1.394 1_556 S
C241 C240 1.438 . S
C241 C242 1.428 . S
C242 H234 0.949 . S
C242 C241 1.428 . S
C242 C243 1.345 . S
C243 H235 0.950 . S
C243 C242 1.345 . S
C243 C244 1.424 . S
C244 H236 0.951 . S
C244 C243 1.424 . S
C244 C245 1.347 . S
C245 H237 0.951 . S
C245 C240 1.429 . S
C245 C244 1.347 . S
H246 C247 0.951 . S
C247 H246 0.951 . S
C247 C253 1.267 . S
H248 C253 0.946 1_556 S
H249 C257 0.949 . S
H250 C258 0.950 . S
H251 C259 0.951 . S
H252 C260 0.951 . S
C253 C247 1.267 . S
C253 H248 0.946 1_554 S
C253 C254 1.479 . S
C254 C253 1.479 . S
C254 C255 1.397 1_554 S
C254 C271 1.394 . S
C255 C254 1.397 1_556 S
C255 C256 1.438 . S
C255 C260 1.429 . S
C256 C255 1.438 . S
C256 C257 1.428 . S
C256 C269 1.394 1_556 S
C257 H249 0.949 . S
C257 C256 1.428 . S
C257 C258 1.345 . S
C258 H250 0.950 . S
C258 C257 1.345 . S
C258 C259 1.424 . S
C259 H251 0.951 . S
C259 C258 1.424 . S
C259 C260 1.347 . S
C260 H252 0.951 . S
C260 C255 1.429 . S
C260 C259 1.347 . S
H261 C262 0.952 . S
C262 H261 0.952 . S
C262 C268 1.265 . S
H263 C268 0.950 . S
H264 C272 0.949 . S
H265 C273 0.950 . S
H266 C274 0.951 . S
H267 C275 0.951 . S
C268 C262 1.265 . S
C268 H263 0.950 . S
C268 C269 1.478 . S
C269 C256 1.394 1_554 S
C269 C268 1.478 . S
C269 C270 1.397 . S
C270 C269 1.397 . S
C270 C271 1.438 . S
C270 C275 1.429 . S
C271 C254 1.394 . S
C271 C270 1.438 . S
C271 C272 1.428 . S
C272 H264 0.949 . S
C272 C271 1.428 . S
C272 C273 1.345 . S
C273 H265 0.950 . S
C273 C272 1.345 . S
C273 C274 1.424 . S
C274 H266 0.951 . S
C274 C273 1.424 . S
C274 C275 1.347 . S
C275 H267 0.951 . S
C275 C270 1.429 . S
C275 C274 1.347 . S
H276 C277 0.951 . S
C277 H276 0.951 . S
C277 C283 1.265 . S
H278 C283 0.950 . S
H279 C287 0.949 . S
H280 C288 0.950 . S
H281 C289 0.951 . S
H282 C290 0.951 . S
C283 C277 1.265 . S
C283 H278 0.950 . S
C283 C284 1.478 . S
C284 C283 1.478 . S
C284 C285 1.397 . S
C284 C301 1.394 . S
C285 C284 1.397 . S
C285 C286 1.438 . S
C285 C290 1.429 . S
C286 C285 1.438 . S
C286 C287 1.428 . S
C286 C299 1.394 . S
C287 H279 0.949 . S
C287 C286 1.428 . S
C287 C288 1.345 . S
C288 H280 0.950 . S
C288 C287 1.345 . S
C288 C289 1.424 . S
C289 H281 0.951 . S
C289 C288 1.424 . S
C289 C290 1.347 . S
C290 H282 0.951 . S
C290 C285 1.429 . S
C290 C289 1.347 . S
H291 C292 0.951 . S
C292 H291 0.951 . S
C292 C298 1.265 . S
H293 C298 0.950 . S
H294 C302 0.949 . S
H295 C303 0.950 . S
H296 C304 0.951 . S
H297 C305 0.951 . S
C298 C292 1.265 . S
C298 H293 0.950 . S
C298 C299 1.478 . S
C299 C286 1.394 . S
C299 C298 1.478 . S
C299 C300 1.397 . S
C300 C299 1.397 . S
C300 C301 1.438 . S
C300 C305 1.429 . S
C301 C284 1.394 . S
C301 C300 1.438 . S
C301 C302 1.428 . S
C302 H294 0.949 . S
C302 C301 1.428 . S
C302 C303 1.345 . S
C303 H295 0.950 . S
C303 C302 1.345 . S
C303 C304 1.424 . S
C304 H296 0.951 . S
C304 C303 1.424 . S
C304 C305 1.347 . S
C305 H297 0.951 . S
C305 C300 1.429 . S
C305 C304 1.347 . S
H306 C307 0.951 . S
C307 H306 0.951 . S
C307 C313 1.265 . S
H308 C313 0.950 . S
H309 C317 0.949 . S
H310 C318 0.950 . S
H311 C319 0.951 . S
H312 C320 0.951 . S
C313 C307 1.265 . S
C313 H308 0.950 . S
C313 C314 1.478 . S
C314 C313 1.478 . S
C314 C315 1.397 . S
C314 C331 1.394 . S
C315 C314 1.397 . S
C315 C316 1.438 . S
C315 C320 1.429 . S
C316 C315 1.438 . S
C316 C317 1.428 . S
C316 C329 1.394 . S
C317 H309 0.949 . S
C317 C316 1.428 . S
C317 C318 1.345 . S
C318 H310 0.950 . S
C318 C317 1.345 . S
C318 C319 1.424 . S
C319 H311 0.951 . S
C319 C318 1.424 . S
C319 C320 1.347 . S
C320 H312 0.951 . S
C320 C315 1.429 . S
C320 C319 1.347 . S
H321 C322 0.951 . S
C322 H321 0.951 . S
C322 C328 1.265 . S
H323 C328 0.950 . S
H324 C332 0.949 . S
H325 C333 0.950 . S
H326 C334 0.951 . S
H327 C335 0.951 . S
C328 C322 1.265 . S
C328 H323 0.950 . S
C328 C329 1.478 . S
C329 C316 1.394 . S
C329 C328 1.478 . S
C329 C330 1.397 . S
C330 C329 1.397 . S
C330 C331 1.438 . S
C330 C335 1.429 . S
C331 C314 1.394 . S
C331 C330 1.438 . S
C331 C332 1.428 . S
C332 H324 0.949 . S
C332 C331 1.428 . S
C332 C333 1.345 . S
C333 H325 0.950 . S
C333 C332 1.345 . S
C333 C334 1.424 . S
C334 H326 0.951 . S
C334 C333 1.424 . S
C334 C335 1.347 . S
C335 H327 0.951 . S
C335 C330 1.429 . S
C335 C334 1.347 . S
H336 C337 0.951 1_556 S
C337 H336 0.951 1_554 S
C337 C343 1.265 . S
H338 C343 0.950 . S
H339 C347 0.949 . S
H340 C348 0.950 . S
H341 C349 0.951 . S
H342 C350 0.951 . S
C343 C337 1.265 . S
C343 H338 0.950 . S
C343 C344 1.478 . S
C344 C343 1.478 . S
C344 C345 1.397 . S
C344 C361 1.394 1_554 S
C345 C344 1.397 . S
C345 C346 1.438 . S
C345 C350 1.429 . S
C346 C345 1.438 . S
C346 C347 1.428 . S
C346 C359 1.394 . S
C347 H339 0.949 . S
C347 C346 1.428 . S
C347 C348 1.345 . S
C348 H340 0.950 . S
C348 C347 1.345 . S
C348 C349 1.424 . S
C349 H341 0.951 . S
C349 C348 1.424 . S
C349 C350 1.347 . S
C350 H342 0.951 . S
C350 C345 1.429 . S
C350 C349 1.347 . S
H351 C352 0.951 . S
C352 H351 0.951 . S
C352 C358 1.262 1_554 S
H353 C358 0.955 . S
H354 C362 0.949 . S
H355 C363 0.950 . S
H356 C364 0.951 . S
H357 C365 0.951 . S
C358 C352 1.262 1_556 S
C358 H353 0.955 . S
C358 C359 1.477 1_556 S
C359 C346 1.394 . S
C359 C358 1.477 1_554 S
C359 C360 1.397 1_554 S
C360 C359 1.397 1_556 S
C360 C361 1.438 . S
C360 C365 1.429 . S
C361 C344 1.394 1_556 S
C361 C360 1.438 . S
C361 C362 1.428 . S
C362 H354 0.949 . S
C362 C361 1.428 . S
C362 C363 1.345 . S
C363 H355 0.950 . S
C363 C362 1.345 . S
C363 C364 1.424 . S
C364 H356 0.951 . S
C364 C363 1.424 . S
C364 C365 1.347 . S
C365 H357 0.951 . S
C365 C360 1.429 . S
C365 C364 1.347 . S
H366 C367 0.951 . S
C367 H366 0.951 . S
C367 C373 1.265 . S
H368 C373 0.950 . S
H369 C377 0.949 . S
H370 C378 0.950 . S
H371 C379 0.951 . S
H372 C380 0.951 . S
C373 C367 1.265 . S
C373 H368 0.950 . S
C373 C374 1.478 . S
C374 C373 1.478 . S
C374 C375 1.397 . S
C374 C391 1.394 . S
C375 C374 1.397 . S
C375 C376 1.438 . S
C375 C380 1.429 . S
C376 C375 1.438 . S
C376 C377 1.428 . S
C376 C389 1.394 . S
C377 H369 0.949 . S
C377 C376 1.428 . S
C377 C378 1.345 . S
C378 H370 0.950 . S
C378 C377 1.345 . S
C378 C379 1.424 . S
C379 H371 0.951 . S
C379 C378 1.424 . S
C379 C380 1.347 . S
C380 H372 0.951 . S
C380 C375 1.429 . S
C380 C379 1.347 . S
H381 C382 0.951 . S
C382 H381 0.951 . S
C382 C388 1.265 . S
H383 C388 0.950 . S
H384 C392 0.949 . S
H385 C393 0.950 . S
H386 C394 0.951 . S
H387 C395 0.951 . S
C388 C382 1.265 . S
C388 H383 0.950 . S
C388 C389 1.478 . S
C389 C376 1.394 . S
C389 C388 1.478 . S
C389 C390 1.397 . S
C390 C389 1.397 . S
C390 C391 1.438 . S
C390 C395 1.429 . S
C391 C374 1.394 . S
C391 C390 1.438 . S
C391 C392 1.428 . S
C392 H384 0.949 . S
C392 C391 1.428 . S
C392 C393 1.345 . S
C393 H385 0.950 . S
C393 C392 1.345 . S
C393 C394 1.424 . S
C394 H386 0.951 . S
C394 C393 1.424 . S
C394 C395 1.347 . S
C395 H387 0.951 . S
C395 C390 1.429 . S
C395 C394 1.347 . S
H396 C397 0.951 1_556 S
C397 H396 0.951 1_554 S
C397 C403 1.265 . S
H398 C403 0.950 . S
H399 C407 0.949 . S
H400 C408 0.950 . S
H401 C409 0.951 1_545 S
H402 C410 0.951 . S
C403 C397 1.265 . S
C403 H398 0.950 . S
C403 C404 1.478 . S
C404 C403 1.478 . S
C404 C405 1.397 . S
C404 C421 1.394 1_554 S
C405 C404 1.397 . S
C405 C406 1.438 1_445 S
C405 C410 1.429 . S
C406 C405 1.438 1_665 S
C406 C407 1.428 . S
C406 C419 1.382 1_554 S
C407 H399 0.949 . S
C407 C406 1.428 . S
C407 C408 1.345 . S
C408 H400 0.950 . S
C408 C407 1.345 . S
C408 C409 1.424 1_655 S
C409 H401 0.951 1_565 S
C409 C408 1.424 1_455 S
C409 C410 1.347 1_565 S
C410 H402 0.951 . S
C410 C405 1.429 . S
C410 C409 1.347 1_545 S
H411 C412 0.951 . S
C412 H411 0.951 . S
C412 C418 1.265 1_554 S
H413 C418 0.950 . S
H414 C422 0.949 . S
H415 C423 0.950 . S
H416 C424 0.951 1_565 S
H417 C425 0.951 . S
C418 C412 1.265 1_556 S
C418 H413 0.950 . S
C418 C419 1.480 . S
C419 C406 1.382 1_556 S
C419 C418 1.480 . S
C419 C420 1.407 . S
C420 C419 1.407 . S
C420 C421 1.438 1_665 S
C420 C425 1.429 . S
C421 C404 1.394 1_556 S
C421 C420 1.438 1_445 S
C421 C422 1.428 . S
C422 H414 0.949 . S
C422 C421 1.428 . S
C422 C423 1.345 . S
C423 H415 0.950 . S
C423 C422 1.345 . S
C423 C424 1.424 1_455 S
C424 H416 0.951 1_545 S
C424 C423 1.424 1_655 S
C424 C425 1.347 1_545 S
C425 H417 0.951 . S
C425 C420 1.429 . S
C425 C424 1.347 1_565 S
H426 C427 0.951 . S
C427 H426 0.951 . S
C427 C433 1.265 . S
H428 C433 0.950 . S
H429 C437 0.949 . S
H430 C438 0.950 1_565 S
H431 C439 0.951 . S
H432 C440 0.951 1_655 S
C433 C427 1.265 . S
C433 H428 0.950 . S
C433 C434 1.478 . S
C434 C433 1.478 . S
C434 C435 1.397 1_655 S
C434 C451 1.394 . S
C435 C434 1.397 1_455 S
C435 C436 1.438 1_545 S
C435 C440 1.429 . S
C436 C435 1.438 1_565 S
C436 C437 1.428 . S
C436 C449 1.394 . S
C437 H429 0.949 . S
C437 C436 1.428 . S
C437 C438 1.345 1_565 S
C438 H430 0.950 1_545 S
C438 C437 1.345 1_545 S
C438 C439 1.424 . S
C439 H431 0.951 . S
C439 C438 1.424 . S
C439 C440 1.347 . S
C440 H432 0.951 1_455 S
C440 C435 1.429 . S
C440 C439 1.347 . S
H441 C442 0.951 . S
C442 H441 0.951 . S
C442 C448 1.265 . S
H443 C448 0.950 . S
H444 C452 0.949 . S
H445 C453 0.950 1_545 S
H446 C454 0.951 . S
H447 C455 0.951 1_455 S
C448 C442 1.265 . S
C448 H443 0.950 . S
C448 C449 1.478 . S
C449 C436 1.394 . S
C449 C448 1.478 . S
C449 C450 1.397 1_455 S
C450 C449 1.397 1_655 S
C450 C451 1.438 1_565 S
C450 C455 1.429 . S
C451 C434 1.394 . S
C451 C450 1.438 1_545 S
C451 C452 1.428 . S
C452 H444 0.949 . S
C452 C451 1.428 . S
C452 C453 1.345 1_545 S
C453 H445 0.950 1_565 S
C453 C452 1.345 1_565 S
C453 C454 1.424 . S
C454 H446 0.951 . S
C454 C453 1.424 . S
C454 C455 1.347 . S
C455 H447 0.951 1_655 S
C455 C450 1.429 . S
C455 C454 1.347 . S
H456 C457 0.951 . S
C457 H456 0.951 . S
C457 C463 1.265 . S
H458 C463 0.950 . S
H459 C467 0.949 . S
H460 C468 0.950 . S
H461 C469 0.951 . S
H462 C470 0.951 . S
C463 C457 1.265 . S
C463 H458 0.950 . S
C463 C464 1.478 . S
C464 C463 1.478 . S
C464 C465 1.397 . S
C464 C481 1.394 . S
C465 C464 1.397 . S
C465 C466 1.438 . S
C465 C470 1.429 . S
C466 C465 1.438 . S
C466 C467 1.428 . S
C466 C479 1.394 . S
C467 H459 0.949 . S
C467 C466 1.428 . S
C467 C468 1.345 . S
C468 H460 0.950 . S
C468 C467 1.345 . S
C468 C469 1.424 . S
C469 H461 0.951 . S
C469 C468 1.424 . S
C469 C470 1.347 . S
C470 H462 0.951 . S
C470 C465 1.429 . S
C470 C469 1.347 . S
H471 C472 0.951 . S
C472 H471 0.951 . S
C472 C478 1.265 . S
H473 C478 0.950 . S
H474 C482 0.949 . S
H475 C483 0.950 . S
H476 C484 0.951 . S
H477 C485 0.951 . S
C478 C472 1.265 . S
C478 H473 0.950 . S
C478 C479 1.478 . S
C479 C466 1.394 . S
C479 C478 1.478 . S
C479 C480 1.397 . S
C480 C479 1.397 . S
C480 C481 1.438 . S
C480 C485 1.429 . S
C481 C464 1.394 . S
C481 C480 1.438 . S
C481 C482 1.428 . S
C482 H474 0.949 . S
C482 C481 1.428 . S
C482 C483 1.345 . S
C483 H475 0.950 . S
C483 C482 1.345 . S
C483 C484 1.424 . S
C484 H476 0.951 . S
C484 C483 1.424 . S
C484 C485 1.347 . S
C485 H477 0.951 . S
C485 C480 1.429 . S
C485 C484 1.347 . S
H486 C487 0.951 . S
C487 H486 0.951 . S
C487 C493 1.265 . S
H488 C493 0.950 . S
H489 C497 0.949 . S
H490 C498 0.950 . S
H491 C499 0.951 . S
H492 C500 0.951 . S
C493 C487 1.265 . S
C493 H488 0.950 . S
C493 C494 1.478 . S
C494 C493 1.478 . S
C494 C495 1.397 . S
C494 C511 1.394 . S
C495 C494 1.397 . S
C495 C496 1.438 . S
C495 C500 1.429 . S
C496 C495 1.438 . S
C496 C497 1.428 . S
C496 C509 1.394 . S
C497 H489 0.949 . S
C497 C496 1.428 . S
C497 C498 1.345 . S
C498 H490 0.950 . S
C498 C497 1.345 . S
C498 C499 1.424 . S
C499 H491 0.951 . S
C499 C498 1.424 . S
C499 C500 1.347 . S
C500 H492 0.951 . S
C500 C495 1.429 . S
C500 C499 1.347 . S
H501 C502 0.951 . S
C502 H501 0.951 . S
C502 C508 1.265 . S
H503 C508 0.950 . S
H504 C512 0.949 . S
H505 C513 0.950 . S
H506 C514 0.951 . S
H507 C515 0.951 . S
C508 C502 1.265 . S
C508 H503 0.950 . S
C508 C509 1.478 . S
C509 C496 1.394 . S
C509 C508 1.478 . S
C509 C510 1.397 . S
C510 C509 1.397 . S
C510 C511 1.438 . S
C510 C515 1.429 . S
C511 C494 1.394 . S
C511 C510 1.438 . S
C511 C512 1.428 . S
C512 H504 0.949 . S
C512 C511 1.428 . S
C512 C513 1.345 . S
C513 H505 0.950 . S
C513 C512 1.345 . S
C513 C514 1.424 . S
C514 H506 0.951 . S
C514 C513 1.424 . S
C514 C515 1.347 . S
C515 H507 0.951 . S
C515 C510 1.429 . S
C515 C514 1.347 . S
H516 C517 0.951 . S
C517 H516 0.951 . S
C517 C523 1.265 . S
H518 C523 0.950 . S
H519 C527 0.949 . S
H520 C528 0.950 . S
H521 C529 0.951 . S
H522 C530 0.951 . S
C523 C517 1.265 . S
C523 H518 0.950 . S
C523 C524 1.478 . S
C524 C523 1.478 . S
C524 C525 1.397 . S
C524 C541 1.394 . S
C525 C524 1.397 . S
C525 C526 1.438 . S
C525 C530 1.429 . S
C526 C525 1.438 . S
C526 C527 1.428 . S
C526 C539 1.394 . S
C527 H519 0.949 . S
C527 C526 1.428 . S
C527 C528 1.345 . S
C528 H520 0.950 . S
C528 C527 1.345 . S
C528 C529 1.424 . S
C529 H521 0.951 . S
C529 C528 1.424 . S
C529 C530 1.347 . S
C530 H522 0.951 . S
C530 C525 1.429 . S
C530 C529 1.347 . S
H531 C532 0.951 . S
C532 H531 0.951 . S
C532 C538 1.265 . S
H533 C538 0.950 . S
H534 C542 0.949 . S
H535 C543 0.950 . S
H536 C544 0.951 . S
H537 C545 0.951 . S
C538 C532 1.265 . S
C538 H533 0.950 . S
C538 C539 1.478 . S
C539 C526 1.394 . S
C539 C538 1.478 . S
C539 C540 1.397 . S
C540 C539 1.397 . S
C540 C541 1.438 . S
C540 C545 1.429 . S
C541 C524 1.394 . S
C541 C540 1.438 . S
C541 C542 1.428 . S
C542 H534 0.949 . S
C542 C541 1.428 . S
C542 C543 1.345 . S
C543 H535 0.950 . S
C543 C542 1.345 . S
C543 C544 1.424 . S
C544 H536 0.951 . S
C544 C543 1.424 . S
C544 C545 1.347 . S
C545 H537 0.951 . S
C545 C540 1.429 . S
C545 C544 1.347 . S
H546 C547 0.951 . S
C547 H546 0.951 . S
C547 C553 1.265 . S
H548 C553 0.950 . S
H549 C557 0.949 . S
H550 C558 0.950 . S
H551 C559 0.951 . S
H552 C560 0.951 . S
C553 C547 1.265 . S
C553 H548 0.950 . S
C553 C554 1.478 . S
C554 C553 1.478 . S
C554 C555 1.397 . S
C554 C571 1.394 . S
C555 C554 1.397 . S
C555 C556 1.438 . S
C555 C560 1.429 . S
C556 C555 1.438 . S
C556 C557 1.428 . S
C556 C569 1.394 . S
C557 H549 0.949 . S
C557 C556 1.428 . S
C557 C558 1.345 . S
C558 H550 0.950 . S
C558 C557 1.345 . S
C558 C559 1.424 . S
C559 H551 0.951 . S
C559 C558 1.424 . S
C559 C560 1.347 . S
C560 H552 0.951 . S
C560 C555 1.429 . S
C560 C559 1.347 . S
H561 C562 0.951 . S
C562 H561 0.951 . S
C562 C568 1.265 . S
H563 C568 0.950 . S
H564 C572 0.949 . S
H565 C573 0.950 . S
H566 C574 0.951 . S
H567 C575 0.951 . S
C568 C562 1.265 . S
C568 H563 0.950 . S
C568 C569 1.478 . S
C569 C556 1.394 . S
C569 C568 1.478 . S
C569 C570 1.397 . S
C570 C569 1.397 . S
C570 C571 1.438 . S
C570 C575 1.429 . S
C571 C554 1.394 . S
C571 C570 1.438 . S
C571 C572 1.428 . S
C572 H564 0.949 . S
C572 C571 1.428 . S
C572 C573 1.345 . S
C573 H565 0.950 . S
C573 C572 1.345 . S
C573 C574 1.424 . S
C574 H566 0.951 . S
C574 C573 1.424 . S
C574 C575 1.347 . S
C575 H567 0.951 . S
C575 C570 1.429 . S
C575 C574 1.347 . S
H576 C577 0.951 . S
C577 H576 0.951 . S
C577 C583 1.265 . S
H578 C583 0.950 . S
H579 C587 0.949 . S
H580 C588 0.950 . S
H581 C589 0.951 . S
H582 C590 0.951 1_455 S
C583 C577 1.265 . S
C583 H578 0.950 . S
C583 C584 1.478 . S
C584 C583 1.478 . S
C584 C585 1.397 1_455 S
C584 C601 1.394 . S
C585 C584 1.397 1_655 S
C585 C586 1.438 . S
C585 C590 1.429 . S
C586 C585 1.438 . S
C586 C587 1.428 . S
C586 C599 1.394 . S
C587 H579 0.949 . S
C587 C586 1.428 . S
C587 C588 1.345 . S
C588 H580 0.950 . S
C588 C587 1.345 . S
C588 C589 1.424 . S
C589 H581 0.951 . S
C589 C588 1.424 . S
C589 C590 1.347 . S
C590 H582 0.951 1_655 S
C590 C585 1.429 . S
C590 C589 1.347 . S
H591 C592 0.951 . S
C592 H591 0.951 . S
C592 C598 1.265 . S
H593 C598 0.950 . S
H594 C602 0.949 . S
H595 C603 0.950 . S
H596 C604 0.951 . S
H597 C605 0.951 1_655 S
C598 C592 1.265 . S
C598 H593 0.950 . S
C598 C599 1.478 . S
C599 C586 1.394 . S
C599 C598 1.478 . S
C599 C600 1.397 1_655 S
C600 C599 1.397 1_455 S
C600 C601 1.438 . S
C600 C605 1.429 . S
C601 C584 1.394 . S
C601 C600 1.438 . S
C601 C602 1.428 . S
C602 H594 0.949 . S
C602 C601 1.428 . S
C602 C603 1.345 . S
C603 H595 0.950 . S
C603 C602 1.345 . S
C603 C604 1.424 . S
C604 H596 0.951 . S
C604 C603 1.424 . S
C604 C605 1.347 . S
C605 H597 0.951 1_455 S
C605 C600 1.429 . S
C605 C604 1.347 . S
H606 C607 0.951 . S
C607 H606 0.951 . S
C607 C613 1.265 . S
H608 C613 0.950 . S
H609 C617 0.949 . S
H610 C618 0.950 . S
H611 C619 0.951 . S
H612 C620 0.951 . S
C613 C607 1.265 . S
C613 H608 0.950 . S
C613 C614 1.478 . S
C614 C613 1.478 . S
C614 C615 1.397 1_655 S
C614 C631 1.394 . S
C615 C614 1.397 1_455 S
C615 C616 1.438 . S
C615 C620 1.429 . S
C616 C615 1.438 . S
C616 C617 1.428 . S
C616 C629 1.394 . S
C617 H609 0.949 . S
C617 C616 1.428 . S
C617 C618 1.345 . S
C618 H610 0.950 . S
C618 C617 1.345 . S
C618 C619 1.424 . S
C619 H611 0.951 . S
C619 C618 1.424 . S
C619 C620 1.347 . S
C620 H612 0.951 . S
C620 C615 1.429 . S
C620 C619 1.347 . S
H621 C622 0.951 . S
C622 H621 0.951 . S
C622 C628 1.265 . S
H623 C628 0.950 . S
H624 C632 0.949 . S
H625 C633 0.950 . S
H626 C634 0.951 . S
H627 C635 0.951 . S
C628 C622 1.265 . S
C628 H623 0.950 . S
C628 C629 1.478 . S
C629 C616 1.394 . S
C629 C628 1.478 . S
C629 C630 1.397 1_455 S
C630 C629 1.397 1_655 S
C630 C631 1.438 . S
C630 C635 1.429 . S
C631 C614 1.394 . S
C631 C630 1.438 . S
C631 C632 1.428 . S
C632 H624 0.949 . S
C632 C631 1.428 . S
C632 C633 1.345 . S
C633 H625 0.950 . S
C633 C632 1.345 . S
C633 C634 1.424 . S
C634 H626 0.951 . S
C634 C633 1.424 . S
C634 C635 1.347 . S
C635 H627 0.951 . S
C635 C630 1.429 . S
C635 C634 1.347 . S
H636 C637 0.951 . S
C637 H636 0.951 . S
C637 C643 1.265 . S
H638 C643 0.950 . S
H639 C647 0.949 . S
H640 C648 0.950 . S
H641 C649 0.951 . S
H642 C650 0.951 . S
C643 C637 1.265 . S
C643 H638 0.950 . S
C643 C644 1.478 . S
C644 C643 1.478 . S
C644 C645 1.397 . S
C644 C661 1.394 . S
C645 C644 1.397 . S
C645 C646 1.438 1_455 S
C645 C650 1.429 . S
C646 C645 1.438 1_655 S
C646 C647 1.428 . S
C646 C659 1.394 . S
C647 H639 0.949 . S
C647 C646 1.428 . S
C647 C648 1.345 1_655 S
C648 H640 0.950 . S
C648 C647 1.345 1_455 S
C648 C649 1.424 . S
C649 H641 0.951 . S
C649 C648 1.424 . S
C649 C650 1.347 . S
C650 H642 0.951 . S
C650 C645 1.429 . S
C650 C649 1.347 . S
H651 C652 0.951 . S
C652 H651 0.951 . S
C652 C658 1.265 . S
H653 C658 0.950 . S
H654 C662 0.949 . S
H655 C663 0.950 . S
H656 C664 0.951 . S
H657 C665 0.951 . S
C658 C652 1.265 . S
C658 H653 0.950 . S
C658 C659 1.478 . S
C659 C646 1.394 . S
C659 C658 1.478 . S
C659 C660 1.397 . S
C660 C659 1.397 . S
C660 C661 1.438 1_655 S
C660 C665 1.429 . S
C661 C644 1.394 . S
C661 C660 1.438 1_455 S
C661 C662 1.428 . S
C662 H654 0.949 . S
C662 C661 1.428 . S
C662 C663 1.345 1_455 S
C663 H655 0.950 . S
C663 C662 1.345 1_655 S
C663 C664 1.424 . S
C664 H656 0.951 . S
C664 C663 1.424 . S
C664 C665 1.347 . S
C665 H657 0.951 . S
C665 C660 1.429 . S
C665 C664 1.347 . S
H666 C667 0.951 . S
C667 H666 0.951 . S
C667 C673 1.265 . S
H668 C673 0.950 . S
H669 C677 0.949 . S
H670 C678 0.950 . S
H671 C679 0.951 . S
H672 C680 0.951 . S
C673 C667 1.265 . S
C673 H668 0.950 . S
C673 C674 1.478 . S
C674 C673 1.478 . S
C674 C675 1.397 1_455 S
C674 C691 1.394 . S
C675 C674 1.397 1_655 S
C675 C676 1.438 . S
C675 C680 1.429 . S
C676 C675 1.438 . S
C676 C677 1.428 . S
C676 C689 1.394 . S
C677 H669 0.949 . S
C677 C676 1.428 . S
C677 C678 1.345 . S
C678 H670 0.950 . S
C678 C677 1.345 . S
C678 C679 1.424 . S
C679 H671 0.951 . S
C679 C678 1.424 . S
C679 C680 1.347 . S
C680 H672 0.951 . S
C680 C675 1.429 . S
C680 C679 1.347 . S
H681 C682 0.951 . S
C682 H681 0.951 . S
C682 C688 1.265 . S
H683 C688 0.950 . S
H684 C692 0.949 . S
H685 C693 0.950 . S
H686 C694 0.951 . S
H687 C695 0.951 . S
C688 C682 1.265 . S
C688 H683 0.950 . S
C688 C689 1.478 . S
C689 C676 1.394 . S
C689 C688 1.478 . S
C689 C690 1.397 1_655 S
C690 C689 1.397 1_455 S
C690 C691 1.438 . S
C690 C695 1.429 . S
C691 C674 1.394 . S
C691 C690 1.438 . S
C691 C692 1.428 . S
C692 H684 0.949 . S
C692 C691 1.428 . S
C692 C693 1.345 . S
C693 H685 0.950 . S
C693 C692 1.345 . S
C693 C694 1.424 . S
C694 H686 0.951 . S
C694 C693 1.424 . S
C694 C695 1.347 . S
C695 H687 0.951 . S
C695 C690 1.429 . S
C695 C694 1.347 . S
C217 C35 0.628 . S
C232 C28 0.626 . S
C247 C89 0.373 . S
C262 C82 0.373 . S
C277 C136 0.628 . S
C292 C143 0.630 . S
C307 C190 0.373 . S
C322 C197 0.373 . S
C337 C64 1.677 . S
C352 C27 1.677 . S
C367 C189 1.700 . S
C382 C118 1.700 . S
C397 C10 1.678 . S
C412 C81 1.678 . S
C427 C172 1.701 . S
C442 C135 1.701 . S
C457 C184 1.793 . S
C472 C22 1.793 . S
C487 C59 1.719 . S
C502 C113 1.719 . S
C517 C140 1.705 . S
C532 C86 1.705 . S
C547 C13 1.705 . S
C562 C175 1.705 . S
C577 C130 1.792 . S
C592 C76 1.792 . S
C607 C167 1.793 . S
C622 C5 1.793 . S
C637 C32 1.705 . S
C652 C194 1.705 . S
C667 C121 1.779 . S
C682 C67 1.779 . S
