# Generated by pormake.
# Topology qtz-x, (6)-cn, num edge types: 1
# Building blocks:
#     Node 0, Type 0, BuildingBlock: KUMBUR_clean_sbu_0, # of connection points: 6
#     Node 1, Type 0, BuildingBlock: KUMBUR_clean_sbu_0, # of connection points: 6
#     Node 2, Type 0, BuildingBlock: KUMBUR_clean_sbu_0, # of connection points: 6
#     Edge 3, Type (0, 0), BuildingBlock: TEMPAE_clean_linker_10, # of connection points: 2
#     Edge 4, Type (0, 0), BuildingBlock: TEMPAE_clean_linker_10, # of connection points: 2
#     Edge 5, Type (0, 0), BuildingBlock: TEMPAE_clean_linker_10, # of connection points: 2
#     Edge 6, Type (0, 0), BuildingBlock: TEMPAE_clean_linker_10, # of connection points: 2
#     Edge 7, Type (0, 0), BuildingBlock: TEMPAE_clean_linker_10, # of connection points: 2
#     Edge 8, Type (0, 0), BuildingBlock: TEMPAE_clean_linker_10, # of connection points: 2
#     Edge 9, Type (0, 0), BuildingBlock: TEMPAE_clean_linker_10, # of connection points: 2
#     Edge 10, Type (0, 0), BuildingBlock: TEMPAE_clean_linker_10, # of connection points: 2
#     Edge 11, Type (0, 0), BuildingBlock: TEMPAE_clean_linker_10, # of connection points: 2
# Relax obj value: 0.164
# Max RMSD: 0.279
# Mean RMSD: 0.279
data_MOF--net-qtz-x--node1-KUMBUR_clean_sbu_0--edge1-TEMPAE_clean_linker_10
_symmetry_space_group_name_H-M    P1
_symmetry_Int_Tables_number       1
_symmetry_cell_setting            triclinic
loop_
_symmetry_equiv_pos_as_xyz
'x, y, z'
_cell_length_a     15.24956
_cell_length_b     15.245708
_cell_length_c     51.338734
_cell_angle_alpha  89.979148
_cell_angle_beta   89.900798
_cell_angle_gamma 120.06807
loop_
_atom_site_label
_atom_site_type_symbol
_atom_site_fract_x
_atom_site_fract_y
_atom_site_fract_z
_atom_type_partial_charge
Tb0 Tb 0.25149 0.48173 0.20079 0.0
C1 C 0.82785 0.38266 0.16045 0.0
C2 C 0.70827 0.23198 0.18395 0.0
C3 C 0.65084 0.33733 0.16315 0.0
C4 C 0.8075 0.29831 0.17487 0.0
C5 C 0.74974 0.40299 0.15421 0.0
C6 C 0.63034 0.25261 0.17826 0.0
C7 C 0.87131 0.54747 0.12928 0.0
N8 N 0.92335 0.44188 0.15134 0.0
C9 C 0.94558 0.5228 0.1355 0.0
C10 C 0.77274 0.48696 0.13855 0.0
Tb11 Tb 0.03549 0.38623 0.15882 0.0
N12 N 0.88348 0.27778 0.17854 0.0
C13 C 0.86337 0.18888 0.19025 0.0
C14 C 0.68939 0.14455 0.19743 0.0
C15 C 0.76726 0.12267 0.20046 0.0
H16 H 0.02084 0.56919 0.12768 0.0
H17 H 0.75285 0.05367 0.21018 0.0
H18 H 0.55351 0.20219 0.18488 0.0
H19 H 0.88982 0.61226 0.11702 0.0
H20 H 0.92096 0.16799 0.19197 0.0
H21 H 0.50926 0.82647 0.14701 0.0
H22 H 0.61436 0.09191 0.20481 0.0
H23 H 0.29397 0.31068 0.23013 0.0
H24 H 0.35098 0.70923 0.16769 0.0
H25 H 0.43559 0.27921 0.23559 0.0
H26 H 0.5895 0.35078 0.15825 0.0
H27 H 0.65069 0.79183 0.14601 0.0
H28 H 0.72173 0.68409 0.16 0.0
H29 H 0.71482 0.50497 0.13324 0.0
H30 H 0.70441 0.54014 0.1856 0.0
N31 N 0.39581 0.60178 0.17914 0.0
C32 C 0.40981 0.69044 0.16836 0.0
C33 C 0.57995 0.73825 0.15533 0.0
C34 C 0.5684 0.65113 0.16744 0.0
C35 C 0.50067 0.75838 0.15603 0.0
C36 C 0.47439 0.58309 0.17922 0.0
H37 H 0.59904 0.39008 0.2138 0.0
N38 N 0.37378 0.4367 0.20455 0.0
C39 C 0.44447 0.34108 0.22339 0.0
C40 C 0.46346 0.49891 0.19256 0.0
C41 C 0.36437 0.35981 0.22037 0.0
C42 C 0.53627 0.40332 0.2109 0.0
C43 C 0.54691 0.48343 0.19535 0.0
O44 O 0.20909 0.52968 0.23502 0.0
O45 O 0.08848 0.40593 0.19855 0.0
O46 O 0.04273 0.51321 0.18022 0.0
O47 O 0.21447 0.5998 0.19134 0.0
O48 O 0.14976 0.34408 0.22214 0.0
O49 O 0.35773 0.55302 0.23107 0.0
O50 O 0.03112 0.39174 0.11783 0.0
O51 O 0.19879 0.45537 0.16111 0.0
O52 O 0.23307 0.3414 0.1844 0.0
O53 O 0.07074 0.26536 0.16617 0.0
O54 O 0.14266 0.51496 0.1353 0.0
O55 O 0.96843 0.24902 0.13811 0.0
C56 C 0.06539 0.33801 0.2156 0.0
C57 C 0.28816 0.51697 0.27351 0.0
C58 C 0.32084 0.54431 0.32057 0.0
C59 C 0.31873 0.58165 0.29537 0.0
C60 C 0.29123 0.44099 0.32316 0.0
C61 C 0.25654 0.41421 0.27726 0.0
C62 C 0.25786 0.37666 0.3018 0.0
C63 C 0.12666 0.59633 0.18749 0.0
C64 C 0.29387 0.55755 0.24686 0.0
C65 C 0.6395 0.55037 0.1834 0.0
C66 C 0.64961 0.63281 0.16905 0.0
C67 C 0.22481 0.52021 0.14321 0.0
C68 C 0.88757 0.25349 0.099 0.0
C69 C 0.8988 0.27967 0.0724 0.0
C70 C 0.81334 0.24469 0.05617 0.0
C71 C 0.71651 0.1818 0.06688 0.0
C72 C 0.79 0.19071 0.10922 0.0
C73 C 0.7052 0.15505 0.09318 0.0
C74 C 0.15303 0.26403 0.17362 0.0
C75 C 0.97821 0.29362 0.11573 0.0
H76 H 0.34086 0.66046 0.29257 0.0
H77 H 0.29564 0.40915 0.34161 0.0
H78 H 0.23227 0.36211 0.26139 0.0
H79 H 0.23473 0.2974 0.30418 0.0
H80 H 0.97386 0.32926 0.06453 0.0
H81 H 0.64939 0.15299 0.05485 0.0
H82 H 0.77899 0.16912 0.12957 0.0
H83 H 0.6303 0.10669 0.1012 0.0
Tb84 Tb 0.63005 0.94503 0.53122 0.0
C85 C 0.95078 0.38197 0.4948 0.0
C86 C 0.92589 0.49247 0.52386 0.0
C87 C 0.08442 0.55723 0.50019 0.0
C88 C 0.89027 0.39695 0.51204 0.0
C89 C 0.0481 0.46231 0.48832 0.0
C90 C 0.02396 0.57185 0.51823 0.0
C91 C 0.06135 0.3529 0.45655 0.0
N92 N 0.91114 0.29071 0.48286 0.0
C93 C 0.96331 0.27672 0.46311 0.0
C94 C 0.10426 0.44606 0.46932 0.0
Tb95 Tb 0.746 0.17432 0.49237 0.0
N96 N 0.79385 0.32032 0.51564 0.0
C97 C 0.72738 0.33716 0.52973 0.0
C98 C 0.86013 0.50692 0.53992 0.0
C99 C 0.76004 0.42912 0.54265 0.0
H100 H 0.9294 0.20668 0.45231 0.0
H101 H 0.70744 0.44032 0.5544 0.0
H102 H 0.05254 0.64567 0.5271 0.0
H103 H 0.1029 0.34043 0.44128 0.0
H104 H 0.64924 0.27926 0.53174 0.0
H105 H 0.69384 0.68613 0.47286 0.0
H106 H 0.88475 0.5789 0.54949 0.0
H107 H 0.43035 0.90968 0.56505 0.0
H108 H 0.74197 0.84578 0.49509 0.0
H109 H 0.25619 0.77148 0.57357 0.0
H110 H 0.15832 0.62029 0.4952 0.0
H111 H 0.51655 0.54534 0.4743 0.0
H112 H 0.34141 0.47444 0.49273 0.0
H113 H 0.17941 0.50571 0.46387 0.0
H114 H 0.22449 0.49533 0.52164 0.0
N115 N 0.592 0.80091 0.50806 0.0
C116 C 0.66375 0.78671 0.49578 0.0
C117 C 0.53679 0.61642 0.48382 0.0
C118 C 0.46504 0.62845 0.4979 0.0
C119 C 0.63692 0.69548 0.48309 0.0
C120 C 0.4953 0.72287 0.50981 0.0
H121 H 0.19225 0.60556 0.55202 0.0
N122 N 0.4632 0.82535 0.53755 0.0
C123 C 0.30385 0.76026 0.55992 0.0
C124 C 0.42888 0.73504 0.52547 0.0
C125 C 0.40264 0.8385 0.55498 0.0
C126 C 0.26778 0.66693 0.54759 0.0
C127 C 0.33049 0.65319 0.53016 0.0
O128 O 0.61756 0.92035 0.57189 0.0
O129 O 0.72103 0.10899 0.53114 0.0
O130 O 0.87278 0.16171 0.50686 0.0
O131 O 0.78666 0.99105 0.52016 0.0
O132 O 0.60986 0.04232 0.55862 0.0
O133 O 0.71532 0.8876 0.54861 0.0
O134 O 0.73117 0.17466 0.45163 0.0
O135 O 0.6553 0.01181 0.49336 0.0
O136 O 0.50694 0.95739 0.51332 0.0
O137 O 0.59206 0.13171 0.50519 0.0
O138 O 0.75838 0.07202 0.46438 0.0
O139 O 0.68167 0.25602 0.47601 0.0
C140 C 0.68324 0.12774 0.55081 0.0
C141 C 0.64006 0.78498 0.58573 0.0
C142 C 0.62122 0.69481 0.62658 0.0
C143 C 0.64963 0.7855 0.61301 0.0
C144 C 0.58108 0.60344 0.6126 0.0
C145 C 0.59977 0.69275 0.5722 0.0
C146 C 0.57002 0.60257 0.58562 0.0
C147 C 0.87 0.07707 0.51414 0.0
C148 C 0.67645 0.88142 0.57163 0.0
C149 C 0.29927 0.55952 0.51805 0.0
C150 C 0.36596 0.54756 0.50164 0.0
C151 C 0.68655 0.98793 0.47344 0.0
C152 C 0.75264 0.32693 0.43446 0.0
C153 C 0.76535 0.3103 0.40806 0.0
C154 C 0.81981 0.39229 0.39088 0.0
C155 C 0.85975 0.49154 0.40047 0.0
C156 C 0.79391 0.42681 0.44355 0.0
C157 C 0.84667 0.50838 0.42657 0.0
C158 C 0.50785 0.04339 0.50869 0.0
C159 C 0.69934 0.23915 0.45221 0.0
H160 H 0.68173 0.85659 0.62353 0.0
H161 H 0.55786 0.53249 0.6226 0.0
H162 H 0.59264 0.69032 0.55126 0.0
H163 H 0.53923 0.53186 0.57503 0.0
H164 H 0.73526 0.23336 0.4011 0.0
H165 H 0.90097 0.55634 0.38776 0.0
H166 H 0.78611 0.44211 0.46377 0.0
H167 H 0.87815 0.58512 0.43371 0.0
Tb168 Tb 0.67622 0.57244 0.8644 0.0
C169 C 0.79857 0.25592 0.83154 0.0
C170 C 0.94329 0.2929 0.85838 0.0
C171 C 0.8441 0.1262 0.83891 0.0
C172 C 0.87893 0.32308 0.84665 0.0
C173 C 0.78116 0.15722 0.82704 0.0
C174 C 0.92421 0.19351 0.85483 0.0
C175 C 0.64504 0.12957 0.79808 0.0
N176 N 0.74098 0.28944 0.81999 0.0
C177 C 0.666 0.22844 0.80294 0.0
C178 C 0.70315 0.09389 0.8101 0.0
Tb179 Tb 0.78975 0.45649 0.8261 0.0
N180 N 0.89772 0.41973 0.84849 0.0
C181 C 0.98381 0.4916 0.86064 0.0
C182 C 0.02735 0.3647 0.87236 0.0
C183 C 0.0482 0.46475 0.87327 0.0
H184 H 0.62174 0.25568 0.79311 0.0
H185 H 0.11457 0.52163 0.88344 0.0
H186 H 0.97284 0.169 0.86365 0.0
H187 H 0.58508 0.08148 0.78477 0.0
H188 H 0.00274 0.56979 0.86124 0.0
H189 H 0.3599 0.51519 0.80446 0.0
H190 H 0.07831 0.34445 0.88178 0.0
H191 H 0.82939 0.76473 0.90205 0.0
H192 H 0.46903 0.46498 0.82699 0.0
H193 H 0.86172 0.93576 0.91237 0.0
H194 H 0.83254 0.051 0.83555 0.0
H195 H 0.39338 0.69107 0.80783 0.0
H196 H 0.49244 0.86247 0.8286 0.0
H197 H 0.68832 0.01811 0.80581 0.0
H198 H 0.6257 0.97513 0.85913 0.0
N199 N 0.57195 0.61325 0.84134 0.0
C200 C 0.48778 0.54296 0.8282 0.0
C201 C 0.44382 0.67018 0.81727 0.0
C202 C 0.52497 0.7399 0.83242 0.0
C203 C 0.42451 0.57088 0.81541 0.0
C204 C 0.58872 0.70887 0.84417 0.0
H205 H 0.76464 0.00381 0.89017 0.0
N206 N 0.71877 0.73678 0.87293 0.0
C207 C 0.80605 0.89083 0.89778 0.0
C208 C 0.66421 0.77265 0.86086 0.0
C209 C 0.78748 0.79352 0.89175 0.0
C210 C 0.75144 0.92913 0.88514 0.0
C211 C 0.67846 0.86939 0.86668 0.0
O212 O 0.66114 0.57272 0.90532 0.0
O213 O 0.75347 0.48608 0.86442 0.0
O214 O 0.6584 0.33306 0.84532 0.0
O215 O 0.56706 0.41644 0.85224 0.0
O216 O 0.79654 0.59689 0.89152 0.0
O217 O 0.53146 0.4857 0.88093 0.0
O218 O 0.79534 0.45063 0.78515 0.0
O219 O 0.71637 0.54649 0.82602 0.0
O220 O 0.81257 0.69921 0.84736 0.0
O221 O 0.89992 0.61454 0.83603 0.0
O222 O 0.66864 0.43316 0.79941 0.0
O223 O 0.93229 0.52831 0.8077 0.0
C224 C 0.81183 0.52597 0.88355 0.0
C225 C 0.50498 0.55229 0.91987 0.0
C226 C 0.43678 0.5664 0.96181 0.0
C227 C 0.4964 0.53779 0.94705 0.0
C228 C 0.38763 0.61144 0.94906 0.0
C229 C 0.45531 0.59762 0.90761 0.0
C230 C 0.39734 0.62727 0.92218 0.0
C231 C 0.57308 0.33307 0.84986 0.0
C232 C 0.56307 0.51685 0.90451 0.0
C233 C 0.61675 0.90162 0.85469 0.0
C234 C 0.54076 0.83737 0.83736 0.0
C235 C 0.65778 0.5075 0.80689 0.0
C236 C 0.93804 0.44861 0.76836 0.0
C237 C 0.91871 0.43806 0.74138 0.0
C238 C 0.9571 0.38963 0.72548 0.0
C239 C 0.01677 0.35355 0.73694 0.0
C240 C -0.00251 0.41156 0.77934 0.0
C241 C 0.03686 0.36475 0.76364 0.0
C242 C 0.89622 0.69854 0.84036 0.0
C243 C 0.89371 0.49652 0.78463 0.0
H244 H 0.53394 0.50212 0.95659 0.0
H245 H 0.3421 0.6351 0.95994 0.0
H246 H 0.46017 0.60909 0.88677 0.0
H247 H 0.35916 0.662 0.91258 0.0
H248 H 0.87147 0.4651 0.73292 0.0
H249 H 0.04803 0.31667 0.72522 0.0
H250 H 0.0134 0.4184 0.80002 0.0
H251 H 0.0827 0.33646 0.77223 0.0
C252 C 0.21702 0.785 0.19055 0.0
C253 C 0.12562 0.69263 0.18858 0.0
C254 C 0.21944 0.87748 0.18792 0.0
C255 C 0.12772 0.87762 0.1842 0.0
C256 C 0.03448 0.7851 0.18387 0.0
C257 C 0.0346 0.69349 0.18589 0.0
C258 C 0.32043 0.97492 0.18853 0.0
C259 C 0.93473 0.78216 0.18064 0.0
C260 C 0.13639 0.12316 0.20043 0.0
C261 C 0.1459 0.16537 0.17569 0.0
C262 C 0.1279 0.02818 0.20343 0.0
C263 C 0.13 0.97516 0.18108 0.0
C264 C 0.13802 0.01707 0.15594 0.0
C265 C 0.14499 0.11206 0.15351 0.0
C266 C 0.11653 0.9846 0.23048 0.0
C267 C 0.14073 0.96228 0.13175 0.0
H268 H 0.28752 0.78567 0.19352 0.0
H269 H 0.96328 0.62264 0.18506 0.0
H270 H 0.33202 0.01738 0.17008 0.0
H271 H 0.32151 0.02408 0.2046 0.0
H272 H 0.38503 0.96144 0.1912 0.0
H273 H 0.87015 0.70811 0.18689 0.0
H274 H 0.93284 0.84307 0.192 0.0
H275 H 0.92414 0.79386 0.15981 0.0
H276 H 0.13418 0.1639 0.21747 0.0
H277 H 0.15126 0.1453 0.13443 0.0
H278 H 0.18166 0.97376 0.2349 0.0
H279 H 0.0469 0.90903 0.23158 0.0
H280 H 0.1123 0.03416 0.2457 0.0
H281 H 0.20621 0.94951 0.13265 0.0
H282 H 0.1469 0.00515 0.11368 0.0
H283 H 0.07112 0.88679 0.13065 0.0
C284 C 0.41262 0.13504 0.51306 0.0
C285 C 0.41158 0.04362 0.50895 0.0
C286 C 0.32273 0.13796 0.51419 0.0
C287 C 0.22957 0.04748 0.51049 0.0
C288 C 0.22765 0.95496 0.50584 0.0
C289 C 0.31906 0.95386 0.50547 0.0
C290 C 0.32759 0.23792 0.51948 0.0
C291 C 0.12944 0.85742 0.50128 0.0
C292 C -0.00382 0.04617 0.53593 0.0
C293 C 0.96376 0.07381 0.51356 0.0
C294 C 0.08234 0.03585 0.53518 0.0
C295 C 0.13469 0.05112 0.51131 0.0
C296 C 0.10019 0.07652 0.48852 0.0
C297 C 0.01502 0.08814 0.48999 0.0
C298 C 0.11829 0.01039 0.55992 0.0
C299 C 0.15293 0.091 0.46262 0.0
H300 H 0.48373 0.20469 0.51582 0.0
H301 H 0.31812 0.88317 0.50213 0.0
H302 H 0.29521 0.25854 0.50283 0.0
H303 H 0.28148 0.23108 0.53693 0.0
H304 H 0.4063 0.30071 0.52274 0.0
H305 H 0.14233 0.79566 0.49443 0.0
H306 H 0.08526 0.8328 0.51966 0.0
H307 H 0.08257 0.86885 0.48666 0.0
H308 H 0.95446 0.03344 0.554 0.0
H309 H 0.98655 0.10506 0.47255 0.0
H310 H 0.19604 0.07208 0.56461 0.0
H311 H 0.12193 0.94011 0.55722 0.0
H312 H 0.06804 -0.00032 0.57677 0.0
H313 H 0.23147 0.15597 0.46375 0.0
H314 H 0.11308 0.10536 0.44653 0.0
H315 H 0.15808 0.02276 0.4578 0.0
C316 C 0.07925 0.79615 0.82839 0.0
C317 C 0.99362 0.79505 0.83895 0.0
C318 C 0.17474 0.88373 0.82909 0.0
C319 C 0.18538 0.97175 0.84119 0.0
C320 C 0.09921 0.97219 0.85135 0.0
C321 C 0.00385 0.88437 0.8495 0.0
C322 C 0.26441 0.88156 0.8172 0.0
C323 C 0.10777 0.06453 0.86464 0.0
C324 C 0.44727 0.16193 0.86592 0.0
C325 C 0.47783 0.23803 0.84717 0.0
C326 C 0.35125 0.0747 0.86438 0.0
C327 C 0.28689 0.06333 0.84317 0.0
C328 C 0.31969 0.13924 0.82375 0.0
C329 C 0.41455 0.22667 0.82623 0.0
C330 C 0.31759 0.99614 0.88572 0.0
C331 C 0.25475 0.12828 0.80042 0.0
H332 H 0.07221 0.72817 0.81971 0.0
H333 H 0.93811 0.88531 0.85695 0.0
H334 H 0.30361 0.94467 0.80306 0.0
H335 H 0.31996 0.89249 0.83258 0.0
H336 H 0.24197 0.80899 0.80705 0.0
H337 H 0.03617 0.04781 0.87454 0.0
H338 H 0.16948 0.09438 0.87929 0.0
H339 H 0.12696 0.12528 0.85008 0.0
H340 H 0.49699 0.17227 0.88215 0.0
H341 H 0.43966 0.28636 0.81175 0.0
H342 H 0.30076 0.9221 0.87746 0.0
H343 H 0.24665 0.98535 0.89475 0.0
H344 H 0.37581 0.01776 0.90115 0.0
H345 H 0.23272 0.05607 0.79018 0.0
H346 H 0.29422 0.19184 0.78638 0.0
H347 H 0.18394 0.12546 0.80685 0.0
C348 C 0.50827 0.58225 1.00683 0.0
C349 C 0.42403 0.54905 0.99041 0.0
C350 C 0.49683 0.57704 0.03413 0.0
C351 C 0.39883 0.53696 0.04514 0.0
C352 C 0.31316 0.49771 0.02854 0.0
C353 C 0.32693 0.50475 1.00145 0.0
C354 C 0.58997 0.61963 0.05107 0.0
C355 C 0.20691 0.45259 0.03934 0.0
C356 C 0.32048 0.46185 0.11553 0.0
C357 C 0.3018 0.53924 0.12316 0.0
C358 C 0.3613 0.46387 0.09076 0.0
C359 C 0.38483 0.54578 0.07362 0.0
C360 C 0.37738 0.62954 0.08268 0.0
C361 C 0.33455 0.62447 0.10719 0.0
C362 C 0.36875 0.37338 0.08205 0.0
C363 C 0.40416 0.71987 0.06546 0.0
H364 H 0.58349 0.61662 0.99836 0.0
H365 H 0.26151 0.47739 0.98879 0.0
H366 H 0.60587 0.6938 0.05905 0.0
H367 H 0.5778 0.56885 0.06785 0.0
H368 H 0.65765 0.63121 0.04001 0.0
H369 H 0.14822 0.41735 0.02395 0.0
H370 H 0.19293 0.39426 0.05425 0.0
H371 H 0.19784 0.51267 0.04901 0.0
H372 H 0.29411 0.39522 0.12774 0.0
H373 H 0.31947 0.68401 0.11308 0.0
H374 H 0.4377 0.39703 0.07009 0.0
H375 H 0.3021 0.32388 0.06981 0.0
H376 H 0.36979 0.32811 0.09889 0.0
H377 H 0.47697 0.74465 0.05521 0.0
H378 H 0.41019 0.78489 0.07672 0.0
H379 H 0.34456 0.69843 0.05045 0.0
C380 C 0.93449 0.43482 0.3521 0.0
C381 C 0.8384 0.37484 0.36331 0.0
C382 C 0.95468 0.41878 0.3264 0.0
C383 C 0.87695 0.34074 0.31134 0.0
C384 C 0.77942 0.2804 0.32239 0.0
C385 C 0.76135 0.29796 0.34827 0.0
C386 C 0.06012 0.4842 0.31553 0.0
C387 C 0.69463 0.19665 0.30699 0.0
C388 C 0.94206 0.37361 0.23921 0.0
C389 C 0.99084 0.31678 0.23672 0.0
C390 C 0.89644 0.37553 0.26289 0.0
C391 C 0.90077 0.32013 0.28457 0.0
C392 C 0.94167 0.25545 0.2813 0.0
C393 C 0.98535 0.25397 0.25736 0.0
C394 C 0.85174 0.44384 0.26527 0.0
C395 C 0.94849 0.19525 0.30378 0.0
H396 H -0.00503 0.49321 0.36366 0.0
H397 H 0.68662 0.25186 0.35668 0.0
H398 H 0.09179 0.43581 0.30954 0.0
H399 H 0.05728 0.5248 0.2979 0.0
H400 H 0.11247 0.54091 0.32983 0.0
H401 H 0.62195 0.15951 0.31795 0.0
H402 H 0.68341 0.22718 0.28845 0.0
H403 H 0.71488 0.13833 0.30184 0.0
H404 H 0.94558 0.42211 0.22335 0.0
H405 H 0.02258 0.20951 0.25546 0.0
H406 H 0.90587 0.514 0.27574 0.0
H407 H 0.78031 0.40658 0.27669 0.0
H408 H 0.83623 0.46558 0.24588 0.0
H409 H 0.008 0.24753 0.31749 0.0
H410 H 0.9681 0.13777 0.29719 0.0
H411 H 0.87594 0.15634 0.31469 0.0
C412 C 0.71139 0.66311 0.78012 0.0
C413 C 0.63771 0.56383 0.7867 0.0
C414 C 0.70927 0.70392 0.75569 0.0
C415 C 0.6309 0.64417 0.73783 0.0
C416 C 0.55034 0.54856 0.74581 0.0
C417 C 0.5557 0.50894 0.76998 0.0
C418 C 0.79641 0.80629 0.74808 0.0
C419 C 0.4636 0.48334 0.72781 0.0
C420 C 0.59451 0.73755 0.67211 0.0
C421 C 0.63458 0.69415 0.6552 0.0
C422 C 0.59683 0.72644 0.69929 0.0
C423 C 0.64124 0.67166 0.70967 0.0
C424 C 0.68705 0.63299 0.69264 0.0
C425 C 0.68252 0.64416 0.66565 0.0
C426 C 0.54683 0.76832 0.71673 0.0
C427 C 0.73686 0.57549 0.70281 0.0
H428 H 0.77559 0.70518 0.79292 0.0
H429 H 0.49893 0.43196 0.77511 0.0
H430 H 0.85017 0.79562 0.73574 0.0
H431 H 0.76975 0.84991 0.73653 0.0
H432 H 0.83805 0.85148 0.76542 0.0
H433 H 0.39963 0.41976 0.73836 0.0
H434 H 0.43525 0.5291 0.71799 0.0
H435 H 0.49043 0.451 0.71247 0.0
H436 H 0.55727 0.77613 0.66403 0.0
H437 H 0.71492 0.61194 0.65261 0.0
H438 H 0.59515 0.80722 0.73384 0.0
H439 H 0.47428 0.70501 0.72421 0.0
H440 H 0.53056 0.82231 0.70624 0.0
H441 H 0.79188 0.6194 0.71838 0.0
H442 H 0.77713 0.5588 0.68724 0.0
H443 H 0.67858 0.50259 0.71148 0.0
C444 C 0.78631 0.36761 0.90555 0.0
C445 C 0.84074 0.47327 0.90289 0.0
C446 C 0.79484 0.32111 0.92833 0.0
C447 C 0.85764 0.38217 0.94894 0.0
C448 C 0.92035 0.48779 0.94506 0.0
C449 C 0.91115 0.53188 0.92204 0.0
C450 C 0.72935 0.20782 0.93125 0.0
C451 C 0.98895 0.55611 0.96629 0.0
C452 C 0.76019 0.30941 0.01814 0.0
C453 C 0.82409 0.2767 0.0284 0.0
C454 C 0.76923 0.34154 0.99219 0.0
C455 C 0.84368 0.34031 0.97586 0.0
C456 C 0.90767 0.30597 0.98593 0.0
C457 C 0.89765 0.27529 1.01218 0.0
C458 C 0.7005 0.37932 0.98246 0.0
C459 C 0.98735 0.30285 0.96912 0.0
H460 H 0.73181 0.32188 0.8908 0.0
H461 H 0.95382 0.61366 0.91986 0.0
H462 H 0.77023 0.17561 0.9418 0.0
H463 H 0.66082 0.19045 0.94275 0.0
H464 H 0.70453 0.16982 0.91202 0.0
H465 H 0.04418 0.6327 0.95878 0.0
H466 H 0.94229 0.5646 0.98161 0.0
H467 H 0.0313 0.52297 0.9756 0.0
H468 H 0.70428 0.31216 0.03066 0.0
H469 H 0.9468 0.24938 0.01997 0.0
H470 H 0.65757 0.33496 0.96519 0.0
H471 H 0.7465 0.45971 0.9763 0.0
H472 H 0.64553 0.3738 0.99752 0.0
H473 H 0.95356 0.26322 0.95053 0.0
H474 H 0.02351 0.26423 0.97901 0.0
H475 H 0.04722 0.38112 0.96414 0.0
C476 C 0.43279 0.71436 0.34194 0.0
C477 C 0.35797 0.61164 0.34409 0.0
C478 C 0.47603 0.77442 0.36419 0.0
C479 C 0.44783 0.72974 0.38924 0.0
C480 C 0.37026 0.62752 0.39169 0.0
C481 C 0.32396 0.57108 0.36919 0.0
C482 C 0.55463 0.88497 0.3608 0.0
C483 C 0.34026 0.57584 0.41798 0.0
C484 C 0.65688 0.86123 0.43919 0.0
C485 C 0.61911 0.91007 0.45476 0.0
C486 C 0.59858 0.79663 0.41896 0.0
C487 C 0.50412 0.78806 0.41269 0.0
C488 C 0.46623 0.83867 0.42818 0.0
C489 C 0.5234 0.89743 0.4494 0.0
C490 C 0.63913 0.73921 0.40401 0.0
C491 C 0.36892 0.8366 0.42136 0.0
H492 H 0.46068 0.74768 0.32295 0.0
H493 H 0.26291 0.49366 0.37145 0.0
H494 H 0.54021 0.9325 0.37457 0.0
H495 H 0.63089 0.89651 0.36517 0.0
H496 H 0.5556 0.912 0.34064 0.0
H497 H 0.27449 0.49761 0.41672 0.0
H498 H 0.40529 0.5721 0.42642 0.0
H499 H 0.32127 0.61988 0.43174 0.0
H500 H 0.73217 0.87344 0.44294 0.0
H501 H 0.49615 0.93897 0.46067 0.0
H502 H 0.66225 0.77167 0.38418 0.0
H503 H 0.57941 0.65854 0.40185 0.0
H504 H 0.70571 0.74247 0.41376 0.0
H505 H 0.37997 0.8793 0.40298 0.0
H506 H 0.34494 0.87122 0.43683 0.0
H507 H 0.3067 0.75799 0.41798 0.0
C508 C 0.89919 0.27639 0.68644 0.0
C509 C 0.93117 0.3721 0.69728 0.0
C510 C 0.8703 0.25615 0.66022 0.0
C511 C 0.87451 0.3339 0.64417 0.0
C512 C 0.90963 0.43175 0.65476 0.0
C513 C 0.93642 0.44937 0.68128 0.0
C514 C 0.83148 0.15006 0.64996 0.0
C515 C 0.91634 0.51712 0.63837 0.0
C516 C 0.84428 0.25393 0.57319 0.0
C517 C 0.73881 0.20657 0.57066 0.0
C518 C 0.89203 0.30576 0.59628 0.0
C519 C 0.83238 0.30814 0.61724 0.0
C520 C 0.72733 0.2691 0.61354 0.0
C521 C 0.68208 0.21917 0.59026 0.0
C522 C 0.0049 0.35042 0.59899 0.0
C523 C 0.66057 0.27048 0.63511 0.0
H524 H 0.89362 0.21599 0.69875 0.0
H525 H 0.96178 0.52376 0.6895 0.0
H526 H 0.75134 0.11701 0.64379 0.0
H527 H 0.87584 0.15205 0.6326 0.0
H528 H 0.83579 0.09908 0.66473 0.0
H529 H 0.96678 0.59221 0.64736 0.0
H530 H 0.94458 0.51616 0.61849 0.0
H531 H 0.83982 0.50809 0.6364 0.0
H532 H 0.88845 0.24465 0.55801 0.0
H533 H 0.6005 0.18325 0.58814 0.0
H534 H 0.02026 0.29807 0.61054 0.0
H535 H 0.03909 0.42389 0.60947 0.0
H536 H 0.04251 0.36227 0.57971 0.0
H537 H 0.65368 0.21675 0.65066 0.0
H538 H 0.5833 0.24828 0.6281 0.0
H539 H 0.69441 0.34684 0.64398 0.0
loop_
_geom_bond_atom_site_label_1
_geom_bond_atom_site_label_2
_geom_bond_distance
_geom_bond_site_symmetry_2
_ccdc_geom_bond_type
Tb0 N31 2.660 . S
Tb0 N38 2.600 . S
Tb0 O44 2.546 . S
Tb0 O45 2.610 1_455 S
Tb0 O47 2.320 . S
Tb0 O48 2.552 . S
Tb0 O49 2.413 . S
Tb0 O51 2.362 . S
Tb0 O52 2.421 . S
Tb0 C64 2.833 . S
C1 C4 1.432 . S
C1 C5 1.414 . S
C1 N8 1.359 . S
C2 C4 1.417 . S
C2 C6 1.432 . S
C2 C14 1.410 . S
C3 C5 1.444 . S
C3 C6 1.317 . S
C3 H26 0.929 . S
C4 C1 1.432 . S
C4 C2 1.417 . S
C4 N12 1.360 . S
C5 C1 1.414 . S
C5 C3 1.444 . S
C5 C10 1.385 . S
C6 C2 1.432 . S
C6 C3 1.317 . S
C6 H18 0.930 . S
C7 C9 1.392 . S
C7 C10 1.370 . S
C7 H19 0.931 . S
N8 C1 1.359 . S
N8 C9 1.327 . S
N8 Tb11 2.600 . S
C9 C7 1.392 . S
C9 N8 1.327 . S
C9 H16 0.930 . S
C10 C5 1.385 . S
C10 C7 1.370 . S
C10 H29 0.930 . S
Tb11 N8 2.600 . S
Tb11 N12 2.660 . S
Tb11 O45 2.362 . S
Tb11 O46 2.421 . S
Tb11 O50 2.546 . S
Tb11 O51 2.610 1_655 S
Tb11 O53 2.320 . S
Tb11 O54 2.552 . S
Tb11 O55 2.413 . S
Tb11 C75 2.833 . S
N12 C4 1.360 . S
N12 Tb11 2.660 . S
N12 C13 1.305 . S
C13 N12 1.305 . S
C13 C15 1.407 . S
C13 H20 0.930 . S
C14 C2 1.410 . S
C14 C15 1.345 . S
C14 H22 0.930 . S
C15 C13 1.407 . S
C15 C14 1.345 . S
C15 H17 0.930 . S
H16 C9 0.930 . S
H17 C15 0.930 . S
H18 C6 0.930 . S
H19 C7 0.931 . S
H20 C13 0.930 . S
H21 C35 0.930 . S
H22 C14 0.930 . S
H23 C41 0.930 . S
H24 C32 0.930 . S
H25 C39 0.931 . S
H26 C3 0.929 . S
H27 C33 0.930 . S
H28 C66 0.930 . S
H29 C10 0.930 . S
H30 C65 0.929 . S
N31 Tb0 2.660 . S
N31 C32 1.305 . S
N31 C36 1.360 . S
C32 H24 0.930 . S
C32 N31 1.305 . S
C32 C35 1.407 . S
C33 H27 0.930 . S
C33 C34 1.410 . S
C33 C35 1.345 . S
C34 C33 1.410 . S
C34 C36 1.417 . S
C34 C66 1.432 . S
C35 H21 0.930 . S
C35 C32 1.407 . S
C35 C33 1.345 . S
C36 N31 1.360 . S
C36 C34 1.417 . S
C36 C40 1.432 . S
H37 C42 0.930 . S
N38 Tb0 2.600 . S
N38 C40 1.359 . S
N38 C41 1.327 . S
C39 H25 0.931 . S
C39 C41 1.392 . S
C39 C42 1.370 . S
C40 C36 1.432 . S
C40 N38 1.359 . S
C40 C43 1.414 . S
C41 H23 0.930 . S
C41 N38 1.327 . S
C41 C39 1.392 . S
C42 H37 0.930 . S
C42 C39 1.370 . S
C42 C43 1.385 . S
C43 C40 1.414 . S
C43 C42 1.385 . S
C43 C65 1.444 . S
O44 Tb0 2.546 . S
O44 C64 1.251 . S
O45 Tb0 2.610 1_655 S
O45 Tb11 2.362 . S
O45 C56 1.283 . S
O46 Tb11 2.421 . S
O46 C63 1.262 1_655 S
O47 Tb0 2.320 . S
O47 C63 1.260 . S
O48 Tb0 2.552 . S
O48 C56 1.243 1_455 S
O49 Tb0 2.413 . S
O49 C64 1.256 . S
O50 Tb11 2.546 . S
O50 C75 1.251 . S
O51 Tb0 2.362 . S
O51 Tb11 2.610 1_455 S
O51 C67 1.283 . S
O52 Tb0 2.421 . S
O52 C74 1.262 1_455 S
O53 Tb11 2.320 . S
O53 C74 1.260 . S
O54 Tb11 2.552 . S
O54 C67 1.243 1_655 S
O55 Tb11 2.413 . S
O55 C75 1.256 . S
C56 O45 1.283 . S
C56 O48 1.243 1_655 S
C57 C59 1.382 . S
C57 C61 1.393 . S
C57 C64 1.500 . S
C58 C59 1.400 . S
C58 C60 1.384 . S
C59 C57 1.382 . S
C59 C58 1.400 . S
C59 H76 0.930 . S
C60 C58 1.384 . S
C60 C62 1.392 . S
C60 H77 0.931 . S
C61 C57 1.393 . S
C61 C62 1.401 . S
C61 H78 0.930 . S
C62 C60 1.392 . S
C62 C61 1.401 . S
C62 H79 0.930 . S
C63 O46 1.262 1_455 S
C63 O47 1.260 . S
C64 Tb0 2.833 . S
C64 O44 1.251 . S
C64 O49 1.256 . S
C64 C57 1.500 . S
C65 H30 0.929 . S
C65 C43 1.444 . S
C65 C66 1.317 . S
C66 H28 0.930 . S
C66 C34 1.432 . S
C66 C65 1.317 . S
C67 O51 1.283 . S
C67 O54 1.243 1_455 S
C68 C69 1.382 . S
C68 C72 1.393 . S
C68 C75 1.500 . S
C69 C68 1.382 . S
C69 C70 1.400 . S
C69 H80 0.930 . S
C70 C69 1.400 . S
C70 C71 1.384 . S
C71 C70 1.384 . S
C71 C73 1.392 . S
C71 H81 0.931 . S
C72 C68 1.393 . S
C72 C73 1.401 . S
C72 H82 0.930 . S
C73 C71 1.392 . S
C73 C72 1.401 . S
C73 H83 0.930 . S
C74 O52 1.262 1_655 S
C74 O53 1.260 . S
C75 Tb11 2.833 . S
C75 O50 1.251 . S
C75 O55 1.256 . S
C75 C68 1.500 . S
H76 C59 0.930 . S
H77 C60 0.931 . S
H78 C61 0.930 . S
H79 C62 0.930 . S
H80 C69 0.930 . S
H81 C71 0.931 . S
H82 C72 0.930 . S
H83 C73 0.930 . S
Tb84 N115 2.660 1_545 S
Tb84 N122 2.600 1_545 S
Tb84 O128 2.546 1_545 S
Tb84 O129 2.610 . S
Tb84 O131 2.320 . S
Tb84 O132 2.552 . S
Tb84 O133 2.413 1_545 S
Tb84 O135 2.362 . S
Tb84 O136 2.421 . S
Tb84 C148 2.833 1_545 S
C85 C88 1.432 1_455 S
C85 C89 1.414 . S
C85 N92 1.359 . S
C86 C88 1.417 . S
C86 C90 1.432 1_655 S
C86 C98 1.410 . S
C87 C89 1.444 . S
C87 C90 1.317 . S
C87 H110 0.929 . S
C88 C85 1.432 1_655 S
C88 C86 1.417 . S
C88 N96 1.360 . S
C89 C85 1.414 . S
C89 C87 1.444 . S
C89 C94 1.385 . S
C90 C86 1.432 1_455 S
C90 C87 1.317 . S
C90 H102 0.930 . S
C91 C93 1.392 . S
C91 C94 1.370 . S
C91 H103 0.931 . S
N92 C85 1.359 . S
N92 C93 1.327 . S
N92 Tb95 2.600 1_455 S
C93 C91 1.392 . S
C93 N92 1.327 . S
C93 H100 0.930 . S
C94 C89 1.385 . S
C94 C91 1.370 . S
C94 H113 0.930 . S
Tb95 N92 2.600 1_655 S
Tb95 N96 2.660 . S
Tb95 O129 2.362 . S
Tb95 O130 2.421 . S
Tb95 O134 2.546 . S
Tb95 O135 2.610 . S
Tb95 O137 2.320 . S
Tb95 O138 2.552 . S
Tb95 O139 2.413 . S
Tb95 C159 2.833 . S
N96 C88 1.360 . S
N96 Tb95 2.660 . S
N96 C97 1.305 . S
C97 N96 1.305 . S
C97 C99 1.407 . S
C97 H104 0.930 . S
C98 C86 1.410 . S
C98 C99 1.345 . S
C98 H106 0.930 . S
C99 C97 1.407 . S
C99 C98 1.345 . S
C99 H101 0.930 . S
H100 C93 0.930 . S
H101 C99 0.930 . S
H102 C90 0.930 . S
H103 C91 0.931 . S
H104 C97 0.930 . S
H105 C119 0.930 . S
H106 C98 0.930 . S
H107 C125 0.930 . S
H108 C116 0.930 . S
H109 C123 0.931 . S
H110 C87 0.929 . S
H111 C117 0.930 . S
H112 C150 0.930 . S
H113 C94 0.930 . S
H114 C149 0.929 . S
N115 Tb84 2.660 1_565 S
N115 C116 1.305 . S
N115 C120 1.360 . S
C116 H108 0.930 . S
C116 N115 1.305 . S
C116 C119 1.407 . S
C117 H111 0.930 . S
C117 C118 1.410 . S
C117 C119 1.345 . S
C118 C117 1.410 . S
C118 C120 1.417 . S
C118 C150 1.432 . S
C119 H105 0.930 . S
C119 C116 1.407 . S
C119 C117 1.345 . S
C120 N115 1.360 . S
C120 C118 1.417 . S
C120 C124 1.432 . S
H121 C126 0.930 . S
N122 Tb84 2.600 1_565 S
N122 C124 1.359 . S
N122 C125 1.327 . S
C123 H109 0.931 . S
C123 C125 1.392 . S
C123 C126 1.370 . S
C124 C120 1.432 . S
C124 N122 1.359 . S
C124 C127 1.414 . S
C125 H107 0.930 . S
C125 N122 1.327 . S
C125 C123 1.392 . S
C126 H121 0.930 . S
C126 C123 1.370 . S
C126 C127 1.385 . S
C127 C124 1.414 . S
C127 C126 1.385 . S
C127 C149 1.444 . S
O128 Tb84 2.546 1_565 S
O128 C148 1.251 . S
O129 Tb84 2.610 . S
O129 Tb95 2.362 . S
O129 C140 1.283 . S
O130 Tb95 2.421 . S
O130 C147 1.262 . S
O131 Tb84 2.320 . S
O131 C147 1.260 . S
O132 Tb84 2.552 . S
O132 C140 1.243 . S
O133 Tb84 2.413 1_565 S
O133 C148 1.256 . S
O134 Tb95 2.546 . S
O134 C159 1.251 . S
O135 Tb84 2.362 . S
O135 Tb95 2.610 . S
O135 C151 1.283 . S
O136 Tb84 2.421 . S
O136 C158 1.262 . S
O137 Tb95 2.320 . S
O137 C158 1.260 . S
O138 Tb95 2.552 . S
O138 C151 1.243 . S
O139 Tb95 2.413 . S
O139 C159 1.256 . S
C140 O129 1.283 . S
C140 O132 1.243 . S
C141 C143 1.382 . S
C141 C145 1.393 . S
C141 C148 1.500 . S
C142 C143 1.400 . S
C142 C144 1.384 . S
C143 C141 1.382 . S
C143 C142 1.400 . S
C143 H160 0.930 . S
C144 C142 1.384 . S
C144 C146 1.392 . S
C144 H161 0.931 . S
C145 C141 1.393 . S
C145 C146 1.401 . S
C145 H162 0.930 . S
C146 C144 1.392 . S
C146 C145 1.401 . S
C146 H163 0.930 . S
C147 O130 1.262 . S
C147 O131 1.260 . S
C148 Tb84 2.833 1_565 S
C148 O128 1.251 . S
C148 O133 1.256 . S
C148 C141 1.500 . S
C149 H114 0.929 . S
C149 C127 1.444 . S
C149 C150 1.317 . S
C150 H112 0.930 . S
C150 C118 1.432 . S
C150 C149 1.317 . S
C151 O135 1.283 . S
C151 O138 1.243 . S
C152 C153 1.382 . S
C152 C156 1.393 1_655 S
C152 C159 1.500 . S
C153 C152 1.382 . S
C153 C154 1.400 . S
C153 H164 0.930 . S
C154 C153 1.400 . S
C154 C155 1.384 . S
C155 C154 1.384 . S
C155 C157 1.392 1_655 S
C155 H165 0.931 . S
C156 C152 1.393 1_455 S
C156 C157 1.401 . S
C156 H166 0.930 . S
C157 C155 1.392 1_455 S
C157 C156 1.401 . S
C157 H167 0.930 . S
C158 O136 1.262 . S
C158 O137 1.260 . S
C159 Tb95 2.833 . S
C159 O134 1.251 . S
C159 O139 1.256 . S
C159 C152 1.500 . S
H160 C143 0.930 . S
H161 C144 0.931 . S
H162 C145 0.930 . S
H163 C146 0.930 . S
H164 C153 0.930 . S
H165 C155 0.931 . S
H166 C156 0.930 . S
H167 C157 0.930 . S
Tb168 N199 2.660 . S
Tb168 N206 2.600 . S
Tb168 O212 2.546 . S
Tb168 O213 2.610 . S
Tb168 O215 2.320 . S
Tb168 O216 2.552 . S
Tb168 O217 2.413 . S
Tb168 O219 2.362 . S
Tb168 O220 2.421 . S
Tb168 C232 2.833 . S
C169 C172 1.432 . S
C169 C173 1.414 . S
C169 N176 1.359 . S
C170 C172 1.417 1_455 S
C170 C174 1.432 . S
C170 C182 1.410 . S
C171 C173 1.444 . S
C171 C174 1.317 1_655 S
C171 H194 0.929 1_545 S
C172 C169 1.432 . S
C172 C170 1.417 1_655 S
C172 N180 1.360 . S
C173 C169 1.414 . S
C173 C171 1.444 . S
C173 C178 1.385 1_545 S
C174 C170 1.432 . S
C174 C171 1.317 1_455 S
C174 H186 0.930 . S
C175 C177 1.392 1_565 S
C175 C178 1.370 . S
C175 H187 0.931 . S
N176 C169 1.359 . S
N176 C177 1.327 . S
N176 Tb179 2.600 . S
C177 C175 1.392 1_545 S
C177 N176 1.327 . S
C177 H184 0.930 . S
C178 C173 1.385 1_565 S
C178 C175 1.370 . S
C178 H197 0.930 . S
Tb179 N176 2.600 . S
Tb179 N180 2.660 . S
Tb179 O213 2.362 . S
Tb179 O214 2.421 . S
Tb179 O218 2.546 . S
Tb179 O219 2.610 . S
Tb179 O221 2.320 . S
Tb179 O222 2.552 . S
Tb179 O223 2.413 . S
Tb179 C243 2.833 . S
N180 C172 1.360 . S
N180 Tb179 2.660 . S
N180 C181 1.305 1_655 S
C181 N180 1.305 1_455 S
C181 C183 1.407 . S
C181 H188 0.930 . S
C182 C170 1.410 . S
C182 C183 1.345 . S
C182 H190 0.930 . S
C183 C181 1.407 . S
C183 C182 1.345 . S
C183 H185 0.930 . S
H184 C177 0.930 . S
H185 C183 0.930 . S
H186 C174 0.930 . S
H187 C175 0.931 . S
H188 C181 0.930 . S
H189 C203 0.930 . S
H190 C182 0.930 . S
H191 C209 0.930 . S
H192 C200 0.930 . S
H193 C207 0.931 . S
H194 C171 0.929 1_565 S
H195 C201 0.930 . S
H196 C234 0.930 . S
H197 C178 0.930 . S
H198 C233 0.929 . S
N199 Tb168 2.660 . S
N199 C200 1.305 . S
N199 C204 1.360 . S
C200 H192 0.930 . S
C200 N199 1.305 . S
C200 C203 1.407 . S
C201 H195 0.930 . S
C201 C202 1.410 . S
C201 C203 1.345 . S
C202 C201 1.410 . S
C202 C204 1.417 . S
C202 C234 1.432 . S
C203 H189 0.930 . S
C203 C200 1.407 . S
C203 C201 1.345 . S
C204 N199 1.360 . S
C204 C202 1.417 . S
C204 C208 1.432 . S
H205 C210 0.930 . S
N206 Tb168 2.600 . S
N206 C208 1.359 . S
N206 C209 1.327 . S
C207 H193 0.931 . S
C207 C209 1.392 . S
C207 C210 1.370 . S
C208 C204 1.432 . S
C208 N206 1.359 . S
C208 C211 1.414 . S
C209 H191 0.930 . S
C209 N206 1.327 . S
C209 C207 1.392 . S
C210 H205 0.930 . S
C210 C207 1.370 . S
C210 C211 1.385 . S
C211 C208 1.414 . S
C211 C210 1.385 . S
C211 C233 1.444 . S
O212 Tb168 2.546 . S
O212 C232 1.251 . S
O213 Tb168 2.610 . S
O213 Tb179 2.362 . S
O213 C224 1.283 . S
O214 Tb179 2.421 . S
O214 C231 1.262 . S
O215 Tb168 2.320 . S
O215 C231 1.260 . S
O216 Tb168 2.552 . S
O216 C224 1.243 . S
O217 Tb168 2.413 . S
O217 C232 1.256 . S
O218 Tb179 2.546 . S
O218 C243 1.251 . S
O219 Tb168 2.362 . S
O219 Tb179 2.610 . S
O219 C235 1.283 . S
O220 Tb168 2.421 . S
O220 C242 1.262 . S
O221 Tb179 2.320 . S
O221 C242 1.260 . S
O222 Tb179 2.552 . S
O222 C235 1.243 . S
O223 Tb179 2.413 . S
O223 C243 1.256 . S
C224 O213 1.283 . S
C224 O216 1.243 . S
C225 C227 1.382 . S
C225 C229 1.393 . S
C225 C232 1.500 . S
C226 C227 1.400 . S
C226 C228 1.384 . S
C227 C225 1.382 . S
C227 C226 1.400 . S
C227 H244 0.930 . S
C228 C226 1.384 . S
C228 C230 1.392 . S
C228 H245 0.931 . S
C229 C225 1.393 . S
C229 C230 1.401 . S
C229 H246 0.930 . S
C230 C228 1.392 . S
C230 C229 1.401 . S
C230 H247 0.930 . S
C231 O214 1.262 . S
C231 O215 1.260 . S
C232 Tb168 2.833 . S
C232 O212 1.251 . S
C232 O217 1.256 . S
C232 C225 1.500 . S
C233 H198 0.929 . S
C233 C211 1.444 . S
C233 C234 1.317 . S
C234 H196 0.930 . S
C234 C202 1.432 . S
C234 C233 1.317 . S
C235 O219 1.283 . S
C235 O222 1.243 . S
C236 C237 1.382 1_655 S
C236 C240 1.393 . S
C236 C243 1.500 . S
C237 C236 1.382 1_455 S
C237 C238 1.400 . S
C237 H248 0.930 . S
C238 C237 1.400 . S
C238 C239 1.384 . S
C239 C238 1.384 . S
C239 C241 1.392 1_455 S
C239 H249 0.931 . S
C240 C236 1.393 . S
C240 C241 1.401 . S
C240 H250 0.930 . S
C241 C239 1.392 1_655 S
C241 C240 1.401 . S
C241 H251 0.930 . S
C242 O220 1.262 . S
C242 O221 1.260 . S
C243 Tb179 2.833 . S
C243 O218 1.251 . S
C243 O223 1.256 . S
C243 C236 1.500 . S
H244 C227 0.930 . S
H245 C228 0.931 . S
H246 C229 0.930 . S
H247 C230 0.930 . S
H248 C237 0.930 . S
H249 C239 0.931 . S
H250 C240 0.930 . S
H251 C241 0.930 . S
C252 C253 1.391 . S
C252 C254 1.394 . S
C252 H268 0.931 . S
C253 C252 1.391 . S
C253 C257 1.376 1_455 S
C254 C252 1.394 . S
C254 C255 1.369 1_455 S
C254 C258 1.531 . S
C255 C254 1.369 1_655 S
C255 C256 1.410 . S
C255 C263 1.503 . S
C256 C255 1.410 . S
C256 C257 1.392 . S
C256 C259 1.511 . S
C257 C253 1.376 1_655 S
C257 C256 1.392 . S
C257 H269 0.929 . S
C258 C254 1.531 . S
C258 H270 0.960 . S
C258 H271 0.962 . S
C258 H272 0.960 . S
C259 C256 1.511 . S
C259 H273 0.961 . S
C259 H274 0.961 . S
C259 H275 0.961 . S
C260 C261 1.370 1_455 S
C260 C262 1.363 . S
C260 H276 0.931 . S
C261 C260 1.370 1_655 S
C261 C265 1.408 . S
C262 C260 1.363 . S
C262 C263 1.370 1_445 S
C262 C266 1.524 . S
C263 C255 1.503 . S
C263 C262 1.370 1_665 S
C263 C264 1.403 . S
C264 C263 1.403 . S
C264 C265 1.404 1_565 S
C264 C267 1.539 . S
C265 C261 1.408 . S
C265 C264 1.404 1_545 S
C265 H277 0.930 . S
C266 C262 1.524 . S
C266 H278 0.956 1_545 S
C266 H279 0.961 1_545 S
C266 H280 0.961 . S
C267 C264 1.539 . S
C267 H281 0.958 . S
C267 H282 0.961 . S
C267 H283 0.960 . S
H268 C252 0.931 . S
H269 C257 0.929 . S
H270 C258 0.960 . S
H271 C258 0.962 . S
H272 C258 0.960 . S
H273 C259 0.961 . S
H274 C259 0.961 . S
H275 C259 0.961 . S
H276 C260 0.931 . S
H277 C265 0.930 . S
H278 C266 0.956 1_565 S
H279 C266 0.961 1_565 S
H280 C266 0.961 . S
H281 C267 0.958 . S
H282 C267 0.961 . S
H283 C267 0.960 . S
C284 C285 1.391 . S
C284 C286 1.394 . S
C284 H300 0.931 . S
C285 C284 1.391 . S
C285 C289 1.376 . S
C286 C284 1.394 . S
C286 C287 1.369 . S
C286 C290 1.531 . S
C287 C286 1.369 . S
C287 C288 1.410 . S
C287 C295 1.503 . S
C288 C287 1.410 . S
C288 C289 1.392 . S
C288 C291 1.511 . S
C289 C285 1.376 . S
C289 C288 1.392 . S
C289 H301 0.929 . S
C290 C286 1.531 . S
C290 H302 0.960 . S
C290 H303 0.962 . S
C290 H304 0.960 . S
C291 C288 1.511 . S
C291 H305 0.961 1_545 S
C291 H306 0.961 . S
C291 H307 0.961 . S
C292 C293 1.370 . S
C292 C294 1.363 . S
C292 H308 0.931 . S
C293 C292 1.370 . S
C293 C297 1.408 . S
C294 C292 1.363 . S
C294 C295 1.370 . S
C294 C298 1.524 . S
C295 C287 1.503 . S
C295 C294 1.370 . S
C295 C296 1.403 . S
C296 C295 1.403 . S
C296 C297 1.404 . S
C296 C299 1.539 . S
C297 C293 1.408 . S
C297 C296 1.404 . S
C297 H309 0.930 . S
C298 C294 1.524 . S
C298 H310 0.956 . S
C298 H311 0.961 . S
C298 H312 0.961 . S
C299 C296 1.539 . S
C299 H313 0.958 . S
C299 H314 0.961 . S
C299 H315 0.960 . S
H300 C284 0.931 . S
H301 C289 0.929 . S
H302 C290 0.960 . S
H303 C290 0.962 . S
H304 C290 0.960 . S
H305 C291 0.961 1_565 S
H306 C291 0.961 . S
H307 C291 0.961 . S
H308 C292 0.931 . S
H309 C297 0.930 . S
H310 C298 0.956 . S
H311 C298 0.961 . S
H312 C298 0.961 . S
H313 C299 0.958 . S
H314 C299 0.961 . S
H315 C299 0.960 . S
C316 C317 1.391 . S
C316 C318 1.394 . S
C316 H332 0.931 . S
C317 C316 1.391 . S
C317 C321 1.376 . S
C318 C316 1.394 . S
C318 C319 1.369 . S
C318 C322 1.531 . S
C319 C318 1.369 . S
C319 C320 1.410 . S
C319 C327 1.503 . S
C320 C319 1.410 . S
C320 C321 1.392 . S
C320 C323 1.511 . S
C321 C317 1.376 . S
C321 C320 1.392 . S
C321 H333 0.929 1_455 S
C322 C318 1.531 . S
C322 H334 0.960 . S
C322 H335 0.962 . S
C322 H336 0.960 . S
C323 C320 1.511 . S
C323 H337 0.961 . S
C323 H338 0.961 . S
C323 H339 0.961 . S
C324 C325 1.370 . S
C324 C326 1.363 1_545 S
C324 H340 0.931 . S
C325 C324 1.370 . S
C325 C329 1.408 . S
C326 C324 1.363 1_565 S
C326 C327 1.370 . S
C326 C330 1.524 . S
C327 C319 1.503 . S
C327 C326 1.370 . S
C327 C328 1.403 1_565 S
C328 C327 1.403 1_545 S
C328 C329 1.404 . S
C328 C331 1.539 . S
C329 C325 1.408 . S
C329 C328 1.404 . S
C329 H341 0.930 . S
C330 C326 1.524 . S
C330 H342 0.956 . S
C330 H343 0.961 . S
C330 H344 0.961 . S
C331 C328 1.539 . S
C331 H345 0.958 . S
C331 H346 0.961 . S
C331 H347 0.960 1_545 S
H332 C316 0.931 . S
H333 C321 0.929 1_655 S
H334 C322 0.960 . S
H335 C322 0.962 . S
H336 C322 0.960 . S
H337 C323 0.961 . S
H338 C323 0.961 . S
H339 C323 0.961 . S
H340 C324 0.931 . S
H341 C329 0.930 . S
H342 C330 0.956 . S
H343 C330 0.961 . S
H344 C330 0.961 . S
H345 C331 0.958 . S
H346 C331 0.961 . S
H347 C331 0.960 1_565 S
C348 C349 1.391 1_554 S
C348 C350 1.394 . S
C348 H364 0.931 . S
C349 C348 1.391 1_556 S
C349 C353 1.376 . S
C350 C348 1.394 . S
C350 C351 1.369 . S
C350 C354 1.531 . S
C351 C350 1.369 . S
C351 C352 1.410 . S
C351 C359 1.503 . S
C352 C351 1.410 . S
C352 C353 1.392 1_554 S
C352 C355 1.511 . S
C353 C349 1.376 . S
C353 C352 1.392 1_556 S
C353 H365 0.929 . S
C354 C350 1.531 . S
C354 H366 0.960 . S
C354 H367 0.962 . S
C354 H368 0.960 . S
C355 C352 1.511 . S
C355 H369 0.961 1_554 S
C355 H370 0.961 . S
C355 H371 0.961 . S
C356 C357 1.370 . S
C356 C358 1.363 . S
C356 H372 0.931 . S
C357 C356 1.370 . S
C357 C361 1.408 . S
C358 C356 1.363 . S
C358 C359 1.370 . S
C358 C362 1.524 . S
C359 C351 1.503 . S
C359 C358 1.370 . S
C359 C360 1.403 . S
C360 C359 1.403 . S
C360 C361 1.404 . S
C360 C363 1.539 . S
C361 C357 1.408 . S
C361 C360 1.404 . S
C361 H373 0.930 . S
C362 C358 1.524 . S
C362 H374 0.956 . S
C362 H375 0.961 . S
C362 H376 0.961 . S
C363 C360 1.539 . S
C363 H377 0.958 . S
C363 H378 0.961 . S
C363 H379 0.960 . S
H364 C348 0.931 . S
H365 C353 0.929 . S
H366 C354 0.960 . S
H367 C354 0.962 . S
H368 C354 0.960 . S
H369 C355 0.961 1_556 S
H370 C355 0.961 . S
H371 C355 0.961 . S
H372 C356 0.931 . S
H373 C361 0.930 . S
H374 C362 0.956 . S
H375 C362 0.961 . S
H376 C362 0.961 . S
H377 C363 0.958 . S
H378 C363 0.961 . S
H379 C363 0.960 . S
C380 C381 1.391 . S
C380 C382 1.394 . S
C380 H396 0.931 . S
C381 C380 1.391 . S
C381 C385 1.376 . S
C382 C380 1.394 . S
C382 C383 1.369 . S
C382 C386 1.531 . S
C383 C382 1.369 . S
C383 C384 1.410 . S
C383 C391 1.503 . S
C384 C383 1.410 . S
C384 C385 1.392 . S
C384 C387 1.511 . S
C385 C381 1.376 . S
C385 C384 1.392 . S
C385 H397 0.929 . S
C386 C382 1.531 . S
C386 H398 0.960 . S
C386 H399 0.962 1_655 S
C386 H400 0.960 . S
C387 C384 1.511 . S
C387 H401 0.961 . S
C387 H402 0.961 . S
C387 H403 0.961 . S
C388 C389 1.370 . S
C388 C390 1.363 . S
C388 H404 0.931 . S
C389 C388 1.370 . S
C389 C393 1.408 . S
C390 C388 1.363 . S
C390 C391 1.370 . S
C390 C394 1.524 . S
C391 C383 1.503 . S
C391 C390 1.370 . S
C391 C392 1.403 . S
C392 C391 1.403 . S
C392 C393 1.404 . S
C392 C395 1.539 . S
C393 C389 1.408 . S
C393 C392 1.404 . S
C393 H405 0.930 . S
C394 C390 1.524 . S
C394 H406 0.956 . S
C394 H407 0.961 . S
C394 H408 0.961 . S
C395 C392 1.539 . S
C395 H409 0.958 . S
C395 H410 0.961 . S
C395 H411 0.960 . S
H396 C380 0.931 . S
H397 C385 0.929 . S
H398 C386 0.960 . S
H399 C386 0.962 1_455 S
H400 C386 0.960 . S
H401 C387 0.961 . S
H402 C387 0.961 . S
H403 C387 0.961 . S
H404 C388 0.931 . S
H405 C393 0.930 . S
H406 C394 0.956 . S
H407 C394 0.961 . S
H408 C394 0.961 . S
H409 C395 0.958 . S
H410 C395 0.961 . S
H411 C395 0.960 . S
C412 C413 1.391 . S
C412 C414 1.394 . S
C412 H428 0.931 . S
C413 C412 1.391 . S
C413 C417 1.376 . S
C414 C412 1.394 . S
C414 C415 1.369 . S
C414 C418 1.531 . S
C415 C414 1.369 . S
C415 C416 1.410 . S
C415 C423 1.503 . S
C416 C415 1.410 . S
C416 C417 1.392 . S
C416 C419 1.511 . S
C417 C413 1.376 . S
C417 C416 1.392 . S
C417 H429 0.929 . S
C418 C414 1.531 . S
C418 H430 0.960 . S
C418 H431 0.962 . S
C418 H432 0.960 . S
C419 C416 1.511 . S
C419 H433 0.961 . S
C419 H434 0.961 . S
C419 H435 0.961 . S
C420 C421 1.370 . S
C420 C422 1.363 . S
C420 H436 0.931 . S
C421 C420 1.370 . S
C421 C425 1.408 . S
C422 C420 1.363 . S
C422 C423 1.370 . S
C422 C426 1.524 . S
C423 C415 1.503 . S
C423 C422 1.370 . S
C423 C424 1.403 . S
C424 C423 1.403 . S
C424 C425 1.404 . S
C424 C427 1.539 . S
C425 C421 1.408 . S
C425 C424 1.404 . S
C425 H437 0.930 . S
C426 C422 1.524 . S
C426 H438 0.956 . S
C426 H439 0.961 . S
C426 H440 0.961 . S
C427 C424 1.539 . S
C427 H441 0.958 . S
C427 H442 0.961 . S
C427 H443 0.960 . S
H428 C412 0.931 . S
H429 C417 0.929 . S
H430 C418 0.960 . S
H431 C418 0.962 . S
H432 C418 0.960 . S
H433 C419 0.961 . S
H434 C419 0.961 . S
H435 C419 0.961 . S
H436 C420 0.931 . S
H437 C425 0.930 . S
H438 C426 0.956 . S
H439 C426 0.961 . S
H440 C426 0.961 . S
H441 C427 0.958 . S
H442 C427 0.961 . S
H443 C427 0.960 . S
C444 C445 1.391 . S
C444 C446 1.394 . S
C444 H460 0.931 . S
C445 C444 1.391 . S
C445 C449 1.376 . S
C446 C444 1.394 . S
C446 C447 1.369 . S
C446 C450 1.531 . S
C447 C446 1.369 . S
C447 C448 1.410 . S
C447 C455 1.503 . S
C448 C447 1.410 . S
C448 C449 1.392 . S
C448 C451 1.511 . S
C449 C445 1.376 . S
C449 C448 1.392 . S
C449 H461 0.929 . S
C450 C446 1.531 . S
C450 H462 0.960 . S
C450 H463 0.962 . S
C450 H464 0.960 . S
C451 C448 1.511 . S
C451 H465 0.961 1_655 S
C451 H466 0.961 . S
C451 H467 0.961 . S
C452 C453 1.370 . S
C452 C454 1.363 1_554 S
C452 H468 0.931 . S
C453 C452 1.370 . S
C453 C457 1.408 . S
C454 C452 1.363 1_556 S
C454 C455 1.370 . S
C454 C458 1.524 . S
C455 C447 1.503 . S
C455 C454 1.370 . S
C455 C456 1.403 . S
C456 C455 1.403 . S
C456 C457 1.404 1_556 S
C456 C459 1.539 . S
C457 C453 1.408 . S
C457 C456 1.404 1_554 S
C457 H469 0.930 1_545 S
C458 C454 1.524 . S
C458 H470 0.956 . S
C458 H471 0.961 . S
C458 H472 0.961 . S
C459 C456 1.539 . S
C459 H473 0.958 1_545 S
C459 H474 0.961 1_545 S
C459 H475 0.960 . S
H460 C444 0.931 . S
H461 C449 0.929 . S
H462 C450 0.960 . S
H463 C450 0.962 . S
H464 C450 0.960 . S
H465 C451 0.961 1_455 S
H466 C451 0.961 . S
H467 C451 0.961 . S
H468 C452 0.931 . S
H469 C457 0.930 1_565 S
H470 C458 0.956 . S
H471 C458 0.961 . S
H472 C458 0.961 . S
H473 C459 0.958 1_565 S
H474 C459 0.961 1_565 S
H475 C459 0.960 . S
C476 C477 1.391 . S
C476 C478 1.394 . S
C476 H492 0.931 . S
C477 C476 1.391 . S
C477 C481 1.376 . S
C478 C476 1.394 . S
C478 C479 1.369 . S
C478 C482 1.531 . S
C479 C478 1.369 . S
C479 C480 1.410 . S
C479 C487 1.503 . S
C480 C479 1.410 . S
C480 C481 1.392 . S
C480 C483 1.511 . S
C481 C477 1.376 . S
C481 C480 1.392 . S
C481 H493 0.929 . S
C482 C478 1.531 . S
C482 H494 0.960 . S
C482 H495 0.962 . S
C482 H496 0.960 . S
C483 C480 1.511 . S
C483 H497 0.961 . S
C483 H498 0.961 . S
C483 H499 0.961 . S
C484 C485 1.370 1_565 S
C484 C486 1.363 . S
C484 H500 0.931 . S
C485 C484 1.370 1_545 S
C485 C489 1.408 . S
C486 C484 1.363 . S
C486 C487 1.370 . S
C486 C490 1.524 . S
C487 C479 1.503 . S
C487 C486 1.370 . S
C487 C488 1.403 1_565 S
C488 C487 1.403 1_545 S
C488 C489 1.404 . S
C488 C491 1.539 . S
C489 C485 1.408 . S
C489 C488 1.404 . S
C489 H501 0.930 . S
C490 C486 1.524 . S
C490 H502 0.956 . S
C490 H503 0.961 . S
C490 H504 0.961 . S
C491 C488 1.539 . S
C491 H505 0.958 . S
C491 H506 0.961 . S
C491 H507 0.960 . S
H492 C476 0.931 . S
H493 C481 0.929 . S
H494 C482 0.960 . S
H495 C482 0.962 . S
H496 C482 0.960 . S
H497 C483 0.961 . S
H498 C483 0.961 . S
H499 C483 0.961 . S
H500 C484 0.931 . S
H501 C489 0.930 . S
H502 C490 0.956 . S
H503 C490 0.961 . S
H504 C490 0.961 . S
H505 C491 0.958 . S
H506 C491 0.961 . S
H507 C491 0.960 . S
C508 C509 1.391 . S
C508 C510 1.394 . S
C508 H524 0.931 . S
C509 C508 1.391 . S
C509 C513 1.376 1_455 S
C510 C508 1.394 . S
C510 C511 1.369 1_455 S
C510 C514 1.531 . S
C511 C510 1.369 1_655 S
C511 C512 1.410 . S
C511 C519 1.503 . S
C512 C511 1.410 . S
C512 C513 1.392 . S
C512 C515 1.511 . S
C513 C509 1.376 1_655 S
C513 C512 1.392 . S
C513 H525 0.929 . S
C514 C510 1.531 . S
C514 H526 0.960 . S
C514 H527 0.962 . S
C514 H528 0.960 . S
C515 C512 1.511 . S
C515 H529 0.961 . S
C515 H530 0.961 . S
C515 H531 0.961 . S
C516 C517 1.370 . S
C516 C518 1.363 . S
C516 H532 0.931 1_655 S
C517 C516 1.370 . S
C517 C521 1.408 . S
C518 C516 1.363 . S
C518 C519 1.370 . S
C518 C522 1.524 1_655 S
C519 C511 1.503 . S
C519 C518 1.370 . S
C519 C520 1.403 . S
C520 C519 1.403 . S
C520 C521 1.404 . S
C520 C523 1.539 . S
C521 C517 1.408 . S
C521 C520 1.404 . S
C521 H533 0.930 . S
C522 C518 1.524 1_455 S
C522 H534 0.956 . S
C522 H535 0.961 . S
C522 H536 0.961 . S
C523 C520 1.539 . S
C523 H537 0.958 . S
C523 H538 0.961 . S
C523 H539 0.960 . S
H524 C508 0.931 . S
H525 C513 0.929 . S
H526 C514 0.960 . S
H527 C514 0.962 . S
H528 C514 0.960 . S
H529 C515 0.961 . S
H530 C515 0.961 . S
H531 C515 0.961 . S
H532 C516 0.931 1_455 S
H533 C521 0.930 . S
H534 C522 0.956 . S
H535 C522 0.961 . S
H536 C522 0.961 . S
H537 C523 0.958 . S
H538 C523 0.961 . S
H539 C523 0.960 . S
C253 C63 1.403 . S
C261 C74 1.452 . S
C285 C158 1.472 . S
C293 C147 1.424 1_455 S
C317 C242 1.474 1_455 S
C325 C231 1.426 . S
C349 C226 1.730 . S
C357 C67 1.929 . S
C381 C154 1.106 . S
C389 C56 1.237 . S
C413 C235 1.907 . S
C421 C142 1.759 . S
C445 C224 1.274 . S
C453 C70 1.128 . S
C477 C58 1.801 . S
C485 C151 1.917 . S
C509 C238 1.015 . S
C517 C140 1.200 . S
