# Generated by pormake.
# Topology ull, (4)-cn, num edge types: 1
# Building blocks:
#     Node 0, Type 0, BuildingBlock: GALJAG_clean_sbu_0, # of connection points: 4
#     Node 1, Type 0, BuildingBlock: GALJAG_clean_sbu_0, # of connection points: 4
#     Node 2, Type 0, BuildingBlock: GALJAG_clean_sbu_0, # of connection points: 4
#     Node 3, Type 0, BuildingBlock: GALJAG_clean_sbu_0, # of connection points: 4
#     Node 4, Type 0, BuildingBlock: GALJAG_clean_sbu_0, # of connection points: 4
#     Node 5, Type 0, BuildingBlock: GALJAG_clean_sbu_0, # of connection points: 4
#     Node 6, Type 0, BuildingBlock: GALJAG_clean_sbu_0, # of connection points: 4
#     Node 7, Type 0, BuildingBlock: GALJAG_clean_sbu_0, # of connection points: 4
#     Node 8, Type 0, BuildingBlock: GALJAG_clean_sbu_0, # of connection points: 4
#     Node 9, Type 0, BuildingBlock: GALJAG_clean_sbu_0, # of connection points: 4
#     Node 10, Type 0, BuildingBlock: GALJAG_clean_sbu_0, # of connection points: 4
#     Node 11, Type 0, BuildingBlock: GALJAG_clean_sbu_0, # of connection points: 4
#     Node 12, Type 0, BuildingBlock: GALJAG_clean_sbu_0, # of connection points: 4
#     Node 13, Type 0, BuildingBlock: GALJAG_clean_sbu_0, # of connection points: 4
#     Node 14, Type 0, BuildingBlock: GALJAG_clean_sbu_0, # of connection points: 4
#     Node 15, Type 0, BuildingBlock: GALJAG_clean_sbu_0, # of connection points: 4
#     Node 16, Type 0, BuildingBlock: GALJAG_clean_sbu_0, # of connection points: 4
#     Node 17, Type 0, BuildingBlock: GALJAG_clean_sbu_0, # of connection points: 4
#     Node 18, Type 0, BuildingBlock: GALJAG_clean_sbu_0, # of connection points: 4
#     Node 19, Type 0, BuildingBlock: GALJAG_clean_sbu_0, # of connection points: 4
#     Node 20, Type 0, BuildingBlock: GALJAG_clean_sbu_0, # of connection points: 4
#     Node 21, Type 0, BuildingBlock: GALJAG_clean_sbu_0, # of connection points: 4
#     Node 22, Type 0, BuildingBlock: GALJAG_clean_sbu_0, # of connection points: 4
#     Node 23, Type 0, BuildingBlock: GALJAG_clean_sbu_0, # of connection points: 4
#     Node 24, Type 0, BuildingBlock: GALJAG_clean_sbu_0, # of connection points: 4
#     Node 25, Type 0, BuildingBlock: GALJAG_clean_sbu_0, # of connection points: 4
#     Node 26, Type 0, BuildingBlock: GALJAG_clean_sbu_0, # of connection points: 4
#     Node 27, Type 0, BuildingBlock: GALJAG_clean_sbu_0, # of connection points: 4
#     Node 28, Type 0, BuildingBlock: GALJAG_clean_sbu_0, # of connection points: 4
#     Node 29, Type 0, BuildingBlock: GALJAG_clean_sbu_0, # of connection points: 4
#     Node 30, Type 0, BuildingBlock: GALJAG_clean_sbu_0, # of connection points: 4
#     Node 31, Type 0, BuildingBlock: GALJAG_clean_sbu_0, # of connection points: 4
#     Node 32, Type 0, BuildingBlock: GALJAG_clean_sbu_0, # of connection points: 4
#     Node 33, Type 0, BuildingBlock: GALJAG_clean_sbu_0, # of connection points: 4
#     Node 34, Type 0, BuildingBlock: GALJAG_clean_sbu_0, # of connection points: 4
#     Node 35, Type 0, BuildingBlock: GALJAG_clean_sbu_0, # of connection points: 4
#     Node 36, Type 0, BuildingBlock: GALJAG_clean_sbu_0, # of connection points: 4
#     Node 37, Type 0, BuildingBlock: GALJAG_clean_sbu_0, # of connection points: 4
#     Node 38, Type 0, BuildingBlock: GALJAG_clean_sbu_0, # of connection points: 4
#     Node 39, Type 0, BuildingBlock: GALJAG_clean_sbu_0, # of connection points: 4
#     Node 40, Type 0, BuildingBlock: GALJAG_clean_sbu_0, # of connection points: 4
#     Node 41, Type 0, BuildingBlock: GALJAG_clean_sbu_0, # of connection points: 4
#     Node 42, Type 0, BuildingBlock: GALJAG_clean_sbu_0, # of connection points: 4
#     Node 43, Type 0, BuildingBlock: GALJAG_clean_sbu_0, # of connection points: 4
#     Node 44, Type 0, BuildingBlock: GALJAG_clean_sbu_0, # of connection points: 4
#     Node 45, Type 0, BuildingBlock: GALJAG_clean_sbu_0, # of connection points: 4
#     Node 46, Type 0, BuildingBlock: GALJAG_clean_sbu_0, # of connection points: 4
#     Node 47, Type 0, BuildingBlock: GALJAG_clean_sbu_0, # of connection points: 4
#     Edge 48, Type (0, 0), BuildingBlock: TEMPAE_clean_linker_10, # of connection points: 2
#     Edge 49, Type (0, 0), BuildingBlock: TEMPAE_clean_linker_10, # of connection points: 2
#     Edge 50, Type (0, 0), BuildingBlock: TEMPAE_clean_linker_10, # of connection points: 2
#     Edge 51, Type (0, 0), BuildingBlock: TEMPAE_clean_linker_10, # of connection points: 2
#     Edge 52, Type (0, 0), BuildingBlock: TEMPAE_clean_linker_10, # of connection points: 2
#     Edge 53, Type (0, 0), BuildingBlock: TEMPAE_clean_linker_10, # of connection points: 2
#     Edge 54, Type (0, 0), BuildingBlock: TEMPAE_clean_linker_10, # of connection points: 2
#     Edge 55, Type (0, 0), BuildingBlock: TEMPAE_clean_linker_10, # of connection points: 2
#     Edge 56, Type (0, 0), BuildingBlock: TEMPAE_clean_linker_10, # of connection points: 2
#     Edge 57, Type (0, 0), BuildingBlock: TEMPAE_clean_linker_10, # of connection points: 2
#     Edge 58, Type (0, 0), BuildingBlock: TEMPAE_clean_linker_10, # of connection points: 2
#     Edge 59, Type (0, 0), BuildingBlock: TEMPAE_clean_linker_10, # of connection points: 2
#     Edge 60, Type (0, 0), BuildingBlock: TEMPAE_clean_linker_10, # of connection points: 2
#     Edge 61, Type (0, 0), BuildingBlock: TEMPAE_clean_linker_10, # of connection points: 2
#     Edge 62, Type (0, 0), BuildingBlock: TEMPAE_clean_linker_10, # of connection points: 2
#     Edge 63, Type (0, 0), BuildingBlock: TEMPAE_clean_linker_10, # of connection points: 2
#     Edge 64, Type (0, 0), BuildingBlock: TEMPAE_clean_linker_10, # of connection points: 2
#     Edge 65, Type (0, 0), BuildingBlock: TEMPAE_clean_linker_10, # of connection points: 2
#     Edge 66, Type (0, 0), BuildingBlock: TEMPAE_clean_linker_10, # of connection points: 2
#     Edge 67, Type (0, 0), BuildingBlock: TEMPAE_clean_linker_10, # of connection points: 2
#     Edge 68, Type (0, 0), BuildingBlock: TEMPAE_clean_linker_10, # of connection points: 2
#     Edge 69, Type (0, 0), BuildingBlock: TEMPAE_clean_linker_10, # of connection points: 2
#     Edge 70, Type (0, 0), BuildingBlock: TEMPAE_clean_linker_10, # of connection points: 2
#     Edge 71, Type (0, 0), BuildingBlock: TEMPAE_clean_linker_10, # of connection points: 2
#     Edge 72, Type (0, 0), BuildingBlock: TEMPAE_clean_linker_10, # of connection points: 2
#     Edge 73, Type (0, 0), BuildingBlock: TEMPAE_clean_linker_10, # of connection points: 2
#     Edge 74, Type (0, 0), BuildingBlock: TEMPAE_clean_linker_10, # of connection points: 2
#     Edge 75, Type (0, 0), BuildingBlock: TEMPAE_clean_linker_10, # of connection points: 2
#     Edge 76, Type (0, 0), BuildingBlock: TEMPAE_clean_linker_10, # of connection points: 2
#     Edge 77, Type (0, 0), BuildingBlock: TEMPAE_clean_linker_10, # of connection points: 2
#     Edge 78, Type (0, 0), BuildingBlock: TEMPAE_clean_linker_10, # of connection points: 2
#     Edge 79, Type (0, 0), BuildingBlock: TEMPAE_clean_linker_10, # of connection points: 2
#     Edge 80, Type (0, 0), BuildingBlock: TEMPAE_clean_linker_10, # of connection points: 2
#     Edge 81, Type (0, 0), BuildingBlock: TEMPAE_clean_linker_10, # of connection points: 2
#     Edge 82, Type (0, 0), BuildingBlock: TEMPAE_clean_linker_10, # of connection points: 2
#     Edge 83, Type (0, 0), BuildingBlock: TEMPAE_clean_linker_10, # of connection points: 2
#     Edge 84, Type (0, 0), BuildingBlock: TEMPAE_clean_linker_10, # of connection points: 2
#     Edge 85, Type (0, 0), BuildingBlock: TEMPAE_clean_linker_10, # of connection points: 2
#     Edge 86, Type (0, 0), BuildingBlock: TEMPAE_clean_linker_10, # of connection points: 2
#     Edge 87, Type (0, 0), BuildingBlock: TEMPAE_clean_linker_10, # of connection points: 2
#     Edge 88, Type (0, 0), BuildingBlock: TEMPAE_clean_linker_10, # of connection points: 2
#     Edge 89, Type (0, 0), BuildingBlock: TEMPAE_clean_linker_10, # of connection points: 2
#     Edge 90, Type (0, 0), BuildingBlock: TEMPAE_clean_linker_10, # of connection points: 2
#     Edge 91, Type (0, 0), BuildingBlock: TEMPAE_clean_linker_10, # of connection points: 2
#     Edge 92, Type (0, 0), BuildingBlock: TEMPAE_clean_linker_10, # of connection points: 2
#     Edge 93, Type (0, 0), BuildingBlock: TEMPAE_clean_linker_10, # of connection points: 2
#     Edge 94, Type (0, 0), BuildingBlock: TEMPAE_clean_linker_10, # of connection points: 2
#     Edge 95, Type (0, 0), BuildingBlock: TEMPAE_clean_linker_10, # of connection points: 2
#     Edge 96, Type (0, 0), BuildingBlock: TEMPAE_clean_linker_10, # of connection points: 2
#     Edge 97, Type (0, 0), BuildingBlock: TEMPAE_clean_linker_10, # of connection points: 2
#     Edge 98, Type (0, 0), BuildingBlock: TEMPAE_clean_linker_10, # of connection points: 2
#     Edge 99, Type (0, 0), BuildingBlock: TEMPAE_clean_linker_10, # of connection points: 2
#     Edge 100, Type (0, 0), BuildingBlock: TEMPAE_clean_linker_10, # of connection points: 2
#     Edge 101, Type (0, 0), BuildingBlock: TEMPAE_clean_linker_10, # of connection points: 2
#     Edge 102, Type (0, 0), BuildingBlock: TEMPAE_clean_linker_10, # of connection points: 2
#     Edge 103, Type (0, 0), BuildingBlock: TEMPAE_clean_linker_10, # of connection points: 2
#     Edge 104, Type (0, 0), BuildingBlock: TEMPAE_clean_linker_10, # of connection points: 2
#     Edge 105, Type (0, 0), BuildingBlock: TEMPAE_clean_linker_10, # of connection points: 2
#     Edge 106, Type (0, 0), BuildingBlock: TEMPAE_clean_linker_10, # of connection points: 2
#     Edge 107, Type (0, 0), BuildingBlock: TEMPAE_clean_linker_10, # of connection points: 2
#     Edge 108, Type (0, 0), BuildingBlock: TEMPAE_clean_linker_10, # of connection points: 2
#     Edge 109, Type (0, 0), BuildingBlock: TEMPAE_clean_linker_10, # of connection points: 2
#     Edge 110, Type (0, 0), BuildingBlock: TEMPAE_clean_linker_10, # of connection points: 2
#     Edge 111, Type (0, 0), BuildingBlock: TEMPAE_clean_linker_10, # of connection points: 2
#     Edge 112, Type (0, 0), BuildingBlock: TEMPAE_clean_linker_10, # of connection points: 2
#     Edge 113, Type (0, 0), BuildingBlock: TEMPAE_clean_linker_10, # of connection points: 2
#     Edge 114, Type (0, 0), BuildingBlock: TEMPAE_clean_linker_10, # of connection points: 2
#     Edge 115, Type (0, 0), BuildingBlock: TEMPAE_clean_linker_10, # of connection points: 2
#     Edge 116, Type (0, 0), BuildingBlock: TEMPAE_clean_linker_10, # of connection points: 2
#     Edge 117, Type (0, 0), BuildingBlock: TEMPAE_clean_linker_10, # of connection points: 2
#     Edge 118, Type (0, 0), BuildingBlock: TEMPAE_clean_linker_10, # of connection points: 2
#     Edge 119, Type (0, 0), BuildingBlock: TEMPAE_clean_linker_10, # of connection points: 2
#     Edge 120, Type (0, 0), BuildingBlock: TEMPAE_clean_linker_10, # of connection points: 2
#     Edge 121, Type (0, 0), BuildingBlock: TEMPAE_clean_linker_10, # of connection points: 2
#     Edge 122, Type (0, 0), BuildingBlock: TEMPAE_clean_linker_10, # of connection points: 2
#     Edge 123, Type (0, 0), BuildingBlock: TEMPAE_clean_linker_10, # of connection points: 2
#     Edge 124, Type (0, 0), BuildingBlock: TEMPAE_clean_linker_10, # of connection points: 2
#     Edge 125, Type (0, 0), BuildingBlock: TEMPAE_clean_linker_10, # of connection points: 2
#     Edge 126, Type (0, 0), BuildingBlock: TEMPAE_clean_linker_10, # of connection points: 2
#     Edge 127, Type (0, 0), BuildingBlock: TEMPAE_clean_linker_10, # of connection points: 2
#     Edge 128, Type (0, 0), BuildingBlock: TEMPAE_clean_linker_10, # of connection points: 2
#     Edge 129, Type (0, 0), BuildingBlock: TEMPAE_clean_linker_10, # of connection points: 2
#     Edge 130, Type (0, 0), BuildingBlock: TEMPAE_clean_linker_10, # of connection points: 2
#     Edge 131, Type (0, 0), BuildingBlock: TEMPAE_clean_linker_10, # of connection points: 2
#     Edge 132, Type (0, 0), BuildingBlock: TEMPAE_clean_linker_10, # of connection points: 2
#     Edge 133, Type (0, 0), BuildingBlock: TEMPAE_clean_linker_10, # of connection points: 2
#     Edge 134, Type (0, 0), BuildingBlock: TEMPAE_clean_linker_10, # of connection points: 2
#     Edge 135, Type (0, 0), BuildingBlock: TEMPAE_clean_linker_10, # of connection points: 2
#     Edge 136, Type (0, 0), BuildingBlock: TEMPAE_clean_linker_10, # of connection points: 2
#     Edge 137, Type (0, 0), BuildingBlock: TEMPAE_clean_linker_10, # of connection points: 2
#     Edge 138, Type (0, 0), BuildingBlock: TEMPAE_clean_linker_10, # of connection points: 2
#     Edge 139, Type (0, 0), BuildingBlock: TEMPAE_clean_linker_10, # of connection points: 2
#     Edge 140, Type (0, 0), BuildingBlock: TEMPAE_clean_linker_10, # of connection points: 2
#     Edge 141, Type (0, 0), BuildingBlock: TEMPAE_clean_linker_10, # of connection points: 2
#     Edge 142, Type (0, 0), BuildingBlock: TEMPAE_clean_linker_10, # of connection points: 2
#     Edge 143, Type (0, 0), BuildingBlock: TEMPAE_clean_linker_10, # of connection points: 2
# Relax obj value: 0.015
# Max RMSD: 0.045
# Mean RMSD: 0.045
data_MOF--net-ull--node1-GALJAG_clean_sbu_0--edge1-TEMPAE_clean_linker_10
_symmetry_space_group_name_H-M    P1
_symmetry_Int_Tables_number       1
_symmetry_cell_setting            triclinic
loop_
_symmetry_equiv_pos_as_xyz
'x, y, z'
_cell_length_a     62.351108
_cell_length_b     62.367854
_cell_length_c     62.36817
_cell_angle_alpha  89.991535
_cell_angle_beta   90.00679
_cell_angle_gamma 89.999549
loop_
_atom_site_label
_atom_site_type_symbol
_atom_site_fract_x
_atom_site_fract_y
_atom_site_fract_z
_atom_type_partial_charge
In0 In 0.0173 0.34197 0.1733 0.0
O1 O 0.02297 0.30775 0.18523 0.0
O2 O 0.99724 0.32562 0.19882 0.0
C3 C 0.04864 0.34262 0.14335 0.0
C4 C 0.03138 0.37276 0.20037 0.0
C5 C 0.98057 0.34278 0.15061 0.0
O6 O 0.04823 0.32881 0.15817 0.0
O7 O 0.03343 0.3559 0.1438 0.0
O8 O 0.98408 0.35562 0.1659 0.0
O9 O 0.9955 0.32963 0.14695 0.0
C10 C 0.00764 0.30826 0.19851 0.0
O11 O 0.0207 0.37715 0.18377 0.0
O12 O 0.03472 0.35308 0.20328 0.0
In13 In 0.64756 0.02117 0.17334 0.0
O14 O 0.61865 0.0187 0.19598 0.0
O15 O 0.63372 0.04905 0.19184 0.0
C16 C 0.64286 0.98339 0.1525 0.0
C17 C 0.68039 0.01659 0.20108 0.0
C18 C 0.64817 0.04904 0.14021 0.0
O19 O 0.62767 0.99654 0.15456 0.0
O20 O 0.66013 0.98904 0.16123 0.0
O21 O 0.66526 0.04219 0.14872 0.0
O22 O 0.63119 0.04171 0.14831 0.0
C23 C 0.61896 0.03842 0.20068 0.0
O24 O 0.68199 0.02788 0.18428 0.0
O25 O 0.66229 0.00792 0.2038 0.0
In26 In 0.98483 0.65741 0.16987 0.0
O27 O 0.97734 0.69026 0.18464 0.0
O28 O 0.0031 0.67234 0.19773 0.0
C29 C 0.95618 0.65711 0.13757 0.0
C30 C 0.96802 0.62633 0.195 0.0
C31 C 0.02095 0.65678 0.14609 0.0
O32 O 0.9572 0.67224 0.15104 0.0
O33 O 0.96975 0.64231 0.14032 0.0
O34 O 0.0156 0.64129 0.15802 0.0
O35 O 0.00817 0.67246 0.14631 0.0
C36 C 0.9921 0.68927 0.19844 0.0
O37 O 0.9878 0.62708 0.19077 0.0
O38 O 0.95705 0.64107 0.18665 0.0
In39 In 0.34708 0.98044 0.1723 0.0
O40 O 0.3823 0.97704 0.1831 0.0
O41 O 0.35794 0.96363 0.20265 0.0
C42 C 0.35777 0.01588 0.14951 0.0
C43 C 0.3114 0.98923 0.19535 0.0
C44 C 0.33972 0.94919 0.14325 0.0
O45 O 0.36169 0.99713 0.14314 0.0
O46 O 0.3493 0.01685 0.16782 0.0
O47 O 0.33115 0.96749 0.142 0.0
O48 O 0.35124 0.94635 0.15965 0.0
C49 C 0.37768 0.96677 0.19992 0.0
O50 O 0.31177 0.97469 0.18125 0.0
O51 O 0.32874 0.9994 0.19736 0.0
In52 In 0.01769 0.65388 0.82489 0.0
O53 O 0.02193 0.6185 0.81518 0.0
O54 O 0.03079 0.64244 0.79282 0.0
C55 C 0.98116 0.65396 0.84807 0.0
C56 C 0.01048 0.68896 0.80084 0.0
C57 C 0.04998 0.65271 0.85379 0.0
O58 O 0.98385 0.64163 0.83223 0.0
O59 O 0.99681 0.66614 0.85205 0.0
O60 O 0.0489 0.66689 0.83939 0.0
O61 O 0.03493 0.63923 0.85346 0.0
C62 C 0.02952 0.62276 0.79694 0.0
O63 O 0.02686 0.68713 0.81267 0.0
O64 O 0.99771 0.67325 0.80148 0.0
In65 In 0.34644 0.02364 0.82372 0.0
O66 O 0.31188 0.0291 0.81278 0.0
O67 O 0.3302 0.00507 0.79693 0.0
C68 C 0.35035 0.05432 0.85395 0.0
C69 C 0.37562 0.03823 0.79528 0.0
C70 C 0.34628 0.98784 0.84797 0.0
O71 O 0.33434 0.05334 0.84157 0.0
O72 O 0.36431 0.04001 0.85089 0.0
O73 O 0.35973 0.99065 0.83306 0.0
O74 O 0.33301 0.00291 0.85036 0.0
C75 C 0.31254 0.01489 0.79835 0.0
O76 O 0.37981 0.02308 0.80807 0.0
O77 O 0.35692 0.04573 0.79689 0.0
In78 In 0.98109 0.34648 0.82678 0.0
O79 O 0.9746 0.31272 0.81392 0.0
O80 O 0.99741 0.3319 0.79752 0.0
C81 C 0.95205 0.34722 0.85863 0.0
C82 C 0.96452 0.37769 0.80173 0.0
C83 C 0.0171 0.34649 0.85081 0.0
O84 O 0.95265 0.3324 0.84481 0.0
O85 O 0.96617 0.36158 0.85639 0.0
O86 O 0.012 0.36221 0.83909 0.0
O87 O 0.00425 0.33091 0.8501 0.0
C88 C 0.98773 0.3142 0.7986 0.0
O89 O 0.98432 0.37679 0.80592 0.0
O90 O 0.95345 0.36299 0.81003 0.0
In91 In 0.65378 0.9787 0.82586 0.0
O92 O 0.68767 0.97248 0.81382 0.0
O93 O 0.66861 0.99547 0.79715 0.0
C94 C 0.65165 0.94962 0.85798 0.0
C95 C 0.62384 0.96367 0.79841 0.0
C96 C 0.65586 0.01634 0.84701 0.0
O97 O 0.66637 0.94936 0.8441 0.0
O98 O 0.63822 0.96451 0.85568 0.0
O99 O 0.63883 0.01 0.83802 0.0
O100 O 0.67159 0.00377 0.8453 0.0
C101 C 0.68636 0.98578 0.79856 0.0
O102 O 0.62033 0.97972 0.81027 0.0
O103 O 0.64219 0.9555 0.80047 0.0
In104 In 0.17273 0.01917 0.34189 0.0
O105 O 0.18552 0.01957 0.37654 0.0
O106 O 0.20183 0.03803 0.35306 0.0
C107 C 0.14895 0.98305 0.34048 0.0
C108 C 0.19788 0.01092 0.30775 0.0
C109 C 0.14269 0.05028 0.34492 0.0
O110 O 0.16323 0.98598 0.35459 0.0
O111 O 0.14696 0.99816 0.3272 0.0
O112 O 0.15679 0.05031 0.33038 0.0
O113 O 0.14398 0.03482 0.35785 0.0
C114 C 0.20074 0.03226 0.37237 0.0
O115 O 0.18392 0.02563 0.30764 0.0
O116 O 0.199 0.00039 0.32503 0.0
In117 In 0.97704 0.1701 0.34651 0.0
O118 O 0.97026 0.18155 0.3122 0.0
O119 O 0.99136 0.20007 0.33137 0.0
C120 C 0.94921 0.13716 0.3482 0.0
C121 C 0.96015 0.19521 0.37752 0.0
C122 C 0.01436 0.14813 0.34666 0.0
O123 O 0.94874 0.15108 0.33346 0.0
O124 O 0.96382 0.13983 0.362 0.0
O125 O 0.00864 0.15971 0.36227 0.0
O126 O 0.00135 0.14778 0.3312 0.0
C127 C 0.98225 0.19779 0.31349 0.0
O128 O 0.98012 0.19225 0.37586 0.0
O129 O 0.949 0.1856 0.36371 0.0
In130 In 0.82248 0.97639 0.34263 0.0
O131 O 0.80981 0.97509 0.3771 0.0
O132 O 0.79252 0.95845 0.35281 0.0
C133 C 0.84879 0.01056 0.34727 0.0
C134 C 0.79659 0.98704 0.30949 0.0
C135 C 0.85068 0.94341 0.34199 0.0
O136 O 0.83223 0.00816 0.35868 0.0
O137 O 0.85192 0.99581 0.33385 0.0
O138 O 0.84628 0.95427 0.32548 0.0
O139 O 0.84054 0.94883 0.35859 0.0
C140 C 0.79396 0.96333 0.3724 0.0
O141 O 0.8066 0.96944 0.31024 0.0
O142 O 0.79984 0.99922 0.3253 0.0
In143 In 0.01736 0.82637 0.34859 0.0
O144 O 0.0227 0.81618 0.31374 0.0
O145 O 0.00777 0.79397 0.33487 0.0
C146 C 0.04456 0.85961 0.34324 0.0
C147 C 0.03398 0.8034 0.38161 0.0
C148 C 0.9785 0.84564 0.35077 0.0
O149 O 0.04675 0.8421 0.33327 0.0
O150 O 0.02846 0.86041 0.35547 0.0
O151 O 0.99096 0.84459 0.36668 0.0
O152 O 0.98544 0.83674 0.33404 0.0
C153 C 0.01431 0.79788 0.31613 0.0
O154 O 0.0144 0.80242 0.37663 0.0
O155 O 0.04484 0.81606 0.37029 0.0
In156 In 0.17379 0.98057 0.65257 0.0
O157 O 0.1872 0.97291 0.68586 0.0
O158 O 0.1972 0.00179 0.67081 0.0
C159 C 0.14532 0.94792 0.65245 0.0
C160 C 0.20286 0.96654 0.62378 0.0
C161 C 0.14894 0.01584 0.64764 0.0
O162 O 0.14981 0.95837 0.66919 0.0
O163 O 0.15537 0.95371 0.6359 0.0
O164 O 0.16647 0.01361 0.63775 0.0
O165 O 0.14405 0.00033 0.65957 0.0
C166 C 0.19857 0.98964 0.68692 0.0
O167 O 0.18699 0.97795 0.61834 0.0
O168 O 0.20403 0.96251 0.64357 0.0
In169 In 0.02117 0.17528 0.65236 0.0
O170 O 0.02125 0.19083 0.61895 0.0
O171 O 0.04341 0.2021 0.64226 0.0
C172 C 0.98499 0.15161 0.65233 0.0
C173 C 0.01237 0.20123 0.68577 0.0
C174 C 0.05164 0.14469 0.6491 0.0
O175 O 0.98812 0.16648 0.63891 0.0
O176 O 1.00002 0.14884 0.66557 0.0
O177 O 0.04964 0.15628 0.6656 0.0
O178 O 0.03839 0.14866 0.63434 0.0
C179 C 0.03626 0.20369 0.62343 0.0
O180 O 0.02728 0.18751 0.68637 0.0
O181 O 0.00189 0.20163 0.66846 0.0
In182 In 0.8285 0.02006 0.65579 0.0
O183 O 0.81538 0.02086 0.62131 0.0
O184 O 0.80059 0.04053 0.64487 0.0
C185 C 0.85226 0.98397 0.65689 0.0
C186 C 0.80176 0.011 0.68841 0.0
C187 C 0.85863 0.05109 0.65388 0.0
O188 O 0.83819 0.98718 0.64264 0.0
O189 O 0.85414 0.99887 0.67043 0.0
O190 O 0.84547 0.04975 0.66922 0.0
O191 O 0.85643 0.03693 0.63963 0.0
C192 C 0.80099 0.03446 0.62562 0.0
O193 O 0.81551 0.02587 0.68949 0.0
O194 O 0.80175 0.00066 0.671 0.0
In195 In 0.98265 0.82593 0.65219 0.0
O196 O 0.98102 0.81765 0.6877 0.0
O197 O 0.99649 0.79554 0.66666 0.0
C198 C 0.95441 0.85882 0.65533 0.0
C199 C 0.96535 0.79865 0.62321 0.0
C200 C 0.02094 0.8458 0.64779 0.0
O201 O 0.954 0.843 0.6679 0.0
O202 O 0.96907 0.8581 0.6415 0.0
O203 O 0.00782 0.84406 0.63249 0.0
O204 O 0.01499 0.83721 0.66506 0.0
C205 C 0.99067 0.79993 0.68559 0.0
O206 O 0.98315 0.80771 0.62001 0.0
O207 O 0.95648 0.80348 0.64067 0.0
In208 In 0.35033 0.17367 0.01986 0.0
O209 O 0.3171 0.1873 0.0279 0.0
O210 O 0.33371 0.20022 0.00118 0.0
C211 C 0.35327 0.14122 0.04815 0.0
C212 C 0.379 0.20078 0.03747 0.0
C213 C 0.35267 0.15033 0.98353 0.0
O214 O 0.33561 0.15015 0.04368 0.0
O215 O 0.36934 0.14859 0.03826 0.0
O216 O 0.36649 0.16443 0.98811 0.0
O217 O 0.33795 0.14814 0.9972 0.0
C218 C 0.31708 0.2006 0.01264 0.0
O219 O 0.38049 0.19476 0.01817 0.0
O220 O 0.36312 0.19332 0.04753 0.0
In221 In 0.34872 0.82943 0.97796 0.0
O222 O 0.31533 0.8166 0.96997 0.0
O223 O 0.33475 0.7986 0.99147 0.0
C224 C 0.34744 0.86255 0.95018 0.0
C225 C 0.38083 0.8046 0.96256 0.0
C226 C 0.34729 0.85063 0.01575 0.0
O227 O 0.33394 0.84746 0.94972 0.0
O228 O 0.36138 0.861 0.96478 0.0
O229 O 0.36478 0.84562 0.00684 0.0
O230 O 0.33074 0.84481 0.00572 0.0
C231 C 0.31706 0.80022 0.98176 0.0
O232 O 0.3783 0.80773 0.9824 0.0
O233 O 0.36746 0.81413 0.9508 0.0
In234 In 0.17432 0.34457 0.98212 0.0
O235 O 0.18695 0.31054 0.97616 0.0
O236 O 0.20491 0.3309 0.99662 0.0
C237 C 0.14178 0.34506 0.95375 0.0
C238 C 0.19818 0.37669 0.96543 0.0
C239 C 0.15171 0.3437 0.01903 0.0
O240 O 0.15686 0.33153 0.95277 0.0
O241 O 0.14309 0.3582 0.96912 0.0
O242 O 0.16281 0.35977 0.01359 0.0
O243 O 0.15223 0.32827 0.00599 0.0
C244 C 0.20323 0.31273 0.98798 0.0
O245 O 0.19475 0.3752 0.98534 0.0
O246 O 0.18965 0.36218 0.95429 0.0
In247 In 0.65523 0.17174 0.97762 0.0
O248 O 0.61964 0.18121 0.97358 0.0
O249 O 0.64355 0.2025 0.96224 0.0
C250 C 0.64577 0.14931 0.01358 0.0
C251 C 0.69067 0.19514 0.98599 0.0
C252 C 0.66325 0.14282 0.94644 0.0
O253 O 0.64029 0.14319 0.99513 0.0
O254 O 0.65504 0.16724 0.01402 0.0
O255 O 0.67023 0.14078 0.96533 0.0
O256 O 0.65303 0.15994 0.94301 0.0
C257 C 0.62386 0.19876 0.96443 0.0
O258 O 0.69036 0.181 0.97149 0.0
O259 O 0.67338 0.19703 0.99628 0.0
In260 In 0.82538 0.65511 0.97986 0.0
O261 O 0.81133 0.621 0.97928 0.0
O262 O 0.79765 0.64462 0.95888 0.0
C263 C 0.8509 0.65507 0.0148 0.0
C264 C 0.79942 0.68808 0.99015 0.0
C265 C 0.85448 0.65335 0.94794 0.0
O266 O 0.8358 0.64173 0.01255 0.0
O267 O 0.85284 0.66829 0.99963 0.0
O268 O 0.84195 0.6691 0.95027 0.0
O269 O 0.85211 0.63856 0.96152 0.0
C270 C 0.79742 0.62544 0.96522 0.0
O271 O 0.81316 0.6893 0.9753 0.0
O272 O 0.79898 0.67033 0.99987 0.0
In273 In 0.65252 0.82707 0.02184 0.0
O274 O 0.68541 0.81322 0.03071 0.0
O275 O 0.66943 0.80043 0.00354 0.0
C276 C 0.64963 0.85892 0.05076 0.0
C277 C 0.62359 0.79969 0.03839 0.0
C278 C 0.65017 0.85106 0.98588 0.0
O279 O 0.66745 0.85197 0.04407 0.0
O280 O 0.63334 0.84988 0.04286 0.0
O281 O 0.63622 0.83703 0.99029 0.0
O282 O 0.66501 0.85275 0.99946 0.0
C283 C 0.68573 0.79992 0.01547 0.0
O284 O 0.622 0.80668 0.0194 0.0
O285 O 0.63971 0.80635 0.04864 0.0
In286 In 0.17705 0.65482 0.01373 0.0
O287 O 0.18962 0.62014 0.01583 0.0
O288 O 0.20512 0.64422 0.03422 0.0
C289 C 0.15389 0.65479 0.97723 0.0
C290 C 0.20321 0.68784 0.00421 0.0
C291 C 0.14654 0.65407 0.04448 0.0
O292 O 0.16837 0.64103 0.98078 0.0
O293 O 0.15134 0.6684 0.99196 0.0
O294 O 0.16073 0.6685 0.04368 0.0
O295 O 0.14791 0.64008 0.02996 0.0
C296 C 0.20428 0.62474 0.02902 0.0
O297 O 0.18926 0.68892 0.01888 0.0
O298 O 0.20374 0.6702 0.99428 0.0
In299 In 0.825 0.3443 0.01897 0.0
O300 O 0.81517 0.30944 0.02396 0.0
O301 O 0.79969 0.32708 0.99918 0.0
C302 C 0.8537 0.34629 0.05127 0.0
C303 C 0.79637 0.37377 0.03278 0.0
C304 C 0.84974 0.34568 0.98355 0.0
O305 O 0.84063 0.33095 0.04936 0.0
O306 O 0.85205 0.36062 0.0371 0.0
O307 O 0.83359 0.35771 0.98584 0.0
O308 O 0.85315 0.33307 0.99897 0.0
C309 C 0.80143 0.3095 0.00908 0.0
O310 O 0.81165 0.3786 0.02041 0.0
O311 O 0.7955 0.35424 0.03784 0.0
In312 In 0.51683 0.8446 0.67637 0.0
O313 O 0.51846 0.87926 0.6889 0.0
O314 O 0.53436 0.85493 0.70659 0.0
C315 C 0.48124 0.84523 0.65175 0.0
C316 C 0.50784 0.81039 0.70122 0.0
C317 C 0.54887 0.84675 0.64724 0.0
O318 O 0.48333 0.85718 0.66797 0.0
O319 O 0.49697 0.83306 0.64813 0.0
O320 O 0.54582 0.83035 0.65874 0.0
O321 O 0.53595 0.86192 0.65062 0.0
C322 C 0.52987 0.87454 0.70494 0.0
O323 O 0.52454 0.81138 0.68976 0.0
O324 O 0.49566 0.82652 0.69989 0.0
In325 In 0.15264 0.51949 0.674 0.0
O326 O 0.12015 0.51834 0.69139 0.0
O327 O 0.14058 0.54507 0.69675 0.0
C328 C 0.15209 0.48168 0.6531 0.0
C329 C 0.18417 0.51136 0.70231 0.0
C330 C 0.15299 0.54793 0.64117 0.0
O331 O 0.13508 0.491 0.65895 0.0
O332 O 0.1692 0.49134 0.65783 0.0
O333 O 0.16751 0.54754 0.65526 0.0
O334 O 0.13861 0.53398 0.64358 0.0
C335 C 0.12304 0.53596 0.70094 0.0
O336 O 0.18666 0.52403 0.68665 0.0
O337 O 0.16582 0.50284 0.70356 0.0
In338 In 0.48175 0.15541 0.67088 0.0
O339 O 0.47266 0.18856 0.68409 0.0
O340 O 0.50272 0.1754 0.69304 0.0
C341 C 0.44847 0.1566 0.64302 0.0
C342 C 0.46936 0.12527 0.69928 0.0
C343 C 0.51734 0.14834 0.64695 0.0
O344 O 0.46292 0.17075 0.64334 0.0
O345 O 0.4505 0.14216 0.657 0.0
O346 O 0.51507 0.14038 0.66541 0.0
O347 O 0.50161 0.15927 0.64061 0.0
C348 C 0.48972 0.19076 0.69477 0.0
O349 O 0.47759 0.12042 0.68138 0.0
O350 O 0.46775 0.14514 0.70277 0.0
In351 In 0.84687 0.48042 0.67386 0.0
O352 O 0.87689 0.48381 0.69503 0.0
O353 O 0.86481 0.45258 0.6888 0.0
C354 C 0.84636 0.5182 0.65275 0.0
C355 C 0.81398 0.48464 0.70191 0.0
C356 C 0.84875 0.45293 0.64061 0.0
O357 O 0.86209 0.51247 0.66417 0.0
O358 O 0.83106 0.50501 0.6522 0.0
O359 O 0.83503 0.45116 0.65543 0.0
O360 O 0.86141 0.46863 0.64255 0.0
C361 C 0.87884 0.46386 0.69794 0.0
O362 O 0.81221 0.47428 0.68463 0.0
O363 O 0.83227 0.49262 0.70503 0.0
In364 In 0.51842 0.15593 0.33067 0.0
O365 O 0.51462 0.1266 0.3086 0.0
O366 O 0.54602 0.13773 0.31552 0.0
C367 C 0.48232 0.15506 0.35441 0.0
C368 C 0.51181 0.1881 0.30229 0.0
C369 C 0.54692 0.15605 0.36303 0.0
O370 O 0.48808 0.1394 0.34293 0.0
O371 O 0.49468 0.17106 0.35376 0.0
O372 O 0.54626 0.17079 0.34911 0.0
O373 O 0.53309 0.14142 0.36066 0.0
C374 C 0.53453 0.12422 0.30591 0.0
O375 O 0.52659 0.18872 0.3161 0.0
O376 O 0.50056 0.17135 0.30283 0.0
In377 In 0.8516 0.52394 0.32491 0.0
O378 O 0.88069 0.52093 0.30239 0.0
O379 O 0.86989 0.55207 0.31071 0.0
C380 C 0.85469 0.48608 0.34578 0.0
C381 C 0.81916 0.51878 0.2968 0.0
C382 C 0.84716 0.5511 0.35829 0.0
O383 O 0.87029 0.49882 0.34408 0.0
O384 O 0.83775 0.49215 0.33661 0.0
O385 O 0.83463 0.55147 0.34237 0.0
O386 O 0.86159 0.53697 0.35737 0.0
C387 C 0.88315 0.54091 0.30037 0.0
O388 O 0.81693 0.52902 0.31415 0.0
O389 O 0.83773 0.51134 0.29367 0.0
In390 In 0.48177 0.8469 0.32486 0.0
O391 O 0.47585 0.81286 0.31274 0.0
O392 O 0.50244 0.83005 0.30001 0.0
C393 C 0.45018 0.84908 0.35442 0.0
C394 C 0.46753 0.8759 0.29597 0.0
C395 C 0.51735 0.84791 0.34942 0.0
O396 O 0.4527 0.83296 0.34242 0.0
O397 O 0.46342 0.86405 0.35133 0.0
O398 O 0.51474 0.86049 0.33374 0.0
O399 O 0.50213 0.83497 0.35252 0.0
C400 C 0.4916 0.81295 0.29998 0.0
O401 O 0.48097 0.88079 0.31032 0.0
O402 O 0.46153 0.85663 0.29629 0.0
In403 In 0.15017 0.47935 0.3245 0.0
O404 O 0.18461 0.47419 0.31354 0.0
O405 O 0.16507 0.49599 0.29578 0.0
C406 C 0.15003 0.45022 0.35669 0.0
C407 C 0.12232 0.46338 0.29552 0.0
C408 C 0.14716 0.51661 0.34641 0.0
O409 O 0.16639 0.45352 0.34523 0.0
O410 O 0.13406 0.46157 0.35191 0.0
O411 O 0.13096 0.50537 0.34193 0.0
O412 O 0.16471 0.50929 0.33963 0.0
C413 C 0.18313 0.48697 0.29784 0.0
O414 O 0.1189 0.4809 0.30508 0.0
O415 O 0.13955 0.45416 0.30061 0.0
In416 In 0.67401 0.51853 0.84668 0.0
O417 O 0.68601 0.52177 0.88132 0.0
O418 O 0.70496 0.53506 0.85625 0.0
C419 C 0.64922 0.4834 0.8527 0.0
C420 C 0.69866 0.50919 0.81225 0.0
C421 C 0.64562 0.5513 0.84549 0.0
O422 O 0.66721 0.4855 0.86176 0.0
O423 O 0.64383 0.499 0.8411 0.0
O424 O 0.64914 0.53937 0.82952 0.0
O425 O 0.65667 0.54698 0.86185 0.0
C426 C 0.70275 0.53198 0.87612 0.0
O427 O 0.68869 0.52673 0.81403 0.0
O428 O 0.69593 0.49638 0.82765 0.0
In429 In 0.4812 0.67155 0.84927 0.0
O430 O 0.47698 0.68104 0.81403 0.0
O431 O 0.49069 0.70386 0.83532 0.0
C432 C 0.45358 0.63844 0.8449 0.0
C433 C 0.46542 0.69534 0.88207 0.0
C434 C 0.51977 0.65185 0.85183 0.0
O435 O 0.45085 0.65614 0.83543 0.0
O436 O 0.47035 0.6374 0.85615 0.0
O437 O 0.50722 0.65321 0.86765 0.0
O438 O 0.51308 0.66074 0.83497 0.0
C439 C 0.48486 0.69956 0.81643 0.0
O440 O 0.48523 0.69432 0.8781 0.0
O441 O 0.45388 0.68416 0.86986 0.0
In442 In 0.32614 0.47825 0.84657 0.0
O443 O 0.31173 0.47075 0.81362 0.0
O444 O 0.2968 0.49481 0.83251 0.0
C445 C 0.35872 0.44995 0.84666 0.0
C446 C 0.30173 0.46189 0.87844 0.0
C447 C 0.34966 0.51458 0.84534 0.0
O448 O 0.34458 0.45018 0.83212 0.0
O449 O 0.3564 0.46404 0.86103 0.0
O450 O 0.33939 0.50894 0.86189 0.0
O451 O 0.34778 0.50207 0.82957 0.0
C452 C 0.29688 0.48442 0.81517 0.0
O453 O 0.30555 0.48173 0.87705 0.0
O454 O 0.31014 0.45065 0.86394 0.0
In455 In 0.52105 0.32502 0.84505 0.0
O456 O 0.52661 0.31511 0.81019 0.0
O457 O 0.50225 0.29899 0.82782 0.0
C458 C 0.55244 0.35449 0.84968 0.0
C459 C 0.53504 0.29537 0.8733 0.0
C460 C 0.48536 0.34949 0.84588 0.0
O461 O 0.55039 0.34337 0.83287 0.0
O462 O 0.53881 0.35055 0.8641 0.0
O463 O 0.48794 0.33381 0.85846 0.0
O464 O 0.50065 0.35261 0.83303 0.0
C465 C 0.5122 0.30086 0.8103 0.0
O466 O 0.52051 0.30867 0.87804 0.0
O467 O 0.54228 0.2971 0.85451 0.0
In468 In 0.67647 0.48031 0.15553 0.0
O469 O 0.68968 0.47925 0.12111 0.0
O470 O 0.70418 0.45947 0.14474 0.0
C471 C 0.65183 0.51576 0.15567 0.0
C472 C 0.70298 0.49078 0.188 0.0
C473 C 0.64627 0.44933 0.15434 0.0
O474 O 0.66612 0.51266 0.14162 0.0
O475 O 0.65029 0.50117 0.1696 0.0
O476 O 0.65984 0.45054 0.16933 0.0
O477 O 0.64816 0.4635 0.14006 0.0
C478 C 0.70387 0.46546 0.12546 0.0
O479 O 0.68999 0.47526 0.18919 0.0
O480 O 0.70238 0.50105 0.17056 0.0
In481 In 0.51919 0.67177 0.1543 0.0
O482 O 0.51568 0.69451 0.12543 0.0
O483 O 0.54692 0.68442 0.13435 0.0
C484 C 0.48175 0.64998 0.15378 0.0
C485 C 0.51486 0.70035 0.18671 0.0
C486 C 0.54749 0.63923 0.15482 0.0
O487 O 0.48813 0.66082 0.13792 0.0
O488 O 0.49413 0.6503 0.16975 0.0
O489 O 0.54845 0.65471 0.16788 0.0
O490 O 0.53216 0.64015 0.14158 0.0
C491 C 0.53557 0.69539 0.12179 0.0
O492 O 0.52587 0.68349 0.18854 0.0
O493 O 0.50622 0.70276 0.16862 0.0
In494 In 0.32398 0.52034 0.1536 0.0
O495 O 0.31142 0.52633 0.18744 0.0
O496 O 0.29781 0.50063 0.16955 0.0
C497 C 0.35392 0.55156 0.15169 0.0
C498 C 0.29635 0.53414 0.12317 0.0
C499 C 0.34841 0.48468 0.15455 0.0
O500 O 0.34009 0.55077 0.16646 0.0
O501 O 0.35241 0.53686 0.13791 0.0
O502 O 0.33385 0.48738 0.14068 0.0
O503 O 0.35032 0.49978 0.16787 0.0
C504 C 0.29792 0.51122 0.18681 0.0
O505 O 0.31097 0.52074 0.11904 0.0
O506 O 0.29576 0.54029 0.14238 0.0
In507 In 0.4812 0.3287 0.15621 0.0
O508 O 0.47582 0.31669 0.19057 0.0
O509 O 0.49508 0.29783 0.1699 0.0
C510 C 0.45263 0.36106 0.15612 0.0
C511 C 0.46438 0.30482 0.12421 0.0
C512 C 0.51836 0.35093 0.15584 0.0
O513 O 0.45214 0.34615 0.16985 0.0
O514 O 0.46764 0.35969 0.14256 0.0
O515 O 0.51247 0.33952 0.14018 0.0
O516 O 0.50559 0.351 0.1715 0.0
C517 C 0.48704 0.30002 0.18828 0.0
O518 O 0.48434 0.30762 0.12611 0.0
O519 O 0.45317 0.31397 0.13829 0.0
In520 In 0.84351 0.67443 0.52146 0.0
O521 O 0.80943 0.68552 0.52894 0.0
O522 O 0.82567 0.6998 0.50249 0.0
C523 C 0.84598 0.64505 0.5532 0.0
C524 C 0.87439 0.7024 0.53369 0.0
C525 C 0.84248 0.65111 0.48506 0.0
O526 O 0.83182 0.65952 0.55301 0.0
O527 O 0.85882 0.64563 0.53761 0.0
O528 O 0.85556 0.66636 0.48771 0.0
O529 O 0.83002 0.64784 0.50064 0.0
C530 C 0.80887 0.69899 0.51379 0.0
O531 O 0.87869 0.68552 0.52342 0.0
O532 O 0.85477 0.70513 0.53753 0.0
In533 In 0.84578 0.32987 0.47697 0.0
O534 O 0.81282 0.31553 0.46909 0.0
O535 O 0.82975 0.30306 0.49583 0.0
C536 C 0.84754 0.36141 0.44759 0.0
C537 C 0.87458 0.30237 0.46031 0.0
C538 C 0.84884 0.3545 0.51247 0.0
O539 O 0.82996 0.35416 0.45461 0.0
O540 O 0.86412 0.35282 0.45538 0.0
O541 O 0.86343 0.34145 0.50724 0.0
O542 O 0.833 0.35489 0.49996 0.0
C543 C 0.81312 0.30228 0.48438 0.0
O544 O 0.87574 0.30866 0.47956 0.0
O545 O 0.85896 0.30981 0.4498 0.0
In546 In 0.67161 0.84662 0.48355 0.0
O547 O 0.68522 0.88085 0.48084 0.0
O548 O 0.7002 0.85592 0.46316 0.0
C549 C 0.64822 0.84789 0.51999 0.0
C550 C 0.69617 0.81229 0.49271 0.0
C551 C 0.64196 0.84848 0.4521 0.0
O552 O 0.66444 0.85973 0.51724 0.0
O553 O 0.64398 0.83565 0.50447 0.0
O554 O 0.65461 0.83279 0.45415 0.0
O555 O 0.64438 0.86315 0.46581 0.0
C556 C 0.69982 0.87555 0.46784 0.0
O557 O 0.68164 0.81177 0.47859 0.0
O558 O 0.69807 0.83003 0.50229 0.0
In559 In 0.15513 0.67226 0.47819 0.0
O560 O 0.18776 0.68646 0.46906 0.0
O561 O 0.17213 0.69885 0.49659 0.0
C562 C 0.15278 0.64063 0.44894 0.0
C563 C 0.1257 0.69957 0.46217 0.0
C564 C 0.15315 0.64791 0.51403 0.0
O565 O 0.17044 0.64744 0.45615 0.0
O566 O 0.13634 0.64972 0.45644 0.0
O567 O 0.1392 0.66203 0.50993 0.0
O568 O 0.16778 0.6463 0.50022 0.0
C569 C 0.18824 0.6996 0.48443 0.0
O570 O 0.1241 0.69192 0.4809 0.0
O571 O 0.14206 0.69355 0.45189 0.0
In572 In 0.32299 0.1498 0.48312 0.0
O573 O 0.30641 0.11669 0.4828 0.0
O574 O 0.29807 0.13932 0.45881 0.0
C575 C 0.3431 0.14827 0.52146 0.0
C576 C 0.29716 0.18333 0.49102 0.0
C577 C 0.3556 0.15073 0.45443 0.0
O578 O 0.33732 0.13149 0.51169 0.0
O579 O 0.33844 0.16555 0.51211 0.0
O580 O 0.33992 0.16344 0.45345 0.0
O581 O 0.35481 0.13767 0.46978 0.0
C582 C 0.29519 0.12088 0.46647 0.0
O583 O 0.31407 0.18495 0.47995 0.0
O584 O 0.29336 0.16475 0.49824 0.0
In585 In 0.15623 0.32764 0.52041 0.0
O586 O 0.18791 0.31208 0.53045 0.0
O587 O 0.17632 0.30597 0.49903 0.0
C588 C 0.15862 0.35548 0.55348 0.0
C589 C 0.12519 0.29988 0.53204 0.0
C590 C 0.15077 0.35258 0.48531 0.0
O591 O 0.1734 0.35346 0.53981 0.0
O592 O 0.14289 0.34307 0.55085 0.0
O593 O 0.14213 0.33434 0.4869 0.0
O594 O 0.16162 0.35812 0.50137 0.0
C595 C 0.19065 0.30247 0.51285 0.0
O596 O 0.12087 0.31804 0.52411 0.0
O597 O 0.14493 0.29586 0.53378 0.0
In598 In 0.67718 0.15403 0.52103 0.0
O599 O 0.68924 0.18813 0.52696 0.0
O600 O 0.70256 0.1706 0.50086 0.0
C601 C 0.64814 0.15003 0.55287 0.0
C602 C 0.70629 0.12497 0.53436 0.0
C603 C 0.65165 0.15421 0.48613 0.0
O604 O 0.65907 0.16691 0.55028 0.0
O605 O 0.65213 0.13529 0.53963 0.0
O606 O 0.66711 0.14123 0.48806 0.0
O607 O 0.64932 0.16695 0.50165 0.0
C608 C 0.70236 0.18783 0.51149 0.0
O609 O 0.692 0.12033 0.52076 0.0
O610 O 0.70586 0.14407 0.54095 0.0
In611 In 0.32675 0.84606 0.51763 0.0
O612 O 0.31553 0.81149 0.52213 0.0
O613 O 0.30015 0.83039 0.49825 0.0
C614 C 0.35648 0.847 0.54909 0.0
C615 C 0.29889 0.87528 0.53342 0.0
C616 C 0.35046 0.84775 0.48142 0.0
O617 O 0.34399 0.83128 0.54645 0.0
O618 O 0.35383 0.86218 0.53598 0.0
O619 O 0.33458 0.85996 0.48445 0.0
O620 O 0.3542 0.83486 0.49653 0.0
C621 C 0.3013 0.81254 0.50774 0.0
O622 O 0.3133 0.88032 0.5201 0.0
O623 O 0.29859 0.85573 0.5385 0.0
C624 C 0.11484 0.43894 0.26504 0.0
C625 C 0.10725 0.45384 0.28002 0.0
C626 C 0.10073 0.42819 0.25128 0.0
C627 C 0.07841 0.43206 0.25291 0.0
C628 C 0.07069 0.4476 0.26757 0.0
C629 C 0.08529 0.45852 0.28084 0.0
C630 C 0.10967 0.41207 0.23556 0.0
C631 C 0.047 0.45189 0.27 0.0
C632 C 0.04517 0.40979 0.20701 0.0
C633 C 0.04056 0.38918 0.21468 0.0
C634 C 0.05671 0.42444 0.21966 0.0
C635 C 0.06331 0.41839 0.24054 0.0
C636 C 0.0574 0.39809 0.24879 0.0
C637 C 0.04632 0.38363 0.23565 0.0
C638 C 0.06299 0.44581 0.21019 0.0
C639 C 0.06373 0.39118 0.27113 0.0
H640 H 0.13186 0.43548 0.26424 0.0
H641 H 0.07943 0.47 0.2925 0.0
H642 H 0.10463 0.39568 0.24028 0.0
H643 H 0.10324 0.41514 0.21925 0.0
H644 H 0.12747 0.4125 0.23485 0.0
H645 H 0.04375 0.46588 0.28053 0.0
H646 H 0.03952 0.45479 0.25413 0.0
H647 H 0.03909 0.43757 0.27702 0.0
H648 H 0.04077 0.41405 0.19074 0.0
H649 H 0.04256 0.36775 0.24166 0.0
H650 H 0.08051 0.44595 0.20708 0.0
H651 H 0.05953 0.45899 0.22162 0.0
H652 H 0.0545 0.44911 0.19488 0.0
H653 H 0.08133 0.3887 0.27184 0.0
H654 H 0.05572 0.37603 0.276 0.0
H655 H 0.05964 0.40384 0.28293 0.0
C656 C 0.60132 0.07092 0.21539 0.0
C657 C 0.60351 0.04857 0.21544 0.0
C658 C 0.58778 0.08124 0.23001 0.0
C659 C 0.57641 0.06893 0.24532 0.0
C660 C 0.57807 0.04628 0.24507 0.0
C661 C 0.59153 0.03632 0.22997 0.0
C662 C 0.58621 0.10542 0.2295 0.0
C663 C 0.56639 0.03267 0.26132 0.0
C664 C 0.5652 0.10118 0.29533 0.0
C665 C 0.54396 0.10765 0.29196 0.0
C666 C 0.57545 0.08729 0.28099 0.0
C667 C 0.56434 0.08013 0.26254 0.0
C668 C 0.54255 0.08585 0.25955 0.0
C669 C 0.53251 0.09942 0.27449 0.0
C670 C 0.59856 0.08122 0.28501 0.0
C671 C 0.53028 0.07878 0.23993 0.0
H672 H 0.61039 0.08043 0.204 0.0
H673 H 0.59322 0.01902 0.23001 0.0
H674 H 0.56916 0.11049 0.22907 0.0
H675 H 0.59341 0.1122 0.24429 0.0
H676 H 0.59459 0.11244 0.21543 0.0
H677 H 0.56777 0.01527 0.25775 0.0
H678 H 0.57313 0.03568 0.27751 0.0
H679 H 0.54916 0.03706 0.26187 0.0
H680 H 0.57398 0.10736 0.30902 0.0
H681 H 0.51608 0.10447 0.27187 0.0
H682 H 0.609 0.08926 0.27306 0.0
H683 H 0.60079 0.06367 0.28311 0.0
H684 H 0.60401 0.08593 0.3013 0.0
H685 H 0.53667 0.08723 0.22563 0.0
H686 H 0.51287 0.08233 0.24127 0.0
H687 H 0.53239 0.06135 0.23716 0.0
C688 C 0.93613 0.60624 0.20784 0.0
C689 C 0.95822 0.61012 0.20918 0.0
C690 C 0.92589 0.59256 0.2224 0.0
C691 C 0.93795 0.58287 0.23901 0.0
C692 C 0.96043 0.58609 0.23997 0.0
C693 C 0.97037 0.59957 0.22486 0.0
C694 C 0.90195 0.58925 0.22055 0.0
C695 C 0.97378 0.57623 0.25759 0.0
C696 C 0.90422 0.57255 0.28835 0.0
C697 C 0.89936 0.55073 0.28619 0.0
C698 C 0.91784 0.58288 0.27378 0.0
C699 C 0.92653 0.57118 0.25638 0.0
C700 C 0.92241 0.54891 0.25461 0.0
C701 C 0.90895 0.53888 0.26967 0.0
C702 C 0.92209 0.60658 0.27645 0.0
C703 C 0.93121 0.53595 0.23617 0.0
H704 H 0.92675 0.61422 0.19556 0.0
H705 H 0.98745 0.60262 0.22592 0.0
H706 H 0.89805 0.5719 0.22103 0.0
H707 H 0.89377 0.59693 0.23436 0.0
H708 H 0.89533 0.59617 0.20553 0.0
H709 H 0.99124 0.57835 0.25477 0.0
H710 H 0.9696 0.58384 0.27312 0.0
H711 H 0.97027 0.55886 0.2591 0.0
H712 H 0.89699 0.58171 0.30124 0.0
H713 H 0.90519 0.522 0.26796 0.0
H714 H 0.91416 0.61558 0.2633 0.0
H715 H 0.93954 0.6099 0.27542 0.0
H716 H 0.916 0.61281 0.29199 0.0
H717 H 0.9232 0.54094 0.22109 0.0
H718 H 0.92862 0.51847 0.23843 0.0
H719 H 0.94863 0.53895 0.23417 0.0
C720 C 0.46057 0.91363 0.28393 0.0
C721 C 0.45853 0.89149 0.28057 0.0
C722 C 0.44992 0.92835 0.27057 0.0
C723 C 0.43715 0.92068 0.25341 0.0
C724 C 0.43605 0.89838 0.24931 0.0
C725 C 0.44665 0.88408 0.263 0.0
C726 C 0.45143 0.95199 0.27547 0.0
C727 C 0.42281 0.88952 0.23106 0.0
C728 C 0.38729 0.94957 0.23457 0.0
C729 C 0.39385 0.95772 0.21469 0.0
C730 C 0.40164 0.93859 0.2479 0.0
C731 C 0.42307 0.93547 0.24109 0.0
C732 C 0.4301 0.9446 0.22151 0.0
C733 C 0.41538 0.95573 0.20853 0.0
C734 C 0.39353 0.92933 0.26877 0.0
C735 C 0.45281 0.94159 0.21371 0.0
H736 H 0.46978 0.91941 0.29749 0.0
H737 H 0.44522 0.86698 0.26021 0.0
H738 H 0.45491 0.96124 0.26068 0.0
H739 H 0.4358 0.95774 0.28175 0.0
H740 H 0.46403 0.95554 0.28756 0.0
H741 H 0.42524 0.87201 0.22884 0.0
H742 H 0.40554 0.89243 0.23425 0.0
H743 H 0.42689 0.8978 0.21586 0.0
H744 H 0.3707 0.95127 0.2395 0.0
H745 H 0.42051 0.96203 0.19317 0.0
H746 H 0.40441 0.93371 0.28214 0.0
H747 H 0.39327 0.91157 0.26771 0.0
H748 H 0.37709 0.93497 0.27271 0.0
H749 H 0.46442 0.94516 0.22671 0.0
H750 H 0.4565 0.95194 0.19969 0.0
H751 H 0.45523 0.92461 0.20897 0.0
C752 C 0.11379 0.56198 0.72962 0.0
C753 C 0.10729 0.54552 0.71581 0.0
C754 C 0.0991 0.57216 0.74321 0.0
C755 C 0.07726 0.56596 0.74272 0.0
C756 C 0.07064 0.54901 0.72911 0.0
C757 C 0.08582 0.53884 0.71589 0.0
C758 C 0.1069 0.58994 0.7577 0.0
C759 C 0.04746 0.54217 0.72799 0.0
C760 C 0.04527 0.58656 0.79016 0.0
C761 C 0.03826 0.60639 0.78228 0.0
C762 C 0.057 0.57247 0.77705 0.0
C763 C 0.06141 0.57831 0.75554 0.0
C764 C 0.05289 0.59759 0.74712 0.0
C765 C 0.0416 0.61151 0.76067 0.0
C766 C 0.06598 0.55217 0.78667 0.0
C767 C 0.05687 0.60421 0.72417 0.0
H768 H 0.13042 0.56705 0.72975 0.0
H769 H 0.08078 0.52612 0.70518 0.0
H770 H 0.09952 0.60536 0.75278 0.0
H771 H 0.10196 0.58679 0.7745 0.0
H772 H 0.12462 0.59178 0.75724 0.0
H773 H 0.04519 0.5277 0.71785 0.0
H774 H 0.0412 0.53878 0.74429 0.0
H775 H 0.03767 0.55541 0.72124 0.0
H776 H 0.04273 0.5826 0.80689 0.0
H777 H 0.03598 0.62676 0.7545 0.0
H778 H 0.08356 0.55396 0.78883 0.0
H779 H 0.06335 0.53835 0.7758 0.0
H780 H 0.05871 0.54849 0.80251 0.0
H781 H 0.07396 0.60876 0.72219 0.0
H782 H 0.04677 0.61808 0.71935 0.0
H783 H 0.05362 0.59066 0.71312 0.0
C784 C 0.41337 0.04299 0.78223 0.0
C785 C 0.39141 0.0473 0.78011 0.0
C786 C 0.42849 0.05328 0.76902 0.0
C787 C 0.42136 0.06801 0.75326 0.0
C788 C 0.39911 0.07162 0.75047 0.0
C789 C 0.38444 0.06132 0.764 0.0
C790 C 0.45207 0.04911 0.77253 0.0
C791 C 0.3908 0.08701 0.73369 0.0
C792 C 0.45423 0.11556 0.7349 0.0
C793 C 0.46024 0.10927 0.71418 0.0
C794 C 0.44275 0.10167 0.74834 0.0
C795 C 0.43693 0.08108 0.74077 0.0
C796 C 0.444 0.07419 0.72031 0.0
C797 C 0.45569 0.08838 0.70726 0.0
C798 C 0.43577 0.10956 0.77015 0.0
C799 C 0.43805 0.05239 0.71166 0.0
H800 H 0.4188 0.03215 0.79469 0.0
H801 H 0.36746 0.06456 0.76216 0.0
H802 H 0.46008 0.04537 0.7571 0.0
H803 H 0.45977 0.06376 0.77907 0.0
H804 H 0.4549 0.03568 0.78389 0.0
H805 H 0.37303 0.08676 0.7325 0.0
H806 H 0.39595 0.10357 0.73769 0.0
H807 H 0.39762 0.08303 0.71775 0.0
H808 H 0.45789 0.13164 0.74039 0.0
H809 H 0.46031 0.08347 0.69124 0.0
H810 H 0.43953 0.09745 0.78263 0.0
H811 H 0.41814 0.112 0.77022 0.0
H812 H 0.44361 0.12493 0.77456 0.0
H813 H 0.44107 0.03978 0.72384 0.0
H814 H 0.44711 0.04838 0.69686 0.0
H815 H 0.42066 0.05208 0.70788 0.0
C816 C 0.90506 0.46595 0.72829 0.0
C817 C 0.89548 0.45419 0.71171 0.0
C818 C 0.91875 0.45588 0.74312 0.0
C819 C 0.92318 0.4337 0.74099 0.0
C820 C 0.9146 0.42216 0.72342 0.0
C821 C 0.90068 0.4325 0.70914 0.0
C822 C 0.92738 0.46866 0.76177 0.0
C823 C 0.91922 0.39859 0.72031 0.0
C824 C 0.96697 0.40501 0.77234 0.0
C825 C 0.95476 0.39408 0.78772 0.0
C826 C 0.95708 0.41875 0.75743 0.0
C827 C 0.93457 0.42182 0.75826 0.0
C828 C 0.92243 0.41173 0.77457 0.0
C829 C 0.93264 0.39784 0.78895 0.0
C830 C 0.9705 0.42904 0.74013 0.0
C831 C 0.89846 0.41484 0.77628 0.0
H832 H 0.90101 0.48273 0.73031 0.0
H833 H 0.89348 0.42344 0.69616 0.0
H834 H 0.91924 0.46349 0.77672 0.0
H835 H 0.94479 0.46566 0.7639 0.0
H836 H 0.92477 0.48615 0.75968 0.0
H837 H 0.91336 0.3926 0.70458 0.0
H838 H 0.9367 0.39548 0.72144 0.0
H839 H 0.91129 0.38921 0.73318 0.0
H840 H 0.98408 0.40209 0.77136 0.0
H841 H 0.9232 0.38958 0.801 0.0
H842 H 0.96679 0.44639 0.73882 0.0
H843 H 0.96662 0.42161 0.72444 0.0
H844 H 0.98796 0.42711 0.74315 0.0
H845 H 0.89443 0.43216 0.77607 0.0
H846 H 0.89176 0.40761 0.79112 0.0
H847 H 0.89045 0.40733 0.76227 0.0
C848 C 0.58577 0.95792 0.78682 0.0
C849 C 0.60776 0.95446 0.78368 0.0
C850 C 0.57049 0.9472 0.77414 0.0
C851 C 0.57748 0.93305 0.75779 0.0
C852 C 0.5997 0.93044 0.75391 0.0
C853 C 0.61454 0.94101 0.76703 0.0
C854 C 0.54696 0.95019 0.77891 0.0
C855 C 0.60785 0.91581 0.73641 0.0
C856 C 0.5464 0.88418 0.73991 0.0
C857 C 0.53887 0.89064 0.71976 0.0
C858 C 0.55767 0.89841 0.75315 0.0
C859 C 0.56192 0.91948 0.74584 0.0
C860 C 0.5534 0.92644 0.72596 0.0
C861 C 0.54177 0.91194 0.7132 0.0
C862 C 0.56611 0.89046 0.77441 0.0
C863 C 0.55778 0.94868 0.71752 0.0
H864 H 0.58051 0.96829 0.79974 0.0
H865 H 0.63155 0.93848 0.76443 0.0
H866 H 0.53795 0.95367 0.76397 0.0
H867 H 0.54034 0.93513 0.78569 0.0
H868 H 0.5441 0.96337 0.79055 0.0
H869 H 0.62549 0.91706 0.73423 0.0
H870 H 0.60386 0.89893 0.74038 0.0
H871 H 0.59993 0.91967 0.72095 0.0
H872 H 0.54398 0.86776 0.7451 0.0
H873 H 0.536 0.91694 0.69758 0.0
H874 H 0.56248 0.90216 0.78731 0.0
H875 H 0.5838 0.88878 0.77355 0.0
H876 H 0.55918 0.87467 0.77891 0.0
H877 H 0.55483 0.96088 0.73012 0.0
H878 H 0.54774 0.95254 0.70331 0.0
H879 H 0.5749 0.94994 0.71282 0.0
C880 C 0.20923 0.04223 0.41033 0.0
C881 C 0.21548 0.04088 0.38879 0.0
C882 C 0.22202 0.05314 0.42538 0.0
C883 C 0.24166 0.06247 0.41874 0.0
C884 C 0.24861 0.05989 0.39728 0.0
C885 C 0.23532 0.04936 0.38252 0.0
C886 C 0.2139 0.0558 0.44802 0.0
C887 C 0.26962 0.06919 0.3896 0.0
C888 C 0.26331 0.11331 0.44385 0.0
C889 C 0.28019 0.10554 0.45646 0.0
C890 C 0.24992 0.09931 0.43248 0.0
C891 C 0.25382 0.07696 0.43331 0.0
C892 C 0.27044 0.06894 0.44659 0.0
C893 C 0.28332 0.08336 0.45823 0.0
C894 C 0.2321 0.10855 0.4189 0.0
C895 C 0.27531 0.04526 0.44763 0.0
H896 H 0.19385 0.03574 0.41519 0.0
H897 H 0.24028 0.04814 0.3659 0.0
H898 H 0.22668 0.0519 0.45976 0.0
H899 H 0.20929 0.07278 0.45066 0.0
H900 H 0.19973 0.04552 0.45131 0.0
H901 H 0.27384 0.06363 0.37322 0.0
H902 H 0.26855 0.08695 0.3894 0.0
H903 H 0.28279 0.06476 0.40071 0.0
H904 H 0.26072 0.13047 0.44263 0.0
H905 H 0.29644 0.07734 0.46793 0.0
H906 H 0.21676 0.10021 0.42232 0.0
H907 H 0.2358 0.10604 0.40168 0.0
H908 H 0.22985 0.126 0.42168 0.0
H909 H 0.26046 0.03596 0.4507 0.0
H910 H 0.28723 0.04141 0.46029 0.0
H911 H 0.28177 0.03987 0.43195 0.0
C912 C 0.90182 0.27297 0.46307 0.0
C913 C 0.8901 0.28745 0.4505 0.0
C914 C 0.91522 0.25758 0.45344 0.0
C915 C 0.91722 0.25708 0.43082 0.0
C916 C 0.90616 0.27239 0.4182 0.0
C917 C 0.89255 0.2872 0.42818 0.0
C918 C 0.92644 0.24128 0.46738 0.0
C919 C 0.90818 0.27272 0.39406 0.0
C920 C 0.96168 0.22706 0.40186 0.0
C921 C 0.95032 0.20954 0.39356 0.0
C922 C 0.95137 0.24233 0.41486 0.0
C923 C 0.92939 0.23966 0.41998 0.0
C924 C 0.91831 0.22122 0.41273 0.0
C925 C 0.92884 0.20654 0.39938 0.0
C926 C 0.96363 0.26195 0.42198 0.0
C927 C 0.89501 0.2175 0.4182 0.0
H928 H 0.89988 0.27313 0.48034 0.0
H929 H 0.88368 0.29856 0.41845 0.0
H930 H 0.91962 0.22514 0.46428 0.0
H931 H 0.94375 0.24055 0.46339 0.0
H932 H 0.92469 0.24493 0.48473 0.0
H933 H 0.90012 0.28685 0.3868 0.0
H934 H 0.92533 0.27288 0.38931 0.0
H935 H 0.9009 0.25799 0.38724 0.0
H936 H 0.97829 0.22942 0.39729 0.0
H937 H 0.92011 0.19286 0.39314 0.0
H938 H 0.96123 0.26486 0.43935 0.0
H939 H 0.95745 0.27622 0.41332 0.0
H940 H 0.98109 0.26049 0.41874 0.0
H941 H 0.89233 0.21959 0.43567 0.0
H942 H 0.88951 0.20122 0.4135 0.0
H943 H 0.88491 0.22948 0.40978 0.0
C944 C 0.70985 0.91297 0.45706 0.0
C945 C 0.71463 0.89101 0.45766 0.0
C946 C 0.7226 0.92722 0.44508 0.0
C947 C 0.74062 0.91929 0.43373 0.0
C948 C 0.74609 0.89731 0.43528 0.0
C949 C 0.73295 0.88344 0.44709 0.0
C950 C 0.71618 0.95051 0.4437 0.0
C951 C 0.76533 0.88823 0.42368 0.0
C952 C 0.76016 0.94432 0.38198 0.0
C953 C 0.77904 0.95455 0.3886 0.0
C954 C 0.74687 0.93382 0.39676 0.0
C955 C 0.75274 0.9333 0.41869 0.0
C956 C 0.77131 0.94441 0.42562 0.0
C957 C 0.78421 0.95502 0.41047 0.0
C958 C 0.72708 0.9224 0.38872 0.0
C959 C 0.77816 0.94413 0.44883 0.0
H960 H 0.69566 0.91886 0.46518 0.0
H961 H 0.73681 0.8665 0.44768 0.0
H962 H 0.73018 0.96102 0.44685 0.0
H963 H 0.71045 0.95411 0.42725 0.0
H964 H 0.70322 0.95459 0.45522 0.0
H965 H 0.76845 0.87124 0.42806 0.0
H966 H 0.76267 0.88912 0.40611 0.0
H967 H 0.77986 0.89781 0.42736 0.0
H968 H 0.756 0.94408 0.3651 0.0
H969 H 0.7988 0.96291 0.41566 0.0
H970 H 0.71292 0.92693 0.39849 0.0
H971 H 0.72927 0.90482 0.39034 0.0
H972 H 0.72363 0.9261 0.37163 0.0
H973 H 0.76447 0.94822 0.45942 0.0
H974 H 0.7915 0.95549 0.45203 0.0
H975 H 0.78353 0.92774 0.45322 0.0
C976 C 0.06411 0.79512 0.40644 0.0
C977 C 0.0441 0.7895 0.39791 0.0
C978 C 0.07556 0.78086 0.41951 0.0
C979 C 0.06699 0.76027 0.42376 0.0
C980 C 0.04627 0.75491 0.41608 0.0
C981 C 0.03496 0.76972 0.40338 0.0
C982 C 0.09738 0.78738 0.42773 0.0
C983 C 0.03669 0.73304 0.42001 0.0
C984 C 0.10931 0.71716 0.43037 0.0
C985 C 0.10974 0.71428 0.45264 0.0
C986 C 0.09491 0.73151 0.4208 0.0
C987 C 0.08084 0.74363 0.43385 0.0
C988 C 0.08096 0.74058 0.45637 0.0
C989 C 0.09531 0.72575 0.46551 0.0
C990 C 0.09509 0.734 0.39669 0.0
C991 C 0.06642 0.75345 0.47081 0.0
H992 H 0.07113 0.81051 0.40237 0.0
H993 H 0.01951 0.76531 0.39672 0.0
H994 H 0.09892 0.78355 0.44504 0.0
H995 H 0.10997 0.77824 0.4191 0.0
H996 H 0.10049 0.80477 0.42543 0.0
H997 H 0.01953 0.7323 0.41529 0.0
H998 H 0.04566 0.7209 0.41058 0.0
H999 H 0.03813 0.72855 0.43715 0.0
H1000 H 0.12029 0.70816 0.42034 0.0
H1001 H 0.09565 0.72357 0.48275 0.0
H1002 H 0.10036 0.75043 0.39238 0.0
H1003 H 0.07868 0.73179 0.39018 0.0
H1004 H 0.10598 0.72233 0.38877 0.0
H1005 H 0.07076 0.77068 0.4698 0.0
H1006 H 0.06754 0.74829 0.48782 0.0
H1007 H 0.04952 0.75196 0.46547 0.0
C1008 C 0.2371 0.94769 0.61563 0.0
C1009 C 0.21809 0.95715 0.60825 0.0
C1010 C 0.2507 0.93655 0.60163 0.0
C1011 C 0.24502 0.93458 0.57974 0.0
C1012 C 0.22632 0.94489 0.57199 0.0
C1013 C 0.2131 0.95618 0.58635 0.0
C1014 C 0.27064 0.92603 0.61051 0.0
C1015 C 0.21967 0.94303 0.5488 0.0
C1016 C 0.28844 0.91296 0.5427 0.0
C1017 C 0.28405 0.89093 0.54323 0.0
C1018 C 0.27545 0.92759 0.55393 0.0
C1019 C 0.25756 0.91994 0.56567 0.0
C1020 C 0.25254 0.89781 0.56537 0.0
C1021 C 0.26592 0.88357 0.55429 0.0
C1022 C 0.28141 0.95104 0.55402 0.0
C1023 C 0.23346 0.88901 0.57743 0.0
H1024 H 0.24111 0.94855 0.63253 0.0
H1025 H 0.19841 0.96346 0.58059 0.0
H1026 H 0.26878 0.90834 0.60998 0.0
H1027 H 0.28479 0.9302 0.60058 0.0
H1028 H 0.27387 0.93084 0.62736 0.0
H1029 H 0.20608 0.95386 0.54482 0.0
H1030 H 0.23334 0.9468 0.53807 0.0
H1031 H 0.21472 0.92629 0.54539 0.0
H1032 H 0.30248 0.91869 0.53419 0.0
H1033 H 0.26237 0.86656 0.55458 0.0
H1034 H 0.28673 0.95574 0.57033 0.0
H1035 H 0.26727 0.96106 0.54998 0.0
H1036 H 0.29451 0.9547 0.54252 0.0
H1037 H 0.23598 0.89106 0.59492 0.0
H1038 H 0.23075 0.87172 0.57411 0.0
H1039 H 0.21873 0.89801 0.57309 0.0
C1040 C 0.04122 0.2172 0.58587 0.0
C1041 C 0.04552 0.21896 0.60787 0.0
C1042 C 0.05165 0.23056 0.57098 0.0
C1043 C 0.06653 0.24606 0.57836 0.0
C1044 C 0.07014 0.24848 0.60064 0.0
C1045 C 0.05967 0.23485 0.61509 0.0
C1046 C 0.04746 0.22747 0.54735 0.0
C1047 C 0.08573 0.26493 0.60923 0.0
C1048 C 0.11459 0.26413 0.54618 0.0
C1049 C 0.10877 0.28511 0.5406 0.0
C1050 C 0.10036 0.25072 0.55722 0.0
C1051 C 0.07986 0.25855 0.56303 0.0
C1052 C 0.0734 0.27927 0.55632 0.0
C1053 C 0.08795 0.29232 0.54507 0.0
C1054 C 0.10781 0.22864 0.56384 0.0
C1055 C 0.05169 0.28818 0.56222 0.0
H1056 H 0.03027 0.20494 0.58024 0.0
H1057 H 0.06289 0.23641 0.6321 0.0
H1058 H 0.04405 0.24309 0.53954 0.0
H1059 H 0.06199 0.22074 0.53958 0.0
H1060 H 0.03381 0.21644 0.54434 0.0
H1061 H 0.08546 0.26587 0.62701 0.0
H1062 H 0.10224 0.26079 0.60406 0.0
H1063 H 0.08196 0.28102 0.60264 0.0
H1064 H 0.13061 0.25841 0.54254 0.0
H1065 H 0.08339 0.30853 0.54077 0.0
H1066 H 0.09549 0.21645 0.55981 0.0
H1067 H 0.11017 0.2282 0.58147 0.0
H1068 H 0.12314 0.22408 0.556 0.0
H1069 H 0.03891 0.27623 0.559 0.0
H1070 H 0.04796 0.30314 0.5533 0.0
H1071 H 0.05134 0.29178 0.57964 0.0
C1072 C 0.79147 0.04333 0.58761 0.0
C1073 C 0.78628 0.04357 0.60947 0.0
C1074 C 0.77873 0.05439 0.57263 0.0
C1075 C 0.76029 0.06559 0.57974 0.0
C1076 C 0.75437 0.06476 0.60164 0.0
C1077 C 0.76753 0.05392 0.61625 0.0
C1078 C 0.78566 0.05507 0.54946 0.0
C1079 C 0.73464 0.07618 0.60986 0.0
C1080 C 0.74018 0.11638 0.55348 0.0
C1081 C 0.7216 0.10919 0.54312 0.0
C1082 C 0.75371 0.10204 0.56424 0.0
C1083 C 0.74829 0.08001 0.56501 0.0
C1084 C 0.73008 0.07248 0.5537 0.0
C1085 C 0.717 0.08719 0.54269 0.0
C1086 C 0.77319 0.11069 0.57578 0.0
C1087 C 0.72368 0.04916 0.55431 0.0
H1088 H 0.80599 0.03534 0.58235 0.0
H1089 H 0.76336 0.05393 0.63312 0.0
H1090 H 0.77192 0.05154 0.53872 0.0
H1091 H 0.79141 0.07143 0.54549 0.0
H1092 H 0.79876 0.04349 0.54604 0.0
H1093 H 0.73112 0.07217 0.62686 0.0
H1094 H 0.73697 0.09377 0.6086 0.0
H1095 H 0.72046 0.07195 0.59997 0.0
H1096 H 0.74389 0.13336 0.55362 0.0
H1097 H 0.7026 0.08162 0.5347 0.0
H1098 H 0.78755 0.10095 0.57186 0.0
H1099 H 0.77065 0.10963 0.59335 0.0
H1100 H 0.77649 0.12768 0.57158 0.0
H1101 H 0.7377 0.03871 0.55108 0.0
H1102 H 0.71087 0.04543 0.5425 0.0
H1103 H 0.71769 0.04512 0.57057 0.0
C1104 C 0.91156 0.70982 0.54676 0.0
C1105 C 0.89085 0.71717 0.54207 0.0
C1106 C 0.92617 0.72289 0.55789 0.0
C1107 C 0.91998 0.74388 0.564 0.0
C1108 C 0.89961 0.75184 0.55786 0.0
C1109 C 0.8852 0.73828 0.54721 0.0
C1110 C 0.9476 0.71372 0.56441 0.0
C1111 C 0.89255 0.77427 0.56362 0.0
C1112 C 0.94019 0.7688 0.6155 0.0
C1113 C 0.95534 0.78357 0.60798 0.0
C1114 C 0.92936 0.75511 0.60138 0.0
C1115 C 0.93342 0.75657 0.57909 0.0
C1116 C 0.94908 0.77112 0.57141 0.0
C1117 C 0.96008 0.78434 0.58603 0.0
C1118 C 0.91311 0.73952 0.6103 0.0
C1119 C 0.95355 0.77339 0.54774 0.0
H1120 H 0.91591 0.69345 0.54285 0.0
H1121 H 0.86925 0.74406 0.54338 0.0
H1122 H 0.96069 0.72522 0.56091 0.0
H1123 H 0.94765 0.7108 0.58197 0.0
H1124 H 0.95109 0.69834 0.55613 0.0
H1125 H 0.87752 0.77893 0.55525 0.0
H1126 H 0.88974 0.7753 0.58116 0.0
H1127 H 0.90525 0.78604 0.55954 0.0
H1128 H 0.93667 0.76803 0.63251 0.0
H1129 H 0.97177 0.79581 0.58021 0.0
H1130 H 0.91632 0.72311 0.60421 0.0
H1131 H 0.89679 0.74411 0.6049 0.0
H1132 H 0.91322 0.73909 0.62811 0.0
H1133 H 0.95673 0.75748 0.54046 0.0
H1134 H 0.96744 0.78406 0.54451 0.0
H1135 H 0.93922 0.78013 0.53962 0.0
C1136 C 0.43323 0.29451 0.10163 0.0
C1137 C 0.45462 0.29112 0.10761 0.0
C1138 C 0.42273 0.28036 0.0877 0.0
C1139 C 0.43373 0.26204 0.08003 0.0
C1140 C 0.45563 0.259 0.08532 0.0
C1141 C 0.46591 0.27377 0.0989 0.0
C1142 C 0.39953 0.28447 0.08206 0.0
C1143 C 0.46778 0.23948 0.07778 0.0
C1144 C 0.39662 0.21505 0.07018 0.0
C1145 C 0.39447 0.21537 0.04783 0.0
C1146 C 0.41021 0.2295 0.0807 0.0
C1147 C 0.42153 0.24503 0.0686 0.0
C1148 C 0.41979 0.24513 0.04595 0.0
C1149 C 0.40643 0.23008 0.03577 0.0
C1150 C 0.41194 0.22853 0.10484 0.0
C1151 C 0.43128 0.26171 0.03257 0.0
H1152 H 0.42455 0.30807 0.10819 0.0
H1153 H 0.48244 0.27111 0.1036 0.0
H1154 H 0.39702 0.28284 0.06452 0.0
H1155 H 0.38922 0.27239 0.09007 0.0
H1156 H 0.39416 0.30068 0.08712 0.0
H1157 H 0.48522 0.24068 0.08123 0.0
H1158 H 0.46138 0.22503 0.08597 0.0
H1159 H 0.46554 0.23708 0.0603 0.0
H1160 H 0.38755 0.20351 0.0795 0.0
H1161 H 0.4047 0.23035 0.01848 0.0
H1162 H 0.40471 0.24314 0.11196 0.0
H1163 H 0.42903 0.22809 0.10978 0.0
H1164 H 0.40368 0.21429 0.11164 0.0
H1165 H 0.42458 0.27782 0.03606 0.0
H1166 H 0.42968 0.25855 0.01512 0.0
H1167 H 0.44857 0.26217 0.03675 0.0
C1168 C 0.40106 0.79004 0.93141 0.0
C1169 C 0.3971 0.78991 0.95353 0.0
C1170 C 0.41458 0.7748 0.92195 0.0
C1171 C 0.42424 0.75884 0.93489 0.0
C1172 C 0.42106 0.75916 0.95739 0.0
C1173 C 0.40756 0.77479 0.96648 0.0
C1174 C 0.41772 0.77521 0.89793 0.0
C1175 C 0.43102 0.74237 0.97169 0.0
C1176 C 0.43433 0.7077 0.90384 0.0
C1177 C 0.45601 0.70983 0.8983 0.0
C1178 C 0.42416 0.7229 0.9169 0.0
C1179 C 0.43589 0.74082 0.92442 0.0
C1180 C 0.45808 0.74247 0.91983 0.0
C1181 C 0.46793 0.72686 0.90687 0.0
C1182 C 0.40053 0.72037 0.92162 0.0
C1183 C 0.47111 0.76135 0.92751 0.0
H1184 H 0.39315 0.80182 0.92135 0.0
H1185 H 0.40453 0.77463 0.98359 0.0
H1186 H 0.43506 0.77465 0.89396 0.0
H1187 H 0.41012 0.76086 0.89067 0.0
H1188 H 0.41063 0.78973 0.89044 0.0
H1189 H 0.42908 0.74627 0.98896 0.0
H1190 H 0.42335 0.72663 0.96856 0.0
H1191 H 0.44836 0.74062 0.96811 0.0
H1192 H 0.42509 0.69445 0.89741 0.0
H1193 H 0.4847 0.72856 0.90261 0.0
H1194 H 0.39136 0.73301 0.91307 0.0
H1195 H 0.39743 0.72238 0.93902 0.0
H1196 H 0.3943 0.70448 0.91652 0.0
H1197 H 0.46618 0.77594 0.9186 0.0
H1198 H 0.48858 0.75888 0.92504 0.0
H1199 H 0.46813 0.76441 0.94477 0.0
C1200 C 0.28938 0.43028 0.8993 0.0
C1201 C 0.28786 0.45228 0.89506 0.0
C1202 C 0.27505 0.42015 0.91332 0.0
C1203 C 0.25848 0.43225 0.92304 0.0
C1204 C 0.25737 0.45468 0.9195 0.0
C1205 C 0.27224 0.46449 0.90565 0.0
C1206 C 0.27706 0.39628 0.91692 0.0
C1207 C 0.2398 0.46807 0.92937 0.0
C1208 C 0.20957 0.39805 0.93381 0.0
C1209 C 0.21189 0.39332 0.95564 0.0
C1210 C 0.22385 0.41188 0.92336 0.0
C1211 C 0.2412 0.42086 0.93494 0.0
C1212 C 0.24309 0.4169 0.95724 0.0
C1213 C 0.22824 0.40329 0.96741 0.0
C1214 C 0.22099 0.41598 0.89966 0.0
C1215 C 0.2615 0.42597 0.97006 0.0
H1216 H 0.3016 0.42083 0.89131 0.0
H1217 H 0.27102 0.48151 0.90235 0.0
H1218 H 0.27668 0.39259 0.93432 0.0
H1219 H 0.26326 0.38793 0.90939 0.0
H1220 H 0.29209 0.38966 0.91002 0.0
H1221 H 0.24263 0.48551 0.92717 0.0
H1222 H 0.22424 0.46387 0.92183 0.0
H1223 H 0.23835 0.46464 0.94676 0.0
H1224 H 0.19678 0.39053 0.92473 0.0
H1225 H 0.23008 0.3996 0.98429 0.0
H1226 H 0.23409 0.40803 0.89062 0.0
H1227 H 0.22194 0.43341 0.89622 0.0
H1228 H 0.20541 0.40981 0.8936 0.0
H1229 H 0.2766 0.41791 0.96522 0.0
H1230 H 0.25923 0.42365 0.98758 0.0
H1231 H 0.26347 0.44333 0.96677 0.0
C1232 C 0.61341 0.23392 0.94888 0.0
C1233 C 0.60743 0.21327 0.95543 0.0
C1234 C 0.59908 0.24714 0.93774 0.0
C1235 C 0.5783 0.23946 0.93282 0.0
C1236 C 0.57175 0.21905 0.94039 0.0
C1237 C 0.58642 0.20619 0.95172 0.0
C1238 C 0.60665 0.26888 0.93019 0.0
C1239 C 0.54974 0.21032 0.93545 0.0
C1240 C 0.54014 0.28157 0.91071 0.0
C1241 C 0.54383 0.27958 0.88863 0.0
C1242 C 0.55046 0.26792 0.92541 0.0
C1243 C 0.56459 0.25187 0.91775 0.0
C1244 C 0.56739 0.2491 0.89539 0.0
C1245 C 0.55708 0.26306 0.88113 0.0
C1246 C 0.54712 0.27141 0.94912 0.0
C1247 C 0.58213 0.23204 0.88652 0.0
H1248 H 0.62958 0.23955 0.95192 0.0
H1249 H 0.58175 0.19023 0.95679 0.0
H1250 H 0.60816 0.26884 0.91246 0.0
H1251 H 0.59479 0.28142 0.93449 0.0
H1252 H 0.62243 0.27333 0.93716 0.0
H1253 H 0.54611 0.19562 0.94485 0.0
H1254 H 0.53725 0.22252 0.93883 0.0
H1255 H 0.54871 0.20634 0.91814 0.0
H1256 H 0.52987 0.29432 0.91656 0.0
H1257 H 0.5598 0.26132 0.86405 0.0
H1258 H 0.56197 0.27814 0.95626 0.0
H1259 H 0.54384 0.25596 0.95731 0.0
H1260 H 0.53368 0.28263 0.95241 0.0
H1261 H 0.59897 0.2359 0.89079 0.0
H1262 H 0.58098 0.23069 0.8688 0.0
H1263 H 0.57831 0.21622 0.89369 0.0
C1264 C 0.71183 0.54359 0.91348 0.0
C1265 C 0.71775 0.54132 0.89192 0.0
C1266 C 0.72481 0.55513 0.92786 0.0
C1267 C 0.74421 0.56437 0.92048 0.0
C1268 C 0.75083 0.56096 0.89903 0.0
C1269 C 0.73746 0.5496 0.88499 0.0
C1270 C 0.71717 0.55848 0.95057 0.0
C1271 C 0.77151 0.57031 0.89056 0.0
C1272 C 0.76513 0.61644 0.94361 0.0
C1273 C 0.7826 0.60946 0.9559 0.0
C1274 C 0.75192 0.6018 0.93287 0.0
C1275 C 0.75643 0.57959 0.93421 0.0
C1276 C 0.77358 0.57236 0.94725 0.0
C1277 C 0.78643 0.58742 0.95807 0.0
C1278 C 0.73363 0.6102 0.91936 0.0
C1279 C 0.77894 0.54883 0.94897 0.0
H1280 H 0.69659 0.53721 0.9189 0.0
H1281 H 0.7422 0.54771 0.86837 0.0
H1282 H 0.73028 0.5552 0.96214 0.0
H1283 H 0.71233 0.57547 0.95272 0.0
H1284 H 0.70324 0.5481 0.95456 0.0
H1285 H 0.77544 0.56431 0.87426 0.0
H1286 H 0.77018 0.58804 0.88985 0.0
H1287 H 0.78502 0.56642 0.90147 0.0
H1288 H 0.76199 0.63347 0.94205 0.0
H1289 H 0.79995 0.58197 0.96755 0.0
H1290 H 0.7185 0.60184 0.92358 0.0
H1291 H 0.7369 0.60695 0.90218 0.0
H1292 H 0.73121 0.62773 0.92141 0.0
H1293 H 0.76436 0.53939 0.9528 0.0
H1294 H 0.79129 0.54565 0.96142 0.0
H1295 H 0.78506 0.54298 0.93332 0.0
C1296 C 0.56585 0.70454 0.0976 0.0
C1297 C 0.54525 0.7092 0.10522 0.0
C1298 C 0.57666 0.71882 0.08403 0.0
C1299 C 0.5668 0.73847 0.07839 0.0
C1300 C 0.54555 0.74278 0.08519 0.0
C1301 C 0.5349 0.72793 0.0984 0.0
C1302 C 0.59911 0.71339 0.07675 0.0
C1303 C 0.53462 0.76368 0.07978 0.0
C1304 C 0.60674 0.78349 0.07062 0.0
C1305 C 0.60785 0.78501 0.04824 0.0
C1306 C 0.59272 0.76904 0.08055 0.0
C1307 C 0.57979 0.75543 0.06779 0.0
C1308 C 0.58051 0.75718 0.04515 0.0
C1309 C 0.59443 0.77215 0.03561 0.0
C1310 C 0.59219 0.76798 0.10476 0.0
C1311 C 0.56721 0.7427 0.03104 0.0
H1312 H 0.57378 0.68993 0.1027 0.0
H1313 H 0.51898 0.73156 0.10435 0.0
H1314 H 0.60088 0.71634 0.0593 0.0
H1315 H 0.61079 0.72385 0.08515 0.0
H1316 H 0.60334 0.69641 0.08013 0.0
H1317 H 0.51728 0.76344 0.08391 0.0
H1318 H 0.54238 0.7769 0.08882 0.0
H1319 H 0.53634 0.76738 0.06247 0.0
H1320 H 0.61694 0.79359 0.08043 0.0
H1321 H 0.59531 0.77331 0.01829 0.0
H1322 H 0.59845 0.75225 0.11021 0.0
H1323 H 0.57544 0.76937 0.1106 0.0
H1324 H 0.60194 0.78084 0.11231 0.0
H1325 H 0.57276 0.72589 0.0329 0.0
H1326 H 0.56834 0.74719 0.01384 0.0
H1327 H 0.55013 0.74319 0.03599 0.0
C1328 C 0.2135 0.58685 0.03882 0.0
C1329 C 0.21879 0.6087 0.03869 0.0
C1330 C 0.22601 0.57204 0.05036 0.0
C1331 C 0.2443 0.57929 0.06172 0.0
C1332 C 0.25034 0.60114 0.06055 0.0
C1333 C 0.23742 0.61558 0.04919 0.0
C1334 C 0.21899 0.5489 0.05135 0.0
C1335 C 0.26988 0.60951 0.07217 0.0
C1336 C 0.26302 0.55368 0.1134 0.0
C1337 C 0.28168 0.54303 0.10684 0.0
C1338 C 0.24998 0.56441 0.09858 0.0
C1339 C 0.25594 0.5648 0.07669 0.0
C1340 C 0.27425 0.55323 0.06979 0.0
C1341 C 0.28686 0.54232 0.08499 0.0
C1342 C 0.23043 0.57626 0.10658 0.0
C1343 C 0.28119 0.5534 0.04662 0.0
H1344 H 0.19908 0.5815 0.03072 0.0
H1345 H 0.24168 0.63244 0.04893 0.0
H1346 H 0.23275 0.53806 0.04826 0.0
H1347 H 0.21294 0.54526 0.06768 0.0
H1348 H 0.20608 0.54531 0.03961 0.0
H1349 H 0.27354 0.62641 0.06789 0.0
H1350 H 0.26722 0.6086 0.08973 0.0
H1351 H 0.28409 0.59949 0.06841 0.0
H1352 H 0.25884 0.55406 0.13027 0.0
H1353 H 0.3013 0.5341 0.07988 0.0
H1354 H 0.21622 0.57219 0.09668 0.0
H1355 H 0.23308 0.5938 0.10514 0.0
H1356 H 0.22677 0.57251 0.12361 0.0
H1357 H 0.26739 0.54995 0.03593 0.0
H1358 H 0.29408 0.54152 0.0434 0.0
H1359 H 0.28725 0.56958 0.04239 0.0
C1360 C 0.7133 0.45665 0.08742 0.0
C1361 C 0.71836 0.45601 0.10931 0.0
C1362 C 0.72577 0.44538 0.07238 0.0
C1363 C 0.74381 0.43352 0.07946 0.0
C1364 C 0.7496 0.43386 0.10141 0.0
C1365 C 0.73671 0.44495 0.11607 0.0
C1366 C 0.719 0.44526 0.04915 0.0
C1367 C 0.7689 0.42171 0.1096 0.0
C1368 C 0.76266 0.3828 0.05209 0.0
C1369 C 0.7815 0.38972 0.042 0.0
C1370 C 0.74952 0.39723 0.06321 0.0
C1371 C 0.75556 0.41908 0.06456 0.0
C1372 C 0.77404 0.42636 0.05354 0.0
C1373 C 0.78676 0.41157 0.04224 0.0
C1374 C 0.72977 0.38886 0.07446 0.0
C1375 C 0.78107 0.44948 0.05473 0.0
H1376 H 0.69908 0.46517 0.08217 0.0
H1377 H 0.74078 0.4446 0.13297 0.0
H1378 H 0.73289 0.44871 0.03859 0.0
H1379 H 0.71297 0.42908 0.04484 0.0
H1380 H 0.70616 0.45715 0.04583 0.0
H1381 H 0.77234 0.42525 0.12671 0.0
H1382 H 0.76609 0.40422 0.10793 0.0
H1383 H 0.7833 0.42574 0.09995 0.0
H1384 H 0.75843 0.36594 0.05175 0.0
H1385 H 0.80134 0.41696 0.03446 0.0
H1386 H 0.71567 0.39901 0.07063 0.0
H1387 H 0.73221 0.38954 0.09207 0.0
H1388 H 0.72607 0.37203 0.06995 0.0
H1389 H 0.76738 0.46036 0.05149 0.0
H1390 H 0.79416 0.45311 0.0432 0.0
H1391 H 0.7869 0.45304 0.07117 0.0
C1392 C 0.9756 0.20966 0.27568 0.0
C1393 C 0.9856 0.21294 0.29555 0.0
C1394 C 0.97873 0.22407 0.25864 0.0
C1395 C 0.99215 0.24215 0.2616 0.0
C1396 C 0.00238 0.24543 0.28159 0.0
C1397 C 0.99899 0.23079 0.29831 0.0
C1398 C 0.96756 0.22006 0.23754 0.0
C1399 C 0.01677 0.26454 0.28541 0.0
C1400 C 0.01601 0.27228 0.21428 0.0
C1401 C 0.00279 0.29044 0.2134 0.0
C1402 C 0.01236 0.25606 0.22949 0.0
C1403 C 0.99507 0.25809 0.24409 0.0
C1404 C 0.98129 0.27607 0.24279 0.0
C1405 C 0.98533 0.29203 0.22748 0.0
C1406 C 0.02738 0.2371 0.23038 0.0
C1407 C 0.96265 0.27879 0.25802 0.0
H1408 H 0.96528 0.19585 0.27346 0.0
H1409 H 0.0068 0.23339 0.31362 0.0
H1410 H 0.95661 0.23358 0.23384 0.0
H1411 H 0.97951 0.21921 0.22439 0.0
H1412 H 0.95811 0.20496 0.23766 0.0
H1413 H 0.02389 0.26452 0.30174 0.0
H1414 H 0.02996 0.26472 0.27348 0.0
H1415 H 0.00751 0.27959 0.28328 0.0
H1416 H 0.02951 0.27096 0.20341 0.0
H1417 H 0.975 0.306 0.22681 0.0
H1418 H 0.01816 0.22191 0.22977 0.0
H1419 H 0.0363 0.23725 0.24578 0.0
H1420 H 0.03916 0.23719 0.21702 0.0
H1421 H 0.95229 0.26434 0.25772 0.0
H1422 H 0.95269 0.29302 0.25405 0.0
H1423 H 0.96873 0.2806 0.27464 0.0
C1424 C 0.7695 0.01162 0.29315 0.0
C1425 C 0.7814 0.99256 0.29211 0.0
C1426 C 0.75394 0.01646 0.27762 0.0
C1427 C 0.75024 0.00193 0.26059 0.0
C1428 C 0.76267 0.98298 0.25908 0.0
C1429 C 0.77808 0.97849 0.2749 0.0
C1430 C 0.74098 0.0368 0.27984 0.0
C1431 C 0.75926 0.96713 0.24109 0.0
C1432 C 0.6949 0.0016 0.2352 0.0
C1433 C 0.69831 0.01327 0.21629 0.0
C1434 C 0.71167 0.99785 0.24972 0.0
C1435 C 0.73241 0.00587 0.24519 0.0
C1436 C 0.73598 0.0177 0.22613 0.0
C1437 C 0.71885 0.02132 0.21191 0.0
C1438 C 0.70715 0.98527 0.26992 0.0
C1439 C 0.7579 0.02645 0.22073 0.0
H1440 H 0.77201 0.02259 0.3064 0.0
H1441 H 0.78727 0.96377 0.27397 0.0
H1442 H 0.74172 0.04625 0.26479 0.0
H1443 H 0.72389 0.03273 0.28269 0.0
H1444 H 0.74669 0.04701 0.29328 0.0
H1445 H 0.77122 0.95393 0.24138 0.0
H1446 H 0.74299 0.96006 0.24235 0.0
H1447 H 0.76024 0.97539 0.22537 0.0
H1448 H 0.67906 0.99535 0.2387 0.0
H1449 H 0.72158 0.0303 0.19728 0.0
H1450 H 0.71116 0.99509 0.2842 0.0
H1451 H 0.71741 0.97075 0.27045 0.0
H1452 H 0.69011 0.98022 0.27111 0.0
H1453 H 0.76338 0.03746 0.23358 0.0
H1454 H 0.75804 0.03525 0.20524 0.0
H1455 H 0.76967 0.01314 0.21983 0.0
C1456 C 0.01421 0.70525 0.22772 0.0
C1457 C 0.99603 0.70624 0.21452 0.0
C1458 C 0.01785 0.72074 0.24363 0.0
C1459 C 0.00283 0.7375 0.24655 0.0
C1460 C 0.98458 0.73876 0.23306 0.0
C1461 C 0.98145 0.72316 0.21712 0.0
C1462 C 0.03758 0.71894 0.25756 0.0
C1463 C 0.96813 0.75631 0.2358 0.0
C1464 C 0.00044 0.76326 0.30165 0.0
C1465 C 0.01167 0.78245 0.29832 0.0
C1466 C 0.99732 0.74859 0.28489 0.0
C1467 C 0.00577 0.75315 0.26431 0.0
C1468 C 0.01721 0.77247 0.26086 0.0
C1469 C 0.01997 0.78694 0.27791 0.0
C1470 C 0.98496 0.72821 0.28919 0.0
C1471 C 0.02657 0.7778 0.23919 0.0
H1472 H 0.02559 0.69227 0.22571 0.0
H1473 H 0.96737 0.72397 0.20697 0.0
H1474 H 0.04686 0.73411 0.25701 0.0
H1475 H 0.03279 0.71628 0.27448 0.0
H1476 H 0.04823 0.70557 0.25252 0.0
H1477 H 0.95523 0.75547 0.22354 0.0
H1478 H 0.96072 0.75513 0.25193 0.0
H1479 H 0.97596 0.77225 0.23475 0.0
H1480 H 0.99393 0.75973 0.31737 0.0
H1481 H 0.02866 0.80176 0.27526 0.0
H1482 H 0.99525 0.71408 0.28592 0.0
H1483 H 0.97094 0.7272 0.27828 0.0
H1484 H 0.97916 0.72723 0.30601 0.0
H1485 H 0.03805 0.76512 0.23427 0.0
H1486 H 0.03503 0.79348 0.23914 0.0
H1487 H 0.01367 0.77826 0.22694 0.0
C1488 C 0.21061 0.01874 0.27048 0.0
C1489 C 0.21244 0.00685 0.28947 0.0
C1490 C 0.22517 0.01581 0.25354 0.0
C1491 C 0.242 0.00071 0.25573 0.0
C1492 C 0.24355 0.98827 0.27466 0.0
C1493 C 0.22872 0.99145 0.29127 0.0
C1494 C 0.22293 0.02927 0.23355 0.0
C1495 C 0.26131 0.97207 0.27767 0.0
C1496 C 0.27405 0.9809 0.20774 0.0
C1497 C 0.29277 0.99324 0.20948 0.0
C1498 C 0.25703 0.98359 0.22229 0.0
C1499 C 0.25889 0.9989 0.23897 0.0
C1500 C 0.27751 0.0118 0.24038 0.0
C1501 C 0.29418 0.00885 0.2256 0.0
C1502 C 0.23736 0.96965 0.2202 0.0
C1503 C 0.28014 0.02828 0.25794 0.0
H1504 H 0.19799 0.0306 0.26896 0.0
H1505 H 0.23019 0.98217 0.30589 0.0
H1506 H 0.23689 0.0402 0.23209 0.0
H1507 H 0.22283 0.01889 0.21911 0.0
H1508 H 0.20805 0.03907 0.23365 0.0
H1509 H 0.2596 0.9629 0.29285 0.0
H1510 H 0.26152 0.96059 0.26409 0.0
H1511 H 0.27704 0.98038 0.27783 0.0
H1512 H 0.27287 0.96884 0.19529 0.0
H1513 H 0.30858 0.01848 0.22701 0.0
H1514 H 0.22269 0.97971 0.21994 0.0
H1515 H 0.23613 0.95889 0.23432 0.0
H1516 H 0.23772 0.95965 0.20547 0.0
H1517 H 0.26636 0.03953 0.25792 0.0
H1518 H 0.29517 0.03768 0.25621 0.0
H1519 H 0.28033 0.02017 0.27378 0.0
C1520 C 0.9884 0.70858 0.77389 0.0
C1521 C 0.00714 0.70732 0.78624 0.0
C1522 C 0.98568 0.72484 0.7586 0.0
C1523 C 0.00215 0.74016 0.75554 0.0
C1524 C 0.02082 0.7394 0.76845 0.0
C1525 C 0.02308 0.72297 0.78369 0.0
C1526 C 0.96548 0.72518 0.74523 0.0
C1527 C 0.0387 0.75547 0.76565 0.0
C1528 C 0.00475 0.76549 0.70031 0.0
C1529 C 0.99453 0.7852 0.70376 0.0
C1530 C 0.00772 0.75089 0.71715 0.0
C1531 C 0.0003 0.75615 0.73795 0.0
C1532 C 0.99036 0.77622 0.74164 0.0
C1533 C 0.98757 0.79052 0.72447 0.0
C1534 C 0.0184 0.72964 0.71257 0.0
C1535 C 0.98229 0.78238 0.76362 0.0
H1536 H 0.97598 0.69658 0.77586 0.0
H1537 H 0.0376 0.72207 0.79322 0.0
H1538 H 0.9578 0.74121 0.7461 0.0
H1539 H 0.96954 0.72218 0.72817 0.0
H1540 H 0.95368 0.71292 0.75048 0.0
H1541 H 0.05146 0.75359 0.77794 0.0
H1542 H 0.04602 0.75353 0.74955 0.0
H1543 H 0.03229 0.77204 0.76656 0.0
H1544 H 0.01019 0.76131 0.68434 0.0
H1545 H 0.97971 0.80577 0.72723 0.0
H1546 H 0.00699 0.71636 0.71578 0.0
H1547 H 0.03235 0.72735 0.72337 0.0
H1548 H 0.02398 0.72836 0.69571 0.0
H1549 H 0.96939 0.7712 0.76863 0.0
H1550 H 0.97589 0.799 0.76404 0.0
H1551 H 0.9954 0.781 0.77557 0.0
C1552 C 0.2279 0.01114 0.70358 0.0
C1553 C 0.21333 0.99407 0.70494 0.0
C1554 C 0.24309 0.01472 0.71977 0.0
C1555 C 0.2436 0.00101 0.73786 0.0
C1556 C 0.22848 0.98417 0.73966 0.0
C1557 C 0.21357 0.98082 0.7231 0.0
C1558 C 0.25904 0.03276 0.71718 0.0
C1559 C 0.22838 0.96937 0.75882 0.0
C1560 C 0.29707 0.99628 0.76651 0.0
C1561 C 0.29443 0.01055 0.78367 0.0
C1562 C 0.2805 0.99275 0.75172 0.0
C1563 C 0.26074 0.00365 0.75424 0.0
C1564 C 0.25778 0.01769 0.77184 0.0
C1565 C 0.27472 0.02105 0.78632 0.0
C1566 C 0.28433 0.97776 0.73309 0.0
C1567 C 0.23687 0.02943 0.77515 0.0
H1568 H 0.22779 0.02143 0.68957 0.0
H1569 H 0.20228 0.96766 0.72425 0.0
H1570 H 0.25856 0.04347 0.73137 0.0
H1571 H 0.27552 0.0261 0.71615 0.0
H1572 H 0.25594 0.0425 0.70259 0.0
H1573 H 0.21465 0.95802 0.75851 0.0
H1574 H 0.24349 0.95997 0.75921 0.0
H1575 H 0.22765 0.97882 0.77387 0.0
H1576 H 0.31227 0.98812 0.76438 0.0
H1577 H 0.27258 0.03204 0.79961 0.0
H1578 H 0.28302 0.98673 0.71779 0.0
H1579 H 0.27192 0.96502 0.73284 0.0
H1580 H 0.30038 0.97005 0.73379 0.0
H1581 H 0.23401 0.04055 0.76156 0.0
H1582 H 0.23672 0.03881 0.79029 0.0
H1583 H 0.22334 0.01789 0.77545 0.0
C1584 C 0.02048 0.216 0.72221 0.0
C1585 C 0.008 0.21634 0.70352 0.0
C1586 C 0.01712 0.23105 0.73862 0.0
C1587 C 0.00093 0.2468 0.73622 0.0
C1588 C 0.988 0.24691 0.71757 0.0
C1589 C 0.99168 0.23167 0.70145 0.0
C1590 C 0.03119 0.2304 0.75832 0.0
C1591 C 0.97057 0.26344 0.71441 0.0
C1592 C 0.98027 0.27725 0.78481 0.0
C1593 C 0.99142 0.2967 0.78303 0.0
C1594 C 0.98343 0.26071 0.76987 0.0
C1595 C 0.99804 0.26373 0.75276 0.0
C1596 C 0.0095 0.28326 0.75103 0.0
C1597 C 0.00605 0.2995 0.7662 0.0
C1598 C 0.97094 0.2401 0.77222 0.0
C1599 C 0.0252 0.28711 0.733 0.0
H1600 H 0.03309 0.20416 0.72389 0.0
H1601 H 0.98195 0.232 0.68705 0.0
H1602 H 0.04075 0.24537 0.75937 0.0
H1603 H 0.02115 0.22951 0.77298 0.0
H1604 H 0.04237 0.21653 0.75819 0.0
H1605 H 0.96138 0.26081 0.69938 0.0
H1606 H 0.95925 0.2631 0.72813 0.0
H1607 H 0.97775 0.27971 0.71389 0.0
H1608 H 0.96897 0.275 0.79783 0.0
H1609 H 0.01473 0.31449 0.76476 0.0
H1610 H 0.98211 0.22627 0.77303 0.0
H1611 H 0.96057 0.23767 0.75798 0.0
H1612 H 0.9607 0.24002 0.7868 0.0
H1613 H 0.03769 0.27443 0.73298 0.0
H1614 H 0.03321 0.30297 0.73425 0.0
H1615 H 0.01676 0.28624 0.71737 0.0
C1616 C 0.77077 0.99042 0.70313 0.0
C1617 C 0.78621 0.00656 0.70573 0.0
C1618 C 0.75514 0.9867 0.71885 0.0
C1619 C 0.75495 0.99942 0.73764 0.0
C1620 C 0.77076 0.01545 0.74057 0.0
C1621 C 0.78622 0.01885 0.72455 0.0
C1622 C 0.73853 0.96946 0.71514 0.0
C1623 C 0.77109 0.02928 0.76043 0.0
C1624 C 0.70173 0.00448 0.76669 0.0
C1625 C 0.70415 0.98963 0.78339 0.0
C1626 C 0.71826 0.00802 0.75187 0.0
C1627 C 0.73769 0.99643 0.7538 0.0
C1628 C 0.74034 0.9816 0.77078 0.0
C1629 C 0.72351 0.97836 0.78539 0.0
C1630 C 0.71483 0.02397 0.73396 0.0
C1631 C 0.76084 0.96897 0.77335 0.0
H1632 H 0.7707 0.98085 0.68861 0.0
H1633 H 0.79813 0.03133 0.72664 0.0
H1634 H 0.73854 0.95794 0.72869 0.0
H1635 H 0.72232 0.97676 0.71441 0.0
H1636 H 0.74137 0.96046 0.70003 0.0
H1637 H 0.785 0.04041 0.7607 0.0
H1638 H 0.75613 0.03888 0.76132 0.0
H1639 H 0.77167 0.01908 0.77499 0.0
H1640 H 0.68681 0.01326 0.76509 0.0
H1641 H 0.72548 0.96689 0.7983 0.0
H1642 H 0.71593 0.01572 0.71824 0.0
H1643 H 0.72759 0.03637 0.73432 0.0
H1644 H 0.699 0.03206 0.73503 0.0
H1645 H 0.76346 0.95876 0.75902 0.0
H1646 H 0.76059 0.95854 0.78779 0.0
H1647 H 0.77472 0.98003 0.77454 0.0
C1648 C 0.21641 0.27524 0.98213 0.0
C1649 C 0.21908 0.29546 0.99159 0.0
C1650 C 0.2315 0.25883 0.98545 0.0
C1651 C 0.24968 0.2628 0.99848 0.0
C1652 C 0.25235 0.28315 0.00817 0.0
C1653 C 0.23702 0.29921 0.00462 0.0
C1654 C 0.22811 0.23733 0.97486 0.0
C1655 C 0.27154 0.28803 0.02212 0.0
C1656 C 0.28155 0.21662 0.02239 0.0
C1657 C 0.29929 0.21577 0.00861 0.0
C1658 C 0.26502 0.23157 0.01905 0.0
C1659 C 0.2663 0.24595 0.00151 0.0
C1660 C 0.28399 0.24486 0.98733 0.0
C1661 C 0.30027 0.2298 0.99107 0.0
C1662 C 0.2464 0.23227 0.03451 0.0
C1663 C 0.28593 0.25989 0.96844 0.0
H1664 H 0.20254 0.27224 0.97209 0.0
H1665 H 0.23917 0.31481 0.01199 0.0
H1666 H 0.24158 0.23388 0.96376 0.0
H1667 H 0.22797 0.22445 0.98713 0.0
H1668 H 0.21285 0.23664 0.96568 0.0
H1669 H 0.27101 0.30451 0.02886 0.0
H1670 H 0.27241 0.27642 0.03557 0.0
H1671 H 0.2865 0.28627 0.01265 0.0
H1672 H 0.28071 0.20579 0.03595 0.0
H1673 H 0.31391 0.22917 0.98031 0.0
H1674 H 0.23104 0.23067 0.02567 0.0
H1675 H 0.24609 0.24799 0.04282 0.0
H1676 H 0.24732 0.21938 0.04677 0.0
H1677 H 0.27143 0.25876 0.9582 0.0
H1678 H 0.30025 0.25639 0.95844 0.0
H1679 H 0.28703 0.27669 0.9742 0.0
C1680 C 0.2183 0.72417 0.01199 0.0
C1681 C 0.21844 0.70541 0.99961 0.0
C1682 C 0.23356 0.74037 0.0086 0.0
C1683 C 0.2493 0.73771 0.99244 0.0
C1684 C 0.24916 0.71904 0.97954 0.0
C1685 C 0.23374 0.7031 0.9833 0.0
C1686 C 0.23321 0.76007 0.02267 0.0
C1687 C 0.26565 0.71565 0.96213 0.0
C1688 C 0.28044 0.78635 0.97289 0.0
C1689 C 0.29968 0.7843 0.98436 0.0
C1690 C 0.26384 0.77134 0.97539 0.0
C1691 C 0.26656 0.75394 0.98972 0.0
C1692 C 0.28594 0.75184 0.00136 0.0
C1693 C 0.30227 0.76703 0.99851 0.0
C1694 C 0.24342 0.77404 0.96266 0.0
C1695 C 0.28944 0.73353 0.01682 0.0
H1696 H 0.20648 0.72604 0.0246 0.0
H1697 H 0.23389 0.68865 0.97365 0.0
H1698 H 0.24815 0.76082 0.0323 0.0
H1699 H 0.23264 0.77476 0.01265 0.0
H1700 H 0.21928 0.76019 0.03377 0.0
H1701 H 0.26266 0.70078 0.9528 0.0
H1702 H 0.26569 0.72948 0.95094 0.0
H1703 H 0.28188 0.71464 0.96934 0.0
H1704 H 0.27836 0.79968 0.96193 0.0
H1705 H 0.3171 0.76539 0.00745 0.0
H1706 H 0.22951 0.77528 0.97368 0.0
H1707 H 0.24074 0.75975 0.9524 0.0
H1708 H 0.24378 0.78851 0.95227 0.0
H1709 H 0.2768 0.73366 0.02935 0.0
H1710 H 0.30535 0.73433 0.0248 0.0
H1711 H 0.28819 0.71801 0.00822 0.0
C1712 C 0.79021 0.27154 0.01558 0.0
C1713 C 0.78768 0.29081 0.00427 0.0
C1714 C 0.77622 0.25423 0.01221 0.0
C1715 C 0.75924 0.25634 0.99728 0.0
C1716 C 0.75708 0.27551 0.9853 0.0
C1717 C 0.77136 0.29249 0.9889 0.0
C1718 C 0.77911 0.234 0.02518 0.0
C1719 C 0.73914 0.27841 0.96928 0.0
C1720 C 0.72768 0.20816 0.97723 0.0
C1721 C 0.70916 0.20944 0.9899 0.0
C1722 C 0.74451 0.22294 0.97986 0.0
C1723 C 0.74263 0.23934 0.99545 0.0
C1724 C 0.72423 0.24027 0.00869 0.0
C1725 C 0.70775 0.22529 0.00578 0.0
C1726 C 0.76398 0.22138 0.96558 0.0
C1727 C 0.7216 0.25753 0.02549 0.0
H1728 H 0.80289 0.27013 0.0274 0.0
H1729 H 0.76938 0.30732 0.98006 0.0
H1730 H 0.76547 0.23212 0.03644 0.0
H1731 H 0.77914 0.21977 0.0145 0.0
H1732 H 0.79424 0.23413 0.03459 0.0
H1733 H 0.74054 0.2937 0.96026 0.0
H1734 H 0.739 0.26494 0.95767 0.0
H1735 H 0.72349 0.27826 0.97775 0.0
H1736 H 0.72885 0.19591 0.96496 0.0
H1737 H 0.69349 0.22633 0.01567 0.0
H1738 H 0.77883 0.22127 0.97539 0.0
H1739 H 0.76478 0.23564 0.95497 0.0
H1740 H 0.76372 0.20676 0.95541 0.0
H1741 H 0.73553 0.25752 0.03654 0.0
H1742 H 0.70673 0.25544 0.03508 0.0
H1743 H 0.72106 0.2735 0.01765 0.0
C1744 C 0.76792 0.7025 0.01018 0.0
C1745 C 0.78433 0.70566 0.99515 0.0
C1746 C 0.75262 0.7185 0.01417 0.0
C1747 C 0.75386 0.73819 0.00293 0.0
C1748 C 0.77076 0.74171 0.98818 0.0
C1749 C 0.78577 0.72536 0.98441 0.0
C1750 C 0.73478 0.71409 0.02994 0.0
C1751 C 0.77267 0.76256 0.97602 0.0
C1752 C 0.70197 0.76914 0.99578 0.0
C1753 C 0.7035 0.78462 0.012 0.0
C1754 C 0.71835 0.75408 0.99256 0.0
C1755 C 0.73678 0.75459 0.0058 0.0
C1756 C 0.73858 0.77038 0.02202 0.0
C1757 C 0.72186 0.78519 0.02498 0.0
C1758 C 0.71578 0.73743 0.97516 0.0
C1759 C 0.75806 0.77148 0.03635 0.0
H1760 H 0.76674 0.6873 0.01854 0.0
H1761 H 0.79848 0.72791 0.97282 0.0
H1762 H 0.73426 0.72684 0.04233 0.0
H1763 H 0.71912 0.71429 0.02149 0.0
H1764 H 0.73665 0.69834 0.03805 0.0
H1765 H 0.78749 0.76328 0.96615 0.0
H1766 H 0.75862 0.76456 0.9653 0.0
H1767 H 0.77268 0.77628 0.98733 0.0
H1768 H 0.68781 0.76862 0.98571 0.0
H1769 H 0.72314 0.79716 0.0375 0.0
H1770 H 0.71598 0.72114 0.98232 0.0
H1771 H 0.72941 0.73836 0.96377 0.0
H1772 H 0.7006 0.73943 0.96604 0.0
H1773 H 0.75955 0.75641 0.04568 0.0
H1774 H 0.75732 0.78516 0.04772 0.0
H1775 H 0.7728 0.77304 0.0265 0.0
C1776 C 0.49711 0.73492 0.8023 0.0
C1777 C 0.48754 0.71493 0.79856 0.0
C1778 C 0.50009 0.74967 0.78559 0.0
C1779 C 0.49329 0.74433 0.7646 0.0
C1780 C 0.48358 0.72418 0.7607 0.0
C1781 C 0.48083 0.70968 0.77774 0.0
C1782 C 0.51054 0.77098 0.79042 0.0
C1783 C 0.47606 0.71797 0.73855 0.0
C1784 C 0.4841 0.79173 0.72753 0.0
C1785 C 0.50342 0.79239 0.71603 0.0
C1786 C 0.48028 0.7757 0.74286 0.0
C1787 C 0.49622 0.76004 0.74688 0.0
C1788 C 0.51549 0.76026 0.73486 0.0
C1789 C 0.51884 0.77641 0.71952 0.0
C1790 C 0.45946 0.77594 0.75523 0.0
C1791 C 0.53289 0.74387 0.73873 0.0
H1792 H 0.50236 0.73906 0.81835 0.0
H1793 H 0.47344 0.69424 0.77476 0.0
H1794 H 0.52515 0.77298 0.78045 0.0
H1795 H 0.49944 0.78425 0.78625 0.0
H1796 H 0.5151 0.77257 0.80756 0.0
H1797 H 0.46886 0.70168 0.73817 0.0
H1798 H 0.46398 0.72967 0.73274 0.0
H1799 H 0.48972 0.71842 0.72716 0.0
H1800 H 0.47207 0.80399 0.72483 0.0
H1801 H 0.53379 0.77685 0.71067 0.0
H1802 H 0.46274 0.77925 0.7724 0.0
H1803 H 0.45158 0.76001 0.75433 0.0
H1804 H 0.44812 0.78826 0.74915 0.0
H1805 H 0.53937 0.7458 0.75519 0.0
H1806 H 0.54633 0.74542 0.72714 0.0
H1807 H 0.52622 0.72742 0.73758 0.0
C1808 C 0.28107 0.47582 0.77929 0.0
C1809 C 0.28086 0.48815 0.79808 0.0
C1810 C 0.26582 0.47922 0.76305 0.0
C1811 C 0.25007 0.49537 0.76569 0.0
C1812 C 0.24989 0.50794 0.78458 0.0
C1813 C 0.26527 0.50416 0.80055 0.0
C1814 C 0.26647 0.46545 0.74315 0.0
C1815 C 0.23338 0.52534 0.78797 0.0
C1816 C 0.22102 0.51763 0.71693 0.0
C1817 C 0.2013 0.50689 0.71809 0.0
C1818 C 0.23717 0.51384 0.73217 0.0
C1819 C 0.2335 0.49892 0.74889 0.0
C1820 C 0.21373 0.48783 0.74995 0.0
C1821 C 0.19785 0.49198 0.73456 0.0
C1822 C 0.25803 0.52603 0.73056 0.0
C1823 C 0.20924 0.47175 0.7675 0.0
H1824 H 0.2931 0.46343 0.7773 0.0
H1825 H 0.26506 0.51378 0.81503 0.0
H1826 H 0.25118 0.45651 0.74149 0.0
H1827 H 0.26817 0.47571 0.72871 0.0
H1828 H 0.27991 0.45376 0.74345 0.0
H1829 H 0.23567 0.53393 0.8034 0.0
H1830 H 0.2342 0.53717 0.7747 0.0
H1831 H 0.21704 0.5183 0.78777 0.0
H1832 H 0.22377 0.52917 0.70423 0.0
H1833 H 0.18266 0.48358 0.7355 0.0
H1834 H 0.27169 0.51466 0.72973 0.0
H1835 H 0.26034 0.53598 0.74513 0.0
H1836 H 0.25858 0.53666 0.71628 0.0
H1837 H 0.22175 0.45911 0.76754 0.0
H1838 H 0.1933 0.464 0.76567 0.0
H1839 H 0.20983 0.4798 0.78335 0.0
C1840 C 0.51808 0.29026 0.77201 0.0
C1841 C 0.5079 0.28673 0.79175 0.0
C1842 C 0.51489 0.27621 0.75469 0.0
C1843 C 0.50143 0.25811 0.7573 0.0
C1844 C 0.49079 0.25474 0.77707 0.0
C1845 C 0.49407 0.26916 0.79401 0.0
C1846 C 0.5263 0.28046 0.73377 0.0
C1847 C 0.47647 0.23552 0.78057 0.0
C1848 C 0.47957 0.22655 0.70993 0.0
C1849 C 0.4936 0.20899 0.70942 0.0
C1850 C 0.48238 0.24314 0.72492 0.0
C1851 C 0.49942 0.24192 0.7399 0.0
C1852 C 0.5139 0.22446 0.73908 0.0
C1853 C 0.51089 0.20829 0.72377 0.0
C1854 C 0.4668 0.26167 0.72511 0.0
C1855 C 0.53215 0.22245 0.7549 0.0
H1856 H 0.5287 0.30389 0.77016 0.0
H1857 H 0.48617 0.26634 0.80923 0.0
H1858 H 0.53811 0.26753 0.73065 0.0
H1859 H 0.51467 0.28035 0.7203 0.0
H1860 H 0.53487 0.29607 0.73381 0.0
H1861 H 0.46875 0.23566 0.79662 0.0
H1862 H 0.46374 0.23501 0.76816 0.0
H1863 H 0.486 0.22058 0.779 0.0
H1864 H 0.46623 0.2272 0.6988 0.0
H1865 H 0.52177 0.19474 0.72347 0.0
H1866 H 0.47562 0.27711 0.72472 0.0
H1867 H 0.45733 0.26137 0.74017 0.0
H1868 H 0.45554 0.26114 0.71132 0.0
H1869 H 0.54223 0.23709 0.75455 0.0
H1870 H 0.54249 0.20833 0.75156 0.0
H1871 H 0.52563 0.2209 0.77139 0.0
C1872 C 0.77548 0.47995 0.71243 0.0
C1873 C 0.7961 0.48755 0.71722 0.0
C1874 C 0.7584 0.48297 0.72682 0.0
C1875 C 0.7621 0.49374 0.74646 0.0
C1876 C 0.78291 0.50138 0.75137 0.0
C1877 C 0.79963 0.49823 0.73667 0.0
C1878 C 0.7364 0.47467 0.72101 0.0
C1879 C 0.78754 0.51283 0.77221 0.0
C1880 C 0.71669 0.5195 0.7779 0.0
C1881 C 0.71348 0.5045 0.79434 0.0
C1882 C 0.73197 0.51587 0.76175 0.0
C1883 C 0.74436 0.49684 0.76213 0.0
C1884 C 0.74071 0.48136 0.77832 0.0
C1885 C 0.72529 0.48536 0.79421 0.0
C1886 C 0.73532 0.5327 0.74468 0.0
C1887 C 0.75362 0.46089 0.77931 0.0
H1888 H 0.77266 0.47173 0.69737 0.0
H1889 H 0.81554 0.50413 0.74047 0.0
H1890 H 0.73096 0.4629 0.73319 0.0
H1891 H 0.72467 0.48805 0.72102 0.0
H1892 H 0.73613 0.46686 0.70501 0.0
H1893 H 0.80459 0.51781 0.77356 0.0
H1894 H 0.77728 0.5273 0.77359 0.0
H1895 H 0.78362 0.50223 0.78595 0.0
H1896 H 0.70756 0.53429 0.77789 0.0
H1897 H 0.72286 0.47368 0.80685 0.0
H1898 H 0.73432 0.52535 0.72851 0.0
H1899 H 0.75159 0.53971 0.7463 0.0
H1900 H 0.72335 0.54586 0.74573 0.0
H1901 H 0.7528 0.45234 0.76373 0.0
H1902 H 0.74793 0.44992 0.79214 0.0
H1903 H 0.77073 0.46474 0.78233 0.0
C1904 C 0.49003 0.20454 0.27305 0.0
C1905 C 0.50797 0.20543 0.28658 0.0
C1906 C 0.4863 0.22052 0.25767 0.0
C1907 C 0.50094 0.23775 0.25569 0.0
C1908 C 0.51896 0.23888 0.26947 0.0
C1909 C 0.52223 0.22271 0.28482 0.0
C1910 C 0.46684 0.21881 0.24335 0.0
C1911 C 0.53498 0.25695 0.26774 0.0
C1912 C 0.50297 0.26589 0.20178 0.0
C1913 C 0.49069 0.28432 0.20567 0.0
C1914 C 0.50661 0.25074 0.21799 0.0
C1915 C 0.49777 0.25411 0.23862 0.0
C1916 C 0.48548 0.27276 0.24271 0.0
C1917 C 0.48207 0.28766 0.22616 0.0
C1918 C 0.51976 0.23103 0.21298 0.0
C1919 C 0.47581 0.27688 0.26452 0.0
H1920 H 0.47889 0.19126 0.2744 0.0
H1921 H 0.53612 0.22346 0.29525 0.0
H1922 H 0.45704 0.2336 0.24456 0.0
H1923 H 0.47197 0.21724 0.22639 0.0
H1924 H 0.45659 0.20484 0.24749 0.0
H1925 H 0.54775 0.25587 0.28012 0.0
H1926 H 0.54261 0.25671 0.25168 0.0
H1927 H 0.52672 0.27261 0.26941 0.0
H1928 H 0.5097 0.26324 0.18597 0.0
H1929 H 0.47262 0.30191 0.22927 0.0
H1930 H 0.5099 0.21642 0.21538 0.0
H1931 H 0.53361 0.22995 0.2241 0.0
H1932 H 0.52589 0.23105 0.19625 0.0
H1933 H 0.4645 0.26379 0.26867 0.0
H1934 H 0.46708 0.29239 0.26522 0.0
H1935 H 0.48857 0.27695 0.27692 0.0
C1936 C 0.80452 0.50242 0.26335 0.0
C1937 C 0.80137 0.51531 0.28149 0.0
C1938 C 0.78783 0.4987 0.24874 0.0
C1939 C 0.76751 0.5082 0.25229 0.0
C1940 C 0.76423 0.52127 0.27057 0.0
C1941 C 0.78121 0.52463 0.285 0.0
C1942 C 0.79195 0.48461 0.22948 0.0
C1943 C 0.74282 0.53174 0.27482 0.0
C1944 C 0.732 0.51383 0.20318 0.0
C1945 C 0.71843 0.49601 0.20522 0.0
C1946 C 0.74765 0.51832 0.2187 0.0
C1947 C 0.74985 0.50461 0.23665 0.0
C1948 C 0.73587 0.48688 0.23907 0.0
C1949 C 0.72028 0.48281 0.22333 0.0
C1950 C 0.76218 0.53745 0.21561 0.0
C1951 C 0.73776 0.47186 0.25797 0.0
H1952 H 0.82005 0.49512 0.26058 0.0
H1953 H 0.7787 0.53461 0.299 0.0
H1954 H 0.78058 0.47093 0.22942 0.0
H1955 H 0.78918 0.49384 0.21452 0.0
H1956 H 0.80857 0.4782 0.2292 0.0
H1957 H 0.74286 0.54136 0.28981 0.0
H1958 H 0.7385 0.54239 0.26124 0.0
H1959 H 0.73012 0.51934 0.27603 0.0
H1960 H 0.73059 0.52413 0.18925 0.0
H1961 H 0.70982 0.46902 0.22498 0.0
H1962 H 0.77898 0.53195 0.21351 0.0
H1963 H 0.7618 0.54784 0.23004 0.0
H1964 H 0.7576 0.5472 0.20143 0.0
H1965 H 0.75358 0.46372 0.25758 0.0
H1966 H 0.72498 0.45945 0.25805 0.0
H1967 H 0.73692 0.48102 0.27319 0.0
C1968 C 0.52183 0.71272 0.22427 0.0
C1969 C 0.5121 0.71603 0.20427 0.0
C1970 C 0.5192 0.72758 0.241 0.0
C1971 C 0.50656 0.74613 0.23759 0.0
C1972 C 0.49668 0.74949 0.21743 0.0
C1973 C 0.49957 0.73441 0.20103 0.0
C1974 C 0.52999 0.72348 0.26228 0.0
C1975 C 0.48308 0.76908 0.21316 0.0
C1976 C 0.48268 0.77716 0.28423 0.0
C1977 C 0.49636 0.79497 0.28528 0.0
C1978 C 0.48618 0.76078 0.2692 0.0
C1979 C 0.50379 0.76226 0.25493 0.0
C1980 C 0.51803 0.77987 0.2564 0.0
C1981 C 0.51412 0.79604 0.27154 0.0
C1982 C 0.47064 0.74224 0.26811 0.0
C1983 C 0.53703 0.78198 0.24152 0.0
H1984 H 0.53151 0.69852 0.22686 0.0
H1985 H 0.49201 0.73704 0.1856 0.0
H1986 H 0.54116 0.7368 0.26607 0.0
H1987 H 0.51783 0.72296 0.27525 0.0
H1988 H 0.53912 0.70818 0.26241 0.0
H1989 H 0.47635 0.76921 0.19667 0.0
H1990 H 0.46963 0.7698 0.22478 0.0
H1991 H 0.49281 0.78381 0.21541 0.0
H1992 H 0.46894 0.77625 0.29484 0.0
H1993 H 0.5248 0.80973 0.27234 0.0
H1994 H 0.47942 0.7268 0.26904 0.0
H1995 H 0.46207 0.74252 0.25251 0.0
H1996 H 0.45857 0.74276 0.2812 0.0
H1997 H 0.54694 0.76722 0.24206 0.0
H1998 H 0.54733 0.79592 0.24565 0.0
H1999 H 0.53133 0.78392 0.22478 0.0
C2000 C 0.28246 0.51979 0.22283 0.0
C2001 C 0.28267 0.50686 0.20444 0.0
C2002 C 0.26717 0.51656 0.23905 0.0
C2003 C 0.25177 0.50003 0.23679 0.0
C2004 C 0.25225 0.48662 0.21848 0.0
C2005 C 0.26769 0.4902 0.20253 0.0
C2006 C 0.26718 0.53115 0.25837 0.0
C2007 C 0.23611 0.46881 0.2155 0.0
C2008 C 0.22064 0.48018 0.2853 0.0
C2009 C 0.20101 0.49085 0.28276 0.0
C2010 C 0.23747 0.48325 0.27064 0.0
C2011 C 0.23454 0.49731 0.25305 0.0
C2012 C 0.21485 0.50834 0.2506 0.0
C2013 C 0.19832 0.50498 0.26548 0.0
C2014 C 0.25825 0.47122 0.27378 0.0
C2015 C 0.21111 0.52347 0.23206 0.0
H2016 H 0.29402 0.53267 0.2244 0.0
H2017 H 0.26781 0.48013 0.18836 0.0
H2018 H 0.25205 0.5405 0.25883 0.0
H2019 H 0.2679 0.52154 0.27332 0.0
H2020 H 0.28088 0.54254 0.25823 0.0
H2021 H 0.23925 0.45923 0.20081 0.0
H2022 H 0.23635 0.4579 0.22955 0.0
H2023 H 0.21973 0.47566 0.2144 0.0
H2024 H 0.22281 0.46925 0.29864 0.0
H2025 H 0.18319 0.51329 0.26345 0.0
H2026 H 0.27187 0.48264 0.27447 0.0
H2027 H 0.26111 0.46044 0.25993 0.0
H2028 H 0.25822 0.46146 0.28868 0.0
H2029 H 0.2236 0.53614 0.23191 0.0
H2030 H 0.1951 0.53127 0.23279 0.0
H2031 H 0.21239 0.51461 0.21669 0.0
C2032 C 0.79151 0.72896 0.49382 0.0
C2033 C 0.79051 0.71354 0.51014 0.0
C2034 C 0.77497 0.74392 0.49099 0.0
C2035 C 0.75694 0.7434 0.50478 0.0
C2036 C 0.75553 0.72746 0.52089 0.0
C2037 C 0.77238 0.71272 0.52341 0.0
C2038 C 0.77709 0.76068 0.47363 0.0
C2039 C 0.73649 0.72634 0.5358 0.0
C2040 C 0.72771 0.7963 0.51141 0.0
C2041 C 0.71065 0.79401 0.49695 0.0
C2042 C 0.74256 0.7797 0.51453 0.0
C2043 C 0.74022 0.7603 0.50298 0.0
C2044 C 0.72263 0.75763 0.48887 0.0
C2045 C 0.70807 0.77456 0.48597 0.0
C2046 C 0.76114 0.7832 0.52967 0.0
C2047 C 0.71954 0.73711 0.4764 0.0
H2048 H 0.80547 0.72965 0.48348 0.0
H2049 H 0.77151 0.70079 0.53602 0.0
H2050 H 0.76282 0.76037 0.46301 0.0
H2051 H 0.77785 0.77687 0.48098 0.0
H2052 H 0.79166 0.7583 0.46366 0.0
H2053 H 0.73714 0.71212 0.54652 0.0
H2054 H 0.7359 0.74099 0.54587 0.0
H2055 H 0.72137 0.72576 0.52644 0.0
H2056 H 0.72977 0.81128 0.51997 0.0
H2057 H 0.69485 0.77269 0.47483 0.0
H2058 H 0.77644 0.78275 0.5206 0.0
H2059 H 0.76176 0.77015 0.54175 0.0
H2060 H 0.76007 0.7988 0.5382 0.0
H2061 H 0.73298 0.73501 0.46492 0.0
H2062 H 0.70423 0.73699 0.46729 0.0
H2063 H 0.71976 0.72313 0.4874 0.0
C2064 C 0.73291 0.20347 0.49092 0.0
C2065 C 0.71702 0.20583 0.50665 0.0
C2066 C 0.74775 0.21987 0.48686 0.0
C2067 C 0.74656 0.2392 0.49871 0.0
C2068 C 0.7302 0.24191 0.51422 0.0
C2069 C 0.71565 0.22514 0.51807 0.0
C2070 C 0.76505 0.21629 0.47029 0.0
C2071 C 0.72833 0.26236 0.52703 0.0
C2072 C 0.79815 0.271 0.5043 0.0
C2073 C 0.79569 0.28671 0.48841 0.0
C2074 C 0.78215 0.25562 0.50798 0.0
C2075 C 0.76314 0.25607 0.49557 0.0
C2076 C 0.76038 0.27213 0.47975 0.0
C2077 C 0.77675 0.28723 0.47629 0.0
C2078 C 0.78578 0.23866 0.52489 0.0
C2079 C 0.74026 0.2732 0.46633 0.0
H2080 H 0.73405 0.18857 0.48203 0.0
H2081 H 0.70335 0.22708 0.53019 0.0
H2082 H 0.76473 0.22932 0.45818 0.0
H2083 H 0.78103 0.21674 0.47811 0.0
H2084 H 0.76327 0.20068 0.46191 0.0
H2085 H 0.71395 0.26245 0.53755 0.0
H2086 H 0.74279 0.26442 0.53719 0.0
H2087 H 0.72751 0.27638 0.51612 0.0
H2088 H 0.81276 0.2705 0.51371 0.0
H2089 H 0.77475 0.2994 0.46404 0.0
H2090 H 0.78567 0.22254 0.51737 0.0
H2091 H 0.77258 0.23901 0.53681 0.0
H2092 H 0.80125 0.24082 0.53346 0.0
H2093 H 0.73872 0.25839 0.4566 0.0
H2094 H 0.7402 0.28723 0.45536 0.0
H2095 H 0.72595 0.27411 0.47685 0.0
C2096 C 0.2881 0.77517 0.51403 0.0
C2097 C 0.28637 0.79472 0.50307 0.0
C2098 C 0.27318 0.75864 0.51064 0.0
C2099 C 0.25609 0.76183 0.49602 0.0
C2100 C 0.25457 0.78136 0.48455 0.0
C2101 C 0.26976 0.79755 0.48818 0.0
C2102 C 0.27539 0.73799 0.52306 0.0
C2103 C 0.23655 0.7854 0.46888 0.0
C2104 C 0.22427 0.7144 0.47468 0.0
C2105 C 0.20598 0.71498 0.48774 0.0
C2106 C 0.24093 0.72931 0.47742 0.0
C2107 C 0.23914 0.74524 0.4935 0.0
C2108 C 0.22079 0.74575 0.50686 0.0
C2109 C 0.20447 0.73057 0.50386 0.0
C2110 C 0.26033 0.72818 0.46299 0.0
C2111 C 0.21822 0.76256 0.5241 0.0
H2112 H 0.30095 0.77288 0.52552 0.0
H2113 H 0.26835 0.81262 0.47964 0.0
H2114 H 0.26145 0.73601 0.53394 0.0
H2115 H 0.27541 0.72411 0.51194 0.0
H2116 H 0.2903 0.73753 0.5328 0.0
H2117 H 0.23819 0.80107 0.46056 0.0
H2118 H 0.23604 0.7725 0.45664 0.0
H2119 H 0.22096 0.78515 0.47746 0.0
H2120 H 0.22553 0.70233 0.46224 0.0
H2121 H 0.19035 0.73111 0.51399 0.0
H2122 H 0.27515 0.7269 0.47276 0.0
H2123 H 0.26161 0.74312 0.45342 0.0
H2124 H 0.25965 0.71432 0.45182 0.0
H2125 H 0.23198 0.7619 0.53536 0.0
H2126 H 0.20316 0.7605 0.53339 0.0
H2127 H 0.21817 0.77877 0.51676 0.0
C2128 C 0.20869 0.27479 0.49037 0.0
C2129 C 0.2082 0.28697 0.50925 0.0
C2130 C 0.22405 0.25864 0.48742 0.0
C2131 C 0.23936 0.25468 0.5037 0.0
C2132 C 0.23939 0.2674 0.52251 0.0
C2133 C 0.22373 0.28337 0.5251 0.0
C2134 C 0.22346 0.24537 0.46717 0.0
C2135 C 0.25561 0.26376 0.54012 0.0
C2136 C 0.2632 0.19874 0.5056 0.0
C2137 C 0.28279 0.20174 0.49501 0.0
C2138 C 0.24906 0.21593 0.50881 0.0
C2139 C 0.25473 0.23662 0.50137 0.0
C2140 C 0.27467 0.23983 0.49103 0.0
C2141 C 0.28845 0.22231 0.48791 0.0
C2142 C 0.22786 0.21186 0.51981 0.0
C2143 C 0.28131 0.26169 0.48301 0.0
H2144 H 0.19671 0.2775 0.47807 0.0
H2145 H 0.22343 0.29278 0.53971 0.0
H2146 H 0.2393 0.24582 0.45908 0.0
H2147 H 0.22008 0.22838 0.47123 0.0
H2148 H 0.21105 0.25104 0.45572 0.0
H2149 H 0.2543 0.27588 0.55311 0.0
H2150 H 0.25327 0.24761 0.54718 0.0
H2151 H 0.27211 0.26428 0.53347 0.0
H2152 H 0.25876 0.18287 0.51112 0.0
H2153 H 0.30363 0.22473 0.47978 0.0
H2154 H 0.21449 0.21572 0.50873 0.0
H2155 H 0.22621 0.22248 0.53399 0.0
H2156 H 0.22613 0.19495 0.52513 0.0
H2157 H 0.26997 0.26719 0.47046 0.0
H2158 H 0.29777 0.26167 0.47618 0.0
H2159 H 0.28065 0.27352 0.49627 0.0
C2160 C 0.08399 0.3309 0.12819 0.0
C2161 C 0.06517 0.34306 0.12636 0.0
C2162 C 0.09952 0.33111 0.11184 0.0
C2163 C 0.09589 0.34346 0.09311 0.0
C2164 C 0.07695 0.35583 0.09128 0.0
C2165 C 0.06193 0.35562 0.108 0.0
C2166 C 0.11968 0.31798 0.11449 0.0
C2167 C 0.0723 0.36893 0.07144 0.0
C2168 C 0.14088 0.35855 0.05476 0.0
C2169 C 0.13834 0.34314 0.0386 0.0
C2170 C 0.12767 0.3584 0.07304 0.0
C2171 C 0.11132 0.34273 0.07492 0.0
C2172 C 0.10889 0.32701 0.05873 0.0
C2173 C 0.12255 0.3273 0.04088 0.0
C2174 C 0.13097 0.37519 0.09014 0.0
C2175 C 0.09143 0.31026 0.05994 0.0
H2176 H 0.08661 0.32127 0.14242 0.0
H2177 H 0.04737 0.365 0.10647 0.0
H2178 H 0.12025 0.30525 0.10209 0.0
H2179 H 0.13402 0.32827 0.11216 0.0
H2180 H 0.12068 0.31031 0.13054 0.0
H2181 H 0.05697 0.37792 0.07268 0.0
H2182 H 0.08546 0.38053 0.06853 0.0
H2183 H 0.07145 0.35824 0.05724 0.0
H2184 H 0.15316 0.37074 0.05311 0.0
H2185 H 0.12048 0.31539 0.02839 0.0
H2186 H 0.13269 0.36746 0.10607 0.0
H2187 H 0.11674 0.38583 0.09094 0.0
H2188 H 0.14538 0.38522 0.08706 0.0
H2189 H 0.09274 0.3011 0.07512 0.0
H2190 H 0.09208 0.29881 0.04631 0.0
H2191 H 0.0755 0.31819 0.05991 0.0
C2192 C 0.66628 0.06918 0.11054 0.0
C2193 C 0.6477 0.06449 0.12225 0.0
C2194 C 0.6656 0.08338 0.09305 0.0
C2195 C 0.64594 0.09331 0.08742 0.0
C2196 C 0.62724 0.08892 0.09948 0.0
C2197 C 0.62832 0.07445 0.11664 0.0
C2198 C 0.68582 0.0875 0.08039 0.0
C2199 C 0.60605 0.09941 0.09417 0.0
C2200 C 0.64863 0.14363 0.05314 0.0
C2201 C 0.64386 0.13549 0.03274 0.0
C2202 C 0.649 0.13015 0.07117 0.0
C2203 C 0.6448 0.10798 0.06864 0.0
C2204 C 0.63961 0.09976 0.04812 0.0
C2205 C 0.63905 0.11366 0.03044 0.0
C2206 C 0.65421 0.13956 0.09286 0.0
C2207 C 0.6352 0.07619 0.04475 0.0
H2208 H 0.68126 0.06147 0.11481 0.0
H2209 H 0.61392 0.07098 0.12575 0.0
H2210 H 0.6834 0.08268 0.06344 0.0
H2211 H 0.6896 0.10488 0.08045 0.0
H2212 H 0.69982 0.07861 0.08691 0.0
H2213 H 0.59319 0.09486 0.10562 0.0
H2214 H 0.60782 0.11711 0.09434 0.0
H2215 H 0.60094 0.09478 0.07778 0.0
H2216 H 0.65237 0.1605 0.05498 0.0
H2217 H 0.63552 0.10727 0.01466 0.0
H2218 H 0.66925 0.13239 0.09909 0.0
H2219 H 0.6413 0.13565 0.10447 0.0
H2220 H 0.65617 0.15725 0.09226 0.0
H2221 H 0.64945 0.06666 0.04953 0.0
H2222 H 0.63124 0.0724 0.02781 0.0
H2223 H 0.62167 0.07097 0.05505 0.0
C2224 C 0.92305 0.67112 0.11982 0.0
C2225 C 0.94017 0.65654 0.1201 0.0
C2226 C 0.90768 0.67061 0.10337 0.0
C2227 C 0.90967 0.65536 0.08667 0.0
C2228 C 0.9269 0.64058 0.08691 0.0
C2229 C 0.94187 0.64126 0.1037 0.0
C2230 C 0.88941 0.6865 0.10377 0.0
C2231 C 0.92973 0.62427 0.06924 0.0
C2232 C 0.86159 0.64232 0.0514 0.0
C2233 C 0.86559 0.65518 0.03342 0.0
C2234 C 0.87566 0.64238 0.06902 0.0
C2235 C 0.89426 0.65543 0.06845 0.0
C2236 C 0.89835 0.66841 0.0503 0.0
C2237 C 0.88392 0.66822 0.03307 0.0
C2238 C 0.87066 0.6285 0.0882 0.0
C2239 C 0.91812 0.68236 0.04898 0.0
H2240 H 0.9216 0.68287 0.13255 0.0
H2241 H 0.95509 0.62998 0.10384 0.0
H2242 H 0.8903 0.69708 0.08949 0.0
H2243 H 0.87385 0.67791 0.10301 0.0
H2244 H 0.88962 0.69668 0.11838 0.0
H2245 H 0.94377 0.61365 0.07201 0.0
H2246 H 0.91515 0.61417 0.06785 0.0
H2247 H 0.93189 0.63258 0.05366 0.0
H2248 H 0.84741 0.63227 0.05175 0.0
H2249 H 0.88715 0.67815 0.01918 0.0
H2250 H 0.86976 0.63853 0.10287 0.0
H2251 H 0.88372 0.61669 0.09069 0.0
H2252 H 0.85528 0.61969 0.08636 0.0
H2253 H 0.91832 0.69393 0.06249 0.0
H2254 H 0.91897 0.69148 0.03369 0.0
H2255 H 0.93273 0.67231 0.05041 0.0
C2256 C 0.36372 0.87504 0.04298 0.0
C2257 C 0.34605 0.86315 0.03583 0.0
C2258 C 0.36214 0.88828 0.06113 0.0
C2259 C 0.34255 0.88928 0.07261 0.0
C2260 C 0.32489 0.87672 0.06586 0.0
C2261 C 0.32679 0.86398 0.04741 0.0
C2262 C 0.38123 0.90168 0.06764 0.0
C2263 C 0.30389 0.87702 0.07791 0.0
C2264 C 0.34538 0.91212 0.12907 0.0
C2265 C 0.33839 0.93323 0.12578 0.0
C2266 C 0.3462 0.89741 0.11204 0.0
C2267 C 0.3403 0.90414 0.09117 0.0
C2268 C 0.33282 0.92533 0.08786 0.0
C2269 C 0.33176 0.93955 0.10526 0.0
C2270 C 0.3538 0.87482 0.11628 0.0
C2271 C 0.32666 0.93321 0.06581 0.0
H2272 H 0.37859 0.87451 0.034 0.0
H2273 H 0.31312 0.85469 0.04199 0.0
H2274 H 0.37701 0.91894 0.06677 0.0
H2275 H 0.38571 0.89818 0.08449 0.0
H2276 H 0.39541 0.89876 0.05726 0.0
H2277 H 0.2922 0.86525 0.07141 0.0
H2278 H 0.30666 0.87341 0.09511 0.0
H2279 H 0.29666 0.89324 0.07701 0.0
H2280 H 0.35048 0.90717 0.14494 0.0
H2281 H 0.3265 0.95591 0.10261 0.0
H2282 H 0.3691 0.87191 0.1077 0.0
H2283 H 0.34194 0.8631 0.11006 0.0
H2284 H 0.35635 0.87171 0.13363 0.0
H2285 H 0.34072 0.93222 0.05494 0.0
H2286 H 0.32081 0.95003 0.06601 0.0
H2287 H 0.31393 0.92286 0.05893 0.0
C2288 C 0.06513 0.63828 0.88785 0.0
C2289 C 0.06697 0.65224 0.87032 0.0
C2290 C 0.08039 0.63834 0.90436 0.0
C2291 C 0.09806 0.65254 0.9032 0.0
C2292 C 0.10037 0.66623 0.88522 0.0
C2293 C 0.08468 0.66602 0.86903 0.0
C2294 C 0.07723 0.62368 0.92338 0.0
C2295 C 0.11913 0.6814 0.88332 0.0
C2296 C 0.12282 0.6687 0.95632 0.0
C2297 C 0.14041 0.65476 0.95773 0.0
C2298 C 0.10917 0.66839 0.93847 0.0
C2299 C 0.11332 0.65393 0.92148 0.0
C2300 C 0.13137 0.64018 0.92254 0.0
C2301 C 0.14466 0.64067 0.94075 0.0
C2302 C 0.08998 0.68318 0.93805 0.0
C2303 C 0.13642 0.62471 0.90463 0.0
H2304 H 0.05146 0.62761 0.88894 0.0
H2305 H 0.08622 0.67675 0.85545 0.0
H2306 H 0.09166 0.61358 0.92581 0.0
H2307 H 0.07501 0.63338 0.93812 0.0
H2308 H 0.06308 0.61302 0.92143 0.0
H2309 H 0.11943 0.68982 0.86762 0.0
H2310 H 0.11833 0.69358 0.89626 0.0
H2311 H 0.13443 0.67254 0.88535 0.0
H2312 H 0.11944 0.67963 0.9694 0.0
H2313 H 0.1583 0.62993 0.94173 0.0
H2314 H 0.075 0.67358 0.93756 0.0
H2315 H 0.0903 0.69323 0.92338 0.0
H2316 H 0.08937 0.69389 0.95226 0.0
H2317 H 0.12335 0.61273 0.90318 0.0
H2318 H 0.15177 0.61607 0.90729 0.0
H2319 H 0.13735 0.63339 0.88913 0.0
C2320 C 0.36816 0.06783 0.8871 0.0
C2321 C 0.35222 0.07022 0.87143 0.0
C2322 C 0.36928 0.08178 0.9047 0.0
C2323 C 0.35427 0.0987 0.9065 0.0
C2324 C 0.33864 0.10169 0.89029 0.0
C2325 C 0.3377 0.08729 0.873 0.0
C2326 C 0.38601 0.07789 0.92178 0.0
C2327 C 0.32254 0.11973 0.89152 0.0
C2328 C 0.3408 0.11871 0.9623 0.0
C2329 C 0.35341 0.13725 0.9638 0.0
C2330 C 0.34104 0.10602 0.94376 0.0
C2331 C 0.35392 0.11222 0.92614 0.0
C2332 C 0.36659 0.13103 0.92748 0.0
C2333 C 0.36634 0.14325 0.94642 0.0
C2334 C 0.32759 0.08588 0.94312 0.0
C2335 C 0.38027 0.13829 0.90889 0.0
H2336 H 0.37943 0.05464 0.88597 0.0
H2337 H 0.32543 0.08927 0.86084 0.0
H2338 H 0.39543 0.09269 0.92469 0.0
H2339 H 0.37801 0.07362 0.9371 0.0
H2340 H 0.39723 0.06476 0.91741 0.0
H2341 H 0.31267 0.12098 0.87674 0.0
H2342 H 0.31167 0.11711 0.90536 0.0
H2343 H 0.33086 0.13523 0.89418 0.0
H2344 H 0.33087 0.11397 0.97575 0.0
H2345 H 0.37601 0.15766 0.94751 0.0
H2346 H 0.33797 0.07176 0.94005 0.0
H2347 H 0.31586 0.08682 0.92978 0.0
H2348 H 0.31868 0.08317 0.95831 0.0
H2349 H 0.39228 0.12578 0.90494 0.0
H2350 H 0.38884 0.15352 0.91233 0.0
H2351 H 0.37013 0.14059 0.89445 0.0
C2352 C 0.85867 0.35892 0.9467 0.0
C2353 C 0.86389 0.34632 0.96457 0.0
C2354 C 0.87221 0.35957 0.92871 0.0
C2355 C 0.89145 0.34749 0.92874 0.0
C2356 C 0.89676 0.33478 0.94677 0.0
C2357 C 0.88288 0.33428 0.96441 0.0
C2358 C 0.86597 0.37318 0.90968 0.0
C2359 C 0.91721 0.3218 0.94748 0.0
C2360 C 0.91941 0.33268 0.87675 0.0
C2361 C 0.93608 0.34774 0.87611 0.0
C2362 C 0.90438 0.33278 0.8935 0.0
C2363 C 0.90622 0.3482 0.91006 0.0
C2364 C 0.92286 0.36362 0.90934 0.0
C2365 C 0.93756 0.36325 0.89231 0.0
C2366 C 0.88676 0.31617 0.89368 0.0
C2367 C 0.92544 0.3802 0.9268 0.0
H2368 H 0.84398 0.36821 0.94675 0.0
H2369 H 0.88702 0.32456 0.97822 0.0
H2370 H 0.87843 0.38553 0.90672 0.0
H2371 H 0.86499 0.36309 0.89507 0.0
H2372 H 0.85031 0.38134 0.91204 0.0
H2373 H 0.919 0.31279 0.96275 0.0
H2374 H 0.91753 0.31021 0.93399 0.0
H2375 H 0.93127 0.33254 0.94557 0.0
H2376 H 0.91813 0.32074 0.86419 0.0
H2377 H 0.95041 0.37494 0.89187 0.0
H2378 H 0.87088 0.3241 0.89504 0.0
H2379 H 0.88861 0.30559 0.90786 0.0
H2380 H 0.88685 0.30606 0.87901 0.0
H2381 H 0.91039 0.38947 0.92871 0.0
H2382 H 0.93875 0.39156 0.92343 0.0
H2383 H 0.92868 0.37212 0.94232 0.0
C2384 C 0.63554 0.85994 0.9495 0.0
C2385 C 0.64942 0.86469 0.96652 0.0
C2386 C 0.63519 0.87278 0.93097 0.0
C2387 C 0.64883 0.89091 0.92966 0.0
C2388 C 0.66272 0.89583 0.94691 0.0
C2389 C 0.66295 0.88258 0.96504 0.0
C2390 C 0.62035 0.86692 0.91277 0.0
C2391 C 0.67728 0.91519 0.94628 0.0
C2392 C 0.66398 0.91615 0.87634 0.0
C2393 C 0.65031 0.93397 0.87573 0.0
C2394 C 0.66315 0.90153 0.89346 0.0
C2395 C 0.64849 0.90502 0.91045 0.0
C2396 C 0.63443 0.92282 0.90972 0.0
C2397 C 0.63543 0.93702 0.89231 0.0
C2398 C 0.67826 0.88262 0.89359 0.0
C2399 C 0.61875 0.92723 0.92764 0.0
H2400 H 0.62512 0.84606 0.95057 0.0
H2401 H 0.67365 0.88638 0.97821 0.0
H2402 H 0.60894 0.88023 0.90973 0.0
H2403 H 0.62973 0.86452 0.89785 0.0
H2404 H 0.61105 0.8521 0.91613 0.0
H2405 H 0.68698 0.91688 0.96114 0.0
H2406 H 0.68835 0.91403 0.93241 0.0
H2407 H 0.66761 0.92997 0.94412 0.0
H2408 H 0.67541 0.91366 0.86349 0.0
H2409 H 0.62482 0.95078 0.8919 0.0
H2410 H 0.66915 0.86752 0.89597 0.0
H2411 H 0.68965 0.88412 0.90717 0.0
H2412 H 0.68761 0.88134 0.87848 0.0
H2413 H 0.60847 0.913 0.93047 0.0
H2414 H 0.60827 0.94122 0.92419 0.0
H2415 H 0.62764 0.93041 0.94273 0.0
C2416 C 0.10761 0.06258 0.35955 0.0
C2417 C 0.12533 0.06636 0.34624 0.0
C2418 C 0.09028 0.07689 0.36013 0.0
C2419 C 0.09084 0.09564 0.34737 0.0
C2420 C 0.10902 0.09993 0.33443 0.0
C2421 C 0.126 0.08511 0.33387 0.0
C2422 C 0.07106 0.07155 0.37388 0.0
C2423 C 0.11034 0.11994 0.32087 0.0
C2424 C 0.03712 0.11917 0.33125 0.0
C2425 C 0.03434 0.13539 0.34655 0.0
C2426 C 0.05555 0.10631 0.3312 0.0
C2427 C 0.0718 0.11 0.34662 0.0
C2428 C 0.06934 0.12672 0.3618 0.0
C2429 C 0.05051 0.13911 0.36172 0.0
C2430 C 0.05739 0.08841 0.31498 0.0
C2431 C 0.08649 0.13135 0.37824 0.0
H2432 H 0.10699 0.04807 0.36911 0.0
H2433 H 0.13974 0.08815 0.32366 0.0
H2434 H 0.06759 0.08494 0.38505 0.0
H2435 H 0.05671 0.06943 0.36356 0.0
H2436 H 0.07345 0.05668 0.38339 0.0
H2437 H 0.12624 0.12174 0.31305 0.0
H2438 H 0.09783 0.11946 0.30823 0.0
H2439 H 0.1072 0.13432 0.33086 0.0
H2440 H 0.02462 0.11619 0.31953 0.0
H2441 H 0.04846 0.15173 0.37348 0.0
H2442 H 0.05853 0.07277 0.32338 0.0
H2443 H 0.07223 0.09036 0.30538 0.0
H2444 H 0.04346 0.08788 0.30387 0.0
H2445 H 0.08834 0.11739 0.38912 0.0
H2446 H 0.08272 0.14573 0.38805 0.0
H2447 H 0.10216 0.13386 0.37018 0.0
C2448 C 0.91663 0.11803 0.33484 0.0
C2449 C 0.93382 0.11916 0.34928 0.0
C2450 C 0.9021 0.10085 0.33547 0.0
C2451 C 0.90495 0.08434 0.3508 0.0
C2452 C 0.92212 0.08555 0.3656 0.0
C2453 C 0.93632 0.103 0.36471 0.0
C2454 C 0.88392 0.10017 0.31948 0.0
C2455 C 0.92578 0.06817 0.38207 0.0
C2456 C 0.85823 0.04672 0.36209 0.0
C2457 C 0.8633 0.02923 0.34892 0.0
C2458 C 0.8717 0.06478 0.36299 0.0
C2459 C 0.89069 0.06522 0.35053 0.0
C2460 C 0.896 0.04746 0.33746 0.0
C2461 C 0.88222 0.02973 0.33677 0.0
C2462 C 0.86549 0.08348 0.37705 0.0
C2463 C 0.91617 0.04725 0.32403 0.0
H2464 H 0.91455 0.13055 0.32297 0.0
H2465 H 0.94957 0.10381 0.37593 0.0
H2466 H 0.8858 0.08603 0.30885 0.0
H2467 H 0.86838 0.09839 0.32795 0.0
H2468 H 0.88326 0.11482 0.30936 0.0
H2469 H 0.93932 0.07196 0.39301 0.0
H2470 H 0.91108 0.06576 0.39179 0.0
H2471 H 0.92927 0.05278 0.37387 0.0
H2472 H 0.8436 0.04641 0.37147 0.0
H2473 H 0.88626 0.01622 0.3266 0.0
H2474 H 0.86339 0.09807 0.36708 0.0
H2475 H 0.87848 0.0869 0.38872 0.0
H2476 H 0.85039 0.08048 0.38602 0.0
H2477 H 0.91576 0.06062 0.3123 0.0
H2478 H 0.91822 0.03196 0.31512 0.0
H2479 H 0.93042 0.04973 0.33439 0.0
C2480 C 0.8673 0.91068 0.35794 0.0
C2481 C 0.86766 0.92694 0.34243 0.0
C2482 C 0.88418 0.89586 0.35956 0.0
C2483 C 0.90215 0.89784 0.34582 0.0
C2484 C 0.90247 0.91415 0.32999 0.0
C2485 C 0.88504 0.9283 0.32827 0.0
C2486 C 0.88293 0.87828 0.37615 0.0
C2487 C 0.92155 0.91715 0.31538 0.0
C2488 C 0.95583 0.87564 0.36435 0.0
C2489 C 0.95816 0.85774 0.35101 0.0
C2490 C 0.93756 0.88875 0.36297 0.0
C2491 C 0.92097 0.88337 0.34839 0.0
C2492 C 0.92286 0.8647 0.33561 0.0
C2493 C 0.94162 0.85231 0.33681 0.0
C2494 C 0.93642 0.90881 0.37647 0.0
C2495 C 0.90524 0.85804 0.32039 0.0
H2496 H 0.8538 0.90958 0.36884 0.0
H2497 H 0.88542 0.94101 0.31642 0.0
H2498 H 0.8858 0.86246 0.36853 0.0
H2499 H 0.89562 0.88062 0.38839 0.0
H2500 H 0.86713 0.87789 0.38438 0.0
H2501 H 0.91928 0.93062 0.30395 0.0
H2502 H 0.93612 0.92034 0.3251 0.0
H2503 H 0.92456 0.90228 0.3061 0.0
H2504 H 0.96873 0.87995 0.37519 0.0
H2505 H 0.9434 0.83838 0.32656 0.0
H2506 H 0.92169 0.90869 0.38643 0.0
H2507 H 0.93553 0.9231 0.36589 0.0
H2508 H 0.95053 0.91056 0.38721 0.0
H2509 H 0.88963 0.85751 0.32893 0.0
H2510 H 0.90833 0.84208 0.31311 0.0
H2511 H 0.90372 0.87001 0.30733 0.0
C2512 C 0.13683 0.94776 0.35541 0.0
C2513 C 0.13496 0.96389 0.33987 0.0
C2514 C 0.1228 0.93012 0.35548 0.0
C2515 C 0.10655 0.92864 0.33967 0.0
C2516 C 0.10491 0.94466 0.32369 0.0
C2517 C 0.11914 0.96208 0.32398 0.0
C2518 C 0.12507 0.9133 0.37275 0.0
C2519 C 0.0878 0.94368 0.30657 0.0
C2520 C 0.0791 0.87506 0.32979 0.0
C2521 C 0.06016 0.87741 0.34167 0.0
C2522 C 0.09442 0.89157 0.32904 0.0
C2523 C 0.09063 0.91088 0.34037 0.0
C2524 C 0.07143 0.91338 0.35222 0.0
C2525 C 0.05645 0.89661 0.35275 0.0
C2526 C 0.11471 0.88832 0.31624 0.0
C2527 C 0.06672 0.93378 0.36441 0.0
H2528 H 0.14904 0.94907 0.3677 0.0
H2529 H 0.11763 0.97448 0.31189 0.0
H2530 H 0.11043 0.91306 0.38286 0.0
H2531 H 0.12668 0.89717 0.36542 0.0
H2532 H 0.13917 0.91624 0.38324 0.0
H2533 H 0.08927 0.95694 0.29476 0.0
H2534 H 0.08872 0.9282 0.29787 0.0
H2535 H 0.07171 0.94456 0.3141 0.0
H2536 H 0.08208 0.86022 0.32125 0.0
H2537 H 0.04184 0.89852 0.36197 0.0
H2538 H 0.1289 0.88991 0.32686 0.0
H2539 H 0.11607 0.90089 0.30372 0.0
H2540 H 0.11526 0.87235 0.30836 0.0
H2541 H 0.0795 0.93674 0.37643 0.0
H2542 H 0.05103 0.93319 0.37281 0.0
H2543 H 0.06666 0.94763 0.35325 0.0
C2544 C 0.0584 0.85343 0.65938 0.0
C2545 C 0.04083 0.85847 0.64634 0.0
C2546 C 0.07672 0.86652 0.65964 0.0
C2547 C 0.07706 0.88548 0.64717 0.0
C2548 C 0.05944 0.89043 0.63369 0.0
C2549 C 0.04166 0.87663 0.63317 0.0
C2550 C 0.09548 0.86031 0.67364 0.0
C2551 C 0.05892 0.91079 0.62059 0.0
C2552 C 0.11189 0.93141 0.6668 0.0
C2553 C 0.12867 0.93113 0.65188 0.0
C2554 C 0.09498 0.91663 0.66542 0.0
C2555 C 0.09525 0.9008 0.64913 0.0
C2556 C 0.11258 0.89999 0.63449 0.0
C2557 C 0.12893 0.91542 0.63583 0.0
C2558 C 0.07653 0.91834 0.68102 0.0
C2559 C 0.11376 0.88296 0.61733 0.0
H2560 H 0.05776 0.8393 0.66949 0.0
H2561 H 0.02794 0.88062 0.62325 0.0
H2562 H 0.1106 0.86085 0.66427 0.0
H2563 H 0.09711 0.87193 0.687 0.0
H2564 H 0.0936 0.844 0.68055 0.0
H2565 H 0.04426 0.91201 0.61055 0.0
H2566 H 0.05955 0.92488 0.63145 0.0
H2567 H 0.07317 0.91167 0.60999 0.0
H2568 H 0.11159 0.94369 0.6791 0.0
H2569 H 0.14199 0.91514 0.62435 0.0
H2570 H 0.07483 0.90319 0.69017 0.0
H2571 H 0.06133 0.92088 0.67212 0.0
H2572 H 0.07866 0.93173 0.69258 0.0
H2573 H 0.11223 0.86681 0.62465 0.0
H2574 H 0.12902 0.88366 0.60817 0.0
H2575 H 0.10023 0.88489 0.60595 0.0
C2576 C 0.11508 0.03536 0.65584 0.0
C2577 C 0.13537 0.03523 0.64615 0.0
C2578 C 0.10216 0.05373 0.65549 0.0
C2579 C 0.10976 0.07255 0.64535 0.0
C2580 C 0.13018 0.07252 0.63538 0.0
C2581 C 0.14274 0.05378 0.63582 0.0
C2582 C 0.0804 0.05303 0.66613 0.0
C2583 C 0.13885 0.09233 0.62451 0.0
C2584 C 0.06711 0.11314 0.6299 0.0
C2585 C 0.06759 0.12721 0.64744 0.0
C2586 C 0.08119 0.09564 0.62868 0.0
C2587 C 0.09623 0.09221 0.64534 0.0
C2588 C 0.09726 0.10677 0.66274 0.0
C2589 C 0.08285 0.12406 0.66363 0.0
C2590 C 0.07946 0.08038 0.60996 0.0
C2591 C 0.11319 0.10373 0.68073 0.0
H2592 H 0.10927 0.02104 0.66381 0.0
H2593 H 0.15845 0.05377 0.62838 0.0
H2594 H 0.07967 0.06505 0.67923 0.0
H2595 H 0.06773 0.05726 0.65437 0.0
H2596 H 0.07669 0.037 0.67294 0.0
H2597 H 0.15492 0.08961 0.61732 0.0
H2598 H 0.12769 0.09762 0.6117 0.0
H2599 H 0.14004 0.10562 0.63627 0.0
H2600 H 0.05535 0.11551 0.61731 0.0
H2601 H 0.08336 0.13494 0.67717 0.0
H2602 H 0.07425 0.06438 0.61575 0.0
H2603 H 0.09534 0.07829 0.60222 0.0
H2604 H 0.06783 0.08602 0.5977 0.0
H2605 H 0.10942 0.08878 0.6896 0.0
H2606 H 0.11305 0.11733 0.69223 0.0
H2607 H 0.12963 0.10198 0.67416 0.0
C2608 C 0.96458 0.11997 0.6657 0.0
C2609 C 0.96547 0.13816 0.65252 0.0
C2610 C 0.94649 0.10663 0.66585 0.0
C2611 C 0.92873 0.11175 0.65267 0.0
C2612 C 0.92935 0.13031 0.6396 0.0
C2613 C 0.94781 0.14325 0.63957 0.0
C2614 C 0.94655 0.08685 0.67983 0.0
C2615 C 0.91061 0.13638 0.62552 0.0
C2616 C 0.89226 0.06543 0.63772 0.0
C2617 C 0.87582 0.06737 0.65294 0.0
C2618 C 0.90936 0.08002 0.63721 0.0
C2619 C 0.90988 0.09714 0.65209 0.0
C2620 C 0.893 0.09956 0.66709 0.0
C2621 C 0.87622 0.08453 0.66744 0.0
C2622 C 0.92718 0.07673 0.62114 0.0
C2623 C 0.89288 0.11778 0.68302 0.0
H2624 H 0.97821 0.11593 0.67572 0.0
H2625 H 0.9484 0.15736 0.62944 0.0
H2626 H 0.93273 0.08724 0.69102 0.0
H2627 H 0.94475 0.07232 0.66972 0.0
H2628 H 0.96153 0.08532 0.68935 0.0
H2629 H 0.91325 0.15183 0.61706 0.0
H2630 H 0.90781 0.12367 0.6134 0.0
H2631 H 0.89581 0.13767 0.63531 0.0
H2632 H 0.89204 0.05216 0.62649 0.0
H2633 H 0.86347 0.08615 0.67915 0.0
H2634 H 0.94249 0.07368 0.6297 0.0
H2635 H 0.92943 0.09142 0.61137 0.0
H2636 H 0.92399 0.06305 0.61019 0.0
H2637 H 0.90667 0.11613 0.69414 0.0
H2638 H 0.87788 0.11825 0.69262 0.0
H2639 H 0.89475 0.13332 0.67457 0.0
C2640 C 0.9205 0.87521 0.66923 0.0
C2641 C 0.93883 0.87665 0.6563 0.0
C2642 C 0.9054 0.89193 0.66976 0.0
C2643 C 0.9089 0.91056 0.65725 0.0
C2644 C 0.92747 0.91211 0.64429 0.0
C2645 C 0.94214 0.89509 0.64389 0.0
C2646 C 0.88569 0.88965 0.68363 0.0
C2647 C 0.93191 0.93182 0.63092 0.0
C2648 C 0.86301 0.94797 0.64274 0.0
C2649 C 0.86595 0.96463 0.65753 0.0
C2650 C 0.87653 0.92995 0.64282 0.0
C2651 C 0.89343 0.92869 0.65795 0.0
C2652 C 0.89621 0.9453 0.67315 0.0
C2653 C 0.8824 0.96304 0.67279 0.0
C2654 C 0.873 0.91245 0.62647 0.0
C2655 C 0.91411 0.94461 0.68946 0.0
H2656 H 0.91784 0.86093 0.67877 0.0
H2657 H 0.95633 0.89629 0.6339 0.0
H2658 H 0.88529 0.90265 0.69576 0.0
H2659 H 0.87104 0.89128 0.67367 0.0
H2660 H 0.88514 0.87397 0.69207 0.0
H2661 H 0.94711 0.9305 0.62173 0.0
H2662 H 0.91857 0.93453 0.61947 0.0
H2663 H 0.93286 0.94616 0.64142 0.0
H2664 H 0.85027 0.9491 0.63097 0.0
H2665 H 0.88473 0.97586 0.68428 0.0
H2666 H 0.87145 0.8967 0.63459 0.0
H2667 H 0.88707 0.91144 0.61563 0.0
H2668 H 0.85842 0.91527 0.61661 0.0
H2669 H 0.91322 0.92957 0.69891 0.0
H2670 H 0.91358 0.95843 0.70068 0.0
H2671 H 0.92983 0.94469 0.68112 0.0
C2672 C 0.3647 0.03228 0.11371 0.0
C2673 C 0.36053 0.0349 0.13564 0.0
C2674 C 0.36463 0.04991 0.09973 0.0
C2675 C 0.36061 0.07068 0.10795 0.0
C2676 C 0.35736 0.07353 0.13024 0.0
C2677 C 0.35719 0.05556 0.14381 0.0
C2678 C 0.36796 0.04617 0.07603 0.0
C2679 C 0.3534 0.09548 0.13965 0.0
C2680 C 0.37512 0.11791 0.07229 0.0
C2681 C 0.35508 0.12349 0.06374 0.0
C2682 C 0.37712 0.10104 0.08705 0.0
C2683 C 0.3587 0.08921 0.09305 0.0
C2684 C 0.33842 0.09478 0.08443 0.0
C2685 C 0.33683 0.112 0.07003 0.0
C2686 C 0.39894 0.09583 0.0962 0.0
C2687 C 0.31846 0.08233 0.09017 0.0
H2688 H 0.3672 0.01632 0.10729 0.0
H2689 H 0.35401 0.05766 0.16077 0.0
H2690 H 0.35323 0.0507 0.06714 0.0
H2691 H 0.38116 0.05643 0.06997 0.0
H2692 H 0.37181 0.02917 0.07234 0.0
H2693 H 0.35295 0.0952 0.15746 0.0
H2694 H 0.3661 0.1068 0.13443 0.0
H2695 H 0.33788 0.10183 0.13371 0.0
H2696 H 0.38925 0.12688 0.06757 0.0
H2697 H 0.32133 0.11623 0.06339 0.0
H2698 H 0.40365 0.07931 0.0916 0.0
H2699 H 0.39836 0.09638 0.11397 0.0
H2700 H 0.41151 0.10711 0.09054 0.0
H2701 H 0.3205 0.06524 0.08565 0.0
H2702 H 0.30394 0.08867 0.08201 0.0
H2703 H 0.31578 0.08287 0.10774 0.0
C2704 C 0.35984 0.95135 0.85793 0.0
C2705 C 0.34624 0.96876 0.86205 0.0
C2706 C 0.36009 0.93342 0.87158 0.0
C2707 C 0.34659 0.93305 0.88984 0.0
C2708 C 0.33277 0.95056 0.89398 0.0
C2709 C 0.33269 0.96815 0.87999 0.0
C2710 C 0.37491 0.91494 0.86656 0.0
C2711 C 0.31826 0.95086 0.91338 0.0
C2712 C 0.33307 0.8803 0.91721 0.0
C2713 C 0.34726 0.88045 0.93464 0.0
C2714 C 0.33292 0.89715 0.90226 0.0
C2715 C 0.34719 0.91461 0.90495 0.0
C2716 C 0.36159 0.9148 0.9225 0.0
C2717 C 0.3615 0.89768 0.93709 0.0
C2718 C 0.31742 0.89633 0.88368 0.0
C2719 C 0.37691 0.93322 0.92602 0.0
H2720 H 0.37029 0.95174 0.84405 0.0
H2721 H 0.32218 0.9816 0.88329 0.0
H2722 H 0.38661 0.91282 0.87979 0.0
H2723 H 0.36559 0.89984 0.86529 0.0
H2724 H 0.38389 0.91741 0.85137 0.0
H2725 H 0.3083 0.96561 0.91417 0.0
H2726 H 0.30745 0.93673 0.91314 0.0
H2727 H 0.32801 0.9498 0.92822 0.0
H2728 H 0.3221 0.86697 0.91519 0.0
H2729 H 0.37251 0.89787 0.95054 0.0
H2730 H 0.32628 0.89769 0.86831 0.0
H2731 H 0.30621 0.91012 0.88454 0.0
H2732 H 0.30789 0.88128 0.88347 0.0
H2733 H 0.38728 0.93535 0.91172 0.0
H2734 H 0.38731 0.93077 0.94027 0.0
H2735 H 0.36777 0.94833 0.9282 0.0
C2736 C 0.03823 0.33056 0.88075 0.0
C2737 C 0.03613 0.34642 0.86495 0.0
C2738 C 0.05573 0.33049 0.89487 0.0
C2739 C 0.0717 0.34649 0.89294 0.0
C2740 C 0.06987 0.36236 0.87678 0.0
C2741 C 0.05198 0.36224 0.86306 0.0
C2742 C 0.05693 0.31348 0.91207 0.0
C2743 C 0.08676 0.37948 0.87405 0.0
C2744 C 0.10572 0.35799 0.94213 0.0
C2745 C 0.12407 0.34568 0.93802 0.0
C2746 C 0.08863 0.35854 0.92749 0.0
C2747 C 0.09009 0.34676 0.90814 0.0
C2748 C 0.10876 0.33461 0.90374 0.0
C2749 C 0.12547 0.33407 0.91883 0.0
C2750 C 0.06885 0.37143 0.93292 0.0
C2751 C 0.11101 0.32206 0.88316 0.0
H2752 H 0.02596 0.31835 0.88235 0.0
H2753 H 0.05044 0.37448 0.85082 0.0
H2754 H 0.072 0.30417 0.91039 0.0
H2755 H 0.05722 0.32113 0.92813 0.0
H2756 H 0.04317 0.30218 0.91141 0.0
H2757 H 0.08335 0.3902 0.86023 0.0
H2758 H 0.08777 0.38938 0.88879 0.0
H2759 H 0.10271 0.37197 0.87165 0.0
H2760 H 0.10456 0.36696 0.95697 0.0
H2761 H 0.1397 0.32465 0.91553 0.0
H2762 H 0.05468 0.36069 0.93368 0.0
H2763 H 0.06569 0.38343 0.92018 0.0
H2764 H 0.07038 0.37993 0.9485 0.0
H2765 H 0.09846 0.30948 0.88235 0.0
H2766 H 0.12696 0.31427 0.8817 0.0
H2767 H 0.10861 0.33281 0.86918 0.0
C2768 C 0.66056 0.12956 0.90871 0.0
C2769 C 0.66472 0.12547 0.93041 0.0
C2770 C 0.65992 0.11277 0.8937 0.0
C2771 C 0.66296 0.0914 0.90073 0.0
C2772 C 0.6675 0.08725 0.92259 0.0
C2773 C 0.66858 0.10438 0.93711 0.0
C2774 C 0.65562 0.11786 0.87043 0.0
C2775 C 0.67047 0.06465 0.93079 0.0
C2776 C 0.63896 0.04555 0.86855 0.0
C2777 C 0.6573 0.0365 0.85929 0.0
C2778 C 0.64052 0.06366 0.88185 0.0
C2779 C 0.66083 0.07322 0.88543 0.0
C2780 C 0.67925 0.06466 0.87532 0.0
C2781 C 0.6773 0.0462 0.86261 0.0
C2782 C 0.62057 0.07206 0.8927 0.0
C2783 C 0.70108 0.07471 0.87828 0.0
H2784 H 0.65761 0.14588 0.90349 0.0
H2785 H 0.67161 0.10113 0.95392 0.0
H2786 H 0.66817 0.11054 0.86015 0.0
H2787 H 0.64002 0.11088 0.86552 0.0
H2788 H 0.6552 0.1354 0.86733 0.0
H2789 H 0.67399 0.06418 0.94824 0.0
H2790 H 0.65572 0.05516 0.92772 0.0
H2791 H 0.68378 0.05668 0.92211 0.0
H2792 H 0.6235 0.03798 0.86608 0.0
H2793 H 0.69149 0.03931 0.85528 0.0
H2794 H 0.61829 0.08928 0.88891 0.0
H2795 H 0.62237 0.07073 0.91036 0.0
H2796 H 0.60594 0.06316 0.8878 0.0
H2797 H 0.70035 0.09214 0.87474 0.0
H2798 H 0.71342 0.06726 0.86781 0.0
H2799 H 0.70626 0.07297 0.89521 0.0
C2800 C 0.96099 0.66558 0.88053 0.0
C2801 C 0.96148 0.65403 0.86126 0.0
C2802 C 0.94275 0.66542 0.89366 0.0
C2803 C 0.92445 0.65363 0.88723 0.0
C2804 C 0.92468 0.64226 0.86758 0.0
C2805 C 0.94328 0.64249 0.85486 0.0
C2806 C 0.94323 0.67755 0.91462 0.0
C2807 C 0.90538 0.62972 0.86011 0.0
C2808 C 0.88701 0.63649 0.93196 0.0
C2809 C 0.8714 0.65266 0.93136 0.0
C2810 C 0.90409 0.63634 0.91734 0.0
C2811 C 0.90544 0.65261 0.90158 0.0
C2812 C 0.88933 0.66857 0.90043 0.0
C2813 C 0.87254 0.66849 0.91545 0.0
C2814 C 0.92107 0.61916 0.91923 0.0
C2815 C 0.89011 0.68603 0.88368 0.0
H2816 H 0.97504 0.6745 0.88556 0.0
H2817 H 0.94357 0.63363 0.83991 0.0
H2818 H 0.92993 0.68936 0.91514 0.0
H2819 H 0.94082 0.66627 0.92817 0.0
H2820 H 0.95861 0.6862 0.9171 0.0
H2821 H 0.90778 0.6226 0.84396 0.0
H2822 H 0.90188 0.61661 0.87161 0.0
H2823 H 0.89105 0.64026 0.85963 0.0
H2824 H 0.88622 0.62422 0.94425 0.0
H2825 H 0.86044 0.68095 0.91487 0.0
H2826 H 0.93672 0.62663 0.92324 0.0
H2827 H 0.92306 0.61075 0.90369 0.0
H2828 H 0.91716 0.60713 0.93177 0.0
H2829 H 0.90431 0.69639 0.88648 0.0
H2830 H 0.87552 0.69625 0.88389 0.0
H2831 H 0.89188 0.67892 0.86747 0.0
C2832 C 0.65397 0.94596 0.14435 0.0
C2833 C 0.64132 0.96383 0.13939 0.0
C2834 C 0.65421 0.92793 0.13091 0.0
C2835 C 0.64216 0.92821 0.11167 0.0
C2836 C 0.6291 0.94615 0.10677 0.0
C2837 C 0.62855 0.96363 0.12093 0.0
C2838 C 0.66773 0.90881 0.13706 0.0
C2839 C 0.61653 0.94732 0.0861 0.0
C2840 C 0.66292 0.89305 0.06654 0.0
C2841 C 0.64789 0.87641 0.06648 0.0
C2842 C 0.66101 0.91023 0.08093 0.0
C2843 C 0.64411 0.91025 0.09613 0.0
C2844 C 0.62918 0.89315 0.09644 0.0
C2845 C 0.63101 0.87661 0.0813 0.0
C2846 C 0.67686 0.92849 0.07966 0.0
C2847 C 0.61144 0.89222 0.11289 0.0
H2848 H 0.66377 0.94614 0.15871 0.0
H2849 H 0.61896 0.9776 0.11701 0.0
H2850 H 0.65809 0.89388 0.13604 0.0
H2851 H 0.68131 0.90714 0.12571 0.0
H2852 H 0.67431 0.91025 0.15355 0.0
H2853 H 0.60675 0.96217 0.08496 0.0
H2854 H 0.62774 0.94683 0.07228 0.0
H2855 H 0.60573 0.93328 0.08463 0.0
H2856 H 0.67586 0.89292 0.05492 0.0
H2857 H 0.61949 0.86359 0.08131 0.0
H2858 H 0.68597 0.92971 0.09489 0.0
H2859 H 0.66821 0.94388 0.07742 0.0
H2860 H 0.68845 0.92647 0.06629 0.0
H2861 H 0.61835 0.89296 0.12928 0.0
H2862 H 0.60168 0.87739 0.11148 0.0
H2863 H 0.60069 0.90627 0.11107 0.0
C2864 C 0.05637 0.64108 0.13557 0.0
C2865 C 0.0403 0.65648 0.13241 0.0
C2866 C 0.07462 0.64054 0.12236 0.0
C2867 C 0.07658 0.65549 0.10538 0.0
C2868 C 0.06042 0.67111 0.1022 0.0
C2869 C 0.04257 0.67153 0.11588 0.0
C2870 C 0.0917 0.62388 0.12646 0.0
C2871 C 0.06174 0.68711 0.08406 0.0
C2872 C 0.1304 0.66674 0.07897 0.0
C2873 C 0.12917 0.65387 0.06059 0.0
C2874 C 0.11365 0.66698 0.09405 0.0
C2875 C 0.09511 0.65437 0.09038 0.0
C2876 C 0.09388 0.64127 0.07189 0.0
C2877 C 0.11101 0.64103 0.05733 0.0
C2878 C 0.11569 0.68086 0.11377 0.0
C2879 C 0.07423 0.62789 0.06721 0.0
H2880 H 0.05471 0.62949 0.14842 0.0
H2881 H 0.03014 0.68342 0.11333 0.0
H2882 H 0.09291 0.61293 0.11249 0.0
H2883 H 0.10755 0.63174 0.12839 0.0
H2884 H 0.08831 0.61416 0.141 0.0
H2885 H 0.04792 0.69835 0.08391 0.0
H2886 H 0.07674 0.69657 0.08533 0.0
H2887 H 0.06222 0.67852 0.06848 0.0
H2888 H 0.14448 0.6766 0.08159 0.0
H2889 H 0.10996 0.63113 0.04308 0.0
H2890 H 0.11311 0.67108 0.12841 0.0
H2891 H 0.10316 0.69348 0.11358 0.0
H2892 H 0.13165 0.68872 0.11487 0.0
H2893 H 0.07104 0.61676 0.08071 0.0
H2894 H 0.07593 0.61835 0.05226 0.0
H2895 H 0.06 0.63845 0.0656 0.0
C2896 C 0.95961 0.33135 0.11861 0.0
C2897 C 0.96078 0.34328 0.13761 0.0
C2898 C 0.94129 0.33207 0.10561 0.0
C2899 C 0.92361 0.34482 0.11192 0.0
C2900 C 0.92451 0.35658 0.13132 0.0
C2901 C 0.94319 0.35579 0.14389 0.0
C2902 C 0.94105 0.3195 0.0849 0.0
C2903 C 0.90585 0.37013 0.13866 0.0
C2904 C 0.88671 0.36245 0.06696 0.0
C2905 C 0.8705 0.34691 0.06795 0.0
C2906 C 0.90379 0.36231 0.08157 0.0
C2907 C 0.90455 0.34637 0.0977 0.0
C2908 C 0.8878 0.33112 0.0993 0.0
C2909 C 0.87101 0.33149 0.08429 0.0
C2910 C 0.92146 0.37872 0.07922 0.0
C2911 C 0.88794 0.31404 0.11646 0.0
H2912 H 0.9732 0.32169 0.11367 0.0
H2913 H 0.94402 0.36495 0.15864 0.0
H2914 H 0.92725 0.30828 0.08473 0.0
H2915 H 0.93901 0.3306 0.07114 0.0
H2916 H 0.95601 0.31014 0.08247 0.0
H2917 H 0.90871 0.37747 0.15464 0.0
H2918 H 0.90284 0.38314 0.1269 0.0
H2919 H 0.89108 0.36025 0.13947 0.0
H2920 H 0.88639 0.37441 0.05435 0.0
H2921 H 0.85844 0.31951 0.08517 0.0
H2922 H 0.93674 0.37054 0.07519 0.0
H2923 H 0.92396 0.38732 0.09458 0.0
H2924 H 0.91792 0.39069 0.0665 0.0
H2925 H 0.90159 0.30296 0.11377 0.0
H2926 H 0.87287 0.30454 0.11663 0.0
H2927 H 0.89022 0.32144 0.13248 0.0
C2928 C 0.64206 0.85864 0.55825 0.0
C2929 C 0.63498 0.84818 0.53965 0.0
C2930 C 0.62948 0.8587 0.57697 0.0
C2931 C 0.60925 0.84834 0.57691 0.0
C2932 C 0.60205 0.83783 0.55813 0.0
C2933 C 0.61506 0.83775 0.5398 0.0
C2934 C 0.63779 0.86983 0.59678 0.0
C2935 C 0.58046 0.82687 0.55728 0.0
C2936 C 0.58073 0.8315 0.62808 0.0
C2937 C 0.56548 0.84786 0.63034 0.0
C2938 C 0.59571 0.83189 0.61125 0.0
C2939 C 0.59521 0.8489 0.5962 0.0
C2940 C 0.58018 0.86572 0.59874 0.0
C2941 C 0.56559 0.86505 0.61584 0.0
C2942 C 0.61168 0.81381 0.60922 0.0
C2943 C 0.57895 0.88401 0.58291 0.0
H2944 H 0.6575 0.86662 0.55822 0.0
H2945 H 0.60947 0.8297 0.52544 0.0
H2946 H 0.62683 0.88309 0.60131 0.0
H2947 H 0.63818 0.85843 0.61044 0.0
H2948 H 0.65414 0.8765 0.59443 0.0
H2949 H 0.57724 0.81941 0.54143 0.0
H2950 H 0.57955 0.81423 0.56977 0.0
H2951 H 0.56756 0.83864 0.56072 0.0
H2952 H 0.58079 0.81824 0.63932 0.0
H2953 H 0.55384 0.87776 0.6175 0.0
H2954 H 0.62816 0.8203 0.60759 0.0
H2955 H 0.60822 0.8044 0.59453 0.0
H2956 H 0.61121 0.80281 0.62323 0.0
H2957 H 0.59488 0.89173 0.58115 0.0
H2958 H 0.56712 0.89641 0.5878 0.0
H2959 H 0.5743 0.87777 0.56691 0.0
C2960 C 0.13785 0.56089 0.60648 0.0
C2961 C 0.15262 0.56346 0.62324 0.0
C2962 C 0.13734 0.57523 0.58915 0.0
C2963 C 0.1518 0.59272 0.58869 0.0
C2964 C 0.16649 0.59564 0.60578 0.0
C2965 C 0.16683 0.58087 0.6228 0.0
C2966 C 0.12164 0.57139 0.57111 0.0
C2967 C 0.18201 0.61422 0.60594 0.0
C2968 C 0.16604 0.61605 0.53435 0.0
C2969 C 0.15261 0.63405 0.53327 0.0
C2970 C 0.16592 0.60252 0.5523 0.0
C2971 C 0.15226 0.60727 0.56977 0.0
C2972 C 0.13879 0.62556 0.5689 0.0
C2973 C 0.139 0.63867 0.55054 0.0
C2974 C 0.18027 0.58301 0.55244 0.0
C2975 C 0.1242 0.63127 0.58734 0.0
H2976 H 0.12683 0.54745 0.60673 0.0
H2977 H 0.17818 0.58299 0.63579 0.0
H2978 H 0.11142 0.58574 0.56873 0.0
H2979 H 0.13049 0.56862 0.55593 0.0
H2980 H 0.11111 0.55735 0.57417 0.0
H2981 H 0.19158 0.6149 0.62096 0.0
H2982 H 0.19318 0.61287 0.59217 0.0
H2983 H 0.17318 0.62956 0.60409 0.0
H2984 H 0.17653 0.61235 0.52099 0.0
H2985 H 0.12868 0.65264 0.5498 0.0
H2986 H 0.17044 0.56829 0.55427 0.0
H2987 H 0.19137 0.5837 0.56632 0.0
H2988 H 0.18992 0.58157 0.53753 0.0
H2989 H 0.11252 0.61814 0.59011 0.0
H2990 H 0.1152 0.64636 0.58443 0.0
H2991 H 0.13372 0.63308 0.60227 0.0
C2992 C 0.35507 0.1656 0.55536 0.0
C2993 C 0.35581 0.14802 0.5414 0.0
C2994 C 0.36865 0.16675 0.57326 0.0
C2995 C 0.38381 0.15025 0.57685 0.0
C2996 C 0.38429 0.1322 0.56304 0.0
C2997 C 0.37002 0.13116 0.54563 0.0
C2998 C 0.36718 0.18593 0.58797 0.0
C2999 C 0.40056 0.11452 0.56602 0.0
C3000 C 0.4347 0.16563 0.60662 0.0
C3001 C 0.43139 0.15602 0.62664 0.0
C3002 C 0.41939 0.16372 0.59023 0.0
C3003 C 0.40003 0.1525 0.59422 0.0
C3004 C 0.39634 0.14335 0.61467 0.0
C3005 C 0.41224 0.14492 0.63055 0.0
C3006 C 0.42416 0.17328 0.5685 0.0
C3007 C 0.37564 0.13186 0.61974 0.0
H3008 H 0.34397 0.17861 0.55214 0.0
H3009 H 0.37073 0.11765 0.5347 0.0
H3010 H 0.36609 0.18062 0.60492 0.0
H3011 H 0.38189 0.19581 0.58644 0.0
H3012 H 0.35309 0.19618 0.58427 0.0
H3013 H 0.39829 0.10122 0.55439 0.0
H3014 H 0.41697 0.12111 0.56398 0.0
H3015 H 0.39954 0.1079 0.58249 0.0
H3016 H 0.44961 0.17402 0.60352 0.0
H3017 H 0.40966 0.13756 0.64608 0.0
H3018 H 0.41181 0.18538 0.56432 0.0
H3019 H 0.42354 0.16058 0.55605 0.0
H3020 H 0.44017 0.18107 0.56789 0.0
H3021 H 0.36179 0.1425 0.61636 0.0
H3022 H 0.37482 0.12662 0.63675 0.0
H3023 H 0.37395 0.11755 0.60933 0.0
C3024 C 0.86572 0.36538 0.54732 0.0
C3025 C 0.84997 0.36848 0.53158 0.0
C3026 C 0.86645 0.37851 0.56564 0.0
C3027 C 0.85127 0.39524 0.56805 0.0
C3028 C 0.83551 0.39854 0.55206 0.0
C3029 C 0.83498 0.38504 0.5341 0.0
C3030 C 0.88334 0.37439 0.58248 0.0
C3031 C 0.81919 0.41636 0.55389 0.0
C3032 C 0.83813 0.4187 0.62268 0.0
C3033 C 0.84999 0.43779 0.62242 0.0
C3034 C 0.83894 0.40435 0.60536 0.0
C3035 C 0.85169 0.40937 0.58726 0.0
C3036 C 0.86388 0.42852 0.58702 0.0
C3037 C 0.86298 0.44244 0.60468 0.0
C3038 C 0.82588 0.38398 0.60629 0.0
C3039 C 0.87745 0.43457 0.5679 0.0
H3040 H 0.87729 0.35255 0.54544 0.0
H3041 H 0.82283 0.38758 0.52193 0.0
H3042 H 0.89343 0.38888 0.58465 0.0
H3043 H 0.87557 0.371 0.59813 0.0
H3044 H 0.8939 0.36067 0.57827 0.0
H3045 H 0.80825 0.41701 0.53984 0.0
H3046 H 0.8094 0.41413 0.56857 0.0
H3047 H 0.82747 0.43203 0.55537 0.0
H3048 H 0.82818 0.41497 0.63644 0.0
H3049 H 0.87218 0.4572 0.60441 0.0
H3050 H 0.83629 0.36989 0.60317 0.0
H3051 H 0.81341 0.38425 0.59361 0.0
H3052 H 0.81788 0.38179 0.62205 0.0
H3053 H 0.88893 0.42152 0.56414 0.0
H3054 H 0.8866 0.44962 0.57057 0.0
H3055 H 0.86705 0.43673 0.55362 0.0
C3056 C 0.57978 0.17044 0.38094 0.0
C3057 C 0.56286 0.15566 0.38056 0.0
C3058 C 0.59507 0.17009 0.39747 0.0
C3059 C 0.59321 0.15473 0.41409 0.0
C3060 C 0.57618 0.13973 0.41374 0.0
C3061 C 0.56126 0.14031 0.39691 0.0
C3062 C 0.61311 0.18624 0.39724 0.0
C3063 C 0.57354 0.12326 0.4313 0.0
C3064 C 0.64133 0.1419 0.44932 0.0
C3065 C 0.63706 0.15445 0.46746 0.0
C3066 C 0.62734 0.14203 0.43165 0.0
C3067 C 0.60859 0.15485 0.43231 0.0
C3068 C 0.60426 0.16755 0.4506 0.0
C3069 C 0.6186 0.16728 0.4679 0.0
C3070 C 0.63256 0.12843 0.41233 0.0
C3071 C 0.58433 0.18127 0.452 0.0
H3072 H 0.58114 0.18225 0.36826 0.0
H3073 H 0.54819 0.12885 0.39669 0.0
H3074 H 0.61207 0.19665 0.41162 0.0
H3075 H 0.6288 0.17787 0.39791 0.0
H3076 H 0.61276 0.19656 0.38273 0.0
H3077 H 0.55964 0.11249 0.42844 0.0
H3078 H 0.58824 0.11334 0.43262 0.0
H3079 H 0.57126 0.13144 0.44693 0.0
H3080 H 0.65562 0.13202 0.4489 0.0
H3081 H 0.61519 0.17697 0.48191 0.0
H3082 H 0.63332 0.13861 0.39776 0.0
H3083 H 0.61968 0.11645 0.40971 0.0
H3084 H 0.64806 0.11983 0.4141 0.0
H3085 H 0.58399 0.1929 0.43855 0.0
H3086 H 0.58338 0.19029 0.46733 0.0
H3087 H 0.56984 0.17106 0.45052 0.0
C3088 C 0.85968 0.56438 0.39384 0.0
C3089 C 0.84559 0.56628 0.37642 0.0
C3090 C 0.8588 0.57878 0.41108 0.0
C3091 C 0.84351 0.59554 0.41086 0.0
C3092 C 0.82924 0.59758 0.39331 0.0
C3093 C 0.83042 0.58287 0.37628 0.0
C3094 C 0.87421 0.57598 0.42956 0.0
C3095 C 0.81275 0.61528 0.39253 0.0
C3096 C 0.82897 0.61933 0.46491 0.0
C3097 C 0.84205 0.63761 0.46558 0.0
C3098 C 0.82898 0.60573 0.44701 0.0
C3099 C 0.84227 0.61063 0.42928 0.0
C3100 C 0.85512 0.62935 0.42964 0.0
C3101 C 0.85494 0.64259 0.44786 0.0
C3102 C 0.81518 0.58583 0.44731 0.0
C3103 C 0.86938 0.63516 0.41095 0.0
H3104 H 0.87145 0.55159 0.39404 0.0
H3105 H 0.81954 0.58443 0.36281 0.0
H3106 H 0.88399 0.5907 0.4316 0.0
H3107 H 0.86515 0.57352 0.44467 0.0
H3108 H 0.8852 0.56216 0.42722 0.0
H3109 H 0.80305 0.61485 0.37758 0.0
H3110 H 0.80177 0.61395 0.40646 0.0
H3111 H 0.82079 0.63111 0.39365 0.0
H3112 H 0.81898 0.61539 0.47857 0.0
H3113 H 0.865 0.65676 0.44828 0.0
H3114 H 0.82549 0.57136 0.44646 0.0
H3115 H 0.80451 0.58555 0.43308 0.0
H3116 H 0.80513 0.58477 0.46198 0.0
H3117 H 0.88183 0.62264 0.40878 0.0
H3118 H 0.87746 0.65087 0.41325 0.0
H3119 H 0.85984 0.63579 0.39595 0.0
C3120 C 0.38347 0.83735 0.46145 0.0
C3121 C 0.36392 0.84845 0.46192 0.0
C3122 C 0.39668 0.83789 0.44328 0.0
C3123 C 0.39006 0.84958 0.42498 0.0
C3124 C 0.37022 0.86064 0.42525 0.0
C3125 C 0.35743 0.86008 0.4438 0.0
C3126 C 0.41785 0.82611 0.44376 0.0
C3127 C 0.36253 0.87304 0.40594 0.0
C3128 C 0.43437 0.86645 0.38681 0.0
C3129 C 0.43376 0.85 0.3715 0.0
C3130 C 0.41987 0.8668 0.40401 0.0
C3131 C 0.40422 0.85046 0.4058 0.0
C3132 C 0.40305 0.83422 0.38996 0.0
C3133 C 0.41794 0.8341 0.37306 0.0
C3134 C 0.42181 0.88425 0.4207 0.0
C3135 C 0.38642 0.81667 0.39117 0.0
H3136 H 0.3886 0.8284 0.47545 0.0
H3137 H 0.34228 0.8686 0.44408 0.0
H3138 H 0.41839 0.81403 0.43073 0.0
H3139 H 0.4312 0.83754 0.44092 0.0
H3140 H 0.42067 0.81784 0.45928 0.0
H3141 H 0.34645 0.88028 0.40851 0.0
H3142 H 0.37406 0.88603 0.4021 0.0
H3143 H 0.36176 0.86233 0.39176 0.0
H3144 H 0.44658 0.87877 0.38569 0.0
H3145 H 0.41734 0.82142 0.36119 0.0
H3146 H 0.42612 0.87706 0.43639 0.0
H3147 H 0.40621 0.89253 0.42278 0.0
H3148 H 0.43417 0.89635 0.41642 0.0
H3149 H 0.38943 0.80654 0.40549 0.0
H3150 H 0.38655 0.80625 0.37673 0.0
H3151 H 0.37017 0.82371 0.39299 0.0
C3152 C 0.13138 0.43345 0.38781 0.0
C3153 C 0.14948 0.43461 0.37451 0.0
C3154 C 0.13071 0.4193 0.40527 0.0
C3155 C 0.14852 0.40587 0.40944 0.0
C3156 C 0.16665 0.4066 0.39576 0.0
C3157 C 0.16695 0.42105 0.37848 0.0
C3158 C 0.11117 0.41915 0.41959 0.0
C3159 C 0.18588 0.39241 0.39965 0.0
C3160 C 0.15724 0.38724 0.46662 0.0
C3161 C 0.14926 0.36623 0.466 0.0
C3162 C 0.15697 0.40029 0.44835 0.0
C3163 C 0.14869 0.39209 0.42889 0.0
C3164 C 0.14048 0.37091 0.42815 0.0
C3165 C 0.14077 0.35823 0.44679 0.0
C3166 C 0.16565 0.42286 0.44987 0.0
C3167 C 0.13163 0.36162 0.40764 0.0
H3168 H 0.11781 0.44389 0.3848 0.0
H3169 H 0.18093 0.42182 0.36817 0.0
H3170 H 0.10468 0.40265 0.42094 0.0
H3171 H 0.11571 0.42439 0.43597 0.0
H3172 H 0.09828 0.42987 0.41357 0.0
H3173 H 0.19811 0.39395 0.38678 0.0
H3174 H 0.19345 0.39667 0.41517 0.0
H3175 H 0.18082 0.37539 0.40072 0.0
H3176 H 0.16378 0.39351 0.48146 0.0
H3177 H 0.13469 0.34196 0.44623 0.0
H3178 H 0.15307 0.43453 0.44517 0.0
H3179 H 0.17924 0.42491 0.43858 0.0
H3180 H 0.17127 0.42688 0.46629 0.0
H3181 H 0.11813 0.3716 0.40175 0.0
H3182 H 0.12585 0.34489 0.40973 0.0
H3183 H 0.14418 0.36178 0.39503 0.0
C3184 C 0.61113 0.56626 0.83189 0.0
C3185 C 0.6288 0.56795 0.84565 0.0
C3186 C 0.59401 0.58082 0.83323 0.0
C3187 C 0.59492 0.59783 0.84826 0.0
C3188 C 0.61314 0.60007 0.86162 0.0
C3189 C 0.62973 0.58489 0.86039 0.0
C3190 C 0.57465 0.57758 0.81904 0.0
C3191 C 0.615 0.61835 0.87738 0.0
C3192 C 0.55633 0.6438 0.83773 0.0
C3193 C 0.53985 0.63934 0.85233 0.0
C3194 C 0.5748 0.63095 0.83684 0.0
C3195 C 0.57645 0.61281 0.85041 0.0
C3196 C 0.55995 0.60844 0.8654 0.0
C3197 C 0.54198 0.62197 0.8664 0.0
C3198 C 0.59234 0.63653 0.82111 0.0
C3199 C 0.56086 0.58898 0.87979 0.0
H3200 H 0.61031 0.55305 0.82062 0.0
H3201 H 0.64346 0.58626 0.87097 0.0
H3202 H 0.56016 0.57516 0.8291 0.0
H3203 H 0.57183 0.59206 0.80912 0.0
H3204 H 0.57646 0.56354 0.80822 0.0
H3205 H 0.63088 0.61872 0.88544 0.0
H3206 H 0.61245 0.63388 0.86906 0.0
H3207 H 0.60238 0.61689 0.88982 0.0
H3208 H 0.55473 0.65731 0.8269 0.0
H3209 H 0.52914 0.6184 0.87757 0.0
H3210 H 0.59344 0.62393 0.80861 0.0
H3211 H 0.60807 0.63713 0.82941 0.0
H3212 H 0.58948 0.65219 0.81312 0.0
H3213 H 0.56126 0.57421 0.86986 0.0
H3214 H 0.54688 0.58804 0.8908 0.0
H3215 H 0.57575 0.5892 0.88951 0.0
C3216 C 0.4176 0.62375 0.83481 0.0
C3217 C 0.43797 0.62062 0.84381 0.0
C3218 C 0.40233 0.60717 0.83472 0.0
C3219 C 0.40769 0.58697 0.84362 0.0
C3220 C 0.42835 0.58368 0.85244 0.0
C3221 C 0.44319 0.60058 0.85253 0.0
C3222 C 0.38041 0.61133 0.82531 0.0
C3223 C 0.43477 0.56229 0.86183 0.0
C3224 C 0.36425 0.5482 0.86178 0.0
C3225 C 0.36358 0.53377 0.84457 0.0
C3226 C 0.37815 0.56594 0.86145 0.0
C3227 C 0.39181 0.56915 0.84358 0.0
C3228 C 0.39094 0.5548 0.82604 0.0
C3229 C 0.37677 0.53734 0.8267 0.0
C3230 C 0.37848 0.58103 0.88037 0.0
C3231 C 0.40537 0.55756 0.80678 0.0
H3232 H 0.41346 0.63926 0.82816 0.0
H3233 H 0.45894 0.59807 0.85947 0.0
H3234 H 0.37724 0.59996 0.81201 0.0
H3235 H 0.36791 0.60858 0.83767 0.0
H3236 H 0.37874 0.62795 0.81912 0.0
H3237 H 0.45157 0.56227 0.86778 0.0
H3238 H 0.42397 0.55811 0.87532 0.0
H3239 H 0.43308 0.54952 0.84956 0.0
H3240 H 0.35403 0.54554 0.87559 0.0
H3241 H 0.37634 0.52623 0.81335 0.0
H3242 H 0.37585 0.59776 0.87489 0.0
H3243 H 0.39443 0.58049 0.88822 0.0
H3244 H 0.36605 0.57697 0.89247 0.0
H3245 H 0.40318 0.57374 0.79974 0.0
H3246 H 0.40223 0.54539 0.79416 0.0
H3247 H 0.4224 0.55625 0.8118 0.0
C3248 C 0.3931 0.43644 0.8621 0.0
C3249 C 0.37661 0.43441 0.84695 0.0
C3250 C 0.41041 0.42208 0.86239 0.0
C3251 C 0.41115 0.40518 0.84726 0.0
C3252 C 0.39437 0.40283 0.83215 0.0
C3253 C 0.37733 0.41755 0.83211 0.0
C3254 C 0.4281 0.42523 0.87863 0.0
C3255 C 0.39454 0.38491 0.81586 0.0
C3256 C 0.4657 0.38202 0.83356 0.0
C3257 C 0.46618 0.3634 0.84616 0.0
C3258 C 0.44786 0.39569 0.83374 0.0
C3259 C 0.42996 0.39053 0.8467 0.0
C3260 C 0.43024 0.37164 0.85931 0.0
C3261 C 0.44842 0.35832 0.85897 0.0
C3262 C 0.44826 0.41578 0.82021 0.0
C3263 C 0.41136 0.36555 0.87319 0.0
H3264 H 0.39262 0.44945 0.87361 0.0
H3265 H 0.36456 0.41585 0.82043 0.0
H3266 H 0.43021 0.41046 0.88832 0.0
H3267 H 0.4435 0.42828 0.87025 0.0
H3268 H 0.42484 0.43884 0.88964 0.0
H3269 H 0.37981 0.38473 0.80584 0.0
H3270 H 0.40865 0.38663 0.80517 0.0
H3271 H 0.39604 0.36921 0.82409 0.0
H3272 H 0.47941 0.38606 0.82366 0.0
H3273 H 0.44871 0.34391 0.86869 0.0
H3274 H 0.44638 0.4301 0.83059 0.0
H3275 H 0.43462 0.41571 0.80879 0.0
H3276 H 0.4634 0.41743 0.81096 0.0
H3277 H 0.40844 0.37822 0.88532 0.0
H3278 H 0.4139 0.35007 0.88164 0.0
H3279 H 0.39666 0.36428 0.86325 0.0
C3280 C 0.56877 0.38475 0.87021 0.0
C3281 C 0.5687 0.37161 0.85196 0.0
C3282 C 0.5829 0.40218 0.87189 0.0
C3283 C 0.59736 0.40651 0.85495 0.0
C3284 C 0.59794 0.39279 0.83686 0.0
C3285 C 0.58354 0.37552 0.83555 0.0
C3286 C 0.58173 0.41647 0.8914 0.0
C3287 C 0.61323 0.39681 0.81852 0.0
C3288 C 0.61504 0.46395 0.84584 0.0
C3289 C 0.63578 0.46395 0.85451 0.0
C3290 C 0.60232 0.44544 0.84619 0.0
C3291 C 0.61058 0.42637 0.8553 0.0
C3292 C 0.63142 0.42631 0.86437 0.0
C3293 C 0.64377 0.44518 0.86395 0.0
C3294 C 0.5801 0.44624 0.83654 0.0
C3295 C 0.64078 0.40624 0.87413 0.0
H3296 H 0.55736 0.38177 0.88298 0.0
H3297 H 0.58363 0.36535 0.82145 0.0
H3298 H 0.5979 0.41859 0.89849 0.0
H3299 H 0.57589 0.43259 0.88663 0.0
H3300 H 0.57082 0.40997 0.90388 0.0
H3301 H 0.61293 0.38367 0.80649 0.0
H3302 H 0.60892 0.41202 0.81037 0.0
H3303 H 0.62985 0.39859 0.82462 0.0
H3304 H 0.60875 0.47845 0.83859 0.0
H3305 H 0.65983 0.4451 0.8706 0.0
H3306 H 0.56802 0.44126 0.84862 0.0
H3307 H 0.57901 0.43483 0.82294 0.0
H3308 H 0.57585 0.4625 0.83064 0.0
H3309 H 0.63007 0.40012 0.88696 0.0
H3310 H 0.65697 0.409 0.88103 0.0
H3311 H 0.64195 0.39352 0.86175 0.0
C3312 C 0.55444 0.35988 0.14068 0.0
C3313 C 0.53824 0.3638 0.15575 0.0
C3314 C 0.57318 0.37239 0.14035 0.0
C3315 C 0.57548 0.38948 0.15513 0.0
C3316 C 0.55919 0.3934 0.17044 0.0
C3317 C 0.54087 0.38037 0.1707 0.0
C3318 C 0.5904 0.36749 0.12406 0.0
C3319 C 0.56083 0.41172 0.1862 0.0
C3320 C 0.62955 0.41508 0.16699 0.0
C3321 C 0.62883 0.43331 0.15388 0.0
C3322 C 0.61261 0.40022 0.16703 0.0
C3323 C 0.59438 0.40399 0.154 0.0
C3324 C 0.5937 0.42229 0.14059 0.0
C3325 C 0.61103 0.43661 0.14054 0.0
C3326 C 0.61407 0.38065 0.1812 0.0
C3327 C 0.57439 0.42712 0.12678 0.0
H3328 H 0.5525 0.34698 0.12919 0.0
H3329 H 0.52833 0.38351 0.18232 0.0
H3330 H 0.59209 0.38114 0.11278 0.0
H3331 H 0.60609 0.36539 0.13219 0.0
H3332 H 0.5868 0.35279 0.11466 0.0
H3333 H 0.5469 0.4124 0.19728 0.0
H3334 H 0.57569 0.41017 0.19586 0.0
H3335 H 0.56184 0.42715 0.17739 0.0
H3336 H 0.64336 0.41244 0.17722 0.0
H3337 H 0.61037 0.45074 0.13044 0.0
H3338 H 0.61115 0.36594 0.17163 0.0
H3339 H 0.60149 0.38136 0.19375 0.0
H3340 H 0.62995 0.37926 0.18916 0.0
H3341 H 0.57108 0.41346 0.11588 0.0
H3342 H 0.57658 0.44182 0.11696 0.0
H3343 H 0.56003 0.42927 0.13706 0.0
C3344 C 0.62038 0.53567 0.17024 0.0
C3345 C 0.63744 0.5346 0.15563 0.0
C3346 C 0.60606 0.55299 0.17009 0.0
C3347 C 0.60897 0.56976 0.15508 0.0
C3348 C 0.62634 0.56893 0.14047 0.0
C3349 C 0.64035 0.55129 0.14086 0.0
C3350 C 0.58765 0.55321 0.18584 0.0
C3351 C 0.63002 0.58661 0.12435 0.0
C3352 C 0.56023 0.60366 0.14156 0.0
C3353 C 0.56334 0.62161 0.15472 0.0
C3354 C 0.57507 0.58675 0.14137 0.0
C3355 C 0.59355 0.58794 0.15451 0.0
C3356 C 0.59691 0.60615 0.16764 0.0
C3357 C 0.58169 0.62274 0.16766 0.0
C3358 C 0.57084 0.5675 0.12731 0.0
C3359 C 0.61649 0.60804 0.18176 0.0
H3360 H 0.61802 0.52279 0.18167 0.0
H3361 H 0.65354 0.55054 0.12956 0.0
H3362 H 0.58836 0.5679 0.19584 0.0
H3363 H 0.57218 0.55356 0.17704 0.0
H3364 H 0.58775 0.539 0.19658 0.0
H3365 H 0.64461 0.58386 0.11451 0.0
H3366 H 0.61599 0.5879 0.11348 0.0
H3367 H 0.63166 0.60223 0.13272 0.0
H3368 H 0.54606 0.60272 0.13153 0.0
H3369 H 0.58421 0.63664 0.17778 0.0
H3370 H 0.56948 0.55288 0.13737 0.0
H3371 H 0.58446 0.56498 0.11615 0.0
H3372 H 0.55589 0.56923 0.11776 0.0
H3373 H 0.6166 0.59488 0.19373 0.0
H3374 H 0.61711 0.62359 0.19041 0.0
H3375 H 0.63125 0.60637 0.17196 0.0
C3376 C 0.44595 0.6409 0.13806 0.0
C3377 C 0.46181 0.63721 0.15355 0.0
C3378 C 0.4272 0.6284 0.13753 0.0
C3379 C 0.42456 0.61155 0.15253 0.0
C3380 C 0.44051 0.60788 0.16827 0.0
C3381 C 0.45883 0.6209 0.16872 0.0
C3382 C 0.41034 0.63306 0.1208 0.0
C3383 C 0.43851 0.58981 0.18428 0.0
C3384 C 0.37028 0.58617 0.16377 0.0
C3385 C 0.37127 0.56767 0.15105 0.0
C3386 C 0.3872 0.60105 0.16383 0.0
C3387 C 0.40567 0.59705 0.15124 0.0
C3388 C 0.4066 0.57851 0.13818 0.0
C3389 C 0.38929 0.56416 0.13809 0.0
C3390 C 0.38547 0.62086 0.17763 0.0
C3391 C 0.42617 0.57345 0.12483 0.0
H3392 H 0.44816 0.65359 0.1264 0.0
H3393 H 0.47111 0.61795 0.18067 0.0
H3394 H 0.40887 0.61924 0.1097 0.0
H3395 H 0.39448 0.6353 0.12856 0.0
H3396 H 0.41414 0.64761 0.11125 0.0
H3397 H 0.45221 0.58928 0.19566 0.0
H3398 H 0.42346 0.59152 0.1936 0.0
H3399 H 0.43767 0.57424 0.17571 0.0
H3400 H 0.3563 0.58898 0.17371 0.0
H3401 H 0.39015 0.54983 0.12829 0.0
H3402 H 0.38867 0.6354 0.16789 0.0
H3403 H 0.39773 0.62031 0.1905 0.0
H3404 H 0.3694 0.62244 0.18517 0.0
H3405 H 0.42974 0.58694 0.11381 0.0
H3406 H 0.42413 0.55862 0.11518 0.0
H3407 H 0.44031 0.57141 0.13544 0.0
C3408 C 0.4187 0.378 0.16916 0.0
C3409 C 0.43669 0.37861 0.15569 0.0
C3410 C 0.40344 0.39455 0.16884 0.0
C3411 C 0.40638 0.41221 0.15488 0.0
C3412 C 0.42449 0.41286 0.14119 0.0
C3413 C 0.43938 0.39599 0.1417 0.0
C3414 C 0.38425 0.39323 0.18356 0.0
C3415 C 0.4283 0.43152 0.12624 0.0
C3416 C 0.35932 0.44847 0.14098 0.0
C3417 C 0.36269 0.46575 0.15494 0.0
C3418 C 0.37323 0.43074 0.14098 0.0
C3419 C 0.39099 0.43043 0.15515 0.0
C3420 C 0.39435 0.44779 0.16937 0.0
C3421 C 0.38011 0.46519 0.16915 0.0
C3422 C 0.36905 0.41242 0.12573 0.0
C3423 C 0.41319 0.44815 0.18461 0.0
H3424 H 0.41649 0.36453 0.17992 0.0
H3425 H 0.45327 0.39654 0.13126 0.0
H3426 H 0.3845 0.40683 0.19501 0.0
H3427 H 0.36923 0.39455 0.17412 0.0
H3428 H 0.38387 0.37802 0.19282 0.0
H3429 H 0.44295 0.42938 0.11633 0.0
H3430 H 0.41435 0.4336 0.11539 0.0
H3431 H 0.42996 0.44653 0.13564 0.0
H3432 H 0.34584 0.44882 0.13 0.0
H3433 H 0.38283 0.47853 0.17995 0.0
H3434 H 0.36767 0.39716 0.13478 0.0
H3435 H 0.38273 0.41067 0.1145 0.0
H3436 H 0.35416 0.41479 0.11623 0.0
H3437 H 0.41273 0.43387 0.1952 0.0
H3438 H 0.41339 0.46277 0.19479 0.0
H3439 H 0.42841 0.44743 0.17542 0.0
C3440 C 0.83074 0.54105 0.62397 0.0
C3441 C 0.84609 0.53827 0.64015 0.0
C3442 C 0.83081 0.55938 0.61097 0.0
C3443 C 0.84638 0.57552 0.61448 0.0
C3444 C 0.86152 0.57312 0.63124 0.0
C3445 C 0.86133 0.55438 0.64377 0.0
C3446 C 0.81461 0.56116 0.59304 0.0
C3447 C 0.87813 0.59016 0.63568 0.0
C3448 C 0.86005 0.61006 0.56636 0.0
C3449 C 0.84699 0.62806 0.56969 0.0
C3450 C 0.86033 0.59306 0.58106 0.0
C3451 C 0.84749 0.59423 0.59974 0.0
C3452 C 0.83481 0.61269 0.60356 0.0
C3453 C 0.83457 0.62934 0.58837 0.0
C3454 C 0.87382 0.57353 0.57622 0.0
C3455 C 0.82119 0.61465 0.62347 0.0
H3456 H 0.81896 0.5286 0.62107 0.0
H3457 H 0.87314 0.55233 0.65637 0.0
H3458 H 0.80531 0.57623 0.59463 0.0
H3459 H 0.82304 0.56178 0.57738 0.0
H3460 H 0.80322 0.54746 0.59281 0.0
H3461 H 0.88769 0.58661 0.65029 0.0
H3462 H 0.88923 0.59149 0.62185 0.0
H3463 H 0.87027 0.60599 0.63769 0.0
H3464 H 0.86966 0.60897 0.55191 0.0
H3465 H 0.82456 0.64329 0.59106 0.0
H3466 H 0.8633 0.5593 0.57438 0.0
H3467 H 0.88489 0.57021 0.58973 0.0
H3468 H 0.88342 0.57545 0.56134 0.0
H3469 H 0.80833 0.60236 0.62318 0.0
H3470 H 0.81363 0.63072 0.62492 0.0
H3471 H 0.83105 0.61163 0.63797 0.0
C3472 C 0.84275 0.44882 0.35379 0.0
C3473 C 0.85546 0.46657 0.35903 0.0
C3474 C 0.84212 0.43074 0.36717 0.0
C3475 C 0.8538 0.43085 0.38665 0.0
C3476 C 0.86677 0.44875 0.39192 0.0
C3477 C 0.86774 0.46625 0.37782 0.0
C3478 C 0.82873 0.41166 0.36062 0.0
C3479 C 0.87892 0.44977 0.41284 0.0
C3480 C 0.83331 0.39506 0.43147 0.0
C3481 C 0.84873 0.37876 0.43163 0.0
C3482 C 0.8349 0.41225 0.41703 0.0
C3483 C 0.85185 0.41263 0.4019 0.0
C3484 C 0.86709 0.3958 0.40161 0.0
C3485 C 0.86558 0.37926 0.41679 0.0
C3486 C 0.81872 0.43022 0.41828 0.0
C3487 C 0.88493 0.39525 0.38525 0.0
H3488 H 0.83331 0.44909 0.33918 0.0
H3489 H 0.87736 0.48013 0.38197 0.0
H3490 H 0.83848 0.39678 0.36142 0.0
H3491 H 0.81512 0.40968 0.37189 0.0
H3492 H 0.82221 0.41335 0.34413 0.0
H3493 H 0.88831 0.46482 0.41449 0.0
H3494 H 0.86751 0.44867 0.42645 0.0
H3495 H 0.89006 0.43597 0.41417 0.0
H3496 H 0.82039 0.3947 0.44309 0.0
H3497 H 0.8774 0.3665 0.41685 0.0
H3498 H 0.80992 0.43161 0.40289 0.0
H3499 H 0.82709 0.44569 0.42099 0.0
H3500 H 0.80689 0.42778 0.43137 0.0
H3501 H 0.87815 0.39638 0.36883 0.0
H3502 H 0.89469 0.38038 0.3864 0.0
H3503 H 0.89567 0.40924 0.38749 0.0
C3504 C 0.53668 0.83646 0.38244 0.0
C3505 C 0.53652 0.84831 0.36334 0.0
C3506 C 0.5545 0.83679 0.39614 0.0
C3507 C 0.57273 0.84908 0.39048 0.0
C3508 C 0.57279 0.86087 0.37107 0.0
C3509 C 0.55459 0.86046 0.35777 0.0
C3510 C 0.5537 0.8242 0.41682 0.0
C3511 C 0.59204 0.87395 0.3644 0.0
C3512 C 0.60927 0.8653 0.43633 0.0
C3513 C 0.62508 0.84934 0.43549 0.0
C3514 C 0.5924 0.86569 0.42146 0.0
C3515 C 0.59146 0.84987 0.40521 0.0
C3516 C 0.60775 0.8341 0.40388 0.0
C3517 C 0.62431 0.83394 0.41914 0.0
C3518 C 0.57521 0.88263 0.42355 0.0
C3519 C 0.60741 0.81712 0.38663 0.0
H3520 H 0.52272 0.82709 0.38686 0.0
H3521 H 0.55456 0.86957 0.34296 0.0
H3522 H 0.56704 0.81244 0.41731 0.0
H3523 H 0.55582 0.83517 0.43066 0.0
H3524 H 0.53832 0.81543 0.41883 0.0
H3525 H 0.5898 0.88166 0.3485 0.0
H3526 H 0.59521 0.88663 0.37647 0.0
H3527 H 0.6065 0.86359 0.36374 0.0
H3528 H 0.60979 0.87724 0.44895 0.0
H3529 H 0.63658 0.82164 0.41837 0.0
H3530 H 0.55957 0.8749 0.42705 0.0
H3531 H 0.57341 0.89149 0.40824 0.0
H3532 H 0.57878 0.89432 0.43651 0.0
H3533 H 0.59321 0.80663 0.38882 0.0
H3534 H 0.62205 0.80697 0.38687 0.0
H3535 H 0.60596 0.82469 0.3706 0.0
C3536 C 0.13546 0.62345 0.41735 0.0
C3537 C 0.15141 0.62317 0.43315 0.0
C3538 C 0.13406 0.60695 0.40211 0.0
C3539 C 0.14839 0.58938 0.40334 0.0
C3540 C 0.1643 0.5889 0.41956 0.0
C3541 C 0.16589 0.60606 0.43402 0.0
C3542 C 0.11743 0.60843 0.38457 0.0
C3543 C 0.17942 0.57012 0.42186 0.0
C3544 C 0.13222 0.53669 0.37744 0.0
C3545 C 0.14605 0.53599 0.35978 0.0
C3546 C 0.13273 0.55405 0.39175 0.0
C3547 C 0.1468 0.57143 0.38774 0.0
C3548 C 0.16005 0.5712 0.36929 0.0
C3549 C 0.15985 0.55323 0.35577 0.0
C3550 C 0.11892 0.55335 0.41162 0.0
C3551 C 0.17466 0.58978 0.36402 0.0
H3552 H 0.12438 0.63683 0.41664 0.0
H3553 H 0.1781 0.60582 0.44641 0.0
H3554 H 0.12532 0.60734 0.36865 0.0
H3555 H 0.10608 0.5948 0.38576 0.0
H3556 H 0.10815 0.62362 0.38531 0.0
H3557 H 0.19018 0.57178 0.43597 0.0
H3558 H 0.17012 0.55503 0.42353 0.0
H3559 H 0.18945 0.56856 0.40727 0.0
H3560 H 0.12175 0.52318 0.38061 0.0
H3561 H 0.17047 0.55264 0.34201 0.0
H3562 H 0.10841 0.56767 0.41234 0.0
H3563 H 0.12926 0.55367 0.4261 0.0
H3564 H 0.1087 0.53877 0.41225 0.0
H3565 H 0.16553 0.60505 0.36436 0.0
H3566 H 0.18228 0.58802 0.34801 0.0
H3567 H 0.1875 0.59101 0.37626 0.0
C3568 C 0.44757 0.13844 0.36555 0.0
C3569 C 0.463 0.15459 0.36807 0.0
C3570 C 0.42936 0.13771 0.37877 0.0
C3571 C 0.42677 0.15328 0.39509 0.0
C3572 C 0.44229 0.16964 0.39764 0.0
C3573 C 0.46013 0.1702 0.38398 0.0
C3574 C 0.41298 0.12021 0.37539 0.0
C3575 C 0.44026 0.18634 0.41507 0.0
C3576 C 0.37211 0.16319 0.42009 0.0
C3577 C 0.37355 0.15113 0.439 0.0
C3578 C 0.38916 0.1637 0.4054 0.0
C3579 C 0.40818 0.15215 0.40995 0.0
C3580 C 0.40969 0.13994 0.42902 0.0
C3581 C 0.39228 0.13946 0.44325 0.0
C3582 C 0.38689 0.17667 0.38508 0.0
C3583 C 0.42981 0.12764 0.43457 0.0
H3584 H 0.44971 0.12641 0.35318 0.0
H3585 H 0.47208 0.18266 0.38604 0.0
H3586 H 0.41203 0.10994 0.38988 0.0
H3587 H 0.39686 0.12734 0.3729 0.0
H3588 H 0.41688 0.10991 0.36139 0.0
H3589 H 0.45364 0.1981 0.41479 0.0
H3590 H 0.42491 0.19516 0.41331 0.0
H3591 H 0.44 0.17842 0.431 0.0
H3592 H 0.35759 0.17214 0.41671 0.0
H3593 H 0.39348 0.13016 0.45789 0.0
H3594 H 0.38982 0.16633 0.37091 0.0
H3595 H 0.39908 0.18962 0.38478 0.0
H3596 H 0.37074 0.18404 0.38354 0.0
H3597 H 0.43357 0.11597 0.4217 0.0
H3598 H 0.42834 0.11883 0.44998 0.0
H3599 H 0.44359 0.13884 0.43574 0.0
C3600 C 0.16924 0.44713 0.6429 0.0
C3601 C 0.15213 0.46153 0.64081 0.0
C3602 C 0.17025 0.42851 0.63033 0.0
C3603 C 0.15419 0.4247 0.61475 0.0
C3604 C 0.13673 0.43911 0.61277 0.0
C3605 C 0.13572 0.4572 0.62612 0.0
C3606 C 0.18871 0.41315 0.63343 0.0
C3607 C 0.11962 0.43594 0.59592 0.0
C3608 C 0.16974 0.3916 0.56613 0.0
C3609 C 0.15877 0.3724 0.56996 0.0
C3610 C 0.16835 0.40876 0.58059 0.0
C3611 C 0.15628 0.40635 0.59968 0.0
C3612 C 0.14585 0.38664 0.60402 0.0
C3613 C 0.1469 0.37 0.58888 0.0
C3614 C 0.17922 0.4297 0.57509 0.0
C3615 C 0.13345 0.38322 0.62452 0.0
H3616 H 0.18185 0.45045 0.65441 0.0
H3617 H 0.12259 0.46847 0.62442 0.0
H3618 H 0.18262 0.39654 0.63537 0.0
H3619 H 0.19917 0.41332 0.61905 0.0
H3620 H 0.19861 0.41731 0.64765 0.0
H3621 H 0.10692 0.44842 0.59673 0.0
H3622 H 0.12701 0.43642 0.57974 0.0
H3623 H 0.11202 0.41998 0.59779 0.0
H3624 H 0.17872 0.39353 0.55137 0.0
H3625 H 0.13848 0.35508 0.59185 0.0
H3626 H 0.19095 0.43401 0.58774 0.0
H3627 H 0.16714 0.44275 0.57441 0.0
H3628 H 0.18774 0.42902 0.55946 0.0
H3629 H 0.14367 0.38716 0.63856 0.0
H3630 H 0.12766 0.36646 0.62618 0.0
H3631 H 0.11941 0.39413 0.62499 0.0
C3632 C 0.61826 0.1295 0.56982 0.0
C3633 C 0.63098 0.14804 0.56913 0.0
C3634 C 0.60062 0.12805 0.58372 0.0
C3635 C 0.59565 0.14552 0.5973 0.0
C3636 C 0.609 0.16391 0.59734 0.0
C3637 C 0.6265 0.16497 0.5832 0.0
C3638 C 0.58676 0.1082 0.58314 0.0
C3639 C 0.60429 0.18282 0.61171 0.0
C3640 C 0.53754 0.15405 0.613 0.0
C3641 C 0.53715 0.14629 0.63409 0.0
C3642 C 0.55642 0.15363 0.60083 0.0
C3643 C 0.57546 0.14536 0.61002 0.0
C3644 C 0.57513 0.1372 0.63121 0.0
C3645 C 0.55592 0.13769 0.64301 0.0
C3646 C 0.55603 0.16229 0.57821 0.0
C3647 C 0.59515 0.12832 0.64153 0.0
H3648 H 0.62168 0.11632 0.55903 0.0
H3649 H 0.63634 0.17929 0.58279 0.0
H3650 H 0.58433 0.10186 0.59958 0.0
H3651 H 0.57071 0.11233 0.57664 0.0
H3652 H 0.59381 0.09534 0.57304 0.0
H3653 H 0.61725 0.19503 0.61123 0.0
H3654 H 0.58907 0.19052 0.60663 0.0
H3655 H 0.60215 0.17741 0.62852 0.0
H3656 H 0.52306 0.16067 0.60601 0.0
H3657 H 0.5557 0.13176 0.65934 0.0
H3658 H 0.56155 0.1498 0.56681 0.0
H3659 H 0.56722 0.17605 0.57682 0.0
H3660 H 0.53977 0.16769 0.57329 0.0
H3661 H 0.60184 0.11518 0.63159 0.0
H3662 H 0.5921 0.1221 0.65794 0.0
H3663 H 0.60757 0.14103 0.64248 0.0
C3664 C 0.46241 0.83468 0.61811 0.0
C3665 C 0.46207 0.84552 0.6378 0.0
C3666 C 0.44461 0.83504 0.60437 0.0
C3667 C 0.42591 0.84629 0.61059 0.0
C3668 C 0.42534 0.85702 0.6306 0.0
C3669 C 0.44352 0.85663 0.64393 0.0
C3670 C 0.44595 0.82361 0.58306 0.0
C3671 C 0.40558 0.86897 0.63786 0.0
C3672 C 0.38878 0.86383 0.56567 0.0
C3673 C 0.37345 0.84738 0.56565 0.0
C3674 C 0.4057 0.86389 0.5805 0.0
C3675 C 0.40719 0.84721 0.59582 0.0
C3676 C 0.39142 0.83087 0.59626 0.0
C3677 C 0.37478 0.83109 0.58107 0.0
C3678 C 0.42231 0.88149 0.57937 0.0
C3679 C 0.39237 0.81295 0.6125 0.0
H3680 H 0.47674 0.82612 0.61326 0.0
H3681 H 0.44317 0.86495 0.65918 0.0
H3682 H 0.43303 0.81145 0.58184 0.0
H3683 H 0.44352 0.83524 0.56981 0.0
H3684 H 0.46163 0.8155 0.58068 0.0
H3685 H 0.40747 0.87585 0.65419 0.0
H3686 H 0.402 0.88219 0.62651 0.0
H3687 H 0.39152 0.85807 0.63785 0.0
H3688 H 0.38784 0.87647 0.55376 0.0
H3689 H 0.36291 0.81839 0.58118 0.0
H3690 H 0.43822 0.87448 0.57557 0.0
H3691 H 0.42374 0.8896 0.59513 0.0
H3692 H 0.4184 0.89371 0.56701 0.0
H3693 H 0.40698 0.80316 0.6098 0.0
H3694 H 0.37815 0.80226 0.6116 0.0
H3695 H 0.39346 0.81963 0.62895 0.0
loop_
_geom_bond_atom_site_label_1
_geom_bond_atom_site_label_2
_geom_bond_distance
_geom_bond_site_symmetry_2
_ccdc_geom_bond_type
In0 O1 2.294 . S
In0 O2 2.326 . S
In0 O6 2.266 . S
In0 O7 2.326 . S
In0 O8 2.266 1_455 S
In0 O9 2.326 . S
In0 O11 2.294 . S
In0 O12 2.326 . S
O1 In0 2.294 . S
O1 C10 1.240 . S
O2 In0 2.326 . S
O2 C10 1.252 . S
C3 O6 1.252 . S
C3 O7 1.260 . S
C4 O11 1.240 . S
C4 O12 1.252 . S
C5 O8 1.252 . S
C5 O9 1.260 1_655 S
O6 In0 2.266 . S
O6 C3 1.252 . S
O7 In0 2.326 . S
O7 C3 1.260 . S
O8 In0 2.266 1_655 S
O8 C5 1.252 . S
O9 In0 2.326 . S
O9 C5 1.260 1_455 S
C10 O1 1.240 . S
C10 O2 1.252 . S
O11 In0 2.294 . S
O11 C4 1.240 . S
O12 In0 2.326 . S
O12 C4 1.252 . S
In13 O14 2.294 . S
In13 O15 2.326 . S
In13 O19 2.266 1_545 S
In13 O20 2.326 . S
In13 O21 2.266 . S
In13 O22 2.326 . S
In13 O24 2.294 . S
In13 O25 2.326 . S
O14 In13 2.294 . S
O14 C23 1.240 . S
O15 In13 2.326 . S
O15 C23 1.252 . S
C16 O19 1.252 . S
C16 O20 1.260 1_565 S
C17 O24 1.240 . S
C17 O25 1.252 . S
C18 O21 1.252 . S
C18 O22 1.260 . S
O19 In13 2.266 1_565 S
O19 C16 1.252 . S
O20 In13 2.326 . S
O20 C16 1.260 1_545 S
O21 In13 2.266 . S
O21 C18 1.252 . S
O22 In13 2.326 . S
O22 C18 1.260 . S
C23 O14 1.240 . S
C23 O15 1.252 . S
O24 In13 2.294 . S
O24 C17 1.240 . S
O25 In13 2.326 . S
O25 C17 1.252 . S
In26 O27 2.294 . S
In26 O28 2.326 . S
In26 O32 2.266 . S
In26 O33 2.326 . S
In26 O34 2.266 1_655 S
In26 O35 2.326 . S
In26 O37 2.294 . S
In26 O38 2.326 . S
O27 In26 2.294 . S
O27 C36 1.240 . S
O28 In26 2.326 . S
O28 C36 1.252 . S
C29 O32 1.252 . S
C29 O33 1.260 . S
C30 O37 1.240 . S
C30 O38 1.252 . S
C31 O34 1.252 . S
C31 O35 1.260 1_455 S
O32 In26 2.266 . S
O32 C29 1.252 . S
O33 In26 2.326 . S
O33 C29 1.260 . S
O34 In26 2.266 1_455 S
O34 C31 1.252 . S
O35 In26 2.326 . S
O35 C31 1.260 1_655 S
C36 O27 1.240 . S
C36 O28 1.252 . S
O37 In26 2.294 . S
O37 C30 1.240 . S
O38 In26 2.326 . S
O38 C30 1.252 . S
In39 O40 2.294 . S
In39 O41 2.326 . S
In39 O45 2.266 1_565 S
In39 O46 2.326 . S
In39 O47 2.266 . S
In39 O48 2.326 . S
In39 O50 2.294 . S
In39 O51 2.326 . S
O40 In39 2.294 . S
O40 C49 1.240 . S
O41 In39 2.326 . S
O41 C49 1.252 . S
C42 O45 1.252 . S
C42 O46 1.260 1_545 S
C43 O50 1.240 . S
C43 O51 1.252 . S
C44 O47 1.252 . S
C44 O48 1.260 . S
O45 In39 2.266 1_545 S
O45 C42 1.252 . S
O46 In39 2.326 . S
O46 C42 1.260 1_565 S
O47 In39 2.266 . S
O47 C44 1.252 . S
O48 In39 2.326 . S
O48 C44 1.260 . S
C49 O40 1.240 . S
C49 O41 1.252 . S
O50 In39 2.294 . S
O50 C43 1.240 . S
O51 In39 2.326 . S
O51 C43 1.252 . S
In52 O53 2.294 . S
In52 O54 2.326 . S
In52 O58 2.266 1_455 S
In52 O59 2.326 . S
In52 O60 2.266 . S
In52 O61 2.326 . S
In52 O63 2.294 . S
In52 O64 2.326 . S
O53 In52 2.294 . S
O53 C62 1.240 . S
O54 In52 2.326 . S
O54 C62 1.252 . S
C55 O58 1.252 . S
C55 O59 1.260 1_655 S
C56 O63 1.240 . S
C56 O64 1.252 . S
C57 O60 1.252 . S
C57 O61 1.260 . S
O58 In52 2.266 1_655 S
O58 C55 1.252 . S
O59 In52 2.326 . S
O59 C55 1.260 1_455 S
O60 In52 2.266 . S
O60 C57 1.252 . S
O61 In52 2.326 . S
O61 C57 1.260 . S
C62 O53 1.240 . S
C62 O54 1.252 . S
O63 In52 2.294 . S
O63 C56 1.240 . S
O64 In52 2.326 . S
O64 C56 1.252 . S
In65 O66 2.294 . S
In65 O67 2.326 . S
In65 O71 2.266 . S
In65 O72 2.326 . S
In65 O73 2.266 1_545 S
In65 O74 2.326 . S
In65 O76 2.294 . S
In65 O77 2.326 . S
O66 In65 2.294 . S
O66 C75 1.240 . S
O67 In65 2.326 . S
O67 C75 1.252 . S
C68 O71 1.252 . S
C68 O72 1.260 . S
C69 O76 1.240 . S
C69 O77 1.252 . S
C70 O73 1.252 . S
C70 O74 1.260 1_565 S
O71 In65 2.266 . S
O71 C68 1.252 . S
O72 In65 2.326 . S
O72 C68 1.260 . S
O73 In65 2.266 1_565 S
O73 C70 1.252 . S
O74 In65 2.326 . S
O74 C70 1.260 1_545 S
C75 O66 1.240 . S
C75 O67 1.252 . S
O76 In65 2.294 . S
O76 C69 1.240 . S
O77 In65 2.326 . S
O77 C69 1.252 . S
In78 O79 2.294 . S
In78 O80 2.326 . S
In78 O84 2.266 . S
In78 O85 2.326 . S
In78 O86 2.266 1_655 S
In78 O87 2.326 . S
In78 O89 2.294 . S
In78 O90 2.326 . S
O79 In78 2.294 . S
O79 C88 1.240 . S
O80 In78 2.326 . S
O80 C88 1.252 . S
C81 O84 1.252 . S
C81 O85 1.260 . S
C82 O89 1.240 . S
C82 O90 1.252 . S
C83 O86 1.252 . S
C83 O87 1.260 1_455 S
O84 In78 2.266 . S
O84 C81 1.252 . S
O85 In78 2.326 . S
O85 C81 1.260 . S
O86 In78 2.266 1_455 S
O86 C83 1.252 . S
O87 In78 2.326 . S
O87 C83 1.260 1_655 S
C88 O79 1.240 . S
C88 O80 1.252 . S
O89 In78 2.294 . S
O89 C82 1.240 . S
O90 In78 2.326 . S
O90 C82 1.252 . S
In91 O92 2.294 . S
In91 O93 2.326 . S
In91 O97 2.266 . S
In91 O98 2.326 . S
In91 O99 2.266 1_565 S
In91 O100 2.326 . S
In91 O102 2.294 . S
In91 O103 2.326 . S
O92 In91 2.294 . S
O92 C101 1.240 . S
O93 In91 2.326 . S
O93 C101 1.252 . S
C94 O97 1.252 . S
C94 O98 1.260 . S
C95 O102 1.240 . S
C95 O103 1.252 . S
C96 O99 1.252 . S
C96 O100 1.260 1_545 S
O97 In91 2.266 . S
O97 C94 1.252 . S
O98 In91 2.326 . S
O98 C94 1.260 . S
O99 In91 2.266 1_545 S
O99 C96 1.252 . S
O100 In91 2.326 . S
O100 C96 1.260 1_565 S
C101 O92 1.240 . S
C101 O93 1.252 . S
O102 In91 2.294 . S
O102 C95 1.240 . S
O103 In91 2.326 . S
O103 C95 1.252 . S
In104 O105 2.294 . S
In104 O106 2.326 . S
In104 O110 2.266 1_545 S
In104 O111 2.326 . S
In104 O112 2.266 . S
In104 O113 2.326 . S
In104 O115 2.294 . S
In104 O116 2.326 . S
O105 In104 2.294 . S
O105 C114 1.240 . S
O106 In104 2.326 . S
O106 C114 1.252 . S
C107 O110 1.252 . S
C107 O111 1.260 1_565 S
C108 O115 1.240 . S
C108 O116 1.252 . S
C109 O112 1.252 . S
C109 O113 1.260 . S
O110 In104 2.266 1_565 S
O110 C107 1.252 . S
O111 In104 2.326 . S
O111 C107 1.260 1_545 S
O112 In104 2.266 . S
O112 C109 1.252 . S
O113 In104 2.326 . S
O113 C109 1.260 . S
C114 O105 1.240 . S
C114 O106 1.252 . S
O115 In104 2.294 . S
O115 C108 1.240 . S
O116 In104 2.326 . S
O116 C108 1.252 . S
In117 O118 2.294 . S
In117 O119 2.326 . S
In117 O123 2.266 . S
In117 O124 2.326 . S
In117 O125 2.266 1_655 S
In117 O126 2.326 . S
In117 O128 2.294 . S
In117 O129 2.326 . S
O118 In117 2.294 . S
O118 C127 1.240 . S
O119 In117 2.326 . S
O119 C127 1.252 . S
C120 O123 1.252 . S
C120 O124 1.260 . S
C121 O128 1.240 . S
C121 O129 1.252 . S
C122 O125 1.252 . S
C122 O126 1.260 1_455 S
O123 In117 2.266 . S
O123 C120 1.252 . S
O124 In117 2.326 . S
O124 C120 1.260 . S
O125 In117 2.266 1_455 S
O125 C122 1.252 . S
O126 In117 2.326 . S
O126 C122 1.260 1_655 S
C127 O118 1.240 . S
C127 O119 1.252 . S
O128 In117 2.294 . S
O128 C121 1.240 . S
O129 In117 2.326 . S
O129 C121 1.252 . S
In130 O131 2.294 . S
In130 O132 2.326 . S
In130 O136 2.266 1_565 S
In130 O137 2.326 . S
In130 O138 2.266 . S
In130 O139 2.326 . S
In130 O141 2.294 . S
In130 O142 2.326 . S
O131 In130 2.294 . S
O131 C140 1.240 . S
O132 In130 2.326 . S
O132 C140 1.252 . S
C133 O136 1.252 . S
C133 O137 1.260 1_545 S
C134 O141 1.240 . S
C134 O142 1.252 . S
C135 O138 1.252 . S
C135 O139 1.260 . S
O136 In130 2.266 1_545 S
O136 C133 1.252 . S
O137 In130 2.326 . S
O137 C133 1.260 1_565 S
O138 In130 2.266 . S
O138 C135 1.252 . S
O139 In130 2.326 . S
O139 C135 1.260 . S
C140 O131 1.240 . S
C140 O132 1.252 . S
O141 In130 2.294 . S
O141 C134 1.240 . S
O142 In130 2.326 . S
O142 C134 1.252 . S
In143 O144 2.294 . S
In143 O145 2.326 . S
In143 O149 2.266 . S
In143 O150 2.326 . S
In143 O151 2.266 1_455 S
In143 O152 2.326 . S
In143 O154 2.294 . S
In143 O155 2.326 . S
O144 In143 2.294 . S
O144 C153 1.240 . S
O145 In143 2.326 . S
O145 C153 1.252 . S
C146 O149 1.252 . S
C146 O150 1.260 . S
C147 O154 1.240 . S
C147 O155 1.252 . S
C148 O151 1.252 . S
C148 O152 1.260 1_655 S
O149 In143 2.266 . S
O149 C146 1.252 . S
O150 In143 2.326 . S
O150 C146 1.260 . S
O151 In143 2.266 1_655 S
O151 C148 1.252 . S
O152 In143 2.326 . S
O152 C148 1.260 1_455 S
C153 O144 1.240 . S
C153 O145 1.252 . S
O154 In143 2.294 . S
O154 C147 1.240 . S
O155 In143 2.326 . S
O155 C147 1.252 . S
In156 O157 2.294 . S
In156 O158 2.326 . S
In156 O162 2.266 . S
In156 O163 2.326 . S
In156 O164 2.266 1_565 S
In156 O165 2.326 . S
In156 O167 2.294 . S
In156 O168 2.326 . S
O157 In156 2.294 . S
O157 C166 1.240 . S
O158 In156 2.326 . S
O158 C166 1.252 . S
C159 O162 1.252 . S
C159 O163 1.260 . S
C160 O167 1.240 . S
C160 O168 1.252 . S
C161 O164 1.252 . S
C161 O165 1.260 1_545 S
O162 In156 2.266 . S
O162 C159 1.252 . S
O163 In156 2.326 . S
O163 C159 1.260 . S
O164 In156 2.266 1_545 S
O164 C161 1.252 . S
O165 In156 2.326 . S
O165 C161 1.260 1_565 S
C166 O157 1.240 . S
C166 O158 1.252 . S
O167 In156 2.294 . S
O167 C160 1.240 . S
O168 In156 2.326 . S
O168 C160 1.252 . S
In169 O170 2.294 . S
In169 O171 2.326 . S
In169 O175 2.266 1_455 S
In169 O176 2.326 . S
In169 O177 2.266 . S
In169 O178 2.326 . S
In169 O180 2.294 . S
In169 O181 2.326 . S
O170 In169 2.294 . S
O170 C179 1.240 . S
O171 In169 2.326 . S
O171 C179 1.252 . S
C172 O175 1.252 . S
C172 O176 1.260 1_655 S
C173 O180 1.240 . S
C173 O181 1.252 . S
C174 O177 1.252 . S
C174 O178 1.260 . S
O175 In169 2.266 1_655 S
O175 C172 1.252 . S
O176 In169 2.326 . S
O176 C172 1.260 1_455 S
O177 In169 2.266 . S
O177 C174 1.252 . S
O178 In169 2.326 . S
O178 C174 1.260 . S
C179 O170 1.240 . S
C179 O171 1.252 . S
O180 In169 2.294 . S
O180 C173 1.240 . S
O181 In169 2.326 . S
O181 C173 1.252 . S
In182 O183 2.294 . S
In182 O184 2.326 . S
In182 O188 2.266 1_545 S
In182 O189 2.326 . S
In182 O190 2.266 . S
In182 O191 2.326 . S
In182 O193 2.294 . S
In182 O194 2.326 . S
O183 In182 2.294 . S
O183 C192 1.240 . S
O184 In182 2.326 . S
O184 C192 1.252 . S
C185 O188 1.252 . S
C185 O189 1.260 1_565 S
C186 O193 1.240 . S
C186 O194 1.252 . S
C187 O190 1.252 . S
C187 O191 1.260 . S
O188 In182 2.266 1_565 S
O188 C185 1.252 . S
O189 In182 2.326 . S
O189 C185 1.260 1_545 S
O190 In182 2.266 . S
O190 C187 1.252 . S
O191 In182 2.326 . S
O191 C187 1.260 . S
C192 O183 1.240 . S
C192 O184 1.252 . S
O193 In182 2.294 . S
O193 C186 1.240 . S
O194 In182 2.326 . S
O194 C186 1.252 . S
In195 O196 2.294 . S
In195 O197 2.326 . S
In195 O201 2.266 . S
In195 O202 2.326 . S
In195 O203 2.266 1_655 S
In195 O204 2.326 . S
In195 O206 2.294 . S
In195 O207 2.326 . S
O196 In195 2.294 . S
O196 C205 1.240 . S
O197 In195 2.326 . S
O197 C205 1.252 . S
C198 O201 1.252 . S
C198 O202 1.260 . S
C199 O206 1.240 . S
C199 O207 1.252 . S
C200 O203 1.252 . S
C200 O204 1.260 1_455 S
O201 In195 2.266 . S
O201 C198 1.252 . S
O202 In195 2.326 . S
O202 C198 1.260 . S
O203 In195 2.266 1_455 S
O203 C200 1.252 . S
O204 In195 2.326 . S
O204 C200 1.260 1_655 S
C205 O196 1.240 . S
C205 O197 1.252 . S
O206 In195 2.294 . S
O206 C199 1.240 . S
O207 In195 2.326 . S
O207 C199 1.252 . S
In208 O209 2.294 . S
In208 O210 2.326 . S
In208 O214 2.266 . S
In208 O215 2.326 . S
In208 O216 2.266 1_554 S
In208 O217 2.326 . S
In208 O219 2.294 . S
In208 O220 2.326 . S
O209 In208 2.294 . S
O209 C218 1.240 . S
O210 In208 2.326 . S
O210 C218 1.252 . S
C211 O214 1.252 . S
C211 O215 1.260 . S
C212 O219 1.240 . S
C212 O220 1.252 . S
C213 O216 1.252 . S
C213 O217 1.260 1_556 S
O214 In208 2.266 . S
O214 C211 1.252 . S
O215 In208 2.326 . S
O215 C211 1.260 . S
O216 In208 2.266 1_556 S
O216 C213 1.252 . S
O217 In208 2.326 . S
O217 C213 1.260 1_554 S
C218 O209 1.240 . S
C218 O210 1.252 . S
O219 In208 2.294 . S
O219 C212 1.240 . S
O220 In208 2.326 . S
O220 C212 1.252 . S
In221 O222 2.294 . S
In221 O223 2.326 . S
In221 O227 2.266 . S
In221 O228 2.326 . S
In221 O229 2.266 1_556 S
In221 O230 2.326 . S
In221 O232 2.294 . S
In221 O233 2.326 . S
O222 In221 2.294 . S
O222 C231 1.240 . S
O223 In221 2.326 . S
O223 C231 1.252 . S
C224 O227 1.252 . S
C224 O228 1.260 . S
C225 O232 1.240 . S
C225 O233 1.252 . S
C226 O229 1.252 . S
C226 O230 1.260 1_554 S
O227 In221 2.266 . S
O227 C224 1.252 . S
O228 In221 2.326 . S
O228 C224 1.260 . S
O229 In221 2.266 1_554 S
O229 C226 1.252 . S
O230 In221 2.326 . S
O230 C226 1.260 1_556 S
C231 O222 1.240 . S
C231 O223 1.252 . S
O232 In221 2.294 . S
O232 C225 1.240 . S
O233 In221 2.326 . S
O233 C225 1.252 . S
In234 O235 2.294 . S
In234 O236 2.326 . S
In234 O240 2.266 . S
In234 O241 2.326 . S
In234 O242 2.266 1_556 S
In234 O243 2.326 . S
In234 O245 2.294 . S
In234 O246 2.326 . S
O235 In234 2.294 . S
O235 C244 1.240 . S
O236 In234 2.326 . S
O236 C244 1.252 . S
C237 O240 1.252 . S
C237 O241 1.260 . S
C238 O245 1.240 . S
C238 O246 1.252 . S
C239 O242 1.252 . S
C239 O243 1.260 1_554 S
O240 In234 2.266 . S
O240 C237 1.252 . S
O241 In234 2.326 . S
O241 C237 1.260 . S
O242 In234 2.266 1_554 S
O242 C239 1.252 . S
O243 In234 2.326 . S
O243 C239 1.260 1_556 S
C244 O235 1.240 . S
C244 O236 1.252 . S
O245 In234 2.294 . S
O245 C238 1.240 . S
O246 In234 2.326 . S
O246 C238 1.252 . S
In247 O248 2.294 . S
In247 O249 2.326 . S
In247 O253 2.266 1_556 S
In247 O254 2.326 . S
In247 O255 2.266 . S
In247 O256 2.326 . S
In247 O258 2.294 . S
In247 O259 2.326 . S
O248 In247 2.294 . S
O248 C257 1.240 . S
O249 In247 2.326 . S
O249 C257 1.252 . S
C250 O253 1.252 . S
C250 O254 1.260 1_554 S
C251 O258 1.240 . S
C251 O259 1.252 . S
C252 O255 1.252 . S
C252 O256 1.260 . S
O253 In247 2.266 1_554 S
O253 C250 1.252 . S
O254 In247 2.326 . S
O254 C250 1.260 1_556 S
O255 In247 2.266 . S
O255 C252 1.252 . S
O256 In247 2.326 . S
O256 C252 1.260 . S
C257 O248 1.240 . S
C257 O249 1.252 . S
O258 In247 2.294 . S
O258 C251 1.240 . S
O259 In247 2.326 . S
O259 C251 1.252 . S
In260 O261 2.294 . S
In260 O262 2.326 . S
In260 O266 2.266 1_556 S
In260 O267 2.326 . S
In260 O268 2.266 . S
In260 O269 2.326 . S
In260 O271 2.294 . S
In260 O272 2.326 . S
O261 In260 2.294 . S
O261 C270 1.240 . S
O262 In260 2.326 . S
O262 C270 1.252 . S
C263 O266 1.252 . S
C263 O267 1.260 1_554 S
C264 O271 1.240 . S
C264 O272 1.252 . S
C265 O268 1.252 . S
C265 O269 1.260 . S
O266 In260 2.266 1_554 S
O266 C263 1.252 . S
O267 In260 2.326 . S
O267 C263 1.260 1_556 S
O268 In260 2.266 . S
O268 C265 1.252 . S
O269 In260 2.326 . S
O269 C265 1.260 . S
C270 O261 1.240 . S
C270 O262 1.252 . S
O271 In260 2.294 . S
O271 C264 1.240 . S
O272 In260 2.326 . S
O272 C264 1.252 . S
In273 O274 2.294 . S
In273 O275 2.326 . S
In273 O279 2.266 . S
In273 O280 2.326 . S
In273 O281 2.266 1_554 S
In273 O282 2.326 . S
In273 O284 2.294 . S
In273 O285 2.326 . S
O274 In273 2.294 . S
O274 C283 1.240 . S
O275 In273 2.326 . S
O275 C283 1.252 . S
C276 O279 1.252 . S
C276 O280 1.260 . S
C277 O284 1.240 . S
C277 O285 1.252 . S
C278 O281 1.252 . S
C278 O282 1.260 1_556 S
O279 In273 2.266 . S
O279 C276 1.252 . S
O280 In273 2.326 . S
O280 C276 1.260 . S
O281 In273 2.266 1_556 S
O281 C278 1.252 . S
O282 In273 2.326 . S
O282 C278 1.260 1_554 S
C283 O274 1.240 . S
C283 O275 1.252 . S
O284 In273 2.294 . S
O284 C277 1.240 . S
O285 In273 2.326 . S
O285 C277 1.252 . S
In286 O287 2.294 . S
In286 O288 2.326 . S
In286 O292 2.266 1_554 S
In286 O293 2.326 . S
In286 O294 2.266 . S
In286 O295 2.326 . S
In286 O297 2.294 . S
In286 O298 2.326 . S
O287 In286 2.294 . S
O287 C296 1.240 . S
O288 In286 2.326 . S
O288 C296 1.252 . S
C289 O292 1.252 . S
C289 O293 1.260 1_556 S
C290 O297 1.240 . S
C290 O298 1.252 . S
C291 O294 1.252 . S
C291 O295 1.260 . S
O292 In286 2.266 1_556 S
O292 C289 1.252 . S
O293 In286 2.326 . S
O293 C289 1.260 1_554 S
O294 In286 2.266 . S
O294 C291 1.252 . S
O295 In286 2.326 . S
O295 C291 1.260 . S
C296 O287 1.240 . S
C296 O288 1.252 . S
O297 In286 2.294 . S
O297 C290 1.240 . S
O298 In286 2.326 . S
O298 C290 1.252 . S
In299 O300 2.294 . S
In299 O301 2.326 . S
In299 O305 2.266 . S
In299 O306 2.326 . S
In299 O307 2.266 1_554 S
In299 O308 2.326 . S
In299 O310 2.294 . S
In299 O311 2.326 . S
O300 In299 2.294 . S
O300 C309 1.240 . S
O301 In299 2.326 . S
O301 C309 1.252 . S
C302 O305 1.252 . S
C302 O306 1.260 . S
C303 O310 1.240 . S
C303 O311 1.252 . S
C304 O307 1.252 . S
C304 O308 1.260 1_556 S
O305 In299 2.266 . S
O305 C302 1.252 . S
O306 In299 2.326 . S
O306 C302 1.260 . S
O307 In299 2.266 1_556 S
O307 C304 1.252 . S
O308 In299 2.326 . S
O308 C304 1.260 1_554 S
C309 O300 1.240 . S
C309 O301 1.252 . S
O310 In299 2.294 . S
O310 C303 1.240 . S
O311 In299 2.326 . S
O311 C303 1.252 . S
In312 O313 2.294 . S
In312 O314 2.326 . S
In312 O318 2.266 . S
In312 O319 2.326 . S
In312 O320 2.266 . S
In312 O321 2.326 . S
In312 O323 2.294 . S
In312 O324 2.326 . S
O313 In312 2.294 . S
O313 C322 1.240 . S
O314 In312 2.326 . S
O314 C322 1.252 . S
C315 O318 1.252 . S
C315 O319 1.260 . S
C316 O323 1.240 . S
C316 O324 1.252 . S
C317 O320 1.252 . S
C317 O321 1.260 . S
O318 In312 2.266 . S
O318 C315 1.252 . S
O319 In312 2.326 . S
O319 C315 1.260 . S
O320 In312 2.266 . S
O320 C317 1.252 . S
O321 In312 2.326 . S
O321 C317 1.260 . S
C322 O313 1.240 . S
C322 O314 1.252 . S
O323 In312 2.294 . S
O323 C316 1.240 . S
O324 In312 2.326 . S
O324 C316 1.252 . S
In325 O326 2.294 . S
In325 O327 2.326 . S
In325 O331 2.266 . S
In325 O332 2.326 . S
In325 O333 2.266 . S
In325 O334 2.326 . S
In325 O336 2.294 . S
In325 O337 2.326 . S
O326 In325 2.294 . S
O326 C335 1.240 . S
O327 In325 2.326 . S
O327 C335 1.252 . S
C328 O331 1.252 . S
C328 O332 1.260 . S
C329 O336 1.240 . S
C329 O337 1.252 . S
C330 O333 1.252 . S
C330 O334 1.260 . S
O331 In325 2.266 . S
O331 C328 1.252 . S
O332 In325 2.326 . S
O332 C328 1.260 . S
O333 In325 2.266 . S
O333 C330 1.252 . S
O334 In325 2.326 . S
O334 C330 1.260 . S
C335 O326 1.240 . S
C335 O327 1.252 . S
O336 In325 2.294 . S
O336 C329 1.240 . S
O337 In325 2.326 . S
O337 C329 1.252 . S
In338 O339 2.294 . S
In338 O340 2.326 . S
In338 O344 2.266 . S
In338 O345 2.326 . S
In338 O346 2.266 . S
In338 O347 2.326 . S
In338 O349 2.294 . S
In338 O350 2.326 . S
O339 In338 2.294 . S
O339 C348 1.240 . S
O340 In338 2.326 . S
O340 C348 1.252 . S
C341 O344 1.252 . S
C341 O345 1.260 . S
C342 O349 1.240 . S
C342 O350 1.252 . S
C343 O346 1.252 . S
C343 O347 1.260 . S
O344 In338 2.266 . S
O344 C341 1.252 . S
O345 In338 2.326 . S
O345 C341 1.260 . S
O346 In338 2.266 . S
O346 C343 1.252 . S
O347 In338 2.326 . S
O347 C343 1.260 . S
C348 O339 1.240 . S
C348 O340 1.252 . S
O349 In338 2.294 . S
O349 C342 1.240 . S
O350 In338 2.326 . S
O350 C342 1.252 . S
In351 O352 2.294 . S
In351 O353 2.326 . S
In351 O357 2.266 . S
In351 O358 2.326 . S
In351 O359 2.266 . S
In351 O360 2.326 . S
In351 O362 2.294 . S
In351 O363 2.326 . S
O352 In351 2.294 . S
O352 C361 1.240 . S
O353 In351 2.326 . S
O353 C361 1.252 . S
C354 O357 1.252 . S
C354 O358 1.260 . S
C355 O362 1.240 . S
C355 O363 1.252 . S
C356 O359 1.252 . S
C356 O360 1.260 . S
O357 In351 2.266 . S
O357 C354 1.252 . S
O358 In351 2.326 . S
O358 C354 1.260 . S
O359 In351 2.266 . S
O359 C356 1.252 . S
O360 In351 2.326 . S
O360 C356 1.260 . S
C361 O352 1.240 . S
C361 O353 1.252 . S
O362 In351 2.294 . S
O362 C355 1.240 . S
O363 In351 2.326 . S
O363 C355 1.252 . S
In364 O365 2.294 . S
In364 O366 2.326 . S
In364 O370 2.266 . S
In364 O371 2.326 . S
In364 O372 2.266 . S
In364 O373 2.326 . S
In364 O375 2.294 . S
In364 O376 2.326 . S
O365 In364 2.294 . S
O365 C374 1.240 . S
O366 In364 2.326 . S
O366 C374 1.252 . S
C367 O370 1.252 . S
C367 O371 1.260 . S
C368 O375 1.240 . S
C368 O376 1.252 . S
C369 O372 1.252 . S
C369 O373 1.260 . S
O370 In364 2.266 . S
O370 C367 1.252 . S
O371 In364 2.326 . S
O371 C367 1.260 . S
O372 In364 2.266 . S
O372 C369 1.252 . S
O373 In364 2.326 . S
O373 C369 1.260 . S
C374 O365 1.240 . S
C374 O366 1.252 . S
O375 In364 2.294 . S
O375 C368 1.240 . S
O376 In364 2.326 . S
O376 C368 1.252 . S
In377 O378 2.294 . S
In377 O379 2.326 . S
In377 O383 2.266 . S
In377 O384 2.326 . S
In377 O385 2.266 . S
In377 O386 2.326 . S
In377 O388 2.294 . S
In377 O389 2.326 . S
O378 In377 2.294 . S
O378 C387 1.240 . S
O379 In377 2.326 . S
O379 C387 1.252 . S
C380 O383 1.252 . S
C380 O384 1.260 . S
C381 O388 1.240 . S
C381 O389 1.252 . S
C382 O385 1.252 . S
C382 O386 1.260 . S
O383 In377 2.266 . S
O383 C380 1.252 . S
O384 In377 2.326 . S
O384 C380 1.260 . S
O385 In377 2.266 . S
O385 C382 1.252 . S
O386 In377 2.326 . S
O386 C382 1.260 . S
C387 O378 1.240 . S
C387 O379 1.252 . S
O388 In377 2.294 . S
O388 C381 1.240 . S
O389 In377 2.326 . S
O389 C381 1.252 . S
In390 O391 2.294 . S
In390 O392 2.326 . S
In390 O396 2.266 . S
In390 O397 2.326 . S
In390 O398 2.266 . S
In390 O399 2.326 . S
In390 O401 2.294 . S
In390 O402 2.326 . S
O391 In390 2.294 . S
O391 C400 1.240 . S
O392 In390 2.326 . S
O392 C400 1.252 . S
C393 O396 1.252 . S
C393 O397 1.260 . S
C394 O401 1.240 . S
C394 O402 1.252 . S
C395 O398 1.252 . S
C395 O399 1.260 . S
O396 In390 2.266 . S
O396 C393 1.252 . S
O397 In390 2.326 . S
O397 C393 1.260 . S
O398 In390 2.266 . S
O398 C395 1.252 . S
O399 In390 2.326 . S
O399 C395 1.260 . S
C400 O391 1.240 . S
C400 O392 1.252 . S
O401 In390 2.294 . S
O401 C394 1.240 . S
O402 In390 2.326 . S
O402 C394 1.252 . S
In403 O404 2.294 . S
In403 O405 2.326 . S
In403 O409 2.266 . S
In403 O410 2.326 . S
In403 O411 2.266 . S
In403 O412 2.326 . S
In403 O414 2.294 . S
In403 O415 2.326 . S
O404 In403 2.294 . S
O404 C413 1.240 . S
O405 In403 2.326 . S
O405 C413 1.252 . S
C406 O409 1.252 . S
C406 O410 1.260 . S
C407 O414 1.240 . S
C407 O415 1.252 . S
C408 O411 1.252 . S
C408 O412 1.260 . S
O409 In403 2.266 . S
O409 C406 1.252 . S
O410 In403 2.326 . S
O410 C406 1.260 . S
O411 In403 2.266 . S
O411 C408 1.252 . S
O412 In403 2.326 . S
O412 C408 1.260 . S
C413 O404 1.240 . S
C413 O405 1.252 . S
O414 In403 2.294 . S
O414 C407 1.240 . S
O415 In403 2.326 . S
O415 C407 1.252 . S
In416 O417 2.294 . S
In416 O418 2.326 . S
In416 O422 2.266 . S
In416 O423 2.326 . S
In416 O424 2.266 . S
In416 O425 2.326 . S
In416 O427 2.294 . S
In416 O428 2.326 . S
O417 In416 2.294 . S
O417 C426 1.240 . S
O418 In416 2.326 . S
O418 C426 1.252 . S
C419 O422 1.252 . S
C419 O423 1.260 . S
C420 O427 1.240 . S
C420 O428 1.252 . S
C421 O424 1.252 . S
C421 O425 1.260 . S
O422 In416 2.266 . S
O422 C419 1.252 . S
O423 In416 2.326 . S
O423 C419 1.260 . S
O424 In416 2.266 . S
O424 C421 1.252 . S
O425 In416 2.326 . S
O425 C421 1.260 . S
C426 O417 1.240 . S
C426 O418 1.252 . S
O427 In416 2.294 . S
O427 C420 1.240 . S
O428 In416 2.326 . S
O428 C420 1.252 . S
In429 O430 2.294 . S
In429 O431 2.326 . S
In429 O435 2.266 . S
In429 O436 2.326 . S
In429 O437 2.266 . S
In429 O438 2.326 . S
In429 O440 2.294 . S
In429 O441 2.326 . S
O430 In429 2.294 . S
O430 C439 1.240 . S
O431 In429 2.326 . S
O431 C439 1.252 . S
C432 O435 1.252 . S
C432 O436 1.260 . S
C433 O440 1.240 . S
C433 O441 1.252 . S
C434 O437 1.252 . S
C434 O438 1.260 . S
O435 In429 2.266 . S
O435 C432 1.252 . S
O436 In429 2.326 . S
O436 C432 1.260 . S
O437 In429 2.266 . S
O437 C434 1.252 . S
O438 In429 2.326 . S
O438 C434 1.260 . S
C439 O430 1.240 . S
C439 O431 1.252 . S
O440 In429 2.294 . S
O440 C433 1.240 . S
O441 In429 2.326 . S
O441 C433 1.252 . S
In442 O443 2.294 . S
In442 O444 2.326 . S
In442 O448 2.266 . S
In442 O449 2.326 . S
In442 O450 2.266 . S
In442 O451 2.326 . S
In442 O453 2.294 . S
In442 O454 2.326 . S
O443 In442 2.294 . S
O443 C452 1.240 . S
O444 In442 2.326 . S
O444 C452 1.252 . S
C445 O448 1.252 . S
C445 O449 1.260 . S
C446 O453 1.240 . S
C446 O454 1.252 . S
C447 O450 1.252 . S
C447 O451 1.260 . S
O448 In442 2.266 . S
O448 C445 1.252 . S
O449 In442 2.326 . S
O449 C445 1.260 . S
O450 In442 2.266 . S
O450 C447 1.252 . S
O451 In442 2.326 . S
O451 C447 1.260 . S
C452 O443 1.240 . S
C452 O444 1.252 . S
O453 In442 2.294 . S
O453 C446 1.240 . S
O454 In442 2.326 . S
O454 C446 1.252 . S
In455 O456 2.294 . S
In455 O457 2.326 . S
In455 O461 2.266 . S
In455 O462 2.326 . S
In455 O463 2.266 . S
In455 O464 2.326 . S
In455 O466 2.294 . S
In455 O467 2.326 . S
O456 In455 2.294 . S
O456 C465 1.240 . S
O457 In455 2.326 . S
O457 C465 1.252 . S
C458 O461 1.252 . S
C458 O462 1.260 . S
C459 O466 1.240 . S
C459 O467 1.252 . S
C460 O463 1.252 . S
C460 O464 1.260 . S
O461 In455 2.266 . S
O461 C458 1.252 . S
O462 In455 2.326 . S
O462 C458 1.260 . S
O463 In455 2.266 . S
O463 C460 1.252 . S
O464 In455 2.326 . S
O464 C460 1.260 . S
C465 O456 1.240 . S
C465 O457 1.252 . S
O466 In455 2.294 . S
O466 C459 1.240 . S
O467 In455 2.326 . S
O467 C459 1.252 . S
In468 O469 2.294 . S
In468 O470 2.326 . S
In468 O474 2.266 . S
In468 O475 2.326 . S
In468 O476 2.266 . S
In468 O477 2.326 . S
In468 O479 2.294 . S
In468 O480 2.326 . S
O469 In468 2.294 . S
O469 C478 1.240 . S
O470 In468 2.326 . S
O470 C478 1.252 . S
C471 O474 1.252 . S
C471 O475 1.260 . S
C472 O479 1.240 . S
C472 O480 1.252 . S
C473 O476 1.252 . S
C473 O477 1.260 . S
O474 In468 2.266 . S
O474 C471 1.252 . S
O475 In468 2.326 . S
O475 C471 1.260 . S
O476 In468 2.266 . S
O476 C473 1.252 . S
O477 In468 2.326 . S
O477 C473 1.260 . S
C478 O469 1.240 . S
C478 O470 1.252 . S
O479 In468 2.294 . S
O479 C472 1.240 . S
O480 In468 2.326 . S
O480 C472 1.252 . S
In481 O482 2.294 . S
In481 O483 2.326 . S
In481 O487 2.266 . S
In481 O488 2.326 . S
In481 O489 2.266 . S
In481 O490 2.326 . S
In481 O492 2.294 . S
In481 O493 2.326 . S
O482 In481 2.294 . S
O482 C491 1.240 . S
O483 In481 2.326 . S
O483 C491 1.252 . S
C484 O487 1.252 . S
C484 O488 1.260 . S
C485 O492 1.240 . S
C485 O493 1.252 . S
C486 O489 1.252 . S
C486 O490 1.260 . S
O487 In481 2.266 . S
O487 C484 1.252 . S
O488 In481 2.326 . S
O488 C484 1.260 . S
O489 In481 2.266 . S
O489 C486 1.252 . S
O490 In481 2.326 . S
O490 C486 1.260 . S
C491 O482 1.240 . S
C491 O483 1.252 . S
O492 In481 2.294 . S
O492 C485 1.240 . S
O493 In481 2.326 . S
O493 C485 1.252 . S
In494 O495 2.294 . S
In494 O496 2.326 . S
In494 O500 2.266 . S
In494 O501 2.326 . S
In494 O502 2.266 . S
In494 O503 2.326 . S
In494 O505 2.294 . S
In494 O506 2.326 . S
O495 In494 2.294 . S
O495 C504 1.240 . S
O496 In494 2.326 . S
O496 C504 1.252 . S
C497 O500 1.252 . S
C497 O501 1.260 . S
C498 O505 1.240 . S
C498 O506 1.252 . S
C499 O502 1.252 . S
C499 O503 1.260 . S
O500 In494 2.266 . S
O500 C497 1.252 . S
O501 In494 2.326 . S
O501 C497 1.260 . S
O502 In494 2.266 . S
O502 C499 1.252 . S
O503 In494 2.326 . S
O503 C499 1.260 . S
C504 O495 1.240 . S
C504 O496 1.252 . S
O505 In494 2.294 . S
O505 C498 1.240 . S
O506 In494 2.326 . S
O506 C498 1.252 . S
In507 O508 2.294 . S
In507 O509 2.326 . S
In507 O513 2.266 . S
In507 O514 2.326 . S
In507 O515 2.266 . S
In507 O516 2.326 . S
In507 O518 2.294 . S
In507 O519 2.326 . S
O508 In507 2.294 . S
O508 C517 1.240 . S
O509 In507 2.326 . S
O509 C517 1.252 . S
C510 O513 1.252 . S
C510 O514 1.260 . S
C511 O518 1.240 . S
C511 O519 1.252 . S
C512 O515 1.252 . S
C512 O516 1.260 . S
O513 In507 2.266 . S
O513 C510 1.252 . S
O514 In507 2.326 . S
O514 C510 1.260 . S
O515 In507 2.266 . S
O515 C512 1.252 . S
O516 In507 2.326 . S
O516 C512 1.260 . S
C517 O508 1.240 . S
C517 O509 1.252 . S
O518 In507 2.294 . S
O518 C511 1.240 . S
O519 In507 2.326 . S
O519 C511 1.252 . S
In520 O521 2.294 . S
In520 O522 2.326 . S
In520 O526 2.266 . S
In520 O527 2.326 . S
In520 O528 2.266 . S
In520 O529 2.326 . S
In520 O531 2.294 . S
In520 O532 2.326 . S
O521 In520 2.294 . S
O521 C530 1.240 . S
O522 In520 2.326 . S
O522 C530 1.252 . S
C523 O526 1.252 . S
C523 O527 1.260 . S
C524 O531 1.240 . S
C524 O532 1.252 . S
C525 O528 1.252 . S
C525 O529 1.260 . S
O526 In520 2.266 . S
O526 C523 1.252 . S
O527 In520 2.326 . S
O527 C523 1.260 . S
O528 In520 2.266 . S
O528 C525 1.252 . S
O529 In520 2.326 . S
O529 C525 1.260 . S
C530 O521 1.240 . S
C530 O522 1.252 . S
O531 In520 2.294 . S
O531 C524 1.240 . S
O532 In520 2.326 . S
O532 C524 1.252 . S
In533 O534 2.294 . S
In533 O535 2.326 . S
In533 O539 2.266 . S
In533 O540 2.326 . S
In533 O541 2.266 . S
In533 O542 2.326 . S
In533 O544 2.294 . S
In533 O545 2.326 . S
O534 In533 2.294 . S
O534 C543 1.240 . S
O535 In533 2.326 . S
O535 C543 1.252 . S
C536 O539 1.252 . S
C536 O540 1.260 . S
C537 O544 1.240 . S
C537 O545 1.252 . S
C538 O541 1.252 . S
C538 O542 1.260 . S
O539 In533 2.266 . S
O539 C536 1.252 . S
O540 In533 2.326 . S
O540 C536 1.260 . S
O541 In533 2.266 . S
O541 C538 1.252 . S
O542 In533 2.326 . S
O542 C538 1.260 . S
C543 O534 1.240 . S
C543 O535 1.252 . S
O544 In533 2.294 . S
O544 C537 1.240 . S
O545 In533 2.326 . S
O545 C537 1.252 . S
In546 O547 2.294 . S
In546 O548 2.326 . S
In546 O552 2.266 . S
In546 O553 2.326 . S
In546 O554 2.266 . S
In546 O555 2.326 . S
In546 O557 2.294 . S
In546 O558 2.326 . S
O547 In546 2.294 . S
O547 C556 1.240 . S
O548 In546 2.326 . S
O548 C556 1.252 . S
C549 O552 1.252 . S
C549 O553 1.260 . S
C550 O557 1.240 . S
C550 O558 1.252 . S
C551 O554 1.252 . S
C551 O555 1.260 . S
O552 In546 2.266 . S
O552 C549 1.252 . S
O553 In546 2.326 . S
O553 C549 1.260 . S
O554 In546 2.266 . S
O554 C551 1.252 . S
O555 In546 2.326 . S
O555 C551 1.260 . S
C556 O547 1.240 . S
C556 O548 1.252 . S
O557 In546 2.294 . S
O557 C550 1.240 . S
O558 In546 2.326 . S
O558 C550 1.252 . S
In559 O560 2.294 . S
In559 O561 2.326 . S
In559 O565 2.266 . S
In559 O566 2.326 . S
In559 O567 2.266 . S
In559 O568 2.326 . S
In559 O570 2.294 . S
In559 O571 2.326 . S
O560 In559 2.294 . S
O560 C569 1.240 . S
O561 In559 2.326 . S
O561 C569 1.252 . S
C562 O565 1.252 . S
C562 O566 1.260 . S
C563 O570 1.240 . S
C563 O571 1.252 . S
C564 O567 1.252 . S
C564 O568 1.260 . S
O565 In559 2.266 . S
O565 C562 1.252 . S
O566 In559 2.326 . S
O566 C562 1.260 . S
O567 In559 2.266 . S
O567 C564 1.252 . S
O568 In559 2.326 . S
O568 C564 1.260 . S
C569 O560 1.240 . S
C569 O561 1.252 . S
O570 In559 2.294 . S
O570 C563 1.240 . S
O571 In559 2.326 . S
O571 C563 1.252 . S
In572 O573 2.294 . S
In572 O574 2.326 . S
In572 O578 2.266 . S
In572 O579 2.326 . S
In572 O580 2.266 . S
In572 O581 2.326 . S
In572 O583 2.294 . S
In572 O584 2.326 . S
O573 In572 2.294 . S
O573 C582 1.240 . S
O574 In572 2.326 . S
O574 C582 1.252 . S
C575 O578 1.252 . S
C575 O579 1.260 . S
C576 O583 1.240 . S
C576 O584 1.252 . S
C577 O580 1.252 . S
C577 O581 1.260 . S
O578 In572 2.266 . S
O578 C575 1.252 . S
O579 In572 2.326 . S
O579 C575 1.260 . S
O580 In572 2.266 . S
O580 C577 1.252 . S
O581 In572 2.326 . S
O581 C577 1.260 . S
C582 O573 1.240 . S
C582 O574 1.252 . S
O583 In572 2.294 . S
O583 C576 1.240 . S
O584 In572 2.326 . S
O584 C576 1.252 . S
In585 O586 2.294 . S
In585 O587 2.326 . S
In585 O591 2.266 . S
In585 O592 2.326 . S
In585 O593 2.266 . S
In585 O594 2.326 . S
In585 O596 2.294 . S
In585 O597 2.326 . S
O586 In585 2.294 . S
O586 C595 1.240 . S
O587 In585 2.326 . S
O587 C595 1.252 . S
C588 O591 1.252 . S
C588 O592 1.260 . S
C589 O596 1.240 . S
C589 O597 1.252 . S
C590 O593 1.252 . S
C590 O594 1.260 . S
O591 In585 2.266 . S
O591 C588 1.252 . S
O592 In585 2.326 . S
O592 C588 1.260 . S
O593 In585 2.266 . S
O593 C590 1.252 . S
O594 In585 2.326 . S
O594 C590 1.260 . S
C595 O586 1.240 . S
C595 O587 1.252 . S
O596 In585 2.294 . S
O596 C589 1.240 . S
O597 In585 2.326 . S
O597 C589 1.252 . S
In598 O599 2.294 . S
In598 O600 2.326 . S
In598 O604 2.266 . S
In598 O605 2.326 . S
In598 O606 2.266 . S
In598 O607 2.326 . S
In598 O609 2.294 . S
In598 O610 2.326 . S
O599 In598 2.294 . S
O599 C608 1.240 . S
O600 In598 2.326 . S
O600 C608 1.252 . S
C601 O604 1.252 . S
C601 O605 1.260 . S
C602 O609 1.240 . S
C602 O610 1.252 . S
C603 O606 1.252 . S
C603 O607 1.260 . S
O604 In598 2.266 . S
O604 C601 1.252 . S
O605 In598 2.326 . S
O605 C601 1.260 . S
O606 In598 2.266 . S
O606 C603 1.252 . S
O607 In598 2.326 . S
O607 C603 1.260 . S
C608 O599 1.240 . S
C608 O600 1.252 . S
O609 In598 2.294 . S
O609 C602 1.240 . S
O610 In598 2.326 . S
O610 C602 1.252 . S
In611 O612 2.294 . S
In611 O613 2.326 . S
In611 O617 2.266 . S
In611 O618 2.326 . S
In611 O619 2.266 . S
In611 O620 2.326 . S
In611 O622 2.294 . S
In611 O623 2.326 . S
O612 In611 2.294 . S
O612 C621 1.240 . S
O613 In611 2.326 . S
O613 C621 1.252 . S
C614 O617 1.252 . S
C614 O618 1.260 . S
C615 O622 1.240 . S
C615 O623 1.252 . S
C616 O619 1.252 . S
C616 O620 1.260 . S
O617 In611 2.266 . S
O617 C614 1.252 . S
O618 In611 2.326 . S
O618 C614 1.260 . S
O619 In611 2.266 . S
O619 C616 1.252 . S
O620 In611 2.326 . S
O620 C616 1.260 . S
C621 O612 1.240 . S
C621 O613 1.252 . S
O622 In611 2.294 . S
O622 C615 1.240 . S
O623 In611 2.326 . S
O623 C615 1.252 . S
C624 C625 1.391 . S
C624 C626 1.394 . S
C624 H640 0.931 . S
C625 C624 1.391 . S
C625 C629 1.376 . S
C626 C624 1.394 . S
C626 C627 1.369 . S
C626 C630 1.531 . S
C627 C626 1.369 . S
C627 C628 1.410 . S
C627 C635 1.503 . S
C628 C627 1.410 . S
C628 C629 1.392 . S
C628 C631 1.511 . S
C629 C625 1.376 . S
C629 C628 1.392 . S
C629 H641 0.929 . S
C630 C626 1.531 . S
C630 H642 0.960 . S
C630 H643 0.962 . S
C630 H644 0.960 . S
C631 C628 1.511 . S
C631 H645 0.961 . S
C631 H646 0.961 . S
C631 H647 0.961 . S
C632 C633 1.370 . S
C632 C634 1.363 . S
C632 H648 0.931 . S
C633 C632 1.370 . S
C633 C637 1.408 . S
C634 C632 1.363 . S
C634 C635 1.370 . S
C634 C638 1.524 . S
C635 C627 1.503 . S
C635 C634 1.370 . S
C635 C636 1.403 . S
C636 C635 1.403 . S
C636 C637 1.404 . S
C636 C639 1.539 . S
C637 C633 1.408 . S
C637 C636 1.404 . S
C637 H649 0.930 . S
C638 C634 1.524 . S
C638 H650 0.956 . S
C638 H651 0.961 . S
C638 H652 0.961 . S
C639 C636 1.539 . S
C639 H653 0.958 . S
C639 H654 0.961 . S
C639 H655 0.960 . S
H640 C624 0.931 . S
H641 C629 0.929 . S
H642 C630 0.960 . S
H643 C630 0.962 . S
H644 C630 0.960 . S
H645 C631 0.961 . S
H646 C631 0.961 . S
H647 C631 0.961 . S
H648 C632 0.931 . S
H649 C637 0.930 . S
H650 C638 0.956 . S
H651 C638 0.961 . S
H652 C638 0.961 . S
H653 C639 0.958 . S
H654 C639 0.961 . S
H655 C639 0.960 . S
C656 C657 1.391 . S
C656 C658 1.394 . S
C656 H672 0.931 . S
C657 C656 1.391 . S
C657 C661 1.376 . S
C658 C656 1.394 . S
C658 C659 1.369 . S
C658 C662 1.531 . S
C659 C658 1.369 . S
C659 C660 1.410 . S
C659 C667 1.503 . S
C660 C659 1.410 . S
C660 C661 1.392 . S
C660 C663 1.511 . S
C661 C657 1.376 . S
C661 C660 1.392 . S
C661 H673 0.929 . S
C662 C658 1.531 . S
C662 H674 0.960 . S
C662 H675 0.962 . S
C662 H676 0.960 . S
C663 C660 1.511 . S
C663 H677 0.961 . S
C663 H678 0.961 . S
C663 H679 0.961 . S
C664 C665 1.370 . S
C664 C666 1.363 . S
C664 H680 0.931 . S
C665 C664 1.370 . S
C665 C669 1.408 . S
C666 C664 1.363 . S
C666 C667 1.370 . S
C666 C670 1.524 . S
C667 C659 1.503 . S
C667 C666 1.370 . S
C667 C668 1.403 . S
C668 C667 1.403 . S
C668 C669 1.404 . S
C668 C671 1.539 . S
C669 C665 1.408 . S
C669 C668 1.404 . S
C669 H681 0.930 . S
C670 C666 1.524 . S
C670 H682 0.956 . S
C670 H683 0.961 . S
C670 H684 0.961 . S
C671 C668 1.539 . S
C671 H685 0.958 . S
C671 H686 0.961 . S
C671 H687 0.960 . S
H672 C656 0.931 . S
H673 C661 0.929 . S
H674 C662 0.960 . S
H675 C662 0.962 . S
H676 C662 0.960 . S
H677 C663 0.961 . S
H678 C663 0.961 . S
H679 C663 0.961 . S
H680 C664 0.931 . S
H681 C669 0.930 . S
H682 C670 0.956 . S
H683 C670 0.961 . S
H684 C670 0.961 . S
H685 C671 0.958 . S
H686 C671 0.961 . S
H687 C671 0.960 . S
C688 C689 1.391 . S
C688 C690 1.394 . S
C688 H704 0.931 . S
C689 C688 1.391 . S
C689 C693 1.376 . S
C690 C688 1.394 . S
C690 C691 1.369 . S
C690 C694 1.531 . S
C691 C690 1.369 . S
C691 C692 1.410 . S
C691 C699 1.503 . S
C692 C691 1.410 . S
C692 C693 1.392 . S
C692 C695 1.511 . S
C693 C689 1.376 . S
C693 C692 1.392 . S
C693 H705 0.929 . S
C694 C690 1.531 . S
C694 H706 0.960 . S
C694 H707 0.962 . S
C694 H708 0.960 . S
C695 C692 1.511 . S
C695 H709 0.961 . S
C695 H710 0.961 . S
C695 H711 0.961 . S
C696 C697 1.370 . S
C696 C698 1.363 . S
C696 H712 0.931 . S
C697 C696 1.370 . S
C697 C701 1.408 . S
C698 C696 1.363 . S
C698 C699 1.370 . S
C698 C702 1.524 . S
C699 C691 1.503 . S
C699 C698 1.370 . S
C699 C700 1.403 . S
C700 C699 1.403 . S
C700 C701 1.404 . S
C700 C703 1.539 . S
C701 C697 1.408 . S
C701 C700 1.404 . S
C701 H713 0.930 . S
C702 C698 1.524 . S
C702 H714 0.956 . S
C702 H715 0.961 . S
C702 H716 0.961 . S
C703 C700 1.539 . S
C703 H717 0.958 . S
C703 H718 0.961 . S
C703 H719 0.960 . S
H704 C688 0.931 . S
H705 C693 0.929 . S
H706 C694 0.960 . S
H707 C694 0.962 . S
H708 C694 0.960 . S
H709 C695 0.961 . S
H710 C695 0.961 . S
H711 C695 0.961 . S
H712 C696 0.931 . S
H713 C701 0.930 . S
H714 C702 0.956 . S
H715 C702 0.961 . S
H716 C702 0.961 . S
H717 C703 0.958 . S
H718 C703 0.961 . S
H719 C703 0.960 . S
C720 C721 1.391 . S
C720 C722 1.394 . S
C720 H736 0.931 . S
C721 C720 1.391 . S
C721 C725 1.376 . S
C722 C720 1.394 . S
C722 C723 1.369 . S
C722 C726 1.531 . S
C723 C722 1.369 . S
C723 C724 1.410 . S
C723 C731 1.503 . S
C724 C723 1.410 . S
C724 C725 1.392 . S
C724 C727 1.511 . S
C725 C721 1.376 . S
C725 C724 1.392 . S
C725 H737 0.929 . S
C726 C722 1.531 . S
C726 H738 0.960 . S
C726 H739 0.962 . S
C726 H740 0.960 . S
C727 C724 1.511 . S
C727 H741 0.961 . S
C727 H742 0.961 . S
C727 H743 0.961 . S
C728 C729 1.370 . S
C728 C730 1.363 . S
C728 H744 0.931 . S
C729 C728 1.370 . S
C729 C733 1.408 . S
C730 C728 1.363 . S
C730 C731 1.370 . S
C730 C734 1.524 . S
C731 C723 1.503 . S
C731 C730 1.370 . S
C731 C732 1.403 . S
C732 C731 1.403 . S
C732 C733 1.404 . S
C732 C735 1.539 . S
C733 C729 1.408 . S
C733 C732 1.404 . S
C733 H745 0.930 . S
C734 C730 1.524 . S
C734 H746 0.956 . S
C734 H747 0.961 . S
C734 H748 0.961 . S
C735 C732 1.539 . S
C735 H749 0.958 . S
C735 H750 0.961 . S
C735 H751 0.960 . S
H736 C720 0.931 . S
H737 C725 0.929 . S
H738 C726 0.960 . S
H739 C726 0.962 . S
H740 C726 0.960 . S
H741 C727 0.961 . S
H742 C727 0.961 . S
H743 C727 0.961 . S
H744 C728 0.931 . S
H745 C733 0.930 . S
H746 C734 0.956 . S
H747 C734 0.961 . S
H748 C734 0.961 . S
H749 C735 0.958 . S
H750 C735 0.961 . S
H751 C735 0.960 . S
C752 C753 1.391 . S
C752 C754 1.394 . S
C752 H768 0.931 . S
C753 C752 1.391 . S
C753 C757 1.376 . S
C754 C752 1.394 . S
C754 C755 1.369 . S
C754 C758 1.531 . S
C755 C754 1.369 . S
C755 C756 1.410 . S
C755 C763 1.503 . S
C756 C755 1.410 . S
C756 C757 1.392 . S
C756 C759 1.511 . S
C757 C753 1.376 . S
C757 C756 1.392 . S
C757 H769 0.929 . S
C758 C754 1.531 . S
C758 H770 0.960 . S
C758 H771 0.962 . S
C758 H772 0.960 . S
C759 C756 1.511 . S
C759 H773 0.961 . S
C759 H774 0.961 . S
C759 H775 0.961 . S
C760 C761 1.370 . S
C760 C762 1.363 . S
C760 H776 0.931 . S
C761 C760 1.370 . S
C761 C765 1.408 . S
C762 C760 1.363 . S
C762 C763 1.370 . S
C762 C766 1.524 . S
C763 C755 1.503 . S
C763 C762 1.370 . S
C763 C764 1.403 . S
C764 C763 1.403 . S
C764 C765 1.404 . S
C764 C767 1.539 . S
C765 C761 1.408 . S
C765 C764 1.404 . S
C765 H777 0.930 . S
C766 C762 1.524 . S
C766 H778 0.956 . S
C766 H779 0.961 . S
C766 H780 0.961 . S
C767 C764 1.539 . S
C767 H781 0.958 . S
C767 H782 0.961 . S
C767 H783 0.960 . S
H768 C752 0.931 . S
H769 C757 0.929 . S
H770 C758 0.960 . S
H771 C758 0.962 . S
H772 C758 0.960 . S
H773 C759 0.961 . S
H774 C759 0.961 . S
H775 C759 0.961 . S
H776 C760 0.931 . S
H777 C765 0.930 . S
H778 C766 0.956 . S
H779 C766 0.961 . S
H780 C766 0.961 . S
H781 C767 0.958 . S
H782 C767 0.961 . S
H783 C767 0.960 . S
C784 C785 1.391 . S
C784 C786 1.394 . S
C784 H800 0.931 . S
C785 C784 1.391 . S
C785 C789 1.376 . S
C786 C784 1.394 . S
C786 C787 1.369 . S
C786 C790 1.531 . S
C787 C786 1.369 . S
C787 C788 1.410 . S
C787 C795 1.503 . S
C788 C787 1.410 . S
C788 C789 1.392 . S
C788 C791 1.511 . S
C789 C785 1.376 . S
C789 C788 1.392 . S
C789 H801 0.929 . S
C790 C786 1.531 . S
C790 H802 0.960 . S
C790 H803 0.962 . S
C790 H804 0.960 . S
C791 C788 1.511 . S
C791 H805 0.961 . S
C791 H806 0.961 . S
C791 H807 0.961 . S
C792 C793 1.370 . S
C792 C794 1.363 . S
C792 H808 0.931 . S
C793 C792 1.370 . S
C793 C797 1.408 . S
C794 C792 1.363 . S
C794 C795 1.370 . S
C794 C798 1.524 . S
C795 C787 1.503 . S
C795 C794 1.370 . S
C795 C796 1.403 . S
C796 C795 1.403 . S
C796 C797 1.404 . S
C796 C799 1.539 . S
C797 C793 1.408 . S
C797 C796 1.404 . S
C797 H809 0.930 . S
C798 C794 1.524 . S
C798 H810 0.956 . S
C798 H811 0.961 . S
C798 H812 0.961 . S
C799 C796 1.539 . S
C799 H813 0.958 . S
C799 H814 0.961 . S
C799 H815 0.960 . S
H800 C784 0.931 . S
H801 C789 0.929 . S
H802 C790 0.960 . S
H803 C790 0.962 . S
H804 C790 0.960 . S
H805 C791 0.961 . S
H806 C791 0.961 . S
H807 C791 0.961 . S
H808 C792 0.931 . S
H809 C797 0.930 . S
H810 C798 0.956 . S
H811 C798 0.961 . S
H812 C798 0.961 . S
H813 C799 0.958 . S
H814 C799 0.961 . S
H815 C799 0.960 . S
C816 C817 1.391 . S
C816 C818 1.394 . S
C816 H832 0.931 . S
C817 C816 1.391 . S
C817 C821 1.376 . S
C818 C816 1.394 . S
C818 C819 1.369 . S
C818 C822 1.531 . S
C819 C818 1.369 . S
C819 C820 1.410 . S
C819 C827 1.503 . S
C820 C819 1.410 . S
C820 C821 1.392 . S
C820 C823 1.511 . S
C821 C817 1.376 . S
C821 C820 1.392 . S
C821 H833 0.929 . S
C822 C818 1.531 . S
C822 H834 0.960 . S
C822 H835 0.962 . S
C822 H836 0.960 . S
C823 C820 1.511 . S
C823 H837 0.961 . S
C823 H838 0.961 . S
C823 H839 0.961 . S
C824 C825 1.370 . S
C824 C826 1.363 . S
C824 H840 0.931 . S
C825 C824 1.370 . S
C825 C829 1.408 . S
C826 C824 1.363 . S
C826 C827 1.370 . S
C826 C830 1.524 . S
C827 C819 1.503 . S
C827 C826 1.370 . S
C827 C828 1.403 . S
C828 C827 1.403 . S
C828 C829 1.404 . S
C828 C831 1.539 . S
C829 C825 1.408 . S
C829 C828 1.404 . S
C829 H841 0.930 . S
C830 C826 1.524 . S
C830 H842 0.956 . S
C830 H843 0.961 . S
C830 H844 0.961 . S
C831 C828 1.539 . S
C831 H845 0.958 . S
C831 H846 0.961 . S
C831 H847 0.960 . S
H832 C816 0.931 . S
H833 C821 0.929 . S
H834 C822 0.960 . S
H835 C822 0.962 . S
H836 C822 0.960 . S
H837 C823 0.961 . S
H838 C823 0.961 . S
H839 C823 0.961 . S
H840 C824 0.931 . S
H841 C829 0.930 . S
H842 C830 0.956 . S
H843 C830 0.961 . S
H844 C830 0.961 . S
H845 C831 0.958 . S
H846 C831 0.961 . S
H847 C831 0.960 . S
C848 C849 1.391 . S
C848 C850 1.394 . S
C848 H864 0.931 . S
C849 C848 1.391 . S
C849 C853 1.376 . S
C850 C848 1.394 . S
C850 C851 1.369 . S
C850 C854 1.531 . S
C851 C850 1.369 . S
C851 C852 1.410 . S
C851 C859 1.503 . S
C852 C851 1.410 . S
C852 C853 1.392 . S
C852 C855 1.511 . S
C853 C849 1.376 . S
C853 C852 1.392 . S
C853 H865 0.929 . S
C854 C850 1.531 . S
C854 H866 0.960 . S
C854 H867 0.962 . S
C854 H868 0.960 . S
C855 C852 1.511 . S
C855 H869 0.961 . S
C855 H870 0.961 . S
C855 H871 0.961 . S
C856 C857 1.370 . S
C856 C858 1.363 . S
C856 H872 0.931 . S
C857 C856 1.370 . S
C857 C861 1.408 . S
C858 C856 1.363 . S
C858 C859 1.370 . S
C858 C862 1.524 . S
C859 C851 1.503 . S
C859 C858 1.370 . S
C859 C860 1.403 . S
C860 C859 1.403 . S
C860 C861 1.404 . S
C860 C863 1.539 . S
C861 C857 1.408 . S
C861 C860 1.404 . S
C861 H873 0.930 . S
C862 C858 1.524 . S
C862 H874 0.956 . S
C862 H875 0.961 . S
C862 H876 0.961 . S
C863 C860 1.539 . S
C863 H877 0.958 . S
C863 H878 0.961 . S
C863 H879 0.960 . S
H864 C848 0.931 . S
H865 C853 0.929 . S
H866 C854 0.960 . S
H867 C854 0.962 . S
H868 C854 0.960 . S
H869 C855 0.961 . S
H870 C855 0.961 . S
H871 C855 0.961 . S
H872 C856 0.931 . S
H873 C861 0.930 . S
H874 C862 0.956 . S
H875 C862 0.961 . S
H876 C862 0.961 . S
H877 C863 0.958 . S
H878 C863 0.961 . S
H879 C863 0.960 . S
C880 C881 1.391 . S
C880 C882 1.394 . S
C880 H896 0.931 . S
C881 C880 1.391 . S
C881 C885 1.376 . S
C882 C880 1.394 . S
C882 C883 1.369 . S
C882 C886 1.531 . S
C883 C882 1.369 . S
C883 C884 1.410 . S
C883 C891 1.503 . S
C884 C883 1.410 . S
C884 C885 1.392 . S
C884 C887 1.511 . S
C885 C881 1.376 . S
C885 C884 1.392 . S
C885 H897 0.929 . S
C886 C882 1.531 . S
C886 H898 0.960 . S
C886 H899 0.962 . S
C886 H900 0.960 . S
C887 C884 1.511 . S
C887 H901 0.961 . S
C887 H902 0.961 . S
C887 H903 0.961 . S
C888 C889 1.370 . S
C888 C890 1.363 . S
C888 H904 0.931 . S
C889 C888 1.370 . S
C889 C893 1.408 . S
C890 C888 1.363 . S
C890 C891 1.370 . S
C890 C894 1.524 . S
C891 C883 1.503 . S
C891 C890 1.370 . S
C891 C892 1.403 . S
C892 C891 1.403 . S
C892 C893 1.404 . S
C892 C895 1.539 . S
C893 C889 1.408 . S
C893 C892 1.404 . S
C893 H905 0.930 . S
C894 C890 1.524 . S
C894 H906 0.956 . S
C894 H907 0.961 . S
C894 H908 0.961 . S
C895 C892 1.539 . S
C895 H909 0.958 . S
C895 H910 0.961 . S
C895 H911 0.960 . S
H896 C880 0.931 . S
H897 C885 0.929 . S
H898 C886 0.960 . S
H899 C886 0.962 . S
H900 C886 0.960 . S
H901 C887 0.961 . S
H902 C887 0.961 . S
H903 C887 0.961 . S
H904 C888 0.931 . S
H905 C893 0.930 . S
H906 C894 0.956 . S
H907 C894 0.961 . S
H908 C894 0.961 . S
H909 C895 0.958 . S
H910 C895 0.961 . S
H911 C895 0.960 . S
C912 C913 1.391 . S
C912 C914 1.394 . S
C912 H928 0.931 . S
C913 C912 1.391 . S
C913 C917 1.376 . S
C914 C912 1.394 . S
C914 C915 1.369 . S
C914 C918 1.531 . S
C915 C914 1.369 . S
C915 C916 1.410 . S
C915 C923 1.503 . S
C916 C915 1.410 . S
C916 C917 1.392 . S
C916 C919 1.511 . S
C917 C913 1.376 . S
C917 C916 1.392 . S
C917 H929 0.929 . S
C918 C914 1.531 . S
C918 H930 0.960 . S
C918 H931 0.962 . S
C918 H932 0.960 . S
C919 C916 1.511 . S
C919 H933 0.961 . S
C919 H934 0.961 . S
C919 H935 0.961 . S
C920 C921 1.370 . S
C920 C922 1.363 . S
C920 H936 0.931 . S
C921 C920 1.370 . S
C921 C925 1.408 . S
C922 C920 1.363 . S
C922 C923 1.370 . S
C922 C926 1.524 . S
C923 C915 1.503 . S
C923 C922 1.370 . S
C923 C924 1.403 . S
C924 C923 1.403 . S
C924 C925 1.404 . S
C924 C927 1.539 . S
C925 C921 1.408 . S
C925 C924 1.404 . S
C925 H937 0.930 . S
C926 C922 1.524 . S
C926 H938 0.956 . S
C926 H939 0.961 . S
C926 H940 0.961 . S
C927 C924 1.539 . S
C927 H941 0.958 . S
C927 H942 0.961 . S
C927 H943 0.960 . S
H928 C912 0.931 . S
H929 C917 0.929 . S
H930 C918 0.960 . S
H931 C918 0.962 . S
H932 C918 0.960 . S
H933 C919 0.961 . S
H934 C919 0.961 . S
H935 C919 0.961 . S
H936 C920 0.931 . S
H937 C925 0.930 . S
H938 C926 0.956 . S
H939 C926 0.961 . S
H940 C926 0.961 . S
H941 C927 0.958 . S
H942 C927 0.961 . S
H943 C927 0.960 . S
C944 C945 1.391 . S
C944 C946 1.394 . S
C944 H960 0.931 . S
C945 C944 1.391 . S
C945 C949 1.376 . S
C946 C944 1.394 . S
C946 C947 1.369 . S
C946 C950 1.531 . S
C947 C946 1.369 . S
C947 C948 1.410 . S
C947 C955 1.503 . S
C948 C947 1.410 . S
C948 C949 1.392 . S
C948 C951 1.511 . S
C949 C945 1.376 . S
C949 C948 1.392 . S
C949 H961 0.929 . S
C950 C946 1.531 . S
C950 H962 0.960 . S
C950 H963 0.962 . S
C950 H964 0.960 . S
C951 C948 1.511 . S
C951 H965 0.961 . S
C951 H966 0.961 . S
C951 H967 0.961 . S
C952 C953 1.370 . S
C952 C954 1.363 . S
C952 H968 0.931 . S
C953 C952 1.370 . S
C953 C957 1.408 . S
C954 C952 1.363 . S
C954 C955 1.370 . S
C954 C958 1.524 . S
C955 C947 1.503 . S
C955 C954 1.370 . S
C955 C956 1.403 . S
C956 C955 1.403 . S
C956 C957 1.404 . S
C956 C959 1.539 . S
C957 C953 1.408 . S
C957 C956 1.404 . S
C957 H969 0.930 . S
C958 C954 1.524 . S
C958 H970 0.956 . S
C958 H971 0.961 . S
C958 H972 0.961 . S
C959 C956 1.539 . S
C959 H973 0.958 . S
C959 H974 0.961 . S
C959 H975 0.960 . S
H960 C944 0.931 . S
H961 C949 0.929 . S
H962 C950 0.960 . S
H963 C950 0.962 . S
H964 C950 0.960 . S
H965 C951 0.961 . S
H966 C951 0.961 . S
H967 C951 0.961 . S
H968 C952 0.931 . S
H969 C957 0.930 . S
H970 C958 0.956 . S
H971 C958 0.961 . S
H972 C958 0.961 . S
H973 C959 0.958 . S
H974 C959 0.961 . S
H975 C959 0.960 . S
C976 C977 1.391 . S
C976 C978 1.394 . S
C976 H992 0.931 . S
C977 C976 1.391 . S
C977 C981 1.376 . S
C978 C976 1.394 . S
C978 C979 1.369 . S
C978 C982 1.531 . S
C979 C978 1.369 . S
C979 C980 1.410 . S
C979 C987 1.503 . S
C980 C979 1.410 . S
C980 C981 1.392 . S
C980 C983 1.511 . S
C981 C977 1.376 . S
C981 C980 1.392 . S
C981 H993 0.929 . S
C982 C978 1.531 . S
C982 H994 0.960 . S
C982 H995 0.962 . S
C982 H996 0.960 . S
C983 C980 1.511 . S
C983 H997 0.961 . S
C983 H998 0.961 . S
C983 H999 0.961 . S
C984 C985 1.370 . S
C984 C986 1.363 . S
C984 H1000 0.931 . S
C985 C984 1.370 . S
C985 C989 1.408 . S
C986 C984 1.363 . S
C986 C987 1.370 . S
C986 C990 1.524 . S
C987 C979 1.503 . S
C987 C986 1.370 . S
C987 C988 1.403 . S
C988 C987 1.403 . S
C988 C989 1.404 . S
C988 C991 1.539 . S
C989 C985 1.408 . S
C989 C988 1.404 . S
C989 H1001 0.930 . S
C990 C986 1.524 . S
C990 H1002 0.956 . S
C990 H1003 0.961 . S
C990 H1004 0.961 . S
C991 C988 1.539 . S
C991 H1005 0.958 . S
C991 H1006 0.961 . S
C991 H1007 0.960 . S
H992 C976 0.931 . S
H993 C981 0.929 . S
H994 C982 0.960 . S
H995 C982 0.962 . S
H996 C982 0.960 . S
H997 C983 0.961 . S
H998 C983 0.961 . S
H999 C983 0.961 . S
H1000 C984 0.931 . S
H1001 C989 0.930 . S
H1002 C990 0.956 . S
H1003 C990 0.961 . S
H1004 C990 0.961 . S
H1005 C991 0.958 . S
H1006 C991 0.961 . S
H1007 C991 0.960 . S
C1008 C1009 1.391 . S
C1008 C1010 1.394 . S
C1008 H1024 0.931 . S
C1009 C1008 1.391 . S
C1009 C1013 1.376 . S
C1010 C1008 1.394 . S
C1010 C1011 1.369 . S
C1010 C1014 1.531 . S
C1011 C1010 1.369 . S
C1011 C1012 1.410 . S
C1011 C1019 1.503 . S
C1012 C1011 1.410 . S
C1012 C1013 1.392 . S
C1012 C1015 1.511 . S
C1013 C1009 1.376 . S
C1013 C1012 1.392 . S
C1013 H1025 0.929 . S
C1014 C1010 1.531 . S
C1014 H1026 0.960 . S
C1014 H1027 0.962 . S
C1014 H1028 0.960 . S
C1015 C1012 1.511 . S
C1015 H1029 0.961 . S
C1015 H1030 0.961 . S
C1015 H1031 0.961 . S
C1016 C1017 1.370 . S
C1016 C1018 1.363 . S
C1016 H1032 0.931 . S
C1017 C1016 1.370 . S
C1017 C1021 1.408 . S
C1018 C1016 1.363 . S
C1018 C1019 1.370 . S
C1018 C1022 1.524 . S
C1019 C1011 1.503 . S
C1019 C1018 1.370 . S
C1019 C1020 1.403 . S
C1020 C1019 1.403 . S
C1020 C1021 1.404 . S
C1020 C1023 1.539 . S
C1021 C1017 1.408 . S
C1021 C1020 1.404 . S
C1021 H1033 0.930 . S
C1022 C1018 1.524 . S
C1022 H1034 0.956 . S
C1022 H1035 0.961 . S
C1022 H1036 0.961 . S
C1023 C1020 1.539 . S
C1023 H1037 0.958 . S
C1023 H1038 0.961 . S
C1023 H1039 0.960 . S
H1024 C1008 0.931 . S
H1025 C1013 0.929 . S
H1026 C1014 0.960 . S
H1027 C1014 0.962 . S
H1028 C1014 0.960 . S
H1029 C1015 0.961 . S
H1030 C1015 0.961 . S
H1031 C1015 0.961 . S
H1032 C1016 0.931 . S
H1033 C1021 0.930 . S
H1034 C1022 0.956 . S
H1035 C1022 0.961 . S
H1036 C1022 0.961 . S
H1037 C1023 0.958 . S
H1038 C1023 0.961 . S
H1039 C1023 0.960 . S
C1040 C1041 1.391 . S
C1040 C1042 1.394 . S
C1040 H1056 0.931 . S
C1041 C1040 1.391 . S
C1041 C1045 1.376 . S
C1042 C1040 1.394 . S
C1042 C1043 1.369 . S
C1042 C1046 1.531 . S
C1043 C1042 1.369 . S
C1043 C1044 1.410 . S
C1043 C1051 1.503 . S
C1044 C1043 1.410 . S
C1044 C1045 1.392 . S
C1044 C1047 1.511 . S
C1045 C1041 1.376 . S
C1045 C1044 1.392 . S
C1045 H1057 0.929 . S
C1046 C1042 1.531 . S
C1046 H1058 0.960 . S
C1046 H1059 0.962 . S
C1046 H1060 0.960 . S
C1047 C1044 1.511 . S
C1047 H1061 0.961 . S
C1047 H1062 0.961 . S
C1047 H1063 0.961 . S
C1048 C1049 1.370 . S
C1048 C1050 1.363 . S
C1048 H1064 0.931 . S
C1049 C1048 1.370 . S
C1049 C1053 1.408 . S
C1050 C1048 1.363 . S
C1050 C1051 1.370 . S
C1050 C1054 1.524 . S
C1051 C1043 1.503 . S
C1051 C1050 1.370 . S
C1051 C1052 1.403 . S
C1052 C1051 1.403 . S
C1052 C1053 1.404 . S
C1052 C1055 1.539 . S
C1053 C1049 1.408 . S
C1053 C1052 1.404 . S
C1053 H1065 0.930 . S
C1054 C1050 1.524 . S
C1054 H1066 0.956 . S
C1054 H1067 0.961 . S
C1054 H1068 0.961 . S
C1055 C1052 1.539 . S
C1055 H1069 0.958 . S
C1055 H1070 0.961 . S
C1055 H1071 0.960 . S
H1056 C1040 0.931 . S
H1057 C1045 0.929 . S
H1058 C1046 0.960 . S
H1059 C1046 0.962 . S
H1060 C1046 0.960 . S
H1061 C1047 0.961 . S
H1062 C1047 0.961 . S
H1063 C1047 0.961 . S
H1064 C1048 0.931 . S
H1065 C1053 0.930 . S
H1066 C1054 0.956 . S
H1067 C1054 0.961 . S
H1068 C1054 0.961 . S
H1069 C1055 0.958 . S
H1070 C1055 0.961 . S
H1071 C1055 0.960 . S
C1072 C1073 1.391 . S
C1072 C1074 1.394 . S
C1072 H1088 0.931 . S
C1073 C1072 1.391 . S
C1073 C1077 1.376 . S
C1074 C1072 1.394 . S
C1074 C1075 1.369 . S
C1074 C1078 1.531 . S
C1075 C1074 1.369 . S
C1075 C1076 1.410 . S
C1075 C1083 1.503 . S
C1076 C1075 1.410 . S
C1076 C1077 1.392 . S
C1076 C1079 1.511 . S
C1077 C1073 1.376 . S
C1077 C1076 1.392 . S
C1077 H1089 0.929 . S
C1078 C1074 1.531 . S
C1078 H1090 0.960 . S
C1078 H1091 0.962 . S
C1078 H1092 0.960 . S
C1079 C1076 1.511 . S
C1079 H1093 0.961 . S
C1079 H1094 0.961 . S
C1079 H1095 0.961 . S
C1080 C1081 1.370 . S
C1080 C1082 1.363 . S
C1080 H1096 0.931 . S
C1081 C1080 1.370 . S
C1081 C1085 1.408 . S
C1082 C1080 1.363 . S
C1082 C1083 1.370 . S
C1082 C1086 1.524 . S
C1083 C1075 1.503 . S
C1083 C1082 1.370 . S
C1083 C1084 1.403 . S
C1084 C1083 1.403 . S
C1084 C1085 1.404 . S
C1084 C1087 1.539 . S
C1085 C1081 1.408 . S
C1085 C1084 1.404 . S
C1085 H1097 0.930 . S
C1086 C1082 1.524 . S
C1086 H1098 0.956 . S
C1086 H1099 0.961 . S
C1086 H1100 0.961 . S
C1087 C1084 1.539 . S
C1087 H1101 0.958 . S
C1087 H1102 0.961 . S
C1087 H1103 0.960 . S
H1088 C1072 0.931 . S
H1089 C1077 0.929 . S
H1090 C1078 0.960 . S
H1091 C1078 0.962 . S
H1092 C1078 0.960 . S
H1093 C1079 0.961 . S
H1094 C1079 0.961 . S
H1095 C1079 0.961 . S
H1096 C1080 0.931 . S
H1097 C1085 0.930 . S
H1098 C1086 0.956 . S
H1099 C1086 0.961 . S
H1100 C1086 0.961 . S
H1101 C1087 0.958 . S
H1102 C1087 0.961 . S
H1103 C1087 0.960 . S
C1104 C1105 1.391 . S
C1104 C1106 1.394 . S
C1104 H1120 0.931 . S
C1105 C1104 1.391 . S
C1105 C1109 1.376 . S
C1106 C1104 1.394 . S
C1106 C1107 1.369 . S
C1106 C1110 1.531 . S
C1107 C1106 1.369 . S
C1107 C1108 1.410 . S
C1107 C1115 1.503 . S
C1108 C1107 1.410 . S
C1108 C1109 1.392 . S
C1108 C1111 1.511 . S
C1109 C1105 1.376 . S
C1109 C1108 1.392 . S
C1109 H1121 0.929 . S
C1110 C1106 1.531 . S
C1110 H1122 0.960 . S
C1110 H1123 0.962 . S
C1110 H1124 0.960 . S
C1111 C1108 1.511 . S
C1111 H1125 0.961 . S
C1111 H1126 0.961 . S
C1111 H1127 0.961 . S
C1112 C1113 1.370 . S
C1112 C1114 1.363 . S
C1112 H1128 0.931 . S
C1113 C1112 1.370 . S
C1113 C1117 1.408 . S
C1114 C1112 1.363 . S
C1114 C1115 1.370 . S
C1114 C1118 1.524 . S
C1115 C1107 1.503 . S
C1115 C1114 1.370 . S
C1115 C1116 1.403 . S
C1116 C1115 1.403 . S
C1116 C1117 1.404 . S
C1116 C1119 1.539 . S
C1117 C1113 1.408 . S
C1117 C1116 1.404 . S
C1117 H1129 0.930 . S
C1118 C1114 1.524 . S
C1118 H1130 0.956 . S
C1118 H1131 0.961 . S
C1118 H1132 0.961 . S
C1119 C1116 1.539 . S
C1119 H1133 0.958 . S
C1119 H1134 0.961 . S
C1119 H1135 0.960 . S
H1120 C1104 0.931 . S
H1121 C1109 0.929 . S
H1122 C1110 0.960 . S
H1123 C1110 0.962 . S
H1124 C1110 0.960 . S
H1125 C1111 0.961 . S
H1126 C1111 0.961 . S
H1127 C1111 0.961 . S
H1128 C1112 0.931 . S
H1129 C1117 0.930 . S
H1130 C1118 0.956 . S
H1131 C1118 0.961 . S
H1132 C1118 0.961 . S
H1133 C1119 0.958 . S
H1134 C1119 0.961 . S
H1135 C1119 0.960 . S
C1136 C1137 1.391 . S
C1136 C1138 1.394 . S
C1136 H1152 0.931 . S
C1137 C1136 1.391 . S
C1137 C1141 1.376 . S
C1138 C1136 1.394 . S
C1138 C1139 1.369 . S
C1138 C1142 1.531 . S
C1139 C1138 1.369 . S
C1139 C1140 1.410 . S
C1139 C1147 1.503 . S
C1140 C1139 1.410 . S
C1140 C1141 1.392 . S
C1140 C1143 1.511 . S
C1141 C1137 1.376 . S
C1141 C1140 1.392 . S
C1141 H1153 0.929 . S
C1142 C1138 1.531 . S
C1142 H1154 0.960 . S
C1142 H1155 0.962 . S
C1142 H1156 0.960 . S
C1143 C1140 1.511 . S
C1143 H1157 0.961 . S
C1143 H1158 0.961 . S
C1143 H1159 0.961 . S
C1144 C1145 1.370 . S
C1144 C1146 1.363 . S
C1144 H1160 0.931 . S
C1145 C1144 1.370 . S
C1145 C1149 1.408 . S
C1146 C1144 1.363 . S
C1146 C1147 1.370 . S
C1146 C1150 1.524 . S
C1147 C1139 1.503 . S
C1147 C1146 1.370 . S
C1147 C1148 1.403 . S
C1148 C1147 1.403 . S
C1148 C1149 1.404 . S
C1148 C1151 1.539 . S
C1149 C1145 1.408 . S
C1149 C1148 1.404 . S
C1149 H1161 0.930 . S
C1150 C1146 1.524 . S
C1150 H1162 0.956 . S
C1150 H1163 0.961 . S
C1150 H1164 0.961 . S
C1151 C1148 1.539 . S
C1151 H1165 0.958 . S
C1151 H1166 0.961 . S
C1151 H1167 0.960 . S
H1152 C1136 0.931 . S
H1153 C1141 0.929 . S
H1154 C1142 0.960 . S
H1155 C1142 0.962 . S
H1156 C1142 0.960 . S
H1157 C1143 0.961 . S
H1158 C1143 0.961 . S
H1159 C1143 0.961 . S
H1160 C1144 0.931 . S
H1161 C1149 0.930 . S
H1162 C1150 0.956 . S
H1163 C1150 0.961 . S
H1164 C1150 0.961 . S
H1165 C1151 0.958 . S
H1166 C1151 0.961 . S
H1167 C1151 0.960 . S
C1168 C1169 1.391 . S
C1168 C1170 1.394 . S
C1168 H1184 0.931 . S
C1169 C1168 1.391 . S
C1169 C1173 1.376 . S
C1170 C1168 1.394 . S
C1170 C1171 1.369 . S
C1170 C1174 1.531 . S
C1171 C1170 1.369 . S
C1171 C1172 1.410 . S
C1171 C1179 1.503 . S
C1172 C1171 1.410 . S
C1172 C1173 1.392 . S
C1172 C1175 1.511 . S
C1173 C1169 1.376 . S
C1173 C1172 1.392 . S
C1173 H1185 0.929 . S
C1174 C1170 1.531 . S
C1174 H1186 0.960 . S
C1174 H1187 0.962 . S
C1174 H1188 0.960 . S
C1175 C1172 1.511 . S
C1175 H1189 0.961 . S
C1175 H1190 0.961 . S
C1175 H1191 0.961 . S
C1176 C1177 1.370 . S
C1176 C1178 1.363 . S
C1176 H1192 0.931 . S
C1177 C1176 1.370 . S
C1177 C1181 1.408 . S
C1178 C1176 1.363 . S
C1178 C1179 1.370 . S
C1178 C1182 1.524 . S
C1179 C1171 1.503 . S
C1179 C1178 1.370 . S
C1179 C1180 1.403 . S
C1180 C1179 1.403 . S
C1180 C1181 1.404 . S
C1180 C1183 1.539 . S
C1181 C1177 1.408 . S
C1181 C1180 1.404 . S
C1181 H1193 0.930 . S
C1182 C1178 1.524 . S
C1182 H1194 0.956 . S
C1182 H1195 0.961 . S
C1182 H1196 0.961 . S
C1183 C1180 1.539 . S
C1183 H1197 0.958 . S
C1183 H1198 0.961 . S
C1183 H1199 0.960 . S
H1184 C1168 0.931 . S
H1185 C1173 0.929 . S
H1186 C1174 0.960 . S
H1187 C1174 0.962 . S
H1188 C1174 0.960 . S
H1189 C1175 0.961 . S
H1190 C1175 0.961 . S
H1191 C1175 0.961 . S
H1192 C1176 0.931 . S
H1193 C1181 0.930 . S
H1194 C1182 0.956 . S
H1195 C1182 0.961 . S
H1196 C1182 0.961 . S
H1197 C1183 0.958 . S
H1198 C1183 0.961 . S
H1199 C1183 0.960 . S
C1200 C1201 1.391 . S
C1200 C1202 1.394 . S
C1200 H1216 0.931 . S
C1201 C1200 1.391 . S
C1201 C1205 1.376 . S
C1202 C1200 1.394 . S
C1202 C1203 1.369 . S
C1202 C1206 1.531 . S
C1203 C1202 1.369 . S
C1203 C1204 1.410 . S
C1203 C1211 1.503 . S
C1204 C1203 1.410 . S
C1204 C1205 1.392 . S
C1204 C1207 1.511 . S
C1205 C1201 1.376 . S
C1205 C1204 1.392 . S
C1205 H1217 0.929 . S
C1206 C1202 1.531 . S
C1206 H1218 0.960 . S
C1206 H1219 0.962 . S
C1206 H1220 0.960 . S
C1207 C1204 1.511 . S
C1207 H1221 0.961 . S
C1207 H1222 0.961 . S
C1207 H1223 0.961 . S
C1208 C1209 1.370 . S
C1208 C1210 1.363 . S
C1208 H1224 0.931 . S
C1209 C1208 1.370 . S
C1209 C1213 1.408 . S
C1210 C1208 1.363 . S
C1210 C1211 1.370 . S
C1210 C1214 1.524 . S
C1211 C1203 1.503 . S
C1211 C1210 1.370 . S
C1211 C1212 1.403 . S
C1212 C1211 1.403 . S
C1212 C1213 1.404 . S
C1212 C1215 1.539 . S
C1213 C1209 1.408 . S
C1213 C1212 1.404 . S
C1213 H1225 0.930 . S
C1214 C1210 1.524 . S
C1214 H1226 0.956 . S
C1214 H1227 0.961 . S
C1214 H1228 0.961 . S
C1215 C1212 1.539 . S
C1215 H1229 0.958 . S
C1215 H1230 0.961 . S
C1215 H1231 0.960 . S
H1216 C1200 0.931 . S
H1217 C1205 0.929 . S
H1218 C1206 0.960 . S
H1219 C1206 0.962 . S
H1220 C1206 0.960 . S
H1221 C1207 0.961 . S
H1222 C1207 0.961 . S
H1223 C1207 0.961 . S
H1224 C1208 0.931 . S
H1225 C1213 0.930 . S
H1226 C1214 0.956 . S
H1227 C1214 0.961 . S
H1228 C1214 0.961 . S
H1229 C1215 0.958 . S
H1230 C1215 0.961 . S
H1231 C1215 0.960 . S
C1232 C1233 1.391 . S
C1232 C1234 1.394 . S
C1232 H1248 0.931 . S
C1233 C1232 1.391 . S
C1233 C1237 1.376 . S
C1234 C1232 1.394 . S
C1234 C1235 1.369 . S
C1234 C1238 1.531 . S
C1235 C1234 1.369 . S
C1235 C1236 1.410 . S
C1235 C1243 1.503 . S
C1236 C1235 1.410 . S
C1236 C1237 1.392 . S
C1236 C1239 1.511 . S
C1237 C1233 1.376 . S
C1237 C1236 1.392 . S
C1237 H1249 0.929 . S
C1238 C1234 1.531 . S
C1238 H1250 0.960 . S
C1238 H1251 0.962 . S
C1238 H1252 0.960 . S
C1239 C1236 1.511 . S
C1239 H1253 0.961 . S
C1239 H1254 0.961 . S
C1239 H1255 0.961 . S
C1240 C1241 1.370 . S
C1240 C1242 1.363 . S
C1240 H1256 0.931 . S
C1241 C1240 1.370 . S
C1241 C1245 1.408 . S
C1242 C1240 1.363 . S
C1242 C1243 1.370 . S
C1242 C1246 1.524 . S
C1243 C1235 1.503 . S
C1243 C1242 1.370 . S
C1243 C1244 1.403 . S
C1244 C1243 1.403 . S
C1244 C1245 1.404 . S
C1244 C1247 1.539 . S
C1245 C1241 1.408 . S
C1245 C1244 1.404 . S
C1245 H1257 0.930 . S
C1246 C1242 1.524 . S
C1246 H1258 0.956 . S
C1246 H1259 0.961 . S
C1246 H1260 0.961 . S
C1247 C1244 1.539 . S
C1247 H1261 0.958 . S
C1247 H1262 0.961 . S
C1247 H1263 0.960 . S
H1248 C1232 0.931 . S
H1249 C1237 0.929 . S
H1250 C1238 0.960 . S
H1251 C1238 0.962 . S
H1252 C1238 0.960 . S
H1253 C1239 0.961 . S
H1254 C1239 0.961 . S
H1255 C1239 0.961 . S
H1256 C1240 0.931 . S
H1257 C1245 0.930 . S
H1258 C1246 0.956 . S
H1259 C1246 0.961 . S
H1260 C1246 0.961 . S
H1261 C1247 0.958 . S
H1262 C1247 0.961 . S
H1263 C1247 0.960 . S
C1264 C1265 1.391 . S
C1264 C1266 1.394 . S
C1264 H1280 0.931 . S
C1265 C1264 1.391 . S
C1265 C1269 1.376 . S
C1266 C1264 1.394 . S
C1266 C1267 1.369 . S
C1266 C1270 1.531 . S
C1267 C1266 1.369 . S
C1267 C1268 1.410 . S
C1267 C1275 1.503 . S
C1268 C1267 1.410 . S
C1268 C1269 1.392 . S
C1268 C1271 1.511 . S
C1269 C1265 1.376 . S
C1269 C1268 1.392 . S
C1269 H1281 0.929 . S
C1270 C1266 1.531 . S
C1270 H1282 0.960 . S
C1270 H1283 0.962 . S
C1270 H1284 0.960 . S
C1271 C1268 1.511 . S
C1271 H1285 0.961 . S
C1271 H1286 0.961 . S
C1271 H1287 0.961 . S
C1272 C1273 1.370 . S
C1272 C1274 1.363 . S
C1272 H1288 0.931 . S
C1273 C1272 1.370 . S
C1273 C1277 1.408 . S
C1274 C1272 1.363 . S
C1274 C1275 1.370 . S
C1274 C1278 1.524 . S
C1275 C1267 1.503 . S
C1275 C1274 1.370 . S
C1275 C1276 1.403 . S
C1276 C1275 1.403 . S
C1276 C1277 1.404 . S
C1276 C1279 1.539 . S
C1277 C1273 1.408 . S
C1277 C1276 1.404 . S
C1277 H1289 0.930 . S
C1278 C1274 1.524 . S
C1278 H1290 0.956 . S
C1278 H1291 0.961 . S
C1278 H1292 0.961 . S
C1279 C1276 1.539 . S
C1279 H1293 0.958 . S
C1279 H1294 0.961 . S
C1279 H1295 0.960 . S
H1280 C1264 0.931 . S
H1281 C1269 0.929 . S
H1282 C1270 0.960 . S
H1283 C1270 0.962 . S
H1284 C1270 0.960 . S
H1285 C1271 0.961 . S
H1286 C1271 0.961 . S
H1287 C1271 0.961 . S
H1288 C1272 0.931 . S
H1289 C1277 0.930 . S
H1290 C1278 0.956 . S
H1291 C1278 0.961 . S
H1292 C1278 0.961 . S
H1293 C1279 0.958 . S
H1294 C1279 0.961 . S
H1295 C1279 0.960 . S
C1296 C1297 1.391 . S
C1296 C1298 1.394 . S
C1296 H1312 0.931 . S
C1297 C1296 1.391 . S
C1297 C1301 1.376 . S
C1298 C1296 1.394 . S
C1298 C1299 1.369 . S
C1298 C1302 1.531 . S
C1299 C1298 1.369 . S
C1299 C1300 1.410 . S
C1299 C1307 1.503 . S
C1300 C1299 1.410 . S
C1300 C1301 1.392 . S
C1300 C1303 1.511 . S
C1301 C1297 1.376 . S
C1301 C1300 1.392 . S
C1301 H1313 0.929 . S
C1302 C1298 1.531 . S
C1302 H1314 0.960 . S
C1302 H1315 0.962 . S
C1302 H1316 0.960 . S
C1303 C1300 1.511 . S
C1303 H1317 0.961 . S
C1303 H1318 0.961 . S
C1303 H1319 0.961 . S
C1304 C1305 1.370 . S
C1304 C1306 1.363 . S
C1304 H1320 0.931 . S
C1305 C1304 1.370 . S
C1305 C1309 1.408 . S
C1306 C1304 1.363 . S
C1306 C1307 1.370 . S
C1306 C1310 1.524 . S
C1307 C1299 1.503 . S
C1307 C1306 1.370 . S
C1307 C1308 1.403 . S
C1308 C1307 1.403 . S
C1308 C1309 1.404 . S
C1308 C1311 1.539 . S
C1309 C1305 1.408 . S
C1309 C1308 1.404 . S
C1309 H1321 0.930 . S
C1310 C1306 1.524 . S
C1310 H1322 0.956 . S
C1310 H1323 0.961 . S
C1310 H1324 0.961 . S
C1311 C1308 1.539 . S
C1311 H1325 0.958 . S
C1311 H1326 0.961 . S
C1311 H1327 0.960 . S
H1312 C1296 0.931 . S
H1313 C1301 0.929 . S
H1314 C1302 0.960 . S
H1315 C1302 0.962 . S
H1316 C1302 0.960 . S
H1317 C1303 0.961 . S
H1318 C1303 0.961 . S
H1319 C1303 0.961 . S
H1320 C1304 0.931 . S
H1321 C1309 0.930 . S
H1322 C1310 0.956 . S
H1323 C1310 0.961 . S
H1324 C1310 0.961 . S
H1325 C1311 0.958 . S
H1326 C1311 0.961 . S
H1327 C1311 0.960 . S
C1328 C1329 1.391 . S
C1328 C1330 1.394 . S
C1328 H1344 0.931 . S
C1329 C1328 1.391 . S
C1329 C1333 1.376 . S
C1330 C1328 1.394 . S
C1330 C1331 1.369 . S
C1330 C1334 1.531 . S
C1331 C1330 1.369 . S
C1331 C1332 1.410 . S
C1331 C1339 1.503 . S
C1332 C1331 1.410 . S
C1332 C1333 1.392 . S
C1332 C1335 1.511 . S
C1333 C1329 1.376 . S
C1333 C1332 1.392 . S
C1333 H1345 0.929 . S
C1334 C1330 1.531 . S
C1334 H1346 0.960 . S
C1334 H1347 0.962 . S
C1334 H1348 0.960 . S
C1335 C1332 1.511 . S
C1335 H1349 0.961 . S
C1335 H1350 0.961 . S
C1335 H1351 0.961 . S
C1336 C1337 1.370 . S
C1336 C1338 1.363 . S
C1336 H1352 0.931 . S
C1337 C1336 1.370 . S
C1337 C1341 1.408 . S
C1338 C1336 1.363 . S
C1338 C1339 1.370 . S
C1338 C1342 1.524 . S
C1339 C1331 1.503 . S
C1339 C1338 1.370 . S
C1339 C1340 1.403 . S
C1340 C1339 1.403 . S
C1340 C1341 1.404 . S
C1340 C1343 1.539 . S
C1341 C1337 1.408 . S
C1341 C1340 1.404 . S
C1341 H1353 0.930 . S
C1342 C1338 1.524 . S
C1342 H1354 0.956 . S
C1342 H1355 0.961 . S
C1342 H1356 0.961 . S
C1343 C1340 1.539 . S
C1343 H1357 0.958 . S
C1343 H1358 0.961 . S
C1343 H1359 0.960 . S
H1344 C1328 0.931 . S
H1345 C1333 0.929 . S
H1346 C1334 0.960 . S
H1347 C1334 0.962 . S
H1348 C1334 0.960 . S
H1349 C1335 0.961 . S
H1350 C1335 0.961 . S
H1351 C1335 0.961 . S
H1352 C1336 0.931 . S
H1353 C1341 0.930 . S
H1354 C1342 0.956 . S
H1355 C1342 0.961 . S
H1356 C1342 0.961 . S
H1357 C1343 0.958 . S
H1358 C1343 0.961 . S
H1359 C1343 0.960 . S
C1360 C1361 1.391 . S
C1360 C1362 1.394 . S
C1360 H1376 0.931 . S
C1361 C1360 1.391 . S
C1361 C1365 1.376 . S
C1362 C1360 1.394 . S
C1362 C1363 1.369 . S
C1362 C1366 1.531 . S
C1363 C1362 1.369 . S
C1363 C1364 1.410 . S
C1363 C1371 1.503 . S
C1364 C1363 1.410 . S
C1364 C1365 1.392 . S
C1364 C1367 1.511 . S
C1365 C1361 1.376 . S
C1365 C1364 1.392 . S
C1365 H1377 0.929 . S
C1366 C1362 1.531 . S
C1366 H1378 0.960 . S
C1366 H1379 0.962 . S
C1366 H1380 0.960 . S
C1367 C1364 1.511 . S
C1367 H1381 0.961 . S
C1367 H1382 0.961 . S
C1367 H1383 0.961 . S
C1368 C1369 1.370 . S
C1368 C1370 1.363 . S
C1368 H1384 0.931 . S
C1369 C1368 1.370 . S
C1369 C1373 1.408 . S
C1370 C1368 1.363 . S
C1370 C1371 1.370 . S
C1370 C1374 1.524 . S
C1371 C1363 1.503 . S
C1371 C1370 1.370 . S
C1371 C1372 1.403 . S
C1372 C1371 1.403 . S
C1372 C1373 1.404 . S
C1372 C1375 1.539 . S
C1373 C1369 1.408 . S
C1373 C1372 1.404 . S
C1373 H1385 0.930 . S
C1374 C1370 1.524 . S
C1374 H1386 0.956 . S
C1374 H1387 0.961 . S
C1374 H1388 0.961 . S
C1375 C1372 1.539 . S
C1375 H1389 0.958 . S
C1375 H1390 0.961 . S
C1375 H1391 0.960 . S
H1376 C1360 0.931 . S
H1377 C1365 0.929 . S
H1378 C1366 0.960 . S
H1379 C1366 0.962 . S
H1380 C1366 0.960 . S
H1381 C1367 0.961 . S
H1382 C1367 0.961 . S
H1383 C1367 0.961 . S
H1384 C1368 0.931 . S
H1385 C1373 0.930 . S
H1386 C1374 0.956 . S
H1387 C1374 0.961 . S
H1388 C1374 0.961 . S
H1389 C1375 0.958 . S
H1390 C1375 0.961 . S
H1391 C1375 0.960 . S
C1392 C1393 1.391 . S
C1392 C1394 1.394 . S
C1392 H1408 0.931 . S
C1393 C1392 1.391 . S
C1393 C1397 1.376 . S
C1394 C1392 1.394 . S
C1394 C1395 1.369 . S
C1394 C1398 1.531 1_655 S
C1395 C1394 1.369 . S
C1395 C1396 1.410 . S
C1395 C1403 1.515 . S
C1396 C1395 1.410 . S
C1396 C1397 1.392 . S
C1396 C1399 1.511 . S
C1397 C1393 1.376 . S
C1397 C1396 1.392 . S
C1397 H1409 0.929 . S
C1398 C1394 1.531 1_455 S
C1398 H1410 0.944 1_455 S
C1398 H1411 0.962 . S
C1398 H1412 0.960 1_455 S
C1399 C1396 1.511 . S
C1399 H1413 0.961 . S
C1399 H1414 0.961 . S
C1399 H1415 0.961 . S
C1400 C1401 1.370 . S
C1400 C1402 1.363 . S
C1400 H1416 0.931 . S
C1401 C1400 1.370 . S
C1401 C1405 1.408 1_455 S
C1402 C1400 1.363 . S
C1402 C1403 1.333 1_455 S
C1402 C1406 1.524 . S
C1403 C1395 1.515 . S
C1403 C1402 1.333 1_655 S
C1403 C1404 1.430 . S
C1404 C1403 1.430 . S
C1404 C1405 1.404 . S
C1404 C1407 1.539 . S
C1405 C1401 1.408 1_655 S
C1405 C1404 1.404 . S
C1405 H1417 0.930 . S
C1406 C1402 1.524 . S
C1406 H1418 0.956 . S
C1406 H1419 0.961 . S
C1406 H1420 0.961 . S
C1407 C1404 1.539 . S
C1407 H1421 0.958 . S
C1407 H1422 0.961 . S
C1407 H1423 0.960 . S
H1408 C1392 0.931 . S
H1409 C1397 0.929 . S
H1410 C1398 0.944 1_655 S
H1411 C1398 0.962 . S
H1412 C1398 0.960 1_655 S
H1413 C1399 0.961 . S
H1414 C1399 0.961 . S
H1415 C1399 0.961 . S
H1416 C1400 0.931 . S
H1417 C1405 0.930 . S
H1418 C1406 0.956 . S
H1419 C1406 0.961 . S
H1420 C1406 0.961 . S
H1421 C1407 0.958 . S
H1422 C1407 0.961 . S
H1423 C1407 0.960 . S
C1424 C1425 1.391 1_545 S
C1424 C1426 1.394 . S
C1424 H1440 0.931 . S
C1425 C1424 1.391 1_565 S
C1425 C1429 1.376 . S
C1426 C1424 1.394 . S
C1426 C1427 1.369 1_545 S
C1426 C1430 1.531 . S
C1427 C1426 1.369 1_565 S
C1427 C1428 1.410 . S
C1427 C1435 1.503 1_565 S
C1428 C1427 1.410 . S
C1428 C1429 1.392 . S
C1428 C1431 1.511 . S
C1429 C1425 1.376 . S
C1429 C1428 1.392 . S
C1429 H1441 0.929 . S
C1430 C1426 1.531 . S
C1430 H1442 0.960 . S
C1430 H1443 0.962 . S
C1430 H1444 0.960 . S
C1431 C1428 1.511 . S
C1431 H1445 0.961 . S
C1431 H1446 0.961 . S
C1431 H1447 0.961 . S
C1432 C1433 1.370 . S
C1432 C1434 1.363 . S
C1432 H1448 0.931 . S
C1433 C1432 1.370 . S
C1433 C1437 1.408 . S
C1434 C1432 1.363 . S
C1434 C1435 1.370 . S
C1434 C1438 1.524 . S
C1435 C1427 1.503 1_545 S
C1435 C1434 1.370 . S
C1435 C1436 1.403 1_545 S
C1436 C1435 1.403 1_565 S
C1436 C1437 1.404 1_565 S
C1436 C1439 1.539 . S
C1437 C1433 1.408 . S
C1437 C1436 1.404 1_545 S
C1437 H1449 0.930 1_545 S
C1438 C1434 1.524 . S
C1438 H1450 0.956 . S
C1438 H1451 0.961 . S
C1438 H1452 0.961 . S
C1439 C1436 1.539 . S
C1439 H1453 0.958 . S
C1439 H1454 0.961 . S
C1439 H1455 0.960 . S
H1440 C1424 0.931 . S
H1441 C1429 0.929 . S
H1442 C1430 0.960 . S
H1443 C1430 0.962 . S
H1444 C1430 0.960 . S
H1445 C1431 0.961 . S
H1446 C1431 0.961 . S
H1447 C1431 0.961 . S
H1448 C1432 0.931 . S
H1449 C1437 0.930 1_565 S
H1450 C1438 0.956 . S
H1451 C1438 0.961 . S
H1452 C1438 0.961 . S
H1453 C1439 0.958 . S
H1454 C1439 0.961 . S
H1455 C1439 0.960 . S
C1456 C1457 1.391 1_455 S
C1456 C1458 1.394 . S
C1456 H1472 0.931 . S
C1457 C1456 1.391 1_655 S
C1457 C1461 1.376 . S
C1458 C1456 1.394 . S
C1458 C1459 1.369 1_455 S
C1458 C1462 1.531 . S
C1459 C1458 1.369 1_655 S
C1459 C1460 1.410 . S
C1459 C1467 1.503 1_655 S
C1460 C1459 1.410 . S
C1460 C1461 1.392 . S
C1460 C1463 1.511 . S
C1461 C1457 1.376 . S
C1461 C1460 1.392 . S
C1461 H1473 0.929 . S
C1462 C1458 1.531 . S
C1462 H1474 0.960 . S
C1462 H1475 0.962 . S
C1462 H1476 0.960 . S
C1463 C1460 1.511 . S
C1463 H1477 0.961 . S
C1463 H1478 0.961 . S
C1463 H1479 0.961 . S
C1464 C1465 1.370 . S
C1464 C1466 1.363 . S
C1464 H1480 0.931 . S
C1465 C1464 1.370 . S
C1465 C1469 1.408 . S
C1466 C1464 1.363 . S
C1466 C1467 1.370 . S
C1466 C1470 1.524 . S
C1467 C1459 1.503 1_455 S
C1467 C1466 1.370 . S
C1467 C1468 1.403 1_455 S
C1468 C1467 1.403 1_655 S
C1468 C1469 1.404 1_655 S
C1468 C1471 1.539 . S
C1469 C1465 1.408 . S
C1469 C1468 1.404 1_455 S
C1469 H1481 0.930 1_455 S
C1470 C1466 1.524 . S
C1470 H1482 0.956 . S
C1470 H1483 0.961 . S
C1470 H1484 0.961 . S
C1471 C1468 1.539 . S
C1471 H1485 0.958 . S
C1471 H1486 0.961 . S
C1471 H1487 0.960 . S
H1472 C1456 0.931 . S
H1473 C1461 0.929 . S
H1474 C1462 0.960 . S
H1475 C1462 0.962 . S
H1476 C1462 0.960 . S
H1477 C1463 0.961 . S
H1478 C1463 0.961 . S
H1479 C1463 0.961 . S
H1480 C1464 0.931 . S
H1481 C1469 0.930 1_655 S
H1482 C1470 0.956 . S
H1483 C1470 0.961 . S
H1484 C1470 0.961 . S
H1485 C1471 0.958 . S
H1486 C1471 0.961 . S
H1487 C1471 0.960 . S
C1488 C1489 1.391 . S
C1488 C1490 1.394 . S
C1488 H1504 0.931 . S
C1489 C1488 1.391 . S
C1489 C1493 1.376 . S
C1490 C1488 1.394 . S
C1490 C1491 1.369 . S
C1490 C1494 1.531 . S
C1491 C1490 1.369 . S
C1491 C1492 1.410 . S
C1491 C1499 1.518 . S
C1492 C1491 1.410 . S
C1492 C1493 1.392 . S
C1492 C1495 1.511 . S
C1493 C1489 1.376 . S
C1493 C1492 1.392 . S
C1493 H1505 0.929 . S
C1494 C1490 1.531 . S
C1494 H1506 0.960 . S
C1494 H1507 0.962 1_545 S
C1494 H1508 0.960 . S
C1495 C1492 1.511 . S
C1495 H1509 0.961 . S
C1495 H1510 0.961 . S
C1495 H1511 0.961 . S
C1496 C1497 1.370 . S
C1496 C1498 1.363 . S
C1496 H1512 0.931 . S
C1497 C1496 1.370 . S
C1497 C1501 1.408 1_565 S
C1498 C1496 1.363 . S
C1498 C1499 1.320 1_565 S
C1498 C1502 1.524 . S
C1499 C1491 1.518 . S
C1499 C1498 1.320 1_545 S
C1499 C1500 1.439 . S
C1500 C1499 1.439 . S
C1500 C1501 1.404 . S
C1500 C1503 1.539 . S
C1501 C1497 1.408 1_545 S
C1501 C1500 1.404 . S
C1501 H1513 0.930 . S
C1502 C1498 1.524 . S
C1502 H1514 0.956 . S
C1502 H1515 0.961 . S
C1502 H1516 0.961 . S
C1503 C1500 1.539 . S
C1503 H1517 0.958 . S
C1503 H1518 0.961 . S
C1503 H1519 0.960 . S
H1504 C1488 0.931 . S
H1505 C1493 0.929 . S
H1506 C1494 0.960 . S
H1507 C1494 0.962 1_565 S
H1508 C1494 0.960 . S
H1509 C1495 0.961 . S
H1510 C1495 0.961 . S
H1511 C1495 0.961 . S
H1512 C1496 0.931 . S
H1513 C1501 0.930 . S
H1514 C1502 0.956 . S
H1515 C1502 0.961 . S
H1516 C1502 0.961 . S
H1517 C1503 0.958 . S
H1518 C1503 0.961 . S
H1519 C1503 0.960 . S
C1520 C1521 1.391 1_655 S
C1520 C1522 1.394 . S
C1520 H1536 0.931 . S
C1521 C1520 1.391 1_455 S
C1521 C1525 1.376 . S
C1522 C1520 1.394 . S
C1522 C1523 1.369 1_655 S
C1522 C1526 1.531 . S
C1523 C1522 1.369 1_455 S
C1523 C1524 1.410 . S
C1523 C1531 1.495 1_455 S
C1524 C1523 1.410 . S
C1524 C1525 1.392 . S
C1524 C1527 1.511 . S
C1525 C1521 1.376 . S
C1525 C1524 1.392 . S
C1525 H1537 0.929 . S
C1526 C1522 1.531 . S
C1526 H1538 0.960 . S
C1526 H1539 0.962 . S
C1526 H1540 0.960 . S
C1527 C1524 1.511 . S
C1527 H1541 0.961 . S
C1527 H1542 0.961 . S
C1527 H1543 0.961 . S
C1528 C1529 1.370 . S
C1528 C1530 1.363 . S
C1528 H1544 0.931 . S
C1529 C1528 1.370 . S
C1529 C1533 1.408 1_655 S
C1530 C1528 1.363 . S
C1530 C1531 1.392 . S
C1530 C1534 1.524 . S
C1531 C1523 1.495 1_655 S
C1531 C1530 1.392 . S
C1531 C1532 1.391 1_655 S
C1532 C1531 1.391 1_455 S
C1532 C1533 1.404 . S
C1532 C1535 1.539 . S
C1533 C1529 1.408 1_455 S
C1533 C1532 1.404 . S
C1533 H1545 0.930 . S
C1534 C1530 1.524 . S
C1534 H1546 0.956 . S
C1534 H1547 0.961 . S
C1534 H1548 0.961 . S
C1535 C1532 1.539 . S
C1535 H1549 0.958 . S
C1535 H1550 0.961 . S
C1535 H1551 0.960 . S
H1536 C1520 0.931 . S
H1537 C1525 0.929 . S
H1538 C1526 0.960 . S
H1539 C1526 0.962 . S
H1540 C1526 0.960 . S
H1541 C1527 0.961 . S
H1542 C1527 0.961 . S
H1543 C1527 0.961 . S
H1544 C1528 0.931 . S
H1545 C1533 0.930 . S
H1546 C1534 0.956 . S
H1547 C1534 0.961 . S
H1548 C1534 0.961 . S
H1549 C1535 0.958 . S
H1550 C1535 0.961 . S
H1551 C1535 0.960 . S
C1552 C1553 1.391 . S
C1552 C1554 1.394 . S
C1552 H1568 0.931 . S
C1553 C1552 1.391 . S
C1553 C1557 1.376 . S
C1554 C1552 1.394 . S
C1554 C1555 1.369 1_565 S
C1554 C1558 1.531 . S
C1555 C1554 1.369 1_545 S
C1555 C1556 1.410 . S
C1555 C1563 1.503 . S
C1556 C1555 1.410 . S
C1556 C1557 1.392 1_545 S
C1556 C1559 1.511 . S
C1557 C1553 1.376 . S
C1557 C1556 1.392 1_565 S
C1557 H1569 0.929 . S
C1558 C1554 1.531 . S
C1558 H1570 0.960 1_565 S
C1558 H1571 0.962 . S
C1558 H1572 0.960 1_565 S
C1559 C1556 1.511 . S
C1559 H1573 0.954 1_545 S
C1559 H1574 0.961 . S
C1559 H1575 0.961 . S
C1560 C1561 1.370 1_565 S
C1560 C1562 1.363 . S
C1560 H1576 0.931 . S
C1561 C1560 1.370 1_545 S
C1561 C1565 1.408 . S
C1562 C1560 1.363 . S
C1562 C1563 1.370 1_565 S
C1562 C1566 1.524 . S
C1563 C1555 1.503 . S
C1563 C1562 1.370 1_545 S
C1563 C1564 1.403 . S
C1564 C1563 1.403 . S
C1564 C1565 1.404 . S
C1564 C1567 1.539 . S
C1565 C1561 1.408 . S
C1565 C1564 1.404 . S
C1565 H1577 0.930 . S
C1566 C1562 1.524 . S
C1566 H1578 0.956 . S
C1566 H1579 0.961 . S
C1566 H1580 0.961 . S
C1567 C1564 1.539 . S
C1567 H1581 0.958 . S
C1567 H1582 0.961 . S
C1567 H1583 0.960 . S
H1568 C1552 0.931 . S
H1569 C1557 0.929 . S
H1570 C1558 0.960 1_545 S
H1571 C1558 0.962 . S
H1572 C1558 0.960 1_545 S
H1573 C1559 0.954 1_565 S
H1574 C1559 0.961 . S
H1575 C1559 0.961 . S
H1576 C1560 0.931 . S
H1577 C1565 0.930 . S
H1578 C1566 0.956 . S
H1579 C1566 0.961 . S
H1580 C1566 0.961 . S
H1581 C1567 0.958 . S
H1582 C1567 0.961 . S
H1583 C1567 0.960 . S
C1584 C1585 1.391 . S
C1584 C1586 1.394 . S
C1584 H1600 0.931 . S
C1585 C1584 1.391 . S
C1585 C1589 1.376 . S
C1586 C1584 1.394 . S
C1586 C1587 1.369 . S
C1586 C1590 1.531 . S
C1587 C1586 1.369 . S
C1587 C1588 1.410 . S
C1587 C1595 1.515 . S
C1588 C1587 1.410 . S
C1588 C1589 1.392 . S
C1588 C1591 1.511 1_455 S
C1589 C1585 1.376 . S
C1589 C1588 1.392 . S
C1589 H1601 0.929 . S
C1590 C1586 1.531 . S
C1590 H1602 0.960 . S
C1590 H1603 0.962 . S
C1590 H1604 0.960 . S
C1591 C1588 1.511 1_655 S
C1591 H1605 0.961 . S
C1591 H1606 0.961 . S
C1591 H1607 0.961 1_655 S
C1592 C1593 1.370 . S
C1592 C1594 1.363 . S
C1592 H1608 0.931 . S
C1593 C1592 1.370 . S
C1593 C1597 1.408 1_655 S
C1594 C1592 1.363 . S
C1594 C1595 1.332 1_655 S
C1594 C1598 1.524 . S
C1595 C1587 1.515 . S
C1595 C1594 1.332 1_455 S
C1595 C1596 1.430 . S
C1596 C1595 1.430 . S
C1596 C1597 1.404 . S
C1596 C1599 1.539 . S
C1597 C1593 1.408 1_455 S
C1597 C1596 1.404 . S
C1597 H1609 0.930 . S
C1598 C1594 1.524 . S
C1598 H1610 0.956 . S
C1598 H1611 0.961 . S
C1598 H1612 0.961 . S
C1599 C1596 1.539 . S
C1599 H1613 0.958 . S
C1599 H1614 0.961 . S
C1599 H1615 0.960 . S
H1600 C1584 0.931 . S
H1601 C1589 0.929 . S
H1602 C1590 0.960 . S
H1603 C1590 0.962 . S
H1604 C1590 0.960 . S
H1605 C1591 0.961 . S
H1606 C1591 0.961 . S
H1607 C1591 0.961 1_455 S
H1608 C1592 0.931 . S
H1609 C1597 0.930 . S
H1610 C1598 0.956 . S
H1611 C1598 0.961 . S
H1612 C1598 0.961 . S
H1613 C1599 0.958 . S
H1614 C1599 0.961 . S
H1615 C1599 0.960 . S
C1616 C1617 1.391 . S
C1616 C1618 1.395 . S
C1616 H1632 0.931 . S
C1617 C1616 1.391 . S
C1617 C1621 1.376 . S
C1618 C1616 1.395 . S
C1618 C1619 1.368 1_545 S
C1618 C1622 1.530 1_545 S
C1619 C1618 1.368 1_565 S
C1619 C1620 1.403 1_565 S
C1619 C1627 1.503 . S
C1620 C1619 1.403 1_545 S
C1620 C1621 1.408 . S
C1620 C1623 1.505 1_545 S
C1621 C1617 1.376 . S
C1621 C1620 1.408 . S
C1621 H1633 0.929 . S
C1622 C1618 1.530 1_565 S
C1622 H1634 0.960 . S
C1622 H1635 0.962 1_565 S
C1622 H1636 0.960 . S
C1623 C1620 1.505 1_565 S
C1623 H1637 0.961 1_565 S
C1623 H1638 0.961 1_565 S
C1623 H1639 0.961 . S
C1624 C1625 1.370 1_545 S
C1624 C1626 1.363 . S
C1624 H1640 0.931 . S
C1625 C1624 1.370 1_565 S
C1625 C1629 1.408 . S
C1626 C1624 1.363 . S
C1626 C1627 1.370 1_545 S
C1626 C1630 1.524 . S
C1627 C1619 1.503 . S
C1627 C1626 1.370 1_565 S
C1627 C1628 1.403 . S
C1628 C1627 1.403 . S
C1628 C1629 1.404 . S
C1628 C1631 1.539 . S
C1629 C1625 1.408 . S
C1629 C1628 1.404 . S
C1629 H1641 0.930 . S
C1630 C1626 1.524 . S
C1630 H1642 0.956 . S
C1630 H1643 0.961 . S
C1630 H1644 0.961 . S
C1631 C1628 1.539 . S
C1631 H1645 0.958 . S
C1631 H1646 0.961 . S
C1631 H1647 0.960 . S
H1632 C1616 0.931 . S
H1633 C1621 0.929 . S
H1634 C1622 0.960 . S
H1635 C1622 0.962 1_545 S
H1636 C1622 0.960 . S
H1637 C1623 0.961 1_545 S
H1638 C1623 0.961 1_545 S
H1639 C1623 0.961 . S
H1640 C1624 0.931 . S
H1641 C1629 0.930 . S
H1642 C1630 0.956 . S
H1643 C1630 0.961 . S
H1644 C1630 0.961 . S
H1645 C1631 0.958 . S
H1646 C1631 0.961 . S
H1647 C1631 0.960 . S
C1648 C1649 1.391 . S
C1648 C1650 1.394 . S
C1648 H1664 0.931 . S
C1649 C1648 1.391 . S
C1649 C1653 1.376 . S
C1650 C1648 1.394 . S
C1650 C1651 1.369 . S
C1650 C1654 1.531 1_556 S
C1651 C1650 1.369 . S
C1651 C1652 1.410 . S
C1651 C1659 1.514 . S
C1652 C1651 1.410 . S
C1652 C1653 1.392 . S
C1652 C1655 1.511 . S
C1653 C1649 1.376 . S
C1653 C1652 1.392 . S
C1653 H1665 0.929 . S
C1654 C1650 1.531 1_554 S
C1654 H1666 0.969 . S
C1654 H1667 0.962 . S
C1654 H1668 0.976 . S
C1655 C1652 1.511 . S
C1655 H1669 0.961 . S
C1655 H1670 0.961 . S
C1655 H1671 0.961 . S
C1656 C1657 1.370 . S
C1656 C1658 1.363 . S
C1656 H1672 0.931 . S
C1657 C1656 1.370 . S
C1657 C1661 1.408 1_554 S
C1658 C1656 1.363 . S
C1658 C1659 1.336 1_554 S
C1658 C1662 1.524 . S
C1659 C1651 1.514 . S
C1659 C1658 1.336 1_556 S
C1659 C1660 1.427 . S
C1660 C1659 1.427 . S
C1660 C1661 1.404 . S
C1660 C1663 1.539 . S
C1661 C1657 1.408 1_556 S
C1661 C1660 1.404 . S
C1661 H1673 0.930 . S
C1662 C1658 1.524 . S
C1662 H1674 0.956 . S
C1662 H1675 0.961 . S
C1662 H1676 0.961 . S
C1663 C1660 1.539 . S
C1663 H1677 0.958 . S
C1663 H1678 0.961 . S
C1663 H1679 0.960 . S
H1664 C1648 0.931 . S
H1665 C1653 0.929 . S
H1666 C1654 0.969 . S
H1667 C1654 0.962 . S
H1668 C1654 0.976 . S
H1669 C1655 0.961 . S
H1670 C1655 0.961 . S
H1671 C1655 0.961 . S
H1672 C1656 0.931 . S
H1673 C1661 0.930 . S
H1674 C1662 0.956 . S
H1675 C1662 0.961 . S
H1676 C1662 0.961 . S
H1677 C1663 0.958 . S
H1678 C1663 0.961 . S
H1679 C1663 0.960 . S
C1680 C1681 1.391 . S
C1680 C1682 1.394 . S
C1680 H1696 0.931 . S
C1681 C1680 1.391 . S
C1681 C1685 1.376 . S
C1682 C1680 1.394 . S
C1682 C1683 1.369 . S
C1682 C1686 1.531 1_554 S
C1683 C1682 1.369 . S
C1683 C1684 1.410 . S
C1683 C1691 1.512 . S
C1684 C1683 1.410 . S
C1684 C1685 1.392 . S
C1684 C1687 1.511 . S
C1685 C1681 1.376 . S
C1685 C1684 1.392 . S
C1685 H1697 0.929 . S
C1686 C1682 1.531 1_556 S
C1686 H1698 0.960 . S
C1686 H1699 0.962 . S
C1686 H1700 0.960 . S
C1687 C1684 1.511 . S
C1687 H1701 0.961 . S
C1687 H1702 0.961 . S
C1687 H1703 0.961 . S
C1688 C1689 1.370 . S
C1688 C1690 1.363 . S
C1688 H1704 0.931 . S
C1689 C1688 1.370 . S
C1689 C1693 1.408 1_556 S
C1690 C1688 1.363 . S
C1690 C1691 1.343 1_556 S
C1690 C1694 1.524 . S
C1691 C1683 1.512 . S
C1691 C1690 1.343 1_554 S
C1691 C1692 1.422 . S
C1692 C1691 1.422 . S
C1692 C1693 1.404 . S
C1692 C1695 1.539 . S
C1693 C1689 1.408 1_554 S
C1693 C1692 1.404 . S
C1693 H1705 0.930 . S
C1694 C1690 1.524 . S
C1694 H1706 0.956 . S
C1694 H1707 0.961 . S
C1694 H1708 0.961 . S
C1695 C1692 1.539 . S
C1695 H1709 0.958 . S
C1695 H1710 0.961 . S
C1695 H1711 0.960 . S
H1696 C1680 0.931 . S
H1697 C1685 0.929 . S
H1698 C1686 0.960 . S
H1699 C1686 0.962 . S
H1700 C1686 0.960 . S
H1701 C1687 0.961 . S
H1702 C1687 0.961 . S
H1703 C1687 0.961 . S
H1704 C1688 0.931 . S
H1705 C1693 0.930 . S
H1706 C1694 0.956 . S
H1707 C1694 0.961 . S
H1708 C1694 0.961 . S
H1709 C1695 0.958 . S
H1710 C1695 0.961 . S
H1711 C1695 0.960 . S
C1712 C1713 1.391 . S
C1712 C1714 1.394 . S
C1712 H1728 0.931 . S
C1713 C1712 1.391 . S
C1713 C1717 1.376 . S
C1714 C1712 1.394 . S
C1714 C1715 1.369 . S
C1714 C1718 1.531 . S
C1715 C1714 1.369 . S
C1715 C1716 1.410 . S
C1715 C1723 1.519 . S
C1716 C1715 1.410 . S
C1716 C1717 1.392 . S
C1716 C1719 1.511 . S
C1717 C1713 1.376 . S
C1717 C1716 1.392 . S
C1717 H1729 0.929 . S
C1718 C1714 1.531 . S
C1718 H1730 0.960 . S
C1718 H1731 0.962 1_554 S
C1718 H1732 0.960 . S
C1719 C1716 1.511 . S
C1719 H1733 0.961 . S
C1719 H1734 0.957 1_554 S
C1719 H1735 0.961 . S
C1720 C1721 1.370 . S
C1720 C1722 1.363 . S
C1720 H1736 0.931 . S
C1721 C1720 1.370 . S
C1721 C1725 1.408 1_556 S
C1722 C1720 1.363 . S
C1722 C1723 1.319 1_556 S
C1722 C1726 1.524 . S
C1723 C1715 1.519 . S
C1723 C1722 1.319 1_554 S
C1723 C1724 1.440 . S
C1724 C1723 1.440 . S
C1724 C1725 1.404 . S
C1724 C1727 1.539 . S
C1725 C1721 1.408 1_554 S
C1725 C1724 1.404 . S
C1725 H1737 0.930 . S
C1726 C1722 1.524 . S
C1726 H1738 0.956 . S
C1726 H1739 0.961 . S
C1726 H1740 0.961 . S
C1727 C1724 1.539 . S
C1727 H1741 0.958 . S
C1727 H1742 0.961 . S
C1727 H1743 0.960 . S
H1728 C1712 0.931 . S
H1729 C1717 0.929 . S
H1730 C1718 0.960 . S
H1731 C1718 0.962 1_556 S
H1732 C1718 0.960 . S
H1733 C1719 0.961 . S
H1734 C1719 0.957 1_556 S
H1735 C1719 0.961 . S
H1736 C1720 0.931 . S
H1737 C1725 0.930 . S
H1738 C1726 0.956 . S
H1739 C1726 0.961 . S
H1740 C1726 0.961 . S
H1741 C1727 0.958 . S
H1742 C1727 0.961 . S
H1743 C1727 0.960 . S
C1744 C1745 1.391 1_554 S
C1744 C1746 1.394 . S
C1744 H1760 0.931 . S
C1745 C1744 1.391 1_556 S
C1745 C1749 1.376 . S
C1746 C1744 1.394 . S
C1746 C1747 1.369 . S
C1746 C1750 1.531 . S
C1747 C1746 1.369 . S
C1747 C1748 1.410 1_554 S
C1747 C1755 1.503 . S
C1748 C1747 1.410 1_556 S
C1748 C1749 1.392 . S
C1748 C1751 1.511 . S
C1749 C1745 1.376 . S
C1749 C1748 1.392 . S
C1749 H1761 0.929 . S
C1750 C1746 1.531 . S
C1750 H1762 0.960 . S
C1750 H1763 0.962 . S
C1750 H1764 0.960 . S
C1751 C1748 1.511 . S
C1751 H1765 0.961 . S
C1751 H1766 0.961 . S
C1751 H1767 0.961 . S
C1752 C1753 1.370 1_556 S
C1752 C1754 1.363 . S
C1752 H1768 0.931 . S
C1753 C1752 1.370 1_554 S
C1753 C1757 1.408 . S
C1754 C1752 1.363 . S
C1754 C1755 1.370 1_556 S
C1754 C1758 1.524 . S
C1755 C1747 1.503 . S
C1755 C1754 1.370 1_554 S
C1755 C1756 1.403 . S
C1756 C1755 1.403 . S
C1756 C1757 1.404 . S
C1756 C1759 1.539 . S
C1757 C1753 1.408 . S
C1757 C1756 1.404 . S
C1757 H1769 0.930 . S
C1758 C1754 1.524 . S
C1758 H1770 0.956 . S
C1758 H1771 0.961 . S
C1758 H1772 0.961 . S
C1759 C1756 1.539 . S
C1759 H1773 0.958 . S
C1759 H1774 0.961 . S
C1759 H1775 0.960 . S
H1760 C1744 0.931 . S
H1761 C1749 0.929 . S
H1762 C1750 0.960 . S
H1763 C1750 0.962 . S
H1764 C1750 0.960 . S
H1765 C1751 0.961 . S
H1766 C1751 0.961 . S
H1767 C1751 0.961 . S
H1768 C1752 0.931 . S
H1769 C1757 0.930 . S
H1770 C1758 0.956 . S
H1771 C1758 0.961 . S
H1772 C1758 0.961 . S
H1773 C1759 0.958 . S
H1774 C1759 0.961 . S
H1775 C1759 0.960 . S
C1776 C1777 1.391 . S
C1776 C1778 1.394 . S
C1776 H1792 0.931 . S
C1777 C1776 1.391 . S
C1777 C1781 1.376 . S
C1778 C1776 1.394 . S
C1778 C1779 1.369 . S
C1778 C1782 1.531 . S
C1779 C1778 1.369 . S
C1779 C1780 1.410 . S
C1779 C1787 1.503 . S
C1780 C1779 1.410 . S
C1780 C1781 1.392 . S
C1780 C1783 1.511 . S
C1781 C1777 1.376 . S
C1781 C1780 1.392 . S
C1781 H1793 0.929 . S
C1782 C1778 1.531 . S
C1782 H1794 0.960 . S
C1782 H1795 0.962 . S
C1782 H1796 0.960 . S
C1783 C1780 1.511 . S
C1783 H1797 0.961 . S
C1783 H1798 0.961 . S
C1783 H1799 0.961 . S
C1784 C1785 1.370 . S
C1784 C1786 1.363 . S
C1784 H1800 0.931 . S
C1785 C1784 1.370 . S
C1785 C1789 1.408 . S
C1786 C1784 1.363 . S
C1786 C1787 1.370 . S
C1786 C1790 1.524 . S
C1787 C1779 1.503 . S
C1787 C1786 1.370 . S
C1787 C1788 1.403 . S
C1788 C1787 1.403 . S
C1788 C1789 1.404 . S
C1788 C1791 1.539 . S
C1789 C1785 1.408 . S
C1789 C1788 1.404 . S
C1789 H1801 0.930 . S
C1790 C1786 1.524 . S
C1790 H1802 0.956 . S
C1790 H1803 0.961 . S
C1790 H1804 0.961 . S
C1791 C1788 1.539 . S
C1791 H1805 0.958 . S
C1791 H1806 0.961 . S
C1791 H1807 0.960 . S
H1792 C1776 0.931 . S
H1793 C1781 0.929 . S
H1794 C1782 0.960 . S
H1795 C1782 0.962 . S
H1796 C1782 0.960 . S
H1797 C1783 0.961 . S
H1798 C1783 0.961 . S
H1799 C1783 0.961 . S
H1800 C1784 0.931 . S
H1801 C1789 0.930 . S
H1802 C1790 0.956 . S
H1803 C1790 0.961 . S
H1804 C1790 0.961 . S
H1805 C1791 0.958 . S
H1806 C1791 0.961 . S
H1807 C1791 0.960 . S
C1808 C1809 1.391 . S
C1808 C1810 1.394 . S
C1808 H1824 0.931 . S
C1809 C1808 1.391 . S
C1809 C1813 1.376 . S
C1810 C1808 1.394 . S
C1810 C1811 1.369 . S
C1810 C1814 1.531 . S
C1811 C1810 1.369 . S
C1811 C1812 1.410 . S
C1811 C1819 1.503 . S
C1812 C1811 1.410 . S
C1812 C1813 1.392 . S
C1812 C1815 1.511 . S
C1813 C1809 1.376 . S
C1813 C1812 1.392 . S
C1813 H1825 0.929 . S
C1814 C1810 1.531 . S
C1814 H1826 0.960 . S
C1814 H1827 0.962 . S
C1814 H1828 0.960 . S
C1815 C1812 1.511 . S
C1815 H1829 0.961 . S
C1815 H1830 0.961 . S
C1815 H1831 0.961 . S
C1816 C1817 1.370 . S
C1816 C1818 1.363 . S
C1816 H1832 0.931 . S
C1817 C1816 1.370 . S
C1817 C1821 1.408 . S
C1818 C1816 1.363 . S
C1818 C1819 1.370 . S
C1818 C1822 1.524 . S
C1819 C1811 1.503 . S
C1819 C1818 1.370 . S
C1819 C1820 1.403 . S
C1820 C1819 1.403 . S
C1820 C1821 1.404 . S
C1820 C1823 1.539 . S
C1821 C1817 1.408 . S
C1821 C1820 1.404 . S
C1821 H1833 0.930 . S
C1822 C1818 1.524 . S
C1822 H1834 0.956 . S
C1822 H1835 0.961 . S
C1822 H1836 0.961 . S
C1823 C1820 1.539 . S
C1823 H1837 0.958 . S
C1823 H1838 0.961 . S
C1823 H1839 0.960 . S
H1824 C1808 0.931 . S
H1825 C1813 0.929 . S
H1826 C1814 0.960 . S
H1827 C1814 0.962 . S
H1828 C1814 0.960 . S
H1829 C1815 0.961 . S
H1830 C1815 0.961 . S
H1831 C1815 0.961 . S
H1832 C1816 0.931 . S
H1833 C1821 0.930 . S
H1834 C1822 0.956 . S
H1835 C1822 0.961 . S
H1836 C1822 0.961 . S
H1837 C1823 0.958 . S
H1838 C1823 0.961 . S
H1839 C1823 0.960 . S
C1840 C1841 1.391 . S
C1840 C1842 1.394 . S
C1840 H1856 0.931 . S
C1841 C1840 1.391 . S
C1841 C1845 1.376 . S
C1842 C1840 1.394 . S
C1842 C1843 1.369 . S
C1842 C1846 1.531 . S
C1843 C1842 1.369 . S
C1843 C1844 1.410 . S
C1843 C1851 1.503 . S
C1844 C1843 1.410 . S
C1844 C1845 1.392 . S
C1844 C1847 1.511 . S
C1845 C1841 1.376 . S
C1845 C1844 1.392 . S
C1845 H1857 0.929 . S
C1846 C1842 1.531 . S
C1846 H1858 0.960 . S
C1846 H1859 0.962 . S
C1846 H1860 0.960 . S
C1847 C1844 1.511 . S
C1847 H1861 0.961 . S
C1847 H1862 0.961 . S
C1847 H1863 0.961 . S
C1848 C1849 1.370 . S
C1848 C1850 1.363 . S
C1848 H1864 0.931 . S
C1849 C1848 1.370 . S
C1849 C1853 1.408 . S
C1850 C1848 1.363 . S
C1850 C1851 1.370 . S
C1850 C1854 1.524 . S
C1851 C1843 1.503 . S
C1851 C1850 1.370 . S
C1851 C1852 1.403 . S
C1852 C1851 1.403 . S
C1852 C1853 1.404 . S
C1852 C1855 1.539 . S
C1853 C1849 1.408 . S
C1853 C1852 1.404 . S
C1853 H1865 0.930 . S
C1854 C1850 1.524 . S
C1854 H1866 0.956 . S
C1854 H1867 0.961 . S
C1854 H1868 0.961 . S
C1855 C1852 1.539 . S
C1855 H1869 0.958 . S
C1855 H1870 0.961 . S
C1855 H1871 0.960 . S
H1856 C1840 0.931 . S
H1857 C1845 0.929 . S
H1858 C1846 0.960 . S
H1859 C1846 0.962 . S
H1860 C1846 0.960 . S
H1861 C1847 0.961 . S
H1862 C1847 0.961 . S
H1863 C1847 0.961 . S
H1864 C1848 0.931 . S
H1865 C1853 0.930 . S
H1866 C1854 0.956 . S
H1867 C1854 0.961 . S
H1868 C1854 0.961 . S
H1869 C1855 0.958 . S
H1870 C1855 0.961 . S
H1871 C1855 0.960 . S
C1872 C1873 1.391 . S
C1872 C1874 1.394 . S
C1872 H1888 0.931 . S
C1873 C1872 1.391 . S
C1873 C1877 1.376 . S
C1874 C1872 1.394 . S
C1874 C1875 1.369 . S
C1874 C1878 1.531 . S
C1875 C1874 1.369 . S
C1875 C1876 1.410 . S
C1875 C1883 1.503 . S
C1876 C1875 1.410 . S
C1876 C1877 1.392 . S
C1876 C1879 1.511 . S
C1877 C1873 1.376 . S
C1877 C1876 1.392 . S
C1877 H1889 0.929 . S
C1878 C1874 1.531 . S
C1878 H1890 0.960 . S
C1878 H1891 0.962 . S
C1878 H1892 0.960 . S
C1879 C1876 1.511 . S
C1879 H1893 0.961 . S
C1879 H1894 0.961 . S
C1879 H1895 0.961 . S
C1880 C1881 1.370 . S
C1880 C1882 1.363 . S
C1880 H1896 0.931 . S
C1881 C1880 1.370 . S
C1881 C1885 1.408 . S
C1882 C1880 1.363 . S
C1882 C1883 1.370 . S
C1882 C1886 1.524 . S
C1883 C1875 1.503 . S
C1883 C1882 1.370 . S
C1883 C1884 1.403 . S
C1884 C1883 1.403 . S
C1884 C1885 1.404 . S
C1884 C1887 1.539 . S
C1885 C1881 1.408 . S
C1885 C1884 1.404 . S
C1885 H1897 0.930 . S
C1886 C1882 1.524 . S
C1886 H1898 0.956 . S
C1886 H1899 0.961 . S
C1886 H1900 0.961 . S
C1887 C1884 1.539 . S
C1887 H1901 0.958 . S
C1887 H1902 0.961 . S
C1887 H1903 0.960 . S
H1888 C1872 0.931 . S
H1889 C1877 0.929 . S
H1890 C1878 0.960 . S
H1891 C1878 0.962 . S
H1892 C1878 0.960 . S
H1893 C1879 0.961 . S
H1894 C1879 0.961 . S
H1895 C1879 0.961 . S
H1896 C1880 0.931 . S
H1897 C1885 0.930 . S
H1898 C1886 0.956 . S
H1899 C1886 0.961 . S
H1900 C1886 0.961 . S
H1901 C1887 0.958 . S
H1902 C1887 0.961 . S
H1903 C1887 0.960 . S
C1904 C1905 1.391 . S
C1904 C1906 1.394 . S
C1904 H1920 0.931 . S
C1905 C1904 1.391 . S
C1905 C1909 1.376 . S
C1906 C1904 1.394 . S
C1906 C1907 1.369 . S
C1906 C1910 1.531 . S
C1907 C1906 1.369 . S
C1907 C1908 1.410 . S
C1907 C1915 1.503 . S
C1908 C1907 1.410 . S
C1908 C1909 1.392 . S
C1908 C1911 1.511 . S
C1909 C1905 1.376 . S
C1909 C1908 1.392 . S
C1909 H1921 0.929 . S
C1910 C1906 1.531 . S
C1910 H1922 0.960 . S
C1910 H1923 0.962 . S
C1910 H1924 0.960 . S
C1911 C1908 1.511 . S
C1911 H1925 0.961 . S
C1911 H1926 0.961 . S
C1911 H1927 0.961 . S
C1912 C1913 1.370 . S
C1912 C1914 1.363 . S
C1912 H1928 0.931 . S
C1913 C1912 1.370 . S
C1913 C1917 1.408 . S
C1914 C1912 1.363 . S
C1914 C1915 1.370 . S
C1914 C1918 1.524 . S
C1915 C1907 1.503 . S
C1915 C1914 1.370 . S
C1915 C1916 1.403 . S
C1916 C1915 1.403 . S
C1916 C1917 1.404 . S
C1916 C1919 1.539 . S
C1917 C1913 1.408 . S
C1917 C1916 1.404 . S
C1917 H1929 0.930 . S
C1918 C1914 1.524 . S
C1918 H1930 0.956 . S
C1918 H1931 0.961 . S
C1918 H1932 0.961 . S
C1919 C1916 1.539 . S
C1919 H1933 0.958 . S
C1919 H1934 0.961 . S
C1919 H1935 0.960 . S
H1920 C1904 0.931 . S
H1921 C1909 0.929 . S
H1922 C1910 0.960 . S
H1923 C1910 0.962 . S
H1924 C1910 0.960 . S
H1925 C1911 0.961 . S
H1926 C1911 0.961 . S
H1927 C1911 0.961 . S
H1928 C1912 0.931 . S
H1929 C1917 0.930 . S
H1930 C1918 0.956 . S
H1931 C1918 0.961 . S
H1932 C1918 0.961 . S
H1933 C1919 0.958 . S
H1934 C1919 0.961 . S
H1935 C1919 0.960 . S
C1936 C1937 1.391 . S
C1936 C1938 1.394 . S
C1936 H1952 0.931 . S
C1937 C1936 1.391 . S
C1937 C1941 1.376 . S
C1938 C1936 1.394 . S
C1938 C1939 1.369 . S
C1938 C1942 1.531 . S
C1939 C1938 1.369 . S
C1939 C1940 1.410 . S
C1939 C1947 1.503 . S
C1940 C1939 1.410 . S
C1940 C1941 1.392 . S
C1940 C1943 1.511 . S
C1941 C1937 1.376 . S
C1941 C1940 1.392 . S
C1941 H1953 0.929 . S
C1942 C1938 1.531 . S
C1942 H1954 0.960 . S
C1942 H1955 0.962 . S
C1942 H1956 0.960 . S
C1943 C1940 1.511 . S
C1943 H1957 0.961 . S
C1943 H1958 0.961 . S
C1943 H1959 0.961 . S
C1944 C1945 1.370 . S
C1944 C1946 1.363 . S
C1944 H1960 0.931 . S
C1945 C1944 1.370 . S
C1945 C1949 1.408 . S
C1946 C1944 1.363 . S
C1946 C1947 1.370 . S
C1946 C1950 1.524 . S
C1947 C1939 1.503 . S
C1947 C1946 1.370 . S
C1947 C1948 1.403 . S
C1948 C1947 1.403 . S
C1948 C1949 1.404 . S
C1948 C1951 1.539 . S
C1949 C1945 1.408 . S
C1949 C1948 1.404 . S
C1949 H1961 0.930 . S
C1950 C1946 1.524 . S
C1950 H1962 0.956 . S
C1950 H1963 0.961 . S
C1950 H1964 0.961 . S
C1951 C1948 1.539 . S
C1951 H1965 0.958 . S
C1951 H1966 0.961 . S
C1951 H1967 0.960 . S
H1952 C1936 0.931 . S
H1953 C1941 0.929 . S
H1954 C1942 0.960 . S
H1955 C1942 0.962 . S
H1956 C1942 0.960 . S
H1957 C1943 0.961 . S
H1958 C1943 0.961 . S
H1959 C1943 0.961 . S
H1960 C1944 0.931 . S
H1961 C1949 0.930 . S
H1962 C1950 0.956 . S
H1963 C1950 0.961 . S
H1964 C1950 0.961 . S
H1965 C1951 0.958 . S
H1966 C1951 0.961 . S
H1967 C1951 0.960 . S
C1968 C1969 1.391 . S
C1968 C1970 1.394 . S
C1968 H1984 0.931 . S
C1969 C1968 1.391 . S
C1969 C1973 1.376 . S
C1970 C1968 1.394 . S
C1970 C1971 1.369 . S
C1970 C1974 1.531 . S
C1971 C1970 1.369 . S
C1971 C1972 1.410 . S
C1971 C1979 1.503 . S
C1972 C1971 1.410 . S
C1972 C1973 1.392 . S
C1972 C1975 1.511 . S
C1973 C1969 1.376 . S
C1973 C1972 1.392 . S
C1973 H1985 0.929 . S
C1974 C1970 1.531 . S
C1974 H1986 0.960 . S
C1974 H1987 0.962 . S
C1974 H1988 0.960 . S
C1975 C1972 1.511 . S
C1975 H1989 0.961 . S
C1975 H1990 0.961 . S
C1975 H1991 0.961 . S
C1976 C1977 1.370 . S
C1976 C1978 1.363 . S
C1976 H1992 0.931 . S
C1977 C1976 1.370 . S
C1977 C1981 1.408 . S
C1978 C1976 1.363 . S
C1978 C1979 1.370 . S
C1978 C1982 1.524 . S
C1979 C1971 1.503 . S
C1979 C1978 1.370 . S
C1979 C1980 1.403 . S
C1980 C1979 1.403 . S
C1980 C1981 1.404 . S
C1980 C1983 1.539 . S
C1981 C1977 1.408 . S
C1981 C1980 1.404 . S
C1981 H1993 0.930 . S
C1982 C1978 1.524 . S
C1982 H1994 0.956 . S
C1982 H1995 0.961 . S
C1982 H1996 0.961 . S
C1983 C1980 1.539 . S
C1983 H1997 0.958 . S
C1983 H1998 0.961 . S
C1983 H1999 0.960 . S
H1984 C1968 0.931 . S
H1985 C1973 0.929 . S
H1986 C1974 0.960 . S
H1987 C1974 0.962 . S
H1988 C1974 0.960 . S
H1989 C1975 0.961 . S
H1990 C1975 0.961 . S
H1991 C1975 0.961 . S
H1992 C1976 0.931 . S
H1993 C1981 0.930 . S
H1994 C1982 0.956 . S
H1995 C1982 0.961 . S
H1996 C1982 0.961 . S
H1997 C1983 0.958 . S
H1998 C1983 0.961 . S
H1999 C1983 0.960 . S
C2000 C2001 1.391 . S
C2000 C2002 1.394 . S
C2000 H2016 0.931 . S
C2001 C2000 1.391 . S
C2001 C2005 1.376 . S
C2002 C2000 1.394 . S
C2002 C2003 1.369 . S
C2002 C2006 1.531 . S
C2003 C2002 1.369 . S
C2003 C2004 1.410 . S
C2003 C2011 1.503 . S
C2004 C2003 1.410 . S
C2004 C2005 1.392 . S
C2004 C2007 1.511 . S
C2005 C2001 1.376 . S
C2005 C2004 1.392 . S
C2005 H2017 0.929 . S
C2006 C2002 1.531 . S
C2006 H2018 0.960 . S
C2006 H2019 0.962 . S
C2006 H2020 0.960 . S
C2007 C2004 1.511 . S
C2007 H2021 0.961 . S
C2007 H2022 0.961 . S
C2007 H2023 0.961 . S
C2008 C2009 1.370 . S
C2008 C2010 1.363 . S
C2008 H2024 0.931 . S
C2009 C2008 1.370 . S
C2009 C2013 1.408 . S
C2010 C2008 1.363 . S
C2010 C2011 1.370 . S
C2010 C2014 1.524 . S
C2011 C2003 1.503 . S
C2011 C2010 1.370 . S
C2011 C2012 1.403 . S
C2012 C2011 1.403 . S
C2012 C2013 1.404 . S
C2012 C2015 1.539 . S
C2013 C2009 1.408 . S
C2013 C2012 1.404 . S
C2013 H2025 0.930 . S
C2014 C2010 1.524 . S
C2014 H2026 0.956 . S
C2014 H2027 0.961 . S
C2014 H2028 0.961 . S
C2015 C2012 1.539 . S
C2015 H2029 0.958 . S
C2015 H2030 0.961 . S
C2015 H2031 0.960 . S
H2016 C2000 0.931 . S
H2017 C2005 0.929 . S
H2018 C2006 0.960 . S
H2019 C2006 0.962 . S
H2020 C2006 0.960 . S
H2021 C2007 0.961 . S
H2022 C2007 0.961 . S
H2023 C2007 0.961 . S
H2024 C2008 0.931 . S
H2025 C2013 0.930 . S
H2026 C2014 0.956 . S
H2027 C2014 0.961 . S
H2028 C2014 0.961 . S
H2029 C2015 0.958 . S
H2030 C2015 0.961 . S
H2031 C2015 0.960 . S
C2032 C2033 1.391 . S
C2032 C2034 1.394 . S
C2032 H2048 0.931 . S
C2033 C2032 1.391 . S
C2033 C2037 1.376 . S
C2034 C2032 1.394 . S
C2034 C2035 1.369 . S
C2034 C2038 1.531 . S
C2035 C2034 1.369 . S
C2035 C2036 1.410 . S
C2035 C2043 1.503 . S
C2036 C2035 1.410 . S
C2036 C2037 1.392 . S
C2036 C2039 1.511 . S
C2037 C2033 1.376 . S
C2037 C2036 1.392 . S
C2037 H2049 0.929 . S
C2038 C2034 1.531 . S
C2038 H2050 0.960 . S
C2038 H2051 0.962 . S
C2038 H2052 0.960 . S
C2039 C2036 1.511 . S
C2039 H2053 0.961 . S
C2039 H2054 0.961 . S
C2039 H2055 0.961 . S
C2040 C2041 1.370 . S
C2040 C2042 1.363 . S
C2040 H2056 0.931 . S
C2041 C2040 1.370 . S
C2041 C2045 1.408 . S
C2042 C2040 1.363 . S
C2042 C2043 1.370 . S
C2042 C2046 1.524 . S
C2043 C2035 1.503 . S
C2043 C2042 1.370 . S
C2043 C2044 1.403 . S
C2044 C2043 1.403 . S
C2044 C2045 1.404 . S
C2044 C2047 1.539 . S
C2045 C2041 1.408 . S
C2045 C2044 1.404 . S
C2045 H2057 0.930 . S
C2046 C2042 1.524 . S
C2046 H2058 0.956 . S
C2046 H2059 0.961 . S
C2046 H2060 0.961 . S
C2047 C2044 1.539 . S
C2047 H2061 0.958 . S
C2047 H2062 0.961 . S
C2047 H2063 0.960 . S
H2048 C2032 0.931 . S
H2049 C2037 0.929 . S
H2050 C2038 0.960 . S
H2051 C2038 0.962 . S
H2052 C2038 0.960 . S
H2053 C2039 0.961 . S
H2054 C2039 0.961 . S
H2055 C2039 0.961 . S
H2056 C2040 0.931 . S
H2057 C2045 0.930 . S
H2058 C2046 0.956 . S
H2059 C2046 0.961 . S
H2060 C2046 0.961 . S
H2061 C2047 0.958 . S
H2062 C2047 0.961 . S
H2063 C2047 0.960 . S
C2064 C2065 1.391 . S
C2064 C2066 1.394 . S
C2064 H2080 0.931 . S
C2065 C2064 1.391 . S
C2065 C2069 1.376 . S
C2066 C2064 1.394 . S
C2066 C2067 1.369 . S
C2066 C2070 1.531 . S
C2067 C2066 1.369 . S
C2067 C2068 1.410 . S
C2067 C2075 1.503 . S
C2068 C2067 1.410 . S
C2068 C2069 1.392 . S
C2068 C2071 1.511 . S
C2069 C2065 1.376 . S
C2069 C2068 1.392 . S
C2069 H2081 0.929 . S
C2070 C2066 1.531 . S
C2070 H2082 0.960 . S
C2070 H2083 0.962 . S
C2070 H2084 0.960 . S
C2071 C2068 1.511 . S
C2071 H2085 0.961 . S
C2071 H2086 0.961 . S
C2071 H2087 0.961 . S
C2072 C2073 1.370 . S
C2072 C2074 1.363 . S
C2072 H2088 0.931 . S
C2073 C2072 1.370 . S
C2073 C2077 1.408 . S
C2074 C2072 1.363 . S
C2074 C2075 1.370 . S
C2074 C2078 1.524 . S
C2075 C2067 1.503 . S
C2075 C2074 1.370 . S
C2075 C2076 1.403 . S
C2076 C2075 1.403 . S
C2076 C2077 1.404 . S
C2076 C2079 1.539 . S
C2077 C2073 1.408 . S
C2077 C2076 1.404 . S
C2077 H2089 0.930 . S
C2078 C2074 1.524 . S
C2078 H2090 0.956 . S
C2078 H2091 0.961 . S
C2078 H2092 0.961 . S
C2079 C2076 1.539 . S
C2079 H2093 0.958 . S
C2079 H2094 0.961 . S
C2079 H2095 0.960 . S
H2080 C2064 0.931 . S
H2081 C2069 0.929 . S
H2082 C2070 0.960 . S
H2083 C2070 0.962 . S
H2084 C2070 0.960 . S
H2085 C2071 0.961 . S
H2086 C2071 0.961 . S
H2087 C2071 0.961 . S
H2088 C2072 0.931 . S
H2089 C2077 0.930 . S
H2090 C2078 0.956 . S
H2091 C2078 0.961 . S
H2092 C2078 0.961 . S
H2093 C2079 0.958 . S
H2094 C2079 0.961 . S
H2095 C2079 0.960 . S
C2096 C2097 1.391 . S
C2096 C2098 1.394 . S
C2096 H2112 0.931 . S
C2097 C2096 1.391 . S
C2097 C2101 1.376 . S
C2098 C2096 1.394 . S
C2098 C2099 1.369 . S
C2098 C2102 1.531 . S
C2099 C2098 1.369 . S
C2099 C2100 1.410 . S
C2099 C2107 1.503 . S
C2100 C2099 1.410 . S
C2100 C2101 1.392 . S
C2100 C2103 1.511 . S
C2101 C2097 1.376 . S
C2101 C2100 1.392 . S
C2101 H2113 0.929 . S
C2102 C2098 1.531 . S
C2102 H2114 0.960 . S
C2102 H2115 0.962 . S
C2102 H2116 0.960 . S
C2103 C2100 1.511 . S
C2103 H2117 0.961 . S
C2103 H2118 0.961 . S
C2103 H2119 0.961 . S
C2104 C2105 1.370 . S
C2104 C2106 1.363 . S
C2104 H2120 0.931 . S
C2105 C2104 1.370 . S
C2105 C2109 1.408 . S
C2106 C2104 1.363 . S
C2106 C2107 1.370 . S
C2106 C2110 1.524 . S
C2107 C2099 1.503 . S
C2107 C2106 1.370 . S
C2107 C2108 1.403 . S
C2108 C2107 1.403 . S
C2108 C2109 1.404 . S
C2108 C2111 1.539 . S
C2109 C2105 1.408 . S
C2109 C2108 1.404 . S
C2109 H2121 0.930 . S
C2110 C2106 1.524 . S
C2110 H2122 0.956 . S
C2110 H2123 0.961 . S
C2110 H2124 0.961 . S
C2111 C2108 1.539 . S
C2111 H2125 0.958 . S
C2111 H2126 0.961 . S
C2111 H2127 0.960 . S
H2112 C2096 0.931 . S
H2113 C2101 0.929 . S
H2114 C2102 0.960 . S
H2115 C2102 0.962 . S
H2116 C2102 0.960 . S
H2117 C2103 0.961 . S
H2118 C2103 0.961 . S
H2119 C2103 0.961 . S
H2120 C2104 0.931 . S
H2121 C2109 0.930 . S
H2122 C2110 0.956 . S
H2123 C2110 0.961 . S
H2124 C2110 0.961 . S
H2125 C2111 0.958 . S
H2126 C2111 0.961 . S
H2127 C2111 0.960 . S
C2128 C2129 1.391 . S
C2128 C2130 1.394 . S
C2128 H2144 0.931 . S
C2129 C2128 1.391 . S
C2129 C2133 1.376 . S
C2130 C2128 1.394 . S
C2130 C2131 1.369 . S
C2130 C2134 1.531 . S
C2131 C2130 1.369 . S
C2131 C2132 1.410 . S
C2131 C2139 1.503 . S
C2132 C2131 1.410 . S
C2132 C2133 1.392 . S
C2132 C2135 1.511 . S
C2133 C2129 1.376 . S
C2133 C2132 1.392 . S
C2133 H2145 0.929 . S
C2134 C2130 1.531 . S
C2134 H2146 0.960 . S
C2134 H2147 0.962 . S
C2134 H2148 0.960 . S
C2135 C2132 1.511 . S
C2135 H2149 0.961 . S
C2135 H2150 0.961 . S
C2135 H2151 0.961 . S
C2136 C2137 1.370 . S
C2136 C2138 1.363 . S
C2136 H2152 0.931 . S
C2137 C2136 1.370 . S
C2137 C2141 1.408 . S
C2138 C2136 1.363 . S
C2138 C2139 1.370 . S
C2138 C2142 1.524 . S
C2139 C2131 1.503 . S
C2139 C2138 1.370 . S
C2139 C2140 1.403 . S
C2140 C2139 1.403 . S
C2140 C2141 1.404 . S
C2140 C2143 1.539 . S
C2141 C2137 1.408 . S
C2141 C2140 1.404 . S
C2141 H2153 0.930 . S
C2142 C2138 1.524 . S
C2142 H2154 0.956 . S
C2142 H2155 0.961 . S
C2142 H2156 0.961 . S
C2143 C2140 1.539 . S
C2143 H2157 0.958 . S
C2143 H2158 0.961 . S
C2143 H2159 0.960 . S
H2144 C2128 0.931 . S
H2145 C2133 0.929 . S
H2146 C2134 0.960 . S
H2147 C2134 0.962 . S
H2148 C2134 0.960 . S
H2149 C2135 0.961 . S
H2150 C2135 0.961 . S
H2151 C2135 0.961 . S
H2152 C2136 0.931 . S
H2153 C2141 0.930 . S
H2154 C2142 0.956 . S
H2155 C2142 0.961 . S
H2156 C2142 0.961 . S
H2157 C2143 0.958 . S
H2158 C2143 0.961 . S
H2159 C2143 0.960 . S
C2160 C2161 1.391 . S
C2160 C2162 1.394 . S
C2160 H2176 0.931 . S
C2161 C2160 1.391 . S
C2161 C2165 1.376 . S
C2162 C2160 1.394 . S
C2162 C2163 1.369 . S
C2162 C2166 1.531 . S
C2163 C2162 1.369 . S
C2163 C2164 1.410 . S
C2163 C2171 1.503 . S
C2164 C2163 1.410 . S
C2164 C2165 1.392 . S
C2164 C2167 1.511 . S
C2165 C2161 1.376 . S
C2165 C2164 1.392 . S
C2165 H2177 0.929 . S
C2166 C2162 1.531 . S
C2166 H2178 0.960 . S
C2166 H2179 0.962 . S
C2166 H2180 0.960 . S
C2167 C2164 1.511 . S
C2167 H2181 0.961 . S
C2167 H2182 0.961 . S
C2167 H2183 0.961 . S
C2168 C2169 1.370 . S
C2168 C2170 1.363 . S
C2168 H2184 0.931 . S
C2169 C2168 1.370 . S
C2169 C2173 1.408 . S
C2170 C2168 1.363 . S
C2170 C2171 1.370 . S
C2170 C2174 1.524 . S
C2171 C2163 1.503 . S
C2171 C2170 1.370 . S
C2171 C2172 1.403 . S
C2172 C2171 1.403 . S
C2172 C2173 1.404 . S
C2172 C2175 1.539 . S
C2173 C2169 1.408 . S
C2173 C2172 1.404 . S
C2173 H2185 0.930 . S
C2174 C2170 1.524 . S
C2174 H2186 0.956 . S
C2174 H2187 0.961 . S
C2174 H2188 0.961 . S
C2175 C2172 1.539 . S
C2175 H2189 0.958 . S
C2175 H2190 0.961 . S
C2175 H2191 0.960 . S
H2176 C2160 0.931 . S
H2177 C2165 0.929 . S
H2178 C2166 0.960 . S
H2179 C2166 0.962 . S
H2180 C2166 0.960 . S
H2181 C2167 0.961 . S
H2182 C2167 0.961 . S
H2183 C2167 0.961 . S
H2184 C2168 0.931 . S
H2185 C2173 0.930 . S
H2186 C2174 0.956 . S
H2187 C2174 0.961 . S
H2188 C2174 0.961 . S
H2189 C2175 0.958 . S
H2190 C2175 0.961 . S
H2191 C2175 0.960 . S
C2192 C2193 1.391 . S
C2192 C2194 1.394 . S
C2192 H2208 0.931 . S
C2193 C2192 1.391 . S
C2193 C2197 1.376 . S
C2194 C2192 1.394 . S
C2194 C2195 1.369 . S
C2194 C2198 1.531 . S
C2195 C2194 1.369 . S
C2195 C2196 1.410 . S
C2195 C2203 1.503 . S
C2196 C2195 1.410 . S
C2196 C2197 1.392 . S
C2196 C2199 1.511 . S
C2197 C2193 1.376 . S
C2197 C2196 1.392 . S
C2197 H2209 0.929 . S
C2198 C2194 1.531 . S
C2198 H2210 0.960 . S
C2198 H2211 0.962 . S
C2198 H2212 0.960 . S
C2199 C2196 1.511 . S
C2199 H2213 0.961 . S
C2199 H2214 0.961 . S
C2199 H2215 0.961 . S
C2200 C2201 1.370 . S
C2200 C2202 1.363 . S
C2200 H2216 0.931 . S
C2201 C2200 1.370 . S
C2201 C2205 1.408 . S
C2202 C2200 1.363 . S
C2202 C2203 1.370 . S
C2202 C2206 1.524 . S
C2203 C2195 1.503 . S
C2203 C2202 1.370 . S
C2203 C2204 1.403 . S
C2204 C2203 1.403 . S
C2204 C2205 1.404 . S
C2204 C2207 1.539 . S
C2205 C2201 1.408 . S
C2205 C2204 1.404 . S
C2205 H2217 0.930 . S
C2206 C2202 1.524 . S
C2206 H2218 0.956 . S
C2206 H2219 0.961 . S
C2206 H2220 0.961 . S
C2207 C2204 1.539 . S
C2207 H2221 0.958 . S
C2207 H2222 0.961 . S
C2207 H2223 0.960 . S
H2208 C2192 0.931 . S
H2209 C2197 0.929 . S
H2210 C2198 0.960 . S
H2211 C2198 0.962 . S
H2212 C2198 0.960 . S
H2213 C2199 0.961 . S
H2214 C2199 0.961 . S
H2215 C2199 0.961 . S
H2216 C2200 0.931 . S
H2217 C2205 0.930 . S
H2218 C2206 0.956 . S
H2219 C2206 0.961 . S
H2220 C2206 0.961 . S
H2221 C2207 0.958 . S
H2222 C2207 0.961 . S
H2223 C2207 0.960 . S
C2224 C2225 1.391 . S
C2224 C2226 1.394 . S
C2224 H2240 0.931 . S
C2225 C2224 1.391 . S
C2225 C2229 1.376 . S
C2226 C2224 1.394 . S
C2226 C2227 1.369 . S
C2226 C2230 1.531 . S
C2227 C2226 1.369 . S
C2227 C2228 1.410 . S
C2227 C2235 1.503 . S
C2228 C2227 1.410 . S
C2228 C2229 1.392 . S
C2228 C2231 1.511 . S
C2229 C2225 1.376 . S
C2229 C2228 1.392 . S
C2229 H2241 0.929 . S
C2230 C2226 1.531 . S
C2230 H2242 0.960 . S
C2230 H2243 0.962 . S
C2230 H2244 0.960 . S
C2231 C2228 1.511 . S
C2231 H2245 0.961 . S
C2231 H2246 0.961 . S
C2231 H2247 0.961 . S
C2232 C2233 1.370 . S
C2232 C2234 1.363 . S
C2232 H2248 0.931 . S
C2233 C2232 1.370 . S
C2233 C2237 1.408 . S
C2234 C2232 1.363 . S
C2234 C2235 1.370 . S
C2234 C2238 1.524 . S
C2235 C2227 1.503 . S
C2235 C2234 1.370 . S
C2235 C2236 1.403 . S
C2236 C2235 1.403 . S
C2236 C2237 1.404 . S
C2236 C2239 1.539 . S
C2237 C2233 1.408 . S
C2237 C2236 1.404 . S
C2237 H2249 0.930 . S
C2238 C2234 1.524 . S
C2238 H2250 0.956 . S
C2238 H2251 0.961 . S
C2238 H2252 0.961 . S
C2239 C2236 1.539 . S
C2239 H2253 0.958 . S
C2239 H2254 0.961 . S
C2239 H2255 0.960 . S
H2240 C2224 0.931 . S
H2241 C2229 0.929 . S
H2242 C2230 0.960 . S
H2243 C2230 0.962 . S
H2244 C2230 0.960 . S
H2245 C2231 0.961 . S
H2246 C2231 0.961 . S
H2247 C2231 0.961 . S
H2248 C2232 0.931 . S
H2249 C2237 0.930 . S
H2250 C2238 0.956 . S
H2251 C2238 0.961 . S
H2252 C2238 0.961 . S
H2253 C2239 0.958 . S
H2254 C2239 0.961 . S
H2255 C2239 0.960 . S
C2256 C2257 1.391 . S
C2256 C2258 1.394 . S
C2256 H2272 0.931 . S
C2257 C2256 1.391 . S
C2257 C2261 1.376 . S
C2258 C2256 1.394 . S
C2258 C2259 1.369 . S
C2258 C2262 1.531 . S
C2259 C2258 1.369 . S
C2259 C2260 1.410 . S
C2259 C2267 1.503 . S
C2260 C2259 1.410 . S
C2260 C2261 1.392 . S
C2260 C2263 1.511 . S
C2261 C2257 1.376 . S
C2261 C2260 1.392 . S
C2261 H2273 0.929 . S
C2262 C2258 1.531 . S
C2262 H2274 0.960 . S
C2262 H2275 0.962 . S
C2262 H2276 0.960 . S
C2263 C2260 1.511 . S
C2263 H2277 0.961 . S
C2263 H2278 0.961 . S
C2263 H2279 0.961 . S
C2264 C2265 1.370 . S
C2264 C2266 1.363 . S
C2264 H2280 0.931 . S
C2265 C2264 1.370 . S
C2265 C2269 1.408 . S
C2266 C2264 1.363 . S
C2266 C2267 1.370 . S
C2266 C2270 1.524 . S
C2267 C2259 1.503 . S
C2267 C2266 1.370 . S
C2267 C2268 1.403 . S
C2268 C2267 1.403 . S
C2268 C2269 1.404 . S
C2268 C2271 1.539 . S
C2269 C2265 1.408 . S
C2269 C2268 1.404 . S
C2269 H2281 0.930 . S
C2270 C2266 1.524 . S
C2270 H2282 0.956 . S
C2270 H2283 0.961 . S
C2270 H2284 0.961 . S
C2271 C2268 1.539 . S
C2271 H2285 0.958 . S
C2271 H2286 0.961 . S
C2271 H2287 0.960 . S
H2272 C2256 0.931 . S
H2273 C2261 0.929 . S
H2274 C2262 0.960 . S
H2275 C2262 0.962 . S
H2276 C2262 0.960 . S
H2277 C2263 0.961 . S
H2278 C2263 0.961 . S
H2279 C2263 0.961 . S
H2280 C2264 0.931 . S
H2281 C2269 0.930 . S
H2282 C2270 0.956 . S
H2283 C2270 0.961 . S
H2284 C2270 0.961 . S
H2285 C2271 0.958 . S
H2286 C2271 0.961 . S
H2287 C2271 0.960 . S
C2288 C2289 1.391 . S
C2288 C2290 1.394 . S
C2288 H2304 0.931 . S
C2289 C2288 1.391 . S
C2289 C2293 1.376 . S
C2290 C2288 1.394 . S
C2290 C2291 1.369 . S
C2290 C2294 1.531 . S
C2291 C2290 1.369 . S
C2291 C2292 1.410 . S
C2291 C2299 1.503 . S
C2292 C2291 1.410 . S
C2292 C2293 1.392 . S
C2292 C2295 1.511 . S
C2293 C2289 1.376 . S
C2293 C2292 1.392 . S
C2293 H2305 0.929 . S
C2294 C2290 1.531 . S
C2294 H2306 0.960 . S
C2294 H2307 0.962 . S
C2294 H2308 0.960 . S
C2295 C2292 1.511 . S
C2295 H2309 0.961 . S
C2295 H2310 0.961 . S
C2295 H2311 0.961 . S
C2296 C2297 1.370 . S
C2296 C2298 1.363 . S
C2296 H2312 0.931 . S
C2297 C2296 1.370 . S
C2297 C2301 1.408 . S
C2298 C2296 1.363 . S
C2298 C2299 1.370 . S
C2298 C2302 1.524 . S
C2299 C2291 1.503 . S
C2299 C2298 1.370 . S
C2299 C2300 1.403 . S
C2300 C2299 1.403 . S
C2300 C2301 1.404 . S
C2300 C2303 1.539 . S
C2301 C2297 1.408 . S
C2301 C2300 1.404 . S
C2301 H2313 0.930 . S
C2302 C2298 1.524 . S
C2302 H2314 0.956 . S
C2302 H2315 0.961 . S
C2302 H2316 0.961 . S
C2303 C2300 1.539 . S
C2303 H2317 0.958 . S
C2303 H2318 0.961 . S
C2303 H2319 0.960 . S
H2304 C2288 0.931 . S
H2305 C2293 0.929 . S
H2306 C2294 0.960 . S
H2307 C2294 0.962 . S
H2308 C2294 0.960 . S
H2309 C2295 0.961 . S
H2310 C2295 0.961 . S
H2311 C2295 0.961 . S
H2312 C2296 0.931 . S
H2313 C2301 0.930 . S
H2314 C2302 0.956 . S
H2315 C2302 0.961 . S
H2316 C2302 0.961 . S
H2317 C2303 0.958 . S
H2318 C2303 0.961 . S
H2319 C2303 0.960 . S
C2320 C2321 1.391 . S
C2320 C2322 1.394 . S
C2320 H2336 0.931 . S
C2321 C2320 1.391 . S
C2321 C2325 1.376 . S
C2322 C2320 1.394 . S
C2322 C2323 1.369 . S
C2322 C2326 1.531 . S
C2323 C2322 1.369 . S
C2323 C2324 1.410 . S
C2323 C2331 1.503 . S
C2324 C2323 1.410 . S
C2324 C2325 1.392 . S
C2324 C2327 1.511 . S
C2325 C2321 1.376 . S
C2325 C2324 1.392 . S
C2325 H2337 0.929 . S
C2326 C2322 1.531 . S
C2326 H2338 0.960 . S
C2326 H2339 0.962 . S
C2326 H2340 0.960 . S
C2327 C2324 1.511 . S
C2327 H2341 0.961 . S
C2327 H2342 0.961 . S
C2327 H2343 0.961 . S
C2328 C2329 1.370 . S
C2328 C2330 1.363 . S
C2328 H2344 0.931 . S
C2329 C2328 1.370 . S
C2329 C2333 1.408 . S
C2330 C2328 1.363 . S
C2330 C2331 1.370 . S
C2330 C2334 1.524 . S
C2331 C2323 1.503 . S
C2331 C2330 1.370 . S
C2331 C2332 1.403 . S
C2332 C2331 1.403 . S
C2332 C2333 1.404 . S
C2332 C2335 1.539 . S
C2333 C2329 1.408 . S
C2333 C2332 1.404 . S
C2333 H2345 0.930 . S
C2334 C2330 1.524 . S
C2334 H2346 0.956 . S
C2334 H2347 0.961 . S
C2334 H2348 0.961 . S
C2335 C2332 1.539 . S
C2335 H2349 0.958 . S
C2335 H2350 0.961 . S
C2335 H2351 0.960 . S
H2336 C2320 0.931 . S
H2337 C2325 0.929 . S
H2338 C2326 0.960 . S
H2339 C2326 0.962 . S
H2340 C2326 0.960 . S
H2341 C2327 0.961 . S
H2342 C2327 0.961 . S
H2343 C2327 0.961 . S
H2344 C2328 0.931 . S
H2345 C2333 0.930 . S
H2346 C2334 0.956 . S
H2347 C2334 0.961 . S
H2348 C2334 0.961 . S
H2349 C2335 0.958 . S
H2350 C2335 0.961 . S
H2351 C2335 0.960 . S
C2352 C2353 1.391 . S
C2352 C2354 1.394 . S
C2352 H2368 0.931 . S
C2353 C2352 1.391 . S
C2353 C2357 1.376 . S
C2354 C2352 1.394 . S
C2354 C2355 1.369 . S
C2354 C2358 1.531 . S
C2355 C2354 1.369 . S
C2355 C2356 1.410 . S
C2355 C2363 1.503 . S
C2356 C2355 1.410 . S
C2356 C2357 1.392 . S
C2356 C2359 1.511 . S
C2357 C2353 1.376 . S
C2357 C2356 1.392 . S
C2357 H2369 0.929 . S
C2358 C2354 1.531 . S
C2358 H2370 0.960 . S
C2358 H2371 0.962 . S
C2358 H2372 0.960 . S
C2359 C2356 1.511 . S
C2359 H2373 0.961 . S
C2359 H2374 0.961 . S
C2359 H2375 0.961 . S
C2360 C2361 1.370 . S
C2360 C2362 1.363 . S
C2360 H2376 0.931 . S
C2361 C2360 1.370 . S
C2361 C2365 1.408 . S
C2362 C2360 1.363 . S
C2362 C2363 1.370 . S
C2362 C2366 1.524 . S
C2363 C2355 1.503 . S
C2363 C2362 1.370 . S
C2363 C2364 1.403 . S
C2364 C2363 1.403 . S
C2364 C2365 1.404 . S
C2364 C2367 1.539 . S
C2365 C2361 1.408 . S
C2365 C2364 1.404 . S
C2365 H2377 0.930 . S
C2366 C2362 1.524 . S
C2366 H2378 0.956 . S
C2366 H2379 0.961 . S
C2366 H2380 0.961 . S
C2367 C2364 1.539 . S
C2367 H2381 0.958 . S
C2367 H2382 0.961 . S
C2367 H2383 0.960 . S
H2368 C2352 0.931 . S
H2369 C2357 0.929 . S
H2370 C2358 0.960 . S
H2371 C2358 0.962 . S
H2372 C2358 0.960 . S
H2373 C2359 0.961 . S
H2374 C2359 0.961 . S
H2375 C2359 0.961 . S
H2376 C2360 0.931 . S
H2377 C2365 0.930 . S
H2378 C2366 0.956 . S
H2379 C2366 0.961 . S
H2380 C2366 0.961 . S
H2381 C2367 0.958 . S
H2382 C2367 0.961 . S
H2383 C2367 0.960 . S
C2384 C2385 1.391 . S
C2384 C2386 1.394 . S
C2384 H2400 0.931 . S
C2385 C2384 1.391 . S
C2385 C2389 1.376 . S
C2386 C2384 1.394 . S
C2386 C2387 1.369 . S
C2386 C2390 1.531 . S
C2387 C2386 1.369 . S
C2387 C2388 1.410 . S
C2387 C2395 1.503 . S
C2388 C2387 1.410 . S
C2388 C2389 1.392 . S
C2388 C2391 1.511 . S
C2389 C2385 1.376 . S
C2389 C2388 1.392 . S
C2389 H2401 0.929 . S
C2390 C2386 1.531 . S
C2390 H2402 0.960 . S
C2390 H2403 0.962 . S
C2390 H2404 0.960 . S
C2391 C2388 1.511 . S
C2391 H2405 0.961 . S
C2391 H2406 0.961 . S
C2391 H2407 0.961 . S
C2392 C2393 1.370 . S
C2392 C2394 1.363 . S
C2392 H2408 0.931 . S
C2393 C2392 1.370 . S
C2393 C2397 1.408 . S
C2394 C2392 1.363 . S
C2394 C2395 1.370 . S
C2394 C2398 1.524 . S
C2395 C2387 1.503 . S
C2395 C2394 1.370 . S
C2395 C2396 1.403 . S
C2396 C2395 1.403 . S
C2396 C2397 1.404 . S
C2396 C2399 1.539 . S
C2397 C2393 1.408 . S
C2397 C2396 1.404 . S
C2397 H2409 0.930 . S
C2398 C2394 1.524 . S
C2398 H2410 0.956 . S
C2398 H2411 0.961 . S
C2398 H2412 0.961 . S
C2399 C2396 1.539 . S
C2399 H2413 0.958 . S
C2399 H2414 0.961 . S
C2399 H2415 0.960 . S
H2400 C2384 0.931 . S
H2401 C2389 0.929 . S
H2402 C2390 0.960 . S
H2403 C2390 0.962 . S
H2404 C2390 0.960 . S
H2405 C2391 0.961 . S
H2406 C2391 0.961 . S
H2407 C2391 0.961 . S
H2408 C2392 0.931 . S
H2409 C2397 0.930 . S
H2410 C2398 0.956 . S
H2411 C2398 0.961 . S
H2412 C2398 0.961 . S
H2413 C2399 0.958 . S
H2414 C2399 0.961 . S
H2415 C2399 0.960 . S
C2416 C2417 1.391 . S
C2416 C2418 1.394 . S
C2416 H2432 0.931 . S
C2417 C2416 1.391 . S
C2417 C2421 1.376 . S
C2418 C2416 1.394 . S
C2418 C2419 1.369 . S
C2418 C2422 1.531 . S
C2419 C2418 1.369 . S
C2419 C2420 1.410 . S
C2419 C2427 1.503 . S
C2420 C2419 1.410 . S
C2420 C2421 1.392 . S
C2420 C2423 1.511 . S
C2421 C2417 1.376 . S
C2421 C2420 1.392 . S
C2421 H2433 0.929 . S
C2422 C2418 1.531 . S
C2422 H2434 0.960 . S
C2422 H2435 0.962 . S
C2422 H2436 0.960 . S
C2423 C2420 1.511 . S
C2423 H2437 0.961 . S
C2423 H2438 0.961 . S
C2423 H2439 0.961 . S
C2424 C2425 1.370 . S
C2424 C2426 1.363 . S
C2424 H2440 0.931 . S
C2425 C2424 1.370 . S
C2425 C2429 1.408 . S
C2426 C2424 1.363 . S
C2426 C2427 1.370 . S
C2426 C2430 1.524 . S
C2427 C2419 1.503 . S
C2427 C2426 1.370 . S
C2427 C2428 1.403 . S
C2428 C2427 1.403 . S
C2428 C2429 1.404 . S
C2428 C2431 1.539 . S
C2429 C2425 1.408 . S
C2429 C2428 1.404 . S
C2429 H2441 0.930 . S
C2430 C2426 1.524 . S
C2430 H2442 0.956 . S
C2430 H2443 0.961 . S
C2430 H2444 0.961 . S
C2431 C2428 1.539 . S
C2431 H2445 0.958 . S
C2431 H2446 0.961 . S
C2431 H2447 0.960 . S
H2432 C2416 0.931 . S
H2433 C2421 0.929 . S
H2434 C2422 0.960 . S
H2435 C2422 0.962 . S
H2436 C2422 0.960 . S
H2437 C2423 0.961 . S
H2438 C2423 0.961 . S
H2439 C2423 0.961 . S
H2440 C2424 0.931 . S
H2441 C2429 0.930 . S
H2442 C2430 0.956 . S
H2443 C2430 0.961 . S
H2444 C2430 0.961 . S
H2445 C2431 0.958 . S
H2446 C2431 0.961 . S
H2447 C2431 0.960 . S
C2448 C2449 1.391 . S
C2448 C2450 1.394 . S
C2448 H2464 0.931 . S
C2449 C2448 1.391 . S
C2449 C2453 1.376 . S
C2450 C2448 1.394 . S
C2450 C2451 1.369 . S
C2450 C2454 1.531 . S
C2451 C2450 1.369 . S
C2451 C2452 1.410 . S
C2451 C2459 1.503 . S
C2452 C2451 1.410 . S
C2452 C2453 1.392 . S
C2452 C2455 1.511 . S
C2453 C2449 1.376 . S
C2453 C2452 1.392 . S
C2453 H2465 0.929 . S
C2454 C2450 1.531 . S
C2454 H2466 0.960 . S
C2454 H2467 0.962 . S
C2454 H2468 0.960 . S
C2455 C2452 1.511 . S
C2455 H2469 0.961 . S
C2455 H2470 0.961 . S
C2455 H2471 0.961 . S
C2456 C2457 1.370 . S
C2456 C2458 1.363 . S
C2456 H2472 0.931 . S
C2457 C2456 1.370 . S
C2457 C2461 1.408 . S
C2458 C2456 1.363 . S
C2458 C2459 1.370 . S
C2458 C2462 1.524 . S
C2459 C2451 1.503 . S
C2459 C2458 1.370 . S
C2459 C2460 1.403 . S
C2460 C2459 1.403 . S
C2460 C2461 1.404 . S
C2460 C2463 1.539 . S
C2461 C2457 1.408 . S
C2461 C2460 1.404 . S
C2461 H2473 0.930 . S
C2462 C2458 1.524 . S
C2462 H2474 0.956 . S
C2462 H2475 0.961 . S
C2462 H2476 0.961 . S
C2463 C2460 1.539 . S
C2463 H2477 0.958 . S
C2463 H2478 0.961 . S
C2463 H2479 0.960 . S
H2464 C2448 0.931 . S
H2465 C2453 0.929 . S
H2466 C2454 0.960 . S
H2467 C2454 0.962 . S
H2468 C2454 0.960 . S
H2469 C2455 0.961 . S
H2470 C2455 0.961 . S
H2471 C2455 0.961 . S
H2472 C2456 0.931 . S
H2473 C2461 0.930 . S
H2474 C2462 0.956 . S
H2475 C2462 0.961 . S
H2476 C2462 0.961 . S
H2477 C2463 0.958 . S
H2478 C2463 0.961 . S
H2479 C2463 0.960 . S
C2480 C2481 1.391 . S
C2480 C2482 1.394 . S
C2480 H2496 0.931 . S
C2481 C2480 1.391 . S
C2481 C2485 1.376 . S
C2482 C2480 1.394 . S
C2482 C2483 1.369 . S
C2482 C2486 1.531 . S
C2483 C2482 1.369 . S
C2483 C2484 1.410 . S
C2483 C2491 1.503 . S
C2484 C2483 1.410 . S
C2484 C2485 1.392 . S
C2484 C2487 1.511 . S
C2485 C2481 1.376 . S
C2485 C2484 1.392 . S
C2485 H2497 0.929 . S
C2486 C2482 1.531 . S
C2486 H2498 0.960 . S
C2486 H2499 0.962 . S
C2486 H2500 0.960 . S
C2487 C2484 1.511 . S
C2487 H2501 0.961 . S
C2487 H2502 0.961 . S
C2487 H2503 0.961 . S
C2488 C2489 1.370 . S
C2488 C2490 1.363 . S
C2488 H2504 0.931 . S
C2489 C2488 1.370 . S
C2489 C2493 1.408 . S
C2490 C2488 1.363 . S
C2490 C2491 1.370 . S
C2490 C2494 1.524 . S
C2491 C2483 1.503 . S
C2491 C2490 1.370 . S
C2491 C2492 1.403 . S
C2492 C2491 1.403 . S
C2492 C2493 1.404 . S
C2492 C2495 1.539 . S
C2493 C2489 1.408 . S
C2493 C2492 1.404 . S
C2493 H2505 0.930 . S
C2494 C2490 1.524 . S
C2494 H2506 0.956 . S
C2494 H2507 0.961 . S
C2494 H2508 0.961 . S
C2495 C2492 1.539 . S
C2495 H2509 0.958 . S
C2495 H2510 0.961 . S
C2495 H2511 0.960 . S
H2496 C2480 0.931 . S
H2497 C2485 0.929 . S
H2498 C2486 0.960 . S
H2499 C2486 0.962 . S
H2500 C2486 0.960 . S
H2501 C2487 0.961 . S
H2502 C2487 0.961 . S
H2503 C2487 0.961 . S
H2504 C2488 0.931 . S
H2505 C2493 0.930 . S
H2506 C2494 0.956 . S
H2507 C2494 0.961 . S
H2508 C2494 0.961 . S
H2509 C2495 0.958 . S
H2510 C2495 0.961 . S
H2511 C2495 0.960 . S
C2512 C2513 1.391 . S
C2512 C2514 1.394 . S
C2512 H2528 0.931 . S
C2513 C2512 1.391 . S
C2513 C2517 1.376 . S
C2514 C2512 1.394 . S
C2514 C2515 1.369 . S
C2514 C2518 1.531 . S
C2515 C2514 1.369 . S
C2515 C2516 1.410 . S
C2515 C2523 1.503 . S
C2516 C2515 1.410 . S
C2516 C2517 1.392 . S
C2516 C2519 1.511 . S
C2517 C2513 1.376 . S
C2517 C2516 1.392 . S
C2517 H2529 0.929 . S
C2518 C2514 1.531 . S
C2518 H2530 0.960 . S
C2518 H2531 0.962 . S
C2518 H2532 0.960 . S
C2519 C2516 1.511 . S
C2519 H2533 0.961 . S
C2519 H2534 0.961 . S
C2519 H2535 0.961 . S
C2520 C2521 1.370 . S
C2520 C2522 1.363 . S
C2520 H2536 0.931 . S
C2521 C2520 1.370 . S
C2521 C2525 1.408 . S
C2522 C2520 1.363 . S
C2522 C2523 1.370 . S
C2522 C2526 1.524 . S
C2523 C2515 1.503 . S
C2523 C2522 1.370 . S
C2523 C2524 1.403 . S
C2524 C2523 1.403 . S
C2524 C2525 1.404 . S
C2524 C2527 1.539 . S
C2525 C2521 1.408 . S
C2525 C2524 1.404 . S
C2525 H2537 0.930 . S
C2526 C2522 1.524 . S
C2526 H2538 0.956 . S
C2526 H2539 0.961 . S
C2526 H2540 0.961 . S
C2527 C2524 1.539 . S
C2527 H2541 0.958 . S
C2527 H2542 0.961 . S
C2527 H2543 0.960 . S
H2528 C2512 0.931 . S
H2529 C2517 0.929 . S
H2530 C2518 0.960 . S
H2531 C2518 0.962 . S
H2532 C2518 0.960 . S
H2533 C2519 0.961 . S
H2534 C2519 0.961 . S
H2535 C2519 0.961 . S
H2536 C2520 0.931 . S
H2537 C2525 0.930 . S
H2538 C2526 0.956 . S
H2539 C2526 0.961 . S
H2540 C2526 0.961 . S
H2541 C2527 0.958 . S
H2542 C2527 0.961 . S
H2543 C2527 0.960 . S
C2544 C2545 1.391 . S
C2544 C2546 1.394 . S
C2544 H2560 0.931 . S
C2545 C2544 1.391 . S
C2545 C2549 1.376 . S
C2546 C2544 1.394 . S
C2546 C2547 1.369 . S
C2546 C2550 1.531 . S
C2547 C2546 1.369 . S
C2547 C2548 1.410 . S
C2547 C2555 1.503 . S
C2548 C2547 1.410 . S
C2548 C2549 1.392 . S
C2548 C2551 1.511 . S
C2549 C2545 1.376 . S
C2549 C2548 1.392 . S
C2549 H2561 0.929 . S
C2550 C2546 1.531 . S
C2550 H2562 0.960 . S
C2550 H2563 0.962 . S
C2550 H2564 0.960 . S
C2551 C2548 1.511 . S
C2551 H2565 0.961 . S
C2551 H2566 0.961 . S
C2551 H2567 0.961 . S
C2552 C2553 1.370 . S
C2552 C2554 1.363 . S
C2552 H2568 0.931 . S
C2553 C2552 1.370 . S
C2553 C2557 1.408 . S
C2554 C2552 1.363 . S
C2554 C2555 1.370 . S
C2554 C2558 1.524 . S
C2555 C2547 1.503 . S
C2555 C2554 1.370 . S
C2555 C2556 1.403 . S
C2556 C2555 1.403 . S
C2556 C2557 1.404 . S
C2556 C2559 1.539 . S
C2557 C2553 1.408 . S
C2557 C2556 1.404 . S
C2557 H2569 0.930 . S
C2558 C2554 1.524 . S
C2558 H2570 0.956 . S
C2558 H2571 0.961 . S
C2558 H2572 0.961 . S
C2559 C2556 1.539 . S
C2559 H2573 0.958 . S
C2559 H2574 0.961 . S
C2559 H2575 0.960 . S
H2560 C2544 0.931 . S
H2561 C2549 0.929 . S
H2562 C2550 0.960 . S
H2563 C2550 0.962 . S
H2564 C2550 0.960 . S
H2565 C2551 0.961 . S
H2566 C2551 0.961 . S
H2567 C2551 0.961 . S
H2568 C2552 0.931 . S
H2569 C2557 0.930 . S
H2570 C2558 0.956 . S
H2571 C2558 0.961 . S
H2572 C2558 0.961 . S
H2573 C2559 0.958 . S
H2574 C2559 0.961 . S
H2575 C2559 0.960 . S
C2576 C2577 1.391 . S
C2576 C2578 1.394 . S
C2576 H2592 0.931 . S
C2577 C2576 1.391 . S
C2577 C2581 1.376 . S
C2578 C2576 1.394 . S
C2578 C2579 1.369 . S
C2578 C2582 1.531 . S
C2579 C2578 1.369 . S
C2579 C2580 1.410 . S
C2579 C2587 1.503 . S
C2580 C2579 1.410 . S
C2580 C2581 1.392 . S
C2580 C2583 1.511 . S
C2581 C2577 1.376 . S
C2581 C2580 1.392 . S
C2581 H2593 0.929 . S
C2582 C2578 1.531 . S
C2582 H2594 0.960 . S
C2582 H2595 0.962 . S
C2582 H2596 0.960 . S
C2583 C2580 1.511 . S
C2583 H2597 0.961 . S
C2583 H2598 0.961 . S
C2583 H2599 0.961 . S
C2584 C2585 1.370 . S
C2584 C2586 1.363 . S
C2584 H2600 0.931 . S
C2585 C2584 1.370 . S
C2585 C2589 1.408 . S
C2586 C2584 1.363 . S
C2586 C2587 1.370 . S
C2586 C2590 1.524 . S
C2587 C2579 1.503 . S
C2587 C2586 1.370 . S
C2587 C2588 1.403 . S
C2588 C2587 1.403 . S
C2588 C2589 1.404 . S
C2588 C2591 1.539 . S
C2589 C2585 1.408 . S
C2589 C2588 1.404 . S
C2589 H2601 0.930 . S
C2590 C2586 1.524 . S
C2590 H2602 0.956 . S
C2590 H2603 0.961 . S
C2590 H2604 0.961 . S
C2591 C2588 1.539 . S
C2591 H2605 0.958 . S
C2591 H2606 0.961 . S
C2591 H2607 0.960 . S
H2592 C2576 0.931 . S
H2593 C2581 0.929 . S
H2594 C2582 0.960 . S
H2595 C2582 0.962 . S
H2596 C2582 0.960 . S
H2597 C2583 0.961 . S
H2598 C2583 0.961 . S
H2599 C2583 0.961 . S
H2600 C2584 0.931 . S
H2601 C2589 0.930 . S
H2602 C2590 0.956 . S
H2603 C2590 0.961 . S
H2604 C2590 0.961 . S
H2605 C2591 0.958 . S
H2606 C2591 0.961 . S
H2607 C2591 0.960 . S
C2608 C2609 1.391 . S
C2608 C2610 1.394 . S
C2608 H2624 0.931 . S
C2609 C2608 1.391 . S
C2609 C2613 1.376 . S
C2610 C2608 1.394 . S
C2610 C2611 1.369 . S
C2610 C2614 1.531 . S
C2611 C2610 1.369 . S
C2611 C2612 1.410 . S
C2611 C2619 1.503 . S
C2612 C2611 1.410 . S
C2612 C2613 1.392 . S
C2612 C2615 1.511 . S
C2613 C2609 1.376 . S
C2613 C2612 1.392 . S
C2613 H2625 0.929 . S
C2614 C2610 1.531 . S
C2614 H2626 0.960 . S
C2614 H2627 0.962 . S
C2614 H2628 0.960 . S
C2615 C2612 1.511 . S
C2615 H2629 0.961 . S
C2615 H2630 0.961 . S
C2615 H2631 0.961 . S
C2616 C2617 1.370 . S
C2616 C2618 1.363 . S
C2616 H2632 0.931 . S
C2617 C2616 1.370 . S
C2617 C2621 1.408 . S
C2618 C2616 1.363 . S
C2618 C2619 1.370 . S
C2618 C2622 1.524 . S
C2619 C2611 1.503 . S
C2619 C2618 1.370 . S
C2619 C2620 1.403 . S
C2620 C2619 1.403 . S
C2620 C2621 1.404 . S
C2620 C2623 1.539 . S
C2621 C2617 1.408 . S
C2621 C2620 1.404 . S
C2621 H2633 0.930 . S
C2622 C2618 1.524 . S
C2622 H2634 0.956 . S
C2622 H2635 0.961 . S
C2622 H2636 0.961 . S
C2623 C2620 1.539 . S
C2623 H2637 0.958 . S
C2623 H2638 0.961 . S
C2623 H2639 0.960 . S
H2624 C2608 0.931 . S
H2625 C2613 0.929 . S
H2626 C2614 0.960 . S
H2627 C2614 0.962 . S
H2628 C2614 0.960 . S
H2629 C2615 0.961 . S
H2630 C2615 0.961 . S
H2631 C2615 0.961 . S
H2632 C2616 0.931 . S
H2633 C2621 0.930 . S
H2634 C2622 0.956 . S
H2635 C2622 0.961 . S
H2636 C2622 0.961 . S
H2637 C2623 0.958 . S
H2638 C2623 0.961 . S
H2639 C2623 0.960 . S
C2640 C2641 1.391 . S
C2640 C2642 1.394 . S
C2640 H2656 0.931 . S
C2641 C2640 1.391 . S
C2641 C2645 1.376 . S
C2642 C2640 1.394 . S
C2642 C2643 1.369 . S
C2642 C2646 1.531 . S
C2643 C2642 1.369 . S
C2643 C2644 1.410 . S
C2643 C2651 1.503 . S
C2644 C2643 1.410 . S
C2644 C2645 1.392 . S
C2644 C2647 1.511 . S
C2645 C2641 1.376 . S
C2645 C2644 1.392 . S
C2645 H2657 0.929 . S
C2646 C2642 1.531 . S
C2646 H2658 0.960 . S
C2646 H2659 0.962 . S
C2646 H2660 0.960 . S
C2647 C2644 1.511 . S
C2647 H2661 0.961 . S
C2647 H2662 0.961 . S
C2647 H2663 0.961 . S
C2648 C2649 1.370 . S
C2648 C2650 1.363 . S
C2648 H2664 0.931 . S
C2649 C2648 1.370 . S
C2649 C2653 1.408 . S
C2650 C2648 1.363 . S
C2650 C2651 1.370 . S
C2650 C2654 1.524 . S
C2651 C2643 1.503 . S
C2651 C2650 1.370 . S
C2651 C2652 1.403 . S
C2652 C2651 1.403 . S
C2652 C2653 1.404 . S
C2652 C2655 1.539 . S
C2653 C2649 1.408 . S
C2653 C2652 1.404 . S
C2653 H2665 0.930 . S
C2654 C2650 1.524 . S
C2654 H2666 0.956 . S
C2654 H2667 0.961 . S
C2654 H2668 0.961 . S
C2655 C2652 1.539 . S
C2655 H2669 0.958 . S
C2655 H2670 0.961 . S
C2655 H2671 0.960 . S
H2656 C2640 0.931 . S
H2657 C2645 0.929 . S
H2658 C2646 0.960 . S
H2659 C2646 0.962 . S
H2660 C2646 0.960 . S
H2661 C2647 0.961 . S
H2662 C2647 0.961 . S
H2663 C2647 0.961 . S
H2664 C2648 0.931 . S
H2665 C2653 0.930 . S
H2666 C2654 0.956 . S
H2667 C2654 0.961 . S
H2668 C2654 0.961 . S
H2669 C2655 0.958 . S
H2670 C2655 0.961 . S
H2671 C2655 0.960 . S
C2672 C2673 1.391 . S
C2672 C2674 1.394 . S
C2672 H2688 0.931 . S
C2673 C2672 1.391 . S
C2673 C2677 1.376 . S
C2674 C2672 1.394 . S
C2674 C2675 1.369 . S
C2674 C2678 1.531 . S
C2675 C2674 1.369 . S
C2675 C2676 1.410 . S
C2675 C2683 1.503 . S
C2676 C2675 1.410 . S
C2676 C2677 1.392 . S
C2676 C2679 1.511 . S
C2677 C2673 1.376 . S
C2677 C2676 1.392 . S
C2677 H2689 0.929 . S
C2678 C2674 1.531 . S
C2678 H2690 0.960 . S
C2678 H2691 0.962 . S
C2678 H2692 0.960 . S
C2679 C2676 1.511 . S
C2679 H2693 0.961 . S
C2679 H2694 0.961 . S
C2679 H2695 0.961 . S
C2680 C2681 1.370 . S
C2680 C2682 1.363 . S
C2680 H2696 0.931 . S
C2681 C2680 1.370 . S
C2681 C2685 1.408 . S
C2682 C2680 1.363 . S
C2682 C2683 1.370 . S
C2682 C2686 1.524 . S
C2683 C2675 1.503 . S
C2683 C2682 1.370 . S
C2683 C2684 1.403 . S
C2684 C2683 1.403 . S
C2684 C2685 1.404 . S
C2684 C2687 1.539 . S
C2685 C2681 1.408 . S
C2685 C2684 1.404 . S
C2685 H2697 0.930 . S
C2686 C2682 1.524 . S
C2686 H2698 0.956 . S
C2686 H2699 0.961 . S
C2686 H2700 0.961 . S
C2687 C2684 1.539 . S
C2687 H2701 0.958 . S
C2687 H2702 0.961 . S
C2687 H2703 0.960 . S
H2688 C2672 0.931 . S
H2689 C2677 0.929 . S
H2690 C2678 0.960 . S
H2691 C2678 0.962 . S
H2692 C2678 0.960 . S
H2693 C2679 0.961 . S
H2694 C2679 0.961 . S
H2695 C2679 0.961 . S
H2696 C2680 0.931 . S
H2697 C2685 0.930 . S
H2698 C2686 0.956 . S
H2699 C2686 0.961 . S
H2700 C2686 0.961 . S
H2701 C2687 0.958 . S
H2702 C2687 0.961 . S
H2703 C2687 0.960 . S
C2704 C2705 1.391 . S
C2704 C2706 1.394 . S
C2704 H2720 0.931 . S
C2705 C2704 1.391 . S
C2705 C2709 1.376 . S
C2706 C2704 1.394 . S
C2706 C2707 1.369 . S
C2706 C2710 1.531 . S
C2707 C2706 1.369 . S
C2707 C2708 1.410 . S
C2707 C2715 1.503 . S
C2708 C2707 1.410 . S
C2708 C2709 1.392 . S
C2708 C2711 1.511 . S
C2709 C2705 1.376 . S
C2709 C2708 1.392 . S
C2709 H2721 0.929 . S
C2710 C2706 1.531 . S
C2710 H2722 0.960 . S
C2710 H2723 0.962 . S
C2710 H2724 0.960 . S
C2711 C2708 1.511 . S
C2711 H2725 0.961 . S
C2711 H2726 0.961 . S
C2711 H2727 0.961 . S
C2712 C2713 1.370 . S
C2712 C2714 1.363 . S
C2712 H2728 0.931 . S
C2713 C2712 1.370 . S
C2713 C2717 1.408 . S
C2714 C2712 1.363 . S
C2714 C2715 1.370 . S
C2714 C2718 1.524 . S
C2715 C2707 1.503 . S
C2715 C2714 1.370 . S
C2715 C2716 1.403 . S
C2716 C2715 1.403 . S
C2716 C2717 1.404 . S
C2716 C2719 1.539 . S
C2717 C2713 1.408 . S
C2717 C2716 1.404 . S
C2717 H2729 0.930 . S
C2718 C2714 1.524 . S
C2718 H2730 0.956 . S
C2718 H2731 0.961 . S
C2718 H2732 0.961 . S
C2719 C2716 1.539 . S
C2719 H2733 0.958 . S
C2719 H2734 0.961 . S
C2719 H2735 0.960 . S
H2720 C2704 0.931 . S
H2721 C2709 0.929 . S
H2722 C2710 0.960 . S
H2723 C2710 0.962 . S
H2724 C2710 0.960 . S
H2725 C2711 0.961 . S
H2726 C2711 0.961 . S
H2727 C2711 0.961 . S
H2728 C2712 0.931 . S
H2729 C2717 0.930 . S
H2730 C2718 0.956 . S
H2731 C2718 0.961 . S
H2732 C2718 0.961 . S
H2733 C2719 0.958 . S
H2734 C2719 0.961 . S
H2735 C2719 0.960 . S
C2736 C2737 1.391 . S
C2736 C2738 1.394 . S
C2736 H2752 0.931 . S
C2737 C2736 1.391 . S
C2737 C2741 1.376 . S
C2738 C2736 1.394 . S
C2738 C2739 1.369 . S
C2738 C2742 1.531 . S
C2739 C2738 1.369 . S
C2739 C2740 1.410 . S
C2739 C2747 1.503 . S
C2740 C2739 1.410 . S
C2740 C2741 1.392 . S
C2740 C2743 1.511 . S
C2741 C2737 1.376 . S
C2741 C2740 1.392 . S
C2741 H2753 0.929 . S
C2742 C2738 1.531 . S
C2742 H2754 0.960 . S
C2742 H2755 0.962 . S
C2742 H2756 0.960 . S
C2743 C2740 1.511 . S
C2743 H2757 0.961 . S
C2743 H2758 0.961 . S
C2743 H2759 0.961 . S
C2744 C2745 1.370 . S
C2744 C2746 1.363 . S
C2744 H2760 0.931 . S
C2745 C2744 1.370 . S
C2745 C2749 1.408 . S
C2746 C2744 1.363 . S
C2746 C2747 1.370 . S
C2746 C2750 1.524 . S
C2747 C2739 1.503 . S
C2747 C2746 1.370 . S
C2747 C2748 1.403 . S
C2748 C2747 1.403 . S
C2748 C2749 1.404 . S
C2748 C2751 1.539 . S
C2749 C2745 1.408 . S
C2749 C2748 1.404 . S
C2749 H2761 0.930 . S
C2750 C2746 1.524 . S
C2750 H2762 0.956 . S
C2750 H2763 0.961 . S
C2750 H2764 0.961 . S
C2751 C2748 1.539 . S
C2751 H2765 0.958 . S
C2751 H2766 0.961 . S
C2751 H2767 0.960 . S
H2752 C2736 0.931 . S
H2753 C2741 0.929 . S
H2754 C2742 0.960 . S
H2755 C2742 0.962 . S
H2756 C2742 0.960 . S
H2757 C2743 0.961 . S
H2758 C2743 0.961 . S
H2759 C2743 0.961 . S
H2760 C2744 0.931 . S
H2761 C2749 0.930 . S
H2762 C2750 0.956 . S
H2763 C2750 0.961 . S
H2764 C2750 0.961 . S
H2765 C2751 0.958 . S
H2766 C2751 0.961 . S
H2767 C2751 0.960 . S
C2768 C2769 1.391 . S
C2768 C2770 1.394 . S
C2768 H2784 0.931 . S
C2769 C2768 1.391 . S
C2769 C2773 1.376 . S
C2770 C2768 1.394 . S
C2770 C2771 1.369 . S
C2770 C2774 1.531 . S
C2771 C2770 1.369 . S
C2771 C2772 1.410 . S
C2771 C2779 1.503 . S
C2772 C2771 1.410 . S
C2772 C2773 1.392 . S
C2772 C2775 1.511 . S
C2773 C2769 1.376 . S
C2773 C2772 1.392 . S
C2773 H2785 0.929 . S
C2774 C2770 1.531 . S
C2774 H2786 0.960 . S
C2774 H2787 0.962 . S
C2774 H2788 0.960 . S
C2775 C2772 1.511 . S
C2775 H2789 0.961 . S
C2775 H2790 0.961 . S
C2775 H2791 0.961 . S
C2776 C2777 1.370 . S
C2776 C2778 1.363 . S
C2776 H2792 0.931 . S
C2777 C2776 1.370 . S
C2777 C2781 1.408 . S
C2778 C2776 1.363 . S
C2778 C2779 1.370 . S
C2778 C2782 1.524 . S
C2779 C2771 1.503 . S
C2779 C2778 1.370 . S
C2779 C2780 1.403 . S
C2780 C2779 1.403 . S
C2780 C2781 1.404 . S
C2780 C2783 1.539 . S
C2781 C2777 1.408 . S
C2781 C2780 1.404 . S
C2781 H2793 0.930 . S
C2782 C2778 1.524 . S
C2782 H2794 0.956 . S
C2782 H2795 0.961 . S
C2782 H2796 0.961 . S
C2783 C2780 1.539 . S
C2783 H2797 0.958 . S
C2783 H2798 0.961 . S
C2783 H2799 0.960 . S
H2784 C2768 0.931 . S
H2785 C2773 0.929 . S
H2786 C2774 0.960 . S
H2787 C2774 0.962 . S
H2788 C2774 0.960 . S
H2789 C2775 0.961 . S
H2790 C2775 0.961 . S
H2791 C2775 0.961 . S
H2792 C2776 0.931 . S
H2793 C2781 0.930 . S
H2794 C2782 0.956 . S
H2795 C2782 0.961 . S
H2796 C2782 0.961 . S
H2797 C2783 0.958 . S
H2798 C2783 0.961 . S
H2799 C2783 0.960 . S
C2800 C2801 1.391 . S
C2800 C2802 1.394 . S
C2800 H2816 0.931 . S
C2801 C2800 1.391 . S
C2801 C2805 1.376 . S
C2802 C2800 1.394 . S
C2802 C2803 1.369 . S
C2802 C2806 1.531 . S
C2803 C2802 1.369 . S
C2803 C2804 1.410 . S
C2803 C2811 1.503 . S
C2804 C2803 1.410 . S
C2804 C2805 1.392 . S
C2804 C2807 1.511 . S
C2805 C2801 1.376 . S
C2805 C2804 1.392 . S
C2805 H2817 0.929 . S
C2806 C2802 1.531 . S
C2806 H2818 0.960 . S
C2806 H2819 0.962 . S
C2806 H2820 0.960 . S
C2807 C2804 1.511 . S
C2807 H2821 0.961 . S
C2807 H2822 0.961 . S
C2807 H2823 0.961 . S
C2808 C2809 1.370 . S
C2808 C2810 1.363 . S
C2808 H2824 0.931 . S
C2809 C2808 1.370 . S
C2809 C2813 1.408 . S
C2810 C2808 1.363 . S
C2810 C2811 1.370 . S
C2810 C2814 1.524 . S
C2811 C2803 1.503 . S
C2811 C2810 1.370 . S
C2811 C2812 1.403 . S
C2812 C2811 1.403 . S
C2812 C2813 1.404 . S
C2812 C2815 1.539 . S
C2813 C2809 1.408 . S
C2813 C2812 1.404 . S
C2813 H2825 0.930 . S
C2814 C2810 1.524 . S
C2814 H2826 0.956 . S
C2814 H2827 0.961 . S
C2814 H2828 0.961 . S
C2815 C2812 1.539 . S
C2815 H2829 0.958 . S
C2815 H2830 0.961 . S
C2815 H2831 0.960 . S
H2816 C2800 0.931 . S
H2817 C2805 0.929 . S
H2818 C2806 0.960 . S
H2819 C2806 0.962 . S
H2820 C2806 0.960 . S
H2821 C2807 0.961 . S
H2822 C2807 0.961 . S
H2823 C2807 0.961 . S
H2824 C2808 0.931 . S
H2825 C2813 0.930 . S
H2826 C2814 0.956 . S
H2827 C2814 0.961 . S
H2828 C2814 0.961 . S
H2829 C2815 0.958 . S
H2830 C2815 0.961 . S
H2831 C2815 0.960 . S
C2832 C2833 1.391 . S
C2832 C2834 1.394 . S
C2832 H2848 0.931 . S
C2833 C2832 1.391 . S
C2833 C2837 1.376 . S
C2834 C2832 1.394 . S
C2834 C2835 1.369 . S
C2834 C2838 1.531 . S
C2835 C2834 1.369 . S
C2835 C2836 1.410 . S
C2835 C2843 1.503 . S
C2836 C2835 1.410 . S
C2836 C2837 1.392 . S
C2836 C2839 1.511 . S
C2837 C2833 1.376 . S
C2837 C2836 1.392 . S
C2837 H2849 0.929 . S
C2838 C2834 1.531 . S
C2838 H2850 0.960 . S
C2838 H2851 0.962 . S
C2838 H2852 0.960 . S
C2839 C2836 1.511 . S
C2839 H2853 0.961 . S
C2839 H2854 0.961 . S
C2839 H2855 0.961 . S
C2840 C2841 1.370 . S
C2840 C2842 1.363 . S
C2840 H2856 0.931 . S
C2841 C2840 1.370 . S
C2841 C2845 1.408 . S
C2842 C2840 1.363 . S
C2842 C2843 1.370 . S
C2842 C2846 1.524 . S
C2843 C2835 1.503 . S
C2843 C2842 1.370 . S
C2843 C2844 1.403 . S
C2844 C2843 1.403 . S
C2844 C2845 1.404 . S
C2844 C2847 1.539 . S
C2845 C2841 1.408 . S
C2845 C2844 1.404 . S
C2845 H2857 0.930 . S
C2846 C2842 1.524 . S
C2846 H2858 0.956 . S
C2846 H2859 0.961 . S
C2846 H2860 0.961 . S
C2847 C2844 1.539 . S
C2847 H2861 0.958 . S
C2847 H2862 0.961 . S
C2847 H2863 0.960 . S
H2848 C2832 0.931 . S
H2849 C2837 0.929 . S
H2850 C2838 0.960 . S
H2851 C2838 0.962 . S
H2852 C2838 0.960 . S
H2853 C2839 0.961 . S
H2854 C2839 0.961 . S
H2855 C2839 0.961 . S
H2856 C2840 0.931 . S
H2857 C2845 0.930 . S
H2858 C2846 0.956 . S
H2859 C2846 0.961 . S
H2860 C2846 0.961 . S
H2861 C2847 0.958 . S
H2862 C2847 0.961 . S
H2863 C2847 0.960 . S
C2864 C2865 1.391 . S
C2864 C2866 1.394 . S
C2864 H2880 0.931 . S
C2865 C2864 1.391 . S
C2865 C2869 1.376 . S
C2866 C2864 1.394 . S
C2866 C2867 1.369 . S
C2866 C2870 1.531 . S
C2867 C2866 1.369 . S
C2867 C2868 1.410 . S
C2867 C2875 1.503 . S
C2868 C2867 1.410 . S
C2868 C2869 1.392 . S
C2868 C2871 1.511 . S
C2869 C2865 1.376 . S
C2869 C2868 1.392 . S
C2869 H2881 0.929 . S
C2870 C2866 1.531 . S
C2870 H2882 0.960 . S
C2870 H2883 0.962 . S
C2870 H2884 0.960 . S
C2871 C2868 1.511 . S
C2871 H2885 0.961 . S
C2871 H2886 0.961 . S
C2871 H2887 0.961 . S
C2872 C2873 1.370 . S
C2872 C2874 1.363 . S
C2872 H2888 0.931 . S
C2873 C2872 1.370 . S
C2873 C2877 1.408 . S
C2874 C2872 1.363 . S
C2874 C2875 1.370 . S
C2874 C2878 1.524 . S
C2875 C2867 1.503 . S
C2875 C2874 1.370 . S
C2875 C2876 1.403 . S
C2876 C2875 1.403 . S
C2876 C2877 1.404 . S
C2876 C2879 1.539 . S
C2877 C2873 1.408 . S
C2877 C2876 1.404 . S
C2877 H2889 0.930 . S
C2878 C2874 1.524 . S
C2878 H2890 0.956 . S
C2878 H2891 0.961 . S
C2878 H2892 0.961 . S
C2879 C2876 1.539 . S
C2879 H2893 0.958 . S
C2879 H2894 0.961 . S
C2879 H2895 0.960 . S
H2880 C2864 0.931 . S
H2881 C2869 0.929 . S
H2882 C2870 0.960 . S
H2883 C2870 0.962 . S
H2884 C2870 0.960 . S
H2885 C2871 0.961 . S
H2886 C2871 0.961 . S
H2887 C2871 0.961 . S
H2888 C2872 0.931 . S
H2889 C2877 0.930 . S
H2890 C2878 0.956 . S
H2891 C2878 0.961 . S
H2892 C2878 0.961 . S
H2893 C2879 0.958 . S
H2894 C2879 0.961 . S
H2895 C2879 0.960 . S
C2896 C2897 1.391 . S
C2896 C2898 1.394 . S
C2896 H2912 0.931 . S
C2897 C2896 1.391 . S
C2897 C2901 1.376 . S
C2898 C2896 1.394 . S
C2898 C2899 1.369 . S
C2898 C2902 1.531 . S
C2899 C2898 1.369 . S
C2899 C2900 1.410 . S
C2899 C2907 1.503 . S
C2900 C2899 1.410 . S
C2900 C2901 1.392 . S
C2900 C2903 1.511 . S
C2901 C2897 1.376 . S
C2901 C2900 1.392 . S
C2901 H2913 0.929 . S
C2902 C2898 1.531 . S
C2902 H2914 0.960 . S
C2902 H2915 0.962 . S
C2902 H2916 0.960 . S
C2903 C2900 1.511 . S
C2903 H2917 0.961 . S
C2903 H2918 0.961 . S
C2903 H2919 0.961 . S
C2904 C2905 1.370 . S
C2904 C2906 1.363 . S
C2904 H2920 0.931 . S
C2905 C2904 1.370 . S
C2905 C2909 1.408 . S
C2906 C2904 1.363 . S
C2906 C2907 1.370 . S
C2906 C2910 1.524 . S
C2907 C2899 1.503 . S
C2907 C2906 1.370 . S
C2907 C2908 1.403 . S
C2908 C2907 1.403 . S
C2908 C2909 1.404 . S
C2908 C2911 1.539 . S
C2909 C2905 1.408 . S
C2909 C2908 1.404 . S
C2909 H2921 0.930 . S
C2910 C2906 1.524 . S
C2910 H2922 0.956 . S
C2910 H2923 0.961 . S
C2910 H2924 0.961 . S
C2911 C2908 1.539 . S
C2911 H2925 0.958 . S
C2911 H2926 0.961 . S
C2911 H2927 0.960 . S
H2912 C2896 0.931 . S
H2913 C2901 0.929 . S
H2914 C2902 0.960 . S
H2915 C2902 0.962 . S
H2916 C2902 0.960 . S
H2917 C2903 0.961 . S
H2918 C2903 0.961 . S
H2919 C2903 0.961 . S
H2920 C2904 0.931 . S
H2921 C2909 0.930 . S
H2922 C2910 0.956 . S
H2923 C2910 0.961 . S
H2924 C2910 0.961 . S
H2925 C2911 0.958 . S
H2926 C2911 0.961 . S
H2927 C2911 0.960 . S
C2928 C2929 1.391 . S
C2928 C2930 1.394 . S
C2928 H2944 0.931 . S
C2929 C2928 1.391 . S
C2929 C2933 1.376 . S
C2930 C2928 1.394 . S
C2930 C2931 1.369 . S
C2930 C2934 1.531 . S
C2931 C2930 1.369 . S
C2931 C2932 1.410 . S
C2931 C2939 1.503 . S
C2932 C2931 1.410 . S
C2932 C2933 1.392 . S
C2932 C2935 1.511 . S
C2933 C2929 1.376 . S
C2933 C2932 1.392 . S
C2933 H2945 0.929 . S
C2934 C2930 1.531 . S
C2934 H2946 0.960 . S
C2934 H2947 0.962 . S
C2934 H2948 0.960 . S
C2935 C2932 1.511 . S
C2935 H2949 0.961 . S
C2935 H2950 0.961 . S
C2935 H2951 0.961 . S
C2936 C2937 1.370 . S
C2936 C2938 1.363 . S
C2936 H2952 0.931 . S
C2937 C2936 1.370 . S
C2937 C2941 1.408 . S
C2938 C2936 1.363 . S
C2938 C2939 1.370 . S
C2938 C2942 1.524 . S
C2939 C2931 1.503 . S
C2939 C2938 1.370 . S
C2939 C2940 1.403 . S
C2940 C2939 1.403 . S
C2940 C2941 1.404 . S
C2940 C2943 1.539 . S
C2941 C2937 1.408 . S
C2941 C2940 1.404 . S
C2941 H2953 0.930 . S
C2942 C2938 1.524 . S
C2942 H2954 0.956 . S
C2942 H2955 0.961 . S
C2942 H2956 0.961 . S
C2943 C2940 1.539 . S
C2943 H2957 0.958 . S
C2943 H2958 0.961 . S
C2943 H2959 0.960 . S
H2944 C2928 0.931 . S
H2945 C2933 0.929 . S
H2946 C2934 0.960 . S
H2947 C2934 0.962 . S
H2948 C2934 0.960 . S
H2949 C2935 0.961 . S
H2950 C2935 0.961 . S
H2951 C2935 0.961 . S
H2952 C2936 0.931 . S
H2953 C2941 0.930 . S
H2954 C2942 0.956 . S
H2955 C2942 0.961 . S
H2956 C2942 0.961 . S
H2957 C2943 0.958 . S
H2958 C2943 0.961 . S
H2959 C2943 0.960 . S
C2960 C2961 1.391 . S
C2960 C2962 1.394 . S
C2960 H2976 0.931 . S
C2961 C2960 1.391 . S
C2961 C2965 1.376 . S
C2962 C2960 1.394 . S
C2962 C2963 1.369 . S
C2962 C2966 1.531 . S
C2963 C2962 1.369 . S
C2963 C2964 1.410 . S
C2963 C2971 1.503 . S
C2964 C2963 1.410 . S
C2964 C2965 1.392 . S
C2964 C2967 1.511 . S
C2965 C2961 1.376 . S
C2965 C2964 1.392 . S
C2965 H2977 0.929 . S
C2966 C2962 1.531 . S
C2966 H2978 0.960 . S
C2966 H2979 0.962 . S
C2966 H2980 0.960 . S
C2967 C2964 1.511 . S
C2967 H2981 0.961 . S
C2967 H2982 0.961 . S
C2967 H2983 0.961 . S
C2968 C2969 1.370 . S
C2968 C2970 1.363 . S
C2968 H2984 0.931 . S
C2969 C2968 1.370 . S
C2969 C2973 1.408 . S
C2970 C2968 1.363 . S
C2970 C2971 1.370 . S
C2970 C2974 1.524 . S
C2971 C2963 1.503 . S
C2971 C2970 1.370 . S
C2971 C2972 1.403 . S
C2972 C2971 1.403 . S
C2972 C2973 1.404 . S
C2972 C2975 1.539 . S
C2973 C2969 1.408 . S
C2973 C2972 1.404 . S
C2973 H2985 0.930 . S
C2974 C2970 1.524 . S
C2974 H2986 0.956 . S
C2974 H2987 0.961 . S
C2974 H2988 0.961 . S
C2975 C2972 1.539 . S
C2975 H2989 0.958 . S
C2975 H2990 0.961 . S
C2975 H2991 0.960 . S
H2976 C2960 0.931 . S
H2977 C2965 0.929 . S
H2978 C2966 0.960 . S
H2979 C2966 0.962 . S
H2980 C2966 0.960 . S
H2981 C2967 0.961 . S
H2982 C2967 0.961 . S
H2983 C2967 0.961 . S
H2984 C2968 0.931 . S
H2985 C2973 0.930 . S
H2986 C2974 0.956 . S
H2987 C2974 0.961 . S
H2988 C2974 0.961 . S
H2989 C2975 0.958 . S
H2990 C2975 0.961 . S
H2991 C2975 0.960 . S
C2992 C2993 1.391 . S
C2992 C2994 1.394 . S
C2992 H3008 0.931 . S
C2993 C2992 1.391 . S
C2993 C2997 1.376 . S
C2994 C2992 1.394 . S
C2994 C2995 1.369 . S
C2994 C2998 1.531 . S
C2995 C2994 1.369 . S
C2995 C2996 1.410 . S
C2995 C3003 1.503 . S
C2996 C2995 1.410 . S
C2996 C2997 1.392 . S
C2996 C2999 1.511 . S
C2997 C2993 1.376 . S
C2997 C2996 1.392 . S
C2997 H3009 0.929 . S
C2998 C2994 1.531 . S
C2998 H3010 0.960 . S
C2998 H3011 0.962 . S
C2998 H3012 0.960 . S
C2999 C2996 1.511 . S
C2999 H3013 0.961 . S
C2999 H3014 0.961 . S
C2999 H3015 0.961 . S
C3000 C3001 1.370 . S
C3000 C3002 1.363 . S
C3000 H3016 0.931 . S
C3001 C3000 1.370 . S
C3001 C3005 1.408 . S
C3002 C3000 1.363 . S
C3002 C3003 1.370 . S
C3002 C3006 1.524 . S
C3003 C2995 1.503 . S
C3003 C3002 1.370 . S
C3003 C3004 1.403 . S
C3004 C3003 1.403 . S
C3004 C3005 1.404 . S
C3004 C3007 1.539 . S
C3005 C3001 1.408 . S
C3005 C3004 1.404 . S
C3005 H3017 0.930 . S
C3006 C3002 1.524 . S
C3006 H3018 0.956 . S
C3006 H3019 0.961 . S
C3006 H3020 0.961 . S
C3007 C3004 1.539 . S
C3007 H3021 0.958 . S
C3007 H3022 0.961 . S
C3007 H3023 0.960 . S
H3008 C2992 0.931 . S
H3009 C2997 0.929 . S
H3010 C2998 0.960 . S
H3011 C2998 0.962 . S
H3012 C2998 0.960 . S
H3013 C2999 0.961 . S
H3014 C2999 0.961 . S
H3015 C2999 0.961 . S
H3016 C3000 0.931 . S
H3017 C3005 0.930 . S
H3018 C3006 0.956 . S
H3019 C3006 0.961 . S
H3020 C3006 0.961 . S
H3021 C3007 0.958 . S
H3022 C3007 0.961 . S
H3023 C3007 0.960 . S
C3024 C3025 1.391 . S
C3024 C3026 1.394 . S
C3024 H3040 0.931 . S
C3025 C3024 1.391 . S
C3025 C3029 1.376 . S
C3026 C3024 1.394 . S
C3026 C3027 1.369 . S
C3026 C3030 1.531 . S
C3027 C3026 1.369 . S
C3027 C3028 1.410 . S
C3027 C3035 1.503 . S
C3028 C3027 1.410 . S
C3028 C3029 1.392 . S
C3028 C3031 1.511 . S
C3029 C3025 1.376 . S
C3029 C3028 1.392 . S
C3029 H3041 0.929 . S
C3030 C3026 1.531 . S
C3030 H3042 0.960 . S
C3030 H3043 0.962 . S
C3030 H3044 0.960 . S
C3031 C3028 1.511 . S
C3031 H3045 0.961 . S
C3031 H3046 0.961 . S
C3031 H3047 0.961 . S
C3032 C3033 1.370 . S
C3032 C3034 1.363 . S
C3032 H3048 0.931 . S
C3033 C3032 1.370 . S
C3033 C3037 1.408 . S
C3034 C3032 1.363 . S
C3034 C3035 1.370 . S
C3034 C3038 1.524 . S
C3035 C3027 1.503 . S
C3035 C3034 1.370 . S
C3035 C3036 1.403 . S
C3036 C3035 1.403 . S
C3036 C3037 1.404 . S
C3036 C3039 1.539 . S
C3037 C3033 1.408 . S
C3037 C3036 1.404 . S
C3037 H3049 0.930 . S
C3038 C3034 1.524 . S
C3038 H3050 0.956 . S
C3038 H3051 0.961 . S
C3038 H3052 0.961 . S
C3039 C3036 1.539 . S
C3039 H3053 0.958 . S
C3039 H3054 0.961 . S
C3039 H3055 0.960 . S
H3040 C3024 0.931 . S
H3041 C3029 0.929 . S
H3042 C3030 0.960 . S
H3043 C3030 0.962 . S
H3044 C3030 0.960 . S
H3045 C3031 0.961 . S
H3046 C3031 0.961 . S
H3047 C3031 0.961 . S
H3048 C3032 0.931 . S
H3049 C3037 0.930 . S
H3050 C3038 0.956 . S
H3051 C3038 0.961 . S
H3052 C3038 0.961 . S
H3053 C3039 0.958 . S
H3054 C3039 0.961 . S
H3055 C3039 0.960 . S
C3056 C3057 1.391 . S
C3056 C3058 1.394 . S
C3056 H3072 0.931 . S
C3057 C3056 1.391 . S
C3057 C3061 1.376 . S
C3058 C3056 1.394 . S
C3058 C3059 1.369 . S
C3058 C3062 1.531 . S
C3059 C3058 1.369 . S
C3059 C3060 1.410 . S
C3059 C3067 1.503 . S
C3060 C3059 1.410 . S
C3060 C3061 1.392 . S
C3060 C3063 1.511 . S
C3061 C3057 1.376 . S
C3061 C3060 1.392 . S
C3061 H3073 0.929 . S
C3062 C3058 1.531 . S
C3062 H3074 0.960 . S
C3062 H3075 0.962 . S
C3062 H3076 0.960 . S
C3063 C3060 1.511 . S
C3063 H3077 0.961 . S
C3063 H3078 0.961 . S
C3063 H3079 0.961 . S
C3064 C3065 1.370 . S
C3064 C3066 1.363 . S
C3064 H3080 0.931 . S
C3065 C3064 1.370 . S
C3065 C3069 1.408 . S
C3066 C3064 1.363 . S
C3066 C3067 1.370 . S
C3066 C3070 1.524 . S
C3067 C3059 1.503 . S
C3067 C3066 1.370 . S
C3067 C3068 1.403 . S
C3068 C3067 1.403 . S
C3068 C3069 1.404 . S
C3068 C3071 1.539 . S
C3069 C3065 1.408 . S
C3069 C3068 1.404 . S
C3069 H3081 0.930 . S
C3070 C3066 1.524 . S
C3070 H3082 0.956 . S
C3070 H3083 0.961 . S
C3070 H3084 0.961 . S
C3071 C3068 1.539 . S
C3071 H3085 0.958 . S
C3071 H3086 0.961 . S
C3071 H3087 0.960 . S
H3072 C3056 0.931 . S
H3073 C3061 0.929 . S
H3074 C3062 0.960 . S
H3075 C3062 0.962 . S
H3076 C3062 0.960 . S
H3077 C3063 0.961 . S
H3078 C3063 0.961 . S
H3079 C3063 0.961 . S
H3080 C3064 0.931 . S
H3081 C3069 0.930 . S
H3082 C3070 0.956 . S
H3083 C3070 0.961 . S
H3084 C3070 0.961 . S
H3085 C3071 0.958 . S
H3086 C3071 0.961 . S
H3087 C3071 0.960 . S
C3088 C3089 1.391 . S
C3088 C3090 1.394 . S
C3088 H3104 0.931 . S
C3089 C3088 1.391 . S
C3089 C3093 1.376 . S
C3090 C3088 1.394 . S
C3090 C3091 1.369 . S
C3090 C3094 1.531 . S
C3091 C3090 1.369 . S
C3091 C3092 1.410 . S
C3091 C3099 1.503 . S
C3092 C3091 1.410 . S
C3092 C3093 1.392 . S
C3092 C3095 1.511 . S
C3093 C3089 1.376 . S
C3093 C3092 1.392 . S
C3093 H3105 0.929 . S
C3094 C3090 1.531 . S
C3094 H3106 0.960 . S
C3094 H3107 0.962 . S
C3094 H3108 0.960 . S
C3095 C3092 1.511 . S
C3095 H3109 0.961 . S
C3095 H3110 0.961 . S
C3095 H3111 0.961 . S
C3096 C3097 1.370 . S
C3096 C3098 1.363 . S
C3096 H3112 0.931 . S
C3097 C3096 1.370 . S
C3097 C3101 1.408 . S
C3098 C3096 1.363 . S
C3098 C3099 1.370 . S
C3098 C3102 1.524 . S
C3099 C3091 1.503 . S
C3099 C3098 1.370 . S
C3099 C3100 1.403 . S
C3100 C3099 1.403 . S
C3100 C3101 1.404 . S
C3100 C3103 1.539 . S
C3101 C3097 1.408 . S
C3101 C3100 1.404 . S
C3101 H3113 0.930 . S
C3102 C3098 1.524 . S
C3102 H3114 0.956 . S
C3102 H3115 0.961 . S
C3102 H3116 0.961 . S
C3103 C3100 1.539 . S
C3103 H3117 0.958 . S
C3103 H3118 0.961 . S
C3103 H3119 0.960 . S
H3104 C3088 0.931 . S
H3105 C3093 0.929 . S
H3106 C3094 0.960 . S
H3107 C3094 0.962 . S
H3108 C3094 0.960 . S
H3109 C3095 0.961 . S
H3110 C3095 0.961 . S
H3111 C3095 0.961 . S
H3112 C3096 0.931 . S
H3113 C3101 0.930 . S
H3114 C3102 0.956 . S
H3115 C3102 0.961 . S
H3116 C3102 0.961 . S
H3117 C3103 0.958 . S
H3118 C3103 0.961 . S
H3119 C3103 0.960 . S
C3120 C3121 1.391 . S
C3120 C3122 1.394 . S
C3120 H3136 0.931 . S
C3121 C3120 1.391 . S
C3121 C3125 1.376 . S
C3122 C3120 1.394 . S
C3122 C3123 1.369 . S
C3122 C3126 1.531 . S
C3123 C3122 1.369 . S
C3123 C3124 1.410 . S
C3123 C3131 1.503 . S
C3124 C3123 1.410 . S
C3124 C3125 1.392 . S
C3124 C3127 1.511 . S
C3125 C3121 1.376 . S
C3125 C3124 1.392 . S
C3125 H3137 0.929 . S
C3126 C3122 1.531 . S
C3126 H3138 0.960 . S
C3126 H3139 0.962 . S
C3126 H3140 0.960 . S
C3127 C3124 1.511 . S
C3127 H3141 0.961 . S
C3127 H3142 0.961 . S
C3127 H3143 0.961 . S
C3128 C3129 1.370 . S
C3128 C3130 1.363 . S
C3128 H3144 0.931 . S
C3129 C3128 1.370 . S
C3129 C3133 1.408 . S
C3130 C3128 1.363 . S
C3130 C3131 1.370 . S
C3130 C3134 1.524 . S
C3131 C3123 1.503 . S
C3131 C3130 1.370 . S
C3131 C3132 1.403 . S
C3132 C3131 1.403 . S
C3132 C3133 1.404 . S
C3132 C3135 1.539 . S
C3133 C3129 1.408 . S
C3133 C3132 1.404 . S
C3133 H3145 0.930 . S
C3134 C3130 1.524 . S
C3134 H3146 0.956 . S
C3134 H3147 0.961 . S
C3134 H3148 0.961 . S
C3135 C3132 1.539 . S
C3135 H3149 0.958 . S
C3135 H3150 0.961 . S
C3135 H3151 0.960 . S
H3136 C3120 0.931 . S
H3137 C3125 0.929 . S
H3138 C3126 0.960 . S
H3139 C3126 0.962 . S
H3140 C3126 0.960 . S
H3141 C3127 0.961 . S
H3142 C3127 0.961 . S
H3143 C3127 0.961 . S
H3144 C3128 0.931 . S
H3145 C3133 0.930 . S
H3146 C3134 0.956 . S
H3147 C3134 0.961 . S
H3148 C3134 0.961 . S
H3149 C3135 0.958 . S
H3150 C3135 0.961 . S
H3151 C3135 0.960 . S
C3152 C3153 1.391 . S
C3152 C3154 1.394 . S
C3152 H3168 0.931 . S
C3153 C3152 1.391 . S
C3153 C3157 1.376 . S
C3154 C3152 1.394 . S
C3154 C3155 1.369 . S
C3154 C3158 1.531 . S
C3155 C3154 1.369 . S
C3155 C3156 1.410 . S
C3155 C3163 1.503 . S
C3156 C3155 1.410 . S
C3156 C3157 1.392 . S
C3156 C3159 1.511 . S
C3157 C3153 1.376 . S
C3157 C3156 1.392 . S
C3157 H3169 0.929 . S
C3158 C3154 1.531 . S
C3158 H3170 0.960 . S
C3158 H3171 0.962 . S
C3158 H3172 0.960 . S
C3159 C3156 1.511 . S
C3159 H3173 0.961 . S
C3159 H3174 0.961 . S
C3159 H3175 0.961 . S
C3160 C3161 1.370 . S
C3160 C3162 1.363 . S
C3160 H3176 0.931 . S
C3161 C3160 1.370 . S
C3161 C3165 1.408 . S
C3162 C3160 1.363 . S
C3162 C3163 1.370 . S
C3162 C3166 1.524 . S
C3163 C3155 1.503 . S
C3163 C3162 1.370 . S
C3163 C3164 1.403 . S
C3164 C3163 1.403 . S
C3164 C3165 1.404 . S
C3164 C3167 1.539 . S
C3165 C3161 1.408 . S
C3165 C3164 1.404 . S
C3165 H3177 0.930 . S
C3166 C3162 1.524 . S
C3166 H3178 0.956 . S
C3166 H3179 0.961 . S
C3166 H3180 0.961 . S
C3167 C3164 1.539 . S
C3167 H3181 0.958 . S
C3167 H3182 0.961 . S
C3167 H3183 0.960 . S
H3168 C3152 0.931 . S
H3169 C3157 0.929 . S
H3170 C3158 0.960 . S
H3171 C3158 0.962 . S
H3172 C3158 0.960 . S
H3173 C3159 0.961 . S
H3174 C3159 0.961 . S
H3175 C3159 0.961 . S
H3176 C3160 0.931 . S
H3177 C3165 0.930 . S
H3178 C3166 0.956 . S
H3179 C3166 0.961 . S
H3180 C3166 0.961 . S
H3181 C3167 0.958 . S
H3182 C3167 0.961 . S
H3183 C3167 0.960 . S
C3184 C3185 1.391 . S
C3184 C3186 1.394 . S
C3184 H3200 0.931 . S
C3185 C3184 1.391 . S
C3185 C3189 1.376 . S
C3186 C3184 1.394 . S
C3186 C3187 1.369 . S
C3186 C3190 1.531 . S
C3187 C3186 1.369 . S
C3187 C3188 1.410 . S
C3187 C3195 1.503 . S
C3188 C3187 1.410 . S
C3188 C3189 1.392 . S
C3188 C3191 1.511 . S
C3189 C3185 1.376 . S
C3189 C3188 1.392 . S
C3189 H3201 0.929 . S
C3190 C3186 1.531 . S
C3190 H3202 0.960 . S
C3190 H3203 0.962 . S
C3190 H3204 0.960 . S
C3191 C3188 1.511 . S
C3191 H3205 0.961 . S
C3191 H3206 0.961 . S
C3191 H3207 0.961 . S
C3192 C3193 1.370 . S
C3192 C3194 1.363 . S
C3192 H3208 0.931 . S
C3193 C3192 1.370 . S
C3193 C3197 1.408 . S
C3194 C3192 1.363 . S
C3194 C3195 1.370 . S
C3194 C3198 1.524 . S
C3195 C3187 1.503 . S
C3195 C3194 1.370 . S
C3195 C3196 1.403 . S
C3196 C3195 1.403 . S
C3196 C3197 1.404 . S
C3196 C3199 1.539 . S
C3197 C3193 1.408 . S
C3197 C3196 1.404 . S
C3197 H3209 0.930 . S
C3198 C3194 1.524 . S
C3198 H3210 0.956 . S
C3198 H3211 0.961 . S
C3198 H3212 0.961 . S
C3199 C3196 1.539 . S
C3199 H3213 0.958 . S
C3199 H3214 0.961 . S
C3199 H3215 0.960 . S
H3200 C3184 0.931 . S
H3201 C3189 0.929 . S
H3202 C3190 0.960 . S
H3203 C3190 0.962 . S
H3204 C3190 0.960 . S
H3205 C3191 0.961 . S
H3206 C3191 0.961 . S
H3207 C3191 0.961 . S
H3208 C3192 0.931 . S
H3209 C3197 0.930 . S
H3210 C3198 0.956 . S
H3211 C3198 0.961 . S
H3212 C3198 0.961 . S
H3213 C3199 0.958 . S
H3214 C3199 0.961 . S
H3215 C3199 0.960 . S
C3216 C3217 1.391 . S
C3216 C3218 1.394 . S
C3216 H3232 0.931 . S
C3217 C3216 1.391 . S
C3217 C3221 1.376 . S
C3218 C3216 1.394 . S
C3218 C3219 1.369 . S
C3218 C3222 1.531 . S
C3219 C3218 1.369 . S
C3219 C3220 1.410 . S
C3219 C3227 1.503 . S
C3220 C3219 1.410 . S
C3220 C3221 1.392 . S
C3220 C3223 1.511 . S
C3221 C3217 1.376 . S
C3221 C3220 1.392 . S
C3221 H3233 0.929 . S
C3222 C3218 1.531 . S
C3222 H3234 0.960 . S
C3222 H3235 0.962 . S
C3222 H3236 0.960 . S
C3223 C3220 1.511 . S
C3223 H3237 0.961 . S
C3223 H3238 0.961 . S
C3223 H3239 0.961 . S
C3224 C3225 1.370 . S
C3224 C3226 1.363 . S
C3224 H3240 0.931 . S
C3225 C3224 1.370 . S
C3225 C3229 1.408 . S
C3226 C3224 1.363 . S
C3226 C3227 1.370 . S
C3226 C3230 1.524 . S
C3227 C3219 1.503 . S
C3227 C3226 1.370 . S
C3227 C3228 1.403 . S
C3228 C3227 1.403 . S
C3228 C3229 1.404 . S
C3228 C3231 1.539 . S
C3229 C3225 1.408 . S
C3229 C3228 1.404 . S
C3229 H3241 0.930 . S
C3230 C3226 1.524 . S
C3230 H3242 0.956 . S
C3230 H3243 0.961 . S
C3230 H3244 0.961 . S
C3231 C3228 1.539 . S
C3231 H3245 0.958 . S
C3231 H3246 0.961 . S
C3231 H3247 0.960 . S
H3232 C3216 0.931 . S
H3233 C3221 0.929 . S
H3234 C3222 0.960 . S
H3235 C3222 0.962 . S
H3236 C3222 0.960 . S
H3237 C3223 0.961 . S
H3238 C3223 0.961 . S
H3239 C3223 0.961 . S
H3240 C3224 0.931 . S
H3241 C3229 0.930 . S
H3242 C3230 0.956 . S
H3243 C3230 0.961 . S
H3244 C3230 0.961 . S
H3245 C3231 0.958 . S
H3246 C3231 0.961 . S
H3247 C3231 0.960 . S
C3248 C3249 1.391 . S
C3248 C3250 1.394 . S
C3248 H3264 0.931 . S
C3249 C3248 1.391 . S
C3249 C3253 1.376 . S
C3250 C3248 1.394 . S
C3250 C3251 1.369 . S
C3250 C3254 1.531 . S
C3251 C3250 1.369 . S
C3251 C3252 1.410 . S
C3251 C3259 1.503 . S
C3252 C3251 1.410 . S
C3252 C3253 1.392 . S
C3252 C3255 1.511 . S
C3253 C3249 1.376 . S
C3253 C3252 1.392 . S
C3253 H3265 0.929 . S
C3254 C3250 1.531 . S
C3254 H3266 0.960 . S
C3254 H3267 0.962 . S
C3254 H3268 0.960 . S
C3255 C3252 1.511 . S
C3255 H3269 0.961 . S
C3255 H3270 0.961 . S
C3255 H3271 0.961 . S
C3256 C3257 1.370 . S
C3256 C3258 1.363 . S
C3256 H3272 0.931 . S
C3257 C3256 1.370 . S
C3257 C3261 1.408 . S
C3258 C3256 1.363 . S
C3258 C3259 1.370 . S
C3258 C3262 1.524 . S
C3259 C3251 1.503 . S
C3259 C3258 1.370 . S
C3259 C3260 1.403 . S
C3260 C3259 1.403 . S
C3260 C3261 1.404 . S
C3260 C3263 1.539 . S
C3261 C3257 1.408 . S
C3261 C3260 1.404 . S
C3261 H3273 0.930 . S
C3262 C3258 1.524 . S
C3262 H3274 0.956 . S
C3262 H3275 0.961 . S
C3262 H3276 0.961 . S
C3263 C3260 1.539 . S
C3263 H3277 0.958 . S
C3263 H3278 0.961 . S
C3263 H3279 0.960 . S
H3264 C3248 0.931 . S
H3265 C3253 0.929 . S
H3266 C3254 0.960 . S
H3267 C3254 0.962 . S
H3268 C3254 0.960 . S
H3269 C3255 0.961 . S
H3270 C3255 0.961 . S
H3271 C3255 0.961 . S
H3272 C3256 0.931 . S
H3273 C3261 0.930 . S
H3274 C3262 0.956 . S
H3275 C3262 0.961 . S
H3276 C3262 0.961 . S
H3277 C3263 0.958 . S
H3278 C3263 0.961 . S
H3279 C3263 0.960 . S
C3280 C3281 1.391 . S
C3280 C3282 1.394 . S
C3280 H3296 0.931 . S
C3281 C3280 1.391 . S
C3281 C3285 1.376 . S
C3282 C3280 1.394 . S
C3282 C3283 1.369 . S
C3282 C3286 1.531 . S
C3283 C3282 1.369 . S
C3283 C3284 1.410 . S
C3283 C3291 1.503 . S
C3284 C3283 1.410 . S
C3284 C3285 1.392 . S
C3284 C3287 1.511 . S
C3285 C3281 1.376 . S
C3285 C3284 1.392 . S
C3285 H3297 0.929 . S
C3286 C3282 1.531 . S
C3286 H3298 0.960 . S
C3286 H3299 0.962 . S
C3286 H3300 0.960 . S
C3287 C3284 1.511 . S
C3287 H3301 0.961 . S
C3287 H3302 0.961 . S
C3287 H3303 0.961 . S
C3288 C3289 1.370 . S
C3288 C3290 1.363 . S
C3288 H3304 0.931 . S
C3289 C3288 1.370 . S
C3289 C3293 1.408 . S
C3290 C3288 1.363 . S
C3290 C3291 1.370 . S
C3290 C3294 1.524 . S
C3291 C3283 1.503 . S
C3291 C3290 1.370 . S
C3291 C3292 1.403 . S
C3292 C3291 1.403 . S
C3292 C3293 1.404 . S
C3292 C3295 1.539 . S
C3293 C3289 1.408 . S
C3293 C3292 1.404 . S
C3293 H3305 0.930 . S
C3294 C3290 1.524 . S
C3294 H3306 0.956 . S
C3294 H3307 0.961 . S
C3294 H3308 0.961 . S
C3295 C3292 1.539 . S
C3295 H3309 0.958 . S
C3295 H3310 0.961 . S
C3295 H3311 0.960 . S
H3296 C3280 0.931 . S
H3297 C3285 0.929 . S
H3298 C3286 0.960 . S
H3299 C3286 0.962 . S
H3300 C3286 0.960 . S
H3301 C3287 0.961 . S
H3302 C3287 0.961 . S
H3303 C3287 0.961 . S
H3304 C3288 0.931 . S
H3305 C3293 0.930 . S
H3306 C3294 0.956 . S
H3307 C3294 0.961 . S
H3308 C3294 0.961 . S
H3309 C3295 0.958 . S
H3310 C3295 0.961 . S
H3311 C3295 0.960 . S
C3312 C3313 1.391 . S
C3312 C3314 1.394 . S
C3312 H3328 0.931 . S
C3313 C3312 1.391 . S
C3313 C3317 1.376 . S
C3314 C3312 1.394 . S
C3314 C3315 1.369 . S
C3314 C3318 1.531 . S
C3315 C3314 1.369 . S
C3315 C3316 1.410 . S
C3315 C3323 1.503 . S
C3316 C3315 1.410 . S
C3316 C3317 1.392 . S
C3316 C3319 1.511 . S
C3317 C3313 1.376 . S
C3317 C3316 1.392 . S
C3317 H3329 0.929 . S
C3318 C3314 1.531 . S
C3318 H3330 0.960 . S
C3318 H3331 0.962 . S
C3318 H3332 0.960 . S
C3319 C3316 1.511 . S
C3319 H3333 0.961 . S
C3319 H3334 0.961 . S
C3319 H3335 0.961 . S
C3320 C3321 1.370 . S
C3320 C3322 1.363 . S
C3320 H3336 0.931 . S
C3321 C3320 1.370 . S
C3321 C3325 1.408 . S
C3322 C3320 1.363 . S
C3322 C3323 1.370 . S
C3322 C3326 1.524 . S
C3323 C3315 1.503 . S
C3323 C3322 1.370 . S
C3323 C3324 1.403 . S
C3324 C3323 1.403 . S
C3324 C3325 1.404 . S
C3324 C3327 1.539 . S
C3325 C3321 1.408 . S
C3325 C3324 1.404 . S
C3325 H3337 0.930 . S
C3326 C3322 1.524 . S
C3326 H3338 0.956 . S
C3326 H3339 0.961 . S
C3326 H3340 0.961 . S
C3327 C3324 1.539 . S
C3327 H3341 0.958 . S
C3327 H3342 0.961 . S
C3327 H3343 0.960 . S
H3328 C3312 0.931 . S
H3329 C3317 0.929 . S
H3330 C3318 0.960 . S
H3331 C3318 0.962 . S
H3332 C3318 0.960 . S
H3333 C3319 0.961 . S
H3334 C3319 0.961 . S
H3335 C3319 0.961 . S
H3336 C3320 0.931 . S
H3337 C3325 0.930 . S
H3338 C3326 0.956 . S
H3339 C3326 0.961 . S
H3340 C3326 0.961 . S
H3341 C3327 0.958 . S
H3342 C3327 0.961 . S
H3343 C3327 0.960 . S
C3344 C3345 1.391 . S
C3344 C3346 1.394 . S
C3344 H3360 0.931 . S
C3345 C3344 1.391 . S
C3345 C3349 1.376 . S
C3346 C3344 1.394 . S
C3346 C3347 1.369 . S
C3346 C3350 1.531 . S
C3347 C3346 1.369 . S
C3347 C3348 1.410 . S
C3347 C3355 1.503 . S
C3348 C3347 1.410 . S
C3348 C3349 1.392 . S
C3348 C3351 1.511 . S
C3349 C3345 1.376 . S
C3349 C3348 1.392 . S
C3349 H3361 0.929 . S
C3350 C3346 1.531 . S
C3350 H3362 0.960 . S
C3350 H3363 0.962 . S
C3350 H3364 0.960 . S
C3351 C3348 1.511 . S
C3351 H3365 0.961 . S
C3351 H3366 0.961 . S
C3351 H3367 0.961 . S
C3352 C3353 1.370 . S
C3352 C3354 1.363 . S
C3352 H3368 0.931 . S
C3353 C3352 1.370 . S
C3353 C3357 1.408 . S
C3354 C3352 1.363 . S
C3354 C3355 1.370 . S
C3354 C3358 1.524 . S
C3355 C3347 1.503 . S
C3355 C3354 1.370 . S
C3355 C3356 1.403 . S
C3356 C3355 1.403 . S
C3356 C3357 1.404 . S
C3356 C3359 1.539 . S
C3357 C3353 1.408 . S
C3357 C3356 1.404 . S
C3357 H3369 0.930 . S
C3358 C3354 1.524 . S
C3358 H3370 0.956 . S
C3358 H3371 0.961 . S
C3358 H3372 0.961 . S
C3359 C3356 1.539 . S
C3359 H3373 0.958 . S
C3359 H3374 0.961 . S
C3359 H3375 0.960 . S
H3360 C3344 0.931 . S
H3361 C3349 0.929 . S
H3362 C3350 0.960 . S
H3363 C3350 0.962 . S
H3364 C3350 0.960 . S
H3365 C3351 0.961 . S
H3366 C3351 0.961 . S
H3367 C3351 0.961 . S
H3368 C3352 0.931 . S
H3369 C3357 0.930 . S
H3370 C3358 0.956 . S
H3371 C3358 0.961 . S
H3372 C3358 0.961 . S
H3373 C3359 0.958 . S
H3374 C3359 0.961 . S
H3375 C3359 0.960 . S
C3376 C3377 1.391 . S
C3376 C3378 1.394 . S
C3376 H3392 0.931 . S
C3377 C3376 1.391 . S
C3377 C3381 1.376 . S
C3378 C3376 1.394 . S
C3378 C3379 1.369 . S
C3378 C3382 1.531 . S
C3379 C3378 1.369 . S
C3379 C3380 1.410 . S
C3379 C3387 1.503 . S
C3380 C3379 1.410 . S
C3380 C3381 1.392 . S
C3380 C3383 1.511 . S
C3381 C3377 1.376 . S
C3381 C3380 1.392 . S
C3381 H3393 0.929 . S
C3382 C3378 1.531 . S
C3382 H3394 0.960 . S
C3382 H3395 0.962 . S
C3382 H3396 0.960 . S
C3383 C3380 1.511 . S
C3383 H3397 0.961 . S
C3383 H3398 0.961 . S
C3383 H3399 0.961 . S
C3384 C3385 1.370 . S
C3384 C3386 1.363 . S
C3384 H3400 0.931 . S
C3385 C3384 1.370 . S
C3385 C3389 1.408 . S
C3386 C3384 1.363 . S
C3386 C3387 1.370 . S
C3386 C3390 1.524 . S
C3387 C3379 1.503 . S
C3387 C3386 1.370 . S
C3387 C3388 1.403 . S
C3388 C3387 1.403 . S
C3388 C3389 1.404 . S
C3388 C3391 1.539 . S
C3389 C3385 1.408 . S
C3389 C3388 1.404 . S
C3389 H3401 0.930 . S
C3390 C3386 1.524 . S
C3390 H3402 0.956 . S
C3390 H3403 0.961 . S
C3390 H3404 0.961 . S
C3391 C3388 1.539 . S
C3391 H3405 0.958 . S
C3391 H3406 0.961 . S
C3391 H3407 0.960 . S
H3392 C3376 0.931 . S
H3393 C3381 0.929 . S
H3394 C3382 0.960 . S
H3395 C3382 0.962 . S
H3396 C3382 0.960 . S
H3397 C3383 0.961 . S
H3398 C3383 0.961 . S
H3399 C3383 0.961 . S
H3400 C3384 0.931 . S
H3401 C3389 0.930 . S
H3402 C3390 0.956 . S
H3403 C3390 0.961 . S
H3404 C3390 0.961 . S
H3405 C3391 0.958 . S
H3406 C3391 0.961 . S
H3407 C3391 0.960 . S
C3408 C3409 1.391 . S
C3408 C3410 1.394 . S
C3408 H3424 0.931 . S
C3409 C3408 1.391 . S
C3409 C3413 1.376 . S
C3410 C3408 1.394 . S
C3410 C3411 1.369 . S
C3410 C3414 1.531 . S
C3411 C3410 1.369 . S
C3411 C3412 1.410 . S
C3411 C3419 1.503 . S
C3412 C3411 1.410 . S
C3412 C3413 1.392 . S
C3412 C3415 1.511 . S
C3413 C3409 1.376 . S
C3413 C3412 1.392 . S
C3413 H3425 0.929 . S
C3414 C3410 1.531 . S
C3414 H3426 0.960 . S
C3414 H3427 0.962 . S
C3414 H3428 0.960 . S
C3415 C3412 1.511 . S
C3415 H3429 0.961 . S
C3415 H3430 0.961 . S
C3415 H3431 0.961 . S
C3416 C3417 1.370 . S
C3416 C3418 1.363 . S
C3416 H3432 0.931 . S
C3417 C3416 1.370 . S
C3417 C3421 1.408 . S
C3418 C3416 1.363 . S
C3418 C3419 1.370 . S
C3418 C3422 1.524 . S
C3419 C3411 1.503 . S
C3419 C3418 1.370 . S
C3419 C3420 1.403 . S
C3420 C3419 1.403 . S
C3420 C3421 1.404 . S
C3420 C3423 1.539 . S
C3421 C3417 1.408 . S
C3421 C3420 1.404 . S
C3421 H3433 0.930 . S
C3422 C3418 1.524 . S
C3422 H3434 0.956 . S
C3422 H3435 0.961 . S
C3422 H3436 0.961 . S
C3423 C3420 1.539 . S
C3423 H3437 0.958 . S
C3423 H3438 0.961 . S
C3423 H3439 0.960 . S
H3424 C3408 0.931 . S
H3425 C3413 0.929 . S
H3426 C3414 0.960 . S
H3427 C3414 0.962 . S
H3428 C3414 0.960 . S
H3429 C3415 0.961 . S
H3430 C3415 0.961 . S
H3431 C3415 0.961 . S
H3432 C3416 0.931 . S
H3433 C3421 0.930 . S
H3434 C3422 0.956 . S
H3435 C3422 0.961 . S
H3436 C3422 0.961 . S
H3437 C3423 0.958 . S
H3438 C3423 0.961 . S
H3439 C3423 0.960 . S
C3440 C3441 1.391 . S
C3440 C3442 1.394 . S
C3440 H3456 0.931 . S
C3441 C3440 1.391 . S
C3441 C3445 1.376 . S
C3442 C3440 1.394 . S
C3442 C3443 1.369 . S
C3442 C3446 1.531 . S
C3443 C3442 1.369 . S
C3443 C3444 1.410 . S
C3443 C3451 1.503 . S
C3444 C3443 1.410 . S
C3444 C3445 1.392 . S
C3444 C3447 1.511 . S
C3445 C3441 1.376 . S
C3445 C3444 1.392 . S
C3445 H3457 0.929 . S
C3446 C3442 1.531 . S
C3446 H3458 0.960 . S
C3446 H3459 0.962 . S
C3446 H3460 0.960 . S
C3447 C3444 1.511 . S
C3447 H3461 0.961 . S
C3447 H3462 0.961 . S
C3447 H3463 0.961 . S
C3448 C3449 1.370 . S
C3448 C3450 1.363 . S
C3448 H3464 0.931 . S
C3449 C3448 1.370 . S
C3449 C3453 1.408 . S
C3450 C3448 1.363 . S
C3450 C3451 1.370 . S
C3450 C3454 1.524 . S
C3451 C3443 1.503 . S
C3451 C3450 1.370 . S
C3451 C3452 1.403 . S
C3452 C3451 1.403 . S
C3452 C3453 1.404 . S
C3452 C3455 1.539 . S
C3453 C3449 1.408 . S
C3453 C3452 1.404 . S
C3453 H3465 0.930 . S
C3454 C3450 1.524 . S
C3454 H3466 0.956 . S
C3454 H3467 0.961 . S
C3454 H3468 0.961 . S
C3455 C3452 1.539 . S
C3455 H3469 0.958 . S
C3455 H3470 0.961 . S
C3455 H3471 0.960 . S
H3456 C3440 0.931 . S
H3457 C3445 0.929 . S
H3458 C3446 0.960 . S
H3459 C3446 0.962 . S
H3460 C3446 0.960 . S
H3461 C3447 0.961 . S
H3462 C3447 0.961 . S
H3463 C3447 0.961 . S
H3464 C3448 0.931 . S
H3465 C3453 0.930 . S
H3466 C3454 0.956 . S
H3467 C3454 0.961 . S
H3468 C3454 0.961 . S
H3469 C3455 0.958 . S
H3470 C3455 0.961 . S
H3471 C3455 0.960 . S
C3472 C3473 1.391 . S
C3472 C3474 1.394 . S
C3472 H3488 0.931 . S
C3473 C3472 1.391 . S
C3473 C3477 1.376 . S
C3474 C3472 1.394 . S
C3474 C3475 1.369 . S
C3474 C3478 1.531 . S
C3475 C3474 1.369 . S
C3475 C3476 1.410 . S
C3475 C3483 1.503 . S
C3476 C3475 1.410 . S
C3476 C3477 1.392 . S
C3476 C3479 1.511 . S
C3477 C3473 1.376 . S
C3477 C3476 1.392 . S
C3477 H3489 0.929 . S
C3478 C3474 1.531 . S
C3478 H3490 0.960 . S
C3478 H3491 0.962 . S
C3478 H3492 0.960 . S
C3479 C3476 1.511 . S
C3479 H3493 0.961 . S
C3479 H3494 0.961 . S
C3479 H3495 0.961 . S
C3480 C3481 1.370 . S
C3480 C3482 1.363 . S
C3480 H3496 0.931 . S
C3481 C3480 1.370 . S
C3481 C3485 1.408 . S
C3482 C3480 1.363 . S
C3482 C3483 1.370 . S
C3482 C3486 1.524 . S
C3483 C3475 1.503 . S
C3483 C3482 1.370 . S
C3483 C3484 1.403 . S
C3484 C3483 1.403 . S
C3484 C3485 1.404 . S
C3484 C3487 1.539 . S
C3485 C3481 1.408 . S
C3485 C3484 1.404 . S
C3485 H3497 0.930 . S
C3486 C3482 1.524 . S
C3486 H3498 0.956 . S
C3486 H3499 0.961 . S
C3486 H3500 0.961 . S
C3487 C3484 1.539 . S
C3487 H3501 0.958 . S
C3487 H3502 0.961 . S
C3487 H3503 0.960 . S
H3488 C3472 0.931 . S
H3489 C3477 0.929 . S
H3490 C3478 0.960 . S
H3491 C3478 0.962 . S
H3492 C3478 0.960 . S
H3493 C3479 0.961 . S
H3494 C3479 0.961 . S
H3495 C3479 0.961 . S
H3496 C3480 0.931 . S
H3497 C3485 0.930 . S
H3498 C3486 0.956 . S
H3499 C3486 0.961 . S
H3500 C3486 0.961 . S
H3501 C3487 0.958 . S
H3502 C3487 0.961 . S
H3503 C3487 0.960 . S
C3504 C3505 1.391 . S
C3504 C3506 1.394 . S
C3504 H3520 0.931 . S
C3505 C3504 1.391 . S
C3505 C3509 1.376 . S
C3506 C3504 1.394 . S
C3506 C3507 1.369 . S
C3506 C3510 1.531 . S
C3507 C3506 1.369 . S
C3507 C3508 1.410 . S
C3507 C3515 1.503 . S
C3508 C3507 1.410 . S
C3508 C3509 1.392 . S
C3508 C3511 1.511 . S
C3509 C3505 1.376 . S
C3509 C3508 1.392 . S
C3509 H3521 0.929 . S
C3510 C3506 1.531 . S
C3510 H3522 0.960 . S
C3510 H3523 0.962 . S
C3510 H3524 0.960 . S
C3511 C3508 1.511 . S
C3511 H3525 0.961 . S
C3511 H3526 0.961 . S
C3511 H3527 0.961 . S
C3512 C3513 1.370 . S
C3512 C3514 1.363 . S
C3512 H3528 0.931 . S
C3513 C3512 1.370 . S
C3513 C3517 1.408 . S
C3514 C3512 1.363 . S
C3514 C3515 1.370 . S
C3514 C3518 1.524 . S
C3515 C3507 1.503 . S
C3515 C3514 1.370 . S
C3515 C3516 1.403 . S
C3516 C3515 1.403 . S
C3516 C3517 1.404 . S
C3516 C3519 1.539 . S
C3517 C3513 1.408 . S
C3517 C3516 1.404 . S
C3517 H3529 0.930 . S
C3518 C3514 1.524 . S
C3518 H3530 0.956 . S
C3518 H3531 0.961 . S
C3518 H3532 0.961 . S
C3519 C3516 1.539 . S
C3519 H3533 0.958 . S
C3519 H3534 0.961 . S
C3519 H3535 0.960 . S
H3520 C3504 0.931 . S
H3521 C3509 0.929 . S
H3522 C3510 0.960 . S
H3523 C3510 0.962 . S
H3524 C3510 0.960 . S
H3525 C3511 0.961 . S
H3526 C3511 0.961 . S
H3527 C3511 0.961 . S
H3528 C3512 0.931 . S
H3529 C3517 0.930 . S
H3530 C3518 0.956 . S
H3531 C3518 0.961 . S
H3532 C3518 0.961 . S
H3533 C3519 0.958 . S
H3534 C3519 0.961 . S
H3535 C3519 0.960 . S
C3536 C3537 1.391 . S
C3536 C3538 1.394 . S
C3536 H3552 0.931 . S
C3537 C3536 1.391 . S
C3537 C3541 1.376 . S
C3538 C3536 1.394 . S
C3538 C3539 1.369 . S
C3538 C3542 1.531 . S
C3539 C3538 1.369 . S
C3539 C3540 1.410 . S
C3539 C3547 1.503 . S
C3540 C3539 1.410 . S
C3540 C3541 1.392 . S
C3540 C3543 1.511 . S
C3541 C3537 1.376 . S
C3541 C3540 1.392 . S
C3541 H3553 0.929 . S
C3542 C3538 1.531 . S
C3542 H3554 0.960 . S
C3542 H3555 0.962 . S
C3542 H3556 0.960 . S
C3543 C3540 1.511 . S
C3543 H3557 0.961 . S
C3543 H3558 0.961 . S
C3543 H3559 0.961 . S
C3544 C3545 1.370 . S
C3544 C3546 1.363 . S
C3544 H3560 0.931 . S
C3545 C3544 1.370 . S
C3545 C3549 1.408 . S
C3546 C3544 1.363 . S
C3546 C3547 1.370 . S
C3546 C3550 1.524 . S
C3547 C3539 1.503 . S
C3547 C3546 1.370 . S
C3547 C3548 1.403 . S
C3548 C3547 1.403 . S
C3548 C3549 1.404 . S
C3548 C3551 1.539 . S
C3549 C3545 1.408 . S
C3549 C3548 1.404 . S
C3549 H3561 0.930 . S
C3550 C3546 1.524 . S
C3550 H3562 0.956 . S
C3550 H3563 0.961 . S
C3550 H3564 0.961 . S
C3551 C3548 1.539 . S
C3551 H3565 0.958 . S
C3551 H3566 0.961 . S
C3551 H3567 0.960 . S
H3552 C3536 0.931 . S
H3553 C3541 0.929 . S
H3554 C3542 0.960 . S
H3555 C3542 0.962 . S
H3556 C3542 0.960 . S
H3557 C3543 0.961 . S
H3558 C3543 0.961 . S
H3559 C3543 0.961 . S
H3560 C3544 0.931 . S
H3561 C3549 0.930 . S
H3562 C3550 0.956 . S
H3563 C3550 0.961 . S
H3564 C3550 0.961 . S
H3565 C3551 0.958 . S
H3566 C3551 0.961 . S
H3567 C3551 0.960 . S
C3568 C3569 1.391 . S
C3568 C3570 1.394 . S
C3568 H3584 0.931 . S
C3569 C3568 1.391 . S
C3569 C3573 1.376 . S
C3570 C3568 1.394 . S
C3570 C3571 1.369 . S
C3570 C3574 1.531 . S
C3571 C3570 1.369 . S
C3571 C3572 1.410 . S
C3571 C3579 1.503 . S
C3572 C3571 1.410 . S
C3572 C3573 1.392 . S
C3572 C3575 1.511 . S
C3573 C3569 1.376 . S
C3573 C3572 1.392 . S
C3573 H3585 0.929 . S
C3574 C3570 1.531 . S
C3574 H3586 0.960 . S
C3574 H3587 0.962 . S
C3574 H3588 0.960 . S
C3575 C3572 1.511 . S
C3575 H3589 0.961 . S
C3575 H3590 0.961 . S
C3575 H3591 0.961 . S
C3576 C3577 1.370 . S
C3576 C3578 1.363 . S
C3576 H3592 0.931 . S
C3577 C3576 1.370 . S
C3577 C3581 1.408 . S
C3578 C3576 1.363 . S
C3578 C3579 1.370 . S
C3578 C3582 1.524 . S
C3579 C3571 1.503 . S
C3579 C3578 1.370 . S
C3579 C3580 1.403 . S
C3580 C3579 1.403 . S
C3580 C3581 1.404 . S
C3580 C3583 1.539 . S
C3581 C3577 1.408 . S
C3581 C3580 1.404 . S
C3581 H3593 0.930 . S
C3582 C3578 1.524 . S
C3582 H3594 0.956 . S
C3582 H3595 0.961 . S
C3582 H3596 0.961 . S
C3583 C3580 1.539 . S
C3583 H3597 0.958 . S
C3583 H3598 0.961 . S
C3583 H3599 0.960 . S
H3584 C3568 0.931 . S
H3585 C3573 0.929 . S
H3586 C3574 0.960 . S
H3587 C3574 0.962 . S
H3588 C3574 0.960 . S
H3589 C3575 0.961 . S
H3590 C3575 0.961 . S
H3591 C3575 0.961 . S
H3592 C3576 0.931 . S
H3593 C3581 0.930 . S
H3594 C3582 0.956 . S
H3595 C3582 0.961 . S
H3596 C3582 0.961 . S
H3597 C3583 0.958 . S
H3598 C3583 0.961 . S
H3599 C3583 0.960 . S
C3600 C3601 1.391 . S
C3600 C3602 1.394 . S
C3600 H3616 0.931 . S
C3601 C3600 1.391 . S
C3601 C3605 1.376 . S
C3602 C3600 1.394 . S
C3602 C3603 1.369 . S
C3602 C3606 1.531 . S
C3603 C3602 1.369 . S
C3603 C3604 1.410 . S
C3603 C3611 1.503 . S
C3604 C3603 1.410 . S
C3604 C3605 1.392 . S
C3604 C3607 1.511 . S
C3605 C3601 1.376 . S
C3605 C3604 1.392 . S
C3605 H3617 0.929 . S
C3606 C3602 1.531 . S
C3606 H3618 0.960 . S
C3606 H3619 0.962 . S
C3606 H3620 0.960 . S
C3607 C3604 1.511 . S
C3607 H3621 0.961 . S
C3607 H3622 0.961 . S
C3607 H3623 0.961 . S
C3608 C3609 1.370 . S
C3608 C3610 1.363 . S
C3608 H3624 0.931 . S
C3609 C3608 1.370 . S
C3609 C3613 1.408 . S
C3610 C3608 1.363 . S
C3610 C3611 1.370 . S
C3610 C3614 1.524 . S
C3611 C3603 1.503 . S
C3611 C3610 1.370 . S
C3611 C3612 1.403 . S
C3612 C3611 1.403 . S
C3612 C3613 1.404 . S
C3612 C3615 1.539 . S
C3613 C3609 1.408 . S
C3613 C3612 1.404 . S
C3613 H3625 0.930 . S
C3614 C3610 1.524 . S
C3614 H3626 0.956 . S
C3614 H3627 0.961 . S
C3614 H3628 0.961 . S
C3615 C3612 1.539 . S
C3615 H3629 0.958 . S
C3615 H3630 0.961 . S
C3615 H3631 0.960 . S
H3616 C3600 0.931 . S
H3617 C3605 0.929 . S
H3618 C3606 0.960 . S
H3619 C3606 0.962 . S
H3620 C3606 0.960 . S
H3621 C3607 0.961 . S
H3622 C3607 0.961 . S
H3623 C3607 0.961 . S
H3624 C3608 0.931 . S
H3625 C3613 0.930 . S
H3626 C3614 0.956 . S
H3627 C3614 0.961 . S
H3628 C3614 0.961 . S
H3629 C3615 0.958 . S
H3630 C3615 0.961 . S
H3631 C3615 0.960 . S
C3632 C3633 1.391 . S
C3632 C3634 1.394 . S
C3632 H3648 0.931 . S
C3633 C3632 1.391 . S
C3633 C3637 1.376 . S
C3634 C3632 1.394 . S
C3634 C3635 1.369 . S
C3634 C3638 1.531 . S
C3635 C3634 1.369 . S
C3635 C3636 1.410 . S
C3635 C3643 1.503 . S
C3636 C3635 1.410 . S
C3636 C3637 1.392 . S
C3636 C3639 1.511 . S
C3637 C3633 1.376 . S
C3637 C3636 1.392 . S
C3637 H3649 0.929 . S
C3638 C3634 1.531 . S
C3638 H3650 0.960 . S
C3638 H3651 0.962 . S
C3638 H3652 0.960 . S
C3639 C3636 1.511 . S
C3639 H3653 0.961 . S
C3639 H3654 0.961 . S
C3639 H3655 0.961 . S
C3640 C3641 1.370 . S
C3640 C3642 1.363 . S
C3640 H3656 0.931 . S
C3641 C3640 1.370 . S
C3641 C3645 1.408 . S
C3642 C3640 1.363 . S
C3642 C3643 1.370 . S
C3642 C3646 1.524 . S
C3643 C3635 1.503 . S
C3643 C3642 1.370 . S
C3643 C3644 1.403 . S
C3644 C3643 1.403 . S
C3644 C3645 1.404 . S
C3644 C3647 1.539 . S
C3645 C3641 1.408 . S
C3645 C3644 1.404 . S
C3645 H3657 0.930 . S
C3646 C3642 1.524 . S
C3646 H3658 0.956 . S
C3646 H3659 0.961 . S
C3646 H3660 0.961 . S
C3647 C3644 1.539 . S
C3647 H3661 0.958 . S
C3647 H3662 0.961 . S
C3647 H3663 0.960 . S
H3648 C3632 0.931 . S
H3649 C3637 0.929 . S
H3650 C3638 0.960 . S
H3651 C3638 0.962 . S
H3652 C3638 0.960 . S
H3653 C3639 0.961 . S
H3654 C3639 0.961 . S
H3655 C3639 0.961 . S
H3656 C3640 0.931 . S
H3657 C3645 0.930 . S
H3658 C3646 0.956 . S
H3659 C3646 0.961 . S
H3660 C3646 0.961 . S
H3661 C3647 0.958 . S
H3662 C3647 0.961 . S
H3663 C3647 0.960 . S
C3664 C3665 1.391 . S
C3664 C3666 1.394 . S
C3664 H3680 0.931 . S
C3665 C3664 1.391 . S
C3665 C3669 1.376 . S
C3666 C3664 1.394 . S
C3666 C3667 1.369 . S
C3666 C3670 1.531 . S
C3667 C3666 1.369 . S
C3667 C3668 1.410 . S
C3667 C3675 1.503 . S
C3668 C3667 1.410 . S
C3668 C3669 1.392 . S
C3668 C3671 1.511 . S
C3669 C3665 1.376 . S
C3669 C3668 1.392 . S
C3669 H3681 0.929 . S
C3670 C3666 1.531 . S
C3670 H3682 0.960 . S
C3670 H3683 0.962 . S
C3670 H3684 0.960 . S
C3671 C3668 1.511 . S
C3671 H3685 0.961 . S
C3671 H3686 0.961 . S
C3671 H3687 0.961 . S
C3672 C3673 1.370 . S
C3672 C3674 1.363 . S
C3672 H3688 0.931 . S
C3673 C3672 1.370 . S
C3673 C3677 1.408 . S
C3674 C3672 1.363 . S
C3674 C3675 1.370 . S
C3674 C3678 1.524 . S
C3675 C3667 1.503 . S
C3675 C3674 1.370 . S
C3675 C3676 1.403 . S
C3676 C3675 1.403 . S
C3676 C3677 1.404 . S
C3676 C3679 1.539 . S
C3677 C3673 1.408 . S
C3677 C3676 1.404 . S
C3677 H3689 0.930 . S
C3678 C3674 1.524 . S
C3678 H3690 0.956 . S
C3678 H3691 0.961 . S
C3678 H3692 0.961 . S
C3679 C3676 1.539 . S
C3679 H3693 0.958 . S
C3679 H3694 0.961 . S
C3679 H3695 0.960 . S
H3680 C3664 0.931 . S
H3681 C3669 0.929 . S
H3682 C3670 0.960 . S
H3683 C3670 0.962 . S
H3684 C3670 0.960 . S
H3685 C3671 0.961 . S
H3686 C3671 0.961 . S
H3687 C3671 0.961 . S
H3688 C3672 0.931 . S
H3689 C3677 0.930 . S
H3690 C3678 0.956 . S
H3691 C3678 0.961 . S
H3692 C3678 0.961 . S
H3693 C3679 0.958 . S
H3694 C3679 0.961 . S
H3695 C3679 0.960 . S
C625 C407 1.397 . S
C633 C4 1.403 . S
C657 C23 1.402 . S
C665 C374 1.405 . S
C689 C30 1.405 . S
C697 C387 1.406 . S
C721 C394 1.405 . S
C729 C49 1.406 . S
C753 C335 1.399 . S
C761 C62 1.404 . S
C785 C69 1.401 . S
C793 C342 1.404 . S
C817 C361 1.395 . S
C825 C82 1.402 . S
C849 C95 1.403 . S
C857 C322 1.404 . S
C881 C114 1.403 . S
C889 C582 1.404 . S
C913 C537 1.398 . S
C921 C121 1.402 . S
C945 C556 1.406 . S
C953 C140 1.407 . S
C977 C147 1.406 . S
C985 C563 1.407 . S
C1009 C160 1.395 . S
C1017 C615 1.402 . S
C1041 C179 1.403 . S
C1049 C589 1.404 . S
C1073 C192 1.402 . S
C1081 C602 1.404 . S
C1105 C524 1.406 . S
C1113 C199 1.406 . S
C1137 C511 1.403 . S
C1145 C212 1.406 . S
C1169 C225 1.405 . S
C1177 C433 1.406 . S
C1201 C446 1.400 . S
C1209 C238 1.405 . S
C1233 C257 1.399 . S
C1241 C459 1.404 . S
C1265 C426 1.402 . S
C1273 C270 1.404 . S
C1297 C491 1.406 . S
C1305 C277 1.407 . S
C1329 C296 1.405 . S
C1337 C498 1.405 . S
C1361 C478 1.406 . S
C1369 C303 1.406 . S
C1393 C127 1.729 . S
C1401 C10 1.734 . S
C1425 C134 1.730 . S
C1433 C17 1.734 . S
C1457 C36 1.730 . S
C1465 C153 1.734 . S
C1489 C108 1.729 . S
C1497 C43 1.734 . S
C1521 C56 1.729 . S
C1529 C205 1.734 . S
C1553 C166 1.730 . S
C1561 C75 1.734 . S
C1585 C173 1.729 . S
C1593 C88 1.734 . S
C1617 C186 1.730 . S
C1625 C101 1.734 . S
C1649 C244 1.729 . S
C1657 C218 1.734 . S
C1681 C290 1.729 . S
C1689 C231 1.734 . S
C1713 C309 1.729 . S
C1721 C251 1.734 . S
C1745 C264 1.730 . S
C1753 C283 1.734 . S
C1777 C439 1.730 . S
C1785 C316 1.734 . S
C1809 C452 1.729 . S
C1817 C329 1.734 . S
C1841 C465 1.730 . S
C1849 C348 1.734 . S
C1873 C355 1.729 . S
C1881 C420 1.734 . S
C1905 C368 1.729 . S
C1913 C517 1.734 . S
C1937 C381 1.730 . S
C1945 C472 1.734 . S
C1969 C485 1.729 . S
C1977 C400 1.734 . S
C2001 C504 1.729 . S
C2009 C413 1.734 . S
C2033 C530 1.730 . S
C2041 C550 1.734 . S
C2065 C608 1.730 . S
C2073 C543 1.734 . S
C2097 C621 1.730 . S
C2105 C569 1.734 . S
C2129 C595 1.730 . S
C2137 C576 1.734 . S
C2161 C3 1.423 . S
C2169 C239 1.416 . S
C2193 C18 1.420 . S
C2201 C250 1.421 . S
C2225 C29 1.422 . S
C2233 C263 1.416 . S
C2257 C226 1.407 . S
C2265 C44 1.425 . S
C2289 C57 1.416 . S
C2297 C289 1.423 . S
C2321 C68 1.418 . S
C2329 C213 1.420 . S
C2353 C304 1.420 . S
C2361 C81 1.423 . S
C2385 C278 1.424 . S
C2393 C94 1.422 . S
C2417 C109 1.417 . S
C2425 C122 1.421 . S
C2449 C120 1.422 . S
C2457 C133 1.416 . S
C2481 C135 1.421 . S
C2489 C148 1.417 . S
C2513 C107 1.413 . S
C2521 C146 1.424 . S
C2545 C200 1.425 . S
C2553 C159 1.422 . S
C2577 C161 1.412 . S
C2585 C174 1.423 . S
C2609 C172 1.422 . S
C2617 C187 1.422 . S
C2641 C198 1.423 . S
C2649 C185 1.416 . S
C2673 C42 1.409 . S
C2681 C211 1.425 . S
C2705 C70 1.424 . S
C2713 C224 1.422 . S
C2737 C83 1.411 . S
C2745 C237 1.423 . S
C2769 C252 1.420 . S
C2777 C96 1.417 . S
C2801 C55 1.409 . S
C2809 C265 1.424 . S
C2833 C16 1.422 . S
C2841 C276 1.422 . S
C2865 C31 1.414 . S
C2873 C291 1.424 . S
C2897 C5 1.407 . S
C2905 C302 1.424 . S
C2929 C549 1.423 . S
C2937 C317 1.422 . S
C2961 C330 1.417 . S
C2969 C564 1.421 . S
C2993 C575 1.424 . S
C3001 C341 1.421 . S
C3025 C538 1.416 . S
C3033 C356 1.424 . S
C3057 C369 1.423 . S
C3065 C603 1.417 . S
C3089 C382 1.419 . S
C3097 C525 1.418 . S
C3121 C616 1.411 . S
C3129 C393 1.423 . S
C3153 C406 1.416 . S
C3161 C590 1.422 . S
C3185 C421 1.418 . S
C3193 C434 1.422 . S
C3217 C432 1.423 . S
C3225 C447 1.416 . S
C3249 C445 1.416 . S
C3257 C460 1.424 . S
C3281 C458 1.417 . S
C3289 C419 1.421 . S
C3313 C512 1.415 . S
C3321 C473 1.424 . S
C3345 C471 1.419 . S
C3353 C486 1.422 . S
C3377 C484 1.425 . S
C3385 C497 1.422 . S
C3409 C510 1.423 . S
C3417 C499 1.416 . S
C3441 C354 1.411 . S
C3449 C523 1.423 . S
C3473 C380 1.425 . S
C3481 C536 1.421 . S
C3505 C395 1.410 . S
C3513 C551 1.424 . S
C3537 C562 1.419 . S
C3545 C408 1.418 . S
C3569 C367 1.423 . S
C3577 C577 1.422 . S
C3601 C328 1.425 . S
C3609 C588 1.421 . S
C3633 C601 1.417 . S
C3641 C343 1.421 . S
C3665 C315 1.407 . S
C3673 C614 1.424 . S
