# Generated by pormake.
# Topology qtz-x, (6)-cn, num edge types: 1
# Building blocks:
#     Node 0, Type 0, BuildingBlock: KUMJIN_clean_sbu_0, # of connection points: 6
#     Node 1, Type 0, BuildingBlock: KUMJIN_clean_sbu_0, # of connection points: 6
#     Node 2, Type 0, BuildingBlock: KUMJIN_clean_sbu_0, # of connection points: 6
#     Edge 3, Type (0, 0), BuildingBlock: EZIPEK_clean_linker_0, # of connection points: 2
#     Edge 4, Type (0, 0), BuildingBlock: EZIPEK_clean_linker_0, # of connection points: 2
#     Edge 5, Type (0, 0), BuildingBlock: EZIPEK_clean_linker_0, # of connection points: 2
#     Edge 6, Type (0, 0), BuildingBlock: EZIPEK_clean_linker_0, # of connection points: 2
#     Edge 7, Type (0, 0), BuildingBlock: EZIPEK_clean_linker_0, # of connection points: 2
#     Edge 8, Type (0, 0), BuildingBlock: EZIPEK_clean_linker_0, # of connection points: 2
#     Edge 9, Type (0, 0), BuildingBlock: EZIPEK_clean_linker_0, # of connection points: 2
#     Edge 10, Type (0, 0), BuildingBlock: EZIPEK_clean_linker_0, # of connection points: 2
#     Edge 11, Type (0, 0), BuildingBlock: EZIPEK_clean_linker_0, # of connection points: 2
# Relax obj value: 0.162
# Max RMSD: 0.286
# Mean RMSD: 0.286
data_MOF--net-qtz-x--node1-KUMJIN_clean_sbu_0--edge1-EZIPEK_clean_linker_0
_symmetry_space_group_name_H-M    P1
_symmetry_Int_Tables_number       1
_symmetry_cell_setting            triclinic
loop_
_symmetry_equiv_pos_as_xyz
'x, y, z'
_cell_length_a     11.616522
_cell_length_b     11.657952
_cell_length_c     41.48016
_cell_angle_alpha  90.422171
_cell_angle_beta   89.706702
_cell_angle_gamma 119.61714
loop_
_atom_site_label
_atom_site_type_symbol
_atom_site_fract_x
_atom_site_fract_y
_atom_site_fract_z
_atom_type_partial_charge
Eu0 Eu 0.25522 0.46986 0.19931 0.0
C1 C 0.71073 0.3354 0.13857 0.0
C2 C 0.55463 0.15658 0.17212 0.0
C3 C 0.48397 0.28951 0.1423 0.0
C4 C 0.68371 0.23494 0.16021 0.0
C5 C 0.60961 0.36051 0.12855 0.0
C6 C 0.4569 0.18769 0.16397 0.0
C7 C 0.76556 0.5264 0.09254 0.0
N8 N 0.83556 0.4084 0.12727 0.0
C9 C 0.86243 0.49776 0.10319 0.0
C10 C 0.63878 0.45867 0.10567 0.0
Eu11 Eu -0.0118 0.34261 0.14361 0.0
N12 N 0.78252 0.21189 0.16903 0.0
C13 C 0.75525 0.10332 0.18679 0.0
C14 C 0.52873 0.05243 0.19285 0.0
C15 C 0.62938 0.02466 0.19995 0.0
H16 H 0.95771 0.54465 0.09157 0.0
H17 H 0.60939 0.941 0.21487 0.0
H18 H 0.36342 0.13814 0.17593 0.0
H19 H 0.78823 0.59921 0.07394 0.0
H20 H 0.82976 0.07545 0.19026 0.0
H21 H 0.66373 0.89104 0.13751 0.0
H22 H 0.43122 -0.00836 0.20295 0.0
H23 H 0.26921 0.24763 0.24893 0.0
H24 H 0.44247 0.76541 0.16054 0.0
H25 H 0.4303 0.18011 0.26475 0.0
H26 H 0.41018 0.31791 0.1375 0.0
H27 H 0.82622 0.81586 0.14509 0.0
H28 H 0.87873 0.65382 0.16907 0.0
H29 H 0.56373 0.48099 0.09763 0.0
H30 H 0.80987 0.45287 0.20054 0.0
N31 N 0.46697 0.60498 0.17632 0.0
C32 C 0.50669 0.72424 0.16211 0.0
C33 C 0.72636 0.75699 0.1543 0.0
C34 C 0.68979 0.64311 0.17219 0.0
C35 C 0.63492 0.79923 0.14984 0.0
C36 C 0.5582 0.56805 0.18329 0.0
H37 H 0.65254 0.28865 0.24036 0.0
N38 N 0.39866 0.39275 0.21557 0.0
C39 C 0.45791 0.25935 0.24768 0.0
C40 C 0.52374 0.46097 0.20373 0.0
C41 C 0.36684 0.29788 0.23857 0.0
C42 C 0.58397 0.3223 0.23419 0.0
C43 C 0.61909 0.42628 0.21259 0.0
O44 O 0.20517 0.54464 0.2426 0.0
O45 O 0.03611 0.39352 0.19622 0.0
O46 O 0.01993 0.54727 0.15812 0.0
O47 O 0.23245 0.6428 0.1797 0.0
O48 O 0.09861 0.29993 0.22738 0.0
O49 O 0.40503 0.59533 0.23544 0.0
O50 O -0.0152 0.33143 0.09138 0.0
O51 O 0.20974 0.42268 0.14611 0.0
O52 O 0.2188 0.26045 0.18705 0.0
O53 O 0.02596 0.17015 0.15656 0.0
O54 O 0.14016 0.50471 0.11328 0.0
O55 O 0.87098 0.15253 0.1186 0.0
C56 C -0.00128 0.31411 0.21994 0.0
C57 C 0.3261 0.55762 0.28903 0.0
C58 C 0.40949 0.61156 0.34414 0.0
C59 C 0.40173 0.65228 0.31265 0.0
C60 C 0.34875 0.47666 0.35104 0.0
C61 C 0.25588 0.4238 0.29765 0.0
C62 C 0.26969 0.38339 0.32817 0.0
C63 C 0.13009 0.65237 0.16878 0.0
C64 C 0.32071 0.59727 0.25557 0.0
C65 C 0.74462 0.49279 0.19866 0.0
C66 C 0.78126 0.60283 0.17936 0.0
C67 C 0.24487 0.50365 0.1225 0.0
C68 C 0.78449 0.17866 0.06875 0.0
C69 C 0.8149 0.22367 0.03699 0.0
C70 C 0.72069 0.23102 0.01765 0.0
C71 C 0.5927 0.18793 0.02997 0.0
C72 C 0.65435 0.12828 0.08018 0.0
C73 C 0.55909 0.13392 0.06085 0.0
C74 C 0.12025 0.15875 0.17177 0.0
C75 C 0.89564 0.2072 0.09021 0.0
H76 H 0.45264 0.75637 0.3068 0.0
H77 H 0.36172 0.44422 0.3744 0.0
H78 H 0.19094 0.3497 0.28087 0.0
H79 H 0.21866 0.27952 0.33412 0.0
H80 H 0.91437 0.25917 0.02776 0.0
H81 H 0.51831 0.19297 0.01535 0.0
H82 H 0.62735 0.08889 0.10426 0.0
H83 H 0.45979 0.09839 0.07002 0.0
Eu84 Eu 0.60052 0.92513 0.53399 0.0
C85 C 0.01198 0.46376 0.46629 0.0
C86 C -0.00329 0.63423 0.49628 0.0
C87 C 0.19439 0.68823 0.46535 0.0
C88 C 0.94443 0.50075 0.48767 0.0
C89 C 0.13831 0.55711 0.45492 0.0
C90 C 0.12205 0.72743 0.48503 0.0
C91 C 0.14184 0.3838 0.42362 0.0
N92 N 0.95634 0.33552 0.45749 0.0
C93 C 0.01406 0.29743 0.43421 0.0
C94 C 0.20587 0.51395 0.43458 0.0
Eu95 Eu 0.74329 0.19259 0.47773 0.0
N96 N 0.8281 0.40628 0.50013 0.0
C97 C 0.75549 0.4405 0.51987 0.0
C98 C 0.92475 0.66884 0.51737 0.0
C99 C 0.80413 0.57139 0.52951 0.0
H100 H 0.96254 0.2001 0.42392 0.0
H101 H 0.74701 0.59741 0.54565 0.0
H102 H 0.16624 0.8282 0.49284 0.0
H103 H 0.18975 0.34856 0.4072 0.0
H104 H 0.65779 0.36825 0.52737 0.0
H105 H 0.62554 0.52282 0.47102 0.0
H106 H 0.96192 0.76974 0.52467 0.0
H107 H 0.35063 0.91156 0.57935 0.0
H108 H 0.71555 0.73848 0.49711 0.0
H109 H 0.1171 0.75463 0.59108 0.0
H110 H 0.29465 0.75881 0.4594 0.0
H111 H 0.38736 0.36372 0.47541 0.0
H112 H 0.16972 0.30713 0.4989 0.0
H113 H 0.30676 0.57923 0.42736 0.0
H114 H 0.03068 0.37182 0.52954 0.0
N115 N 0.52793 0.71631 0.50981 0.0
C116 C 0.61034 0.67661 0.49652 0.0
C117 C 0.42592 0.46148 0.4855 0.0
C118 C 0.34464 0.49678 0.50276 0.0
C119 C 0.56005 0.55127 0.48281 0.0
C120 C 0.39799 0.62703 0.51453 0.0
H121 H 0.01023 0.53585 0.56523 0.0
N122 N 0.37451 0.78519 0.54626 0.0
C123 C 0.17315 0.72715 0.57497 0.0
C124 C 0.32026 0.66172 0.53353 0.0
C125 C 0.30536 0.81594 0.56821 0.0
C126 C 0.11376 0.60304 0.56062 0.0
C127 C 0.18832 0.56732 0.54057 0.0
O128 O 0.69906 0.96743 0.58109 0.0
O129 O 0.74249 0.14184 0.52984 0.0
O130 O 0.91658 0.15975 0.49176 0.0
O131 O 0.80137 0.95075 0.51504 0.0
O132 O 0.59788 0.08505 0.5646 0.0
O133 O 0.58067 0.76747 0.56674 0.0
O134 O 0.69881 0.16793 0.42633 0.0
O135 O 0.60572 0.97253 0.48112 0.0
O136 O 0.43078 0.96288 0.51868 0.0
O137 O 0.54534 0.17067 0.49586 0.0
O138 O 0.7563 0.04046 0.4476 0.0
O139 O 0.66978 0.30979 0.45342 0.0
C140 C 0.70697 0.18382 0.55427 0.0
C141 C 0.57824 0.81723 0.62223 0.0
C142 C 0.53872 0.71778 0.67568 0.0
C143 C 0.59794 0.73928 0.64488 0.0
C144 C 0.45236 0.76622 0.6828 0.0
C145 C 0.50098 0.87451 0.63113 0.0
C146 C 0.43434 0.845 0.6606 0.0
C147 C 0.91245 0.05055 0.50298 0.0
C148 C 0.64477 0.84638 0.59034 0.0
C149 C 0.13462 0.4407 0.5273 0.0
C150 C 0.21268 0.40492 0.50894 0.0
C151 C 0.6533 0.93659 0.45769 0.0
C152 C 0.75317 0.36373 0.40002 0.0
C153 C 0.7545 0.31885 0.36864 0.0
C154 C 0.84898 0.40231 0.3463 0.0
C155 C 0.93865 0.53362 0.35519 0.0
C156 C 0.83892 0.49671 0.40801 0.0
C157 C 0.93169 0.58095 0.38568 0.0
C158 C 0.434 0.07002 0.50671 0.0
C159 C 0.67625 0.26617 0.42485 0.0
H160 H 0.66525 0.70251 0.63938 0.0
H161 H 0.40708 0.75137 0.70643 0.0
H162 H 0.49556 0.94569 0.61583 0.0
H163 H 0.3737 0.8886 0.66686 0.0
H164 H 0.68586 0.2173 0.36204 0.0
H165 H 0.01221 0.60015 0.33822 0.0
H166 H 0.83719 0.53479 0.43174 0.0
H167 H -0.00099 0.68271 0.39214 0.0
Eu168 Eu 0.6548 0.52089 0.85938 0.0
C169 C 0.87473 0.16302 0.8353 0.0
C170 C 0.05662 0.26005 0.87336 0.0
C171 C 0.96628 0.03339 0.85712 0.0
C172 C 0.96852 0.27276 0.85221 0.0
C173 C 0.88186 0.04635 0.83551 0.0
C174 C 0.04804 0.13757 0.87732 0.0
C175 C 0.71244 0.95709 0.79474 0.0
N176 N 0.78345 0.17212 0.81686 0.0
C177 C 0.70321 0.07135 0.7965 0.0
C178 C 0.80195 0.94467 0.81444 0.0
Eu179 Eu 0.81079 0.38399 0.81199 0.0
N180 N -0.02067 0.3924 0.8467 0.0
C181 C 0.08512 0.50313 0.85944 0.0
C182 C 0.15404 0.37143 0.88909 0.0
C183 C 0.17043 0.49372 0.88113 0.0
H184 H 0.63463 0.08011 0.7806 0.0
H185 H 0.24462 0.5825 0.89244 0.0
H186 H 0.1068 0.12386 0.89526 0.0
H187 H 0.64775 0.87737 0.77887 0.0
H188 H 0.10482 0.6014 0.85528 0.0
H189 H 0.27805 0.45991 0.77126 0.0
H190 H 0.21966 0.36436 0.9064 0.0
H191 H 0.82204 0.7555 0.91166 0.0
H192 H 0.43147 0.40337 0.79763 0.0
H193 H 0.82674 0.9572 0.93237 0.0
H194 H 0.96353 0.94083 0.85949 0.0
H195 H 0.2727 0.66161 0.78759 0.0
H196 H 0.35944 0.85849 0.82344 0.0
H197 H 0.8029 0.85295 0.81475 0.0
H198 H 0.50656 -0.00625 0.86638 0.0
N199 N 0.52156 0.57608 0.82718 0.0
C200 C 0.4339 0.49357 0.80453 0.0
C201 C 0.34279 0.6384 0.79877 0.0
C202 C 0.42886 0.71929 0.82287 0.0
C203 C 0.34546 0.52474 0.78953 0.0
C204 C 0.51907 0.68604 0.83655 0.0
H205 H 0.69432 0.03872 0.90532 0.0
N206 N 0.6889 0.7281 0.8736 0.0
C207 C 0.76418 0.90366 0.91215 0.0
C208 C 0.60452 0.76365 0.86068 0.0
C209 C 0.76346 0.79166 0.89998 0.0
C210 C 0.68609 0.94792 0.89736 0.0
C211 C 0.60077 0.87525 0.87222 0.0
O212 O 0.63847 0.49294 0.91202 0.0
O213 O 0.73867 0.38373 0.86212 0.0
O214 O 0.58671 0.21912 0.81662 0.0
O215 O 0.48667 0.32022 0.84447 0.0
O216 O 0.82546 0.55011 0.88996 0.0
O217 O 0.46708 0.45397 0.88536 0.0
O218 O 0.77357 0.31137 0.7624 0.0
O219 O 0.67515 0.46926 0.80782 0.0
O220 O 0.86039 0.69996 0.84573 0.0
O221 O 0.96662 0.60069 0.81904 0.0
O222 O 0.838 0.54265 0.77762 0.0
O223 O 0.97192 0.38704 0.78399 0.0
C224 C 0.8135 0.43505 0.88652 0.0
C225 C 0.48686 0.53577 0.93936 0.0
C226 C 0.45497 0.57268 0.99608 0.0
C227 C 0.49524 0.51197 0.97235 0.0
C228 C 0.41524 0.66326 0.98647 0.0
C229 C 0.44868 0.62794 0.93087 0.0
C230 C 0.41327 0.69132 0.95409 0.0
C231 C 0.47963 0.2162 0.82986 0.0
C232 C 0.51674 0.46411 0.91397 0.0
C233 C 0.51162 0.90892 0.85846 0.0
C234 C 0.42653 0.83136 0.8339 0.0
C235 C 0.73461 0.55028 0.78477 0.0
C236 C 0.94303 0.30954 0.72898 0.0
C237 C 0.91451 0.34976 0.69981 0.0
C238 C 0.96566 0.33228 0.67054 0.0
C239 C 0.03373 0.2588 0.67169 0.0
C240 C 0.01873 0.24663 0.72959 0.0
C241 C 0.06115 0.21847 0.70082 0.0
C242 C 0.96779 0.70615 0.83164 0.0
C243 C 0.89542 0.33632 0.75892 0.0
H244 H 0.52529 0.44131 0.97945 0.0
H245 H 0.38194 0.70972 1.00409 0.0
H246 H 0.44375 0.64916 0.9061 0.0
H247 H 0.38043 0.75946 0.94686 0.0
H248 H 0.85245 0.39407 0.70081 0.0
H249 H 0.06482 0.2289 0.65014 0.0
H250 H 0.04092 0.21538 0.75215 0.0
H251 H 0.11453 0.16421 0.70102 0.0
C252 C 0.14444 0.85347 0.19911 0.0
C253 C 0.13707 0.78661 0.16955 0.0
C254 C 0.13713 0.97245 0.14165 0.0
C255 C 0.11726 0.02514 0.17098 0.0
N256 N 0.08138 -0.00546 0.22822 0.0
N257 N 0.12733 0.79013 0.11164 0.0
C258 C 0.11391 0.95852 0.19984 0.0
C259 C 0.12918 0.84643 0.14063 0.0
N260 N 0.19007 0.82478 0.22632 0.0
N261 N 0.18761 0.05238 0.11582 0.0
H262 H 0.14924 0.71437 0.10936 0.0
H263 H 0.10237 0.81852 0.09018 0.0
H264 H 0.23149 0.15252 0.11945 0.0
H265 H 0.21391 0.02565 0.09415 0.0
H266 H 0.20904 0.87929 0.2476 0.0
H267 H 0.22503 0.7584 0.22643 0.0
H268 H 0.06423 0.94072 0.2494 0.0
H269 H 0.05999 0.07092 0.22962 0.0
C270 C 0.23297 0.06341 0.53444 0.0
C271 C 0.30576 0.07737 0.50573 0.0
C272 C 0.11542 0.06182 0.47493 0.0
C273 C 0.04136 0.0443 0.50374 0.0
N274 N 0.01931 0.97937 0.5598 0.0
N275 N 0.32587 0.12918 0.44901 0.0
C276 C 0.0973 0.03199 0.53322 0.0
C277 C 0.24946 0.08731 0.47608 0.0
N278 N 0.29682 0.09126 0.56329 0.0
N279 N 0.05385 0.04308 0.44595 0.0
H280 H 0.42491 0.15589 0.44892 0.0
H281 H 0.29672 0.15438 0.42775 0.0
H282 H 0.95601 0.02047 0.44419 0.0
H283 H 0.09376 0.03487 0.42409 0.0
H284 H 0.25474 0.09956 0.58483 0.0
H285 H 0.39682 0.12042 0.56487 0.0
H286 H 0.05259 0.9559 0.58069 0.0
H287 H 0.91772 0.94297 0.55982 0.0
C288 C 0.16856 0.8942 0.80132 0.0
C289 C 0.09977 0.83676 0.83076 0.0
C290 C 0.27698 0.03133 0.85972 0.0
C291 C 0.34434 0.08896 0.83022 0.0
N292 N 0.31316 0.09613 0.77342 0.0
N293 N 0.11611 0.83887 0.88859 0.0
C294 C 0.27904 0.02559 0.80116 0.0
C295 C 0.16279 0.90214 0.86001 0.0
N296 N 0.13711 0.82174 0.77353 0.0
N297 N 0.31375 0.10328 0.8876 0.0
H298 H 0.02784 0.7512 0.8904 0.0
H299 H 0.17022 0.86732 0.90995 0.0
H300 H 0.38676 0.20118 0.88906 0.0
H301 H 0.26397 0.07054 0.90945 0.0
H302 H 0.19457 0.85527 0.75268 0.0
H303 H 0.06369 0.72374 0.77202 0.0
H304 H 0.26143 0.06079 0.75184 0.0
H305 H 0.37741 0.19684 0.77402 0.0
C306 C 0.49853 0.63799 0.05373 0.0
C307 C 0.43788 0.53503 0.03083 0.0
C308 C 0.28298 0.39713 0.07289 0.0
C309 C 0.32946 0.50857 0.09419 0.0
N310 N 0.43922 0.74719 0.09401 0.0
N311 N 0.25964 0.31724 0.01782 0.0
C312 C 0.42797 0.63282 0.08212 0.0
C313 C 0.32867 0.41325 0.04038 0.0
N314 N 0.61676 0.74684 0.04679 0.0
N315 N 0.1856 0.2772 0.08257 0.0
H316 H 0.29062 0.32084 0.99413 0.0
H317 H 0.16562 0.2371 0.02166 0.0
H318 H 0.14244 0.26239 0.10511 0.0
H319 H 0.15328 0.19042 0.06938 0.0
H320 H 0.667 0.82276 0.06352 0.0
H321 H 0.66844 0.75341 0.02556 0.0
H322 H 0.50226 0.83888 0.08381 0.0
H323 H 0.37319 0.74852 0.11085 0.0
C324 C 0.87288 0.24966 0.30586 0.0
C325 C 0.85163 0.35686 0.31288 0.0
C326 C 0.91074 0.43373 0.25821 0.0
C327 C 0.92128 0.31999 0.24908 0.0
N328 N 0.86615 0.09869 0.26491 0.0
N329 N 0.7932 0.51239 0.29158 0.0
C330 C 0.88503 0.22018 0.27304 0.0
C331 C 0.84876 0.43374 0.28745 0.0
N332 N 0.89113 0.18162 0.33009 0.0
N333 N 0.9705 0.54849 0.24169 0.0
H334 H 0.74428 0.51209 0.3128 0.0
H335 H 0.7836 0.56579 0.27271 0.0
H336 H 0.01822 0.55894 0.22022 0.0
H337 H -0.02531 0.63476 0.25032 0.0
H338 H 0.92025 0.1114 0.32578 0.0
H339 H 0.89045 0.20422 0.35441 0.0
H340 H 0.82974 0.02045 0.28112 0.0
H341 H 0.87312 0.07275 0.24132 0.0
C342 C 0.57823 0.49632 0.737 0.0
C343 C 0.67608 0.59213 0.75797 0.0
C344 C 0.69697 0.76659 0.72093 0.0
C345 C 0.58876 0.67169 0.70269 0.0
N346 N 0.41857 0.4468 0.69416 0.0
N347 N 0.86704 0.81083 0.75957 0.0
C348 C 0.52739 0.5367 0.71089 0.0
C349 C 0.74613 0.72531 0.74702 0.0
N350 N 0.54524 0.36736 0.73952 0.0
N351 N 0.75095 0.89798 0.71407 0.0
H352 H 0.90433 0.78827 0.77962 0.0
H353 H 0.93303 0.90112 0.74921 0.0
H354 H 0.72359 0.93378 0.69428 0.0
H355 H 0.81677 0.97265 0.72935 0.0
H356 H 0.49212 0.29651 0.72196 0.0
H357 H 0.58012 0.33309 0.75795 0.0
H358 H 0.36046 0.34909 0.70136 0.0
H359 H 0.38135 0.47227 0.67428 0.0
C360 C 0.89308 0.44106 0.94366 0.0
C361 C 0.8024 0.36598 0.91844 0.0
C362 C 0.67938 0.19158 0.95873 0.0
C363 C 0.75437 0.27697 0.98381 0.0
N364 N 0.92056 0.49472 1.00065 0.0
N365 N 0.58605 0.17657 0.90713 0.0
C366 C 0.85892 0.40462 0.97648 0.0
C367 C 0.68947 0.24324 0.92734 0.0
N368 N 0.01114 0.54977 0.93663 0.0
N369 N 0.59782 0.06012 0.96481 0.0
H370 H 0.58606 0.19871 0.88324 0.0
H371 H 0.49745 0.09696 0.91492 0.0
H372 H 0.59338 0.01721 0.98709 0.0
H373 H 0.54455 -0.0094 0.94706 0.0
H374 H 0.08676 0.59736 0.95348 0.0
H375 H 0.03785 0.58572 0.91348 0.0
H376 H -0.01221 0.59385 0.9964 0.0
H377 H 0.89459 0.47408 0.02488 0.0
C378 C 0.59366 0.71554 0.3842 0.0
C379 C 0.47812 0.70702 0.37084 0.0
C380 C 0.47689 0.85278 0.41358 0.0
C381 C 0.57825 0.84255 0.4306 0.0
N382 N 0.74164 0.77101 0.4295 0.0
N383 N 0.30179 0.75907 0.37388 0.0
C384 C 0.63854 0.7753 0.41507 0.0
C385 C 0.41872 0.77481 0.38552 0.0
N386 N 0.6641 0.67187 0.36643 0.0
N387 N 0.43912 0.94139 0.42303 0.0
H388 H 0.2559 0.70434 0.35323 0.0
H389 H 0.2451 0.79207 0.38617 0.0
H390 H 0.467 -0.00873 0.44481 0.0
H391 H 0.38377 0.96861 0.40849 0.0
H392 H 0.75782 0.68867 0.37262 0.0
H393 H 0.63461 0.63026 0.3435 0.0
H394 H 0.77855 0.71029 0.42187 0.0
H395 H 0.7863 0.82291 0.45041 0.0
C396 C 0.82973 0.39316 0.63201 0.0
C397 C 0.94066 0.37751 0.63846 0.0
C398 C 0.92755 0.28507 0.58632 0.0
C399 C 0.80066 0.27374 0.58029 0.0
N400 N 0.6391 0.33526 0.59806 0.0
N401 N 0.13999 0.41692 0.61234 0.0
C402 C 0.75522 0.33582 0.60313 0.0
C403 C 0.00594 0.36499 0.61172 0.0
N404 N 0.81009 0.47977 0.65023 0.0
N405 N 0.96732 0.20657 0.57172 0.0
H406 H 0.19622 0.47536 0.63171 0.0
H407 H 0.19337 0.40967 0.5929 0.0
H408 H 0.90514 0.12965 0.55726 0.0
H409 H 0.05578 0.20909 0.57756 0.0
H410 H 0.73667 0.50407 0.64573 0.0
H411 H 0.88111 0.5421 0.66687 0.0
H412 H 0.59295 0.36358 0.61545 0.0
H413 H 0.5862 0.30143 0.57672 0.0
loop_
_geom_bond_atom_site_label_1
_geom_bond_atom_site_label_2
_geom_bond_distance
_geom_bond_site_symmetry_2
_ccdc_geom_bond_type
Eu0 N31 2.657 . S
Eu0 N38 2.609 . S
Eu0 O44 2.558 . S
Eu0 O45 2.612 1_455 S
Eu0 O47 2.339 . S
Eu0 O48 2.566 . S
Eu0 O49 2.419 . S
Eu0 O51 2.380 . S
Eu0 O52 2.432 . S
Eu0 C64 2.848 . S
C1 C4 1.429 . S
C1 C5 1.411 . S
C1 N8 1.377 . S
C2 C4 1.420 . S
C2 C6 1.423 . S
C2 C14 1.392 1_545 S
C3 C5 1.420 . S
C3 C6 1.351 . S
C3 H26 0.931 . S
C4 C1 1.429 . S
C4 C2 1.420 . S
C4 N12 1.362 . S
C5 C1 1.411 . S
C5 C3 1.420 . S
C5 C10 1.395 . S
C6 C2 1.423 . S
C6 C3 1.351 . S
C6 H18 0.930 . S
C7 C9 1.400 . S
C7 C10 1.386 . S
C7 H19 0.930 . S
N8 C1 1.377 . S
N8 C9 1.321 . S
N8 Eu11 2.609 . S
C9 C7 1.400 . S
C9 N8 1.321 . S
C9 H16 0.930 . S
C10 C5 1.395 . S
C10 C7 1.386 . S
C10 H29 0.930 . S
Eu11 N8 2.609 . S
Eu11 N12 2.657 . S
Eu11 O45 2.380 . S
Eu11 O46 2.432 . S
Eu11 O50 2.558 . S
Eu11 O51 2.612 1_655 S
Eu11 O53 2.339 . S
Eu11 O54 2.564 . S
Eu11 O55 2.419 . S
Eu11 C75 2.848 . S
N12 C4 1.362 . S
N12 Eu11 2.657 . S
N12 C13 1.334 . S
C13 N12 1.334 . S
C13 C15 1.413 1_545 S
C13 H20 0.929 . S
C14 C2 1.392 1_565 S
C14 C15 1.367 . S
C14 H22 0.930 . S
C15 C13 1.413 1_565 S
C15 C14 1.367 . S
C15 H17 0.930 . S
H16 C9 0.930 . S
H17 C15 0.930 . S
H18 C6 0.930 . S
H19 C7 0.930 . S
H20 C13 0.929 . S
H21 C35 0.930 . S
H22 C14 0.930 . S
H23 C41 0.930 . S
H24 C32 0.929 . S
H25 C39 0.930 . S
H26 C3 0.931 . S
H27 C33 0.930 . S
H28 C66 0.930 . S
H29 C10 0.930 . S
H30 C65 0.931 . S
N31 Eu0 2.657 . S
N31 C32 1.334 . S
N31 C36 1.362 . S
C32 H24 0.929 . S
C32 N31 1.334 . S
C32 C35 1.413 . S
C33 H27 0.930 . S
C33 C34 1.392 . S
C33 C35 1.367 . S
C34 C33 1.392 . S
C34 C36 1.420 . S
C34 C66 1.423 . S
C35 H21 0.930 . S
C35 C32 1.413 . S
C35 C33 1.367 . S
C36 N31 1.362 . S
C36 C34 1.420 . S
C36 C40 1.429 . S
H37 C42 0.930 . S
N38 Eu0 2.609 . S
N38 C40 1.377 . S
N38 C41 1.321 . S
C39 H25 0.930 . S
C39 C41 1.400 . S
C39 C42 1.386 . S
C40 C36 1.429 . S
C40 N38 1.377 . S
C40 C43 1.411 . S
C41 H23 0.930 . S
C41 N38 1.321 . S
C41 C39 1.400 . S
C42 H37 0.930 . S
C42 C39 1.386 . S
C42 C43 1.395 . S
C43 C40 1.411 . S
C43 C42 1.395 . S
C43 C65 1.420 . S
O44 Eu0 2.558 . S
O44 C64 1.257 . S
O45 Eu0 2.612 1_655 S
O45 Eu11 2.380 . S
O45 C56 1.276 . S
O46 Eu11 2.432 . S
O46 C63 1.264 1_655 S
O47 Eu0 2.339 . S
O47 C63 1.254 . S
O48 Eu0 2.566 . S
O48 C56 1.232 1_455 S
O49 Eu0 2.419 . S
O49 C64 1.249 . S
O50 Eu11 2.558 . S
O50 C75 1.257 . S
O51 Eu0 2.380 . S
O51 Eu11 2.612 1_455 S
O51 C67 1.276 . S
O52 Eu0 2.432 . S
O52 C74 1.264 1_455 S
O53 Eu11 2.339 . S
O53 C74 1.254 . S
O54 Eu11 2.564 . S
O54 C67 1.233 1_655 S
O55 Eu11 2.419 . S
O55 C75 1.249 . S
C56 O45 1.276 . S
C56 O48 1.232 1_655 S
C57 C59 1.393 . S
C57 C61 1.395 . S
C57 C64 1.492 . S
C58 C59 1.392 . S
C58 C60 1.386 . S
C59 C57 1.393 . S
C59 C58 1.392 . S
C59 H76 0.930 . S
C60 C58 1.386 . S
C60 C62 1.395 . S
C60 H77 0.930 . S
C61 C57 1.395 . S
C61 C62 1.379 . S
C61 H78 0.930 . S
C62 C60 1.395 . S
C62 C61 1.379 . S
C62 H79 0.930 . S
C63 O46 1.264 1_455 S
C63 O47 1.254 . S
C64 Eu0 2.848 . S
C64 O44 1.257 . S
C64 O49 1.249 . S
C64 C57 1.492 . S
C65 H30 0.931 . S
C65 C43 1.420 . S
C65 C66 1.351 . S
C66 H28 0.930 . S
C66 C34 1.423 . S
C66 C65 1.351 . S
C67 O51 1.276 . S
C67 O54 1.233 1_455 S
C68 C69 1.393 . S
C68 C72 1.395 . S
C68 C75 1.492 . S
C69 C68 1.393 . S
C69 C70 1.392 . S
C69 H80 0.930 . S
C70 C69 1.392 . S
C70 C71 1.386 1_554 S
C71 C70 1.386 1_556 S
C71 C73 1.395 1_556 S
C71 H81 0.930 . S
C72 C68 1.395 . S
C72 C73 1.379 . S
C72 H82 0.930 . S
C73 C71 1.395 1_554 S
C73 C72 1.379 . S
C73 H83 0.935 . S
C74 O52 1.264 1_655 S
C74 O53 1.254 . S
C75 Eu11 2.848 . S
C75 O50 1.257 . S
C75 O55 1.249 . S
C75 C68 1.492 . S
H76 C59 0.930 . S
H77 C60 0.930 . S
H78 C61 0.930 . S
H79 C62 0.930 . S
H80 C69 0.930 . S
H81 C71 0.930 . S
H82 C72 0.930 . S
H83 C73 0.935 . S
Eu84 N115 2.657 1_545 S
Eu84 N122 2.609 1_545 S
Eu84 O128 2.558 1_545 S
Eu84 O129 2.612 . S
Eu84 O131 2.339 . S
Eu84 O132 2.563 . S
Eu84 O133 2.419 1_545 S
Eu84 O135 2.380 . S
Eu84 O136 2.432 . S
Eu84 C148 2.848 1_545 S
C85 C88 1.429 . S
C85 C89 1.411 . S
C85 N92 1.377 . S
C86 C88 1.420 . S
C86 C90 1.423 . S
C86 C98 1.392 1_455 S
C87 C89 1.420 . S
C87 C90 1.351 . S
C87 H110 0.931 . S
C88 C85 1.429 . S
C88 C86 1.420 . S
C88 N96 1.362 1_455 S
C89 C85 1.411 . S
C89 C87 1.420 . S
C89 C94 1.395 . S
C90 C86 1.423 . S
C90 C87 1.351 . S
C90 H102 0.930 . S
C91 C93 1.400 . S
C91 C94 1.386 . S
C91 H103 0.930 . S
N92 C85 1.377 . S
N92 C93 1.321 . S
N92 Eu95 2.609 1_455 S
C93 C91 1.400 . S
C93 N92 1.321 . S
C93 H100 0.930 . S
C94 C89 1.395 . S
C94 C91 1.386 . S
C94 H113 0.930 . S
Eu95 N92 2.609 1_655 S
Eu95 N96 2.657 . S
Eu95 O129 2.380 . S
Eu95 O130 2.432 1_655 S
Eu95 O134 2.558 1_655 S
Eu95 O135 2.612 . S
Eu95 O137 2.339 . S
Eu95 O138 2.563 . S
Eu95 O139 2.419 . S
Eu95 C159 2.848 . S
N96 C88 1.362 1_655 S
N96 Eu95 2.657 . S
N96 C97 1.334 . S
C97 N96 1.334 . S
C97 C99 1.413 . S
C97 H104 0.929 . S
C98 C86 1.392 1_655 S
C98 C99 1.367 . S
C98 H106 0.930 . S
C99 C97 1.413 . S
C99 C98 1.367 . S
C99 H101 0.930 . S
H100 C93 0.930 . S
H101 C99 0.930 . S
H102 C90 0.930 . S
H103 C91 0.930 . S
H104 C97 0.929 . S
H105 C119 0.930 . S
H106 C98 0.930 . S
H107 C125 0.930 . S
H108 C116 0.929 . S
H109 C123 0.930 . S
H110 C87 0.931 . S
H111 C117 0.930 . S
H112 C150 0.930 . S
H113 C94 0.930 . S
H114 C149 0.931 . S
N115 Eu84 2.657 1_565 S
N115 C116 1.334 . S
N115 C120 1.362 . S
C116 H108 0.929 . S
C116 N115 1.334 . S
C116 C119 1.413 . S
C117 H111 0.930 . S
C117 C118 1.392 . S
C117 C119 1.367 . S
C118 C117 1.392 . S
C118 C120 1.420 . S
C118 C150 1.423 . S
C119 H105 0.930 . S
C119 C116 1.413 . S
C119 C117 1.367 . S
C120 N115 1.362 . S
C120 C118 1.420 . S
C120 C124 1.429 . S
H121 C126 0.930 . S
N122 Eu84 2.609 1_565 S
N122 C124 1.377 . S
N122 C125 1.321 . S
C123 H109 0.930 . S
C123 C125 1.400 . S
C123 C126 1.386 . S
C124 C120 1.429 . S
C124 N122 1.377 . S
C124 C127 1.411 . S
C125 H107 0.930 . S
C125 N122 1.321 . S
C125 C123 1.400 . S
C126 H121 0.930 . S
C126 C123 1.386 . S
C126 C127 1.395 . S
C127 C124 1.411 . S
C127 C126 1.395 . S
C127 C149 1.420 . S
O128 Eu84 2.558 1_565 S
O128 C148 1.257 . S
O129 Eu84 2.612 . S
O129 Eu95 2.380 . S
O129 C140 1.276 . S
O130 Eu95 2.432 1_455 S
O130 C147 1.264 . S
O131 Eu84 2.339 . S
O131 C147 1.254 1_655 S
O132 Eu84 2.563 . S
O132 C140 1.235 . S
O133 Eu84 2.419 1_565 S
O133 C148 1.249 . S
O134 Eu95 2.558 1_455 S
O134 C159 1.257 1_455 S
O135 Eu84 2.380 . S
O135 Eu95 2.612 . S
O135 C151 1.276 . S
O136 Eu84 2.432 . S
O136 C158 1.264 . S
O137 Eu95 2.339 . S
O137 C158 1.254 . S
O138 Eu95 2.563 . S
O138 C151 1.235 . S
O139 Eu95 2.419 . S
O139 C159 1.249 . S
C140 O129 1.276 . S
C140 O132 1.235 . S
C141 C143 1.393 . S
C141 C145 1.395 . S
C141 C148 1.492 . S
C142 C143 1.392 . S
C142 C144 1.386 . S
C143 C141 1.393 . S
C143 C142 1.392 . S
C143 H160 0.930 . S
C144 C142 1.386 . S
C144 C146 1.395 . S
C144 H161 0.930 . S
C145 C141 1.395 . S
C145 C146 1.379 . S
C145 H162 0.930 . S
C146 C144 1.395 . S
C146 C145 1.379 . S
C146 H163 0.930 . S
C147 O130 1.264 . S
C147 O131 1.254 1_455 S
C148 Eu84 2.848 1_565 S
C148 O128 1.257 . S
C148 O133 1.249 . S
C148 C141 1.492 . S
C149 H114 0.931 . S
C149 C127 1.420 . S
C149 C150 1.351 . S
C150 H112 0.930 . S
C150 C118 1.423 . S
C150 C149 1.351 . S
C151 O135 1.276 . S
C151 O138 1.235 . S
C152 C153 1.393 . S
C152 C156 1.395 1_655 S
C152 C159 1.492 . S
C153 C152 1.393 . S
C153 C154 1.392 . S
C153 H164 0.930 . S
C154 C153 1.392 . S
C154 C155 1.386 1_655 S
C155 C154 1.386 1_455 S
C155 C157 1.395 . S
C155 H165 0.930 . S
C156 C152 1.395 1_455 S
C156 C157 1.379 . S
C156 H166 0.930 . S
C157 C155 1.395 . S
C157 C156 1.379 . S
C157 H167 0.930 . S
C158 O136 1.264 . S
C158 O137 1.254 . S
C159 Eu95 2.848 . S
C159 O134 1.257 1_655 S
C159 O139 1.249 . S
C159 C152 1.492 . S
H160 C143 0.930 . S
H161 C144 0.930 . S
H162 C145 0.930 . S
H163 C146 0.930 . S
H164 C153 0.930 . S
H165 C155 0.930 . S
H166 C156 0.930 . S
H167 C157 0.930 . S
Eu168 N199 2.657 . S
Eu168 N206 2.609 . S
Eu168 O212 2.558 . S
Eu168 O213 2.612 . S
Eu168 O215 2.339 . S
Eu168 O216 2.563 . S
Eu168 O217 2.419 . S
Eu168 O219 2.380 . S
Eu168 O220 2.432 . S
Eu168 C232 2.848 . S
C169 C172 1.429 1_655 S
C169 C173 1.411 1_545 S
C169 N176 1.377 . S
C170 C172 1.420 . S
C170 C174 1.423 1_545 S
C170 C182 1.392 . S
C171 C173 1.420 . S
C171 C174 1.351 1_655 S
C171 H194 0.931 . S
C172 C169 1.429 1_455 S
C172 C170 1.420 . S
C172 N180 1.362 . S
C173 C169 1.411 1_565 S
C173 C171 1.420 . S
C173 C178 1.395 . S
C174 C170 1.423 1_565 S
C174 C171 1.351 1_455 S
C174 H186 0.930 . S
C175 C177 1.400 . S
C175 C178 1.386 . S
C175 H187 0.930 . S
N176 C169 1.377 . S
N176 C177 1.321 1_545 S
N176 Eu179 2.609 . S
C177 C175 1.400 . S
C177 N176 1.321 1_565 S
C177 H184 0.930 . S
C178 C173 1.395 . S
C178 C175 1.386 . S
C178 H197 0.930 . S
Eu179 N176 2.609 . S
Eu179 N180 2.657 1_655 S
Eu179 O213 2.380 . S
Eu179 O214 2.432 . S
Eu179 O218 2.558 . S
Eu179 O219 2.612 . S
Eu179 O221 2.339 1_655 S
Eu179 O222 2.563 . S
Eu179 O223 2.419 1_655 S
Eu179 C243 2.848 . S
N180 C172 1.362 . S
N180 Eu179 2.657 1_455 S
N180 C181 1.334 . S
C181 N180 1.334 . S
C181 C183 1.413 . S
C181 H188 0.929 . S
C182 C170 1.392 . S
C182 C183 1.367 . S
C182 H190 0.930 . S
C183 C181 1.413 . S
C183 C182 1.367 . S
C183 H185 0.930 . S
H184 C177 0.930 . S
H185 C183 0.930 . S
H186 C174 0.930 . S
H187 C175 0.930 . S
H188 C181 0.929 . S
H189 C203 0.930 . S
H190 C182 0.930 . S
H191 C209 0.930 . S
H192 C200 0.929 . S
H193 C207 0.928 1_545 S
H194 C171 0.931 . S
H195 C201 0.930 . S
H196 C234 0.930 . S
H197 C178 0.930 . S
H198 C233 0.931 1_545 S
N199 Eu168 2.657 . S
N199 C200 1.334 . S
N199 C204 1.362 . S
C200 H192 0.929 . S
C200 N199 1.334 . S
C200 C203 1.413 . S
C201 H195 0.930 . S
C201 C202 1.392 . S
C201 C203 1.367 . S
C202 C201 1.392 . S
C202 C204 1.420 . S
C202 C234 1.423 . S
C203 H189 0.930 . S
C203 C200 1.413 . S
C203 C201 1.367 . S
C204 N199 1.362 . S
C204 C202 1.420 . S
C204 C208 1.429 . S
H205 C210 0.930 . S
N206 Eu168 2.609 . S
N206 C208 1.377 . S
N206 C209 1.321 . S
C207 H193 0.928 1_565 S
C207 C209 1.404 . S
C207 C210 1.383 1_565 S
C208 C204 1.429 . S
C208 N206 1.377 . S
C208 C211 1.411 . S
C209 H191 0.930 . S
C209 N206 1.321 . S
C209 C207 1.404 . S
C210 H205 0.930 . S
C210 C207 1.383 1_545 S
C210 C211 1.395 1_545 S
C211 C208 1.411 . S
C211 C210 1.395 1_565 S
C211 C233 1.420 . S
O212 Eu168 2.558 . S
O212 C232 1.257 . S
O213 Eu168 2.612 . S
O213 Eu179 2.380 . S
O213 C224 1.276 . S
O214 Eu179 2.432 . S
O214 C231 1.264 . S
O215 Eu168 2.339 . S
O215 C231 1.254 . S
O216 Eu168 2.563 . S
O216 C224 1.235 . S
O217 Eu168 2.419 . S
O217 C232 1.249 . S
O218 Eu179 2.558 . S
O218 C243 1.257 . S
O219 Eu168 2.380 . S
O219 Eu179 2.612 . S
O219 C235 1.276 . S
O220 Eu168 2.432 . S
O220 C242 1.264 1_655 S
O221 Eu179 2.339 1_455 S
O221 C242 1.254 . S
O222 Eu179 2.563 . S
O222 C235 1.235 . S
O223 Eu179 2.419 1_455 S
O223 C243 1.249 1_455 S
C224 O213 1.276 . S
C224 O216 1.235 . S
C225 C227 1.393 . S
C225 C229 1.395 . S
C225 C232 1.492 . S
C226 C227 1.392 . S
C226 C228 1.386 1_556 S
C227 C225 1.393 . S
C227 C226 1.392 . S
C227 H244 0.930 . S
C228 C226 1.386 1_554 S
C228 C230 1.395 1_554 S
C228 H245 0.930 . S
C229 C225 1.395 . S
C229 C230 1.379 . S
C229 H246 0.930 . S
C230 C228 1.395 1_556 S
C230 C229 1.379 . S
C230 H247 0.934 . S
C231 O214 1.264 . S
C231 O215 1.254 . S
C232 Eu168 2.848 . S
C232 O212 1.257 . S
C232 O217 1.249 . S
C232 C225 1.492 . S
C233 H198 0.931 1_565 S
C233 C211 1.420 . S
C233 C234 1.351 . S
C234 H196 0.930 . S
C234 C202 1.423 . S
C234 C233 1.351 . S
C235 O219 1.276 . S
C235 O222 1.235 . S
C236 C237 1.393 . S
C236 C240 1.395 1_455 S
C236 C243 1.492 1_455 S
C237 C236 1.393 . S
C237 C238 1.392 . S
C237 H248 0.930 . S
C238 C237 1.392 . S
C238 C239 1.386 . S
C239 C238 1.386 . S
C239 C241 1.395 . S
C239 H249 0.930 . S
C240 C236 1.395 1_655 S
C240 C241 1.379 1_655 S
C240 H250 0.930 . S
C241 C239 1.395 . S
C241 C240 1.379 1_455 S
C241 H251 0.930 1_445 S
C242 O220 1.264 1_455 S
C242 O221 1.254 . S
C243 Eu179 2.848 . S
C243 O218 1.257 . S
C243 O223 1.249 1_655 S
C243 C236 1.492 1_655 S
H244 C227 0.930 . S
H245 C228 0.930 . S
H246 C229 0.930 . S
H247 C230 0.934 . S
H248 C237 0.930 . S
H249 C239 0.930 . S
H250 C240 0.930 . S
H251 C241 0.930 1_665 S
C252 C253 1.363 1_655 S
C252 C258 1.379 . S
C252 N260 1.356 . S
C253 C252 1.363 1_455 S
C253 C259 1.363 . S
C254 C255 1.363 1_465 S
C254 C259 1.379 . S
C254 N261 1.356 1_565 S
C255 C254 1.363 1_645 S
C255 C258 1.363 1_545 S
N256 C258 1.356 1_545 S
N256 H268 0.984 . S
N256 H269 0.985 . S
N257 C259 1.356 . S
N257 H262 0.984 . S
N257 H263 0.985 . S
C258 C252 1.379 . S
C258 C255 1.363 1_565 S
C258 N256 1.356 1_565 S
C259 C253 1.363 . S
C259 C254 1.379 . S
C259 N257 1.356 . S
N260 C252 1.356 . S
N260 H266 0.984 . S
N260 H267 0.984 . S
N261 C254 1.356 1_545 S
N261 H264 0.984 . S
N261 H265 0.985 . S
H262 N257 0.984 . S
H263 N257 0.985 . S
H264 N261 0.984 . S
H265 N261 0.985 . S
H266 N260 0.984 . S
H267 N260 0.984 . S
H268 N256 0.984 . S
H269 N256 0.985 . S
C270 C271 1.363 . S
C270 C276 1.379 . S
C270 N278 1.356 . S
C271 C270 1.363 . S
C271 C277 1.363 . S
C272 C273 1.363 . S
C272 C277 1.379 . S
C272 N279 1.356 . S
C273 C272 1.363 . S
C273 C276 1.363 . S
N274 C276 1.356 . S
N274 H286 0.984 . S
N274 H287 0.985 . S
N275 C277 1.356 . S
N275 H280 0.984 . S
N275 H281 0.985 . S
C276 C270 1.379 . S
C276 C273 1.363 . S
C276 N274 1.356 . S
C277 C271 1.363 . S
C277 C272 1.379 . S
C277 N275 1.356 . S
N278 C270 1.356 . S
N278 H284 0.984 . S
N278 H285 0.984 . S
N279 C272 1.356 . S
N279 H282 0.984 . S
N279 H283 0.985 . S
H280 N275 0.984 . S
H281 N275 0.985 . S
H282 N279 0.984 . S
H283 N279 0.985 . S
H284 N278 0.984 . S
H285 N278 0.984 . S
H286 N274 0.984 . S
H287 N274 0.985 . S
C288 C289 1.363 . S
C288 C294 1.379 1_565 S
C288 N296 1.356 . S
C289 C288 1.363 . S
C289 C295 1.363 . S
C290 C291 1.363 1_565 S
C290 C295 1.379 . S
C290 N297 1.356 . S
C291 C290 1.363 1_545 S
C291 C294 1.363 . S
N292 C294 1.356 . S
N292 H304 0.984 . S
N292 H305 0.985 . S
N293 C295 1.356 . S
N293 H298 0.984 . S
N293 H299 0.985 . S
C294 C288 1.379 1_545 S
C294 C291 1.363 . S
C294 N292 1.356 . S
C295 C289 1.363 . S
C295 C290 1.379 . S
C295 N293 1.356 . S
N296 C288 1.356 . S
N296 H302 0.984 . S
N296 H303 0.984 . S
N297 C290 1.356 . S
N297 H300 0.984 1_565 S
N297 H301 0.985 . S
H298 N293 0.984 . S
H299 N293 0.985 . S
H300 N297 0.984 1_545 S
H301 N297 0.985 . S
H302 N296 0.984 . S
H303 N296 0.984 . S
H304 N292 0.984 . S
H305 N292 0.985 . S
C306 C307 1.363 . S
C306 C312 1.379 . S
C306 N314 1.356 . S
C307 C306 1.363 . S
C307 C313 1.363 . S
C308 C309 1.363 . S
C308 C313 1.379 . S
C308 N315 1.356 . S
C309 C308 1.363 . S
C309 C312 1.363 . S
N310 C312 1.356 . S
N310 H322 0.984 . S
N310 H323 0.985 . S
N311 C313 1.356 . S
N311 H316 0.984 1_554 S
N311 H317 0.985 . S
C312 C306 1.379 . S
C312 C309 1.363 . S
C312 N310 1.356 . S
C313 C307 1.363 . S
C313 C308 1.379 . S
C313 N311 1.356 . S
N314 C306 1.356 . S
N314 H320 0.984 . S
N314 H321 0.984 . S
N315 C308 1.356 . S
N315 H318 0.984 . S
N315 H319 0.985 1_455 S
H316 N311 0.984 1_556 S
H317 N311 0.985 . S
H318 N315 0.984 . S
H319 N315 0.985 1_655 S
H320 N314 0.984 . S
H321 N314 0.984 . S
H322 N310 0.984 . S
H323 N310 0.985 . S
C324 C325 1.363 . S
C324 C330 1.379 . S
C324 N332 1.356 . S
C325 C324 1.363 . S
C325 C331 1.363 . S
C326 C327 1.363 . S
C326 C331 1.379 . S
C326 N333 1.356 . S
C327 C326 1.363 . S
C327 C330 1.363 . S
N328 C330 1.356 . S
N328 H340 0.984 . S
N328 H341 0.985 . S
N329 C331 1.356 . S
N329 H334 0.984 . S
N329 H335 0.985 . S
C330 C324 1.379 . S
C330 C327 1.363 . S
C330 N328 1.356 . S
C331 C325 1.363 . S
C331 C326 1.379 . S
C331 N329 1.356 . S
N332 C324 1.356 . S
N332 H338 0.984 . S
N332 H339 0.984 . S
N333 C326 1.356 . S
N333 H336 0.984 . S
N333 H337 0.985 . S
H334 N329 0.984 . S
H335 N329 0.985 . S
H336 N333 0.984 . S
H337 N333 0.985 . S
H338 N332 0.984 . S
H339 N332 0.984 . S
H340 N328 0.984 . S
H341 N328 0.985 . S
C342 C343 1.363 . S
C342 C348 1.379 . S
C342 N350 1.356 . S
C343 C342 1.363 . S
C343 C349 1.363 . S
C344 C345 1.363 . S
C344 C349 1.379 . S
C344 N351 1.356 . S
C345 C344 1.363 . S
C345 C348 1.363 . S
N346 C348 1.356 . S
N346 H358 0.984 . S
N346 H359 0.985 . S
N347 C349 1.356 . S
N347 H352 0.984 . S
N347 H353 0.985 . S
C348 C342 1.379 . S
C348 C345 1.363 . S
C348 N346 1.356 . S
C349 C343 1.363 . S
C349 C344 1.379 . S
C349 N347 1.356 . S
N350 C342 1.356 . S
N350 H356 0.984 . S
N350 H357 0.984 . S
N351 C344 1.356 . S
N351 H354 0.984 . S
N351 H355 0.985 . S
H352 N347 0.984 . S
H353 N347 0.985 . S
H354 N351 0.984 . S
H355 N351 0.985 . S
H356 N350 0.984 . S
H357 N350 0.984 . S
H358 N346 0.984 . S
H359 N346 0.985 . S
C360 C361 1.363 . S
C360 C366 1.379 . S
C360 N368 1.356 . S
C361 C360 1.363 . S
C361 C367 1.363 . S
C362 C363 1.363 . S
C362 C367 1.379 . S
C362 N369 1.356 1_545 S
C363 C362 1.363 . S
C363 C366 1.363 . S
N364 C366 1.356 1_554 S
N364 H376 0.984 . S
N364 H377 0.985 . S
N365 C367 1.356 . S
N365 H370 0.984 . S
N365 H371 0.985 . S
C366 C360 1.379 . S
C366 C363 1.363 . S
C366 N364 1.356 1_556 S
C367 C361 1.363 . S
C367 C362 1.379 . S
C367 N365 1.356 . S
N368 C360 1.356 . S
N368 H374 0.984 1_655 S
N368 H375 0.984 . S
N369 C362 1.356 1_565 S
N369 H372 0.984 . S
N369 H373 0.985 . S
H370 N365 0.984 . S
H371 N365 0.985 . S
H372 N369 0.984 . S
H373 N369 0.985 . S
H374 N368 0.984 1_455 S
H375 N368 0.984 . S
H376 N364 0.984 . S
H377 N364 0.985 . S
C378 C379 1.363 . S
C378 C384 1.379 . S
C378 N386 1.356 . S
C379 C378 1.363 . S
C379 C385 1.363 . S
C380 C381 1.363 . S
C380 C385 1.379 . S
C380 N387 1.356 . S
C381 C380 1.363 . S
C381 C384 1.363 . S
N382 C384 1.356 1_545 S
N382 H394 0.984 . S
N382 H395 0.985 . S
N383 C385 1.356 . S
N383 H388 0.984 . S
N383 H389 0.985 . S
C384 C378 1.379 . S
C384 C381 1.363 . S
C384 N382 1.356 1_565 S
C385 C379 1.363 . S
C385 C380 1.379 . S
C385 N383 1.356 . S
N386 C378 1.356 . S
N386 H392 0.984 . S
N386 H393 0.984 . S
N387 C380 1.356 . S
N387 H390 0.984 . S
N387 H391 0.985 . S
H388 N383 0.984 . S
H389 N383 0.985 . S
H390 N387 0.984 . S
H391 N387 0.985 . S
H392 N386 0.984 . S
H393 N386 0.984 . S
H394 N382 0.984 . S
H395 N382 0.985 . S
C396 C397 1.363 . S
C396 C402 1.379 . S
C396 N404 1.356 . S
C397 C396 1.363 . S
C397 C403 1.363 . S
C398 C399 1.363 1_455 S
C398 C403 1.379 . S
C398 N405 1.356 1_455 S
C399 C398 1.363 1_655 S
C399 C402 1.363 1_655 S
N400 C402 1.356 1_655 S
N400 H412 0.984 . S
N400 H413 0.985 . S
N401 C403 1.356 . S
N401 H406 0.984 . S
N401 H407 0.985 . S
C402 C396 1.379 . S
C402 C399 1.363 1_455 S
C402 N400 1.356 1_455 S
C403 C397 1.363 . S
C403 C398 1.379 . S
C403 N401 1.356 . S
N404 C396 1.356 . S
N404 H410 0.984 . S
N404 H411 0.984 . S
N405 C398 1.356 1_655 S
N405 H408 0.984 . S
N405 H409 0.985 . S
H406 N401 0.984 . S
H407 N401 0.985 . S
H408 N405 0.984 . S
H409 N405 0.985 . S
H410 N404 0.984 . S
H411 N404 0.984 . S
H412 N400 0.984 . S
H413 N400 0.985 . S
C253 C63 1.574 . S
C255 C74 1.574 . S
C271 C158 1.574 . S
C273 C147 1.574 . S
C289 C242 1.574 . S
C291 C231 1.574 . S
C307 C226 1.581 1_554 S
C309 C67 1.712 . S
C325 C154 1.539 . S
C327 C56 1.729 . S
C343 C235 1.713 . S
C345 C142 1.581 . S
C361 C224 1.728 . S
C363 C70 1.538 1_556 S
C379 C58 1.581 . S
C381 C151 1.713 1_565 S
C397 C238 1.539 . S
C399 C140 1.728 . S
