# Generated by pormake.
# Topology uox, (4)-cn, num edge types: 1
# Building blocks:
#     Node 0, Type 0, BuildingBlock: AZAVOO_clean_sbu_0, # of connection points: 4
#     Node 1, Type 0, BuildingBlock: AZAVOO_clean_sbu_0, # of connection points: 4
#     Node 2, Type 0, BuildingBlock: AZAVOO_clean_sbu_0, # of connection points: 4
#     Node 3, Type 0, BuildingBlock: AZAVOO_clean_sbu_0, # of connection points: 4
#     Node 4, Type 0, BuildingBlock: AZAVOO_clean_sbu_0, # of connection points: 4
#     Node 5, Type 0, BuildingBlock: AZAVOO_clean_sbu_0, # of connection points: 4
#     Node 6, Type 0, BuildingBlock: AZAVOO_clean_sbu_0, # of connection points: 4
#     Node 7, Type 0, BuildingBlock: AZAVOO_clean_sbu_0, # of connection points: 4
#     Node 8, Type 0, BuildingBlock: AZAVOO_clean_sbu_0, # of connection points: 4
#     Node 9, Type 0, BuildingBlock: AZAVOO_clean_sbu_0, # of connection points: 4
#     Node 10, Type 0, BuildingBlock: AZAVOO_clean_sbu_0, # of connection points: 4
#     Node 11, Type 0, BuildingBlock: AZAVOO_clean_sbu_0, # of connection points: 4
#     Node 12, Type 0, BuildingBlock: AZAVOO_clean_sbu_0, # of connection points: 4
#     Node 13, Type 0, BuildingBlock: AZAVOO_clean_sbu_0, # of connection points: 4
#     Node 14, Type 0, BuildingBlock: AZAVOO_clean_sbu_0, # of connection points: 4
#     Node 15, Type 0, BuildingBlock: AZAVOO_clean_sbu_0, # of connection points: 4
#     Node 16, Type 0, BuildingBlock: AZAVOO_clean_sbu_0, # of connection points: 4
#     Node 17, Type 0, BuildingBlock: AZAVOO_clean_sbu_0, # of connection points: 4
#     Node 18, Type 0, BuildingBlock: AZAVOO_clean_sbu_0, # of connection points: 4
#     Node 19, Type 0, BuildingBlock: AZAVOO_clean_sbu_0, # of connection points: 4
#     Node 20, Type 0, BuildingBlock: AZAVOO_clean_sbu_0, # of connection points: 4
#     Node 21, Type 0, BuildingBlock: AZAVOO_clean_sbu_0, # of connection points: 4
#     Node 22, Type 0, BuildingBlock: AZAVOO_clean_sbu_0, # of connection points: 4
#     Node 23, Type 0, BuildingBlock: AZAVOO_clean_sbu_0, # of connection points: 4
#     Node 24, Type 0, BuildingBlock: AZAVOO_clean_sbu_0, # of connection points: 4
#     Node 25, Type 0, BuildingBlock: AZAVOO_clean_sbu_0, # of connection points: 4
#     Node 26, Type 0, BuildingBlock: AZAVOO_clean_sbu_0, # of connection points: 4
#     Node 27, Type 0, BuildingBlock: AZAVOO_clean_sbu_0, # of connection points: 4
#     Node 28, Type 0, BuildingBlock: AZAVOO_clean_sbu_0, # of connection points: 4
#     Node 29, Type 0, BuildingBlock: AZAVOO_clean_sbu_0, # of connection points: 4
#     Node 30, Type 0, BuildingBlock: AZAVOO_clean_sbu_0, # of connection points: 4
#     Node 31, Type 0, BuildingBlock: AZAVOO_clean_sbu_0, # of connection points: 4
#     Edge 32, Type (0, 0), BuildingBlock: OJICUG_clean_linker_0, # of connection points: 2
#     Edge 33, Type (0, 0), BuildingBlock: OJICUG_clean_linker_0, # of connection points: 2
#     Edge 34, Type (0, 0), BuildingBlock: OJICUG_clean_linker_0, # of connection points: 2
#     Edge 35, Type (0, 0), BuildingBlock: OJICUG_clean_linker_0, # of connection points: 2
#     Edge 36, Type (0, 0), BuildingBlock: OJICUG_clean_linker_0, # of connection points: 2
#     Edge 37, Type (0, 0), BuildingBlock: OJICUG_clean_linker_0, # of connection points: 2
#     Edge 38, Type (0, 0), BuildingBlock: OJICUG_clean_linker_0, # of connection points: 2
#     Edge 39, Type (0, 0), BuildingBlock: OJICUG_clean_linker_0, # of connection points: 2
#     Edge 40, Type (0, 0), BuildingBlock: OJICUG_clean_linker_0, # of connection points: 2
#     Edge 41, Type (0, 0), BuildingBlock: OJICUG_clean_linker_0, # of connection points: 2
#     Edge 42, Type (0, 0), BuildingBlock: OJICUG_clean_linker_0, # of connection points: 2
#     Edge 43, Type (0, 0), BuildingBlock: OJICUG_clean_linker_0, # of connection points: 2
#     Edge 44, Type (0, 0), BuildingBlock: OJICUG_clean_linker_0, # of connection points: 2
#     Edge 45, Type (0, 0), BuildingBlock: OJICUG_clean_linker_0, # of connection points: 2
#     Edge 46, Type (0, 0), BuildingBlock: OJICUG_clean_linker_0, # of connection points: 2
#     Edge 47, Type (0, 0), BuildingBlock: OJICUG_clean_linker_0, # of connection points: 2
#     Edge 48, Type (0, 0), BuildingBlock: OJICUG_clean_linker_0, # of connection points: 2
#     Edge 49, Type (0, 0), BuildingBlock: OJICUG_clean_linker_0, # of connection points: 2
#     Edge 50, Type (0, 0), BuildingBlock: OJICUG_clean_linker_0, # of connection points: 2
#     Edge 51, Type (0, 0), BuildingBlock: OJICUG_clean_linker_0, # of connection points: 2
#     Edge 52, Type (0, 0), BuildingBlock: OJICUG_clean_linker_0, # of connection points: 2
#     Edge 53, Type (0, 0), BuildingBlock: OJICUG_clean_linker_0, # of connection points: 2
#     Edge 54, Type (0, 0), BuildingBlock: OJICUG_clean_linker_0, # of connection points: 2
#     Edge 55, Type (0, 0), BuildingBlock: OJICUG_clean_linker_0, # of connection points: 2
#     Edge 56, Type (0, 0), BuildingBlock: OJICUG_clean_linker_0, # of connection points: 2
#     Edge 57, Type (0, 0), BuildingBlock: OJICUG_clean_linker_0, # of connection points: 2
#     Edge 58, Type (0, 0), BuildingBlock: OJICUG_clean_linker_0, # of connection points: 2
#     Edge 59, Type (0, 0), BuildingBlock: OJICUG_clean_linker_0, # of connection points: 2
#     Edge 60, Type (0, 0), BuildingBlock: OJICUG_clean_linker_0, # of connection points: 2
#     Edge 61, Type (0, 0), BuildingBlock: OJICUG_clean_linker_0, # of connection points: 2
#     Edge 62, Type (0, 0), BuildingBlock: OJICUG_clean_linker_0, # of connection points: 2
#     Edge 63, Type (0, 0), BuildingBlock: OJICUG_clean_linker_0, # of connection points: 2
#     Edge 64, Type (0, 0), BuildingBlock: OJICUG_clean_linker_0, # of connection points: 2
#     Edge 65, Type (0, 0), BuildingBlock: OJICUG_clean_linker_0, # of connection points: 2
#     Edge 66, Type (0, 0), BuildingBlock: OJICUG_clean_linker_0, # of connection points: 2
#     Edge 67, Type (0, 0), BuildingBlock: OJICUG_clean_linker_0, # of connection points: 2
#     Edge 68, Type (0, 0), BuildingBlock: OJICUG_clean_linker_0, # of connection points: 2
#     Edge 69, Type (0, 0), BuildingBlock: OJICUG_clean_linker_0, # of connection points: 2
#     Edge 70, Type (0, 0), BuildingBlock: OJICUG_clean_linker_0, # of connection points: 2
#     Edge 71, Type (0, 0), BuildingBlock: OJICUG_clean_linker_0, # of connection points: 2
#     Edge 72, Type (0, 0), BuildingBlock: OJICUG_clean_linker_0, # of connection points: 2
#     Edge 73, Type (0, 0), BuildingBlock: OJICUG_clean_linker_0, # of connection points: 2
#     Edge 74, Type (0, 0), BuildingBlock: OJICUG_clean_linker_0, # of connection points: 2
#     Edge 75, Type (0, 0), BuildingBlock: OJICUG_clean_linker_0, # of connection points: 2
#     Edge 76, Type (0, 0), BuildingBlock: OJICUG_clean_linker_0, # of connection points: 2
#     Edge 77, Type (0, 0), BuildingBlock: OJICUG_clean_linker_0, # of connection points: 2
#     Edge 78, Type (0, 0), BuildingBlock: OJICUG_clean_linker_0, # of connection points: 2
#     Edge 79, Type (0, 0), BuildingBlock: OJICUG_clean_linker_0, # of connection points: 2
#     Edge 80, Type (0, 0), BuildingBlock: OJICUG_clean_linker_0, # of connection points: 2
#     Edge 81, Type (0, 0), BuildingBlock: OJICUG_clean_linker_0, # of connection points: 2
#     Edge 82, Type (0, 0), BuildingBlock: OJICUG_clean_linker_0, # of connection points: 2
#     Edge 83, Type (0, 0), BuildingBlock: OJICUG_clean_linker_0, # of connection points: 2
#     Edge 84, Type (0, 0), BuildingBlock: OJICUG_clean_linker_0, # of connection points: 2
#     Edge 85, Type (0, 0), BuildingBlock: OJICUG_clean_linker_0, # of connection points: 2
#     Edge 86, Type (0, 0), BuildingBlock: OJICUG_clean_linker_0, # of connection points: 2
#     Edge 87, Type (0, 0), BuildingBlock: OJICUG_clean_linker_0, # of connection points: 2
#     Edge 88, Type (0, 0), BuildingBlock: OJICUG_clean_linker_0, # of connection points: 2
#     Edge 89, Type (0, 0), BuildingBlock: OJICUG_clean_linker_0, # of connection points: 2
#     Edge 90, Type (0, 0), BuildingBlock: OJICUG_clean_linker_0, # of connection points: 2
#     Edge 91, Type (0, 0), BuildingBlock: OJICUG_clean_linker_0, # of connection points: 2
#     Edge 92, Type (0, 0), BuildingBlock: OJICUG_clean_linker_0, # of connection points: 2
#     Edge 93, Type (0, 0), BuildingBlock: OJICUG_clean_linker_0, # of connection points: 2
#     Edge 94, Type (0, 0), BuildingBlock: OJICUG_clean_linker_0, # of connection points: 2
#     Edge 95, Type (0, 0), BuildingBlock: OJICUG_clean_linker_0, # of connection points: 2
# Relax obj value: 0.134
# Max RMSD: 0.161
# Mean RMSD: 0.161
data_MOF--net-uox--node1-AZAVOO_clean_sbu_0--edge1-OJICUG_clean_linker_0
_symmetry_space_group_name_H-M    P1
_symmetry_Int_Tables_number       1
_symmetry_cell_setting            triclinic
loop_
_symmetry_equiv_pos_as_xyz
'x, y, z'
_cell_length_a     31.756734
_cell_length_b     31.798747
_cell_length_c     63.46088
_cell_angle_alpha  89.981464
_cell_angle_beta   90.008139
_cell_angle_gamma 89.950308
loop_
_atom_site_label
_atom_site_type_symbol
_atom_site_fract_x
_atom_site_fract_y
_atom_site_fract_z
_atom_type_partial_charge
Mg0 Mg 0.46835 -0.00186 0.12307 0.0
O1 O 0.42002 0.05203 0.11888 0.0
O2 O 0.36131 0.03291 0.13562 0.0
Mg3 Mg 0.36944 0.96638 0.14925 0.0
C4 C 0.3821 0.05927 0.12456 0.0
C5 C 0.53963 0.03185 0.09369 0.0
O6 O 0.52813 -0.003 0.08419 0.0
O7 O 0.4809 0.01222 0.1585 0.0
O8 O 0.42156 0.98488 0.17195 0.0
O9 O 0.44144 0.96537 0.09431 0.0
O10 O 0.41981 0.95411 0.12668 0.0
C11 C 0.45832 0.00037 0.17417 0.0
C12 C 0.4161 0.94611 0.10704 0.0
O13 O 0.52119 0.04201 0.1108 0.0
Mg14 Mg 0.2373 0.21463 0.3741 0.0
O15 O 0.18295 0.16666 0.3708 0.0
O16 O 0.20246 0.10838 0.3878 0.0
Mg17 Mg 0.2697 0.11634 0.40064 0.0
C18 C 0.17576 0.12899 0.37683 0.0
C19 C 0.20374 0.28568 0.3447 0.0
O20 O 0.23878 0.27402 0.33537 0.0
O21 O 0.22477 0.22832 0.4096 0.0
O22 O 0.25287 0.1694 0.42309 0.0
O23 O 0.2686 0.18677 0.34516 0.0
O24 O 0.28123 0.16583 0.37752 0.0
C25 C 0.23762 0.20625 0.42526 0.0
C26 C 0.28826 0.16155 0.35781 0.0
O27 O 0.1933 0.26744 0.36182 0.0
Mg28 Mg 0.02255 0.98754 0.62345 0.0
O29 O 0.07059 0.93332 0.61953 0.0
O30 O 0.1292 0.95214 0.63645 0.0
Mg31 Mg 0.12132 0.01875 0.64995 0.0
C32 C 0.1084 0.92587 0.62535 0.0
C33 C 0.95169 0.95377 0.59377 0.0
O34 O 0.96368 0.98833 0.58414 0.0
O35 O 0.00933 0.97399 0.65888 0.0
O36 O 0.06876 0.00074 0.67252 0.0
O37 O 0.05009 0.01995 0.59474 0.0
O38 O 0.07135 0.03128 0.62716 0.0
C39 C 0.03184 0.98561 0.67462 0.0
C40 C 0.07538 0.03915 0.60751 0.0
O41 O 0.96961 0.94385 0.61105 0.0
Mg42 Mg 0.2489 0.77508 0.87336 0.0
O43 O 0.30295 0.82319 0.87002 0.0
O44 O 0.28346 0.88151 0.88694 0.0
Mg45 Mg 0.21627 0.87325 0.8999 0.0
C46 C 0.31014 0.86087 0.87598 0.0
C47 C 0.28439 0.70547 0.84351 0.0
O48 O 0.25019 0.71772 0.83359 0.0
O49 O 0.26177 0.76145 0.90883 0.0
O50 O 0.23346 0.82024 0.92235 0.0
O51 O 0.21715 0.80308 0.8445 0.0
O52 O 0.2047 0.82357 0.87693 0.0
C53 C 0.24889 0.78345 0.92451 0.0
C54 C 0.1974 0.82798 0.85726 0.0
O55 O 0.29341 0.72273 0.86106 0.0
Mg56 Mg 0.46301 0.9883 0.31258 0.0
O57 O 0.41509 0.9339 0.31565 0.0
O58 O 0.35673 0.95354 0.29871 0.0
Mg59 Mg 0.36446 0.02103 0.28626 0.0
C60 C 0.37742 0.92671 0.30956 0.0
C61 C 0.53396 0.95397 0.3419 0.0
O62 O 0.52195 0.98845 0.3516 0.0
O63 O 0.47667 0.97654 0.27699 0.0
O64 O 0.41772 0.00513 0.26374 0.0
O65 O 0.43511 0.01921 0.34167 0.0
O66 O 0.4141 0.03215 0.30936 0.0
C67 C 0.45463 0.98999 0.26144 0.0
C68 C 0.40989 0.03903 0.32908 0.0
O69 O 0.51599 0.94421 0.32462 0.0
Mg70 Mg 0.24866 0.21503 0.56361 0.0
O71 O 0.30295 0.16691 0.56695 0.0
O72 O 0.28349 0.10872 0.54991 0.0
Mg73 Mg 0.21631 0.11686 0.53701 0.0
C74 C 0.31017 0.12925 0.56091 0.0
C75 C 0.28314 0.2857 0.59316 0.0
O76 O 0.24866 0.27382 0.60292 0.0
O77 O 0.26135 0.2287 0.52811 0.0
O78 O 0.23339 0.16982 0.51457 0.0
O79 O 0.21695 0.18709 0.59248 0.0
O80 O 0.20471 0.16643 0.56006 0.0
C81 C 0.24867 0.20664 0.51243 0.0
C82 C 0.19737 0.16207 0.57973 0.0
O83 O 0.29278 0.26772 0.57586 0.0
Mg84 Mg 0.01877 -0.00205 0.81266 0.0
O85 O 0.06203 0.05502 0.81784 0.0
O86 O 0.12433 0.04183 0.80313 0.0
Mg87 Mg 0.12216 0.97554 0.78842 0.0
C88 C 0.0998 0.06578 0.81364 0.0
C89 C 0.94641 0.03043 0.84209 0.0
O90 O 0.96058 -0.00202 0.85278 0.0
O91 O 0.00735 0.01147 0.77713 0.0
O92 O 0.06984 0.98946 0.76484 0.0
O93 O 0.04646 0.96628 0.84165 0.0
O94 O 0.07083 0.95772 0.80958 0.0
C95 C 0.03198 0.00159 0.7619 0.0
C96 C 0.07377 0.94912 0.82918 0.0
O97 O 0.96298 0.03873 0.82428 0.0
Mg98 Mg 0.2419 0.77135 0.06296 0.0
O99 O 0.18798 0.81976 0.06681 0.0
O100 O 0.20755 0.87817 0.04998 0.0
Mg101 Mg 0.27441 0.86985 0.0367 0.0
C102 C 0.18092 0.85759 0.06098 0.0
C103 C 0.20796 0.70013 0.09226 0.0
O104 O 0.24286 0.71154 0.10179 0.0
O105 O 0.22823 0.75863 0.02749 0.0
O106 O 0.25622 0.81762 0.01405 0.0
O107 O 0.27437 0.79842 0.0918 0.0
O108 O 0.28611 0.81972 0.05943 0.0
C109 C 0.24058 0.78097 0.01184 0.0
C110 C 0.29386 0.82359 0.07909 0.0
O111 O 0.1978 0.71865 0.07517 0.0
Mg112 Mg 0.52338 0.98811 0.81297 0.0
O113 O 0.57214 0.93431 0.8166 0.0
O114 O 0.6302 0.95431 0.79953 0.0
Mg115 Mg 0.62158 0.02129 0.78657 0.0
C116 C 0.60994 0.92749 0.81056 0.0
C117 C 0.45163 0.95517 0.84205 0.0
O118 O 0.46254 0.9907 0.85108 0.0
O119 O 0.51019 0.97505 0.77748 0.0
O120 O 0.56887 0.00376 0.76404 0.0
O121 O 0.55036 0.02035 0.84185 0.0
O122 O 0.57163 0.03243 0.8095 0.0
C123 C 0.5322 0.98806 0.76183 0.0
C124 C 0.57541 0.0401 0.82917 0.0
O125 O 0.4707 0.94409 0.82526 0.0
Mg126 Mg 0.74896 0.77312 0.5625 0.0
O127 O 0.80338 0.82099 0.5659 0.0
O128 O 0.78406 0.87937 0.54895 0.0
Mg129 Mg 0.71681 0.87162 0.53607 0.0
C130 C 0.81069 0.85866 0.55992 0.0
C131 C 0.78301 0.70211 0.59191 0.0
O132 O 0.74838 0.71399 0.60156 0.0
O133 O 0.76143 0.75955 0.52699 0.0
O134 O 0.73344 0.81859 0.51357 0.0
O135 O 0.71748 0.80093 0.59143 0.0
O136 O 0.70512 0.82197 0.55907 0.0
C137 C 0.74859 0.78171 0.51135 0.0
C138 C 0.69789 0.82616 0.57876 0.0
O139 O 0.79292 0.72019 0.57468 0.0
Mg140 Mg 0.9646 -0.00098 0.31338 0.0
O141 O 0.91661 0.05343 0.31648 0.0
O142 O 0.85851 0.03424 0.29923 0.0
Mg143 Mg 0.86655 0.96704 0.28645 0.0
C144 C 0.87903 0.0608 0.31028 0.0
C145 C 0.03505 0.0333 0.34313 0.0
O146 O 0.02301 -0.00114 0.35284 0.0
O147 O 0.97894 0.01137 0.27793 0.0
O148 O 0.92011 0.98351 0.26422 0.0
O149 O 0.93612 0.96766 0.34219 0.0
O150 O 0.91577 0.95531 0.30972 0.0
C151 C 0.95709 -0.00144 0.26219 0.0
C152 C 0.91114 0.94812 0.32939 0.0
O153 O 0.0173 0.04296 0.32576 0.0
Mg154 Mg 0.74213 0.21303 0.063 0.0
O155 O 0.68796 0.16491 0.06632 0.0
O156 O 0.70762 0.10669 0.04934 0.0
Mg157 Mg 0.7749 0.11481 0.03656 0.0
C158 C 0.68084 0.12725 0.06029 0.0
C159 C 0.70768 0.28388 0.09237 0.0
O160 O 0.74234 0.27217 0.10205 0.0
O161 O 0.72944 0.22653 0.02751 0.0
O162 O 0.75801 0.16781 0.01408 0.0
O163 O 0.77368 0.18529 0.09196 0.0
O164 O 0.78621 0.16441 0.0596 0.0
C165 C 0.74257 0.20457 0.01187 0.0
C166 C 0.79339 0.16018 0.0793 0.0
O167 O 0.6979 0.26573 0.07514 0.0
Mg168 Mg 0.52292 -0.00031 0.62349 0.0
O169 O 0.57086 0.054 0.61997 0.0
O170 O 0.62944 0.03468 0.6368 0.0
Mg171 Mg 0.62176 0.96752 0.64971 0.0
C172 C 0.60862 0.06128 0.62588 0.0
C173 C 0.45157 0.03373 0.59424 0.0
O174 O 0.46333 -0.0009 0.5846 0.0
O175 O 0.50972 0.01223 0.65904 0.0
O176 O 0.56893 0.98422 0.67233 0.0
O177 O 0.55049 0.96812 0.59451 0.0
O178 O 0.5718 0.95588 0.62684 0.0
C179 C 0.53203 -0.0006 0.67462 0.0
C180 C 0.57582 0.94857 0.60715 0.0
O181 O 0.46985 0.04364 0.61142 0.0
Mg182 Mg 0.73691 0.77301 0.37307 0.0
O183 O 0.68247 0.82094 0.36959 0.0
O184 O 0.70156 0.87917 0.3867 0.0
Mg185 Mg 0.76864 0.87129 0.39977 0.0
C186 C 0.67507 0.85857 0.37563 0.0
C187 C 0.70334 0.70212 0.34348 0.0
O188 O 0.73811 0.71399 0.33398 0.0
O189 O 0.724 0.75923 0.40853 0.0
O190 O 0.75161 0.81821 0.42215 0.0
O191 O 0.7688 0.801 0.34429 0.0
O192 O 0.78066 0.82179 0.37673 0.0
C193 C 0.73647 0.78132 0.42424 0.0
C194 C 0.78819 0.82611 0.35707 0.0
O195 O 0.69315 0.72017 0.36068 0.0
Mg196 Mg 0.9682 0.98635 0.124 0.0
O197 O 0.92026 0.93204 0.1204 0.0
O198 O 0.86167 0.95128 0.13724 0.0
Mg199 Mg 0.86935 0.01834 0.15023 0.0
C200 C 0.88249 0.92473 0.1263 0.0
C201 C 0.03987 0.9529 0.09484 0.0
O202 O 0.02838 0.98787 0.08542 0.0
O203 O 0.98141 0.97359 0.15952 0.0
O204 O 0.92214 0.00137 0.17285 0.0
O205 O 0.94068 0.01808 0.09505 0.0
O206 O 0.91931 0.03014 0.12738 0.0
C207 C 0.95904 0.98619 0.17512 0.0
C208 C 0.91533 0.03757 0.1077 0.0
O209 O 0.0213 0.94252 0.11187 0.0
Mg210 Mg 0.74804 0.21604 0.87341 0.0
O211 O 0.80089 0.16643 0.86977 0.0
O212 O 0.78012 0.10857 0.88675 0.0
Mg213 Mg 0.71354 0.11859 0.90004 0.0
C214 C 0.80712 0.1285 0.87567 0.0
C215 C 0.78306 0.28621 0.84388 0.0
O216 O 0.74781 0.27527 0.83453 0.0
O217 O 0.76203 0.22901 0.90881 0.0
O218 O 0.733 0.17072 0.92246 0.0
O219 O 0.71551 0.18912 0.84461 0.0
O220 O 0.70296 0.16852 0.87705 0.0
C221 C 0.74936 0.20708 0.92454 0.0
C222 C 0.69559 0.16434 0.85736 0.0
O223 O 0.79315 0.26773 0.86098 0.0
Mg224 Mg 0.96418 0.49932 0.62273 0.0
O225 O 0.91613 0.55365 0.6194 0.0
O226 O 0.85784 0.53441 0.63649 0.0
Mg227 Mg 0.86585 0.4673 0.6494 0.0
C228 C 0.87846 0.56098 0.62547 0.0
C229 C 0.03475 0.53334 0.59307 0.0
O230 O 0.02275 0.49876 0.58348 0.0
O231 O 0.97803 0.51193 0.6582 0.0
O232 O 0.91904 0.48412 0.67179 0.0
O233 O 0.93613 0.46779 0.59389 0.0
O234 O 0.91539 0.45554 0.62631 0.0
C235 C 0.95597 0.49926 0.6739 0.0
C236 C 0.91103 0.44826 0.60663 0.0
O237 O 0.01693 0.54323 0.61038 0.0
Mg238 Mg 0.74302 0.71679 0.87321 0.0
O239 O 0.68859 0.66909 0.86973 0.0
O240 O 0.70764 0.61044 0.88653 0.0
Mg241 Mg 0.77479 0.61803 0.89955 0.0
C242 C 0.68113 0.63139 0.8756 0.0
C243 C 0.70768 0.78739 0.84366 0.0
O244 O 0.74174 0.7753 0.83359 0.0
O245 O 0.73031 0.73008 0.90873 0.0
O246 O 0.75778 0.67078 0.92214 0.0
O247 O 0.77459 0.68884 0.84428 0.0
O248 O 0.78683 0.66781 0.87665 0.0
C249 C 0.74271 0.70769 0.92437 0.0
C250 C 0.79405 0.66353 0.85696 0.0
O251 O 0.69877 0.76969 0.86113 0.0
Mg252 Mg 0.52624 0.48679 0.12236 0.0
O253 O 0.57428 0.43241 0.1193 0.0
O254 O 0.63234 0.45165 0.13657 0.0
Mg255 Mg 0.62421 0.51882 0.14937 0.0
C256 C 0.61186 0.42507 0.12551 0.0
C257 C 0.45607 0.45251 0.09247 0.0
O258 O 0.46824 0.48697 0.08281 0.0
O259 O 0.51185 0.47435 0.15781 0.0
O260 O 0.57067 0.50213 0.17158 0.0
O261 O 0.55478 0.5182 0.09358 0.0
O262 O 0.57505 0.53055 0.12606 0.0
C263 C 0.5337 0.48704 0.17357 0.0
C264 C 0.57972 0.53774 0.10639 0.0
O265 O 0.47362 0.44283 0.10988 0.0
Mg266 Mg 0.74875 0.27266 0.37301 0.0
O267 O 0.80309 0.32055 0.36948 0.0
O268 O 0.78378 0.37903 0.38633 0.0
Mg269 Mg 0.71662 0.37125 0.39932 0.0
C270 C 0.81038 0.35827 0.37538 0.0
C271 C 0.78319 0.20186 0.34357 0.0
O272 O 0.74875 0.21386 0.33379 0.0
O273 O 0.76144 0.25931 0.40853 0.0
O274 O 0.73353 0.31841 0.4219 0.0
O275 O 0.71715 0.30033 0.34406 0.0
O276 O 0.70486 0.32147 0.37641 0.0
C277 C 0.74873 0.28156 0.42415 0.0
C278 C 0.69759 0.32559 0.35671 0.0
O279 O 0.79281 0.21977 0.36088 0.0
Mg280 Mg 0.96605 0.48665 0.8122 0.0
O281 O 0.91751 0.4329 0.81583 0.0
O282 O 0.85907 0.45294 0.79908 0.0
Mg283 Mg 0.86731 0.52005 0.78621 0.0
C284 C 0.87963 0.42607 0.80996 0.0
C285 C 0.03561 0.44995 0.84183 0.0
O286 O 0.02216 0.48289 0.85237 0.0
O287 O 0.97873 0.4741 0.7766 0.0
O288 O 0.91977 0.5029 0.76346 0.0
O289 O 0.93906 0.51885 0.84122 0.0
O290 O 0.91761 0.53112 0.80895 0.0
C291 C 0.95646 0.4873 0.76107 0.0
C292 C 0.91391 0.53871 0.82862 0.0
O293 O 0.01894 0.44198 0.824 0.0
Mg294 Mg 0.75375 0.71313 0.06272 0.0
O295 O 0.80811 0.66503 0.0659 0.0
O296 O 0.78872 0.60711 0.04861 0.0
Mg297 Mg 0.72151 0.61532 0.03576 0.0
C298 C 0.81537 0.62748 0.0597 0.0
C299 C 0.78757 0.78379 0.09236 0.0
O300 O 0.75277 0.772 0.10186 0.0
O301 O 0.7664 0.72736 0.02728 0.0
O302 O 0.73834 0.66873 0.01353 0.0
O303 O 0.72213 0.68484 0.0915 0.0
O304 O 0.70986 0.66446 0.05903 0.0
C305 C 0.75359 0.70559 0.01152 0.0
C306 C 0.70256 0.6599 0.0787 0.0
O307 O 0.79771 0.76576 0.07515 0.0
Mg308 Mg 0.52294 0.4994 0.31181 0.0
O309 O 0.57084 0.55374 0.3154 0.0
O310 O 0.6295 0.53448 0.29863 0.0
Mg311 Mg 0.62191 0.46735 0.2857 0.0
C312 C 0.60863 0.56105 0.30953 0.0
C313 C 0.45141 0.5332 0.34099 0.0
O314 O 0.46317 0.49851 0.3506 0.0
O315 O 0.50985 0.51199 0.27625 0.0
O316 O 0.56917 0.48412 0.26301 0.0
O317 O 0.55041 0.46776 0.34081 0.0
O318 O 0.57187 0.45562 0.30851 0.0
C319 C 0.53227 0.49927 0.26068 0.0
C320 C 0.5758 0.44824 0.3282 0.0
O321 O 0.46977 0.54326 0.32385 0.0
Mg322 Mg 0.73724 0.27323 0.5625 0.0
O323 O 0.68294 0.32133 0.56591 0.0
O324 O 0.70234 0.37955 0.54885 0.0
Mg325 Mg 0.76948 0.37149 0.53591 0.0
C326 C 0.6757 0.359 0.55987 0.0
C327 C 0.7035 0.20232 0.59199 0.0
O328 O 0.73833 0.21406 0.60148 0.0
O329 O 0.72449 0.25961 0.527 0.0
O330 O 0.75247 0.31851 0.51348 0.0
O331 O 0.76897 0.30103 0.59136 0.0
O332 O 0.78115 0.32189 0.55895 0.0
C333 C 0.73721 0.28169 0.51133 0.0
C334 C 0.78852 0.32614 0.57863 0.0
O335 O 0.6933 0.22047 0.57481 0.0
Mg336 Mg 0.02206 0.48677 0.31156 0.0
O337 O 0.07049 0.43294 0.31568 0.0
O338 O 0.12909 0.45217 0.29886 0.0
Mg339 Mg 0.12076 0.51864 0.2852 0.0
C340 C 0.10841 0.42578 0.30995 0.0
C341 C 0.9512 0.45316 0.34118 0.0
O342 O 0.9629 0.48804 0.35059 0.0
O343 O 0.00929 0.47258 0.27616 0.0
O344 O 0.06855 0.49987 0.2626 0.0
O345 O 0.04915 0.51949 0.34027 0.0
O346 O 0.07056 0.53085 0.30787 0.0
C347 C 0.03181 0.48433 0.26045 0.0
C348 C 0.07443 0.53876 0.32752 0.0
O349 O 0.96934 0.44289 0.32401 0.0
Mg350 Mg 0.25436 0.27119 0.06041 0.0
O351 O 0.30869 0.31914 0.06402 0.0
O352 O 0.2894 0.37753 0.04706 0.0
Mg353 Mg 0.22236 0.36966 0.03394 0.0
C354 C 0.31595 0.35686 0.05809 0.0
C355 C 0.2874 0.19978 0.08975 0.0
O356 O 0.25219 0.21133 0.09896 0.0
O357 O 0.26737 0.25772 0.02492 0.0
O358 O 0.23952 0.31675 0.01144 0.0
O359 O 0.22266 0.2988 0.08929 0.0
O360 O 0.21045 0.32005 0.05694 0.0
C361 C 0.25479 0.27991 0.00925 0.0
C362 C 0.20316 0.32413 0.07664 0.0
O363 O 0.29815 0.21822 0.07274 0.0
Mg364 Mg 0.46804 0.50513 0.81209 0.0
O365 O 0.41962 0.55919 0.81556 0.0
O366 O 0.36138 0.53948 0.79856 0.0
Mg367 Mg 0.36982 0.47261 0.78549 0.0
C368 C 0.38182 0.56617 0.80957 0.0
C369 C 0.5394 0.53795 0.84141 0.0
O370 O 0.52797 0.50266 0.85054 0.0
O371 O 0.48162 0.51803 0.77661 0.0
O372 O 0.42257 0.49032 0.76303 0.0
O373 O 0.44027 0.47337 0.84095 0.0
O374 O 0.41956 0.46124 0.80851 0.0
C375 C 0.4594 0.50567 0.7609 0.0
C376 C 0.41523 0.45385 0.82818 0.0
O377 O 0.5208 0.5489 0.82447 0.0
Mg378 Mg 0.23678 0.7144 0.56129 0.0
O379 O 0.18249 0.66644 0.56484 0.0
O380 O 0.20185 0.60803 0.54793 0.0
Mg381 Mg 0.26893 0.61592 0.53488 0.0
C382 C 0.17525 0.62872 0.55891 0.0
C383 C 0.20322 0.78535 0.59074 0.0
O384 O 0.23812 0.77348 0.60015 0.0
O385 O 0.22389 0.72782 0.5258 0.0
O386 O 0.25177 0.66877 0.51235 0.0
O387 O 0.26842 0.68676 0.5902 0.0
O388 O 0.2807 0.6656 0.55785 0.0
C389 C 0.23649 0.7056 0.51015 0.0
C390 C 0.28796 0.66147 0.57755 0.0
O391 O 0.19287 0.76729 0.57357 0.0
Mg392 Mg 0.02756 0.49648 0.12201 0.0
O393 O 0.07536 0.55099 0.11905 0.0
O394 O 0.13377 0.53138 0.13595 0.0
Mg395 Mg 0.12615 0.46378 0.14829 0.0
C396 C 0.11301 0.55823 0.12514 0.0
C397 C 0.95651 0.53124 0.09278 0.0
O398 O 0.96847 0.49693 0.08291 0.0
O399 O 0.01386 0.50797 0.15764 0.0
O400 O 0.07286 0.4794 0.17084 0.0
O401 O 0.05559 0.46583 0.09286 0.0
O402 O 0.07655 0.4527 0.12516 0.0
C403 C 0.03592 0.49445 0.17317 0.0
C404 C 0.08083 0.44597 0.10543 0.0
O405 O 0.97453 0.54066 0.1101 0.0
Mg406 Mg 0.2455 0.27424 0.87102 0.0
O407 O 0.18865 0.31976 0.86747 0.0
O408 O 0.20491 0.37777 0.88552 0.0
Mg409 Mg 0.27205 0.37287 0.89876 0.0
C410 C 0.1795 0.35667 0.87405 0.0
C411 C 0.16793 0.21389 0.85535 0.0
O412 O 0.14279 0.24309 0.86285 0.0
O413 O 0.23208 0.25853 0.90622 0.0
O414 O 0.25693 0.31811 0.92051 0.0
O415 O 0.27664 0.30386 0.84264 0.0
O416 O 0.28634 0.32519 0.8752 0.0
C417 C 0.24328 0.28055 0.9222 0.0
C418 C 0.29428 0.3299 0.85559 0.0
O419 O 0.20765 0.21819 0.85727 0.0
Mg420 Mg 0.46381 0.48924 0.62274 0.0
O421 O 0.41614 0.43456 0.61992 0.0
O422 O 0.35782 0.45401 0.63693 0.0
Mg423 Mg 0.36533 0.52165 0.6492 0.0
C424 C 0.37856 0.42722 0.62609 0.0
C425 C 0.53476 0.45483 0.59341 0.0
O426 O 0.52268 0.4892 0.58362 0.0
O427 O 0.47798 0.47811 0.65835 0.0
O428 O 0.41896 0.50646 0.67163 0.0
O429 O 0.43543 0.5197 0.59363 0.0
O430 O 0.4147 0.53285 0.62596 0.0
C431 C 0.45601 0.49164 0.67391 0.0
C432 C 0.41025 0.53952 0.60623 0.0
O433 O 0.51687 0.44523 0.61074 0.0
Mg434 Mg 0.24804 0.71391 0.37178 0.0
O435 O 0.30244 0.66592 0.36836 0.0
O436 O 0.28308 0.60758 0.38531 0.0
Mg437 Mg 0.21582 0.61545 0.39817 0.0
C438 C 0.30973 0.62824 0.37436 0.0
C439 C 0.28212 0.78508 0.34248 0.0
O440 O 0.24746 0.77342 0.33281 0.0
O441 O 0.26061 0.7273 0.40731 0.0
O442 O 0.23258 0.66832 0.42072 0.0
O443 O 0.21637 0.68624 0.34284 0.0
O444 O 0.20417 0.66521 0.37521 0.0
C445 C 0.2478 0.70514 0.42294 0.0
C446 C 0.19679 0.66108 0.35553 0.0
O447 O 0.29203 0.76678 0.35966 0.0
C448 C 0.47888 0.95718 0.2278 0.0
C449 C 0.47231 0.99321 0.24002 0.0
H450 H 0.48073 0.93186 0.19651 0.0
C451 C 0.47178 0.03286 0.23008 0.0
H452 H 0.47859 0.92633 0.23504 0.0
C453 C 0.4732 0.03614 0.20811 0.0
C454 C 0.47509 -0.00025 0.19578 0.0
H455 H 0.46624 0.06108 0.23925 0.0
H456 H 0.46831 0.06655 0.2008 0.0
C457 C 0.48011 0.96046 0.20578 0.0
C458 C 0.28305 0.226 0.47856 0.0
C459 C 0.24669 0.22413 0.49096 0.0
H460 H 0.3081 0.22288 0.44725 0.0
C461 C 0.20699 0.22673 0.4811 0.0
H462 H 0.31386 0.22309 0.48575 0.0
C463 C 0.20357 0.22666 0.4591 0.0
C464 C 0.23989 0.22379 0.44671 0.0
H465 H 0.17848 0.22459 0.49042 0.0
H466 H 0.1727 0.22429 0.45192 0.0
C467 C 0.27963 0.22575 0.45656 0.0
C468 C 0.01811 0.95638 0.731 0.0
C469 C 0.01587 -0.0034 0.74026 0.0
H470 H 0.02359 0.92094 0.70233 0.0
C471 C 0.00865 0.0316 0.72738 0.0
H472 H 0.02425 0.92897 0.74068 0.0
C473 C 0.00808 0.02683 0.70542 0.0
C474 C 0.01454 0.98709 0.69612 0.0
H475 H 0.00765 0.06289 0.73411 0.0
H476 H 0.00676 0.05478 0.69566 0.0
C477 C 0.01747 0.95163 0.70908 0.0
C478 C 0.20738 0.76481 0.95611 0.0
C479 C 0.24685 0.76585 0.94596 0.0
H480 H 0.17416 0.76744 -0.01443 0.0
C481 C 0.28345 0.7614 0.95802 0.0
H482 H 0.17871 0.76881 0.94706 0.0
C483 C 0.28072 0.76066 -0.01994 0.0
C484 C 0.24143 0.76409 -0.00976 0.0
H485 H 0.31414 0.76299 0.95061 0.0
H486 H 0.30958 0.76161 -0.01083 0.0
C487 C 0.20465 0.76384 -0.02188 0.0
C488 C 0.51293 0.95376 0.72794 0.0
C489 C 0.51473 0.99003 0.74036 0.0
H490 H 0.51592 0.92886 0.6966 0.0
C491 C 0.5119 0.02971 0.73054 0.0
H492 H 0.516 0.92297 0.73509 0.0
C493 C 0.51179 0.0332 0.70854 0.0
C494 C 0.51472 -0.00301 0.69612 0.0
H495 H 0.51397 0.05816 0.73988 0.0
H496 H 0.51397 0.06407 0.70138 0.0
C497 C 0.51301 0.95726 0.70594 0.0
C498 C 0.7784 0.76086 0.45542 0.0
C499 C 0.73859 0.76373 0.44569 0.0
H500 H 0.81308 0.76316 0.48448 0.0
C501 C 0.70238 0.76218 0.45821 0.0
H502 H 0.8068 0.76279 0.446 0.0
C503 C 0.70609 0.76245 0.48019 0.0
C504 C 0.74597 0.76416 0.48991 0.0
H505 H 0.6715 0.76532 0.45112 0.0
H506 H 0.67775 0.76555 0.48959 0.0
C507 C 0.7821 0.76099 0.47741 0.0
C508 C 0.97841 0.03193 0.22833 0.0
C509 C 0.97511 -0.00412 0.24084 0.0
H510 H 0.97708 0.05651 0.19689 0.0
C511 C 0.97709 0.95602 0.23117 0.0
H512 H 0.97604 0.06288 0.23536 0.0
C513 C 0.97774 0.95226 0.20919 0.0
C514 C 0.97629 0.98838 0.19663 0.0
H515 H 0.97389 0.92775 0.24058 0.0
H516 H 0.97478 0.92139 0.20212 0.0
C517 C 0.97892 0.02817 0.20634 0.0
C518 C 0.71028 0.22842 0.95648 0.0
C519 C 0.7493 0.22406 0.94611 0.0
H520 H 0.67734 0.22676 -0.01393 0.0
C521 C 0.78628 0.22332 0.95807 0.0
H522 H 0.68126 0.22824 0.94749 0.0
C523 C 0.78393 0.22225 -0.01992 0.0
C524 C 0.74463 0.22209 -0.0096 0.0
H525 H 0.81653 0.21899 0.95047 0.0
H526 H 0.81266 0.21749 -0.01101 0.0
C527 C 0.70793 0.2276 -0.02148 0.0
C528 C 0.97624 0.45726 0.70507 0.0
C529 C 0.97362 0.49702 0.69533 0.0
H530 H 0.97402 0.42269 0.73416 0.0
C531 C 0.97566 0.53319 0.70782 0.0
H532 H 0.97396 0.42889 0.69568 0.0
C533 C 0.97562 0.52952 0.72981 0.0
C534 C 0.97369 0.48973 0.73956 0.0
H535 H 0.97274 0.56405 0.70073 0.0
H536 H 0.97291 0.55786 0.7392 0.0
C537 C 0.97637 0.45359 0.72707 0.0
C538 C 0.71158 0.72561 -0.01971 0.0
C539 C 0.75132 0.72355 -0.00986 0.0
H540 H 0.6774 0.72347 0.95109 0.0
C541 C 0.78764 0.72679 -0.02221 0.0
H542 H 0.68311 0.72247 -0.01043 0.0
C543 C 0.78426 0.72733 0.95578 0.0
C544 C 0.74458 0.72484 0.9459 0.0
H545 H 0.8185 0.72435 -0.01503 0.0
H546 H 0.81279 0.72545 0.94647 0.0
C547 C 0.7082 0.72633 0.95829 0.0
C548 C 0.51302 0.45703 0.22945 0.0
C549 C 0.51504 0.49684 0.23916 0.0
H550 H 0.51616 0.4224 0.20042 0.0
C551 C 0.51276 0.53295 0.22662 0.0
H552 H 0.51548 0.42871 0.23888 0.0
C553 C 0.51319 0.52922 0.20463 0.0
C554 C 0.51574 0.48941 0.19494 0.0
H555 H 0.51522 0.56386 0.23369 0.0
H556 H 0.51577 0.55755 0.19522 0.0
C557 C 0.51329 0.4533 0.20746 0.0
C558 C 0.70311 0.26198 0.47742 0.0
C559 C 0.73939 0.26416 0.48987 0.0
H560 H 0.67822 0.26469 0.44607 0.0
C561 C 0.77916 0.26172 0.48008 0.0
H562 H 0.67224 0.26476 0.48456 0.0
C563 C 0.7827 0.26164 0.45808 0.0
C564 C 0.74644 0.26417 0.44564 0.0
H565 H 0.80761 0.2641 0.48944 0.0
H566 H 0.8136 0.26414 0.45095 0.0
C567 C 0.70666 0.26206 0.45543 0.0
C568 C 0.01765 0.44825 0.22654 0.0
C569 C 0.01503 0.48464 0.23883 0.0
H570 H 0.02534 0.4233 0.19544 0.0
C571 C 0.0095 0.52381 0.22878 0.0
H572 H 0.02296 0.41794 0.23389 0.0
C573 C 0.01093 0.52703 0.20676 0.0
C574 C 0.01823 0.49107 0.19459 0.0
H575 H 0.00834 0.55243 0.23803 0.0
H576 H 0.01078 0.55786 0.19949 0.0
C577 C 0.01927 0.45147 0.20456 0.0
C578 C 0.21281 0.26024 -0.02202 0.0
C579 C 0.25259 0.26243 -0.01223 0.0
H580 H 0.17839 0.263 0.94886 0.0
C581 C 0.28885 0.25991 -0.02468 0.0
H582 H 0.18437 0.26286 -0.01267 0.0
C583 C 0.28531 0.25995 0.95332 0.0
C584 C 0.24553 0.26236 0.94352 0.0
H585 H 0.31974 0.26249 -0.01754 0.0
H586 H 0.31375 0.26245 0.94396 0.0
C587 C 0.20927 0.26016 0.95598 0.0
C588 C 0.48155 0.46439 0.72983 0.0
C589 C 0.47668 0.50411 0.73939 0.0
H590 H 0.47981 0.42899 0.70097 0.0
C591 C 0.4751 0.53997 0.72666 0.0
H592 H 0.48192 0.43618 0.73943 0.0
C593 C 0.47375 0.53575 0.70472 0.0
C594 C 0.47401 0.49568 0.69523 0.0
H595 H 0.4703 0.57072 0.73362 0.0
H596 H 0.46836 0.5636 0.69524 0.0
C597 C 0.48033 0.46016 0.70785 0.0
C598 C 0.2782 0.7256 0.47883 0.0
C599 C 0.23848 0.72296 0.48865 0.0
H600 H 0.31259 0.7232 0.44968 0.0
C601 C 0.20216 0.72473 0.47622 0.0
H602 H 0.30669 0.72352 0.48818 0.0
C603 C 0.20565 0.72447 0.45422 0.0
C604 C 0.24543 0.7226 0.44441 0.0
H605 H 0.17133 0.72179 0.48337 0.0
H606 H 0.17721 0.72156 0.44489 0.0
C607 C 0.28169 0.72552 0.45683 0.0
C608 C 0.37668 0.90934 0.07822 0.0
C609 C 0.38345 0.91632 0.09974 0.0
H610 H 0.34353 0.8743 0.05488 0.0
C611 C 0.35981 0.8931 0.11452 0.0
H612 H 0.39458 0.9264 0.06648 0.0
C613 C 0.33014 0.86347 0.10791 0.0
C614 C 0.32359 0.85627 0.08639 0.0
H615 H 0.36474 0.89708 0.13127 0.0
H616 H 0.31279 0.84585 0.11966 0.0
C617 C 0.34715 0.87958 0.07162 0.0
C618 C 0.34099 0.10473 0.36497 0.0
C619 C 0.31751 0.12855 0.35035 0.0
H620 H 0.38828 0.05754 0.36979 0.0
C621 C 0.32387 0.12172 0.32878 0.0
H622 H 0.3375 0.10969 0.38174 0.0
C623 C 0.35341 0.09211 0.32198 0.0
C624 C 0.37708 0.06848 0.33659 0.0
H625 H 0.30658 0.13973 0.31715 0.0
H626 H 0.35829 0.08857 0.30521 0.0
C627 C 0.37036 0.07493 0.35816 0.0
C628 C 0.11484 0.07605 0.57876 0.0
C629 C 0.10816 0.06885 0.60027 0.0
H630 H 0.14777 0.11141 0.55547 0.0
C631 C 0.13191 0.09188 0.61507 0.0
H632 H 0.09687 0.05913 0.56699 0.0
C633 C 0.16152 0.12161 0.60851 0.0
C634 C 0.16789 0.12911 0.587 0.0
H635 H 0.12706 0.08771 0.63182 0.0
H636 H 0.1789 0.13913 0.62028 0.0
C637 C 0.14429 0.10592 0.5722 0.0
C638 C 0.11304 0.91237 0.85813 0.0
C639 C 0.10725 0.92033 0.83662 0.0
H640 H 0.14583 0.87679 0.88147 0.0
C641 C 0.13244 0.89864 0.82189 0.0
H642 H 0.09401 0.92831 0.86983 0.0
C643 C 0.16233 0.8692 0.82851 0.0
C644 C 0.16771 0.8608 0.85 0.0
H645 H 0.12843 0.90354 0.80513 0.0
H646 H 0.18073 0.8526 0.81678 0.0
C647 C 0.14294 0.88291 0.86475 0.0
C648 C 0.64246 0.10815 0.86474 0.0
C649 C 0.66621 0.13139 0.85002 0.0
H650 H 0.59552 0.06082 0.86977 0.0
C651 C 0.66043 0.12366 0.82849 0.0
H652 H 0.64545 0.11386 0.88147 0.0
C653 C 0.63133 0.09355 0.82182 0.0
C654 C 0.60758 0.07031 0.83654 0.0
H655 H 0.67794 0.14122 0.81679 0.0
H656 H 0.62694 0.08922 0.80506 0.0
C657 C 0.61358 0.07783 0.85807 0.0
C658 C 0.63231 0.89559 0.61442 0.0
C659 C 0.60865 0.91905 0.59973 0.0
H660 H 0.67927 0.84814 0.61939 0.0
C661 C 0.61546 0.91245 0.57818 0.0
H662 H 0.62735 0.89926 0.63118 0.0
C663 C 0.64496 0.8827 0.57147 0.0
C664 C 0.66846 0.85908 0.58616 0.0
H665 H 0.59755 0.92971 0.5665 0.0
H666 H 0.64855 0.87765 0.55471 0.0
C667 C 0.66198 0.86601 0.6077 0.0
C668 C 0.84098 0.88254 0.36466 0.0
C669 C 0.81778 0.85899 0.34984 0.0
H670 H 0.88835 0.92937 0.3699 0.0
C671 C 0.82478 0.86593 0.32834 0.0
H672 H 0.837 0.87748 0.3814 0.0
C673 C 0.85466 0.89539 0.32179 0.0
C674 C 0.87803 0.91876 0.33661 0.0
H675 H 0.80774 0.84811 0.31655 0.0
H676 H 0.86004 0.89904 0.30506 0.0
C677 C 0.87068 0.91218 0.35812 0.0
C678 C 0.82915 0.12012 0.10825 0.0
C679 C 0.82284 0.12727 0.0867 0.0
H680 H 0.86358 0.08664 0.13173 0.0
C681 C 0.84648 0.1038 0.07202 0.0
H682 H 0.81175 0.13787 0.11993 0.0
C683 C 0.87592 0.07398 0.07873 0.0
C684 C 0.88255 0.06716 0.10028 0.0
H685 H 0.84304 0.10901 0.05526 0.0
H686 H 0.89393 0.05684 0.06705 0.0
C687 C 0.85876 0.09048 0.11496 0.0
C688 C 0.82475 0.36598 0.60747 0.0
C689 C 0.81805 0.35899 0.58594 0.0
H690 H 0.85965 0.3992 0.63083 0.0
C691 C 0.84144 0.3825 0.57118 0.0
H692 H 0.80754 0.34819 0.6192 0.0
C693 C 0.87103 0.41218 0.5778 0.0
C694 C 0.87806 0.41883 0.59933 0.0
H695 H 0.83771 0.37739 0.55444 0.0
H696 H 0.88885 0.42935 0.56607 0.0
C697 C 0.85451 0.39549 0.61409 0.0
C698 C 0.87535 0.57609 0.85758 0.0
C699 C 0.88169 0.56895 0.83604 0.0
H700 H 0.8432 0.61186 0.88103 0.0
C701 C 0.85821 0.59259 0.82135 0.0
H702 H 0.89315 0.55874 0.86927 0.0
C703 C 0.82914 0.62279 0.82804 0.0
C704 C 0.82308 0.6302 0.84958 0.0
H705 H 0.86283 0.58853 0.80459 0.0
H706 H 0.81194 0.64071 0.81635 0.0
C707 C 0.84645 0.60646 0.86428 0.0
C708 C 0.66615 0.61989 0.10744 0.0
C709 C 0.67301 0.62697 0.08593 0.0
H710 H 0.63103 0.58665 0.13072 0.0
C711 C 0.64971 0.60352 0.07111 0.0
H712 H 0.68327 0.63763 0.11922 0.0
C713 C 0.62005 0.57384 0.07766 0.0
C714 C 0.61283 0.56712 0.09917 0.0
H715 H 0.65356 0.60869 0.05438 0.0
H716 H 0.60229 0.55673 0.06588 0.0
C717 C 0.6363 0.59039 0.11398 0.0
C718 C 0.66184 0.36555 0.32773 0.0
C719 C 0.66821 0.35854 0.34928 0.0
H720 H 0.6274 0.39894 0.30422 0.0
C721 C 0.64467 0.38217 0.36395 0.0
H722 H 0.67917 0.34769 0.31606 0.0
C723 C 0.61525 0.41198 0.3572 0.0
C724 C 0.60856 0.41866 0.33565 0.0
H725 H 0.64818 0.37706 0.38071 0.0
H726 H 0.59731 0.42923 0.36887 0.0
C727 C 0.63227 0.3952 0.32099 0.0
C728 C 0.13089 0.59163 0.32004 0.0
C729 C 0.10721 0.56842 0.33481 0.0
H730 H 0.17797 0.63883 0.31493 0.0
C731 C 0.11405 0.57528 0.35633 0.0
H732 H 0.12591 0.58772 0.30329 0.0
C733 C 0.14363 0.60497 0.36295 0.0
C734 C 0.16719 0.62831 0.34819 0.0
H735 H 0.09614 0.55822 0.36807 0.0
H736 H 0.14725 0.61018 0.37969 0.0
C737 C 0.16063 0.62118 0.32667 0.0
C738 C 0.15041 0.38099 0.0695 0.0
C739 C 0.17373 0.357 0.08411 0.0
H740 H 0.10303 0.42813 0.0647 0.0
C741 C 0.16705 0.36348 0.10568 0.0
H742 H 0.15418 0.37632 0.05273 0.0
C743 C 0.13733 0.39291 0.11249 0.0
C744 C 0.11379 0.4167 0.09789 0.0
H745 H 0.18421 0.34534 0.11731 0.0
H746 H 0.13221 0.39618 0.12926 0.0
C747 C 0.12083 0.41059 0.07632 0.0
C748 C 0.3745 0.41806 0.85689 0.0
C749 C 0.38239 0.42425 0.8354 0.0
H750 H 0.34063 0.38326 0.88012 0.0
C751 C 0.35979 0.40027 0.82054 0.0
H752 H 0.39153 0.43582 0.8687 0.0
C753 C 0.33032 0.37041 0.82703 0.0
C754 C 0.32291 0.3637 0.84852 0.0
H755 H 0.36555 0.40368 0.80383 0.0
H756 H 0.31402 0.35201 0.81521 0.0
C757 C 0.34509 0.38805 0.86339 0.0
C758 C 0.37025 0.57503 0.57717 0.0
C759 C 0.37724 0.56877 0.59873 0.0
H760 H 0.33702 0.60951 0.5536 0.0
C761 C 0.35366 0.59244 0.61335 0.0
H762 H 0.3881 0.5576 0.56553 0.0
C763 C 0.32396 0.62192 0.60657 0.0
C764 C 0.31735 0.62857 0.585 0.0
H765 H 0.35874 0.58905 0.63012 0.0
H766 H 0.30676 0.63997 0.61821 0.0
C767 C 0.34072 0.60469 0.57038 0.0
C768 C 0.32062 0.10904 0.12501 0.0
C769 C 0.35998 0.09754 0.11664 0.0
H770 H 0.26731 0.14995 0.12324 0.0
C771 C 0.37616 0.12111 0.09966 0.0
H772 H 0.30711 0.09178 0.13808 0.0
C773 C 0.35293 0.15449 0.09092 0.0
C774 C 0.31318 0.16531 0.09909 0.0
H775 H 0.40625 0.11306 0.09271 0.0
H776 H 0.36594 0.17152 0.07766 0.0
C777 C 0.29769 0.14249 0.11643 0.0
C778 C 0.11377 0.12219 0.35208 0.0
C779 C 0.13723 0.10682 0.3693 0.0
H780 H 0.06349 0.11102 0.33012 0.0
C781 C 0.12554 0.06805 0.3782 0.0
H782 H 0.12199 0.15181 0.34473 0.0
C783 C 0.09203 0.04484 0.36988 0.0
C784 C 0.06941 0.05945 0.35227 0.0
H785 H 0.14273 0.05519 0.39147 0.0
H786 H 0.08444 0.0149 0.37708 0.0
C787 C 0.08038 0.09867 0.3436 0.0
C788 C 0.16951 0.87569 0.6261 0.0
C789 C 0.13043 0.88751 0.6175 0.0
H790 H 0.22266 0.83455 0.62454 0.0
C791 C 0.11456 0.86424 0.60036 0.0
H792 H 0.18278 0.89272 0.6393 0.0
C793 C 0.13784 0.83088 0.59166 0.0
C794 C 0.17733 0.81976 0.60005 0.0
H795 H 0.08468 0.87256 0.59324 0.0
H796 H 0.12508 0.8141 0.57826 0.0
C797 C 0.1925 0.84225 0.61756 0.0
C798 C 0.40656 0.88965 0.84315 0.0
C799 C 0.41701 0.92946 0.85127 0.0
H800 H 0.36518 0.83641 0.84474 0.0
C801 C 0.39358 0.94513 0.86838 0.0
H802 H 0.42406 0.87651 0.83006 0.0
C803 C 0.35986 0.92229 0.87675 0.0
C804 C 0.34872 0.8829 0.86839 0.0
H805 H 0.40075 0.97556 0.87514 0.0
H806 H 0.34211 0.93593 0.88962 0.0
C807 C 0.37293 0.86655 0.85167 0.0
C808 C 0.34749 0.83048 0.34219 0.0
C809 C 0.30818 0.81969 0.33352 0.0
H810 H 0.4006 0.87218 0.34125 0.0
C811 C 0.29336 0.84274 0.31609 0.0
H812 H 0.35999 0.81326 0.35552 0.0
C813 C 0.31648 0.87648 0.30796 0.0
C814 C 0.35534 0.888 0.31687 0.0
H815 H 0.26335 0.8353 0.3089 0.0
H816 H 0.30346 0.89399 0.29484 0.0
C817 C 0.3709 0.86412 0.33389 0.0
C818 C 0.36034 0.06819 0.55954 0.0
C819 C 0.34876 0.10705 0.56839 0.0
H820 H 0.40152 0.01503 0.5606 0.0
C821 C 0.3725 0.12254 0.58547 0.0
H822 H 0.34295 0.05523 0.54637 0.0
C823 C 0.40608 0.09908 0.59386 0.0
C824 C 0.41696 0.05979 0.58523 0.0
H825 H 0.36438 0.15223 0.59278 0.0
H826 H 0.42321 0.11154 0.60723 0.0
C827 C 0.39402 0.04503 0.56776 0.0
C828 C 0.16038 0.11352 0.82284 0.0
C829 C 0.11682 0.10533 0.82299 0.0
H830 H 0.21061 0.15359 0.83303 0.0
C831 C 0.09015 0.1338 0.83352 0.0
H832 H 0.18199 0.09228 0.81502 0.0
C833 C 0.10664 0.16912 0.84386 0.0
C834 C 0.15028 0.17672 0.84412 0.0
H835 H 0.05647 0.12858 0.83403 0.0
H836 H 0.08516 0.19015 0.85191 0.0
C837 C 0.17688 0.14861 0.83333 0.0
C838 C 0.11866 0.86401 0.08561 0.0
C839 C 0.14251 0.87985 0.06865 0.0
H840 H 0.0679 0.87464 0.10738 0.0
C841 C 0.13116 0.91902 0.06005 0.0
H842 H 0.12659 0.83407 0.09273 0.0
C843 C 0.09756 0.94211 0.0684 0.0
C844 C 0.07447 0.92696 0.08573 0.0
H845 H 0.14864 0.93227 0.04699 0.0
H846 H 0.09022 0.97233 0.06143 0.0
C847 C 0.08515 0.88739 0.09412 0.0
C848 C 0.64197 0.83252 0.84371 0.0
C849 C 0.68105 0.8217 0.83476 0.0
H850 H 0.58845 0.87383 0.84293 0.0
C851 C 0.69502 0.84436 0.81704 0.0
H852 H 0.63012 0.81559 0.85728 0.0
C853 C 0.67132 0.87771 0.80888 0.0
C854 C 0.63266 0.88921 0.81804 0.0
H855 H 0.72482 0.83691 0.80963 0.0
H856 H 0.6837 0.8949 0.79551 0.0
C857 C 0.61795 0.86575 0.83538 0.0
C858 C 0.89455 0.94263 0.56705 0.0
C859 C 0.91722 0.92778 0.5846 0.0
H860 H 0.84377 0.9326 0.54548 0.0
C861 C 0.90621 0.88849 0.59318 0.0
H862 H 0.90216 0.97263 0.55993 0.0
C863 C 0.87274 0.86512 0.58466 0.0
C864 C 0.84925 0.88071 0.5675 0.0
H865 H 0.92313 0.87597 0.6066 0.0
H866 H 0.86451 0.83543 0.59193 0.0
C867 C 0.86098 0.91956 0.5587 0.0
C868 C 0.79485 0.14475 0.31694 0.0
C869 C 0.80938 0.16738 0.33454 0.0
H870 H 0.8053 0.09397 0.29545 0.0
C871 C 0.84855 0.15632 0.34332 0.0
H872 H 0.76495 0.15241 0.30967 0.0
C873 C 0.8721 0.12284 0.33494 0.0
C874 C 0.85682 0.09938 0.31772 0.0
H875 H 0.86083 0.17322 0.35679 0.0
H876 H 0.90168 0.11456 0.34237 0.0
C877 C 0.8181 0.11116 0.30872 0.0
C878 C 0.61837 0.12072 0.08474 0.0
C879 C 0.64228 0.10506 0.06776 0.0
H880 H 0.56756 0.1099 0.10644 0.0
C881 C 0.63091 0.06606 0.05901 0.0
H882 H 0.62631 0.15053 0.09197 0.0
C883 C 0.59726 0.04294 0.06725 0.0
C884 C 0.57416 0.05788 0.08462 0.0
H885 H 0.64844 0.05296 0.04592 0.0
H886 H 0.58992 0.01283 0.06018 0.0
C887 C 0.58482 0.09731 0.09314 0.0
C888 C 0.69264 0.14505 0.61862 0.0
C889 C 0.67756 0.16784 0.60117 0.0
H890 H 0.68285 0.09418 0.64013 0.0
C891 C 0.63812 0.15691 0.59269 0.0
H892 H 0.72276 0.1526 0.62567 0.0
C893 C 0.61482 0.12342 0.60122 0.0
C894 C 0.63063 0.09983 0.61828 0.0
H895 H 0.62542 0.17393 0.57933 0.0
H896 H 0.585 0.11526 0.59402 0.0
C897 C 0.66964 0.11147 0.62699 0.0
C898 C 0.57963 0.88873 0.34233 0.0
C899 C 0.56848 0.9279 0.35101 0.0
H900 H 0.62147 0.83569 0.34347 0.0
C901 C 0.59106 0.94255 0.36861 0.0
H902 H 0.56278 0.87636 0.32885 0.0
C903 C 0.62465 0.91942 0.37694 0.0
C904 C 0.63651 0.88068 0.36804 0.0
H905 H 0.58333 0.97246 0.37581 0.0
H906 H 0.64177 0.93231 0.39021 0.0
C907 C 0.61313 0.86528 0.35081 0.0
C908 C 0.85294 0.82922 0.09306 0.0
C909 C 0.81353 0.81823 0.10156 0.0
H910 H 0.90603 0.87091 0.09437 0.0
C911 C 0.79851 0.84092 0.11905 0.0
H912 H 0.86559 0.81228 0.07967 0.0
C913 C 0.82153 0.87449 0.12742 0.0
C914 C 0.86049 0.8862 0.11869 0.0
H915 H 0.76842 0.83332 0.12611 0.0
H916 H 0.80835 0.8917 0.14059 0.0
C917 C 0.87625 0.86269 0.10159 0.0
C918 C 0.88944 0.0428 0.86876 0.0
C919 C 0.91183 0.05667 0.85094 0.0
H920 H 0.83934 0.05445 0.89055 0.0
C921 C 0.90091 0.09564 0.84196 0.0
H922 H 0.89702 0.01305 0.87616 0.0
C923 C 0.868 0.11982 0.85045 0.0
C924 C 0.84491 0.10534 0.86796 0.0
H925 H 0.91768 0.10742 0.82832 0.0
H926 H 0.85993 0.14933 0.84292 0.0
C927 C 0.85632 0.06665 0.87707 0.0
C928 C 0.84838 0.65659 0.59237 0.0
C929 C 0.80908 0.66759 0.601 0.0
H930 H 0.90152 0.61486 0.59349 0.0
C931 C 0.79429 0.64485 0.61852 0.0
H932 H 0.86086 0.67357 0.57895 0.0
C933 C 0.81744 0.61124 0.6268 0.0
C934 C 0.85631 0.59953 0.61794 0.0
H935 H 0.76428 0.65246 0.62568 0.0
H936 H 0.80445 0.59399 0.64001 0.0
C937 C 0.87183 0.62308 0.60081 0.0
C938 C 0.61862 0.62605 0.85109 0.0
C939 C 0.64244 0.60967 0.86795 0.0
H940 H 0.56775 0.61627 0.8293 0.0
C941 C 0.63083 0.57047 0.87639 0.0
H942 H 0.62674 0.65604 0.8441 0.0
C943 C 0.59706 0.54782 0.86795 0.0
C944 C 0.57405 0.56349 0.8507 0.0
H945 H 0.64828 0.55682 0.88937 0.0
H946 H 0.58954 0.51753 0.87478 0.0
C947 C 0.58493 0.60313 0.8425 0.0
C948 C 0.61871 0.36284 0.10097 0.0
C949 C 0.63408 0.38647 0.11811 0.0
H950 H 0.62991 0.31228 0.07921 0.0
C951 C 0.67287 0.37482 0.12708 0.0
H952 H 0.58908 0.37101 0.09357 0.0
C953 C 0.6961 0.34118 0.1189 0.0
C954 C 0.68149 0.31837 0.10137 0.0
H955 H 0.68573 0.39213 0.14029 0.0
H956 H 0.72606 0.33363 0.12614 0.0
C957 C 0.64225 0.32931 0.09263 0.0
C958 C 0.87247 0.36446 0.35065 0.0
C959 C 0.8489 0.38029 0.36772 0.0
H960 H 0.92288 0.37505 0.32869 0.0
C961 C 0.86051 0.41932 0.37635 0.0
H962 H 0.86432 0.33463 0.3435 0.0
C963 C 0.89404 0.44232 0.36791 0.0
C964 C 0.91679 0.42723 0.35045 0.0
H965 H 0.84325 0.43254 0.3895 0.0
H966 H 0.90157 0.47247 0.37489 0.0
C967 C 0.90589 0.38776 0.34205 0.0
C968 C 0.8728 0.36389 0.83457 0.0
C969 C 0.85721 0.38775 0.81755 0.0
H970 H 0.86163 0.31346 0.85643 0.0
C971 C 0.81802 0.37662 0.80887 0.0
H972 H 0.90274 0.37166 0.84175 0.0
C973 C 0.79463 0.34331 0.81723 0.0
C974 C 0.80947 0.32029 0.83466 0.0
H975 H 0.80498 0.39411 0.79575 0.0
H976 H 0.76438 0.33619 0.81021 0.0
C977 C 0.8491 0.33067 0.8431 0.0
C978 C 0.91099 0.59658 0.09269 0.0
C979 C 0.92198 0.55751 0.08384 0.0
H980 H 0.86927 0.64973 0.09183 0.0
C981 C 0.89924 0.54318 0.06622 0.0
H982 H 0.92797 0.60871 0.10618 0.0
C983 C 0.86563 0.56652 0.05805 0.0
C984 C 0.85394 0.60515 0.06712 0.0
H985 H 0.90683 0.51337 0.05889 0.0
H986 H 0.84838 0.55388 0.04477 0.0
C987 C 0.87749 0.62023 0.08436 0.0
C988 C 0.61476 0.62314 0.33422 0.0
C989 C 0.6306 0.5996 0.31715 0.0
H990 H 0.62531 0.6736 0.35612 0.0
C991 C 0.66959 0.61131 0.30845 0.0
H992 H 0.58495 0.61492 0.34141 0.0
C993 C 0.69255 0.6449 0.31683 0.0
C994 C 0.67745 0.66763 0.33429 0.0
H995 H 0.68282 0.59407 0.2953 0.0
H996 H 0.72267 0.6525 0.30979 0.0
C997 C 0.63802 0.65663 0.34276 0.0
C998 C 0.62546 0.41999 0.55848 0.0
C999 C 0.63719 0.38124 0.56741 0.0
H1000 H 0.58427 0.47314 0.55953 0.0
C1001 C 0.61374 0.36594 0.58464 0.0
H1002 H 0.64263 0.4328 0.5452 0.0
C1003 C 0.5803 0.3895 0.59308 0.0
C1004 C 0.56926 0.42868 0.58436 0.0
H1005 H 0.62199 0.33635 0.59202 0.0
H1006 H 0.56339 0.3772 0.60656 0.0
C1007 C 0.5919 0.44323 0.56675 0.0
C1008 C 0.1699 0.37607 0.30937 0.0
C1009 C 0.13065 0.38758 0.31786 0.0
H1010 H 0.22329 0.33524 0.31103 0.0
C1011 C 0.11474 0.36413 0.33494 0.0
H1012 H 0.1832 0.39324 0.29622 0.0
C1013 C 0.13813 0.33086 0.34366 0.0
C1014 C 0.17778 0.32003 0.33538 0.0
H1015 H 0.08474 0.37221 0.34198 0.0
H1016 H 0.12533 0.31393 0.35701 0.0
C1017 C 0.193 0.34271 0.31793 0.0
C1018 C 0.37752 0.3636 0.08312 0.0
C1019 C 0.35434 0.37902 0.06582 0.0
H1020 H 0.42744 0.37473 0.1053 0.0
C1021 C 0.36614 0.41784 0.05701 0.0
H1022 H 0.3692 0.33395 0.09041 0.0
C1023 C 0.39949 0.44104 0.06549 0.0
C1024 C 0.42185 0.42637 0.08318 0.0
H1025 H 0.34917 0.43075 0.04369 0.0
H1026 H 0.40718 0.47102 0.05836 0.0
C1027 C 0.41075 0.38711 0.09177 0.0
C1028 C 0.29692 0.64925 0.81652 0.0
C1029 C 0.311 0.67147 0.83434 0.0
H1030 H 0.30811 0.59919 0.7947 0.0
C1031 C 0.35014 0.66049 0.84317 0.0
H1032 H 0.26706 0.65686 0.8092 0.0
C1033 C 0.37411 0.62747 0.83463 0.0
C1034 C 0.35927 0.60439 0.81719 0.0
H1035 H 0.36208 0.6771 0.85682 0.0
H1036 H 0.40365 0.61921 0.8421 0.0
C1037 C 0.32057 0.6161 0.80814 0.0
C1038 C 0.09164 0.54458 0.56625 0.0
C1039 C 0.06909 0.5594 0.58383 0.0
H1040 H 0.14222 0.55471 0.54457 0.0
C1041 C 0.08008 0.59872 0.59237 0.0
H1042 H 0.08404 0.51456 0.55916 0.0
C1043 C 0.11342 0.62216 0.58377 0.0
C1044 C 0.1368 0.6066 0.56658 0.0
H1045 H 0.06323 0.61121 0.60582 0.0
H1046 H 0.12165 0.65187 0.59102 0.0
C1047 C 0.12509 0.56772 0.55782 0.0
C1048 C 0.17393 0.6085 0.12671 0.0
C1049 C 0.13499 0.59703 0.11786 0.0
H1050 H 0.22704 0.6497 0.12571 0.0
C1051 C 0.11925 0.62105 0.10093 0.0
H1052 H 0.18708 0.59089 0.13976 0.0
C1053 C 0.14257 0.65476 0.09265 0.0
C1054 C 0.18196 0.66549 0.10124 0.0
H1055 H 0.08949 0.61303 0.09363 0.0
H1056 H 0.12994 0.67208 0.07937 0.0
C1057 C 0.19695 0.64231 0.11859 0.0
C1058 C 0.12602 0.41453 0.87679 0.0
C1059 C 0.14005 0.37763 0.86679 0.0
H1060 H 0.08244 0.46574 0.87692 0.0
C1061 C 0.11802 0.3634 0.84889 0.0
H1062 H 0.142 0.42644 0.89064 0.0
C1063 C 0.08382 0.38644 0.84079 0.0
C1064 C 0.0706 0.42394 0.85056 0.0
H1065 H 0.12805 0.33523 0.84071 0.0
H1066 H 0.0681 0.37516 0.82674 0.0
C1067 C 0.09175 0.43719 0.86887 0.0
C1068 C 0.34846 0.33119 0.59338 0.0
C1069 C 0.3093 0.32021 0.60215 0.0
H1070 H 0.40148 0.37301 0.59424 0.0
C1071 C 0.2947 0.34301 0.61969 0.0
H1072 H 0.3608 0.31416 0.57995 0.0
C1073 C 0.31785 0.37672 0.62783 0.0
C1074 C 0.35654 0.38844 0.61881 0.0
H1075 H 0.2648 0.33542 0.62696 0.0
H1076 H 0.30497 0.39406 0.64103 0.0
C1077 C 0.37192 0.36478 0.60168 0.0
C1078 C 0.40578 0.59847 0.34143 0.0
C1079 C 0.41672 0.55914 0.35002 0.0
H1080 H 0.36397 0.65153 0.34254 0.0
C1081 C 0.39376 0.54422 0.36744 0.0
H1082 H 0.42291 0.61104 0.32809 0.0
C1083 C 0.36002 0.56726 0.37568 0.0
C1084 C 0.34839 0.60616 0.36687 0.0
H1085 H 0.40131 0.51419 0.37457 0.0
H1086 H 0.34263 0.55418 0.38881 0.0
C1087 C 0.37213 0.62181 0.34982 0.0
loop_
_geom_bond_atom_site_label_1
_geom_bond_atom_site_label_2
_geom_bond_distance
_geom_bond_site_symmetry_2
_ccdc_geom_bond_type
Mg0 O1 2.028 . S
Mg0 O7 1.986 . S
Mg0 O9 2.114 1_545 S
Mg0 O10 2.251 1_545 S
Mg0 O13 2.010 . S
O1 Mg0 2.028 . S
O1 C4 1.250 . S
O2 Mg3 2.028 . S
O2 C4 1.248 . S
Mg3 O2 2.028 . S
Mg3 O8 2.032 . S
Mg3 O10 2.079 1_545 S
C4 O1 1.250 . S
C4 O2 1.248 . S
C5 O6 1.264 . S
C5 O13 1.249 . S
O6 C5 1.264 . S
O7 Mg0 1.986 . S
O7 C11 1.246 . S
O8 Mg3 2.032 . S
O8 C11 1.259 . S
O9 Mg0 2.114 1_565 S
O9 C12 1.252 . S
O10 Mg0 2.251 1_565 S
O10 Mg3 2.079 1_565 S
O10 C12 1.273 . S
C11 O7 1.246 . S
C11 O8 1.259 . S
C12 O9 1.252 . S
C12 O10 1.273 . S
O13 Mg0 2.010 . S
O13 C5 1.249 . S
Mg14 O15 2.028 . S
Mg14 O21 1.986 . S
Mg14 O23 2.114 . S
Mg14 O24 2.251 . S
Mg14 O27 2.010 . S
O15 Mg14 2.028 . S
O15 C18 1.250 . S
O16 Mg17 2.028 . S
O16 C18 1.248 . S
Mg17 O16 2.028 . S
Mg17 O22 2.032 . S
Mg17 O24 2.079 . S
C18 O15 1.250 . S
C18 O16 1.248 . S
C19 O20 1.264 . S
C19 O27 1.249 . S
O20 C19 1.264 . S
O21 Mg14 1.986 . S
O21 C25 1.246 . S
O22 Mg17 2.032 . S
O22 C25 1.259 . S
O23 Mg14 2.114 . S
O23 C26 1.252 . S
O24 Mg14 2.251 . S
O24 Mg17 2.079 . S
O24 C26 1.273 . S
C25 O21 1.246 . S
C25 O22 1.259 . S
C26 O23 1.252 . S
C26 O24 1.273 . S
O27 Mg14 2.010 . S
O27 C19 1.249 . S
Mg28 O29 2.028 . S
Mg28 O35 1.986 . S
Mg28 O37 2.114 1_565 S
Mg28 O38 2.251 1_565 S
Mg28 O41 2.010 1_455 S
O29 Mg28 2.028 . S
O29 C32 1.250 . S
O30 Mg31 2.028 . S
O30 C32 1.248 . S
Mg31 O30 2.028 . S
Mg31 O36 2.032 . S
Mg31 O38 2.079 1_565 S
C32 O29 1.250 . S
C32 O30 1.248 . S
C33 O34 1.264 . S
C33 O41 1.249 . S
O34 C33 1.264 . S
O35 Mg28 1.986 . S
O35 C39 1.246 . S
O36 Mg31 2.032 . S
O36 C39 1.259 . S
O37 Mg28 2.114 1_545 S
O37 C40 1.252 . S
O38 Mg28 2.251 1_545 S
O38 Mg31 2.079 1_545 S
O38 C40 1.273 . S
C39 O35 1.246 . S
C39 O36 1.259 . S
C40 O37 1.252 . S
C40 O38 1.273 . S
O41 Mg28 2.010 1_655 S
O41 C33 1.249 . S
Mg42 O43 2.028 . S
Mg42 O49 1.986 . S
Mg42 O51 2.114 . S
Mg42 O52 2.251 . S
Mg42 O55 2.010 . S
O43 Mg42 2.028 . S
O43 C46 1.250 . S
O44 Mg45 2.028 . S
O44 C46 1.248 . S
Mg45 O44 2.028 . S
Mg45 O50 2.032 . S
Mg45 O52 2.079 . S
C46 O43 1.250 . S
C46 O44 1.248 . S
C47 O48 1.264 . S
C47 O55 1.249 . S
O48 C47 1.264 . S
O49 Mg42 1.986 . S
O49 C53 1.246 . S
O50 Mg45 2.032 . S
O50 C53 1.259 . S
O51 Mg42 2.114 . S
O51 C54 1.252 . S
O52 Mg42 2.251 . S
O52 Mg45 2.079 . S
O52 C54 1.273 . S
C53 O49 1.246 . S
C53 O50 1.259 . S
C54 O51 1.252 . S
C54 O52 1.273 . S
O55 Mg42 2.010 . S
O55 C47 1.249 . S
Mg56 O57 2.028 . S
Mg56 O63 1.986 . S
Mg56 O65 2.114 1_565 S
Mg56 O66 2.251 1_565 S
Mg56 O69 2.010 . S
O57 Mg56 2.028 . S
O57 C60 1.250 . S
O58 Mg59 2.028 . S
O58 C60 1.248 . S
Mg59 O58 2.028 . S
Mg59 O64 2.032 . S
Mg59 O66 2.079 1_565 S
C60 O57 1.250 . S
C60 O58 1.248 . S
C61 O62 1.264 . S
C61 O69 1.249 . S
O62 C61 1.264 . S
O63 Mg56 1.986 . S
O63 C67 1.246 . S
O64 Mg59 2.032 . S
O64 C67 1.259 . S
O65 Mg56 2.114 1_545 S
O65 C68 1.252 . S
O66 Mg56 2.251 1_545 S
O66 Mg59 2.079 1_545 S
O66 C68 1.273 . S
C67 O63 1.246 . S
C67 O64 1.259 . S
C68 O65 1.252 . S
C68 O66 1.273 . S
O69 Mg56 2.010 . S
O69 C61 1.249 . S
Mg70 O71 2.028 . S
Mg70 O77 1.986 . S
Mg70 O79 2.114 . S
Mg70 O80 2.251 . S
Mg70 O83 2.010 . S
O71 Mg70 2.028 . S
O71 C74 1.250 . S
O72 Mg73 2.028 . S
O72 C74 1.248 . S
Mg73 O72 2.028 . S
Mg73 O78 2.032 . S
Mg73 O80 2.079 . S
C74 O71 1.250 . S
C74 O72 1.248 . S
C75 O76 1.264 . S
C75 O83 1.249 . S
O76 C75 1.264 . S
O77 Mg70 1.986 . S
O77 C81 1.246 . S
O78 Mg73 2.032 . S
O78 C81 1.259 . S
O79 Mg70 2.114 . S
O79 C82 1.252 . S
O80 Mg70 2.251 . S
O80 Mg73 2.079 . S
O80 C82 1.273 . S
C81 O77 1.246 . S
C81 O78 1.259 . S
C82 O79 1.252 . S
C82 O80 1.273 . S
O83 Mg70 2.010 . S
O83 C75 1.249 . S
Mg84 O85 2.028 . S
Mg84 O91 1.986 . S
Mg84 O93 2.114 1_545 S
Mg84 O94 2.251 1_545 S
Mg84 O97 2.010 1_455 S
O85 Mg84 2.028 . S
O85 C88 1.250 . S
O86 Mg87 2.028 . S
O86 C88 1.248 . S
Mg87 O86 2.028 . S
Mg87 O92 2.032 . S
Mg87 O94 2.079 1_545 S
C88 O85 1.250 . S
C88 O86 1.248 . S
C89 O90 1.264 . S
C89 O97 1.249 . S
O90 C89 1.264 . S
O91 Mg84 1.986 . S
O91 C95 1.246 . S
O92 Mg87 2.032 . S
O92 C95 1.259 . S
O93 Mg84 2.114 1_565 S
O93 C96 1.252 . S
O94 Mg84 2.251 1_565 S
O94 Mg87 2.079 1_565 S
O94 C96 1.273 . S
C95 O91 1.246 . S
C95 O92 1.259 . S
C96 O93 1.252 . S
C96 O94 1.273 . S
O97 Mg84 2.010 1_655 S
O97 C89 1.249 . S
Mg98 O99 2.028 . S
Mg98 O105 1.986 . S
Mg98 O107 2.114 . S
Mg98 O108 2.251 . S
Mg98 O111 2.010 . S
O99 Mg98 2.028 . S
O99 C102 1.250 . S
O100 Mg101 2.028 . S
O100 C102 1.248 . S
Mg101 O100 2.028 . S
Mg101 O106 2.032 . S
Mg101 O108 2.079 . S
C102 O99 1.250 . S
C102 O100 1.248 . S
C103 O104 1.264 . S
C103 O111 1.249 . S
O104 C103 1.264 . S
O105 Mg98 1.986 . S
O105 C109 1.246 . S
O106 Mg101 2.032 . S
O106 C109 1.259 . S
O107 Mg98 2.114 . S
O107 C110 1.252 . S
O108 Mg98 2.251 . S
O108 Mg101 2.079 . S
O108 C110 1.273 . S
C109 O105 1.246 . S
C109 O106 1.259 . S
C110 O107 1.252 . S
C110 O108 1.273 . S
O111 Mg98 2.010 . S
O111 C103 1.249 . S
Mg112 O113 2.028 . S
Mg112 O119 1.986 . S
Mg112 O121 2.114 1_565 S
Mg112 O122 2.251 1_565 S
Mg112 O125 2.010 . S
O113 Mg112 2.028 . S
O113 C116 1.250 . S
O114 Mg115 2.028 . S
O114 C116 1.248 . S
Mg115 O114 2.028 . S
Mg115 O120 2.032 . S
Mg115 O122 2.079 1_565 S
C116 O113 1.250 . S
C116 O114 1.248 . S
C117 O118 1.264 . S
C117 O125 1.249 . S
O118 C117 1.264 . S
O119 Mg112 1.986 . S
O119 C123 1.246 . S
O120 Mg115 2.032 . S
O120 C123 1.259 . S
O121 Mg112 2.114 1_545 S
O121 C124 1.252 . S
O122 Mg112 2.251 1_545 S
O122 Mg115 2.079 1_545 S
O122 C124 1.273 . S
C123 O119 1.246 . S
C123 O120 1.259 . S
C124 O121 1.252 . S
C124 O122 1.273 . S
O125 Mg112 2.010 . S
O125 C117 1.249 . S
Mg126 O127 2.028 . S
Mg126 O133 1.986 . S
Mg126 O135 2.114 . S
Mg126 O136 2.251 . S
Mg126 O139 2.010 . S
O127 Mg126 2.028 . S
O127 C130 1.250 . S
O128 Mg129 2.028 . S
O128 C130 1.248 . S
Mg129 O128 2.028 . S
Mg129 O134 2.032 . S
Mg129 O136 2.079 . S
C130 O127 1.250 . S
C130 O128 1.248 . S
C131 O132 1.264 . S
C131 O139 1.249 . S
O132 C131 1.264 . S
O133 Mg126 1.986 . S
O133 C137 1.246 . S
O134 Mg129 2.032 . S
O134 C137 1.259 . S
O135 Mg126 2.114 . S
O135 C138 1.252 . S
O136 Mg126 2.251 . S
O136 Mg129 2.079 . S
O136 C138 1.273 . S
C137 O133 1.246 . S
C137 O134 1.259 . S
C138 O135 1.252 . S
C138 O136 1.273 . S
O139 Mg126 2.010 . S
O139 C131 1.249 . S
Mg140 O141 2.028 . S
Mg140 O147 1.986 . S
Mg140 O149 2.114 1_545 S
Mg140 O150 2.251 1_545 S
Mg140 O153 2.010 1_655 S
O141 Mg140 2.028 . S
O141 C144 1.250 . S
O142 Mg143 2.028 . S
O142 C144 1.248 . S
Mg143 O142 2.028 . S
Mg143 O148 2.032 . S
Mg143 O150 2.079 1_545 S
C144 O141 1.250 . S
C144 O142 1.248 . S
C145 O146 1.264 . S
C145 O153 1.249 . S
O146 C145 1.264 . S
O147 Mg140 1.986 . S
O147 C151 1.246 . S
O148 Mg143 2.032 . S
O148 C151 1.259 . S
O149 Mg140 2.114 1_565 S
O149 C152 1.252 . S
O150 Mg140 2.251 1_565 S
O150 Mg143 2.079 1_565 S
O150 C152 1.273 . S
C151 O147 1.246 . S
C151 O148 1.259 . S
C152 O149 1.252 . S
C152 O150 1.273 . S
O153 Mg140 2.010 1_455 S
O153 C145 1.249 . S
Mg154 O155 2.028 . S
Mg154 O161 1.986 . S
Mg154 O163 2.114 . S
Mg154 O164 2.251 . S
Mg154 O167 2.010 . S
O155 Mg154 2.028 . S
O155 C158 1.250 . S
O156 Mg157 2.028 . S
O156 C158 1.248 . S
Mg157 O156 2.028 . S
Mg157 O162 2.032 . S
Mg157 O164 2.079 . S
C158 O155 1.250 . S
C158 O156 1.248 . S
C159 O160 1.264 . S
C159 O167 1.249 . S
O160 C159 1.264 . S
O161 Mg154 1.986 . S
O161 C165 1.246 . S
O162 Mg157 2.032 . S
O162 C165 1.259 . S
O163 Mg154 2.114 . S
O163 C166 1.252 . S
O164 Mg154 2.251 . S
O164 Mg157 2.079 . S
O164 C166 1.273 . S
C165 O161 1.246 . S
C165 O162 1.259 . S
C166 O163 1.252 . S
C166 O164 1.273 . S
O167 Mg154 2.010 . S
O167 C159 1.249 . S
Mg168 O169 2.028 . S
Mg168 O175 1.986 . S
Mg168 O177 2.114 1_545 S
Mg168 O178 2.251 1_545 S
Mg168 O181 2.010 . S
O169 Mg168 2.028 . S
O169 C172 1.250 . S
O170 Mg171 2.028 . S
O170 C172 1.248 . S
Mg171 O170 2.028 . S
Mg171 O176 2.032 . S
Mg171 O178 2.079 1_545 S
C172 O169 1.250 . S
C172 O170 1.248 . S
C173 O174 1.264 . S
C173 O181 1.249 . S
O174 C173 1.264 . S
O175 Mg168 1.986 . S
O175 C179 1.246 . S
O176 Mg171 2.032 . S
O176 C179 1.259 . S
O177 Mg168 2.114 1_565 S
O177 C180 1.252 . S
O178 Mg168 2.251 1_565 S
O178 Mg171 2.079 1_565 S
O178 C180 1.273 . S
C179 O175 1.246 . S
C179 O176 1.259 . S
C180 O177 1.252 . S
C180 O178 1.273 . S
O181 Mg168 2.010 . S
O181 C173 1.249 . S
Mg182 O183 2.028 . S
Mg182 O189 1.986 . S
Mg182 O191 2.114 . S
Mg182 O192 2.251 . S
Mg182 O195 2.010 . S
O183 Mg182 2.028 . S
O183 C186 1.250 . S
O184 Mg185 2.028 . S
O184 C186 1.248 . S
Mg185 O184 2.028 . S
Mg185 O190 2.032 . S
Mg185 O192 2.079 . S
C186 O183 1.250 . S
C186 O184 1.248 . S
C187 O188 1.264 . S
C187 O195 1.249 . S
O188 C187 1.264 . S
O189 Mg182 1.986 . S
O189 C193 1.246 . S
O190 Mg185 2.032 . S
O190 C193 1.259 . S
O191 Mg182 2.114 . S
O191 C194 1.252 . S
O192 Mg182 2.251 . S
O192 Mg185 2.079 . S
O192 C194 1.273 . S
C193 O189 1.246 . S
C193 O190 1.259 . S
C194 O191 1.252 . S
C194 O192 1.273 . S
O195 Mg182 2.010 . S
O195 C187 1.249 . S
Mg196 O197 2.028 . S
Mg196 O203 1.986 . S
Mg196 O205 2.114 1_565 S
Mg196 O206 2.251 1_565 S
Mg196 O209 2.010 1_655 S
O197 Mg196 2.028 . S
O197 C200 1.250 . S
O198 Mg199 2.028 . S
O198 C200 1.248 . S
Mg199 O198 2.028 . S
Mg199 O204 2.032 . S
Mg199 O206 2.079 1_565 S
C200 O197 1.250 . S
C200 O198 1.248 . S
C201 O202 1.264 . S
C201 O209 1.249 . S
O202 C201 1.264 . S
O203 Mg196 1.986 . S
O203 C207 1.246 . S
O204 Mg199 2.032 . S
O204 C207 1.259 . S
O205 Mg196 2.114 1_545 S
O205 C208 1.252 . S
O206 Mg196 2.251 1_545 S
O206 Mg199 2.079 1_545 S
O206 C208 1.273 . S
C207 O203 1.246 . S
C207 O204 1.259 . S
C208 O205 1.252 . S
C208 O206 1.273 . S
O209 Mg196 2.010 1_455 S
O209 C201 1.249 . S
Mg210 O211 2.028 . S
Mg210 O217 1.986 . S
Mg210 O219 2.114 . S
Mg210 O220 2.251 . S
Mg210 O223 2.010 . S
O211 Mg210 2.028 . S
O211 C214 1.250 . S
O212 Mg213 2.028 . S
O212 C214 1.248 . S
Mg213 O212 2.028 . S
Mg213 O218 2.032 . S
Mg213 O220 2.079 . S
C214 O211 1.250 . S
C214 O212 1.248 . S
C215 O216 1.264 . S
C215 O223 1.249 . S
O216 C215 1.264 . S
O217 Mg210 1.986 . S
O217 C221 1.246 . S
O218 Mg213 2.032 . S
O218 C221 1.259 . S
O219 Mg210 2.114 . S
O219 C222 1.252 . S
O220 Mg210 2.251 . S
O220 Mg213 2.079 . S
O220 C222 1.273 . S
C221 O217 1.246 . S
C221 O218 1.259 . S
C222 O219 1.252 . S
C222 O220 1.273 . S
O223 Mg210 2.010 . S
O223 C215 1.249 . S
Mg224 O225 2.028 . S
Mg224 O231 1.986 . S
Mg224 O233 2.114 . S
Mg224 O234 2.251 . S
Mg224 O237 2.010 1_655 S
O225 Mg224 2.028 . S
O225 C228 1.250 . S
O226 Mg227 2.028 . S
O226 C228 1.248 . S
Mg227 O226 2.028 . S
Mg227 O232 2.032 . S
Mg227 O234 2.079 . S
C228 O225 1.250 . S
C228 O226 1.248 . S
C229 O230 1.264 . S
C229 O237 1.249 . S
O230 C229 1.264 . S
O231 Mg224 1.986 . S
O231 C235 1.246 . S
O232 Mg227 2.032 . S
O232 C235 1.259 . S
O233 Mg224 2.114 . S
O233 C236 1.252 . S
O234 Mg224 2.251 . S
O234 Mg227 2.079 . S
O234 C236 1.273 . S
C235 O231 1.246 . S
C235 O232 1.259 . S
C236 O233 1.252 . S
C236 O234 1.273 . S
O237 Mg224 2.010 1_455 S
O237 C229 1.249 . S
Mg238 O239 2.028 . S
Mg238 O245 1.986 . S
Mg238 O247 2.114 . S
Mg238 O248 2.251 . S
Mg238 O251 2.010 . S
O239 Mg238 2.028 . S
O239 C242 1.250 . S
O240 Mg241 2.028 . S
O240 C242 1.248 . S
Mg241 O240 2.028 . S
Mg241 O246 2.032 . S
Mg241 O248 2.079 . S
C242 O239 1.250 . S
C242 O240 1.248 . S
C243 O244 1.264 . S
C243 O251 1.249 . S
O244 C243 1.264 . S
O245 Mg238 1.986 . S
O245 C249 1.246 . S
O246 Mg241 2.032 . S
O246 C249 1.259 . S
O247 Mg238 2.114 . S
O247 C250 1.252 . S
O248 Mg238 2.251 . S
O248 Mg241 2.079 . S
O248 C250 1.273 . S
C249 O245 1.246 . S
C249 O246 1.259 . S
C250 O247 1.252 . S
C250 O248 1.273 . S
O251 Mg238 2.010 . S
O251 C243 1.249 . S
Mg252 O253 2.028 . S
Mg252 O259 1.986 . S
Mg252 O261 2.114 . S
Mg252 O262 2.251 . S
Mg252 O265 2.010 . S
O253 Mg252 2.028 . S
O253 C256 1.250 . S
O254 Mg255 2.028 . S
O254 C256 1.248 . S
Mg255 O254 2.028 . S
Mg255 O260 2.032 . S
Mg255 O262 2.079 . S
C256 O253 1.250 . S
C256 O254 1.248 . S
C257 O258 1.264 . S
C257 O265 1.249 . S
O258 C257 1.264 . S
O259 Mg252 1.986 . S
O259 C263 1.246 . S
O260 Mg255 2.032 . S
O260 C263 1.259 . S
O261 Mg252 2.114 . S
O261 C264 1.252 . S
O262 Mg252 2.251 . S
O262 Mg255 2.079 . S
O262 C264 1.273 . S
C263 O259 1.246 . S
C263 O260 1.259 . S
C264 O261 1.252 . S
C264 O262 1.273 . S
O265 Mg252 2.010 . S
O265 C257 1.249 . S
Mg266 O267 2.028 . S
Mg266 O273 1.986 . S
Mg266 O275 2.114 . S
Mg266 O276 2.251 . S
Mg266 O279 2.010 . S
O267 Mg266 2.028 . S
O267 C270 1.250 . S
O268 Mg269 2.028 . S
O268 C270 1.248 . S
Mg269 O268 2.028 . S
Mg269 O274 2.032 . S
Mg269 O276 2.079 . S
C270 O267 1.250 . S
C270 O268 1.248 . S
C271 O272 1.264 . S
C271 O279 1.249 . S
O272 C271 1.264 . S
O273 Mg266 1.986 . S
O273 C277 1.246 . S
O274 Mg269 2.032 . S
O274 C277 1.259 . S
O275 Mg266 2.114 . S
O275 C278 1.252 . S
O276 Mg266 2.251 . S
O276 Mg269 2.079 . S
O276 C278 1.273 . S
C277 O273 1.246 . S
C277 O274 1.259 . S
C278 O275 1.252 . S
C278 O276 1.273 . S
O279 Mg266 2.010 . S
O279 C271 1.249 . S
Mg280 O281 2.028 . S
Mg280 O287 1.986 . S
Mg280 O289 2.114 . S
Mg280 O290 2.251 . S
Mg280 O293 2.010 1_655 S
O281 Mg280 2.028 . S
O281 C284 1.250 . S
O282 Mg283 2.028 . S
O282 C284 1.248 . S
Mg283 O282 2.028 . S
Mg283 O288 2.032 . S
Mg283 O290 2.079 . S
C284 O281 1.250 . S
C284 O282 1.248 . S
C285 O286 1.264 . S
C285 O293 1.249 . S
O286 C285 1.264 . S
O287 Mg280 1.986 . S
O287 C291 1.246 . S
O288 Mg283 2.032 . S
O288 C291 1.259 . S
O289 Mg280 2.114 . S
O289 C292 1.252 . S
O290 Mg280 2.251 . S
O290 Mg283 2.079 . S
O290 C292 1.273 . S
C291 O287 1.246 . S
C291 O288 1.259 . S
C292 O289 1.252 . S
C292 O290 1.273 . S
O293 Mg280 2.010 1_455 S
O293 C285 1.249 . S
Mg294 O295 2.028 . S
Mg294 O301 1.986 . S
Mg294 O303 2.114 . S
Mg294 O304 2.251 . S
Mg294 O307 2.010 . S
O295 Mg294 2.028 . S
O295 C298 1.250 . S
O296 Mg297 2.028 . S
O296 C298 1.248 . S
Mg297 O296 2.028 . S
Mg297 O302 2.032 . S
Mg297 O304 2.079 . S
C298 O295 1.250 . S
C298 O296 1.248 . S
C299 O300 1.264 . S
C299 O307 1.249 . S
O300 C299 1.264 . S
O301 Mg294 1.986 . S
O301 C305 1.246 . S
O302 Mg297 2.032 . S
O302 C305 1.259 . S
O303 Mg294 2.114 . S
O303 C306 1.252 . S
O304 Mg294 2.251 . S
O304 Mg297 2.079 . S
O304 C306 1.273 . S
C305 O301 1.246 . S
C305 O302 1.259 . S
C306 O303 1.252 . S
C306 O304 1.273 . S
O307 Mg294 2.010 . S
O307 C299 1.249 . S
Mg308 O309 2.028 . S
Mg308 O315 1.986 . S
Mg308 O317 2.114 . S
Mg308 O318 2.251 . S
Mg308 O321 2.010 . S
O309 Mg308 2.028 . S
O309 C312 1.250 . S
O310 Mg311 2.028 . S
O310 C312 1.248 . S
Mg311 O310 2.028 . S
Mg311 O316 2.032 . S
Mg311 O318 2.079 . S
C312 O309 1.250 . S
C312 O310 1.248 . S
C313 O314 1.264 . S
C313 O321 1.249 . S
O314 C313 1.264 . S
O315 Mg308 1.986 . S
O315 C319 1.246 . S
O316 Mg311 2.032 . S
O316 C319 1.259 . S
O317 Mg308 2.114 . S
O317 C320 1.252 . S
O318 Mg308 2.251 . S
O318 Mg311 2.079 . S
O318 C320 1.273 . S
C319 O315 1.246 . S
C319 O316 1.259 . S
C320 O317 1.252 . S
C320 O318 1.273 . S
O321 Mg308 2.010 . S
O321 C313 1.249 . S
Mg322 O323 2.028 . S
Mg322 O329 1.986 . S
Mg322 O331 2.114 . S
Mg322 O332 2.251 . S
Mg322 O335 2.010 . S
O323 Mg322 2.028 . S
O323 C326 1.250 . S
O324 Mg325 2.028 . S
O324 C326 1.248 . S
Mg325 O324 2.028 . S
Mg325 O330 2.032 . S
Mg325 O332 2.079 . S
C326 O323 1.250 . S
C326 O324 1.248 . S
C327 O328 1.264 . S
C327 O335 1.249 . S
O328 C327 1.264 . S
O329 Mg322 1.986 . S
O329 C333 1.246 . S
O330 Mg325 2.032 . S
O330 C333 1.259 . S
O331 Mg322 2.114 . S
O331 C334 1.252 . S
O332 Mg322 2.251 . S
O332 Mg325 2.079 . S
O332 C334 1.273 . S
C333 O329 1.246 . S
C333 O330 1.259 . S
C334 O331 1.252 . S
C334 O332 1.273 . S
O335 Mg322 2.010 . S
O335 C327 1.249 . S
Mg336 O337 2.028 . S
Mg336 O343 1.986 . S
Mg336 O345 2.114 . S
Mg336 O346 2.251 . S
Mg336 O349 2.010 1_455 S
O337 Mg336 2.028 . S
O337 C340 1.250 . S
O338 Mg339 2.028 . S
O338 C340 1.248 . S
Mg339 O338 2.028 . S
Mg339 O344 2.032 . S
Mg339 O346 2.079 . S
C340 O337 1.250 . S
C340 O338 1.248 . S
C341 O342 1.264 . S
C341 O349 1.249 . S
O342 C341 1.264 . S
O343 Mg336 1.986 . S
O343 C347 1.246 . S
O344 Mg339 2.032 . S
O344 C347 1.259 . S
O345 Mg336 2.114 . S
O345 C348 1.252 . S
O346 Mg336 2.251 . S
O346 Mg339 2.079 . S
O346 C348 1.273 . S
C347 O343 1.246 . S
C347 O344 1.259 . S
C348 O345 1.252 . S
C348 O346 1.273 . S
O349 Mg336 2.010 1_655 S
O349 C341 1.249 . S
Mg350 O351 2.028 . S
Mg350 O357 1.986 . S
Mg350 O359 2.114 . S
Mg350 O360 2.251 . S
Mg350 O363 2.010 . S
O351 Mg350 2.028 . S
O351 C354 1.250 . S
O352 Mg353 2.028 . S
O352 C354 1.248 . S
Mg353 O352 2.028 . S
Mg353 O358 2.032 . S
Mg353 O360 2.079 . S
C354 O351 1.250 . S
C354 O352 1.248 . S
C355 O356 1.264 . S
C355 O363 1.249 . S
O356 C355 1.264 . S
O357 Mg350 1.986 . S
O357 C361 1.246 . S
O358 Mg353 2.032 . S
O358 C361 1.259 . S
O359 Mg350 2.114 . S
O359 C362 1.252 . S
O360 Mg350 2.251 . S
O360 Mg353 2.079 . S
O360 C362 1.273 . S
C361 O357 1.246 . S
C361 O358 1.259 . S
C362 O359 1.252 . S
C362 O360 1.273 . S
O363 Mg350 2.010 . S
O363 C355 1.249 . S
Mg364 O365 2.028 . S
Mg364 O371 1.986 . S
Mg364 O373 2.114 . S
Mg364 O374 2.251 . S
Mg364 O377 2.010 . S
O365 Mg364 2.028 . S
O365 C368 1.250 . S
O366 Mg367 2.028 . S
O366 C368 1.248 . S
Mg367 O366 2.028 . S
Mg367 O372 2.032 . S
Mg367 O374 2.079 . S
C368 O365 1.250 . S
C368 O366 1.248 . S
C369 O370 1.264 . S
C369 O377 1.249 . S
O370 C369 1.264 . S
O371 Mg364 1.986 . S
O371 C375 1.246 . S
O372 Mg367 2.032 . S
O372 C375 1.259 . S
O373 Mg364 2.114 . S
O373 C376 1.252 . S
O374 Mg364 2.251 . S
O374 Mg367 2.079 . S
O374 C376 1.273 . S
C375 O371 1.246 . S
C375 O372 1.259 . S
C376 O373 1.252 . S
C376 O374 1.273 . S
O377 Mg364 2.010 . S
O377 C369 1.249 . S
Mg378 O379 2.028 . S
Mg378 O385 1.986 . S
Mg378 O387 2.114 . S
Mg378 O388 2.251 . S
Mg378 O391 2.010 . S
O379 Mg378 2.028 . S
O379 C382 1.250 . S
O380 Mg381 2.028 . S
O380 C382 1.248 . S
Mg381 O380 2.028 . S
Mg381 O386 2.032 . S
Mg381 O388 2.079 . S
C382 O379 1.250 . S
C382 O380 1.248 . S
C383 O384 1.264 . S
C383 O391 1.249 . S
O384 C383 1.264 . S
O385 Mg378 1.986 . S
O385 C389 1.246 . S
O386 Mg381 2.032 . S
O386 C389 1.259 . S
O387 Mg378 2.114 . S
O387 C390 1.252 . S
O388 Mg378 2.251 . S
O388 Mg381 2.079 . S
O388 C390 1.273 . S
C389 O385 1.246 . S
C389 O386 1.259 . S
C390 O387 1.252 . S
C390 O388 1.273 . S
O391 Mg378 2.010 . S
O391 C383 1.249 . S
Mg392 O393 2.028 . S
Mg392 O399 1.986 . S
Mg392 O401 2.114 . S
Mg392 O402 2.251 . S
Mg392 O405 2.010 1_455 S
O393 Mg392 2.028 . S
O393 C396 1.250 . S
O394 Mg395 2.028 . S
O394 C396 1.248 . S
Mg395 O394 2.028 . S
Mg395 O400 2.032 . S
Mg395 O402 2.079 . S
C396 O393 1.250 . S
C396 O394 1.248 . S
C397 O398 1.264 . S
C397 O405 1.249 . S
O398 C397 1.264 . S
O399 Mg392 1.986 . S
O399 C403 1.246 . S
O400 Mg395 2.032 . S
O400 C403 1.259 . S
O401 Mg392 2.114 . S
O401 C404 1.252 . S
O402 Mg392 2.251 . S
O402 Mg395 2.079 . S
O402 C404 1.273 . S
C403 O399 1.246 . S
C403 O400 1.259 . S
C404 O401 1.252 . S
C404 O402 1.273 . S
O405 Mg392 2.010 1_655 S
O405 C397 1.249 . S
Mg406 O407 2.028 . S
Mg406 O413 1.986 . S
Mg406 O415 2.114 . S
Mg406 O416 2.251 . S
Mg406 O419 2.010 . S
O407 Mg406 2.028 . S
O407 C410 1.250 . S
O408 Mg409 2.028 . S
O408 C410 1.248 . S
Mg409 O408 2.028 . S
Mg409 O414 2.032 . S
Mg409 O416 2.079 . S
C410 O407 1.250 . S
C410 O408 1.248 . S
C411 O412 1.264 . S
C411 O419 1.249 . S
O412 C411 1.264 . S
O413 Mg406 1.986 . S
O413 C417 1.246 . S
O414 Mg409 2.032 . S
O414 C417 1.259 . S
O415 Mg406 2.114 . S
O415 C418 1.252 . S
O416 Mg406 2.251 . S
O416 Mg409 2.079 . S
O416 C418 1.273 . S
C417 O413 1.246 . S
C417 O414 1.259 . S
C418 O415 1.252 . S
C418 O416 1.273 . S
O419 Mg406 2.010 . S
O419 C411 1.249 . S
Mg420 O421 2.028 . S
Mg420 O427 1.986 . S
Mg420 O429 2.114 . S
Mg420 O430 2.251 . S
Mg420 O433 2.010 . S
O421 Mg420 2.028 . S
O421 C424 1.250 . S
O422 Mg423 2.028 . S
O422 C424 1.248 . S
Mg423 O422 2.028 . S
Mg423 O428 2.032 . S
Mg423 O430 2.079 . S
C424 O421 1.250 . S
C424 O422 1.248 . S
C425 O426 1.264 . S
C425 O433 1.249 . S
O426 C425 1.264 . S
O427 Mg420 1.986 . S
O427 C431 1.246 . S
O428 Mg423 2.032 . S
O428 C431 1.259 . S
O429 Mg420 2.114 . S
O429 C432 1.252 . S
O430 Mg420 2.251 . S
O430 Mg423 2.079 . S
O430 C432 1.273 . S
C431 O427 1.246 . S
C431 O428 1.259 . S
C432 O429 1.252 . S
C432 O430 1.273 . S
O433 Mg420 2.010 . S
O433 C425 1.249 . S
Mg434 O435 2.028 . S
Mg434 O441 1.986 . S
Mg434 O443 2.114 . S
Mg434 O444 2.251 . S
Mg434 O447 2.010 . S
O435 Mg434 2.028 . S
O435 C438 1.250 . S
O436 Mg437 2.028 . S
O436 C438 1.248 . S
Mg437 O436 2.028 . S
Mg437 O442 2.032 . S
Mg437 O444 2.079 . S
C438 O435 1.250 . S
C438 O436 1.248 . S
C439 O440 1.264 . S
C439 O447 1.249 . S
O440 C439 1.264 . S
O441 Mg434 1.986 . S
O441 C445 1.246 . S
O442 Mg437 2.032 . S
O442 C445 1.259 . S
O443 Mg434 2.114 . S
O443 C446 1.252 . S
O444 Mg434 2.251 . S
O444 Mg437 2.079 . S
O444 C446 1.273 . S
C445 O441 1.246 . S
C445 O442 1.259 . S
C446 O443 1.252 . S
C446 O444 1.273 . S
O447 Mg434 2.010 . S
O447 C439 1.249 . S
C448 C449 1.387 . S
C448 H452 0.950 . S
C448 C457 1.390 1_565 S
C449 C448 1.387 . S
C449 C451 1.387 . S
H450 C457 0.950 . S
C451 C449 1.387 . S
C451 C453 1.390 1_565 S
C451 H455 0.950 . S
H452 C448 0.950 . S
C453 C451 1.390 1_545 S
C453 C454 1.387 . S
C453 H456 0.950 . S
C454 C453 1.387 . S
C454 C457 1.387 . S
H455 C451 0.950 . S
H456 C453 0.950 . S
C457 C448 1.390 1_545 S
C457 H450 0.950 . S
C457 C454 1.387 . S
C458 C459 1.387 . S
C458 H462 0.950 . S
C458 C467 1.390 . S
C459 C458 1.387 . S
C459 C461 1.387 . S
H460 C467 0.950 . S
C461 C459 1.387 . S
C461 C463 1.390 . S
C461 H465 0.950 . S
H462 C458 0.950 . S
C463 C461 1.390 . S
C463 C464 1.387 . S
C463 H466 0.950 . S
C464 C463 1.387 . S
C464 C467 1.387 . S
H465 C461 0.950 . S
H466 C463 0.950 . S
C467 C458 1.390 . S
C467 H460 0.950 . S
C467 C464 1.387 . S
C468 C469 1.387 . S
C468 H472 0.950 . S
C468 C477 1.390 1_545 S
C469 C468 1.387 . S
C469 C471 1.387 . S
H470 C477 0.950 . S
C471 C469 1.387 . S
C471 C473 1.390 1_545 S
C471 H475 0.950 . S
H472 C468 0.950 . S
C473 C471 1.390 1_565 S
C473 C474 1.387 . S
C473 H476 0.950 . S
C474 C473 1.387 . S
C474 C477 1.387 . S
H475 C471 0.950 . S
H476 C473 0.950 . S
C477 C468 1.390 1_565 S
C477 H470 0.950 . S
C477 C474 1.387 . S
C478 C479 1.387 . S
C478 H482 0.950 . S
C478 C487 1.390 1_556 S
C479 C478 1.387 . S
C479 C481 1.387 . S
H480 C487 0.950 . S
C481 C479 1.387 . S
C481 C483 1.390 1_556 S
C481 H485 0.950 . S
H482 C478 0.950 . S
C483 C481 1.390 1_554 S
C483 C484 1.387 . S
C483 H486 0.950 . S
C484 C483 1.387 . S
C484 C487 1.387 . S
H485 C481 0.950 . S
H486 C483 0.950 . S
C487 C478 1.390 1_554 S
C487 H480 0.950 . S
C487 C484 1.387 . S
C488 C489 1.387 . S
C488 H492 0.950 . S
C488 C497 1.390 1_565 S
C489 C488 1.387 . S
C489 C491 1.387 . S
H490 C497 0.950 . S
C491 C489 1.387 . S
C491 C493 1.390 1_565 S
C491 H495 0.950 . S
H492 C488 0.950 . S
C493 C491 1.390 1_545 S
C493 C494 1.387 . S
C493 H496 0.950 . S
C494 C493 1.387 . S
C494 C497 1.387 . S
H495 C491 0.950 . S
H496 C493 0.950 . S
C497 C488 1.390 1_545 S
C497 H490 0.950 . S
C497 C494 1.387 . S
C498 C499 1.387 . S
C498 H502 0.950 . S
C498 C507 1.390 . S
C499 C498 1.387 . S
C499 C501 1.387 . S
H500 C507 0.950 . S
C501 C499 1.387 . S
C501 C503 1.390 . S
C501 H505 0.950 . S
H502 C498 0.950 . S
C503 C501 1.390 . S
C503 C504 1.387 . S
C503 H506 0.950 . S
C504 C503 1.387 . S
C504 C507 1.387 . S
H505 C501 0.950 . S
H506 C503 0.950 . S
C507 C498 1.390 . S
C507 H500 0.950 . S
C507 C504 1.387 . S
C508 C509 1.387 . S
C508 H512 0.950 . S
C508 C517 1.390 1_545 S
C509 C508 1.387 . S
C509 C511 1.387 . S
H510 C517 0.950 . S
C511 C509 1.387 . S
C511 C513 1.390 1_545 S
C511 H515 0.950 . S
H512 C508 0.950 . S
C513 C511 1.390 1_565 S
C513 C514 1.387 . S
C513 H516 0.950 . S
C514 C513 1.387 . S
C514 C517 1.387 . S
H515 C511 0.950 . S
H516 C513 0.950 . S
C517 C508 1.390 1_565 S
C517 H510 0.950 . S
C517 C514 1.387 . S
C518 C519 1.387 . S
C518 H522 0.950 . S
C518 C527 1.390 1_556 S
C519 C518 1.387 . S
C519 C521 1.387 . S
H520 C527 0.950 . S
C521 C519 1.387 . S
C521 C523 1.390 1_556 S
C521 H525 0.950 . S
H522 C518 0.950 . S
C523 C521 1.390 1_554 S
C523 C524 1.387 . S
C523 H526 0.950 . S
C524 C523 1.387 . S
C524 C527 1.387 . S
H525 C521 0.950 . S
H526 C523 0.950 . S
C527 C518 1.390 1_554 S
C527 H520 0.950 . S
C527 C524 1.387 . S
C528 C529 1.387 . S
C528 H532 0.950 . S
C528 C537 1.390 . S
C529 C528 1.387 . S
C529 C531 1.387 . S
H530 C537 0.950 . S
C531 C529 1.387 . S
C531 C533 1.390 . S
C531 H535 0.950 . S
H532 C528 0.950 . S
C533 C531 1.390 . S
C533 C534 1.387 . S
C533 H536 0.950 . S
C534 C533 1.387 . S
C534 C537 1.387 . S
H535 C531 0.950 . S
H536 C533 0.950 . S
C537 C528 1.390 . S
C537 H530 0.950 . S
C537 C534 1.387 . S
C538 C539 1.387 . S
C538 H542 0.950 . S
C538 C547 1.390 1_554 S
C539 C538 1.387 . S
C539 C541 1.387 . S
H540 C547 0.950 . S
C541 C539 1.387 . S
C541 C543 1.390 1_554 S
C541 H545 0.950 . S
H542 C538 0.950 . S
C543 C541 1.390 1_556 S
C543 C544 1.387 . S
C543 H546 0.950 . S
C544 C543 1.387 . S
C544 C547 1.387 . S
H545 C541 0.950 . S
H546 C543 0.950 . S
C547 C538 1.390 1_556 S
C547 H540 0.950 . S
C547 C544 1.387 . S
C548 C549 1.387 . S
C548 H552 0.950 . S
C548 C557 1.390 . S
C549 C548 1.387 . S
C549 C551 1.387 . S
H550 C557 0.950 . S
C551 C549 1.387 . S
C551 C553 1.390 . S
C551 H555 0.950 . S
H552 C548 0.950 . S
C553 C551 1.390 . S
C553 C554 1.387 . S
C553 H556 0.950 . S
C554 C553 1.387 . S
C554 C557 1.387 . S
H555 C551 0.950 . S
H556 C553 0.950 . S
C557 C548 1.390 . S
C557 H550 0.950 . S
C557 C554 1.387 . S
C558 C559 1.387 . S
C558 H562 0.950 . S
C558 C567 1.390 . S
C559 C558 1.387 . S
C559 C561 1.387 . S
H560 C567 0.950 . S
C561 C559 1.387 . S
C561 C563 1.390 . S
C561 H565 0.950 . S
H562 C558 0.950 . S
C563 C561 1.390 . S
C563 C564 1.387 . S
C563 H566 0.950 . S
C564 C563 1.387 . S
C564 C567 1.387 . S
H565 C561 0.950 . S
H566 C563 0.950 . S
C567 C558 1.390 . S
C567 H560 0.950 . S
C567 C564 1.387 . S
C568 C569 1.387 . S
C568 H572 0.950 . S
C568 C577 1.390 . S
C569 C568 1.387 . S
C569 C571 1.387 . S
H570 C577 0.950 . S
C571 C569 1.387 . S
C571 C573 1.390 . S
C571 H575 0.950 . S
H572 C568 0.950 . S
C573 C571 1.390 . S
C573 C574 1.387 . S
C573 H576 0.950 . S
C574 C573 1.387 . S
C574 C577 1.387 . S
H575 C571 0.950 . S
H576 C573 0.950 . S
C577 C568 1.390 . S
C577 H570 0.950 . S
C577 C574 1.387 . S
C578 C579 1.387 . S
C578 H582 0.950 . S
C578 C587 1.390 1_554 S
C579 C578 1.387 . S
C579 C581 1.387 . S
H580 C587 0.950 . S
C581 C579 1.387 . S
C581 C583 1.390 1_554 S
C581 H585 0.950 . S
H582 C578 0.950 . S
C583 C581 1.390 1_556 S
C583 C584 1.387 . S
C583 H586 0.950 . S
C584 C583 1.387 . S
C584 C587 1.387 . S
H585 C581 0.950 . S
H586 C583 0.950 . S
C587 C578 1.390 1_556 S
C587 H580 0.950 . S
C587 C584 1.387 . S
C588 C589 1.387 . S
C588 H592 0.950 . S
C588 C597 1.390 . S
C589 C588 1.387 . S
C589 C591 1.387 . S
H590 C597 0.950 . S
C591 C589 1.387 . S
C591 C593 1.390 . S
C591 H595 0.950 . S
H592 C588 0.950 . S
C593 C591 1.390 . S
C593 C594 1.387 . S
C593 H596 0.950 . S
C594 C593 1.387 . S
C594 C597 1.387 . S
H595 C591 0.950 . S
H596 C593 0.950 . S
C597 C588 1.390 . S
C597 H590 0.950 . S
C597 C594 1.387 . S
C598 C599 1.387 . S
C598 H602 0.950 . S
C598 C607 1.390 . S
C599 C598 1.387 . S
C599 C601 1.387 . S
H600 C607 0.950 . S
C601 C599 1.387 . S
C601 C603 1.390 . S
C601 H605 0.950 . S
H602 C598 0.950 . S
C603 C601 1.390 . S
C603 C604 1.387 . S
C603 H606 0.950 . S
C604 C603 1.387 . S
C604 C607 1.387 . S
H605 C601 0.950 . S
H606 C603 0.950 . S
C607 C598 1.390 . S
C607 H600 0.950 . S
C607 C604 1.387 . S
C608 C609 1.387 . S
C608 H612 0.950 . S
C608 C617 1.390 . S
C609 C608 1.387 . S
C609 C611 1.387 . S
H610 C617 0.950 . S
C611 C609 1.387 . S
C611 C613 1.390 . S
C611 H615 0.950 . S
H612 C608 0.950 . S
C613 C611 1.390 . S
C613 C614 1.387 . S
C613 H616 0.950 . S
C614 C613 1.387 . S
C614 C617 1.387 . S
H615 C611 0.950 . S
H616 C613 0.950 . S
C617 C608 1.390 . S
C617 H610 0.950 . S
C617 C614 1.387 . S
C618 C619 1.387 . S
C618 H622 0.950 . S
C618 C627 1.390 . S
C619 C618 1.387 . S
C619 C621 1.387 . S
H620 C627 0.950 . S
C621 C619 1.387 . S
C621 C623 1.390 . S
C621 H625 0.950 . S
H622 C618 0.950 . S
C623 C621 1.390 . S
C623 C624 1.387 . S
C623 H626 0.950 . S
C624 C623 1.387 . S
C624 C627 1.387 . S
H625 C621 0.950 . S
H626 C623 0.950 . S
C627 C618 1.390 . S
C627 H620 0.950 . S
C627 C624 1.387 . S
C628 C629 1.387 . S
C628 H632 0.950 . S
C628 C637 1.390 . S
C629 C628 1.387 . S
C629 C631 1.387 . S
H630 C637 0.950 . S
C631 C629 1.387 . S
C631 C633 1.390 . S
C631 H635 0.950 . S
H632 C628 0.950 . S
C633 C631 1.390 . S
C633 C634 1.387 . S
C633 H636 0.950 . S
C634 C633 1.387 . S
C634 C637 1.387 . S
H635 C631 0.950 . S
H636 C633 0.950 . S
C637 C628 1.390 . S
C637 H630 0.950 . S
C637 C634 1.387 . S
C638 C639 1.387 . S
C638 H642 0.950 . S
C638 C647 1.390 . S
C639 C638 1.387 . S
C639 C641 1.387 . S
H640 C647 0.950 . S
C641 C639 1.387 . S
C641 C643 1.390 . S
C641 H645 0.950 . S
H642 C638 0.950 . S
C643 C641 1.390 . S
C643 C644 1.387 . S
C643 H646 0.950 . S
C644 C643 1.387 . S
C644 C647 1.387 . S
H645 C641 0.950 . S
H646 C643 0.950 . S
C647 C638 1.390 . S
C647 H640 0.950 . S
C647 C644 1.387 . S
C648 C649 1.387 . S
C648 H652 0.950 . S
C648 C657 1.390 . S
C649 C648 1.387 . S
C649 C651 1.387 . S
H650 C657 0.950 . S
C651 C649 1.387 . S
C651 C653 1.390 . S
C651 H655 0.950 . S
H652 C648 0.950 . S
C653 C651 1.390 . S
C653 C654 1.387 . S
C653 H656 0.950 . S
C654 C653 1.387 . S
C654 C657 1.387 . S
H655 C651 0.950 . S
H656 C653 0.950 . S
C657 C648 1.390 . S
C657 H650 0.950 . S
C657 C654 1.387 . S
C658 C659 1.387 . S
C658 H662 0.950 . S
C658 C667 1.390 . S
C659 C658 1.387 . S
C659 C661 1.387 . S
H660 C667 0.950 . S
C661 C659 1.387 . S
C661 C663 1.390 . S
C661 H665 0.950 . S
H662 C658 0.950 . S
C663 C661 1.390 . S
C663 C664 1.387 . S
C663 H666 0.950 . S
C664 C663 1.387 . S
C664 C667 1.387 . S
H665 C661 0.950 . S
H666 C663 0.950 . S
C667 C658 1.390 . S
C667 H660 0.950 . S
C667 C664 1.387 . S
C668 C669 1.387 . S
C668 H672 0.950 . S
C668 C677 1.390 . S
C669 C668 1.387 . S
C669 C671 1.387 . S
H670 C677 0.950 . S
C671 C669 1.387 . S
C671 C673 1.390 . S
C671 H675 0.950 . S
H672 C668 0.950 . S
C673 C671 1.390 . S
C673 C674 1.387 . S
C673 H676 0.950 . S
C674 C673 1.387 . S
C674 C677 1.387 . S
H675 C671 0.950 . S
H676 C673 0.950 . S
C677 C668 1.390 . S
C677 H670 0.950 . S
C677 C674 1.387 . S
C678 C679 1.387 . S
C678 H682 0.950 . S
C678 C687 1.390 . S
C679 C678 1.387 . S
C679 C681 1.387 . S
H680 C687 0.950 . S
C681 C679 1.387 . S
C681 C683 1.390 . S
C681 H685 0.950 . S
H682 C678 0.950 . S
C683 C681 1.390 . S
C683 C684 1.387 . S
C683 H686 0.950 . S
C684 C683 1.387 . S
C684 C687 1.387 . S
H685 C681 0.950 . S
H686 C683 0.950 . S
C687 C678 1.390 . S
C687 H680 0.950 . S
C687 C684 1.387 . S
C688 C689 1.387 . S
C688 H692 0.950 . S
C688 C697 1.390 . S
C689 C688 1.387 . S
C689 C691 1.387 . S
H690 C697 0.950 . S
C691 C689 1.387 . S
C691 C693 1.390 . S
C691 H695 0.950 . S
H692 C688 0.950 . S
C693 C691 1.390 . S
C693 C694 1.387 . S
C693 H696 0.950 . S
C694 C693 1.387 . S
C694 C697 1.387 . S
H695 C691 0.950 . S
H696 C693 0.950 . S
C697 C688 1.390 . S
C697 H690 0.950 . S
C697 C694 1.387 . S
C698 C699 1.387 . S
C698 H702 0.950 . S
C698 C707 1.390 . S
C699 C698 1.387 . S
C699 C701 1.387 . S
H700 C707 0.950 . S
C701 C699 1.387 . S
C701 C703 1.390 . S
C701 H705 0.950 . S
H702 C698 0.950 . S
C703 C701 1.390 . S
C703 C704 1.387 . S
C703 H706 0.950 . S
C704 C703 1.387 . S
C704 C707 1.387 . S
H705 C701 0.950 . S
H706 C703 0.950 . S
C707 C698 1.390 . S
C707 H700 0.950 . S
C707 C704 1.387 . S
C708 C709 1.387 . S
C708 H712 0.950 . S
C708 C717 1.390 . S
C709 C708 1.387 . S
C709 C711 1.387 . S
H710 C717 0.950 . S
C711 C709 1.387 . S
C711 C713 1.390 . S
C711 H715 0.950 . S
H712 C708 0.950 . S
C713 C711 1.390 . S
C713 C714 1.387 . S
C713 H716 0.950 . S
C714 C713 1.387 . S
C714 C717 1.387 . S
H715 C711 0.950 . S
H716 C713 0.950 . S
C717 C708 1.390 . S
C717 H710 0.950 . S
C717 C714 1.387 . S
C718 C719 1.387 . S
C718 H722 0.950 . S
C718 C727 1.390 . S
C719 C718 1.387 . S
C719 C721 1.387 . S
H720 C727 0.950 . S
C721 C719 1.387 . S
C721 C723 1.390 . S
C721 H725 0.950 . S
H722 C718 0.950 . S
C723 C721 1.390 . S
C723 C724 1.387 . S
C723 H726 0.950 . S
C724 C723 1.387 . S
C724 C727 1.387 . S
H725 C721 0.950 . S
H726 C723 0.950 . S
C727 C718 1.390 . S
C727 H720 0.950 . S
C727 C724 1.387 . S
C728 C729 1.387 . S
C728 H732 0.950 . S
C728 C737 1.390 . S
C729 C728 1.387 . S
C729 C731 1.387 . S
H730 C737 0.950 . S
C731 C729 1.387 . S
C731 C733 1.390 . S
C731 H735 0.950 . S
H732 C728 0.950 . S
C733 C731 1.390 . S
C733 C734 1.387 . S
C733 H736 0.950 . S
C734 C733 1.387 . S
C734 C737 1.387 . S
H735 C731 0.950 . S
H736 C733 0.950 . S
C737 C728 1.390 . S
C737 H730 0.950 . S
C737 C734 1.387 . S
C738 C739 1.387 . S
C738 H742 0.950 . S
C738 C747 1.390 . S
C739 C738 1.387 . S
C739 C741 1.387 . S
H740 C747 0.950 . S
C741 C739 1.387 . S
C741 C743 1.390 . S
C741 H745 0.950 . S
H742 C738 0.950 . S
C743 C741 1.390 . S
C743 C744 1.387 . S
C743 H746 0.950 . S
C744 C743 1.387 . S
C744 C747 1.387 . S
H745 C741 0.950 . S
H746 C743 0.950 . S
C747 C738 1.390 . S
C747 H740 0.950 . S
C747 C744 1.387 . S
C748 C749 1.387 . S
C748 H752 0.950 . S
C748 C757 1.390 . S
C749 C748 1.387 . S
C749 C751 1.387 . S
H750 C757 0.950 . S
C751 C749 1.387 . S
C751 C753 1.390 . S
C751 H755 0.950 . S
H752 C748 0.950 . S
C753 C751 1.390 . S
C753 C754 1.387 . S
C753 H756 0.950 . S
C754 C753 1.387 . S
C754 C757 1.387 . S
H755 C751 0.950 . S
H756 C753 0.950 . S
C757 C748 1.390 . S
C757 H750 0.950 . S
C757 C754 1.387 . S
C758 C759 1.387 . S
C758 H762 0.950 . S
C758 C767 1.390 . S
C759 C758 1.387 . S
C759 C761 1.387 . S
H760 C767 0.950 . S
C761 C759 1.387 . S
C761 C763 1.390 . S
C761 H765 0.950 . S
H762 C758 0.950 . S
C763 C761 1.390 . S
C763 C764 1.387 . S
C763 H766 0.950 . S
C764 C763 1.387 . S
C764 C767 1.387 . S
H765 C761 0.950 . S
H766 C763 0.950 . S
C767 C758 1.390 . S
C767 H760 0.950 . S
C767 C764 1.387 . S
C768 C769 1.387 . S
C768 H772 0.950 . S
C768 C777 1.390 . S
C769 C768 1.387 . S
C769 C771 1.387 . S
H770 C777 0.950 . S
C771 C769 1.387 . S
C771 C773 1.390 . S
C771 H775 0.950 . S
H772 C768 0.950 . S
C773 C771 1.390 . S
C773 C774 1.387 . S
C773 H776 0.950 . S
C774 C773 1.387 . S
C774 C777 1.387 . S
H775 C771 0.950 . S
H776 C773 0.950 . S
C777 C768 1.390 . S
C777 H770 0.950 . S
C777 C774 1.387 . S
C778 C779 1.387 . S
C778 H782 0.950 . S
C778 C787 1.390 . S
C779 C778 1.387 . S
C779 C781 1.387 . S
H780 C787 0.950 . S
C781 C779 1.387 . S
C781 C783 1.390 . S
C781 H785 0.950 . S
H782 C778 0.950 . S
C783 C781 1.390 . S
C783 C784 1.387 . S
C783 H786 0.950 . S
C784 C783 1.387 . S
C784 C787 1.387 . S
H785 C781 0.950 . S
H786 C783 0.950 . S
C787 C778 1.390 . S
C787 H780 0.950 . S
C787 C784 1.387 . S
C788 C789 1.387 . S
C788 H792 0.950 . S
C788 C797 1.390 . S
C789 C788 1.387 . S
C789 C791 1.387 . S
H790 C797 0.950 . S
C791 C789 1.387 . S
C791 C793 1.390 . S
C791 H795 0.950 . S
H792 C788 0.950 . S
C793 C791 1.390 . S
C793 C794 1.387 . S
C793 H796 0.950 . S
C794 C793 1.387 . S
C794 C797 1.387 . S
H795 C791 0.950 . S
H796 C793 0.950 . S
C797 C788 1.390 . S
C797 H790 0.950 . S
C797 C794 1.387 . S
C798 C799 1.387 . S
C798 H802 0.950 . S
C798 C807 1.390 . S
C799 C798 1.387 . S
C799 C801 1.387 . S
H800 C807 0.950 . S
C801 C799 1.387 . S
C801 C803 1.390 . S
C801 H805 0.950 . S
H802 C798 0.950 . S
C803 C801 1.390 . S
C803 C804 1.387 . S
C803 H806 0.950 . S
C804 C803 1.387 . S
C804 C807 1.387 . S
H805 C801 0.950 . S
H806 C803 0.950 . S
C807 C798 1.390 . S
C807 H800 0.950 . S
C807 C804 1.387 . S
C808 C809 1.387 . S
C808 H812 0.950 . S
C808 C817 1.390 . S
C809 C808 1.387 . S
C809 C811 1.387 . S
H810 C817 0.950 . S
C811 C809 1.387 . S
C811 C813 1.390 . S
C811 H815 0.950 . S
H812 C808 0.950 . S
C813 C811 1.390 . S
C813 C814 1.387 . S
C813 H816 0.950 . S
C814 C813 1.387 . S
C814 C817 1.387 . S
H815 C811 0.950 . S
H816 C813 0.950 . S
C817 C808 1.390 . S
C817 H810 0.950 . S
C817 C814 1.387 . S
C818 C819 1.387 . S
C818 H822 0.950 . S
C818 C827 1.390 . S
C819 C818 1.387 . S
C819 C821 1.387 . S
H820 C827 0.950 . S
C821 C819 1.387 . S
C821 C823 1.390 . S
C821 H825 0.950 . S
H822 C818 0.950 . S
C823 C821 1.390 . S
C823 C824 1.387 . S
C823 H826 0.950 . S
C824 C823 1.387 . S
C824 C827 1.387 . S
H825 C821 0.950 . S
H826 C823 0.950 . S
C827 C818 1.390 . S
C827 H820 0.950 . S
C827 C824 1.387 . S
C828 C829 1.387 . S
C828 H832 0.950 . S
C828 C837 1.390 . S
C829 C828 1.387 . S
C829 C831 1.387 . S
H830 C837 0.950 . S
C831 C829 1.387 . S
C831 C833 1.390 . S
C831 H835 0.950 . S
H832 C828 0.950 . S
C833 C831 1.390 . S
C833 C834 1.387 . S
C833 H836 0.950 . S
C834 C833 1.387 . S
C834 C837 1.387 . S
H835 C831 0.950 . S
H836 C833 0.950 . S
C837 C828 1.390 . S
C837 H830 0.950 . S
C837 C834 1.387 . S
C838 C839 1.387 . S
C838 H842 0.950 . S
C838 C847 1.390 . S
C839 C838 1.387 . S
C839 C841 1.387 . S
H840 C847 0.950 . S
C841 C839 1.387 . S
C841 C843 1.390 . S
C841 H845 0.950 . S
H842 C838 0.950 . S
C843 C841 1.390 . S
C843 C844 1.387 . S
C843 H846 0.950 . S
C844 C843 1.387 . S
C844 C847 1.387 . S
H845 C841 0.950 . S
H846 C843 0.950 . S
C847 C838 1.390 . S
C847 H840 0.950 . S
C847 C844 1.387 . S
C848 C849 1.387 . S
C848 H852 0.950 . S
C848 C857 1.390 . S
C849 C848 1.387 . S
C849 C851 1.387 . S
H850 C857 0.950 . S
C851 C849 1.387 . S
C851 C853 1.390 . S
C851 H855 0.950 . S
H852 C848 0.950 . S
C853 C851 1.390 . S
C853 C854 1.387 . S
C853 H856 0.950 . S
C854 C853 1.387 . S
C854 C857 1.387 . S
H855 C851 0.950 . S
H856 C853 0.950 . S
C857 C848 1.390 . S
C857 H850 0.950 . S
C857 C854 1.387 . S
C858 C859 1.387 . S
C858 H862 0.950 . S
C858 C867 1.390 . S
C859 C858 1.387 . S
C859 C861 1.387 . S
H860 C867 0.950 . S
C861 C859 1.387 . S
C861 C863 1.390 . S
C861 H865 0.950 . S
H862 C858 0.950 . S
C863 C861 1.390 . S
C863 C864 1.387 . S
C863 H866 0.950 . S
C864 C863 1.387 . S
C864 C867 1.387 . S
H865 C861 0.950 . S
H866 C863 0.950 . S
C867 C858 1.390 . S
C867 H860 0.950 . S
C867 C864 1.387 . S
C868 C869 1.387 . S
C868 H872 0.950 . S
C868 C877 1.390 . S
C869 C868 1.387 . S
C869 C871 1.387 . S
H870 C877 0.950 . S
C871 C869 1.387 . S
C871 C873 1.390 . S
C871 H875 0.950 . S
H872 C868 0.950 . S
C873 C871 1.390 . S
C873 C874 1.387 . S
C873 H876 0.950 . S
C874 C873 1.387 . S
C874 C877 1.387 . S
H875 C871 0.950 . S
H876 C873 0.950 . S
C877 C868 1.390 . S
C877 H870 0.950 . S
C877 C874 1.387 . S
C878 C879 1.387 . S
C878 H882 0.950 . S
C878 C887 1.390 . S
C879 C878 1.387 . S
C879 C881 1.387 . S
H880 C887 0.950 . S
C881 C879 1.387 . S
C881 C883 1.390 . S
C881 H885 0.950 . S
H882 C878 0.950 . S
C883 C881 1.390 . S
C883 C884 1.387 . S
C883 H886 0.950 . S
C884 C883 1.387 . S
C884 C887 1.387 . S
H885 C881 0.950 . S
H886 C883 0.950 . S
C887 C878 1.390 . S
C887 H880 0.950 . S
C887 C884 1.387 . S
C888 C889 1.387 . S
C888 H892 0.950 . S
C888 C897 1.390 . S
C889 C888 1.387 . S
C889 C891 1.387 . S
H890 C897 0.950 . S
C891 C889 1.387 . S
C891 C893 1.390 . S
C891 H895 0.950 . S
H892 C888 0.950 . S
C893 C891 1.390 . S
C893 C894 1.387 . S
C893 H896 0.950 . S
C894 C893 1.387 . S
C894 C897 1.387 . S
H895 C891 0.950 . S
H896 C893 0.950 . S
C897 C888 1.390 . S
C897 H890 0.950 . S
C897 C894 1.387 . S
C898 C899 1.387 . S
C898 H902 0.950 . S
C898 C907 1.390 . S
C899 C898 1.387 . S
C899 C901 1.387 . S
H900 C907 0.950 . S
C901 C899 1.387 . S
C901 C903 1.390 . S
C901 H905 0.950 . S
H902 C898 0.950 . S
C903 C901 1.390 . S
C903 C904 1.387 . S
C903 H906 0.950 . S
C904 C903 1.387 . S
C904 C907 1.387 . S
H905 C901 0.950 . S
H906 C903 0.950 . S
C907 C898 1.390 . S
C907 H900 0.950 . S
C907 C904 1.387 . S
C908 C909 1.387 . S
C908 H912 0.950 . S
C908 C917 1.390 . S
C909 C908 1.387 . S
C909 C911 1.387 . S
H910 C917 0.950 . S
C911 C909 1.387 . S
C911 C913 1.390 . S
C911 H915 0.950 . S
H912 C908 0.950 . S
C913 C911 1.390 . S
C913 C914 1.387 . S
C913 H916 0.950 . S
C914 C913 1.387 . S
C914 C917 1.387 . S
H915 C911 0.950 . S
H916 C913 0.950 . S
C917 C908 1.390 . S
C917 H910 0.950 . S
C917 C914 1.387 . S
C918 C919 1.387 . S
C918 H922 0.950 . S
C918 C927 1.390 . S
C919 C918 1.387 . S
C919 C921 1.387 . S
H920 C927 0.950 . S
C921 C919 1.387 . S
C921 C923 1.390 . S
C921 H925 0.950 . S
H922 C918 0.950 . S
C923 C921 1.390 . S
C923 C924 1.387 . S
C923 H926 0.950 . S
C924 C923 1.387 . S
C924 C927 1.387 . S
H925 C921 0.950 . S
H926 C923 0.950 . S
C927 C918 1.390 . S
C927 H920 0.950 . S
C927 C924 1.387 . S
C928 C929 1.387 . S
C928 H932 0.950 . S
C928 C937 1.390 . S
C929 C928 1.387 . S
C929 C931 1.387 . S
H930 C937 0.950 . S
C931 C929 1.387 . S
C931 C933 1.390 . S
C931 H935 0.950 . S
H932 C928 0.950 . S
C933 C931 1.390 . S
C933 C934 1.387 . S
C933 H936 0.950 . S
C934 C933 1.387 . S
C934 C937 1.387 . S
H935 C931 0.950 . S
H936 C933 0.950 . S
C937 C928 1.390 . S
C937 H930 0.950 . S
C937 C934 1.387 . S
C938 C939 1.387 . S
C938 H942 0.950 . S
C938 C947 1.390 . S
C939 C938 1.387 . S
C939 C941 1.387 . S
H940 C947 0.950 . S
C941 C939 1.387 . S
C941 C943 1.390 . S
C941 H945 0.950 . S
H942 C938 0.950 . S
C943 C941 1.390 . S
C943 C944 1.387 . S
C943 H946 0.950 . S
C944 C943 1.387 . S
C944 C947 1.387 . S
H945 C941 0.950 . S
H946 C943 0.950 . S
C947 C938 1.390 . S
C947 H940 0.950 . S
C947 C944 1.387 . S
C948 C949 1.387 . S
C948 H952 0.950 . S
C948 C957 1.390 . S
C949 C948 1.387 . S
C949 C951 1.387 . S
H950 C957 0.950 . S
C951 C949 1.387 . S
C951 C953 1.390 . S
C951 H955 0.950 . S
H952 C948 0.950 . S
C953 C951 1.390 . S
C953 C954 1.387 . S
C953 H956 0.950 . S
C954 C953 1.387 . S
C954 C957 1.387 . S
H955 C951 0.950 . S
H956 C953 0.950 . S
C957 C948 1.390 . S
C957 H950 0.950 . S
C957 C954 1.387 . S
C958 C959 1.387 . S
C958 H962 0.950 . S
C958 C967 1.390 . S
C959 C958 1.387 . S
C959 C961 1.387 . S
H960 C967 0.950 . S
C961 C959 1.387 . S
C961 C963 1.390 . S
C961 H965 0.950 . S
H962 C958 0.950 . S
C963 C961 1.390 . S
C963 C964 1.387 . S
C963 H966 0.950 . S
C964 C963 1.387 . S
C964 C967 1.387 . S
H965 C961 0.950 . S
H966 C963 0.950 . S
C967 C958 1.390 . S
C967 H960 0.950 . S
C967 C964 1.387 . S
C968 C969 1.387 . S
C968 H972 0.950 . S
C968 C977 1.390 . S
C969 C968 1.387 . S
C969 C971 1.387 . S
H970 C977 0.950 . S
C971 C969 1.387 . S
C971 C973 1.390 . S
C971 H975 0.950 . S
H972 C968 0.950 . S
C973 C971 1.390 . S
C973 C974 1.387 . S
C973 H976 0.950 . S
C974 C973 1.387 . S
C974 C977 1.387 . S
H975 C971 0.950 . S
H976 C973 0.950 . S
C977 C968 1.390 . S
C977 H970 0.950 . S
C977 C974 1.387 . S
C978 C979 1.387 . S
C978 H982 0.950 . S
C978 C987 1.390 . S
C979 C978 1.387 . S
C979 C981 1.387 . S
H980 C987 0.950 . S
C981 C979 1.387 . S
C981 C983 1.390 . S
C981 H985 0.950 . S
H982 C978 0.950 . S
C983 C981 1.390 . S
C983 C984 1.387 . S
C983 H986 0.950 . S
C984 C983 1.387 . S
C984 C987 1.387 . S
H985 C981 0.950 . S
H986 C983 0.950 . S
C987 C978 1.390 . S
C987 H980 0.950 . S
C987 C984 1.387 . S
C988 C989 1.387 . S
C988 H992 0.950 . S
C988 C997 1.390 . S
C989 C988 1.387 . S
C989 C991 1.387 . S
H990 C997 0.950 . S
C991 C989 1.387 . S
C991 C993 1.390 . S
C991 H995 0.950 . S
H992 C988 0.950 . S
C993 C991 1.390 . S
C993 C994 1.387 . S
C993 H996 0.950 . S
C994 C993 1.387 . S
C994 C997 1.387 . S
H995 C991 0.950 . S
H996 C993 0.950 . S
C997 C988 1.390 . S
C997 H990 0.950 . S
C997 C994 1.387 . S
C998 C999 1.387 . S
C998 H1002 0.950 . S
C998 C1007 1.390 . S
C999 C998 1.387 . S
C999 C1001 1.387 . S
H1000 C1007 0.950 . S
C1001 C999 1.387 . S
C1001 C1003 1.390 . S
C1001 H1005 0.950 . S
H1002 C998 0.950 . S
C1003 C1001 1.390 . S
C1003 C1004 1.387 . S
C1003 H1006 0.950 . S
C1004 C1003 1.387 . S
C1004 C1007 1.387 . S
H1005 C1001 0.950 . S
H1006 C1003 0.950 . S
C1007 C998 1.390 . S
C1007 H1000 0.950 . S
C1007 C1004 1.387 . S
C1008 C1009 1.387 . S
C1008 H1012 0.950 . S
C1008 C1017 1.390 . S
C1009 C1008 1.387 . S
C1009 C1011 1.387 . S
H1010 C1017 0.950 . S
C1011 C1009 1.387 . S
C1011 C1013 1.390 . S
C1011 H1015 0.950 . S
H1012 C1008 0.950 . S
C1013 C1011 1.390 . S
C1013 C1014 1.387 . S
C1013 H1016 0.950 . S
C1014 C1013 1.387 . S
C1014 C1017 1.387 . S
H1015 C1011 0.950 . S
H1016 C1013 0.950 . S
C1017 C1008 1.390 . S
C1017 H1010 0.950 . S
C1017 C1014 1.387 . S
C1018 C1019 1.387 . S
C1018 H1022 0.950 . S
C1018 C1027 1.390 . S
C1019 C1018 1.387 . S
C1019 C1021 1.387 . S
H1020 C1027 0.950 . S
C1021 C1019 1.387 . S
C1021 C1023 1.390 . S
C1021 H1025 0.950 . S
H1022 C1018 0.950 . S
C1023 C1021 1.390 . S
C1023 C1024 1.387 . S
C1023 H1026 0.950 . S
C1024 C1023 1.387 . S
C1024 C1027 1.387 . S
H1025 C1021 0.950 . S
H1026 C1023 0.950 . S
C1027 C1018 1.390 . S
C1027 H1020 0.950 . S
C1027 C1024 1.387 . S
C1028 C1029 1.387 . S
C1028 H1032 0.950 . S
C1028 C1037 1.390 . S
C1029 C1028 1.387 . S
C1029 C1031 1.387 . S
H1030 C1037 0.950 . S
C1031 C1029 1.387 . S
C1031 C1033 1.390 . S
C1031 H1035 0.950 . S
H1032 C1028 0.950 . S
C1033 C1031 1.390 . S
C1033 C1034 1.387 . S
C1033 H1036 0.950 . S
C1034 C1033 1.387 . S
C1034 C1037 1.387 . S
H1035 C1031 0.950 . S
H1036 C1033 0.950 . S
C1037 C1028 1.390 . S
C1037 H1030 0.950 . S
C1037 C1034 1.387 . S
C1038 C1039 1.387 . S
C1038 H1042 0.950 . S
C1038 C1047 1.390 . S
C1039 C1038 1.387 . S
C1039 C1041 1.387 . S
H1040 C1047 0.950 . S
C1041 C1039 1.387 . S
C1041 C1043 1.390 . S
C1041 H1045 0.950 . S
H1042 C1038 0.950 . S
C1043 C1041 1.390 . S
C1043 C1044 1.387 . S
C1043 H1046 0.950 . S
C1044 C1043 1.387 . S
C1044 C1047 1.387 . S
H1045 C1041 0.950 . S
H1046 C1043 0.950 . S
C1047 C1038 1.390 . S
C1047 H1040 0.950 . S
C1047 C1044 1.387 . S
C1048 C1049 1.387 . S
C1048 H1052 0.950 . S
C1048 C1057 1.390 . S
C1049 C1048 1.387 . S
C1049 C1051 1.387 . S
H1050 C1057 0.950 . S
C1051 C1049 1.387 . S
C1051 C1053 1.390 . S
C1051 H1055 0.950 . S
H1052 C1048 0.950 . S
C1053 C1051 1.390 . S
C1053 C1054 1.387 . S
C1053 H1056 0.950 . S
C1054 C1053 1.387 . S
C1054 C1057 1.387 . S
H1055 C1051 0.950 . S
H1056 C1053 0.950 . S
C1057 C1048 1.390 . S
C1057 H1050 0.950 . S
C1057 C1054 1.387 . S
C1058 C1059 1.387 . S
C1058 H1062 0.950 . S
C1058 C1067 1.390 . S
C1059 C1058 1.387 . S
C1059 C1061 1.387 . S
H1060 C1067 0.950 . S
C1061 C1059 1.387 . S
C1061 C1063 1.390 . S
C1061 H1065 0.950 . S
H1062 C1058 0.950 . S
C1063 C1061 1.390 . S
C1063 C1064 1.387 . S
C1063 H1066 0.950 . S
C1064 C1063 1.387 . S
C1064 C1067 1.387 . S
H1065 C1061 0.950 . S
H1066 C1063 0.950 . S
C1067 C1058 1.390 . S
C1067 H1060 0.950 . S
C1067 C1064 1.387 . S
C1068 C1069 1.387 . S
C1068 H1072 0.950 . S
C1068 C1077 1.390 . S
C1069 C1068 1.387 . S
C1069 C1071 1.387 . S
H1070 C1077 0.950 . S
C1071 C1069 1.387 . S
C1071 C1073 1.390 . S
C1071 H1075 0.950 . S
H1072 C1068 0.950 . S
C1073 C1071 1.390 . S
C1073 C1074 1.387 . S
C1073 H1076 0.950 . S
C1074 C1073 1.387 . S
C1074 C1077 1.387 . S
H1075 C1071 0.950 . S
H1076 C1073 0.950 . S
C1077 C1068 1.390 . S
C1077 H1070 0.950 . S
C1077 C1074 1.387 . S
C1078 C1079 1.387 . S
C1078 H1082 0.950 . S
C1078 C1087 1.390 . S
C1079 C1078 1.387 . S
C1079 C1081 1.387 . S
H1080 C1087 0.950 . S
C1081 C1079 1.387 . S
C1081 C1083 1.390 . S
C1081 H1085 0.950 . S
H1082 C1078 0.950 . S
C1083 C1081 1.390 . S
C1083 C1084 1.387 . S
C1083 H1086 0.950 . S
C1084 C1083 1.387 . S
C1084 C1087 1.387 . S
H1085 C1081 0.950 . S
H1086 C1083 0.950 . S
C1087 C1078 1.390 . S
C1087 H1080 0.950 . S
C1087 C1084 1.387 . S
C449 C67 1.482 . S
C454 C11 1.482 . S
C459 C81 1.481 . S
C464 C25 1.481 . S
C469 C95 1.482 . S
C474 C39 1.482 . S
C479 C53 1.482 . S
C484 C109 1.482 . S
C489 C123 1.482 . S
C494 C179 1.482 . S
C499 C193 1.481 . S
C504 C137 1.481 . S
C509 C151 1.482 . S
C514 C207 1.482 . S
C519 C221 1.482 . S
C524 C165 1.482 . S
C529 C235 1.481 . S
C534 C291 1.481 . S
C539 C305 1.481 . S
C544 C249 1.481 . S
C549 C319 1.482 . S
C554 C263 1.482 . S
C559 C333 1.481 . S
C564 C277 1.481 . S
C569 C347 1.481 . S
C574 C403 1.481 . S
C579 C361 1.482 . S
C584 C417 1.482 . S
C589 C375 1.482 . S
C594 C431 1.482 . S
C599 C389 1.482 . S
C604 C445 1.482 . S
C609 C12 1.079 . S
C614 C110 1.081 . S
C619 C26 1.081 . S
C624 C68 1.080 . S
C629 C40 1.080 . S
C634 C82 1.081 . S
C639 C96 1.082 . S
C644 C54 1.082 . S
C649 C222 1.080 . S
C654 C124 1.081 . S
C659 C180 1.080 . S
C664 C138 1.081 . S
C669 C194 1.080 . S
C674 C152 1.081 . S
C679 C166 1.081 . S
C684 C208 1.080 . S
C689 C334 1.080 . S
C694 C236 1.081 . S
C699 C292 1.081 . S
C704 C250 1.082 . S
C709 C306 1.080 . S
C714 C264 1.081 . S
C719 C278 1.079 . S
C724 C320 1.081 . S
C729 C348 1.079 . S
C734 C446 1.081 . S
C739 C362 1.080 . S
C744 C404 1.081 . S
C749 C376 1.081 . S
C754 C418 1.080 . S
C759 C432 1.080 . S
C764 C390 1.079 . S
C769 C4 1.495 . S
C774 C355 1.440 . S
C779 C18 1.494 . S
C784 C145 1.438 . S
C789 C32 1.493 . S
C794 C383 1.442 . S
C799 C117 1.438 . S
C804 C46 1.495 . S
C809 C439 1.440 . S
C814 C60 1.493 . S
C819 C74 1.493 . S
C824 C173 1.441 . S
C829 C88 1.495 . S
C834 C411 1.439 . S
C839 C102 1.493 . S
C844 C201 1.440 . S
C849 C243 1.441 . S
C854 C116 1.493 . S
C859 C33 1.438 . S
C864 C130 1.495 . S
C869 C271 1.438 . S
C874 C144 1.495 . S
C879 C158 1.493 . S
C884 C5 1.442 . S
C889 C327 1.438 . S
C894 C172 1.495 . S
C899 C61 1.441 . S
C904 C186 1.492 . S
C909 C299 1.440 . S
C914 C200 1.494 . S
C919 C89 1.438 . S
C924 C214 1.495 . S
C929 C131 1.438 . S
C934 C228 1.495 . S
C939 C242 1.495 . S
C944 C369 1.438 . S
C949 C256 1.495 . S
C954 C159 1.438 . S
C959 C270 1.495 . S
C964 C341 1.438 . S
C969 C284 1.495 . S
C974 C215 1.438 . S
C979 C397 1.438 . S
C984 C298 1.495 . S
C989 C312 1.495 . S
C994 C187 1.438 . S
C999 C326 1.493 . S
C1004 C425 1.442 . S
C1009 C340 1.495 . S
C1014 C19 1.438 . S
C1019 C354 1.493 . S
C1024 C257 1.442 . S
C1029 C47 1.441 . S
C1034 C368 1.493 . S
C1039 C229 1.438 . S
C1044 C382 1.495 . S
C1049 C396 1.495 . S
C1054 C103 1.438 . S
C1059 C410 1.495 . S
C1064 C285 1.438 . S
C1069 C75 1.442 . S
C1074 C424 1.493 . S
C1079 C313 1.442 . S
C1084 C438 1.493 . S
