# Generated by pormake.
# Topology uoi, (4)-cn, num edge types: 1
# Building blocks:
#     Node 0, Type 0, BuildingBlock: CEKHIL_clean_sbu_0, # of connection points: 4
#     Node 1, Type 0, BuildingBlock: CEKHIL_clean_sbu_0, # of connection points: 4
#     Node 2, Type 0, BuildingBlock: CEKHIL_clean_sbu_0, # of connection points: 4
#     Node 3, Type 0, BuildingBlock: CEKHIL_clean_sbu_0, # of connection points: 4
#     Node 4, Type 0, BuildingBlock: CEKHIL_clean_sbu_0, # of connection points: 4
#     Node 5, Type 0, BuildingBlock: CEKHIL_clean_sbu_0, # of connection points: 4
#     Node 6, Type 0, BuildingBlock: CEKHIL_clean_sbu_0, # of connection points: 4
#     Node 7, Type 0, BuildingBlock: CEKHIL_clean_sbu_0, # of connection points: 4
#     Node 8, Type 0, BuildingBlock: CEKHIL_clean_sbu_0, # of connection points: 4
#     Node 9, Type 0, BuildingBlock: CEKHIL_clean_sbu_0, # of connection points: 4
#     Node 10, Type 0, BuildingBlock: CEKHIL_clean_sbu_0, # of connection points: 4
#     Node 11, Type 0, BuildingBlock: CEKHIL_clean_sbu_0, # of connection points: 4
#     Node 12, Type 0, BuildingBlock: CEKHIL_clean_sbu_0, # of connection points: 4
#     Node 13, Type 0, BuildingBlock: CEKHIL_clean_sbu_0, # of connection points: 4
#     Node 14, Type 0, BuildingBlock: CEKHIL_clean_sbu_0, # of connection points: 4
#     Node 15, Type 0, BuildingBlock: CEKHIL_clean_sbu_0, # of connection points: 4
#     Node 16, Type 0, BuildingBlock: CEKHIL_clean_sbu_0, # of connection points: 4
#     Node 17, Type 0, BuildingBlock: CEKHIL_clean_sbu_0, # of connection points: 4
#     Node 18, Type 0, BuildingBlock: CEKHIL_clean_sbu_0, # of connection points: 4
#     Node 19, Type 0, BuildingBlock: CEKHIL_clean_sbu_0, # of connection points: 4
#     Node 20, Type 0, BuildingBlock: CEKHIL_clean_sbu_0, # of connection points: 4
#     Node 21, Type 0, BuildingBlock: CEKHIL_clean_sbu_0, # of connection points: 4
#     Node 22, Type 0, BuildingBlock: CEKHIL_clean_sbu_0, # of connection points: 4
#     Node 23, Type 0, BuildingBlock: CEKHIL_clean_sbu_0, # of connection points: 4
#     Node 24, Type 0, BuildingBlock: CEKHIL_clean_sbu_0, # of connection points: 4
#     Node 25, Type 0, BuildingBlock: CEKHIL_clean_sbu_0, # of connection points: 4
#     Node 26, Type 0, BuildingBlock: CEKHIL_clean_sbu_0, # of connection points: 4
#     Node 27, Type 0, BuildingBlock: CEKHIL_clean_sbu_0, # of connection points: 4
#     Node 28, Type 0, BuildingBlock: CEKHIL_clean_sbu_0, # of connection points: 4
#     Node 29, Type 0, BuildingBlock: CEKHIL_clean_sbu_0, # of connection points: 4
#     Node 30, Type 0, BuildingBlock: CEKHIL_clean_sbu_0, # of connection points: 4
#     Node 31, Type 0, BuildingBlock: CEKHIL_clean_sbu_0, # of connection points: 4
#     Edge 32, Type (0, 0), BuildingBlock: KIFKEQ_clean_linker_1, # of connection points: 2
#     Edge 33, Type (0, 0), BuildingBlock: KIFKEQ_clean_linker_1, # of connection points: 2
#     Edge 34, Type (0, 0), BuildingBlock: KIFKEQ_clean_linker_1, # of connection points: 2
#     Edge 35, Type (0, 0), BuildingBlock: KIFKEQ_clean_linker_1, # of connection points: 2
#     Edge 36, Type (0, 0), BuildingBlock: KIFKEQ_clean_linker_1, # of connection points: 2
#     Edge 37, Type (0, 0), BuildingBlock: KIFKEQ_clean_linker_1, # of connection points: 2
#     Edge 38, Type (0, 0), BuildingBlock: KIFKEQ_clean_linker_1, # of connection points: 2
#     Edge 39, Type (0, 0), BuildingBlock: KIFKEQ_clean_linker_1, # of connection points: 2
#     Edge 40, Type (0, 0), BuildingBlock: KIFKEQ_clean_linker_1, # of connection points: 2
#     Edge 41, Type (0, 0), BuildingBlock: KIFKEQ_clean_linker_1, # of connection points: 2
#     Edge 42, Type (0, 0), BuildingBlock: KIFKEQ_clean_linker_1, # of connection points: 2
#     Edge 43, Type (0, 0), BuildingBlock: KIFKEQ_clean_linker_1, # of connection points: 2
#     Edge 44, Type (0, 0), BuildingBlock: KIFKEQ_clean_linker_1, # of connection points: 2
#     Edge 45, Type (0, 0), BuildingBlock: KIFKEQ_clean_linker_1, # of connection points: 2
#     Edge 46, Type (0, 0), BuildingBlock: KIFKEQ_clean_linker_1, # of connection points: 2
#     Edge 47, Type (0, 0), BuildingBlock: KIFKEQ_clean_linker_1, # of connection points: 2
#     Edge 48, Type (0, 0), BuildingBlock: KIFKEQ_clean_linker_1, # of connection points: 2
#     Edge 49, Type (0, 0), BuildingBlock: KIFKEQ_clean_linker_1, # of connection points: 2
#     Edge 50, Type (0, 0), BuildingBlock: KIFKEQ_clean_linker_1, # of connection points: 2
#     Edge 51, Type (0, 0), BuildingBlock: KIFKEQ_clean_linker_1, # of connection points: 2
#     Edge 52, Type (0, 0), BuildingBlock: KIFKEQ_clean_linker_1, # of connection points: 2
#     Edge 53, Type (0, 0), BuildingBlock: KIFKEQ_clean_linker_1, # of connection points: 2
#     Edge 54, Type (0, 0), BuildingBlock: KIFKEQ_clean_linker_1, # of connection points: 2
#     Edge 55, Type (0, 0), BuildingBlock: KIFKEQ_clean_linker_1, # of connection points: 2
#     Edge 56, Type (0, 0), BuildingBlock: KIFKEQ_clean_linker_1, # of connection points: 2
#     Edge 57, Type (0, 0), BuildingBlock: KIFKEQ_clean_linker_1, # of connection points: 2
#     Edge 58, Type (0, 0), BuildingBlock: KIFKEQ_clean_linker_1, # of connection points: 2
#     Edge 59, Type (0, 0), BuildingBlock: KIFKEQ_clean_linker_1, # of connection points: 2
#     Edge 60, Type (0, 0), BuildingBlock: KIFKEQ_clean_linker_1, # of connection points: 2
#     Edge 61, Type (0, 0), BuildingBlock: KIFKEQ_clean_linker_1, # of connection points: 2
#     Edge 62, Type (0, 0), BuildingBlock: KIFKEQ_clean_linker_1, # of connection points: 2
#     Edge 63, Type (0, 0), BuildingBlock: KIFKEQ_clean_linker_1, # of connection points: 2
#     Edge 64, Type (0, 0), BuildingBlock: KIFKEQ_clean_linker_1, # of connection points: 2
#     Edge 65, Type (0, 0), BuildingBlock: KIFKEQ_clean_linker_1, # of connection points: 2
#     Edge 66, Type (0, 0), BuildingBlock: KIFKEQ_clean_linker_1, # of connection points: 2
#     Edge 67, Type (0, 0), BuildingBlock: KIFKEQ_clean_linker_1, # of connection points: 2
#     Edge 68, Type (0, 0), BuildingBlock: KIFKEQ_clean_linker_1, # of connection points: 2
#     Edge 69, Type (0, 0), BuildingBlock: KIFKEQ_clean_linker_1, # of connection points: 2
#     Edge 70, Type (0, 0), BuildingBlock: KIFKEQ_clean_linker_1, # of connection points: 2
#     Edge 71, Type (0, 0), BuildingBlock: KIFKEQ_clean_linker_1, # of connection points: 2
#     Edge 72, Type (0, 0), BuildingBlock: KIFKEQ_clean_linker_1, # of connection points: 2
#     Edge 73, Type (0, 0), BuildingBlock: KIFKEQ_clean_linker_1, # of connection points: 2
#     Edge 74, Type (0, 0), BuildingBlock: KIFKEQ_clean_linker_1, # of connection points: 2
#     Edge 75, Type (0, 0), BuildingBlock: KIFKEQ_clean_linker_1, # of connection points: 2
#     Edge 76, Type (0, 0), BuildingBlock: KIFKEQ_clean_linker_1, # of connection points: 2
#     Edge 77, Type (0, 0), BuildingBlock: KIFKEQ_clean_linker_1, # of connection points: 2
#     Edge 78, Type (0, 0), BuildingBlock: KIFKEQ_clean_linker_1, # of connection points: 2
#     Edge 79, Type (0, 0), BuildingBlock: KIFKEQ_clean_linker_1, # of connection points: 2
#     Edge 80, Type (0, 0), BuildingBlock: KIFKEQ_clean_linker_1, # of connection points: 2
#     Edge 81, Type (0, 0), BuildingBlock: KIFKEQ_clean_linker_1, # of connection points: 2
#     Edge 82, Type (0, 0), BuildingBlock: KIFKEQ_clean_linker_1, # of connection points: 2
#     Edge 83, Type (0, 0), BuildingBlock: KIFKEQ_clean_linker_1, # of connection points: 2
#     Edge 84, Type (0, 0), BuildingBlock: KIFKEQ_clean_linker_1, # of connection points: 2
#     Edge 85, Type (0, 0), BuildingBlock: KIFKEQ_clean_linker_1, # of connection points: 2
#     Edge 86, Type (0, 0), BuildingBlock: KIFKEQ_clean_linker_1, # of connection points: 2
#     Edge 87, Type (0, 0), BuildingBlock: KIFKEQ_clean_linker_1, # of connection points: 2
#     Edge 88, Type (0, 0), BuildingBlock: KIFKEQ_clean_linker_1, # of connection points: 2
#     Edge 89, Type (0, 0), BuildingBlock: KIFKEQ_clean_linker_1, # of connection points: 2
#     Edge 90, Type (0, 0), BuildingBlock: KIFKEQ_clean_linker_1, # of connection points: 2
#     Edge 91, Type (0, 0), BuildingBlock: KIFKEQ_clean_linker_1, # of connection points: 2
#     Edge 92, Type (0, 0), BuildingBlock: KIFKEQ_clean_linker_1, # of connection points: 2
#     Edge 93, Type (0, 0), BuildingBlock: KIFKEQ_clean_linker_1, # of connection points: 2
#     Edge 94, Type (0, 0), BuildingBlock: KIFKEQ_clean_linker_1, # of connection points: 2
#     Edge 95, Type (0, 0), BuildingBlock: KIFKEQ_clean_linker_1, # of connection points: 2
# Relax obj value: 0.257
# Max RMSD: 0.469
# Mean RMSD: 0.293
data_MOF--net-uoi--node1-CEKHIL_clean_sbu_0--edge1-KIFKEQ_clean_linker_1
_symmetry_space_group_name_H-M    P1
_symmetry_Int_Tables_number       1
_symmetry_cell_setting            triclinic
loop_
_symmetry_equiv_pos_as_xyz
'x, y, z'
_cell_length_a     47.702094
_cell_length_b     75.022548
_cell_length_c     21.467534
_cell_angle_alpha  90.068894
_cell_angle_beta   89.988915
_cell_angle_gamma 90.019559
loop_
_atom_site_label
_atom_site_type_symbol
_atom_site_fract_x
_atom_site_fract_y
_atom_site_fract_z
_atom_type_partial_charge
Co0 Co 0.28463 0.18523 0.21042 0.0
O1 O 0.27472 0.16961 0.14331 0.0
O2 O 0.25284 0.19491 0.16579 0.0
C3 C 0.28699 0.16409 0.28433 0.0
O4 O 0.28924 0.20442 0.27755 0.0
Co5 Co 0.34367 0.18096 0.26894 0.0
O6 O 0.32865 0.19791 0.33104 0.0
C7 C 0.33759 0.20173 0.15426 0.0
C8 C 0.25435 0.18055 0.13187 0.0
C9 C 0.30657 0.20712 0.3227 0.0
O10 O 0.31123 0.19849 0.15541 0.0
O11 O 0.35499 0.19563 0.19424 0.0
O12 O 0.26324 0.17083 0.26729 0.0
O13 O 0.30857 0.16876 0.25107 0.0
Co14 Co 0.10552 0.92839 0.60253 0.0
O15 O 0.1192 0.9157 0.53083 0.0
O16 O 0.09709 0.90339 0.61097 0.0
C17 C 0.14414 0.945 0.62071 0.0
O18 O 0.08909 0.93648 0.68501 0.0
Co19 Co 0.09868 0.96964 0.60603 0.0
O20 O 0.09208 0.96616 0.69634 0.0
C21 C 0.05591 0.9473 0.54323 0.0
C22 C 0.10951 0.90143 0.55756 0.0
C23 C 0.08635 0.95074 0.71765 0.0
O24 O 0.06865 0.93288 0.55923 0.0
O25 O 0.06525 0.96296 0.55477 0.0
O26 O 0.14294 0.92859 0.63999 0.0
O27 O 0.1235 0.95005 0.5862 0.0
Co28 Co 0.23756 0.81291 0.73195 0.0
O29 O 0.25833 0.83066 0.68877 0.0
O30 O 0.27288 0.80285 0.70262 0.0
C31 C 0.22722 0.83029 0.81332 0.0
O32 O 0.22098 0.7913 0.77714 0.0
Co33 Co 0.17566 0.81822 0.7421 0.0
O34 O 0.17603 0.79753 0.79886 0.0
C35 C 0.19648 0.80589 0.6239 0.0
C36 C 0.27725 0.81866 0.67937 0.0
C37 C 0.19735 0.78744 0.80315 0.0
O38 O 0.22017 0.80555 0.65154 0.0
O39 O 0.17432 0.8115 0.65093 0.0
O40 O 0.25053 0.82151 0.81008 0.0
O41 O 0.21127 0.82992 0.76398 0.0
Co42 Co 0.36571 0.07756 0.12725 0.0
O43 O 0.35056 0.08917 0.05481 0.0
O44 O 0.37107 0.10298 0.13405 0.0
C45 C 0.32935 0.05898 0.1457 0.0
O46 O 0.3832 0.07074 0.21008 0.0
Co47 Co 0.37782 0.0368 0.13264 0.0
O48 O 0.38404 0.04105 0.22269 0.0
C49 C 0.41767 0.06099 0.06889 0.0
C50 C 0.35884 0.10403 0.08012 0.0
C51 C 0.38789 0.0568 0.24325 0.0
O52 O 0.40311 0.07479 0.08411 0.0
O53 O 0.41033 0.04496 0.0812 0.0
O54 O 0.32832 0.07544 0.1647 0.0
O55 O 0.35071 0.05497 0.11173 0.0
Co56 Co 0.26134 0.81864 0.28813 0.0
O57 O 0.24268 0.83304 0.34844 0.0
O58 O 0.2291 0.80587 0.32044 0.0
C59 C 0.26499 0.83975 0.21538 0.0
O60 O 0.27617 0.80019 0.22601 0.0
Co61 Co 0.32237 0.82796 0.25775 0.0
O62 O 0.31799 0.80994 0.19152 0.0
C63 C 0.3109 0.80787 0.37095 0.0
C64 C 0.22512 0.82 0.35456 0.0
C65 C 0.29781 0.79883 0.19018 0.0
O66 O 0.28504 0.80834 0.35542 0.0
O67 O 0.33025 0.81537 0.33913 0.0
O68 O 0.24221 0.83056 0.22193 0.0
O69 O 0.28422 0.83746 0.25768 0.0
Co70 Co 0.3705 0.93673 0.39784 0.0
O71 O 0.35824 0.92513 0.47301 0.0
O72 O 0.37617 0.91136 0.39065 0.0
C73 C 0.33327 0.95498 0.38539 0.0
O74 O 0.38483 0.94362 0.31205 0.0
Co75 Co 0.38168 0.97756 0.39017 0.0
O76 O 0.38411 0.9733 0.29926 0.0
C77 C 0.42393 0.95374 0.44729 0.0
C78 C 0.36597 0.91031 0.44666 0.0
C79 C 0.38767 0.9576 0.27802 0.0
O80 O 0.40917 0.93985 0.4343 0.0
O81 O 0.41596 0.96972 0.43626 0.0
O82 O 0.33188 0.93847 0.36697 0.0
O83 O 0.35564 0.95921 0.41561 0.0
Co84 Co 0.23879 0.193 0.7839 0.0
O85 O 0.26627 0.17939 0.82653 0.0
O86 O 0.26678 0.20893 0.82015 0.0
C87 C 0.23886 0.17587 0.69847 0.0
O88 O 0.21339 0.21111 0.74037 0.0
Co89 Co 0.18255 0.1755 0.76261 0.0
O90 O 0.17459 0.19646 0.71036 0.0
C91 C 0.19304 0.19042 0.88466 0.0
C92 C 0.27826 0.19429 0.84055 0.0
C93 C 0.18962 0.21046 0.71178 0.0
O94 O 0.21679 0.19513 0.86255 0.0
O95 O 0.17518 0.18163 0.85266 0.0
O96 O 0.25699 0.18856 0.70603 0.0
O97 O 0.22264 0.17246 0.74575 0.0
Co98 Co 0.11984 0.06872 0.88722 0.0
O99 O 0.13714 0.07976 0.95849 0.0
O100 O 0.11874 0.09424 0.87819 0.0
C101 C 0.15326 0.04799 0.86949 0.0
O102 O 0.10111 0.06248 0.80503 0.0
Co103 Co 0.10171 0.02886 0.88442 0.0
O104 O 0.09666 0.03287 0.79396 0.0
C105 C 0.06542 0.05586 0.94542 0.0
C106 C 0.13177 0.09485 0.93127 0.0
C107 C 0.09476 0.04865 0.77253 0.0
O108 O 0.08231 0.0686 0.93086 0.0
O109 O 0.07011 0.03941 0.9334 0.0
O110 O 0.15656 0.06421 0.84957 0.0
O111 O 0.13151 0.04538 0.904 0.0
Co112 Co 0.74938 0.81349 0.76721 0.0
O113 O 0.76595 0.83025 0.82237 0.0
O114 O 0.77846 0.80179 0.8159 0.0
C115 C 0.75184 0.83094 0.68269 0.0
O116 O 0.73578 0.7927 0.71311 0.0
Co117 Co 0.6914 0.82388 0.71687 0.0
O118 O 0.696 0.80206 0.66695 0.0
C119 C 0.6947 0.80807 0.84035 0.0
C120 C 0.78178 0.81741 0.8415 0.0
C121 C 0.71483 0.79031 0.67593 0.0
O122 O 0.72125 0.80728 0.83264 0.0
O123 O 0.67795 0.81463 0.79996 0.0
O124 O 0.77302 0.82141 0.70031 0.0
O125 O 0.73055 0.83128 0.72056 0.0
Co126 Co 0.89844 0.07191 0.38851 0.0
O127 O 0.88305 0.08233 0.46292 0.0
O128 O 0.90232 0.09748 0.38515 0.0
C129 C 0.86263 0.05302 0.36866 0.0
O130 O 0.91582 0.06637 0.30428 0.0
Co131 Co 0.91212 0.03148 0.3765 0.0
O132 O 0.91688 0.03689 0.28684 0.0
C133 C 0.95124 0.05561 0.44328 0.0
C134 C 0.88999 0.09763 0.43912 0.0
C135 C 0.92038 0.05289 0.26866 0.0
O136 O 0.93611 0.06934 0.4304 0.0
O137 O 0.94449 0.03963 0.42858 0.0
O138 O 0.86096 0.06963 0.35184 0.0
O139 O 0.88443 0.04891 0.40106 0.0
Co140 Co 0.74939 0.18555 0.31624 0.0
O141 O 0.72865 0.17069 0.37145 0.0
O142 O 0.72063 0.19957 0.35759 0.0
C143 C 0.74748 0.16724 0.23423 0.0
O144 O 0.76718 0.20469 0.26115 0.0
Co145 Co 0.80734 0.17235 0.27863 0.0
O146 O 0.80597 0.19249 0.2197 0.0
C147 C 0.80163 0.18875 0.40016 0.0
C148 C 0.71417 0.18471 0.38539 0.0
C149 C 0.78847 0.20523 0.2241 0.0
O150 O 0.77597 0.19121 0.38515 0.0
O151 O 0.81896 0.18068 0.36453 0.0
O152 O 0.72705 0.17798 0.2472 0.0
O153 O 0.76745 0.16616 0.27551 0.0
Co154 Co 0.58222 0.93821 0.89451 0.0
O155 O 0.59524 0.92595 0.96762 0.0
O156 O 0.57706 0.91298 0.88384 0.0
C157 C 0.61909 0.95676 0.88296 0.0
O158 O 0.56745 0.94569 0.80996 0.0
Co159 Co 0.57005 0.97886 0.89068 0.0
O160 O 0.56756 0.97542 0.7993 0.0
C161 C 0.52875 0.95423 0.94729 0.0
C162 C 0.58801 0.91137 0.93892 0.0
C163 C 0.5644 0.95982 0.77691 0.0
O164 O 0.54376 0.94062 0.93248 0.0
O165 O 0.53621 0.97037 0.93727 0.0
O166 O 0.62055 0.94042 0.86287 0.0
O167 O 0.59682 0.96066 0.91422 0.0
Co168 Co 0.734 0.18358 0.72958 0.0
O169 O 0.74939 0.16623 0.67425 0.0
O170 O 0.76963 0.19205 0.6976 0.0
C171 C 0.72299 0.16506 0.80666 0.0
O172 O 0.72356 0.2045 0.78582 0.0
Co173 Co 0.6707 0.18199 0.75039 0.0
O174 O 0.67749 0.2022 0.80738 0.0
C175 C 0.69033 0.1982 0.6366 0.0
C176 C 0.77018 0.17712 0.66662 0.0
C177 C 0.70102 0.21006 0.81272 0.0
O178 O 0.7148 0.19514 0.65828 0.0
O179 O 0.66807 0.19333 0.665 0.0
O180 O 0.74828 0.17109 0.80017 0.0
O181 O 0.70555 0.1684 0.76137 0.0
Co182 Co 0.58511 0.07893 0.6288 0.0
O183 O 0.60033 0.09135 0.5581 0.0
O184 O 0.57947 0.10418 0.63901 0.0
C185 C 0.62189 0.0606 0.64571 0.0
O186 O 0.56763 0.07122 0.71063 0.0
Co187 Co 0.57389 0.03807 0.63029 0.0
O188 O 0.56753 0.04147 0.72075 0.0
C189 C 0.5336 0.06245 0.56863 0.0
C190 C 0.59224 0.10588 0.58593 0.0
C191 C 0.5633 0.05702 0.74265 0.0
O192 O 0.54791 0.07626 0.58492 0.0
O193 O 0.54118 0.0464 0.57976 0.0
O194 O 0.62239 0.0769 0.66637 0.0
O195 O 0.60072 0.0566 0.61107 0.0
Co196 Co 0.75132 0.82446 0.17873 0.0
O197 O 0.73368 0.84042 0.12199 0.0
O198 O 0.7155 0.81468 0.15348 0.0
C199 C 0.76276 0.84484 0.25066 0.0
O200 O 0.76443 0.80493 0.23816 0.0
Co201 Co 0.81541 0.82901 0.19506 0.0
O202 O 0.81078 0.80902 0.25392 0.0
C203 C 0.79471 0.80984 0.08578 0.0
C204 C 0.71314 0.82913 0.12033 0.0
C205 C 0.78802 0.80054 0.26318 0.0
O206 O 0.76993 0.81195 0.10759 0.0
O207 O 0.81648 0.8165 0.11177 0.0
O208 O 0.73774 0.83817 0.24815 0.0
O209 O 0.77924 0.84073 0.20459 0.0
Co210 Co 0.88937 0.93231 0.10388 0.0
O211 O 0.87489 0.91959 0.03291 0.0
O212 O 0.89567 0.90717 0.11461 0.0
C213 C 0.85235 0.95046 0.12032 0.0
O214 O 0.90623 0.94031 0.18595 0.0
Co215 Co 0.90011 0.9732 0.10451 0.0
O216 O 0.9064 0.97011 0.19511 0.0
C217 C 0.94083 0.94895 0.04395 0.0
C218 C 0.8835 0.90523 0.06093 0.0
C219 C 0.91044 0.95461 0.2176 0.0
O220 O 0.92671 0.93515 0.06087 0.0
O221 O 0.933 0.965 0.05422 0.0
O222 O 0.85191 0.93414 0.14067 0.0
O223 O 0.87348 0.9545 0.08558 0.0
Co224 Co 0.77503 0.68439 0.67916 0.0
O225 O 0.76156 0.667 0.62134 0.0
O226 O 0.73637 0.6895 0.65857 0.0
C227 C 0.79472 0.66515 0.74583 0.0
O228 O 0.78252 0.70473 0.74064 0.0
Co229 Co 0.83928 0.68893 0.69193 0.0
O230 O 0.82896 0.7054 0.76014 0.0
C231 C 0.81075 0.70482 0.58483 0.0
C232 C 0.73787 0.67546 0.62301 0.0
C233 C 0.80408 0.71089 0.76989 0.0
O234 O 0.78755 0.69963 0.60854 0.0
O235 O 0.83463 0.70118 0.60889 0.0
O236 O 0.76804 0.66839 0.74731 0.0
O237 O 0.80838 0.67209 0.69946 0.0
Co238 Co 0.59415 0.42217 0.08894 0.0
O239 O 0.61082 0.41466 0.01197 0.0
O240 O 0.59522 0.39638 0.08523 0.0
C241 C 0.62674 0.44311 0.1111 0.0
O242 O 0.57628 0.42484 0.17468 0.0
Co243 Co 0.57387 0.4612 0.11022 0.0
O244 O 0.57162 0.45383 0.19855 0.0
C245 C 0.53857 0.43563 0.03919 0.0
C246 C 0.60718 0.39843 0.03126 0.0
C247 C 0.57026 0.43741 0.21327 0.0
O248 O 0.55601 0.4228 0.04845 0.0
O249 O 0.54271 0.45168 0.05734 0.0
O250 O 0.63135 0.42651 0.12517 0.0
O251 O 0.60389 0.44617 0.08105 0.0
Co252 Co 0.75354 0.31217 0.23222 0.0
O253 O 0.75811 0.32835 0.16381 0.0
O254 O 0.77804 0.30177 0.16945 0.0
C255 C 0.76622 0.33285 0.30841 0.0
O256 O 0.7506 0.29348 0.29606 0.0
Co257 Co 0.71425 0.32223 0.23319 0.0
O258 O 0.70744 0.3039 0.30295 0.0
C259 C 0.70808 0.3031 0.14352 0.0
C260 C 0.77422 0.31648 0.13876 0.0
C261 C 0.72614 0.2927 0.32017 0.0
O262 O 0.72375 0.29765 0.18713 0.0
O263 O 0.70099 0.31923 0.14495 0.0
O264 O 0.78317 0.32432 0.27375 0.0
O265 O 0.73964 0.3301 0.29973 0.0
Co266 Co 0.89247 0.58331 0.61098 0.0
O267 O 0.87971 0.59522 0.53677 0.0
O268 O 0.88917 0.6084 0.62707 0.0
C269 C 0.86172 0.56044 0.60854 0.0
O270 O 0.90486 0.57642 0.69782 0.0
Co271 Co 0.91591 0.54474 0.6159 0.0
O272 O 0.91195 0.54706 0.70744 0.0
C273 C 0.95186 0.57451 0.5716 0.0
C274 C 0.88088 0.60977 0.56973 0.0
C275 C 0.90974 0.56257 0.73107 0.0
O276 O 0.93266 0.58613 0.58303 0.0
O277 O 0.9486 0.55771 0.57909 0.0
O278 O 0.85418 0.57579 0.63132 0.0
O279 O 0.88638 0.55991 0.58415 0.0
Co280 Co 0.78933 0.31178 0.79127 0.0
O281 O 0.77245 0.33164 0.8317 0.0
O282 O 0.75015 0.30655 0.80957 0.0
C283 C 0.8095 0.32771 0.71613 0.0
O284 O 0.80104 0.28874 0.74678 0.0
Co285 Co 0.85313 0.30913 0.79231 0.0
O286 O 0.84702 0.2914 0.72529 0.0
C287 C 0.82248 0.29834 0.9038 0.0
C288 C 0.74938 0.3226 0.83289 0.0
C289 C 0.82359 0.28347 0.71901 0.0
O290 O 0.80001 0.30164 0.87356 0.0
O291 O 0.8469 0.30121 0.88117 0.0
O292 O 0.78359 0.3227 0.71195 0.0
O293 O 0.8221 0.32468 0.76875 0.0
Co294 Co 0.89938 0.42482 0.85667 0.0
O295 O 0.8685 0.41567 0.9039 0.0
O296 O 0.89903 0.39905 0.85198 0.0
C297 C 0.8743 0.44649 0.80933 0.0
O298 O 0.93313 0.42931 0.80096 0.0
Co299 Co 0.91997 0.46395 0.87297 0.0
O300 O 0.94475 0.45834 0.80124 0.0
C301 C 0.93228 0.43696 0.96921 0.0
C302 C 0.87668 0.39993 0.88656 0.0
C303 C 0.94813 0.44243 0.78157 0.0
O304 O 0.9244 0.42426 0.93271 0.0
O305 O 0.92905 0.45351 0.95645 0.0
O306 O 0.87397 0.43036 0.7871 0.0
O307 O 0.88811 0.44857 0.86028 0.0
Co308 Co 0.75092 0.69795 0.24287 0.0
O309 O 0.76097 0.68117 0.30613 0.0
O310 O 0.77633 0.709 0.30237 0.0
C311 C 0.76379 0.67902 0.16169 0.0
O312 O 0.74297 0.71733 0.18345 0.0
Co313 Co 0.71149 0.68644 0.2424 0.0
O314 O 0.70035 0.70608 0.18087 0.0
C315 C 0.7079 0.7011 0.34149 0.0
C316 C 0.77626 0.69363 0.33021 0.0
C317 C 0.71786 0.71794 0.16309 0.0
O318 O 0.72082 0.70923 0.29825 0.0
O319 O 0.70291 0.68483 0.33344 0.0
O320 O 0.78053 0.68871 0.19294 0.0
O321 O 0.73736 0.67974 0.1757 0.0
Co322 Co 0.59982 0.56831 0.36607 0.0
O323 O 0.61609 0.57801 0.44073 0.0
O324 O 0.59732 0.59393 0.36431 0.0
C325 C 0.63458 0.5488 0.34491 0.0
O326 O 0.58181 0.5636 0.28188 0.0
Co327 Co 0.58418 0.52825 0.35134 0.0
O328 O 0.57902 0.53428 0.26227 0.0
C329 C 0.5465 0.55276 0.42057 0.0
C330 C 0.60997 0.59357 0.41789 0.0
C331 C 0.57627 0.55046 0.24541 0.0
O332 O 0.5622 0.56629 0.40842 0.0
O333 O 0.5525 0.53675 0.40474 0.0
O334 O 0.63702 0.5654 0.32846 0.0
O335 O 0.61263 0.545 0.37724 0.0
Co336 Co 0.20668 0.30079 0.30759 0.0
O337 O 0.22855 0.31703 0.35559 0.0
O338 O 0.23737 0.28808 0.34742 0.0
C339 C 0.2067 0.31817 0.22258 0.0
O340 O 0.18941 0.28008 0.25921 0.0
Co341 Co 0.14846 0.3107 0.26543 0.0
O342 O 0.15087 0.28969 0.21007 0.0
C343 C 0.15551 0.29809 0.39271 0.0
C344 C 0.24471 0.30368 0.36833 0.0
C345 C 0.16922 0.27776 0.22023 0.0
O346 O 0.18168 0.29629 0.38085 0.0
O347 O 0.13781 0.30396 0.3531 0.0
O348 O 0.22698 0.30725 0.23438 0.0
O349 O 0.18713 0.31942 0.26467 0.0
Co350 Co 0.37898 0.57297 0.85992 0.0
O351 O 0.36316 0.58597 0.92893 0.0
O352 O 0.38352 0.59813 0.84623 0.0
C353 C 0.3435 0.55346 0.84466 0.0
O354 O 0.39696 0.56475 0.77938 0.0
Co355 Co 0.3928 0.53245 0.86398 0.0
O356 O 0.39893 0.53494 0.77308 0.0
C357 C 0.4316 0.55853 0.92181 0.0
C358 C 0.37107 0.60027 0.89948 0.0
C359 C 0.40217 0.55034 0.74921 0.0
O360 O 0.4163 0.57174 0.90424 0.0
O361 O 0.42518 0.54218 0.91255 0.0
O362 O 0.34191 0.56954 0.82235 0.0
O363 O 0.3647 0.55045 0.88038 0.0
Co364 Co 0.27837 0.68478 0.7696 0.0
O365 O 0.2617 0.66838 0.82628 0.0
O366 O 0.24074 0.6927 0.79046 0.0
C367 C 0.29425 0.66454 0.7019 0.0
O368 O 0.29058 0.70444 0.70919 0.0
Co369 Co 0.34292 0.68388 0.76344 0.0
O370 O 0.33744 0.70201 0.69791 0.0
C371 C 0.31657 0.70237 0.86736 0.0
C372 C 0.23977 0.67853 0.82549 0.0
C373 C 0.31412 0.70938 0.68475 0.0
O374 O 0.29318 0.69885 0.84108 0.0
O375 O 0.33999 0.69664 0.84627 0.0
O376 O 0.26843 0.66985 0.70057 0.0
O377 O 0.30901 0.66987 0.74938 0.0
Co378 Co 0.1331 0.42256 0.35561 0.0
O379 O 0.16526 0.41282 0.39665 0.0
O380 O 0.13292 0.39683 0.34741 0.0
C381 C 0.15664 0.44476 0.30739 0.0
O382 O 0.09804 0.4279 0.30526 0.0
Co383 Co 0.11369 0.46161 0.38091 0.0
O384 O 0.08815 0.45717 0.30944 0.0
C385 C 0.10244 0.4334 0.4734 0.0
C386 C 0.15636 0.39735 0.37827 0.0
C387 C 0.0836 0.44154 0.28831 0.0
O388 O 0.10999 0.42115 0.43468 0.0
O389 O 0.10548 0.45009 0.46299 0.0
O390 O 0.15639 0.42885 0.28322 0.0
O391 O 0.1447 0.44621 0.36087 0.0
Co392 Co 0.25568 0.69529 0.20119 0.0
O393 O 0.27683 0.67963 0.15013 0.0
O394 O 0.28187 0.70906 0.15061 0.0
C395 C 0.26169 0.67929 0.28816 0.0
O396 O 0.23678 0.71525 0.25145 0.0
Co397 Co 0.20063 0.68121 0.24856 0.0
O398 O 0.20021 0.70276 0.3008 0.0
C399 C 0.20184 0.69441 0.12242 0.0
C400 C 0.28912 0.69358 0.12809 0.0
C401 C 0.21617 0.71601 0.29042 0.0
O402 O 0.22765 0.69771 0.13287 0.0
O403 O 0.1858 0.68731 0.16304 0.0
O404 O 0.27995 0.69096 0.27008 0.0
O405 O 0.241 0.67613 0.24996 0.0
Co406 Co 0.09629 0.58053 0.10591 0.0
O407 O 0.10768 0.58929 0.0254 0.0
O408 O 0.09905 0.60611 0.1082 0.0
C409 C 0.12807 0.55828 0.11052 0.0
O410 O 0.08518 0.57714 0.19644 0.0
Co411 Co 0.07479 0.54212 0.13143 0.0
O412 O 0.07934 0.54834 0.2205 0.0
C413 C 0.03711 0.5692 0.07457 0.0
C414 C 0.10682 0.60509 0.05032 0.0
C415 C 0.08094 0.56467 0.23628 0.0
O416 O 0.05569 0.58158 0.08014 0.0
O417 O 0.04145 0.55289 0.08923 0.0
O418 O 0.13526 0.5744 0.12622 0.0
O419 O 0.10288 0.55642 0.09007 0.0
Co420 Co 0.28485 0.31602 0.75198 0.0
O421 O 0.28365 0.33336 0.6866 0.0
O422 O 0.25524 0.31026 0.69217 0.0
C423 C 0.28302 0.33705 0.83206 0.0
O424 O 0.28402 0.29687 0.81503 0.0
Co425 Co 0.32488 0.32132 0.74033 0.0
O426 O 0.32906 0.30357 0.81292 0.0
C427 C 0.31976 0.30132 0.65125 0.0
C428 C 0.26294 0.32463 0.6629 0.0
C429 C 0.30888 0.29428 0.8354 0.0
O430 O 0.30656 0.29781 0.70089 0.0
O431 O 0.33189 0.31618 0.64929 0.0
O432 O 0.2622 0.33183 0.79987 0.0
O433 O 0.3074 0.33063 0.81725 0.0
Co434 Co 0.37003 0.42201 0.59346 0.0
O435 O 0.35089 0.41151 0.52349 0.0
O436 O 0.36969 0.39645 0.60184 0.0
C437 C 0.3386 0.44383 0.61361 0.0
O438 O 0.39025 0.42756 0.67432 0.0
Co439 Co 0.39145 0.46119 0.59518 0.0
O440 O 0.39631 0.45704 0.68566 0.0
C441 C 0.42494 0.43307 0.53264 0.0
C442 C 0.35604 0.39621 0.54948 0.0
C443 C 0.39745 0.4412 0.70685 0.0
O444 O 0.40697 0.42097 0.54734 0.0
O445 O 0.42194 0.44963 0.54544 0.0
O446 O 0.33422 0.42772 0.63376 0.0
O447 O 0.36002 0.44571 0.57761 0.0
H448 H 0.28504 0.15611 0.68032 0.0
H449 H 0.20471 0.16883 0.60011 0.0
H450 H 0.30088 0.14406 0.58062 0.0
H451 H 0.22044 0.15707 0.49992 0.0
H452 H 0.3251 0.16682 0.37982 0.0
H453 H 0.31299 0.16157 0.48859 0.0
H454 H 0.23804 0.13368 0.43109 0.0
H455 H 0.24971 0.13964 0.32269 0.0
C456 C 0.27038 0.15558 0.64177 0.0
C457 C 0.24365 0.16325 0.64745 0.0
C458 C 0.27954 0.14886 0.58465 0.0
C459 C 0.26214 0.14983 0.53208 0.0
C460 C 0.23433 0.15592 0.53959 0.0
C461 C 0.22518 0.16263 0.59695 0.0
C462 C 0.30671 0.15896 0.39039 0.0
C463 C 0.2879 0.15412 0.34324 0.0
C464 C 0.29969 0.15588 0.45284 0.0
C465 C 0.27401 0.14768 0.46847 0.0
C466 C 0.25753 0.14046 0.4206 0.0
C467 C 0.2644 0.1437 0.35853 0.0
H468 H 0.17455 0.9419 0.72873 0.0
H469 H 0.15322 0.97881 0.58211 0.0
H470 H 0.19152 0.96668 0.79242 0.0
H471 H 0.169 0.00346 0.64578 0.0
H472 H 0.18733 0.04769 0.76634 0.0
H473 H 0.20005 0.02143 0.70501 0.0
H474 H 0.16279 0.98759 0.84541 0.0
H475 H 0.15123 0.01357 0.90697 0.0
C476 C 0.17433 0.95522 0.70933 0.0
C477 C 0.16196 0.95851 0.65115 0.0
C478 C 0.18385 0.96944 0.74596 0.0
C479 C 0.18099 0.98714 0.725 0.0
C480 C 0.17167 0.99008 0.66373 0.0
C481 C 0.16233 0.97591 0.62722 0.0
C482 C 0.18283 0.03458 0.78497 0.0
C483 C 0.1677 0.03266 0.84065 0.0
C484 C 0.18996 0.01954 0.7497 0.0
C485 C 0.18192 0.00238 0.76947 0.0
C486 C 0.16951 1.0005 0.82853 0.0
C487 C 0.16256 0.01547 0.86373 0.0
H488 H 0.22811 0.86543 0.18754 0.0
H489 H 0.30371 0.84016 0.122 0.0
H490 H 0.21557 0.87325 0.08093 0.0
H491 H 0.29148 0.84822 0.01521 0.0
H492 H 0.19049 0.83237 0.90985 0.0
H493 H 0.20238 0.84568 0.01042 0.0
H494 H 0.2749 0.87077 0.92815 0.0
H495 H 0.26248 0.85783 0.82742 0.0
C496 C 0.24295 0.86258 0.1506 0.0
C497 C 0.26674 0.85207 0.16258 0.0
C498 C 0.23561 0.86693 0.08961 0.0
C499 C 0.25222 0.86102 0.03992 0.0
C500 C 0.27829 0.85298 0.0528 0.0
C501 C 0.2855 0.84846 0.11402 0.0
C502 C 0.20779 0.84171 0.91246 0.0
C503 C 0.22552 0.84416 0.86128 0.0
C504 C 0.2148 0.84925 0.97007 0.0
C505 C 0.23984 0.85905 0.97705 0.0
C506 C 0.2556 0.86324 0.92401 0.0
C507 C 0.24833 0.85595 0.86639 0.0
H508 H 0.29828 0.06004 0.25362 0.0
H509 H 0.32424 0.0251 0.10455 0.0
H510 H 0.28377 0.03416 0.31479 0.0
H511 H 0.31114 0.99942 0.16575 0.0
H512 H 0.29956 0.95363 0.28155 0.0
H513 H 0.28314 0.9794 0.22222 0.0
H514 H 0.31338 0.01434 0.36789 0.0
H515 H 0.32841 0.98877 0.42739 0.0
C516 C 0.30007 0.04689 0.23317 0.0
C517 C 0.31299 0.04453 0.175 0.0
C518 C 0.292 0.03202 0.26837 0.0
C519 C 0.29694 0.0146 0.24609 0.0
C520 C 0.30685 0.01251 0.18481 0.0
C521 C 0.31468 0.0273 0.1497 0.0
C522 C 0.30156 0.9668 0.30181 0.0
C523 C 0.31581 0.96926 0.35836 0.0
C524 C 0.29241 0.9816 0.26762 0.0
C525 C 0.29758 0.99905 0.28931 0.0
C526 C 0.30887 1.00123 0.34934 0.0
C527 C 0.31779 0.9865 0.38346 0.0
H528 H 0.80812 0.83798 0.32418 0.0
H529 H 0.73447 0.87093 0.30864 0.0
H530 H 0.80708 0.8415 0.43693 0.0
H531 H 0.73366 0.87493 0.42128 0.0
H532 H 0.79902 0.84596 0.63856 0.0
H533 H 0.807 0.85782 0.53464 0.0
H534 H 0.71888 0.85143 0.49338 0.0
H535 H 0.71088 0.83989 0.59855 0.0
C536 C 0.79274 0.84683 0.34457 0.0
C537 C 0.77115 0.85394 0.30817 0.0
C538 C 0.79195 0.8488 0.40938 0.0
C539 C 0.76968 0.85806 0.43816 0.0
C540 C 0.7506 0.86734 0.4006 0.0
C541 C 0.75134 0.86528 0.33607 0.0
C542 C 0.78121 0.84753 0.60771 0.0
C543 C 0.75437 0.84179 0.62592 0.0
C544 C 0.78584 0.8543 0.54821 0.0
C545 C 0.76374 0.85531 0.50539 0.0
C546 C 0.73637 0.85097 0.52546 0.0
C547 C 0.7317 0.84431 0.58555 0.0
H548 H 0.82751 0.05523 0.26742 0.0
H549 H 0.85971 0.01857 0.4047 0.0
H550 H 0.80947 0.0301 0.20673 0.0
H551 H 0.84289 0.99366 0.34389 0.0
H552 H 0.82249 0.94918 0.22961 0.0
H553 H 0.81005 0.97491 0.29372 0.0
H554 H 0.83573 0.01003 0.14466 0.0
H555 H 0.8469 0.98449 0.08053 0.0
C556 C 0.83005 0.04185 0.28546 0.0
C557 C 0.84555 0.0388 0.33998 0.0
C558 C 0.81987 0.02744 0.25058 0.0
C559 C 0.82517 0.00978 0.26962 0.0
C560 C 0.83814 0.00697 0.3276 0.0
C561 C 0.84815 0.02131 0.36235 0.0
C562 C 0.82429 0.96239 0.20977 0.0
C563 C 0.83635 0.96488 0.15077 0.0
C564 C 0.8174 0.97716 0.24665 0.0
C565 C 0.82268 0.99459 0.22519 0.0
C566 C 0.83134 0.9969 0.16311 0.0
C567 C 0.83802 0.98219 0.12629 0.0
H568 H 0.75205 0.13693 0.84812 0.0
H569 H 0.68224 0.17107 0.89315 0.0
H570 H 0.75752 0.12929 0.95784 0.0
H571 H 0.68743 0.16334 0.00317 0.0
H572 H 0.78673 0.16094 0.14371 0.0
H573 H 0.77563 0.15212 0.03656 0.0
H574 H 0.69035 0.14076 0.09119 0.0
H575 H 0.70153 0.1495 0.19772 0.0
C576 C 0.73686 0.142 0.88127 0.0
C577 C 0.71671 0.15457 0.86253 0.0
C578 C 0.74025 0.13779 0.94407 0.0
C579 C 0.72331 0.14598 0.98908 0.0
C580 C 0.70077 0.15676 0.96938 0.0
C581 C 0.69752 0.16108 0.90632 0.0
C582 C 0.76611 0.15568 0.13331 0.0
C583 C 0.74495 0.15597 0.17849 0.0
C584 C 0.75962 0.15071 0.07199 0.0
C585 C 0.73192 0.14604 0.05547 0.0
C586 C 0.7117 0.14451 0.10243 0.0
C587 C 0.71819 0.1494 0.16338 0.0
H588 H 0.62289 0.99066 0.92495 0.0
H589 H 0.65373 0.95561 0.78081 0.0
H590 H 0.63824 0.01628 0.86596 0.0
H591 H 0.67026 0.98143 0.72195 0.0
H592 H 0.65367 0.06184 0.75234 0.0
H593 H 0.66879 0.03607 0.81321 0.0
H594 H 0.64112 1.00114 0.66506 0.0
H595 H 0.62721 0.02672 0.60415 0.0
C596 C 0.63397 0.98842 0.88156 0.0
C597 C 0.63641 0.9712 0.85663 0.0
C598 C 0.64309 0.00317 0.8478 0.0
C599 C 0.65497 1.001 0.78831 0.0
C600 C 0.66058 0.98359 0.76698 0.0
C601 C 0.6513 0.96878 0.80085 0.0
C602 C 0.65191 0.04868 0.73197 0.0
C603 C 0.6386 0.04622 0.67429 0.0
C604 C 0.66039 0.03389 0.76696 0.0
C605 C 0.65551 0.01646 0.74487 0.0
C606 C 0.64533 0.01426 0.68388 0.0
C607 C 0.63703 0.02899 0.64898 0.0
H608 H 0.77872 0.63426 0.79805 0.0
H609 H 0.8378 0.67729 0.81867 0.0
H610 H 0.77801 0.63008 0.91042 0.0
H611 H 0.83589 0.67402 0.9311 0.0
H612 H 0.73356 0.66298 0.06904 0.0
H613 H 0.75157 0.6514 0.97108 0.0
H614 H 0.83643 0.66084 0.0337 0.0
H615 H 0.8183 0.67274 0.13134 0.0
C616 C 0.79271 0.64223 0.82652 0.0
C617 C 0.80743 0.65658 0.80028 0.0
C618 C 0.79195 0.64003 0.89096 0.0
C619 C 0.80569 0.65231 0.92975 0.0
C620 C 0.8246 0.6645 0.90267 0.0
C621 C 0.82571 0.66644 0.83793 0.0
C622 C 0.75604 0.6622 0.06244 0.0
C623 C 0.77444 0.66912 0.10718 0.0
C624 C 0.76648 0.65539 0.00648 0.0
C625 C 0.79555 0.65529 0.99434 0.0
C626 C 0.81398 0.66094 0.04127 0.0
C627 C 0.80354 0.66779 0.09711 0.0
H628 H 0.66332 0.54934 0.23415 0.0
H629 H 0.64082 0.51531 0.38819 0.0
H630 H 0.67612 0.52307 0.17281 0.0
H631 H 0.65267 0.48923 0.3272 0.0
H632 H 0.62621 0.47724 0.07174 0.0
H633 H 0.64252 0.5032 0.12787 0.0
H634 H 0.68047 0.4691 0.26651 0.0
H635 H 0.66322 0.44287 0.21027 0.0
C636 C 0.66211 0.53631 0.25565 0.0
C637 C 0.65052 0.53427 0.31528 0.0
C638 C 0.66923 0.52125 0.22045 0.0
C639 C 0.66477 0.50399 0.24446 0.0
C640 C 0.65648 0.50222 0.30697 0.0
C641 C 0.6494 0.51721 0.34193 0.0
C642 C 0.63865 0.47525 0.11338 0.0
C643 C 0.64289 0.45808 0.1375 0.0
C644 C 0.64836 0.49018 0.14532 0.0
C645 C 0.66254 0.4883 0.20231 0.0
C646 C 0.66924 0.47101 0.2232 0.0
C647 C 0.65948 0.45598 0.19097 0.0
H648 H 0.82032 0.34236 0.32969 0.0
H649 H 0.7378 0.34397 0.41251 0.0
H650 H 0.84125 0.34967 0.43001 0.0
H651 H 0.7588 0.35149 0.51279 0.0
H652 H 0.84582 0.31723 0.62673 0.0
H653 H 0.84073 0.3272 0.51948 0.0
H654 H 0.78981 0.37136 0.58156 0.0
H655 H 0.79534 0.36139 0.689 0.0
C656 C 0.80656 0.34482 0.36892 0.0
C657 C 0.77743 0.34215 0.36373 0.0
C658 C 0.81862 0.34907 0.42623 0.0
C659 C 0.80174 0.35095 0.47922 0.0
C660 C 0.77236 0.35025 0.47254 0.0
C661 C 0.76028 0.34585 0.41517 0.0
C662 C 0.83539 0.3298 0.61787 0.0
C663 C 0.82094 0.33854 0.66571 0.0
C664 C 0.83216 0.33546 0.55629 0.0
C665 C 0.81423 0.34981 0.54223 0.0
C666 C 0.80343 0.36014 0.59115 0.0
C667 C 0.80695 0.35458 0.65267 0.0
H668 H 0.86959 0.47996 0.85488 0.0
H669 H 0.85023 0.44807 0.69285 0.0
H670 H 0.85438 0.5065 0.80107 0.0
H671 H 0.83406 0.47493 0.63859 0.0
H672 H 0.86687 0.52877 0.55002 0.0
H673 H 0.85946 0.49969 0.59615 0.0
H674 H 0.81882 0.52447 0.75406 0.0
H675 H 0.82721 0.55381 0.7082 0.0
C676 C 0.86156 0.47858 0.80791 0.0
C677 C 0.86161 0.46197 0.77762 0.0
C678 C 0.85238 0.49383 0.77725 0.0
C679 C 0.84293 0.49292 0.71536 0.0
C680 C 0.84144 0.47611 0.68611 0.0
C681 C 0.85069 0.46074 0.71706 0.0
C682 C 0.85548 0.52797 0.59361 0.0
C683 C 0.84817 0.54352 0.62624 0.0
C684 C 0.85105 0.51124 0.61999 0.0
C685 C 0.83918 0.50973 0.67962 0.0
C686 C 0.82865 0.52522 0.70866 0.0
C687 C 0.83317 0.54203 0.68218 0.0
H688 H 0.24004 0.35927 0.85852 0.0
H689 H 0.31107 0.33292 0.94219 0.0
H690 H 0.21887 0.36317 0.96103 0.0
H691 H 0.29001 0.33693 0.04488 0.0
H692 H 0.17879 0.32311 0.11347 0.0
H693 H 0.19949 0.33666 0.02065 0.0
H694 H 0.269 0.35581 0.13098 0.0
H695 H 0.24807 0.34234 0.22351 0.0
C696 C 0.25171 0.35503 0.8992 0.0
C697 C 0.27698 0.34554 0.89252 0.0
C698 C 0.23948 0.35718 0.95776 0.0
C699 C 0.25247 0.35003 0.01069 0.0
C700 C 0.2795 0.34263 0.00485 0.0
C701 C 0.2917 0.34038 0.94604 0.0
C702 C 0.19759 0.3311 0.11828 0.0
C703 C 0.21181 0.33182 0.17521 0.0
C704 C 0.20961 0.33879 0.06521 0.0
C705 C 0.23611 0.34709 0.06855 0.0
C706 C 0.24873 0.34939 0.12699 0.0
C707 C 0.23662 0.34183 0.17991 0.0
H708 H 0.30796 0.44586 0.72188 0.0
H709 H 0.34058 0.47773 0.57104 0.0
H710 H 0.29663 0.47307 0.77964 0.0
H711 H 0.33014 0.50469 0.62873 0.0
H712 H 0.31334 0.5526 0.73566 0.0
H713 H 0.29981 0.52581 0.67796 0.0
H714 H 0.32773 0.49321 0.8318 0.0
H715 H 0.34027 0.51981 0.88953 0.0
C716 C 0.312 0.45866 0.70037 0.0
C717 C 0.32555 0.45969 0.64242 0.0
C718 C 0.3057 0.47426 0.73359 0.0
C719 C 0.31283 0.49111 0.70933 0.0
C720 C 0.32407 0.49204 0.64888 0.0
C721 C 0.33033 0.47652 0.61589 0.0
C722 C 0.31559 0.53972 0.75788 0.0
C723 C 0.32832 0.53826 0.81661 0.0
C724 C 0.30807 0.52436 0.72467 0.0
C725 C 0.31318 0.5073 0.74965 0.0
C726 C 0.32329 0.50604 0.81099 0.0
C727 C 0.33073 0.52134 0.84405 0.0
H728 H 0.22789 0.66582 0.38032 0.0
H729 H 0.31326 0.66685 0.31397 0.0
H730 H 0.24419 0.65338 0.47945 0.0
H731 H 0.32952 0.6543 0.41198 0.0
H732 H 0.27347 0.63423 0.65438 0.0
H733 H 0.26853 0.63003 0.54236 0.0
H734 H 0.3313 0.67059 0.51159 0.0
H735 H 0.33629 0.67451 0.62343 0.0
C736 C 0.24992 0.66273 0.38611 0.0
C737 C 0.26935 0.66754 0.34029 0.0
C738 C 0.25935 0.65557 0.44268 0.0
C739 C 0.28828 0.65309 0.45375 0.0
C740 C 0.30724 0.6563 0.40522 0.0
C741 C 0.29787 0.66349 0.34919 0.0
C742 C 0.28755 0.64137 0.62361 0.0
C743 C 0.30484 0.65496 0.64725 0.0
C744 C 0.28431 0.6392 0.55944 0.0
C745 C 0.29871 0.65043 0.51824 0.0
C746 C 0.31967 0.66179 0.54213 0.0
C747 C 0.32281 0.66398 0.60648 0.0
H748 H 0.16338 0.47786 0.35478 0.0
H749 H 0.16935 0.44812 0.18295 0.0
H750 H 0.16763 0.50553 0.29797 0.0
H751 H 0.17466 0.47608 0.12538 0.0
H752 H 0.17156 0.55499 0.19395 0.0
H753 H 0.19069 0.52694 0.23404 0.0
H754 H 0.13974 0.49769 0.10229 0.0
H755 H 0.12165 0.52543 0.06166 0.0
C756 C 0.16636 0.47724 0.30479 0.0
C757 C 0.16533 0.46087 0.27307 0.0
C758 C 0.16919 0.49316 0.27215 0.0
C759 C 0.17115 0.49312 0.20686 0.0
C760 C 0.17269 0.4766 0.1756 0.0
C761 C 0.16976 0.46058 0.20847 0.0
C762 C 0.16527 0.54255 0.17241 0.0
C763 C 0.14474 0.54232 0.12567 0.0
C764 C 0.17605 0.52649 0.19551 0.0
C765 C 0.1664 0.51001 0.17217 0.0
C766 C 0.14789 0.51003 0.1213 0.0
C767 C 0.13722 0.52599 0.09838 0.0
H768 H 0.14086 0.10299 0.05308 0.0
H769 H 0.14697 0.12457 0.86719 0.0
H770 H 0.1649 0.1293 0.09426 0.0
H771 H 0.17208 0.15051 0.90832 0.0
H772 H 0.1984 0.18301 0.15271 0.0
H773 H 0.16186 0.16589 0.09875 0.0
H774 H 0.22303 0.14774 0.96483 0.0
H775 H 0.25954 0.16411 0.02007 0.0
C776 C 0.14687 0.11353 0.0213 0.0
C777 C 0.14222 0.11178 0.95707 0.0
C778 C 0.16039 0.12861 0.04485 0.0
C779 C 0.17007 0.14194 0.00432 0.0
C780 C 0.16443 0.14052 0.94038 0.0
C781 C 0.15018 0.12568 0.917 0.0
C782 C 0.20374 0.17584 0.11051 0.0
C783 C 0.23167 0.17492 0.09011 0.0
C784 C 0.18293 0.16602 0.07996 0.0
C785 C 0.18977 0.15553 0.02793 0.0
C786 C 0.21722 0.15589 0.0045 0.0
C787 C 0.23811 0.16527 0.036 0.0
H788 H 0.22671 0.83196 0.47221 0.0
H789 H 0.16994 0.81441 0.32831 0.0
H790 H 0.18785 0.84533 0.52887 0.0
H791 H 0.13084 0.82869 0.38388 0.0
H792 H 0.11564 0.87008 0.61994 0.0
H793 H 0.13551 0.84242 0.57803 0.0
H794 H 0.13489 0.86518 0.39351 0.0
H795 H 0.11599 0.89294 0.43545 0.0
C796 C 0.20563 0.83038 0.4541 0.0
C797 C 0.20111 0.82225 0.39619 0.0
C798 C 0.18339 0.83795 0.48658 0.0
C799 C 0.15645 0.83809 0.46042 0.0
C800 C 0.15145 0.82858 0.40505 0.0
C801 C 0.17371 0.82043 0.37343 0.0
C802 C 0.11889 0.86892 0.57016 0.0
C803 C 0.11479 0.88367 0.5309 0.0
C804 C 0.13008 0.8531 0.54629 0.0
C805 C 0.13653 0.85171 0.48266 0.0
C806 C 0.12969 0.86584 0.4426 0.0
C807 C 0.11921 0.88178 0.46665 0.0
H808 H 0.36496 0.87704 0.3946 0.0
H809 H 0.35954 0.90462 0.57091 0.0
H810 H 0.35322 0.84894 0.44661 0.0
H811 H 0.3483 0.87662 0.62271 0.0
H812 H 0.33178 0.82508 0.71034 0.0
H813 H 0.3634 0.84414 0.64921 0.0
H814 H 0.30474 0.84286 0.49609 0.0
H815 H 0.27299 0.82491 0.55829 0.0
C816 C 0.36192 0.87702 0.4446 0.0
C817 C 0.36268 0.89303 0.47865 0.0
C818 C 0.35537 0.86095 0.4743 0.0
C819 C 0.35004 0.8606 0.53868 0.0
C820 C 0.35275 0.87643 0.57323 0.0
C821 C 0.35879 0.8925 0.54343 0.0
C822 C 0.32655 0.8281 0.6624 0.0
C823 C 0.3005 0.82308 0.63784 0.0
C824 C 0.34444 0.83911 0.62768 0.0
C825 C 0.3365 0.84495 0.56792 0.0
C826 C 0.31169 0.83835 0.54146 0.0
C827 C 0.29361 0.82786 0.57672 0.0
H828 H 0.278 0.198 0.9654 0.0
H829 H 0.33141 0.18639 0.80884 0.0
H830 H 0.30559 0.17802 0.0303 0.0
H831 H 0.3598 0.16686 0.87411 0.0
H832 H 0.34835 0.10947 0.95746 0.0
H833 H 0.33877 0.13754 0.90526 0.0
H834 H 0.34986 0.16581 0.07897 0.0
H835 H 0.35983 0.13748 0.13148 0.0
C836 C 0.29679 0.19214 0.946 0.0
C837 C 0.30246 0.19355 0.88211 0.0
C838 C 0.31233 0.18043 0.9829 0.0
C839 C 0.33419 0.1704 0.95654 0.0
C840 C 0.34269 0.17418 0.89528 0.0
C841 C 0.32685 0.18568 0.85824 0.0
C842 C 0.34908 0.12167 0.98442 0.0
C843 C 0.35465 0.12128 0.04853 0.0
C844 C 0.34396 0.1378 0.95438 0.0
C845 C 0.34394 0.15393 0.98786 0.0
C846 C 0.34996 0.15361 0.05194 0.0
C847 C 0.35559 0.13742 0.08191 0.0
H848 H 0.87912 0.8964 0.9386 0.0
H849 H 0.87552 0.87416 0.12387 0.0
H850 H 0.86278 0.86806 0.89549 0.0
H851 H 0.85805 0.84599 0.08062 0.0
H852 H 0.83836 0.81238 0.83584 0.0
H853 H 0.87267 0.82948 0.89745 0.0
H854 H 0.80578 0.84924 0.01385 0.0
H855 H 0.77175 0.83307 0.95096 0.0
C856 C 0.87544 0.88532 0.96984 0.0
C857 C 0.87821 0.88746 0.03445 0.0
C858 C 0.86648 0.86907 0.94518 0.0
C859 C 0.85953 0.85489 0.98488 0.0
C860 C 0.8638 0.85668 0.04924 0.0
C861 C 0.87354 0.8728 0.07382 0.0
C862 C 0.83134 0.81971 0.87646 0.0
C863 C 0.80264 0.82139 0.88935 0.0
C864 C 0.85085 0.82949 0.91137 0.0
C865 C 0.84171 0.8405 0.96035 0.0
C866 C 0.81331 0.84064 0.97684 0.0
C867 C 0.79388 0.83143 0.94088 0.0
H868 H 0.76511 0.15995 0.55738 0.0
H869 H 0.82652 0.18275 0.68183 0.0
H870 H 0.80241 0.14636 0.49604 0.0
H871 H 0.86415 0.16822 0.62161 0.0
H872 H 0.88397 0.10346 0.56322 0.0
H873 H 0.8619 0.12923 0.61287 0.0
H874 H 0.85423 0.15489 0.43402 0.0
H875 H 0.87732 0.12935 0.38429 0.0
C876 C 0.7867 0.16229 0.57082 0.0
C877 C 0.79309 0.17218 0.62445 0.0
C878 C 0.80799 0.15468 0.53546 0.0
C879 C 0.83599 0.1563 0.55435 0.0
C880 C 0.84263 0.16699 0.6061 0.0
C881 C 0.82122 0.1752 0.64044 0.0
C882 C 0.87845 0.11486 0.53486 0.0
C883 C 0.88202 0.1144 0.47001 0.0
C884 C 0.86613 0.12965 0.56329 0.0
C885 C 0.85664 0.14399 0.52709 0.0
C886 C 0.8618 0.14405 0.46274 0.0
C887 C 0.87483 0.12943 0.43445 0.0
H888 H 0.59955 0.11498 0.4646 0.0
H889 H 0.6025 0.13627 0.65143 0.0
H890 H 0.62134 0.14218 0.42517 0.0
H891 H 0.62535 0.16328 0.612 0.0
H892 H 0.71677 0.17042 0.49945 0.0
H893 H 0.6776 0.15779 0.55718 0.0
H894 H 0.61986 0.17977 0.42293 0.0
H895 H 0.65939 0.19339 0.36675 0.0
C896 C 0.60415 0.1257 0.49688 0.0
C897 C 0.5997 0.12351 0.56098 0.0
C898 C 0.6163 0.14133 0.4743 0.0
C899 C 0.6248 0.1548 0.51566 0.0
C900 C 0.61858 0.15315 0.57929 0.0
C901 C 0.60569 0.13769 0.60171 0.0
C902 C 0.69559 0.17335 0.48426 0.0
C903 C 0.69088 0.18289 0.42918 0.0
C904 C 0.6732 0.16619 0.51731 0.0
C905 C 0.64583 0.16781 0.49422 0.0
C906 C 0.64083 0.17856 0.44181 0.0
C907 C 0.66333 0.18635 0.40989 0.0
H908 H 0.59696 0.90301 0.06063 0.0
H909 H 0.59452 0.88015 0.87592 0.0
H910 H 0.61859 0.87577 0.10014 0.0
H911 H 0.61695 0.85311 0.91542 0.0
H912 H 0.65843 0.82282 0.15152 0.0
H913 H 0.61743 0.83758 0.10456 0.0
H914 H 0.67077 0.85995 0.96226 0.0
H915 H 0.71146 0.84633 0.01089 0.0
C916 C 0.60026 0.89196 0.02895 0.0
C917 C 0.59462 0.89376 0.96513 0.0
C918 C 0.61228 0.87631 0.05169 0.0
C919 C 0.6193 0.86244 0.01065 0.0
C920 C 0.61138 0.86361 0.94786 0.0
C921 C 0.59878 0.87911 0.92535 0.0
C922 C 0.66106 0.83042 0.10905 0.0
C923 C 0.68791 0.83356 0.08466 0.0
C924 C 0.63772 0.83879 0.08232 0.0
C925 C 0.64109 0.84971 0.02972 0.0
C926 C 0.66762 0.85137 0.00226 0.0
C927 C 0.69089 0.8437 0.03029 0.0
H928 H 0.62076 0.59841 0.54114 0.0
H929 H 0.62148 0.62554 0.36378 0.0
H930 H 0.64542 0.6236 0.58861 0.0
H931 H 0.64702 0.65046 0.41115 0.0
H932 H 0.68201 0.67901 0.64979 0.0
H933 H 0.64314 0.66305 0.59873 0.0
H934 H 0.70113 0.6412 0.46468 0.0
H935 H 0.73981 0.65621 0.51696 0.0
C936 C 0.62556 0.60995 0.51278 0.0
C937 C 0.61952 0.61001 0.44878 0.0
C938 C 0.6394 0.62439 0.54002 0.0
C939 C 0.64787 0.63888 0.50335 0.0
C940 C 0.64031 0.63946 0.44025 0.0
C941 C 0.62584 0.62521 0.41329 0.0
C942 C 0.68622 0.67107 0.60867 0.0
C943 C 0.71382 0.6687 0.58737 0.0
C944 C 0.66409 0.66203 0.57961 0.0
C945 C 0.66934 0.6511 0.52776 0.0
C946 C 0.69664 0.64975 0.50418 0.0
C947 C 0.71873 0.65824 0.53429 0.0
H948 H 0.621 0.39819 0.90893 0.0
H949 H 0.61994 0.36478 0.0727 0.0
H950 H 0.65013 0.37637 0.85535 0.0
H951 H 0.64952 0.34288 0.01852 0.0
H952 H 0.69796 0.30726 0.85804 0.0
H953 H 0.65647 0.32231 0.90314 0.0
H954 H 0.70231 0.3719 0.90647 0.0
H955 H 0.74313 0.35715 0.86424 0.0
C956 C 0.62635 0.38596 0.9329 0.0
C957 C 0.61871 0.38333 0.99534 0.0
C958 C 0.64286 0.37344 0.90207 0.0
C959 C 0.65213 0.35809 0.93312 0.0
C960 C 0.64237 0.35458 0.99357 0.0
C961 C 0.62562 0.36714 0.02455 0.0
C962 C 0.69901 0.32131 0.86915 0.0
C963 C 0.72381 0.33095 0.85837 0.0
C964 C 0.67541 0.32988 0.89456 0.0
C965 C 0.6763 0.34825 0.9075 0.0
C966 C 0.70103 0.35777 0.89622 0.0
C967 C 0.72447 0.34925 0.87225 0.0
H968 H 0.83004 0.31399 0.11562 0.0
H969 H 0.75118 0.32931 0.03346 0.0
H970 H 0.85511 0.33071 0.03518 0.0
H971 H 0.77602 0.34553 0.95207 0.0
H972 H 0.82403 0.39897 0.93273 0.0
H973 H 0.79898 0.37364 0.9745 0.0
H974 H 0.86813 0.33909 0.92599 0.0
H975 H 0.89363 0.36488 0.88384 0.0
C976 C 0.8182 0.32025 0.07857 0.0
C977 C 0.78885 0.32068 0.08073 0.0
C978 C 0.83249 0.3298 0.03247 0.0
C979 C 0.81746 0.33976 0.9881 0.0
C980 C 0.78811 0.33824 0.98622 0.0
C981 C 0.77389 0.32894 0.03262 0.0
C982 C 0.83384 0.38596 0.9302 0.0
C983 C 0.86094 0.38394 0.90587 0.0
C984 C 0.8193 0.37135 0.95344 0.0
C985 C 0.83152 0.3543 0.95333 0.0
C986 C 0.85825 0.35208 0.92677 0.0
C987 C 0.87279 0.3668 0.90272 0.0
H988 H 0.83162 0.70127 0.34509 0.0
H989 H 0.76097 0.67563 0.43272 0.0
H990 H 0.86349 0.68535 0.4158 0.0
H991 H 0.79249 0.66048 0.50489 0.0
H992 H 0.88271 0.62053 0.44897 0.0
H993 H 0.8623 0.64766 0.40511 0.0
H994 H 0.83686 0.66446 0.58883 0.0
H995 H 0.85829 0.63766 0.63332 0.0
C996 C 0.82292 0.69294 0.38147 0.0
C997 C 0.79406 0.68944 0.38361 0.0
C998 C 0.84106 0.68386 0.42163 0.0
C999 C 0.83027 0.67172 0.46526 0.0
C1000 C 0.80118 0.66989 0.47186 0.0
C1001 C 0.78322 0.67846 0.43058 0.0
C1002 C 0.87341 0.63025 0.48007 0.0
C1003 C 0.87181 0.62701 0.54426 0.0
C1004 C 0.86208 0.64584 0.45517 0.0
C1005 C 0.84841 0.65816 0.49394 0.0
C1006 C 0.84778 0.65527 0.55843 0.0
C1007 C 0.85983 0.63992 0.58359 0.0
H1008 H 0.36277 0.36229 0.59431 0.0
H1009 H 0.32732 0.39198 0.44099 0.0
H1010 H 0.34479 0.33459 0.54886 0.0
H1011 H 0.309 0.36451 0.39684 0.0
H1012 H 0.28885 0.31578 0.30493 0.0
H1013 H 0.32393 0.33584 0.34869 0.0
H1014 H 0.29611 0.32228 0.53385 0.0
H1015 H 0.26143 0.30169 0.48944 0.0
C1016 C 0.35131 0.36289 0.55082 0.0
C1017 C 0.34639 0.37932 0.52123 0.0
C1018 C 0.34099 0.34705 0.52505 0.0
C1019 C 0.32571 0.34736 0.46922 0.0
C1020 C 0.32128 0.36377 0.43921 0.0
C1021 C 0.33153 0.37956 0.46485 0.0
C1022 C 0.29137 0.31633 0.35509 0.0
C1023 C 0.27237 0.30751 0.39418 0.0
C1024 C 0.3111 0.32803 0.3801 0.0
C1025 C 0.31193 0.3311 0.44458 0.0
C1026 C 0.2955 0.32039 0.48394 0.0
C1027 C 0.27579 0.30858 0.45876 0.0
H1028 H 0.3669 0.60946 0.02142 0.0
H1029 H 0.3641 0.63135 0.83557 0.0
H1030 H 0.35554 0.63873 0.06445 0.0
H1031 H 0.35172 0.66062 0.87881 0.0
H1032 H 0.3458 0.69277 0.13422 0.0
H1033 H 0.37403 0.67313 0.06777 0.0
H1034 H 0.3035 0.66652 0.94408 0.0
H1035 H 0.27546 0.68572 0.01085 0.0
C1036 C 0.36414 0.62059 0.98992 0.0
C1037 C 0.36613 0.61818 0.92531 0.0
C1038 C 0.35803 0.63737 0.0145 0.0
C1039 C 0.35321 0.65193 0.97485 0.0
C1040 C 0.35582 0.64963 0.91022 0.0
C1041 C 0.36269 0.63292 0.88565 0.0
C1042 C 0.33706 0.68808 0.0906 0.0
C1043 C 0.30872 0.69097 0.07677 0.0
C1044 C 0.35304 0.67669 0.05307 0.0
C1045 C 0.34081 0.66831 0.00116 0.0
C1046 C 0.31351 0.67297 0.98344 0.0
C1047 C 0.29751 0.68408 0.02138 0.0
H1048 H 0.18404 0.68452 0.80058 0.0
H1049 H 0.24054 0.66087 0.93417 0.0
H1050 H 0.14398 0.67109 0.85615 0.0
H1051 H 0.20093 0.64827 0.99028 0.0
H1052 H 0.11373 0.60893 0.92488 0.0
H1053 H 0.13986 0.63255 0.87191 0.0
H1054 H 0.15065 0.66003 0.04682 0.0
H1055 H 0.12392 0.63672 0.09985 0.0
C1056 C 0.18777 0.67693 0.84266 0.0
C1057 C 0.21523 0.67356 0.86299 0.0
C1058 C 0.16499 0.6693 0.87424 0.0
C1059 C 0.16957 0.6588 0.92745 0.0
C1060 C 0.19692 0.65646 0.9497 0.0
C1061 C 0.21954 0.66355 0.9173 0.0
C1062 C 0.12087 0.62031 0.95165 0.0
C1063 C 0.11716 0.62089 0.01653 0.0
C1064 C 0.13554 0.63388 0.92126 0.0
C1065 C 0.14706 0.64803 0.95549 0.0
C1066 C 0.14165 0.64929 0.01958 0.0
C1067 C 0.1265 0.63591 0.04979 0.0
H1068 H 0.27152 0.35667 0.60976 0.0
H1069 H 0.22406 0.308 0.5871 0.0
H1070 H 0.24812 0.36953 0.52142 0.0
H1071 H 0.20226 0.32066 0.49301 0.0
H1072 H 0.13709 0.36644 0.42944 0.0
H1073 H 0.16591 0.34415 0.48246 0.0
H1074 H 0.24072 0.3697 0.41207 0.0
H1075 H 0.21185 0.39248 0.36268 0.0
C1076 C 0.25623 0.34859 0.58533 0.0
C1077 C 0.24911 0.33146 0.60639 0.0
C1078 C 0.2431 0.3559 0.53368 0.0
C1079 C 0.22272 0.3462 0.50081 0.0
C1080 C 0.21671 0.32867 0.5196 0.0
C1081 C 0.22939 0.32142 0.57282 0.0
C1082 C 0.15966 0.36688 0.42392 0.0
C1083 C 0.17244 0.38128 0.3936 0.0
C1084 C 0.1762 0.35408 0.45391 0.0
C1085 C 0.20565 0.3555 0.45303 0.0
C1086 C 0.21811 0.3686 0.41529 0.0
C1087 C 0.20165 0.38159 0.38687 0.0
H1088 H 0.33695 0.23685 0.17586 0.0
H1089 H 0.35568 0.1979 0.03457 0.0
H1090 H 0.33285 0.25995 0.0961 0.0
H1091 H 0.34947 0.22076 0.95345 0.0
H1092 H 0.28452 0.26167 0.85484 0.0
H1093 H 0.29921 0.23898 0.93083 0.0
H1094 H 0.3625 0.27482 0.00133 0.0
H1095 H 0.34843 0.29721 0.92483 0.0
C1096 C 0.34115 0.23341 0.1277 0.0
C1097 C 0.34628 0.21566 0.11068 0.0
C1098 C 0.33841 0.24653 0.08211 0.0
C1099 C 0.34014 0.24196 0.01883 0.0
C1100 C 0.34751 0.22448 0.00204 0.0
C1101 C 0.35104 0.21146 0.04802 0.0
C1102 C 0.3014 0.26467 0.88691 0.0
C1103 C 0.31527 0.28115 0.88435 0.0
C1104 C 0.31004 0.25167 0.92961 0.0
C1105 C 0.33219 0.25518 0.97112 0.0
C1106 C 0.34555 0.27181 0.96942 0.0
C1107 C 0.33739 0.28459 0.92594 0.0
H1108 H 0.93295 0.98121 0.28879 0.0
H1109 H 0.91911 0.92425 0.2856 0.0
H1110 H 0.9636 0.97784 0.37783 0.0
H1111 H 0.94912 0.92093 0.37663 0.0
H1112 H 0.0394 0.92156 0.46078 0.0
H1113 H 0.99844 0.92241 0.39277 0.0
H1114 H 0.97069 0.97084 0.48327 0.0
H1115 H 0.01226 0.97037 0.54879 0.0
C1116 C 0.93581 0.96801 0.30813 0.0
C1117 C 0.92399 0.95297 0.27928 0.0
C1118 C 0.95334 0.96606 0.35964 0.0
C1119 C 0.95918 0.94905 0.38404 0.0
C1120 C 0.9456 0.93416 0.35813 0.0
C1121 C 0.92823 0.9361 0.30618 0.0
C1122 C 0.02427 0.9322 0.46658 0.0
C1123 C 0.02922 0.94608 0.50898 0.0
C1124 C 0.00068 0.93266 0.42795 0.0
C1125 C 0.98143 0.94687 0.43187 0.0
C1126 C 0.98544 0.95998 0.47778 0.0
C1127 C 0.00921 0.95969 0.51546 0.0
H1128 H 0.17243 0.72222 0.36929 0.0
H1129 H 0.24579 0.74758 0.29103 0.0
H1130 H 0.16458 0.74766 0.43571 0.0
H1131 H 0.23748 0.77348 0.35691 0.0
H1132 H 0.24106 0.79864 0.55118 0.0
H1133 H 0.24305 0.78 0.46018 0.0
H1134 H 0.15258 0.77732 0.45699 0.0
H1135 H 0.15078 0.79529 0.55251 0.0
C1136 C 0.18674 0.73338 0.36544 0.0
C1137 C 0.21017 0.73264 0.32555 0.0
C1138 C 0.1819 0.74819 0.40318 0.0
C1139 C 0.20029 0.7628 0.40215 0.0
C1140 C 0.22288 0.76249 0.3596 0.0
C1141 C 0.22777 0.74759 0.32174 0.0
C1142 C 0.2215 0.79416 0.53119 0.0
C1143 C 0.19583 0.79799 0.5605 0.0
C1144 C 0.22265 0.78367 0.47789 0.0
C1145 C 0.19808 0.77687 0.45117 0.0
C1146 C 0.17205 0.78195 0.4772 0.0
C1147 C 0.17093 0.79238 0.53163 0.0
H1148 H 0.54347 0.03036 0.81728 0.0
H1149 H 0.55119 0.08771 0.80662 0.0
H1150 H 0.51266 0.03341 0.90621 0.0
H1151 H 0.52092 0.09075 0.89745 0.0
H1152 H 0.43083 0.08669 0.98341 0.0
H1153 H 0.47169 0.08714 0.91485 0.0
H1154 H 0.50561 0.04138 0.01124 0.0
H1155 H 0.46425 0.04051 0.0774 0.0
C1156 C 0.5392 0.04363 0.83486 0.0
C1157 C 0.54942 0.05879 0.80402 0.0
C1158 C 0.52158 0.04539 0.88633 0.0
C1159 C 0.51399 0.06236 0.90868 0.0
C1160 C 0.52587 0.0775 0.88062 0.0
C1161 C 0.54338 0.07574 0.82878 0.0
C1162 C 0.44729 0.07695 0.99041 0.0
C1163 C 0.44418 0.06335 0.03464 0.0
C1164 C 0.4708 0.07724 0.95144 0.0
C1165 C 0.49176 0.06409 0.95683 0.0
C1166 C 0.48954 0.05139 0.00462 0.0
C1167 C 0.46589 0.05093 0.04267 0.0
H1168 H 0.36059 0.727 0.64358 0.0
H1169 H 0.27025 0.72649 0.62692 0.0
H1170 H 0.36312 0.75244 0.57422 0.0
H1171 H 0.27291 0.75172 0.55553 0.0
H1172 H 0.27994 0.80518 0.4744 0.0
H1173 H 0.28325 0.78268 0.55568 0.0
H1174 H 0.35727 0.76128 0.46737 0.0
H1175 H 0.35515 0.78496 0.3888 0.0
C1176 C 0.34119 0.73221 0.62472 0.0
C1177 C 0.31512 0.72466 0.64099 0.0
C1178 C 0.34275 0.7468 0.58465 0.0
C1179 C 0.3183 0.75422 0.55947 0.0
C1180 C 0.29219 0.74658 0.57515 0.0
C1181 C 0.29061 0.73202 0.61573 0.0
C1182 C 0.2976 0.79613 0.4741 0.0
C1183 C 0.31746 0.79694 0.42605 0.0
C1184 C 0.29908 0.78298 0.51961 0.0
C1185 C 0.31983 0.7698 0.51678 0.0
C1186 C 0.3409 0.77122 0.47088 0.0
C1187 C 0.33983 0.78481 0.42603 0.0
H1188 H 0.4699 0.97483 0.4364 0.0
H1189 H 0.43914 0.92772 0.52938 0.0
H1190 H 0.51177 0.97442 0.50118 0.0
H1191 H 0.48036 0.92772 0.5964 0.0
H1192 H 0.55695 0.92903 0.71019 0.0
H1193 H 0.52947 0.92537 0.61541 0.0
H1194 H 0.51769 0.98246 0.60651 0.0
H1195 H 0.54579 0.98615 0.69944 0.0
C1196 C 0.47229 0.96427 0.4704 0.0
C1197 C 0.4511 0.95151 0.47889 0.0
C1198 C 0.49622 0.96407 0.50761 0.0
C1199 C 0.49919 0.9513 0.55496 0.0
C1200 C 0.47892 0.93771 0.56017 0.0
C1201 C 0.45516 0.93774 0.52207 0.0
C1202 C 0.54903 0.94083 0.68713 0.0
C1203 C 0.55306 0.95787 0.71316 0.0
C1204 C 0.53315 0.93871 0.63296 0.0
C1205 C 0.5209 0.95356 0.60392 0.0
C1206 C 0.52692 0.97069 0.6272 0.0
C1207 C 0.54294 0.97282 0.68099 0.0
H1208 H 0.22964 0.20302 0.96989 0.0
H1209 H 0.14117 0.1939 0.94134 0.0
H1210 H 0.21976 0.22031 0.06165 0.0
H1211 H 0.13105 0.21125 0.03595 0.0
H1212 H 0.13353 0.26951 0.1246 0.0
H1213 H 0.13535 0.24369 0.0562 0.0
H1214 H 0.20238 0.22154 0.167 0.0
H1215 H 0.20116 0.24765 0.23469 0.0
C1216 C 0.20799 0.20435 0.98406 0.0
C1217 C 0.18619 0.19725 0.94761 0.0
C1218 C 0.20232 0.21421 0.03733 0.0
C1219 C 0.17459 0.21725 0.05618 0.0
C1220 C 0.15266 0.20921 0.02226 0.0
C1221 C 0.15843 0.19919 0.96842 0.0
C1222 C 0.1484 0.25903 0.13509 0.0
C1223 C 0.16767 0.26088 0.18433 0.0
C1224 C 0.14919 0.24409 0.09617 0.0
C1225 C 0.1692 0.23065 0.10574 0.0
C1226 C 0.18702 0.23184 0.15783 0.0
C1227 C 0.18635 0.24683 0.19654 0.0
H1228 H 0.0569 0.08019 0.03848 0.0
H1229 H 0.01485 0.04059 0.92641 0.0
H1230 H 0.01578 0.08211 0.10618 0.0
H1231 H 0.97332 0.04307 0.99167 0.0
H1232 H 0.93724 0.08467 0.21754 0.0
H1233 H 0.96736 0.08876 0.12687 0.0
H1234 H 0.9652 0.03197 0.09276 0.0
H1235 H 0.93463 0.02796 0.18145 0.0
C1236 C 0.0385 0.07234 0.0273 0.0
C1237 C 0.03914 0.05997 0.97832 0.0
C1238 C 0.01487 0.07347 0.06578 0.0
C1239 C 0.99141 0.06245 0.05509 0.0
C1240 C 0.99129 0.05135 0.00234 0.0
C1241 C 0.01501 0.04998 0.96481 0.0
C1242 C 0.94266 0.07311 0.18976 0.0
C1243 C 0.93387 0.05593 0.20744 0.0
C1244 C 0.9601 0.07547 0.13803 0.0
C1245 C 0.96904 0.0607 0.10293 0.0
C1246 C 0.95858 0.04371 0.11816 0.0
C1247 C 0.94114 0.04137 0.16957 0.0
H1248 H 0.66123 0.77881 0.84644 0.0
H1249 H 0.70795 0.81601 0.95826 0.0
H1250 H 0.66153 0.75749 0.93262 0.0
H1251 H 0.70566 0.79572 0.04656 0.0
H1252 H 0.74863 0.7464 0.12428 0.0
H1253 H 0.73437 0.77019 0.05553 0.0
H1254 H 0.65209 0.74667 0.03783 0.0
H1255 H 0.66657 0.72247 0.10707 0.0
C1256 C 0.66983 0.7829 0.89093 0.0
C1257 C 0.68408 0.79919 0.89648 0.0
C1258 C 0.67017 0.77065 0.94027 0.0
C1259 C 0.68442 0.77474 0.99597 0.0
C1260 C 0.69529 0.79199 0.0037 0.0
C1261 C 0.69587 0.80387 0.95389 0.0
C1262 C 0.72747 0.74625 0.10597 0.0
C1263 C 0.70883 0.73246 0.12096 0.0
C1264 C 0.71913 0.76006 0.06683 0.0
C1265 C 0.69194 0.7605 0.04131 0.0
C1266 C 0.67318 0.74673 0.05647 0.0
C1267 C 0.68151 0.73288 0.09614 0.0
H1268 H 0.07572 0.02299 0.69266 0.0
H1269 H 0.08264 0.08017 0.71364 0.0
H1270 H 0.04559 0.0271 0.60323 0.0
H1271 H 0.053 0.08428 0.62226 0.0
H1272 H 0.96326 0.08043 0.53285 0.0
H1273 H 0.00378 0.08049 0.60242 0.0
H1274 H 0.03963 0.03652 0.49918 0.0
H1275 H 0.99863 0.03601 0.43186 0.0
C1276 C 0.0714 0.03647 0.67733 0.0
C1277 C 0.08125 0.05124 0.71111 0.0
C1278 C 0.0542 0.03884 0.62552 0.0
C1279 C 0.04661 0.05605 0.60579 0.0
C1280 C 0.05803 0.07085 0.63695 0.0
C1281 C 0.07518 0.06848 0.68908 0.0
C1282 C 0.98008 0.07102 0.52454 0.0
C1283 C 0.97761 0.05798 0.47802 0.0
C1284 C 0.00339 0.0711 0.56411 0.0
C1285 C 0.02476 0.05828 0.55708 0.0
C1286 C 0.02322 0.04624 0.50702 0.0
C1287 C -0.00022 0.04598 0.46832 0.0
H1288 H 0.85314 0.27767 0.61286 0.0
H1289 H 0.79373 0.25281 0.73684 0.0
H1290 H 0.85252 0.25147 0.5461 0.0
H1291 H 0.79455 0.22593 0.67297 0.0
H1292 H 0.76903 0.19515 0.49842 0.0
H1293 H 0.7769 0.21621 0.58162 0.0
H1294 H 0.86312 0.22192 0.52256 0.0
H1295 H 0.85401 0.20153 0.43531 0.0
C1296 C 0.84019 0.26643 0.62616 0.0
C1297 C 0.82305 0.26737 0.6793 0.0
C1298 C 0.84015 0.25124 0.58835 0.0
C1299 C 0.82342 0.23641 0.60348 0.0
C1300 C 0.80717 0.23717 0.65846 0.0
C1301 C 0.80663 0.25258 0.6953 0.0
C1302 C 0.7897 0.20085 0.50365 0.0
C1303 C 0.81052 0.19712 0.45948 0.0
C1304 C 0.79443 0.21279 0.55205 0.0
C1305 C 0.82053 0.22119 0.55876 0.0
C1306 C 0.84244 0.21613 0.51799 0.0
C1307 C 0.83744 0.20421 0.46851 0.0
H1308 H 0.4039 0.98394 0.19809 0.0
H1309 H 0.39854 0.92659 0.21447 0.0
H1310 H 0.43262 0.98073 0.10613 0.0
H1311 H 0.42652 0.92335 0.12015 0.0
H1312 H 0.51572 0.92814 0.0308 0.0
H1313 H 0.47483 0.92716 0.09875 0.0
H1314 H 0.43981 0.97261 0.00239 0.0
H1315 H 0.48146 0.9741 0.93709 0.0
C1316 C 0.40816 0.97061 0.18107 0.0
C1317 C 0.39941 0.95553 0.21458 0.0
C1318 C 0.42454 0.96874 0.12772 0.0
C1319 C 0.43231 0.95174 0.10599 0.0
C1320 C 0.42151 0.93664 0.13643 0.0
C1321 C 0.40529 0.93851 0.19029 0.0
C1322 C 0.499 0.93768 0.02356 0.0
C1323 C 0.50194 0.95142 0.97982 0.0
C1324 C 0.47542 0.93708 0.06219 0.0
C1325 C 0.45417 0.95003 0.0569 0.0
C1326 C 0.45611 0.96276 0.00907 0.0
C1327 C 0.47991 0.96358 0.97146 0.0
H1328 H 0.74569 0.25888 0.31668 0.0
H1329 H 0.68748 0.29295 0.41406 0.0
H1330 H 0.73088 0.23379 0.37949 0.0
H1331 H 0.67388 0.26806 0.48097 0.0
H1332 H 0.647 0.2185 0.58516 0.0
H1333 H 0.65203 0.24015 0.49965 0.0
H1334 H 0.73855 0.22407 0.47719 0.0
H1335 H 0.73266 0.2023 0.55733 0.0
C1336 C 0.73009 0.26103 0.3526 0.0
C1337 C 0.71823 0.2779 0.36165 0.0
C1338 C 0.72142 0.24662 0.38869 0.0
C1339 C 0.70135 0.24881 0.43637 0.0
C1340 C 0.68908 0.26571 0.44443 0.0
C1341 C 0.69721 0.28007 0.40688 0.0
C1342 C 0.6667 0.21934 0.56029 0.0
C1343 C 0.68967 0.20887 0.57853 0.0
C1344 C 0.66977 0.23187 0.51188 0.0
C1345 C 0.69584 0.23407 0.48142 0.0
C1346 C 0.718 0.22279 0.49802 0.0
C1347 C 0.7148 0.21037 0.54505 0.0
H1348 H 0.40728 0.03075 0.32085 0.0
H1349 H 0.40061 0.08802 0.3037 0.0
H1350 H 0.43814 0.03438 0.40929 0.0
H1351 H 0.4309 0.09167 0.39425 0.0
H1352 H 0.52078 0.08775 0.48157 0.0
H1353 H 0.47992 0.08799 0.41298 0.0
H1354 H 0.44531 0.04308 0.51313 0.0
H1355 H 0.48673 0.04237 0.57913 0.0
C1356 C 0.41179 0.04414 0.3369 0.0
C1357 C 0.40181 0.05908 0.30439 0.0
C1358 C 0.42942 0.04625 0.38814 0.0
C1359 C 0.4373 0.06335 0.40868 0.0
C1360 C 0.42572 0.07831 0.37889 0.0
C1361 C 0.40818 0.0762 0.32723 0.0
C1362 C 0.50416 0.07817 0.48936 0.0
C1363 C 0.50708 0.06483 0.53459 0.0
C1364 C 0.48065 0.07833 0.45038 0.0
C1365 C 0.4595 0.06533 0.4568 0.0
C1366 C 0.46153 0.05295 0.50566 0.0
C1367 C 0.4852 0.05259 0.54365 0.0
H1368 H 0.84246 0.79441 0.0369 0.0
H1369 H 0.75321 0.79875 0.00898 0.0
H1370 H 0.84462 0.77171 0.95533 0.0
H1371 H 0.75472 0.77534 0.93173 0.0
H1372 H 0.76738 0.73892 0.7657 0.0
H1373 H 0.76679 0.76498 0.83402 0.0
H1374 H 0.833 0.74161 0.94491 0.0
H1375 H 0.8343 0.71616 0.87498 0.0
C1376 C 0.82331 0.79053 0.01346 0.0
C1377 C 0.79748 0.79796 0.03088 0.0
C1378 C 0.82443 0.77736 0.96715 0.0
C1379 C 0.79972 0.77124 0.93787 0.0
C1380 C 0.77424 0.77955 0.95287 0.0
C1381 C 0.77326 0.79282 -0.00182 0.0
C1382 C 0.78154 0.73936 0.80514 0.0
C1383 C 0.80085 0.72556 0.81516 0.0
C1384 C 0.78134 0.75431 0.84427 0.0
C1385 C 0.80016 0.75562 0.8948 0.0
C1386 C 0.81881 0.74144 0.90555 0.0
C1387 C 0.8193 0.7267 0.86596 0.0
H1388 H 0.06705 0.9779 0.79078 0.0
H1389 H 0.074 0.92047 0.78348 0.0
H1390 H 0.03631 0.97552 0.87997 0.0
H1391 H 0.04392 0.91809 0.87485 0.0
H1392 H 0.95424 0.92266 0.961 0.0
H1393 H 0.99511 0.92176 0.89268 0.0
H1394 H 0.02865 0.96844 0.98482 0.0
H1395 H 0.98714 0.96978 0.05049 0.0
C1396 C 0.06265 0.96476 0.80923 0.0
C1397 C 0.0726 0.94937 0.77922 0.0
C1398 C 0.04508 0.96337 0.86089 0.0
C1399 C 0.0373 0.94657 0.88433 0.0
C1400 C 0.04897 0.93122 0.85714 0.0
C1401 C 0.06637 0.9326 0.80501 0.0
C1402 C 0.97061 0.93252 0.96709 0.0
C1403 C 0.96735 0.94649 0.00993 0.0
C1404 C 0.99415 0.93197 0.92828 0.0
C1405 C 0.01502 0.94522 0.93251 0.0
C1406 C 0.01264 0.95833 0.97902 0.0
C1407 C 0.98892 0.95907 0.01682 0.0
H1408 H 0.83252 0.77856 0.27512 0.0
H1409 H 0.74794 0.78664 0.34112 0.0
H1410 H 0.83819 0.75365 0.34593 0.0
H1411 H 0.75394 0.76201 0.4146 0.0
H1412 H 0.85108 0.72684 0.5355 0.0
H1413 H 0.84465 0.74893 0.45349 0.0
H1414 H 0.75943 0.73083 0.42671 0.0
H1415 H 0.76563 0.70934 0.50978 0.0
C1416 C 0.81513 0.77501 0.30512 0.0
C1417 C 0.78987 0.78464 0.30322 0.0
C1418 C 0.81846 0.76078 0.34598 0.0
C1419 C 0.79675 0.75598 0.38673 0.0
C1420 C 0.77106 0.76525 0.38345 0.0
C1421 C 0.76758 0.77939 0.34163 0.0
C1422 C 0.83112 0.72747 0.51157 0.0
C1423 C 0.80878 0.71649 0.52962 0.0
C1424 C 0.82739 0.74009 0.46439 0.0
C1425 C 0.80134 0.74181 0.43391 0.0
C1426 C 0.77947 0.73025 0.45028 0.0
C1427 C 0.78312 0.71784 0.49769 0.0
H1428 H 0.41404 0.46635 0.79119 0.0
H1429 H 0.41148 0.40935 0.76107 0.0
H1430 H 0.44344 0.46192 0.88182 0.0
H1431 H 0.44054 0.40491 0.8532 0.0
H1432 H 0.53008 0.41162 0.94503 0.0
H1433 H 0.48992 0.41063 0.87444 0.0
H1434 H 0.44804 0.45065 0.98562 0.0
H1435 H 0.48849 0.45206 0.05448 0.0
C1436 C 0.41922 0.45283 0.80465 0.0
C1437 C 0.41077 0.43825 0.76818 0.0
C1438 C 0.43594 0.45027 0.85708 0.0
C1439 C 0.44453 0.43304 0.87448 0.0
C1440 C 0.43461 0.41835 0.8404 0.0
C1441 C 0.41782 0.42092 0.78783 0.0
C1442 C 0.51201 0.41989 0.95496 0.0
C1443 C 0.51258 0.4322 0.00417 0.0
C1444 C 0.48893 0.41928 0.91479 0.0
C1445 C 0.46601 0.43083 0.92382 0.0
C1446 C 0.46567 0.44194 0.9765 0.0
C1447 C 0.4888 0.44271 0.01596 0.0
H1448 H 0.68462 0.31019 0.02809 0.0
H1449 H 0.71708 0.26766 0.14335 0.0
H1450 H 0.68183 0.28913 0.93984 0.0
H1451 H 0.71593 0.24752 0.05539 0.0
H1452 H 0.74626 0.22473 0.87242 0.0
H1453 H 0.74556 0.24929 0.94775 0.0
H1454 H 0.65699 0.25655 0.91601 0.0
H1455 H 0.65744 0.23198 0.84132 0.0
C1456 C 0.69091 0.29645 0.03471 0.0
C1457 C 0.70144 0.29066 0.09235 0.0
C1458 C 0.68973 0.28457 0.98422 0.0
C1459 C 0.69985 0.26706 0.99062 0.0
C1460 C 0.7088 0.26111 0.04897 0.0
C1461 C 0.70929 0.27269 0.09935 0.0
C1462 C 0.72678 0.23175 0.88076 0.0
C1463 C 0.70184 0.22622 0.85197 0.0
C1464 C 0.72637 0.24576 0.92369 0.0
C1465 C 0.70115 0.25462 0.93756 0.0
C1466 C 0.67664 0.24993 0.90576 0.0
C1467 C 0.67694 0.23576 0.8636 0.0
H1468 H 0.00378 0.5621 0.59801 0.0
H1469 H 0.9595 0.59899 0.47955 0.0
H1470 H 0.04478 0.56405 0.5306 0.0
H1471 H -1e-05 0.60042 0.41039 0.0
H1472 H 0.07184 0.5982 0.28321 0.0
H1473 H 0.04828 0.60565 0.3806 0.0
H1474 H 0.04789 0.5499 0.4312 0.0
H1475 H 0.0718 0.54253 0.33518 0.0
C1476 C 0.00319 0.57104 0.55842 0.0
C1477 C 0.97845 0.58016 0.54312 0.0
C1478 C 0.02657 0.57208 0.51964 0.0
C1479 C 0.02538 0.58195 0.46413 0.0
C1480 C 0.00169 0.59269 0.45277 0.0
C1481 C 0.97841 0.59187 0.4923 0.0
C1482 C 0.06746 0.58759 0.31598 0.0
C1483 C 0.07314 0.56969 0.30073 0.0
C1484 C 0.05382 0.59189 0.37168 0.0
C1485 C 0.04579 0.57839 0.41331 0.0
C1486 C 0.0539 0.56071 0.40059 0.0
C1487 C 0.06746 0.55642 0.34503 0.0
H1488 H 0.86339 0.28515 0.98187 0.0
H1489 H 0.77348 0.29055 0.96314 0.0
H1490 H 0.85626 0.26561 0.07158 0.0
H1491 H 0.76663 0.27086 0.05054 0.0
H1492 H 0.76004 0.23731 0.22323 0.0
H1493 H 0.77045 0.2635 0.15924 0.0
H1494 H 0.83974 0.23535 0.07468 0.0
H1495 H 0.82998 0.20969 0.13863 0.0
C1496 C 0.8422 0.2824 -0.00275 0.0
C1497 C 0.81909 0.28913 0.96435 0.0
C1498 C 0.83808 0.27117 0.04847 0.0
C1499 C 0.8108 0.2664 0.06748 0.0
C1500 C 0.78785 0.27424 0.03745 0.0
C1501 C 0.7919 0.28544 0.9866 0.0
C1502 C 0.77756 0.2368 0.19119 0.0
C1503 C 0.79401 0.22132 0.18595 0.0
C1504 C 0.78356 0.2518 0.15462 0.0
C1505 C 0.8061 0.25158 0.11215 0.0
C1506 C 0.82268 0.2362 0.10785 0.0
C1507 C 0.81676 0.22132 0.14417 0.0
H1508 H 0.97251 0.41139 0.98384 0.0
H1509 H 0.92989 0.454 0.08025 0.0
H1510 H 0.0081 0.41066 0.06589 0.0
H1511 H 0.96461 0.45287 0.1632 0.0
H1512 H 0.05143 0.46715 0.23325 0.0
H1513 H 0.01215 0.4631 0.1631 0.0
H1514 H 0.02217 0.40594 0.17394 0.0
H1515 H 0.06221 0.41 0.24352 0.0
C1516 C 0.97019 0.4201 0.02379 0.0
C1517 C 0.94872 0.4329 0.02552 0.0
C1518 C 0.9906 0.41974 0.07072 0.0
C1519 C 0.9896 0.43205 0.12024 0.0
C1520 C 0.9665 0.4436 0.12469 0.0
C1521 C 0.94643 0.44413 0.07757 0.0
C1522 C 0.04533 0.45369 0.2209 0.0
C1523 C 0.06001 0.43891 0.24425 0.0
C1524 C 0.02257 0.45135 0.18102 0.0
C1525 C 0.01368 0.43417 0.16362 0.0
C1526 C 0.0285 0.41935 0.18635 0.0
C1527 C 0.05143 0.42169 0.22626 0.0
H1528 H 0.6908 0.73513 0.35083 0.0
H1529 H 0.71256 0.68918 0.46116 0.0
H1530 H 0.69042 0.75357 0.44426 0.0
H1531 H 0.71253 0.70791 0.55578 0.0
H1532 H 0.75429 0.76429 0.64958 0.0
H1533 H 0.74808 0.73889 0.57828 0.0
H1534 H 0.66103 0.75279 0.55465 0.0
H1535 H 0.66676 0.77769 0.62548 0.0
C1536 C 0.69476 0.7289 0.3955 0.0
C1537 C 0.7014 0.71074 0.39925 0.0
C1538 C 0.69468 0.73944 0.44879 0.0
C1539 C 0.70166 0.73209 0.50678 0.0
C1540 C 0.70716 0.71376 0.51131 0.0
C1541 C 0.7068 0.70307 0.45768 0.0
C1542 C 0.73374 0.76165 0.63021 0.0
C1543 C 0.71127 0.77332 0.64167 0.0
C1544 C 0.73016 0.74709 0.58982 0.0
C1545 C 0.70413 0.74412 0.56081 0.0
C1546 C 0.68129 0.75492 0.57626 0.0
C1547 C 0.68477 0.76929 0.61638 0.0
H1548 H 0.53463 0.57838 0.50756 0.0
H1549 H 0.4991 0.53299 0.41202 0.0
H1550 H 0.49398 0.57924 0.57672 0.0
H1551 H 0.45813 0.53421 0.47926 0.0
H1552 H 0.42187 0.52336 0.67559 0.0
H1553 H 0.45239 0.52611 0.5859 0.0
H1554 H 0.44414 0.58345 0.59266 0.0
H1555 H 0.41403 0.58076 0.68382 0.0
C1556 C 0.5178 0.5689 0.5004 0.0
C1557 C 0.52024 0.55539 0.4555 0.0
C1558 C 0.49443 0.56943 0.5397 0.0
C1559 C 0.47301 0.55659 0.53408 0.0
C1560 C 0.47458 0.544 0.48582 0.0
C1561 C 0.49802 0.54332 0.44726 0.0
C1562 C 0.42607 0.53655 0.65738 0.0
C1563 C 0.41588 0.55183 0.68765 0.0
C1564 C 0.4435 0.53814 0.60556 0.0
C1565 C 0.45097 0.55504 0.58251 0.0
C1566 C 0.43919 0.57027 0.61006 0.0
C1567 C 0.42179 0.56869 0.66209 0.0
H1568 H 0.13691 0.2154 0.66623 0.0
H1569 H 0.21746 0.2415 0.68214 0.0
H1570 H 0.11994 0.23958 0.60139 0.0
H1571 H 0.20028 0.26577 0.61635 0.0
H1572 H 0.15996 0.31048 0.51205 0.0
H1573 H 0.16473 0.29091 0.60289 0.0
H1574 H 0.13372 0.24684 0.49291 0.0
H1575 H 0.13063 0.26621 0.40226 0.0
C1576 C 0.15099 0.22637 0.6564 0.0
C1577 C 0.1788 0.22633 0.67844 0.0
C1578 C 0.14113 0.24026 0.61938 0.0
C1579 C 0.15878 0.25448 0.60348 0.0
C1580 C 0.18608 0.25504 0.62842 0.0
C1581 C 0.19601 0.24108 0.66566 0.0
C1582 C 0.15388 0.29668 0.50802 0.0
C1583 C 0.14573 0.28967 0.45025 0.0
C1584 C 0.15645 0.28551 0.55982 0.0
C1585 C 0.15018 0.26728 0.55456 0.0
C1586 C 0.13869 0.26084 0.49853 0.0
C1587 C 0.1366 0.27195 0.44668 0.0
H1588 H 0.56045 0.52644 0.15649 0.0
H1589 H 0.56064 0.58289 0.19743 0.0
H1590 H 0.53 0.53165 0.06841 0.0
H1591 H 0.53069 0.58821 0.10728 0.0
H1592 H 0.44123 0.58229 0.01599 0.0
H1593 H 0.48215 0.58289 0.08461 0.0
H1594 H 0.52271 0.54344 0.96839 0.0
H1595 H 0.48125 0.54223 0.90242 0.0
C1596 C 0.55457 0.54005 0.14583 0.0
C1597 C 0.56265 0.55419 0.1848 0.0
C1598 C 0.53721 0.54308 0.09475 0.0
C1599 C 0.52763 0.56037 0.08087 0.0
C1600 C 0.53727 0.5747 0.11729 0.0
C1601 C 0.55462 0.57165 0.16872 0.0
C1602 C 0.4592 0.57407 0.00467 0.0
C1603 C 0.45803 0.56197 0.95495 0.0
C1604 C 0.48272 0.57444 0.04369 0.0
C1605 C 0.50554 0.5629 0.03278 0.0
C1606 C 0.5052 0.55209 0.9793 0.0
C1607 C 0.48155 0.55145 0.9413 0.0
H1608 H 0.33823 0.79358 0.10225 0.0
H1609 H 0.26445 0.76897 0.18178 0.0
H1610 H 0.34421 0.76836 0.03311 0.0
H1611 H 0.27077 0.74344 0.11258 0.0
H1612 H 0.26979 0.71593 0.92125 0.0
H1613 H 0.26611 0.73731 0.00459 0.0
H1614 H 0.35623 0.73717 0.02504 0.0
H1615 H 0.36004 0.71569 0.93923 0.0
C1616 C 0.32331 0.78273 0.10534 0.0
C1617 C 0.30067 0.78341 0.14741 0.0
C1618 C 0.32701 0.76812 0.06604 0.0
C1619 C 0.30819 0.75376 0.06758 0.0
C1620 C 0.28564 0.75432 0.11 0.0
C1621 C 0.28191 0.76899 0.14951 0.0
C1622 C 0.28896 0.72038 0.94321 0.0
C1623 C 0.31531 0.7143 0.92248 0.0
C1624 C 0.28675 0.73253 0.99186 0.0
C1625 C 0.31083 0.7391 0.02131 0.0
C1626 C 0.33725 0.73257 0.00249 0.0
C1627 C 0.33948 0.72026 0.95348 0.0
H1628 H 0.0602 0.40898 0.48219 0.0
H1629 H 0.10606 0.44826 0.58803 0.0
H1630 H 0.02327 0.40898 0.56142 0.0
H1631 H 0.06985 0.44788 0.66798 0.0
H1632 H 0.96595 0.41006 0.73593 0.0
H1633 H 0.00651 0.40425 0.66925 0.0
H1634 H 0.02342 0.46076 0.66103 0.0
H1635 H 0.98352 0.46657 0.72791 0.0
C1636 C 0.06296 0.41699 0.52375 0.0
C1637 C 0.08578 0.42875 0.52887 0.0
C1638 C 0.04175 0.41709 0.56898 0.0
C1639 C 0.04325 0.42884 0.62005 0.0
C1640 C 0.06765 0.43909 0.62821 0.0
C1641 C 0.08857 0.43915 0.58287 0.0
C1642 C 0.97829 0.42125 0.71972 0.0
C1643 C 0.97148 0.4388 0.73763 0.0
C1644 C 0.00154 0.41789 0.68155 0.0
C1645 C 0.01851 0.43199 0.66076 0.0
C1646 C 0.01129 0.44952 0.67763 0.0
C1647 C 0.98815 0.45288 0.71555 0.0
H1648 H 0.15703 0.71637 0.10393 0.0
H1649 H 0.22463 0.68966 0.00938 0.0
H1650 H 0.15272 0.73711 0.01679 0.0
H1651 H 0.21934 0.70945 0.92051 0.0
H1652 H 0.23892 0.765 0.84337 0.0
H1653 H 0.23412 0.73912 0.9102 0.0
H1654 H 0.14417 0.74583 0.91197 0.0
H1655 H 0.14903 0.77212 0.84652 0.0
C1656 C 0.16979 0.71426 0.06283 0.0
C1657 C 0.19101 0.70134 0.06297 0.0
C1658 C 0.16754 0.72624 0.01291 0.0
C1659 C 0.18631 0.72529 0.96218 0.0
C1660 C 0.2052 0.71096 0.95956 0.0
C1661 C 0.20778 0.69931 0.00975 0.0
C1662 C 0.2181 0.76089 0.85747 0.0
C1663 C 0.19445 0.77078 0.83994 0.0
C1664 C 0.21526 0.74589 0.89555 0.0
C1665 C 0.1887 0.74026 0.91668 0.0
C1666 C 0.16497 0.74985 0.89743 0.0
C1667 C 0.16781 0.76494 0.85969 0.0
H1668 H 0.91268 0.59408 0.79515 0.0
H1669 H 0.92407 0.53723 0.81692 0.0
H1670 H 0.93545 0.5991 0.89514 0.0
H1671 H 0.94706 0.54231 0.91612 0.0
H1672 H 0.98752 0.5521 0.09191 0.0
H1673 H 0.94695 0.55305 0.02316 0.0
H1674 H 0.98554 0.5958 0.9191 0.0
H1675 H 0.02584 0.59509 0.98877 0.0
C1676 C 0.91944 0.58261 0.82181 0.0
C1677 C 0.91721 0.56525 0.79728 0.0
C1678 C 0.93254 0.58554 0.87905 0.0
C1679 C 0.94345 0.57116 0.913 0.0
C1680 C 0.93876 0.5537 0.8913 0.0
C1681 C 0.92575 0.55077 0.83404 0.0
C1682 C 0.98694 0.56205 0.0554 0.0
C1683 C 0.01008 0.57324 0.04458 0.0
C1684 C 0.96373 0.56257 0.01606 0.0
C1685 C 0.96335 0.57419 0.96491 0.0
C1686 C 0.98515 0.58671 0.95823 0.0
C1687 C 0.00833 0.58628 -0.002 0.0
H1688 H 0.35073 0.29949 0.54152 0.0
H1689 H 0.28111 0.27545 0.63942 0.0
H1690 H 0.34383 0.27799 0.4556 0.0
H1691 H 0.27453 0.2545 0.55529 0.0
H1692 H 0.30587 0.20478 0.44738 0.0
H1693 H 0.30845 0.22921 0.52215 0.0
H1694 H 0.30285 0.26733 0.37211 0.0
H1695 H 0.29989 0.24255 0.29659 0.0
C1696 C 0.33412 0.2897 0.54475 0.0
C1697 C 0.31692 0.28894 0.59785 0.0
C1698 C 0.32998 0.27756 0.49555 0.0
C1699 C 0.30875 0.26455 0.49934 0.0
C1700 C 0.29121 0.26425 0.55152 0.0
C1701 C 0.29523 0.27623 0.59998 0.0
C1702 C 0.30447 0.21837 0.43056 0.0
C1703 C 0.30217 0.22186 0.36667 0.0
C1704 C 0.30616 0.23233 0.47314 0.0
C1705 C 0.30609 0.25011 0.45269 0.0
C1706 C 0.30319 0.2537 0.38877 0.0
C1707 C 0.301 0.23961 0.34592 0.0
H1708 H 0.43035 0.411 0.43191 0.0
H1709 H 0.47747 0.4441 0.55862 0.0
H1710 H 0.47156 0.40838 0.36466 0.0
H1711 H 0.51905 0.44075 0.49391 0.0
H1712 H 0.54945 0.40505 0.25135 0.0
H1713 H 0.51882 0.39961 0.34053 0.0
H1714 H 0.52955 0.45441 0.39848 0.0
H1715 H 0.56057 0.4596 0.31145 0.0
C1716 C 0.44983 0.41718 0.4463 0.0
C1717 C 0.45073 0.42803 0.49945 0.0
C1718 C 0.47352 0.41563 0.40808 0.0
C1719 C 0.49853 0.42469 0.42318 0.0
C1720 C 0.49995 0.43405 0.47985 0.0
C1721 C 0.47621 0.43591 0.5171 0.0
C1722 C 0.5459 0.41577 0.28425 0.0
C1723 C 0.55712 0.43285 0.2737 0.0
C1724 C 0.52812 0.41268 0.33504 0.0
C1725 C 0.52134 0.4266 0.37633 0.0
C1726 C 0.53439 0.44327 0.36824 0.0
C1727 C 0.5521 0.44632 0.31776 0.0
loop_
_geom_bond_atom_site_label_1
_geom_bond_atom_site_label_2
_geom_bond_distance
_geom_bond_site_symmetry_2
_ccdc_geom_bond_type
Co0 O1 2.216 . S
Co0 O2 2.091 . S
Co0 O4 2.004 . S
Co0 O10 2.021 . S
Co0 O12 2.137 . S
Co0 O13 2.244 . S
O1 Co0 2.216 . S
O1 C8 1.247 . S
O2 Co0 2.091 . S
O2 C8 1.261 . S
C3 O12 1.247 . S
C3 O13 1.272 . S
O4 Co0 2.004 . S
O4 C9 1.259 . S
Co5 O6 2.061 . S
Co5 O11 2.052 . S
Co5 O13 2.135 . S
O6 Co5 2.061 . S
O6 C9 1.235 . S
C7 O10 1.238 . S
C7 O11 1.241 . S
C8 O1 1.247 . S
C8 O2 1.261 . S
C9 O4 1.259 . S
C9 O6 1.235 . S
O10 Co0 2.021 . S
O10 C7 1.238 . S
O11 Co5 2.052 . S
O11 C7 1.241 . S
O12 Co0 2.137 . S
O12 C3 1.247 . S
O13 Co0 2.244 . S
O13 C3 1.272 . S
O13 Co5 2.135 . S
Co14 O15 2.216 . S
Co14 O16 2.091 . S
Co14 O18 2.004 . S
Co14 O24 2.021 . S
Co14 O26 2.137 . S
Co14 O27 2.244 . S
O15 Co14 2.216 . S
O15 C22 1.247 . S
O16 Co14 2.091 . S
O16 C22 1.261 . S
C17 O26 1.247 . S
C17 O27 1.272 . S
O18 Co14 2.004 . S
O18 C23 1.259 . S
Co19 O20 2.061 . S
Co19 O25 2.052 . S
Co19 O27 2.135 . S
O20 Co19 2.061 . S
O20 C23 1.235 . S
C21 O24 1.238 . S
C21 O25 1.241 . S
C22 O15 1.247 . S
C22 O16 1.261 . S
C23 O18 1.259 . S
C23 O20 1.235 . S
O24 Co14 2.021 . S
O24 C21 1.238 . S
O25 Co19 2.052 . S
O25 C21 1.241 . S
O26 Co14 2.137 . S
O26 C17 1.247 . S
O27 Co14 2.244 . S
O27 C17 1.272 . S
O27 Co19 2.135 . S
Co28 O29 2.216 . S
Co28 O30 2.091 . S
Co28 O32 2.004 . S
Co28 O38 2.021 . S
Co28 O40 2.137 . S
Co28 O41 2.244 . S
O29 Co28 2.216 . S
O29 C36 1.247 . S
O30 Co28 2.091 . S
O30 C36 1.261 . S
C31 O40 1.247 . S
C31 O41 1.272 . S
O32 Co28 2.004 . S
O32 C37 1.259 . S
Co33 O34 2.061 . S
Co33 O39 2.052 . S
Co33 O41 2.135 . S
O34 Co33 2.061 . S
O34 C37 1.235 . S
C35 O38 1.238 . S
C35 O39 1.241 . S
C36 O29 1.247 . S
C36 O30 1.261 . S
C37 O32 1.259 . S
C37 O34 1.235 . S
O38 Co28 2.021 . S
O38 C35 1.238 . S
O39 Co33 2.052 . S
O39 C35 1.241 . S
O40 Co28 2.137 . S
O40 C31 1.247 . S
O41 Co28 2.244 . S
O41 C31 1.272 . S
O41 Co33 2.135 . S
Co42 O43 2.216 . S
Co42 O44 2.091 . S
Co42 O46 2.004 . S
Co42 O52 2.021 . S
Co42 O54 2.137 . S
Co42 O55 2.244 . S
O43 Co42 2.216 . S
O43 C50 1.247 . S
O44 Co42 2.091 . S
O44 C50 1.261 . S
C45 O54 1.247 . S
C45 O55 1.272 . S
O46 Co42 2.004 . S
O46 C51 1.259 . S
Co47 O48 2.061 . S
Co47 O53 2.052 . S
Co47 O55 2.135 . S
O48 Co47 2.061 . S
O48 C51 1.235 . S
C49 O52 1.238 . S
C49 O53 1.241 . S
C50 O43 1.247 . S
C50 O44 1.261 . S
C51 O46 1.259 . S
C51 O48 1.235 . S
O52 Co42 2.021 . S
O52 C49 1.238 . S
O53 Co47 2.052 . S
O53 C49 1.241 . S
O54 Co42 2.137 . S
O54 C45 1.247 . S
O55 Co42 2.244 . S
O55 C45 1.272 . S
O55 Co47 2.135 . S
Co56 O57 2.216 . S
Co56 O58 2.091 . S
Co56 O60 2.004 . S
Co56 O66 2.021 . S
Co56 O68 2.137 . S
Co56 O69 2.244 . S
O57 Co56 2.216 . S
O57 C64 1.247 . S
O58 Co56 2.091 . S
O58 C64 1.261 . S
C59 O68 1.247 . S
C59 O69 1.272 . S
O60 Co56 2.004 . S
O60 C65 1.259 . S
Co61 O62 2.061 . S
Co61 O67 2.052 . S
Co61 O69 2.135 . S
O62 Co61 2.061 . S
O62 C65 1.235 . S
C63 O66 1.238 . S
C63 O67 1.241 . S
C64 O57 1.247 . S
C64 O58 1.261 . S
C65 O60 1.259 . S
C65 O62 1.235 . S
O66 Co56 2.021 . S
O66 C63 1.238 . S
O67 Co61 2.052 . S
O67 C63 1.241 . S
O68 Co56 2.137 . S
O68 C59 1.247 . S
O69 Co56 2.244 . S
O69 C59 1.272 . S
O69 Co61 2.135 . S
Co70 O71 2.216 . S
Co70 O72 2.091 . S
Co70 O74 2.004 . S
Co70 O80 2.021 . S
Co70 O82 2.137 . S
Co70 O83 2.244 . S
O71 Co70 2.216 . S
O71 C78 1.247 . S
O72 Co70 2.091 . S
O72 C78 1.261 . S
C73 O82 1.247 . S
C73 O83 1.272 . S
O74 Co70 2.004 . S
O74 C79 1.259 . S
Co75 O76 2.061 . S
Co75 O81 2.052 . S
Co75 O83 2.135 . S
O76 Co75 2.061 . S
O76 C79 1.235 . S
C77 O80 1.238 . S
C77 O81 1.241 . S
C78 O71 1.247 . S
C78 O72 1.261 . S
C79 O74 1.259 . S
C79 O76 1.235 . S
O80 Co70 2.021 . S
O80 C77 1.238 . S
O81 Co75 2.052 . S
O81 C77 1.241 . S
O82 Co70 2.137 . S
O82 C73 1.247 . S
O83 Co70 2.244 . S
O83 C73 1.272 . S
O83 Co75 2.135 . S
Co84 O85 2.216 . S
Co84 O86 2.091 . S
Co84 O88 2.004 . S
Co84 O94 2.021 . S
Co84 O96 2.137 . S
Co84 O97 2.244 . S
O85 Co84 2.216 . S
O85 C92 1.247 . S
O86 Co84 2.091 . S
O86 C92 1.261 . S
C87 O96 1.247 . S
C87 O97 1.272 . S
O88 Co84 2.004 . S
O88 C93 1.259 . S
Co89 O90 2.061 . S
Co89 O95 2.052 . S
Co89 O97 2.135 . S
O90 Co89 2.061 . S
O90 C93 1.235 . S
C91 O94 1.238 . S
C91 O95 1.241 . S
C92 O85 1.247 . S
C92 O86 1.261 . S
C93 O88 1.259 . S
C93 O90 1.235 . S
O94 Co84 2.021 . S
O94 C91 1.238 . S
O95 Co89 2.052 . S
O95 C91 1.241 . S
O96 Co84 2.137 . S
O96 C87 1.247 . S
O97 Co84 2.244 . S
O97 C87 1.272 . S
O97 Co89 2.135 . S
Co98 O99 2.216 . S
Co98 O100 2.091 . S
Co98 O102 2.004 . S
Co98 O108 2.021 . S
Co98 O110 2.137 . S
Co98 O111 2.244 . S
O99 Co98 2.216 . S
O99 C106 1.247 . S
O100 Co98 2.091 . S
O100 C106 1.261 . S
C101 O110 1.247 . S
C101 O111 1.272 . S
O102 Co98 2.004 . S
O102 C107 1.259 . S
Co103 O104 2.061 . S
Co103 O109 2.052 . S
Co103 O111 2.135 . S
O104 Co103 2.061 . S
O104 C107 1.235 . S
C105 O108 1.238 . S
C105 O109 1.241 . S
C106 O99 1.247 . S
C106 O100 1.261 . S
C107 O102 1.259 . S
C107 O104 1.235 . S
O108 Co98 2.021 . S
O108 C105 1.238 . S
O109 Co103 2.052 . S
O109 C105 1.241 . S
O110 Co98 2.137 . S
O110 C101 1.247 . S
O111 Co98 2.244 . S
O111 C101 1.272 . S
O111 Co103 2.135 . S
Co112 O113 2.216 . S
Co112 O114 2.091 . S
Co112 O116 2.004 . S
Co112 O122 2.021 . S
Co112 O124 2.137 . S
Co112 O125 2.244 . S
O113 Co112 2.216 . S
O113 C120 1.247 . S
O114 Co112 2.091 . S
O114 C120 1.261 . S
C115 O124 1.247 . S
C115 O125 1.272 . S
O116 Co112 2.004 . S
O116 C121 1.259 . S
Co117 O118 2.061 . S
Co117 O123 2.052 . S
Co117 O125 2.135 . S
O118 Co117 2.061 . S
O118 C121 1.235 . S
C119 O122 1.238 . S
C119 O123 1.241 . S
C120 O113 1.247 . S
C120 O114 1.261 . S
C121 O116 1.259 . S
C121 O118 1.235 . S
O122 Co112 2.021 . S
O122 C119 1.238 . S
O123 Co117 2.052 . S
O123 C119 1.241 . S
O124 Co112 2.137 . S
O124 C115 1.247 . S
O125 Co112 2.244 . S
O125 C115 1.272 . S
O125 Co117 2.135 . S
Co126 O127 2.216 . S
Co126 O128 2.091 . S
Co126 O130 2.004 . S
Co126 O136 2.021 . S
Co126 O138 2.137 . S
Co126 O139 2.244 . S
O127 Co126 2.216 . S
O127 C134 1.247 . S
O128 Co126 2.091 . S
O128 C134 1.261 . S
C129 O138 1.247 . S
C129 O139 1.272 . S
O130 Co126 2.004 . S
O130 C135 1.259 . S
Co131 O132 2.061 . S
Co131 O137 2.052 . S
Co131 O139 2.135 . S
O132 Co131 2.061 . S
O132 C135 1.235 . S
C133 O136 1.238 . S
C133 O137 1.241 . S
C134 O127 1.247 . S
C134 O128 1.261 . S
C135 O130 1.259 . S
C135 O132 1.235 . S
O136 Co126 2.021 . S
O136 C133 1.238 . S
O137 Co131 2.052 . S
O137 C133 1.241 . S
O138 Co126 2.137 . S
O138 C129 1.247 . S
O139 Co126 2.244 . S
O139 C129 1.272 . S
O139 Co131 2.135 . S
Co140 O141 2.216 . S
Co140 O142 2.091 . S
Co140 O144 2.004 . S
Co140 O150 2.021 . S
Co140 O152 2.137 . S
Co140 O153 2.244 . S
O141 Co140 2.216 . S
O141 C148 1.247 . S
O142 Co140 2.091 . S
O142 C148 1.261 . S
C143 O152 1.247 . S
C143 O153 1.272 . S
O144 Co140 2.004 . S
O144 C149 1.259 . S
Co145 O146 2.061 . S
Co145 O151 2.052 . S
Co145 O153 2.135 . S
O146 Co145 2.061 . S
O146 C149 1.235 . S
C147 O150 1.238 . S
C147 O151 1.241 . S
C148 O141 1.247 . S
C148 O142 1.261 . S
C149 O144 1.259 . S
C149 O146 1.235 . S
O150 Co140 2.021 . S
O150 C147 1.238 . S
O151 Co145 2.052 . S
O151 C147 1.241 . S
O152 Co140 2.137 . S
O152 C143 1.247 . S
O153 Co140 2.244 . S
O153 C143 1.272 . S
O153 Co145 2.135 . S
Co154 O155 2.216 . S
Co154 O156 2.091 . S
Co154 O158 2.004 . S
Co154 O164 2.021 . S
Co154 O166 2.137 . S
Co154 O167 2.244 . S
O155 Co154 2.216 . S
O155 C162 1.247 . S
O156 Co154 2.091 . S
O156 C162 1.261 . S
C157 O166 1.247 . S
C157 O167 1.272 . S
O158 Co154 2.004 . S
O158 C163 1.259 . S
Co159 O160 2.061 . S
Co159 O165 2.052 . S
Co159 O167 2.135 . S
O160 Co159 2.061 . S
O160 C163 1.235 . S
C161 O164 1.238 . S
C161 O165 1.241 . S
C162 O155 1.247 . S
C162 O156 1.261 . S
C163 O158 1.259 . S
C163 O160 1.235 . S
O164 Co154 2.021 . S
O164 C161 1.238 . S
O165 Co159 2.052 . S
O165 C161 1.241 . S
O166 Co154 2.137 . S
O166 C157 1.247 . S
O167 Co154 2.244 . S
O167 C157 1.272 . S
O167 Co159 2.135 . S
Co168 O169 2.216 . S
Co168 O170 2.091 . S
Co168 O172 2.004 . S
Co168 O178 2.021 . S
Co168 O180 2.137 . S
Co168 O181 2.244 . S
O169 Co168 2.216 . S
O169 C176 1.247 . S
O170 Co168 2.091 . S
O170 C176 1.261 . S
C171 O180 1.247 . S
C171 O181 1.272 . S
O172 Co168 2.004 . S
O172 C177 1.259 . S
Co173 O174 2.061 . S
Co173 O179 2.052 . S
Co173 O181 2.135 . S
O174 Co173 2.061 . S
O174 C177 1.235 . S
C175 O178 1.238 . S
C175 O179 1.241 . S
C176 O169 1.247 . S
C176 O170 1.261 . S
C177 O172 1.259 . S
C177 O174 1.235 . S
O178 Co168 2.021 . S
O178 C175 1.238 . S
O179 Co173 2.052 . S
O179 C175 1.241 . S
O180 Co168 2.137 . S
O180 C171 1.247 . S
O181 Co168 2.244 . S
O181 C171 1.272 . S
O181 Co173 2.135 . S
Co182 O183 2.216 . S
Co182 O184 2.091 . S
Co182 O186 2.004 . S
Co182 O192 2.021 . S
Co182 O194 2.137 . S
Co182 O195 2.244 . S
O183 Co182 2.216 . S
O183 C190 1.247 . S
O184 Co182 2.091 . S
O184 C190 1.261 . S
C185 O194 1.247 . S
C185 O195 1.272 . S
O186 Co182 2.004 . S
O186 C191 1.259 . S
Co187 O188 2.061 . S
Co187 O193 2.052 . S
Co187 O195 2.135 . S
O188 Co187 2.061 . S
O188 C191 1.235 . S
C189 O192 1.238 . S
C189 O193 1.241 . S
C190 O183 1.247 . S
C190 O184 1.261 . S
C191 O186 1.259 . S
C191 O188 1.235 . S
O192 Co182 2.021 . S
O192 C189 1.238 . S
O193 Co187 2.052 . S
O193 C189 1.241 . S
O194 Co182 2.137 . S
O194 C185 1.247 . S
O195 Co182 2.244 . S
O195 C185 1.272 . S
O195 Co187 2.135 . S
Co196 O197 2.216 . S
Co196 O198 2.091 . S
Co196 O200 2.004 . S
Co196 O206 2.021 . S
Co196 O208 2.137 . S
Co196 O209 2.244 . S
O197 Co196 2.216 . S
O197 C204 1.247 . S
O198 Co196 2.091 . S
O198 C204 1.261 . S
C199 O208 1.247 . S
C199 O209 1.272 . S
O200 Co196 2.004 . S
O200 C205 1.259 . S
Co201 O202 2.061 . S
Co201 O207 2.052 . S
Co201 O209 2.135 . S
O202 Co201 2.061 . S
O202 C205 1.235 . S
C203 O206 1.238 . S
C203 O207 1.241 . S
C204 O197 1.247 . S
C204 O198 1.261 . S
C205 O200 1.259 . S
C205 O202 1.235 . S
O206 Co196 2.021 . S
O206 C203 1.238 . S
O207 Co201 2.052 . S
O207 C203 1.241 . S
O208 Co196 2.137 . S
O208 C199 1.247 . S
O209 Co196 2.244 . S
O209 C199 1.272 . S
O209 Co201 2.135 . S
Co210 O211 2.216 . S
Co210 O212 2.091 . S
Co210 O214 2.004 . S
Co210 O220 2.021 . S
Co210 O222 2.137 . S
Co210 O223 2.244 . S
O211 Co210 2.216 . S
O211 C218 1.247 . S
O212 Co210 2.091 . S
O212 C218 1.261 . S
C213 O222 1.247 . S
C213 O223 1.272 . S
O214 Co210 2.004 . S
O214 C219 1.259 . S
Co215 O216 2.061 . S
Co215 O221 2.052 . S
Co215 O223 2.135 . S
O216 Co215 2.061 . S
O216 C219 1.235 . S
C217 O220 1.238 . S
C217 O221 1.241 . S
C218 O211 1.247 . S
C218 O212 1.261 . S
C219 O214 1.259 . S
C219 O216 1.235 . S
O220 Co210 2.021 . S
O220 C217 1.238 . S
O221 Co215 2.052 . S
O221 C217 1.241 . S
O222 Co210 2.137 . S
O222 C213 1.247 . S
O223 Co210 2.244 . S
O223 C213 1.272 . S
O223 Co215 2.135 . S
Co224 O225 2.216 . S
Co224 O226 2.091 . S
Co224 O228 2.004 . S
Co224 O234 2.021 . S
Co224 O236 2.137 . S
Co224 O237 2.244 . S
O225 Co224 2.216 . S
O225 C232 1.247 . S
O226 Co224 2.091 . S
O226 C232 1.261 . S
C227 O236 1.247 . S
C227 O237 1.272 . S
O228 Co224 2.004 . S
O228 C233 1.259 . S
Co229 O230 2.061 . S
Co229 O235 2.052 . S
Co229 O237 2.135 . S
O230 Co229 2.061 . S
O230 C233 1.235 . S
C231 O234 1.238 . S
C231 O235 1.241 . S
C232 O225 1.247 . S
C232 O226 1.261 . S
C233 O228 1.259 . S
C233 O230 1.235 . S
O234 Co224 2.021 . S
O234 C231 1.238 . S
O235 Co229 2.052 . S
O235 C231 1.241 . S
O236 Co224 2.137 . S
O236 C227 1.247 . S
O237 Co224 2.244 . S
O237 C227 1.272 . S
O237 Co229 2.135 . S
Co238 O239 2.216 . S
Co238 O240 2.091 . S
Co238 O242 2.004 . S
Co238 O248 2.021 . S
Co238 O250 2.137 . S
Co238 O251 2.244 . S
O239 Co238 2.216 . S
O239 C246 1.247 . S
O240 Co238 2.091 . S
O240 C246 1.261 . S
C241 O250 1.247 . S
C241 O251 1.272 . S
O242 Co238 2.004 . S
O242 C247 1.259 . S
Co243 O244 2.061 . S
Co243 O249 2.052 . S
Co243 O251 2.135 . S
O244 Co243 2.061 . S
O244 C247 1.235 . S
C245 O248 1.238 . S
C245 O249 1.241 . S
C246 O239 1.247 . S
C246 O240 1.261 . S
C247 O242 1.259 . S
C247 O244 1.235 . S
O248 Co238 2.021 . S
O248 C245 1.238 . S
O249 Co243 2.052 . S
O249 C245 1.241 . S
O250 Co238 2.137 . S
O250 C241 1.247 . S
O251 Co238 2.244 . S
O251 C241 1.272 . S
O251 Co243 2.135 . S
Co252 O253 2.216 . S
Co252 O254 2.091 . S
Co252 O256 2.004 . S
Co252 O262 2.021 . S
Co252 O264 2.137 . S
Co252 O265 2.244 . S
O253 Co252 2.216 . S
O253 C260 1.247 . S
O254 Co252 2.091 . S
O254 C260 1.261 . S
C255 O264 1.247 . S
C255 O265 1.272 . S
O256 Co252 2.004 . S
O256 C261 1.259 . S
Co257 O258 2.061 . S
Co257 O263 2.052 . S
Co257 O265 2.135 . S
O258 Co257 2.061 . S
O258 C261 1.235 . S
C259 O262 1.238 . S
C259 O263 1.241 . S
C260 O253 1.247 . S
C260 O254 1.261 . S
C261 O256 1.259 . S
C261 O258 1.235 . S
O262 Co252 2.021 . S
O262 C259 1.238 . S
O263 Co257 2.052 . S
O263 C259 1.241 . S
O264 Co252 2.137 . S
O264 C255 1.247 . S
O265 Co252 2.244 . S
O265 C255 1.272 . S
O265 Co257 2.135 . S
Co266 O267 2.216 . S
Co266 O268 2.091 . S
Co266 O270 2.004 . S
Co266 O276 2.021 . S
Co266 O278 2.137 . S
Co266 O279 2.244 . S
O267 Co266 2.216 . S
O267 C274 1.247 . S
O268 Co266 2.091 . S
O268 C274 1.261 . S
C269 O278 1.247 . S
C269 O279 1.272 . S
O270 Co266 2.004 . S
O270 C275 1.259 . S
Co271 O272 2.061 . S
Co271 O277 2.052 . S
Co271 O279 2.135 . S
O272 Co271 2.061 . S
O272 C275 1.235 . S
C273 O276 1.238 . S
C273 O277 1.241 . S
C274 O267 1.247 . S
C274 O268 1.261 . S
C275 O270 1.259 . S
C275 O272 1.235 . S
O276 Co266 2.021 . S
O276 C273 1.238 . S
O277 Co271 2.052 . S
O277 C273 1.241 . S
O278 Co266 2.137 . S
O278 C269 1.247 . S
O279 Co266 2.244 . S
O279 C269 1.272 . S
O279 Co271 2.135 . S
Co280 O281 2.216 . S
Co280 O282 2.091 . S
Co280 O284 2.004 . S
Co280 O290 2.021 . S
Co280 O292 2.137 . S
Co280 O293 2.244 . S
O281 Co280 2.216 . S
O281 C288 1.247 . S
O282 Co280 2.091 . S
O282 C288 1.261 . S
C283 O292 1.247 . S
C283 O293 1.272 . S
O284 Co280 2.004 . S
O284 C289 1.259 . S
Co285 O286 2.061 . S
Co285 O291 2.052 . S
Co285 O293 2.135 . S
O286 Co285 2.061 . S
O286 C289 1.235 . S
C287 O290 1.238 . S
C287 O291 1.241 . S
C288 O281 1.247 . S
C288 O282 1.261 . S
C289 O284 1.259 . S
C289 O286 1.235 . S
O290 Co280 2.021 . S
O290 C287 1.238 . S
O291 Co285 2.052 . S
O291 C287 1.241 . S
O292 Co280 2.137 . S
O292 C283 1.247 . S
O293 Co280 2.244 . S
O293 C283 1.272 . S
O293 Co285 2.135 . S
Co294 O295 2.216 . S
Co294 O296 2.091 . S
Co294 O298 2.004 . S
Co294 O304 2.021 . S
Co294 O306 2.137 . S
Co294 O307 2.244 . S
O295 Co294 2.216 . S
O295 C302 1.247 . S
O296 Co294 2.091 . S
O296 C302 1.261 . S
C297 O306 1.247 . S
C297 O307 1.272 . S
O298 Co294 2.004 . S
O298 C303 1.259 . S
Co299 O300 2.061 . S
Co299 O305 2.052 . S
Co299 O307 2.135 . S
O300 Co299 2.061 . S
O300 C303 1.235 . S
C301 O304 1.238 . S
C301 O305 1.241 . S
C302 O295 1.247 . S
C302 O296 1.261 . S
C303 O298 1.259 . S
C303 O300 1.235 . S
O304 Co294 2.021 . S
O304 C301 1.238 . S
O305 Co299 2.052 . S
O305 C301 1.241 . S
O306 Co294 2.137 . S
O306 C297 1.247 . S
O307 Co294 2.244 . S
O307 C297 1.272 . S
O307 Co299 2.135 . S
Co308 O309 2.216 . S
Co308 O310 2.091 . S
Co308 O312 2.004 . S
Co308 O318 2.021 . S
Co308 O320 2.137 . S
Co308 O321 2.244 . S
O309 Co308 2.216 . S
O309 C316 1.247 . S
O310 Co308 2.091 . S
O310 C316 1.261 . S
C311 O320 1.247 . S
C311 O321 1.272 . S
O312 Co308 2.004 . S
O312 C317 1.259 . S
Co313 O314 2.061 . S
Co313 O319 2.052 . S
Co313 O321 2.135 . S
O314 Co313 2.061 . S
O314 C317 1.235 . S
C315 O318 1.238 . S
C315 O319 1.241 . S
C316 O309 1.247 . S
C316 O310 1.261 . S
C317 O312 1.259 . S
C317 O314 1.235 . S
O318 Co308 2.021 . S
O318 C315 1.238 . S
O319 Co313 2.052 . S
O319 C315 1.241 . S
O320 Co308 2.137 . S
O320 C311 1.247 . S
O321 Co308 2.244 . S
O321 C311 1.272 . S
O321 Co313 2.135 . S
Co322 O323 2.216 . S
Co322 O324 2.091 . S
Co322 O326 2.004 . S
Co322 O332 2.021 . S
Co322 O334 2.137 . S
Co322 O335 2.244 . S
O323 Co322 2.216 . S
O323 C330 1.247 . S
O324 Co322 2.091 . S
O324 C330 1.261 . S
C325 O334 1.247 . S
C325 O335 1.272 . S
O326 Co322 2.004 . S
O326 C331 1.259 . S
Co327 O328 2.061 . S
Co327 O333 2.052 . S
Co327 O335 2.135 . S
O328 Co327 2.061 . S
O328 C331 1.235 . S
C329 O332 1.238 . S
C329 O333 1.241 . S
C330 O323 1.247 . S
C330 O324 1.261 . S
C331 O326 1.259 . S
C331 O328 1.235 . S
O332 Co322 2.021 . S
O332 C329 1.238 . S
O333 Co327 2.052 . S
O333 C329 1.241 . S
O334 Co322 2.137 . S
O334 C325 1.247 . S
O335 Co322 2.244 . S
O335 C325 1.272 . S
O335 Co327 2.135 . S
Co336 O337 2.216 . S
Co336 O338 2.091 . S
Co336 O340 2.004 . S
Co336 O346 2.021 . S
Co336 O348 2.137 . S
Co336 O349 2.244 . S
O337 Co336 2.216 . S
O337 C344 1.247 . S
O338 Co336 2.091 . S
O338 C344 1.261 . S
C339 O348 1.247 . S
C339 O349 1.272 . S
O340 Co336 2.004 . S
O340 C345 1.259 . S
Co341 O342 2.061 . S
Co341 O347 2.052 . S
Co341 O349 2.135 . S
O342 Co341 2.061 . S
O342 C345 1.235 . S
C343 O346 1.238 . S
C343 O347 1.241 . S
C344 O337 1.247 . S
C344 O338 1.261 . S
C345 O340 1.259 . S
C345 O342 1.235 . S
O346 Co336 2.021 . S
O346 C343 1.238 . S
O347 Co341 2.052 . S
O347 C343 1.241 . S
O348 Co336 2.137 . S
O348 C339 1.247 . S
O349 Co336 2.244 . S
O349 C339 1.272 . S
O349 Co341 2.135 . S
Co350 O351 2.216 . S
Co350 O352 2.091 . S
Co350 O354 2.004 . S
Co350 O360 2.021 . S
Co350 O362 2.137 . S
Co350 O363 2.244 . S
O351 Co350 2.216 . S
O351 C358 1.247 . S
O352 Co350 2.091 . S
O352 C358 1.261 . S
C353 O362 1.247 . S
C353 O363 1.272 . S
O354 Co350 2.004 . S
O354 C359 1.259 . S
Co355 O356 2.061 . S
Co355 O361 2.052 . S
Co355 O363 2.135 . S
O356 Co355 2.061 . S
O356 C359 1.235 . S
C357 O360 1.238 . S
C357 O361 1.241 . S
C358 O351 1.247 . S
C358 O352 1.261 . S
C359 O354 1.259 . S
C359 O356 1.235 . S
O360 Co350 2.021 . S
O360 C357 1.238 . S
O361 Co355 2.052 . S
O361 C357 1.241 . S
O362 Co350 2.137 . S
O362 C353 1.247 . S
O363 Co350 2.244 . S
O363 C353 1.272 . S
O363 Co355 2.135 . S
Co364 O365 2.216 . S
Co364 O366 2.091 . S
Co364 O368 2.004 . S
Co364 O374 2.021 . S
Co364 O376 2.137 . S
Co364 O377 2.244 . S
O365 Co364 2.216 . S
O365 C372 1.247 . S
O366 Co364 2.091 . S
O366 C372 1.261 . S
C367 O376 1.247 . S
C367 O377 1.272 . S
O368 Co364 2.004 . S
O368 C373 1.259 . S
Co369 O370 2.061 . S
Co369 O375 2.052 . S
Co369 O377 2.135 . S
O370 Co369 2.061 . S
O370 C373 1.235 . S
C371 O374 1.238 . S
C371 O375 1.241 . S
C372 O365 1.247 . S
C372 O366 1.261 . S
C373 O368 1.259 . S
C373 O370 1.235 . S
O374 Co364 2.021 . S
O374 C371 1.238 . S
O375 Co369 2.052 . S
O375 C371 1.241 . S
O376 Co364 2.137 . S
O376 C367 1.247 . S
O377 Co364 2.244 . S
O377 C367 1.272 . S
O377 Co369 2.135 . S
Co378 O379 2.216 . S
Co378 O380 2.091 . S
Co378 O382 2.004 . S
Co378 O388 2.021 . S
Co378 O390 2.137 . S
Co378 O391 2.244 . S
O379 Co378 2.216 . S
O379 C386 1.247 . S
O380 Co378 2.091 . S
O380 C386 1.261 . S
C381 O390 1.247 . S
C381 O391 1.272 . S
O382 Co378 2.004 . S
O382 C387 1.259 . S
Co383 O384 2.061 . S
Co383 O389 2.052 . S
Co383 O391 2.135 . S
O384 Co383 2.061 . S
O384 C387 1.235 . S
C385 O388 1.238 . S
C385 O389 1.241 . S
C386 O379 1.247 . S
C386 O380 1.261 . S
C387 O382 1.259 . S
C387 O384 1.235 . S
O388 Co378 2.021 . S
O388 C385 1.238 . S
O389 Co383 2.052 . S
O389 C385 1.241 . S
O390 Co378 2.137 . S
O390 C381 1.247 . S
O391 Co378 2.244 . S
O391 C381 1.272 . S
O391 Co383 2.135 . S
Co392 O393 2.216 . S
Co392 O394 2.091 . S
Co392 O396 2.004 . S
Co392 O402 2.021 . S
Co392 O404 2.137 . S
Co392 O405 2.244 . S
O393 Co392 2.216 . S
O393 C400 1.247 . S
O394 Co392 2.091 . S
O394 C400 1.261 . S
C395 O404 1.247 . S
C395 O405 1.272 . S
O396 Co392 2.004 . S
O396 C401 1.259 . S
Co397 O398 2.061 . S
Co397 O403 2.052 . S
Co397 O405 2.135 . S
O398 Co397 2.061 . S
O398 C401 1.235 . S
C399 O402 1.238 . S
C399 O403 1.241 . S
C400 O393 1.247 . S
C400 O394 1.261 . S
C401 O396 1.259 . S
C401 O398 1.235 . S
O402 Co392 2.021 . S
O402 C399 1.238 . S
O403 Co397 2.052 . S
O403 C399 1.241 . S
O404 Co392 2.137 . S
O404 C395 1.247 . S
O405 Co392 2.244 . S
O405 C395 1.272 . S
O405 Co397 2.135 . S
Co406 O407 2.216 . S
Co406 O408 2.091 . S
Co406 O410 2.004 . S
Co406 O416 2.021 . S
Co406 O418 2.137 . S
Co406 O419 2.244 . S
O407 Co406 2.216 . S
O407 C414 1.247 . S
O408 Co406 2.091 . S
O408 C414 1.261 . S
C409 O418 1.247 . S
C409 O419 1.272 . S
O410 Co406 2.004 . S
O410 C415 1.259 . S
Co411 O412 2.061 . S
Co411 O417 2.052 . S
Co411 O419 2.135 . S
O412 Co411 2.061 . S
O412 C415 1.235 . S
C413 O416 1.238 . S
C413 O417 1.241 . S
C414 O407 1.247 . S
C414 O408 1.261 . S
C415 O410 1.259 . S
C415 O412 1.235 . S
O416 Co406 2.021 . S
O416 C413 1.238 . S
O417 Co411 2.052 . S
O417 C413 1.241 . S
O418 Co406 2.137 . S
O418 C409 1.247 . S
O419 Co406 2.244 . S
O419 C409 1.272 . S
O419 Co411 2.135 . S
Co420 O421 2.216 . S
Co420 O422 2.091 . S
Co420 O424 2.004 . S
Co420 O430 2.021 . S
Co420 O432 2.137 . S
Co420 O433 2.244 . S
O421 Co420 2.216 . S
O421 C428 1.247 . S
O422 Co420 2.091 . S
O422 C428 1.261 . S
C423 O432 1.247 . S
C423 O433 1.272 . S
O424 Co420 2.004 . S
O424 C429 1.259 . S
Co425 O426 2.061 . S
Co425 O431 2.052 . S
Co425 O433 2.135 . S
O426 Co425 2.061 . S
O426 C429 1.235 . S
C427 O430 1.238 . S
C427 O431 1.241 . S
C428 O421 1.247 . S
C428 O422 1.261 . S
C429 O424 1.259 . S
C429 O426 1.235 . S
O430 Co420 2.021 . S
O430 C427 1.238 . S
O431 Co425 2.052 . S
O431 C427 1.241 . S
O432 Co420 2.137 . S
O432 C423 1.247 . S
O433 Co420 2.244 . S
O433 C423 1.272 . S
O433 Co425 2.135 . S
Co434 O435 2.216 . S
Co434 O436 2.091 . S
Co434 O438 2.004 . S
Co434 O444 2.021 . S
Co434 O446 2.137 . S
Co434 O447 2.244 . S
O435 Co434 2.216 . S
O435 C442 1.247 . S
O436 Co434 2.091 . S
O436 C442 1.261 . S
C437 O446 1.247 . S
C437 O447 1.272 . S
O438 Co434 2.004 . S
O438 C443 1.259 . S
Co439 O440 2.061 . S
Co439 O445 2.052 . S
Co439 O447 2.135 . S
O440 Co439 2.061 . S
O440 C443 1.235 . S
C441 O444 1.238 . S
C441 O445 1.241 . S
C442 O435 1.247 . S
C442 O436 1.261 . S
C443 O438 1.259 . S
C443 O440 1.235 . S
O444 Co434 2.021 . S
O444 C441 1.238 . S
O445 Co439 2.052 . S
O445 C441 1.241 . S
O446 Co434 2.137 . S
O446 C437 1.247 . S
O447 Co434 2.244 . S
O447 C437 1.272 . S
O447 Co439 2.135 . S
H448 C456 0.950 . S
H449 C461 0.950 . S
H450 C458 0.950 . S
H451 C460 0.950 . S
H452 C462 0.950 . S
H453 C464 0.950 . S
H454 C466 0.950 . S
H455 C467 0.950 . S
C456 H448 0.950 . S
C456 C457 1.386 . S
C456 C458 1.391 . S
C457 C456 1.386 . S
C457 C461 1.393 . S
C458 H450 0.950 . S
C458 C456 1.391 . S
C458 C459 1.400 . S
C459 C458 1.400 . S
C459 C460 1.398 . S
C459 C465 1.491 . S
C460 H451 0.950 . S
C460 C459 1.398 . S
C460 C461 1.391 . S
C461 H449 0.950 . S
C461 C457 1.393 . S
C461 C460 1.391 . S
C462 H452 0.950 . S
C462 C463 1.386 . S
C462 C464 1.391 . S
C463 C462 1.386 . S
C463 C467 1.393 . S
C464 H453 0.950 . S
C464 C462 1.391 . S
C464 C465 1.400 . S
C465 C459 1.491 . S
C465 C464 1.400 . S
C465 C466 1.398 . S
C466 H454 0.950 . S
C466 C465 1.398 . S
C466 C467 1.391 . S
C467 H455 0.950 . S
C467 C463 1.393 . S
C467 C466 1.391 . S
H468 C476 0.950 . S
H469 C481 0.950 . S
H470 C478 0.950 . S
H471 C480 0.950 . S
H472 C482 0.950 . S
H473 C484 0.950 . S
H474 C486 0.950 . S
H475 C487 0.950 . S
C476 H468 0.950 . S
C476 C477 1.386 . S
C476 C478 1.391 . S
C477 C476 1.386 . S
C477 C481 1.393 . S
C478 H470 0.950 . S
C478 C476 1.391 . S
C478 C479 1.400 . S
C479 C478 1.400 . S
C479 C480 1.398 . S
C479 C485 1.491 1_565 S
C480 H471 0.950 . S
C480 C479 1.398 . S
C480 C481 1.391 . S
C481 H469 0.950 . S
C481 C477 1.393 . S
C481 C480 1.391 . S
C482 H472 0.950 . S
C482 C483 1.386 . S
C482 C484 1.391 . S
C483 C482 1.386 . S
C483 C487 1.393 . S
C484 H473 0.950 . S
C484 C482 1.391 . S
C484 C485 1.400 . S
C485 C479 1.491 1_545 S
C485 C484 1.400 . S
C485 C486 1.398 . S
C486 H474 0.950 . S
C486 C485 1.398 . S
C486 C487 1.391 . S
C487 H475 0.950 . S
C487 C483 1.393 . S
C487 C486 1.391 . S
H488 C496 0.950 . S
H489 C501 0.950 . S
H490 C498 0.950 . S
H491 C500 0.950 . S
H492 C502 0.950 . S
H493 C504 0.950 . S
H494 C506 0.950 . S
H495 C507 0.950 . S
C496 H488 0.950 . S
C496 C497 1.386 . S
C496 C498 1.391 . S
C497 C496 1.386 . S
C497 C501 1.393 . S
C498 H490 0.950 . S
C498 C496 1.391 . S
C498 C499 1.400 . S
C499 C498 1.400 . S
C499 C500 1.398 . S
C499 C505 1.491 1_554 S
C500 H491 0.950 . S
C500 C499 1.398 . S
C500 C501 1.391 . S
C501 H489 0.950 . S
C501 C497 1.393 . S
C501 C500 1.391 . S
C502 H492 0.950 . S
C502 C503 1.386 . S
C502 C504 1.391 . S
C503 C502 1.386 . S
C503 C507 1.393 . S
C504 H493 0.950 . S
C504 C502 1.391 . S
C504 C505 1.400 . S
C505 C499 1.491 1_556 S
C505 C504 1.400 . S
C505 C506 1.398 . S
C506 H494 0.950 . S
C506 C505 1.398 . S
C506 C507 1.391 . S
C507 H495 0.950 . S
C507 C503 1.393 . S
C507 C506 1.391 . S
H508 C516 0.950 . S
H509 C521 0.950 . S
H510 C518 0.950 . S
H511 C520 0.950 . S
H512 C522 0.950 . S
H513 C524 0.950 . S
H514 C526 0.950 . S
H515 C527 0.950 . S
C516 H508 0.950 . S
C516 C517 1.386 . S
C516 C518 1.391 . S
C517 C516 1.386 . S
C517 C521 1.393 . S
C518 H510 0.950 . S
C518 C516 1.391 . S
C518 C519 1.400 . S
C519 C518 1.400 . S
C519 C520 1.398 . S
C519 C525 1.491 1_545 S
C520 H511 0.950 . S
C520 C519 1.398 . S
C520 C521 1.391 . S
C521 H509 0.950 . S
C521 C517 1.393 . S
C521 C520 1.391 . S
C522 H512 0.950 . S
C522 C523 1.386 . S
C522 C524 1.391 . S
C523 C522 1.386 . S
C523 C527 1.393 . S
C524 H513 0.950 . S
C524 C522 1.391 . S
C524 C525 1.400 . S
C525 C519 1.491 1_565 S
C525 C524 1.400 . S
C525 C526 1.398 . S
C526 H514 0.950 . S
C526 C525 1.398 . S
C526 C527 1.391 . S
C527 H515 0.950 . S
C527 C523 1.393 . S
C527 C526 1.391 . S
H528 C536 0.950 . S
H529 C541 0.950 . S
H530 C538 0.950 . S
H531 C540 0.950 . S
H532 C542 0.950 . S
H533 C544 0.950 . S
H534 C546 0.950 . S
H535 C547 0.950 . S
C536 H528 0.950 . S
C536 C537 1.386 . S
C536 C538 1.391 . S
C537 C536 1.386 . S
C537 C541 1.393 . S
C538 H530 0.950 . S
C538 C536 1.391 . S
C538 C539 1.400 . S
C539 C538 1.400 . S
C539 C540 1.398 . S
C539 C545 1.491 . S
C540 H531 0.950 . S
C540 C539 1.398 . S
C540 C541 1.391 . S
C541 H529 0.950 . S
C541 C537 1.393 . S
C541 C540 1.391 . S
C542 H532 0.950 . S
C542 C543 1.386 . S
C542 C544 1.391 . S
C543 C542 1.386 . S
C543 C547 1.393 . S
C544 H533 0.950 . S
C544 C542 1.391 . S
C544 C545 1.400 . S
C545 C539 1.491 . S
C545 C544 1.400 . S
C545 C546 1.398 . S
C546 H534 0.950 . S
C546 C545 1.398 . S
C546 C547 1.391 . S
C547 H535 0.950 . S
C547 C543 1.393 . S
C547 C546 1.391 . S
H548 C556 0.950 . S
H549 C561 0.950 . S
H550 C558 0.950 . S
H551 C560 0.950 . S
H552 C562 0.950 . S
H553 C564 0.950 . S
H554 C566 0.950 . S
H555 C567 0.950 . S
C556 H548 0.950 . S
C556 C557 1.386 . S
C556 C558 1.391 . S
C557 C556 1.386 . S
C557 C561 1.393 . S
C558 H550 0.950 . S
C558 C556 1.391 . S
C558 C559 1.400 . S
C559 C558 1.400 . S
C559 C560 1.398 . S
C559 C565 1.491 1_545 S
C560 H551 0.950 . S
C560 C559 1.398 . S
C560 C561 1.391 . S
C561 H549 0.950 . S
C561 C557 1.393 . S
C561 C560 1.391 . S
C562 H552 0.950 . S
C562 C563 1.386 . S
C562 C564 1.391 . S
C563 C562 1.386 . S
C563 C567 1.393 . S
C564 H553 0.950 . S
C564 C562 1.391 . S
C564 C565 1.400 . S
C565 C559 1.491 1_565 S
C565 C564 1.400 . S
C565 C566 1.398 . S
C566 H554 0.950 . S
C566 C565 1.398 . S
C566 C567 1.391 . S
C567 H555 0.950 . S
C567 C563 1.393 . S
C567 C566 1.391 . S
H568 C576 0.950 . S
H569 C581 0.950 . S
H570 C578 0.950 1_554 S
H571 C580 0.950 . S
H572 C582 0.950 . S
H573 C584 0.950 1_556 S
H574 C586 0.950 . S
H575 C587 0.950 . S
C576 H568 0.950 . S
C576 C577 1.386 . S
C576 C578 1.391 . S
C577 C576 1.386 . S
C577 C581 1.393 . S
C578 H570 0.950 1_556 S
C578 C576 1.391 . S
C578 C579 1.400 . S
C579 C578 1.400 . S
C579 C580 1.398 . S
C579 C585 1.491 1_556 S
C580 H571 0.950 . S
C580 C579 1.398 . S
C580 C581 1.391 . S
C581 H569 0.950 . S
C581 C577 1.393 . S
C581 C580 1.391 . S
C582 H572 0.950 . S
C582 C583 1.386 . S
C582 C584 1.391 . S
C583 C582 1.386 . S
C583 C587 1.393 . S
C584 H573 0.950 1_554 S
C584 C582 1.391 . S
C584 C585 1.400 . S
C585 C579 1.491 1_554 S
C585 C584 1.400 . S
C585 C586 1.398 . S
C586 H574 0.950 . S
C586 C585 1.398 . S
C586 C587 1.391 . S
C587 H575 0.950 . S
C587 C583 1.393 . S
C587 C586 1.391 . S
H588 C596 0.950 . S
H589 C601 0.950 . S
H590 C598 0.950 . S
H591 C600 0.950 . S
H592 C602 0.950 . S
H593 C604 0.950 . S
H594 C606 0.950 . S
H595 C607 0.950 . S
C596 H588 0.950 . S
C596 C597 1.386 . S
C596 C598 1.391 . S
C597 C596 1.386 . S
C597 C601 1.393 . S
C598 H590 0.950 . S
C598 C596 1.391 . S
C598 C599 1.400 . S
C599 C598 1.400 . S
C599 C600 1.398 . S
C599 C605 1.491 1_565 S
C600 H591 0.950 . S
C600 C599 1.398 . S
C600 C601 1.391 . S
C601 H589 0.950 . S
C601 C597 1.393 . S
C601 C600 1.391 . S
C602 H592 0.950 . S
C602 C603 1.386 . S
C602 C604 1.391 . S
C603 C602 1.386 . S
C603 C607 1.393 . S
C604 H593 0.950 . S
C604 C602 1.391 . S
C604 C605 1.400 . S
C605 C599 1.491 1_545 S
C605 C604 1.400 . S
C605 C606 1.398 . S
C606 H594 0.950 . S
C606 C605 1.398 . S
C606 C607 1.391 . S
C607 H595 0.950 . S
C607 C603 1.393 . S
C607 C606 1.391 . S
H608 C616 0.950 . S
H609 C621 0.950 . S
H610 C618 0.950 . S
H611 C620 0.950 . S
H612 C622 0.950 . S
H613 C624 0.950 . S
H614 C626 0.950 . S
H615 C627 0.950 . S
C616 H608 0.950 . S
C616 C617 1.386 . S
C616 C618 1.391 . S
C617 C616 1.386 . S
C617 C621 1.393 . S
C618 H610 0.950 . S
C618 C616 1.391 . S
C618 C619 1.400 . S
C619 C618 1.400 . S
C619 C620 1.398 1_556 S
C619 C625 1.491 1_556 S
C620 H611 0.950 . S
C620 C619 1.398 1_554 S
C620 C621 1.391 1_554 S
C621 H609 0.950 . S
C621 C617 1.393 . S
C621 C620 1.391 1_556 S
C622 H612 0.950 . S
C622 C623 1.386 . S
C622 C624 1.391 . S
C623 C622 1.386 . S
C623 C627 1.393 . S
C624 H613 0.950 . S
C624 C622 1.391 . S
C624 C625 1.400 . S
C625 C619 1.491 1_554 S
C625 C624 1.400 . S
C625 C626 1.398 1_554 S
C626 H614 0.950 . S
C626 C625 1.398 1_556 S
C626 C627 1.391 1_556 S
C627 H615 0.950 . S
C627 C623 1.393 . S
C627 C626 1.391 1_554 S
H628 C636 0.950 . S
H629 C641 0.950 . S
H630 C638 0.950 . S
H631 C640 0.950 . S
H632 C642 0.950 . S
H633 C644 0.950 . S
H634 C646 0.950 . S
H635 C647 0.950 . S
C636 H628 0.950 . S
C636 C637 1.386 . S
C636 C638 1.391 . S
C637 C636 1.386 . S
C637 C641 1.393 . S
C638 H630 0.950 . S
C638 C636 1.391 . S
C638 C639 1.400 . S
C639 C638 1.400 . S
C639 C640 1.398 . S
C639 C645 1.491 . S
C640 H631 0.950 . S
C640 C639 1.398 . S
C640 C641 1.391 . S
C641 H629 0.950 . S
C641 C637 1.393 . S
C641 C640 1.391 . S
C642 H632 0.950 . S
C642 C643 1.386 . S
C642 C644 1.391 . S
C643 C642 1.386 . S
C643 C647 1.393 . S
C644 H633 0.950 . S
C644 C642 1.391 . S
C644 C645 1.400 . S
C645 C639 1.491 . S
C645 C644 1.400 . S
C645 C646 1.398 . S
C646 H634 0.950 . S
C646 C645 1.398 . S
C646 C647 1.391 . S
C647 H635 0.950 . S
C647 C643 1.393 . S
C647 C646 1.391 . S
H648 C656 0.950 . S
H649 C661 0.950 . S
H650 C658 0.950 . S
H651 C660 0.950 . S
H652 C662 0.950 . S
H653 C664 0.950 . S
H654 C666 0.950 . S
H655 C667 0.950 . S
C656 H648 0.950 . S
C656 C657 1.386 . S
C656 C658 1.391 . S
C657 C656 1.386 . S
C657 C661 1.393 . S
C658 H650 0.950 . S
C658 C656 1.391 . S
C658 C659 1.400 . S
C659 C658 1.400 . S
C659 C660 1.398 . S
C659 C665 1.491 . S
C660 H651 0.950 . S
C660 C659 1.398 . S
C660 C661 1.391 . S
C661 H649 0.950 . S
C661 C657 1.393 . S
C661 C660 1.391 . S
C662 H652 0.950 . S
C662 C663 1.386 . S
C662 C664 1.391 . S
C663 C662 1.386 . S
C663 C667 1.393 . S
C664 H653 0.950 . S
C664 C662 1.391 . S
C664 C665 1.400 . S
C665 C659 1.491 . S
C665 C664 1.400 . S
C665 C666 1.398 . S
C666 H654 0.950 . S
C666 C665 1.398 . S
C666 C667 1.391 . S
C667 H655 0.950 . S
C667 C663 1.393 . S
C667 C666 1.391 . S
H668 C676 0.950 . S
H669 C681 0.950 . S
H670 C678 0.950 . S
H671 C680 0.950 . S
H672 C682 0.950 . S
H673 C684 0.950 . S
H674 C686 0.950 . S
H675 C687 0.950 . S
C676 H668 0.950 . S
C676 C677 1.386 . S
C676 C678 1.391 . S
C677 C676 1.386 . S
C677 C681 1.393 . S
C678 H670 0.950 . S
C678 C676 1.391 . S
C678 C679 1.400 . S
C679 C678 1.400 . S
C679 C680 1.398 . S
C679 C685 1.491 . S
C680 H671 0.950 . S
C680 C679 1.398 . S
C680 C681 1.391 . S
C681 H669 0.950 . S
C681 C677 1.393 . S
C681 C680 1.391 . S
C682 H672 0.950 . S
C682 C683 1.386 . S
C682 C684 1.391 . S
C683 C682 1.386 . S
C683 C687 1.393 . S
C684 H673 0.950 . S
C684 C682 1.391 . S
C684 C685 1.400 . S
C685 C679 1.491 . S
C685 C684 1.400 . S
C685 C686 1.398 . S
C686 H674 0.950 . S
C686 C685 1.398 . S
C686 C687 1.391 . S
C687 H675 0.950 . S
C687 C683 1.393 . S
C687 C686 1.391 . S
H688 C696 0.950 . S
H689 C701 0.950 . S
H690 C698 0.950 1_554 S
H691 C700 0.950 . S
H692 C702 0.950 . S
H693 C704 0.950 1_556 S
H694 C706 0.950 . S
H695 C707 0.950 . S
C696 H688 0.950 . S
C696 C697 1.386 . S
C696 C698 1.391 . S
C697 C696 1.386 . S
C697 C701 1.393 . S
C698 H690 0.950 1_556 S
C698 C696 1.391 . S
C698 C699 1.400 . S
C699 C698 1.400 . S
C699 C700 1.398 . S
C699 C705 1.491 1_556 S
C700 H691 0.950 . S
C700 C699 1.398 . S
C700 C701 1.391 . S
C701 H689 0.950 . S
C701 C697 1.393 . S
C701 C700 1.391 . S
C702 H692 0.950 . S
C702 C703 1.386 . S
C702 C704 1.391 . S
C703 C702 1.386 . S
C703 C707 1.393 . S
C704 H693 0.950 1_554 S
C704 C702 1.391 . S
C704 C705 1.400 . S
C705 C699 1.491 1_554 S
C705 C704 1.400 . S
C705 C706 1.398 . S
C706 H694 0.950 . S
C706 C705 1.398 . S
C706 C707 1.391 . S
C707 H695 0.950 . S
C707 C703 1.393 . S
C707 C706 1.391 . S
H708 C716 0.950 . S
H709 C721 0.950 . S
H710 C718 0.950 . S
H711 C720 0.950 . S
H712 C722 0.950 . S
H713 C724 0.950 . S
H714 C726 0.950 . S
H715 C727 0.950 . S
C716 H708 0.950 . S
C716 C717 1.386 . S
C716 C718 1.391 . S
C717 C716 1.386 . S
C717 C721 1.393 . S
C718 H710 0.950 . S
C718 C716 1.391 . S
C718 C719 1.400 . S
C719 C718 1.400 . S
C719 C720 1.398 . S
C719 C725 1.491 . S
C720 H711 0.950 . S
C720 C719 1.398 . S
C720 C721 1.391 . S
C721 H709 0.950 . S
C721 C717 1.393 . S
C721 C720 1.391 . S
C722 H712 0.950 . S
C722 C723 1.386 . S
C722 C724 1.391 . S
C723 C722 1.386 . S
C723 C727 1.393 . S
C724 H713 0.950 . S
C724 C722 1.391 . S
C724 C725 1.400 . S
C725 C719 1.491 . S
C725 C724 1.400 . S
C725 C726 1.398 . S
C726 H714 0.950 . S
C726 C725 1.398 . S
C726 C727 1.391 . S
C727 H715 0.950 . S
C727 C723 1.393 . S
C727 C726 1.391 . S
H728 C736 0.950 . S
H729 C741 0.950 . S
H730 C738 0.950 . S
H731 C740 0.950 . S
H732 C742 0.950 . S
H733 C744 0.950 . S
H734 C746 0.950 . S
H735 C747 0.950 . S
C736 H728 0.950 . S
C736 C737 1.386 . S
C736 C738 1.391 . S
C737 C736 1.386 . S
C737 C741 1.393 . S
C738 H730 0.950 . S
C738 C736 1.391 . S
C738 C739 1.400 . S
C739 C738 1.400 . S
C739 C740 1.398 . S
C739 C745 1.491 . S
C740 H731 0.950 . S
C740 C739 1.398 . S
C740 C741 1.391 . S
C741 H729 0.950 . S
C741 C737 1.393 . S
C741 C740 1.391 . S
C742 H732 0.950 . S
C742 C743 1.386 . S
C742 C744 1.391 . S
C743 C742 1.386 . S
C743 C747 1.393 . S
C744 H733 0.950 . S
C744 C742 1.391 . S
C744 C745 1.400 . S
C745 C739 1.491 . S
C745 C744 1.400 . S
C745 C746 1.398 . S
C746 H734 0.950 . S
C746 C745 1.398 . S
C746 C747 1.391 . S
C747 H735 0.950 . S
C747 C743 1.393 . S
C747 C746 1.391 . S
H748 C756 0.950 . S
H749 C761 0.950 . S
H750 C758 0.950 . S
H751 C760 0.950 . S
H752 C762 0.950 . S
H753 C764 0.950 . S
H754 C766 0.950 . S
H755 C767 0.950 . S
C756 H748 0.950 . S
C756 C757 1.386 . S
C756 C758 1.391 . S
C757 C756 1.386 . S
C757 C761 1.393 . S
C758 H750 0.950 . S
C758 C756 1.391 . S
C758 C759 1.400 . S
C759 C758 1.400 . S
C759 C760 1.398 . S
C759 C765 1.491 . S
C760 H751 0.950 . S
C760 C759 1.398 . S
C760 C761 1.391 . S
C761 H749 0.950 . S
C761 C757 1.393 . S
C761 C760 1.391 . S
C762 H752 0.950 . S
C762 C763 1.386 . S
C762 C764 1.391 . S
C763 C762 1.386 . S
C763 C767 1.393 . S
C764 H753 0.950 . S
C764 C762 1.391 . S
C764 C765 1.400 . S
C765 C759 1.491 . S
C765 C764 1.400 . S
C765 C766 1.398 . S
C766 H754 0.950 . S
C766 C765 1.398 . S
C766 C767 1.391 . S
C767 H755 0.950 . S
C767 C763 1.393 . S
C767 C766 1.391 . S
H768 C776 0.950 1_554 S
H769 C781 0.950 . S
H770 C778 0.950 . S
H771 C780 0.950 . S
H772 C782 0.950 . S
H773 C784 0.950 1_556 S
H774 C786 0.950 . S
H775 C787 0.950 . S
C776 H768 0.950 1_556 S
C776 C777 1.386 . S
C776 C778 1.391 1_556 S
C777 C776 1.386 . S
C777 C781 1.393 . S
C778 H770 0.950 . S
C778 C776 1.391 1_554 S
C778 C779 1.400 . S
C779 C778 1.400 . S
C779 C780 1.398 1_554 S
C779 C785 1.491 . S
C780 H771 0.950 . S
C780 C779 1.398 1_556 S
C780 C781 1.391 . S
C781 H769 0.950 . S
C781 C777 1.393 . S
C781 C780 1.391 . S
C782 H772 0.950 . S
C782 C783 1.386 . S
C782 C784 1.391 . S
C783 C782 1.386 . S
C783 C787 1.393 . S
C784 H773 0.950 1_554 S
C784 C782 1.391 . S
C784 C785 1.400 . S
C785 C779 1.491 . S
C785 C784 1.400 . S
C785 C786 1.398 . S
C786 H774 0.950 . S
C786 C785 1.398 . S
C786 C787 1.391 . S
C787 H775 0.950 . S
C787 C783 1.393 . S
C787 C786 1.391 . S
H788 C796 0.950 . S
H789 C801 0.950 . S
H790 C798 0.950 . S
H791 C800 0.950 . S
H792 C802 0.950 . S
H793 C804 0.950 . S
H794 C806 0.950 . S
H795 C807 0.950 . S
C796 H788 0.950 . S
C796 C797 1.386 . S
C796 C798 1.391 . S
C797 C796 1.386 . S
C797 C801 1.393 . S
C798 H790 0.950 . S
C798 C796 1.391 . S
C798 C799 1.400 . S
C799 C798 1.400 . S
C799 C800 1.398 . S
C799 C805 1.491 . S
C800 H791 0.950 . S
C800 C799 1.398 . S
C800 C801 1.391 . S
C801 H789 0.950 . S
C801 C797 1.393 . S
C801 C800 1.391 . S
C802 H792 0.950 . S
C802 C803 1.386 . S
C802 C804 1.391 . S
C803 C802 1.386 . S
C803 C807 1.393 . S
C804 H793 0.950 . S
C804 C802 1.391 . S
C804 C805 1.400 . S
C805 C799 1.491 . S
C805 C804 1.400 . S
C805 C806 1.398 . S
C806 H794 0.950 . S
C806 C805 1.398 . S
C806 C807 1.391 . S
C807 H795 0.950 . S
C807 C803 1.393 . S
C807 C806 1.391 . S
H808 C816 0.950 . S
H809 C821 0.950 . S
H810 C818 0.950 . S
H811 C820 0.950 . S
H812 C822 0.950 . S
H813 C824 0.950 . S
H814 C826 0.950 . S
H815 C827 0.950 . S
C816 H808 0.950 . S
C816 C817 1.386 . S
C816 C818 1.391 . S
C817 C816 1.386 . S
C817 C821 1.393 . S
C818 H810 0.950 . S
C818 C816 1.391 . S
C818 C819 1.400 . S
C819 C818 1.400 . S
C819 C820 1.398 . S
C819 C825 1.491 . S
C820 H811 0.950 . S
C820 C819 1.398 . S
C820 C821 1.391 . S
C821 H809 0.950 . S
C821 C817 1.393 . S
C821 C820 1.391 . S
C822 H812 0.950 . S
C822 C823 1.386 . S
C822 C824 1.391 . S
C823 C822 1.386 . S
C823 C827 1.393 . S
C824 H813 0.950 . S
C824 C822 1.391 . S
C824 C825 1.400 . S
C825 C819 1.491 . S
C825 C824 1.400 . S
C825 C826 1.398 . S
C826 H814 0.950 . S
C826 C825 1.398 . S
C826 C827 1.391 . S
C827 H815 0.950 . S
C827 C823 1.393 . S
C827 C826 1.391 . S
H828 C836 0.950 . S
H829 C841 0.950 . S
H830 C838 0.950 1_554 S
H831 C840 0.950 . S
H832 C842 0.950 1_556 S
H833 C844 0.950 . S
H834 C846 0.950 . S
H835 C847 0.950 . S
C836 H828 0.950 . S
C836 C837 1.386 . S
C836 C838 1.391 . S
C837 C836 1.386 . S
C837 C841 1.393 . S
C838 H830 0.950 1_556 S
C838 C836 1.391 . S
C838 C839 1.400 . S
C839 C838 1.400 . S
C839 C840 1.398 . S
C839 C845 1.491 . S
C840 H831 0.950 . S
C840 C839 1.398 . S
C840 C841 1.391 . S
C841 H829 0.950 . S
C841 C837 1.393 . S
C841 C840 1.391 . S
C842 H832 0.950 1_554 S
C842 C843 1.386 . S
C842 C844 1.391 1_554 S
C843 C842 1.386 . S
C843 C847 1.393 . S
C844 H833 0.950 . S
C844 C842 1.391 1_556 S
C844 C845 1.400 . S
C845 C839 1.491 . S
C845 C844 1.400 . S
C845 C846 1.398 1_556 S
C846 H834 0.950 . S
C846 C845 1.398 1_554 S
C846 C847 1.391 . S
C847 H835 0.950 . S
C847 C843 1.393 . S
C847 C846 1.391 . S
H848 C856 0.950 . S
H849 C861 0.950 . S
H850 C858 0.950 . S
H851 C860 0.950 . S
H852 C862 0.950 . S
H853 C864 0.950 . S
H854 C866 0.950 . S
H855 C867 0.950 . S
C856 H848 0.950 . S
C856 C857 1.386 . S
C856 C858 1.391 . S
C857 C856 1.386 . S
C857 C861 1.393 . S
C858 H850 0.950 . S
C858 C856 1.391 . S
C858 C859 1.400 1_554 S
C859 C858 1.400 1_556 S
C859 C860 1.398 . S
C859 C865 1.491 . S
C860 H851 0.950 . S
C860 C859 1.398 . S
C860 C861 1.391 1_556 S
C861 H849 0.950 . S
C861 C857 1.393 . S
C861 C860 1.391 1_554 S
C862 H852 0.950 . S
C862 C863 1.386 . S
C862 C864 1.391 . S
C863 C862 1.386 . S
C863 C867 1.393 . S
C864 H853 0.950 . S
C864 C862 1.391 . S
C864 C865 1.400 . S
C865 C859 1.491 . S
C865 C864 1.400 . S
C865 C866 1.398 . S
C866 H854 0.950 . S
C866 C865 1.398 . S
C866 C867 1.391 . S
C867 H855 0.950 . S
C867 C863 1.393 . S
C867 C866 1.391 . S
H868 C876 0.950 . S
H869 C881 0.950 . S
H870 C878 0.950 . S
H871 C880 0.950 . S
H872 C882 0.950 . S
H873 C884 0.950 . S
H874 C886 0.950 . S
H875 C887 0.950 . S
C876 H868 0.950 . S
C876 C877 1.386 . S
C876 C878 1.391 . S
C877 C876 1.386 . S
C877 C881 1.393 . S
C878 H870 0.950 . S
C878 C876 1.391 . S
C878 C879 1.400 . S
C879 C878 1.400 . S
C879 C880 1.398 . S
C879 C885 1.491 . S
C880 H871 0.950 . S
C880 C879 1.398 . S
C880 C881 1.391 . S
C881 H869 0.950 . S
C881 C877 1.393 . S
C881 C880 1.391 . S
C882 H872 0.950 . S
C882 C883 1.386 . S
C882 C884 1.391 . S
C883 C882 1.386 . S
C883 C887 1.393 . S
C884 H873 0.950 . S
C884 C882 1.391 . S
C884 C885 1.400 . S
C885 C879 1.491 . S
C885 C884 1.400 . S
C885 C886 1.398 . S
C886 H874 0.950 . S
C886 C885 1.398 . S
C886 C887 1.391 . S
C887 H875 0.950 . S
C887 C883 1.393 . S
C887 C886 1.391 . S
H888 C896 0.950 . S
H889 C901 0.950 . S
H890 C898 0.950 . S
H891 C900 0.950 . S
H892 C902 0.950 . S
H893 C904 0.950 . S
H894 C906 0.950 . S
H895 C907 0.950 . S
C896 H888 0.950 . S
C896 C897 1.386 . S
C896 C898 1.391 . S
C897 C896 1.386 . S
C897 C901 1.393 . S
C898 H890 0.950 . S
C898 C896 1.391 . S
C898 C899 1.400 . S
C899 C898 1.400 . S
C899 C900 1.398 . S
C899 C905 1.491 . S
C900 H891 0.950 . S
C900 C899 1.398 . S
C900 C901 1.391 . S
C901 H889 0.950 . S
C901 C897 1.393 . S
C901 C900 1.391 . S
C902 H892 0.950 . S
C902 C903 1.386 . S
C902 C904 1.391 . S
C903 C902 1.386 . S
C903 C907 1.393 . S
C904 H893 0.950 . S
C904 C902 1.391 . S
C904 C905 1.400 . S
C905 C899 1.491 . S
C905 C904 1.400 . S
C905 C906 1.398 . S
C906 H894 0.950 . S
C906 C905 1.398 . S
C906 C907 1.391 . S
C907 H895 0.950 . S
C907 C903 1.393 . S
C907 C906 1.391 . S
H908 C916 0.950 . S
H909 C921 0.950 . S
H910 C918 0.950 . S
H911 C920 0.950 . S
H912 C922 0.950 . S
H913 C924 0.950 . S
H914 C926 0.950 1_556 S
H915 C927 0.950 . S
C916 H908 0.950 . S
C916 C917 1.386 . S
C916 C918 1.391 . S
C917 C916 1.386 . S
C917 C921 1.393 . S
C918 H910 0.950 . S
C918 C916 1.391 . S
C918 C919 1.400 1_556 S
C919 C918 1.400 1_554 S
C919 C920 1.398 . S
C919 C925 1.491 . S
C920 H911 0.950 . S
C920 C919 1.398 . S
C920 C921 1.391 1_554 S
C921 H909 0.950 . S
C921 C917 1.393 . S
C921 C920 1.391 1_556 S
C922 H912 0.950 . S
C922 C923 1.386 . S
C922 C924 1.391 . S
C923 C922 1.386 . S
C923 C927 1.393 . S
C924 H913 0.950 . S
C924 C922 1.391 . S
C924 C925 1.400 . S
C925 C919 1.491 . S
C925 C924 1.400 . S
C925 C926 1.398 . S
C926 H914 0.950 1_554 S
C926 C925 1.398 . S
C926 C927 1.391 . S
C927 H915 0.950 . S
C927 C923 1.393 . S
C927 C926 1.391 . S
H928 C936 0.950 . S
H929 C941 0.950 . S
H930 C938 0.950 . S
H931 C940 0.950 . S
H932 C942 0.950 . S
H933 C944 0.950 . S
H934 C946 0.950 . S
H935 C947 0.950 . S
C936 H928 0.950 . S
C936 C937 1.386 . S
C936 C938 1.391 . S
C937 C936 1.386 . S
C937 C941 1.393 . S
C938 H930 0.950 . S
C938 C936 1.391 . S
C938 C939 1.400 . S
C939 C938 1.400 . S
C939 C940 1.398 . S
C939 C945 1.491 . S
C940 H931 0.950 . S
C940 C939 1.398 . S
C940 C941 1.391 . S
C941 H929 0.950 . S
C941 C937 1.393 . S
C941 C940 1.391 . S
C942 H932 0.950 . S
C942 C943 1.386 . S
C942 C944 1.391 . S
C943 C942 1.386 . S
C943 C947 1.393 . S
C944 H933 0.950 . S
C944 C942 1.391 . S
C944 C945 1.400 . S
C945 C939 1.491 . S
C945 C944 1.400 . S
C945 C946 1.398 . S
C946 H934 0.950 . S
C946 C945 1.398 . S
C946 C947 1.391 . S
C947 H935 0.950 . S
C947 C943 1.393 . S
C947 C946 1.391 . S
H948 C956 0.951 . S
H949 C961 0.950 . S
H950 C958 0.950 . S
H951 C960 0.950 . S
H952 C962 0.950 . S
H953 C964 0.950 1_554 S
H954 C966 0.950 . S
H955 C967 0.950 . S
C956 H948 0.951 . S
C956 C957 1.386 . S
C956 C958 1.391 1_554 S
C957 C956 1.386 . S
C957 C961 1.393 . S
C958 H950 0.950 . S
C958 C956 1.391 1_556 S
C958 C959 1.400 . S
C959 C958 1.400 . S
C959 C960 1.398 1_556 S
C959 C965 1.491 . S
C960 H951 0.950 . S
C960 C959 1.398 1_554 S
C960 C961 1.391 . S
C961 H949 0.950 . S
C961 C957 1.393 . S
C961 C960 1.391 . S
C962 H952 0.950 . S
C962 C963 1.386 . S
C962 C964 1.391 . S
C963 C962 1.386 . S
C963 C967 1.393 . S
C964 H953 0.950 1_556 S
C964 C962 1.391 . S
C964 C965 1.400 . S
C965 C959 1.491 . S
C965 C964 1.400 . S
C965 C966 1.398 . S
C966 H954 0.950 . S
C966 C965 1.398 . S
C966 C967 1.391 . S
C967 H955 0.950 . S
C967 C963 1.393 . S
C967 C966 1.391 . S
H968 C976 0.950 . S
H969 C981 0.950 . S
H970 C978 0.950 1_556 S
H971 C980 0.950 . S
H972 C982 0.950 1_554 S
H973 C984 0.950 . S
H974 C986 0.950 . S
H975 C987 0.950 . S
C976 H968 0.950 . S
C976 C977 1.386 . S
C976 C978 1.391 . S
C977 C976 1.386 . S
C977 C981 1.393 . S
C978 H970 0.950 1_554 S
C978 C976 1.391 . S
C978 C979 1.400 . S
C979 C978 1.400 . S
C979 C980 1.398 . S
C979 C985 1.491 . S
C980 H971 0.950 . S
C980 C979 1.398 . S
C980 C981 1.391 . S
C981 H969 0.950 . S
C981 C977 1.393 . S
C981 C980 1.391 . S
C982 H972 0.950 1_556 S
C982 C983 1.386 . S
C982 C984 1.391 1_556 S
C983 C982 1.386 . S
C983 C987 1.393 . S
C984 H973 0.950 . S
C984 C982 1.391 1_554 S
C984 C985 1.400 . S
C985 C979 1.491 . S
C985 C984 1.400 . S
C985 C986 1.398 1_554 S
C986 H974 0.950 . S
C986 C985 1.398 1_556 S
C986 C987 1.391 . S
C987 H975 0.950 . S
C987 C983 1.393 . S
C987 C986 1.391 . S
H988 C996 0.950 . S
H989 C1001 0.950 . S
H990 C998 0.950 . S
H991 C1000 0.950 . S
H992 C1002 0.950 . S
H993 C1004 0.950 . S
H994 C1006 0.950 . S
H995 C1007 0.950 . S
C996 H988 0.950 . S
C996 C997 1.386 . S
C996 C998 1.391 . S
C997 C996 1.386 . S
C997 C1001 1.393 . S
C998 H990 0.950 . S
C998 C996 1.391 . S
C998 C999 1.400 . S
C999 C998 1.400 . S
C999 C1000 1.398 . S
C999 C1005 1.491 . S
C1000 H991 0.950 . S
C1000 C999 1.398 . S
C1000 C1001 1.391 . S
C1001 H989 0.950 . S
C1001 C997 1.393 . S
C1001 C1000 1.391 . S
C1002 H992 0.950 . S
C1002 C1003 1.386 . S
C1002 C1004 1.391 . S
C1003 C1002 1.386 . S
C1003 C1007 1.393 . S
C1004 H993 0.950 . S
C1004 C1002 1.391 . S
C1004 C1005 1.400 . S
C1005 C999 1.491 . S
C1005 C1004 1.400 . S
C1005 C1006 1.398 . S
C1006 H994 0.950 . S
C1006 C1005 1.398 . S
C1006 C1007 1.391 . S
C1007 H995 0.950 . S
C1007 C1003 1.393 . S
C1007 C1006 1.391 . S
H1008 C1016 0.950 . S
H1009 C1021 0.950 . S
H1010 C1018 0.950 . S
H1011 C1020 0.950 . S
H1012 C1022 0.950 . S
H1013 C1024 0.950 . S
H1014 C1026 0.950 . S
H1015 C1027 0.950 . S
C1016 H1008 0.950 . S
C1016 C1017 1.386 . S
C1016 C1018 1.391 . S
C1017 C1016 1.386 . S
C1017 C1021 1.393 . S
C1018 H1010 0.950 . S
C1018 C1016 1.391 . S
C1018 C1019 1.400 . S
C1019 C1018 1.400 . S
C1019 C1020 1.398 . S
C1019 C1025 1.491 . S
C1020 H1011 0.950 . S
C1020 C1019 1.398 . S
C1020 C1021 1.391 . S
C1021 H1009 0.950 . S
C1021 C1017 1.393 . S
C1021 C1020 1.391 . S
C1022 H1012 0.950 . S
C1022 C1023 1.386 . S
C1022 C1024 1.391 . S
C1023 C1022 1.386 . S
C1023 C1027 1.393 . S
C1024 H1013 0.950 . S
C1024 C1022 1.391 . S
C1024 C1025 1.400 . S
C1025 C1019 1.491 . S
C1025 C1024 1.400 . S
C1025 C1026 1.398 . S
C1026 H1014 0.950 . S
C1026 C1025 1.398 . S
C1026 C1027 1.391 . S
C1027 H1015 0.950 . S
C1027 C1023 1.393 . S
C1027 C1026 1.391 . S
H1028 C1036 0.950 . S
H1029 C1041 0.950 1_554 S
H1030 C1038 0.950 . S
H1031 C1040 0.950 . S
H1032 C1042 0.950 . S
H1033 C1044 0.950 . S
H1034 C1046 0.950 1_556 S
H1035 C1047 0.950 . S
C1036 H1028 0.950 . S
C1036 C1037 1.386 . S
C1036 C1038 1.391 . S
C1037 C1036 1.386 . S
C1037 C1041 1.393 . S
C1038 H1030 0.950 . S
C1038 C1036 1.391 . S
C1038 C1039 1.400 1_556 S
C1039 C1038 1.400 1_554 S
C1039 C1040 1.398 . S
C1039 C1045 1.491 . S
C1040 H1031 0.950 . S
C1040 C1039 1.398 . S
C1040 C1041 1.391 1_554 S
C1041 H1029 0.950 1_556 S
C1041 C1037 1.393 . S
C1041 C1040 1.391 1_556 S
C1042 H1032 0.950 . S
C1042 C1043 1.386 . S
C1042 C1044 1.391 . S
C1043 C1042 1.386 . S
C1043 C1047 1.393 . S
C1044 H1033 0.950 . S
C1044 C1042 1.391 . S
C1044 C1045 1.400 . S
C1045 C1039 1.491 . S
C1045 C1044 1.400 . S
C1045 C1046 1.398 . S
C1046 H1034 0.950 1_554 S
C1046 C1045 1.398 . S
C1046 C1047 1.391 . S
C1047 H1035 0.950 . S
C1047 C1043 1.393 . S
C1047 C1046 1.391 . S
H1048 C1056 0.950 . S
H1049 C1061 0.950 . S
H1050 C1058 0.950 1_554 S
H1051 C1060 0.950 . S
H1052 C1062 0.950 1_556 S
H1053 C1064 0.950 . S
H1054 C1066 0.950 . S
H1055 C1067 0.950 . S
C1056 H1048 0.950 . S
C1056 C1057 1.386 . S
C1056 C1058 1.391 . S
C1057 C1056 1.386 . S
C1057 C1061 1.393 . S
C1058 H1050 0.950 1_556 S
C1058 C1056 1.391 . S
C1058 C1059 1.400 . S
C1059 C1058 1.400 . S
C1059 C1060 1.398 . S
C1059 C1065 1.491 . S
C1060 H1051 0.950 . S
C1060 C1059 1.398 . S
C1060 C1061 1.391 . S
C1061 H1049 0.950 . S
C1061 C1057 1.393 . S
C1061 C1060 1.391 . S
C1062 H1052 0.950 1_554 S
C1062 C1063 1.386 . S
C1062 C1064 1.391 1_554 S
C1063 C1062 1.386 . S
C1063 C1067 1.393 . S
C1064 H1053 0.950 . S
C1064 C1062 1.391 1_556 S
C1064 C1065 1.400 . S
C1065 C1059 1.491 . S
C1065 C1064 1.400 . S
C1065 C1066 1.398 1_556 S
C1066 H1054 0.950 . S
C1066 C1065 1.398 1_554 S
C1066 C1067 1.391 . S
C1067 H1055 0.950 . S
C1067 C1063 1.393 . S
C1067 C1066 1.391 . S
H1068 C1076 0.950 . S
H1069 C1081 0.950 . S
H1070 C1078 0.950 . S
H1071 C1080 0.950 . S
H1072 C1082 0.950 . S
H1073 C1084 0.950 . S
H1074 C1086 0.950 . S
H1075 C1087 0.950 . S
C1076 H1068 0.950 . S
C1076 C1077 1.386 . S
C1076 C1078 1.391 . S
C1077 C1076 1.386 . S
C1077 C1081 1.393 . S
C1078 H1070 0.950 . S
C1078 C1076 1.391 . S
C1078 C1079 1.400 . S
C1079 C1078 1.400 . S
C1079 C1080 1.398 . S
C1079 C1085 1.491 . S
C1080 H1071 0.950 . S
C1080 C1079 1.398 . S
C1080 C1081 1.391 . S
C1081 H1069 0.950 . S
C1081 C1077 1.393 . S
C1081 C1080 1.391 . S
C1082 H1072 0.950 . S
C1082 C1083 1.386 . S
C1082 C1084 1.391 . S
C1083 C1082 1.386 . S
C1083 C1087 1.393 . S
C1084 H1073 0.950 . S
C1084 C1082 1.391 . S
C1084 C1085 1.400 . S
C1085 C1079 1.491 . S
C1085 C1084 1.400 . S
C1085 C1086 1.398 . S
C1086 H1074 0.950 . S
C1086 C1085 1.398 . S
C1086 C1087 1.391 . S
C1087 H1075 0.950 . S
C1087 C1083 1.393 . S
C1087 C1086 1.391 . S
H1088 C1096 0.950 . S
H1089 C1101 0.950 . S
H1090 C1098 0.950 1_556 S
H1091 C1100 0.950 . S
H1092 C1102 0.950 . S
H1093 C1104 0.950 . S
H1094 C1106 0.950 . S
H1095 C1107 0.950 . S
C1096 H1088 0.950 . S
C1096 C1097 1.386 . S
C1096 C1098 1.391 . S
C1097 C1096 1.386 . S
C1097 C1101 1.393 . S
C1098 H1090 0.950 1_554 S
C1098 C1096 1.391 . S
C1098 C1099 1.401 . S
C1099 C1098 1.401 . S
C1099 C1100 1.409 . S
C1099 C1105 1.480 1_554 S
C1100 H1091 0.950 . S
C1100 C1099 1.409 . S
C1100 C1101 1.391 . S
C1101 H1089 0.950 . S
C1101 C1097 1.393 . S
C1101 C1100 1.391 . S
C1102 H1092 0.950 . S
C1102 C1103 1.386 . S
C1102 C1104 1.391 . S
C1103 C1102 1.386 . S
C1103 C1107 1.393 . S
C1104 H1093 0.950 . S
C1104 C1102 1.391 . S
C1104 C1105 1.400 . S
C1105 C1099 1.480 1_556 S
C1105 C1104 1.400 . S
C1105 C1106 1.398 . S
C1106 H1094 0.950 . S
C1106 C1105 1.398 . S
C1106 C1107 1.391 . S
C1107 H1095 0.950 . S
C1107 C1103 1.393 . S
C1107 C1106 1.391 . S
H1108 C1116 0.950 . S
H1109 C1121 0.950 . S
H1110 C1118 0.950 . S
H1111 C1120 0.950 1_455 S
H1112 C1122 0.950 . S
H1113 C1124 0.950 . S
H1114 C1126 0.950 1_655 S
H1115 C1127 0.950 . S
C1116 H1108 0.950 . S
C1116 C1117 1.386 . S
C1116 C1118 1.391 . S
C1117 C1116 1.386 . S
C1117 C1121 1.393 . S
C1118 H1110 0.950 . S
C1118 C1116 1.391 . S
C1118 C1119 1.400 . S
C1119 C1118 1.400 . S
C1119 C1120 1.398 . S
C1119 C1125 1.491 1_655 S
C1120 H1111 0.950 1_655 S
C1120 C1119 1.398 . S
C1120 C1121 1.391 . S
C1121 H1109 0.950 . S
C1121 C1117 1.393 . S
C1121 C1120 1.391 . S
C1122 H1112 0.950 . S
C1122 C1123 1.386 . S
C1122 C1124 1.391 . S
C1123 C1122 1.386 . S
C1123 C1127 1.393 . S
C1124 H1113 0.950 . S
C1124 C1122 1.391 . S
C1124 C1125 1.400 . S
C1125 C1119 1.491 1_455 S
C1125 C1124 1.400 . S
C1125 C1126 1.398 . S
C1126 H1114 0.950 1_455 S
C1126 C1125 1.398 . S
C1126 C1127 1.391 . S
C1127 H1115 0.950 . S
C1127 C1123 1.393 . S
C1127 C1126 1.391 . S
H1128 C1136 0.950 . S
H1129 C1141 0.950 . S
H1130 C1138 0.950 . S
H1131 C1140 0.950 . S
H1132 C1142 0.950 . S
H1133 C1144 0.950 . S
H1134 C1146 0.950 . S
H1135 C1147 0.950 . S
C1136 H1128 0.950 . S
C1136 C1137 1.386 . S
C1136 C1138 1.391 . S
C1137 C1136 1.386 . S
C1137 C1141 1.393 . S
C1138 H1130 0.950 . S
C1138 C1136 1.391 . S
C1138 C1139 1.400 . S
C1139 C1138 1.400 . S
C1139 C1140 1.398 . S
C1139 C1145 1.491 . S
C1140 H1131 0.950 . S
C1140 C1139 1.398 . S
C1140 C1141 1.391 . S
C1141 H1129 0.950 . S
C1141 C1137 1.393 . S
C1141 C1140 1.391 . S
C1142 H1132 0.950 . S
C1142 C1143 1.386 . S
C1142 C1144 1.391 . S
C1143 C1142 1.386 . S
C1143 C1147 1.393 . S
C1144 H1133 0.950 . S
C1144 C1142 1.391 . S
C1144 C1145 1.400 . S
C1145 C1139 1.491 . S
C1145 C1144 1.400 . S
C1145 C1146 1.398 . S
C1146 H1134 0.950 . S
C1146 C1145 1.398 . S
C1146 C1147 1.391 . S
C1147 H1135 0.950 . S
C1147 C1143 1.393 . S
C1147 C1146 1.391 . S
H1148 C1156 0.950 . S
H1149 C1161 0.950 . S
H1150 C1158 0.950 . S
H1151 C1160 0.950 . S
H1152 C1162 0.950 . S
H1153 C1164 0.950 . S
H1154 C1166 0.950 1_554 S
H1155 C1167 0.950 . S
C1156 H1148 0.950 . S
C1156 C1157 1.386 . S
C1156 C1158 1.391 . S
C1157 C1156 1.386 . S
C1157 C1161 1.393 . S
C1158 H1150 0.950 . S
C1158 C1156 1.391 . S
C1158 C1159 1.400 . S
C1159 C1158 1.400 . S
C1159 C1160 1.398 . S
C1159 C1165 1.491 . S
C1160 H1151 0.950 . S
C1160 C1159 1.398 . S
C1160 C1161 1.391 . S
C1161 H1149 0.950 . S
C1161 C1157 1.393 . S
C1161 C1160 1.391 . S
C1162 H1152 0.950 . S
C1162 C1163 1.386 1_556 S
C1162 C1164 1.391 . S
C1163 C1162 1.386 1_554 S
C1163 C1167 1.393 . S
C1164 H1153 0.950 . S
C1164 C1162 1.391 . S
C1164 C1165 1.400 . S
C1165 C1159 1.491 . S
C1165 C1164 1.400 . S
C1165 C1166 1.398 . S
C1166 H1154 0.950 1_556 S
C1166 C1165 1.398 . S
C1166 C1167 1.391 1_556 S
C1167 H1155 0.950 . S
C1167 C1163 1.393 . S
C1167 C1166 1.391 1_554 S
H1168 C1176 0.950 . S
H1169 C1181 0.950 . S
H1170 C1178 0.950 . S
H1171 C1180 0.950 . S
H1172 C1182 0.950 . S
H1173 C1184 0.950 . S
H1174 C1186 0.950 . S
H1175 C1187 0.950 . S
C1176 H1168 0.950 . S
C1176 C1177 1.386 . S
C1176 C1178 1.391 . S
C1177 C1176 1.386 . S
C1177 C1181 1.393 . S
C1178 H1170 0.950 . S
C1178 C1176 1.391 . S
C1178 C1179 1.400 . S
C1179 C1178 1.400 . S
C1179 C1180 1.398 . S
C1179 C1185 1.491 . S
C1180 H1171 0.950 . S
C1180 C1179 1.398 . S
C1180 C1181 1.391 . S
C1181 H1169 0.950 . S
C1181 C1177 1.393 . S
C1181 C1180 1.391 . S
C1182 H1172 0.950 . S
C1182 C1183 1.386 . S
C1182 C1184 1.391 . S
C1183 C1182 1.386 . S
C1183 C1187 1.393 . S
C1184 H1173 0.950 . S
C1184 C1182 1.391 . S
C1184 C1185 1.400 . S
C1185 C1179 1.491 . S
C1185 C1184 1.400 . S
C1185 C1186 1.398 . S
C1186 H1174 0.950 . S
C1186 C1185 1.398 . S
C1186 C1187 1.391 . S
C1187 H1175 0.950 . S
C1187 C1183 1.393 . S
C1187 C1186 1.391 . S
H1188 C1196 0.950 . S
H1189 C1201 0.950 . S
H1190 C1198 0.950 . S
H1191 C1200 0.950 . S
H1192 C1202 0.950 . S
H1193 C1204 0.950 . S
H1194 C1206 0.950 . S
H1195 C1207 0.950 . S
C1196 H1188 0.950 . S
C1196 C1197 1.386 . S
C1196 C1198 1.391 . S
C1197 C1196 1.386 . S
C1197 C1201 1.393 . S
C1198 H1190 0.950 . S
C1198 C1196 1.391 . S
C1198 C1199 1.400 . S
C1199 C1198 1.400 . S
C1199 C1200 1.398 . S
C1199 C1205 1.491 . S
C1200 H1191 0.950 . S
C1200 C1199 1.398 . S
C1200 C1201 1.391 . S
C1201 H1189 0.950 . S
C1201 C1197 1.393 . S
C1201 C1200 1.391 . S
C1202 H1192 0.950 . S
C1202 C1203 1.386 . S
C1202 C1204 1.391 . S
C1203 C1202 1.386 . S
C1203 C1207 1.393 . S
C1204 H1193 0.950 . S
C1204 C1202 1.391 . S
C1204 C1205 1.400 . S
C1205 C1199 1.491 . S
C1205 C1204 1.400 . S
C1205 C1206 1.398 . S
C1206 H1194 0.950 . S
C1206 C1205 1.398 . S
C1206 C1207 1.391 . S
C1207 H1195 0.950 . S
C1207 C1203 1.393 . S
C1207 C1206 1.391 . S
H1208 C1216 0.950 . S
H1209 C1221 0.950 . S
H1210 C1218 0.950 . S
H1211 C1220 0.950 . S
H1212 C1222 0.950 . S
H1213 C1224 0.950 1_556 S
H1214 C1226 0.950 . S
H1215 C1227 0.950 . S
C1216 H1208 0.950 . S
C1216 C1217 1.386 . S
C1216 C1218 1.391 1_556 S
C1217 C1216 1.386 . S
C1217 C1221 1.393 . S
C1218 H1210 0.950 . S
C1218 C1216 1.391 1_554 S
C1218 C1219 1.400 1_554 S
C1219 C1218 1.400 1_556 S
C1219 C1220 1.398 . S
C1219 C1225 1.491 1_556 S
C1220 H1211 0.950 . S
C1220 C1219 1.398 . S
C1220 C1221 1.391 . S
C1221 H1209 0.950 . S
C1221 C1217 1.393 . S
C1221 C1220 1.391 . S
C1222 H1212 0.950 . S
C1222 C1223 1.386 . S
C1222 C1224 1.391 . S
C1223 C1222 1.386 . S
C1223 C1227 1.393 . S
C1224 H1213 0.950 1_554 S
C1224 C1222 1.391 . S
C1224 C1225 1.400 . S
C1225 C1219 1.491 1_554 S
C1225 C1224 1.400 . S
C1225 C1226 1.398 . S
C1226 H1214 0.950 . S
C1226 C1225 1.398 . S
C1226 C1227 1.391 . S
C1227 H1215 0.950 . S
C1227 C1223 1.393 . S
C1227 C1226 1.391 . S
H1228 C1236 0.950 1_556 S
H1229 C1241 0.950 . S
H1230 C1238 0.950 . S
H1231 C1240 0.950 . S
H1232 C1242 0.950 . S
H1233 C1244 0.950 . S
H1234 C1246 0.950 . S
H1235 C1247 0.950 . S
C1236 H1228 0.950 1_554 S
C1236 C1237 1.386 1_554 S
C1236 C1238 1.391 . S
C1237 C1236 1.386 1_556 S
C1237 C1241 1.393 . S
C1238 H1230 0.950 . S
C1238 C1236 1.391 . S
C1238 C1239 1.400 . S
C1239 C1238 1.400 . S
C1239 C1240 1.398 . S
C1239 C1245 1.491 1_455 S
C1240 H1231 0.950 . S
C1240 C1239 1.398 . S
C1240 C1241 1.391 1_554 S
C1241 H1229 0.950 . S
C1241 C1237 1.393 . S
C1241 C1240 1.391 1_556 S
C1242 H1232 0.950 . S
C1242 C1243 1.386 . S
C1242 C1244 1.391 . S
C1243 C1242 1.386 . S
C1243 C1247 1.393 . S
C1244 H1233 0.950 . S
C1244 C1242 1.391 . S
C1244 C1245 1.400 . S
C1245 C1239 1.491 1_655 S
C1245 C1244 1.400 . S
C1245 C1246 1.398 . S
C1246 H1234 0.950 . S
C1246 C1245 1.398 . S
C1246 C1247 1.391 . S
C1247 H1235 0.950 . S
C1247 C1243 1.393 . S
C1247 C1246 1.391 . S
H1248 C1256 0.950 . S
H1249 C1261 0.950 . S
H1250 C1258 0.950 1_554 S
H1251 C1260 0.950 . S
H1252 C1262 0.950 . S
H1253 C1264 0.950 . S
H1254 C1266 0.950 . S
H1255 C1267 0.950 . S
C1256 H1248 0.950 . S
C1256 C1257 1.386 . S
C1256 C1258 1.391 . S
C1257 C1256 1.386 . S
C1257 C1261 1.393 . S
C1258 H1250 0.950 1_556 S
C1258 C1256 1.391 . S
C1258 C1259 1.400 . S
C1259 C1258 1.400 . S
C1259 C1260 1.398 . S
C1259 C1265 1.491 1_556 S
C1260 H1251 0.950 . S
C1260 C1259 1.398 . S
C1260 C1261 1.391 . S
C1261 H1249 0.950 . S
C1261 C1257 1.393 . S
C1261 C1260 1.391 . S
C1262 H1252 0.950 . S
C1262 C1263 1.386 . S
C1262 C1264 1.391 . S
C1263 C1262 1.386 . S
C1263 C1267 1.393 . S
C1264 H1253 0.950 . S
C1264 C1262 1.391 . S
C1264 C1265 1.400 . S
C1265 C1259 1.491 1_554 S
C1265 C1264 1.400 . S
C1265 C1266 1.398 . S
C1266 H1254 0.950 . S
C1266 C1265 1.398 . S
C1266 C1267 1.391 . S
C1267 H1255 0.950 . S
C1267 C1263 1.393 . S
C1267 C1266 1.391 . S
H1268 C1276 0.950 . S
H1269 C1281 0.950 . S
H1270 C1278 0.950 . S
H1271 C1280 0.950 1_655 S
H1272 C1282 0.950 . S
H1273 C1284 0.950 . S
H1274 C1286 0.950 1_455 S
H1275 C1287 0.950 . S
C1276 H1268 0.950 . S
C1276 C1277 1.386 . S
C1276 C1278 1.391 . S
C1277 C1276 1.386 . S
C1277 C1281 1.393 . S
C1278 H1270 0.950 . S
C1278 C1276 1.391 . S
C1278 C1279 1.400 . S
C1279 C1278 1.400 . S
C1279 C1280 1.398 . S
C1279 C1285 1.491 1_455 S
C1280 H1271 0.950 1_455 S
C1280 C1279 1.398 . S
C1280 C1281 1.391 . S
C1281 H1269 0.950 . S
C1281 C1277 1.393 . S
C1281 C1280 1.391 . S
C1282 H1272 0.950 . S
C1282 C1283 1.386 . S
C1282 C1284 1.391 . S
C1283 C1282 1.386 . S
C1283 C1287 1.393 . S
C1284 H1273 0.950 . S
C1284 C1282 1.391 . S
C1284 C1285 1.400 . S
C1285 C1279 1.491 1_655 S
C1285 C1284 1.400 . S
C1285 C1286 1.398 . S
C1286 H1274 0.950 1_655 S
C1286 C1285 1.398 . S
C1286 C1287 1.391 . S
C1287 H1275 0.950 . S
C1287 C1283 1.393 . S
C1287 C1286 1.391 . S
H1288 C1296 0.950 . S
H1289 C1301 0.950 . S
H1290 C1298 0.950 . S
H1291 C1300 0.950 . S
H1292 C1302 0.950 . S
H1293 C1304 0.950 . S
H1294 C1306 0.950 . S
H1295 C1307 0.950 . S
C1296 H1288 0.950 . S
C1296 C1297 1.386 . S
C1296 C1298 1.391 . S
C1297 C1296 1.386 . S
C1297 C1301 1.393 . S
C1298 H1290 0.950 . S
C1298 C1296 1.391 . S
C1298 C1299 1.400 . S
C1299 C1298 1.400 . S
C1299 C1300 1.398 . S
C1299 C1305 1.491 . S
C1300 H1291 0.950 . S
C1300 C1299 1.398 . S
C1300 C1301 1.391 . S
C1301 H1289 0.950 . S
C1301 C1297 1.393 . S
C1301 C1300 1.391 . S
C1302 H1292 0.950 . S
C1302 C1303 1.386 . S
C1302 C1304 1.391 . S
C1303 C1302 1.386 . S
C1303 C1307 1.393 . S
C1304 H1293 0.950 . S
C1304 C1302 1.391 . S
C1304 C1305 1.400 . S
C1305 C1299 1.491 . S
C1305 C1304 1.400 . S
C1305 C1306 1.398 . S
C1306 H1294 0.950 . S
C1306 C1305 1.398 . S
C1306 C1307 1.391 . S
C1307 H1295 0.950 . S
C1307 C1303 1.393 . S
C1307 C1306 1.391 . S
H1308 C1316 0.950 . S
H1309 C1321 0.950 . S
H1310 C1318 0.950 . S
H1311 C1320 0.950 . S
H1312 C1322 0.950 . S
H1313 C1324 0.950 . S
H1314 C1326 0.951 . S
H1315 C1327 0.950 . S
C1316 H1308 0.950 . S
C1316 C1317 1.386 . S
C1316 C1318 1.391 . S
C1317 C1316 1.386 . S
C1317 C1321 1.393 . S
C1318 H1310 0.950 . S
C1318 C1316 1.391 . S
C1318 C1319 1.400 . S
C1319 C1318 1.400 . S
C1319 C1320 1.398 . S
C1319 C1325 1.491 . S
C1320 H1311 0.950 . S
C1320 C1319 1.398 . S
C1320 C1321 1.391 . S
C1321 H1309 0.950 . S
C1321 C1317 1.393 . S
C1321 C1320 1.391 . S
C1322 H1312 0.950 . S
C1322 C1323 1.386 1_554 S
C1322 C1324 1.391 . S
C1323 C1322 1.386 1_556 S
C1323 C1327 1.393 . S
C1324 H1313 0.950 . S
C1324 C1322 1.391 . S
C1324 C1325 1.400 . S
C1325 C1319 1.491 . S
C1325 C1324 1.400 . S
C1325 C1326 1.394 1_554 S
C1326 H1314 0.951 . S
C1326 C1325 1.394 1_556 S
C1326 C1327 1.394 . S
C1327 H1315 0.950 . S
C1327 C1323 1.393 . S
C1327 C1326 1.394 . S
H1328 C1336 0.950 . S
H1329 C1341 0.950 . S
H1330 C1338 0.950 . S
H1331 C1340 0.950 . S
H1332 C1342 0.950 . S
H1333 C1344 0.950 . S
H1334 C1346 0.950 . S
H1335 C1347 0.950 . S
C1336 H1328 0.950 . S
C1336 C1337 1.386 . S
C1336 C1338 1.391 . S
C1337 C1336 1.386 . S
C1337 C1341 1.393 . S
C1338 H1330 0.950 . S
C1338 C1336 1.391 . S
C1338 C1339 1.400 . S
C1339 C1338 1.400 . S
C1339 C1340 1.398 . S
C1339 C1345 1.491 . S
C1340 H1331 0.950 . S
C1340 C1339 1.398 . S
C1340 C1341 1.391 . S
C1341 H1329 0.950 . S
C1341 C1337 1.393 . S
C1341 C1340 1.391 . S
C1342 H1332 0.950 . S
C1342 C1343 1.386 . S
C1342 C1344 1.391 . S
C1343 C1342 1.386 . S
C1343 C1347 1.393 . S
C1344 H1333 0.950 . S
C1344 C1342 1.391 . S
C1344 C1345 1.400 . S
C1345 C1339 1.491 . S
C1345 C1344 1.400 . S
C1345 C1346 1.398 . S
C1346 H1334 0.950 . S
C1346 C1345 1.398 . S
C1346 C1347 1.391 . S
C1347 H1335 0.950 . S
C1347 C1343 1.393 . S
C1347 C1346 1.391 . S
H1348 C1356 0.950 . S
H1349 C1361 0.950 . S
H1350 C1358 0.950 . S
H1351 C1360 0.950 . S
H1352 C1362 0.950 . S
H1353 C1364 0.950 . S
H1354 C1366 0.950 . S
H1355 C1367 0.950 . S
C1356 H1348 0.950 . S
C1356 C1357 1.386 . S
C1356 C1358 1.391 . S
C1357 C1356 1.386 . S
C1357 C1361 1.393 . S
C1358 H1350 0.950 . S
C1358 C1356 1.391 . S
C1358 C1359 1.400 . S
C1359 C1358 1.400 . S
C1359 C1360 1.398 . S
C1359 C1365 1.491 . S
C1360 H1351 0.950 . S
C1360 C1359 1.398 . S
C1360 C1361 1.391 . S
C1361 H1349 0.950 . S
C1361 C1357 1.393 . S
C1361 C1360 1.391 . S
C1362 H1352 0.950 . S
C1362 C1363 1.386 . S
C1362 C1364 1.391 . S
C1363 C1362 1.386 . S
C1363 C1367 1.393 . S
C1364 H1353 0.950 . S
C1364 C1362 1.391 . S
C1364 C1365 1.400 . S
C1365 C1359 1.491 . S
C1365 C1364 1.400 . S
C1365 C1366 1.398 . S
C1366 H1354 0.950 . S
C1366 C1365 1.398 . S
C1366 C1367 1.391 . S
C1367 H1355 0.950 . S
C1367 C1363 1.393 . S
C1367 C1366 1.391 . S
H1368 C1376 0.950 . S
H1369 C1381 0.950 . S
H1370 C1378 0.950 . S
H1371 C1380 0.950 . S
H1372 C1382 0.950 . S
H1373 C1384 0.950 1_554 S
H1374 C1386 0.950 . S
H1375 C1387 0.950 . S
C1376 H1368 0.950 . S
C1376 C1377 1.386 . S
C1376 C1378 1.391 1_554 S
C1377 C1376 1.386 . S
C1377 C1381 1.393 . S
C1378 H1370 0.950 . S
C1378 C1376 1.391 1_556 S
C1378 C1379 1.400 1_556 S
C1379 C1378 1.400 1_554 S
C1379 C1380 1.398 . S
C1379 C1385 1.491 1_554 S
C1380 H1371 0.950 . S
C1380 C1379 1.398 . S
C1380 C1381 1.391 . S
C1381 H1369 0.950 . S
C1381 C1377 1.393 . S
C1381 C1380 1.391 . S
C1382 H1372 0.950 . S
C1382 C1383 1.386 . S
C1382 C1384 1.391 . S
C1383 C1382 1.386 . S
C1383 C1387 1.393 . S
C1384 H1373 0.950 1_556 S
C1384 C1382 1.391 . S
C1384 C1385 1.400 . S
C1385 C1379 1.491 1_556 S
C1385 C1384 1.400 . S
C1385 C1386 1.398 . S
C1386 H1374 0.950 . S
C1386 C1385 1.398 . S
C1386 C1387 1.391 . S
C1387 H1375 0.950 . S
C1387 C1383 1.393 . S
C1387 C1386 1.391 . S
H1388 C1396 0.950 . S
H1389 C1401 0.950 . S
H1390 C1398 0.950 . S
H1391 C1400 0.950 1_655 S
H1392 C1402 0.950 . S
H1393 C1404 0.950 . S
H1394 C1406 0.950 1_455 S
H1395 C1407 0.950 . S
C1396 H1388 0.950 . S
C1396 C1397 1.386 . S
C1396 C1398 1.391 . S
C1397 C1396 1.386 . S
C1397 C1401 1.393 . S
C1398 H1390 0.950 . S
C1398 C1396 1.391 . S
C1398 C1399 1.400 . S
C1399 C1398 1.400 . S
C1399 C1400 1.398 . S
C1399 C1405 1.491 1_455 S
C1400 H1391 0.950 1_455 S
C1400 C1399 1.398 . S
C1400 C1401 1.391 . S
C1401 H1389 0.950 . S
C1401 C1397 1.393 . S
C1401 C1400 1.391 . S
C1402 H1392 0.950 . S
C1402 C1403 1.386 1_556 S
C1402 C1404 1.391 . S
C1403 C1402 1.386 1_554 S
C1403 C1407 1.393 . S
C1404 H1393 0.950 . S
C1404 C1402 1.391 . S
C1404 C1405 1.400 . S
C1405 C1399 1.491 1_655 S
C1405 C1404 1.400 . S
C1405 C1406 1.398 . S
C1406 H1394 0.950 1_655 S
C1406 C1405 1.398 . S
C1406 C1407 1.391 1_556 S
C1407 H1395 0.950 . S
C1407 C1403 1.393 . S
C1407 C1406 1.391 1_554 S
H1408 C1416 0.950 . S
H1409 C1421 0.950 . S
H1410 C1418 0.950 . S
H1411 C1420 0.950 . S
H1412 C1422 0.950 . S
H1413 C1424 0.950 . S
H1414 C1426 0.950 . S
H1415 C1427 0.950 . S
C1416 H1408 0.950 . S
C1416 C1417 1.386 . S
C1416 C1418 1.391 . S
C1417 C1416 1.386 . S
C1417 C1421 1.393 . S
C1418 H1410 0.950 . S
C1418 C1416 1.391 . S
C1418 C1419 1.400 . S
C1419 C1418 1.400 . S
C1419 C1420 1.398 . S
C1419 C1425 1.491 . S
C1420 H1411 0.950 . S
C1420 C1419 1.398 . S
C1420 C1421 1.391 . S
C1421 H1409 0.950 . S
C1421 C1417 1.393 . S
C1421 C1420 1.391 . S
C1422 H1412 0.950 . S
C1422 C1423 1.386 . S
C1422 C1424 1.391 . S
C1423 C1422 1.386 . S
C1423 C1427 1.393 . S
C1424 H1413 0.950 . S
C1424 C1422 1.391 . S
C1424 C1425 1.400 . S
C1425 C1419 1.491 . S
C1425 C1424 1.400 . S
C1425 C1426 1.398 . S
C1426 H1414 0.950 . S
C1426 C1425 1.398 . S
C1426 C1427 1.391 . S
C1427 H1415 0.950 . S
C1427 C1423 1.393 . S
C1427 C1426 1.391 . S
H1428 C1436 0.950 . S
H1429 C1441 0.950 . S
H1430 C1438 0.950 . S
H1431 C1440 0.950 . S
H1432 C1442 0.950 . S
H1433 C1444 0.950 . S
H1434 C1446 0.952 . S
H1435 C1447 0.950 . S
C1436 H1428 0.950 . S
C1436 C1437 1.386 . S
C1436 C1438 1.391 . S
C1437 C1436 1.386 . S
C1437 C1441 1.393 . S
C1438 H1430 0.950 . S
C1438 C1436 1.391 . S
C1438 C1439 1.400 . S
C1439 C1438 1.400 . S
C1439 C1440 1.398 . S
C1439 C1445 1.491 . S
C1440 H1431 0.950 . S
C1440 C1439 1.398 . S
C1440 C1441 1.391 . S
C1441 H1429 0.950 . S
C1441 C1437 1.393 . S
C1441 C1440 1.391 . S
C1442 H1432 0.950 . S
C1442 C1443 1.386 1_556 S
C1442 C1444 1.391 . S
C1443 C1442 1.386 1_554 S
C1443 C1447 1.393 . S
C1444 H1433 0.950 . S
C1444 C1442 1.391 . S
C1444 C1445 1.400 . S
C1445 C1439 1.491 . S
C1445 C1444 1.400 . S
C1445 C1446 1.391 1_556 S
C1446 H1434 0.952 . S
C1446 C1445 1.391 1_554 S
C1446 C1447 1.396 . S
C1447 H1435 0.950 . S
C1447 C1443 1.393 . S
C1447 C1446 1.396 . S
H1448 C1456 0.950 . S
H1449 C1461 0.950 . S
H1450 C1458 0.950 . S
H1451 C1460 0.950 . S
H1452 C1462 0.950 . S
H1453 C1464 0.950 1_554 S
H1454 C1466 0.950 . S
H1455 C1467 0.950 . S
C1456 H1448 0.950 . S
C1456 C1457 1.386 . S
C1456 C1458 1.391 1_554 S
C1457 C1456 1.386 . S
C1457 C1461 1.393 . S
C1458 H1450 0.950 . S
C1458 C1456 1.391 1_556 S
C1458 C1459 1.400 1_556 S
C1459 C1458 1.400 1_554 S
C1459 C1460 1.398 . S
C1459 C1465 1.491 1_554 S
C1460 H1451 0.950 . S
C1460 C1459 1.398 . S
C1460 C1461 1.391 . S
C1461 H1449 0.950 . S
C1461 C1457 1.393 . S
C1461 C1460 1.391 . S
C1462 H1452 0.950 . S
C1462 C1463 1.386 . S
C1462 C1464 1.391 . S
C1463 C1462 1.386 . S
C1463 C1467 1.393 . S
C1464 H1453 0.950 1_556 S
C1464 C1462 1.391 . S
C1464 C1465 1.400 . S
C1465 C1459 1.491 1_556 S
C1465 C1464 1.400 . S
C1465 C1466 1.398 . S
C1466 H1454 0.950 . S
C1466 C1465 1.398 . S
C1466 C1467 1.391 . S
C1467 H1455 0.950 . S
C1467 C1463 1.393 . S
C1467 C1466 1.391 . S
H1468 C1476 0.950 . S
H1469 C1481 0.950 . S
H1470 C1478 0.950 1_455 S
H1471 C1480 0.950 . S
H1472 C1482 0.950 . S
H1473 C1484 0.950 1_655 S
H1474 C1486 0.950 . S
H1475 C1487 0.950 . S
C1476 H1468 0.950 . S
C1476 C1477 1.386 . S
C1476 C1478 1.391 . S
C1477 C1476 1.386 . S
C1477 C1481 1.393 . S
C1478 H1470 0.950 1_655 S
C1478 C1476 1.391 . S
C1478 C1479 1.400 . S
C1479 C1478 1.400 . S
C1479 C1480 1.398 . S
C1479 C1485 1.491 1_655 S
C1480 H1471 0.950 . S
C1480 C1479 1.398 . S
C1480 C1481 1.391 . S
C1481 H1469 0.950 . S
C1481 C1477 1.393 . S
C1481 C1480 1.391 . S
C1482 H1472 0.950 . S
C1482 C1483 1.386 . S
C1482 C1484 1.391 . S
C1483 C1482 1.386 . S
C1483 C1487 1.393 . S
C1484 H1473 0.950 1_455 S
C1484 C1482 1.391 . S
C1484 C1485 1.400 . S
C1485 C1479 1.491 1_455 S
C1485 C1484 1.400 . S
C1485 C1486 1.398 . S
C1486 H1474 0.950 . S
C1486 C1485 1.398 . S
C1486 C1487 1.391 . S
C1487 H1475 0.950 . S
C1487 C1483 1.393 . S
C1487 C1486 1.391 . S
H1488 C1496 0.950 . S
H1489 C1501 0.950 . S
H1490 C1498 0.950 . S
H1491 C1500 0.950 . S
H1492 C1502 0.950 . S
H1493 C1504 0.950 . S
H1494 C1506 0.950 1_556 S
H1495 C1507 0.950 . S
C1496 H1488 0.950 . S
C1496 C1497 1.386 . S
C1496 C1498 1.391 . S
C1497 C1496 1.386 . S
C1497 C1501 1.393 . S
C1498 H1490 0.950 . S
C1498 C1496 1.391 . S
C1498 C1499 1.400 . S
C1499 C1498 1.400 . S
C1499 C1500 1.398 1_556 S
C1499 C1505 1.491 1_556 S
C1500 H1491 0.950 . S
C1500 C1499 1.398 1_554 S
C1500 C1501 1.391 1_554 S
C1501 H1489 0.950 . S
C1501 C1497 1.393 . S
C1501 C1500 1.391 1_556 S
C1502 H1492 0.950 . S
C1502 C1503 1.386 . S
C1502 C1504 1.391 . S
C1503 C1502 1.386 . S
C1503 C1507 1.393 . S
C1504 H1493 0.950 . S
C1504 C1502 1.391 . S
C1504 C1505 1.400 . S
C1505 C1499 1.491 1_554 S
C1505 C1504 1.400 . S
C1505 C1506 1.398 . S
C1506 H1494 0.950 1_554 S
C1506 C1505 1.398 . S
C1506 C1507 1.391 . S
C1507 H1495 0.950 . S
C1507 C1503 1.393 . S
C1507 C1506 1.391 . S
H1508 C1516 0.950 . S
H1509 C1521 0.950 . S
H1510 C1518 0.950 1_455 S
H1511 C1520 0.950 . S
H1512 C1522 0.950 . S
H1513 C1524 0.950 1_655 S
H1514 C1526 0.950 . S
H1515 C1527 0.950 . S
C1516 H1508 0.950 . S
C1516 C1517 1.386 . S
C1516 C1518 1.391 1_556 S
C1517 C1516 1.386 . S
C1517 C1521 1.393 1_556 S
C1518 H1510 0.950 1_655 S
C1518 C1516 1.391 1_554 S
C1518 C1519 1.400 . S
C1519 C1518 1.400 . S
C1519 C1520 1.398 . S
C1519 C1525 1.491 1_655 S
C1520 H1511 0.950 . S
C1520 C1519 1.398 . S
C1520 C1521 1.391 . S
C1521 H1509 0.950 . S
C1521 C1517 1.393 1_554 S
C1521 C1520 1.391 . S
C1522 H1512 0.950 . S
C1522 C1523 1.386 . S
C1522 C1524 1.391 . S
C1523 C1522 1.386 . S
C1523 C1527 1.393 . S
C1524 H1513 0.950 1_455 S
C1524 C1522 1.391 . S
C1524 C1525 1.400 . S
C1525 C1519 1.491 1_455 S
C1525 C1524 1.400 . S
C1525 C1526 1.398 . S
C1526 H1514 0.950 . S
C1526 C1525 1.398 . S
C1526 C1527 1.391 . S
C1527 H1515 0.950 . S
C1527 C1523 1.393 . S
C1527 C1526 1.391 . S
H1528 C1536 0.950 . S
H1529 C1541 0.950 . S
H1530 C1538 0.950 . S
H1531 C1540 0.950 . S
H1532 C1542 0.950 . S
H1533 C1544 0.950 . S
H1534 C1546 0.950 . S
H1535 C1547 0.950 . S
C1536 H1528 0.950 . S
C1536 C1537 1.386 . S
C1536 C1538 1.391 . S
C1537 C1536 1.386 . S
C1537 C1541 1.393 . S
C1538 H1530 0.950 . S
C1538 C1536 1.391 . S
C1538 C1539 1.400 . S
C1539 C1538 1.400 . S
C1539 C1540 1.398 . S
C1539 C1545 1.491 . S
C1540 H1531 0.950 . S
C1540 C1539 1.398 . S
C1540 C1541 1.391 . S
C1541 H1529 0.950 . S
C1541 C1537 1.393 . S
C1541 C1540 1.391 . S
C1542 H1532 0.950 . S
C1542 C1543 1.386 . S
C1542 C1544 1.391 . S
C1543 C1542 1.386 . S
C1543 C1547 1.393 . S
C1544 H1533 0.950 . S
C1544 C1542 1.391 . S
C1544 C1545 1.400 . S
C1545 C1539 1.491 . S
C1545 C1544 1.400 . S
C1545 C1546 1.398 . S
C1546 H1534 0.950 . S
C1546 C1545 1.398 . S
C1546 C1547 1.391 . S
C1547 H1535 0.950 . S
C1547 C1543 1.393 . S
C1547 C1546 1.391 . S
H1548 C1556 0.950 . S
H1549 C1561 0.950 . S
H1550 C1558 0.950 . S
H1551 C1560 0.950 . S
H1552 C1562 0.950 . S
H1553 C1564 0.950 . S
H1554 C1566 0.950 . S
H1555 C1567 0.950 . S
C1556 H1548 0.950 . S
C1556 C1557 1.386 . S
C1556 C1558 1.391 . S
C1557 C1556 1.386 . S
C1557 C1561 1.393 . S
C1558 H1550 0.950 . S
C1558 C1556 1.391 . S
C1558 C1559 1.400 . S
C1559 C1558 1.400 . S
C1559 C1560 1.398 . S
C1559 C1565 1.491 . S
C1560 H1551 0.950 . S
C1560 C1559 1.398 . S
C1560 C1561 1.391 . S
C1561 H1549 0.950 . S
C1561 C1557 1.393 . S
C1561 C1560 1.391 . S
C1562 H1552 0.950 . S
C1562 C1563 1.386 . S
C1562 C1564 1.391 . S
C1563 C1562 1.386 . S
C1563 C1567 1.393 . S
C1564 H1553 0.950 . S
C1564 C1562 1.391 . S
C1564 C1565 1.400 . S
C1565 C1559 1.491 . S
C1565 C1564 1.400 . S
C1565 C1566 1.398 . S
C1566 H1554 0.950 . S
C1566 C1565 1.398 . S
C1566 C1567 1.391 . S
C1567 H1555 0.950 . S
C1567 C1563 1.393 . S
C1567 C1566 1.391 . S
H1568 C1576 0.950 . S
H1569 C1581 0.950 . S
H1570 C1578 0.950 . S
H1571 C1580 0.950 . S
H1572 C1582 0.950 . S
H1573 C1584 0.950 . S
H1574 C1586 0.950 . S
H1575 C1587 0.950 . S
C1576 H1568 0.950 . S
C1576 C1577 1.386 . S
C1576 C1578 1.391 . S
C1577 C1576 1.386 . S
C1577 C1581 1.393 . S
C1578 H1570 0.950 . S
C1578 C1576 1.391 . S
C1578 C1579 1.400 . S
C1579 C1578 1.400 . S
C1579 C1580 1.398 . S
C1579 C1585 1.491 . S
C1580 H1571 0.950 . S
C1580 C1579 1.398 . S
C1580 C1581 1.391 . S
C1581 H1569 0.950 . S
C1581 C1577 1.393 . S
C1581 C1580 1.391 . S
C1582 H1572 0.950 . S
C1582 C1583 1.386 . S
C1582 C1584 1.391 . S
C1583 C1582 1.386 . S
C1583 C1587 1.393 . S
C1584 H1573 0.950 . S
C1584 C1582 1.391 . S
C1584 C1585 1.400 . S
C1585 C1579 1.491 . S
C1585 C1584 1.400 . S
C1585 C1586 1.398 . S
C1586 H1574 0.950 . S
C1586 C1585 1.398 . S
C1586 C1587 1.391 . S
C1587 H1575 0.950 . S
C1587 C1583 1.393 . S
C1587 C1586 1.391 . S
H1588 C1596 0.950 . S
H1589 C1601 0.950 . S
H1590 C1598 0.950 . S
H1591 C1600 0.950 . S
H1592 C1602 0.950 . S
H1593 C1604 0.950 . S
H1594 C1606 0.950 . S
H1595 C1607 0.950 . S
C1596 H1588 0.950 . S
C1596 C1597 1.386 . S
C1596 C1598 1.391 . S
C1597 C1596 1.386 . S
C1597 C1601 1.393 . S
C1598 H1590 0.950 . S
C1598 C1596 1.391 . S
C1598 C1599 1.400 . S
C1599 C1598 1.400 . S
C1599 C1600 1.398 . S
C1599 C1605 1.491 . S
C1600 H1591 0.950 . S
C1600 C1599 1.398 . S
C1600 C1601 1.391 . S
C1601 H1589 0.950 . S
C1601 C1597 1.393 . S
C1601 C1600 1.391 . S
C1602 H1592 0.950 . S
C1602 C1603 1.386 1_554 S
C1602 C1604 1.391 . S
C1603 C1602 1.386 1_556 S
C1603 C1607 1.393 . S
C1604 H1593 0.950 . S
C1604 C1602 1.391 . S
C1604 C1605 1.400 . S
C1605 C1599 1.491 . S
C1605 C1604 1.400 . S
C1605 C1606 1.398 . S
C1606 H1594 0.950 . S
C1606 C1605 1.398 . S
C1606 C1607 1.391 1_554 S
C1607 H1595 0.950 . S
C1607 C1603 1.393 . S
C1607 C1606 1.391 1_556 S
H1608 C1616 0.950 . S
H1609 C1621 0.950 . S
H1610 C1618 0.950 1_556 S
H1611 C1620 0.950 . S
H1612 C1622 0.950 . S
H1613 C1624 0.950 . S
H1614 C1626 0.950 . S
H1615 C1627 0.950 . S
C1616 H1608 0.950 . S
C1616 C1617 1.386 . S
C1616 C1618 1.391 . S
C1617 C1616 1.386 . S
C1617 C1621 1.393 . S
C1618 H1610 0.950 1_554 S
C1618 C1616 1.391 . S
C1618 C1619 1.400 . S
C1619 C1618 1.400 . S
C1619 C1620 1.398 . S
C1619 C1625 1.491 1_554 S
C1620 H1611 0.950 . S
C1620 C1619 1.398 . S
C1620 C1621 1.391 . S
C1621 H1609 0.950 . S
C1621 C1617 1.393 . S
C1621 C1620 1.391 . S
C1622 H1612 0.950 . S
C1622 C1623 1.386 . S
C1622 C1624 1.391 1_556 S
C1623 C1622 1.386 . S
C1623 C1627 1.393 . S
C1624 H1613 0.950 . S
C1624 C1622 1.391 1_554 S
C1624 C1625 1.400 1_554 S
C1625 C1619 1.491 1_556 S
C1625 C1624 1.400 1_556 S
C1625 C1626 1.398 . S
C1626 H1614 0.950 . S
C1626 C1625 1.398 . S
C1626 C1627 1.391 . S
C1627 H1615 0.950 . S
C1627 C1623 1.393 . S
C1627 C1626 1.391 . S
H1628 C1636 0.950 . S
H1629 C1641 0.950 . S
H1630 C1638 0.950 1_655 S
H1631 C1640 0.950 . S
H1632 C1642 0.950 . S
H1633 C1644 0.950 1_455 S
H1634 C1646 0.950 . S
H1635 C1647 0.950 . S
C1636 H1628 0.950 . S
C1636 C1637 1.386 . S
C1636 C1638 1.391 . S
C1637 C1636 1.386 . S
C1637 C1641 1.393 . S
C1638 H1630 0.950 1_455 S
C1638 C1636 1.391 . S
C1638 C1639 1.400 . S
C1639 C1638 1.400 . S
C1639 C1640 1.398 . S
C1639 C1645 1.491 1_455 S
C1640 H1631 0.950 . S
C1640 C1639 1.398 . S
C1640 C1641 1.391 . S
C1641 H1629 0.950 . S
C1641 C1637 1.393 . S
C1641 C1640 1.391 . S
C1642 H1632 0.950 . S
C1642 C1643 1.386 . S
C1642 C1644 1.391 . S
C1643 C1642 1.386 . S
C1643 C1647 1.393 . S
C1644 H1633 0.950 1_655 S
C1644 C1642 1.391 . S
C1644 C1645 1.400 . S
C1645 C1639 1.491 1_655 S
C1645 C1644 1.400 . S
C1645 C1646 1.398 . S
C1646 H1634 0.950 . S
C1646 C1645 1.398 . S
C1646 C1647 1.391 . S
C1647 H1635 0.950 . S
C1647 C1643 1.393 . S
C1647 C1646 1.391 . S
H1648 C1656 0.950 . S
H1649 C1661 0.950 . S
H1650 C1658 0.950 . S
H1651 C1660 0.951 . S
H1652 C1662 0.950 . S
H1653 C1664 0.950 . S
H1654 C1666 0.950 . S
H1655 C1667 0.950 . S
C1656 H1648 0.950 . S
C1656 C1657 1.386 . S
C1656 C1658 1.391 . S
C1657 C1656 1.386 . S
C1657 C1661 1.393 . S
C1658 H1650 0.950 . S
C1658 C1656 1.391 . S
C1658 C1659 1.400 . S
C1659 C1658 1.400 . S
C1659 C1660 1.398 . S
C1659 C1665 1.491 1_554 S
C1660 H1651 0.951 . S
C1660 C1659 1.398 . S
C1660 C1661 1.391 . S
C1661 H1649 0.950 . S
C1661 C1657 1.393 . S
C1661 C1660 1.391 . S
C1662 H1652 0.950 . S
C1662 C1663 1.386 . S
C1662 C1664 1.391 . S
C1663 C1662 1.386 . S
C1663 C1667 1.393 . S
C1664 H1653 0.950 . S
C1664 C1662 1.391 . S
C1664 C1665 1.400 . S
C1665 C1659 1.491 1_556 S
C1665 C1664 1.400 . S
C1665 C1666 1.398 . S
C1666 H1654 0.950 . S
C1666 C1665 1.398 . S
C1666 C1667 1.391 . S
C1667 H1655 0.950 . S
C1667 C1663 1.393 . S
C1667 C1666 1.391 . S
H1668 C1676 0.950 . S
H1669 C1681 0.950 . S
H1670 C1678 0.950 1_455 S
H1671 C1680 0.950 . S
H1672 C1682 0.950 . S
H1673 C1684 0.951 1_655 S
H1674 C1686 0.950 . S
H1675 C1687 0.950 . S
C1676 H1668 0.950 . S
C1676 C1677 1.386 . S
C1676 C1678 1.391 . S
C1677 C1676 1.386 . S
C1677 C1681 1.393 . S
C1678 H1670 0.950 1_655 S
C1678 C1676 1.391 . S
C1678 C1679 1.400 . S
C1679 C1678 1.400 . S
C1679 C1680 1.398 . S
C1679 C1685 1.491 1_655 S
C1680 H1671 0.950 . S
C1680 C1679 1.398 . S
C1680 C1681 1.391 . S
C1681 H1669 0.950 . S
C1681 C1677 1.393 . S
C1681 C1680 1.391 . S
C1682 H1672 0.950 . S
C1682 C1683 1.386 . S
C1682 C1684 1.391 1_554 S
C1683 C1682 1.386 . S
C1683 C1687 1.393 1_554 S
C1684 H1673 0.951 1_455 S
C1684 C1682 1.391 1_556 S
C1684 C1685 1.400 . S
C1685 C1679 1.491 1_455 S
C1685 C1684 1.400 . S
C1685 C1686 1.398 . S
C1686 H1674 0.950 . S
C1686 C1685 1.398 . S
C1686 C1687 1.391 . S
C1687 H1675 0.950 . S
C1687 C1683 1.393 1_556 S
C1687 C1686 1.391 . S
H1688 C1696 0.950 . S
H1689 C1701 0.950 . S
H1690 C1698 0.950 . S
H1691 C1700 0.950 . S
H1692 C1702 0.950 . S
H1693 C1704 0.950 . S
H1694 C1706 0.950 . S
H1695 C1707 0.950 . S
C1696 H1688 0.950 . S
C1696 C1697 1.386 . S
C1696 C1698 1.391 . S
C1697 C1696 1.386 . S
C1697 C1701 1.393 . S
C1698 H1690 0.950 . S
C1698 C1696 1.391 . S
C1698 C1699 1.400 . S
C1699 C1698 1.400 . S
C1699 C1700 1.398 . S
C1699 C1705 1.491 . S
C1700 H1691 0.950 . S
C1700 C1699 1.398 . S
C1700 C1701 1.391 . S
C1701 H1689 0.950 . S
C1701 C1697 1.393 . S
C1701 C1700 1.391 . S
C1702 H1692 0.950 . S
C1702 C1703 1.386 . S
C1702 C1704 1.391 . S
C1703 C1702 1.386 . S
C1703 C1707 1.393 . S
C1704 H1693 0.950 . S
C1704 C1702 1.391 . S
C1704 C1705 1.400 . S
C1705 C1699 1.491 . S
C1705 C1704 1.400 . S
C1705 C1706 1.398 . S
C1706 H1694 0.950 . S
C1706 C1705 1.398 . S
C1706 C1707 1.391 . S
C1707 H1695 0.950 . S
C1707 C1703 1.393 . S
C1707 C1706 1.391 . S
H1708 C1716 0.950 . S
H1709 C1721 0.950 . S
H1710 C1718 0.950 . S
H1711 C1720 0.950 . S
H1712 C1722 0.950 . S
H1713 C1724 0.950 . S
H1714 C1726 0.950 . S
H1715 C1727 0.950 . S
C1716 H1708 0.950 . S
C1716 C1717 1.386 . S
C1716 C1718 1.391 . S
C1717 C1716 1.386 . S
C1717 C1721 1.393 . S
C1718 H1710 0.950 . S
C1718 C1716 1.391 . S
C1718 C1719 1.400 . S
C1719 C1718 1.400 . S
C1719 C1720 1.398 . S
C1719 C1725 1.491 . S
C1720 H1711 0.950 . S
C1720 C1719 1.398 . S
C1720 C1721 1.391 . S
C1721 H1709 0.950 . S
C1721 C1717 1.393 . S
C1721 C1720 1.391 . S
C1722 H1712 0.950 . S
C1722 C1723 1.386 . S
C1722 C1724 1.391 . S
C1723 C1722 1.386 . S
C1723 C1727 1.393 . S
C1724 H1713 0.950 . S
C1724 C1722 1.391 . S
C1724 C1725 1.400 . S
C1725 C1719 1.491 . S
C1725 C1724 1.400 . S
C1725 C1726 1.398 . S
C1726 H1714 0.950 . S
C1726 C1725 1.398 . S
C1726 C1727 1.391 . S
C1727 H1715 0.950 . S
C1727 C1723 1.393 . S
C1727 C1726 1.391 . S
C457 C87 2.252 . S
C463 C3 2.264 . S
C477 C17 1.397 . S
C483 C101 1.384 . S
C497 C59 2.261 . S
C503 C31 2.258 . S
C517 C45 1.395 . S
C523 C73 1.384 . S
C537 C199 2.263 . S
C543 C115 2.254 . S
C557 C129 1.384 . S
C563 C213 1.396 . S
C577 C171 2.248 . S
C583 C143 2.232 . S
C597 C157 1.392 . S
C603 C185 1.387 . S
C617 C227 2.263 . S
C623 C311 2.245 . S
C637 C325 1.392 . S
C643 C241 1.387 . S
C657 C255 2.255 . S
C663 C283 2.263 . S
C677 C297 1.384 . S
C683 C269 1.397 . S
C697 C423 2.249 . S
C703 C339 2.232 . S
C717 C437 1.384 . S
C723 C353 1.396 . S
C737 C395 2.251 . S
C743 C367 2.264 . S
C757 C381 1.396 . S
C763 C409 1.384 . S
C777 C106 1.325 . S
C783 C8 1.324 . S
C797 C64 1.325 . S
C803 C22 1.322 . S
C817 C78 1.316 . S
C823 C36 1.327 . S
C837 C92 1.326 . S
C843 C50 1.320 . S
C857 C218 1.317 . S
C863 C120 1.327 . S
C877 C176 1.324 . S
C883 C134 1.325 . S
C897 C190 1.318 . S
C903 C148 1.326 . S
C917 C162 1.319 . S
C923 C204 1.326 . S
C937 C330 1.324 . S
C943 C232 1.325 . S
C957 C246 1.325 . S
C963 C288 1.324 . S
C977 C260 1.326 . S
C983 C302 1.319 . S
C997 C316 1.327 . S
C1003 C274 1.317 . S
C1017 C442 1.325 . S
C1023 C344 1.325 . S
C1037 C358 1.320 . S
C1043 C400 1.326 . S
C1057 C372 1.324 . S
C1063 C414 1.324 . S
C1077 C428 1.327 . S
C1083 C386 1.316 . S
C1097 C7 1.859 . S
C1103 C429 1.942 . S
C1117 C219 1.222 . S
C1123 C21 1.197 . S
C1137 C401 1.957 . S
C1143 C35 1.866 . S
C1157 C191 1.222 . S
C1163 C49 1.197 . S
C1177 C373 1.945 . S
C1183 C63 1.864 . S
C1197 C77 1.213 . S
C1203 C163 1.232 . S
C1217 C91 1.839 . S
C1223 C345 1.946 . S
C1237 C105 1.229 . S
C1243 C135 1.220 . S
C1257 C119 1.846 . S
C1263 C317 1.958 . S
C1277 C107 1.199 . S
C1283 C133 1.219 . S
C1297 C289 1.948 . S
C1303 C147 1.839 . S
C1317 C79 1.201 . S
C1323 C161 1.226 . S
C1337 C261 1.953 . S
C1343 C175 1.869 . S
C1357 C51 1.199 . S
C1363 C189 1.220 . S
C1377 C203 1.850 . S
C1383 C233 1.960 . S
C1397 C23 1.200 . S
C1403 C217 1.213 . S
C1417 C205 1.941 . S
C1423 C231 1.852 . S
C1437 C443 1.227 . S
C1443 C245 1.199 . S
C1457 C259 1.847 . S
C1463 C177 1.941 . S
C1477 C273 1.214 . S
C1483 C415 1.232 . S
C1497 C287 1.864 . S
C1503 C149 1.959 . S
C1517 C301 1.217 . S
C1523 C387 1.231 . S
C1537 C315 1.864 . S
C1543 C121 1.944 . S
C1557 C329 1.222 . S
C1563 C359 1.199 . S
C1577 C93 1.954 . S
C1583 C343 1.841 . S
C1597 C331 1.200 . S
C1603 C357 1.213 . S
C1617 C65 1.946 . S
C1623 C371 1.839 . S
C1637 C385 1.231 . S
C1643 C303 1.213 . S
C1657 C399 1.839 . S
C1663 C37 1.951 . S
C1677 C275 1.223 . S
C1683 C413 1.197 . S
C1697 C427 1.844 . S
C1703 C9 1.957 . S
C1717 C441 1.200 . S
C1723 C247 1.211 . S
