# Generated by pormake.
# Topology qtz-e, (6)-cn, num edge types: 1
# Building blocks:
#     Node 0, Type 0, BuildingBlock: KUMBUR_clean_sbu_0, # of connection points: 6
#     Node 1, Type 0, BuildingBlock: KUMBUR_clean_sbu_0, # of connection points: 6
#     Node 2, Type 0, BuildingBlock: KUMBUR_clean_sbu_0, # of connection points: 6
#     Node 3, Type 0, BuildingBlock: KUMBUR_clean_sbu_0, # of connection points: 6
#     Node 4, Type 0, BuildingBlock: KUMBUR_clean_sbu_0, # of connection points: 6
#     Node 5, Type 0, BuildingBlock: KUMBUR_clean_sbu_0, # of connection points: 6
#     Edge 6, Type (0, 0), BuildingBlock: ZUJKAS_clean_linker_0, # of connection points: 2
#     Edge 7, Type (0, 0), BuildingBlock: ZUJKAS_clean_linker_0, # of connection points: 2
#     Edge 8, Type (0, 0), BuildingBlock: ZUJKAS_clean_linker_0, # of connection points: 2
#     Edge 9, Type (0, 0), BuildingBlock: ZUJKAS_clean_linker_0, # of connection points: 2
#     Edge 10, Type (0, 0), BuildingBlock: ZUJKAS_clean_linker_0, # of connection points: 2
#     Edge 11, Type (0, 0), BuildingBlock: ZUJKAS_clean_linker_0, # of connection points: 2
#     Edge 12, Type (0, 0), BuildingBlock: ZUJKAS_clean_linker_0, # of connection points: 2
#     Edge 13, Type (0, 0), BuildingBlock: ZUJKAS_clean_linker_0, # of connection points: 2
#     Edge 14, Type (0, 0), BuildingBlock: ZUJKAS_clean_linker_0, # of connection points: 2
#     Edge 15, Type (0, 0), BuildingBlock: ZUJKAS_clean_linker_0, # of connection points: 2
#     Edge 16, Type (0, 0), BuildingBlock: ZUJKAS_clean_linker_0, # of connection points: 2
#     Edge 17, Type (0, 0), BuildingBlock: ZUJKAS_clean_linker_0, # of connection points: 2
#     Edge 18, Type (0, 0), BuildingBlock: ZUJKAS_clean_linker_0, # of connection points: 2
#     Edge 19, Type (0, 0), BuildingBlock: ZUJKAS_clean_linker_0, # of connection points: 2
#     Edge 20, Type (0, 0), BuildingBlock: ZUJKAS_clean_linker_0, # of connection points: 2
#     Edge 21, Type (0, 0), BuildingBlock: ZUJKAS_clean_linker_0, # of connection points: 2
#     Edge 22, Type (0, 0), BuildingBlock: ZUJKAS_clean_linker_0, # of connection points: 2
#     Edge 23, Type (0, 0), BuildingBlock: ZUJKAS_clean_linker_0, # of connection points: 2
# Relax obj value: 0.056
# Max RMSD: 0.138
# Mean RMSD: 0.138
data_MOF--net-qtz-e--node1-KUMBUR_clean_sbu_0--edge1-ZUJKAS_clean_linker_0
_symmetry_space_group_name_H-M    P1
_symmetry_Int_Tables_number       1
_symmetry_cell_setting            triclinic
loop_
_symmetry_equiv_pos_as_xyz
'x, y, z'
_cell_length_a     37.593718
_cell_length_b     37.578629
_cell_length_c     56.451869
_cell_angle_alpha  90.133295
_cell_angle_beta   89.849958
_cell_angle_gamma 119.85487
loop_
_atom_site_label
_atom_site_type_symbol
_atom_site_fract_x
_atom_site_fract_y
_atom_site_fract_z
_atom_type_partial_charge
Tb0 Tb 0.24916 0.47851 0.03727 0.0
C1 C 0.10785 0.30719 0.01371 0.0
C2 C 0.11063 0.26793 0.04673 0.0
C3 C 0.04546 0.24739 0.02745 0.0
C4 C 0.13 0.30139 0.03102 0.0
C5 C 0.06551 0.27967 1.01118 0.0
C6 C 0.06801 0.24157 0.04526 0.0
C7 C 0.06719 0.31552 0.97537 0.0
N8 N 0.12853 0.33838 0.99832 0.0
C9 C 0.10928 0.34183 0.97863 0.0
C10 C 0.04504 0.28464 0.99192 0.0
Tb11 Tb 0.19685 0.38158 1.00555 0.0
N12 N 0.17106 0.32725 0.03151 0.0
C13 C 0.19511 0.31928 0.04624 0.0
C14 C 0.13486 0.26127 0.06286 0.0
C15 C 0.17738 0.28666 0.06232 0.0
H16 H 0.12618 0.36581 0.96584 0.0
H17 H 0.19654 0.28127 0.07438 0.0
H18 H 0.05245 0.21593 0.05732 0.0
H19 H 0.05189 0.3191 0.96011 0.0
H20 H 0.22797 0.33865 0.04635 0.0
H21 H 0.26543 0.59418 0.97444 0.0
H22 H 0.12121 0.23601 0.0753 0.0
H23 H 0.31493 0.47847 0.07648 0.0
H24 H 0.22762 0.53119 0.99796 0.0
H25 H 0.38904 0.51919 0.0848 0.0
H26 H 0.01284 0.22612 0.02601 0.0
H27 H 0.34096 0.63592 0.97757 0.0
H28 H 0.40605 0.6474 0.99679 0.0
H29 H 0.0125 0.26415 0.9893 0.0
H30 H 0.43979 0.62703 0.02689 0.0
N31 N 0.28122 0.53577 0.01379 0.0
C32 C 0.26056 0.54876 0.99951 0.0
C33 C 0.32452 0.60801 0.98784 0.0
C34 C 0.34531 0.59587 1.00343 0.0
C35 C 0.2819 0.58462 0.9861 0.0
C36 C 0.32243 0.55949 0.01655 0.0
H37 H 0.4336 0.57954 0.06004 0.0
N38 N 0.31755 0.51453 0.04673 0.0
C39 C 0.37601 0.52774 0.07031 0.0
C40 C 0.34126 0.5486 0.0337 0.0
C41 C 0.33398 0.50476 0.06556 0.0
C42 C 0.40107 0.56174 0.05628 0.0
C43 C 0.38368 0.57296 0.03793 0.0
O44 O 0.25012 0.49623 0.07284 0.0
O45 O 0.20393 0.41388 0.0386 0.0
O46 O 0.15026 0.40045 1.01144 0.0
O47 O 0.19175 0.46981 0.02201 0.0
O48 O 0.24081 0.4378 0.06715 0.0
O49 O 0.22453 0.51638 0.04525 0.0
O50 O 0.19944 0.36939 0.96921 0.0
O51 O 0.23915 0.44631 1.00429 0.0
O52 O 0.29594 0.46533 0.02508 0.0
O53 O 0.25788 0.39445 0.01934 0.0
O54 O 0.20122 0.42095 0.97587 0.0
O55 O 0.2234 0.34585 0.99537 0.0
C56 C 0.20995 0.40497 0.05916 0.0
C57 C 0.26035 0.56335 0.07608 0.0
C58 C 0.28277 0.61172 0.10904 0.0
C59 C 0.26041 0.5713 0.10038 0.0
C60 C 0.30626 0.6439 0.09322 0.0
C61 C 0.28294 0.59626 0.06052 0.0
C62 C 0.30622 0.63611 0.06911 0.0
C63 C 0.15604 0.43787 0.0158 0.0
C64 C 0.23637 0.52085 0.06728 0.0
C65 C 0.40707 0.60808 0.02408 0.0
C66 C 0.38787 0.61961 1.0069 0.0
C67 C 0.23086 0.45451 0.98414 0.0
C68 C 0.20112 0.30909 0.95905 0.0
C69 C 0.22263 0.3073 0.93883 0.0
C70 C 0.20833 0.27029 0.92593 0.0
C71 C 0.17181 0.23558 0.93344 0.0
C72 C 0.16488 0.27395 0.96598 0.0
C73 C 0.15033 0.23751 0.95319 0.0
C74 C 0.29318 0.42924 0.02243 0.0
C75 C 0.21693 0.34757 0.97285 0.0
H76 H 0.24204 0.54622 0.11237 0.0
H77 H 0.32428 0.6752 0.09948 0.0
H78 H 0.28241 0.59159 0.0417 0.0
H79 H 0.32382 0.66113 0.05698 0.0
H80 H 0.2508 0.33438 0.93349 0.0
H81 H 0.15955 0.20685 0.92387 0.0
H82 H 0.14792 0.27466 0.98133 0.0
H83 H 0.12226 0.21052 0.95866 0.0
Tb84 Tb 0.75669 0.2309 0.36848 0.0
C85 C 0.81993 0.11435 0.34919 0.0
C86 C 0.86185 0.125 0.38377 0.0
C87 C 0.82747 0.05816 0.36463 0.0
C88 C 0.84453 0.13962 0.36697 0.0
C89 C 0.8121 0.07368 0.34728 0.0
C90 C 0.85226 0.08379 0.3829 0.0
C91 C 0.77855 0.06852 0.30994 0.0
N92 N 0.80614 0.1307 0.33274 0.0
C93 C 0.78739 0.10914 0.31261 0.0
C94 C 0.79039 0.05047 0.32755 0.0
Tb95 Tb 0.82028 0.1967 0.33912 0.0
N96 N 0.85346 0.17929 0.36689 0.0
C97 C 0.88202 0.20684 0.38227 0.0
C98 C 0.88929 0.15257 0.40041 0.0
C99 C 0.89994 0.19382 0.39938 0.0
H100 H 0.7779 0.12292 0.29904 0.0
H101 H 0.92176 0.2156 0.41187 0.0
H102 H 0.86488 0.07182 0.39581 0.0
H103 H 0.76265 0.05119 0.29432 0.0
H104 H 0.89037 0.23873 0.38198 0.0
H105 H 0.65596 0.23667 0.30217 0.0
H106 H 0.90322 0.14259 0.41366 0.0
H107 H 0.81209 0.29699 0.41102 0.0
H108 H 0.68885 0.20504 0.32441 0.0
H109 H 0.82891 0.36602 0.42415 0.0
H110 H 0.8214 0.02682 0.36367 0.0
H111 H 0.67261 0.30778 0.31113 0.0
H112 H 0.71099 0.37095 0.3361 0.0
H113 H 0.78375 0.01909 0.32539 0.0
H114 H 0.75762 0.40597 0.36946 0.0
N115 N 0.72602 0.25821 0.34537 0.0
C116 C 0.69721 0.23626 0.32847 0.0
C117 C 0.68766 0.29417 0.32084 0.0
C118 C 0.71559 0.31584 0.33887 0.0
C119 C 0.67815 0.25405 0.31578 0.0
C120 C 0.73409 0.29661 0.35112 0.0
H121 H 0.80149 0.40426 0.40247 0.0
N122 N 0.77584 0.29583 0.38168 0.0
C123 C 0.80945 0.35235 0.40886 0.0
C124 C 0.75968 0.31601 0.37002 0.0
C125 C 0.79969 0.31303 0.40134 0.0
C126 C 0.79394 0.37384 0.39657 0.0
C127 C 0.76842 0.3556 0.37702 0.0
O128 O 0.73132 0.22276 0.40272 0.0
O129 O 0.78681 0.1946 0.37085 0.0
O130 O 0.75792 0.14267 0.34253 0.0
O131 O 0.71887 0.17491 0.34823 0.0
O132 O 0.78893 0.22715 0.39981 0.0
O133 O 0.69312 0.19295 0.37233 0.0
O134 O 0.83906 0.20109 0.30346 0.0
O135 O 0.78825 0.23034 0.33684 0.0
O136 O 0.81282 0.28572 0.35889 0.0
O137 O 0.85798 0.26055 0.35381 0.0
O138 O 0.78758 0.19837 0.30736 0.0
O139 O 0.8835 0.23018 0.33104 0.0
C140 C 0.799 0.20136 0.39202 0.0
C141 C 0.66666 0.21878 0.40158 0.0
C142 C 0.63651 0.2407 0.43266 0.0
C143 C 0.6612 0.22409 0.42566 0.0
C144 C 0.6182 0.25293 0.41518 0.0
C145 C 0.64662 0.2297 0.38449 0.0
C146 C 0.6231 0.24722 0.39128 0.0
C147 C 0.72248 0.14257 0.34292 0.0
C148 C 0.69394 0.20277 0.39456 0.0
C149 C 0.75116 0.37548 0.36443 0.0
C150 C 0.72471 0.35559 0.34541 0.0
C151 C 0.7762 0.22301 0.31568 0.0
C152 C 0.90486 0.20973 0.29628 0.0
C153 C 0.9258 0.22933 0.27512 0.0
C154 C 0.95185 0.21745 0.2636 0.0
C155 C 0.95565 0.18513 0.2735 0.0
C156 C 0.90964 0.17785 0.30562 0.0
C157 C 0.93475 0.16561 0.29423 0.0
C158 C 0.85033 0.2914 0.35696 0.0
C159 C 0.8779 0.22241 0.30839 0.0
H160 H 0.67553 0.21449 0.4389 0.0
H161 H 0.59978 0.26665 0.41999 0.0
H162 H 0.64894 0.22481 0.36587 0.0
H163 H 0.6084 0.25614 0.37795 0.0
H164 H 0.92234 0.25413 0.2679 0.0
H165 H 0.97457 0.1745 0.26504 0.0
H166 H 0.89396 0.16241 0.32173 0.0
H167 H 0.93807 0.14081 0.30153 0.0
Tb168 Tb 0.53333 0.7606 0.70262 0.0
C169 C 0.71007 0.8097 0.68115 0.0
C170 C 0.7454 0.85159 0.71514 0.0
C171 C 0.77214 0.81214 0.69548 0.0
C172 C 0.71262 0.83602 0.69889 0.0
C173 C 0.74039 0.79833 0.67874 0.0
C174 C 0.77459 0.83869 0.71371 0.0
C175 C 0.70792 0.7641 0.64218 0.0
N176 N 0.67912 0.79731 0.66535 0.0
C177 C 0.67868 0.77639 0.64535 0.0
C178 C 0.73859 0.77459 0.65914 0.0
Tb179 Tb 0.63163 0.81727 0.6725 0.0
N180 N 0.68406 0.84799 0.69944 0.0
C181 C 0.68822 0.87792 0.71491 0.0
C182 C 0.74846 0.88048 0.73186 0.0
C183 C 0.72011 0.89419 0.73148 0.0
H184 H 0.65479 0.76794 0.6323 0.0
H185 H 0.72261 0.91711 0.74406 0.0
H186 H 0.79978 0.84995 0.72617 0.0
H187 H 0.70678 0.74656 0.62668 0.0
H188 H 0.66646 0.88865 0.71515 0.0
H189 H 0.42513 0.66643 0.63478 0.0
H190 H 0.77308 0.8931 0.74472 0.0
H191 H 0.52091 0.80974 0.74797 0.0
H192 H 0.48702 0.69205 0.65895 0.0
H193 H 0.47286 0.83296 0.76023 0.0
H194 H 0.79551 0.80337 0.69413 0.0
H195 H 0.37712 0.69256 0.64113 0.0
H196 H 0.35723 0.73642 0.66505 0.0
H197 H 0.76132 0.76521 0.65661 0.0
H198 H 0.37013 0.78181 0.69937 0.0
N199 N 0.47611 0.73429 0.67872 0.0
C200 C 0.4669 0.70424 0.66214 0.0
C201 C 0.40456 0.70423 0.65184 0.0
C202 C 0.41257 0.73283 0.66984 0.0
C203 C 0.43151 0.68934 0.64827 0.0
C204 C 0.44872 0.74696 0.6833 0.0
H205 H 0.4129 0.8175 0.73522 0.0
N206 N 0.48954 0.78252 0.71576 0.0
C207 C 0.46775 0.81601 0.74387 0.0
C208 C 0.45565 0.77197 0.70256 0.0
C209 C 0.49493 0.80271 0.73684 0.0
C210 C 0.43402 0.80733 0.72969 0.0
C211 C 0.42716 0.78436 0.70896 0.0
O212 O 0.518 0.73594 0.73707 0.0
O213 O 0.59921 0.7861 0.70439 0.0
O214 O 0.61843 0.75325 0.67687 0.0
O215 O 0.54723 0.71967 0.68187 0.0
O216 O 0.57101 0.79115 0.73375 0.0
O217 O 0.50317 0.69665 0.70646 0.0
O218 O 0.64531 0.83426 0.63659 0.0
O219 O 0.56648 0.79133 0.67112 0.0
O220 O 0.54159 0.82118 0.69683 0.0
O221 O 0.61168 0.85987 0.68739 0.0
O222 O 0.59446 0.7857 0.64135 0.0
O223 O 0.66503 0.88019 0.66382 0.0
C224 C 0.60588 0.79863 0.72553 0.0
C225 C 0.45542 0.67352 0.73793 0.0
C226 C 0.40896 0.64023 0.77103 0.0
C227 C 0.44893 0.66391 0.76208 0.0
C228 C 0.3754 0.62657 0.75557 0.0
C229 C 0.42149 0.65937 0.72269 0.0
C230 C 0.38174 0.63619 0.73153 0.0
C231 C 0.58166 0.71964 0.67707 0.0
C232 C 0.49767 0.69849 0.72911 0.0
C233 C 0.39223 0.77233 0.69489 0.0
C234 C 0.38491 0.74653 0.67535 0.0
C235 C 0.55998 0.77882 0.65006 0.0
C236 C 0.70397 0.89823 0.62803 0.0
C237 C 0.7046 0.91929 0.6071 0.0
C238 C 0.74177 0.94393 0.59474 0.0
C239 C 0.77791 0.94633 0.60355 0.0
C240 C 0.74052 0.90129 0.63625 0.0
C241 C 0.77718 0.92512 0.62402 0.0
C242 C 0.5758 0.85642 0.69365 0.0
C243 C 0.66511 0.87336 0.64114 0.0
H244 H 0.47506 0.67434 0.77382 0.0
H245 H 0.34426 0.60866 0.7621 0.0
H246 H 0.42544 0.66594 0.70397 0.0
H247 H 0.35578 0.62556 0.71971 0.0
H248 H 0.6764 0.91712 0.60074 0.0
H249 H 0.80687 0.9644 0.59444 0.0
H250 H 0.74073 0.88535 0.65215 0.0
H251 H 0.80527 0.92726 0.63047 0.0
Tb252 Tb 0.77003 0.53149 0.03713 0.0
C253 C 0.90614 0.7045 0.01448 0.0
C254 C 0.90149 0.74221 0.04793 0.0
C255 C 0.96732 0.76504 0.02873 0.0
C256 C 0.88314 0.70906 0.03192 0.0
C257 C 0.94827 0.73307 0.01215 0.0
C258 C 0.94395 0.76955 0.04666 0.0
C259 C 0.9483 0.69881 0.97588 0.0
N260 N 0.88645 0.67351 0.99878 0.0
C261 C 0.90637 0.67143 0.97895 0.0
C262 C 0.96952 0.72942 0.99276 0.0
Tb263 Tb 0.81839 0.62877 1.00579 0.0
N264 N 0.84225 0.68229 0.03225 0.0
C265 C 0.81733 0.68889 0.04715 0.0
C266 C 0.87642 0.74758 0.06418 0.0
C267 C 0.83406 0.72121 0.0635 0.0
H268 H 0.89013 0.64763 0.96593 0.0
H269 H 0.81425 0.72557 0.07567 0.0
H270 H 0.95873 0.79495 0.05897 0.0
H271 H 0.96419 0.69629 0.96052 0.0
H272 H 0.7846 0.66867 0.04714 0.0
H273 H 0.7575 0.42158 0.97072 0.0
H274 H 0.88928 0.77259 0.07684 0.0
H275 H 0.70503 0.52379 0.0793 0.0
H276 H 0.79366 0.48314 0.99551 0.0
H277 H 0.63228 0.47803 0.08953 0.0
H278 H 0.99978 0.78706 0.02745 0.0
H279 H 0.68245 0.37668 0.97453 0.0
H280 H 0.61731 0.35963 0.99616 0.0
H281 H 1.00194 0.75074 0.99029 0.0
H282 H 0.5832 0.37467 0.02883 0.0
N283 N 0.73951 0.47484 0.01288 0.0
C284 C 0.76092 0.46416 0.99752 0.0
C285 C 0.69815 0.40386 0.9855 0.0
C286 C 0.67684 0.41319 1.00245 0.0
C287 C 0.74051 0.42907 0.98334 0.0
C288 C 0.69876 0.44908 0.01617 0.0
H289 H 0.58891 0.418 0.06424 0.0
N290 N 0.70262 0.49105 0.04791 0.0
C291 C 0.64516 0.47197 0.0739 0.0
C292 C 0.67966 0.45734 0.03446 0.0
C293 C 0.68641 0.49782 0.06804 0.0
C294 C 0.62075 0.43822 0.05954 0.0
C295 C 0.638 0.43028 0.03966 0.0
O296 O 0.77281 0.51435 0.07234 0.0
O297 O 0.81323 0.59662 0.03851 0.0
O298 O 0.86686 0.61244 1.01107 0.0
O299 O 0.82732 0.54252 0.02044 0.0
O300 O 0.77755 0.57119 0.06743 0.0
O301 O 0.79859 0.49676 0.04345 0.0
O302 O 0.8155 0.64076 0.96953 0.0
O303 O 0.77676 0.56395 1.00466 0.0
O304 O 0.72079 0.54324 0.02858 0.0
O305 O 0.75636 0.61341 0.0194 0.0
O306 O 0.81381 0.58971 0.97583 0.0
O307 O 0.7923 0.66497 0.99598 0.0
C308 C 0.80716 0.60482 0.05929 0.0
C309 C 0.76705 0.44896 0.07436 0.0
C310 C 0.74918 0.40096 0.10708 0.0
C311 C 0.76817 0.4414 0.09856 0.0
C312 C 0.72813 0.36809 0.09127 0.0
C313 C 0.74628 0.41564 0.05875 0.0
C314 C 0.72662 0.37551 0.06723 0.0
C315 C 0.86247 0.57546 0.01467 0.0
C316 C 0.78822 0.49157 0.06574 0.0
C317 C 0.61538 0.39561 0.0253 0.0
C318 C 0.63479 0.38709 1.00669 0.0
C319 C 0.78437 0.5561 0.98422 0.0
C320 C 0.81471 0.70143 0.95957 0.0
C321 C 0.79415 0.70276 0.93889 0.0
C322 C 0.80887 0.73953 0.92578 0.0
C323 C 0.84487 0.77451 0.93358 0.0
C324 C 0.85044 0.73683 0.96682 0.0
C325 C 0.86542 0.77306 0.95383 0.0
C326 C 0.72226 0.57858 0.02487 0.0
C327 C 0.79853 0.66305 0.9734 0.0
H328 H 0.78479 0.46692 0.11062 0.0
H329 H 0.71299 0.33668 0.09751 0.0
H330 H 0.7455 0.4203 0.03997 0.0
H331 H 0.71059 0.35008 0.05509 0.0
H332 H 0.76638 0.67547 0.93332 0.0
H333 H 0.85746 0.80308 0.92386 0.0
H334 H 0.86668 0.73648 0.98254 0.0
H335 H 0.8931 0.80024 0.95953 0.0
Tb336 Tb 0.25228 0.77377 0.37077 0.0
C337 C 0.20404 0.9006 0.34698 0.0
C338 C 0.15927 0.89214 0.37986 0.0
C339 C 0.19991 0.95924 0.3617 0.0
C340 C 0.17656 0.876 0.36392 0.0
C341 C 0.21513 0.94223 0.34508 0.0
C342 C 0.17203 0.9342 0.37912 0.0
C343 C 0.25148 0.94557 0.30904 0.0
N344 N 0.21749 0.88276 0.33121 0.0
C345 C 0.23932 0.90403 0.31167 0.0
C346 C 0.23989 0.96497 0.32604 0.0
Tb347 Tb 0.1987 0.81545 0.33781 0.0
N348 N 0.16472 0.83556 0.36367 0.0
C349 C 0.13301 0.8088 0.37779 0.0
C350 C 0.12869 0.86526 0.39541 0.0
C351 C 0.11496 0.82328 0.39404 0.0
H352 H 0.2487 0.88926 0.2986 0.0
H353 H 0.09065 0.80205 0.40561 0.0
H354 H 0.15952 0.94734 0.39141 0.0
H355 H 0.26979 0.96259 0.29393 0.0
H356 H 0.12226 0.77634 0.37721 0.0
H357 H 0.36295 0.77143 0.31016 0.0
H358 H 0.11467 0.87639 0.40799 0.0
H359 H 0.18777 0.70393 0.40892 0.0
H360 H 0.32948 0.80314 0.33213 0.0
H361 H 0.16356 0.63149 0.41854 0.0
H362 H 0.20846 0.99132 0.36078 0.0
H363 H 0.33934 0.6976 0.31511 0.0
H364 H 0.29291 0.63115 0.33587 0.0
H365 H 0.24912 0.99707 0.32391 0.0
H366 H 0.23903 0.59318 0.36556 0.0
N367 N 0.28573 0.74758 0.34905 0.0
C368 C 0.31851 0.77088 0.3346 0.0
C369 C 0.32434 0.71134 0.32486 0.0
C370 C 0.29245 0.68817 0.34071 0.0
C371 C 0.33778 0.75301 0.32204 0.0
C372 C 0.27387 0.70754 0.35285 0.0
H373 H 0.19073 0.59309 0.39655 0.0
N374 N 0.22772 0.70656 0.38125 0.0
C375 C 0.18617 0.64654 0.40472 0.0
C376 C 0.24403 0.68634 0.36965 0.0
C377 C 0.20008 0.68769 0.39923 0.0
C378 C 0.20155 0.62496 0.39225 0.0
C379 C 0.2312 0.64494 0.37465 0.0
O380 O 0.26803 0.77743 0.40676 0.0
O381 O 0.22539 0.81296 0.37122 0.0
O382 O 0.26177 0.86714 0.34363 0.0
O383 O 0.29638 0.83229 0.35487 0.0
O384 O 0.21467 0.77651 0.3997 0.0
O385 O 0.31465 0.80576 0.37963 0.0
O386 O 0.18415 0.81275 0.3015 0.0
O387 O 0.22859 0.77966 0.33739 0.0
O388 O 0.19702 0.72225 0.35746 0.0
O389 O 0.15595 0.75164 0.35124 0.0
O390 O 0.23595 0.81433 0.30812 0.0
O391 O 0.13657 0.78354 0.32746 0.0
C392 C 0.20929 0.80531 0.39152 0.0
C393 C 0.32921 0.77587 0.4123 0.0
C394 C 0.35129 0.75537 0.44773 0.0
C395 C 0.33022 0.77315 0.43698 0.0
C396 C 0.37066 0.73942 0.43329 0.0
C397 C 0.34901 0.76007 0.39818 0.0
C398 C 0.3693 0.74165 0.40868 0.0
C399 C 0.29578 0.86576 0.34829 0.0
C400 C 0.30707 0.79501 0.40182 0.0
C401 C 0.24861 0.62505 0.36209 0.0
C402 C 0.27922 0.64665 0.34515 0.0
C403 C 0.24481 0.78834 0.31715 0.0
C404 C 0.11988 0.80628 0.29216 0.0
C405 C 0.09806 0.78567 0.27146 0.0
C406 C 0.07336 0.79852 0.25945 0.0
C407 C 0.07172 0.83272 0.26831 0.0
C408 C 0.11743 0.84014 0.3005 0.0
C409 C 0.09362 0.85331 0.28857 0.0
C410 C 0.16088 0.71906 0.35409 0.0
C411 C 0.14479 0.79211 0.30506 0.0
H412 H 0.31457 0.78501 0.4478 0.0
H413 H 0.38785 0.72623 0.44097 0.0
H414 H 0.34914 0.76207 0.3791 0.0
H415 H 0.38457 0.72963 0.39772 0.0
H416 H 0.09966 0.7593 0.26505 0.0
H417 H 0.05366 0.84386 0.25942 0.0
H418 H 0.13379 0.85631 0.31628 0.0
H419 H 0.09201 0.87957 0.29511 0.0
Tb420 Tb 0.48343 0.24746 0.70213 0.0
C421 C 0.30542 0.19768 0.68299 0.0
C422 C 0.27139 0.15374 0.71645 0.0
C423 C 0.24307 0.19315 0.69872 0.0
C424 C 0.30385 0.17081 0.69994 0.0
C425 C 0.27452 0.20842 0.68167 0.0
C426 C 0.24154 0.16585 0.71613 0.0
C427 C 0.30605 0.24514 0.64556 0.0
N428 N 0.33607 0.21134 0.66686 0.0
C429 C 0.33584 0.23338 0.64763 0.0
C430 C 0.27554 0.23309 0.66285 0.0
Tb431 Tb 0.38519 0.19296 0.67232 0.0
N432 N 0.33303 0.1597 0.69935 0.0
C433 C 0.32967 0.129 0.71383 0.0
C434 C 0.2693 0.12418 0.73227 0.0
C435 C 0.2982 0.11127 0.73067 0.0
H436 H 0.35958 0.24312 0.63432 0.0
H437 H 0.2964 0.08779 0.74249 0.0
H438 H 0.21658 0.15344 0.72882 0.0
H439 H 0.30666 0.26351 0.63066 0.0
H440 H 0.35181 0.11877 0.71311 0.0
H441 H 0.59035 0.35271 0.63746 0.0
H442 H 0.24496 0.11041 0.74531 0.0
H443 H 0.49204 0.18508 0.74046 0.0
H444 H 0.52816 0.32232 0.66208 0.0
H445 H 0.53984 0.15947 0.74822 0.0
H446 H 0.21926 0.20137 0.69822 0.0
H447 H 0.6392 0.32687 0.64012 0.0
H448 H 0.65986 0.28 0.65989 0.0
H449 H 0.25237 0.24205 0.66117 0.0
H450 H 0.64642 0.2278 0.69026 0.0
N451 N 0.54034 0.27818 0.67821 0.0
C452 C 0.54896 0.31048 0.66355 0.0
C453 C 0.61181 0.31325 0.65101 0.0
C454 C 0.60419 0.28198 0.66709 0.0
C455 C 0.58434 0.32795 0.64949 0.0
C456 C 0.56797 0.26521 0.68076 0.0
H457 H 0.60187 0.18287 0.72341 0.0
N458 N 0.52611 0.22213 0.71113 0.0
C459 C 0.54605 0.18105 0.73399 0.0
C460 C 0.56081 0.23642 0.69797 0.0
C461 C 0.51907 0.19576 0.72957 0.0
C462 C 0.58102 0.1943 0.71993 0.0
C463 C 0.58904 0.22271 0.70183 0.0
O464 O 0.49973 0.26571 0.73756 0.0
O465 O 0.41767 0.221 0.7047 0.0
O466 O 0.39694 0.2562 0.67888 0.0
O467 O 0.46764 0.29114 0.6868 0.0
O468 O 0.44599 0.21235 0.73259 0.0
O469 O 0.51566 0.31046 0.70962 0.0
O470 O 0.37038 0.17739 0.63628 0.0
O471 O 0.45064 0.22241 0.66968 0.0
O472 O 0.47756 0.19087 0.68906 0.0
O473 O 0.40667 0.15029 0.68544 0.0
O474 O 0.42048 0.22969 0.64181 0.0
O475 O 0.35579 0.13065 0.66231 0.0
C476 C 0.4111 0.20633 0.72532 0.0
C477 C 0.56266 0.32721 0.74111 0.0
C478 C 0.60818 0.35737 0.7749 0.0
C479 C 0.56845 0.33588 0.76538 0.0
C480 C 0.64215 0.36935 0.75984 0.0
C481 C 0.597 0.34032 0.72626 0.0
C482 C 0.63648 0.36089 0.73566 0.0
C483 C 0.43278 0.29042 0.68217 0.0
C484 C 0.52063 0.3044 0.7318 0.0
C485 C 0.62444 0.23811 0.68769 0.0
C486 C 0.63203 0.26775 0.67036 0.0
C487 C 0.45606 0.23825 0.64941 0.0
C488 C 0.31364 0.1118 0.62802 0.0
C489 C 0.31239 0.09311 0.60597 0.0
C490 C 0.2745 0.06705 0.59457 0.0
C491 C 0.23819 0.06018 0.60599 0.0
C492 C 0.27692 0.10471 0.63855 0.0
C493 C 0.23951 0.07901 0.6276 0.0
C494 C 0.44414 0.15478 0.68699 0.0
C495 C 0.35327 0.13817 0.64002 0.0
H496 H 0.54196 0.32669 0.77672 0.0
H497 H 0.67311 0.38538 0.76676 0.0
H498 H 0.59361 0.33509 0.70742 0.0
H499 H 0.66276 0.37057 0.72413 0.0
H500 H 0.34093 0.0992 0.59772 0.0
H501 H 0.20839 0.03959 0.59849 0.0
H502 H 0.27715 0.11872 0.65537 0.0
H503 H 0.21125 0.07332 0.63601 0.0
H504 H 0.29805 0.81236 0.28069 0.0
H505 H 0.30616 0.76853 0.25149 0.0
H506 H 0.21836 0.66093 0.28969 0.0
H507 H 0.2087 0.70441 0.31795 0.0
H508 H 0.32673 0.70493 0.2537 0.0
H509 H 0.16575 0.64906 0.22466 0.0
H510 H 0.19229 0.69227 0.24433 0.0
H511 H 0.17306 0.64102 0.2552 0.0
C512 C 0.28099 0.77936 0.28297 0.0
C513 C 0.25339 0.76179 0.30187 0.0
C514 C 0.28582 0.75442 0.26645 0.0
C515 C 0.26271 0.71155 0.26845 0.0
C516 C 0.2363 0.69396 0.28781 0.0
H517 H 0.28624 0.57099 0.14858 0.0
H518 H 0.28026 0.58711 0.19019 0.0
C519 C 0.23116 0.7189 0.30416 0.0
C520 C 0.26294 0.68584 0.24873 0.0
H521 H 0.20542 0.63029 0.20157 0.0
C522 C 0.30006 0.68783 0.24251 0.0
C523 C 0.22796 0.66372 0.23425 0.0
C524 C 0.18752 0.66145 0.23975 0.0
C525 C 0.3037 0.67014 0.22138 0.0
C526 C 0.2693 0.64996 0.20636 0.0
C527 C 0.23159 0.64573 0.21332 0.0
C528 C 0.2733 0.63943 0.18173 0.0
C529 C 0.34481 0.67546 0.2144 0.0
C530 C 0.27093 0.66332 0.16347 0.0
C531 C 0.27414 0.65422 0.13995 0.0
C532 C 0.27976 0.62096 0.13421 0.0
C533 C 0.28183 0.59675 0.15255 0.0
C534 C 0.2787 0.60602 0.17623 0.0
H535 H 0.36896 0.69338 0.22771 0.0
H536 H 0.34227 0.6449 0.21236 0.0
H537 H 0.35448 0.69132 0.19703 0.0
H538 H 0.26654 0.68911 0.16745 0.0
H539 H 0.27164 0.67293 0.12621 0.0
H540 H 0.48001 0.28803 0.61138 0.0
H541 H 0.52665 0.29226 0.57974 0.0
H542 H 0.55211 0.20806 0.61787 0.0
H543 H 0.50357 0.20173 0.64845 0.0
H544 H 0.60807 0.31254 0.57608 0.0
H545 H 0.5027 0.14686 0.55708 0.0
H546 H 0.48932 0.17532 0.57743 0.0
H547 H 0.52445 0.15845 0.58625 0.0
C548 C 0.49602 0.27087 0.61307 0.0
C549 C 0.48874 0.24508 0.63257 0.0
C550 C 0.52282 0.27351 0.59513 0.0
C551 C 0.54249 0.25014 0.59638 0.0
C552 C 0.53682 0.22592 0.61642 0.0
H553 H 0.69015 0.26413 0.4702 0.0
H554 H 0.67437 0.26629 0.51224 0.0
C555 C 0.50943 0.22272 0.63411 0.0
C556 C 0.56485 0.24772 0.57545 0.0
H557 H 0.55736 0.18277 0.53099 0.0
C558 C 0.5975 0.28412 0.56633 0.0
C559 C 0.55075 0.21048 0.56285 0.0
C560 C 0.51472 0.17058 0.57123 0.0
C561 C 0.61496 0.28468 0.54423 0.0
C562 C 0.59969 0.24773 0.53127 0.0
C563 C 0.56888 0.21097 0.54109 0.0
C564 C 0.6105 0.24712 0.50617 0.0
C565 C 0.64772 0.32506 0.53424 0.0
C566 C 0.57966 0.23497 0.48904 0.0
C567 C 0.58832 0.23308 0.46527 0.0
C568 C 0.62813 0.24353 0.45805 0.0
C569 C 0.65913 0.25572 0.47525 0.0
C570 C 0.65031 0.25739 0.4992 0.0
H571 H 0.65214 0.35157 0.54518 0.0
H572 H 0.67726 0.32516 0.53351 0.0
H573 H 0.63978 0.32922 0.51591 0.0
H574 H 0.54868 0.22675 0.49412 0.0
H575 H 0.56355 0.22275 0.45258 0.0
H576 H 0.31494 0.49231 0.98367 0.0
H577 H 0.36131 0.54042 0.95407 0.0
H578 H 0.25753 0.53234 0.91666 0.0
H579 H 0.21135 0.48565 0.94686 0.0
H580 H 0.36291 0.52267 0.90931 0.0
H581 H 0.3352 0.65328 0.91304 0.0
H582 H 0.31772 0.61501 0.93608 0.0
H583 H 0.28722 0.60665 0.90991 0.0
C584 C 0.30219 0.50186 0.9696 0.0
C585 C 0.25971 0.48629 0.96788 0.0
C586 C 0.32869 0.52921 0.95262 0.0
C587 C 0.313 0.54082 0.93347 0.0
C588 C 0.2705 0.52508 0.93174 0.0
H589 H 0.3576 0.56529 0.78995 0.0
H590 H 0.34441 0.54715 0.83179 0.0
C591 C 0.2441 0.49804 0.9488 0.0
C592 C 0.3399 0.5647 0.91357 0.0
H593 H 0.35599 0.63995 0.87419 0.0
C594 C 0.3623 0.54903 0.90199 0.0
C595 C 0.3398 0.59953 0.9042 0.0
C596 C 0.319 0.61979 0.91667 0.0
C597 C 0.38143 0.56495 0.8802 0.0
C598 C 0.37744 0.59681 0.86965 0.0
C599 C 0.35837 0.61499 0.88219 0.0
C600 C 0.38792 0.60792 0.84455 0.0
C601 C 0.40424 0.54635 0.86818 0.0
C602 C 0.41616 0.6483 0.83795 0.0
C603 C 0.42351 0.65883 0.81399 0.0
C604 C 0.40224 0.62919 0.7964 0.0
C605 C 0.37412 0.58879 0.80314 0.0
C606 C 0.36698 0.57829 0.82701 0.0
H607 H 0.41626 0.53301 0.88132 0.0
H608 H 0.38292 0.52123 0.85628 0.0
H609 H 0.43021 0.56948 0.8574 0.0
H610 H 0.43218 0.67164 0.8513 0.0
H611 H 0.44508 0.69029 0.80923 0.0
H612 H 0.80779 0.30638 0.31823 0.0
H613 H 0.79863 0.3497 0.28966 0.0
H614 H 0.72122 0.24282 0.24751 0.0
H615 H 0.72921 0.19918 0.27661 0.0
H616 H 0.82419 0.35687 0.24424 0.0
H617 H 0.65832 0.30463 0.24503 0.0
H618 H 0.68346 0.29419 0.269 0.0
H619 H 0.66754 0.26224 0.24299 0.0
C620 C 0.78762 0.29193 0.30341 0.0
C621 C 0.76816 0.24928 0.29997 0.0
C622 C 0.7826 0.31678 0.28699 0.0
C623 C 0.75845 0.29937 0.26677 0.0
C624 C 0.73887 0.25673 0.26339 0.0
H625 H 0.77202 0.34834 0.12468 0.0
H626 H 0.77692 0.33332 0.16625 0.0
C627 C 0.74381 0.23191 0.27983 0.0
C628 C 0.75829 0.32578 0.2475 0.0
H629 H 0.69448 0.33478 0.20822 0.0
C630 C 0.7959 0.3529 0.23674 0.0
C631 C 0.72145 0.32095 0.23789 0.0
C632 C 0.68044 0.2942 0.24949 0.0
C633 C 0.79728 0.37255 0.21545 0.0
C634 C 0.76017 0.36462 0.20473 0.0
C635 C 0.72285 0.3404 0.21647 0.0
C636 C 0.75907 0.37599 0.17994 0.0
C637 C 0.83822 0.39992 0.20388 0.0
C638 C 0.74701 0.40466 0.17408 0.0
C639 C 0.74426 0.41336 0.1503 0.0
C640 C 0.7528 0.39284 0.13225 0.0
C641 C 0.76488 0.36421 0.13829 0.0
C642 C 0.76805 0.35592 0.16195 0.0
H643 H 0.86362 0.41173 0.21697 0.0
H644 H 0.8441 0.38205 0.1903 0.0
H645 H 0.83842 0.4263 0.19492 0.0
H646 H 0.73963 0.42008 0.18785 0.0
H647 H 0.73471 0.43542 0.14601 0.0
H648 H 0.53073 0.73301 0.61066 0.0
H649 H 0.47901 0.73081 0.58337 0.0
H650 H 0.46575 0.81769 0.62717 0.0
H651 H 0.51764 0.82028 0.65436 0.0
H652 H 0.38918 0.71868 0.59742 0.0
H653 H 0.50687 0.86442 0.55507 0.0
H654 H 0.52195 0.83142 0.56981 0.0
H655 H 0.50357 0.85923 0.58688 0.0
C656 C 0.51637 0.75123 0.61453 0.0
C657 C 0.52726 0.77601 0.6348 0.0
C658 C 0.4868 0.74974 0.59912 0.0
C659 C 0.46844 0.77367 0.60359 0.0
C660 C 0.47932 0.79863 0.62376 0.0
H661 H 0.36226 0.81628 0.47862 0.0
H662 H 0.37776 0.82065 0.52074 0.0
C663 C 0.50882 0.79999 0.63924 0.0
C664 C 0.44107 0.77523 0.58568 0.0
H665 H 0.44517 0.82517 0.53476 0.0
C666 C 0.40085 0.74236 0.58395 0.0
C667 C 0.4565 0.80654 0.56848 0.0
C668 C 0.49957 0.84255 0.56996 0.0
C669 C 0.37626 0.73876 0.56444 0.0
C670 C 0.39307 0.76813 0.54605 0.0
C671 C 0.43228 0.80257 0.54881 0.0
C672 C 0.37372 0.76122 0.52247 0.0
C673 C 0.33308 0.70299 0.56344 0.0
C674 C 0.36504 0.7258 0.50961 0.0
C675 C 0.35543 0.72285 0.48559 0.0
C676 C 0.35517 0.75566 0.47387 0.0
C677 C 0.36176 0.79022 0.48709 0.0
C678 C 0.37079 0.79288 0.51119 0.0
H679 H 0.31972 0.69439 0.58151 0.0
H680 H 0.31291 0.70997 0.5524 0.0
H681 H 0.33356 0.676 0.5558 0.0
H682 H 0.36811 0.70139 0.51773 0.0
H683 H 0.34977 0.69552 0.47602 0.0
H684 H 0.80116 0.52628 0.94514 0.0
H685 H 0.7525 0.47818 0.91626 0.0
H686 H 0.65162 0.4684 0.95794 0.0
H687 H 0.70029 0.51771 0.98637 0.0
H688 H 0.68614 0.39678 0.92121 0.0
H689 H 0.6363 0.50742 0.89295 0.0
H690 H 0.68098 0.52307 0.91121 0.0
H691 H 0.63064 0.49303 0.92367 0.0
C692 C 0.76858 0.51362 0.94815 0.0
C693 C 0.75437 0.52496 0.96813 0.0
C694 C 0.74087 0.48602 0.93181 0.0
C695 C 0.69856 0.46979 0.93505 0.0
C696 C 0.68418 0.48076 0.95513 0.0
H697 H 0.56553 0.31019 0.81314 0.0
H698 H 0.57599 0.33039 0.85505 0.0
C699 C 0.71199 0.50865 0.97144 0.0
C700 C 0.67047 0.44406 0.91616 0.0
H701 H 0.61808 0.45048 0.86873 0.0
C702 C 0.67028 0.40779 0.90997 0.0
C703 C 0.6498 0.4587 0.90176 0.0
C704 C 0.6494 0.49776 0.90754 0.0
C705 C 0.65301 0.38765 0.88857 0.0
C706 C 0.63511 0.40411 0.87333 0.0
C707 C 0.63202 0.4382 0.88056 0.0
C708 C 0.62653 0.39146 0.8483 0.0
C709 C 0.65706 0.35107 0.88151 0.0
C710 C 0.65103 0.4194 0.83079 0.0
C711 C 0.64497 0.4082 0.80702 0.0
C712 C 0.61429 0.36875 0.80027 0.0
C713 C 0.58934 0.34087 0.81784 0.0
C714 C 0.5954 0.3522 0.84174 0.0
H715 H 0.67524 0.34456 0.8945 0.0
H716 H 0.62612 0.32355 0.88018 0.0
H717 H 0.67196 0.35626 0.86387 0.0
H718 H 0.6752 0.44989 0.83558 0.0
H719 H 0.66412 0.43062 0.79389 0.0
H720 H 0.33863 0.42661 0.05888 0.0
H721 H 0.41291 0.45284 0.05783 0.0
H722 H 0.41231 0.46507 0.98192 0.0
H723 H 0.33811 0.43911 0.98305 0.0
H724 H 0.46564 0.43056 0.03291 0.0
H725 H 0.49002 0.58317 1.00595 0.0
H726 H 0.4411 0.54245 0.0162 0.0
H727 H 0.45766 0.54171 0.98645 0.0
C728 C 0.35417 0.43329 0.04191 0.0
C729 C 0.33268 0.43012 0.021 0.0
C730 C 0.39664 0.44872 0.04133 0.0
C731 C 0.41833 0.46168 0.01985 0.0
C732 C 0.39635 0.45587 0.99874 0.0
H733 H 0.68032 0.58195 0.98663 0.0
H734 H 0.60598 0.55597 0.985 0.0
C735 C 0.35389 0.44038 0.99934 0.0
C736 C 0.464 0.48338 0.01975 0.0
H737 H 0.5493 0.57613 1.00818 0.0
C738 C 0.48391 0.46237 0.02751 0.0
C739 C 0.48788 0.52498 0.01272 0.0
C740 C 0.46821 0.54963 1.00505 0.0
C741 C 0.52696 0.4816 0.02819 0.0
C742 C 0.55088 0.52332 0.02143 0.0
C743 C 0.531 0.54425 0.01344 0.0
C744 C 0.59654 0.54542 0.02275 0.0
C745 C 0.54653 0.45688 0.03585 0.0
C746 C 0.61624 0.55024 0.0446 0.0
C747 C 0.65858 0.56546 0.04553 0.0
C748 C 0.6821 0.57655 0.02469 0.0
C749 C 0.66298 0.57459 1.003 0.0
C750 C 0.62048 0.55929 1.00205 0.0
H751 H 0.52485 0.42335 0.0346 0.0
H752 H 0.57403 0.46446 0.02494 0.0
H753 H 0.55632 0.46425 0.0546 0.0
H754 H 0.59856 0.54042 0.06084 0.0
H755 H 0.67262 0.56642 0.06242 0.0
H756 H 0.07714 0.68997 0.35916 0.0
H757 H 0.02217 0.61718 0.3597 0.0
H758 H 0.11166 0.5797 0.34638 0.0
H759 H 0.16546 0.65052 0.34534 0.0
H760 H 1.00567 0.55077 0.32113 0.0
H761 H 0.04924 0.51972 0.40952 0.0
H762 H 0.06152 0.57059 0.40022 0.0
H763 H 0.09063 0.54812 0.38907 0.0
C764 C 0.08486 0.66614 0.35615 0.0
C765 C 0.1259 0.67631 0.35263 0.0
C766 C 0.05357 0.62467 0.35655 0.0
C767 C 0.06312 0.59313 0.35355 0.0
C768 C 0.1037 0.60344 0.34919 0.0
H769 H 0.93488 0.32342 0.35806 0.0
H770 H 0.98816 0.39661 0.35648 0.0
C771 C 0.13454 0.64429 0.34865 0.0
C772 C 0.03144 0.54907 0.35477 0.0
H773 H 1.00258 0.46185 0.38696 0.0
C774 C 1.00456 0.53137 0.33564 0.0
C775 C 0.03096 0.5237 0.37341 0.0
C776 C 0.05941 0.54137 0.39434 0.0
C777 C 0.9774 0.48882 0.33454 0.0
C778 C 0.97638 0.4634 0.35338 0.0
C779 C 1.00345 0.4812 0.37248 0.0
C780 C 0.94514 0.41899 0.35441 0.0
C781 C 0.95072 0.47138 0.31288 0.0
C782 C 0.90357 0.40739 0.35418 0.0
C783 C 0.87356 0.3662 0.35487 0.0
C784 C 0.88395 0.335 0.35636 0.0
C785 C 0.92573 0.34651 0.35693 0.0
C786 C 0.95613 0.38828 0.35607 0.0
H787 H 0.96444 0.49164 0.29724 0.0
H788 H 0.94572 0.44042 0.30846 0.0
H789 H 0.92044 0.4688 0.31632 0.0
H790 H 0.89417 0.43034 0.35345 0.0
H791 H 0.84199 0.35908 0.35398 0.0
H792 H 0.51369 0.15652 0.67267 0.0
H793 H 0.53144 0.10315 0.67483 0.0
H794 H 0.41036 0.01834 0.7009 0.0
H795 H 0.39181 0.07285 0.69874 0.0
H796 H 0.53119 0.06366 0.71713 0.0
H797 H 0.4325 0.95389 0.64747 0.0
H798 H 0.44338 0.00643 0.64834 0.0
H799 H 0.40812 0.9699 0.66919 0.0
C800 C 0.49032 0.12656 0.67867 0.0
C801 C 0.45124 0.11922 0.68572 0.0
C802 C 0.50073 0.09593 0.67989 0.0
C803 C 0.47243 0.05674 0.68807 0.0
C804 C 0.43266 0.04838 0.69435 0.0
H805 H 0.55389 0.88526 0.7317 0.0
H806 H 0.52789 0.93341 0.7312 0.0
C807 C 0.42204 0.07945 0.69308 0.0
C808 C 0.48644 0.02625 0.69098 0.0
H809 H 0.47838 0.93869 0.66733 0.0
C810 C 0.51933 0.03606 0.70643 0.0
C811 C 0.47145 0.99069 0.67673 0.0
C812 C 0.43707 0.97945 0.65934 0.0
C813 C 0.53807 0.01177 0.70774 0.0
C814 C 0.52318 0.9762 0.69347 0.0
C815 C 0.48987 0.96601 0.67824 0.0
C816 C 0.54166 0.94913 0.69415 0.0
C817 C 0.57461 0.02526 0.72381 0.0
C818 C 0.5584 0.94202 0.67357 0.0
C819 C 0.5732 0.91432 0.67387 0.0
C820 C 0.57124 0.89315 0.69473 0.0
C821 C 0.55587 0.90136 0.71545 0.0
C822 C 0.54112 0.92897 0.71518 0.0
H823 H 0.58879 0.05825 0.72859 0.0
H824 H 0.56454 0.00717 0.74044 0.0
H825 H 0.59831 0.02 0.71536 0.0
H826 H 0.55906 0.95712 0.65712 0.0
H827 H 0.58389 0.90764 0.65752 0.0
H828 H 0.61164 0.67775 0.70157 0.0
H829 H 0.58492 0.60319 0.69955 0.0
H830 H 0.51027 0.5948 0.63963 0.0
H831 H 0.53646 0.66886 0.64183 0.0
H832 H 0.49317 0.54717 0.70298 0.0
H833 H 0.56198 0.52027 0.6223 0.0
H834 H 0.58684 0.56826 0.6384 0.0
H835 H 0.54342 0.55603 0.62 0.0
C836 C 0.59092 0.66016 0.68737 0.0
C837 C 0.57662 0.67901 0.67158 0.0
C838 C 0.57531 0.61757 0.68638 0.0
C839 C 0.54569 0.59343 0.66936 0.0
C840 C 0.53343 0.61278 0.65268 0.0
H841 H 0.40881 0.32511 0.64714 0.0
H842 H 0.43067 0.39867 0.64351 0.0
C843 C 0.54857 0.65511 0.65388 0.0
C844 C 0.52401 0.54782 0.67068 0.0
H845 H 0.51043 0.46176 0.64194 0.0
C846 C 0.49704 0.52848 0.68968 0.0
C847 C 0.52824 0.52346 0.65301 0.0
C848 C 0.55681 0.54283 0.63227 0.0
C849 C 0.4745 0.48548 0.69161 0.0
C850 C 0.47982 0.46096 0.67441 0.0
C851 C 0.50615 0.48036 0.6551 0.0
C852 C 0.46165 0.41571 0.67742 0.0
C853 C 0.4448 0.46678 0.71197 0.0
C854 C 0.47097 0.40064 0.69778 0.0
C855 C 0.45823 0.35902 0.6999 0.0
C856 C 0.43605 0.33126 0.68169 0.0
C857 C 0.42506 0.34571 0.66166 0.0
C858 C 0.43801 0.38776 0.65948 0.0
H859 H 0.43327 0.48737 0.71801 0.0
H860 H 0.41816 0.43665 0.70705 0.0
H861 H 0.46078 0.46219 0.72714 0.0
H862 H 0.48989 0.42139 0.71163 0.0
H863 H 0.46752 0.34876 0.71542 0.0
H864 H 0.09375 0.40964 0.98259 0.0
H865 H 0.0443 0.43391 0.97705 0.0
H866 H 0.09208 0.51009 0.03919 0.0
H867 H 0.1412 0.48648 0.04457 0.0
H868 H 0.98314 0.43257 1.00453 0.0
H869 H 0.10349 0.59359 0.99027 0.0
H870 H 0.11426 0.55183 0.98992 0.0
H871 H 0.1112 0.57415 0.01759 0.0
C872 C 0.09314 0.431 0.99523 0.0
C873 C 0.12162 0.4464 0.01389 0.0
C874 C 0.06516 0.44518 0.99195 0.0
C875 C 0.06535 0.47496 1.00725 0.0
C876 C 0.09224 0.48835 0.02662 0.0
H877 H 0.88234 0.53383 0.0456 0.0
H878 H 0.93208 0.5108 0.0406 0.0
C879 C 0.12014 0.47452 0.02978 0.0
C880 C 0.03748 0.4921 1.00352 0.0
H881 H 0.03679 0.58283 1.00146 0.0
C882 C 0.99492 0.46538 1.00349 0.0
C883 C 0.05263 0.53493 1.00159 0.0
C884 C 0.09791 0.56523 0.99957 0.0
C885 C 0.96728 0.48039 1.00313 0.0
C886 C 0.98252 0.52335 1.00331 0.0
C887 C 0.02501 0.54998 1.00177 0.0
C888 C 0.95491 0.54086 1.00685 0.0
C889 C 0.92189 0.44995 1.00284 0.0
C890 C 0.95286 0.5678 0.99029 0.0
C891 C 0.92453 0.58165 0.99332 0.0
C892 C 0.89802 0.56874 0.01298 0.0
C893 C 0.90195 0.54381 0.03009 0.0
C894 C 0.93018 0.53031 0.02716 0.0
H895 H 0.9155 0.42032 0.99481 0.0
H896 H 0.91018 0.44369 0.02131 0.0
H897 H 0.90472 0.46198 0.99284 0.0
H898 H 0.97206 0.57686 0.97461 0.0
H899 H 0.92191 0.60054 0.97976 0.0
H900 H 0.3553 0.89315 0.381 0.0
H901 H 0.42824 0.941 0.37505 0.0
H902 H 0.40315 0.96782 0.30486 0.0
H903 H 0.32937 0.91926 0.31081 0.0
H904 H 0.47189 0.92759 0.33558 0.0
H905 H 0.48662 0.08264 0.33601 0.0
H906 H 0.44437 0.0392 0.3504 0.0
H907 H 0.44617 0.04265 0.31872 0.0
C908 C 0.36515 0.91013 0.36453 0.0
C909 C 0.33671 0.90273 0.34641 0.0
C910 C 0.40688 0.93726 0.36111 0.0
C911 C 0.42122 0.9578 0.33949 0.0
C912 C 0.39267 0.95247 0.32176 0.0
H913 H 0.67601 0.13357 0.3048 0.0
H914 H 0.60274 0.08444 0.30058 0.0
C915 C 0.35054 0.92508 0.32522 0.0
C916 C 0.46623 0.98185 0.33525 0.0
H917 H 0.54716 0.07949 0.33154 0.0
C918 C 0.48839 0.96082 0.33448 0.0
C919 C 0.48762 0.02508 0.33372 0.0
C920 C 0.46526 0.04903 0.33484 0.0
C921 C 0.53141 0.98187 0.33253 0.0
C922 C 0.55307 0.02528 0.3319 0.0
C923 C 0.53071 0.04623 0.33203 0.0
C924 C 0.59882 0.04986 0.33204 0.0
C925 C 0.55313 0.95732 0.33102 0.0
C926 C 0.62164 0.04592 0.35058 0.0
C927 C 0.66386 0.07357 0.3527 0.0
C928 C 0.68377 0.10572 0.33641 0.0
C929 C 0.66148 0.10831 0.31721 0.0
C930 C 0.61951 0.08058 0.31498 0.0
H931 H 0.53261 0.92604 0.32391 0.0
H932 H 0.58084 0.97274 0.31961 0.0
H933 H 0.56277 0.95392 0.34904 0.0
H934 H 0.60639 0.02321 0.36432 0.0
H935 H 0.68009 0.07189 0.3681 0.0
H936 H 0.38742 0.16724 0.76753 0.0
H937 H 0.35006 0.1784 0.79961 0.0
H938 H 0.33603 0.26452 0.75586 0.0
H939 H 0.3726 0.25264 0.72361 0.0
H940 H 0.37339 0.24761 0.82321 0.0
H941 H 0.22226 0.20125 0.7827 0.0
H942 H 0.25825 0.18825 0.76973 0.0
H943 H 0.26485 0.23865 0.76567 0.0
C944 C 0.37542 0.18777 0.76456 0.0
C945 C 0.38239 0.20843 0.74284 0.0
C946 C 0.35423 0.19435 0.78298 0.0
C947 C 0.33968 0.2221 0.78031 0.0
C948 C 0.34588 0.2422 0.75838 0.0
H949 H 0.24178 0.32309 0.88793 0.0
H950 H 0.27439 0.31392 0.85229 0.0
C951 C 0.36691 0.23539 0.73985 0.0
C952 C 0.32101 0.23203 0.80108 0.0
H953 H 0.23574 0.23497 0.82006 0.0
C954 C 0.34323 0.2447 0.82243 0.0
C955 C 0.28165 0.22851 0.80029 0.0
C956 C 0.25514 0.21307 0.77846 0.0
C957 C 0.32737 0.25376 0.84277 0.0
C958 C 0.2881 0.25014 0.842 0.0
C959 C 0.266 0.23809 0.82064 0.0
C960 C 0.26873 0.25639 0.86365 0.0
C961 C 0.35273 0.2672 0.86508 0.0
C962 C 0.25487 0.22734 0.88198 0.0
C963 C 0.23615 0.23241 0.90224 0.0
C964 C 0.23095 0.26687 0.90486 0.0
C965 C 0.24555 0.2964 0.88664 0.0
C966 C 0.26392 0.29103 0.86617 0.0
H967 H 0.38513 0.27564 0.86173 0.0
H968 H 0.3521 0.29386 0.87316 0.0
H969 H 0.33951 0.24174 0.87812 0.0
H970 H 0.25817 0.20038 0.88051 0.0
H971 H 0.22566 0.20919 0.91593 0.0
H972 H 0.92605 0.24161 0.22392 0.0
H973 H 0.96352 0.26912 0.18651 0.0
H974 H 0.06853 0.26769 0.21582 0.0
H975 H 0.03152 0.24028 0.25291 0.0
H976 H 0.03575 0.33871 0.17462 0.0
H977 H 0.05161 0.20291 0.15562 0.0
H978 H 0.0177 0.2028 0.17833 0.0
H979 H 0.07164 0.22439 0.18419 0.0
C980 C 0.95725 0.2475 0.22246 0.0
C981 C 0.9754 0.23802 0.24143 0.0
C982 C 0.97863 0.26306 0.20098 0.0
C983 C 0.01861 0.26945 0.19793 0.0
C984 C 0.03732 0.26178 0.21725 0.0
H985 H 0.22102 0.37602 0.10066 0.0
H986 H 0.1708 0.34024 0.13215 0.0
C987 C 0.01605 0.24618 0.23859 0.0
C988 C 0.04119 0.28436 0.17483 0.0
H989 H 0.09523 0.26359 0.13337 0.0
C990 C 0.04823 0.32196 0.16543 0.0
C991 C 0.05743 0.26257 0.16256 0.0
C992 C 0.04887 0.22073 0.17054 0.0
C993 C 0.07258 0.33918 0.14498 0.0
C994 C 0.09013 0.3181 0.13332 0.0
C995 C 0.08203 0.27993 0.14227 0.0
C996 C 0.11936 0.33652 0.11294 0.0
C997 C 0.08085 0.38069 0.13658 0.0
C998 C 0.10715 0.34528 0.09117 0.0
C999 C 0.13594 0.36552 0.07297 0.0
C1000 C 0.17749 0.3772 0.07614 0.0
C1001 C 0.18922 0.36711 0.0976 0.0
C1002 C 0.16051 0.34672 0.11565 0.0
H1003 H 0.07119 0.39616 0.14982 0.0
H1004 H 0.11399 0.40087 0.13272 0.0
H1005 H 0.06364 0.37695 0.11996 0.0
H1006 H 0.07552 0.33722 0.08843 0.0
H1007 H 0.12595 0.37334 0.05683 0.0
H1008 H 0.69076 0.91819 0.55566 0.0
H1009 H 0.69802 0.95661 0.51896 0.0
H1010 H 0.80484 0.06164 0.54768 0.0
H1011 H 0.79787 0.02367 0.58417 0.0
H1012 H 0.74103 0.07639 0.52554 0.0
H1013 H 0.79305 0.99109 0.4675 0.0
H1014 H 0.74856 0.962 0.4859 0.0
H1015 H 0.79794 0.99179 0.49936 0.0
C1016 C 0.7156 0.94957 0.55421 0.0
C1017 C 0.74385 0.96767 0.5729 0.0
C1018 C 0.71996 0.97139 0.53312 0.0
C1019 C 0.75237 0.01193 0.53035 0.0
C1020 C 0.77983 0.03035 0.54923 0.0
H1021 H 0.83883 0.21714 0.43376 0.0
H1022 H 0.82795 0.16914 0.46585 0.0
C1023 C 0.77581 0.0085 0.57011 0.0
C1024 C 0.75762 0.0358 0.50813 0.0
H1025 H 0.78905 0.04602 0.45023 0.0
C1026 C 0.75135 0.06961 0.50906 0.0
C1027 C 0.7707 0.02684 0.48649 0.0
C1028 C 0.77823 0.99111 0.48455 0.0
C1029 C 0.758 0.09473 0.48914 0.0
C1030 C 0.77286 0.08695 0.46771 0.0
C1031 C 0.77809 0.05242 0.46659 0.0
C1032 C 0.78395 0.11506 0.44672 0.0
C1033 C 0.74836 0.12911 0.49125 0.0
C1034 C 0.76533 0.10064 0.42446 0.0
C1035 C 0.77237 0.1282 0.40576 0.0
C1036 C 0.79839 0.17068 0.40896 0.0
C1037 C 0.81872 0.18461 0.43074 0.0
C1038 C 0.8121 0.15717 0.44922 0.0
H1039 H 0.72542 0.12286 0.50543 0.0
H1040 H 0.77675 0.15792 0.49594 0.0
H1041 H 0.73636 0.13395 0.47434 0.0
H1042 H 0.74382 0.06831 0.42187 0.0
H1043 H 0.75579 0.11652 0.38932 0.0
H1044 H 0.63164 0.83841 0.76718 0.0
H1045 H 0.66972 0.82725 0.79855 0.0
H1046 H 0.6823 0.7408 0.75396 0.0
H1047 H 0.6448 0.75275 0.72227 0.0
H1048 H 0.64469 0.75651 0.8213 0.0
H1049 H 0.79673 0.80414 0.78101 0.0
H1050 H 0.76119 0.81801 0.76847 0.0
H1051 H 0.75386 0.76746 0.76386 0.0
C1052 C 0.64354 0.81788 0.76383 0.0
C1053 C 0.63585 0.79708 0.74209 0.0
C1054 C 0.66513 0.8113 0.78185 0.0
C1055 C 0.67927 0.7833 0.77878 0.0
C1056 C 0.67263 0.76322 0.75675 0.0
H1057 H 0.77659 0.68541 0.88823 0.0
H1058 H 0.7446 0.69308 0.852 0.0
C1059 C 0.65116 0.77008 0.73857 0.0
C1060 C 0.69768 0.77302 0.7994 0.0
H1061 H 0.78365 0.77219 0.81876 0.0
C1062 C 0.67509 0.75997 0.82064 0.0
C1063 C 0.73732 0.77726 0.79872 0.0
C1064 C 0.76393 0.79281 0.77689 0.0
C1065 C 0.69101 0.75152 0.84107 0.0
C1066 C 0.73071 0.75619 0.84048 0.0
C1067 C 0.7531 0.76837 0.81918 0.0
C1068 C 0.75017 0.75109 0.86232 0.0
C1069 C 0.66537 0.73787 0.86332 0.0
C1070 C 0.76374 0.78094 0.88025 0.0
C1071 C 0.78205 0.77671 0.90085 0.0
C1072 C 0.78712 0.74234 0.90421 0.0
C1073 C 0.77291 0.71208 0.88636 0.0
C1074 C 0.75492 0.71658 0.86555 0.0
H1075 H 0.63287 0.72887 0.85987 0.0
H1076 H 0.66642 0.71154 0.87147 0.0
H1077 H 0.67806 0.76342 0.87634 0.0
H1078 H 0.76036 0.80777 0.87823 0.0
H1079 H 0.79218 0.80044 0.91425 0.0
H1080 H 0.09701 0.77146 0.22009 0.0
H1081 H 0.05712 0.74022 0.18384 0.0
H1082 H 0.9543 0.74539 0.21387 0.0
H1083 H 0.99364 0.77622 0.24995 0.0
H1084 H 0.93492 0.66774 0.19207 0.0
H1085 H 0.02579 0.80076 0.13252 0.0
H1086 H 0.0535 0.78249 0.14992 0.0
H1087 H 0.02771 0.80583 0.16439 0.0
C1088 C 0.06579 0.76561 0.21902 0.0
C1089 C 0.0487 0.77668 0.23793 0.0
C1090 C 0.04315 0.74814 0.19818 0.0
C1091 C 1.00283 0.74102 0.1959 0.0
C1092 C 0.98541 0.7509 0.21504 0.0
H1093 H 0.79556 0.63392 0.10062 0.0
H1094 H 0.84523 0.66894 0.13233 0.0
C1095 C 0.00804 0.76865 0.23568 0.0
C1096 C 0.97816 0.72274 0.1739 0.0
H1097 H 0.96898 0.74297 0.11574 0.0
C1098 C 0.94252 0.68415 0.17537 0.0
C1099 C 0.98812 0.74389 0.15198 0.0
C1100 C 0.0257 0.78567 0.14944 0.0
C1101 C 0.9165 0.66633 0.15573 0.0
C1102 C 0.92547 0.68816 0.13403 0.0
C1103 C 0.96177 0.7263 0.13234 0.0
C1104 C 0.89678 0.67208 0.11331 0.0
C1105 C 0.87982 0.62389 0.15842 0.0
C1106 C 0.9095 0.66451 0.09131 0.0
C1107 C 0.88106 0.64502 0.07289 0.0
C1108 C 0.83945 0.63312 0.07608 0.0
C1109 C 0.82739 0.6428 0.09761 0.0
C1110 C 0.85574 0.66246 0.11586 0.0
H1111 H 0.8843 0.60665 0.17297 0.0
H1112 H 0.85242 0.62649 0.16283 0.0
H1113 H 0.87355 0.60589 0.14179 0.0
H1114 H 0.94101 0.67192 0.08874 0.0
H1115 H 0.89126 0.6375 0.05667 0.0
H1116 H 0.21883 0.04877 0.55832 0.0
H1117 H 0.20924 0.00807 0.52288 0.0
H1118 H 0.31658 1.00012 0.54042 0.0
H1119 H 0.32457 0.03817 0.57707 0.0
H1120 H 0.24844 0.01504 0.48417 0.0
H1121 H 0.23847 0.88179 0.53183 0.0
H1122 H 0.2399 0.92453 0.5472 0.0
H1123 H 0.28661 0.92763 0.53656 0.0
C1124 C 0.24014 0.03784 0.55503 0.0
C1125 C 0.27192 0.04616 0.57124 0.0
C1126 C 0.23484 0.01483 0.53441 0.0
C1127 C 0.26138 0.99969 0.52904 0.0
C1128 C 0.29465 0.01 0.54439 0.0
H1129 H 0.25972 0.88932 0.39022 0.0
H1130 H 0.27205 0.938 0.42235 0.0
C1131 C 0.29964 0.03254 0.56529 0.0
C1132 C 0.25348 0.97267 0.50767 0.0
H1133 H 0.24042 0.87969 0.49 0.0
C1134 C 0.24664 0.9854 0.48551 0.0
C1135 C 0.25023 0.93346 0.50921 0.0
C1136 C 0.25375 0.91582 0.5325 0.0
C1137 C 0.23683 0.96039 0.46511 0.0
C1138 C 0.23504 0.92186 0.46653 0.0
C1139 C 0.24195 0.90921 0.48866 0.0
C1140 C 0.22514 0.89349 0.44566 0.0
C1141 C 0.22704 0.97501 0.44247 0.0
C1142 C 0.19477 0.85192 0.4477 0.0
C1143 C 0.18825 0.82395 0.42946 0.0
C1144 C 0.21133 0.83678 0.40844 0.0
C1145 C 0.24068 0.87858 0.40591 0.0
C1146 C 0.24769 0.90655 0.42436 0.0
H1147 H 0.21707 0.99782 0.44603 0.0
H1148 H 0.25498 0.99013 0.43125 0.0
H1149 H 0.20253 0.94907 0.43234 0.0
H1150 H 0.17677 0.84076 0.46377 0.0
H1151 H 0.16581 0.79187 0.43205 0.0
loop_
_geom_bond_atom_site_label_1
_geom_bond_atom_site_label_2
_geom_bond_distance
_geom_bond_site_symmetry_2
_ccdc_geom_bond_type
Tb0 N31 2.660 . S
Tb0 N38 2.600 . S
Tb0 O44 2.546 . S
Tb0 O45 2.610 . S
Tb0 O47 2.320 . S
Tb0 O48 2.552 . S
Tb0 O49 2.413 . S
Tb0 O51 2.362 1_554 S
Tb0 O52 2.421 . S
Tb0 C64 2.833 . S
C1 C4 1.432 . S
C1 C5 1.414 . S
C1 N8 1.359 1_554 S
C2 C4 1.417 . S
C2 C6 1.432 . S
C2 C14 1.410 . S
C3 C5 1.444 . S
C3 C6 1.317 . S
C3 H26 0.929 . S
C4 C1 1.432 . S
C4 C2 1.417 . S
C4 N12 1.360 . S
C5 C1 1.414 . S
C5 C3 1.444 . S
C5 C10 1.385 1_554 S
C6 C2 1.432 . S
C6 C3 1.317 . S
C6 H18 0.930 . S
C7 C9 1.392 . S
C7 C10 1.370 . S
C7 H19 0.931 . S
N8 C1 1.359 1_556 S
N8 C9 1.327 . S
N8 Tb11 2.600 . S
C9 C7 1.392 . S
C9 N8 1.327 . S
C9 H16 0.930 . S
C10 C5 1.385 1_556 S
C10 C7 1.370 . S
C10 H29 0.930 . S
Tb11 N8 2.600 . S
Tb11 N12 2.660 1_556 S
Tb11 O45 2.362 1_556 S
Tb11 O46 2.421 . S
Tb11 O50 2.546 . S
Tb11 O51 2.610 . S
Tb11 O53 2.320 1_556 S
Tb11 O54 2.552 . S
Tb11 O55 2.413 . S
Tb11 C75 2.833 . S
N12 C4 1.360 . S
N12 Tb11 2.660 1_554 S
N12 C13 1.305 . S
C13 N12 1.305 . S
C13 C15 1.407 . S
C13 H20 0.930 . S
C14 C2 1.410 . S
C14 C15 1.345 . S
C14 H22 0.930 . S
C15 C13 1.407 . S
C15 C14 1.345 . S
C15 H17 0.930 . S
H16 C9 0.930 . S
H17 C15 0.930 . S
H18 C6 0.930 . S
H19 C7 0.931 . S
H20 C13 0.930 . S
H21 C35 0.930 . S
H22 C14 0.930 . S
H23 C41 0.930 . S
H24 C32 0.930 . S
H25 C39 0.931 . S
H26 C3 0.929 . S
H27 C33 0.930 . S
H28 C66 0.930 . S
H29 C10 0.930 . S
H30 C65 0.929 . S
N31 Tb0 2.660 . S
N31 C32 1.305 1_554 S
N31 C36 1.361 . S
C32 H24 0.930 . S
C32 N31 1.305 1_556 S
C32 C35 1.407 . S
C33 H27 0.930 . S
C33 C34 1.410 . S
C33 C35 1.345 . S
C34 C33 1.410 . S
C34 C36 1.400 1_556 S
C34 C66 1.432 . S
C35 H21 0.930 . S
C35 C32 1.407 . S
C35 C33 1.345 . S
C36 N31 1.361 . S
C36 C34 1.400 1_554 S
C36 C40 1.448 . S
H37 C42 0.930 . S
N38 Tb0 2.600 . S
N38 C40 1.359 . S
N38 C41 1.327 . S
C39 H25 0.931 . S
C39 C41 1.392 . S
C39 C42 1.370 . S
C40 C36 1.448 . S
C40 N38 1.359 . S
C40 C43 1.414 . S
C41 H23 0.930 . S
C41 N38 1.327 . S
C41 C39 1.392 . S
C42 H37 0.930 . S
C42 C39 1.370 . S
C42 C43 1.385 . S
C43 C40 1.414 . S
C43 C42 1.385 . S
C43 C65 1.459 . S
O44 Tb0 2.546 . S
O44 C64 1.251 . S
O45 Tb0 2.610 . S
O45 Tb11 2.362 1_554 S
O45 C56 1.283 . S
O46 Tb11 2.421 . S
O46 C63 1.262 1_556 S
O47 Tb0 2.320 . S
O47 C63 1.260 . S
O48 Tb0 2.552 . S
O48 C56 1.243 . S
O49 Tb0 2.413 . S
O49 C64 1.256 . S
O50 Tb11 2.546 . S
O50 C75 1.251 . S
O51 Tb0 2.362 1_556 S
O51 Tb11 2.610 . S
O51 C67 1.283 . S
O52 Tb0 2.421 . S
O52 C74 1.262 . S
O53 Tb11 2.320 1_554 S
O53 C74 1.260 . S
O54 Tb11 2.552 . S
O54 C67 1.243 . S
O55 Tb11 2.413 . S
O55 C75 1.256 . S
C56 O45 1.283 . S
C56 O48 1.243 . S
C57 C59 1.382 . S
C57 C61 1.393 . S
C57 C64 1.500 . S
C58 C59 1.400 . S
C58 C60 1.384 . S
C59 C57 1.382 . S
C59 C58 1.400 . S
C59 H76 0.930 . S
C60 C58 1.384 . S
C60 C62 1.392 . S
C60 H77 0.931 . S
C61 C57 1.393 . S
C61 C62 1.401 . S
C61 H78 0.930 . S
C62 C60 1.392 . S
C62 C61 1.401 . S
C62 H79 0.930 . S
C63 O46 1.262 1_554 S
C63 O47 1.260 . S
C64 Tb0 2.833 . S
C64 O44 1.251 . S
C64 O49 1.256 . S
C64 C57 1.500 . S
C65 H30 0.929 . S
C65 C43 1.459 . S
C65 C66 1.302 1_554 S
C66 H28 0.930 . S
C66 C34 1.432 . S
C66 C65 1.302 1_556 S
C67 O51 1.283 . S
C67 O54 1.243 . S
C68 C69 1.382 . S
C68 C72 1.393 . S
C68 C75 1.500 . S
C69 C68 1.382 . S
C69 C70 1.400 . S
C69 H80 0.930 . S
C70 C69 1.400 . S
C70 C71 1.384 . S
C71 C70 1.384 . S
C71 C73 1.392 . S
C71 H81 0.931 . S
C72 C68 1.393 . S
C72 C73 1.401 . S
C72 H82 0.930 . S
C73 C71 1.392 . S
C73 C72 1.401 . S
C73 H83 0.930 . S
C74 O52 1.262 . S
C74 O53 1.260 . S
C75 Tb11 2.833 . S
C75 O50 1.251 . S
C75 O55 1.256 . S
C75 C68 1.500 . S
H76 C59 0.930 . S
H77 C60 0.931 . S
H78 C61 0.930 . S
H79 C62 0.930 . S
H80 C69 0.930 . S
H81 C71 0.931 . S
H82 C72 0.930 . S
H83 C73 0.930 . S
Tb84 N115 2.660 . S
Tb84 N122 2.600 . S
Tb84 O128 2.546 . S
Tb84 O129 2.610 . S
Tb84 O131 2.320 . S
Tb84 O132 2.552 . S
Tb84 O133 2.413 . S
Tb84 O135 2.362 . S
Tb84 O136 2.421 . S
Tb84 C148 2.833 . S
C85 C88 1.432 . S
C85 C89 1.414 . S
C85 N92 1.359 . S
C86 C88 1.417 . S
C86 C90 1.432 . S
C86 C98 1.410 . S
C87 C89 1.444 . S
C87 C90 1.317 . S
C87 H110 0.929 . S
C88 C85 1.432 . S
C88 C86 1.417 . S
C88 N96 1.360 . S
C89 C85 1.414 . S
C89 C87 1.444 . S
C89 C94 1.385 . S
C90 C86 1.432 . S
C90 C87 1.317 . S
C90 H102 0.930 . S
C91 C93 1.392 . S
C91 C94 1.370 . S
C91 H103 0.931 . S
N92 C85 1.359 . S
N92 C93 1.327 . S
N92 Tb95 2.600 . S
C93 C91 1.392 . S
C93 N92 1.327 . S
C93 H100 0.930 . S
C94 C89 1.385 . S
C94 C91 1.370 . S
C94 H113 0.930 . S
Tb95 N92 2.600 . S
Tb95 N96 2.660 . S
Tb95 O129 2.362 . S
Tb95 O130 2.421 . S
Tb95 O134 2.546 . S
Tb95 O135 2.610 . S
Tb95 O137 2.320 . S
Tb95 O138 2.552 . S
Tb95 O139 2.413 . S
Tb95 C159 2.833 . S
N96 C88 1.360 . S
N96 Tb95 2.660 . S
N96 C97 1.305 . S
C97 N96 1.305 . S
C97 C99 1.407 . S
C97 H104 0.930 . S
C98 C86 1.410 . S
C98 C99 1.345 . S
C98 H106 0.930 . S
C99 C97 1.407 . S
C99 C98 1.345 . S
C99 H101 0.930 . S
H100 C93 0.930 . S
H101 C99 0.930 . S
H102 C90 0.930 . S
H103 C91 0.931 . S
H104 C97 0.930 . S
H105 C119 0.930 . S
H106 C98 0.930 . S
H107 C125 0.930 . S
H108 C116 0.930 . S
H109 C123 0.931 . S
H110 C87 0.929 . S
H111 C117 0.930 . S
H112 C150 0.930 . S
H113 C94 0.930 . S
H114 C149 0.929 . S
N115 Tb84 2.660 . S
N115 C116 1.305 . S
N115 C120 1.360 . S
C116 H108 0.930 . S
C116 N115 1.305 . S
C116 C119 1.407 . S
C117 H111 0.930 . S
C117 C118 1.410 . S
C117 C119 1.345 . S
C118 C117 1.410 . S
C118 C120 1.417 . S
C118 C150 1.432 . S
C119 H105 0.930 . S
C119 C116 1.407 . S
C119 C117 1.345 . S
C120 N115 1.360 . S
C120 C118 1.417 . S
C120 C124 1.432 . S
H121 C126 0.930 . S
N122 Tb84 2.600 . S
N122 C124 1.359 . S
N122 C125 1.327 . S
C123 H109 0.931 . S
C123 C125 1.392 . S
C123 C126 1.370 . S
C124 C120 1.432 . S
C124 N122 1.359 . S
C124 C127 1.414 . S
C125 H107 0.930 . S
C125 N122 1.327 . S
C125 C123 1.392 . S
C126 H121 0.930 . S
C126 C123 1.370 . S
C126 C127 1.385 . S
C127 C124 1.414 . S
C127 C126 1.385 . S
C127 C149 1.444 . S
O128 Tb84 2.546 . S
O128 C148 1.251 . S
O129 Tb84 2.610 . S
O129 Tb95 2.362 . S
O129 C140 1.283 . S
O130 Tb95 2.421 . S
O130 C147 1.262 . S
O131 Tb84 2.320 . S
O131 C147 1.260 . S
O132 Tb84 2.552 . S
O132 C140 1.243 . S
O133 Tb84 2.413 . S
O133 C148 1.256 . S
O134 Tb95 2.546 . S
O134 C159 1.251 . S
O135 Tb84 2.362 . S
O135 Tb95 2.610 . S
O135 C151 1.283 . S
O136 Tb84 2.421 . S
O136 C158 1.262 . S
O137 Tb95 2.320 . S
O137 C158 1.260 . S
O138 Tb95 2.552 . S
O138 C151 1.243 . S
O139 Tb95 2.413 . S
O139 C159 1.256 . S
C140 O129 1.283 . S
C140 O132 1.243 . S
C141 C143 1.382 . S
C141 C145 1.393 . S
C141 C148 1.500 . S
C142 C143 1.400 . S
C142 C144 1.384 . S
C143 C141 1.382 . S
C143 C142 1.400 . S
C143 H160 0.930 . S
C144 C142 1.384 . S
C144 C146 1.392 . S
C144 H161 0.931 . S
C145 C141 1.393 . S
C145 C146 1.401 . S
C145 H162 0.930 . S
C146 C144 1.392 . S
C146 C145 1.401 . S
C146 H163 0.930 . S
C147 O130 1.262 . S
C147 O131 1.260 . S
C148 Tb84 2.833 . S
C148 O128 1.251 . S
C148 O133 1.256 . S
C148 C141 1.500 . S
C149 H114 0.929 . S
C149 C127 1.444 . S
C149 C150 1.317 . S
C150 H112 0.930 . S
C150 C118 1.432 . S
C150 C149 1.317 . S
C151 O135 1.283 . S
C151 O138 1.243 . S
C152 C153 1.382 . S
C152 C156 1.393 . S
C152 C159 1.500 . S
C153 C152 1.382 . S
C153 C154 1.400 . S
C153 H164 0.930 . S
C154 C153 1.400 . S
C154 C155 1.384 . S
C155 C154 1.384 . S
C155 C157 1.392 . S
C155 H165 0.931 . S
C156 C152 1.393 . S
C156 C157 1.401 . S
C156 H166 0.930 . S
C157 C155 1.392 . S
C157 C156 1.401 . S
C157 H167 0.930 . S
C158 O136 1.262 . S
C158 O137 1.260 . S
C159 Tb95 2.833 . S
C159 O134 1.251 . S
C159 O139 1.256 . S
C159 C152 1.500 . S
H160 C143 0.930 . S
H161 C144 0.931 . S
H162 C145 0.930 . S
H163 C146 0.930 . S
H164 C153 0.930 . S
H165 C155 0.931 . S
H166 C156 0.930 . S
H167 C157 0.930 . S
Tb168 N199 2.660 . S
Tb168 N206 2.600 . S
Tb168 O212 2.546 . S
Tb168 O213 2.610 . S
Tb168 O215 2.320 . S
Tb168 O216 2.552 . S
Tb168 O217 2.413 . S
Tb168 O219 2.362 . S
Tb168 O220 2.421 . S
Tb168 C232 2.833 . S
C169 C172 1.432 . S
C169 C173 1.414 . S
C169 N176 1.359 . S
C170 C172 1.417 . S
C170 C174 1.432 . S
C170 C182 1.410 . S
C171 C173 1.444 . S
C171 C174 1.317 . S
C171 H194 0.929 . S
C172 C169 1.432 . S
C172 C170 1.417 . S
C172 N180 1.360 . S
C173 C169 1.414 . S
C173 C171 1.444 . S
C173 C178 1.385 . S
C174 C170 1.432 . S
C174 C171 1.317 . S
C174 H186 0.930 . S
C175 C177 1.392 . S
C175 C178 1.370 . S
C175 H187 0.931 . S
N176 C169 1.359 . S
N176 C177 1.327 . S
N176 Tb179 2.600 . S
C177 C175 1.392 . S
C177 N176 1.327 . S
C177 H184 0.930 . S
C178 C173 1.385 . S
C178 C175 1.370 . S
C178 H197 0.930 . S
Tb179 N176 2.600 . S
Tb179 N180 2.660 . S
Tb179 O213 2.362 . S
Tb179 O214 2.421 . S
Tb179 O218 2.546 . S
Tb179 O219 2.610 . S
Tb179 O221 2.320 . S
Tb179 O222 2.552 . S
Tb179 O223 2.413 . S
Tb179 C243 2.833 . S
N180 C172 1.360 . S
N180 Tb179 2.660 . S
N180 C181 1.305 . S
C181 N180 1.305 . S
C181 C183 1.407 . S
C181 H188 0.930 . S
C182 C170 1.410 . S
C182 C183 1.345 . S
C182 H190 0.930 . S
C183 C181 1.407 . S
C183 C182 1.345 . S
C183 H185 0.930 . S
H184 C177 0.930 . S
H185 C183 0.930 . S
H186 C174 0.930 . S
H187 C175 0.931 . S
H188 C181 0.930 . S
H189 C203 0.930 . S
H190 C182 0.930 . S
H191 C209 0.930 . S
H192 C200 0.930 . S
H193 C207 0.931 . S
H194 C171 0.929 . S
H195 C201 0.930 . S
H196 C234 0.930 . S
H197 C178 0.930 . S
H198 C233 0.929 . S
N199 Tb168 2.660 . S
N199 C200 1.305 . S
N199 C204 1.360 . S
C200 H192 0.930 . S
C200 N199 1.305 . S
C200 C203 1.407 . S
C201 H195 0.930 . S
C201 C202 1.410 . S
C201 C203 1.345 . S
C202 C201 1.410 . S
C202 C204 1.417 . S
C202 C234 1.432 . S
C203 H189 0.930 . S
C203 C200 1.407 . S
C203 C201 1.345 . S
C204 N199 1.360 . S
C204 C202 1.417 . S
C204 C208 1.432 . S
H205 C210 0.930 . S
N206 Tb168 2.600 . S
N206 C208 1.359 . S
N206 C209 1.327 . S
C207 H193 0.931 . S
C207 C209 1.392 . S
C207 C210 1.370 . S
C208 C204 1.432 . S
C208 N206 1.359 . S
C208 C211 1.414 . S
C209 H191 0.930 . S
C209 N206 1.327 . S
C209 C207 1.392 . S
C210 H205 0.930 . S
C210 C207 1.370 . S
C210 C211 1.385 . S
C211 C208 1.414 . S
C211 C210 1.385 . S
C211 C233 1.444 . S
O212 Tb168 2.546 . S
O212 C232 1.251 . S
O213 Tb168 2.610 . S
O213 Tb179 2.362 . S
O213 C224 1.283 . S
O214 Tb179 2.421 . S
O214 C231 1.262 . S
O215 Tb168 2.320 . S
O215 C231 1.260 . S
O216 Tb168 2.552 . S
O216 C224 1.243 . S
O217 Tb168 2.413 . S
O217 C232 1.256 . S
O218 Tb179 2.546 . S
O218 C243 1.251 . S
O219 Tb168 2.362 . S
O219 Tb179 2.610 . S
O219 C235 1.283 . S
O220 Tb168 2.421 . S
O220 C242 1.262 . S
O221 Tb179 2.320 . S
O221 C242 1.260 . S
O222 Tb179 2.552 . S
O222 C235 1.243 . S
O223 Tb179 2.413 . S
O223 C243 1.256 . S
C224 O213 1.283 . S
C224 O216 1.243 . S
C225 C227 1.382 . S
C225 C229 1.393 . S
C225 C232 1.500 . S
C226 C227 1.400 . S
C226 C228 1.384 . S
C227 C225 1.382 . S
C227 C226 1.400 . S
C227 H244 0.930 . S
C228 C226 1.384 . S
C228 C230 1.392 . S
C228 H245 0.931 . S
C229 C225 1.393 . S
C229 C230 1.401 . S
C229 H246 0.930 . S
C230 C228 1.392 . S
C230 C229 1.401 . S
C230 H247 0.930 . S
C231 O214 1.262 . S
C231 O215 1.260 . S
C232 Tb168 2.833 . S
C232 O212 1.251 . S
C232 O217 1.256 . S
C232 C225 1.500 . S
C233 H198 0.929 . S
C233 C211 1.444 . S
C233 C234 1.317 . S
C234 H196 0.930 . S
C234 C202 1.432 . S
C234 C233 1.317 . S
C235 O219 1.283 . S
C235 O222 1.243 . S
C236 C237 1.382 . S
C236 C240 1.393 . S
C236 C243 1.500 . S
C237 C236 1.382 . S
C237 C238 1.400 . S
C237 H248 0.930 . S
C238 C237 1.400 . S
C238 C239 1.384 . S
C239 C238 1.384 . S
C239 C241 1.392 . S
C239 H249 0.931 . S
C240 C236 1.393 . S
C240 C241 1.401 . S
C240 H250 0.930 . S
C241 C239 1.392 . S
C241 C240 1.401 . S
C241 H251 0.930 . S
C242 O220 1.262 . S
C242 O221 1.260 . S
C243 Tb179 2.833 . S
C243 O218 1.251 . S
C243 O223 1.256 . S
C243 C236 1.500 . S
H244 C227 0.930 . S
H245 C228 0.931 . S
H246 C229 0.930 . S
H247 C230 0.930 . S
H248 C237 0.930 . S
H249 C239 0.931 . S
H250 C240 0.930 . S
H251 C241 0.930 . S
Tb252 N283 2.660 . S
Tb252 N290 2.600 . S
Tb252 O296 2.546 . S
Tb252 O297 2.610 . S
Tb252 O299 2.320 . S
Tb252 O300 2.552 . S
Tb252 O301 2.413 . S
Tb252 O303 2.362 1_554 S
Tb252 O304 2.421 . S
Tb252 C316 2.833 . S
C253 C256 1.432 . S
C253 C257 1.414 . S
C253 N260 1.359 1_554 S
C254 C256 1.417 . S
C254 C258 1.432 . S
C254 C266 1.410 . S
C255 C257 1.444 . S
C255 C258 1.317 . S
C255 H278 0.929 . S
C256 C253 1.432 . S
C256 C254 1.417 . S
C256 N264 1.360 . S
C257 C253 1.414 . S
C257 C255 1.444 . S
C257 C262 1.385 1_554 S
C258 C254 1.432 . S
C258 C255 1.317 . S
C258 H270 0.930 . S
C259 C261 1.392 . S
C259 C262 1.370 . S
C259 H271 0.931 . S
N260 C253 1.359 1_556 S
N260 C261 1.327 . S
N260 Tb263 2.600 . S
C261 C259 1.392 . S
C261 N260 1.327 . S
C261 H268 0.930 . S
C262 C257 1.385 1_556 S
C262 C259 1.370 . S
C262 H281 0.930 . S
Tb263 N260 2.600 . S
Tb263 N264 2.660 1_556 S
Tb263 O297 2.362 1_556 S
Tb263 O298 2.421 . S
Tb263 O302 2.546 . S
Tb263 O303 2.610 . S
Tb263 O305 2.320 1_556 S
Tb263 O306 2.552 . S
Tb263 O307 2.413 . S
Tb263 C327 2.833 . S
N264 C256 1.360 . S
N264 Tb263 2.660 1_554 S
N264 C265 1.305 . S
C265 N264 1.305 . S
C265 C267 1.407 . S
C265 H272 0.930 . S
C266 C254 1.410 . S
C266 C267 1.345 . S
C266 H274 0.930 . S
C267 C265 1.407 . S
C267 C266 1.345 . S
C267 H269 0.930 . S
H268 C261 0.930 . S
H269 C267 0.930 . S
H270 C258 0.930 . S
H271 C259 0.931 . S
H272 C265 0.930 . S
H273 C287 0.930 . S
H274 C266 0.930 . S
H275 C293 0.930 . S
H276 C284 0.930 . S
H277 C291 0.931 . S
H278 C255 0.929 . S
H279 C285 0.930 . S
H280 C318 0.930 . S
H281 C262 0.930 . S
H282 C317 0.929 . S
N283 Tb252 2.660 . S
N283 C284 1.305 1_554 S
N283 C288 1.361 . S
C284 H276 0.930 . S
C284 N283 1.305 1_556 S
C284 C287 1.407 . S
C285 H279 0.930 . S
C285 C286 1.410 . S
C285 C287 1.345 . S
C286 C285 1.410 . S
C286 C288 1.400 1_556 S
C286 C318 1.432 . S
C287 H273 0.930 . S
C287 C284 1.407 . S
C287 C285 1.345 . S
C288 N283 1.361 . S
C288 C286 1.400 1_554 S
C288 C292 1.448 . S
H289 C294 0.930 . S
N290 Tb252 2.600 . S
N290 C292 1.359 . S
N290 C293 1.327 . S
C291 H277 0.931 . S
C291 C293 1.392 . S
C291 C294 1.370 . S
C292 C288 1.448 . S
C292 N290 1.359 . S
C292 C295 1.414 . S
C293 H275 0.930 . S
C293 N290 1.327 . S
C293 C291 1.392 . S
C294 H289 0.930 . S
C294 C291 1.370 . S
C294 C295 1.385 . S
C295 C292 1.414 . S
C295 C294 1.385 . S
C295 C317 1.459 . S
O296 Tb252 2.546 . S
O296 C316 1.251 . S
O297 Tb252 2.610 . S
O297 Tb263 2.362 1_554 S
O297 C308 1.283 . S
O298 Tb263 2.421 . S
O298 C315 1.262 1_556 S
O299 Tb252 2.320 . S
O299 C315 1.260 . S
O300 Tb252 2.552 . S
O300 C308 1.243 . S
O301 Tb252 2.413 . S
O301 C316 1.256 . S
O302 Tb263 2.546 . S
O302 C327 1.251 . S
O303 Tb252 2.362 1_556 S
O303 Tb263 2.610 . S
O303 C319 1.283 . S
O304 Tb252 2.421 . S
O304 C326 1.262 . S
O305 Tb263 2.320 1_554 S
O305 C326 1.260 . S
O306 Tb263 2.552 . S
O306 C319 1.243 . S
O307 Tb263 2.413 . S
O307 C327 1.256 . S
C308 O297 1.283 . S
C308 O300 1.243 . S
C309 C311 1.382 . S
C309 C313 1.393 . S
C309 C316 1.500 . S
C310 C311 1.400 . S
C310 C312 1.384 . S
C311 C309 1.382 . S
C311 C310 1.400 . S
C311 H328 0.930 . S
C312 C310 1.384 . S
C312 C314 1.392 . S
C312 H329 0.931 . S
C313 C309 1.393 . S
C313 C314 1.401 . S
C313 H330 0.930 . S
C314 C312 1.392 . S
C314 C313 1.401 . S
C314 H331 0.930 . S
C315 O298 1.262 1_554 S
C315 O299 1.260 . S
C316 Tb252 2.833 . S
C316 O296 1.251 . S
C316 O301 1.256 . S
C316 C309 1.500 . S
C317 H282 0.929 . S
C317 C295 1.459 . S
C317 C318 1.302 1_554 S
C318 H280 0.930 . S
C318 C286 1.432 . S
C318 C317 1.302 1_556 S
C319 O303 1.283 . S
C319 O306 1.243 . S
C320 C321 1.382 . S
C320 C324 1.393 . S
C320 C327 1.500 . S
C321 C320 1.382 . S
C321 C322 1.400 . S
C321 H332 0.930 . S
C322 C321 1.400 . S
C322 C323 1.384 . S
C323 C322 1.384 . S
C323 C325 1.392 . S
C323 H333 0.931 . S
C324 C320 1.393 . S
C324 C325 1.401 . S
C324 H334 0.930 . S
C325 C323 1.392 . S
C325 C324 1.401 . S
C325 H335 0.930 . S
C326 O304 1.262 . S
C326 O305 1.260 . S
C327 Tb263 2.833 . S
C327 O302 1.251 . S
C327 O307 1.256 . S
C327 C320 1.500 . S
H328 C311 0.930 . S
H329 C312 0.931 . S
H330 C313 0.930 . S
H331 C314 0.930 . S
H332 C321 0.930 . S
H333 C323 0.931 . S
H334 C324 0.930 . S
H335 C325 0.930 . S
Tb336 N367 2.660 . S
Tb336 N374 2.600 . S
Tb336 O380 2.546 . S
Tb336 O381 2.610 . S
Tb336 O383 2.320 . S
Tb336 O384 2.552 . S
Tb336 O385 2.413 . S
Tb336 O387 2.362 . S
Tb336 O388 2.421 . S
Tb336 C400 2.833 . S
C337 C340 1.432 . S
C337 C341 1.414 . S
C337 N344 1.359 . S
C338 C340 1.417 . S
C338 C342 1.432 . S
C338 C350 1.410 . S
C339 C341 1.444 . S
C339 C342 1.317 . S
C339 H362 0.929 . S
C340 C337 1.432 . S
C340 C338 1.417 . S
C340 N348 1.360 . S
C341 C337 1.414 . S
C341 C339 1.444 . S
C341 C346 1.385 . S
C342 C338 1.432 . S
C342 C339 1.317 . S
C342 H354 0.930 . S
C343 C345 1.392 . S
C343 C346 1.370 . S
C343 H355 0.931 . S
N344 C337 1.359 . S
N344 C345 1.327 . S
N344 Tb347 2.600 . S
C345 C343 1.392 . S
C345 N344 1.327 . S
C345 H352 0.930 . S
C346 C341 1.385 . S
C346 C343 1.370 . S
C346 H365 0.930 . S
Tb347 N344 2.600 . S
Tb347 N348 2.660 . S
Tb347 O381 2.362 . S
Tb347 O382 2.421 . S
Tb347 O386 2.546 . S
Tb347 O387 2.610 . S
Tb347 O389 2.320 . S
Tb347 O390 2.552 . S
Tb347 O391 2.413 . S
Tb347 C411 2.833 . S
N348 C340 1.360 . S
N348 Tb347 2.660 . S
N348 C349 1.305 . S
C349 N348 1.305 . S
C349 C351 1.407 . S
C349 H356 0.930 . S
C350 C338 1.410 . S
C350 C351 1.345 . S
C350 H358 0.930 . S
C351 C349 1.407 . S
C351 C350 1.345 . S
C351 H353 0.930 . S
H352 C345 0.930 . S
H353 C351 0.930 . S
H354 C342 0.930 . S
H355 C343 0.931 . S
H356 C349 0.930 . S
H357 C371 0.930 . S
H358 C350 0.930 . S
H359 C377 0.930 . S
H360 C368 0.930 . S
H361 C375 0.931 . S
H362 C339 0.929 . S
H363 C369 0.930 . S
H364 C402 0.930 . S
H365 C346 0.930 . S
H366 C401 0.929 . S
N367 Tb336 2.660 . S
N367 C368 1.305 . S
N367 C372 1.360 . S
C368 H360 0.930 . S
C368 N367 1.305 . S
C368 C371 1.407 . S
C369 H363 0.930 . S
C369 C370 1.410 . S
C369 C371 1.345 . S
C370 C369 1.410 . S
C370 C372 1.417 . S
C370 C402 1.432 . S
C371 H357 0.930 . S
C371 C368 1.407 . S
C371 C369 1.345 . S
C372 N367 1.360 . S
C372 C370 1.417 . S
C372 C376 1.432 . S
H373 C378 0.930 . S
N374 Tb336 2.600 . S
N374 C376 1.359 . S
N374 C377 1.327 . S
C375 H361 0.931 . S
C375 C377 1.392 . S
C375 C378 1.370 . S
C376 C372 1.432 . S
C376 N374 1.359 . S
C376 C379 1.414 . S
C377 H359 0.930 . S
C377 N374 1.327 . S
C377 C375 1.392 . S
C378 H373 0.930 . S
C378 C375 1.370 . S
C378 C379 1.385 . S
C379 C376 1.414 . S
C379 C378 1.385 . S
C379 C401 1.444 . S
O380 Tb336 2.546 . S
O380 C400 1.251 . S
O381 Tb336 2.610 . S
O381 Tb347 2.362 . S
O381 C392 1.283 . S
O382 Tb347 2.421 . S
O382 C399 1.262 . S
O383 Tb336 2.320 . S
O383 C399 1.260 . S
O384 Tb336 2.552 . S
O384 C392 1.243 . S
O385 Tb336 2.413 . S
O385 C400 1.256 . S
O386 Tb347 2.546 . S
O386 C411 1.251 . S
O387 Tb336 2.362 . S
O387 Tb347 2.610 . S
O387 C403 1.283 . S
O388 Tb336 2.421 . S
O388 C410 1.262 . S
O389 Tb347 2.320 . S
O389 C410 1.260 . S
O390 Tb347 2.552 . S
O390 C403 1.243 . S
O391 Tb347 2.413 . S
O391 C411 1.256 . S
C392 O381 1.283 . S
C392 O384 1.243 . S
C393 C395 1.382 . S
C393 C397 1.393 . S
C393 C400 1.500 . S
C394 C395 1.400 . S
C394 C396 1.384 . S
C395 C393 1.382 . S
C395 C394 1.400 . S
C395 H412 0.930 . S
C396 C394 1.384 . S
C396 C398 1.392 . S
C396 H413 0.931 . S
C397 C393 1.393 . S
C397 C398 1.401 . S
C397 H414 0.930 . S
C398 C396 1.392 . S
C398 C397 1.401 . S
C398 H415 0.930 . S
C399 O382 1.262 . S
C399 O383 1.260 . S
C400 Tb336 2.833 . S
C400 O380 1.251 . S
C400 O385 1.256 . S
C400 C393 1.500 . S
C401 H366 0.929 . S
C401 C379 1.444 . S
C401 C402 1.317 . S
C402 H364 0.930 . S
C402 C370 1.432 . S
C402 C401 1.317 . S
C403 O387 1.283 . S
C403 O390 1.243 . S
C404 C405 1.382 . S
C404 C408 1.393 . S
C404 C411 1.500 . S
C405 C404 1.382 . S
C405 C406 1.400 . S
C405 H416 0.930 . S
C406 C405 1.400 . S
C406 C407 1.384 . S
C407 C406 1.384 . S
C407 C409 1.392 . S
C407 H417 0.931 . S
C408 C404 1.393 . S
C408 C409 1.401 . S
C408 H418 0.930 . S
C409 C407 1.392 . S
C409 C408 1.401 . S
C409 H419 0.930 . S
C410 O388 1.262 . S
C410 O389 1.260 . S
C411 Tb347 2.833 . S
C411 O386 1.251 . S
C411 O391 1.256 . S
C411 C404 1.500 . S
H412 C395 0.930 . S
H413 C396 0.931 . S
H414 C397 0.930 . S
H415 C398 0.930 . S
H416 C405 0.930 . S
H417 C407 0.931 . S
H418 C408 0.930 . S
H419 C409 0.930 . S
Tb420 N451 2.660 . S
Tb420 N458 2.600 . S
Tb420 O464 2.546 . S
Tb420 O465 2.610 . S
Tb420 O467 2.320 . S
Tb420 O468 2.552 . S
Tb420 O469 2.413 . S
Tb420 O471 2.362 . S
Tb420 O472 2.421 . S
Tb420 C484 2.833 . S
C421 C424 1.432 . S
C421 C425 1.414 . S
C421 N428 1.359 . S
C422 C424 1.417 . S
C422 C426 1.432 . S
C422 C434 1.410 . S
C423 C425 1.444 . S
C423 C426 1.317 . S
C423 H446 0.929 . S
C424 C421 1.432 . S
C424 C422 1.417 . S
C424 N432 1.360 . S
C425 C421 1.414 . S
C425 C423 1.444 . S
C425 C430 1.385 . S
C426 C422 1.432 . S
C426 C423 1.317 . S
C426 H438 0.930 . S
C427 C429 1.392 . S
C427 C430 1.370 . S
C427 H439 0.931 . S
N428 C421 1.359 . S
N428 C429 1.327 . S
N428 Tb431 2.600 . S
C429 C427 1.392 . S
C429 N428 1.327 . S
C429 H436 0.930 . S
C430 C425 1.385 . S
C430 C427 1.370 . S
C430 H449 0.930 . S
Tb431 N428 2.600 . S
Tb431 N432 2.660 . S
Tb431 O465 2.362 . S
Tb431 O466 2.421 . S
Tb431 O470 2.546 . S
Tb431 O471 2.610 . S
Tb431 O473 2.320 . S
Tb431 O474 2.552 . S
Tb431 O475 2.413 . S
Tb431 C495 2.833 . S
N432 C424 1.360 . S
N432 Tb431 2.660 . S
N432 C433 1.305 . S
C433 N432 1.305 . S
C433 C435 1.407 . S
C433 H440 0.930 . S
C434 C422 1.410 . S
C434 C435 1.345 . S
C434 H442 0.930 . S
C435 C433 1.407 . S
C435 C434 1.345 . S
C435 H437 0.930 . S
H436 C429 0.930 . S
H437 C435 0.930 . S
H438 C426 0.930 . S
H439 C427 0.931 . S
H440 C433 0.930 . S
H441 C455 0.930 . S
H442 C434 0.930 . S
H443 C461 0.930 . S
H444 C452 0.930 . S
H445 C459 0.931 . S
H446 C423 0.929 . S
H447 C453 0.930 . S
H448 C486 0.930 . S
H449 C430 0.930 . S
H450 C485 0.929 . S
N451 Tb420 2.660 . S
N451 C452 1.305 . S
N451 C456 1.360 . S
C452 H444 0.930 . S
C452 N451 1.305 . S
C452 C455 1.407 . S
C453 H447 0.930 . S
C453 C454 1.410 . S
C453 C455 1.345 . S
C454 C453 1.410 . S
C454 C456 1.417 . S
C454 C486 1.432 . S
C455 H441 0.930 . S
C455 C452 1.407 . S
C455 C453 1.345 . S
C456 N451 1.360 . S
C456 C454 1.417 . S
C456 C460 1.432 . S
H457 C462 0.930 . S
N458 Tb420 2.600 . S
N458 C460 1.359 . S
N458 C461 1.327 . S
C459 H445 0.931 . S
C459 C461 1.392 . S
C459 C462 1.370 . S
C460 C456 1.432 . S
C460 N458 1.359 . S
C460 C463 1.414 . S
C461 H443 0.930 . S
C461 N458 1.327 . S
C461 C459 1.392 . S
C462 H457 0.930 . S
C462 C459 1.370 . S
C462 C463 1.385 . S
C463 C460 1.414 . S
C463 C462 1.385 . S
C463 C485 1.444 . S
O464 Tb420 2.546 . S
O464 C484 1.251 . S
O465 Tb420 2.610 . S
O465 Tb431 2.362 . S
O465 C476 1.283 . S
O466 Tb431 2.421 . S
O466 C483 1.262 . S
O467 Tb420 2.320 . S
O467 C483 1.260 . S
O468 Tb420 2.552 . S
O468 C476 1.243 . S
O469 Tb420 2.413 . S
O469 C484 1.256 . S
O470 Tb431 2.546 . S
O470 C495 1.251 . S
O471 Tb420 2.362 . S
O471 Tb431 2.610 . S
O471 C487 1.283 . S
O472 Tb420 2.421 . S
O472 C494 1.262 . S
O473 Tb431 2.320 . S
O473 C494 1.260 . S
O474 Tb431 2.552 . S
O474 C487 1.243 . S
O475 Tb431 2.413 . S
O475 C495 1.256 . S
C476 O465 1.283 . S
C476 O468 1.243 . S
C477 C479 1.382 . S
C477 C481 1.393 . S
C477 C484 1.500 . S
C478 C479 1.400 . S
C478 C480 1.384 . S
C479 C477 1.382 . S
C479 C478 1.400 . S
C479 H496 0.930 . S
C480 C478 1.384 . S
C480 C482 1.392 . S
C480 H497 0.931 . S
C481 C477 1.393 . S
C481 C482 1.401 . S
C481 H498 0.930 . S
C482 C480 1.392 . S
C482 C481 1.401 . S
C482 H499 0.930 . S
C483 O466 1.262 . S
C483 O467 1.260 . S
C484 Tb420 2.833 . S
C484 O464 1.251 . S
C484 O469 1.256 . S
C484 C477 1.500 . S
C485 H450 0.929 . S
C485 C463 1.444 . S
C485 C486 1.317 . S
C486 H448 0.930 . S
C486 C454 1.432 . S
C486 C485 1.317 . S
C487 O471 1.283 . S
C487 O474 1.243 . S
C488 C489 1.382 . S
C488 C492 1.393 . S
C488 C495 1.500 . S
C489 C488 1.382 . S
C489 C490 1.400 . S
C489 H500 0.930 . S
C490 C489 1.400 . S
C490 C491 1.384 . S
C491 C490 1.384 . S
C491 C493 1.392 . S
C491 H501 0.931 . S
C492 C488 1.393 . S
C492 C493 1.401 . S
C492 H502 0.930 . S
C493 C491 1.392 . S
C493 C492 1.401 . S
C493 H503 0.930 . S
C494 O472 1.262 . S
C494 O473 1.260 . S
C495 Tb431 2.833 . S
C495 O470 1.251 . S
C495 O475 1.256 . S
C495 C488 1.500 . S
H496 C479 0.930 . S
H497 C480 0.931 . S
H498 C481 0.930 . S
H499 C482 0.930 . S
H500 C489 0.930 . S
H501 C491 0.931 . S
H502 C492 0.930 . S
H503 C493 0.930 . S
H504 C512 0.929 . S
H505 C514 0.930 . S
H506 C516 0.930 . S
H507 C519 0.929 . S
H508 C522 0.930 . S
H509 C524 0.960 . S
H510 C524 0.960 . S
H511 C524 0.960 . S
C512 H504 0.929 . S
C512 C513 1.377 . S
C512 C514 1.384 . S
C513 C512 1.377 . S
C513 C519 1.390 . S
C514 H505 0.930 . S
C514 C512 1.384 . S
C514 C515 1.372 . S
C515 C514 1.372 . S
C515 C516 1.400 . S
C515 C520 1.490 . S
C516 H506 0.930 . S
C516 C515 1.400 . S
C516 C519 1.386 . S
H517 C533 0.930 . S
H518 C534 0.931 . S
C519 H507 0.929 . S
C519 C513 1.390 . S
C519 C516 1.386 . S
C520 C515 1.490 . S
C520 C522 1.395 . S
C520 C523 1.403 . S
H521 C527 0.930 . S
C522 H508 0.930 . S
C522 C520 1.395 . S
C522 C525 1.403 . S
C523 C520 1.403 . S
C523 C524 1.524 . S
C523 C527 1.400 . S
C524 H509 0.960 . S
C524 H510 0.960 . S
C524 H511 0.960 . S
C524 C523 1.524 . S
C525 C522 1.403 . S
C525 C526 1.392 . S
C525 C529 1.495 . S
C526 C525 1.392 . S
C526 C527 1.385 . S
C526 C528 1.478 . S
C527 H521 0.930 . S
C527 C523 1.400 . S
C527 C526 1.385 . S
C528 C526 1.478 . S
C528 C530 1.381 . S
C528 C534 1.383 . S
C529 C525 1.495 . S
C529 H535 0.959 . S
C529 H536 0.961 . S
C529 H537 0.960 . S
C530 C528 1.381 . S
C530 C531 1.394 . S
C530 H538 0.930 . S
C531 C530 1.394 . S
C531 C532 1.383 . S
C531 H539 0.929 . S
C532 C531 1.383 . S
C532 C533 1.377 . S
C533 H517 0.930 . S
C533 C532 1.377 . S
C533 C534 1.379 . S
C534 H518 0.931 . S
C534 C528 1.383 . S
C534 C533 1.379 . S
H535 C529 0.959 . S
H536 C529 0.961 . S
H537 C529 0.960 . S
H538 C530 0.930 . S
H539 C531 0.929 . S
H540 C548 0.929 . S
H541 C550 0.930 . S
H542 C552 0.930 . S
H543 C555 0.929 . S
H544 C558 0.930 . S
H545 C560 0.960 . S
H546 C560 0.960 . S
H547 C560 0.960 . S
C548 H540 0.929 . S
C548 C549 1.377 . S
C548 C550 1.384 . S
C549 C548 1.377 . S
C549 C555 1.390 . S
C550 H541 0.930 . S
C550 C548 1.384 . S
C550 C551 1.372 . S
C551 C550 1.372 . S
C551 C552 1.400 . S
C551 C556 1.490 . S
C552 H542 0.930 . S
C552 C551 1.400 . S
C552 C555 1.386 . S
H553 C569 0.930 . S
H554 C570 0.931 . S
C555 H543 0.929 . S
C555 C549 1.390 . S
C555 C552 1.386 . S
C556 C551 1.490 . S
C556 C558 1.395 . S
C556 C559 1.403 . S
H557 C563 0.930 . S
C558 H544 0.930 . S
C558 C556 1.395 . S
C558 C561 1.403 . S
C559 C556 1.403 . S
C559 C560 1.524 . S
C559 C563 1.400 . S
C560 H545 0.960 . S
C560 H546 0.960 . S
C560 H547 0.960 . S
C560 C559 1.524 . S
C561 C558 1.403 . S
C561 C562 1.392 . S
C561 C565 1.495 . S
C562 C561 1.392 . S
C562 C563 1.385 . S
C562 C564 1.478 . S
C563 H557 0.930 . S
C563 C559 1.400 . S
C563 C562 1.385 . S
C564 C562 1.478 . S
C564 C566 1.381 . S
C564 C570 1.383 . S
C565 C561 1.495 . S
C565 H571 0.959 . S
C565 H572 0.961 . S
C565 H573 0.960 . S
C566 C564 1.381 . S
C566 C567 1.394 . S
C566 H574 0.930 . S
C567 C566 1.394 . S
C567 C568 1.383 . S
C567 H575 0.929 . S
C568 C567 1.383 . S
C568 C569 1.377 . S
C569 H553 0.930 . S
C569 C568 1.377 . S
C569 C570 1.379 . S
C570 H554 0.931 . S
C570 C564 1.383 . S
C570 C569 1.379 . S
H571 C565 0.959 . S
H572 C565 0.961 . S
H573 C565 0.960 . S
H574 C566 0.930 . S
H575 C567 0.929 . S
H576 C584 0.929 . S
H577 C586 0.930 . S
H578 C588 0.930 . S
H579 C591 0.929 . S
H580 C594 0.930 . S
H581 C596 0.960 . S
H582 C596 0.960 . S
H583 C596 0.960 . S
C584 H576 0.929 . S
C584 C585 1.377 . S
C584 C586 1.384 . S
C585 C584 1.377 . S
C585 C591 1.390 . S
C586 H577 0.930 . S
C586 C584 1.384 . S
C586 C587 1.372 . S
C587 C586 1.372 . S
C587 C588 1.400 . S
C587 C592 1.490 . S
C588 H578 0.930 . S
C588 C587 1.400 . S
C588 C591 1.386 . S
H589 C605 0.930 . S
H590 C606 0.931 . S
C591 H579 0.929 . S
C591 C585 1.390 . S
C591 C588 1.386 . S
C592 C587 1.490 . S
C592 C594 1.395 . S
C592 C595 1.403 . S
H593 C599 0.930 . S
C594 H580 0.930 . S
C594 C592 1.395 . S
C594 C597 1.403 . S
C595 C592 1.403 . S
C595 C596 1.524 . S
C595 C599 1.400 . S
C596 H581 0.960 . S
C596 H582 0.960 . S
C596 H583 0.960 . S
C596 C595 1.524 . S
C597 C594 1.403 . S
C597 C598 1.392 . S
C597 C601 1.495 . S
C598 C597 1.392 . S
C598 C599 1.385 . S
C598 C600 1.478 . S
C599 H593 0.930 . S
C599 C595 1.400 . S
C599 C598 1.385 . S
C600 C598 1.478 . S
C600 C602 1.381 . S
C600 C606 1.383 . S
C601 C597 1.495 . S
C601 H607 0.959 . S
C601 H608 0.961 . S
C601 H609 0.960 . S
C602 C600 1.381 . S
C602 C603 1.394 . S
C602 H610 0.930 . S
C603 C602 1.394 . S
C603 C604 1.383 . S
C603 H611 0.929 . S
C604 C603 1.383 . S
C604 C605 1.377 . S
C605 H589 0.930 . S
C605 C604 1.377 . S
C605 C606 1.379 . S
C606 H590 0.931 . S
C606 C600 1.383 . S
C606 C605 1.379 . S
H607 C601 0.959 . S
H608 C601 0.961 . S
H609 C601 0.960 . S
H610 C602 0.930 . S
H611 C603 0.929 . S
H612 C620 0.929 . S
H613 C622 0.930 . S
H614 C624 0.930 . S
H615 C627 0.929 . S
H616 C630 0.930 . S
H617 C632 0.960 . S
H618 C632 0.960 . S
H619 C632 0.960 . S
C620 H612 0.929 . S
C620 C621 1.377 . S
C620 C622 1.384 . S
C621 C620 1.377 . S
C621 C627 1.390 . S
C622 H613 0.930 . S
C622 C620 1.384 . S
C622 C623 1.372 . S
C623 C622 1.372 . S
C623 C624 1.400 . S
C623 C628 1.490 . S
C624 H614 0.930 . S
C624 C623 1.400 . S
C624 C627 1.386 . S
H625 C641 0.930 . S
H626 C642 0.931 . S
C627 H615 0.929 . S
C627 C621 1.390 . S
C627 C624 1.386 . S
C628 C623 1.490 . S
C628 C630 1.395 . S
C628 C631 1.403 . S
H629 C635 0.930 . S
C630 H616 0.930 . S
C630 C628 1.395 . S
C630 C633 1.403 . S
C631 C628 1.403 . S
C631 C632 1.524 . S
C631 C635 1.400 . S
C632 H617 0.960 . S
C632 H618 0.960 . S
C632 H619 0.960 . S
C632 C631 1.524 . S
C633 C630 1.403 . S
C633 C634 1.392 . S
C633 C637 1.495 . S
C634 C633 1.392 . S
C634 C635 1.385 . S
C634 C636 1.478 . S
C635 H629 0.930 . S
C635 C631 1.400 . S
C635 C634 1.385 . S
C636 C634 1.478 . S
C636 C638 1.381 . S
C636 C642 1.383 . S
C637 C633 1.495 . S
C637 H643 0.959 . S
C637 H644 0.961 . S
C637 H645 0.960 . S
C638 C636 1.381 . S
C638 C639 1.394 . S
C638 H646 0.930 . S
C639 C638 1.394 . S
C639 C640 1.383 . S
C639 H647 0.929 . S
C640 C639 1.383 . S
C640 C641 1.377 . S
C641 H625 0.930 . S
C641 C640 1.377 . S
C641 C642 1.379 . S
C642 H626 0.931 . S
C642 C636 1.383 . S
C642 C641 1.379 . S
H643 C637 0.959 . S
H644 C637 0.961 . S
H645 C637 0.960 . S
H646 C638 0.930 . S
H647 C639 0.929 . S
H648 C656 0.929 . S
H649 C658 0.930 . S
H650 C660 0.930 . S
H651 C663 0.929 . S
H652 C666 0.930 . S
H653 C668 0.960 . S
H654 C668 0.960 . S
H655 C668 0.960 . S
C656 H648 0.929 . S
C656 C657 1.377 . S
C656 C658 1.384 . S
C657 C656 1.377 . S
C657 C663 1.390 . S
C658 H649 0.930 . S
C658 C656 1.384 . S
C658 C659 1.372 . S
C659 C658 1.372 . S
C659 C660 1.400 . S
C659 C664 1.490 . S
C660 H650 0.930 . S
C660 C659 1.400 . S
C660 C663 1.386 . S
H661 C677 0.930 . S
H662 C678 0.931 . S
C663 H651 0.929 . S
C663 C657 1.390 . S
C663 C660 1.386 . S
C664 C659 1.490 . S
C664 C666 1.395 . S
C664 C667 1.403 . S
H665 C671 0.930 . S
C666 H652 0.930 . S
C666 C664 1.395 . S
C666 C669 1.403 . S
C667 C664 1.403 . S
C667 C668 1.524 . S
C667 C671 1.400 . S
C668 H653 0.960 . S
C668 H654 0.960 . S
C668 H655 0.960 . S
C668 C667 1.524 . S
C669 C666 1.403 . S
C669 C670 1.392 . S
C669 C673 1.495 . S
C670 C669 1.392 . S
C670 C671 1.385 . S
C670 C672 1.478 . S
C671 H665 0.930 . S
C671 C667 1.400 . S
C671 C670 1.385 . S
C672 C670 1.478 . S
C672 C674 1.381 . S
C672 C678 1.383 . S
C673 C669 1.495 . S
C673 H679 0.959 . S
C673 H680 0.961 . S
C673 H681 0.960 . S
C674 C672 1.381 . S
C674 C675 1.394 . S
C674 H682 0.930 . S
C675 C674 1.394 . S
C675 C676 1.383 . S
C675 H683 0.929 . S
C676 C675 1.383 . S
C676 C677 1.377 . S
C677 H661 0.930 . S
C677 C676 1.377 . S
C677 C678 1.379 . S
C678 H662 0.931 . S
C678 C672 1.383 . S
C678 C677 1.379 . S
H679 C673 0.959 . S
H680 C673 0.961 . S
H681 C673 0.960 . S
H682 C674 0.930 . S
H683 C675 0.929 . S
H684 C692 0.929 . S
H685 C694 0.930 . S
H686 C696 0.930 . S
H687 C699 0.929 . S
H688 C702 0.930 . S
H689 C704 0.960 . S
H690 C704 0.960 . S
H691 C704 0.960 . S
C692 H684 0.929 . S
C692 C693 1.377 . S
C692 C694 1.384 . S
C693 C692 1.377 . S
C693 C699 1.390 . S
C694 H685 0.930 . S
C694 C692 1.384 . S
C694 C695 1.372 . S
C695 C694 1.372 . S
C695 C696 1.400 . S
C695 C700 1.490 . S
C696 H686 0.930 . S
C696 C695 1.400 . S
C696 C699 1.386 . S
H697 C713 0.930 . S
H698 C714 0.931 . S
C699 H687 0.929 . S
C699 C693 1.390 . S
C699 C696 1.386 . S
C700 C695 1.490 . S
C700 C702 1.395 . S
C700 C703 1.403 . S
H701 C707 0.930 . S
C702 H688 0.930 . S
C702 C700 1.395 . S
C702 C705 1.403 . S
C703 C700 1.403 . S
C703 C704 1.524 . S
C703 C707 1.400 . S
C704 H689 0.960 . S
C704 H690 0.960 . S
C704 H691 0.960 . S
C704 C703 1.524 . S
C705 C702 1.403 . S
C705 C706 1.392 . S
C705 C709 1.495 . S
C706 C705 1.392 . S
C706 C707 1.385 . S
C706 C708 1.478 . S
C707 H701 0.930 . S
C707 C703 1.400 . S
C707 C706 1.385 . S
C708 C706 1.478 . S
C708 C710 1.381 . S
C708 C714 1.383 . S
C709 C705 1.495 . S
C709 H715 0.959 . S
C709 H716 0.961 . S
C709 H717 0.960 . S
C710 C708 1.381 . S
C710 C711 1.394 . S
C710 H718 0.930 . S
C711 C710 1.394 . S
C711 C712 1.383 . S
C711 H719 0.929 . S
C712 C711 1.383 . S
C712 C713 1.377 . S
C713 H697 0.930 . S
C713 C712 1.377 . S
C713 C714 1.379 . S
C714 H698 0.931 . S
C714 C708 1.383 . S
C714 C713 1.379 . S
H715 C709 0.959 . S
H716 C709 0.961 . S
H717 C709 0.960 . S
H718 C710 0.930 . S
H719 C711 0.929 . S
H720 C728 0.929 . S
H721 C730 0.930 . S
H722 C732 0.930 . S
H723 C735 0.929 . S
H724 C738 0.930 . S
H725 C740 0.960 . S
H726 C740 0.960 1_554 S
H727 C740 0.960 . S
C728 H720 0.929 . S
C728 C729 1.377 . S
C728 C730 1.384 . S
C729 C728 1.377 . S
C729 C735 1.390 1_554 S
C730 H721 0.930 . S
C730 C728 1.384 . S
C730 C731 1.372 . S
C731 C730 1.372 . S
C731 C732 1.400 1_554 S
C731 C736 1.490 . S
C732 H722 0.930 . S
C732 C731 1.400 1_556 S
C732 C735 1.386 . S
H733 C749 0.930 . S
H734 C750 0.931 . S
C735 H723 0.929 . S
C735 C729 1.390 1_556 S
C735 C732 1.386 . S
C736 C731 1.490 . S
C736 C738 1.395 . S
C736 C739 1.403 . S
H737 C743 0.930 1_556 S
C738 H724 0.930 . S
C738 C736 1.395 . S
C738 C741 1.403 . S
C739 C736 1.403 . S
C739 C740 1.524 1_554 S
C739 C743 1.400 . S
C740 H725 0.960 . S
C740 H726 0.960 1_556 S
C740 H727 0.960 . S
C740 C739 1.524 1_556 S
C741 C738 1.403 . S
C741 C742 1.392 . S
C741 C745 1.495 . S
C742 C741 1.392 . S
C742 C743 1.385 . S
C742 C744 1.478 . S
C743 H737 0.930 1_554 S
C743 C739 1.400 . S
C743 C742 1.385 . S
C744 C742 1.478 . S
C744 C746 1.381 . S
C744 C750 1.383 1_554 S
C745 C741 1.495 . S
C745 H751 0.959 . S
C745 H752 0.961 . S
C745 H753 0.960 . S
C746 C744 1.381 . S
C746 C747 1.394 . S
C746 H754 0.930 . S
C747 C746 1.394 . S
C747 C748 1.383 . S
C747 H755 0.929 . S
C748 C747 1.383 . S
C748 C749 1.377 1_554 S
C749 H733 0.930 . S
C749 C748 1.377 1_556 S
C749 C750 1.379 . S
C750 H734 0.931 . S
C750 C744 1.383 1_556 S
C750 C749 1.379 . S
H751 C745 0.959 . S
H752 C745 0.961 . S
H753 C745 0.960 . S
H754 C746 0.930 . S
H755 C747 0.929 . S
H756 C764 0.929 . S
H757 C766 0.930 . S
H758 C768 0.930 . S
H759 C771 0.929 . S
H760 C774 0.930 . S
H761 C776 0.960 . S
H762 C776 0.960 . S
H763 C776 0.960 . S
C764 H756 0.929 . S
C764 C765 1.377 . S
C764 C766 1.384 . S
C765 C764 1.377 . S
C765 C771 1.390 . S
C766 H757 0.930 . S
C766 C764 1.384 . S
C766 C767 1.372 . S
C767 C766 1.372 . S
C767 C768 1.400 . S
C767 C772 1.490 . S
C768 H758 0.930 . S
C768 C767 1.400 . S
C768 C771 1.386 . S
H769 C785 0.930 . S
H770 C786 0.931 . S
C771 H759 0.929 . S
C771 C765 1.390 . S
C771 C768 1.386 . S
C772 C767 1.490 . S
C772 C774 1.395 . S
C772 C775 1.403 . S
H773 C779 0.930 . S
C774 H760 0.930 . S
C774 C772 1.395 . S
C774 C777 1.403 1_455 S
C775 C772 1.403 . S
C775 C776 1.524 . S
C775 C779 1.400 1_455 S
C776 H761 0.960 . S
C776 H762 0.960 . S
C776 H763 0.960 . S
C776 C775 1.524 . S
C777 C774 1.403 1_655 S
C777 C778 1.392 . S
C777 C781 1.495 . S
C778 C777 1.392 . S
C778 C779 1.385 . S
C778 C780 1.478 . S
C779 H773 0.930 . S
C779 C775 1.400 1_655 S
C779 C778 1.385 . S
C780 C778 1.478 . S
C780 C782 1.381 . S
C780 C786 1.383 . S
C781 C777 1.495 . S
C781 H787 0.959 . S
C781 H788 0.961 . S
C781 H789 0.960 . S
C782 C780 1.381 . S
C782 C783 1.394 . S
C782 H790 0.930 . S
C783 C782 1.394 . S
C783 C784 1.383 . S
C783 H791 0.929 . S
C784 C783 1.383 . S
C784 C785 1.377 . S
C785 H769 0.930 . S
C785 C784 1.377 . S
C785 C786 1.379 . S
C786 H770 0.931 . S
C786 C780 1.383 . S
C786 C785 1.379 . S
H787 C781 0.959 . S
H788 C781 0.961 . S
H789 C781 0.960 . S
H790 C782 0.930 . S
H791 C783 0.929 . S
H792 C800 0.929 . S
H793 C802 0.930 . S
H794 C804 0.930 . S
H795 C807 0.929 . S
H796 C810 0.930 . S
H797 C812 0.960 . S
H798 C812 0.960 . S
H799 C812 0.960 . S
C800 H792 0.929 . S
C800 C801 1.377 . S
C800 C802 1.384 . S
C801 C800 1.377 . S
C801 C807 1.390 . S
C802 H793 0.930 . S
C802 C800 1.384 . S
C802 C803 1.372 . S
C803 C802 1.372 . S
C803 C804 1.400 . S
C803 C808 1.490 . S
C804 H794 0.930 . S
C804 C803 1.400 . S
C804 C807 1.386 . S
H805 C821 0.930 . S
H806 C822 0.931 . S
C807 H795 0.929 . S
C807 C801 1.390 . S
C807 C804 1.386 . S
C808 C803 1.490 . S
C808 C810 1.395 . S
C808 C811 1.403 1_545 S
H809 C815 0.930 . S
C810 H796 0.930 . S
C810 C808 1.395 . S
C810 C813 1.403 . S
C811 C808 1.403 1_565 S
C811 C812 1.524 . S
C811 C815 1.400 . S
C812 H797 0.960 . S
C812 H798 0.960 . S
C812 H799 0.960 . S
C812 C811 1.524 . S
C813 C810 1.403 . S
C813 C814 1.392 1_545 S
C813 C817 1.495 . S
C814 C813 1.392 1_565 S
C814 C815 1.385 . S
C814 C816 1.478 . S
C815 H809 0.930 . S
C815 C811 1.400 . S
C815 C814 1.385 . S
C816 C814 1.478 . S
C816 C818 1.381 . S
C816 C822 1.383 . S
C817 C813 1.495 . S
C817 H823 0.959 . S
C817 H824 0.961 . S
C817 H825 0.960 . S
C818 C816 1.381 . S
C818 C819 1.394 . S
C818 H826 0.930 . S
C819 C818 1.394 . S
C819 C820 1.383 . S
C819 H827 0.929 . S
C820 C819 1.383 . S
C820 C821 1.377 . S
C821 H805 0.930 . S
C821 C820 1.377 . S
C821 C822 1.379 . S
C822 H806 0.931 . S
C822 C816 1.383 . S
C822 C821 1.379 . S
H823 C817 0.959 . S
H824 C817 0.961 . S
H825 C817 0.960 . S
H826 C818 0.930 . S
H827 C819 0.929 . S
H828 C836 0.929 . S
H829 C838 0.930 . S
H830 C840 0.930 . S
H831 C843 0.929 . S
H832 C846 0.930 . S
H833 C848 0.960 . S
H834 C848 0.960 . S
H835 C848 0.960 . S
C836 H828 0.929 . S
C836 C837 1.377 . S
C836 C838 1.384 . S
C837 C836 1.377 . S
C837 C843 1.390 . S
C838 H829 0.930 . S
C838 C836 1.384 . S
C838 C839 1.372 . S
C839 C838 1.372 . S
C839 C840 1.400 . S
C839 C844 1.490 . S
C840 H830 0.930 . S
C840 C839 1.400 . S
C840 C843 1.386 . S
H841 C857 0.930 . S
H842 C858 0.931 . S
C843 H831 0.929 . S
C843 C837 1.390 . S
C843 C840 1.386 . S
C844 C839 1.490 . S
C844 C846 1.395 . S
C844 C847 1.403 . S
H845 C851 0.930 . S
C846 H832 0.930 . S
C846 C844 1.395 . S
C846 C849 1.403 . S
C847 C844 1.403 . S
C847 C848 1.524 . S
C847 C851 1.400 . S
C848 H833 0.960 . S
C848 H834 0.960 . S
C848 H835 0.960 . S
C848 C847 1.524 . S
C849 C846 1.403 . S
C849 C850 1.392 . S
C849 C853 1.495 . S
C850 C849 1.392 . S
C850 C851 1.385 . S
C850 C852 1.478 . S
C851 H845 0.930 . S
C851 C847 1.400 . S
C851 C850 1.385 . S
C852 C850 1.478 . S
C852 C854 1.381 . S
C852 C858 1.383 . S
C853 C849 1.495 . S
C853 H859 0.959 . S
C853 H860 0.961 . S
C853 H861 0.960 . S
C854 C852 1.381 . S
C854 C855 1.394 . S
C854 H862 0.930 . S
C855 C854 1.394 . S
C855 C856 1.383 . S
C855 H863 0.929 . S
C856 C855 1.383 . S
C856 C857 1.377 . S
C857 H841 0.930 . S
C857 C856 1.377 . S
C857 C858 1.379 . S
C858 H842 0.931 . S
C858 C852 1.383 . S
C858 C857 1.379 . S
H859 C853 0.959 . S
H860 C853 0.961 . S
H861 C853 0.960 . S
H862 C854 0.930 . S
H863 C855 0.929 . S
H864 C872 0.929 . S
H865 C874 0.930 . S
H866 C876 0.930 . S
H867 C879 0.929 . S
H868 C882 0.930 . S
H869 C884 0.960 . S
H870 C884 0.960 1_556 S
H871 C884 0.960 . S
C872 H864 0.929 . S
C872 C873 1.377 1_556 S
C872 C874 1.384 . S
C873 C872 1.377 1_554 S
C873 C879 1.390 . S
C874 H865 0.930 . S
C874 C872 1.384 . S
C874 C875 1.372 1_556 S
C875 C874 1.372 1_554 S
C875 C876 1.400 . S
C875 C880 1.490 . S
C876 H866 0.930 . S
C876 C875 1.400 . S
C876 C879 1.386 . S
H877 C893 0.930 . S
H878 C894 0.931 . S
C879 H867 0.929 . S
C879 C873 1.390 . S
C879 C876 1.386 . S
C880 C875 1.490 . S
C880 C882 1.395 1_455 S
C880 C883 1.403 . S
H881 C887 0.930 . S
C882 H868 0.930 . S
C882 C880 1.395 1_655 S
C882 C885 1.403 . S
C883 C880 1.403 . S
C883 C884 1.524 . S
C883 C887 1.400 . S
C884 H869 0.960 . S
C884 H870 0.960 1_554 S
C884 H871 0.960 . S
C884 C883 1.524 . S
C885 C882 1.403 . S
C885 C886 1.392 . S
C885 C889 1.495 . S
C886 C885 1.392 . S
C886 C887 1.385 1_655 S
C886 C888 1.478 . S
C887 H881 0.930 . S
C887 C883 1.400 . S
C887 C886 1.385 1_455 S
C888 C886 1.478 . S
C888 C890 1.381 1_554 S
C888 C894 1.383 . S
C889 C885 1.495 . S
C889 H895 0.959 . S
C889 H896 0.961 . S
C889 H897 0.960 1_554 S
C890 C888 1.381 1_556 S
C890 C891 1.394 . S
C890 H898 0.930 . S
C891 C890 1.394 . S
C891 C892 1.383 1_556 S
C891 H899 0.929 . S
C892 C891 1.383 1_554 S
C892 C893 1.377 . S
C893 H877 0.930 . S
C893 C892 1.377 . S
C893 C894 1.379 . S
C894 H878 0.931 . S
C894 C888 1.383 . S
C894 C893 1.379 . S
H895 C889 0.959 . S
H896 C889 0.961 . S
H897 C889 0.960 1_556 S
H898 C890 0.930 . S
H899 C891 0.929 . S
H900 C908 0.929 . S
H901 C910 0.930 . S
H902 C912 0.930 . S
H903 C915 0.929 . S
H904 C918 0.930 . S
H905 C920 0.960 . S
H906 C920 0.960 . S
H907 C920 0.960 . S
C908 H900 0.929 . S
C908 C909 1.377 . S
C908 C910 1.384 . S
C909 C908 1.377 . S
C909 C915 1.390 . S
C910 H901 0.930 . S
C910 C908 1.384 . S
C910 C911 1.372 . S
C911 C910 1.372 . S
C911 C912 1.400 . S
C911 C916 1.490 . S
C912 H902 0.930 . S
C912 C911 1.400 . S
C912 C915 1.386 . S
H913 C929 0.930 . S
H914 C930 0.931 . S
C915 H903 0.929 . S
C915 C909 1.390 . S
C915 C912 1.386 . S
C916 C911 1.490 . S
C916 C918 1.395 . S
C916 C919 1.403 1_565 S
H917 C923 0.930 . S
C918 H904 0.930 . S
C918 C916 1.395 . S
C918 C921 1.403 . S
C919 C916 1.403 1_545 S
C919 C920 1.524 . S
C919 C923 1.400 . S
C920 H905 0.960 . S
C920 H906 0.960 . S
C920 H907 0.960 . S
C920 C919 1.524 . S
C921 C918 1.403 . S
C921 C922 1.392 1_565 S
C921 C925 1.495 . S
C922 C921 1.392 1_545 S
C922 C923 1.385 . S
C922 C924 1.478 . S
C923 H917 0.930 . S
C923 C919 1.400 . S
C923 C922 1.385 . S
C924 C922 1.478 . S
C924 C926 1.381 . S
C924 C930 1.383 . S
C925 C921 1.495 . S
C925 H931 0.959 . S
C925 H932 0.961 . S
C925 H933 0.960 . S
C926 C924 1.381 . S
C926 C927 1.394 . S
C926 H934 0.930 . S
C927 C926 1.394 . S
C927 C928 1.383 . S
C927 H935 0.929 . S
C928 C927 1.383 . S
C928 C929 1.377 . S
C929 H913 0.930 . S
C929 C928 1.377 . S
C929 C930 1.379 . S
C930 H914 0.931 . S
C930 C924 1.383 . S
C930 C929 1.379 . S
H931 C925 0.959 . S
H932 C925 0.961 . S
H933 C925 0.960 . S
H934 C926 0.930 . S
H935 C927 0.929 . S
H936 C944 0.929 . S
H937 C946 0.930 . S
H938 C948 0.930 . S
H939 C951 0.929 . S
H940 C954 0.930 . S
H941 C956 0.960 . S
H942 C956 0.960 . S
H943 C956 0.960 . S
C944 H936 0.929 . S
C944 C945 1.377 . S
C944 C946 1.384 . S
C945 C944 1.377 . S
C945 C951 1.390 . S
C946 H937 0.930 . S
C946 C944 1.384 . S
C946 C947 1.372 . S
C947 C946 1.372 . S
C947 C948 1.400 . S
C947 C952 1.490 . S
C948 H938 0.930 . S
C948 C947 1.400 . S
C948 C951 1.386 . S
H949 C965 0.930 . S
H950 C966 0.931 . S
C951 H939 0.929 . S
C951 C945 1.390 . S
C951 C948 1.386 . S
C952 C947 1.490 . S
C952 C954 1.395 . S
C952 C955 1.403 . S
H953 C959 0.930 . S
C954 H940 0.930 . S
C954 C952 1.395 . S
C954 C957 1.403 . S
C955 C952 1.403 . S
C955 C956 1.524 . S
C955 C959 1.400 . S
C956 H941 0.960 . S
C956 H942 0.960 . S
C956 H943 0.960 . S
C956 C955 1.524 . S
C957 C954 1.403 . S
C957 C958 1.392 . S
C957 C961 1.495 . S
C958 C957 1.392 . S
C958 C959 1.385 . S
C958 C960 1.478 . S
C959 H953 0.930 . S
C959 C955 1.400 . S
C959 C958 1.385 . S
C960 C958 1.478 . S
C960 C962 1.381 . S
C960 C966 1.383 . S
C961 C957 1.495 . S
C961 H967 0.959 . S
C961 H968 0.961 . S
C961 H969 0.960 . S
C962 C960 1.381 . S
C962 C963 1.394 . S
C962 H970 0.930 . S
C963 C962 1.394 . S
C963 C964 1.383 . S
C963 H971 0.929 . S
C964 C963 1.383 . S
C964 C965 1.377 . S
C965 H949 0.930 . S
C965 C964 1.377 . S
C965 C966 1.379 . S
C966 H950 0.931 . S
C966 C960 1.383 . S
C966 C965 1.379 . S
H967 C961 0.959 . S
H968 C961 0.961 . S
H969 C961 0.960 . S
H970 C962 0.930 . S
H971 C963 0.929 . S
H972 C980 0.929 . S
H973 C982 0.930 . S
H974 C984 0.930 . S
H975 C987 0.929 . S
H976 C990 0.930 . S
H977 C992 0.960 . S
H978 C992 0.960 1_655 S
H979 C992 0.960 . S
C980 H972 0.929 . S
C980 C981 1.377 . S
C980 C982 1.384 . S
C981 C980 1.377 . S
C981 C987 1.390 . S
C982 H973 0.930 . S
C982 C980 1.384 . S
C982 C983 1.372 1_655 S
C983 C982 1.372 1_455 S
C983 C984 1.400 . S
C983 C988 1.490 . S
C984 H974 0.930 . S
C984 C983 1.400 . S
C984 C987 1.386 1_455 S
H985 C1001 0.930 . S
H986 C1002 0.931 . S
C987 H975 0.929 . S
C987 C981 1.390 . S
C987 C984 1.386 1_655 S
C988 C983 1.490 . S
C988 C990 1.395 . S
C988 C991 1.403 . S
H989 C995 0.930 . S
C990 H976 0.930 . S
C990 C988 1.395 . S
C990 C993 1.403 . S
C991 C988 1.403 . S
C991 C992 1.524 . S
C991 C995 1.400 . S
C992 H977 0.960 . S
C992 H978 0.960 1_455 S
C992 H979 0.960 . S
C992 C991 1.524 . S
C993 C990 1.403 . S
C993 C994 1.392 . S
C993 C997 1.495 . S
C994 C993 1.392 . S
C994 C995 1.385 . S
C994 C996 1.478 . S
C995 H989 0.930 . S
C995 C991 1.400 . S
C995 C994 1.385 . S
C996 C994 1.478 . S
C996 C998 1.381 . S
C996 C1002 1.383 . S
C997 C993 1.495 . S
C997 H1003 0.959 . S
C997 H1004 0.961 . S
C997 H1005 0.960 . S
C998 C996 1.381 . S
C998 C999 1.394 . S
C998 H1006 0.930 . S
C999 C998 1.394 . S
C999 C1000 1.383 . S
C999 H1007 0.929 . S
C1000 C999 1.383 . S
C1000 C1001 1.377 . S
C1001 H985 0.930 . S
C1001 C1000 1.377 . S
C1001 C1002 1.379 . S
C1002 H986 0.931 . S
C1002 C996 1.383 . S
C1002 C1001 1.379 . S
H1003 C997 0.959 . S
H1004 C997 0.961 . S
H1005 C997 0.960 . S
H1006 C998 0.930 . S
H1007 C999 0.929 . S
H1008 C1016 0.929 . S
H1009 C1018 0.930 1_545 S
H1010 C1020 0.929 . S
H1011 C1023 0.929 . S
H1012 C1026 0.930 . S
H1013 C1028 0.960 . S
H1014 C1028 0.960 . S
H1015 C1028 0.960 . S
C1016 H1008 0.929 . S
C1016 C1017 1.377 . S
C1016 C1018 1.384 . S
C1017 C1016 1.377 . S
C1017 C1023 1.390 . S
C1018 H1009 0.930 1_565 S
C1018 C1016 1.384 . S
C1018 C1019 1.372 1_565 S
C1019 C1018 1.372 1_545 S
C1019 C1020 1.400 1_545 S
C1019 C1024 1.490 . S
C1020 H1010 0.929 . S
C1020 C1019 1.400 1_565 S
C1020 C1023 1.386 . S
H1021 C1037 0.930 . S
H1022 C1038 0.931 . S
C1023 H1011 0.929 . S
C1023 C1017 1.390 . S
C1023 C1020 1.386 . S
C1024 C1019 1.490 . S
C1024 C1026 1.395 . S
C1024 C1027 1.403 . S
H1025 C1031 0.930 . S
C1026 H1012 0.930 . S
C1026 C1024 1.395 . S
C1026 C1029 1.403 . S
C1027 C1024 1.403 . S
C1027 C1028 1.524 1_545 S
C1027 C1031 1.400 . S
C1028 H1013 0.960 . S
C1028 H1014 0.960 . S
C1028 H1015 0.960 . S
C1028 C1027 1.524 1_565 S
C1029 C1026 1.403 . S
C1029 C1030 1.392 . S
C1029 C1033 1.495 . S
C1030 C1029 1.392 . S
C1030 C1031 1.385 . S
C1030 C1032 1.478 . S
C1031 H1025 0.930 . S
C1031 C1027 1.400 . S
C1031 C1030 1.385 . S
C1032 C1030 1.478 . S
C1032 C1034 1.381 . S
C1032 C1038 1.383 . S
C1033 C1029 1.495 . S
C1033 H1039 0.959 . S
C1033 H1040 0.961 . S
C1033 H1041 0.960 . S
C1034 C1032 1.381 . S
C1034 C1035 1.394 . S
C1034 H1042 0.930 . S
C1035 C1034 1.394 . S
C1035 C1036 1.383 . S
C1035 H1043 0.929 . S
C1036 C1035 1.383 . S
C1036 C1037 1.377 . S
C1037 H1021 0.930 . S
C1037 C1036 1.377 . S
C1037 C1038 1.379 . S
C1038 H1022 0.931 . S
C1038 C1032 1.383 . S
C1038 C1037 1.379 . S
H1039 C1033 0.959 . S
H1040 C1033 0.961 . S
H1041 C1033 0.960 . S
H1042 C1034 0.930 . S
H1043 C1035 0.929 . S
H1044 C1052 0.929 . S
H1045 C1054 0.930 . S
H1046 C1056 0.930 . S
H1047 C1059 0.929 . S
H1048 C1062 0.930 . S
H1049 C1064 0.960 . S
H1050 C1064 0.960 . S
H1051 C1064 0.960 . S
C1052 H1044 0.929 . S
C1052 C1053 1.377 . S
C1052 C1054 1.384 . S
C1053 C1052 1.377 . S
C1053 C1059 1.390 . S
C1054 H1045 0.930 . S
C1054 C1052 1.384 . S
C1054 C1055 1.372 . S
C1055 C1054 1.372 . S
C1055 C1056 1.400 . S
C1055 C1060 1.490 . S
C1056 H1046 0.930 . S
C1056 C1055 1.400 . S
C1056 C1059 1.386 . S
H1057 C1073 0.930 . S
H1058 C1074 0.931 . S
C1059 H1047 0.929 . S
C1059 C1053 1.390 . S
C1059 C1056 1.386 . S
C1060 C1055 1.490 . S
C1060 C1062 1.395 . S
C1060 C1063 1.403 . S
H1061 C1067 0.930 . S
C1062 H1048 0.930 . S
C1062 C1060 1.395 . S
C1062 C1065 1.403 . S
C1063 C1060 1.403 . S
C1063 C1064 1.524 . S
C1063 C1067 1.400 . S
C1064 H1049 0.960 . S
C1064 H1050 0.960 . S
C1064 H1051 0.960 . S
C1064 C1063 1.524 . S
C1065 C1062 1.403 . S
C1065 C1066 1.392 . S
C1065 C1069 1.495 . S
C1066 C1065 1.392 . S
C1066 C1067 1.385 . S
C1066 C1068 1.478 . S
C1067 H1061 0.930 . S
C1067 C1063 1.400 . S
C1067 C1066 1.385 . S
C1068 C1066 1.478 . S
C1068 C1070 1.381 . S
C1068 C1074 1.383 . S
C1069 C1065 1.495 . S
C1069 H1075 0.959 . S
C1069 H1076 0.961 . S
C1069 H1077 0.960 . S
C1070 C1068 1.381 . S
C1070 C1071 1.394 . S
C1070 H1078 0.930 . S
C1071 C1070 1.394 . S
C1071 C1072 1.383 . S
C1071 H1079 0.929 . S
C1072 C1071 1.383 . S
C1072 C1073 1.377 . S
C1073 H1057 0.930 . S
C1073 C1072 1.377 . S
C1073 C1074 1.379 . S
C1074 H1058 0.931 . S
C1074 C1068 1.383 . S
C1074 C1073 1.379 . S
H1075 C1069 0.959 . S
H1076 C1069 0.961 . S
H1077 C1069 0.960 . S
H1078 C1070 0.930 . S
H1079 C1071 0.929 . S
H1080 C1088 0.929 . S
H1081 C1090 0.930 1_655 S
H1082 C1092 0.917 1_655 S
H1083 C1095 0.929 . S
H1084 C1098 0.930 . S
H1085 C1100 0.960 . S
H1086 C1100 0.960 . S
H1087 C1100 0.960 . S
C1088 H1080 0.929 . S
C1088 C1089 1.377 . S
C1088 C1090 1.384 . S
C1089 C1088 1.377 . S
C1089 C1095 1.390 . S
C1090 H1081 0.930 1_455 S
C1090 C1088 1.384 . S
C1090 C1091 1.372 1_455 S
C1091 C1090 1.372 1_655 S
C1091 C1092 1.400 1_655 S
C1091 C1096 1.490 . S
C1092 H1082 0.917 1_455 S
C1092 C1091 1.400 1_455 S
C1092 C1095 1.386 . S
H1093 C1109 0.930 . S
H1094 C1110 0.931 . S
C1095 H1083 0.929 . S
C1095 C1089 1.390 . S
C1095 C1092 1.386 . S
C1096 C1091 1.490 . S
C1096 C1098 1.395 . S
C1096 C1099 1.403 . S
H1097 C1103 0.930 . S
C1098 H1084 0.930 . S
C1098 C1096 1.395 . S
C1098 C1101 1.403 . S
C1099 C1096 1.403 . S
C1099 C1100 1.524 1_655 S
C1099 C1103 1.400 . S
C1100 H1085 0.960 . S
C1100 H1086 0.960 . S
C1100 H1087 0.960 . S
C1100 C1099 1.524 1_455 S
C1101 C1098 1.403 . S
C1101 C1102 1.392 . S
C1101 C1105 1.495 . S
C1102 C1101 1.392 . S
C1102 C1103 1.385 . S
C1102 C1104 1.478 . S
C1103 H1097 0.930 . S
C1103 C1099 1.400 . S
C1103 C1102 1.385 . S
C1104 C1102 1.478 . S
C1104 C1106 1.381 . S
C1104 C1110 1.383 . S
C1105 C1101 1.495 . S
C1105 H1111 0.959 . S
C1105 H1112 0.961 . S
C1105 H1113 0.960 . S
C1106 C1104 1.381 . S
C1106 C1107 1.394 . S
C1106 H1114 0.930 . S
C1107 C1106 1.394 . S
C1107 C1108 1.383 . S
C1107 H1115 0.929 . S
C1108 C1107 1.383 . S
C1108 C1109 1.377 . S
C1109 H1093 0.930 . S
C1109 C1108 1.377 . S
C1109 C1110 1.379 . S
C1110 H1094 0.931 . S
C1110 C1104 1.383 . S
C1110 C1109 1.379 . S
H1111 C1105 0.959 . S
H1112 C1105 0.961 . S
H1113 C1105 0.960 . S
H1114 C1106 0.930 . S
H1115 C1107 0.929 . S
H1116 C1124 0.929 . S
H1117 C1126 0.930 . S
H1118 C1128 0.930 . S
H1119 C1131 0.929 . S
H1120 C1134 0.930 1_545 S
H1121 C1136 0.960 . S
H1122 C1136 0.960 . S
H1123 C1136 0.960 . S
C1124 H1116 0.929 . S
C1124 C1125 1.377 . S
C1124 C1126 1.384 . S
C1125 C1124 1.377 . S
C1125 C1131 1.390 . S
C1126 H1117 0.930 . S
C1126 C1124 1.384 . S
C1126 C1127 1.372 1_545 S
C1127 C1126 1.372 1_565 S
C1127 C1128 1.400 . S
C1127 C1132 1.490 . S
C1128 H1118 0.930 . S
C1128 C1127 1.400 . S
C1128 C1131 1.386 1_565 S
H1129 C1145 0.930 . S
H1130 C1146 0.931 . S
C1131 H1119 0.929 . S
C1131 C1125 1.390 . S
C1131 C1128 1.386 1_545 S
C1132 C1127 1.490 . S
C1132 C1134 1.395 . S
C1132 C1135 1.403 . S
H1133 C1139 0.930 . S
C1134 H1120 0.930 1_565 S
C1134 C1132 1.395 . S
C1134 C1137 1.403 . S
C1135 C1132 1.403 . S
C1135 C1136 1.524 . S
C1135 C1139 1.400 . S
C1136 H1121 0.960 . S
C1136 H1122 0.960 . S
C1136 H1123 0.960 . S
C1136 C1135 1.524 . S
C1137 C1134 1.403 . S
C1137 C1138 1.392 . S
C1137 C1141 1.495 . S
C1138 C1137 1.392 . S
C1138 C1139 1.385 . S
C1138 C1140 1.478 . S
C1139 H1133 0.930 . S
C1139 C1135 1.400 . S
C1139 C1138 1.385 . S
C1140 C1138 1.478 . S
C1140 C1142 1.381 . S
C1140 C1146 1.383 . S
C1141 C1137 1.495 . S
C1141 H1147 0.959 1_565 S
C1141 H1148 0.961 . S
C1141 H1149 0.960 . S
C1142 C1140 1.381 . S
C1142 C1143 1.394 . S
C1142 H1150 0.930 . S
C1143 C1142 1.394 . S
C1143 C1144 1.383 . S
C1143 H1151 0.929 . S
C1144 C1143 1.383 . S
C1144 C1145 1.377 . S
C1145 H1129 0.930 . S
C1145 C1144 1.377 . S
C1145 C1146 1.379 . S
C1146 H1130 0.931 . S
C1146 C1140 1.383 . S
C1146 C1145 1.379 . S
H1147 C1141 0.959 1_545 S
H1148 C1141 0.961 . S
H1149 C1141 0.960 . S
H1150 C1142 0.930 . S
H1151 C1143 0.929 . S
C513 C403 1.102 . S
C532 C58 0.923 . S
C549 C487 1.104 . S
C568 C142 0.939 . S
C585 C67 1.113 . S
C604 C226 1.022 . S
C621 C151 1.114 . S
C640 C310 1.007 . S
C657 C235 1.110 . S
C676 C394 0.993 . S
C693 C319 1.105 . S
C712 C478 0.950 . S
C729 C74 1.617 . S
C748 C326 1.599 . S
C765 C410 1.622 . S
C784 C158 1.632 . S
C801 C494 1.625 . S
C820 C242 1.627 . S
C837 C231 1.681 . S
C856 C483 1.697 . S
C873 C63 1.671 . S
C892 C315 1.654 . S
C909 C399 1.680 . S
C928 C147 1.688 . S
C945 C476 1.204 . S
C964 C70 1.206 . S
C981 C154 1.178 . S
C1000 C56 1.151 . S
C1017 C238 1.183 . S
C1036 C140 1.157 . S
C1053 C224 1.197 . S
C1072 C322 1.224 . S
C1089 C406 1.184 . S
C1108 C308 1.157 . S
C1125 C490 1.177 . S
C1144 C392 1.216 . S
