# Generated by pormake.
# Topology uki, (4)-cn, num edge types: 1
# Building blocks:
#     Node 0, Type 0, BuildingBlock: MUDLON_clean_sbu_0, # of connection points: 4
#     Node 1, Type 0, BuildingBlock: MUDLON_clean_sbu_0, # of connection points: 4
#     Node 2, Type 0, BuildingBlock: MUDLON_clean_sbu_0, # of connection points: 4
#     Node 3, Type 0, BuildingBlock: MUDLON_clean_sbu_0, # of connection points: 4
#     Node 4, Type 0, BuildingBlock: MUDLON_clean_sbu_0, # of connection points: 4
#     Node 5, Type 0, BuildingBlock: MUDLON_clean_sbu_0, # of connection points: 4
#     Node 6, Type 0, BuildingBlock: MUDLON_clean_sbu_0, # of connection points: 4
#     Node 7, Type 0, BuildingBlock: MUDLON_clean_sbu_0, # of connection points: 4
#     Node 8, Type 0, BuildingBlock: MUDLON_clean_sbu_0, # of connection points: 4
#     Node 9, Type 0, BuildingBlock: MUDLON_clean_sbu_0, # of connection points: 4
#     Node 10, Type 0, BuildingBlock: MUDLON_clean_sbu_0, # of connection points: 4
#     Node 11, Type 0, BuildingBlock: MUDLON_clean_sbu_0, # of connection points: 4
#     Node 12, Type 0, BuildingBlock: MUDLON_clean_sbu_0, # of connection points: 4
#     Node 13, Type 0, BuildingBlock: MUDLON_clean_sbu_0, # of connection points: 4
#     Node 14, Type 0, BuildingBlock: MUDLON_clean_sbu_0, # of connection points: 4
#     Node 15, Type 0, BuildingBlock: MUDLON_clean_sbu_0, # of connection points: 4
#     Edge 16, Type (0, 0), BuildingBlock: UVAHIK_clean_linker_0, # of connection points: 2
#     Edge 17, Type (0, 0), BuildingBlock: UVAHIK_clean_linker_0, # of connection points: 2
#     Edge 18, Type (0, 0), BuildingBlock: UVAHIK_clean_linker_0, # of connection points: 2
#     Edge 19, Type (0, 0), BuildingBlock: UVAHIK_clean_linker_0, # of connection points: 2
#     Edge 20, Type (0, 0), BuildingBlock: UVAHIK_clean_linker_0, # of connection points: 2
#     Edge 21, Type (0, 0), BuildingBlock: UVAHIK_clean_linker_0, # of connection points: 2
#     Edge 22, Type (0, 0), BuildingBlock: UVAHIK_clean_linker_0, # of connection points: 2
#     Edge 23, Type (0, 0), BuildingBlock: UVAHIK_clean_linker_0, # of connection points: 2
#     Edge 24, Type (0, 0), BuildingBlock: UVAHIK_clean_linker_0, # of connection points: 2
#     Edge 25, Type (0, 0), BuildingBlock: UVAHIK_clean_linker_0, # of connection points: 2
#     Edge 26, Type (0, 0), BuildingBlock: UVAHIK_clean_linker_0, # of connection points: 2
#     Edge 27, Type (0, 0), BuildingBlock: UVAHIK_clean_linker_0, # of connection points: 2
#     Edge 28, Type (0, 0), BuildingBlock: UVAHIK_clean_linker_0, # of connection points: 2
#     Edge 29, Type (0, 0), BuildingBlock: UVAHIK_clean_linker_0, # of connection points: 2
#     Edge 30, Type (0, 0), BuildingBlock: UVAHIK_clean_linker_0, # of connection points: 2
#     Edge 31, Type (0, 0), BuildingBlock: UVAHIK_clean_linker_0, # of connection points: 2
#     Edge 32, Type (0, 0), BuildingBlock: UVAHIK_clean_linker_0, # of connection points: 2
#     Edge 33, Type (0, 0), BuildingBlock: UVAHIK_clean_linker_0, # of connection points: 2
#     Edge 34, Type (0, 0), BuildingBlock: UVAHIK_clean_linker_0, # of connection points: 2
#     Edge 35, Type (0, 0), BuildingBlock: UVAHIK_clean_linker_0, # of connection points: 2
#     Edge 36, Type (0, 0), BuildingBlock: UVAHIK_clean_linker_0, # of connection points: 2
#     Edge 37, Type (0, 0), BuildingBlock: UVAHIK_clean_linker_0, # of connection points: 2
#     Edge 38, Type (0, 0), BuildingBlock: UVAHIK_clean_linker_0, # of connection points: 2
#     Edge 39, Type (0, 0), BuildingBlock: UVAHIK_clean_linker_0, # of connection points: 2
#     Edge 40, Type (0, 0), BuildingBlock: UVAHIK_clean_linker_0, # of connection points: 2
#     Edge 41, Type (0, 0), BuildingBlock: UVAHIK_clean_linker_0, # of connection points: 2
#     Edge 42, Type (0, 0), BuildingBlock: UVAHIK_clean_linker_0, # of connection points: 2
#     Edge 43, Type (0, 0), BuildingBlock: UVAHIK_clean_linker_0, # of connection points: 2
#     Edge 44, Type (0, 0), BuildingBlock: UVAHIK_clean_linker_0, # of connection points: 2
#     Edge 45, Type (0, 0), BuildingBlock: UVAHIK_clean_linker_0, # of connection points: 2
#     Edge 46, Type (0, 0), BuildingBlock: UVAHIK_clean_linker_0, # of connection points: 2
#     Edge 47, Type (0, 0), BuildingBlock: UVAHIK_clean_linker_0, # of connection points: 2
# Relax obj value: 0.065
# Max RMSD: 0.231
# Mean RMSD: 0.231
data_MOF--net-uki--node1-MUDLON_clean_sbu_0--edge1-UVAHIK_clean_linker_0
_symmetry_space_group_name_H-M    P1
_symmetry_Int_Tables_number       1
_symmetry_cell_setting            triclinic
loop_
_symmetry_equiv_pos_as_xyz
'x, y, z'
_cell_length_a     42.22101
_cell_length_b     42.35527
_cell_length_c     93.590304
_cell_angle_alpha  90.026704
_cell_angle_beta   89.920478
_cell_angle_gamma 90.034878
loop_
_atom_site_label
_atom_site_type_symbol
_atom_site_fract_x
_atom_site_fract_y
_atom_site_fract_z
_atom_type_partial_charge
Mg0 Mg 0.09457 0.23423 0.30371 0.0
C1 C 0.0243 0.24337 0.30033 0.0
O2 O 0.02731 0.21381 0.29633 0.0
C3 C 0.14779 0.22154 0.32394 0.0
O4 O 0.15351 0.20145 0.31355 0.0
C5 C 0.14558 0.27031 0.28754 0.0
O6 O 0.15933 0.2687 0.30009 0.0
O7 O 0.11894 0.25679 0.28577 0.0
O8 O 0.04867 0.25806 0.30482 0.0
O9 O 0.08561 0.18399 0.30028 0.0
C10 C 0.07739 0.16814 0.31123 0.0
O11 O 0.07639 0.18248 0.32367 0.0
O12 O 0.12343 0.23915 0.32304 0.0
Mg13 Mg 0.22976 0.91675 0.70963 0.0
C14 C 0.26812 0.96663 0.72294 0.0
O15 O 0.25906 0.94888 0.7337 0.0
C16 C 0.21414 0.86587 0.68899 0.0
O17 O 0.19454 0.86056 0.69965 0.0
C18 C 0.26332 0.86299 0.7246 0.0
O19 O 0.26766 0.85441 0.71126 0.0
O20 O 0.24643 0.88716 0.72724 0.0
O21 O 0.25951 0.95899 0.71038 0.0
O22 O 0.18136 0.93375 0.71195 0.0
C23 C 0.16236 0.92732 0.72209 0.0
O24 O 0.17144 0.90806 0.73228 0.0
O25 O 0.23279 0.88943 0.68983 0.0
Mg26 Mg 0.92888 0.7883 0.30473 0.0
C27 C 1.00025 0.77862 0.30414 0.0
O28 O 0.99963 0.80951 0.30298 0.0
C29 C 0.86991 0.78627 0.32241 0.0
O30 O 0.85871 0.79186 0.30956 0.0
C31 C 0.89823 0.7353 0.29044 0.0
O32 O 0.90665 0.72446 0.30303 0.0
O33 O 0.90409 0.76406 0.28752 0.0
O34 O 0.97431 0.76379 0.30594 0.0
O35 O 0.93834 0.8382 0.30074 0.0
C36 C 0.94372 0.85518 0.3117 0.0
O37 O 0.94125 0.84215 0.32439 0.0
O38 O 0.89973 0.78343 0.32396 0.0
Mg39 Mg 0.79317 0.09794 0.70853 0.0
C40 C 0.73991 0.04925 0.7096 0.0
O41 O 0.7223 0.0748 0.71006 0.0
C42 C 0.80317 0.15078 0.68793 0.0
O43 O 0.82127 0.1591 0.69871 0.0
C44 C 0.75864 0.1132 0.73638 0.0
O45 O 0.76143 0.0826 0.73826 0.0
O46 O 0.77111 0.12585 0.72539 0.0
O47 O 0.76971 0.05214 0.70812 0.0
O48 O 0.84309 0.08821 0.71244 0.0
C49 C 0.85065 0.06725 0.72155 0.0
O50 O 0.82813 0.05357 0.72902 0.0
O51 O 0.78807 0.12481 0.68872 0.0
Mg52 Mg 0.09303 0.2863 0.95793 0.0
C53 C 0.02552 0.28075 0.96548 0.0
O54 O 0.03596 0.30369 0.97367 0.0
C55 C 0.15175 0.2794 0.94034 0.0
O56 O 0.16326 0.28232 0.95331 0.0
C57 C 0.10455 0.23335 0.97798 0.0
O58 O 0.08136 0.22277 0.96995 0.0
O59 O 0.11532 0.26095 0.97561 0.0
O60 O 0.04462 0.26812 0.95663 0.0
O61 O 0.08716 0.33686 0.96142 0.0
C62 C 0.07615 0.35167 0.95069 0.0
O63 O 0.07213 0.33612 0.93868 0.0
O64 O 0.1218 0.27955 0.93871 0.0
Mg65 Mg 0.2902 0.92495 0.05224 0.0
C66 C 0.23796 0.97323 0.05084 0.0
O67 O 0.22178 0.94758 0.04781 0.0
C68 C 0.30941 0.88017 0.07576 0.0
O69 O 0.33681 0.88477 0.06942 0.0
C70 C 0.26381 0.8723 0.03332 0.0
O71 O 0.27807 0.85422 0.04273 0.0
O72 O 0.2666 0.9021 0.03434 0.0
O73 O 0.267 0.97059 0.05421 0.0
O74 O 0.33999 0.93553 0.04827 0.0
C75 C 0.34769 0.95635 0.03911 0.0
O76 O 0.32535 0.96955 0.03139 0.0
O77 O 0.28518 0.89476 0.0711 0.0
Mg78 Mg 0.92795 0.73058 0.95786 0.0
C79 C 0.99908 0.73609 0.96042 0.0
O80 O 0.99565 0.70538 0.9615 0.0
C81 C 0.87306 0.72382 0.93817 0.0
O82 O 0.86342 0.70933 0.94981 0.0
C83 C 0.88287 0.7764 0.97121 0.0
O84 O 0.87939 0.78281 0.95758 0.0
O85 O 0.90168 0.75438 0.97486 0.0
O86 O 0.97475 0.75293 0.95787 0.0
O87 O 0.93486 0.68026 0.96189 0.0
C88 C 0.93933 0.6627 0.95103 0.0
O89 O 0.93744 0.67536 0.93825 0.0
O90 O 0.90083 0.73563 0.93803 0.0
Mg91 Mg 0.72913 0.09926 0.05228 0.0
C92 C 0.7439 0.03768 0.04065 0.0
O93 O 0.72328 0.05051 0.0319 0.0
C94 C 0.71734 0.14854 0.07441 0.0
O95 O 0.69314 0.1521 0.06575 0.0
C96 C 0.75781 0.1528 0.03464 0.0
O97 O 0.75261 0.16872 0.04645 0.0
O98 O 0.74864 0.12424 0.03387 0.0
O99 O 0.7524 0.05337 0.0516 0.0
O100 O 0.67876 0.0883 0.05079 0.0
C101 C 0.66098 0.09344 0.04009 0.0
O102 O 0.67257 0.10817 0.02889 0.0
O103 O 0.73738 0.12688 0.07169 0.0
Mg104 Mg 0.59577 0.73243 0.80224 0.0
C105 C 0.52897 0.73671 0.79401 0.0
O106 O 0.54124 0.71578 0.78525 0.0
C107 C 0.65338 0.74518 0.82018 0.0
O108 O 0.6647 0.74934 0.80724 0.0
C109 C 0.60565 0.78657 0.78242 0.0
O110 O 0.5813 0.79589 0.79008 0.0
O111 O 0.61754 0.75949 0.7849 0.0
O112 O 0.54671 0.74868 0.80359 0.0
O113 O 0.59167 0.68192 0.79802 0.0
C114 C 0.58447 0.66511 0.80881 0.0
O115 O 0.58276 0.67878 0.82139 0.0
O116 O 0.6241 0.73861 0.82164 0.0
Mg117 Mg 0.73029 0.42539 0.20995 0.0
C118 C 0.74378 0.49598 0.20938 0.0
O119 O 0.7127 0.49713 0.20928 0.0
C120 C 0.75221 0.37413 0.18933 0.0
O121 O 0.77253 0.3691 0.1997 0.0
C122 C 0.76891 0.41244 0.23643 0.0
O123 O 0.77124 0.44334 0.2359 0.0
O124 O 0.75156 0.39838 0.22731 0.0
O125 O 0.7574 0.46923 0.20857 0.0
O126 O 0.68073 0.43735 0.21373 0.0
C127 C 0.67037 0.44894 0.22538 0.0
O128 O 0.68988 0.45238 0.23619 0.0
O129 O 0.73262 0.39684 0.1905 0.0
Mg130 Mg 0.42994 0.28861 0.80396 0.0
C131 C 0.4987 0.28055 0.79804 0.0
O132 O 0.49199 0.30675 0.79119 0.0
C133 C 0.37115 0.28568 0.82156 0.0
O134 O 0.36008 0.29037 0.80862 0.0
C135 C 0.40648 0.23215 0.79031 0.0
O136 O 0.4184 0.22343 0.80266 0.0
O137 O 0.40694 0.26137 0.78715 0.0
O138 O 0.477 0.26733 0.80537 0.0
O139 O 0.43741 0.33871 0.79962 0.0
C140 C 0.44755 0.35438 0.81028 0.0
O141 O 0.44996 0.33995 0.82266 0.0
O142 O 0.40101 0.28364 0.82324 0.0
Mg143 Mg 0.29332 0.59765 0.20983 0.0
C144 C 0.28277 0.53142 0.21801 0.0
O145 O 0.30566 0.54107 0.22643 0.0
C146 C 0.31068 0.64251 0.18627 0.0
O147 O 0.33779 0.63935 0.19299 0.0
C148 C 0.24429 0.61174 0.23206 0.0
O149 O 0.23265 0.58631 0.22599 0.0
O150 O 0.27083 0.62237 0.2277 0.0
O151 O 0.27183 0.55063 0.20879 0.0
O152 O 0.34395 0.5889 0.21262 0.0
C153 C 0.35934 0.59026 0.22428 0.0
O154 O 0.34475 0.59931 0.23599 0.0
O155 O 0.28688 0.62677 0.19068 0.0
Mg156 Mg 0.59477 0.78505 0.45998 0.0
C157 C 0.52399 0.78265 0.46334 0.0
O158 O 0.53011 0.81146 0.46772 0.0
C159 C 0.6532 0.77891 0.44211 0.0
O160 O 0.66503 0.78254 0.45499 0.0
C161 C 0.60251 0.74025 0.48484 0.0
O162 O 0.57202 0.73731 0.48243 0.0
O163 O 0.61833 0.75997 0.47744 0.0
O164 O 0.54665 0.76588 0.45852 0.0
O165 O 0.58999 0.83577 0.46354 0.0
C166 C 0.58329 0.85202 0.45252 0.0
O167 O 0.58218 0.8377 0.44007 0.0
O168 O 0.62322 0.77834 0.44066 0.0
Mg169 Mg 0.79349 0.42248 0.54997 0.0
C170 C 0.74246 0.47244 0.55065 0.0
O171 O 0.72469 0.44741 0.5485 0.0
C172 C 0.77067 0.37124 0.57082 0.0
O173 O 0.74842 0.36774 0.56115 0.0
C174 C 0.76927 0.37264 0.52829 0.0
O175 O 0.78914 0.35349 0.53472 0.0
O176 O 0.76763 0.40129 0.53229 0.0
O177 O 0.77197 0.46873 0.55274 0.0
O178 O 0.84293 0.43178 0.54483 0.0
C179 C 0.84996 0.45525 0.53696 0.0
O180 O 0.82696 0.47189 0.53126 0.0
O181 O 0.79146 0.3927 0.56908 0.0
Mg182 Mg 0.43285 0.23008 0.4568 0.0
C183 C 0.50398 0.23526 0.45905 0.0
O184 O 0.49965 0.20667 0.46411 0.0
C185 C 0.37528 0.2464 0.43882 0.0
O186 O 0.36592 0.25754 0.45122 0.0
C187 C 0.42049 0.28528 0.47533 0.0
O188 O 0.44093 0.296 0.46591 0.0
O189 O 0.41159 0.25661 0.47442 0.0
O190 O 0.48024 0.25037 0.45421 0.0
O191 O 0.43985 0.17997 0.46121 0.0
C192 C 0.4465 0.16302 0.45039 0.0
O193 O 0.44601 0.17621 0.43769 0.0
O194 O 0.40283 0.23436 0.43781 0.0
Mg195 Mg 0.23361 0.59096 0.55159 0.0
C196 C 0.28871 0.54589 0.54908 0.0
O197 O 0.30267 0.5721 0.54497 0.0
C198 C 0.21459 0.64173 0.57227 0.0
O199 O 0.19116 0.64265 0.56305 0.0
C200 C 0.2566 0.64488 0.53233 0.0
O201 O 0.24271 0.66249 0.54204 0.0
O202 O 0.25465 0.615 0.5333 0.0
O203 O 0.26026 0.54718 0.55352 0.0
O204 O 0.18488 0.57579 0.54836 0.0
C205 C 0.16506 0.58695 0.53948 0.0
O206 O 0.17343 0.61063 0.53123 0.0
O207 O 0.23648 0.62147 0.57043 0.0
C208 C 0.19078 0.30149 0.2776 0.0
C209 C 0.15955 0.29042 0.27621 0.0
C210 C 0.20324 0.32302 0.26779 0.0
C211 C 0.17891 0.38636 0.24383 0.0
H212 H 0.26675 0.38308 0.2318 0.0
C213 C 0.23921 0.49131 0.21456 0.0
C214 C 0.26876 0.49973 0.22033 0.0
C215 C 0.225 0.46244 0.21823 0.0
C216 C 0.24216 0.38439 0.23507 0.0
H217 H 0.1172 0.29263 0.26316 0.0
H218 H 0.13901 0.33064 0.24604 0.0
H219 H 0.24341 0.338 0.24414 0.0
H220 H 0.30713 0.48389 0.23396 0.0
H221 H 0.28254 0.43421 0.24036 0.0
H222 H 0.17806 0.43332 0.23534 0.0
C223 C 0.15377 0.32256 0.25476 0.0
C224 C 0.2288 0.35853 0.24212 0.0
C225 C 0.14137 0.30067 0.26451 0.0
C226 C 0.28431 0.47824 0.22934 0.0
C227 C 0.27028 0.44951 0.23293 0.0
C228 C 0.19234 0.41235 0.23683 0.0
C229 C 0.18473 0.33425 0.2564 0.0
C230 C 0.19731 0.35958 0.24696 0.0
C231 C 0.24025 0.44138 0.22761 0.0
C232 C 0.22444 0.41204 0.23277 0.0
H233 H 0.20544 0.29407 0.28647 0.0
H234 H 0.22704 0.33184 0.26947 0.0
H235 H 0.15463 0.38797 0.24751 0.0
H236 H 0.22662 0.5074 0.2076 0.0
H237 H 0.20194 0.45679 0.21387 0.0
C238 C 0.47671 0.73169 0.78184 0.0
C239 C 0.49605 0.74773 0.79166 0.0
C240 C 0.44688 0.74333 0.77826 0.0
C241 C 0.40234 0.8177 0.77658 0.0
H242 H 0.33395 0.76151 0.76564 0.0
C243 C 0.2887 0.86349 0.74887 0.0
C244 C 0.28195 0.84756 0.73604 0.0
C245 C 0.31036 0.85082 0.75865 0.0
C246 C 0.35277 0.77752 0.7687 0.0
H247 H 0.49864 0.78808 0.80587 0.0
H248 H 0.44609 0.80847 0.79966 0.0
H249 H 0.38025 0.7403 0.77788 0.0
H250 H 0.29121 0.80511 0.72378 0.0
H251 H 0.32847 0.78286 0.74088 0.0
H252 H 0.37505 0.85479 0.76708 0.0
C253 C 0.4543 0.78695 0.79462 0.0
C254 C 0.37936 0.76538 0.77568 0.0
C255 C 0.48431 0.77518 0.79825 0.0
C256 C 0.29594 0.81798 0.73356 0.0
C257 C 0.31719 0.80515 0.7434 0.0
C258 C 0.3756 0.82988 0.76968 0.0
C259 C 0.43542 0.77138 0.78441 0.0
C260 C 0.40497 0.78513 0.77928 0.0
C261 C 0.32526 0.82176 0.75588 0.0
C262 C 0.35098 0.80975 0.76526 0.0
H263 H 0.48494 0.71044 0.77657 0.0
H264 H 0.43335 0.73093 0.77019 0.0
H265 H 0.42167 0.83358 0.77906 0.0
H266 H 0.27841 0.88641 0.75106 0.0
H267 H 0.31596 0.86405 0.76822 0.0
C268 C 0.74678 0.55235 0.21738 0.0
C269 C 0.76233 0.52465 0.21297 0.0
C270 C 0.76391 0.57776 0.22296 0.0
C271 C 0.83961 0.59303 0.24132 0.0
H272 H 0.81167 0.68014 0.23947 0.0
C273 C 0.87594 0.68263 0.28398 0.0
C274 C 0.88333 0.71371 0.27993 0.0
C275 C 0.86305 0.66144 0.27418 0.0
C276 C 0.82007 0.65601 0.23997 0.0
H277 H 0.80834 0.50288 0.21002 0.0
H278 H 0.83833 0.54754 0.21936 0.0
H279 H 0.78693 0.6406 0.22411 0.0
H280 H 0.8825 0.74705 0.26236 0.0
H281 H 0.86005 0.70973 0.24508 0.0
H282 H 0.87284 0.60834 0.25707 0.0
C283 C 0.81277 0.54929 0.21891 0.0
C284 C 0.80564 0.63324 0.23126 0.0
C285 C 0.79559 0.52374 0.21344 0.0
C286 C 0.87705 0.72326 0.26582 0.0
C287 C 0.86412 0.70191 0.25594 0.0
C288 C 0.85407 0.61574 0.24994 0.0
C289 C 0.79709 0.57625 0.22417 0.0
C290 C 0.81478 0.60131 0.23205 0.0
C291 C 0.85727 0.67062 0.25999 0.0
C292 C 0.84398 0.64737 0.24965 0.0
H293 H 0.72118 0.55388 0.21718 0.0
H294 H 0.75091 0.5979 0.22701 0.0
H295 H 0.84714 0.56872 0.24239 0.0
H296 H 0.88019 0.67448 0.29478 0.0
H297 H 0.85737 0.6378 0.27778 0.0
C298 C 0.55392 0.28175 0.78851 0.0
C299 C 0.52974 0.26511 0.79558 0.0
C300 C 0.58166 0.26649 0.78426 0.0
C301 C 0.63022 0.1942 0.78853 0.0
H302 H 0.65494 0.21293 0.74952 0.0
C303 C 0.71786 0.11696 0.75584 0.0
C304 C 0.73757 0.13199 0.7458 0.0
C305 C 0.69518 0.13418 0.76349 0.0
C306 C 0.64883 0.20776 0.76051 0.0
H307 H 0.51649 0.21968 0.80443 0.0
H308 H 0.56506 0.19283 0.79689 0.0
H309 H 0.61076 0.24093 0.76022 0.0
H310 H 0.75012 0.17724 0.73655 0.0
H311 H 0.71117 0.20734 0.75009 0.0
H312 H 0.66829 0.1607 0.78871 0.0
C313 C 0.56254 0.21781 0.79471 0.0
C314 C 0.62338 0.22383 0.76666 0.0
C315 C 0.53468 0.23317 0.79901 0.0
C316 C 0.73513 0.16486 0.7441 0.0
C317 C 0.71261 0.18209 0.7518 0.0
C318 C 0.65587 0.17813 0.78238 0.0
C319 C 0.58595 0.23413 0.78693 0.0
C320 C 0.6137 0.21727 0.78073 0.0
C321 C 0.69179 0.16687 0.76134 0.0
C322 C 0.66545 0.18468 0.76826 0.0
H323 H 0.55107 0.30648 0.78585 0.0
H324 H 0.59951 0.27993 0.77858 0.0
H325 H 0.62349 0.18876 0.79942 0.0
H326 H 0.71906 0.09166 0.75741 0.0
H327 H 0.67944 0.1216 0.77065 0.0
C328 C 0.24278 0.03216 0.04843 0.0
C329 C 0.22392 1.00477 0.04815 0.0
C330 C 0.23045 0.06122 0.04398 0.0
C331 C 0.1552 0.10298 0.03543 0.0
H332 H 0.20709 0.14922 0.00835 0.0
C333 C 0.10241 0.18459 0.99288 0.0
C334 C 0.1183 0.21252 0.98907 0.0
C335 C 0.1158 0.16346 1.00257 0.0
C336 C 0.19249 0.137 0.0161 0.0
H337 H 0.17686 0.98683 0.04364 0.0
H338 H 0.15549 0.03723 0.03584 0.0
H339 H 0.22955 0.10442 0.02117 0.0
H340 H 0.16049 0.24053 0.99274 0.0
H341 H 0.18415 0.20328 0.00971 0.0
H342 H 0.11783 0.1349 0.02998 0.0
C343 C 0.17974 0.03643 0.03958 0.0
C344 C 0.20536 0.11127 0.02346 0.0
C345 C 0.19207 1.00741 0.04398 0.0
C346 C 0.14767 0.21921 0.99546 0.0
C347 C 0.16127 0.19783 1.00511 0.0
C348 C 0.14234 0.12864 0.02806 0.0
C349 C 0.19895 0.06357 0.03922 0.0
C350 C 0.18662 0.09344 0.03294 0.0
C351 C 0.14555 0.16957 0.00868 0.0
C352 C 0.16057 0.14542 0.01802 0.0
H353 H 0.26741 0.03099 0.05161 0.0
H354 H 0.24576 0.08175 0.04401 0.0
H355 H 0.14029 0.09016 0.04286 0.0
H356 H 0.0797 0.1787 0.9882 0.0
H357 H 0.10324 0.14175 1.00489 0.0
C358 C 0.22024 0.87777 0.01526 0.0
C359 C 0.24144 0.85841 0.02284 0.0
C360 C 0.19673 0.86449 0.00661 0.0
C361 C 0.15214 0.78977 1.00218 0.0
H362 H 0.12097 0.82992 0.96772 0.0
C363 C 0.05565 0.73151 0.96804 0.0
C364 C 0.02988 0.75076 0.96422 0.0
C365 C 0.08343 0.74473 0.97349 0.0
C366 C 0.12936 0.81854 0.97736 0.0
H367 H 0.25558 0.80995 0.02664 0.0
H368 H 0.21524 0.78682 0.01126 0.0
H369 H 0.16662 0.85233 0.98019 0.0
H370 H 0.01382 0.79923 0.96246 0.0
H371 H 0.06257 0.82238 0.97196 0.0
H372 H 0.11497 0.75605 0.99937 0.0
C373 C 0.21613 0.81226 0.01231 0.0
C374 C 0.15548 0.83139 0.98454 0.0
C375 C 0.23946 0.82553 0.02106 0.0
C376 C 0.0332 0.78372 0.96531 0.0
C377 C 0.06116 0.797 0.97072 0.0
C378 C 0.12627 0.77685 0.99496 0.0
C379 C 0.19397 0.83152 1.00523 0.0
C380 C 0.16713 0.81724 0.9971 0.0
C381 C 0.08625 0.77756 0.97521 0.0
C382 C 0.11447 0.79111 0.9825 0.0
H383 H 0.22101 0.9032 0.01642 0.0
H384 H 0.17996 0.88011 1.00147 0.0
H385 H 0.15984 0.77859 0.01198 0.0
H386 H 0.05407 0.70605 0.96725 0.0
H387 H 0.10254 0.72916 0.97661 0.0
C388 C 0.83963 0.81354 0.97796 0.0
C389 C 0.86653 0.7962 0.98196 0.0
C390 C 0.82549 0.83457 0.9875 0.0
C391 C 0.84391 0.8868 0.01699 0.0
H392 H 0.75257 0.8941 0.01971 0.0
C393 C 0.78213 0.99291 0.04519 0.0
C394 C 0.75709 1.00609 0.0373 0.0
C395 C 0.79508 0.96363 0.04126 0.0
C396 C 0.77813 0.89245 0.01906 0.0
H397 H 0.89943 0.78685 0.9992 0.0
H398 H 0.8749 0.82439 0.0159 0.0
H399 H 0.77589 0.84874 0.0076 0.0
H400 H 0.72569 0.9985 0.01926 0.0
H401 H 0.74824 0.94825 0.01241 0.0
H402 H 0.84613 0.93137 0.02781 0.0
C403 C 0.86473 0.82137 1.00537 0.0
C404 C 0.79145 0.86639 0.01217 0.0
C405 C 0.87861 0.79981 0.99586 0.0
C406 C 0.74494 0.98913 0.02562 0.0
C407 C 0.75772 0.96004 0.02174 0.0
C408 C 0.83055 0.91308 0.02381 0.0
C409 C 0.83815 0.83912 1.00123 0.0
C410 C 0.82444 0.86377 0.01067 0.0
C411 C 0.78304 0.94691 0.02944 0.0
C412 C 0.79745 0.91672 0.02449 0.0
H413 H 0.82973 0.81124 0.96734 0.0
H414 H 0.80526 0.84816 0.98394 0.0
H415 H 0.86943 0.88546 0.01592 0.0
H416 H 0.79201 1.0054 0.05425 0.0
H417 H 0.8145 0.9541 0.04745 0.0
C418 C 0.78999 0.1475 0.01214 0.0
C419 C 0.77813 0.16649 0.02326 0.0
C420 C 0.81248 0.15944 1.00254 0.0
C421 C 0.84961 0.23366 0.98945 0.0
H422 H 0.92412 0.18143 0.98413 0.0
C423 C 0.97174 0.28533 0.97635 0.0
C424 C 0.99309 0.2683 0.96777 0.0
C425 C 0.94237 0.27257 0.98003 0.0
C426 C 0.90327 0.19613 0.98522 0.0
H427 H 0.77944 0.2134 0.03255 0.0
H428 H 0.8185 0.23414 0.01587 0.0
H429 H 0.87777 0.15974 0.99618 0.0
H430 H 0.99978 0.22491 0.95586 0.0
H431 H 0.94814 0.20251 0.96229 0.0
H432 H 0.87543 0.27033 0.97885 0.0
C433 C 0.8104 0.21006 0.0145 0.0
C434 C 0.87666 0.18368 0.99216 0.0
C435 C 0.7881 0.19809 0.02413 0.0
C436 C 0.98385 0.23862 0.96248 0.0
C437 C 0.95438 0.22572 0.96625 0.0
C438 C 0.87617 0.24607 0.98249 0.0
C439 C 0.8234 0.1907 1.00378 0.0
C440 C 0.84983 0.20256 0.99469 0.0
C441 C 0.93351 0.24236 0.97527 0.0
C442 C 0.90366 0.22775 0.98064 0.0
H443 H 0.78279 0.12305 0.01114 0.0
H444 H 0.82175 0.14403 0.9943 0.0
H445 H 0.82912 0.24865 0.991 0.0
H446 H 0.97803 0.3083 0.98057 0.0
H447 H 0.92718 0.28593 0.98714 0.0
C448 C 0.60298 0.83572 0.76776 0.0
C449 C 0.61954 0.80828 0.77169 0.0
C450 C 0.61648 0.85767 0.75845 0.0
C451 C 0.69349 0.88715 0.74639 0.0
H452 H 0.64273 0.93221 0.71856 0.0
C453 C 0.74523 0.99092 0.71381 0.0
C454 C 0.72597 0.01795 0.71297 0.0
C455 C 0.73281 0.96219 0.71864 0.0
C456 C 0.65721 0.91997 0.72632 0.0
H457 H 0.66307 0.78202 0.76861 0.0
H458 H 0.68687 0.82066 0.75231 0.0
H459 H 0.62013 0.88718 0.73123 0.0
H460 H 0.67823 0.03557 0.71604 0.0
H461 H 0.6567 0.98573 0.72458 0.0
H462 H 0.73023 0.92049 0.74184 0.0
C463 C 0.66339 0.82512 0.75653 0.0
C464 C 0.64427 0.89412 0.73357 0.0
C465 C 0.64971 0.80292 0.76579 0.0
C466 C 0.69374 0.01524 0.71652 0.0
C467 C 0.68133 0.98655 0.72136 0.0
C468 C 0.70642 0.91307 0.73917 0.0
C469 C 0.647 0.85289 0.75286 0.0
C470 C 0.66202 0.87781 0.74391 0.0
C471 C 0.70084 0.95979 0.72274 0.0
C472 C 0.68822 0.93021 0.72925 0.0
H473 H 0.57966 0.84058 0.77206 0.0
H474 H 0.60336 0.87896 0.75602 0.0
H475 H 0.70769 0.87535 0.7544 0.0
H476 H 0.77016 0.9921 0.71111 0.0
H477 H 0.74839 0.94195 0.71936 0.0
C478 C 0.99181 0.2931 0.29876 0.0
C479 C 0.99394 0.26004 0.29775 0.0
C480 C 0.96424 0.30882 0.29443 0.0
C481 C 0.89734 0.29789 0.2698 0.0
H482 H 0.86262 0.37199 0.2884 0.0
C483 C 0.7882 0.36106 0.24665 0.0
C484 C 0.78951 0.39421 0.24626 0.0
C485 C 0.81008 0.34389 0.25475 0.0
C486 C 0.87215 0.35144 0.28302 0.0
H487 H 0.96801 0.21749 0.29225 0.0
H488 H 0.92009 0.2448 0.28486 0.0
H489 H 0.90682 0.34381 0.2994 0.0
H490 H 0.81413 0.4353 0.25454 0.0
H491 H 0.85251 0.40546 0.26837 0.0
H492 H 0.86353 0.30581 0.25324 0.0
C493 C 0.93989 0.25866 0.28871 0.0
C494 C 0.89747 0.33529 0.28934 0.0
C495 C 0.96736 0.243 0.29302 0.0
C496 C 0.81239 0.40979 0.2546 0.0
C497 C 0.83436 0.39263 0.26262 0.0
C498 C 0.8722 0.31406 0.26346 0.0
C499 C 0.93827 0.29179 0.289 0.0
C500 C 0.91045 0.3084 0.28276 0.0
C501 C 0.83392 0.35943 0.26258 0.0
C502 C 0.85936 0.34118 0.26992 0.0
H503 H 0.01186 0.30695 0.30235 0.0
H504 H 0.96382 0.33438 0.29473 0.0
H505 H 0.90714 0.27762 0.26429 0.0
H506 H 0.77075 0.34831 0.24044 0.0
H507 H 0.8086 0.31836 0.25469 0.0
C508 C 0.28665 0.02156 0.71669 0.0
C509 C 0.28716 0.99525 0.72586 0.0
C510 C 0.30245 0.04951 0.72052 0.0
C511 C 0.36563 0.07991 0.74401 0.0
H512 H 0.3167 0.15722 0.7463 0.0
C513 C 0.39589 0.17585 0.78424 0.0
C514 C 0.39402 0.20784 0.78037 0.0
C515 C 0.3851 0.15232 0.77505 0.0
C516 C 0.33091 0.13603 0.74547 0.0
H517 H 0.3055 0.97716 0.74587 0.0
H518 H 0.33332 0.02527 0.75234 0.0
H519 H 0.29451 0.11097 0.73413 0.0
H520 H 0.37891 0.24021 0.76379 0.0
H521 H 0.35972 0.19868 0.74761 0.0
H522 H 0.4016 0.10434 0.75566 0.0
C523 C 0.32072 0.02456 0.74227 0.0
C524 C 0.31822 0.10957 0.73849 0.0
C525 C 0.3046 0.99702 0.73859 0.0
C526 C 0.38071 0.21577 0.76707 0.0
C527 C 0.36968 0.19203 0.75783 0.0
C528 C 0.37831 0.10625 0.75089 0.0
C529 C 0.31953 0.05125 0.73339 0.0
C530 C 0.33503 0.08092 0.73817 0.0
C531 C 0.37208 0.16 0.7617 0.0
C532 C 0.36064 0.13424 0.75219 0.0
H533 H 0.27322 0.02088 0.70684 0.0
H534 H 0.30119 0.06976 0.71348 0.0
H535 H 0.37934 0.0583 0.7437 0.0
H536 H 0.40581 0.16878 0.79441 0.0
H537 H 0.38664 0.12797 0.77852 0.0
C538 C 0.05852 0.77781 0.29898 0.0
C539 C 0.03006 0.76124 0.30119 0.0
C540 C 0.08575 0.76208 0.29431 0.0
C541 C 0.12135 0.68238 0.28912 0.0
H542 H 0.16617 0.72344 0.25805 0.0
C543 C 0.19762 0.61453 0.24844 0.0
C544 C 0.22524 0.62863 0.24297 0.0
C545 C 0.17776 0.63106 0.25774 0.0
C546 C 0.15436 0.71184 0.26689 0.0
H547 H 1.00836 0.71482 0.30084 0.0
H548 H 0.05567 0.68746 0.29253 0.0
H549 H 0.12411 0.75152 0.2705 0.0
H550 H 0.25421 0.6709 0.24338 0.0
H551 H 0.21936 0.69992 0.25969 0.0
H552 H 0.15106 0.64232 0.28516 0.0
C553 C 0.05711 0.71259 0.29455 0.0
C554 C 0.13018 0.72796 0.27405 0.0
C555 C 0.02988 0.72832 0.29927 0.0
C556 C 0.23309 0.65938 0.24739 0.0
C557 C 0.21303 0.67605 0.25666 0.0
C558 C 0.14551 0.66623 0.28193 0.0
C559 C 0.08519 0.72939 0.29169 0.0
C560 C 0.11297 0.71324 0.28509 0.0
C561 C 0.1849 0.6622 0.26179 0.0
C562 C 0.16189 0.68056 0.27055 0.0
H563 H 0.05959 0.80315 0.30047 0.0
H564 H 0.10711 0.77568 0.29249 0.0
H565 H 0.10899 0.67052 0.29772 0.0
H566 H 0.19088 0.59084 0.2453 0.0
H567 H 0.15613 0.61978 0.26132 0.0
C568 C 0.74944 0.53067 0.54668 0.0
C569 C 0.72925 0.50448 0.54833 0.0
C570 C 0.73732 0.55997 0.54247 0.0
C571 C 0.66348 0.60658 0.53896 0.0
H572 H 0.70607 0.64486 0.50657 0.0
C573 C 0.6009 0.69436 0.50163 0.0
C574 C 0.61841 0.71843 0.49494 0.0
C575 C 0.6159 0.67183 0.51015 0.0
C576 C 0.69416 0.63497 0.5158 0.0
H577 H 0.68031 0.48902 0.54757 0.0
H578 H 0.65919 0.54012 0.54035 0.0
H579 H 0.72957 0.59923 0.51828 0.0
H580 H 0.66539 0.73838 0.49244 0.0
H581 H 0.69158 0.69936 0.5076 0.0
H582 H 0.62788 0.64205 0.53641 0.0
C583 C 0.68439 0.53802 0.5423 0.0
C584 C 0.70765 0.60871 0.5225 0.0
C585 C 0.69652 0.50867 0.54638 0.0
C586 C 0.65122 0.72006 0.49739 0.0
C587 C 0.66625 0.69755 0.506 0.0
C588 C 0.6501 0.63298 0.53233 0.0
C589 C 0.70473 0.56382 0.53996 0.0
C590 C 0.69213 0.59381 0.53396 0.0
C591 C 0.64883 0.67283 0.51232 0.0
C592 C 0.66489 0.64711 0.52045 0.0
H593 H 0.77478 0.52829 0.54809 0.0
H594 H 0.75354 0.5795 0.54091 0.0
H595 H 0.65118 0.59589 0.5479 0.0
H596 H 0.5756 0.69226 0.49996 0.0
H597 H 0.6017 0.65293 0.5146 0.0
C598 C 0.72531 0.3812 0.51073 0.0
C599 C 0.74652 0.36051 0.51754 0.0
C600 C 0.70186 0.36961 0.50159 0.0
C601 C 0.67623 0.29858 0.48119 0.0
H602 H 0.59239 0.3339 0.4867 0.0
C603 C 0.56121 0.23347 0.46584 0.0
C604 C 0.53497 0.25106 0.46116 0.0
C605 C 0.58916 0.24855 0.46998 0.0
C606 C 0.61571 0.32414 0.48479 0.0
H607 H 0.76034 0.31143 0.51965 0.0
H608 H 0.71917 0.29115 0.50386 0.0
H609 H 0.63729 0.35687 0.49919 0.0
H610 H 0.51817 0.29828 0.45642 0.0
H611 H 0.56716 0.32466 0.46359 0.0
H612 H 0.65431 0.26524 0.46708 0.0
C613 C 0.72089 0.31642 0.50545 0.0
C614 C 0.64153 0.33731 0.49198 0.0
C615 C 0.74442 0.32804 0.51458 0.0
C616 C 0.53792 0.28403 0.45999 0.0
C617 C 0.5659 0.29916 0.46421 0.0
C618 C 0.65035 0.28536 0.474 0.0
C619 C 0.69895 0.33702 0.49904 0.0
C620 C 0.67206 0.32442 0.49045 0.0
C621 C 0.59158 0.28164 0.46959 0.0
C622 C 0.61969 0.29768 0.47589 0.0
H623 H 0.72637 0.40639 0.51267 0.0
H624 H 0.68575 0.38621 0.49665 0.0
H625 H 0.69948 0.28838 0.47957 0.0
H626 H 0.5598 0.20802 0.46682 0.0
H627 H 0.60831 0.23431 0.47417 0.0
C628 C 0.33483 0.51374 0.54061 0.0
C629 C 0.30407 0.51496 0.54634 0.0
C630 C 0.34785 0.48506 0.53614 0.0
C631 C 0.32326 0.40705 0.52294 0.0
H632 H 0.41326 0.38959 0.52506 0.0
C633 C 0.38083 0.29927 0.49449 0.0
C634 C 0.40785 0.30692 0.4864 0.0
C635 C 0.36821 0.3211 0.50425 0.0
C636 C 0.38806 0.39411 0.52438 0.0
H637 H 0.26348 0.48662 0.55253 0.0
H638 H 0.28638 0.43647 0.54483 0.0
H639 H 0.39131 0.4343 0.53818 0.0
H640 H 0.44334 0.34303 0.48254 0.0
H641 H 0.42151 0.38071 0.49942 0.0
H642 H 0.32021 0.3673 0.50883 0.0
C643 C 0.30023 0.45783 0.54361 0.0
C644 C 0.37549 0.41977 0.53188 0.0
C645 C 0.28721 0.48657 0.54812 0.0
C646 C 0.42244 0.33637 0.48856 0.0
C647 C 0.41007 0.35794 0.49835 0.0
C648 C 0.33585 0.38131 0.51545 0.0
C649 C 0.33046 0.45682 0.53728 0.0
C650 C 0.34307 0.42708 0.53095 0.0
C651 C 0.38264 0.35076 0.50621 0.0
C652 C 0.36854 0.37508 0.51578 0.0
H653 H 0.3485 0.53512 0.53909 0.0
H654 H 0.37104 0.48529 0.53118 0.0
H655 H 0.29825 0.41213 0.52185 0.0
H656 H 0.36904 0.27677 0.49306 0.0
H657 H 0.34712 0.31483 0.51021 0.0
C658 C 0.48715 0.73611 0.4655 0.0
C659 C 0.49227 0.76889 0.46611 0.0
C660 C 0.45844 0.72314 0.47025 0.0
C661 C 0.39421 0.74164 0.49545 0.0
H662 H 0.3515 0.66992 0.47839 0.0
C663 C 0.28021 0.69243 0.52043 0.0
C664 C 0.27814 0.65944 0.52166 0.0
C665 C 0.30333 0.7063 0.51175 0.0
C666 C 0.36327 0.68984 0.48333 0.0
H667 H 0.47048 0.81387 0.47127 0.0
H668 H 0.42059 0.79136 0.47935 0.0
H669 H 0.39772 0.69293 0.46649 0.0
H670 H 0.29791 0.6151 0.5142 0.0
H671 H 0.33852 0.63927 0.49928 0.0
H672 H 0.36061 0.73827 0.51244 0.0
C673 C 0.4389 0.77558 0.47551 0.0
C674 C 0.38973 0.70302 0.4765 0.0
C675 C 0.46749 0.78849 0.4708 0.0
C676 C 0.2988 0.64061 0.51349 0.0
C677 C 0.32206 0.6545 0.50487 0.0
C678 C 0.36794 0.72846 0.50227 0.0
C679 C 0.43434 0.74271 0.4757 0.0
C680 C 0.40554 0.72906 0.48251 0.0
C681 C 0.32511 0.68753 0.50415 0.0
C682 C 0.35213 0.70233 0.49635 0.0
H683 H 0.50578 0.72036 0.46197 0.0
H684 H 0.45573 0.69771 0.4703 0.0
H685 H 0.40621 0.76125 0.50054 0.0
H686 H 0.26451 0.70763 0.52647 0.0
H687 H 0.30451 0.73182 0.51122 0.0
C688 C 0.32345 0.26112 0.42756 0.0
C689 C 0.35308 0.2461 0.42651 0.0
C690 C 0.30165 0.2595 0.41633 0.0
C691 C 0.28001 0.21067 0.38526 0.0
H692 H 0.23075 0.28372 0.37394 0.0
C693 C 0.19955 0.20828 0.33551 0.0
C694 C 0.17058 0.22462 0.33595 0.0
C695 C 0.22159 0.21137 0.34655 0.0
C696 C 0.24396 0.26295 0.37708 0.0
H697 H 0.38316 0.21799 0.41267 0.0
H698 H 0.34508 0.21518 0.39306 0.0
H699 H 0.27004 0.28869 0.39291 0.0
H700 H 0.14201 0.25692 0.34847 0.0
H701 H 0.18021 0.26181 0.36795 0.0
H702 H 0.25374 0.18475 0.36964 0.0
C703 C 0.33865 0.22802 0.40265 0.0
C704 C 0.2666 0.26585 0.38794 0.0
C705 C 0.36057 0.22982 0.41385 0.0
C706 C 0.16413 0.24407 0.34777 0.0
C707 C 0.18616 0.24702 0.3589 0.0
C708 C 0.25726 0.20771 0.37448 0.0
C709 C 0.30882 0.24266 0.40379 0.0
C710 C 0.28497 0.23976 0.39213 0.0
C711 C 0.21524 0.23071 0.35843 0.0
C712 C 0.23898 0.23383 0.37019 0.0
H713 H 0.31686 0.27386 0.43714 0.0
H714 H 0.27882 0.27078 0.41764 0.0
H715 H 0.29333 0.18996 0.38839 0.0
H716 H 0.20547 0.19328 0.32652 0.0
H717 H 0.24388 0.19891 0.34562 0.0
C718 C 0.24009 0.66412 0.59443 0.0
C719 C 0.21569 0.66482 0.58422 0.0
C720 C 0.24084 0.68624 0.60559 0.0
C721 C 0.1889 0.74198 0.62536 0.0
H722 H 0.26813 0.77809 0.63844 0.0
C723 C 0.19542 0.81694 0.67659 0.0
C724 C 0.21514 0.8437 0.67668 0.0
C725 C 0.19629 0.79555 0.66523 0.0
C726 C 0.24576 0.76845 0.63483 0.0
H727 H 0.17321 0.68969 0.57766 0.0
H728 H 0.17476 0.72823 0.59687 0.0
H729 H 0.26827 0.74022 0.61873 0.0
H730 H 0.25139 0.86886 0.66484 0.0
H731 H 0.25259 0.83163 0.64483 0.0
H732 H 0.16626 0.77058 0.64117 0.0
C733 C 0.19303 0.71032 0.59647 0.0
C734 C 0.24588 0.7464 0.62365 0.0
C735 C 0.19224 0.68824 0.58538 0.0
C736 C 0.23586 0.84851 0.6651 0.0
C737 C 0.2367 0.82704 0.65368 0.0
C738 C 0.18877 0.76397 0.63649 0.0
C739 C 0.21723 0.70958 0.60678 0.0
C740 C 0.21742 0.73287 0.61876 0.0
C741 C 0.21683 0.8003 0.65359 0.0
C742 C 0.21719 0.77744 0.64144 0.0
H743 H 0.25854 0.64641 0.59385 0.0
H744 H 0.25965 0.68473 0.61341 0.0
H745 H 0.16654 0.73183 0.62203 0.0
H746 H 0.17931 0.81231 0.68535 0.0
H747 H 0.18107 0.77499 0.66569 0.0
C748 C 0.70773 0.77561 0.43161 0.0
C749 C 0.67475 0.77684 0.42958 0.0
C750 C 0.7284 0.77491 0.41993 0.0
C751 C 0.73333 0.79594 0.38175 0.0
H752 H 0.80836 0.74317 0.38223 0.0
C753 C 0.81492 0.78464 0.33248 0.0
C754 C 0.84783 0.78362 0.33473 0.0
C755 C 0.7938 0.7827 0.34396 0.0
C756 C 0.78773 0.75834 0.38199 0.0
H757 H 0.63765 0.77788 0.41359 0.0
H758 H 0.6738 0.77657 0.39315 0.0
H759 H 0.77124 0.74125 0.40222 0.0
H760 H 0.88431 0.77958 0.3509 0.0
H761 H 0.84742 0.77665 0.37101 0.0
H762 H 0.74991 0.81334 0.36163 0.0
C763 C 0.68365 0.77642 0.40383 0.0
C764 C 0.76638 0.75718 0.39344 0.0
C765 C 0.66292 0.77697 0.41554 0.0
C766 C 0.85911 0.78037 0.34878 0.0
C767 C 0.83792 0.77852 0.36031 0.0
C768 C 0.75471 0.79718 0.37032 0.0
C769 C 0.71668 0.77554 0.40588 0.0
C770 C 0.73893 0.77601 0.39348 0.0
C771 C 0.80496 0.7798 0.35805 0.0
C772 C 0.78223 0.77842 0.37028 0.0
H773 H 0.71773 0.7755 0.44226 0.0
H774 H 0.75366 0.77463 0.42192 0.0
H775 H 0.71274 0.81117 0.38153 0.0
H776 H 0.80534 0.7869 0.3218 0.0
H777 H 0.76863 0.78319 0.34175 0.0
C778 C 0.77819 0.16551 0.66439 0.0
C779 C 0.79989 0.17206 0.67539 0.0
C780 C 0.77467 0.1864 0.65287 0.0
C781 C 0.81576 0.25116 0.63367 0.0
H782 H 0.73171 0.27274 0.62024 0.0
C783 C 0.79553 0.35338 0.59385 0.0
C784 C 0.77269 0.3491 0.58311 0.0
C785 C 0.79829 0.33168 0.60507 0.0
C786 C 0.75539 0.26671 0.62372 0.0
H787 H 0.83506 0.20566 0.6828 0.0
H788 H 0.8289 0.24184 0.66283 0.0
H789 H 0.73786 0.23432 0.63946 0.0
H790 H 0.73469 0.3186 0.57582 0.0
H791 H 0.73984 0.2806 0.5952 0.0
H792 H 0.83339 0.28331 0.61793 0.0
C793 C 0.81477 0.2205 0.663 0.0
C794 C 0.7589 0.24465 0.63476 0.0
C795 C 0.81816 0.19977 0.67452 0.0
C796 C 0.75245 0.32277 0.58395 0.0
C797 C 0.75531 0.30099 0.59512 0.0
C798 C 0.81227 0.2731 0.62261 0.0
C799 C 0.79292 0.21417 0.65205 0.0
C800 C 0.78913 0.23674 0.63993 0.0
C801 C 0.77841 0.30502 0.6058 0.0
C802 C 0.78203 0.28135 0.61753 0.0
H803 H 0.76374 0.14439 0.66472 0.0
H804 H 0.75784 0.18065 0.64454 0.0
H805 H 0.83942 0.24525 0.63723 0.0
H806 H 0.81142 0.37346 0.59359 0.0
H807 H 0.81598 0.33592 0.61322 0.0
C808 C 0.16221 0.27789 0.91381 0.0
C809 C 0.17363 0.27736 0.92792 0.0
C810 C 0.18327 0.27736 0.90222 0.0
C811 C 0.26621 0.25764 0.89226 0.0
H812 H 0.25077 0.31389 0.86038 0.0
C813 C 0.35995 0.2803 0.84793 0.0
C814 C 0.3489 0.28328 0.83383 0.0
C815 C 0.33857 0.27868 0.8594 0.0
C816 C 0.25529 0.29773 0.8691 0.0
H817 H 0.21624 0.27537 0.94084 0.0
H818 H 0.25273 0.27458 0.92071 0.0
H819 H 0.21314 0.31193 0.88011 0.0
H820 H 0.30659 0.28641 0.82076 0.0
H821 H 0.26958 0.28316 0.84061 0.0
H822 H 0.30839 0.24345 0.88125 0.0
C823 C 0.22754 0.27514 0.91856 0.0
C824 C 0.23364 0.29659 0.88043 0.0
C825 C 0.20654 0.27579 0.93013 0.0
C826 C 0.31602 0.28431 0.83147 0.0
C827 C 0.29471 0.28265 0.8429 0.0
C828 C 0.28785 0.25872 0.88091 0.0
C829 C 0.21623 0.27614 0.90445 0.0
C830 C 0.23884 0.2766 0.89218 0.0
C831 C 0.30565 0.27999 0.85703 0.0
C832 C 0.2827 0.27881 0.86918 0.0
H833 H 0.13701 0.27907 0.91172 0.0
H834 H 0.17372 0.27779 0.89149 0.0
H835 H 0.27077 0.24164 0.90105 0.0
H836 H 0.38511 0.2795 0.85014 0.0
H837 H 0.34788 0.27696 0.87014 0.0
C838 C 0.2784 0.67447 0.16878 0.0
C839 C 0.30799 0.66561 0.17438 0.0
C840 C 0.27632 0.69803 0.15827 0.0
C841 C 0.32242 0.7654 0.14346 0.0
H842 H 0.26415 0.75982 0.11158 0.0
C843 C 0.33451 0.8444 0.09377 0.0
C844 C 0.30692 0.85726 0.08773 0.0
C845 C 0.33262 0.82203 0.10471 0.0
C846 C 0.28027 0.7619 0.12052 0.0
H847 H 0.35863 0.67376 0.17291 0.0
H848 H 0.35507 0.71399 0.15453 0.0
H849 H 0.2646 0.71818 0.12969 0.0
H850 H 0.25559 0.85657 0.08849 0.0
H851 H 0.25229 0.81725 0.10764 0.0
H852 H 0.33848 0.80874 0.13421 0.0
C853 C 0.33334 0.7035 0.15847 0.0
C854 C 0.28053 0.73803 0.13091 0.0
C855 C 0.3354 0.68017 0.16896 0.0
C856 C 0.27731 0.84722 0.09294 0.0
C857 C 0.27541 0.82454 0.10384 0.0
C858 C 0.32226 0.78908 0.13307 0.0
C859 C 0.30378 0.71316 0.15312 0.0
C860 C 0.30197 0.73924 0.14241 0.0
C861 C 0.30308 0.81171 0.10986 0.0
C862 C 0.30151 0.78745 0.12137 0.0
H863 H 0.25681 0.66376 0.17274 0.0
H864 H 0.25313 0.70494 0.15446 0.0
H865 H 0.33868 0.76762 0.15234 0.0
H866 H 0.35772 0.85151 0.09001 0.0
H867 H 0.35439 0.81236 0.10896 0.0
C868 C 0.86113 0.74112 0.91295 0.0
C869 C 0.85115 0.72734 0.92586 0.0
C870 C 0.83995 0.74451 0.90151 0.0
C871 C 0.75416 0.74775 0.8932 0.0
H872 H 0.78082 0.72663 0.85474 0.0
C873 C 0.66517 0.73626 0.84627 0.0
C874 C 0.67512 0.74621 0.83265 0.0
C875 C 0.68654 0.73544 0.85772 0.0
C876 C 0.77303 0.73309 0.86537 0.0
H877 H 0.81099 0.70635 0.93683 0.0
H878 H 0.77435 0.71223 0.91698 0.0
H879 H 0.81856 0.72281 0.87434 0.0
H880 H 0.71518 0.76401 0.82055 0.0
H881 H 0.75206 0.76322 0.84047 0.0
H882 H 0.70868 0.75813 0.88427 0.0
C883 C 0.7984 0.72067 0.9157 0.0
C884 C 0.79474 0.73086 0.87662 0.0
C885 C 0.81955 0.71709 0.92706 0.0
C886 C 0.70671 0.75598 0.83085 0.0
C887 C 0.72799 0.75531 0.84229 0.0
C888 C 0.73249 0.75013 0.88194 0.0
C889 C 0.80827 0.73444 0.90278 0.0
C890 C 0.78553 0.73796 0.8907 0.0
C891 C 0.71836 0.74467 0.85585 0.0
C892 C 0.74156 0.74269 0.86787 0.0
H893 H 0.88528 0.7493 0.91167 0.0
H894 H 0.84827 0.75543 0.89174 0.0
H895 H 0.74639 0.75385 0.90389 0.0
H896 H 0.64105 0.72844 0.84802 0.0
H897 H 0.67829 0.72678 0.86795 0.0
C898 C 0.74742 0.16769 0.09602 0.0
C899 C 0.7217 0.17063 0.08659 0.0
C900 C 0.75151 0.18925 0.10726 0.0
C901 C 0.70773 0.24927 0.12863 0.0
H902 H 0.79167 0.27986 0.13813 0.0
C903 C 0.72657 0.35498 0.16668 0.0
C904 C 0.75062 0.35212 0.17698 0.0
C905 C 0.7239 0.33294 0.15559 0.0
C906 C 0.76809 0.27134 0.13569 0.0
H907 H 0.68016 0.19868 0.08159 0.0
H908 H 0.68749 0.23623 0.1009 0.0
H909 H 0.78528 0.24057 0.11924 0.0
H910 H 0.79116 0.32413 0.18345 0.0
H911 H 0.78647 0.28578 0.16413 0.0
H912 H 0.69051 0.28017 0.14499 0.0
C913 C 0.70427 0.21703 0.09985 0.0
C914 C 0.76443 0.24874 0.12488 0.0
C915 C 0.70016 0.19552 0.08868 0.0
C916 C 0.77236 0.3271 0.17571 0.0
C917 C 0.76976 0.30515 0.16458 0.0
C918 C 0.71138 0.27192 0.13938 0.0
C919 C 0.72996 0.21424 0.10931 0.0
C920 C 0.73416 0.23751 0.12115 0.0
C921 C 0.74528 0.30757 0.15447 0.0
C922 C 0.74158 0.28337 0.14301 0.0
H923 H 0.76444 0.14878 0.09473 0.0
H924 H 0.77138 0.18614 0.11442 0.0
H925 H 0.68412 0.24077 0.12627 0.0
H926 H 0.70946 0.37397 0.16729 0.0
H927 H 0.70504 0.3358 0.14786 0.0
C928 C 0.9628 0.90118 0.29691 0.0
C929 C 0.95592 0.88792 0.31034 0.0
C930 C 0.97675 0.93118 0.2959 0.0
C931 C 0.02488 0.98693 0.31717 0.0
H932 H 0.99771 0.0497 0.28966 0.0
C933 C 0.05953 0.11756 0.3224 0.0
C934 C 0.06677 0.13484 0.31001 0.0
C935 C 0.04782 0.08679 0.32146 0.0
C936 C 1.0059 0.03227 0.29727 0.0
H937 H 0.95733 0.89632 0.33321 0.0
H938 H 0.98121 0.94837 0.33144 0.0
H939 H 0.97283 0.99751 0.28978 0.0
H940 H 0.06767 0.13312 0.28685 0.0
H941 H 0.04729 0.07909 0.28521 0.0
H942 H 0.05771 0.02153 0.32475 0.0
C943 C 0.97642 0.93546 0.32168 0.0
C944 C 0.9916 1.00238 0.29735 0.0
C945 C 0.96248 0.90565 0.32268 0.0
C946 C 0.06239 0.12042 0.29661 0.0
C947 C 0.05049 0.08956 0.29566 0.0
C948 C 0.03915 0.01669 0.31708 0.0
C949 C 0.9842 0.94843 0.3083 0.0
C950 C 1.00055 0.97956 0.30748 0.0
C951 C 0.04296 0.07242 0.3081 0.0
C952 C 0.02949 0.03994 0.3073 0.0
H953 H 0.95809 0.88813 0.28718 0.0
H954 H 0.98252 0.94045 0.28543 0.0
H955 H 0.03289 0.96967 0.32489 0.0
H956 H 0.06253 0.12791 0.3329 0.0
H957 H 0.04185 0.07452 0.33125 0.0
C958 C 0.90732 0.06685 0.71327 0.0
C959 C 0.88387 0.05613 0.72279 0.0
C960 C 0.93796 0.05428 0.7137 0.0
C961 C 0.99389 0.00951 0.73647 0.0
H962 H 0.03237 0.98654 0.7003 0.0
C963 C 0.10835 0.93423 0.73308 0.0
C964 C 0.13052 0.94221 0.72246 0.0
C965 C 0.07847 0.94859 0.73339 0.0
C966 C 0.02222 0.99317 0.7105 0.0
H967 H 0.87461 0.02444 0.74052 0.0
H968 H 0.92799 1.0026 0.74127 0.0
H969 H 0.98064 0.01191 0.70057 0.0
H970 H 0.13866 0.97184 0.70389 0.0
H971 H 0.08703 0.99713 0.70458 0.0
H972 H 0.03553 0.99086 0.74641 0.0
C973 C 0.92273 0.0208 0.7335 0.0
C974 C 0.99251 1.00774 0.71064 0.0
C975 C 0.89207 0.03324 0.73303 0.0
C976 C 0.12213 0.96493 0.71219 0.0
C977 C 0.09238 0.97935 0.71253 0.0
C978 C 0.0237 0.99505 0.73633 0.0
C979 C 0.94593 0.03082 0.72371 0.0
C980 C 0.97795 0.01606 0.72362 0.0
C981 C 0.07009 0.97135 0.72311 0.0
C982 C 0.03826 0.98666 0.72333 0.0
H983 H 0.90186 0.08449 0.70527 0.0
H984 H 0.9554 0.06283 0.70614 0.0
H985 H 0.98348 0.01592 0.74665 0.0
H986 H 0.114 0.91677 0.74114 0.0
H987 H 0.06179 0.94153 0.74159 0.0
C988 C 0.06244 0.3999 0.96525 0.0
C989 C 0.06452 0.38461 0.95193 0.0
C990 C 0.04838 0.42981 0.96637 0.0
C991 C 0.99166 0.48116 0.94727 0.0
H992 H 0.02632 0.54861 0.9705 0.0
C993 C 0.95293 0.61023 0.94044 0.0
C994 C 0.94984 0.62946 0.9526 0.0
C995 C 0.96516 0.57971 0.94155 0.0
C996 C 0.01606 0.52986 0.96414 0.0
H997 H 0.05469 0.3894 0.92929 0.0
H998 H 0.03072 0.44134 0.93121 0.0
H999 H 0.05233 0.49701 0.97018 0.0
H1000 H 0.95672 0.63142 0.97555 0.0
H1001 H 0.97799 0.57781 0.97749 0.0
H1002 H 0.95564 0.51388 0.9411 0.0
C1003 C 0.03926 0.43006 0.94085 0.0
C1004 C 0.03101 0.50032 0.96393 0.0
C1005 C 0.05325 0.40032 0.93974 0.0
C1006 C 0.95872 0.61718 0.96597 0.0
C1007 C 0.97114 0.58657 0.96707 0.0
C1008 C 0.97676 0.51058 0.94748 0.0
C1009 C 0.03607 0.44495 0.9542 0.0
C1010 C 0.0193 0.4758 0.95528 0.0
C1011 C 0.9747 0.56756 0.95484 0.0
C1012 C 0.98906 0.53549 0.95571 0.0
H1013 H 0.07082 0.38841 0.97486 0.0
H1014 H 0.04624 0.44062 0.97682 0.0
H1015 H 0.98154 0.46258 0.94076 0.0
H1016 H 0.94641 0.61891 0.92997 0.0
H1017 H 0.96795 0.56593 0.93188 0.0
C1018 C 0.38958 0.98986 0.02757 0.0
C1019 C 0.38081 0.96795 0.03815 0.0
C1020 C 0.42011 1.00276 0.02733 0.0
C1021 C 0.48731 0.01992 0.05101 0.0
H1022 H 0.53459 0.03079 0.01581 0.0
C1023 C 0.61769 0.06079 0.05099 0.0
C1024 C 0.62821 0.08067 0.03993 0.0
C1025 C 0.58744 0.04739 0.0506 0.0
C1026 C 0.52155 0.02838 0.02572 0.0
H1027 H 0.39761 0.94185 0.05659 0.0
H1028 H 0.45082 0.96443 0.05618 0.0
H1029 H 0.48246 1.00588 0.01523 0.0
H1030 H 0.61484 0.10245 0.01987 0.0
H1031 H 0.56172 0.07968 0.01934 0.0
H1032 H 0.52595 0.04281 0.06152 0.0
C1033 C 0.43397 0.97179 0.04812 0.0
C1034 C 0.4917 0.01396 0.02538 0.0
C1035 C 0.40353 0.95869 0.04829 0.0
C1036 C 0.60753 0.08717 0.02854 0.0
C1037 C 0.57713 0.0739 0.02819 0.0
C1038 C 0.51701 0.03454 0.05135 0.0
C1039 C 0.4425 0.99424 0.03774 0.0
C1040 C 0.47431 0.00943 0.03804 0.0
C1041 C 0.56674 0.05366 0.03918 0.0
C1042 C 0.53465 0.03884 0.03872 0.0
H1043 H 0.37269 0.99751 0.01959 0.0
H1044 H 0.42587 0.02014 0.01925 0.0
H1045 H 0.47427 0.01731 0.06092 0.0
H1046 H 0.63303 0.05506 0.05988 0.0
H1047 H 0.58058 0.03154 0.05913 0.0
C1048 C 0.47041 0.40357 0.8208 0.0
C1049 C 0.45993 0.38699 0.80868 0.0
C1050 C 0.48494 0.43302 0.81944 0.0
C1051 C 0.49591 0.50132 0.79545 0.0
H1052 H 0.56899 0.51635 0.81959 0.0
C1053 C 0.56809 0.61849 0.79378 0.0
C1054 C 0.57492 0.63157 0.80725 0.0
C1055 C 0.55616 0.58766 0.79266 0.0
C1056 C 0.54853 0.51262 0.81282 0.0
H1057 H 0.45569 0.38893 0.78561 0.0
H1058 H 0.48121 0.44065 0.78323 0.0
H1059 H 0.54296 0.46508 0.82005 0.0
H1060 H 0.57541 0.62221 0.83003 0.0
H1061 H 0.55485 0.56881 0.82808 0.0
H1062 H 0.50137 0.5492 0.78838 0.0
C1063 C 0.47803 0.43074 0.7938 0.0
C1064 C 0.53355 0.48323 0.8131 0.0
C1065 C 0.46343 0.40111 0.79516 0.0
C1066 C 0.57044 0.61289 0.81949 0.0
C1067 C 0.55878 0.58215 0.81836 0.0
C1068 C 0.51096 0.53084 0.79516 0.0
C1069 C 0.48949 0.44676 0.80592 0.0
C1070 C 0.50665 0.47739 0.80465 0.0
C1071 C 0.55115 0.56922 0.80496 0.0
C1072 C 0.53707 0.53702 0.80407 0.0
H1073 H 0.46789 0.39358 0.83139 0.0
H1074 H 0.49279 0.445 0.82903 0.0
H1075 H 0.47518 0.49765 0.78885 0.0
H1076 H 0.57116 0.63231 0.78415 0.0
H1077 H 0.55075 0.5783 0.78217 0.0
C1078 C 0.62601 0.47534 0.23879 0.0
C1079 C 0.63765 0.4617 0.22613 0.0
C1080 C 0.59603 0.48948 0.23913 0.0
C1081 C 0.53719 0.52633 0.21532 0.0
H1082 H 0.47899 0.51438 0.24693 0.0
C1083 C 0.40695 0.56649 0.2124 0.0
C1084 C 0.39247 0.57856 0.22479 0.0
C1085 C 0.43734 0.55348 0.21296 0.0
C1086 C 0.49513 0.51837 0.23811 0.0
H1087 H 0.62643 0.45156 0.20397 0.0
H1088 H 0.57427 0.47606 0.20459 0.0
H1089 H 0.53061 0.48839 0.24729 0.0
H1090 H 0.399 0.58696 0.24746 0.0
H1091 H 0.45233 0.56473 0.24838 0.0
H1092 H 0.50199 0.55638 0.20614 0.0
C1093 C 0.58847 0.47617 0.21422 0.0
C1094 C 0.5247 0.50338 0.23831 0.0
C1095 C 0.61831 0.46191 0.2139 0.0
C1096 C 0.40941 0.57784 0.23771 0.0
C1097 C 0.43991 0.56485 0.23827 0.0
C1098 C 0.50776 0.54141 0.21515 0.0
C1099 C 0.57711 0.49047 0.22678 0.0
C1100 C 0.54595 0.50694 0.22684 0.0
C1101 C 0.45417 0.55228 0.22591 0.0
C1102 C 0.48618 0.53741 0.22647 0.0
H1103 H 0.64028 0.47561 0.2484 0.0
H1104 H 0.58805 0.50042 0.24896 0.0
H1105 H 0.55325 0.53009 0.20644 0.0
H1106 H 0.3946 0.56651 0.20227 0.0
H1107 H 0.44729 0.54364 0.20326 0.0
C1108 C 0.4658 0.11239 0.43978 0.0
C1109 C 0.45852 0.13029 0.452 0.0
C1110 C 0.48015 0.08284 0.44102 0.0
C1111 C 0.49586 0.01673 0.46567 0.0
H1112 H 0.56379 0.99905 0.4389 0.0
C1113 C 0.5682 0.89985 0.46705 0.0
C1114 C 0.57335 0.88552 0.45368 0.0
C1115 C 0.55617 0.93066 0.46792 0.0
C1116 C 0.54474 1.00348 0.4464 0.0
H1117 H 0.45971 0.1306 0.47517 0.0
H1118 H 0.48484 0.07871 0.47732 0.0
H1119 H 0.53769 0.05024 0.43843 0.0
H1120 H 0.57053 0.89267 0.43077 0.0
H1121 H 0.54959 0.94591 0.43227 0.0
H1122 H 0.5027 0.96964 0.47349 0.0
C1123 C 0.47932 0.08766 0.46678 0.0
C1124 C 0.52974 0.03284 0.44612 0.0
C1125 C 0.46495 0.11739 0.46554 0.0
C1126 C 0.56695 0.90294 0.44124 0.0
C1127 C 0.55506 0.93363 0.4421 0.0
C1128 C 0.51087 0.98722 0.46594 0.0
C1129 C 0.48764 0.07033 0.4545 0.0
C1130 C 0.50474 0.03966 0.45557 0.0
C1131 C 0.54924 0.94783 0.45543 0.0
C1132 C 0.53514 0.98005 0.45612 0.0
H1133 H 0.46098 0.12144 0.42919 0.0
H1134 H 0.48558 0.06982 0.43135 0.0
H1135 H 0.47661 0.02119 0.47306 0.0
H1136 H 0.57282 0.88705 0.47685 0.0
H1137 H 0.55224 0.941 0.47835 0.0
C1138 C 0.90768 0.45088 0.54315 0.0
C1139 C 0.88332 0.46582 0.53547 0.0
C1140 C 0.9386 0.46275 0.54277 0.0
C1141 C 0.99278 0.51539 0.52261 0.0
H1142 H 0.03651 0.5217 0.55889 0.0
C1143 C 0.10979 0.58584 0.52942 0.0
C1144 C 0.13293 0.57287 0.53847 0.0
C1145 C 0.07952 0.57237 0.52861 0.0
C1146 C 0.02486 0.51976 0.54863 0.0
H1147 H 0.87271 0.50436 0.52099 0.0
H1148 H 0.92659 0.52503 0.52036 0.0
H1149 H 0.98408 0.49791 0.55795 0.0
H1150 H 0.14243 0.53524 0.55361 0.0
H1151 H 0.09011 0.51162 0.55202 0.0
H1152 H 0.03365 0.53724 0.51329 0.0
C1153 C 0.92181 0.50406 0.52662 0.0
C1154 C 0.99476 0.50608 0.54809 0.0
C1155 C 0.89086 0.49226 0.52704 0.0
C1156 C 0.12516 0.54603 0.5466 0.0
C1157 C 0.09502 0.53254 0.54574 0.0
C1158 C 0.02299 0.52899 0.52313 0.0
C1159 C 0.94595 0.48976 0.53468 0.0
C1160 C 0.97833 0.50371 0.53508 0.0
C1161 C 0.07173 0.54558 0.5368 0.0
C1162 C 0.03944 0.53134 0.53616 0.0
H1163 H 0.90275 0.43041 0.54972 0.0
H1164 H 0.95675 0.45089 0.54893 0.0
H1165 H 0.98089 0.51365 0.51239 0.0
H1166 H 0.11495 0.60654 0.52304 0.0
H1167 H 0.06207 0.58326 0.52172 0.0
loop_
_geom_bond_atom_site_label_1
_geom_bond_atom_site_label_2
_geom_bond_distance
_geom_bond_site_symmetry_2
_ccdc_geom_bond_type
Mg0 O7 2.141 . S
Mg0 O8 2.048 . S
Mg0 O9 2.048 . S
Mg0 O12 2.141 . S
C1 O2 1.313 . S
C1 O8 1.195 . S
O2 C1 1.313 . S
C3 O4 1.245 . S
C3 O12 1.289 . S
O4 C3 1.245 . S
C5 O6 1.245 . S
C5 O7 1.289 . S
O6 C5 1.245 . S
O7 Mg0 2.141 . S
O7 C5 1.289 . S
O8 Mg0 2.048 . S
O8 C1 1.195 . S
O9 Mg0 2.048 . S
O9 C10 1.195 . S
C10 O9 1.195 . S
C10 O11 1.313 . S
O11 C10 1.313 . S
O12 Mg0 2.141 . S
O12 C3 1.289 . S
Mg13 O20 2.141 . S
Mg13 O21 2.048 . S
Mg13 O22 2.048 . S
Mg13 O25 2.141 . S
C14 O15 1.313 . S
C14 O21 1.195 . S
O15 C14 1.313 . S
C16 O17 1.245 . S
C16 O25 1.289 . S
O17 C16 1.245 . S
C18 O19 1.245 . S
C18 O20 1.289 . S
O19 C18 1.245 . S
O20 Mg13 2.141 . S
O20 C18 1.289 . S
O21 Mg13 2.048 . S
O21 C14 1.195 . S
O22 Mg13 2.048 . S
O22 C23 1.195 . S
C23 O22 1.195 . S
C23 O24 1.313 . S
O24 C23 1.313 . S
O25 Mg13 2.141 . S
O25 C16 1.289 . S
Mg26 O33 2.141 . S
Mg26 O34 2.048 . S
Mg26 O35 2.048 . S
Mg26 O38 2.141 . S
C27 O28 1.313 . S
C27 O34 1.195 . S
O28 C27 1.313 . S
C29 O30 1.245 . S
C29 O38 1.289 . S
O30 C29 1.245 . S
C31 O32 1.245 . S
C31 O33 1.289 . S
O32 C31 1.245 . S
O33 Mg26 2.141 . S
O33 C31 1.289 . S
O34 Mg26 2.048 . S
O34 C27 1.195 . S
O35 Mg26 2.048 . S
O35 C36 1.195 . S
C36 O35 1.195 . S
C36 O37 1.313 . S
O37 C36 1.313 . S
O38 Mg26 2.141 . S
O38 C29 1.289 . S
Mg39 O46 2.141 . S
Mg39 O47 2.048 . S
Mg39 O48 2.048 . S
Mg39 O51 2.141 . S
C40 O41 1.313 . S
C40 O47 1.195 . S
O41 C40 1.313 . S
C42 O43 1.245 . S
C42 O51 1.289 . S
O43 C42 1.245 . S
C44 O45 1.245 . S
C44 O46 1.289 . S
O45 C44 1.245 . S
O46 Mg39 2.141 . S
O46 C44 1.289 . S
O47 Mg39 2.048 . S
O47 C40 1.195 . S
O48 Mg39 2.048 . S
O48 C49 1.195 . S
C49 O48 1.195 . S
C49 O50 1.313 . S
O50 C49 1.313 . S
O51 Mg39 2.141 . S
O51 C42 1.289 . S
Mg52 O59 2.141 . S
Mg52 O60 2.048 . S
Mg52 O61 2.048 . S
Mg52 O64 2.141 . S
C53 O54 1.313 . S
C53 O60 1.195 . S
O54 C53 1.313 . S
C55 O56 1.245 . S
C55 O64 1.289 . S
O56 C55 1.245 . S
C57 O58 1.245 . S
C57 O59 1.289 . S
O58 C57 1.245 . S
O59 Mg52 2.141 . S
O59 C57 1.289 . S
O60 Mg52 2.048 . S
O60 C53 1.195 . S
O61 Mg52 2.048 . S
O61 C62 1.195 . S
C62 O61 1.195 . S
C62 O63 1.313 . S
O63 C62 1.313 . S
O64 Mg52 2.141 . S
O64 C55 1.289 . S
Mg65 O72 2.141 . S
Mg65 O73 2.048 . S
Mg65 O74 2.048 . S
Mg65 O77 2.141 . S
C66 O67 1.313 . S
C66 O73 1.195 . S
O67 C66 1.313 . S
C68 O69 1.245 . S
C68 O77 1.289 . S
O69 C68 1.245 . S
C70 O71 1.245 . S
C70 O72 1.289 . S
O71 C70 1.245 . S
O72 Mg65 2.141 . S
O72 C70 1.289 . S
O73 Mg65 2.048 . S
O73 C66 1.195 . S
O74 Mg65 2.048 . S
O74 C75 1.195 . S
C75 O74 1.195 . S
C75 O76 1.313 . S
O76 C75 1.313 . S
O77 Mg65 2.141 . S
O77 C68 1.289 . S
Mg78 O85 2.141 . S
Mg78 O86 2.048 . S
Mg78 O87 2.048 . S
Mg78 O90 2.141 . S
C79 O80 1.313 . S
C79 O86 1.195 . S
O80 C79 1.313 . S
C81 O82 1.245 . S
C81 O90 1.289 . S
O82 C81 1.245 . S
C83 O84 1.245 . S
C83 O85 1.289 . S
O84 C83 1.245 . S
O85 Mg78 2.141 . S
O85 C83 1.289 . S
O86 Mg78 2.048 . S
O86 C79 1.195 . S
O87 Mg78 2.048 . S
O87 C88 1.195 . S
C88 O87 1.195 . S
C88 O89 1.313 . S
O89 C88 1.313 . S
O90 Mg78 2.141 . S
O90 C81 1.289 . S
Mg91 O98 2.141 . S
Mg91 O99 2.048 . S
Mg91 O100 2.048 . S
Mg91 O103 2.141 . S
C92 O93 1.313 . S
C92 O99 1.195 . S
O93 C92 1.313 . S
C94 O95 1.245 . S
C94 O103 1.289 . S
O95 C94 1.245 . S
C96 O97 1.245 . S
C96 O98 1.289 . S
O97 C96 1.245 . S
O98 Mg91 2.141 . S
O98 C96 1.289 . S
O99 Mg91 2.048 . S
O99 C92 1.195 . S
O100 Mg91 2.048 . S
O100 C101 1.195 . S
C101 O100 1.195 . S
C101 O102 1.313 . S
O102 C101 1.313 . S
O103 Mg91 2.141 . S
O103 C94 1.289 . S
Mg104 O111 2.141 . S
Mg104 O112 2.048 . S
Mg104 O113 2.048 . S
Mg104 O116 2.141 . S
C105 O106 1.313 . S
C105 O112 1.195 . S
O106 C105 1.313 . S
C107 O108 1.245 . S
C107 O116 1.289 . S
O108 C107 1.245 . S
C109 O110 1.245 . S
C109 O111 1.289 . S
O110 C109 1.245 . S
O111 Mg104 2.141 . S
O111 C109 1.289 . S
O112 Mg104 2.048 . S
O112 C105 1.195 . S
O113 Mg104 2.048 . S
O113 C114 1.195 . S
C114 O113 1.195 . S
C114 O115 1.313 . S
O115 C114 1.313 . S
O116 Mg104 2.141 . S
O116 C107 1.289 . S
Mg117 O124 2.141 . S
Mg117 O125 2.048 . S
Mg117 O126 2.048 . S
Mg117 O129 2.141 . S
C118 O119 1.313 . S
C118 O125 1.195 . S
O119 C118 1.313 . S
C120 O121 1.245 . S
C120 O129 1.289 . S
O121 C120 1.245 . S
C122 O123 1.245 . S
C122 O124 1.289 . S
O123 C122 1.245 . S
O124 Mg117 2.141 . S
O124 C122 1.289 . S
O125 Mg117 2.048 . S
O125 C118 1.195 . S
O126 Mg117 2.048 . S
O126 C127 1.195 . S
C127 O126 1.195 . S
C127 O128 1.313 . S
O128 C127 1.313 . S
O129 Mg117 2.141 . S
O129 C120 1.289 . S
Mg130 O137 2.141 . S
Mg130 O138 2.048 . S
Mg130 O139 2.048 . S
Mg130 O142 2.141 . S
C131 O132 1.313 . S
C131 O138 1.195 . S
O132 C131 1.313 . S
C133 O134 1.245 . S
C133 O142 1.289 . S
O134 C133 1.245 . S
C135 O136 1.245 . S
C135 O137 1.289 . S
O136 C135 1.245 . S
O137 Mg130 2.141 . S
O137 C135 1.289 . S
O138 Mg130 2.048 . S
O138 C131 1.195 . S
O139 Mg130 2.048 . S
O139 C140 1.195 . S
C140 O139 1.195 . S
C140 O141 1.313 . S
O141 C140 1.313 . S
O142 Mg130 2.141 . S
O142 C133 1.289 . S
Mg143 O150 2.141 . S
Mg143 O151 2.048 . S
Mg143 O152 2.048 . S
Mg143 O155 2.141 . S
C144 O145 1.313 . S
C144 O151 1.195 . S
O145 C144 1.313 . S
C146 O147 1.245 . S
C146 O155 1.289 . S
O147 C146 1.245 . S
C148 O149 1.245 . S
C148 O150 1.289 . S
O149 C148 1.245 . S
O150 Mg143 2.141 . S
O150 C148 1.289 . S
O151 Mg143 2.048 . S
O151 C144 1.195 . S
O152 Mg143 2.048 . S
O152 C153 1.195 . S
C153 O152 1.195 . S
C153 O154 1.313 . S
O154 C153 1.313 . S
O155 Mg143 2.141 . S
O155 C146 1.289 . S
Mg156 O163 2.141 . S
Mg156 O164 2.048 . S
Mg156 O165 2.048 . S
Mg156 O168 2.141 . S
C157 O158 1.313 . S
C157 O164 1.195 . S
O158 C157 1.313 . S
C159 O160 1.245 . S
C159 O168 1.289 . S
O160 C159 1.245 . S
C161 O162 1.245 . S
C161 O163 1.289 . S
O162 C161 1.245 . S
O163 Mg156 2.141 . S
O163 C161 1.289 . S
O164 Mg156 2.048 . S
O164 C157 1.195 . S
O165 Mg156 2.048 . S
O165 C166 1.195 . S
C166 O165 1.195 . S
C166 O167 1.313 . S
O167 C166 1.313 . S
O168 Mg156 2.141 . S
O168 C159 1.289 . S
Mg169 O176 2.141 . S
Mg169 O177 2.048 . S
Mg169 O178 2.048 . S
Mg169 O181 2.141 . S
C170 O171 1.313 . S
C170 O177 1.195 . S
O171 C170 1.313 . S
C172 O173 1.245 . S
C172 O181 1.289 . S
O173 C172 1.245 . S
C174 O175 1.245 . S
C174 O176 1.289 . S
O175 C174 1.245 . S
O176 Mg169 2.141 . S
O176 C174 1.289 . S
O177 Mg169 2.048 . S
O177 C170 1.195 . S
O178 Mg169 2.048 . S
O178 C179 1.195 . S
C179 O178 1.195 . S
C179 O180 1.313 . S
O180 C179 1.313 . S
O181 Mg169 2.141 . S
O181 C172 1.289 . S
Mg182 O189 2.141 . S
Mg182 O190 2.048 . S
Mg182 O191 2.048 . S
Mg182 O194 2.141 . S
C183 O184 1.313 . S
C183 O190 1.195 . S
O184 C183 1.313 . S
C185 O186 1.245 . S
C185 O194 1.289 . S
O186 C185 1.245 . S
C187 O188 1.245 . S
C187 O189 1.289 . S
O188 C187 1.245 . S
O189 Mg182 2.141 . S
O189 C187 1.289 . S
O190 Mg182 2.048 . S
O190 C183 1.195 . S
O191 Mg182 2.048 . S
O191 C192 1.195 . S
C192 O191 1.195 . S
C192 O193 1.313 . S
O193 C192 1.313 . S
O194 Mg182 2.141 . S
O194 C185 1.289 . S
Mg195 O202 2.141 . S
Mg195 O203 2.048 . S
Mg195 O204 2.048 . S
Mg195 O207 2.141 . S
C196 O197 1.313 . S
C196 O203 1.195 . S
O197 C196 1.313 . S
C198 O199 1.245 . S
C198 O207 1.289 . S
O199 C198 1.245 . S
C200 O201 1.245 . S
C200 O202 1.289 . S
O201 C200 1.245 . S
O202 Mg195 2.141 . S
O202 C200 1.289 . S
O203 Mg195 2.048 . S
O203 C196 1.195 . S
O204 Mg195 2.048 . S
O204 C205 1.195 . S
C205 O204 1.195 . S
C205 O206 1.313 . S
O206 C205 1.313 . S
O207 Mg195 2.141 . S
O207 C198 1.289 . S
C208 C209 1.349 . S
C208 C210 1.327 . S
C208 H233 0.950 . S
C209 C208 1.349 . S
C209 C225 1.349 . S
C210 C208 1.327 . S
C210 C229 1.429 . S
C210 H234 0.950 . S
C211 C228 1.574 . S
C211 C230 1.368 . S
C211 H235 0.949 . S
H212 C216 0.949 . S
C213 C214 1.349 . S
C213 C215 1.327 . S
C213 H236 0.950 . S
C214 C213 1.349 . S
C214 C226 1.349 . S
C215 C213 1.327 . S
C215 C231 1.429 . S
C215 H237 0.950 . S
C216 H212 0.949 . S
C216 C224 1.574 . S
C216 C232 1.368 . S
H217 C225 0.950 . S
H218 C223 0.950 . S
H219 C224 0.949 . S
H220 C226 0.950 . S
H221 C227 0.950 . S
H222 C228 0.949 . S
C223 H218 0.950 . S
C223 C225 1.327 . S
C223 C229 1.429 . S
C224 C216 1.574 . S
C224 H219 0.949 . S
C224 C230 1.368 . S
C225 C209 1.349 . S
C225 H217 0.950 . S
C225 C223 1.327 . S
C226 C214 1.349 . S
C226 H220 0.950 . S
C226 C227 1.327 . S
C227 H221 0.950 . S
C227 C226 1.327 . S
C227 C231 1.429 . S
C228 C211 1.574 . S
C228 H222 0.949 . S
C228 C232 1.368 . S
C229 C210 1.429 . S
C229 C223 1.429 . S
C229 C230 1.523 . S
C230 C211 1.368 . S
C230 C224 1.368 . S
C230 C229 1.523 . S
C231 C215 1.429 . S
C231 C227 1.429 . S
C231 C232 1.523 . S
C232 C216 1.368 . S
C232 C228 1.368 . S
C232 C231 1.523 . S
H233 C208 0.950 . S
H234 C210 0.950 . S
H235 C211 0.949 . S
H236 C213 0.950 . S
H237 C215 0.950 . S
C238 C239 1.349 . S
C238 C240 1.327 . S
C238 H263 0.950 . S
C239 C238 1.349 . S
C239 C255 1.349 . S
C240 C238 1.327 . S
C240 C259 1.429 . S
C240 H264 0.950 . S
C241 C258 1.574 . S
C241 C260 1.368 . S
C241 H265 0.949 . S
H242 C246 0.949 . S
C243 C244 1.349 . S
C243 C245 1.327 . S
C243 H266 0.950 . S
C244 C243 1.349 . S
C244 C256 1.349 . S
C245 C243 1.327 . S
C245 C261 1.429 . S
C245 H267 0.950 . S
C246 H242 0.949 . S
C246 C254 1.574 . S
C246 C262 1.368 . S
H247 C255 0.950 . S
H248 C253 0.950 . S
H249 C254 0.949 . S
H250 C256 0.950 . S
H251 C257 0.950 . S
H252 C258 0.949 . S
C253 H248 0.950 . S
C253 C255 1.327 . S
C253 C259 1.429 . S
C254 C246 1.574 . S
C254 H249 0.949 . S
C254 C260 1.368 . S
C255 C239 1.349 . S
C255 H247 0.950 . S
C255 C253 1.327 . S
C256 C244 1.349 . S
C256 H250 0.950 . S
C256 C257 1.327 . S
C257 H251 0.950 . S
C257 C256 1.327 . S
C257 C261 1.429 . S
C258 C241 1.574 . S
C258 H252 0.949 . S
C258 C262 1.368 . S
C259 C240 1.429 . S
C259 C253 1.429 . S
C259 C260 1.523 . S
C260 C241 1.368 . S
C260 C254 1.368 . S
C260 C259 1.523 . S
C261 C245 1.429 . S
C261 C257 1.429 . S
C261 C262 1.523 . S
C262 C246 1.368 . S
C262 C258 1.368 . S
C262 C261 1.523 . S
H263 C238 0.950 . S
H264 C240 0.950 . S
H265 C241 0.949 . S
H266 C243 0.950 . S
H267 C245 0.950 . S
C268 C269 1.349 . S
C268 C270 1.327 . S
C268 H293 0.950 . S
C269 C268 1.349 . S
C269 C285 1.349 . S
C270 C268 1.327 . S
C270 C289 1.429 . S
C270 H294 0.950 . S
C271 C288 1.574 . S
C271 C290 1.368 . S
C271 H295 0.949 . S
H272 C276 0.949 . S
C273 C274 1.349 . S
C273 C275 1.327 . S
C273 H296 0.950 . S
C274 C273 1.349 . S
C274 C286 1.349 . S
C275 C273 1.327 . S
C275 C291 1.429 . S
C275 H297 0.950 . S
C276 H272 0.949 . S
C276 C284 1.574 . S
C276 C292 1.368 . S
H277 C285 0.950 . S
H278 C283 0.950 . S
H279 C284 0.949 . S
H280 C286 0.950 . S
H281 C287 0.950 . S
H282 C288 0.949 . S
C283 H278 0.950 . S
C283 C285 1.327 . S
C283 C289 1.429 . S
C284 C276 1.574 . S
C284 H279 0.949 . S
C284 C290 1.368 . S
C285 C269 1.349 . S
C285 H277 0.950 . S
C285 C283 1.327 . S
C286 C274 1.349 . S
C286 H280 0.950 . S
C286 C287 1.327 . S
C287 H281 0.950 . S
C287 C286 1.327 . S
C287 C291 1.429 . S
C288 C271 1.574 . S
C288 H282 0.949 . S
C288 C292 1.368 . S
C289 C270 1.429 . S
C289 C283 1.429 . S
C289 C290 1.523 . S
C290 C271 1.368 . S
C290 C284 1.368 . S
C290 C289 1.523 . S
C291 C275 1.429 . S
C291 C287 1.429 . S
C291 C292 1.523 . S
C292 C276 1.368 . S
C292 C288 1.368 . S
C292 C291 1.523 . S
H293 C268 0.950 . S
H294 C270 0.950 . S
H295 C271 0.949 . S
H296 C273 0.950 . S
H297 C275 0.950 . S
C298 C299 1.349 . S
C298 C300 1.327 . S
C298 H323 0.950 . S
C299 C298 1.349 . S
C299 C315 1.349 . S
C300 C298 1.327 . S
C300 C319 1.429 . S
C300 H324 0.950 . S
C301 C318 1.574 . S
C301 C320 1.368 . S
C301 H325 0.949 . S
H302 C306 0.949 . S
C303 C304 1.349 . S
C303 C305 1.327 . S
C303 H326 0.950 . S
C304 C303 1.349 . S
C304 C316 1.349 . S
C305 C303 1.327 . S
C305 C321 1.429 . S
C305 H327 0.950 . S
C306 H302 0.949 . S
C306 C314 1.574 . S
C306 C322 1.368 . S
H307 C315 0.950 . S
H308 C313 0.950 . S
H309 C314 0.949 . S
H310 C316 0.950 . S
H311 C317 0.950 . S
H312 C318 0.949 . S
C313 H308 0.950 . S
C313 C315 1.327 . S
C313 C319 1.429 . S
C314 C306 1.574 . S
C314 H309 0.949 . S
C314 C320 1.368 . S
C315 C299 1.349 . S
C315 H307 0.950 . S
C315 C313 1.327 . S
C316 C304 1.349 . S
C316 H310 0.950 . S
C316 C317 1.327 . S
C317 H311 0.950 . S
C317 C316 1.327 . S
C317 C321 1.429 . S
C318 C301 1.574 . S
C318 H312 0.949 . S
C318 C322 1.368 . S
C319 C300 1.429 . S
C319 C313 1.429 . S
C319 C320 1.523 . S
C320 C301 1.368 . S
C320 C314 1.368 . S
C320 C319 1.523 . S
C321 C305 1.429 . S
C321 C317 1.429 . S
C321 C322 1.523 . S
C322 C306 1.368 . S
C322 C318 1.368 . S
C322 C321 1.523 . S
H323 C298 0.950 . S
H324 C300 0.950 . S
H325 C301 0.949 . S
H326 C303 0.950 . S
H327 C305 0.950 . S
C328 C329 1.349 1_545 S
C328 C330 1.327 . S
C328 H353 0.950 . S
C329 C328 1.349 1_565 S
C329 C345 1.349 . S
C330 C328 1.327 . S
C330 C349 1.429 . S
C330 H354 0.950 . S
C331 C348 1.574 . S
C331 C350 1.368 . S
C331 H355 0.949 . S
H332 C336 0.949 1_554 S
C333 C334 1.349 . S
C333 C335 1.327 . S
C333 H356 0.950 . S
C334 C333 1.349 . S
C334 C346 1.349 . S
C335 C333 1.327 . S
C335 C351 1.429 . S
C335 H357 0.950 . S
C336 H332 0.949 1_556 S
C336 C344 1.574 1_556 S
C336 C352 1.368 . S
H337 C345 0.950 . S
H338 C343 0.991 . S
H339 C344 0.949 . S
H340 C346 0.950 . S
H341 C347 0.950 . S
H342 C348 0.949 . S
C343 H338 0.991 . S
C343 C345 1.307 1_546 S
C343 C349 1.411 1_556 S
C344 C336 1.574 1_554 S
C344 H339 0.949 . S
C344 C350 1.368 1_554 S
C345 C329 1.349 . S
C345 H337 0.950 . S
C345 C343 1.307 1_564 S
C346 C334 1.349 . S
C346 H340 0.950 . S
C346 C347 1.327 . S
C347 H341 0.950 . S
C347 C346 1.327 . S
C347 C351 1.429 . S
C348 C331 1.574 . S
C348 H342 0.949 . S
C348 C352 1.368 . S
C349 C330 1.429 . S
C349 C343 1.411 1_554 S
C349 C350 1.523 1_554 S
C350 C331 1.368 . S
C350 C344 1.368 1_556 S
C350 C349 1.523 1_556 S
C351 C335 1.429 . S
C351 C347 1.429 . S
C351 C352 1.523 . S
C352 C336 1.368 . S
C352 C348 1.368 . S
C352 C351 1.523 . S
H353 C328 0.950 . S
H354 C330 0.950 . S
H355 C331 0.949 . S
H356 C333 0.950 . S
H357 C335 0.950 . S
C358 C359 1.349 . S
C358 C360 1.327 . S
C358 H383 0.950 . S
C359 C358 1.349 . S
C359 C375 1.349 . S
C360 C358 1.327 . S
C360 C379 1.429 . S
C360 H384 0.950 . S
C361 C378 1.574 . S
C361 C380 1.368 . S
C361 H385 0.949 . S
H362 C366 0.949 . S
C363 C364 1.349 1_455 S
C363 C365 1.327 . S
C363 H386 0.950 . S
C364 C363 1.349 1_655 S
C364 C376 1.349 . S
C365 C363 1.327 . S
C365 C381 1.429 . S
C365 H387 0.950 1_556 S
C366 H362 0.949 . S
C366 C374 1.574 1_556 S
C366 C382 1.368 1_556 S
H367 C375 0.950 . S
H368 C373 0.950 . S
H369 C374 0.949 . S
H370 C376 0.950 . S
H371 C377 0.950 . S
H372 C378 0.949 . S
C373 H368 0.950 . S
C373 C375 1.327 . S
C373 C379 1.429 . S
C374 C366 1.574 1_554 S
C374 H369 0.949 . S
C374 C380 1.368 . S
C375 C359 1.349 . S
C375 H367 0.950 . S
C375 C373 1.327 . S
C376 C364 1.349 . S
C376 H370 0.950 . S
C376 C377 1.327 1_655 S
C377 H371 0.950 . S
C377 C376 1.327 1_455 S
C377 C381 1.429 . S
C378 C361 1.574 . S
C378 H372 0.949 . S
C378 C382 1.368 . S
C379 C360 1.429 . S
C379 C373 1.429 . S
C379 C380 1.523 . S
C380 C361 1.368 . S
C380 C374 1.368 . S
C380 C379 1.523 . S
C381 C365 1.429 . S
C381 C377 1.429 . S
C381 C382 1.523 1_556 S
C382 C366 1.368 1_554 S
C382 C378 1.368 . S
C382 C381 1.523 1_554 S
H383 C358 0.950 . S
H384 C360 0.950 . S
H385 C361 0.949 . S
H386 C363 0.950 . S
H387 C365 0.950 1_554 S
C388 C389 1.349 . S
C388 C390 1.327 . S
C388 H413 0.950 . S
C389 C388 1.349 . S
C389 C405 1.349 . S
C390 C388 1.327 . S
C390 C409 1.429 . S
C390 H414 0.950 . S
C391 C408 1.574 . S
C391 C410 1.368 1_554 S
C391 H415 0.949 . S
H392 C396 0.949 . S
C393 C394 1.349 1_565 S
C393 C395 1.327 . S
C393 H416 0.952 . S
C394 C393 1.349 1_545 S
C394 C406 1.417 . S
C395 C393 1.327 . S
C395 C411 1.429 . S
C395 H417 0.950 . S
C396 H392 0.949 . S
C396 C404 1.574 . S
C396 C412 1.368 . S
H397 C405 0.950 . S
H398 C403 0.881 1_554 S
H399 C404 0.949 . S
H400 C406 0.909 1_556 S
H401 C407 0.950 . S
H402 C408 0.949 . S
C403 H398 0.881 1_556 S
C403 C405 1.327 . S
C403 C409 1.429 . S
C404 C396 1.574 . S
C404 H399 0.949 . S
C404 C410 1.368 . S
C405 C389 1.349 . S
C405 H397 0.950 . S
C405 C403 1.327 . S
C406 C394 1.417 . S
C406 H400 0.909 1_554 S
C406 C407 1.302 1_544 S
C407 H401 0.950 . S
C407 C406 1.302 1_566 S
C407 C411 1.429 1_556 S
C408 C391 1.574 . S
C408 H402 0.949 . S
C408 C412 1.368 1_554 S
C409 C390 1.429 . S
C409 C403 1.429 . S
C409 C410 1.523 . S
C410 C391 1.368 1_556 S
C410 C404 1.368 . S
C410 C409 1.523 . S
C411 C395 1.429 . S
C411 C407 1.429 1_554 S
C411 C412 1.523 1_554 S
C412 C396 1.368 . S
C412 C408 1.368 1_556 S
C412 C411 1.523 1_556 S
H413 C388 0.950 . S
H414 C390 0.950 . S
H415 C391 0.949 . S
H416 C393 0.952 . S
H417 C395 0.950 . S
C418 C419 1.349 . S
C418 C420 1.327 . S
C418 H443 0.950 . S
C419 C418 1.349 . S
C419 C435 1.349 . S
C420 C418 1.327 . S
C420 C439 1.429 . S
C420 H444 0.950 . S
C421 C438 1.581 . S
C421 C440 1.352 1_556 S
C421 H445 0.958 . S
H422 C426 0.949 . S
C423 C424 1.349 1_655 S
C423 C425 1.327 . S
C423 H446 0.950 . S
C424 C423 1.349 1_455 S
C424 C436 1.349 . S
C425 C423 1.327 . S
C425 C441 1.429 . S
C425 H447 0.950 . S
C426 H422 0.949 . S
C426 C434 1.574 . S
C426 C442 1.368 . S
H427 C435 0.950 . S
H428 C433 0.950 . S
H429 C434 0.949 . S
H430 C436 0.950 1_554 S
H431 C437 0.950 . S
H432 C438 0.949 . S
C433 H428 0.950 . S
C433 C435 1.327 . S
C433 C439 1.429 . S
C434 C426 1.574 . S
C434 H429 0.949 . S
C434 C440 1.368 . S
C435 C419 1.349 . S
C435 H427 0.950 . S
C435 C433 1.327 . S
C436 C424 1.349 . S
C436 H430 0.950 1_556 S
C436 C437 1.327 1_456 S
C437 H431 0.950 . S
C437 C436 1.327 1_654 S
C437 C441 1.429 1_554 S
C438 C421 1.581 . S
C438 H432 0.949 . S
C438 C442 1.368 1_556 S
C439 C420 1.429 . S
C439 C433 1.429 . S
C439 C440 1.523 . S
C440 C421 1.352 1_554 S
C440 C434 1.368 . S
C440 C439 1.523 . S
C441 C425 1.429 . S
C441 C437 1.429 1_556 S
C441 C442 1.523 1_556 S
C442 C426 1.368 . S
C442 C438 1.368 1_554 S
C442 C441 1.523 1_554 S
H443 C418 0.950 . S
H444 C420 0.950 . S
H445 C421 0.958 . S
H446 C423 0.950 . S
H447 C425 0.950 . S
C448 C449 1.349 . S
C448 C450 1.327 . S
C448 H473 0.950 . S
C449 C448 1.349 . S
C449 C465 1.349 . S
C450 C448 1.327 . S
C450 C469 1.429 . S
C450 H474 0.950 . S
C451 C468 1.574 . S
C451 C470 1.368 . S
C451 H475 0.949 . S
H452 C456 0.949 . S
C453 C454 1.349 1_565 S
C453 C455 1.327 . S
C453 H476 0.950 . S
C454 C453 1.349 1_545 S
C454 C466 1.349 . S
C455 C453 1.327 . S
C455 C471 1.429 . S
C455 H477 0.950 . S
C456 H452 0.949 . S
C456 C464 1.574 . S
C456 C472 1.368 . S
H457 C465 0.950 . S
H458 C463 0.950 . S
H459 C464 0.949 . S
H460 C466 0.950 . S
H461 C467 0.950 . S
H462 C468 0.949 . S
C463 H458 0.950 . S
C463 C465 1.327 . S
C463 C469 1.429 . S
C464 C456 1.574 . S
C464 H459 0.949 . S
C464 C470 1.368 . S
C465 C449 1.349 . S
C465 H457 0.950 . S
C465 C463 1.327 . S
C466 C454 1.349 . S
C466 H460 0.950 . S
C466 C467 1.327 1_545 S
C467 H461 0.950 . S
C467 C466 1.327 1_565 S
C467 C471 1.429 . S
C468 C451 1.574 . S
C468 H462 0.949 . S
C468 C472 1.368 . S
C469 C450 1.429 . S
C469 C463 1.429 . S
C469 C470 1.523 . S
C470 C451 1.368 . S
C470 C464 1.368 . S
C470 C469 1.523 . S
C471 C455 1.429 . S
C471 C467 1.429 . S
C471 C472 1.523 . S
C472 C456 1.368 . S
C472 C468 1.368 . S
C472 C471 1.523 . S
H473 C448 0.950 . S
H474 C450 0.950 . S
H475 C451 0.949 . S
H476 C453 0.950 . S
H477 C455 0.950 . S
C478 C479 1.349 . S
C478 C480 1.327 1_455 S
C478 H503 0.950 . S
C479 C478 1.349 . S
C479 C495 1.349 1_455 S
C480 C478 1.327 1_655 S
C480 C499 1.429 . S
C480 H504 0.950 . S
C481 C498 1.574 . S
C481 C500 1.368 . S
C481 H505 0.949 . S
H482 C486 0.949 . S
C483 C484 1.349 . S
C483 C485 1.327 . S
C483 H506 0.950 . S
C484 C483 1.349 . S
C484 C496 1.349 . S
C485 C483 1.327 . S
C485 C501 1.429 . S
C485 H507 0.950 . S
C486 H482 0.949 . S
C486 C494 1.574 . S
C486 C502 1.368 . S
H487 C495 0.950 . S
H488 C493 0.950 . S
H489 C494 0.949 . S
H490 C496 0.950 . S
H491 C497 0.950 . S
H492 C498 0.949 . S
C493 H488 0.950 . S
C493 C495 1.327 . S
C493 C499 1.429 . S
C494 C486 1.574 . S
C494 H489 0.949 . S
C494 C500 1.368 . S
C495 C479 1.349 1_655 S
C495 H487 0.950 . S
C495 C493 1.327 . S
C496 C484 1.349 . S
C496 H490 0.950 . S
C496 C497 1.327 . S
C497 H491 0.950 . S
C497 C496 1.327 . S
C497 C501 1.429 . S
C498 C481 1.574 . S
C498 H492 0.949 . S
C498 C502 1.368 . S
C499 C480 1.429 . S
C499 C493 1.429 . S
C499 C500 1.523 . S
C500 C481 1.368 . S
C500 C494 1.368 . S
C500 C499 1.523 . S
C501 C485 1.429 . S
C501 C497 1.429 . S
C501 C502 1.523 . S
C502 C486 1.368 . S
C502 C498 1.368 . S
C502 C501 1.523 . S
H503 C478 0.950 . S
H504 C480 0.950 . S
H505 C481 0.949 . S
H506 C483 0.950 . S
H507 C485 0.950 . S
C508 C509 1.349 1_545 S
C508 C510 1.327 . S
C508 H533 0.950 . S
C509 C508 1.349 1_565 S
C509 C525 1.349 . S
C510 C508 1.327 . S
C510 C529 1.429 . S
C510 H534 0.950 . S
C511 C528 1.574 . S
C511 C530 1.368 . S
C511 H535 0.949 . S
H512 C516 0.949 . S
C513 C514 1.349 . S
C513 C515 1.327 . S
C513 H536 0.950 . S
C514 C513 1.349 . S
C514 C526 1.349 . S
C515 C513 1.327 . S
C515 C531 1.429 . S
C515 H537 0.950 . S
C516 H512 0.949 . S
C516 C524 1.574 . S
C516 C532 1.368 . S
H517 C525 0.950 . S
H518 C523 0.950 . S
H519 C524 0.949 . S
H520 C526 0.950 . S
H521 C527 0.950 . S
H522 C528 0.949 . S
C523 H518 0.950 . S
C523 C525 1.327 1_545 S
C523 C529 1.429 . S
C524 C516 1.574 . S
C524 H519 0.949 . S
C524 C530 1.368 . S
C525 C509 1.349 . S
C525 H517 0.950 . S
C525 C523 1.327 1_565 S
C526 C514 1.349 . S
C526 H520 0.950 . S
C526 C527 1.327 . S
C527 H521 0.950 . S
C527 C526 1.327 . S
C527 C531 1.429 . S
C528 C511 1.574 . S
C528 H522 0.949 . S
C528 C532 1.368 . S
C529 C510 1.429 . S
C529 C523 1.429 . S
C529 C530 1.523 . S
C530 C511 1.368 . S
C530 C524 1.368 . S
C530 C529 1.523 . S
C531 C515 1.429 . S
C531 C527 1.429 . S
C531 C532 1.523 . S
C532 C516 1.368 . S
C532 C528 1.368 . S
C532 C531 1.523 . S
H533 C508 0.950 . S
H534 C510 0.950 . S
H535 C511 0.949 . S
H536 C513 0.950 . S
H537 C515 0.950 . S
C538 C539 1.349 1_455 S
C538 C540 1.327 . S
C538 H563 0.950 1_455 S
C539 C538 1.349 1_655 S
C539 C555 1.349 . S
C540 C538 1.327 . S
C540 C559 1.429 . S
C540 H564 0.950 . S
C541 C558 1.574 . S
C541 C560 1.368 . S
C541 H565 0.949 . S
H542 C546 0.949 . S
C543 C544 1.349 . S
C543 C545 1.327 . S
C543 H566 0.950 . S
C544 C543 1.349 . S
C544 C556 1.349 . S
C545 C543 1.327 . S
C545 C561 1.429 . S
C545 H567 0.950 . S
C546 H542 0.949 . S
C546 C554 1.574 . S
C546 C562 1.368 . S
H547 C555 0.950 . S
H548 C553 0.950 . S
H549 C554 0.949 . S
H550 C556 0.950 . S
H551 C557 0.950 . S
H552 C558 0.949 . S
C553 H548 0.950 . S
C553 C555 1.327 1_455 S
C553 C559 1.429 . S
C554 C546 1.574 . S
C554 H549 0.949 . S
C554 C560 1.368 . S
C555 C539 1.349 . S
C555 H547 0.950 . S
C555 C553 1.327 1_655 S
C556 C544 1.349 . S
C556 H550 0.950 . S
C556 C557 1.327 . S
C557 H551 0.950 . S
C557 C556 1.327 . S
C557 C561 1.429 . S
C558 C541 1.574 . S
C558 H552 0.949 . S
C558 C562 1.368 . S
C559 C540 1.429 . S
C559 C553 1.429 . S
C559 C560 1.523 . S
C560 C541 1.368 . S
C560 C554 1.368 . S
C560 C559 1.523 . S
C561 C545 1.429 . S
C561 C557 1.429 . S
C561 C562 1.523 . S
C562 C546 1.368 . S
C562 C558 1.368 . S
C562 C561 1.523 . S
H563 C538 0.950 1_655 S
H564 C540 0.950 . S
H565 C541 0.949 . S
H566 C543 0.950 . S
H567 C545 0.950 . S
C568 C569 1.349 . S
C568 C570 1.327 . S
C568 H593 0.950 . S
C569 C568 1.349 . S
C569 C585 1.349 . S
C570 C568 1.327 . S
C570 C589 1.429 . S
C570 H594 0.950 . S
C571 C588 1.574 . S
C571 C590 1.368 . S
C571 H595 0.949 . S
H572 C576 0.949 . S
C573 C574 1.349 . S
C573 C575 1.327 . S
C573 H596 0.950 . S
C574 C573 1.349 . S
C574 C586 1.349 . S
C575 C573 1.327 . S
C575 C591 1.429 . S
C575 H597 0.950 . S
C576 H572 0.949 . S
C576 C584 1.574 . S
C576 C592 1.368 . S
H577 C585 0.950 . S
H578 C583 0.950 . S
H579 C584 0.949 . S
H580 C586 0.950 . S
H581 C587 0.950 . S
H582 C588 0.949 . S
C583 H578 0.950 . S
C583 C585 1.327 . S
C583 C589 1.429 . S
C584 C576 1.574 . S
C584 H579 0.949 . S
C584 C590 1.368 . S
C585 C569 1.349 . S
C585 H577 0.950 . S
C585 C583 1.327 . S
C586 C574 1.349 . S
C586 H580 0.950 . S
C586 C587 1.327 . S
C587 H581 0.950 . S
C587 C586 1.327 . S
C587 C591 1.429 . S
C588 C571 1.574 . S
C588 H582 0.949 . S
C588 C592 1.368 . S
C589 C570 1.429 . S
C589 C583 1.429 . S
C589 C590 1.523 . S
C590 C571 1.368 . S
C590 C584 1.368 . S
C590 C589 1.523 . S
C591 C575 1.429 . S
C591 C587 1.429 . S
C591 C592 1.523 . S
C592 C576 1.368 . S
C592 C588 1.368 . S
C592 C591 1.523 . S
H593 C568 0.950 . S
H594 C570 0.950 . S
H595 C571 0.949 . S
H596 C573 0.950 . S
H597 C575 0.950 . S
C598 C599 1.349 . S
C598 C600 1.327 . S
C598 H623 0.950 . S
C599 C598 1.349 . S
C599 C615 1.349 . S
C600 C598 1.327 . S
C600 C619 1.429 . S
C600 H624 0.950 . S
C601 C618 1.574 . S
C601 C620 1.368 . S
C601 H625 0.949 . S
H602 C606 0.949 . S
C603 C604 1.349 . S
C603 C605 1.327 . S
C603 H626 0.950 . S
C604 C603 1.349 . S
C604 C616 1.349 . S
C605 C603 1.327 . S
C605 C621 1.429 . S
C605 H627 0.950 . S
C606 H602 0.949 . S
C606 C614 1.574 . S
C606 C622 1.368 . S
H607 C615 0.950 . S
H608 C613 0.950 . S
H609 C614 0.949 . S
H610 C616 0.950 . S
H611 C617 0.950 . S
H612 C618 0.949 . S
C613 H608 0.950 . S
C613 C615 1.327 . S
C613 C619 1.429 . S
C614 C606 1.574 . S
C614 H609 0.949 . S
C614 C620 1.368 . S
C615 C599 1.349 . S
C615 H607 0.950 . S
C615 C613 1.327 . S
C616 C604 1.349 . S
C616 H610 0.950 . S
C616 C617 1.327 . S
C617 H611 0.950 . S
C617 C616 1.327 . S
C617 C621 1.429 . S
C618 C601 1.574 . S
C618 H612 0.949 . S
C618 C622 1.368 . S
C619 C600 1.429 . S
C619 C613 1.429 . S
C619 C620 1.523 . S
C620 C601 1.368 . S
C620 C614 1.368 . S
C620 C619 1.523 . S
C621 C605 1.429 . S
C621 C617 1.429 . S
C621 C622 1.523 . S
C622 C606 1.368 . S
C622 C618 1.368 . S
C622 C621 1.523 . S
H623 C598 0.950 . S
H624 C600 0.950 . S
H625 C601 0.949 . S
H626 C603 0.950 . S
H627 C605 0.950 . S
C628 C629 1.349 . S
C628 C630 1.327 . S
C628 H653 0.950 . S
C629 C628 1.349 . S
C629 C645 1.349 . S
C630 C628 1.327 . S
C630 C649 1.429 . S
C630 H654 0.950 . S
C631 C648 1.574 . S
C631 C650 1.368 . S
C631 H655 0.949 . S
H632 C636 0.949 . S
C633 C634 1.349 . S
C633 C635 1.327 . S
C633 H656 0.950 . S
C634 C633 1.349 . S
C634 C646 1.349 . S
C635 C633 1.327 . S
C635 C651 1.429 . S
C635 H657 0.950 . S
C636 H632 0.949 . S
C636 C644 1.574 . S
C636 C652 1.368 . S
H637 C645 0.950 . S
H638 C643 0.950 . S
H639 C644 0.949 . S
H640 C646 0.950 . S
H641 C647 0.950 . S
H642 C648 0.949 . S
C643 H638 0.950 . S
C643 C645 1.327 . S
C643 C649 1.429 . S
C644 C636 1.574 . S
C644 H639 0.949 . S
C644 C650 1.368 . S
C645 C629 1.349 . S
C645 H637 0.950 . S
C645 C643 1.327 . S
C646 C634 1.349 . S
C646 H640 0.950 . S
C646 C647 1.327 . S
C647 H641 0.950 . S
C647 C646 1.327 . S
C647 C651 1.429 . S
C648 C631 1.574 . S
C648 H642 0.949 . S
C648 C652 1.368 . S
C649 C630 1.429 . S
C649 C643 1.429 . S
C649 C650 1.523 . S
C650 C631 1.368 . S
C650 C644 1.368 . S
C650 C649 1.523 . S
C651 C635 1.429 . S
C651 C647 1.429 . S
C651 C652 1.523 . S
C652 C636 1.368 . S
C652 C648 1.368 . S
C652 C651 1.523 . S
H653 C628 0.950 . S
H654 C630 0.950 . S
H655 C631 0.949 . S
H656 C633 0.950 . S
H657 C635 0.950 . S
C658 C659 1.349 . S
C658 C660 1.327 . S
C658 H683 0.950 . S
C659 C658 1.349 . S
C659 C675 1.349 . S
C660 C658 1.327 . S
C660 C679 1.429 . S
C660 H684 0.950 . S
C661 C678 1.574 . S
C661 C680 1.368 . S
C661 H685 0.949 . S
H662 C666 0.949 . S
C663 C664 1.349 . S
C663 C665 1.327 . S
C663 H686 0.950 . S
C664 C663 1.349 . S
C664 C676 1.349 . S
C665 C663 1.327 . S
C665 C681 1.429 . S
C665 H687 0.950 . S
C666 H662 0.949 . S
C666 C674 1.574 . S
C666 C682 1.368 . S
H667 C675 0.950 . S
H668 C673 0.950 . S
H669 C674 0.949 . S
H670 C676 0.950 . S
H671 C677 0.950 . S
H672 C678 0.949 . S
C673 H668 0.950 . S
C673 C675 1.327 . S
C673 C679 1.429 . S
C674 C666 1.574 . S
C674 H669 0.949 . S
C674 C680 1.368 . S
C675 C659 1.349 . S
C675 H667 0.950 . S
C675 C673 1.327 . S
C676 C664 1.349 . S
C676 H670 0.950 . S
C676 C677 1.327 . S
C677 H671 0.950 . S
C677 C676 1.327 . S
C677 C681 1.429 . S
C678 C661 1.574 . S
C678 H672 0.949 . S
C678 C682 1.368 . S
C679 C660 1.429 . S
C679 C673 1.429 . S
C679 C680 1.523 . S
C680 C661 1.368 . S
C680 C674 1.368 . S
C680 C679 1.523 . S
C681 C665 1.429 . S
C681 C677 1.429 . S
C681 C682 1.523 . S
C682 C666 1.368 . S
C682 C678 1.368 . S
C682 C681 1.523 . S
H683 C658 0.950 . S
H684 C660 0.950 . S
H685 C661 0.949 . S
H686 C663 0.950 . S
H687 C665 0.950 . S
C688 C689 1.349 . S
C688 C690 1.327 . S
C688 H713 0.950 . S
C689 C688 1.349 . S
C689 C705 1.349 . S
C690 C688 1.327 . S
C690 C709 1.429 . S
C690 H714 0.950 . S
C691 C708 1.574 . S
C691 C710 1.368 . S
C691 H715 0.949 . S
H692 C696 0.949 . S
C693 C694 1.349 . S
C693 C695 1.327 . S
C693 H716 0.950 . S
C694 C693 1.349 . S
C694 C706 1.349 . S
C695 C693 1.327 . S
C695 C711 1.429 . S
C695 H717 0.950 . S
C696 H692 0.949 . S
C696 C704 1.574 . S
C696 C712 1.368 . S
H697 C705 0.950 . S
H698 C703 0.950 . S
H699 C704 0.949 . S
H700 C706 0.950 . S
H701 C707 0.950 . S
H702 C708 0.949 . S
C703 H698 0.950 . S
C703 C705 1.327 . S
C703 C709 1.429 . S
C704 C696 1.574 . S
C704 H699 0.949 . S
C704 C710 1.368 . S
C705 C689 1.349 . S
C705 H697 0.950 . S
C705 C703 1.327 . S
C706 C694 1.349 . S
C706 H700 0.950 . S
C706 C707 1.327 . S
C707 H701 0.950 . S
C707 C706 1.327 . S
C707 C711 1.429 . S
C708 C691 1.574 . S
C708 H702 0.949 . S
C708 C712 1.368 . S
C709 C690 1.429 . S
C709 C703 1.429 . S
C709 C710 1.523 . S
C710 C691 1.368 . S
C710 C704 1.368 . S
C710 C709 1.523 . S
C711 C695 1.429 . S
C711 C707 1.429 . S
C711 C712 1.523 . S
C712 C696 1.368 . S
C712 C708 1.368 . S
C712 C711 1.523 . S
H713 C688 0.950 . S
H714 C690 0.950 . S
H715 C691 0.949 . S
H716 C693 0.950 . S
H717 C695 0.950 . S
C718 C719 1.349 . S
C718 C720 1.327 . S
C718 H743 0.950 . S
C719 C718 1.349 . S
C719 C735 1.349 . S
C720 C718 1.327 . S
C720 C739 1.429 . S
C720 H744 0.950 . S
C721 C738 1.574 . S
C721 C740 1.368 . S
C721 H745 0.949 . S
H722 C726 0.949 . S
C723 C724 1.349 . S
C723 C725 1.327 . S
C723 H746 0.950 . S
C724 C723 1.349 . S
C724 C736 1.349 . S
C725 C723 1.327 . S
C725 C741 1.429 . S
C725 H747 0.950 . S
C726 H722 0.949 . S
C726 C734 1.574 . S
C726 C742 1.368 . S
H727 C735 0.950 . S
H728 C733 0.950 . S
H729 C734 0.949 . S
H730 C736 0.950 . S
H731 C737 0.950 . S
H732 C738 0.949 . S
C733 H728 0.950 . S
C733 C735 1.327 . S
C733 C739 1.429 . S
C734 C726 1.574 . S
C734 H729 0.949 . S
C734 C740 1.368 . S
C735 C719 1.349 . S
C735 H727 0.950 . S
C735 C733 1.327 . S
C736 C724 1.349 . S
C736 H730 0.950 . S
C736 C737 1.327 . S
C737 H731 0.950 . S
C737 C736 1.327 . S
C737 C741 1.429 . S
C738 C721 1.574 . S
C738 H732 0.949 . S
C738 C742 1.368 . S
C739 C720 1.429 . S
C739 C733 1.429 . S
C739 C740 1.523 . S
C740 C721 1.368 . S
C740 C734 1.368 . S
C740 C739 1.523 . S
C741 C725 1.429 . S
C741 C737 1.429 . S
C741 C742 1.523 . S
C742 C726 1.368 . S
C742 C738 1.368 . S
C742 C741 1.523 . S
H743 C718 0.950 . S
H744 C720 0.950 . S
H745 C721 0.949 . S
H746 C723 0.950 . S
H747 C725 0.950 . S
C748 C749 1.349 . S
C748 C750 1.327 . S
C748 H773 0.950 . S
C749 C748 1.349 . S
C749 C765 1.349 . S
C750 C748 1.327 . S
C750 C769 1.429 . S
C750 H774 0.950 . S
C751 C768 1.574 . S
C751 C770 1.368 . S
C751 H775 0.949 . S
H752 C756 0.949 . S
C753 C754 1.349 . S
C753 C755 1.327 . S
C753 H776 0.950 . S
C754 C753 1.349 . S
C754 C766 1.349 . S
C755 C753 1.327 . S
C755 C771 1.429 . S
C755 H777 0.950 . S
C756 H752 0.949 . S
C756 C764 1.574 . S
C756 C772 1.368 . S
H757 C765 0.950 . S
H758 C763 0.950 . S
H759 C764 0.949 . S
H760 C766 0.950 . S
H761 C767 0.950 . S
H762 C768 0.949 . S
C763 H758 0.950 . S
C763 C765 1.327 . S
C763 C769 1.429 . S
C764 C756 1.574 . S
C764 H759 0.949 . S
C764 C770 1.368 . S
C765 C749 1.349 . S
C765 H757 0.950 . S
C765 C763 1.327 . S
C766 C754 1.349 . S
C766 H760 0.950 . S
C766 C767 1.327 . S
C767 H761 0.950 . S
C767 C766 1.327 . S
C767 C771 1.429 . S
C768 C751 1.574 . S
C768 H762 0.949 . S
C768 C772 1.368 . S
C769 C750 1.429 . S
C769 C763 1.429 . S
C769 C770 1.523 . S
C770 C751 1.368 . S
C770 C764 1.368 . S
C770 C769 1.523 . S
C771 C755 1.429 . S
C771 C767 1.429 . S
C771 C772 1.523 . S
C772 C756 1.368 . S
C772 C768 1.368 . S
C772 C771 1.523 . S
H773 C748 0.950 . S
H774 C750 0.950 . S
H775 C751 0.949 . S
H776 C753 0.950 . S
H777 C755 0.950 . S
C778 C779 1.349 . S
C778 C780 1.327 . S
C778 H803 0.950 . S
C779 C778 1.349 . S
C779 C795 1.349 . S
C780 C778 1.327 . S
C780 C799 1.429 . S
C780 H804 0.950 . S
C781 C798 1.574 . S
C781 C800 1.368 . S
C781 H805 0.949 . S
H782 C786 0.949 . S
C783 C784 1.349 . S
C783 C785 1.327 . S
C783 H806 0.950 . S
C784 C783 1.349 . S
C784 C796 1.349 . S
C785 C783 1.327 . S
C785 C801 1.429 . S
C785 H807 0.950 . S
C786 H782 0.949 . S
C786 C794 1.574 . S
C786 C802 1.368 . S
H787 C795 0.950 . S
H788 C793 0.950 . S
H789 C794 0.949 . S
H790 C796 0.950 . S
H791 C797 0.950 . S
H792 C798 0.949 . S
C793 H788 0.950 . S
C793 C795 1.327 . S
C793 C799 1.429 . S
C794 C786 1.574 . S
C794 H789 0.949 . S
C794 C800 1.368 . S
C795 C779 1.349 . S
C795 H787 0.950 . S
C795 C793 1.327 . S
C796 C784 1.349 . S
C796 H790 0.950 . S
C796 C797 1.327 . S
C797 H791 0.950 . S
C797 C796 1.327 . S
C797 C801 1.429 . S
C798 C781 1.574 . S
C798 H792 0.949 . S
C798 C802 1.368 . S
C799 C780 1.429 . S
C799 C793 1.429 . S
C799 C800 1.523 . S
C800 C781 1.368 . S
C800 C794 1.368 . S
C800 C799 1.523 . S
C801 C785 1.429 . S
C801 C797 1.429 . S
C801 C802 1.523 . S
C802 C786 1.368 . S
C802 C798 1.368 . S
C802 C801 1.523 . S
H803 C778 0.950 . S
H804 C780 0.950 . S
H805 C781 0.949 . S
H806 C783 0.950 . S
H807 C785 0.950 . S
C808 C809 1.349 . S
C808 C810 1.327 . S
C808 H833 0.950 . S
C809 C808 1.349 . S
C809 C825 1.349 . S
C810 C808 1.327 . S
C810 C829 1.429 . S
C810 H834 0.950 . S
C811 C828 1.574 . S
C811 C830 1.368 . S
C811 H835 0.949 . S
H812 C816 0.949 . S
C813 C814 1.349 . S
C813 C815 1.327 . S
C813 H836 0.950 . S
C814 C813 1.349 . S
C814 C826 1.349 . S
C815 C813 1.327 . S
C815 C831 1.429 . S
C815 H837 0.950 . S
C816 H812 0.949 . S
C816 C824 1.574 . S
C816 C832 1.368 . S
H817 C825 0.950 . S
H818 C823 0.950 . S
H819 C824 0.949 . S
H820 C826 0.950 . S
H821 C827 0.950 . S
H822 C828 0.949 . S
C823 H818 0.950 . S
C823 C825 1.327 . S
C823 C829 1.429 . S
C824 C816 1.574 . S
C824 H819 0.949 . S
C824 C830 1.368 . S
C825 C809 1.349 . S
C825 H817 0.950 . S
C825 C823 1.327 . S
C826 C814 1.349 . S
C826 H820 0.950 . S
C826 C827 1.327 . S
C827 H821 0.950 . S
C827 C826 1.327 . S
C827 C831 1.429 . S
C828 C811 1.574 . S
C828 H822 0.949 . S
C828 C832 1.368 . S
C829 C810 1.429 . S
C829 C823 1.429 . S
C829 C830 1.523 . S
C830 C811 1.368 . S
C830 C824 1.368 . S
C830 C829 1.523 . S
C831 C815 1.429 . S
C831 C827 1.429 . S
C831 C832 1.523 . S
C832 C816 1.368 . S
C832 C828 1.368 . S
C832 C831 1.523 . S
H833 C808 0.950 . S
H834 C810 0.950 . S
H835 C811 0.949 . S
H836 C813 0.950 . S
H837 C815 0.950 . S
C838 C839 1.349 . S
C838 C840 1.327 . S
C838 H863 0.950 . S
C839 C838 1.349 . S
C839 C855 1.349 . S
C840 C838 1.327 . S
C840 C859 1.429 . S
C840 H864 0.950 . S
C841 C858 1.574 . S
C841 C860 1.368 . S
C841 H865 0.949 . S
H842 C846 0.949 . S
C843 C844 1.349 . S
C843 C845 1.327 . S
C843 H866 0.950 . S
C844 C843 1.349 . S
C844 C856 1.349 . S
C845 C843 1.327 . S
C845 C861 1.429 . S
C845 H867 0.950 . S
C846 H842 0.949 . S
C846 C854 1.574 . S
C846 C862 1.368 . S
H847 C855 0.950 . S
H848 C853 0.950 . S
H849 C854 0.949 . S
H850 C856 0.950 . S
H851 C857 0.950 . S
H852 C858 0.949 . S
C853 H848 0.950 . S
C853 C855 1.327 . S
C853 C859 1.429 . S
C854 C846 1.574 . S
C854 H849 0.949 . S
C854 C860 1.368 . S
C855 C839 1.349 . S
C855 H847 0.950 . S
C855 C853 1.327 . S
C856 C844 1.349 . S
C856 H850 0.950 . S
C856 C857 1.327 . S
C857 H851 0.950 . S
C857 C856 1.327 . S
C857 C861 1.429 . S
C858 C841 1.574 . S
C858 H852 0.949 . S
C858 C862 1.368 . S
C859 C840 1.429 . S
C859 C853 1.429 . S
C859 C860 1.523 . S
C860 C841 1.368 . S
C860 C854 1.368 . S
C860 C859 1.523 . S
C861 C845 1.429 . S
C861 C857 1.429 . S
C861 C862 1.523 . S
C862 C846 1.368 . S
C862 C858 1.368 . S
C862 C861 1.523 . S
H863 C838 0.950 . S
H864 C840 0.950 . S
H865 C841 0.949 . S
H866 C843 0.950 . S
H867 C845 0.950 . S
C868 C869 1.349 . S
C868 C870 1.327 . S
C868 H893 0.950 . S
C869 C868 1.349 . S
C869 C885 1.349 . S
C870 C868 1.327 . S
C870 C889 1.429 . S
C870 H894 0.950 . S
C871 C888 1.574 . S
C871 C890 1.368 . S
C871 H895 0.949 . S
H872 C876 0.949 . S
C873 C874 1.349 . S
C873 C875 1.327 . S
C873 H896 0.950 . S
C874 C873 1.349 . S
C874 C886 1.349 . S
C875 C873 1.327 . S
C875 C891 1.429 . S
C875 H897 0.950 . S
C876 H872 0.949 . S
C876 C884 1.574 . S
C876 C892 1.368 . S
H877 C885 0.950 . S
H878 C883 0.950 . S
H879 C884 0.949 . S
H880 C886 0.950 . S
H881 C887 0.950 . S
H882 C888 0.949 . S
C883 H878 0.950 . S
C883 C885 1.327 . S
C883 C889 1.429 . S
C884 C876 1.574 . S
C884 H879 0.949 . S
C884 C890 1.368 . S
C885 C869 1.349 . S
C885 H877 0.950 . S
C885 C883 1.327 . S
C886 C874 1.349 . S
C886 H880 0.950 . S
C886 C887 1.327 . S
C887 H881 0.950 . S
C887 C886 1.327 . S
C887 C891 1.429 . S
C888 C871 1.574 . S
C888 H882 0.949 . S
C888 C892 1.368 . S
C889 C870 1.429 . S
C889 C883 1.429 . S
C889 C890 1.523 . S
C890 C871 1.368 . S
C890 C884 1.368 . S
C890 C889 1.523 . S
C891 C875 1.429 . S
C891 C887 1.429 . S
C891 C892 1.523 . S
C892 C876 1.368 . S
C892 C888 1.368 . S
C892 C891 1.523 . S
H893 C868 0.950 . S
H894 C870 0.950 . S
H895 C871 0.949 . S
H896 C873 0.950 . S
H897 C875 0.950 . S
C898 C899 1.349 . S
C898 C900 1.327 . S
C898 H923 0.950 . S
C899 C898 1.349 . S
C899 C915 1.349 . S
C900 C898 1.327 . S
C900 C919 1.429 . S
C900 H924 0.950 . S
C901 C918 1.574 . S
C901 C920 1.368 . S
C901 H925 0.949 . S
H902 C906 0.949 . S
C903 C904 1.349 . S
C903 C905 1.327 . S
C903 H926 0.950 . S
C904 C903 1.349 . S
C904 C916 1.349 . S
C905 C903 1.327 . S
C905 C921 1.429 . S
C905 H927 0.950 . S
C906 H902 0.949 . S
C906 C914 1.574 . S
C906 C922 1.368 . S
H907 C915 0.950 . S
H908 C913 0.950 . S
H909 C914 0.949 . S
H910 C916 0.950 . S
H911 C917 0.950 . S
H912 C918 0.949 . S
C913 H908 0.950 . S
C913 C915 1.327 . S
C913 C919 1.429 . S
C914 C906 1.574 . S
C914 H909 0.949 . S
C914 C920 1.368 . S
C915 C899 1.349 . S
C915 H907 0.950 . S
C915 C913 1.327 . S
C916 C904 1.349 . S
C916 H910 0.950 . S
C916 C917 1.327 . S
C917 H911 0.950 . S
C917 C916 1.327 . S
C917 C921 1.429 . S
C918 C901 1.574 . S
C918 H912 0.949 . S
C918 C922 1.368 . S
C919 C900 1.429 . S
C919 C913 1.429 . S
C919 C920 1.523 . S
C920 C901 1.368 . S
C920 C914 1.368 . S
C920 C919 1.523 . S
C921 C905 1.429 . S
C921 C917 1.429 . S
C921 C922 1.523 . S
C922 C906 1.368 . S
C922 C918 1.368 . S
C922 C921 1.523 . S
H923 C898 0.950 . S
H924 C900 0.950 . S
H925 C901 0.949 . S
H926 C903 0.950 . S
H927 C905 0.950 . S
C928 C929 1.349 . S
C928 C930 1.327 . S
C928 H953 0.950 . S
C929 C928 1.349 . S
C929 C945 1.349 . S
C930 C928 1.327 . S
C930 C949 1.429 . S
C930 H954 0.950 . S
C931 C948 1.574 1_565 S
C931 C950 1.368 1_455 S
C931 H955 0.949 . S
H932 C936 0.949 . S
C933 C934 1.349 . S
C933 C935 1.327 . S
C933 H956 0.950 . S
C934 C933 1.349 . S
C934 C946 1.349 . S
C935 C933 1.327 . S
C935 C951 1.429 . S
C935 H957 0.950 . S
C936 H932 0.949 . S
C936 C944 1.574 1_545 S
C936 C952 1.368 1_655 S
H937 C945 0.950 . S
H938 C943 0.950 . S
H939 C944 0.949 . S
H940 C946 0.950 . S
H941 C947 0.950 . S
H942 C948 0.949 . S
C943 H938 0.950 . S
C943 C945 1.327 . S
C943 C949 1.429 . S
C944 C936 1.574 1_565 S
C944 H939 0.949 . S
C944 C950 1.368 . S
C945 C929 1.349 . S
C945 H937 0.950 . S
C945 C943 1.327 . S
C946 C934 1.349 . S
C946 H940 0.950 . S
C946 C947 1.327 . S
C947 H941 0.950 . S
C947 C946 1.327 . S
C947 C951 1.429 . S
C948 C931 1.574 1_545 S
C948 H942 0.949 . S
C948 C952 1.368 . S
C949 C930 1.429 . S
C949 C943 1.429 . S
C949 C950 1.523 . S
C950 C931 1.368 1_655 S
C950 C944 1.368 . S
C950 C949 1.523 . S
C951 C935 1.429 . S
C951 C947 1.429 . S
C951 C952 1.523 . S
C952 C936 1.368 1_455 S
C952 C948 1.368 . S
C952 C951 1.523 . S
H953 C928 0.950 . S
H954 C930 0.950 . S
H955 C931 0.949 . S
H956 C933 0.950 . S
H957 C935 0.950 . S
C958 C959 1.349 . S
C958 C960 1.327 . S
C958 H983 0.950 . S
C959 C958 1.349 . S
C959 C975 1.349 . S
C960 C958 1.327 . S
C960 C979 1.429 . S
C960 H984 0.950 . S
C961 C978 1.574 1_655 S
C961 C980 1.368 1_565 S
C961 H985 0.949 . S
H962 C966 0.949 . S
C963 C964 1.349 . S
C963 C965 1.327 . S
C963 H986 0.950 . S
C964 C963 1.349 . S
C964 C976 1.349 . S
C965 C963 1.327 . S
C965 C981 1.429 . S
C965 H987 0.950 . S
C966 H962 0.949 . S
C966 C974 1.574 1_455 S
C966 C982 1.368 1_545 S
H967 C975 0.950 . S
H968 C973 0.950 . S
H969 C974 0.949 . S
H970 C976 0.950 . S
H971 C977 0.950 . S
H972 C978 0.949 . S
C973 H968 0.950 . S
C973 C975 1.327 . S
C973 C979 1.429 . S
C974 C966 1.574 1_655 S
C974 H969 0.949 . S
C974 C980 1.368 . S
C975 C959 1.349 . S
C975 H967 0.950 . S
C975 C973 1.327 . S
C976 C964 1.349 . S
C976 H970 0.950 . S
C976 C977 1.327 . S
C977 H971 0.950 . S
C977 C976 1.327 . S
C977 C981 1.429 . S
C978 C961 1.574 1_455 S
C978 H972 0.949 . S
C978 C982 1.368 . S
C979 C960 1.429 . S
C979 C973 1.429 . S
C979 C980 1.523 . S
C980 C961 1.368 1_545 S
C980 C974 1.368 . S
C980 C979 1.523 . S
C981 C965 1.429 . S
C981 C977 1.429 . S
C981 C982 1.523 . S
C982 C966 1.368 1_565 S
C982 C978 1.368 . S
C982 C981 1.523 . S
H983 C958 0.950 . S
H984 C960 0.950 . S
H985 C961 0.949 . S
H986 C963 0.950 . S
H987 C965 0.950 . S
C988 C989 1.349 . S
C988 C990 1.327 . S
C988 H1013 0.950 . S
C989 C988 1.349 . S
C989 C1005 1.349 . S
C990 C988 1.327 . S
C990 C1009 1.429 . S
C990 H1014 0.950 . S
C991 C1008 1.574 . S
C991 C1010 1.368 1_655 S
C991 H1015 0.949 . S
H992 C996 0.949 . S
C993 C994 1.349 . S
C993 C995 1.327 . S
C993 H1016 0.950 . S
C994 C993 1.349 . S
C994 C1006 1.349 . S
C995 C993 1.327 . S
C995 C1011 1.429 . S
C995 H1017 0.950 . S
C996 H992 0.949 . S
C996 C1004 1.574 . S
C996 C1012 1.368 1_455 S
H997 C1005 0.950 . S
H998 C1003 0.950 . S
H999 C1004 0.949 . S
H1000 C1006 0.950 . S
H1001 C1007 0.950 . S
H1002 C1008 0.949 . S
C1003 H998 0.950 . S
C1003 C1005 1.327 . S
C1003 C1009 1.429 . S
C1004 C996 1.574 . S
C1004 H999 0.949 . S
C1004 C1010 1.368 . S
C1005 C989 1.349 . S
C1005 H997 0.950 . S
C1005 C1003 1.327 . S
C1006 C994 1.349 . S
C1006 H1000 0.950 . S
C1006 C1007 1.327 . S
C1007 H1001 0.950 . S
C1007 C1006 1.327 . S
C1007 C1011 1.429 . S
C1008 C991 1.574 . S
C1008 H1002 0.949 . S
C1008 C1012 1.368 . S
C1009 C990 1.429 . S
C1009 C1003 1.429 . S
C1009 C1010 1.523 . S
C1010 C991 1.368 1_455 S
C1010 C1004 1.368 . S
C1010 C1009 1.523 . S
C1011 C995 1.429 . S
C1011 C1007 1.429 . S
C1011 C1012 1.523 . S
C1012 C996 1.368 1_655 S
C1012 C1008 1.368 . S
C1012 C1011 1.523 . S
H1013 C988 0.950 . S
H1014 C990 0.950 . S
H1015 C991 0.949 . S
H1016 C993 0.950 . S
H1017 C995 0.950 . S
C1018 C1019 1.349 . S
C1018 C1020 1.327 . S
C1018 H1043 0.950 . S
C1019 C1018 1.349 . S
C1019 C1035 1.349 . S
C1020 C1018 1.327 . S
C1020 C1039 1.429 . S
C1020 H1044 0.950 . S
C1021 C1038 1.574 . S
C1021 C1040 1.368 . S
C1021 H1045 0.949 . S
H1022 C1026 0.949 . S
C1023 C1024 1.349 . S
C1023 C1025 1.327 . S
C1023 H1046 0.950 . S
C1024 C1023 1.349 . S
C1024 C1036 1.349 . S
C1025 C1023 1.327 . S
C1025 C1041 1.429 . S
C1025 H1047 0.950 . S
C1026 H1022 0.949 . S
C1026 C1034 1.574 . S
C1026 C1042 1.368 . S
H1027 C1035 0.950 . S
H1028 C1033 0.950 . S
H1029 C1034 0.949 . S
H1030 C1036 0.950 . S
H1031 C1037 0.950 . S
H1032 C1038 0.949 . S
C1033 H1028 0.950 . S
C1033 C1035 1.327 . S
C1033 C1039 1.429 . S
C1034 C1026 1.574 . S
C1034 H1029 0.949 . S
C1034 C1040 1.368 1_545 S
C1035 C1019 1.349 . S
C1035 H1027 0.950 . S
C1035 C1033 1.327 . S
C1036 C1024 1.349 . S
C1036 H1030 0.950 . S
C1036 C1037 1.327 . S
C1037 H1031 0.950 . S
C1037 C1036 1.327 . S
C1037 C1041 1.429 . S
C1038 C1021 1.574 . S
C1038 H1032 0.949 . S
C1038 C1042 1.368 1_565 S
C1039 C1020 1.429 . S
C1039 C1033 1.429 . S
C1039 C1040 1.523 . S
C1040 C1021 1.368 . S
C1040 C1034 1.368 1_565 S
C1040 C1039 1.523 . S
C1041 C1025 1.429 . S
C1041 C1037 1.429 . S
C1041 C1042 1.523 . S
C1042 C1026 1.368 . S
C1042 C1038 1.368 1_545 S
C1042 C1041 1.523 . S
H1043 C1018 0.950 . S
H1044 C1020 0.950 . S
H1045 C1021 0.949 . S
H1046 C1023 0.950 . S
H1047 C1025 0.950 . S
C1048 C1049 1.349 . S
C1048 C1050 1.327 . S
C1048 H1073 0.950 . S
C1049 C1048 1.349 . S
C1049 C1065 1.349 . S
C1050 C1048 1.327 . S
C1050 C1069 1.429 . S
C1050 H1074 0.950 . S
C1051 C1068 1.574 . S
C1051 C1070 1.368 . S
C1051 H1075 0.949 . S
H1052 C1056 0.949 . S
C1053 C1054 1.349 . S
C1053 C1055 1.327 . S
C1053 H1076 0.950 . S
C1054 C1053 1.349 . S
C1054 C1066 1.349 . S
C1055 C1053 1.327 . S
C1055 C1071 1.429 . S
C1055 H1077 0.950 . S
C1056 H1052 0.949 . S
C1056 C1064 1.574 . S
C1056 C1072 1.368 . S
H1057 C1065 0.950 . S
H1058 C1063 0.950 . S
H1059 C1064 0.949 . S
H1060 C1066 0.950 . S
H1061 C1067 0.950 . S
H1062 C1068 0.949 . S
C1063 H1058 0.950 . S
C1063 C1065 1.327 . S
C1063 C1069 1.429 . S
C1064 C1056 1.574 . S
C1064 H1059 0.949 . S
C1064 C1070 1.368 . S
C1065 C1049 1.349 . S
C1065 H1057 0.950 . S
C1065 C1063 1.327 . S
C1066 C1054 1.349 . S
C1066 H1060 0.950 . S
C1066 C1067 1.327 . S
C1067 H1061 0.950 . S
C1067 C1066 1.327 . S
C1067 C1071 1.429 . S
C1068 C1051 1.574 . S
C1068 H1062 0.949 . S
C1068 C1072 1.368 . S
C1069 C1050 1.429 . S
C1069 C1063 1.429 . S
C1069 C1070 1.523 . S
C1070 C1051 1.368 . S
C1070 C1064 1.368 . S
C1070 C1069 1.523 . S
C1071 C1055 1.429 . S
C1071 C1067 1.429 . S
C1071 C1072 1.523 . S
C1072 C1056 1.368 . S
C1072 C1068 1.368 . S
C1072 C1071 1.523 . S
H1073 C1048 0.950 . S
H1074 C1050 0.950 . S
H1075 C1051 0.949 . S
H1076 C1053 0.950 . S
H1077 C1055 0.950 . S
C1078 C1079 1.349 . S
C1078 C1080 1.327 . S
C1078 H1103 0.950 . S
C1079 C1078 1.349 . S
C1079 C1095 1.349 . S
C1080 C1078 1.327 . S
C1080 C1099 1.429 . S
C1080 H1104 0.950 . S
C1081 C1098 1.574 . S
C1081 C1100 1.368 . S
C1081 H1105 0.949 . S
H1082 C1086 0.949 . S
C1083 C1084 1.349 . S
C1083 C1085 1.327 . S
C1083 H1106 0.950 . S
C1084 C1083 1.349 . S
C1084 C1096 1.349 . S
C1085 C1083 1.327 . S
C1085 C1101 1.429 . S
C1085 H1107 0.950 . S
C1086 H1082 0.949 . S
C1086 C1094 1.574 . S
C1086 C1102 1.368 . S
H1087 C1095 0.950 . S
H1088 C1093 0.950 . S
H1089 C1094 0.949 . S
H1090 C1096 0.950 . S
H1091 C1097 0.950 . S
H1092 C1098 0.949 . S
C1093 H1088 0.950 . S
C1093 C1095 1.327 . S
C1093 C1099 1.429 . S
C1094 C1086 1.574 . S
C1094 H1089 0.949 . S
C1094 C1100 1.368 . S
C1095 C1079 1.349 . S
C1095 H1087 0.950 . S
C1095 C1093 1.327 . S
C1096 C1084 1.349 . S
C1096 H1090 0.950 . S
C1096 C1097 1.327 . S
C1097 H1091 0.950 . S
C1097 C1096 1.327 . S
C1097 C1101 1.429 . S
C1098 C1081 1.574 . S
C1098 H1092 0.949 . S
C1098 C1102 1.368 . S
C1099 C1080 1.429 . S
C1099 C1093 1.429 . S
C1099 C1100 1.523 . S
C1100 C1081 1.368 . S
C1100 C1094 1.368 . S
C1100 C1099 1.523 . S
C1101 C1085 1.429 . S
C1101 C1097 1.429 . S
C1101 C1102 1.523 . S
C1102 C1086 1.368 . S
C1102 C1098 1.368 . S
C1102 C1101 1.523 . S
H1103 C1078 0.950 . S
H1104 C1080 0.950 . S
H1105 C1081 0.949 . S
H1106 C1083 0.950 . S
H1107 C1085 0.950 . S
C1108 C1109 1.349 . S
C1108 C1110 1.327 . S
C1108 H1133 0.950 . S
C1109 C1108 1.349 . S
C1109 C1125 1.349 . S
C1110 C1108 1.327 . S
C1110 C1129 1.429 . S
C1110 H1134 0.950 . S
C1111 C1128 1.574 1_545 S
C1111 C1130 1.368 . S
C1111 H1135 0.949 . S
H1112 C1116 0.949 . S
C1113 C1114 1.349 . S
C1113 C1115 1.327 . S
C1113 H1136 0.950 . S
C1114 C1113 1.349 . S
C1114 C1126 1.349 . S
C1115 C1113 1.327 . S
C1115 C1131 1.429 . S
C1115 H1137 0.950 . S
C1116 H1112 0.949 . S
C1116 C1124 1.574 1_565 S
C1116 C1132 1.368 . S
H1117 C1125 0.950 . S
H1118 C1123 0.950 . S
H1119 C1124 0.949 . S
H1120 C1126 0.950 . S
H1121 C1127 0.950 . S
H1122 C1128 0.949 . S
C1123 H1118 0.950 . S
C1123 C1125 1.327 . S
C1123 C1129 1.429 . S
C1124 C1116 1.574 1_545 S
C1124 H1119 0.949 . S
C1124 C1130 1.368 . S
C1125 C1109 1.349 . S
C1125 H1117 0.950 . S
C1125 C1123 1.327 . S
C1126 C1114 1.349 . S
C1126 H1120 0.950 . S
C1126 C1127 1.327 . S
C1127 H1121 0.950 . S
C1127 C1126 1.327 . S
C1127 C1131 1.429 . S
C1128 C1111 1.574 1_565 S
C1128 H1122 0.949 . S
C1128 C1132 1.368 . S
C1129 C1110 1.429 . S
C1129 C1123 1.429 . S
C1129 C1130 1.523 . S
C1130 C1111 1.368 . S
C1130 C1124 1.368 . S
C1130 C1129 1.523 . S
C1131 C1115 1.429 . S
C1131 C1127 1.429 . S
C1131 C1132 1.523 . S
C1132 C1116 1.368 . S
C1132 C1128 1.368 . S
C1132 C1131 1.523 . S
H1133 C1108 0.950 . S
H1134 C1110 0.950 . S
H1135 C1111 0.949 . S
H1136 C1113 0.950 . S
H1137 C1115 0.950 . S
C1138 C1139 1.349 . S
C1138 C1140 1.327 . S
C1138 H1163 0.950 . S
C1139 C1138 1.349 . S
C1139 C1155 1.349 . S
C1140 C1138 1.327 . S
C1140 C1159 1.429 . S
C1140 H1164 0.950 . S
C1141 C1158 1.574 1_655 S
C1141 C1160 1.368 . S
C1141 H1165 0.949 . S
H1142 C1146 0.949 . S
C1143 C1144 1.349 . S
C1143 C1145 1.327 . S
C1143 H1166 0.950 . S
C1144 C1143 1.349 . S
C1144 C1156 1.349 . S
C1145 C1143 1.327 . S
C1145 C1161 1.429 . S
C1145 H1167 0.950 . S
C1146 H1142 0.949 . S
C1146 C1154 1.574 1_455 S
C1146 C1162 1.368 . S
H1147 C1155 0.950 . S
H1148 C1153 0.950 . S
H1149 C1154 0.949 . S
H1150 C1156 0.950 . S
H1151 C1157 0.950 . S
H1152 C1158 0.949 . S
C1153 H1148 0.950 . S
C1153 C1155 1.327 . S
C1153 C1159 1.429 . S
C1154 C1146 1.574 1_655 S
C1154 H1149 0.949 . S
C1154 C1160 1.368 . S
C1155 C1139 1.349 . S
C1155 H1147 0.950 . S
C1155 C1153 1.327 . S
C1156 C1144 1.349 . S
C1156 H1150 0.950 . S
C1156 C1157 1.327 . S
C1157 H1151 0.950 . S
C1157 C1156 1.327 . S
C1157 C1161 1.429 . S
C1158 C1141 1.574 1_455 S
C1158 H1152 0.949 . S
C1158 C1162 1.368 . S
C1159 C1140 1.429 . S
C1159 C1153 1.429 . S
C1159 C1160 1.523 . S
C1160 C1141 1.368 . S
C1160 C1154 1.368 . S
C1160 C1159 1.523 . S
C1161 C1145 1.429 . S
C1161 C1157 1.429 . S
C1161 C1162 1.523 . S
C1162 C1146 1.368 . S
C1162 C1158 1.368 . S
C1162 C1161 1.523 . S
H1163 C1138 0.950 . S
H1164 C1140 0.950 . S
H1165 C1141 0.949 . S
H1166 C1143 0.950 . S
H1167 C1145 0.950 . S
C209 C5 1.707 . S
C214 C144 1.703 . S
C239 C105 1.658 . S
C244 C18 1.675 . S
C269 C118 1.703 . S
C274 C31 1.707 . S
C299 C131 1.658 . S
C304 C44 1.675 . S
C329 C66 1.703 . S
C334 C57 1.707 . S
C359 C70 1.675 . S
C364 C79 1.658 . S
C389 C83 1.707 . S
C394 C92 1.703 . S
C419 C96 1.675 . S
C424 C53 1.658 . S
C449 C109 1.707 . S
C454 C40 1.703 . S
C479 C1 1.658 . S
C484 C122 1.675 . S
C509 C14 1.703 . S
C514 C135 1.707 . S
C539 C27 1.658 . S
C544 C148 1.675 . S
C569 C170 1.703 . S
C574 C161 1.707 . S
C599 C174 1.675 . S
C604 C183 1.658 . S
C629 C196 1.703 . S
C634 C187 1.707 . S
C659 C157 1.658 . S
C664 C200 1.675 . S
C689 C185 1.842 . S
C694 C3 1.842 . S
C719 C198 1.925 . S
C724 C16 1.925 . S
C749 C159 1.842 . S
C754 C29 1.842 . S
C779 C42 1.925 . S
C784 C172 1.925 . S
C809 C55 1.842 . S
C814 C133 1.842 . S
C839 C146 1.925 . S
C844 C68 1.925 . S
C869 C81 1.842 . S
C874 C107 1.842 . S
C899 C94 1.925 . S
C904 C120 1.925 . S
C929 C36 1.601 . S
C934 C10 1.601 . S
C959 C49 1.575 . S
C964 C23 1.575 . S
C989 C62 1.601 . S
C994 C88 1.601 . S
C1019 C75 1.575 . S
C1024 C101 1.575 . S
C1049 C140 1.601 . S
C1054 C114 1.601 . S
C1079 C127 1.575 . S
C1084 C153 1.575 . S
C1109 C192 1.601 . S
C1114 C166 1.601 . S
C1139 C179 1.575 . S
C1144 C205 1.575 . S
