# Generated by pormake.
# Topology swf, (7)-cn, num edge types: 1
# Building blocks:
#     Node 0, Type 0, BuildingBlock: NUHQUE_clean_sbu_2, # of connection points: 7
#     Node 1, Type 0, BuildingBlock: NUHQUE_clean_sbu_2, # of connection points: 7
#     Node 2, Type 0, BuildingBlock: NUHQUE_clean_sbu_2, # of connection points: 7
#     Node 3, Type 0, BuildingBlock: NUHQUE_clean_sbu_2, # of connection points: 7
#     Node 4, Type 0, BuildingBlock: NUHQUE_clean_sbu_2, # of connection points: 7
#     Node 5, Type 0, BuildingBlock: NUHQUE_clean_sbu_2, # of connection points: 7
#     Node 6, Type 0, BuildingBlock: NUHQUE_clean_sbu_2, # of connection points: 7
#     Node 7, Type 0, BuildingBlock: NUHQUE_clean_sbu_2, # of connection points: 7
#     Node 8, Type 0, BuildingBlock: NUHQUE_clean_sbu_2, # of connection points: 7
#     Node 9, Type 0, BuildingBlock: NUHQUE_clean_sbu_2, # of connection points: 7
#     Node 10, Type 0, BuildingBlock: NUHQUE_clean_sbu_2, # of connection points: 7
#     Node 11, Type 0, BuildingBlock: NUHQUE_clean_sbu_2, # of connection points: 7
#     Edge 12, Type (0, 0), BuildingBlock: CIFDUS_clean_linker_0, # of connection points: 2
#     Edge 13, Type (0, 0), BuildingBlock: CIFDUS_clean_linker_0, # of connection points: 2
#     Edge 14, Type (0, 0), BuildingBlock: CIFDUS_clean_linker_0, # of connection points: 2
#     Edge 15, Type (0, 0), BuildingBlock: CIFDUS_clean_linker_0, # of connection points: 2
#     Edge 16, Type (0, 0), BuildingBlock: CIFDUS_clean_linker_0, # of connection points: 2
#     Edge 17, Type (0, 0), BuildingBlock: CIFDUS_clean_linker_0, # of connection points: 2
#     Edge 18, Type (0, 0), BuildingBlock: CIFDUS_clean_linker_0, # of connection points: 2
#     Edge 19, Type (0, 0), BuildingBlock: CIFDUS_clean_linker_0, # of connection points: 2
#     Edge 20, Type (0, 0), BuildingBlock: CIFDUS_clean_linker_0, # of connection points: 2
#     Edge 21, Type (0, 0), BuildingBlock: CIFDUS_clean_linker_0, # of connection points: 2
#     Edge 22, Type (0, 0), BuildingBlock: CIFDUS_clean_linker_0, # of connection points: 2
#     Edge 23, Type (0, 0), BuildingBlock: CIFDUS_clean_linker_0, # of connection points: 2
#     Edge 24, Type (0, 0), BuildingBlock: CIFDUS_clean_linker_0, # of connection points: 2
#     Edge 25, Type (0, 0), BuildingBlock: CIFDUS_clean_linker_0, # of connection points: 2
#     Edge 26, Type (0, 0), BuildingBlock: CIFDUS_clean_linker_0, # of connection points: 2
#     Edge 27, Type (0, 0), BuildingBlock: CIFDUS_clean_linker_0, # of connection points: 2
#     Edge 28, Type (0, 0), BuildingBlock: CIFDUS_clean_linker_0, # of connection points: 2
#     Edge 29, Type (0, 0), BuildingBlock: CIFDUS_clean_linker_0, # of connection points: 2
#     Edge 30, Type (0, 0), BuildingBlock: CIFDUS_clean_linker_0, # of connection points: 2
#     Edge 31, Type (0, 0), BuildingBlock: CIFDUS_clean_linker_0, # of connection points: 2
#     Edge 32, Type (0, 0), BuildingBlock: CIFDUS_clean_linker_0, # of connection points: 2
#     Edge 33, Type (0, 0), BuildingBlock: CIFDUS_clean_linker_0, # of connection points: 2
#     Edge 34, Type (0, 0), BuildingBlock: CIFDUS_clean_linker_0, # of connection points: 2
#     Edge 35, Type (0, 0), BuildingBlock: CIFDUS_clean_linker_0, # of connection points: 2
#     Edge 36, Type (0, 0), BuildingBlock: CIFDUS_clean_linker_0, # of connection points: 2
#     Edge 37, Type (0, 0), BuildingBlock: CIFDUS_clean_linker_0, # of connection points: 2
#     Edge 38, Type (0, 0), BuildingBlock: CIFDUS_clean_linker_0, # of connection points: 2
#     Edge 39, Type (0, 0), BuildingBlock: CIFDUS_clean_linker_0, # of connection points: 2
#     Edge 40, Type (0, 0), BuildingBlock: CIFDUS_clean_linker_0, # of connection points: 2
#     Edge 41, Type (0, 0), BuildingBlock: CIFDUS_clean_linker_0, # of connection points: 2
#     Edge 42, Type (0, 0), BuildingBlock: CIFDUS_clean_linker_0, # of connection points: 2
#     Edge 43, Type (0, 0), BuildingBlock: CIFDUS_clean_linker_0, # of connection points: 2
#     Edge 44, Type (0, 0), BuildingBlock: CIFDUS_clean_linker_0, # of connection points: 2
#     Edge 45, Type (0, 0), BuildingBlock: CIFDUS_clean_linker_0, # of connection points: 2
#     Edge 46, Type (0, 0), BuildingBlock: CIFDUS_clean_linker_0, # of connection points: 2
#     Edge 47, Type (0, 0), BuildingBlock: CIFDUS_clean_linker_0, # of connection points: 2
#     Edge 48, Type (0, 0), BuildingBlock: CIFDUS_clean_linker_0, # of connection points: 2
#     Edge 49, Type (0, 0), BuildingBlock: CIFDUS_clean_linker_0, # of connection points: 2
#     Edge 50, Type (0, 0), BuildingBlock: CIFDUS_clean_linker_0, # of connection points: 2
#     Edge 51, Type (0, 0), BuildingBlock: CIFDUS_clean_linker_0, # of connection points: 2
#     Edge 52, Type (0, 0), BuildingBlock: CIFDUS_clean_linker_0, # of connection points: 2
#     Edge 53, Type (0, 0), BuildingBlock: CIFDUS_clean_linker_0, # of connection points: 2
# Relax obj value: 0.269
# Max RMSD: 0.208
# Mean RMSD: 0.208
data_MOF--net-swf--node1-NUHQUE_clean_sbu_2--edge1-CIFDUS_clean_linker_0
_symmetry_space_group_name_H-M    P1
_symmetry_Int_Tables_number       1
_symmetry_cell_setting            triclinic
loop_
_symmetry_equiv_pos_as_xyz
'x, y, z'
_cell_length_a     60.485986
_cell_length_b     60.336098
_cell_length_c     19.090209
_cell_angle_alpha  89.776643
_cell_angle_beta   90.118345
_cell_angle_gamma 119.92061
loop_
_atom_site_label
_atom_site_type_symbol
_atom_site_fract_x
_atom_site_fract_y
_atom_site_fract_z
_atom_type_partial_charge
O0 O 0.51993 0.14061 1.04102 0.0
Tb1 Tb 0.52266 0.1061 1.03444 0.0
Eu2 Eu 0.47838 0.11064 0.11417 0.0
C3 C 0.5349 0.16254 1.00961 0.0
O4 O 0.52989 0.18128 1.01548 0.0
C5 C 0.46792 0.06356 1.00962 0.0
O6 O 0.44692 0.08335 0.18521 0.0
C7 C 0.46917 0.14852 0.09465 0.0
C8 C 0.4411 0.05941 0.19224 0.0
O9 O 0.45387 0.05085 0.1569 0.0
C10 C 0.53151 0.11506 0.19271 0.0
C11 C 0.47697 0.17635 0.09657 0.0
C12 C 0.47755 0.18886 1.03312 0.0
C13 C 0.48103 0.21377 1.03291 0.0
C14 C 0.48486 0.22654 0.09704 0.0
C15 C 0.48466 0.21488 0.16121 0.0
C16 C 0.4804 0.18957 0.16057 0.0
O17 O 0.4899 0.06773 1.03382 0.0
O18 O 0.46063 0.08039 1.02458 0.0
O19 O 0.52691 0.10116 0.9234 0.0
O20 O 0.55572 0.10527 0.99326 0.0
C21 C 0.54764 0.09973 0.92881 0.0
O22 O 0.51242 0.12028 0.19126 0.0
O23 O 0.53756 0.10651 0.13689 0.0
O24 O 0.46453 0.13556 0.15335 0.0
O25 O 0.47819 0.14008 0.04553 0.0
H26 H 0.47394 0.17867 0.98399 0.0
H27 H 0.48742 0.24565 0.09703 0.0
H28 H 0.47957 0.18018 0.20976 0.0
O29 O 0.40347 0.52621 0.0573 0.0
Tb30 Tb 0.43168 0.51521 1.02842 0.0
Eu31 Eu 0.39037 0.47688 0.13631 0.0
C32 C 0.39596 0.53931 1.01886 0.0
O33 O 0.3799 0.54566 0.04555 0.0
C34 C 0.41053 0.4592 1.00311 0.0
O35 O 0.38472 0.44829 0.21904 0.0
C36 C 0.34494 0.4687 0.1001 0.0
C37 C 0.37658 0.44926 0.28195 0.0
O38 O 0.37158 0.46752 0.29728 0.0
C39 C 0.44109 0.52786 0.18818 0.0
C40 C 0.32546 0.47729 0.10106 0.0
C41 C 0.31534 0.48027 1.03703 0.0
C42 C 0.29496 0.48547 1.03575 0.0
C43 C 0.28475 0.48757 0.10002 0.0
C44 C 0.29426 0.48476 0.16485 0.0
C45 C 0.3146 0.47948 0.16475 0.0
O46 O 0.40949 0.47854 0.97572 0.0
O47 O 0.40761 0.45662 0.07169 0.0
O48 O 0.45953 0.54093 0.95032 0.0
O49 O 0.46055 0.50793 0.99052 0.0
C50 C 0.47049 0.52677 0.94605 0.0
O51 O 0.41604 0.51423 0.19732 0.0
O52 O 0.45099 0.5247 0.13015 0.0
O53 O 0.35 0.46099 0.15926 0.0
O54 O 0.36489 0.47989 0.05823 0.0
H55 H 0.32317 0.47823 0.98806 0.0
H56 H 0.2685 0.49054 0.09961 0.0
H57 H 0.32183 0.47694 0.21429 0.0
O58 O 0.89764 0.40376 0.98347 0.0
Tb59 Tb 0.93117 0.41211 1.04367 0.0
Eu60 Eu 0.94561 0.37865 0.12981 0.0
C61 C 0.89394 0.39383 0.92045 0.0
O62 O 0.90567 0.3814 0.90214 0.0
C63 C 0.97159 0.40021 0.98377 0.0
O64 O 0.96226 0.36464 0.21191 0.0
C65 C 0.90309 0.34105 0.08058 0.0
C66 C 0.98347 0.36449 0.1987 0.0
O67 O 0.99268 0.36948 0.13471 0.0
C68 C 0.93014 0.41643 0.20925 0.0
C69 C 0.87685 0.31866 0.08821 0.0
C70 C 0.86325 0.30703 1.02682 0.0
C71 C 0.83894 0.28487 1.02837 0.0
C72 C 0.82827 0.27408 0.09497 0.0
C73 C 0.84135 0.28591 0.15852 0.0
C74 C 0.86581 0.30815 0.1536 0.0
O75 O 0.94825 0.3959 0.97241 0.0
O76 O 0.97756 0.39859 0.04901 0.0
O77 O 0.9444 0.44965 0.99758 0.0
O78 O 0.96969 0.44247 0.06037 0.0
C79 C 0.96743 0.45903 1.02194 0.0
O80 O 0.94318 0.4043 0.21304 0.0
O81 O 0.91903 0.41655 0.14963 0.0
O82 O 0.92248 0.33852 0.1011 0.0
O83 O 0.90697 0.36443 0.08799 0.0
H84 H 0.87196 0.31523 0.97668 0.0
H85 H 0.80948 0.25726 0.09739 0.0
H86 H 0.87645 0.31718 0.20079 0.0
O87 O 0.52538 0.89398 1.01133 0.0
Tb88 Tb 0.53286 0.93248 1.03261 0.0
Eu89 Eu 0.57522 0.92753 0.13673 0.0
C90 C 0.50846 0.87751 0.96761 0.0
O91 O 0.50855 0.85617 0.95503 0.0
C92 C 0.59006 0.96667 1.00737 0.0
O93 O 0.6066 0.9522 0.21039 0.0
C94 C 0.58275 0.89018 0.09889 0.0
C95 C 0.60706 0.94588 0.27582 0.0
O96 O 0.58868 0.92394 0.29981 0.0
C97 C 0.52142 0.92118 0.19843 0.0
C98 C 0.57583 0.86258 0.10228 0.0
C99 C 0.5744 0.84976 1.03912 0.0
C100 C 0.57313 0.82576 1.03955 0.0
C101 C 0.57259 0.81429 0.10427 0.0
C102 C 0.57371 0.8263 0.16815 0.0
C103 C 0.57508 0.85041 0.16684 0.0
O104 O 0.56968 0.94748 0.98025 0.0
O105 O 0.59462 0.9651 0.07395 0.0
O106 O 0.51117 0.94188 0.95737 0.0
O107 O 0.54391 0.97157 1.01141 0.0
C108 C 0.52654 0.96669 0.96417 0.0
O109 O 0.54002 0.91569 0.2052 0.0
O110 O 0.51785 0.93059 0.13931 0.0
O111 O 0.59276 0.90422 0.15506 0.0
O112 O 0.56912 0.89739 0.06108 0.0
H113 H 0.57591 0.85921 0.98948 0.0
H114 H 0.57162 0.79585 0.105 0.0
H115 H 0.57694 0.86021 0.21582 0.0
O116 O 0.65079 0.51259 0.05949 0.0
Tb117 Tb 0.62375 0.52474 1.02674 0.0
Eu118 Eu 0.66534 0.56264 0.13596 0.0
C119 C 0.65763 0.49845 1.02379 0.0
O120 O 0.67287 0.49145 0.05314 0.0
C121 C 0.64707 0.58085 0.99708 0.0
O122 O 0.67001 0.58935 0.22307 0.0
C123 C 0.71118 0.5708 0.106 0.0
C124 C 0.65289 0.5964 0.23079 0.0
O125 O 0.63256 0.5864 0.19064 0.0
C126 C 0.61392 0.51185 0.18668 0.0
C127 C 0.73243 0.56465 0.10931 0.0
C128 C 0.74411 0.56357 0.04611 0.0
C129 C 0.76718 0.56299 0.04658 0.0
C130 C 0.77817 0.56279 0.11142 0.0
C131 C 0.76706 0.56358 0.17533 0.0
C132 C 0.744 0.56427 0.1739 0.0
O133 O 0.64702 0.56078 0.97154 0.0
O134 O 0.65039 0.58402 0.0655 0.0
O135 O 0.59551 0.50067 0.94771 0.0
O136 O 0.59529 0.53339 0.99349 0.0
C137 C 0.58499 0.51532 0.94694 0.0
O138 O 0.63896 0.52516 0.19615 0.0
O139 O 0.60425 0.51524 0.12828 0.0
O140 O 0.70548 0.57914 0.16277 0.0
O141 O 0.69155 0.55828 0.06382 0.0
H142 H 0.73608 0.5648 0.99641 0.0
H143 H 0.79587 0.56234 0.1122 0.0
H144 H 0.73588 0.56589 0.22283 0.0
O145 O 0.16788 0.64153 0.9791 0.0
Tb146 Tb 0.1332 0.63172 1.03449 0.0
Eu147 Eu 0.11261 0.65656 0.12847 0.0
C148 C 0.17217 0.65117 0.91563 0.0
O149 O 0.16058 0.66345 0.89415 0.0
C150 C 0.09076 0.64043 0.97238 0.0
O151 O 0.08425 0.66203 0.19043 0.0
C152 C 0.15416 0.69983 0.10203 0.0
C153 C 0.06031 0.64377 0.18629 0.0
O154 O 0.05452 0.62365 0.14758 0.0
C155 C 0.13323 0.62172 0.1956 0.0
C156 C 0.18165 0.72007 0.10715 0.0
C157 C 0.19518 0.73036 1.04415 0.0
C158 C 0.22051 0.75087 1.04426 0.0
C159 C 0.23235 0.76087 0.10907 0.0
C160 C 0.21955 0.75104 0.17311 0.0
C161 C 0.19393 0.73073 0.1717 0.0
O162 O 0.11435 0.64548 0.9605 0.0
O163 O 0.08418 0.64076 1.03769 0.0
O164 O 0.12064 0.59423 0.98965 0.0
O165 O 0.09592 0.60026 0.05803 0.0
C166 C 0.09821 0.58402 1.01861 0.0
O167 O 0.11555 0.6282 0.20144 0.0
O168 O 0.14759 0.6289 0.13875 0.0
O169 O 0.1382 0.69689 0.15275 0.0
O170 O 0.14752 0.67875 0.06656 0.0
H171 H 0.1858 0.72243 0.99462 0.0
H172 H 0.25157 0.77709 0.10978 0.0
H173 H 0.1837 0.72318 0.22043 0.0
O174 O 0.89246 0.50878 0.66442 0.0
Tb175 Tb 0.93218 0.51855 0.67714 0.0
Eu176 Eu 0.9313 0.56278 0.57887 0.0
C177 C 0.87233 0.49145 0.69835 0.0
O178 O 0.85035 0.49042 0.68824 0.0
C179 C 0.96532 0.57472 0.71638 0.0
O180 O 0.95311 0.59081 0.49404 0.0
C181 C 0.89356 0.5698 0.61758 0.0
C182 C 0.94296 0.5884 0.43174 0.0
O183 O 0.91942 0.57001 0.42075 0.0
C184 C 0.92807 0.51092 0.513 0.0
C185 C 0.86583 0.56218 0.61307 0.0
C186 C 0.85232 0.55942 0.67594 0.0
C187 C 0.82695 0.55465 0.67522 0.0
C188 C 0.81517 0.55257 0.61001 0.0
C189 C 0.82785 0.55504 0.54611 0.0
C190 C 0.8534 0.56011 0.54819 0.0
O191 O 0.94437 0.55394 0.73516 0.0
O192 O 0.9672 0.5812 0.64978 0.0
O193 O 0.93819 0.49492 0.7543 0.0
O194 O 0.96993 0.52852 0.70773 0.0
C195 C 0.96318 0.51024 0.75364 0.0
O196 O 0.91957 0.52738 0.50954 0.0
O197 O 0.93842 0.50849 0.5714 0.0
O198 O 0.9083 0.58109 0.56336 0.0
O199 O 0.9004 0.5554 0.65285 0.0
H200 H 0.86175 0.56126 0.72568 0.0
H201 H 0.79604 0.54981 0.60889 0.0
H202 H 0.86354 0.5624 0.49957 0.0
O203 O 0.3856 0.87238 0.70601 0.0
Tb204 Tb 0.41412 0.9095 0.66498 0.0
Eu205 Eu 0.37694 0.92056 0.57167 0.0
C206 C 0.38974 0.85926 0.75395 0.0
O207 O 0.37041 0.83808 0.77833 0.0
C208 C 0.4018 0.95158 0.71426 0.0
O209 O 0.36314 0.93372 0.48053 0.0
C210 C 0.33973 0.87758 0.62023 0.0
C211 C 0.36583 0.95666 0.48099 0.0
O212 O 0.37136 0.96921 0.54046 0.0
C213 C 0.4202 0.9106 0.49844 0.0
C214 C 0.31574 0.85257 0.61158 0.0
C215 C 0.30293 0.83942 0.67306 0.0
C216 C 0.27886 0.81707 0.67019 0.0
C217 C 0.26785 0.80767 0.60423 0.0
C218 C 0.28017 0.82014 0.54171 0.0
C219 C 0.30436 0.84269 0.54565 0.0
O220 O 0.40111 0.93021 0.73315 0.0
O221 O 0.39629 0.95392 0.64876 0.0
O222 O 0.44965 0.9192 0.71923 0.0
O223 O 0.44564 0.94723 0.65718 0.0
C224 C 0.46055 0.94307 0.69777 0.0
O225 O 0.40492 0.92025 0.49269 0.0
O226 O 0.42251 0.9011 0.55879 0.0
O227 O 0.33839 0.89858 0.6135 0.0
O228 O 0.36171 0.88025 0.59957 0.0
H229 H 0.31135 0.84723 0.72365 0.0
H230 H 0.24945 0.79031 0.60136 0.0
H231 H 0.31381 0.85287 0.49815 0.0
O232 O 0.55605 0.43502 0.70421 0.0
Tb233 Tb 0.52284 0.42085 0.63959 0.0
Eu234 Eu 0.47571 0.37585 0.57021 0.0
C235 C 0.56558 0.42047 0.72169 0.0
O236 O 0.55406 0.3964 0.70225 0.0
C237 C 0.47171 0.40341 0.71744 0.0
O238 O 0.44193 0.36949 0.50555 0.0
C239 C 0.47444 0.33325 0.60394 0.0
C240 C 0.43544 0.38721 0.51028 0.0
O241 O 0.44935 0.40739 0.54897 0.0
C242 C 0.52944 0.40859 0.4932 0.0
C243 C 0.47999 0.31177 0.59762 0.0
C244 C 0.4836 0.30116 0.65977 0.0
C245 C 0.4856 0.27882 0.65853 0.0
C246 C 0.48391 0.26716 0.59352 0.0
C247 C 0.48041 0.27725 0.53061 0.0
C248 C 0.47868 0.29978 0.53287 0.0
O249 O 0.49616 0.41165 0.72763 0.0
O250 O 0.46071 0.39088 0.65913 0.0
O251 O 0.54021 0.46016 0.6053 0.0
O252 O 0.50217 0.43349 0.57253 0.0
C253 C 0.52106 0.45671 0.56642 0.0
O254 O 0.50486 0.39997 0.48508 0.0
O255 O 0.53676 0.40641 0.55652 0.0
O256 O 0.45851 0.33461 0.55944 0.0
O257 O 0.49158 0.3556 0.62961 0.0
H258 H 0.4844 0.31014 0.70951 0.0
H259 H 0.48473 0.24964 0.59175 0.0
H260 H 0.47529 0.30729 0.48492 0.0
O261 O 0.162 0.53275 0.64077 0.0
Tb262 Tb 0.12259 0.51754 0.67516 0.0
Eu263 Eu 0.12441 0.47602 0.57135 0.0
C264 C 0.18181 0.55457 0.65902 0.0
O265 O 0.20373 0.56227 0.62738 0.0
C266 C 0.09355 0.46227 0.71536 0.0
O267 O 0.10495 0.45013 0.48032 0.0
C268 C 0.16326 0.47053 0.60827 0.0
C269 C 0.08726 0.42614 0.48958 0.0
O270 O 0.08085 0.41692 0.55338 0.0
C271 C 0.122 0.52522 0.51359 0.0
C272 C 0.19017 0.47559 0.60261 0.0
C273 C 0.20339 0.4768 0.66508 0.0
C274 C 0.22677 0.47687 0.66351 0.0
C275 C 0.23724 0.47649 0.59812 0.0
C276 C 0.22487 0.47564 0.5348 0.0
C277 C 0.2013 0.47533 0.53741 0.0
O278 O 0.11471 0.48307 0.73194 0.0
O279 O 0.08995 0.45692 0.64792 0.0
O280 O 0.11716 0.54189 0.75075 0.0
O281 O 0.08535 0.50663 0.71305 0.0
C282 C 0.09241 0.52578 0.7556 0.0
O283 O 0.13411 0.51216 0.50587 0.0
O284 O 0.10978 0.52294 0.57264 0.0
O285 O 0.14679 0.45702 0.55926 0.0
O286 O 0.15827 0.48717 0.63807 0.0
H287 H 0.19471 0.47616 0.71524 0.0
H288 H 0.25523 0.47664 0.59644 0.0
H289 H 0.19116 0.47371 0.48914 0.0
O290 O 0.63103 0.14848 0.73526 0.0
Tb291 Tb 0.62816 0.11725 0.67308 0.0
Eu292 Eu 0.67111 0.11347 0.57822 0.0
C293 C 0.64081 0.15344 0.79871 0.0
O294 O 0.65494 0.14379 0.81959 0.0
C295 C 0.65151 0.08532 0.72925 0.0
O296 O 0.67224 0.08117 0.52398 0.0
C297 C 0.71451 0.15547 0.59015 0.0
C298 C 0.65005 0.05992 0.52562 0.0
O299 O 0.63039 0.06062 0.55233 0.0
C300 C 0.62712 0.12291 0.50633 0.0
C301 C 0.73959 0.17989 0.59196 0.0
C302 C 0.75096 0.19148 0.65592 0.0
C303 C 0.77487 0.21432 0.6586 0.0
C304 C 0.78709 0.22602 0.59399 0.0
C305 C 0.7761 0.21448 0.52832 0.0
C306 C 0.75228 0.19151 0.52913 0.0
O307 O 0.64842 0.1048 0.7447 0.0
O308 O 0.65897 0.08393 0.66582 0.0
O309 O 0.58975 0.09919 0.71482 0.0
O310 O 0.60207 0.07676 0.65764 0.0
C311 C 0.58353 0.07646 0.69275 0.0
O312 O 0.64371 0.11495 0.49932 0.0
O313 O 0.62263 0.12953 0.56829 0.0
O314 O 0.71001 0.13794 0.54249 0.0
O315 O 0.69535 0.14992 0.63336 0.0
H316 H 0.7412 0.18241 0.70426 0.0
H317 H 0.80555 0.2433 0.59494 0.0
H318 H 0.74326 0.1826 0.48002 0.0
O319 O 0.50188 0.60459 0.70658 0.0
Tb320 Tb 0.53442 0.61995 0.63906 0.0
Eu321 Eu 0.57835 0.66521 0.5697 0.0
C322 C 0.49172 0.61858 0.72375 0.0
O323 O 0.50242 0.64249 0.70276 0.0
C324 C 0.5862 0.63741 0.70938 0.0
O325 O 0.60689 0.67811 0.48318 0.0
C326 C 0.57518 0.70414 0.61668 0.0
C327 C 0.62934 0.68024 0.49288 0.0
O328 O 0.63663 0.67888 0.55684 0.0
C329 C 0.52447 0.63105 0.49425 0.0
C330 C 0.56923 0.72527 0.60862 0.0
C331 C 0.56685 0.73672 0.67026 0.0
C332 C 0.56314 0.75799 0.66771 0.0
C333 C 0.56147 0.76753 0.60176 0.0
C334 C 0.56344 0.75646 0.53885 0.0
C335 C 0.56774 0.73539 0.54273 0.0
O336 O 0.5625 0.6311 0.72419 0.0
O337 O 0.59557 0.64811 0.64753 0.0
O338 O 0.5196 0.58092 0.60585 0.0
O339 O 0.55634 0.60976 0.56922 0.0
C340 C 0.53875 0.5859 0.56499 0.0
O341 O 0.54917 0.64097 0.48471 0.0
O342 O 0.51724 0.63209 0.55839 0.0
O343 O 0.59532 0.70628 0.58433 0.0
O344 O 0.55656 0.68027 0.6239 0.0
H345 H 0.56809 0.72907 0.72066 0.0
H346 H 0.55934 0.78431 0.59924 0.0
H347 H 0.5697 0.72684 0.49507 0.0
H348 H 0.41438 1.00768 0.19551 0.0
H349 H 0.42522 0.07456 0.3064 0.0
H350 H 0.39857 0.04771 0.40235 0.0
H351 H 0.37749 1.00597 0.46131 0.0
H352 H 0.3667 0.93911 0.34993 0.0
H353 H 0.38732 0.96514 0.2469 0.0
C354 C 0.41061 1.0163 0.24034 0.0
C355 C 0.42212 0.043 0.24475 0.0
C356 C 0.39527 1.00078 0.2952 0.0
C357 C 0.41671 0.054 0.30221 0.0
C358 C 0.40152 0.03868 0.35714 0.0
C359 C 0.37907 0.99698 0.41395 0.0
C360 C 0.37114 0.97076 0.41401 0.0
C361 C 0.39141 1.01213 0.35518 0.0
C362 C 0.37294 0.95933 0.35179 0.0
C363 C 0.38493 0.97423 0.29286 0.0
H364 H 0.38183 0.40768 0.26403 0.0
H365 H 0.3735 0.45358 0.42349 0.0
H366 H 0.38599 0.43303 0.51318 0.0
H367 H 0.40773 0.40918 0.54125 0.0
H368 H 0.41923 0.36577 0.38099 0.0
H369 H 0.39636 0.37766 0.29647 0.0
C370 C 0.38225 0.41282 0.31861 0.0
C371 C 0.37756 0.43266 0.33705 0.0
C372 C 0.39018 0.40152 0.36942 0.0
C373 C 0.37746 0.43866 0.40795 0.0
C374 C 0.38469 0.427 0.45919 0.0
C375 C 0.40461 0.4018 0.48819 0.0
C376 C 0.41555 0.38721 0.46641 0.0
C377 C 0.39241 0.40949 0.43982 0.0
C378 C 0.41105 0.3772 0.39842 0.0
C379 C 0.39823 0.38421 0.35009 0.0
H380 H 0.03836 0.38712 0.48813 0.0
H381 H 0.1033 0.43179 0.35467 0.0
H382 H 0.07718 0.41202 0.251 0.0
H383 H 0.03487 0.38742 0.19882 0.0
H384 H 0.96894 0.34658 0.33181 0.0
H385 H 0.99647 0.3589 0.43518 0.0
C386 C 0.04688 0.39206 0.43637 0.0
C387 C 0.07259 0.41101 0.42874 0.0
C388 C 0.0315 0.38139 0.37698 0.0
C389 C 0.08343 0.41742 0.36156 0.0
C390 C 0.06852 0.40613 0.30235 0.0
C391 C 1.02656 0.38061 0.25021 0.0
C392 C 0.99995 0.36629 0.2579 0.0
C393 C 0.04235 0.38886 0.30941 0.0
C394 C 0.98942 0.35776 0.32482 0.0
C395 C 1.00513 0.36493 0.38389 0.0
H396 H 0.60104 0.94902 0.41489 0.0
H397 H 0.65212 0.98832 0.2431 0.0
H398 H 0.67419 0.0272 0.31305 0.0
H399 H 0.67279 0.05208 0.41339 0.0
H400 H 0.61814 1.01314 0.57824 0.0
H401 H 0.60403 0.97217 0.52188 0.0
C402 C 0.61751 0.96583 0.39361 0.0
C403 C 0.62463 0.96605 0.32377 0.0
C404 C 0.62925 0.98841 0.43276 0.0
C405 C 0.64605 0.98792 0.29669 0.0
C406 C 0.6586 1.01019 0.33647 0.0
C407 C 0.65836 0.03449 0.43768 0.0
C408 C 0.64627 0.03551 0.49909 0.0
C409 C 0.64943 1.01105 0.40312 0.0
C410 C 0.62749 1.01274 0.53038 0.0
C411 C 0.61936 0.9893 0.49813 0.0
H412 H 0.63807 0.63138 0.21895 0.0
H413 H 0.67649 0.60495 0.35755 0.0
H414 H 0.67764 0.63376 0.44941 0.0
H415 H 0.66151 0.66107 0.49475 0.0
H416 H 0.62254 0.68678 0.35528 0.0
H417 H 0.62879 0.66443 0.25808 0.0
C418 C 0.64692 0.63218 0.26911 0.0
C419 C 0.65656 0.61576 0.28269 0.0
C420 C 0.6476 0.64876 0.32103 0.0
C421 C 0.66866 0.61731 0.34673 0.0
C422 C 0.66933 0.63374 0.39905 0.0
C423 C 0.65516 0.66251 0.44262 0.0
C424 C 0.64104 0.67499 0.43241 0.0
C425 C 0.65805 0.6489 0.3875 0.0
C426 C 0.63312 0.67691 0.36451 0.0
C427 C 0.63646 0.66395 0.30907 0.0
H428 H 0.99002 0.63022 0.4385 0.0
H429 H 0.93333 0.57847 0.29228 0.0
H430 H 0.96477 0.59505 0.19814 0.0
H431 H 1.00973 0.61808 0.1638 0.0
H432 H 0.06688 0.66848 0.31075 0.0
H433 H 0.03376 0.65895 0.39817 0.0
C434 C 0.98442 0.62296 0.38569 0.0
C435 C 0.95964 0.6027 0.37261 0.0
C436 C 1.00272 0.63212 0.33231 0.0
C437 C 0.95241 0.59385 0.3038 0.0
C438 C 0.9704 0.60321 0.25003 0.0
C439 C 1.01484 0.62737 0.21452 0.0
C440 C 0.0406 0.64342 0.23178 0.0
C441 C 0.99584 0.62138 0.26465 0.0
C442 C 0.0471 0.65587 0.29676 0.0
C443 C 0.02821 0.65029 0.34681 0.0
H444 H 0.65006 0.08001 0.87614 0.0
H445 H 0.62671 0.0364 0.68506 0.0
H446 H 0.60596 0.9967 0.75159 0.0
H447 H 0.59359 0.97347 0.86429 0.0
H448 H 0.61931 1.01583 0.05687 0.0
H449 H 0.63986 0.05611 0.99069 0.0
C450 C 0.64066 0.06182 0.84912 0.0
C451 C 0.64033 0.06155 0.77482 0.0
C452 C 0.62913 0.03848 0.88842 0.0
C453 C 0.62782 0.03753 0.74158 0.0
C454 C 0.61573 1.01461 0.77985 0.0
C455 C 0.60393 0.99147 0.89199 0.0
C456 C 0.60484 0.99127 0.96604 0.0
C457 C 0.61623 1.01473 0.85331 0.0
C458 C 0.61838 1.01506 1.00021 0.0
C459 C 0.63009 0.03827 0.96216 0.0
H460 H 0.64969 0.5896 0.85286 0.0
H461 H 0.61893 0.60262 1.04148 0.0
H462 H 0.59724 0.62037 0.97213 0.0
H463 H 0.58543 0.63135 0.85591 0.0
H464 H 0.61994 0.62226 0.66902 0.0
H465 H 0.64129 0.60432 0.73847 0.0
C466 C 0.63855 0.59664 0.87915 0.0
C467 C 0.63632 0.59465 0.95339 0.0
C468 C 0.62647 0.60764 0.83853 0.0
C469 C 0.62153 0.60398 0.9852 0.0
C470 C 0.60888 0.61409 0.94515 0.0
C471 C 0.59783 0.62572 0.83028 0.0
C472 C 0.60082 0.62842 0.75619 0.0
C473 C 0.61098 0.61594 0.8715 0.0
C474 C 0.61718 0.62084 0.72526 0.0
C475 C 0.62943 0.61037 0.76527 0.0
H476 H 0.03838 0.61608 0.98499 0.0
H477 H 0.09733 0.64339 0.82797 0.0
H478 H 0.06474 0.62735 0.73546 0.0
H479 H 1.0186 0.6042 0.69784 0.0
H480 H 0.96054 0.57496 0.85786 0.0
H481 H 0.99321 0.59288 0.94852 0.0
C482 C 0.04428 0.61887 0.93056 0.0
C483 C 0.07073 0.63154 0.91448 0.0
C484 C 1.02526 0.60903 0.87719 0.0
C485 C 0.07743 0.63413 0.84295 0.0
C486 C 0.05863 0.62484 0.78963 0.0
C487 C 1.01305 0.6021 0.75246 0.0
C488 C 0.98664 0.58837 0.76992 0.0
C489 C 0.03234 0.61215 0.80579 0.0
C490 C 0.98034 0.58546 0.84175 0.0
C491 C 0.99917 0.59573 0.89417 0.0
H492 H 0.44229 0.05727 0.88257 0.0
H493 H 0.45944 1.01572 1.0368 0.0
H494 H 0.43966 0.97758 0.96323 0.0
H495 H 0.42007 0.95624 0.85061 0.0
H496 H 0.4043 0.998 0.69346 0.0
H497 H 0.42095 0.03512 0.77086 0.0
C498 C 0.44123 0.03972 0.90075 0.0
C499 C 0.45215 0.03958 0.96654 0.0
C500 C 0.43038 1.01767 0.85643 0.0
C501 C 0.45106 1.01661 0.9874 0.0
C502 C 0.43975 0.99465 0.94493 0.0
C503 C 0.4199 0.97329 0.83334 0.0
C504 C 0.41055 0.97379 0.76537 0.0
C505 C 0.42978 0.99498 0.87854 0.0
C506 C 0.41108 0.99656 0.74488 0.0
C507 C 0.42072 1.01802 0.78947 0.0
H508 H 0.47592 0.41308 0.863 0.0
H509 H 0.43423 0.41366 0.68015 0.0
H510 H 0.41221 0.43059 0.74927 0.0
H511 H 0.40509 0.44688 0.86167 0.0
H512 H 0.44299 0.44238 0.04782 0.0
H513 H 0.46554 0.4256 0.97882 0.0
C514 C 0.46182 0.41662 0.83829 0.0
C515 C 0.45705 0.41187 0.76529 0.0
C516 C 0.44827 0.42583 0.87958 0.0
C517 C 0.4385 0.41675 0.73554 0.0
C518 C 0.42582 0.42665 0.77533 0.0
C519 C 0.418 0.4419 0.88755 0.0
C520 C 0.42197 0.44594 0.96081 0.0
C521 C 0.43055 0.43145 0.84741 0.0
C522 C 0.43902 0.43931 0.99227 0.0
C523 C 0.45215 0.42977 0.95241 0.0
H524 H 0.04007 0.43453 0.70294 0.0
H525 H 0.10042 0.46137 0.85599 0.0
H526 H 0.06908 0.4444 0.95036 0.0
H527 H 1.02427 0.42275 0.99208 0.0
H528 H 0.96353 0.39792 0.84101 0.0
H529 H 0.99471 0.41293 0.74541 0.0
C530 C 0.0464 0.4363 0.75681 0.0
C531 C 0.07302 0.44906 0.77121 0.0
C532 C 0.02794 0.42682 0.81224 0.0
C533 C 0.08038 0.45157 0.84222 0.0
C534 C 0.06232 0.44187 0.89677 0.0
C535 C 1.01772 0.42033 0.93828 0.0
C536 C 0.99116 0.40869 0.92482 0.0
C537 C 0.03601 0.42955 0.88282 0.0
C538 C 0.98356 0.40644 0.85403 0.0
C539 C 1.00154 0.41512 0.79885 0.0
H540 H 0.56724 1.0106 0.92595 0.0
H541 H 0.48514 0.96922 0.91447 0.0
H542 H 0.48567 1.00872 0.87915 0.0
H543 H 0.50872 0.05559 0.88089 0.0
H544 H 0.59053 0.09696 0.90482 0.0
H545 H 0.59103 0.05667 0.90276 0.0
C546 C 0.54947 1.01012 0.91408 0.0
C547 C 0.52614 0.98739 0.92443 0.0
C548 C 0.54992 0.03287 0.89654 0.0
C549 C 0.50324 0.98666 0.90775 0.0
C550 C 0.50355 1.00925 0.88867 0.0
C551 C 0.5268 0.0559 0.88254 0.0
C552 C 0.54961 0.07916 0.89365 0.0
C553 C 0.52668 0.03263 0.88678 0.0
C554 C 0.57283 0.07927 0.89598 0.0
C555 C 0.57302 0.05621 0.89608 0.0
H556 H 0.4763 0.48995 0.88858 0.0
H557 H 0.51307 0.57186 0.90895 0.0
H558 H 0.55454 0.57527 0.88645 0.0
H559 H 0.5798 0.55394 0.89918 0.0
H560 H 0.5428 0.47165 0.90003 0.0
H561 H 0.50191 0.46912 0.87369 0.0
C562 C 0.49336 0.50863 0.88515 0.0
C563 C 0.492 0.53063 0.90211 0.0
C564 C 0.51706 0.51012 0.87756 0.0
C565 C 0.51384 0.55476 0.89643 0.0
C566 C 0.53754 0.55659 0.88463 0.0
C567 C 0.56287 0.53546 0.89099 0.0
C568 C 0.5639 0.51295 0.90336 0.0
C569 C 0.5394 0.53428 0.88095 0.0
C570 C 0.54226 0.48913 0.89129 0.0
C571 C 0.51889 0.48775 0.87718 0.0
H572 H 0.05052 0.57323 0.99983 0.0
H573 H 0.09911 0.53987 0.99915 0.0
H574 H 0.0615 0.49689 0.99213 0.0
H575 H 1.01519 0.46963 1.00361 0.0
H576 H 0.96669 0.50308 0.99911 0.0
H577 H 1.00427 0.54595 0.9895 0.0
C578 C 0.05274 0.55646 0.99756 0.0
C579 C 0.07699 0.55906 1.00241 0.0
C580 C 0.03132 0.53228 0.99337 0.0
C581 C 0.08026 0.53777 0.99671 0.0
C582 C 0.0589 0.51342 0.99307 0.0
C583 C 1.01299 0.48639 1.0 0.0
C584 C 0.98875 0.48385 1.00448 0.0
C585 C 0.03441 0.51054 0.99429 0.0
C586 C 0.98551 0.50512 0.997 0.0
C587 C 1.00685 0.52942 0.99187 0.0
H588 H 1.00675 0.5493 0.79992 0.0
H589 H 0.96354 0.46692 0.7973 0.0
H590 H 1.00265 0.46536 0.82091 0.0
H591 H 0.04918 0.48743 0.80685 0.0
H592 H 0.09232 0.56969 0.79303 0.0
H593 H 0.05327 0.57159 0.81373 0.0
C594 C 1.00583 0.531 0.80673 0.0
C595 C 0.98265 0.50822 0.7948 0.0
C596 C 0.02847 0.5304 0.81577 0.0
C597 C 0.98129 0.48461 0.80553 0.0
C598 C 1.00369 0.48379 0.81799 0.0
C599 C 0.05011 0.50582 0.81063 0.0
C600 C 0.07323 0.52839 0.79623 0.0
C601 C 0.02747 0.50654 0.8178 0.0
C602 C 0.07461 0.55214 0.80315 0.0
C603 C 0.05224 0.55314 0.81388 0.0
H604 H 0.47064 0.99012 0.71945 0.0
H605 H 0.50535 0.94273 0.72092 0.0
H606 H 0.548 0.98127 0.7241 0.0
H607 H 0.57453 0.02828 0.70883 0.0
H608 H 0.5384 0.07446 0.70653 0.0
H609 H 0.49655 0.03616 0.71855 0.0
C610 C 0.4876 0.98825 0.72119 0.0
C611 C 0.48532 0.96405 0.71843 0.0
C612 C 0.51146 1.01009 0.72018 0.0
C613 C 0.50702 0.96145 0.72287 0.0
C614 C 0.53122 0.98338 0.72365 0.0
C615 C 0.5574 0.02977 0.71137 0.0
C616 C 0.55906 0.05373 0.70543 0.0
C617 C 0.53357 1.00775 0.71931 0.0
C618 C 0.53718 0.05596 0.71018 0.0
C619 C 0.51341 0.03419 0.71695 0.0
H620 H 0.50013 0.54324 0.51293 0.0
H621 H 0.58208 0.58568 0.52962 0.0
H622 H 0.58401 0.54679 0.50749 0.0
H623 H 0.56136 0.50035 0.52366 0.0
H624 H 0.47915 0.45796 0.52045 0.0
H625 H 0.47806 0.49704 0.49446 0.0
C626 C 0.51839 0.54397 0.50912 0.0
C627 C 0.54083 0.5665 0.52584 0.0
C628 C 0.51914 0.52149 0.49995 0.0
C629 C 0.56459 0.56806 0.51843 0.0
C630 C 0.56564 0.54586 0.50635 0.0
C631 C 0.5433 0.49969 0.51498 0.0
C632 C 0.52036 0.47701 0.52719 0.0
C633 C 0.54291 0.52228 0.50341 0.0
C634 C 0.49698 0.47564 0.51318 0.0
C635 C 0.49637 0.49794 0.49868 0.0
H636 H 0.57541 0.11252 0.20736 0.0
H637 H 0.5236 0.12677 0.32786 0.0
H638 H 0.54857 0.13152 0.4341 0.0
H639 H 0.5849 0.13023 0.49468 0.0
H640 H 0.63604 0.116 0.37018 0.0
H641 H 0.6118 0.11283 0.26535 0.0
C642 C 0.56943 0.11672 0.25663 0.0
C643 C 0.54727 0.11913 0.25851 0.0
C644 C 0.58397 0.11948 0.31779 0.0
C645 C 0.54037 0.12476 0.32376 0.0
C646 C 0.55473 0.12746 0.38495 0.0
C647 C 0.59095 0.12671 0.44458 0.0
C648 C 0.61264 0.12341 0.44168 0.0
C649 C 0.57658 0.12472 0.38296 0.0
C650 C 0.61969 0.11866 0.37544 0.0
C651 C 0.6057 0.11677 0.31481 0.0
H652 H 0.43056 0.5469 0.31097 0.0
H653 H 0.49311 0.55356 0.18649 0.0
H654 H 0.52351 0.58589 0.26552 0.0
H655 H 0.53345 0.61286 0.37091 0.0
H656 H 0.47185 0.60672 0.49802 0.0
H657 H 0.44077 0.57446 0.41812 0.0
C658 C 0.45082 0.55532 0.30113 0.0
C659 C 0.45908 0.54729 0.24159 0.0
C660 C 0.46877 0.5745 0.34759 0.0
C661 C 0.48568 0.55891 0.23087 0.0
C662 C 0.50334 0.57766 0.27641 0.0
C663 C 0.51323 0.60478 0.38097 0.0
C664 C 0.50534 0.61284 0.44088 0.0
C665 C 0.49524 0.58577 0.33487 0.0
C666 C 0.47884 0.60142 0.45257 0.0
C667 C 0.4609 0.58271 0.40672 0.0
H668 H 0.91399 0.45248 0.22021 0.0
H669 H 0.94472 0.41411 0.34382 0.0
H670 H 0.94666 0.4391 0.44605 0.0
H671 H 0.94083 0.47281 0.50194 0.0
H672 H 0.91051 0.51183 0.37973 0.0
H673 H 0.90736 0.48602 0.27746 0.0
C674 C 0.92087 0.44933 0.26961 0.0
C675 C 0.92908 0.43099 0.27307 0.0
C676 C 0.92223 0.46421 0.32936 0.0
C677 C 0.93818 0.42778 0.33828 0.0
C678 C 0.93938 0.44223 0.39735 0.0
C679 C 0.93348 0.47577 0.4531 0.0
C680 C 0.92596 0.49461 0.44979 0.0
C681 C 0.93168 0.46069 0.3937 0.0
C682 C 0.91647 0.4977 0.38508 0.0
C683 C 0.91465 0.48283 0.32605 0.0
H684 H 0.46055 0.90067 0.48916 0.0
H685 H 0.41597 0.92355 0.36316 0.0
H686 H 0.44241 0.92855 0.26152 0.0
H687 H 0.47913 0.92769 0.2069 0.0
H688 H 0.5241 0.90512 0.33211 0.0
H689 H 0.49693 0.8989 0.43341 0.0
C690 C 0.45639 0.9065 0.43939 0.0
C691 C 0.43587 0.91157 0.43504 0.0
C692 C 0.47204 0.90963 0.38004 0.0
C693 C 0.43133 0.91938 0.36935 0.0
C694 C 0.44661 0.92235 0.31062 0.0
C695 C 0.48307 0.92136 0.25618 0.0
C696 C 0.50402 0.91698 0.26061 0.0
C697 C 0.46719 0.91775 0.31516 0.0
C698 C 0.50836 0.90871 0.32585 0.0
C699 C 0.49271 0.90512 0.38438 0.0
H700 H 0.52084 0.42813 0.37116 0.0
H701 H 0.582 0.43156 0.49546 0.0
H702 H 0.61336 0.46361 0.41526 0.0
H703 H 0.62396 0.49168 0.30852 0.0
H704 H 0.5619 0.48763 0.18646 0.0
H705 H 0.53117 0.4556 0.26606 0.0
C706 C 0.54101 0.43559 0.38058 0.0
C707 C 0.54869 0.42681 0.43981 0.0
C708 C 0.55917 0.45444 0.33422 0.0
C709 C 0.57516 0.43742 0.45059 0.0
C710 C 0.59326 0.456 0.40455 0.0
C711 C 0.60374 0.48391 0.29934 0.0
C712 C 0.59571 0.49257 0.24032 0.0
C713 C 0.58561 0.46489 0.34606 0.0
C714 C 0.56915 0.48176 0.23041 0.0
C715 C 0.55131 0.4632 0.27629 0.0
H716 H 0.10498 0.60149 0.31628 0.0
H717 H 0.16638 0.60259 0.19926 0.0
H718 H 0.16826 0.57283 0.28363 0.0
H719 H 0.15206 0.54554 0.39213 0.0
H720 H 0.09071 0.54554 0.50728 0.0
H721 H 0.08934 0.57514 0.42322 0.0
C722 C 0.11898 0.59546 0.30916 0.0
C723 C 0.13562 0.60476 0.25073 0.0
C724 C 0.11989 0.57806 0.35807 0.0
C725 C 0.15337 0.5962 0.24332 0.0
C726 C 0.15439 0.57894 0.29176 0.0
C727 C 0.13829 0.55187 0.39871 0.0
C728 C 0.12145 0.54283 0.45708 0.0
C729 C 0.13764 0.56952 0.34948 0.0
C730 C 0.104 0.55179 0.46386 0.0
C731 C 0.10316 0.56893 0.41542 0.0
H732 H 0.40886 0.87795 0.88123 0.0
H733 H 0.42706 0.85709 0.68302 0.0
H734 H 0.4677 0.86394 0.73034 0.0
H735 H 0.49544 0.87119 0.83193 0.0
H736 H 0.47726 0.89163 1.03081 0.0
H737 H 0.43933 0.89018 0.97955 0.0
C738 C 0.42207 0.87544 0.84843 0.0
C739 C 0.41539 0.86716 0.77915 0.0
C740 C 0.44521 0.8793 0.87615 0.0
C741 C 0.4322 0.86364 0.73651 0.0
C742 C 0.45528 0.86746 0.76357 0.0
C743 C 0.4834 0.87585 0.86338 0.0
C744 C 0.48895 0.88164 0.93453 0.0
C745 C 0.46164 0.87464 0.83378 0.0
C746 C 0.47332 0.88745 0.97554 0.0
C747 C 0.45162 0.88642 0.94642 0.0
H748 H 0.59941 0.47002 0.7408 0.0
H749 H 0.58052 0.39433 0.80932 0.0
H750 H 0.61116 0.41276 0.90565 0.0
H751 H 0.63771 0.45 0.98023 0.0
H752 H 0.65403 0.52506 0.9146 0.0
H753 H 0.63004 0.50736 0.8062 0.0
C754 C 0.60227 0.45756 0.77625 0.0
C755 C 0.58743 0.43093 0.76948 0.0
C756 C 0.61915 0.46819 0.83213 0.0
C757 C 0.59167 0.41494 0.81427 0.0
C758 C 0.60901 0.42544 0.86945 0.0
C759 C 0.63627 0.4624 0.94139 0.0
C760 C 0.64669 0.48853 0.95525 0.0
C761 C 0.62197 0.45196 0.88051 0.0
C762 C 0.64529 0.50474 0.90507 0.0
C763 C 0.63178 0.49466 0.84326 0.0
H764 H 0.19434 0.60399 0.65057 0.0
H765 H 0.16645 0.53958 0.79139 0.0
H766 H 0.16521 0.56576 0.88724 0.0
H767 H 0.16963 0.60564 0.92798 0.0
H768 H 0.19237 0.6691 0.78541 0.0
H769 H 0.19881 0.6448 0.69264 0.0
C770 C 0.18798 0.59587 0.70241 0.0
C771 C 0.18015 0.57006 0.71469 0.0
C772 C 0.18673 0.61085 0.7564 0.0
C773 C 0.17212 0.55941 0.78141 0.0
C774 C 0.1716 0.57437 0.83596 0.0
C775 C 0.17649 0.61448 0.87711 0.0
C776 C 0.18076 0.63923 0.86351 0.0
C777 C 0.17862 0.59998 0.82373 0.0
C778 C 0.18917 0.65013 0.79695 0.0
C779 C 0.19261 0.63618 0.74398 0.0
H780 H 0.61131 0.17452 0.77325 0.0
H781 H 0.6429 0.151 0.94161 0.0
H782 H 0.6134 0.15335 1.0242 0.0
H783 H 0.57444 0.15596 1.04465 0.0
H784 H 0.54235 0.17813 0.8752 0.0
H785 H 0.57604 0.18216 0.79643 0.0
C786 C 0.61214 0.17045 0.82829 0.0
C787 C 0.62891 0.16214 0.85098 0.0
C788 C 0.5946 0.17096 0.87483 0.0
C789 C 0.63008 0.15734 0.92265 0.0
C790 C 0.61302 0.15841 0.96984 0.0
C791 C 0.57503 0.16172 0.99045 0.0
C792 C 0.5558 0.16597 0.96445 0.0
C793 C 0.59448 0.16408 0.94583 0.0
C794 C 0.55687 0.17426 0.89524 0.0
C795 C 0.5761 0.17665 0.8505 0.0
H796 H 0.45843 0.56874 0.74308 0.0
H797 H 0.47567 0.64405 0.80891 0.0
H798 H 0.44371 0.62519 0.90196 0.0
H799 H 0.4161 0.58771 0.97475 0.0
H800 H 0.4007 0.51288 0.91149 0.0
H801 H 0.4264 0.53101 0.80561 0.0
C802 C 0.45494 0.581 0.77726 0.0
C803 C 0.46966 0.60767 0.77073 0.0
C804 C 0.43704 0.5701 0.83091 0.0
C805 C 0.46464 0.62342 0.81379 0.0
C806 C 0.4465 0.61268 0.86702 0.0
C807 C 0.41809 0.57545 0.93687 0.0
C808 C 0.40745 0.54929 0.9508 0.0
C809 C 0.43339 0.58612 0.87768 0.0
C810 C 0.40953 0.53323 0.90182 0.0
C811 C 0.42407 0.54357 0.84153 0.0
H812 H 0.86808 0.41907 0.93992 0.0
H813 H 0.90126 0.39473 0.77885 0.0
H814 H 0.89786 0.42353 0.69502 0.0
H815 H 0.88954 0.45896 0.6711 0.0
H816 H 0.85625 0.48289 0.83218 0.0
H817 H 0.85617 0.45133 0.91331 0.0
C818 C 0.87409 0.41967 0.8861 0.0
C819 C 0.8852 0.40506 0.86594 0.0
C820 C 0.87277 0.43675 0.83889 0.0
C821 C 0.89262 0.40578 0.79581 0.0
C822 C 0.89101 0.4225 0.74802 0.0
C823 C 0.88248 0.45724 0.72421 0.0
C824 C 0.87363 0.47347 0.74706 0.0
C825 C 0.88198 0.43872 0.76974 0.0
C826 C 0.86366 0.47079 0.81471 0.0
C827 C 0.86343 0.45269 0.86066 0.0
H828 H 0.45676 0.19827 0.28314 0.0
H829 H 0.51997 0.26466 0.18894 0.0
H830 H 0.52328 0.29022 0.29142 0.0
H831 H 0.50815 0.29412 0.40887 0.0
H832 H 0.44573 0.22751 0.50427 0.0
H833 H 0.4421 0.20196 0.40118 0.0
C834 C 0.47148 0.21823 0.28544 0.0
C835 C 0.48803 0.22941 0.22789 0.0
C836 C 0.47325 0.23301 0.34484 0.0
C837 C 0.50678 0.25549 0.2319 0.0
C838 C 0.5087 0.2702 0.29063 0.0
C839 C 0.49358 0.27409 0.40656 0.0
C840 C 0.47712 0.26283 0.46412 0.0
C841 C 0.4919 0.25929 0.3473 0.0
C842 C 0.4586 0.2367 0.46069 0.0
C843 C 0.45658 0.22202 0.40178 0.0
H844 H 0.23717 0.50548 0.41562 0.0
H845 H 0.23905 0.44055 0.5034 0.0
H846 H 0.26128 0.43799 0.39969 0.0
H847 H 0.28078 0.45436 0.28339 0.0
H848 H 0.27992 0.52003 0.1967 0.0
H849 H 0.25709 0.52212 0.29942 0.0
C850 C 0.24219 0.4906 0.41156 0.0
C851 C 0.23629 0.47318 0.46744 0.0
C852 C 0.25549 0.48948 0.35176 0.0
C853 C 0.24333 0.45424 0.46144 0.0
C854 C 0.25615 0.4528 0.40206 0.0
C855 C 0.27589 0.46932 0.28726 0.0
C856 C 0.28212 0.48692 0.23155 0.0
C857 C 0.26258 0.47044 0.34698 0.0
C858 C 0.27521 0.50597 0.23788 0.0
C859 C 0.26211 0.50723 0.2969 0.0
H860 H 0.80179 0.26474 0.47727 0.0
H861 H 0.77998 0.18754 0.41853 0.0
H862 H 0.79642 0.20186 0.30076 0.0
H863 H 0.81679 0.23624 0.21128 0.0
H864 H 0.83992 0.31369 0.26999 0.0
H865 H 0.82347 0.29949 0.38832 0.0
C866 C 0.80087 0.25106 0.43907 0.0
C867 C 0.78915 0.22486 0.45793 0.0
C868 C 0.81057 0.2595 0.37001 0.0
C869 C 0.78829 0.20769 0.4064 0.0
C870 C 0.79781 0.21589 0.33842 0.0
C871 C 0.81808 0.25002 0.24971 0.0
C872 C 0.82973 0.27614 0.23053 0.0
C873 C 0.80878 0.24171 0.31899 0.0
C874 C 0.83134 0.29354 0.28236 0.0
C875 C 0.82186 0.28539 0.35058 0.0
H876 H 0.54326 0.81318 0.28537 0.0
H877 H 0.60804 0.81112 0.19978 0.0
H878 H 0.61007 0.7883 0.30357 0.0
H879 H 0.59355 0.76885 0.42027 0.0
H880 H 0.52788 0.76982 0.50389 0.0
H881 H 0.52598 0.79261 0.40033 0.0
C882 C 0.55795 0.80794 0.28988 0.0
C883 C 0.57558 0.81407 0.23486 0.0
C884 C 0.55872 0.79428 0.34954 0.0
C885 C 0.59425 0.80672 0.24126 0.0
C886 C 0.59537 0.79356 0.30064 0.0
C887 C 0.57862 0.77372 0.41537 0.0
C888 C 0.561 0.76764 0.47056 0.0
C889 C 0.57763 0.78706 0.35516 0.0
C890 C 0.54192 0.77442 0.463 0.0
C891 C 0.5408 0.78754 0.40359 0.0
H892 H 0.84482 0.58494 0.42643 0.0
H893 H 0.77871 0.51935 0.51338 0.0
H894 H 0.75373 0.51697 0.41031 0.0
H895 H 0.7501 0.53361 0.29435 0.0
H896 H 0.81645 0.59834 0.20577 0.0
H897 H 0.84147 0.60096 0.30934 0.0
C898 C 0.82505 0.56992 0.42248 0.0
C899 C 0.81379 0.55248 0.4785 0.0
C900 C 0.81056 0.56862 0.36247 0.0
C901 C 0.78797 0.5333 0.47199 0.0
C902 C 0.77356 0.53189 0.41278 0.0
C903 C 0.76995 0.54843 0.29813 0.0
C904 C 0.78125 0.56582 0.24216 0.0
C905 C 0.78451 0.54958 0.35781 0.0
C906 C 0.80719 0.58467 0.24782 0.0
C907 C 0.82159 0.58616 0.30713 0.0
H908 H 0.20343 0.76661 0.28823 0.0
H909 H 0.26779 0.76229 0.20841 0.0
H910 H 0.29286 0.78478 0.31135 0.0
H911 H 0.29682 0.80584 0.42561 0.0
H912 H 0.23228 0.80951 0.50643 0.0
H913 H 0.20736 0.7876 0.40248 0.0
C914 C 0.22282 0.77031 0.2938 0.0
C915 C 0.23359 0.76268 0.24019 0.0
C916 C 0.23736 0.78354 0.35339 0.0
C917 C 0.25896 0.76803 0.24831 0.0
C918 C 0.2734 0.78097 0.30731 0.0
C919 C 0.27744 0.80217 0.41985 0.0
C920 C 0.26655 0.80951 0.47374 0.0
C921 C 0.26293 0.78904 0.36011 0.0
C922 C 0.2412 0.80415 0.4658 0.0
C923 C 0.22685 0.79149 0.40641 0.0
H924 H 0.59118 0.76783 0.78861 0.0
H925 H 0.53135 0.77723 0.69515 0.0
H926 H 0.52987 0.79991 0.79907 0.0
H927 H 0.54533 0.81702 0.91818 0.0
H928 H 0.60431 0.80637 1.01194 0.0
H929 H 0.60612 0.78425 0.90732 0.0
C930 C 0.57758 0.77453 0.79114 0.0
C931 C 0.56149 0.77077 0.73341 0.0
C932 C 0.57667 0.78749 0.85155 0.0
C933 C 0.54428 0.78007 0.73792 0.0
C934 C 0.54332 0.79301 0.79767 0.0
C935 C 0.55867 0.80999 0.91541 0.0
C936 C 0.57455 0.8133 0.97326 0.0
C937 C 0.55949 0.79695 0.85487 0.0
C938 C 0.59163 0.80387 0.96876 0.0
C939 C 0.59273 0.79123 0.90875 0.0
H940 H 0.84438 0.58307 0.79623 0.0
H941 H 0.77663 0.52091 0.70457 0.0
H942 H 0.75198 0.51871 0.808 0.0
H943 H 0.74928 0.53441 0.9259 0.0
H944 H 0.81737 0.5957 1.01839 0.0
H945 H 0.84193 0.5981 0.91447 0.0
C946 C 0.8243 0.56881 0.79909 0.0
C947 C 0.81253 0.55232 0.74176 0.0
C948 C 0.81008 0.56752 0.85932 0.0
C949 C 0.78631 0.53419 0.74689 0.0
C950 C 0.77211 0.53283 0.80638 0.0
C951 C 0.76945 0.54839 0.92301 0.0
C952 C 0.78138 0.5648 0.98033 0.0
C953 C 0.7837 0.54951 0.8629 0.0
C954 C 0.80765 0.58265 0.97561 0.0
C955 C 0.82177 0.58407 0.91599 0.0
H956 H 0.29677 0.80596 0.79002 0.0
H957 H 0.22835 0.79887 0.69802 0.0
H958 H 0.20422 0.77715 0.80311 0.0
H959 H 0.20248 0.76085 0.92278 0.0
H960 H 0.27071 0.76726 1.01436 0.0
H961 H 0.29477 0.78864 0.9089 0.0
C962 C 0.27661 0.79978 0.79312 0.0
C963 C 0.26448 0.80405 0.73569 0.0
C964 C 0.2627 0.78715 0.85403 0.0
C965 C 0.23822 0.79561 0.74072 0.0
C966 C 0.22437 0.78324 0.8011 0.0
C967 C 0.22253 0.76659 0.91946 0.0
C968 C 0.23466 0.76247 0.97721 0.0
C969 C 0.23636 0.77887 0.85817 0.0
C970 C 0.26082 0.77046 0.97162 0.0
C971 C 0.27464 0.78264 0.911 0.0
H972 H 0.46183 0.27291 0.78547 0.0
H973 H 0.5156 0.25715 0.68069 0.0
H974 H 0.51813 0.23478 0.78452 0.0
H975 H 0.50507 0.21939 0.90635 0.0
H976 H 0.45224 0.23634 1.01148 0.0
H977 H 0.44955 0.25846 0.90731 0.0
C978 C 0.47439 0.26492 0.78551 0.0
C979 C 0.48839 0.26676 0.72461 0.0
C980 C 0.47587 0.25207 0.84585 0.0
C981 C 0.50426 0.25583 0.72602 0.0
C982 C 0.50581 0.24303 0.78567 0.0
C983 C 0.49286 0.22779 0.90618 0.0
C984 C 0.47894 0.2262 0.96699 0.0
C985 C 0.49158 0.24085 0.84589 0.0
C986 C 0.46337 0.23744 0.96585 0.0
C987 C 0.46178 0.2501 0.90613 0.0
H988 H 0.2383 0.50613 0.78299 0.0
H989 H 0.24447 0.44414 0.69214 0.0
H990 H 0.2668 0.44186 0.79623 0.0
H991 H 0.28428 0.45698 0.91474 0.0
H992 H 0.27933 0.51991 1.00425 0.0
H993 H 0.25707 0.5222 0.90023 0.0
C994 C 0.24442 0.49204 0.7862 0.0
C995 C 0.23965 0.47537 0.72937 0.0
C996 C 0.25764 0.491 0.84636 0.0
C997 C 0.248 0.4574 0.73452 0.0
C998 C 0.2608 0.45604 0.79426 0.0
C999 C 0.27867 0.47144 0.91122 0.0
C1000 C 0.28344 0.48808 0.96825 0.0
C1001 C 0.26583 0.47278 0.85059 0.0
C1002 C 0.27566 0.5065 0.96222 0.0
C1003 C 0.26292 0.5079 0.90239 0.0
H1004 H 0.79662 0.26358 0.71328 0.0
H1005 H 0.78006 0.18733 0.7664 0.0
H1006 H 0.79627 0.20119 0.88484 0.0
H1007 H 0.8158 0.23524 0.97556 0.0
H1008 H 0.8321 0.31141 0.92255 0.0
H1009 H 0.81542 0.29744 0.80457 0.0
C1010 C 0.79676 0.25004 0.75051 0.0
C1011 C 0.78698 0.22431 0.72983 0.0
C1012 C 0.80596 0.25813 0.81994 0.0
C1013 C 0.78721 0.20717 0.78004 0.0
C1014 C 0.79651 0.2151 0.84832 0.0
C1015 C 0.81535 0.24869 0.9386 0.0
C1016 C 0.82533 0.27448 0.95903 0.0
C1017 C 0.80585 0.24052 0.86942 0.0
C1018 C 0.82474 0.29152 0.90911 0.0
C1019 C 0.81523 0.28353 0.84105 0.0
loop_
_geom_bond_atom_site_label_1
_geom_bond_atom_site_label_2
_geom_bond_distance
_geom_bond_site_symmetry_2
_ccdc_geom_bond_type
O0 Tb1 2.292 . S
O0 C3 1.255 . S
Tb1 O0 2.292 . S
Tb1 O17 2.326 . S
Tb1 O19 2.500 . S
Tb1 O20 2.473 1_556 S
Tb1 O23 2.324 1_556 S
Eu2 O6 2.292 . S
Eu2 C7 2.852 . S
Eu2 O18 2.324 1_554 S
Eu2 O22 2.326 . S
Eu2 O24 2.500 . S
Eu2 O25 2.473 . S
C3 O0 1.255 . S
C3 O4 1.247 . S
O4 C3 1.247 . S
C5 O17 1.242 . S
C5 O18 1.258 . S
O6 Eu2 2.292 . S
O6 C8 1.255 . S
C7 Eu2 2.852 . S
C7 C11 1.503 . S
C7 O24 1.273 . S
C7 O25 1.257 . S
C8 O6 1.255 . S
C8 O9 1.247 . S
O9 C8 1.247 . S
C10 O22 1.242 . S
C10 O23 1.258 . S
C11 C7 1.503 . S
C11 C12 1.379 . S
C11 C16 1.392 . S
C12 C11 1.379 . S
C12 C13 1.404 . S
C12 H26 0.929 1_554 S
C13 C12 1.404 . S
C13 C14 1.389 . S
C14 C13 1.389 . S
C14 C15 1.399 . S
C14 H27 0.931 . S
C15 C14 1.399 . S
C15 C16 1.390 . S
C16 C11 1.392 . S
C16 C15 1.390 . S
C16 H28 0.929 . S
O17 Tb1 2.326 . S
O17 C5 1.242 . S
O18 Eu2 2.324 1_556 S
O18 C5 1.258 . S
O19 Tb1 2.500 . S
O19 C21 1.273 . S
O20 Tb1 2.473 1_554 S
O20 C21 1.257 1_554 S
C21 O19 1.273 . S
C21 O20 1.257 1_556 S
O22 Eu2 2.326 . S
O22 C10 1.242 . S
O23 Tb1 2.324 1_554 S
O23 C10 1.258 . S
O24 Eu2 2.500 . S
O24 C7 1.273 . S
O25 Eu2 2.473 . S
O25 C7 1.257 . S
H26 C12 0.929 1_556 S
H27 C14 0.931 . S
H28 C16 0.929 . S
O29 Tb30 2.292 . S
O29 C32 1.255 . S
Tb30 O29 2.292 . S
Tb30 O46 2.326 . S
Tb30 O48 2.500 . S
Tb30 O49 2.473 1_556 S
Tb30 O52 2.324 1_556 S
Eu31 O35 2.292 . S
Eu31 C36 2.852 . S
Eu31 O47 2.324 1_554 S
Eu31 O51 2.326 . S
Eu31 O53 2.500 . S
Eu31 O54 2.473 . S
C32 O29 1.255 . S
C32 O33 1.247 . S
O33 C32 1.247 . S
C34 O46 1.242 . S
C34 O47 1.258 . S
O35 Eu31 2.292 . S
O35 C37 1.255 . S
C36 Eu31 2.852 . S
C36 C40 1.503 . S
C36 O53 1.273 . S
C36 O54 1.257 . S
C37 O35 1.255 . S
C37 O38 1.247 . S
O38 C37 1.247 . S
C39 O51 1.242 . S
C39 O52 1.258 . S
C40 C36 1.503 . S
C40 C41 1.379 . S
C40 C45 1.392 . S
C41 C40 1.379 . S
C41 C42 1.404 . S
C41 H55 0.929 1_554 S
C42 C41 1.404 . S
C42 C43 1.389 . S
C43 C42 1.389 . S
C43 C44 1.399 . S
C43 H56 0.931 . S
C44 C43 1.399 . S
C44 C45 1.390 . S
C45 C40 1.392 . S
C45 C44 1.390 . S
C45 H57 0.929 . S
O46 Tb30 2.326 . S
O46 C34 1.242 . S
O47 Eu31 2.324 1_556 S
O47 C34 1.258 . S
O48 Tb30 2.500 . S
O48 C50 1.273 . S
O49 Tb30 2.473 1_554 S
O49 C50 1.257 1_554 S
C50 O48 1.273 . S
C50 O49 1.257 1_556 S
O51 Eu31 2.326 . S
O51 C39 1.242 . S
O52 Tb30 2.324 1_554 S
O52 C39 1.258 . S
O53 Eu31 2.500 . S
O53 C36 1.273 . S
O54 Eu31 2.473 . S
O54 C36 1.257 . S
H55 C41 0.929 1_556 S
H56 C43 0.931 . S
H57 C45 0.929 . S
O58 Tb59 2.292 . S
O58 C61 1.255 . S
Tb59 O58 2.292 . S
Tb59 O75 2.326 . S
Tb59 O77 2.500 . S
Tb59 O78 2.473 1_556 S
Tb59 O81 2.324 1_556 S
Eu60 O64 2.292 . S
Eu60 C65 2.852 . S
Eu60 O76 2.324 1_554 S
Eu60 O80 2.326 . S
Eu60 O82 2.500 . S
Eu60 O83 2.473 . S
C61 O58 1.255 . S
C61 O62 1.247 . S
O62 C61 1.247 . S
C63 O75 1.242 . S
C63 O76 1.258 . S
O64 Eu60 2.292 . S
O64 C66 1.255 . S
C65 Eu60 2.852 . S
C65 C69 1.503 . S
C65 O82 1.273 . S
C65 O83 1.257 . S
C66 O64 1.255 . S
C66 O67 1.247 . S
O67 C66 1.247 . S
C68 O80 1.242 . S
C68 O81 1.258 . S
C69 C65 1.503 . S
C69 C70 1.379 . S
C69 C74 1.392 . S
C70 C69 1.379 . S
C70 C71 1.404 . S
C70 H84 0.929 1_554 S
C71 C70 1.404 . S
C71 C72 1.389 . S
C72 C71 1.389 . S
C72 C73 1.399 . S
C72 H85 0.931 . S
C73 C72 1.399 . S
C73 C74 1.390 . S
C74 C69 1.392 . S
C74 C73 1.390 . S
C74 H86 0.929 . S
O75 Tb59 2.326 . S
O75 C63 1.242 . S
O76 Eu60 2.324 1_556 S
O76 C63 1.258 . S
O77 Tb59 2.500 . S
O77 C79 1.273 . S
O78 Tb59 2.473 1_554 S
O78 C79 1.257 1_554 S
C79 O77 1.273 . S
C79 O78 1.257 1_556 S
O80 Eu60 2.326 . S
O80 C68 1.242 . S
O81 Tb59 2.324 1_554 S
O81 C68 1.258 . S
O82 Eu60 2.500 . S
O82 C65 1.273 . S
O83 Eu60 2.473 . S
O83 C65 1.257 . S
H84 C70 0.929 1_556 S
H85 C72 0.931 . S
H86 C74 0.929 . S
O87 Tb88 2.292 . S
O87 C90 1.255 . S
Tb88 O87 2.292 . S
Tb88 O104 2.326 . S
Tb88 O106 2.500 . S
Tb88 O107 2.473 1_556 S
Tb88 O110 2.324 1_556 S
Eu89 O93 2.292 . S
Eu89 C94 2.852 . S
Eu89 O105 2.324 1_554 S
Eu89 O109 2.326 . S
Eu89 O111 2.500 . S
Eu89 O112 2.473 . S
C90 O87 1.255 . S
C90 O91 1.247 . S
O91 C90 1.247 . S
C92 O104 1.242 . S
C92 O105 1.258 . S
O93 Eu89 2.292 . S
O93 C95 1.255 . S
C94 Eu89 2.852 . S
C94 C98 1.503 . S
C94 O111 1.273 . S
C94 O112 1.257 . S
C95 O93 1.255 . S
C95 O96 1.247 . S
O96 C95 1.247 . S
C97 O109 1.242 . S
C97 O110 1.258 . S
C98 C94 1.503 . S
C98 C99 1.379 . S
C98 C103 1.392 . S
C99 C98 1.379 . S
C99 C100 1.404 . S
C99 H113 0.929 1_554 S
C100 C99 1.404 . S
C100 C101 1.389 . S
C101 C100 1.389 . S
C101 C102 1.399 . S
C101 H114 0.931 . S
C102 C101 1.399 . S
C102 C103 1.390 . S
C103 C98 1.392 . S
C103 C102 1.390 . S
C103 H115 0.929 . S
O104 Tb88 2.326 . S
O104 C92 1.242 . S
O105 Eu89 2.324 1_556 S
O105 C92 1.258 . S
O106 Tb88 2.500 . S
O106 C108 1.273 . S
O107 Tb88 2.473 1_554 S
O107 C108 1.257 1_554 S
C108 O106 1.273 . S
C108 O107 1.257 1_556 S
O109 Eu89 2.326 . S
O109 C97 1.242 . S
O110 Tb88 2.324 1_554 S
O110 C97 1.258 . S
O111 Eu89 2.500 . S
O111 C94 1.273 . S
O112 Eu89 2.473 . S
O112 C94 1.257 . S
H113 C99 0.929 1_556 S
H114 C101 0.931 . S
H115 C103 0.929 . S
O116 Tb117 2.292 . S
O116 C119 1.255 . S
Tb117 O116 2.292 . S
Tb117 O133 2.326 . S
Tb117 O135 2.500 . S
Tb117 O136 2.473 1_556 S
Tb117 O139 2.324 1_556 S
Eu118 O122 2.292 . S
Eu118 C123 2.852 . S
Eu118 O134 2.324 1_554 S
Eu118 O138 2.326 . S
Eu118 O140 2.500 . S
Eu118 O141 2.473 . S
C119 O116 1.255 . S
C119 O120 1.247 . S
O120 C119 1.247 . S
C121 O133 1.242 . S
C121 O134 1.258 . S
O122 Eu118 2.292 . S
O122 C124 1.255 . S
C123 Eu118 2.852 . S
C123 C127 1.503 . S
C123 O140 1.273 . S
C123 O141 1.257 . S
C124 O122 1.255 . S
C124 O125 1.247 . S
O125 C124 1.247 . S
C126 O138 1.242 . S
C126 O139 1.258 . S
C127 C123 1.503 . S
C127 C128 1.379 . S
C127 C132 1.392 . S
C128 C127 1.379 . S
C128 C129 1.404 . S
C128 H142 0.929 1_554 S
C129 C128 1.404 . S
C129 C130 1.389 . S
C130 C129 1.389 . S
C130 C131 1.399 . S
C130 H143 0.931 . S
C131 C130 1.399 . S
C131 C132 1.390 . S
C132 C127 1.392 . S
C132 C131 1.390 . S
C132 H144 0.929 . S
O133 Tb117 2.326 . S
O133 C121 1.242 . S
O134 Eu118 2.324 1_556 S
O134 C121 1.258 . S
O135 Tb117 2.500 . S
O135 C137 1.273 . S
O136 Tb117 2.473 1_554 S
O136 C137 1.257 1_554 S
C137 O135 1.273 . S
C137 O136 1.257 1_556 S
O138 Eu118 2.326 . S
O138 C126 1.242 . S
O139 Tb117 2.324 1_554 S
O139 C126 1.258 . S
O140 Eu118 2.500 . S
O140 C123 1.273 . S
O141 Eu118 2.473 . S
O141 C123 1.257 . S
H142 C128 0.929 1_556 S
H143 C130 0.931 . S
H144 C132 0.929 . S
O145 Tb146 2.292 . S
O145 C148 1.255 . S
Tb146 O145 2.292 . S
Tb146 O162 2.326 . S
Tb146 O164 2.500 . S
Tb146 O165 2.473 1_556 S
Tb146 O168 2.324 1_556 S
Eu147 O151 2.292 . S
Eu147 C152 2.852 . S
Eu147 O163 2.324 1_554 S
Eu147 O167 2.326 . S
Eu147 O169 2.500 . S
Eu147 O170 2.473 . S
C148 O145 1.255 . S
C148 O149 1.247 . S
O149 C148 1.247 . S
C150 O162 1.242 . S
C150 O163 1.258 . S
O151 Eu147 2.292 . S
O151 C153 1.255 . S
C152 Eu147 2.852 . S
C152 C156 1.503 . S
C152 O169 1.273 . S
C152 O170 1.257 . S
C153 O151 1.255 . S
C153 O154 1.247 . S
O154 C153 1.247 . S
C155 O167 1.242 . S
C155 O168 1.258 . S
C156 C152 1.503 . S
C156 C157 1.379 . S
C156 C161 1.392 . S
C157 C156 1.379 . S
C157 C158 1.404 . S
C157 H171 0.929 1_554 S
C158 C157 1.404 . S
C158 C159 1.389 . S
C159 C158 1.389 . S
C159 C160 1.399 . S
C159 H172 0.931 . S
C160 C159 1.399 . S
C160 C161 1.390 . S
C161 C156 1.392 . S
C161 C160 1.390 . S
C161 H173 0.929 . S
O162 Tb146 2.326 . S
O162 C150 1.242 . S
O163 Eu147 2.324 1_556 S
O163 C150 1.258 . S
O164 Tb146 2.500 . S
O164 C166 1.273 . S
O165 Tb146 2.473 1_554 S
O165 C166 1.257 1_554 S
C166 O164 1.273 . S
C166 O165 1.257 1_556 S
O167 Eu147 2.326 . S
O167 C155 1.242 . S
O168 Tb146 2.324 1_554 S
O168 C155 1.258 . S
O169 Eu147 2.500 . S
O169 C152 1.273 . S
O170 Eu147 2.473 . S
O170 C152 1.257 . S
H171 C157 0.929 1_556 S
H172 C159 0.931 . S
H173 C161 0.929 . S
O174 Tb175 2.292 . S
O174 C177 1.255 . S
Tb175 O174 2.292 . S
Tb175 O191 2.326 . S
Tb175 O193 2.500 . S
Tb175 O194 2.473 . S
Tb175 O197 2.324 . S
Eu176 O180 2.292 . S
Eu176 C181 2.852 . S
Eu176 O192 2.324 . S
Eu176 O196 2.326 . S
Eu176 O198 2.500 . S
Eu176 O199 2.473 . S
C177 O174 1.255 . S
C177 O178 1.247 . S
O178 C177 1.247 . S
C179 O191 1.242 . S
C179 O192 1.258 . S
O180 Eu176 2.292 . S
O180 C182 1.255 . S
C181 Eu176 2.852 . S
C181 C185 1.503 . S
C181 O198 1.273 . S
C181 O199 1.257 . S
C182 O180 1.255 . S
C182 O183 1.247 . S
O183 C182 1.247 . S
C184 O196 1.242 . S
C184 O197 1.258 . S
C185 C181 1.503 . S
C185 C186 1.379 . S
C185 C190 1.392 . S
C186 C185 1.379 . S
C186 C187 1.404 . S
C186 H200 0.929 . S
C187 C186 1.404 . S
C187 C188 1.389 . S
C188 C187 1.389 . S
C188 C189 1.399 . S
C188 H201 0.931 . S
C189 C188 1.399 . S
C189 C190 1.390 . S
C190 C185 1.392 . S
C190 C189 1.390 . S
C190 H202 0.929 . S
O191 Tb175 2.326 . S
O191 C179 1.242 . S
O192 Eu176 2.324 . S
O192 C179 1.258 . S
O193 Tb175 2.500 . S
O193 C195 1.273 . S
O194 Tb175 2.473 . S
O194 C195 1.257 . S
C195 O193 1.273 . S
C195 O194 1.257 . S
O196 Eu176 2.326 . S
O196 C184 1.242 . S
O197 Tb175 2.324 . S
O197 C184 1.258 . S
O198 Eu176 2.500 . S
O198 C181 1.273 . S
O199 Eu176 2.473 . S
O199 C181 1.257 . S
H200 C186 0.929 . S
H201 C188 0.931 . S
H202 C190 0.929 . S
O203 Tb204 2.292 . S
O203 C206 1.255 . S
Tb204 O203 2.292 . S
Tb204 O220 2.326 . S
Tb204 O222 2.500 . S
Tb204 O223 2.473 . S
Tb204 O226 2.324 . S
Eu205 O209 2.292 . S
Eu205 C210 2.852 . S
Eu205 O221 2.324 . S
Eu205 O225 2.326 . S
Eu205 O227 2.500 . S
Eu205 O228 2.473 . S
C206 O203 1.255 . S
C206 O207 1.247 . S
O207 C206 1.247 . S
C208 O220 1.242 . S
C208 O221 1.258 . S
O209 Eu205 2.292 . S
O209 C211 1.255 . S
C210 Eu205 2.852 . S
C210 C214 1.503 . S
C210 O227 1.273 . S
C210 O228 1.257 . S
C211 O209 1.255 . S
C211 O212 1.247 . S
O212 C211 1.247 . S
C213 O225 1.242 . S
C213 O226 1.258 . S
C214 C210 1.503 . S
C214 C215 1.379 . S
C214 C219 1.392 . S
C215 C214 1.379 . S
C215 C216 1.404 . S
C215 H229 0.929 . S
C216 C215 1.404 . S
C216 C217 1.389 . S
C217 C216 1.389 . S
C217 C218 1.399 . S
C217 H230 0.931 . S
C218 C217 1.399 . S
C218 C219 1.390 . S
C219 C214 1.392 . S
C219 C218 1.390 . S
C219 H231 0.929 . S
O220 Tb204 2.326 . S
O220 C208 1.242 . S
O221 Eu205 2.324 . S
O221 C208 1.258 . S
O222 Tb204 2.500 . S
O222 C224 1.273 . S
O223 Tb204 2.473 . S
O223 C224 1.257 . S
C224 O222 1.273 . S
C224 O223 1.257 . S
O225 Eu205 2.326 . S
O225 C213 1.242 . S
O226 Tb204 2.324 . S
O226 C213 1.258 . S
O227 Eu205 2.500 . S
O227 C210 1.273 . S
O228 Eu205 2.473 . S
O228 C210 1.257 . S
H229 C215 0.929 . S
H230 C217 0.931 . S
H231 C219 0.929 . S
O232 Tb233 2.292 . S
O232 C235 1.255 . S
Tb233 O232 2.292 . S
Tb233 O249 2.326 . S
Tb233 O251 2.500 . S
Tb233 O252 2.473 . S
Tb233 O255 2.324 . S
Eu234 O238 2.292 . S
Eu234 C239 2.852 . S
Eu234 O250 2.324 . S
Eu234 O254 2.326 . S
Eu234 O256 2.500 . S
Eu234 O257 2.473 . S
C235 O232 1.255 . S
C235 O236 1.247 . S
O236 C235 1.247 . S
C237 O249 1.242 . S
C237 O250 1.258 . S
O238 Eu234 2.292 . S
O238 C240 1.255 . S
C239 Eu234 2.852 . S
C239 C243 1.503 . S
C239 O256 1.273 . S
C239 O257 1.257 . S
C240 O238 1.255 . S
C240 O241 1.247 . S
O241 C240 1.247 . S
C242 O254 1.242 . S
C242 O255 1.258 . S
C243 C239 1.503 . S
C243 C244 1.379 . S
C243 C248 1.392 . S
C244 C243 1.379 . S
C244 C245 1.404 . S
C244 H258 0.929 . S
C245 C244 1.404 . S
C245 C246 1.389 . S
C246 C245 1.389 . S
C246 C247 1.399 . S
C246 H259 0.931 . S
C247 C246 1.399 . S
C247 C248 1.390 . S
C248 C243 1.392 . S
C248 C247 1.390 . S
C248 H260 0.929 . S
O249 Tb233 2.326 . S
O249 C237 1.242 . S
O250 Eu234 2.324 . S
O250 C237 1.258 . S
O251 Tb233 2.500 . S
O251 C253 1.273 . S
O252 Tb233 2.473 . S
O252 C253 1.257 . S
C253 O251 1.273 . S
C253 O252 1.257 . S
O254 Eu234 2.326 . S
O254 C242 1.242 . S
O255 Tb233 2.324 . S
O255 C242 1.258 . S
O256 Eu234 2.500 . S
O256 C239 1.273 . S
O257 Eu234 2.473 . S
O257 C239 1.257 . S
H258 C244 0.929 . S
H259 C246 0.931 . S
H260 C248 0.929 . S
O261 Tb262 2.292 . S
O261 C264 1.255 . S
Tb262 O261 2.292 . S
Tb262 O278 2.326 . S
Tb262 O280 2.500 . S
Tb262 O281 2.473 . S
Tb262 O284 2.324 . S
Eu263 O267 2.292 . S
Eu263 C268 2.852 . S
Eu263 O279 2.324 . S
Eu263 O283 2.326 . S
Eu263 O285 2.500 . S
Eu263 O286 2.473 . S
C264 O261 1.255 . S
C264 O265 1.247 . S
O265 C264 1.247 . S
C266 O278 1.242 . S
C266 O279 1.258 . S
O267 Eu263 2.292 . S
O267 C269 1.255 . S
C268 Eu263 2.852 . S
C268 C272 1.503 . S
C268 O285 1.273 . S
C268 O286 1.257 . S
C269 O267 1.255 . S
C269 O270 1.247 . S
O270 C269 1.247 . S
C271 O283 1.242 . S
C271 O284 1.258 . S
C272 C268 1.503 . S
C272 C273 1.379 . S
C272 C277 1.392 . S
C273 C272 1.379 . S
C273 C274 1.404 . S
C273 H287 0.929 . S
C274 C273 1.404 . S
C274 C275 1.389 . S
C275 C274 1.389 . S
C275 C276 1.399 . S
C275 H288 0.931 . S
C276 C275 1.399 . S
C276 C277 1.390 . S
C277 C272 1.392 . S
C277 C276 1.390 . S
C277 H289 0.929 . S
O278 Tb262 2.326 . S
O278 C266 1.242 . S
O279 Eu263 2.324 . S
O279 C266 1.258 . S
O280 Tb262 2.500 . S
O280 C282 1.273 . S
O281 Tb262 2.473 . S
O281 C282 1.257 . S
C282 O280 1.273 . S
C282 O281 1.257 . S
O283 Eu263 2.326 . S
O283 C271 1.242 . S
O284 Tb262 2.324 . S
O284 C271 1.258 . S
O285 Eu263 2.500 . S
O285 C268 1.273 . S
O286 Eu263 2.473 . S
O286 C268 1.257 . S
H287 C273 0.929 . S
H288 C275 0.931 . S
H289 C277 0.929 . S
O290 Tb291 2.292 . S
O290 C293 1.255 . S
Tb291 O290 2.292 . S
Tb291 O307 2.326 . S
Tb291 O309 2.500 . S
Tb291 O310 2.473 . S
Tb291 O313 2.324 . S
Eu292 O296 2.292 . S
Eu292 C297 2.852 . S
Eu292 O308 2.324 . S
Eu292 O312 2.326 . S
Eu292 O314 2.500 . S
Eu292 O315 2.473 . S
C293 O290 1.255 . S
C293 O294 1.247 . S
O294 C293 1.247 . S
C295 O307 1.242 . S
C295 O308 1.258 . S
O296 Eu292 2.292 . S
O296 C298 1.255 . S
C297 Eu292 2.852 . S
C297 C301 1.503 . S
C297 O314 1.273 . S
C297 O315 1.257 . S
C298 O296 1.255 . S
C298 O299 1.247 . S
O299 C298 1.247 . S
C300 O312 1.242 . S
C300 O313 1.258 . S
C301 C297 1.503 . S
C301 C302 1.379 . S
C301 C306 1.392 . S
C302 C301 1.379 . S
C302 C303 1.404 . S
C302 H316 0.929 . S
C303 C302 1.404 . S
C303 C304 1.389 . S
C304 C303 1.389 . S
C304 C305 1.399 . S
C304 H317 0.931 . S
C305 C304 1.399 . S
C305 C306 1.390 . S
C306 C301 1.392 . S
C306 C305 1.390 . S
C306 H318 0.929 . S
O307 Tb291 2.326 . S
O307 C295 1.242 . S
O308 Eu292 2.324 . S
O308 C295 1.258 . S
O309 Tb291 2.500 . S
O309 C311 1.273 . S
O310 Tb291 2.473 . S
O310 C311 1.257 . S
C311 O309 1.273 . S
C311 O310 1.257 . S
O312 Eu292 2.326 . S
O312 C300 1.242 . S
O313 Tb291 2.324 . S
O313 C300 1.258 . S
O314 Eu292 2.500 . S
O314 C297 1.273 . S
O315 Eu292 2.473 . S
O315 C297 1.257 . S
H316 C302 0.929 . S
H317 C304 0.931 . S
H318 C306 0.929 . S
O319 Tb320 2.292 . S
O319 C322 1.255 . S
Tb320 O319 2.292 . S
Tb320 O336 2.326 . S
Tb320 O338 2.500 . S
Tb320 O339 2.473 . S
Tb320 O342 2.324 . S
Eu321 O325 2.292 . S
Eu321 C326 2.852 . S
Eu321 O337 2.324 . S
Eu321 O341 2.326 . S
Eu321 O343 2.500 . S
Eu321 O344 2.473 . S
C322 O319 1.255 . S
C322 O323 1.247 . S
O323 C322 1.247 . S
C324 O336 1.242 . S
C324 O337 1.258 . S
O325 Eu321 2.292 . S
O325 C327 1.255 . S
C326 Eu321 2.852 . S
C326 C330 1.503 . S
C326 O343 1.273 . S
C326 O344 1.257 . S
C327 O325 1.255 . S
C327 O328 1.247 . S
O328 C327 1.247 . S
C329 O341 1.242 . S
C329 O342 1.258 . S
C330 C326 1.503 . S
C330 C331 1.379 . S
C330 C335 1.392 . S
C331 C330 1.379 . S
C331 C332 1.404 . S
C331 H345 0.929 . S
C332 C331 1.404 . S
C332 C333 1.389 . S
C333 C332 1.389 . S
C333 C334 1.399 . S
C333 H346 0.931 . S
C334 C333 1.399 . S
C334 C335 1.390 . S
C335 C330 1.392 . S
C335 C334 1.390 . S
C335 H347 0.929 . S
O336 Tb320 2.326 . S
O336 C324 1.242 . S
O337 Eu321 2.324 . S
O337 C324 1.258 . S
O338 Tb320 2.500 . S
O338 C340 1.273 . S
O339 Tb320 2.473 . S
O339 C340 1.257 . S
C340 O338 1.273 . S
C340 O339 1.257 . S
O341 Eu321 2.326 . S
O341 C329 1.242 . S
O342 Tb320 2.324 . S
O342 C329 1.258 . S
O343 Eu321 2.500 . S
O343 C326 1.273 . S
O344 Eu321 2.473 . S
O344 C326 1.257 . S
H345 C331 0.929 . S
H346 C333 0.931 . S
H347 C335 0.929 . S
H348 C354 0.930 . S
H349 C357 0.930 . S
H350 C358 0.930 . S
H351 C359 0.930 . S
H352 C362 0.930 . S
H353 C363 0.930 . S
C354 H348 0.930 . S
C354 C355 1.355 . S
C354 C356 1.415 . S
C355 C354 1.355 . S
C355 C357 1.419 . S
C356 C354 1.415 . S
C356 C361 1.425 1_545 S
C356 C363 1.409 1_545 S
C357 H349 0.930 . S
C357 C355 1.419 . S
C357 C358 1.362 . S
C358 H350 0.930 . S
C358 C357 1.362 . S
C358 C361 1.409 1_545 S
C359 H351 0.930 . S
C359 C360 1.355 . S
C359 C361 1.415 . S
C360 C359 1.355 . S
C360 C362 1.419 . S
C361 C356 1.425 1_565 S
C361 C358 1.409 1_565 S
C361 C359 1.415 . S
C362 H352 0.930 . S
C362 C360 1.419 . S
C362 C363 1.362 . S
C363 H353 0.930 . S
C363 C356 1.409 1_565 S
C363 C362 1.362 . S
H364 C370 0.930 . S
H365 C373 0.930 . S
H366 C374 0.930 . S
H367 C375 0.930 . S
H368 C378 0.930 . S
H369 C379 0.930 . S
C370 H364 0.930 . S
C370 C371 1.355 . S
C370 C372 1.415 . S
C371 C370 1.355 . S
C371 C373 1.419 . S
C372 C370 1.415 . S
C372 C377 1.425 . S
C372 C379 1.409 . S
C373 H365 0.930 . S
C373 C371 1.419 . S
C373 C374 1.362 . S
C374 H366 0.930 . S
C374 C373 1.362 . S
C374 C377 1.409 . S
C375 H367 0.930 . S
C375 C376 1.355 . S
C375 C377 1.415 . S
C376 C375 1.355 . S
C376 C378 1.419 . S
C377 C372 1.425 . S
C377 C374 1.409 . S
C377 C375 1.415 . S
C378 H368 0.930 . S
C378 C376 1.419 . S
C378 C379 1.362 . S
C379 H369 0.930 . S
C379 C372 1.409 . S
C379 C378 1.362 . S
H380 C386 0.930 . S
H381 C389 0.930 . S
H382 C390 0.956 . S
H383 C391 0.930 . S
H384 C394 0.930 . S
H385 C395 0.956 . S
C386 H380 0.930 . S
C386 C387 1.355 . S
C386 C388 1.415 . S
C387 C386 1.355 . S
C387 C389 1.419 . S
C388 C386 1.415 . S
C388 C393 1.425 1_455 S
C388 C395 1.409 1_455 S
C389 H381 0.930 . S
C389 C387 1.419 . S
C389 C390 1.362 . S
C390 H382 0.956 . S
C390 C389 1.362 . S
C390 C393 1.409 1_455 S
C391 H383 0.930 . S
C391 C392 1.355 . S
C391 C393 1.415 . S
C392 C391 1.355 . S
C392 C394 1.419 . S
C393 C388 1.425 1_655 S
C393 C390 1.409 1_655 S
C393 C391 1.415 . S
C394 H384 0.930 . S
C394 C392 1.419 . S
C394 C395 1.362 . S
C395 H385 0.956 . S
C395 C388 1.409 1_655 S
C395 C394 1.362 . S
H396 C402 0.930 . S
H397 C405 0.930 . S
H398 C406 0.930 1_545 S
H399 C407 0.930 . S
H400 C410 0.930 . S
H401 C411 0.930 1_565 S
C402 H396 0.930 . S
C402 C403 1.355 . S
C402 C404 1.415 . S
C403 C402 1.355 . S
C403 C405 1.419 . S
C404 C402 1.415 . S
C404 C409 1.425 1_565 S
C404 C411 1.409 1_565 S
C405 H397 0.930 . S
C405 C403 1.419 . S
C405 C406 1.362 . S
C406 H398 0.930 1_565 S
C406 C405 1.362 . S
C406 C409 1.409 1_565 S
C407 H399 0.930 . S
C407 C408 1.355 . S
C407 C409 1.415 . S
C408 C407 1.355 . S
C408 C410 1.419 . S
C409 C404 1.425 1_545 S
C409 C406 1.409 1_545 S
C409 C407 1.415 . S
C410 H400 0.930 . S
C410 C408 1.419 . S
C410 C411 1.362 . S
C411 H401 0.930 1_545 S
C411 C404 1.409 1_545 S
C411 C410 1.362 . S
H412 C418 0.930 . S
H413 C421 0.930 . S
H414 C422 0.930 . S
H415 C423 0.930 . S
H416 C426 0.930 . S
H417 C427 0.930 . S
C418 H412 0.930 . S
C418 C419 1.355 . S
C418 C420 1.415 . S
C419 C418 1.355 . S
C419 C421 1.419 . S
C420 C418 1.415 . S
C420 C425 1.425 . S
C420 C427 1.409 . S
C421 H413 0.930 . S
C421 C419 1.419 . S
C421 C422 1.362 . S
C422 H414 0.930 . S
C422 C421 1.362 . S
C422 C425 1.409 . S
C423 H415 0.930 . S
C423 C424 1.355 . S
C423 C425 1.415 . S
C424 C423 1.355 . S
C424 C426 1.419 . S
C425 C420 1.425 . S
C425 C422 1.409 . S
C425 C423 1.415 . S
C426 H416 0.930 . S
C426 C424 1.419 . S
C426 C427 1.362 . S
C427 H417 0.930 . S
C427 C420 1.409 . S
C427 C426 1.362 . S
H428 C434 0.930 . S
H429 C437 0.930 . S
H430 C438 0.930 . S
H431 C439 0.930 . S
H432 C442 0.930 . S
H433 C443 0.930 . S
C434 H428 0.930 . S
C434 C435 1.355 . S
C434 C436 1.415 . S
C435 C434 1.355 . S
C435 C437 1.419 . S
C436 C434 1.415 . S
C436 C441 1.425 1_655 S
C436 C443 1.409 1_655 S
C437 H429 0.930 . S
C437 C435 1.419 . S
C437 C438 1.362 . S
C438 H430 0.930 . S
C438 C437 1.362 . S
C438 C441 1.409 1_655 S
C439 H431 0.930 . S
C439 C440 1.355 . S
C439 C441 1.415 . S
C440 C439 1.355 . S
C440 C442 1.419 . S
C441 C436 1.425 1_455 S
C441 C438 1.409 1_455 S
C441 C439 1.415 . S
C442 H432 0.930 . S
C442 C440 1.419 . S
C442 C443 1.362 . S
C443 H433 0.930 . S
C443 C436 1.409 1_455 S
C443 C442 1.362 . S
H444 C450 0.930 . S
H445 C453 0.930 . S
H446 C454 0.930 . S
H447 C455 0.930 . S
H448 C458 0.930 . S
H449 C459 0.930 . S
C450 H444 0.930 . S
C450 C451 1.355 . S
C450 C452 1.415 . S
C451 C450 1.355 . S
C451 C453 1.419 . S
C452 C450 1.415 . S
C452 C457 1.425 1_545 S
C452 C459 1.409 . S
C453 H445 0.930 . S
C453 C451 1.419 . S
C453 C454 1.362 1_545 S
C454 H446 0.930 . S
C454 C453 1.362 1_565 S
C454 C457 1.409 . S
C455 H447 0.930 . S
C455 C456 1.355 . S
C455 C457 1.415 . S
C456 C455 1.355 . S
C456 C458 1.419 . S
C457 C452 1.425 1_565 S
C457 C454 1.409 . S
C457 C455 1.415 . S
C458 H448 0.930 . S
C458 C456 1.419 . S
C458 C459 1.362 1_565 S
C459 H449 0.930 . S
C459 C452 1.409 . S
C459 C458 1.362 1_545 S
H460 C466 0.930 . S
H461 C469 0.930 . S
H462 C470 0.930 . S
H463 C471 0.930 . S
H464 C474 0.930 . S
H465 C475 0.930 . S
C466 H460 0.930 . S
C466 C467 1.355 . S
C466 C468 1.415 . S
C467 C466 1.355 . S
C467 C469 1.419 . S
C468 C466 1.415 . S
C468 C473 1.425 . S
C468 C475 1.409 . S
C469 H461 0.930 . S
C469 C467 1.419 . S
C469 C470 1.362 . S
C470 H462 0.930 . S
C470 C469 1.362 . S
C470 C473 1.409 . S
C471 H463 0.930 . S
C471 C472 1.355 . S
C471 C473 1.415 . S
C472 C471 1.355 . S
C472 C474 1.419 . S
C473 C468 1.425 . S
C473 C470 1.409 . S
C473 C471 1.415 . S
C474 H464 0.930 . S
C474 C472 1.419 . S
C474 C475 1.362 . S
C475 H465 0.930 . S
C475 C468 1.409 . S
C475 C474 1.362 . S
H476 C482 0.930 . S
H477 C485 0.930 . S
H478 C486 0.930 1_655 S
H479 C487 0.930 . S
H480 C490 0.930 . S
H481 C491 0.930 1_455 S
C482 H476 0.930 . S
C482 C483 1.355 . S
C482 C484 1.415 . S
C483 C482 1.355 . S
C483 C485 1.419 . S
C484 C482 1.415 . S
C484 C489 1.425 1_455 S
C484 C491 1.409 1_455 S
C485 H477 0.930 . S
C485 C483 1.419 . S
C485 C486 1.362 . S
C486 H478 0.930 1_455 S
C486 C485 1.362 . S
C486 C489 1.409 1_455 S
C487 H479 0.930 . S
C487 C488 1.355 . S
C487 C489 1.415 . S
C488 C487 1.355 . S
C488 C490 1.419 . S
C489 C484 1.425 1_655 S
C489 C486 1.409 1_655 S
C489 C487 1.415 . S
C490 H480 0.930 . S
C490 C488 1.419 . S
C490 C491 1.362 . S
C491 H481 0.930 1_655 S
C491 C484 1.409 1_655 S
C491 C490 1.362 . S
H492 C498 0.930 . S
H493 C501 0.930 . S
H494 C502 0.939 1_565 S
H495 C503 0.930 . S
H496 C506 0.930 . S
H497 C507 0.939 1_545 S
C498 H492 0.930 . S
C498 C499 1.355 . S
C498 C500 1.415 . S
C499 C498 1.355 . S
C499 C501 1.419 . S
C500 C498 1.415 . S
C500 C505 1.425 1_545 S
C500 C507 1.409 1_545 S
C501 H493 0.930 . S
C501 C499 1.419 . S
C501 C502 1.362 . S
C502 H494 0.939 1_545 S
C502 C501 1.362 . S
C502 C505 1.409 1_545 S
C503 H495 0.930 . S
C503 C504 1.355 . S
C503 C505 1.415 . S
C504 C503 1.355 . S
C504 C506 1.419 . S
C505 C500 1.425 1_565 S
C505 C502 1.409 1_565 S
C505 C503 1.415 . S
C506 H496 0.930 . S
C506 C504 1.419 . S
C506 C507 1.362 . S
C507 H497 0.939 1_565 S
C507 C500 1.409 1_565 S
C507 C506 1.362 . S
H508 C514 0.930 . S
H509 C517 0.930 . S
H510 C518 0.930 . S
H511 C519 0.930 . S
H512 C522 0.930 . S
H513 C523 0.930 . S
C514 H508 0.930 . S
C514 C515 1.355 . S
C514 C516 1.415 . S
C515 C514 1.355 . S
C515 C517 1.419 . S
C516 C514 1.415 . S
C516 C521 1.425 . S
C516 C523 1.409 . S
C517 H509 0.930 . S
C517 C515 1.419 . S
C517 C518 1.362 . S
C518 H510 0.930 . S
C518 C517 1.362 . S
C518 C521 1.409 . S
C519 H511 0.930 . S
C519 C520 1.355 . S
C519 C521 1.415 . S
C520 C519 1.355 . S
C520 C522 1.419 . S
C521 C516 1.425 . S
C521 C518 1.409 . S
C521 C519 1.415 . S
C522 H512 0.930 . S
C522 C520 1.419 . S
C522 C523 1.362 . S
C523 H513 0.930 . S
C523 C516 1.409 . S
C523 C522 1.362 . S
H524 C530 0.930 . S
H525 C533 0.930 . S
H526 C534 0.930 . S
H527 C535 0.930 . S
H528 C538 0.930 . S
H529 C539 0.930 . S
C530 H524 0.930 . S
C530 C531 1.355 . S
C530 C532 1.415 1_455 S
C531 C530 1.355 . S
C531 C533 1.419 . S
C532 C530 1.415 1_655 S
C532 C537 1.425 1_655 S
C532 C539 1.409 . S
C533 H525 0.930 . S
C533 C531 1.419 . S
C533 C534 1.362 . S
C534 H526 0.930 . S
C534 C533 1.362 . S
C534 C537 1.409 . S
C535 H527 0.930 . S
C535 C536 1.355 . S
C535 C537 1.415 1_655 S
C536 C535 1.355 . S
C536 C538 1.419 . S
C537 C532 1.425 1_455 S
C537 C534 1.409 . S
C537 C535 1.415 1_455 S
C538 H528 0.930 . S
C538 C536 1.419 . S
C538 C539 1.362 . S
C539 H529 0.930 . S
C539 C532 1.409 . S
C539 C538 1.362 . S
H540 C546 0.930 . S
H541 C549 0.930 . S
H542 C550 0.930 . S
H543 C551 0.930 . S
H544 C554 0.930 . S
H545 C555 0.930 . S
C546 H540 0.930 . S
C546 C547 1.355 1_554 S
C546 C548 1.415 1_565 S
C547 C546 1.355 1_556 S
C547 C549 1.419 . S
C548 C546 1.415 1_545 S
C548 C553 1.425 1_544 S
C548 C555 1.409 . S
C549 H541 0.930 . S
C549 C547 1.419 . S
C549 C550 1.362 . S
C550 H542 0.930 . S
C550 C549 1.362 . S
C550 C553 1.409 . S
C551 H543 0.930 . S
C551 C552 1.355 . S
C551 C553 1.415 1_545 S
C552 C551 1.355 . S
C552 C554 1.419 1_556 S
C553 C548 1.425 1_566 S
C553 C550 1.409 . S
C553 C551 1.415 1_565 S
C554 H544 0.930 . S
C554 C552 1.419 1_554 S
C554 C555 1.362 . S
C555 H545 0.930 . S
C555 C548 1.409 . S
C555 C554 1.362 . S
H556 C562 0.930 . S
H557 C565 0.930 . S
H558 C566 0.930 . S
H559 C567 0.930 . S
H560 C570 0.930 . S
H561 C571 0.930 . S
C562 H556 0.930 . S
C562 C563 1.355 1_554 S
C562 C564 1.415 1_554 S
C563 C562 1.355 1_556 S
C563 C565 1.419 . S
C564 C562 1.415 1_556 S
C564 C569 1.425 . S
C564 C571 1.409 1_556 S
C565 H557 0.930 . S
C565 C563 1.419 . S
C565 C566 1.362 . S
C566 H558 0.930 . S
C566 C565 1.362 . S
C566 C569 1.409 . S
C567 H559 0.930 . S
C567 C568 1.355 . S
C567 C569 1.415 . S
C568 C567 1.355 . S
C568 C570 1.419 1_556 S
C569 C564 1.425 . S
C569 C566 1.409 . S
C569 C567 1.415 . S
C570 H560 0.930 . S
C570 C568 1.419 1_554 S
C570 C571 1.362 . S
C571 H561 0.930 . S
C571 C564 1.409 1_554 S
C571 C570 1.362 . S
H572 C578 0.930 . S
H573 C581 0.930 . S
H574 C582 0.930 . S
H575 C583 0.930 . S
H576 C586 0.930 . S
H577 C587 0.930 . S
C578 H572 0.930 . S
C578 C579 1.355 1_554 S
C578 C580 1.415 1_454 S
C579 C578 1.355 1_556 S
C579 C581 1.419 . S
C580 C578 1.415 1_656 S
C580 C585 1.425 1_655 S
C580 C587 1.409 1_556 S
C581 H573 0.930 . S
C581 C579 1.419 . S
C581 C582 1.362 . S
C582 H574 0.930 . S
C582 C581 1.362 . S
C582 C585 1.409 . S
C583 H575 0.930 . S
C583 C584 1.355 . S
C583 C585 1.415 1_655 S
C584 C583 1.355 . S
C584 C586 1.419 1_556 S
C585 C580 1.425 1_455 S
C585 C582 1.409 . S
C585 C583 1.415 1_455 S
C586 H576 0.930 . S
C586 C584 1.419 1_554 S
C586 C587 1.362 . S
C587 H577 0.930 . S
C587 C580 1.409 1_554 S
C587 C586 1.362 . S
H588 C594 0.930 . S
H589 C597 0.930 . S
H590 C598 0.930 . S
H591 C599 0.930 . S
H592 C602 0.930 . S
H593 C603 0.930 . S
C594 H588 0.930 . S
C594 C595 1.355 . S
C594 C596 1.415 1_655 S
C595 C594 1.355 . S
C595 C597 1.419 . S
C596 C594 1.415 1_455 S
C596 C601 1.425 1_455 S
C596 C603 1.409 . S
C597 H589 0.930 . S
C597 C595 1.419 . S
C597 C598 1.362 . S
C598 H590 0.930 . S
C598 C597 1.362 . S
C598 C601 1.409 . S
C599 H591 0.930 . S
C599 C600 1.355 . S
C599 C601 1.415 1_455 S
C600 C599 1.355 . S
C600 C602 1.419 . S
C601 C596 1.425 1_655 S
C601 C598 1.409 . S
C601 C599 1.415 1_655 S
C602 H592 0.930 . S
C602 C600 1.419 . S
C602 C603 1.362 . S
C603 H593 0.930 . S
C603 C596 1.409 . S
C603 C602 1.362 . S
H604 C610 0.930 . S
H605 C613 0.930 . S
H606 C614 0.930 . S
H607 C615 0.930 . S
H608 C618 0.930 . S
H609 C619 0.930 . S
C610 H604 0.930 . S
C610 C611 1.355 . S
C610 C612 1.415 1_565 S
C611 C610 1.355 . S
C611 C613 1.419 . S
C612 C610 1.415 1_545 S
C612 C617 1.425 1_545 S
C612 C619 1.409 . S
C613 H605 0.930 . S
C613 C611 1.419 . S
C613 C614 1.362 . S
C614 H606 0.930 . S
C614 C613 1.362 . S
C614 C617 1.409 . S
C615 H607 0.930 . S
C615 C616 1.355 . S
C615 C617 1.415 1_545 S
C616 C615 1.355 . S
C616 C618 1.419 . S
C617 C612 1.425 1_565 S
C617 C614 1.409 . S
C617 C615 1.415 1_565 S
C618 H608 0.930 . S
C618 C616 1.419 . S
C618 C619 1.362 . S
C619 H609 0.930 . S
C619 C612 1.409 . S
C619 C618 1.362 . S
H620 C626 0.930 . S
H621 C629 0.930 . S
H622 C630 0.930 . S
H623 C631 0.930 . S
H624 C634 0.930 . S
H625 C635 0.930 . S
C626 H620 0.930 . S
C626 C627 1.355 . S
C626 C628 1.415 . S
C627 C626 1.355 . S
C627 C629 1.419 . S
C628 C626 1.415 . S
C628 C633 1.425 . S
C628 C635 1.409 . S
C629 H621 0.930 . S
C629 C627 1.419 . S
C629 C630 1.362 . S
C630 H622 0.930 . S
C630 C629 1.362 . S
C630 C633 1.409 . S
C631 H623 0.930 . S
C631 C632 1.355 . S
C631 C633 1.415 . S
C632 C631 1.355 . S
C632 C634 1.419 . S
C633 C628 1.425 . S
C633 C630 1.409 . S
C633 C631 1.415 . S
C634 H624 0.930 . S
C634 C632 1.419 . S
C634 C635 1.362 . S
C635 H625 0.930 . S
C635 C628 1.409 . S
C635 C634 1.362 . S
H636 C642 0.930 . S
H637 C645 0.930 . S
H638 C646 0.930 . S
H639 C647 0.930 . S
H640 C650 0.930 . S
H641 C651 0.930 . S
C642 H636 0.930 . S
C642 C643 1.355 . S
C642 C644 1.415 . S
C643 C642 1.355 . S
C643 C645 1.419 . S
C644 C642 1.415 . S
C644 C649 1.425 . S
C644 C651 1.409 . S
C645 H637 0.930 . S
C645 C643 1.419 . S
C645 C646 1.362 . S
C646 H638 0.930 . S
C646 C645 1.362 . S
C646 C649 1.409 . S
C647 H639 0.930 . S
C647 C648 1.355 . S
C647 C649 1.415 . S
C648 C647 1.355 . S
C648 C650 1.419 . S
C649 C644 1.425 . S
C649 C646 1.409 . S
C649 C647 1.415 . S
C650 H640 0.930 . S
C650 C648 1.419 . S
C650 C651 1.362 . S
C651 H641 0.930 . S
C651 C644 1.409 . S
C651 C650 1.362 . S
H652 C658 0.930 . S
H653 C661 0.930 . S
H654 C662 0.930 . S
H655 C663 0.930 . S
H656 C666 0.930 . S
H657 C667 0.930 . S
C658 H652 0.930 . S
C658 C659 1.355 . S
C658 C660 1.415 . S
C659 C658 1.355 . S
C659 C661 1.419 . S
C660 C658 1.415 . S
C660 C665 1.425 . S
C660 C667 1.409 . S
C661 H653 0.930 . S
C661 C659 1.419 . S
C661 C662 1.362 . S
C662 H654 0.930 . S
C662 C661 1.362 . S
C662 C665 1.409 . S
C663 H655 0.930 . S
C663 C664 1.355 . S
C663 C665 1.415 . S
C664 C663 1.355 . S
C664 C666 1.419 . S
C665 C660 1.425 . S
C665 C662 1.409 . S
C665 C663 1.415 . S
C666 H656 0.930 . S
C666 C664 1.419 . S
C666 C667 1.362 . S
C667 H657 0.930 . S
C667 C660 1.409 . S
C667 C666 1.362 . S
H668 C674 0.930 . S
H669 C677 0.930 . S
H670 C678 0.930 . S
H671 C679 0.930 . S
H672 C682 0.930 . S
H673 C683 0.930 . S
C674 H668 0.930 . S
C674 C675 1.355 . S
C674 C676 1.415 . S
C675 C674 1.355 . S
C675 C677 1.419 . S
C676 C674 1.415 . S
C676 C681 1.425 . S
C676 C683 1.409 . S
C677 H669 0.930 . S
C677 C675 1.419 . S
C677 C678 1.362 . S
C678 H670 0.930 . S
C678 C677 1.362 . S
C678 C681 1.409 . S
C679 H671 0.930 . S
C679 C680 1.355 . S
C679 C681 1.415 . S
C680 C679 1.355 . S
C680 C682 1.419 . S
C681 C676 1.425 . S
C681 C678 1.409 . S
C681 C679 1.415 . S
C682 H672 0.930 . S
C682 C680 1.419 . S
C682 C683 1.362 . S
C683 H673 0.930 . S
C683 C676 1.409 . S
C683 C682 1.362 . S
H684 C690 0.930 . S
H685 C693 0.930 . S
H686 C694 0.930 . S
H687 C695 0.930 . S
H688 C698 0.930 . S
H689 C699 0.930 . S
C690 H684 0.930 . S
C690 C691 1.355 . S
C690 C692 1.415 . S
C691 C690 1.355 . S
C691 C693 1.419 . S
C692 C690 1.415 . S
C692 C697 1.425 . S
C692 C699 1.409 . S
C693 H685 0.930 . S
C693 C691 1.419 . S
C693 C694 1.362 . S
C694 H686 0.930 . S
C694 C693 1.362 . S
C694 C697 1.409 . S
C695 H687 0.930 . S
C695 C696 1.355 . S
C695 C697 1.415 . S
C696 C695 1.355 . S
C696 C698 1.419 . S
C697 C692 1.425 . S
C697 C694 1.409 . S
C697 C695 1.415 . S
C698 H688 0.930 . S
C698 C696 1.419 . S
C698 C699 1.362 . S
C699 H689 0.930 . S
C699 C692 1.409 . S
C699 C698 1.362 . S
H700 C706 0.930 . S
H701 C709 0.930 . S
H702 C710 0.930 . S
H703 C711 0.930 . S
H704 C714 0.930 . S
H705 C715 0.930 . S
C706 H700 0.930 . S
C706 C707 1.355 . S
C706 C708 1.415 . S
C707 C706 1.355 . S
C707 C709 1.419 . S
C708 C706 1.415 . S
C708 C713 1.425 . S
C708 C715 1.409 . S
C709 H701 0.930 . S
C709 C707 1.419 . S
C709 C710 1.362 . S
C710 H702 0.930 . S
C710 C709 1.362 . S
C710 C713 1.409 . S
C711 H703 0.930 . S
C711 C712 1.355 . S
C711 C713 1.415 . S
C712 C711 1.355 . S
C712 C714 1.419 . S
C713 C708 1.425 . S
C713 C710 1.409 . S
C713 C711 1.415 . S
C714 H704 0.930 . S
C714 C712 1.419 . S
C714 C715 1.362 . S
C715 H705 0.930 . S
C715 C708 1.409 . S
C715 C714 1.362 . S
H716 C722 0.930 . S
H717 C725 0.930 . S
H718 C726 0.930 . S
H719 C727 0.930 . S
H720 C730 0.930 . S
H721 C731 0.930 . S
C722 H716 0.930 . S
C722 C723 1.355 . S
C722 C724 1.415 . S
C723 C722 1.355 . S
C723 C725 1.419 . S
C724 C722 1.415 . S
C724 C729 1.425 . S
C724 C731 1.409 . S
C725 H717 0.930 . S
C725 C723 1.419 . S
C725 C726 1.362 . S
C726 H718 0.930 . S
C726 C725 1.362 . S
C726 C729 1.409 . S
C727 H719 0.930 . S
C727 C728 1.355 . S
C727 C729 1.415 . S
C728 C727 1.355 . S
C728 C730 1.419 . S
C729 C724 1.425 . S
C729 C726 1.409 . S
C729 C727 1.415 . S
C730 H720 0.930 . S
C730 C728 1.419 . S
C730 C731 1.362 . S
C731 H721 0.930 . S
C731 C724 1.409 . S
C731 C730 1.362 . S
H732 C738 0.930 . S
H733 C741 0.930 . S
H734 C742 0.930 . S
H735 C743 0.930 . S
H736 C746 0.930 . S
H737 C747 0.930 . S
C738 H732 0.930 . S
C738 C739 1.355 . S
C738 C740 1.415 . S
C739 C738 1.355 . S
C739 C741 1.419 . S
C740 C738 1.415 . S
C740 C745 1.425 . S
C740 C747 1.409 . S
C741 H733 0.930 . S
C741 C739 1.419 . S
C741 C742 1.362 . S
C742 H734 0.930 . S
C742 C741 1.362 . S
C742 C745 1.409 . S
C743 H735 0.930 . S
C743 C744 1.355 . S
C743 C745 1.415 . S
C744 C743 1.355 . S
C744 C746 1.419 . S
C745 C740 1.425 . S
C745 C742 1.409 . S
C745 C743 1.415 . S
C746 H736 0.930 . S
C746 C744 1.419 . S
C746 C747 1.362 . S
C747 H737 0.930 . S
C747 C740 1.409 . S
C747 C746 1.362 . S
H748 C754 0.930 . S
H749 C757 0.930 . S
H750 C758 0.930 . S
H751 C759 0.930 . S
H752 C762 0.930 . S
H753 C763 0.930 . S
C754 H748 0.930 . S
C754 C755 1.355 . S
C754 C756 1.415 . S
C755 C754 1.355 . S
C755 C757 1.419 . S
C756 C754 1.415 . S
C756 C761 1.425 . S
C756 C763 1.409 . S
C757 H749 0.930 . S
C757 C755 1.419 . S
C757 C758 1.362 . S
C758 H750 0.930 . S
C758 C757 1.362 . S
C758 C761 1.409 . S
C759 H751 0.930 . S
C759 C760 1.355 . S
C759 C761 1.415 . S
C760 C759 1.355 . S
C760 C762 1.419 . S
C761 C756 1.425 . S
C761 C758 1.409 . S
C761 C759 1.415 . S
C762 H752 0.930 . S
C762 C760 1.419 . S
C762 C763 1.362 . S
C763 H753 0.930 . S
C763 C756 1.409 . S
C763 C762 1.362 . S
H764 C770 0.930 . S
H765 C773 0.930 . S
H766 C774 0.930 . S
H767 C775 0.930 . S
H768 C778 0.930 . S
H769 C779 0.930 . S
C770 H764 0.930 . S
C770 C771 1.355 . S
C770 C772 1.415 . S
C771 C770 1.355 . S
C771 C773 1.419 . S
C772 C770 1.415 . S
C772 C777 1.425 . S
C772 C779 1.409 . S
C773 H765 0.930 . S
C773 C771 1.419 . S
C773 C774 1.362 . S
C774 H766 0.930 . S
C774 C773 1.362 . S
C774 C777 1.409 . S
C775 H767 0.930 . S
C775 C776 1.355 . S
C775 C777 1.415 . S
C776 C775 1.355 . S
C776 C778 1.419 . S
C777 C772 1.425 . S
C777 C774 1.409 . S
C777 C775 1.415 . S
C778 H768 0.930 . S
C778 C776 1.419 . S
C778 C779 1.362 . S
C779 H769 0.930 . S
C779 C772 1.409 . S
C779 C778 1.362 . S
H780 C786 0.930 . S
H781 C789 0.930 . S
H782 C790 0.930 . S
H783 C791 0.930 . S
H784 C794 0.930 . S
H785 C795 0.930 . S
C786 H780 0.930 . S
C786 C787 1.355 . S
C786 C788 1.415 . S
C787 C786 1.355 . S
C787 C789 1.419 . S
C788 C786 1.415 . S
C788 C793 1.425 . S
C788 C795 1.409 . S
C789 H781 0.930 . S
C789 C787 1.419 . S
C789 C790 1.362 . S
C790 H782 0.930 . S
C790 C789 1.362 . S
C790 C793 1.409 . S
C791 H783 0.930 . S
C791 C792 1.355 . S
C791 C793 1.415 . S
C792 C791 1.355 . S
C792 C794 1.419 . S
C793 C788 1.425 . S
C793 C790 1.409 . S
C793 C791 1.415 . S
C794 H784 0.930 . S
C794 C792 1.419 . S
C794 C795 1.362 . S
C795 H785 0.930 . S
C795 C788 1.409 . S
C795 C794 1.362 . S
H796 C802 0.930 . S
H797 C805 0.930 . S
H798 C806 0.930 . S
H799 C807 0.930 . S
H800 C810 0.930 . S
H801 C811 0.930 . S
C802 H796 0.930 . S
C802 C803 1.355 . S
C802 C804 1.415 . S
C803 C802 1.355 . S
C803 C805 1.419 . S
C804 C802 1.415 . S
C804 C809 1.425 . S
C804 C811 1.409 . S
C805 H797 0.930 . S
C805 C803 1.419 . S
C805 C806 1.362 . S
C806 H798 0.930 . S
C806 C805 1.362 . S
C806 C809 1.409 . S
C807 H799 0.930 . S
C807 C808 1.355 . S
C807 C809 1.415 . S
C808 C807 1.355 . S
C808 C810 1.419 . S
C809 C804 1.425 . S
C809 C806 1.409 . S
C809 C807 1.415 . S
C810 H800 0.930 . S
C810 C808 1.419 . S
C810 C811 1.362 . S
C811 H801 0.930 . S
C811 C804 1.409 . S
C811 C810 1.362 . S
H812 C818 0.930 . S
H813 C821 0.930 . S
H814 C822 0.930 . S
H815 C823 0.930 . S
H816 C826 0.930 . S
H817 C827 0.930 . S
C818 H812 0.930 . S
C818 C819 1.355 . S
C818 C820 1.415 . S
C819 C818 1.355 . S
C819 C821 1.419 . S
C820 C818 1.415 . S
C820 C825 1.425 . S
C820 C827 1.409 . S
C821 H813 0.930 . S
C821 C819 1.419 . S
C821 C822 1.362 . S
C822 H814 0.930 . S
C822 C821 1.362 . S
C822 C825 1.409 . S
C823 H815 0.930 . S
C823 C824 1.355 . S
C823 C825 1.415 . S
C824 C823 1.355 . S
C824 C826 1.419 . S
C825 C820 1.425 . S
C825 C822 1.409 . S
C825 C823 1.415 . S
C826 H816 0.930 . S
C826 C824 1.419 . S
C826 C827 1.362 . S
C827 H817 0.930 . S
C827 C820 1.409 . S
C827 C826 1.362 . S
H828 C834 0.930 . S
H829 C837 0.930 . S
H830 C838 0.930 . S
H831 C839 0.930 . S
H832 C842 0.930 . S
H833 C843 0.930 . S
C834 H828 0.930 . S
C834 C835 1.355 . S
C834 C836 1.415 . S
C835 C834 1.355 . S
C835 C837 1.419 . S
C836 C834 1.415 . S
C836 C841 1.425 . S
C836 C843 1.409 . S
C837 H829 0.930 . S
C837 C835 1.419 . S
C837 C838 1.362 . S
C838 H830 0.930 . S
C838 C837 1.362 . S
C838 C841 1.409 . S
C839 H831 0.930 . S
C839 C840 1.355 . S
C839 C841 1.415 . S
C840 C839 1.355 . S
C840 C842 1.419 . S
C841 C836 1.425 . S
C841 C838 1.409 . S
C841 C839 1.415 . S
C842 H832 0.930 . S
C842 C840 1.419 . S
C842 C843 1.362 . S
C843 H833 0.930 . S
C843 C836 1.409 . S
C843 C842 1.362 . S
H844 C850 0.930 . S
H845 C853 0.930 . S
H846 C854 0.930 . S
H847 C855 0.930 . S
H848 C858 0.930 . S
H849 C859 0.930 . S
C850 H844 0.930 . S
C850 C851 1.355 . S
C850 C852 1.415 . S
C851 C850 1.355 . S
C851 C853 1.419 . S
C852 C850 1.415 . S
C852 C857 1.425 . S
C852 C859 1.409 . S
C853 H845 0.930 . S
C853 C851 1.419 . S
C853 C854 1.362 . S
C854 H846 0.930 . S
C854 C853 1.362 . S
C854 C857 1.409 . S
C855 H847 0.930 . S
C855 C856 1.355 . S
C855 C857 1.415 . S
C856 C855 1.355 . S
C856 C858 1.419 . S
C857 C852 1.425 . S
C857 C854 1.409 . S
C857 C855 1.415 . S
C858 H848 0.930 . S
C858 C856 1.419 . S
C858 C859 1.362 . S
C859 H849 0.930 . S
C859 C852 1.409 . S
C859 C858 1.362 . S
H860 C866 0.930 . S
H861 C869 0.930 . S
H862 C870 0.930 . S
H863 C871 0.930 . S
H864 C874 0.930 . S
H865 C875 0.930 . S
C866 H860 0.930 . S
C866 C867 1.355 . S
C866 C868 1.415 . S
C867 C866 1.355 . S
C867 C869 1.419 . S
C868 C866 1.415 . S
C868 C873 1.425 . S
C868 C875 1.409 . S
C869 H861 0.930 . S
C869 C867 1.419 . S
C869 C870 1.362 . S
C870 H862 0.930 . S
C870 C869 1.362 . S
C870 C873 1.409 . S
C871 H863 0.930 . S
C871 C872 1.355 . S
C871 C873 1.415 . S
C872 C871 1.355 . S
C872 C874 1.419 . S
C873 C868 1.425 . S
C873 C870 1.409 . S
C873 C871 1.415 . S
C874 H864 0.930 . S
C874 C872 1.419 . S
C874 C875 1.362 . S
C875 H865 0.930 . S
C875 C868 1.409 . S
C875 C874 1.362 . S
H876 C882 0.930 . S
H877 C885 0.930 . S
H878 C886 0.930 . S
H879 C887 0.930 . S
H880 C890 0.930 . S
H881 C891 0.930 . S
C882 H876 0.930 . S
C882 C883 1.355 . S
C882 C884 1.415 . S
C883 C882 1.355 . S
C883 C885 1.419 . S
C884 C882 1.415 . S
C884 C889 1.425 . S
C884 C891 1.409 . S
C885 H877 0.930 . S
C885 C883 1.419 . S
C885 C886 1.362 . S
C886 H878 0.930 . S
C886 C885 1.362 . S
C886 C889 1.409 . S
C887 H879 0.930 . S
C887 C888 1.355 . S
C887 C889 1.415 . S
C888 C887 1.355 . S
C888 C890 1.419 . S
C889 C884 1.425 . S
C889 C886 1.409 . S
C889 C887 1.415 . S
C890 H880 0.930 . S
C890 C888 1.419 . S
C890 C891 1.362 . S
C891 H881 0.930 . S
C891 C884 1.409 . S
C891 C890 1.362 . S
H892 C898 0.930 . S
H893 C901 0.930 . S
H894 C902 0.930 . S
H895 C903 0.930 . S
H896 C906 0.930 . S
H897 C907 0.930 . S
C898 H892 0.930 . S
C898 C899 1.355 . S
C898 C900 1.415 . S
C899 C898 1.355 . S
C899 C901 1.419 . S
C900 C898 1.415 . S
C900 C905 1.425 . S
C900 C907 1.409 . S
C901 H893 0.930 . S
C901 C899 1.419 . S
C901 C902 1.362 . S
C902 H894 0.930 . S
C902 C901 1.362 . S
C902 C905 1.409 . S
C903 H895 0.930 . S
C903 C904 1.355 . S
C903 C905 1.415 . S
C904 C903 1.355 . S
C904 C906 1.419 . S
C905 C900 1.425 . S
C905 C902 1.409 . S
C905 C903 1.415 . S
C906 H896 0.930 . S
C906 C904 1.419 . S
C906 C907 1.362 . S
C907 H897 0.930 . S
C907 C900 1.409 . S
C907 C906 1.362 . S
H908 C914 0.930 . S
H909 C917 0.930 . S
H910 C918 0.930 . S
H911 C919 0.930 . S
H912 C922 0.930 . S
H913 C923 0.930 . S
C914 H908 0.930 . S
C914 C915 1.355 . S
C914 C916 1.415 . S
C915 C914 1.355 . S
C915 C917 1.419 . S
C916 C914 1.415 . S
C916 C921 1.425 . S
C916 C923 1.409 . S
C917 H909 0.930 . S
C917 C915 1.419 . S
C917 C918 1.362 . S
C918 H910 0.930 . S
C918 C917 1.362 . S
C918 C921 1.409 . S
C919 H911 0.930 . S
C919 C920 1.355 . S
C919 C921 1.415 . S
C920 C919 1.355 . S
C920 C922 1.419 . S
C921 C916 1.425 . S
C921 C918 1.409 . S
C921 C919 1.415 . S
C922 H912 0.930 . S
C922 C920 1.419 . S
C922 C923 1.362 . S
C923 H913 0.930 . S
C923 C916 1.409 . S
C923 C922 1.362 . S
H924 C930 0.930 . S
H925 C933 0.930 . S
H926 C934 0.930 . S
H927 C935 0.930 . S
H928 C938 0.930 . S
H929 C939 0.930 . S
C930 H924 0.930 . S
C930 C931 1.355 . S
C930 C932 1.415 . S
C931 C930 1.355 . S
C931 C933 1.419 . S
C932 C930 1.415 . S
C932 C937 1.425 . S
C932 C939 1.409 . S
C933 H925 0.930 . S
C933 C931 1.419 . S
C933 C934 1.362 . S
C934 H926 0.930 . S
C934 C933 1.362 . S
C934 C937 1.409 . S
C935 H927 0.930 . S
C935 C936 1.355 . S
C935 C937 1.415 . S
C936 C935 1.355 . S
C936 C938 1.419 . S
C937 C932 1.425 . S
C937 C934 1.409 . S
C937 C935 1.415 . S
C938 H928 0.930 . S
C938 C936 1.419 . S
C938 C939 1.362 . S
C939 H929 0.930 . S
C939 C932 1.409 . S
C939 C938 1.362 . S
H940 C946 0.930 . S
H941 C949 0.930 . S
H942 C950 0.930 . S
H943 C951 0.930 . S
H944 C954 0.930 . S
H945 C955 0.930 . S
C946 H940 0.930 . S
C946 C947 1.355 . S
C946 C948 1.415 . S
C947 C946 1.355 . S
C947 C949 1.419 . S
C948 C946 1.415 . S
C948 C953 1.425 . S
C948 C955 1.409 . S
C949 H941 0.930 . S
C949 C947 1.419 . S
C949 C950 1.362 . S
C950 H942 0.930 . S
C950 C949 1.362 . S
C950 C953 1.409 . S
C951 H943 0.930 . S
C951 C952 1.355 . S
C951 C953 1.415 . S
C952 C951 1.355 . S
C952 C954 1.419 . S
C953 C948 1.425 . S
C953 C950 1.409 . S
C953 C951 1.415 . S
C954 H944 0.930 . S
C954 C952 1.419 . S
C954 C955 1.362 . S
C955 H945 0.930 . S
C955 C948 1.409 . S
C955 C954 1.362 . S
H956 C962 0.930 . S
H957 C965 0.930 . S
H958 C966 0.930 . S
H959 C967 0.930 . S
H960 C970 0.930 . S
H961 C971 0.930 . S
C962 H956 0.930 . S
C962 C963 1.355 . S
C962 C964 1.415 . S
C963 C962 1.355 . S
C963 C965 1.419 . S
C964 C962 1.415 . S
C964 C969 1.425 . S
C964 C971 1.409 . S
C965 H957 0.930 . S
C965 C963 1.419 . S
C965 C966 1.362 . S
C966 H958 0.930 . S
C966 C965 1.362 . S
C966 C969 1.409 . S
C967 H959 0.930 . S
C967 C968 1.355 . S
C967 C969 1.415 . S
C968 C967 1.355 . S
C968 C970 1.419 . S
C969 C964 1.425 . S
C969 C966 1.409 . S
C969 C967 1.415 . S
C970 H960 0.930 . S
C970 C968 1.419 . S
C970 C971 1.362 . S
C971 H961 0.930 . S
C971 C964 1.409 . S
C971 C970 1.362 . S
H972 C978 0.930 . S
H973 C981 0.930 . S
H974 C982 0.930 . S
H975 C983 0.930 . S
H976 C986 0.930 . S
H977 C987 0.930 . S
C978 H972 0.930 . S
C978 C979 1.355 . S
C978 C980 1.415 . S
C979 C978 1.355 . S
C979 C981 1.419 . S
C980 C978 1.415 . S
C980 C985 1.425 . S
C980 C987 1.409 . S
C981 H973 0.930 . S
C981 C979 1.419 . S
C981 C982 1.362 . S
C982 H974 0.930 . S
C982 C981 1.362 . S
C982 C985 1.409 . S
C983 H975 0.930 . S
C983 C984 1.355 . S
C983 C985 1.415 . S
C984 C983 1.355 . S
C984 C986 1.419 . S
C985 C980 1.425 . S
C985 C982 1.409 . S
C985 C983 1.415 . S
C986 H976 0.930 . S
C986 C984 1.419 . S
C986 C987 1.362 . S
C987 H977 0.930 . S
C987 C980 1.409 . S
C987 C986 1.362 . S
H988 C994 0.930 . S
H989 C997 0.930 . S
H990 C998 0.930 . S
H991 C999 0.930 . S
H992 C1002 0.930 . S
H993 C1003 0.930 . S
C994 H988 0.930 . S
C994 C995 1.355 . S
C994 C996 1.415 . S
C995 C994 1.355 . S
C995 C997 1.419 . S
C996 C994 1.415 . S
C996 C1001 1.425 . S
C996 C1003 1.409 . S
C997 H989 0.930 . S
C997 C995 1.419 . S
C997 C998 1.362 . S
C998 H990 0.930 . S
C998 C997 1.362 . S
C998 C1001 1.409 . S
C999 H991 0.930 . S
C999 C1000 1.355 . S
C999 C1001 1.415 . S
C1000 C999 1.355 . S
C1000 C1002 1.419 . S
C1001 C996 1.425 . S
C1001 C998 1.409 . S
C1001 C999 1.415 . S
C1002 H992 0.930 . S
C1002 C1000 1.419 . S
C1002 C1003 1.362 . S
C1003 H993 0.930 . S
C1003 C996 1.409 . S
C1003 C1002 1.362 . S
H1004 C1010 0.930 . S
H1005 C1013 0.930 . S
H1006 C1014 0.930 . S
H1007 C1015 0.930 . S
H1008 C1018 0.930 . S
H1009 C1019 0.930 . S
C1010 H1004 0.930 . S
C1010 C1011 1.355 . S
C1010 C1012 1.415 . S
C1011 C1010 1.355 . S
C1011 C1013 1.419 . S
C1012 C1010 1.415 . S
C1012 C1017 1.425 . S
C1012 C1019 1.409 . S
C1013 H1005 0.930 . S
C1013 C1011 1.419 . S
C1013 C1014 1.362 . S
C1014 H1006 0.930 . S
C1014 C1013 1.362 . S
C1014 C1017 1.409 . S
C1015 H1007 0.930 . S
C1015 C1016 1.355 . S
C1015 C1017 1.415 . S
C1016 C1015 1.355 . S
C1016 C1018 1.419 . S
C1017 C1012 1.425 . S
C1017 C1014 1.409 . S
C1017 C1015 1.415 . S
C1018 H1008 0.930 . S
C1018 C1016 1.419 . S
C1018 C1019 1.362 . S
C1019 H1009 0.930 . S
C1019 C1012 1.409 . S
C1019 C1018 1.362 . S
C355 C8 0.877 . S
C360 C211 0.780 . S
C371 C37 0.907 . S
C376 C240 0.814 . S
C387 C269 0.771 . S
C392 C66 0.868 . S
C403 C95 0.724 . S
C408 C298 0.800 . S
C419 C124 0.824 . S
C424 C327 0.737 . S
C435 C182 0.908 . S
C440 C153 0.815 . S
C451 C295 1.593 . S
C456 C92 1.594 . S
C467 C121 1.598 . S
C472 C324 1.605 . S
C483 C150 1.630 . S
C488 C179 1.620 . S
C499 C5 1.632 . S
C504 C208 1.622 . S
C515 C237 1.598 . S
C520 C34 1.605 . S
C531 C266 1.654 . S
C536 C63 1.655 . S
C547 C108 0.298 . S
C552 C21 0.310 . S
C563 C50 0.297 . S
C568 C137 0.291 . S
C579 C166 0.297 . S
C584 C79 0.291 . S
C595 C195 0.331 . S
C600 C282 0.315 . S
C611 C224 0.291 . S
C616 C311 0.297 . S
C627 C340 0.555 . S
C632 C253 0.559 . S
C643 C10 2.809 . S
C648 C300 2.788 . S
C659 C39 2.777 . S
C664 C329 2.758 . S
C675 C68 2.812 . S
C680 C184 2.798 . S
C691 C213 2.760 . S
C696 C97 2.782 . S
C707 C242 2.788 . S
C712 C126 2.763 . S
C723 C155 2.759 . S
C728 C271 2.763 . S
C739 C206 0.647 . S
C744 C90 0.642 . S
C755 C235 0.643 . S
C760 C119 0.648 . S
C771 C264 0.865 . S
C776 C148 0.853 . S
C787 C293 0.885 . S
C792 C3 0.889 . S
C803 C322 0.737 . S
C808 C32 0.757 . S
C819 C61 0.885 . S
C824 C177 0.888 . S
C835 C15 2.304 . S
C840 C247 2.314 . S
C851 C276 2.312 . S
C856 C44 2.307 . S
C867 C305 2.311 . S
C872 C73 2.306 . S
C883 C102 2.314 . S
C888 C334 2.304 . S
C899 C189 2.308 . S
C904 C131 2.311 . S
C915 C160 2.308 . S
C920 C218 2.311 . S
C931 C332 2.978 . S
C936 C100 2.943 1_556 S
C947 C187 2.967 . S
C952 C129 2.946 1_556 S
C963 C216 2.945 . S
C968 C158 2.970 1_556 S
C979 C245 2.972 . S
C984 C13 2.944 1_556 S
C995 C274 2.952 . S
C1000 C42 2.959 1_556 S
C1011 C303 2.948 . S
C1016 C71 2.984 1_556 S
