# Generated by pormake.
# Topology umf, (4)-cn, num edge types: 1
# Building blocks:
#     Node 0, Type 0, BuildingBlock: GALJAG_clean_sbu_0, # of connection points: 4
#     Node 1, Type 0, BuildingBlock: GALJAG_clean_sbu_0, # of connection points: 4
#     Node 2, Type 0, BuildingBlock: GALJAG_clean_sbu_0, # of connection points: 4
#     Node 3, Type 0, BuildingBlock: GALJAG_clean_sbu_0, # of connection points: 4
#     Node 4, Type 0, BuildingBlock: GALJAG_clean_sbu_0, # of connection points: 4
#     Node 5, Type 0, BuildingBlock: GALJAG_clean_sbu_0, # of connection points: 4
#     Node 6, Type 0, BuildingBlock: GALJAG_clean_sbu_0, # of connection points: 4
#     Node 7, Type 0, BuildingBlock: GALJAG_clean_sbu_0, # of connection points: 4
#     Edge 8, Type (0, 0), BuildingBlock: TEMPAE_clean_linker_10, # of connection points: 2
#     Edge 9, Type (0, 0), BuildingBlock: TEMPAE_clean_linker_10, # of connection points: 2
#     Edge 10, Type (0, 0), BuildingBlock: TEMPAE_clean_linker_10, # of connection points: 2
#     Edge 11, Type (0, 0), BuildingBlock: TEMPAE_clean_linker_10, # of connection points: 2
#     Edge 12, Type (0, 0), BuildingBlock: TEMPAE_clean_linker_10, # of connection points: 2
#     Edge 13, Type (0, 0), BuildingBlock: TEMPAE_clean_linker_10, # of connection points: 2
#     Edge 14, Type (0, 0), BuildingBlock: TEMPAE_clean_linker_10, # of connection points: 2
#     Edge 15, Type (0, 0), BuildingBlock: TEMPAE_clean_linker_10, # of connection points: 2
#     Edge 16, Type (0, 0), BuildingBlock: TEMPAE_clean_linker_10, # of connection points: 2
#     Edge 17, Type (0, 0), BuildingBlock: TEMPAE_clean_linker_10, # of connection points: 2
#     Edge 18, Type (0, 0), BuildingBlock: TEMPAE_clean_linker_10, # of connection points: 2
#     Edge 19, Type (0, 0), BuildingBlock: TEMPAE_clean_linker_10, # of connection points: 2
#     Edge 20, Type (0, 0), BuildingBlock: TEMPAE_clean_linker_10, # of connection points: 2
#     Edge 21, Type (0, 0), BuildingBlock: TEMPAE_clean_linker_10, # of connection points: 2
#     Edge 22, Type (0, 0), BuildingBlock: TEMPAE_clean_linker_10, # of connection points: 2
#     Edge 23, Type (0, 0), BuildingBlock: TEMPAE_clean_linker_10, # of connection points: 2
# Relax obj value: 0.108
# Max RMSD: 0.235
# Mean RMSD: 0.235
data_MOF--net-umf--node1-GALJAG_clean_sbu_0--edge1-TEMPAE_clean_linker_10
_symmetry_space_group_name_H-M    P1
_symmetry_Int_Tables_number       1
_symmetry_cell_setting            triclinic
loop_
_symmetry_equiv_pos_as_xyz
'x, y, z'
_cell_length_a     28.819487
_cell_length_b     28.944817
_cell_length_c     53.356183
_cell_angle_alpha  90.034184
_cell_angle_beta   89.971057
_cell_angle_gamma 89.97347
loop_
_atom_site_label
_atom_site_type_symbol
_atom_site_fract_x
_atom_site_fract_y
_atom_site_fract_z
_atom_type_partial_charge
In0 In 0.0806 0.25449 0.14701 0.0
O1 O 0.10064 0.24915 0.10544 0.0
O2 O 0.03001 0.26326 0.11539 0.0
C3 C 0.14964 0.24909 0.1802 0.0
C4 C 0.0632 0.34327 0.15503 0.0
C5 C 0.04443 0.17131 0.15609 0.0
O6 O 0.15714 0.242 0.15706 0.0
O7 O 0.10835 0.25867 0.18604 0.0
O8 O 0.02492 0.20775 0.16408 0.0
O9 O 0.08147 0.17752 0.14392 0.0
C10 C 0.05934 0.25673 0.09814 0.0
O11 O 0.03686 0.31174 0.16347 0.0
O12 O 0.09805 0.32958 0.14258 0.0
In13 In 0.74174 0.06388 0.64771 0.0
O14 O 0.74343 0.08379 0.60607 0.0
O15 O 0.76133 0.01476 0.61693 0.0
C16 C 0.72692 0.13109 0.68118 0.0
C17 C 0.65584 0.03073 0.64844 0.0
C18 C 0.82687 0.04358 0.66395 0.0
O19 O 0.74229 0.14046 0.65942 0.0
O20 O 0.71879 0.08893 0.68523 0.0
O21 O 0.79245 0.01773 0.66887 0.0
O22 O 0.81774 0.07919 0.65113 0.0
C23 C 0.75571 0.04342 0.59934 0.0
O24 O 0.68883 0.01 0.65953 0.0
O25 O 0.66684 0.06741 0.637 0.0
In26 In 0.92079 0.75564 0.1483 0.0
O27 O 0.89969 0.75249 0.10686 0.0
O28 O 0.97012 0.76827 0.11657 0.0
C29 C 0.85586 0.74955 0.18368 0.0
C30 C 0.95672 0.67175 0.15415 0.0
C31 C 0.93745 0.84408 0.15815 0.0
O32 O 0.84464 0.74741 0.16066 0.0
O33 O 0.89862 0.75382 0.18817 0.0
O34 O 0.96479 0.8123 0.16532 0.0
O35 O 0.90225 0.83085 0.14587 0.0
C36 C 0.94057 0.76193 0.09942 0.0
O37 O 0.97718 0.70732 0.16258 0.0
O38 O 0.91857 0.67907 0.14316 0.0
In39 In 0.23462 0.90167 0.64794 0.0
O40 O 0.28983 0.95206 0.66134 0.0
O41 O 0.30968 0.8952 0.63787 0.0
C42 C 0.15117 0.92905 0.66395 0.0
C43 C 0.22342 0.92262 0.59935 0.0
C44 C 0.24186 0.82931 0.67897 0.0
O45 O 0.18756 0.95153 0.66953 0.0
O46 O 0.15768 0.89325 0.65085 0.0
O47 O 0.22433 0.82491 0.65729 0.0
O48 O 0.25603 0.86927 0.68437 0.0
C49 C 0.3221 0.93061 0.65003 0.0
O50 O 0.23438 0.88204 0.60622 0.0
O51 O 0.21784 0.9514 0.61687 0.0
In52 In 0.07024 0.74356 0.87135 0.0
O53 O 0.0902 0.73835 0.91294 0.0
O54 O 0.02453 0.76737 0.90309 0.0
C55 C 0.14314 0.72753 0.84127 0.0
C56 C 0.02799 0.66219 0.86708 0.0
C57 C 0.05417 0.82927 0.8548 0.0
O58 O 0.14829 0.74564 0.86274 0.0
O59 O 0.10213 0.71641 0.83578 0.0
O60 O 0.0249 0.7971 0.85146 0.0
O61 O 0.09071 0.8176 0.86619 0.0
C62 C 0.0521 0.75568 0.92033 0.0
O63 O 0.01389 0.69726 0.85501 0.0
O64 O 0.06268 0.66885 0.88112 0.0
In65 In 0.23576 0.06068 0.37312 0.0
O66 O 0.23503 0.08081 0.41477 0.0
O67 O 0.21882 0.01127 0.40429 0.0
C68 C 0.24452 0.13182 0.34144 0.0
C69 C 0.32318 0.03139 0.37133 0.0
C70 C 0.1519 0.03441 0.35729 0.0
O71 O 0.2272 0.13739 0.36312 0.0
O72 O 0.25762 0.09132 0.33637 0.0
O73 O 0.18795 0.01117 0.35189 0.0
O74 O 0.15893 0.07043 0.37013 0.0
C75 C 0.22412 0.04027 0.42174 0.0
O76 O 0.29089 0.00976 0.36015 0.0
O77 O 0.31077 0.06707 0.38329 0.0
In78 In 0.92498 0.24189 0.87056 0.0
O79 O 0.90659 0.2348 0.91221 0.0
O80 O 0.97428 0.25882 0.90183 0.0
C81 C 0.85705 0.22686 0.83768 0.0
C82 C 0.93674 0.33071 0.85944 0.0
C83 C 0.96471 0.15985 0.86352 0.0
O84 O 0.8475 0.23553 0.86047 0.0
O85 O 0.8996 0.22596 0.83219 0.0
O86 O 0.98011 0.19583 0.85275 0.0
O87 O 0.93044 0.16597 0.87797 0.0
C88 C 0.94646 0.24843 0.91925 0.0
O89 O 0.96695 0.30055 0.8537 0.0
O90 O 0.90106 0.31555 0.87053 0.0
In91 In 0.74284 0.89744 0.37475 0.0
O92 O 0.74389 0.8787 0.41656 0.0
O93 O 0.762 0.94736 0.40525 0.0
C94 C 0.7291 0.82765 0.34262 0.0
C95 C 0.65687 0.93067 0.37335 0.0
C96 C 0.82765 0.91895 0.3583 0.0
O97 O 0.74556 0.82019 0.36434 0.0
O98 O 0.71939 0.86924 0.33793 0.0
O99 O 0.79269 0.94381 0.35301 0.0
O100 O 0.81918 0.88364 0.37147 0.0
C101 C 0.75609 0.9192 0.42304 0.0
O102 O 0.68992 0.95067 0.36194 0.0
O103 O 0.66782 0.89465 0.38541 0.0
C104 C 0.01881 0.40705 0.17534 0.0
C105 C 0.05307 0.3927 0.15843 0.0
C106 C 0.00655 0.45378 0.17726 0.0
C107 C 0.02861 0.48651 0.16157 0.0
C108 C 0.06451 0.47239 0.14517 0.0
C109 C 0.07655 0.42559 0.14393 0.0
C110 C 0.96856 0.46779 0.19522 0.0
C111 C 0.08833 0.50622 0.12788 0.0
C112 C 0.95676 0.58925 0.14177 0.0
C113 C 0.97574 0.62476 0.15637 0.0
C114 C 0.97389 0.54419 0.14329 0.0
C115 C 0.01048 0.53428 0.16011 0.0
C116 C 0.02968 0.56988 0.17506 0.0
C117 C 0.01226 0.61501 0.17286 0.0
C118 C 0.95299 0.50724 0.12675 0.0
C119 C 0.06838 0.56022 0.19338 0.0
H120 H 0.00098 0.38167 0.18676 0.0
H121 H 0.10315 0.41455 0.13086 0.0
H122 H 0.97943 0.49825 0.2064 0.0
H123 H 0.93717 0.47788 0.1845 0.0
H124 H 0.95905 0.43938 0.20823 0.0
H125 H 0.11842 0.49051 0.11803 0.0
H126 H 0.06325 0.51865 0.11362 0.0
H127 H 0.10054 0.53683 0.1385 0.0
H128 H 0.92869 0.59677 0.12888 0.0
H129 H 0.02681 0.64248 0.18421 0.0
H130 H 0.93822 0.47921 0.13845 0.0
H131 H 0.98031 0.49161 0.11478 0.0
H132 H 0.92514 0.52094 0.11443 0.0
H133 H 0.05732 0.53332 0.20692 0.0
H134 H 0.07888 0.59159 0.20395 0.0
H135 H 0.09911 0.54655 0.18328 0.0
C136 C 0.38564 0.98035 0.66702 0.0
C137 C 0.37108 0.94506 0.65089 0.0
C138 C 0.43241 -0.00624 0.66786 0.0
C139 C 0.46495 0.97156 0.65202 0.0
C140 C 0.45037 0.93582 0.63576 0.0
C141 C 0.40362 0.92288 0.63547 0.0
C142 C 0.44695 0.0319 0.6855 0.0
C143 C 0.48401 0.91175 0.61837 0.0
C144 C 0.5741 0.03591 0.63399 0.0
C145 C 0.60739 0.01466 0.64928 0.0
C146 C 0.52755 0.02235 0.63484 0.0
C147 C 0.51395 0.98694 0.65154 0.0
C148 C 0.54734 0.96539 0.6671 0.0
C149 C 0.59388 0.9794 0.66569 0.0
C150 C 0.49299 0.0457 0.61772 0.0
C151 C 0.53387 0.92762 0.68519 0.0
H152 H 0.36056 -0.00262 0.67904 0.0
H153 H 0.39247 0.89559 0.62292 0.0
H154 H 0.47532 0.01966 0.69788 0.0
H155 H 0.46066 0.06156 0.67462 0.0
H156 H 0.41777 0.04425 0.69736 0.0
H157 H 0.46719 0.88388 0.60731 0.0
H158 H 0.49932 0.93715 0.60518 0.0
H159 H 0.51299 0.89652 0.62927 0.0
H160 H 0.58446 0.06316 0.62123 0.0
H161 H 0.61955 0.96313 0.67763 0.0
H162 H 0.46477 0.0616 0.62894 0.0
H163 H 0.47676 0.01975 0.60517 0.0
H164 H 0.50923 0.07294 0.60598 0.0
H165 H 0.50652 0.94029 0.69813 0.0
H166 H 0.56381 0.91528 0.69647 0.0
H167 H 0.51915 0.89787 0.67477 0.0
C168 C 0.91166 0.41226 0.86523 0.0
C169 C 0.94379 0.3806 0.85546 0.0
C170 C 0.92048 0.4598 0.86467 0.0
C171 C 0.96225 0.47595 0.8539 0.0
C172 C -0.00665 0.44438 0.8425 0.0
C173 C 0.98384 0.39691 0.84353 0.0
C174 C 0.88662 0.49235 0.87716 0.0
C175 C 0.03802 0.46049 0.83058 0.0
C176 C 0.98022 0.60457 0.84353 0.0
C177 C 0.0076 0.61587 0.86434 0.0
C178 C 0.96465 0.55908 0.83987 0.0
C179 C 0.97641 0.52467 0.85762 0.0
C180 C 0.00272 0.53644 0.87907 0.0
C181 C 0.01819 0.58185 0.88208 0.0
C182 C 0.93681 0.54755 0.81675 0.0
C183 C 0.01531 0.50087 0.89867 0.0
H184 H 0.88045 0.39982 0.87435 0.0
H185 H 0.00853 0.37253 0.83575 0.0
H186 H 0.90198 0.50558 0.89483 0.0
H187 H 0.87952 0.5226 0.865 0.0
H188 H 0.85319 0.47516 0.8817 0.0
H189 H 0.05527 0.43258 0.81972 0.0
H190 H 0.03145 0.49019 0.81794 0.0
H191 H 0.06225 0.47242 0.84539 0.0
H192 H 0.97222 0.63089 0.82974 0.0
H193 H 0.03909 0.59063 0.89829 0.0
H194 H 0.90385 0.53034 0.82205 0.0
H195 H 0.95654 0.52291 0.80489 0.0
H196 H 0.92862 0.57869 0.80542 0.0
H197 H 0.98349 0.48401 0.90595 0.0
H198 H 0.03452 0.51617 0.9147 0.0
H199 H 0.03718 0.4735 0.89014 0.0
C200 C 0.38668 0.98117 0.3546 0.0
C201 C 0.37218 0.01695 0.37046 0.0
C202 C 0.43346 0.96778 0.35374 0.0
C203 C 0.46612 0.99051 0.36926 0.0
C204 C 0.45163 0.0268 0.3852 0.0
C205 C 0.40484 0.03969 0.38553 0.0
C206 C 0.44789 0.92905 0.33644 0.0
C207 C 0.48539 0.05148 0.40223 0.0
C208 C 0.57509 0.92636 0.38786 0.0
C209 C 0.60844 0.94685 0.37231 0.0
C210 C 0.52859 0.94011 0.38692 0.0
C211 C 0.51509 0.97496 0.36985 0.0
C212 C 0.54854 -0.00425 0.35402 0.0
C213 C 0.59504 0.98156 0.35552 0.0
C214 C 0.49398 0.91757 0.40433 0.0
C215 C 0.53518 0.03293 0.33554 0.0
H216 H 0.36152 0.96373 0.34284 0.0
H217 H 0.39377 0.06739 0.39785 0.0
H218 H 0.47628 0.9408 0.32392 0.0
H219 H 0.46154 0.89969 0.34758 0.0
H220 H 0.41867 0.91643 0.32472 0.0
H221 H 0.46868 0.07987 0.41297 0.0
H222 H 0.50067 0.02659 0.41571 0.0
H223 H 0.51438 0.06614 0.3911 0.0
H224 H 0.58536 0.89956 0.40092 0.0
H225 H 0.62075 -0.00273 0.34339 0.0
H226 H 0.46567 0.9014 0.39332 0.0
H227 H 0.4779 0.94406 0.41661 0.0
H228 H 0.51014 0.89068 0.41634 0.0
H229 H 0.50775 0.01993 0.32278 0.0
H230 H 0.56515 0.0447 0.3241 0.0
H231 H 0.52061 0.06312 0.34566 0.0
C232 C 0.94206 0.22139 0.9638 0.0
C233 C 0.96098 0.25104 0.94577 0.0
C234 C 0.95896 0.22134 0.98855 0.0
C235 C -0.00537 0.25259 0.99547 0.0
C236 C 0.01293 0.28337 0.97739 0.0
C237 C -0.00367 0.28176 0.9527 0.0
C238 C 0.93923 0.18737 1.00717 0.0
C239 C 0.04995 0.31814 0.98414 0.0
C240 C 0.0059 0.28281 0.06446 0.0
C241 C 0.04506 0.25723 0.07156 0.0
C242 C 0.98955 0.28205 0.03971 0.0
C243 C 0.01215 0.25399 0.02174 0.0
C244 C 0.05179 0.228 0.0288 0.0
C245 C 0.0682 0.23045 0.05361 0.0
C246 C 0.94807 0.31133 0.03283 0.0
C247 C 0.07626 0.19697 0.01028 0.0
H248 H 0.91512 0.19726 0.95837 0.0
H249 H 0.01089 0.30485 0.93878 0.0
H250 H 0.9675 0.16561 0.01492 0.0
H251 H 0.92324 0.20613 0.02311 0.0
H252 H 0.91263 0.16447 0.99865 0.0
H253 H 0.05954 0.34051 0.96804 0.0
H254 H 0.03768 0.34043 0.99972 0.0
H255 H 0.08156 0.30004 0.99077 0.0
H256 H 0.98806 0.30372 0.07831 0.0
H257 H 0.09818 0.21026 0.05917 0.0
H258 H 0.91928 0.28896 0.02629 0.0
H259 H 0.95714 0.33482 0.01714 0.0
H260 H 0.93545 0.33246 0.04883 0.0
H261 H 0.05146 0.17126 1.00263 0.0
H262 H 0.10593 0.17826 0.01886 0.0
H263 H 0.08932 0.2176 0.99426 0.0
C264 C 0.73318 0.04838 0.55411 0.0
C265 C 0.7607 0.02884 0.57295 0.0
C266 C 0.73349 0.0301 0.52967 0.0
C267 C 0.76294 -0.00774 0.52388 0.0
C268 C 0.79222 0.97382 0.54266 0.0
C269 C 0.79025 -0.00809 0.56703 0.0
C270 C 0.70122 0.05023 0.51026 0.0
C271 C 0.82514 0.9345 0.53712 0.0
C272 C 0.73337 0.915 0.46828 0.0
C273 C 0.76077 0.93441 0.44935 0.0
C274 C 0.73359 0.93359 0.49265 0.0
C275 C 0.76284 0.97163 0.49828 0.0
C276 C 0.79191 0.99005 0.47939 0.0
C277 C 0.79002 0.97164 0.45509 0.0
C278 C 0.70153 0.91347 0.51218 0.0
C279 C 0.8246 0.0296 0.48476 0.0
H280 H 0.70993 0.07657 0.55876 0.0
H281 H 0.8117 0.97687 0.58159 0.0
H282 H 0.72129 0.06226 0.49377 0.0
H283 H 0.67692 0.02316 0.50357 0.0
H284 H 0.68067 0.07969 0.51769 0.0
H285 H 0.84764 0.92608 0.55339 0.0
H286 H 0.80519 0.90315 0.53195 0.0
H287 H 0.84756 0.94334 0.52091 0.0
H288 H 0.71034 0.88658 0.46377 0.0
H289 H 0.81138 0.98659 0.44045 0.0
H290 H 0.67734 0.94056 0.51899 0.0
H291 H 0.72181 0.90136 0.52857 0.0
H292 H 0.68087 0.88406 0.5048 0.0
H293 H 0.8045 0.06081 0.49005 0.0
H294 H 0.84678 0.03818 0.46838 0.0
H295 H 0.84734 0.02089 0.50086 0.0
C296 C 0.93068 0.73897 0.05441 0.0
C297 C 0.95435 0.76424 0.07277 0.0
C298 C 0.94694 0.73774 0.02954 0.0
C299 C 0.98709 0.76328 0.02287 0.0
C300 C 0.01011 0.79004 0.04125 0.0
C301 C -0.00622 0.78975 0.066 0.0
C302 C 0.92188 0.70825 0.01054 0.0
C303 C 0.05223 0.81873 0.03481 0.0
C304 C 0.05659 0.72934 0.96495 0.0
C305 C 0.0386 0.75965 0.94696 0.0
C306 C 0.03983 0.72982 0.98971 0.0
C307 C 0.00515 0.76214 0.9967 0.0
C308 C 0.98805 0.79379 0.97873 0.0
C309 C 0.00456 0.79176 0.95402 0.0
C310 C 0.05842 0.69506 1.00825 0.0
C311 C 0.9521 0.82964 0.98556 0.0
H312 H 0.90046 0.7189 0.05967 0.0
H313 H 0.01202 0.80955 0.08016 0.0
H314 H 0.91001 0.72986 0.99462 0.0
H315 H 0.94597 0.68192 1.00282 0.0
H316 H 0.89134 0.69034 0.01872 0.0
H317 H 0.06485 0.83923 0.05105 0.0
H318 H 0.08077 0.79596 0.02831 0.0
H319 H 0.04399 0.84275 0.01924 0.0
H320 H 0.08252 0.70415 0.95944 0.0
H321 H 0.99069 0.81534 0.94012 0.0
H322 H 0.02955 0.67361 0.01559 0.0
H323 H 0.0742 0.71314 0.02448 0.0
H324 H 0.0849 0.6719 0.9998 0.0
H325 H 0.91968 0.81243 0.99172 0.0
H326 H 0.9438 0.85291 0.96962 0.0
H327 H 0.96462 0.85093 1.00148 0.0
C328 C 0.2472 0.04658 0.46683 0.0
C329 C 0.21981 0.02613 0.44822 0.0
C330 C 0.24711 0.0292 0.49145 0.0
C331 C 0.21796 -0.00859 0.49765 0.0
C332 C 0.18891 0.97194 0.47906 0.0
C333 C 0.19073 0.98909 0.4545 0.0
C334 C 0.27922 0.05032 0.51064 0.0
C335 C 0.15626 0.93265 0.48504 0.0
C336 C 0.2471 0.9168 0.55432 0.0
C337 C 0.21941 0.93701 0.5729 0.0
C338 C 0.24721 0.93433 0.52973 0.0
C339 C 0.21793 0.97204 0.52353 0.0
C340 C 0.18863 -0.00868 0.54208 0.0
C341 C 0.19026 0.97402 0.56661 0.0
C342 C 0.2796 0.91342 0.51059 0.0
C343 C 0.15585 0.03051 0.53608 0.0
H344 H 0.27009 0.07486 0.4619 0.0
H345 H 0.16938 0.97337 0.44011 0.0
H346 H 0.25898 0.06326 0.52688 0.0
H347 H 0.30344 0.0236 0.51781 0.0
H348 H 0.29985 0.07935 0.50282 0.0
H349 H 0.13406 0.92322 0.46881 0.0
H350 H 0.17639 0.90174 0.49076 0.0
H351 H 0.13354 0.94218 0.50103 0.0
H352 H 0.27004 0.88855 0.55926 0.0
H353 H 0.16868 0.98958 0.58099 0.0
H354 H 0.30366 0.9403 0.50345 0.0
H355 H 0.25956 0.90033 0.49434 0.0
H356 H 0.3004 0.88454 0.51845 0.0
H357 H 0.17587 0.06149 0.53038 0.0
H358 H 0.13353 0.03986 0.55229 0.0
H359 H 0.13324 0.02091 0.52007 0.0
C360 C 0.19106 0.1939 0.20705 0.0
C361 C 0.18344 0.23976 0.20005 0.0
C362 C 0.20885 0.18322 0.23082 0.0
C363 C 0.22036 0.21951 0.24759 0.0
C364 C 0.21702 0.26596 0.2395 0.0
C365 C 0.19743 0.27559 0.21597 0.0
C366 C 0.21101 0.13319 0.23878 0.0
C367 C 0.23085 0.30554 0.25631 0.0
C368 C 0.19927 0.18567 0.31515 0.0
C369 C 0.24225 0.16659 0.32145 0.0
C370 C 0.19232 0.20592 0.29155 0.0
C371 C 0.22983 0.20844 0.27435 0.0
C372 C 0.27456 0.19389 0.28189 0.0
C373 C 0.28 0.172 0.30518 0.0
C374 C 0.14382 0.22019 0.28414 0.0
C375 C 0.31588 0.1981 0.26468 0.0
H376 H 0.17904 0.16637 0.19488 0.0
H377 H 0.19068 0.31109 0.21059 0.0
H378 H 0.24589 0.12474 0.24622 0.0
H379 H 0.18559 0.12702 0.25405 0.0
H380 H 0.20313 0.10918 0.22309 0.0
H381 H 0.23654 0.33779 0.24546 0.0
H382 H 0.20292 0.31209 0.27017 0.0
H383 H 0.26297 0.29719 0.26686 0.0
H384 H 0.16998 0.18066 0.32763 0.0
H385 H 0.31324 0.15697 0.31012 0.0
H386 H 0.1308 0.19667 0.26928 0.0
H387 H 0.14385 0.25565 0.27633 0.0
H388 H 0.11929 0.21903 0.3002 0.0
H389 H 0.31485 0.17007 0.25051 0.0
H390 H 0.34909 0.19526 0.27514 0.0
H391 H 0.31526 0.23153 0.25451 0.0
C392 C 0.78676 0.24845 0.81279 0.0
C393 C 0.82247 0.2172 0.8182 0.0
C394 C 0.76064 0.24394 0.79059 0.0
C395 C 0.77058 0.20716 0.77385 0.0
C396 C 0.80494 0.17414 0.78022 0.0
C397 C 0.83067 0.17991 0.80217 0.0
C398 C 0.72462 0.27998 0.78444 0.0
C399 C 0.81612 0.13366 0.76331 0.0
C400 C 0.69879 0.15344 0.7233 0.0
C401 C 0.72591 0.16408 0.70224 0.0
C402 C 0.70886 0.17261 0.74678 0.0
C403 C 0.74709 0.20287 0.74914 0.0
C404 C 0.76997 0.21894 0.72727 0.0
C405 C 0.75908 0.19922 0.70392 0.0
C406 C 0.68274 0.15541 0.76945 0.0
C407 C 0.81001 0.25233 0.72893 0.0
H408 H 0.78118 0.27781 0.82505 0.0
H409 H 0.85855 0.15595 0.80644 0.0
H410 H 0.73949 0.30494 0.77086 0.0
H411 H 0.69358 0.26423 0.77561 0.0
H412 H 0.71364 0.29942 0.8014 0.0
H413 H 0.84212 0.10995 0.77173 0.0
H414 H 0.78421 0.11361 0.75923 0.0
H415 H 0.83003 0.14639 0.74519 0.0
H416 H 0.67243 0.12682 0.72191 0.0
H417 H 0.77986 0.2078 0.68762 0.0
H418 H 0.67757 0.18348 0.78333 0.0
H419 H 0.70321 0.1277 0.77864 0.0
H420 H 0.64837 0.14095 0.76421 0.0
H421 H 0.80269 0.27989 0.74284 0.0
H422 H 0.81759 0.26853 0.71051 0.0
H423 H 0.84151 0.23354 0.73521 0.0
C424 C 0.7651 0.76159 0.31986 0.0
C425 C 0.72885 0.79349 0.32212 0.0
C426 C 0.7762 0.74259 0.29635 0.0
C427 C 0.75034 0.75606 0.27495 0.0
C428 C 0.70927 0.78216 0.2781 0.0
C429 C 0.69913 0.80084 0.3017 0.0
C430 C 0.81939 0.71352 0.29389 0.0
C431 C 0.67984 0.79616 0.25599 0.0
C432 C 0.82724 0.79045 0.22077 0.0
C433 C 0.82251 0.75311 0.20438 0.0
C434 C 0.80265 0.79219 0.2433 0.0
C435 C 0.77297 0.75508 0.24987 0.0
C436 C 0.76662 0.71788 0.23289 0.0
C437 C 0.79157 0.71738 0.21013 0.0
C438 C 0.80994 0.83318 0.26046 0.0
C439 C 0.73564 0.67757 0.23921 0.0
H440 H 0.78793 0.75556 0.33568 0.0
H441 H 0.67048 0.82491 0.30358 0.0
H442 H 0.81424 0.68547 0.27999 0.0
H443 H 0.84839 0.73552 0.28719 0.0
H444 H 0.82962 0.69805 0.31212 0.0
H445 H 0.64441 0.80664 0.26195 0.0
H446 H 0.69631 0.82601 0.24643 0.0
H447 H 0.67703 0.76762 0.2422 0.0
H448 H 0.85145 0.8179 0.2162 0.0
H449 H 0.78873 0.6881 0.19755 0.0
H450 H 0.82587 0.82158 0.27831 0.0
H451 H 0.77615 0.84951 0.26506 0.0
H452 H 0.8328 0.85984 0.252 0.0
H453 H 0.75445 0.65387 0.252 0.0
H454 H 0.72569 0.65783 0.22218 0.0
H455 H 0.70369 0.68911 0.24899 0.0
C456 C 0.19285 0.782 0.70666 0.0
C457 C 0.23734 0.79457 0.69882 0.0
C458 C 0.1857 0.76289 0.73051 0.0
C459 C 0.22434 0.75454 0.74636 0.0
C460 C 0.26979 0.76232 0.73722 0.0
C461 C 0.2757 0.78359 0.71378 0.0
C462 C 0.13652 0.75623 0.73963 0.0
C463 C 0.31198 0.75145 0.75287 0.0
C464 C 0.19435 0.77421 0.81452 0.0
C465 C 0.17807 0.7305 0.82132 0.0
C466 C 0.21254 0.78202 0.79051 0.0
C467 C 0.21627 0.74465 0.7734 0.0
C468 C 0.20522 0.69938 0.78144 0.0
C469 C 0.18487 0.69301 0.80512 0.0
C470 C 0.22279 0.83109 0.78262 0.0
C471 C 0.21133 0.65823 0.76439 0.0
H472 H 0.16323 0.79148 0.69522 0.0
H473 H 0.31013 0.79377 0.7077 0.0
H474 H 0.13166 0.72068 0.74685 0.0
H475 H 0.12944 0.78043 0.75533 0.0
H476 H 0.11054 0.7625 0.72463 0.0
H477 H 0.3435 0.74773 0.74103 0.0
H478 H 0.31817 0.77992 0.76637 0.0
H479 H 0.30688 0.71918 0.76376 0.0
H480 H 0.18813 0.80327 0.82692 0.0
H481 H 0.17188 0.65923 0.81039 0.0
H482 H 0.19767 0.8419 0.76798 0.0
H483 H 0.25799 0.83357 0.77438 0.0
H484 H 0.22041 0.85577 0.79853 0.0
H485 H 0.1814 0.6559 0.7514 0.0
H486 H 0.2131 0.62551 0.77523 0.0
H487 H 0.2433 0.66164 0.75293 0.0
C488 C 0.04412 0.08783 0.14592 0.0
C489 C 0.0255 0.12453 0.1598 0.0
C490 C 0.02675 0.04303 0.14841 0.0
C491 C 0.99022 0.03451 0.1655 0.0
C492 C 0.97171 0.0712 0.17997 0.0
C493 C 0.98938 0.11609 0.17678 0.0
C494 C 0.04706 0.00495 0.13238 0.0
C495 C 0.93322 0.06303 0.19863 0.0
C496 C 0.92319 0.92695 0.14867 0.0
C497 C 0.94685 0.8934 0.16263 0.0
C498 C 0.93501 0.97373 0.1506 0.0
C499 C 0.97081 0.9872 0.16721 0.0
C500 C 0.99253 0.95383 0.18265 0.0
C501 C 0.98061 0.9071 0.17997 0.0
C502 C 0.91149 0.00817 0.13355 0.0
C503 C 0.03017 0.96709 0.20095 0.0
H504 H 0.07198 0.09421 0.13271 0.0
H505 H 0.97515 0.14443 0.18762 0.0
H506 H 0.06107 0.97705 0.14444 0.0
H507 H 0.01954 0.98951 0.12049 0.0
H508 H 0.07536 0.0175 0.11999 0.0
H509 H 0.92447 0.09471 0.20941 0.0
H510 H 0.90161 0.05099 0.18874 0.0
H511 H 0.94336 0.03542 0.21197 0.0
H512 H 0.89687 0.91645 0.13532 0.0
H513 H -0.00156 0.88123 0.19106 0.0
H514 H 0.93653 0.02012 0.11914 0.0
H515 H 0.90009 0.03897 0.14428 0.0
H516 H 0.88091 -0.00689 0.12386 0.0
H517 H 0.06236 0.97559 0.19052 0.0
H518 H 0.03804 0.93872 0.21431 0.0
H519 H 0.01998 -0.00173 0.21173 0.0
C520 C 0.06622 0.92569 0.6571 0.0
C521 C 0.10383 0.94486 0.67009 0.0
C522 C 0.02125 0.94277 0.66033 0.0
C523 C 0.01339 0.97927 0.67747 0.0
C524 C 0.05075 -0.00301 0.69181 0.0
C525 C 0.09586 0.97999 0.68767 0.0
C526 C 0.98261 0.92338 0.64432 0.0
C527 C 0.04337 0.03489 0.71082 0.0
C528 C 0.91172 0.05284 0.65781 0.0
C529 C 0.87505 0.03146 0.67056 0.0
C530 C 0.95753 0.038 0.6611 0.0
C531 C 0.96701 0.00159 0.67803 0.0
C532 C 0.93056 0.98235 0.69246 0.0
C533 C 0.88473 -0.00294 0.68827 0.0
C534 C -0.00481 0.05893 0.64499 0.0
C535 C 0.93961 0.94458 0.71132 0.0
H536 H 0.07218 0.89849 0.6435 0.0
H537 H 0.12485 -0.00546 0.69792 0.0
H538 H 0.9535 0.91151 0.65627 0.0
H539 H 0.96892 0.95081 0.6318 0.0
H540 H -0.0057 0.89393 0.63253 0.0
H541 H 0.0738 0.039 0.72341 0.0
H542 H 0.03745 0.06813 0.701 0.0
H543 H 0.01217 0.02776 0.72239 0.0
H544 H 0.9044 0.0796 0.64415 0.0
H545 H 0.85646 0.98096 0.69843 0.0
H546 H 0.008 0.03266 0.63148 0.0
H547 H 0.02508 0.06968 0.65668 0.0
H548 H 0.98272 0.08938 0.63426 0.0
H549 H 0.94606 0.91156 0.70135 0.0
H550 H 0.90971 0.93963 0.72419 0.0
H551 H 0.97098 0.9525 0.72258 0.0
C552 C 0.9781 0.07946 0.87745 0.0
C553 C 0.98319 0.11325 0.85892 0.0
C554 C 0.99186 0.03382 0.87312 0.0
C555 C 0.0102 0.02146 0.84942 0.0
C556 C 0.0156 0.05551 0.83058 0.0
C557 C 0.00247 0.10135 0.83568 0.0
C558 C 0.98651 -0.00121 0.89392 0.0
C559 C 0.03415 0.04328 0.80496 0.0
C560 C 0.07945 0.91127 0.85326 0.0
C561 C 0.04519 0.87805 0.84838 0.0
C562 C 0.06953 0.95851 0.85174 0.0
C563 C 0.02433 0.97283 0.84498 0.0
C564 C 0.99079 0.93952 0.83788 0.0
C565 C 0.00158 0.89232 0.83978 0.0
C566 C 0.10628 -0.00714 0.85948 0.0
C567 C 0.94247 0.95358 0.8301 0.0
H568 H 0.96324 0.08878 0.89544 0.0
H569 H 0.00573 0.12749 0.82124 0.0
H570 H 0.96263 0.97085 0.88793 0.0
H571 H 0.02054 0.98261 0.89813 0.0
H572 H 0.97272 0.01441 0.91143 0.0
H573 H 0.03763 0.07406 0.79267 0.0
H574 H 0.06854 0.02633 0.80663 0.0
H575 H 0.01053 0.0182 0.79577 0.0
H576 H 0.1135 0.90041 0.85958 0.0
H577 H 0.97516 0.86674 0.83573 0.0
H578 H 0.09728 0.00738 0.87812 0.0
H579 H 0.10792 0.02206 0.84607 0.0
H580 H 0.1412 0.97675 0.86075 0.0
H581 H 0.9227 0.96498 0.84686 0.0
H582 H 0.92333 0.92463 0.82116 0.0
H583 H 0.94372 0.98309 0.81686 0.0
C584 C 0.91256 0.91157 0.36483 0.0
C585 C 0.87566 0.93191 0.35176 0.0
C586 C 0.95814 0.92703 0.36152 0.0
C587 C 0.96722 0.96299 0.34423 0.0
C588 C 0.93056 0.98134 0.32962 0.0
C589 C 0.88493 0.96603 0.33384 0.0
C590 C -0.004 0.9071 0.37785 0.0
C591 C 0.9392 0.01863 0.31043 0.0
C592 C 0.06692 0.03918 0.36405 0.0
C593 C 0.10435 0.01914 0.35126 0.0
C594 C 0.02178 0.02241 0.36104 0.0
C595 C 0.0136 0.98534 0.34432 0.0
C596 C 0.05077 0.96682 0.33012 0.0
C597 C 0.09602 0.98354 0.33403 0.0
C598 C 0.98335 0.04262 0.37693 0.0
C599 C 0.04306 0.92826 0.31154 0.0
H600 H 0.90558 0.88508 0.37868 0.0
H601 H 0.85649 0.98138 0.32347 0.0
H602 H 0.02581 0.89575 0.36624 0.0
H603 H 0.00888 0.93411 0.39088 0.0
H604 H 0.98375 0.87722 0.38912 0.0
H605 H 0.9092 0.02301 0.29757 0.0
H606 H 0.94544 0.05199 0.32009 0.0
H607 H 0.97058 0.01062 0.29917 0.0
H608 H 0.07315 0.06677 0.37739 0.0
H609 H 0.12486 0.96833 0.32391 0.0
H610 H 0.96991 0.01585 0.38993 0.0
H611 H 0.95403 0.05384 0.36495 0.0
H612 H -0.00482 0.07268 0.3882 0.0
H613 H 0.03682 0.89547 0.32175 0.0
H614 H 0.07345 0.92336 0.299 0.0
H615 H 0.01192 0.93527 0.29992 0.0
loop_
_geom_bond_atom_site_label_1
_geom_bond_atom_site_label_2
_geom_bond_distance
_geom_bond_site_symmetry_2
_ccdc_geom_bond_type
In0 O1 2.294 . S
In0 O2 2.326 . S
In0 O6 2.266 . S
In0 O7 2.326 . S
In0 O8 2.266 . S
In0 O9 2.326 . S
In0 O11 2.294 . S
In0 O12 2.326 . S
O1 In0 2.294 . S
O1 C10 1.240 . S
O2 In0 2.326 . S
O2 C10 1.252 . S
C3 O6 1.252 . S
C3 O7 1.260 . S
C4 O11 1.240 . S
C4 O12 1.252 . S
C5 O8 1.252 . S
C5 O9 1.260 . S
O6 In0 2.266 . S
O6 C3 1.252 . S
O7 In0 2.326 . S
O7 C3 1.260 . S
O8 In0 2.266 . S
O8 C5 1.252 . S
O9 In0 2.326 . S
O9 C5 1.260 . S
C10 O1 1.240 . S
C10 O2 1.252 . S
O11 In0 2.294 . S
O11 C4 1.240 . S
O12 In0 2.326 . S
O12 C4 1.252 . S
In13 O14 2.294 . S
In13 O15 2.326 . S
In13 O19 2.266 . S
In13 O20 2.326 . S
In13 O21 2.266 . S
In13 O22 2.326 . S
In13 O24 2.294 . S
In13 O25 2.326 . S
O14 In13 2.294 . S
O14 C23 1.240 . S
O15 In13 2.326 . S
O15 C23 1.252 . S
C16 O19 1.252 . S
C16 O20 1.260 . S
C17 O24 1.240 . S
C17 O25 1.252 . S
C18 O21 1.252 . S
C18 O22 1.260 . S
O19 In13 2.266 . S
O19 C16 1.252 . S
O20 In13 2.326 . S
O20 C16 1.260 . S
O21 In13 2.266 . S
O21 C18 1.252 . S
O22 In13 2.326 . S
O22 C18 1.260 . S
C23 O14 1.240 . S
C23 O15 1.252 . S
O24 In13 2.294 . S
O24 C17 1.240 . S
O25 In13 2.326 . S
O25 C17 1.252 . S
In26 O27 2.294 . S
In26 O28 2.326 . S
In26 O32 2.266 . S
In26 O33 2.326 . S
In26 O34 2.266 . S
In26 O35 2.326 . S
In26 O37 2.294 . S
In26 O38 2.326 . S
O27 In26 2.294 . S
O27 C36 1.240 . S
O28 In26 2.326 . S
O28 C36 1.252 . S
C29 O32 1.252 . S
C29 O33 1.260 . S
C30 O37 1.240 . S
C30 O38 1.252 . S
C31 O34 1.252 . S
C31 O35 1.260 . S
O32 In26 2.266 . S
O32 C29 1.252 . S
O33 In26 2.326 . S
O33 C29 1.260 . S
O34 In26 2.266 . S
O34 C31 1.252 . S
O35 In26 2.326 . S
O35 C31 1.260 . S
C36 O27 1.240 . S
C36 O28 1.252 . S
O37 In26 2.294 . S
O37 C30 1.240 . S
O38 In26 2.326 . S
O38 C30 1.252 . S
In39 O40 2.294 . S
In39 O41 2.326 . S
In39 O45 2.266 . S
In39 O46 2.326 . S
In39 O47 2.266 . S
In39 O48 2.326 . S
In39 O50 2.294 . S
In39 O51 2.326 . S
O40 In39 2.294 . S
O40 C49 1.240 . S
O41 In39 2.326 . S
O41 C49 1.252 . S
C42 O45 1.252 . S
C42 O46 1.260 . S
C43 O50 1.240 . S
C43 O51 1.252 . S
C44 O47 1.252 . S
C44 O48 1.260 . S
O45 In39 2.266 . S
O45 C42 1.252 . S
O46 In39 2.326 . S
O46 C42 1.260 . S
O47 In39 2.266 . S
O47 C44 1.252 . S
O48 In39 2.326 . S
O48 C44 1.260 . S
C49 O40 1.240 . S
C49 O41 1.252 . S
O50 In39 2.294 . S
O50 C43 1.240 . S
O51 In39 2.326 . S
O51 C43 1.252 . S
In52 O53 2.294 . S
In52 O54 2.326 . S
In52 O58 2.266 . S
In52 O59 2.326 . S
In52 O60 2.266 . S
In52 O61 2.326 . S
In52 O63 2.294 . S
In52 O64 2.326 . S
O53 In52 2.294 . S
O53 C62 1.240 . S
O54 In52 2.326 . S
O54 C62 1.252 . S
C55 O58 1.252 . S
C55 O59 1.260 . S
C56 O63 1.240 . S
C56 O64 1.252 . S
C57 O60 1.252 . S
C57 O61 1.260 . S
O58 In52 2.266 . S
O58 C55 1.252 . S
O59 In52 2.326 . S
O59 C55 1.260 . S
O60 In52 2.266 . S
O60 C57 1.252 . S
O61 In52 2.326 . S
O61 C57 1.260 . S
C62 O53 1.240 . S
C62 O54 1.252 . S
O63 In52 2.294 . S
O63 C56 1.240 . S
O64 In52 2.326 . S
O64 C56 1.252 . S
In65 O66 2.294 . S
In65 O67 2.326 . S
In65 O71 2.266 . S
In65 O72 2.326 . S
In65 O73 2.266 . S
In65 O74 2.326 . S
In65 O76 2.294 . S
In65 O77 2.326 . S
O66 In65 2.294 . S
O66 C75 1.240 . S
O67 In65 2.326 . S
O67 C75 1.252 . S
C68 O71 1.252 . S
C68 O72 1.260 . S
C69 O76 1.240 . S
C69 O77 1.252 . S
C70 O73 1.252 . S
C70 O74 1.260 . S
O71 In65 2.266 . S
O71 C68 1.252 . S
O72 In65 2.326 . S
O72 C68 1.260 . S
O73 In65 2.266 . S
O73 C70 1.252 . S
O74 In65 2.326 . S
O74 C70 1.260 . S
C75 O66 1.240 . S
C75 O67 1.252 . S
O76 In65 2.294 . S
O76 C69 1.240 . S
O77 In65 2.326 . S
O77 C69 1.252 . S
In78 O79 2.294 . S
In78 O80 2.326 . S
In78 O84 2.266 . S
In78 O85 2.326 . S
In78 O86 2.266 . S
In78 O87 2.326 . S
In78 O89 2.294 . S
In78 O90 2.326 . S
O79 In78 2.294 . S
O79 C88 1.240 . S
O80 In78 2.326 . S
O80 C88 1.252 . S
C81 O84 1.252 . S
C81 O85 1.260 . S
C82 O89 1.240 . S
C82 O90 1.252 . S
C83 O86 1.252 . S
C83 O87 1.260 . S
O84 In78 2.266 . S
O84 C81 1.252 . S
O85 In78 2.326 . S
O85 C81 1.260 . S
O86 In78 2.266 . S
O86 C83 1.252 . S
O87 In78 2.326 . S
O87 C83 1.260 . S
C88 O79 1.240 . S
C88 O80 1.252 . S
O89 In78 2.294 . S
O89 C82 1.240 . S
O90 In78 2.326 . S
O90 C82 1.252 . S
In91 O92 2.294 . S
In91 O93 2.326 . S
In91 O97 2.266 . S
In91 O98 2.326 . S
In91 O99 2.266 . S
In91 O100 2.326 . S
In91 O102 2.294 . S
In91 O103 2.326 . S
O92 In91 2.294 . S
O92 C101 1.240 . S
O93 In91 2.326 . S
O93 C101 1.252 . S
C94 O97 1.252 . S
C94 O98 1.260 . S
C95 O102 1.240 . S
C95 O103 1.252 . S
C96 O99 1.252 . S
C96 O100 1.260 . S
O97 In91 2.266 . S
O97 C94 1.252 . S
O98 In91 2.326 . S
O98 C94 1.260 . S
O99 In91 2.266 . S
O99 C96 1.252 . S
O100 In91 2.326 . S
O100 C96 1.260 . S
C101 O92 1.240 . S
C101 O93 1.252 . S
O102 In91 2.294 . S
O102 C95 1.240 . S
O103 In91 2.326 . S
O103 C95 1.252 . S
C104 C105 1.391 . S
C104 C106 1.394 1_455 S
C104 H120 0.931 1_455 S
C105 C104 1.391 . S
C105 C109 1.376 . S
C106 C104 1.394 1_655 S
C106 C107 1.369 1_655 S
C106 C110 1.531 . S
C107 C106 1.369 1_455 S
C107 C108 1.410 . S
C107 C115 1.503 . S
C108 C107 1.410 . S
C108 C109 1.392 . S
C108 C111 1.511 . S
C109 C105 1.376 . S
C109 C108 1.392 . S
C109 H121 0.929 . S
C110 C106 1.531 . S
C110 H122 0.960 . S
C110 H123 0.962 . S
C110 H124 0.960 . S
C111 C108 1.511 . S
C111 H125 0.961 . S
C111 H126 0.961 . S
C111 H127 0.961 . S
C112 C113 1.370 . S
C112 C114 1.363 . S
C112 H128 0.931 . S
C113 C112 1.370 . S
C113 C117 1.408 1_655 S
C114 C112 1.363 . S
C114 C115 1.370 1_655 S
C114 C118 1.524 . S
C115 C107 1.503 . S
C115 C114 1.370 1_455 S
C115 C116 1.403 . S
C116 C115 1.403 . S
C116 C117 1.404 . S
C116 C119 1.539 . S
C117 C113 1.408 1_455 S
C117 C116 1.404 . S
C117 H129 0.930 . S
C118 C114 1.524 . S
C118 H130 0.956 . S
C118 H131 0.961 . S
C118 H132 0.961 . S
C119 C116 1.539 . S
C119 H133 0.958 . S
C119 H134 0.961 . S
C119 H135 0.960 . S
H120 C104 0.931 1_655 S
H121 C109 0.929 . S
H122 C110 0.960 . S
H123 C110 0.962 . S
H124 C110 0.960 . S
H125 C111 0.961 . S
H126 C111 0.961 . S
H127 C111 0.961 . S
H128 C112 0.931 . S
H129 C117 0.930 . S
H130 C118 0.956 . S
H131 C118 0.961 . S
H132 C118 0.961 . S
H133 C119 0.958 . S
H134 C119 0.961 . S
H135 C119 0.960 . S
C136 C137 1.391 1_545 S
C136 C138 1.394 . S
C136 H152 0.931 . S
C137 C136 1.391 1_565 S
C137 C141 1.376 . S
C138 C136 1.394 . S
C138 C139 1.369 1_545 S
C138 C142 1.531 . S
C139 C138 1.369 1_565 S
C139 C140 1.410 . S
C139 C147 1.503 1_565 S
C140 C139 1.410 . S
C140 C141 1.392 . S
C140 C143 1.511 . S
C141 C137 1.376 . S
C141 C140 1.392 . S
C141 H153 0.929 . S
C142 C138 1.531 . S
C142 H154 0.960 . S
C142 H155 0.962 . S
C142 H156 0.960 . S
C143 C140 1.511 . S
C143 H157 0.961 . S
C143 H158 0.961 . S
C143 H159 0.961 . S
C144 C145 1.370 . S
C144 C146 1.363 . S
C144 H160 0.931 . S
C145 C144 1.370 . S
C145 C149 1.408 . S
C146 C144 1.363 . S
C146 C147 1.370 . S
C146 C150 1.524 1_545 S
C147 C139 1.503 1_545 S
C147 C146 1.370 . S
C147 C148 1.403 . S
C148 C147 1.403 . S
C148 C149 1.404 . S
C148 C151 1.539 . S
C149 C145 1.408 . S
C149 C148 1.404 . S
C149 H161 0.930 . S
C150 C146 1.524 1_565 S
C150 H162 0.956 1_565 S
C150 H163 0.961 . S
C150 H164 0.961 . S
C151 C148 1.539 . S
C151 H165 0.958 . S
C151 H166 0.964 . S
C151 H167 0.960 1_545 S
H152 C136 0.931 . S
H153 C141 0.929 . S
H154 C142 0.960 . S
H155 C142 0.962 . S
H156 C142 0.960 . S
H157 C143 0.961 . S
H158 C143 0.961 . S
H159 C143 0.961 . S
H160 C144 0.931 . S
H161 C149 0.930 . S
H162 C150 0.956 1_545 S
H163 C150 0.961 . S
H164 C150 0.961 . S
H165 C151 0.958 . S
H166 C151 0.964 . S
H167 C151 0.960 1_565 S
C168 C169 1.391 . S
C168 C170 1.394 . S
C168 H184 0.931 . S
C169 C168 1.391 . S
C169 C173 1.376 1_655 S
C170 C168 1.394 . S
C170 C171 1.369 . S
C170 C174 1.531 . S
C171 C170 1.369 . S
C171 C172 1.410 1_655 S
C171 C179 1.503 1_655 S
C172 C171 1.410 1_455 S
C172 C173 1.392 . S
C172 C175 1.511 . S
C173 C169 1.376 1_455 S
C173 C172 1.392 . S
C173 H185 0.929 . S
C174 C170 1.531 . S
C174 H186 0.960 . S
C174 H187 0.962 . S
C174 H188 0.960 . S
C175 C172 1.511 . S
C175 H189 0.961 . S
C175 H190 0.961 . S
C175 H191 0.961 . S
C176 C177 1.370 . S
C176 C178 1.363 . S
C176 H192 0.931 . S
C177 C176 1.370 . S
C177 C181 1.408 . S
C178 C176 1.363 . S
C178 C179 1.370 . S
C178 C182 1.524 . S
C179 C171 1.503 1_455 S
C179 C178 1.370 . S
C179 C180 1.403 1_455 S
C180 C179 1.403 1_655 S
C180 C181 1.404 1_655 S
C180 C183 1.539 . S
C181 C177 1.408 . S
C181 C180 1.404 1_455 S
C181 H193 0.930 . S
C182 C178 1.524 . S
C182 H194 0.956 1_455 S
C182 H195 0.961 . S
C182 H196 0.961 . S
C183 C180 1.539 . S
C183 H197 0.958 . S
C183 H198 0.961 . S
C183 H199 0.960 . S
H184 C168 0.931 . S
H185 C173 0.929 . S
H186 C174 0.960 . S
H187 C174 0.962 . S
H188 C174 0.960 . S
H189 C175 0.961 . S
H190 C175 0.961 . S
H191 C175 0.961 . S
H192 C176 0.931 . S
H193 C181 0.930 . S
H194 C182 0.956 1_655 S
H195 C182 0.961 . S
H196 C182 0.961 . S
H197 C183 0.958 . S
H198 C183 0.961 . S
H199 C183 0.960 . S
C200 C201 1.391 1_565 S
C200 C202 1.394 . S
C200 H216 0.931 . S
C201 C200 1.391 1_545 S
C201 C205 1.376 . S
C202 C200 1.394 . S
C202 C203 1.369 1_565 S
C202 C206 1.531 . S
C203 C202 1.369 1_545 S
C203 C204 1.410 . S
C203 C211 1.503 1_545 S
C204 C203 1.410 . S
C204 C205 1.392 . S
C204 C207 1.511 . S
C205 C201 1.376 . S
C205 C204 1.392 . S
C205 H217 0.929 . S
C206 C202 1.531 . S
C206 H218 0.960 . S
C206 H219 0.962 . S
C206 H220 0.960 . S
C207 C204 1.511 . S
C207 H221 0.961 . S
C207 H222 0.961 . S
C207 H223 0.961 . S
C208 C209 1.370 . S
C208 C210 1.363 . S
C208 H224 0.931 . S
C209 C208 1.370 . S
C209 C213 1.408 1_565 S
C210 C208 1.363 . S
C210 C211 1.370 . S
C210 C214 1.524 . S
C211 C203 1.503 1_565 S
C211 C210 1.370 . S
C211 C212 1.403 1_565 S
C212 C211 1.403 1_545 S
C212 C213 1.404 . S
C212 C215 1.539 . S
C213 C209 1.408 1_545 S
C213 C212 1.404 . S
C213 H225 0.930 . S
C214 C210 1.524 . S
C214 H226 0.956 . S
C214 H227 0.961 . S
C214 H228 0.961 . S
C215 C212 1.539 . S
C215 H229 0.958 . S
C215 H230 0.961 . S
C215 H231 0.960 . S
H216 C200 0.931 . S
H217 C205 0.929 . S
H218 C206 0.960 . S
H219 C206 0.962 . S
H220 C206 0.960 . S
H221 C207 0.961 . S
H222 C207 0.961 . S
H223 C207 0.961 . S
H224 C208 0.931 . S
H225 C213 0.930 . S
H226 C214 0.956 . S
H227 C214 0.961 . S
H228 C214 0.961 . S
H229 C215 0.958 . S
H230 C215 0.961 . S
H231 C215 0.960 . S
C232 C233 1.391 . S
C232 C234 1.394 . S
C232 H248 0.931 . S
C233 C232 1.391 . S
C233 C237 1.376 . S
C234 C232 1.394 . S
C234 C235 1.369 . S
C234 C238 1.531 1_556 S
C235 C234 1.369 . S
C235 C236 1.410 1_655 S
C235 C243 1.503 1_656 S
C236 C235 1.410 1_455 S
C236 C237 1.392 1_455 S
C236 C239 1.511 . S
C237 C233 1.376 . S
C237 C236 1.392 1_655 S
C237 H249 0.928 1_655 S
C238 C234 1.531 1_554 S
C238 H250 0.960 . S
C238 H251 0.962 . S
C238 H252 0.960 . S
C239 C236 1.511 . S
C239 H253 0.961 . S
C239 H254 0.961 . S
C239 H255 0.961 . S
C240 C241 1.370 . S
C240 C242 1.363 . S
C240 H256 0.931 . S
C241 C240 1.370 . S
C241 C245 1.408 . S
C242 C240 1.363 . S
C242 C243 1.370 . S
C242 C246 1.524 1_455 S
C243 C235 1.503 1_454 S
C243 C242 1.370 . S
C243 C244 1.403 . S
C244 C243 1.403 . S
C244 C245 1.404 . S
C244 C247 1.539 . S
C245 C241 1.408 . S
C245 C244 1.404 . S
C245 H257 0.930 . S
C246 C242 1.524 1_655 S
C246 H258 0.956 . S
C246 H259 0.999 . S
C246 H260 0.961 . S
C247 C244 1.539 . S
C247 H261 0.958 . S
C247 H262 0.961 . S
C247 H263 0.960 1_554 S
H248 C232 0.931 . S
H249 C237 0.928 1_455 S
H250 C238 0.960 . S
H251 C238 0.962 . S
H252 C238 0.960 . S
H253 C239 0.961 . S
H254 C239 0.961 . S
H255 C239 0.961 . S
H256 C240 0.931 . S
H257 C245 0.930 . S
H258 C246 0.956 . S
H259 C246 0.999 . S
H260 C246 0.961 . S
H261 C247 0.958 . S
H262 C247 0.961 . S
H263 C247 0.960 1_556 S
C264 C265 1.391 . S
C264 C266 1.394 . S
C264 H280 0.931 . S
C265 C264 1.391 . S
C265 C269 1.376 . S
C266 C264 1.394 . S
C266 C267 1.369 . S
C266 C270 1.531 . S
C267 C266 1.369 . S
C267 C268 1.410 1_545 S
C267 C275 1.503 1_545 S
C268 C267 1.410 1_565 S
C268 C269 1.392 1_565 S
C268 C271 1.511 . S
C269 C265 1.376 . S
C269 C268 1.392 1_545 S
C269 H281 0.939 . S
C270 C266 1.531 . S
C270 H282 0.960 . S
C270 H283 0.962 . S
C270 H284 0.960 . S
C271 C268 1.511 . S
C271 H285 0.961 . S
C271 H286 0.961 . S
C271 H287 0.961 . S
C272 C273 1.370 . S
C272 C274 1.363 . S
C272 H288 0.931 . S
C273 C272 1.370 . S
C273 C277 1.408 . S
C274 C272 1.363 . S
C274 C275 1.370 . S
C274 C278 1.524 . S
C275 C267 1.503 1_565 S
C275 C274 1.370 . S
C275 C276 1.403 . S
C276 C275 1.403 . S
C276 C277 1.404 . S
C276 C279 1.539 1_565 S
C277 C273 1.408 . S
C277 C276 1.404 . S
C277 H289 0.930 . S
C278 C274 1.524 . S
C278 H290 0.956 1_565 S
C278 H291 0.961 . S
C278 H292 0.961 . S
C279 C276 1.539 1_545 S
C279 H293 0.958 . S
C279 H294 0.961 1_545 S
C279 H295 0.960 . S
H280 C264 0.931 . S
H281 C269 0.939 . S
H282 C270 0.960 . S
H283 C270 0.962 . S
H284 C270 0.960 . S
H285 C271 0.961 . S
H286 C271 0.961 . S
H287 C271 0.961 . S
H288 C272 0.931 . S
H289 C277 0.930 . S
H290 C278 0.956 1_545 S
H291 C278 0.961 . S
H292 C278 0.961 . S
H293 C279 0.958 . S
H294 C279 0.961 1_565 S
H295 C279 0.960 . S
C296 C297 1.391 . S
C296 C298 1.394 . S
C296 H312 0.931 . S
C297 C296 1.391 . S
C297 C301 1.376 . S
C298 C296 1.394 . S
C298 C299 1.369 . S
C298 C302 1.531 1_554 S
C299 C298 1.369 . S
C299 C300 1.410 1_655 S
C299 C307 1.503 1_654 S
C300 C299 1.410 1_455 S
C300 C301 1.392 1_455 S
C300 C303 1.511 . S
C301 C297 1.376 . S
C301 C300 1.392 1_655 S
C301 H313 0.929 . S
C302 C298 1.531 1_556 S
C302 H314 0.960 . S
C302 H315 0.962 . S
C302 H316 0.960 . S
C303 C300 1.511 . S
C303 H317 0.961 . S
C303 H318 0.961 . S
C303 H319 0.961 . S
C304 C305 1.370 . S
C304 C306 1.363 . S
C304 H320 0.931 . S
C305 C304 1.370 . S
C305 C309 1.408 . S
C306 C304 1.363 . S
C306 C307 1.370 . S
C306 C310 1.553 . S
C307 C299 1.503 1_456 S
C307 C306 1.370 . S
C307 C308 1.403 . S
C308 C307 1.403 . S
C308 C309 1.404 . S
C308 C311 1.539 1_455 S
C309 C305 1.408 . S
C309 C308 1.404 . S
C309 H321 0.930 . S
C310 C306 1.553 . S
C310 H322 0.954 1_556 S
C310 H323 0.920 1_556 S
C310 H324 0.977 . S
C311 C308 1.539 1_655 S
C311 H325 0.958 . S
C311 H326 0.961 1_655 S
C311 H327 0.960 . S
H312 C296 0.931 . S
H313 C301 0.929 . S
H314 C302 0.960 . S
H315 C302 0.962 . S
H316 C302 0.960 . S
H317 C303 0.961 . S
H318 C303 0.961 . S
H319 C303 0.961 . S
H320 C304 0.931 . S
H321 C309 0.930 . S
H322 C310 0.954 1_554 S
H323 C310 0.920 1_554 S
H324 C310 0.977 . S
H325 C311 0.958 . S
H326 C311 0.961 1_455 S
H327 C311 0.960 . S
C328 C329 1.391 . S
C328 C330 1.394 . S
C328 H344 0.931 . S
C329 C328 1.391 . S
C329 C333 1.376 . S
C330 C328 1.394 . S
C330 C331 1.369 . S
C330 C334 1.531 . S
C331 C330 1.369 . S
C331 C332 1.410 . S
C331 C339 1.503 1_545 S
C332 C331 1.410 . S
C332 C333 1.392 . S
C332 C335 1.511 1_545 S
C333 C329 1.376 . S
C333 C332 1.392 . S
C333 H345 0.929 . S
C334 C330 1.531 . S
C334 H346 0.960 . S
C334 H347 0.962 . S
C334 H348 0.960 . S
C335 C332 1.511 1_565 S
C335 H349 0.961 . S
C335 H350 0.961 . S
C335 H351 0.968 . S
C336 C337 1.370 . S
C336 C338 1.363 . S
C336 H352 0.931 . S
C337 C336 1.370 . S
C337 C341 1.408 . S
C338 C336 1.363 . S
C338 C339 1.370 . S
C338 C342 1.524 . S
C339 C331 1.503 1_565 S
C339 C338 1.370 . S
C339 C340 1.403 1_565 S
C340 C339 1.403 1_545 S
C340 C341 1.404 1_545 S
C340 C343 1.539 . S
C341 C337 1.408 . S
C341 C340 1.404 1_565 S
C341 H353 0.930 . S
C342 C338 1.524 . S
C342 H354 0.956 . S
C342 H355 0.961 . S
C342 H356 0.961 . S
C343 C340 1.539 . S
C343 H357 0.958 . S
C343 H358 0.961 . S
C343 H359 0.960 . S
H344 C328 0.931 . S
H345 C333 0.929 . S
H346 C334 0.960 . S
H347 C334 0.962 . S
H348 C334 0.960 . S
H349 C335 0.961 . S
H350 C335 0.961 . S
H351 C335 0.968 . S
H352 C336 0.931 . S
H353 C341 0.930 . S
H354 C342 0.956 . S
H355 C342 0.961 . S
H356 C342 0.961 . S
H357 C343 0.958 . S
H358 C343 0.961 . S
H359 C343 0.960 . S
C360 C361 1.391 . S
C360 C362 1.394 . S
C360 H376 0.931 . S
C361 C360 1.391 . S
C361 C365 1.376 . S
C362 C360 1.394 . S
C362 C363 1.369 . S
C362 C366 1.531 . S
C363 C362 1.369 . S
C363 C364 1.410 . S
C363 C371 1.503 . S
C364 C363 1.410 . S
C364 C365 1.392 . S
C364 C367 1.511 . S
C365 C361 1.376 . S
C365 C364 1.392 . S
C365 H377 0.929 . S
C366 C362 1.531 . S
C366 H378 0.960 . S
C366 H379 0.962 . S
C366 H380 0.960 . S
C367 C364 1.511 . S
C367 H381 0.961 . S
C367 H382 0.961 . S
C367 H383 0.961 . S
C368 C369 1.370 . S
C368 C370 1.363 . S
C368 H384 0.931 . S
C369 C368 1.370 . S
C369 C373 1.408 . S
C370 C368 1.363 . S
C370 C371 1.370 . S
C370 C374 1.524 . S
C371 C363 1.503 . S
C371 C370 1.370 . S
C371 C372 1.403 . S
C372 C371 1.403 . S
C372 C373 1.404 . S
C372 C375 1.539 . S
C373 C369 1.408 . S
C373 C372 1.404 . S
C373 H385 0.930 . S
C374 C370 1.524 . S
C374 H386 0.956 . S
C374 H387 0.961 . S
C374 H388 0.961 . S
C375 C372 1.539 . S
C375 H389 0.958 . S
C375 H390 0.961 . S
C375 H391 0.960 . S
H376 C360 0.931 . S
H377 C365 0.929 . S
H378 C366 0.960 . S
H379 C366 0.962 . S
H380 C366 0.960 . S
H381 C367 0.961 . S
H382 C367 0.961 . S
H383 C367 0.961 . S
H384 C368 0.931 . S
H385 C373 0.930 . S
H386 C374 0.956 . S
H387 C374 0.961 . S
H388 C374 0.961 . S
H389 C375 0.958 . S
H390 C375 0.961 . S
H391 C375 0.960 . S
C392 C393 1.391 . S
C392 C394 1.394 . S
C392 H408 0.931 . S
C393 C392 1.391 . S
C393 C397 1.376 . S
C394 C392 1.394 . S
C394 C395 1.369 . S
C394 C398 1.531 . S
C395 C394 1.369 . S
C395 C396 1.410 . S
C395 C403 1.503 . S
C396 C395 1.410 . S
C396 C397 1.392 . S
C396 C399 1.511 . S
C397 C393 1.376 . S
C397 C396 1.392 . S
C397 H409 0.929 . S
C398 C394 1.531 . S
C398 H410 0.960 . S
C398 H411 0.962 . S
C398 H412 0.960 . S
C399 C396 1.511 . S
C399 H413 0.961 . S
C399 H414 0.961 . S
C399 H415 0.961 . S
C400 C401 1.370 . S
C400 C402 1.363 . S
C400 H416 0.931 . S
C401 C400 1.370 . S
C401 C405 1.408 . S
C402 C400 1.363 . S
C402 C403 1.370 . S
C402 C406 1.524 . S
C403 C395 1.503 . S
C403 C402 1.370 . S
C403 C404 1.403 . S
C404 C403 1.403 . S
C404 C405 1.404 . S
C404 C407 1.539 . S
C405 C401 1.408 . S
C405 C404 1.404 . S
C405 H417 0.930 . S
C406 C402 1.524 . S
C406 H418 0.956 . S
C406 H419 0.961 . S
C406 H420 0.961 . S
C407 C404 1.539 . S
C407 H421 0.958 . S
C407 H422 0.961 . S
C407 H423 0.960 . S
H408 C392 0.931 . S
H409 C397 0.929 . S
H410 C398 0.960 . S
H411 C398 0.962 . S
H412 C398 0.960 . S
H413 C399 0.961 . S
H414 C399 0.961 . S
H415 C399 0.961 . S
H416 C400 0.931 . S
H417 C405 0.930 . S
H418 C406 0.956 . S
H419 C406 0.961 . S
H420 C406 0.961 . S
H421 C407 0.958 . S
H422 C407 0.961 . S
H423 C407 0.960 . S
C424 C425 1.391 . S
C424 C426 1.394 . S
C424 H440 0.931 . S
C425 C424 1.391 . S
C425 C429 1.376 . S
C426 C424 1.394 . S
C426 C427 1.369 . S
C426 C430 1.531 . S
C427 C426 1.369 . S
C427 C428 1.410 . S
C427 C435 1.503 . S
C428 C427 1.410 . S
C428 C429 1.392 . S
C428 C431 1.511 . S
C429 C425 1.376 . S
C429 C428 1.392 . S
C429 H441 0.929 . S
C430 C426 1.531 . S
C430 H442 0.960 . S
C430 H443 0.962 . S
C430 H444 0.960 . S
C431 C428 1.511 . S
C431 H445 0.961 . S
C431 H446 0.961 . S
C431 H447 0.961 . S
C432 C433 1.370 . S
C432 C434 1.363 . S
C432 H448 0.931 . S
C433 C432 1.370 . S
C433 C437 1.408 . S
C434 C432 1.363 . S
C434 C435 1.370 . S
C434 C438 1.524 . S
C435 C427 1.503 . S
C435 C434 1.370 . S
C435 C436 1.403 . S
C436 C435 1.403 . S
C436 C437 1.404 . S
C436 C439 1.539 . S
C437 C433 1.408 . S
C437 C436 1.404 . S
C437 H449 0.930 . S
C438 C434 1.524 . S
C438 H450 0.956 . S
C438 H451 0.961 . S
C438 H452 0.961 . S
C439 C436 1.539 . S
C439 H453 0.958 . S
C439 H454 0.961 . S
C439 H455 0.960 . S
H440 C424 0.931 . S
H441 C429 0.929 . S
H442 C430 0.960 . S
H443 C430 0.962 . S
H444 C430 0.960 . S
H445 C431 0.961 . S
H446 C431 0.961 . S
H447 C431 0.961 . S
H448 C432 0.931 . S
H449 C437 0.930 . S
H450 C438 0.956 . S
H451 C438 0.961 . S
H452 C438 0.961 . S
H453 C439 0.958 . S
H454 C439 0.961 . S
H455 C439 0.960 . S
C456 C457 1.391 . S
C456 C458 1.394 . S
C456 H472 0.931 . S
C457 C456 1.391 . S
C457 C461 1.376 . S
C458 C456 1.394 . S
C458 C459 1.369 . S
C458 C462 1.531 . S
C459 C458 1.369 . S
C459 C460 1.410 . S
C459 C467 1.503 . S
C460 C459 1.410 . S
C460 C461 1.392 . S
C460 C463 1.511 . S
C461 C457 1.376 . S
C461 C460 1.392 . S
C461 H473 0.929 . S
C462 C458 1.531 . S
C462 H474 0.960 . S
C462 H475 0.962 . S
C462 H476 0.960 . S
C463 C460 1.511 . S
C463 H477 0.961 . S
C463 H478 0.961 . S
C463 H479 0.961 . S
C464 C465 1.370 . S
C464 C466 1.363 . S
C464 H480 0.931 . S
C465 C464 1.370 . S
C465 C469 1.408 . S
C466 C464 1.363 . S
C466 C467 1.370 . S
C466 C470 1.524 . S
C467 C459 1.503 . S
C467 C466 1.370 . S
C467 C468 1.403 . S
C468 C467 1.403 . S
C468 C469 1.404 . S
C468 C471 1.539 . S
C469 C465 1.408 . S
C469 C468 1.404 . S
C469 H481 0.930 . S
C470 C466 1.524 . S
C470 H482 0.956 . S
C470 H483 0.961 . S
C470 H484 0.961 . S
C471 C468 1.539 . S
C471 H485 0.958 . S
C471 H486 0.961 . S
C471 H487 0.960 . S
H472 C456 0.931 . S
H473 C461 0.929 . S
H474 C462 0.960 . S
H475 C462 0.962 . S
H476 C462 0.960 . S
H477 C463 0.961 . S
H478 C463 0.961 . S
H479 C463 0.961 . S
H480 C464 0.931 . S
H481 C469 0.930 . S
H482 C470 0.956 . S
H483 C470 0.961 . S
H484 C470 0.961 . S
H485 C471 0.958 . S
H486 C471 0.961 . S
H487 C471 0.960 . S
C488 C489 1.391 . S
C488 C490 1.394 . S
C488 H504 0.931 . S
C489 C488 1.391 . S
C489 C493 1.376 1_455 S
C490 C488 1.394 . S
C490 C491 1.369 1_455 S
C490 C494 1.531 . S
C491 C490 1.369 1_655 S
C491 C492 1.410 . S
C491 C499 1.503 1_545 S
C492 C491 1.410 . S
C492 C493 1.392 . S
C492 C495 1.511 . S
C493 C489 1.376 1_655 S
C493 C492 1.392 . S
C493 H505 0.929 . S
C494 C490 1.531 . S
C494 H506 0.960 1_545 S
C494 H507 0.962 . S
C494 H508 0.960 . S
C495 C492 1.511 . S
C495 H509 0.961 . S
C495 H510 0.961 . S
C495 H511 0.961 . S
C496 C497 1.370 1_455 S
C496 C498 1.363 . S
C496 H512 0.931 . S
C497 C496 1.370 1_655 S
C497 C501 1.408 . S
C498 C496 1.363 . S
C498 C499 1.370 1_455 S
C498 C502 1.524 . S
C499 C491 1.503 1_565 S
C499 C498 1.370 1_655 S
C499 C500 1.403 . S
C500 C499 1.403 . S
C500 C501 1.404 . S
C500 C503 1.539 . S
C501 C497 1.408 . S
C501 C500 1.404 . S
C501 H513 0.930 . S
C502 C498 1.524 . S
C502 H514 0.956 . S
C502 H515 0.961 . S
C502 H516 0.961 . S
C503 C500 1.539 . S
C503 H517 0.958 . S
C503 H518 0.961 . S
C503 H519 0.960 1_565 S
H504 C488 0.931 . S
H505 C493 0.929 . S
H506 C494 0.960 1_565 S
H507 C494 0.962 . S
H508 C494 0.960 . S
H509 C495 0.961 . S
H510 C495 0.961 . S
H511 C495 0.961 . S
H512 C496 0.931 . S
H513 C501 0.930 . S
H514 C502 0.956 . S
H515 C502 0.961 . S
H516 C502 0.961 . S
H517 C503 0.958 . S
H518 C503 0.961 . S
H519 C503 0.960 1_545 S
C520 C521 1.391 . S
C520 C522 1.394 . S
C520 H536 0.931 . S
C521 C520 1.391 . S
C521 C525 1.376 1_565 S
C522 C520 1.394 . S
C522 C523 1.369 . S
C522 C526 1.531 . S
C523 C522 1.369 . S
C523 C524 1.410 1_565 S
C523 C531 1.501 1_465 S
C524 C523 1.410 1_545 S
C524 C525 1.392 . S
C524 C527 1.511 . S
C525 C521 1.376 1_545 S
C525 C524 1.392 . S
C525 H537 0.929 . S
C526 C522 1.531 . S
C526 H538 0.960 1_455 S
C526 H539 0.962 . S
C526 H540 0.960 . S
C527 C524 1.511 . S
C527 H541 0.961 . S
C527 H542 0.961 . S
C527 H543 0.961 . S
C528 C529 1.370 . S
C528 C530 1.363 . S
C528 H544 0.931 . S
C529 C528 1.370 . S
C529 C533 1.408 1_545 S
C530 C528 1.363 . S
C530 C531 1.375 . S
C530 C534 1.524 . S
C531 C523 1.501 1_645 S
C531 C530 1.375 . S
C531 C532 1.400 1_545 S
C532 C531 1.400 1_565 S
C532 C533 1.404 . S
C532 C535 1.539 . S
C533 C529 1.408 1_565 S
C533 C532 1.404 . S
C533 H545 0.930 . S
C534 C530 1.524 . S
C534 H546 0.956 . S
C534 H547 0.961 1_655 S
C534 H548 0.961 . S
C535 C532 1.539 . S
C535 H549 0.958 . S
C535 H550 0.961 . S
C535 H551 0.960 . S
H536 C520 0.931 . S
H537 C525 0.929 . S
H538 C526 0.960 1_655 S
H539 C526 0.962 . S
H540 C526 0.960 . S
H541 C527 0.961 . S
H542 C527 0.961 . S
H543 C527 0.961 . S
H544 C528 0.931 . S
H545 C533 0.930 . S
H546 C534 0.956 . S
H547 C534 0.961 1_455 S
H548 C534 0.961 . S
H549 C535 0.958 . S
H550 C535 0.961 . S
H551 C535 0.960 . S
C552 C553 1.391 1_455 S
C552 C554 1.394 . S
C552 H568 0.931 . S
C553 C552 1.391 1_655 S
C553 C557 1.376 . S
C554 C552 1.394 . S
C554 C555 1.369 1_455 S
C554 C558 1.531 . S
C555 C554 1.369 1_655 S
C555 C556 1.410 . S
C555 C563 1.503 1_545 S
C556 C555 1.410 . S
C556 C557 1.392 . S
C556 C559 1.511 . S
C557 C553 1.376 . S
C557 C556 1.392 . S
C557 H569 0.929 . S
C558 C554 1.531 . S
C558 H570 0.960 1_545 S
C558 H571 0.962 . S
C558 H572 0.960 . S
C559 C556 1.511 . S
C559 H573 0.961 . S
C559 H574 0.961 1_545 S
C559 H575 0.961 . S
C560 C561 1.370 . S
C560 C562 1.363 . S
C560 H576 0.931 . S
C561 C560 1.370 . S
C561 C565 1.408 1_455 S
C562 C560 1.363 . S
C562 C563 1.370 1_455 S
C562 C566 1.524 . S
C563 C555 1.503 1_565 S
C563 C562 1.370 1_655 S
C563 C564 1.403 . S
C564 C563 1.403 . S
C564 C565 1.404 . S
C564 C567 1.539 . S
C565 C561 1.408 1_655 S
C565 C564 1.404 . S
C565 H577 0.930 . S
C566 C562 1.524 . S
C566 H578 0.956 1_565 S
C566 H579 0.961 1_565 S
C566 H580 0.961 . S
C567 C564 1.539 . S
C567 H581 0.958 . S
C567 H582 0.961 . S
C567 H583 0.960 . S
H568 C552 0.931 . S
H569 C557 0.929 . S
H570 C558 0.960 1_565 S
H571 C558 0.962 . S
H572 C558 0.960 . S
H573 C559 0.961 . S
H574 C559 0.961 1_565 S
H575 C559 0.961 . S
H576 C560 0.931 . S
H577 C565 0.930 . S
H578 C566 0.956 1_545 S
H579 C566 0.961 1_545 S
H580 C566 0.961 . S
H581 C567 0.958 . S
H582 C567 0.961 . S
H583 C567 0.960 . S
C584 C585 1.391 . S
C584 C586 1.394 . S
C584 H600 0.931 . S
C585 C584 1.391 . S
C585 C589 1.376 . S
C586 C584 1.394 . S
C586 C587 1.369 . S
C586 C590 1.531 1_565 S
C587 C586 1.369 . S
C587 C588 1.410 . S
C587 C595 1.503 1_655 S
C588 C587 1.410 . S
C588 C589 1.392 . S
C588 C591 1.511 . S
C589 C585 1.376 . S
C589 C588 1.392 . S
C589 H601 0.929 . S
C590 C586 1.531 1_545 S
C590 H602 0.960 1_645 S
C590 H603 0.962 . S
C590 H604 0.960 1_545 S
C591 C588 1.511 . S
C591 H605 0.961 . S
C591 H606 0.961 1_655 S
C591 H607 0.961 . S
C592 C593 1.370 . S
C592 C594 1.363 . S
C592 H608 0.931 . S
C593 C592 1.370 . S
C593 C597 1.408 1_545 S
C594 C592 1.363 . S
C594 C595 1.370 1_545 S
C594 C598 1.524 . S
C595 C587 1.503 1_455 S
C595 C594 1.370 1_565 S
C595 C596 1.403 . S
C596 C595 1.403 . S
C596 C597 1.404 . S
C596 C599 1.539 . S
C597 C593 1.408 1_565 S
C597 C596 1.404 . S
C597 H609 0.930 . S
C598 C594 1.524 . S
C598 H610 0.956 1_455 S
C598 H611 0.961 1_455 S
C598 H612 0.961 . S
C599 C596 1.539 . S
C599 H613 0.958 . S
C599 H614 0.961 . S
C599 H615 0.960 . S
H600 C584 0.931 . S
H601 C589 0.929 . S
H602 C590 0.960 1_465 S
H603 C590 0.962 . S
H604 C590 0.960 1_565 S
H605 C591 0.961 . S
H606 C591 0.961 1_455 S
H607 C591 0.961 . S
H608 C592 0.931 . S
H609 C597 0.930 . S
H610 C598 0.956 1_655 S
H611 C598 0.961 1_655 S
H612 C598 0.961 . S
H613 C599 0.958 . S
H614 C599 0.961 . S
H615 C599 0.960 . S
C105 C4 1.321 . S
C113 C30 1.332 . S
C137 C49 1.335 . S
C145 C17 1.332 . S
C169 C82 1.312 . S
C177 C56 1.324 . S
C201 C69 1.328 . S
C209 C95 1.333 . S
C233 C88 1.533 . S
C241 C10 1.561 . S
C265 C23 1.555 . S
C273 C101 1.551 . S
C297 C36 1.558 . S
C305 C62 1.550 . S
C329 C75 1.576 . S
C337 C43 1.543 . S
C361 C3 1.400 . S
C369 C68 1.379 . S
C393 C81 1.352 . S
C401 C16 1.380 . S
C425 C94 1.397 . S
C433 C29 1.384 . S
C457 C44 1.398 . S
C465 C55 1.383 . S
C489 C5 1.168 . S
C497 C31 1.145 . S
C521 C42 1.147 . S
C529 C18 1.155 . S
C553 C83 1.121 . S
C561 C57 1.155 . S
C585 C96 1.121 . S
C593 C70 1.157 . S
