# Generated by pormake.
# Topology zfg, (5)-cn, num edge types: 1
# Building blocks:
#     Node 0, Type 0, BuildingBlock: BEQFEK_clean_sbu_0, # of connection points: 5
#     Node 1, Type 0, BuildingBlock: BEQFEK_clean_sbu_0, # of connection points: 5
#     Node 2, Type 0, BuildingBlock: BEQFEK_clean_sbu_0, # of connection points: 5
#     Node 3, Type 0, BuildingBlock: BEQFEK_clean_sbu_0, # of connection points: 5
#     Node 4, Type 0, BuildingBlock: BEQFEK_clean_sbu_0, # of connection points: 5
#     Node 5, Type 0, BuildingBlock: BEQFEK_clean_sbu_0, # of connection points: 5
#     Node 6, Type 0, BuildingBlock: BEQFEK_clean_sbu_0, # of connection points: 5
#     Node 7, Type 0, BuildingBlock: BEQFEK_clean_sbu_0, # of connection points: 5
#     Node 8, Type 0, BuildingBlock: BEQFEK_clean_sbu_0, # of connection points: 5
#     Node 9, Type 0, BuildingBlock: BEQFEK_clean_sbu_0, # of connection points: 5
#     Node 10, Type 0, BuildingBlock: BEQFEK_clean_sbu_0, # of connection points: 5
#     Node 11, Type 0, BuildingBlock: BEQFEK_clean_sbu_0, # of connection points: 5
#     Node 12, Type 0, BuildingBlock: BEQFEK_clean_sbu_0, # of connection points: 5
#     Node 13, Type 0, BuildingBlock: BEQFEK_clean_sbu_0, # of connection points: 5
#     Node 14, Type 0, BuildingBlock: BEQFEK_clean_sbu_0, # of connection points: 5
#     Node 15, Type 0, BuildingBlock: BEQFEK_clean_sbu_0, # of connection points: 5
#     Edge 16, Type (0, 0), BuildingBlock: KIFKEQ_clean_linker_1, # of connection points: 2
#     Edge 17, Type (0, 0), BuildingBlock: KIFKEQ_clean_linker_1, # of connection points: 2
#     Edge 18, Type (0, 0), BuildingBlock: KIFKEQ_clean_linker_1, # of connection points: 2
#     Edge 19, Type (0, 0), BuildingBlock: KIFKEQ_clean_linker_1, # of connection points: 2
#     Edge 20, Type (0, 0), BuildingBlock: KIFKEQ_clean_linker_1, # of connection points: 2
#     Edge 21, Type (0, 0), BuildingBlock: KIFKEQ_clean_linker_1, # of connection points: 2
#     Edge 22, Type (0, 0), BuildingBlock: KIFKEQ_clean_linker_1, # of connection points: 2
#     Edge 23, Type (0, 0), BuildingBlock: KIFKEQ_clean_linker_1, # of connection points: 2
#     Edge 24, Type (0, 0), BuildingBlock: KIFKEQ_clean_linker_1, # of connection points: 2
#     Edge 25, Type (0, 0), BuildingBlock: KIFKEQ_clean_linker_1, # of connection points: 2
#     Edge 26, Type (0, 0), BuildingBlock: KIFKEQ_clean_linker_1, # of connection points: 2
#     Edge 27, Type (0, 0), BuildingBlock: KIFKEQ_clean_linker_1, # of connection points: 2
#     Edge 28, Type (0, 0), BuildingBlock: KIFKEQ_clean_linker_1, # of connection points: 2
#     Edge 29, Type (0, 0), BuildingBlock: KIFKEQ_clean_linker_1, # of connection points: 2
#     Edge 30, Type (0, 0), BuildingBlock: KIFKEQ_clean_linker_1, # of connection points: 2
#     Edge 31, Type (0, 0), BuildingBlock: KIFKEQ_clean_linker_1, # of connection points: 2
#     Edge 32, Type (0, 0), BuildingBlock: KIFKEQ_clean_linker_1, # of connection points: 2
#     Edge 33, Type (0, 0), BuildingBlock: KIFKEQ_clean_linker_1, # of connection points: 2
#     Edge 34, Type (0, 0), BuildingBlock: KIFKEQ_clean_linker_1, # of connection points: 2
#     Edge 35, Type (0, 0), BuildingBlock: KIFKEQ_clean_linker_1, # of connection points: 2
#     Edge 36, Type (0, 0), BuildingBlock: KIFKEQ_clean_linker_1, # of connection points: 2
#     Edge 37, Type (0, 0), BuildingBlock: KIFKEQ_clean_linker_1, # of connection points: 2
#     Edge 38, Type (0, 0), BuildingBlock: KIFKEQ_clean_linker_1, # of connection points: 2
#     Edge 39, Type (0, 0), BuildingBlock: KIFKEQ_clean_linker_1, # of connection points: 2
#     Edge 40, Type (0, 0), BuildingBlock: KIFKEQ_clean_linker_1, # of connection points: 2
#     Edge 41, Type (0, 0), BuildingBlock: KIFKEQ_clean_linker_1, # of connection points: 2
#     Edge 42, Type (0, 0), BuildingBlock: KIFKEQ_clean_linker_1, # of connection points: 2
#     Edge 43, Type (0, 0), BuildingBlock: KIFKEQ_clean_linker_1, # of connection points: 2
#     Edge 44, Type (0, 0), BuildingBlock: KIFKEQ_clean_linker_1, # of connection points: 2
#     Edge 45, Type (0, 0), BuildingBlock: KIFKEQ_clean_linker_1, # of connection points: 2
#     Edge 46, Type (0, 0), BuildingBlock: KIFKEQ_clean_linker_1, # of connection points: 2
#     Edge 47, Type (0, 0), BuildingBlock: KIFKEQ_clean_linker_1, # of connection points: 2
#     Edge 48, Type (0, 0), BuildingBlock: KIFKEQ_clean_linker_1, # of connection points: 2
#     Edge 49, Type (0, 0), BuildingBlock: KIFKEQ_clean_linker_1, # of connection points: 2
#     Edge 50, Type (0, 0), BuildingBlock: KIFKEQ_clean_linker_1, # of connection points: 2
#     Edge 51, Type (0, 0), BuildingBlock: KIFKEQ_clean_linker_1, # of connection points: 2
#     Edge 52, Type (0, 0), BuildingBlock: KIFKEQ_clean_linker_1, # of connection points: 2
#     Edge 53, Type (0, 0), BuildingBlock: KIFKEQ_clean_linker_1, # of connection points: 2
#     Edge 54, Type (0, 0), BuildingBlock: KIFKEQ_clean_linker_1, # of connection points: 2
#     Edge 55, Type (0, 0), BuildingBlock: KIFKEQ_clean_linker_1, # of connection points: 2
# Relax obj value: 0.045
# Max RMSD: 0.068
# Mean RMSD: 0.068
data_MOF--net-zfg--node1-BEQFEK_clean_sbu_0--edge1-KIFKEQ_clean_linker_1
_symmetry_space_group_name_H-M    P1
_symmetry_Int_Tables_number       1
_symmetry_cell_setting            triclinic
loop_
_symmetry_equiv_pos_as_xyz
'x, y, z'
_cell_length_a     43.23028
_cell_length_b     43.220022
_cell_length_c     58.755796
_cell_angle_alpha  89.981296
_cell_angle_beta   90.042172
_cell_angle_gamma 89.980788
loop_
_atom_site_label
_atom_site_type_symbol
_atom_site_fract_x
_atom_site_fract_y
_atom_site_fract_z
_atom_type_partial_charge
Co0 Co 0.08811 0.23597 0.13644 0.0
Co1 Co 0.04668 0.29531 0.13596 0.0
C2 C 0.08213 0.27541 0.09453 0.0
O3 O 0.09356 0.25212 0.1049 0.0
O4 O 0.06383 0.29407 0.10458 0.0
C5 C 0.13888 0.1935 0.12902 0.0
O6 O 0.14656 0.2122 0.11232 0.0
C7 C 0.02939 0.36104 0.13286 0.0
C8 C 0.98433 0.36088 0.15061 0.0
C9 C 0.00509 0.38015 0.13956 0.0
N10 N 0.02304 0.33205 0.13968 0.0
N11 N 0.99602 0.33209 0.15015 0.0
C12 C 0.0591 0.36996 0.1216 0.0
H13 H 0.07708 0.35211 0.12475 0.0
H14 H 0.06723 0.39273 0.12796 0.0
H15 H 0.05535 0.37163 0.10296 0.0
C16 C 0.11656 0.26921 0.1755 0.0
N17 N 0.09582 0.26725 0.15842 0.0
N18 N 0.07849 0.29231 0.15833 0.0
C19 C 0.08765 0.31099 0.17545 0.0
C20 C 0.11216 0.29706 0.18684 0.0
C21 C 0.14068 0.24523 0.18024 0.0
H22 H 0.15382 0.24044 0.16442 0.0
H23 H 0.15698 0.25273 0.19374 0.0
H24 H 0.1292 0.2234 0.1855 0.0
O25 O 0.04564 0.21906 0.13961 0.0
O26 O 0.01666 0.26127 0.13933 0.0
H27 H 0.07891 0.34867 0.19891 0.0
H28 H 0.07836 0.35877 0.16914 0.0
C29 C 0.07202 0.34071 0.18169 0.0
H30 H 0.04658 0.33763 0.18128 0.0
H31 H 0.98569 0.31248 0.15717 0.0
O32 O 0.11572 0.20004 0.1414 0.0
C33 C 0.01924 0.23203 0.14044 0.0
Co34 Co 0.76308 0.08518 0.1363 0.0
Co35 Co 0.70018 0.04948 0.13465 0.0
C36 C 0.7241 0.08298 0.09375 0.0
O37 O 0.74802 0.09226 0.10448 0.0
O38 O 0.7037 0.06638 0.10349 0.0
C39 C 0.82442 0.10462 0.12997 0.0
O40 O 0.82382 0.08101 0.11589 0.0
C41 C 0.63353 0.0355 0.12991 0.0
C42 C 0.63141 0.98955 0.1464 0.0
C43 C 0.61369 0.01132 0.13509 0.0
N44 N 0.66181 0.02834 0.13788 0.0
N45 N 0.66031 0.0009 0.14777 0.0
C46 C 0.62619 0.06393 0.11638 0.0
H47 H 0.6145 0.05734 0.10027 0.0
H48 H 0.64739 0.07739 0.1127 0.0
H49 H 0.61009 0.07886 0.12611 0.0
C50 C 0.73222 0.11384 0.17652 0.0
N51 N 0.73213 0.09494 0.15825 0.0
N52 N 0.70543 0.0804 0.15727 0.0
C53 C 0.68757 0.08972 0.17476 0.0
C54 C 0.70394 0.11117 0.18768 0.0
C55 C 0.75992 0.13191 0.18406 0.0
H56 H 0.78076 0.11696 0.18337 0.0
H57 H 0.76359 0.15151 0.17216 0.0
H58 H 0.75716 0.14098 0.20159 0.0
O59 O 0.77679 0.04133 0.13958 0.0
O60 O 0.73174 0.01704 0.13828 0.0
H61 H 0.65567 0.05365 0.1831 0.0
H62 H 0.64337 0.09175 0.19229 0.0
C63 C 0.65522 0.0786 0.17865 0.0
H64 H 0.64175 0.08132 0.16276 0.0
H65 H 0.67916 0.98966 0.15516 0.0
O66 O 0.80003 0.11143 0.14095 0.0
C67 C 0.76104 0.01645 0.13997 0.0
Co68 Co 0.91395 0.7635 0.13783 0.0
Co69 Co 0.94889 0.69991 0.13626 0.0
C70 C 0.91671 0.7255 0.09504 0.0
O71 O 0.90748 0.74934 0.10585 0.0
O72 O 0.93279 0.70465 0.10482 0.0
C73 C 0.86509 0.80786 0.13169 0.0
O74 O 0.85466 0.78762 0.11689 0.0
C75 C 0.95977 0.63238 0.13232 0.0
C76 C 0.00621 0.62877 0.14789 0.0
C77 C 0.98312 0.61149 0.13766 0.0
N78 N 0.96872 0.66069 0.13921 0.0
N79 N 0.99648 0.65829 0.1485 0.0
C80 C 0.9304 0.62599 0.11965 0.0
H81 H 0.92067 0.64758 0.11244 0.0
H82 H 0.91307 0.61605 0.13147 0.0
H83 H 0.93459 0.60891 0.10589 0.0
C84 C 0.88221 0.73178 0.17639 0.0
N85 N 0.90273 0.73215 0.1591 0.0
N86 N 0.91737 0.70544 0.15848 0.0
C87 C 0.90675 0.68731 0.17545 0.0
C88 C 0.88395 0.70327 0.18726 0.0
C89 C 0.86102 0.75808 0.18194 0.0
H90 H 0.84705 0.76389 0.16669 0.0
H91 H 0.84524 0.75238 0.19621 0.0
H92 H 0.87498 0.77876 0.18639 0.0
O93 O 0.958 0.77579 0.14174 0.0
O94 O 0.98198 0.73052 0.14081 0.0
H95 H 0.91299 0.64898 0.19881 0.0
H96 H 0.91165 0.63894 0.16906 0.0
C97 C 0.91996 0.65635 0.18147 0.0
H98 H 0.94555 0.6572 0.18063 0.0
H99 H 0.00892 0.67689 0.15515 0.0
O100 O 0.88949 0.80171 0.14289 0.0
C101 C 0.98272 0.75981 0.14257 0.0
Co102 Co 0.23305 0.91504 0.13758 0.0
Co103 Co 0.29779 0.94645 0.13344 0.0
C104 C 0.27139 0.91253 0.09423 0.0
O105 O 0.24679 0.90684 0.1055 0.0
O106 O 0.29393 0.92711 0.10316 0.0
C107 C 0.19088 0.8641 0.13518 0.0
O108 O 0.21308 0.85123 0.1232 0.0
C109 C 0.36392 0.96035 0.12658 0.0
C110 C 0.36877 0.00245 0.14772 0.0
C111 C 0.38486 0.98284 0.13338 0.0
N112 N 0.33663 0.96645 0.13655 0.0
N113 N 0.3397 0.9916 0.14915 0.0
C114 C 0.3687 0.935 0.1096 0.0
H115 H 0.3578 0.94194 0.09327 0.0
H116 H 0.35702 0.91359 0.11549 0.0
H117 H 0.39356 0.93045 0.10648 0.0
C118 C 0.26414 0.88647 0.17804 0.0
N119 N 0.26418 0.90452 0.15928 0.0
N120 N 0.2917 0.91711 0.15699 0.0
C121 C 0.31024 0.90701 0.17386 0.0
C122 C 0.29338 0.88745 0.18799 0.0
C123 C 0.23595 0.87059 0.18708 0.0
H124 H 0.21538 0.88559 0.18471 0.0
H125 H 0.23215 0.84889 0.1774 0.0
H126 H 0.23846 0.86493 0.20541 0.0
O127 O 0.22153 0.95924 0.14025 0.0
O128 O 0.26764 0.98064 0.13587 0.0
H129 H 0.34621 0.93912 0.18198 0.0
H130 H 0.35629 0.89913 0.18739 0.0
C131 C 0.34385 0.91501 0.17572 0.0
H132 H 0.35477 0.91354 0.15872 0.0
H133 H 0.32183 0.00153 0.15857 0.0
O134 O 0.1949 0.89107 0.14322 0.0
C135 C 0.23861 0.98311 0.13873 0.0
Co136 Co 0.58476 0.26473 0.3799 0.0
Co137 Co 0.54932 0.20177 0.38151 0.0
C138 C 0.58176 0.22667 0.42271 0.0
O139 O 0.59115 0.25051 0.41195 0.0
O140 O 0.56553 0.20604 0.41288 0.0
C141 C 0.6343 0.30824 0.38588 0.0
O142 O 0.64456 0.28788 0.40068 0.0
C143 C 0.53766 0.13483 0.38591 0.0
C144 C 0.49002 0.13186 0.37232 0.0
C145 C 0.51346 0.11446 0.38198 0.0
N146 N 0.52883 0.16307 0.37885 0.0
N147 N 0.50042 0.16107 0.37066 0.0
C148 C 0.5676 0.12814 0.39772 0.0
H149 H 0.58051 0.14979 0.40117 0.0
H150 H 0.58212 0.11302 0.38686 0.0
H151 H 0.5631 0.11559 0.41387 0.0
C152 C 0.61616 0.23261 0.34128 0.0
N153 N 0.59566 0.23327 0.35857 0.0
N154 N 0.58084 0.20668 0.35931 0.0
C155 C 0.59138 0.1883 0.34247 0.0
C156 C 0.61425 0.204 0.33056 0.0
C157 C 0.63753 0.25869 0.33559 0.0
H158 H 0.62373 0.27957 0.33136 0.0
H159 H 0.65185 0.26423 0.35072 0.0
H160 H 0.653 0.2529 0.32116 0.0
O161 O 0.54087 0.27782 0.37598 0.0
O162 O 0.51666 0.23272 0.37697 0.0
H163 H 0.55259 0.15809 0.33766 0.0
H164 H 0.58516 0.14951 0.31955 0.0
C165 C 0.57818 0.15722 0.33681 0.0
H166 H 0.58651 0.14008 0.34942 0.0
H167 H 0.48786 0.17978 0.36429 0.0
O168 O 0.60973 0.30246 0.3748 0.0
C169 C 0.51606 0.26199 0.37518 0.0
Co170 Co 0.73463 0.58556 0.38166 0.0
Co171 Co 0.79802 0.55068 0.38384 0.0
C172 C 0.77306 0.58389 0.42452 0.0
O173 O 0.74914 0.5928 0.41361 0.0
O174 O 0.79385 0.5676 0.41494 0.0
C175 C 0.69232 0.63655 0.38593 0.0
O176 O 0.71369 0.64814 0.39935 0.0
C177 C 0.8648 0.53636 0.38897 0.0
C178 C 0.86696 0.49141 0.37107 0.0
C179 C 0.88465 0.51243 0.38312 0.0
N180 N 0.83656 0.52976 0.38063 0.0
N181 N 0.83811 0.5029 0.36993 0.0
C182 C 0.87221 0.56412 0.4032 0.0
H183 H 0.85087 0.57532 0.40954 0.0
H184 H 0.88499 0.58123 0.39276 0.0
H185 H 0.88725 0.5574 0.4177 0.0
C186 C 0.76568 0.61447 0.34153 0.0
N187 N 0.76573 0.5957 0.35989 0.0
N188 N 0.7926 0.58148 0.36113 0.0
C189 C 0.81059 0.59089 0.34374 0.0
C190 C 0.79414 0.61205 0.33061 0.0
C191 C 0.73791 0.63218 0.33364 0.0
H192 H 0.71706 0.61732 0.33478 0.0
H193 H 0.73439 0.65239 0.34499 0.0
H194 H 0.74058 0.6404 0.31587 0.0
O195 O 0.72163 0.54162 0.37843 0.0
O196 O 0.76694 0.51787 0.38008 0.0
H197 H 0.84287 0.55526 0.33518 0.0
H198 H 0.85513 0.5937 0.32678 0.0
C199 C 0.84309 0.58006 0.34007 0.0
H200 H 0.85619 0.58231 0.35617 0.0
H201 H 0.81933 0.49218 0.36205 0.0
O202 O 0.69698 0.61056 0.37645 0.0
C203 C 0.73769 0.51693 0.3782 0.0
Co204 Co 0.41487 0.73528 0.38025 0.0
Co205 Co 0.44831 0.79912 0.38309 0.0
C206 C 0.41511 0.7743 0.42326 0.0
O207 O 0.40805 0.74981 0.41228 0.0
O208 O 0.43022 0.79614 0.41387 0.0
C209 C 0.36361 0.69357 0.38463 0.0
O210 O 0.35209 0.71541 0.39767 0.0
C211 C 0.46393 0.86488 0.38933 0.0
C212 C 0.50508 0.86889 0.36713 0.0
C213 C 0.48644 0.8854 0.38191 0.0
N214 N 0.46907 0.83745 0.37929 0.0
N215 N 0.49366 0.84 0.36606 0.0
C216 C 0.43954 0.87014 0.40696 0.0
H217 H 0.44696 0.85885 0.42303 0.0
H218 H 0.41757 0.85909 0.40154 0.0
H219 H 0.43578 0.89506 0.4104 0.0
C220 C 0.38569 0.76641 0.34009 0.0
N221 N 0.40444 0.7663 0.35847 0.0
N222 N 0.41784 0.79351 0.36024 0.0
C223 C 0.4076 0.81203 0.34341 0.0
C224 C 0.38706 0.79545 0.32984 0.0
C225 C 0.36876 0.73847 0.33166 0.0
H226 H 0.38343 0.71761 0.33375 0.0
H227 H 0.34751 0.73523 0.34197 0.0
H228 H 0.3622 0.74088 0.31349 0.0
O229 O 0.45865 0.7225 0.37696 0.0
O230 O 0.48156 0.76809 0.38004 0.0
H231 H 0.44032 0.84694 0.33425 0.0
H232 H 0.40044 0.85803 0.32959 0.0
C233 C 0.41644 0.84537 0.34104 0.0
H234 H 0.41596 0.85663 0.35796 0.0
H235 H 0.50281 0.8219 0.35645 0.0
O236 O 0.38978 0.69768 0.3753 0.0
C237 C 0.48305 0.73891 0.37759 0.0
Co238 Co 0.26493 0.41619 0.37981 0.0
Co239 Co 0.2009 0.44917 0.38337 0.0
C240 C 0.22653 0.41476 0.42292 0.0
O241 O 0.25099 0.40811 0.4118 0.0
O242 O 0.20461 0.43009 0.41381 0.0
C243 C 0.3074 0.36536 0.38271 0.0
O244 O 0.28562 0.35274 0.39524 0.0
C245 C 0.13461 0.46206 0.38965 0.0
C246 C 0.13008 0.5064 0.37109 0.0
C247 C 0.11373 0.48514 0.38391 0.0
N248 N 0.16215 0.46941 0.38056 0.0
N249 N 0.15927 0.49589 0.36948 0.0
C250 C 0.12942 0.43486 0.40493 0.0
H251 H 0.14551 0.4158 0.40045 0.0
H252 H 0.10519 0.42659 0.40404 0.0
H253 H 0.13421 0.44193 0.42274 0.0
C254 C 0.23373 0.38805 0.33931 0.0
N255 N 0.23375 0.40617 0.35801 0.0
N256 N 0.20656 0.4196 0.3599 0.0
C257 C 0.18822 0.41015 0.34272 0.0
C258 C 0.20483 0.38997 0.32891 0.0
C259 C 0.26167 0.37129 0.33071 0.0
H260 H 0.28242 0.38615 0.3326 0.0
H261 H 0.26527 0.35013 0.34108 0.0
H262 H 0.25907 0.36462 0.31258 0.0
O263 O 0.27709 0.46019 0.37713 0.0
O264 O 0.23145 0.48291 0.38057 0.0
H265 H 0.15395 0.44433 0.33513 0.0
H266 H 0.14283 0.40539 0.32724 0.0
C267 C 0.15508 0.41959 0.3401 0.0
H268 H 0.14303 0.41688 0.3566 0.0
H269 H 0.17735 0.50695 0.36101 0.0
O270 O 0.30294 0.39197 0.37417 0.0
C271 C 0.2606 0.48453 0.37806 0.0
Co272 Co 0.91385 0.76652 0.88105 0.0
Co273 Co 0.94792 0.70286 0.88373 0.0
C274 C 0.9149 0.72881 0.92415 0.0
O275 O 0.90727 0.75312 0.91321 0.0
O276 O 0.93016 0.70719 0.91464 0.0
C277 C 0.86434 0.80997 0.8864 0.0
O278 O 0.85397 0.78957 0.90111 0.0
C279 C 0.95842 0.63562 0.88808 0.0
C280 C 0.00635 0.63204 0.87521 0.0
C281 C 0.98233 0.61483 0.88424 0.0
N282 N 0.96797 0.66386 0.88155 0.0
N283 N 0.9966 0.6615 0.87385 0.0
C284 C 0.9279 0.62922 0.89915 0.0
H285 H 0.91672 0.65098 0.90476 0.0
H286 H 0.9123 0.6177 0.88682 0.0
H287 H 0.93107 0.6134 0.91386 0.0
C288 C 0.883 0.73455 0.84212 0.0
N289 N 0.90288 0.7349 0.85982 0.0
N290 N 0.91745 0.70817 0.86075 0.0
C291 C 0.9075 0.69008 0.84354 0.0
C292 C 0.88516 0.70606 0.83123 0.0
C293 C 0.86204 0.76087 0.83614 0.0
H294 H 0.87617 0.78143 0.83168 0.0
H295 H 0.84781 0.76693 0.85119 0.0
H296 H 0.84644 0.75508 0.82177 0.0
O297 O 0.95784 0.77893 0.87732 0.0
O298 O 0.98125 0.7335 0.87996 0.0
H299 H 0.94654 0.65983 0.83982 0.0
H300 H 0.91559 0.65237 0.81999 0.0
C301 C 0.92108 0.6592 0.83773 0.0
H302 H 0.91155 0.64151 0.84943 0.0
H303 H 0.00965 0.6801 0.86787 0.0
O304 O 0.88913 0.80432 0.87557 0.0
C305 C 0.98241 0.76269 0.87753 0.0
Co306 Co 0.23392 0.91624 0.88094 0.0
Co307 Co 0.29749 0.95031 0.8838 0.0
C308 C 0.27272 0.91598 0.92381 0.0
O309 O 0.24857 0.90803 0.91277 0.0
O310 O 0.29386 0.93214 0.91451 0.0
C311 C 0.19157 0.8653 0.88462 0.0
O312 O 0.21321 0.85326 0.89761 0.0
C313 C 0.36367 0.96377 0.89005 0.0
C314 C 0.36827 0.00695 0.87009 0.0
C315 C 0.38465 0.98637 0.88353 0.0
N316 N 0.33612 0.97072 0.88076 0.0
N317 N 0.33901 0.99656 0.86892 0.0
C318 C 0.36871 0.93732 0.90608 0.0
H319 H 0.35718 0.91625 0.89942 0.0
H320 H 0.3936 0.93275 0.90909 0.0
H321 H 0.35776 0.94299 0.92263 0.0
C322 C 0.26477 0.88834 0.84027 0.0
N323 N 0.26486 0.90652 0.85894 0.0
N324 N 0.29193 0.92025 0.86061 0.0
C325 C 0.31009 0.91092 0.84329 0.0
C326 C 0.29347 0.89053 0.82964 0.0
C327 C 0.23683 0.87137 0.83189 0.0
H328 H 0.216 0.88611 0.83388 0.0
H329 H 0.23351 0.85024 0.84234 0.0
H330 H 0.23919 0.86464 0.81376 0.0
O331 O 0.22124 0.96031 0.8784 0.0
O332 O 0.26673 0.98361 0.88069 0.0
H333 H 0.34366 0.9454 0.83487 0.0
H334 H 0.35535 0.90638 0.82764 0.0
C335 C 0.34303 0.92083 0.84032 0.0
H336 H 0.35535 0.91888 0.85678 0.0
H337 H 0.32095 0.00716 0.86009 0.0
O338 O 0.19607 0.89159 0.87554 0.0
C339 C 0.23749 0.98486 0.87871 0.0
Co340 Co 0.08361 0.2362 0.88114 0.0
Co341 Co 0.04983 0.29992 0.88346 0.0
C342 C 0.08331 0.27632 0.92378 0.0
O343 O 0.09041 0.25168 0.91299 0.0
O344 O 0.06805 0.29798 0.91426 0.0
C345 C 0.13477 0.1941 0.88604 0.0
O346 O 0.14637 0.21571 0.89926 0.0
C347 C 0.03186 0.36574 0.88775 0.0
C348 C 0.99188 0.36683 0.86425 0.0
C349 C 0.00913 0.38517 0.87885 0.0
N350 N 0.02794 0.33743 0.87874 0.0
N351 N 0.00395 0.33824 0.86483 0.0
C352 C 0.0582 0.37398 0.90313 0.0
H353 H 0.07726 0.35695 0.90133 0.0
H354 H 0.06696 0.39751 0.89918 0.0
H355 H 0.05012 0.37352 0.92104 0.0
C356 C 0.11177 0.26651 0.84029 0.0
N357 N 0.09349 0.26676 0.8589 0.0
N358 N 0.0801 0.29399 0.86056 0.0
C359 C 0.08993 0.3122 0.84343 0.0
C360 C 0.11011 0.29536 0.82975 0.0
C361 C 0.12845 0.23838 0.83193 0.0
H362 H 0.11395 0.21754 0.83463 0.0
H363 H 0.15011 0.23547 0.84185 0.0
H364 H 0.13426 0.24031 0.8136 0.0
O365 O 0.04003 0.22286 0.87812 0.0
O366 O 0.01705 0.26839 0.88107 0.0
H367 H 0.05728 0.34704 0.83389 0.0
H368 H 0.09721 0.35808 0.82947 0.0
C369 C 0.08109 0.34551 0.84087 0.0
H370 H 0.08141 0.35691 0.85773 0.0
H371 H 0.99593 0.31924 0.85561 0.0
O372 O 0.1088 0.19858 0.8765 0.0
C373 C 0.0156 0.23921 0.87884 0.0
Co374 Co 0.76391 0.08653 0.88026 0.0
Co375 Co 0.70019 0.05277 0.88234 0.0
C376 C 0.72424 0.08573 0.9229 0.0
O377 O 0.74885 0.09282 0.91212 0.0
O378 O 0.70243 0.07076 0.91331 0.0
C379 C 0.8062 0.13721 0.88575 0.0
O380 O 0.78481 0.14836 0.89935 0.0
C381 C 0.634 0.03639 0.88645 0.0
C382 C 0.63235 0.99529 0.86408 0.0
C383 C 0.61418 0.01369 0.87801 0.0
N384 N 0.66235 0.03136 0.87782 0.0
N385 N 0.6612 0.00671 0.86458 0.0
C386 C 0.62618 0.06367 0.90102 0.0
H387 H 0.64374 0.08217 0.89889 0.0
H388 H 0.60296 0.07285 0.89659 0.0
H389 H 0.62612 0.05645 0.91915 0.0
C390 C 0.7336 0.11589 0.84001 0.0
N391 N 0.73324 0.09705 0.85832 0.0
N392 N 0.70619 0.08321 0.85948 0.0
C393 C 0.68834 0.09301 0.84211 0.0
C394 C 0.70512 0.11393 0.82905 0.0
C395 C 0.76157 0.13335 0.83228 0.0
H396 H 0.78231 0.11833 0.83359 0.0
H397 H 0.76512 0.15355 0.84363 0.0
H398 H 0.75912 0.14155 0.81448 0.0
O399 O 0.77702 0.04293 0.87678 0.0
O400 O 0.73156 0.01979 0.87968 0.0
H401 H 0.65536 0.05854 0.83254 0.0
H402 H 0.64357 0.09765 0.82573 0.0
C403 C 0.65559 0.08293 0.83842 0.0
H404 H 0.64279 0.08422 0.8547 0.0
H405 H 0.68014 0.99779 0.85575 0.0
O406 O 0.80152 0.11163 0.87571 0.0
C407 C 0.76075 0.01845 0.87735 0.0
Co408 Co 0.40809 0.73676 0.63658 0.0
Co409 Co 0.44946 0.7962 0.63573 0.0
C410 C 0.41489 0.77452 0.59415 0.0
O411 O 0.40301 0.75174 0.60479 0.0
O412 O 0.43311 0.79333 0.60412 0.0
C413 C 0.38581 0.67729 0.62926 0.0
O414 O 0.40908 0.67811 0.61489 0.0
C415 C 0.46511 0.86261 0.63232 0.0
C416 C 0.51273 0.86266 0.64607 0.0
C417 C 0.4902 0.8817 0.63689 0.0
N418 N 0.47252 0.83362 0.63864 0.0
N419 N 0.50099 0.83387 0.64687 0.0
C420 C 0.43552 0.87123 0.62068 0.0
H421 H 0.42311 0.85036 0.61466 0.0
H422 H 0.42028 0.88366 0.63277 0.0
H423 H 0.44031 0.88697 0.60617 0.0
C424 C 0.37915 0.77065 0.67503 0.0
N425 N 0.39986 0.76861 0.65797 0.0
N426 N 0.41727 0.79361 0.65785 0.0
C427 C 0.40826 0.81227 0.67503 0.0
C428 C 0.38368 0.79846 0.68639 0.0
C429 C 0.3553 0.74651 0.68001 0.0
H430 H 0.34332 0.73998 0.66401 0.0
H431 H 0.33802 0.75477 0.69257 0.0
H432 H 0.36694 0.72552 0.68673 0.0
O433 O 0.45067 0.7202 0.64062 0.0
O434 O 0.47966 0.76243 0.64018 0.0
H435 H 0.41886 0.84829 0.69941 0.0
H436 H 0.41707 0.8604 0.67012 0.0
C437 C 0.42445 0.84152 0.68167 0.0
H438 H 0.44981 0.83854 0.68009 0.0
H439 H 0.51256 0.81428 0.65282 0.0
O440 O 0.37992 0.70122 0.64104 0.0
C441 C 0.47705 0.7332 0.64166 0.0
Co442 Co 0.26261 0.4106 0.63643 0.0
Co443 Co 0.20113 0.44915 0.63427 0.0
C444 C 0.22463 0.41436 0.59358 0.0
O445 O 0.24784 0.40389 0.60457 0.0
O446 O 0.20488 0.43201 0.6031 0.0
C447 C 0.30479 0.35914 0.63167 0.0
O448 O 0.28437 0.34845 0.61709 0.0
C449 C 0.1347 0.46604 0.62901 0.0
C450 C 0.13369 0.51002 0.6482 0.0
C451 C 0.11537 0.49005 0.63569 0.0
N452 N 0.16317 0.4715 0.63742 0.0
N453 N 0.16231 0.49786 0.64882 0.0
C454 C 0.12649 0.43917 0.61409 0.0
H455 H 0.14738 0.42908 0.60616 0.0
H456 H 0.11525 0.42095 0.62448 0.0
H457 H 0.1099 0.44648 0.6007 0.0
C458 C 0.23023 0.38329 0.67641 0.0
N459 N 0.23114 0.40225 0.65818 0.0
N460 N 0.20502 0.4178 0.65693 0.0
C461 C 0.18642 0.40886 0.67413 0.0
C462 C 0.20179 0.38678 0.68721 0.0
C463 C 0.25718 0.36433 0.68427 0.0
H464 H 0.27872 0.37815 0.68296 0.0
H465 H 0.25963 0.34386 0.67302 0.0
H466 H 0.25433 0.35648 0.70211 0.0
O467 O 0.27737 0.45373 0.63941 0.0
O468 O 0.23385 0.48074 0.63816 0.0
H469 H 0.155 0.44509 0.68307 0.0
H470 H 0.14106 0.40667 0.68995 0.0
C471 C 0.15416 0.42062 0.67741 0.0
H472 H 0.14168 0.4197 0.661 0.0
H473 H 0.18138 0.50766 0.65697 0.0
O474 O 0.29947 0.38447 0.64189 0.0
C475 C 0.26316 0.47951 0.63981 0.0
Co476 Co 0.58385 0.26541 0.63668 0.0
Co477 Co 0.5514 0.20051 0.63418 0.0
C478 C 0.58347 0.22701 0.59366 0.0
O479 O 0.5903 0.25157 0.60459 0.0
O480 O 0.56899 0.20482 0.60318 0.0
C481 C 0.6324 0.31012 0.63079 0.0
O482 O 0.64292 0.28997 0.61595 0.0
C483 C 0.54019 0.1328 0.63053 0.0
C484 C 0.49344 0.13001 0.64564 0.0
C485 C 0.51637 0.11235 0.63561 0.0
N486 N 0.5316 0.16128 0.63731 0.0
N487 N 0.5037 0.15933 0.6464 0.0
C488 C 0.56959 0.1258 0.61813 0.0
H489 H 0.58101 0.14739 0.6124 0.0
H490 H 0.58566 0.11334 0.62963 0.0
H491 H 0.56478 0.11056 0.60334 0.0
C492 C 0.61591 0.23417 0.67539 0.0
N493 N 0.59563 0.23413 0.65792 0.0
N494 N 0.58196 0.20694 0.65695 0.0
C495 C 0.593 0.18889 0.67381 0.0
C496 C 0.61503 0.20543 0.68599 0.0
C497 C 0.63622 0.26103 0.68127 0.0
H498 H 0.65052 0.26712 0.66626 0.0
H499 H 0.65173 0.25579 0.69582 0.0
H500 H 0.6216 0.28136 0.68542 0.0
O501 O 0.53965 0.27682 0.64051 0.0
O502 O 0.51755 0.23078 0.63761 0.0
H503 H 0.58849 0.14937 0.69632 0.0
H504 H 0.58983 0.14068 0.66632 0.0
C505 C 0.58106 0.15721 0.67919 0.0
H506 H 0.55544 0.15716 0.6785 0.0
H507 H 0.49143 0.17814 0.6529 0.0
O508 O 0.60793 0.3039 0.64185 0.0
C509 C 0.51555 0.25992 0.6401 0.0
Co510 Co 0.73373 0.58699 0.63841 0.0
Co511 Co 0.7973 0.55243 0.63551 0.0
C512 C 0.77148 0.58631 0.59534 0.0
O513 O 0.74724 0.5939 0.60636 0.0
O514 O 0.79312 0.57083 0.6047 0.0
C515 C 0.67197 0.60565 0.63279 0.0
O516 O 0.67274 0.58235 0.61843 0.0
C517 C 0.86468 0.54127 0.6315 0.0
C518 C 0.86748 0.49286 0.64351 0.0
C519 C 0.88511 0.51693 0.635 0.0
N520 N 0.83623 0.53191 0.63771 0.0
N521 N 0.83816 0.50301 0.64495 0.0
C522 C 0.87159 0.57197 0.62089 0.0
H523 H 0.84994 0.58468 0.617 0.0
H524 H 0.88562 0.58611 0.63277 0.0
H525 H 0.88534 0.56864 0.60513 0.0
C526 C 0.76599 0.61734 0.67728 0.0
N527 N 0.76547 0.59743 0.65962 0.0
N528 N 0.79209 0.58267 0.65868 0.0
C529 C 0.81028 0.59251 0.67588 0.0
C530 C 0.79446 0.61498 0.68818 0.0
C531 C 0.73983 0.63854 0.68318 0.0
H532 H 0.72029 0.62466 0.68992 0.0
H533 H 0.73167 0.6505 0.66758 0.0
H534 H 0.74679 0.65605 0.696 0.0
O535 O 0.72097 0.54302 0.64189 0.0
O536 O 0.76618 0.51929 0.63885 0.0
H537 H 0.84046 0.55338 0.67939 0.0
H538 H 0.84802 0.58412 0.69937 0.0
C539 C 0.84113 0.57883 0.6816 0.0
H540 H 0.8588 0.58844 0.66992 0.0
H541 H 0.81934 0.49 0.65058 0.0
O542 O 0.69637 0.6125 0.64375 0.0
C543 C 0.73699 0.51831 0.64133 0.0
H544 H 0.10048 0.22991 0.95283 0.0
H545 H 0.08172 0.32805 0.95064 0.0
H546 H 0.10456 0.2323 0.99404 0.0
H547 H 0.08719 0.33079 0.99185 0.0
H548 H 0.05293 0.31452 0.06492 0.0
H549 H 0.05813 0.31661 0.02384 0.0
H550 H 0.13108 0.24826 0.02694 0.0
H551 H 0.12486 0.24521 0.0681 0.0
C552 C 0.09793 0.25216 0.9611 0.0
C553 C 0.09041 0.27871 0.94843 0.0
C554 C 0.10045 0.2536 0.98482 0.0
C555 C 0.09589 0.28171 0.99646 0.0
C556 C 0.09009 0.30858 0.9836 0.0
C557 C 0.08718 0.30707 0.95991 0.0
C558 C 0.07034 0.30016 0.0569 0.0
C559 C 0.08825 0.27946 0.06984 0.0
C560 C 0.07349 0.30151 0.03325 0.0
C561 C 0.09492 0.28246 0.02188 0.0
C562 C 0.11387 0.26281 0.03498 0.0
C563 C 0.11046 0.26121 0.05865 0.0
H564 H 0.67247 0.08625 0.94973 0.0
H565 H 0.77135 0.10019 0.95203 0.0
H566 H 0.66997 0.09169 0.99095 0.0
H567 H 0.76921 0.10399 0.99323 0.0
H568 H 0.75778 0.12344 0.06755 0.0
H569 H 0.75531 0.13027 0.02638 0.0
H570 H 0.68206 0.0623 0.02285 0.0
H571 H 0.68352 0.05676 0.06385 0.0
C572 C 0.69367 0.0906 0.95904 0.0
C573 C 0.72213 0.09255 0.94759 0.0
C574 C 0.6923 0.09348 0.98274 0.0
C575 C 0.71944 0.09783 0.99564 0.0
C576 C 0.74772 0.10104 0.98401 0.0
C577 C 0.749 0.09867 0.96029 0.0
C578 C 0.74087 0.11031 0.05797 0.0
C579 C 0.72098 0.08943 0.06903 0.0
C580 C 0.73958 0.11404 0.0343 0.0
C581 C 0.71865 0.09667 0.02107 0.0
C582 C 0.69816 0.07652 0.03232 0.0
C583 C 0.69916 0.07313 0.05595 0.0
H584 H 0.90099 0.7758 0.95356 0.0
H585 H 0.91394 0.6768 0.9506 0.0
H586 H 0.89719 0.77308 0.9948 0.0
H587 H 0.90855 0.67374 0.99178 0.0
H588 H 0.94336 0.68563 0.06483 0.0
H589 H 0.93825 0.6852 0.02375 0.0
H590 H 0.87042 0.75857 0.02777 0.0
H591 H 0.87674 0.75995 0.06901 0.0
C592 C 0.90231 0.75333 0.96169 0.0
C593 C 0.90815 0.72657 0.94882 0.0
C594 C 0.89995 0.75171 0.98541 0.0
C595 C 0.90291 0.7232 0.99683 0.0
C596 C 0.90698 0.69622 0.98374 0.0
C597 C 0.90984 0.69792 0.96007 0.0
C598 C 0.92711 0.7015 0.05701 0.0
C599 C 0.91067 0.72301 0.07024 0.0
C600 C 0.92398 0.70111 0.03335 0.0
C601 C 0.90397 0.72193 0.02224 0.0
C602 C 0.88653 0.7426 0.03561 0.0
C603 C 0.88998 0.74326 0.0593 0.0
H604 H 0.23595 0.87742 0.94935 0.0
H605 H 0.31486 0.9384 0.9542 0.0
H606 H 0.23736 0.86975 0.99051 0.0
H607 H 0.3155 0.93189 0.9951 0.0
H608 H 0.32288 0.90625 0.0677 0.0
H609 H 0.3251 0.90036 0.02653 0.0
H610 H 0.22518 0.89714 0.02395 0.0
H611 H 0.22317 0.90152 0.0652 0.0
C612 C 0.2537 0.88905 0.95916 0.0
C613 C 0.2752 0.90864 0.94844 0.0
C614 C 0.25439 0.88483 0.9828 0.0
C615 C 0.27642 0.90032 0.99631 0.0
C616 C 0.2985 0.91908 0.98539 0.0
C617 C 0.29801 0.92302 0.96181 0.0
C618 C 0.30142 0.90379 0.05835 0.0
C619 C 0.27284 0.90469 0.0697 0.0
C620 C 0.30265 0.90063 0.03469 0.0
C621 C 0.27531 0.89884 0.02171 0.0
C622 C 0.24677 0.89816 0.03325 0.0
C623 C 0.24558 0.90083 0.05698 0.0
H624 H 0.62142 0.26103 0.44909 0.0
H625 H 0.55541 0.18614 0.45257 0.0
H626 H 0.62774 0.25892 0.49032 0.0
H627 H 0.56053 0.18497 0.49362 0.0
H628 H 0.58486 0.17541 0.56672 0.0
H629 H 0.59031 0.17312 0.52551 0.0
H630 H 0.60076 0.2726 0.52339 0.0
H631 H 0.59688 0.27457 0.56463 0.0
C632 C 0.60832 0.24406 0.45863 0.0
C633 C 0.58779 0.22387 0.4475 0.0
C634 C 0.61177 0.24297 0.48233 0.0
C635 C 0.59451 0.22192 0.4955 0.0
C636 C 0.57467 0.20117 0.48419 0.0
C637 C 0.57153 0.20199 0.46053 0.0
C638 C 0.58877 0.19672 0.55745 0.0
C639 C 0.59018 0.22519 0.56895 0.0
C640 C 0.59167 0.19547 0.53376 0.0
C641 C 0.59552 0.22272 0.52091 0.0
C642 C 0.59818 0.25105 0.53259 0.0
C643 C 0.59577 0.25223 0.55631 0.0
H644 H 0.73817 0.62358 0.45051 0.0
H645 H 0.81381 0.55845 0.45466 0.0
H646 H 0.73997 0.63033 0.49172 0.0
H647 H 0.81465 0.56393 0.49566 0.0
H648 H 0.82327 0.58811 0.56869 0.0
H649 H 0.82588 0.59371 0.5275 0.0
H650 H 0.72638 0.60368 0.52491 0.0
H651 H 0.72412 0.59973 0.56614 0.0
C652 C 0.75524 0.61078 0.4602 0.0
C653 C 0.77572 0.59036 0.44926 0.0
C654 C 0.75615 0.61447 0.48388 0.0
C655 C 0.77731 0.59754 0.49723 0.0
C656 C 0.79836 0.57784 0.4861 0.0
C657 C 0.79773 0.57448 0.46247 0.0
C658 C 0.80203 0.59198 0.55932 0.0
C659 C 0.77347 0.59324 0.57068 0.0
C660 C 0.80346 0.59496 0.53564 0.0
C661 C 0.7763 0.59868 0.52265 0.0
C662 C 0.74788 0.60122 0.5342 0.0
C663 C 0.74652 0.59878 0.55792 0.0
H664 H 0.37351 0.74276 0.56753 0.0
H665 H 0.44385 0.81365 0.56447 0.0
H666 H 0.36786 0.7451 0.52628 0.0
H667 H 0.43917 0.8151 0.52333 0.0
H668 H 0.41494 0.826 0.45011 0.0
H669 H 0.40945 0.82858 0.4913 0.0
H670 H 0.39536 0.72959 0.49352 0.0
H671 H 0.3996 0.7273 0.45228 0.0
C672 C 0.38768 0.75895 0.55808 0.0
C673 C 0.40926 0.77789 0.56934 0.0
C674 C 0.3846 0.76014 0.53437 0.0
C675 C 0.40321 0.78011 0.52131 0.0
C676 C 0.42406 0.79974 0.53272 0.0
C677 C 0.42693 0.79877 0.5564 0.0
C678 C 0.41027 0.80485 0.45938 0.0
C679 C 0.40802 0.7764 0.44791 0.0
C680 C 0.40731 0.80628 0.48305 0.0
C681 C 0.4024 0.77924 0.49591 0.0
C682 C 0.3988 0.75098 0.48428 0.0
C683 C 0.40139 0.74962 0.46056 0.0
H684 H 0.18428 0.44069 0.5635 0.0
H685 H 0.25876 0.37419 0.56744 0.0
H686 H 0.18349 0.43557 0.52246 0.0
H687 H 0.25708 0.36796 0.52619 0.0
H688 H 0.27383 0.40038 0.45202 0.0
H689 H 0.27135 0.39551 0.49324 0.0
H690 H 0.17189 0.40559 0.49052 0.0
H691 H 0.17467 0.41193 0.4494 0.0
C692 C 0.20012 0.42446 0.55565 0.0
C693 C 0.22178 0.40807 0.56882 0.0
C694 C 0.19951 0.42132 0.532 0.0
C695 C 0.2203 0.4014 0.52081 0.0
C696 C 0.2411 0.38397 0.5341 0.0
C697 C 0.24193 0.38737 0.55781 0.0
C698 C 0.2514 0.40113 0.4602 0.0
C699 C 0.2245 0.40697 0.44745 0.0
C700 C 0.24992 0.39817 0.4839 0.0
C701 C 0.22144 0.40055 0.4954 0.0
C702 C 0.19434 0.40447 0.4824 0.0
C703 C 0.19588 0.40789 0.45877 0.0
H704 H 0.26823 0.03875 0.13528 0.0
H705 H 0.17741 0.99845 0.14375 0.0
H706 H 0.24533 0.09018 0.13461 0.0
H707 H 0.15452 0.05004 0.14278 0.0
H708 H 0.12697 0.14883 0.16075 0.0
H709 H 0.15187 0.09852 0.16472 0.0
H710 H 0.21264 0.12046 0.10867 0.0
H711 H 0.18803 0.17098 0.10484 0.0
C712 C 0.24338 0.04082 0.13705 0.0
C713 C 0.22464 0.01441 0.13947 0.0
C714 C 0.23027 0.07033 0.13655 0.0
C715 C 0.19813 0.07417 0.13853 0.0
C716 C 0.17942 0.04785 0.14143 0.0
C717 C 0.19252 0.01827 0.14188 0.0
C718 C 0.1458 0.14304 0.14936 0.0
C719 C 0.15544 0.16388 0.1324 0.0
C720 C 0.15992 0.11412 0.15156 0.0
C721 C 0.18409 0.10545 0.13693 0.0
C722 C 0.19425 0.12658 0.12034 0.0
C723 C 0.18007 0.15548 0.11809 0.0
H724 H 0.83395 0.15419 0.15814 0.0
H725 H 0.87989 0.09606 0.10876 0.0
H726 H 0.88137 0.18415 0.16286 0.0
H727 H 0.92698 0.12632 0.11318 0.0
H728 H 0.01492 0.16875 0.1411 0.0
H729 H 0.96801 0.13746 0.1404 0.0
H730 H 0.91248 0.22058 0.14103 0.0
H731 H 0.95922 0.25186 0.14219 0.0
C732 C 0.85413 0.14783 0.14827 0.0
C733 C 0.85312 0.12279 0.13303 0.0
C734 C 0.88126 0.16507 0.15092 0.0
C735 C 0.90796 0.1576 0.13841 0.0
C736 C 0.90697 0.1324 0.12332 0.0
C737 C 0.87987 0.1152 0.12066 0.0
C738 C 0.99271 0.18037 0.14129 0.0
C739 C 0.99088 0.21284 0.14159 0.0
C740 C 0.96583 0.16242 0.14075 0.0
C741 C 0.93651 0.17653 0.14051 0.0
C742 C 0.93468 0.20897 0.14143 0.0
C743 C 0.96153 0.22691 0.14196 0.0
H744 H 0.82346 0.00425 0.14027 0.0
H745 H 0.73405 0.95952 0.14263 0.0
H746 H 0.84854 0.95356 0.1396 0.0
H747 H 0.75909 0.90921 0.14227 0.0
H748 H 0.81231 0.82805 0.11088 0.0
H749 H 0.78771 0.87851 0.11441 0.0
H750 H 0.85761 0.90655 0.16275 0.0
H751 H 0.88255 0.85611 0.15903 0.0
C752 C 0.80917 0.98368 0.14089 0.0
C753 C 0.77673 0.986 0.14133 0.0
C754 C 0.82354 0.95465 0.14059 0.0
C755 C 0.80576 0.92738 0.14068 0.0
C756 C 0.77341 0.92977 0.14177 0.0
C757 C 0.75908 0.95868 0.1421 0.0
C758 C 0.82239 0.84489 0.12235 0.0
C759 C 0.8494 0.83804 0.13465 0.0
C760 C 0.80819 0.87378 0.12445 0.0
C761 C 0.8207 0.89653 0.13888 0.0
C762 C 0.84761 0.88963 0.15132 0.0
C763 C 0.86176 0.86066 0.14928 0.0
H764 H 0.14112 0.88367 0.16003 0.0
H765 H 0.17287 0.80843 0.11759 0.0
H766 H 0.09104 0.85835 0.16403 0.0
H767 H 0.12262 0.78349 0.12121 0.0
H768 H 0.03927 0.7327 0.14818 0.0
H769 H 0.08971 0.75755 0.14846 0.0
H770 H 0.04588 0.84681 0.14081 0.0
H771 H 0.99521 0.822 0.14102 0.0
C772 C 0.13744 0.86171 0.15156 0.0
C773 C 0.16097 0.84809 0.13843 0.0
C774 C 0.10866 0.8473 0.15377 0.0
C775 C 0.10278 0.81895 0.1429 0.0
C776 C 0.1265 0.80512 0.13006 0.0
C777 C 0.15528 0.8195 0.12787 0.0
C778 C 0.0403 0.75766 0.14672 0.0
C779 C 0.01315 0.77535 0.14444 0.0
C780 C 0.06928 0.77188 0.14675 0.0
C781 C 0.07185 0.80412 0.14444 0.0
C782 C 0.04469 0.82193 0.14282 0.0
C783 C 0.01564 0.8077 0.14285 0.0
H784 H 0.76533 0.46023 0.37613 0.0
H785 H 0.67546 0.5042 0.37709 0.0
H786 H 0.74072 0.4097 0.37625 0.0
H787 H 0.65084 0.45335 0.37754 0.0
H788 H 0.61769 0.35617 0.358 0.0
H789 H 0.64276 0.40648 0.35433 0.0
H790 H 0.71157 0.37872 0.40363 0.0
H791 H 0.68684 0.32831 0.40709 0.0
C792 C 0.7403 0.45917 0.3763 0.0
C793 C 0.72237 0.48634 0.37674 0.0
C794 C 0.72622 0.43015 0.37649 0.0
C795 C 0.69386 0.42752 0.37711 0.0
C796 C 0.67584 0.45463 0.3769 0.0
C797 C 0.68995 0.48376 0.37674 0.0
C798 C 0.63827 0.36073 0.36797 0.0
C799 C 0.65026 0.33824 0.38287 0.0
C800 C 0.6525 0.38963 0.36596 0.0
C801 C 0.6791 0.3966 0.37871 0.0
C802 C 0.69132 0.37393 0.39336 0.0
C803 C 0.67705 0.34508 0.39542 0.0
H804 H 0.53944 0.76728 0.37578 0.0
H805 H 0.49657 0.67691 0.37674 0.0
H806 H 0.59028 0.7432 0.37597 0.0
H807 H 0.5476 0.65284 0.3774 0.0
H808 H 0.64415 0.6194 0.35854 0.0
H809 H 0.59395 0.64452 0.35466 0.0
H810 H 0.62234 0.71476 0.40263 0.0
H811 H 0.67275 0.69001 0.40619 0.0
C812 C 0.54082 0.74226 0.376 0.0
C813 C 0.51387 0.72402 0.37636 0.0
C814 C 0.57002 0.72847 0.37624 0.0
C815 C 0.57302 0.69612 0.37687 0.0
C816 C 0.5461 0.67784 0.37669 0.0
C817 C 0.51684 0.69164 0.37642 0.0
C818 C 0.63975 0.6403 0.36817 0.0
C819 C 0.66243 0.65266 0.38274 0.0
C820 C 0.6109 0.65459 0.36603 0.0
C821 C 0.60408 0.68156 0.3784 0.0
C822 C 0.62697 0.69421 0.39266 0.0
C823 C 0.65583 0.67994 0.39479 0.0
H824 H 0.23216 0.54098 0.37678 0.0
H825 H 0.32252 0.49804 0.37684 0.0
H826 H 0.25626 0.59183 0.37661 0.0
H827 H 0.3466 0.54902 0.37717 0.0
H828 H 0.38 0.64501 0.35742 0.0
H829 H 0.35455 0.59493 0.35412 0.0
H830 H 0.28529 0.6243 0.40251 0.0
H831 H 0.31034 0.67463 0.40545 0.0
C832 C 0.25718 0.54235 0.37675 0.0
C833 C 0.27541 0.51538 0.37691 0.0
C834 C 0.27098 0.57154 0.37678 0.0
C835 C 0.30334 0.5745 0.377 0.0
C836 C 0.3216 0.54755 0.37674 0.0
C837 C 0.30779 0.51831 0.37666 0.0
C838 C 0.35923 0.64086 0.36727 0.0
C839 C 0.34724 0.66378 0.38177 0.0
C840 C 0.34476 0.61207 0.36546 0.0
C841 C 0.31799 0.60555 0.37813 0.0
C842 C 0.30568 0.62869 0.39231 0.0
C843 C 0.32012 0.65751 0.39408 0.0
H844 H 0.32603 0.31004 0.4006 0.0
H845 H 0.3569 0.38516 0.35768 0.0
H846 H 0.3765 0.2855 0.397 0.0
H847 H 0.40724 0.36027 0.35374 0.0
H848 H 0.50353 0.32425 0.37679 0.0
H849 H 0.45274 0.349 0.37708 0.0
H850 H 0.40913 0.25969 0.36934 0.0
H851 H 0.45958 0.23494 0.36949 0.0
C852 C 0.34348 0.32118 0.39022 0.0
C853 C 0.33746 0.34959 0.3795 0.0
C854 C 0.37238 0.30704 0.38806 0.0
C855 C 0.39591 0.32095 0.37508 0.0
C856 C 0.38974 0.34916 0.36409 0.0
C857 C 0.36082 0.36331 0.36625 0.0
C858 C 0.48311 0.30994 0.37495 0.0
C859 C 0.48565 0.2776 0.37331 0.0
C860 C 0.45401 0.32413 0.37504 0.0
C861 C 0.42689 0.30626 0.37344 0.0
C862 C 0.42953 0.27405 0.37104 0.0
C863 C 0.45853 0.25989 0.371 0.0
H864 H 0.88019 0.85731 0.85779 0.0
H865 H 0.81195 0.83017 0.90769 0.0
H866 H 0.85477 0.90738 0.8537 0.0
H867 H 0.78689 0.88038 0.90385 0.0
H868 H 0.73272 0.96185 0.87647 0.0
H869 H 0.75716 0.91117 0.8768 0.0
H870 H 0.84722 0.95445 0.87636 0.0
H871 H 0.82279 0.00535 0.87564 0.0
C872 C 0.85974 0.86198 0.86785 0.0
C873 C 0.84813 0.83978 0.88312 0.0
C874 C 0.84529 0.89074 0.86559 0.0
C875 C 0.81888 0.89788 0.87849 0.0
C876 C 0.80699 0.87546 0.89346 0.0
C877 C 0.82145 0.84673 0.89575 0.0
C878 C 0.75775 0.96064 0.87631 0.0
C879 C 0.77581 0.98771 0.87617 0.0
C880 C 0.77174 0.93155 0.87662 0.0
C881 C 0.8041 0.92879 0.87678 0.0
C882 C 0.8222 0.95581 0.87604 0.0
C883 C 0.8082 0.98498 0.87574 0.0
H884 H 0.14276 0.88335 0.85812 0.0
H885 H 0.17242 0.8113 0.90428 0.0
H886 H 0.09247 0.85834 0.85444 0.0
H887 H 0.12196 0.78668 0.90095 0.0
H888 H 0.03888 0.73469 0.87445 0.0
H889 H 0.08956 0.75899 0.87426 0.0
H890 H 0.04649 0.8491 0.87739 0.0
H891 H 0.99555 0.8248 0.8771 0.0
C892 C 0.13858 0.86215 0.86746 0.0
C893 C 0.16159 0.84934 0.88154 0.0
C894 C 0.10968 0.84793 0.86545 0.0
C895 C 0.10315 0.82057 0.87744 0.0
C896 C 0.12635 0.80753 0.89124 0.0
C897 C 0.15525 0.82173 0.89324 0.0
C898 C 0.04012 0.75971 0.87495 0.0
C899 C 0.01309 0.7778 0.87592 0.0
C900 C 0.06924 0.77362 0.87497 0.0
C901 C 0.0721 0.80596 0.87601 0.0
C902 C 0.04509 0.82412 0.87638 0.0
C903 C 0.01588 0.81019 0.87631 0.0
H904 H 0.26551 0.04137 0.87644 0.0
H905 H 0.17539 0.99806 0.87852 0.0
H906 H 0.24121 0.09209 0.87661 0.0
H907 H 0.15111 0.04903 0.87913 0.0
H908 H 0.11733 0.14536 0.85934 0.0
H909 H 0.14238 0.09507 0.85594 0.0
H910 H 0.21302 0.12435 0.90332 0.0
H911 H 0.18833 0.17486 0.9064 0.0
C912 C 0.24049 0.04263 0.87692 0.0
C913 C 0.22239 0.01559 0.87758 0.0
C914 C 0.22659 0.07176 0.87714 0.0
C915 C 0.19425 0.07462 0.87805 0.0
C916 C 0.17609 0.04761 0.87821 0.0
C917 C 0.19001 0.0184 0.87796 0.0
C918 C 0.1383 0.14114 0.86895 0.0
C919 C 0.15081 0.16411 0.8832 0.0
C920 C 0.15254 0.11224 0.86709 0.0
C921 C 0.17961 0.10565 0.87941 0.0
C922 C 0.19238 0.1288 0.89338 0.0
C923 C 0.17815 0.15772 0.89524 0.0
H924 H 0.85448 0.12063 0.85838 0.0
H925 H 0.82584 0.18989 0.90707 0.0
H926 H 0.90482 0.14558 0.85518 0.0
H927 H 0.87639 0.21449 0.90416 0.0
H928 H 0.95922 0.26759 0.87754 0.0
H929 H 0.9084 0.24354 0.87768 0.0
H930 H 0.95109 0.15314 0.87843 0.0
H931 H 0.00214 0.1772 0.87786 0.0
C932 C 0.8589 0.1412 0.86839 0.0
C933 C 0.83617 0.15324 0.88303 0.0
C934 C 0.88782 0.15537 0.86664 0.0
C935 C 0.89465 0.18192 0.87948 0.0
C936 C 0.87174 0.19425 0.89384 0.0
C937 C 0.8428 0.18008 0.89559 0.0
C938 C 0.95785 0.24257 0.87763 0.0
C939 C 0.9848 0.22431 0.8778 0.0
C940 C 0.92867 0.2288 0.87784 0.0
C941 C 0.9257 0.19645 0.87822 0.0
C942 C 0.95261 0.17815 0.87791 0.0
C943 C 0.98187 0.19193 0.87769 0.0
H944 H 0.39448 0.6222 0.60767 0.0
H945 H 0.33579 0.66747 0.65702 0.0
H946 H 0.36487 0.57476 0.61207 0.0
H947 H 0.30632 0.61961 0.66165 0.0
H948 H 0.2409 0.53883 0.64087 0.0
H949 H 0.27052 0.58678 0.63959 0.0
H950 H 0.35556 0.53429 0.6404 0.0
H951 H 0.32606 0.48631 0.64131 0.0
C952 C 0.3753 0.62202 0.61952 0.0
C953 C 0.36748 0.64863 0.63198 0.0
C954 C 0.35847 0.59472 0.62216 0.0
C955 C 0.33338 0.59337 0.63731 0.0
C956 C 0.32542 0.62001 0.64973 0.0
C957 C 0.34235 0.64737 0.64713 0.0
C958 C 0.26592 0.53748 0.64095 0.0
C959 C 0.28109 0.50867 0.64101 0.0
C960 C 0.28288 0.565 0.64033 0.0
C961 C 0.31536 0.56431 0.63971 0.0
C962 C 0.33053 0.53555 0.64048 0.0
C963 C 0.31361 0.50805 0.64114 0.0
H964 H 0.32567 0.30677 0.61054 0.0
H965 H 0.35181 0.37553 0.66038 0.0
H966 H 0.37639 0.28265 0.61425 0.0
H967 H 0.40232 0.35106 0.66435 0.0
H968 H 0.50083 0.32162 0.64223 0.0
H969 H 0.44933 0.34474 0.64169 0.0
H970 H 0.40838 0.25359 0.64084 0.0
H971 H 0.45965 0.23047 0.64096 0.0
C972 C 0.3421 0.31655 0.62246 0.0
C973 C 0.33473 0.34315 0.63507 0.0
C974 C 0.37114 0.30264 0.62467 0.0
C975 C 0.39344 0.31501 0.63955 0.0
C976 C 0.38582 0.34124 0.6525 0.0
C977 C 0.35679 0.35514 0.65031 0.0
C978 C 0.48085 0.30651 0.64209 0.0
C979 C 0.48443 0.2742 0.64149 0.0
C980 C 0.45132 0.31976 0.64188 0.0
C981 C 0.42476 0.30099 0.64109 0.0
C982 C 0.42836 0.2687 0.64107 0.0
C983 C 0.45781 0.25546 0.64128 0.0
H984 H 0.68468 0.33082 0.60962 0.0
H985 H 0.61598 0.35748 0.65929 0.0
H986 H 0.70966 0.38098 0.61378 0.0
H987 H 0.64134 0.40758 0.6637 0.0
H988 H 0.67473 0.50586 0.64296 0.0
H989 H 0.64974 0.45523 0.64176 0.0
H990 H 0.73933 0.41096 0.64119 0.0
H991 H 0.7643 0.46133 0.64201 0.0
C992 C 0.67503 0.34728 0.62156 0.0
C993 C 0.6483 0.34014 0.63408 0.0
C994 C 0.68946 0.376 0.62404 0.0
C995 C 0.6775 0.39828 0.63909 0.0
C996 C 0.65091 0.39105 0.65178 0.0
C997 C 0.6365 0.36227 0.64933 0.0
C998 C 0.6891 0.48532 0.64276 0.0
C999 C 0.72153 0.48772 0.64243 0.0
C1000 C 0.67477 0.4563 0.64216 0.0
C1001 C 0.69256 0.42907 0.6412 0.0
C1002 C 0.72496 0.43149 0.64152 0.0
C1003 C 0.73927 0.46042 0.64212 0.0
H1004 H 0.53709 0.75293 0.64402 0.0
H1005 H 0.48126 0.66995 0.64292 0.0
H1006 H 0.58379 0.72151 0.64349 0.0
H1007 H 0.52811 0.63853 0.64285 0.0
H1008 H 0.61642 0.59679 0.6117 0.0
H1009 H 0.5693 0.62703 0.61595 0.0
H1010 H 0.61477 0.68516 0.66555 0.0
H1011 H 0.66225 0.65519 0.66098 0.0
C1012 C 0.53474 0.72798 0.64394 0.0
C1013 C 0.50537 0.71399 0.64336 0.0
C1014 C 0.56157 0.70995 0.64377 0.0
C1015 C 0.5597 0.67751 0.64301 0.0
C1016 C 0.53034 0.66348 0.64309 0.0
C1017 C 0.50348 0.68151 0.64327 0.0
C1018 C 0.6164 0.61596 0.62357 0.0
C1019 C 0.64315 0.62365 0.63593 0.0
C1020 C 0.58927 0.63316 0.62613 0.0
C1021 C 0.58823 0.65848 0.64113 0.0
C1022 C 0.61491 0.66599 0.65368 0.0
C1023 C 0.64208 0.64875 0.65112 0.0
H1024 H 0.17678 0.41859 0.29323 0.0
H1025 H 0.20988 0.32951 0.31562 0.0
H1026 H 0.15621 0.39525 0.25875 0.0
H1027 H 0.19098 0.30609 0.28034 0.0
H1028 H 0.11958 0.26974 0.22827 0.0
H1029 H 0.14433 0.29157 0.26208 0.0
H1030 H 0.16859 0.37331 0.22351 0.0
H1031 H 0.14266 0.35174 0.19017 0.0
C1032 C 0.17981 0.39396 0.29064 0.0
C1033 C 0.19455 0.37578 0.3072 0.0
C1034 C 0.1684 0.38058 0.2707 0.0
C1035 C 0.17185 0.34867 0.26661 0.0
C1036 C 0.18743 0.33062 0.283 0.0
C1037 C 0.19859 0.34404 0.3031 0.0
C1038 C 0.13047 0.29226 0.22712 0.0
C1039 C 0.12919 0.30919 0.20678 0.0
C1040 C 0.14481 0.30475 0.24642 0.0
C1041 C 0.1584 0.33437 0.24568 0.0
C1042 C 0.15783 0.35078 0.22496 0.0
C1043 C 0.14319 0.33841 0.20579 0.0
H1044 H 0.70573 0.17246 0.19914 0.0
H1045 H 0.68044 0.08266 0.2251 0.0
H1046 H 0.68786 0.19646 0.23451 0.0
H1047 H 0.661 0.10642 0.25981 0.0
H1048 H 0.64961 0.15231 0.32761 0.0
H1049 H 0.67492 0.13116 0.29389 0.0
H1050 H 0.6414 0.20859 0.25426 0.0
H1051 H 0.61716 0.23008 0.28837 0.0
C1052 C 0.69637 0.15791 0.21247 0.0
C1053 C 0.69421 0.12578 0.20937 0.0
C1054 C 0.68583 0.17163 0.23264 0.0
C1055 C 0.67281 0.15347 0.2501 0.0
C1056 C 0.67124 0.1212 0.24699 0.0
C1057 C 0.68199 0.10755 0.22695 0.0
C1058 C 0.64806 0.16488 0.31169 0.0
C1059 C 0.63155 0.19275 0.31048 0.0
C1060 C 0.66232 0.1527 0.29231 0.0
C1061 C 0.66001 0.16794 0.27118 0.0
C1062 C 0.64407 0.19636 0.27022 0.0
C1063 C 0.63007 0.20867 0.28971 0.0
H1064 H 0.79167 0.67313 0.3186 0.0
H1065 H 0.81844 0.58325 0.29361 0.0
H1066 H 0.8096 0.69679 0.28309 0.0
H1067 H 0.83783 0.60668 0.25876 0.0
H1068 H 0.84873 0.65158 0.19056 0.0
H1069 H 0.8234 0.63081 0.22441 0.0
H1070 H 0.85639 0.70894 0.26346 0.0
H1071 H 0.88074 0.73001 0.22923 0.0
C1072 C 0.80136 0.65849 0.30545 0.0
C1073 C 0.80393 0.62644 0.30886 0.0
C1074 C 0.81192 0.67201 0.28521 0.0
C1075 C 0.82531 0.65372 0.26799 0.0
C1076 C 0.8273 0.62154 0.27141 0.0
C1077 C 0.81657 0.60809 0.29152 0.0
C1078 C 0.85017 0.66438 0.20638 0.0
C1079 C 0.86659 0.69231 0.20739 0.0
C1080 C 0.83589 0.65243 0.22582 0.0
C1081 C 0.83806 0.66798 0.24683 0.0
C1082 C 0.85386 0.69647 0.24759 0.0
C1083 C 0.8679 0.70854 0.22804 0.0
H1084 H 0.32644 0.78876 0.31684 0.0
H1085 H 0.41404 0.8257 0.29448 0.0
H1086 H 0.30162 0.80936 0.28235 0.0
H1087 H 0.38913 0.84722 0.2607 0.0
H1088 H 0.32503 0.91483 0.22253 0.0
H1089 H 0.34678 0.89047 0.25644 0.0
H1090 H 0.30624 0.80324 0.2368 0.0
H1091 H 0.28538 0.82748 0.20218 0.0
C1092 C 0.34038 0.80104 0.30448 0.0
C1093 C 0.37207 0.80601 0.30846 0.0
C1094 C 0.3262 0.81286 0.28484 0.0
C1095 C 0.34342 0.83018 0.26906 0.0
C1096 C 0.37523 0.83438 0.27278 0.0
C1097 C 0.38943 0.82217 0.29214 0.0
C1098 C 0.32095 0.8904 0.22534 0.0
C1099 C 0.30398 0.87292 0.20953 0.0
C1100 C 0.33329 0.87651 0.24478 0.0
C1101 C 0.32843 0.84493 0.24909 0.0
C1102 C 0.31027 0.82765 0.23386 0.0
C1103 C 0.2983 0.84151 0.21413 0.0
H1104 H 0.85174 0.6533 0.82614 0.0
H1105 H 0.8824 0.73431 0.78976 0.0
H1106 H 0.82775 0.63337 0.79138 0.0
H1107 H 0.8581 0.7147 0.75493 0.0
H1108 H 0.84799 0.64715 0.69352 0.0
H1109 H 0.86785 0.67127 0.72825 0.0
H1110 H 0.7851 0.6437 0.76409 0.0
H1111 H 0.76555 0.61924 0.72931 0.0
C1112 C 0.85301 0.66694 0.8107 0.0
C1113 C 0.86877 0.69531 0.81056 0.0
C1114 C 0.83915 0.65567 0.79085 0.0
C1115 C 0.84102 0.67245 0.77037 0.0
C1116 C 0.85645 0.70112 0.77037 0.0
C1117 C 0.87011 0.71248 0.7903 0.0
C1118 C 0.83404 0.64647 0.70883 0.0
C1119 C 0.8053 0.6314 0.70882 0.0
C1120 C 0.84527 0.66044 0.72865 0.0
C1121 C 0.82806 0.65939 0.74895 0.0
C1122 C 0.79902 0.64469 0.74879 0.0
C1123 C 0.7877 0.63093 0.72888 0.0
H1124 H 0.35403 0.85351 0.69039 0.0
H1125 H 0.37631 0.77053 0.72762 0.0
H1126 H 0.3287 0.87486 0.72401 0.0
H1127 H 0.35231 0.79217 0.76175 0.0
H1128 H 0.28836 0.83012 0.81618 0.0
H1129 H 0.3066 0.80696 0.78066 0.0
H1130 H 0.34112 0.89624 0.75918 0.0
H1131 H 0.32101 0.91935 0.79385 0.0
C1132 C 0.35347 0.83992 0.70588 0.0
C1133 C 0.36704 0.81048 0.70653 0.0
C1134 C 0.33919 0.85217 0.72522 0.0
C1135 C 0.33862 0.83545 0.74581 0.0
C1136 C 0.35182 0.80562 0.74621 0.0
C1137 C 0.36573 0.79322 0.72672 0.0
C1138 C 0.29944 0.84474 0.80363 0.0
C1139 C 0.30351 0.87645 0.80782 0.0
C1140 C 0.31025 0.83146 0.78338 0.0
C1141 C 0.32557 0.8496 0.76694 0.0
C1142 C 0.32911 0.88148 0.77115 0.0
C1143 C 0.31798 0.89473 0.79121 0.0
H1144 H 0.17021 0.28766 0.81577 0.0
H1145 H 0.08247 0.32589 0.79471 0.0
H1146 H 0.19421 0.30779 0.78083 0.0
H1147 H 0.10675 0.34725 0.76063 0.0
H1148 H 0.17513 0.41481 0.72377 0.0
H1149 H 0.15348 0.39033 0.75773 0.0
H1150 H 0.18391 0.3011 0.73367 0.0
H1151 H 0.20423 0.32545 0.69894 0.0
C1152 C 0.15605 0.30011 0.80362 0.0
C1153 C 0.12457 0.30558 0.80809 0.0
C1154 C 0.16978 0.31168 0.78374 0.0
C1155 C 0.15233 0.32931 0.76828 0.0
C1156 C 0.12075 0.33407 0.77248 0.0
C1157 C 0.10694 0.322 0.79203 0.0
C1158 C 0.17692 0.38993 0.72559 0.0
C1159 C 0.19089 0.37197 0.70855 0.0
C1160 C 0.16472 0.376 0.74506 0.0
C1161 C 0.16693 0.34388 0.74817 0.0
C1162 C 0.18203 0.32594 0.73163 0.0
C1163 C 0.19368 0.33986 0.71186 0.0
H1164 H 0.65163 0.15461 0.68898 0.0
H1165 H 0.61751 0.23169 0.72815 0.0
H1166 H 0.67714 0.13385 0.72281 0.0
H1167 H 0.6423 0.21072 0.76231 0.0
H1168 H 0.70808 0.17505 0.81717 0.0
H1169 H 0.69013 0.19898 0.7817 0.0
H1170 H 0.66155 0.10914 0.75712 0.0
H1171 H 0.68067 0.08545 0.792 0.0
C1172 C 0.6498 0.16714 0.70489 0.0
C1173 C 0.63266 0.19465 0.70607 0.0
C1174 C 0.6642 0.15522 0.72431 0.0
C1175 C 0.66155 0.17042 0.74541 0.0
C1176 C 0.64515 0.19856 0.74634 0.0
C1177 C 0.63088 0.21056 0.72683 0.0
C1178 C 0.6983 0.16053 0.80398 0.0
C1179 C 0.69553 0.12849 0.80731 0.0
C1180 C 0.68776 0.1742 0.78378 0.0
C1181 C 0.6743 0.15604 0.76651 0.0
C1182 C 0.67214 0.12386 0.76983 0.0
C1183 C 0.68274 0.11028 0.78994 0.0
H1184 H 0.03305 0.57747 0.12537 0.0
H1185 H 0.93652 0.56915 0.14316 0.0
H1186 H 0.03733 0.52118 0.12364 0.0
H1187 H 0.94058 0.51295 0.14091 0.0
H1188 H 0.97467 0.41856 0.16828 0.0
H1189 H 0.96754 0.47422 0.1651 0.0
H1190 H 0.01892 0.47436 0.10211 0.0
H1191 H 0.02547 0.41843 0.10495 0.0
C1192 C 0.01262 0.56359 0.12849 0.0
C1193 C 0.98436 0.57769 0.1341 0.0
C1194 C 0.01503 0.53142 0.12736 0.0
C1195 C 0.9893 0.5127 0.13215 0.0
C1196 C 0.96083 0.52684 0.13723 0.0
C1197 C 0.95837 0.55905 0.13819 0.0
C1198 C 0.98438 0.43039 0.15367 0.0
C1199 C 0.00134 0.41407 0.13717 0.0
C1200 C 0.98013 0.46227 0.15181 0.0
C1201 C 0.99271 0.47863 0.13337 0.0
C1202 C 0.00936 0.46236 0.11668 0.0
C1203 C 0.01342 0.43033 0.11847 0.0
H1204 H 0.42942 0.93902 0.13832 0.0
H1205 H 0.41458 0.03369 0.11784 0.0
H1206 H 0.48515 0.94628 0.13508 0.0
H1207 H 0.47031 0.04093 0.11368 0.0
H1208 H 0.56819 0.05347 0.14317 0.0
H1209 H 0.51275 0.04622 0.13867 0.0
H1210 H 0.52887 0.9545 0.11171 0.0
H1211 H 0.58445 0.9617 0.11696 0.0
C1212 C 0.43817 0.96107 0.13235 0.0
C1213 C 0.41793 0.98571 0.12805 0.0
C1214 C 0.47009 0.9653 0.13049 0.0
C1215 C 0.48231 0.99427 0.12418 0.0
C1216 C 0.46176 0.01851 0.11897 0.0
C1217 C 0.42989 0.01434 0.12114 0.0
C1218 C 0.55989 0.03214 0.13571 0.0
C1219 C 0.58048 0.0083 0.1301 0.0
C1220 C 0.52807 0.02789 0.13314 0.0
C1221 C 0.51624 -0.00025 0.12478 0.0
C1222 C 0.5371 0.97627 0.11851 0.0
C1223 C 0.5689 0.98041 0.12137 0.0
H1224 H 0.55587 0.06987 0.37183 0.0
H1225 H 0.46612 0.08409 0.40213 0.0
H1226 H 0.54965 0.01415 0.37573 0.0
H1227 H 0.46004 0.02832 0.40675 0.0
H1228 H 0.44277 0.93032 0.3785 0.0
H1229 H 0.45036 0.98592 0.38227 0.0
H1230 H 0.54627 0.97044 0.40004 0.0
H1231 H 0.53859 0.91477 0.39548 0.0
C1232 C 0.53528 0.06106 0.38005 0.0
C1233 C 0.51161 0.08114 0.3869 0.0
C1234 C 0.53162 0.0291 0.38226 0.0
C1235 C 0.50427 0.01668 0.39151 0.0
C1236 C 0.48115 0.03704 0.39919 0.0
C1237 C 0.48467 0.06894 0.39669 0.0
C1238 C 0.46521 0.93887 0.38379 0.0
C1239 C 0.49 0.91846 0.38707 0.0
C1240 C 0.46964 0.97071 0.38596 0.0
C1241 C 0.49896 0.98272 0.3915 0.0
C1242 C 0.52352 0.96204 0.39545 0.0
C1243 C 0.51912 0.93021 0.39302 0.0
H1244 H 0.92988 0.556 0.37872 0.0
H1245 H 0.91429 0.46074 0.3974 0.0
H1246 H 0.98535 0.54856 0.38284 0.0
H1247 H 0.96987 0.45326 0.40224 0.0
H1248 H 0.06939 0.44247 0.37473 0.0
H1249 H 0.01361 0.44899 0.37821 0.0
H1250 H 0.02775 0.53973 0.40751 0.0
H1251 H 0.0836 0.53331 0.40319 0.0
C1252 C 0.9383 0.53375 0.38445 0.0
C1253 C 0.91788 0.50904 0.38801 0.0
C1254 C 0.97014 0.5294 0.3868 0.0
C1255 C 0.98216 0.50027 0.39289 0.0
C1256 C 0.96148 0.47585 0.39718 0.0
C1257 C 0.92968 0.48013 0.39455 0.0
C1258 C 0.06048 0.46339 0.38248 0.0
C1259 C 0.08055 0.48722 0.38902 0.0
C1260 C 0.02853 0.46722 0.38447 0.0
C1261 C 0.01611 0.49494 0.39313 0.0
C1262 C 0.03647 0.5183 0.40044 0.0
C1263 C 0.06839 0.51459 0.39816 0.0
H1264 H 0.93728 0.57243 0.87466 0.0
H1265 H 0.03004 0.58132 0.90114 0.0
H1266 H 0.94165 0.51621 0.8766 0.0
H1267 H 0.03464 0.52498 0.90271 0.0
H1268 H 0.02059 0.42073 0.91713 0.0
H1269 H 0.01212 0.47628 0.92143 0.0
H1270 H 0.97503 0.4804 0.85326 0.0
H1271 H 0.98437 0.42534 0.84859 0.0
C1272 C 0.95822 0.56241 0.88154 0.0
C1273 C 0.98319 0.58116 0.88803 0.0
C1274 C 0.96088 0.53024 0.88236 0.0
C1275 C 0.98851 0.51633 0.88974 0.0
C1276 C 0.01299 0.53512 0.89716 0.0
C1277 C 0.01043 0.56728 0.89613 0.0
C1278 C 0.01134 0.43354 0.90286 0.0
C1279 C 0.00399 0.4187 0.88227 0.0
C1280 C 0.00611 0.46528 0.90547 0.0
C1281 C 0.99285 0.48253 0.8877 0.0
C1282 C 0.98488 0.46757 0.86735 0.0
C1283 C 0.9904 0.43604 0.86467 0.0
H1284 H 0.57827 0.02819 0.91558 0.0
H1285 H 0.57396 0.98764 0.84839 0.0
H1286 H 0.52265 0.02033 0.91993 0.0
H1287 H 0.51884 0.97884 0.85318 0.0
H1288 H 0.42732 0.94115 0.87665 0.0
H1289 H 0.48361 0.94643 0.87829 0.0
H1290 H 0.47356 0.04145 0.89979 0.0
H1291 H 0.41719 0.03601 0.89829 0.0
C1292 C 0.56554 0.01815 0.90159 0.0
C1293 C 0.58051 0.00932 0.88137 0.0
C1294 C 0.53375 0.01327 0.90424 0.0
C1295 C 0.51658 0.99887 0.88693 0.0
C1296 C 0.53162 0.9896 0.86693 0.0
C1297 C 0.56318 0.99479 0.86417 0.0
C1298 C 0.43719 0.9628 0.88243 0.0
C1299 C 0.41813 0.98804 0.88773 0.0
C1300 C 0.46931 0.96595 0.8831 0.0
C1301 C 0.48282 0.99436 0.88912 0.0
C1302 C 0.4637 0.01922 0.89532 0.0
C1303 C 0.43157 0.01616 0.89439 0.0
H1304 H 0.4478 0.92708 0.64565 0.0
H1305 H 0.54063 0.91219 0.62103 0.0
H1306 H 0.45491 0.98267 0.64233 0.0
H1307 H 0.54776 0.96799 0.61721 0.0
H1308 H 0.56058 0.06818 0.64325 0.0
H1309 H 0.55429 0.01226 0.64086 0.0
H1310 H 0.46053 0.02487 0.61689 0.0
H1311 H 0.46676 0.08076 0.61991 0.0
C1312 C 0.4694 0.93568 0.63885 0.0
C1313 C 0.49346 0.91533 0.63321 0.0
C1314 C 0.47357 0.96762 0.63701 0.0
C1315 C 0.5019 0.97991 0.62939 0.0
C1316 C 0.52579 0.95939 0.62339 0.0
C1317 C 0.52168 0.92745 0.62546 0.0
C1318 C 0.53896 0.05899 0.63691 0.0
C1319 C 0.51426 0.07874 0.63155 0.0
C1320 C 0.53526 0.0269 0.63559 0.0
C1321 C 0.50682 0.01397 0.62879 0.0
C1322 C 0.48254 0.03395 0.62262 0.0
C1323 C 0.48615 0.06595 0.62419 0.0
H1324 H 0.92924 0.5592 0.64689 0.0
H1325 H 0.91656 0.47045 0.61465 0.0
H1326 H 0.98513 0.55325 0.64406 0.0
H1327 H 0.97245 0.4647 0.61107 0.0
H1328 H 0.06995 0.44639 0.63877 0.0
H1329 H 0.01446 0.45419 0.6355 0.0
H1330 H 0.02968 0.55103 0.62067 0.0
H1331 H 0.08536 0.54311 0.62462 0.0
C1332 C 0.93843 0.5389 0.63851 0.0
C1333 C 0.91867 0.51543 0.63078 0.0
C1334 C 0.97051 0.53538 0.63692 0.0
C1335 C 0.98342 0.50839 0.62742 0.0
C1336 C 0.96341 0.4855 0.61889 0.0
C1337 C 0.93141 0.48886 0.62077 0.0
C1338 C 0.06148 0.46913 0.63424 0.0
C1339 C 0.08193 0.49404 0.63159 0.0
C1340 C 0.0296 0.47369 0.6324 0.0
C1341 C 0.01747 0.50327 0.62774 0.0
C1342 C 0.03812 0.52804 0.62459 0.0
C1343 C 0.07 0.52351 0.6267 0.0
loop_
_geom_bond_atom_site_label_1
_geom_bond_atom_site_label_2
_geom_bond_distance
_geom_bond_site_symmetry_2
_ccdc_geom_bond_type
Co0 O3 1.970 . S
Co0 N17 1.989 . S
Co0 O25 1.967 . S
Co0 O32 1.920 . S
Co1 O4 1.966 . S
Co1 N10 2.022 . S
Co1 N18 1.993 . S
Co1 O26 1.941 . S
C2 O3 1.258 . S
C2 O4 1.263 . S
O3 Co0 1.970 . S
O3 C2 1.258 . S
O4 Co1 1.966 . S
O4 C2 1.263 . S
C5 O6 1.235 . S
C5 O32 1.289 . S
O6 C5 1.235 . S
C7 C9 1.400 . S
C7 N10 1.351 . S
C7 C12 1.501 . S
C8 C9 1.387 . S
C8 N11 1.341 . S
C9 C7 1.400 . S
C9 C8 1.387 . S
N10 Co1 2.022 . S
N10 C7 1.351 . S
N10 N11 1.365 . S
N11 C8 1.341 . S
N11 N10 1.365 . S
N11 H31 0.862 . S
C12 C7 1.501 . S
C12 H13 0.961 . S
C12 H14 0.961 . S
C12 H15 0.960 . S
H13 C12 0.961 . S
H14 C12 0.961 . S
H15 C12 0.960 . S
C16 N17 1.342 . S
C16 C20 1.401 . S
C16 C21 1.499 . S
N17 Co0 1.989 . S
N17 C16 1.342 . S
N17 N18 1.388 . S
N18 Co1 1.993 . S
N18 N17 1.388 . S
N18 C19 1.346 . S
C19 N18 1.346 . S
C19 C20 1.396 . S
C19 C29 1.510 . S
C20 C16 1.401 . S
C20 C19 1.396 . S
C21 C16 1.499 . S
C21 H22 0.959 . S
C21 H23 0.960 . S
C21 H24 0.961 . S
H22 C21 0.959 . S
H23 C21 0.960 . S
H24 C21 0.961 . S
O25 Co0 1.967 . S
O25 C33 1.258 . S
O26 Co1 1.941 . S
O26 C33 1.266 . S
H27 C29 0.959 . S
H28 C29 0.961 . S
C29 C19 1.510 . S
C29 H27 0.959 . S
C29 H28 0.961 . S
C29 H30 0.960 . S
H30 C29 0.960 . S
H31 N11 0.862 . S
O32 Co0 1.920 . S
O32 C5 1.289 . S
C33 O25 1.258 . S
C33 O26 1.266 . S
Co34 O37 1.970 . S
Co34 N51 1.989 . S
Co34 O59 1.967 . S
Co34 O66 1.920 . S
Co35 O38 1.966 . S
Co35 N44 2.022 . S
Co35 N52 1.993 . S
Co35 O60 1.941 . S
C36 O37 1.258 . S
C36 O38 1.263 . S
O37 Co34 1.970 . S
O37 C36 1.258 . S
O38 Co35 1.966 . S
O38 C36 1.263 . S
C39 O40 1.235 . S
C39 O66 1.289 . S
O40 C39 1.235 . S
C41 C43 1.400 . S
C41 N44 1.351 . S
C41 C46 1.501 . S
C42 C43 1.387 . S
C42 N45 1.341 . S
C43 C41 1.400 . S
C43 C42 1.387 . S
N44 Co35 2.022 . S
N44 C41 1.351 . S
N44 N45 1.365 . S
N45 C42 1.341 . S
N45 N44 1.365 . S
N45 H65 0.862 . S
C46 C41 1.501 . S
C46 H47 0.961 . S
C46 H48 0.961 . S
C46 H49 0.960 . S
H47 C46 0.961 . S
H48 C46 0.961 . S
H49 C46 0.960 . S
C50 N51 1.342 . S
C50 C54 1.401 . S
C50 C55 1.499 . S
N51 Co34 1.989 . S
N51 C50 1.342 . S
N51 N52 1.388 . S
N52 Co35 1.993 . S
N52 N51 1.388 . S
N52 C53 1.346 . S
C53 N52 1.346 . S
C53 C54 1.396 . S
C53 C63 1.510 . S
C54 C50 1.401 . S
C54 C53 1.396 . S
C55 C50 1.499 . S
C55 H56 0.959 . S
C55 H57 0.960 . S
C55 H58 0.961 . S
H56 C55 0.959 . S
H57 C55 0.960 . S
H58 C55 0.961 . S
O59 Co34 1.967 . S
O59 C67 1.258 . S
O60 Co35 1.941 . S
O60 C67 1.266 . S
H61 C63 0.959 . S
H62 C63 0.961 . S
C63 C53 1.510 . S
C63 H61 0.959 . S
C63 H62 0.961 . S
C63 H64 0.960 . S
H64 C63 0.960 . S
H65 N45 0.862 . S
O66 Co34 1.920 . S
O66 C39 1.289 . S
C67 O59 1.258 . S
C67 O60 1.266 . S
Co68 O71 1.970 . S
Co68 N85 1.989 . S
Co68 O93 1.967 . S
Co68 O100 1.920 . S
Co69 O72 1.966 . S
Co69 N78 2.022 . S
Co69 N86 1.993 . S
Co69 O94 1.941 . S
C70 O71 1.258 . S
C70 O72 1.263 . S
O71 Co68 1.970 . S
O71 C70 1.258 . S
O72 Co69 1.966 . S
O72 C70 1.263 . S
C73 O74 1.235 . S
C73 O100 1.289 . S
O74 C73 1.235 . S
C75 C77 1.400 . S
C75 N78 1.351 . S
C75 C80 1.501 . S
C76 C77 1.387 . S
C76 N79 1.341 . S
C77 C75 1.400 . S
C77 C76 1.387 . S
N78 Co69 2.022 . S
N78 C75 1.351 . S
N78 N79 1.365 . S
N79 C76 1.341 . S
N79 N78 1.365 . S
N79 H99 0.862 . S
C80 C75 1.501 . S
C80 H81 0.961 . S
C80 H82 0.961 . S
C80 H83 0.960 . S
H81 C80 0.961 . S
H82 C80 0.961 . S
H83 C80 0.960 . S
C84 N85 1.342 . S
C84 C88 1.401 . S
C84 C89 1.499 . S
N85 Co68 1.989 . S
N85 C84 1.342 . S
N85 N86 1.388 . S
N86 Co69 1.993 . S
N86 N85 1.388 . S
N86 C87 1.346 . S
C87 N86 1.346 . S
C87 C88 1.396 . S
C87 C97 1.510 . S
C88 C84 1.401 . S
C88 C87 1.396 . S
C89 C84 1.499 . S
C89 H90 0.959 . S
C89 H91 0.960 . S
C89 H92 0.961 . S
H90 C89 0.959 . S
H91 C89 0.960 . S
H92 C89 0.961 . S
O93 Co68 1.967 . S
O93 C101 1.258 . S
O94 Co69 1.941 . S
O94 C101 1.266 . S
H95 C97 0.959 . S
H96 C97 0.961 . S
C97 C87 1.510 . S
C97 H95 0.959 . S
C97 H96 0.961 . S
C97 H98 0.960 . S
H98 C97 0.960 . S
H99 N79 0.862 . S
O100 Co68 1.920 . S
O100 C73 1.289 . S
C101 O93 1.258 . S
C101 O94 1.266 . S
Co102 O105 1.970 . S
Co102 N119 1.989 . S
Co102 O127 1.967 . S
Co102 O134 1.920 . S
Co103 O106 1.966 . S
Co103 N112 2.022 . S
Co103 N120 1.993 . S
Co103 O128 1.941 . S
C104 O105 1.258 . S
C104 O106 1.263 . S
O105 Co102 1.970 . S
O105 C104 1.258 . S
O106 Co103 1.966 . S
O106 C104 1.263 . S
C107 O108 1.235 . S
C107 O134 1.289 . S
O108 C107 1.235 . S
C109 C111 1.400 . S
C109 N112 1.351 . S
C109 C114 1.501 . S
C110 C111 1.387 . S
C110 N113 1.341 . S
C111 C109 1.400 . S
C111 C110 1.387 . S
N112 Co103 2.022 . S
N112 C109 1.351 . S
N112 N113 1.365 . S
N113 C110 1.341 . S
N113 N112 1.365 . S
N113 H133 0.862 . S
C114 C109 1.501 . S
C114 H115 0.961 . S
C114 H116 0.961 . S
C114 H117 0.960 . S
H115 C114 0.961 . S
H116 C114 0.961 . S
H117 C114 0.960 . S
C118 N119 1.342 . S
C118 C122 1.401 . S
C118 C123 1.499 . S
N119 Co102 1.989 . S
N119 C118 1.342 . S
N119 N120 1.388 . S
N120 Co103 1.993 . S
N120 N119 1.388 . S
N120 C121 1.346 . S
C121 N120 1.346 . S
C121 C122 1.396 . S
C121 C131 1.510 . S
C122 C118 1.401 . S
C122 C121 1.396 . S
C123 C118 1.499 . S
C123 H124 0.959 . S
C123 H125 0.960 . S
C123 H126 0.961 . S
H124 C123 0.959 . S
H125 C123 0.960 . S
H126 C123 0.961 . S
O127 Co102 1.967 . S
O127 C135 1.258 . S
O128 Co103 1.941 . S
O128 C135 1.266 . S
H129 C131 0.959 . S
H130 C131 0.961 . S
C131 C121 1.510 . S
C131 H129 0.959 . S
C131 H130 0.961 . S
C131 H132 0.960 . S
H132 C131 0.960 . S
H133 N113 0.862 . S
O134 Co102 1.920 . S
O134 C107 1.289 . S
C135 O127 1.258 . S
C135 O128 1.266 . S
Co136 O139 1.970 . S
Co136 N153 1.989 . S
Co136 O161 1.967 . S
Co136 O168 1.920 . S
Co137 O140 1.966 . S
Co137 N146 2.022 . S
Co137 N154 1.993 . S
Co137 O162 1.941 . S
C138 O139 1.258 . S
C138 O140 1.263 . S
O139 Co136 1.970 . S
O139 C138 1.258 . S
O140 Co137 1.966 . S
O140 C138 1.263 . S
C141 O142 1.235 . S
C141 O168 1.289 . S
O142 C141 1.235 . S
C143 C145 1.400 . S
C143 N146 1.351 . S
C143 C148 1.501 . S
C144 C145 1.387 . S
C144 N147 1.341 . S
C145 C143 1.400 . S
C145 C144 1.387 . S
N146 Co137 2.022 . S
N146 C143 1.351 . S
N146 N147 1.365 . S
N147 C144 1.341 . S
N147 N146 1.365 . S
N147 H167 0.862 . S
C148 C143 1.501 . S
C148 H149 0.961 . S
C148 H150 0.961 . S
C148 H151 0.960 . S
H149 C148 0.961 . S
H150 C148 0.961 . S
H151 C148 0.960 . S
C152 N153 1.342 . S
C152 C156 1.401 . S
C152 C157 1.499 . S
N153 Co136 1.989 . S
N153 C152 1.342 . S
N153 N154 1.388 . S
N154 Co137 1.993 . S
N154 N153 1.388 . S
N154 C155 1.346 . S
C155 N154 1.346 . S
C155 C156 1.396 . S
C155 C165 1.510 . S
C156 C152 1.401 . S
C156 C155 1.396 . S
C157 C152 1.499 . S
C157 H158 0.959 . S
C157 H159 0.960 . S
C157 H160 0.961 . S
H158 C157 0.959 . S
H159 C157 0.960 . S
H160 C157 0.961 . S
O161 Co136 1.967 . S
O161 C169 1.258 . S
O162 Co137 1.941 . S
O162 C169 1.266 . S
H163 C165 0.959 . S
H164 C165 0.961 . S
C165 C155 1.510 . S
C165 H163 0.959 . S
C165 H164 0.961 . S
C165 H166 0.960 . S
H166 C165 0.960 . S
H167 N147 0.862 . S
O168 Co136 1.920 . S
O168 C141 1.289 . S
C169 O161 1.258 . S
C169 O162 1.266 . S
Co170 O173 1.970 . S
Co170 N187 1.989 . S
Co170 O195 1.967 . S
Co170 O202 1.920 . S
Co171 O174 1.966 . S
Co171 N180 2.022 . S
Co171 N188 1.993 . S
Co171 O196 1.941 . S
C172 O173 1.258 . S
C172 O174 1.263 . S
O173 Co170 1.970 . S
O173 C172 1.258 . S
O174 Co171 1.966 . S
O174 C172 1.263 . S
C175 O176 1.235 . S
C175 O202 1.289 . S
O176 C175 1.235 . S
C177 C179 1.400 . S
C177 N180 1.351 . S
C177 C182 1.501 . S
C178 C179 1.387 . S
C178 N181 1.341 . S
C179 C177 1.400 . S
C179 C178 1.387 . S
N180 Co171 2.022 . S
N180 C177 1.351 . S
N180 N181 1.365 . S
N181 C178 1.341 . S
N181 N180 1.365 . S
N181 H201 0.862 . S
C182 C177 1.501 . S
C182 H183 0.961 . S
C182 H184 0.961 . S
C182 H185 0.960 . S
H183 C182 0.961 . S
H184 C182 0.961 . S
H185 C182 0.960 . S
C186 N187 1.342 . S
C186 C190 1.401 . S
C186 C191 1.499 . S
N187 Co170 1.989 . S
N187 C186 1.342 . S
N187 N188 1.388 . S
N188 Co171 1.993 . S
N188 N187 1.388 . S
N188 C189 1.346 . S
C189 N188 1.346 . S
C189 C190 1.396 . S
C189 C199 1.510 . S
C190 C186 1.401 . S
C190 C189 1.396 . S
C191 C186 1.499 . S
C191 H192 0.959 . S
C191 H193 0.960 . S
C191 H194 0.961 . S
H192 C191 0.959 . S
H193 C191 0.960 . S
H194 C191 0.961 . S
O195 Co170 1.967 . S
O195 C203 1.258 . S
O196 Co171 1.941 . S
O196 C203 1.266 . S
H197 C199 0.959 . S
H198 C199 0.961 . S
C199 C189 1.510 . S
C199 H197 0.959 . S
C199 H198 0.961 . S
C199 H200 0.960 . S
H200 C199 0.960 . S
H201 N181 0.862 . S
O202 Co170 1.920 . S
O202 C175 1.289 . S
C203 O195 1.258 . S
C203 O196 1.266 . S
Co204 O207 1.970 . S
Co204 N221 1.989 . S
Co204 O229 1.967 . S
Co204 O236 1.920 . S
Co205 O208 1.966 . S
Co205 N214 2.022 . S
Co205 N222 1.993 . S
Co205 O230 1.941 . S
C206 O207 1.258 . S
C206 O208 1.263 . S
O207 Co204 1.970 . S
O207 C206 1.258 . S
O208 Co205 1.966 . S
O208 C206 1.263 . S
C209 O210 1.235 . S
C209 O236 1.289 . S
O210 C209 1.235 . S
C211 C213 1.400 . S
C211 N214 1.351 . S
C211 C216 1.501 . S
C212 C213 1.387 . S
C212 N215 1.341 . S
C213 C211 1.400 . S
C213 C212 1.387 . S
N214 Co205 2.022 . S
N214 C211 1.351 . S
N214 N215 1.365 . S
N215 C212 1.341 . S
N215 N214 1.365 . S
N215 H235 0.862 . S
C216 C211 1.501 . S
C216 H217 0.961 . S
C216 H218 0.961 . S
C216 H219 0.960 . S
H217 C216 0.961 . S
H218 C216 0.961 . S
H219 C216 0.960 . S
C220 N221 1.342 . S
C220 C224 1.401 . S
C220 C225 1.499 . S
N221 Co204 1.989 . S
N221 C220 1.342 . S
N221 N222 1.388 . S
N222 Co205 1.993 . S
N222 N221 1.388 . S
N222 C223 1.346 . S
C223 N222 1.346 . S
C223 C224 1.396 . S
C223 C233 1.510 . S
C224 C220 1.401 . S
C224 C223 1.396 . S
C225 C220 1.499 . S
C225 H226 0.959 . S
C225 H227 0.960 . S
C225 H228 0.961 . S
H226 C225 0.959 . S
H227 C225 0.960 . S
H228 C225 0.961 . S
O229 Co204 1.967 . S
O229 C237 1.258 . S
O230 Co205 1.941 . S
O230 C237 1.266 . S
H231 C233 0.959 . S
H232 C233 0.961 . S
C233 C223 1.510 . S
C233 H231 0.959 . S
C233 H232 0.961 . S
C233 H234 0.960 . S
H234 C233 0.960 . S
H235 N215 0.862 . S
O236 Co204 1.920 . S
O236 C209 1.289 . S
C237 O229 1.258 . S
C237 O230 1.266 . S
Co238 O241 1.970 . S
Co238 N255 1.989 . S
Co238 O263 1.967 . S
Co238 O270 1.920 . S
Co239 O242 1.966 . S
Co239 N248 2.022 . S
Co239 N256 1.993 . S
Co239 O264 1.941 . S
C240 O241 1.258 . S
C240 O242 1.263 . S
O241 Co238 1.970 . S
O241 C240 1.258 . S
O242 Co239 1.966 . S
O242 C240 1.263 . S
C243 O244 1.235 . S
C243 O270 1.289 . S
O244 C243 1.235 . S
C245 C247 1.400 . S
C245 N248 1.351 . S
C245 C250 1.501 . S
C246 C247 1.387 . S
C246 N249 1.341 . S
C247 C245 1.400 . S
C247 C246 1.387 . S
N248 Co239 2.022 . S
N248 C245 1.351 . S
N248 N249 1.365 . S
N249 C246 1.341 . S
N249 N248 1.365 . S
N249 H269 0.862 . S
C250 C245 1.501 . S
C250 H251 0.961 . S
C250 H252 0.961 . S
C250 H253 0.960 . S
H251 C250 0.961 . S
H252 C250 0.961 . S
H253 C250 0.960 . S
C254 N255 1.342 . S
C254 C258 1.401 . S
C254 C259 1.499 . S
N255 Co238 1.989 . S
N255 C254 1.342 . S
N255 N256 1.388 . S
N256 Co239 1.993 . S
N256 N255 1.388 . S
N256 C257 1.346 . S
C257 N256 1.346 . S
C257 C258 1.396 . S
C257 C267 1.510 . S
C258 C254 1.401 . S
C258 C257 1.396 . S
C259 C254 1.499 . S
C259 H260 0.959 . S
C259 H261 0.960 . S
C259 H262 0.961 . S
H260 C259 0.959 . S
H261 C259 0.960 . S
H262 C259 0.961 . S
O263 Co238 1.967 . S
O263 C271 1.258 . S
O264 Co239 1.941 . S
O264 C271 1.266 . S
H265 C267 0.959 . S
H266 C267 0.961 . S
C267 C257 1.510 . S
C267 H265 0.959 . S
C267 H266 0.961 . S
C267 H268 0.960 . S
H268 C267 0.960 . S
H269 N249 0.862 . S
O270 Co238 1.920 . S
O270 C243 1.289 . S
C271 O263 1.258 . S
C271 O264 1.266 . S
Co272 O275 1.970 . S
Co272 N289 1.989 . S
Co272 O297 1.967 . S
Co272 O304 1.920 . S
Co273 O276 1.966 . S
Co273 N282 2.022 . S
Co273 N290 1.993 . S
Co273 O298 1.941 . S
C274 O275 1.258 . S
C274 O276 1.263 . S
O275 Co272 1.970 . S
O275 C274 1.258 . S
O276 Co273 1.966 . S
O276 C274 1.263 . S
C277 O278 1.235 . S
C277 O304 1.289 . S
O278 C277 1.235 . S
C279 C281 1.400 . S
C279 N282 1.351 . S
C279 C284 1.501 . S
C280 C281 1.387 . S
C280 N283 1.341 . S
C281 C279 1.400 . S
C281 C280 1.387 . S
N282 Co273 2.022 . S
N282 C279 1.351 . S
N282 N283 1.365 . S
N283 C280 1.341 . S
N283 N282 1.365 . S
N283 H303 0.862 . S
C284 C279 1.501 . S
C284 H285 0.961 . S
C284 H286 0.961 . S
C284 H287 0.960 . S
H285 C284 0.961 . S
H286 C284 0.961 . S
H287 C284 0.960 . S
C288 N289 1.342 . S
C288 C292 1.401 . S
C288 C293 1.499 . S
N289 Co272 1.989 . S
N289 C288 1.342 . S
N289 N290 1.388 . S
N290 Co273 1.993 . S
N290 N289 1.388 . S
N290 C291 1.346 . S
C291 N290 1.346 . S
C291 C292 1.396 . S
C291 C301 1.510 . S
C292 C288 1.401 . S
C292 C291 1.396 . S
C293 C288 1.499 . S
C293 H294 0.959 . S
C293 H295 0.960 . S
C293 H296 0.961 . S
H294 C293 0.959 . S
H295 C293 0.960 . S
H296 C293 0.961 . S
O297 Co272 1.967 . S
O297 C305 1.258 . S
O298 Co273 1.941 . S
O298 C305 1.266 . S
H299 C301 0.959 . S
H300 C301 0.961 . S
C301 C291 1.510 . S
C301 H299 0.959 . S
C301 H300 0.961 . S
C301 H302 0.960 . S
H302 C301 0.960 . S
H303 N283 0.862 . S
O304 Co272 1.920 . S
O304 C277 1.289 . S
C305 O297 1.258 . S
C305 O298 1.266 . S
Co306 O309 1.970 . S
Co306 N323 1.989 . S
Co306 O331 1.967 . S
Co306 O338 1.920 . S
Co307 O310 1.966 . S
Co307 N316 2.022 . S
Co307 N324 1.993 . S
Co307 O332 1.941 . S
C308 O309 1.258 . S
C308 O310 1.263 . S
O309 Co306 1.970 . S
O309 C308 1.258 . S
O310 Co307 1.966 . S
O310 C308 1.263 . S
C311 O312 1.235 . S
C311 O338 1.289 . S
O312 C311 1.235 . S
C313 C315 1.400 . S
C313 N316 1.351 . S
C313 C318 1.501 . S
C314 C315 1.387 . S
C314 N317 1.341 . S
C315 C313 1.400 . S
C315 C314 1.387 . S
N316 Co307 2.022 . S
N316 C313 1.351 . S
N316 N317 1.365 . S
N317 C314 1.341 . S
N317 N316 1.365 . S
N317 H337 0.862 . S
C318 C313 1.501 . S
C318 H319 0.961 . S
C318 H320 0.961 . S
C318 H321 0.960 . S
H319 C318 0.961 . S
H320 C318 0.961 . S
H321 C318 0.960 . S
C322 N323 1.342 . S
C322 C326 1.401 . S
C322 C327 1.499 . S
N323 Co306 1.989 . S
N323 C322 1.342 . S
N323 N324 1.388 . S
N324 Co307 1.993 . S
N324 N323 1.388 . S
N324 C325 1.346 . S
C325 N324 1.346 . S
C325 C326 1.396 . S
C325 C335 1.510 . S
C326 C322 1.401 . S
C326 C325 1.396 . S
C327 C322 1.499 . S
C327 H328 0.959 . S
C327 H329 0.960 . S
C327 H330 0.961 . S
H328 C327 0.959 . S
H329 C327 0.960 . S
H330 C327 0.961 . S
O331 Co306 1.967 . S
O331 C339 1.258 . S
O332 Co307 1.941 . S
O332 C339 1.266 . S
H333 C335 0.959 . S
H334 C335 0.961 . S
C335 C325 1.510 . S
C335 H333 0.959 . S
C335 H334 0.961 . S
C335 H336 0.960 . S
H336 C335 0.960 . S
H337 N317 0.862 . S
O338 Co306 1.920 . S
O338 C311 1.289 . S
C339 O331 1.258 . S
C339 O332 1.266 . S
Co340 O343 1.970 . S
Co340 N357 1.989 . S
Co340 O365 1.967 . S
Co340 O372 1.920 . S
Co341 O344 1.966 . S
Co341 N350 2.022 . S
Co341 N358 1.993 . S
Co341 O366 1.941 . S
C342 O343 1.258 . S
C342 O344 1.263 . S
O343 Co340 1.970 . S
O343 C342 1.258 . S
O344 Co341 1.966 . S
O344 C342 1.263 . S
C345 O346 1.235 . S
C345 O372 1.289 . S
O346 C345 1.235 . S
C347 C349 1.400 . S
C347 N350 1.351 . S
C347 C352 1.501 . S
C348 C349 1.387 . S
C348 N351 1.341 . S
C349 C347 1.400 . S
C349 C348 1.387 . S
N350 Co341 2.022 . S
N350 C347 1.351 . S
N350 N351 1.365 . S
N351 C348 1.341 . S
N351 N350 1.365 . S
N351 H371 0.862 . S
C352 C347 1.501 . S
C352 H353 0.961 . S
C352 H354 0.961 . S
C352 H355 0.960 . S
H353 C352 0.961 . S
H354 C352 0.961 . S
H355 C352 0.960 . S
C356 N357 1.342 . S
C356 C360 1.401 . S
C356 C361 1.499 . S
N357 Co340 1.989 . S
N357 C356 1.342 . S
N357 N358 1.388 . S
N358 Co341 1.993 . S
N358 N357 1.388 . S
N358 C359 1.346 . S
C359 N358 1.346 . S
C359 C360 1.396 . S
C359 C369 1.510 . S
C360 C356 1.401 . S
C360 C359 1.396 . S
C361 C356 1.499 . S
C361 H362 0.959 . S
C361 H363 0.960 . S
C361 H364 0.961 . S
H362 C361 0.959 . S
H363 C361 0.960 . S
H364 C361 0.961 . S
O365 Co340 1.967 . S
O365 C373 1.258 . S
O366 Co341 1.941 . S
O366 C373 1.266 . S
H367 C369 0.959 . S
H368 C369 0.961 . S
C369 C359 1.510 . S
C369 H367 0.959 . S
C369 H368 0.961 . S
C369 H370 0.960 . S
H370 C369 0.960 . S
H371 N351 0.862 . S
O372 Co340 1.920 . S
O372 C345 1.289 . S
C373 O365 1.258 . S
C373 O366 1.266 . S
Co374 O377 1.970 . S
Co374 N391 1.989 . S
Co374 O399 1.967 . S
Co374 O406 1.920 . S
Co375 O378 1.966 . S
Co375 N384 2.022 . S
Co375 N392 1.993 . S
Co375 O400 1.941 . S
C376 O377 1.258 . S
C376 O378 1.263 . S
O377 Co374 1.970 . S
O377 C376 1.258 . S
O378 Co375 1.966 . S
O378 C376 1.263 . S
C379 O380 1.235 . S
C379 O406 1.289 . S
O380 C379 1.235 . S
C381 C383 1.400 . S
C381 N384 1.351 . S
C381 C386 1.501 . S
C382 C383 1.387 . S
C382 N385 1.341 . S
C383 C381 1.400 . S
C383 C382 1.387 . S
N384 Co375 2.022 . S
N384 C381 1.351 . S
N384 N385 1.365 . S
N385 C382 1.341 . S
N385 N384 1.365 . S
N385 H405 0.862 . S
C386 C381 1.501 . S
C386 H387 0.961 . S
C386 H388 0.961 . S
C386 H389 0.960 . S
H387 C386 0.961 . S
H388 C386 0.961 . S
H389 C386 0.960 . S
C390 N391 1.342 . S
C390 C394 1.401 . S
C390 C395 1.499 . S
N391 Co374 1.989 . S
N391 C390 1.342 . S
N391 N392 1.388 . S
N392 Co375 1.993 . S
N392 N391 1.388 . S
N392 C393 1.346 . S
C393 N392 1.346 . S
C393 C394 1.396 . S
C393 C403 1.510 . S
C394 C390 1.401 . S
C394 C393 1.396 . S
C395 C390 1.499 . S
C395 H396 0.959 . S
C395 H397 0.960 . S
C395 H398 0.961 . S
H396 C395 0.959 . S
H397 C395 0.960 . S
H398 C395 0.961 . S
O399 Co374 1.967 . S
O399 C407 1.258 . S
O400 Co375 1.941 . S
O400 C407 1.266 . S
H401 C403 0.959 . S
H402 C403 0.961 . S
C403 C393 1.510 . S
C403 H401 0.959 . S
C403 H402 0.961 . S
C403 H404 0.960 . S
H404 C403 0.960 . S
H405 N385 0.862 . S
O406 Co374 1.920 . S
O406 C379 1.289 . S
C407 O399 1.258 . S
C407 O400 1.266 . S
Co408 O411 1.970 . S
Co408 N425 1.989 . S
Co408 O433 1.967 . S
Co408 O440 1.920 . S
Co409 O412 1.966 . S
Co409 N418 2.022 . S
Co409 N426 1.993 . S
Co409 O434 1.941 . S
C410 O411 1.258 . S
C410 O412 1.263 . S
O411 Co408 1.970 . S
O411 C410 1.258 . S
O412 Co409 1.966 . S
O412 C410 1.263 . S
C413 O414 1.235 . S
C413 O440 1.289 . S
O414 C413 1.235 . S
C415 C417 1.400 . S
C415 N418 1.351 . S
C415 C420 1.501 . S
C416 C417 1.387 . S
C416 N419 1.341 . S
C417 C415 1.400 . S
C417 C416 1.387 . S
N418 Co409 2.022 . S
N418 C415 1.351 . S
N418 N419 1.365 . S
N419 C416 1.341 . S
N419 N418 1.365 . S
N419 H439 0.862 . S
C420 C415 1.501 . S
C420 H421 0.961 . S
C420 H422 0.961 . S
C420 H423 0.960 . S
H421 C420 0.961 . S
H422 C420 0.961 . S
H423 C420 0.960 . S
C424 N425 1.342 . S
C424 C428 1.401 . S
C424 C429 1.499 . S
N425 Co408 1.989 . S
N425 C424 1.342 . S
N425 N426 1.388 . S
N426 Co409 1.993 . S
N426 N425 1.388 . S
N426 C427 1.346 . S
C427 N426 1.346 . S
C427 C428 1.396 . S
C427 C437 1.510 . S
C428 C424 1.401 . S
C428 C427 1.396 . S
C429 C424 1.499 . S
C429 H430 0.959 . S
C429 H431 0.960 . S
C429 H432 0.961 . S
H430 C429 0.959 . S
H431 C429 0.960 . S
H432 C429 0.961 . S
O433 Co408 1.967 . S
O433 C441 1.258 . S
O434 Co409 1.941 . S
O434 C441 1.266 . S
H435 C437 0.959 . S
H436 C437 0.961 . S
C437 C427 1.510 . S
C437 H435 0.959 . S
C437 H436 0.961 . S
C437 H438 0.960 . S
H438 C437 0.960 . S
H439 N419 0.862 . S
O440 Co408 1.920 . S
O440 C413 1.289 . S
C441 O433 1.258 . S
C441 O434 1.266 . S
Co442 O445 1.970 . S
Co442 N459 1.989 . S
Co442 O467 1.967 . S
Co442 O474 1.920 . S
Co443 O446 1.966 . S
Co443 N452 2.022 . S
Co443 N460 1.993 . S
Co443 O468 1.941 . S
C444 O445 1.258 . S
C444 O446 1.263 . S
O445 Co442 1.970 . S
O445 C444 1.258 . S
O446 Co443 1.966 . S
O446 C444 1.263 . S
C447 O448 1.235 . S
C447 O474 1.289 . S
O448 C447 1.235 . S
C449 C451 1.400 . S
C449 N452 1.351 . S
C449 C454 1.501 . S
C450 C451 1.387 . S
C450 N453 1.341 . S
C451 C449 1.400 . S
C451 C450 1.387 . S
N452 Co443 2.022 . S
N452 C449 1.351 . S
N452 N453 1.365 . S
N453 C450 1.341 . S
N453 N452 1.365 . S
N453 H473 0.862 . S
C454 C449 1.501 . S
C454 H455 0.961 . S
C454 H456 0.961 . S
C454 H457 0.960 . S
H455 C454 0.961 . S
H456 C454 0.961 . S
H457 C454 0.960 . S
C458 N459 1.342 . S
C458 C462 1.401 . S
C458 C463 1.499 . S
N459 Co442 1.989 . S
N459 C458 1.342 . S
N459 N460 1.388 . S
N460 Co443 1.993 . S
N460 N459 1.388 . S
N460 C461 1.346 . S
C461 N460 1.346 . S
C461 C462 1.396 . S
C461 C471 1.510 . S
C462 C458 1.401 . S
C462 C461 1.396 . S
C463 C458 1.499 . S
C463 H464 0.959 . S
C463 H465 0.960 . S
C463 H466 0.961 . S
H464 C463 0.959 . S
H465 C463 0.960 . S
H466 C463 0.961 . S
O467 Co442 1.967 . S
O467 C475 1.258 . S
O468 Co443 1.941 . S
O468 C475 1.266 . S
H469 C471 0.959 . S
H470 C471 0.961 . S
C471 C461 1.510 . S
C471 H469 0.959 . S
C471 H470 0.961 . S
C471 H472 0.960 . S
H472 C471 0.960 . S
H473 N453 0.862 . S
O474 Co442 1.920 . S
O474 C447 1.289 . S
C475 O467 1.258 . S
C475 O468 1.266 . S
Co476 O479 1.970 . S
Co476 N493 1.989 . S
Co476 O501 1.967 . S
Co476 O508 1.920 . S
Co477 O480 1.966 . S
Co477 N486 2.022 . S
Co477 N494 1.993 . S
Co477 O502 1.941 . S
C478 O479 1.258 . S
C478 O480 1.263 . S
O479 Co476 1.970 . S
O479 C478 1.258 . S
O480 Co477 1.966 . S
O480 C478 1.263 . S
C481 O482 1.235 . S
C481 O508 1.289 . S
O482 C481 1.235 . S
C483 C485 1.400 . S
C483 N486 1.351 . S
C483 C488 1.501 . S
C484 C485 1.387 . S
C484 N487 1.341 . S
C485 C483 1.400 . S
C485 C484 1.387 . S
N486 Co477 2.022 . S
N486 C483 1.351 . S
N486 N487 1.365 . S
N487 C484 1.341 . S
N487 N486 1.365 . S
N487 H507 0.862 . S
C488 C483 1.501 . S
C488 H489 0.961 . S
C488 H490 0.961 . S
C488 H491 0.960 . S
H489 C488 0.961 . S
H490 C488 0.961 . S
H491 C488 0.960 . S
C492 N493 1.342 . S
C492 C496 1.401 . S
C492 C497 1.499 . S
N493 Co476 1.989 . S
N493 C492 1.342 . S
N493 N494 1.388 . S
N494 Co477 1.993 . S
N494 N493 1.388 . S
N494 C495 1.346 . S
C495 N494 1.346 . S
C495 C496 1.396 . S
C495 C505 1.510 . S
C496 C492 1.401 . S
C496 C495 1.396 . S
C497 C492 1.499 . S
C497 H498 0.959 . S
C497 H499 0.960 . S
C497 H500 0.961 . S
H498 C497 0.959 . S
H499 C497 0.960 . S
H500 C497 0.961 . S
O501 Co476 1.967 . S
O501 C509 1.258 . S
O502 Co477 1.941 . S
O502 C509 1.266 . S
H503 C505 0.959 . S
H504 C505 0.961 . S
C505 C495 1.510 . S
C505 H503 0.959 . S
C505 H504 0.961 . S
C505 H506 0.960 . S
H506 C505 0.960 . S
H507 N487 0.862 . S
O508 Co476 1.920 . S
O508 C481 1.289 . S
C509 O501 1.258 . S
C509 O502 1.266 . S
Co510 O513 1.970 . S
Co510 N527 1.989 . S
Co510 O535 1.967 . S
Co510 O542 1.920 . S
Co511 O514 1.966 . S
Co511 N520 2.022 . S
Co511 N528 1.993 . S
Co511 O536 1.941 . S
C512 O513 1.258 . S
C512 O514 1.263 . S
O513 Co510 1.970 . S
O513 C512 1.258 . S
O514 Co511 1.966 . S
O514 C512 1.263 . S
C515 O516 1.235 . S
C515 O542 1.289 . S
O516 C515 1.235 . S
C517 C519 1.400 . S
C517 N520 1.351 . S
C517 C522 1.501 . S
C518 C519 1.387 . S
C518 N521 1.341 . S
C519 C517 1.400 . S
C519 C518 1.387 . S
N520 Co511 2.022 . S
N520 C517 1.351 . S
N520 N521 1.365 . S
N521 C518 1.341 . S
N521 N520 1.365 . S
N521 H541 0.862 . S
C522 C517 1.501 . S
C522 H523 0.961 . S
C522 H524 0.961 . S
C522 H525 0.960 . S
H523 C522 0.961 . S
H524 C522 0.961 . S
H525 C522 0.960 . S
C526 N527 1.342 . S
C526 C530 1.401 . S
C526 C531 1.499 . S
N527 Co510 1.989 . S
N527 C526 1.342 . S
N527 N528 1.388 . S
N528 Co511 1.993 . S
N528 N527 1.388 . S
N528 C529 1.346 . S
C529 N528 1.346 . S
C529 C530 1.396 . S
C529 C539 1.510 . S
C530 C526 1.401 . S
C530 C529 1.396 . S
C531 C526 1.499 . S
C531 H532 0.959 . S
C531 H533 0.960 . S
C531 H534 0.961 . S
H532 C531 0.959 . S
H533 C531 0.960 . S
H534 C531 0.961 . S
O535 Co510 1.967 . S
O535 C543 1.258 . S
O536 Co511 1.941 . S
O536 C543 1.266 . S
H537 C539 0.959 . S
H538 C539 0.961 . S
C539 C529 1.510 . S
C539 H537 0.959 . S
C539 H538 0.961 . S
C539 H540 0.960 . S
H540 C539 0.960 . S
H541 N521 0.862 . S
O542 Co510 1.920 . S
O542 C515 1.289 . S
C543 O535 1.258 . S
C543 O536 1.266 . S
H544 C552 0.950 . S
H545 C557 0.950 . S
H546 C554 0.950 . S
H547 C556 0.950 . S
H548 C558 0.950 . S
H549 C560 0.950 . S
H550 C562 0.950 . S
H551 C563 0.950 . S
C552 H544 0.950 . S
C552 C553 1.386 . S
C552 C554 1.391 . S
C553 C552 1.386 . S
C553 C557 1.393 . S
C554 H546 0.950 . S
C554 C552 1.391 . S
C554 C555 1.400 . S
C555 C554 1.400 . S
C555 C556 1.398 . S
C555 C561 1.491 1_556 S
C556 H547 0.950 . S
C556 C555 1.398 . S
C556 C557 1.391 . S
C557 H545 0.950 . S
C557 C553 1.393 . S
C557 C556 1.391 . S
C558 H548 0.950 . S
C558 C559 1.386 . S
C558 C560 1.391 . S
C559 C558 1.386 . S
C559 C563 1.393 . S
C560 H549 0.950 . S
C560 C558 1.391 . S
C560 C561 1.400 . S
C561 C555 1.491 1_554 S
C561 C560 1.400 . S
C561 C562 1.398 . S
C562 H550 0.950 . S
C562 C561 1.398 . S
C562 C563 1.391 . S
C563 H551 0.950 . S
C563 C559 1.393 . S
C563 C562 1.391 . S
H564 C572 0.950 . S
H565 C577 0.950 . S
H566 C574 0.950 . S
H567 C576 0.950 . S
H568 C578 0.950 . S
H569 C580 0.950 . S
H570 C582 0.950 . S
H571 C583 0.950 . S
C572 H564 0.950 . S
C572 C573 1.386 . S
C572 C574 1.391 . S
C573 C572 1.386 . S
C573 C577 1.393 . S
C574 H566 0.950 . S
C574 C572 1.391 . S
C574 C575 1.400 . S
C575 C574 1.400 . S
C575 C576 1.398 . S
C575 C581 1.491 1_556 S
C576 H567 0.950 . S
C576 C575 1.398 . S
C576 C577 1.391 . S
C577 H565 0.950 . S
C577 C573 1.393 . S
C577 C576 1.391 . S
C578 H568 0.950 . S
C578 C579 1.386 . S
C578 C580 1.391 . S
C579 C578 1.386 . S
C579 C583 1.393 . S
C580 H569 0.950 . S
C580 C578 1.391 . S
C580 C581 1.400 . S
C581 C575 1.491 1_554 S
C581 C580 1.400 . S
C581 C582 1.398 . S
C582 H570 0.950 . S
C582 C581 1.398 . S
C582 C583 1.391 . S
C583 H571 0.950 . S
C583 C579 1.393 . S
C583 C582 1.391 . S
H584 C592 0.950 . S
H585 C597 0.950 . S
H586 C594 0.950 . S
H587 C596 0.950 . S
H588 C598 0.950 . S
H589 C600 0.950 . S
H590 C602 0.950 . S
H591 C603 0.950 . S
C592 H584 0.950 . S
C592 C593 1.386 . S
C592 C594 1.391 . S
C593 C592 1.386 . S
C593 C597 1.393 . S
C594 H586 0.950 . S
C594 C592 1.391 . S
C594 C595 1.400 . S
C595 C594 1.400 . S
C595 C596 1.398 . S
C595 C601 1.491 1_556 S
C596 H587 0.950 . S
C596 C595 1.398 . S
C596 C597 1.391 . S
C597 H585 0.950 . S
C597 C593 1.393 . S
C597 C596 1.391 . S
C598 H588 0.950 . S
C598 C599 1.386 . S
C598 C600 1.391 . S
C599 C598 1.386 . S
C599 C603 1.393 . S
C600 H589 0.950 . S
C600 C598 1.391 . S
C600 C601 1.400 . S
C601 C595 1.491 1_554 S
C601 C600 1.400 . S
C601 C602 1.398 . S
C602 H590 0.950 . S
C602 C601 1.398 . S
C602 C603 1.391 . S
C603 H591 0.950 . S
C603 C599 1.393 . S
C603 C602 1.391 . S
H604 C612 0.950 . S
H605 C617 0.950 . S
H606 C614 0.950 . S
H607 C616 0.950 . S
H608 C618 0.950 . S
H609 C620 0.950 . S
H610 C622 0.950 . S
H611 C623 0.950 . S
C612 H604 0.950 . S
C612 C613 1.386 . S
C612 C614 1.391 . S
C613 C612 1.386 . S
C613 C617 1.393 . S
C614 H606 0.950 . S
C614 C612 1.391 . S
C614 C615 1.400 . S
C615 C614 1.400 . S
C615 C616 1.398 . S
C615 C621 1.491 1_556 S
C616 H607 0.950 . S
C616 C615 1.398 . S
C616 C617 1.391 . S
C617 H605 0.950 . S
C617 C613 1.393 . S
C617 C616 1.391 . S
C618 H608 0.950 . S
C618 C619 1.386 . S
C618 C620 1.391 . S
C619 C618 1.386 . S
C619 C623 1.393 . S
C620 H609 0.950 . S
C620 C618 1.391 . S
C620 C621 1.400 . S
C621 C615 1.491 1_554 S
C621 C620 1.400 . S
C621 C622 1.398 . S
C622 H610 0.950 . S
C622 C621 1.398 . S
C622 C623 1.391 . S
C623 H611 0.950 . S
C623 C619 1.393 . S
C623 C622 1.391 . S
H624 C632 0.950 . S
H625 C637 0.950 . S
H626 C634 0.950 . S
H627 C636 0.950 . S
H628 C638 0.950 . S
H629 C640 0.950 . S
H630 C642 0.950 . S
H631 C643 0.950 . S
C632 H624 0.950 . S
C632 C633 1.386 . S
C632 C634 1.391 . S
C633 C632 1.386 . S
C633 C637 1.393 . S
C634 H626 0.950 . S
C634 C632 1.391 . S
C634 C635 1.400 . S
C635 C634 1.400 . S
C635 C636 1.398 . S
C635 C641 1.491 . S
C636 H627 0.950 . S
C636 C635 1.398 . S
C636 C637 1.391 . S
C637 H625 0.950 . S
C637 C633 1.393 . S
C637 C636 1.391 . S
C638 H628 0.950 . S
C638 C639 1.386 . S
C638 C640 1.391 . S
C639 C638 1.386 . S
C639 C643 1.393 . S
C640 H629 0.950 . S
C640 C638 1.391 . S
C640 C641 1.400 . S
C641 C635 1.491 . S
C641 C640 1.400 . S
C641 C642 1.398 . S
C642 H630 0.950 . S
C642 C641 1.398 . S
C642 C643 1.391 . S
C643 H631 0.950 . S
C643 C639 1.393 . S
C643 C642 1.391 . S
H644 C652 0.950 . S
H645 C657 0.950 . S
H646 C654 0.950 . S
H647 C656 0.950 . S
H648 C658 0.950 . S
H649 C660 0.950 . S
H650 C662 0.950 . S
H651 C663 0.950 . S
C652 H644 0.950 . S
C652 C653 1.386 . S
C652 C654 1.391 . S
C653 C652 1.386 . S
C653 C657 1.393 . S
C654 H646 0.950 . S
C654 C652 1.391 . S
C654 C655 1.400 . S
C655 C654 1.400 . S
C655 C656 1.398 . S
C655 C661 1.491 . S
C656 H647 0.950 . S
C656 C655 1.398 . S
C656 C657 1.391 . S
C657 H645 0.950 . S
C657 C653 1.393 . S
C657 C656 1.391 . S
C658 H648 0.950 . S
C658 C659 1.386 . S
C658 C660 1.391 . S
C659 C658 1.386 . S
C659 C663 1.393 . S
C660 H649 0.950 . S
C660 C658 1.391 . S
C660 C661 1.400 . S
C661 C655 1.491 . S
C661 C660 1.400 . S
C661 C662 1.398 . S
C662 H650 0.950 . S
C662 C661 1.398 . S
C662 C663 1.391 . S
C663 H651 0.950 . S
C663 C659 1.393 . S
C663 C662 1.391 . S
H664 C672 0.950 . S
H665 C677 0.950 . S
H666 C674 0.950 . S
H667 C676 0.950 . S
H668 C678 0.950 . S
H669 C680 0.950 . S
H670 C682 0.950 . S
H671 C683 0.950 . S
C672 H664 0.950 . S
C672 C673 1.386 . S
C672 C674 1.391 . S
C673 C672 1.386 . S
C673 C677 1.393 . S
C674 H666 0.950 . S
C674 C672 1.391 . S
C674 C675 1.400 . S
C675 C674 1.400 . S
C675 C676 1.398 . S
C675 C681 1.491 . S
C676 H667 0.950 . S
C676 C675 1.398 . S
C676 C677 1.391 . S
C677 H665 0.950 . S
C677 C673 1.393 . S
C677 C676 1.391 . S
C678 H668 0.950 . S
C678 C679 1.386 . S
C678 C680 1.391 . S
C679 C678 1.386 . S
C679 C683 1.393 . S
C680 H669 0.950 . S
C680 C678 1.391 . S
C680 C681 1.400 . S
C681 C675 1.491 . S
C681 C680 1.400 . S
C681 C682 1.398 . S
C682 H670 0.950 . S
C682 C681 1.398 . S
C682 C683 1.391 . S
C683 H671 0.950 . S
C683 C679 1.393 . S
C683 C682 1.391 . S
H684 C692 0.950 . S
H685 C697 0.950 . S
H686 C694 0.950 . S
H687 C696 0.950 . S
H688 C698 0.950 . S
H689 C700 0.950 . S
H690 C702 0.950 . S
H691 C703 0.950 . S
C692 H684 0.950 . S
C692 C693 1.386 . S
C692 C694 1.391 . S
C693 C692 1.386 . S
C693 C697 1.393 . S
C694 H686 0.950 . S
C694 C692 1.391 . S
C694 C695 1.400 . S
C695 C694 1.400 . S
C695 C696 1.398 . S
C695 C701 1.491 . S
C696 H687 0.950 . S
C696 C695 1.398 . S
C696 C697 1.391 . S
C697 H685 0.950 . S
C697 C693 1.393 . S
C697 C696 1.391 . S
C698 H688 0.950 . S
C698 C699 1.386 . S
C698 C700 1.391 . S
C699 C698 1.386 . S
C699 C703 1.393 . S
C700 H689 0.950 . S
C700 C698 1.391 . S
C700 C701 1.400 . S
C701 C695 1.491 . S
C701 C700 1.400 . S
C701 C702 1.398 . S
C702 H690 0.950 . S
C702 C701 1.398 . S
C702 C703 1.391 . S
C703 H691 0.950 . S
C703 C699 1.393 . S
C703 C702 1.391 . S
H704 C712 0.950 . S
H705 C717 0.950 . S
H706 C714 0.950 . S
H707 C716 0.950 . S
H708 C718 0.950 . S
H709 C720 0.950 . S
H710 C722 0.950 . S
H711 C723 0.950 . S
C712 H704 0.950 . S
C712 C713 1.386 . S
C712 C714 1.391 . S
C713 C712 1.386 . S
C713 C717 1.393 . S
C714 H706 0.950 . S
C714 C712 1.391 . S
C714 C715 1.400 . S
C715 C714 1.400 . S
C715 C716 1.398 . S
C715 C721 1.491 . S
C716 H707 0.950 . S
C716 C715 1.398 . S
C716 C717 1.391 . S
C717 H705 0.950 . S
C717 C713 1.393 . S
C717 C716 1.391 . S
C718 H708 0.950 . S
C718 C719 1.386 . S
C718 C720 1.391 . S
C719 C718 1.386 . S
C719 C723 1.393 . S
C720 H709 0.950 . S
C720 C718 1.391 . S
C720 C721 1.400 . S
C721 C715 1.491 . S
C721 C720 1.400 . S
C721 C722 1.398 . S
C722 H710 0.950 . S
C722 C721 1.398 . S
C722 C723 1.391 . S
C723 H711 0.950 . S
C723 C719 1.393 . S
C723 C722 1.391 . S
H724 C732 0.950 . S
H725 C737 0.950 . S
H726 C734 0.950 . S
H727 C736 0.950 . S
H728 C738 0.950 . S
H729 C740 0.950 . S
H730 C742 0.950 . S
H731 C743 0.950 . S
C732 H724 0.950 . S
C732 C733 1.386 . S
C732 C734 1.391 . S
C733 C732 1.386 . S
C733 C737 1.393 . S
C734 H726 0.950 . S
C734 C732 1.391 . S
C734 C735 1.400 . S
C735 C734 1.400 . S
C735 C736 1.398 . S
C735 C741 1.491 . S
C736 H727 0.950 . S
C736 C735 1.398 . S
C736 C737 1.391 . S
C737 H725 0.950 . S
C737 C733 1.393 . S
C737 C736 1.391 . S
C738 H728 0.950 . S
C738 C739 1.386 . S
C738 C740 1.391 . S
C739 C738 1.386 . S
C739 C743 1.393 . S
C740 H729 0.950 . S
C740 C738 1.391 . S
C740 C741 1.400 . S
C741 C735 1.491 . S
C741 C740 1.400 . S
C741 C742 1.398 . S
C742 H730 0.950 . S
C742 C741 1.398 . S
C742 C743 1.391 . S
C743 H731 0.950 . S
C743 C739 1.393 . S
C743 C742 1.391 . S
H744 C752 0.939 1_545 S
H745 C757 0.950 . S
H746 C754 0.950 . S
H747 C756 0.950 . S
H748 C758 0.950 . S
H749 C760 0.950 . S
H750 C762 0.950 . S
H751 C763 0.950 . S
C752 H744 0.939 1_565 S
C752 C753 1.386 . S
C752 C754 1.391 . S
C753 C752 1.386 . S
C753 C757 1.393 . S
C754 H746 0.950 . S
C754 C752 1.391 . S
C754 C755 1.400 . S
C755 C754 1.400 . S
C755 C756 1.398 . S
C755 C761 1.491 . S
C756 H747 0.950 . S
C756 C755 1.398 . S
C756 C757 1.391 . S
C757 H745 0.950 . S
C757 C753 1.393 . S
C757 C756 1.391 . S
C758 H748 0.950 . S
C758 C759 1.386 . S
C758 C760 1.391 . S
C759 C758 1.386 . S
C759 C763 1.393 . S
C760 H749 0.950 . S
C760 C758 1.391 . S
C760 C761 1.400 . S
C761 C755 1.491 . S
C761 C760 1.400 . S
C761 C762 1.398 . S
C762 H750 0.950 . S
C762 C761 1.398 . S
C762 C763 1.391 . S
C763 H751 0.950 . S
C763 C759 1.393 . S
C763 C762 1.391 . S
H764 C772 0.950 . S
H765 C777 0.950 . S
H766 C774 0.950 . S
H767 C776 0.950 . S
H768 C778 0.950 . S
H769 C780 0.950 . S
H770 C782 0.950 . S
H771 C783 0.950 1_655 S
C772 H764 0.950 . S
C772 C773 1.386 . S
C772 C774 1.391 . S
C773 C772 1.386 . S
C773 C777 1.393 . S
C774 H766 0.950 . S
C774 C772 1.391 . S
C774 C775 1.400 . S
C775 C774 1.400 . S
C775 C776 1.398 . S
C775 C781 1.491 . S
C776 H767 0.950 . S
C776 C775 1.398 . S
C776 C777 1.391 . S
C777 H765 0.950 . S
C777 C773 1.393 . S
C777 C776 1.391 . S
C778 H768 0.950 . S
C778 C779 1.386 . S
C778 C780 1.391 . S
C779 C778 1.386 . S
C779 C783 1.393 . S
C780 H769 0.950 . S
C780 C778 1.391 . S
C780 C781 1.400 . S
C781 C775 1.491 . S
C781 C780 1.400 . S
C781 C782 1.398 . S
C782 H770 0.950 . S
C782 C781 1.398 . S
C782 C783 1.391 . S
C783 H771 0.950 1_455 S
C783 C779 1.393 . S
C783 C782 1.391 . S
H784 C792 0.950 . S
H785 C797 0.950 . S
H786 C794 0.950 . S
H787 C796 0.950 . S
H788 C798 0.950 . S
H789 C800 0.950 . S
H790 C802 0.950 . S
H791 C803 0.950 . S
C792 H784 0.950 . S
C792 C793 1.386 . S
C792 C794 1.391 . S
C793 C792 1.386 . S
C793 C797 1.393 . S
C794 H786 0.950 . S
C794 C792 1.391 . S
C794 C795 1.400 . S
C795 C794 1.400 . S
C795 C796 1.398 . S
C795 C801 1.491 . S
C796 H787 0.950 . S
C796 C795 1.398 . S
C796 C797 1.391 . S
C797 H785 0.950 . S
C797 C793 1.393 . S
C797 C796 1.391 . S
C798 H788 0.950 . S
C798 C799 1.386 . S
C798 C800 1.391 . S
C799 C798 1.386 . S
C799 C803 1.393 . S
C800 H789 0.950 . S
C800 C798 1.391 . S
C800 C801 1.400 . S
C801 C795 1.491 . S
C801 C800 1.400 . S
C801 C802 1.398 . S
C802 H790 0.950 . S
C802 C801 1.398 . S
C802 C803 1.391 . S
C803 H791 0.950 . S
C803 C799 1.393 . S
C803 C802 1.391 . S
H804 C812 0.950 . S
H805 C817 0.950 . S
H806 C814 0.950 . S
H807 C816 0.950 . S
H808 C818 0.950 . S
H809 C820 0.950 . S
H810 C822 0.950 . S
H811 C823 0.950 . S
C812 H804 0.950 . S
C812 C813 1.386 . S
C812 C814 1.391 . S
C813 C812 1.386 . S
C813 C817 1.393 . S
C814 H806 0.950 . S
C814 C812 1.391 . S
C814 C815 1.400 . S
C815 C814 1.400 . S
C815 C816 1.398 . S
C815 C821 1.491 . S
C816 H807 0.950 . S
C816 C815 1.398 . S
C816 C817 1.391 . S
C817 H805 0.950 . S
C817 C813 1.393 . S
C817 C816 1.391 . S
C818 H808 0.950 . S
C818 C819 1.386 . S
C818 C820 1.391 . S
C819 C818 1.386 . S
C819 C823 1.393 . S
C820 H809 0.950 . S
C820 C818 1.391 . S
C820 C821 1.400 . S
C821 C815 1.491 . S
C821 C820 1.400 . S
C821 C822 1.398 . S
C822 H810 0.950 . S
C822 C821 1.398 . S
C822 C823 1.391 . S
C823 H811 0.950 . S
C823 C819 1.393 . S
C823 C822 1.391 . S
H824 C832 0.950 . S
H825 C837 0.950 . S
H826 C834 0.950 . S
H827 C836 0.950 . S
H828 C838 0.950 . S
H829 C840 0.950 . S
H830 C842 0.950 . S
H831 C843 0.950 . S
C832 H824 0.950 . S
C832 C833 1.386 . S
C832 C834 1.391 . S
C833 C832 1.386 . S
C833 C837 1.393 . S
C834 H826 0.950 . S
C834 C832 1.391 . S
C834 C835 1.400 . S
C835 C834 1.400 . S
C835 C836 1.398 . S
C835 C841 1.491 . S
C836 H827 0.950 . S
C836 C835 1.398 . S
C836 C837 1.391 . S
C837 H825 0.950 . S
C837 C833 1.393 . S
C837 C836 1.391 . S
C838 H828 0.950 . S
C838 C839 1.386 . S
C838 C840 1.391 . S
C839 C838 1.386 . S
C839 C843 1.393 . S
C840 H829 0.950 . S
C840 C838 1.391 . S
C840 C841 1.400 . S
C841 C835 1.491 . S
C841 C840 1.400 . S
C841 C842 1.398 . S
C842 H830 0.950 . S
C842 C841 1.398 . S
C842 C843 1.391 . S
C843 H831 0.950 . S
C843 C839 1.393 . S
C843 C842 1.391 . S
H844 C852 0.950 . S
H845 C857 0.950 . S
H846 C854 0.950 . S
H847 C856 0.950 . S
H848 C858 0.950 . S
H849 C860 0.950 . S
H850 C862 0.950 . S
H851 C863 0.950 . S
C852 H844 0.950 . S
C852 C853 1.386 . S
C852 C854 1.391 . S
C853 C852 1.386 . S
C853 C857 1.393 . S
C854 H846 0.950 . S
C854 C852 1.391 . S
C854 C855 1.400 . S
C855 C854 1.400 . S
C855 C856 1.398 . S
C855 C861 1.491 . S
C856 H847 0.950 . S
C856 C855 1.398 . S
C856 C857 1.391 . S
C857 H845 0.950 . S
C857 C853 1.393 . S
C857 C856 1.391 . S
C858 H848 0.950 . S
C858 C859 1.386 . S
C858 C860 1.391 . S
C859 C858 1.386 . S
C859 C863 1.393 . S
C860 H849 0.950 . S
C860 C858 1.391 . S
C860 C861 1.400 . S
C861 C855 1.491 . S
C861 C860 1.400 . S
C861 C862 1.398 . S
C862 H850 0.950 . S
C862 C861 1.398 . S
C862 C863 1.391 . S
C863 H851 0.950 . S
C863 C859 1.393 . S
C863 C862 1.391 . S
H864 C872 0.950 . S
H865 C877 0.950 . S
H866 C874 0.950 . S
H867 C876 0.950 . S
H868 C878 0.950 . S
H869 C880 0.950 . S
H870 C882 0.950 . S
H871 C883 0.950 1_545 S
C872 H864 0.950 . S
C872 C873 1.386 . S
C872 C874 1.391 . S
C873 C872 1.386 . S
C873 C877 1.393 . S
C874 H866 0.950 . S
C874 C872 1.391 . S
C874 C875 1.400 . S
C875 C874 1.400 . S
C875 C876 1.398 . S
C875 C881 1.491 . S
C876 H867 0.950 . S
C876 C875 1.398 . S
C876 C877 1.391 . S
C877 H865 0.950 . S
C877 C873 1.393 . S
C877 C876 1.391 . S
C878 H868 0.950 . S
C878 C879 1.386 . S
C878 C880 1.391 . S
C879 C878 1.386 . S
C879 C883 1.393 . S
C880 H869 0.950 . S
C880 C878 1.391 . S
C880 C881 1.400 . S
C881 C875 1.491 . S
C881 C880 1.400 . S
C881 C882 1.398 . S
C882 H870 0.950 . S
C882 C881 1.398 . S
C882 C883 1.391 . S
C883 H871 0.950 1_565 S
C883 C879 1.393 . S
C883 C882 1.391 . S
H884 C892 0.950 . S
H885 C897 0.950 . S
H886 C894 0.950 . S
H887 C896 0.950 . S
H888 C898 0.950 . S
H889 C900 0.950 . S
H890 C902 0.950 . S
H891 C903 0.950 1_655 S
C892 H884 0.950 . S
C892 C893 1.386 . S
C892 C894 1.391 . S
C893 C892 1.386 . S
C893 C897 1.393 . S
C894 H886 0.950 . S
C894 C892 1.391 . S
C894 C895 1.400 . S
C895 C894 1.400 . S
C895 C896 1.398 . S
C895 C901 1.491 . S
C896 H887 0.950 . S
C896 C895 1.398 . S
C896 C897 1.391 . S
C897 H885 0.950 . S
C897 C893 1.393 . S
C897 C896 1.391 . S
C898 H888 0.950 . S
C898 C899 1.386 . S
C898 C900 1.391 . S
C899 C898 1.386 . S
C899 C903 1.393 . S
C900 H889 0.950 . S
C900 C898 1.391 . S
C900 C901 1.400 . S
C901 C895 1.491 . S
C901 C900 1.400 . S
C901 C902 1.398 . S
C902 H890 0.950 . S
C902 C901 1.398 . S
C902 C903 1.391 . S
C903 H891 0.950 1_455 S
C903 C899 1.393 . S
C903 C902 1.391 . S
H904 C912 0.950 . S
H905 C917 0.950 . S
H906 C914 0.950 . S
H907 C916 0.950 . S
H908 C918 0.950 . S
H909 C920 0.950 . S
H910 C922 0.950 . S
H911 C923 0.950 . S
C912 H904 0.950 . S
C912 C913 1.386 . S
C912 C914 1.391 . S
C913 C912 1.386 . S
C913 C917 1.393 . S
C914 H906 0.950 . S
C914 C912 1.391 . S
C914 C915 1.400 . S
C915 C914 1.400 . S
C915 C916 1.398 . S
C915 C921 1.491 . S
C916 H907 0.950 . S
C916 C915 1.398 . S
C916 C917 1.391 . S
C917 H905 0.950 . S
C917 C913 1.393 . S
C917 C916 1.391 . S
C918 H908 0.950 . S
C918 C919 1.386 . S
C918 C920 1.391 . S
C919 C918 1.386 . S
C919 C923 1.393 . S
C920 H909 0.950 . S
C920 C918 1.391 . S
C920 C921 1.400 . S
C921 C915 1.491 . S
C921 C920 1.400 . S
C921 C922 1.398 . S
C922 H910 0.950 . S
C922 C921 1.398 . S
C922 C923 1.391 . S
C923 H911 0.950 . S
C923 C919 1.393 . S
C923 C922 1.391 . S
H924 C932 0.950 . S
H925 C937 0.950 . S
H926 C934 0.950 . S
H927 C936 0.950 . S
H928 C938 0.950 . S
H929 C940 0.950 . S
H930 C942 0.950 . S
H931 C943 0.950 1_455 S
C932 H924 0.950 . S
C932 C933 1.386 . S
C932 C934 1.391 . S
C933 C932 1.386 . S
C933 C937 1.393 . S
C934 H926 0.950 . S
C934 C932 1.391 . S
C934 C935 1.400 . S
C935 C934 1.400 . S
C935 C936 1.398 . S
C935 C941 1.491 . S
C936 H927 0.950 . S
C936 C935 1.398 . S
C936 C937 1.391 . S
C937 H925 0.950 . S
C937 C933 1.393 . S
C937 C936 1.391 . S
C938 H928 0.950 . S
C938 C939 1.386 . S
C938 C940 1.391 . S
C939 C938 1.386 . S
C939 C943 1.393 . S
C940 H929 0.950 . S
C940 C938 1.391 . S
C940 C941 1.400 . S
C941 C935 1.491 . S
C941 C940 1.400 . S
C941 C942 1.398 . S
C942 H930 0.950 . S
C942 C941 1.398 . S
C942 C943 1.391 . S
C943 H931 0.950 1_655 S
C943 C939 1.393 . S
C943 C942 1.391 . S
H944 C952 0.950 . S
H945 C957 0.950 . S
H946 C954 0.950 . S
H947 C956 0.950 . S
H948 C958 0.950 . S
H949 C960 0.950 . S
H950 C962 0.950 . S
H951 C963 0.950 . S
C952 H944 0.950 . S
C952 C953 1.386 . S
C952 C954 1.391 . S
C953 C952 1.386 . S
C953 C957 1.393 . S
C954 H946 0.950 . S
C954 C952 1.391 . S
C954 C955 1.400 . S
C955 C954 1.400 . S
C955 C956 1.398 . S
C955 C961 1.491 . S
C956 H947 0.950 . S
C956 C955 1.398 . S
C956 C957 1.391 . S
C957 H945 0.950 . S
C957 C953 1.393 . S
C957 C956 1.391 . S
C958 H948 0.950 . S
C958 C959 1.386 . S
C958 C960 1.391 . S
C959 C958 1.386 . S
C959 C963 1.393 . S
C960 H949 0.950 . S
C960 C958 1.391 . S
C960 C961 1.400 . S
C961 C955 1.491 . S
C961 C960 1.400 . S
C961 C962 1.398 . S
C962 H950 0.950 . S
C962 C961 1.398 . S
C962 C963 1.391 . S
C963 H951 0.950 . S
C963 C959 1.393 . S
C963 C962 1.391 . S
H964 C972 0.950 . S
H965 C977 0.950 . S
H966 C974 0.950 . S
H967 C976 0.950 . S
H968 C978 0.950 . S
H969 C980 0.950 . S
H970 C982 0.950 . S
H971 C983 0.950 . S
C972 H964 0.950 . S
C972 C973 1.386 . S
C972 C974 1.391 . S
C973 C972 1.386 . S
C973 C977 1.393 . S
C974 H966 0.950 . S
C974 C972 1.391 . S
C974 C975 1.400 . S
C975 C974 1.400 . S
C975 C976 1.398 . S
C975 C981 1.491 . S
C976 H967 0.950 . S
C976 C975 1.398 . S
C976 C977 1.391 . S
C977 H965 0.950 . S
C977 C973 1.393 . S
C977 C976 1.391 . S
C978 H968 0.950 . S
C978 C979 1.386 . S
C978 C980 1.391 . S
C979 C978 1.386 . S
C979 C983 1.393 . S
C980 H969 0.950 . S
C980 C978 1.391 . S
C980 C981 1.400 . S
C981 C975 1.491 . S
C981 C980 1.400 . S
C981 C982 1.398 . S
C982 H970 0.950 . S
C982 C981 1.398 . S
C982 C983 1.391 . S
C983 H971 0.950 . S
C983 C979 1.393 . S
C983 C982 1.391 . S
H984 C992 0.950 . S
H985 C997 0.950 . S
H986 C994 0.950 . S
H987 C996 0.950 . S
H988 C998 0.950 . S
H989 C1000 0.950 . S
H990 C1002 0.950 . S
H991 C1003 0.950 . S
C992 H984 0.950 . S
C992 C993 1.386 . S
C992 C994 1.391 . S
C993 C992 1.386 . S
C993 C997 1.393 . S
C994 H986 0.950 . S
C994 C992 1.391 . S
C994 C995 1.400 . S
C995 C994 1.400 . S
C995 C996 1.398 . S
C995 C1001 1.491 . S
C996 H987 0.950 . S
C996 C995 1.398 . S
C996 C997 1.391 . S
C997 H985 0.950 . S
C997 C993 1.393 . S
C997 C996 1.391 . S
C998 H988 0.950 . S
C998 C999 1.386 . S
C998 C1000 1.391 . S
C999 C998 1.386 . S
C999 C1003 1.393 . S
C1000 H989 0.950 . S
C1000 C998 1.391 . S
C1000 C1001 1.400 . S
C1001 C995 1.491 . S
C1001 C1000 1.400 . S
C1001 C1002 1.398 . S
C1002 H990 0.950 . S
C1002 C1001 1.398 . S
C1002 C1003 1.391 . S
C1003 H991 0.950 . S
C1003 C999 1.393 . S
C1003 C1002 1.391 . S
H1004 C1012 0.950 . S
H1005 C1017 0.950 . S
H1006 C1014 0.950 . S
H1007 C1016 0.950 . S
H1008 C1018 0.950 . S
H1009 C1020 0.950 . S
H1010 C1022 0.950 . S
H1011 C1023 0.950 . S
C1012 H1004 0.950 . S
C1012 C1013 1.386 . S
C1012 C1014 1.391 . S
C1013 C1012 1.386 . S
C1013 C1017 1.393 . S
C1014 H1006 0.950 . S
C1014 C1012 1.391 . S
C1014 C1015 1.400 . S
C1015 C1014 1.400 . S
C1015 C1016 1.398 . S
C1015 C1021 1.491 . S
C1016 H1007 0.950 . S
C1016 C1015 1.398 . S
C1016 C1017 1.391 . S
C1017 H1005 0.950 . S
C1017 C1013 1.393 . S
C1017 C1016 1.391 . S
C1018 H1008 0.950 . S
C1018 C1019 1.386 . S
C1018 C1020 1.391 . S
C1019 C1018 1.386 . S
C1019 C1023 1.393 . S
C1020 H1009 0.950 . S
C1020 C1018 1.391 . S
C1020 C1021 1.400 . S
C1021 C1015 1.491 . S
C1021 C1020 1.400 . S
C1021 C1022 1.398 . S
C1022 H1010 0.950 . S
C1022 C1021 1.398 . S
C1022 C1023 1.391 . S
C1023 H1011 0.950 . S
C1023 C1019 1.393 . S
C1023 C1022 1.391 . S
H1024 C1032 0.950 . S
H1025 C1037 0.950 . S
H1026 C1034 0.950 . S
H1027 C1036 0.950 . S
H1028 C1038 0.950 . S
H1029 C1040 0.950 . S
H1030 C1042 0.950 . S
H1031 C1043 0.950 . S
C1032 H1024 0.950 . S
C1032 C1033 1.386 . S
C1032 C1034 1.391 . S
C1033 C1032 1.386 . S
C1033 C1037 1.393 . S
C1034 H1026 0.950 . S
C1034 C1032 1.391 . S
C1034 C1035 1.400 . S
C1035 C1034 1.400 . S
C1035 C1036 1.398 . S
C1035 C1041 1.491 . S
C1036 H1027 0.950 . S
C1036 C1035 1.398 . S
C1036 C1037 1.391 . S
C1037 H1025 0.950 . S
C1037 C1033 1.393 . S
C1037 C1036 1.391 . S
C1038 H1028 0.950 . S
C1038 C1039 1.386 . S
C1038 C1040 1.391 . S
C1039 C1038 1.386 . S
C1039 C1043 1.393 . S
C1040 H1029 0.950 . S
C1040 C1038 1.391 . S
C1040 C1041 1.400 . S
C1041 C1035 1.491 . S
C1041 C1040 1.400 . S
C1041 C1042 1.398 . S
C1042 H1030 0.950 . S
C1042 C1041 1.398 . S
C1042 C1043 1.391 . S
C1043 H1031 0.950 . S
C1043 C1039 1.393 . S
C1043 C1042 1.391 . S
H1044 C1052 0.950 . S
H1045 C1057 0.950 . S
H1046 C1054 0.950 . S
H1047 C1056 0.950 . S
H1048 C1058 0.950 . S
H1049 C1060 0.950 . S
H1050 C1062 0.950 . S
H1051 C1063 0.950 . S
C1052 H1044 0.950 . S
C1052 C1053 1.386 . S
C1052 C1054 1.391 . S
C1053 C1052 1.386 . S
C1053 C1057 1.393 . S
C1054 H1046 0.950 . S
C1054 C1052 1.391 . S
C1054 C1055 1.400 . S
C1055 C1054 1.400 . S
C1055 C1056 1.398 . S
C1055 C1061 1.491 . S
C1056 H1047 0.950 . S
C1056 C1055 1.398 . S
C1056 C1057 1.391 . S
C1057 H1045 0.950 . S
C1057 C1053 1.393 . S
C1057 C1056 1.391 . S
C1058 H1048 0.950 . S
C1058 C1059 1.386 . S
C1058 C1060 1.391 . S
C1059 C1058 1.386 . S
C1059 C1063 1.393 . S
C1060 H1049 0.950 . S
C1060 C1058 1.391 . S
C1060 C1061 1.400 . S
C1061 C1055 1.491 . S
C1061 C1060 1.400 . S
C1061 C1062 1.398 . S
C1062 H1050 0.950 . S
C1062 C1061 1.398 . S
C1062 C1063 1.391 . S
C1063 H1051 0.950 . S
C1063 C1059 1.393 . S
C1063 C1062 1.391 . S
H1064 C1072 0.950 . S
H1065 C1077 0.950 . S
H1066 C1074 0.950 . S
H1067 C1076 0.950 . S
H1068 C1078 0.950 . S
H1069 C1080 0.950 . S
H1070 C1082 0.950 . S
H1071 C1083 0.950 . S
C1072 H1064 0.950 . S
C1072 C1073 1.386 . S
C1072 C1074 1.391 . S
C1073 C1072 1.386 . S
C1073 C1077 1.393 . S
C1074 H1066 0.950 . S
C1074 C1072 1.391 . S
C1074 C1075 1.400 . S
C1075 C1074 1.400 . S
C1075 C1076 1.398 . S
C1075 C1081 1.491 . S
C1076 H1067 0.950 . S
C1076 C1075 1.398 . S
C1076 C1077 1.391 . S
C1077 H1065 0.950 . S
C1077 C1073 1.393 . S
C1077 C1076 1.391 . S
C1078 H1068 0.950 . S
C1078 C1079 1.386 . S
C1078 C1080 1.391 . S
C1079 C1078 1.386 . S
C1079 C1083 1.393 . S
C1080 H1069 0.950 . S
C1080 C1078 1.391 . S
C1080 C1081 1.400 . S
C1081 C1075 1.491 . S
C1081 C1080 1.400 . S
C1081 C1082 1.398 . S
C1082 H1070 0.950 . S
C1082 C1081 1.398 . S
C1082 C1083 1.391 . S
C1083 H1071 0.950 . S
C1083 C1079 1.393 . S
C1083 C1082 1.391 . S
H1084 C1092 0.950 . S
H1085 C1097 0.950 . S
H1086 C1094 0.950 . S
H1087 C1096 0.950 . S
H1088 C1098 0.950 . S
H1089 C1100 0.950 . S
H1090 C1102 0.950 . S
H1091 C1103 0.950 . S
C1092 H1084 0.950 . S
C1092 C1093 1.386 . S
C1092 C1094 1.391 . S
C1093 C1092 1.386 . S
C1093 C1097 1.393 . S
C1094 H1086 0.950 . S
C1094 C1092 1.391 . S
C1094 C1095 1.400 . S
C1095 C1094 1.400 . S
C1095 C1096 1.398 . S
C1095 C1101 1.491 . S
C1096 H1087 0.950 . S
C1096 C1095 1.398 . S
C1096 C1097 1.391 . S
C1097 H1085 0.950 . S
C1097 C1093 1.393 . S
C1097 C1096 1.391 . S
C1098 H1088 0.950 . S
C1098 C1099 1.386 . S
C1098 C1100 1.391 . S
C1099 C1098 1.386 . S
C1099 C1103 1.393 . S
C1100 H1089 0.950 . S
C1100 C1098 1.391 . S
C1100 C1101 1.400 . S
C1101 C1095 1.491 . S
C1101 C1100 1.400 . S
C1101 C1102 1.398 . S
C1102 H1090 0.950 . S
C1102 C1101 1.398 . S
C1102 C1103 1.391 . S
C1103 H1091 0.950 . S
C1103 C1099 1.393 . S
C1103 C1102 1.391 . S
H1104 C1112 0.950 . S
H1105 C1117 0.950 . S
H1106 C1114 0.950 . S
H1107 C1116 0.950 . S
H1108 C1118 0.950 . S
H1109 C1120 0.950 . S
H1110 C1122 0.950 . S
H1111 C1123 0.950 . S
C1112 H1104 0.950 . S
C1112 C1113 1.386 . S
C1112 C1114 1.391 . S
C1113 C1112 1.386 . S
C1113 C1117 1.393 . S
C1114 H1106 0.950 . S
C1114 C1112 1.391 . S
C1114 C1115 1.400 . S
C1115 C1114 1.400 . S
C1115 C1116 1.398 . S
C1115 C1121 1.491 . S
C1116 H1107 0.950 . S
C1116 C1115 1.398 . S
C1116 C1117 1.391 . S
C1117 H1105 0.950 . S
C1117 C1113 1.393 . S
C1117 C1116 1.391 . S
C1118 H1108 0.950 . S
C1118 C1119 1.386 . S
C1118 C1120 1.391 . S
C1119 C1118 1.386 . S
C1119 C1123 1.393 . S
C1120 H1109 0.950 . S
C1120 C1118 1.391 . S
C1120 C1121 1.400 . S
C1121 C1115 1.491 . S
C1121 C1120 1.400 . S
C1121 C1122 1.398 . S
C1122 H1110 0.950 . S
C1122 C1121 1.398 . S
C1122 C1123 1.391 . S
C1123 H1111 0.950 . S
C1123 C1119 1.393 . S
C1123 C1122 1.391 . S
H1124 C1132 0.950 . S
H1125 C1137 0.950 . S
H1126 C1134 0.950 . S
H1127 C1136 0.950 . S
H1128 C1138 0.950 . S
H1129 C1140 0.950 . S
H1130 C1142 0.950 . S
H1131 C1143 0.950 . S
C1132 H1124 0.950 . S
C1132 C1133 1.386 . S
C1132 C1134 1.391 . S
C1133 C1132 1.386 . S
C1133 C1137 1.393 . S
C1134 H1126 0.950 . S
C1134 C1132 1.391 . S
C1134 C1135 1.400 . S
C1135 C1134 1.400 . S
C1135 C1136 1.398 . S
C1135 C1141 1.491 . S
C1136 H1127 0.950 . S
C1136 C1135 1.398 . S
C1136 C1137 1.391 . S
C1137 H1125 0.950 . S
C1137 C1133 1.393 . S
C1137 C1136 1.391 . S
C1138 H1128 0.950 . S
C1138 C1139 1.386 . S
C1138 C1140 1.391 . S
C1139 C1138 1.386 . S
C1139 C1143 1.393 . S
C1140 H1129 0.950 . S
C1140 C1138 1.391 . S
C1140 C1141 1.400 . S
C1141 C1135 1.491 . S
C1141 C1140 1.400 . S
C1141 C1142 1.398 . S
C1142 H1130 0.950 . S
C1142 C1141 1.398 . S
C1142 C1143 1.391 . S
C1143 H1131 0.950 . S
C1143 C1139 1.393 . S
C1143 C1142 1.391 . S
H1144 C1152 0.950 . S
H1145 C1157 0.950 . S
H1146 C1154 0.950 . S
H1147 C1156 0.950 . S
H1148 C1158 0.950 . S
H1149 C1160 0.950 . S
H1150 C1162 0.950 . S
H1151 C1163 0.950 . S
C1152 H1144 0.950 . S
C1152 C1153 1.386 . S
C1152 C1154 1.391 . S
C1153 C1152 1.386 . S
C1153 C1157 1.393 . S
C1154 H1146 0.950 . S
C1154 C1152 1.391 . S
C1154 C1155 1.400 . S
C1155 C1154 1.400 . S
C1155 C1156 1.398 . S
C1155 C1161 1.491 . S
C1156 H1147 0.950 . S
C1156 C1155 1.398 . S
C1156 C1157 1.391 . S
C1157 H1145 0.950 . S
C1157 C1153 1.393 . S
C1157 C1156 1.391 . S
C1158 H1148 0.950 . S
C1158 C1159 1.386 . S
C1158 C1160 1.391 . S
C1159 C1158 1.386 . S
C1159 C1163 1.393 . S
C1160 H1149 0.950 . S
C1160 C1158 1.391 . S
C1160 C1161 1.400 . S
C1161 C1155 1.491 . S
C1161 C1160 1.400 . S
C1161 C1162 1.398 . S
C1162 H1150 0.950 . S
C1162 C1161 1.398 . S
C1162 C1163 1.391 . S
C1163 H1151 0.950 . S
C1163 C1159 1.393 . S
C1163 C1162 1.391 . S
H1164 C1172 0.950 . S
H1165 C1177 0.950 . S
H1166 C1174 0.950 . S
H1167 C1176 0.950 . S
H1168 C1178 0.950 . S
H1169 C1180 0.950 . S
H1170 C1182 0.950 . S
H1171 C1183 0.950 . S
C1172 H1164 0.950 . S
C1172 C1173 1.386 . S
C1172 C1174 1.391 . S
C1173 C1172 1.386 . S
C1173 C1177 1.393 . S
C1174 H1166 0.950 . S
C1174 C1172 1.391 . S
C1174 C1175 1.400 . S
C1175 C1174 1.400 . S
C1175 C1176 1.398 . S
C1175 C1181 1.491 . S
C1176 H1167 0.950 . S
C1176 C1175 1.398 . S
C1176 C1177 1.391 . S
C1177 H1165 0.950 . S
C1177 C1173 1.393 . S
C1177 C1176 1.391 . S
C1178 H1168 0.950 . S
C1178 C1179 1.386 . S
C1178 C1180 1.391 . S
C1179 C1178 1.386 . S
C1179 C1183 1.393 . S
C1180 H1169 0.950 . S
C1180 C1178 1.391 . S
C1180 C1181 1.400 . S
C1181 C1175 1.491 . S
C1181 C1180 1.400 . S
C1181 C1182 1.398 . S
C1182 H1170 0.950 . S
C1182 C1181 1.398 . S
C1182 C1183 1.391 . S
C1183 H1171 0.950 . S
C1183 C1179 1.393 . S
C1183 C1182 1.391 . S
H1184 C1192 0.950 . S
H1185 C1197 0.950 . S
H1186 C1194 0.950 1_455 S
H1187 C1196 0.950 . S
H1188 C1198 0.950 . S
H1189 C1200 0.950 1_655 S
H1190 C1202 0.950 . S
H1191 C1203 0.950 . S
C1192 H1184 0.950 . S
C1192 C1193 1.386 . S
C1192 C1194 1.391 . S
C1193 C1192 1.386 . S
C1193 C1197 1.393 . S
C1194 H1186 0.950 1_655 S
C1194 C1192 1.391 . S
C1194 C1195 1.400 . S
C1195 C1194 1.400 . S
C1195 C1196 1.398 . S
C1195 C1201 1.491 1_655 S
C1196 H1187 0.950 . S
C1196 C1195 1.398 . S
C1196 C1197 1.391 . S
C1197 H1185 0.950 . S
C1197 C1193 1.393 . S
C1197 C1196 1.391 . S
C1198 H1188 0.950 . S
C1198 C1199 1.386 . S
C1198 C1200 1.391 . S
C1199 C1198 1.386 . S
C1199 C1203 1.393 . S
C1200 H1189 0.950 1_455 S
C1200 C1198 1.391 . S
C1200 C1201 1.400 . S
C1201 C1195 1.491 1_455 S
C1201 C1200 1.400 . S
C1201 C1202 1.398 . S
C1202 H1190 0.950 . S
C1202 C1201 1.398 . S
C1202 C1203 1.391 . S
C1203 H1191 0.950 . S
C1203 C1199 1.393 . S
C1203 C1202 1.391 . S
H1204 C1212 0.950 . S
H1205 C1217 0.936 1_545 S
H1206 C1214 0.950 . S
H1207 C1216 0.950 . S
H1208 C1218 0.950 . S
H1209 C1220 0.950 . S
H1210 C1222 0.950 . S
H1211 C1223 0.936 1_565 S
C1212 H1204 0.950 . S
C1212 C1213 1.386 . S
C1212 C1214 1.391 . S
C1213 C1212 1.386 . S
C1213 C1217 1.416 . S
C1214 H1206 0.950 . S
C1214 C1212 1.391 . S
C1214 C1215 1.400 . S
C1215 C1214 1.400 . S
C1215 C1216 1.398 1_565 S
C1215 C1221 1.491 1_565 S
C1216 H1207 0.950 . S
C1216 C1215 1.398 1_545 S
C1216 C1217 1.381 1_545 S
C1217 H1205 0.936 1_565 S
C1217 C1213 1.416 . S
C1217 C1216 1.381 1_565 S
C1218 H1208 0.950 . S
C1218 C1219 1.386 . S
C1218 C1220 1.391 . S
C1219 C1218 1.386 . S
C1219 C1223 1.416 . S
C1220 H1209 0.950 . S
C1220 C1218 1.391 . S
C1220 C1221 1.400 . S
C1221 C1215 1.491 1_545 S
C1221 C1220 1.400 . S
C1221 C1222 1.398 1_545 S
C1222 H1210 0.950 . S
C1222 C1221 1.398 1_565 S
C1222 C1223 1.381 1_565 S
C1223 H1211 0.936 1_545 S
C1223 C1219 1.416 . S
C1223 C1222 1.381 1_545 S
H1224 C1232 0.950 . S
H1225 C1237 0.950 . S
H1226 C1234 0.950 . S
H1227 C1236 0.950 . S
H1228 C1238 0.950 . S
H1229 C1240 0.950 . S
H1230 C1242 0.950 . S
H1231 C1243 0.950 . S
C1232 H1224 0.950 . S
C1232 C1233 1.386 . S
C1232 C1234 1.391 . S
C1233 C1232 1.386 . S
C1233 C1237 1.393 . S
C1234 H1226 0.950 . S
C1234 C1232 1.391 . S
C1234 C1235 1.400 . S
C1235 C1234 1.400 . S
C1235 C1236 1.398 . S
C1235 C1241 1.491 1_545 S
C1236 H1227 0.950 . S
C1236 C1235 1.398 . S
C1236 C1237 1.391 . S
C1237 H1225 0.950 . S
C1237 C1233 1.393 . S
C1237 C1236 1.391 . S
C1238 H1228 0.950 . S
C1238 C1239 1.386 . S
C1238 C1240 1.391 . S
C1239 C1238 1.386 . S
C1239 C1243 1.393 . S
C1240 H1229 0.950 . S
C1240 C1238 1.391 . S
C1240 C1241 1.400 . S
C1241 C1235 1.491 1_565 S
C1241 C1240 1.400 . S
C1241 C1242 1.398 . S
C1242 H1230 0.950 . S
C1242 C1241 1.398 . S
C1242 C1243 1.391 . S
C1243 H1231 0.950 . S
C1243 C1239 1.393 . S
C1243 C1242 1.391 . S
H1244 C1252 0.950 . S
H1245 C1257 0.950 . S
H1246 C1254 0.950 . S
H1247 C1256 0.950 . S
H1248 C1258 0.950 . S
H1249 C1260 0.950 . S
H1250 C1262 0.950 . S
H1251 C1263 0.950 . S
C1252 H1244 0.950 . S
C1252 C1253 1.386 . S
C1252 C1254 1.391 . S
C1253 C1252 1.386 . S
C1253 C1257 1.393 . S
C1254 H1246 0.950 . S
C1254 C1252 1.391 . S
C1254 C1255 1.400 . S
C1255 C1254 1.400 . S
C1255 C1256 1.398 . S
C1255 C1261 1.491 1_655 S
C1256 H1247 0.950 . S
C1256 C1255 1.398 . S
C1256 C1257 1.391 . S
C1257 H1245 0.950 . S
C1257 C1253 1.393 . S
C1257 C1256 1.391 . S
C1258 H1248 0.950 . S
C1258 C1259 1.386 . S
C1258 C1260 1.391 . S
C1259 C1258 1.386 . S
C1259 C1263 1.393 . S
C1260 H1249 0.950 . S
C1260 C1258 1.391 . S
C1260 C1261 1.400 . S
C1261 C1255 1.491 1_455 S
C1261 C1260 1.400 . S
C1261 C1262 1.398 . S
C1262 H1250 0.950 . S
C1262 C1261 1.398 . S
C1262 C1263 1.391 . S
C1263 H1251 0.950 . S
C1263 C1259 1.393 . S
C1263 C1262 1.391 . S
H1264 C1272 0.950 . S
H1265 C1277 0.950 1_455 S
H1266 C1274 0.950 . S
H1267 C1276 0.950 . S
H1268 C1278 0.950 . S
H1269 C1280 0.950 . S
H1270 C1282 0.950 . S
H1271 C1283 0.950 1_655 S
C1272 H1264 0.950 . S
C1272 C1273 1.386 . S
C1272 C1274 1.391 . S
C1273 C1272 1.386 . S
C1273 C1277 1.393 . S
C1274 H1266 0.950 . S
C1274 C1272 1.391 . S
C1274 C1275 1.400 . S
C1275 C1274 1.400 . S
C1275 C1276 1.398 1_655 S
C1275 C1281 1.491 1_655 S
C1276 H1267 0.950 . S
C1276 C1275 1.398 1_455 S
C1276 C1277 1.391 1_455 S
C1277 H1265 0.950 1_655 S
C1277 C1273 1.393 . S
C1277 C1276 1.391 1_655 S
C1278 H1268 0.950 . S
C1278 C1279 1.386 . S
C1278 C1280 1.391 . S
C1279 C1278 1.386 . S
C1279 C1283 1.393 . S
C1280 H1269 0.950 . S
C1280 C1278 1.391 . S
C1280 C1281 1.400 . S
C1281 C1275 1.491 1_455 S
C1281 C1280 1.400 . S
C1281 C1282 1.398 1_455 S
C1282 H1270 0.950 . S
C1282 C1281 1.398 1_655 S
C1282 C1283 1.391 1_655 S
C1283 H1271 0.950 1_455 S
C1283 C1279 1.393 . S
C1283 C1282 1.391 1_455 S
H1284 C1292 0.950 . S
H1285 C1297 0.950 . S
H1286 C1294 0.950 . S
H1287 C1296 0.950 . S
H1288 C1298 0.950 . S
H1289 C1300 0.950 . S
H1290 C1302 0.950 . S
H1291 C1303 0.950 . S
C1292 H1284 0.950 . S
C1292 C1293 1.386 . S
C1292 C1294 1.391 . S
C1293 C1292 1.386 . S
C1293 C1297 1.393 . S
C1294 H1286 0.950 . S
C1294 C1292 1.391 . S
C1294 C1295 1.400 . S
C1295 C1294 1.400 . S
C1295 C1296 1.398 . S
C1295 C1301 1.491 1_545 S
C1296 H1287 0.950 . S
C1296 C1295 1.398 . S
C1296 C1297 1.391 . S
C1297 H1285 0.950 . S
C1297 C1293 1.393 . S
C1297 C1296 1.391 . S
C1298 H1288 0.950 . S
C1298 C1299 1.386 . S
C1298 C1300 1.391 . S
C1299 C1298 1.386 . S
C1299 C1303 1.393 . S
C1300 H1289 0.950 . S
C1300 C1298 1.391 . S
C1300 C1301 1.400 . S
C1301 C1295 1.491 1_565 S
C1301 C1300 1.400 . S
C1301 C1302 1.398 . S
C1302 H1290 0.950 . S
C1302 C1301 1.398 . S
C1302 C1303 1.391 . S
C1303 H1291 0.950 . S
C1303 C1299 1.393 . S
C1303 C1302 1.391 . S
H1304 C1312 0.950 . S
H1305 C1317 0.950 . S
H1306 C1314 0.950 . S
H1307 C1316 0.950 . S
H1308 C1318 0.950 . S
H1309 C1320 0.950 . S
H1310 C1322 0.950 . S
H1311 C1323 0.950 . S
C1312 H1304 0.950 . S
C1312 C1313 1.386 . S
C1312 C1314 1.391 . S
C1313 C1312 1.386 . S
C1313 C1317 1.393 . S
C1314 H1306 0.950 . S
C1314 C1312 1.391 . S
C1314 C1315 1.400 . S
C1315 C1314 1.400 . S
C1315 C1316 1.398 . S
C1315 C1321 1.491 1_565 S
C1316 H1307 0.950 . S
C1316 C1315 1.398 . S
C1316 C1317 1.391 . S
C1317 H1305 0.950 . S
C1317 C1313 1.393 . S
C1317 C1316 1.391 . S
C1318 H1308 0.950 . S
C1318 C1319 1.386 . S
C1318 C1320 1.391 . S
C1319 C1318 1.386 . S
C1319 C1323 1.393 . S
C1320 H1309 0.950 . S
C1320 C1318 1.391 . S
C1320 C1321 1.400 . S
C1321 C1315 1.491 1_545 S
C1321 C1320 1.400 . S
C1321 C1322 1.398 . S
C1322 H1310 0.950 . S
C1322 C1321 1.398 . S
C1322 C1323 1.391 . S
C1323 H1311 0.950 . S
C1323 C1319 1.393 . S
C1323 C1322 1.391 . S
H1324 C1332 0.950 . S
H1325 C1337 0.950 . S
H1326 C1334 0.950 . S
H1327 C1336 0.950 . S
H1328 C1338 0.950 . S
H1329 C1340 0.950 . S
H1330 C1342 0.950 . S
H1331 C1343 0.950 . S
C1332 H1324 0.950 . S
C1332 C1333 1.386 . S
C1332 C1334 1.391 . S
C1333 C1332 1.386 . S
C1333 C1337 1.393 . S
C1334 H1326 0.950 . S
C1334 C1332 1.391 . S
C1334 C1335 1.400 . S
C1335 C1334 1.400 . S
C1335 C1336 1.398 . S
C1335 C1341 1.491 1_655 S
C1336 H1327 0.950 . S
C1336 C1335 1.398 . S
C1336 C1337 1.391 . S
C1337 H1325 0.950 . S
C1337 C1333 1.393 . S
C1337 C1336 1.391 . S
C1338 H1328 0.950 . S
C1338 C1339 1.386 . S
C1338 C1340 1.391 . S
C1339 C1338 1.386 . S
C1339 C1343 1.393 . S
C1340 H1329 0.950 . S
C1340 C1338 1.391 . S
C1340 C1341 1.400 . S
C1341 C1335 1.491 1_455 S
C1341 C1340 1.400 . S
C1341 C1342 1.398 . S
C1342 H1330 0.950 . S
C1342 C1341 1.398 . S
C1342 C1343 1.391 . S
C1343 H1331 0.950 . S
C1343 C1339 1.393 . S
C1343 C1342 1.391 . S
C553 C342 1.495 . S
C559 C2 1.490 . S
C573 C376 1.492 . S
C579 C36 1.493 . S
C593 C274 1.494 . S
C599 C70 1.491 . S
C613 C308 1.494 . S
C619 C104 1.491 . S
C633 C138 1.490 . S
C639 C478 1.495 . S
C653 C172 1.490 . S
C659 C512 1.495 . S
C673 C410 1.495 . S
C679 C206 1.490 . S
C693 C444 1.490 . S
C699 C240 1.494 . S
C713 C135 1.567 1_545 S
C719 C5 1.563 . S
C733 C39 1.567 . S
C739 C33 1.560 1_655 S
C753 C67 1.563 1_565 S
C759 C73 1.565 . S
C773 C107 1.561 . S
C779 C101 1.568 1_455 S
C793 C203 1.564 . S
C799 C141 1.565 . S
C813 C237 1.564 . S
C819 C175 1.565 . S
C833 C271 1.560 . S
C839 C209 1.568 . S
C853 C243 1.569 . S
C859 C169 1.560 . S
C873 C277 1.565 . S
C879 C407 1.564 1_565 S
C893 C311 1.567 . S
C899 C305 1.562 1_455 S
C913 C339 1.568 1_545 S
C919 C345 1.561 . S
C933 C379 1.565 . S
C939 C373 1.564 1_655 S
C953 C413 1.568 . S
C959 C475 1.560 . S
C973 C447 1.565 . S
C979 C509 1.563 . S
C993 C481 1.566 . S
C999 C543 1.562 . S
C1013 C441 1.567 . S
C1019 C515 1.562 . S
C1033 C258 1.534 . S
C1039 C20 1.531 . S
C1053 C54 1.530 . S
C1059 C156 1.533 . S
C1073 C190 1.529 . S
C1079 C88 1.531 . S
C1093 C224 1.528 . S
C1099 C122 1.529 . S
C1113 C292 1.533 . S
C1119 C530 1.530 . S
C1133 C428 1.531 . S
C1139 C326 1.529 . S
C1153 C360 1.533 . S
C1159 C462 1.534 . S
C1173 C496 1.531 . S
C1179 C394 1.529 . S
C1193 C77 1.192 . S
C1199 C9 1.199 . S
C1213 C111 1.208 . S
C1219 C43 1.193 . S
C1233 C145 1.225 . S
C1239 C213 1.208 . S
C1253 C179 1.207 . S
C1259 C247 1.193 . S
C1273 C281 1.192 . S
C1279 C349 1.203 . S
C1293 C383 1.223 . S
C1299 C315 1.226 . S
C1313 C417 1.203 . S
C1319 C485 1.222 . S
C1333 C519 1.201 . S
C1339 C451 1.220 . S
