# Generated by pormake.
# Topology umn, (4)-cn, num edge types: 1
# Building blocks:
#     Node 0, Type 0, BuildingBlock: CEKHIL_clean_sbu_0, # of connection points: 4
#     Node 1, Type 0, BuildingBlock: CEKHIL_clean_sbu_0, # of connection points: 4
#     Node 2, Type 0, BuildingBlock: CEKHIL_clean_sbu_0, # of connection points: 4
#     Node 3, Type 0, BuildingBlock: CEKHIL_clean_sbu_0, # of connection points: 4
#     Node 4, Type 0, BuildingBlock: CEKHIL_clean_sbu_0, # of connection points: 4
#     Node 5, Type 0, BuildingBlock: CEKHIL_clean_sbu_0, # of connection points: 4
#     Node 6, Type 0, BuildingBlock: CEKHIL_clean_sbu_0, # of connection points: 4
#     Node 7, Type 0, BuildingBlock: CEKHIL_clean_sbu_0, # of connection points: 4
#     Node 8, Type 0, BuildingBlock: CEKHIL_clean_sbu_0, # of connection points: 4
#     Node 9, Type 0, BuildingBlock: CEKHIL_clean_sbu_0, # of connection points: 4
#     Node 10, Type 0, BuildingBlock: CEKHIL_clean_sbu_0, # of connection points: 4
#     Node 11, Type 0, BuildingBlock: CEKHIL_clean_sbu_0, # of connection points: 4
#     Node 12, Type 0, BuildingBlock: CEKHIL_clean_sbu_0, # of connection points: 4
#     Node 13, Type 0, BuildingBlock: CEKHIL_clean_sbu_0, # of connection points: 4
#     Node 14, Type 0, BuildingBlock: CEKHIL_clean_sbu_0, # of connection points: 4
#     Node 15, Type 0, BuildingBlock: CEKHIL_clean_sbu_0, # of connection points: 4
#     Node 16, Type 0, BuildingBlock: CEKHIL_clean_sbu_0, # of connection points: 4
#     Node 17, Type 0, BuildingBlock: CEKHIL_clean_sbu_0, # of connection points: 4
#     Node 18, Type 0, BuildingBlock: CEKHIL_clean_sbu_0, # of connection points: 4
#     Node 19, Type 0, BuildingBlock: CEKHIL_clean_sbu_0, # of connection points: 4
#     Node 20, Type 0, BuildingBlock: CEKHIL_clean_sbu_0, # of connection points: 4
#     Node 21, Type 0, BuildingBlock: CEKHIL_clean_sbu_0, # of connection points: 4
#     Node 22, Type 0, BuildingBlock: CEKHIL_clean_sbu_0, # of connection points: 4
#     Node 23, Type 0, BuildingBlock: CEKHIL_clean_sbu_0, # of connection points: 4
#     Node 24, Type 0, BuildingBlock: CEKHIL_clean_sbu_0, # of connection points: 4
#     Node 25, Type 0, BuildingBlock: CEKHIL_clean_sbu_0, # of connection points: 4
#     Node 26, Type 0, BuildingBlock: CEKHIL_clean_sbu_0, # of connection points: 4
#     Node 27, Type 0, BuildingBlock: CEKHIL_clean_sbu_0, # of connection points: 4
#     Node 28, Type 0, BuildingBlock: CEKHIL_clean_sbu_0, # of connection points: 4
#     Node 29, Type 0, BuildingBlock: CEKHIL_clean_sbu_0, # of connection points: 4
#     Node 30, Type 0, BuildingBlock: CEKHIL_clean_sbu_0, # of connection points: 4
#     Node 31, Type 0, BuildingBlock: CEKHIL_clean_sbu_0, # of connection points: 4
#     Node 32, Type 0, BuildingBlock: CEKHIL_clean_sbu_0, # of connection points: 4
#     Node 33, Type 0, BuildingBlock: CEKHIL_clean_sbu_0, # of connection points: 4
#     Node 34, Type 0, BuildingBlock: CEKHIL_clean_sbu_0, # of connection points: 4
#     Node 35, Type 0, BuildingBlock: CEKHIL_clean_sbu_0, # of connection points: 4
#     Edge 36, Type (0, 0), BuildingBlock: XUDNAN_clean_linker_2, # of connection points: 2
#     Edge 37, Type (0, 0), BuildingBlock: XUDNAN_clean_linker_2, # of connection points: 2
#     Edge 38, Type (0, 0), BuildingBlock: XUDNAN_clean_linker_2, # of connection points: 2
#     Edge 39, Type (0, 0), BuildingBlock: XUDNAN_clean_linker_2, # of connection points: 2
#     Edge 40, Type (0, 0), BuildingBlock: XUDNAN_clean_linker_2, # of connection points: 2
#     Edge 41, Type (0, 0), BuildingBlock: XUDNAN_clean_linker_2, # of connection points: 2
#     Edge 42, Type (0, 0), BuildingBlock: XUDNAN_clean_linker_2, # of connection points: 2
#     Edge 43, Type (0, 0), BuildingBlock: XUDNAN_clean_linker_2, # of connection points: 2
#     Edge 44, Type (0, 0), BuildingBlock: XUDNAN_clean_linker_2, # of connection points: 2
#     Edge 45, Type (0, 0), BuildingBlock: XUDNAN_clean_linker_2, # of connection points: 2
#     Edge 46, Type (0, 0), BuildingBlock: XUDNAN_clean_linker_2, # of connection points: 2
#     Edge 47, Type (0, 0), BuildingBlock: XUDNAN_clean_linker_2, # of connection points: 2
#     Edge 48, Type (0, 0), BuildingBlock: XUDNAN_clean_linker_2, # of connection points: 2
#     Edge 49, Type (0, 0), BuildingBlock: XUDNAN_clean_linker_2, # of connection points: 2
#     Edge 50, Type (0, 0), BuildingBlock: XUDNAN_clean_linker_2, # of connection points: 2
#     Edge 51, Type (0, 0), BuildingBlock: XUDNAN_clean_linker_2, # of connection points: 2
#     Edge 52, Type (0, 0), BuildingBlock: XUDNAN_clean_linker_2, # of connection points: 2
#     Edge 53, Type (0, 0), BuildingBlock: XUDNAN_clean_linker_2, # of connection points: 2
#     Edge 54, Type (0, 0), BuildingBlock: XUDNAN_clean_linker_2, # of connection points: 2
#     Edge 55, Type (0, 0), BuildingBlock: XUDNAN_clean_linker_2, # of connection points: 2
#     Edge 56, Type (0, 0), BuildingBlock: XUDNAN_clean_linker_2, # of connection points: 2
#     Edge 57, Type (0, 0), BuildingBlock: XUDNAN_clean_linker_2, # of connection points: 2
#     Edge 58, Type (0, 0), BuildingBlock: XUDNAN_clean_linker_2, # of connection points: 2
#     Edge 59, Type (0, 0), BuildingBlock: XUDNAN_clean_linker_2, # of connection points: 2
#     Edge 60, Type (0, 0), BuildingBlock: XUDNAN_clean_linker_2, # of connection points: 2
#     Edge 61, Type (0, 0), BuildingBlock: XUDNAN_clean_linker_2, # of connection points: 2
#     Edge 62, Type (0, 0), BuildingBlock: XUDNAN_clean_linker_2, # of connection points: 2
#     Edge 63, Type (0, 0), BuildingBlock: XUDNAN_clean_linker_2, # of connection points: 2
#     Edge 64, Type (0, 0), BuildingBlock: XUDNAN_clean_linker_2, # of connection points: 2
#     Edge 65, Type (0, 0), BuildingBlock: XUDNAN_clean_linker_2, # of connection points: 2
#     Edge 66, Type (0, 0), BuildingBlock: XUDNAN_clean_linker_2, # of connection points: 2
#     Edge 67, Type (0, 0), BuildingBlock: XUDNAN_clean_linker_2, # of connection points: 2
#     Edge 68, Type (0, 0), BuildingBlock: XUDNAN_clean_linker_2, # of connection points: 2
#     Edge 69, Type (0, 0), BuildingBlock: XUDNAN_clean_linker_2, # of connection points: 2
#     Edge 70, Type (0, 0), BuildingBlock: XUDNAN_clean_linker_2, # of connection points: 2
#     Edge 71, Type (0, 0), BuildingBlock: XUDNAN_clean_linker_2, # of connection points: 2
#     Edge 72, Type (0, 0), BuildingBlock: XUDNAN_clean_linker_2, # of connection points: 2
#     Edge 73, Type (0, 0), BuildingBlock: XUDNAN_clean_linker_2, # of connection points: 2
#     Edge 74, Type (0, 0), BuildingBlock: XUDNAN_clean_linker_2, # of connection points: 2
#     Edge 75, Type (0, 0), BuildingBlock: XUDNAN_clean_linker_2, # of connection points: 2
#     Edge 76, Type (0, 0), BuildingBlock: XUDNAN_clean_linker_2, # of connection points: 2
#     Edge 77, Type (0, 0), BuildingBlock: XUDNAN_clean_linker_2, # of connection points: 2
#     Edge 78, Type (0, 0), BuildingBlock: XUDNAN_clean_linker_2, # of connection points: 2
#     Edge 79, Type (0, 0), BuildingBlock: XUDNAN_clean_linker_2, # of connection points: 2
#     Edge 80, Type (0, 0), BuildingBlock: XUDNAN_clean_linker_2, # of connection points: 2
#     Edge 81, Type (0, 0), BuildingBlock: XUDNAN_clean_linker_2, # of connection points: 2
#     Edge 82, Type (0, 0), BuildingBlock: XUDNAN_clean_linker_2, # of connection points: 2
#     Edge 83, Type (0, 0), BuildingBlock: XUDNAN_clean_linker_2, # of connection points: 2
#     Edge 84, Type (0, 0), BuildingBlock: XUDNAN_clean_linker_2, # of connection points: 2
#     Edge 85, Type (0, 0), BuildingBlock: XUDNAN_clean_linker_2, # of connection points: 2
#     Edge 86, Type (0, 0), BuildingBlock: XUDNAN_clean_linker_2, # of connection points: 2
#     Edge 87, Type (0, 0), BuildingBlock: XUDNAN_clean_linker_2, # of connection points: 2
#     Edge 88, Type (0, 0), BuildingBlock: XUDNAN_clean_linker_2, # of connection points: 2
#     Edge 89, Type (0, 0), BuildingBlock: XUDNAN_clean_linker_2, # of connection points: 2
#     Edge 90, Type (0, 0), BuildingBlock: XUDNAN_clean_linker_2, # of connection points: 2
#     Edge 91, Type (0, 0), BuildingBlock: XUDNAN_clean_linker_2, # of connection points: 2
#     Edge 92, Type (0, 0), BuildingBlock: XUDNAN_clean_linker_2, # of connection points: 2
#     Edge 93, Type (0, 0), BuildingBlock: XUDNAN_clean_linker_2, # of connection points: 2
#     Edge 94, Type (0, 0), BuildingBlock: XUDNAN_clean_linker_2, # of connection points: 2
#     Edge 95, Type (0, 0), BuildingBlock: XUDNAN_clean_linker_2, # of connection points: 2
#     Edge 96, Type (0, 0), BuildingBlock: XUDNAN_clean_linker_2, # of connection points: 2
#     Edge 97, Type (0, 0), BuildingBlock: XUDNAN_clean_linker_2, # of connection points: 2
#     Edge 98, Type (0, 0), BuildingBlock: XUDNAN_clean_linker_2, # of connection points: 2
#     Edge 99, Type (0, 0), BuildingBlock: XUDNAN_clean_linker_2, # of connection points: 2
#     Edge 100, Type (0, 0), BuildingBlock: XUDNAN_clean_linker_2, # of connection points: 2
#     Edge 101, Type (0, 0), BuildingBlock: XUDNAN_clean_linker_2, # of connection points: 2
#     Edge 102, Type (0, 0), BuildingBlock: XUDNAN_clean_linker_2, # of connection points: 2
#     Edge 103, Type (0, 0), BuildingBlock: XUDNAN_clean_linker_2, # of connection points: 2
#     Edge 104, Type (0, 0), BuildingBlock: XUDNAN_clean_linker_2, # of connection points: 2
#     Edge 105, Type (0, 0), BuildingBlock: XUDNAN_clean_linker_2, # of connection points: 2
#     Edge 106, Type (0, 0), BuildingBlock: XUDNAN_clean_linker_2, # of connection points: 2
#     Edge 107, Type (0, 0), BuildingBlock: XUDNAN_clean_linker_2, # of connection points: 2
# Relax obj value: 0.181
# Max RMSD: 0.212
# Mean RMSD: 0.212
data_MOF--net-umn--node1-CEKHIL_clean_sbu_0--edge1-XUDNAN_clean_linker_2
_symmetry_space_group_name_H-M    P1
_symmetry_Int_Tables_number       1
_symmetry_cell_setting            triclinic
loop_
_symmetry_equiv_pos_as_xyz
'x, y, z'
_cell_length_a     81.740781
_cell_length_b     81.653268
_cell_length_c     36.010863
_cell_angle_alpha  90.010063
_cell_angle_beta   89.932277
_cell_angle_gamma 120.02853
loop_
_atom_site_label
_atom_site_type_symbol
_atom_site_fract_x
_atom_site_fract_y
_atom_site_fract_z
_atom_type_partial_charge
Co0 Co 0.36797 0.10755 0.23966 0.0
O1 O 0.37943 0.13409 0.22929 0.0
O2 O 0.34859 0.11423 0.23232 0.0
C3 C 0.38571 0.10151 0.19909 0.0
O4 O 0.3511 0.07934 0.24911 0.0
Co5 Co 0.3924 0.09292 0.27572 0.0
O6 O 0.36945 0.06804 0.27024 0.0
C7 C 0.37113 0.10515 0.32367 0.0
C8 C 0.36243 0.13137 0.22669 0.0
C9 C 0.35341 0.06582 0.26116 0.0
O10 O 0.36743 0.11205 0.29489 0.0
O11 O 0.38092 0.0969 0.32211 0.0
O12 O 0.37106 0.10236 0.18814 0.0
O13 O 0.39063 0.10657 0.23333 0.0
Co14 Co 0.89336 0.26309 0.23066 0.0
O15 O 0.86979 0.24254 0.21256 0.0
O16 O 0.89525 0.24065 0.22599 0.0
C17 C 0.89633 0.28533 0.18914 0.0
O18 O 0.92005 0.28056 0.24887 0.0
Co19 Co 0.89531 0.29802 0.2659 0.0
O20 O 0.92211 0.30644 0.2754 0.0
C21 C 0.88795 0.26569 0.31351 0.0
C22 C 0.87785 0.23232 0.21448 0.0
C23 C 0.92924 0.29627 0.26649 0.0
O24 O 0.88503 0.25582 0.28392 0.0
O25 O 0.89237 0.28309 0.31267 0.0
O26 O 0.90114 0.27286 0.18091 0.0
O27 O 0.88764 0.28279 0.22076 0.0
Co28 Co 0.73467 0.62752 0.23517 0.0
O29 O 0.74976 0.6155 0.23691 0.0
O30 O 0.76059 0.64582 0.22456 0.0
C31 C 0.7108 0.6056 0.19982 0.0
O32 O 0.72356 0.6447 0.2292 0.0
Co33 Co 0.6954 0.60917 0.27172 0.0
O34 O 0.69228 0.6267 0.23844 0.0
C35 C 0.72891 0.63238 0.31808 0.0
C36 C 0.76397 0.63195 0.22828 0.0
C37 C 0.70665 0.6418 0.22706 0.0
O38 O 0.73939 0.63434 0.2898 0.0
O39 O 0.71084 0.62261 0.31701 0.0
O40 O 0.72656 0.61827 0.18492 0.0
O41 O 0.71079 0.605 0.23591 0.0
Co42 Co 0.10241 0.36627 0.29099 0.0
O43 O 0.12949 0.37769 0.28817 0.0
O44 O 0.10942 0.34736 0.29931 0.0
C45 C 0.10124 0.38787 0.32874 0.0
O46 O 0.07414 0.34954 0.29794 0.0
Co47 Co 0.08279 0.38637 0.2561 0.0
O48 O 0.06056 0.36679 0.28308 0.0
C49 C 0.0922 0.3633 0.20767 0.0
C50 C 0.1268 0.36094 0.29559 0.0
C51 C 0.05988 0.35204 0.2964 0.0
O52 O 0.09979 0.36009 0.23597 0.0
O53 O 0.08489 0.37396 0.20931 0.0
O54 O 0.10429 0.37488 0.3419 0.0
O55 O 0.10158 0.38918 0.2927 0.0
Co56 Co 0.63995 0.74085 0.30249 0.0
O57 O 0.63673 0.76059 0.3239 0.0
O58 O 0.66438 0.76283 0.31195 0.0
C59 C 0.61907 0.71727 0.34048 0.0
O60 O 0.64888 0.72358 0.28129 0.0
Co61 Co 0.60648 0.70784 0.2622 0.0
O62 O 0.62467 0.69928 0.25159 0.0
C63 C 0.63238 0.74223 0.21975 0.0
C64 C 0.65503 0.77058 0.32512 0.0
C65 C 0.64194 0.70854 0.26125 0.0
O66 O 0.64038 0.75049 0.25034 0.0
O67 O 0.61852 0.72523 0.21841 0.0
O68 O 0.63625 0.72886 0.35086 0.0
O69 O 0.61426 0.7214 0.30899 0.0
Co70 Co 0.25974 0.89204 0.29731 0.0
O71 O 0.24551 0.86481 0.29858 0.0
O72 O 0.23335 0.88358 0.3048 0.0
C73 C 0.28302 0.89553 0.33652 0.0
O74 O 0.26938 0.92022 0.29895 0.0
Co75 Co 0.29984 0.91399 0.26571 0.0
O76 O 0.30092 0.93526 0.29418 0.0
C77 C 0.26746 0.90138 0.21449 0.0
C78 C 0.23074 0.86651 0.30423 0.0
C79 C 0.28563 0.93521 0.30112 0.0
O80 O 0.25621 0.89241 0.24163 0.0
O81 O 0.28547 0.91071 0.21814 0.0
O82 O 0.267 0.89287 0.34909 0.0
O83 O 0.28401 0.89424 0.30074 0.0
Co84 Co 0.62377 0.89401 0.79035 0.0
O85 O 0.61543 0.86776 0.7823 0.0
O86 O 0.64488 0.88977 0.79516 0.0
C87 C 0.60067 0.89003 0.83063 0.0
O88 O 0.63722 0.92207 0.80203 0.0
Co89 Co 0.59878 0.9108 0.76641 0.0
O90 O 0.61482 0.93037 0.80327 0.0
C91 C 0.62468 0.90852 0.7114 0.0
C92 C 0.63269 0.87202 0.78931 0.0
C93 C 0.63139 0.93356 0.81067 0.0
O94 O 0.62963 0.9001 0.73541 0.0
O95 O 0.61226 0.91333 0.71815 0.0
O96 O 0.61506 0.88877 0.84182 0.0
O97 O 0.5994 0.89108 0.79492 0.0
Co98 Co 0.09971 0.73668 0.80738 0.0
O99 O 0.12315 0.7581 0.82322 0.0
O100 O 0.09582 0.75751 0.81822 0.0
C101 C 0.10081 0.71476 0.84393 0.0
O102 O 0.0728 0.71787 0.79362 0.0
Co103 Co 0.09786 0.70404 0.76415 0.0
O104 O 0.07016 0.691 0.77172 0.0
C105 C 0.10442 0.73774 0.72238 0.0
C106 C 0.11363 0.76686 0.82676 0.0
C107 C 0.06287 0.70084 0.78186 0.0
O108 O 0.105 0.7454 0.75391 0.0
O109 O 0.10222 0.72111 0.71989 0.0
O110 O 0.0952 0.72596 0.85663 0.0
O111 O 0.10778 0.71831 0.81039 0.0
Co112 Co 0.25356 0.3566 0.79934 0.0
O113 O 0.23204 0.35861 0.81419 0.0
O114 O 0.23234 0.33174 0.80768 0.0
C115 C 0.27499 0.37876 0.83832 0.0
O116 O 0.27253 0.34876 0.78575 0.0
Co117 Co 0.28701 0.38946 0.75975 0.0
O118 O 0.29875 0.37332 0.76218 0.0
C119 C 0.25374 0.36395 0.71537 0.0
C120 C 0.22302 0.34026 0.81628 0.0
C121 C 0.28922 0.35607 0.77217 0.0
O122 O 0.24617 0.35441 0.74509 0.0
O123 O 0.26961 0.37943 0.71537 0.0
O124 O 0.26334 0.36178 0.84967 0.0
O125 O 0.27192 0.38283 0.80505 0.0
Co126 Co 0.88873 0.63322 0.72542 0.0
O127 O 0.86459 0.63128 0.71566 0.0
O128 O 0.89236 0.65779 0.71479 0.0
C129 C 0.8855 0.6093 0.68902 0.0
O130 O 0.91623 0.64123 0.73189 0.0
Co131 Co 0.89262 0.60336 0.76812 0.0
O132 O 0.91957 0.61733 0.75317 0.0
C133 C 0.88806 0.63126 0.81127 0.0
C134 C 0.87416 0.64951 0.71073 0.0
C135 C 0.92652 0.63406 0.7406 0.0
O136 O 0.88684 0.63807 0.7799 0.0
O137 O 0.88976 0.61653 0.81339 0.0
O138 O 0.88995 0.62565 0.67522 0.0
O139 O 0.88055 0.60675 0.72395 0.0
Co140 Co 0.37398 0.26401 0.73783 0.0
O141 O 0.38371 0.24701 0.73458 0.0
O142 O 0.35352 0.23877 0.72886 0.0
C143 C 0.39511 0.2868 0.69948 0.0
O144 O 0.35887 0.27752 0.73774 0.0
Co145 Co 0.39662 0.30247 0.77498 0.0
O146 O 0.3795 0.30828 0.74658 0.0
C147 C 0.37303 0.26962 0.82227 0.0
C148 C 0.36637 0.23383 0.7286 0.0
C149 C 0.3632 0.29497 0.73738 0.0
O150 O 0.36957 0.25925 0.79321 0.0
O151 O 0.38367 0.28762 0.82142 0.0
O152 O 0.38078 0.27155 0.68666 0.0
O153 O 0.39784 0.28684 0.73517 0.0
Co154 Co 0.73398 0.09737 0.73641 0.0
O155 O 0.75379 0.11827 0.71042 0.0
O156 O 0.75425 0.09223 0.72578 0.0
C157 C 0.7101 0.09512 0.70107 0.0
O158 O 0.71577 0.07284 0.76268 0.0
Co159 Co 0.70586 0.10382 0.77976 0.0
O160 O 0.6933 0.07656 0.79083 0.0
C161 C 0.7405 0.11058 0.81732 0.0
C162 C 0.76269 0.10887 0.71022 0.0
C163 C 0.70074 0.06658 0.78262 0.0
O164 O 0.74636 0.10845 0.78559 0.0
O165 O 0.72451 0.10964 0.82138 0.0
O166 O 0.71987 0.08736 0.69114 0.0
O167 O 0.7163 0.10611 0.73004 0.0
Co168 Co 0.0169 0.42512 0.55502 0.0
O169 O 0.01835 0.44766 0.53555 0.0
O170 O 0.9917 0.42112 0.54781 0.0
C171 C 0.03829 0.42434 0.51553 0.0
O172 O 0.01007 0.39925 0.57502 0.0
Co173 Co 0.05237 0.42899 0.59347 0.0
O174 O 0.03567 0.40167 0.60369 0.0
C175 C 0.0274 0.43815 0.63618 0.0
C176 C 3e-05 0.43852 0.53599 0.0
C177 C 0.0183 0.39227 0.59448 0.0
O178 O 0.01645 0.43343 0.60779 0.0
O179 O 0.04343 0.43892 0.6355 0.0
O180 O 0.02087 0.41785 0.5057 0.0
O181 O 0.04283 0.43312 0.54718 0.0
Co182 Co 0.55804 0.59483 0.56891 0.0
O183 O 0.53087 0.57982 0.56967 0.0
O184 O 0.55048 0.56862 0.56349 0.0
C185 C 0.56034 0.61692 0.52779 0.0
O186 O 0.58631 0.60529 0.56499 0.0
Co187 Co 0.57911 0.6352 0.59886 0.0
O188 O 0.60013 0.63682 0.56894 0.0
C189 C 0.56755 0.60384 0.65178 0.0
C190 C 0.53322 0.56536 0.56469 0.0
C191 C 0.60068 0.6219 0.56128 0.0
O192 O 0.55925 0.59233 0.62473 0.0
O193 O 0.57637 0.62183 0.64767 0.0
O194 O 0.55744 0.60057 0.51687 0.0
O195 O 0.55966 0.6189 0.56354 0.0
Co196 Co 0.40491 0.96705 0.55857 0.0
O197 O 0.4264 0.96425 0.54669 0.0
O198 O 0.42616 0.9913 0.54716 0.0
C199 C 0.38308 0.94355 0.5232 0.0
O200 O 0.38618 0.97583 0.56725 0.0
Co201 Co 0.37123 0.93742 0.60277 0.0
O202 O 0.35881 0.95201 0.58853 0.0
C203 C 0.40467 0.96497 0.64426 0.0
C204 C 0.43549 0.98249 0.5418 0.0
C205 C 0.36879 0.96882 0.57641 0.0
O206 O 0.4125 0.97164 0.61264 0.0
O207 O 0.38807 0.95053 0.64699 0.0
O208 O 0.39509 0.95972 0.50884 0.0
O209 O 0.38606 0.9409 0.55766 0.0
Co210 Co 0.77138 0.70924 0.62496 0.0
O211 O 0.7975 0.71918 0.63705 0.0
O212 O 0.7763 0.68868 0.6326 0.0
C213 C 0.76612 0.72762 0.66512 0.0
O214 O 0.74339 0.6936 0.61379 0.0
Co215 Co 0.75864 0.73501 0.58863 0.0
O216 O 0.73322 0.71242 0.59038 0.0
C217 C 0.77034 0.71315 0.54106 0.0
C218 C 0.79364 0.70175 0.6393 0.0
C219 C 0.7304 0.69622 0.60005 0.0
O220 O 0.77665 0.70892 0.57004 0.0
O221 O 0.76269 0.72351 0.54243 0.0
O222 O 0.76555 0.71222 0.67603 0.0
O223 O 0.77187 0.73274 0.63124 0.0
Co224 Co 0.29708 0.07142 0.63417 0.0
O225 O 0.29518 0.0933 0.64755 0.0
O226 O 0.32182 0.09251 0.64225 0.0
C227 C 0.27464 0.05039 0.67317 0.0
O228 O 0.30532 0.05245 0.62281 0.0
Co229 Co 0.26572 0.03642 0.59586 0.0
O230 O 0.28115 0.02442 0.60538 0.0
C231 C 0.29277 0.06866 0.54981 0.0
C232 C 0.31353 0.1021 0.64999 0.0
C233 C 0.29844 0.03505 0.61372 0.0
O234 O 0.29948 0.0783 0.57973 0.0
O235 O 0.2792 0.05148 0.54991 0.0
O236 O 0.29152 0.06226 0.68473 0.0
O237 O 0.27096 0.05282 0.63906 0.0
Co238 Co 0.92104 0.21835 0.62215 0.0
O239 O 0.90556 0.19132 0.61866 0.0
O240 O 0.89486 0.21112 0.62835 0.0
C241 C 0.94246 0.21859 0.66207 0.0
O242 O 0.93279 0.24683 0.62925 0.0
Co243 Co 0.96099 0.23846 0.5912 0.0
O244 O 0.96411 0.25866 0.62547 0.0
C245 C 0.92986 0.22968 0.53989 0.0
C246 C 0.8913 0.19377 0.62493 0.0
C247 C 0.94989 0.26016 0.63449 0.0
O248 O 0.91854 0.22107 0.56696 0.0
O249 O 0.94784 0.23786 0.54324 0.0
O250 O 0.92636 0.21614 0.67345 0.0
O251 O 0.94455 0.21868 0.62614 0.0
Co252 Co 0.30016 0.22999 0.1287 0.0
O253 O 0.29853 0.20761 0.14968 0.0
O254 O 0.32523 0.23361 0.13499 0.0
C255 C 0.27985 0.23217 0.16908 0.0
O256 O 0.30754 0.25581 0.10725 0.0
Co257 Co 0.26557 0.22766 0.09166 0.0
O258 O 0.28202 0.25477 0.0814 0.0
C259 C 0.29289 0.22283 0.0462 0.0
C260 C 0.31684 0.21648 0.14823 0.0
C261 C 0.29956 0.26344 0.08901 0.0
O262 O 0.29988 0.22065 0.07648 0.0
O263 O 0.27905 0.22597 0.04589 0.0
O264 O 0.29744 0.23855 0.17728 0.0
O265 O 0.2742 0.22254 0.13833 0.0
Co266 Co 0.76786 0.07053 0.13095 0.0
O267 O 0.79399 0.08613 0.1431 0.0
O268 O 0.77324 0.09602 0.14203 0.0
C269 C 0.76239 0.04555 0.16745 0.0
O270 O 0.7398 0.05799 0.11968 0.0
Co271 Co 0.75728 0.0336 0.08794 0.0
O272 O 0.7316 0.03027 0.09149 0.0
C273 C 0.77221 0.06911 0.04621 0.0
C274 C 0.79055 0.09986 0.14757 0.0
C275 C 0.72763 0.04254 0.10369 0.0
O276 O 0.77303 0.07767 0.0767 0.0
O277 O 0.76759 0.05166 0.04467 0.0
O278 O 0.76226 0.06015 0.18124 0.0
O279 O 0.76814 0.04754 0.13332 0.0
Co280 Co 0.92421 0.68932 0.13242 0.0
O281 O 0.90396 0.69217 0.15226 0.0
O282 O 0.9022 0.66476 0.13963 0.0
C283 C 0.9473 0.70947 0.17183 0.0
O284 O 0.94165 0.68065 0.11269 0.0
Co285 Co 0.95773 0.72276 0.09397 0.0
O286 O 0.96741 0.70503 0.08723 0.0
C287 C 0.92358 0.69893 0.05004 0.0
C288 C 0.894 0.67383 0.15196 0.0
C289 C 0.9575 0.68758 0.0956 0.0
O290 O 0.91576 0.68924 0.07951 0.0
O291 O 0.93998 0.71376 0.05011 0.0
O292 O 0.93529 0.69225 0.18137 0.0
O293 O 0.94371 0.71499 0.14054 0.0
Co294 Co 0.55317 0.96294 0.06365 0.0
O295 O 0.52596 0.94983 0.06426 0.0
O296 O 0.54452 0.98084 0.05854 0.0
C297 C 0.55595 0.94359 0.02233 0.0
O298 O 0.58143 0.98152 0.06054 0.0
Co299 Co 0.57521 0.94467 0.09279 0.0
O300 O 0.59605 0.96456 0.06322 0.0
C301 C 0.56345 0.96432 0.14581 0.0
C302 C 0.5275 0.96631 0.05966 0.0
C303 C 0.59625 0.98 0.05715 0.0
O304 O 0.55425 0.96653 0.11924 0.0
O305 O 0.57284 0.95575 0.14139 0.0
O306 O 0.55288 0.95696 1.01165 0.0
O307 O 0.55536 0.94082 0.05802 0.0
Co308 Co 0.03947 0.59578 0.0756 0.0
O309 O 0.05011 0.57946 0.078 0.0
O310 O 0.01997 0.57009 0.06711 0.0
C311 C 0.06124 0.61827 0.03769 0.0
O312 O 0.02359 0.60822 0.0689 0.0
Co313 Co 0.05956 0.6352 0.10977 0.0
O314 O 0.04345 0.63935 0.07452 0.0
C315 C 0.03558 0.60311 0.15843 0.0
C316 C 0.03319 0.56576 0.0705 0.0
C317 C 0.02769 0.62546 0.06432 0.0
O318 O 0.03324 0.59219 0.13071 0.0
O319 O 0.04582 0.62113 0.1563 0.0
O320 O 0.04788 0.60237 0.02473 0.0
O321 O 0.06281 0.61914 0.07377 0.0
Co322 Co 0.39675 0.43627 0.06582 0.0
O323 O 0.41324 0.46315 0.06674 0.0
O324 O 0.42252 0.44217 0.05785 0.0
C325 C 0.37451 0.43557 0.02691 0.0
O326 O 0.38366 0.4078 0.06134 0.0
Co327 Co 0.35685 0.41924 0.09974 0.0
O328 O 0.35266 0.3977 0.06758 0.0
C329 C 0.38895 0.42976 0.15002 0.0
C330 C 0.4269 0.45982 0.05996 0.0
C331 C 0.3662 0.39516 0.05778 0.0
O332 O 0.39989 0.43439 0.12148 0.0
O333 O 0.37137 0.42453 0.14775 0.0
O334 O 0.39017 0.43737 0.0142 0.0
O335 O 0.37389 0.43691 0.06279 0.0
Co336 Co 0.69568 0.77605 0.89981 0.0
O337 O 0.69847 0.79977 0.8832 0.0
O338 O 0.67118 0.77336 0.8922 0.0
C339 C 0.71666 0.7752 0.85992 0.0
O340 O 0.68673 0.74902 0.91491 0.0
Co341 Co 0.72758 0.77274 0.93656 0.0
O342 O 0.71115 0.74515 0.93015 0.0
C343 C 0.70224 0.78021 0.98339 0.0
C344 C 0.68013 0.79092 0.88158 0.0
C345 C 0.69363 0.73852 0.92408 0.0
O346 O 0.69493 0.78269 0.95381 0.0
O347 O 0.71539 0.77604 0.98262 0.0
O348 O 0.69957 0.77001 0.84974 0.0
O349 O 0.72151 0.7827 0.89281 0.0
Co350 Co 0.21968 0.92932 0.89937 0.0
O351 O 0.19283 0.91271 0.90341 0.0
O352 O 0.2138 0.90358 0.89282 0.0
C353 C 0.21895 0.95061 0.86013 0.0
O354 O 0.24807 0.94204 0.89159 0.0
Co355 Co 0.23851 0.96946 0.93084 0.0
O356 O 0.25943 0.97325 0.89789 0.0
C357 C 0.23063 0.93832 0.98187 0.0
C358 C 0.19623 0.89904 0.89696 0.0
C359 C 0.26118 0.95932 0.8876 0.0
O360 O 0.22285 0.92693 0.95449 0.0
O361 O 0.23779 0.95625 0.97879 0.0
O362 O 0.21687 0.93472 0.84819 0.0
O363 O 0.2191 0.95237 0.89612 0.0
Co364 Co 0.06131 0.28572 0.89541 0.0
O365 O 0.07762 0.27512 0.89501 0.0
O366 O 0.08706 0.30556 0.88798 0.0
C367 C 0.03911 0.26474 0.8562 0.0
O368 O 0.04858 0.30158 0.89273 0.0
Co369 Co 0.02153 0.26366 0.92878 0.0
O370 O 0.01746 0.28168 0.89914 0.0
C371 C 0.05348 0.28658 0.9787 0.0
C372 C 0.09135 0.29223 0.88926 0.0
C373 C 0.03135 0.29785 0.89086 0.0
O374 O 0.06469 0.29007 0.95098 0.0
O375 O 0.03551 0.2762 0.97603 0.0
O376 O 0.05475 0.27877 0.84378 0.0
O377 O 0.0383 0.26233 0.89201 0.0
Co378 Co 0.4256 0.02399 0.9634 0.0
O379 O 0.44792 0.02536 0.98318 0.0
O380 O 0.42142 -0.00134 0.97127 0.0
C381 C 0.4249 0.04538 1.00278 0.0
O382 O 0.39993 0.01747 0.94321 0.0
Co383 Co 0.43017 0.05943 0.92465 0.0
O384 O 0.40279 0.04342 0.91515 0.0
C385 C 0.43778 0.03351 0.88155 0.0
C386 C 0.43875 0.00704 0.9834 0.0
C387 C 0.39317 0.02602 0.9241 0.0
O388 O 0.4338 0.02311 0.9107 0.0
O389 O 0.43856 0.04955 0.88164 0.0
O390 O 0.41818 0.02791 1.0124 0.0
O391 O 0.43412 0.05019 0.97158 0.0
Co392 Co 0.9699 0.40677 0.96113 0.0
O393 O 0.96763 0.42743 0.98083 0.0
O394 O 0.99462 0.42775 0.97154 0.0
C395 C 0.94782 0.38374 0.99753 0.0
O396 O 0.97823 0.38871 0.94295 0.0
Co397 Co 0.93793 0.37459 0.91808 0.0
O398 O 0.95389 0.36267 0.91861 0.0
C399 C 0.96416 0.40922 0.87742 0.0
C400 C 0.98596 0.4365 0.98303 0.0
C401 C 0.97116 0.37226 0.92821 0.0
O402 O 0.97201 0.4165 0.90871 0.0
O403 O 0.94971 0.39262 0.87495 0.0
O404 O 0.96483 0.39483 1.00936 0.0
O405 O 0.9437 0.38804 0.96541 0.0
Co406 Co 0.58954 0.56321 0.97607 0.0
O407 O 0.56787 0.5382 0.98229 0.0
O408 O 0.56721 0.56501 0.98226 0.0
C409 C 0.6089 0.5604 0.0171 0.0
O410 O 0.60808 0.59131 0.97271 0.0
Co411 Co 0.62691 0.57044 0.94255 0.0
O412 O 0.63721 0.59664 0.9604 0.0
C413 C 0.59658 0.5657 0.89186 0.0
C414 C 0.55812 0.54674 0.98578 0.0
C415 C 0.62593 0.60251 0.96896 0.0
O416 O 0.58577 0.56195 0.92034 0.0
O417 O 0.61373 0.56944 0.89438 0.0
O418 O 0.59578 0.5638 0.02798 0.0
O419 O 0.60873 0.55651 0.98196 0.0
Co420 Co 0.9501 0.55044 0.46598 0.0
O421 O 0.93845 0.52331 0.46354 0.0
O422 O 0.96876 0.54309 0.47498 0.0
C423 C 0.92842 0.55193 0.5031 0.0
O424 O 0.96691 0.57876 0.4724 0.0
Co425 Co 0.93116 0.57101 0.43154 0.0
O426 O 0.94825 0.59137 0.46575 0.0
C427 C 0.95487 0.56213 0.38344 0.0
C428 C 0.95505 0.52575 0.4712 0.0
C429 C 0.96377 0.59261 0.47569 0.0
O430 O 0.95661 0.55301 0.41093 0.0
O431 O 0.94508 0.57039 0.38561 0.0
O432 O 0.94137 0.54895 0.51677 0.0
O433 O 0.92731 0.55138 0.46702 0.0
Co434 Co 0.43227 0.40404 0.47388 0.0
O435 O 0.45654 0.42654 0.47921 0.0
O436 O 0.42882 0.42503 0.4858 0.0
C437 C 0.43774 0.3845 0.50928 0.0
O438 O 0.40476 0.38396 0.47282 0.0
Co439 Co 0.42749 0.36972 0.43138 0.0
O440 O 0.40149 0.35666 0.4518 0.0
C441 C 0.42924 0.40093 0.38807 0.0
C442 C 0.44713 0.43509 0.48691 0.0
C443 C 0.39468 0.3662 0.4662 0.0
O444 O 0.43131 0.40943 0.41926 0.0
O445 O 0.42823 0.38479 0.38603 0.0
O446 O 0.43374 0.39653 0.52401 0.0
O447 O 0.44094 0.38619 0.47357 0.0
Co448 Co 0.59689 0.03756 0.45413 0.0
O449 O 0.58121 0.04797 0.46682 0.0
O450 O 0.57102 0.01739 0.45972 0.0
C451 C 0.61991 0.0545 0.49626 0.0
O452 O 0.60878 0.02154 0.44161 0.0
Co453 Co 0.63601 0.06342 0.42051 0.0
O454 O 0.63809 0.04041 0.41946 0.0
C455 C 0.6031 0.04312 0.37093 0.0
C456 C 0.56722 0.03071 0.46742 0.0
C457 C 0.62439 0.02413 0.42772 0.0
O458 O 0.59222 0.03878 0.3994 0.0
O459 O 0.62112 0.05295 0.37325 0.0
O460 O 0.60472 0.039 0.5054 0.0
O461 O 0.62008 0.06059 0.46286 0.0
Co462 Co 0.22416 0.29833 0.39667 0.0
O463 O 0.20159 0.29627 0.3758 0.0
O464 O 0.2281 0.32322 0.3866 0.0
C465 C 0.22578 0.27662 0.36026 0.0
O466 O 0.25013 0.30617 0.41661 0.0
Co467 Co 0.22337 0.26603 0.44 0.0
O468 O 0.25121 0.28058 0.43566 0.0
C469 C 0.21644 0.29336 0.48041 0.0
C470 C 0.21082 0.31464 0.3744 0.0
C471 C 0.25917 0.29818 0.4287 0.0
O472 O 0.21587 0.30021 0.44861 0.0
O473 O 0.21898 0.27916 0.48352 0.0
O474 O 0.23178 0.29374 0.34888 0.0
O475 O 0.21669 0.27209 0.39179 0.0
Co476 Co 0.69797 0.92702 0.40356 0.0
O477 O 0.7104 0.91271 0.41332 0.0
O478 O 0.67948 0.90056 0.40724 0.0
C479 C 0.71705 0.9448 0.35613 0.0
O480 O 0.68013 0.93682 0.39199 0.0
Co481 Co 0.71885 0.97052 0.41458 0.0
O482 O 0.69761 0.96827 0.38422 0.0
C483 C 0.69974 0.94519 0.47903 0.0
C484 C 0.6937 0.89778 0.41158 0.0
C485 C 0.68196 0.95277 0.38215 0.0
O486 O 0.69501 0.93049 0.45868 0.0
O487 O 0.70992 0.96213 0.46689 0.0
O488 O 0.70363 0.92755 0.35071 0.0
O489 O 0.72001 0.95002 0.3906 0.0
Co490 Co 0.07079 0.76088 0.39986 0.0
O491 O 0.09113 0.78437 0.38141 0.0
O492 O 0.09299 0.75865 0.39244 0.0
C493 C 0.04799 0.7585 0.36033 0.0
O494 O 0.05318 0.73437 0.41797 0.0
Co495 Co 0.03702 0.76028 0.4383 0.0
O496 O 0.02708 0.73268 0.44234 0.0
C497 C 0.07098 0.77049 0.48263 0.0
C498 C 0.10119 0.77612 0.38114 0.0
C499 C 0.03699 0.72517 0.43384 0.0
O500 O 0.07883 0.76855 0.45328 0.0
O501 O 0.05466 0.76908 0.48231 0.0
O502 O 0.06006 0.75345 0.35041 0.0
O503 O 0.05137 0.76712 0.39215 0.0
H504 H 0.31002 0.96483 0.34303 0.0
H505 H 0.26473 0.947 0.26327 0.0
H506 H 0.27355 0.98031 0.25267 0.0
H507 H 0.30859 0.0099 0.37635 0.0
H508 H 0.33392 0.02235 0.38123 0.0
H509 H 0.32036 0.99737 0.39126 0.0
H510 H 0.34094 0.99135 0.34473 0.0
H511 H 0.35431 0.01604 0.3339 0.0
H512 H 0.34263 -0.00092 0.29723 0.0
H513 H 0.29275 0.01496 0.23802 0.0
H514 H 0.31887 0.04762 0.22546 0.0
H515 H 0.35074 0.04243 0.31627 0.0
C516 C 0.30137 0.968 0.32498 0.0
C517 C 0.2867 0.9536 0.3042 0.0
C518 C 0.27582 0.95797 0.27996 0.0
C519 C 0.28076 0.97684 0.27373 0.0
C520 C 0.29621 0.99098 0.29286 0.0
C521 C 0.30595 0.98671 0.31904 0.0
C522 C 0.32355 0.00425 0.33199 0.0
C523 C 0.32147 0.00873 0.37261 0.0
C524 C 0.34139 0.00256 0.32658 0.0
C525 C 0.32333 0.01865 0.30607 0.0
C526 C 0.30722 0.01101 0.28449 0.0
C527 C 0.30516 0.02126 0.25555 0.0
C528 C 0.32006 0.03969 0.24836 0.0
C529 C 0.33684 0.0473 0.26953 0.0
C530 C 0.33813 0.03682 0.29933 0.0
H531 H 0.03553 0.32312 0.25403 0.0
H532 H 0.04251 0.34928 0.36159 0.0
H533 H 0.00792 0.33209 0.37044 0.0
H534 H 0.00225 0.32985 0.22494 0.0
H535 H 0.9878 0.30816 0.19996 0.0
H536 H 0.01245 0.31638 0.20667 0.0
H537 H 0.0049 0.28496 0.23843 0.0
H538 H 0.98008 0.27617 0.2306 0.0
H539 H 0.98852 0.27613 0.2768 0.0
H540 H 0.97451 0.32085 0.35944 0.0
H541 H 0.94333 0.31209 0.33345 0.0
H542 H 0.95702 0.29224 0.23287 0.0
C543 C 0.02967 0.32405 0.28043 0.0
C544 C 0.04135 0.33694 0.30767 0.0
C545 C 0.03356 0.33896 0.34109 0.0
C546 C 0.01398 0.3293 0.3462 0.0
C547 C 0.0026 0.31766 0.31761 0.0
C548 C 0.01013 0.31453 0.28571 0.0
C549 C 0.99502 0.3041 0.25664 0.0
C550 C -0.00033 0.31531 0.21994 0.0
C551 C 0.99194 0.28415 0.25026 0.0
C552 C 0.97821 0.30332 0.2759 0.0
C553 C 0.98282 0.31092 0.31126 0.0
C554 C 0.97051 0.31426 0.33237 0.0
C555 C 0.95298 0.30953 0.31715 0.0
C556 C 0.94793 0.30153 0.28124 0.0
C557 C 0.96055 0.29809 0.26064 0.0
H558 H 0.71374 0.67147 0.26987 0.0
H559 H 0.69063 0.64507 0.16397 0.0
H560 H 0.67681 0.66568 0.15568 0.0
H561 H 0.67537 0.66946 0.30069 0.0
H562 H 0.68539 0.69154 0.3256 0.0
H563 H 0.69924 0.68037 0.31806 0.0
H564 H 0.72541 0.71044 0.2859 0.0
H565 H 0.7119 0.72205 0.29416 0.0
H566 H 0.71946 0.72077 0.24773 0.0
H567 H 0.65912 0.68197 0.166 0.0
H568 H 0.63947 0.694 0.19273 0.0
H569 H 0.6729 0.70971 0.29356 0.0
C570 C 0.70676 0.67101 0.244 0.0
C571 C 0.70365 0.65733 0.2169 0.0
C572 C 0.69353 0.65598 0.1843 0.0
C573 C 0.68567 0.66761 0.17948 0.0
C574 C 0.68801 0.68031 0.20773 0.0
C575 C 0.69854 0.68229 0.23924 0.0
C576 C 0.69586 0.69412 0.26848 0.0
C577 C 0.68852 0.6832 0.30534 0.0
C578 C 0.71425 0.71297 0.2744 0.0
C579 C 0.68105 0.69716 0.24971 0.0
C580 C 0.67715 0.68954 0.2143 0.0
C581 C 0.66238 0.68844 0.19324 0.0
C582 C 0.65114 0.69506 0.20886 0.0
C583 C 0.6547 0.70264 0.24522 0.0
C584 C 0.67013 0.70419 0.26551 0.0
H585 H 0.66536 0.95745 0.78047 0.0
H586 H 0.62659 0.95242 0.86763 0.0
H587 H 0.64502 0.98691 0.87802 0.0
H588 H 0.70991 0.00149 0.819 0.0
H589 H 0.71674 0.01071 0.77259 0.0
H590 H 0.70466 0.98552 0.78046 0.0
H591 H 0.67926 0.98131 0.7325 0.0
H592 H 0.69086 0.00639 0.72514 0.0
H593 H 0.66642 0.99372 0.73923 0.0
H594 H 0.66193 0.02112 0.86862 0.0
H595 H 0.67738 0.05325 0.84262 0.0
H596 H 0.70485 0.03682 0.75924 0.0
C597 C 0.66152 0.96359 0.80316 0.0
C598 C 0.64495 0.9525 0.8239 0.0
C599 C 0.63952 0.96085 0.85207 0.0
C600 C 0.64991 0.98037 0.85812 0.0
C601 C 0.66555 0.99121 0.83555 0.0
C602 C 0.67153 0.98313 0.80889 0.0
C603 C 0.68649 -0.00195 0.78387 0.0
C604 C 0.70558 -0.001 0.78932 0.0
C605 C 0.68037 0.99465 0.74279 0.0
C606 C 0.68698 0.01558 0.79893 0.0
C607 C 0.67516 0.01135 0.82931 0.0
C608 C 0.6716 0.02472 0.84548 0.0
C609 C 0.68025 0.04287 0.83017 0.0
C610 C 0.69226 0.04748 0.79881 0.0
C611 C 0.69593 0.03373 0.78349 0.0
H612 H 0.03401 0.6638 0.77922 0.0
H613 H 0.04641 0.7219 0.76815 0.0
H614 H 0.01335 0.71066 0.75134 0.0
H615 H 0.00012 0.64398 0.70426 0.0
H616 H 0.98453 0.62245 0.72874 0.0
H617 H 0.0095 0.63477 0.73848 0.0
H618 H 0.00273 0.63658 0.80827 0.0
H619 H 0.97776 0.62404 0.79881 0.0
H620 H 0.98842 0.64671 0.82166 0.0
H621 H 0.97983 0.69379 0.73465 0.0
H622 H 0.9458 0.67202 0.72764 0.0
H623 H 0.95399 0.62447 0.75245 0.0
C624 C 0.0297 0.67409 0.77328 0.0
C625 C 0.04271 0.69368 0.77493 0.0
C626 C 0.03661 0.70681 0.76735 0.0
C627 C 0.01792 0.70059 0.7574 0.0
C628 C 0.0055 0.68122 0.75554 0.0
C629 C 0.01094 0.66812 0.76387 0.0
C630 C 0.99431 0.64814 0.76192 0.0
C631 C -0.0027 0.63666 0.73153 0.0
C632 C 0.99059 0.63829 0.79993 0.0
C633 C 0.97873 0.65218 0.75147 0.0
C634 C 0.98566 0.67135 0.74726 0.0
C635 C 0.97414 0.67873 0.73794 0.0
C636 C 0.95483 0.66619 0.73391 0.0
C637 C 0.94719 0.64652 0.73974 0.0
C638 C 0.9594 0.63942 0.74789 0.0
H639 H 0.36783 0.32986 0.72431 0.0
H640 H 0.32494 0.27093 0.73948 0.0
H641 H 0.30055 0.28018 0.74437 0.0
H642 H 0.35212 0.34781 0.79013 0.0
H643 H 0.35696 0.36913 0.76607 0.0
H644 H 0.37055 0.35793 0.75556 0.0
H645 H 0.36149 0.35552 0.68601 0.0
H646 H 0.34825 0.36722 0.69604 0.0
H647 H 0.33694 0.34457 0.67308 0.0
H648 H 0.28225 0.29612 0.75932 0.0
H649 H 0.27022 0.31744 0.7757 0.0
H650 H 0.32522 0.36603 0.75092 0.0
C651 C 0.35322 0.31883 0.72747 0.0
C652 C 0.34825 0.29971 0.73172 0.0
C653 C 0.32903 0.28567 0.73597 0.0
C654 C 0.31509 0.29078 0.73886 0.0
C655 C 0.32066 0.30991 0.73679 0.0
C656 C 0.3392 0.32368 0.73034 0.0
C657 C 0.3418 0.34333 0.73267 0.0
C658 C 0.3562 0.35523 0.76291 0.0
C659 C 0.34745 0.35324 0.69469 0.0
C660 C 0.32203 0.33848 0.74337 0.0
C661 C 0.31001 0.31914 0.74521 0.0
C662 C 0.2914 0.31129 0.75719 0.0
C663 C 0.28479 0.32354 0.76685 0.0
C664 C 0.29681 0.34343 0.76455 0.0
C665 C 0.31566 0.35092 0.75269 0.0
H666 H 0.98549 0.36238 0.56698 0.0
H667 H 0.02517 0.37928 0.65857 0.0
H668 H 0.00618 0.34789 0.68693 0.0
H669 H 0.94184 0.32969 0.62167 0.0
H670 H 0.93245 0.3128 0.58424 0.0
H671 H 0.94701 0.33768 0.57419 0.0
H672 H 0.96982 0.33094 0.53558 0.0
H673 H 0.95509 0.30614 0.54487 0.0
H674 H 0.97985 0.31791 0.55656 0.0
H675 H 0.98646 0.31429 0.70077 0.0
H676 H 0.96944 0.27955 0.6948 0.0
H677 H 0.94173 0.28341 0.59562 0.0
C678 C 0.98994 0.35951 0.59331 0.0
C679 C 0.00679 0.37322 0.61053 0.0
C680 C 0.0124 0.36892 0.64466 0.0
C681 C 0.00154 0.35122 0.66133 0.0
C682 C 0.98508 0.33794 0.64362 0.0
C683 C 0.97935 0.34176 0.61018 0.0
C684 C 0.9626 0.32414 0.59446 0.0
C685 C 0.94492 0.32621 0.5936 0.0
C686 C 0.96712 0.31951 0.5556 0.0
C687 C 0.96059 0.30965 0.62317 0.0
C688 C 0.97332 0.31809 0.65194 0.0
C689 C 0.97601 0.30752 0.67914 0.0
C690 C 0.96623 0.28782 0.67573 0.0
C691 C 0.95391 0.27902 0.64552 0.0
C692 C 0.9504 0.28993 0.6199 0.0
H693 H 0.6285 0.64899 0.5201 0.0
H694 H 0.61491 0.60086 0.59038 0.0
H695 H 0.6489 0.61203 0.59815 0.0
H696 H 0.67591 0.65502 0.48132 0.0
H697 H 0.68628 0.68037 0.4826 0.0
H698 H 0.66159 0.66556 0.47148 0.0
H699 H 0.65263 0.68101 0.52404 0.0
H700 H 0.67694 0.69576 0.53631 0.0
H701 H 0.66023 0.6806 0.57087 0.0
H702 H 0.68289 0.63305 0.61366 0.0
H703 H 0.71424 0.66029 0.62936 0.0
H704 H 0.70531 0.69472 0.54926 0.0
C705 C 0.63278 0.6403 0.53527 0.0
C706 C 0.61935 0.62415 0.55454 0.0
C707 C 0.62513 0.61314 0.57492 0.0
C708 C 0.6444 0.61943 0.57956 0.0
C709 C 0.65749 0.63644 0.56286 0.0
C710 C 0.65189 0.64641 0.54002 0.0
C711 C 0.66825 0.6657 0.53036 0.0
C712 C 0.67332 0.66672 0.48899 0.0
C713 C 0.66426 0.68168 0.54109 0.0
C714 C 0.68338 0.66583 0.55448 0.0
C715 C 0.6772 0.64869 0.57211 0.0
C716 C 0.6881 0.64635 0.59913 0.0
C717 C 0.70575 0.66192 0.60822 0.0
C718 C 0.71201 0.67964 0.59091 0.0
C719 C 0.7008 0.68139 0.56327 0.0
H720 H 0.29053 -0.00185 0.61029 0.0
H721 H 0.33633 0.05644 0.60325 0.0
H722 H 0.35855 0.04545 0.58819 0.0
H723 H 0.3178 0.98033 0.65441 0.0
H724 H 0.3064 0.95807 0.63002 0.0
H725 H 0.29374 0.97047 0.63875 0.0
H726 H 0.28698 0.96989 0.56827 0.0
H727 H 0.29985 0.9577 0.55928 0.0
H728 H 0.30643 0.97966 0.53587 0.0
H729 H 0.37567 0.02879 0.57317 0.0
H730 H 0.388 0.00703 0.56668 0.0
H731 H 0.33164 0.95923 0.5856 0.0
C732 C 0.30524 0.00856 0.60565 0.0
C733 C 0.31171 0.02811 0.60796 0.0
C734 C 0.33108 0.04136 0.60196 0.0
C735 C 0.3438 0.0353 0.59301 0.0
C736 C 0.33694 0.01597 0.59046 0.0
C737 C 0.31823 0.00275 0.59711 0.0
C738 C 0.31489 0.98281 0.59441 0.0
C739 C 0.3078 0.97231 0.63161 0.0
C740 C 0.30123 0.97188 0.56256 0.0
C741 C 0.33473 0.98699 0.58569 0.0
C742 C 0.34709 0.00621 0.58287 0.0
C743 C 0.36619 0.01369 0.57534 0.0
C744 C 0.37302 0.00117 0.5716 0.0
C745 C 0.36079 0.98143 0.5759 0.0
C746 C 0.34133 0.97425 0.58233 0.0
H747 H 0.37537 0.37138 0.09131 0.0
H748 H 0.34443 0.3765 0.99895 0.0
H749 H 0.32875 0.34207 0.98847 0.0
H750 H 0.37626 0.32649 0.05569 0.0
H751 H 0.37258 0.31747 0.10247 0.0
H752 H 0.3864 0.34259 0.0942 0.0
H753 H 0.36461 0.3477 0.13911 0.0
H754 H 0.35044 0.32272 0.14679 0.0
H755 H 0.33954 0.33582 0.1302 0.0
H756 H 0.31071 0.30822 0.99839 0.0
H757 H 0.29211 0.27662 0.02596 0.0
H758 H 0.33351 0.29232 0.11403 0.0
C759 C 0.36614 0.36523 0.06759 0.0
C760 C 0.36127 0.37629 0.04531 0.0
C761 C 0.34845 0.36804 0.01567 0.0
C762 C 0.33958 0.34857 1.00951 0.0
C763 C 0.34367 0.33769 0.03348 0.0
C764 C 0.35687 0.34571 0.06169 0.0
C765 C 0.3559 0.33074 0.08796 0.0
C766 C 0.37385 0.32923 0.08488 0.0
C767 C 0.3524 0.33448 0.12836 0.0
C768 C 0.339 0.31336 0.07215 0.0
C769 C 0.33261 0.31762 0.04004 0.0
C770 C 0.31585 0.30457 0.02291 0.0
C771 C 0.30523 0.28676 0.03915 0.0
C772 C 0.31134 0.28219 0.07232 0.0
C773 C 0.32867 0.29548 0.08847 0.0
H774 H 0.6263 0.98374 0.0188 0.0
H775 H 0.6083 0.01365 0.09234 0.0
H776 H 0.64167 0.03713 0.10553 0.0
H777 H 0.65844 0.98431 0.07164 0.0
H778 H 0.67604 0.98807 0.03728 0.0
H779 H 0.65171 0.97741 0.024 0.0
H780 H 0.65981 0.00327 0.97423 0.0
H781 H 0.68443 0.01379 0.98639 0.0
H782 H 0.67311 0.02788 0.98714 0.0
H783 H 0.67621 0.0521 0.12259 0.0
H784 H 0.70876 0.05899 0.13662 0.0
H785 H 0.70337 0.0188 0.05187 0.0
C786 C 0.62948 0.99587 0.03598 0.0
C787 C 0.61492 0.99709 0.05428 0.0
C788 C 0.61936 0.01277 0.07745 0.0
C789 C 0.63828 0.0261 0.08526 0.0
C790 C 0.65243 0.02371 0.0689 0.0
C791 C 0.64821 0.00928 0.04375 0.0
C792 C 0.66553 0.00807 0.03381 0.0
C793 C 0.66275 0.98831 0.04223 0.0
C794 C 0.67105 0.01359 0.99298 0.0
C795 C 0.67974 0.02289 0.05966 0.0
C796 C 0.67219 0.03217 0.07902 0.0
C797 C 0.6824 0.04526 0.10687 0.0
C798 C 0.70079 0.04897 0.11491 0.0
C799 C 0.7085 0.03927 0.09567 0.0
C800 C 0.69785 0.02634 0.06739 0.0
H801 H 0.9917 0.69649 0.06559 0.0
H802 H 0.93713 0.6489 0.09631 0.0
H803 H 0.94753 0.6269 0.07537 0.0
H804 H 0.00079 0.67261 0.98403 0.0
H805 H 0.02556 0.6838 0.99532 0.0
H806 H 0.01256 0.69586 1.00458 0.0
H807 H 0.02271 0.69982 0.07376 0.0
H808 H 0.0359 0.68813 0.06452 0.0
H809 H 0.01806 0.6792 0.10031 0.0
H810 H 0.9651 0.61042 0.06181 0.0
H811 H 0.98948 0.60114 0.06366 0.0
H812 H 0.03255 0.65915 0.04056 0.0
C813 C 0.9818 0.68144 0.06717 0.0
C814 C 0.96367 0.67443 0.08269 0.0
C815 C 0.95118 0.65463 0.08475 0.0
C816 C 0.95684 0.642 0.07237 0.0
C817 C 0.97492 0.64937 0.05764 0.0
C818 C 0.98723 0.66865 0.055 0.0
C819 C 0.00677 0.67299 0.04351 0.0
C820 C 0.0117 0.68183 1.00453 0.0
C821 C 0.02172 0.68576 0.07225 0.0
C822 C 0.00389 0.65321 0.04317 0.0
C823 C 0.98526 0.63972 0.04989 0.0
C824 C 0.97965 0.62074 0.05564 0.0
C825 C 0.9936 0.6156 0.05665 0.0
C826 C 0.01287 0.62951 0.05263 0.0
C827 C 0.01789 0.64825 0.04366 0.0
H828 H 0.66271 0.63094 0.96162 0.0
H829 H 0.60558 0.62055 0.97788 0.0
H830 H 0.61706 0.65454 0.96997 0.0
H831 H 0.68701 0.67749 1.0085 0.0
H832 H 0.70633 0.6868 0.97584 0.0
H833 H 0.69389 0.66193 0.98687 0.0
H834 H 0.68721 0.65412 0.91681 0.0
H835 H 0.69927 0.67892 0.9056 0.0
H836 H 0.67519 0.66384 0.89086 0.0
H837 H 0.6338 0.68862 0.95326 0.0
H838 H 0.6556 0.72171 0.93549 0.0
H839 H 0.7019 0.71001 0.93085 0.0
C840 C 0.65265 0.63583 0.96431 0.0
C841 C 0.63324 0.62306 0.97021 0.0
C842 C 0.62053 0.63005 0.97341 0.0
C843 C 0.6269 0.64933 0.96888 0.0
C844 C 0.64599 0.66139 0.9616 0.0
C845 C 0.65875 0.655 0.95996 0.0
C846 C 0.67837 0.67081 0.95024 0.0
C847 C 0.69221 0.67448 0.98228 0.0
C848 C 0.68541 0.66667 0.91371 0.0
C849 C 0.67451 0.68697 0.94575 0.0
C850 C 0.65575 0.68122 0.95243 0.0
C851 C 0.64859 0.69339 0.94842 0.0
C852 C 0.66105 0.7121 0.93797 0.0
C853 C 0.68045 0.71841 0.93183 0.0
C854 C 0.68718 0.70561 0.9356 0.0
H855 H 0.3634 0.99279 0.95027 0.0
H856 H 0.38009 0.03416 0.86161 0.0
H857 H 0.34859 0.01585 0.83368 0.0
H858 H 0.33009 0.95015 0.89329 0.0
H859 H 0.31348 0.94021 0.93112 0.0
H860 H 0.33844 0.95434 0.94057 0.0
H861 H 0.33238 0.97665 0.98239 0.0
H862 H 0.30751 0.96236 0.97365 0.0
H863 H 0.31948 0.98736 0.96376 0.0
H864 H 0.31496 0.99688 0.82086 0.0
H865 H 0.28031 0.9802 0.82822 0.0
H866 H 0.28445 0.95027 0.92359 0.0
C867 C 0.36047 0.99775 0.92461 0.0
C868 C 0.37412 0.01488 0.90817 0.0
C869 C 0.36975 0.02115 0.87493 0.0
C870 C 0.352 0.01069 0.85848 0.0
C871 C 0.33876 0.99394 0.87547 0.0
C872 C 0.34267 0.98753 0.90796 0.0
C873 C 0.3251 0.97061 0.92336 0.0
C874 C 0.32689 0.95277 0.92199 0.0
C875 C 0.32087 0.97449 0.96311 0.0
C876 C 0.31052 0.96936 0.89577 0.0
C877 C 0.31886 0.98257 0.86766 0.0
C878 C 0.30824 0.98605 0.84191 0.0
C879 C 0.28862 0.97652 0.84615 0.0
C880 C 0.27998 0.9637 0.87574 0.0
C881 C 0.29088 0.95941 0.8998 0.0
H882 H -0.00247 0.29459 0.87298 0.0
H883 H 0.05591 0.33591 0.89772 0.0
H884 H 0.04715 0.36066 0.90357 0.0
H885 H 0.98543 0.32808 0.8234 0.0
H886 H 0.96205 0.31629 0.84333 0.0
H887 H 0.97373 0.30306 0.83287 0.0
H888 H 0.96872 0.29134 0.90105 0.0
H889 H 0.95754 0.30489 0.91206 0.0
H890 H 0.97784 0.30841 0.93822 0.0
H891 H 0.03116 0.37899 0.91889 0.0
H892 H 0.00967 0.3908 0.93547 0.0
H893 H 0.96166 0.33725 0.9011 0.0
C894 C 0.0086 0.30898 0.87832 0.0
C895 C 0.02736 0.31335 0.88502 0.0
C896 C 0.04146 0.33229 0.89219 0.0
C897 C 0.03661 0.34643 0.89569 0.0
C898 C 0.01772 0.34137 0.89125 0.0
C899 C 0.004 0.32319 0.88187 0.0
C900 C 0.98447 0.3209 0.88238 0.0
C901 C 0.97592 0.31685 0.84316 0.0
C902 C 0.97139 0.30548 0.91008 0.0
C903 C 0.98923 0.34034 0.89548 0.0
C904 C 0.00848 0.35202 0.89999 0.0
C905 C 0.0161 0.37015 0.91463 0.0
C906 C 0.00374 0.37663 0.92433 0.0
C907 C 0.98395 0.36495 0.9195 0.0
C908 C 0.9767 0.34659 0.90484 0.0
H909 H 0.00329 0.70062 0.46671 0.0
H910 H 0.05574 0.70529 0.42744 0.0
H911 H 0.04477 0.67266 0.44811 0.0
H912 H -0.00363 0.66914 0.54793 0.0
H913 H 0.97117 0.65597 0.54083 0.0
H914 H 0.9844 0.68074 0.52899 0.0
H915 H 0.97133 0.67311 0.4617 0.0
H916 H 0.95787 0.64851 0.47361 0.0
H917 H 0.97409 0.65596 0.435 0.0
H918 H 0.02673 0.63866 0.4652 0.0
H919 H 0.00162 0.60525 0.46966 0.0
H920 H 0.96126 0.62289 0.49888 0.0
C921 C 0.01262 0.69491 0.46292 0.0
C922 C 0.03034 0.70551 0.44542 0.0
C923 C 0.04203 0.69742 0.44066 0.0
C924 C 0.03606 0.67898 0.45278 0.0
C925 C 0.01848 0.66892 0.46994 0.0
C926 C 0.0069 0.67659 0.47487 0.0
C927 C 0.98775 0.66215 0.48973 0.0
C928 C 0.98475 0.66731 0.52922 0.0
C929 C 0.97184 0.65979 0.46343 0.0
C930 C 0.98992 0.64483 0.49001 0.0
C931 C 0.00795 0.64913 0.47976 0.0
C932 C 0.01268 0.63512 0.47401 0.0
C933 C -0.00167 0.61618 0.47673 0.0
C934 C 0.97952 0.61158 0.48441 0.0
C935 C 0.97556 0.62607 0.49316 0.0
H936 H 0.2879 0.29028 0.42412 0.0
H937 H 0.2745 0.33317 0.45853 0.0
H938 H 0.30721 0.35333 0.48032 0.0
H939 H 0.32197 0.29787 0.49832 0.0
H940 H 0.3376 0.29474 0.46755 0.0
H941 H 0.31255 0.28251 0.45856 0.0
H942 H 0.31868 0.29707 0.39246 0.0
H943 H 0.3437 0.30909 0.40111 0.0
H944 H 0.33257 0.32239 0.38712 0.0
H945 H 0.34098 0.36925 0.49567 0.0
H946 H 0.37534 0.3823 0.4959 0.0
H947 H 0.36757 0.3298 0.44899 0.0
C948 C 0.2919 0.30384 0.4366 0.0
C949 C 0.27885 0.31026 0.43982 0.0
C950 C 0.28446 0.32816 0.45562 0.0
C951 C 0.30288 0.33957 0.4685 0.0
C952 C 0.31546 0.33287 0.46505 0.0
C953 C 0.31036 0.31558 0.44901 0.0
C954 C 0.32718 0.31271 0.44505 0.0
C955 C 0.32467 0.29596 0.46879 0.0
C956 C 0.33074 0.31018 0.40401 0.0
C957 C 0.34257 0.33132 0.46049 0.0
C958 C 0.33537 0.34249 0.47271 0.0
C959 C 0.34684 0.36065 0.48641 0.0
C960 C 0.36635 0.36792 0.48636 0.0
C961 C 0.37415 0.35712 0.47215 0.0
C962 C 0.36204 0.33837 0.46017 0.0
H963 H 0.67957 0.97907 0.34075 0.0
H964 H 0.64684 0.93069 0.41193 0.0
H965 H 0.62334 0.94082 0.42098 0.0
H966 H 0.67897 0.01003 0.39312 0.0
H967 H 0.67675 0.02502 0.35917 0.0
H968 H 0.68673 0.01074 0.34591 0.0
H969 H 0.66207 0.99523 0.29404 0.0
H970 H 0.65149 0.00927 0.3064 0.0
H971 H 0.63725 0.98383 0.30471 0.0
H972 H 0.60959 0.96103 0.438 0.0
H973 H 0.60505 0.98783 0.45566 0.0
H974 H 0.6472 0.02319 0.37433 0.0
C975 C 0.66687 0.97007 0.35646 0.0
C976 C 0.66497 0.95421 0.37569 0.0
C977 C 0.64841 0.9428 0.39656 0.0
C978 C 0.635 0.94851 0.40197 0.0
C979 C 0.63824 0.96535 0.38559 0.0
C980 C 0.65351 0.97568 0.36221 0.0
C981 C 0.65584 0.99481 0.35326 0.0
C982 C 0.67573 0.01107 0.36353 0.0
C983 C 0.65138 0.99585 0.31217 0.0
C984 C 0.64083 0.99443 0.37827 0.0
C985 C 0.63036 0.97717 0.39579 0.0
C986 C 0.61729 0.97442 0.42359 0.0
C987 C 0.61494 0.98974 0.43376 0.0
C988 C 0.626 0.0076 0.41676 0.0
C989 C 0.6387 0.00973 0.38812 0.0
H990 H 0.30296 0.05196 0.49567 0.0
H991 H 0.30667 0.10509 0.52581 0.0
H992 H 0.32697 0.1204 0.47087 0.0
H993 H 0.351 0.07213 0.46965 0.0
H994 H 0.34676 0.05591 0.43203 0.0
H995 H 0.33077 0.04859 0.47093 0.0
H996 H 0.30278 0.03983 0.42636 0.0
H997 H 0.31866 0.04707 0.38725 0.0
H998 H 0.30384 0.05732 0.39436 0.0
H999 H 0.34692 0.12983 0.41166 0.0
H1000 H 0.36619 0.13289 0.35596 0.0
H1001 H 0.35238 0.0746 0.36913 0.0
C1002 C 0.30762 0.06669 0.49007 0.0
C1003 C 0.30281 0.07724 0.51443 0.0
C1004 C 0.30988 0.09668 0.50711 0.0
C1005 C 0.32147 0.10549 0.47604 0.0
C1006 C 0.32624 0.09479 0.45293 0.0
C1007 C 0.31963 0.07581 0.45974 0.0
C1008 C 0.32798 0.06782 0.43237 0.0
C1009 C 0.33983 0.0607 0.45246 0.0
C1010 C 0.31238 0.05208 0.40868 0.0
C1011 C 0.34035 0.08525 0.40915 0.0
C1012 C 0.33892 0.10059 0.421 0.0
C1013 C 0.34833 0.11796 0.40252 0.0
C1014 C 0.3593 0.11963 0.37103 0.0
C1015 C 0.36124 0.10419 0.35893 0.0
C1016 C 0.35169 0.08685 0.37851 0.0
H1017 H 0.94219 0.2606 0.49398 0.0
H1018 H 0.89776 0.20225 0.50698 0.0
H1019 H 0.88157 0.20522 0.45153 0.0
H1020 H 0.91139 0.27802 0.46865 0.0
H1021 H 0.92753 0.29522 0.43585 0.0
H1022 H 0.93652 0.2882 0.47465 0.0
H1023 H 0.95514 0.27864 0.42981 0.0
H1024 H 0.94641 0.28593 0.39104 0.0
H1025 H 0.94281 0.2623 0.39257 0.0
H1026 H 0.87059 0.2144 0.39341 0.0
H1027 H 0.86524 0.22945 0.33855 0.0
H1028 H 0.91491 0.28268 0.3671 0.0
C1029 C 0.92927 0.24835 0.48461 0.0
C1030 C 0.92142 0.23104 0.50431 0.0
C1031 C 0.90413 0.21554 0.492 0.0
C1032 C 0.89482 0.21712 0.46061 0.0
C1033 C 0.90273 0.23445 0.44216 0.0
C1034 C 0.91952 0.24984 0.4538 0.0
C1035 C 0.92448 0.26712 0.43015 0.0
C1036 C 0.92501 0.28308 0.45374 0.0
C1037 C 0.94333 0.27389 0.40968 0.0
C1038 C 0.90795 0.25902 0.40328 0.0
C1039 C 0.89565 0.24009 0.41044 0.0
C1040 C 0.87997 0.22929 0.38791 0.0
C1041 C 0.87696 0.23795 0.35694 0.0
C1042 C 0.88929 0.25734 0.34921 0.0
C1043 C 0.90484 0.268 0.37308 0.0
H1044 H 0.74076 0.69793 0.49285 0.0
H1045 H 0.79594 0.70412 0.51165 0.0
H1046 H 0.79147 0.68401 0.45654 0.0
H1047 H 0.71841 0.64897 0.46893 0.0
H1048 H 0.70274 0.65039 0.43557 0.0
H1049 H 0.71138 0.66652 0.47426 0.0
H1050 H 0.72426 0.69477 0.42827 0.0
H1051 H 0.71584 0.67861 0.38964 0.0
H1052 H 0.74039 0.69667 0.39209 0.0
H1053 H 0.78075 0.66333 0.39824 0.0
H1054 H 0.76431 0.64278 0.34435 0.0
H1055 H 0.7149 0.64767 0.3681 0.0
C1056 C 0.75213 0.69548 0.48477 0.0
C1057 C 0.76897 0.70306 0.50585 0.0
C1058 C 0.78312 0.69877 0.49543 0.0
C1059 C 0.78065 0.68732 0.46427 0.0
C1060 C 0.76374 0.67985 0.44438 0.0
C1061 C 0.74966 0.68367 0.45446 0.0
C1062 C 0.73228 0.67288 0.43028 0.0
C1063 C 0.71519 0.65885 0.45364 0.0
C1064 C 0.72795 0.68655 0.40879 0.0
C1065 C 0.73884 0.66262 0.40448 0.0
C1066 C 0.75708 0.66693 0.41283 0.0
C1067 C 0.7664 0.65973 0.39176 0.0
C1068 C 0.75695 0.64804 0.36122 0.0
C1069 C 0.7382 0.64331 0.35234 0.0
C1070 C 0.72905 0.65062 0.37465 0.0
H1071 H 0.06463 0.35176 0.15407 0.0
H1072 H 0.11541 0.35033 0.18295 0.0
H1073 H 0.11106 0.33048 0.1278 0.0
H1074 H 0.03804 0.30374 0.1256 0.0
H1075 H 0.02609 0.30809 0.08817 0.0
H1076 H 0.03399 0.32348 0.12801 0.0
H1077 H 0.05315 0.35248 0.08527 0.0
H1078 H 0.04514 0.3372 0.04525 0.0
H1079 H 0.07008 0.35244 0.05319 0.0
H1080 H 0.10129 0.31099 0.06845 0.0
H1081 H 0.0861 0.29236 1.01171 0.0
H1082 H 0.04019 0.30402 0.02483 0.0
C1083 C 0.07505 0.34759 0.1484 0.0
C1084 C 0.09056 0.35289 0.17259 0.0
C1085 C 0.10353 0.34662 0.1647 0.0
C1086 C 0.10116 0.33531 0.13343 0.0
C1087 C 0.08556 0.33009 0.1105 0.0
C1088 C 0.07268 0.33596 0.1177 0.0
C1089 C 0.05663 0.32763 0.08974 0.0
C1090 C 0.03756 0.31498 0.10904 0.0
C1091 C 0.05623 0.34337 0.06702 0.0
C1092 C 0.06242 0.31605 0.06581 0.0
C1093 C 0.07931 0.31789 0.0779 0.0
C1094 C 0.08796 0.30929 0.05905 0.0
C1095 C 0.07922 0.29869 0.02692 0.0
C1096 C 0.06177 0.29637 0.01438 0.0
C1097 C 0.05325 0.30509 0.03437 0.0
H1098 H 0.64296 0.7271 0.16422 0.0
H1099 H 0.64399 0.77866 0.19674 0.0
H1100 H 0.66172 0.79433 0.13907 0.0
H1101 H 0.69033 0.75017 0.13099 0.0
H1102 H 0.68559 0.73354 0.09394 0.0
H1103 H 0.67142 0.72603 0.13549 0.0
H1104 H 0.64109 0.71442 0.09623 0.0
H1105 H 0.65513 0.72174 0.05449 0.0
H1106 H 0.63928 0.73052 0.0645 0.0
H1107 H 0.67862 0.80373 0.0753 0.0
H1108 H 0.69569 0.80693 0.01607 0.0
H1109 H 0.68691 0.75046 0.03082 0.0
C1110 C 0.64656 0.74157 0.15875 0.0
C1111 C 0.64162 0.75154 0.18429 0.0
C1112 C 0.64731 0.7707 0.17709 0.0
C1113 C 0.6574 0.77968 0.14447 0.0
C1114 C 0.66217 0.76945 0.11989 0.0
C1115 C 0.65713 0.75087 0.12707 0.0
C1116 C 0.66514 0.74335 0.09805 0.0
C1117 C 0.67894 0.73796 0.11568 0.0
C1118 C 0.64921 0.72652 0.07708 0.0
C1119 C 0.67538 0.76052 0.0731 0.0
C1120 C 0.67327 0.77537 0.08566 0.0
C1121 C 0.68061 0.79229 0.06566 0.0
C1122 C 0.6903 0.79403 0.03213 0.0
C1123 C 0.69304 0.77916 0.01953 0.0
C1124 C 0.68551 0.76227 0.04045 0.0
H1125 H 0.28324 0.92962 0.1621 0.0
H1126 H 0.23242 0.87641 0.1863 0.0
H1127 H 0.21746 0.88009 0.12963 0.0
H1128 H 0.25977 0.95376 0.13148 0.0
H1129 H 0.27666 0.96704 0.09559 0.0
H1130 H 0.28404 0.95952 0.13611 0.0
H1131 H 0.2968 0.94252 0.09445 0.0
H1132 H 0.28967 0.95018 0.05375 0.0
H1133 H 0.28136 0.92539 0.06083 0.0
H1134 H 0.20807 0.88964 0.06977 0.0
H1135 H 0.20465 0.90472 1.01295 0.0
H1136 H 0.26057 0.95296 0.03055 0.0
C1137 C 0.2691 0.91852 0.1551 0.0
C1138 C 0.25912 0.90253 0.17845 0.0
C1139 C 0.24043 0.88866 0.16875 0.0
C1140 C 0.2318 0.89066 0.13661 0.0
C1141 C 0.24192 0.90675 0.11461 0.0
C1142 C 0.26016 0.92047 0.12349 0.0
C1143 C 0.26762 0.93686 0.09623 0.0
C1144 C 0.27229 0.95539 0.11605 0.0
C1145 C 0.28488 0.93885 0.07506 0.0
C1146 C 0.25071 0.93029 0.0707 0.0
C1147 C 0.23612 0.91276 0.08151 0.0
C1148 C 0.21934 0.90343 0.06132 0.0
C1149 C 0.2175 0.91212 0.02913 0.0
C1150 C 0.23217 0.93016 0.01772 0.0
C1151 C 0.24892 0.93938 0.03909 0.0
H1152 H 0.63909 0.89179 0.66315 0.0
H1153 H 0.63621 0.94282 0.68187 0.0
H1154 H 0.65645 0.95767 0.62751 0.0
H1155 H 0.68743 0.91449 0.62887 0.0
H1156 H 0.68277 0.8973 0.59301 0.0
H1157 H 0.66861 0.8904 0.63466 0.0
H1158 H 0.63824 0.87799 0.59521 0.0
H1159 H 0.65229 0.8847 0.55346 0.0
H1160 H 0.63636 0.89352 0.56209 0.0
H1161 H 0.6778 0.96788 0.57395 0.0
H1162 H 0.69557 0.97162 0.51681 0.0
H1163 H 0.68318 0.9134 0.52578 0.0
C1164 C 0.64272 0.90605 0.6556 0.0
C1165 C 0.63599 0.91613 0.67681 0.0
C1166 C 0.64097 0.93473 0.66593 0.0
C1167 C 0.65262 0.94338 0.63522 0.0
C1168 C 0.65905 0.93321 0.61496 0.0
C1169 C 0.65404 0.91484 0.624 0.0
C1170 C 0.6622 0.90697 0.5956 0.0
C1171 C 0.67608 0.902 0.61415 0.0
C1172 C 0.64632 0.88978 0.57539 0.0
C1173 C 0.67249 0.92383 0.56946 0.0
C1174 C 0.67072 0.93886 0.58194 0.0
C1175 C 0.6792 0.95618 0.56368 0.0
C1176 C 0.68943 0.95818 0.53121 0.0
C1177 C 0.69092 0.94285 0.51648 0.0
C1178 C 0.68238 0.92542 0.53619 0.0
H1179 H 0.08288 0.74682 0.5081 0.0
H1180 H 0.07733 0.79489 0.54049 0.0
H1181 H 0.08891 0.79376 0.6036 0.0
H1182 H 0.06432 0.72187 0.59168 0.0
H1183 H 0.07915 0.71135 0.59281 0.0
H1184 H 0.07327 0.71774 0.54904 0.0
H1185 H 0.10885 0.7384 0.53342 0.0
H1186 H 0.11485 0.73208 0.57722 0.0
H1187 H 0.12425 0.75663 0.56534 0.0
H1188 H 0.09979 0.78642 0.66386 0.0
H1189 H 0.10557 0.77183 0.71824 0.0
H1190 H 0.10141 0.7265 0.64844 0.0
C1191 C 0.08468 0.75746 0.52822 0.0
C1192 C 0.0798 0.77136 0.51916 0.0
C1193 C 0.0814 0.78444 0.54667 0.0
C1194 C 0.08796 0.78387 0.58253 0.0
C1195 C 0.09248 0.76985 0.59072 0.0
C1196 C 0.09069 0.75673 0.56444 0.0
C1197 C 0.09437 0.74182 0.58145 0.0
C1198 C 0.07673 0.72203 0.57857 0.0
C1199 C 0.11161 0.74227 0.56327 0.0
C1200 C 0.09844 0.74852 0.62151 0.0
C1201 C 0.09761 0.76491 0.62602 0.0
C1202 C 0.1005 0.77362 0.66055 0.0
C1203 C 0.10384 0.76517 0.69139 0.0
C1204 C 0.10402 0.74792 0.68801 0.0
C1205 C 0.10157 0.73973 0.65221 0.0
H1206 H 0.22049 0.28631 0.55453 0.0
H1207 H 0.21459 0.32594 0.48321 0.0
H1208 H 0.22152 0.3474 0.5362 0.0
H1209 H 0.19947 0.29533 0.63887 0.0
H1210 H 0.21559 0.29304 0.66964 0.0
H1211 H 0.20847 0.27988 0.62679 0.0
H1212 H 0.24361 0.2943 0.60801 0.0
H1213 H 0.25083 0.30763 0.65055 0.0
H1214 H 0.25859 0.31966 0.60658 0.0
H1215 H 0.23397 0.36697 0.59468 0.0
H1216 H 0.24678 0.38095 0.65648 0.0
H1217 H 0.24194 0.32798 0.6918 0.0
C1218 C 0.2201 0.29923 0.55021 0.0
C1219 C 0.2169 0.30425 0.51432 0.0
C1220 C 0.21687 0.32154 0.51016 0.0
C1221 C 0.22088 0.33396 0.5402 0.0
C1222 C 0.22461 0.32889 0.57475 0.0
C1223 C 0.22383 0.31175 0.58016 0.0
C1224 C 0.22894 0.31002 0.61999 0.0
C1225 C 0.21211 0.29359 0.64 0.0
C1226 C 0.24653 0.30777 0.62134 0.0
C1227 C 0.23312 0.32901 0.63575 0.0
C1228 C 0.2307 0.33977 0.60909 0.0
C1229 C 0.23542 0.35847 0.61607 0.0
C1230 C 0.24272 0.36634 0.65118 0.0
C1231 C 0.24485 0.35541 0.67917 0.0
C1232 C 0.23984 0.33646 0.67129 0.0
H1233 H 0.91161 0.66324 0.02503 0.0
H1234 H 0.91707 0.71676 0.99202 0.0
H1235 H 0.90536 0.7038 0.9291 0.0
H1236 H 0.92988 0.65647 0.94127 0.0
H1237 H 0.91499 0.63111 0.94053 0.0
H1238 H 0.92107 0.64355 0.98412 0.0
H1239 H 0.88557 0.62874 1.00027 0.0
H1240 H 0.87937 0.61621 0.95668 0.0
H1241 H 0.87007 0.63144 0.96847 0.0
H1242 H 0.89422 0.68535 0.86927 0.0
H1243 H 0.88779 0.66461 0.81528 0.0
H1244 H 0.89217 0.6236 0.88518 0.0
C1245 C 0.90977 0.67201 1.00481 0.0
C1246 C 0.91465 0.69083 1.01365 0.0
C1247 C 0.913 0.70221 0.98601 0.0
C1248 C 0.90637 0.69494 0.95026 0.0
C1249 C 0.90185 0.67637 0.94229 0.0
C1250 C 0.90369 0.66513 0.96869 0.0
C1251 C 0.89989 0.64644 0.9519 0.0
C1252 C 0.9175 0.64428 0.95462 0.0
C1253 C 0.8827 0.62972 0.97044 0.0
C1254 C 0.89567 0.64891 0.91184 0.0
C1255 C 0.89657 0.66615 0.90717 0.0
C1256 C 0.89348 0.67182 0.87268 0.0
C1257 C 0.88978 0.65982 0.84206 0.0
C1258 C 0.88942 0.64231 0.84558 0.0
C1259 C 0.89218 0.63675 0.88131 0.0
H1260 H 0.30551 0.25213 0.99741 0.0
H1261 H 0.30571 0.19998 0.01805 0.0
H1262 H 0.32652 0.20633 0.96322 0.0
H1263 H 0.30723 0.25217 0.89665 0.0
H1264 H 0.32328 0.2773 0.89361 0.0
H1265 H 0.30718 0.26768 0.93224 0.0
H1266 H 0.33529 0.28367 0.97787 0.0
H1267 H 0.35153 0.29322 0.93944 0.0
H1268 H 0.35452 0.27894 0.97393 0.0
H1269 H 0.34677 0.21829 0.90453 0.0
H1270 H 0.36625 0.23558 0.84993 0.0
H1271 H 0.35589 0.28177 0.8722 0.0
C1272 C 0.30956 0.24182 0.98977 0.0
C1273 C 0.30349 0.22521 1.01119 0.0
C1274 C 0.30983 0.21252 1.00146 0.0
C1275 C 0.32171 0.21608 0.97049 0.0
C1276 C 0.32762 0.23271 0.95016 0.0
C1277 C 0.32189 0.24547 0.95969 0.0
C1278 C 0.33124 0.26289 0.93499 0.0
C1279 C 0.31634 0.26513 0.91307 0.0
C1280 C 0.3439 0.28073 0.95793 0.0
C1281 C 0.34292 0.25786 0.90958 0.0
C1282 C 0.34047 0.24029 0.91854 0.0
C1283 C 0.34898 0.23216 0.89768 0.0
C1284 C 0.36007 0.2421 0.86675 0.0
C1285 C 0.36297 0.26021 0.85728 0.0
C1286 C 0.3544 0.26821 0.87936 0.0
H1287 H 0.72917 0.10548 0.89073 0.0
H1288 H 0.77593 0.11472 0.81948 0.0
H1289 H 0.79059 0.10739 0.8718 0.0
H1290 H 0.75747 0.1244 0.97786 0.0
H1291 H 0.73869 0.10669 1.006 0.0
H1292 H 0.73319 0.11516 0.96428 0.0
H1293 H 0.71377 0.08069 0.9404 0.0
H1294 H 0.71944 0.07215 0.98168 0.0
H1295 H 0.72494 0.06651 0.93666 0.0
H1296 H 0.79744 0.09369 0.92893 0.0
H1297 H 0.79771 0.07873 0.98892 0.0
H1298 H 0.74787 0.08038 0.02398 0.0
C1299 C 0.74284 0.10668 0.8864 0.0
C1300 C 0.75138 0.11081 0.85078 0.0
C1301 C 0.76908 0.11171 0.84637 0.0
C1302 C 0.77753 0.10749 0.87598 0.0
C1303 C 0.7683 0.10261 0.91017 0.0
C1304 C 0.75154 0.10258 0.91576 0.0
C1305 C 0.74393 0.09576 0.95457 0.0
C1306 C 0.74329 0.11144 0.97701 0.0
C1307 C 0.72437 0.07771 0.95322 0.0
C1308 C 0.75881 0.09161 0.96961 0.0
C1309 C 0.77271 0.09552 0.94354 0.0
C1310 C 0.78692 0.09107 0.94993 0.0
C1311 C 0.78698 0.08255 0.98391 0.0
C1312 C 0.77312 0.07892 1.01116 0.0
C1313 C 0.75897 0.0836 1.00391 0.0
H1314 H 0.99193 0.41554 0.66318 0.0
H1315 H 0.0462 0.46364 0.69216 0.0
H1316 H 0.03407 0.46394 0.7552 0.0
H1317 H 0.96125 0.42706 0.71972 0.0
H1318 H 0.94599 0.40275 0.73312 0.0
H1319 H 0.95791 0.40824 0.68887 0.0
H1320 H 0.97258 0.38746 0.70547 0.0
H1321 H 0.96071 0.38189 0.74965 0.0
H1322 H 0.986 0.39211 0.74773 0.0
H1323 H 0.0165 0.45766 0.81621 0.0
H1324 H -0.00318 0.44357 0.87178 0.0
H1325 H 0.95463 0.39784 0.8043 0.0
C1326 C 0.00105 0.42652 0.68245 0.0
C1327 C 0.01985 0.43995 0.67251 0.0
C1328 C 0.03167 0.45349 0.69902 0.0
C1329 C 0.02486 0.45376 0.73483 0.0
C1330 C 0.00631 0.44016 0.74391 0.0
C1331 C 0.99464 0.42665 0.71855 0.0
C1332 C 0.97616 0.41218 0.73648 0.0
C1333 C 0.95933 0.41259 0.71847 0.0
C1334 C 0.97373 0.39224 0.73473 0.0
C1335 C 0.97925 0.41954 0.77604 0.0
C1336 C -0.00342 0.43589 0.77955 0.0
C1337 C 0.00288 0.44493 0.81368 0.0
C1338 C 0.99149 0.43678 0.84518 0.0
C1339 C 0.97403 0.41953 0.84274 0.0
C1340 C 0.96773 0.41111 0.80732 0.0
H1341 H 0.61504 0.59237 0.83761 0.0
H1342 H 0.56096 0.54329 0.8643 0.0
H1343 H 0.54761 0.54755 0.80578 0.0
H1344 H 0.59567 0.61985 0.80202 0.0
H1345 H 0.61325 0.6312 0.76622 0.0
H1346 H 0.61908 0.62334 0.80831 0.0
H1347 H 0.6295 0.60328 0.76996 0.0
H1348 H 0.62388 0.61123 0.72773 0.0
H1349 H 0.61332 0.58627 0.73701 0.0
H1350 H 0.54035 0.55701 0.74338 0.0
H1351 H 0.53919 0.57194 0.68432 0.0
H1352 H 0.59698 0.61678 0.70137 0.0
C1353 C 0.6005 0.58229 0.83069 0.0
C1354 C 0.58913 0.56722 0.85512 0.0
C1355 C 0.56998 0.55475 0.84576 0.0
C1356 C 0.56228 0.55709 0.81261 0.0
C1357 C 0.57378 0.57225 0.78938 0.0
C1358 C 0.59245 0.58474 0.79816 0.0
C1359 C 0.60143 0.60054 0.76963 0.0
C1360 C 0.60772 0.61988 0.78763 0.0
C1361 C 0.61801 0.60031 0.74992 0.0
C1362 C 0.58495 0.59495 0.74333 0.0
C1363 C 0.5692 0.57845 0.75496 0.0
C1364 C 0.55253 0.57005 0.73429 0.0
C1365 C 0.55198 0.57864 0.7008 0.0
C1366 C 0.56784 0.59571 0.6886 0.0
C1367 C 0.58447 0.604 0.71044 0.0
H1368 H 0.41377 0.99777 0.85704 0.0
H1369 H 0.46227 0.05086 0.82337 0.0
H1370 H 0.46093 0.03754 0.76078 0.0
H1371 H 0.42314 0.96539 0.80148 0.0
H1372 H 0.39858 0.95034 0.78981 0.0
H1373 H 0.405 0.96307 0.83317 0.0
H1374 H 0.38467 0.97819 0.81649 0.0
H1375 H 0.37819 0.96554 0.77313 0.0
H1376 H 0.38895 0.99094 0.77339 0.0
H1377 H 0.45339 0.0188 0.70122 0.0
H1378 H 0.43873 -0.00208 0.64752 0.0
H1379 H 0.39322 0.95761 0.71822 0.0
C1380 C 0.42446 0.00638 0.83679 0.0
C1381 C 0.43852 0.02519 0.84533 0.0
C1382 C 0.45167 0.03633 0.8176 0.0
C1383 C 0.45099 0.02885 0.78203 0.0
C1384 C 0.43682 0.01031 0.77438 0.0
C1385 C 0.42365 -0.00071 0.80088 0.0
C1386 C 0.40862 0.98061 0.78443 0.0
C1387 C 0.40886 0.96386 0.80335 0.0
C1388 C 0.38895 0.97872 0.78701 0.0
C1389 C 0.41532 0.98282 0.74442 0.0
C1390 C 0.43179 -7e-05 0.73945 0.0
C1391 C 0.44052 0.00537 0.70487 0.0
C1392 C 0.43203 0.9933 0.67443 0.0
C1393 C 0.41472 0.97596 0.67828 0.0
C1394 C 0.40648 0.97061 0.71412 0.0
H1395 H 0.59213 0.97759 0.19737 0.0
H1396 H 0.5384 0.97411 0.17414 0.0
H1397 H 0.54275 0.9943 0.22862 0.0
H1398 H 0.58871 0.97804 0.29909 0.0
H1399 H 0.6134 0.99485 0.30547 0.0
H1400 H 0.60586 0.97885 0.26649 0.0
H1401 H 0.62218 0.00682 0.22074 0.0
H1402 H 0.63027 0.02309 0.25918 0.0
H1403 H 0.61671 0.02563 0.22248 0.0
H1404 H 0.55324 0.01536 0.28584 0.0
H1405 H 0.56917 0.03551 0.34064 0.0
H1406 H 0.61707 0.02733 0.32306 0.0
C1407 C 0.58105 0.98067 0.20426 0.0
C1408 C 0.56478 0.97401 0.18166 0.0
C1409 C 0.5509 0.97887 0.19115 0.0
C1410 C 0.55327 0.99039 0.22202 0.0
C1411 C 0.56971 0.99716 0.24306 0.0
C1412 C 0.58334 0.99241 0.23468 0.0
C1413 C 0.60006 0.0022 0.26082 0.0
C1414 C 0.60213 0.98761 0.28434 0.0
C1415 C 0.61839 0.01521 0.23952 0.0
C1416 C 0.59392 0.01351 0.28459 0.0
C1417 C 0.57622 0.01016 0.2744 0.0
C1418 C 0.5672 0.01825 0.29376 0.0
C1419 C 0.57637 0.02976 0.32468 0.0
C1420 C 0.59457 0.03347 0.33537 0.0
C1421 C 0.60346 0.02535 0.3147 0.0
H1422 H 0.97055 0.59233 0.33496 0.0
H1423 H 0.96501 0.53737 0.35456 0.0
H1424 H 0.98521 0.54194 0.29981 0.0
H1425 H 0.9713 0.5915 0.23407 0.0
H1426 H 0.98893 0.61617 0.23007 0.0
H1427 H 0.97313 0.60801 0.26932 0.0
H1428 H 0.00185 0.62234 0.31381 0.0
H1429 H 0.01773 0.63039 0.27469 0.0
H1430 H 0.01954 0.61544 0.30934 0.0
H1431 H 0.00564 0.55234 0.24159 0.0
H1432 H 0.02565 0.56822 0.18678 0.0
H1433 H 0.02027 0.6176 0.20798 0.0
C1434 C 0.97332 0.58111 0.32736 0.0
C1435 C 0.96587 0.5643 0.34879 0.0
C1436 C 0.97036 0.55026 0.33846 0.0
C1437 C 0.98186 0.55276 0.3074 0.0
C1438 C 0.98915 0.56956 0.28715 0.0
C1439 C 0.98515 0.58356 0.29688 0.0
C1440 C 0.99548 0.60066 0.27152 0.0
C1441 C 0.98137 0.60429 0.24997 0.0
C1442 C 0.00948 0.61825 0.29367 0.0
C1443 C 0.00579 0.59405 0.24581 0.0
C1444 C 0.00179 0.57599 0.2551 0.0
C1445 C 0.009 0.56656 0.23438 0.0
C1446 C 0.0204 0.57571 0.20328 0.0
C1447 C 0.02486 0.59429 0.19335 0.0
C1448 C 0.01753 0.60358 0.21529 0.0
H1449 H 0.40212 0.40668 0.17471 0.0
H1450 H 0.39256 0.45202 0.20935 0.0
H1451 H 0.40428 0.45109 0.27235 0.0
H1452 H 0.38542 0.38032 0.25907 0.0
H1453 H 0.40213 0.37203 0.25898 0.0
H1454 H 0.39485 0.37751 0.21579 0.0
H1455 H 0.42981 0.40081 0.19911 0.0
H1456 H 0.43721 0.39544 0.24234 0.0
H1457 H 0.4443 0.41959 0.23091 0.0
H1458 H 0.41664 0.44502 0.33153 0.0
H1459 H 0.42556 0.43241 0.38481 0.0
H1460 H 0.42502 0.389 0.31414 0.0
C1461 C 0.40283 0.4166 0.19551 0.0
C1462 C 0.39681 0.42972 0.18713 0.0
C1463 C 0.39734 0.44207 0.21519 0.0
C1464 C 0.404 0.44165 0.25097 0.0
C1465 C 0.40979 0.42853 0.2585 0.0
C1466 C 0.40905 0.41605 0.23172 0.0
C1467 C 0.41469 0.40237 0.24801 0.0
C1468 C 0.39829 0.38184 0.2453 0.0
C1469 C 0.43257 0.4047 0.22896 0.0
C1470 C 0.41862 0.40904 0.28817 0.0
C1471 C 0.41599 0.42435 0.29331 0.0
C1472 C 0.4187 0.43303 0.3278 0.0
C1473 C 0.42386 0.42572 0.35801 0.0
C1474 C 0.42606 0.40961 0.35408 0.0
C1475 C 0.42357 0.40133 0.31832 0.0
H1476 H 0.30224 0.17998 0.1715 0.0
H1477 H 0.35528 0.23197 0.15277 0.0
H1478 H 0.37274 0.21603 0.17296 0.0
H1479 H 0.31665 0.16471 0.25313 0.0
H1480 H 0.30369 0.14007 0.24038 0.0
H1481 H 0.29546 0.15578 0.22565 0.0
H1482 H 0.29583 0.14624 0.15712 0.0
H1483 H 0.30405 0.13051 0.17162 0.0
H1484 H 0.31728 0.14867 0.13776 0.0
H1485 H 0.38426 0.19423 0.19403 0.0
H1486 H 0.38923 0.16805 0.21314 0.0
H1487 H 0.32851 0.13021 0.21744 0.0
C1488 C 0.31753 0.18808 0.17183 0.0
C1489 C 0.32744 0.20724 0.16068 0.0
C1490 C 0.34744 0.21729 0.16125 0.0
C1491 C 0.35745 0.20836 0.17272 0.0
C1492 C 0.34722 0.18943 0.18345 0.0
C1493 C 0.32771 0.1794 0.18304 0.0
C1494 C 0.32008 0.15906 0.19492 0.0
C1495 C 0.30827 0.15465 0.23065 0.0
C1496 C 0.30864 0.14531 0.16348 0.0
C1497 C 0.33836 0.15915 0.2019 0.0
C1498 C 0.35384 0.17683 0.1953 0.0
C1499 C 0.37225 0.18035 0.19937 0.0
C1500 C 0.37491 0.16537 0.21024 0.0
C1501 C 0.35924 0.14709 0.21679 0.0
C1502 C 0.34075 0.14403 0.21274 0.0
H1503 H 0.78911 0.13274 0.15656 0.0
H1504 H 0.82694 0.10986 0.16246 0.0
H1505 H 0.85316 0.14119 0.17966 0.0
H1506 H 0.82303 0.17788 0.11731 0.0
H1507 H 0.81477 0.19111 0.1436 0.0
H1508 H 0.79867 0.16677 0.13181 0.0
H1509 H 0.7903 0.15886 0.20138 0.0
H1510 H 0.80636 0.18318 0.21336 0.0
H1511 H 0.80895 0.16458 0.23444 0.0
H1512 H 0.87527 0.17455 0.19647 0.0
H1513 H 0.89218 0.20851 0.21199 0.0
H1514 H 0.84052 0.21035 0.19496 0.0
C1515 C 0.8029 0.13435 0.16153 0.0
C1516 C 0.80596 0.11884 0.15818 0.0
C1517 C 0.82423 0.12152 0.16483 0.0
C1518 C 0.83925 0.13927 0.17463 0.0
C1519 C 0.83582 0.15426 0.17764 0.0
C1520 C 0.81816 0.15207 0.17132 0.0
C1521 C 0.81845 0.17064 0.17651 0.0
C1522 C 0.81343 0.17697 0.14013 0.0
C1523 C 0.80523 0.16922 0.20832 0.0
C1524 C 0.83902 0.18351 0.18672 0.0
C1525 C 0.84874 0.17372 0.18722 0.0
C1526 C 0.86785 0.18243 0.19615 0.0
C1527 C 0.87733 0.20171 0.20492 0.0
C1528 C 0.86768 0.21206 0.20461 0.0
C1529 C 0.84828 0.20281 0.19529 0.0
H1530 H 0.79669 0.66514 0.21494 0.0
H1531 H 0.77384 0.60454 0.22468 0.0
H1532 H 0.805 0.60866 0.20784 0.0
H1533 H 0.82538 0.67225 0.13665 0.0
H1534 H 0.84456 0.69471 0.15196 0.0
H1535 H 0.82078 0.68712 0.16681 0.0
H1536 H 0.83135 0.69106 0.23566 0.0
H1537 H 0.8552 0.6988 0.22101 0.0
H1538 H 0.84336 0.67908 0.25244 0.0
H1539 H 0.83811 0.61924 0.18581 0.0
H1540 H 0.8712 0.63577 0.16357 0.0
H1541 H 0.87225 0.68938 0.16984 0.0
C1542 C 0.79828 0.65275 0.21393 0.0
C1543 C 0.78288 0.63453 0.22108 0.0
C1544 C 0.7855 0.61866 0.21941 0.0
C1545 C 0.80312 0.62084 0.20982 0.0
C1546 C 0.81795 0.639 0.20234 0.0
C1547 C 0.81576 0.65469 0.20466 0.0
C1548 C 0.83381 0.6726 0.19462 0.0
C1549 C 0.83095 0.68222 0.16048 0.0
C1550 C 0.84138 0.68618 0.22792 0.0
C1551 C 0.84643 0.6645 0.18569 0.0
C1552 C 0.83705 0.6451 0.19029 0.0
C1553 C 0.84566 0.63446 0.18245 0.0
C1554 C 0.86441 0.64394 0.16973 0.0
C1555 C 0.87428 0.66383 0.16516 0.0
C1556 C 0.86512 0.67417 0.17335 0.0
H1557 H 0.125 0.32715 0.30867 0.0
H1558 H 0.16452 0.38733 0.29781 0.0
H1559 H 0.19082 0.38196 0.31436 0.0
H1560 H 0.14575 0.31956 0.387 0.0
H1561 H 0.14148 0.2966 0.37261 0.0
H1562 H 0.12605 0.305 0.35714 0.0
H1563 H 0.13231 0.30005 0.28858 0.0
H1564 H 0.14766 0.29149 0.30385 0.0
H1565 H 0.15628 0.31101 0.27173 0.0
H1566 H 0.21236 0.37019 0.33694 0.0
H1567 H 0.22764 0.3527 0.36075 0.0
H1568 H 0.17383 0.30034 0.35556 0.0
C1569 C 0.13922 0.33918 0.30923 0.0
C1570 C 0.14275 0.35765 0.30193 0.0
C1571 C 0.16152 0.37304 0.30316 0.0
C1572 C 0.17654 0.37014 0.31257 0.0
C1573 C 0.1725 0.35176 0.32034 0.0
C1574 C 0.15432 0.33654 0.3184 0.0
C1575 C 0.1536 0.3183 0.3292 0.0
C1576 C 0.14098 0.30935 0.36352 0.0
C1577 C 0.14708 0.3044 0.29638 0.0
C1578 C 0.17418 0.32567 0.33815 0.0
C1579 C 0.18489 0.34499 0.33285 0.0
C1580 C 0.20416 0.35503 0.34079 0.0
C1581 C 0.21269 0.345 0.3544 0.0
C1582 C 0.20193 0.32518 0.3598 0.0
C1583 C 0.18246 0.31547 0.3514 0.0
H1584 H 0.66075 0.86442 0.40172 0.0
H1585 H 0.72132 0.88815 0.41277 0.0
H1586 H 0.71787 0.85729 0.3956 0.0
H1587 H 0.64679 0.81596 0.43532 0.0
H1588 H 0.62772 0.80519 0.4023 0.0
H1589 H 0.63478 0.82831 0.42069 0.0
H1590 H 0.63961 0.84149 0.35363 0.0
H1591 H 0.63291 0.81854 0.33505 0.0
H1592 H 0.6554 0.83865 0.32276 0.0
H1593 H 0.70826 0.82512 0.36901 0.0
H1594 H 0.69279 0.7933 0.3403 0.0
H1595 H 0.63864 0.79095 0.34729 0.0
C1596 C 0.67322 0.863 0.40166 0.0
C1597 C 0.69129 0.87866 0.40872 0.0
C1598 C 0.70731 0.87629 0.40772 0.0
C1599 C 0.7055 0.85883 0.39789 0.0
C1600 C 0.68756 0.84388 0.38954 0.0
C1601 C 0.67166 0.8457 0.39193 0.0
C1602 C 0.65418 0.82792 0.37917 0.0
C1603 C 0.64004 0.8188 0.41129 0.0
C1604 C 0.645 0.8319 0.34567 0.0
C1605 C 0.66279 0.816 0.3682 0.0
C1606 C 0.68204 0.82537 0.3745 0.0
C1607 C 0.69315 0.81751 0.36452 0.0
C1608 C 0.68427 0.79951 0.34803 0.0
C1609 C 0.66453 0.78965 0.34173 0.0
C1610 C 0.65374 0.79806 0.35205 0.0
H1611 H 0.12225 0.81339 0.36219 0.0
H1612 H 0.1249 0.76177 0.37139 0.0
H1613 H 0.15809 0.77898 0.34968 0.0
H1614 H 0.151 0.83165 0.27972 0.0
H1615 H 0.16234 0.85585 0.29536 0.0
H1616 H 0.13867 0.83928 0.31038 0.0
H1617 H 0.14915 0.84687 0.37913 0.0
H1618 H 0.17282 0.86351 0.36435 0.0
H1619 H 0.16872 0.84451 0.3954 0.0
H1620 H 0.19115 0.80211 0.32782 0.0
H1621 H 0.22192 0.82956 0.31024 0.0
H1622 H 0.19739 0.86593 0.31629 0.0
C1623 C 0.12976 0.80566 0.35948 0.0
C1624 C 0.12101 0.78623 0.36834 0.0
C1625 C 0.13136 0.77666 0.36472 0.0
C1626 C 0.15017 0.7863 0.35231 0.0
C1627 C 0.15837 0.80547 0.34376 0.0
C1628 C 0.1485 0.81505 0.34734 0.0
C1629 C 0.16068 0.83575 0.33755 0.0
C1630 C 0.15269 0.84093 0.30374 0.0
C1631 C 0.16298 0.8484 0.37111 0.0
C1632 C 0.17903 0.8364 0.32814 0.0
C1633 C 0.17738 0.81878 0.3316 0.0
C1634 C 0.19259 0.81596 0.32491 0.0
C1635 C 0.20999 0.83163 0.31489 0.0
C1636 C 0.21203 0.84986 0.31187 0.0
C1637 C 0.19626 0.85216 0.31824 0.0
H1638 H 0.66683 0.87608 0.81037 0.0
H1639 H 0.60909 0.83398 0.78267 0.0
H1640 H 0.61533 0.80866 0.80179 0.0
H1641 H 0.68843 0.84762 0.78049 0.0
H1642 H 0.70532 0.85632 0.81791 0.0
H1643 H 0.69681 0.87105 0.79873 0.0
H1644 H 0.68632 0.87503 0.86444 0.0
H1645 H 0.6945 0.86008 0.88375 0.0
H1646 H 0.67036 0.85431 0.89076 0.0
H1647 H 0.62654 0.78824 0.83025 0.0
H1648 H 0.64326 0.77356 0.85991 0.0
H1649 H 0.69405 0.82864 0.86751 0.0
C1650 C 0.65564 0.86152 0.80749 0.0
C1651 C 0.63748 0.857 0.79501 0.0
C1652 C 0.62314 0.83778 0.79205 0.0
C1653 C 0.62652 0.82328 0.80293 0.0
C1654 C 0.64436 0.82823 0.81634 0.0
C1655 C 0.65881 0.84683 0.81805 0.0
C1656 C 0.6765 0.84828 0.8347 0.0
C1657 C 0.69272 0.85629 0.80625 0.0
C1658 C 0.68225 0.86013 0.87053 0.0
C1659 C 0.66958 0.82763 0.84283 0.0
C1660 C 0.65098 0.81633 0.83209 0.0
C1661 C 0.64119 0.79689 0.83831 0.0
C1662 C 0.65076 0.78871 0.85541 0.0
C1663 C 0.66995 0.79996 0.86586 0.0
C1664 C 0.67942 0.81968 0.85956 0.0
H1665 H 0.15118 0.79092 0.84005 0.0
H1666 H 0.09631 0.78717 0.84354 0.0
H1667 H 0.11135 0.82015 0.86591 0.0
H1668 H 0.17082 0.82031 0.92198 0.0
H1669 H 0.19409 0.83387 0.90203 0.0
H1670 H 0.17889 0.80965 0.88814 0.0
H1671 H 0.18228 0.8201 0.81924 0.0
H1672 H 0.19753 0.84431 0.83289 0.0
H1673 H 0.17659 0.83798 0.80606 0.0
H1674 H 0.13242 0.8537 0.88608 0.0
H1675 H 0.15826 0.88604 0.8998 0.0
H1676 H 0.19931 0.86783 0.88236 0.0
C1677 C 0.14231 0.79699 0.84577 0.0
C1678 C 0.12259 0.78651 0.84021 0.0
C1679 C 0.11147 0.79498 0.84765 0.0
C1680 C 0.11986 0.81366 0.86049 0.0
C1681 C 0.13936 0.82361 0.86567 0.0
C1682 C 0.15045 0.81561 0.85841 0.0
C1683 C 0.17116 0.82961 0.86469 0.0
C1684 C 0.17921 0.82296 0.89608 0.0
C1685 C 0.18256 0.83321 0.82857 0.0
C1686 C 0.17 0.84681 0.87618 0.0
C1687 C 0.15152 0.84301 0.87692 0.0
C1688 C 0.14695 0.85684 0.88579 0.0
C1689 C 0.16171 0.87514 0.89357 0.0
C1690 C 0.18076 0.87941 0.89218 0.0
C1691 C 0.18487 0.86497 0.88383 0.0
H1692 H 0.12287 0.32644 0.87468 0.0
H1693 H 0.10349 0.2666 0.88774 0.0
H1694 H 0.13534 0.2725 0.87174 0.0
H1695 H 0.15213 0.33409 0.79668 0.0
H1696 H 0.17042 0.35727 0.81091 0.0
H1697 H 0.14638 0.34859 0.82544 0.0
H1698 H 0.15697 0.35416 0.89433 0.0
H1699 H 0.18108 0.36299 0.87999 0.0
H1700 H 0.17015 0.34367 0.91253 0.0
H1701 H 0.16865 0.28453 0.85093 0.0
H1702 H 0.20179 0.30226 0.82946 0.0
H1703 H 0.19948 0.35425 0.83072 0.0
C1704 C 0.12539 0.31462 0.8746 0.0
C1705 C 0.11074 0.29607 0.88246 0.0
C1706 C 0.11454 0.28094 0.88187 0.0
C1707 C 0.13256 0.28413 0.87279 0.0
C1708 C 0.14662 0.30254 0.86458 0.0
C1709 C 0.1433 0.31755 0.86568 0.0
C1710 C 0.16076 0.33589 0.85491 0.0
C1711 C 0.1572 0.34445 0.8199 0.0
C1712 C 0.16764 0.35001 0.88738 0.0
C1713 C 0.17432 0.32877 0.84712 0.0
C1714 C 0.16589 0.3095 0.85288 0.0
C1715 C 0.17547 0.29966 0.84659 0.0
C1716 C 0.19424 0.30983 0.8343 0.0
C1717 C 0.20318 0.32961 0.82854 0.0
C1718 C 0.19304 0.33914 0.83505 0.0
H1719 H 0.83668 0.63614 0.69474 0.0
H1720 H 0.89099 0.68778 0.70423 0.0
H1721 H 0.87615 0.7065 0.68679 0.0
H1722 H 0.8204 0.65051 0.61519 0.0
H1723 H 0.7962 0.63939 0.63073 0.0
H1724 H 0.81094 0.62987 0.64453 0.0
H1725 H 0.80393 0.63264 0.71373 0.0
H1726 H 0.78913 0.64213 0.70014 0.0
H1727 H 0.80852 0.65516 0.73166 0.0
H1728 H 0.85585 0.71967 0.66842 0.0
H1729 H 0.83099 0.7267 0.65015 0.0
H1730 H 0.78964 0.66667 0.65174 0.0
C1731 C 0.84541 0.65139 0.69324 0.0
C1732 C 0.86498 0.66051 0.70083 0.0
C1733 C 0.87597 0.68048 0.69848 0.0
C1734 C 0.86768 0.69125 0.68861 0.0
C1735 C 0.84841 0.68184 0.68113 0.0
C1736 C 0.83737 0.66239 0.6833 0.0
C1737 C 0.81698 0.65588 0.67358 0.0
C1738 C 0.81077 0.64316 0.63894 0.0
C1739 C 0.80387 0.64586 0.70676 0.0
C1740 C 0.81834 0.67475 0.66562 0.0
C1741 C 0.83662 0.6895 0.67021 0.0
C1742 C 0.84148 0.70826 0.6647 0.0
C1743 C 0.82725 0.71209 0.65432 0.0
C1744 C 0.8084 0.69723 0.64949 0.0
C1745 C 0.80393 0.67831 0.65512 0.0
H1746 H 0.33149 0.20341 0.7134 0.0
H1747 H 0.39081 0.22033 0.72406 0.0
H1748 H 0.38351 0.18828 0.7058 0.0
H1749 H 0.31276 0.15544 0.74863 0.0
H1750 H 0.29322 0.14547 0.71659 0.0
H1751 H 0.30299 0.16957 0.73202 0.0
H1752 H 0.30849 0.1809 0.66356 0.0
H1753 H 0.29887 0.15687 0.64792 0.0
H1754 H 0.32221 0.17471 0.63349 0.0
H1755 H 0.37024 0.15522 0.68369 0.0
H1756 H 0.3515 0.12236 0.66171 0.0
H1757 H 0.30063 0.12659 0.66588 0.0
C1758 C 0.34291 0.20031 0.71225 0.0
C1759 C 0.36172 0.21433 0.72014 0.0
C1760 C 0.37629 0.20978 0.71818 0.0
C1761 C 0.3723 0.19164 0.7078 0.0
C1762 C 0.35366 0.17823 0.69966 0.0
C1763 C 0.33917 0.18226 0.70201 0.0
C1764 C 0.32042 0.16532 0.69119 0.0
C1765 C 0.30653 0.15855 0.72407 0.0
C1766 C 0.31201 0.16972 0.65701 0.0
C1767 C 0.32671 0.15122 0.68202 0.0
C1768 C 0.34594 0.159 0.6871 0.0
C1769 C 0.35515 0.14891 0.67981 0.0
C1770 C 0.34438 0.13028 0.66723 0.0
C1771 C 0.32461 0.12194 0.66216 0.0
C1772 C 0.3157 0.13259 0.66959 0.0
H1773 H 0.85854 0.19447 0.63526 0.0
H1774 H 0.88113 0.15643 0.62967 0.0
H1775 H 0.84994 0.12969 0.64747 0.0
H1776 H 0.83097 0.175 0.71414 0.0
H1777 H 0.81161 0.17795 0.6988 0.0
H1778 H 0.83513 0.19364 0.68202 0.0
H1779 H 0.82346 0.18511 0.61405 0.0
H1780 H 0.79983 0.16949 0.63064 0.0
H1781 H 0.81106 0.16065 0.59989 0.0
H1782 H 0.81698 0.10775 0.67242 0.0
H1783 H 0.78452 0.09231 0.69852 0.0
H1784 H 0.78404 0.14492 0.68575 0.0
C1785 C 0.85685 0.18046 0.63708 0.0
C1786 C 0.87221 0.1775 0.63107 0.0
C1787 C 0.86948 0.15899 0.63399 0.0
C1788 C 0.85184 0.14371 0.64414 0.0
C1789 C 0.83707 0.1472 0.65081 0.0
C1790 C 0.83935 0.16508 0.64692 0.0
C1791 C 0.82156 0.16531 0.65718 0.0
C1792 C 0.82504 0.17877 0.68998 0.0
C1793 C 0.8135 0.17044 0.62342 0.0
C1794 C 0.80905 0.14488 0.66831 0.0
C1795 C 0.81815 0.13458 0.66442 0.0
C1796 C 0.8096 0.11561 0.67505 0.0
C1797 C 0.79124 0.10697 0.68993 0.0
C1798 C 0.78175 0.11738 0.69388 0.0
C1799 C 0.79082 0.1365 0.68268 0.0
H1800 H 0.01449 0.47586 0.52025 0.0
H1801 H 0.96171 0.42245 0.52571 0.0
H1802 H 0.94437 0.43875 0.50664 0.0
H1803 H -0.00318 0.50406 0.55823 0.0
H1804 H 0.01118 0.52421 0.52912 0.0
H1805 H 0.01929 0.50808 0.54122 0.0
H1806 H 0.023 0.50284 0.47142 0.0
H1807 H 0.01485 0.51894 0.45907 0.0
H1808 H 0.00307 0.49521 0.44074 0.0
H1809 H 0.93296 0.46127 0.48783 0.0
H1810 H 0.92815 0.4882 0.47384 0.0
H1811 H 0.98859 0.52668 0.48243 0.0
C1812 C -0.00071 0.46752 0.51717 0.0
C1813 C 0.98942 0.44787 0.52423 0.0
C1814 C 0.96953 0.43752 0.52033 0.0
C1815 C 0.95959 0.44665 0.50944 0.0
C1816 C 0.9698 0.46608 0.50274 0.0
C1817 C 0.98921 0.47638 0.50663 0.0
C1818 C -0.00315 0.49721 0.49931 0.0
C1819 C 0.0066 0.50908 0.53404 0.0
C1820 C 0.01023 0.50394 0.46563 0.0
C1821 C 0.97869 0.4971 0.49088 0.0
C1822 C 0.96325 0.47901 0.49267 0.0
C1823 C 0.94495 0.47547 0.4863 0.0
C1824 C 0.94237 0.49085 0.47831 0.0
C1825 C 0.958 0.50952 0.47707 0.0
C1826 C 0.97637 0.51258 0.48315 0.0
H1827 H 0.53467 0.53355 0.54797 0.0
H1828 H 0.49556 0.55429 0.56437 0.0
H1829 H 0.469 0.52295 0.54654 0.0
H1830 H 0.51297 0.50653 0.46794 0.0
H1831 H 0.51726 0.48757 0.47986 0.0
H1832 H 0.533 0.51117 0.49632 0.0
H1833 H 0.52754 0.49901 0.56425 0.0
H1834 H 0.51196 0.47532 0.54797 0.0
H1835 H 0.50377 0.48575 0.58206 0.0
H1836 H 0.44701 0.48976 0.52427 0.0
H1837 H 0.43102 0.45679 0.50156 0.0
H1838 H 0.4849 0.45836 0.49896 0.0
C1839 C 0.5205 0.53146 0.54834 0.0
C1840 C 0.51713 0.5463 0.55765 0.0
C1841 C 0.49841 0.54305 0.55746 0.0
C1842 C 0.48327 0.52534 0.54731 0.0
C1843 C 0.48715 0.51111 0.53751 0.0
C1844 C 0.50529 0.51395 0.53819 0.0
C1845 C 0.50579 0.49657 0.52546 0.0
C1846 C 0.51797 0.50072 0.49031 0.0
C1847 C 0.51267 0.4887 0.55681 0.0
C1848 C 0.48511 0.48353 0.51717 0.0
C1849 C 0.47456 0.49214 0.52437 0.0
C1850 C 0.45511 0.48285 0.51866 0.0
C1851 C 0.44618 0.46416 0.50567 0.0
C1852 C 0.45675 0.45507 0.49846 0.0
C1853 C 0.47646 0.46497 0.50408 0.0
H1854 H 0.5355 0.99609 0.47988 0.0
H1855 H 0.55576 0.05645 0.47705 0.0
H1856 H 0.5242 0.05045 0.49518 0.0
H1857 H 0.48864 0.98097 0.44373 0.0
H1858 H 0.47716 0.96054 0.47356 0.0
H1859 H 0.5013 0.96943 0.45933 0.0
H1860 H 0.51144 0.97238 0.52829 0.0
H1861 H 0.48735 0.96356 0.54273 0.0
H1862 H 0.5058 0.98602 0.55978 0.0
H1863 H 0.49104 0.03834 0.51435 0.0
H1864 H 0.45764 0.02059 0.53348 0.0
H1865 H 0.45851 0.96796 0.52477 0.0
C1866 C 0.53323 0.00801 0.48283 0.0
C1867 C 0.54805 0.02673 0.47701 0.0
C1868 C 0.5446 0.04198 0.4814 0.0
C1869 C 0.52673 0.03874 0.49166 0.0
C1870 C 0.51247 0.02017 0.49749 0.0
C1871 C 0.51544 0.00503 0.49326 0.0
C1872 C 0.49766 0.98651 0.50194 0.0
C1873 C 0.49079 0.9736 0.46758 0.0
C1874 C 0.50075 0.97653 0.53516 0.0
C1875 C 0.48431 0.99367 0.51176 0.0
C1876 C 0.49318 0.01313 0.50891 0.0
C1877 C 0.48388 0.02309 0.51663 0.0
C1878 C 0.46492 0.01287 0.52749 0.0
C1879 C 0.4555 0.99291 0.53058 0.0
C1880 C 0.46536 0.98321 0.52266 0.0
H1881 H 0.47512 0.02234 1.00599 0.0
H1882 H 0.42362 0.96848 0.99085 0.0
H1883 H 0.44023 0.95188 1.01302 0.0
H1884 H 0.50654 0.00786 0.97347 0.0
H1885 H 0.5249 0.02211 1.00617 0.0
H1886 H 0.50851 0.0294 0.99134 0.0
H1887 H 0.49959 0.03071 0.05999 0.0
H1888 H 0.51593 0.02334 0.07505 0.0
H1889 H 0.49148 0.01007 0.08897 0.0
H1890 H 0.46325 0.94147 0.03509 0.0
H1891 H 0.49068 0.93801 0.05213 0.0
H1892 H 0.52662 -0.00092 0.05165 0.0
C1893 C 0.46721 0.00704 1.00754 0.0
C1894 C 0.44806 0.99666 0.99683 0.0
C1895 C 0.43831 0.97667 0.99901 0.0
C1896 C 0.44761 0.96717 1.01166 0.0
C1897 C 0.46657 0.97792 0.02197 0.0
C1898 C 0.47622 0.99742 0.01991 0.0
C1899 C 0.4967 0.00581 0.03094 0.0
C1900 C 0.50993 0.01694 0.99854 0.0
C1901 C 0.50118 0.01821 0.06581 0.0
C1902 C 0.49723 0.98797 0.03912 0.0
C1903 C 0.47972 0.972 0.03418 0.0
C1904 C 0.47699 0.95388 0.03922 0.0
C1905 C 0.49264 0.95207 0.04896 0.0
C1906 C 0.51076 0.96829 0.05325 0.0
C1907 C 0.51294 0.98642 0.04874 0.0
H1908 H -0.00075 0.53463 0.0539 0.0
H1909 H 0.0587 0.55338 0.06986 0.0
H1910 H 0.05287 0.52178 0.05134 0.0
H1911 H 0.98095 0.48603 0.08696 0.0
H1912 H 0.96232 0.47634 0.0529 0.0
H1913 H 0.97101 0.49998 0.07019 0.0
H1914 H 0.978 0.51281 1.00275 0.0
H1915 H 0.96951 0.48927 0.98528 0.0
H1916 H 0.99299 0.5079 0.97363 0.0
H1917 H 0.04103 0.48907 0.02618 0.0
H1918 H 0.02361 0.45687 0.99967 0.0
H1919 H 0.97191 0.45959 1.00113 0.0
C1920 C 0.011 0.53201 0.0541 0.0
C1921 C 0.02942 0.54642 0.06335 0.0
C1922 C 0.04445 0.54249 0.063 0.0
C1923 C 0.04129 0.52461 0.05248 0.0
C1924 C 0.02301 0.51084 0.04269 0.0
C1925 C 0.00808 0.51427 0.04378 0.0
C1926 C 0.98994 0.49729 0.03069 0.0
C1927 C 0.97519 0.48944 0.06206 0.0
C1928 C 0.98216 0.50211 0.99603 0.0
C1929 C -0.00294 0.48389 0.02145 0.0
C1930 C 0.01616 0.49195 0.02858 0.0
C1931 C 0.02602 0.48252 0.02086 0.0
C1932 C 0.01604 0.46429 1.00568 0.0
C1933 C -0.00358 0.45575 0.99852 0.0
C1934 C 0.98687 0.46571 1.00658 0.0
H1935 H 0.45852 0.45765 0.04199 0.0
H1936 H 0.43871 0.49746 0.05998 0.0
H1937 H 0.46999 0.52375 0.04219 0.0
H1938 H 0.50624 0.48823 0.07723 0.0
H1939 H 0.51702 0.48037 0.04326 0.0
H1940 H 0.49317 0.46462 0.05853 0.0
H1941 H 0.48176 0.45989 0.99021 0.0
H1942 H 0.50554 0.47577 0.97477 0.0
H1943 H 0.48676 0.48024 0.9624 0.0
H1944 H 0.50255 0.54548 0.01992 0.0
H1945 H 0.53566 0.56195 0.99882 0.0
H1946 H 0.53497 0.50841 0.99599 0.0
C1947 C 0.46084 0.47192 0.04256 0.0
C1948 C 0.44618 0.47551 0.05236 0.0
C1949 C 0.44973 0.49436 0.05263 0.0
C1950 C 0.46744 0.5094 0.04246 0.0
C1951 C 0.48147 0.50537 0.03229 0.0
C1952 C 0.4785 0.48715 0.03261 0.0
C1953 C 0.49607 0.48681 0.02032 0.0
C1954 C 0.50357 0.47958 0.05171 0.0
C1955 C 0.4923 0.47498 0.98481 0.0
C1956 C 0.50928 0.50766 1.01281 0.0
C1957 C 0.5005 0.51805 0.01978 0.0
C1958 C 0.50965 0.53754 0.01455 0.0
C1959 C 0.52844 0.54674 1.00242 0.0
C1960 C 0.53789 0.53647 0.9958 0.0
C1961 C 0.5281 0.51664 1.0008 0.0
H1962 H 0.39917 0.05718 1.01123 0.0
H1963 H 0.4501 0.06214 0.05843 0.0
H1964 H 0.44671 0.07851 0.11335 0.0
H1965 H 0.40622 0.10339 0.04722 0.0
H1966 H 0.38129 0.09357 0.05554 0.0
H1967 H 0.38924 0.08451 0.01828 0.0
H1968 H 0.36957 0.05076 0.0456 0.0
H1969 H 0.36183 0.05974 0.08325 0.0
H1970 H 0.37349 0.04644 0.09296 0.0
H1971 H 0.43551 0.09111 0.16664 0.0
H1972 H 0.41883 0.10101 0.21099 0.0
H1973 H 0.37547 0.0881 0.12836 0.0
C1974 C 0.40999 0.06245 0.03248 0.0
C1975 C 0.42525 0.05902 0.03018 0.0
C1976 C 0.43867 0.06524 0.05925 0.0
C1977 C 0.43675 0.07439 0.09066 0.0
C1978 C 0.42129 0.07722 0.09261 0.0
C1979 C 0.4083 0.07169 0.06397 0.0
C1980 C 0.39241 0.07544 0.07373 0.0
C1981 C 0.39229 0.0901 0.04711 0.0
C1982 C 0.3732 0.057 0.0739 0.0
C1983 C 0.3982 0.08345 0.11261 0.0
C1984 C 0.41492 0.08443 0.12307 0.0
C1985 C 0.42254 0.09064 0.15847 0.0
C1986 C 0.41295 0.09616 0.18358 0.0
C1987 C 0.39591 0.09546 0.1732 0.0
C1988 C 0.38854 0.08898 0.13718 0.0
H1989 H 0.92454 0.30028 0.13819 0.0
H1990 H 0.87771 0.30559 0.18019 0.0
H1991 H 0.88385 0.32967 0.13154 0.0
H1992 H 0.95512 0.34962 0.11947 0.0
H1993 H 0.96532 0.34529 0.07888 0.0
H1994 H 0.95645 0.32829 0.11607 0.0
H1995 H 0.93487 0.30227 0.06925 0.0
H1996 H 0.94342 0.31931 0.03203 0.0
H1997 H 0.91844 0.30559 0.0414 0.0
H1998 H 0.89518 0.35285 0.07533 0.0
H1999 H 0.9133 0.3759 0.02524 0.0
H2000 H 0.95345 0.35605 0.0242 0.0
C2001 C 0.91554 0.30649 0.13723 0.0
C2002 C 0.90054 0.30097 0.16279 0.0
C2003 C 0.8893 0.30965 0.16092 0.0
C2004 C 0.89261 0.32321 0.13318 0.0
C2005 C 0.90736 0.32807 0.10788 0.0
C2006 C 0.91884 0.32016 0.1103 0.0
C2007 C 0.93442 0.32834 0.08147 0.0
C2008 C 0.95398 0.33849 0.10009 0.0
C2009 C 0.93267 0.31296 0.05445 0.0
C2010 C 0.93006 0.34219 0.06228 0.0
C2011 C 0.9142 0.34165 0.07724 0.0
C2012 C 0.90759 0.35332 0.06355 0.0
C2013 C 0.91782 0.36622 0.03484 0.0
C2014 C 0.93456 0.3675 0.02064 0.0
C2015 C 0.94052 0.35514 0.03427 0.0
H2016 H 0.64787 0.58148 0.01586 0.0
H2017 H 0.60023 0.54159 0.08211 0.0
H2018 H 0.62152 0.54687 0.13502 0.0
H2019 H 0.68411 0.57153 0.05637 0.0
H2020 H 0.70214 0.59615 0.05555 0.0
H2021 H 0.68366 0.58698 0.02114 0.0
H2022 H 0.67516 0.61253 0.0394 0.0
H2023 H 0.69345 0.62162 0.07409 0.0
H2024 H 0.66945 0.61429 0.08707 0.0
H2025 H 0.64728 0.55918 0.18315 0.0
H2026 H 0.67592 0.57687 0.22192 0.0
H2027 H 0.70685 0.60937 0.12522 0.0
C2028 C 0.6421 0.57332 0.041 0.0
C2029 C 0.62248 0.56072 0.04463 0.0
C2030 C 0.61529 0.55097 0.07859 0.0
C2031 C 0.62727 0.55394 0.10884 0.0
C2032 C 0.64646 0.56692 0.10495 0.0
C2033 C 0.6539 0.57638 0.07182 0.0
C2034 C 0.67472 0.59088 0.07618 0.0
C2035 C 0.68688 0.58609 0.0508 0.0
C2036 C 0.6784 0.61101 0.06874 0.0
C2037 C 0.67772 0.58818 0.11685 0.0
C2038 C 0.66127 0.57425 0.13294 0.0
C2039 C 0.66033 0.56994 0.17071 0.0
C2040 C 0.67665 0.58008 0.19258 0.0
C2041 C 0.69368 0.59437 0.17666 0.0
C2042 C 0.69413 0.59834 0.13822 0.0
H2043 H 0.06972 0.39202 0.3319 0.0
H2044 H 0.12281 0.40819 0.38658 0.0
H2045 H 0.11363 0.4216 0.43878 0.0
H2046 H 0.06358 0.43189 0.36537 0.0
H2047 H 0.0385 0.41665 0.37179 0.0
H2048 H 0.05069 0.41146 0.33605 0.0
H2049 H 0.0377 0.37806 0.36352 0.0
H2050 H 0.02594 0.3831 0.40023 0.0
H2051 H 0.04252 0.37538 0.41132 0.0
H2052 H 0.0973 0.4305 0.48811 0.0
H2053 H 0.07521 0.43416 0.5299 0.0
H2054 H 0.032 0.41027 0.44471 0.0
C2055 C 0.07969 0.39901 0.35411 0.0
C2056 C 0.09724 0.39954 0.35467 0.0
C2057 C 0.10952 0.40808 0.38521 0.0
C2058 C 0.10437 0.41565 0.41507 0.0
C2059 C 0.08669 0.41431 0.41439 0.0
C2060 C 0.07454 0.40626 0.38461 0.0
C2061 C 0.05562 0.40484 0.39242 0.0
C2062 C 0.05188 0.41693 0.36477 0.0
C2063 C 0.0395 0.38411 0.39186 0.0
C2064 C 0.05894 0.41308 0.43133 0.0
C2065 C 0.07702 0.41868 0.44338 0.0
C2066 C 0.08315 0.42629 0.47881 0.0
C2067 C 0.07051 0.42829 0.50243 0.0
C2068 C 0.05187 0.42252 0.49071 0.0
C2069 C 0.04614 0.41485 0.4546 0.0
H2070 H 0.58911 0.65431 0.52542 0.0
H2071 H 0.54017 0.61215 0.46541 0.0
H2072 H 0.54839 0.63409 0.41233 0.0
H2073 H 0.59007 0.69713 0.48795 0.0
H2074 H 0.61548 0.71002 0.48455 0.0
H2075 H 0.60403 0.69225 0.51998 0.0
H2076 H 0.62154 0.67522 0.49656 0.0
H2077 H 0.63294 0.69277 0.46084 0.0
H2078 H 0.61936 0.66808 0.44862 0.0
H2079 H 0.56328 0.65988 0.36357 0.0
H2080 H 0.58414 0.68698 0.32301 0.0
H2081 H 0.62467 0.71115 0.41287 0.0
C2082 C 0.57983 0.64994 0.50161 0.0
C2083 C 0.56375 0.63166 0.49985 0.0
C2084 C 0.55235 0.62623 0.46755 0.0
C2085 C 0.55694 0.63858 0.43721 0.0
C2086 C 0.57322 0.65629 0.4392 0.0
C2087 C 0.58453 0.66196 0.47056 0.0
C2088 C 0.60227 0.6809 0.46409 0.0
C2089 C 0.60299 0.69597 0.49073 0.0
C2090 C 0.62008 0.67913 0.46772 0.0
C2091 C 0.59923 0.68488 0.42424 0.0
C2092 C 0.58227 0.67066 0.4105 0.0
C2093 C 0.57655 0.67115 0.37413 0.0
C2094 C 0.58848 0.68658 0.35124 0.0
C2095 C 0.60604 0.70117 0.36462 0.0
C2096 C 0.61135 0.70022 0.40168 0.0
H2097 H 0.3494 0.94226 0.51354 0.0
H2098 H 0.38179 0.91633 0.47807 0.0
H2099 H 0.35911 0.90027 0.42675 0.0
H2100 H 0.30169 0.90168 0.48991 0.0
H2101 H 0.29336 0.91725 0.47465 0.0
H2102 H 0.31089 0.92471 0.51078 0.0
H2103 H 0.33286 0.95461 0.47261 0.0
H2104 H 0.31566 0.94712 0.43591 0.0
H2105 H 0.33933 0.95211 0.42595 0.0
H2106 H 0.33552 0.89103 0.3738 0.0
H2107 H 0.31011 0.88533 0.32914 0.0
H2108 H 0.29198 0.91575 0.40123 0.0
C2109 C 0.35116 0.93245 0.49607 0.0
C2110 C 0.36692 0.9299 0.50056 0.0
C2111 C 0.3694 0.91786 0.47587 0.0
C2112 C 0.35671 0.90888 0.44641 0.0
C2113 C 0.34157 0.9121 0.44204 0.0
C2114 C 0.33851 0.92327 0.46674 0.0
C2115 C 0.32173 0.9252 0.45491 0.0
C2116 C 0.30598 0.91669 0.48431 0.0
C2117 C 0.32777 0.94599 0.44687 0.0
C2118 C 0.31593 0.91354 0.41953 0.0
C2119 C 0.32771 0.90631 0.41227 0.0
C2120 C 0.32598 0.89629 0.37966 0.0
C2121 C 0.31162 0.89324 0.3543 0.0
C2122 C 0.29897 0.89988 0.36196 0.0
C2123 C 0.30125 0.9102 0.39499 0.0
H2124 H 0.60899 0.90138 0.90337 0.0
H2125 H 0.56747 0.88949 0.81715 0.0
H2126 H 0.55001 0.89912 0.85969 0.0
H2127 H 0.57687 0.88652 0.98334 0.0
H2128 H 0.59351 0.90557 1.01237 0.0
H2129 H 0.6019 0.89622 0.97643 0.0
H2130 H 0.62181 0.92979 0.94823 0.0
H2131 H 0.61356 0.93921 0.98421 0.0
H2132 H 0.61037 0.94304 0.93612 0.0
H2133 H 0.53853 0.91229 0.90926 0.0
H2134 H 0.53388 0.92871 0.96221 0.0
H2135 H 0.58248 0.93198 0.01759 0.0
C2136 C 0.59599 0.90041 0.89369 0.0
C2137 C 0.5894 0.89439 0.85703 0.0
C2138 C 0.57266 0.89387 0.84515 0.0
C2139 C 0.56266 0.8993 0.86916 0.0
C2140 C 0.56962 0.90531 0.90496 0.0
C2141 C 0.58593 0.90597 0.91722 0.0
C2142 C 0.59107 0.91426 0.95613 0.0
C2143 C 0.59082 0.89977 0.9837 0.0
C2144 C 0.61034 0.93266 0.95616 0.0
C2145 C 0.57508 0.91818 0.96387 0.0
C2146 C 0.56289 0.91287 0.93388 0.0
C2147 C 0.54779 0.91622 0.93309 0.0
C2148 C 0.54526 0.92553 0.96331 0.0
C2149 C 0.55758 0.93125 0.99423 0.0
C2150 C 0.57252 0.92725 0.99481 0.0
H2151 H 0.04945 0.62314 0.97014 0.0
H2152 H 0.09608 0.65056 0.04752 0.0
H2153 H 0.11307 0.67691 1.0025 0.0
H2154 H 0.07604 0.636 0.88491 0.0
H2155 H 0.05925 0.64008 0.86018 0.0
H2156 H 0.05139 0.62315 0.89757 0.0
H2157 H 0.03649 0.64066 0.93098 0.0
H2158 H 0.04401 0.65743 0.89342 0.0
H2159 H 0.05085 0.6656 0.94042 0.0
H2160 H 0.1246 0.7005 0.94816 0.0
H2161 H 0.12792 0.72079 0.89417 0.0
H2162 H 0.0731 0.67808 0.85392 0.0
C2163 C 0.06334 0.63459 0.97759 0.0
C2164 C 0.0716 0.63466 1.01219 0.0
C2165 C 0.08955 0.65017 0.02115 0.0
C2166 C 0.09931 0.66511 0.99561 0.0
C2167 C 0.0908 0.66442 0.96146 0.0
C2168 C 0.07305 0.64965 0.95281 0.0
C2169 C 0.06631 0.65274 0.91561 0.0
C2170 C 0.06306 0.63705 0.88794 0.0
C2171 C 0.04836 0.6542 0.9204 0.0
C2172 C 0.08308 0.67154 0.90427 0.0
C2173 C 0.09718 0.67799 0.93088 0.0
C2174 C 0.11373 0.69543 0.92708 0.0
C2175 C 0.11561 0.70678 0.89611 0.0
C2176 C 0.1011 0.70066 0.86923 0.0
C2177 C 0.08474 0.68273 0.87324 0.0
H2178 H 0.31228 0.38887 0.84453 0.0
H2179 H 0.26884 0.39758 0.8934 0.0
H2180 H 0.28998 0.41446 0.94633 0.0
H2181 H 0.32756 0.37886 0.92764 0.0
H2182 H 0.35229 0.39059 0.91578 0.0
H2183 H 0.33475 0.38126 0.87965 0.0
H2184 H 0.34995 0.41423 0.84832 0.0
H2185 H 0.36774 0.4236 0.88407 0.0
H2186 H 0.3536 0.43445 0.87509 0.0
H2187 H 0.31471 0.4271 0.99781 0.0
H2188 H 0.34196 0.4369 0.0403 0.0
H2189 H 0.36951 0.42061 0.9571 0.0
C2190 C 0.30758 0.39506 0.86565 0.0
C2191 C 0.2892 0.39257 0.86433 0.0
C2192 C 0.28311 0.39993 0.89339 0.0
C2193 C 0.29497 0.40938 0.9237 0.0
C2194 C 0.31291 0.41128 0.92471 0.0
C2195 C 0.31929 0.40454 0.89616 0.0
C2196 C 0.33873 0.40745 0.90496 0.0
C2197 C 0.33829 0.38841 0.90713 0.0
C2198 C 0.35337 0.42073 0.87641 0.0
C2199 C 0.34222 0.41672 0.94291 0.0
C2200 C 0.32713 0.41871 0.95401 0.0
C2201 C 0.32674 0.4259 0.98906 0.0
C2202 C 0.34223 0.43137 1.01311 0.0
C2203 C 0.35799 0.42981 1.00192 0.0
C2204 C 0.35785 0.42235 0.9663 0.0
H2205 H 0.9103 0.59588 0.68686 0.0
H2206 H 0.8615 0.59221 0.63207 0.0
H2207 H 0.86584 0.57526 0.57947 0.0
H2208 H 0.93785 0.60632 0.60785 0.0
H2209 H 0.94921 0.59298 0.6199 0.0
H2210 H 0.94063 0.60204 0.65593 0.0
H2211 H 0.92025 0.56835 0.68302 0.0
H2212 H 0.92903 0.5592 0.64744 0.0
H2213 H 0.90393 0.54944 0.65328 0.0
H2214 H 0.87824 0.56276 0.52873 0.0
H2215 H 0.89602 0.55302 0.48693 0.0
H2216 H 0.9365 0.56438 0.57493 0.0
C2217 C 0.90001 0.59063 0.66465 0.0
C2218 C 0.8851 0.59467 0.66414 0.0
C2219 C 0.87259 0.58864 0.63352 0.0
C2220 C 0.87507 0.57916 0.60336 0.0
C2221 C 0.89025 0.57589 0.60401 0.0
C2222 C 0.90237 0.58119 0.63414 0.0
C2223 C 0.91842 0.57734 0.62664 0.0
C2224 C 0.93766 0.59576 0.62764 0.0
C2225 C 0.91787 0.56271 0.65423 0.0
C2226 C 0.91358 0.56931 0.58755 0.0
C2227 C 0.89732 0.56864 0.57488 0.0
C2228 C 0.89079 0.56288 0.53866 0.0
C2229 C 0.90101 0.55745 0.51501 0.0
C2230 C 0.91749 0.55767 0.5277 0.0
C2231 C 0.92375 0.5637 0.56452 0.0
H2232 H 0.38614 0.291 0.62861 0.0
H2233 H 0.4291 0.3196 0.71289 0.0
H2234 H 0.44712 0.34625 0.66909 0.0
H2235 H 0.4169 0.30558 0.54786 0.0
H2236 H 0.40054 0.30864 0.51926 0.0
H2237 H 0.39184 0.29144 0.55622 0.0
H2238 H 0.37386 0.30709 0.58467 0.0
H2239 H 0.38226 0.32411 0.54752 0.0
H2240 H 0.38659 0.33203 0.59508 0.0
H2241 H 0.45935 0.37056 0.61658 0.0
H2242 H 0.46326 0.39135 0.56327 0.0
H2243 H 0.41225 0.34655 0.51363 0.0
C2244 C 0.39946 0.30275 0.63787 0.0
C2245 C 0.40633 0.3031 0.67418 0.0
C2246 C 0.42362 0.31896 0.68524 0.0
C2247 C 0.43396 0.33409 0.66043 0.0
C2248 C 0.4268 0.33317 0.62472 0.0
C2249 C 0.40982 0.31794 0.61367 0.0
C2250 C 0.40441 0.32082 0.5749 0.0
C2251 C 0.40337 0.30572 0.54798 0.0
C2252 C 0.38568 0.32103 0.5756 0.0
C2253 C 0.42096 0.34018 0.56567 0.0
C2254 C 0.43382 0.34701 0.59462 0.0
C2255 C 0.44954 0.36517 0.59357 0.0
C2256 C 0.45178 0.37682 0.56297 0.0
C2257 C 0.43851 0.3703 0.53358 0.0
C2258 C 0.42312 0.3516 0.5347 0.0
H2259 H 0.62999 0.03921 0.55235 0.0
H2260 H 0.64352 0.09301 0.50339 0.0
H2261 H 0.66601 0.10976 0.55492 0.0
H2262 H 0.63245 0.05196 0.64792 0.0
H2263 H 0.6435 0.03868 0.66252 0.0
H2264 H 0.6282 0.03115 0.62258 0.0
H2265 H 0.6549 0.03221 0.58186 0.0
H2266 H 0.6701 0.03931 0.62187 0.0
H2267 H 0.67761 0.05358 0.58038 0.0
H2268 H 0.68642 0.12035 0.61452 0.0
H2269 H 0.7067 0.1237 0.6687 0.0
H2270 H 0.68081 0.06278 0.67486 0.0
C2271 C 0.63775 0.05454 0.55239 0.0
C2272 C 0.63498 0.06486 0.52406 0.0
C2273 C 0.64553 0.08487 0.52478 0.0
C2274 C 0.65817 0.09446 0.55414 0.0
C2275 C 0.66026 0.08379 0.58217 0.0
C2276 C 0.65062 0.06425 0.58091 0.0
C2277 C 0.65612 0.05593 0.61281 0.0
C2278 C 0.63905 0.04371 0.63793 0.0
C2279 C 0.66523 0.0446 0.59836 0.0
C2280 C 0.67037 0.07381 0.63246 0.0
C2281 C 0.67236 0.08978 0.61496 0.0
C2282 C 0.68492 0.10791 0.62835 0.0
C2283 C 0.69621 0.1097 0.6594 0.0
C2284 C 0.69502 0.09348 0.67619 0.0
C2285 C 0.68171 0.07538 0.66288 0.0
H2286 H 0.73871 0.71386 0.71823 0.0
H2287 H 0.78288 0.76627 0.67101 0.0
H2288 H 0.77687 0.78434 0.71938 0.0
H2289 H 0.70693 0.73167 0.73816 0.0
H2290 H 0.69786 0.71774 0.77983 0.0
H2291 H 0.70634 0.70937 0.74234 0.0
H2292 H 0.72929 0.70646 0.78784 0.0
H2293 H 0.72113 0.71518 0.82531 0.0
H2294 H 0.74593 0.72689 0.81398 0.0
H2295 H 0.76677 0.79644 0.77607 0.0
H2296 H 0.74982 0.80172 0.82789 0.0
H2297 H 0.71059 0.74147 0.8337 0.0
C2298 C 0.74706 0.72916 0.718 0.0
C2299 C 0.76135 0.73871 0.69108 0.0
C2300 C 0.77182 0.75872 0.69132 0.0
C2301 C 0.76861 0.76906 0.71889 0.0
C2302 C 0.75461 0.75916 0.74554 0.0
C2303 C 0.74369 0.73966 0.74464 0.0
C2304 C 0.72872 0.73238 0.77478 0.0
C2305 C 0.70879 0.7222 0.75776 0.0
C2306 C 0.73144 0.71946 0.80209 0.0
C2307 C 0.73297 0.7508 0.79312 0.0
C2308 C 0.74818 0.7661 0.77642 0.0
C2309 C 0.75481 0.78454 0.78916 0.0
C2310 C 0.74525 0.78742 0.81883 0.0
C2311 C 0.72912 0.77198 0.83492 0.0
C2312 C 0.72307 0.75348 0.82209 0.0
H2313 H 0.27898 0.04592 0.747 0.0
H2314 H 0.24048 0.01911 0.65491 0.0
H2315 H 0.21989 0.99204 0.69577 0.0
H2316 H 0.27619 0.00485 0.78376 0.0
H2317 H 0.27745 0.01179 0.83167 0.0
H2318 H 0.2881 0.02956 0.79611 0.0
H2319 H 0.26837 0.0446 0.81808 0.0
H2320 H 0.2576 0.02679 0.85367 0.0
H2321 H 0.243 0.03022 0.82071 0.0
H2322 H 0.20562 0.96646 0.74482 0.0
H2323 H 0.19856 0.94465 0.79766 0.0
H2324 H 0.24516 0.98899 0.85936 0.0
C2325 C 0.26607 0.03449 0.73545 0.0
C2326 C 0.2613 0.03466 0.69766 0.0
C2327 C 0.24435 0.01936 0.68374 0.0
C2328 C 0.23259 0.00394 0.70679 0.0
C2329 C 0.23785 0.00417 0.74382 0.0
C2330 C 0.25414 0.01913 0.75811 0.0
C2331 C 0.25716 0.01557 0.79826 0.0
C2332 C 0.27583 0.01543 0.80269 0.0
C2333 C 0.25649 0.03017 0.82421 0.0
C2334 C 0.24021 0.99603 0.80427 0.0
C2335 C 0.22925 0.98972 0.77249 0.0
C2336 C 0.21388 0.97144 0.77002 0.0
C2337 C 0.20993 0.95916 0.80026 0.0
C2338 C 0.22109 0.96519 0.8329 0.0
C2339 C 0.2361 0.98407 0.83525 0.0
H2340 H 0.98083 0.24444 0.66672 0.0
H2341 H 0.93474 0.1963 0.72206 0.0
H2342 H 0.95503 0.20152 0.77653 0.0
H2343 H 0.02021 0.23923 0.70607 0.0
H2344 H 0.03531 0.26442 0.71133 0.0
H2345 H 0.01808 0.25521 0.67453 0.0
H2346 H 0.00398 0.27554 0.69809 0.0
H2347 H 0.02099 0.28462 0.73521 0.0
H2348 H -0.00391 0.27315 0.74556 0.0
H2349 H 0.97892 0.21408 0.82804 0.0
H2350 H 0.00561 0.23217 0.87125 0.0
H2351 H 0.03614 0.27243 0.78335 0.0
C2352 C 0.97529 0.23463 0.68974 0.0
C2353 C 0.95631 0.21974 0.68991 0.0
C2354 C 0.94934 0.20762 0.72119 0.0
C2355 C 0.96073 0.21051 0.75234 0.0
C2356 C 0.97913 0.22572 0.75207 0.0
C2357 C 0.98646 0.23751 0.72149 0.0
C2358 C 0.00617 0.25374 0.72974 0.0
C2359 C 0.02081 0.2531 0.70388 0.0
C2360 C 0.00684 0.27289 0.72699 0.0
C2361 C 0.00863 0.24927 0.76961 0.0
C2362 C 0.99288 0.23305 0.78199 0.0
C2363 C 0.99147 0.22666 0.81849 0.0
C2364 C 0.00665 0.23703 0.8429 0.0
C2365 C 0.02303 0.25358 0.83068 0.0
C2366 C 0.02393 0.25968 0.79348 0.0
H2367 H 0.29093 0.25983 0.22095 0.0
H2368 H 0.24089 0.21105 0.17726 0.0
H2369 H 0.22147 0.21505 0.22581 0.0
H2370 H 0.2789 0.25214 0.3176 0.0
H2371 H 0.28854 0.27691 0.32771 0.0
H2372 H 0.29827 0.26973 0.29041 0.0
H2373 H 0.2923 0.29046 0.24403 0.0
H2374 H 0.28292 0.29797 0.28133 0.0
H2375 H 0.26893 0.28739 0.24032 0.0
H2376 H 0.20777 0.22466 0.2819 0.0
H2377 H 0.20086 0.24142 0.33187 0.0
H2378 H 0.26002 0.28435 0.33521 0.0
C2379 C 0.27586 0.24994 0.22149 0.0
C2380 C 0.26743 0.23503 0.19541 0.0
C2381 C 0.24765 0.2226 0.19686 0.0
C2382 C 0.23656 0.2247 0.22457 0.0
C2383 C 0.24545 0.23941 0.25037 0.0
C2384 C 0.26466 0.25199 0.24847 0.0
C2385 C 0.27089 0.26725 0.2778 0.0
C2386 C 0.28498 0.26645 0.30498 0.0
C2387 C 0.27924 0.28692 0.25979 0.0
C2388 C 0.25222 0.26144 0.29666 0.0
C2389 C 0.23767 0.24517 0.28108 0.0
C2390 C 0.21912 0.23738 0.2942 0.0
C2391 C 0.21532 0.24683 0.32288 0.0
C2392 C 0.22996 0.26398 0.3377 0.0
C2393 C 0.24862 0.27109 0.32473 0.0
H2394 H 0.75599 0.04137 0.24238 0.0
H2395 H 0.75576 0.0107 0.14383 0.0
H2396 H 0.74551 0.98191 0.18203 0.0
H2397 H 0.77402 0.01972 0.30556 0.0
H2398 H 0.75962 0.01924 0.34395 0.0
H2399 H 0.76695 0.03734 0.30893 0.0
H2400 H 0.73198 0.0277 0.29716 0.0
H2401 H 0.72456 0.00961 0.3322 0.0
H2402 H 0.71515 0.00347 0.28585 0.0
H2403 H 0.73333 0.95599 0.23073 0.0
H2404 H 0.72151 0.93534 0.28603 0.0
H2405 H 0.73208 0.98359 0.3537 0.0
C2406 C 0.75384 0.02862 0.22878 0.0
C2407 C 0.75665 0.02827 0.19002 0.0
C2408 C 0.75374 0.01131 0.17342 0.0
C2409 C 0.7479 0.9949 0.19492 0.0
C2410 C 0.74524 0.99574 0.23306 0.0
C2411 C 0.74824 0.01222 0.24988 0.0
C2412 C 0.74436 0.00941 0.29133 0.0
C2413 C 0.76231 0.02219 0.31376 0.0
C2414 C 0.72805 0.01275 0.30226 0.0
C2415 C 0.73866 0.98874 0.29531 0.0
C2416 C 0.73908 0.98107 0.26129 0.0
C2417 C 0.73321 0.96193 0.25752 0.0
C2418 C 0.72652 0.95031 0.28911 0.0
C2419 C 0.72601 0.95785 0.32427 0.0
C2420 C 0.73252 0.97742 0.32739 0.0
H2421 H 0.02662 0.72658 0.32033 0.0
H2422 H 0.03336 0.78164 0.34367 0.0
H2423 H 0.00937 0.77612 0.29538 0.0
H2424 H 0.02019 0.72584 0.22311 0.0
H2425 H 0.00234 0.70118 0.22112 0.0
H2426 H 0.01986 0.70956 0.25734 0.0
H2427 H 0.99355 0.69609 0.30745 0.0
H2428 H 0.97595 0.68735 0.27138 0.0
H2429 H 0.97558 0.70274 0.30685 0.0
H2430 H 0.98595 0.76483 0.23944 0.0
H2431 H 0.96187 0.74701 0.19083 0.0
H2432 H 0.969 0.69856 0.20939 0.0
C2433 C 0.02289 0.7374 0.31555 0.0
C2434 C 0.03185 0.75457 0.33565 0.0
C2435 C 0.02654 0.76834 0.32879 0.0
C2436 C 0.01305 0.76536 0.30117 0.0
C2437 C 0.00475 0.74837 0.2812 0.0
C2438 C 0.00918 0.73445 0.2889 0.0
C2439 C -0.00218 0.7171 0.26497 0.0
C2440 C 0.01083 0.7132 0.24017 0.0
C2441 C 0.98496 0.6998 0.2891 0.0
C2442 C 0.98641 0.72341 0.24212 0.0
C2443 C 0.99077 0.7416 0.25124 0.0
C2444 C 0.98235 0.75052 0.23251 0.0
C2445 C 0.96882 0.74038 0.20468 0.0
C2446 C 0.96358 0.72143 0.1964 0.0
C2447 C 0.97269 0.71303 0.21523 0.0
loop_
_geom_bond_atom_site_label_1
_geom_bond_atom_site_label_2
_geom_bond_distance
_geom_bond_site_symmetry_2
_ccdc_geom_bond_type
Co0 O1 2.216 . S
Co0 O2 2.091 . S
Co0 O4 2.004 . S
Co0 O10 2.021 . S
Co0 O12 2.137 . S
Co0 O13 2.244 . S
O1 Co0 2.216 . S
O1 C8 1.247 . S
O2 Co0 2.091 . S
O2 C8 1.261 . S
C3 O12 1.247 . S
C3 O13 1.272 . S
O4 Co0 2.004 . S
O4 C9 1.259 . S
Co5 O6 2.061 . S
Co5 O11 2.052 . S
Co5 O13 2.135 . S
O6 Co5 2.061 . S
O6 C9 1.235 . S
C7 O10 1.238 . S
C7 O11 1.241 . S
C8 O1 1.247 . S
C8 O2 1.261 . S
C9 O4 1.259 . S
C9 O6 1.235 . S
O10 Co0 2.021 . S
O10 C7 1.238 . S
O11 Co5 2.052 . S
O11 C7 1.241 . S
O12 Co0 2.137 . S
O12 C3 1.247 . S
O13 Co0 2.244 . S
O13 C3 1.272 . S
O13 Co5 2.135 . S
Co14 O15 2.216 . S
Co14 O16 2.091 . S
Co14 O18 2.004 . S
Co14 O24 2.021 . S
Co14 O26 2.137 . S
Co14 O27 2.244 . S
O15 Co14 2.216 . S
O15 C22 1.247 . S
O16 Co14 2.091 . S
O16 C22 1.261 . S
C17 O26 1.247 . S
C17 O27 1.272 . S
O18 Co14 2.004 . S
O18 C23 1.259 . S
Co19 O20 2.061 . S
Co19 O25 2.052 . S
Co19 O27 2.135 . S
O20 Co19 2.061 . S
O20 C23 1.235 . S
C21 O24 1.238 . S
C21 O25 1.241 . S
C22 O15 1.247 . S
C22 O16 1.261 . S
C23 O18 1.259 . S
C23 O20 1.235 . S
O24 Co14 2.021 . S
O24 C21 1.238 . S
O25 Co19 2.052 . S
O25 C21 1.241 . S
O26 Co14 2.137 . S
O26 C17 1.247 . S
O27 Co14 2.244 . S
O27 C17 1.272 . S
O27 Co19 2.135 . S
Co28 O29 2.216 . S
Co28 O30 2.091 . S
Co28 O32 2.004 . S
Co28 O38 2.021 . S
Co28 O40 2.137 . S
Co28 O41 2.244 . S
O29 Co28 2.216 . S
O29 C36 1.247 . S
O30 Co28 2.091 . S
O30 C36 1.261 . S
C31 O40 1.247 . S
C31 O41 1.272 . S
O32 Co28 2.004 . S
O32 C37 1.259 . S
Co33 O34 2.061 . S
Co33 O39 2.052 . S
Co33 O41 2.135 . S
O34 Co33 2.061 . S
O34 C37 1.235 . S
C35 O38 1.238 . S
C35 O39 1.241 . S
C36 O29 1.247 . S
C36 O30 1.261 . S
C37 O32 1.259 . S
C37 O34 1.235 . S
O38 Co28 2.021 . S
O38 C35 1.238 . S
O39 Co33 2.052 . S
O39 C35 1.241 . S
O40 Co28 2.137 . S
O40 C31 1.247 . S
O41 Co28 2.244 . S
O41 C31 1.272 . S
O41 Co33 2.135 . S
Co42 O43 2.216 . S
Co42 O44 2.091 . S
Co42 O46 2.004 . S
Co42 O52 2.021 . S
Co42 O54 2.137 . S
Co42 O55 2.244 . S
O43 Co42 2.216 . S
O43 C50 1.247 . S
O44 Co42 2.091 . S
O44 C50 1.261 . S
C45 O54 1.247 . S
C45 O55 1.272 . S
O46 Co42 2.004 . S
O46 C51 1.259 . S
Co47 O48 2.061 . S
Co47 O53 2.052 . S
Co47 O55 2.135 . S
O48 Co47 2.061 . S
O48 C51 1.235 . S
C49 O52 1.238 . S
C49 O53 1.241 . S
C50 O43 1.247 . S
C50 O44 1.261 . S
C51 O46 1.259 . S
C51 O48 1.235 . S
O52 Co42 2.021 . S
O52 C49 1.238 . S
O53 Co47 2.052 . S
O53 C49 1.241 . S
O54 Co42 2.137 . S
O54 C45 1.247 . S
O55 Co42 2.244 . S
O55 C45 1.272 . S
O55 Co47 2.135 . S
Co56 O57 2.216 . S
Co56 O58 2.091 . S
Co56 O60 2.004 . S
Co56 O66 2.021 . S
Co56 O68 2.137 . S
Co56 O69 2.244 . S
O57 Co56 2.216 . S
O57 C64 1.247 . S
O58 Co56 2.091 . S
O58 C64 1.261 . S
C59 O68 1.247 . S
C59 O69 1.272 . S
O60 Co56 2.004 . S
O60 C65 1.259 . S
Co61 O62 2.061 . S
Co61 O67 2.052 . S
Co61 O69 2.135 . S
O62 Co61 2.061 . S
O62 C65 1.235 . S
C63 O66 1.238 . S
C63 O67 1.241 . S
C64 O57 1.247 . S
C64 O58 1.261 . S
C65 O60 1.259 . S
C65 O62 1.235 . S
O66 Co56 2.021 . S
O66 C63 1.238 . S
O67 Co61 2.052 . S
O67 C63 1.241 . S
O68 Co56 2.137 . S
O68 C59 1.247 . S
O69 Co56 2.244 . S
O69 C59 1.272 . S
O69 Co61 2.135 . S
Co70 O71 2.216 . S
Co70 O72 2.091 . S
Co70 O74 2.004 . S
Co70 O80 2.021 . S
Co70 O82 2.137 . S
Co70 O83 2.244 . S
O71 Co70 2.216 . S
O71 C78 1.247 . S
O72 Co70 2.091 . S
O72 C78 1.261 . S
C73 O82 1.247 . S
C73 O83 1.272 . S
O74 Co70 2.004 . S
O74 C79 1.259 . S
Co75 O76 2.061 . S
Co75 O81 2.052 . S
Co75 O83 2.135 . S
O76 Co75 2.061 . S
O76 C79 1.235 . S
C77 O80 1.238 . S
C77 O81 1.241 . S
C78 O71 1.247 . S
C78 O72 1.261 . S
C79 O74 1.259 . S
C79 O76 1.235 . S
O80 Co70 2.021 . S
O80 C77 1.238 . S
O81 Co75 2.052 . S
O81 C77 1.241 . S
O82 Co70 2.137 . S
O82 C73 1.247 . S
O83 Co70 2.244 . S
O83 C73 1.272 . S
O83 Co75 2.135 . S
Co84 O85 2.216 . S
Co84 O86 2.091 . S
Co84 O88 2.004 . S
Co84 O94 2.021 . S
Co84 O96 2.137 . S
Co84 O97 2.244 . S
O85 Co84 2.216 . S
O85 C92 1.247 . S
O86 Co84 2.091 . S
O86 C92 1.261 . S
C87 O96 1.247 . S
C87 O97 1.272 . S
O88 Co84 2.004 . S
O88 C93 1.259 . S
Co89 O90 2.061 . S
Co89 O95 2.052 . S
Co89 O97 2.135 . S
O90 Co89 2.061 . S
O90 C93 1.235 . S
C91 O94 1.238 . S
C91 O95 1.241 . S
C92 O85 1.247 . S
C92 O86 1.261 . S
C93 O88 1.259 . S
C93 O90 1.235 . S
O94 Co84 2.021 . S
O94 C91 1.238 . S
O95 Co89 2.052 . S
O95 C91 1.241 . S
O96 Co84 2.137 . S
O96 C87 1.247 . S
O97 Co84 2.244 . S
O97 C87 1.272 . S
O97 Co89 2.135 . S
Co98 O99 2.216 . S
Co98 O100 2.091 . S
Co98 O102 2.004 . S
Co98 O108 2.021 . S
Co98 O110 2.137 . S
Co98 O111 2.244 . S
O99 Co98 2.216 . S
O99 C106 1.247 . S
O100 Co98 2.091 . S
O100 C106 1.261 . S
C101 O110 1.247 . S
C101 O111 1.272 . S
O102 Co98 2.004 . S
O102 C107 1.259 . S
Co103 O104 2.061 . S
Co103 O109 2.052 . S
Co103 O111 2.135 . S
O104 Co103 2.061 . S
O104 C107 1.235 . S
C105 O108 1.238 . S
C105 O109 1.241 . S
C106 O99 1.247 . S
C106 O100 1.261 . S
C107 O102 1.259 . S
C107 O104 1.235 . S
O108 Co98 2.021 . S
O108 C105 1.238 . S
O109 Co103 2.052 . S
O109 C105 1.241 . S
O110 Co98 2.137 . S
O110 C101 1.247 . S
O111 Co98 2.244 . S
O111 C101 1.272 . S
O111 Co103 2.135 . S
Co112 O113 2.216 . S
Co112 O114 2.091 . S
Co112 O116 2.004 . S
Co112 O122 2.021 . S
Co112 O124 2.137 . S
Co112 O125 2.244 . S
O113 Co112 2.216 . S
O113 C120 1.247 . S
O114 Co112 2.091 . S
O114 C120 1.261 . S
C115 O124 1.247 . S
C115 O125 1.272 . S
O116 Co112 2.004 . S
O116 C121 1.259 . S
Co117 O118 2.061 . S
Co117 O123 2.052 . S
Co117 O125 2.135 . S
O118 Co117 2.061 . S
O118 C121 1.235 . S
C119 O122 1.238 . S
C119 O123 1.241 . S
C120 O113 1.247 . S
C120 O114 1.261 . S
C121 O116 1.259 . S
C121 O118 1.235 . S
O122 Co112 2.021 . S
O122 C119 1.238 . S
O123 Co117 2.052 . S
O123 C119 1.241 . S
O124 Co112 2.137 . S
O124 C115 1.247 . S
O125 Co112 2.244 . S
O125 C115 1.272 . S
O125 Co117 2.135 . S
Co126 O127 2.216 . S
Co126 O128 2.091 . S
Co126 O130 2.004 . S
Co126 O136 2.021 . S
Co126 O138 2.137 . S
Co126 O139 2.244 . S
O127 Co126 2.216 . S
O127 C134 1.247 . S
O128 Co126 2.091 . S
O128 C134 1.261 . S
C129 O138 1.247 . S
C129 O139 1.272 . S
O130 Co126 2.004 . S
O130 C135 1.259 . S
Co131 O132 2.061 . S
Co131 O137 2.052 . S
Co131 O139 2.135 . S
O132 Co131 2.061 . S
O132 C135 1.235 . S
C133 O136 1.238 . S
C133 O137 1.241 . S
C134 O127 1.247 . S
C134 O128 1.261 . S
C135 O130 1.259 . S
C135 O132 1.235 . S
O136 Co126 2.021 . S
O136 C133 1.238 . S
O137 Co131 2.052 . S
O137 C133 1.241 . S
O138 Co126 2.137 . S
O138 C129 1.247 . S
O139 Co126 2.244 . S
O139 C129 1.272 . S
O139 Co131 2.135 . S
Co140 O141 2.216 . S
Co140 O142 2.091 . S
Co140 O144 2.004 . S
Co140 O150 2.021 . S
Co140 O152 2.137 . S
Co140 O153 2.244 . S
O141 Co140 2.216 . S
O141 C148 1.247 . S
O142 Co140 2.091 . S
O142 C148 1.261 . S
C143 O152 1.247 . S
C143 O153 1.272 . S
O144 Co140 2.004 . S
O144 C149 1.259 . S
Co145 O146 2.061 . S
Co145 O151 2.052 . S
Co145 O153 2.135 . S
O146 Co145 2.061 . S
O146 C149 1.235 . S
C147 O150 1.238 . S
C147 O151 1.241 . S
C148 O141 1.247 . S
C148 O142 1.261 . S
C149 O144 1.259 . S
C149 O146 1.235 . S
O150 Co140 2.021 . S
O150 C147 1.238 . S
O151 Co145 2.052 . S
O151 C147 1.241 . S
O152 Co140 2.137 . S
O152 C143 1.247 . S
O153 Co140 2.244 . S
O153 C143 1.272 . S
O153 Co145 2.135 . S
Co154 O155 2.216 . S
Co154 O156 2.091 . S
Co154 O158 2.004 . S
Co154 O164 2.021 . S
Co154 O166 2.137 . S
Co154 O167 2.244 . S
O155 Co154 2.216 . S
O155 C162 1.247 . S
O156 Co154 2.091 . S
O156 C162 1.261 . S
C157 O166 1.247 . S
C157 O167 1.272 . S
O158 Co154 2.004 . S
O158 C163 1.259 . S
Co159 O160 2.061 . S
Co159 O165 2.052 . S
Co159 O167 2.135 . S
O160 Co159 2.061 . S
O160 C163 1.235 . S
C161 O164 1.238 . S
C161 O165 1.241 . S
C162 O155 1.247 . S
C162 O156 1.261 . S
C163 O158 1.259 . S
C163 O160 1.235 . S
O164 Co154 2.021 . S
O164 C161 1.238 . S
O165 Co159 2.052 . S
O165 C161 1.241 . S
O166 Co154 2.137 . S
O166 C157 1.247 . S
O167 Co154 2.244 . S
O167 C157 1.272 . S
O167 Co159 2.135 . S
Co168 O169 2.216 . S
Co168 O170 2.091 . S
Co168 O172 2.004 . S
Co168 O178 2.021 . S
Co168 O180 2.137 . S
Co168 O181 2.244 . S
O169 Co168 2.216 . S
O169 C176 1.247 . S
O170 Co168 2.091 . S
O170 C176 1.261 . S
C171 O180 1.247 . S
C171 O181 1.272 . S
O172 Co168 2.004 . S
O172 C177 1.259 . S
Co173 O174 2.061 . S
Co173 O179 2.052 . S
Co173 O181 2.135 . S
O174 Co173 2.061 . S
O174 C177 1.235 . S
C175 O178 1.238 . S
C175 O179 1.241 . S
C176 O169 1.247 . S
C176 O170 1.261 . S
C177 O172 1.259 . S
C177 O174 1.235 . S
O178 Co168 2.021 . S
O178 C175 1.238 . S
O179 Co173 2.052 . S
O179 C175 1.241 . S
O180 Co168 2.137 . S
O180 C171 1.247 . S
O181 Co168 2.244 . S
O181 C171 1.272 . S
O181 Co173 2.135 . S
Co182 O183 2.216 . S
Co182 O184 2.091 . S
Co182 O186 2.004 . S
Co182 O192 2.021 . S
Co182 O194 2.137 . S
Co182 O195 2.244 . S
O183 Co182 2.216 . S
O183 C190 1.247 . S
O184 Co182 2.091 . S
O184 C190 1.261 . S
C185 O194 1.247 . S
C185 O195 1.272 . S
O186 Co182 2.004 . S
O186 C191 1.259 . S
Co187 O188 2.061 . S
Co187 O193 2.052 . S
Co187 O195 2.135 . S
O188 Co187 2.061 . S
O188 C191 1.235 . S
C189 O192 1.238 . S
C189 O193 1.241 . S
C190 O183 1.247 . S
C190 O184 1.261 . S
C191 O186 1.259 . S
C191 O188 1.235 . S
O192 Co182 2.021 . S
O192 C189 1.238 . S
O193 Co187 2.052 . S
O193 C189 1.241 . S
O194 Co182 2.137 . S
O194 C185 1.247 . S
O195 Co182 2.244 . S
O195 C185 1.272 . S
O195 Co187 2.135 . S
Co196 O197 2.216 . S
Co196 O198 2.091 . S
Co196 O200 2.004 . S
Co196 O206 2.021 . S
Co196 O208 2.137 . S
Co196 O209 2.244 . S
O197 Co196 2.216 . S
O197 C204 1.247 . S
O198 Co196 2.091 . S
O198 C204 1.261 . S
C199 O208 1.247 . S
C199 O209 1.272 . S
O200 Co196 2.004 . S
O200 C205 1.259 . S
Co201 O202 2.061 . S
Co201 O207 2.052 . S
Co201 O209 2.135 . S
O202 Co201 2.061 . S
O202 C205 1.235 . S
C203 O206 1.238 . S
C203 O207 1.241 . S
C204 O197 1.247 . S
C204 O198 1.261 . S
C205 O200 1.259 . S
C205 O202 1.235 . S
O206 Co196 2.021 . S
O206 C203 1.238 . S
O207 Co201 2.052 . S
O207 C203 1.241 . S
O208 Co196 2.137 . S
O208 C199 1.247 . S
O209 Co196 2.244 . S
O209 C199 1.272 . S
O209 Co201 2.135 . S
Co210 O211 2.216 . S
Co210 O212 2.091 . S
Co210 O214 2.004 . S
Co210 O220 2.021 . S
Co210 O222 2.137 . S
Co210 O223 2.244 . S
O211 Co210 2.216 . S
O211 C218 1.247 . S
O212 Co210 2.091 . S
O212 C218 1.261 . S
C213 O222 1.247 . S
C213 O223 1.272 . S
O214 Co210 2.004 . S
O214 C219 1.259 . S
Co215 O216 2.061 . S
Co215 O221 2.052 . S
Co215 O223 2.135 . S
O216 Co215 2.061 . S
O216 C219 1.235 . S
C217 O220 1.238 . S
C217 O221 1.241 . S
C218 O211 1.247 . S
C218 O212 1.261 . S
C219 O214 1.259 . S
C219 O216 1.235 . S
O220 Co210 2.021 . S
O220 C217 1.238 . S
O221 Co215 2.052 . S
O221 C217 1.241 . S
O222 Co210 2.137 . S
O222 C213 1.247 . S
O223 Co210 2.244 . S
O223 C213 1.272 . S
O223 Co215 2.135 . S
Co224 O225 2.216 . S
Co224 O226 2.091 . S
Co224 O228 2.004 . S
Co224 O234 2.021 . S
Co224 O236 2.137 . S
Co224 O237 2.244 . S
O225 Co224 2.216 . S
O225 C232 1.247 . S
O226 Co224 2.091 . S
O226 C232 1.261 . S
C227 O236 1.247 . S
C227 O237 1.272 . S
O228 Co224 2.004 . S
O228 C233 1.259 . S
Co229 O230 2.061 . S
Co229 O235 2.052 . S
Co229 O237 2.135 . S
O230 Co229 2.061 . S
O230 C233 1.235 . S
C231 O234 1.238 . S
C231 O235 1.241 . S
C232 O225 1.247 . S
C232 O226 1.261 . S
C233 O228 1.259 . S
C233 O230 1.235 . S
O234 Co224 2.021 . S
O234 C231 1.238 . S
O235 Co229 2.052 . S
O235 C231 1.241 . S
O236 Co224 2.137 . S
O236 C227 1.247 . S
O237 Co224 2.244 . S
O237 C227 1.272 . S
O237 Co229 2.135 . S
Co238 O239 2.216 . S
Co238 O240 2.091 . S
Co238 O242 2.004 . S
Co238 O248 2.021 . S
Co238 O250 2.137 . S
Co238 O251 2.244 . S
O239 Co238 2.216 . S
O239 C246 1.247 . S
O240 Co238 2.091 . S
O240 C246 1.261 . S
C241 O250 1.247 . S
C241 O251 1.272 . S
O242 Co238 2.004 . S
O242 C247 1.259 . S
Co243 O244 2.061 . S
Co243 O249 2.052 . S
Co243 O251 2.135 . S
O244 Co243 2.061 . S
O244 C247 1.235 . S
C245 O248 1.238 . S
C245 O249 1.241 . S
C246 O239 1.247 . S
C246 O240 1.261 . S
C247 O242 1.259 . S
C247 O244 1.235 . S
O248 Co238 2.021 . S
O248 C245 1.238 . S
O249 Co243 2.052 . S
O249 C245 1.241 . S
O250 Co238 2.137 . S
O250 C241 1.247 . S
O251 Co238 2.244 . S
O251 C241 1.272 . S
O251 Co243 2.135 . S
Co252 O253 2.216 . S
Co252 O254 2.091 . S
Co252 O256 2.004 . S
Co252 O262 2.021 . S
Co252 O264 2.137 . S
Co252 O265 2.244 . S
O253 Co252 2.216 . S
O253 C260 1.247 . S
O254 Co252 2.091 . S
O254 C260 1.261 . S
C255 O264 1.247 . S
C255 O265 1.272 . S
O256 Co252 2.004 . S
O256 C261 1.259 . S
Co257 O258 2.061 . S
Co257 O263 2.052 . S
Co257 O265 2.135 . S
O258 Co257 2.061 . S
O258 C261 1.235 . S
C259 O262 1.238 . S
C259 O263 1.241 . S
C260 O253 1.247 . S
C260 O254 1.261 . S
C261 O256 1.259 . S
C261 O258 1.235 . S
O262 Co252 2.021 . S
O262 C259 1.238 . S
O263 Co257 2.052 . S
O263 C259 1.241 . S
O264 Co252 2.137 . S
O264 C255 1.247 . S
O265 Co252 2.244 . S
O265 C255 1.272 . S
O265 Co257 2.135 . S
Co266 O267 2.216 . S
Co266 O268 2.091 . S
Co266 O270 2.004 . S
Co266 O276 2.021 . S
Co266 O278 2.137 . S
Co266 O279 2.244 . S
O267 Co266 2.216 . S
O267 C274 1.247 . S
O268 Co266 2.091 . S
O268 C274 1.261 . S
C269 O278 1.247 . S
C269 O279 1.272 . S
O270 Co266 2.004 . S
O270 C275 1.259 . S
Co271 O272 2.061 . S
Co271 O277 2.052 . S
Co271 O279 2.135 . S
O272 Co271 2.061 . S
O272 C275 1.235 . S
C273 O276 1.238 . S
C273 O277 1.241 . S
C274 O267 1.247 . S
C274 O268 1.261 . S
C275 O270 1.259 . S
C275 O272 1.235 . S
O276 Co266 2.021 . S
O276 C273 1.238 . S
O277 Co271 2.052 . S
O277 C273 1.241 . S
O278 Co266 2.137 . S
O278 C269 1.247 . S
O279 Co266 2.244 . S
O279 C269 1.272 . S
O279 Co271 2.135 . S
Co280 O281 2.216 . S
Co280 O282 2.091 . S
Co280 O284 2.004 . S
Co280 O290 2.021 . S
Co280 O292 2.137 . S
Co280 O293 2.244 . S
O281 Co280 2.216 . S
O281 C288 1.247 . S
O282 Co280 2.091 . S
O282 C288 1.261 . S
C283 O292 1.247 . S
C283 O293 1.272 . S
O284 Co280 2.004 . S
O284 C289 1.259 . S
Co285 O286 2.061 . S
Co285 O291 2.052 . S
Co285 O293 2.135 . S
O286 Co285 2.061 . S
O286 C289 1.235 . S
C287 O290 1.238 . S
C287 O291 1.241 . S
C288 O281 1.247 . S
C288 O282 1.261 . S
C289 O284 1.259 . S
C289 O286 1.235 . S
O290 Co280 2.021 . S
O290 C287 1.238 . S
O291 Co285 2.052 . S
O291 C287 1.241 . S
O292 Co280 2.137 . S
O292 C283 1.247 . S
O293 Co280 2.244 . S
O293 C283 1.272 . S
O293 Co285 2.135 . S
Co294 O295 2.216 . S
Co294 O296 2.091 . S
Co294 O298 2.004 . S
Co294 O304 2.021 . S
Co294 O306 2.137 . S
Co294 O307 2.244 . S
O295 Co294 2.216 . S
O295 C302 1.247 . S
O296 Co294 2.091 . S
O296 C302 1.261 . S
C297 O306 1.247 . S
C297 O307 1.272 . S
O298 Co294 2.004 . S
O298 C303 1.259 . S
Co299 O300 2.061 . S
Co299 O305 2.052 . S
Co299 O307 2.135 . S
O300 Co299 2.061 . S
O300 C303 1.235 . S
C301 O304 1.238 . S
C301 O305 1.241 . S
C302 O295 1.247 . S
C302 O296 1.261 . S
C303 O298 1.259 . S
C303 O300 1.235 . S
O304 Co294 2.021 . S
O304 C301 1.238 . S
O305 Co299 2.052 . S
O305 C301 1.241 . S
O306 Co294 2.137 . S
O306 C297 1.247 . S
O307 Co294 2.244 . S
O307 C297 1.272 . S
O307 Co299 2.135 . S
Co308 O309 2.216 . S
Co308 O310 2.091 . S
Co308 O312 2.004 . S
Co308 O318 2.021 . S
Co308 O320 2.137 . S
Co308 O321 2.244 . S
O309 Co308 2.216 . S
O309 C316 1.247 . S
O310 Co308 2.091 . S
O310 C316 1.261 . S
C311 O320 1.247 . S
C311 O321 1.272 . S
O312 Co308 2.004 . S
O312 C317 1.259 . S
Co313 O314 2.061 . S
Co313 O319 2.052 . S
Co313 O321 2.135 . S
O314 Co313 2.061 . S
O314 C317 1.235 . S
C315 O318 1.238 . S
C315 O319 1.241 . S
C316 O309 1.247 . S
C316 O310 1.261 . S
C317 O312 1.259 . S
C317 O314 1.235 . S
O318 Co308 2.021 . S
O318 C315 1.238 . S
O319 Co313 2.052 . S
O319 C315 1.241 . S
O320 Co308 2.137 . S
O320 C311 1.247 . S
O321 Co308 2.244 . S
O321 C311 1.272 . S
O321 Co313 2.135 . S
Co322 O323 2.216 . S
Co322 O324 2.091 . S
Co322 O326 2.004 . S
Co322 O332 2.021 . S
Co322 O334 2.137 . S
Co322 O335 2.244 . S
O323 Co322 2.216 . S
O323 C330 1.247 . S
O324 Co322 2.091 . S
O324 C330 1.261 . S
C325 O334 1.247 . S
C325 O335 1.272 . S
O326 Co322 2.004 . S
O326 C331 1.259 . S
Co327 O328 2.061 . S
Co327 O333 2.052 . S
Co327 O335 2.135 . S
O328 Co327 2.061 . S
O328 C331 1.235 . S
C329 O332 1.238 . S
C329 O333 1.241 . S
C330 O323 1.247 . S
C330 O324 1.261 . S
C331 O326 1.259 . S
C331 O328 1.235 . S
O332 Co322 2.021 . S
O332 C329 1.238 . S
O333 Co327 2.052 . S
O333 C329 1.241 . S
O334 Co322 2.137 . S
O334 C325 1.247 . S
O335 Co322 2.244 . S
O335 C325 1.272 . S
O335 Co327 2.135 . S
Co336 O337 2.216 . S
Co336 O338 2.091 . S
Co336 O340 2.004 . S
Co336 O346 2.021 . S
Co336 O348 2.137 . S
Co336 O349 2.244 . S
O337 Co336 2.216 . S
O337 C344 1.247 . S
O338 Co336 2.091 . S
O338 C344 1.261 . S
C339 O348 1.247 . S
C339 O349 1.272 . S
O340 Co336 2.004 . S
O340 C345 1.259 . S
Co341 O342 2.061 . S
Co341 O347 2.052 . S
Co341 O349 2.135 . S
O342 Co341 2.061 . S
O342 C345 1.235 . S
C343 O346 1.238 . S
C343 O347 1.241 . S
C344 O337 1.247 . S
C344 O338 1.261 . S
C345 O340 1.259 . S
C345 O342 1.235 . S
O346 Co336 2.021 . S
O346 C343 1.238 . S
O347 Co341 2.052 . S
O347 C343 1.241 . S
O348 Co336 2.137 . S
O348 C339 1.247 . S
O349 Co336 2.244 . S
O349 C339 1.272 . S
O349 Co341 2.135 . S
Co350 O351 2.216 . S
Co350 O352 2.091 . S
Co350 O354 2.004 . S
Co350 O360 2.021 . S
Co350 O362 2.137 . S
Co350 O363 2.244 . S
O351 Co350 2.216 . S
O351 C358 1.247 . S
O352 Co350 2.091 . S
O352 C358 1.261 . S
C353 O362 1.247 . S
C353 O363 1.272 . S
O354 Co350 2.004 . S
O354 C359 1.259 . S
Co355 O356 2.061 . S
Co355 O361 2.052 . S
Co355 O363 2.135 . S
O356 Co355 2.061 . S
O356 C359 1.235 . S
C357 O360 1.238 . S
C357 O361 1.241 . S
C358 O351 1.247 . S
C358 O352 1.261 . S
C359 O354 1.259 . S
C359 O356 1.235 . S
O360 Co350 2.021 . S
O360 C357 1.238 . S
O361 Co355 2.052 . S
O361 C357 1.241 . S
O362 Co350 2.137 . S
O362 C353 1.247 . S
O363 Co350 2.244 . S
O363 C353 1.272 . S
O363 Co355 2.135 . S
Co364 O365 2.216 . S
Co364 O366 2.091 . S
Co364 O368 2.004 . S
Co364 O374 2.021 . S
Co364 O376 2.137 . S
Co364 O377 2.244 . S
O365 Co364 2.216 . S
O365 C372 1.247 . S
O366 Co364 2.091 . S
O366 C372 1.261 . S
C367 O376 1.247 . S
C367 O377 1.272 . S
O368 Co364 2.004 . S
O368 C373 1.259 . S
Co369 O370 2.061 . S
Co369 O375 2.052 . S
Co369 O377 2.135 . S
O370 Co369 2.061 . S
O370 C373 1.235 . S
C371 O374 1.238 . S
C371 O375 1.241 . S
C372 O365 1.247 . S
C372 O366 1.261 . S
C373 O368 1.259 . S
C373 O370 1.235 . S
O374 Co364 2.021 . S
O374 C371 1.238 . S
O375 Co369 2.052 . S
O375 C371 1.241 . S
O376 Co364 2.137 . S
O376 C367 1.247 . S
O377 Co364 2.244 . S
O377 C367 1.272 . S
O377 Co369 2.135 . S
Co378 O379 2.216 . S
Co378 O380 2.091 . S
Co378 O382 2.004 . S
Co378 O388 2.021 . S
Co378 O390 2.137 . S
Co378 O391 2.244 . S
O379 Co378 2.216 . S
O379 C386 1.247 . S
O380 Co378 2.091 . S
O380 C386 1.261 . S
C381 O390 1.247 . S
C381 O391 1.272 . S
O382 Co378 2.004 . S
O382 C387 1.259 . S
Co383 O384 2.061 . S
Co383 O389 2.052 . S
Co383 O391 2.135 . S
O384 Co383 2.061 . S
O384 C387 1.235 . S
C385 O388 1.238 . S
C385 O389 1.241 . S
C386 O379 1.247 . S
C386 O380 1.261 . S
C387 O382 1.259 . S
C387 O384 1.235 . S
O388 Co378 2.021 . S
O388 C385 1.238 . S
O389 Co383 2.052 . S
O389 C385 1.241 . S
O390 Co378 2.137 . S
O390 C381 1.247 . S
O391 Co378 2.244 . S
O391 C381 1.272 . S
O391 Co383 2.135 . S
Co392 O393 2.216 . S
Co392 O394 2.091 . S
Co392 O396 2.004 . S
Co392 O402 2.021 . S
Co392 O404 2.137 . S
Co392 O405 2.244 . S
O393 Co392 2.216 . S
O393 C400 1.247 . S
O394 Co392 2.091 . S
O394 C400 1.261 . S
C395 O404 1.247 . S
C395 O405 1.272 . S
O396 Co392 2.004 . S
O396 C401 1.259 . S
Co397 O398 2.061 . S
Co397 O403 2.052 . S
Co397 O405 2.135 . S
O398 Co397 2.061 . S
O398 C401 1.235 . S
C399 O402 1.238 . S
C399 O403 1.241 . S
C400 O393 1.247 . S
C400 O394 1.261 . S
C401 O396 1.259 . S
C401 O398 1.235 . S
O402 Co392 2.021 . S
O402 C399 1.238 . S
O403 Co397 2.052 . S
O403 C399 1.241 . S
O404 Co392 2.137 . S
O404 C395 1.247 . S
O405 Co392 2.244 . S
O405 C395 1.272 . S
O405 Co397 2.135 . S
Co406 O407 2.216 . S
Co406 O408 2.091 . S
Co406 O410 2.004 . S
Co406 O416 2.021 . S
Co406 O418 2.137 . S
Co406 O419 2.244 . S
O407 Co406 2.216 . S
O407 C414 1.247 . S
O408 Co406 2.091 . S
O408 C414 1.261 . S
C409 O418 1.247 . S
C409 O419 1.272 . S
O410 Co406 2.004 . S
O410 C415 1.259 . S
Co411 O412 2.061 . S
Co411 O417 2.052 . S
Co411 O419 2.135 . S
O412 Co411 2.061 . S
O412 C415 1.235 . S
C413 O416 1.238 . S
C413 O417 1.241 . S
C414 O407 1.247 . S
C414 O408 1.261 . S
C415 O410 1.259 . S
C415 O412 1.235 . S
O416 Co406 2.021 . S
O416 C413 1.238 . S
O417 Co411 2.052 . S
O417 C413 1.241 . S
O418 Co406 2.137 . S
O418 C409 1.247 . S
O419 Co406 2.244 . S
O419 C409 1.272 . S
O419 Co411 2.135 . S
Co420 O421 2.216 . S
Co420 O422 2.091 . S
Co420 O424 2.004 . S
Co420 O430 2.021 . S
Co420 O432 2.137 . S
Co420 O433 2.244 . S
O421 Co420 2.216 . S
O421 C428 1.247 . S
O422 Co420 2.091 . S
O422 C428 1.261 . S
C423 O432 1.247 . S
C423 O433 1.272 . S
O424 Co420 2.004 . S
O424 C429 1.259 . S
Co425 O426 2.061 . S
Co425 O431 2.052 . S
Co425 O433 2.135 . S
O426 Co425 2.061 . S
O426 C429 1.235 . S
C427 O430 1.238 . S
C427 O431 1.241 . S
C428 O421 1.247 . S
C428 O422 1.261 . S
C429 O424 1.259 . S
C429 O426 1.235 . S
O430 Co420 2.021 . S
O430 C427 1.238 . S
O431 Co425 2.052 . S
O431 C427 1.241 . S
O432 Co420 2.137 . S
O432 C423 1.247 . S
O433 Co420 2.244 . S
O433 C423 1.272 . S
O433 Co425 2.135 . S
Co434 O435 2.216 . S
Co434 O436 2.091 . S
Co434 O438 2.004 . S
Co434 O444 2.021 . S
Co434 O446 2.137 . S
Co434 O447 2.244 . S
O435 Co434 2.216 . S
O435 C442 1.247 . S
O436 Co434 2.091 . S
O436 C442 1.261 . S
C437 O446 1.247 . S
C437 O447 1.272 . S
O438 Co434 2.004 . S
O438 C443 1.259 . S
Co439 O440 2.061 . S
Co439 O445 2.052 . S
Co439 O447 2.135 . S
O440 Co439 2.061 . S
O440 C443 1.235 . S
C441 O444 1.238 . S
C441 O445 1.241 . S
C442 O435 1.247 . S
C442 O436 1.261 . S
C443 O438 1.259 . S
C443 O440 1.235 . S
O444 Co434 2.021 . S
O444 C441 1.238 . S
O445 Co439 2.052 . S
O445 C441 1.241 . S
O446 Co434 2.137 . S
O446 C437 1.247 . S
O447 Co434 2.244 . S
O447 C437 1.272 . S
O447 Co439 2.135 . S
Co448 O449 2.216 . S
Co448 O450 2.091 . S
Co448 O452 2.004 . S
Co448 O458 2.021 . S
Co448 O460 2.137 . S
Co448 O461 2.244 . S
O449 Co448 2.216 . S
O449 C456 1.247 . S
O450 Co448 2.091 . S
O450 C456 1.261 . S
C451 O460 1.247 . S
C451 O461 1.272 . S
O452 Co448 2.004 . S
O452 C457 1.259 . S
Co453 O454 2.061 . S
Co453 O459 2.052 . S
Co453 O461 2.135 . S
O454 Co453 2.061 . S
O454 C457 1.235 . S
C455 O458 1.238 . S
C455 O459 1.241 . S
C456 O449 1.247 . S
C456 O450 1.261 . S
C457 O452 1.259 . S
C457 O454 1.235 . S
O458 Co448 2.021 . S
O458 C455 1.238 . S
O459 Co453 2.052 . S
O459 C455 1.241 . S
O460 Co448 2.137 . S
O460 C451 1.247 . S
O461 Co448 2.244 . S
O461 C451 1.272 . S
O461 Co453 2.135 . S
Co462 O463 2.216 . S
Co462 O464 2.091 . S
Co462 O466 2.004 . S
Co462 O472 2.021 . S
Co462 O474 2.137 . S
Co462 O475 2.244 . S
O463 Co462 2.216 . S
O463 C470 1.247 . S
O464 Co462 2.091 . S
O464 C470 1.261 . S
C465 O474 1.247 . S
C465 O475 1.272 . S
O466 Co462 2.004 . S
O466 C471 1.259 . S
Co467 O468 2.061 . S
Co467 O473 2.052 . S
Co467 O475 2.135 . S
O468 Co467 2.061 . S
O468 C471 1.235 . S
C469 O472 1.238 . S
C469 O473 1.241 . S
C470 O463 1.247 . S
C470 O464 1.261 . S
C471 O466 1.259 . S
C471 O468 1.235 . S
O472 Co462 2.021 . S
O472 C469 1.238 . S
O473 Co467 2.052 . S
O473 C469 1.241 . S
O474 Co462 2.137 . S
O474 C465 1.247 . S
O475 Co462 2.244 . S
O475 C465 1.272 . S
O475 Co467 2.135 . S
Co476 O477 2.216 . S
Co476 O478 2.091 . S
Co476 O480 2.004 . S
Co476 O486 2.021 . S
Co476 O488 2.137 . S
Co476 O489 2.244 . S
O477 Co476 2.216 . S
O477 C484 1.247 . S
O478 Co476 2.091 . S
O478 C484 1.261 . S
C479 O488 1.247 . S
C479 O489 1.272 . S
O480 Co476 2.004 . S
O480 C485 1.259 . S
Co481 O482 2.061 . S
Co481 O487 2.052 . S
Co481 O489 2.135 . S
O482 Co481 2.061 . S
O482 C485 1.235 . S
C483 O486 1.238 . S
C483 O487 1.241 . S
C484 O477 1.247 . S
C484 O478 1.261 . S
C485 O480 1.259 . S
C485 O482 1.235 . S
O486 Co476 2.021 . S
O486 C483 1.238 . S
O487 Co481 2.052 . S
O487 C483 1.241 . S
O488 Co476 2.137 . S
O488 C479 1.247 . S
O489 Co476 2.244 . S
O489 C479 1.272 . S
O489 Co481 2.135 . S
Co490 O491 2.216 . S
Co490 O492 2.091 . S
Co490 O494 2.004 . S
Co490 O500 2.021 . S
Co490 O502 2.137 . S
Co490 O503 2.244 . S
O491 Co490 2.216 . S
O491 C498 1.247 . S
O492 Co490 2.091 . S
O492 C498 1.261 . S
C493 O502 1.247 . S
C493 O503 1.272 . S
O494 Co490 2.004 . S
O494 C499 1.259 . S
Co495 O496 2.061 . S
Co495 O501 2.052 . S
Co495 O503 2.135 . S
O496 Co495 2.061 . S
O496 C499 1.235 . S
C497 O500 1.238 . S
C497 O501 1.241 . S
C498 O491 1.247 . S
C498 O492 1.261 . S
C499 O494 1.259 . S
C499 O496 1.235 . S
O500 Co490 2.021 . S
O500 C497 1.238 . S
O501 Co495 2.052 . S
O501 C497 1.241 . S
O502 Co490 2.137 . S
O502 C493 1.247 . S
O503 Co490 2.244 . S
O503 C493 1.272 . S
O503 Co495 2.135 . S
H504 C516 0.930 . S
H505 C518 0.930 . S
H506 C519 0.930 . S
H507 C523 0.959 . S
H508 C523 0.959 . S
H509 C523 0.961 1_565 S
H510 C524 0.960 1_565 S
H511 C524 0.961 . S
H512 C524 0.959 . S
H513 C527 0.929 . S
H514 C528 0.931 . S
H515 C530 0.930 . S
C516 H504 0.930 . S
C516 C517 1.399 . S
C516 C521 1.399 . S
C517 C516 1.399 . S
C517 C518 1.376 . S
C518 H505 0.930 . S
C518 C517 1.376 . S
C518 C519 1.388 . S
C519 H506 0.930 . S
C519 C518 1.388 . S
C519 C520 1.390 . S
C520 C519 1.390 . S
C520 C521 1.394 . S
C520 C526 1.465 1_565 S
C521 C516 1.399 . S
C521 C520 1.394 . S
C521 C522 1.516 1_565 S
C522 C521 1.516 1_545 S
C522 C523 1.502 . S
C522 C524 1.561 . S
C522 C525 1.526 . S
C523 H507 0.959 . S
C523 H508 0.959 . S
C523 H509 0.961 1_545 S
C523 C522 1.502 . S
C524 H510 0.960 1_545 S
C524 H511 0.961 . S
C524 H512 0.959 . S
C524 C522 1.561 . S
C525 C522 1.526 . S
C525 C526 1.396 . S
C525 C530 1.390 . S
C526 C520 1.465 1_545 S
C526 C525 1.396 . S
C526 C527 1.399 . S
C527 H513 0.929 . S
C527 C526 1.399 . S
C527 C528 1.385 . S
C528 H514 0.931 . S
C528 C527 1.385 . S
C528 C529 1.389 . S
C529 C528 1.389 . S
C529 C530 1.387 . S
C530 H515 0.930 . S
C530 C525 1.390 . S
C530 C529 1.387 . S
H531 C543 0.930 . S
H532 C545 0.930 . S
H533 C546 0.930 . S
H534 C550 0.967 . S
H535 C550 0.959 1_655 S
H536 C550 0.961 . S
H537 C551 0.960 . S
H538 C551 0.961 1_655 S
H539 C551 0.959 . S
H540 C554 0.929 . S
H541 C555 0.931 . S
H542 C557 0.930 . S
C543 H531 0.930 . S
C543 C544 1.399 . S
C543 C548 1.399 . S
C544 C543 1.399 . S
C544 C545 1.376 . S
C545 H532 0.930 . S
C545 C544 1.376 . S
C545 C546 1.388 . S
C546 H533 0.930 . S
C546 C545 1.388 . S
C546 C547 1.390 . S
C547 C546 1.390 . S
C547 C548 1.394 . S
C547 C553 1.465 1_455 S
C548 C543 1.399 . S
C548 C547 1.394 . S
C548 C549 1.516 . S
C549 C548 1.516 . S
C549 C550 1.502 . S
C549 C551 1.561 . S
C549 C552 1.526 1_455 S
C550 H534 0.967 . S
C550 H535 0.959 1_455 S
C550 H536 0.961 . S
C550 C549 1.502 . S
C551 H537 0.960 . S
C551 H538 0.961 1_455 S
C551 H539 0.959 . S
C551 C549 1.561 . S
C552 C549 1.526 1_655 S
C552 C553 1.396 . S
C552 C557 1.390 . S
C553 C547 1.465 1_655 S
C553 C552 1.396 . S
C553 C554 1.399 . S
C554 H540 0.929 . S
C554 C553 1.399 . S
C554 C555 1.385 . S
C555 H541 0.931 . S
C555 C554 1.385 . S
C555 C556 1.389 . S
C556 C555 1.389 . S
C556 C557 1.387 . S
C557 H542 0.930 . S
C557 C552 1.390 . S
C557 C556 1.387 . S
H558 C570 0.930 . S
H559 C572 0.930 . S
H560 C573 0.930 . S
H561 C577 0.959 . S
H562 C577 0.959 . S
H563 C577 0.961 . S
H564 C578 0.960 . S
H565 C578 0.961 . S
H566 C578 0.959 . S
H567 C581 0.929 . S
H568 C582 0.931 . S
H569 C584 0.930 . S
C570 H558 0.930 . S
C570 C571 1.399 . S
C570 C575 1.399 . S
C571 C570 1.399 . S
C571 C572 1.376 . S
C572 H559 0.930 . S
C572 C571 1.376 . S
C572 C573 1.388 . S
C573 H560 0.930 . S
C573 C572 1.388 . S
C573 C574 1.390 . S
C574 C573 1.390 . S
C574 C575 1.394 . S
C574 C580 1.465 . S
C575 C570 1.399 . S
C575 C574 1.394 . S
C575 C576 1.516 . S
C576 C575 1.516 . S
C576 C577 1.502 . S
C576 C578 1.561 . S
C576 C579 1.526 . S
C577 H561 0.959 . S
C577 H562 0.959 . S
C577 H563 0.961 . S
C577 C576 1.502 . S
C578 H564 0.960 . S
C578 H565 0.961 . S
C578 H566 0.959 . S
C578 C576 1.561 . S
C579 C576 1.526 . S
C579 C580 1.396 . S
C579 C584 1.390 . S
C580 C574 1.465 . S
C580 C579 1.396 . S
C580 C581 1.399 . S
C581 H567 0.929 . S
C581 C580 1.399 . S
C581 C582 1.385 . S
C582 H568 0.931 . S
C582 C581 1.385 . S
C582 C583 1.389 . S
C583 C582 1.389 . S
C583 C584 1.387 . S
C584 H569 0.930 . S
C584 C579 1.390 . S
C584 C583 1.387 . S
H585 C597 0.930 . S
H586 C599 0.930 . S
H587 C600 0.930 . S
H588 C604 0.957 1_545 S
H589 C604 0.936 1_545 S
H590 C604 1.015 . S
H591 C605 0.960 . S
H592 C605 0.961 1_545 S
H593 C605 0.959 . S
H594 C608 0.929 . S
H595 C609 0.931 . S
H596 C611 0.930 . S
C597 H585 0.930 . S
C597 C598 1.399 . S
C597 C602 1.399 . S
C598 C597 1.399 . S
C598 C599 1.376 . S
C599 H586 0.930 . S
C599 C598 1.376 . S
C599 C600 1.388 . S
C600 H587 0.930 . S
C600 C599 1.388 . S
C600 C601 1.390 . S
C601 C600 1.390 . S
C601 C602 1.394 . S
C601 C607 1.465 1_565 S
C602 C597 1.399 . S
C602 C601 1.394 . S
C602 C603 1.516 . S
C603 C602 1.516 . S
C603 C604 1.476 . S
C603 C605 1.561 . S
C603 C606 1.526 1_565 S
C604 H588 0.957 1_565 S
C604 H589 0.936 1_565 S
C604 H590 1.015 . S
C604 C603 1.476 . S
C605 H591 0.960 . S
C605 H592 0.961 1_565 S
C605 H593 0.959 . S
C605 C603 1.561 . S
C606 C603 1.526 1_545 S
C606 C607 1.396 . S
C606 C611 1.390 . S
C607 C601 1.465 1_545 S
C607 C606 1.396 . S
C607 C608 1.399 . S
C608 H594 0.929 . S
C608 C607 1.399 . S
C608 C609 1.385 . S
C609 H595 0.931 . S
C609 C608 1.385 . S
C609 C610 1.389 . S
C610 C609 1.389 . S
C610 C611 1.387 . S
C611 H596 0.930 . S
C611 C606 1.390 . S
C611 C610 1.387 . S
H612 C624 0.930 . S
H613 C626 0.930 . S
H614 C627 0.930 . S
H615 C631 0.959 . S
H616 C631 0.959 . S
H617 C631 0.961 1_455 S
H618 C632 0.960 1_455 S
H619 C632 0.961 . S
H620 C632 0.959 . S
H621 C635 0.929 . S
H622 C636 0.931 . S
H623 C638 0.930 . S
C624 H612 0.930 . S
C624 C625 1.399 . S
C624 C629 1.399 . S
C625 C624 1.399 . S
C625 C626 1.376 . S
C626 H613 0.930 . S
C626 C625 1.376 . S
C626 C627 1.388 . S
C627 H614 0.930 . S
C627 C626 1.388 . S
C627 C628 1.390 . S
C628 C627 1.390 . S
C628 C629 1.394 . S
C628 C634 1.465 1_455 S
C629 C624 1.399 . S
C629 C628 1.394 . S
C629 C630 1.516 1_455 S
C630 C629 1.516 1_655 S
C630 C631 1.502 . S
C630 C632 1.561 . S
C630 C633 1.526 . S
C631 H615 0.959 . S
C631 H616 0.959 . S
C631 H617 0.961 1_655 S
C631 C630 1.502 . S
C632 H618 0.960 1_655 S
C632 H619 0.961 . S
C632 H620 0.959 . S
C632 C630 1.561 . S
C633 C630 1.526 . S
C633 C634 1.396 . S
C633 C638 1.390 . S
C634 C628 1.465 1_655 S
C634 C633 1.396 . S
C634 C635 1.399 . S
C635 H621 0.929 . S
C635 C634 1.399 . S
C635 C636 1.385 . S
C636 H622 0.931 . S
C636 C635 1.385 . S
C636 C637 1.389 . S
C637 C636 1.389 . S
C637 C638 1.387 . S
C638 H623 0.930 . S
C638 C633 1.390 . S
C638 C637 1.387 . S
H639 C651 0.930 . S
H640 C653 0.930 . S
H641 C654 0.930 . S
H642 C658 0.959 . S
H643 C658 0.959 . S
H644 C658 0.961 . S
H645 C659 0.960 . S
H646 C659 0.961 . S
H647 C659 0.959 . S
H648 C662 0.929 . S
H649 C663 0.931 . S
H650 C665 0.930 . S
C651 H639 0.930 . S
C651 C652 1.399 . S
C651 C656 1.399 . S
C652 C651 1.399 . S
C652 C653 1.376 . S
C653 H640 0.930 . S
C653 C652 1.376 . S
C653 C654 1.388 . S
C654 H641 0.930 . S
C654 C653 1.388 . S
C654 C655 1.390 . S
C655 C654 1.390 . S
C655 C656 1.394 . S
C655 C661 1.465 . S
C656 C651 1.399 . S
C656 C655 1.394 . S
C656 C657 1.516 . S
C657 C656 1.516 . S
C657 C658 1.502 . S
C657 C659 1.561 . S
C657 C660 1.526 . S
C658 H642 0.959 . S
C658 H643 0.959 . S
C658 H644 0.961 . S
C658 C657 1.502 . S
C659 H645 0.960 . S
C659 H646 0.961 . S
C659 H647 0.959 . S
C659 C657 1.561 . S
C660 C657 1.526 . S
C660 C661 1.396 . S
C660 C665 1.390 . S
C661 C655 1.465 . S
C661 C660 1.396 . S
C661 C662 1.399 . S
C662 H648 0.929 . S
C662 C661 1.399 . S
C662 C663 1.385 . S
C663 H649 0.931 . S
C663 C662 1.385 . S
C663 C664 1.389 . S
C664 C663 1.389 . S
C664 C665 1.387 . S
C665 H650 0.930 . S
C665 C660 1.390 . S
C665 C664 1.387 . S
H666 C678 0.930 . S
H667 C680 0.930 . S
H668 C681 0.930 . S
H669 C685 0.959 . S
H670 C685 0.959 . S
H671 C685 0.961 . S
H672 C686 0.960 . S
H673 C686 0.961 . S
H674 C686 0.959 1_455 S
H675 C689 0.929 . S
H676 C690 0.931 . S
H677 C692 0.930 . S
C678 H666 0.930 . S
C678 C679 1.399 1_655 S
C678 C683 1.399 . S
C679 C678 1.399 1_455 S
C679 C680 1.376 . S
C680 H667 0.930 . S
C680 C679 1.376 . S
C680 C681 1.388 . S
C681 H668 0.930 . S
C681 C680 1.388 . S
C681 C682 1.390 1_455 S
C682 C681 1.390 1_655 S
C682 C683 1.394 . S
C682 C688 1.465 . S
C683 C678 1.399 . S
C683 C682 1.394 . S
C683 C684 1.516 . S
C684 C683 1.516 . S
C684 C685 1.502 . S
C684 C686 1.561 . S
C684 C687 1.526 . S
C685 H669 0.959 . S
C685 H670 0.959 . S
C685 H671 0.961 . S
C685 C684 1.502 . S
C686 H672 0.960 . S
C686 H673 0.961 . S
C686 H674 0.959 1_655 S
C686 C684 1.561 . S
C687 C684 1.526 . S
C687 C688 1.396 . S
C687 C692 1.390 . S
C688 C682 1.465 . S
C688 C687 1.396 . S
C688 C689 1.399 . S
C689 H675 0.929 . S
C689 C688 1.399 . S
C689 C690 1.385 . S
C690 H676 0.931 . S
C690 C689 1.385 . S
C690 C691 1.389 . S
C691 C690 1.389 . S
C691 C692 1.387 . S
C692 H677 0.930 . S
C692 C687 1.390 . S
C692 C691 1.387 . S
H693 C705 0.930 . S
H694 C707 0.930 . S
H695 C708 0.930 . S
H696 C712 0.959 . S
H697 C712 0.959 . S
H698 C712 0.961 . S
H699 C713 0.960 . S
H700 C713 0.961 . S
H701 C713 0.959 . S
H702 C716 0.929 . S
H703 C717 0.931 . S
H704 C719 0.930 . S
C705 H693 0.930 . S
C705 C706 1.399 . S
C705 C710 1.399 . S
C706 C705 1.399 . S
C706 C707 1.376 . S
C707 H694 0.930 . S
C707 C706 1.376 . S
C707 C708 1.388 . S
C708 H695 0.930 . S
C708 C707 1.388 . S
C708 C709 1.390 . S
C709 C708 1.390 . S
C709 C710 1.394 . S
C709 C715 1.465 . S
C710 C705 1.399 . S
C710 C709 1.394 . S
C710 C711 1.516 . S
C711 C710 1.516 . S
C711 C712 1.502 . S
C711 C713 1.561 . S
C711 C714 1.526 . S
C712 H696 0.959 . S
C712 H697 0.959 . S
C712 H698 0.961 . S
C712 C711 1.502 . S
C713 H699 0.960 . S
C713 H700 0.961 . S
C713 H701 0.959 . S
C713 C711 1.561 . S
C714 C711 1.526 . S
C714 C715 1.396 . S
C714 C719 1.390 . S
C715 C709 1.465 . S
C715 C714 1.396 . S
C715 C716 1.399 . S
C716 H702 0.929 . S
C716 C715 1.399 . S
C716 C717 1.385 . S
C717 H703 0.931 . S
C717 C716 1.385 . S
C717 C718 1.389 . S
C718 C717 1.389 . S
C718 C719 1.387 . S
C719 H704 0.930 . S
C719 C714 1.390 . S
C719 C718 1.387 . S
H720 C732 0.930 . S
H721 C734 0.930 . S
H722 C735 0.930 . S
H723 C739 0.959 . S
H724 C739 0.959 . S
H725 C739 0.961 . S
H726 C740 0.960 . S
H727 C740 0.961 . S
H728 C740 0.959 . S
H729 C743 0.929 . S
H730 C744 0.931 . S
H731 C746 0.930 . S
C732 H720 0.930 . S
C732 C733 1.399 . S
C732 C737 1.399 . S
C733 C732 1.399 . S
C733 C734 1.376 . S
C734 H721 0.930 . S
C734 C733 1.376 . S
C734 C735 1.388 . S
C735 H722 0.930 . S
C735 C734 1.388 . S
C735 C736 1.390 . S
C736 C735 1.390 . S
C736 C737 1.394 . S
C736 C742 1.465 . S
C737 C732 1.399 . S
C737 C736 1.394 . S
C737 C738 1.516 . S
C738 C737 1.516 . S
C738 C739 1.502 1_545 S
C738 C740 1.561 . S
C738 C741 1.526 . S
C739 H723 0.959 . S
C739 H724 0.959 . S
C739 H725 0.961 . S
C739 C738 1.502 1_565 S
C740 H726 0.960 . S
C740 H727 0.961 . S
C740 H728 0.959 . S
C740 C738 1.561 . S
C741 C738 1.526 . S
C741 C742 1.396 . S
C741 C746 1.390 1_545 S
C742 C736 1.465 . S
C742 C741 1.396 . S
C742 C743 1.399 . S
C743 H729 0.929 . S
C743 C742 1.399 . S
C743 C744 1.385 . S
C744 H730 0.931 . S
C744 C743 1.385 . S
C744 C745 1.389 1_545 S
C745 C744 1.389 1_565 S
C745 C746 1.387 . S
C746 H731 0.930 . S
C746 C741 1.390 1_565 S
C746 C745 1.387 . S
H747 C759 0.930 . S
H748 C761 0.930 . S
H749 C762 0.930 . S
H750 C766 0.959 . S
H751 C766 0.959 . S
H752 C766 0.961 . S
H753 C767 0.960 . S
H754 C767 0.961 . S
H755 C767 0.959 . S
H756 C770 0.929 . S
H757 C771 0.931 . S
H758 C773 0.930 . S
C759 H747 0.930 . S
C759 C760 1.399 . S
C759 C764 1.399 . S
C760 C759 1.399 . S
C760 C761 1.376 . S
C761 H748 0.930 . S
C761 C760 1.376 . S
C761 C762 1.388 . S
C762 H749 0.930 . S
C762 C761 1.388 . S
C762 C763 1.390 . S
C763 C762 1.390 . S
C763 C764 1.394 . S
C763 C769 1.465 . S
C764 C759 1.399 . S
C764 C763 1.394 . S
C764 C765 1.516 . S
C765 C764 1.516 . S
C765 C766 1.502 . S
C765 C767 1.561 . S
C765 C768 1.526 . S
C766 H750 0.959 . S
C766 H751 0.959 . S
C766 H752 0.961 . S
C766 C765 1.502 . S
C767 H753 0.960 . S
C767 H754 0.961 . S
C767 H755 0.959 . S
C767 C765 1.561 . S
C768 C765 1.526 . S
C768 C769 1.396 . S
C768 C773 1.390 . S
C769 C763 1.465 . S
C769 C768 1.396 . S
C769 C770 1.399 . S
C770 H756 0.929 . S
C770 C769 1.399 . S
C770 C771 1.385 . S
C771 H757 0.931 . S
C771 C770 1.385 . S
C771 C772 1.389 . S
C772 C771 1.389 . S
C772 C773 1.387 . S
C773 H758 0.930 . S
C773 C768 1.390 . S
C773 C772 1.387 . S
H774 C786 0.930 . S
H775 C788 0.930 . S
H776 C789 0.930 . S
H777 C793 0.959 . S
H778 C793 0.959 . S
H779 C793 0.961 . S
H780 C794 0.960 . S
H781 C794 0.961 . S
H782 C794 0.959 . S
H783 C797 0.929 . S
H784 C798 0.931 . S
H785 C800 0.930 . S
C786 H774 0.930 . S
C786 C787 1.399 1_545 S
C786 C791 1.399 . S
C787 C786 1.399 1_565 S
C787 C788 1.376 . S
C788 H775 0.930 . S
C788 C787 1.376 . S
C788 C789 1.388 . S
C789 H776 0.930 . S
C789 C788 1.388 . S
C789 C790 1.390 1_565 S
C790 C789 1.390 1_545 S
C790 C791 1.394 . S
C790 C796 1.465 . S
C791 C786 1.399 . S
C791 C790 1.394 . S
C791 C792 1.516 . S
C792 C791 1.516 . S
C792 C793 1.502 . S
C792 C794 1.561 . S
C792 C795 1.526 . S
C793 H777 0.959 . S
C793 H778 0.959 . S
C793 H779 0.961 . S
C793 C792 1.502 . S
C794 H780 0.960 . S
C794 H781 0.961 . S
C794 H782 0.959 . S
C794 C792 1.561 . S
C795 C792 1.526 . S
C795 C796 1.396 . S
C795 C800 1.390 . S
C796 C790 1.465 . S
C796 C795 1.396 . S
C796 C797 1.399 . S
C797 H783 0.929 . S
C797 C796 1.399 . S
C797 C798 1.385 . S
C798 H784 0.931 . S
C798 C797 1.385 . S
C798 C799 1.389 . S
C799 C798 1.389 . S
C799 C800 1.387 . S
C800 H785 0.930 . S
C800 C795 1.390 . S
C800 C799 1.387 . S
H801 C813 0.930 . S
H802 C815 0.930 . S
H803 C816 0.930 . S
H804 C820 0.959 . S
H805 C820 0.959 1_556 S
H806 C820 0.961 . S
H807 C821 0.960 1_655 S
H808 C821 0.961 . S
H809 C821 0.959 . S
H810 C824 0.937 . S
H811 C825 0.931 . S
H812 C827 0.930 . S
C813 H801 0.930 . S
C813 C814 1.399 . S
C813 C818 1.399 . S
C814 C813 1.399 . S
C814 C815 1.376 . S
C815 H802 0.930 . S
C815 C814 1.376 . S
C815 C816 1.388 . S
C816 H803 0.930 . S
C816 C815 1.388 . S
C816 C817 1.390 . S
C817 C816 1.390 . S
C817 C818 1.394 . S
C817 C823 1.465 . S
C818 C813 1.399 . S
C818 C817 1.394 . S
C818 C819 1.516 . S
C819 C818 1.516 . S
C819 C820 1.502 . S
C819 C821 1.561 1_655 S
C819 C822 1.526 . S
C820 H804 0.959 . S
C820 H805 0.959 1_554 S
C820 H806 0.961 . S
C820 C819 1.502 . S
C821 H807 0.960 1_455 S
C821 H808 0.961 . S
C821 H809 0.959 . S
C821 C819 1.561 1_455 S
C822 C819 1.526 . S
C822 C823 1.396 . S
C822 C827 1.390 1_655 S
C823 C817 1.465 . S
C823 C822 1.396 . S
C823 C824 1.425 . S
C824 H810 0.937 . S
C824 C823 1.425 . S
C824 C825 1.353 1_655 S
C825 H811 0.931 . S
C825 C824 1.353 1_455 S
C825 C826 1.389 . S
C826 C825 1.389 . S
C826 C827 1.387 . S
C827 H812 0.930 . S
C827 C822 1.390 1_455 S
C827 C826 1.387 . S
H828 C840 0.930 . S
H829 C842 0.930 . S
H830 C843 0.930 . S
H831 C847 0.959 . S
H832 C847 0.959 1_554 S
H833 C847 0.961 1_554 S
H834 C848 0.960 . S
H835 C848 0.961 . S
H836 C848 0.959 . S
H837 C851 0.929 . S
H838 C852 0.931 . S
H839 C854 0.930 . S
C840 H828 0.930 . S
C840 C841 1.399 . S
C840 C845 1.399 . S
C841 C840 1.399 . S
C841 C842 1.376 . S
C842 H829 0.930 . S
C842 C841 1.376 . S
C842 C843 1.388 . S
C843 H830 0.930 . S
C843 C842 1.388 . S
C843 C844 1.390 . S
C844 C843 1.390 . S
C844 C845 1.394 . S
C844 C850 1.465 . S
C845 C840 1.399 . S
C845 C844 1.394 . S
C845 C846 1.516 . S
C846 C845 1.516 . S
C846 C847 1.502 . S
C846 C848 1.561 . S
C846 C849 1.526 . S
C847 H831 0.959 . S
C847 H832 0.959 1_556 S
C847 H833 0.961 1_556 S
C847 C846 1.502 . S
C848 H834 0.960 . S
C848 H835 0.961 . S
C848 H836 0.959 . S
C848 C846 1.561 . S
C849 C846 1.526 . S
C849 C850 1.396 . S
C849 C854 1.390 . S
C850 C844 1.465 . S
C850 C849 1.396 . S
C850 C851 1.399 . S
C851 H837 0.929 . S
C851 C850 1.399 . S
C851 C852 1.385 . S
C852 H838 0.931 . S
C852 C851 1.385 . S
C852 C853 1.389 . S
C853 C852 1.389 . S
C853 C854 1.387 . S
C854 H839 0.930 . S
C854 C849 1.390 . S
C854 C853 1.387 . S
H855 C867 0.930 . S
H856 C869 0.930 . S
H857 C870 0.930 . S
H858 C874 0.959 . S
H859 C874 0.959 . S
H860 C874 0.961 . S
H861 C875 0.960 1_554 S
H862 C875 0.961 1_554 S
H863 C875 0.959 1_545 S
H864 C878 0.929 . S
H865 C879 0.931 . S
H866 C881 0.930 . S
C867 H855 0.930 . S
C867 C868 1.399 1_565 S
C867 C872 1.399 . S
C868 C867 1.399 1_545 S
C868 C869 1.376 . S
C869 H856 0.930 . S
C869 C868 1.376 . S
C869 C870 1.388 . S
C870 H857 0.930 . S
C870 C869 1.388 . S
C870 C871 1.390 1_545 S
C871 C870 1.390 1_565 S
C871 C872 1.394 . S
C871 C877 1.465 . S
C872 C867 1.399 . S
C872 C871 1.394 . S
C872 C873 1.516 . S
C873 C872 1.516 . S
C873 C874 1.502 . S
C873 C875 1.561 . S
C873 C876 1.526 . S
C874 H858 0.959 . S
C874 H859 0.959 . S
C874 H860 0.961 . S
C874 C873 1.502 . S
C875 H861 0.960 1_556 S
C875 H862 0.961 1_556 S
C875 H863 0.959 1_565 S
C875 C873 1.561 . S
C876 C873 1.526 . S
C876 C877 1.396 . S
C876 C881 1.390 . S
C877 C871 1.465 . S
C877 C876 1.396 . S
C877 C878 1.399 . S
C878 H864 0.929 . S
C878 C877 1.399 . S
C878 C879 1.385 . S
C879 H865 0.931 . S
C879 C878 1.385 . S
C879 C880 1.389 . S
C880 C879 1.389 . S
C880 C881 1.387 . S
C881 H866 0.930 . S
C881 C876 1.390 . S
C881 C880 1.387 . S
H882 C894 0.930 . S
H883 C896 0.930 . S
H884 C897 0.930 . S
H885 C901 0.959 . S
H886 C901 0.959 . S
H887 C901 0.961 . S
H888 C902 0.960 . S
H889 C902 0.961 . S
H890 C902 0.959 . S
H891 C905 0.929 . S
H892 C906 0.931 . S
H893 C908 0.930 . S
C894 H882 0.930 . S
C894 C895 1.399 . S
C894 C899 1.399 . S
C895 C894 1.399 . S
C895 C896 1.376 . S
C896 H883 0.930 . S
C896 C895 1.376 . S
C896 C897 1.388 . S
C897 H884 0.930 . S
C897 C896 1.388 . S
C897 C898 1.390 . S
C898 C897 1.390 . S
C898 C899 1.394 . S
C898 C904 1.465 . S
C899 C894 1.399 . S
C899 C898 1.394 . S
C899 C900 1.516 . S
C900 C899 1.516 . S
C900 C901 1.502 . S
C900 C902 1.561 . S
C900 C903 1.526 . S
C901 H885 0.959 . S
C901 H886 0.959 . S
C901 H887 0.961 . S
C901 C900 1.502 . S
C902 H888 0.960 . S
C902 H889 0.961 . S
C902 H890 0.959 . S
C902 C900 1.561 . S
C903 C900 1.526 . S
C903 C904 1.396 . S
C903 C908 1.390 . S
C904 C898 1.465 . S
C904 C903 1.396 . S
C904 C905 1.399 1_455 S
C905 H891 0.929 . S
C905 C904 1.399 1_655 S
C905 C906 1.385 . S
C906 H892 0.931 . S
C906 C905 1.385 . S
C906 C907 1.389 . S
C907 C906 1.389 . S
C907 C908 1.387 1_655 S
C908 H893 0.930 . S
C908 C903 1.390 . S
C908 C907 1.387 1_455 S
H909 C921 0.930 . S
H910 C923 0.930 . S
H911 C924 0.930 . S
H912 C928 0.959 . S
H913 C928 0.959 . S
H914 C928 0.961 . S
H915 C929 0.960 . S
H916 C929 0.961 . S
H917 C929 0.942 1_655 S
H918 C932 0.929 . S
H919 C933 0.931 . S
H920 C935 0.930 . S
C921 H909 0.930 . S
C921 C922 1.399 . S
C921 C926 1.399 . S
C922 C921 1.399 . S
C922 C923 1.376 . S
C923 H910 0.930 . S
C923 C922 1.376 . S
C923 C924 1.388 . S
C924 H911 0.930 . S
C924 C923 1.388 . S
C924 C925 1.390 . S
C925 C924 1.390 . S
C925 C926 1.394 . S
C925 C931 1.465 . S
C926 C921 1.399 . S
C926 C925 1.394 . S
C926 C927 1.516 . S
C927 C926 1.516 . S
C927 C928 1.502 . S
C927 C929 1.561 . S
C927 C930 1.526 . S
C928 H912 0.959 . S
C928 H913 0.959 . S
C928 H914 0.961 . S
C928 C927 1.502 . S
C929 H915 0.960 . S
C929 H916 0.961 . S
C929 H917 0.942 1_455 S
C929 C927 1.561 . S
C930 C927 1.526 . S
C930 C931 1.396 . S
C930 C935 1.390 . S
C931 C925 1.465 . S
C931 C930 1.396 . S
C931 C932 1.399 1_455 S
C932 H918 0.929 . S
C932 C931 1.399 1_655 S
C932 C933 1.385 . S
C933 H919 0.931 . S
C933 C932 1.385 . S
C933 C934 1.389 . S
C934 C933 1.389 . S
C934 C935 1.387 1_655 S
C935 H920 0.930 . S
C935 C930 1.390 . S
C935 C934 1.387 1_455 S
H936 C948 0.930 . S
H937 C950 0.930 . S
H938 C951 0.930 . S
H939 C955 0.959 . S
H940 C955 0.959 . S
H941 C955 0.961 . S
H942 C956 0.960 . S
H943 C956 0.961 . S
H944 C956 0.959 . S
H945 C959 0.929 . S
H946 C960 0.931 . S
H947 C962 0.930 . S
C948 H936 0.930 . S
C948 C949 1.399 . S
C948 C953 1.399 . S
C949 C948 1.399 . S
C949 C950 1.376 . S
C950 H937 0.930 . S
C950 C949 1.376 . S
C950 C951 1.388 . S
C951 H938 0.930 . S
C951 C950 1.388 . S
C951 C952 1.390 . S
C952 C951 1.390 . S
C952 C953 1.394 . S
C952 C958 1.465 . S
C953 C948 1.399 . S
C953 C952 1.394 . S
C953 C954 1.516 . S
C954 C953 1.516 . S
C954 C955 1.502 . S
C954 C956 1.561 . S
C954 C957 1.526 . S
C955 H939 0.959 . S
C955 H940 0.959 . S
C955 H941 0.961 . S
C955 C954 1.502 . S
C956 H942 0.960 . S
C956 H943 0.961 . S
C956 H944 0.959 . S
C956 C954 1.561 . S
C957 C954 1.526 . S
C957 C958 1.396 . S
C957 C962 1.390 . S
C958 C952 1.465 . S
C958 C957 1.396 . S
C958 C959 1.399 . S
C959 H945 0.929 . S
C959 C958 1.399 . S
C959 C960 1.385 . S
C960 H946 0.931 . S
C960 C959 1.385 . S
C960 C961 1.389 . S
C961 C960 1.389 . S
C961 C962 1.387 . S
C962 H947 0.930 . S
C962 C957 1.390 . S
C962 C961 1.387 . S
H963 C975 0.930 . S
H964 C977 0.930 . S
H965 C978 0.930 . S
H966 C982 0.959 . S
H967 C982 0.959 . S
H968 C982 0.961 . S
H969 C983 0.960 . S
H970 C983 0.961 . S
H971 C983 0.959 . S
H972 C986 0.929 . S
H973 C987 0.962 . S
H974 C989 0.930 . S
C975 H963 0.930 . S
C975 C976 1.399 . S
C975 C980 1.399 . S
C976 C975 1.399 . S
C976 C977 1.376 . S
C977 H964 0.930 . S
C977 C976 1.376 . S
C977 C978 1.388 . S
C978 H965 0.930 . S
C978 C977 1.388 . S
C978 C979 1.390 . S
C979 C978 1.390 . S
C979 C980 1.394 . S
C979 C985 1.465 . S
C980 C975 1.399 . S
C980 C979 1.394 . S
C980 C981 1.516 . S
C981 C980 1.516 . S
C981 C982 1.502 1_565 S
C981 C983 1.561 . S
C981 C984 1.526 . S
C982 H966 0.959 . S
C982 H967 0.959 . S
C982 H968 0.961 . S
C982 C981 1.502 1_545 S
C983 H969 0.960 . S
C983 H970 0.961 . S
C983 H971 0.959 . S
C983 C981 1.561 . S
C984 C981 1.526 . S
C984 C985 1.396 . S
C984 C989 1.390 1_565 S
C985 C979 1.465 . S
C985 C984 1.396 . S
C985 C986 1.399 . S
C986 H972 0.929 . S
C986 C985 1.399 . S
C986 C987 1.385 . S
C987 H973 0.962 . S
C987 C986 1.385 . S
C987 C988 1.389 1_565 S
C988 C987 1.389 1_545 S
C988 C989 1.387 . S
C989 H974 0.930 . S
C989 C984 1.390 1_545 S
C989 C988 1.387 . S
H990 C1002 0.930 . S
H991 C1004 0.930 . S
H992 C1005 0.930 . S
H993 C1009 0.959 . S
H994 C1009 0.959 . S
H995 C1009 0.961 . S
H996 C1010 0.960 . S
H997 C1010 0.961 . S
H998 C1010 0.959 . S
H999 C1013 0.929 . S
H1000 C1014 0.931 . S
H1001 C1016 0.930 . S
C1002 H990 0.930 . S
C1002 C1003 1.399 . S
C1002 C1007 1.399 . S
C1003 C1002 1.399 . S
C1003 C1004 1.376 . S
C1004 H991 0.930 . S
C1004 C1003 1.376 . S
C1004 C1005 1.388 . S
C1005 H992 0.930 . S
C1005 C1004 1.388 . S
C1005 C1006 1.390 . S
C1006 C1005 1.390 . S
C1006 C1007 1.394 . S
C1006 C1012 1.465 . S
C1007 C1002 1.399 . S
C1007 C1006 1.394 . S
C1007 C1008 1.516 . S
C1008 C1007 1.516 . S
C1008 C1009 1.502 . S
C1008 C1010 1.561 . S
C1008 C1011 1.526 . S
C1009 H993 0.959 . S
C1009 H994 0.959 . S
C1009 H995 0.961 . S
C1009 C1008 1.502 . S
C1010 H996 0.960 . S
C1010 H997 0.961 . S
C1010 H998 0.959 . S
C1010 C1008 1.561 . S
C1011 C1008 1.526 . S
C1011 C1012 1.396 . S
C1011 C1016 1.390 . S
C1012 C1006 1.465 . S
C1012 C1011 1.396 . S
C1012 C1013 1.399 . S
C1013 H999 0.929 . S
C1013 C1012 1.399 . S
C1013 C1014 1.385 . S
C1014 H1000 0.931 . S
C1014 C1013 1.385 . S
C1014 C1015 1.389 . S
C1015 C1014 1.389 . S
C1015 C1016 1.387 . S
C1016 H1001 0.930 . S
C1016 C1011 1.390 . S
C1016 C1015 1.387 . S
H1017 C1029 0.930 . S
H1018 C1031 0.930 . S
H1019 C1032 0.930 . S
H1020 C1036 0.959 . S
H1021 C1036 0.959 . S
H1022 C1036 0.961 . S
H1023 C1037 0.960 . S
H1024 C1037 0.961 . S
H1025 C1037 0.959 . S
H1026 C1040 0.929 . S
H1027 C1041 0.931 . S
H1028 C1043 0.930 . S
C1029 H1017 0.930 . S
C1029 C1030 1.399 . S
C1029 C1034 1.399 . S
C1030 C1029 1.399 . S
C1030 C1031 1.376 . S
C1031 H1018 0.930 . S
C1031 C1030 1.376 . S
C1031 C1032 1.388 . S
C1032 H1019 0.930 . S
C1032 C1031 1.388 . S
C1032 C1033 1.390 . S
C1033 C1032 1.390 . S
C1033 C1034 1.394 . S
C1033 C1039 1.465 . S
C1034 C1029 1.399 . S
C1034 C1033 1.394 . S
C1034 C1035 1.516 . S
C1035 C1034 1.516 . S
C1035 C1036 1.502 . S
C1035 C1037 1.561 . S
C1035 C1038 1.526 . S
C1036 H1020 0.959 . S
C1036 H1021 0.959 . S
C1036 H1022 0.961 . S
C1036 C1035 1.502 . S
C1037 H1023 0.960 . S
C1037 H1024 0.961 . S
C1037 H1025 0.959 . S
C1037 C1035 1.561 . S
C1038 C1035 1.526 . S
C1038 C1039 1.396 . S
C1038 C1043 1.390 . S
C1039 C1033 1.465 . S
C1039 C1038 1.396 . S
C1039 C1040 1.399 . S
C1040 H1026 0.929 . S
C1040 C1039 1.399 . S
C1040 C1041 1.385 . S
C1041 H1027 0.931 . S
C1041 C1040 1.385 . S
C1041 C1042 1.389 . S
C1042 C1041 1.389 . S
C1042 C1043 1.387 . S
C1043 H1028 0.930 . S
C1043 C1038 1.390 . S
C1043 C1042 1.387 . S
H1044 C1056 0.930 . S
H1045 C1058 0.930 . S
H1046 C1059 0.930 . S
H1047 C1063 0.959 . S
H1048 C1063 0.959 . S
H1049 C1063 0.961 . S
H1050 C1064 0.960 . S
H1051 C1064 0.961 . S
H1052 C1064 0.959 . S
H1053 C1067 0.929 . S
H1054 C1068 0.931 . S
H1055 C1070 0.930 . S
C1056 H1044 0.930 . S
C1056 C1057 1.399 . S
C1056 C1061 1.399 . S
C1057 C1056 1.399 . S
C1057 C1058 1.376 . S
C1058 H1045 0.930 . S
C1058 C1057 1.376 . S
C1058 C1059 1.388 . S
C1059 H1046 0.930 . S
C1059 C1058 1.388 . S
C1059 C1060 1.390 . S
C1060 C1059 1.390 . S
C1060 C1061 1.394 . S
C1060 C1066 1.465 . S
C1061 C1056 1.399 . S
C1061 C1060 1.394 . S
C1061 C1062 1.516 . S
C1062 C1061 1.516 . S
C1062 C1063 1.502 . S
C1062 C1064 1.561 . S
C1062 C1065 1.526 . S
C1063 H1047 0.959 . S
C1063 H1048 0.959 . S
C1063 H1049 0.961 . S
C1063 C1062 1.502 . S
C1064 H1050 0.960 . S
C1064 H1051 0.961 . S
C1064 H1052 0.959 . S
C1064 C1062 1.561 . S
C1065 C1062 1.526 . S
C1065 C1066 1.396 . S
C1065 C1070 1.390 . S
C1066 C1060 1.465 . S
C1066 C1065 1.396 . S
C1066 C1067 1.399 . S
C1067 H1053 0.929 . S
C1067 C1066 1.399 . S
C1067 C1068 1.385 . S
C1068 H1054 0.931 . S
C1068 C1067 1.385 . S
C1068 C1069 1.389 . S
C1069 C1068 1.389 . S
C1069 C1070 1.387 . S
C1070 H1055 0.930 . S
C1070 C1065 1.390 . S
C1070 C1069 1.387 . S
H1071 C1083 0.930 . S
H1072 C1085 0.930 . S
H1073 C1086 0.930 . S
H1074 C1090 0.959 . S
H1075 C1090 0.959 . S
H1076 C1090 0.961 . S
H1077 C1091 0.960 . S
H1078 C1091 0.961 . S
H1079 C1091 0.959 . S
H1080 C1094 0.929 . S
H1081 C1095 0.931 . S
H1082 C1097 0.930 1_556 S
C1083 H1071 0.930 . S
C1083 C1084 1.399 . S
C1083 C1088 1.399 . S
C1084 C1083 1.399 . S
C1084 C1085 1.376 . S
C1085 H1072 0.930 . S
C1085 C1084 1.376 . S
C1085 C1086 1.388 . S
C1086 H1073 0.930 . S
C1086 C1085 1.388 . S
C1086 C1087 1.390 . S
C1087 C1086 1.390 . S
C1087 C1088 1.394 . S
C1087 C1093 1.465 . S
C1088 C1083 1.399 . S
C1088 C1087 1.394 . S
C1088 C1089 1.516 . S
C1089 C1088 1.516 . S
C1089 C1090 1.502 . S
C1089 C1091 1.561 . S
C1089 C1092 1.526 . S
C1090 H1074 0.959 . S
C1090 H1075 0.959 . S
C1090 H1076 0.961 . S
C1090 C1089 1.502 . S
C1091 H1077 0.960 . S
C1091 H1078 0.961 . S
C1091 H1079 0.959 . S
C1091 C1089 1.561 . S
C1092 C1089 1.526 . S
C1092 C1093 1.396 . S
C1092 C1097 1.390 . S
C1093 C1087 1.465 . S
C1093 C1092 1.396 . S
C1093 C1094 1.399 . S
C1094 H1080 0.929 . S
C1094 C1093 1.399 . S
C1094 C1095 1.385 . S
C1095 H1081 0.931 . S
C1095 C1094 1.385 . S
C1095 C1096 1.389 . S
C1096 C1095 1.389 . S
C1096 C1097 1.387 . S
C1097 H1082 0.930 1_554 S
C1097 C1092 1.390 . S
C1097 C1096 1.387 . S
H1098 C1110 0.930 . S
H1099 C1112 0.930 . S
H1100 C1113 0.930 . S
H1101 C1117 0.959 . S
H1102 C1117 0.959 . S
H1103 C1117 0.961 . S
H1104 C1118 0.960 . S
H1105 C1118 0.961 . S
H1106 C1118 0.959 . S
H1107 C1121 0.929 . S
H1108 C1122 0.931 . S
H1109 C1124 0.930 . S
C1110 H1098 0.930 . S
C1110 C1111 1.399 . S
C1110 C1115 1.399 . S
C1111 C1110 1.399 . S
C1111 C1112 1.376 . S
C1112 H1099 0.930 . S
C1112 C1111 1.376 . S
C1112 C1113 1.388 . S
C1113 H1100 0.930 . S
C1113 C1112 1.388 . S
C1113 C1114 1.390 . S
C1114 C1113 1.390 . S
C1114 C1115 1.394 . S
C1114 C1120 1.465 . S
C1115 C1110 1.399 . S
C1115 C1114 1.394 . S
C1115 C1116 1.516 . S
C1116 C1115 1.516 . S
C1116 C1117 1.502 . S
C1116 C1118 1.561 . S
C1116 C1119 1.526 . S
C1117 H1101 0.959 . S
C1117 H1102 0.959 . S
C1117 H1103 0.961 . S
C1117 C1116 1.502 . S
C1118 H1104 0.960 . S
C1118 H1105 0.961 . S
C1118 H1106 0.959 . S
C1118 C1116 1.561 . S
C1119 C1116 1.526 . S
C1119 C1120 1.396 . S
C1119 C1124 1.390 . S
C1120 C1114 1.465 . S
C1120 C1119 1.396 . S
C1120 C1121 1.399 . S
C1121 H1107 0.929 . S
C1121 C1120 1.399 . S
C1121 C1122 1.385 . S
C1122 H1108 0.931 . S
C1122 C1121 1.385 . S
C1122 C1123 1.389 . S
C1123 C1122 1.389 . S
C1123 C1124 1.387 . S
C1124 H1109 0.930 . S
C1124 C1119 1.390 . S
C1124 C1123 1.387 . S
H1125 C1137 0.930 . S
H1126 C1139 0.930 . S
H1127 C1140 0.930 . S
H1128 C1144 0.959 . S
H1129 C1144 0.959 . S
H1130 C1144 0.961 . S
H1131 C1145 0.960 . S
H1132 C1145 0.961 . S
H1133 C1145 0.959 . S
H1134 C1148 0.929 . S
H1135 C1149 0.931 . S
H1136 C1151 0.930 . S
C1137 H1125 0.930 . S
C1137 C1138 1.399 . S
C1137 C1142 1.399 . S
C1138 C1137 1.399 . S
C1138 C1139 1.376 . S
C1139 H1126 0.930 . S
C1139 C1138 1.376 . S
C1139 C1140 1.388 . S
C1140 H1127 0.930 . S
C1140 C1139 1.388 . S
C1140 C1141 1.390 . S
C1141 C1140 1.390 . S
C1141 C1142 1.394 . S
C1141 C1147 1.465 . S
C1142 C1137 1.399 . S
C1142 C1141 1.394 . S
C1142 C1143 1.516 . S
C1143 C1142 1.516 . S
C1143 C1144 1.502 . S
C1143 C1145 1.561 . S
C1143 C1146 1.526 . S
C1144 H1128 0.959 . S
C1144 H1129 0.959 . S
C1144 H1130 0.961 . S
C1144 C1143 1.502 . S
C1145 H1131 0.960 . S
C1145 H1132 0.961 . S
C1145 H1133 0.959 . S
C1145 C1143 1.561 . S
C1146 C1143 1.526 . S
C1146 C1147 1.396 . S
C1146 C1151 1.390 . S
C1147 C1141 1.465 . S
C1147 C1146 1.396 . S
C1147 C1148 1.399 . S
C1148 H1134 0.929 . S
C1148 C1147 1.399 . S
C1148 C1149 1.385 . S
C1149 H1135 0.931 . S
C1149 C1148 1.385 . S
C1149 C1150 1.389 . S
C1150 C1149 1.389 . S
C1150 C1151 1.387 . S
C1151 H1136 0.930 . S
C1151 C1146 1.390 . S
C1151 C1150 1.387 . S
H1152 C1164 0.930 . S
H1153 C1166 0.930 . S
H1154 C1167 0.930 . S
H1155 C1171 0.959 . S
H1156 C1171 0.959 . S
H1157 C1171 0.961 . S
H1158 C1172 0.960 . S
H1159 C1172 0.961 . S
H1160 C1172 0.959 . S
H1161 C1175 0.929 . S
H1162 C1176 0.931 . S
H1163 C1178 0.930 . S
C1164 H1152 0.930 . S
C1164 C1165 1.399 . S
C1164 C1169 1.399 . S
C1165 C1164 1.399 . S
C1165 C1166 1.376 . S
C1166 H1153 0.930 . S
C1166 C1165 1.376 . S
C1166 C1167 1.388 . S
C1167 H1154 0.930 . S
C1167 C1166 1.388 . S
C1167 C1168 1.390 . S
C1168 C1167 1.390 . S
C1168 C1169 1.394 . S
C1168 C1174 1.465 . S
C1169 C1164 1.399 . S
C1169 C1168 1.394 . S
C1169 C1170 1.516 . S
C1170 C1169 1.516 . S
C1170 C1171 1.502 . S
C1170 C1172 1.561 . S
C1170 C1173 1.526 . S
C1171 H1155 0.959 . S
C1171 H1156 0.959 . S
C1171 H1157 0.961 . S
C1171 C1170 1.502 . S
C1172 H1158 0.960 . S
C1172 H1159 0.961 . S
C1172 H1160 0.959 . S
C1172 C1170 1.561 . S
C1173 C1170 1.526 . S
C1173 C1174 1.396 . S
C1173 C1178 1.390 . S
C1174 C1168 1.465 . S
C1174 C1173 1.396 . S
C1174 C1175 1.399 . S
C1175 H1161 0.929 . S
C1175 C1174 1.399 . S
C1175 C1176 1.385 . S
C1176 H1162 0.931 . S
C1176 C1175 1.385 . S
C1176 C1177 1.389 . S
C1177 C1176 1.389 . S
C1177 C1178 1.387 . S
C1178 H1163 0.930 . S
C1178 C1173 1.390 . S
C1178 C1177 1.387 . S
H1179 C1191 0.930 . S
H1180 C1193 0.930 . S
H1181 C1194 0.930 . S
H1182 C1198 0.959 . S
H1183 C1198 0.959 . S
H1184 C1198 0.961 . S
H1185 C1199 0.960 . S
H1186 C1199 0.961 . S
H1187 C1199 0.959 . S
H1188 C1202 0.929 . S
H1189 C1203 0.931 . S
H1190 C1205 0.930 . S
C1191 H1179 0.930 . S
C1191 C1192 1.399 . S
C1191 C1196 1.399 . S
C1192 C1191 1.399 . S
C1192 C1193 1.376 . S
C1193 H1180 0.930 . S
C1193 C1192 1.376 . S
C1193 C1194 1.388 . S
C1194 H1181 0.930 . S
C1194 C1193 1.388 . S
C1194 C1195 1.390 . S
C1195 C1194 1.390 . S
C1195 C1196 1.394 . S
C1195 C1201 1.465 . S
C1196 C1191 1.399 . S
C1196 C1195 1.394 . S
C1196 C1197 1.516 . S
C1197 C1196 1.516 . S
C1197 C1198 1.502 . S
C1197 C1199 1.561 . S
C1197 C1200 1.526 . S
C1198 H1182 0.959 . S
C1198 H1183 0.959 . S
C1198 H1184 0.961 . S
C1198 C1197 1.502 . S
C1199 H1185 0.960 . S
C1199 H1186 0.961 . S
C1199 H1187 0.959 . S
C1199 C1197 1.561 . S
C1200 C1197 1.526 . S
C1200 C1201 1.396 . S
C1200 C1205 1.390 . S
C1201 C1195 1.465 . S
C1201 C1200 1.396 . S
C1201 C1202 1.399 . S
C1202 H1188 0.929 . S
C1202 C1201 1.399 . S
C1202 C1203 1.385 . S
C1203 H1189 0.931 . S
C1203 C1202 1.385 . S
C1203 C1204 1.389 . S
C1204 C1203 1.389 . S
C1204 C1205 1.387 . S
C1205 H1190 0.930 . S
C1205 C1200 1.390 . S
C1205 C1204 1.387 . S
H1206 C1218 0.930 . S
H1207 C1220 0.930 . S
H1208 C1221 0.930 . S
H1209 C1225 0.959 . S
H1210 C1225 0.959 . S
H1211 C1225 0.961 . S
H1212 C1226 0.960 . S
H1213 C1226 0.961 . S
H1214 C1226 0.959 . S
H1215 C1229 0.929 . S
H1216 C1230 0.931 . S
H1217 C1232 0.930 . S
C1218 H1206 0.930 . S
C1218 C1219 1.399 . S
C1218 C1223 1.399 . S
C1219 C1218 1.399 . S
C1219 C1220 1.376 . S
C1220 H1207 0.930 . S
C1220 C1219 1.376 . S
C1220 C1221 1.388 . S
C1221 H1208 0.930 . S
C1221 C1220 1.388 . S
C1221 C1222 1.390 . S
C1222 C1221 1.390 . S
C1222 C1223 1.394 . S
C1222 C1228 1.465 . S
C1223 C1218 1.399 . S
C1223 C1222 1.394 . S
C1223 C1224 1.516 . S
C1224 C1223 1.516 . S
C1224 C1225 1.502 . S
C1224 C1226 1.561 . S
C1224 C1227 1.526 . S
C1225 H1209 0.959 . S
C1225 H1210 0.959 . S
C1225 H1211 0.961 . S
C1225 C1224 1.502 . S
C1226 H1212 0.960 . S
C1226 H1213 0.961 . S
C1226 H1214 0.959 . S
C1226 C1224 1.561 . S
C1227 C1224 1.526 . S
C1227 C1228 1.396 . S
C1227 C1232 1.390 . S
C1228 C1222 1.465 . S
C1228 C1227 1.396 . S
C1228 C1229 1.399 . S
C1229 H1215 0.929 . S
C1229 C1228 1.399 . S
C1229 C1230 1.385 . S
C1230 H1216 0.931 . S
C1230 C1229 1.385 . S
C1230 C1231 1.389 . S
C1231 C1230 1.389 . S
C1231 C1232 1.387 . S
C1232 H1217 0.930 . S
C1232 C1227 1.390 . S
C1232 C1231 1.387 . S
H1233 C1245 0.930 1_554 S
H1234 C1247 0.930 . S
H1235 C1248 0.930 . S
H1236 C1252 0.959 . S
H1237 C1252 0.959 . S
H1238 C1252 0.961 . S
H1239 C1253 0.960 . S
H1240 C1253 0.961 . S
H1241 C1253 0.959 . S
H1242 C1256 0.929 . S
H1243 C1257 0.931 . S
H1244 C1259 0.930 . S
C1245 H1233 0.930 1_556 S
C1245 C1246 1.399 . S
C1245 C1250 1.399 . S
C1246 C1245 1.399 . S
C1246 C1247 1.376 . S
C1247 H1234 0.930 . S
C1247 C1246 1.376 . S
C1247 C1248 1.388 . S
C1248 H1235 0.930 . S
C1248 C1247 1.388 . S
C1248 C1249 1.390 . S
C1249 C1248 1.390 . S
C1249 C1250 1.394 . S
C1249 C1255 1.465 . S
C1250 C1245 1.399 . S
C1250 C1249 1.394 . S
C1250 C1251 1.516 . S
C1251 C1250 1.516 . S
C1251 C1252 1.502 . S
C1251 C1253 1.561 . S
C1251 C1254 1.526 . S
C1252 H1236 0.959 . S
C1252 H1237 0.959 . S
C1252 H1238 0.961 . S
C1252 C1251 1.502 . S
C1253 H1239 0.960 . S
C1253 H1240 0.961 . S
C1253 H1241 0.959 . S
C1253 C1251 1.561 . S
C1254 C1251 1.526 . S
C1254 C1255 1.396 . S
C1254 C1259 1.390 . S
C1255 C1249 1.465 . S
C1255 C1254 1.396 . S
C1255 C1256 1.399 . S
C1256 H1242 0.929 . S
C1256 C1255 1.399 . S
C1256 C1257 1.385 . S
C1257 H1243 0.931 . S
C1257 C1256 1.385 . S
C1257 C1258 1.389 . S
C1258 C1257 1.389 . S
C1258 C1259 1.387 . S
C1259 H1244 0.930 . S
C1259 C1254 1.390 . S
C1259 C1258 1.387 . S
H1260 C1272 0.930 . S
H1261 C1274 0.930 . S
H1262 C1275 0.930 . S
H1263 C1279 0.959 . S
H1264 C1279 0.959 . S
H1265 C1279 0.961 . S
H1266 C1280 0.960 . S
H1267 C1280 0.961 . S
H1268 C1280 0.959 . S
H1269 C1283 0.929 . S
H1270 C1284 0.931 . S
H1271 C1286 0.930 . S
C1272 H1260 0.930 . S
C1272 C1273 1.399 . S
C1272 C1277 1.399 . S
C1273 C1272 1.399 . S
C1273 C1274 1.376 . S
C1274 H1261 0.930 . S
C1274 C1273 1.376 . S
C1274 C1275 1.388 . S
C1275 H1262 0.930 . S
C1275 C1274 1.388 . S
C1275 C1276 1.390 . S
C1276 C1275 1.390 . S
C1276 C1277 1.394 . S
C1276 C1282 1.465 . S
C1277 C1272 1.399 . S
C1277 C1276 1.394 . S
C1277 C1278 1.516 . S
C1278 C1277 1.516 . S
C1278 C1279 1.502 . S
C1278 C1280 1.561 . S
C1278 C1281 1.526 . S
C1279 H1263 0.959 . S
C1279 H1264 0.959 . S
C1279 H1265 0.961 . S
C1279 C1278 1.502 . S
C1280 H1266 0.960 . S
C1280 H1267 0.961 . S
C1280 H1268 0.959 . S
C1280 C1278 1.561 . S
C1281 C1278 1.526 . S
C1281 C1282 1.396 . S
C1281 C1286 1.390 . S
C1282 C1276 1.465 . S
C1282 C1281 1.396 . S
C1282 C1283 1.399 . S
C1283 H1269 0.929 . S
C1283 C1282 1.399 . S
C1283 C1284 1.385 . S
C1284 H1270 0.931 . S
C1284 C1283 1.385 . S
C1284 C1285 1.389 . S
C1285 C1284 1.389 . S
C1285 C1286 1.387 . S
C1286 H1271 0.930 . S
C1286 C1281 1.390 . S
C1286 C1285 1.387 . S
H1287 C1299 0.930 . S
H1288 C1301 0.930 . S
H1289 C1302 0.930 . S
H1290 C1306 0.959 . S
H1291 C1306 0.959 . S
H1292 C1306 0.961 . S
H1293 C1307 0.960 . S
H1294 C1307 0.961 . S
H1295 C1307 0.959 . S
H1296 C1310 0.929 . S
H1297 C1311 0.931 . S
H1298 C1313 0.930 1_554 S
C1299 H1287 0.930 . S
C1299 C1300 1.399 . S
C1299 C1304 1.399 . S
C1300 C1299 1.399 . S
C1300 C1301 1.376 . S
C1301 H1288 0.930 . S
C1301 C1300 1.376 . S
C1301 C1302 1.388 . S
C1302 H1289 0.930 . S
C1302 C1301 1.388 . S
C1302 C1303 1.390 . S
C1303 C1302 1.390 . S
C1303 C1304 1.394 . S
C1303 C1309 1.465 . S
C1304 C1299 1.399 . S
C1304 C1303 1.394 . S
C1304 C1305 1.516 . S
C1305 C1304 1.516 . S
C1305 C1306 1.502 . S
C1305 C1307 1.561 . S
C1305 C1308 1.526 . S
C1306 H1290 0.959 . S
C1306 H1291 0.959 . S
C1306 H1292 0.961 . S
C1306 C1305 1.502 . S
C1307 H1293 0.960 . S
C1307 H1294 0.961 . S
C1307 H1295 0.959 . S
C1307 C1305 1.561 . S
C1308 C1305 1.526 . S
C1308 C1309 1.396 . S
C1308 C1313 1.390 . S
C1309 C1303 1.465 . S
C1309 C1308 1.396 . S
C1309 C1310 1.399 . S
C1310 H1296 0.929 . S
C1310 C1309 1.399 . S
C1310 C1311 1.385 . S
C1311 H1297 0.931 . S
C1311 C1310 1.385 . S
C1311 C1312 1.389 . S
C1312 C1311 1.389 . S
C1312 C1313 1.387 . S
C1313 H1298 0.930 1_556 S
C1313 C1308 1.390 . S
C1313 C1312 1.387 . S
H1314 C1326 0.930 . S
H1315 C1328 0.930 . S
H1316 C1329 0.930 . S
H1317 C1333 0.959 . S
H1318 C1333 0.959 . S
H1319 C1333 0.961 . S
H1320 C1334 0.962 1_455 S
H1321 C1334 0.960 . S
H1322 C1334 0.960 1_455 S
H1323 C1337 0.929 1_455 S
H1324 C1338 0.931 . S
H1325 C1340 0.930 . S
C1326 H1314 0.930 . S
C1326 C1327 1.399 . S
C1326 C1331 1.399 . S
C1327 C1326 1.399 . S
C1327 C1328 1.376 . S
C1328 H1315 0.930 . S
C1328 C1327 1.376 . S
C1328 C1329 1.388 . S
C1329 H1316 0.930 . S
C1329 C1328 1.388 . S
C1329 C1330 1.390 . S
C1330 C1329 1.390 . S
C1330 C1331 1.394 . S
C1330 C1336 1.465 1_455 S
C1331 C1326 1.399 . S
C1331 C1330 1.394 . S
C1331 C1332 1.516 1_455 S
C1332 C1331 1.516 1_655 S
C1332 C1333 1.502 . S
C1332 C1334 1.559 . S
C1332 C1335 1.526 . S
C1333 H1317 0.959 . S
C1333 H1318 0.959 . S
C1333 H1319 0.961 . S
C1333 C1332 1.502 . S
C1334 H1320 0.962 1_655 S
C1334 H1321 0.960 . S
C1334 H1322 0.960 1_655 S
C1334 C1332 1.559 . S
C1335 C1332 1.526 . S
C1335 C1336 1.396 . S
C1335 C1340 1.390 . S
C1336 C1330 1.465 1_655 S
C1336 C1335 1.396 . S
C1336 C1337 1.399 . S
C1337 H1323 0.929 1_655 S
C1337 C1336 1.399 . S
C1337 C1338 1.385 . S
C1338 H1324 0.931 . S
C1338 C1337 1.385 . S
C1338 C1339 1.389 . S
C1339 C1338 1.389 . S
C1339 C1340 1.387 . S
C1340 H1325 0.930 . S
C1340 C1335 1.390 . S
C1340 C1339 1.387 . S
H1341 C1353 0.930 . S
H1342 C1355 0.930 . S
H1343 C1356 0.930 . S
H1344 C1360 0.959 . S
H1345 C1360 0.959 . S
H1346 C1360 0.961 . S
H1347 C1361 0.960 . S
H1348 C1361 0.961 . S
H1349 C1361 0.959 . S
H1350 C1364 0.929 . S
H1351 C1365 0.931 . S
H1352 C1367 0.930 . S
C1353 H1341 0.930 . S
C1353 C1354 1.399 . S
C1353 C1358 1.399 . S
C1354 C1353 1.399 . S
C1354 C1355 1.376 . S
C1355 H1342 0.930 . S
C1355 C1354 1.376 . S
C1355 C1356 1.388 . S
C1356 H1343 0.930 . S
C1356 C1355 1.388 . S
C1356 C1357 1.390 . S
C1357 C1356 1.390 . S
C1357 C1358 1.394 . S
C1357 C1363 1.465 . S
C1358 C1353 1.399 . S
C1358 C1357 1.394 . S
C1358 C1359 1.516 . S
C1359 C1358 1.516 . S
C1359 C1360 1.502 . S
C1359 C1361 1.561 . S
C1359 C1362 1.526 . S
C1360 H1344 0.959 . S
C1360 H1345 0.959 . S
C1360 H1346 0.961 . S
C1360 C1359 1.502 . S
C1361 H1347 0.960 . S
C1361 H1348 0.961 . S
C1361 H1349 0.959 . S
C1361 C1359 1.561 . S
C1362 C1359 1.526 . S
C1362 C1363 1.396 . S
C1362 C1367 1.390 . S
C1363 C1357 1.465 . S
C1363 C1362 1.396 . S
C1363 C1364 1.399 . S
C1364 H1350 0.929 . S
C1364 C1363 1.399 . S
C1364 C1365 1.385 . S
C1365 H1351 0.931 . S
C1365 C1364 1.385 . S
C1365 C1366 1.389 . S
C1366 C1365 1.389 . S
C1366 C1367 1.387 . S
C1367 H1352 0.930 . S
C1367 C1362 1.390 . S
C1367 C1366 1.387 . S
H1368 C1380 0.930 . S
H1369 C1382 0.930 . S
H1370 C1383 0.930 . S
H1371 C1387 0.959 . S
H1372 C1387 0.959 . S
H1373 C1387 0.961 . S
H1374 C1388 0.960 . S
H1375 C1388 0.961 . S
H1376 C1388 0.959 . S
H1377 C1391 0.914 1_545 S
H1378 C1392 0.931 . S
H1379 C1394 0.930 . S
C1380 H1368 0.930 . S
C1380 C1381 1.399 . S
C1380 C1385 1.399 . S
C1381 C1380 1.399 . S
C1381 C1382 1.376 . S
C1382 H1369 0.930 . S
C1382 C1381 1.376 . S
C1382 C1383 1.388 . S
C1383 H1370 0.930 . S
C1383 C1382 1.388 . S
C1383 C1384 1.390 . S
C1384 C1383 1.390 . S
C1384 C1385 1.394 . S
C1384 C1390 1.465 1_545 S
C1385 C1380 1.399 . S
C1385 C1384 1.394 . S
C1385 C1386 1.516 1_545 S
C1386 C1385 1.516 1_565 S
C1386 C1387 1.502 . S
C1386 C1388 1.561 . S
C1386 C1389 1.526 . S
C1387 H1371 0.959 . S
C1387 H1372 0.959 . S
C1387 H1373 0.961 . S
C1387 C1386 1.502 . S
C1388 H1374 0.960 . S
C1388 H1375 0.961 . S
C1388 H1376 0.959 . S
C1388 C1386 1.561 . S
C1389 C1386 1.526 . S
C1389 C1390 1.396 . S
C1389 C1394 1.390 . S
C1390 C1384 1.465 1_565 S
C1390 C1389 1.396 . S
C1390 C1391 1.403 . S
C1391 H1377 0.914 1_565 S
C1391 C1390 1.403 . S
C1391 C1392 1.396 . S
C1392 H1378 0.931 . S
C1392 C1391 1.396 . S
C1392 C1393 1.389 . S
C1393 C1392 1.389 . S
C1393 C1394 1.387 . S
C1394 H1379 0.930 . S
C1394 C1389 1.390 . S
C1394 C1393 1.387 . S
H1395 C1407 0.930 . S
H1396 C1409 0.930 . S
H1397 C1410 0.930 . S
H1398 C1414 0.959 . S
H1399 C1414 0.959 . S
H1400 C1414 0.961 . S
H1401 C1415 0.960 . S
H1402 C1415 0.961 . S
H1403 C1415 0.959 . S
H1404 C1418 0.929 . S
H1405 C1419 0.931 . S
H1406 C1421 0.930 . S
C1407 H1395 0.930 . S
C1407 C1408 1.399 . S
C1407 C1412 1.399 . S
C1408 C1407 1.399 . S
C1408 C1409 1.376 . S
C1409 H1396 0.930 . S
C1409 C1408 1.376 . S
C1409 C1410 1.388 1_565 S
C1410 H1397 0.930 . S
C1410 C1409 1.388 1_545 S
C1410 C1411 1.390 . S
C1411 C1410 1.390 . S
C1411 C1412 1.394 1_545 S
C1411 C1417 1.465 . S
C1412 C1407 1.399 . S
C1412 C1411 1.394 1_565 S
C1412 C1413 1.516 . S
C1413 C1412 1.516 . S
C1413 C1414 1.502 . S
C1413 C1415 1.561 . S
C1413 C1416 1.526 1_565 S
C1414 H1398 0.959 . S
C1414 H1399 0.959 . S
C1414 H1400 0.961 . S
C1414 C1413 1.502 . S
C1415 H1401 0.960 . S
C1415 H1402 0.961 . S
C1415 H1403 0.959 . S
C1415 C1413 1.561 . S
C1416 C1413 1.526 1_545 S
C1416 C1417 1.396 . S
C1416 C1421 1.390 . S
C1417 C1411 1.465 . S
C1417 C1416 1.396 . S
C1417 C1418 1.399 . S
C1418 H1404 0.929 . S
C1418 C1417 1.399 . S
C1418 C1419 1.385 . S
C1419 H1405 0.931 . S
C1419 C1418 1.385 . S
C1419 C1420 1.389 . S
C1420 C1419 1.389 . S
C1420 C1421 1.387 . S
C1421 H1406 0.930 . S
C1421 C1416 1.390 . S
C1421 C1420 1.387 . S
H1422 C1434 0.930 . S
H1423 C1436 0.930 . S
H1424 C1437 0.930 . S
H1425 C1441 0.959 . S
H1426 C1441 0.959 1_455 S
H1427 C1441 0.961 . S
H1428 C1442 0.960 . S
H1429 C1442 0.961 . S
H1430 C1442 0.959 . S
H1431 C1445 0.929 . S
H1432 C1446 0.931 . S
H1433 C1448 0.930 . S
C1434 H1422 0.930 . S
C1434 C1435 1.399 . S
C1434 C1439 1.399 . S
C1435 C1434 1.399 . S
C1435 C1436 1.376 . S
C1436 H1423 0.930 . S
C1436 C1435 1.376 . S
C1436 C1437 1.388 . S
C1437 H1424 0.930 . S
C1437 C1436 1.388 . S
C1437 C1438 1.390 . S
C1438 C1437 1.390 . S
C1438 C1439 1.394 . S
C1438 C1444 1.465 1_655 S
C1439 C1434 1.399 . S
C1439 C1438 1.394 . S
C1439 C1440 1.516 1_655 S
C1440 C1439 1.516 1_455 S
C1440 C1441 1.502 1_455 S
C1440 C1442 1.561 . S
C1440 C1443 1.526 . S
C1441 H1425 0.959 . S
C1441 H1426 0.959 1_655 S
C1441 H1427 0.961 . S
C1441 C1440 1.502 1_655 S
C1442 H1428 0.960 . S
C1442 H1429 0.961 . S
C1442 H1430 0.959 . S
C1442 C1440 1.561 . S
C1443 C1440 1.526 . S
C1443 C1444 1.396 . S
C1443 C1448 1.390 . S
C1444 C1438 1.465 1_455 S
C1444 C1443 1.396 . S
C1444 C1445 1.399 . S
C1445 H1431 0.929 . S
C1445 C1444 1.399 . S
C1445 C1446 1.385 . S
C1446 H1432 0.931 . S
C1446 C1445 1.385 . S
C1446 C1447 1.389 . S
C1447 C1446 1.389 . S
C1447 C1448 1.387 . S
C1448 H1433 0.930 . S
C1448 C1443 1.390 . S
C1448 C1447 1.387 . S
H1449 C1461 0.930 . S
H1450 C1463 0.930 . S
H1451 C1464 0.930 . S
H1452 C1468 0.959 . S
H1453 C1468 0.959 . S
H1454 C1468 0.961 . S
H1455 C1469 0.960 . S
H1456 C1469 0.961 . S
H1457 C1469 0.959 . S
H1458 C1472 0.929 . S
H1459 C1473 0.931 . S
H1460 C1475 0.930 . S
C1461 H1449 0.930 . S
C1461 C1462 1.399 . S
C1461 C1466 1.399 . S
C1462 C1461 1.399 . S
C1462 C1463 1.376 . S
C1463 H1450 0.930 . S
C1463 C1462 1.376 . S
C1463 C1464 1.388 . S
C1464 H1451 0.930 . S
C1464 C1463 1.388 . S
C1464 C1465 1.390 . S
C1465 C1464 1.390 . S
C1465 C1466 1.394 . S
C1465 C1471 1.465 . S
C1466 C1461 1.399 . S
C1466 C1465 1.394 . S
C1466 C1467 1.516 . S
C1467 C1466 1.516 . S
C1467 C1468 1.502 . S
C1467 C1469 1.561 . S
C1467 C1470 1.526 . S
C1468 H1452 0.959 . S
C1468 H1453 0.959 . S
C1468 H1454 0.961 . S
C1468 C1467 1.502 . S
C1469 H1455 0.960 . S
C1469 H1456 0.961 . S
C1469 H1457 0.959 . S
C1469 C1467 1.561 . S
C1470 C1467 1.526 . S
C1470 C1471 1.396 . S
C1470 C1475 1.390 . S
C1471 C1465 1.465 . S
C1471 C1470 1.396 . S
C1471 C1472 1.399 . S
C1472 H1458 0.929 . S
C1472 C1471 1.399 . S
C1472 C1473 1.385 . S
C1473 H1459 0.931 . S
C1473 C1472 1.385 . S
C1473 C1474 1.389 . S
C1474 C1473 1.389 . S
C1474 C1475 1.387 . S
C1475 H1460 0.930 . S
C1475 C1470 1.390 . S
C1475 C1474 1.387 . S
H1476 C1488 0.930 . S
H1477 C1490 0.930 . S
H1478 C1491 0.930 . S
H1479 C1495 0.959 . S
H1480 C1495 0.959 . S
H1481 C1495 0.961 . S
H1482 C1496 0.960 . S
H1483 C1496 0.961 . S
H1484 C1496 0.959 . S
H1485 C1499 0.929 . S
H1486 C1500 0.931 . S
H1487 C1502 0.930 . S
C1488 H1476 0.930 . S
C1488 C1489 1.399 . S
C1488 C1493 1.399 . S
C1489 C1488 1.399 . S
C1489 C1490 1.376 . S
C1490 H1477 0.930 . S
C1490 C1489 1.376 . S
C1490 C1491 1.388 . S
C1491 H1478 0.930 . S
C1491 C1490 1.388 . S
C1491 C1492 1.390 . S
C1492 C1491 1.390 . S
C1492 C1493 1.394 . S
C1492 C1498 1.465 . S
C1493 C1488 1.399 . S
C1493 C1492 1.394 . S
C1493 C1494 1.516 . S
C1494 C1493 1.516 . S
C1494 C1495 1.502 . S
C1494 C1496 1.561 . S
C1494 C1497 1.526 . S
C1495 H1479 0.959 . S
C1495 H1480 0.959 . S
C1495 H1481 0.961 . S
C1495 C1494 1.502 . S
C1496 H1482 0.960 . S
C1496 H1483 0.961 . S
C1496 H1484 0.959 . S
C1496 C1494 1.561 . S
C1497 C1494 1.526 . S
C1497 C1498 1.396 . S
C1497 C1502 1.390 . S
C1498 C1492 1.465 . S
C1498 C1497 1.396 . S
C1498 C1499 1.399 . S
C1499 H1485 0.929 . S
C1499 C1498 1.399 . S
C1499 C1500 1.385 . S
C1500 H1486 0.931 . S
C1500 C1499 1.385 . S
C1500 C1501 1.389 . S
C1501 C1500 1.389 . S
C1501 C1502 1.387 . S
C1502 H1487 0.930 . S
C1502 C1497 1.390 . S
C1502 C1501 1.387 . S
H1503 C1515 0.930 . S
H1504 C1517 0.930 . S
H1505 C1518 0.930 . S
H1506 C1522 0.959 . S
H1507 C1522 0.959 . S
H1508 C1522 0.961 . S
H1509 C1523 0.960 . S
H1510 C1523 0.961 . S
H1511 C1523 0.959 . S
H1512 C1526 0.929 . S
H1513 C1527 0.931 . S
H1514 C1529 0.930 . S
C1515 H1503 0.930 . S
C1515 C1516 1.399 . S
C1515 C1520 1.399 . S
C1516 C1515 1.399 . S
C1516 C1517 1.376 . S
C1517 H1504 0.930 . S
C1517 C1516 1.376 . S
C1517 C1518 1.388 . S
C1518 H1505 0.930 . S
C1518 C1517 1.388 . S
C1518 C1519 1.390 . S
C1519 C1518 1.390 . S
C1519 C1520 1.394 . S
C1519 C1525 1.465 . S
C1520 C1515 1.399 . S
C1520 C1519 1.394 . S
C1520 C1521 1.516 . S
C1521 C1520 1.516 . S
C1521 C1522 1.502 . S
C1521 C1523 1.561 . S
C1521 C1524 1.526 . S
C1522 H1506 0.959 . S
C1522 H1507 0.959 . S
C1522 H1508 0.961 . S
C1522 C1521 1.502 . S
C1523 H1509 0.960 . S
C1523 H1510 0.961 . S
C1523 H1511 0.959 . S
C1523 C1521 1.561 . S
C1524 C1521 1.526 . S
C1524 C1525 1.396 . S
C1524 C1529 1.390 . S
C1525 C1519 1.465 . S
C1525 C1524 1.396 . S
C1525 C1526 1.399 . S
C1526 H1512 0.929 . S
C1526 C1525 1.399 . S
C1526 C1527 1.385 . S
C1527 H1513 0.931 . S
C1527 C1526 1.385 . S
C1527 C1528 1.389 . S
C1528 C1527 1.389 . S
C1528 C1529 1.387 . S
C1529 H1514 0.930 . S
C1529 C1524 1.390 . S
C1529 C1528 1.387 . S
H1530 C1542 0.930 . S
H1531 C1544 0.930 . S
H1532 C1545 0.930 . S
H1533 C1549 0.959 . S
H1534 C1549 0.959 . S
H1535 C1549 0.961 . S
H1536 C1550 0.960 . S
H1537 C1550 0.961 . S
H1538 C1550 0.959 . S
H1539 C1553 0.929 . S
H1540 C1554 0.931 . S
H1541 C1556 0.930 . S
C1542 H1530 0.930 . S
C1542 C1543 1.399 . S
C1542 C1547 1.399 . S
C1543 C1542 1.399 . S
C1543 C1544 1.376 . S
C1544 H1531 0.930 . S
C1544 C1543 1.376 . S
C1544 C1545 1.388 . S
C1545 H1532 0.930 . S
C1545 C1544 1.388 . S
C1545 C1546 1.390 . S
C1546 C1545 1.390 . S
C1546 C1547 1.394 . S
C1546 C1552 1.465 . S
C1547 C1542 1.399 . S
C1547 C1546 1.394 . S
C1547 C1548 1.516 . S
C1548 C1547 1.516 . S
C1548 C1549 1.502 . S
C1548 C1550 1.561 . S
C1548 C1551 1.526 . S
C1549 H1533 0.959 . S
C1549 H1534 0.959 . S
C1549 H1535 0.961 . S
C1549 C1548 1.502 . S
C1550 H1536 0.960 . S
C1550 H1537 0.961 . S
C1550 H1538 0.959 . S
C1550 C1548 1.561 . S
C1551 C1548 1.526 . S
C1551 C1552 1.396 . S
C1551 C1556 1.390 . S
C1552 C1546 1.465 . S
C1552 C1551 1.396 . S
C1552 C1553 1.399 . S
C1553 H1539 0.929 . S
C1553 C1552 1.399 . S
C1553 C1554 1.385 . S
C1554 H1540 0.931 . S
C1554 C1553 1.385 . S
C1554 C1555 1.389 . S
C1555 C1554 1.389 . S
C1555 C1556 1.387 . S
C1556 H1541 0.930 . S
C1556 C1551 1.390 . S
C1556 C1555 1.387 . S
H1557 C1569 0.930 . S
H1558 C1571 0.930 . S
H1559 C1572 0.930 . S
H1560 C1576 0.959 . S
H1561 C1576 0.959 . S
H1562 C1576 0.961 . S
H1563 C1577 0.960 . S
H1564 C1577 0.961 . S
H1565 C1577 0.959 . S
H1566 C1580 0.929 . S
H1567 C1581 0.931 . S
H1568 C1583 0.930 . S
C1569 H1557 0.930 . S
C1569 C1570 1.399 . S
C1569 C1574 1.399 . S
C1570 C1569 1.399 . S
C1570 C1571 1.376 . S
C1571 H1558 0.930 . S
C1571 C1570 1.376 . S
C1571 C1572 1.388 . S
C1572 H1559 0.930 . S
C1572 C1571 1.388 . S
C1572 C1573 1.390 . S
C1573 C1572 1.390 . S
C1573 C1574 1.394 . S
C1573 C1579 1.465 . S
C1574 C1569 1.399 . S
C1574 C1573 1.394 . S
C1574 C1575 1.516 . S
C1575 C1574 1.516 . S
C1575 C1576 1.502 . S
C1575 C1577 1.561 . S
C1575 C1578 1.526 . S
C1576 H1560 0.959 . S
C1576 H1561 0.959 . S
C1576 H1562 0.961 . S
C1576 C1575 1.502 . S
C1577 H1563 0.960 . S
C1577 H1564 0.961 . S
C1577 H1565 0.959 . S
C1577 C1575 1.561 . S
C1578 C1575 1.526 . S
C1578 C1579 1.396 . S
C1578 C1583 1.390 . S
C1579 C1573 1.465 . S
C1579 C1578 1.396 . S
C1579 C1580 1.399 . S
C1580 H1566 0.929 . S
C1580 C1579 1.399 . S
C1580 C1581 1.385 . S
C1581 H1567 0.931 . S
C1581 C1580 1.385 . S
C1581 C1582 1.389 . S
C1582 C1581 1.389 . S
C1582 C1583 1.387 . S
C1583 H1568 0.930 . S
C1583 C1578 1.390 . S
C1583 C1582 1.387 . S
H1584 C1596 0.930 . S
H1585 C1598 0.930 . S
H1586 C1599 0.930 . S
H1587 C1603 0.959 . S
H1588 C1603 0.959 . S
H1589 C1603 0.961 . S
H1590 C1604 0.960 . S
H1591 C1604 0.961 . S
H1592 C1604 0.959 . S
H1593 C1607 0.929 . S
H1594 C1608 0.931 . S
H1595 C1610 0.930 . S
C1596 H1584 0.930 . S
C1596 C1597 1.399 . S
C1596 C1601 1.399 . S
C1597 C1596 1.399 . S
C1597 C1598 1.376 . S
C1598 H1585 0.930 . S
C1598 C1597 1.376 . S
C1598 C1599 1.388 . S
C1599 H1586 0.930 . S
C1599 C1598 1.388 . S
C1599 C1600 1.390 . S
C1600 C1599 1.390 . S
C1600 C1601 1.394 . S
C1600 C1606 1.465 . S
C1601 C1596 1.399 . S
C1601 C1600 1.394 . S
C1601 C1602 1.516 . S
C1602 C1601 1.516 . S
C1602 C1603 1.502 . S
C1602 C1604 1.561 . S
C1602 C1605 1.526 . S
C1603 H1587 0.959 . S
C1603 H1588 0.959 . S
C1603 H1589 0.961 . S
C1603 C1602 1.502 . S
C1604 H1590 0.960 . S
C1604 H1591 0.961 . S
C1604 H1592 0.959 . S
C1604 C1602 1.561 . S
C1605 C1602 1.526 . S
C1605 C1606 1.396 . S
C1605 C1610 1.390 . S
C1606 C1600 1.465 . S
C1606 C1605 1.396 . S
C1606 C1607 1.399 . S
C1607 H1593 0.929 . S
C1607 C1606 1.399 . S
C1607 C1608 1.385 . S
C1608 H1594 0.931 . S
C1608 C1607 1.385 . S
C1608 C1609 1.389 . S
C1609 C1608 1.389 . S
C1609 C1610 1.387 . S
C1610 H1595 0.930 . S
C1610 C1605 1.390 . S
C1610 C1609 1.387 . S
H1611 C1623 0.930 . S
H1612 C1625 0.930 . S
H1613 C1626 0.930 . S
H1614 C1630 0.959 . S
H1615 C1630 0.959 . S
H1616 C1630 0.961 . S
H1617 C1631 0.960 . S
H1618 C1631 0.961 . S
H1619 C1631 0.959 . S
H1620 C1634 0.929 . S
H1621 C1635 0.931 . S
H1622 C1637 0.930 . S
C1623 H1611 0.930 . S
C1623 C1624 1.399 . S
C1623 C1628 1.399 . S
C1624 C1623 1.399 . S
C1624 C1625 1.376 . S
C1625 H1612 0.930 . S
C1625 C1624 1.376 . S
C1625 C1626 1.388 . S
C1626 H1613 0.930 . S
C1626 C1625 1.388 . S
C1626 C1627 1.390 . S
C1627 C1626 1.390 . S
C1627 C1628 1.394 . S
C1627 C1633 1.465 . S
C1628 C1623 1.399 . S
C1628 C1627 1.394 . S
C1628 C1629 1.516 . S
C1629 C1628 1.516 . S
C1629 C1630 1.502 . S
C1629 C1631 1.561 . S
C1629 C1632 1.526 . S
C1630 H1614 0.959 . S
C1630 H1615 0.959 . S
C1630 H1616 0.961 . S
C1630 C1629 1.502 . S
C1631 H1617 0.960 . S
C1631 H1618 0.961 . S
C1631 H1619 0.959 . S
C1631 C1629 1.561 . S
C1632 C1629 1.526 . S
C1632 C1633 1.396 . S
C1632 C1637 1.390 . S
C1633 C1627 1.465 . S
C1633 C1632 1.396 . S
C1633 C1634 1.399 . S
C1634 H1620 0.929 . S
C1634 C1633 1.399 . S
C1634 C1635 1.385 . S
C1635 H1621 0.931 . S
C1635 C1634 1.385 . S
C1635 C1636 1.389 . S
C1636 C1635 1.389 . S
C1636 C1637 1.387 . S
C1637 H1622 0.930 . S
C1637 C1632 1.390 . S
C1637 C1636 1.387 . S
H1638 C1650 0.930 . S
H1639 C1652 0.930 . S
H1640 C1653 0.930 . S
H1641 C1657 0.959 . S
H1642 C1657 0.959 . S
H1643 C1657 0.961 . S
H1644 C1658 0.960 . S
H1645 C1658 0.961 . S
H1646 C1658 0.959 . S
H1647 C1661 0.929 . S
H1648 C1662 0.931 . S
H1649 C1664 0.930 . S
C1650 H1638 0.930 . S
C1650 C1651 1.399 . S
C1650 C1655 1.399 . S
C1651 C1650 1.399 . S
C1651 C1652 1.376 . S
C1652 H1639 0.930 . S
C1652 C1651 1.376 . S
C1652 C1653 1.388 . S
C1653 H1640 0.930 . S
C1653 C1652 1.388 . S
C1653 C1654 1.390 . S
C1654 C1653 1.390 . S
C1654 C1655 1.394 . S
C1654 C1660 1.465 . S
C1655 C1650 1.399 . S
C1655 C1654 1.394 . S
C1655 C1656 1.516 . S
C1656 C1655 1.516 . S
C1656 C1657 1.502 . S
C1656 C1658 1.561 . S
C1656 C1659 1.526 . S
C1657 H1641 0.959 . S
C1657 H1642 0.959 . S
C1657 H1643 0.961 . S
C1657 C1656 1.502 . S
C1658 H1644 0.960 . S
C1658 H1645 0.961 . S
C1658 H1646 0.959 . S
C1658 C1656 1.561 . S
C1659 C1656 1.526 . S
C1659 C1660 1.396 . S
C1659 C1664 1.390 . S
C1660 C1654 1.465 . S
C1660 C1659 1.396 . S
C1660 C1661 1.399 . S
C1661 H1647 0.929 . S
C1661 C1660 1.399 . S
C1661 C1662 1.385 . S
C1662 H1648 0.931 . S
C1662 C1661 1.385 . S
C1662 C1663 1.389 . S
C1663 C1662 1.389 . S
C1663 C1664 1.387 . S
C1664 H1649 0.930 . S
C1664 C1659 1.390 . S
C1664 C1663 1.387 . S
H1665 C1677 0.930 . S
H1666 C1679 0.930 . S
H1667 C1680 0.930 . S
H1668 C1684 0.959 . S
H1669 C1684 0.959 . S
H1670 C1684 0.961 . S
H1671 C1685 0.960 . S
H1672 C1685 0.961 . S
H1673 C1685 0.959 . S
H1674 C1688 0.929 . S
H1675 C1689 0.931 . S
H1676 C1691 0.930 . S
C1677 H1665 0.930 . S
C1677 C1678 1.399 . S
C1677 C1682 1.399 . S
C1678 C1677 1.399 . S
C1678 C1679 1.376 . S
C1679 H1666 0.930 . S
C1679 C1678 1.376 . S
C1679 C1680 1.388 . S
C1680 H1667 0.930 . S
C1680 C1679 1.388 . S
C1680 C1681 1.390 . S
C1681 C1680 1.390 . S
C1681 C1682 1.394 . S
C1681 C1687 1.465 . S
C1682 C1677 1.399 . S
C1682 C1681 1.394 . S
C1682 C1683 1.516 . S
C1683 C1682 1.516 . S
C1683 C1684 1.502 . S
C1683 C1685 1.561 . S
C1683 C1686 1.526 . S
C1684 H1668 0.959 . S
C1684 H1669 0.959 . S
C1684 H1670 0.961 . S
C1684 C1683 1.502 . S
C1685 H1671 0.960 . S
C1685 H1672 0.961 . S
C1685 H1673 0.959 . S
C1685 C1683 1.561 . S
C1686 C1683 1.526 . S
C1686 C1687 1.396 . S
C1686 C1691 1.390 . S
C1687 C1681 1.465 . S
C1687 C1686 1.396 . S
C1687 C1688 1.399 . S
C1688 H1674 0.929 . S
C1688 C1687 1.399 . S
C1688 C1689 1.385 . S
C1689 H1675 0.931 . S
C1689 C1688 1.385 . S
C1689 C1690 1.389 . S
C1690 C1689 1.389 . S
C1690 C1691 1.387 . S
C1691 H1676 0.930 . S
C1691 C1686 1.390 . S
C1691 C1690 1.387 . S
H1692 C1704 0.930 . S
H1693 C1706 0.930 . S
H1694 C1707 0.930 . S
H1695 C1711 0.959 . S
H1696 C1711 0.959 . S
H1697 C1711 0.961 . S
H1698 C1712 0.960 . S
H1699 C1712 0.961 . S
H1700 C1712 0.959 . S
H1701 C1715 0.929 . S
H1702 C1716 0.931 . S
H1703 C1718 0.930 . S
C1704 H1692 0.930 . S
C1704 C1705 1.399 . S
C1704 C1709 1.399 . S
C1705 C1704 1.399 . S
C1705 C1706 1.376 . S
C1706 H1693 0.930 . S
C1706 C1705 1.376 . S
C1706 C1707 1.388 . S
C1707 H1694 0.930 . S
C1707 C1706 1.388 . S
C1707 C1708 1.390 . S
C1708 C1707 1.390 . S
C1708 C1709 1.394 . S
C1708 C1714 1.465 . S
C1709 C1704 1.399 . S
C1709 C1708 1.394 . S
C1709 C1710 1.516 . S
C1710 C1709 1.516 . S
C1710 C1711 1.502 . S
C1710 C1712 1.561 . S
C1710 C1713 1.526 . S
C1711 H1695 0.959 . S
C1711 H1696 0.959 . S
C1711 H1697 0.961 . S
C1711 C1710 1.502 . S
C1712 H1698 0.960 . S
C1712 H1699 0.961 . S
C1712 H1700 0.959 . S
C1712 C1710 1.561 . S
C1713 C1710 1.526 . S
C1713 C1714 1.396 . S
C1713 C1718 1.390 . S
C1714 C1708 1.465 . S
C1714 C1713 1.396 . S
C1714 C1715 1.399 . S
C1715 H1701 0.929 . S
C1715 C1714 1.399 . S
C1715 C1716 1.385 . S
C1716 H1702 0.931 . S
C1716 C1715 1.385 . S
C1716 C1717 1.389 . S
C1717 C1716 1.389 . S
C1717 C1718 1.387 . S
C1718 H1703 0.930 . S
C1718 C1713 1.390 . S
C1718 C1717 1.387 . S
H1719 C1731 0.930 . S
H1720 C1733 0.930 . S
H1721 C1734 0.930 . S
H1722 C1738 0.959 . S
H1723 C1738 0.959 . S
H1724 C1738 0.961 . S
H1725 C1739 0.960 . S
H1726 C1739 0.961 . S
H1727 C1739 0.959 . S
H1728 C1742 0.929 . S
H1729 C1743 0.931 . S
H1730 C1745 0.930 . S
C1731 H1719 0.930 . S
C1731 C1732 1.399 . S
C1731 C1736 1.399 . S
C1732 C1731 1.399 . S
C1732 C1733 1.376 . S
C1733 H1720 0.930 . S
C1733 C1732 1.376 . S
C1733 C1734 1.388 . S
C1734 H1721 0.930 . S
C1734 C1733 1.388 . S
C1734 C1735 1.390 . S
C1735 C1734 1.390 . S
C1735 C1736 1.394 . S
C1735 C1741 1.465 . S
C1736 C1731 1.399 . S
C1736 C1735 1.394 . S
C1736 C1737 1.516 . S
C1737 C1736 1.516 . S
C1737 C1738 1.502 . S
C1737 C1739 1.561 . S
C1737 C1740 1.526 . S
C1738 H1722 0.959 . S
C1738 H1723 0.959 . S
C1738 H1724 0.961 . S
C1738 C1737 1.502 . S
C1739 H1725 0.960 . S
C1739 H1726 0.961 . S
C1739 H1727 0.959 . S
C1739 C1737 1.561 . S
C1740 C1737 1.526 . S
C1740 C1741 1.396 . S
C1740 C1745 1.390 . S
C1741 C1735 1.465 . S
C1741 C1740 1.396 . S
C1741 C1742 1.399 . S
C1742 H1728 0.929 . S
C1742 C1741 1.399 . S
C1742 C1743 1.385 . S
C1743 H1729 0.931 . S
C1743 C1742 1.385 . S
C1743 C1744 1.389 . S
C1744 C1743 1.389 . S
C1744 C1745 1.387 . S
C1745 H1730 0.930 . S
C1745 C1740 1.390 . S
C1745 C1744 1.387 . S
H1746 C1758 0.930 . S
H1747 C1760 0.930 . S
H1748 C1761 0.930 . S
H1749 C1765 0.959 . S
H1750 C1765 0.959 . S
H1751 C1765 0.961 . S
H1752 C1766 0.960 . S
H1753 C1766 0.961 . S
H1754 C1766 0.959 . S
H1755 C1769 0.929 . S
H1756 C1770 0.931 . S
H1757 C1772 0.930 . S
C1758 H1746 0.930 . S
C1758 C1759 1.399 . S
C1758 C1763 1.399 . S
C1759 C1758 1.399 . S
C1759 C1760 1.376 . S
C1760 H1747 0.930 . S
C1760 C1759 1.376 . S
C1760 C1761 1.388 . S
C1761 H1748 0.930 . S
C1761 C1760 1.388 . S
C1761 C1762 1.390 . S
C1762 C1761 1.390 . S
C1762 C1763 1.394 . S
C1762 C1768 1.465 . S
C1763 C1758 1.399 . S
C1763 C1762 1.394 . S
C1763 C1764 1.516 . S
C1764 C1763 1.516 . S
C1764 C1765 1.502 . S
C1764 C1766 1.561 . S
C1764 C1767 1.526 . S
C1765 H1749 0.959 . S
C1765 H1750 0.959 . S
C1765 H1751 0.961 . S
C1765 C1764 1.502 . S
C1766 H1752 0.960 . S
C1766 H1753 0.961 . S
C1766 H1754 0.959 . S
C1766 C1764 1.561 . S
C1767 C1764 1.526 . S
C1767 C1768 1.396 . S
C1767 C1772 1.390 . S
C1768 C1762 1.465 . S
C1768 C1767 1.396 . S
C1768 C1769 1.399 . S
C1769 H1755 0.929 . S
C1769 C1768 1.399 . S
C1769 C1770 1.385 . S
C1770 H1756 0.931 . S
C1770 C1769 1.385 . S
C1770 C1771 1.389 . S
C1771 C1770 1.389 . S
C1771 C1772 1.387 . S
C1772 H1757 0.930 . S
C1772 C1767 1.390 . S
C1772 C1771 1.387 . S
H1773 C1785 0.930 . S
H1774 C1787 0.930 . S
H1775 C1788 0.930 . S
H1776 C1792 0.959 . S
H1777 C1792 0.959 . S
H1778 C1792 0.961 . S
H1779 C1793 0.960 . S
H1780 C1793 0.961 . S
H1781 C1793 0.959 . S
H1782 C1796 0.929 . S
H1783 C1797 0.931 . S
H1784 C1799 0.930 . S
C1785 H1773 0.930 . S
C1785 C1786 1.399 . S
C1785 C1790 1.399 . S
C1786 C1785 1.399 . S
C1786 C1787 1.376 . S
C1787 H1774 0.930 . S
C1787 C1786 1.376 . S
C1787 C1788 1.388 . S
C1788 H1775 0.930 . S
C1788 C1787 1.388 . S
C1788 C1789 1.390 . S
C1789 C1788 1.390 . S
C1789 C1790 1.394 . S
C1789 C1795 1.465 . S
C1790 C1785 1.399 . S
C1790 C1789 1.394 . S
C1790 C1791 1.516 . S
C1791 C1790 1.516 . S
C1791 C1792 1.502 . S
C1791 C1793 1.561 . S
C1791 C1794 1.526 . S
C1792 H1776 0.959 . S
C1792 H1777 0.959 . S
C1792 H1778 0.961 . S
C1792 C1791 1.502 . S
C1793 H1779 0.960 . S
C1793 H1780 0.961 . S
C1793 H1781 0.959 . S
C1793 C1791 1.561 . S
C1794 C1791 1.526 . S
C1794 C1795 1.396 . S
C1794 C1799 1.390 . S
C1795 C1789 1.465 . S
C1795 C1794 1.396 . S
C1795 C1796 1.399 . S
C1796 H1782 0.929 . S
C1796 C1795 1.399 . S
C1796 C1797 1.385 . S
C1797 H1783 0.931 . S
C1797 C1796 1.385 . S
C1797 C1798 1.389 . S
C1798 C1797 1.389 . S
C1798 C1799 1.387 . S
C1799 H1784 0.930 . S
C1799 C1794 1.390 . S
C1799 C1798 1.387 . S
H1800 C1812 0.930 . S
H1801 C1814 0.930 . S
H1802 C1815 0.930 . S
H1803 C1819 1.000 . S
H1804 C1819 0.959 . S
H1805 C1819 0.961 . S
H1806 C1820 0.960 . S
H1807 C1820 0.961 . S
H1808 C1820 0.959 . S
H1809 C1823 0.929 . S
H1810 C1824 0.931 . S
H1811 C1826 0.930 . S
C1812 H1800 0.930 . S
C1812 C1813 1.399 . S
C1812 C1817 1.399 . S
C1813 C1812 1.399 . S
C1813 C1814 1.376 . S
C1814 H1801 0.930 . S
C1814 C1813 1.376 . S
C1814 C1815 1.388 1_455 S
C1815 H1802 0.930 . S
C1815 C1814 1.388 1_655 S
C1815 C1816 1.390 . S
C1816 C1815 1.390 . S
C1816 C1817 1.395 1_655 S
C1816 C1822 1.464 . S
C1817 C1812 1.399 . S
C1817 C1816 1.395 1_455 S
C1817 C1818 1.516 . S
C1818 C1817 1.516 . S
C1818 C1819 1.502 . S
C1818 C1820 1.561 . S
C1818 C1821 1.515 1_455 S
C1819 H1803 1.000 . S
C1819 H1804 0.959 . S
C1819 H1805 0.961 . S
C1819 C1818 1.502 . S
C1820 H1806 0.960 . S
C1820 H1807 0.961 . S
C1820 H1808 0.959 . S
C1820 C1818 1.561 . S
C1821 C1818 1.515 1_655 S
C1821 C1822 1.396 . S
C1821 C1826 1.400 . S
C1822 C1816 1.464 . S
C1822 C1821 1.396 . S
C1822 C1823 1.399 . S
C1823 H1809 0.929 . S
C1823 C1822 1.399 . S
C1823 C1824 1.385 . S
C1824 H1810 0.931 . S
C1824 C1823 1.385 . S
C1824 C1825 1.389 . S
C1825 C1824 1.389 . S
C1825 C1826 1.387 . S
C1826 H1811 0.930 . S
C1826 C1821 1.400 . S
C1826 C1825 1.387 . S
H1827 C1839 0.930 . S
H1828 C1841 0.930 . S
H1829 C1842 0.930 . S
H1830 C1846 0.959 . S
H1831 C1846 0.959 . S
H1832 C1846 0.961 . S
H1833 C1847 0.960 . S
H1834 C1847 0.961 . S
H1835 C1847 0.959 . S
H1836 C1850 0.929 . S
H1837 C1851 0.931 . S
H1838 C1853 0.930 . S
C1839 H1827 0.930 . S
C1839 C1840 1.399 . S
C1839 C1844 1.399 . S
C1840 C1839 1.399 . S
C1840 C1841 1.376 . S
C1841 H1828 0.930 . S
C1841 C1840 1.376 . S
C1841 C1842 1.388 . S
C1842 H1829 0.930 . S
C1842 C1841 1.388 . S
C1842 C1843 1.390 . S
C1843 C1842 1.390 . S
C1843 C1844 1.394 . S
C1843 C1849 1.465 . S
C1844 C1839 1.399 . S
C1844 C1843 1.394 . S
C1844 C1845 1.516 . S
C1845 C1844 1.516 . S
C1845 C1846 1.502 . S
C1845 C1847 1.561 . S
C1845 C1848 1.526 . S
C1846 H1830 0.959 . S
C1846 H1831 0.959 . S
C1846 H1832 0.961 . S
C1846 C1845 1.502 . S
C1847 H1833 0.960 . S
C1847 H1834 0.961 . S
C1847 H1835 0.959 . S
C1847 C1845 1.561 . S
C1848 C1845 1.526 . S
C1848 C1849 1.396 . S
C1848 C1853 1.390 . S
C1849 C1843 1.465 . S
C1849 C1848 1.396 . S
C1849 C1850 1.399 . S
C1850 H1836 0.929 . S
C1850 C1849 1.399 . S
C1850 C1851 1.385 . S
C1851 H1837 0.931 . S
C1851 C1850 1.385 . S
C1851 C1852 1.389 . S
C1852 C1851 1.389 . S
C1852 C1853 1.387 . S
C1853 H1838 0.930 . S
C1853 C1848 1.390 . S
C1853 C1852 1.387 . S
H1854 C1866 0.930 . S
H1855 C1868 0.930 . S
H1856 C1869 0.930 . S
H1857 C1873 0.959 . S
H1858 C1873 0.959 . S
H1859 C1873 0.961 . S
H1860 C1874 0.960 . S
H1861 C1874 0.961 . S
H1862 C1874 0.959 . S
H1863 C1877 0.929 . S
H1864 C1878 0.931 . S
H1865 C1880 0.930 . S
C1866 H1854 0.930 . S
C1866 C1867 1.399 . S
C1866 C1871 1.399 . S
C1867 C1866 1.399 . S
C1867 C1868 1.376 . S
C1868 H1855 0.930 . S
C1868 C1867 1.376 . S
C1868 C1869 1.388 . S
C1869 H1856 0.930 . S
C1869 C1868 1.388 . S
C1869 C1870 1.390 . S
C1870 C1869 1.390 . S
C1870 C1871 1.394 . S
C1870 C1876 1.465 1_545 S
C1871 C1866 1.399 . S
C1871 C1870 1.394 . S
C1871 C1872 1.516 . S
C1872 C1871 1.516 . S
C1872 C1873 1.505 1_545 S
C1872 C1874 1.559 . S
C1872 C1875 1.525 1_545 S
C1873 H1857 0.959 . S
C1873 H1858 0.959 . S
C1873 H1859 0.961 . S
C1873 C1872 1.505 1_565 S
C1874 H1860 0.960 . S
C1874 H1861 0.961 . S
C1874 H1862 0.959 . S
C1874 C1872 1.559 . S
C1875 C1872 1.525 1_565 S
C1875 C1876 1.396 . S
C1875 C1880 1.390 . S
C1876 C1870 1.465 1_565 S
C1876 C1875 1.396 . S
C1876 C1877 1.399 . S
C1877 H1863 0.929 . S
C1877 C1876 1.399 . S
C1877 C1878 1.385 . S
C1878 H1864 0.931 . S
C1878 C1877 1.385 . S
C1878 C1879 1.389 . S
C1879 C1878 1.389 . S
C1879 C1880 1.387 . S
C1880 H1865 0.930 . S
C1880 C1875 1.390 . S
C1880 C1879 1.387 . S
H1881 C1893 0.908 1_554 S
H1882 C1895 0.930 . S
H1883 C1896 0.930 . S
H1884 C1900 0.959 . S
H1885 C1900 0.959 . S
H1886 C1900 0.961 . S
H1887 C1901 0.960 1_545 S
H1888 C1901 0.961 . S
H1889 C1901 0.959 . S
H1890 C1904 0.929 . S
H1891 C1905 0.931 . S
H1892 C1907 0.930 . S
C1893 H1881 0.908 1_556 S
C1893 C1894 1.427 . S
C1893 C1898 1.394 1_556 S
C1894 C1893 1.427 . S
C1894 C1895 1.376 . S
C1895 H1882 0.930 . S
C1895 C1894 1.376 . S
C1895 C1896 1.388 1_545 S
C1896 H1883 0.930 . S
C1896 C1895 1.388 1_565 S
C1896 C1897 1.390 . S
C1897 C1896 1.390 . S
C1897 C1898 1.394 1_566 S
C1897 C1903 1.465 . S
C1898 C1893 1.394 1_554 S
C1898 C1897 1.394 1_544 S
C1898 C1899 1.516 . S
C1899 C1898 1.516 . S
C1899 C1900 1.502 . S
C1899 C1901 1.561 1_545 S
C1899 C1902 1.526 1_545 S
C1900 H1884 0.959 . S
C1900 H1885 0.959 . S
C1900 H1886 0.961 . S
C1900 C1899 1.502 . S
C1901 H1887 0.960 1_565 S
C1901 H1888 0.961 . S
C1901 H1889 0.959 . S
C1901 C1899 1.561 1_565 S
C1902 C1899 1.526 1_565 S
C1902 C1903 1.396 1_554 S
C1902 C1907 1.390 . S
C1903 C1897 1.465 . S
C1903 C1902 1.396 1_556 S
C1903 C1904 1.399 . S
C1904 H1890 0.929 . S
C1904 C1903 1.399 . S
C1904 C1905 1.385 . S
C1905 H1891 0.931 . S
C1905 C1904 1.385 . S
C1905 C1906 1.389 1_556 S
C1906 C1905 1.389 1_554 S
C1906 C1907 1.387 . S
C1907 H1892 0.930 . S
C1907 C1902 1.390 . S
C1907 C1906 1.387 . S
H1908 C1920 0.930 1_556 S
H1909 C1922 0.930 . S
H1910 C1923 0.930 . S
H1911 C1927 0.959 . S
H1912 C1927 0.959 . S
H1913 C1927 0.961 . S
H1914 C1928 0.960 . S
H1915 C1928 0.961 . S
H1916 C1928 0.959 . S
H1917 C1931 0.929 1_455 S
H1918 C1932 0.931 . S
H1919 C1934 0.930 . S
C1920 H1908 0.930 1_554 S
C1920 C1921 1.399 . S
C1920 C1925 1.399 1_554 S
C1921 C1920 1.399 . S
C1921 C1922 1.376 . S
C1922 H1909 0.930 . S
C1922 C1921 1.376 . S
C1922 C1923 1.388 . S
C1923 H1910 0.930 . S
C1923 C1922 1.388 . S
C1923 C1924 1.390 . S
C1924 C1923 1.390 . S
C1924 C1925 1.394 1_554 S
C1924 C1930 1.468 1_455 S
C1925 C1920 1.399 1_556 S
C1925 C1924 1.394 1_556 S
C1925 C1926 1.516 1_455 S
C1926 C1925 1.516 1_655 S
C1926 C1927 1.502 . S
C1926 C1928 1.561 1_655 S
C1926 C1929 1.526 . S
C1927 H1911 0.959 . S
C1927 H1912 0.959 . S
C1927 H1913 0.961 . S
C1927 C1926 1.502 . S
C1928 H1914 0.960 . S
C1928 H1915 0.961 . S
C1928 H1916 0.959 . S
C1928 C1926 1.561 1_455 S
C1929 C1926 1.526 . S
C1929 C1930 1.409 1_556 S
C1929 C1934 1.390 . S
C1930 C1924 1.468 1_655 S
C1930 C1929 1.409 1_554 S
C1930 C1931 1.387 . S
C1931 H1917 0.929 1_655 S
C1931 C1930 1.387 . S
C1931 C1932 1.385 . S
C1932 H1918 0.931 . S
C1932 C1931 1.385 . S
C1932 C1933 1.389 1_554 S
C1933 C1932 1.389 1_556 S
C1933 C1934 1.387 . S
C1934 H1919 0.930 . S
C1934 C1929 1.390 . S
C1934 C1933 1.387 . S
H1935 C1947 0.930 1_556 S
H1936 C1949 0.930 . S
H1937 C1950 0.930 . S
H1938 C1954 0.959 . S
H1939 C1954 0.959 . S
H1940 C1954 0.961 . S
H1941 C1955 0.960 . S
H1942 C1955 0.961 . S
H1943 C1955 0.959 . S
H1944 C1958 0.929 . S
H1945 C1959 0.931 . S
H1946 C1961 0.930 . S
C1947 H1935 0.930 1_554 S
C1947 C1948 1.399 . S
C1947 C1952 1.399 1_554 S
C1948 C1947 1.399 . S
C1948 C1949 1.376 . S
C1949 H1936 0.930 . S
C1949 C1948 1.376 . S
C1949 C1950 1.388 . S
C1950 H1937 0.930 . S
C1950 C1949 1.388 . S
C1950 C1951 1.390 . S
C1951 C1950 1.390 . S
C1951 C1952 1.394 1_554 S
C1951 C1957 1.465 . S
C1952 C1947 1.399 1_556 S
C1952 C1951 1.394 1_556 S
C1952 C1953 1.516 . S
C1953 C1952 1.516 . S
C1953 C1954 1.502 . S
C1953 C1955 1.561 . S
C1953 C1956 1.526 . S
C1954 H1938 0.959 . S
C1954 H1939 0.959 . S
C1954 H1940 0.961 . S
C1954 C1953 1.502 . S
C1955 H1941 0.960 . S
C1955 H1942 0.961 . S
C1955 H1943 0.959 . S
C1955 C1953 1.561 . S
C1956 C1953 1.526 . S
C1956 C1957 1.396 1_556 S
C1956 C1961 1.390 . S
C1957 C1951 1.465 . S
C1957 C1956 1.396 1_554 S
C1957 C1958 1.399 . S
C1958 H1944 0.929 . S
C1958 C1957 1.399 . S
C1958 C1959 1.385 . S
C1959 H1945 0.931 . S
C1959 C1958 1.385 . S
C1959 C1960 1.389 1_554 S
C1960 C1959 1.389 1_556 S
C1960 C1961 1.387 . S
C1961 H1946 0.930 . S
C1961 C1956 1.390 . S
C1961 C1960 1.387 . S
H1962 C1974 0.930 . S
H1963 C1976 0.948 . S
H1964 C1977 0.930 . S
H1965 C1981 0.959 . S
H1966 C1981 0.959 . S
H1967 C1981 0.961 . S
H1968 C1982 0.960 . S
H1969 C1982 0.961 . S
H1970 C1982 0.959 . S
H1971 C1985 0.929 . S
H1972 C1986 0.931 . S
H1973 C1988 0.930 . S
C1974 H1962 0.930 . S
C1974 C1975 1.399 . S
C1974 C1979 1.399 . S
C1975 C1974 1.399 . S
C1975 C1976 1.376 . S
C1976 H1963 0.948 . S
C1976 C1975 1.376 . S
C1976 C1977 1.388 . S
C1977 H1964 0.930 . S
C1977 C1976 1.388 . S
C1977 C1978 1.390 . S
C1978 C1977 1.390 . S
C1978 C1979 1.394 . S
C1978 C1984 1.465 . S
C1979 C1974 1.399 . S
C1979 C1978 1.394 . S
C1979 C1980 1.516 . S
C1980 C1979 1.516 . S
C1980 C1981 1.502 . S
C1980 C1982 1.561 . S
C1980 C1983 1.526 . S
C1981 H1965 0.959 . S
C1981 H1966 0.959 . S
C1981 H1967 0.961 . S
C1981 C1980 1.502 . S
C1982 H1968 0.960 . S
C1982 H1969 0.961 . S
C1982 H1970 0.959 . S
C1982 C1980 1.561 . S
C1983 C1980 1.526 . S
C1983 C1984 1.396 . S
C1983 C1988 1.390 . S
C1984 C1978 1.465 . S
C1984 C1983 1.396 . S
C1984 C1985 1.399 . S
C1985 H1971 0.929 . S
C1985 C1984 1.399 . S
C1985 C1986 1.385 . S
C1986 H1972 0.931 . S
C1986 C1985 1.385 . S
C1986 C1987 1.389 . S
C1987 C1986 1.389 . S
C1987 C1988 1.387 . S
C1988 H1973 0.930 . S
C1988 C1983 1.390 . S
C1988 C1987 1.387 . S
H1989 C2001 0.930 . S
H1990 C2003 0.930 . S
H1991 C2004 0.930 . S
H1992 C2008 0.959 . S
H1993 C2008 0.959 . S
H1994 C2008 0.961 . S
H1995 C2009 0.960 . S
H1996 C2009 0.961 . S
H1997 C2009 0.959 . S
H1998 C2012 0.929 . S
H1999 C2013 0.931 . S
H2000 C2015 0.930 1_556 S
C2001 H1989 0.930 . S
C2001 C2002 1.399 . S
C2001 C2006 1.399 . S
C2002 C2001 1.399 . S
C2002 C2003 1.376 . S
C2003 H1990 0.930 . S
C2003 C2002 1.376 . S
C2003 C2004 1.388 . S
C2004 H1991 0.930 . S
C2004 C2003 1.388 . S
C2004 C2005 1.390 . S
C2005 C2004 1.390 . S
C2005 C2006 1.394 . S
C2005 C2011 1.465 . S
C2006 C2001 1.399 . S
C2006 C2005 1.394 . S
C2006 C2007 1.516 . S
C2007 C2006 1.516 . S
C2007 C2008 1.502 . S
C2007 C2009 1.561 . S
C2007 C2010 1.526 . S
C2008 H1992 0.959 . S
C2008 H1993 0.959 . S
C2008 H1994 0.961 . S
C2008 C2007 1.502 . S
C2009 H1995 0.960 . S
C2009 H1996 0.961 . S
C2009 H1997 0.959 . S
C2009 C2007 1.561 . S
C2010 C2007 1.526 . S
C2010 C2011 1.396 . S
C2010 C2015 1.390 . S
C2011 C2005 1.465 . S
C2011 C2010 1.396 . S
C2011 C2012 1.399 . S
C2012 H1998 0.929 . S
C2012 C2011 1.399 . S
C2012 C2013 1.385 . S
C2013 H1999 0.931 . S
C2013 C2012 1.385 . S
C2013 C2014 1.389 . S
C2014 C2013 1.389 . S
C2014 C2015 1.387 . S
C2015 H2000 0.930 1_554 S
C2015 C2010 1.390 . S
C2015 C2014 1.387 . S
H2016 C2028 0.930 1_556 S
H2017 C2030 0.930 . S
H2018 C2031 0.930 . S
H2019 C2035 0.959 . S
H2020 C2035 0.959 . S
H2021 C2035 0.961 . S
H2022 C2036 0.960 . S
H2023 C2036 0.961 . S
H2024 C2036 0.959 . S
H2025 C2039 0.929 . S
H2026 C2040 0.931 . S
H2027 C2042 0.930 . S
C2028 H2016 0.930 1_554 S
C2028 C2029 1.399 . S
C2028 C2033 1.399 . S
C2029 C2028 1.399 . S
C2029 C2030 1.376 . S
C2030 H2017 0.930 . S
C2030 C2029 1.376 . S
C2030 C2031 1.388 . S
C2031 H2018 0.930 . S
C2031 C2030 1.388 . S
C2031 C2032 1.390 . S
C2032 C2031 1.390 . S
C2032 C2033 1.394 . S
C2032 C2038 1.465 . S
C2033 C2028 1.399 . S
C2033 C2032 1.394 . S
C2033 C2034 1.516 . S
C2034 C2033 1.516 . S
C2034 C2035 1.502 . S
C2034 C2036 1.561 . S
C2034 C2037 1.526 . S
C2035 H2019 0.959 . S
C2035 H2020 0.959 . S
C2035 H2021 0.961 . S
C2035 C2034 1.502 . S
C2036 H2022 0.960 . S
C2036 H2023 0.961 . S
C2036 H2024 0.959 . S
C2036 C2034 1.561 . S
C2037 C2034 1.526 . S
C2037 C2038 1.396 . S
C2037 C2042 1.390 . S
C2038 C2032 1.465 . S
C2038 C2037 1.396 . S
C2038 C2039 1.399 . S
C2039 H2025 0.929 . S
C2039 C2038 1.399 . S
C2039 C2040 1.385 . S
C2040 H2026 0.931 . S
C2040 C2039 1.385 . S
C2040 C2041 1.389 . S
C2041 C2040 1.389 . S
C2041 C2042 1.387 . S
C2042 H2027 0.930 . S
C2042 C2037 1.390 . S
C2042 C2041 1.387 . S
H2043 C2055 0.930 . S
H2044 C2057 0.930 . S
H2045 C2058 0.930 . S
H2046 C2062 0.959 . S
H2047 C2062 0.959 . S
H2048 C2062 0.961 . S
H2049 C2063 0.960 . S
H2050 C2063 0.961 . S
H2051 C2063 0.959 . S
H2052 C2066 0.929 . S
H2053 C2067 0.931 . S
H2054 C2069 0.930 . S
C2055 H2043 0.930 . S
C2055 C2056 1.399 . S
C2055 C2060 1.399 . S
C2056 C2055 1.399 . S
C2056 C2057 1.376 . S
C2057 H2044 0.930 . S
C2057 C2056 1.376 . S
C2057 C2058 1.388 . S
C2058 H2045 0.930 . S
C2058 C2057 1.388 . S
C2058 C2059 1.390 . S
C2059 C2058 1.390 . S
C2059 C2060 1.394 . S
C2059 C2065 1.465 . S
C2060 C2055 1.399 . S
C2060 C2059 1.394 . S
C2060 C2061 1.516 . S
C2061 C2060 1.516 . S
C2061 C2062 1.502 . S
C2061 C2063 1.561 . S
C2061 C2064 1.526 . S
C2062 H2046 0.959 . S
C2062 H2047 0.959 . S
C2062 H2048 0.961 . S
C2062 C2061 1.502 . S
C2063 H2049 0.960 . S
C2063 H2050 0.961 . S
C2063 H2051 0.959 . S
C2063 C2061 1.561 . S
C2064 C2061 1.526 . S
C2064 C2065 1.396 . S
C2064 C2069 1.390 . S
C2065 C2059 1.465 . S
C2065 C2064 1.396 . S
C2065 C2066 1.399 . S
C2066 H2052 0.929 . S
C2066 C2065 1.399 . S
C2066 C2067 1.385 . S
C2067 H2053 0.931 . S
C2067 C2066 1.385 . S
C2067 C2068 1.389 . S
C2068 C2067 1.389 . S
C2068 C2069 1.387 . S
C2069 H2054 0.930 . S
C2069 C2064 1.390 . S
C2069 C2068 1.387 . S
H2070 C2082 0.930 . S
H2071 C2084 0.930 . S
H2072 C2085 0.930 . S
H2073 C2089 0.959 . S
H2074 C2089 0.959 . S
H2075 C2089 0.961 . S
H2076 C2090 0.960 . S
H2077 C2090 0.961 . S
H2078 C2090 0.959 . S
H2079 C2093 0.929 . S
H2080 C2094 0.931 . S
H2081 C2096 0.930 . S
C2082 H2070 0.930 . S
C2082 C2083 1.399 . S
C2082 C2087 1.399 . S
C2083 C2082 1.399 . S
C2083 C2084 1.376 . S
C2084 H2071 0.930 . S
C2084 C2083 1.376 . S
C2084 C2085 1.388 . S
C2085 H2072 0.930 . S
C2085 C2084 1.388 . S
C2085 C2086 1.390 . S
C2086 C2085 1.390 . S
C2086 C2087 1.394 . S
C2086 C2092 1.465 . S
C2087 C2082 1.399 . S
C2087 C2086 1.394 . S
C2087 C2088 1.516 . S
C2088 C2087 1.516 . S
C2088 C2089 1.502 . S
C2088 C2090 1.561 . S
C2088 C2091 1.526 . S
C2089 H2073 0.959 . S
C2089 H2074 0.959 . S
C2089 H2075 0.961 . S
C2089 C2088 1.502 . S
C2090 H2076 0.960 . S
C2090 H2077 0.961 . S
C2090 H2078 0.959 . S
C2090 C2088 1.561 . S
C2091 C2088 1.526 . S
C2091 C2092 1.396 . S
C2091 C2096 1.390 . S
C2092 C2086 1.465 . S
C2092 C2091 1.396 . S
C2092 C2093 1.399 . S
C2093 H2079 0.929 . S
C2093 C2092 1.399 . S
C2093 C2094 1.385 . S
C2094 H2080 0.931 . S
C2094 C2093 1.385 . S
C2094 C2095 1.389 . S
C2095 C2094 1.389 . S
C2095 C2096 1.387 . S
C2096 H2081 0.930 . S
C2096 C2091 1.390 . S
C2096 C2095 1.387 . S
H2097 C2109 0.930 . S
H2098 C2111 0.930 . S
H2099 C2112 0.930 . S
H2100 C2116 0.959 . S
H2101 C2116 0.959 . S
H2102 C2116 0.961 . S
H2103 C2117 0.960 . S
H2104 C2117 0.961 . S
H2105 C2117 0.959 . S
H2106 C2120 0.929 . S
H2107 C2121 0.931 . S
H2108 C2123 0.930 . S
C2109 H2097 0.930 . S
C2109 C2110 1.399 . S
C2109 C2114 1.399 . S
C2110 C2109 1.399 . S
C2110 C2111 1.376 . S
C2111 H2098 0.930 . S
C2111 C2110 1.376 . S
C2111 C2112 1.388 . S
C2112 H2099 0.930 . S
C2112 C2111 1.388 . S
C2112 C2113 1.390 . S
C2113 C2112 1.390 . S
C2113 C2114 1.394 . S
C2113 C2119 1.465 . S
C2114 C2109 1.399 . S
C2114 C2113 1.394 . S
C2114 C2115 1.516 . S
C2115 C2114 1.516 . S
C2115 C2116 1.502 . S
C2115 C2117 1.561 . S
C2115 C2118 1.526 . S
C2116 H2100 0.959 . S
C2116 H2101 0.959 . S
C2116 H2102 0.961 . S
C2116 C2115 1.502 . S
C2117 H2103 0.960 . S
C2117 H2104 0.961 . S
C2117 H2105 0.959 . S
C2117 C2115 1.561 . S
C2118 C2115 1.526 . S
C2118 C2119 1.396 . S
C2118 C2123 1.390 . S
C2119 C2113 1.465 . S
C2119 C2118 1.396 . S
C2119 C2120 1.399 . S
C2120 H2106 0.929 . S
C2120 C2119 1.399 . S
C2120 C2121 1.385 . S
C2121 H2107 0.931 . S
C2121 C2120 1.385 . S
C2121 C2122 1.389 . S
C2122 C2121 1.389 . S
C2122 C2123 1.387 . S
C2123 H2108 0.930 . S
C2123 C2118 1.390 . S
C2123 C2122 1.387 . S
H2124 C2136 0.930 . S
H2125 C2138 0.930 . S
H2126 C2139 0.930 . S
H2127 C2143 0.959 . S
H2128 C2143 0.959 . S
H2129 C2143 0.961 . S
H2130 C2144 0.960 . S
H2131 C2144 0.961 . S
H2132 C2144 0.959 . S
H2133 C2147 0.929 . S
H2134 C2148 0.931 . S
H2135 C2150 0.930 1_554 S
C2136 H2124 0.930 . S
C2136 C2137 1.399 . S
C2136 C2141 1.399 . S
C2137 C2136 1.399 . S
C2137 C2138 1.376 . S
C2138 H2125 0.930 . S
C2138 C2137 1.376 . S
C2138 C2139 1.388 . S
C2139 H2126 0.930 . S
C2139 C2138 1.388 . S
C2139 C2140 1.390 . S
C2140 C2139 1.390 . S
C2140 C2141 1.394 . S
C2140 C2146 1.465 . S
C2141 C2136 1.399 . S
C2141 C2140 1.394 . S
C2141 C2142 1.516 . S
C2142 C2141 1.516 . S
C2142 C2143 1.502 . S
C2142 C2144 1.561 . S
C2142 C2145 1.526 . S
C2143 H2127 0.959 . S
C2143 H2128 0.959 . S
C2143 H2129 0.961 . S
C2143 C2142 1.502 . S
C2144 H2130 0.960 . S
C2144 H2131 0.961 . S
C2144 H2132 0.959 . S
C2144 C2142 1.561 . S
C2145 C2142 1.526 . S
C2145 C2146 1.396 . S
C2145 C2150 1.390 . S
C2146 C2140 1.465 . S
C2146 C2145 1.396 . S
C2146 C2147 1.399 . S
C2147 H2133 0.929 . S
C2147 C2146 1.399 . S
C2147 C2148 1.385 . S
C2148 H2134 0.931 . S
C2148 C2147 1.385 . S
C2148 C2149 1.389 . S
C2149 C2148 1.389 . S
C2149 C2150 1.387 . S
C2150 H2135 0.930 1_556 S
C2150 C2145 1.390 . S
C2150 C2149 1.387 . S
H2151 C2163 0.930 . S
H2152 C2165 0.930 . S
H2153 C2166 0.930 . S
H2154 C2170 0.959 . S
H2155 C2170 0.959 . S
H2156 C2170 0.961 . S
H2157 C2171 0.960 . S
H2158 C2171 0.961 . S
H2159 C2171 0.959 . S
H2160 C2174 0.929 . S
H2161 C2175 0.931 . S
H2162 C2177 0.930 . S
C2163 H2151 0.930 . S
C2163 C2164 1.399 . S
C2163 C2168 1.399 . S
C2164 C2163 1.399 . S
C2164 C2165 1.376 1_556 S
C2165 H2152 0.930 . S
C2165 C2164 1.376 1_554 S
C2165 C2166 1.388 1_554 S
C2166 H2153 0.930 . S
C2166 C2165 1.388 1_556 S
C2166 C2167 1.390 . S
C2167 C2166 1.390 . S
C2167 C2168 1.394 . S
C2167 C2173 1.465 . S
C2168 C2163 1.399 . S
C2168 C2167 1.394 . S
C2168 C2169 1.516 . S
C2169 C2168 1.516 . S
C2169 C2170 1.502 . S
C2169 C2171 1.561 . S
C2169 C2172 1.526 . S
C2170 H2154 0.959 . S
C2170 H2155 0.959 . S
C2170 H2156 0.961 . S
C2170 C2169 1.502 . S
C2171 H2157 0.960 . S
C2171 H2158 0.961 . S
C2171 H2159 0.959 . S
C2171 C2169 1.561 . S
C2172 C2169 1.526 . S
C2172 C2173 1.396 . S
C2172 C2177 1.390 . S
C2173 C2167 1.465 . S
C2173 C2172 1.396 . S
C2173 C2174 1.399 . S
C2174 H2160 0.929 . S
C2174 C2173 1.399 . S
C2174 C2175 1.385 . S
C2175 H2161 0.931 . S
C2175 C2174 1.385 . S
C2175 C2176 1.389 . S
C2176 C2175 1.389 . S
C2176 C2177 1.387 . S
C2177 H2162 0.930 . S
C2177 C2172 1.390 . S
C2177 C2176 1.387 . S
H2178 C2190 0.930 . S
H2179 C2192 0.930 . S
H2180 C2193 0.930 . S
H2181 C2197 0.959 . S
H2182 C2197 0.959 . S
H2183 C2197 0.961 . S
H2184 C2198 0.960 . S
H2185 C2198 0.961 . S
H2186 C2198 0.959 . S
H2187 C2201 0.929 . S
H2188 C2202 0.931 . S
H2189 C2204 0.930 . S
C2190 H2178 0.930 . S
C2190 C2191 1.399 . S
C2190 C2195 1.399 . S
C2191 C2190 1.399 . S
C2191 C2192 1.376 . S
C2192 H2179 0.930 . S
C2192 C2191 1.376 . S
C2192 C2193 1.388 . S
C2193 H2180 0.930 . S
C2193 C2192 1.388 . S
C2193 C2194 1.390 . S
C2194 C2193 1.390 . S
C2194 C2195 1.394 . S
C2194 C2200 1.465 . S
C2195 C2190 1.399 . S
C2195 C2194 1.394 . S
C2195 C2196 1.516 . S
C2196 C2195 1.516 . S
C2196 C2197 1.502 . S
C2196 C2198 1.561 . S
C2196 C2199 1.526 . S
C2197 H2181 0.959 . S
C2197 H2182 0.959 . S
C2197 H2183 0.961 . S
C2197 C2196 1.502 . S
C2198 H2184 0.960 . S
C2198 H2185 0.961 . S
C2198 H2186 0.959 . S
C2198 C2196 1.561 . S
C2199 C2196 1.526 . S
C2199 C2200 1.396 . S
C2199 C2204 1.390 . S
C2200 C2194 1.465 . S
C2200 C2199 1.396 . S
C2200 C2201 1.399 . S
C2201 H2187 0.929 . S
C2201 C2200 1.399 . S
C2201 C2202 1.385 1_556 S
C2202 H2188 0.931 . S
C2202 C2201 1.385 1_554 S
C2202 C2203 1.389 1_554 S
C2203 C2202 1.389 1_556 S
C2203 C2204 1.387 . S
C2204 H2189 0.930 . S
C2204 C2199 1.390 . S
C2204 C2203 1.387 . S
H2205 C2217 0.930 . S
H2206 C2219 0.930 . S
H2207 C2220 0.930 . S
H2208 C2224 0.959 . S
H2209 C2224 0.959 . S
H2210 C2224 0.961 . S
H2211 C2225 0.960 . S
H2212 C2225 0.961 . S
H2213 C2225 0.959 . S
H2214 C2228 0.929 . S
H2215 C2229 0.931 . S
H2216 C2231 0.930 . S
C2217 H2205 0.930 . S
C2217 C2218 1.399 . S
C2217 C2222 1.399 . S
C2218 C2217 1.399 . S
C2218 C2219 1.376 . S
C2219 H2206 0.930 . S
C2219 C2218 1.376 . S
C2219 C2220 1.388 . S
C2220 H2207 0.930 . S
C2220 C2219 1.388 . S
C2220 C2221 1.390 . S
C2221 C2220 1.390 . S
C2221 C2222 1.394 . S
C2221 C2227 1.465 . S
C2222 C2217 1.399 . S
C2222 C2221 1.394 . S
C2222 C2223 1.516 . S
C2223 C2222 1.516 . S
C2223 C2224 1.502 . S
C2223 C2225 1.561 . S
C2223 C2226 1.526 . S
C2224 H2208 0.959 . S
C2224 H2209 0.959 . S
C2224 H2210 0.961 . S
C2224 C2223 1.502 . S
C2225 H2211 0.960 . S
C2225 H2212 0.961 . S
C2225 H2213 0.959 . S
C2225 C2223 1.561 . S
C2226 C2223 1.526 . S
C2226 C2227 1.396 . S
C2226 C2231 1.390 . S
C2227 C2221 1.465 . S
C2227 C2226 1.396 . S
C2227 C2228 1.399 . S
C2228 H2214 0.929 . S
C2228 C2227 1.399 . S
C2228 C2229 1.385 . S
C2229 H2215 0.931 . S
C2229 C2228 1.385 . S
C2229 C2230 1.389 . S
C2230 C2229 1.389 . S
C2230 C2231 1.387 . S
C2231 H2216 0.930 . S
C2231 C2226 1.390 . S
C2231 C2230 1.387 . S
H2232 C2244 0.930 . S
H2233 C2246 0.930 . S
H2234 C2247 0.930 . S
H2235 C2251 0.959 . S
H2236 C2251 0.959 . S
H2237 C2251 0.961 . S
H2238 C2252 0.960 . S
H2239 C2252 0.961 . S
H2240 C2252 0.959 . S
H2241 C2255 0.929 . S
H2242 C2256 0.931 . S
H2243 C2258 0.930 . S
C2244 H2232 0.930 . S
C2244 C2245 1.399 . S
C2244 C2249 1.399 . S
C2245 C2244 1.399 . S
C2245 C2246 1.376 . S
C2246 H2233 0.930 . S
C2246 C2245 1.376 . S
C2246 C2247 1.388 . S
C2247 H2234 0.930 . S
C2247 C2246 1.388 . S
C2247 C2248 1.390 . S
C2248 C2247 1.390 . S
C2248 C2249 1.394 . S
C2248 C2254 1.465 . S
C2249 C2244 1.399 . S
C2249 C2248 1.394 . S
C2249 C2250 1.516 . S
C2250 C2249 1.516 . S
C2250 C2251 1.502 . S
C2250 C2252 1.561 . S
C2250 C2253 1.526 . S
C2251 H2235 0.959 . S
C2251 H2236 0.959 . S
C2251 H2237 0.961 . S
C2251 C2250 1.502 . S
C2252 H2238 0.960 . S
C2252 H2239 0.961 . S
C2252 H2240 0.959 . S
C2252 C2250 1.561 . S
C2253 C2250 1.526 . S
C2253 C2254 1.396 . S
C2253 C2258 1.390 . S
C2254 C2248 1.465 . S
C2254 C2253 1.396 . S
C2254 C2255 1.399 . S
C2255 H2241 0.929 . S
C2255 C2254 1.399 . S
C2255 C2256 1.385 . S
C2256 H2242 0.931 . S
C2256 C2255 1.385 . S
C2256 C2257 1.389 . S
C2257 C2256 1.389 . S
C2257 C2258 1.387 . S
C2258 H2243 0.930 . S
C2258 C2253 1.390 . S
C2258 C2257 1.387 . S
H2259 C2271 0.930 . S
H2260 C2273 0.930 . S
H2261 C2274 0.930 . S
H2262 C2278 0.959 . S
H2263 C2278 0.959 . S
H2264 C2278 0.961 . S
H2265 C2279 0.960 . S
H2266 C2279 0.961 . S
H2267 C2279 0.959 . S
H2268 C2282 0.929 . S
H2269 C2283 0.931 . S
H2270 C2285 0.930 . S
C2271 H2259 0.930 . S
C2271 C2272 1.399 . S
C2271 C2276 1.399 . S
C2272 C2271 1.399 . S
C2272 C2273 1.376 . S
C2273 H2260 0.930 . S
C2273 C2272 1.376 . S
C2273 C2274 1.388 . S
C2274 H2261 0.930 . S
C2274 C2273 1.388 . S
C2274 C2275 1.390 . S
C2275 C2274 1.390 . S
C2275 C2276 1.394 . S
C2275 C2281 1.465 . S
C2276 C2271 1.399 . S
C2276 C2275 1.394 . S
C2276 C2277 1.516 . S
C2277 C2276 1.516 . S
C2277 C2278 1.502 . S
C2277 C2279 1.561 . S
C2277 C2280 1.526 . S
C2278 H2262 0.959 . S
C2278 H2263 0.959 . S
C2278 H2264 0.961 . S
C2278 C2277 1.502 . S
C2279 H2265 0.960 . S
C2279 H2266 0.961 . S
C2279 H2267 0.959 . S
C2279 C2277 1.561 . S
C2280 C2277 1.526 . S
C2280 C2281 1.396 . S
C2280 C2285 1.390 . S
C2281 C2275 1.465 . S
C2281 C2280 1.396 . S
C2281 C2282 1.399 . S
C2282 H2268 0.929 . S
C2282 C2281 1.399 . S
C2282 C2283 1.385 . S
C2283 H2269 0.931 . S
C2283 C2282 1.385 . S
C2283 C2284 1.389 . S
C2284 C2283 1.389 . S
C2284 C2285 1.387 . S
C2285 H2270 0.930 . S
C2285 C2280 1.390 . S
C2285 C2284 1.387 . S
H2286 C2298 0.930 . S
H2287 C2300 0.930 . S
H2288 C2301 0.930 . S
H2289 C2305 0.959 . S
H2290 C2305 0.959 . S
H2291 C2305 0.961 . S
H2292 C2306 0.960 . S
H2293 C2306 0.961 . S
H2294 C2306 0.959 . S
H2295 C2309 0.929 . S
H2296 C2310 0.931 . S
H2297 C2312 0.930 . S
C2298 H2286 0.930 . S
C2298 C2299 1.399 . S
C2298 C2303 1.399 . S
C2299 C2298 1.399 . S
C2299 C2300 1.376 . S
C2300 H2287 0.930 . S
C2300 C2299 1.376 . S
C2300 C2301 1.388 . S
C2301 H2288 0.930 . S
C2301 C2300 1.388 . S
C2301 C2302 1.390 . S
C2302 C2301 1.390 . S
C2302 C2303 1.394 . S
C2302 C2308 1.465 . S
C2303 C2298 1.399 . S
C2303 C2302 1.394 . S
C2303 C2304 1.516 . S
C2304 C2303 1.516 . S
C2304 C2305 1.502 . S
C2304 C2306 1.561 . S
C2304 C2307 1.526 . S
C2305 H2289 0.959 . S
C2305 H2290 0.959 . S
C2305 H2291 0.961 . S
C2305 C2304 1.502 . S
C2306 H2292 0.960 . S
C2306 H2293 0.961 . S
C2306 H2294 0.959 . S
C2306 C2304 1.561 . S
C2307 C2304 1.526 . S
C2307 C2308 1.396 . S
C2307 C2312 1.390 . S
C2308 C2302 1.465 . S
C2308 C2307 1.396 . S
C2308 C2309 1.399 . S
C2309 H2295 0.929 . S
C2309 C2308 1.399 . S
C2309 C2310 1.385 . S
C2310 H2296 0.931 . S
C2310 C2309 1.385 . S
C2310 C2311 1.389 . S
C2311 C2310 1.389 . S
C2311 C2312 1.387 . S
C2312 H2297 0.930 . S
C2312 C2307 1.390 . S
C2312 C2311 1.387 . S
H2313 C2325 0.930 . S
H2314 C2327 0.930 . S
H2315 C2328 0.930 . S
H2316 C2332 0.959 . S
H2317 C2332 0.959 . S
H2318 C2332 0.961 . S
H2319 C2333 0.960 . S
H2320 C2333 0.961 . S
H2321 C2333 0.959 . S
H2322 C2336 0.929 . S
H2323 C2337 0.931 . S
H2324 C2339 0.930 . S
C2325 H2313 0.930 . S
C2325 C2326 1.399 . S
C2325 C2330 1.399 . S
C2326 C2325 1.399 . S
C2326 C2327 1.376 . S
C2327 H2314 0.930 . S
C2327 C2326 1.376 . S
C2327 C2328 1.388 1_545 S
C2328 H2315 0.930 . S
C2328 C2327 1.388 1_565 S
C2328 C2329 1.390 . S
C2329 C2328 1.390 . S
C2329 C2330 1.383 1_565 S
C2329 C2335 1.476 . S
C2330 C2325 1.399 . S
C2330 C2329 1.383 1_545 S
C2330 C2331 1.516 . S
C2331 C2330 1.516 . S
C2331 C2332 1.502 . S
C2331 C2333 1.561 . S
C2331 C2334 1.526 1_545 S
C2332 H2316 0.959 . S
C2332 H2317 0.959 . S
C2332 H2318 0.961 . S
C2332 C2331 1.502 . S
C2333 H2319 0.960 . S
C2333 H2320 0.961 . S
C2333 H2321 0.959 . S
C2333 C2331 1.561 . S
C2334 C2331 1.526 1_565 S
C2334 C2335 1.396 . S
C2334 C2339 1.390 . S
C2335 C2329 1.476 . S
C2335 C2334 1.396 . S
C2335 C2336 1.399 . S
C2336 H2322 0.929 . S
C2336 C2335 1.399 . S
C2336 C2337 1.385 . S
C2337 H2323 0.931 . S
C2337 C2336 1.385 . S
C2337 C2338 1.389 . S
C2338 C2337 1.389 . S
C2338 C2339 1.387 . S
C2339 H2324 0.930 . S
C2339 C2334 1.390 . S
C2339 C2338 1.387 . S
H2340 C2352 0.930 . S
H2341 C2354 0.930 . S
H2342 C2355 0.930 . S
H2343 C2359 0.959 . S
H2344 C2359 0.959 . S
H2345 C2359 0.961 . S
H2346 C2360 0.960 . S
H2347 C2360 0.961 . S
H2348 C2360 0.945 1_655 S
H2349 C2363 0.929 . S
H2350 C2364 0.931 . S
H2351 C2366 0.930 . S
C2352 H2340 0.930 . S
C2352 C2353 1.399 . S
C2352 C2357 1.399 . S
C2353 C2352 1.399 . S
C2353 C2354 1.376 . S
C2354 H2341 0.930 . S
C2354 C2353 1.376 . S
C2354 C2355 1.388 . S
C2355 H2342 0.930 . S
C2355 C2354 1.388 . S
C2355 C2356 1.390 . S
C2356 C2355 1.390 . S
C2356 C2357 1.394 . S
C2356 C2362 1.465 . S
C2357 C2352 1.399 . S
C2357 C2356 1.394 . S
C2357 C2358 1.516 1_655 S
C2358 C2357 1.516 1_455 S
C2358 C2359 1.502 . S
C2358 C2360 1.561 . S
C2358 C2361 1.526 . S
C2359 H2343 0.959 . S
C2359 H2344 0.959 . S
C2359 H2345 0.961 . S
C2359 C2358 1.502 . S
C2360 H2346 0.960 . S
C2360 H2347 0.961 . S
C2360 H2348 0.945 1_455 S
C2360 C2358 1.561 . S
C2361 C2358 1.526 . S
C2361 C2362 1.396 1_455 S
C2361 C2366 1.390 . S
C2362 C2356 1.465 . S
C2362 C2361 1.396 1_655 S
C2362 C2363 1.399 . S
C2363 H2349 0.929 . S
C2363 C2362 1.399 . S
C2363 C2364 1.385 1_655 S
C2364 H2350 0.931 . S
C2364 C2363 1.385 1_455 S
C2364 C2365 1.389 . S
C2365 C2364 1.389 . S
C2365 C2366 1.387 . S
C2366 H2351 0.930 . S
C2366 C2361 1.390 . S
C2366 C2365 1.387 . S
H2367 C2379 0.930 . S
H2368 C2381 0.930 . S
H2369 C2382 0.930 . S
H2370 C2386 0.959 . S
H2371 C2386 0.959 . S
H2372 C2386 0.961 . S
H2373 C2387 0.960 . S
H2374 C2387 0.961 . S
H2375 C2387 0.959 . S
H2376 C2390 0.929 . S
H2377 C2391 0.931 . S
H2378 C2393 0.930 . S
C2379 H2367 0.930 . S
C2379 C2380 1.399 . S
C2379 C2384 1.399 . S
C2380 C2379 1.399 . S
C2380 C2381 1.376 . S
C2381 H2368 0.930 . S
C2381 C2380 1.376 . S
C2381 C2382 1.388 . S
C2382 H2369 0.930 . S
C2382 C2381 1.388 . S
C2382 C2383 1.390 . S
C2383 C2382 1.390 . S
C2383 C2384 1.394 . S
C2383 C2389 1.465 . S
C2384 C2379 1.399 . S
C2384 C2383 1.394 . S
C2384 C2385 1.516 . S
C2385 C2384 1.516 . S
C2385 C2386 1.502 . S
C2385 C2387 1.561 . S
C2385 C2388 1.526 . S
C2386 H2370 0.959 . S
C2386 H2371 0.959 . S
C2386 H2372 0.961 . S
C2386 C2385 1.502 . S
C2387 H2373 0.960 . S
C2387 H2374 0.961 . S
C2387 H2375 0.959 . S
C2387 C2385 1.561 . S
C2388 C2385 1.526 . S
C2388 C2389 1.396 . S
C2388 C2393 1.390 . S
C2389 C2383 1.465 . S
C2389 C2388 1.396 . S
C2389 C2390 1.399 . S
C2390 H2376 0.929 . S
C2390 C2389 1.399 . S
C2390 C2391 1.385 . S
C2391 H2377 0.931 . S
C2391 C2390 1.385 . S
C2391 C2392 1.389 . S
C2392 C2391 1.389 . S
C2392 C2393 1.387 . S
C2393 H2378 0.930 . S
C2393 C2388 1.390 . S
C2393 C2392 1.387 . S
H2394 C2406 0.930 . S
H2395 C2408 0.930 . S
H2396 C2409 0.930 . S
H2397 C2413 0.959 . S
H2398 C2413 0.959 . S
H2399 C2413 0.961 . S
H2400 C2414 0.960 . S
H2401 C2414 0.961 . S
H2402 C2414 0.959 . S
H2403 C2417 0.929 . S
H2404 C2418 0.931 . S
H2405 C2420 0.930 . S
C2406 H2394 0.930 . S
C2406 C2407 1.399 . S
C2406 C2411 1.399 . S
C2407 C2406 1.399 . S
C2407 C2408 1.376 . S
C2408 H2395 0.930 . S
C2408 C2407 1.376 . S
C2408 C2409 1.388 1_545 S
C2409 H2396 0.930 . S
C2409 C2408 1.388 1_565 S
C2409 C2410 1.390 . S
C2410 C2409 1.390 . S
C2410 C2411 1.394 1_565 S
C2410 C2416 1.465 . S
C2411 C2406 1.399 . S
C2411 C2410 1.394 1_545 S
C2411 C2412 1.516 . S
C2412 C2411 1.516 . S
C2412 C2413 1.502 . S
C2412 C2414 1.561 . S
C2412 C2415 1.526 1_545 S
C2413 H2397 0.959 . S
C2413 H2398 0.959 . S
C2413 H2399 0.961 . S
C2413 C2412 1.502 . S
C2414 H2400 0.960 . S
C2414 H2401 0.961 . S
C2414 H2402 0.959 . S
C2414 C2412 1.561 . S
C2415 C2412 1.526 1_565 S
C2415 C2416 1.396 . S
C2415 C2420 1.390 . S
C2416 C2410 1.465 . S
C2416 C2415 1.396 . S
C2416 C2417 1.399 . S
C2417 H2403 0.929 . S
C2417 C2416 1.399 . S
C2417 C2418 1.385 . S
C2418 H2404 0.931 . S
C2418 C2417 1.385 . S
C2418 C2419 1.389 . S
C2419 C2418 1.389 . S
C2419 C2420 1.387 . S
C2420 H2405 0.930 . S
C2420 C2415 1.390 . S
C2420 C2419 1.387 . S
H2421 C2433 0.930 . S
H2422 C2435 0.930 . S
H2423 C2436 0.930 . S
H2424 C2440 0.959 . S
H2425 C2440 0.968 . S
H2426 C2440 0.961 . S
H2427 C2441 0.960 . S
H2428 C2441 0.961 . S
H2429 C2441 0.959 . S
H2430 C2444 0.929 . S
H2431 C2445 0.931 . S
H2432 C2447 0.930 . S
C2433 H2421 0.930 . S
C2433 C2434 1.399 . S
C2433 C2438 1.399 . S
C2434 C2433 1.399 . S
C2434 C2435 1.376 . S
C2435 H2422 0.930 . S
C2435 C2434 1.376 . S
C2435 C2436 1.388 . S
C2436 H2423 0.930 . S
C2436 C2435 1.388 . S
C2436 C2437 1.390 . S
C2437 C2436 1.390 . S
C2437 C2438 1.394 . S
C2437 C2443 1.465 1_455 S
C2438 C2433 1.399 . S
C2438 C2437 1.394 . S
C2438 C2439 1.516 1_455 S
C2439 C2438 1.516 1_655 S
C2439 C2440 1.502 1_655 S
C2439 C2441 1.561 . S
C2439 C2442 1.526 . S
C2440 H2424 0.959 . S
C2440 H2425 0.968 . S
C2440 H2426 0.961 . S
C2440 C2439 1.502 1_455 S
C2441 H2427 0.960 . S
C2441 H2428 0.961 . S
C2441 H2429 0.959 . S
C2441 C2439 1.561 . S
C2442 C2439 1.526 . S
C2442 C2443 1.396 . S
C2442 C2447 1.390 . S
C2443 C2437 1.465 1_655 S
C2443 C2442 1.396 . S
C2443 C2444 1.399 . S
C2444 H2430 0.929 . S
C2444 C2443 1.399 . S
C2444 C2445 1.385 . S
C2445 H2431 0.931 . S
C2445 C2444 1.385 . S
C2445 C2446 1.389 . S
C2446 C2445 1.389 . S
C2446 C2447 1.387 . S
C2447 H2432 0.930 . S
C2447 C2442 1.390 . S
C2447 C2446 1.387 . S
C517 C79 0.765 . S
C529 C9 0.806 . S
C544 C51 0.845 . S
C556 C23 0.809 . S
C571 C37 0.843 . S
C583 C65 0.804 . S
C598 C93 0.768 . S
C610 C163 0.760 . S
C625 C107 0.833 . S
C637 C135 0.844 . S
C652 C149 0.833 . S
C664 C121 0.844 . S
C679 C177 0.762 . S
C691 C247 0.801 . S
C706 C191 0.763 . S
C718 C219 0.802 . S
C733 C233 0.848 . S
C745 C205 0.820 . S
C760 C331 0.785 . S
C772 C261 0.769 . S
C787 C303 0.774 . S
C799 C275 0.793 . S
C814 C289 0.801 . S
C826 C317 0.781 . S
C841 C415 0.784 . S
C853 C345 0.830 . S
C868 C387 0.762 . S
C880 C359 0.801 . S
C895 C373 0.759 . S
C907 C401 0.789 . S
C922 C499 0.784 . S
C934 C429 0.768 . S
C949 C471 0.839 . S
C961 C443 0.846 . S
C976 C485 0.822 . S
C988 C457 0.838 . S
C1003 C231 1.648 . S
C1015 C7 1.656 . S
C1030 C245 1.653 . S
C1042 C21 1.605 . S
C1057 C217 1.647 . S
C1069 C35 1.656 . S
C1084 C49 1.582 . S
C1096 C371 1.634 1_554 S
C1111 C63 1.648 . S
C1123 C343 1.655 1_554 S
C1138 C77 1.567 . S
C1150 C357 1.605 1_554 S
C1165 C91 1.622 . S
C1177 C483 1.567 . S
C1192 C497 1.658 . S
C1204 C105 1.589 . S
C1219 C469 1.566 . S
C1231 C119 1.623 . S
C1246 C287 1.660 1_556 S
C1258 C133 1.605 . S
C1273 C259 1.649 1_556 S
C1285 C147 1.636 . S
C1300 C161 1.566 . S
C1312 C273 1.620 1_556 S
C1327 C175 1.659 . S
C1339 C399 1.619 . S
C1354 C413 1.645 . S
C1366 C189 1.657 . S
C1381 C385 1.597 . S
C1393 C203 1.567 . S
C1408 C301 1.577 . S
C1420 C455 1.651 . S
C1435 C427 1.637 . S
C1447 C315 1.648 . S
C1462 C329 1.617 . S
C1474 C441 1.568 . S
C1489 C260 1.589 . S
C1501 C8 1.620 . S
C1516 C274 1.619 . S
C1528 C22 1.591 . S
C1543 C36 1.619 . S
C1555 C288 1.591 . S
C1570 C50 1.621 . S
C1582 C470 1.588 . S
C1597 C484 1.619 . S
C1609 C64 1.591 . S
C1624 C498 1.586 . S
C1636 C78 1.621 . S
C1651 C92 1.621 . S
C1663 C344 1.587 . S
C1678 C106 1.587 . S
C1690 C358 1.617 . S
C1705 C372 1.617 . S
C1717 C120 1.587 . S
C1732 C134 1.587 . S
C1744 C218 1.620 . S
C1759 C148 1.621 . S
C1771 C232 1.588 . S
C1786 C246 1.605 . S
C1798 C162 1.597 . S
C1813 C176 1.591 . S
C1825 C428 1.619 . S
C1840 C190 1.620 . S
C1852 C442 1.586 . S
C1867 C456 1.618 . S
C1879 C204 1.592 . S
C1894 C386 1.595 . S
C1906 C302 1.607 . S
C1921 C316 1.619 . S
C1933 C400 1.591 . S
C1948 C330 1.620 . S
C1960 C414 1.589 . S
C1975 C381 1.607 1_554 S
C1987 C3 1.597 . S
C2002 C17 1.668 . S
C2014 C395 1.641 1_554 S
C2029 C409 1.622 1_554 S
C2041 C31 1.661 . S
C2056 C45 1.642 . S
C2068 C171 1.668 . S
C2083 C185 1.595 . S
C2095 C59 1.611 . S
C2110 C199 1.661 . S
C2122 C73 1.662 . S
C2137 C87 1.632 . S
C2149 C297 1.612 1_556 S
C2164 C311 1.628 1_556 S
C2176 C101 1.609 . S
C2191 C115 1.612 . S
C2203 C325 1.633 1_556 S
C2218 C129 1.604 . S
C2230 C423 1.622 . S
C2245 C143 1.638 . S
C2257 C437 1.618 . S
C2272 C451 1.652 . S
C2284 C157 1.632 . S
C2299 C213 1.649 . S
C2311 C339 1.667 . S
C2326 C227 1.668 . S
C2338 C353 1.638 . S
C2353 C241 1.624 . S
C2365 C367 1.662 . S
C2380 C255 1.616 . S
C2392 C465 1.601 . S
C2407 C269 1.621 . S
C2419 C479 1.604 . S
C2434 C493 1.668 . S
C2446 C283 1.663 . S
