# Generated by pormake.
# Topology uow, (4)-cn, num edge types: 1
# Building blocks:
#     Node 0, Type 0, BuildingBlock: QUQFOY_clean_sbu_1, # of connection points: 4
#     Node 1, Type 0, BuildingBlock: QUQFOY_clean_sbu_1, # of connection points: 4
#     Node 2, Type 0, BuildingBlock: QUQFOY_clean_sbu_1, # of connection points: 4
#     Node 3, Type 0, BuildingBlock: QUQFOY_clean_sbu_1, # of connection points: 4
#     Node 4, Type 0, BuildingBlock: QUQFOY_clean_sbu_1, # of connection points: 4
#     Node 5, Type 0, BuildingBlock: QUQFOY_clean_sbu_1, # of connection points: 4
#     Node 6, Type 0, BuildingBlock: QUQFOY_clean_sbu_1, # of connection points: 4
#     Node 7, Type 0, BuildingBlock: QUQFOY_clean_sbu_1, # of connection points: 4
#     Node 8, Type 0, BuildingBlock: QUQFOY_clean_sbu_1, # of connection points: 4
#     Node 9, Type 0, BuildingBlock: QUQFOY_clean_sbu_1, # of connection points: 4
#     Node 10, Type 0, BuildingBlock: QUQFOY_clean_sbu_1, # of connection points: 4
#     Node 11, Type 0, BuildingBlock: QUQFOY_clean_sbu_1, # of connection points: 4
#     Node 12, Type 0, BuildingBlock: QUQFOY_clean_sbu_1, # of connection points: 4
#     Node 13, Type 0, BuildingBlock: QUQFOY_clean_sbu_1, # of connection points: 4
#     Node 14, Type 0, BuildingBlock: QUQFOY_clean_sbu_1, # of connection points: 4
#     Node 15, Type 0, BuildingBlock: QUQFOY_clean_sbu_1, # of connection points: 4
#     Node 16, Type 0, BuildingBlock: QUQFOY_clean_sbu_1, # of connection points: 4
#     Node 17, Type 0, BuildingBlock: QUQFOY_clean_sbu_1, # of connection points: 4
#     Node 18, Type 0, BuildingBlock: QUQFOY_clean_sbu_1, # of connection points: 4
#     Node 19, Type 0, BuildingBlock: QUQFOY_clean_sbu_1, # of connection points: 4
#     Node 20, Type 0, BuildingBlock: QUQFOY_clean_sbu_1, # of connection points: 4
#     Node 21, Type 0, BuildingBlock: QUQFOY_clean_sbu_1, # of connection points: 4
#     Node 22, Type 0, BuildingBlock: QUQFOY_clean_sbu_1, # of connection points: 4
#     Node 23, Type 0, BuildingBlock: QUQFOY_clean_sbu_1, # of connection points: 4
#     Node 24, Type 0, BuildingBlock: QUQFOY_clean_sbu_1, # of connection points: 4
#     Node 25, Type 0, BuildingBlock: QUQFOY_clean_sbu_1, # of connection points: 4
#     Node 26, Type 0, BuildingBlock: QUQFOY_clean_sbu_1, # of connection points: 4
#     Node 27, Type 0, BuildingBlock: QUQFOY_clean_sbu_1, # of connection points: 4
#     Node 28, Type 0, BuildingBlock: QUQFOY_clean_sbu_1, # of connection points: 4
#     Node 29, Type 0, BuildingBlock: QUQFOY_clean_sbu_1, # of connection points: 4
#     Node 30, Type 0, BuildingBlock: QUQFOY_clean_sbu_1, # of connection points: 4
#     Node 31, Type 0, BuildingBlock: QUQFOY_clean_sbu_1, # of connection points: 4
#     Edge 32, Type (0, 0), None
#     Edge 33, Type (0, 0), None
#     Edge 34, Type (0, 0), None
#     Edge 35, Type (0, 0), None
#     Edge 36, Type (0, 0), None
#     Edge 37, Type (0, 0), None
#     Edge 38, Type (0, 0), None
#     Edge 39, Type (0, 0), None
#     Edge 40, Type (0, 0), None
#     Edge 41, Type (0, 0), None
#     Edge 42, Type (0, 0), None
#     Edge 43, Type (0, 0), None
#     Edge 44, Type (0, 0), None
#     Edge 45, Type (0, 0), None
#     Edge 46, Type (0, 0), None
#     Edge 47, Type (0, 0), None
#     Edge 48, Type (0, 0), None
#     Edge 49, Type (0, 0), None
#     Edge 50, Type (0, 0), None
#     Edge 51, Type (0, 0), None
#     Edge 52, Type (0, 0), None
#     Edge 53, Type (0, 0), None
#     Edge 54, Type (0, 0), None
#     Edge 55, Type (0, 0), None
#     Edge 56, Type (0, 0), None
#     Edge 57, Type (0, 0), None
#     Edge 58, Type (0, 0), None
#     Edge 59, Type (0, 0), None
#     Edge 60, Type (0, 0), None
#     Edge 61, Type (0, 0), None
#     Edge 62, Type (0, 0), None
#     Edge 63, Type (0, 0), None
#     Edge 64, Type (0, 0), None
#     Edge 65, Type (0, 0), None
#     Edge 66, Type (0, 0), None
#     Edge 67, Type (0, 0), None
#     Edge 68, Type (0, 0), None
#     Edge 69, Type (0, 0), None
#     Edge 70, Type (0, 0), None
#     Edge 71, Type (0, 0), None
#     Edge 72, Type (0, 0), None
#     Edge 73, Type (0, 0), None
#     Edge 74, Type (0, 0), None
#     Edge 75, Type (0, 0), None
#     Edge 76, Type (0, 0), None
#     Edge 77, Type (0, 0), None
#     Edge 78, Type (0, 0), None
#     Edge 79, Type (0, 0), None
#     Edge 80, Type (0, 0), None
#     Edge 81, Type (0, 0), None
#     Edge 82, Type (0, 0), None
#     Edge 83, Type (0, 0), None
#     Edge 84, Type (0, 0), None
#     Edge 85, Type (0, 0), None
#     Edge 86, Type (0, 0), None
#     Edge 87, Type (0, 0), None
#     Edge 88, Type (0, 0), None
#     Edge 89, Type (0, 0), None
#     Edge 90, Type (0, 0), None
#     Edge 91, Type (0, 0), None
#     Edge 92, Type (0, 0), None
#     Edge 93, Type (0, 0), None
#     Edge 94, Type (0, 0), None
#     Edge 95, Type (0, 0), None
# Relax obj value: 0.169
# Max RMSD: 0.145
# Mean RMSD: 0.145
data_MOF--net-uow--node1-QUQFOY_clean_sbu_1--edge1-none
_symmetry_space_group_name_H-M    P1
_symmetry_Int_Tables_number       1
_symmetry_cell_setting            triclinic
loop_
_symmetry_equiv_pos_as_xyz
'x, y, z'
_cell_length_a     28.59902
_cell_length_b     28.600021
_cell_length_c     21.055406
_cell_angle_alpha  90.0
_cell_angle_beta   90.0
_cell_angle_gamma 90.001275
loop_
_atom_site_label
_atom_site_type_symbol
_atom_site_fract_x
_atom_site_fract_y
_atom_site_fract_z
_atom_type_partial_charge
O0 O 1.02303 0.43345 0.37858 0.0
Cd1 Cd 0.08899 0.44884 0.34515 0.0
Cd2 Cd 0.06871 0.3777 0.2678 0.0
O3 O 1.00046 0.39072 0.29728 0.0
O4 O 0.10081 0.51809 0.34077 0.0
O5 O 0.09473 0.47246 0.25598 0.0
C6 C 0.09981 0.51379 0.2796 0.0
C7 C 0.08903 0.35486 0.16497 0.0
C8 C 0.99148 0.41008 0.35034 0.0
C9 C 0.13737 0.36228 0.37657 0.0
O10 O 0.11031 0.34607 0.33416 0.0
O11 O 0.13911 0.40603 0.3877 0.0
O12 O 0.0627 0.32887 0.19972 0.0
O13 O 0.10152 0.39504 0.18672 0.0
O14 O 0.88549 0.77308 0.6286 0.0
Cd15 Cd 0.8701 0.83904 0.59517 0.0
Cd16 Cd 0.94124 0.81876 0.51781 0.0
O17 O 0.92823 0.75051 0.54731 0.0
O18 O 0.80085 0.85086 0.59078 0.0
O19 O 0.8465 0.84478 0.506 0.0
C20 C 0.80516 0.84986 0.5296 0.0
C21 C 0.96408 0.83905 0.41496 0.0
C22 C 0.90886 0.74152 0.60036 0.0
C23 C 0.95667 0.88742 0.62657 0.0
O24 O 0.97288 0.86037 0.58415 0.0
O25 O 0.91292 0.88915 0.63772 0.0
O26 O 0.99007 0.81274 0.44972 0.0
O27 O 0.9239 0.85155 0.43671 0.0
O28 O 0.54589 0.63554 0.87858 0.0
Cd29 Cd 0.47993 0.62014 0.84515 0.0
Cd30 Cd 0.5002 0.69129 0.7678 0.0
O31 O 0.56846 0.67827 0.79728 0.0
O32 O 0.46811 0.55089 0.84077 0.0
O33 O 0.47419 0.59653 0.75598 0.0
C34 C 0.46911 0.55519 0.7796 0.0
C35 C 0.47989 0.71412 0.66497 0.0
C36 C 0.57744 0.65891 0.85034 0.0
C37 C 0.43155 0.70671 0.87657 0.0
O38 O 0.45861 0.72292 0.83416 0.0
O39 O 0.42981 0.66296 0.8877 0.0
O40 O 0.50622 0.74011 0.69972 0.0
O41 O 0.4674 0.67394 0.68672 0.0
O42 O 0.68343 0.29591 0.1286 0.0
Cd43 Cd 0.69882 0.22995 0.09517 0.0
Cd44 Cd 0.62768 0.25022 0.01781 0.0
O45 O 0.64069 0.31847 0.04731 0.0
O46 O 0.76807 0.21812 0.09078 0.0
O47 O 0.72242 0.22421 1.006 0.0
C48 C 0.76376 0.21912 0.0296 0.0
C49 C 0.60484 0.22993 0.91496 0.0
C50 C 0.66006 0.32746 0.10036 0.0
C51 C 0.61225 0.18156 0.12658 0.0
O52 O 0.59604 0.20862 0.08415 0.0
O53 O 0.656 0.17983 0.13772 0.0
O54 O 0.57885 0.25624 0.94972 0.0
O55 O 0.64502 0.21743 0.93671 0.0
O56 O 1.02303 0.63554 0.13893 0.0
Cd57 Cd 0.08899 0.62014 0.17236 0.0
Cd58 Cd 0.06871 0.69129 0.24971 0.0
O59 O 1.00045 0.67827 0.22022 0.0
O60 O 0.10081 0.55089 0.17673 0.0
O61 O 0.09473 0.59653 0.26153 0.0
C62 C 0.0998 0.5552 0.23791 0.0
C63 C 0.08902 0.71412 0.35254 0.0
C64 C 0.99147 0.6589 0.16717 0.0
C65 C 0.13737 0.70671 0.14094 0.0
O66 O 0.1103 0.72292 0.18334 0.0
O67 O 0.13911 0.66296 0.12981 0.0
O68 O 0.0627 0.74011 0.31779 0.0
O69 O 0.10152 0.67394 0.33079 0.0
O70 O 0.68343 0.77308 0.3889 0.0
Cd71 Cd 0.69882 0.83904 0.42234 0.0
Cd72 Cd 0.62768 0.81877 0.4997 0.0
O73 O 0.64069 0.75051 0.4702 0.0
O74 O 0.76807 0.85087 0.42673 0.0
O75 O 0.72242 0.84478 0.51151 0.0
C76 C 0.76376 0.84986 0.4879 0.0
C77 C 0.60484 0.83906 0.60255 0.0
C78 C 0.66006 0.74153 0.41715 0.0
C79 C 0.61225 0.88743 0.39093 0.0
O80 O 0.59604 0.86037 0.43335 0.0
O81 O 0.656 0.88916 0.37978 0.0
O82 O 0.57885 0.81274 0.56778 0.0
O83 O 0.64502 0.85156 0.5808 0.0
O84 O 0.54589 0.43345 0.63893 0.0
Cd85 Cd 0.47993 0.44884 0.67236 0.0
Cd86 Cd 0.50021 0.3777 0.74971 0.0
O87 O 0.56847 0.39072 0.72022 0.0
O88 O 0.46811 0.51809 0.67673 0.0
O89 O 0.47419 0.47246 0.76153 0.0
C90 C 0.46911 0.51379 0.73791 0.0
C91 C 0.4799 0.35486 0.85254 0.0
C92 C 0.57745 0.41008 0.66717 0.0
C93 C 0.43155 0.36228 0.64094 0.0
O94 O 0.45862 0.34606 0.68334 0.0
O95 O 0.42981 0.40603 0.62981 0.0
O96 O 0.50622 0.32887 0.81779 0.0
O97 O 0.4674 0.39504 0.83079 0.0
O98 O 0.88549 0.2959 0.8889 0.0
Cd99 Cd 0.8701 0.22994 0.92234 0.0
Cd100 Cd 0.94124 0.25022 0.9997 0.0
O101 O 0.92823 0.31847 0.9702 0.0
O102 O 0.80085 0.21812 0.92673 0.0
O103 O 0.8465 0.2242 0.01151 0.0
C104 C 0.80516 0.21913 0.9879 0.0
C105 C 0.96408 0.22993 0.10255 0.0
C106 C 0.90886 0.32746 0.91715 0.0
C107 C 0.95667 0.18156 0.89093 0.0
O108 O 0.97288 0.20862 0.93335 0.0
O109 O 0.91292 0.17983 0.87978 0.0
O110 O 0.99007 0.25624 0.06778 0.0
O111 O 0.9239 0.21743 0.0808 0.0
O112 O 0.04587 0.63552 0.6389 0.0
Cd113 Cd 0.97991 0.62013 0.67233 0.0
Cd114 Cd 1.0002 0.69125 0.74972 0.0
O115 O 0.06846 0.67824 0.7202 0.0
O116 O 0.96808 0.55088 0.67673 0.0
O117 O 0.97417 0.59653 0.76151 0.0
C118 C 0.96909 0.55519 0.7379 0.0
C119 C 0.97991 0.7141 0.85256 0.0
C120 C 0.07743 0.65888 0.66715 0.0
C121 C 0.93154 0.70671 0.64096 0.0
O122 O 0.9586 0.7229 0.68339 0.0
O123 O 0.9298 0.66296 0.62978 0.0
O124 O 1.00623 0.74009 0.81779 0.0
O125 O 0.96741 0.67392 0.83082 0.0
O126 O 0.18346 0.29595 0.38891 0.0
Cd127 Cd 0.19883 0.22998 0.42232 0.0
Cd128 Cd 0.12766 0.25023 0.4997 0.0
O129 O 0.14066 0.31849 0.4702 0.0
O130 O 0.26808 0.21815 0.42673 0.0
O131 O 0.22242 0.22423 0.51149 0.0
C132 C 0.26376 0.21914 0.4879 0.0
C133 C 0.10483 0.22993 0.60254 0.0
C134 C 0.16008 0.32748 0.41719 0.0
C135 C 0.11226 0.18159 0.39091 0.0
O136 O 0.09604 0.20863 0.43334 0.0
O137 O 0.15601 0.17988 0.37975 0.0
O138 O 0.07883 0.25624 0.56777 0.0
O139 O 0.14501 0.21744 0.58079 0.0
O140 O 0.52305 0.43347 0.1389 0.0
Cd141 Cd 0.58901 0.44886 0.17233 0.0
Cd142 Cd 0.56872 0.37773 0.24972 0.0
O143 O 0.50046 0.39074 0.2202 0.0
O144 O 0.60084 0.51811 0.17673 0.0
O145 O 0.59475 0.47246 0.26151 0.0
C146 C 0.59983 0.51379 0.2379 0.0
C147 C 0.58901 0.35488 0.35256 0.0
C148 C 0.49149 0.4101 0.16715 0.0
C149 C 0.63738 0.36228 0.14096 0.0
O150 O 0.61032 0.34609 0.18339 0.0
O151 O 0.63911 0.40602 0.12978 0.0
O152 O 0.56269 0.3289 0.31779 0.0
O153 O 0.60151 0.39506 0.33082 0.0
O154 O 0.38546 0.77303 0.88891 0.0
Cd155 Cd 0.37009 0.839 0.92232 0.0
Cd156 Cd 0.44126 0.81875 0.9997 0.0
O157 O 0.42825 0.7505 0.9702 0.0
O158 O 0.30084 0.85084 0.92673 0.0
O159 O 0.3465 0.84476 0.01149 0.0
C160 C 0.30516 0.84984 0.9879 0.0
C161 C 0.46409 0.83906 0.10254 0.0
C162 C 0.40884 0.7415 0.91719 0.0
C163 C 0.45666 0.8874 0.89091 0.0
O164 O 0.47287 0.86036 0.93334 0.0
O165 O 0.41291 0.88911 0.87975 0.0
O166 O 0.49009 0.81275 0.06777 0.0
O167 O 0.42391 0.85154 0.08079 0.0
O168 O 0.04588 0.43347 0.8786 0.0
Cd169 Cd 0.97992 0.44885 0.84517 0.0
Cd170 Cd 1.00021 0.37773 0.76778 0.0
O171 O 0.06846 0.39074 0.7973 0.0
O172 O 0.96808 0.5181 0.84078 0.0
O173 O 0.97417 0.47246 0.756 0.0
C174 C 0.96909 0.51379 0.7796 0.0
C175 C 0.97991 0.35488 0.66495 0.0
C176 C 0.07744 0.4101 0.85036 0.0
C177 C 0.93154 0.36228 0.87654 0.0
O178 O 0.9586 0.34608 0.83412 0.0
O179 O 0.92981 0.40602 0.88772 0.0
O180 O 1.00624 0.3289 0.69971 0.0
O181 O 0.96741 0.39506 0.68669 0.0
O182 O 0.38546 0.29595 0.6286 0.0
Cd183 Cd 0.37008 0.22998 0.59519 0.0
Cd184 Cd 0.44125 0.25023 0.51781 0.0
O185 O 0.42826 0.31849 0.5473 0.0
O186 O 0.30083 0.21815 0.59078 0.0
O187 O 0.3465 0.22423 0.50601 0.0
C188 C 0.30516 0.21915 0.52961 0.0
C189 C 0.46409 0.22992 0.41497 0.0
C190 C 0.40884 0.32748 0.60032 0.0
C191 C 0.45666 0.18158 0.6266 0.0
O192 O 0.47287 0.20862 0.58416 0.0
O193 O 0.41291 0.17987 0.63776 0.0
O194 O 0.49009 0.25623 0.44973 0.0
O195 O 0.42391 0.21744 0.43672 0.0
O196 O 0.52304 0.63552 0.3786 0.0
Cd197 Cd 0.589 0.62013 0.34517 0.0
Cd198 Cd 0.56871 0.69125 0.26778 0.0
O199 O 0.50046 0.67824 0.2973 0.0
O200 O 0.60083 0.55088 0.34078 0.0
O201 O 0.59475 0.59653 0.256 0.0
C202 C 0.59983 0.55519 0.2796 0.0
C203 C 0.58901 0.7141 0.16495 0.0
C204 C 0.49148 0.65888 0.35036 0.0
C205 C 0.63738 0.70671 0.37654 0.0
O206 O 0.61031 0.7229 0.33412 0.0
O207 O 0.63911 0.66297 0.38772 0.0
O208 O 0.56268 0.74009 0.19971 0.0
O209 O 0.60151 0.67392 0.18669 0.0
O210 O 0.18346 0.77304 0.1286 0.0
Cd211 Cd 0.19883 0.83901 0.09519 0.0
Cd212 Cd 0.12766 0.81875 0.01781 0.0
O213 O 0.14066 0.7505 0.0473 0.0
O214 O 0.26809 0.85084 0.09078 0.0
O215 O 0.22242 0.84476 1.00601 0.0
C216 C 0.26376 0.84984 0.02961 0.0
C217 C 0.10483 0.83906 0.91497 0.0
C218 C 0.16008 0.7415 0.10032 0.0
C219 C 0.11226 0.8874 0.1266 0.0
O220 O 0.09605 0.86036 0.08416 0.0
O221 O 0.15601 0.88911 0.13776 0.0
O222 O 0.07883 0.81275 0.94973 0.0
O223 O 0.14501 0.85155 0.93672 0.0
O224 O 0.52299 0.93349 0.87857 0.0
Cd225 Cd 0.58896 0.94886 0.84518 0.0
Cd226 Cd 0.56872 0.8777 0.76778 0.0
O227 O 0.50046 0.89069 0.79728 0.0
O228 O 0.6008 1.01811 0.84078 0.0
O229 O 0.59472 0.97246 0.75601 0.0
C230 C 0.5998 1.0138 0.77961 0.0
C231 C 0.58901 0.85488 0.66494 0.0
C232 C 0.49146 0.91011 0.85029 0.0
C233 C 0.63737 0.8623 0.87658 0.0
O234 O 0.61033 0.84608 0.83413 0.0
O235 O 0.63907 0.90604 0.88775 0.0
O236 O 0.56271 0.82887 0.6997 0.0
O237 O 0.6015 0.89506 0.68669 0.0
O238 O 0.38549 0.27306 0.12859 0.0
Cd239 Cd 0.3701 0.33902 0.09518 0.0
Cd240 Cd 0.44122 0.31875 0.01777 0.0
O241 O 0.42823 0.2505 0.0473 0.0
O242 O 0.30084 0.35085 0.09078 0.0
O243 O 0.3465 0.34477 1.006 0.0
C244 C 0.30516 0.34985 0.0296 0.0
C245 C 0.46406 0.33903 0.91492 0.0
C246 C 0.40887 0.24151 0.10035 0.0
C247 C 0.45667 0.38742 0.12654 0.0
O248 O 0.47286 0.36037 0.08409 0.0
O249 O 0.41292 0.38913 0.13774 0.0
O250 O 0.49006 0.31273 0.94969 0.0
O251 O 0.42388 0.35152 0.93666 0.0
O252 O 0.04593 0.1355 0.37857 0.0
Cd253 Cd 0.97996 0.12012 0.34518 0.0
Cd254 Cd 1.0002 0.19128 0.26778 0.0
O255 O 0.06846 0.1783 0.29728 0.0
O256 O 0.96812 0.05087 0.34078 0.0
O257 O 0.9742 0.09653 0.25601 0.0
C258 C 0.96912 0.05519 0.27961 0.0
C259 C 0.9799 0.21411 0.16494 0.0
C260 C 0.07746 0.15888 0.35029 0.0
C261 C 0.93155 0.20669 0.37658 0.0
O262 O 0.95859 0.2229 0.33413 0.0
O263 O 0.92985 0.16294 0.38775 0.0
O264 O 1.00621 0.24011 0.1997 0.0
O265 O 0.96742 0.17392 0.18669 0.0
O266 O 0.18343 0.79593 0.62859 0.0
Cd267 Cd 0.19882 0.72996 0.59518 0.0
Cd268 Cd 0.1277 0.75023 0.51777 0.0
O269 O 0.14069 0.81849 0.5473 0.0
O270 O 0.26808 0.71814 0.59078 0.0
O271 O 0.22242 0.72422 0.506 0.0
C272 C 0.26376 0.71914 0.5296 0.0
C273 C 0.10486 0.72995 0.41492 0.0
C274 C 0.16005 0.82747 0.60035 0.0
C275 C 0.11225 0.68157 0.62654 0.0
O276 O 0.09606 0.70861 0.58409 0.0
O277 O 0.156 0.67986 0.63774 0.0
O278 O 0.07886 0.75626 0.44969 0.0
O279 O 0.14504 0.71746 0.43666 0.0
O280 O 0.52299 0.1355 0.63894 0.0
Cd281 Cd 0.58896 0.12012 0.67233 0.0
Cd282 Cd 0.56871 0.19128 0.74972 0.0
O283 O 0.50045 0.17829 0.72023 0.0
O284 O 0.60079 0.05087 0.67673 0.0
O285 O 0.59472 0.09653 0.7615 0.0
C286 C 0.5998 0.05519 0.7379 0.0
C287 C 0.58901 0.21411 0.85257 0.0
C288 C 0.49146 0.15887 0.66722 0.0
C289 C 0.63736 0.20669 0.64093 0.0
O290 O 0.61033 0.2229 0.68337 0.0
O291 O 0.63906 0.16295 0.62975 0.0
O292 O 0.56271 0.24011 0.8178 0.0
O293 O 0.60149 0.17393 0.83082 0.0
O294 O 0.18343 0.27306 0.88891 0.0
Cd295 Cd 0.19882 0.33902 0.92233 0.0
Cd296 Cd 0.1277 0.31875 0.99974 0.0
O297 O 0.14068 0.2505 0.97021 0.0
O298 O 0.26808 0.35085 0.92672 0.0
O299 O 0.22242 0.34477 0.0115 0.0
C300 C 0.26376 0.34985 0.9879 0.0
C301 C 0.10486 0.33904 0.10258 0.0
C302 C 0.16005 0.24151 0.91716 0.0
C303 C 0.11226 0.38742 0.89097 0.0
O304 O 0.09606 0.36038 0.93341 0.0
O305 O 0.156 0.38913 0.87977 0.0
O306 O 0.07886 0.31273 0.06781 0.0
O307 O 0.14505 0.35153 0.08084 0.0
O308 O 0.04593 0.93349 0.13893 0.0
Cd309 Cd 0.97996 0.94886 0.17233 0.0
Cd310 Cd 1.00021 0.8777 0.24972 0.0
O311 O 0.06847 0.89069 0.22023 0.0
O312 O 0.96812 1.01811 0.17673 0.0
O313 O 0.9742 0.97246 0.2615 0.0
C314 C 0.96912 1.01379 0.2379 0.0
C315 C 0.97991 0.85488 0.35257 0.0
C316 C 0.07746 0.91011 0.16722 0.0
C317 C 0.93156 0.86229 0.14093 0.0
O318 O 0.95859 0.84608 0.18337 0.0
O319 O 0.92985 0.90604 0.12975 0.0
O320 O 1.00621 0.82887 0.3178 0.0
O321 O 0.96742 0.89506 0.33082 0.0
O322 O 0.38549 0.79592 0.38891 0.0
Cd323 Cd 0.37009 0.72996 0.42233 0.0
Cd324 Cd 0.44122 0.75023 0.49974 0.0
O325 O 0.42824 0.81848 0.47021 0.0
O326 O 0.30084 0.71814 0.42672 0.0
O327 O 0.3465 0.72421 0.5115 0.0
C328 C 0.30516 0.71914 0.4879 0.0
C329 C 0.46406 0.72995 0.60258 0.0
C330 C 0.40887 0.82747 0.41716 0.0
C331 C 0.45666 0.68156 0.39097 0.0
O332 O 0.47286 0.70861 0.43341 0.0
O333 O 0.41292 0.67985 0.37977 0.0
O334 O 0.49006 0.75625 0.56781 0.0
O335 O 0.42387 0.71746 0.58084 0.0
O336 O 0.54592 0.13548 0.13891 0.0
Cd337 Cd 0.47994 0.12011 0.1723 0.0
Cd338 Cd 0.5002 0.19125 0.24974 0.0
O339 O 0.56846 0.17827 0.22021 0.0
O340 O 0.4681 0.05086 0.17672 0.0
O341 O 0.47418 0.09653 0.26148 0.0
C342 C 0.46909 0.05519 0.23789 0.0
C343 C 0.47992 0.21409 0.35259 0.0
C344 C 0.57745 0.15885 0.16719 0.0
C345 C 0.43154 0.20669 0.14095 0.0
O346 O 0.45858 0.22288 0.18342 0.0
O347 O 0.42985 0.16295 0.12973 0.0
O348 O 0.50622 0.24009 0.31781 0.0
O349 O 0.46743 0.1739 0.33085 0.0
O350 O 0.68346 0.79597 0.88892 0.0
Cd351 Cd 0.69884 0.73 0.92231 0.0
Cd352 Cd 0.62768 0.75025 0.99973 0.0
O353 O 0.64066 0.8185 0.97021 0.0
O354 O 0.76809 0.71816 0.92672 0.0
O355 O 0.72242 0.72424 0.01149 0.0
C356 C 0.76376 0.71916 0.9879 0.0
C357 C 0.60484 0.72995 0.10257 0.0
C358 C 0.66007 0.8275 0.9172 0.0
C359 C 0.61226 0.68159 0.89095 0.0
O360 O 0.59606 0.70862 0.93341 0.0
O361 O 0.656 0.6799 0.87973 0.0
O362 O 0.57884 0.75625 0.0678 0.0
O363 O 0.64503 0.71747 0.08084 0.0
O364 O 1.023 0.93351 0.63891 0.0
Cd365 Cd 0.08898 0.94888 0.6723 0.0
Cd366 Cd 0.06872 0.87773 0.74974 0.0
O367 O 1.00046 0.89071 0.72021 0.0
O368 O 0.10082 1.01813 0.67672 0.0
O369 O 0.09474 0.97246 0.76148 0.0
C370 C 0.09983 1.0138 0.73789 0.0
C371 C 0.089 0.8549 0.85259 0.0
C372 C 0.99147 0.91013 0.66719 0.0
C373 C 0.13737 0.8623 0.64095 0.0
O374 O 0.11034 0.8461 0.68342 0.0
O375 O 0.13907 0.90604 0.62973 0.0
O376 O 0.0627 0.8289 0.81781 0.0
O377 O 0.10149 0.89508 0.83085 0.0
O378 O 0.88546 0.27301 0.38892 0.0
Cd379 Cd 0.87008 0.33899 0.42231 0.0
Cd380 Cd 0.94124 0.31874 0.49973 0.0
O381 O 0.92826 0.25048 0.47021 0.0
O382 O 0.80083 0.35082 0.42672 0.0
O383 O 0.8465 0.34475 0.51149 0.0
C384 C 0.80516 0.34983 0.4879 0.0
C385 C 0.96408 0.33904 0.60257 0.0
C386 C 0.90884 0.24149 0.4172 0.0
C387 C 0.95666 0.38739 0.39095 0.0
O388 O 0.97286 0.36036 0.43341 0.0
O389 O 0.91292 0.38908 0.37973 0.0
O390 O 0.99008 0.31274 0.5678 0.0
O391 O 0.92388 0.35151 0.58084 0.0
O392 O 0.54592 0.93351 0.37859 0.0
Cd393 Cd 0.47994 0.94888 0.3452 0.0
Cd394 Cd 0.50021 0.87773 0.26776 0.0
O395 O 0.56846 0.89072 0.2973 0.0
O396 O 0.4681 1.01812 0.34079 0.0
O397 O 0.47418 0.97246 0.25602 0.0
C398 C 0.4691 1.0138 0.27961 0.0
C399 C 0.47992 0.8549 0.16492 0.0
C400 C 0.57745 0.91013 0.35031 0.0
C401 C 0.43155 0.86229 0.37655 0.0
O402 O 0.45858 0.8461 0.33409 0.0
O403 O 0.42985 0.90603 0.38777 0.0
O404 O 0.50623 0.8289 0.19969 0.0
O405 O 0.46744 0.89508 0.18666 0.0
O406 O 0.88546 0.79597 0.12859 0.0
Cd407 Cd 0.87008 0.72999 0.0952 0.0
Cd408 Cd 0.94124 0.75024 0.01777 0.0
O409 O 0.92826 0.8185 0.04729 0.0
O410 O 0.80083 0.71816 0.09079 0.0
O411 O 0.8465 0.72423 1.00602 0.0
C412 C 0.80516 0.71916 0.02961 0.0
C413 C 0.96407 0.72994 0.91493 0.0
C414 C 0.90885 0.82749 0.10031 0.0
C415 C 0.95665 0.68159 0.12656 0.0
O416 O 0.97286 0.70862 0.0841 0.0
O417 O 0.91291 0.6799 0.13777 0.0
O418 O 0.99008 0.75625 0.9497 0.0
O419 O 0.92388 0.71747 0.93667 0.0
O420 O 1.023 0.13547 0.87859 0.0
Cd421 Cd 0.08898 0.12011 0.8452 0.0
Cd422 Cd 0.06871 0.19125 0.76776 0.0
O423 O 1.00046 0.17827 0.7973 0.0
O424 O 0.10082 0.05086 0.84079 0.0
O425 O 0.09474 0.09653 0.75602 0.0
C426 C 0.09982 0.05519 0.77961 0.0
C427 C 0.089 0.21409 0.66492 0.0
C428 C 0.99147 0.15885 0.85031 0.0
C429 C 0.13737 0.20669 0.87655 0.0
O430 O 0.11034 0.22288 0.83409 0.0
O431 O 0.13907 0.16295 0.88777 0.0
O432 O 0.06269 0.24009 0.69969 0.0
O433 O 0.10148 0.1739 0.68666 0.0
O434 O 0.68346 0.27302 0.62859 0.0
Cd435 Cd 0.69884 0.33899 0.5952 0.0
Cd436 Cd 0.62768 0.31874 0.51777 0.0
O437 O 0.64066 0.25049 0.54729 0.0
O438 O 0.76809 0.35082 0.59079 0.0
O439 O 0.72242 0.34475 0.50602 0.0
C440 C 0.76376 0.34983 0.52961 0.0
C441 C 0.60484 0.33904 0.41493 0.0
C442 C 0.66007 0.24149 0.60031 0.0
C443 C 0.61226 0.3874 0.62656 0.0
O444 O 0.59606 0.36037 0.5841 0.0
O445 O 0.65601 0.38909 0.63777 0.0
O446 O 0.57884 0.31274 0.4497 0.0
O447 O 0.64504 0.35152 0.43667 0.0
loop_
_geom_bond_atom_site_label_1
_geom_bond_atom_site_label_2
_geom_bond_distance
_geom_bond_site_symmetry_2
_ccdc_geom_bond_type
O0 Cd1 2.223 1_655 S
O0 C8 1.315 . S
Cd1 O0 2.223 1_455 S
Cd1 O4 2.297 . S
Cd1 O5 2.439 . S
Cd1 O11 2.240 . S
Cd2 O3 2.240 1_455 S
Cd2 O10 2.223 . S
Cd2 O12 2.297 . S
Cd2 O13 2.439 . S
O3 Cd2 2.240 1_655 S
O3 C8 1.279 . S
O4 Cd1 2.297 . S
O4 C6 1.247 . S
O5 Cd1 2.439 . S
O5 C6 1.208 . S
C6 O4 1.247 . S
C6 O5 1.208 . S
C7 O12 1.247 . S
C7 O13 1.208 . S
C8 O0 1.315 . S
C8 O3 1.279 . S
C9 O10 1.315 . S
C9 O11 1.279 . S
O10 Cd2 2.223 . S
O10 C9 1.315 . S
O11 Cd1 2.240 . S
O11 C9 1.279 . S
O12 Cd2 2.297 . S
O12 C7 1.247 . S
O13 Cd2 2.439 . S
O13 C7 1.208 . S
O14 Cd15 2.223 . S
O14 C22 1.315 . S
Cd15 O14 2.223 . S
Cd15 O18 2.297 . S
Cd15 O19 2.439 . S
Cd15 O25 2.240 . S
Cd16 O17 2.240 . S
Cd16 O24 2.223 . S
Cd16 O26 2.297 . S
Cd16 O27 2.439 . S
O17 Cd16 2.240 . S
O17 C22 1.279 . S
O18 Cd15 2.297 . S
O18 C20 1.247 . S
O19 Cd15 2.439 . S
O19 C20 1.208 . S
C20 O18 1.247 . S
C20 O19 1.208 . S
C21 O26 1.247 . S
C21 O27 1.208 . S
C22 O14 1.315 . S
C22 O17 1.279 . S
C23 O24 1.315 . S
C23 O25 1.279 . S
O24 Cd16 2.223 . S
O24 C23 1.315 . S
O25 Cd15 2.240 . S
O25 C23 1.279 . S
O26 Cd16 2.297 . S
O26 C21 1.247 . S
O27 Cd16 2.439 . S
O27 C21 1.208 . S
O28 Cd29 2.223 . S
O28 C36 1.315 . S
Cd29 O28 2.223 . S
Cd29 O32 2.297 . S
Cd29 O33 2.439 . S
Cd29 O39 2.240 . S
Cd30 O31 2.240 . S
Cd30 O38 2.223 . S
Cd30 O40 2.297 . S
Cd30 O41 2.439 . S
O31 Cd30 2.240 . S
O31 C36 1.279 . S
O32 Cd29 2.297 . S
O32 C34 1.247 . S
O33 Cd29 2.439 . S
O33 C34 1.208 . S
C34 O32 1.247 . S
C34 O33 1.208 . S
C35 O40 1.247 . S
C35 O41 1.208 . S
C36 O28 1.315 . S
C36 O31 1.279 . S
C37 O38 1.315 . S
C37 O39 1.279 . S
O38 Cd30 2.223 . S
O38 C37 1.315 . S
O39 Cd29 2.240 . S
O39 C37 1.279 . S
O40 Cd30 2.297 . S
O40 C35 1.247 . S
O41 Cd30 2.439 . S
O41 C35 1.208 . S
O42 Cd43 2.223 . S
O42 C50 1.315 . S
Cd43 O42 2.223 . S
Cd43 O46 2.297 . S
Cd43 O47 2.439 . S
Cd43 O53 2.240 . S
Cd44 O45 2.240 1_556 S
Cd44 O52 2.223 1_556 S
Cd44 O54 2.297 . S
Cd44 O55 2.439 . S
O45 Cd44 2.240 1_554 S
O45 C50 1.279 . S
O46 Cd43 2.297 . S
O46 C48 1.247 . S
O47 Cd43 2.439 . S
O47 C48 1.208 . S
C48 O46 1.247 . S
C48 O47 1.208 . S
C49 O54 1.247 . S
C49 O55 1.208 . S
C50 O42 1.315 . S
C50 O45 1.279 . S
C51 O52 1.315 . S
C51 O53 1.279 . S
O52 Cd44 2.223 1_554 S
O52 C51 1.315 . S
O53 Cd43 2.240 . S
O53 C51 1.279 . S
O54 Cd44 2.297 . S
O54 C49 1.247 . S
O55 Cd44 2.439 . S
O55 C49 1.208 . S
O56 Cd57 2.223 1_655 S
O56 C64 1.315 . S
Cd57 O56 2.223 1_455 S
Cd57 O60 2.297 . S
Cd57 O61 2.439 . S
Cd57 O67 2.240 . S
Cd58 O59 2.240 1_455 S
Cd58 O66 2.223 . S
Cd58 O68 2.297 . S
Cd58 O69 2.439 . S
O59 Cd58 2.240 1_655 S
O59 C64 1.279 . S
O60 Cd57 2.297 . S
O60 C62 1.247 . S
O61 Cd57 2.439 . S
O61 C62 1.208 . S
C62 O60 1.247 . S
C62 O61 1.208 . S
C63 O68 1.247 . S
C63 O69 1.208 . S
C64 O56 1.315 . S
C64 O59 1.279 . S
C65 O66 1.315 . S
C65 O67 1.279 . S
O66 Cd58 2.223 . S
O66 C65 1.315 . S
O67 Cd57 2.240 . S
O67 C65 1.279 . S
O68 Cd58 2.297 . S
O68 C63 1.247 . S
O69 Cd58 2.439 . S
O69 C63 1.208 . S
O70 Cd71 2.223 . S
O70 C78 1.315 . S
Cd71 O70 2.223 . S
Cd71 O74 2.297 . S
Cd71 O75 2.439 . S
Cd71 O81 2.240 . S
Cd72 O73 2.240 . S
Cd72 O80 2.223 . S
Cd72 O82 2.297 . S
Cd72 O83 2.439 . S
O73 Cd72 2.240 . S
O73 C78 1.279 . S
O74 Cd71 2.297 . S
O74 C76 1.247 . S
O75 Cd71 2.439 . S
O75 C76 1.208 . S
C76 O74 1.247 . S
C76 O75 1.208 . S
C77 O82 1.247 . S
C77 O83 1.208 . S
C78 O70 1.315 . S
C78 O73 1.279 . S
C79 O80 1.315 . S
C79 O81 1.279 . S
O80 Cd72 2.223 . S
O80 C79 1.315 . S
O81 Cd71 2.240 . S
O81 C79 1.279 . S
O82 Cd72 2.297 . S
O82 C77 1.247 . S
O83 Cd72 2.439 . S
O83 C77 1.208 . S
O84 Cd85 2.223 . S
O84 C92 1.315 . S
Cd85 O84 2.223 . S
Cd85 O88 2.297 . S
Cd85 O89 2.439 . S
Cd85 O95 2.240 . S
Cd86 O87 2.240 . S
Cd86 O94 2.223 . S
Cd86 O96 2.297 . S
Cd86 O97 2.439 . S
O87 Cd86 2.240 . S
O87 C92 1.279 . S
O88 Cd85 2.297 . S
O88 C90 1.247 . S
O89 Cd85 2.439 . S
O89 C90 1.208 . S
C90 O88 1.247 . S
C90 O89 1.208 . S
C91 O96 1.247 . S
C91 O97 1.208 . S
C92 O84 1.315 . S
C92 O87 1.279 . S
C93 O94 1.315 . S
C93 O95 1.279 . S
O94 Cd86 2.223 . S
O94 C93 1.315 . S
O95 Cd85 2.240 . S
O95 C93 1.279 . S
O96 Cd86 2.297 . S
O96 C91 1.247 . S
O97 Cd86 2.439 . S
O97 C91 1.208 . S
O98 Cd99 2.223 . S
O98 C106 1.315 . S
Cd99 O98 2.223 . S
Cd99 O102 2.297 . S
Cd99 O103 2.439 . S
Cd99 O109 2.240 . S
Cd100 O101 2.240 1_554 S
Cd100 O108 2.223 1_554 S
Cd100 O110 2.297 . S
Cd100 O111 2.439 . S
O101 Cd100 2.240 1_556 S
O101 C106 1.279 . S
O102 Cd99 2.297 . S
O102 C104 1.247 . S
O103 Cd99 2.439 . S
O103 C104 1.208 . S
C104 O102 1.247 . S
C104 O103 1.208 . S
C105 O110 1.247 . S
C105 O111 1.208 . S
C106 O98 1.315 . S
C106 O101 1.279 . S
C107 O108 1.315 . S
C107 O109 1.279 . S
O108 Cd100 2.223 1_556 S
O108 C107 1.315 . S
O109 Cd99 2.240 . S
O109 C107 1.279 . S
O110 Cd100 2.297 . S
O110 C105 1.247 . S
O111 Cd100 2.439 . S
O111 C105 1.208 . S
O112 Cd113 2.223 1_455 S
O112 C120 1.315 . S
Cd113 O112 2.223 1_655 S
Cd113 O116 2.297 . S
Cd113 O117 2.439 . S
Cd113 O123 2.240 . S
Cd114 O115 2.240 1_655 S
Cd114 O122 2.223 . S
Cd114 O124 2.297 . S
Cd114 O125 2.439 . S
O115 Cd114 2.240 1_455 S
O115 C120 1.279 . S
O116 Cd113 2.297 . S
O116 C118 1.247 . S
O117 Cd113 2.439 . S
O117 C118 1.208 . S
C118 O116 1.247 . S
C118 O117 1.208 . S
C119 O124 1.247 . S
C119 O125 1.208 . S
C120 O112 1.315 . S
C120 O115 1.279 . S
C121 O122 1.315 . S
C121 O123 1.279 . S
O122 Cd114 2.223 . S
O122 C121 1.315 . S
O123 Cd113 2.240 . S
O123 C121 1.279 . S
O124 Cd114 2.297 . S
O124 C119 1.247 . S
O125 Cd114 2.439 . S
O125 C119 1.208 . S
O126 Cd127 2.223 . S
O126 C134 1.315 . S
Cd127 O126 2.223 . S
Cd127 O130 2.297 . S
Cd127 O131 2.439 . S
Cd127 O137 2.240 . S
Cd128 O129 2.240 . S
Cd128 O136 2.223 . S
Cd128 O138 2.297 . S
Cd128 O139 2.439 . S
O129 Cd128 2.240 . S
O129 C134 1.279 . S
O130 Cd127 2.297 . S
O130 C132 1.247 . S
O131 Cd127 2.439 . S
O131 C132 1.208 . S
C132 O130 1.247 . S
C132 O131 1.208 . S
C133 O138 1.247 . S
C133 O139 1.208 . S
C134 O126 1.315 . S
C134 O129 1.279 . S
C135 O136 1.315 . S
C135 O137 1.279 . S
O136 Cd128 2.223 . S
O136 C135 1.315 . S
O137 Cd127 2.240 . S
O137 C135 1.279 . S
O138 Cd128 2.297 . S
O138 C133 1.247 . S
O139 Cd128 2.439 . S
O139 C133 1.208 . S
O140 Cd141 2.223 . S
O140 C148 1.315 . S
Cd141 O140 2.223 . S
Cd141 O144 2.297 . S
Cd141 O145 2.439 . S
Cd141 O151 2.240 . S
Cd142 O143 2.240 . S
Cd142 O150 2.223 . S
Cd142 O152 2.297 . S
Cd142 O153 2.439 . S
O143 Cd142 2.240 . S
O143 C148 1.279 . S
O144 Cd141 2.297 . S
O144 C146 1.247 . S
O145 Cd141 2.439 . S
O145 C146 1.208 . S
C146 O144 1.247 . S
C146 O145 1.208 . S
C147 O152 1.247 . S
C147 O153 1.208 . S
C148 O140 1.315 . S
C148 O143 1.279 . S
C149 O150 1.315 . S
C149 O151 1.279 . S
O150 Cd142 2.223 . S
O150 C149 1.315 . S
O151 Cd141 2.240 . S
O151 C149 1.279 . S
O152 Cd142 2.297 . S
O152 C147 1.247 . S
O153 Cd142 2.439 . S
O153 C147 1.208 . S
O154 Cd155 2.223 . S
O154 C162 1.315 . S
Cd155 O154 2.223 . S
Cd155 O158 2.297 . S
Cd155 O159 2.439 . S
Cd155 O165 2.240 . S
Cd156 O157 2.240 1_554 S
Cd156 O164 2.223 1_554 S
Cd156 O166 2.297 . S
Cd156 O167 2.439 . S
O157 Cd156 2.240 1_556 S
O157 C162 1.279 . S
O158 Cd155 2.297 . S
O158 C160 1.247 . S
O159 Cd155 2.439 . S
O159 C160 1.208 . S
C160 O158 1.247 . S
C160 O159 1.208 . S
C161 O166 1.247 . S
C161 O167 1.208 . S
C162 O154 1.315 . S
C162 O157 1.279 . S
C163 O164 1.315 . S
C163 O165 1.279 . S
O164 Cd156 2.223 1_556 S
O164 C163 1.315 . S
O165 Cd155 2.240 . S
O165 C163 1.279 . S
O166 Cd156 2.297 . S
O166 C161 1.247 . S
O167 Cd156 2.439 . S
O167 C161 1.208 . S
O168 Cd169 2.223 1_455 S
O168 C176 1.315 . S
Cd169 O168 2.223 1_655 S
Cd169 O172 2.297 . S
Cd169 O173 2.439 . S
Cd169 O179 2.240 . S
Cd170 O171 2.240 1_655 S
Cd170 O178 2.223 . S
Cd170 O180 2.297 . S
Cd170 O181 2.439 . S
O171 Cd170 2.240 1_455 S
O171 C176 1.279 . S
O172 Cd169 2.297 . S
O172 C174 1.247 . S
O173 Cd169 2.439 . S
O173 C174 1.208 . S
C174 O172 1.247 . S
C174 O173 1.208 . S
C175 O180 1.247 . S
C175 O181 1.208 . S
C176 O168 1.315 . S
C176 O171 1.279 . S
C177 O178 1.315 . S
C177 O179 1.279 . S
O178 Cd170 2.223 . S
O178 C177 1.315 . S
O179 Cd169 2.240 . S
O179 C177 1.279 . S
O180 Cd170 2.297 . S
O180 C175 1.247 . S
O181 Cd170 2.439 . S
O181 C175 1.208 . S
O182 Cd183 2.223 . S
O182 C190 1.315 . S
Cd183 O182 2.223 . S
Cd183 O186 2.297 . S
Cd183 O187 2.439 . S
Cd183 O193 2.240 . S
Cd184 O185 2.240 . S
Cd184 O192 2.223 . S
Cd184 O194 2.297 . S
Cd184 O195 2.439 . S
O185 Cd184 2.240 . S
O185 C190 1.279 . S
O186 Cd183 2.297 . S
O186 C188 1.247 . S
O187 Cd183 2.439 . S
O187 C188 1.208 . S
C188 O186 1.247 . S
C188 O187 1.208 . S
C189 O194 1.247 . S
C189 O195 1.208 . S
C190 O182 1.315 . S
C190 O185 1.279 . S
C191 O192 1.315 . S
C191 O193 1.279 . S
O192 Cd184 2.223 . S
O192 C191 1.315 . S
O193 Cd183 2.240 . S
O193 C191 1.279 . S
O194 Cd184 2.297 . S
O194 C189 1.247 . S
O195 Cd184 2.439 . S
O195 C189 1.208 . S
O196 Cd197 2.223 . S
O196 C204 1.315 . S
Cd197 O196 2.223 . S
Cd197 O200 2.297 . S
Cd197 O201 2.439 . S
Cd197 O207 2.240 . S
Cd198 O199 2.240 . S
Cd198 O206 2.223 . S
Cd198 O208 2.297 . S
Cd198 O209 2.439 . S
O199 Cd198 2.240 . S
O199 C204 1.279 . S
O200 Cd197 2.297 . S
O200 C202 1.247 . S
O201 Cd197 2.439 . S
O201 C202 1.208 . S
C202 O200 1.247 . S
C202 O201 1.208 . S
C203 O208 1.247 . S
C203 O209 1.208 . S
C204 O196 1.315 . S
C204 O199 1.279 . S
C205 O206 1.315 . S
C205 O207 1.279 . S
O206 Cd198 2.223 . S
O206 C205 1.315 . S
O207 Cd197 2.240 . S
O207 C205 1.279 . S
O208 Cd198 2.297 . S
O208 C203 1.247 . S
O209 Cd198 2.439 . S
O209 C203 1.208 . S
O210 Cd211 2.223 . S
O210 C218 1.315 . S
Cd211 O210 2.223 . S
Cd211 O214 2.297 . S
Cd211 O215 2.439 . S
Cd211 O221 2.240 . S
Cd212 O213 2.240 1_556 S
Cd212 O220 2.223 1_556 S
Cd212 O222 2.297 . S
Cd212 O223 2.439 . S
O213 Cd212 2.240 1_554 S
O213 C218 1.279 . S
O214 Cd211 2.297 . S
O214 C216 1.247 . S
O215 Cd211 2.439 . S
O215 C216 1.208 . S
C216 O214 1.247 . S
C216 O215 1.208 . S
C217 O222 1.247 . S
C217 O223 1.208 . S
C218 O210 1.315 . S
C218 O213 1.279 . S
C219 O220 1.315 . S
C219 O221 1.279 . S
O220 Cd212 2.223 1_554 S
O220 C219 1.315 . S
O221 Cd211 2.240 . S
O221 C219 1.279 . S
O222 Cd212 2.297 . S
O222 C217 1.247 . S
O223 Cd212 2.439 . S
O223 C217 1.208 . S
O224 Cd225 2.223 . S
O224 C232 1.315 . S
Cd225 O224 2.223 . S
Cd225 O228 2.297 . S
Cd225 O229 2.439 . S
Cd225 O235 2.240 . S
Cd226 O227 2.240 . S
Cd226 O234 2.223 . S
Cd226 O236 2.297 . S
Cd226 O237 2.439 . S
O227 Cd226 2.240 . S
O227 C232 1.279 . S
O228 Cd225 2.297 . S
O228 C230 1.247 . S
O229 Cd225 2.439 . S
O229 C230 1.208 . S
C230 O228 1.247 . S
C230 O229 1.208 . S
C231 O236 1.247 . S
C231 O237 1.208 . S
C232 O224 1.315 . S
C232 O227 1.279 . S
C233 O234 1.315 . S
C233 O235 1.279 . S
O234 Cd226 2.223 . S
O234 C233 1.315 . S
O235 Cd225 2.240 . S
O235 C233 1.279 . S
O236 Cd226 2.297 . S
O236 C231 1.247 . S
O237 Cd226 2.439 . S
O237 C231 1.208 . S
O238 Cd239 2.223 . S
O238 C246 1.315 . S
Cd239 O238 2.223 . S
Cd239 O242 2.297 . S
Cd239 O243 2.439 . S
Cd239 O249 2.240 . S
Cd240 O241 2.240 1_556 S
Cd240 O248 2.223 1_556 S
Cd240 O250 2.297 . S
Cd240 O251 2.439 . S
O241 Cd240 2.240 1_554 S
O241 C246 1.279 . S
O242 Cd239 2.297 . S
O242 C244 1.247 . S
O243 Cd239 2.439 . S
O243 C244 1.208 . S
C244 O242 1.247 . S
C244 O243 1.208 . S
C245 O250 1.247 . S
C245 O251 1.208 . S
C246 O238 1.315 . S
C246 O241 1.279 . S
C247 O248 1.315 . S
C247 O249 1.279 . S
O248 Cd240 2.223 1_554 S
O248 C247 1.315 . S
O249 Cd239 2.240 . S
O249 C247 1.279 . S
O250 Cd240 2.297 . S
O250 C245 1.247 . S
O251 Cd240 2.439 . S
O251 C245 1.208 . S
O252 Cd253 2.223 1_455 S
O252 C260 1.315 . S
Cd253 O252 2.223 1_655 S
Cd253 O256 2.297 . S
Cd253 O257 2.439 . S
Cd253 O263 2.240 . S
Cd254 O255 2.240 1_655 S
Cd254 O262 2.223 . S
Cd254 O264 2.297 . S
Cd254 O265 2.439 . S
O255 Cd254 2.240 1_455 S
O255 C260 1.279 . S
O256 Cd253 2.297 . S
O256 C258 1.247 . S
O257 Cd253 2.439 . S
O257 C258 1.208 . S
C258 O256 1.247 . S
C258 O257 1.208 . S
C259 O264 1.247 . S
C259 O265 1.208 . S
C260 O252 1.315 . S
C260 O255 1.279 . S
C261 O262 1.315 . S
C261 O263 1.279 . S
O262 Cd254 2.223 . S
O262 C261 1.315 . S
O263 Cd253 2.240 . S
O263 C261 1.279 . S
O264 Cd254 2.297 . S
O264 C259 1.247 . S
O265 Cd254 2.439 . S
O265 C259 1.208 . S
O266 Cd267 2.223 . S
O266 C274 1.315 . S
Cd267 O266 2.223 . S
Cd267 O270 2.297 . S
Cd267 O271 2.439 . S
Cd267 O277 2.240 . S
Cd268 O269 2.240 . S
Cd268 O276 2.223 . S
Cd268 O278 2.297 . S
Cd268 O279 2.439 . S
O269 Cd268 2.240 . S
O269 C274 1.279 . S
O270 Cd267 2.297 . S
O270 C272 1.247 . S
O271 Cd267 2.439 . S
O271 C272 1.208 . S
C272 O270 1.247 . S
C272 O271 1.208 . S
C273 O278 1.247 . S
C273 O279 1.208 . S
C274 O266 1.315 . S
C274 O269 1.279 . S
C275 O276 1.315 . S
C275 O277 1.279 . S
O276 Cd268 2.223 . S
O276 C275 1.315 . S
O277 Cd267 2.240 . S
O277 C275 1.279 . S
O278 Cd268 2.297 . S
O278 C273 1.247 . S
O279 Cd268 2.439 . S
O279 C273 1.208 . S
O280 Cd281 2.223 . S
O280 C288 1.315 . S
Cd281 O280 2.223 . S
Cd281 O284 2.297 . S
Cd281 O285 2.439 . S
Cd281 O291 2.240 . S
Cd282 O283 2.240 . S
Cd282 O290 2.223 . S
Cd282 O292 2.297 . S
Cd282 O293 2.439 . S
O283 Cd282 2.240 . S
O283 C288 1.279 . S
O284 Cd281 2.297 . S
O284 C286 1.247 . S
O285 Cd281 2.439 . S
O285 C286 1.208 . S
C286 O284 1.247 . S
C286 O285 1.208 . S
C287 O292 1.247 . S
C287 O293 1.208 . S
C288 O280 1.315 . S
C288 O283 1.279 . S
C289 O290 1.315 . S
C289 O291 1.279 . S
O290 Cd282 2.223 . S
O290 C289 1.315 . S
O291 Cd281 2.240 . S
O291 C289 1.279 . S
O292 Cd282 2.297 . S
O292 C287 1.247 . S
O293 Cd282 2.439 . S
O293 C287 1.208 . S
O294 Cd295 2.223 . S
O294 C302 1.315 . S
Cd295 O294 2.223 . S
Cd295 O298 2.297 . S
Cd295 O299 2.439 . S
Cd295 O305 2.240 . S
Cd296 O297 2.240 1_554 S
Cd296 O304 2.223 1_554 S
Cd296 O306 2.297 . S
Cd296 O307 2.439 . S
O297 Cd296 2.240 1_556 S
O297 C302 1.279 . S
O298 Cd295 2.297 . S
O298 C300 1.247 . S
O299 Cd295 2.439 . S
O299 C300 1.208 . S
C300 O298 1.247 . S
C300 O299 1.208 . S
C301 O306 1.247 . S
C301 O307 1.208 . S
C302 O294 1.315 . S
C302 O297 1.279 . S
C303 O304 1.315 . S
C303 O305 1.279 . S
O304 Cd296 2.223 1_556 S
O304 C303 1.315 . S
O305 Cd295 2.240 . S
O305 C303 1.279 . S
O306 Cd296 2.297 . S
O306 C301 1.247 . S
O307 Cd296 2.439 . S
O307 C301 1.208 . S
O308 Cd309 2.223 1_455 S
O308 C316 1.315 . S
Cd309 O308 2.223 1_655 S
Cd309 O312 2.297 . S
Cd309 O313 2.439 . S
Cd309 O319 2.240 . S
Cd310 O311 2.240 1_655 S
Cd310 O318 2.223 . S
Cd310 O320 2.297 . S
Cd310 O321 2.439 . S
O311 Cd310 2.240 1_455 S
O311 C316 1.279 . S
O312 Cd309 2.297 . S
O312 C314 1.247 . S
O313 Cd309 2.439 . S
O313 C314 1.208 . S
C314 O312 1.247 . S
C314 O313 1.208 . S
C315 O320 1.247 . S
C315 O321 1.208 . S
C316 O308 1.315 . S
C316 O311 1.279 . S
C317 O318 1.315 . S
C317 O319 1.279 . S
O318 Cd310 2.223 . S
O318 C317 1.315 . S
O319 Cd309 2.240 . S
O319 C317 1.279 . S
O320 Cd310 2.297 . S
O320 C315 1.247 . S
O321 Cd310 2.439 . S
O321 C315 1.208 . S
O322 Cd323 2.223 . S
O322 C330 1.315 . S
Cd323 O322 2.223 . S
Cd323 O326 2.297 . S
Cd323 O327 2.439 . S
Cd323 O333 2.240 . S
Cd324 O325 2.240 . S
Cd324 O332 2.223 . S
Cd324 O334 2.297 . S
Cd324 O335 2.439 . S
O325 Cd324 2.240 . S
O325 C330 1.279 . S
O326 Cd323 2.297 . S
O326 C328 1.247 . S
O327 Cd323 2.439 . S
O327 C328 1.208 . S
C328 O326 1.247 . S
C328 O327 1.208 . S
C329 O334 1.247 . S
C329 O335 1.208 . S
C330 O322 1.315 . S
C330 O325 1.279 . S
C331 O332 1.315 . S
C331 O333 1.279 . S
O332 Cd324 2.223 . S
O332 C331 1.315 . S
O333 Cd323 2.240 . S
O333 C331 1.279 . S
O334 Cd324 2.297 . S
O334 C329 1.247 . S
O335 Cd324 2.439 . S
O335 C329 1.208 . S
O336 Cd337 2.223 . S
O336 C344 1.315 . S
Cd337 O336 2.223 . S
Cd337 O340 2.297 . S
Cd337 O341 2.439 . S
Cd337 O347 2.240 . S
Cd338 O339 2.240 . S
Cd338 O346 2.223 . S
Cd338 O348 2.297 . S
Cd338 O349 2.439 . S
O339 Cd338 2.240 . S
O339 C344 1.279 . S
O340 Cd337 2.297 . S
O340 C342 1.247 . S
O341 Cd337 2.439 . S
O341 C342 1.208 . S
C342 O340 1.247 . S
C342 O341 1.208 . S
C343 O348 1.247 . S
C343 O349 1.208 . S
C344 O336 1.315 . S
C344 O339 1.279 . S
C345 O346 1.315 . S
C345 O347 1.279 . S
O346 Cd338 2.223 . S
O346 C345 1.315 . S
O347 Cd337 2.240 . S
O347 C345 1.279 . S
O348 Cd338 2.297 . S
O348 C343 1.247 . S
O349 Cd338 2.439 . S
O349 C343 1.208 . S
O350 Cd351 2.223 . S
O350 C358 1.315 . S
Cd351 O350 2.223 . S
Cd351 O354 2.297 . S
Cd351 O355 2.439 . S
Cd351 O361 2.240 . S
Cd352 O353 2.240 1_554 S
Cd352 O360 2.223 1_554 S
Cd352 O362 2.297 . S
Cd352 O363 2.439 . S
O353 Cd352 2.240 1_556 S
O353 C358 1.279 . S
O354 Cd351 2.297 . S
O354 C356 1.247 . S
O355 Cd351 2.439 . S
O355 C356 1.208 . S
C356 O354 1.247 . S
C356 O355 1.208 . S
C357 O362 1.247 . S
C357 O363 1.208 . S
C358 O350 1.315 . S
C358 O353 1.279 . S
C359 O360 1.315 . S
C359 O361 1.279 . S
O360 Cd352 2.223 1_556 S
O360 C359 1.315 . S
O361 Cd351 2.240 . S
O361 C359 1.279 . S
O362 Cd352 2.297 . S
O362 C357 1.247 . S
O363 Cd352 2.439 . S
O363 C357 1.208 . S
O364 Cd365 2.223 1_655 S
O364 C372 1.315 . S
Cd365 O364 2.223 1_455 S
Cd365 O368 2.297 . S
Cd365 O369 2.439 . S
Cd365 O375 2.240 . S
Cd366 O367 2.240 1_455 S
Cd366 O374 2.223 . S
Cd366 O376 2.297 . S
Cd366 O377 2.439 . S
O367 Cd366 2.240 1_655 S
O367 C372 1.279 . S
O368 Cd365 2.297 . S
O368 C370 1.247 . S
O369 Cd365 2.439 . S
O369 C370 1.208 . S
C370 O368 1.247 . S
C370 O369 1.208 . S
C371 O376 1.247 . S
C371 O377 1.208 . S
C372 O364 1.315 . S
C372 O367 1.279 . S
C373 O374 1.315 . S
C373 O375 1.279 . S
O374 Cd366 2.223 . S
O374 C373 1.315 . S
O375 Cd365 2.240 . S
O375 C373 1.279 . S
O376 Cd366 2.297 . S
O376 C371 1.247 . S
O377 Cd366 2.439 . S
O377 C371 1.208 . S
O378 Cd379 2.223 . S
O378 C386 1.315 . S
Cd379 O378 2.223 . S
Cd379 O382 2.297 . S
Cd379 O383 2.439 . S
Cd379 O389 2.240 . S
Cd380 O381 2.240 . S
Cd380 O388 2.223 . S
Cd380 O390 2.297 . S
Cd380 O391 2.439 . S
O381 Cd380 2.240 . S
O381 C386 1.279 . S
O382 Cd379 2.297 . S
O382 C384 1.247 . S
O383 Cd379 2.439 . S
O383 C384 1.208 . S
C384 O382 1.247 . S
C384 O383 1.208 . S
C385 O390 1.247 . S
C385 O391 1.208 . S
C386 O378 1.315 . S
C386 O381 1.279 . S
C387 O388 1.315 . S
C387 O389 1.279 . S
O388 Cd380 2.223 . S
O388 C387 1.315 . S
O389 Cd379 2.240 . S
O389 C387 1.279 . S
O390 Cd380 2.297 . S
O390 C385 1.247 . S
O391 Cd380 2.439 . S
O391 C385 1.208 . S
O392 Cd393 2.223 . S
O392 C400 1.315 . S
Cd393 O392 2.223 . S
Cd393 O396 2.297 . S
Cd393 O397 2.439 . S
Cd393 O403 2.240 . S
Cd394 O395 2.240 . S
Cd394 O402 2.223 . S
Cd394 O404 2.297 . S
Cd394 O405 2.439 . S
O395 Cd394 2.240 . S
O395 C400 1.279 . S
O396 Cd393 2.297 . S
O396 C398 1.247 . S
O397 Cd393 2.439 . S
O397 C398 1.208 . S
C398 O396 1.247 . S
C398 O397 1.208 . S
C399 O404 1.247 . S
C399 O405 1.208 . S
C400 O392 1.315 . S
C400 O395 1.279 . S
C401 O402 1.315 . S
C401 O403 1.279 . S
O402 Cd394 2.223 . S
O402 C401 1.315 . S
O403 Cd393 2.240 . S
O403 C401 1.279 . S
O404 Cd394 2.297 . S
O404 C399 1.247 . S
O405 Cd394 2.439 . S
O405 C399 1.208 . S
O406 Cd407 2.223 . S
O406 C414 1.315 . S
Cd407 O406 2.223 . S
Cd407 O410 2.297 . S
Cd407 O411 2.439 . S
Cd407 O417 2.240 . S
Cd408 O409 2.240 1_556 S
Cd408 O416 2.223 1_556 S
Cd408 O418 2.297 . S
Cd408 O419 2.439 . S
O409 Cd408 2.240 1_554 S
O409 C414 1.279 . S
O410 Cd407 2.297 . S
O410 C412 1.247 . S
O411 Cd407 2.439 . S
O411 C412 1.208 . S
C412 O410 1.247 . S
C412 O411 1.208 . S
C413 O418 1.247 . S
C413 O419 1.208 . S
C414 O406 1.315 . S
C414 O409 1.279 . S
C415 O416 1.315 . S
C415 O417 1.279 . S
O416 Cd408 2.223 1_554 S
O416 C415 1.315 . S
O417 Cd407 2.240 . S
O417 C415 1.279 . S
O418 Cd408 2.297 . S
O418 C413 1.247 . S
O419 Cd408 2.439 . S
O419 C413 1.208 . S
O420 Cd421 2.223 1_655 S
O420 C428 1.315 . S
Cd421 O420 2.223 1_455 S
Cd421 O424 2.297 . S
Cd421 O425 2.439 . S
Cd421 O431 2.240 . S
Cd422 O423 2.240 1_455 S
Cd422 O430 2.223 . S
Cd422 O432 2.297 . S
Cd422 O433 2.439 . S
O423 Cd422 2.240 1_655 S
O423 C428 1.279 . S
O424 Cd421 2.297 . S
O424 C426 1.247 . S
O425 Cd421 2.439 . S
O425 C426 1.208 . S
C426 O424 1.247 . S
C426 O425 1.208 . S
C427 O432 1.247 . S
C427 O433 1.208 . S
C428 O420 1.315 . S
C428 O423 1.279 . S
C429 O430 1.315 . S
C429 O431 1.279 . S
O430 Cd422 2.223 . S
O430 C429 1.315 . S
O431 Cd421 2.240 . S
O431 C429 1.279 . S
O432 Cd422 2.297 . S
O432 C427 1.247 . S
O433 Cd422 2.439 . S
O433 C427 1.208 . S
O434 Cd435 2.223 . S
O434 C442 1.315 . S
Cd435 O434 2.223 . S
Cd435 O438 2.297 . S
Cd435 O439 2.439 . S
Cd435 O445 2.240 . S
Cd436 O437 2.240 . S
Cd436 O444 2.223 . S
Cd436 O446 2.297 . S
Cd436 O447 2.439 . S
O437 Cd436 2.240 . S
O437 C442 1.279 . S
O438 Cd435 2.297 . S
O438 C440 1.247 . S
O439 Cd435 2.439 . S
O439 C440 1.208 . S
C440 O438 1.247 . S
C440 O439 1.208 . S
C441 O446 1.247 . S
C441 O447 1.208 . S
C442 O434 1.315 . S
C442 O437 1.279 . S
C443 O444 1.315 . S
C443 O445 1.279 . S
O444 Cd436 2.223 . S
O444 C443 1.315 . S
O445 Cd435 2.240 . S
O445 C443 1.279 . S
O446 Cd436 2.297 . S
O446 C441 1.247 . S
O447 Cd436 2.439 . S
O447 C441 1.208 . S
C7 C301 1.015 . S
C315 C21 1.015 . S
C35 C329 1.015 . S
C287 C49 1.015 . S
C63 C273 1.015 . S
C77 C231 1.015 . S
C245 C91 1.015 . S
C105 C259 1.015 . S
C119 C413 1.015 . S
C133 C427 1.015 . S
C441 C147 1.015 . S
C399 C161 1.015 . S
C175 C385 1.015 . S
C343 C189 1.015 . S
C203 C357 1.015 . S
C371 C217 1.015 . S
C9 C134 1.799 . S
C23 C372 1.799 . S
C162 C37 1.799 . S
C51 C344 1.799 . S
C65 C218 1.799 . S
C400 C79 1.799 . S
C190 C93 1.799 . S
C428 C107 1.799 . S
C121 C22 1.799 . S
C260 C135 1.799 . S
C50 C149 1.799 . S
C163 C232 1.799 . S
C106 C177 1.799 . S
C288 C191 1.799 . S
C78 C205 1.799 . S
C219 C316 1.799 . S
C358 C233 1.799 . S
C148 C247 1.799 . S
C386 C261 1.799 . S
C275 C120 1.799 . S
C442 C289 1.799 . S
C176 C303 1.799 . S
C414 C317 1.799 . S
C331 C204 1.799 . S
C345 C246 1.799 . S
C36 C359 1.799 . S
C373 C274 1.799 . S
C387 C8 1.799 . S
C401 C330 1.799 . S
C64 C415 1.799 . S
C302 C429 1.799 . S
C443 C92 1.799 . S
C6 C62 2.131 . S
C20 C76 2.131 . S
C90 C34 2.131 . S
C104 C48 2.131 1_556 S
C174 C118 2.131 . S
C188 C132 2.131 . S
C202 C146 2.131 . S
C216 C160 2.131 1_554 S
C230 C286 2.131 1_565 S
C244 C300 2.131 1_554 S
C258 C314 2.131 1_545 S
C328 C272 2.131 . S
C342 C398 2.131 1_545 S
C412 C356 2.131 1_554 S
C426 C370 2.131 1_545 S
C440 C384 2.131 . S
