# Generated by pormake.
# Topology fcu, (12)-cn, num edge types: 1
# Building blocks:
#     Node 0, Type 0, BuildingBlock: EZIPEK_clean_sbu_0, # of connection points: 12
#     Node 1, Type 0, BuildingBlock: EZIPEK_clean_sbu_0, # of connection points: 12
#     Node 2, Type 0, BuildingBlock: EZIPEK_clean_sbu_0, # of connection points: 12
#     Node 3, Type 0, BuildingBlock: EZIPEK_clean_sbu_0, # of connection points: 12
#     Edge 4, Type (0, 0), BuildingBlock: OJICUG_clean_linker_0, # of connection points: 2
#     Edge 5, Type (0, 0), BuildingBlock: OJICUG_clean_linker_0, # of connection points: 2
#     Edge 6, Type (0, 0), BuildingBlock: OJICUG_clean_linker_0, # of connection points: 2
#     Edge 7, Type (0, 0), BuildingBlock: OJICUG_clean_linker_0, # of connection points: 2
#     Edge 8, Type (0, 0), BuildingBlock: OJICUG_clean_linker_0, # of connection points: 2
#     Edge 9, Type (0, 0), BuildingBlock: OJICUG_clean_linker_0, # of connection points: 2
#     Edge 10, Type (0, 0), BuildingBlock: OJICUG_clean_linker_0, # of connection points: 2
#     Edge 11, Type (0, 0), BuildingBlock: OJICUG_clean_linker_0, # of connection points: 2
#     Edge 12, Type (0, 0), BuildingBlock: OJICUG_clean_linker_0, # of connection points: 2
#     Edge 13, Type (0, 0), BuildingBlock: OJICUG_clean_linker_0, # of connection points: 2
#     Edge 14, Type (0, 0), BuildingBlock: OJICUG_clean_linker_0, # of connection points: 2
#     Edge 15, Type (0, 0), BuildingBlock: OJICUG_clean_linker_0, # of connection points: 2
#     Edge 16, Type (0, 0), BuildingBlock: OJICUG_clean_linker_0, # of connection points: 2
#     Edge 17, Type (0, 0), BuildingBlock: OJICUG_clean_linker_0, # of connection points: 2
#     Edge 18, Type (0, 0), BuildingBlock: OJICUG_clean_linker_0, # of connection points: 2
#     Edge 19, Type (0, 0), BuildingBlock: OJICUG_clean_linker_0, # of connection points: 2
#     Edge 20, Type (0, 0), BuildingBlock: OJICUG_clean_linker_0, # of connection points: 2
#     Edge 21, Type (0, 0), BuildingBlock: OJICUG_clean_linker_0, # of connection points: 2
#     Edge 22, Type (0, 0), BuildingBlock: OJICUG_clean_linker_0, # of connection points: 2
#     Edge 23, Type (0, 0), BuildingBlock: OJICUG_clean_linker_0, # of connection points: 2
#     Edge 24, Type (0, 0), BuildingBlock: OJICUG_clean_linker_0, # of connection points: 2
#     Edge 25, Type (0, 0), BuildingBlock: OJICUG_clean_linker_0, # of connection points: 2
#     Edge 26, Type (0, 0), BuildingBlock: OJICUG_clean_linker_0, # of connection points: 2
#     Edge 27, Type (0, 0), BuildingBlock: OJICUG_clean_linker_0, # of connection points: 2
# Relax obj value: 0.000
# Max RMSD: 0.000
# Mean RMSD: 0.000
data_MOF--net-fcu--node1-EZIPEK_clean_sbu_0--edge1-OJICUG_clean_linker_0
_symmetry_space_group_name_H-M    P1
_symmetry_Int_Tables_number       1
_symmetry_cell_setting            triclinic
loop_
_symmetry_equiv_pos_as_xyz
'x, y, z'
_cell_length_a     21.042259
_cell_length_b     21.043406
_cell_length_c     21.043458
_cell_angle_alpha  90.000042
_cell_angle_beta   89.999615
_cell_angle_gamma 90.000028
loop_
_atom_site_label
_atom_site_type_symbol
_atom_site_fract_x
_atom_site_fract_y
_atom_site_fract_z
_atom_type_partial_charge
C0 C 0.0143 0.86049 0.16802 0.0
C1 C 0.01431 0.86045 0.86052 0.0
C2 C 0.01429 0.16802 0.16804 0.0
C3 C 0.01429 0.16802 0.86046 0.0
C4 C 0.86047 0.16798 0.01429 0.0
C5 C 0.86054 0.86047 0.01429 0.0
C6 C 0.16804 0.16801 0.01429 0.0
C7 C 0.16803 0.86049 0.01429 0.0
C8 C 0.16807 0.01428 0.8605 0.0
C9 C 0.86049 0.01426 0.8605 0.0
C10 C 0.16805 0.01428 0.16802 0.0
C11 C 0.86052 0.01427 0.16803 0.0
Eu12 Eu 0.01428 0.89397 0.01427 0.0
O13 O 0.95777 0.95776 0.95767 0.0
O14 O 0.07079 0.95778 0.07085 0.0
Eu15 Eu 0.89397 0.01422 0.01426 0.0
Eu16 Eu 0.13458 0.01424 0.01426 0.0
O17 O 0.95777 0.95777 0.07086 0.0
O18 O 0.07079 0.95777 0.95767 0.0
Eu19 Eu 0.01428 0.01424 0.13468 0.0
Eu20 Eu 0.01428 0.01423 0.89383 0.0
O21 O 0.95784 0.07079 0.07077 0.0
O22 O 0.95784 0.07078 0.95774 0.0
O23 O 0.0707 0.07079 0.95775 0.0
O24 O 0.07071 0.0708 0.07076 0.0
Eu25 Eu 0.01426 0.13469 0.01425 0.0
O26 O 0.0143 0.84069 0.10784 0.0
O27 O 0.0143 0.84067 0.92071 0.0
O28 O 0.01427 0.18786 0.10787 0.0
O29 O 0.01427 0.18786 0.92063 0.0
O30 O 0.84068 0.10779 0.01428 0.0
O31 O 0.84071 0.92064 0.01428 0.0
O32 O 0.18784 0.10783 0.01428 0.0
O33 O 0.18785 0.92066 0.01428 0.0
O34 O 0.1079 0.01425 0.84065 0.0
O35 O 0.92066 0.01426 0.84064 0.0
O36 O 0.10788 0.01427 0.18788 0.0
O37 O 0.92068 0.01427 0.18789 0.0
O38 O 0.10788 0.18787 0.01427 0.0
O39 O 0.92063 0.18785 0.01427 0.0
O40 O 0.10785 0.84068 0.01429 0.0
O41 O 0.92072 0.84067 0.01429 0.0
O42 O 0.01429 0.92061 0.84065 0.0
O43 O 0.0143 0.10784 0.84063 0.0
O44 O 0.01429 0.92065 0.18788 0.0
O45 O 0.0143 0.10785 0.18788 0.0
O46 O 0.84071 0.01424 0.10785 0.0
O47 O 0.84069 0.01424 0.92068 0.0
O48 O 0.18785 0.01427 0.10784 0.0
O49 O 0.18787 0.01427 0.92069 0.0
C50 C 0.01432 0.36048 0.66801 0.0
C51 C 0.01431 0.668 0.66804 0.0
C52 C 0.01429 0.36047 0.36047 0.0
C53 C 0.01428 0.66805 0.36048 0.0
C54 C 0.16803 0.51424 0.36046 0.0
C55 C 0.16806 0.51423 0.66796 0.0
C56 C 0.86046 0.51422 0.36053 0.0
C57 C 0.86058 0.51422 0.66804 0.0
C58 C 0.86049 0.668 0.51424 0.0
C59 C 0.16803 0.66803 0.5142 0.0
C60 C 0.86051 0.36048 0.51423 0.0
C61 C 0.16806 0.3605 0.5142 0.0
Eu62 Eu 0.01431 0.51424 0.63452 0.0
O63 O 0.0708 0.57084 0.57071 0.0
O64 O 0.95778 0.45765 0.57073 0.0
Eu65 Eu 0.13458 0.51426 0.51423 0.0
Eu66 Eu 0.89397 0.51424 0.51429 0.0
O67 O 0.07081 0.45766 0.5707 0.0
O68 O 0.95777 0.57083 0.57074 0.0
Eu69 Eu 0.01429 0.39382 0.51425 0.0
Eu70 Eu 0.01427 0.63468 0.51427 0.0
O71 O 0.0707 0.45775 0.45769 0.0
O72 O 0.07069 0.57077 0.45769 0.0
O73 O 0.95783 0.57076 0.45772 0.0
O74 O 0.95784 0.45774 0.45771 0.0
Eu75 Eu 0.01425 0.51426 0.3938 0.0
O76 O 0.01433 0.42067 0.6878 0.0
O77 O 0.01434 0.6078 0.68782 0.0
O78 O 0.01426 0.42064 0.34063 0.0
O79 O 0.01426 0.60788 0.34063 0.0
O80 O 0.18783 0.51425 0.42065 0.0
O81 O 0.18787 0.51425 0.60779 0.0
O82 O 0.84068 0.51422 0.42072 0.0
O83 O 0.84074 0.51422 0.60787 0.0
O84 O 0.92066 0.68786 0.51423 0.0
O85 O 0.10786 0.68788 0.51424 0.0
O86 O 0.92068 0.34063 0.51421 0.0
O87 O 0.1079 0.34064 0.51422 0.0
O88 O 0.92062 0.51424 0.34066 0.0
O89 O 0.10786 0.51424 0.34061 0.0
O90 O 0.92076 0.51423 0.68784 0.0
O91 O 0.10788 0.51422 0.68778 0.0
O92 O 0.01427 0.68786 0.60788 0.0
O93 O 0.01428 0.68788 0.42066 0.0
O94 O 0.0143 0.34062 0.60785 0.0
O95 O 0.01431 0.34064 0.42064 0.0
O96 O 0.18786 0.42069 0.51419 0.0
O97 O 0.18784 0.60785 0.51419 0.0
O98 O 0.84071 0.42067 0.51427 0.0
O99 O 0.84069 0.60781 0.51427 0.0
C100 C 0.51426 0.86049 0.66802 0.0
C101 C 0.51425 0.16799 0.66803 0.0
C102 C 0.51426 0.86045 0.36048 0.0
C103 C 0.51425 0.16803 0.36047 0.0
C104 C 0.66805 0.01427 0.3605 0.0
C105 C 0.66802 0.01427 0.668 0.0
C106 C 0.3605 0.01426 0.36049 0.0
C107 C 0.36053 0.01426 0.66801 0.0
C108 C 0.36049 0.168 0.51422 0.0
C109 C 0.66803 0.16803 0.51421 0.0
C110 C 0.36051 0.86048 0.51421 0.0
C111 C 0.66806 0.8605 0.51421 0.0
Eu112 Eu 0.51428 0.01424 0.63452 0.0
O113 O 0.57078 0.07084 0.57072 0.0
O114 O 0.45777 0.95765 0.57072 0.0
Eu115 Eu 0.63458 0.01426 0.51426 0.0
Eu116 Eu 0.39397 0.01424 0.51426 0.0
O117 O 0.57079 0.95766 0.57072 0.0
O118 O 0.45776 0.07083 0.57072 0.0
Eu119 Eu 0.51428 0.89382 0.51426 0.0
Eu120 Eu 0.51426 0.13467 0.51426 0.0
O121 O 0.57071 0.95774 0.4577 0.0
O122 O 0.5707 0.07076 0.4577 0.0
O123 O 0.45784 0.07075 0.4577 0.0
O124 O 0.45785 0.95773 0.4577 0.0
Eu125 Eu 0.51427 0.01424 0.3938 0.0
O126 O 0.51426 0.92068 0.68781 0.0
O127 O 0.51426 0.1078 0.68782 0.0
O128 O 0.51426 0.92062 0.34063 0.0
O129 O 0.51426 0.10786 0.34063 0.0
O130 O 0.68785 0.01428 0.42068 0.0
O131 O 0.68785 0.01428 0.60783 0.0
O132 O 0.3407 0.01425 0.42068 0.0
O133 O 0.34071 0.01425 0.60783 0.0
O134 O 0.42065 0.18786 0.51423 0.0
O135 O 0.60786 0.18788 0.51423 0.0
O136 O 0.42068 0.84062 0.51423 0.0
O137 O 0.6079 0.84064 0.51423 0.0
O138 O 0.42066 0.01426 0.34063 0.0
O139 O 0.60789 0.01425 0.34063 0.0
O140 O 0.42072 0.01426 0.68781 0.0
O141 O 0.60784 0.01425 0.68781 0.0
O142 O 0.51424 0.18785 0.60787 0.0
O143 O 0.51425 0.18787 0.42065 0.0
O144 O 0.51427 0.84063 0.60786 0.0
O145 O 0.51427 0.84061 0.42065 0.0
O146 O 0.68786 0.92068 0.51423 0.0
O147 O 0.68784 0.10784 0.51423 0.0
O148 O 0.34071 0.92066 0.51422 0.0
O149 O 0.34069 0.10781 0.51423 0.0
C150 C 0.51423 0.66805 0.8605 0.0
C151 C 0.51425 0.66803 0.16799 0.0
C152 C 0.51425 0.36048 0.86045 0.0
C153 C 0.51427 0.36049 0.16804 0.0
C154 C 0.66806 0.36052 0.01426 0.0
C155 C 0.668 0.66803 0.01426 0.0
C156 C 0.3605 0.36049 0.01428 0.0
C157 C 0.36051 0.668 0.01428 0.0
C158 C 0.36052 0.51423 0.16802 0.0
C159 C 0.66806 0.51424 0.16799 0.0
C160 C 0.36048 0.51423 0.86049 0.0
C161 C 0.66804 0.51424 0.86046 0.0
Eu162 Eu 0.51426 0.63454 0.01424 0.0
O163 O 0.57078 0.57074 0.07083 0.0
O164 O 0.45775 0.57073 0.95766 0.0
Eu165 Eu 0.63458 0.51428 0.01423 0.0
Eu166 Eu 0.39396 0.51426 0.01425 0.0
O167 O 0.57077 0.57074 0.95765 0.0
O168 O 0.45776 0.57073 0.07084 0.0
Eu169 Eu 0.51426 0.51427 0.89381 0.0
Eu170 Eu 0.51428 0.51427 0.13467 0.0
O171 O 0.5707 0.45772 0.95772 0.0
O172 O 0.57071 0.45772 0.07075 0.0
O173 O 0.45785 0.45771 0.07076 0.0
O174 O 0.45784 0.45771 0.95774 0.0
Eu175 Eu 0.51428 0.39382 0.01424 0.0
O176 O 0.51425 0.68783 0.92069 0.0
O177 O 0.51424 0.68782 0.10781 0.0
O178 O 0.51427 0.34064 0.92062 0.0
O179 O 0.51427 0.34065 0.10787 0.0
O180 O 0.68786 0.4207 0.01424 0.0
O181 O 0.68783 0.60786 0.01424 0.0
O182 O 0.3407 0.42068 0.01428 0.0
O183 O 0.34069 0.60783 0.01428 0.0
O184 O 0.42069 0.51425 0.18787 0.0
O185 O 0.60789 0.51425 0.18785 0.0
O186 O 0.42064 0.51425 0.84063 0.0
O187 O 0.60787 0.51425 0.84061 0.0
O188 O 0.42067 0.34063 0.01426 0.0
O189 O 0.6079 0.34065 0.01426 0.0
O190 O 0.42069 0.68782 0.01426 0.0
O191 O 0.60782 0.68784 0.01426 0.0
O192 O 0.51428 0.60787 0.18785 0.0
O193 O 0.51428 0.42067 0.18787 0.0
O194 O 0.51424 0.60789 0.84063 0.0
O195 O 0.51424 0.42065 0.84062 0.0
O196 O 0.68784 0.51426 0.92065 0.0
O197 O 0.68786 0.51426 0.10781 0.0
O198 O 0.34068 0.51423 0.92068 0.0
O199 O 0.34071 0.51423 0.10784 0.0
C200 C 0.07197 0.24075 0.24078 0.0
C201 C 0.0143 0.21715 0.21718 0.0
H202 H 0.11682 0.30563 0.30566 0.0
C203 C 0.95662 0.24076 0.24077 0.0
H204 H 0.11682 0.22284 0.22288 0.0
C205 C 0.95663 0.28774 0.28774 0.0
C206 C 0.0143 0.31133 0.31134 0.0
H207 H 0.91177 0.22286 0.22286 0.0
H208 H 0.91177 0.30565 0.30564 0.0
C209 C 0.07197 0.28773 0.28775 0.0
C210 C 0.78778 0.07194 0.24078 0.0
C211 C 0.81136 0.01427 0.21716 0.0
H212 H 0.72291 0.1168 0.30568 0.0
C213 C 0.78777 0.95661 0.24077 0.0
H214 H 0.80569 0.1168 0.22287 0.0
C215 C 0.7408 0.95661 0.28776 0.0
C216 C 0.71722 0.01428 0.31138 0.0
H217 H 0.80567 0.91175 0.22286 0.0
H218 H 0.7229 0.91176 0.30567 0.0
C219 C 0.74081 0.07194 0.28777 0.0
C220 C 0.95663 0.78775 0.24075 0.0
C221 C 0.0143 0.81134 0.21715 0.0
H222 H 0.91176 0.72289 0.30564 0.0
C223 C 0.07197 0.78775 0.24076 0.0
H224 H 0.91178 0.80566 0.22284 0.0
C225 C 0.07196 0.74078 0.28775 0.0
C226 C 0.01429 0.71719 0.31135 0.0
H227 H 0.11683 0.80565 0.22286 0.0
H228 H 0.11682 0.72287 0.30566 0.0
C229 C 0.95662 0.74079 0.28774 0.0
C230 C 0.28775 0.95661 0.28776 0.0
C231 C 0.31134 0.01427 0.31137 0.0
H232 H 0.22288 0.91176 0.22285 0.0
C233 C 0.28776 0.07194 0.28776 0.0
H234 H 0.30565 0.91175 0.30566 0.0
C235 C 0.2408 0.07195 0.24077 0.0
C236 C 0.2172 0.01428 0.21715 0.0
H237 H 0.30567 0.11679 0.30567 0.0
H238 H 0.2229 0.1168 0.22286 0.0
C239 C 0.24079 0.95661 0.24076 0.0
C240 C 0.95664 0.78769 0.78779 0.0
C241 C 0.01431 0.81128 0.8114 0.0
H242 H 0.91179 0.72282 0.72289 0.0
C243 C 0.07198 0.78768 0.7878 0.0
H244 H 0.91179 0.8056 0.80569 0.0
C245 C 0.07198 0.74071 0.74082 0.0
C246 C 0.01431 0.71711 0.71721 0.0
H247 H 0.11684 0.80559 0.80571 0.0
H248 H 0.11684 0.72281 0.72291 0.0
C249 C 0.95664 0.74072 0.74081 0.0
C250 C 0.24083 0.95661 0.78777 0.0
C251 C 0.21724 0.01428 0.81138 0.0
H252 H 0.3057 0.91175 0.72287 0.0
C253 C 0.24084 0.07194 0.78777 0.0
H254 H 0.22293 0.91176 0.80568 0.0
C255 C 0.28781 0.07194 0.74077 0.0
C256 C 0.3114 0.01427 0.71716 0.0
H257 H 0.22294 0.1168 0.80567 0.0
H258 H 0.30571 0.11679 0.72286 0.0
C259 C 0.2878 0.9566 0.74078 0.0
C260 C 0.07199 0.28775 0.74076 0.0
C261 C 0.01432 0.31136 0.71717 0.0
H262 H 0.11683 0.22284 0.80563 0.0
C263 C 0.95665 0.28776 0.74075 0.0
H264 H 0.11685 0.30565 0.72286 0.0
C265 C 0.95664 0.24077 0.78772 0.0
C266 C 0.0143 0.21716 0.81132 0.0
H267 H 0.91179 0.30566 0.72284 0.0
H268 H 0.91178 0.22286 0.80562 0.0
C269 C 0.07198 0.24076 0.78773 0.0
C270 C 0.74076 0.07194 0.74076 0.0
C271 C 0.71716 0.01427 0.71716 0.0
H272 H 0.80564 0.11679 0.80566 0.0
C273 C 0.74075 0.95661 0.74077 0.0
H274 H 0.72287 0.11679 0.72285 0.0
C275 C 0.78772 0.95661 0.78776 0.0
C276 C 0.81132 0.01427 0.81137 0.0
H277 H 0.72285 0.91176 0.72286 0.0
H278 H 0.80563 0.91175 0.80566 0.0
C279 C 0.78773 0.07194 0.78776 0.0
C280 C 0.28775 0.28775 0.07196 0.0
C281 C 0.31134 0.31136 0.01429 0.0
H282 H 0.22289 0.22285 0.11681 0.0
C283 C 0.28775 0.28775 0.95662 0.0
H284 H 0.30566 0.30566 0.11681 0.0
C285 C 0.24079 0.24075 0.95662 0.0
C286 C 0.2172 0.21714 0.01429 0.0
H287 H 0.30566 0.30565 0.91177 0.0
H288 H 0.22289 0.22284 0.91177 0.0
C289 C 0.24079 0.24076 0.07196 0.0
C290 C 0.28775 0.74075 0.95663 0.0
C291 C 0.31136 0.71715 0.01429 0.0
H292 H 0.22287 0.80564 0.91178 0.0
C293 C 0.28775 0.74075 0.07196 0.0
H294 H 0.30566 0.72285 0.91177 0.0
C295 C 0.24077 0.78773 0.07196 0.0
C296 C 0.21717 0.81134 0.0143 0.0
H297 H 0.30566 0.72284 0.11681 0.0
H298 H 0.22286 0.80563 0.11682 0.0
C299 C 0.24077 0.78774 0.95663 0.0
C300 C 0.74079 0.28776 0.07194 0.0
C301 C 0.71722 0.31138 0.01427 0.0
H302 H 0.80561 0.22282 0.11681 0.0
C303 C 0.7408 0.28775 0.95661 0.0
H304 H 0.72288 0.30567 0.11679 0.0
C305 C 0.78774 0.24073 0.95662 0.0
C306 C 0.81131 0.2171 0.01429 0.0
H307 H 0.72291 0.30566 0.91175 0.0
H308 H 0.80563 0.22281 0.91177 0.0
C309 C 0.78772 0.24073 0.07195 0.0
C310 C 0.78777 0.78773 0.07195 0.0
C311 C 0.81139 0.81132 0.01429 0.0
H312 H 0.72285 0.72287 0.11679 0.0
C313 C 0.78778 0.78774 0.95662 0.0
H314 H 0.80568 0.80562 0.11681 0.0
C315 C 0.74078 0.74078 0.95661 0.0
C316 C 0.71715 0.71718 0.01427 0.0
H317 H 0.8057 0.80564 0.91177 0.0
H318 H 0.72287 0.72288 0.91175 0.0
C319 C 0.74076 0.74077 0.07194 0.0
C320 C 0.74083 0.57189 0.78774 0.0
C321 C 0.71721 0.51423 0.81134 0.0
H322 H 0.80574 0.61674 0.72288 0.0
C323 C 0.74081 0.45656 0.78775 0.0
H324 H 0.72291 0.61675 0.80563 0.0
C325 C 0.78782 0.45656 0.74079 0.0
C326 C 0.81144 0.51422 0.7172 0.0
H327 H 0.72289 0.41171 0.80564 0.0
H328 H 0.80572 0.4117 0.72289 0.0
C329 C 0.78783 0.57189 0.74078 0.0
C330 C 0.24079 0.57189 0.74072 0.0
C331 C 0.2172 0.51423 0.71711 0.0
H332 H 0.30564 0.61674 0.80565 0.0
C333 C 0.24078 0.45656 0.74073 0.0
H334 H 0.2229 0.61675 0.72281 0.0
C335 C 0.28773 0.45656 0.78775 0.0
C336 C 0.31131 0.51422 0.81136 0.0
H337 H 0.22288 0.41171 0.72282 0.0
H338 H 0.30563 0.4117 0.80566 0.0
C339 C 0.28774 0.57189 0.78774 0.0
C340 C 0.24079 0.5719 0.28774 0.0
C341 C 0.21719 0.51423 0.31134 0.0
H342 H 0.30568 0.61675 0.22286 0.0
C343 C 0.24078 0.45656 0.28773 0.0
H344 H 0.22288 0.61675 0.30564 0.0
C345 C 0.28776 0.45656 0.24075 0.0
C346 C 0.31136 0.51423 0.21715 0.0
H347 H 0.22287 0.41171 0.30564 0.0
H348 H 0.30567 0.41171 0.22285 0.0
C349 C 0.28777 0.57189 0.24076 0.0
C350 C 0.74079 0.5719 0.24076 0.0
C351 C 0.71721 0.51423 0.21713 0.0
H352 H 0.80562 0.61674 0.3057 0.0
C353 C 0.74078 0.45656 0.24076 0.0
H354 H 0.7229 0.61675 0.22284 0.0
C355 C 0.78771 0.45656 0.28778 0.0
C356 C 0.81129 0.51422 0.31141 0.0
H357 H 0.72288 0.41171 0.22284 0.0
H358 H 0.8056 0.4117 0.3057 0.0
C359 C 0.78772 0.57189 0.28779 0.0
C360 C 0.28776 0.78774 0.57187 0.0
C361 C 0.31135 0.81135 0.51421 0.0
H362 H 0.22289 0.72284 0.61672 0.0
C363 C 0.28774 0.78776 0.45654 0.0
H364 H 0.30568 0.80563 0.61673 0.0
C365 C 0.24077 0.74078 0.45653 0.0
C366 C 0.21718 0.71716 0.5142 0.0
H367 H 0.30564 0.80568 0.41169 0.0
H368 H 0.22285 0.72289 0.41168 0.0
C369 C 0.24079 0.74075 0.57187 0.0
C370 C 0.2408 0.28776 0.57186 0.0
C371 C 0.21722 0.31137 0.5142 0.0
H372 H 0.30564 0.22284 0.61672 0.0
C373 C 0.24081 0.28775 0.45653 0.0
H374 H 0.2229 0.30567 0.61672 0.0
C375 C 0.28775 0.24074 0.45654 0.0
C376 C 0.31133 0.21712 0.51421 0.0
H377 H 0.22291 0.30566 0.41168 0.0
H378 H 0.30566 0.22283 0.41168 0.0
C379 C 0.28775 0.24075 0.57187 0.0
C380 C 0.78774 0.74074 0.57189 0.0
C381 C 0.81133 0.71713 0.51423 0.0
H382 H 0.72289 0.80567 0.61673 0.0
C383 C 0.78776 0.74074 0.45655 0.0
H384 H 0.80564 0.72283 0.61674 0.0
C385 C 0.74081 0.78776 0.45655 0.0
C386 C 0.71722 0.81137 0.51421 0.0
H387 H 0.80566 0.72283 0.4117 0.0
H388 H 0.72292 0.80567 0.41169 0.0
C389 C 0.74079 0.78775 0.57188 0.0
C390 C 0.74079 0.24076 0.45655 0.0
C391 C 0.71719 0.21716 0.51421 0.0
H392 H 0.80567 0.30566 0.4117 0.0
C393 C 0.74077 0.24077 0.57188 0.0
H394 H 0.72288 0.22286 0.41169 0.0
C395 C 0.78774 0.28775 0.57189 0.0
C396 C 0.81135 0.31136 0.51422 0.0
H397 H 0.72286 0.22286 0.61673 0.0
H398 H 0.80564 0.30566 0.61674 0.0
C399 C 0.78776 0.28775 0.45655 0.0
C400 C 0.57191 0.28771 0.78774 0.0
C401 C 0.51424 0.31133 0.81132 0.0
H402 H 0.61677 0.2228 0.72288 0.0
C403 C 0.45657 0.28772 0.78773 0.0
H404 H 0.61677 0.30562 0.80564 0.0
C405 C 0.45657 0.24072 0.74078 0.0
C406 C 0.51424 0.2171 0.71719 0.0
H407 H 0.41172 0.30564 0.80563 0.0
H408 H 0.41172 0.22281 0.72287 0.0
C409 C 0.57191 0.24071 0.74078 0.0
C410 C 0.57192 0.78778 0.7408 0.0
C411 C 0.51425 0.81138 0.71719 0.0
H412 H 0.61676 0.72289 0.80569 0.0
C413 C 0.45658 0.78779 0.74079 0.0
H414 H 0.61677 0.80567 0.72289 0.0
C415 C 0.45657 0.74081 0.78778 0.0
C416 C 0.51424 0.71721 0.81138 0.0
H417 H 0.41172 0.80568 0.72287 0.0
H418 H 0.41171 0.72291 0.80567 0.0
C419 C 0.57191 0.74081 0.78778 0.0
C420 C 0.45658 0.74077 0.24072 0.0
C421 C 0.51425 0.71719 0.21711 0.0
H422 H 0.41173 0.80562 0.30564 0.0
C423 C 0.57192 0.74076 0.24073 0.0
H424 H 0.41173 0.72287 0.22282 0.0
C425 C 0.57192 0.78771 0.28773 0.0
C426 C 0.51426 0.81131 0.31134 0.0
H427 H 0.61678 0.72285 0.22283 0.0
H428 H 0.61678 0.80561 0.30565 0.0
C429 C 0.45658 0.78773 0.28773 0.0
C430 C 0.45658 0.24078 0.28774 0.0
C431 C 0.51425 0.21718 0.31134 0.0
H432 H 0.41173 0.30567 0.22286 0.0
C433 C 0.57192 0.24077 0.28775 0.0
H434 H 0.41172 0.22287 0.30564 0.0
C435 C 0.57193 0.28776 0.24078 0.0
C436 C 0.51426 0.31136 0.21718 0.0
H437 H 0.61677 0.22286 0.30565 0.0
H438 H 0.61678 0.30566 0.22288 0.0
C439 C 0.45658 0.28776 0.24077 0.0
loop_
_geom_bond_atom_site_label_1
_geom_bond_atom_site_label_2
_geom_bond_distance
_geom_bond_site_symmetry_2
_ccdc_geom_bond_type
C0 O26 1.283 . S
C0 O44 1.283 . S
C1 O27 1.283 . S
C1 O42 1.283 . S
C2 O28 1.283 . S
C2 O45 1.283 . S
C3 O29 1.283 . S
C3 O43 1.283 . S
C4 O30 1.283 . S
C4 O39 1.283 . S
C5 O31 1.283 . S
C5 O41 1.283 . S
C6 O32 1.283 . S
C6 O38 1.283 . S
C7 O33 1.283 . S
C7 O40 1.283 . S
C8 O34 1.283 . S
C8 O49 1.283 . S
C9 O35 1.283 . S
C9 O47 1.283 . S
C10 O36 1.283 . S
C10 O48 1.283 . S
C11 O37 1.283 . S
C11 O46 1.283 . S
Eu12 O13 2.370 1_454 S
Eu12 O14 2.370 . S
Eu12 O17 2.370 1_455 S
Eu12 O18 2.370 1_554 S
Eu12 O26 2.363 . S
Eu12 O27 2.363 1_554 S
Eu12 O40 2.363 . S
Eu12 O41 2.363 1_455 S
O13 Eu12 2.370 1_656 S
O13 Eu15 2.370 1_566 S
O13 Eu20 2.370 1_665 S
O14 Eu12 2.370 . S
O14 Eu16 2.370 1_565 S
O14 Eu19 2.370 1_565 S
Eu15 O13 2.370 1_544 S
Eu15 O17 2.370 1_545 S
Eu15 O21 2.370 . S
Eu15 O22 2.370 1_554 S
Eu15 O30 2.363 . S
Eu15 O31 2.363 1_545 S
Eu15 O46 2.363 . S
Eu15 O47 2.363 1_554 S
Eu16 O14 2.370 1_545 S
Eu16 O18 2.370 1_544 S
Eu16 O23 2.370 1_554 S
Eu16 O24 2.370 . S
Eu16 O32 2.363 . S
Eu16 O33 2.363 1_545 S
Eu16 O48 2.363 . S
Eu16 O49 2.363 1_554 S
O17 Eu12 2.370 1_655 S
O17 Eu15 2.370 1_565 S
O17 Eu19 2.370 1_665 S
O18 Eu12 2.370 1_556 S
O18 Eu16 2.370 1_566 S
O18 Eu20 2.370 1_565 S
Eu19 O14 2.370 1_545 S
Eu19 O17 2.370 1_445 S
Eu19 O21 2.370 1_455 S
Eu19 O24 2.370 . S
Eu19 O36 2.363 . S
Eu19 O37 2.363 1_455 S
Eu19 O44 2.363 1_545 S
Eu19 O45 2.363 . S
Eu20 O13 2.370 1_445 S
Eu20 O18 2.370 1_545 S
Eu20 O22 2.370 1_455 S
Eu20 O23 2.370 . S
Eu20 O34 2.363 . S
Eu20 O35 2.363 1_455 S
Eu20 O42 2.363 1_545 S
Eu20 O43 2.363 . S
O21 Eu15 2.370 . S
O21 Eu19 2.370 1_655 S
O21 Eu25 2.370 1_655 S
O22 Eu15 2.370 1_556 S
O22 Eu20 2.370 1_655 S
O22 Eu25 2.370 1_656 S
O23 Eu16 2.370 1_556 S
O23 Eu20 2.370 . S
O23 Eu25 2.370 1_556 S
O24 Eu16 2.370 . S
O24 Eu19 2.370 . S
O24 Eu25 2.370 . S
Eu25 O21 2.370 1_455 S
Eu25 O22 2.370 1_454 S
Eu25 O23 2.370 1_554 S
Eu25 O24 2.370 . S
Eu25 O28 2.363 . S
Eu25 O29 2.363 1_554 S
Eu25 O38 2.363 . S
Eu25 O39 2.363 1_455 S
O26 C0 1.283 . S
O26 Eu12 2.363 . S
O27 C1 1.283 . S
O27 Eu12 2.363 1_556 S
O28 C2 1.283 . S
O28 Eu25 2.363 . S
O29 C3 1.283 . S
O29 Eu25 2.363 1_556 S
O30 C4 1.283 . S
O30 Eu15 2.363 . S
O31 C5 1.283 . S
O31 Eu15 2.363 1_565 S
O32 C6 1.283 . S
O32 Eu16 2.363 . S
O33 C7 1.283 . S
O33 Eu16 2.363 1_565 S
O34 C8 1.283 . S
O34 Eu20 2.363 . S
O35 C9 1.283 . S
O35 Eu20 2.363 1_655 S
O36 C10 1.283 . S
O36 Eu19 2.363 . S
O37 C11 1.283 . S
O37 Eu19 2.363 1_655 S
O38 C6 1.283 . S
O38 Eu25 2.363 . S
O39 C4 1.283 . S
O39 Eu25 2.363 1_655 S
O40 C7 1.283 . S
O40 Eu12 2.363 . S
O41 C5 1.283 . S
O41 Eu12 2.363 1_655 S
O42 C1 1.283 . S
O42 Eu20 2.363 1_565 S
O43 C3 1.283 . S
O43 Eu20 2.363 . S
O44 C0 1.283 . S
O44 Eu19 2.363 1_565 S
O45 C2 1.283 . S
O45 Eu19 2.363 . S
O46 C11 1.283 . S
O46 Eu15 2.363 . S
O47 C9 1.283 . S
O47 Eu15 2.363 1_556 S
O48 C10 1.283 . S
O48 Eu16 2.363 . S
O49 C8 1.283 . S
O49 Eu16 2.363 1_556 S
C50 O76 1.283 . S
C50 O94 1.283 . S
C51 O77 1.283 . S
C51 O92 1.283 . S
C52 O78 1.283 . S
C52 O95 1.283 . S
C53 O79 1.283 . S
C53 O93 1.283 . S
C54 O80 1.283 . S
C54 O89 1.283 . S
C55 O81 1.283 . S
C55 O91 1.283 . S
C56 O82 1.283 . S
C56 O88 1.283 . S
C57 O83 1.283 . S
C57 O90 1.283 . S
C58 O84 1.283 . S
C58 O99 1.283 . S
C59 O85 1.283 . S
C59 O97 1.283 . S
C60 O86 1.283 . S
C60 O98 1.283 . S
C61 O87 1.283 . S
C61 O96 1.283 . S
Eu62 O63 2.370 . S
Eu62 O64 2.370 1_455 S
Eu62 O67 2.370 . S
Eu62 O68 2.370 1_455 S
Eu62 O76 2.363 . S
Eu62 O77 2.363 . S
Eu62 O90 2.363 1_455 S
Eu62 O91 2.363 . S
O63 Eu62 2.370 . S
O63 Eu65 2.370 . S
O63 Eu70 2.370 . S
O64 Eu62 2.370 1_655 S
O64 Eu66 2.370 . S
O64 Eu69 2.370 1_655 S
Eu65 O63 2.370 . S
Eu65 O67 2.370 . S
Eu65 O71 2.370 . S
Eu65 O72 2.370 . S
Eu65 O80 2.363 . S
Eu65 O81 2.363 . S
Eu65 O96 2.363 . S
Eu65 O97 2.363 . S
Eu66 O64 2.370 . S
Eu66 O68 2.370 . S
Eu66 O73 2.370 . S
Eu66 O74 2.370 . S
Eu66 O82 2.363 . S
Eu66 O83 2.363 . S
Eu66 O98 2.363 . S
Eu66 O99 2.363 . S
O67 Eu62 2.370 . S
O67 Eu65 2.370 . S
O67 Eu69 2.370 . S
O68 Eu62 2.370 1_655 S
O68 Eu66 2.370 . S
O68 Eu70 2.370 1_655 S
Eu69 O64 2.370 1_455 S
Eu69 O67 2.370 . S
Eu69 O71 2.370 . S
Eu69 O74 2.370 1_455 S
Eu69 O86 2.363 1_455 S
Eu69 O87 2.363 . S
Eu69 O94 2.363 . S
Eu69 O95 2.363 . S
Eu70 O63 2.370 . S
Eu70 O68 2.370 1_455 S
Eu70 O72 2.370 . S
Eu70 O73 2.370 1_455 S
Eu70 O84 2.363 1_455 S
Eu70 O85 2.363 . S
Eu70 O92 2.363 . S
Eu70 O93 2.363 . S
O71 Eu65 2.370 . S
O71 Eu69 2.370 . S
O71 Eu75 2.370 . S
O72 Eu65 2.370 . S
O72 Eu70 2.370 . S
O72 Eu75 2.370 . S
O73 Eu66 2.370 . S
O73 Eu70 2.370 1_655 S
O73 Eu75 2.370 1_655 S
O74 Eu66 2.370 . S
O74 Eu69 2.370 1_655 S
O74 Eu75 2.370 1_655 S
Eu75 O71 2.370 . S
Eu75 O72 2.370 . S
Eu75 O73 2.370 1_455 S
Eu75 O74 2.370 1_455 S
Eu75 O78 2.363 . S
Eu75 O79 2.363 . S
Eu75 O88 2.363 1_455 S
Eu75 O89 2.363 . S
O76 C50 1.283 . S
O76 Eu62 2.363 . S
O77 C51 1.283 . S
O77 Eu62 2.363 . S
O78 C52 1.283 . S
O78 Eu75 2.363 . S
O79 C53 1.283 . S
O79 Eu75 2.363 . S
O80 C54 1.283 . S
O80 Eu65 2.363 . S
O81 C55 1.283 . S
O81 Eu65 2.363 . S
O82 C56 1.283 . S
O82 Eu66 2.363 . S
O83 C57 1.283 . S
O83 Eu66 2.363 . S
O84 C58 1.283 . S
O84 Eu70 2.363 1_655 S
O85 C59 1.283 . S
O85 Eu70 2.363 . S
O86 C60 1.283 . S
O86 Eu69 2.363 1_655 S
O87 C61 1.283 . S
O87 Eu69 2.363 . S
O88 C56 1.283 . S
O88 Eu75 2.363 1_655 S
O89 C54 1.283 . S
O89 Eu75 2.363 . S
O90 C57 1.283 . S
O90 Eu62 2.363 1_655 S
O91 C55 1.283 . S
O91 Eu62 2.363 . S
O92 C51 1.283 . S
O92 Eu70 2.363 . S
O93 C53 1.283 . S
O93 Eu70 2.363 . S
O94 C50 1.283 . S
O94 Eu69 2.363 . S
O95 C52 1.283 . S
O95 Eu69 2.363 . S
O96 C61 1.283 . S
O96 Eu65 2.363 . S
O97 C59 1.283 . S
O97 Eu65 2.363 . S
O98 C60 1.283 . S
O98 Eu66 2.363 . S
O99 C58 1.283 . S
O99 Eu66 2.363 . S
C100 O126 1.283 . S
C100 O144 1.283 . S
C101 O127 1.283 . S
C101 O142 1.283 . S
C102 O128 1.283 . S
C102 O145 1.283 . S
C103 O129 1.283 . S
C103 O143 1.283 . S
C104 O130 1.283 . S
C104 O139 1.283 . S
C105 O131 1.283 . S
C105 O141 1.283 . S
C106 O132 1.283 . S
C106 O138 1.283 . S
C107 O133 1.283 . S
C107 O140 1.283 . S
C108 O134 1.283 . S
C108 O149 1.283 . S
C109 O135 1.283 . S
C109 O147 1.283 . S
C110 O136 1.283 . S
C110 O148 1.283 . S
C111 O137 1.283 . S
C111 O146 1.283 . S
Eu112 O113 2.370 . S
Eu112 O114 2.370 1_545 S
Eu112 O117 2.370 1_545 S
Eu112 O118 2.370 . S
Eu112 O126 2.363 1_545 S
Eu112 O127 2.363 . S
Eu112 O140 2.363 . S
Eu112 O141 2.363 . S
O113 Eu112 2.370 . S
O113 Eu115 2.370 . S
O113 Eu120 2.370 . S
O114 Eu112 2.370 1_565 S
O114 Eu116 2.370 1_565 S
O114 Eu119 2.370 . S
Eu115 O113 2.370 . S
Eu115 O117 2.370 1_545 S
Eu115 O121 2.370 1_545 S
Eu115 O122 2.370 . S
Eu115 O130 2.363 . S
Eu115 O131 2.363 . S
Eu115 O146 2.363 1_545 S
Eu115 O147 2.363 . S
Eu116 O114 2.370 1_545 S
Eu116 O118 2.370 . S
Eu116 O123 2.370 . S
Eu116 O124 2.370 1_545 S
Eu116 O132 2.363 . S
Eu116 O133 2.363 . S
Eu116 O148 2.363 1_545 S
Eu116 O149 2.363 . S
O117 Eu112 2.370 1_565 S
O117 Eu115 2.370 1_565 S
O117 Eu119 2.370 . S
O118 Eu112 2.370 . S
O118 Eu116 2.370 . S
O118 Eu120 2.370 . S
Eu119 O114 2.370 . S
Eu119 O117 2.370 . S
Eu119 O121 2.370 . S
Eu119 O124 2.370 . S
Eu119 O136 2.363 . S
Eu119 O137 2.363 . S
Eu119 O144 2.363 . S
Eu119 O145 2.363 . S
Eu120 O113 2.370 . S
Eu120 O118 2.370 . S
Eu120 O122 2.370 . S
Eu120 O123 2.370 . S
Eu120 O134 2.363 . S
Eu120 O135 2.363 . S
Eu120 O142 2.363 . S
Eu120 O143 2.363 . S
O121 Eu115 2.370 1_565 S
O121 Eu119 2.370 . S
O121 Eu125 2.370 1_565 S
O122 Eu115 2.370 . S
O122 Eu120 2.370 . S
O122 Eu125 2.370 . S
O123 Eu116 2.370 . S
O123 Eu120 2.370 . S
O123 Eu125 2.370 . S
O124 Eu116 2.370 1_565 S
O124 Eu119 2.370 . S
O124 Eu125 2.370 1_565 S
Eu125 O121 2.370 1_545 S
Eu125 O122 2.370 . S
Eu125 O123 2.370 . S
Eu125 O124 2.370 1_545 S
Eu125 O128 2.363 1_545 S
Eu125 O129 2.363 . S
Eu125 O138 2.363 . S
Eu125 O139 2.363 . S
O126 C100 1.283 . S
O126 Eu112 2.363 1_565 S
O127 C101 1.283 . S
O127 Eu112 2.363 . S
O128 C102 1.283 . S
O128 Eu125 2.363 1_565 S
O129 C103 1.283 . S
O129 Eu125 2.363 . S
O130 C104 1.283 . S
O130 Eu115 2.363 . S
O131 C105 1.283 . S
O131 Eu115 2.363 . S
O132 C106 1.283 . S
O132 Eu116 2.363 . S
O133 C107 1.283 . S
O133 Eu116 2.363 . S
O134 C108 1.283 . S
O134 Eu120 2.363 . S
O135 C109 1.283 . S
O135 Eu120 2.363 . S
O136 C110 1.283 . S
O136 Eu119 2.363 . S
O137 C111 1.283 . S
O137 Eu119 2.363 . S
O138 C106 1.283 . S
O138 Eu125 2.363 . S
O139 C104 1.283 . S
O139 Eu125 2.363 . S
O140 C107 1.283 . S
O140 Eu112 2.363 . S
O141 C105 1.283 . S
O141 Eu112 2.363 . S
O142 C101 1.283 . S
O142 Eu120 2.363 . S
O143 C103 1.283 . S
O143 Eu120 2.363 . S
O144 C100 1.283 . S
O144 Eu119 2.363 . S
O145 C102 1.283 . S
O145 Eu119 2.363 . S
O146 C111 1.283 . S
O146 Eu115 2.363 1_565 S
O147 C109 1.283 . S
O147 Eu115 2.363 . S
O148 C110 1.283 . S
O148 Eu116 2.363 1_565 S
O149 C108 1.283 . S
O149 Eu116 2.363 . S
C150 O176 1.283 . S
C150 O194 1.283 . S
C151 O177 1.283 . S
C151 O192 1.283 . S
C152 O178 1.283 . S
C152 O195 1.283 . S
C153 O179 1.283 . S
C153 O193 1.283 . S
C154 O180 1.283 . S
C154 O189 1.283 . S
C155 O181 1.283 . S
C155 O191 1.283 . S
C156 O182 1.283 . S
C156 O188 1.283 . S
C157 O183 1.283 . S
C157 O190 1.283 . S
C158 O184 1.283 . S
C158 O199 1.283 . S
C159 O185 1.283 . S
C159 O197 1.283 . S
C160 O186 1.283 . S
C160 O198 1.283 . S
C161 O187 1.283 . S
C161 O196 1.283 . S
Eu162 O163 2.370 . S
Eu162 O164 2.370 1_554 S
Eu162 O167 2.370 1_554 S
Eu162 O168 2.370 . S
Eu162 O176 2.363 1_554 S
Eu162 O177 2.363 . S
Eu162 O190 2.363 . S
Eu162 O191 2.363 . S
O163 Eu162 2.370 . S
O163 Eu165 2.370 . S
O163 Eu170 2.370 . S
O164 Eu162 2.370 1_556 S
O164 Eu166 2.370 1_556 S
O164 Eu169 2.370 . S
Eu165 O163 2.370 . S
Eu165 O167 2.370 1_554 S
Eu165 O171 2.370 1_554 S
Eu165 O172 2.370 . S
Eu165 O180 2.363 . S
Eu165 O181 2.363 . S
Eu165 O196 2.363 1_554 S
Eu165 O197 2.363 . S
Eu166 O164 2.370 1_554 S
Eu166 O168 2.370 . S
Eu166 O173 2.370 . S
Eu166 O174 2.370 1_554 S
Eu166 O182 2.363 . S
Eu166 O183 2.363 . S
Eu166 O198 2.363 1_554 S
Eu166 O199 2.363 . S
O167 Eu162 2.370 1_556 S
O167 Eu165 2.370 1_556 S
O167 Eu169 2.370 . S
O168 Eu162 2.370 . S
O168 Eu166 2.370 . S
O168 Eu170 2.370 . S
Eu169 O164 2.370 . S
Eu169 O167 2.370 . S
Eu169 O171 2.370 . S
Eu169 O174 2.370 . S
Eu169 O186 2.363 . S
Eu169 O187 2.363 . S
Eu169 O194 2.363 . S
Eu169 O195 2.363 . S
Eu170 O163 2.370 . S
Eu170 O168 2.370 . S
Eu170 O172 2.370 . S
Eu170 O173 2.370 . S
Eu170 O184 2.363 . S
Eu170 O185 2.363 . S
Eu170 O192 2.363 . S
Eu170 O193 2.363 . S
O171 Eu165 2.370 1_556 S
O171 Eu169 2.370 . S
O171 Eu175 2.370 1_556 S
O172 Eu165 2.370 . S
O172 Eu170 2.370 . S
O172 Eu175 2.370 . S
O173 Eu166 2.370 . S
O173 Eu170 2.370 . S
O173 Eu175 2.370 . S
O174 Eu166 2.370 1_556 S
O174 Eu169 2.370 . S
O174 Eu175 2.370 1_556 S
Eu175 O171 2.370 1_554 S
Eu175 O172 2.370 . S
Eu175 O173 2.370 . S
Eu175 O174 2.370 1_554 S
Eu175 O178 2.363 1_554 S
Eu175 O179 2.363 . S
Eu175 O188 2.363 . S
Eu175 O189 2.363 . S
O176 C150 1.283 . S
O176 Eu162 2.363 1_556 S
O177 C151 1.283 . S
O177 Eu162 2.363 . S
O178 C152 1.283 . S
O178 Eu175 2.363 1_556 S
O179 C153 1.283 . S
O179 Eu175 2.363 . S
O180 C154 1.283 . S
O180 Eu165 2.363 . S
O181 C155 1.283 . S
O181 Eu165 2.363 . S
O182 C156 1.283 . S
O182 Eu166 2.363 . S
O183 C157 1.283 . S
O183 Eu166 2.363 . S
O184 C158 1.283 . S
O184 Eu170 2.363 . S
O185 C159 1.283 . S
O185 Eu170 2.363 . S
O186 C160 1.283 . S
O186 Eu169 2.363 . S
O187 C161 1.283 . S
O187 Eu169 2.363 . S
O188 C156 1.283 . S
O188 Eu175 2.363 . S
O189 C154 1.283 . S
O189 Eu175 2.363 . S
O190 C157 1.283 . S
O190 Eu162 2.363 . S
O191 C155 1.283 . S
O191 Eu162 2.363 . S
O192 C151 1.283 . S
O192 Eu170 2.363 . S
O193 C153 1.283 . S
O193 Eu170 2.363 . S
O194 C150 1.283 . S
O194 Eu169 2.363 . S
O195 C152 1.283 . S
O195 Eu169 2.363 . S
O196 C161 1.283 . S
O196 Eu165 2.363 1_556 S
O197 C159 1.283 . S
O197 Eu165 2.363 . S
O198 C160 1.283 . S
O198 Eu166 2.363 1_556 S
O199 C158 1.283 . S
O199 Eu166 2.363 . S
C200 C201 1.387 . S
C200 H204 0.950 . S
C200 C209 1.390 . S
C201 C200 1.387 . S
C201 C203 1.387 1_455 S
H202 C209 0.950 . S
C203 C201 1.387 1_655 S
C203 C205 1.390 . S
C203 H207 0.950 . S
H204 C200 0.950 . S
C205 C203 1.390 . S
C205 C206 1.387 1_655 S
C205 H208 0.950 . S
C206 C205 1.387 1_455 S
C206 C209 1.387 . S
H207 C203 0.950 . S
H208 C205 0.950 . S
C209 C200 1.390 . S
C209 H202 0.950 . S
C209 C206 1.387 . S
C210 C211 1.387 . S
C210 H214 0.950 . S
C210 C219 1.390 . S
C211 C210 1.387 . S
C211 C213 1.387 1_545 S
H212 C219 0.950 . S
C213 C211 1.387 1_565 S
C213 C215 1.390 . S
C213 H217 0.950 . S
H214 C210 0.950 . S
C215 C213 1.390 . S
C215 C216 1.387 1_565 S
C215 H218 0.950 . S
C216 C215 1.387 1_545 S
C216 C219 1.387 . S
H217 C213 0.950 . S
H218 C215 0.950 . S
C219 C210 1.390 . S
C219 H212 0.950 . S
C219 C216 1.387 . S
C220 C221 1.387 1_655 S
C220 H224 0.950 . S
C220 C229 1.390 . S
C221 C220 1.387 1_455 S
C221 C223 1.387 . S
H222 C229 0.950 . S
C223 C221 1.387 . S
C223 C225 1.390 . S
C223 H227 0.950 . S
H224 C220 0.950 . S
C225 C223 1.390 . S
C225 C226 1.387 . S
C225 H228 0.950 . S
C226 C225 1.387 . S
C226 C229 1.387 1_455 S
H227 C223 0.950 . S
H228 C225 0.950 . S
C229 C220 1.390 . S
C229 H222 0.950 . S
C229 C226 1.387 1_655 S
C230 C231 1.387 1_565 S
C230 H234 0.950 . S
C230 C239 1.390 . S
C231 C230 1.387 1_545 S
C231 C233 1.387 . S
H232 C239 0.950 . S
C233 C231 1.387 . S
C233 C235 1.390 . S
C233 H237 0.950 . S
H234 C230 0.950 . S
C235 C233 1.390 . S
C235 C236 1.387 . S
C235 H238 0.950 . S
C236 C235 1.387 . S
C236 C239 1.387 1_545 S
H237 C233 0.950 . S
H238 C235 0.950 . S
C239 C230 1.390 . S
C239 H232 0.950 . S
C239 C236 1.387 1_565 S
C240 C241 1.387 1_655 S
C240 H244 0.950 . S
C240 C249 1.390 . S
C241 C240 1.387 1_455 S
C241 C243 1.387 . S
H242 C249 0.950 . S
C243 C241 1.387 . S
C243 C245 1.390 . S
C243 H247 0.950 . S
H244 C240 0.950 . S
C245 C243 1.390 . S
C245 C246 1.387 . S
C245 H248 0.950 . S
C246 C245 1.387 . S
C246 C249 1.387 1_455 S
H247 C243 0.950 . S
H248 C245 0.950 . S
C249 C240 1.390 . S
C249 H242 0.950 . S
C249 C246 1.387 1_655 S
C250 C251 1.387 1_565 S
C250 H254 0.950 . S
C250 C259 1.390 . S
C251 C250 1.387 1_545 S
C251 C253 1.387 . S
H252 C259 0.950 . S
C253 C251 1.387 . S
C253 C255 1.390 . S
C253 H257 0.950 . S
H254 C250 0.950 . S
C255 C253 1.390 . S
C255 C256 1.387 . S
C255 H258 0.950 . S
C256 C255 1.387 . S
C256 C259 1.387 1_545 S
H257 C253 0.950 . S
H258 C255 0.950 . S
C259 C250 1.390 . S
C259 H252 0.950 . S
C259 C256 1.387 1_565 S
C260 C261 1.387 . S
C260 H264 0.950 . S
C260 C269 1.390 . S
C261 C260 1.387 . S
C261 C263 1.387 1_455 S
H262 C269 0.950 . S
C263 C261 1.387 1_655 S
C263 C265 1.390 . S
C263 H267 0.950 . S
H264 C260 0.950 . S
C265 C263 1.390 . S
C265 C266 1.387 1_655 S
C265 H268 0.950 . S
C266 C265 1.387 1_455 S
C266 C269 1.387 . S
H267 C263 0.950 . S
H268 C265 0.950 . S
C269 C260 1.390 . S
C269 H262 0.950 . S
C269 C266 1.387 . S
C270 C271 1.387 . S
C270 H274 0.950 . S
C270 C279 1.390 . S
C271 C270 1.387 . S
C271 C273 1.387 1_545 S
H272 C279 0.950 . S
C273 C271 1.387 1_565 S
C273 C275 1.390 . S
C273 H277 0.950 . S
H274 C270 0.950 . S
C275 C273 1.390 . S
C275 C276 1.387 1_565 S
C275 H278 0.950 . S
C276 C275 1.387 1_545 S
C276 C279 1.387 . S
H277 C273 0.950 . S
H278 C275 0.950 . S
C279 C270 1.390 . S
C279 H272 0.950 . S
C279 C276 1.387 . S
C280 C281 1.387 . S
C280 H284 0.950 . S
C280 C289 1.390 . S
C281 C280 1.387 . S
C281 C283 1.387 1_554 S
H282 C289 0.950 . S
C283 C281 1.387 1_556 S
C283 C285 1.390 . S
C283 H287 0.950 . S
H284 C280 0.950 . S
C285 C283 1.390 . S
C285 C286 1.387 1_556 S
C285 H288 0.950 . S
C286 C285 1.387 1_554 S
C286 C289 1.387 . S
H287 C283 0.950 . S
H288 C285 0.950 . S
C289 C280 1.390 . S
C289 H282 0.950 . S
C289 C286 1.387 . S
C290 C291 1.387 1_556 S
C290 H294 0.950 . S
C290 C299 1.390 . S
C291 C290 1.387 1_554 S
C291 C293 1.387 . S
H292 C299 0.950 . S
C293 C291 1.387 . S
C293 C295 1.390 . S
C293 H297 0.950 . S
H294 C290 0.950 . S
C295 C293 1.390 . S
C295 C296 1.387 . S
C295 H298 0.950 . S
C296 C295 1.387 . S
C296 C299 1.387 1_554 S
H297 C293 0.950 . S
H298 C295 0.950 . S
C299 C290 1.390 . S
C299 H292 0.950 . S
C299 C296 1.387 1_556 S
C300 C301 1.387 . S
C300 H304 0.950 . S
C300 C309 1.390 . S
C301 C300 1.387 . S
C301 C303 1.387 1_554 S
H302 C309 0.950 . S
C303 C301 1.387 1_556 S
C303 C305 1.390 . S
C303 H307 0.950 . S
H304 C300 0.950 . S
C305 C303 1.390 . S
C305 C306 1.387 1_556 S
C305 H308 0.950 . S
C306 C305 1.387 1_554 S
C306 C309 1.387 . S
H307 C303 0.950 . S
H308 C305 0.950 . S
C309 C300 1.390 . S
C309 H302 0.950 . S
C309 C306 1.387 . S
C310 C311 1.387 . S
C310 H314 0.950 . S
C310 C319 1.390 . S
C311 C310 1.387 . S
C311 C313 1.387 1_554 S
H312 C319 0.950 . S
C313 C311 1.387 1_556 S
C313 C315 1.390 . S
C313 H317 0.950 . S
H314 C310 0.950 . S
C315 C313 1.390 . S
C315 C316 1.387 1_556 S
C315 H318 0.950 . S
C316 C315 1.387 1_554 S
C316 C319 1.387 . S
H317 C313 0.950 . S
H318 C315 0.950 . S
C319 C310 1.390 . S
C319 H312 0.950 . S
C319 C316 1.387 . S
C320 C321 1.387 . S
C320 H324 0.950 . S
C320 C329 1.390 . S
C321 C320 1.387 . S
C321 C323 1.387 . S
H322 C329 0.950 . S
C323 C321 1.387 . S
C323 C325 1.390 . S
C323 H327 0.950 . S
H324 C320 0.950 . S
C325 C323 1.390 . S
C325 C326 1.387 . S
C325 H328 0.950 . S
C326 C325 1.387 . S
C326 C329 1.387 . S
H327 C323 0.950 . S
H328 C325 0.950 . S
C329 C320 1.390 . S
C329 H322 0.950 . S
C329 C326 1.387 . S
C330 C331 1.387 . S
C330 H334 0.950 . S
C330 C339 1.390 . S
C331 C330 1.387 . S
C331 C333 1.387 . S
H332 C339 0.950 . S
C333 C331 1.387 . S
C333 C335 1.390 . S
C333 H337 0.950 . S
H334 C330 0.950 . S
C335 C333 1.390 . S
C335 C336 1.387 . S
C335 H338 0.950 . S
C336 C335 1.387 . S
C336 C339 1.387 . S
H337 C333 0.950 . S
H338 C335 0.950 . S
C339 C330 1.390 . S
C339 H332 0.950 . S
C339 C336 1.387 . S
C340 C341 1.387 . S
C340 H344 0.950 . S
C340 C349 1.390 . S
C341 C340 1.387 . S
C341 C343 1.387 . S
H342 C349 0.950 . S
C343 C341 1.387 . S
C343 C345 1.390 . S
C343 H347 0.950 . S
H344 C340 0.950 . S
C345 C343 1.390 . S
C345 C346 1.387 . S
C345 H348 0.950 . S
C346 C345 1.387 . S
C346 C349 1.387 . S
H347 C343 0.950 . S
H348 C345 0.950 . S
C349 C340 1.390 . S
C349 H342 0.950 . S
C349 C346 1.387 . S
C350 C351 1.387 . S
C350 H354 0.950 . S
C350 C359 1.390 . S
C351 C350 1.387 . S
C351 C353 1.387 . S
H352 C359 0.950 . S
C353 C351 1.387 . S
C353 C355 1.390 . S
C353 H357 0.950 . S
H354 C350 0.950 . S
C355 C353 1.390 . S
C355 C356 1.387 . S
C355 H358 0.950 . S
C356 C355 1.387 . S
C356 C359 1.387 . S
H357 C353 0.950 . S
H358 C355 0.950 . S
C359 C350 1.390 . S
C359 H352 0.950 . S
C359 C356 1.387 . S
C360 C361 1.387 . S
C360 H364 0.950 . S
C360 C369 1.390 . S
C361 C360 1.387 . S
C361 C363 1.387 . S
H362 C369 0.950 . S
C363 C361 1.387 . S
C363 C365 1.390 . S
C363 H367 0.950 . S
H364 C360 0.950 . S
C365 C363 1.390 . S
C365 C366 1.387 . S
C365 H368 0.950 . S
C366 C365 1.387 . S
C366 C369 1.387 . S
H367 C363 0.950 . S
H368 C365 0.950 . S
C369 C360 1.390 . S
C369 H362 0.950 . S
C369 C366 1.387 . S
C370 C371 1.387 . S
C370 H374 0.950 . S
C370 C379 1.390 . S
C371 C370 1.387 . S
C371 C373 1.387 . S
H372 C379 0.950 . S
C373 C371 1.387 . S
C373 C375 1.390 . S
C373 H377 0.950 . S
H374 C370 0.950 . S
C375 C373 1.390 . S
C375 C376 1.387 . S
C375 H378 0.950 . S
C376 C375 1.387 . S
C376 C379 1.387 . S
H377 C373 0.950 . S
H378 C375 0.950 . S
C379 C370 1.390 . S
C379 H372 0.950 . S
C379 C376 1.387 . S
C380 C381 1.387 . S
C380 H384 0.950 . S
C380 C389 1.390 . S
C381 C380 1.387 . S
C381 C383 1.387 . S
H382 C389 0.950 . S
C383 C381 1.387 . S
C383 C385 1.390 . S
C383 H387 0.950 . S
H384 C380 0.950 . S
C385 C383 1.390 . S
C385 C386 1.387 . S
C385 H388 0.950 . S
C386 C385 1.387 . S
C386 C389 1.387 . S
H387 C383 0.950 . S
H388 C385 0.950 . S
C389 C380 1.390 . S
C389 H382 0.950 . S
C389 C386 1.387 . S
C390 C391 1.387 . S
C390 H394 0.950 . S
C390 C399 1.390 . S
C391 C390 1.387 . S
C391 C393 1.387 . S
H392 C399 0.950 . S
C393 C391 1.387 . S
C393 C395 1.390 . S
C393 H397 0.950 . S
H394 C390 0.950 . S
C395 C393 1.390 . S
C395 C396 1.387 . S
C395 H398 0.950 . S
C396 C395 1.387 . S
C396 C399 1.387 . S
H397 C393 0.950 . S
H398 C395 0.950 . S
C399 C390 1.390 . S
C399 H392 0.950 . S
C399 C396 1.387 . S
C400 C401 1.387 . S
C400 H404 0.950 . S
C400 C409 1.390 . S
C401 C400 1.387 . S
C401 C403 1.387 . S
H402 C409 0.950 . S
C403 C401 1.387 . S
C403 C405 1.390 . S
C403 H407 0.950 . S
H404 C400 0.950 . S
C405 C403 1.390 . S
C405 C406 1.387 . S
C405 H408 0.950 . S
C406 C405 1.387 . S
C406 C409 1.387 . S
H407 C403 0.950 . S
H408 C405 0.950 . S
C409 C400 1.390 . S
C409 H402 0.950 . S
C409 C406 1.387 . S
C410 C411 1.387 . S
C410 H414 0.950 . S
C410 C419 1.390 . S
C411 C410 1.387 . S
C411 C413 1.387 . S
H412 C419 0.950 . S
C413 C411 1.387 . S
C413 C415 1.390 . S
C413 H417 0.950 . S
H414 C410 0.950 . S
C415 C413 1.390 . S
C415 C416 1.387 . S
C415 H418 0.950 . S
C416 C415 1.387 . S
C416 C419 1.387 . S
H417 C413 0.950 . S
H418 C415 0.950 . S
C419 C410 1.390 . S
C419 H412 0.950 . S
C419 C416 1.387 . S
C420 C421 1.387 . S
C420 H424 0.950 . S
C420 C429 1.390 . S
C421 C420 1.387 . S
C421 C423 1.387 . S
H422 C429 0.950 . S
C423 C421 1.387 . S
C423 C425 1.390 . S
C423 H427 0.950 . S
H424 C420 0.950 . S
C425 C423 1.390 . S
C425 C426 1.387 . S
C425 H428 0.950 . S
C426 C425 1.387 . S
C426 C429 1.387 . S
H427 C423 0.950 . S
H428 C425 0.950 . S
C429 C420 1.390 . S
C429 H422 0.950 . S
C429 C426 1.387 . S
C430 C431 1.387 . S
C430 H434 0.950 . S
C430 C439 1.390 . S
C431 C430 1.387 . S
C431 C433 1.387 . S
H432 C439 0.950 . S
C433 C431 1.387 . S
C433 C435 1.390 . S
C433 H437 0.950 . S
H434 C430 0.950 . S
C435 C433 1.390 . S
C435 C436 1.387 . S
C435 H438 0.950 . S
C436 C435 1.387 . S
C436 C439 1.387 . S
H437 C433 0.950 . S
H438 C435 0.950 . S
C439 C430 1.390 . S
C439 H432 0.950 . S
C439 C436 1.387 . S
C201 C2 1.500 . S
C206 C52 1.497 . S
C211 C11 1.500 . S
C216 C104 1.500 . S
C221 C0 1.500 . S
C226 C53 1.500 . S
C231 C106 1.500 . S
C236 C10 1.497 . S
C241 C1 1.500 . S
C246 C51 1.503 . S
C251 C8 1.500 . S
C256 C107 1.500 . S
C261 C50 1.500 . S
C266 C3 1.500 . S
C271 C105 1.500 . S
C276 C9 1.503 . S
C281 C156 1.500 . S
C286 C6 1.497 . S
C291 C157 1.500 . S
C296 C7 1.500 . S
C301 C154 1.500 . S
C306 C4 1.500 . S
C311 C5 1.500 . S
C316 C155 1.503 . S
C321 C161 1.500 . S
C326 C57 1.503 . S
C331 C55 1.500 . S
C336 C160 1.500 . S
C341 C54 1.500 . S
C346 C158 1.497 . S
C351 C159 1.500 . S
C356 C56 1.500 . S
C361 C110 1.500 . S
C366 C59 1.500 . S
C371 C61 1.500 . S
C376 C108 1.497 . S
C381 C58 1.500 . S
C386 C111 1.503 . S
C391 C109 1.500 . S
C396 C60 1.500 . S
C401 C152 1.500 . S
C406 C101 1.500 . S
C411 C100 1.500 . S
C416 C150 1.503 . S
C421 C151 1.500 . S
C426 C102 1.500 . S
C431 C103 1.500 . S
C436 C153 1.497 . S
