# Generated by pormake.
# Topology uku, (4)-cn, num edge types: 1
# Building blocks:
#     Node 0, Type 0, BuildingBlock: CEKHIL_clean_sbu_0, # of connection points: 4
#     Node 1, Type 0, BuildingBlock: CEKHIL_clean_sbu_0, # of connection points: 4
#     Node 2, Type 0, BuildingBlock: CEKHIL_clean_sbu_0, # of connection points: 4
#     Node 3, Type 0, BuildingBlock: CEKHIL_clean_sbu_0, # of connection points: 4
#     Node 4, Type 0, BuildingBlock: CEKHIL_clean_sbu_0, # of connection points: 4
#     Node 5, Type 0, BuildingBlock: CEKHIL_clean_sbu_0, # of connection points: 4
#     Node 6, Type 0, BuildingBlock: CEKHIL_clean_sbu_0, # of connection points: 4
#     Node 7, Type 0, BuildingBlock: CEKHIL_clean_sbu_0, # of connection points: 4
#     Node 8, Type 0, BuildingBlock: CEKHIL_clean_sbu_0, # of connection points: 4
#     Node 9, Type 0, BuildingBlock: CEKHIL_clean_sbu_0, # of connection points: 4
#     Node 10, Type 0, BuildingBlock: CEKHIL_clean_sbu_0, # of connection points: 4
#     Node 11, Type 0, BuildingBlock: CEKHIL_clean_sbu_0, # of connection points: 4
#     Edge 12, Type (0, 0), BuildingBlock: AJUNOK_clean_linker_0, # of connection points: 2
#     Edge 13, Type (0, 0), BuildingBlock: AJUNOK_clean_linker_0, # of connection points: 2
#     Edge 14, Type (0, 0), BuildingBlock: AJUNOK_clean_linker_0, # of connection points: 2
#     Edge 15, Type (0, 0), BuildingBlock: AJUNOK_clean_linker_0, # of connection points: 2
#     Edge 16, Type (0, 0), BuildingBlock: AJUNOK_clean_linker_0, # of connection points: 2
#     Edge 17, Type (0, 0), BuildingBlock: AJUNOK_clean_linker_0, # of connection points: 2
#     Edge 18, Type (0, 0), BuildingBlock: AJUNOK_clean_linker_0, # of connection points: 2
#     Edge 19, Type (0, 0), BuildingBlock: AJUNOK_clean_linker_0, # of connection points: 2
#     Edge 20, Type (0, 0), BuildingBlock: AJUNOK_clean_linker_0, # of connection points: 2
#     Edge 21, Type (0, 0), BuildingBlock: AJUNOK_clean_linker_0, # of connection points: 2
#     Edge 22, Type (0, 0), BuildingBlock: AJUNOK_clean_linker_0, # of connection points: 2
#     Edge 23, Type (0, 0), BuildingBlock: AJUNOK_clean_linker_0, # of connection points: 2
#     Edge 24, Type (0, 0), BuildingBlock: AJUNOK_clean_linker_0, # of connection points: 2
#     Edge 25, Type (0, 0), BuildingBlock: AJUNOK_clean_linker_0, # of connection points: 2
#     Edge 26, Type (0, 0), BuildingBlock: AJUNOK_clean_linker_0, # of connection points: 2
#     Edge 27, Type (0, 0), BuildingBlock: AJUNOK_clean_linker_0, # of connection points: 2
#     Edge 28, Type (0, 0), BuildingBlock: AJUNOK_clean_linker_0, # of connection points: 2
#     Edge 29, Type (0, 0), BuildingBlock: AJUNOK_clean_linker_0, # of connection points: 2
#     Edge 30, Type (0, 0), BuildingBlock: AJUNOK_clean_linker_0, # of connection points: 2
#     Edge 31, Type (0, 0), BuildingBlock: AJUNOK_clean_linker_0, # of connection points: 2
#     Edge 32, Type (0, 0), BuildingBlock: AJUNOK_clean_linker_0, # of connection points: 2
#     Edge 33, Type (0, 0), BuildingBlock: AJUNOK_clean_linker_0, # of connection points: 2
#     Edge 34, Type (0, 0), BuildingBlock: AJUNOK_clean_linker_0, # of connection points: 2
#     Edge 35, Type (0, 0), BuildingBlock: AJUNOK_clean_linker_0, # of connection points: 2
# Relax obj value: 0.372
# Max RMSD: 0.262
# Mean RMSD: 0.262
data_MOF--net-uku--node1-CEKHIL_clean_sbu_0--edge1-AJUNOK_clean_linker_0
_symmetry_space_group_name_H-M    P1
_symmetry_Int_Tables_number       1
_symmetry_cell_setting            triclinic
loop_
_symmetry_equiv_pos_as_xyz
'x, y, z'
_cell_length_a     30.342817
_cell_length_b     30.307952
_cell_length_c     30.405513
_cell_angle_alpha  90.103522
_cell_angle_beta   90.078887
_cell_angle_gamma 90.124337
loop_
_atom_site_label
_atom_site_type_symbol
_atom_site_fract_x
_atom_site_fract_y
_atom_site_fract_z
_atom_type_partial_charge
Co0 Co 0.05538 0.18413 0.64743 0.0
O1 O 0.00172 0.20143 0.61788 0.0
O2 O 0.05778 0.1659 0.5872 0.0
C3 C 0.0692 0.24824 0.6828 0.0
O4 O 0.11563 0.1614 0.665 0.0
Co5 Co 0.06425 0.1816 0.74923 0.0
O6 O 0.12809 0.17354 0.73685 0.0
C7 C 0.01826 0.10908 0.70249 0.0
C8 C 0.01893 0.18334 0.58312 0.0
C9 C 0.14101 0.16188 0.69873 0.0
O10 O 0.02825 0.12593 0.66494 0.0
O11 O 0.0269 0.12787 0.73927 0.0
O12 O 0.0803 0.24356 0.64176 0.0
O13 O 0.04635 0.21636 0.69913 0.0
Co14 Co 0.94545 0.83752 0.67381 0.0
O15 O -0.00026 0.82565 0.64293 0.0
O16 O 0.93716 0.84797 0.61239 0.0
C17 C 0.94347 0.77671 0.71623 0.0
O18 O 0.88316 0.85185 0.69281 0.0
Co19 Co 0.94088 0.85055 0.77519 0.0
O20 O 0.87637 0.84397 0.76595 0.0
C21 C 0.96782 0.92501 0.71805 0.0
C22 C 0.978 0.83617 0.60759 0.0
C23 C 0.85985 0.84956 0.72786 0.0
O24 O 0.96301 0.90108 0.68333 0.0
O25 O 0.96308 0.91015 0.75716 0.0
O26 O 0.93085 0.77469 0.67541 0.0
O27 O 0.96178 0.81336 0.72798 0.0
Co28 Co 0.06469 0.82269 0.35886 0.0
O29 O 0.02174 0.8041 0.40082 0.0
O30 O 0.08356 0.83982 0.41718 0.0
C31 C 0.06809 0.75958 0.31949 0.0
O32 O 0.11633 0.8468 0.32394 0.0
Co33 Co 0.0372 0.82608 0.25946 0.0
O34 O 0.09902 0.84571 0.25167 0.0
C35 C 0.01679 0.9011 0.31846 0.0
C36 C 0.04673 0.82223 0.43044 0.0
C37 C 0.12538 0.85407 0.28331 0.0
O38 O 0.03418 0.88149 0.3517 0.0
O39 O 0.01265 0.88343 0.28041 0.0
O40 O 0.09055 0.76338 0.35574 0.0
O41 O 0.04066 0.79099 0.31193 0.0
Co42 Co 0.9152 0.16375 0.3412 0.0
O43 O 0.96 0.18947 0.37737 0.0
O44 O 0.9008 0.15471 0.40252 0.0
C45 C 0.90737 0.22048 0.29402 0.0
O46 O 0.8621 0.1339 0.31312 0.0
Co47 Co 0.93709 0.14656 0.24211 0.0
O48 O 0.87527 0.12534 0.2405 0.0
C49 C 0.97033 0.08566 0.30992 0.0
C50 C 0.93768 0.17519 0.41079 0.0
C51 C 0.85084 0.12113 0.27434 0.0
O52 O 0.94808 0.10572 0.33991 0.0
O53 O 0.97379 0.10009 0.27054 0.0
O54 O 0.88689 0.22127 0.33155 0.0
O55 O 0.93519 0.18894 0.28915 0.0
Co56 Co 0.63858 0.04944 0.15787 0.0
O57 O 0.59529 0.01053 0.1821 0.0
O58 O 0.58057 0.07318 0.14742 0.0
C59 C 0.68617 0.05051 0.21495 0.0
O60 O 0.67533 0.09747 0.12889 0.0
Co61 Co 0.73175 0.01019 0.14006 0.0
O62 O 0.74404 0.07083 0.11883 0.0
C63 C 0.65919 0.98837 0.08075 0.0
C64 C 0.5661 0.03763 0.16661 0.0
C65 C 0.71529 0.10128 0.11525 0.0
O66 O 0.63514 0.01746 0.09981 0.0
O67 O 0.69703 0.97663 0.09505 0.0
O68 O 0.65126 0.07535 0.2156 0.0
O69 O 0.68702 0.02188 0.18355 0.0
Co70 Co 0.31454 0.95568 0.15382 0.0
O71 O 0.35124 0.00464 0.17079 0.0
O72 O 0.37488 0.94242 0.14026 0.0
C73 C 0.27355 0.94977 0.21506 0.0
O74 O 0.28669 0.89803 0.1333 0.0
Co75 Co 0.21333 0.9703 0.14377 0.0
O76 O 0.21273 0.90579 0.13316 0.0
C77 C 0.2727 -0.00255 0.07225 0.0
C78 C 0.38396 0.98117 0.15643 0.0
C79 C 0.24744 0.88276 0.12799 0.0
O80 O 0.30595 0.98163 0.09322 0.0
O81 O 0.23387 -0.00073 0.08852 0.0
O82 O 0.31311 0.93352 0.21405 0.0
O83 O 0.26364 0.97503 0.18235 0.0
Co84 Co 0.63355 0.90612 0.81078 0.0
O85 O 0.59999 0.95544 0.79087 0.0
O86 O 0.5712 0.89204 0.81299 0.0
C87 C 0.68495 0.90694 0.75753 0.0
O88 O 0.65931 0.84816 0.83285 0.0
Co89 Co 0.7312 0.92421 0.83917 0.0
O90 O 0.7317 0.85923 0.84679 0.0
C91 C 0.65881 0.94647 0.8992 0.0
C92 C 0.56506 0.93227 0.79922 0.0
C93 C 0.69771 0.83448 0.84459 0.0
O94 O 0.63057 0.92849 0.87323 0.0
O95 O 0.69961 0.95145 0.89 0.0
O96 O 0.64722 0.88775 0.75037 0.0
O97 O 0.68758 0.92923 0.79346 0.0
Co98 Co 0.33499 0.0642 0.80333 0.0
O99 O 0.3599 0.00727 0.78942 0.0
O100 O 0.39686 0.06445 0.81638 0.0
C101 C 0.29555 0.0726 0.74091 0.0
O102 O 0.32235 0.12769 0.82083 0.0
Co103 Co 0.23394 0.07945 0.8113 0.0
O104 O 0.25042 0.14289 0.81181 0.0
C105 C 0.28372 0.04038 0.88583 0.0
C106 C 0.39721 0.02387 0.80246 0.0
C107 C 0.28991 0.15481 0.81982 0.0
O108 O 0.32053 0.04448 0.86511 0.0
O109 O 0.24632 0.04953 0.86857 0.0
O110 O 0.33729 0.08233 0.74142 0.0
O111 O 0.28058 0.05462 0.7762 0.0
Co112 Co 0.15334 0.6496 0.07111 0.0
O113 O 0.174 0.62136 0.01854 0.0
O114 O 0.16097 0.58732 0.08169 0.0
C115 C 0.1993 0.70823 0.06996 0.0
O116 O 0.13286 0.66818 0.13215 0.0
Co117 Co 0.11167 0.74393 0.06516 0.0
O118 O 0.11392 0.74014 0.13008 0.0
C119 C 0.05821 0.66528 0.04288 0.0
C120 C 0.17305 0.58481 0.0407 0.0
C121 C 0.12065 0.70426 0.15078 0.0
O122 O 0.09004 0.63901 0.05256 0.0
O123 O 0.06131 0.70737 0.04358 0.0
O124 O 0.21291 0.67076 0.08564 0.0
O125 O 0.1613 0.70711 0.05112 0.0
Co126 Co 0.19192 0.35211 0.91496 0.0
O127 O 0.21152 0.38264 0.96705 0.0
O128 O 0.17504 0.4131 0.91168 0.0
C129 C 0.25485 0.31491 0.9012 0.0
O130 O 0.16695 0.33239 0.85608 0.0
Co131 Co 0.18718 0.24958 0.9112 0.0
O132 O 0.17665 0.25931 0.84742 0.0
C133 C 0.11682 0.2999 0.95618 0.0
C134 C 0.19339 0.4175 0.95013 0.0
C135 C 0.1655 0.29704 0.83278 0.0
O136 O 0.13407 0.33678 0.9441 0.0
O137 O 0.13501 0.2624 0.94939 0.0
O138 O 0.25079 0.35561 0.88838 0.0
O139 O 0.2232 0.30019 0.92524 0.0
Co140 Co 0.81337 0.61959 0.91485 0.0
O141 O 0.78608 0.57759 0.95291 0.0
O142 O 0.82761 0.56047 0.89557 0.0
C143 C 0.75556 0.66544 0.90593 0.0
O144 O 0.84591 0.65482 0.86822 0.0
Co145 Co 0.82421 0.71592 0.95016 0.0
O146 O 0.84994 0.72575 0.89098 0.0
C147 C 0.88299 0.64654 0.98237 0.0
C148 C 0.80509 0.54727 0.92957 0.0
C149 C 0.85731 0.69537 0.86286 0.0
O150 O 0.86803 0.61981 0.95302 0.0
O151 O 0.86592 0.68434 0.99003 0.0
O152 O 0.75807 0.62953 0.88254 0.0
O153 O 0.78397 0.66838 0.93727 0.0
Co154 Co 0.84274 0.307 0.03266 0.0
O155 O 0.82745 0.33541 0.97788 0.0
O156 O 0.84327 0.36965 0.04065 0.0
C157 C 0.78864 0.25582 0.0329 0.0
O158 O 0.8582 0.29045 0.0955 0.0
Co159 Co 0.86991 0.2082 0.03815 0.0
O160 O 0.85828 0.21656 0.10184 0.0
C161 C 0.9355 0.27563 0.01084 0.0
C162 C 0.83129 0.37213 -0.0003 0.0
C163 C 0.85866 0.25507 0.11861 0.0
O164 O 0.90737 0.30697 0.01626 0.0
O165 O 0.92598 0.23473 0.01567 0.0
O166 O 0.78054 0.2959 0.04574 0.0
O167 O 0.82713 0.24965 0.01605 0.0
C168 C 0.00221 0.18272 0.46029 0.0
C169 C 0.95625 0.17894 0.45553 0.0
C170 C 0.02189 0.18426 0.50178 0.0
C171 C -0.00365 0.1831 0.5402 0.0
H172 H 0.02346 0.18347 0.43168 0.0
H173 H 0.05748 0.18652 0.50373 0.0
S174 S 0.87456 0.1747 0.546 0.0
N175 N 0.88552 0.17449 0.49278 0.0
N176 N 0.92266 0.17877 0.57127 0.0
C177 C 0.95026 0.18034 0.53616 0.0
C178 C 0.93016 0.17779 0.49367 0.0
C179 C 0.98586 0.82302 0.48457 0.0
C180 C 0.03136 0.82551 0.47631 0.0
C181 C 0.96925 0.82701 0.52713 0.0
C182 C -0.00253 0.83288 0.56331 0.0
H183 H 0.96262 0.81856 0.45783 0.0
H184 H 0.93389 0.82495 0.53166 0.0
S185 S 0.11938 0.84141 0.55959 0.0
N186 N 0.10458 0.8346 0.50769 0.0
N187 N 0.07323 0.84108 0.58838 0.0
C188 C 0.04314 0.83513 0.55577 0.0
C189 C 0.06012 0.8318 0.51206 0.0
C190 C 0.46388 0.96643 0.16493 0.0
C191 C 0.42972 -0.00291 0.15967 0.0
C192 C 0.50768 0.98025 0.16862 0.0
C193 C 0.51908 0.02522 0.16622 0.0
H194 H 0.45673 0.93143 0.16658 0.0
H195 H 0.5329 0.95527 0.17229 0.0
S196 S 0.44171 0.11869 0.15235 0.0
N197 N 0.40978 0.07446 0.1527 0.0
N198 N 0.49263 0.10046 0.15835 0.0
C199 C 0.48523 0.05631 0.16091 0.0
C200 C 0.44039 0.04224 0.15802 0.0
C201 C 0.519 -0.00022 0.79589 0.0
C202 C 0.52115 0.95341 0.79756 0.0
C203 C 0.47875 0.02193 0.79759 0.0
C204 C 0.43879 -0.00129 0.80026 0.0
H205 H 0.54877 0.0195 0.79426 0.0
H206 H 0.47905 0.05767 0.79664 0.0
S207 S 0.42576 0.877 0.80414 0.0
N208 N 0.47959 0.88484 0.80144 0.0
N209 N 0.40342 0.92667 0.80359 0.0
C210 C 0.44011 0.95229 0.80095 0.0
C211 C 0.48141 0.92959 0.79992 0.0
C212 C 0.18347 0.49903 0.9508 0.0
C213 C 0.19188 0.45994 0.97408 0.0
C214 C 0.17896 0.53941 0.97267 0.0
C215 C 0.18192 0.54217 0.01879 0.0
H216 H 0.17993 0.49845 0.91534 0.0
H217 H 0.17176 0.56845 0.95325 0.0
S218 S 0.20544 0.44975 0.09502 0.0
N219 N 0.20483 0.42671 0.04577 0.0
N220 N 0.19552 0.50268 0.08697 0.0
C221 C 0.19124 0.50353 0.04249 0.0
C222 C 0.19649 0.4624 0.02011 0.0
C223 C 0.82812 0.46829 0.92027 0.0
C224 C 0.806 0.50087 0.94486 0.0
C225 C 0.83483 0.42579 0.93737 0.0
C226 C 0.82045 0.41498 0.9799 0.0
H227 H 0.84149 0.47599 0.88817 0.0
H228 H 0.85301 0.40193 0.91802 0.0
S229 S 0.75641 0.48592 0.05566 0.0
N230 N 0.76587 0.51732 0.0124 0.0
N231 N 0.77984 0.43812 0.04457 0.0
C232 C 0.79668 0.44636 0.00396 0.0
C233 C 0.78903 0.48916 0.98639 0.0
C234 C 0.22296 0.16392 0.70511 0.0
C235 C 0.18418 0.14056 0.69519 0.0
C236 C 0.26273 0.14142 0.71231 0.0
C237 C 0.26389 0.09501 0.71209 0.0
H238 H 0.22193 0.19931 0.71004 0.0
H239 H 0.29111 0.16012 0.72345 0.0
S240 S 0.17255 0.01976 0.68144 0.0
N241 N 0.15075 0.06958 0.67884 0.0
N242 N 0.22466 0.02713 0.69555 0.0
C243 C 0.22633 0.07188 0.69805 0.0
C244 C 0.18644 0.09478 0.68913 0.0
C245 C 0.73565 0.84737 0.73377 0.0
C246 C 0.72591 0.89268 0.73632 0.0
C247 C 0.77933 0.83291 0.72902 0.0
C248 C 0.81387 0.86354 0.72532 0.0
H249 H 0.71004 0.82312 0.73933 0.0
H250 H 0.78633 0.79788 0.73029 0.0
S251 S 0.80489 0.98526 0.7246 0.0
N252 N 0.75377 0.96767 0.7314 0.0
N253 N 0.83551 0.94046 0.72041 0.0
C254 C 0.80408 0.90865 0.72415 0.0
C255 C 0.76003 0.92329 0.73001 0.0
C256 C 0.19495 0.94509 0.23676 0.0
C257 C 0.23814 0.92893 0.24121 0.0
C258 C 0.15887 0.92082 0.25174 0.0
C259 C 0.16467 0.88007 0.2727 0.0
H260 H 0.18864 0.97567 0.2195 0.0
H261 H 0.12602 0.93355 0.24591 0.0
S262 S 0.27052 0.82546 0.29798 0.0
N263 N 0.2847 0.87099 0.27167 0.0
N264 N 0.21619 0.82624 0.30126 0.0
C265 C 0.20748 0.86493 0.2806 0.0
C266 C 0.24448 0.88928 0.2646 0.0
C267 C 0.72833 0.10228 0.26373 0.0
C268 C 0.7267 0.06273 0.2393 0.0
C269 C 0.76868 0.11966 0.27846 0.0
C270 C 0.80844 0.0986 0.26807 0.0
H271 H 0.69864 0.12119 0.26951 0.0
H272 H 0.76893 0.15099 0.2956 0.0
S273 S 0.82162 0.98962 0.21457 0.0
N274 N 0.76802 -0.00119 0.21363 0.0
N275 N 0.84375 0.03321 0.23869 0.0
C276 C 0.80702 0.05734 0.24729 0.0
C277 C 0.76608 0.03893 0.23356 0.0
C278 C 0.71908 0.18361 0.1074 0.0
C279 C 0.72842 0.14125 0.09106 0.0
C280 C 0.73619 0.22136 0.08664 0.0
C281 C 0.76276 0.2177 0.04882 0.0
H282 H 0.7004 0.18744 0.1375 0.0
H283 H 0.73058 0.25327 0.10169 0.0
S284 S 0.78979 0.11439 0.98913 0.0
N285 N 0.76104 0.09804 0.03218 0.0
N286 N 0.79262 0.16866 -0.00702 0.0
C287 C 0.7694 0.17563 0.03056 0.0
C288 C 0.75242 0.13745 0.05179 0.0
C289 C 0.20407 0.78901 0.05943 0.0
C290 C 0.21911 0.75128 0.08172 0.0
C291 C 0.21475 0.83134 0.0741 0.0
C292 C 0.2415 0.83767 0.11121 0.0
H293 H 0.18229 0.78594 0.03131 0.0
H294 H 0.20114 0.85943 0.05679 0.0
S295 S 0.29143 0.75061 0.18029 0.0
N296 N 0.26366 0.7232 0.14218 0.0
N297 N 0.28452 0.8035 0.16916 0.0
C298 C 0.25878 0.80061 0.13268 0.0
C299 C 0.24745 0.75715 0.11801 0.0
C300 C 0.73171 0.74243 0.91932 0.0
C301 C 0.73128 0.70522 0.89156 0.0
C302 C 0.71835 0.78371 0.90417 0.0
C303 C 0.70294 0.78929 0.86107 0.0
H304 H 0.7448 0.7403 0.95242 0.0
H305 H 0.72184 0.81193 0.92584 0.0
S306 S 0.69041 0.70222 0.77647 0.0
N307 N 0.71099 0.67619 0.81955 0.0
N308 N 0.68436 0.75422 0.79169 0.0
C309 C 0.69906 0.7521 0.83383 0.0
C310 C 0.71348 0.70985 0.849 0.0
C311 C 0.28184 0.23621 0.81186 0.0
C312 C 0.29664 0.19987 0.83637 0.0
C313 C 0.27574 0.27748 0.832 0.0
C314 C 0.28205 0.2826 0.87757 0.0
H315 H 0.27194 0.23192 0.77787 0.0
H316 H 0.26067 0.30365 0.81302 0.0
S317 S 0.32699 0.19924 0.9543 0.0
N318 N 0.32402 0.17336 0.90653 0.0
N319 N 0.30953 0.24999 0.94503 0.0
C320 C 0.30106 0.24775 0.90118 0.0
C321 C 0.30886 0.20637 0.88039 0.0
C322 C 0.05045 0.72186 0.24973 0.0
C323 C 0.08175 0.73105 0.28265 0.0
C324 C 0.06351 0.70872 0.20769 0.0
C325 C 0.10824 0.70401 0.19728 0.0
H326 H 0.01581 0.72838 0.25542 0.0
H327 H 0.03864 0.70546 0.18224 0.0
S328 S 0.20282 0.71754 0.27295 0.0
N329 N 0.15928 0.72941 0.30335 0.0
N330 N 0.18365 0.70454 0.2237 0.0
C331 C 0.13968 0.70892 0.23071 0.0
C332 C 0.12642 0.72232 0.27378 0.0
C333 C 0.1406 0.27354 0.71362 0.0
C334 C 0.09432 0.27645 0.71327 0.0
C335 C 0.16461 0.28333 0.75193 0.0
C336 C 0.14312 0.29832 0.79 0.0
H337 H 0.15781 0.25887 0.68606 0.0
H338 H 0.19964 0.27656 0.75265 0.0
S339 S 0.02367 0.31899 0.80304 0.0
N340 N 0.02868 0.29982 0.75237 0.0
N341 N 0.07416 0.32105 0.82333 0.0
C342 C 0.09766 0.30628 0.78825 0.0
C343 C 0.07311 0.29482 0.74994 0.0
C344 C 0.92241 0.73029 0.82881 0.0
C345 C 0.88226 0.70789 0.82349 0.0
C346 C 0.94395 0.74912 0.79285 0.0
C347 C 0.92575 0.74684 0.75033 0.0
H348 H 0.93646 0.73468 0.86132 0.0
H349 H 0.97391 0.76772 0.79887 0.0
S350 S 0.82189 0.68972 0.7192 0.0
N351 N 0.82604 0.68203 0.77282 0.0
N352 N 0.86605 0.71819 0.70475 0.0
C353 C 0.88669 0.72232 0.74422 0.0
C354 C 0.86495 0.70273 0.78103 0.0
C355 C 0.92317 0.25695 0.22346 0.0
C356 C 0.89168 0.24375 0.25467 0.0
C357 C 0.91124 0.26459 0.17969 0.0
C358 C 0.86758 0.25851 0.16578 0.0
H359 H 0.9578 0.2581 0.2322 0.0
H360 H 0.93685 0.27187 0.15596 0.0
S361 S 0.77181 0.22995 0.23523 0.0
N362 N 0.8141 0.23005 0.26959 0.0
N363 N 0.79204 0.24305 0.18655 0.0
C364 C 0.83521 0.24866 0.19704 0.0
C365 C 0.84717 0.24179 0.2419 0.0
C366 C 0.01123 0.03291 0.6712 0.0
C367 C 0.00012 0.06373 0.70405 0.0
C368 C 0.00012 0.98814 0.67549 0.0
C369 C 0.97767 0.97261 0.71287 0.0
H370 H 0.03025 0.04304 0.64281 0.0
H371 H 0.01038 0.96536 0.65 0.0
S372 S 0.93512 0.04114 0.80489 0.0
N373 N 0.96128 0.07638 0.77282 0.0
N374 N 0.94035 -0.00745 0.78091 0.0
C375 C 0.96441 0.00354 0.74483 0.0
C376 C 0.97562 0.04899 0.74041 0.0
C377 C 0.01275 0.02025 0.28487 0.0
C378 C 0.98804 0.04075 0.31831 0.0
C379 C 0.02204 0.97532 0.28608 0.0
C380 C 0.0079 0.94879 0.32114 0.0
H381 H 0.02356 0.03855 0.25626 0.0
H382 H 0.04009 0.96107 0.2588 0.0
S383 S 0.94805 0.98643 0.42032 0.0
N384 N 0.95324 0.03134 0.38999 0.0
N385 N 0.97237 0.9464 0.39255 0.0
C386 C 0.98628 0.96897 0.35659 0.0
C387 C 0.976 0.01507 0.35513 0.0
C388 C 0.63484 -0.00389 0.9598 0.0
C389 C 0.64653 0.95389 0.94507 0.0
C390 C 0.63447 0.00588 0.00491 0.0
C391 C 0.64697 0.97396 0.03617 0.0
H392 H 0.62869 0.02227 0.93636 0.0
H393 H 0.62811 0.03957 0.01504 0.0
S394 S 0.67544 0.85735 0.01365 0.0
N395 N 0.66627 0.87891 0.96463 0.0
N396 N 0.66707 0.89761 0.04938 0.0
C397 C 0.65582 0.93094 0.02174 0.0
C398 C 0.65529 0.92084 0.97606 0.0
C399 C 0.24003 0.00981 -0.00174 0.0
C400 C 0.27772 0.00951 0.02524 0.0
C401 C 0.24288 0.0183 0.95332 0.0
C402 C 0.28354 0.02733 0.93295 0.0
H403 H 0.20773 0.00274 0.01172 0.0
H404 H 0.21252 0.01801 0.93454 0.0
S405 S 0.39245 0.03125 0.98886 0.0
N406 N 0.3573 0.019 0.02845 0.0
N407 N 0.36272 0.03574 0.94355 0.0
C408 C 0.32176 0.02702 0.95938 0.0
C409 C 0.31883 0.01801 0.00552 0.0
C410 C 0.93531 0.65829 0.04403 0.0
C411 C 0.92585 0.63746 0.00374 0.0
C412 C 0.97871 0.66337 0.05852 0.0
C413 C 0.01415 0.64743 0.03354 0.0
H414 H 0.9093 0.67387 0.06282 0.0
H415 H 0.98478 0.68267 0.08797 0.0
S416 S 0.0071 0.58401 0.92971 0.0
N417 N 0.95535 0.59564 0.94194 0.0
N418 N 0.03728 0.60516 0.96986 0.0
C419 C 0.00519 0.62243 -0.00424 0.0
C420 C 0.96079 0.61731 0.98073 0.0
C421 C 0.05895 0.26249 0.00038 0.0
C422 C 0.07195 0.29925 0.97541 0.0
C423 C 0.01505 0.25616 0.01251 0.0
C424 C 0.98202 0.28632 0.00032 0.0
H425 H 0.0827 0.23748 0.00957 0.0
H426 H 0.00689 0.22674 0.03102 0.0
S427 S -0.0011 0.38963 0.93726 0.0
N428 N 0.04856 0.36765 0.94068 0.0
N429 N 0.96566 0.35578 0.96395 0.0
C430 C -0.00528 0.32449 0.9773 0.0
C431 C 0.03976 0.33096 0.96476 0.0
loop_
_geom_bond_atom_site_label_1
_geom_bond_atom_site_label_2
_geom_bond_distance
_geom_bond_site_symmetry_2
_ccdc_geom_bond_type
Co0 O1 2.216 . S
Co0 O2 2.091 . S
Co0 O4 2.004 . S
Co0 O10 2.021 . S
Co0 O12 2.137 . S
Co0 O13 2.244 . S
O1 Co0 2.216 . S
O1 C8 1.247 . S
O2 Co0 2.091 . S
O2 C8 1.261 . S
C3 O12 1.247 . S
C3 O13 1.272 . S
O4 Co0 2.004 . S
O4 C9 1.259 . S
Co5 O6 2.061 . S
Co5 O11 2.052 . S
Co5 O13 2.135 . S
O6 Co5 2.061 . S
O6 C9 1.235 . S
C7 O10 1.238 . S
C7 O11 1.241 . S
C8 O1 1.247 . S
C8 O2 1.261 . S
C9 O4 1.259 . S
C9 O6 1.235 . S
O10 Co0 2.021 . S
O10 C7 1.238 . S
O11 Co5 2.052 . S
O11 C7 1.241 . S
O12 Co0 2.137 . S
O12 C3 1.247 . S
O13 Co0 2.244 . S
O13 C3 1.272 . S
O13 Co5 2.135 . S
Co14 O15 2.216 . S
Co14 O16 2.091 . S
Co14 O18 2.004 . S
Co14 O24 2.021 . S
Co14 O26 2.137 . S
Co14 O27 2.244 . S
O15 Co14 2.216 . S
O15 C22 1.247 . S
O16 Co14 2.091 . S
O16 C22 1.261 . S
C17 O26 1.247 . S
C17 O27 1.272 . S
O18 Co14 2.004 . S
O18 C23 1.259 . S
Co19 O20 2.061 . S
Co19 O25 2.052 . S
Co19 O27 2.135 . S
O20 Co19 2.061 . S
O20 C23 1.235 . S
C21 O24 1.238 . S
C21 O25 1.241 . S
C22 O15 1.247 . S
C22 O16 1.261 . S
C23 O18 1.259 . S
C23 O20 1.235 . S
O24 Co14 2.021 . S
O24 C21 1.238 . S
O25 Co19 2.052 . S
O25 C21 1.241 . S
O26 Co14 2.137 . S
O26 C17 1.247 . S
O27 Co14 2.244 . S
O27 C17 1.272 . S
O27 Co19 2.135 . S
Co28 O29 2.216 . S
Co28 O30 2.091 . S
Co28 O32 2.004 . S
Co28 O38 2.021 . S
Co28 O40 2.137 . S
Co28 O41 2.244 . S
O29 Co28 2.216 . S
O29 C36 1.247 . S
O30 Co28 2.091 . S
O30 C36 1.261 . S
C31 O40 1.247 . S
C31 O41 1.272 . S
O32 Co28 2.004 . S
O32 C37 1.259 . S
Co33 O34 2.061 . S
Co33 O39 2.052 . S
Co33 O41 2.135 . S
O34 Co33 2.061 . S
O34 C37 1.235 . S
C35 O38 1.238 . S
C35 O39 1.241 . S
C36 O29 1.247 . S
C36 O30 1.261 . S
C37 O32 1.259 . S
C37 O34 1.235 . S
O38 Co28 2.021 . S
O38 C35 1.238 . S
O39 Co33 2.052 . S
O39 C35 1.241 . S
O40 Co28 2.137 . S
O40 C31 1.247 . S
O41 Co28 2.244 . S
O41 C31 1.272 . S
O41 Co33 2.135 . S
Co42 O43 2.216 . S
Co42 O44 2.091 . S
Co42 O46 2.004 . S
Co42 O52 2.021 . S
Co42 O54 2.137 . S
Co42 O55 2.244 . S
O43 Co42 2.216 . S
O43 C50 1.247 . S
O44 Co42 2.091 . S
O44 C50 1.261 . S
C45 O54 1.247 . S
C45 O55 1.272 . S
O46 Co42 2.004 . S
O46 C51 1.259 . S
Co47 O48 2.061 . S
Co47 O53 2.052 . S
Co47 O55 2.135 . S
O48 Co47 2.061 . S
O48 C51 1.235 . S
C49 O52 1.238 . S
C49 O53 1.241 . S
C50 O43 1.247 . S
C50 O44 1.261 . S
C51 O46 1.259 . S
C51 O48 1.235 . S
O52 Co42 2.021 . S
O52 C49 1.238 . S
O53 Co47 2.052 . S
O53 C49 1.241 . S
O54 Co42 2.137 . S
O54 C45 1.247 . S
O55 Co42 2.244 . S
O55 C45 1.272 . S
O55 Co47 2.135 . S
Co56 O57 2.216 . S
Co56 O58 2.091 . S
Co56 O60 2.004 . S
Co56 O66 2.021 . S
Co56 O68 2.137 . S
Co56 O69 2.244 . S
O57 Co56 2.216 . S
O57 C64 1.247 . S
O58 Co56 2.091 . S
O58 C64 1.261 . S
C59 O68 1.247 . S
C59 O69 1.272 . S
O60 Co56 2.004 . S
O60 C65 1.259 . S
Co61 O62 2.061 . S
Co61 O67 2.052 . S
Co61 O69 2.135 . S
O62 Co61 2.061 . S
O62 C65 1.235 . S
C63 O66 1.238 . S
C63 O67 1.241 . S
C64 O57 1.247 . S
C64 O58 1.261 . S
C65 O60 1.259 . S
C65 O62 1.235 . S
O66 Co56 2.021 . S
O66 C63 1.238 . S
O67 Co61 2.052 . S
O67 C63 1.241 . S
O68 Co56 2.137 . S
O68 C59 1.247 . S
O69 Co56 2.244 . S
O69 C59 1.272 . S
O69 Co61 2.135 . S
Co70 O71 2.216 . S
Co70 O72 2.091 . S
Co70 O74 2.004 . S
Co70 O80 2.021 . S
Co70 O82 2.137 . S
Co70 O83 2.244 . S
O71 Co70 2.216 . S
O71 C78 1.247 . S
O72 Co70 2.091 . S
O72 C78 1.261 . S
C73 O82 1.247 . S
C73 O83 1.272 . S
O74 Co70 2.004 . S
O74 C79 1.259 . S
Co75 O76 2.061 . S
Co75 O81 2.052 . S
Co75 O83 2.135 . S
O76 Co75 2.061 . S
O76 C79 1.235 . S
C77 O80 1.238 . S
C77 O81 1.241 . S
C78 O71 1.247 . S
C78 O72 1.261 . S
C79 O74 1.259 . S
C79 O76 1.235 . S
O80 Co70 2.021 . S
O80 C77 1.238 . S
O81 Co75 2.052 . S
O81 C77 1.241 . S
O82 Co70 2.137 . S
O82 C73 1.247 . S
O83 Co70 2.244 . S
O83 C73 1.272 . S
O83 Co75 2.135 . S
Co84 O85 2.216 . S
Co84 O86 2.091 . S
Co84 O88 2.004 . S
Co84 O94 2.021 . S
Co84 O96 2.137 . S
Co84 O97 2.244 . S
O85 Co84 2.216 . S
O85 C92 1.247 . S
O86 Co84 2.091 . S
O86 C92 1.261 . S
C87 O96 1.247 . S
C87 O97 1.272 . S
O88 Co84 2.004 . S
O88 C93 1.259 . S
Co89 O90 2.061 . S
Co89 O95 2.052 . S
Co89 O97 2.135 . S
O90 Co89 2.061 . S
O90 C93 1.235 . S
C91 O94 1.238 . S
C91 O95 1.241 . S
C92 O85 1.247 . S
C92 O86 1.261 . S
C93 O88 1.259 . S
C93 O90 1.235 . S
O94 Co84 2.021 . S
O94 C91 1.238 . S
O95 Co89 2.052 . S
O95 C91 1.241 . S
O96 Co84 2.137 . S
O96 C87 1.247 . S
O97 Co84 2.244 . S
O97 C87 1.272 . S
O97 Co89 2.135 . S
Co98 O99 2.216 . S
Co98 O100 2.091 . S
Co98 O102 2.004 . S
Co98 O108 2.021 . S
Co98 O110 2.137 . S
Co98 O111 2.244 . S
O99 Co98 2.216 . S
O99 C106 1.247 . S
O100 Co98 2.091 . S
O100 C106 1.261 . S
C101 O110 1.247 . S
C101 O111 1.272 . S
O102 Co98 2.004 . S
O102 C107 1.259 . S
Co103 O104 2.061 . S
Co103 O109 2.052 . S
Co103 O111 2.135 . S
O104 Co103 2.061 . S
O104 C107 1.235 . S
C105 O108 1.238 . S
C105 O109 1.241 . S
C106 O99 1.247 . S
C106 O100 1.261 . S
C107 O102 1.259 . S
C107 O104 1.235 . S
O108 Co98 2.021 . S
O108 C105 1.238 . S
O109 Co103 2.052 . S
O109 C105 1.241 . S
O110 Co98 2.137 . S
O110 C101 1.247 . S
O111 Co98 2.244 . S
O111 C101 1.272 . S
O111 Co103 2.135 . S
Co112 O113 2.216 . S
Co112 O114 2.091 . S
Co112 O116 2.004 . S
Co112 O122 2.021 . S
Co112 O124 2.137 . S
Co112 O125 2.244 . S
O113 Co112 2.216 . S
O113 C120 1.247 . S
O114 Co112 2.091 . S
O114 C120 1.261 . S
C115 O124 1.247 . S
C115 O125 1.272 . S
O116 Co112 2.004 . S
O116 C121 1.259 . S
Co117 O118 2.061 . S
Co117 O123 2.052 . S
Co117 O125 2.135 . S
O118 Co117 2.061 . S
O118 C121 1.235 . S
C119 O122 1.238 . S
C119 O123 1.241 . S
C120 O113 1.247 . S
C120 O114 1.261 . S
C121 O116 1.259 . S
C121 O118 1.235 . S
O122 Co112 2.021 . S
O122 C119 1.238 . S
O123 Co117 2.052 . S
O123 C119 1.241 . S
O124 Co112 2.137 . S
O124 C115 1.247 . S
O125 Co112 2.244 . S
O125 C115 1.272 . S
O125 Co117 2.135 . S
Co126 O127 2.216 . S
Co126 O128 2.091 . S
Co126 O130 2.004 . S
Co126 O136 2.021 . S
Co126 O138 2.137 . S
Co126 O139 2.244 . S
O127 Co126 2.216 . S
O127 C134 1.247 . S
O128 Co126 2.091 . S
O128 C134 1.261 . S
C129 O138 1.247 . S
C129 O139 1.272 . S
O130 Co126 2.004 . S
O130 C135 1.259 . S
Co131 O132 2.061 . S
Co131 O137 2.052 . S
Co131 O139 2.135 . S
O132 Co131 2.061 . S
O132 C135 1.235 . S
C133 O136 1.238 . S
C133 O137 1.241 . S
C134 O127 1.247 . S
C134 O128 1.261 . S
C135 O130 1.259 . S
C135 O132 1.235 . S
O136 Co126 2.021 . S
O136 C133 1.238 . S
O137 Co131 2.052 . S
O137 C133 1.241 . S
O138 Co126 2.137 . S
O138 C129 1.247 . S
O139 Co126 2.244 . S
O139 C129 1.272 . S
O139 Co131 2.135 . S
Co140 O141 2.216 . S
Co140 O142 2.091 . S
Co140 O144 2.004 . S
Co140 O150 2.021 . S
Co140 O152 2.137 . S
Co140 O153 2.244 . S
O141 Co140 2.216 . S
O141 C148 1.247 . S
O142 Co140 2.091 . S
O142 C148 1.261 . S
C143 O152 1.247 . S
C143 O153 1.272 . S
O144 Co140 2.004 . S
O144 C149 1.259 . S
Co145 O146 2.061 . S
Co145 O151 2.052 . S
Co145 O153 2.135 . S
O146 Co145 2.061 . S
O146 C149 1.235 . S
C147 O150 1.238 . S
C147 O151 1.241 . S
C148 O141 1.247 . S
C148 O142 1.261 . S
C149 O144 1.259 . S
C149 O146 1.235 . S
O150 Co140 2.021 . S
O150 C147 1.238 . S
O151 Co145 2.052 . S
O151 C147 1.241 . S
O152 Co140 2.137 . S
O152 C143 1.247 . S
O153 Co140 2.244 . S
O153 C143 1.272 . S
O153 Co145 2.135 . S
Co154 O155 2.216 . S
Co154 O156 2.091 . S
Co154 O158 2.004 . S
Co154 O164 2.021 . S
Co154 O166 2.137 . S
Co154 O167 2.244 . S
O155 Co154 2.216 . S
O155 C162 1.247 . S
O156 Co154 2.091 . S
O156 C162 1.261 . S
C157 O166 1.247 . S
C157 O167 1.272 . S
O158 Co154 2.004 . S
O158 C163 1.259 . S
Co159 O160 2.061 . S
Co159 O165 2.052 . S
Co159 O167 2.135 . S
O160 Co159 2.061 . S
O160 C163 1.235 . S
C161 O164 1.238 . S
C161 O165 1.241 . S
C162 O155 1.247 . S
C162 O156 1.261 . S
C163 O158 1.259 . S
C163 O160 1.235 . S
O164 Co154 2.021 . S
O164 C161 1.238 . S
O165 Co159 2.052 . S
O165 C161 1.241 . S
O166 Co154 2.137 . S
O166 C157 1.247 . S
O167 Co154 2.244 . S
O167 C157 1.272 . S
O167 Co159 2.135 . S
C168 C169 1.369 1_455 S
C168 C170 1.419 . S
C168 H172 0.930 . S
C169 C168 1.369 1_655 S
C169 C178 1.429 . S
C170 C168 1.419 . S
C170 C171 1.363 . S
C170 H173 0.929 . S
C171 C170 1.363 . S
C171 C177 1.428 1_455 S
H172 C168 0.930 . S
H173 C170 0.929 . S
S174 N175 1.613 . S
S174 N176 1.610 . S
N175 S174 1.613 . S
N175 C178 1.350 . S
N176 S174 1.610 . S
N176 C177 1.351 . S
C177 C171 1.428 1_655 S
C177 N176 1.351 . S
C177 C178 1.434 . S
C178 C169 1.429 . S
C178 N175 1.350 . S
C178 C177 1.434 . S
C179 C180 1.369 1_655 S
C179 C181 1.419 . S
C179 H183 0.930 . S
C180 C179 1.369 1_455 S
C180 C189 1.429 . S
C181 C179 1.419 . S
C181 C182 1.363 . S
C181 H184 0.929 . S
C182 C181 1.363 . S
C182 C188 1.428 1_655 S
H183 C179 0.930 . S
H184 C181 0.929 . S
S185 N186 1.613 . S
S185 N187 1.610 . S
N186 S185 1.613 . S
N186 C189 1.350 . S
N187 S185 1.610 . S
N187 C188 1.351 . S
C188 C182 1.428 1_455 S
C188 N187 1.351 . S
C188 C189 1.434 . S
C189 C180 1.429 . S
C189 N186 1.350 . S
C189 C188 1.434 . S
C190 C191 1.369 . S
C190 C192 1.427 . S
C190 H194 0.930 . S
C191 C190 1.369 . S
C191 C200 1.429 1_565 S
C192 C190 1.427 . S
C192 C193 1.353 1_565 S
C192 H195 0.930 . S
C193 C192 1.353 1_545 S
C193 C199 1.428 . S
H194 C190 0.930 . S
H195 C192 0.930 . S
S196 N197 1.613 . S
S196 N198 1.610 . S
N197 S196 1.613 . S
N197 C200 1.350 . S
N198 S196 1.610 . S
N198 C199 1.351 . S
C199 C193 1.428 . S
C199 N198 1.351 . S
C199 C200 1.434 . S
C200 C191 1.429 1_545 S
C200 N197 1.350 . S
C200 C199 1.434 . S
C201 C202 1.369 1_545 S
C201 C203 1.419 . S
C201 H205 0.930 . S
C202 C201 1.369 1_565 S
C202 C211 1.429 . S
C203 C201 1.419 . S
C203 C204 1.363 . S
C203 H206 0.929 . S
C204 C203 1.363 . S
C204 C210 1.428 1_545 S
H205 C201 0.930 . S
H206 C203 0.929 . S
S207 N208 1.613 . S
S207 N209 1.610 . S
N208 S207 1.613 . S
N208 C211 1.350 . S
N209 S207 1.610 . S
N209 C210 1.351 . S
C210 C204 1.428 1_565 S
C210 N209 1.351 . S
C210 C211 1.434 . S
C211 C202 1.429 . S
C211 N208 1.350 . S
C211 C210 1.434 . S
C212 C213 1.369 . S
C212 C214 1.419 . S
C212 H216 0.930 . S
C213 C212 1.369 . S
C213 C222 1.429 1_556 S
C214 C212 1.419 . S
C214 C215 1.363 1_556 S
C214 H217 0.929 . S
C215 C214 1.363 1_554 S
C215 C221 1.428 . S
H216 C212 0.930 . S
H217 C214 0.929 . S
S218 N219 1.613 . S
S218 N220 1.610 . S
N219 S218 1.613 . S
N219 C222 1.350 . S
N220 S218 1.610 . S
N220 C221 1.351 . S
C221 C215 1.428 . S
C221 N220 1.351 . S
C221 C222 1.434 . S
C222 C213 1.429 1_554 S
C222 N219 1.350 . S
C222 C221 1.434 . S
C223 C224 1.369 . S
C223 C225 1.419 1_556 S
C223 H227 0.930 . S
C224 C223 1.369 . S
C224 C233 1.429 . S
C225 C223 1.419 1_554 S
C225 C226 1.363 . S
C225 H228 0.929 . S
C226 C225 1.363 . S
C226 C232 1.428 . S
H227 C223 0.930 . S
H228 C225 0.929 . S
S229 N230 1.613 1_554 S
S229 N231 1.610 . S
N230 S229 1.613 1_556 S
N230 C233 1.350 . S
N231 S229 1.610 . S
N231 C232 1.351 . S
C232 C226 1.428 . S
C232 N231 1.351 . S
C232 C233 1.434 1_554 S
C233 C224 1.429 . S
C233 N230 1.350 . S
C233 C232 1.434 1_556 S
C234 C235 1.369 . S
C234 C236 1.419 . S
C234 H238 0.930 . S
C235 C234 1.369 . S
C235 C244 1.429 . S
C236 C234 1.419 . S
C236 C237 1.363 . S
C236 H239 0.929 . S
C237 C236 1.363 . S
C237 C243 1.428 . S
H238 C234 0.930 . S
H239 C236 0.929 . S
S240 N241 1.613 1_565 S
S240 N242 1.610 1_565 S
N241 S240 1.613 1_545 S
N241 C244 1.350 . S
N242 S240 1.610 1_545 S
N242 C243 1.351 . S
C243 C237 1.428 . S
C243 N242 1.351 . S
C243 C244 1.434 . S
C244 C235 1.429 . S
C244 N241 1.350 . S
C244 C243 1.434 . S
C245 C246 1.369 . S
C245 C247 1.419 . S
C245 H249 0.930 . S
C246 C245 1.369 . S
C246 C255 1.429 . S
C247 C245 1.419 . S
C247 C248 1.363 . S
C247 H250 0.929 . S
C248 C247 1.363 . S
C248 C254 1.428 . S
H249 C245 0.930 . S
H250 C247 0.929 . S
S251 N252 1.613 . S
S251 N253 1.610 . S
N252 S251 1.613 . S
N252 C255 1.350 . S
N253 S251 1.610 . S
N253 C254 1.351 . S
C254 C248 1.428 . S
C254 N253 1.351 . S
C254 C255 1.434 . S
C255 C246 1.429 . S
C255 N252 1.350 . S
C255 C254 1.434 . S
C256 C257 1.369 . S
C256 C258 1.419 . S
C256 H260 0.930 . S
C257 C256 1.369 . S
C257 C266 1.429 . S
C258 C256 1.419 . S
C258 C259 1.363 . S
C258 H261 0.929 . S
C259 C258 1.363 . S
C259 C265 1.428 . S
H260 C256 0.930 . S
H261 C258 0.929 . S
S262 N263 1.613 . S
S262 N264 1.610 . S
N263 S262 1.613 . S
N263 C266 1.350 . S
N264 S262 1.610 . S
N264 C265 1.351 . S
C265 C259 1.428 . S
C265 N264 1.351 . S
C265 C266 1.434 . S
C266 C257 1.429 . S
C266 N263 1.350 . S
C266 C265 1.434 . S
C267 C268 1.369 . S
C267 C269 1.419 . S
C267 H271 0.930 . S
C268 C267 1.369 . S
C268 C277 1.429 . S
C269 C267 1.419 . S
C269 C270 1.363 . S
C269 H272 0.929 . S
C270 C269 1.363 . S
C270 C276 1.428 . S
H271 C267 0.930 . S
H272 C269 0.929 . S
S273 N274 1.613 . S
S273 N275 1.610 . S
N274 S273 1.613 . S
N274 C277 1.350 . S
N275 S273 1.610 . S
N275 C276 1.351 . S
C276 C270 1.428 . S
C276 N275 1.351 . S
C276 C277 1.434 . S
C277 C268 1.429 . S
C277 N274 1.350 . S
C277 C276 1.434 . S
C278 C279 1.369 . S
C278 C280 1.419 . S
C278 H282 0.930 . S
C279 C278 1.369 . S
C279 C288 1.429 . S
C280 C278 1.419 . S
C280 C281 1.363 . S
C280 H283 0.929 . S
C281 C280 1.363 . S
C281 C287 1.428 . S
H282 C278 0.930 . S
H283 C280 0.929 . S
S284 N285 1.613 . S
S284 N286 1.610 . S
N285 S284 1.613 . S
N285 C288 1.350 . S
N286 S284 1.610 . S
N286 C287 1.351 . S
C287 C281 1.428 . S
C287 N286 1.351 . S
C287 C288 1.434 . S
C288 C279 1.429 . S
C288 N285 1.350 . S
C288 C287 1.434 . S
C289 C290 1.369 . S
C289 C291 1.419 . S
C289 H293 0.930 . S
C290 C289 1.369 . S
C290 C299 1.429 . S
C291 C289 1.419 . S
C291 C292 1.363 . S
C291 H294 0.929 . S
C292 C291 1.363 . S
C292 C298 1.428 . S
H293 C289 0.930 . S
H294 C291 0.929 . S
S295 N296 1.613 . S
S295 N297 1.610 . S
N296 S295 1.613 . S
N296 C299 1.350 . S
N297 S295 1.610 . S
N297 C298 1.351 . S
C298 C292 1.428 . S
C298 N297 1.351 . S
C298 C299 1.434 . S
C299 C290 1.429 . S
C299 N296 1.350 . S
C299 C298 1.434 . S
C300 C301 1.369 . S
C300 C302 1.419 . S
C300 H304 0.930 . S
C301 C300 1.369 . S
C301 C310 1.429 . S
C302 C300 1.419 . S
C302 C303 1.363 . S
C302 H305 0.929 . S
C303 C302 1.363 . S
C303 C309 1.428 . S
H304 C300 0.930 . S
H305 C302 0.929 . S
S306 N307 1.613 . S
S306 N308 1.610 . S
N307 S306 1.613 . S
N307 C310 1.350 . S
N308 S306 1.610 . S
N308 C309 1.351 . S
C309 C303 1.428 . S
C309 N308 1.351 . S
C309 C310 1.434 . S
C310 C301 1.429 . S
C310 N307 1.350 . S
C310 C309 1.434 . S
C311 C312 1.369 . S
C311 C313 1.419 . S
C311 H315 0.930 . S
C312 C311 1.369 . S
C312 C321 1.429 . S
C313 C311 1.419 . S
C313 C314 1.363 . S
C313 H316 0.929 . S
C314 C313 1.363 . S
C314 C320 1.428 . S
H315 C311 0.930 . S
H316 C313 0.929 . S
S317 N318 1.613 1_554 S
S317 N319 1.610 1_554 S
N318 S317 1.613 1_556 S
N318 C321 1.350 . S
N319 S317 1.610 1_556 S
N319 C320 1.351 . S
C320 C314 1.428 . S
C320 N319 1.351 . S
C320 C321 1.434 . S
C321 C312 1.429 . S
C321 N318 1.350 . S
C321 C320 1.434 . S
C322 C323 1.369 . S
C322 C324 1.419 . S
C322 H326 0.930 . S
C323 C322 1.369 . S
C323 C332 1.429 . S
C324 C322 1.419 . S
C324 C325 1.363 . S
C324 H327 0.929 . S
C325 C324 1.363 . S
C325 C331 1.428 . S
H326 C322 0.930 . S
H327 C324 0.929 . S
S328 N329 1.613 . S
S328 N330 1.610 . S
N329 S328 1.613 . S
N329 C332 1.350 . S
N330 S328 1.610 . S
N330 C331 1.351 . S
C331 C325 1.428 . S
C331 N330 1.351 . S
C331 C332 1.434 . S
C332 C323 1.429 . S
C332 N329 1.350 . S
C332 C331 1.434 . S
C333 C334 1.369 . S
C333 C335 1.419 . S
C333 H337 0.930 . S
C334 C333 1.369 . S
C334 C343 1.429 . S
C335 C333 1.419 . S
C335 C336 1.363 . S
C335 H338 0.929 . S
C336 C335 1.363 . S
C336 C342 1.428 . S
H337 C333 0.930 . S
H338 C335 0.929 . S
S339 N340 1.619 . S
S339 N341 1.632 . S
N340 S339 1.619 . S
N340 C343 1.350 . S
N341 S339 1.632 . S
N341 C342 1.351 . S
C342 C336 1.428 . S
C342 N341 1.351 . S
C342 C343 1.434 . S
C343 C334 1.429 . S
C343 N340 1.350 . S
C343 C342 1.434 . S
C344 C345 1.369 . S
C344 C346 1.419 . S
C344 H348 0.930 . S
C345 C344 1.369 . S
C345 C354 1.429 . S
C346 C344 1.419 . S
C346 C347 1.363 . S
C346 H349 0.929 . S
C347 C346 1.363 . S
C347 C353 1.428 . S
H348 C344 0.930 . S
H349 C346 0.929 . S
S350 N351 1.613 . S
S350 N352 1.610 . S
N351 S350 1.613 . S
N351 C354 1.350 . S
N352 S350 1.610 . S
N352 C353 1.351 . S
C353 C347 1.428 . S
C353 N352 1.351 . S
C353 C354 1.434 . S
C354 C345 1.429 . S
C354 N351 1.350 . S
C354 C353 1.434 . S
C355 C356 1.369 . S
C355 C357 1.419 . S
C355 H359 0.930 . S
C356 C355 1.369 . S
C356 C365 1.429 . S
C357 C355 1.419 . S
C357 C358 1.363 . S
C357 H360 0.929 . S
C358 C357 1.363 . S
C358 C364 1.428 . S
H359 C355 0.930 . S
H360 C357 0.929 . S
S361 N362 1.613 . S
S361 N363 1.610 . S
N362 S361 1.613 . S
N362 C365 1.350 . S
N363 S361 1.610 . S
N363 C364 1.351 . S
C364 C358 1.428 . S
C364 N363 1.351 . S
C364 C365 1.434 . S
C365 C356 1.429 . S
C365 N362 1.350 . S
C365 C364 1.434 . S
C366 C367 1.369 . S
C366 C368 1.419 1_445 S
C366 H370 0.930 . S
C367 C366 1.369 . S
C367 C376 1.429 . S
C368 C366 1.419 1_665 S
C368 C369 1.363 . S
C368 H371 0.929 . S
C369 C368 1.363 . S
C369 C375 1.428 . S
H370 C366 0.930 . S
H371 C368 0.929 . S
S372 N373 1.613 1_655 S
S372 N374 1.610 1_545 S
N373 S372 1.613 1_455 S
N373 C376 1.350 . S
N374 S372 1.610 1_565 S
N374 C375 1.351 . S
C375 C369 1.428 . S
C375 N374 1.351 . S
C375 C376 1.434 1_665 S
C376 C367 1.429 . S
C376 N373 1.350 . S
C376 C375 1.434 1_445 S
C377 C378 1.369 1_455 S
C377 C379 1.419 1_545 S
C377 H381 0.930 . S
C378 C377 1.369 1_655 S
C378 C387 1.429 . S
C379 C377 1.419 1_565 S
C379 C380 1.363 . S
C379 H382 0.929 . S
C380 C379 1.363 . S
C380 C386 1.428 1_455 S
H381 C377 0.930 . S
H382 C379 0.929 . S
S383 N384 1.613 1_565 S
S383 N385 1.610 . S
N384 S383 1.613 1_545 S
N384 C387 1.350 . S
N385 S383 1.610 . S
N385 C386 1.351 . S
C386 C380 1.428 1_655 S
C386 N385 1.351 . S
C386 C387 1.434 1_565 S
C387 C378 1.429 . S
C387 N384 1.350 . S
C387 C386 1.434 1_545 S
C388 C389 1.369 1_545 S
C388 C390 1.419 1_556 S
C388 H392 0.930 . S
C389 C388 1.369 1_565 S
C389 C398 1.429 . S
C390 C388 1.419 1_554 S
C390 C391 1.363 . S
C390 H393 0.929 . S
C391 C390 1.363 . S
C391 C397 1.428 1_545 S
H392 C388 0.930 . S
H393 C390 0.929 . S
S394 N395 1.613 1_554 S
S394 N396 1.610 . S
N395 S394 1.613 1_556 S
N395 C398 1.350 . S
N396 S394 1.610 . S
N396 C397 1.351 . S
C397 C391 1.428 1_565 S
C397 N396 1.351 . S
C397 C398 1.434 1_554 S
C398 C389 1.429 . S
C398 N395 1.350 . S
C398 C397 1.434 1_556 S
C399 C400 1.369 . S
C399 C401 1.419 1_554 S
C399 H403 0.930 . S
C400 C399 1.369 . S
C400 C409 1.429 1_565 S
C401 C399 1.419 1_556 S
C401 C402 1.363 1_565 S
C401 H404 0.929 . S
C402 C401 1.363 1_545 S
C402 C408 1.428 . S
H403 C399 0.930 . S
H404 C401 0.929 . S
S405 N406 1.613 . S
S405 N407 1.610 1_554 S
N406 S405 1.613 . S
N406 C409 1.350 . S
N407 S405 1.610 1_556 S
N407 C408 1.351 . S
C408 C402 1.428 . S
C408 N407 1.351 . S
C408 C409 1.434 1_556 S
C409 C400 1.429 1_545 S
C409 N406 1.350 . S
C409 C408 1.434 1_554 S
C410 C411 1.369 1_554 S
C410 C412 1.419 1_655 S
C410 H414 0.930 . S
C411 C410 1.369 1_556 S
C411 C420 1.429 . S
C412 C410 1.419 1_455 S
C412 C413 1.363 . S
C412 H415 0.929 . S
C413 C412 1.363 . S
C413 C419 1.428 1_554 S
H414 C410 0.930 . S
H415 C412 0.929 . S
S416 N417 1.613 1_455 S
S416 N418 1.610 . S
N417 S416 1.613 1_655 S
N417 C420 1.350 . S
N418 S416 1.610 . S
N418 C419 1.351 . S
C419 C413 1.428 1_556 S
C419 N418 1.351 . S
C419 C420 1.434 1_455 S
C420 C411 1.429 . S
C420 N417 1.350 . S
C420 C419 1.434 1_655 S
C421 C422 1.369 1_554 S
C421 C423 1.419 1_455 S
C421 H425 0.930 . S
C422 C421 1.369 1_556 S
C422 C431 1.429 . S
C423 C421 1.419 1_655 S
C423 C424 1.363 . S
C423 H426 0.929 . S
C424 C423 1.363 . S
C424 C430 1.428 1_554 S
H425 C421 0.930 . S
H426 C423 0.929 . S
S427 N428 1.613 1_655 S
S427 N429 1.610 . S
N428 S427 1.613 1_455 S
N428 C431 1.350 . S
N429 S427 1.610 . S
N429 C430 1.351 . S
C430 C424 1.428 1_556 S
C430 N429 1.351 . S
C430 C431 1.434 1_655 S
C431 C422 1.429 . S
C431 N428 1.350 . S
C431 C430 1.434 1_455 S
C169 C50 1.186 . S
C171 C8 1.183 . S
C180 C36 1.186 . S
C182 C22 1.181 . S
C191 C78 1.178 . S
C193 C64 1.180 . S
C202 C92 1.185 . S
C204 C106 1.179 . S
C213 C134 1.180 . S
C215 C120 1.185 . S
C224 C148 1.182 . S
C226 C162 1.185 . S
C235 C9 1.142 . S
C237 C101 1.134 . S
C246 C87 1.135 . S
C248 C23 1.146 . S
C257 C73 1.130 . S
C259 C37 1.147 . S
C268 C59 1.133 . S
C270 C51 1.140 . S
C279 C65 1.138 . S
C281 C157 1.126 . S
C290 C115 1.129 . S
C292 C79 1.147 . S
C301 C143 1.130 . S
C303 C93 1.147 . S
C312 C107 1.140 . S
C314 C129 1.133 . S
C323 C31 1.123 . S
C325 C121 1.142 . S
C334 C3 1.135 . S
C336 C135 1.141 . S
C345 C149 1.148 . S
C347 C17 1.131 . S
C356 C45 1.123 . S
C358 C163 1.141 . S
C367 C7 1.295 . S
C369 C21 1.297 . S
C378 C49 1.301 . S
C380 C35 1.301 . S
C389 C91 1.297 . S
C391 C63 1.300 . S
C400 C77 1.298 . S
C402 C105 1.296 . S
C411 C147 1.298 . S
C413 C119 1.300 . S
C422 C133 1.299 . S
C424 C161 1.301 . S
