# Generated by pormake.
# Topology unn, (4)-cn, num edge types: 1
# Building blocks:
#     Node 0, Type 0, BuildingBlock: MUDLON_clean_sbu_0, # of connection points: 4
#     Node 1, Type 0, BuildingBlock: MUDLON_clean_sbu_0, # of connection points: 4
#     Node 2, Type 0, BuildingBlock: MUDLON_clean_sbu_0, # of connection points: 4
#     Node 3, Type 0, BuildingBlock: MUDLON_clean_sbu_0, # of connection points: 4
#     Node 4, Type 0, BuildingBlock: MUDLON_clean_sbu_0, # of connection points: 4
#     Node 5, Type 0, BuildingBlock: MUDLON_clean_sbu_0, # of connection points: 4
#     Node 6, Type 0, BuildingBlock: MUDLON_clean_sbu_0, # of connection points: 4
#     Node 7, Type 0, BuildingBlock: MUDLON_clean_sbu_0, # of connection points: 4
#     Node 8, Type 0, BuildingBlock: MUDLON_clean_sbu_0, # of connection points: 4
#     Node 9, Type 0, BuildingBlock: MUDLON_clean_sbu_0, # of connection points: 4
#     Node 10, Type 0, BuildingBlock: MUDLON_clean_sbu_0, # of connection points: 4
#     Node 11, Type 0, BuildingBlock: MUDLON_clean_sbu_0, # of connection points: 4
#     Node 12, Type 0, BuildingBlock: MUDLON_clean_sbu_0, # of connection points: 4
#     Node 13, Type 0, BuildingBlock: MUDLON_clean_sbu_0, # of connection points: 4
#     Node 14, Type 0, BuildingBlock: MUDLON_clean_sbu_0, # of connection points: 4
#     Node 15, Type 0, BuildingBlock: MUDLON_clean_sbu_0, # of connection points: 4
#     Node 16, Type 0, BuildingBlock: MUDLON_clean_sbu_0, # of connection points: 4
#     Node 17, Type 0, BuildingBlock: MUDLON_clean_sbu_0, # of connection points: 4
#     Edge 18, Type (0, 0), BuildingBlock: ZUJKAS_clean_linker_0, # of connection points: 2
#     Edge 19, Type (0, 0), BuildingBlock: ZUJKAS_clean_linker_0, # of connection points: 2
#     Edge 20, Type (0, 0), BuildingBlock: ZUJKAS_clean_linker_0, # of connection points: 2
#     Edge 21, Type (0, 0), BuildingBlock: ZUJKAS_clean_linker_0, # of connection points: 2
#     Edge 22, Type (0, 0), BuildingBlock: ZUJKAS_clean_linker_0, # of connection points: 2
#     Edge 23, Type (0, 0), BuildingBlock: ZUJKAS_clean_linker_0, # of connection points: 2
#     Edge 24, Type (0, 0), BuildingBlock: ZUJKAS_clean_linker_0, # of connection points: 2
#     Edge 25, Type (0, 0), BuildingBlock: ZUJKAS_clean_linker_0, # of connection points: 2
#     Edge 26, Type (0, 0), BuildingBlock: ZUJKAS_clean_linker_0, # of connection points: 2
#     Edge 27, Type (0, 0), BuildingBlock: ZUJKAS_clean_linker_0, # of connection points: 2
#     Edge 28, Type (0, 0), BuildingBlock: ZUJKAS_clean_linker_0, # of connection points: 2
#     Edge 29, Type (0, 0), BuildingBlock: ZUJKAS_clean_linker_0, # of connection points: 2
#     Edge 30, Type (0, 0), BuildingBlock: ZUJKAS_clean_linker_0, # of connection points: 2
#     Edge 31, Type (0, 0), BuildingBlock: ZUJKAS_clean_linker_0, # of connection points: 2
#     Edge 32, Type (0, 0), BuildingBlock: ZUJKAS_clean_linker_0, # of connection points: 2
#     Edge 33, Type (0, 0), BuildingBlock: ZUJKAS_clean_linker_0, # of connection points: 2
#     Edge 34, Type (0, 0), BuildingBlock: ZUJKAS_clean_linker_0, # of connection points: 2
#     Edge 35, Type (0, 0), BuildingBlock: ZUJKAS_clean_linker_0, # of connection points: 2
#     Edge 36, Type (0, 0), BuildingBlock: ZUJKAS_clean_linker_0, # of connection points: 2
#     Edge 37, Type (0, 0), BuildingBlock: ZUJKAS_clean_linker_0, # of connection points: 2
#     Edge 38, Type (0, 0), BuildingBlock: ZUJKAS_clean_linker_0, # of connection points: 2
#     Edge 39, Type (0, 0), BuildingBlock: ZUJKAS_clean_linker_0, # of connection points: 2
#     Edge 40, Type (0, 0), BuildingBlock: ZUJKAS_clean_linker_0, # of connection points: 2
#     Edge 41, Type (0, 0), BuildingBlock: ZUJKAS_clean_linker_0, # of connection points: 2
#     Edge 42, Type (0, 0), BuildingBlock: ZUJKAS_clean_linker_0, # of connection points: 2
#     Edge 43, Type (0, 0), BuildingBlock: ZUJKAS_clean_linker_0, # of connection points: 2
#     Edge 44, Type (0, 0), BuildingBlock: ZUJKAS_clean_linker_0, # of connection points: 2
#     Edge 45, Type (0, 0), BuildingBlock: ZUJKAS_clean_linker_0, # of connection points: 2
#     Edge 46, Type (0, 0), BuildingBlock: ZUJKAS_clean_linker_0, # of connection points: 2
#     Edge 47, Type (0, 0), BuildingBlock: ZUJKAS_clean_linker_0, # of connection points: 2
#     Edge 48, Type (0, 0), BuildingBlock: ZUJKAS_clean_linker_0, # of connection points: 2
#     Edge 49, Type (0, 0), BuildingBlock: ZUJKAS_clean_linker_0, # of connection points: 2
#     Edge 50, Type (0, 0), BuildingBlock: ZUJKAS_clean_linker_0, # of connection points: 2
#     Edge 51, Type (0, 0), BuildingBlock: ZUJKAS_clean_linker_0, # of connection points: 2
#     Edge 52, Type (0, 0), BuildingBlock: ZUJKAS_clean_linker_0, # of connection points: 2
#     Edge 53, Type (0, 0), BuildingBlock: ZUJKAS_clean_linker_0, # of connection points: 2
# Relax obj value: 0.098
# Max RMSD: 0.215
# Mean RMSD: 0.212
data_MOF--net-unn--node1-MUDLON_clean_sbu_0--edge1-ZUJKAS_clean_linker_0
_symmetry_space_group_name_H-M    P1
_symmetry_Int_Tables_number       1
_symmetry_cell_setting            triclinic
loop_
_symmetry_equiv_pos_as_xyz
'x, y, z'
_cell_length_a     61.656657
_cell_length_b     61.35637
_cell_length_c     54.096938
_cell_angle_alpha  90.613887
_cell_angle_beta   89.568474
_cell_angle_gamma 120.44401
loop_
_atom_site_label
_atom_site_type_symbol
_atom_site_fract_x
_atom_site_fract_y
_atom_site_fract_z
_atom_type_partial_charge
Mg0 Mg 0.0421 0.76384 0.23779 0.0
C1 C 0.07193 0.76354 0.19548 0.0
O2 O 0.08204 0.78776 0.20054 0.0
C3 C 1.02255 0.75114 0.28753 0.0
O4 O 1.02931 0.77506 0.28515 0.0
C5 C 0.99791 0.74506 0.2068 0.0
O6 O 1.00418 0.72755 0.20731 0.0
O7 O 1.01124 0.76543 0.21916 0.0
O8 O 0.05493 0.74765 0.20973 0.0
O9 O 0.07662 0.79596 0.25326 0.0
C10 C 0.09078 0.78797 0.26119 0.0
O11 O 0.08293 0.76376 0.25858 0.0
O12 O 1.02525 0.73963 0.26917 0.0
Mg13 Mg 0.33916 0.30807 0.24764 0.0
C14 C 0.36512 0.35316 0.28063 0.0
O15 O 0.35164 0.35949 0.26705 0.0
C16 C 0.33902 0.30941 0.19366 0.0
O17 O 0.32658 0.28513 0.19858 0.0
C18 C 0.29664 0.31823 0.25382 0.0
O19 O 0.30781 0.33117 0.23384 0.0
O20 O 0.30371 0.30355 0.26243 0.0
O21 O 0.36563 0.33324 0.27502 0.0
O22 O 0.34535 0.27608 0.2414 0.0
C23 C 0.36844 0.2829 0.238 0.0
O24 O 0.38545 0.30678 0.2417 0.0
O25 O 0.34669 0.32521 0.21149 0.0
Mg26 Mg 0.7787 0.04061 0.24469 0.0
C27 C 0.73217 0.02213 0.27553 0.0
O28 O 0.72769 1.00048 0.26591 0.0
C29 C 0.78361 0.03599 0.19165 0.0
O30 O 0.80677 0.04614 0.19985 0.0
C31 C 0.77854 1.00611 0.2847 0.0
O32 O 0.7797 0.02432 0.29866 0.0
O33 O 0.78138 1.00948 0.26139 0.0
O34 O 0.75099 0.04248 0.26781 0.0
O35 O 0.81045 0.07951 0.24012 0.0
C36 C 0.80286 0.0949 0.23542 0.0
O37 O 0.77858 0.08645 0.23645 0.0
O38 O 0.7659 0.03002 0.20714 0.0
Mg39 Mg 0.04079 0.28568 0.74838 0.0
C40 C 0.98681 0.25337 0.73812 0.0
O41 O 0.98938 0.27425 0.74786 0.0
C42 C 0.09424 0.31133 0.75893 0.0
O43 O 0.08893 0.32879 0.75287 0.0
C44 C 0.04076 0.29932 0.6967 0.0
O45 O 1.02999 0.27459 0.69594 0.0
O46 O 0.04808 0.31069 0.7174 0.0
O47 O 1.00606 0.25073 0.73745 0.0
O48 O 0.03309 0.29865 0.78271 0.0
C49 C 1.02746 0.31561 0.78675 0.0
O50 O 1.02475 0.32761 0.76815 0.0
O51 O 0.0767 0.28822 0.75749 0.0
Mg52 Mg 0.78577 0.75243 0.74747 0.0
C53 C 0.77822 0.79671 0.75672 0.0
O54 O 0.76691 0.7884 0.73533 0.0
C55 C 0.80957 0.72221 0.73599 0.0
O56 O 0.78602 0.70557 0.74115 0.0
C57 C 0.74397 0.72758 0.78375 0.0
O58 O 0.73896 0.744 0.77387 0.0
O59 O 0.76148 0.7249 0.77443 0.0
O60 O 0.79116 0.78746 0.76505 0.0
O61 O 0.76784 0.74757 0.71215 0.0
C62 C 0.74467 0.73352 0.70712 0.0
O63 O 0.72872 0.72007 0.72462 0.0
O64 O 0.81679 0.74563 0.73851 0.0
Mg65 Mg 0.3151 0.04225 0.74258 0.0
C66 C 0.33708 1.01452 0.71202 0.0
O67 O 0.32993 0.99824 0.73018 0.0
C68 C 0.32381 0.05322 0.79513 0.0
O69 O 0.30064 0.04819 0.79168 0.0
C70 C 0.31428 0.07723 0.70428 0.0
O71 O 0.31028 0.05782 0.69044 0.0
O72 O 0.31445 0.07519 0.72772 0.0
O73 O 0.33381 0.0333 0.71374 0.0
O74 O 0.28093 1.00775 0.75492 0.0
C75 C 0.27133 0.98628 0.74415 0.0
O76 O 0.27856 0.98498 0.72156 0.0
O77 O 0.33664 0.05366 0.77643 0.0
Mg78 Mg 0.71074 0.08873 0.57533 0.0
C79 C 0.72389 0.0853 0.52455 0.0
O80 O 0.72752 0.10827 0.5268 0.0
C81 C 0.70737 0.05104 0.61384 0.0
O82 O 0.7242 0.04972 0.59988 0.0
C83 C 0.65924 0.06668 0.55985 0.0
O84 O 0.66314 0.04831 0.56614 0.0
O85 O 0.67731 0.08941 0.5626 0.0
O86 O 0.71797 0.07161 0.54369 0.0
O87 O 0.74599 0.12182 0.58818 0.0
C88 C 0.76517 0.11913 0.58651 0.0
O89 O 0.76266 0.09909 0.57484 0.0
O90 O 0.69841 0.06465 0.60717 0.0
Mg91 Mg 0.97622 0.61491 0.56888 0.0
C92 C 0.94348 0.61589 0.6111 0.0
O93 O 0.96179 0.61668 0.62404 0.0
C94 C 0.98429 0.58393 0.52946 0.0
O95 O 0.98527 0.60198 0.51583 0.0
C96 C 1.00803 0.61395 0.60844 0.0
O97 O 0.99348 0.58986 0.60301 0.0
O98 O 1.00591 0.63018 0.59595 0.0
O99 O 0.94301 0.6122 0.58779 0.0
O100 O 0.98448 0.64178 0.53978 0.0
C101 C 0.96581 0.63823 0.52688 0.0
O102 O 0.94325 0.61978 0.53287 0.0
O103 O 0.97804 0.58275 0.55217 0.0
Mg104 Mg 0.4401 0.36915 0.56682 0.0
C105 C 0.41299 0.38629 0.53445 0.0
O106 O 0.42798 0.40734 0.54646 0.0
C107 C 0.44643 0.3744 0.61995 0.0
O108 O 0.4618 0.36668 0.61255 0.0
C109 C 0.48278 0.42274 0.56118 0.0
O110 O 0.47368 0.42392 0.58286 0.0
O111 O 0.47442 0.40109 0.55098 0.0
O112 O 0.41202 0.36599 0.54103 0.0
O113 O 0.43479 0.33126 0.57264 0.0
C114 C 0.41181 0.31482 0.57692 0.0
O115 O 0.39487 0.32161 0.57436 0.0
O116 O 0.43419 0.37866 0.60379 0.0
Mg117 Mg 0.70576 0.63302 0.07603 0.0
C118 C 0.73033 0.67391 0.03736 0.0
O119 O 0.75034 0.67282 0.04341 0.0
C120 C 0.68794 0.62306 0.12694 0.0
O121 O 0.6954 0.60673 0.12278 0.0
C122 C 0.67335 0.59658 0.03619 0.0
O123 O 0.6911 0.61445 0.02266 0.0
O124 O 0.67647 0.59738 0.05953 0.0
O125 O 0.71012 0.66104 0.04954 0.0
O126 O 0.74257 0.64088 0.08965 0.0
C127 C 0.76069 0.63926 0.08025 0.0
O128 O 0.75832 0.62948 0.05802 0.0
O129 O 0.68919 0.63732 0.10946 0.0
Mg130 Mg 0.46751 0.10597 0.07502 0.0
C131 C 0.44803 0.13693 0.09316 0.0
O132 O 0.42906 0.11459 0.08706 0.0
C133 C 0.4926 0.07775 0.06118 0.0
O134 O 0.47039 0.06097 0.06983 0.0
C135 C 0.46552 0.09444 0.12615 0.0
O136 O 0.48675 0.11573 0.12247 0.0
O137 O 0.45179 0.08298 0.10757 0.0
O138 O 0.47028 0.14122 0.08894 0.0
O139 O 0.44253 0.09529 0.04373 0.0
C140 C 0.42455 0.07347 0.03796 0.0
O141 O 0.41884 0.05422 0.05242 0.0
O142 O 0.4987 0.101 0.06179 0.0
Mg143 Mg 0.97927 0.37713 0.08388 0.0
C144 C 0.9744 0.34749 0.03867 0.0
O145 O 0.95076 0.33857 0.0449 0.0
C146 C 1.0068 0.40546 0.12855 0.0
O147 O 0.99459 0.41704 0.1226 0.0
C148 C 0.98157 0.41604 0.04755 0.0
O149 O 0.97481 0.39691 0.03226 0.0
O150 O 0.98191 0.41234 0.07066 0.0
O151 O 0.99152 0.36367 0.05276 0.0
O152 O 0.94474 0.34389 0.09805 0.0
C153 C 0.9411 0.34051 0.12129 0.0
O154 O 0.95549 0.35918 0.13634 0.0
O155 O 1.00538 0.38821 0.11427 0.0
Mg156 Mg 0.38074 0.43239 0.90706 0.0
C157 C 0.39075 0.39948 0.87103 0.0
O158 O 0.37603 0.38083 0.88577 0.0
C159 C 0.38672 0.40135 0.94599 0.0
O160 O 0.40933 0.41181 0.93616 0.0
C161 C 0.32802 0.40566 0.89135 0.0
O162 O 0.33248 0.38824 0.89956 0.0
O163 O 0.34559 0.42874 0.89296 0.0
O164 O 0.39567 0.42177 0.87611 0.0
O165 O 0.41221 0.46693 0.92326 0.0
C166 C 0.4338 0.47643 0.91303 0.0
O167 O 0.43538 0.46844 0.89084 0.0
O168 O 0.37049 0.40573 0.93666 0.0
Mg169 Mg 0.65442 0.94978 0.91438 0.0
C170 C 0.70069 0.99008 0.94343 0.0
O171 O 0.70184 1.00626 0.92701 0.0
C172 C 0.65256 0.95645 0.86161 0.0
O173 O 0.63469 0.93301 0.86558 0.0
C174 C 0.62817 0.97649 0.92961 0.0
O175 O 0.64881 0.99322 0.91828 0.0
O176 O 0.62346 0.95369 0.9304 0.0
O177 O 0.68383 0.96693 0.9416 0.0
O178 O 0.65206 0.91391 0.90319 0.0
C179 C 0.66887 0.90936 0.91094 0.0
O180 O 0.68348 0.92316 0.92917 0.0
O181 O 0.66504 0.97008 0.87993 0.0
Mg182 Mg 0.11978 0.70239 0.90213 0.0
C183 C 0.11251 0.73037 0.94271 0.0
O184 O 0.13619 0.74555 0.93671 0.0
C185 C 0.11305 0.68659 0.85077 0.0
O186 O 0.13707 0.69552 0.85509 0.0
C187 C 0.10432 0.64996 0.91602 0.0
O188 O 0.08796 0.64745 0.89919 0.0
O189 O 0.12278 0.67209 0.92063 0.0
O190 O 0.09937 0.71077 0.92953 0.0
O191 O 0.15097 0.73904 0.88895 0.0
C192 C 0.14169 0.75042 0.87728 0.0
O193 O 0.11706 0.7395 0.87621 0.0
O194 O 0.09914 0.68637 0.86833 0.0
Mg195 Mg 0.37686 0.96199 0.41014 0.0
C196 C 0.32581 0.93618 0.39188 0.0
O197 O 0.33187 0.95942 0.39778 0.0
C198 C 0.42784 0.98447 0.42723 0.0
O199 O 0.42356 1.00266 0.42126 0.0
C200 C 0.38774 1.0052 0.37316 0.0
O201 O 0.37621 1.01264 0.38862 0.0
O202 O 0.39038 0.9866 0.37858 0.0
O203 O 0.34192 0.92943 0.39605 0.0
O204 O 0.36666 0.97598 0.44232 0.0
C205 C 0.35566 0.95879 0.4584 0.0
O206 O 0.35009 0.93566 0.45263 0.0
O207 O 0.41019 0.96165 0.42381 0.0
Mg208 Mg 0.13079 0.43292 0.41099 0.0
C209 C 0.12218 0.47836 0.4131 0.0
O210 O 0.118 0.47381 0.38931 0.0
C211 C 0.16513 0.41274 0.40119 0.0
O212 O 0.14793 0.3957 0.41582 0.0
C213 C 0.099 0.40814 0.45527 0.0
O214 O 0.08848 0.42076 0.44734 0.0
O215 O 0.11676 0.4086 0.44279 0.0
O216 O 0.13113 0.46691 0.42506 0.0
O217 O 0.10474 0.41727 0.38046 0.0
C218 C 0.08358 0.416 0.37886 0.0
O219 O 0.07516 0.42345 0.39755 0.0
O220 O 0.16439 0.43278 0.39688 0.0
Mg221 Mg 0.63658 0.70699 0.41377 0.0
C222 C 0.63207 0.68182 0.36673 0.0
O223 O 0.61009 0.68012 0.36972 0.0
C224 C 0.66246 0.73309 0.4601 0.0
O225 O 0.64893 0.74365 0.45569 0.0
C226 C 0.66411 0.75887 0.39637 0.0
O227 O 0.68074 0.75254 0.40258 0.0
O228 O 0.64083 0.74251 0.39933 0.0
O229 O 0.64863 0.69271 0.38342 0.0
O230 O 0.60148 0.67319 0.42603 0.0
C231 C 0.59769 0.66805 0.44901 0.0
O232 O 0.61181 0.68567 0.46511 0.0
O233 O 0.66201 0.71714 0.44462 0.0
H234 H 0.10942 0.79201 0.16298 0.0
H235 H 0.11328 0.78118 0.12024 0.0
H236 H 0.0492 0.70643 0.13022 0.0
H237 H 0.04505 0.71711 0.17311 0.0
H238 H 0.1177 0.73968 0.09923 0.0
H239 H 1.0299 0.73832 0.07242 0.0
H240 H 0.04619 0.75255 0.10096 0.0
H241 H 1.02793 0.71879 0.09792 0.0
C242 C 0.09636 0.77313 0.15623 0.0
C243 C 0.07679 0.75549 0.17131 0.0
C244 C 0.0986 0.767 0.13183 0.0
C245 C 0.08124 0.74321 0.12208 0.0
C246 C 0.06252 0.72503 0.13741 0.0
H247 H 0.06999 0.69571 0.96725 0.0
H248 H 0.0602 0.69727 0.01099 0.0
C249 C 0.06032 0.7311 0.16192 0.0
C250 C 0.08223 0.73815 0.0955 0.0
H251 H 0.05276 0.7325 0.04061 0.0
C252 C 0.10342 0.73787 0.08641 0.0
C253 C 0.06348 0.73576 0.07895 0.0
C254 C 0.04061 0.7365 0.0879 0.0
C255 C 0.10661 0.73571 0.06102 0.0
C256 C 0.08838 0.73438 0.04437 0.0
C257 C 0.06673 0.73373 0.0535 0.0
C258 C 0.09216 0.73466 0.01738 0.0
C259 C 0.12955 0.73505 0.0522 0.0
C260 C 0.11259 0.75569 0.00638 0.0
C261 C 0.11822 0.7549 0.98151 0.0
C262 C 0.10341 0.73309 0.9672 0.0
C263 C 0.0818 0.71276 0.97782 0.0
C264 C 0.07622 0.71356 0.00279 0.0
H265 H 0.13789 0.7294 0.06719 0.0
H266 H 0.12488 0.72171 0.0364 0.0
H267 H 0.14402 0.75419 0.04595 0.0
H268 H 0.12474 0.77238 0.01729 0.0
H269 H 0.13483 0.77097 0.9738 0.0
H270 H 0.41548 0.38575 0.96975 0.0
H271 H 0.40772 0.3661 0.01049 0.0
H272 H 0.33844 0.3672 0.01636 0.0
H273 H 0.34557 0.38591 0.97551 0.0
H274 H 0.4049 0.38572 0.05347 0.0
H275 H 0.31516 0.29663 0.03802 0.0
H276 H 0.3341 0.31627 0.01285 0.0
H277 H 0.31278 0.32339 0.02912 0.0
C278 C 0.39837 0.38136 0.97955 0.0
C279 C 0.38111 0.38731 0.96939 0.0
C280 C 0.39399 0.37019 0.00283 0.0
C281 C 0.37232 0.36485 0.01632 0.0
C282 C 0.35493 0.37048 0.00603 0.0
H283 H 0.35381 0.35628 0.17514 0.0
H284 H 0.36292 0.36948 0.13191 0.0
C285 C 0.35914 0.38135 0.9827 0.0
C286 C 0.3687 0.35517 0.04187 0.0
H287 H 0.32545 0.31029 0.08034 0.0
C288 C 0.38767 0.36903 0.0593 0.0
C289 C 0.34637 0.33321 0.04939 0.0
C290 C 0.32609 0.31639 0.03127 0.0
C291 C 0.38457 0.36198 0.08423 0.0
C292 C 0.36156 0.34097 0.09202 0.0
C293 C 0.34294 0.32665 0.07444 0.0
C294 C 0.35638 0.3333 0.11827 0.0
C295 C 0.40611 0.37697 0.10183 0.0
C296 C 0.34887 0.3084 0.12482 0.0
C297 C 0.3431 0.3007 0.14932 0.0
C298 C 0.34492 0.31782 0.1678 0.0
C299 C 0.35247 0.34277 0.16129 0.0
C300 C 0.35787 0.35037 0.13665 0.0
H301 H 0.42443 0.38676 0.09191 0.0
H302 H 0.40344 0.39164 0.11116 0.0
H303 H 0.40704 0.36467 0.11617 0.0
H304 H 0.34751 0.2949 0.11095 0.0
H305 H 0.33746 0.28137 0.1538 0.0
H306 H 0.81826 0.05268 0.15443 0.0
H307 H 0.81055 0.05045 0.11002 0.0
H308 H 0.73056 1.01105 0.12356 0.0
H309 H 0.73809 1.01371 0.16812 0.0
H310 H 0.78578 1.01015 0.07973 0.0
H311 H 0.73989 0.0677 0.07874 0.0
H312 H 0.75675 0.06639 0.10529 0.0
H313 H 0.72474 0.04177 0.09979 0.0
C314 C 0.799 0.04354 0.14799 0.0
C315 C 0.77875 0.03347 0.16479 0.0
C316 C 0.79466 0.04234 0.1226 0.0
C317 C 0.77003 0.03108 0.11355 0.0
C318 C 0.74975 0.02046 0.13022 0.0
H319 H 0.70389 0.96069 0.97878 0.0
H320 H 0.72581 0.97419 0.01803 0.0
C321 C 0.75406 0.02178 0.15565 0.0
C322 C 0.76548 0.02969 0.08662 0.0
H323 H 0.7338 0.04196 0.04271 0.0
C324 C 0.77471 1.01741 0.07155 0.0
C325 C 0.75164 0.03977 0.07587 0.0
C326 C 0.74293 0.05489 0.09073 0.0
C327 C 0.76917 1.01362 0.04624 0.0
C328 C 0.75354 0.02184 0.03593 0.0
C329 C 0.74559 0.03545 0.05069 0.0
C330 C 0.74297 1.01422 0.01077 0.0
C331 C 0.77982 1.00053 0.03091 0.0
C332 C 0.74515 0.03226 -0.00638 0.0
C333 C 0.73229 0.02455 0.9711 0.0
C334 C 0.71692 0.99869 0.96556 0.0
C335 C 0.71555 0.98077 0.98244 0.0
C336 C 0.7283 0.98845 0.00485 0.0
H337 H 0.79794 1.00395 0.03864 0.0
H338 H 0.76645 0.97984 0.03112 0.0
H339 H 0.78292 1.00699 0.01143 0.0
H340 H 0.75625 0.05225 -0.00204 0.0
H341 H 0.73368 0.0388 0.95849 0.0
H342 H 0.73638 0.11029 0.48081 0.0
H343 H 0.7303 0.09223 0.43933 0.0
H344 H 0.70275 1.0182 0.47012 0.0
H345 H 0.70893 0.03619 0.51199 0.0
H346 H 0.73752 0.0307 0.43027 0.0
H347 H 0.66073 0.04872 0.40688 0.0
H348 H 0.68825 0.07627 0.41857 0.0
H349 H 0.67085 0.04937 0.43827 0.0
C350 C 0.72918 0.09019 0.47885 0.0
C351 C 0.72294 0.07463 0.49969 0.0
C352 C 0.72553 0.07988 0.45511 0.0
C353 C 0.71546 0.05382 0.45173 0.0
C354 C 0.71024 0.03833 0.47243 0.0
H355 H 0.70438 0.98256 0.30664 0.0
H356 H 0.69446 0.98553 0.35 0.0
C357 C 0.71389 0.04865 0.49628 0.0
C358 C 0.71076 0.0431 0.42642 0.0
H359 H 0.68115 0.04105 0.37266 0.0
C360 C 0.72483 0.03243 0.41774 0.0
C361 C 0.69403 0.04529 0.41027 0.0
C362 C 0.67741 0.0553 0.41902 0.0
C363 C 0.72394 0.0255 0.3928 0.0
C364 C 0.70823 0.02901 0.37634 0.0
C365 C 0.69317 0.03843 0.38534 0.0
C366 C 0.7096 0.02596 0.34934 0.0
C367 C 0.74093 1.01594 0.38394 0.0
C368 C 0.71996 0.04745 0.33436 0.0
C369 C 0.72549 0.04583 0.3096 0.0
C370 C 0.72066 0.02263 0.29941 0.0
C371 C 0.70833 1.00072 0.31394 0.0
C372 C 0.70285 1.00239 0.33877 0.0
H373 H 0.75474 1.01811 0.39825 0.0
H374 H 0.72937 0.99557 0.37911 0.0
H375 H 0.75138 0.02617 0.36709 0.0
H376 H 0.72515 0.06579 0.34218 0.0
H377 H 0.73484 0.063 0.29885 0.0
H378 H 0.93108 0.62897 0.4912 0.0
H379 H 0.93871 0.64804 0.45034 0.0
H380 H 1.0168 0.69773 0.46881 0.0
H381 H 1.00952 0.67829 0.50956 0.0
H382 H 0.95615 0.69605 0.43429 0.0
H383 H 1.02121 0.66254 0.40658 0.0
H384 H 1.00202 0.65159 0.43409 0.0
H385 H 0.03086 0.68163 0.43415 0.0
C386 C 0.94986 0.64409 0.48667 0.0
C387 C 0.96979 0.65192 0.50348 0.0
C388 C 0.95416 0.65496 0.46331 0.0
C389 C 0.97842 0.67385 0.45639 0.0
C390 C 0.99808 0.68268 0.47359 0.0
H391 H 1.02157 0.77293 0.33129 0.0
H392 H 1.00891 0.75299 0.37164 0.0
C393 C 0.99384 0.67168 0.49691 0.0
C394 C 0.98323 0.68384 0.43095 0.0
H395 H 1.01856 0.69133 0.37948 0.0
C396 C 0.96971 0.69494 0.42224 0.0
C397 C 1.00051 0.68183 0.41512 0.0
C398 C 1.0143 0.66852 0.42283 0.0
C399 C 0.9735 0.7047 0.39826 0.0
C400 C 0.9917 0.70382 0.38288 0.0
C401 C 1.00475 0.69216 0.3914 0.0
C402 C 0.99811 0.7155 0.35814 0.0
C403 C 0.95774 0.71556 0.38957 0.0
C404 C 0.99678 0.70115 0.33722 0.0
C405 C 1.00439 0.71259 0.3141 0.0
C406 C 1.01343 0.73857 0.31159 0.0
C407 C 1.01449 0.75282 0.33256 0.0
C408 C 1.00709 0.74142 0.35564 0.0
H409 H 0.93979 0.70764 0.40005 0.0
H410 H 0.96827 0.73632 0.39262 0.0
H411 H 0.95336 0.71178 0.36957 0.0
H412 H 0.99006 0.68113 0.33882 0.0
H413 H 1.00338 0.70114 0.29828 0.0
H414 H 0.42192 0.42833 0.50907 0.0
H415 H 0.41206 0.4302 0.46575 0.0
H416 H 0.37167 0.34877 0.46141 0.0
H417 H 0.3813 0.34665 0.5047 0.0
H418 H 0.42927 0.41074 0.42861 0.0
H419 H 0.32577 0.36738 0.42388 0.0
H420 H 0.34316 0.37958 0.45234 0.0
H421 H 0.33532 0.34877 0.44102 0.0
C422 C 0.4103 0.41078 0.49913 0.0
C423 C 0.40251 0.38731 0.51028 0.0
C424 C 0.40477 0.41192 0.47435 0.0
C425 C 0.39105 0.38964 0.46044 0.0
C426 C 0.38193 0.36618 0.47193 0.0
H427 H 0.3941 0.34527 0.3132 0.0
H428 H 0.40281 0.3595 0.35621 0.0
C429 C 0.38756 0.36501 0.49666 0.0
C430 C 0.38899 0.39077 0.43332 0.0
H431 H 0.34677 0.36799 0.38598 0.0
C432 C 0.41124 0.40181 0.41926 0.0
C433 C 0.36549 0.37933 0.4212 0.0
C434 C 0.34107 0.36831 0.43539 0.0
C435 C 0.41056 0.40043 0.39337 0.0
C436 C 0.38704 0.38749 0.38132 0.0
C437 C 0.3648 0.37774 0.3953 0.0
C438 C 0.38494 0.38205 0.35447 0.0
C439 C 0.43499 0.41236 0.37914 0.0
C440 C 0.3723 0.39028 0.33918 0.0
C441 C 0.36734 0.38223 0.31456 0.0
C442 C 0.37462 0.36548 0.30494 0.0
C443 C 0.38829 0.3582 0.32002 0.0
C444 C 0.39337 0.36639 0.34459 0.0
H445 H 0.45061 0.42758 0.39008 0.0
H446 H 0.44001 0.39774 0.37482 0.0
H447 H 0.4333 0.42039 0.36145 0.0
H448 H 0.36555 0.40227 0.34654 0.0
H449 H 0.35667 0.38811 0.30348 0.0
H450 H 1.00429 0.34114 0.80369 0.0
H451 H 0.99628 0.34746 0.84695 0.0
H452 H 0.03499 0.30939 0.87106 0.0
H453 H 0.04247 0.30251 0.82823 0.0
H454 H 0.98995 0.29107 0.89333 0.0
H455 H 0.04366 0.3959 0.89929 0.0
H456 H 1.02079 0.38342 0.87492 0.0
H457 H 0.04727 0.37869 0.87388 0.0
C458 C 1.01127 0.33437 0.81825 0.0
C459 C 1.02387 0.32122 0.81257 0.0
C460 C 1.00681 0.33809 0.84293 0.0
C461 C 1.01525 0.32908 0.8622 0.0
C462 C 1.02829 0.31646 0.85648 0.0
H463 H 1.02121 0.36474 0.01869 0.0
H464 H 0.03128 0.35911 0.9761 0.0
C465 C 0.03252 0.31253 0.83196 0.0
C466 C 1.0095 0.33144 0.88837 0.0
H467 H 1.01805 0.37404 0.93382 0.0
C468 C 0.99614 0.30922 0.90221 0.0
C469 C 1.01789 0.35514 0.89996 0.0
C470 C 0.03341 0.37968 0.88635 0.0
C471 C 0.99082 0.31002 0.92731 0.0
C472 C 0.99853 0.33367 0.93872 0.0
C473 C 1.01206 0.35592 0.92496 0.0
C474 C 0.99245 0.33573 0.96483 0.0
C475 C 0.97741 0.28558 0.94147 0.0
C476 C 0.96731 0.32427 0.97261 0.0
C477 C 0.96151 0.32725 -0.00307 0.0
C478 C 0.98076 0.34203 0.01385 0.0
C479 C 1.00596 0.35317 0.00612 0.0
C480 C 1.01175 0.35007 0.98179 0.0
H481 H 0.97947 0.27044 0.93227 0.0
H482 H 0.98467 0.28813 0.96064 0.0
H483 H 0.95704 0.27908 0.94242 0.0
H484 H 0.95213 0.31354 0.95969 0.0
H485 H 0.9419 0.31857 0.00222 0.0
H486 H 0.76907 0.70058 0.00506 0.0
H487 H 0.76574 0.71128 0.9624 0.0
H488 H 0.68631 0.68211 0.97259 0.0
H489 H 0.68936 0.6713 0.01523 0.0
H490 H 0.69906 0.66024 0.93247 0.0
H491 H 0.75342 0.76511 0.93034 0.0
H492 H 0.76935 0.75111 0.9452 0.0
H493 H 0.74099 0.74755 0.9586 0.0
C494 C 0.75101 0.69701 -0.00156 0.0
C495 C 0.72947 0.68495 0.0135 0.0
C496 C 0.74916 0.7032 0.97408 0.0
C497 C 0.72579 0.69752 0.96445 0.0
C498 C 0.70451 0.68668 0.97977 0.0
H499 H 0.71419 0.73805 0.81318 0.0
H500 H 0.70497 0.72819 0.85698 0.0
C501 C 0.70634 0.6806 0.00416 0.0
C502 C 0.72316 0.70041 0.93776 0.0
H503 H 0.7449 0.74362 0.89136 0.0
C504 C 0.70878 0.67849 0.92347 0.0
C505 C 0.73572 0.72424 0.92621 0.0
C506 C 0.75057 0.7484 0.94087 0.0
C507 C 0.70751 0.6797 0.8977 0.0
C508 C 0.7211 0.70341 0.88603 0.0
C509 C 0.73459 0.72544 0.90042 0.0
C510 C 0.72295 0.7058 0.85886 0.0
C511 C 0.69195 0.65563 0.88311 0.0
C512 C 0.73553 0.69587 0.84534 0.0
C513 C 0.7409 0.7015 0.8203 0.0
C514 C 0.73384 0.71723 0.80845 0.0
C515 C 0.71988 0.72586 0.82173 0.0
C516 C 0.71465 0.72033 0.84678 0.0
H517 H 0.6776 0.64031 0.89491 0.0
H518 H 0.68232 0.65878 0.86748 0.0
H519 H 0.70447 0.64915 0.87538 0.0
H520 H 0.74237 0.68489 0.85444 0.0
H521 H 0.75169 0.69459 0.81061 0.0
H522 H 0.43486 0.10917 0.00314 0.0
H523 H 0.41474 0.10366 0.96325 0.0
H524 H 0.36406 0.02483 0.97882 0.0
H525 H 0.3846 0.03002 0.01891 0.0
H526 H 0.38469 0.03237 0.93241 0.0
H527 H 0.34722 0.09637 0.94841 0.0
H528 H 0.38031 0.1117 0.95451 0.0
H529 H 0.35861 0.08542 0.97322 0.0
C530 C 0.41929 0.09064 -0.00173 0.0
C531 C 0.41126 0.07002 0.01429 0.0
C532 C 0.40771 0.0876 0.97547 0.0
C533 C 0.38761 0.06398 0.96827 0.0
C534 C 0.37945 0.04328 0.98415 0.0
H535 H 0.29826 0.04683 0.83823 0.0
H536 H 0.31295 0.04802 0.88019 0.0
C537 C 0.39116 0.04627 0.00704 0.0
C538 C 0.37604 0.06091 0.94364 0.0
H539 H 0.34994 0.08578 0.90614 0.0
C540 C 0.37682 0.04382 0.92672 0.0
C541 C 0.36551 0.07565 0.93637 0.0
C542 C 0.3626 0.09311 0.95418 0.0
C543 C 0.3681 0.04169 0.90242 0.0
C544 C 0.35893 0.05751 0.89475 0.0
C545 C 0.35738 0.07398 0.91193 0.0
C546 C 0.35036 0.05699 0.86912 0.0
C547 C 0.36857 0.02234 0.88531 0.0
C548 C 0.36669 0.06213 0.84894 0.0
C549 C 0.35829 0.06132 0.82482 0.0
C550 C 0.33351 0.05569 0.82053 0.0
C551 C 0.31746 0.05124 0.84086 0.0
C552 C 0.32581 0.05187 0.86489 0.0
H553 H 0.36915 1.00716 0.89576 0.0
H554 H 0.35185 1.01356 0.87304 0.0
H555 H 0.38569 0.03175 0.87356 0.0
H556 H 0.38593 0.06678 0.85185 0.0
H557 H 0.37113 0.06497 0.80955 0.0
H558 H 0.36018 0.04739 0.6743 0.0
H559 H 0.36539 0.03713 0.63177 0.0
H560 H 0.33572 0.95925 0.65191 0.0
H561 H 0.33031 0.96932 0.69471 0.0
H562 H 0.39089 1.01211 0.60994 0.0
H563 H 0.28686 0.95928 0.59815 0.0
H564 H 0.30219 0.98097 0.62356 0.0
H565 H 0.29896 0.95021 0.62374 0.0
C566 C 0.35516 0.02814 0.66982 0.0
C567 C 0.34458 1.00908 0.68779 0.0
C568 C 0.35819 0.02235 0.64552 0.0
C569 C 0.35054 0.9974 0.63871 0.0
C570 C 0.34142 0.97857 0.65685 0.0
H571 H 0.3328 0.92582 0.49614 0.0
H572 H 0.33179 0.93575 0.53973 0.0
C573 C 0.33852 0.98439 0.68129 0.0
C574 C 0.35049 0.99098 0.61232 0.0
H575 H 0.31121 0.96088 0.56373 0.0
C576 C 0.37352 1.00085 0.59979 0.0
C577 C 0.32773 0.97646 0.59922 0.0
C578 C 0.30247 0.96622 0.61171 0.0
C579 C 0.37442 0.99625 0.57444 0.0
C580 C 0.35163 0.98191 0.56128 0.0
C581 C 0.32861 0.97197 0.57388 0.0
C582 C 0.35125 0.97624 0.53457 0.0
C583 C 0.39971 1.00633 0.56209 0.0
C584 C 0.36183 0.99573 0.5171 0.0
C585 C 0.36247 0.99012 0.49207 0.0
C586 C 0.35241 0.96491 0.48416 0.0
C587 C 0.34085 0.94544 0.50161 0.0
C588 C 0.34026 0.95106 0.52656 0.0
H589 H 0.41492 1.01136 0.57577 0.0
H590 H 0.39948 0.99227 0.54882 0.0
H591 H 0.40432 0.02365 0.55169 0.0
H592 H 0.36988 1.01527 0.52288 0.0
H593 H 0.37142 1.00552 0.47906 0.0
H594 H 1.01489 0.28155 0.65397 0.0
H595 H 1.02512 0.3022 0.61383 0.0
H596 H 0.08787 0.36862 0.64623 0.0
H597 H 0.07714 0.34823 0.68688 0.0
H598 H 0.06314 0.38056 0.61221 0.0
H599 H 0.08344 0.30896 0.57327 0.0
H600 H 0.05216 0.29488 0.5856 0.0
H601 H 0.07877 0.31137 0.60591 0.0
C602 C 0.03075 0.30065 0.6526 0.0
C603 C 0.04546 0.31321 0.67341 0.0
C604 C 0.03665 0.31235 0.62964 0.0
C605 C 0.05771 0.3366 0.62695 0.0
C606 C 0.0717 0.34975 0.64793 0.0
H607 H 0.12561 0.3929 0.48303 0.0
H608 H 0.11661 0.377 0.52529 0.0
C609 C 0.06555 0.33815 0.67109 0.0
C610 C 0.06537 0.34773 0.60205 0.0
H611 H 0.07942 0.33572 0.54424 0.0
C612 C 0.0669 0.3709 0.59736 0.0
C613 C 0.07081 0.33533 0.58288 0.0
C614 C 0.07149 0.31141 0.58721 0.0
C615 C 0.07297 0.38164 0.57373 0.0
C616 C 0.07686 0.36843 0.5542 0.0
C617 C 0.07604 0.34563 0.55912 0.0
C618 C 0.08207 0.37795 0.52854 0.0
C619 C 0.07552 0.4072 0.57009 0.0
C620 C 0.06532 0.38316 0.51612 0.0
C621 C 0.07056 0.39252 0.49207 0.0
C622 C 0.09238 0.39629 0.47984 0.0
C623 C 0.10862 0.39012 0.49195 0.0
C624 C 0.10354 0.38113 0.51613 0.0
H625 H 0.07983 0.41799 0.58776 0.0
H626 H 0.09055 0.41863 0.55651 0.0
H627 H 0.05747 0.40456 0.56308 0.0
H628 H 0.0482 0.38005 0.52504 0.0
H629 H 0.0576 0.3969 0.4831 0.0
H630 H 0.66013 0.75944 0.49996 0.0
H631 H 0.6755 0.76054 0.54165 0.0
H632 H 0.70723 0.71545 0.51713 0.0
H633 H 0.69142 0.71375 0.47542 0.0
H634 H 0.67834 0.69671 0.55869 0.0
H635 H 0.74592 0.79933 0.57006 0.0
H636 H 0.71509 0.79234 0.56101 0.0
H637 H 0.73347 0.78492 0.54033 0.0
C638 C 0.67073 0.75009 0.50331 0.0
C639 C 0.67454 0.73648 0.4844 0.0
C640 C 0.67958 0.75083 0.52714 0.0
C641 C 0.6927 0.73828 0.53239 0.0
C642 C 0.69717 0.72528 0.51341 0.0
H643 H 0.77385 0.7526 0.6661 0.0
H644 H 0.76028 0.75253 0.62392 0.0
C645 C 0.6882 0.72441 0.48958 0.0
C646 C 0.70038 0.73739 0.558 0.0
H647 H 0.7349 0.77442 0.60647 0.0
C648 C 0.69082 0.71368 0.56913 0.0
C649 C 0.71676 0.75956 0.57145 0.0
C650 C 0.72861 0.78546 0.56004 0.0
C651 C 0.69709 0.71153 0.59348 0.0
C652 C 0.71288 0.73374 0.60717 0.0
C653 C 0.72257 0.75744 0.59598 0.0
C654 C 0.72058 0.73289 0.63279 0.0
C655 C 0.68719 0.68551 0.60411 0.0
C656 C 0.70269 0.72185 0.6518 0.0
C657 C 0.71039 0.72164 0.67601 0.0
C658 C 0.7361 0.73281 0.68157 0.0
C659 C 0.75389 0.7439 0.66246 0.0
C660 C 0.7462 0.7439 0.63833 0.0
H661 H 0.68092 0.6708 0.58938 0.0
H662 H 0.70173 0.68477 0.61546 0.0
H663 H 0.67077 0.68081 0.61615 0.0
H664 H 0.68284 0.71371 0.64798 0.0
H665 H 0.69627 0.71314 0.69039 0.0
H666 H 0.38069 0.35388 0.85137 0.0
H667 H 0.39299 0.34624 0.81044 0.0
H668 H 0.43275 0.42639 0.79634 0.0
H669 H 0.42112 0.43424 0.83709 0.0
H670 H 0.38004 0.35755 0.7665 0.0
H671 H 0.48366 0.40738 0.77398 0.0
H672 H 0.46341 0.39946 0.80072 0.0
H673 H 0.47155 0.42736 0.78314 0.0
C674 C 0.39242 0.36988 0.83971 0.0
C675 C 0.39989 0.39464 0.84746 0.0
C676 C 0.3994 0.36549 0.81634 0.0
C677 C 0.41407 0.38578 0.80052 0.0
C678 C 0.42195 0.41051 0.80847 0.0
H679 H 0.41815 0.39207 0.64205 0.0
H680 H 0.41023 0.39321 0.68632 0.0
C681 C 0.41507 0.41491 0.83174 0.0
C682 C 0.41943 0.38126 0.7749 0.0
H683 H 0.46686 0.40034 0.73267 0.0
C684 C 0.39904 0.36657 0.75916 0.0
C685 C 0.44423 0.39281 0.76545 0.0
C686 C 0.46696 0.4074 0.7818 0.0
C687 C 0.40274 0.36404 0.73394 0.0
C688 C 0.42744 0.37705 0.72418 0.0
C689 C 0.4479 0.39077 0.74013 0.0
C690 C 0.43248 0.37677 0.69745 0.0
C691 C 0.38016 0.34749 0.71802 0.0
C692 C 0.44833 0.36802 0.68916 0.0
C693 C 0.45317 0.3677 0.66398 0.0
C694 C 0.44223 0.37612 0.64661 0.0
C695 C 0.42671 0.38531 0.65498 0.0
C696 C 0.422 0.38577 0.68023 0.0
H697 H 0.36412 0.33327 0.72923 0.0
H698 H 0.37398 0.35943 0.70869 0.0
H699 H 0.38476 0.33743 0.7036 0.0
H700 H 0.45673 0.36116 0.70218 0.0
H701 H 0.46521 0.36049 0.65814 0.0
H702 H 0.67959 0.05721 0.64957 0.0
H703 H 0.67113 0.04051 0.69132 0.0
H704 H 0.71084 1.00078 0.67573 0.0
H705 H 0.72019 1.0182 0.63387 0.0
H706 H 0.6457 0.99335 0.70786 0.0
H707 H 0.74515 0.03893 0.73833 0.0
H708 H 0.73605 0.04709 0.70984 0.0
H709 H 0.73827 1.01902 0.71152 0.0
C710 C 0.68653 0.04488 0.65492 0.0
C711 C 0.70073 0.03915 0.63844 0.0
C712 C 0.68167 0.03536 0.67884 0.0
C713 C 0.69075 0.0198 0.68678 0.0
C714 C 0.70422 1.01331 0.67016 0.0
H715 H 0.63608 0.92911 0.81901 0.0
H716 H 0.64576 0.94454 0.77674 0.0
C717 C 0.70935 0.02308 0.64621 0.0
C718 C 0.68575 1.01033 0.71244 0.0
H719 H 0.71425 1.01015 0.76622 0.0
C720 C 0.66069 0.99703 0.72063 0.0
C721 C 0.70537 1.01558 0.72917 0.0
C722 C 0.73274 0.03115 0.7219 0.0
C723 C 0.65467 0.98872 0.74507 0.0
C724 C 0.67422 0.99316 0.76156 0.0
C725 C 0.6993 1.00661 0.75345 0.0
C726 C 0.66898 0.98389 0.78727 0.0
C727 C 0.62747 0.97583 0.75312 0.0
C728 C 0.67957 1.00083 0.80723 0.0
C729 C 0.67437 0.99201 0.83152 0.0
C730 C 0.65842 0.96613 0.83614 0.0
C731 C 0.64815 0.94922 0.81607 0.0
C732 C 0.65357 0.958 0.79188 0.0
H733 H 0.61619 0.98075 0.7409 0.0
H734 H 0.61926 0.95504 0.75211 0.0
H735 H 0.62567 0.98106 0.77242 0.0
H736 H 0.69166 0.02089 0.80401 0.0
H737 H 0.68261 1.00545 0.84663 0.0
H738 H 0.0637 0.66027 0.83661 0.0
H739 H 0.04736 0.64656 0.79469 0.0
H740 H 0.12322 0.68071 0.76654 0.0
H741 H 0.13963 0.69376 0.80829 0.0
H742 H 0.05405 0.67488 0.75477 0.0
H743 H 0.09166 0.61136 0.73555 0.0
H744 H 0.09137 0.62317 0.76617 0.0
H745 H 0.11573 0.64259 0.74449 0.0
C746 C 0.07686 0.66466 0.82149 0.0
C747 C 0.10292 0.67793 0.82572 0.0
C748 C 0.06752 0.65683 0.7976 0.0
C749 C 0.08409 0.66223 0.7776 0.0
C750 C 0.1101 0.67572 0.78178 0.0
H751 H 0.04158 0.66186 0.62452 0.0
H752 H 0.06206 0.67418 0.66496 0.0
C753 C 0.11944 0.6833 0.80566 0.0
C754 C 0.07423 0.65479 0.7522 0.0
H755 H 0.07586 0.62278 0.70092 0.0
C756 C 0.05869 0.66338 0.74302 0.0
C757 C 0.08014 0.63956 0.73705 0.0
C758 C 0.09542 0.62841 0.74639 0.0
C759 C 0.04904 0.65735 0.71897 0.0
C760 C 0.0558 0.643 0.70347 0.0
C761 C 0.0711 0.63416 0.71273 0.0
C762 C 0.04599 0.6358 0.67803 0.0
C763 C 0.03121 0.66589 0.71067 0.0
C764 C 0.03144 0.61016 0.67152 0.0
C765 C 1.02013 0.60308 0.64834 0.0
C766 C 1.02307 0.62154 0.63131 0.0
C767 C 0.03875 0.64722 0.63737 0.0
C768 C 0.0503 0.65429 0.66051 0.0
H769 H 1.02284 0.67061 0.72662 0.0
H770 H 0.04166 0.68313 0.69928 0.0
H771 H 1.01573 0.65108 0.6993 0.0
H772 H 1.02806 0.59561 0.68473 0.0
H773 H 1.00824 0.58313 0.6442 0.0
H774 H 0.60115 0.65982 0.32723 0.0
H775 H 0.61098 0.64647 0.28822 0.0
H776 H 0.68509 0.66866 0.31513 0.0
H777 H 0.67557 0.68256 0.35425 0.0
H778 H 0.68585 0.68763 0.26942 0.0
H779 H 0.61672 0.58494 0.27113 0.0
H780 H 0.60243 0.60381 0.2763 0.0
H781 H 0.62464 0.6048 0.29835 0.0
C782 C 0.61947 0.66164 0.325 0.0
C783 C 0.63761 0.67228 0.34381 0.0
C784 C 0.62497 0.6538 0.30274 0.0
C785 C 0.64859 0.6562 0.29897 0.0
C786 C 0.66667 0.6665 0.31781 0.0
H787 H 0.6872 0.59817 0.16871 0.0
H788 H 0.6781 0.60584 0.2109 0.0
C789 C 0.66121 0.67442 0.3401 0.0
C790 C 0.65496 0.64969 0.27467 0.0
H791 H 0.63515 0.6023 0.23172 0.0
C792 C 0.67495 0.66891 0.26127 0.0
C793 C 0.64086 0.62518 0.26423 0.0
C794 C 0.62013 0.60343 0.27835 0.0
C795 C 0.68073 0.6645 0.23732 0.0
C796 C 0.66574 0.64037 0.22637 0.0
C797 C 0.64632 0.62089 0.24007 0.0
C798 C 0.67006 0.63501 0.2007 0.0
C799 C 0.70287 0.68567 0.22401 0.0
C800 C 0.66788 0.64845 0.18098 0.0
C801 C 0.67314 0.64419 0.15686 0.0
C802 C 0.68045 0.62626 0.15208 0.0
C803 C 0.6817 0.61219 0.1718 0.0
C804 C 0.67652 0.61652 0.19591 0.0
H805 H 0.71624 0.70033 0.23711 0.0
H806 H 0.71316 0.67841 0.21297 0.0
H807 H 0.69601 0.69488 0.21122 0.0
H808 H 0.66236 0.66241 0.1843 0.0
H809 H 0.67182 0.6552 0.14204 0.0
H810 H 0.42522 0.04942 0.14148 0.0
H811 H 0.41154 0.03637 0.18421 0.0
H812 H 0.4726 0.10759 0.21082 0.0
H813 H 0.48677 0.12035 0.16857 0.0
H814 H 0.46966 0.0696 0.23604 0.0
H815 H 0.37496 0.05885 0.2308 0.0
H816 H 0.37973 0.04 0.20824 0.0
H817 H 0.3983 0.07394 0.20682 0.0
C818 C 0.43569 0.06223 0.15648 0.0
C819 C 0.45709 0.08585 0.15167 0.0
C820 C 0.42772 0.05489 0.18085 0.0
C821 C 0.44079 0.07122 0.20067 0.0
C822 C 0.46217 0.09473 0.19582 0.0
H823 H 0.38733 0.04655 0.35445 0.0
H824 H 0.40115 0.06485 0.31312 0.0
C825 C 0.47028 0.10195 0.17161 0.0
C826 C 0.4331 0.06357 0.22662 0.0
H827 H 0.38386 0.04279 0.26702 0.0
C828 C 0.45094 0.06392 0.24283 0.0
C829 C 0.40885 0.05666 0.2356 0.0
C830 C 0.38943 0.05757 0.21954 0.0
C831 C 0.44502 0.0569 0.2676 0.0
C832 C 0.42035 0.0486 0.27623 0.0
C833 C 0.40269 0.04896 0.26027 0.0
C834 C 0.41219 0.03804 0.30128 0.0
C835 C 0.46532 0.05856 0.28431 0.0
C836 C 0.41357 1.01682 0.30809 0.0
C837 C 0.40597 1.00655 0.33154 0.0
C838 C 0.39643 1.01704 0.34865 0.0
C839 C 0.39472 0.03814 0.34173 0.0
C840 C 0.40253 0.04855 0.31815 0.0
H841 H 0.48437 0.07266 0.27749 0.0
H842 H 0.46314 0.06378 0.3035 0.0
H843 H 0.46413 0.03991 0.28469 0.0
H844 H 0.42035 1.00802 0.29514 0.0
H845 H 0.40731 0.99012 0.33609 0.0
H846 H 0.09157 0.39319 0.33923 0.0
H847 H 0.07602 0.38996 0.29714 0.0
H848 H 0.03232 0.42324 0.32114 0.0
H849 H 0.04769 0.42649 0.36347 0.0
H850 H 1.02145 0.3674 0.27823 0.0
H851 H 0.08602 0.47097 0.26606 0.0
H852 H 0.09121 0.45327 0.28939 0.0
H853 H 0.06662 0.46047 0.29339 0.0
C854 C 0.07832 0.39944 0.33567 0.0
C855 C 0.071 0.41029 0.3546 0.0
C856 C 0.06945 0.39754 0.31165 0.0
C857 C 0.05332 0.40663 0.30615 0.0
C858 C 0.04492 0.41628 0.32515 0.0
H859 H 1.00541 0.4347 0.16616 0.0
H860 H 1.01687 0.43493 0.20927 0.0
C861 C 0.05362 0.41801 0.34929 0.0
C862 C 0.04679 0.40758 0.2802 0.0
H863 H 0.06108 0.44808 0.23201 0.0
C864 C 1.02998 0.38499 0.26807 0.0
C865 C 0.05807 0.43062 0.26719 0.0
C866 C 0.07661 0.45529 0.27951 0.0
C867 C 1.02394 0.38485 0.24309 0.0
C868 C 0.03564 0.40786 0.22988 0.0
C869 C 0.0523 0.43048 0.24216 0.0
C870 C 0.03045 0.40894 0.20342 0.0
C871 C 1.00473 0.36017 0.23126 0.0
C872 C 0.03521 0.39501 0.18569 0.0
C873 C 1.02857 0.39473 0.161 0.0
C874 C 1.01734 0.40864 0.15364 0.0
C875 C 1.01395 0.42371 0.17122 0.0
C876 C 1.02043 0.42383 0.19589 0.0
H877 H 0.9927 0.34602 0.24532 0.0
H878 H 0.99243 0.36299 0.21839 0.0
H879 H 1.01459 0.35223 0.22058 0.0
H880 H 0.04361 0.38397 0.19102 0.0
H881 H 0.0316 0.38308 0.14787 0.0
H882 H 0.28974 0.94759 0.38097 0.0
H883 H 0.25042 0.92211 0.35887 0.0
H884 H 0.26653 0.86169 0.35156 0.0
H885 H 0.30634 0.88729 0.37399 0.0
H886 H 0.24392 0.90258 0.31057 0.0
H887 H 0.19409 0.82635 0.37957 0.0
H888 H 0.22184 0.85613 0.38715 0.0
H889 H 0.22467 0.83233 0.37028 0.0
C890 C 0.285 0.92882 0.37487 0.0
C891 C 0.30131 0.9195 0.37937 0.0
C892 C 0.26243 0.91428 0.36213 0.0
C893 C 0.25536 0.88992 0.35366 0.0
C894 C 0.27141 0.88033 0.35822 0.0
H895 H 0.12543 0.7754 0.27444 0.0
H896 H 0.16506 0.80099 0.29596 0.0
C897 C 0.2942 0.89499 0.37098 0.0
C898 C 0.23141 0.87508 0.33963 0.0
H899 H 0.17328 0.82178 0.34174 0.0
C900 C 0.22845 0.8849 0.31737 0.0
C901 C 0.2112 0.8521 0.34856 0.0
C902 C 0.21288 0.84111 0.37279 0.0
C903 C 0.20605 0.87216 0.3036 0.0
C904 C 0.18576 0.8492 0.31257 0.0
C905 C 0.18875 0.83941 0.33486 0.0
C906 C 0.1617 0.83433 0.29865 0.0
C907 C 0.20457 0.88309 0.27924 0.0
C908 C 0.14637 0.84448 0.29282 0.0
C909 C 0.12347 0.82979 0.28024 0.0
C910 C 0.1154 0.80461 0.2735 0.0
C911 C 0.1309 0.79468 0.27934 0.0
C912 C 0.15366 0.8093 0.29173 0.0
H913 H 0.22353 0.89702 0.27209 0.0
H914 H 0.19477 0.86797 0.26513 0.0
H915 H 0.1938 0.89295 0.28182 0.0
H916 H 0.15189 0.86361 0.29836 0.0
H917 H 0.11193 0.83798 0.2762 0.0
H918 H 0.28046 0.35048 0.24081 0.0
H919 H 0.25922 0.36682 0.26658 0.0
H920 H 0.25419 0.31803 0.32587 0.0
H921 H 0.27623 0.30203 0.30029 0.0
H922 H 0.21421 0.34625 0.28829 0.0
H923 H 0.28771 0.38555 0.36086 0.0
H924 H 0.29213 0.3738 0.33168 0.0
H925 H 0.27423 0.35218 0.35599 0.0
C926 C 0.27471 0.343 0.25926 0.0
C927 C 0.28028 0.32501 0.26848 0.0
C928 C 0.26255 0.35245 0.27404 0.0
C929 C 0.25559 0.3442 0.29845 0.0
C930 C 0.25999 0.3253 0.30736 0.0
H931 H 0.17639 0.37649 0.41266 0.0
H932 H 0.19955 0.36155 0.38775 0.0
C933 C 0.27232 0.31589 0.29258 0.0
C934 C 0.24394 0.35562 0.31438 0.0
H935 H 0.25065 0.38722 0.36896 0.0
C936 C 0.22228 0.3553 0.30586 0.0
C937 C 0.2545 0.36765 0.3373 0.0
C938 C 0.27855 0.37009 0.34693 0.0
C939 C 0.21069 0.36616 0.31975 0.0
C940 C 0.2211 0.37793 0.34274 0.0
C941 C 0.24273 0.37828 0.3513 0.0
C942 C 0.20903 0.38883 0.35866 0.0
C943 C 0.18701 0.36445 0.30998 0.0
C944 C 0.20732 0.40976 0.35103 0.0
C945 C 0.19419 0.41857 0.36542 0.0
C946 C 0.18241 0.40648 0.38762 0.0
C947 C 0.18511 0.38621 0.39562 0.0
C948 C 0.19837 0.3776 0.38139 0.0
H949 H 0.17877 0.35069 0.29444 0.0
H950 H 0.17269 0.35881 0.32487 0.0
H951 H 0.19144 0.38327 0.30321 0.0
H952 H 0.21571 0.41897 0.33371 0.0
H953 H 0.19242 0.43415 0.35866 0.0
H954 H 0.76216 0.96091 0.26015 0.0
H955 H 0.74029 0.91838 0.27772 0.0
H956 H 0.7502 0.95046 0.35095 0.0
H957 H 0.77135 0.9929 0.33351 0.0
H958 H 0.753 0.89376 0.30863 0.0
H959 H 0.67592 0.90196 0.35195 0.0
H960 H 0.69796 0.92514 0.33062 0.0
H961 H 0.70616 0.92622 0.36268 0.0
C962 C 0.7599 0.95895 0.28002 0.0
C963 C 0.76851 0.98043 0.29537 0.0
C964 C 0.74725 0.93456 0.29006 0.0
C965 C 0.74289 0.93103 0.31566 0.0
C966 C 0.7525 0.9525 0.33109 0.0
H967 H 0.71145 0.79935 0.39851 0.0
H968 H 0.72846 0.83998 0.37822 0.0
C969 C 0.76495 0.97686 0.32108 0.0
C970 C 0.72872 0.90499 0.32626 0.0
H971 H 0.68002 0.86694 0.36491 0.0
C972 C 0.73693 0.88789 0.32077 0.0
C973 C 0.70731 0.8969 0.3417 0.0
C974 C 0.69614 0.91342 0.34687 0.0
C975 C 0.72505 0.8635 0.33095 0.0
C976 C 0.70471 0.85603 0.34768 0.0
C977 C 0.69582 0.8727 0.35241 0.0
C978 C 0.69337 0.83153 0.36124 0.0
C979 C 0.73441 0.8459 0.32352 0.0
C980 C 0.66752 0.81347 0.35964 0.0
C981 C 0.65751 0.79002 0.37165 0.0
C982 C 0.67321 0.78429 0.38545 0.0
C983 C 0.69881 0.80287 0.38775 0.0
C984 C 0.70868 0.82616 0.37598 0.0
H985 H 0.74383 0.85094 0.30516 0.0
H986 H 0.74841 0.84745 0.33725 0.0
H987 H 0.71879 0.82594 0.3228 0.0
H988 H 0.65522 0.81725 0.34861 0.0
H989 H 0.63772 0.77618 0.36953 0.0
H990 H 0.85034 0.11506 0.21485 0.0
H991 H 0.87493 0.15632 0.19462 0.0
H992 H 0.81808 0.17457 0.21455 0.0
H993 H 0.79342 0.13354 0.23419 0.0
H994 H 0.83027 0.18358 0.16634 0.0
H995 H 0.91744 0.22721 0.22265 0.0
H996 H 0.90912 0.19708 0.2092 0.0
H997 H 0.88901 0.1991 0.23221 0.0
C998 C 0.84337 0.1281 0.21532 0.0
C999 C 0.81992 0.12098 0.2262 0.0
C1000 C 0.85744 0.15171 0.20374 0.0
C1001 C 0.84847 0.16874 0.2031 0.0
C1002 C 0.82543 0.16184 0.21464 0.0
H1003 H 0.92716 0.32822 0.16948 0.0
H1004 H 0.90427 0.28619 0.1877 0.0
C1005 C 0.81137 0.13833 0.22599 0.0
C1006 C 0.86216 0.19326 0.18959 0.0
H1007 H 0.91719 0.25012 0.18788 0.0
C1008 C 0.84932 0.1981 0.17103 0.0
C1009 C 0.88694 0.21236 0.19577 0.0
C1010 C 0.90142 0.20887 0.21618 0.0
C1011 C 0.86037 0.22145 0.15873 0.0
C1012 C 0.88524 0.24048 0.16474 0.0
C1013 C 0.89818 0.23555 0.18314 0.0
C1014 C 0.89785 0.26598 0.15301 0.0
C1015 C 0.84494 0.22578 0.14003 0.0
C1016 C 0.90165 0.26884 0.12728 0.0
C1017 C 0.91457 0.293 0.1167 0.0
C1018 C 0.92424 0.31486 0.13166 0.0
C1019 C 0.91995 0.31188 0.15733 0.0
C1020 C 0.90696 0.28779 0.16784 0.0
H1021 H 0.82448 0.21221 0.1423 0.0
H1022 H 0.84823 0.24529 0.14154 0.0
H1023 H 0.85044 0.22315 0.12115 0.0
H1024 H 0.89526 0.2524 0.11542 0.0
H1025 H 0.9178 0.29454 0.09692 0.0
H1026 H 0.77351 0.66702 0.12316 0.0
H1027 H 0.81427 0.68864 0.14376 0.0
H1028 H 0.8442 0.65938 0.08891 0.0
H1029 H 0.80355 0.63827 0.06765 0.0
H1030 H 0.84154 0.67222 0.16533 0.0
H1031 H 0.89672 0.73291 0.08709 0.0
H1032 H 0.8628 0.7148 0.0869 0.0
H1033 H 0.88078 0.69995 0.07913 0.0
C1034 C 0.78872 0.66513 0.11539 0.0
C1035 C 0.7852 0.65097 0.09357 0.0
C1036 C 0.8121 0.67758 0.12724 0.0
C1037 C 0.83261 0.6762 0.11767 0.0
C1038 C 0.82896 0.66144 0.09631 0.0
H1039 H 0.97868 0.71395 0.16715 0.0
H1040 H 0.93905 0.70041 0.14594 0.0
C1041 C 0.80559 0.64914 0.08428 0.0
C1042 C 0.85753 0.68977 0.13041 0.0
H1043 H 0.92033 0.73101 0.12105 0.0
C1044 C 0.8587 0.68531 0.15568 0.0
C1045 C 0.88002 0.70708 0.11797 0.0
C1046 C 0.88004 0.7142 0.09135 0.0
C1047 C 0.8817 0.69687 0.16853 0.0
C1048 C 0.9042 0.71346 0.15586 0.0
C1049 C 0.90305 0.71834 0.13076 0.0
C1050 C 0.92927 0.7239 0.16776 0.0
C1051 C 0.88198 0.69057 0.19535 0.0
C1052 C 0.93737 0.74224 0.18673 0.0
C1053 C 0.96038 0.75033 0.19886 0.0
C1054 C 0.97538 0.73991 0.19234 0.0
C1055 C 0.9675 0.72223 0.17277 0.0
C1056 C 0.94484 0.71446 0.16055 0.0
H1057 H 0.86333 0.6752 0.20177 0.0
H1058 H 0.89612 0.68473 0.19836 0.0
H1059 H 0.88747 0.70763 0.20691 0.0
H1060 H 0.9257 0.74991 0.19245 0.0
H1061 H 0.96589 0.76388 0.21391 0.0
H1062 H 0.33943 0.23786 0.21303 0.0
H1063 H 0.35433 0.21347 0.18946 0.0
H1064 H 0.43034 0.26561 0.21262 0.0
H1065 H 0.41569 0.28986 0.23616 0.0
H1066 H 0.39017 0.23323 0.15019 0.0
H1067 H 0.42347 0.19648 0.22526 0.0
H1068 H 0.40221 0.20815 0.2308 0.0
H1069 H 0.43529 0.2299 0.22676 0.0
C1070 C 0.35922 0.24378 0.21356 0.0
C1071 C 0.37633 0.26578 0.2266 0.0
C1072 C 0.36775 0.22992 0.19994 0.0
C1073 C 0.39347 0.23755 0.19941 0.0
C1074 C 0.4104 0.25905 0.21303 0.0
H1075 H 0.48028 0.17998 0.12014 0.0
H1076 H 0.46873 0.20651 0.14503 0.0
C1077 C 0.40195 0.27298 0.22644 0.0
C1078 C 0.40293 0.22419 0.18335 0.0
H1079 H 0.43444 0.1916 0.18427 0.0
C1080 C 0.39974 0.22402 0.15767 0.0
C1081 C 0.41579 0.21251 0.19303 0.0
C1082 C 0.41927 0.21152 0.22048 0.0
C1083 C 0.40909 0.21262 0.14143 0.0
C1084 C 0.42156 0.20051 0.1511 0.0
C1085 C 0.42504 0.20096 0.17679 0.0
C1086 C 0.42931 0.18565 0.13505 0.0
C1087 C 0.40584 0.21402 0.11398 0.0
C1088 C 0.41112 0.16515 0.12119 0.0
C1089 C 0.41766 0.15018 0.10701 0.0
C1090 C 0.44258 0.15508 0.10638 0.0
C1091 C 0.46099 0.17584 0.11999 0.0
C1092 C 0.45436 0.1909 0.13434 0.0
H1093 H 0.40375 0.23046 0.10932 0.0
H1094 H 0.42203 0.21546 0.10344 0.0
H1095 H 0.38851 0.19664 0.10784 0.0
H1096 H 0.39161 0.16028 0.12179 0.0
H1097 H 0.40289 0.13433 0.09688 0.0
H1098 H 0.77438 0.15505 0.62251 0.0
H1099 H 0.81238 0.17819 0.64802 0.0
H1100 H 0.84722 0.1431 0.60747 0.0
H1101 H 0.80976 0.12032 0.58191 0.0
H1102 H 0.833 0.15664 0.67846 0.0
H1103 H 0.9028 0.21695 0.60787 0.0
H1104 H 0.86931 0.20132 0.60264 0.0
H1105 H 0.88563 0.18406 0.5995 0.0
C1106 C 0.79034 0.15268 0.61871 0.0
C1107 C 0.78899 0.13586 0.60007 0.0
C1108 C 0.81201 0.16581 0.6334 0.0
C1109 C 0.83284 0.16262 0.62954 0.0
C1110 C 0.83169 0.14631 0.61056 0.0
H1111 H 0.97823 0.21713 0.70268 0.0
H1112 H 0.94025 0.19321 0.67724 0.0
C1113 C 0.8101 0.13317 0.59599 0.0
C1114 C 0.85519 0.17501 0.64619 0.0
H1115 H 0.91914 0.21395 0.6466 0.0
C1116 C 0.85181 0.16933 0.67151 0.0
C1117 C 0.87982 0.19135 0.63714 0.0
C1118 C 0.88466 0.199 0.61034 0.0
C1119 C 0.87233 0.1792 0.68791 0.0
C1120 C 0.89695 0.19559 0.67887 0.0
C1121 C 0.90034 0.20124 0.65354 0.0
C1122 C 0.91924 0.20825 0.69558 0.0
C1123 C 0.86747 0.17155 0.7147 0.0
C1124 C 0.92006 0.22448 0.71448 0.0
C1125 C 0.94159 0.23802 0.729 0.0
C1126 C 0.963 0.23583 0.72498 0.0
C1127 C 0.96199 0.21904 0.70649 0.0
C1128 C 0.94036 0.2055 0.69182 0.0
H1129 H 0.84948 0.15343 0.71711 0.0
H1130 H 0.88296 0.16953 0.72252 0.0
H1131 H 0.86614 0.18632 0.72548 0.0
H1132 H 0.90431 0.22738 0.71749 0.0
H1133 H 0.9417 0.25086 0.74297 0.0
H1134 H 0.93648 0.61952 0.6605 0.0
H1135 H 0.91365 0.6377 0.68065 0.0
H1136 H 0.89082 0.64994 0.60945 0.0
H1137 H 0.91323 0.63116 0.58912 0.0
H1138 H 0.92231 0.68505 0.6774 0.0
H1139 H 0.82492 0.61828 0.64628 0.0
H1140 H 0.85006 0.61155 0.64265 0.0
H1141 H 0.84704 0.63219 0.62138 0.0
C1142 C 0.92622 0.62563 0.64908 0.0
C1143 C 0.92661 0.62369 0.62314 0.0
C1144 C 0.91326 0.63619 0.66067 0.0
C1145 C 0.90032 0.64514 0.64669 0.0
C1146 C 0.9002 0.64277 0.62077 0.0
H1147 H 0.8535 0.74899 0.70907 0.0
H1148 H 0.87667 0.73186 0.687 0.0
C1149 C 0.91305 0.632 0.60912 0.0
C1150 C 0.88795 0.65784 0.65936 0.0
H1151 H 0.8316 0.65517 0.66745 0.0
C1152 C 0.90245 0.67849 0.67521 0.0
C1153 C 0.86201 0.64926 0.65672 0.0
C1154 C 0.84501 0.62647 0.64103 0.0
C1155 C 0.89177 0.69063 0.68855 0.0
C1156 C 0.8659 0.68228 0.68562 0.0
C1157 C 0.85146 0.66175 0.66963 0.0
C1158 C 0.853 0.69351 0.69991 0.0
C1159 C 0.90817 0.71173 0.70625 0.0
C1160 C 0.8319 0.67781 0.71446 0.0
C1161 C 0.81856 0.68749 0.72682 0.0
C1162 C 0.82594 0.71322 0.72508 0.0
C1163 C 0.84748 0.72918 0.71107 0.0
C1164 C 0.86077 0.71937 0.69845 0.0
H1165 H 0.92545 0.71137 0.71116 0.0
H1166 H 0.91404 0.73015 0.69742 0.0
H1167 H 0.8978 0.71057 0.72351 0.0
H1168 H 0.8255 0.65786 0.71602 0.0
H1169 H 0.8021 0.67462 0.73745 0.0
H1170 H 0.31245 0.08644 0.65529 0.0
H1171 H 0.33061 0.12725 0.63477 0.0
H1172 H 0.3541 0.16541 0.70528 0.0
H1173 H 0.33546 0.12443 0.72611 0.0
H1174 H 0.33549 0.18754 0.67588 0.0
H1175 H 0.40484 0.1742 0.62249 0.0
H1176 H 0.37315 0.14914 0.6172 0.0
H1177 H 0.3867 0.15367 0.64752 0.0
C1178 C 0.32129 0.10347 0.66653 0.0
C1179 C 0.32259 0.10207 0.6924 0.0
C1180 C 0.33193 0.12687 0.65469 0.0
C1181 C 0.34444 0.14953 0.66834 0.0
C1182 C 0.34483 0.14823 0.69427 0.0
H1183 H 0.4411 0.29862 0.59968 0.0
H1184 H 0.42619 0.25906 0.62261 0.0
C1185 C 0.33405 0.12476 0.70619 0.0
C1186 C 0.35686 0.17445 0.65548 0.0
H1187 H 0.39912 0.20821 0.60978 0.0
C1188 C 0.34953 0.1921 0.66156 0.0
C1189 C 0.37563 0.18077 0.6371 0.0
C1190 C 0.38576 0.16357 0.63086 0.0
C1191 C 0.35965 0.21533 0.64919 0.0
C1192 C 0.37727 0.22098 0.62978 0.0
C1193 C 0.38536 0.20379 0.62436 0.0
C1194 C 0.3868 0.24423 0.61449 0.0
C1195 C 0.35145 0.2337 0.65719 0.0
C1196 C 0.36983 0.24866 0.60147 0.0
C1197 C 0.37826 0.27111 0.58844 0.0
C1198 C 0.40397 0.28968 0.58778 0.0
C1199 C 0.4212 0.2847 0.59972 0.0
C1200 C 0.41267 0.26215 0.61294 0.0
H1201 H 0.34441 0.23029 0.67655 0.0
H1202 H 0.36714 0.25356 0.65571 0.0
H1203 H 0.33589 0.23126 0.64511 0.0
H1204 H 0.34989 0.23487 0.60171 0.0
H1205 H 0.36446 0.27415 0.57927 0.0
H1206 H 0.24647 0.93736 0.72698 0.0
H1207 H 0.22563 0.89851 0.7512 0.0
H1208 H 0.24239 0.94266 0.81831 0.0
H1209 H 0.2626 0.98153 0.7942 0.0
H1210 H 0.24494 0.88172 0.78544 0.0
H1211 H 0.16919 0.8926 0.82877 0.0
H1212 H 0.18811 0.9122 0.80359 0.0
H1213 H 0.20006 0.91891 0.83469 0.0
C1214 C 0.24532 0.93883 0.74686 0.0
C1215 C 0.25604 0.96266 0.75856 0.0
C1216 C 0.23352 0.91655 0.76073 0.0
C1217 C 0.23216 0.9175 0.78664 0.0
C1218 C 0.24262 0.94127 0.79835 0.0
H1219 H 0.19314 0.78417 0.88026 0.0
H1220 H 0.2171 0.82538 0.85963 0.0
C1221 C 0.25424 0.96356 0.78448 0.0
C1222 C 0.22048 0.89366 0.80134 0.0
H1223 H 0.17441 0.8594 0.84369 0.0
C1224 C 0.2295 0.87684 0.79818 0.0
C1225 C 0.20024 0.88713 0.81792 0.0
C1226 C 0.18865 0.90352 0.82131 0.0
C1227 C 0.21875 0.85369 0.81088 0.0
C1228 C 0.19872 0.84733 0.82768 0.0
C1229 C 0.18992 0.8643 0.83104 0.0
C1230 C 0.18499 0.82229 0.84027 0.0
C1231 C 0.22836 0.83589 0.8055 0.0
C1232 C 0.15899 0.80694 0.83667 0.0
C1233 C 0.14537 0.78374 0.84858 0.0
C1234 C 0.15728 0.77503 0.86451 0.0
C1235 C 0.18341 0.79022 0.86804 0.0
C1236 C 0.19713 0.81374 0.85614 0.0
H1237 H 0.23961 0.84089 0.78817 0.0
H1238 H 0.24061 0.83687 0.8209 0.0
H1239 H 0.21255 0.81608 0.80388 0.0
H1240 H 0.14912 0.81292 0.82453 0.0
H1241 H 0.12532 0.77259 0.84522 0.0
H1242 H 0.13584 0.3582 0.75747 0.0
H1243 H 0.17564 0.37366 0.77895 0.0
H1244 H 0.14965 0.29896 0.80725 0.0
H1245 H 0.10953 0.28314 0.78539 0.0
H1246 H 0.18216 0.37418 0.82895 0.0
H1247 H 0.21997 0.31938 0.78225 0.0
H1248 H 0.19422 0.32181 0.76974 0.0
H1249 H 0.1888 0.30042 0.79461 0.0
C1250 C 0.13861 0.34487 0.76796 0.0
C1251 C 0.1194 0.31936 0.76967 0.0
C1252 C 0.16144 0.35382 0.78032 0.0
C1253 C 0.16581 0.33754 0.79468 0.0
C1254 C 0.14695 0.31186 0.79597 0.0
H1255 H 0.28664 0.35856 0.89064 0.0
H1256 H 0.24773 0.34347 0.86769 0.0
C1257 C 0.12398 0.30281 0.78347 0.0
C1258 C 0.18958 0.34798 0.80919 0.0
H1259 H 0.24209 0.3435 0.81751 0.0
C1260 C 0.19531 0.36753 0.82637 0.0
C1261 C 0.20681 0.33939 0.80584 0.0
C1262 C 0.20234 0.31926 0.78697 0.0
C1263 C 0.21746 0.37834 0.84059 0.0
C1264 C 0.23466 0.3697 0.83728 0.0
C1265 C 0.22896 0.35019 0.82005 0.0
C1266 C 0.25818 0.37982 0.85215 0.0
C1267 C 0.2219 0.39843 0.85949 0.0
C1268 C 0.27715 0.40549 0.85134 0.0
C1269 C 0.29963 0.41434 0.86468 0.0
C1270 C 0.3036 0.3976 0.87889 0.0
C1271 C 0.28436 0.37205 0.87989 0.0
C1272 C 0.26202 0.3633 0.86668 0.0
H1273 H 0.20432 0.3985 0.86399 0.0
H1274 H 0.22971 0.39566 0.87682 0.0
H1275 H 0.23568 0.41726 0.852 0.0
H1276 H 0.27486 0.41858 0.83994 0.0
H1277 H 0.31411 0.43406 0.86332 0.0
H1278 H 0.75142 0.8191 0.7438 0.0
H1279 H 0.7331 0.83753 0.77104 0.0
H1280 H 0.76846 0.82575 0.83383 0.0
H1281 H 0.78697 0.80719 0.8066 0.0
H1282 H 0.69967 0.81191 0.81074 0.0
H1283 H 0.78492 0.89961 0.84283 0.0
H1284 H 0.78501 0.8822 0.81573 0.0
H1285 H 0.78582 0.87094 0.84602 0.0
C1286 C 0.75574 0.82081 0.76334 0.0
C1287 C 0.77081 0.81169 0.77294 0.0
C1288 C 0.74511 0.83127 0.77893 0.0
C1289 C 0.7494 0.83312 0.8045 0.0
C1290 C 0.76512 0.82485 0.81412 0.0
H1291 H 0.6985 0.8908 0.92588 0.0
H1292 H 0.71608 0.87023 0.90058 0.0
C1293 C 0.77576 0.81428 0.7985 0.0
C1294 C 0.7363 0.84248 0.82104 0.0
H1295 H 0.74631 0.88984 0.86149 0.0
C1296 C 0.70986 0.82897 0.82183 0.0
C1297 C 0.74956 0.86467 0.83559 0.0
C1298 C 0.77789 0.88038 0.83496 0.0
C1299 C 0.69636 0.83685 0.83694 0.0
C1300 C 0.70959 0.85924 0.8513 0.0
C1301 C 0.73607 0.87267 0.85057 0.0
C1302 C 0.69654 0.86925 0.86716 0.0
C1303 C 0.66805 0.82074 0.83778 0.0
C1304 C 0.67916 0.87516 0.85708 0.0
C1305 C 0.66876 0.88668 0.87168 0.0
C1306 C 0.67582 0.8929 0.8966 0.0
C1307 C 0.69258 0.88624 0.9068 0.0
C1308 C 0.70278 0.87457 0.89229 0.0
H1309 H 0.66152 0.80092 0.83205 0.0
H1310 H 0.6607 0.82063 0.85661 0.0
H1311 H 0.65985 0.82848 0.8248 0.0
H1312 H 0.6744 0.87183 0.83766 0.0
H1313 H 0.65624 0.8919 0.86309 0.0
H1314 H 0.50758 0.47087 0.57945 0.0
H1315 H 0.52688 0.51032 0.55639 0.0
H1316 H 0.51167 0.46854 0.48792 0.0
H1317 H 0.49193 0.42872 0.51098 0.0
H1318 H 0.56703 0.53215 0.52352 0.0
H1319 H 0.4781 0.51079 0.47713 0.0
H1320 H 0.47867 0.49263 0.50289 0.0
H1321 H 0.48776 0.48787 0.47261 0.0
C1322 C 0.50857 0.47 0.55949 0.0
C1323 C 0.49812 0.44654 0.54711 0.0
C1324 C 0.5196 0.49264 0.54631 0.0
C1325 C 0.52031 0.49248 0.52037 0.0
C1326 C 0.51089 0.46917 0.5079 0.0
H1327 H 0.57585 0.62393 0.42137 0.0
H1328 H 0.55647 0.58053 0.43696 0.0
C1329 C 0.4999 0.44641 0.52114 0.0
C1330 C 0.53059 0.51681 0.50673 0.0
H1331 H 0.51418 0.55008 0.46825 0.0
C1332 C 0.55549 0.53598 0.51133 0.0
C1333 C 0.51559 0.52188 0.49072 0.0
C1334 C 0.48848 0.50234 0.48561 0.0
C1335 C 0.56569 0.56004 0.50069 0.0
C1336 C 0.55047 0.56541 0.48535 0.0
C1337 C 0.5258 0.54604 0.48009 0.0
C1338 C 0.55969 0.59133 0.47555 0.0
C1339 C 0.59278 0.57955 0.50596 0.0
C1340 C 0.56692 0.61176 0.49193 0.0
C1341 C 0.5779 0.63649 0.48311 0.0
C1342 C 0.58179 0.64148 0.45762 0.0
C1343 C 0.57312 0.62084 0.4411 0.0
C1344 C 0.56213 0.59599 0.44999 0.0
H1345 H 0.60368 0.57062 0.51189 0.0
H1346 H 0.60204 0.59129 0.48944 0.0
H1347 H 0.59349 0.5922 0.52114 0.0
H1348 H 0.56469 0.60863 0.51169 0.0
H1349 H 0.58414 0.65182 0.49642 0.0
H1350 H 0.64651 0.09718 0.53375 0.0
H1351 H 0.60684 0.08377 0.51165 0.0
H1352 H 0.57773 1.00749 0.53693 0.0
H1353 H 0.61666 0.02062 0.55906 0.0
H1354 H 0.58569 0.04706 0.4738 0.0
H1355 H 0.52001 1.01925 0.55326 0.0
H1356 H 0.55368 0.03857 0.55681 0.0
H1357 H 0.53904 1.0048 0.55356 0.0
C1358 C 0.63146 0.07768 0.53493 0.0
C1359 C 0.63479 0.06004 0.54827 0.0
C1360 C 0.60885 0.06999 0.5222 0.0
C1361 C 0.58911 0.04464 0.52287 0.0
C1362 C 0.59237 0.02721 0.5365 0.0
H1363 H 0.44109 0.95417 0.45297 0.0
H1364 H 0.48078 0.96793 0.47518 0.0
C1365 C 0.61482 0.0348 0.54906 0.0
C1366 C 0.56559 0.03581 0.50835 0.0
H1367 H 0.50144 1.00489 0.51349 0.0
C1368 C 0.56729 0.03806 0.48251 0.0
C1369 C 0.5415 0.02376 0.51964 0.0
C1370 C 0.53838 0.02163 0.54736 0.0
C1371 C 0.54563 0.02824 0.46766 0.0
C1372 C 0.52154 1.01613 0.47895 0.0
C1373 C 0.51984 1.01391 0.50479 0.0
C1374 C 0.49801 1.00714 0.46441 0.0
C1375 C 0.54872 0.03047 0.43995 0.0
C1376 C 0.49448 0.02452 0.45102 0.0
C1377 C 0.472 1.01676 0.43844 0.0
C1378 C 0.4523 0.99137 0.43894 0.0
C1379 C 0.45593 0.97379 0.45203 0.0
C1380 C 0.47855 0.98166 0.46481 0.0
H1381 H 0.56723 0.03321 0.434 0.0
H1382 H 0.53359 1.01341 0.43049 0.0
H1383 H 0.54768 0.04711 0.4338 0.0
H1384 H 0.50892 0.04433 0.45079 0.0
H1385 H 0.46994 0.03089 0.42862 0.0
H1386 H 0.11761 0.48233 0.46336 0.0
H1387 H 0.09353 0.49852 0.48497 0.0
H1388 H 0.07741 0.52078 0.41536 0.0
H1389 H 0.10105 0.50431 0.39358 0.0
H1390 H 0.09686 0.54518 0.48789 0.0
H1391 H 1.00727 0.47541 0.44324 0.0
H1392 H 0.0352 0.47295 0.44152 0.0
H1393 H 0.03164 0.49414 0.42145 0.0
C1394 C 0.10926 0.49099 0.45263 0.0
C1395 C 0.1112 0.49184 0.42664 0.0
C1396 C 0.09538 0.50016 0.46505 0.0
C1397 C 0.08306 0.5103 0.45179 0.0
C1398 C 0.08612 0.51241 0.42599 0.0
H1399 H 0.9929 0.57802 0.48106 0.0
H1400 H 1.01582 0.55844 0.46415 0.0
C1401 C 0.0999 0.50319 0.41356 0.0
C1402 C 0.06668 0.51825 0.46479 0.0
H1403 H 1.007 0.50881 0.46583 0.0
C1404 C 0.07715 0.53706 0.48324 0.0
C1405 C 0.04086 0.50755 0.45889 0.0
C1406 C 1.02798 0.48622 0.44038 0.0
C1407 C 0.06284 0.54614 0.49518 0.0
C1408 C 0.03721 0.53588 0.4888 0.0
C1409 C 1.02662 0.51671 0.47073 0.0
C1410 C 1.02154 0.54592 0.49944 0.0
C1411 C 0.07553 0.56733 0.51386 0.0
C1412 C 1.01627 0.54469 0.52491 0.0
C1413 C 1.00293 0.55581 0.53471 0.0
C1414 C 0.99465 0.56841 0.5192 0.0
C1415 C 0.99903 0.56857 0.4936 0.0
C1416 C 1.01219 0.55739 0.48385 0.0
H1417 H 0.09636 0.57655 0.51302 0.0
H1418 H 0.07021 0.5819 0.51087 0.0
H1419 H 0.06934 0.55964 0.53272 0.0
H1420 H 1.02285 0.53552 0.53728 0.0
H1421 H 0.99998 0.55539 0.5545 0.0
H1422 H 0.43943 0.48385 0.96342 0.0
H1423 H 0.47902 0.50454 0.98674 0.0
H1424 H 0.52088 0.52431 0.9184 0.0
H1425 H 0.48163 0.50389 0.89507 0.0
H1426 H 0.51691 0.49096 0.98432 0.0
H1427 H 0.55537 0.59093 0.95777 0.0
H1428 H 0.52261 0.56722 0.95395 0.0
H1429 H 0.54563 0.56947 0.93192 0.0
C1430 C 0.45706 0.49313 0.95335 0.0
C1431 C 0.4573 0.4923 0.92733 0.0
C1432 C 0.47969 0.50478 0.96672 0.0
C1433 C 0.50297 0.51616 0.95435 0.0
C1434 C 0.50321 0.51603 0.9284 0.0
H1435 H 0.66137 0.58891 0.98716 0.0
H1436 H 0.6195 0.56758 0.96871 0.0
C1437 C 0.48068 0.50427 0.91506 0.0
C1438 C 0.52706 0.52687 0.96831 0.0
H1439 H 0.58405 0.58074 0.97621 0.0
C1440 C 0.53151 0.51066 0.9828 0.0
C1441 C 0.54616 0.55254 0.96625 0.0
C1442 C 0.54219 0.57114 0.95182 0.0
C1443 C 0.55484 0.51919 -0.0055 0.0
C1444 C 0.57413 0.54479 0.99206 0.0
C1445 C 0.56941 0.56109 0.97799 0.0
C1446 C 0.59951 0.55515 0.00347 0.0
C1447 C 0.55892 0.50049 0.0086 0.0
C1448 C 0.60241 0.55484 0.02921 0.0
C1449 C 0.62648 0.56686 0.03986 0.0
C1450 C 0.64816 0.57974 0.02501 0.0
C1451 C 0.64516 0.57918 -0.0008 0.0
C1452 C 0.62117 0.56707 0.98859 0.0
H1453 H 0.54513 0.48067 0.00322 0.0
H1454 H 0.5782 0.50385 0.0055 0.0
H1455 H 0.55656 0.50266 0.02866 0.0
H1456 H 0.58607 0.54621 0.04119 0.0
H1457 H 0.62802 0.56715 0.05981 0.0
H1458 H 0.63439 0.02366 0.92889 0.0
H1459 H 0.61135 0.03985 0.95177 0.0
H1460 H 0.56281 0.96593 0.98231 0.0
H1461 H 0.58635 0.94951 0.95962 0.0
H1462 H 0.56269 0.02777 0.9506 0.0
H1463 H 0.58598 1.00973 0.04429 0.0
H1464 H 0.6015 1.00747 0.01679 0.0
H1465 H 0.57057 0.98219 0.02476 0.0
C1466 C 0.6188 1.01069 0.94042 0.0
C1467 C 0.61238 0.98522 0.94247 0.0
C1468 C 0.60559 0.02006 0.95353 0.0
C1469 C 0.58557 1.00432 0.96917 0.0
C1470 C 0.57856 0.97866 0.97082 0.0
H1471 H 0.48538 0.03017 0.06203 0.0
H1472 H 0.50857 1.01359 0.03992 0.0
C1473 C 0.59188 0.96921 0.95765 0.0
C1474 C 0.57229 1.01511 0.98352 0.0
H1475 H 0.5581 0.02553 0.04216 0.0
C1476 C 0.56175 0.0273 0.97063 0.0
C1477 C 0.57111 1.01469 0.00969 0.0
C1478 C 0.58307 1.00304 0.02477 0.0
C1479 C 0.54978 0.03866 0.98307 0.0
C1480 C 0.54862 0.03825 0.00923 0.0
C1481 C 0.55909 0.026 0.02213 0.0
C1482 C 0.53552 0.04925 0.02349 0.0
C1483 C 0.53793 0.05044 0.96803 0.0
C1484 C 0.54322 0.0751 0.02219 0.0
C1485 C 0.5299 0.08479 0.03496 0.0
C1486 C 0.50864 0.06878 0.0493 0.0
C1487 C 0.50156 0.04311 0.0511 0.0
C1488 C 0.51484 0.03353 0.03845 0.0
H1489 H 0.53527 0.04404 0.94842 0.0
H1490 H 0.51939 0.04581 0.97587 0.0
H1491 H 0.55034 0.0713 0.96837 0.0
H1492 H 0.55943 0.08777 0.01117 0.0
H1493 H 0.53591 0.10462 0.03318 0.0
H1494 H 0.1177 0.64838 0.96432 0.0
H1495 H 0.10103 0.61066 0.99063 0.0
H1496 H 0.06001 0.56353 0.92845 0.0
H1497 H 0.07646 0.60073 0.90234 0.0
H1498 H 0.04859 0.57625 -6e-05 0.0
H1499 H 0.0934 0.52634 0.95749 0.0
H1500 H 0.10518 0.5596 0.95282 0.0
H1501 H 0.07882 0.53626 0.93518 0.0
C1502 C 0.10569 0.62989 0.95616 0.0
C1503 C 0.09854 0.62755 0.93119 0.0
C1504 C 0.09599 0.60837 0.97125 0.0
C1505 C 0.07939 0.58417 0.96149 0.0
C1506 C 0.07306 0.58186 0.93637 0.0
H1507 H 0.98092 0.4295 -0.00023 0.0
H1508 H 1.00495 0.47143 0.98156 0.0
C1509 C 0.08248 0.60322 0.92144 0.0
C1510 C 0.06713 0.56134 0.97752 0.0
H1511 H 0.05649 0.50116 0.98187 0.0
C1512 C 0.05062 0.55996 -0.00368 0.0
C1513 C 0.06969 0.54003 0.97275 0.0
C1514 C 0.08792 0.54065 0.95362 0.0
C1515 C 0.03567 0.53745 0.00955 0.0
C1516 C 0.03757 0.51583 0.00411 0.0
C1517 C 0.0548 0.51759 0.98595 0.0
C1518 C 1.02118 0.49083 0.01608 0.0
C1519 C 1.01712 0.53664 0.02839 0.0
C1520 C 1.02178 0.48766 0.04174 0.0
C1521 C 1.0078 0.46356 0.05232 0.0
C1522 C 0.99312 0.44209 0.03741 0.0
C1523 C 0.99197 0.44553 0.01186 0.0
C1524 C 1.00582 0.46954 0.00137 0.0
H1525 H 1.01383 0.55274 0.02633 0.0
H1526 H 0.99881 0.51871 0.02681 0.0
H1527 H 1.02462 0.53768 0.04722 0.0
H1528 H 0.03377 0.50366 0.05349 0.0
H1529 H 1.00937 0.46162 0.072 0.0
loop_
_geom_bond_atom_site_label_1
_geom_bond_atom_site_label_2
_geom_bond_distance
_geom_bond_site_symmetry_2
_ccdc_geom_bond_type
Mg0 O7 2.141 1_455 S
Mg0 O8 2.048 . S
Mg0 O9 2.048 . S
Mg0 O12 2.141 . S
C1 O2 1.313 . S
C1 O8 1.195 . S
O2 C1 1.313 . S
C3 O4 1.245 1_655 S
C3 O12 1.289 1_655 S
O4 C3 1.245 1_455 S
C5 O6 1.245 . S
C5 O7 1.289 . S
O6 C5 1.245 . S
O7 Mg0 2.141 1_655 S
O7 C5 1.289 . S
O8 Mg0 2.048 . S
O8 C1 1.195 . S
O9 Mg0 2.048 . S
O9 C10 1.195 . S
C10 O9 1.195 . S
C10 O11 1.313 . S
O11 C10 1.313 . S
O12 Mg0 2.141 . S
O12 C3 1.289 1_455 S
Mg13 O20 2.141 . S
Mg13 O21 2.048 . S
Mg13 O22 2.048 . S
Mg13 O25 2.141 . S
C14 O15 1.313 . S
C14 O21 1.195 . S
O15 C14 1.313 . S
C16 O17 1.245 . S
C16 O25 1.289 . S
O17 C16 1.245 . S
C18 O19 1.245 . S
C18 O20 1.289 . S
O19 C18 1.245 . S
O20 Mg13 2.141 . S
O20 C18 1.289 . S
O21 Mg13 2.048 . S
O21 C14 1.195 . S
O22 Mg13 2.048 . S
O22 C23 1.195 . S
C23 O22 1.195 . S
C23 O24 1.313 . S
O24 C23 1.313 . S
O25 Mg13 2.141 . S
O25 C16 1.289 . S
Mg26 O33 2.141 1_545 S
Mg26 O34 2.048 . S
Mg26 O35 2.048 . S
Mg26 O38 2.141 1_545 S
C27 O28 1.313 . S
C27 O34 1.195 . S
O28 C27 1.313 . S
C29 O30 1.245 . S
C29 O38 1.289 . S
O30 C29 1.245 . S
C31 O32 1.245 . S
C31 O33 1.289 . S
O32 C31 1.245 . S
O33 Mg26 2.141 1_565 S
O33 C31 1.289 . S
O34 Mg26 2.048 . S
O34 C27 1.195 . S
O35 Mg26 2.048 . S
O35 C36 1.195 . S
C36 O35 1.195 . S
C36 O37 1.313 . S
O37 C36 1.313 . S
O38 Mg26 2.141 1_565 S
O38 C29 1.289 . S
Mg39 O46 2.141 . S
Mg39 O47 2.048 1_455 S
Mg39 O48 2.048 . S
Mg39 O51 2.141 . S
C40 O41 1.313 . S
C40 O47 1.195 . S
O41 C40 1.313 . S
C42 O43 1.245 . S
C42 O51 1.289 . S
O43 C42 1.245 . S
C44 O45 1.245 . S
C44 O46 1.289 . S
O45 C44 1.245 . S
O46 Mg39 2.141 . S
O46 C44 1.289 . S
O47 Mg39 2.048 1_655 S
O47 C40 1.195 . S
O48 Mg39 2.048 . S
O48 C49 1.195 1_455 S
C49 O48 1.195 1_655 S
C49 O50 1.313 . S
O50 C49 1.313 . S
O51 Mg39 2.141 . S
O51 C42 1.289 . S
Mg52 O59 2.141 . S
Mg52 O60 2.048 . S
Mg52 O61 2.048 . S
Mg52 O64 2.141 . S
C53 O54 1.313 . S
C53 O60 1.195 . S
O54 C53 1.313 . S
C55 O56 1.245 . S
C55 O64 1.289 . S
O56 C55 1.245 . S
C57 O58 1.245 . S
C57 O59 1.289 . S
O58 C57 1.245 . S
O59 Mg52 2.141 . S
O59 C57 1.289 . S
O60 Mg52 2.048 . S
O60 C53 1.195 . S
O61 Mg52 2.048 . S
O61 C62 1.195 . S
C62 O61 1.195 . S
C62 O63 1.313 . S
O63 C62 1.313 . S
O64 Mg52 2.141 . S
O64 C55 1.289 . S
Mg65 O72 2.141 . S
Mg65 O73 2.057 . S
Mg65 O74 2.048 1_545 S
Mg65 O77 2.141 . S
C66 O67 1.313 . S
C66 O73 1.196 1_565 S
O67 C66 1.313 . S
C68 O69 1.245 . S
C68 O77 1.289 . S
O69 C68 1.245 . S
C70 O71 1.245 . S
C70 O72 1.289 . S
O71 C70 1.245 . S
O72 Mg65 2.141 . S
O72 C70 1.289 . S
O73 Mg65 2.057 . S
O73 C66 1.196 1_545 S
O74 Mg65 2.048 1_565 S
O74 C75 1.195 . S
C75 O74 1.195 . S
C75 O76 1.313 . S
O76 C75 1.313 . S
O77 Mg65 2.141 . S
O77 C68 1.289 . S
Mg78 O85 2.141 . S
Mg78 O86 2.048 . S
Mg78 O87 2.048 . S
Mg78 O90 2.141 . S
C79 O80 1.313 . S
C79 O86 1.195 . S
O80 C79 1.313 . S
C81 O82 1.245 . S
C81 O90 1.289 . S
O82 C81 1.245 . S
C83 O84 1.245 . S
C83 O85 1.289 . S
O84 C83 1.245 . S
O85 Mg78 2.141 . S
O85 C83 1.289 . S
O86 Mg78 2.048 . S
O86 C79 1.195 . S
O87 Mg78 2.048 . S
O87 C88 1.195 . S
C88 O87 1.195 . S
C88 O89 1.313 . S
O89 C88 1.313 . S
O90 Mg78 2.141 . S
O90 C81 1.289 . S
Mg91 O98 2.141 . S
Mg91 O99 2.048 . S
Mg91 O100 2.048 . S
Mg91 O103 2.141 . S
C92 O93 1.313 . S
C92 O99 1.195 . S
O93 C92 1.313 . S
C94 O95 1.245 . S
C94 O103 1.289 . S
O95 C94 1.245 . S
C96 O97 1.245 . S
C96 O98 1.289 . S
O97 C96 1.245 . S
O98 Mg91 2.141 . S
O98 C96 1.289 . S
O99 Mg91 2.048 . S
O99 C92 1.195 . S
O100 Mg91 2.048 . S
O100 C101 1.195 . S
C101 O100 1.195 . S
C101 O102 1.313 . S
O102 C101 1.313 . S
O103 Mg91 2.141 . S
O103 C94 1.289 . S
Mg104 O111 2.141 . S
Mg104 O112 2.048 . S
Mg104 O113 2.048 . S
Mg104 O116 2.141 . S
C105 O106 1.313 . S
C105 O112 1.195 . S
O106 C105 1.313 . S
C107 O108 1.245 . S
C107 O116 1.289 . S
O108 C107 1.245 . S
C109 O110 1.245 . S
C109 O111 1.289 . S
O110 C109 1.245 . S
O111 Mg104 2.141 . S
O111 C109 1.289 . S
O112 Mg104 2.048 . S
O112 C105 1.195 . S
O113 Mg104 2.048 . S
O113 C114 1.195 . S
C114 O113 1.195 . S
C114 O115 1.313 . S
O115 C114 1.313 . S
O116 Mg104 2.141 . S
O116 C107 1.289 . S
Mg117 O124 2.141 . S
Mg117 O125 2.048 . S
Mg117 O126 2.048 . S
Mg117 O129 2.141 . S
C118 O119 1.313 . S
C118 O125 1.195 . S
O119 C118 1.313 . S
C120 O121 1.245 . S
C120 O129 1.289 . S
O121 C120 1.245 . S
C122 O123 1.245 . S
C122 O124 1.289 . S
O123 C122 1.245 . S
O124 Mg117 2.141 . S
O124 C122 1.289 . S
O125 Mg117 2.048 . S
O125 C118 1.195 . S
O126 Mg117 2.048 . S
O126 C127 1.195 . S
C127 O126 1.195 . S
C127 O128 1.313 . S
O128 C127 1.313 . S
O129 Mg117 2.141 . S
O129 C120 1.289 . S
Mg130 O137 2.141 . S
Mg130 O138 2.048 . S
Mg130 O139 2.048 . S
Mg130 O142 2.141 . S
C131 O132 1.313 . S
C131 O138 1.195 . S
O132 C131 1.313 . S
C133 O134 1.245 . S
C133 O142 1.289 . S
O134 C133 1.245 . S
C135 O136 1.245 . S
C135 O137 1.289 . S
O136 C135 1.245 . S
O137 Mg130 2.141 . S
O137 C135 1.289 . S
O138 Mg130 2.048 . S
O138 C131 1.195 . S
O139 Mg130 2.048 . S
O139 C140 1.195 . S
C140 O139 1.195 . S
C140 O141 1.313 . S
O141 C140 1.313 . S
O142 Mg130 2.141 . S
O142 C133 1.289 . S
Mg143 O150 2.141 . S
Mg143 O151 2.048 . S
Mg143 O152 2.048 . S
Mg143 O155 2.141 . S
C144 O145 1.313 . S
C144 O151 1.195 . S
O145 C144 1.313 . S
C146 O147 1.245 . S
C146 O155 1.289 . S
O147 C146 1.245 . S
C148 O149 1.245 . S
C148 O150 1.289 . S
O149 C148 1.245 . S
O150 Mg143 2.141 . S
O150 C148 1.289 . S
O151 Mg143 2.048 . S
O151 C144 1.195 . S
O152 Mg143 2.048 . S
O152 C153 1.195 . S
C153 O152 1.195 . S
C153 O154 1.313 . S
O154 C153 1.313 . S
O155 Mg143 2.141 . S
O155 C146 1.289 . S
Mg156 O163 2.141 . S
Mg156 O164 2.048 . S
Mg156 O165 2.048 . S
Mg156 O168 2.141 . S
C157 O158 1.313 . S
C157 O164 1.195 . S
O158 C157 1.313 . S
C159 O160 1.245 . S
C159 O168 1.289 . S
O160 C159 1.245 . S
C161 O162 1.245 . S
C161 O163 1.289 . S
O162 C161 1.245 . S
O163 Mg156 2.141 . S
O163 C161 1.289 . S
O164 Mg156 2.048 . S
O164 C157 1.195 . S
O165 Mg156 2.048 . S
O165 C166 1.195 . S
C166 O165 1.195 . S
C166 O167 1.313 . S
O167 C166 1.313 . S
O168 Mg156 2.141 . S
O168 C159 1.289 . S
Mg169 O176 2.141 . S
Mg169 O177 2.048 . S
Mg169 O178 2.048 . S
Mg169 O181 2.141 . S
C170 O171 1.313 . S
C170 O177 1.195 . S
O171 C170 1.313 . S
C172 O173 1.245 . S
C172 O181 1.289 . S
O173 C172 1.245 . S
C174 O175 1.245 . S
C174 O176 1.289 . S
O175 C174 1.245 . S
O176 Mg169 2.141 . S
O176 C174 1.289 . S
O177 Mg169 2.048 . S
O177 C170 1.195 . S
O178 Mg169 2.048 . S
O178 C179 1.195 . S
C179 O178 1.195 . S
C179 O180 1.313 . S
O180 C179 1.313 . S
O181 Mg169 2.141 . S
O181 C172 1.289 . S
Mg182 O189 2.141 . S
Mg182 O190 2.048 . S
Mg182 O191 2.048 . S
Mg182 O194 2.141 . S
C183 O184 1.313 . S
C183 O190 1.195 . S
O184 C183 1.313 . S
C185 O186 1.245 . S
C185 O194 1.289 . S
O186 C185 1.245 . S
C187 O188 1.245 . S
C187 O189 1.289 . S
O188 C187 1.245 . S
O189 Mg182 2.141 . S
O189 C187 1.289 . S
O190 Mg182 2.048 . S
O190 C183 1.195 . S
O191 Mg182 2.048 . S
O191 C192 1.195 . S
C192 O191 1.195 . S
C192 O193 1.313 . S
O193 C192 1.313 . S
O194 Mg182 2.141 . S
O194 C185 1.289 . S
Mg195 O202 2.141 . S
Mg195 O203 2.048 . S
Mg195 O204 2.048 . S
Mg195 O207 2.141 . S
C196 O197 1.313 . S
C196 O203 1.195 . S
O197 C196 1.313 . S
C198 O199 1.245 . S
C198 O207 1.289 . S
O199 C198 1.245 . S
C200 O201 1.245 . S
C200 O202 1.289 . S
O201 C200 1.245 . S
O202 Mg195 2.141 . S
O202 C200 1.289 . S
O203 Mg195 2.048 . S
O203 C196 1.195 . S
O204 Mg195 2.048 . S
O204 C205 1.195 . S
C205 O204 1.195 . S
C205 O206 1.313 . S
O206 C205 1.313 . S
O207 Mg195 2.141 . S
O207 C198 1.289 . S
Mg208 O215 2.141 . S
Mg208 O216 2.048 . S
Mg208 O217 2.048 . S
Mg208 O220 2.141 . S
C209 O210 1.313 . S
C209 O216 1.195 . S
O210 C209 1.313 . S
C211 O212 1.245 . S
C211 O220 1.289 . S
O212 C211 1.245 . S
C213 O214 1.245 . S
C213 O215 1.289 . S
O214 C213 1.245 . S
O215 Mg208 2.141 . S
O215 C213 1.289 . S
O216 Mg208 2.048 . S
O216 C209 1.195 . S
O217 Mg208 2.048 . S
O217 C218 1.195 . S
C218 O217 1.195 . S
C218 O219 1.313 . S
O219 C218 1.313 . S
O220 Mg208 2.141 . S
O220 C211 1.289 . S
Mg221 O228 2.141 . S
Mg221 O229 2.048 . S
Mg221 O230 2.048 . S
Mg221 O233 2.141 . S
C222 O223 1.313 . S
C222 O229 1.195 . S
O223 C222 1.313 . S
C224 O225 1.245 . S
C224 O233 1.289 . S
O225 C224 1.245 . S
C226 O227 1.245 . S
C226 O228 1.289 . S
O227 C226 1.245 . S
O228 Mg221 2.141 . S
O228 C226 1.289 . S
O229 Mg221 2.048 . S
O229 C222 1.195 . S
O230 Mg221 2.048 . S
O230 C231 1.195 . S
C231 O230 1.195 . S
C231 O232 1.313 . S
O232 C231 1.313 . S
O233 Mg221 2.141 . S
O233 C224 1.289 . S
H234 C242 0.929 . S
H235 C244 0.930 . S
H236 C246 0.930 . S
H237 C249 0.929 . S
H238 C252 0.930 . S
H239 C254 0.960 . S
H240 C254 0.960 . S
H241 C254 0.960 . S
C242 H234 0.929 . S
C242 C243 1.377 . S
C242 C244 1.384 . S
C243 C242 1.377 . S
C243 C249 1.390 . S
C244 H235 0.930 . S
C244 C242 1.384 . S
C244 C245 1.372 . S
C245 C244 1.372 . S
C245 C246 1.400 . S
C245 C250 1.490 . S
C246 H236 0.930 . S
C246 C245 1.400 . S
C246 C249 1.386 . S
H247 C263 0.930 . S
H248 C264 0.931 . S
C249 H237 0.929 . S
C249 C243 1.390 . S
C249 C246 1.386 . S
C250 C245 1.490 . S
C250 C252 1.395 . S
C250 C253 1.403 . S
H251 C257 0.930 . S
C252 H238 0.930 . S
C252 C250 1.395 . S
C252 C255 1.403 . S
C253 C250 1.403 . S
C253 C254 1.524 . S
C253 C257 1.400 . S
C254 H239 0.960 . S
C254 H240 0.960 . S
C254 H241 0.960 . S
C254 C253 1.524 . S
C255 C252 1.403 . S
C255 C256 1.392 . S
C255 C259 1.495 . S
C256 C255 1.392 . S
C256 C257 1.385 . S
C256 C258 1.478 . S
C257 H251 0.930 . S
C257 C253 1.400 . S
C257 C256 1.385 . S
C258 C256 1.478 . S
C258 C260 1.381 . S
C258 C264 1.383 . S
C259 C255 1.495 . S
C259 H265 0.959 . S
C259 H266 0.961 . S
C259 H267 0.960 . S
C260 C258 1.381 . S
C260 C261 1.394 . S
C260 H268 0.930 . S
C261 C260 1.394 . S
C261 C262 1.387 . S
C261 H269 0.929 1_554 S
C262 C261 1.387 . S
C262 C263 1.392 . S
C263 H247 0.930 . S
C263 C262 1.392 . S
C263 C264 1.379 . S
C264 H248 0.931 . S
C264 C258 1.383 . S
C264 C263 1.379 . S
H265 C259 0.959 . S
H266 C259 0.961 . S
H267 C259 0.960 . S
H268 C260 0.930 . S
H269 C261 0.929 1_556 S
H270 C278 0.929 1_556 S
H271 C280 0.930 . S
H272 C282 0.930 . S
H273 C285 0.929 . S
H274 C288 0.930 . S
H275 C290 0.960 . S
H276 C290 0.960 . S
H277 C290 0.960 . S
C278 H270 0.929 1_554 S
C278 C279 1.381 . S
C278 C280 1.384 . S
C279 C278 1.381 . S
C279 C285 1.415 . S
C280 H271 0.930 . S
C280 C278 1.384 . S
C280 C281 1.372 . S
C281 C280 1.372 . S
C281 C282 1.400 . S
C281 C286 1.490 . S
C282 H272 0.930 . S
C282 C281 1.400 . S
C282 C285 1.386 . S
H283 C299 0.930 . S
H284 C300 0.931 . S
C285 H273 0.929 . S
C285 C279 1.415 . S
C285 C282 1.386 . S
C286 C281 1.490 . S
C286 C288 1.395 . S
C286 C289 1.403 . S
H287 C293 0.930 . S
C288 H274 0.930 . S
C288 C286 1.395 . S
C288 C291 1.403 . S
C289 C286 1.403 . S
C289 C290 1.524 . S
C289 C293 1.400 . S
C290 H275 0.960 . S
C290 H276 0.960 . S
C290 H277 0.960 . S
C290 C289 1.524 . S
C291 C288 1.403 . S
C291 C292 1.392 . S
C291 C295 1.495 . S
C292 C291 1.392 . S
C292 C293 1.385 . S
C292 C294 1.478 . S
C293 H287 0.930 . S
C293 C289 1.400 . S
C293 C292 1.385 . S
C294 C292 1.478 . S
C294 C296 1.381 . S
C294 C300 1.383 . S
C295 C291 1.495 . S
C295 H301 0.959 . S
C295 H302 0.961 . S
C295 H303 0.960 . S
C296 C294 1.381 . S
C296 C297 1.394 . S
C296 H304 0.930 . S
C297 C296 1.394 . S
C297 C298 1.383 . S
C297 H305 0.929 . S
C298 C297 1.383 . S
C298 C299 1.377 . S
C299 H283 0.930 . S
C299 C298 1.377 . S
C299 C300 1.379 . S
C300 H284 0.931 . S
C300 C294 1.383 . S
C300 C299 1.379 . S
H301 C295 0.959 . S
H302 C295 0.961 . S
H303 C295 0.960 . S
H304 C296 0.930 . S
H305 C297 0.929 . S
H306 C314 0.929 . S
H307 C316 0.930 . S
H308 C318 0.930 . S
H309 C321 0.929 . S
H310 C324 0.930 . S
H311 C326 0.981 . S
H312 C326 0.960 1_545 S
H313 C326 0.960 . S
C314 H306 0.929 . S
C314 C315 1.377 . S
C314 C316 1.384 . S
C315 C314 1.377 . S
C315 C321 1.390 . S
C316 H307 0.930 . S
C316 C314 1.384 . S
C316 C317 1.372 . S
C317 C316 1.372 . S
C317 C318 1.400 . S
C317 C322 1.490 . S
C318 H308 0.930 . S
C318 C317 1.400 . S
C318 C321 1.386 . S
H319 C335 0.930 . S
H320 C336 0.931 . S
C321 H309 0.929 . S
C321 C315 1.390 . S
C321 C318 1.386 . S
C322 C317 1.490 . S
C322 C324 1.395 . S
C322 C325 1.403 . S
H323 C329 0.930 . S
C324 H310 0.930 . S
C324 C322 1.395 . S
C324 C327 1.403 . S
C325 C322 1.403 . S
C325 C326 1.524 . S
C325 C329 1.400 . S
C326 H311 0.981 . S
C326 H312 0.960 1_565 S
C326 H313 0.960 . S
C326 C325 1.524 . S
C327 C324 1.403 . S
C327 C328 1.392 . S
C327 C331 1.495 . S
C328 C327 1.392 . S
C328 C329 1.385 . S
C328 C330 1.478 . S
C329 H323 0.930 . S
C329 C325 1.400 . S
C329 C328 1.385 . S
C330 C328 1.478 . S
C330 C332 1.381 . S
C330 C336 1.383 . S
C331 C327 1.495 . S
C331 H337 0.959 . S
C331 H338 0.961 . S
C331 H339 0.960 . S
C332 C330 1.381 . S
C332 C333 1.394 1_554 S
C332 H340 0.930 . S
C333 C332 1.394 1_556 S
C333 C334 1.383 . S
C333 H341 0.929 . S
C334 C333 1.383 . S
C334 C335 1.377 1_556 S
C335 H319 0.930 . S
C335 C334 1.377 1_554 S
C335 C336 1.379 . S
C336 H320 0.931 . S
C336 C330 1.383 . S
C336 C335 1.379 . S
H337 C331 0.959 . S
H338 C331 0.961 . S
H339 C331 0.960 . S
H340 C332 0.930 . S
H341 C333 0.929 . S
H342 C350 0.929 . S
H343 C352 0.930 . S
H344 C354 0.930 . S
H345 C357 0.929 . S
H346 C360 0.930 . S
H347 C362 0.960 . S
H348 C362 0.960 . S
H349 C362 0.960 . S
C350 H342 0.929 . S
C350 C351 1.377 . S
C350 C352 1.384 . S
C351 C350 1.377 . S
C351 C357 1.390 . S
C352 H343 0.930 . S
C352 C350 1.384 . S
C352 C353 1.372 . S
C353 C352 1.372 . S
C353 C354 1.400 . S
C353 C358 1.490 . S
C354 H344 0.930 . S
C354 C353 1.400 . S
C354 C357 1.386 . S
H355 C371 0.930 . S
H356 C372 0.931 . S
C357 H345 0.929 . S
C357 C351 1.390 . S
C357 C354 1.386 . S
C358 C353 1.490 . S
C358 C360 1.395 . S
C358 C361 1.403 . S
H359 C365 0.930 . S
C360 H346 0.930 . S
C360 C358 1.395 . S
C360 C363 1.403 . S
C361 C358 1.403 . S
C361 C362 1.524 . S
C361 C365 1.400 . S
C362 H347 0.960 . S
C362 H348 0.960 . S
C362 H349 0.960 . S
C362 C361 1.524 . S
C363 C360 1.403 . S
C363 C364 1.392 . S
C363 C367 1.495 . S
C364 C363 1.392 . S
C364 C365 1.385 . S
C364 C366 1.478 . S
C365 H359 0.930 . S
C365 C361 1.400 . S
C365 C364 1.385 . S
C366 C364 1.478 . S
C366 C368 1.381 . S
C366 C372 1.383 . S
C367 C363 1.495 . S
C367 H373 0.959 . S
C367 H374 0.961 . S
C367 H375 0.960 . S
C368 C366 1.381 . S
C368 C369 1.394 . S
C368 H376 0.930 . S
C369 C368 1.394 . S
C369 C370 1.383 . S
C369 H377 0.929 . S
C370 C369 1.383 . S
C370 C371 1.377 . S
C371 H355 0.930 . S
C371 C370 1.377 . S
C371 C372 1.379 . S
C372 H356 0.931 . S
C372 C366 1.383 . S
C372 C371 1.379 . S
H373 C367 0.959 . S
H374 C367 0.961 . S
H375 C367 0.960 . S
H376 C368 0.930 . S
H377 C369 0.929 . S
H378 C386 0.929 . S
H379 C388 0.930 . S
H380 C390 0.930 . S
H381 C393 0.929 . S
H382 C396 0.930 . S
H383 C398 0.960 . S
H384 C398 0.960 . S
H385 C398 0.960 . S
C386 H378 0.929 . S
C386 C387 1.377 . S
C386 C388 1.384 . S
C387 C386 1.377 . S
C387 C393 1.390 . S
C388 H379 0.930 . S
C388 C386 1.384 . S
C388 C389 1.372 . S
C389 C388 1.372 . S
C389 C390 1.400 . S
C389 C394 1.490 . S
C390 H380 0.930 . S
C390 C389 1.400 . S
C390 C393 1.386 . S
H391 C407 0.931 1_455 S
H392 C408 0.907 1_455 S
C393 H381 0.929 . S
C393 C387 1.390 . S
C393 C390 1.386 . S
C394 C389 1.490 . S
C394 C396 1.395 . S
C394 C397 1.403 . S
H395 C401 0.930 . S
C396 H382 0.930 . S
C396 C394 1.395 . S
C396 C399 1.403 . S
C397 C394 1.403 . S
C397 C398 1.524 . S
C397 C401 1.400 . S
C398 H383 0.960 . S
C398 H384 0.960 . S
C398 H385 0.960 . S
C398 C397 1.524 . S
C399 C396 1.403 . S
C399 C400 1.392 . S
C399 C403 1.495 . S
C400 C399 1.392 . S
C400 C401 1.385 . S
C400 C402 1.478 . S
C401 H395 0.930 . S
C401 C397 1.400 . S
C401 C400 1.385 . S
C402 C400 1.478 . S
C402 C404 1.381 . S
C402 C408 1.383 . S
C403 C399 1.495 . S
C403 H409 0.959 . S
C403 H410 0.961 . S
C403 H411 0.960 . S
C404 C402 1.381 . S
C404 C405 1.394 . S
C404 H412 0.930 . S
C405 C404 1.394 . S
C405 C406 1.383 . S
C405 H413 0.929 . S
C406 C405 1.383 . S
C406 C407 1.375 . S
C407 H391 0.931 1_655 S
C407 C406 1.375 . S
C407 C408 1.379 . S
C408 H392 0.907 1_655 S
C408 C402 1.383 . S
C408 C407 1.379 . S
H409 C403 0.959 . S
H410 C403 0.961 . S
H411 C403 0.960 . S
H412 C404 0.930 . S
H413 C405 0.929 . S
H414 C422 0.929 . S
H415 C424 0.930 . S
H416 C426 0.930 . S
H417 C429 0.929 . S
H418 C432 0.930 . S
H419 C434 0.960 . S
H420 C434 0.960 . S
H421 C434 0.960 . S
C422 H414 0.929 . S
C422 C423 1.377 . S
C422 C424 1.384 . S
C423 C422 1.377 . S
C423 C429 1.390 . S
C424 H415 0.930 . S
C424 C422 1.384 . S
C424 C425 1.372 . S
C425 C424 1.372 . S
C425 C426 1.400 . S
C425 C430 1.490 . S
C426 H416 0.930 . S
C426 C425 1.400 . S
C426 C429 1.386 . S
H427 C443 0.930 . S
H428 C444 0.931 . S
C429 H417 0.929 . S
C429 C423 1.390 . S
C429 C426 1.386 . S
C430 C425 1.490 . S
C430 C432 1.395 . S
C430 C433 1.403 . S
H431 C437 0.930 . S
C432 H418 0.930 . S
C432 C430 1.395 . S
C432 C435 1.403 . S
C433 C430 1.403 . S
C433 C434 1.524 . S
C433 C437 1.400 . S
C434 H419 0.960 . S
C434 H420 0.960 . S
C434 H421 0.960 . S
C434 C433 1.524 . S
C435 C432 1.403 . S
C435 C436 1.392 . S
C435 C439 1.495 . S
C436 C435 1.392 . S
C436 C437 1.385 . S
C436 C438 1.478 . S
C437 H431 0.930 . S
C437 C433 1.400 . S
C437 C436 1.385 . S
C438 C436 1.478 . S
C438 C440 1.381 . S
C438 C444 1.383 . S
C439 C435 1.495 . S
C439 H445 0.959 . S
C439 H446 0.961 . S
C439 H447 0.960 . S
C440 C438 1.381 . S
C440 C441 1.394 . S
C440 H448 0.930 . S
C441 C440 1.394 . S
C441 C442 1.383 . S
C441 H449 0.929 . S
C442 C441 1.383 . S
C442 C443 1.377 . S
C443 H427 0.930 . S
C443 C442 1.377 . S
C443 C444 1.379 . S
C444 H428 0.931 . S
C444 C438 1.383 . S
C444 C443 1.379 . S
H445 C439 0.959 . S
H446 C439 0.961 . S
H447 C439 0.960 . S
H448 C440 0.930 . S
H449 C441 0.929 . S
H450 C458 0.929 . S
H451 C460 0.930 . S
H452 C462 0.930 . S
H453 C465 0.929 . S
H454 C468 0.930 . S
H455 C470 0.962 . S
H456 C470 0.962 . S
H457 C470 0.941 . S
C458 H450 0.929 . S
C458 C459 1.377 . S
C458 C460 1.384 . S
C459 C458 1.377 . S
C459 C465 1.390 . S
C460 H451 0.930 . S
C460 C458 1.384 . S
C460 C461 1.372 . S
C461 C460 1.372 . S
C461 C462 1.400 . S
C461 C466 1.490 . S
C462 H452 0.930 . S
C462 C461 1.400 . S
C462 C465 1.386 . S
H463 C479 0.930 . S
H464 C480 0.931 . S
C465 H453 0.929 . S
C465 C459 1.390 . S
C465 C462 1.386 . S
C466 C461 1.490 . S
C466 C468 1.395 . S
C466 C469 1.403 . S
H467 C473 0.930 . S
C468 H454 0.930 . S
C468 C466 1.395 . S
C468 C471 1.403 . S
C469 C466 1.403 . S
C469 C470 1.516 1_655 S
C469 C473 1.400 . S
C470 H455 0.962 . S
C470 H456 0.962 . S
C470 H457 0.941 . S
C470 C469 1.516 1_455 S
C471 C468 1.403 . S
C471 C472 1.392 . S
C471 C475 1.495 . S
C472 C471 1.392 . S
C472 C473 1.385 . S
C472 C474 1.478 . S
C473 H467 0.930 . S
C473 C469 1.400 . S
C473 C472 1.385 . S
C474 C472 1.478 . S
C474 C476 1.381 . S
C474 C480 1.383 . S
C475 C471 1.495 . S
C475 H481 0.959 . S
C475 H482 0.961 . S
C475 H483 0.960 . S
C476 C474 1.381 . S
C476 C477 1.394 . S
C476 H484 0.930 . S
C477 C476 1.394 . S
C477 C478 1.378 1_556 S
C477 H485 0.929 . S
C478 C477 1.378 1_554 S
C478 C479 1.377 . S
C479 H463 0.930 . S
C479 C478 1.377 . S
C479 C480 1.379 1_554 S
C480 H464 0.931 . S
C480 C474 1.383 . S
C480 C479 1.379 1_556 S
H481 C475 0.959 . S
H482 C475 0.961 . S
H483 C475 0.960 . S
H484 C476 0.930 . S
H485 C477 0.929 . S
H486 C494 0.929 1_554 S
H487 C496 0.930 . S
H488 C498 0.930 . S
H489 C501 0.929 . S
H490 C504 0.930 . S
H491 C506 0.960 . S
H492 C506 0.960 . S
H493 C506 0.960 . S
C494 H486 0.929 1_556 S
C494 C495 1.377 1_556 S
C494 C496 1.384 . S
C495 C494 1.377 1_554 S
C495 C501 1.390 1_554 S
C496 H487 0.930 . S
C496 C494 1.384 . S
C496 C497 1.372 . S
C497 C496 1.372 . S
C497 C498 1.400 . S
C497 C502 1.490 . S
C498 H488 0.930 . S
C498 C497 1.400 . S
C498 C501 1.386 . S
H499 C515 0.930 . S
H500 C516 0.931 . S
C501 H489 0.929 . S
C501 C495 1.390 1_556 S
C501 C498 1.386 . S
C502 C497 1.490 . S
C502 C504 1.395 . S
C502 C505 1.403 . S
H503 C509 0.930 . S
C504 H490 0.930 . S
C504 C502 1.395 . S
C504 C507 1.403 . S
C505 C502 1.403 . S
C505 C506 1.524 . S
C505 C509 1.400 . S
C506 H491 0.960 . S
C506 H492 0.960 . S
C506 H493 0.960 . S
C506 C505 1.524 . S
C507 C504 1.403 . S
C507 C508 1.392 . S
C507 C511 1.495 . S
C508 C507 1.392 . S
C508 C509 1.385 . S
C508 C510 1.478 . S
C509 H503 0.930 . S
C509 C505 1.400 . S
C509 C508 1.385 . S
C510 C508 1.478 . S
C510 C512 1.381 . S
C510 C516 1.383 . S
C511 C507 1.495 . S
C511 H517 0.959 . S
C511 H518 0.961 . S
C511 H519 0.960 . S
C512 C510 1.381 . S
C512 C513 1.394 . S
C512 H520 0.930 . S
C513 C512 1.394 . S
C513 C514 1.383 . S
C513 H521 0.929 . S
C514 C513 1.383 . S
C514 C515 1.377 . S
C515 H499 0.930 . S
C515 C514 1.377 . S
C515 C516 1.379 . S
C516 H500 0.931 . S
C516 C510 1.383 . S
C516 C515 1.379 . S
H517 C511 0.959 . S
H518 C511 0.961 . S
H519 C511 0.960 . S
H520 C512 0.930 . S
H521 C513 0.929 . S
H522 C530 0.929 . S
H523 C532 0.930 . S
H524 C534 0.930 . S
H525 C537 0.929 . S
H526 C540 0.930 . S
H527 C542 0.960 . S
H528 C542 0.960 . S
H529 C542 0.960 . S
C530 H522 0.929 . S
C530 C531 1.377 1_556 S
C530 C532 1.384 . S
C531 C530 1.377 1_554 S
C531 C537 1.390 . S
C532 H523 0.930 . S
C532 C530 1.384 . S
C532 C533 1.372 . S
C533 C532 1.372 . S
C533 C534 1.400 . S
C533 C538 1.490 . S
C534 H524 0.930 . S
C534 C533 1.400 . S
C534 C537 1.386 1_556 S
H535 C551 0.930 . S
H536 C552 0.931 . S
C537 H525 0.929 . S
C537 C531 1.390 . S
C537 C534 1.386 1_554 S
C538 C533 1.490 . S
C538 C540 1.395 . S
C538 C541 1.403 . S
H539 C545 0.930 . S
C540 H526 0.930 . S
C540 C538 1.395 . S
C540 C543 1.403 . S
C541 C538 1.403 . S
C541 C542 1.524 . S
C541 C545 1.400 . S
C542 H527 0.960 . S
C542 H528 0.960 . S
C542 H529 0.960 . S
C542 C541 1.524 . S
C543 C540 1.403 . S
C543 C544 1.392 . S
C543 C547 1.495 . S
C544 C543 1.392 . S
C544 C545 1.385 . S
C544 C546 1.478 . S
C545 H539 0.930 . S
C545 C541 1.400 . S
C545 C544 1.385 . S
C546 C544 1.478 . S
C546 C548 1.381 . S
C546 C552 1.383 . S
C547 C543 1.495 . S
C547 H553 0.959 . S
C547 H554 0.961 . S
C547 H555 0.960 . S
C548 C546 1.381 . S
C548 C549 1.394 . S
C548 H556 0.930 . S
C549 C548 1.394 . S
C549 C550 1.383 . S
C549 H557 0.929 . S
C550 C549 1.383 . S
C550 C551 1.377 . S
C551 H535 0.930 . S
C551 C550 1.377 . S
C551 C552 1.379 . S
C552 H536 0.931 . S
C552 C546 1.383 . S
C552 C551 1.379 . S
H553 C547 0.959 . S
H554 C547 0.961 . S
H555 C547 0.960 . S
H556 C548 0.930 . S
H557 C549 0.929 . S
H558 C566 0.929 1_545 S
H559 C568 0.930 1_545 S
H560 C570 0.930 . S
H561 C573 0.929 . S
H562 C576 0.930 . S
H563 C578 0.960 . S
H564 C578 0.960 . S
H565 C578 0.960 . S
C566 H558 0.929 1_565 S
C566 C567 1.377 . S
C566 C568 1.384 . S
C567 C566 1.377 . S
C567 C573 1.390 . S
C568 H559 0.930 1_565 S
C568 C566 1.384 . S
C568 C569 1.372 . S
C569 C568 1.372 . S
C569 C570 1.400 . S
C569 C574 1.490 . S
C570 H560 0.930 . S
C570 C569 1.400 . S
C570 C573 1.386 . S
H571 C587 0.930 . S
H572 C588 0.931 . S
C573 H561 0.929 . S
C573 C567 1.390 . S
C573 C570 1.386 . S
C574 C569 1.490 . S
C574 C576 1.395 . S
C574 C577 1.403 . S
H575 C581 0.930 . S
C576 H562 0.930 . S
C576 C574 1.395 . S
C576 C579 1.403 . S
C577 C574 1.403 . S
C577 C578 1.524 . S
C577 C581 1.400 . S
C578 H563 0.960 . S
C578 H564 0.960 . S
C578 H565 0.960 . S
C578 C577 1.524 . S
C579 C576 1.403 . S
C579 C580 1.392 . S
C579 C583 1.495 . S
C580 C579 1.392 . S
C580 C581 1.385 . S
C580 C582 1.478 . S
C581 H575 0.930 . S
C581 C577 1.400 . S
C581 C580 1.385 . S
C582 C580 1.478 . S
C582 C584 1.381 . S
C582 C588 1.383 . S
C583 C579 1.495 . S
C583 H589 0.959 . S
C583 H590 0.961 . S
C583 H591 0.960 . S
C584 C582 1.381 . S
C584 C585 1.394 . S
C584 H592 0.930 . S
C585 C584 1.394 . S
C585 C586 1.383 . S
C585 H593 0.929 . S
C586 C585 1.383 . S
C586 C587 1.377 . S
C587 H571 0.930 . S
C587 C586 1.377 . S
C587 C588 1.379 . S
C588 H572 0.931 . S
C588 C582 1.383 . S
C588 C587 1.379 . S
H589 C583 0.959 . S
H590 C583 0.961 . S
H591 C583 0.960 . S
H592 C584 0.930 . S
H593 C585 0.929 . S
H594 C602 0.929 . S
H595 C604 0.930 . S
H596 C606 0.930 . S
H597 C609 0.929 . S
H598 C612 0.930 . S
H599 C614 0.960 . S
H600 C614 0.960 . S
H601 C614 0.960 . S
C602 H594 0.929 . S
C602 C603 1.377 . S
C602 C604 1.384 . S
C603 C602 1.377 . S
C603 C609 1.390 . S
C604 H595 0.930 . S
C604 C602 1.384 . S
C604 C605 1.372 . S
C605 C604 1.372 . S
C605 C606 1.400 . S
C605 C610 1.490 . S
C606 H596 0.930 . S
C606 C605 1.400 . S
C606 C609 1.386 . S
H607 C623 0.930 . S
H608 C624 0.931 . S
C609 H597 0.929 . S
C609 C603 1.390 . S
C609 C606 1.386 . S
C610 C605 1.490 . S
C610 C612 1.395 . S
C610 C613 1.403 . S
H611 C617 0.930 . S
C612 H598 0.930 . S
C612 C610 1.395 . S
C612 C615 1.403 . S
C613 C610 1.403 . S
C613 C614 1.524 . S
C613 C617 1.400 . S
C614 H599 0.960 . S
C614 H600 0.960 . S
C614 H601 0.960 . S
C614 C613 1.524 . S
C615 C612 1.403 . S
C615 C616 1.392 . S
C615 C619 1.495 . S
C616 C615 1.392 . S
C616 C617 1.385 . S
C616 C618 1.478 . S
C617 H611 0.930 . S
C617 C613 1.400 . S
C617 C616 1.385 . S
C618 C616 1.478 . S
C618 C620 1.381 . S
C618 C624 1.383 . S
C619 C615 1.495 . S
C619 H625 0.959 . S
C619 H626 0.961 . S
C619 H627 0.960 . S
C620 C618 1.381 . S
C620 C621 1.394 . S
C620 H628 0.930 . S
C621 C620 1.394 . S
C621 C622 1.383 . S
C621 H629 0.929 . S
C622 C621 1.383 . S
C622 C623 1.377 . S
C623 H607 0.930 . S
C623 C622 1.377 . S
C623 C624 1.379 . S
C624 H608 0.931 . S
C624 C618 1.383 . S
C624 C623 1.379 . S
H625 C619 0.959 . S
H626 C619 0.961 . S
H627 C619 0.960 . S
H628 C620 0.930 . S
H629 C621 0.929 . S
H630 C638 0.929 . S
H631 C640 0.930 . S
H632 C642 0.930 . S
H633 C645 0.929 . S
H634 C648 0.930 . S
H635 C650 0.960 . S
H636 C650 0.960 . S
H637 C650 0.960 . S
C638 H630 0.929 . S
C638 C639 1.377 . S
C638 C640 1.384 . S
C639 C638 1.377 . S
C639 C645 1.390 . S
C640 H631 0.930 . S
C640 C638 1.384 . S
C640 C641 1.372 . S
C641 C640 1.372 . S
C641 C642 1.400 . S
C641 C646 1.490 . S
C642 H632 0.930 . S
C642 C641 1.400 . S
C642 C645 1.386 . S
H643 C659 0.930 . S
H644 C660 0.931 . S
C645 H633 0.929 . S
C645 C639 1.390 . S
C645 C642 1.386 . S
C646 C641 1.490 . S
C646 C648 1.395 . S
C646 C649 1.403 . S
H647 C653 0.930 . S
C648 H634 0.930 . S
C648 C646 1.395 . S
C648 C651 1.403 . S
C649 C646 1.403 . S
C649 C650 1.524 . S
C649 C653 1.400 . S
C650 H635 0.960 . S
C650 H636 0.960 . S
C650 H637 0.960 . S
C650 C649 1.524 . S
C651 C648 1.403 . S
C651 C652 1.392 . S
C651 C655 1.495 . S
C652 C651 1.392 . S
C652 C653 1.385 . S
C652 C654 1.478 . S
C653 H647 0.930 . S
C653 C649 1.400 . S
C653 C652 1.385 . S
C654 C652 1.478 . S
C654 C656 1.381 . S
C654 C660 1.383 . S
C655 C651 1.495 . S
C655 H661 0.959 . S
C655 H662 0.961 . S
C655 H663 0.960 . S
C656 C654 1.381 . S
C656 C657 1.394 . S
C656 H664 0.930 . S
C657 C656 1.394 . S
C657 C658 1.383 . S
C657 H665 0.929 . S
C658 C657 1.383 . S
C658 C659 1.377 . S
C659 H643 0.930 . S
C659 C658 1.377 . S
C659 C660 1.379 . S
C660 H644 0.931 . S
C660 C654 1.383 . S
C660 C659 1.379 . S
H661 C655 0.959 . S
H662 C655 0.961 . S
H663 C655 0.960 . S
H664 C656 0.930 . S
H665 C657 0.929 . S
H666 C674 0.929 . S
H667 C676 0.930 . S
H668 C678 0.930 . S
H669 C681 0.929 . S
H670 C684 0.930 . S
H671 C686 0.960 . S
H672 C686 0.960 . S
H673 C686 0.960 . S
C674 H666 0.929 . S
C674 C675 1.377 . S
C674 C676 1.384 . S
C675 C674 1.377 . S
C675 C681 1.390 . S
C676 H667 0.930 . S
C676 C674 1.384 . S
C676 C677 1.372 . S
C677 C676 1.372 . S
C677 C678 1.400 . S
C677 C682 1.490 . S
C678 H668 0.930 . S
C678 C677 1.400 . S
C678 C681 1.386 . S
H679 C695 0.930 . S
H680 C696 0.931 . S
C681 H669 0.929 . S
C681 C675 1.390 . S
C681 C678 1.386 . S
C682 C677 1.490 . S
C682 C684 1.395 . S
C682 C685 1.403 . S
H683 C689 0.930 . S
C684 H670 0.930 . S
C684 C682 1.395 . S
C684 C687 1.403 . S
C685 C682 1.403 . S
C685 C686 1.524 . S
C685 C689 1.400 . S
C686 H671 0.960 . S
C686 H672 0.960 . S
C686 H673 0.960 . S
C686 C685 1.524 . S
C687 C684 1.403 . S
C687 C688 1.392 . S
C687 C691 1.495 . S
C688 C687 1.392 . S
C688 C689 1.385 . S
C688 C690 1.478 . S
C689 H683 0.930 . S
C689 C685 1.400 . S
C689 C688 1.385 . S
C690 C688 1.478 . S
C690 C692 1.381 . S
C690 C696 1.383 . S
C691 C687 1.495 . S
C691 H697 0.959 . S
C691 H698 0.961 . S
C691 H699 0.960 . S
C692 C690 1.381 . S
C692 C693 1.394 . S
C692 H700 0.930 . S
C693 C692 1.394 . S
C693 C694 1.383 . S
C693 H701 0.929 . S
C694 C693 1.383 . S
C694 C695 1.377 . S
C695 H679 0.930 . S
C695 C694 1.377 . S
C695 C696 1.379 . S
C696 H680 0.931 . S
C696 C690 1.383 . S
C696 C695 1.379 . S
H697 C691 0.959 . S
H698 C691 0.961 . S
H699 C691 0.960 . S
H700 C692 0.930 . S
H701 C693 0.929 . S
H702 C710 0.929 . S
H703 C712 0.930 . S
H704 C714 0.930 . S
H705 C717 0.929 . S
H706 C720 0.930 . S
H707 C722 0.960 . S
H708 C722 0.960 . S
H709 C722 0.960 . S
C710 H702 0.929 . S
C710 C711 1.377 . S
C710 C712 1.384 . S
C711 C710 1.377 . S
C711 C717 1.390 . S
C712 H703 0.930 . S
C712 C710 1.384 . S
C712 C713 1.372 . S
C713 C712 1.372 . S
C713 C714 1.400 . S
C713 C718 1.490 . S
C714 H704 0.930 . S
C714 C713 1.400 . S
C714 C717 1.386 . S
H715 C731 0.930 . S
H716 C732 0.931 . S
C717 H705 0.929 . S
C717 C711 1.390 . S
C717 C714 1.386 . S
C718 C713 1.490 . S
C718 C720 1.395 . S
C718 C721 1.403 . S
H719 C725 0.930 . S
C720 H706 0.930 . S
C720 C718 1.395 . S
C720 C723 1.403 1_545 S
C721 C718 1.403 . S
C721 C722 1.524 . S
C721 C725 1.400 . S
C722 H707 0.960 . S
C722 H708 0.960 . S
C722 H709 0.960 . S
C722 C721 1.524 . S
C723 C720 1.403 1_565 S
C723 C724 1.392 . S
C723 C727 1.495 . S
C724 C723 1.392 . S
C724 C725 1.385 1_565 S
C724 C726 1.478 . S
C725 H719 0.930 . S
C725 C721 1.400 . S
C725 C724 1.385 1_545 S
C726 C724 1.478 . S
C726 C728 1.381 . S
C726 C732 1.383 . S
C727 C723 1.495 . S
C727 H733 0.959 . S
C727 H734 0.961 . S
C727 H735 0.960 . S
C728 C726 1.381 . S
C728 C729 1.394 . S
C728 H736 0.930 . S
C729 C728 1.394 . S
C729 C730 1.383 . S
C729 H737 0.929 . S
C730 C729 1.383 . S
C730 C731 1.377 . S
C731 H715 0.930 . S
C731 C730 1.377 . S
C731 C732 1.379 . S
C732 H716 0.931 . S
C732 C726 1.383 . S
C732 C731 1.379 . S
H733 C727 0.959 . S
H734 C727 0.961 . S
H735 C727 0.960 . S
H736 C728 0.930 . S
H737 C729 0.929 . S
H738 C746 0.929 . S
H739 C748 0.930 . S
H740 C750 0.930 . S
H741 C753 0.929 . S
H742 C756 0.930 . S
H743 C758 0.960 . S
H744 C758 0.960 . S
H745 C758 0.960 . S
C746 H738 0.929 . S
C746 C747 1.377 . S
C746 C748 1.384 . S
C747 C746 1.377 . S
C747 C753 1.390 . S
C748 H739 0.930 . S
C748 C746 1.384 . S
C748 C749 1.372 . S
C749 C748 1.372 . S
C749 C750 1.400 . S
C749 C754 1.490 . S
C750 H740 0.930 . S
C750 C749 1.400 . S
C750 C753 1.386 . S
H751 C767 0.930 . S
H752 C768 0.931 1_455 S
C753 H741 0.929 . S
C753 C747 1.390 . S
C753 C750 1.386 . S
C754 C749 1.490 . S
C754 C756 1.395 . S
C754 C757 1.403 . S
H755 C761 0.930 . S
C756 H742 0.930 . S
C756 C754 1.395 . S
C756 C759 1.403 1_455 S
C757 C754 1.403 . S
C757 C758 1.524 . S
C757 C761 1.400 . S
C758 H743 0.960 . S
C758 H744 0.960 . S
C758 H745 0.960 . S
C758 C757 1.524 . S
C759 C756 1.403 1_655 S
C759 C760 1.392 . S
C759 C763 1.495 . S
C760 C759 1.392 . S
C760 C761 1.385 1_655 S
C760 C762 1.478 . S
C761 H755 0.930 . S
C761 C757 1.400 . S
C761 C760 1.385 1_455 S
C762 C760 1.478 . S
C762 C764 1.381 . S
C762 C768 1.383 . S
C763 C759 1.495 . S
C763 H769 0.959 . S
C763 H770 0.961 . S
C763 H771 0.960 . S
C764 C762 1.381 . S
C764 C765 1.394 . S
C764 H772 0.930 . S
C765 C764 1.394 . S
C765 C766 1.383 . S
C765 H773 0.929 . S
C766 C765 1.383 . S
C766 C767 1.377 . S
C767 H751 0.930 . S
C767 C766 1.377 . S
C767 C768 1.379 . S
C768 H752 0.931 1_655 S
C768 C762 1.383 . S
C768 C767 1.379 . S
H769 C763 0.959 . S
H770 C763 0.961 . S
H771 C763 0.960 . S
H772 C764 0.930 . S
H773 C765 0.929 . S
H774 C782 0.929 . S
H775 C784 0.930 . S
H776 C786 0.930 . S
H777 C789 0.929 . S
H778 C792 0.930 . S
H779 C794 0.960 . S
H780 C794 0.960 . S
H781 C794 0.960 . S
C782 H774 0.929 . S
C782 C783 1.377 . S
C782 C784 1.384 . S
C783 C782 1.377 . S
C783 C789 1.390 . S
C784 H775 0.930 . S
C784 C782 1.384 . S
C784 C785 1.372 . S
C785 C784 1.372 . S
C785 C786 1.400 . S
C785 C790 1.490 . S
C786 H776 0.930 . S
C786 C785 1.400 . S
C786 C789 1.386 . S
H787 C803 0.930 . S
H788 C804 0.931 . S
C789 H777 0.929 . S
C789 C783 1.390 . S
C789 C786 1.386 . S
C790 C785 1.490 . S
C790 C792 1.395 . S
C790 C793 1.403 . S
H791 C797 0.930 . S
C792 H778 0.930 . S
C792 C790 1.395 . S
C792 C795 1.403 . S
C793 C790 1.403 . S
C793 C794 1.524 . S
C793 C797 1.400 . S
C794 H779 0.960 . S
C794 H780 0.960 . S
C794 H781 0.960 . S
C794 C793 1.524 . S
C795 C792 1.403 . S
C795 C796 1.392 . S
C795 C799 1.495 . S
C796 C795 1.392 . S
C796 C797 1.385 . S
C796 C798 1.478 . S
C797 H791 0.930 . S
C797 C793 1.400 . S
C797 C796 1.385 . S
C798 C796 1.478 . S
C798 C800 1.381 . S
C798 C804 1.383 . S
C799 C795 1.495 . S
C799 H805 0.959 . S
C799 H806 0.961 . S
C799 H807 0.960 . S
C800 C798 1.381 . S
C800 C801 1.394 . S
C800 H808 0.930 . S
C801 C800 1.394 . S
C801 C802 1.383 . S
C801 H809 0.929 . S
C802 C801 1.383 . S
C802 C803 1.377 . S
C803 H787 0.930 . S
C803 C802 1.377 . S
C803 C804 1.379 . S
C804 H788 0.931 . S
C804 C798 1.383 . S
C804 C803 1.379 . S
H805 C799 0.959 . S
H806 C799 0.961 . S
H807 C799 0.960 . S
H808 C800 0.930 . S
H809 C801 0.929 . S
H810 C818 0.929 . S
H811 C820 0.930 . S
H812 C822 0.930 . S
H813 C825 0.929 . S
H814 C828 0.930 . S
H815 C830 0.960 . S
H816 C830 0.960 . S
H817 C830 0.960 . S
C818 H810 0.929 . S
C818 C819 1.377 . S
C818 C820 1.384 . S
C819 C818 1.377 . S
C819 C825 1.390 . S
C820 H811 0.930 . S
C820 C818 1.384 . S
C820 C821 1.372 . S
C821 C820 1.372 . S
C821 C822 1.400 . S
C821 C826 1.490 . S
C822 H812 0.930 . S
C822 C821 1.400 . S
C822 C825 1.386 . S
H823 C839 0.930 . S
H824 C840 0.931 . S
C825 H813 0.929 . S
C825 C819 1.390 . S
C825 C822 1.386 . S
C826 C821 1.490 . S
C826 C828 1.395 . S
C826 C829 1.403 . S
H827 C833 0.930 . S
C828 H814 0.930 . S
C828 C826 1.395 . S
C828 C831 1.403 . S
C829 C826 1.403 . S
C829 C830 1.524 . S
C829 C833 1.400 1_545 S
C830 H815 0.960 . S
C830 H816 0.960 . S
C830 H817 0.960 . S
C830 C829 1.524 . S
C831 C828 1.403 . S
C831 C832 1.392 1_545 S
C831 C835 1.507 . S
C832 C831 1.392 1_565 S
C832 C833 1.385 . S
C832 C834 1.478 . S
C833 H827 0.930 . S
C833 C829 1.400 1_565 S
C833 C832 1.385 . S
C834 C832 1.478 . S
C834 C836 1.381 . S
C834 C840 1.383 . S
C835 C831 1.507 . S
C835 H841 0.961 . S
C835 H842 0.967 . S
C835 H843 0.940 1_545 S
C836 C834 1.381 . S
C836 C837 1.394 . S
C836 H844 0.930 . S
C837 C836 1.394 . S
C837 C838 1.383 . S
C837 H845 0.929 . S
C838 C837 1.383 . S
C838 C839 1.377 . S
C839 H823 0.930 . S
C839 C838 1.377 . S
C839 C840 1.379 . S
C840 H824 0.931 . S
C840 C834 1.383 . S
C840 C839 1.379 . S
H841 C835 0.961 . S
H842 C835 0.967 . S
H843 C835 0.940 1_565 S
H844 C836 0.930 . S
H845 C837 0.929 . S
H846 C854 0.929 . S
H847 C856 0.930 . S
H848 C858 0.930 . S
H849 C861 0.929 . S
H850 C864 0.930 . S
H851 C866 0.960 . S
H852 C866 0.960 . S
H853 C866 0.960 . S
C854 H846 0.929 . S
C854 C855 1.377 . S
C854 C856 1.384 . S
C855 C854 1.377 . S
C855 C861 1.390 . S
C856 H847 0.930 . S
C856 C854 1.384 . S
C856 C857 1.372 . S
C857 C856 1.372 . S
C857 C858 1.400 . S
C857 C862 1.490 . S
C858 H848 0.930 . S
C858 C857 1.400 . S
C858 C861 1.386 . S
H859 C875 0.930 . S
H860 C876 0.931 . S
C861 H849 0.929 . S
C861 C855 1.390 . S
C861 C858 1.386 . S
C862 C857 1.490 . S
C862 C864 1.395 . S
C862 C865 1.403 . S
H863 C869 0.930 1_655 S
C864 H850 0.930 . S
C864 C862 1.395 . S
C864 C867 1.403 . S
C865 C862 1.403 . S
C865 C866 1.524 . S
C865 C869 1.400 . S
C866 H851 0.960 . S
C866 H852 0.960 . S
C866 H853 0.960 . S
C866 C865 1.524 . S
C867 C864 1.403 . S
C867 C868 1.392 . S
C867 C871 1.495 . S
C868 C867 1.392 . S
C868 C869 1.385 . S
C868 C870 1.478 1_455 S
C869 H863 0.930 1_455 S
C869 C865 1.400 . S
C869 C868 1.385 . S
C870 C868 1.478 1_655 S
C870 C872 1.381 . S
C870 C876 1.383 . S
C871 C867 1.495 . S
C871 H877 0.959 . S
C871 H878 0.961 1_455 S
C871 H879 0.960 . S
C872 C870 1.381 . S
C872 C873 1.394 . S
C872 H880 0.930 1_655 S
C873 C872 1.394 . S
C873 C874 1.383 . S
C873 H881 0.929 . S
C874 C873 1.383 . S
C874 C875 1.377 . S
C875 H859 0.930 . S
C875 C874 1.377 . S
C875 C876 1.379 . S
C876 H860 0.931 . S
C876 C870 1.383 . S
C876 C875 1.379 . S
H877 C871 0.959 . S
H878 C871 0.961 1_655 S
H879 C871 0.960 . S
H880 C872 0.930 1_455 S
H881 C873 0.929 . S
H882 C890 0.929 . S
H883 C892 0.930 . S
H884 C894 0.930 . S
H885 C897 0.929 . S
H886 C900 0.930 . S
H887 C902 0.960 . S
H888 C902 0.960 . S
H889 C902 0.960 . S
C890 H882 0.929 . S
C890 C891 1.377 . S
C890 C892 1.384 . S
C891 C890 1.377 . S
C891 C897 1.390 . S
C892 H883 0.930 . S
C892 C890 1.384 . S
C892 C893 1.372 . S
C893 C892 1.372 . S
C893 C894 1.400 . S
C893 C898 1.490 . S
C894 H884 0.930 . S
C894 C893 1.400 . S
C894 C897 1.386 . S
H895 C911 0.930 . S
H896 C912 0.931 . S
C897 H885 0.929 . S
C897 C891 1.390 . S
C897 C894 1.386 . S
C898 C893 1.490 . S
C898 C900 1.395 . S
C898 C901 1.403 . S
H899 C905 0.930 . S
C900 H886 0.930 . S
C900 C898 1.395 . S
C900 C903 1.403 . S
C901 C898 1.403 . S
C901 C902 1.524 . S
C901 C905 1.400 . S
C902 H887 0.960 . S
C902 H888 0.960 . S
C902 H889 0.960 . S
C902 C901 1.524 . S
C903 C900 1.403 . S
C903 C904 1.392 . S
C903 C907 1.495 . S
C904 C903 1.392 . S
C904 C905 1.385 . S
C904 C906 1.478 . S
C905 H899 0.930 . S
C905 C901 1.400 . S
C905 C904 1.385 . S
C906 C904 1.478 . S
C906 C908 1.381 . S
C906 C912 1.383 . S
C907 C903 1.495 . S
C907 H913 0.959 . S
C907 H914 0.961 . S
C907 H915 0.960 . S
C908 C906 1.381 . S
C908 C909 1.394 . S
C908 H916 0.930 . S
C909 C908 1.394 . S
C909 C910 1.383 . S
C909 H917 0.929 . S
C910 C909 1.383 . S
C910 C911 1.377 . S
C911 H895 0.930 . S
C911 C910 1.377 . S
C911 C912 1.379 . S
C912 H896 0.931 . S
C912 C906 1.383 . S
C912 C911 1.379 . S
H913 C907 0.959 . S
H914 C907 0.961 . S
H915 C907 0.960 . S
H916 C908 0.930 . S
H917 C909 0.929 . S
H918 C926 0.929 . S
H919 C928 0.930 . S
H920 C930 0.930 . S
H921 C933 0.929 . S
H922 C936 0.930 . S
H923 C938 0.960 . S
H924 C938 0.960 . S
H925 C938 0.960 . S
C926 H918 0.929 . S
C926 C927 1.377 . S
C926 C928 1.384 . S
C927 C926 1.377 . S
C927 C933 1.390 . S
C928 H919 0.930 . S
C928 C926 1.384 . S
C928 C929 1.372 . S
C929 C928 1.372 . S
C929 C930 1.400 . S
C929 C934 1.490 . S
C930 H920 0.930 . S
C930 C929 1.400 . S
C930 C933 1.386 . S
H931 C947 0.930 . S
H932 C948 0.931 . S
C933 H921 0.929 . S
C933 C927 1.390 . S
C933 C930 1.386 . S
C934 C929 1.490 . S
C934 C936 1.395 . S
C934 C937 1.403 . S
H935 C941 0.930 . S
C936 H922 0.930 . S
C936 C934 1.395 . S
C936 C939 1.403 . S
C937 C934 1.403 . S
C937 C938 1.524 . S
C937 C941 1.400 . S
C938 H923 0.960 . S
C938 H924 0.960 . S
C938 H925 0.960 . S
C938 C937 1.524 . S
C939 C936 1.403 . S
C939 C940 1.392 . S
C939 C943 1.495 . S
C940 C939 1.392 . S
C940 C941 1.385 . S
C940 C942 1.478 . S
C941 H935 0.930 . S
C941 C937 1.400 . S
C941 C940 1.385 . S
C942 C940 1.478 . S
C942 C944 1.381 . S
C942 C948 1.383 . S
C943 C939 1.495 . S
C943 H949 0.959 . S
C943 H950 0.961 . S
C943 H951 0.960 . S
C944 C942 1.381 . S
C944 C945 1.394 . S
C944 H952 0.930 . S
C945 C944 1.394 . S
C945 C946 1.383 . S
C945 H953 0.929 . S
C946 C945 1.383 . S
C946 C947 1.377 . S
C947 H931 0.930 . S
C947 C946 1.377 . S
C947 C948 1.379 . S
C948 H932 0.931 . S
C948 C942 1.383 . S
C948 C947 1.379 . S
H949 C943 0.959 . S
H950 C943 0.961 . S
H951 C943 0.960 . S
H952 C944 0.930 . S
H953 C945 0.929 . S
H954 C962 0.929 . S
H955 C964 0.930 . S
H956 C966 0.930 . S
H957 C969 0.929 . S
H958 C972 0.930 . S
H959 C974 0.960 . S
H960 C974 0.960 . S
H961 C974 0.960 . S
C962 H954 0.929 . S
C962 C963 1.377 . S
C962 C964 1.384 . S
C963 C962 1.377 . S
C963 C969 1.390 . S
C964 H955 0.930 . S
C964 C962 1.384 . S
C964 C965 1.372 . S
C965 C964 1.372 . S
C965 C966 1.400 . S
C965 C970 1.490 . S
C966 H956 0.930 . S
C966 C965 1.400 . S
C966 C969 1.386 . S
H967 C983 0.930 . S
H968 C984 0.931 . S
C969 H957 0.929 . S
C969 C963 1.390 . S
C969 C966 1.386 . S
C970 C965 1.490 . S
C970 C972 1.395 . S
C970 C973 1.403 . S
H971 C977 0.930 . S
C972 H958 0.930 . S
C972 C970 1.395 . S
C972 C975 1.403 . S
C973 C970 1.403 . S
C973 C974 1.524 . S
C973 C977 1.400 . S
C974 H959 0.960 . S
C974 H960 0.960 . S
C974 H961 0.960 . S
C974 C973 1.524 . S
C975 C972 1.403 . S
C975 C976 1.392 . S
C975 C979 1.495 . S
C976 C975 1.392 . S
C976 C977 1.385 . S
C976 C978 1.478 . S
C977 H971 0.930 . S
C977 C973 1.400 . S
C977 C976 1.385 . S
C978 C976 1.478 . S
C978 C980 1.381 . S
C978 C984 1.383 . S
C979 C975 1.495 . S
C979 H985 0.959 . S
C979 H986 0.961 . S
C979 H987 0.960 . S
C980 C978 1.381 . S
C980 C981 1.394 . S
C980 H988 0.930 . S
C981 C980 1.394 . S
C981 C982 1.383 . S
C981 H989 0.929 . S
C982 C981 1.383 . S
C982 C983 1.377 . S
C983 H967 0.930 . S
C983 C982 1.377 . S
C983 C984 1.379 . S
C984 H968 0.931 . S
C984 C978 1.383 . S
C984 C983 1.379 . S
H985 C979 0.959 . S
H986 C979 0.961 . S
H987 C979 0.960 . S
H988 C980 0.930 . S
H989 C981 0.929 . S
H990 C998 0.929 . S
H991 C1000 0.930 . S
H992 C1002 0.930 . S
H993 C1005 0.929 . S
H994 C1008 0.930 . S
H995 C1010 0.960 . S
H996 C1010 0.960 . S
H997 C1010 0.960 . S
C998 H990 0.929 . S
C998 C999 1.377 . S
C998 C1000 1.384 . S
C999 C998 1.377 . S
C999 C1005 1.390 . S
C1000 H991 0.930 . S
C1000 C998 1.384 . S
C1000 C1001 1.372 . S
C1001 C1000 1.372 . S
C1001 C1002 1.400 . S
C1001 C1006 1.490 . S
C1002 H992 0.930 . S
C1002 C1001 1.400 . S
C1002 C1005 1.386 . S
H1003 C1019 0.930 . S
H1004 C1020 0.931 . S
C1005 H993 0.929 . S
C1005 C999 1.390 . S
C1005 C1002 1.386 . S
C1006 C1001 1.490 . S
C1006 C1008 1.395 . S
C1006 C1009 1.403 . S
H1007 C1013 0.930 . S
C1008 H994 0.930 . S
C1008 C1006 1.395 . S
C1008 C1011 1.403 . S
C1009 C1006 1.403 . S
C1009 C1010 1.524 . S
C1009 C1013 1.400 . S
C1010 H995 0.960 . S
C1010 H996 0.960 . S
C1010 H997 0.960 . S
C1010 C1009 1.524 . S
C1011 C1008 1.403 . S
C1011 C1012 1.392 . S
C1011 C1015 1.495 . S
C1012 C1011 1.392 . S
C1012 C1013 1.385 . S
C1012 C1014 1.478 . S
C1013 H1007 0.930 . S
C1013 C1009 1.400 . S
C1013 C1012 1.385 . S
C1014 C1012 1.478 . S
C1014 C1016 1.381 . S
C1014 C1020 1.383 . S
C1015 C1011 1.495 . S
C1015 H1021 0.959 . S
C1015 H1022 0.961 . S
C1015 H1023 0.960 . S
C1016 C1014 1.381 . S
C1016 C1017 1.394 . S
C1016 H1024 0.930 . S
C1017 C1016 1.394 . S
C1017 C1018 1.383 . S
C1017 H1025 0.929 . S
C1018 C1017 1.383 . S
C1018 C1019 1.377 . S
C1019 H1003 0.930 . S
C1019 C1018 1.377 . S
C1019 C1020 1.379 . S
C1020 H1004 0.931 . S
C1020 C1014 1.383 . S
C1020 C1019 1.379 . S
H1021 C1015 0.959 . S
H1022 C1015 0.961 . S
H1023 C1015 0.960 . S
H1024 C1016 0.930 . S
H1025 C1017 0.929 . S
H1026 C1034 0.929 . S
H1027 C1036 0.930 . S
H1028 C1038 0.930 . S
H1029 C1041 0.929 . S
H1030 C1044 0.930 . S
H1031 C1046 0.960 . S
H1032 C1046 0.960 . S
H1033 C1046 0.960 . S
C1034 H1026 0.929 . S
C1034 C1035 1.377 . S
C1034 C1036 1.384 . S
C1035 C1034 1.377 . S
C1035 C1041 1.390 . S
C1036 H1027 0.930 . S
C1036 C1034 1.384 . S
C1036 C1037 1.372 . S
C1037 C1036 1.372 . S
C1037 C1038 1.400 . S
C1037 C1042 1.490 . S
C1038 H1028 0.930 . S
C1038 C1037 1.400 . S
C1038 C1041 1.386 . S
H1039 C1055 0.930 . S
H1040 C1056 0.931 . S
C1041 H1029 0.929 . S
C1041 C1035 1.390 . S
C1041 C1038 1.386 . S
C1042 C1037 1.490 . S
C1042 C1044 1.395 . S
C1042 C1045 1.403 . S
H1043 C1049 0.930 . S
C1044 H1030 0.930 . S
C1044 C1042 1.395 . S
C1044 C1047 1.403 . S
C1045 C1042 1.403 . S
C1045 C1046 1.524 . S
C1045 C1049 1.400 . S
C1046 H1031 0.960 . S
C1046 H1032 0.960 . S
C1046 H1033 0.960 . S
C1046 C1045 1.524 . S
C1047 C1044 1.403 . S
C1047 C1048 1.392 . S
C1047 C1051 1.495 . S
C1048 C1047 1.392 . S
C1048 C1049 1.385 . S
C1048 C1050 1.478 . S
C1049 H1043 0.930 . S
C1049 C1045 1.400 . S
C1049 C1048 1.385 . S
C1050 C1048 1.478 . S
C1050 C1052 1.381 . S
C1050 C1056 1.383 . S
C1051 C1047 1.495 . S
C1051 H1057 0.959 . S
C1051 H1058 0.961 . S
C1051 H1059 0.960 . S
C1052 C1050 1.381 . S
C1052 C1053 1.394 . S
C1052 H1060 0.930 . S
C1053 C1052 1.394 . S
C1053 C1054 1.383 . S
C1053 H1061 0.929 . S
C1054 C1053 1.383 . S
C1054 C1055 1.377 . S
C1055 H1039 0.930 . S
C1055 C1054 1.377 . S
C1055 C1056 1.379 . S
C1056 H1040 0.931 . S
C1056 C1050 1.383 . S
C1056 C1055 1.379 . S
H1057 C1051 0.959 . S
H1058 C1051 0.961 . S
H1059 C1051 0.960 . S
H1060 C1052 0.930 . S
H1061 C1053 0.929 . S
H1062 C1070 0.929 . S
H1063 C1072 0.930 . S
H1064 C1074 0.930 . S
H1065 C1077 0.929 . S
H1066 C1080 0.930 . S
H1067 C1082 0.960 . S
H1068 C1082 0.960 . S
H1069 C1082 0.960 . S
C1070 H1062 0.929 . S
C1070 C1071 1.377 . S
C1070 C1072 1.384 . S
C1071 C1070 1.377 . S
C1071 C1077 1.390 . S
C1072 H1063 0.930 . S
C1072 C1070 1.384 . S
C1072 C1073 1.372 . S
C1073 C1072 1.372 . S
C1073 C1074 1.400 . S
C1073 C1078 1.490 . S
C1074 H1064 0.930 . S
C1074 C1073 1.400 . S
C1074 C1077 1.386 . S
H1075 C1091 0.930 . S
H1076 C1092 0.931 . S
C1077 H1065 0.929 . S
C1077 C1071 1.390 . S
C1077 C1074 1.386 . S
C1078 C1073 1.490 . S
C1078 C1080 1.395 . S
C1078 C1081 1.403 . S
H1079 C1085 0.930 . S
C1080 H1066 0.930 . S
C1080 C1078 1.395 . S
C1080 C1083 1.403 . S
C1081 C1078 1.403 . S
C1081 C1082 1.524 . S
C1081 C1085 1.400 . S
C1082 H1067 0.960 . S
C1082 H1068 0.960 . S
C1082 H1069 0.960 . S
C1082 C1081 1.524 . S
C1083 C1080 1.403 . S
C1083 C1084 1.392 . S
C1083 C1087 1.495 . S
C1084 C1083 1.392 . S
C1084 C1085 1.385 . S
C1084 C1086 1.478 . S
C1085 H1079 0.930 . S
C1085 C1081 1.400 . S
C1085 C1084 1.385 . S
C1086 C1084 1.478 . S
C1086 C1088 1.381 . S
C1086 C1092 1.383 . S
C1087 C1083 1.495 . S
C1087 H1093 0.959 . S
C1087 H1094 0.961 . S
C1087 H1095 0.960 . S
C1088 C1086 1.381 . S
C1088 C1089 1.394 . S
C1088 H1096 0.930 . S
C1089 C1088 1.394 . S
C1089 C1090 1.383 . S
C1089 H1097 0.929 . S
C1090 C1089 1.383 . S
C1090 C1091 1.377 . S
C1091 H1075 0.930 . S
C1091 C1090 1.377 . S
C1091 C1092 1.379 . S
C1092 H1076 0.931 . S
C1092 C1086 1.383 . S
C1092 C1091 1.379 . S
H1093 C1087 0.959 . S
H1094 C1087 0.961 . S
H1095 C1087 0.960 . S
H1096 C1088 0.930 . S
H1097 C1089 0.929 . S
H1098 C1106 0.929 . S
H1099 C1108 0.930 . S
H1100 C1110 0.930 . S
H1101 C1113 0.929 . S
H1102 C1116 0.930 . S
H1103 C1118 0.960 . S
H1104 C1118 0.960 . S
H1105 C1118 0.960 . S
C1106 H1098 0.929 . S
C1106 C1107 1.377 . S
C1106 C1108 1.384 . S
C1107 C1106 1.377 . S
C1107 C1113 1.390 . S
C1108 H1099 0.930 . S
C1108 C1106 1.384 . S
C1108 C1109 1.372 . S
C1109 C1108 1.372 . S
C1109 C1110 1.400 . S
C1109 C1114 1.490 . S
C1110 H1100 0.930 . S
C1110 C1109 1.400 . S
C1110 C1113 1.386 . S
H1111 C1127 0.930 . S
H1112 C1128 0.931 . S
C1113 H1101 0.929 . S
C1113 C1107 1.390 . S
C1113 C1110 1.386 . S
C1114 C1109 1.490 . S
C1114 C1116 1.395 . S
C1114 C1117 1.403 . S
H1115 C1121 0.930 . S
C1116 H1102 0.930 . S
C1116 C1114 1.395 . S
C1116 C1119 1.403 . S
C1117 C1114 1.403 . S
C1117 C1118 1.524 . S
C1117 C1121 1.400 . S
C1118 H1103 0.960 . S
C1118 H1104 0.960 . S
C1118 H1105 0.960 . S
C1118 C1117 1.524 . S
C1119 C1116 1.403 . S
C1119 C1120 1.392 . S
C1119 C1123 1.495 . S
C1120 C1119 1.392 . S
C1120 C1121 1.385 . S
C1120 C1122 1.478 . S
C1121 H1115 0.930 . S
C1121 C1117 1.400 . S
C1121 C1120 1.385 . S
C1122 C1120 1.478 . S
C1122 C1124 1.381 . S
C1122 C1128 1.383 . S
C1123 C1119 1.495 . S
C1123 H1129 0.959 . S
C1123 H1130 0.961 . S
C1123 H1131 0.960 . S
C1124 C1122 1.381 . S
C1124 C1125 1.394 . S
C1124 H1132 0.930 . S
C1125 C1124 1.394 . S
C1125 C1126 1.383 . S
C1125 H1133 0.929 . S
C1126 C1125 1.383 . S
C1126 C1127 1.377 . S
C1127 H1111 0.930 . S
C1127 C1126 1.377 . S
C1127 C1128 1.379 . S
C1128 H1112 0.931 . S
C1128 C1122 1.383 . S
C1128 C1127 1.379 . S
H1129 C1123 0.959 . S
H1130 C1123 0.961 . S
H1131 C1123 0.960 . S
H1132 C1124 0.930 . S
H1133 C1125 0.929 . S
H1134 C1142 0.929 . S
H1135 C1144 0.930 . S
H1136 C1146 0.930 . S
H1137 C1149 0.929 . S
H1138 C1152 0.930 . S
H1139 C1154 0.960 . S
H1140 C1154 0.960 . S
H1141 C1154 0.960 . S
C1142 H1134 0.929 . S
C1142 C1143 1.377 . S
C1142 C1144 1.384 . S
C1143 C1142 1.377 . S
C1143 C1149 1.390 . S
C1144 H1135 0.930 . S
C1144 C1142 1.384 . S
C1144 C1145 1.372 . S
C1145 C1144 1.372 . S
C1145 C1146 1.400 . S
C1145 C1150 1.490 . S
C1146 H1136 0.930 . S
C1146 C1145 1.400 . S
C1146 C1149 1.386 . S
H1147 C1163 0.930 . S
H1148 C1164 0.931 . S
C1149 H1137 0.929 . S
C1149 C1143 1.390 . S
C1149 C1146 1.386 . S
C1150 C1145 1.490 . S
C1150 C1152 1.395 . S
C1150 C1153 1.403 . S
H1151 C1157 0.930 . S
C1152 H1138 0.930 . S
C1152 C1150 1.395 . S
C1152 C1155 1.403 . S
C1153 C1150 1.403 . S
C1153 C1154 1.524 . S
C1153 C1157 1.400 . S
C1154 H1139 0.960 . S
C1154 H1140 0.960 . S
C1154 H1141 0.960 . S
C1154 C1153 1.524 . S
C1155 C1152 1.403 . S
C1155 C1156 1.392 . S
C1155 C1159 1.495 . S
C1156 C1155 1.392 . S
C1156 C1157 1.385 . S
C1156 C1158 1.478 . S
C1157 H1151 0.930 . S
C1157 C1153 1.400 . S
C1157 C1156 1.385 . S
C1158 C1156 1.478 . S
C1158 C1160 1.381 . S
C1158 C1164 1.383 . S
C1159 C1155 1.495 . S
C1159 H1165 0.959 . S
C1159 H1166 0.961 . S
C1159 H1167 0.960 . S
C1160 C1158 1.381 . S
C1160 C1161 1.394 . S
C1160 H1168 0.930 . S
C1161 C1160 1.394 . S
C1161 C1162 1.383 . S
C1161 H1169 0.929 . S
C1162 C1161 1.383 . S
C1162 C1163 1.377 . S
C1163 H1147 0.930 . S
C1163 C1162 1.377 . S
C1163 C1164 1.379 . S
C1164 H1148 0.931 . S
C1164 C1158 1.383 . S
C1164 C1163 1.379 . S
H1165 C1159 0.959 . S
H1166 C1159 0.961 . S
H1167 C1159 0.960 . S
H1168 C1160 0.930 . S
H1169 C1161 0.929 . S
H1170 C1178 0.929 . S
H1171 C1180 0.930 . S
H1172 C1182 0.930 . S
H1173 C1185 0.929 . S
H1174 C1188 0.930 . S
H1175 C1190 0.960 . S
H1176 C1190 0.960 . S
H1177 C1190 0.960 . S
C1178 H1170 0.929 . S
C1178 C1179 1.377 . S
C1178 C1180 1.384 . S
C1179 C1178 1.377 . S
C1179 C1185 1.390 . S
C1180 H1171 0.930 . S
C1180 C1178 1.384 . S
C1180 C1181 1.372 . S
C1181 C1180 1.372 . S
C1181 C1182 1.400 . S
C1181 C1186 1.490 . S
C1182 H1172 0.930 . S
C1182 C1181 1.400 . S
C1182 C1185 1.386 . S
H1183 C1199 0.930 . S
H1184 C1200 0.931 . S
C1185 H1173 0.929 . S
C1185 C1179 1.390 . S
C1185 C1182 1.386 . S
C1186 C1181 1.490 . S
C1186 C1188 1.395 . S
C1186 C1189 1.403 . S
H1187 C1193 0.930 . S
C1188 H1174 0.930 . S
C1188 C1186 1.395 . S
C1188 C1191 1.403 . S
C1189 C1186 1.403 . S
C1189 C1190 1.524 . S
C1189 C1193 1.400 . S
C1190 H1175 0.960 . S
C1190 H1176 0.960 . S
C1190 H1177 0.960 . S
C1190 C1189 1.524 . S
C1191 C1188 1.403 . S
C1191 C1192 1.392 . S
C1191 C1195 1.495 . S
C1192 C1191 1.392 . S
C1192 C1193 1.385 . S
C1192 C1194 1.478 . S
C1193 H1187 0.930 . S
C1193 C1189 1.400 . S
C1193 C1192 1.385 . S
C1194 C1192 1.478 . S
C1194 C1196 1.381 . S
C1194 C1200 1.383 . S
C1195 C1191 1.495 . S
C1195 H1201 0.959 . S
C1195 H1202 0.961 . S
C1195 H1203 0.960 . S
C1196 C1194 1.381 . S
C1196 C1197 1.394 . S
C1196 H1204 0.930 . S
C1197 C1196 1.394 . S
C1197 C1198 1.383 . S
C1197 H1205 0.929 . S
C1198 C1197 1.383 . S
C1198 C1199 1.377 . S
C1199 H1183 0.930 . S
C1199 C1198 1.377 . S
C1199 C1200 1.379 . S
C1200 H1184 0.931 . S
C1200 C1194 1.383 . S
C1200 C1199 1.379 . S
H1201 C1195 0.959 . S
H1202 C1195 0.961 . S
H1203 C1195 0.960 . S
H1204 C1196 0.930 . S
H1205 C1197 0.929 . S
H1206 C1214 0.929 . S
H1207 C1216 0.930 . S
H1208 C1218 0.930 . S
H1209 C1221 0.929 . S
H1210 C1224 0.930 . S
H1211 C1226 0.960 . S
H1212 C1226 0.960 . S
H1213 C1226 0.960 . S
C1214 H1206 0.929 . S
C1214 C1215 1.377 . S
C1214 C1216 1.384 . S
C1215 C1214 1.377 . S
C1215 C1221 1.390 . S
C1216 H1207 0.930 . S
C1216 C1214 1.384 . S
C1216 C1217 1.372 . S
C1217 C1216 1.372 . S
C1217 C1218 1.400 . S
C1217 C1222 1.490 . S
C1218 H1208 0.930 . S
C1218 C1217 1.400 . S
C1218 C1221 1.386 . S
H1219 C1235 0.930 . S
H1220 C1236 0.931 . S
C1221 H1209 0.929 . S
C1221 C1215 1.390 . S
C1221 C1218 1.386 . S
C1222 C1217 1.490 . S
C1222 C1224 1.395 . S
C1222 C1225 1.403 . S
H1223 C1229 0.930 . S
C1224 H1210 0.930 . S
C1224 C1222 1.395 . S
C1224 C1227 1.403 . S
C1225 C1222 1.403 . S
C1225 C1226 1.524 . S
C1225 C1229 1.400 . S
C1226 H1211 0.960 . S
C1226 H1212 0.960 . S
C1226 H1213 0.960 . S
C1226 C1225 1.524 . S
C1227 C1224 1.403 . S
C1227 C1228 1.392 . S
C1227 C1231 1.495 . S
C1228 C1227 1.392 . S
C1228 C1229 1.385 . S
C1228 C1230 1.478 . S
C1229 H1223 0.930 . S
C1229 C1225 1.400 . S
C1229 C1228 1.385 . S
C1230 C1228 1.478 . S
C1230 C1232 1.381 . S
C1230 C1236 1.383 . S
C1231 C1227 1.495 . S
C1231 H1237 0.959 . S
C1231 H1238 0.961 . S
C1231 H1239 0.960 . S
C1232 C1230 1.381 . S
C1232 C1233 1.394 . S
C1232 H1240 0.930 . S
C1233 C1232 1.394 . S
C1233 C1234 1.383 . S
C1233 H1241 0.929 . S
C1234 C1233 1.383 . S
C1234 C1235 1.377 . S
C1235 H1219 0.930 . S
C1235 C1234 1.377 . S
C1235 C1236 1.379 . S
C1236 H1220 0.931 . S
C1236 C1230 1.383 . S
C1236 C1235 1.379 . S
H1237 C1231 0.959 . S
H1238 C1231 0.961 . S
H1239 C1231 0.960 . S
H1240 C1232 0.930 . S
H1241 C1233 0.929 . S
H1242 C1250 0.929 . S
H1243 C1252 0.930 . S
H1244 C1254 0.930 . S
H1245 C1257 0.929 . S
H1246 C1260 0.930 . S
H1247 C1262 0.960 . S
H1248 C1262 0.960 . S
H1249 C1262 0.960 . S
C1250 H1242 0.929 . S
C1250 C1251 1.377 . S
C1250 C1252 1.384 . S
C1251 C1250 1.377 . S
C1251 C1257 1.390 . S
C1252 H1243 0.930 . S
C1252 C1250 1.384 . S
C1252 C1253 1.372 . S
C1253 C1252 1.372 . S
C1253 C1254 1.400 . S
C1253 C1258 1.490 . S
C1254 H1244 0.930 . S
C1254 C1253 1.400 . S
C1254 C1257 1.386 . S
H1255 C1271 0.930 . S
H1256 C1272 0.931 . S
C1257 H1245 0.929 . S
C1257 C1251 1.390 . S
C1257 C1254 1.386 . S
C1258 C1253 1.490 . S
C1258 C1260 1.395 . S
C1258 C1261 1.403 . S
H1259 C1265 0.930 . S
C1260 H1246 0.930 . S
C1260 C1258 1.395 . S
C1260 C1263 1.403 . S
C1261 C1258 1.403 . S
C1261 C1262 1.524 . S
C1261 C1265 1.400 . S
C1262 H1247 0.960 . S
C1262 H1248 0.960 . S
C1262 H1249 0.960 . S
C1262 C1261 1.524 . S
C1263 C1260 1.403 . S
C1263 C1264 1.392 . S
C1263 C1267 1.495 . S
C1264 C1263 1.392 . S
C1264 C1265 1.385 . S
C1264 C1266 1.478 . S
C1265 H1259 0.930 . S
C1265 C1261 1.400 . S
C1265 C1264 1.385 . S
C1266 C1264 1.478 . S
C1266 C1268 1.381 . S
C1266 C1272 1.383 . S
C1267 C1263 1.495 . S
C1267 H1273 0.959 . S
C1267 H1274 0.961 . S
C1267 H1275 0.960 . S
C1268 C1266 1.381 . S
C1268 C1269 1.394 . S
C1268 H1276 0.930 . S
C1269 C1268 1.394 . S
C1269 C1270 1.383 . S
C1269 H1277 0.929 . S
C1270 C1269 1.383 . S
C1270 C1271 1.377 . S
C1271 H1255 0.930 . S
C1271 C1270 1.377 . S
C1271 C1272 1.379 . S
C1272 H1256 0.931 . S
C1272 C1266 1.383 . S
C1272 C1271 1.379 . S
H1273 C1267 0.959 . S
H1274 C1267 0.961 . S
H1275 C1267 0.960 . S
H1276 C1268 0.930 . S
H1277 C1269 0.929 . S
H1278 C1286 0.929 . S
H1279 C1288 0.930 . S
H1280 C1290 0.930 . S
H1281 C1293 0.929 . S
H1282 C1296 0.930 . S
H1283 C1298 0.960 . S
H1284 C1298 0.960 . S
H1285 C1298 0.960 . S
C1286 H1278 0.929 . S
C1286 C1287 1.377 . S
C1286 C1288 1.384 . S
C1287 C1286 1.377 . S
C1287 C1293 1.390 . S
C1288 H1279 0.930 . S
C1288 C1286 1.384 . S
C1288 C1289 1.372 . S
C1289 C1288 1.372 . S
C1289 C1290 1.400 . S
C1289 C1294 1.490 . S
C1290 H1280 0.930 . S
C1290 C1289 1.400 . S
C1290 C1293 1.386 . S
H1291 C1307 0.930 . S
H1292 C1308 0.931 . S
C1293 H1281 0.929 . S
C1293 C1287 1.390 . S
C1293 C1290 1.386 . S
C1294 C1289 1.490 . S
C1294 C1296 1.395 . S
C1294 C1297 1.403 . S
H1295 C1301 0.930 . S
C1296 H1282 0.930 . S
C1296 C1294 1.395 . S
C1296 C1299 1.403 . S
C1297 C1294 1.403 . S
C1297 C1298 1.524 . S
C1297 C1301 1.400 . S
C1298 H1283 0.960 . S
C1298 H1284 0.960 . S
C1298 H1285 0.960 . S
C1298 C1297 1.524 . S
C1299 C1296 1.403 . S
C1299 C1300 1.392 . S
C1299 C1303 1.495 . S
C1300 C1299 1.392 . S
C1300 C1301 1.385 . S
C1300 C1302 1.478 . S
C1301 H1295 0.930 . S
C1301 C1297 1.400 . S
C1301 C1300 1.385 . S
C1302 C1300 1.478 . S
C1302 C1304 1.381 . S
C1302 C1308 1.383 . S
C1303 C1299 1.495 . S
C1303 H1309 0.959 . S
C1303 H1310 0.961 . S
C1303 H1311 0.960 . S
C1304 C1302 1.381 . S
C1304 C1305 1.394 . S
C1304 H1312 0.930 . S
C1305 C1304 1.394 . S
C1305 C1306 1.383 . S
C1305 H1313 0.929 . S
C1306 C1305 1.383 . S
C1306 C1307 1.377 . S
C1307 H1291 0.930 . S
C1307 C1306 1.377 . S
C1307 C1308 1.379 . S
C1308 H1292 0.931 . S
C1308 C1302 1.383 . S
C1308 C1307 1.379 . S
H1309 C1303 0.959 . S
H1310 C1303 0.961 . S
H1311 C1303 0.960 . S
H1312 C1304 0.930 . S
H1313 C1305 0.929 . S
H1314 C1322 0.929 . S
H1315 C1324 0.930 . S
H1316 C1326 0.930 . S
H1317 C1329 0.929 . S
H1318 C1332 0.930 . S
H1319 C1334 0.960 . S
H1320 C1334 0.960 . S
H1321 C1334 0.960 . S
C1322 H1314 0.929 . S
C1322 C1323 1.377 . S
C1322 C1324 1.384 . S
C1323 C1322 1.377 . S
C1323 C1329 1.390 . S
C1324 H1315 0.930 . S
C1324 C1322 1.384 . S
C1324 C1325 1.372 . S
C1325 C1324 1.372 . S
C1325 C1326 1.400 . S
C1325 C1330 1.490 . S
C1326 H1316 0.930 . S
C1326 C1325 1.400 . S
C1326 C1329 1.386 . S
H1327 C1343 0.930 . S
H1328 C1344 0.931 . S
C1329 H1317 0.929 . S
C1329 C1323 1.390 . S
C1329 C1326 1.386 . S
C1330 C1325 1.490 . S
C1330 C1332 1.395 . S
C1330 C1333 1.403 . S
H1331 C1337 0.930 . S
C1332 H1318 0.930 . S
C1332 C1330 1.395 . S
C1332 C1335 1.403 . S
C1333 C1330 1.403 . S
C1333 C1334 1.524 . S
C1333 C1337 1.400 . S
C1334 H1319 0.960 . S
C1334 H1320 0.960 . S
C1334 H1321 0.960 . S
C1334 C1333 1.524 . S
C1335 C1332 1.403 . S
C1335 C1336 1.392 . S
C1335 C1339 1.495 . S
C1336 C1335 1.392 . S
C1336 C1337 1.385 . S
C1336 C1338 1.478 . S
C1337 H1331 0.930 . S
C1337 C1333 1.400 . S
C1337 C1336 1.385 . S
C1338 C1336 1.478 . S
C1338 C1340 1.381 . S
C1338 C1344 1.383 . S
C1339 C1335 1.495 . S
C1339 H1345 0.959 . S
C1339 H1346 0.961 . S
C1339 H1347 0.960 . S
C1340 C1338 1.381 . S
C1340 C1341 1.394 . S
C1340 H1348 0.930 . S
C1341 C1340 1.394 . S
C1341 C1342 1.383 . S
C1341 H1349 0.929 . S
C1342 C1341 1.383 . S
C1342 C1343 1.377 . S
C1343 H1327 0.930 . S
C1343 C1342 1.377 . S
C1343 C1344 1.379 . S
C1344 H1328 0.931 . S
C1344 C1338 1.383 . S
C1344 C1343 1.379 . S
H1345 C1339 0.959 . S
H1346 C1339 0.961 . S
H1347 C1339 0.960 . S
H1348 C1340 0.930 . S
H1349 C1341 0.929 . S
H1350 C1358 0.929 . S
H1351 C1360 0.930 . S
H1352 C1362 0.930 . S
H1353 C1365 0.929 . S
H1354 C1368 0.930 . S
H1355 C1370 0.960 . S
H1356 C1370 0.960 . S
H1357 C1370 0.960 . S
C1358 H1350 0.929 . S
C1358 C1359 1.377 . S
C1358 C1360 1.384 . S
C1359 C1358 1.377 . S
C1359 C1365 1.390 . S
C1360 H1351 0.930 . S
C1360 C1358 1.384 . S
C1360 C1361 1.372 . S
C1361 C1360 1.372 . S
C1361 C1362 1.400 . S
C1361 C1366 1.490 . S
C1362 H1352 0.930 . S
C1362 C1361 1.400 . S
C1362 C1365 1.386 . S
H1363 C1379 0.930 . S
H1364 C1380 0.931 . S
C1365 H1353 0.929 . S
C1365 C1359 1.390 . S
C1365 C1362 1.386 . S
C1366 C1361 1.490 . S
C1366 C1368 1.395 . S
C1366 C1369 1.367 1_545 S
H1367 C1373 0.930 . S
C1368 H1354 0.930 . S
C1368 C1366 1.395 . S
C1368 C1371 1.403 . S
C1369 C1366 1.367 1_565 S
C1369 C1370 1.560 . S
C1369 C1373 1.399 . S
C1370 H1355 0.960 . S
C1370 H1356 0.960 . S
C1370 H1357 0.960 . S
C1370 C1369 1.560 . S
C1371 C1368 1.403 . S
C1371 C1372 1.392 . S
C1371 C1375 1.495 . S
C1372 C1371 1.392 . S
C1372 C1373 1.385 1_545 S
C1372 C1374 1.478 1_545 S
C1373 H1367 0.930 . S
C1373 C1369 1.399 . S
C1373 C1372 1.385 1_565 S
C1374 C1372 1.478 1_565 S
C1374 C1376 1.381 . S
C1374 C1380 1.383 . S
C1375 C1371 1.495 . S
C1375 H1381 0.959 . S
C1375 H1382 0.961 . S
C1375 H1383 0.960 . S
C1376 C1374 1.381 . S
C1376 C1377 1.394 . S
C1376 H1384 0.930 1_565 S
C1377 C1376 1.394 . S
C1377 C1378 1.383 . S
C1377 H1385 0.929 . S
C1378 C1377 1.383 . S
C1378 C1379 1.377 . S
C1379 H1363 0.930 . S
C1379 C1378 1.377 . S
C1379 C1380 1.379 . S
C1380 H1364 0.931 . S
C1380 C1374 1.383 . S
C1380 C1379 1.379 . S
H1381 C1375 0.959 . S
H1382 C1375 0.961 . S
H1383 C1375 0.960 . S
H1384 C1376 0.930 1_545 S
H1385 C1377 0.929 . S
H1386 C1394 0.929 . S
H1387 C1396 0.930 . S
H1388 C1398 0.930 . S
H1389 C1401 0.929 . S
H1390 C1404 0.930 . S
H1391 C1406 0.960 . S
H1392 C1406 0.960 . S
H1393 C1406 0.960 . S
C1394 H1386 0.929 . S
C1394 C1395 1.377 . S
C1394 C1396 1.384 . S
C1395 C1394 1.377 . S
C1395 C1401 1.390 . S
C1396 H1387 0.930 . S
C1396 C1394 1.384 . S
C1396 C1397 1.372 . S
C1397 C1396 1.372 . S
C1397 C1398 1.400 . S
C1397 C1402 1.490 . S
C1398 H1388 0.930 . S
C1398 C1397 1.400 . S
C1398 C1401 1.386 . S
H1399 C1415 0.930 . S
H1400 C1416 0.931 . S
C1401 H1389 0.929 . S
C1401 C1395 1.390 . S
C1401 C1398 1.386 . S
C1402 C1397 1.490 . S
C1402 C1404 1.395 . S
C1402 C1405 1.403 . S
H1403 C1409 0.930 . S
C1404 H1390 0.930 . S
C1404 C1402 1.395 . S
C1404 C1407 1.403 . S
C1405 C1402 1.403 . S
C1405 C1406 1.524 1_455 S
C1405 C1409 1.400 1_455 S
C1406 H1391 0.960 . S
C1406 H1392 0.960 . S
C1406 H1393 0.960 . S
C1406 C1405 1.524 1_655 S
C1407 C1404 1.403 . S
C1407 C1408 1.392 . S
C1407 C1411 1.495 . S
C1408 C1407 1.392 . S
C1408 C1409 1.385 1_455 S
C1408 C1410 1.478 1_455 S
C1409 H1403 0.930 . S
C1409 C1405 1.400 1_655 S
C1409 C1408 1.385 1_655 S
C1410 C1408 1.478 1_655 S
C1410 C1412 1.381 . S
C1410 C1416 1.383 . S
C1411 C1407 1.495 . S
C1411 H1417 0.959 . S
C1411 H1418 0.961 . S
C1411 H1419 0.960 . S
C1412 C1410 1.381 . S
C1412 C1413 1.394 . S
C1412 H1420 0.930 1_655 S
C1413 C1412 1.394 . S
C1413 C1414 1.383 . S
C1413 H1421 0.929 . S
C1414 C1413 1.383 . S
C1414 C1415 1.377 . S
C1415 H1399 0.930 . S
C1415 C1414 1.377 . S
C1415 C1416 1.379 . S
C1416 H1400 0.931 . S
C1416 C1410 1.383 . S
C1416 C1415 1.379 . S
H1417 C1411 0.959 . S
H1418 C1411 0.961 . S
H1419 C1411 0.960 . S
H1420 C1412 0.930 1_455 S
H1421 C1413 0.929 . S
H1422 C1430 0.929 . S
H1423 C1432 0.930 1_554 S
H1424 C1434 0.930 . S
H1425 C1437 0.929 . S
H1426 C1440 0.930 . S
H1427 C1442 0.960 . S
H1428 C1442 0.960 . S
H1429 C1442 0.960 . S
C1430 H1422 0.929 . S
C1430 C1431 1.377 . S
C1430 C1432 1.384 . S
C1431 C1430 1.377 . S
C1431 C1437 1.390 . S
C1432 H1423 0.930 1_556 S
C1432 C1430 1.384 . S
C1432 C1433 1.372 . S
C1433 C1432 1.372 . S
C1433 C1434 1.400 . S
C1433 C1438 1.490 . S
C1434 H1424 0.930 . S
C1434 C1433 1.400 . S
C1434 C1437 1.386 . S
H1435 C1451 0.930 . S
H1436 C1452 0.931 1_556 S
C1437 H1425 0.929 . S
C1437 C1431 1.390 . S
C1437 C1434 1.386 . S
C1438 C1433 1.490 . S
C1438 C1440 1.395 1_556 S
C1438 C1441 1.403 . S
H1439 C1445 0.930 . S
C1440 H1426 0.930 . S
C1440 C1438 1.395 1_554 S
C1440 C1443 1.403 . S
C1441 C1438 1.403 . S
C1441 C1442 1.524 . S
C1441 C1445 1.400 . S
C1442 H1427 0.960 . S
C1442 H1428 0.960 . S
C1442 H1429 0.960 . S
C1442 C1441 1.524 . S
C1443 C1440 1.403 . S
C1443 C1444 1.392 . S
C1443 C1447 1.495 . S
C1444 C1443 1.392 . S
C1444 C1445 1.385 1_554 S
C1444 C1446 1.478 . S
C1445 H1439 0.930 . S
C1445 C1441 1.400 . S
C1445 C1444 1.385 1_556 S
C1446 C1444 1.478 . S
C1446 C1448 1.381 . S
C1446 C1452 1.383 . S
C1447 C1443 1.495 . S
C1447 H1453 0.959 . S
C1447 H1454 0.961 . S
C1447 H1455 0.960 . S
C1448 C1446 1.381 . S
C1448 C1449 1.394 . S
C1448 H1456 0.930 . S
C1449 C1448 1.394 . S
C1449 C1450 1.383 . S
C1449 H1457 0.929 . S
C1450 C1449 1.383 . S
C1450 C1451 1.377 . S
C1451 H1435 0.930 . S
C1451 C1450 1.377 . S
C1451 C1452 1.379 . S
C1452 H1436 0.931 1_554 S
C1452 C1446 1.383 . S
C1452 C1451 1.379 . S
H1453 C1447 0.959 . S
H1454 C1447 0.961 . S
H1455 C1447 0.960 . S
H1456 C1448 0.930 . S
H1457 C1449 0.929 . S
H1458 C1466 0.929 . S
H1459 C1468 0.930 . S
H1460 C1470 0.930 . S
H1461 C1473 0.929 . S
H1462 C1476 0.930 . S
H1463 C1478 0.960 . S
H1464 C1478 0.960 . S
H1465 C1478 0.960 1_556 S
C1466 H1458 0.929 . S
C1466 C1467 1.377 . S
C1466 C1468 1.384 . S
C1467 C1466 1.377 . S
C1467 C1473 1.390 . S
C1468 H1459 0.930 . S
C1468 C1466 1.384 . S
C1468 C1469 1.372 . S
C1469 C1468 1.372 . S
C1469 C1470 1.400 . S
C1469 C1474 1.521 . S
C1470 H1460 0.930 . S
C1470 C1469 1.400 . S
C1470 C1473 1.386 . S
H1471 C1487 0.930 . S
H1472 C1488 0.936 . S
C1473 H1461 0.929 . S
C1473 C1467 1.390 . S
C1473 C1470 1.386 . S
C1474 C1469 1.521 . S
C1474 C1476 1.363 1_565 S
C1474 C1477 1.391 1_556 S
H1475 C1481 0.930 1_565 S
C1476 H1462 0.930 . S
C1476 C1474 1.363 1_545 S
C1476 C1479 1.403 . S
C1477 C1474 1.391 1_554 S
C1477 C1478 1.527 . S
C1477 C1481 1.412 1_565 S
C1478 H1463 0.960 . S
C1478 H1464 0.960 . S
C1478 H1465 0.960 1_554 S
C1478 C1477 1.527 . S
C1479 C1476 1.403 . S
C1479 C1480 1.392 1_556 S
C1479 C1483 1.495 . S
C1480 C1479 1.392 1_554 S
C1480 C1481 1.385 . S
C1480 C1482 1.478 . S
C1481 H1475 0.930 1_545 S
C1481 C1477 1.412 1_545 S
C1481 C1480 1.385 . S
C1482 C1480 1.478 . S
C1482 C1484 1.381 . S
C1482 C1488 1.383 . S
C1483 C1479 1.495 . S
C1483 H1489 0.959 . S
C1483 H1490 0.961 . S
C1483 H1491 0.960 1_556 S
C1484 C1482 1.381 . S
C1484 C1485 1.394 . S
C1484 H1492 0.930 . S
C1485 C1484 1.394 . S
C1485 C1486 1.383 . S
C1485 H1493 0.929 . S
C1486 C1485 1.383 . S
C1486 C1487 1.377 . S
C1487 H1471 0.930 . S
C1487 C1486 1.377 . S
C1487 C1488 1.379 . S
C1488 H1472 0.936 . S
C1488 C1482 1.383 . S
C1488 C1487 1.379 . S
H1489 C1483 0.959 . S
H1490 C1483 0.961 . S
H1491 C1483 0.960 1_554 S
H1492 C1484 0.930 . S
H1493 C1485 0.929 . S
H1494 C1502 0.929 . S
H1495 C1504 0.930 . S
H1496 C1506 0.930 . S
H1497 C1509 0.929 . S
H1498 C1512 0.930 . S
H1499 C1514 0.962 . S
H1500 C1514 0.960 . S
H1501 C1514 0.960 . S
C1502 H1494 0.929 . S
C1502 C1503 1.377 . S
C1502 C1504 1.384 . S
C1503 C1502 1.377 . S
C1503 C1509 1.390 . S
C1504 H1495 0.930 . S
C1504 C1502 1.384 . S
C1504 C1505 1.372 . S
C1505 C1504 1.372 . S
C1505 C1506 1.400 . S
C1505 C1510 1.490 . S
C1506 H1496 0.930 . S
C1506 C1505 1.400 . S
C1506 C1509 1.386 . S
H1507 C1523 0.930 . S
H1508 C1524 0.931 . S
C1509 H1497 0.929 . S
C1509 C1503 1.390 . S
C1509 C1506 1.386 . S
C1510 C1505 1.490 . S
C1510 C1512 1.395 1_556 S
C1510 C1513 1.403 . S
H1511 C1517 0.930 1_655 S
C1512 H1498 0.930 . S
C1512 C1510 1.395 1_554 S
C1512 C1515 1.403 . S
C1513 C1510 1.403 . S
C1513 C1514 1.524 . S
C1513 C1517 1.400 . S
C1514 H1499 0.962 . S
C1514 H1500 0.960 . S
C1514 H1501 0.960 . S
C1514 C1513 1.524 . S
C1515 C1512 1.403 . S
C1515 C1516 1.392 . S
C1515 C1519 1.495 . S
C1516 C1515 1.392 . S
C1516 C1517 1.385 1_554 S
C1516 C1518 1.478 1_455 S
C1517 H1511 0.930 1_455 S
C1517 C1513 1.400 . S
C1517 C1516 1.385 1_556 S
C1518 C1516 1.478 1_655 S
C1518 C1520 1.381 1_655 S
C1518 C1524 1.383 . S
C1519 C1515 1.495 . S
C1519 H1525 0.959 . S
C1519 H1526 0.961 . S
C1519 H1527 0.960 . S
C1520 C1518 1.381 1_455 S
C1520 C1521 1.394 1_455 S
C1520 H1528 0.930 . S
C1521 C1520 1.394 1_655 S
C1521 C1522 1.383 . S
C1521 H1529 0.929 . S
C1522 C1521 1.383 . S
C1522 C1523 1.377 . S
C1523 H1507 0.930 . S
C1523 C1522 1.377 . S
C1523 C1524 1.379 . S
C1524 H1508 0.931 . S
C1524 C1518 1.383 . S
C1524 C1523 1.379 . S
H1525 C1519 0.959 . S
H1526 C1519 0.961 . S
H1527 C1519 0.960 . S
H1528 C1520 0.930 . S
H1529 C1521 0.929 . S
C243 C1 1.987 . S
C262 C183 1.985 1_554 S
C279 C159 1.801 1_554 S
C298 C16 1.805 . S
C315 C29 1.903 . S
C334 C170 1.929 . S
C351 C79 1.988 . S
C370 C27 2.000 . S
C387 C101 2.034 . S
C406 C3 1.933 . S
C423 C105 1.982 . S
C442 C14 1.960 . S
C459 C49 1.988 . S
C478 C144 2.101 . S
C495 C118 2.038 . S
C514 C57 1.916 . S
C531 C140 1.944 . S
C550 C68 2.030 . S
C567 C66 2.082 . S
C586 C205 1.988 . S
C603 C44 1.840 . S
C622 C213 1.846 . S
C639 C224 2.029 . S
C658 C62 1.887 . S
C675 C157 1.903 . S
C694 C107 1.862 . S
C711 C81 1.844 . S
C730 C172 1.865 . S
C747 C185 1.835 . S
C766 C96 1.960 . S
C783 C222 1.994 . S
C802 C120 1.988 . S
C819 C135 1.824 . S
C838 C200 1.834 . S
C855 C218 1.909 . S
C874 C146 1.997 . S
C891 C196 1.699 . S
C910 C10 1.696 . S
C927 C18 1.615 . S
C946 C211 1.620 . S
C963 C31 1.601 . S
C982 C226 1.619 . S
C999 C36 1.681 . S
C1018 C153 1.689 . S
C1035 C127 1.680 . S
C1054 C5 1.653 . S
C1071 C23 1.689 . S
C1090 C131 1.690 . S
C1107 C88 1.684 . S
C1126 C40 1.678 . S
C1143 C92 1.681 . S
C1162 C55 1.672 . S
C1179 C70 1.670 . S
C1198 C114 1.651 . S
C1215 C75 1.709 . S
C1234 C192 1.693 . S
C1251 C42 1.615 . S
C1270 C161 1.624 . S
C1287 C53 1.716 . S
C1306 C179 1.721 . S
C1323 C109 1.643 . S
C1342 C231 1.655 . S
C1359 C83 1.636 . S
C1378 C198 1.620 . S
C1395 C209 1.660 . S
C1414 C94 1.671 . S
C1431 C166 1.658 . S
C1450 C122 1.653 . S
C1467 C174 1.637 . S
C1486 C133 1.646 . S
C1503 C187 1.632 . S
C1522 C148 1.644 . S
