# Generated by pormake.
# Topology utp, (3)-cn, num edge types: 1
# Building blocks:
#     Node 0, Type 0, BuildingBlock: WUSLED_clean_sbu_0, # of connection points: 3
#     Node 1, Type 0, BuildingBlock: WUSLED_clean_sbu_0, # of connection points: 3
#     Node 2, Type 0, BuildingBlock: WUSLED_clean_sbu_0, # of connection points: 3
#     Node 3, Type 0, BuildingBlock: WUSLED_clean_sbu_0, # of connection points: 3
#     Node 4, Type 0, BuildingBlock: WUSLED_clean_sbu_0, # of connection points: 3
#     Node 5, Type 0, BuildingBlock: WUSLED_clean_sbu_0, # of connection points: 3
#     Node 6, Type 0, BuildingBlock: WUSLED_clean_sbu_0, # of connection points: 3
#     Node 7, Type 0, BuildingBlock: WUSLED_clean_sbu_0, # of connection points: 3
#     Edge 8, Type (0, 0), BuildingBlock: EYOCIG_clean_linker_4, # of connection points: 2
#     Edge 9, Type (0, 0), BuildingBlock: EYOCIG_clean_linker_4, # of connection points: 2
#     Edge 10, Type (0, 0), BuildingBlock: EYOCIG_clean_linker_4, # of connection points: 2
#     Edge 11, Type (0, 0), BuildingBlock: EYOCIG_clean_linker_4, # of connection points: 2
#     Edge 12, Type (0, 0), BuildingBlock: EYOCIG_clean_linker_4, # of connection points: 2
#     Edge 13, Type (0, 0), BuildingBlock: EYOCIG_clean_linker_4, # of connection points: 2
#     Edge 14, Type (0, 0), BuildingBlock: EYOCIG_clean_linker_4, # of connection points: 2
#     Edge 15, Type (0, 0), BuildingBlock: EYOCIG_clean_linker_4, # of connection points: 2
#     Edge 16, Type (0, 0), BuildingBlock: EYOCIG_clean_linker_4, # of connection points: 2
#     Edge 17, Type (0, 0), BuildingBlock: EYOCIG_clean_linker_4, # of connection points: 2
#     Edge 18, Type (0, 0), BuildingBlock: EYOCIG_clean_linker_4, # of connection points: 2
#     Edge 19, Type (0, 0), BuildingBlock: EYOCIG_clean_linker_4, # of connection points: 2
# Relax obj value: 0.000
# Max RMSD: 0.002
# Mean RMSD: 0.002
data_MOF--net-utp--node1-WUSLED_clean_sbu_0--edge1-EYOCIG_clean_linker_4
_symmetry_space_group_name_H-M    P1
_symmetry_Int_Tables_number       1
_symmetry_cell_setting            triclinic
loop_
_symmetry_equiv_pos_as_xyz
'x, y, z'
_cell_length_a     67.75023
_cell_length_b     60.239076
_cell_length_c     18.898093
_cell_angle_alpha  89.933577
_cell_angle_beta   90.056085
_cell_angle_gamma 89.97357
loop_
_atom_site_label
_atom_site_type_symbol
_atom_site_fract_x
_atom_site_fract_y
_atom_site_fract_z
_atom_type_partial_charge
C0 C 0.09202 0.07053 -0.01322 0.0
C1 C 0.09359 0.04771 -0.02902 0.0
C2 C 0.05789 0.0437 -0.02111 0.0
C3 C 0.07658 0.0344 -0.03298 0.0
C4 C 0.0563 0.06609 -0.00297 0.0
C5 C 0.07317 0.07935 0.00088 0.0
U6 U 0.14026 0.09849 0.06106 0.0
O7 O 0.12546 0.13181 0.06581 0.0
O8 O 0.15627 0.12966 0.08933 0.0
C9 C 0.14073 0.14195 0.0902 0.0
C10 C 0.10906 0.0862 -0.01821 0.0
C11 C 0.14122 0.16611 0.1066 0.0
C12 C 0.12378 0.20079 0.13033 0.0
C13 C 0.12368 0.17867 0.1074 0.0
C14 C 0.15877 0.19815 0.15462 0.0
C15 C 0.1414 0.21072 0.15253 0.0
C16 C 0.15869 0.17602 0.1319 0.0
C17 C 0.19143 0.06868 0.03818 0.0
C18 C 0.22591 0.06583 0.07399 0.0
C19 C 0.20766 0.03248 0.04563 0.0
C20 C 0.19088 0.04531 0.03216 0.0
C21 C 0.22527 0.04275 0.06588 0.0
C22 C 0.20912 0.07875 0.06036 0.0
C23 C 0.17441 0.08205 0.01169 0.0
O24 O 0.10921 0.10203 0.02717 0.0
O25 O 0.12673 0.07878 -0.02732 0.0
O26 O 0.17217 0.10247 0.03134 0.0
O27 O 0.15768 0.07197 0.01125 0.0
H28 H 0.10779 0.04033 -0.04066 0.0
H29 H 0.07795 0.01708 -0.04762 0.0
H30 H 0.04195 0.07356 0.00578 0.0
H31 H 0.07136 0.09685 0.01236 0.0
H32 H 0.11016 0.21024 0.1295 0.0
H33 H 0.10982 0.17134 0.09098 0.0
H34 H 0.17247 0.20553 0.17268 0.0
H35 H 0.17228 0.1666 0.13467 0.0
H36 H 0.23956 0.07394 0.08902 0.0
H37 H 0.207 1.01464 0.03837 0.0
H38 H 0.17765 0.03693 0.01424 0.0
H39 H 0.21019 0.09662 0.0647 0.0
C40 C 0.44323 0.95933 -0.01342 0.0
C41 C 0.4415 0.98215 -0.029 0.0
C42 C 0.47715 0.98657 -0.02017 0.0
C43 C 0.45839 0.99566 -0.03239 0.0
C44 C 0.47892 0.96412 -0.00268 0.0
C45 C 0.46216 0.95066 0.00062 0.0
U46 U 0.39507 0.93123 0.06087 0.0
O47 O 0.40988 0.89785 0.06547 0.0
O48 O 0.3791 0.90008 0.08912 0.0
C49 C 0.39459 0.88773 0.08984 0.0
C50 C 0.42627 0.94354 -0.01823 0.0
C51 C 0.39395 0.86357 0.10632 0.0
C52 C 0.41123 0.8289 0.13185 0.0
C53 C 0.41141 0.85087 0.10737 0.0
C54 C 0.37628 0.83191 0.15641 0.0
C55 C 0.39362 0.81927 0.15551 0.0
C56 C 0.37645 0.85389 0.13209 0.0
C57 C 0.34383 0.96102 0.03829 0.0
C58 C 0.30934 0.96366 0.074 0.0
C59 C 0.32746 0.99714 0.046 0.0
C60 C 0.34429 0.9844 0.03246 0.0
C61 C 0.30989 0.98675 0.06605 0.0
C62 C 0.32618 0.95084 0.06035 0.0
C63 C 0.36088 0.94775 0.01174 0.0
O64 O 0.42617 0.92783 0.02768 0.0
O65 O 0.40856 0.95083 -0.02785 0.0
O66 O 0.36314 0.92728 0.03107 0.0
O67 O 0.3776 0.95786 0.01157 0.0
H68 H 0.42724 0.9894 -0.0407 0.0
H69 H 0.45686 1.013 -0.04673 0.0
H70 H 0.49334 0.95679 0.00616 0.0
H71 H 0.46411 0.93316 0.01182 0.0
H72 H 0.42479 0.81935 0.13156 0.0
H73 H 0.42528 0.85801 0.09036 0.0
H74 H 0.36258 0.82474 0.17519 0.0
H75 H 0.3629 0.86341 0.1344 0.0
H76 H 0.29572 0.95546 0.08891 0.0
H77 H 0.32805 0.01499 0.03889 0.0
H78 H 0.35749 0.99286 0.01464 0.0
H79 H 0.32517 0.93296 0.06456 0.0
C80 C 0.09211 0.4593 0.3991 0.0
C81 C 0.09396 0.48209 0.41475 0.0
C82 C 0.05831 0.48652 0.4087 0.0
C83 C 0.07711 0.4956 0.41953 0.0
C84 C 0.05642 0.4642 0.39001 0.0
C85 C 0.07314 0.45073 0.38531 0.0
U86 U 0.14012 0.43116 0.32488 0.0
O87 O 0.1253 0.39779 0.32032 0.0
O88 O 0.1561 0.40004 0.29688 0.0
C89 C 0.14061 0.38768 0.29608 0.0
C90 C 0.10897 0.44343 0.404 0.0
C91 C 0.14133 0.36354 0.2796 0.0
C92 C 0.12424 0.32878 0.2539 0.0
C93 C 0.12393 0.35074 0.27845 0.0
C94 C 0.15917 0.33202 0.22949 0.0
C95 C 0.14191 0.31928 0.23027 0.0
C96 C 0.15888 0.35396 0.25388 0.0
C97 C 0.19128 0.4609 0.34737 0.0
C98 C 0.22587 0.46334 0.31306 0.0
C99 C 0.20789 0.49686 0.34191 0.0
C100 C 0.19092 0.48426 0.35384 0.0
C101 C 0.22548 0.48636 0.3228 0.0
C102 C 0.20888 0.45065 0.32521 0.0
C103 C 0.17422 0.44772 0.37398 0.0
O104 O 0.10903 0.4278 0.35795 0.0
O105 O 0.12669 0.45061 0.41389 0.0
O106 O 0.17199 0.42721 0.35519 0.0
O107 O 0.15752 0.45788 0.37369 0.0
H108 H 0.10827 0.48927 0.4259 0.0
H109 H 0.07871 0.51288 0.43437 0.0
H110 H 0.04196 0.45693 0.38184 0.0
H111 H 0.07114 0.43327 0.37371 0.0
H112 H 0.11072 0.31916 0.25409 0.0
H113 H 0.11002 0.3578 0.2954 0.0
H114 H 0.17292 0.32495 0.21073 0.0
H115 H 0.17238 0.36355 0.25163 0.0
H116 H 0.23948 0.45508 0.29844 0.0
H117 H 0.20742 0.51467 0.34993 0.0
H118 H 0.17772 0.49277 0.37142 0.0
H119 H 0.20977 0.43278 0.32021 0.0
C120 C 0.44325 0.57046 0.39944 0.0
C121 C 0.44154 0.54763 0.41498 0.0
C122 C 0.47718 0.54323 0.40605 0.0
C123 C 0.45844 0.53413 0.41832 0.0
C124 C 0.47893 0.56568 0.38859 0.0
C125 C 0.46215 0.57913 0.38535 0.0
U126 U 0.39508 0.59851 0.32493 0.0
O127 O 0.4098 0.63182 0.32022 0.0
O128 O 0.379 0.62967 0.29649 0.0
C129 C 0.39452 0.64197 0.29574 0.0
C130 C 0.42628 0.58624 0.40429 0.0
C131 C 0.39405 0.66612 0.27937 0.0
C132 C 0.41154 0.70074 0.25545 0.0
C133 C 0.41161 0.67864 0.27862 0.0
C134 C 0.37655 0.69816 0.23093 0.0
C135 C 0.39393 0.71068 0.23293 0.0
C136 C 0.3766 0.67605 0.25395 0.0
C137 C 0.34396 0.56877 0.34754 0.0
C138 C 0.30936 0.56612 0.3132 0.0
C139 C 0.32755 0.53271 0.34202 0.0
C140 C 0.34445 0.54542 0.35397 0.0
C141 C 0.3099 0.54308 0.32289 0.0
C142 C 0.32629 0.57893 0.32539 0.0
C143 C 0.36097 0.58203 0.37416 0.0
O144 O 0.42616 0.60197 0.35844 0.0
O145 O 0.40859 0.57894 0.41379 0.0
O146 O 0.3632 0.60251 0.35498 0.0
O147 O 0.37769 0.5719 0.37431 0.0
H148 H 0.4273 0.54038 0.4267 0.0
H149 H 0.45694 0.51678 0.43264 0.0
H150 H 0.49333 0.57301 0.37972 0.0
H151 H 0.46408 0.59664 0.37416 0.0
H152 H 0.42516 0.71017 0.25629 0.0
H153 H 0.42545 0.67128 0.2952 0.0
H154 H 0.36287 0.70556 0.2127 0.0
H155 H 0.363 0.66666 0.2512 0.0
H156 H 0.29569 0.57428 0.29857 0.0
H157 H 0.32814 0.51489 0.35004 0.0
H158 H 0.3577 0.53698 0.37155 0.0
H159 H 0.3253 0.5968 0.32042 0.0
C160 C 0.94591 0.96404 0.81978 0.0
C161 C 0.94395 0.98681 0.83561 0.0
C162 C 0.97718 0.98752 0.88506 0.0
C163 C 0.95953 0.99845 0.86793 0.0
C164 C 0.97908 0.96485 0.87101 0.0
C165 C 0.96362 0.95325 0.83877 0.0
U166 U 0.89547 0.93223 0.79856 0.0
O167 O 0.91135 0.90073 0.77105 0.0
O168 O 0.87984 0.90149 0.76421 0.0
C169 C 0.89545 0.88934 0.76319 0.0
C170 C 0.9309 0.95141 0.77794 0.0
C171 C 0.89519 0.86556 0.74354 0.0
C172 C 0.91207 0.82994 0.73481 0.0
C173 C 0.9127 0.85296 0.74446 0.0
C174 C 0.87645 0.83157 0.72527 0.0
C175 C 0.89394 0.81931 0.72416 0.0
C176 C 0.87705 0.85454 0.73491 0.0
C177 C 0.84635 0.9655 0.76829 0.0
C178 C 0.81036 0.96582 0.76917 0.0
C179 C 0.8283 0.99835 0.8079 0.0
C180 C 0.8461 0.98734 0.79534 0.0
C181 C 0.8104 0.9877 0.79416 0.0
C182 C 0.82821 0.95474 0.75636 0.0
C183 C 0.8654 0.95573 0.74401 0.0
O184 O 0.92806 0.93127 0.79767 0.0
O185 O 0.9143 0.96047 0.76068 0.0
O186 O 0.86717 0.93447 0.73681 0.0
O187 O 0.88103 0.9639 0.77261 0.0
H188 H 0.93066 0.99574 0.82139 0.0
H189 H 0.95795 0.01606 0.87804 0.0
H190 H 0.99269 0.9562 0.88336 0.0
H191 H 0.96577 0.93584 0.82667 0.0
H192 H 0.92571 0.8205 0.73512 0.0
H193 H 0.92683 0.86084 0.75378 0.0
H194 H 0.86233 0.82343 0.71806 0.0
H195 H 0.86326 0.86362 0.73667 0.0
H196 H 0.79653 0.95749 0.7579 0.0
H197 H 0.82855 0.01535 0.82668 0.0
H198 H 0.85972 0.99632 0.80432 0.0
H199 H 0.82779 0.9381 0.73483 0.0
C200 C 0.58923 0.06576 0.8198 0.0
C201 C 0.59096 0.04297 0.83586 0.0
C202 C 0.55778 0.04272 0.88568 0.0
C203 C 0.57529 0.03154 0.86848 0.0
C204 C 0.55608 0.06538 0.87103 0.0
C205 C 0.57162 0.07676 0.83852 0.0
U206 U 0.63978 0.09749 0.7987 0.0
O207 O 0.62385 0.129 0.77117 0.0
O208 O 0.65535 0.12825 0.76414 0.0
C209 C 0.63974 0.1404 0.76323 0.0
C210 C 0.60436 0.07823 0.77792 0.0
C211 C 0.64003 0.16419 0.74354 0.0
C212 C 0.62316 0.19981 0.73483 0.0
C213 C 0.62252 0.17679 0.74446 0.0
C214 C 0.65878 0.19817 0.72523 0.0
C215 C 0.64128 0.21044 0.72415 0.0
C216 C 0.65818 0.1752 0.73491 0.0
C217 C 0.68883 0.06418 0.76834 0.0
C218 C 0.72483 0.06331 0.76912 0.0
C219 C 0.7065 0.03101 0.80763 0.0
C220 C 0.68884 0.04232 0.79534 0.0
C221 C 0.72452 0.04137 0.7938 0.0
C222 C 0.7071 0.07469 0.7565 0.0
C223 C 0.66987 0.07418 0.7438 0.0
O224 O 0.60719 0.09845 0.79677 0.0
O225 O 0.62099 0.0691 0.76167 0.0
O226 O 0.66819 0.09547 0.7376 0.0
O227 O 0.65415 0.06593 0.77136 0.0
H228 H 0.60415 0.03386 0.82172 0.0
H229 H 0.57671 1.01392 0.87892 0.0
H230 H 0.54258 0.07423 0.88331 0.0
H231 H 0.56962 0.09417 0.82613 0.0
H232 H 0.60954 0.20925 0.73514 0.0
H233 H 0.60839 0.16893 0.75377 0.0
H234 H 0.6729 0.20632 0.71799 0.0
H235 H 0.67196 0.1661 0.73669 0.0
H236 H 0.73875 0.07143 0.75793 0.0
H237 H 0.70605 1.01399 0.8263 0.0
H238 H 0.67514 0.03353 0.80439 0.0
H239 H 0.70769 0.09136 0.73511 0.0
C240 C 0.94586 0.56582 0.56627 0.0
C241 C 0.9441 0.54304 0.55046 0.0
C242 C 0.97751 0.5426 0.50306 0.0
C243 C 0.95988 0.53152 0.51911 0.0
C244 C 0.97912 0.56533 0.51639 0.0
C245 C 0.96348 0.5768 0.54765 0.0
U246 U 0.89545 0.59759 0.58728 0.0
O247 O 0.91147 0.62906 0.61487 0.0
O248 O 0.87997 0.62826 0.62233 0.0
C249 C 0.89556 0.64042 0.62321 0.0
C250 C 0.9308 0.57827 0.60821 0.0
C251 C 0.89515 0.66418 0.64313 0.0
C252 C 0.9118 0.69993 0.64995 0.0
C253 C 0.91259 0.67687 0.64206 0.0
C254 C 0.87618 0.69816 0.65918 0.0
C255 C 0.89362 0.71055 0.65897 0.0
C256 C 0.87693 0.67512 0.65118 0.0
C257 C 0.84642 0.56436 0.61767 0.0
C258 C 0.81045 0.56377 0.61812 0.0
C259 C 0.82849 0.53128 0.57954 0.0
C260 C 0.84625 0.5425 0.59086 0.0
C261 C 0.81058 0.54178 0.59427 0.0
C262 C 0.82825 0.57505 0.62973 0.0
C263 C 0.86542 0.5742 0.64207 0.0
O264 O 0.92801 0.59851 0.58932 0.0
O265 O 0.91419 0.56916 0.62455 0.0
O266 O 0.86714 0.59548 0.64874 0.0
O267 O 0.88109 0.56597 0.61407 0.0
H268 H 0.93085 0.53399 0.56424 0.0
H269 H 0.95851 0.51386 0.50922 0.0
H270 H 0.9927 0.57411 0.50456 0.0
H271 H 0.96545 0.59425 0.55958 0.0
H272 H 0.92538 0.70945 0.64909 0.0
H273 H 0.92678 0.66905 0.63344 0.0
H274 H 0.86201 0.70626 0.66558 0.0
H275 H 0.86321 0.66593 0.64976 0.0
H276 H 0.7966 0.57201 0.62977 0.0
H277 H 0.8288 0.51423 0.56127 0.0
H278 H 0.85989 0.53361 0.58149 0.0
H279 H 0.82779 0.59174 0.65081 0.0
C280 C 0.58922 0.46402 0.56633 0.0
C281 C 0.59097 0.4868 0.55024 0.0
C282 C 0.5578 0.48709 0.50022 0.0
C283 C 0.57532 0.49824 0.5175 0.0
C284 C 0.55608 0.46444 0.51491 0.0
C285 C 0.57161 0.45304 0.54754 0.0
U286 U 0.63971 0.43223 0.58734 0.0
O287 O 0.62375 0.40073 0.6149 0.0
O288 O 0.65525 0.40153 0.62224 0.0
C289 C 0.63967 0.38936 0.6232 0.0
C290 C 0.60433 0.45153 0.60826 0.0
C291 C 0.64008 0.36559 0.64308 0.0
C292 C 0.62341 0.32985 0.64994 0.0
C293 C 0.62264 0.35292 0.64202 0.0
C294 C 0.65904 0.33159 0.65922 0.0
C295 C 0.64159 0.31921 0.659 0.0
C296 C 0.6583 0.35464 0.65119 0.0
C297 C 0.6888 0.46539 0.61766 0.0
C298 C 0.72477 0.46595 0.61813 0.0
C299 C 0.70674 0.49848 0.57952 0.0
C300 C 0.68898 0.48728 0.59084 0.0
C301 C 0.72465 0.48796 0.59426 0.0
C302 C 0.70697 0.45468 0.62975 0.0
C303 C 0.66979 0.45557 0.64205 0.0
O304 O 0.60714 0.43132 0.58933 0.0
O305 O 0.62097 0.46064 0.62454 0.0
O306 O 0.66805 0.4343 0.64883 0.0
O307 O 0.65412 0.46383 0.61394 0.0
H308 H 0.60418 0.49588 0.56443 0.0
H309 H 0.57674 0.51586 0.50702 0.0
H310 H 0.54257 0.45562 0.50256 0.0
H311 H 0.56959 0.43563 0.55995 0.0
H312 H 0.60983 0.32034 0.64907 0.0
H313 H 0.60845 0.36075 0.63338 0.0
H314 H 0.67321 0.32347 0.66564 0.0
H315 H 0.67203 0.36382 0.64979 0.0
H316 H 0.73862 0.45769 0.6298 0.0
H317 H 0.70644 0.51554 0.56124 0.0
H318 H 0.67534 0.49619 0.58145 0.0
H319 H 0.70742 0.43798 0.65084 0.0
C320 C 0.14236 0.2537 0.18146 0.0
C321 C 0.14191 0.23412 0.16827 0.0
C322 C 0.14264 0.27669 0.19581 0.0
C323 C 0.14256 0.29611 0.21132 0.0
C324 C 0.39323 0.77665 0.18952 0.0
C325 C 0.39315 0.79608 0.17422 0.0
C326 C 0.39339 0.75364 0.20364 0.0
C327 C 0.39347 0.73406 0.21686 0.0
C328 C 0.89317 0.77651 0.696 0.0
C329 C 0.89332 0.79603 0.70879 0.0
C330 C 0.89293 0.7537 0.68101 0.0
C331 C 0.89299 0.73402 0.67103 0.0
C332 C 0.6423 0.27606 0.68106 0.0
C333 C 0.64222 0.29574 0.67106 0.0
C334 C 0.64208 0.25324 0.69599 0.0
C335 C 0.64184 0.23372 0.70879 0.0
C336 C 0.27671 1.00919 0.08209 0.0
C337 C 0.29207 0.99945 0.07443 0.0
C338 C 0.25831 0.02005 0.08207 0.0
C339 C 0.24302 0.02992 0.07433 0.0
C340 C 0.27684 0.52024 0.31242 0.0
C341 C 0.29205 0.53037 0.31742 0.0
C342 C 0.25871 0.5089 0.31243 0.0
C343 C 0.24342 0.49891 0.31739 0.0
C344 C 0.7581 0.01962 0.80867 0.0
C345 C 0.74263 0.02923 0.80226 0.0
C346 C 0.77647 1.00872 0.80894 0.0
C347 C 0.7921 0.99946 0.80261 0.0
C348 C 0.75843 0.50944 0.58348 0.0
C349 C 0.74286 0.49999 0.58798 0.0
C350 C 0.77681 0.52027 0.58349 0.0
C351 C 0.79238 0.52973 0.58799 0.0
C352 C 1.00791 1.00928 0.93682 0.0
C353 C 0.99375 0.99967 0.91325 0.0
C354 C 0.02522 0.02069 -0.04317 0.0
C355 C 0.04023 0.03096 -0.03331 0.0
C356 C 0.50961 1.01016 -0.04055 0.0
C357 C 0.49468 0.99964 -0.03146 0.0
C358 C 0.52692 0.02156 0.93922 0.0
C359 C 0.54113 0.0309 0.91485 0.0
C360 C 1.00877 0.52114 0.45479 0.0
C361 C 0.99437 0.53061 0.47678 0.0
C362 C 0.02606 0.50979 0.43459 0.0
C363 C 0.04089 0.49941 0.42299 0.0
C364 C 0.50966 0.51967 0.42624 0.0
C365 C 0.49473 0.53018 0.41724 0.0
C366 C 0.52698 0.50828 0.44647 0.0
C367 C 0.54117 0.49893 0.47094 0.0
loop_
_geom_bond_atom_site_label_1
_geom_bond_atom_site_label_2
_geom_bond_distance
_geom_bond_site_symmetry_2
_ccdc_geom_bond_type
C0 C1 1.264 . S
C0 C5 1.479 . S
C0 C10 1.465 . S
C1 C0 1.264 . S
C1 C3 1.339 . S
C1 H28 0.931 . S
C2 C3 1.395 . S
C2 C4 1.320 . S
C3 C1 1.339 . S
C3 C2 1.395 . S
C3 H29 0.929 . S
C4 C2 1.320 . S
C4 C5 1.405 . S
C4 H30 0.930 . S
C5 C0 1.479 . S
C5 C4 1.405 . S
C5 H31 0.931 . S
U6 O7 2.454 . S
U6 O8 2.458 . S
U6 C9 2.984 . S
U6 C10 2.847 . S
U6 C23 2.882 . S
U6 O24 2.441 . S
U6 O25 2.420 . S
U6 O26 2.455 . S
U6 O27 2.449 . S
O7 U6 2.454 . S
O7 C9 1.353 . S
O8 U6 2.458 . S
O8 C9 1.286 . S
C9 U6 2.984 . S
C9 O7 1.353 . S
C9 O8 1.286 . S
C9 C11 1.363 . S
C10 C0 1.465 . S
C10 U6 2.847 . S
C10 O24 1.249 . S
C10 O25 1.202 . S
C11 C9 1.363 . S
C11 C13 1.408 . S
C11 C16 1.342 . S
C12 C13 1.310 . S
C12 C15 1.461 . S
C12 H32 0.932 . S
C13 C11 1.408 . S
C13 C12 1.310 . S
C13 H33 0.930 . S
C14 C15 1.474 . S
C14 C16 1.285 . S
C14 H34 0.929 . S
C15 C12 1.461 . S
C15 C14 1.474 . S
C16 C11 1.342 . S
C16 C14 1.285 . S
C16 H35 0.930 . S
C17 C20 1.424 . S
C17 C22 1.245 . S
C17 C23 1.428 . S
C18 C21 1.260 . S
C18 C22 1.477 . S
C18 H36 0.932 . S
C19 C20 1.384 . S
C19 C21 1.479 . S
C19 H37 0.929 . S
C20 C17 1.424 . S
C20 C19 1.384 . S
C20 H38 0.928 . S
C21 C18 1.260 . S
C21 C19 1.479 . S
C22 C17 1.245 . S
C22 C18 1.477 . S
C22 H39 0.932 . S
C23 U6 2.882 . S
C23 C17 1.428 . S
C23 O26 1.301 . S
C23 O27 1.282 . S
O24 U6 2.441 . S
O24 C10 1.249 . S
O25 U6 2.420 . S
O25 C10 1.202 . S
O26 U6 2.455 . S
O26 C23 1.301 . S
O27 U6 2.449 . S
O27 C23 1.282 . S
H28 C1 0.931 . S
H29 C3 0.929 . S
H30 C4 0.930 . S
H31 C5 0.931 . S
H32 C12 0.932 . S
H33 C13 0.930 . S
H34 C14 0.929 . S
H35 C16 0.930 . S
H36 C18 0.932 . S
H37 C19 0.929 . S
H38 C20 0.928 . S
H39 C22 0.932 . S
C40 C41 1.264 . S
C40 C45 1.479 . S
C40 C50 1.465 . S
C41 C40 1.264 . S
C41 C43 1.339 . S
C41 H68 0.931 . S
C42 C43 1.395 . S
C42 C44 1.320 . S
C43 C41 1.339 . S
C43 C42 1.395 . S
C43 H69 0.929 . S
C44 C42 1.320 . S
C44 C45 1.405 . S
C44 H70 0.930 . S
C45 C40 1.479 . S
C45 C44 1.405 . S
C45 H71 0.931 . S
U46 O47 2.454 . S
U46 O48 2.458 . S
U46 C49 2.984 . S
U46 C50 2.847 . S
U46 C63 2.882 . S
U46 O64 2.441 . S
U46 O65 2.420 . S
U46 O66 2.455 . S
U46 O67 2.449 . S
O47 U46 2.454 . S
O47 C49 1.353 . S
O48 U46 2.458 . S
O48 C49 1.286 . S
C49 U46 2.984 . S
C49 O47 1.353 . S
C49 O48 1.286 . S
C49 C51 1.363 . S
C50 C40 1.465 . S
C50 U46 2.847 . S
C50 O64 1.249 . S
C50 O65 1.202 . S
C51 C49 1.363 . S
C51 C53 1.408 . S
C51 C56 1.342 . S
C52 C53 1.310 . S
C52 C55 1.461 . S
C52 H72 0.932 . S
C53 C51 1.408 . S
C53 C52 1.310 . S
C53 H73 0.930 . S
C54 C55 1.474 . S
C54 C56 1.285 . S
C54 H74 0.929 . S
C55 C52 1.461 . S
C55 C54 1.474 . S
C56 C51 1.342 . S
C56 C54 1.285 . S
C56 H75 0.930 . S
C57 C60 1.424 . S
C57 C62 1.245 . S
C57 C63 1.428 . S
C58 C61 1.260 . S
C58 C62 1.477 . S
C58 H76 0.932 . S
C59 C60 1.384 . S
C59 C61 1.479 . S
C59 H77 0.929 . S
C60 C57 1.424 . S
C60 C59 1.384 . S
C60 H78 0.928 . S
C61 C58 1.260 . S
C61 C59 1.479 . S
C62 C57 1.245 . S
C62 C58 1.477 . S
C62 H79 0.932 . S
C63 U46 2.882 . S
C63 C57 1.428 . S
C63 O66 1.301 . S
C63 O67 1.282 . S
O64 U46 2.441 . S
O64 C50 1.249 . S
O65 U46 2.420 . S
O65 C50 1.202 . S
O66 U46 2.455 . S
O66 C63 1.301 . S
O67 U46 2.449 . S
O67 C63 1.282 . S
H68 C41 0.931 . S
H69 C43 0.929 . S
H70 C44 0.930 . S
H71 C45 0.931 . S
H72 C52 0.932 . S
H73 C53 0.930 . S
H74 C54 0.929 . S
H75 C56 0.930 . S
H76 C58 0.932 . S
H77 C59 0.929 . S
H78 C60 0.928 . S
H79 C62 0.932 . S
C80 C81 1.264 . S
C80 C85 1.479 . S
C80 C90 1.465 . S
C81 C80 1.264 . S
C81 C83 1.339 . S
C81 H108 0.931 . S
C82 C83 1.395 . S
C82 C84 1.320 . S
C83 C81 1.339 . S
C83 C82 1.395 . S
C83 H109 0.929 . S
C84 C82 1.320 . S
C84 C85 1.405 . S
C84 H110 0.930 . S
C85 C80 1.479 . S
C85 C84 1.405 . S
C85 H111 0.931 . S
U86 O87 2.454 . S
U86 O88 2.458 . S
U86 C89 2.984 . S
U86 C90 2.847 . S
U86 C103 2.882 . S
U86 O104 2.441 . S
U86 O105 2.420 . S
U86 O106 2.455 . S
U86 O107 2.449 . S
O87 U86 2.454 . S
O87 C89 1.353 . S
O88 U86 2.458 . S
O88 C89 1.286 . S
C89 U86 2.984 . S
C89 O87 1.353 . S
C89 O88 1.286 . S
C89 C91 1.363 . S
C90 C80 1.465 . S
C90 U86 2.847 . S
C90 O104 1.249 . S
C90 O105 1.202 . S
C91 C89 1.363 . S
C91 C93 1.408 . S
C91 C96 1.342 . S
C92 C93 1.310 . S
C92 C95 1.461 . S
C92 H112 0.932 . S
C93 C91 1.408 . S
C93 C92 1.310 . S
C93 H113 0.930 . S
C94 C95 1.474 . S
C94 C96 1.285 . S
C94 H114 0.929 . S
C95 C92 1.461 . S
C95 C94 1.474 . S
C96 C91 1.342 . S
C96 C94 1.285 . S
C96 H115 0.930 . S
C97 C100 1.424 . S
C97 C102 1.245 . S
C97 C103 1.428 . S
C98 C101 1.260 . S
C98 C102 1.477 . S
C98 H116 0.932 . S
C99 C100 1.384 . S
C99 C101 1.479 . S
C99 H117 0.929 . S
C100 C97 1.424 . S
C100 C99 1.384 . S
C100 H118 0.928 . S
C101 C98 1.260 . S
C101 C99 1.479 . S
C102 C97 1.245 . S
C102 C98 1.477 . S
C102 H119 0.932 . S
C103 U86 2.882 . S
C103 C97 1.428 . S
C103 O106 1.301 . S
C103 O107 1.282 . S
O104 U86 2.441 . S
O104 C90 1.249 . S
O105 U86 2.420 . S
O105 C90 1.202 . S
O106 U86 2.455 . S
O106 C103 1.301 . S
O107 U86 2.449 . S
O107 C103 1.282 . S
H108 C81 0.931 . S
H109 C83 0.929 . S
H110 C84 0.930 . S
H111 C85 0.931 . S
H112 C92 0.932 . S
H113 C93 0.930 . S
H114 C94 0.929 . S
H115 C96 0.930 . S
H116 C98 0.932 . S
H117 C99 0.929 . S
H118 C100 0.928 . S
H119 C102 0.932 . S
C120 C121 1.264 . S
C120 C125 1.479 . S
C120 C130 1.465 . S
C121 C120 1.264 . S
C121 C123 1.339 . S
C121 H148 0.931 . S
C122 C123 1.395 . S
C122 C124 1.320 . S
C123 C121 1.339 . S
C123 C122 1.395 . S
C123 H149 0.929 . S
C124 C122 1.320 . S
C124 C125 1.405 . S
C124 H150 0.930 . S
C125 C120 1.479 . S
C125 C124 1.405 . S
C125 H151 0.931 . S
U126 O127 2.454 . S
U126 O128 2.458 . S
U126 C129 2.984 . S
U126 C130 2.847 . S
U126 C143 2.882 . S
U126 O144 2.441 . S
U126 O145 2.420 . S
U126 O146 2.455 . S
U126 O147 2.449 . S
O127 U126 2.454 . S
O127 C129 1.353 . S
O128 U126 2.458 . S
O128 C129 1.286 . S
C129 U126 2.984 . S
C129 O127 1.353 . S
C129 O128 1.286 . S
C129 C131 1.363 . S
C130 C120 1.465 . S
C130 U126 2.847 . S
C130 O144 1.249 . S
C130 O145 1.202 . S
C131 C129 1.363 . S
C131 C133 1.408 . S
C131 C136 1.342 . S
C132 C133 1.310 . S
C132 C135 1.461 . S
C132 H152 0.932 . S
C133 C131 1.408 . S
C133 C132 1.310 . S
C133 H153 0.930 . S
C134 C135 1.474 . S
C134 C136 1.285 . S
C134 H154 0.929 . S
C135 C132 1.461 . S
C135 C134 1.474 . S
C136 C131 1.342 . S
C136 C134 1.285 . S
C136 H155 0.930 . S
C137 C140 1.424 . S
C137 C142 1.245 . S
C137 C143 1.428 . S
C138 C141 1.260 . S
C138 C142 1.477 . S
C138 H156 0.932 . S
C139 C140 1.384 . S
C139 C141 1.479 . S
C139 H157 0.929 . S
C140 C137 1.424 . S
C140 C139 1.384 . S
C140 H158 0.928 . S
C141 C138 1.260 . S
C141 C139 1.479 . S
C142 C137 1.245 . S
C142 C138 1.477 . S
C142 H159 0.932 . S
C143 U126 2.882 . S
C143 C137 1.428 . S
C143 O146 1.301 . S
C143 O147 1.282 . S
O144 U126 2.441 . S
O144 C130 1.249 . S
O145 U126 2.420 . S
O145 C130 1.202 . S
O146 U126 2.455 . S
O146 C143 1.301 . S
O147 U126 2.449 . S
O147 C143 1.282 . S
H148 C121 0.931 . S
H149 C123 0.929 . S
H150 C124 0.930 . S
H151 C125 0.931 . S
H152 C132 0.932 . S
H153 C133 0.930 . S
H154 C134 0.929 . S
H155 C136 0.930 . S
H156 C138 0.932 . S
H157 C139 0.929 . S
H158 C140 0.928 . S
H159 C142 0.932 . S
C160 C161 1.264 . S
C160 C165 1.479 . S
C160 C170 1.465 . S
C161 C160 1.264 . S
C161 C163 1.339 . S
C161 H188 0.931 . S
C162 C163 1.395 . S
C162 C164 1.320 . S
C163 C161 1.339 . S
C163 C162 1.395 . S
C163 H189 0.929 . S
C164 C162 1.320 . S
C164 C165 1.405 . S
C164 H190 0.930 . S
C165 C160 1.479 . S
C165 C164 1.405 . S
C165 H191 0.931 . S
U166 O167 2.454 . S
U166 O168 2.458 . S
U166 C169 2.984 . S
U166 C170 2.847 . S
U166 C183 2.882 . S
U166 O184 2.441 . S
U166 O185 2.420 . S
U166 O186 2.455 . S
U166 O187 2.449 . S
O167 U166 2.454 . S
O167 C169 1.353 . S
O168 U166 2.458 . S
O168 C169 1.286 . S
C169 U166 2.984 . S
C169 O167 1.353 . S
C169 O168 1.286 . S
C169 C171 1.363 . S
C170 C160 1.465 . S
C170 U166 2.847 . S
C170 O184 1.249 . S
C170 O185 1.202 . S
C171 C169 1.363 . S
C171 C173 1.408 . S
C171 C176 1.342 . S
C172 C173 1.310 . S
C172 C175 1.461 . S
C172 H192 0.932 . S
C173 C171 1.408 . S
C173 C172 1.310 . S
C173 H193 0.930 . S
C174 C175 1.474 . S
C174 C176 1.285 . S
C174 H194 0.929 . S
C175 C172 1.461 . S
C175 C174 1.474 . S
C176 C171 1.342 . S
C176 C174 1.285 . S
C176 H195 0.930 . S
C177 C180 1.424 . S
C177 C182 1.245 . S
C177 C183 1.428 . S
C178 C181 1.260 . S
C178 C182 1.477 . S
C178 H196 0.932 . S
C179 C180 1.384 . S
C179 C181 1.479 . S
C179 H197 0.952 . S
C180 C177 1.424 . S
C180 C179 1.384 . S
C180 H198 0.928 . S
C181 C178 1.260 . S
C181 C179 1.479 . S
C182 C177 1.245 . S
C182 C178 1.477 . S
C182 H199 0.932 . S
C183 U166 2.882 . S
C183 C177 1.428 . S
C183 O186 1.301 . S
C183 O187 1.282 . S
O184 U166 2.441 . S
O184 C170 1.249 . S
O185 U166 2.420 . S
O185 C170 1.202 . S
O186 U166 2.455 . S
O186 C183 1.301 . S
O187 U166 2.449 . S
O187 C183 1.282 . S
H188 C161 0.931 . S
H189 C163 0.929 . S
H190 C164 0.930 . S
H191 C165 0.931 . S
H192 C172 0.932 . S
H193 C173 0.930 . S
H194 C174 0.929 . S
H195 C176 0.930 . S
H196 C178 0.932 . S
H197 C179 0.952 . S
H198 C180 0.928 . S
H199 C182 0.932 . S
C200 C201 1.264 . S
C200 C205 1.479 . S
C200 C210 1.465 . S
C201 C200 1.264 . S
C201 C203 1.339 . S
C201 H228 0.931 . S
C202 C203 1.395 . S
C202 C204 1.320 . S
C203 C201 1.339 . S
C203 C202 1.395 . S
C203 H229 0.929 . S
C204 C202 1.320 . S
C204 C205 1.405 . S
C204 H230 0.930 . S
C205 C200 1.479 . S
C205 C204 1.405 . S
C205 H231 0.931 . S
U206 O207 2.454 . S
U206 O208 2.458 . S
U206 C209 2.984 . S
U206 C210 2.847 . S
U206 C223 2.882 . S
U206 O224 2.441 . S
U206 O225 2.420 . S
U206 O226 2.455 . S
U206 O227 2.449 . S
O207 U206 2.454 . S
O207 C209 1.353 . S
O208 U206 2.458 . S
O208 C209 1.286 . S
C209 U206 2.984 . S
C209 O207 1.353 . S
C209 O208 1.286 . S
C209 C211 1.363 . S
C210 C200 1.465 . S
C210 U206 2.847 . S
C210 O224 1.249 . S
C210 O225 1.202 . S
C211 C209 1.363 . S
C211 C213 1.408 . S
C211 C216 1.342 . S
C212 C213 1.310 . S
C212 C215 1.461 . S
C212 H232 0.932 . S
C213 C211 1.408 . S
C213 C212 1.310 . S
C213 H233 0.930 . S
C214 C215 1.474 . S
C214 C216 1.285 . S
C214 H234 0.929 . S
C215 C212 1.461 . S
C215 C214 1.474 . S
C216 C211 1.342 . S
C216 C214 1.285 . S
C216 H235 0.930 . S
C217 C220 1.424 . S
C217 C222 1.245 . S
C217 C223 1.428 . S
C218 C221 1.260 . S
C218 C222 1.477 . S
C218 H236 0.932 . S
C219 C220 1.384 . S
C219 C221 1.479 . S
C219 H237 0.952 . S
C220 C217 1.424 . S
C220 C219 1.384 . S
C220 H238 0.928 . S
C221 C218 1.260 . S
C221 C219 1.479 . S
C222 C217 1.245 . S
C222 C218 1.477 . S
C222 H239 0.932 . S
C223 U206 2.882 . S
C223 C217 1.428 . S
C223 O226 1.301 . S
C223 O227 1.282 . S
O224 U206 2.441 . S
O224 C210 1.249 . S
O225 U206 2.420 . S
O225 C210 1.202 . S
O226 U206 2.455 . S
O226 C223 1.301 . S
O227 U206 2.449 . S
O227 C223 1.282 . S
H228 C201 0.931 . S
H229 C203 0.929 . S
H230 C204 0.930 . S
H231 C205 0.931 . S
H232 C212 0.932 . S
H233 C213 0.930 . S
H234 C214 0.929 . S
H235 C216 0.930 . S
H236 C218 0.932 . S
H237 C219 0.952 . S
H238 C220 0.928 . S
H239 C222 0.932 . S
C240 C241 1.264 . S
C240 C245 1.479 . S
C240 C250 1.465 . S
C241 C240 1.264 . S
C241 C243 1.339 . S
C241 H268 0.931 . S
C242 C243 1.395 . S
C242 C244 1.320 . S
C243 C241 1.339 . S
C243 C242 1.395 . S
C243 H269 0.929 . S
C244 C242 1.320 . S
C244 C245 1.405 . S
C244 H270 0.930 . S
C245 C240 1.479 . S
C245 C244 1.405 . S
C245 H271 0.931 . S
U246 O247 2.454 . S
U246 O248 2.458 . S
U246 C249 2.984 . S
U246 C250 2.847 . S
U246 C263 2.882 . S
U246 O264 2.441 . S
U246 O265 2.420 . S
U246 O266 2.455 . S
U246 O267 2.449 . S
O247 U246 2.454 . S
O247 C249 1.353 . S
O248 U246 2.458 . S
O248 C249 1.286 . S
C249 U246 2.984 . S
C249 O247 1.353 . S
C249 O248 1.286 . S
C249 C251 1.363 . S
C250 C240 1.465 . S
C250 U246 2.847 . S
C250 O264 1.249 . S
C250 O265 1.202 . S
C251 C249 1.363 . S
C251 C253 1.408 . S
C251 C256 1.342 . S
C252 C253 1.310 . S
C252 C255 1.461 . S
C252 H272 0.932 . S
C253 C251 1.408 . S
C253 C252 1.310 . S
C253 H273 0.930 . S
C254 C255 1.474 . S
C254 C256 1.285 . S
C254 H274 0.929 . S
C255 C252 1.461 . S
C255 C254 1.474 . S
C256 C251 1.342 . S
C256 C254 1.285 . S
C256 H275 0.930 . S
C257 C260 1.424 . S
C257 C262 1.245 . S
C257 C263 1.428 . S
C258 C261 1.260 . S
C258 C262 1.477 . S
C258 H276 0.932 . S
C259 C260 1.384 . S
C259 C261 1.479 . S
C259 H277 0.929 . S
C260 C257 1.424 . S
C260 C259 1.384 . S
C260 H278 0.928 . S
C261 C258 1.260 . S
C261 C259 1.479 . S
C262 C257 1.245 . S
C262 C258 1.477 . S
C262 H279 0.932 . S
C263 U246 2.882 . S
C263 C257 1.428 . S
C263 O266 1.301 . S
C263 O267 1.282 . S
O264 U246 2.441 . S
O264 C250 1.249 . S
O265 U246 2.420 . S
O265 C250 1.202 . S
O266 U246 2.455 . S
O266 C263 1.301 . S
O267 U246 2.449 . S
O267 C263 1.282 . S
H268 C241 0.931 . S
H269 C243 0.929 . S
H270 C244 0.930 . S
H271 C245 0.931 . S
H272 C252 0.932 . S
H273 C253 0.930 . S
H274 C254 0.929 . S
H275 C256 0.930 . S
H276 C258 0.932 . S
H277 C259 0.929 . S
H278 C260 0.928 . S
H279 C262 0.932 . S
C280 C281 1.264 . S
C280 C285 1.479 . S
C280 C290 1.465 . S
C281 C280 1.264 . S
C281 C283 1.339 . S
C281 H308 0.931 . S
C282 C283 1.395 . S
C282 C284 1.320 . S
C283 C281 1.339 . S
C283 C282 1.395 . S
C283 H309 0.929 . S
C284 C282 1.320 . S
C284 C285 1.405 . S
C284 H310 0.930 . S
C285 C280 1.479 . S
C285 C284 1.405 . S
C285 H311 0.931 . S
U286 O287 2.454 . S
U286 O288 2.458 . S
U286 C289 2.984 . S
U286 C290 2.847 . S
U286 C303 2.882 . S
U286 O304 2.441 . S
U286 O305 2.420 . S
U286 O306 2.455 . S
U286 O307 2.449 . S
O287 U286 2.454 . S
O287 C289 1.353 . S
O288 U286 2.458 . S
O288 C289 1.286 . S
C289 U286 2.984 . S
C289 O287 1.353 . S
C289 O288 1.286 . S
C289 C291 1.363 . S
C290 C280 1.465 . S
C290 U286 2.847 . S
C290 O304 1.249 . S
C290 O305 1.202 . S
C291 C289 1.363 . S
C291 C293 1.408 . S
C291 C296 1.342 . S
C292 C293 1.310 . S
C292 C295 1.461 . S
C292 H312 0.932 . S
C293 C291 1.408 . S
C293 C292 1.310 . S
C293 H313 0.930 . S
C294 C295 1.474 . S
C294 C296 1.285 . S
C294 H314 0.929 . S
C295 C292 1.461 . S
C295 C294 1.474 . S
C296 C291 1.342 . S
C296 C294 1.285 . S
C296 H315 0.930 . S
C297 C300 1.424 . S
C297 C302 1.245 . S
C297 C303 1.428 . S
C298 C301 1.260 . S
C298 C302 1.477 . S
C298 H316 0.932 . S
C299 C300 1.384 . S
C299 C301 1.479 . S
C299 H317 0.929 . S
C300 C297 1.424 . S
C300 C299 1.384 . S
C300 H318 0.928 . S
C301 C298 1.260 . S
C301 C299 1.479 . S
C302 C297 1.245 . S
C302 C298 1.477 . S
C302 H319 0.932 . S
C303 U286 2.882 . S
C303 C297 1.428 . S
C303 O306 1.301 . S
C303 O307 1.282 . S
O304 U286 2.441 . S
O304 C290 1.249 . S
O305 U286 2.420 . S
O305 C290 1.202 . S
O306 U286 2.455 . S
O306 C303 1.301 . S
O307 U286 2.449 . S
O307 C303 1.282 . S
H308 C281 0.931 . S
H309 C283 0.929 . S
H310 C284 0.930 . S
H311 C285 0.931 . S
H312 C292 0.932 . S
H313 C293 0.930 . S
H314 C294 0.929 . S
H315 C296 0.930 . S
H316 C298 0.932 . S
H317 C299 0.929 . S
H318 C300 0.928 . S
H319 C302 0.932 . S
C320 C321 1.170 . S
C320 C322 1.380 . S
C321 C320 1.170 . S
C322 C320 1.380 . S
C322 C323 1.170 . S
C323 C322 1.170 . S
C324 C325 1.170 . S
C324 C326 1.380 . S
C325 C324 1.170 . S
C326 C324 1.380 . S
C326 C327 1.170 . S
C327 C326 1.170 . S
C328 C329 1.170 . S
C328 C330 1.380 . S
C329 C328 1.170 . S
C330 C328 1.380 . S
C330 C331 1.170 . S
C331 C330 1.170 . S
C332 C333 1.170 . S
C332 C334 1.380 . S
C333 C332 1.170 . S
C334 C332 1.380 . S
C334 C335 1.170 . S
C335 C334 1.170 . S
C336 C337 1.170 . S
C336 C338 1.380 1_565 S
C337 C336 1.170 . S
C338 C336 1.380 1_545 S
C338 C339 1.170 . S
C339 C338 1.170 . S
C340 C341 1.170 . S
C340 C342 1.380 . S
C341 C340 1.170 . S
C342 C340 1.380 . S
C342 C343 1.170 . S
C343 C342 1.170 . S
C344 C345 1.170 . S
C344 C346 1.380 1_545 S
C345 C344 1.170 . S
C346 C344 1.380 1_565 S
C346 C347 1.170 . S
C347 C346 1.170 . S
C348 C349 1.170 . S
C348 C350 1.380 . S
C349 C348 1.170 . S
C350 C348 1.380 . S
C350 C351 1.170 . S
C351 C350 1.170 . S
C352 C353 1.170 . S
C352 C354 1.380 1_666 S
C353 C352 1.170 . S
C354 C352 1.380 1_444 S
C354 C355 1.170 . S
C355 C354 1.170 . S
C356 C357 1.170 . S
C356 C358 1.380 1_564 S
C357 C356 1.170 . S
C358 C356 1.380 1_546 S
C358 C359 1.170 . S
C359 C358 1.170 . S
C360 C361 1.170 . S
C360 C362 1.380 1_655 S
C361 C360 1.170 . S
C362 C360 1.380 1_455 S
C362 C363 1.170 . S
C363 C362 1.170 . S
C364 C365 1.170 . S
C364 C366 1.380 . S
C365 C364 1.170 . S
C366 C364 1.380 . S
C366 C367 1.170 . S
C367 C366 1.170 . S
C321 C15 1.497 . S
C323 C95 1.501 . S
C325 C55 1.501 . S
C327 C135 1.498 . S
C329 C175 1.500 . S
C331 C255 1.499 . S
C333 C295 1.499 . S
C335 C215 1.500 . S
C337 C61 1.496 . S
C339 C21 1.494 . S
C341 C141 1.477 . S
C343 C101 1.479 . S
C345 C221 1.486 . S
C347 C181 1.496 . S
C349 C301 1.481 . S
C351 C261 1.481 . S
C353 C162 1.497 . S
C355 C2 1.478 . S
C357 C42 1.493 . S
C359 C202 1.492 . S
C361 C242 1.481 . S
C363 C82 1.481 . S
C365 C122 1.493 . S
C367 C282 1.493 . S
