# Generated by pormake.
# Topology snz, (6)-cn, num edge types: 1
# Building blocks:
#     Node 0, Type 0, BuildingBlock: NUHQIS_clean_sbu_0, # of connection points: 6
#     Node 1, Type 0, BuildingBlock: NUHQIS_clean_sbu_0, # of connection points: 6
#     Node 2, Type 0, BuildingBlock: NUHQIS_clean_sbu_0, # of connection points: 6
#     Node 3, Type 0, BuildingBlock: NUHQIS_clean_sbu_0, # of connection points: 6
#     Node 4, Type 0, BuildingBlock: NUHQIS_clean_sbu_0, # of connection points: 6
#     Node 5, Type 0, BuildingBlock: NUHQIS_clean_sbu_0, # of connection points: 6
#     Node 6, Type 0, BuildingBlock: NUHQIS_clean_sbu_0, # of connection points: 6
#     Node 7, Type 0, BuildingBlock: NUHQIS_clean_sbu_0, # of connection points: 6
#     Node 8, Type 0, BuildingBlock: NUHQIS_clean_sbu_0, # of connection points: 6
#     Edge 9, Type (0, 0), BuildingBlock: ZUJKAS_clean_linker_0, # of connection points: 2
#     Edge 10, Type (0, 0), BuildingBlock: ZUJKAS_clean_linker_0, # of connection points: 2
#     Edge 11, Type (0, 0), BuildingBlock: ZUJKAS_clean_linker_0, # of connection points: 2
#     Edge 12, Type (0, 0), BuildingBlock: ZUJKAS_clean_linker_0, # of connection points: 2
#     Edge 13, Type (0, 0), BuildingBlock: ZUJKAS_clean_linker_0, # of connection points: 2
#     Edge 14, Type (0, 0), BuildingBlock: ZUJKAS_clean_linker_0, # of connection points: 2
#     Edge 15, Type (0, 0), BuildingBlock: ZUJKAS_clean_linker_0, # of connection points: 2
#     Edge 16, Type (0, 0), BuildingBlock: ZUJKAS_clean_linker_0, # of connection points: 2
#     Edge 17, Type (0, 0), BuildingBlock: ZUJKAS_clean_linker_0, # of connection points: 2
#     Edge 18, Type (0, 0), BuildingBlock: ZUJKAS_clean_linker_0, # of connection points: 2
#     Edge 19, Type (0, 0), BuildingBlock: ZUJKAS_clean_linker_0, # of connection points: 2
#     Edge 20, Type (0, 0), BuildingBlock: ZUJKAS_clean_linker_0, # of connection points: 2
#     Edge 21, Type (0, 0), BuildingBlock: ZUJKAS_clean_linker_0, # of connection points: 2
#     Edge 22, Type (0, 0), BuildingBlock: ZUJKAS_clean_linker_0, # of connection points: 2
#     Edge 23, Type (0, 0), BuildingBlock: ZUJKAS_clean_linker_0, # of connection points: 2
#     Edge 24, Type (0, 0), BuildingBlock: ZUJKAS_clean_linker_0, # of connection points: 2
#     Edge 25, Type (0, 0), BuildingBlock: ZUJKAS_clean_linker_0, # of connection points: 2
#     Edge 26, Type (0, 0), BuildingBlock: ZUJKAS_clean_linker_0, # of connection points: 2
#     Edge 27, Type (0, 0), BuildingBlock: ZUJKAS_clean_linker_0, # of connection points: 2
#     Edge 28, Type (0, 0), BuildingBlock: ZUJKAS_clean_linker_0, # of connection points: 2
#     Edge 29, Type (0, 0), BuildingBlock: ZUJKAS_clean_linker_0, # of connection points: 2
#     Edge 30, Type (0, 0), BuildingBlock: ZUJKAS_clean_linker_0, # of connection points: 2
#     Edge 31, Type (0, 0), BuildingBlock: ZUJKAS_clean_linker_0, # of connection points: 2
#     Edge 32, Type (0, 0), BuildingBlock: ZUJKAS_clean_linker_0, # of connection points: 2
#     Edge 33, Type (0, 0), BuildingBlock: ZUJKAS_clean_linker_0, # of connection points: 2
#     Edge 34, Type (0, 0), BuildingBlock: ZUJKAS_clean_linker_0, # of connection points: 2
#     Edge 35, Type (0, 0), BuildingBlock: ZUJKAS_clean_linker_0, # of connection points: 2
# Relax obj value: 0.290
# Max RMSD: 0.218
# Mean RMSD: 0.142
data_MOF--net-snz--node1-NUHQIS_clean_sbu_0--edge1-ZUJKAS_clean_linker_0
_symmetry_space_group_name_H-M    P1
_symmetry_Int_Tables_number       1
_symmetry_cell_setting            triclinic
loop_
_symmetry_equiv_pos_as_xyz
'x, y, z'
_cell_length_a     84.006808
_cell_length_b     69.655004
_cell_length_c     20.697177
_cell_angle_alpha  95.648944
_cell_angle_beta   96.283562
_cell_angle_gamma 120.67898
loop_
_atom_site_label
_atom_site_type_symbol
_atom_site_fract_x
_atom_site_fract_y
_atom_site_fract_z
_atom_type_partial_charge
Tb0 Tb 0.10246 0.49964 0.19969 0.0
Eu1 Eu 0.06545 0.50585 0.18372 0.0
C2 C 0.08603 0.50528 0.0555 0.0
C3 C 0.10803 0.54974 0.21287 0.0
C4 C 0.13637 0.48027 0.2462 0.0
C5 C 0.16154 0.47401 0.2849 0.0
C6 C 0.15543 0.48706 0.25599 0.0
C7 C 0.12344 0.46013 0.26612 0.0
C8 C 0.12955 0.44698 0.29505 0.0
C9 C 0.14872 0.45374 0.30493 0.0
C10 C 0.13046 0.49441 0.21456 0.0
O11 O 0.09403 0.49477 0.29798 0.0
O12 O 0.07209 0.50526 0.29435 0.0
O13 O 0.05236 0.46796 0.16691 0.0
O14 O 0.07834 0.46457 0.16936 0.0
C15 C 0.08309 0.49978 0.32786 0.0
O16 O 0.05106 0.52172 0.2243 0.0
O17 O 0.03786 0.49739 0.13281 0.0
O18 O 0.07191 0.50515 0.07887 0.0
O19 O 0.09953 0.50507 0.09511 0.0
O20 O 0.11496 0.53678 0.2238 0.0
O21 O 0.09012 0.54109 0.18936 0.0
C22 C 0.05994 0.45561 0.15893 0.0
O23 O 0.1166 0.48423 0.16418 0.0
O24 O 0.12892 0.50894 0.25364 0.0
C25 C 0.02984 0.52561 0.14915 0.0
C26 C 1.01429 0.55029 0.10023 0.0
C27 C 1.01207 0.544 0.16273 0.0
C28 C 0.01973 0.53179 0.18674 0.0
C29 C 0.0325 0.53221 0.08728 0.0
C30 C 0.02479 0.54444 0.06307 0.0
C31 C 0.03682 0.51169 0.17511 0.0
H32 H 0.17633 0.47966 0.29049 0.0
H33 H 0.16565 0.50248 0.2408 0.0
H34 H 0.10865 0.45456 0.25924 0.0
H35 H 0.11926 0.43165 0.31037 0.0
H36 H 1.0044 0.54853 0.19333 0.0
H37 H 0.01757 0.52695 0.2347 0.0
H38 H 0.04029 0.52768 0.05734 0.0
H39 H 0.02667 0.54882 1.01454 0.0
Tb40 Tb 0.60879 0.51636 1.03524 0.0
Eu41 Eu 0.5688 0.51483 1.02206 0.0
C42 C 0.58983 0.51453 0.16613 0.0
C43 C 0.56925 0.46902 1.01031 0.0
C44 C 0.65841 0.53102 1.02164 0.0
C45 C 0.69231 0.54672 1.04298 0.0
C46 C 0.67482 0.53568 0.06302 0.0
C47 C 0.65989 0.53798 0.95989 0.0
C48 C 0.67743 0.54903 0.93968 0.0
C49 C 0.69391 0.55338 0.98071 0.0
C50 C 0.64 0.51812 1.04318 0.0
O51 O 0.60522 0.52349 0.93393 0.0
O52 O 0.5739 0.51204 0.91473 0.0
O53 O 0.59032 0.55196 1.0273 0.0
O54 O 0.61751 0.55225 0.06069 0.0
C55 C 0.5897 0.51787 0.89241 0.0
O56 O 0.53883 0.49693 0.97789 0.0
O57 O 0.55128 0.5279 1.04956 0.0
O58 O 0.57825 0.51931 0.13346 0.0
O59 O 0.60078 0.50985 0.13453 0.0
O60 O 0.58651 0.48031 0.99813 0.0
O61 O 0.56184 0.4799 1.03566 0.0
C62 C 0.60854 0.56299 1.05039 0.0
O63 O 0.63628 0.52905 0.0876 0.0
O64 O 0.62521 0.50465 0.99764 0.0
C65 C 0.51998 0.49902 1.05182 0.0
C66 C 0.48967 0.47727 0.11987 0.0
C67 C 0.4865 0.48056 0.05476 0.0
C68 C 0.50151 0.49137 1.0212 0.0
C69 C 0.5232 0.49555 0.11649 0.0
C70 C 0.50823 0.48489 0.15027 0.0
C71 C 0.53568 0.51027 1.01575 0.0
H72 H 0.70463 0.55011 0.07664 0.0
H73 H 0.67408 0.53056 0.11091 0.0
H74 H 0.64747 0.53462 0.92688 0.0
H75 H 0.67798 0.55368 0.89122 0.0
H76 H 0.47244 0.47511 1.03005 0.0
H77 H 0.4987 0.4938 0.97127 0.0
H78 H 0.53731 0.50106 0.1409 0.0
H79 H 0.51116 0.48237 0.19994 0.0
Tb80 Tb 0.56137 0.04475 0.89608 0.0
Eu81 Eu 0.60548 0.0893 0.92319 0.0
C82 C 0.58263 0.06408 0.77043 0.0
C83 C 0.59616 0.03836 0.92265 0.0
C84 C 0.51289 1.00087 0.9153 0.0
C85 C 0.48195 0.97022 0.92603 0.0
C86 C 0.49644 0.97979 0.88969 0.0
C87 C 0.51478 0.01219 0.97832 0.0
C88 C 0.50029 1.00264 1.01479 0.0
C89 C 0.48359 0.98158 0.98893 0.0
C90 C 0.52767 1.01109 0.87508 0.0
O91 O 0.56714 0.05341 1.00529 0.0
O92 O 0.59776 0.0842 1.02731 0.0
O93 O 0.58682 0.10465 0.91205 0.0
O94 O 0.55811 0.07353 0.91879 0.0
C95 C 0.58245 0.0691 1.04802 0.0
O96 O 0.63377 0.10602 0.98328 0.0
O97 O 0.62943 0.11985 0.89931 0.0
O98 O 0.59802 0.08042 0.81082 0.0
O99 O 0.568 0.04883 0.79397 0.0
O100 O 0.57897 0.03188 0.93058 0.0
O101 O 0.60685 0.05769 0.90371 0.0
C102 C 0.56864 0.09504 0.91453 0.0
O103 O 0.53244 0.03126 0.86442 0.0
O104 O 0.54243 1.00965 0.8901 0.0
C105 C 0.65956 0.12334 0.9259 0.0
C106 C 0.69452 0.12989 0.89735 0.0
C107 C 0.69156 0.14813 0.90627 0.0
C108 C 0.6744 0.14489 0.92034 0.0
C109 C 0.6623 0.105 0.91634 0.0
C110 C 0.67949 0.10822 0.90236 0.0
C111 C 0.64185 0.12059 0.94486 0.0
H112 H 0.46949 0.95384 0.9049 0.0
H113 H 0.49473 0.97075 0.84125 0.0
H114 H 0.52735 0.02855 0.99894 0.0
H115 H 0.50202 0.01201 0.06264 0.0
H116 H 0.70268 0.16514 0.90392 0.0
H117 H 0.67283 0.15941 0.9279 0.0
H118 H 0.65119 0.08815 0.92017 0.0
H119 H 0.6809 0.0936 0.895 0.0
Tb120 Tb 0.75413 0.85324 0.295 0.0
Eu121 Eu 0.71727 0.85938 0.27829 0.0
C122 C 0.73787 0.85943 0.15152 0.0
C123 C 0.76055 0.90309 0.32145 0.0
C124 C 0.78888 0.83463 0.33518 0.0
C125 C 0.81056 0.82125 0.33965 0.0
C126 C 0.80348 0.83351 0.31193 0.0
C127 C 0.78133 0.82319 0.38668 0.0
C128 C 0.78847 0.8109 0.4147 0.0
C129 C 0.80319 0.80976 0.39142 0.0
C130 C 0.78203 0.848 0.30484 0.0
O131 O 0.74841 0.8542 0.39764 0.0
O132 O 0.7202 0.85292 0.38509 0.0
O133 O 0.70524 0.82139 0.24977 0.0
O134 O 0.73051 0.81885 0.29122 0.0
C135 C 0.73422 0.85329 0.42297 0.0
O136 O 0.70198 0.87491 0.3125 0.0
O137 O 0.69003 0.85052 0.22159 0.0
O138 O 0.7275 0.86574 0.17981 0.0
O139 O 0.74772 0.85268 0.18663 0.0
O140 O 0.76724 0.8901 0.30626 0.0
O141 O 0.74239 0.89483 0.31673 0.0
C142 C 0.71271 0.80924 0.26341 0.0
O143 O 0.76735 0.83693 0.25749 0.0
O144 O 0.7811 0.86297 0.34443 0.0
C145 C 0.68267 0.87941 0.22914 0.0
C146 C 0.66994 0.90603 0.17291 0.0
C147 C 0.65771 0.88246 0.16831 0.0
C148 C 0.664 0.86938 0.19611 0.0
C149 C 0.69508 0.90286 0.23306 0.0
C150 C 0.68879 0.91601 0.2053 0.0
C151 C 0.68855 0.86515 0.2606 0.0
H152 H 0.82209 0.82112 0.32116 0.0
H153 H 0.80953 0.84228 0.27238 0.0
H154 H 0.76999 0.82378 0.40518 0.0
H155 H 0.78234 0.80211 0.45407 0.0
H156 H 0.64323 0.87399 0.14281 0.0
H157 H 0.65415 0.85134 0.19219 0.0
H158 H 0.70958 0.91109 0.25819 0.0
H159 H 0.69862 0.93409 0.21054 0.0
Tb160 Tb 0.25115 0.84461 0.44108 0.0
Eu161 Eu 0.21089 0.84264 0.42787 0.0
C162 C 0.23116 0.84109 0.57095 0.0
C163 C 0.21252 0.79635 0.41226 0.0
C164 C 0.29899 0.8602 0.41349 0.0
C165 C 0.33044 0.8703 0.39776 0.0
C166 C 0.31531 0.85962 0.43085 0.0
C167 C 0.29799 0.87169 0.36261 0.0
C168 C 0.3131 0.88236 0.32939 0.0
C169 C 0.32955 0.88179 0.34645 0.0
C170 C 0.28306 0.84861 0.44816 0.0
O171 O 0.24296 0.84119 0.33263 0.0
O172 O 0.21955 0.84929 0.32621 0.0
O173 O 0.23392 0.87974 0.46608 0.0
O174 O 0.2585 0.879 0.43102 0.0
C175 C 0.23128 0.84543 0.29755 0.0
O176 O 0.18232 0.82971 0.37412 0.0
O177 O 0.19288 0.85341 0.46612 0.0
O178 O 0.21532 0.83555 0.53204 0.0
O179 O 0.24663 0.84695 0.54586 0.0
O180 O 0.23074 0.80838 0.43646 0.0
O181 O 0.20279 0.80605 0.40089 0.0
C182 C 0.25135 0.8904 0.45565 0.0
O183 O 0.27973 0.86169 0.48628 0.0
O184 O 0.26754 0.83159 0.41226 0.0
C185 C 0.15966 0.82692 0.43882 0.0
C186 C 0.12366 0.80381 0.47578 0.0
C187 C 0.12577 0.81111 0.41445 0.0
C188 C 0.14351 0.82252 0.39635 0.0
C189 C 0.15767 0.81932 0.49961 0.0
C190 C 0.13989 0.8079 0.51786 0.0
C191 C 0.17833 0.84011 0.41936 0.0
H192 H 0.34272 0.86921 0.4117 0.0
H193 H 0.31633 0.85077 0.46982 0.0
H194 H 0.2855 0.87238 0.34857 0.0
H195 H 0.31196 0.89126 0.29079 0.0
H196 H 0.11366 0.80796 0.38007 0.0
H197 H 0.14464 0.82812 0.34913 0.0
H198 H 0.16989 0.82246 0.53339 0.0
H199 H 0.13895 0.80276 0.56569 0.0
Tb200 Tb 0.21243 0.2672 0.5385 0.0
Eu201 Eu 0.25505 0.31307 0.56693 0.0
C202 C 0.2325 0.28675 0.41386 0.0
C203 C 0.2493 0.26356 0.54638 0.0
C204 C 0.16004 0.23241 0.53764 0.0
C205 C 0.12591 0.21505 0.50506 0.0
C206 C 0.14306 0.21786 0.49262 0.0
C207 C 0.15939 0.24422 0.59562 0.0
C208 C 0.14219 0.24136 0.60826 0.0
C209 C 0.12509 0.2267 0.56319 0.0
C210 C 0.17804 0.23485 0.52303 0.0
O211 O 0.21763 0.28092 0.64583 0.0
O212 O 0.24984 0.30379 0.66993 0.0
O213 O 0.23599 0.32649 0.57959 0.0
O214 O 0.20857 0.29521 0.52201 0.0
C215 C 0.23356 0.29219 0.68996 0.0
O216 O 0.28529 0.3299 0.60618 0.0
O217 O 0.27441 0.34826 0.55877 0.0
O218 O 0.24525 0.30582 0.45456 0.0
O219 O 0.22043 0.26876 0.43793 0.0
O220 O 0.23185 0.25452 0.55772 0.0
O221 O 0.25823 0.2839 0.53156 0.0
C222 C 0.21867 0.31698 0.54726 0.0
O223 O 0.19109 0.23941 0.57275 0.0
O224 O 0.18541 0.24664 0.47792 0.0
C225 C 0.30494 0.35696 0.54487 0.0
C226 C 0.33511 0.37501 0.47427 0.0
C227 C 0.33857 0.37688 0.54348 0.0
C228 C 0.32367 0.368 0.57828 0.0
C229 C 0.30135 0.35463 0.47572 0.0
C230 C 0.31625 0.36361 0.44087 0.0
C231 C 0.28944 0.34831 0.58288 0.0
H232 H 0.11319 0.20337 0.46933 0.0
H233 H 0.14303 0.20848 0.44758 0.0
H234 H 0.17219 0.25571 0.63127 0.0
H235 H 0.14238 0.25093 0.65315 0.0
H236 H 0.35282 0.3851 0.57096 0.0
H237 H 0.32678 0.36986 0.63153 0.0
H238 H 0.28702 0.3461 0.44861 0.0
H239 H 0.31295 0.36201 0.38783 0.0
Tb240 Tb 0.41453 0.18181 0.66781 0.0
Eu241 Eu 0.40323 0.17665 0.80933 0.0
C242 C 0.43605 0.22567 0.78209 0.0
C243 C 0.43638 0.16981 0.77275 0.0
C244 C 0.40633 0.15772 0.50061 0.0
C245 C 0.39968 0.12098 0.44727 0.0
C246 C 0.41257 0.14325 0.47992 0.0
C247 C 0.38701 0.14977 0.4849 0.0
C248 C 0.37417 0.1276 0.45192 0.0
C249 C 0.38027 0.11275 0.43407 0.0
C250 C 0.41901 0.17842 0.55074 0.0
O251 O 0.39745 0.14499 0.66359 0.0
O252 O 0.38021 0.14409 0.74154 0.0
O253 O 0.3916 0.19658 0.76614 0.0
O254 O 0.38767 0.18103 0.65974 0.0
C255 C 0.38259 0.13378 0.69045 0.0
O256 O 0.3825 0.17152 0.87118 0.0
O257 O 0.40826 0.17357 0.91253 0.0
O258 O 0.42893 0.21254 0.82606 0.0
O259 O 0.4307 0.21747 0.71793 0.0
O260 O 0.43824 0.18339 0.73037 0.0
O261 O 0.42128 0.1611 0.79993 0.0
C262 C 0.38337 0.1917 0.70419 0.0
O263 O 0.41186 0.18994 0.57338 0.0
O264 O 0.42855 0.17552 0.59852 0.0
C265 C 0.37961 0.14571 0.93991 0.0
C266 C 0.35541 0.10254 0.96917 0.0
C267 C 0.3516 0.11989 0.98067 0.0
C268 C 0.36365 0.14132 0.96634 0.0
C269 C 0.3832 0.12821 0.92694 0.0
C270 C 0.37129 0.10687 0.94204 0.0
C271 C 0.39117 0.1677 0.91955 0.0
H272 H 0.40488 0.11002 0.43417 0.0
H273 H 0.42732 0.14878 0.49231 0.0
H274 H 0.38162 0.1603 0.50057 0.0
H275 H 0.3594 0.12208 0.44071 0.0
H276 H 0.33963 0.11708 1.00263 0.0
H277 H 0.36045 0.15446 0.97556 0.0
H278 H 0.39514 0.13095 0.9049 0.0
H279 H 0.37452 0.09376 0.93287 0.0
Tb280 Tb 0.91385 0.17022 0.79345 0.0
Eu281 Eu 0.90734 0.19165 0.66918 0.0
C282 C 0.88744 0.13733 0.6585 0.0
C283 C 0.94406 0.18795 0.69854 0.0
C284 C 0.93963 0.17127 0.94582 0.0
C285 C 0.97269 0.20151 0.97613 0.0
C286 C 0.95747 0.18435 0.92899 0.0
C287 C 0.93761 0.17459 1.01147 0.0
C288 C 0.95275 0.19183 0.05844 0.0
C289 C 0.97033 0.20604 1.04087 0.0
C290 C 0.92261 0.15774 0.89401 0.0
O291 O 0.92485 0.20593 0.83453 0.0
O292 O 0.93198 0.22102 0.74141 0.0
O293 O 0.88546 0.188 0.73046 0.0
O294 O 0.8843 0.16078 0.78673 0.0
C295 C 0.93411 0.22355 0.80598 0.0
O296 O 0.90229 0.21705 0.63544 0.0
O297 O 0.90438 0.19376 0.56452 0.0
O298 O 0.88602 0.1539 0.63891 0.0
O299 O 0.89973 0.1412 0.71122 0.0
O300 O 0.94095 0.18635 0.75934 0.0
O301 O 0.93131 0.18651 0.65197 0.0
C302 C 0.87688 0.17236 0.76624 0.0
O303 O 0.91122 0.16527 0.89106 0.0
O304 O 0.92512 0.1524 0.8354 0.0
C305 C 0.91764 0.23142 0.54841 0.0
C306 C 0.94439 0.26609 0.491 0.0
C307 C 0.92499 0.25697 0.46981 0.0
C308 C 0.91171 0.2397 0.49828 0.0
C309 C 0.93695 0.24135 0.57245 0.0
C310 C 0.95024 0.25857 0.54398 0.0
C311 C 0.9038 0.21217 0.57487 0.0
H312 H 0.98607 0.21182 0.96107 0.0
H313 H 0.95945 0.18223 0.87859 0.0
H314 H 0.92395 0.16493 1.0254 0.0
H315 H 0.95019 0.19495 0.10739 0.0
H316 H 0.92009 0.26257 0.42943 0.0
H317 H 0.89683 0.23238 0.47987 0.0
H318 H 0.94173 0.23521 0.61167 0.0
H319 H 0.96504 0.265 0.56082 0.0
Tb320 Tb 0.90173 0.66106 0.6772 0.0
Eu321 Eu 0.92016 0.70182 0.80531 0.0
C322 C 0.92512 0.65959 0.80431 0.0
C323 C 0.87681 0.66094 0.78252 0.0
C324 C 0.90176 0.62454 0.53969 0.0
C325 C 0.90442 0.60677 0.43807 0.0
C326 C 0.89327 0.60922 0.47969 0.0
C327 C 0.92141 0.63644 0.55946 0.0
C328 C 0.93255 0.63412 0.51788 0.0
C329 C 0.92423 0.61981 0.45569 0.0
C330 C 0.89058 0.63008 0.5786 0.0
O331 O 0.88765 0.67971 0.66027 0.0
O332 O 0.90996 0.71428 0.72371 0.0
O333 O 0.94423 0.70455 0.75926 0.0
O334 O 0.92779 0.68833 0.65405 0.0
C335 C 0.89494 0.7017 0.67718 0.0
O336 O 0.92221 0.71451 0.90831 0.0
O337 O 0.94108 0.7371 0.85001 0.0
O338 O 0.92123 0.67278 0.83969 0.0
O339 O 0.92213 0.65694 0.73955 0.0
O340 O 0.88085 0.64885 0.74198 0.0
O341 O 0.88886 0.68274 0.80452 0.0
C342 C 0.9439 0.70098 0.69561 0.0
O343 O 0.89148 0.62685 0.63954 0.0
O344 O 0.89272 0.6498 0.57475 0.0
C345 C 0.9539 0.73808 0.95909 0.0
C346 C 0.97906 0.73324 1.04803 0.0
C347 C 0.98236 0.73689 0.9839 0.0
C348 C 0.96981 0.7391 0.93966 0.0
C349 C 0.95167 0.7368 1.02488 0.0
C350 C 0.96402 0.73426 0.06879 0.0
C351 C 0.93787 0.73362 0.90939 0.0
H352 H 0.89757 0.59543 0.3908 0.0
H353 H 0.87811 0.59989 0.46379 0.0
H354 H 0.92822 0.64844 0.60563 0.0
H355 H 0.94772 0.64469 0.53273 0.0
H356 H 0.994 0.73674 0.96657 0.0
H357 H 0.97195 0.74008 0.88912 0.0
H358 H 0.93946 0.73584 1.04087 0.0
H359 H 0.96075 0.73124 0.11731 0.0
H360 H 0.11072 0.50217 0.98005 0.0
H361 H 0.11051 0.5014 0.86079 0.0
H362 H 0.06161 0.50705 0.83982 0.0
H363 H 0.06188 0.50805 0.95848 0.0
H364 H 0.08653 0.47333 0.7488 0.0
H365 H 0.09187 0.55529 0.73932 0.0
H366 H 0.0954 0.54678 0.81648 0.0
H367 H 0.07194 0.53623 0.7728 0.0
C368 C 0.09997 0.50346 0.95049 0.0
C369 C 0.08643 0.50541 0.98108 0.0
C370 C 0.09981 0.50293 0.88128 0.0
C371 C 0.08626 0.5046 0.83902 0.0
C372 C 0.07266 0.50635 0.86958 0.0
H373 H 0.06102 0.50635 0.40835 0.0
H374 H 0.06185 0.50686 0.52739 0.0
C375 C 0.07276 0.50677 0.93854 0.0
C376 C 0.08608 0.504 0.76383 0.0
H377 H 0.08458 0.53179 0.63591 0.0
C378 C 0.08623 0.48629 0.72465 0.0
C379 C 0.08558 0.5206 0.72976 0.0
C380 C 0.08637 0.54092 0.76673 0.0
C381 C 0.0854 0.48438 0.65465 0.0
C382 C 0.08495 0.50103 0.62052 0.0
C383 C 0.08487 0.51879 0.65988 0.0
C384 C 0.08439 0.50033 0.54501 0.0
C385 C 0.08424 0.4638 0.61782 0.0
C386 C 0.09681 0.49675 0.51178 0.0
C387 C 0.09622 0.49623 0.44248 0.0
C388 C 0.08335 0.49959 0.40253 0.0
C389 C 0.07113 0.50351 0.43586 0.0
C390 C 0.07165 0.50389 0.50507 0.0
H391 H 0.07841 0.44943 0.64519 0.0
H392 H 0.0753 0.45808 0.56796 0.0
H393 H 0.09861 0.46805 0.61227 0.0
H394 H 0.10736 0.49471 0.53958 0.0
H395 H 0.10614 0.49347 0.42032 0.0
H396 H 0.56239 0.51272 0.78956 0.0
H397 H 0.56314 0.51258 0.67122 0.0
H398 H 0.61817 0.52146 0.70453 0.0
H399 H 0.61777 0.52258 0.82282 0.0
H400 H 0.56297 0.48815 0.57153 0.0
H401 H 0.6317 0.56721 0.59312 0.0
H402 H 0.63417 0.54733 0.63506 0.0
H403 H 0.62074 0.55891 0.66382 0.0
C404 C 0.57482 0.51493 0.77219 0.0
C405 C 0.59011 0.51797 0.81794 0.0
C406 C 0.57523 0.51476 0.70337 0.0
C407 C 0.59093 0.51759 0.67624 0.0
C408 C 0.60604 0.52014 0.72197 0.0
H409 H 0.61479 0.51187 0.26218 0.0
H410 H 0.61502 0.51232 0.3816 0.0
C411 C 0.60573 0.52056 0.7908 0.0
C412 C 0.59119 0.5172 0.60104 0.0
H413 H 0.61852 0.54371 0.48669 0.0
C414 C 0.57518 0.50054 0.55377 0.0
C415 C 0.6069 0.53309 0.57468 0.0
C416 C 0.62425 0.55277 0.61926 0.0
C417 C 0.57456 0.49906 0.48393 0.0
C418 C 0.59032 0.51478 0.45781 0.0
C419 C 0.60634 0.53138 0.50481 0.0
C420 C 0.59026 0.51451 0.38277 0.0
C421 C 0.55697 0.48009 0.43851 0.0
C422 C 0.57653 0.51589 0.34084 0.0
C423 C 0.57648 0.51582 0.27203 0.0
C424 C 0.5901 0.51427 0.24085 0.0
C425 C 0.6039 0.51295 0.28276 0.0
C426 C 0.60407 0.51328 0.35201 0.0
H427 H 0.54859 0.46588 0.46428 0.0
H428 H 0.54802 0.48663 0.42078 0.0
H429 H 0.56043 0.47336 0.39486 0.0
H430 H 0.56583 0.51737 0.36151 0.0
H431 H 0.56558 0.51702 0.24307 0.0
H432 H 0.61036 0.0924 0.70432 0.0
H433 H 0.60961 0.0927 0.58598 0.0
H434 H 0.55304 0.03448 0.54403 0.0
H435 H 0.5536 0.03439 0.66303 0.0
H436 H 0.60735 0.06627 0.48192 0.0
H437 H 0.54365 0.07085 0.42743 0.0
H438 H 0.55474 0.07422 0.51086 0.0
H439 H 0.5392 0.04631 0.46179 0.0
C440 C 0.59762 0.07958 0.67039 0.0
C441 C 0.582 0.06341 0.69535 0.0
C442 C 0.59723 0.07977 0.60159 0.0
C443 C 0.58114 0.06394 0.55354 0.0
C444 C 0.56559 0.0475 0.57825 0.0
H445 H 0.55385 0.04033 0.11111 0.0
H446 H 0.55391 0.03923 0.22911 0.0
C447 C 0.56598 0.04728 0.64732 0.0
C448 C 0.58099 0.0646 0.47879 0.0
H449 H 0.55595 0.06483 0.33498 0.0
C450 C 0.59607 0.06606 0.45033 0.0
C451 C 0.56645 0.0643 0.43511 0.0
C452 C 0.55019 0.06406 0.4603 0.0
C453 C 0.59683 0.06674 0.38181 0.0
C454 C 0.58234 0.06657 0.33818 0.0
C455 C 0.56723 0.06502 0.36657 0.0
C456 C 0.58244 0.06767 0.26372 0.0
C457 C 0.61304 0.06682 0.35666 0.0
C458 C 0.59823 0.08425 0.24042 0.0
C459 C 0.59825 0.08491 0.17177 0.0
C460 C 0.58239 0.06916 0.1226 0.0
C461 C 0.56646 0.05288 0.14602 0.0
C462 C 0.56647 0.05223 0.21458 0.0
H463 H 0.61928 0.0596 0.38903 0.0
H464 H 0.60854 0.05695 0.30572 0.0
H465 H 0.62424 0.08457 0.3563 0.0
H466 H 0.61069 0.09702 0.27548 0.0
H467 H 0.61083 0.09787 0.15727 0.0
H468 H 0.7106 0.85734 0.5016 0.0
H469 H 0.71174 0.85869 0.62114 0.0
H470 H 0.75885 0.84948 0.63575 0.0
H471 H 0.75816 0.84897 0.51704 0.0
H472 H 0.70658 0.83266 0.70629 0.0
H473 H 0.78161 0.89944 0.7862 0.0
H474 H 0.76992 0.89213 0.70136 0.0
H475 H 0.77879 0.87553 0.73343 0.0
C476 C 0.72131 0.85568 0.52997 0.0
C477 C 0.73436 0.8532 0.49768 0.0
C478 C 0.72197 0.85645 0.59942 0.0
C479 C 0.73572 0.85483 0.64063 0.0
C480 C 0.74844 0.85173 0.60789 0.0
H481 H 0.75896 0.85018 0.07179 0.0
H482 H 0.75826 0.849 0.95225 0.0
C483 C 0.74789 0.85115 0.53862 0.0
C484 C 0.73643 0.85589 0.71636 0.0
H485 H 0.76617 0.8796 0.86907 0.0
C486 C 0.71971 0.84314 0.74135 0.0
C487 C 0.75334 0.8694 0.76482 0.0
C488 C 0.77189 0.88507 0.74524 0.0
C489 C 0.71943 0.84311 0.8104 0.0
C490 C 0.73634 0.85646 0.85864 0.0
C491 C 0.75307 0.86917 0.83383 0.0
C492 C 0.73694 0.85754 0.93414 0.0
C493 C 0.70086 0.82804 0.83076 0.0
C494 C 0.72558 0.86317 0.96723 0.0
C495 C 0.72607 0.86401 1.03653 0.0
C496 C 0.73796 0.85928 0.07683 0.0
C497 C 0.74952 0.85394 1.04391 0.0
C498 C 0.74913 0.85326 0.97457 0.0
H499 H 0.69061 0.81409 0.7896 0.0
H500 H 0.7027 0.82048 0.87361 0.0
H501 H 0.69472 0.83828 0.84512 0.0
H502 H 0.71631 0.86719 0.9395 0.0
H503 H 0.71691 0.8683 0.05851 0.0
H504 H 0.20343 0.83521 0.64368 0.0
H505 H 0.2039 0.83615 0.7627 0.0
H506 H 0.26014 0.8487 0.7908 0.0
H507 H 0.25975 0.84779 0.67154 0.0
H508 H 0.22513 0.86855 0.87334 0.0
H509 H 0.23691 0.79809 0.89497 0.0
H510 H 0.25449 0.82038 0.86024 0.0
H511 H 0.23055 0.80367 0.81596 0.0
C512 C 0.21596 0.83804 0.67467 0.0
C513 C 0.23151 0.84124 0.64583 0.0
C514 C 0.21622 0.83866 0.74381 0.0
C515 C 0.23192 0.84214 0.78807 0.0
C516 C 0.24752 0.84543 0.75941 0.0
H517 H 0.25698 0.84512 0.2232 0.0
H518 H 0.25714 0.84504 0.10477 0.0
C519 C 0.24734 0.84504 0.69022 0.0
C520 C 0.232 0.84275 0.86323 0.0
H521 H 0.23846 0.81905 0.99513 0.0
C522 C 0.22799 0.85758 0.89951 0.0
C523 C 0.2358 0.82876 0.89984 0.0
C524 C 0.23951 0.81166 0.86587 0.0
C525 C 0.22812 0.85919 0.96911 0.0
C526 C 0.23166 0.84496 1.00578 0.0
C527 C 0.23567 0.83012 0.96928 0.0
C528 C 0.2315 0.84529 0.08099 0.0
C529 C 0.22518 0.87705 1.00278 0.0
C530 C 0.21703 0.8452 0.1108 0.0
C531 C 0.21707 0.84559 0.17987 0.0
C532 C 0.23137 0.84557 0.22298 0.0
C533 C 0.24564 0.8452 0.1931 0.0
C534 C 0.24571 0.84508 0.1242 0.0
H535 H 0.22924 0.89122 0.97492 0.0
H536 H 0.21003 0.86937 1.0049 0.0
H537 H 0.2335 0.8842 0.05382 0.0
H538 H 0.20533 0.84446 0.08049 0.0
H539 H 0.2056 0.84553 0.19933 0.0
H540 H 0.26233 0.31776 0.80089 0.0
H541 H 0.26139 0.31644 0.91863 0.0
H542 H 0.20297 0.26281 0.86791 0.0
H543 H 0.20368 0.26489 0.75086 0.0
H544 H 0.25792 0.29044 0.9996 0.0
H545 H 0.19501 0.29578 1.00962 0.0
H546 H 0.18943 0.27154 0.9511 0.0
H547 H 0.20564 0.29973 0.93725 0.0
C548 C 0.24915 0.30582 0.81446 0.0
C549 C 0.23303 0.29168 0.76433 0.0
C550 C 0.24861 0.30498 0.88292 0.0
C551 C 0.23196 0.2899 0.90538 0.0
C552 C 0.21597 0.27542 0.85492 0.0
H553 H 0.20541 0.25455 0.30485 0.0
H554 H 0.20523 0.25499 0.18566 0.0
C555 C 0.21644 0.27646 0.7866 0.0
C556 C 0.23157 0.28894 0.9802 0.0
H557 H 0.20573 0.28525 0.10313 0.0
C558 C 0.24646 0.28948 1.02156 0.0
C559 C 0.21685 0.28767 1.01208 0.0
C560 C 0.20095 0.28889 0.97542 0.0
C561 C 0.24689 0.28841 0.09049 0.0
C562 C 0.23207 0.28686 0.12192 0.0
C563 C 0.21715 0.28623 0.0808 0.0
C564 C 0.23208 0.28644 0.19681 0.0
C565 C 0.26321 0.28843 0.12889 0.0
C566 C 0.24699 0.30395 0.24575 0.0
C567 C 0.24702 0.30381 0.31452 0.0
C568 C 0.23221 0.28608 0.33871 0.0
C569 C 0.21724 0.26851 0.2898 0.0
C570 C 0.2171 0.26881 0.2207 0.0
H571 H 0.27036 0.2831 0.09582 0.0
H572 H 0.2737 0.30587 0.15588 0.0
H573 H 0.25852 0.27697 0.16557 0.0
H574 H 0.25866 0.31815 0.23088 0.0
H575 H 0.25887 0.31786 0.34905 0.0
H576 H 0.34458 0.08312 0.45508 0.0
H577 H 0.31972 0.04904 0.37846 0.0
H578 H 0.36008 0.0555 0.2562 0.0
H579 H 0.38456 0.08922 0.33122 0.0
H580 H 0.31046 0.05625 0.26519 0.0
H581 H 0.32367 0.98904 0.2009 0.0
H582 H 0.33224 1.00596 0.28325 0.0
H583 H 0.34656 0.01434 0.22011 0.0
C584 C 0.3482 0.07685 0.41266 0.0
C585 C 0.36645 0.08926 0.39819 0.0
C586 C 0.33402 0.05713 0.36953 0.0
C587 C 0.3379 0.04951 0.31137 0.0
C588 C 0.35663 0.06049 0.30128 0.0
H589 H 0.36869 0.08303 1.04717 0.0
H590 H 0.3511 0.05381 0.10943 0.0
C591 C 0.37073 0.08013 0.34414 0.0
C592 C 0.3227 0.03578 0.25275 0.0
H593 H 0.32318 1.01052 0.10482 0.0
C594 C 0.31238 0.0453 0.23016 0.0
C595 C 0.32372 0.02012 0.20732 0.0
C596 C 0.33198 1.0066 0.22974 0.0
C597 C 0.30833 0.04514 0.16252 0.0
C598 C 0.31454 0.03477 0.11769 0.0
C599 C 0.31948 0.01966 0.13947 0.0
C600 C 0.32359 0.0466 0.06411 0.0
C601 C 0.30053 0.05935 0.14184 0.0
C602 C 0.31409 0.05157 1.0147 0.0
C603 C 0.32436 0.06904 0.98031 0.0
C604 C 0.34417 0.08104 0.99313 0.0
C605 C 0.35344 0.07407 1.03634 0.0
C606 C 0.34329 0.05715 0.07172 0.0
H607 H 0.29531 0.06486 0.18246 0.0
H608 H 0.31165 0.07479 0.12669 0.0
H609 H 0.28862 0.04949 0.09949 0.0
H610 H 0.2989 0.04316 1.00598 0.0
H611 H 0.31691 0.07388 0.94609 0.0
H612 H 0.94017 0.25944 0.35793 0.0
H613 H 0.96425 0.27652 0.29251 0.0
H614 H 1.00435 0.32228 0.46706 0.0
H615 H 0.97996 0.30426 0.53417 0.0
H616 H 0.98822 0.3169 0.2625 0.0
H617 H 0.03123 0.29197 0.4146 0.0
H618 H 1.0083 0.28369 0.43225 0.0
H619 H 0.02681 0.31318 0.44882 0.0
C620 C 0.95391 0.27358 0.38248 0.0
C621 C 0.95819 0.28033 0.45132 0.0
C622 C 0.9678 0.28344 0.34485 0.0
C623 C 0.98635 0.30051 0.37476 0.0
C624 C 0.99033 0.30876 0.44293 0.0
H625 H 0.99489 0.24841 1.01415 0.0
H626 H 1.01344 0.28386 0.09365 0.0
C627 C 0.97637 0.29854 0.48114 0.0
C628 C 1.00122 0.30639 0.33413 0.0
H629 H 0.02725 0.28328 0.29996 0.0
C630 C 0.99735 0.31027 0.27071 0.0
C631 C 1.01421 0.29935 0.346 0.0
C632 C 0.02055 0.29688 0.41406 0.0
C633 C 1.0012 0.30082 0.21604 0.0
C634 C 1.01048 0.28883 0.22685 0.0
C635 C 0.01917 0.29127 0.29168 0.0
C636 C 1.00538 0.26813 0.17936 0.0
C637 C 0.99257 0.30067 0.148 0.0
C638 C 0.99663 0.24716 0.20114 0.0
C639 C 0.98688 0.22682 0.15616 0.0
C640 C 0.98512 0.22687 0.08801 0.0
C641 C 0.99569 0.24766 0.06631 0.0
C642 C 1.00606 0.2681 0.11183 0.0
H643 H 0.98544 0.31039 0.14957 0.0
H644 H 1.00364 0.30836 0.11774 0.0
H645 H 0.98193 0.28299 0.12331 0.0
H646 H 0.99599 0.24639 0.25289 0.0
H647 H 0.9796 0.21112 0.17484 0.0
H648 H 0.91745 0.62155 0.32573 0.0
H649 H 0.93951 0.6329 0.25113 0.0
H650 H 0.98083 0.63406 0.39793 0.0
H651 H 0.95851 0.62279 0.47421 0.0
H652 H 0.99631 0.67189 0.36132 0.0
H653 H 0.96256 0.612 0.12979 0.0
H654 H 0.94459 0.61652 0.15175 0.0
H655 H 0.95397 0.60414 0.20521 0.0
C656 C 0.93089 0.6232 0.34149 0.0
C657 C 0.9362 0.62133 0.40616 0.0
C658 C 0.94358 0.62962 0.29828 0.0
C659 C 0.96186 0.63404 0.3181 0.0
C660 C 0.9668 0.63064 0.38118 0.0
H661 H 0.99175 0.70548 1.00677 0.0
H662 H 0.99974 0.68374 0.07333 0.0
C663 C 0.95406 0.6243 0.42483 0.0
C664 C 0.97634 0.64641 0.27778 0.0
H665 H 0.97616 0.65353 0.11797 0.0
C666 C 0.99235 0.66751 0.30789 0.0
C667 C 0.9723 0.6405 0.20809 0.0
C668 C 0.95753 0.61686 0.17227 0.0
C669 C 1.00204 0.68418 0.27029 0.0
C670 C 0.99486 0.67996 0.2019 0.0
C671 C 0.98126 0.65751 0.17086 0.0
C672 C 0.99744 0.69861 0.16602 0.0
C673 C 0.01908 0.70654 0.3051 0.0
C674 C 0.9951 0.71579 0.19624 0.0
C675 C 0.99137 0.72905 0.15858 0.0
C676 C 0.98906 0.72483 0.08938 0.0
C677 C 0.99335 0.70932 0.05989 0.0
C678 C 0.99774 0.69657 0.09801 0.0
H679 H 0.02863 0.70342 0.33768 0.0
H680 H 0.02705 0.71717 0.26995 0.0
H681 H 0.01466 0.71596 0.3374 0.0
H682 H 0.99438 0.7177 0.24816 0.0
H683 H 0.98876 0.74134 0.18335 0.0
H684 H 0.2359 0.36351 0.57893 0.0
H685 H 0.22359 0.38695 0.54526 0.0
H686 H 0.17151 0.32669 0.44592 0.0
H687 H 0.18349 0.30321 0.48026 0.0
H688 H 0.21291 0.39082 0.42053 0.0
H689 H 0.15175 0.35998 0.54691 0.0
H690 H 0.16999 0.35389 0.5666 0.0
H691 H 0.15149 0.33749 0.49555 0.0
C692 C 0.2217 0.35519 0.55093 0.0
C693 C 0.21071 0.33137 0.53278 0.0
C694 C 0.21469 0.36866 0.5314 0.0
C695 C 0.19647 0.35867 0.49366 0.0
C696 C 0.18541 0.3349 0.47626 0.0
H697 H 0.13121 0.40711 0.28688 0.0
H698 H 0.14288 0.38465 0.33373 0.0
C699 C 0.19237 0.32144 0.49577 0.0
C700 C 0.18943 0.37307 0.4693 0.0
H701 H 0.15288 0.38207 0.46441 0.0
C702 C 0.19987 0.38904 0.43072 0.0
C703 C 0.17234 0.37074 0.48203 0.0
C704 C 0.16083 0.35476 0.52556 0.0
C705 C 0.19354 0.40226 0.40343 0.0
C706 C 0.1764 0.39984 0.41581 0.0
C707 C 0.16598 0.38395 0.45462 0.0
C708 C 0.16906 0.41361 0.3889 0.0
C709 C 0.20504 0.41827 0.35989 0.0
C710 C 0.17963 0.43742 0.40523 0.0
C711 C 0.17295 0.45033 0.37873 0.0
C712 C 0.15544 0.4398 0.33535 0.0
C713 C 0.14466 0.41589 0.3204 0.0
C714 C 0.15137 0.40298 0.34696 0.0
H715 H 0.21482 0.41378 0.341 0.0
H716 H 0.1958 0.41824 0.31712 0.0
H717 H 0.21361 0.43576 0.389 0.0
H718 H 0.19307 0.44608 0.43878 0.0
H719 H 0.1815 0.46863 0.39275 0.0
H720 H 0.59532 0.59179 1.03879 0.0
H721 H 0.6125 0.63309 0.07291 0.0
H722 H 0.66313 0.6336 0.14009 0.0
H723 H 0.64617 0.59241 0.10505 0.0
H724 H 0.63005 0.65991 0.19282 0.0
H725 H 0.68315 0.68297 1.0316 0.0
H726 H 0.66266 0.65474 1.02074 0.0
H727 H 0.68299 0.66361 0.08296 0.0
C728 C 0.61017 0.60064 0.06013 0.0
C729 C 0.61928 0.5885 0.06843 0.0
C730 C 0.62001 0.62439 0.07996 0.0
C731 C 0.63931 0.63683 0.10838 0.0
C732 C 0.64842 0.62473 0.1169 0.0
H733 H 0.72382 0.77872 0.27811 0.0
H734 H 0.70562 0.73757 0.24186 0.0
C735 C 0.63861 0.60099 0.09702 0.0
C736 C 0.64969 0.66223 0.13076 0.0
H737 H 0.68857 0.7125 0.11621 0.0
C738 C 0.64277 0.67137 0.17558 0.0
C739 C 0.66636 0.67748 0.10868 0.0
C740 C 0.67415 0.66926 0.05786 0.0
C741 C 0.65218 0.69496 0.1999 0.0
C742 C 0.66894 0.71016 0.17831 0.0
C743 C 0.6758 0.70104 0.13323 0.0
C744 C 0.67975 0.73548 0.20243 0.0
C745 C 0.64435 0.70333 0.25014 0.0
C746 C 0.67146 0.74844 0.19265 0.0
C747 C 0.68192 0.7722 0.21351 0.0
C748 C 0.701 0.78374 0.24471 0.0
C749 C 0.70919 0.77065 0.25474 0.0
C750 C 0.69876 0.74697 0.2337 0.0
H751 H 0.63453 0.68947 0.27429 0.0
H752 H 0.65584 0.71715 0.28892 0.0
H753 H 0.63643 0.71013 0.22503 0.0
H754 H 0.65697 0.74025 0.16759 0.0
H755 H 0.67508 0.78155 0.20422 0.0
H756 H 0.48585 0.98159 0.1227 0.0
H757 H 0.45993 0.96502 0.18384 0.0
H758 H 0.4198 0.9425 1.00259 0.0
H759 H 0.44555 0.95914 0.94121 0.0
H760 H 0.43135 0.97404 0.19502 0.0
H761 H 0.401 0.88432 0.07896 0.0
H762 H 0.42421 0.90673 0.072 0.0
H763 H 0.40367 0.90279 1.02081 0.0
C764 C 0.47152 0.97323 0.09579 0.0
C765 C 0.46786 0.97159 1.02676 0.0
C766 C 0.4567 0.96367 0.13085 0.0
C767 C 0.43788 0.95215 0.09774 0.0
C768 C 0.43417 0.95079 1.02909 0.0
H769 H 0.32813 0.8827 0.21355 0.0
H770 H 0.35448 0.90062 0.15504 0.0
C771 C 0.44896 0.96033 0.994 0.0
C772 C 0.42213 0.94188 0.135 0.0
H773 H 0.38291 0.89172 0.14623 0.0
C774 C 0.42082 0.95602 0.18463 0.0
C775 C 0.40835 0.91836 0.12141 0.0
C776 C 0.40941 0.9021 0.07084 0.0
C777 C 0.40591 0.94739 0.21995 0.0
C778 C 0.39209 0.92388 0.20616 0.0
C779 C 0.39345 0.90974 0.1567 0.0
C780 C 0.37612 0.91357 0.24248 0.0
C781 C 0.40484 0.96363 0.27054 0.0
C782 C 0.37946 0.9147 0.31115 0.0
C783 C 0.3644 0.90458 0.34486 0.0
C784 C 0.34562 0.89294 0.31065 0.0
C785 C 0.34235 0.89178 0.24176 0.0
C786 C 0.35742 0.9019 0.20809 0.0
H787 H 0.41334 0.98143 0.26274 0.0
H788 H 0.39005 0.95907 0.26906 0.0
H789 H 0.41045 0.96281 0.3206 0.0
H790 H 0.39373 0.92323 0.3387 0.0
H791 H 0.3675 0.906 0.3979 0.0
H792 H 0.57667 0.13236 0.85427 0.0
H793 H 0.55659 0.14826 0.83334 0.0
H794 H 0.51687 0.10131 0.93957 0.0
H795 H 0.53667 0.08569 0.96079 0.0
H796 H 0.51921 0.12611 0.76432 0.0
H797 H 0.52183 0.15983 1.02096 0.0
H798 H 0.53836 0.15216 0.99951 0.0
H799 H 0.51524 0.13067 1.00958 0.0
C800 C 0.56391 0.12583 0.87461 0.0
C801 C 0.55854 0.10779 0.90989 0.0
C802 C 0.55228 0.1348 0.86204 0.0
C803 C 0.53512 0.12628 0.88535 0.0
C804 C 0.53007 0.10868 0.92189 0.0
H805 H 0.4369 0.14098 0.85475 0.0
H806 H 0.46092 0.13134 0.87977 0.0
C807 C 0.54151 0.09964 0.93387 0.0
C808 C 0.52192 0.13469 0.86923 0.0
H809 H 0.49712 0.15526 0.93952 0.0
C810 C 0.51459 0.13275 0.80275 0.0
C811 C 0.51555 0.14323 0.91883 0.0
C812 C 0.52327 0.14682 0.9912 0.0
C813 C 0.50082 0.13828 0.78478 0.0
C814 C 0.49429 0.14662 0.83445 0.0
C815 C 0.50185 0.14885 0.90093 0.0
C816 C 0.47952 0.15277 0.81879 0.0
C817 C 0.49283 0.13418 0.71241 0.0
C818 C 0.48173 0.1684 0.77679 0.0
C819 C 0.46787 0.1739 0.76212 0.0
C820 C 0.45135 0.16418 0.78945 0.0
C821 C 0.4493 0.14886 0.83242 0.0
C822 C 0.46315 0.14332 0.84692 0.0
H823 H 0.49488 0.1217 0.68272 0.0
H824 H 0.47754 0.12787 0.70435 0.0
H825 H 0.50018 0.15035 0.69362 0.0
H826 H 0.49431 0.17658 0.75556 0.0
H827 H 0.47018 0.18589 0.72926 0.0
H828 H 0.95248 0.26444 0.76391 0.0
H829 H 0.97409 0.30222 0.83011 0.0
H830 H 0.96788 0.27339 1.00737 0.0
H831 H 0.94592 0.23546 0.94147 0.0
H832 H 0.96651 0.31155 1.02562 0.0
H833 H 0.02855 0.33013 0.91382 0.0
H834 H 1.00846 0.32274 0.85302 0.0
H835 H 1.00774 0.30205 0.90039 0.0
C836 C 0.95571 0.26603 0.81699 0.0
C837 C 0.94735 0.24671 0.84704 0.0
C838 C 0.96825 0.28776 0.85494 0.0
C839 C 0.97304 0.29087 0.92408 0.0
C840 C 0.96459 0.27162 0.95431 0.0
H841 H 0.06843 0.42203 0.14963 0.0
H842 H 0.04757 0.38183 0.09925 0.0
C843 C 0.95196 0.24985 0.91638 0.0
C844 C 0.98644 0.3142 0.96454 0.0
H845 H 0.03026 0.36176 0.97831 0.0
C846 C 0.98049 0.32245 1.01542 0.0
C847 C 1.00493 0.32847 0.95284 0.0
C848 C 1.0129 0.32034 0.90254 0.0
C849 C 0.99215 0.34457 0.05311 0.0
C850 C 1.01024 0.35934 1.03877 0.0
C851 C 0.0164 0.35079 0.98929 0.0
C852 C 0.0228 0.38375 0.07322 0.0
C853 C 0.985 0.35167 0.10882 0.0
C854 C 0.0161 0.39861 0.07583 0.0
C855 C 0.02795 0.42155 0.10564 0.0
C856 C 0.04706 0.43061 0.13268 0.0
C857 C 0.05382 0.41578 0.12985 0.0
C858 C 0.04186 0.3927 0.10069 0.0
H859 H 0.97425 0.33675 0.12715 0.0
H860 H 0.99665 0.36316 0.15086 0.0
H861 H 0.97819 0.36069 0.09065 0.0
H862 H 1.00176 0.39264 0.05323 0.0
H863 H 0.02219 0.43237 0.10556 0.0
H864 H 0.84776 0.61625 0.74779 0.0
H865 H 0.81683 0.59832 0.78009 0.0
H866 H 0.83194 0.66225 0.89489 0.0
H867 H 0.86298 0.68026 0.86365 0.0
H868 H 0.81478 0.62727 0.96238 0.0
H869 H 0.77241 0.60389 0.71115 0.0
H870 H 0.78784 0.59319 0.71814 0.0
H871 H 0.79762 0.62331 0.72929 0.0
C872 C 0.84455 0.62656 0.77986 0.0
C873 C 0.85797 0.64979 0.80282 0.0
C874 C 0.82674 0.61628 0.79795 0.0
C875 C 0.82182 0.62896 0.83911 0.0
C876 C 0.83528 0.65207 0.86283 0.0
H877 H 0.70846 0.58795 0.90844 0.0
H878 H 0.73921 0.60625 0.8745 0.0
C879 C 0.85308 0.66237 0.8448 0.0
C880 C 0.80285 0.61813 0.85859 0.0
H881 H 0.75546 0.58875 0.79664 0.0
C882 C 0.80183 0.61889 0.92606 0.0
C883 C 0.78586 0.60744 0.81148 0.0
C884 C 0.78591 0.60705 0.73849 0.0
C885 C 0.78441 0.60897 0.94753 0.0
C886 C 0.7674 0.59761 0.90034 0.0
C887 C 0.76842 0.59722 0.83292 0.0
C888 C 0.74847 0.5861 0.92004 0.0
C889 C 0.7844 0.61112 1.02078 0.0
C890 C 0.74316 0.56832 0.95594 0.0
C891 C 0.72553 0.55773 0.97515 0.0
C892 C 0.71263 0.56452 0.95879 0.0
C893 C 0.71786 0.58207 0.92166 0.0
C894 C 0.73553 0.59266 0.9024 0.0
H895 H 0.79813 0.6253 1.04972 0.0
H896 H 0.77309 0.61391 1.03276 0.0
H897 H 0.78185 0.59519 1.03682 0.0
H898 H 0.75263 0.56249 0.96879 0.0
H899 H 0.72194 0.54396 1.00223 0.0
H900 H 0.93637 0.63241 0.7473 0.0
H901 H 0.95145 0.61476 0.80228 0.0
H902 H 0.94944 0.64413 0.9923 0.0
H903 H 0.93466 0.6623 0.93767 0.0
H904 H 0.9832 0.64802 0.99122 0.0
H905 H 0.9261 0.55944 0.88743 0.0
H906 H 0.93494 0.57604 0.82451 0.0
H907 H 0.92325 0.58322 0.88145 0.0
C908 C 0.93902 0.63506 0.80079 0.0
C909 C 0.93407 0.64859 0.83793 0.0
C910 C 0.94757 0.62482 0.8322 0.0
C911 C 0.9512 0.62765 0.90146 0.0
C912 C 0.94661 0.64149 0.9388 0.0
H913 H 0.97944 0.54303 0.11082 0.0
H914 H 0.96472 0.56288 0.06807 0.0
C915 C 0.9381 0.65181 0.90741 0.0
C916 C 0.96001 0.61639 0.93471 0.0
H917 H 0.95521 0.56481 0.93957 0.0
C918 C 0.97703 0.62982 0.98029 0.0
C919 C 0.9518 0.59256 0.92137 0.0
C920 C 0.93292 0.57695 0.87657 0.0
C921 C 0.9863 0.62017 1.01128 0.0
C922 C 0.97857 0.59648 0.99523 0.0
C923 C 0.9613 0.583 0.95116 0.0
C924 C 0.98807 0.58526 1.02369 0.0
C925 C 1.00414 0.63533 0.06169 0.0
C926 C 1.00609 0.59108 1.01267 0.0
C927 C 0.01465 0.57985 1.03755 0.0
C928 C 1.00532 0.56244 0.07375 0.0
C929 C 0.98722 0.5566 0.08428 0.0
C930 C 0.9787 0.56784 0.05946 0.0
H931 H 1.00561 0.65174 0.08055 0.0
H932 H 1.0045 0.62689 0.10418 0.0
H933 H 0.01647 0.63905 1.03848 0.0
H934 H 1.01346 0.60412 0.98403 0.0
H935 H 0.02862 0.58492 1.02877 0.0
H936 H 0.57589 0.4393 0.9359 0.0
H937 H 0.55428 0.39825 0.89686 0.0
H938 H 0.51337 0.3998 1.0023 0.0
H939 H 0.53459 0.44058 1.04032 0.0
H940 H 0.53731 0.36114 0.95772 0.0
H941 H 0.48181 0.36998 0.8198 0.0
H942 H 0.50525 0.39397 0.8524 0.0
H943 H 0.48819 0.38276 0.90544 0.0
C944 C 0.56235 0.4309 0.95118 0.0
C945 C 0.55708 0.44355 0.9911 0.0
C946 C 0.54992 0.40733 0.92862 0.0
C947 C 0.53185 0.39573 0.94504 0.0
C948 C 0.52691 0.40821 0.98697 0.0
H949 H 0.45403 0.24855 0.90963 0.0
H950 H 0.4774 0.28904 0.94762 0.0
C951 C 0.53923 0.43168 1.00927 0.0
C952 C 0.51812 0.37075 0.91844 0.0
H953 H 0.47323 0.33254 0.8332 0.0
C954 C 0.52334 0.35496 0.93034 0.0
C955 C 0.49984 0.36236 0.88165 0.0
C956 C 0.49346 0.37815 0.86342 0.0
C957 C 0.51078 0.33132 0.90825 0.0
C958 C 0.49229 0.32292 0.8736 0.0
C959 C 0.48724 0.33873 0.8603 0.0
C960 C 0.47806 0.2979 0.85025 0.0
C961 C 0.51757 0.31553 0.92131 0.0
C962 C 0.47014 0.28906 0.78274 0.0
C963 C 0.45671 0.26577 0.7607 0.0
C964 C 0.45054 0.25057 0.80559 0.0
C965 C 0.45836 0.25953 0.87328 0.0
C966 C 0.4719 0.28279 0.8952 0.0
H967 H 0.5332 0.32465 0.93265 0.0
H968 H 0.51216 0.30775 0.96446 0.0
H969 H 0.5123 0.30166 0.87816 0.0
H970 H 0.47446 0.3002 0.74678 0.0
H971 H 0.45106 0.25972 0.7083 0.0
H972 H 0.85691 0.1921 0.72881 0.0
H973 H 0.82646 0.18409 0.75282 0.0
H974 H 0.82332 0.13312 0.86223 0.0
H975 H 0.85398 0.14126 0.83904 0.0
H976 H 0.79162 0.14578 0.72056 0.0
H977 H 0.81142 0.16873 0.9936 0.0
H978 H 0.82871 0.17581 0.94109 0.0
H979 H 0.81575 0.14756 0.95882 0.0
C980 C 0.84988 0.17925 0.7584 0.0
C981 C 0.85819 0.16747 0.78218 0.0
C982 C 0.83232 0.17463 0.77204 0.0
C983 C 0.82246 0.15819 0.81038 0.0
C984 C 0.83065 0.14627 0.83388 0.0
H985 H 0.71329 0.10888 0.9397 0.0
H986 H 0.74339 0.11491 0.91723 0.0
C987 C 0.84824 0.15086 0.82015 0.0
C988 C 0.80351 0.15329 0.82394 0.0
H989 H 0.77908 0.15186 0.9479 0.0
C990 C 0.78896 0.14721 0.77038 0.0
C991 C 0.79973 0.15496 0.88882 0.0
C992 C 0.81475 0.16232 0.94896 0.0
C993 C 0.77096 0.14256 0.77963 0.0
C994 C 0.76723 0.14447 0.8445 0.0
C995 C 0.78172 0.15036 0.89809 0.0
C996 C 0.74855 0.14065 0.85771 0.0
C997 C 0.75594 0.13506 0.71936 0.0
C998 C 0.74116 0.15317 0.83268 0.0
C999 C 0.72378 0.14963 0.84511 0.0
C1000 C 0.71315 0.13352 0.88347 0.0
C1001 C 0.72069 0.12115 0.90902 0.0
C1002 C 0.73811 0.12474 0.89662 0.0
H1003 H 0.75897 0.12779 0.67557 0.0
H1004 H 0.74185 0.12218 0.72804 0.0
H1005 H 0.75544 0.14995 0.70749 0.0
H1006 H 0.74894 0.16592 0.80377 0.0
H1007 H 0.7186 0.15946 0.82389 0.0
H1008 H 0.57892 0.9988 0.9718 0.0
H1009 H 0.59248 0.97721 1.00982 0.0
H1010 H 0.64472 0.02362 0.95195 0.0
H1011 H 0.63134 0.04561 0.91469 0.0
H1012 H 0.60663 0.95472 0.94705 0.0
H1013 H 0.66306 0.02441 0.14196 0.0
H1014 H 0.64386 0.02593 0.1 0.0
H1015 H 0.66345 0.03136 0.06068 0.0
C1016 C 0.59328 1.00445 0.96676 0.0
C1017 C 0.60403 0.02414 0.94036 0.0
C1018 C 0.60104 0.99203 0.98871 0.0
C1019 C 0.61979 0.99895 0.98518 0.0
C1020 C 0.63039 0.01819 0.95693 0.0
H1021 H 0.68855 0.94258 0.11024 0.0
H1022 H 0.67676 0.96497 0.06362 0.0
C1023 C 0.62264 0.03068 0.93505 0.0
C1024 C 0.62805 0.98592 1.01096 0.0
H1025 H 0.66342 0.99055 0.12381 0.0
C1026 C 0.61904 0.96259 0.98574 0.0
C1027 C 0.64428 0.99608 0.06152 0.0
C1028 C 0.65416 0.02076 0.09316 0.0
C1029 C 0.62582 0.94927 1.00913 0.0
C1030 C 0.64193 0.95938 0.06008 0.0
C1031 C 0.6511 0.98275 0.08476 0.0
C1032 C 0.64921 0.94588 0.08933 0.0
C1033 C 0.61579 0.9245 0.9783 0.0
C1034 C 0.63784 0.9279 0.12063 0.0
C1035 C 0.64458 0.91515 0.14778 0.0
C1036 C 0.66294 0.92003 0.14467 0.0
C1037 C 0.67441 0.93834 0.11424 0.0
C1038 C 0.66765 0.95113 0.08716 0.0
H1039 H 0.60723 0.92088 0.92876 0.0
H1040 H 0.62597 0.919 0.9733 0.0
H1041 H 0.60614 0.91418 1.01035 0.0
H1042 H 0.62374 0.92383 0.12461 0.0
H1043 H 0.63542 0.90161 0.17209 0.0
H1044 H 0.22729 0.769 0.42354 0.0
H1045 H 0.21115 0.72771 0.38943 0.0
H1046 H 0.15897 0.72436 0.32823 0.0
H1047 H 0.17495 0.7655 0.36136 0.0
H1048 H 0.18111 0.69157 0.42809 0.0
H1049 H 0.16193 0.69078 0.1629 0.0
H1050 H 0.17869 0.71658 0.22035 0.0
H1051 H 0.1538 0.70456 0.21597 0.0
C1052 C 0.21236 0.75953 0.40296 0.0
C1053 C 0.20256 0.77088 0.39508 0.0
C1054 C 0.20312 0.7358 0.38337 0.0
C1055 C 0.18383 0.72271 0.35479 0.0
C1056 C 0.17392 0.73393 0.34845 0.0
H1057 H 0.09811 0.58133 0.20012 0.0
H1058 H 0.11728 0.62239 0.23488 0.0
C1059 C 0.18312 0.7576 0.36804 0.0
C1060 C 0.17403 0.69741 0.33197 0.0
H1061 H 0.14747 0.65498 0.1974 0.0
C1062 C 0.17389 0.68361 0.37749 0.0
C1063 C 0.16456 0.68677 0.26587 0.0
C1064 C 0.16487 0.70042 0.21324 0.0
C1065 C 0.16406 0.65967 0.35958 0.0
C1066 C 0.15435 0.649 0.29365 0.0
C1067 C 0.15479 0.66289 0.24794 0.0
C1068 C 0.14293 0.62355 0.27158 0.0
C1069 C 0.16361 0.64602 0.41236 0.0
C1070 C 0.15081 0.61003 0.27904 0.0
C1071 C 0.13974 0.58621 0.25916 0.0
C1072 C 0.12049 0.57522 0.23064 0.0
C1073 C 0.11282 0.58891 0.2218 0.0
C1074 C 0.12384 0.6126 0.24179 0.0
H1075 H 0.16728 0.65599 0.46278 0.0
H1076 H 0.14948 0.6304 0.4067 0.0
H1077 H 0.17405 0.64094 0.40808 0.0
H1078 H 0.16559 0.61789 0.30012 0.0
H1079 H 0.14626 0.57642 0.26667 0.0
H1080 H 0.48878 0.48953 0.2489 0.0
H1081 H 0.46252 0.47135 0.30788 0.0
H1082 H 0.42807 0.42182 0.13189 0.0
H1083 H 0.45433 0.43972 0.07273 0.0
H1084 H 0.42521 0.46399 0.27153 0.0
H1085 H 0.42345 0.38338 0.27874 0.0
H1086 H 0.44371 0.40861 0.26336 0.0
H1087 H 0.42338 0.39155 0.19901 0.0
C1088 C 0.47569 0.47462 0.22289 0.0
C1089 C 0.47371 0.46607 0.15604 0.0
C1090 C 0.46065 0.46432 0.2566 0.0
C1091 C 0.44338 0.44508 0.22456 0.0
C1092 C 0.44133 0.43647 0.1579 0.0
H1093 H 0.3372 0.3582 0.3513 0.0
H1094 H 0.36301 0.3755 0.29026 0.0
C1095 C 0.45632 0.44686 0.12398 0.0
C1096 C 0.42738 0.43442 0.26041 0.0
H1097 H 0.39906 0.38592 0.31783 0.0
C1098 C 0.41952 0.44695 0.28187 0.0
C1099 C 0.41988 0.41213 0.27343 0.0
C1100 C 0.42808 0.39811 0.25298 0.0
C1101 C 0.40421 0.4377 0.31519 0.0
C1102 C 0.39685 0.41549 0.32916 0.0
C1103 C 0.40468 0.40293 0.30734 0.0
C1104 C 0.38111 0.40504 0.36656 0.0
C1105 C 0.39579 0.45165 0.33353 0.0
C1106 C 0.38269 0.41565 0.43029 0.0
C1107 C 0.36784 0.40595 0.46503 0.0
C1108 C 0.35107 0.38519 0.43734 0.0
C1109 C 0.34969 0.37437 0.37392 0.0
C1110 C 0.36454 0.38417 0.33906 0.0
H1111 H 0.39906 0.46486 0.30238 0.0
H1112 H 0.38025 0.44081 0.32839 0.0
H1113 H 0.40182 0.46042 0.38573 0.0
H1114 H 0.39547 0.43148 0.45339 0.0
H1115 H 0.36945 0.41496 0.51335 0.0
H1116 H 0.90588 0.74658 0.69851 0.0
H1117 H 0.88943 0.7639 0.65086 0.0
H1118 H 0.84592 0.69872 0.53727 0.0
H1119 H 0.86215 0.68114 0.5852 0.0
H1120 H 0.87983 0.76563 0.51993 0.0
H1121 H 0.8159 0.72062 0.63027 0.0
H1122 H 0.83725 0.72112 0.65824 0.0
H1123 H 0.8214 0.70225 0.58401 0.0
C1124 C 0.89281 0.73586 0.66341 0.0
C1125 C 0.88533 0.7124 0.646 0.0
C1126 C 0.88342 0.74583 0.63618 0.0
C1127 C 0.86628 0.73258 0.59129 0.0
C1128 C 0.85892 0.70923 0.57286 0.0
H1129 H 0.81374 0.78282 0.32758 0.0
H1130 H 0.82873 0.76406 0.37637 0.0
C1131 C 0.86832 0.69923 0.6 0.0
C1132 C 0.85634 0.74334 0.56302 0.0
H1133 H 0.81513 0.74272 0.55096 0.0
C1134 C 0.86569 0.76063 0.52677 0.0
C1135 C 0.83798 0.73705 0.57273 0.0
C1136 C 0.82757 0.71939 0.61393 0.0
C1137 C 0.85711 0.77152 0.49912 0.0
C1138 C 0.83853 0.76475 0.50709 0.0
C1139 C 0.82928 0.74774 0.5443 0.0
C1140 C 0.82857 0.77528 0.4774 0.0
C1141 C 0.86814 0.79048 0.46254 0.0
C1142 C 0.82286 0.78719 0.51773 0.0
C1143 C 0.81425 0.79799 0.48993 0.0
C1144 C 0.81112 0.79701 0.42111 0.0
C1145 C 0.81631 0.78438 0.38082 0.0
C1146 C 0.82488 0.77362 0.40863 0.0
H1147 H 0.88353 0.79746 0.47532 0.0
H1148 H 0.8636 0.78385 0.40858 0.0
H1149 H 0.86558 0.80449 0.47362 0.0
H1150 H 0.82547 0.78861 0.57093 0.0
H1151 H 0.81058 0.80765 0.52252 0.0
H1152 H 0.34933 0.10479 0.73014 0.0
H1153 H 0.32684 0.06431 0.6865 0.0
H1154 H 0.36143 0.06576 0.54577 0.0
H1155 H 0.38388 0.10623 0.58853 0.0
H1156 H 0.30635 0.04137 0.55027 0.0
H1157 H 0.35392 0.01267 0.64269 0.0
H1158 H 0.35791 0.04015 0.67475 0.0
H1159 H 0.36349 0.03523 0.59589 0.0
C1160 C 0.3522 0.09657 0.68986 0.0
C1161 C 0.36862 0.10899 0.66344 0.0
C1162 C 0.33925 0.07333 0.66478 0.0
C1163 C 0.34242 0.0617 0.61313 0.0
C1164 C 0.35869 0.07409 0.5862 0.0
H1165 H 0.28627 0.91845 0.426 0.0
H1166 H 0.30727 0.9595 0.46075 0.0
C1167 C 0.37155 0.09737 0.61077 0.0
C1168 C 0.3288 0.03669 0.58776 0.0
H1169 H 0.32464 0.98483 0.57664 0.0
C1170 C 0.31034 0.029 0.55623 0.0
C1171 C 0.33391 0.0204 0.59473 0.0
C1172 C 0.35332 0.02738 0.62923 0.0
C1173 C 0.29706 1.00573 0.53087 0.0
C1174 C 0.30204 0.9893 0.53884 0.0
C1175 C 0.32058 0.99711 0.57026 0.0
C1176 C 0.28846 0.96407 0.51488 0.0
C1177 C 0.278 0.99916 0.49386 0.0
C1178 C 0.27062 0.95241 0.53311 0.0
C1179 C 0.25836 0.92876 0.51241 0.0
C1180 C 0.26367 0.9159 0.47366 0.0
C1181 C 0.28153 0.92759 0.45552 0.0
C1182 C 0.29367 0.95123 0.4757 0.0
H1183 H 0.27851 0.01361 0.47351 0.0
H1184 H 0.27261 0.9847 0.45251 0.0
H1185 H 0.26788 0.99412 0.52828 0.0
H1186 H 0.26626 0.96149 0.5648 0.0
H1187 H 0.24491 0.92046 0.52834 0.0
H1188 H 0.95606 0.19116 0.57834 0.0
H1189 H 0.98628 0.19764 0.55476 0.0
H1190 H 1.00489 0.20181 0.76087 0.0
H1191 H 0.97477 0.19502 0.78449 0.0
H1192 H 0.02254 0.23254 0.596 0.0
H1193 H 0.01643 0.15651 0.68031 0.0
H1194 H 0.99681 0.16055 0.66854 0.0
H1195 H 1.01438 0.17439 0.74304 0.0
C1196 C 0.96652 0.19332 0.61872 0.0
C1197 C 0.96266 0.19224 0.68338 0.0
C1198 C 0.98391 0.19709 0.60512 0.0
C1199 C 0.99797 0.19977 0.6556 0.0
C1200 C 0.99426 0.19916 0.72034 0.0
H1201 H 0.11269 0.22534 0.6824 0.0
H1202 H 0.08257 0.21967 0.70338 0.0
C1203 C 0.97692 0.19537 0.73393 0.0
C1204 C 0.01655 0.20357 0.64101 0.0
H1205 H 0.04645 0.18374 0.65953 0.0
C1206 C 0.02765 0.22173 0.60956 0.0
C1207 C 0.02351 0.18963 0.65848 0.0
C1208 C 1.01209 0.16905 0.68885 0.0
C1209 C 0.04545 0.2266 0.59678 0.0
C1210 C 0.05246 0.21274 0.61468 0.0
C1211 C 0.04132 0.19454 0.64587 0.0
C1212 C 0.07119 0.21673 0.60146 0.0
C1213 C 0.05684 0.24703 0.56583 0.0
C1214 C 0.07512 0.21683 0.53702 0.0
C1215 C 0.09247 0.22018 0.52481 0.0
C1216 C 0.10654 0.22346 0.57658 0.0
C1217 C 0.10251 0.22326 0.64109 0.0
C1218 C 0.08512 0.21983 0.6532 0.0
H1219 H 0.05225 0.25938 0.57264 0.0
H1220 H 0.07208 0.25581 0.58712 0.0
H1221 H 0.05487 0.24145 0.51195 0.0
H1222 H 0.06465 0.21405 0.49568 0.0
H1223 H 0.09489 0.22037 0.4745 0.0
H1224 H 0.36238 0.18422 0.58073 0.0
H1225 H 0.33868 0.19428 0.55201 0.0
H1226 H 0.34675 0.22207 0.75657 0.0
H1227 H 0.37051 0.21245 0.7853 0.0
H1228 H 0.30459 0.18218 0.58811 0.0
H1229 H 0.35334 0.27468 0.67194 0.0
H1230 H 0.36158 0.25537 0.66293 0.0
H1231 H 0.35258 0.25865 0.73553 0.0
C1232 C 0.35919 0.19256 0.61968 0.0
C1233 C 0.36867 0.19763 0.68547 0.0
C1234 C 0.34551 0.19828 0.60315 0.0
C1235 C 0.34093 0.20939 0.65168 0.0
C1236 C 0.35016 0.21406 0.71747 0.0
H1237 H 0.24198 0.22643 0.60709 0.0
H1238 H 0.26293 0.21199 0.6315 0.0
C1239 C 0.36379 0.20839 0.734 0.0
C1240 C 0.32665 0.21615 0.63391 0.0
H1241 H 0.32083 0.26165 0.64586 0.0
C1242 C 0.30821 0.19959 0.60075 0.0
C1243 C 0.33113 0.23889 0.6493 0.0
C1244 C 0.35077 0.25797 0.68128 0.0
C1245 C 0.2943 0.20501 0.5837 0.0
C1246 C 0.29866 0.22766 0.60068 0.0
C1247 C 0.31717 0.24422 0.63315 0.0
C1248 C 0.28479 0.235 0.58247 0.0
C1249 C 0.27515 0.18645 0.54599 0.0
C1250 C 0.28973 0.25279 0.54672 0.0
C1251 C 0.27779 0.26104 0.53285 0.0
C1252 C 0.26035 0.25197 0.55433 0.0
C1253 C 0.25508 0.23373 0.58879 0.0
C1254 C 0.26715 0.22542 0.6028 0.0
H1255 H 0.27546 0.17169 0.522 0.0
H1256 H 0.26514 0.18045 0.58071 0.0
H1257 H 0.26973 0.19278 0.50743 0.0
H1258 H 0.30309 0.2606 0.52999 0.0
H1259 H 0.28256 0.27506 0.50622 0.0
H1260 H 0.79907 0.92574 0.36181 0.0
H1261 H 0.82067 0.96548 0.41546 0.0
H1262 H 0.77462 0.97667 0.39795 0.0
H1263 H 0.75282 0.93691 0.34474 0.0
H1264 H 0.81675 1.01156 0.35685 0.0
H1265 H 0.81326 0.99224 0.61152 0.0
H1266 H 0.81401 0.97338 0.54723 0.0
H1267 H 0.79346 0.97524 0.54423 0.0
C1268 C 0.79349 0.93664 0.36852 0.0
C1269 C 0.77408 0.92791 0.34854 0.0
C1270 C 0.80591 0.95942 0.39954 0.0
C1271 C 0.7993 0.97413 0.41103 0.0
C1272 C 0.78007 0.96569 0.38976 0.0
H1273 H 0.85618 0.12078 0.56101 0.0
H1274 H 0.83504 0.08186 0.50124 0.0
C1275 C 0.76761 0.94288 0.3592 0.0
C1276 C 0.81238 0.99809 0.4467 0.0
H1277 H 0.83288 0.03036 0.60165 0.0
C1278 C 0.82027 0.01571 0.41037 0.0
C1279 C 0.81715 1.00353 0.51648 0.0
C1280 C 0.80908 0.98523 0.55772 0.0
C1281 C 0.83288 0.03853 0.44183 0.0
C1282 C 0.8374 0.04414 0.512 0.0
C1283 C 0.82951 0.02636 0.54812 0.0
C1284 C 0.85034 0.06817 0.5489 0.0
C1285 C 0.84165 0.05626 0.39918 0.0
C1286 C 0.86577 0.07373 0.59794 0.0
C1287 C 0.87776 0.09603 0.63324 0.0
C1288 C 0.87473 0.11354 0.62052 0.0
C1289 C 0.85919 0.10793 0.57178 0.0
C1290 C 0.8471 0.08558 0.53699 0.0
H1291 H 0.84162 0.04863 0.3494 0.0
H1292 H 0.83334 0.06443 0.39236 0.0
H1293 H 0.85638 0.06958 0.42225 0.0
H1294 H 0.86866 0.06078 0.60878 0.0
H1295 H 0.88949 0.09955 0.67036 0.0
H1296 H 0.97983 0.72687 0.76782 0.0
H1297 H 1.00955 0.74333 0.72769 0.0
H1298 H 0.97918 0.71472 0.52706 0.0
H1299 H 0.94928 0.69766 0.567 0.0
H1300 H 1.00897 0.70951 0.54731 0.0
H1301 H 0.03294 0.79883 0.64344 0.0
H1302 H 0.02787 0.78192 0.70701 0.0
H1303 H 1.0092 0.77577 0.64095 0.0
C1304 C 0.97939 0.72411 0.71506 0.0
C1305 C 0.96204 0.7111 0.67069 0.0
C1306 C 0.99648 0.73369 0.6921 0.0
C1307 C 0.99673 0.73079 0.62411 0.0
C1308 C 0.97944 0.71744 0.5797 0.0
H1309 H 0.0958 0.81345 0.45346 0.0
H1310 H 0.06491 0.79485 0.48539 0.0
C1311 C 0.96231 0.70774 0.60267 0.0
C1312 C 0.015 0.74145 0.59962 0.0
H1313 H 0.05587 0.7922 0.60629 0.0
C1314 C 0.01918 0.72761 0.56003 0.0
C1315 C 0.0283 0.76515 0.61502 0.0
C1316 C 0.0243 0.78132 0.65334 0.0
C1317 C 0.03636 0.73667 0.53693 0.0
C1318 C 0.04999 0.76022 0.55486 0.0
C1319 C 0.04562 0.77412 0.59316 0.0
C1320 C 0.06873 0.77094 0.53366 0.0
C1321 C 0.03956 0.72095 0.49247 0.0
C1322 C 0.08142 0.76392 0.55039 0.0
C1323 C 0.09915 0.77446 0.53164 0.0
C1324 C 0.10471 0.79239 0.4959 0.0
C1325 C 0.09199 0.79946 0.47976 0.0
C1326 C 0.0743 0.78893 0.49849 0.0
H1327 H 0.02606 0.7053 0.46803 0.0
H1328 H 0.04734 0.72946 0.45376 0.0
H1329 H 0.04806 0.7158 0.52246 0.0
H1330 H 0.07771 0.75043 0.57866 0.0
H1331 H 0.10843 0.76839 0.54473 0.0
loop_
_geom_bond_atom_site_label_1
_geom_bond_atom_site_label_2
_geom_bond_distance
_geom_bond_site_symmetry_2
_ccdc_geom_bond_type
Tb0 C10 2.825 . S
Tb0 O11 2.347 . S
Tb0 O14 2.366 . S
Tb0 O19 2.418 1_554 S
Tb0 O20 2.384 . S
Tb0 O23 2.479 . S
Tb0 O24 2.471 . S
Eu1 O12 2.418 . S
Eu1 O13 2.384 . S
Eu1 O16 2.479 1_455 S
Eu1 O17 2.471 1_554 S
Eu1 O18 2.347 1_554 S
Eu1 O21 2.366 . S
Eu1 C31 2.825 1_455 S
C2 O18 1.259 . S
C2 O19 1.265 . S
C3 O20 1.255 . S
C3 O21 1.265 . S
C4 C6 1.380 . S
C4 C7 1.374 . S
C4 C10 1.507 . S
C5 C6 1.384 . S
C5 C9 1.387 . S
C5 H32 0.930 . S
C6 C4 1.380 . S
C6 C5 1.384 . S
C6 H33 0.931 . S
C7 C4 1.374 . S
C7 C8 1.390 . S
C7 H34 0.930 . S
C8 C7 1.390 . S
C8 C9 1.391 . S
C8 H35 0.930 . S
C9 C5 1.387 . S
C9 C8 1.391 . S
C10 Tb0 2.825 . S
C10 C4 1.507 . S
C10 O23 1.238 . S
C10 O24 1.247 . S
O11 Tb0 2.347 . S
O11 C15 1.259 . S
O12 Eu1 2.418 . S
O12 C15 1.265 . S
O13 Eu1 2.384 . S
O13 C22 1.255 . S
O14 Tb0 2.366 . S
O14 C22 1.265 . S
C15 O11 1.259 . S
C15 O12 1.265 . S
O16 Eu1 2.479 1_655 S
O16 C31 1.238 . S
O17 Eu1 2.471 1_556 S
O17 C31 1.247 1_456 S
O18 Eu1 2.347 1_556 S
O18 C2 1.259 . S
O19 Tb0 2.418 1_556 S
O19 C2 1.265 . S
O20 Tb0 2.384 . S
O20 C3 1.255 . S
O21 Eu1 2.366 . S
O21 C3 1.265 . S
C22 O13 1.255 . S
C22 O14 1.265 . S
O23 Tb0 2.479 . S
O23 C10 1.238 . S
O24 Tb0 2.471 . S
O24 C10 1.247 . S
C25 C28 1.380 . S
C25 C29 1.374 1_554 S
C25 C31 1.507 . S
C26 C27 1.387 1_556 S
C26 C30 1.391 . S
C27 C26 1.387 1_554 S
C27 C28 1.384 . S
C27 H36 0.930 . S
C28 C25 1.380 . S
C28 C27 1.384 . S
C28 H37 0.931 . S
C29 C25 1.374 1_556 S
C29 C30 1.390 . S
C29 H38 0.930 1_655 S
C30 C26 1.391 . S
C30 C29 1.390 . S
C30 H39 0.930 . S
C31 Eu1 2.825 1_655 S
C31 O16 1.238 . S
C31 O17 1.247 1_654 S
C31 C25 1.507 . S
H32 C5 0.930 . S
H33 C6 0.931 . S
H34 C7 0.930 . S
H35 C8 0.930 . S
H36 C27 0.930 . S
H37 C28 0.931 . S
H38 C29 0.930 1_455 S
H39 C30 0.930 . S
Tb40 C50 2.825 . S
Tb40 O51 2.347 . S
Tb40 O54 2.366 . S
Tb40 O59 2.418 . S
Tb40 O60 2.384 . S
Tb40 O63 2.479 . S
Tb40 O64 2.471 . S
Eu41 O52 2.418 1_554 S
Eu41 O53 2.384 . S
Eu41 O56 2.479 . S
Eu41 O57 2.471 . S
Eu41 O58 2.347 . S
Eu41 O61 2.366 . S
Eu41 C71 2.825 . S
C42 O58 1.259 . S
C42 O59 1.265 . S
C43 O60 1.255 . S
C43 O61 1.265 . S
C44 C46 1.380 . S
C44 C47 1.374 . S
C44 C50 1.507 . S
C45 C46 1.384 . S
C45 C49 1.387 . S
C45 H72 0.930 . S
C46 C44 1.380 . S
C46 C45 1.384 . S
C46 H73 0.931 . S
C47 C44 1.374 . S
C47 C48 1.390 . S
C47 H74 0.930 . S
C48 C47 1.390 . S
C48 C49 1.391 . S
C48 H75 0.930 . S
C49 C45 1.387 . S
C49 C48 1.391 . S
C50 Tb40 2.825 . S
C50 C44 1.507 . S
C50 O63 1.238 . S
C50 O64 1.247 . S
O51 Tb40 2.347 . S
O51 C55 1.259 1_554 S
O52 Eu41 2.418 1_556 S
O52 C55 1.265 . S
O53 Eu41 2.384 . S
O53 C62 1.255 . S
O54 Tb40 2.366 . S
O54 C62 1.265 . S
C55 O51 1.259 1_556 S
C55 O52 1.265 . S
O56 Eu41 2.479 . S
O56 C71 1.238 . S
O57 Eu41 2.471 . S
O57 C71 1.247 . S
O58 Eu41 2.347 . S
O58 C42 1.259 . S
O59 Tb40 2.418 . S
O59 C42 1.265 . S
O60 Tb40 2.384 . S
O60 C43 1.255 . S
O61 Eu41 2.366 . S
O61 C43 1.265 . S
C62 O53 1.255 . S
C62 O54 1.265 . S
O63 Tb40 2.479 . S
O63 C50 1.238 . S
O64 Tb40 2.471 . S
O64 C50 1.247 . S
C65 C68 1.380 . S
C65 C69 1.374 . S
C65 C71 1.507 . S
C66 C67 1.387 . S
C66 C70 1.391 . S
C67 C66 1.387 . S
C67 C68 1.384 . S
C67 H76 0.930 . S
C68 C65 1.380 . S
C68 C67 1.384 . S
C68 H77 0.931 . S
C69 C65 1.374 . S
C69 C70 1.390 . S
C69 H78 0.930 . S
C70 C66 1.391 . S
C70 C69 1.390 . S
C70 H79 0.930 . S
C71 Eu41 2.825 . S
C71 O56 1.238 . S
C71 O57 1.247 . S
C71 C65 1.507 . S
H72 C45 0.930 . S
H73 C46 0.931 . S
H74 C47 0.930 . S
H75 C48 0.930 . S
H76 C67 0.930 . S
H77 C68 0.931 . S
H78 C69 0.930 . S
H79 C70 0.930 . S
Tb80 C90 2.825 . S
Tb80 O91 2.347 . S
Tb80 O94 2.366 . S
Tb80 O99 2.418 . S
Tb80 O100 2.384 . S
Tb80 O103 2.479 . S
Tb80 O104 2.471 . S
Eu81 O92 2.418 . S
Eu81 O93 2.384 . S
Eu81 O96 2.479 . S
Eu81 O97 2.471 . S
Eu81 O98 2.347 . S
Eu81 O101 2.366 . S
Eu81 C111 2.825 . S
C82 O98 1.259 . S
C82 O99 1.265 . S
C83 O100 1.255 . S
C83 O101 1.265 . S
C84 C86 1.380 . S
C84 C87 1.374 . S
C84 C90 1.507 . S
C85 C86 1.384 . S
C85 C89 1.387 . S
C85 H112 0.930 . S
C86 C84 1.380 . S
C86 C85 1.384 . S
C86 H113 0.931 . S
C87 C84 1.374 . S
C87 C88 1.390 . S
C87 H114 0.930 . S
C88 C87 1.390 . S
C88 C89 1.391 . S
C88 H115 0.930 . S
C89 C85 1.387 . S
C89 C88 1.391 . S
C90 Tb80 2.825 . S
C90 C84 1.507 . S
C90 O103 1.238 . S
C90 O104 1.247 . S
O91 Tb80 2.347 . S
O91 C95 1.259 . S
O92 Eu81 2.418 . S
O92 C95 1.265 . S
O93 Eu81 2.384 . S
O93 C102 1.255 . S
O94 Tb80 2.366 . S
O94 C102 1.265 . S
C95 O91 1.259 . S
C95 O92 1.265 . S
O96 Eu81 2.479 . S
O96 C111 1.238 . S
O97 Eu81 2.471 . S
O97 C111 1.247 . S
O98 Eu81 2.347 . S
O98 C82 1.259 . S
O99 Tb80 2.418 . S
O99 C82 1.265 . S
O100 Tb80 2.384 . S
O100 C83 1.255 . S
O101 Eu81 2.366 . S
O101 C83 1.265 . S
C102 O93 1.255 . S
C102 O94 1.265 . S
O103 Tb80 2.479 . S
O103 C90 1.238 . S
O104 Tb80 2.471 . S
O104 C90 1.247 . S
C105 C108 1.380 . S
C105 C109 1.374 . S
C105 C111 1.507 . S
C106 C107 1.387 . S
C106 C110 1.391 . S
C107 C106 1.387 . S
C107 C108 1.384 . S
C107 H116 0.930 . S
C108 C105 1.380 . S
C108 C107 1.384 . S
C108 H117 0.931 . S
C109 C105 1.374 . S
C109 C110 1.390 . S
C109 H118 0.930 . S
C110 C106 1.391 . S
C110 C109 1.390 . S
C110 H119 0.930 . S
C111 Eu81 2.825 . S
C111 O96 1.238 . S
C111 O97 1.247 . S
C111 C105 1.507 . S
H112 C85 0.930 . S
H113 C86 0.931 . S
H114 C87 0.930 . S
H115 C88 0.930 . S
H116 C107 0.930 . S
H117 C108 0.931 . S
H118 C109 0.930 . S
H119 C110 0.930 . S
Tb120 C130 2.825 . S
Tb120 O131 2.347 . S
Tb120 O134 2.366 . S
Tb120 O139 2.418 . S
Tb120 O140 2.384 . S
Tb120 O143 2.479 . S
Tb120 O144 2.471 . S
Eu121 O132 2.418 . S
Eu121 O133 2.384 . S
Eu121 O136 2.479 . S
Eu121 O137 2.471 . S
Eu121 O138 2.347 . S
Eu121 O141 2.366 . S
Eu121 C151 2.825 . S
C122 O138 1.259 . S
C122 O139 1.265 . S
C123 O140 1.255 . S
C123 O141 1.265 . S
C124 C126 1.380 . S
C124 C127 1.374 . S
C124 C130 1.507 . S
C125 C126 1.384 . S
C125 C129 1.387 . S
C125 H152 0.930 . S
C126 C124 1.380 . S
C126 C125 1.384 . S
C126 H153 0.931 . S
C127 C124 1.374 . S
C127 C128 1.390 . S
C127 H154 0.930 . S
C128 C127 1.390 . S
C128 C129 1.391 . S
C128 H155 0.930 . S
C129 C125 1.387 . S
C129 C128 1.391 . S
C130 Tb120 2.825 . S
C130 C124 1.507 . S
C130 O143 1.238 . S
C130 O144 1.247 . S
O131 Tb120 2.347 . S
O131 C135 1.259 . S
O132 Eu121 2.418 . S
O132 C135 1.265 . S
O133 Eu121 2.384 . S
O133 C142 1.255 . S
O134 Tb120 2.366 . S
O134 C142 1.265 . S
C135 O131 1.259 . S
C135 O132 1.265 . S
O136 Eu121 2.479 . S
O136 C151 1.238 . S
O137 Eu121 2.471 . S
O137 C151 1.247 . S
O138 Eu121 2.347 . S
O138 C122 1.259 . S
O139 Tb120 2.418 . S
O139 C122 1.265 . S
O140 Tb120 2.384 . S
O140 C123 1.255 . S
O141 Eu121 2.366 . S
O141 C123 1.265 . S
C142 O133 1.255 . S
C142 O134 1.265 . S
O143 Tb120 2.479 . S
O143 C130 1.238 . S
O144 Tb120 2.471 . S
O144 C130 1.247 . S
C145 C148 1.380 . S
C145 C149 1.374 . S
C145 C151 1.507 . S
C146 C147 1.387 . S
C146 C150 1.391 . S
C147 C146 1.387 . S
C147 C148 1.384 . S
C147 H156 0.930 . S
C148 C145 1.380 . S
C148 C147 1.384 . S
C148 H157 0.931 . S
C149 C145 1.374 . S
C149 C150 1.390 . S
C149 H158 0.930 . S
C150 C146 1.391 . S
C150 C149 1.390 . S
C150 H159 0.930 . S
C151 Eu121 2.825 . S
C151 O136 1.238 . S
C151 O137 1.247 . S
C151 C145 1.507 . S
H152 C125 0.930 . S
H153 C126 0.931 . S
H154 C127 0.930 . S
H155 C128 0.930 . S
H156 C147 0.930 . S
H157 C148 0.931 . S
H158 C149 0.930 . S
H159 C150 0.930 . S
Tb160 C170 2.825 . S
Tb160 O171 2.347 . S
Tb160 O174 2.366 . S
Tb160 O179 2.418 . S
Tb160 O180 2.384 . S
Tb160 O183 2.479 . S
Tb160 O184 2.471 . S
Eu161 O172 2.418 . S
Eu161 O173 2.384 . S
Eu161 O176 2.479 . S
Eu161 O177 2.471 . S
Eu161 O178 2.347 . S
Eu161 O181 2.366 . S
Eu161 C191 2.825 . S
C162 O178 1.259 . S
C162 O179 1.265 . S
C163 O180 1.255 . S
C163 O181 1.265 . S
C164 C166 1.380 . S
C164 C167 1.374 . S
C164 C170 1.507 . S
C165 C166 1.384 . S
C165 C169 1.387 . S
C165 H192 0.930 . S
C166 C164 1.380 . S
C166 C165 1.384 . S
C166 H193 0.931 . S
C167 C164 1.374 . S
C167 C168 1.390 . S
C167 H194 0.930 . S
C168 C167 1.390 . S
C168 C169 1.391 . S
C168 H195 0.930 . S
C169 C165 1.387 . S
C169 C168 1.391 . S
C170 Tb160 2.825 . S
C170 C164 1.507 . S
C170 O183 1.238 . S
C170 O184 1.247 . S
O171 Tb160 2.347 . S
O171 C175 1.259 . S
O172 Eu161 2.418 . S
O172 C175 1.265 . S
O173 Eu161 2.384 . S
O173 C182 1.255 . S
O174 Tb160 2.366 . S
O174 C182 1.265 . S
C175 O171 1.259 . S
C175 O172 1.265 . S
O176 Eu161 2.479 . S
O176 C191 1.238 . S
O177 Eu161 2.471 . S
O177 C191 1.247 . S
O178 Eu161 2.347 . S
O178 C162 1.259 . S
O179 Tb160 2.418 . S
O179 C162 1.265 . S
O180 Tb160 2.384 . S
O180 C163 1.255 . S
O181 Eu161 2.366 . S
O181 C163 1.265 . S
C182 O173 1.255 . S
C182 O174 1.265 . S
O183 Tb160 2.479 . S
O183 C170 1.238 . S
O184 Tb160 2.471 . S
O184 C170 1.247 . S
C185 C188 1.380 . S
C185 C189 1.374 . S
C185 C191 1.507 . S
C186 C187 1.387 . S
C186 C190 1.391 . S
C187 C186 1.387 . S
C187 C188 1.384 . S
C187 H196 0.930 . S
C188 C185 1.380 . S
C188 C187 1.384 . S
C188 H197 0.931 . S
C189 C185 1.374 . S
C189 C190 1.390 . S
C189 H198 0.930 . S
C190 C186 1.391 . S
C190 C189 1.390 . S
C190 H199 0.930 . S
C191 Eu161 2.825 . S
C191 O176 1.238 . S
C191 O177 1.247 . S
C191 C185 1.507 . S
H192 C165 0.930 . S
H193 C166 0.931 . S
H194 C167 0.930 . S
H195 C168 0.930 . S
H196 C187 0.930 . S
H197 C188 0.931 . S
H198 C189 0.930 . S
H199 C190 0.930 . S
Tb200 C210 2.825 . S
Tb200 O211 2.347 . S
Tb200 O214 2.366 . S
Tb200 O219 2.418 . S
Tb200 O220 2.384 . S
Tb200 O223 2.479 . S
Tb200 O224 2.471 . S
Eu201 O212 2.418 . S
Eu201 O213 2.384 . S
Eu201 O216 2.479 . S
Eu201 O217 2.471 . S
Eu201 O218 2.347 . S
Eu201 O221 2.366 . S
Eu201 C231 2.825 . S
C202 O218 1.259 . S
C202 O219 1.265 . S
C203 O220 1.255 . S
C203 O221 1.265 . S
C204 C206 1.380 . S
C204 C207 1.374 . S
C204 C210 1.507 . S
C205 C206 1.384 . S
C205 C209 1.387 . S
C205 H232 0.930 . S
C206 C204 1.380 . S
C206 C205 1.384 . S
C206 H233 0.931 . S
C207 C204 1.374 . S
C207 C208 1.390 . S
C207 H234 0.930 . S
C208 C207 1.390 . S
C208 C209 1.391 . S
C208 H235 0.930 . S
C209 C205 1.387 . S
C209 C208 1.391 . S
C210 Tb200 2.825 . S
C210 C204 1.507 . S
C210 O223 1.238 . S
C210 O224 1.247 . S
O211 Tb200 2.347 . S
O211 C215 1.259 . S
O212 Eu201 2.418 . S
O212 C215 1.265 . S
O213 Eu201 2.384 . S
O213 C222 1.255 . S
O214 Tb200 2.366 . S
O214 C222 1.265 . S
C215 O211 1.259 . S
C215 O212 1.265 . S
O216 Eu201 2.479 . S
O216 C231 1.238 . S
O217 Eu201 2.471 . S
O217 C231 1.247 . S
O218 Eu201 2.347 . S
O218 C202 1.259 . S
O219 Tb200 2.418 . S
O219 C202 1.265 . S
O220 Tb200 2.384 . S
O220 C203 1.255 . S
O221 Eu201 2.366 . S
O221 C203 1.265 . S
C222 O213 1.255 . S
C222 O214 1.265 . S
O223 Tb200 2.479 . S
O223 C210 1.238 . S
O224 Tb200 2.471 . S
O224 C210 1.247 . S
C225 C228 1.380 . S
C225 C229 1.374 . S
C225 C231 1.507 . S
C226 C227 1.387 . S
C226 C230 1.391 . S
C227 C226 1.387 . S
C227 C228 1.384 . S
C227 H236 0.930 . S
C228 C225 1.380 . S
C228 C227 1.384 . S
C228 H237 0.931 . S
C229 C225 1.374 . S
C229 C230 1.390 . S
C229 H238 0.930 . S
C230 C226 1.391 . S
C230 C229 1.390 . S
C230 H239 0.930 . S
C231 Eu201 2.825 . S
C231 O216 1.238 . S
C231 O217 1.247 . S
C231 C225 1.507 . S
H232 C205 0.930 . S
H233 C206 0.931 . S
H234 C207 0.930 . S
H235 C208 0.930 . S
H236 C227 0.930 . S
H237 C228 0.931 . S
H238 C229 0.930 . S
H239 C230 0.930 . S
Tb240 C250 2.825 . S
Tb240 O251 2.347 . S
Tb240 O254 2.366 . S
Tb240 O259 2.418 . S
Tb240 O260 2.384 . S
Tb240 O263 2.479 . S
Tb240 O264 2.471 . S
Eu241 O252 2.418 . S
Eu241 O253 2.384 . S
Eu241 O256 2.479 . S
Eu241 O257 2.471 . S
Eu241 O258 2.347 . S
Eu241 O261 2.366 . S
Eu241 C271 2.825 . S
C242 O258 1.259 . S
C242 O259 1.265 . S
C243 O260 1.255 . S
C243 O261 1.265 . S
C244 C246 1.380 . S
C244 C247 1.374 . S
C244 C250 1.507 . S
C245 C246 1.384 . S
C245 C249 1.387 . S
C245 H272 0.930 . S
C246 C244 1.380 . S
C246 C245 1.384 . S
C246 H273 0.931 . S
C247 C244 1.374 . S
C247 C248 1.390 . S
C247 H274 0.930 . S
C248 C247 1.390 . S
C248 C249 1.391 . S
C248 H275 0.930 . S
C249 C245 1.387 . S
C249 C248 1.391 . S
C250 Tb240 2.825 . S
C250 C244 1.507 . S
C250 O263 1.238 . S
C250 O264 1.247 . S
O251 Tb240 2.347 . S
O251 C255 1.259 . S
O252 Eu241 2.418 . S
O252 C255 1.265 . S
O253 Eu241 2.384 . S
O253 C262 1.255 . S
O254 Tb240 2.366 . S
O254 C262 1.265 . S
C255 O251 1.259 . S
C255 O252 1.265 . S
O256 Eu241 2.479 . S
O256 C271 1.238 . S
O257 Eu241 2.471 . S
O257 C271 1.247 . S
O258 Eu241 2.347 . S
O258 C242 1.259 . S
O259 Tb240 2.418 . S
O259 C242 1.265 . S
O260 Tb240 2.384 . S
O260 C243 1.255 . S
O261 Eu241 2.366 . S
O261 C243 1.265 . S
C262 O253 1.255 . S
C262 O254 1.265 . S
O263 Tb240 2.479 . S
O263 C250 1.238 . S
O264 Tb240 2.471 . S
O264 C250 1.247 . S
C265 C268 1.380 . S
C265 C269 1.374 . S
C265 C271 1.507 . S
C266 C267 1.387 . S
C266 C270 1.391 . S
C267 C266 1.387 . S
C267 C268 1.384 1_554 S
C267 H276 0.930 . S
C268 C265 1.380 . S
C268 C267 1.384 1_556 S
C268 H277 0.931 . S
C269 C265 1.374 . S
C269 C270 1.390 1_556 S
C269 H278 0.930 . S
C270 C266 1.391 . S
C270 C269 1.390 1_554 S
C270 H279 0.930 . S
C271 Eu241 2.825 . S
C271 O256 1.238 . S
C271 O257 1.247 . S
C271 C265 1.507 . S
H272 C245 0.930 . S
H273 C246 0.931 . S
H274 C247 0.930 . S
H275 C248 0.930 . S
H276 C267 0.930 . S
H277 C268 0.931 . S
H278 C269 0.930 . S
H279 C270 0.930 . S
Tb280 C290 2.825 . S
Tb280 O291 2.347 . S
Tb280 O294 2.366 . S
Tb280 O299 2.418 . S
Tb280 O300 2.384 . S
Tb280 O303 2.479 . S
Tb280 O304 2.471 . S
Eu281 O292 2.418 . S
Eu281 O293 2.384 . S
Eu281 O296 2.479 . S
Eu281 O297 2.471 . S
Eu281 O298 2.347 . S
Eu281 O301 2.366 . S
Eu281 C311 2.825 . S
C282 O298 1.259 . S
C282 O299 1.265 . S
C283 O300 1.255 . S
C283 O301 1.265 . S
C284 C286 1.380 . S
C284 C287 1.374 . S
C284 C290 1.507 . S
C285 C286 1.384 1_554 S
C285 C289 1.387 . S
C285 H312 0.930 . S
C286 C284 1.380 . S
C286 C285 1.384 1_556 S
C286 H313 0.931 . S
C287 C284 1.374 . S
C287 C288 1.390 1_556 S
C287 H314 0.930 . S
C288 C287 1.390 1_554 S
C288 C289 1.391 . S
C288 H315 0.930 . S
C289 C285 1.387 . S
C289 C288 1.391 . S
C290 Tb280 2.825 . S
C290 C284 1.507 . S
C290 O303 1.238 . S
C290 O304 1.247 . S
O291 Tb280 2.347 . S
O291 C295 1.259 . S
O292 Eu281 2.418 . S
O292 C295 1.265 . S
O293 Eu281 2.384 . S
O293 C302 1.255 . S
O294 Tb280 2.366 . S
O294 C302 1.265 . S
C295 O291 1.259 . S
C295 O292 1.265 . S
O296 Eu281 2.479 . S
O296 C311 1.238 . S
O297 Eu281 2.471 . S
O297 C311 1.247 . S
O298 Eu281 2.347 . S
O298 C282 1.259 . S
O299 Tb280 2.418 . S
O299 C282 1.265 . S
O300 Tb280 2.384 . S
O300 C283 1.255 . S
O301 Eu281 2.366 . S
O301 C283 1.265 . S
C302 O293 1.255 . S
C302 O294 1.265 . S
O303 Tb280 2.479 . S
O303 C290 1.238 . S
O304 Tb280 2.471 . S
O304 C290 1.247 . S
C305 C308 1.380 . S
C305 C309 1.374 . S
C305 C311 1.507 . S
C306 C307 1.387 . S
C306 C310 1.391 . S
C307 C306 1.387 . S
C307 C308 1.384 . S
C307 H316 0.930 . S
C308 C305 1.380 . S
C308 C307 1.384 . S
C308 H317 0.931 . S
C309 C305 1.374 . S
C309 C310 1.390 . S
C309 H318 0.930 . S
C310 C306 1.391 . S
C310 C309 1.390 . S
C310 H319 0.930 . S
C311 Eu281 2.825 . S
C311 O296 1.238 . S
C311 O297 1.247 . S
C311 C305 1.507 . S
H312 C285 0.930 . S
H313 C286 0.931 . S
H314 C287 0.930 . S
H315 C288 0.930 . S
H316 C307 0.930 . S
H317 C308 0.931 . S
H318 C309 0.930 . S
H319 C310 0.930 . S
Tb320 C330 2.825 . S
Tb320 O331 2.347 . S
Tb320 O334 2.366 . S
Tb320 O339 2.418 . S
Tb320 O340 2.384 . S
Tb320 O343 2.479 . S
Tb320 O344 2.471 . S
Eu321 O332 2.418 . S
Eu321 O333 2.384 . S
Eu321 O336 2.479 . S
Eu321 O337 2.471 . S
Eu321 O338 2.347 . S
Eu321 O341 2.366 . S
Eu321 C351 2.825 . S
C322 O338 1.259 . S
C322 O339 1.265 . S
C323 O340 1.255 . S
C323 O341 1.265 . S
C324 C326 1.380 . S
C324 C327 1.374 . S
C324 C330 1.507 . S
C325 C326 1.384 . S
C325 C329 1.387 . S
C325 H352 0.930 . S
C326 C324 1.380 . S
C326 C325 1.384 . S
C326 H353 0.931 . S
C327 C324 1.374 . S
C327 C328 1.390 . S
C327 H354 0.930 . S
C328 C327 1.390 . S
C328 C329 1.391 . S
C328 H355 0.930 . S
C329 C325 1.387 . S
C329 C328 1.391 . S
C330 Tb320 2.825 . S
C330 C324 1.507 . S
C330 O343 1.238 . S
C330 O344 1.247 . S
O331 Tb320 2.347 . S
O331 C335 1.259 . S
O332 Eu321 2.418 . S
O332 C335 1.265 . S
O333 Eu321 2.384 . S
O333 C342 1.255 . S
O334 Tb320 2.366 . S
O334 C342 1.265 . S
C335 O331 1.259 . S
C335 O332 1.265 . S
O336 Eu321 2.479 . S
O336 C351 1.238 . S
O337 Eu321 2.471 . S
O337 C351 1.247 . S
O338 Eu321 2.347 . S
O338 C322 1.259 . S
O339 Tb320 2.418 . S
O339 C322 1.265 . S
O340 Tb320 2.384 . S
O340 C323 1.255 . S
O341 Eu321 2.366 . S
O341 C323 1.265 . S
C342 O333 1.255 . S
C342 O334 1.265 . S
O343 Tb320 2.479 . S
O343 C330 1.238 . S
O344 Tb320 2.471 . S
O344 C330 1.247 . S
C345 C348 1.380 . S
C345 C349 1.374 . S
C345 C351 1.507 . S
C346 C347 1.387 . S
C346 C350 1.391 . S
C347 C346 1.387 . S
C347 C348 1.384 1_554 S
C347 H356 0.930 . S
C348 C345 1.380 . S
C348 C347 1.384 1_556 S
C348 H357 0.931 . S
C349 C345 1.374 . S
C349 C350 1.390 1_556 S
C349 H358 0.930 . S
C350 C346 1.391 . S
C350 C349 1.390 1_554 S
C350 H359 0.930 . S
C351 Eu321 2.825 . S
C351 O336 1.238 . S
C351 O337 1.247 . S
C351 C345 1.507 . S
H352 C325 0.930 . S
H353 C326 0.931 . S
H354 C327 0.930 . S
H355 C328 0.930 . S
H356 C347 0.930 . S
H357 C348 0.931 . S
H358 C349 0.930 . S
H359 C350 0.930 . S
H360 C368 0.929 . S
H361 C370 0.930 . S
H362 C372 0.930 . S
H363 C375 0.929 . S
H364 C378 0.930 . S
H365 C380 0.960 . S
H366 C380 0.960 . S
H367 C380 0.960 . S
C368 H360 0.929 . S
C368 C369 1.377 . S
C368 C370 1.384 . S
C369 C368 1.377 . S
C369 C375 1.390 . S
C370 H361 0.930 . S
C370 C368 1.384 . S
C370 C371 1.372 . S
C371 C370 1.372 . S
C371 C372 1.400 . S
C371 C376 1.490 . S
C372 H362 0.930 . S
C372 C371 1.400 . S
C372 C375 1.386 . S
H373 C389 0.930 . S
H374 C390 0.931 . S
C375 H363 0.929 . S
C375 C369 1.390 . S
C375 C372 1.386 . S
C376 C371 1.490 . S
C376 C378 1.395 . S
C376 C379 1.403 . S
H377 C383 0.930 . S
C378 H364 0.930 . S
C378 C376 1.395 . S
C378 C381 1.403 . S
C379 C376 1.403 . S
C379 C380 1.524 . S
C379 C383 1.400 . S
C380 H365 0.960 . S
C380 H366 0.960 . S
C380 H367 0.960 . S
C380 C379 1.524 . S
C381 C378 1.403 . S
C381 C382 1.392 . S
C381 C385 1.495 . S
C382 C381 1.392 . S
C382 C383 1.385 . S
C382 C384 1.478 . S
C383 H377 0.930 . S
C383 C379 1.400 . S
C383 C382 1.385 . S
C384 C382 1.478 . S
C384 C386 1.381 . S
C384 C390 1.383 . S
C385 C381 1.495 . S
C385 H391 0.959 . S
C385 H392 0.961 . S
C385 H393 0.960 . S
C386 C384 1.381 . S
C386 C387 1.394 . S
C386 H394 0.930 . S
C387 C386 1.394 . S
C387 C388 1.383 . S
C387 H395 0.929 . S
C388 C387 1.383 . S
C388 C389 1.377 . S
C389 H373 0.930 . S
C389 C388 1.377 . S
C389 C390 1.379 . S
C390 H374 0.931 . S
C390 C384 1.383 . S
C390 C389 1.379 . S
H391 C385 0.959 . S
H392 C385 0.961 . S
H393 C385 0.960 . S
H394 C386 0.930 . S
H395 C387 0.929 . S
H396 C404 0.929 . S
H397 C406 0.930 . S
H398 C408 0.930 . S
H399 C411 0.929 . S
H400 C414 0.930 . S
H401 C416 0.960 . S
H402 C416 0.960 . S
H403 C416 0.960 . S
C404 H396 0.929 . S
C404 C405 1.377 . S
C404 C406 1.384 . S
C405 C404 1.377 . S
C405 C411 1.390 . S
C406 H397 0.930 . S
C406 C404 1.384 . S
C406 C407 1.372 . S
C407 C406 1.372 . S
C407 C408 1.400 . S
C407 C412 1.490 . S
C408 H398 0.930 . S
C408 C407 1.400 . S
C408 C411 1.386 . S
H409 C425 0.930 . S
H410 C426 0.931 . S
C411 H399 0.929 . S
C411 C405 1.390 . S
C411 C408 1.386 . S
C412 C407 1.490 . S
C412 C414 1.395 . S
C412 C415 1.403 . S
H413 C419 0.930 . S
C414 H400 0.930 . S
C414 C412 1.395 . S
C414 C417 1.403 . S
C415 C412 1.403 . S
C415 C416 1.524 . S
C415 C419 1.400 . S
C416 H401 0.960 . S
C416 H402 0.960 . S
C416 H403 0.960 . S
C416 C415 1.524 . S
C417 C414 1.403 . S
C417 C418 1.392 . S
C417 C421 1.495 . S
C418 C417 1.392 . S
C418 C419 1.385 . S
C418 C420 1.478 . S
C419 H413 0.930 . S
C419 C415 1.400 . S
C419 C418 1.385 . S
C420 C418 1.478 . S
C420 C422 1.381 . S
C420 C426 1.383 . S
C421 C417 1.495 . S
C421 H427 0.959 . S
C421 H428 0.961 . S
C421 H429 0.960 . S
C422 C420 1.381 . S
C422 C423 1.394 . S
C422 H430 0.930 . S
C423 C422 1.394 . S
C423 C424 1.383 . S
C423 H431 0.929 . S
C424 C423 1.383 . S
C424 C425 1.377 . S
C425 H409 0.930 . S
C425 C424 1.377 . S
C425 C426 1.379 . S
C426 H410 0.931 . S
C426 C420 1.383 . S
C426 C425 1.379 . S
H427 C421 0.959 . S
H428 C421 0.961 . S
H429 C421 0.960 . S
H430 C422 0.930 . S
H431 C423 0.929 . S
H432 C440 0.929 . S
H433 C442 0.930 . S
H434 C444 0.930 . S
H435 C447 0.929 . S
H436 C450 0.930 . S
H437 C452 0.960 . S
H438 C452 0.960 . S
H439 C452 0.960 . S
C440 H432 0.929 . S
C440 C441 1.377 . S
C440 C442 1.384 . S
C441 C440 1.377 . S
C441 C447 1.390 . S
C442 H433 0.930 . S
C442 C440 1.384 . S
C442 C443 1.372 . S
C443 C442 1.372 . S
C443 C444 1.400 . S
C443 C448 1.490 . S
C444 H434 0.930 . S
C444 C443 1.400 . S
C444 C447 1.386 . S
H445 C461 0.930 . S
H446 C462 0.931 . S
C447 H435 0.929 . S
C447 C441 1.390 . S
C447 C444 1.386 . S
C448 C443 1.490 . S
C448 C450 1.395 . S
C448 C451 1.403 . S
H449 C455 0.930 . S
C450 H436 0.930 . S
C450 C448 1.395 . S
C450 C453 1.403 . S
C451 C448 1.403 . S
C451 C452 1.524 . S
C451 C455 1.400 . S
C452 H437 0.960 . S
C452 H438 0.960 . S
C452 H439 0.960 . S
C452 C451 1.524 . S
C453 C450 1.403 . S
C453 C454 1.392 . S
C453 C457 1.495 . S
C454 C453 1.392 . S
C454 C455 1.385 . S
C454 C456 1.478 . S
C455 H449 0.930 . S
C455 C451 1.400 . S
C455 C454 1.385 . S
C456 C454 1.478 . S
C456 C458 1.381 . S
C456 C462 1.383 . S
C457 C453 1.495 . S
C457 H463 0.959 . S
C457 H464 0.961 . S
C457 H465 0.960 . S
C458 C456 1.381 . S
C458 C459 1.394 . S
C458 H466 0.930 . S
C459 C458 1.394 . S
C459 C460 1.383 . S
C459 H467 0.929 . S
C460 C459 1.383 . S
C460 C461 1.377 . S
C461 H445 0.930 . S
C461 C460 1.377 . S
C461 C462 1.379 . S
C462 H446 0.931 . S
C462 C456 1.383 . S
C462 C461 1.379 . S
H463 C457 0.959 . S
H464 C457 0.961 . S
H465 C457 0.960 . S
H466 C458 0.930 . S
H467 C459 0.929 . S
H468 C476 0.929 . S
H469 C478 0.930 . S
H470 C480 0.930 . S
H471 C483 0.929 . S
H472 C486 0.930 . S
H473 C488 0.960 . S
H474 C488 0.960 . S
H475 C488 0.960 . S
C476 H468 0.929 . S
C476 C477 1.377 . S
C476 C478 1.384 . S
C477 C476 1.377 . S
C477 C483 1.390 . S
C478 H469 0.930 . S
C478 C476 1.384 . S
C478 C479 1.372 . S
C479 C478 1.372 . S
C479 C480 1.400 . S
C479 C484 1.490 . S
C480 H470 0.930 . S
C480 C479 1.400 . S
C480 C483 1.386 . S
H481 C497 0.930 . S
H482 C498 0.931 . S
C483 H471 0.929 . S
C483 C477 1.390 . S
C483 C480 1.386 . S
C484 C479 1.490 . S
C484 C486 1.395 . S
C484 C487 1.403 . S
H485 C491 0.930 . S
C486 H472 0.930 . S
C486 C484 1.395 . S
C486 C489 1.403 . S
C487 C484 1.403 . S
C487 C488 1.524 . S
C487 C491 1.400 . S
C488 H473 0.960 . S
C488 H474 0.960 . S
C488 H475 0.960 . S
C488 C487 1.524 . S
C489 C486 1.403 . S
C489 C490 1.392 . S
C489 C493 1.495 . S
C490 C489 1.392 . S
C490 C491 1.385 . S
C490 C492 1.478 . S
C491 H485 0.930 . S
C491 C487 1.400 . S
C491 C490 1.385 . S
C492 C490 1.478 . S
C492 C494 1.381 . S
C492 C498 1.383 . S
C493 C489 1.495 . S
C493 H499 0.959 . S
C493 H500 0.961 . S
C493 H501 0.960 . S
C494 C492 1.381 . S
C494 C495 1.394 1_556 S
C494 H502 0.930 . S
C495 C494 1.394 1_554 S
C495 C496 1.383 . S
C495 H503 0.929 . S
C496 C495 1.383 . S
C496 C497 1.377 . S
C497 H481 0.930 . S
C497 C496 1.377 . S
C497 C498 1.379 1_554 S
C498 H482 0.931 . S
C498 C492 1.383 . S
C498 C497 1.379 1_556 S
H499 C493 0.959 . S
H500 C493 0.961 . S
H501 C493 0.960 . S
H502 C494 0.930 . S
H503 C495 0.929 . S
H504 C512 0.929 . S
H505 C514 0.930 . S
H506 C516 0.930 . S
H507 C519 0.929 . S
H508 C522 0.930 . S
H509 C524 0.960 . S
H510 C524 0.960 . S
H511 C524 0.960 . S
C512 H504 0.929 . S
C512 C513 1.377 . S
C512 C514 1.384 . S
C513 C512 1.377 . S
C513 C519 1.390 . S
C514 H505 0.930 . S
C514 C512 1.384 . S
C514 C515 1.372 . S
C515 C514 1.372 . S
C515 C516 1.400 . S
C515 C520 1.490 . S
C516 H506 0.930 . S
C516 C515 1.400 . S
C516 C519 1.386 . S
H517 C533 0.930 . S
H518 C534 0.931 . S
C519 H507 0.929 . S
C519 C513 1.390 . S
C519 C516 1.386 . S
C520 C515 1.490 . S
C520 C522 1.395 . S
C520 C523 1.403 . S
H521 C527 0.930 . S
C522 H508 0.930 . S
C522 C520 1.395 . S
C522 C525 1.403 . S
C523 C520 1.403 . S
C523 C524 1.524 . S
C523 C527 1.400 . S
C524 H509 0.960 . S
C524 H510 0.960 . S
C524 H511 0.960 . S
C524 C523 1.524 . S
C525 C522 1.403 . S
C525 C526 1.392 . S
C525 C529 1.495 . S
C526 C525 1.392 . S
C526 C527 1.385 . S
C526 C528 1.478 . S
C527 H521 0.930 . S
C527 C523 1.400 . S
C527 C526 1.385 . S
C528 C526 1.478 . S
C528 C530 1.381 . S
C528 C534 1.383 . S
C529 C525 1.495 . S
C529 H535 0.959 . S
C529 H536 0.961 . S
C529 H537 0.960 . S
C530 C528 1.381 . S
C530 C531 1.394 . S
C530 H538 0.930 . S
C531 C530 1.394 . S
C531 C532 1.383 1_556 S
C531 H539 0.929 1_556 S
C532 C531 1.383 1_554 S
C532 C533 1.377 1_554 S
C533 H517 0.930 . S
C533 C532 1.377 1_556 S
C533 C534 1.379 . S
C534 H518 0.931 . S
C534 C528 1.383 . S
C534 C533 1.379 . S
H535 C529 0.959 . S
H536 C529 0.961 . S
H537 C529 0.960 . S
H538 C530 0.930 . S
H539 C531 0.929 1_554 S
H540 C548 0.929 . S
H541 C550 0.930 . S
H542 C552 0.930 . S
H543 C555 0.929 . S
H544 C558 0.930 . S
H545 C560 0.960 . S
H546 C560 0.960 . S
H547 C560 0.960 . S
C548 H540 0.929 . S
C548 C549 1.377 . S
C548 C550 1.384 . S
C549 C548 1.377 . S
C549 C555 1.390 . S
C550 H541 0.930 . S
C550 C548 1.384 . S
C550 C551 1.372 . S
C551 C550 1.372 . S
C551 C552 1.400 . S
C551 C556 1.490 . S
C552 H542 0.930 . S
C552 C551 1.400 . S
C552 C555 1.386 . S
H553 C569 0.930 . S
H554 C570 0.931 . S
C555 H543 0.929 . S
C555 C549 1.390 . S
C555 C552 1.386 . S
C556 C551 1.490 . S
C556 C558 1.395 . S
C556 C559 1.403 . S
H557 C563 0.930 . S
C558 H544 0.930 . S
C558 C556 1.395 . S
C558 C561 1.403 . S
C559 C556 1.403 . S
C559 C560 1.524 . S
C559 C563 1.400 . S
C560 H545 0.960 . S
C560 H546 0.960 . S
C560 H547 0.960 . S
C560 C559 1.524 . S
C561 C558 1.403 . S
C561 C562 1.392 . S
C561 C565 1.495 . S
C562 C561 1.392 . S
C562 C563 1.385 . S
C562 C564 1.478 . S
C563 H557 0.930 . S
C563 C559 1.400 . S
C563 C562 1.385 . S
C564 C562 1.478 . S
C564 C566 1.381 . S
C564 C570 1.383 . S
C565 C561 1.495 . S
C565 H571 0.959 . S
C565 H572 0.961 . S
C565 H573 0.960 . S
C566 C564 1.381 . S
C566 C567 1.394 . S
C566 H574 0.930 . S
C567 C566 1.394 . S
C567 C568 1.383 . S
C567 H575 0.929 . S
C568 C567 1.383 . S
C568 C569 1.377 . S
C569 H553 0.930 . S
C569 C568 1.377 . S
C569 C570 1.379 . S
C570 H554 0.931 . S
C570 C564 1.383 . S
C570 C569 1.379 . S
H571 C565 0.959 . S
H572 C565 0.961 . S
H573 C565 0.960 . S
H574 C566 0.930 . S
H575 C567 0.929 . S
H576 C584 0.929 . S
H577 C586 0.930 . S
H578 C588 0.930 . S
H579 C591 0.929 . S
H580 C594 0.930 . S
H581 C596 0.960 . S
H582 C596 0.960 . S
H583 C596 0.960 . S
C584 H576 0.929 . S
C584 C585 1.377 . S
C584 C586 1.384 . S
C585 C584 1.377 . S
C585 C591 1.390 . S
C586 H577 0.930 . S
C586 C584 1.384 . S
C586 C587 1.372 . S
C587 C586 1.372 . S
C587 C588 1.400 . S
C587 C592 1.490 . S
C588 H578 0.930 . S
C588 C587 1.400 . S
C588 C591 1.386 . S
H589 C605 0.921 1_556 S
H590 C606 0.931 . S
C591 H579 0.929 . S
C591 C585 1.390 . S
C591 C588 1.386 . S
C592 C587 1.490 . S
C592 C594 1.395 . S
C592 C595 1.403 . S
H593 C599 0.930 . S
C594 H580 0.930 . S
C594 C592 1.395 . S
C594 C597 1.403 . S
C595 C592 1.403 . S
C595 C596 1.524 . S
C595 C599 1.400 . S
C596 H581 0.960 . S
C596 H582 0.960 . S
C596 H583 0.960 . S
C596 C595 1.524 . S
C597 C594 1.403 . S
C597 C598 1.392 . S
C597 C601 1.495 . S
C598 C597 1.392 . S
C598 C599 1.385 . S
C598 C600 1.478 . S
C599 H593 0.930 . S
C599 C595 1.400 . S
C599 C598 1.385 . S
C600 C598 1.478 . S
C600 C602 1.381 . S
C600 C606 1.383 . S
C601 C597 1.495 . S
C601 H607 0.959 . S
C601 H608 0.961 . S
C601 H609 0.960 . S
C602 C600 1.381 . S
C602 C603 1.394 1_554 S
C602 H610 0.930 . S
C603 C602 1.394 1_556 S
C603 C604 1.383 . S
C603 H611 0.929 . S
C604 C603 1.383 . S
C604 C605 1.367 1_556 S
C605 H589 0.921 1_554 S
C605 C604 1.367 1_554 S
C605 C606 1.397 . S
C606 H590 0.931 . S
C606 C600 1.383 . S
C606 C605 1.397 . S
H607 C601 0.959 . S
H608 C601 0.961 . S
H609 C601 0.960 . S
H610 C602 0.930 . S
H611 C603 0.929 . S
H612 C620 0.929 . S
H613 C622 0.930 . S
H614 C624 0.930 . S
H615 C627 0.929 . S
H616 C630 0.930 . S
H617 C632 0.960 . S
H618 C632 0.960 . S
H619 C632 0.960 . S
C620 H612 0.929 . S
C620 C621 1.377 . S
C620 C622 1.384 . S
C621 C620 1.377 . S
C621 C627 1.390 . S
C622 H613 0.930 . S
C622 C620 1.384 . S
C622 C623 1.372 . S
C623 C622 1.372 . S
C623 C624 1.400 . S
C623 C628 1.490 . S
C624 H614 0.930 . S
C624 C623 1.400 . S
C624 C627 1.386 . S
H625 C641 0.930 . S
H626 C642 0.931 . S
C627 H615 0.929 . S
C627 C621 1.390 . S
C627 C624 1.386 . S
C628 C623 1.490 . S
C628 C630 1.395 . S
C628 C631 1.403 . S
H629 C635 0.930 . S
C630 H616 0.930 . S
C630 C628 1.395 . S
C630 C633 1.403 . S
C631 C628 1.403 . S
C631 C632 1.524 . S
C631 C635 1.400 . S
C632 H617 0.960 . S
C632 H618 0.960 . S
C632 H619 0.960 . S
C632 C631 1.524 . S
C633 C630 1.403 . S
C633 C634 1.392 . S
C633 C637 1.495 . S
C634 C633 1.392 . S
C634 C635 1.385 . S
C634 C636 1.478 . S
C635 H629 0.930 . S
C635 C631 1.400 . S
C635 C634 1.385 . S
C636 C634 1.478 . S
C636 C638 1.381 . S
C636 C642 1.383 . S
C637 C633 1.495 . S
C637 H643 0.959 . S
C637 H644 0.961 . S
C637 H645 0.960 . S
C638 C636 1.381 . S
C638 C639 1.394 1_554 S
C638 H646 0.930 . S
C639 C638 1.394 1_556 S
C639 C640 1.383 . S
C639 H647 0.929 . S
C640 C639 1.383 . S
C640 C641 1.377 . S
C641 H625 0.930 . S
C641 C640 1.377 . S
C641 C642 1.379 1_556 S
C642 H626 0.931 . S
C642 C636 1.383 . S
C642 C641 1.379 1_554 S
H643 C637 0.959 . S
H644 C637 0.961 . S
H645 C637 0.960 . S
H646 C638 0.930 . S
H647 C639 0.929 . S
H648 C656 0.929 . S
H649 C658 0.930 . S
H650 C660 0.930 . S
H651 C663 0.929 . S
H652 C666 0.930 . S
H653 C668 0.960 . S
H654 C668 0.960 . S
H655 C668 0.960 . S
C656 H648 0.929 . S
C656 C657 1.377 . S
C656 C658 1.384 . S
C657 C656 1.377 . S
C657 C663 1.390 . S
C658 H649 0.930 . S
C658 C656 1.384 . S
C658 C659 1.372 . S
C659 C658 1.372 . S
C659 C660 1.400 . S
C659 C664 1.490 . S
C660 H650 0.930 . S
C660 C659 1.400 . S
C660 C663 1.386 . S
H661 C677 0.930 1_556 S
H662 C678 0.931 . S
C663 H651 0.929 . S
C663 C657 1.390 . S
C663 C660 1.386 . S
C664 C659 1.490 . S
C664 C666 1.395 . S
C664 C667 1.403 . S
H665 C671 0.930 . S
C666 H652 0.930 . S
C666 C664 1.395 . S
C666 C669 1.403 . S
C667 C664 1.403 . S
C667 C668 1.524 . S
C667 C671 1.400 . S
C668 H653 0.960 . S
C668 H654 0.960 . S
C668 H655 0.960 . S
C668 C667 1.524 . S
C669 C666 1.403 . S
C669 C670 1.392 . S
C669 C673 1.495 . S
C670 C669 1.392 . S
C670 C671 1.385 . S
C670 C672 1.478 . S
C671 H665 0.930 . S
C671 C667 1.400 . S
C671 C670 1.385 . S
C672 C670 1.478 . S
C672 C674 1.381 . S
C672 C678 1.383 . S
C673 C669 1.495 . S
C673 H679 0.959 . S
C673 H680 0.961 . S
C673 H681 0.960 . S
C674 C672 1.381 . S
C674 C675 1.394 . S
C674 H682 0.930 . S
C675 C674 1.394 . S
C675 C676 1.383 1_554 S
C675 H683 0.929 1_554 S
C676 C675 1.383 1_556 S
C676 C677 1.377 1_556 S
C677 H661 0.930 1_554 S
C677 C676 1.377 1_554 S
C677 C678 1.379 . S
C678 H662 0.931 . S
C678 C672 1.383 . S
C678 C677 1.379 . S
H679 C673 0.959 . S
H680 C673 0.961 . S
H681 C673 0.960 . S
H682 C674 0.930 . S
H683 C675 0.929 1_556 S
H684 C692 0.929 . S
H685 C694 0.930 . S
H686 C696 0.930 . S
H687 C699 0.929 . S
H688 C702 0.930 . S
H689 C704 0.960 . S
H690 C704 0.960 . S
H691 C704 0.960 . S
C692 H684 0.929 . S
C692 C693 1.377 . S
C692 C694 1.384 . S
C693 C692 1.377 . S
C693 C699 1.390 . S
C694 H685 0.930 . S
C694 C692 1.384 . S
C694 C695 1.372 . S
C695 C694 1.372 . S
C695 C696 1.400 . S
C695 C700 1.490 . S
C696 H686 0.930 . S
C696 C695 1.400 . S
C696 C699 1.386 . S
H697 C713 0.930 . S
H698 C714 0.931 . S
C699 H687 0.929 . S
C699 C693 1.390 . S
C699 C696 1.386 . S
C700 C695 1.490 . S
C700 C702 1.395 . S
C700 C703 1.403 . S
H701 C707 0.930 . S
C702 H688 0.930 . S
C702 C700 1.395 . S
C702 C705 1.403 . S
C703 C700 1.403 . S
C703 C704 1.524 . S
C703 C707 1.400 . S
C704 H689 0.960 . S
C704 H690 0.960 . S
C704 H691 0.960 . S
C704 C703 1.524 . S
C705 C702 1.403 . S
C705 C706 1.392 . S
C705 C709 1.495 . S
C706 C705 1.392 . S
C706 C707 1.385 . S
C706 C708 1.478 . S
C707 H701 0.930 . S
C707 C703 1.400 . S
C707 C706 1.385 . S
C708 C706 1.478 . S
C708 C710 1.381 . S
C708 C714 1.383 . S
C709 C705 1.495 . S
C709 H715 0.959 . S
C709 H716 0.961 . S
C709 H717 0.960 . S
C710 C708 1.381 . S
C710 C711 1.394 . S
C710 H718 0.930 . S
C711 C710 1.394 . S
C711 C712 1.383 . S
C711 H719 0.929 . S
C712 C711 1.383 . S
C712 C713 1.377 . S
C713 H697 0.930 . S
C713 C712 1.377 . S
C713 C714 1.379 . S
C714 H698 0.931 . S
C714 C708 1.383 . S
C714 C713 1.379 . S
H715 C709 0.959 . S
H716 C709 0.961 . S
H717 C709 0.960 . S
H718 C710 0.930 . S
H719 C711 0.929 . S
H720 C728 0.929 . S
H721 C730 0.930 . S
H722 C732 0.930 . S
H723 C735 0.929 . S
H724 C738 0.930 . S
H725 C740 0.960 . S
H726 C740 0.960 . S
H727 C740 0.960 . S
C728 H720 0.929 . S
C728 C729 1.377 . S
C728 C730 1.384 . S
C729 C728 1.377 . S
C729 C735 1.390 . S
C730 H721 0.930 . S
C730 C728 1.384 . S
C730 C731 1.372 . S
C731 C730 1.372 . S
C731 C732 1.400 . S
C731 C736 1.490 . S
C732 H722 0.930 . S
C732 C731 1.400 . S
C732 C735 1.386 . S
H733 C749 0.930 . S
H734 C750 0.931 . S
C735 H723 0.929 . S
C735 C729 1.390 . S
C735 C732 1.386 . S
C736 C731 1.490 . S
C736 C738 1.395 . S
C736 C739 1.403 . S
H737 C743 0.930 . S
C738 H724 0.930 . S
C738 C736 1.395 . S
C738 C741 1.403 . S
C739 C736 1.403 . S
C739 C740 1.524 . S
C739 C743 1.400 . S
C740 H725 0.960 . S
C740 H726 0.960 . S
C740 H727 0.960 . S
C740 C739 1.524 . S
C741 C738 1.403 . S
C741 C742 1.392 . S
C741 C745 1.495 . S
C742 C741 1.392 . S
C742 C743 1.385 . S
C742 C744 1.478 . S
C743 H737 0.930 . S
C743 C739 1.400 . S
C743 C742 1.385 . S
C744 C742 1.478 . S
C744 C746 1.381 . S
C744 C750 1.383 . S
C745 C741 1.495 . S
C745 H751 0.959 . S
C745 H752 0.961 . S
C745 H753 0.960 . S
C746 C744 1.381 . S
C746 C747 1.394 . S
C746 H754 0.930 . S
C747 C746 1.394 . S
C747 C748 1.383 . S
C747 H755 0.929 . S
C748 C747 1.383 . S
C748 C749 1.377 . S
C749 H733 0.930 . S
C749 C748 1.377 . S
C749 C750 1.379 . S
C750 H734 0.931 . S
C750 C744 1.383 . S
C750 C749 1.379 . S
H751 C745 0.959 . S
H752 C745 0.961 . S
H753 C745 0.960 . S
H754 C746 0.930 . S
H755 C747 0.929 . S
H756 C764 0.929 . S
H757 C766 0.930 . S
H758 C768 0.930 . S
H759 C771 0.929 . S
H760 C774 0.930 1_545 S
H761 C776 0.960 . S
H762 C776 0.960 . S
H763 C776 0.960 . S
C764 H756 0.929 . S
C764 C765 1.377 . S
C764 C766 1.384 . S
C765 C764 1.377 . S
C765 C771 1.390 . S
C766 H757 0.930 . S
C766 C764 1.384 . S
C766 C767 1.372 1_545 S
C767 C766 1.372 1_565 S
C767 C768 1.400 . S
C767 C772 1.490 . S
C768 H758 0.930 . S
C768 C767 1.400 . S
C768 C771 1.386 1_565 S
H769 C785 0.930 . S
H770 C786 0.931 . S
C771 H759 0.929 . S
C771 C765 1.390 . S
C771 C768 1.386 1_545 S
C772 C767 1.490 . S
C772 C774 1.395 . S
C772 C775 1.403 . S
H773 C779 0.930 . S
C774 H760 0.930 1_565 S
C774 C772 1.395 . S
C774 C777 1.403 . S
C775 C772 1.403 . S
C775 C776 1.524 . S
C775 C779 1.400 . S
C776 H761 0.960 . S
C776 H762 0.960 . S
C776 H763 0.960 . S
C776 C775 1.524 . S
C777 C774 1.403 . S
C777 C778 1.392 . S
C777 C781 1.495 1_565 S
C778 C777 1.392 . S
C778 C779 1.385 . S
C778 C780 1.478 . S
C779 H773 0.930 . S
C779 C775 1.400 . S
C779 C778 1.385 . S
C780 C778 1.478 . S
C780 C782 1.381 . S
C780 C786 1.383 . S
C781 C777 1.495 1_545 S
C781 H787 0.959 . S
C781 H788 0.961 1_545 S
C781 H789 0.960 . S
C782 C780 1.381 . S
C782 C783 1.394 . S
C782 H790 0.930 . S
C783 C782 1.394 . S
C783 C784 1.383 . S
C783 H791 0.929 . S
C784 C783 1.383 . S
C784 C785 1.377 . S
C785 H769 0.930 . S
C785 C784 1.377 . S
C785 C786 1.379 . S
C786 H770 0.931 . S
C786 C780 1.383 . S
C786 C785 1.379 . S
H787 C781 0.959 . S
H788 C781 0.961 1_565 S
H789 C781 0.960 . S
H790 C782 0.930 . S
H791 C783 0.929 . S
H792 C800 0.929 . S
H793 C802 0.930 1_556 S
H794 C804 0.930 . S
H795 C807 0.929 . S
H796 C810 0.930 . S
H797 C812 0.960 . S
H798 C812 0.960 . S
H799 C812 0.960 . S
C800 H792 0.929 . S
C800 C801 1.377 . S
C800 C802 1.384 . S
C801 C800 1.377 . S
C801 C807 1.390 . S
C802 H793 0.930 1_554 S
C802 C800 1.384 . S
C802 C803 1.372 . S
C803 C802 1.372 . S
C803 C804 1.400 . S
C803 C808 1.490 1_554 S
C804 H794 0.930 . S
C804 C803 1.400 . S
C804 C807 1.386 . S
H805 C821 0.930 . S
H806 C822 0.931 . S
C807 H795 0.929 . S
C807 C801 1.390 . S
C807 C804 1.386 . S
C808 C803 1.490 1_556 S
C808 C810 1.395 . S
C808 C811 1.403 . S
H809 C815 0.930 . S
C810 H796 0.930 . S
C810 C808 1.395 . S
C810 C813 1.403 . S
C811 C808 1.403 . S
C811 C812 1.524 1_556 S
C811 C815 1.400 . S
C812 H797 0.960 . S
C812 H798 0.960 . S
C812 H799 0.960 . S
C812 C811 1.524 1_554 S
C813 C810 1.403 . S
C813 C814 1.392 . S
C813 C817 1.495 . S
C814 C813 1.392 . S
C814 C815 1.385 . S
C814 C816 1.478 . S
C815 H809 0.930 . S
C815 C811 1.400 . S
C815 C814 1.385 . S
C816 C814 1.478 . S
C816 C818 1.381 . S
C816 C822 1.383 . S
C817 C813 1.495 . S
C817 H823 0.959 . S
C817 H824 0.961 . S
C817 H825 0.960 . S
C818 C816 1.381 . S
C818 C819 1.394 . S
C818 H826 0.930 . S
C819 C818 1.394 . S
C819 C820 1.383 . S
C819 H827 0.929 . S
C820 C819 1.383 . S
C820 C821 1.377 . S
C821 H805 0.930 . S
C821 C820 1.377 . S
C821 C822 1.379 . S
C822 H806 0.931 . S
C822 C816 1.383 . S
C822 C821 1.379 . S
H823 C817 0.959 . S
H824 C817 0.961 . S
H825 C817 0.960 . S
H826 C818 0.930 . S
H827 C819 0.929 . S
H828 C836 0.929 . S
H829 C838 0.930 . S
H830 C840 0.930 . S
H831 C843 0.929 . S
H832 C846 0.930 . S
H833 C848 0.960 . S
H834 C848 0.960 . S
H835 C848 0.960 . S
C836 H828 0.929 . S
C836 C837 1.377 . S
C836 C838 1.384 . S
C837 C836 1.377 . S
C837 C843 1.390 . S
C838 H829 0.930 . S
C838 C836 1.384 . S
C838 C839 1.372 . S
C839 C838 1.372 . S
C839 C840 1.400 . S
C839 C844 1.490 . S
C840 H830 0.930 . S
C840 C839 1.400 . S
C840 C843 1.386 . S
H841 C857 0.930 . S
H842 C858 0.931 . S
C843 H831 0.929 . S
C843 C837 1.390 . S
C843 C840 1.386 . S
C844 C839 1.490 . S
C844 C846 1.395 . S
C844 C847 1.403 . S
H845 C851 0.930 . S
C846 H832 0.930 . S
C846 C844 1.395 . S
C846 C849 1.403 . S
C847 C844 1.403 . S
C847 C848 1.524 . S
C847 C851 1.400 . S
C848 H833 0.960 . S
C848 H834 0.960 . S
C848 H835 0.960 . S
C848 C847 1.524 . S
C849 C846 1.403 . S
C849 C850 1.392 . S
C849 C853 1.495 . S
C850 C849 1.392 . S
C850 C851 1.385 . S
C850 C852 1.478 . S
C851 H845 0.930 . S
C851 C847 1.400 . S
C851 C850 1.385 . S
C852 C850 1.478 . S
C852 C854 1.381 . S
C852 C858 1.383 1_655 S
C853 C849 1.495 . S
C853 H859 0.959 . S
C853 H860 0.961 1_556 S
C853 H861 0.960 . S
C854 C852 1.381 . S
C854 C855 1.394 . S
C854 H862 0.930 . S
C855 C854 1.394 . S
C855 C856 1.383 1_656 S
C855 H863 0.929 . S
C856 C855 1.383 1_454 S
C856 C857 1.377 . S
C857 H841 0.930 . S
C857 C856 1.377 . S
C857 C858 1.379 1_554 S
C858 H842 0.931 . S
C858 C852 1.383 1_455 S
C858 C857 1.379 1_556 S
H859 C853 0.959 . S
H860 C853 0.961 1_554 S
H861 C853 0.960 . S
H862 C854 0.930 . S
H863 C855 0.929 . S
H864 C872 0.929 . S
H865 C874 0.930 . S
H866 C876 0.930 . S
H867 C879 0.929 . S
H868 C882 0.930 . S
H869 C884 0.960 . S
H870 C884 0.960 . S
H871 C884 0.960 . S
C872 H864 0.929 . S
C872 C873 1.377 . S
C872 C874 1.384 . S
C873 C872 1.377 . S
C873 C879 1.390 . S
C874 H865 0.930 . S
C874 C872 1.384 . S
C874 C875 1.372 . S
C875 C874 1.372 . S
C875 C876 1.400 . S
C875 C880 1.490 . S
C876 H866 0.930 . S
C876 C875 1.400 . S
C876 C879 1.386 . S
H877 C893 0.930 . S
H878 C894 0.931 . S
C879 H867 0.929 . S
C879 C873 1.390 . S
C879 C876 1.386 . S
C880 C875 1.490 . S
C880 C882 1.395 . S
C880 C883 1.403 . S
H881 C887 0.930 . S
C882 H868 0.930 . S
C882 C880 1.395 . S
C882 C885 1.403 . S
C883 C880 1.403 . S
C883 C884 1.524 . S
C883 C887 1.400 . S
C884 H869 0.960 . S
C884 H870 0.960 . S
C884 H871 0.960 . S
C884 C883 1.524 . S
C885 C882 1.403 . S
C885 C886 1.392 . S
C885 C889 1.495 1_556 S
C886 C885 1.392 . S
C886 C887 1.385 . S
C886 C888 1.489 . S
C887 H881 0.930 . S
C887 C883 1.400 . S
C887 C886 1.385 . S
C888 C886 1.489 . S
C888 C890 1.375 1_556 S
C888 C894 1.378 1_556 S
C889 C885 1.495 1_554 S
C889 H895 0.959 . S
C889 H896 0.961 . S
C889 H897 0.960 . S
C890 C888 1.375 1_554 S
C890 C891 1.394 . S
C890 H898 0.930 . S
C891 C890 1.394 . S
C891 C892 1.383 . S
C891 H899 0.929 . S
C892 C891 1.383 . S
C892 C893 1.377 . S
C893 H877 0.930 . S
C893 C892 1.377 . S
C893 C894 1.379 . S
C894 H878 0.931 . S
C894 C888 1.378 1_554 S
C894 C893 1.379 . S
H895 C889 0.959 . S
H896 C889 0.961 . S
H897 C889 0.960 . S
H898 C890 0.930 . S
H899 C891 0.929 . S
H900 C908 0.929 . S
H901 C910 0.930 . S
H902 C912 0.930 . S
H903 C915 0.929 . S
H904 C918 0.930 . S
H905 C920 0.960 . S
H906 C920 0.960 . S
H907 C920 0.960 . S
C908 H900 0.929 . S
C908 C909 1.377 . S
C908 C910 1.384 . S
C909 C908 1.377 . S
C909 C915 1.390 . S
C910 H901 0.930 . S
C910 C908 1.384 . S
C910 C911 1.372 . S
C911 C910 1.372 . S
C911 C912 1.400 . S
C911 C916 1.490 . S
C912 H902 0.930 . S
C912 C911 1.400 . S
C912 C915 1.386 . S
H913 C929 0.930 . S
H914 C930 0.931 . S
C915 H903 0.929 . S
C915 C909 1.390 . S
C915 C912 1.386 . S
C916 C911 1.490 . S
C916 C918 1.395 . S
C916 C919 1.403 . S
H917 C923 0.930 . S
C918 H904 0.930 . S
C918 C916 1.395 . S
C918 C921 1.403 . S
C919 C916 1.403 . S
C919 C920 1.524 . S
C919 C923 1.400 . S
C920 H905 0.960 . S
C920 H906 0.960 . S
C920 H907 0.960 . S
C920 C919 1.524 . S
C921 C918 1.403 . S
C921 C922 1.392 . S
C921 C925 1.495 . S
C922 C921 1.392 . S
C922 C923 1.385 . S
C922 C924 1.478 . S
C923 H917 0.930 . S
C923 C919 1.400 . S
C923 C922 1.385 . S
C924 C922 1.478 . S
C924 C926 1.381 . S
C924 C930 1.383 . S
C925 C921 1.495 . S
C925 H931 0.959 . S
C925 H932 0.961 . S
C925 H933 0.960 . S
C926 C924 1.381 . S
C926 C927 1.394 . S
C926 H934 0.930 . S
C927 C926 1.394 . S
C927 C928 1.383 . S
C927 H935 0.929 . S
C928 C927 1.383 . S
C928 C929 1.377 1_556 S
C929 H913 0.930 . S
C929 C928 1.377 1_554 S
C929 C930 1.379 1_554 S
C930 H914 0.931 . S
C930 C924 1.383 . S
C930 C929 1.379 1_556 S
H931 C925 0.959 . S
H932 C925 0.961 . S
H933 C925 0.960 . S
H934 C926 0.930 . S
H935 C927 0.929 . S
H936 C944 0.929 . S
H937 C946 0.930 . S
H938 C948 0.930 . S
H939 C951 0.929 . S
H940 C954 0.930 . S
H941 C956 0.960 . S
H942 C956 0.960 . S
H943 C956 0.960 . S
C944 H936 0.929 . S
C944 C945 1.377 1_556 S
C944 C946 1.384 . S
C945 C944 1.377 1_554 S
C945 C951 1.390 . S
C946 H937 0.930 . S
C946 C944 1.384 . S
C946 C947 1.372 . S
C947 C946 1.372 . S
C947 C948 1.400 1_556 S
C947 C952 1.490 . S
C948 H938 0.930 . S
C948 C947 1.400 1_554 S
C948 C951 1.386 . S
H949 C965 0.930 . S
H950 C966 0.931 . S
C951 H939 0.929 . S
C951 C945 1.390 . S
C951 C948 1.386 . S
C952 C947 1.490 . S
C952 C954 1.395 . S
C952 C955 1.403 . S
H953 C959 0.930 . S
C954 H940 0.930 . S
C954 C952 1.395 . S
C954 C957 1.403 . S
C955 C952 1.403 . S
C955 C956 1.524 . S
C955 C959 1.400 . S
C956 H941 0.960 . S
C956 H942 0.960 . S
C956 H943 0.960 . S
C956 C955 1.524 . S
C957 C954 1.403 . S
C957 C958 1.392 . S
C957 C961 1.495 . S
C958 C957 1.392 . S
C958 C959 1.385 . S
C958 C960 1.478 . S
C959 H953 0.930 . S
C959 C955 1.400 . S
C959 C958 1.385 . S
C960 C958 1.478 . S
C960 C962 1.381 . S
C960 C966 1.383 . S
C961 C957 1.495 . S
C961 H967 0.959 . S
C961 H968 0.961 . S
C961 H969 0.960 . S
C962 C960 1.381 . S
C962 C963 1.394 . S
C962 H970 0.930 . S
C963 C962 1.394 . S
C963 C964 1.383 . S
C963 H971 0.929 . S
C964 C963 1.383 . S
C964 C965 1.377 . S
C965 H949 0.930 . S
C965 C964 1.377 . S
C965 C966 1.379 . S
C966 H950 0.931 . S
C966 C960 1.383 . S
C966 C965 1.379 . S
H967 C961 0.959 . S
H968 C961 0.961 . S
H969 C961 0.960 . S
H970 C962 0.930 . S
H971 C963 0.929 . S
H972 C980 0.929 . S
H973 C982 0.930 . S
H974 C984 0.930 . S
H975 C987 0.929 . S
H976 C990 0.930 . S
H977 C992 0.960 1_554 S
H978 C992 0.960 . S
H979 C992 0.960 . S
C980 H972 0.929 . S
C980 C981 1.377 . S
C980 C982 1.384 . S
C981 C980 1.377 . S
C981 C987 1.390 . S
C982 H973 0.930 . S
C982 C980 1.384 . S
C982 C983 1.372 . S
C983 C982 1.372 . S
C983 C984 1.400 . S
C983 C988 1.490 . S
C984 H974 0.930 . S
C984 C983 1.400 . S
C984 C987 1.386 . S
H985 C1001 0.930 . S
H986 C1002 0.931 . S
C987 H975 0.929 . S
C987 C981 1.390 . S
C987 C984 1.386 . S
C988 C983 1.490 . S
C988 C990 1.395 . S
C988 C991 1.403 . S
H989 C995 0.930 1_554 S
C990 H976 0.930 . S
C990 C988 1.395 . S
C990 C993 1.403 . S
C991 C988 1.403 . S
C991 C992 1.524 . S
C991 C995 1.400 . S
C992 H977 0.960 1_556 S
C992 H978 0.960 . S
C992 H979 0.960 . S
C992 C991 1.524 . S
C993 C990 1.403 . S
C993 C994 1.392 . S
C993 C997 1.495 . S
C994 C993 1.392 . S
C994 C995 1.385 . S
C994 C996 1.478 . S
C995 H989 0.930 1_556 S
C995 C991 1.400 . S
C995 C994 1.385 . S
C996 C994 1.478 . S
C996 C998 1.381 1_556 S
C996 C1002 1.383 1_556 S
C997 C993 1.495 . S
C997 H1003 0.959 . S
C997 H1004 0.961 . S
C997 H1005 0.960 . S
C998 C996 1.381 1_554 S
C998 C999 1.394 . S
C998 H1006 0.929 1_554 S
C999 C998 1.394 . S
C999 C1000 1.383 . S
C999 H1007 0.929 . S
C1000 C999 1.383 . S
C1000 C1001 1.377 . S
C1001 H985 0.930 . S
C1001 C1000 1.377 . S
C1001 C1002 1.379 . S
C1002 H986 0.931 . S
C1002 C996 1.383 1_554 S
C1002 C1001 1.379 . S
H1003 C997 0.959 . S
H1004 C997 0.961 . S
H1005 C997 0.960 . S
H1006 C998 0.929 1_556 S
H1007 C999 0.929 . S
H1008 C1016 0.929 . S
H1009 C1018 0.930 . S
H1010 C1020 0.930 . S
H1011 C1023 0.929 . S
H1012 C1026 0.930 . S
H1013 C1028 0.960 . S
H1014 C1028 0.960 . S
H1015 C1028 0.960 . S
C1016 H1008 0.929 . S
C1016 C1017 1.377 . S
C1016 C1018 1.384 . S
C1017 C1016 1.377 . S
C1017 C1023 1.390 . S
C1018 H1009 0.930 . S
C1018 C1016 1.384 . S
C1018 C1019 1.372 . S
C1019 C1018 1.372 . S
C1019 C1020 1.400 . S
C1019 C1024 1.490 . S
C1020 H1010 0.930 . S
C1020 C1019 1.400 . S
C1020 C1023 1.386 . S
H1021 C1037 0.930 . S
H1022 C1038 0.931 . S
C1023 H1011 0.929 . S
C1023 C1017 1.390 . S
C1023 C1020 1.386 . S
C1024 C1019 1.490 . S
C1024 C1026 1.395 1_545 S
C1024 C1027 1.403 . S
H1025 C1031 0.930 . S
C1026 H1012 0.930 . S
C1026 C1024 1.395 1_565 S
C1026 C1029 1.403 . S
C1027 C1024 1.403 . S
C1027 C1028 1.524 . S
C1027 C1031 1.400 . S
C1028 H1013 0.960 . S
C1028 H1014 0.960 . S
C1028 H1015 0.960 . S
C1028 C1027 1.524 . S
C1029 C1026 1.403 . S
C1029 C1030 1.392 . S
C1029 C1033 1.495 . S
C1030 C1029 1.392 . S
C1030 C1031 1.385 1_565 S
C1030 C1032 1.478 . S
C1031 H1025 0.930 . S
C1031 C1027 1.400 . S
C1031 C1030 1.385 1_545 S
C1032 C1030 1.478 . S
C1032 C1034 1.381 . S
C1032 C1038 1.383 . S
C1033 C1029 1.495 . S
C1033 H1039 0.959 . S
C1033 H1040 0.961 . S
C1033 H1041 0.960 . S
C1034 C1032 1.381 . S
C1034 C1035 1.394 . S
C1034 H1042 0.930 . S
C1035 C1034 1.394 . S
C1035 C1036 1.383 . S
C1035 H1043 0.929 . S
C1036 C1035 1.383 . S
C1036 C1037 1.377 . S
C1037 H1021 0.930 . S
C1037 C1036 1.377 . S
C1037 C1038 1.379 . S
C1038 H1022 0.931 . S
C1038 C1032 1.383 . S
C1038 C1037 1.379 . S
H1039 C1033 0.959 . S
H1040 C1033 0.961 . S
H1041 C1033 0.960 . S
H1042 C1034 0.930 . S
H1043 C1035 0.929 . S
H1044 C1052 0.929 . S
H1045 C1054 0.930 . S
H1046 C1056 0.930 . S
H1047 C1059 0.929 . S
H1048 C1062 0.930 . S
H1049 C1064 0.960 . S
H1050 C1064 0.960 . S
H1051 C1064 0.960 . S
C1052 H1044 0.929 . S
C1052 C1053 1.377 . S
C1052 C1054 1.384 . S
C1053 C1052 1.377 . S
C1053 C1059 1.390 . S
C1054 H1045 0.930 . S
C1054 C1052 1.384 . S
C1054 C1055 1.372 . S
C1055 C1054 1.372 . S
C1055 C1056 1.400 . S
C1055 C1060 1.490 . S
C1056 H1046 0.930 . S
C1056 C1055 1.400 . S
C1056 C1059 1.386 . S
H1057 C1073 0.930 . S
H1058 C1074 0.931 . S
C1059 H1047 0.929 . S
C1059 C1053 1.390 . S
C1059 C1056 1.386 . S
C1060 C1055 1.490 . S
C1060 C1062 1.395 . S
C1060 C1063 1.403 . S
H1061 C1067 0.930 . S
C1062 H1048 0.930 . S
C1062 C1060 1.395 . S
C1062 C1065 1.403 . S
C1063 C1060 1.403 . S
C1063 C1064 1.524 . S
C1063 C1067 1.400 . S
C1064 H1049 0.960 . S
C1064 H1050 0.960 . S
C1064 H1051 0.960 . S
C1064 C1063 1.524 . S
C1065 C1062 1.403 . S
C1065 C1066 1.392 . S
C1065 C1069 1.495 . S
C1066 C1065 1.392 . S
C1066 C1067 1.385 . S
C1066 C1068 1.478 . S
C1067 H1061 0.930 . S
C1067 C1063 1.400 . S
C1067 C1066 1.385 . S
C1068 C1066 1.478 . S
C1068 C1070 1.381 . S
C1068 C1074 1.383 . S
C1069 C1065 1.495 . S
C1069 H1075 0.959 . S
C1069 H1076 0.961 . S
C1069 H1077 0.960 . S
C1070 C1068 1.381 . S
C1070 C1071 1.394 . S
C1070 H1078 0.930 . S
C1071 C1070 1.394 . S
C1071 C1072 1.383 . S
C1071 H1079 0.929 . S
C1072 C1071 1.383 . S
C1072 C1073 1.377 . S
C1073 H1057 0.930 . S
C1073 C1072 1.377 . S
C1073 C1074 1.379 . S
C1074 H1058 0.931 . S
C1074 C1068 1.383 . S
C1074 C1073 1.379 . S
H1075 C1069 0.959 . S
H1076 C1069 0.961 . S
H1077 C1069 0.960 . S
H1078 C1070 0.930 . S
H1079 C1071 0.929 . S
H1080 C1088 0.929 . S
H1081 C1090 0.930 . S
H1082 C1092 0.930 . S
H1083 C1095 0.929 . S
H1084 C1098 0.930 . S
H1085 C1100 0.960 . S
H1086 C1100 0.960 . S
H1087 C1100 0.960 . S
C1088 H1080 0.929 . S
C1088 C1089 1.377 . S
C1088 C1090 1.384 . S
C1089 C1088 1.377 . S
C1089 C1095 1.390 . S
C1090 H1081 0.930 . S
C1090 C1088 1.384 . S
C1090 C1091 1.372 . S
C1091 C1090 1.372 . S
C1091 C1092 1.400 . S
C1091 C1096 1.490 . S
C1092 H1082 0.930 . S
C1092 C1091 1.400 . S
C1092 C1095 1.386 . S
H1093 C1109 0.930 . S
H1094 C1110 0.931 . S
C1095 H1083 0.929 . S
C1095 C1089 1.390 . S
C1095 C1092 1.386 . S
C1096 C1091 1.490 . S
C1096 C1098 1.395 . S
C1096 C1099 1.403 . S
H1097 C1103 0.930 . S
C1098 H1084 0.930 . S
C1098 C1096 1.395 . S
C1098 C1101 1.403 . S
C1099 C1096 1.403 . S
C1099 C1100 1.524 . S
C1099 C1103 1.400 . S
C1100 H1085 0.960 . S
C1100 H1086 0.960 . S
C1100 H1087 0.960 . S
C1100 C1099 1.524 . S
C1101 C1098 1.403 . S
C1101 C1102 1.392 . S
C1101 C1105 1.495 . S
C1102 C1101 1.392 . S
C1102 C1103 1.385 . S
C1102 C1104 1.478 . S
C1103 H1097 0.930 . S
C1103 C1099 1.400 . S
C1103 C1102 1.385 . S
C1104 C1102 1.478 . S
C1104 C1106 1.381 . S
C1104 C1110 1.383 . S
C1105 C1101 1.495 . S
C1105 H1111 0.959 . S
C1105 H1112 0.961 . S
C1105 H1113 0.960 . S
C1106 C1104 1.381 . S
C1106 C1107 1.394 . S
C1106 H1114 0.930 . S
C1107 C1106 1.394 . S
C1107 C1108 1.383 . S
C1107 H1115 0.929 . S
C1108 C1107 1.383 . S
C1108 C1109 1.377 . S
C1109 H1093 0.930 . S
C1109 C1108 1.377 . S
C1109 C1110 1.379 . S
C1110 H1094 0.931 . S
C1110 C1104 1.383 . S
C1110 C1109 1.379 . S
H1111 C1105 0.959 . S
H1112 C1105 0.961 . S
H1113 C1105 0.960 . S
H1114 C1106 0.930 . S
H1115 C1107 0.929 . S
H1116 C1124 0.929 . S
H1117 C1126 0.930 . S
H1118 C1128 0.930 . S
H1119 C1131 0.929 . S
H1120 C1134 0.930 . S
H1121 C1136 0.960 . S
H1122 C1136 0.960 . S
H1123 C1136 0.960 . S
C1124 H1116 0.929 . S
C1124 C1125 1.377 . S
C1124 C1126 1.384 . S
C1125 C1124 1.377 . S
C1125 C1131 1.390 . S
C1126 H1117 0.930 . S
C1126 C1124 1.384 . S
C1126 C1127 1.372 . S
C1127 C1126 1.372 . S
C1127 C1128 1.400 . S
C1127 C1132 1.490 . S
C1128 H1118 0.930 . S
C1128 C1127 1.400 . S
C1128 C1131 1.386 . S
H1129 C1145 0.930 . S
H1130 C1146 0.931 . S
C1131 H1119 0.929 . S
C1131 C1125 1.390 . S
C1131 C1128 1.386 . S
C1132 C1127 1.490 . S
C1132 C1134 1.395 . S
C1132 C1135 1.403 . S
H1133 C1139 0.930 . S
C1134 H1120 0.930 . S
C1134 C1132 1.395 . S
C1134 C1137 1.403 . S
C1135 C1132 1.403 . S
C1135 C1136 1.524 . S
C1135 C1139 1.400 . S
C1136 H1121 0.960 . S
C1136 H1122 0.960 . S
C1136 H1123 0.960 . S
C1136 C1135 1.524 . S
C1137 C1134 1.403 . S
C1137 C1138 1.392 . S
C1137 C1141 1.495 . S
C1138 C1137 1.392 . S
C1138 C1139 1.385 . S
C1138 C1140 1.478 . S
C1139 H1133 0.930 . S
C1139 C1135 1.400 . S
C1139 C1138 1.385 . S
C1140 C1138 1.478 . S
C1140 C1142 1.381 . S
C1140 C1146 1.383 . S
C1141 C1137 1.495 . S
C1141 H1147 0.959 . S
C1141 H1148 0.961 . S
C1141 H1149 0.960 . S
C1142 C1140 1.381 . S
C1142 C1143 1.394 . S
C1142 H1150 0.930 . S
C1143 C1142 1.394 . S
C1143 C1144 1.383 . S
C1143 H1151 0.929 . S
C1144 C1143 1.383 . S
C1144 C1145 1.377 . S
C1145 H1129 0.930 . S
C1145 C1144 1.377 . S
C1145 C1146 1.379 . S
C1146 H1130 0.931 . S
C1146 C1140 1.383 . S
C1146 C1145 1.379 . S
H1147 C1141 0.959 . S
H1148 C1141 0.961 . S
H1149 C1141 0.960 . S
H1150 C1142 0.930 . S
H1151 C1143 0.929 . S
H1152 C1160 0.929 . S
H1153 C1162 0.930 . S
H1154 C1164 0.930 . S
H1155 C1167 0.929 . S
H1156 C1170 0.930 . S
H1157 C1172 0.960 . S
H1158 C1172 0.960 . S
H1159 C1172 0.960 . S
C1160 H1152 0.929 . S
C1160 C1161 1.377 . S
C1160 C1162 1.384 . S
C1161 C1160 1.377 . S
C1161 C1167 1.390 . S
C1162 H1153 0.930 . S
C1162 C1160 1.384 . S
C1162 C1163 1.372 . S
C1163 C1162 1.372 . S
C1163 C1164 1.400 . S
C1163 C1168 1.490 . S
C1164 H1154 0.930 . S
C1164 C1163 1.400 . S
C1164 C1167 1.386 . S
H1165 C1181 0.930 . S
H1166 C1182 0.931 . S
C1167 H1155 0.929 . S
C1167 C1161 1.390 . S
C1167 C1164 1.386 . S
C1168 C1163 1.490 . S
C1168 C1170 1.395 . S
C1168 C1171 1.403 . S
H1169 C1175 0.930 . S
C1170 H1156 0.930 . S
C1170 C1168 1.395 . S
C1170 C1173 1.381 1_545 S
C1171 C1168 1.403 . S
C1171 C1172 1.524 . S
C1171 C1175 1.400 1_545 S
C1172 H1157 0.960 . S
C1172 H1158 0.960 . S
C1172 H1159 0.960 . S
C1172 C1171 1.524 . S
C1173 C1170 1.381 1_565 S
C1173 C1174 1.420 . S
C1173 C1177 1.491 . S
C1174 C1173 1.420 . S
C1174 C1175 1.385 . S
C1174 C1176 1.478 . S
C1175 H1169 0.930 . S
C1175 C1171 1.400 1_565 S
C1175 C1174 1.385 . S
C1176 C1174 1.478 . S
C1176 C1178 1.381 . S
C1176 C1182 1.383 . S
C1177 C1173 1.491 . S
C1177 H1183 0.959 1_565 S
C1177 H1184 0.961 . S
C1177 H1185 0.960 . S
C1178 C1176 1.381 . S
C1178 C1179 1.394 . S
C1178 H1186 0.930 . S
C1179 C1178 1.394 . S
C1179 C1180 1.383 . S
C1179 H1187 0.929 . S
C1180 C1179 1.383 . S
C1180 C1181 1.377 . S
C1181 H1165 0.930 . S
C1181 C1180 1.377 . S
C1181 C1182 1.379 . S
C1182 H1166 0.931 . S
C1182 C1176 1.383 . S
C1182 C1181 1.379 . S
H1183 C1177 0.959 1_545 S
H1184 C1177 0.961 . S
H1185 C1177 0.960 . S
H1186 C1178 0.930 . S
H1187 C1179 0.929 . S
H1188 C1196 0.929 . S
H1189 C1198 0.930 . S
H1190 C1200 0.930 . S
H1191 C1203 0.929 . S
H1192 C1206 0.930 . S
H1193 C1208 0.960 . S
H1194 C1208 0.960 . S
H1195 C1208 0.960 . S
C1196 H1188 0.929 . S
C1196 C1197 1.377 . S
C1196 C1198 1.384 . S
C1197 C1196 1.377 . S
C1197 C1203 1.390 . S
C1198 H1189 0.930 . S
C1198 C1196 1.384 . S
C1198 C1199 1.372 . S
C1199 C1198 1.372 . S
C1199 C1200 1.400 . S
C1199 C1204 1.490 . S
C1200 H1190 0.930 . S
C1200 C1199 1.400 . S
C1200 C1203 1.386 . S
H1201 C1217 0.930 . S
H1202 C1218 0.931 . S
C1203 H1191 0.929 . S
C1203 C1197 1.390 . S
C1203 C1200 1.386 . S
C1204 C1199 1.490 . S
C1204 C1206 1.395 . S
C1204 C1207 1.403 1_655 S
H1205 C1211 0.930 . S
C1206 H1192 0.930 . S
C1206 C1204 1.395 . S
C1206 C1209 1.403 . S
C1207 C1204 1.403 1_455 S
C1207 C1208 1.524 . S
C1207 C1211 1.400 . S
C1208 H1193 0.960 . S
C1208 H1194 0.960 . S
C1208 H1195 0.960 . S
C1208 C1207 1.524 . S
C1209 C1206 1.403 . S
C1209 C1210 1.392 1_655 S
C1209 C1213 1.495 . S
C1210 C1209 1.392 1_455 S
C1210 C1211 1.385 . S
C1210 C1212 1.478 . S
C1211 H1205 0.930 . S
C1211 C1207 1.400 . S
C1211 C1210 1.385 . S
C1212 C1210 1.478 . S
C1212 C1214 1.381 . S
C1212 C1218 1.383 . S
C1213 C1209 1.495 . S
C1213 H1219 0.959 . S
C1213 H1220 0.961 . S
C1213 H1221 0.960 . S
C1214 C1212 1.381 . S
C1214 C1215 1.394 . S
C1214 H1222 0.930 . S
C1215 C1214 1.394 . S
C1215 C1216 1.383 . S
C1215 H1223 0.929 . S
C1216 C1215 1.383 . S
C1216 C1217 1.377 . S
C1217 H1201 0.930 . S
C1217 C1216 1.377 . S
C1217 C1218 1.379 . S
C1218 H1202 0.931 . S
C1218 C1212 1.383 . S
C1218 C1217 1.379 . S
H1219 C1213 0.959 . S
H1220 C1213 0.961 . S
H1221 C1213 0.960 . S
H1222 C1214 0.930 . S
H1223 C1215 0.929 . S
H1224 C1232 0.929 . S
H1225 C1234 0.930 . S
H1226 C1236 0.930 . S
H1227 C1239 0.929 . S
H1228 C1242 0.930 . S
H1229 C1244 0.960 . S
H1230 C1244 0.960 . S
H1231 C1244 0.960 . S
C1232 H1224 0.929 . S
C1232 C1233 1.377 . S
C1232 C1234 1.384 . S
C1233 C1232 1.377 . S
C1233 C1239 1.390 . S
C1234 H1225 0.930 . S
C1234 C1232 1.384 . S
C1234 C1235 1.372 . S
C1235 C1234 1.372 . S
C1235 C1236 1.400 . S
C1235 C1240 1.490 . S
C1236 H1226 0.930 . S
C1236 C1235 1.400 . S
C1236 C1239 1.386 . S
H1237 C1253 0.930 . S
H1238 C1254 0.931 . S
C1239 H1227 0.929 . S
C1239 C1233 1.390 . S
C1239 C1236 1.386 . S
C1240 C1235 1.490 . S
C1240 C1242 1.395 . S
C1240 C1243 1.403 . S
H1241 C1247 0.930 . S
C1242 H1228 0.930 . S
C1242 C1240 1.395 . S
C1242 C1245 1.403 . S
C1243 C1240 1.403 . S
C1243 C1244 1.524 . S
C1243 C1247 1.400 . S
C1244 H1229 0.960 . S
C1244 H1230 0.960 . S
C1244 H1231 0.960 . S
C1244 C1243 1.524 . S
C1245 C1242 1.403 . S
C1245 C1246 1.392 . S
C1245 C1249 1.495 . S
C1246 C1245 1.392 . S
C1246 C1247 1.385 . S
C1246 C1248 1.478 . S
C1247 H1241 0.930 . S
C1247 C1243 1.400 . S
C1247 C1246 1.385 . S
C1248 C1246 1.478 . S
C1248 C1250 1.381 . S
C1248 C1254 1.383 . S
C1249 C1245 1.495 . S
C1249 H1255 0.959 . S
C1249 H1256 0.961 . S
C1249 H1257 0.960 . S
C1250 C1248 1.381 . S
C1250 C1251 1.394 . S
C1250 H1258 0.930 . S
C1251 C1250 1.394 . S
C1251 C1252 1.383 . S
C1251 H1259 0.929 . S
C1252 C1251 1.383 . S
C1252 C1253 1.377 . S
C1253 H1237 0.930 . S
C1253 C1252 1.377 . S
C1253 C1254 1.379 . S
C1254 H1238 0.931 . S
C1254 C1248 1.383 . S
C1254 C1253 1.379 . S
H1255 C1249 0.959 . S
H1256 C1249 0.961 . S
H1257 C1249 0.960 . S
H1258 C1250 0.930 . S
H1259 C1251 0.929 . S
H1260 C1268 0.929 . S
H1261 C1270 0.930 . S
H1262 C1272 0.930 . S
H1263 C1275 0.929 . S
H1264 C1278 0.930 . S
H1265 C1280 0.960 . S
H1266 C1280 0.960 . S
H1267 C1280 0.960 . S
C1268 H1260 0.929 . S
C1268 C1269 1.377 . S
C1268 C1270 1.384 . S
C1269 C1268 1.377 . S
C1269 C1275 1.390 . S
C1270 H1261 0.930 . S
C1270 C1268 1.384 . S
C1270 C1271 1.372 . S
C1271 C1270 1.372 . S
C1271 C1272 1.400 . S
C1271 C1276 1.490 . S
C1272 H1262 0.930 . S
C1272 C1271 1.400 . S
C1272 C1275 1.386 . S
H1273 C1289 0.930 . S
H1274 C1290 0.931 . S
C1275 H1263 0.929 . S
C1275 C1269 1.390 . S
C1275 C1272 1.386 . S
C1276 C1271 1.490 . S
C1276 C1278 1.395 1_565 S
C1276 C1279 1.403 1_565 S
H1277 C1283 0.930 . S
C1278 H1264 0.930 . S
C1278 C1276 1.395 1_545 S
C1278 C1281 1.403 . S
C1279 C1276 1.403 1_545 S
C1279 C1280 1.524 1_545 S
C1279 C1283 1.400 . S
C1280 H1265 0.960 . S
C1280 H1266 0.960 . S
C1280 H1267 0.960 . S
C1280 C1279 1.524 1_565 S
C1281 C1278 1.403 . S
C1281 C1282 1.392 . S
C1281 C1285 1.495 . S
C1282 C1281 1.392 . S
C1282 C1283 1.385 . S
C1282 C1284 1.478 . S
C1283 H1277 0.930 . S
C1283 C1279 1.400 . S
C1283 C1282 1.385 . S
C1284 C1282 1.478 . S
C1284 C1286 1.381 . S
C1284 C1290 1.383 . S
C1285 C1281 1.495 . S
C1285 H1291 0.959 . S
C1285 H1292 0.961 . S
C1285 H1293 0.960 . S
C1286 C1284 1.381 . S
C1286 C1287 1.394 . S
C1286 H1294 0.930 . S
C1287 C1286 1.394 . S
C1287 C1288 1.383 . S
C1287 H1295 0.929 . S
C1288 C1287 1.383 . S
C1288 C1289 1.377 . S
C1289 H1273 0.930 . S
C1289 C1288 1.377 . S
C1289 C1290 1.379 . S
C1290 H1274 0.931 . S
C1290 C1284 1.383 . S
C1290 C1289 1.379 . S
H1291 C1285 0.959 . S
H1292 C1285 0.961 . S
H1293 C1285 0.960 . S
H1294 C1286 0.930 . S
H1295 C1287 0.929 . S
H1296 C1304 0.929 . S
H1297 C1306 0.930 . S
H1298 C1308 0.930 . S
H1299 C1311 0.929 . S
H1300 C1314 0.930 . S
H1301 C1316 0.946 1_455 S
H1302 C1316 0.951 1_455 S
H1303 C1316 1.013 . S
C1304 H1296 0.929 . S
C1304 C1305 1.377 . S
C1304 C1306 1.384 . S
C1305 C1304 1.377 . S
C1305 C1311 1.390 . S
C1306 H1297 0.930 . S
C1306 C1304 1.384 . S
C1306 C1307 1.372 . S
C1307 C1306 1.372 . S
C1307 C1308 1.400 . S
C1307 C1312 1.490 . S
C1308 H1298 0.930 . S
C1308 C1307 1.400 . S
C1308 C1311 1.386 . S
H1309 C1325 0.930 . S
H1310 C1326 0.931 . S
C1311 H1299 0.929 . S
C1311 C1305 1.390 . S
C1311 C1308 1.386 . S
C1312 C1307 1.490 . S
C1312 C1314 1.395 . S
C1312 C1315 1.403 . S
H1313 C1319 0.930 . S
C1314 H1300 0.930 . S
C1314 C1312 1.395 . S
C1314 C1317 1.369 1_655 S
C1315 C1312 1.403 . S
C1315 C1316 1.498 . S
C1315 C1319 1.400 1_655 S
C1316 H1301 0.946 1_655 S
C1316 H1302 0.951 1_655 S
C1316 H1303 1.013 . S
C1316 C1315 1.498 . S
C1317 C1314 1.369 1_455 S
C1317 C1318 1.400 . S
C1317 C1321 1.522 . S
C1318 C1317 1.400 . S
C1318 C1319 1.385 . S
C1318 C1320 1.478 . S
C1319 H1313 0.930 . S
C1319 C1315 1.400 1_455 S
C1319 C1318 1.385 . S
C1320 C1318 1.478 . S
C1320 C1322 1.381 . S
C1320 C1326 1.383 . S
C1321 C1317 1.522 . S
C1321 H1327 0.959 1_455 S
C1321 H1328 0.961 1_455 S
C1321 H1329 0.960 . S
C1322 C1320 1.381 . S
C1322 C1323 1.394 . S
C1322 H1330 0.930 . S
C1323 C1322 1.394 . S
C1323 C1324 1.383 . S
C1323 H1331 0.929 . S
C1324 C1323 1.383 . S
C1324 C1325 1.377 . S
C1325 H1309 0.930 . S
C1325 C1324 1.377 . S
C1325 C1326 1.379 . S
C1326 H1310 0.931 . S
C1326 C1320 1.383 . S
C1326 C1325 1.379 . S
H1327 C1321 0.959 1_655 S
H1328 C1321 0.961 1_655 S
H1329 C1321 0.960 . S
H1330 C1322 0.930 . S
H1331 C1323 0.929 . S
C369 C2 3.245 . S
C388 C15 3.243 . S
C405 C55 3.297 . S
C424 C42 3.296 . S
C441 C82 3.322 1_556 S
C460 C95 3.313 . S
C477 C135 3.244 . S
C496 C122 3.239 . S
C513 C162 3.296 . S
C532 C175 3.287 . S
C549 C215 3.322 . S
C568 C202 3.322 1_556 S
C585 C249 2.747 . S
C604 C266 2.739 1_556 S
C621 C306 2.792 . S
C640 C289 2.805 1_556 S
C657 C329 2.513 . S
C676 C346 2.538 1_556 S
C693 C222 1.857 . S
C712 C9 1.838 . S
C729 C62 2.761 . S
C748 C142 2.769 . S
C765 C89 1.239 . S
C784 C169 1.259 . S
C801 C102 2.904 . S
C820 C243 2.945 . S
C837 C295 1.133 . S
C856 C22 1.146 . S
C873 C323 1.688 . S
C892 C49 1.646 . S
C909 C322 0.712 . S
C928 C26 0.750 . S
C945 C43 2.106 . S
C964 C242 2.096 . S
C981 C302 2.580 . S
C1000 C106 2.497 . S
C1017 C83 1.856 . S
C1036 C146 1.836 . S
C1053 C163 2.762 . S
C1072 C3 2.769 . S
C1089 C66 1.253 . S
C1108 C226 1.220 . S
C1125 C335 0.713 . S
C1144 C129 0.714 . S
C1161 C255 2.107 . S
C1180 C182 2.103 . S
C1197 C283 2.581 . S
C1216 C209 2.525 . S
C1233 C262 2.953 . S
C1252 C203 2.903 . S
C1269 C123 1.134 . S
C1288 C282 1.152 . S
C1305 C342 1.688 . S
C1324 C186 1.643 . S
