# Generated by pormake.
# Topology snz, (6)-cn, num edge types: 1
# Building blocks:
#     Node 0, Type 0, BuildingBlock: INOVEN_clean_sbu_0, # of connection points: 6
#     Node 1, Type 0, BuildingBlock: INOVEN_clean_sbu_0, # of connection points: 6
#     Node 2, Type 0, BuildingBlock: INOVEN_clean_sbu_0, # of connection points: 6
#     Node 3, Type 0, BuildingBlock: INOVEN_clean_sbu_0, # of connection points: 6
#     Node 4, Type 0, BuildingBlock: INOVEN_clean_sbu_0, # of connection points: 6
#     Node 5, Type 0, BuildingBlock: INOVEN_clean_sbu_0, # of connection points: 6
#     Node 6, Type 0, BuildingBlock: INOVEN_clean_sbu_0, # of connection points: 6
#     Node 7, Type 0, BuildingBlock: INOVEN_clean_sbu_0, # of connection points: 6
#     Node 8, Type 0, BuildingBlock: INOVEN_clean_sbu_0, # of connection points: 6
#     Edge 9, Type (0, 0), BuildingBlock: OJICUG_clean_linker_0, # of connection points: 2
#     Edge 10, Type (0, 0), BuildingBlock: OJICUG_clean_linker_0, # of connection points: 2
#     Edge 11, Type (0, 0), BuildingBlock: OJICUG_clean_linker_0, # of connection points: 2
#     Edge 12, Type (0, 0), BuildingBlock: OJICUG_clean_linker_0, # of connection points: 2
#     Edge 13, Type (0, 0), BuildingBlock: OJICUG_clean_linker_0, # of connection points: 2
#     Edge 14, Type (0, 0), BuildingBlock: OJICUG_clean_linker_0, # of connection points: 2
#     Edge 15, Type (0, 0), BuildingBlock: OJICUG_clean_linker_0, # of connection points: 2
#     Edge 16, Type (0, 0), BuildingBlock: OJICUG_clean_linker_0, # of connection points: 2
#     Edge 17, Type (0, 0), BuildingBlock: OJICUG_clean_linker_0, # of connection points: 2
#     Edge 18, Type (0, 0), BuildingBlock: OJICUG_clean_linker_0, # of connection points: 2
#     Edge 19, Type (0, 0), BuildingBlock: OJICUG_clean_linker_0, # of connection points: 2
#     Edge 20, Type (0, 0), BuildingBlock: OJICUG_clean_linker_0, # of connection points: 2
#     Edge 21, Type (0, 0), BuildingBlock: OJICUG_clean_linker_0, # of connection points: 2
#     Edge 22, Type (0, 0), BuildingBlock: OJICUG_clean_linker_0, # of connection points: 2
#     Edge 23, Type (0, 0), BuildingBlock: OJICUG_clean_linker_0, # of connection points: 2
#     Edge 24, Type (0, 0), BuildingBlock: OJICUG_clean_linker_0, # of connection points: 2
#     Edge 25, Type (0, 0), BuildingBlock: OJICUG_clean_linker_0, # of connection points: 2
#     Edge 26, Type (0, 0), BuildingBlock: OJICUG_clean_linker_0, # of connection points: 2
#     Edge 27, Type (0, 0), BuildingBlock: OJICUG_clean_linker_0, # of connection points: 2
#     Edge 28, Type (0, 0), BuildingBlock: OJICUG_clean_linker_0, # of connection points: 2
#     Edge 29, Type (0, 0), BuildingBlock: OJICUG_clean_linker_0, # of connection points: 2
#     Edge 30, Type (0, 0), BuildingBlock: OJICUG_clean_linker_0, # of connection points: 2
#     Edge 31, Type (0, 0), BuildingBlock: OJICUG_clean_linker_0, # of connection points: 2
#     Edge 32, Type (0, 0), BuildingBlock: OJICUG_clean_linker_0, # of connection points: 2
#     Edge 33, Type (0, 0), BuildingBlock: OJICUG_clean_linker_0, # of connection points: 2
#     Edge 34, Type (0, 0), BuildingBlock: OJICUG_clean_linker_0, # of connection points: 2
#     Edge 35, Type (0, 0), BuildingBlock: OJICUG_clean_linker_0, # of connection points: 2
# Relax obj value: 0.589
# Max RMSD: 0.280
# Mean RMSD: 0.185
data_MOF--net-snz--node1-INOVEN_clean_sbu_0--edge1-OJICUG_clean_linker_0
_symmetry_space_group_name_H-M    P1
_symmetry_Int_Tables_number       1
_symmetry_cell_setting            triclinic
loop_
_symmetry_equiv_pos_as_xyz
'x, y, z'
_cell_length_a     53.846591
_cell_length_b     41.453965
_cell_length_c     12.087416
_cell_angle_alpha  97.802316
_cell_angle_beta   98.110783
_cell_angle_gamma 121.58931
loop_
_atom_site_label
_atom_site_type_symbol
_atom_site_fract_x
_atom_site_fract_y
_atom_site_fract_z
_atom_type_partial_charge
Gd0 Gd 0.15867 0.50659 0.27112 0.0
Gd1 Gd 0.11884 0.51535 0.28142 0.0
C2 C 0.09174 0.42896 0.17624 0.0
C3 C 0.19495 0.48212 0.29268 0.0
C4 C 0.20908 0.46714 0.3665 0.0
C5 C 0.23211 0.46433 0.33519 0.0
C6 C 0.19868 0.45271 0.46059 0.0
C7 C 0.234 0.43216 0.48901 0.0
C8 C 0.21104 0.43549 0.5213 0.0
C9 C 0.24431 0.44707 0.39499 0.0
C10 C 0.14658 0.51697 1.04357 0.0
C11 C 0.18126 0.59582 0.32949 0.0
C12 C 0.08093 0.53633 0.28368 0.0
C13 C 0.06375 0.54724 0.20978 0.0
C14 C 1.03446 0.53473 0.21784 0.0
C15 C 0.07675 0.57202 0.13745 0.0
C16 C 1.03181 0.57319 1.0869 0.0
C17 C 0.06094 0.58494 1.07681 0.0
C18 C 1.01857 0.54746 0.15674 0.0
C19 C 0.13279 0.50367 0.50647 0.0
O20 O 0.11866 0.44203 0.24013 0.0
O21 O 0.08671 0.45577 0.16158 0.0
O22 O 0.20408 0.5187 0.32243 0.0
O23 O 0.16605 0.45959 0.24915 0.0
O24 O 0.17249 0.53123 1.1135 0.0
O25 O 0.12694 0.49915 1.10229 0.0
O26 O 0.1527 0.57799 0.27869 0.0
O27 O 0.19043 0.57296 0.35142 0.0
O28 O 0.11009 0.56063 0.3147 0.0
O29 O 0.0727 0.50001 0.25886 0.0
O30 O 0.10677 0.48586 0.43371 0.0
O31 O 0.1515 0.52423 0.44873 0.0
H32 H 0.24023 0.47467 0.26195 0.0
H33 H 0.18076 0.45425 0.48608 0.0
H34 H 0.20259 0.42484 0.59356 0.0
H35 H 0.26132 0.44447 0.3648 0.0
H36 H 1.02411 0.51579 0.27369 0.0
H37 H 0.09931 0.58198 0.12942 0.0
H38 H 0.07157 0.60429 1.02233 0.0
H39 H 0.9963 0.53812 0.16707 0.0
Gd40 Gd 0.66065 0.52529 1.06406 0.0
Gd41 Gd 0.622 0.52369 1.04674 0.0
C42 C 0.67566 0.61021 1.09541 0.0
C43 C 0.71244 0.53154 1.09876 0.0
C44 C 0.7378 0.53955 1.04564 0.0
C45 C 0.76408 0.54609 1.11424 0.0
C46 C 0.738 0.54594 0.93445 0.0
C47 C 0.79117 0.56746 0.96441 0.0
C48 C 0.76426 0.55945 0.89407 0.0
C49 C 0.79029 0.55978 1.07456 0.0
C50 C 0.63943 0.50743 0.29648 0.0
C51 C 0.60311 0.43881 1.01812 0.0
C52 C 0.57141 0.51881 1.02468 0.0
C53 C 0.55337 0.51317 1.10993 0.0
C54 C 0.52361 0.50292 1.07731 0.0
C55 C 0.5648 0.51325 0.22186 0.0
C56 C 0.51635 0.49052 0.26577 0.0
C57 C 0.5465 0.502 0.29888 0.0
C58 C 0.50528 0.49193 0.15496 0.0
C59 C 0.64352 0.54142 0.81451 0.0
O60 O 0.68462 0.58888 1.04864 0.0
O61 O 0.6494 0.58999 0.11796 0.0
O62 O 0.70929 0.56045 0.12291 0.0
O63 O 0.68645 0.49816 1.05965 0.0
O64 O 0.64734 0.53312 0.23323 0.0
O65 O 0.64728 0.53236 0.23145 0.0
O66 O 0.59636 0.46181 1.06991 0.0
O67 O 0.62925 0.45768 0.99139 0.0
O68 O 0.5733 0.48925 0.98996 0.0
O69 O 0.59749 0.55205 1.04887 0.0
O70 O 0.63542 0.51567 0.87769 0.0
O71 O 0.6355 0.51644 0.8793 0.0
H72 H 0.76475 0.54209 0.20113 0.0
H73 H 0.71815 0.54158 0.88012 0.0
H74 H 0.76347 0.56415 0.80811 0.0
H75 H 0.81022 0.56593 0.13316 0.0
H76 H 0.51427 0.50213 0.99076 0.0
H77 H 0.58764 0.52072 0.24836 0.0
H78 H 0.55582 0.50166 0.38391 0.0
H79 H 0.48209 0.48295 0.12667 0.0
Gd80 Gd 0.61208 0.06952 0.883 0.0
Gd81 Gd 0.65621 0.11692 0.91871 0.0
C82 C 0.60679 0.13925 0.88913 0.0
C83 C 0.55743 1.00844 0.83022 0.0
C84 C 0.53714 0.9905 0.90479 0.0
C85 C 0.50582 0.96832 0.86053 0.0
C86 C 0.54912 0.99731 1.02283 0.0
C87 C 0.4986 0.95974 1.05202 0.0
C88 C 0.53008 0.98192 1.09547 0.0
C89 C 0.48669 0.95307 0.93345 0.0
C90 C 0.62426 0.09649 0.64882 0.0
C91 C 0.6512 0.04029 0.94248 0.0
C92 C 0.71582 0.16604 0.9698 0.0
C93 C 0.74345 0.16923 0.93837 0.0
C94 C 0.77267 0.20153 0.9976 0.0
C95 C 0.74176 0.13877 0.86172 0.0
C96 C 0.79757 0.17297 0.90561 0.0
C97 C 0.76817 0.14074 0.84502 0.0
C98 C 0.79901 0.20337 0.9819 0.0
C99 C 0.6452 0.09455 0.15809 0.0
O100 O 0.59369 0.10614 0.91716 0.0
O101 O 0.63407 0.15167 0.87179 0.0
O102 O 0.5811 1.00658 0.84484 0.0
O103 O 0.56396 0.04302 0.82278 0.0
O104 O 0.6329 0.08273 0.72746 0.0
O105 O 0.63247 0.08295 0.72865 0.0
O106 O 0.66485 0.06825 0.89084 0.0
O107 O 0.62733 0.03607 0.96796 0.0
O108 O 0.69715 0.16958 0.89872 0.0
O109 O 0.70109 0.13873 1.02078 0.0
O110 O 0.6357 0.10635 1.07559 0.0
O111 O 0.63617 0.10613 1.07402 0.0
H112 H 0.49617 0.96322 0.76997 0.0
H113 H 0.57327 1.01477 1.05913 0.0
H114 H 0.54011 0.98723 0.18565 0.0
H115 H 0.46259 0.93668 0.89723 0.0
H116 H 0.77523 0.22537 1.05883 0.0
H117 H 0.71991 0.11291 0.81606 0.0
H118 H 0.76542 0.11625 0.7865 0.0
H119 H 0.82068 0.22902 1.02996 0.0
Gd120 Gd 0.81684 0.8654 0.30931 0.0
Gd121 Gd 0.776 0.87323 0.31283 0.0
C122 C 0.75276 0.78414 0.24537 0.0
C123 C 0.85481 0.84438 0.32536 0.0
C124 C 0.87335 0.83919 0.41369 0.0
C125 C 0.90059 0.84536 0.39743 0.0
C126 C 0.86318 0.82505 0.50835 0.0
C127 C 0.90576 0.8191 0.56164 0.0
C128 C 0.87922 0.81501 0.58156 0.0
C129 C 0.91672 0.83565 0.47079 0.0
C130 C 0.80251 0.87421 1.0801 0.0
C131 C 0.84247 0.95233 0.42835 0.0
C132 C 0.74489 0.90205 0.25506 0.0
C133 C 0.7301 0.92251 0.22258 0.0
C134 C 0.69862 0.90303 0.19041 0.0
C135 C 0.74782 0.96113 0.21184 0.0
C136 C 0.70297 0.95963 0.12996 0.0
C137 C 0.7345 0.97943 0.16674 0.0
C138 C 0.6852 0.92132 0.14439 0.0
C139 C 0.78736 0.86397 0.54224 0.0
O140 O 0.78141 0.80132 0.29506 0.0
O141 O 0.74358 0.80741 0.22986 0.0
O142 O 0.82578 0.82016 0.30465 0.0
O143 O 0.86266 0.87994 0.32638 0.0
O144 O 0.82863 0.89292 0.15291 0.0
O145 O 0.78418 0.85367 0.13922 0.0
O146 O 0.81412 0.93868 0.38287 0.0
O147 O 0.84976 0.92675 0.42147 0.0
O148 O 0.73442 0.87308 0.30555 0.0
O149 O 0.77154 0.91453 0.23876 0.0
O150 O 0.76138 0.85039 0.47226 0.0
O151 O 0.80731 0.88173 0.48417 0.0
H152 H 0.90876 0.85612 0.32474 0.0
H153 H 0.84229 0.82039 0.52317 0.0
H154 H 0.87035 0.80294 0.65154 0.0
H155 H 0.93671 0.83865 0.45095 0.0
H156 H 0.68439 0.87316 0.19658 0.0
H157 H 0.77218 0.97714 0.23649 0.0
H158 H 0.74906 1.00921 0.16042 0.0
H159 H 0.66087 0.90488 0.11668 0.0
Gd160 Gd 0.31097 0.85485 0.56012 0.0
Gd161 Gd 0.27385 0.85641 0.54614 0.0
C162 C 0.33197 0.94207 0.62693 0.0
C163 C 0.36036 0.8572 0.58043 0.0
C164 C 0.38076 0.86904 0.50323 0.0
C165 C 0.41179 0.88681 0.54603 0.0
C166 C 0.36944 0.86575 0.38728 0.0
C167 C 0.4199 0.89765 0.35717 0.0
C168 C 0.38876 0.8797 0.31491 0.0
C169 C 0.43125 0.90107 0.47356 0.0
C170 C 0.3043 0.87201 0.81733 0.0
C171 C 0.25672 0.76983 0.47115 0.0
C172 C 0.22267 0.85132 0.51574 0.0
C173 C 0.194 0.83194 0.55417 0.0
C174 C 0.1896 0.85208 0.64464 0.0
C175 C 0.16981 0.79367 0.49504 0.0
C176 C 0.13766 0.79621 0.61554 0.0
C177 C 0.14216 0.77611 0.5253 0.0
C178 C 0.1619 0.83443 0.67521 0.0
C179 C 0.28098 0.84075 0.28941 0.0
O180 O 0.33975 0.92034 0.57496 0.0
O181 O 0.30467 0.9221 0.64359 0.0
O182 O 0.35897 0.88519 0.63624 0.0
O183 O 0.33375 0.82505 0.53603 0.0
O184 O 0.2907 0.84584 0.7172 0.0
O185 O 0.29125 0.84659 0.71642 0.0
O186 O 0.24758 0.78976 0.5251 0.0
O187 O 0.28358 0.79146 0.45483 0.0
O188 O 0.22752 0.82852 0.45091 0.0
O189 O 0.24746 0.88027 0.5891 0.0
O190 O 0.29454 0.86654 0.39029 0.0
O191 O 0.29393 0.8657 0.39106 0.0
H192 H 0.421 0.89021 0.6357 0.0
H193 H 0.34564 0.85301 0.35303 0.0
H194 H 0.37939 0.87731 0.22647 0.0
H195 H 0.45514 0.91469 0.50844 0.0
H196 H 0.20745 0.88175 0.69097 0.0
H197 H 0.17207 0.77722 0.42409 0.0
H198 H 0.12433 0.74655 0.47808 0.0
H199 H 0.1593 0.85115 0.74415 0.0
Gd200 Gd 0.27812 0.27211 0.70658 0.0
Gd201 Gd 0.32261 0.31985 0.74151 0.0
C202 C 0.28242 0.34859 0.68352 0.0
C203 C 0.21867 0.22279 0.65846 0.0
C204 C 0.19129 0.22185 0.68584 0.0
C205 C 0.17424 0.19845 0.75545 0.0
C206 C 0.18009 0.24184 0.63351 0.0
C207 C 0.136 0.21497 0.71841 0.0
C208 C 0.1533 0.23857 0.64946 0.0
C209 C 0.14739 0.19523 0.77176 0.0
C210 C 0.28966 0.29512 0.46796 0.0
C211 C 0.32754 0.24974 0.74102 0.0
C212 C 0.37732 0.38085 0.79004 0.0
C213 C 0.3988 0.39745 0.71765 0.0
C214 C 0.41532 0.43778 0.72562 0.0
C215 C 0.40182 0.37301 0.63573 0.0
C216 C 0.43767 0.42904 0.57155 0.0
C217 C 0.42118 0.38867 0.56411 0.0
C218 C 0.43449 0.45344 0.65298 0.0
C219 C 0.31061 0.2938 0.9766 0.0
O220 O 0.26814 0.31957 0.73075 0.0
O221 O 0.30689 0.35377 0.66099 0.0
O222 O 0.23739 0.22112 0.73545 0.0
O223 O 0.23324 0.24662 0.59767 0.0
O224 O 0.29877 0.28273 0.54984 0.0
O225 O 0.29829 0.28298 0.55136 0.0
O226 O 0.34092 0.28268 0.71174 0.0
O227 O 0.3001 0.2375 0.75613 0.0
O228 O 0.3537 0.38259 0.76694 0.0
O229 O 0.37057 0.34714 0.80809 0.0
O230 O 0.30185 0.3073 0.8974 0.0
O231 O 0.30228 0.30708 0.89613 0.0
H232 H 0.18137 0.18192 0.79612 0.0
H233 H 0.19187 0.25991 0.57801 0.0
H234 H 0.1463 0.25497 0.60747 0.0
H235 H 0.13513 0.17626 0.82445 0.0
H236 H 0.41317 0.45715 0.78739 0.0
H237 H 0.38899 0.34168 0.62599 0.0
H238 H 0.42281 0.36903 0.50124 0.0
H239 H 0.44704 0.48468 0.66123 0.0
Gd240 Gd 0.46515 0.19243 0.71535 0.0
Gd241 Gd 0.4645 0.18942 0.92024 0.0
C242 C 0.41793 0.20722 0.81534 0.0
C243 C 0.44424 0.17926 0.49642 0.0
C244 C 0.41545 0.14461 0.42498 0.0
C245 C 0.40911 0.13708 0.30495 0.0
C246 C 0.3968 0.11539 0.47661 0.0
C247 C 0.37332 0.06774 0.2915 0.0
C248 C 0.37564 0.07723 0.4103 0.0
C249 C 0.38787 0.09899 0.2382 0.0
C250 C 0.51147 0.26663 0.84712 0.0
C251 C 0.51471 0.17875 0.82439 0.0
C252 C 0.47538 0.18204 0.12599 0.0
C253 C 0.4702 0.14492 0.14536 0.0
C254 C 0.46219 0.11499 1.04932 0.0
C255 C 0.46738 0.13628 0.2522 0.0
C256 C 0.4393 0.06645 0.15827 0.0
C257 C 0.45232 0.09731 0.25918 0.0
C258 C 0.44699 0.07604 1.05575 0.0
C259 C 0.41906 0.11549 0.78448 0.0
O260 O 0.42148 0.18938 0.72598 0.0
O261 O 0.43724 0.21758 0.91468 0.0
O262 O 0.4423 0.20233 0.57379 0.0
O263 O 0.46387 0.17191 0.53853 0.0
O264 O 0.51224 0.24711 0.75629 0.0
O265 O 0.48549 0.24617 0.86652 0.0
O266 O 0.50692 0.18861 0.91537 0.0
O267 O 0.49893 0.17432 0.72309 0.0
O268 O 0.45097 0.17987 1.08014 0.0
O269 O 0.49671 0.20042 1.0748 0.0
O270 O 0.41648 0.13573 0.86703 0.0
O271 O 0.44566 0.13637 0.77156 0.0
H272 H 0.42268 0.15957 0.26337 0.0
H273 H 0.40067 0.12111 0.56929 0.0
H274 H 0.36415 0.0544 0.45412 0.0
H275 H 0.38636 0.09369 0.14657 0.0
H276 H 0.46494 0.12121 0.96622 0.0
H277 H 0.47407 0.15909 0.32758 0.0
H278 H 0.44747 0.09162 0.34093 0.0
H279 H 0.438 0.05332 0.97714 0.0
Gd280 Gd 0.96681 0.17474 0.89208 0.0
Gd281 Gd 0.96323 0.20597 0.72566 0.0
C282 C 0.90961 0.18241 0.84277 0.0
C283 C 0.96041 0.14417 1.06677 0.0
C284 C 0.93155 0.1142 1.08553 0.0
C285 C 0.92781 0.11378 0.19739 0.0
C286 C 0.9062 0.09069 0.99113 0.0
C287 C 0.87309 0.07384 0.12085 0.0
C288 C 0.87723 0.07038 1.00865 0.0
C289 C 0.89888 0.09348 0.2151 0.0
C290 C 0.93403 0.11599 0.69129 0.0
C291 C 1.02171 0.19948 0.78038 0.0
C292 C 0.95463 0.22647 0.53887 0.0
C293 C 0.92547 0.21334 0.46228 0.0
C294 C 0.90065 0.20471 0.50829 0.0
C295 C 0.92069 0.20156 0.34319 0.0
C296 C 0.86635 0.16304 0.32227 0.0
C297 C 0.89139 0.1771 0.27339 0.0
C298 C 0.87125 0.17932 0.439 0.0
C299 C 0.99658 0.2651 0.92599 0.0
O300 O 0.93017 0.18596 0.9265 0.0
O301 O 0.91522 0.18185 0.74075 0.0
O302 O 0.96814 0.13304 0.97939 0.0
O303 O 0.96403 0.17802 1.07046 0.0
O304 O 0.95752 0.12275 0.76138 0.0
O305 O 0.93049 0.14341 0.72424 0.0
O306 O 1.00289 0.20022 0.69823 0.0
O307 O 1.01441 0.19536 0.87963 0.0
O308 O 0.96008 0.19929 0.54167 0.0
O309 O 0.96129 0.24788 0.64145 0.0
O310 O 0.97319 0.25867 0.85547 0.0
O311 O 0.99974 0.23729 0.89385 0.0
H312 H 0.94705 0.13181 0.27119 0.0
H313 H 0.90859 0.09063 0.90359 0.0
H314 H 0.85807 0.05529 0.93427 0.0
H315 H 0.89703 0.09726 0.30331 0.0
H316 H 0.90376 0.21462 0.59966 0.0
H317 H 0.93943 0.20801 0.30566 0.0
H318 H 0.88874 0.1652 0.1839 0.0
H319 H 0.85255 0.16927 0.47901 0.0
Gd320 Gd 0.94927 0.65927 0.68567 0.0
Gd321 Gd 0.97953 0.71454 0.90173 0.0
C322 C 1.0217 0.72275 0.73805 0.0
C323 C 0.92198 0.62117 0.47334 0.0
C324 C 0.89535 0.61639 0.40079 0.0
C325 C 0.8726 0.6148 0.44968 0.0
C326 C 0.89665 0.62369 0.29167 0.0
C327 C 0.8589 0.63925 0.29664 0.0
C328 C 0.87876 0.63526 0.24043 0.0
C329 C 0.8543 0.62588 0.39734 0.0
C330 C 0.97055 0.63348 0.84617 0.0
C331 C 0.90796 0.6499 0.85016 0.0
C332 C 0.99582 0.75575 1.10858 0.0
C333 C 0.97744 0.76751 0.15758 0.0
C334 C 0.97385 0.76393 0.26834 0.0
C335 C 0.95778 0.77268 1.08386 0.0
C336 C 0.92654 0.75986 0.2195 0.0
C337 C 0.93264 0.76918 0.11501 0.0
C338 C 0.94871 0.76036 0.29953 0.0
C339 C 0.95916 0.74099 0.74228 0.0
O340 O 0.99587 0.70129 0.65742 0.0
O341 O 1.02129 0.72672 0.84792 0.0
O342 O 0.94579 0.65709 0.50392 0.0
O343 O 0.9177 0.60414 0.55857 0.0
O344 O 0.94473 0.61181 0.77174 0.0
O345 O 0.98435 0.66723 0.8302 0.0
O346 O 0.93376 0.66863 0.9297 0.0
O347 O 0.90866 0.65011 0.74236 0.0
O348 O 1.00619 0.77114 1.02499 0.0
O349 O 0.98406 0.7181 1.0851 0.0
O350 O 0.98591 0.76068 0.80913 0.0
O351 O 0.94452 0.70718 0.7587 0.0
H352 H 0.87097 0.60894 0.53384 0.0
H353 H 0.91407 0.62526 0.25271 0.0
H354 H 0.88387 0.64646 0.16525 0.0
H355 H 0.83935 0.62873 0.44299 0.0
H356 H 0.98866 0.75974 0.32615 0.0
H357 H 0.96005 0.77548 0.99745 0.0
H358 H 0.91644 0.76972 1.05237 0.0
H359 H 0.94507 0.7532 0.38111 0.0
C360 C 0.11435 0.49054 0.81899 0.0
C361 C 0.14236 0.51335 0.90532 0.0
H362 H 0.08943 0.46953 0.63811 0.0
C363 C 0.16741 0.53307 0.85466 0.0
H364 H 0.09386 0.47425 0.84671 0.0
C365 C 0.16486 0.53045 0.73112 0.0
C366 C 0.13687 0.50756 0.64477 0.0
H367 H 0.18981 0.5512 0.91186 0.0
H368 H 0.18536 0.54671 0.70341 0.0
C369 C 0.11181 0.48777 0.69537 0.0
C370 C 0.65163 0.56134 0.61962 0.0
C371 C 0.6426 0.53166 0.68196 0.0
H372 H 0.65804 0.57885 0.45837 0.0
C373 C 0.63224 0.49429 0.61282 0.0
H374 H 0.65967 0.59067 0.66574 0.0
C375 C 0.6312 0.48743 0.49122 0.0
C376 C 0.64026 0.51713 0.42892 0.0
H377 H 0.62477 0.46992 0.65244 0.0
H378 H 0.62317 0.45811 0.44509 0.0
C379 C 0.65057 0.55448 0.49801 0.0
C380 C 0.64579 0.08023 0.4771 0.0
C381 C 0.63028 0.09564 0.52377 0.0
H382 H 0.66204 0.06799 0.33282 0.0
C383 C 0.61904 0.11062 0.44469 0.0
H384 H 0.65501 0.06807 0.53015 0.0
C385 C 0.62298 0.11047 0.32851 0.0
C386 C 0.63862 0.09521 0.28215 0.0
H387 H 0.60679 0.12278 0.47314 0.0
H388 H 0.61376 0.1226 0.27535 0.0
C389 C 0.64978 0.08016 0.36116 0.0
C390 C 0.76693 0.84671 0.73222 0.0
C391 C 0.79177 0.86671 0.68057 0.0
H392 H 0.74944 0.83211 0.884 0.0
C393 C 0.81993 0.88887 0.76624 0.0
H394 H 0.74442 0.82896 0.67582 0.0
C395 C 0.82281 0.89089 0.88982 0.0
C396 C 0.79799 0.87081 0.94145 0.0
H397 H 0.84032 0.9053 0.73803 0.0
H398 H 0.84531 0.90879 0.94625 0.0
C399 C 0.76983 0.8485 0.85574 0.0
C400 C 0.3137 0.89337 1.04143 0.0
C401 C 0.2974 0.863 0.93678 0.0
H402 H 0.32261 0.91211 0.22831 0.0
C403 C 0.27632 0.82586 0.95351 0.0
H404 H 0.33036 0.9226 1.03649 0.0
C405 C 0.27193 0.81981 1.06601 0.0
C406 C 0.28817 0.85012 0.17062 0.0
H407 H 0.26304 0.80104 0.87931 0.0
H408 H 0.25527 0.79058 1.07091 0.0
C409 C 0.30932 0.88731 0.15405 0.0
C410 C 0.31559 0.27915 0.18018 0.0
C411 C 0.30447 0.29442 1.10163 0.0
H412 H 0.32077 0.26676 0.349 0.0
C413 C 0.28904 0.30984 0.14895 0.0
H414 H 0.32776 0.26693 0.15129 0.0
C415 C 0.28506 0.30973 0.26495 0.0
C416 C 0.29613 0.29445 0.34351 0.0
H417 H 0.2799 0.32219 1.09642 0.0
H418 H 0.27289 0.32196 0.29375 0.0
C419 C 0.31163 0.27909 0.29638 0.0
C420 C 0.36199 0.0192 0.11518 0.0
C421 C 0.36639 0.02841 0.23566 0.0
H422 H 0.3858 0.0233 0.98554 0.0
C423 C 0.3831 1.01653 0.29807 0.0
H424 H 0.3463 0.02271 1.06012 0.0
C425 C 0.4063 0.01723 0.25602 0.0
C426 C 0.41089 0.02855 0.1523 0.0
H427 H 0.38414 0.01737 0.38856 0.0
H428 H 0.42423 0.01902 0.31583 0.0
C429 C 0.38505 0.01975 1.07238 0.0
C430 C 0.83587 0.09359 0.3124 0.0
C431 C 0.83872 0.12391 0.26321 0.0
H432 H 0.84429 0.04838 0.29574 0.0
C433 C 0.82998 0.11496 0.14231 0.0
H434 H 0.83924 0.09714 0.40489 0.0
C435 C 0.83373 0.08755 1.0794 0.0
C436 C 0.84461 0.06883 0.14012 0.0
H437 H 0.82842 0.13545 1.10021 0.0
H438 H 0.83483 0.08827 0.99094 0.0
C439 C 0.839 0.06553 0.2496 0.0
C440 C 0.86818 0.70339 0.36358 0.0
C441 C 0.85284 0.66919 0.27408 0.0
H442 H 0.90699 0.76164 0.41492 0.0
C443 C 0.8497 0.67375 0.16097 0.0
H444 H 0.8691 0.70149 0.45224 0.0
C445 C 0.87176 0.70848 0.13886 0.0
C446 C 0.89503 0.73894 0.23187 0.0
H447 H 0.83555 0.64837 1.08977 0.0
H448 H 0.87346 0.70823 1.0506 0.0
C449 C 0.89015 0.73828 0.34262 0.0
C450 C 0.24054 0.36013 0.64105 0.0
C451 C 0.27054 0.37203 0.64668 0.0
H452 H 0.2053 0.36896 0.5859 0.0
C453 C 0.28878 0.40526 0.60743 0.0
H454 H 0.22579 0.3346 0.67002 0.0
C455 C 0.27724 0.42533 0.56075 0.0
C456 C 0.24685 0.41261 0.54993 0.0
H457 H 0.31204 0.41552 0.61097 0.0
H458 H 0.29226 0.45076 0.53199 0.0
C459 C 0.22883 0.38005 0.593 0.0
C460 C 0.72651 0.67591 0.14503 0.0
C461 C 0.69497 0.65483 0.12873 0.0
H462 H 0.76892 0.73184 0.19581 0.0
C463 C 0.68247 0.67707 0.15034 0.0
H464 H 0.73728 0.66035 0.13063 0.0
C465 C 0.70074 0.71863 0.18571 0.0
C466 C 0.73238 0.73961 0.20438 0.0
H467 H 0.65839 0.66229 0.13953 0.0
H468 H 0.69008 0.7343 0.20065 0.0
C469 C 0.7448 0.71726 0.18336 0.0
C470 C 0.48609 0.96562 0.24397 0.0
C471 C 0.47839 0.94381 0.13037 0.0
H472 H 0.47371 0.96822 0.4043 0.0
C473 C 0.45137 0.90655 1.09272 0.0
H474 H 0.50642 0.99472 0.27544 0.0
C475 C 0.43254 0.89154 0.16649 0.0
C476 C 0.44033 0.91331 0.27998 0.0
H477 H 0.44491 0.88863 1.00664 0.0
H478 H 0.41199 0.86263 0.13505 0.0
C479 C 0.46735 0.95048 0.31799 0.0
C480 C 0.57596 0.16305 0.96481 0.0
C481 C 0.58882 0.15811 0.87494 0.0
H482 H 0.54403 0.17354 1.02101 0.0
C483 C 0.57732 0.16113 0.7666 0.0
H484 H 0.58296 0.15957 1.04844 0.0
C485 C 0.55386 0.1682 0.74941 0.0
C486 C 0.54085 0.17268 0.83987 0.0
H487 H 0.58531 0.15592 0.69317 0.0
H488 H 0.54547 0.16936 0.6642 0.0
C489 C 0.55303 0.17064 0.94835 0.0
C490 C 1.01551 0.33572 1.00922 0.0
C491 C 1.02111 0.30595 0.99885 0.0
H492 H 1.03256 0.39635 1.07112 0.0
C493 C 0.0504 0.31679 1.05269 0.0
H494 H 0.99346 0.32903 0.96973 0.0
C495 C 0.07326 0.35619 1.11275 0.0
C496 C 0.06762 0.38604 0.12013 0.0
H497 H 0.05583 0.29499 1.04667 0.0
H498 H 0.09553 0.3634 0.15113 0.0
C499 C 1.03819 0.37475 1.06787 0.0
C500 C 0.87207 0.6022 0.94871 0.0
C501 C 0.8783 0.62873 0.87934 0.0
H502 H 0.83971 0.56054 1.02443 0.0
C503 C 0.85513 0.63291 0.8311 0.0
H504 H 0.88924 0.5976 0.98472 0.0
C505 C 0.82682 0.61241 0.85589 0.0
C506 C 0.82047 0.58624 0.92763 0.0
H507 H 0.85916 0.65283 0.77606 0.0
H508 H 0.81032 0.61828 0.82159 0.0
C509 C 0.8435 0.58089 0.97129 0.0
C510 C 0.96993 0.57855 0.91359 0.0
C511 C 0.98554 0.61819 0.91214 0.0
H512 H 0.97238 0.5331 0.96916 0.0
C513 C 1.01616 0.64304 0.97064 0.0
H514 H 0.94631 0.55877 0.86921 0.0
C515 C 1.03108 0.62841 1.0273 0.0
C516 C 1.01568 0.58862 1.02739 0.0
H517 H 1.02875 0.67379 0.97147 0.0
H518 H 0.05469 0.64834 1.07173 0.0
C519 C 0.98484 0.56391 0.97097 0.0
C520 C 0.58514 0.36962 0.90699 0.0
C521 C 0.58054 0.39428 0.98128 0.0
H522 H 0.56769 0.31151 0.80791 0.0
C523 C 0.55289 0.3759 1.01417 0.0
H524 H 0.60572 0.38197 0.87835 0.0
C525 C 0.53081 0.33493 0.97373 0.0
C526 C 0.53522 0.31048 0.89745 0.0
H527 H 0.54804 0.39337 1.07064 0.0
H528 H 0.50999 0.32256 1.00076 0.0
C529 C 0.56301 0.32882 0.86593 0.0
C530 C 0.87891 0.19456 0.96852 0.0
C531 C 0.88082 0.17914 0.86079 0.0
H532 H 0.85257 0.20554 1.06722 0.0
C533 C 0.85489 0.1615 0.76828 0.0
H534 H 0.89817 0.20868 1.04217 0.0
C535 C 0.82823 0.159 0.78291 0.0
C536 C 0.82633 0.17493 0.89027 0.0
H537 H 0.85507 0.14925 0.68358 0.0
H538 H 0.80922 0.14518 0.70849 0.0
C539 C 0.85253 0.19303 0.9825 0.0
C540 C 0.64931 0.99171 1.05046 0.0
C541 C 0.66348 0.0177 0.9821 0.0
H542 H 0.65063 0.95387 0.15192 0.0
C543 C 0.69027 0.0236 0.95973 0.0
H544 H 0.62877 0.9867 1.07054 0.0
C545 C 0.70276 1.00437 1.00592 0.0
C546 C 0.68893 0.97892 1.07655 0.0
H547 H 0.70182 0.04346 0.90777 0.0
H548 H 0.72333 1.00951 0.98602 0.0
C549 C 0.66184 0.97268 1.09707 0.0
C550 C 0.20622 0.70376 0.41558 0.0
C551 C 0.2378 0.72527 0.43349 0.0
H552 H 0.1642 0.64748 0.36735 0.0
C553 C 0.25082 0.70346 0.41645 0.0
H554 H 0.1951 0.719 0.42731 0.0
C555 C 0.23297 0.66184 0.38471 0.0
C556 C 0.20129 0.64042 0.36533 0.0
H557 H 0.275 0.71861 0.42958 0.0
H558 H 0.24399 0.64645 0.37392 0.0
C559 C 0.18838 0.66238 0.3807 0.0
C560 C 0.4965 0.44826 0.40316 0.0
C561 C 0.49629 0.47528 0.34476 0.0
H562 H 0.47828 0.41264 0.52024 0.0
C563 C 0.47672 0.4872 0.36195 0.0
H564 H 0.51106 0.43814 0.3908 0.0
C565 C 0.45798 0.47265 0.43667 0.0
C566 C 0.45808 0.44542 0.49439 0.0
H567 H 0.47613 0.50808 0.31849 0.0
H568 H 0.44304 0.48221 0.44786 0.0
C569 C 0.47754 0.43339 0.47658 0.0
C570 C 0.91431 0.74457 0.68248 0.0
C571 C 0.94532 0.76108 0.69905 0.0
H572 H 0.87762 0.75056 0.63025 0.0
C573 C 0.96368 0.79863 0.68232 0.0
H574 H 0.89969 0.71592 0.69671 0.0
C575 C 0.95116 0.8187 0.64516 0.0
C576 C 0.91992 0.80174 0.62417 0.0
H577 H 0.98778 0.81235 0.69658 0.0
H578 H 0.96591 0.84719 0.63039 0.0
C579 C 0.90179 0.76489 0.64681 0.0
C580 C 0.36892 0.05202 0.77165 0.0
C581 C 0.39668 0.07117 0.73997 0.0
H582 H 0.3272 0.99786 0.76243 0.0
C583 C 0.40242 0.04714 0.66899 0.0
H584 H 0.36334 0.069 0.82627 0.0
C585 C 0.38151 1.00587 0.63277 0.0
C586 C 0.35378 0.98669 0.66489 0.0
H587 H 0.42325 0.06017 0.64199 0.0
H588 H 0.38722 0.98885 0.57907 0.0
C589 C 0.34793 1.01083 0.73476 0.0
C590 C 0.06054 0.21024 0.661 0.0
C591 C 0.05089 0.20357 0.76329 0.0
H592 H 0.09353 0.21859 0.56568 0.0
C593 C 0.06968 0.20066 0.85023 0.0
H594 H 0.04708 0.21262 0.59118 0.0
C595 C 0.09666 0.20415 0.83578 0.0
C596 C 0.10652 0.21096 0.73369 0.0
H597 H 0.06354 0.19562 0.93068 0.0
H598 H 0.11008 0.20206 0.90647 0.0
C599 C 0.08766 0.21395 0.64669 0.0
C600 C 0.38392 0.2278 0.89264 0.0
C601 C 0.39248 0.21469 0.79967 0.0
H602 H 0.3564 0.24747 0.94846 0.0
C603 C 0.37637 0.20919 0.6878 0.0
H604 H 0.39541 0.23273 0.98034 0.0
C605 C 0.3539 0.21767 0.66963 0.0
C606 C 0.34538 0.23093 0.76192 0.0
H607 H 0.38187 0.19947 0.61281 0.0
H608 H 0.34379 0.21504 0.58205 0.0
C609 C 0.36095 0.23571 0.87415 0.0
C610 C 0.85831 0.02336 0.50547 0.0
C611 C 0.86558 0.99505 0.49042 0.0
H612 H 0.87367 0.0834 0.57831 0.0
C613 C 0.89568 1.00794 0.53767 0.0
H614 H 0.8355 1.01493 0.47065 0.0
C615 C 0.91743 0.04702 0.59897 0.0
C616 C 0.91025 0.07525 0.61619 0.0
H617 H 0.90254 0.98759 0.52847 0.0
H618 H 0.94009 0.05503 0.63465 0.0
C619 C 0.88029 0.06284 0.56718 0.0
C620 C 0.07858 0.76512 0.79174 0.0
C621 C 0.05123 0.74144 0.70597 0.0
H622 H 0.12685 0.80045 0.83139 0.0
C623 C 0.05257 0.73605 0.58997 0.0
H624 H 0.07859 0.77 0.88206 0.0
C625 C 0.08042 0.75369 0.56077 0.0
C626 C 0.10782 0.77743 0.64662 0.0
H627 H 1.03207 0.71817 0.52137 0.0
H628 H 0.08043 0.74911 0.47043 0.0
C629 C 0.10639 0.78288 0.76256 0.0
loop_
_geom_bond_atom_site_label_1
_geom_bond_atom_site_label_2
_geom_bond_distance
_geom_bond_site_symmetry_2
_ccdc_geom_bond_type
Gd0 C3 2.818 . S
Gd0 O20 2.377 . S
Gd0 O22 2.448 . S
Gd0 O23 2.506 . S
Gd0 O24 2.435 1_554 S
Gd0 O25 2.717 1_554 S
Gd0 O27 2.395 . S
Gd0 O31 2.327 . S
Gd1 C12 2.818 1_455 S
Gd1 O21 2.395 1_455 S
Gd1 O25 2.327 1_554 S
Gd1 O26 2.377 . S
Gd1 O28 2.448 1_455 S
Gd1 O29 2.506 1_554 S
Gd1 O30 2.435 . S
Gd1 O31 2.717 . S
C2 O20 1.240 . S
C2 O21 1.240 1_455 S
C3 Gd0 2.818 . S
C3 C4 1.510 . S
C3 O22 1.249 . S
C3 O23 1.252 . S
C4 C3 1.510 . S
C4 C5 1.404 . S
C4 C6 1.352 . S
C5 C4 1.404 . S
C5 C9 1.389 . S
C5 H32 0.930 . S
C6 C4 1.352 . S
C6 C8 1.374 . S
C6 H33 0.931 . S
C7 C8 1.359 . S
C7 C9 1.364 . S
C8 C6 1.374 . S
C8 C7 1.359 . S
C8 H34 0.931 . S
C9 C5 1.389 . S
C9 C7 1.364 . S
C9 H35 0.931 . S
C10 O24 1.256 . S
C10 O25 1.257 . S
C11 O26 1.240 . S
C11 O27 1.240 . S
C12 Gd1 2.818 1_655 S
C12 C13 1.510 1_554 S
C12 O28 1.249 . S
C12 O29 1.252 1_654 S
C13 C12 1.510 1_556 S
C13 C14 1.404 1_556 S
C13 C15 1.352 . S
C14 C13 1.404 1_554 S
C14 C18 1.389 . S
C14 H36 0.930 . S
C15 C13 1.352 . S
C15 C17 1.374 . S
C15 H37 0.931 1_655 S
C16 C17 1.359 . S
C16 C18 1.364 1_556 S
C17 C15 1.374 . S
C17 C16 1.359 . S
C17 H38 0.931 . S
C18 C14 1.389 . S
C18 C16 1.364 1_554 S
C18 H39 0.931 . S
C19 O30 1.256 . S
C19 O31 1.257 . S
O20 Gd0 2.377 . S
O20 C2 1.240 . S
O21 Gd1 2.395 1_655 S
O21 C2 1.240 1_655 S
O22 Gd0 2.448 . S
O22 C3 1.249 . S
O23 Gd0 2.506 . S
O23 C3 1.252 . S
O24 Gd0 2.435 1_556 S
O24 C10 1.256 . S
O25 Gd0 2.717 1_556 S
O25 Gd1 2.327 1_556 S
O25 C10 1.257 . S
O26 Gd1 2.377 . S
O26 C11 1.240 . S
O27 Gd0 2.395 . S
O27 C11 1.240 . S
O28 Gd1 2.448 1_655 S
O28 C12 1.249 . S
O29 Gd1 2.506 1_556 S
O29 C12 1.252 1_456 S
O30 Gd1 2.435 . S
O30 C19 1.256 . S
O31 Gd0 2.327 . S
O31 Gd1 2.717 . S
O31 C19 1.257 . S
H32 C5 0.930 . S
H33 C6 0.931 . S
H34 C8 0.931 . S
H35 C9 0.931 . S
H36 C14 0.930 . S
H37 C15 0.931 1_455 S
H38 C17 0.931 . S
H39 C18 0.931 . S
Gd40 C43 2.818 . S
Gd40 O60 2.377 . S
Gd40 O62 2.448 . S
Gd40 O63 2.506 . S
Gd40 O64 2.435 . S
Gd40 O65 2.717 . S
Gd40 O67 2.395 . S
Gd40 O71 2.327 . S
Gd41 C52 2.818 . S
Gd41 O61 2.395 . S
Gd41 O65 2.327 . S
Gd41 O66 2.377 . S
Gd41 O68 2.448 . S
Gd41 O69 2.506 . S
Gd41 O70 2.435 1_554 S
Gd41 O71 2.717 . S
C42 O60 1.240 . S
C42 O61 1.240 . S
C43 Gd40 2.818 . S
C43 C44 1.510 . S
C43 O62 1.249 . S
C43 O63 1.252 . S
C44 C43 1.510 . S
C44 C45 1.404 . S
C44 C46 1.352 . S
C45 C44 1.404 . S
C45 C49 1.389 . S
C45 H72 0.930 . S
C46 C44 1.352 . S
C46 C48 1.374 . S
C46 H73 0.931 . S
C47 C48 1.359 . S
C47 C49 1.364 . S
C48 C46 1.374 . S
C48 C47 1.359 . S
C48 H74 0.931 . S
C49 C45 1.389 . S
C49 C47 1.364 . S
C49 H75 0.931 . S
C50 O64 1.256 . S
C50 O65 1.257 . S
C51 O66 1.240 . S
C51 O67 1.240 . S
C52 Gd41 2.818 . S
C52 C53 1.510 . S
C52 O68 1.249 . S
C52 O69 1.252 . S
C53 C52 1.510 . S
C53 C54 1.404 . S
C53 C55 1.352 . S
C54 C53 1.404 . S
C54 C58 1.389 . S
C54 H76 0.930 . S
C55 C53 1.352 . S
C55 C57 1.374 . S
C55 H77 0.931 . S
C56 C57 1.359 . S
C56 C58 1.364 . S
C57 C55 1.374 . S
C57 C56 1.359 . S
C57 H78 0.931 . S
C58 C54 1.389 . S
C58 C56 1.364 . S
C58 H79 0.931 . S
C59 O70 1.256 . S
C59 O71 1.257 1_556 S
O60 Gd40 2.377 . S
O60 C42 1.240 . S
O61 Gd41 2.395 . S
O61 C42 1.240 . S
O62 Gd40 2.448 . S
O62 C43 1.249 . S
O63 Gd40 2.506 . S
O63 C43 1.252 . S
O64 Gd40 2.435 . S
O64 C50 1.256 . S
O65 Gd40 2.717 . S
O65 Gd41 2.327 . S
O65 C50 1.257 . S
O66 Gd41 2.377 . S
O66 C51 1.240 . S
O67 Gd40 2.395 . S
O67 C51 1.240 . S
O68 Gd41 2.448 . S
O68 C52 1.249 . S
O69 Gd41 2.506 . S
O69 C52 1.252 . S
O70 Gd41 2.435 1_556 S
O70 C59 1.256 . S
O71 Gd40 2.327 . S
O71 Gd41 2.717 . S
O71 C59 1.257 1_554 S
H72 C45 0.930 . S
H73 C46 0.931 . S
H74 C48 0.931 . S
H75 C49 0.931 . S
H76 C54 0.930 . S
H77 C55 0.931 . S
H78 C57 0.931 . S
H79 C58 0.931 . S
Gd80 C83 2.818 . S
Gd80 O100 2.377 . S
Gd80 O102 2.448 . S
Gd80 O103 2.506 . S
Gd80 O104 2.435 1_554 S
Gd80 O105 2.717 . S
Gd80 O107 2.395 . S
Gd80 O111 2.327 . S
Gd81 C92 2.818 . S
Gd81 O101 2.395 . S
Gd81 O105 2.327 . S
Gd81 O106 2.377 . S
Gd81 O108 2.448 . S
Gd81 O109 2.506 . S
Gd81 O110 2.435 . S
Gd81 O111 2.717 . S
C82 O100 1.240 . S
C82 O101 1.240 . S
C83 Gd80 2.818 . S
C83 C84 1.510 . S
C83 O102 1.249 . S
C83 O103 1.252 . S
C84 C83 1.510 . S
C84 C85 1.404 . S
C84 C86 1.352 . S
C85 C84 1.404 . S
C85 C89 1.389 . S
C85 H112 0.930 1_554 S
C86 C84 1.352 . S
C86 C88 1.374 . S
C86 H113 0.931 . S
C87 C88 1.359 . S
C87 C89 1.364 . S
C88 C86 1.374 . S
C88 C87 1.359 . S
C88 H114 0.931 . S
C89 C85 1.389 . S
C89 C87 1.364 . S
C89 H115 0.931 1_544 S
C90 O104 1.256 . S
C90 O105 1.257 1_556 S
C91 O106 1.240 . S
C91 O107 1.240 . S
C92 Gd81 2.818 . S
C92 C93 1.510 . S
C92 O108 1.249 . S
C92 O109 1.252 . S
C93 C92 1.510 . S
C93 C94 1.404 . S
C93 C95 1.352 . S
C94 C93 1.404 . S
C94 C98 1.389 . S
C94 H116 0.930 . S
C95 C93 1.352 . S
C95 C97 1.374 . S
C95 H117 0.931 . S
C96 C97 1.359 . S
C96 C98 1.364 . S
C97 C95 1.374 . S
C97 C96 1.359 . S
C97 H118 0.931 . S
C98 C94 1.389 . S
C98 C96 1.364 . S
C98 H119 0.931 . S
C99 O110 1.256 . S
C99 O111 1.257 . S
O100 Gd80 2.377 . S
O100 C82 1.240 . S
O101 Gd81 2.395 . S
O101 C82 1.240 . S
O102 Gd80 2.448 . S
O102 C83 1.249 . S
O103 Gd80 2.506 . S
O103 C83 1.252 . S
O104 Gd80 2.435 1_556 S
O104 C90 1.256 . S
O105 Gd80 2.717 . S
O105 Gd81 2.327 . S
O105 C90 1.257 1_554 S
O106 Gd81 2.377 . S
O106 C91 1.240 . S
O107 Gd80 2.395 . S
O107 C91 1.240 . S
O108 Gd81 2.448 . S
O108 C92 1.249 . S
O109 Gd81 2.506 . S
O109 C92 1.252 . S
O110 Gd81 2.435 . S
O110 C99 1.256 . S
O111 Gd80 2.327 . S
O111 Gd81 2.717 . S
O111 C99 1.257 . S
H112 C85 0.930 1_556 S
H113 C86 0.931 . S
H114 C88 0.931 . S
H115 C89 0.931 1_566 S
H116 C94 0.930 . S
H117 C95 0.931 . S
H118 C97 0.931 . S
H119 C98 0.931 . S
Gd120 C123 2.818 . S
Gd120 O140 2.377 . S
Gd120 O142 2.448 . S
Gd120 O143 2.506 . S
Gd120 O144 2.435 . S
Gd120 O145 2.717 . S
Gd120 O147 2.395 . S
Gd120 O151 2.327 . S
Gd121 C132 2.818 . S
Gd121 O141 2.395 . S
Gd121 O145 2.327 . S
Gd121 O146 2.377 . S
Gd121 O148 2.448 . S
Gd121 O149 2.506 . S
Gd121 O150 2.435 . S
Gd121 O151 2.717 . S
C122 O140 1.240 . S
C122 O141 1.240 . S
C123 Gd120 2.818 . S
C123 C124 1.510 . S
C123 O142 1.249 . S
C123 O143 1.252 . S
C124 C123 1.510 . S
C124 C125 1.404 . S
C124 C126 1.352 . S
C125 C124 1.404 . S
C125 C129 1.389 . S
C125 H152 0.930 . S
C126 C124 1.352 . S
C126 C128 1.374 . S
C126 H153 0.931 . S
C127 C128 1.359 . S
C127 C129 1.364 . S
C128 C126 1.374 . S
C128 C127 1.359 . S
C128 H154 0.931 . S
C129 C125 1.389 . S
C129 C127 1.364 . S
C129 H155 0.931 . S
C130 O144 1.256 . S
C130 O145 1.257 . S
C131 O146 1.240 . S
C131 O147 1.240 . S
C132 Gd121 2.818 . S
C132 C133 1.510 . S
C132 O148 1.249 . S
C132 O149 1.252 . S
C133 C132 1.510 . S
C133 C134 1.404 . S
C133 C135 1.352 . S
C134 C133 1.404 . S
C134 C138 1.389 . S
C134 H156 0.930 . S
C135 C133 1.352 . S
C135 C137 1.374 1_565 S
C135 H157 0.931 . S
C136 C137 1.359 . S
C136 C138 1.364 1_545 S
C137 C135 1.374 1_545 S
C137 C136 1.359 . S
C137 H158 0.931 . S
C138 C134 1.389 . S
C138 C136 1.364 1_565 S
C138 H159 0.931 . S
C139 O150 1.256 . S
C139 O151 1.257 . S
O140 Gd120 2.377 . S
O140 C122 1.240 . S
O141 Gd121 2.395 . S
O141 C122 1.240 . S
O142 Gd120 2.448 . S
O142 C123 1.249 . S
O143 Gd120 2.506 . S
O143 C123 1.252 . S
O144 Gd120 2.435 . S
O144 C130 1.256 . S
O145 Gd120 2.717 . S
O145 Gd121 2.327 . S
O145 C130 1.257 . S
O146 Gd121 2.377 . S
O146 C131 1.240 . S
O147 Gd120 2.395 . S
O147 C131 1.240 . S
O148 Gd121 2.448 . S
O148 C132 1.249 . S
O149 Gd121 2.506 . S
O149 C132 1.252 . S
O150 Gd121 2.435 . S
O150 C139 1.256 . S
O151 Gd120 2.327 . S
O151 Gd121 2.717 . S
O151 C139 1.257 . S
H152 C125 0.930 . S
H153 C126 0.931 . S
H154 C128 0.931 . S
H155 C129 0.931 . S
H156 C134 0.930 . S
H157 C135 0.931 . S
H158 C137 0.931 . S
H159 C138 0.931 . S
Gd160 C163 2.818 . S
Gd160 O180 2.377 . S
Gd160 O182 2.448 . S
Gd160 O183 2.506 . S
Gd160 O184 2.435 . S
Gd160 O185 2.717 . S
Gd160 O187 2.395 . S
Gd160 O191 2.327 . S
Gd161 C172 2.818 . S
Gd161 O181 2.395 . S
Gd161 O185 2.327 . S
Gd161 O186 2.377 . S
Gd161 O188 2.448 . S
Gd161 O189 2.506 . S
Gd161 O190 2.435 . S
Gd161 O191 2.717 . S
C162 O180 1.240 . S
C162 O181 1.240 . S
C163 Gd160 2.818 . S
C163 C164 1.510 . S
C163 O182 1.249 . S
C163 O183 1.252 . S
C164 C163 1.510 . S
C164 C165 1.404 . S
C164 C166 1.352 . S
C165 C164 1.404 . S
C165 C169 1.389 . S
C165 H192 0.930 . S
C166 C164 1.352 . S
C166 C168 1.374 . S
C166 H193 0.931 . S
C167 C168 1.359 . S
C167 C169 1.364 . S
C168 C166 1.374 . S
C168 C167 1.359 . S
C168 H194 0.931 . S
C169 C165 1.389 . S
C169 C167 1.364 . S
C169 H195 0.931 . S
C170 O184 1.256 . S
C170 O185 1.257 . S
C171 O186 1.240 . S
C171 O187 1.240 . S
C172 Gd161 2.818 . S
C172 C173 1.510 . S
C172 O188 1.249 . S
C172 O189 1.252 . S
C173 C172 1.510 . S
C173 C174 1.404 . S
C173 C175 1.352 . S
C174 C173 1.404 . S
C174 C178 1.389 . S
C174 H196 0.930 . S
C175 C173 1.352 . S
C175 C177 1.374 . S
C175 H197 0.931 . S
C176 C177 1.359 . S
C176 C178 1.364 . S
C177 C175 1.374 . S
C177 C176 1.359 . S
C177 H198 0.931 . S
C178 C174 1.389 . S
C178 C176 1.364 . S
C178 H199 0.931 . S
C179 O190 1.256 . S
C179 O191 1.257 . S
O180 Gd160 2.377 . S
O180 C162 1.240 . S
O181 Gd161 2.395 . S
O181 C162 1.240 . S
O182 Gd160 2.448 . S
O182 C163 1.249 . S
O183 Gd160 2.506 . S
O183 C163 1.252 . S
O184 Gd160 2.435 . S
O184 C170 1.256 . S
O185 Gd160 2.717 . S
O185 Gd161 2.327 . S
O185 C170 1.257 . S
O186 Gd161 2.377 . S
O186 C171 1.240 . S
O187 Gd160 2.395 . S
O187 C171 1.240 . S
O188 Gd161 2.448 . S
O188 C172 1.249 . S
O189 Gd161 2.506 . S
O189 C172 1.252 . S
O190 Gd161 2.435 . S
O190 C179 1.256 . S
O191 Gd160 2.327 . S
O191 Gd161 2.717 . S
O191 C179 1.257 . S
H192 C165 0.930 . S
H193 C166 0.931 . S
H194 C168 0.931 . S
H195 C169 0.931 . S
H196 C174 0.930 . S
H197 C175 0.931 . S
H198 C177 0.931 . S
H199 C178 0.931 . S
Gd200 C203 2.818 . S
Gd200 O220 2.377 . S
Gd200 O222 2.448 . S
Gd200 O223 2.506 . S
Gd200 O224 2.435 . S
Gd200 O225 2.717 . S
Gd200 O227 2.395 . S
Gd200 O231 2.327 . S
Gd201 C212 2.818 . S
Gd201 O221 2.395 . S
Gd201 O225 2.327 . S
Gd201 O226 2.377 . S
Gd201 O228 2.448 . S
Gd201 O229 2.506 . S
Gd201 O230 2.435 . S
Gd201 O231 2.717 . S
C202 O220 1.240 . S
C202 O221 1.240 . S
C203 Gd200 2.818 . S
C203 C204 1.510 . S
C203 O222 1.249 . S
C203 O223 1.252 . S
C204 C203 1.510 . S
C204 C205 1.404 . S
C204 C206 1.352 . S
C205 C204 1.404 . S
C205 C209 1.389 . S
C205 H232 0.930 . S
C206 C204 1.352 . S
C206 C208 1.374 . S
C206 H233 0.931 . S
C207 C208 1.359 . S
C207 C209 1.364 . S
C208 C206 1.374 . S
C208 C207 1.359 . S
C208 H234 0.931 . S
C209 C205 1.389 . S
C209 C207 1.364 . S
C209 H235 0.931 . S
C210 O224 1.256 . S
C210 O225 1.257 . S
C211 O226 1.240 . S
C211 O227 1.240 . S
C212 Gd201 2.818 . S
C212 C213 1.510 . S
C212 O228 1.249 . S
C212 O229 1.252 . S
C213 C212 1.510 . S
C213 C214 1.404 . S
C213 C215 1.352 . S
C214 C213 1.404 . S
C214 C218 1.389 . S
C214 H236 0.930 . S
C215 C213 1.352 . S
C215 C217 1.374 . S
C215 H237 0.931 . S
C216 C217 1.359 . S
C216 C218 1.364 . S
C217 C215 1.374 . S
C217 C216 1.359 . S
C217 H238 0.931 . S
C218 C214 1.389 . S
C218 C216 1.364 . S
C218 H239 0.931 . S
C219 O230 1.256 . S
C219 O231 1.257 . S
O220 Gd200 2.377 . S
O220 C202 1.240 . S
O221 Gd201 2.395 . S
O221 C202 1.240 . S
O222 Gd200 2.448 . S
O222 C203 1.249 . S
O223 Gd200 2.506 . S
O223 C203 1.252 . S
O224 Gd200 2.435 . S
O224 C210 1.256 . S
O225 Gd200 2.717 . S
O225 Gd201 2.327 . S
O225 C210 1.257 . S
O226 Gd201 2.377 . S
O226 C211 1.240 . S
O227 Gd200 2.395 . S
O227 C211 1.240 . S
O228 Gd201 2.448 . S
O228 C212 1.249 . S
O229 Gd201 2.506 . S
O229 C212 1.252 . S
O230 Gd201 2.435 . S
O230 C219 1.256 . S
O231 Gd200 2.327 . S
O231 Gd201 2.717 . S
O231 C219 1.257 . S
H232 C205 0.930 . S
H233 C206 0.931 . S
H234 C208 0.931 . S
H235 C209 0.931 . S
H236 C214 0.930 . S
H237 C215 0.931 . S
H238 C217 0.931 . S
H239 C218 0.931 . S
Gd240 C243 2.818 . S
Gd240 O260 2.377 . S
Gd240 O262 2.448 . S
Gd240 O263 2.506 . S
Gd240 O264 2.435 . S
Gd240 O265 2.717 . S
Gd240 O267 2.395 . S
Gd240 O271 2.327 . S
Gd241 C252 2.818 . S
Gd241 O261 2.395 . S
Gd241 O265 2.327 . S
Gd241 O266 2.377 . S
Gd241 O268 2.448 . S
Gd241 O269 2.506 . S
Gd241 O270 2.435 . S
Gd241 O271 2.717 . S
C242 O260 1.240 . S
C242 O261 1.240 . S
C243 Gd240 2.818 . S
C243 C244 1.510 . S
C243 O262 1.249 . S
C243 O263 1.252 . S
C244 C243 1.510 . S
C244 C245 1.404 . S
C244 C246 1.352 . S
C245 C244 1.404 . S
C245 C249 1.389 . S
C245 H272 0.930 . S
C246 C244 1.352 . S
C246 C248 1.374 . S
C246 H273 0.931 . S
C247 C248 1.359 . S
C247 C249 1.364 . S
C248 C246 1.374 . S
C248 C247 1.359 . S
C248 H274 0.931 . S
C249 C245 1.389 . S
C249 C247 1.364 . S
C249 H275 0.931 . S
C250 O264 1.256 . S
C250 O265 1.257 . S
C251 O266 1.240 . S
C251 O267 1.240 . S
C252 Gd241 2.818 . S
C252 C253 1.510 1_556 S
C252 O268 1.249 . S
C252 O269 1.252 . S
C253 C252 1.510 1_554 S
C253 C254 1.404 . S
C253 C255 1.352 . S
C254 C253 1.404 . S
C254 C258 1.389 . S
C254 H276 0.930 . S
C255 C253 1.352 . S
C255 C257 1.374 . S
C255 H277 0.931 . S
C256 C257 1.359 . S
C256 C258 1.364 . S
C257 C255 1.374 . S
C257 C256 1.359 . S
C257 H278 0.931 . S
C258 C254 1.389 . S
C258 C256 1.364 . S
C258 H279 0.931 . S
C259 O270 1.256 . S
C259 O271 1.257 . S
O260 Gd240 2.377 . S
O260 C242 1.240 . S
O261 Gd241 2.395 . S
O261 C242 1.240 . S
O262 Gd240 2.448 . S
O262 C243 1.249 . S
O263 Gd240 2.506 . S
O263 C243 1.252 . S
O264 Gd240 2.435 . S
O264 C250 1.256 . S
O265 Gd240 2.717 . S
O265 Gd241 2.327 . S
O265 C250 1.257 . S
O266 Gd241 2.377 . S
O266 C251 1.240 . S
O267 Gd240 2.395 . S
O267 C251 1.240 . S
O268 Gd241 2.448 . S
O268 C252 1.249 . S
O269 Gd241 2.506 . S
O269 C252 1.252 . S
O270 Gd241 2.435 . S
O270 C259 1.256 . S
O271 Gd240 2.327 . S
O271 Gd241 2.717 . S
O271 C259 1.257 . S
H272 C245 0.930 . S
H273 C246 0.931 . S
H274 C248 0.931 . S
H275 C249 0.931 . S
H276 C254 0.930 . S
H277 C255 0.931 . S
H278 C257 0.931 . S
H279 C258 0.931 . S
Gd280 C283 2.818 . S
Gd280 O300 2.377 . S
Gd280 O302 2.448 . S
Gd280 O303 2.506 . S
Gd280 O304 2.435 . S
Gd280 O305 2.717 . S
Gd280 O307 2.395 . S
Gd280 O311 2.327 . S
Gd281 C292 2.818 . S
Gd281 O301 2.395 . S
Gd281 O305 2.327 . S
Gd281 O306 2.377 . S
Gd281 O308 2.448 . S
Gd281 O309 2.506 . S
Gd281 O310 2.435 . S
Gd281 O311 2.717 . S
C282 O300 1.240 . S
C282 O301 1.240 . S
C283 Gd280 2.818 . S
C283 C284 1.510 1_556 S
C283 O302 1.249 . S
C283 O303 1.252 . S
C284 C283 1.510 1_554 S
C284 C285 1.404 . S
C284 C286 1.352 . S
C285 C284 1.404 . S
C285 C289 1.389 . S
C285 H312 0.930 . S
C286 C284 1.352 . S
C286 C288 1.374 . S
C286 H313 0.931 . S
C287 C288 1.359 . S
C287 C289 1.364 . S
C288 C286 1.374 . S
C288 C287 1.359 . S
C288 H314 0.931 . S
C289 C285 1.389 . S
C289 C287 1.364 . S
C289 H315 0.931 . S
C290 O304 1.256 . S
C290 O305 1.257 . S
C291 O306 1.240 . S
C291 O307 1.240 . S
C292 Gd281 2.818 . S
C292 C293 1.510 . S
C292 O308 1.249 . S
C292 O309 1.252 . S
C293 C292 1.510 . S
C293 C294 1.404 . S
C293 C295 1.352 . S
C294 C293 1.404 . S
C294 C298 1.389 . S
C294 H316 0.930 . S
C295 C293 1.352 . S
C295 C297 1.374 . S
C295 H317 0.931 . S
C296 C297 1.359 . S
C296 C298 1.364 . S
C297 C295 1.374 . S
C297 C296 1.359 . S
C297 H318 0.931 . S
C298 C294 1.389 . S
C298 C296 1.364 . S
C298 H319 0.931 . S
C299 O310 1.256 . S
C299 O311 1.257 . S
O300 Gd280 2.377 . S
O300 C282 1.240 . S
O301 Gd281 2.395 . S
O301 C282 1.240 . S
O302 Gd280 2.448 . S
O302 C283 1.249 . S
O303 Gd280 2.506 . S
O303 C283 1.252 . S
O304 Gd280 2.435 . S
O304 C290 1.256 . S
O305 Gd280 2.717 . S
O305 Gd281 2.327 . S
O305 C290 1.257 . S
O306 Gd281 2.377 . S
O306 C291 1.240 . S
O307 Gd280 2.395 . S
O307 C291 1.240 . S
O308 Gd281 2.448 . S
O308 C292 1.249 . S
O309 Gd281 2.506 . S
O309 C292 1.252 . S
O310 Gd281 2.435 . S
O310 C299 1.256 . S
O311 Gd280 2.327 . S
O311 Gd281 2.717 . S
O311 C299 1.257 . S
H312 C285 0.930 . S
H313 C286 0.931 . S
H314 C288 0.931 . S
H315 C289 0.931 . S
H316 C294 0.930 . S
H317 C295 0.931 . S
H318 C297 0.931 . S
H319 C298 0.931 . S
Gd320 C323 2.818 . S
Gd320 O340 2.377 . S
Gd320 O342 2.448 . S
Gd320 O343 2.506 . S
Gd320 O344 2.435 . S
Gd320 O345 2.717 . S
Gd320 O347 2.395 . S
Gd320 O351 2.327 . S
Gd321 C332 2.818 . S
Gd321 O341 2.395 . S
Gd321 O345 2.327 . S
Gd321 O346 2.377 . S
Gd321 O348 2.448 . S
Gd321 O349 2.506 . S
Gd321 O350 2.435 . S
Gd321 O351 2.717 . S
C322 O340 1.240 . S
C322 O341 1.240 . S
C323 Gd320 2.818 . S
C323 C324 1.510 . S
C323 O342 1.249 . S
C323 O343 1.252 . S
C324 C323 1.510 . S
C324 C325 1.404 . S
C324 C326 1.352 . S
C325 C324 1.404 . S
C325 C329 1.389 . S
C325 H352 0.930 . S
C326 C324 1.352 . S
C326 C328 1.374 . S
C326 H353 0.931 . S
C327 C328 1.359 . S
C327 C329 1.364 . S
C328 C326 1.374 . S
C328 C327 1.359 . S
C328 H354 0.931 . S
C329 C325 1.389 . S
C329 C327 1.364 . S
C329 H355 0.931 . S
C330 O344 1.256 . S
C330 O345 1.257 . S
C331 O346 1.240 . S
C331 O347 1.240 . S
C332 Gd321 2.818 . S
C332 C333 1.510 1_556 S
C332 O348 1.249 . S
C332 O349 1.252 . S
C333 C332 1.510 1_554 S
C333 C334 1.404 . S
C333 C335 1.352 . S
C334 C333 1.404 . S
C334 C338 1.389 . S
C334 H356 0.930 . S
C335 C333 1.352 . S
C335 C337 1.374 . S
C335 H357 0.931 . S
C336 C337 1.359 . S
C336 C338 1.364 . S
C337 C335 1.374 . S
C337 C336 1.359 . S
C337 H358 0.931 . S
C338 C334 1.389 . S
C338 C336 1.364 . S
C338 H359 0.931 . S
C339 O350 1.256 . S
C339 O351 1.257 . S
O340 Gd320 2.377 . S
O340 C322 1.240 . S
O341 Gd321 2.395 . S
O341 C322 1.240 . S
O342 Gd320 2.448 . S
O342 C323 1.249 . S
O343 Gd320 2.506 . S
O343 C323 1.252 . S
O344 Gd320 2.435 . S
O344 C330 1.256 . S
O345 Gd320 2.717 . S
O345 Gd321 2.327 . S
O345 C330 1.257 . S
O346 Gd321 2.377 . S
O346 C331 1.240 . S
O347 Gd320 2.395 . S
O347 C331 1.240 . S
O348 Gd321 2.448 . S
O348 C332 1.249 . S
O349 Gd321 2.506 . S
O349 C332 1.252 . S
O350 Gd321 2.435 . S
O350 C339 1.256 . S
O351 Gd320 2.327 . S
O351 Gd321 2.717 . S
O351 C339 1.257 . S
H352 C325 0.930 . S
H353 C326 0.931 . S
H354 C328 0.931 . S
H355 C329 0.931 . S
H356 C334 0.930 . S
H357 C335 0.931 . S
H358 C337 0.931 . S
H359 C338 0.931 . S
C360 C361 1.387 . S
C360 H364 0.950 . S
C360 C369 1.390 . S
C361 C360 1.387 . S
C361 C363 1.387 . S
H362 C369 0.950 . S
C363 C361 1.387 . S
C363 C365 1.390 . S
C363 H367 0.950 . S
H364 C360 0.950 . S
C365 C363 1.390 . S
C365 C366 1.387 . S
C365 H368 0.950 . S
C366 C365 1.387 . S
C366 C369 1.387 . S
H367 C363 0.950 . S
H368 C365 0.950 . S
C369 C360 1.390 . S
C369 H362 0.950 . S
C369 C366 1.387 . S
C370 C371 1.387 . S
C370 H374 0.950 . S
C370 C379 1.390 . S
C371 C370 1.387 . S
C371 C373 1.387 . S
H372 C379 0.950 . S
C373 C371 1.387 . S
C373 C375 1.390 . S
C373 H377 0.950 . S
H374 C370 0.950 . S
C375 C373 1.390 . S
C375 C376 1.387 . S
C375 H378 0.950 . S
C376 C375 1.387 . S
C376 C379 1.387 . S
H377 C373 0.950 . S
H378 C375 0.950 . S
C379 C370 1.390 . S
C379 H372 0.950 . S
C379 C376 1.387 . S
C380 C381 1.387 . S
C380 H384 0.950 . S
C380 C389 1.390 . S
C381 C380 1.387 . S
C381 C383 1.387 . S
H382 C389 0.950 . S
C383 C381 1.387 . S
C383 C385 1.390 . S
C383 H387 0.950 . S
H384 C380 0.950 . S
C385 C383 1.390 . S
C385 C386 1.387 . S
C385 H388 0.950 . S
C386 C385 1.387 . S
C386 C389 1.387 . S
H387 C383 0.950 . S
H388 C385 0.950 . S
C389 C380 1.390 . S
C389 H382 0.950 . S
C389 C386 1.387 . S
C390 C391 1.387 . S
C390 H394 0.950 . S
C390 C399 1.390 . S
C391 C390 1.387 . S
C391 C393 1.387 . S
H392 C399 0.950 . S
C393 C391 1.387 . S
C393 C395 1.390 . S
C393 H397 0.950 . S
H394 C390 0.950 . S
C395 C393 1.390 . S
C395 C396 1.387 . S
C395 H398 0.950 . S
C396 C395 1.387 . S
C396 C399 1.387 . S
H397 C393 0.950 . S
H398 C395 0.950 . S
C399 C390 1.390 . S
C399 H392 0.950 . S
C399 C396 1.387 . S
C400 C401 1.387 . S
C400 H404 0.950 . S
C400 C409 1.390 . S
C401 C400 1.387 . S
C401 C403 1.387 . S
H402 C409 0.950 . S
C403 C401 1.387 . S
C403 C405 1.390 . S
C403 H407 0.950 . S
H404 C400 0.950 . S
C405 C403 1.390 . S
C405 C406 1.387 . S
C405 H408 0.950 . S
C406 C405 1.387 . S
C406 C409 1.387 . S
H407 C403 0.950 . S
H408 C405 0.950 . S
C409 C400 1.390 . S
C409 H402 0.950 . S
C409 C406 1.387 . S
C410 C411 1.387 . S
C410 H414 0.950 . S
C410 C419 1.390 . S
C411 C410 1.387 . S
C411 C413 1.387 . S
H412 C419 0.950 . S
C413 C411 1.387 . S
C413 C415 1.390 . S
C413 H417 0.950 . S
H414 C410 0.950 . S
C415 C413 1.390 . S
C415 C416 1.387 . S
C415 H418 0.950 . S
C416 C415 1.387 . S
C416 C419 1.387 . S
H417 C413 0.950 . S
H418 C415 0.950 . S
C419 C410 1.390 . S
C419 H412 0.950 . S
C419 C416 1.387 . S
C420 C421 1.387 . S
C420 H424 0.950 . S
C420 C429 1.390 . S
C421 C420 1.387 . S
C421 C423 1.387 . S
H422 C429 0.950 . S
C423 C421 1.387 . S
C423 C425 1.390 . S
C423 H427 0.950 . S
H424 C420 0.950 . S
C425 C423 1.390 . S
C425 C426 1.387 . S
C425 H428 0.950 . S
C426 C425 1.387 . S
C426 C429 1.387 . S
H427 C423 0.950 . S
H428 C425 0.950 . S
C429 C420 1.390 . S
C429 H422 0.950 . S
C429 C426 1.387 . S
C430 C431 1.387 . S
C430 H434 0.950 . S
C430 C439 1.390 . S
C431 C430 1.387 . S
C431 C433 1.387 . S
H432 C439 0.950 . S
C433 C431 1.387 . S
C433 C435 1.390 . S
C433 H437 0.950 . S
H434 C430 0.950 . S
C435 C433 1.390 . S
C435 C436 1.387 . S
C435 H438 0.950 . S
C436 C435 1.387 . S
C436 C439 1.387 . S
H437 C433 0.950 . S
H438 C435 0.950 . S
C439 C430 1.390 . S
C439 H432 0.950 . S
C439 C436 1.387 . S
C440 C441 1.387 . S
C440 H444 0.950 . S
C440 C449 1.390 . S
C441 C440 1.387 . S
C441 C443 1.387 . S
H442 C449 0.950 . S
C443 C441 1.387 . S
C443 C445 1.390 . S
C443 H447 0.950 . S
H444 C440 0.950 . S
C445 C443 1.390 . S
C445 C446 1.387 . S
C445 H448 0.950 . S
C446 C445 1.387 . S
C446 C449 1.387 . S
H447 C443 0.950 . S
H448 C445 0.950 . S
C449 C440 1.390 . S
C449 H442 0.950 . S
C449 C446 1.387 . S
C450 C451 1.387 . S
C450 H454 0.950 . S
C450 C459 1.390 . S
C451 C450 1.387 . S
C451 C453 1.387 . S
H452 C459 0.950 . S
C453 C451 1.387 . S
C453 C455 1.390 . S
C453 H457 0.950 . S
H454 C450 0.950 . S
C455 C453 1.390 . S
C455 C456 1.387 . S
C455 H458 0.950 . S
C456 C455 1.387 . S
C456 C459 1.387 . S
H457 C453 0.950 . S
H458 C455 0.950 . S
C459 C450 1.390 . S
C459 H452 0.950 . S
C459 C456 1.387 . S
C460 C461 1.387 . S
C460 H464 0.950 . S
C460 C469 1.390 . S
C461 C460 1.387 . S
C461 C463 1.387 . S
H462 C469 0.950 . S
C463 C461 1.387 . S
C463 C465 1.390 . S
C463 H467 0.950 . S
H464 C460 0.950 . S
C465 C463 1.390 . S
C465 C466 1.387 . S
C465 H468 0.950 . S
C466 C465 1.387 . S
C466 C469 1.387 . S
H467 C463 0.950 . S
H468 C465 0.950 . S
C469 C460 1.390 . S
C469 H462 0.950 . S
C469 C466 1.387 . S
C470 C471 1.387 . S
C470 H474 0.950 . S
C470 C479 1.390 . S
C471 C470 1.387 . S
C471 C473 1.387 1_545 S
H472 C479 0.950 . S
C473 C471 1.387 1_565 S
C473 C475 1.390 . S
C473 H477 0.950 . S
H474 C470 0.950 . S
C475 C473 1.390 . S
C475 C476 1.387 . S
C475 H478 0.950 . S
C476 C475 1.387 . S
C476 C479 1.387 1_565 S
H477 C473 0.950 . S
H478 C475 0.950 . S
C479 C470 1.390 . S
C479 H472 0.950 . S
C479 C476 1.387 1_545 S
C480 C481 1.387 . S
C480 H484 0.950 . S
C480 C489 1.390 1_554 S
C481 C480 1.387 . S
C481 C483 1.387 . S
H482 C489 0.950 . S
C483 C481 1.387 . S
C483 C485 1.390 1_554 S
C483 H487 0.950 . S
H484 C480 0.950 . S
C485 C483 1.390 1_556 S
C485 C486 1.387 . S
C485 H488 0.950 . S
C486 C485 1.387 . S
C486 C489 1.387 . S
H487 C483 0.950 . S
H488 C485 0.950 . S
C489 C480 1.390 1_556 S
C489 H482 0.950 . S
C489 C486 1.387 . S
C490 C491 1.387 . S
C490 H494 0.950 . S
C490 C499 1.390 . S
C491 C490 1.387 . S
C491 C493 1.387 . S
H492 C499 0.950 . S
C493 C491 1.387 . S
C493 C495 1.390 1_655 S
C493 H497 0.950 1_655 S
H494 C490 0.950 . S
C495 C493 1.390 1_455 S
C495 C496 1.387 1_455 S
C495 H498 0.950 . S
C496 C495 1.387 1_655 S
C496 C499 1.387 . S
H497 C493 0.950 1_455 S
H498 C495 0.950 . S
C499 C490 1.390 . S
C499 H492 0.950 . S
C499 C496 1.387 . S
C500 C501 1.387 . S
C500 H504 0.950 . S
C500 C509 1.390 . S
C501 C500 1.387 . S
C501 C503 1.387 . S
H502 C509 0.950 1_554 S
C503 C501 1.387 . S
C503 C505 1.390 1_556 S
C503 H507 0.950 . S
H504 C500 0.950 . S
C505 C503 1.390 1_554 S
C505 C506 1.387 . S
C505 H508 0.950 . S
C506 C505 1.387 . S
C506 C509 1.387 1_554 S
H507 C503 0.950 . S
H508 C505 0.950 . S
C509 C500 1.390 . S
C509 H502 0.950 1_556 S
C509 C506 1.387 1_556 S
C510 C511 1.387 . S
C510 H514 0.950 . S
C510 C519 1.390 . S
C511 C510 1.387 . S
C511 C513 1.387 . S
H512 C519 0.950 . S
C513 C511 1.387 . S
C513 C515 1.390 . S
C513 H517 0.950 . S
H514 C510 0.950 . S
C515 C513 1.390 . S
C515 C516 1.387 . S
C515 H518 0.950 . S
C516 C515 1.387 . S
C516 C519 1.387 . S
H517 C513 0.950 . S
H518 C515 0.950 . S
C519 C510 1.390 . S
C519 H512 0.950 . S
C519 C516 1.387 . S
C520 C521 1.387 1_554 S
C520 H524 0.950 . S
C520 C529 1.390 1_554 S
C521 C520 1.387 1_556 S
C521 C523 1.387 . S
H522 C529 0.950 . S
C523 C521 1.387 . S
C523 C525 1.390 . S
C523 H527 0.950 . S
H524 C520 0.950 . S
C525 C523 1.390 . S
C525 C526 1.387 . S
C525 H528 0.950 . S
C526 C525 1.387 . S
C526 C529 1.387 . S
H527 C523 0.950 . S
H528 C525 0.950 . S
C529 C520 1.390 1_556 S
C529 H522 0.950 . S
C529 C526 1.387 . S
C530 C531 1.387 . S
C530 H534 0.950 . S
C530 C539 1.390 . S
C531 C530 1.387 . S
C531 C533 1.387 . S
H532 C539 0.950 . S
C533 C531 1.387 . S
C533 C535 1.390 1_556 S
C533 H537 0.950 . S
H534 C530 0.950 . S
C535 C533 1.390 1_554 S
C535 C536 1.387 . S
C535 H538 0.950 . S
C536 C535 1.387 . S
C536 C539 1.387 1_554 S
H537 C533 0.950 . S
H538 C535 0.950 . S
C539 C530 1.390 . S
C539 H532 0.950 . S
C539 C536 1.387 1_556 S
C540 C541 1.387 . S
C540 H544 0.950 . S
C540 C549 1.390 . S
C541 C540 1.387 . S
C541 C543 1.387 . S
H542 C549 0.950 . S
C543 C541 1.387 . S
C543 C545 1.390 . S
C543 H547 0.950 . S
H544 C540 0.950 . S
C545 C543 1.390 . S
C545 C546 1.387 . S
C545 H548 0.950 . S
C546 C545 1.387 . S
C546 C549 1.387 . S
H547 C543 0.950 . S
H548 C545 0.950 . S
C549 C540 1.390 . S
C549 H542 0.950 . S
C549 C546 1.387 . S
C550 C551 1.387 . S
C550 H554 0.950 . S
C550 C559 1.390 . S
C551 C550 1.387 . S
C551 C553 1.387 . S
H552 C559 0.950 . S
C553 C551 1.387 . S
C553 C555 1.390 . S
C553 H557 0.950 . S
H554 C550 0.950 . S
C555 C553 1.390 . S
C555 C556 1.387 . S
C555 H558 0.941 1_554 S
C556 C555 1.387 . S
C556 C559 1.387 . S
H557 C553 0.950 . S
H558 C555 0.941 1_556 S
C559 C550 1.390 . S
C559 H552 0.950 . S
C559 C556 1.387 . S
C560 C561 1.387 . S
C560 H564 0.950 . S
C560 C569 1.390 . S
C561 C560 1.387 . S
C561 C563 1.387 . S
H562 C569 0.950 . S
C563 C561 1.387 . S
C563 C565 1.390 . S
C563 H567 0.950 . S
H564 C560 0.950 . S
C565 C563 1.390 . S
C565 C566 1.387 . S
C565 H568 0.950 . S
C566 C565 1.387 . S
C566 C569 1.387 . S
H567 C563 0.950 . S
H568 C565 0.950 . S
C569 C560 1.390 . S
C569 H562 0.950 . S
C569 C566 1.387 . S
C570 C571 1.387 . S
C570 H574 0.950 . S
C570 C579 1.390 . S
C571 C570 1.387 . S
C571 C573 1.387 . S
H572 C579 0.950 . S
C573 C571 1.387 . S
C573 C575 1.390 . S
C573 H577 0.950 . S
H574 C570 0.950 . S
C575 C573 1.390 . S
C575 C576 1.387 . S
C575 H578 0.950 . S
C576 C575 1.387 . S
C576 C579 1.387 . S
H577 C573 0.950 . S
H578 C575 0.950 . S
C579 C570 1.390 . S
C579 H572 0.950 . S
C579 C576 1.387 . S
C580 C581 1.387 . S
C580 H584 0.950 . S
C580 C589 1.390 . S
C581 C580 1.387 . S
C581 C583 1.387 . S
H582 C589 0.950 1_565 S
C583 C581 1.387 . S
C583 C585 1.390 1_545 S
C583 H587 0.950 . S
H584 C580 0.950 . S
C585 C583 1.390 1_565 S
C585 C586 1.387 . S
C585 H588 0.950 . S
C586 C585 1.387 . S
C586 C589 1.387 1_565 S
H587 C583 0.950 . S
H588 C585 0.950 . S
C589 C580 1.390 . S
C589 H582 0.950 1_545 S
C589 C586 1.387 1_545 S
C590 C591 1.387 . S
C590 H594 0.950 1_655 S
C590 C599 1.390 1_655 S
C591 C590 1.387 . S
C591 C593 1.387 . S
H592 C599 0.950 . S
C593 C591 1.387 . S
C593 C595 1.390 . S
C593 H597 0.950 . S
H594 C590 0.950 1_455 S
C595 C593 1.390 . S
C595 C596 1.387 . S
C595 H598 0.950 . S
C596 C595 1.387 . S
C596 C599 1.387 1_655 S
H597 C593 0.950 . S
H598 C595 0.950 . S
C599 C590 1.390 1_455 S
C599 H592 0.950 . S
C599 C596 1.387 1_455 S
C600 C601 1.387 . S
C600 H604 0.950 . S
C600 C609 1.390 . S
C601 C600 1.387 . S
C601 C603 1.387 . S
H602 C609 0.950 . S
C603 C601 1.387 . S
C603 C605 1.390 . S
C603 H607 0.950 . S
H604 C600 0.950 . S
C605 C603 1.390 . S
C605 C606 1.387 . S
C605 H608 0.950 . S
C606 C605 1.387 . S
C606 C609 1.387 . S
H607 C603 0.950 . S
H608 C605 0.950 . S
C609 C600 1.390 . S
C609 H602 0.950 . S
C609 C606 1.387 . S
C610 C611 1.387 1_545 S
C610 H614 0.950 . S
C610 C619 1.390 . S
C611 C610 1.387 1_565 S
C611 C613 1.387 1_565 S
H612 C619 0.950 . S
C613 C611 1.387 1_545 S
C613 C615 1.390 . S
C613 H617 0.950 1_545 S
H614 C610 0.950 . S
C615 C613 1.390 . S
C615 C616 1.387 . S
C615 H618 0.950 . S
C616 C615 1.387 . S
C616 C619 1.387 . S
H617 C613 0.950 1_565 S
H618 C615 0.950 . S
C619 C610 1.390 . S
C619 H612 0.950 . S
C619 C616 1.387 . S
C620 C621 1.387 . S
C620 H624 0.950 . S
C620 C629 1.390 . S
C621 C620 1.387 . S
C621 C623 1.387 . S
H622 C629 0.950 . S
C623 C621 1.387 . S
C623 C625 1.390 1_655 S
C623 H627 0.950 1_655 S
H624 C620 0.950 . S
C625 C623 1.390 1_455 S
C625 C626 1.387 1_455 S
C625 H628 0.950 . S
C626 C625 1.387 1_655 S
C626 C629 1.387 . S
H627 C623 0.950 1_455 S
H628 C625 0.950 . S
C629 C620 1.390 . S
C629 H622 0.950 . S
C629 C626 1.387 . S
C361 C10 3.639 . S
C366 C19 3.639 . S
C371 C59 3.733 . S
C376 C50 3.733 . S
C381 C90 3.777 . S
C386 C99 3.777 . S
C391 C139 3.639 . S
C396 C130 3.639 1_556 S
C401 C170 3.733 . S
C406 C179 3.733 1_556 S
C411 C219 3.777 . S
C416 C210 3.777 1_556 S
C421 C247 0.314 . S
C426 C256 0.314 . S
C431 C296 0.247 . S
C436 C287 0.247 . S
C441 C327 0.646 . S
C446 C336 0.646 . S
C451 C202 1.617 . S
C456 C7 1.631 . S
C461 C42 2.665 . S
C466 C122 2.703 . S
C471 C87 1.190 . S
C476 C167 1.205 . S
C481 C82 3.095 . S
C486 C251 3.260 . S
C491 C299 1.404 . S
C496 C2 1.301 1_656 S
C501 C331 2.206 . S
C506 C47 1.978 . S
C511 C330 1.173 . S
C516 C16 1.049 . S
C521 C51 2.387 1_556 S
C526 C250 2.465 . S
C531 C282 3.126 . S
C536 C96 2.849 . S
C541 C91 1.618 . S
C546 C136 1.630 . S
C551 C171 2.664 . S
C556 C11 2.703 . S
C561 C56 1.209 . S
C566 C216 1.195 . S
C571 C339 1.173 . S
C576 C127 1.048 . S
C581 C259 2.465 . S
C586 C162 2.388 . S
C591 C291 3.126 . S
C596 C207 2.849 1_655 S
C601 C242 3.260 . S
C606 C211 3.095 . S
C611 C131 1.301 . S
C616 C290 1.404 . S
C621 C322 2.204 . S
C626 C176 1.974 1_655 S
