# Generated by pormake.
# Topology wjd, (6)-cn, num edge types: 1
# Building blocks:
#     Node 0, Type 0, BuildingBlock: NUHQIS_clean_sbu_0, # of connection points: 6
#     Node 1, Type 0, BuildingBlock: NUHQIS_clean_sbu_0, # of connection points: 6
#     Node 2, Type 0, BuildingBlock: NUHQIS_clean_sbu_0, # of connection points: 6
#     Node 3, Type 0, BuildingBlock: NUHQIS_clean_sbu_0, # of connection points: 6
#     Node 4, Type 0, BuildingBlock: NUHQIS_clean_sbu_0, # of connection points: 6
#     Node 5, Type 0, BuildingBlock: NUHQIS_clean_sbu_0, # of connection points: 6
#     Node 6, Type 0, BuildingBlock: NUHQIS_clean_sbu_0, # of connection points: 6
#     Node 7, Type 0, BuildingBlock: NUHQIS_clean_sbu_0, # of connection points: 6
#     Node 8, Type 0, BuildingBlock: NUHQIS_clean_sbu_0, # of connection points: 6
#     Node 9, Type 0, BuildingBlock: NUHQIS_clean_sbu_0, # of connection points: 6
#     Node 10, Type 0, BuildingBlock: NUHQIS_clean_sbu_0, # of connection points: 6
#     Node 11, Type 0, BuildingBlock: NUHQIS_clean_sbu_0, # of connection points: 6
#     Edge 12, Type (0, 0), BuildingBlock: UVAHIK_clean_linker_0, # of connection points: 2
#     Edge 13, Type (0, 0), BuildingBlock: UVAHIK_clean_linker_0, # of connection points: 2
#     Edge 14, Type (0, 0), BuildingBlock: UVAHIK_clean_linker_0, # of connection points: 2
#     Edge 15, Type (0, 0), BuildingBlock: UVAHIK_clean_linker_0, # of connection points: 2
#     Edge 16, Type (0, 0), BuildingBlock: UVAHIK_clean_linker_0, # of connection points: 2
#     Edge 17, Type (0, 0), BuildingBlock: UVAHIK_clean_linker_0, # of connection points: 2
#     Edge 18, Type (0, 0), BuildingBlock: UVAHIK_clean_linker_0, # of connection points: 2
#     Edge 19, Type (0, 0), BuildingBlock: UVAHIK_clean_linker_0, # of connection points: 2
#     Edge 20, Type (0, 0), BuildingBlock: UVAHIK_clean_linker_0, # of connection points: 2
#     Edge 21, Type (0, 0), BuildingBlock: UVAHIK_clean_linker_0, # of connection points: 2
#     Edge 22, Type (0, 0), BuildingBlock: UVAHIK_clean_linker_0, # of connection points: 2
#     Edge 23, Type (0, 0), BuildingBlock: UVAHIK_clean_linker_0, # of connection points: 2
#     Edge 24, Type (0, 0), BuildingBlock: UVAHIK_clean_linker_0, # of connection points: 2
#     Edge 25, Type (0, 0), BuildingBlock: UVAHIK_clean_linker_0, # of connection points: 2
#     Edge 26, Type (0, 0), BuildingBlock: UVAHIK_clean_linker_0, # of connection points: 2
#     Edge 27, Type (0, 0), BuildingBlock: UVAHIK_clean_linker_0, # of connection points: 2
#     Edge 28, Type (0, 0), BuildingBlock: UVAHIK_clean_linker_0, # of connection points: 2
#     Edge 29, Type (0, 0), BuildingBlock: UVAHIK_clean_linker_0, # of connection points: 2
#     Edge 30, Type (0, 0), BuildingBlock: UVAHIK_clean_linker_0, # of connection points: 2
#     Edge 31, Type (0, 0), BuildingBlock: UVAHIK_clean_linker_0, # of connection points: 2
#     Edge 32, Type (0, 0), BuildingBlock: UVAHIK_clean_linker_0, # of connection points: 2
#     Edge 33, Type (0, 0), BuildingBlock: UVAHIK_clean_linker_0, # of connection points: 2
#     Edge 34, Type (0, 0), BuildingBlock: UVAHIK_clean_linker_0, # of connection points: 2
#     Edge 35, Type (0, 0), BuildingBlock: UVAHIK_clean_linker_0, # of connection points: 2
#     Edge 36, Type (0, 0), BuildingBlock: UVAHIK_clean_linker_0, # of connection points: 2
#     Edge 37, Type (0, 0), BuildingBlock: UVAHIK_clean_linker_0, # of connection points: 2
#     Edge 38, Type (0, 0), BuildingBlock: UVAHIK_clean_linker_0, # of connection points: 2
#     Edge 39, Type (0, 0), BuildingBlock: UVAHIK_clean_linker_0, # of connection points: 2
#     Edge 40, Type (0, 0), BuildingBlock: UVAHIK_clean_linker_0, # of connection points: 2
#     Edge 41, Type (0, 0), BuildingBlock: UVAHIK_clean_linker_0, # of connection points: 2
#     Edge 42, Type (0, 0), BuildingBlock: UVAHIK_clean_linker_0, # of connection points: 2
#     Edge 43, Type (0, 0), BuildingBlock: UVAHIK_clean_linker_0, # of connection points: 2
#     Edge 44, Type (0, 0), BuildingBlock: UVAHIK_clean_linker_0, # of connection points: 2
#     Edge 45, Type (0, 0), BuildingBlock: UVAHIK_clean_linker_0, # of connection points: 2
#     Edge 46, Type (0, 0), BuildingBlock: UVAHIK_clean_linker_0, # of connection points: 2
#     Edge 47, Type (0, 0), BuildingBlock: UVAHIK_clean_linker_0, # of connection points: 2
# Relax obj value: 0.087
# Max RMSD: 0.194
# Mean RMSD: 0.194
data_MOF--net-wjd--node1-NUHQIS_clean_sbu_0--edge1-UVAHIK_clean_linker_0
_symmetry_space_group_name_H-M    P1
_symmetry_Int_Tables_number       1
_symmetry_cell_setting            triclinic
loop_
_symmetry_equiv_pos_as_xyz
'x, y, z'
_cell_length_a     49.211883
_cell_length_b     49.361822
_cell_length_c     70.81399
_cell_angle_alpha  89.935208
_cell_angle_beta   90.087713
_cell_angle_gamma 120.13454
loop_
_atom_site_label
_atom_site_type_symbol
_atom_site_fract_x
_atom_site_fract_y
_atom_site_fract_z
_atom_type_partial_charge
Tb0 Tb 0.37096 0.1758 0.11438 0.0
Eu1 Eu 0.32953 0.10428 0.13144 0.0
C2 C 0.33192 0.11721 0.08812 0.0
C3 C 0.30036 0.14845 0.12441 0.0
C4 C 0.42927 0.26172 0.107 0.0
C5 C 0.45665 0.31854 0.10446 0.0
C6 C 0.43137 0.28911 0.09969 0.0
C7 C 0.45281 0.26415 0.11929 0.0
C8 C 0.47826 0.29366 0.12403 0.0
C9 C 0.48049 0.32126 0.11667 0.0
C10 C 0.40223 0.23114 0.10158 0.0
O11 O 0.36948 0.18073 0.14522 0.0
O12 O 0.36129 0.13271 0.15495 0.0
O13 O 0.37697 0.11106 0.12241 0.0
O14 O 0.40557 0.16466 0.1249 0.0
C15 C 0.36978 0.162 0.15846 0.0
O16 O 0.29997 0.07108 0.15306 0.0
O17 O 0.30931 0.0539 0.12711 0.0
O18 O 0.31259 0.10457 0.10226 0.0
O19 O 0.35945 0.14264 0.09072 0.0
O20 O 0.32184 0.16262 0.11133 0.0
O21 O 0.30221 0.12917 0.13644 0.0
C22 C 0.40415 0.13744 0.12359 0.0
O23 O 0.4079 0.20872 0.09741 0.0
O24 O 0.37707 0.22099 0.11188 0.0
C25 C 0.25852 0.02382 0.14025 0.0
C26 C 0.19385 0.97959 0.13543 0.0
C27 C 0.20379 1.01093 0.14012 0.0
C28 C 0.23576 0.03282 0.14242 0.0
C29 C 0.24878 0.99271 0.13545 0.0
C30 C 0.21685 0.97086 0.13301 0.0
C31 C 0.29242 0.04665 0.14246 0.0
H32 H 0.45777 0.33917 0.0983 0.0
H33 H 0.41346 0.28774 0.09017 0.0
H34 H 0.45153 0.24329 0.12521 0.0
H35 H 0.496 0.29488 0.13362 0.0
H36 H 0.18687 0.01852 0.14233 0.0
H37 H 0.24262 0.05677 0.14594 0.0
H38 H 0.26593 0.98532 0.13349 0.0
H39 H 0.21026 0.94716 0.12904 0.0
Tb40 Tb 0.80366 0.70187 0.38712 0.0
Eu41 Eu 0.83337 0.65856 0.40217 0.0
C42 C 0.83101 0.67335 0.3584 0.0
C43 C 0.76128 0.62729 0.38686 0.0
C44 C 0.79837 0.77318 0.37654 0.0
C45 C 0.79437 0.81748 0.36511 0.0
C46 C 0.78293 0.78519 0.36575 0.0
C47 C 0.82607 0.79403 0.38618 0.0
C48 C 0.83753 0.82634 0.38558 0.0
C49 C 0.82146 0.83846 0.37533 0.0
C50 C 0.78404 0.73898 0.37887 0.0
O51 O 0.78294 0.6798 0.41377 0.0
O52 O 0.82632 0.68344 0.42713 0.0
O53 O 0.87409 0.70537 0.39477 0.0
O54 O 0.85062 0.73506 0.39816 0.0
C55 C 0.80013 0.6842 0.42875 0.0
O56 O 0.83057 0.62087 0.42004 0.0
O57 O 0.87192 0.64893 0.40297 0.0
O58 O 0.82687 0.65144 0.37057 0.0
O59 O 0.83017 0.69846 0.36366 0.0
O60 O 0.76608 0.65428 0.37997 0.0
O61 O 0.78222 0.62487 0.39718 0.0
C62 C 0.87599 0.73262 0.39677 0.0
O63 O 0.79078 0.72401 0.36627 0.0
O64 O 0.78499 0.7296 0.39593 0.0
C65 C 0.85823 0.59606 0.40855 0.0
C66 C 0.86428 0.54338 0.39969 0.0
C67 C 0.85526 0.54717 0.4179 0.0
C68 C 0.85238 0.57327 0.42228 0.0
C69 C 0.86666 0.59207 0.39021 0.0
C70 C 0.86976 0.56606 0.38586 0.0
C71 C 0.85723 0.62454 0.41393 0.0
H72 H 0.78172 0.82599 0.35679 0.0
H73 H 0.76155 0.76951 0.35819 0.0
H74 H 0.83827 0.78526 0.39471 0.0
H75 H 0.85825 0.84167 0.39376 0.0
H76 H 0.85116 0.53033 0.42894 0.0
H77 H 0.84607 0.57592 0.43653 0.0
H78 H 0.87123 0.6092 0.37928 0.0
H79 H 0.87633 0.56365 0.37164 0.0
Tb80 Tb 0.85627 0.20039 0.11357 0.0
Eu81 Eu 0.92831 0.23317 0.13092 0.0
C82 C 0.9153 0.23054 0.08737 0.0
C83 C 0.88946 0.16066 0.12028 0.0
C84 C 0.77103 0.17373 0.10235 0.0
C85 C 0.71767 0.15496 0.09132 0.0
C86 C 0.74741 0.15836 0.08878 0.0
C87 C 0.76472 0.18632 0.11841 0.0
C88 C 0.73489 0.18297 0.12097 0.0
C89 C 0.71083 0.16686 0.10756 0.0
C90 C 0.80115 0.17444 0.09991 0.0
O91 O 0.85146 0.20818 0.14359 0.0
O92 O 0.89453 0.20636 0.15422 0.0
O93 O 0.91246 0.26823 0.13679 0.0
O94 O 0.87268 0.25026 0.11466 0.0
C95 C 0.86735 0.20442 0.15733 0.0
O96 O 0.96125 0.23771 0.15321 0.0
O97 O 0.9787 0.26489 0.12763 0.0
O98 O 0.93037 0.24967 0.10123 0.0
O99 O 0.8882 0.20489 0.09042 0.0
O100 O 0.86385 0.16243 0.12194 0.0
O101 O 0.91734 0.18599 0.11941 0.0
C102 C 0.89192 0.27174 0.12666 0.0
O103 O 0.82476 0.20002 0.09318 0.0
O104 O 0.80979 0.16303 0.11373 0.0
C105 C 1.00975 0.24604 0.14152 0.0
C106 C 0.05531 0.22739 0.13878 0.0
C107 C 0.05365 0.24301 0.15497 0.0
C108 C 0.03113 0.25233 0.15628 0.0
C109 C 1.01103 0.23006 0.12544 0.0
C110 C 0.03371 0.22099 0.12404 0.0
C111 C 0.98598 0.25577 0.14315 0.0
H112 H 0.69999 0.14295 0.08054 0.0
H113 H 0.75181 0.14849 0.07629 0.0
H114 H 0.78262 0.19816 0.12911 0.0
H115 H 0.73043 0.19225 0.1337 0.0
H116 H 0.0701 0.24849 0.16649 0.0
H117 H 0.03043 0.26451 0.16883 0.0
H118 H 0.99449 0.22457 0.11396 0.0
H119 H 0.03412 0.20864 0.11151 0.0
Tb120 Tb 0.33046 0.10701 0.38384 0.0
Eu121 Eu 0.37107 0.1782 0.40159 0.0
C122 C 0.36839 0.16368 0.35685 0.0
C123 C 0.40412 0.13912 0.39091 0.0
C124 C 0.26187 0.02843 0.37489 0.0
C125 C 0.21691 0.97716 0.36822 0.0
C126 C 0.24874 0.99934 0.36583 0.0
C127 C 0.24274 0.03519 0.38634 0.0
C128 C 0.21087 1.01301 0.38874 0.0
C129 C 0.19754 0.98363 0.37975 0.0
C130 C 0.29543 0.05157 0.3723 0.0
O131 O 0.31393 0.10522 0.41232 0.0
O132 O 0.35951 0.14302 0.42548 0.0
O133 O 0.32011 0.1631 0.40498 0.0
O134 O 0.30248 0.12981 0.37971 0.0
C135 C 0.33248 0.11668 0.42696 0.0
O136 O 0.40925 0.2131 0.41905 0.0
O137 O 0.37798 0.22531 0.40467 0.0
O138 O 0.36827 0.18285 0.36976 0.0
O139 O 0.36077 0.13477 0.36095 0.0
O140 O 0.37651 0.11313 0.39212 0.0
O141 O 0.40641 0.16673 0.3902 0.0
C142 C 0.29891 0.14785 0.39194 0.0
O143 O 0.30156 0.07642 0.36255 0.0
O144 O 0.31287 0.05876 0.38741 0.0
C145 C 0.43022 0.26618 0.40969 0.0
C146 C 0.48133 0.32595 0.40029 0.0
C147 C 0.45836 0.32286 0.41332 0.0
C148 C 0.43313 0.29331 0.41795 0.0
C149 C 0.45288 0.269 0.39658 0.0
C150 C 0.47825 0.29861 0.39196 0.0
C151 C 0.4033 0.23539 0.4149 0.0
H152 H 0.2074 0.95503 0.36084 0.0
H153 H 0.26309 0.99378 0.35687 0.0
H154 H 0.25251 0.05758 0.39346 0.0
H155 H 0.1968 0.0187 0.39786 0.0
H156 H 0.46014 0.34326 0.42021 0.0
H157 H 0.41588 0.29163 0.4281 0.0
H158 H 0.45094 0.24835 0.38992 0.0
H159 H 0.49527 0.3001 0.38172 0.0
Tb160 Tb 0.8283 0.65907 0.11509 0.0
Eu161 Eu 0.7979 0.70177 0.12934 0.0
C162 C 0.79444 0.68173 0.08775 0.0
C163 C 0.87076 0.7321 0.11925 0.0
C164 C 0.85196 0.59775 0.10828 0.0
C165 C 0.84921 0.54947 0.09782 0.0
C166 C 0.84684 0.57603 0.09399 0.0
C167 C 0.85901 0.59214 0.12663 0.0
C168 C 0.8616 0.56566 0.13044 0.0
C169 C 0.85699 0.54413 0.11604 0.0
C170 C 0.85198 0.62695 0.10341 0.0
O171 O 0.82247 0.65183 0.14568 0.0
O172 O 0.82571 0.69851 0.15344 0.0
O173 O 0.76022 0.65221 0.13676 0.0
O174 O 0.77909 0.6249 0.11988 0.0
C175 C 0.82723 0.67358 0.15816 0.0
O176 O 0.78528 0.72612 0.15041 0.0
O177 O 0.7773 0.72979 0.12067 0.0
O178 O 0.7764 0.678 0.1021 0.0
O179 O 0.82132 0.68271 0.09068 0.0
O180 O 0.86788 0.70455 0.12209 0.0
O181 O 0.84595 0.73526 0.11721 0.0
C182 C 0.75711 0.62588 0.12997 0.0
O183 O 0.82597 0.62422 0.09679 0.0
O184 O 0.8657 0.65019 0.11524 0.0
C185 C 0.79146 0.77432 0.13926 0.0
C186 C 0.81471 0.83963 0.13892 0.0
C187 C 0.78605 0.819 0.14786 0.0
C188 C 0.77453 0.78667 0.14797 0.0
C189 C 0.82062 0.7948 0.13094 0.0
C190 C 0.83213 0.82714 0.13075 0.0
C191 C 0.77747 0.74009 0.13764 0.0
H192 H 0.84582 0.53356 0.08636 0.0
H193 H 0.84161 0.57995 0.07971 0.0
H194 H 0.86299 0.60841 0.13799 0.0
H195 H 0.86722 0.56204 0.14468 0.0
H196 H 0.77228 0.82778 0.15463 0.0
H197 H 0.75201 0.77126 0.15449 0.0
H198 H 0.83404 0.7857 0.12408 0.0
H199 H 0.85412 0.84219 0.1236 0.0
Tb200 Tb 0.92632 0.22804 0.38048 0.0
Eu201 Eu 0.8561 0.19763 0.40038 0.0
C202 C 0.86495 0.2016 0.35569 0.0
C203 C 0.89433 0.26926 0.38626 0.0
C204 C 1.00501 0.23979 0.36913 0.0
C205 C 0.05 0.23743 0.3571 0.0
C206 C 0.02725 0.24629 0.35492 0.0
C207 C 1.0058 0.22434 0.38561 0.0
C208 C 0.02867 0.21565 0.38785 0.0
C209 C 0.05096 0.22196 0.37358 0.0
C210 C 0.98025 0.24784 0.36622 0.0
O211 O 0.93358 0.24366 0.40956 0.0
O212 O 0.89073 0.20287 0.42352 0.0
O213 O 0.86297 0.15825 0.3909 0.0
O214 O 0.91657 0.18305 0.39235 0.0
C215 C 0.91977 0.22656 0.42449 0.0
O216 O 0.82366 0.19917 0.42096 0.0
O217 O 0.80786 0.15897 0.40266 0.0
O218 O 0.84944 0.20549 0.36953 0.0
O219 O 0.89172 0.20254 0.35869 0.0
O220 O 0.91212 0.26308 0.37518 0.0
O221 O 0.8762 0.24952 0.39929 0.0
C222 C 0.88902 0.15722 0.39171 0.0
O223 O 0.95433 0.22587 0.35881 0.0
O224 O 0.97463 0.26127 0.38029 0.0
C225 C 0.76937 0.1709 0.41291 0.0
C226 C 0.70905 0.16378 0.40761 0.0
C227 C 0.71604 0.15211 0.42393 0.0
C228 C 0.74585 0.15564 0.42653 0.0
C229 C 0.76282 0.18299 0.39668 0.0
C230 C 0.73295 0.17952 0.39407 0.0
C231 C 0.7999 0.1725 0.41555 0.0
H232 H 0.06702 0.24293 0.34594 0.0
H233 H 0.02689 0.25804 0.34207 0.0
H234 H 0.98856 0.21875 0.39665 0.0
H235 H 0.02854 0.20345 0.40061 0.0
H236 H 0.6985 0.14037 0.4348 0.0
H237 H 0.75045 0.14614 0.43914 0.0
H238 H 0.78064 0.19471 0.38594 0.0
H239 H 0.72838 0.18857 0.38126 0.0
Tb240 Tb 0.1123 0.32219 0.63369 0.0
Eu241 Eu 0.18312 0.36169 0.61463 0.0
C242 C 0.17286 0.35553 0.6592 0.0
C243 C 0.14525 0.39561 0.62841 0.0
C244 C 0.03375 0.255 0.64485 0.0
C245 C 0.98878 0.20784 0.65715 0.0
C246 C 1.01109 0.23968 0.65892 0.0
C247 C 0.03394 0.23807 0.62898 0.0
C248 C 1.0115 0.20629 0.62713 0.0
C249 C 0.98868 0.19079 0.64121 0.0
C250 C 0.05771 0.28827 0.64716 0.0
O251 O 0.1067 0.33231 0.60465 0.0
O252 O 0.14901 0.3328 0.59119 0.0
O253 O 0.17549 0.31516 0.62415 0.0
O254 O 0.1219 0.28664 0.62222 0.0
C255 C 0.12031 0.32827 0.58991 0.0
O256 O 0.21677 0.39645 0.59484 0.0
O257 O 0.23091 0.36986 0.6125 0.0
O258 O 0.18894 0.3753 0.64561 0.0
O259 O 0.14605 0.32995 0.65579 0.0
O260 O 0.12681 0.37142 0.63921 0.0
O261 O 0.16373 0.39409 0.61562 0.0
C262 C 0.14935 0.28817 0.6231 0.0
O263 O 0.08334 0.29365 0.65569 0.0
O264 O 0.06383 0.30596 0.63232 0.0
C265 C 0.27119 0.42096 0.60378 0.0
C266 C 0.33225 0.47379 0.60833 0.0
C267 C 0.30655 0.47756 0.60348 0.0
C268 C 0.27638 0.45146 0.60121 0.0
C269 C 0.29676 0.41721 0.60876 0.0
C270 C 0.32682 0.44322 0.61107 0.0
C271 C 0.23999 0.39272 0.60041 0.0
H272 H 0.97134 0.19665 0.66815 0.0
H273 H 1.0107 0.25234 0.67131 0.0
H274 H 0.05151 0.24938 0.61806 0.0
H275 H 1.01229 0.19372 0.6148 0.0
H276 H 0.30983 0.50067 0.60102 0.0
H277 H 0.25726 0.45522 0.59723 0.0
H278 H 0.29354 0.39401 0.61072 0.0
H279 H 0.34582 0.43932 0.61511 0.0
Tb280 Tb 0.2122 0.85146 0.90175 0.0
Eu281 Eu 0.24337 0.92531 0.88872 0.0
C282 C 0.24612 0.90685 0.92994 0.0
C283 C 0.17043 0.88275 0.89817 0.0
C284 C 0.18527 0.76529 0.90817 0.0
C285 C 0.15505 0.70835 0.9082 0.0
C286 C 0.15778 0.73722 0.91255 0.0
C287 C 0.21016 0.76411 0.89929 0.0
C288 C 0.20751 0.73511 0.89499 0.0
C289 C 0.17985 0.70685 0.89937 0.0
C290 C 0.18687 0.79514 0.91295 0.0
O291 O 0.21896 0.85147 0.87114 0.0
O292 O 0.21575 0.89522 0.86428 0.0
O293 O 0.281 0.91344 0.88123 0.0
O294 O 0.26136 0.86624 0.8972 0.0
C295 C 0.21466 0.86922 0.85897 0.0
O296 O 0.25692 0.96314 0.86808 0.0
O297 O 0.26341 0.97357 0.89801 0.0
O298 O 0.26447 0.92176 0.91579 0.0
O299 O 0.21915 0.88121 0.92661 0.0
O300 O 0.17322 0.85822 0.89464 0.0
O301 O 0.1953 0.91047 0.90083 0.0
C302 C 0.28372 0.88971 0.88757 0.0
O303 O 0.21333 0.81781 0.91953 0.0
O304 O 0.17414 0.80534 0.90085 0.0
C305 C 0.24978 1.00445 0.87941 0.0
C306 C 0.226 0.04609 0.87931 0.0
C307 C 0.25465 0.05417 0.87033 0.0
C308 C 0.26643 0.03359 0.87045 0.0
C309 C 0.22064 0.9957 0.88778 0.0
C310 C 0.20888 0.01632 0.88775 0.0
C311 C 0.26394 0.98436 0.88111 0.0
H312 H 0.13364 0.68715 0.91204 0.0
H313 H 0.13832 0.73763 0.91941 0.0
H314 H 0.23153 0.78553 0.89566 0.0
H315 H 0.22695 0.73481 0.88805 0.0
H316 H 0.26819 0.07659 0.86335 0.0
H317 H 0.2889 0.04073 0.86386 0.0
H318 H 0.20741 0.97328 0.89481 0.0
H319 H 0.18692 1.00932 0.89493 0.0
Tb320 Tb 0.71055 0.79588 0.62929 0.0
Eu321 Eu 0.66937 0.82653 0.61276 0.0
C322 C 0.67273 0.81317 0.65715 0.0
C323 C 0.63705 0.75398 0.62231 0.0
C324 C 0.78002 0.78688 0.63755 0.0
C325 C 0.8348 0.82858 0.63855 0.0
C326 C 0.80281 0.81841 0.64071 0.0
C327 C 0.78978 0.76591 0.63186 0.0
C328 C 0.82173 0.7761 0.62956 0.0
C329 C 0.84473 0.80753 0.63303 0.0
C330 C 0.7461 0.77559 0.63978 0.0
O331 O 0.72694 0.81235 0.60101 0.0
O332 O 0.68096 0.80404 0.58826 0.0
O333 O 0.72022 0.86297 0.60955 0.0
O334 O 0.73824 0.84647 0.63425 0.0
C335 C 0.7082 0.80531 0.58647 0.0
O336 O 0.63052 0.82324 0.59586 0.0
O337 O 0.66227 0.86657 0.61021 0.0
O338 O 0.67264 0.83298 0.64468 0.0
O339 O 0.68014 0.79199 0.6524 0.0
O340 O 0.66478 0.75604 0.62066 0.0
O341 O 0.63446 0.77907 0.62367 0.0
C342 C 0.74152 0.86854 0.62245 0.0
O343 O 0.7385 0.7923 0.65044 0.0
O344 O 0.72933 0.76647 0.62436 0.0
C345 C 0.60916 0.85475 0.60628 0.0
C346 C 0.55811 0.86388 0.6152 0.0
C347 C 0.55512 0.84239 0.60116 0.0
C348 C 0.58035 0.83799 0.59671 0.0
C349 C 0.61213 0.87609 0.62044 0.0
C350 C 0.58692 0.88059 0.62483 0.0
C351 C 0.63626 0.85121 0.60056 0.0
H352 H 0.85174 0.85284 0.64156 0.0
H353 H 0.79597 0.83523 0.64494 0.0
H354 H 0.77262 0.74158 0.62913 0.0
H355 H 0.82835 0.75932 0.62492 0.0
H356 H 0.53345 0.82945 0.59326 0.0
H357 H 0.57745 0.82174 0.58555 0.0
H358 H 0.63402 0.88959 0.62804 0.0
H359 H 0.58997 0.89707 0.63586 0.0
Tb360 Tb 0.18368 0.36454 0.90176 0.0
Eu361 Eu 0.1112 0.32564 0.88539 0.0
C362 C 0.12559 0.33804 0.92844 0.0
C363 C 0.14984 0.29153 0.89557 0.0
C364 C 0.27011 0.42202 0.91103 0.0
C365 C 0.30549 0.47849 0.91295 0.0
C366 C 0.27546 0.45218 0.91516 0.0
C367 C 0.2953 0.41884 0.90449 0.0
C368 C 0.32521 0.44506 0.90224 0.0
C369 C 0.33085 0.47524 0.90663 0.0
C370 C 0.23934 0.3934 0.91453 0.0
O371 O 0.18765 0.37596 0.87157 0.0
O372 O 0.14382 0.33101 0.86173 0.0
O373 O 0.12695 0.37643 0.87916 0.0
O374 O 0.16899 0.39929 0.89981 0.0
C375 C 0.17107 0.35593 0.85815 0.0
O376 O 0.07691 0.29951 0.86313 0.0
O377 O 0.06103 0.30498 0.89053 0.0
O378 O 0.11115 0.34294 0.91456 0.0
O379 O 0.15197 0.33813 0.92526 0.0
O380 O 0.17547 0.31879 0.8935 0.0
O381 O 0.1221 0.28921 0.89675 0.0
C382 C 0.14876 0.40101 0.88837 0.0
O383 O 0.21639 0.39646 0.92132 0.0
O384 O 0.22949 0.37175 0.90161 0.0
C385 C 0.03012 0.25673 0.875 0.0
C386 C 0.98541 0.19216 0.87667 0.0
C387 C 0.98543 0.21058 0.86148 0.0
C388 C 1.00754 0.24263 0.86071 0.0
C389 C 0.03064 0.23824 0.88995 0.0
C390 C 1.00838 0.20632 0.89083 0.0
C391 C 0.0529 0.29062 0.87431 0.0
H392 H 0.30898 0.5013 0.91666 0.0
H393 H 0.25663 0.45545 0.92037 0.0
H394 H 0.29196 0.39589 0.90131 0.0
H395 H 0.34393 0.44162 0.89703 0.0
H396 H 0.96791 0.20034 0.85042 0.0
H397 H 1.00684 0.25647 0.84903 0.0
H398 H 0.04813 0.24852 0.90103 0.0
H399 H 1.00921 0.19264 0.90256 0.0
Tb400 Tb 0.23863 0.92109 0.62702 0.0
Eu401 Eu 0.20852 0.84749 0.61333 0.0
C402 C 0.21227 0.86666 0.65673 0.0
C403 C 0.28098 0.88892 0.62787 0.0
C404 C 0.24335 0.99748 0.63714 0.0
C405 C 0.24705 0.04565 0.6485 0.0
C406 C 0.25896 0.02522 0.64763 0.0
C407 C 0.21499 0.98989 0.62805 0.0
C408 C 0.2031 1.01037 0.62884 0.0
C409 C 0.21932 0.03884 0.63877 0.0
C410 C 0.25802 0.97799 0.6346 0.0
O411 O 0.25894 0.9188 0.60047 0.0
O412 O 0.21514 0.87851 0.58786 0.0
O413 O 0.16821 0.85393 0.62111 0.0
O414 O 0.19155 0.90667 0.61598 0.0
C415 C 0.2414 0.9053 0.58573 0.0
O416 O 0.21055 0.81199 0.59571 0.0
O417 O 0.17003 0.7992 0.61346 0.0
O418 O 0.21616 0.84831 0.64492 0.0
O419 O 0.21243 0.89201 0.65085 0.0
O420 O 0.27645 0.91154 0.63427 0.0
O421 O 0.25971 0.86501 0.61806 0.0
C422 C 0.16622 0.8791 0.61846 0.0
O423 O 0.25235 0.95682 0.64743 0.0
O424 O 0.25623 0.9671 0.61761 0.0
C425 C 0.18329 0.75972 0.6077 0.0
C426 C 0.17721 0.70089 0.6164 0.0
C427 C 0.18687 0.71417 0.59833 0.0
C428 C 0.18976 0.74319 0.59403 0.0
C429 C 0.17422 0.74682 0.6259 0.0
C430 C 0.17112 0.71768 0.63018 0.0
C431 C 0.18417 0.78917 0.60231 0.0
H432 H 0.25984 0.06703 0.65661 0.0
H433 H 0.28081 0.03146 0.65479 0.0
H434 H 0.20256 0.96862 0.61982 0.0
H435 H 0.18187 1.0044 0.62105 0.0
H436 H 0.19142 0.70175 0.58732 0.0
H437 H 0.19653 0.75249 0.57986 0.0
H438 H 0.16912 0.75903 0.63678 0.0
H439 H 0.16404 0.70833 0.6443 0.0
Tb440 Tb 0.6705 0.82521 0.90189 0.0
Eu441 Eu 0.71197 0.79462 0.88596 0.0
C442 C 0.70958 0.80675 0.92896 0.0
C443 C 0.74107 0.8682 0.89188 0.0
C444 C 0.61065 0.85135 0.90782 0.0
C445 C 0.55717 0.83979 0.91408 0.0
C446 C 0.58284 0.83601 0.91844 0.0
C447 C 0.61215 0.87049 0.89263 0.0
C448 C 0.58652 0.87438 0.88832 0.0
C449 C 0.55876 0.85924 0.89906 0.0
C450 C 0.63839 0.84893 0.91362 0.0
O451 O 0.67246 0.83081 0.87093 0.0
O452 O 0.68 0.79016 0.86233 0.0
O453 O 0.66468 0.75426 0.89542 0.0
O454 O 0.63613 0.77907 0.89182 0.0
C455 C 0.67197 0.81107 0.85815 0.0
O456 O 0.74119 0.79001 0.86456 0.0
O457 O 0.73234 0.76479 0.89104 0.0
O458 O 0.72896 0.81304 0.91491 0.0
O459 O 0.68202 0.80447 0.92609 0.0
O460 O 0.71954 0.86134 0.90485 0.0
O461 O 0.73924 0.84666 0.88022 0.0
C462 C 0.63752 0.75335 0.89383 0.0
O463 O 0.63341 0.82139 0.91869 0.0
O464 O 0.66386 0.86395 0.90353 0.0
C465 C 0.78283 0.78503 0.87769 0.0
C466 C 0.84759 0.80617 0.8824 0.0
C467 C 0.83723 0.82751 0.87855 0.0
C468 C 0.8052 0.81708 0.87631 0.0
C469 C 0.79298 0.76371 0.88167 0.0
C470 C 0.82497 0.77413 0.88405 0.0
C471 C 0.74892 0.77366 0.87554 0.0
H472 H 0.53636 0.8281 0.92282 0.0
H473 H 0.58111 0.82147 0.93037 0.0
H474 H 0.63325 0.88282 0.88419 0.0
H475 H 0.58844 0.88925 0.87654 0.0
H476 H 0.85387 0.85228 0.87696 0.0
H477 H 0.79795 0.8341 0.87345 0.0
H478 H 0.7761 0.73894 0.88302 0.0
H479 H 0.83193 0.75705 0.88736 0.0
C480 C 0.08607 0.20392 0.1525 0.0
C481 C 0.07963 0.21803 0.1372 0.0
C482 C 0.10908 0.19529 0.151 0.0
C483 C 0.18067 0.21347 0.12474 0.0
H484 H 0.16476 0.13254 0.14267 0.0
C485 C 0.2689 0.17125 0.11114 0.0
C486 C 0.27367 0.15438 0.1255 0.0
C487 C 0.24451 0.17793 0.11241 0.0
C488 C 0.1698 0.15541 0.13782 0.0
H489 H 0.09251 0.23437 0.1084 0.0
H490 H 0.13275 0.21942 0.10581 0.0
H491 H 0.12386 0.14651 0.14542 0.0
H492 H 0.25625 0.13106 0.15242 0.0
H493 H 0.2142 0.14336 0.15487 0.0
H494 H 0.22672 0.22281 0.11747 0.0
C495 C 0.11998 0.21501 0.11896 0.0
C496 C 0.14628 0.16336 0.13936 0.0
C497 C 0.09675 0.22333 0.12039 0.0
C498 C 0.25319 0.14401 0.14107 0.0
C499 C 0.22893 0.15094 0.14242 0.0
C500 C 0.20426 0.20567 0.12336 0.0
C501 C 0.12643 0.20091 0.13425 0.0
C502 C 0.15142 0.19244 0.13277 0.0
C503 C 0.22438 0.1682 0.12816 0.0
C504 C 0.19914 0.17647 0.12979 0.0
H505 H 0.07311 0.19929 0.16559 0.0
H506 H 0.11366 0.18466 0.16307 0.0
H507 H 0.18553 0.23625 0.1198 0.0
H508 H 0.28404 0.17938 0.09886 0.0
H509 H 0.2414 0.19066 0.10094 0.0
C510 C 0.14038 0.96826 0.38285 0.0
C511 C 0.16369 0.95968 0.38242 0.0
C512 C 0.10856 0.94547 0.38475 0.0
C513 C 0.05426 0.86057 0.3776 0.0
H514 H 0.9972 0.8723 0.40972 0.0
C515 C 0.93443 0.7572 0.39755 0.0
C516 C 0.90791 0.76092 0.39687 0.0
C517 C 0.96468 0.78296 0.39611 0.0
C518 C 1.01276 0.86884 0.40052 0.0
H519 H 0.17167 0.92038 0.3845 0.0
H520 H 0.11649 0.88085 0.38777 0.0
H521 H 0.05197 0.91442 0.40662 0.0
H522 H 0.89275 0.79516 0.39479 0.0
H523 H 0.94604 0.84052 0.39223 0.0
H524 H 1.01542 0.81511 0.37155 0.0
C525 C 0.12267 0.90511 0.38622 0.0
C526 C 0.04415 0.89296 0.39874 0.0
C527 C 0.15438 0.92782 0.38433 0.0
C528 C 0.9126 0.79141 0.39536 0.0
C529 C 0.94313 0.8174 0.39392 0.0
C530 C 0.02306 0.8366 0.37937 0.0
C531 C 0.09927 0.91355 0.38625 0.0
C532 C 0.06542 0.88888 0.38749 0.0
C533 C 0.9695 0.81333 0.3939 0.0
C534 C 1.00202 0.84015 0.39111 0.0
H535 H 0.14664 0.99253 0.38125 0.0
H536 H 0.09117 0.95278 0.38458 0.0
H537 H 0.06969 0.85687 0.36842 0.0
H538 H 0.93193 0.7342 0.39895 0.0
H539 H 0.98442 0.779 0.39662 0.0
C540 C 0.85588 0.10248 0.11894 0.0
C541 C 0.88603 0.12899 0.12062 0.0
C542 C 0.85133 0.0724 0.12096 0.0
C543 C 0.88973 0.02472 0.12025 0.0
H544 H 0.81685 0.96802 0.14995 0.0
C545 C 0.85756 0.89663 0.13896 0.0
C546 C 0.82553 0.87375 0.13739 0.0
C547 C 0.86739 0.92858 0.13734 0.0
C548 C 0.83715 0.98343 0.1415 0.0
H549 H 0.93532 0.14444 0.12498 0.0
H550 H 0.92724 0.09136 0.12859 0.0
H551 H 0.83008 0.02221 0.14607 0.0
H552 H 0.77898 0.86679 0.13218 0.0
H553 H 0.79599 0.92213 0.12958 0.0
H554 H 0.8965 0.98552 0.11561 0.0
C555 C 0.90717 0.09415 0.12568 0.0
C556 C 0.84476 0.01455 0.13927 0.0
C557 C 0.91179 0.12452 0.12364 0.0
C558 C 0.80371 0.88367 0.13397 0.0
C559 C 0.8135 0.91548 0.13243 0.0
C560 C 0.88208 0.99341 0.1225 0.0
C561 C 0.87672 0.06778 0.12478 0.0
C562 C 0.87073 0.03546 0.1283 0.0
C563 C 0.84541 0.93838 0.1342 0.0
C564 C 0.85531 0.97225 0.13286 0.0
H565 H 0.8355 0.10488 0.11633 0.0
H566 H 0.82769 0.05263 0.11967 0.0
H567 H 0.90983 0.04021 0.11168 0.0
H568 H 0.87501 0.8899 0.14173 0.0
H569 H 0.89212 0.94562 0.13891 0.0
C570 C 0.25166 0.14227 0.37464 0.0
C571 C 0.27125 0.15223 0.39064 0.0
C572 C 0.22677 0.14828 0.37304 0.0
C573 C 0.19934 0.20052 0.39238 0.0
H574 H 0.12076 0.14181 0.36818 0.0
C575 C 0.09117 0.21717 0.39302 0.0
C576 C 0.07509 0.21242 0.37582 0.0
C577 C 0.11431 0.20881 0.395 0.0
C578 C 0.14267 0.15853 0.37485 0.0
H579 H 0.27922 0.17523 0.41784 0.0
H580 H 0.23555 0.18488 0.4153 0.0
H581 H 0.16215 0.12857 0.37149 0.0
H582 H 0.07022 0.19443 0.34734 0.0
H583 H 0.11068 0.1799 0.35078 0.0
H584 H 0.17971 0.2303 0.3959 0.0
C585 C 0.23985 0.17327 0.40369 0.0
C586 C 0.16646 0.151 0.37672 0.0
C587 C 0.26484 0.16752 0.40521 0.0
C588 C 0.0824 0.19871 0.36072 0.0
C589 C 0.10536 0.19009 0.36275 0.0
C590 C 0.1755 0.20792 0.39065 0.0
C591 C 0.22074 0.16417 0.38747 0.0
C592 C 0.19515 0.1719 0.38551 0.0
C593 C 0.12174 0.19525 0.37987 0.0
C594 C 0.1469 0.18705 0.38185 0.0
H595 H 0.25598 0.1305 0.36313 0.0
H596 H 0.21281 0.14117 0.36025 0.0
H597 H 0.2213 0.21756 0.39886 0.0
H598 H 0.08624 0.22786 0.40489 0.0
H599 H 0.1263 0.21283 0.40843 0.0
C600 C 0.14784 0.92502 0.13963 0.0
C601 C 0.1597 0.956 0.13338 0.0
C602 C 0.11589 0.9029 0.13794 0.0
C603 C 0.04252 0.88621 0.11289 0.0
H604 H 1.00393 0.82408 0.1525 0.0
C605 C 0.90856 0.7904 0.11594 0.0
C606 C 0.90291 0.75999 0.11973 0.0
C607 C 0.93911 0.81636 0.11734 0.0
C608 C 1.01438 0.84124 0.1413 0.0
H609 H 0.14684 0.98767 0.12013 0.0
H610 H 0.09094 0.94933 0.11776 0.0
H611 H 0.05843 0.86546 0.15568 0.0
H612 H 0.92524 0.73322 0.1277 0.0
H613 H 0.97776 0.77806 0.13023 0.0
H614 H 0.99796 0.86169 0.09863 0.0
C615 C 0.10652 0.94204 0.12375 0.0
C616 C 0.04573 0.8649 0.14305 0.0
C617 C 0.13859 0.96418 0.12534 0.0
C618 C 0.9285 0.75619 0.12471 0.0
C619 C 0.95871 0.78197 0.12629 0.0
C620 C 1.01093 0.86258 0.11122 0.0
C621 C 0.09469 0.91111 0.13011 0.0
C622 C 0.0605 0.88734 0.1287 0.0
C623 C 0.9644 0.81237 0.12281 0.0
C624 C 0.99675 0.83946 0.12524 0.0
H625 H 0.16316 0.91782 0.14611 0.0
H626 H 0.10788 0.87922 0.1427 0.0
H627 H 0.05309 0.90292 0.10149 0.0
H628 H 0.88943 0.79418 0.11206 0.0
H629 H 0.94284 0.83957 0.11458 0.0
C630 C 0.86396 0.89556 0.376 0.0
C631 C 0.83186 0.87252 0.37609 0.0
C632 C 0.87338 0.92746 0.37709 0.0
C633 C 0.84328 0.98199 0.36931 0.0
H634 H 0.9115 0.03857 0.40213 0.0
C635 C 0.8566 0.09886 0.39174 0.0
C636 C 0.8865 0.12594 0.39108 0.0
C637 C 0.85307 0.06921 0.38962 0.0
C638 C 0.89269 0.02314 0.39272 0.0
H639 H 0.78465 0.86522 0.37803 0.0
H640 H 0.80096 0.92045 0.37982 0.0
H641 H 0.89932 0.98418 0.39865 0.0
H642 H 0.93637 0.14279 0.38837 0.0
H643 H 0.9301 0.09041 0.38471 0.0
H644 H 0.8362 0.02052 0.36359 0.0
C645 C 0.8189 0.91399 0.37849 0.0
C646 C 0.8857 0.99199 0.39071 0.0
C647 C 0.80952 0.88223 0.37743 0.0
C648 C 0.913 0.12243 0.38892 0.0
C649 C 0.90943 0.09248 0.38684 0.0
C650 C 0.8502 1.01293 0.37134 0.0
C651 C 0.85092 0.93706 0.37826 0.0
C652 C 0.86044 0.97087 0.37928 0.0
C653 C 0.8793 0.0656 0.38679 0.0
C654 C 0.8745 0.03371 0.38338 0.0
H655 H 0.88182 0.88897 0.37484 0.0
H656 H 0.89822 0.94461 0.37673 0.0
H657 H 0.82421 0.96664 0.36001 0.0
H658 H 0.83561 0.10047 0.39361 0.0
H659 H 0.82961 0.04899 0.39011 0.0
C660 C 0.17616 0.05253 0.63867 0.0
C661 C 0.20837 0.0621 0.6382 0.0
C662 C 0.16623 0.07463 0.63775 0.0
C663 C 0.19522 0.15893 0.64564 0.0
H664 H 0.12673 0.14685 0.6129 0.0
C665 C 0.18158 0.2621 0.62302 0.0
C666 C 0.15172 0.25933 0.62375 0.0
C667 C 0.18505 0.23597 0.62519 0.0
C668 C 0.1456 0.15034 0.6223 0.0
H669 H 0.25522 0.10253 0.63578 0.0
H670 H 0.23803 0.14079 0.63438 0.0
H671 H 0.13939 0.10493 0.61629 0.0
H672 H 0.10184 0.22636 0.6266 0.0
H673 H 0.10803 0.18019 0.63036 0.0
H674 H 0.20191 0.20436 0.65144 0.0
C675 C 0.22041 0.11627 0.63583 0.0
C676 C 0.15286 0.12636 0.62425 0.0
C677 C 0.2303 0.09427 0.63668 0.0
C678 C 0.12518 0.22933 0.62601 0.0
C679 C 0.12871 0.20292 0.62814 0.0
C680 C 0.18802 0.18276 0.64369 0.0
C681 C 0.18829 0.1068 0.63642 0.0
C682 C 0.17827 0.13071 0.63561 0.0
C683 C 0.15882 0.20615 0.62816 0.0
C684 C 0.16366 0.17911 0.63165 0.0
H685 H 0.1586 0.02798 0.63998 0.0
H686 H 0.14133 0.06658 0.63837 0.0
H687 H 0.2144 0.16279 0.65488 0.0
H688 H 0.20259 0.28467 0.62105 0.0
H689 H 0.2085 0.23918 0.62466 0.0
C690 C 0.13281 0.90322 0.90226 0.0
C691 C 0.13842 0.87872 0.89765 0.0
C692 C 0.10236 0.89885 0.90089 0.0
C693 C 0.02786 0.85086 0.87575 0.0
H694 H 0.98768 0.86904 0.91693 0.0
C695 C 0.89422 0.79904 0.87724 0.0
C696 C 0.88181 0.81715 0.88438 0.0
C697 C 0.92624 0.80928 0.87886 0.0
C698 C 0.99868 0.86428 0.90516 0.0
H699 H 0.11617 0.83032 0.88821 0.0
H700 H 0.06384 0.82307 0.8857 0.0
H701 H 0.04288 0.88319 0.91972 0.0
H702 H 0.8937 0.86026 0.89911 0.0
H703 H 0.94977 0.87857 0.9014 0.0
H704 H 0.98413 0.83209 0.8611 0.0
C705 C 0.08284 0.84564 0.89029 0.0
C706 C 0.0303 0.87239 0.9068 0.0
C707 C 0.11293 0.84982 0.89185 0.0
C708 C 0.90242 0.84583 0.89322 0.0
C709 C 0.93457 0.85619 0.89475 0.0
C710 C 0.99648 0.84304 0.87405 0.0
C711 C 0.07718 0.8701 0.89461 0.0
C712 C 0.04496 0.86509 0.89226 0.0
C713 C 0.94694 0.83809 0.88751 0.0
C714 C 0.98119 0.84894 0.88889 0.0
H715 H 0.15189 0.92575 0.90679 0.0
H716 H 0.09862 0.91811 0.90431 0.0
H717 H 0.03871 0.84544 0.86418 0.0
H718 H 0.87927 0.77703 0.87013 0.0
H719 H 0.93471 0.79438 0.87341 0.0
C720 C 0.77571 0.92255 0.60957 0.0
C721 C 0.76906 0.90059 0.62404 0.0
C722 C 0.8006 0.95329 0.61133 0.0
C723 C 0.87327 1.00421 0.63898 0.0
H724 H 0.8604 0.07026 0.61925 0.0
C725 C 0.95687 0.13643 0.65461 0.0
C726 C 0.96468 0.15705 0.63921 0.0
C727 C 0.93394 0.10479 0.65276 0.0
C728 C 0.86447 0.05208 0.62468 0.0
H729 H 0.78378 0.89362 0.65161 0.0
H730 H 0.82675 0.94753 0.65494 0.0
H731 H 0.81885 0.0159 0.61623 0.0
H732 H 0.9545 0.16059 0.60981 0.0
H733 H 0.91444 0.10541 0.6066 0.0
H734 H 0.91878 0.0408 0.64779 0.0
C735 C 0.81307 0.94087 0.64204 0.0
C736 C 0.84068 0.02083 0.6229 0.0
C737 C 0.78831 0.90995 0.64018 0.0
C738 C 0.94916 0.14528 0.6219 0.0
C739 C 0.92604 0.11374 0.62011 0.0
C740 C 0.897 0.03556 0.64092 0.0
C741 C 0.81934 0.96306 0.62771 0.0
C742 C 0.84478 0.99641 0.6299 0.0
C743 C 0.91809 0.09316 0.63552 0.0
C744 C 0.89291 0.05982 0.63369 0.0
H745 H 0.7616 0.91606 0.59683 0.0
H746 H 0.80511 0.96939 0.59978 0.0
H747 H 0.8775 0.9861 0.64433 0.0
H748 H 0.96861 0.14474 0.66808 0.0
H749 H 0.9282 0.08956 0.66492 0.0
C750 C 0.18331 0.26686 0.89693 0.0
C751 C 0.15315 0.26321 0.89539 0.0
C752 C 0.18782 0.2413 0.89506 0.0
C753 C 0.14967 0.1553 0.89661 0.0
H754 H 0.22202 0.1711 0.86653 0.0
C755 C 0.18271 0.0596 0.87908 0.0
C756 C 0.21485 0.06915 0.88053 0.0
C757 C 0.17257 0.08151 0.88041 0.0
C758 C 0.20186 0.16631 0.87509 0.0
H759 H 0.10377 0.22927 0.89146 0.0
H760 H 0.11175 0.18415 0.88812 0.0
H761 H 0.20848 0.21189 0.86998 0.0
H762 H 0.26127 0.10929 0.88521 0.0
H763 H 0.24373 0.14723 0.88728 0.0
H764 H 0.14339 0.10961 0.90181 0.0
C765 C 0.13188 0.20709 0.89079 0.0
C766 C 0.19407 0.18972 0.87706 0.0
C767 C 0.12732 0.2329 0.89268 0.0
C768 C 0.23646 0.10109 0.88352 0.0
C769 C 0.22637 0.12291 0.88477 0.0
C770 C 0.15751 0.13173 0.89461 0.0
C771 C 0.16235 0.2112 0.89153 0.0
C772 C 0.16832 0.18482 0.88818 0.0
C773 C 0.19434 0.11348 0.88312 0.0
C774 C 0.18413 0.13724 0.88414 0.0
H775 H 0.20377 0.2897 0.89932 0.0
H776 H 0.21148 0.24522 0.89624 0.0
H777 H 0.12974 0.1508 0.9053 0.0
H778 H 0.16539 0.03526 0.87663 0.0
H779 H 0.14775 0.07349 0.87895 0.0
C780 C 0.10841 0.84656 0.62386 0.0
C781 C 0.13446 0.87573 0.61904 0.0
C782 C 0.07851 0.84284 0.62542 0.0
C783 C 0.028 0.87347 0.61061 0.0
H784 H 0.97895 0.82705 0.65417 0.0
C785 C 0.90041 0.84797 0.62414 0.0
C786 C 0.87888 0.81808 0.63127 0.0
C787 C 0.93248 0.85784 0.62284 0.0
C788 C 0.99213 0.83977 0.64181 0.0
H789 H 0.14908 0.92377 0.6116 0.0
H790 H 0.09623 0.91707 0.61421 0.0
H791 H 0.03331 0.83964 0.65137 0.0
H792 H 0.87463 0.77532 0.64272 0.0
H793 H 0.92996 0.79198 0.63985 0.0
H794 H 0.98642 0.87281 0.60079 0.0
C795 C 0.09935 0.89718 0.61683 0.0
C796 C 0.02338 0.84712 0.64026 0.0
C797 C 0.1296 0.90103 0.61541 0.0
C798 C 0.8903 0.79832 0.63694 0.0
C799 C 0.92225 0.80811 0.63556 0.0
C800 C 0.99652 0.8659 0.61209 0.0
C801 C 0.07359 0.86809 0.62213 0.0
C802 C 0.04151 0.8635 0.62449 0.0
C803 C 0.94385 0.83808 0.62863 0.0
C804 C 0.978 0.84838 0.62755 0.0
H805 H 0.11103 0.82643 0.6267 0.0
H806 H 0.05908 0.81999 0.62919 0.0
H807 H 0.04136 0.886 0.59825 0.0
H808 H 0.89248 0.86372 0.61941 0.0
H809 H 0.94841 0.88113 0.61753 0.0
C810 C 0.95341 0.13866 0.86222 0.0
C811 C 0.96113 0.15847 0.878 0.0
C812 C 0.93042 0.10696 0.86356 0.0
C813 C 0.86061 0.0528 0.89074 0.0
H814 H 0.87547 0.98802 0.87121 0.0
C815 C 0.77329 0.92243 0.90492 0.0
C816 C 0.76774 0.90075 0.89047 0.0
C817 C 0.7976 0.95348 0.90337 0.0
C818 C 0.87071 1.00578 0.8765 0.0
H819 H 0.95057 0.16067 0.90747 0.0
H820 H 0.91026 0.10541 0.90977 0.0
H821 H 0.91619 0.04299 0.86818 0.0
H822 H 0.78363 0.8947 0.86309 0.0
H823 H 0.82551 0.9491 0.8601 0.0
H824 H 0.81501 0.016 0.89869 0.0
C825 C 0.92207 0.11438 0.89639 0.0
C826 C 0.89412 0.03729 0.87481 0.0
C827 C 0.94531 0.14593 0.89511 0.0
C828 C 0.78735 0.91078 0.87451 0.0
C829 C 0.8115 0.94199 0.87286 0.0
C830 C 0.8371 0.02139 0.89225 0.0
C831 C 0.91436 0.09454 0.88063 0.0
C832 C 0.88938 0.0611 0.88203 0.0
C833 C 0.81682 0.96385 0.88721 0.0
C834 C 0.84187 0.99739 0.88528 0.0
H835 H 0.96536 0.14764 0.84888 0.0
H836 H 0.92483 0.09226 0.85116 0.0
H837 H 0.8561 0.07067 0.89617 0.0
H838 H 0.75883 0.91543 0.9175 0.0
H839 H 0.80137 0.96935 0.91492 0.0
C840 C 0.37467 0.19945 0.32967 0.0
C841 C 0.377 0.17423 0.33704 0.0
C842 C 0.38007 0.20701 0.31039 0.0
C843 C 0.41603 0.19445 0.26762 0.0
H844 H 0.35089 0.19981 0.23989 0.0
C845 C 0.38772 0.15697 0.19054 0.0
C846 C 0.37863 0.17324 0.17814 0.0
C847 C 0.39321 0.16507 0.20959 0.0
C848 C 0.36967 0.19906 0.24743 0.0
H849 H 0.38817 0.13809 0.33014 0.0
H850 H 0.39769 0.15128 0.29689 0.0
H851 H 0.3504 0.19992 0.27443 0.0
H852 H 0.36905 0.21145 0.17593 0.0
H853 H 0.37842 0.22552 0.20954 0.0
H854 H 0.43462 0.19234 0.24072 0.0
C855 C 0.39173 0.16531 0.30585 0.0
C856 C 0.36938 0.19911 0.26723 0.0
C857 C 0.38599 0.15756 0.32494 0.0
C858 C 0.3761 0.19854 0.18514 0.0
C859 C 0.38127 0.20645 0.20438 0.0
C860 C 0.41633 0.19441 0.2479 0.0
C861 C 0.38843 0.18981 0.29825 0.0
C862 C 0.39194 0.19567 0.27753 0.0
C863 C 0.38958 0.18955 0.21685 0.0
C864 C 0.39252 0.19557 0.23756 0.0
H865 H 0.3677 0.21268 0.33863 0.0
H866 H 0.37746 0.22609 0.30495 0.0
H867 H 0.43411 0.1924 0.27515 0.0
H868 H 0.39004 0.13746 0.18561 0.0
H869 H 0.39915 0.15126 0.2188 0.0
C870 C 0.84743 0.69609 0.32607 0.0
C871 C 0.83644 0.67005 0.33814 0.0
C872 C 0.85077 0.69312 0.30675 0.0
C873 C 0.82002 0.63642 0.26807 0.0
H874 H 0.88956 0.70336 0.24069 0.0
C875 C 0.82659 0.64092 0.18581 0.0
C876 C 0.83356 0.67008 0.17824 0.0
C877 C 0.83043 0.63781 0.2052 0.0
C878 C 0.86998 0.68444 0.24811 0.0
H879 H 0.82077 0.62044 0.33933 0.0
H880 H 0.82643 0.61519 0.30532 0.0
H881 H 0.89005 0.70346 0.27511 0.0
H882 H 0.85108 0.71898 0.18502 0.0
H883 H 0.85776 0.71358 0.21846 0.0
H884 H 0.79947 0.61803 0.24098 0.0
C885 C 0.83244 0.63792 0.31095 0.0
C886 C 0.87026 0.68451 0.26784 0.0
C887 C 0.82938 0.64098 0.33042 0.0
C888 C 0.84535 0.69613 0.19034 0.0
C889 C 0.84945 0.6931 0.20955 0.0
C890 C 0.81972 0.63637 0.24827 0.0
C891 C 0.84305 0.66398 0.29889 0.0
C892 C 0.84485 0.66105 0.27806 0.0
C893 C 0.84175 0.66389 0.2173 0.0
C894 C 0.84426 0.66094 0.23808 0.0
H895 H 0.85315 0.71886 0.3315 0.0
H896 H 0.85856 0.71357 0.29786 0.0
H897 H 0.80001 0.6181 0.27553 0.0
H898 H 0.8174 0.62038 0.17687 0.0
H899 H 0.82442 0.61501 0.21074 0.0
C900 C 0.86587 0.18354 0.18959 0.0
C901 C 0.85542 0.19843 0.17701 0.0
C902 C 0.85743 0.17998 0.20861 0.0
C903 C 0.83679 0.21596 0.24661 0.0
H904 H 0.81931 0.14027 0.27332 0.0
C905 C 0.83396 0.20746 0.32904 0.0
C906 C 0.85279 0.19572 0.33604 0.0
C907 C 0.82623 0.20479 0.30972 0.0
C908 C 0.82407 0.16157 0.2661 0.0
H909 H 0.82736 0.22084 0.17452 0.0
H910 H 0.81287 0.21502 0.20817 0.0
H911 H 0.82028 0.14106 0.23891 0.0
H912 H 0.87699 0.17073 0.32845 0.0
H913 H 0.86344 0.16587 0.29525 0.0
H914 H 0.842 0.23687 0.27394 0.0
C915 C 0.82753 0.20597 0.20311 0.0
C916 C 0.8246 0.162 0.24637 0.0
C917 C 0.83564 0.20912 0.18387 0.0
C918 C 0.86253 0.18015 0.32355 0.0
C919 C 0.85453 0.17714 0.30447 0.0
C920 C 0.83633 0.21555 0.26644 0.0
C921 C 0.83852 0.19148 0.21571 0.0
C922 C 0.83208 0.18951 0.23638 0.0
C923 C 0.83671 0.1898 0.29719 0.0
C924 C 0.83111 0.18866 0.27641 0.0
H925 H 0.88106 0.17495 0.18479 0.0
H926 H 0.86667 0.1691 0.21791 0.0
H927 H 0.84275 0.23756 0.23934 0.0
H928 H 0.82627 0.21973 0.33831 0.0
H929 H 0.81237 0.21471 0.30456 0.0
C930 C 0.20422 0.39142 0.68611 0.0
C931 C 0.1844 0.36111 0.67899 0.0
C932 C 0.21168 0.39598 0.70547 0.0
C933 C 0.21099 0.35323 0.74904 0.0
H934 H 0.19648 0.41329 0.7758 0.0
C935 C 0.17046 0.3356 0.82584 0.0
C936 C 0.18229 0.36118 0.83831 0.0
C937 C 0.17849 0.33998 0.80675 0.0
C938 C 0.20125 0.39684 0.76853 0.0
H939 H 0.15805 0.31184 0.68645 0.0
H940 H 0.17109 0.31968 0.71972 0.0
H941 H 0.19713 0.41337 0.74121 0.0
H942 H 0.2123 0.41152 0.84049 0.0
H943 H 0.2261 0.4193 0.80675 0.0
H944 H 0.21374 0.33577 0.77623 0.0
C945 C 0.181 0.34001 0.71056 0.0
C946 C 0.20165 0.39689 0.7487 0.0
C947 C 0.1733 0.33553 0.69143 0.0
C948 C 0.20295 0.39133 0.83125 0.0
C949 C 0.21067 0.3958 0.81194 0.0
C950 C 0.21051 0.35312 0.76877 0.0
C951 C 0.19991 0.37026 0.71794 0.0
C952 C 0.20541 0.37433 0.73873 0.0
C953 C 0.19836 0.37011 0.79947 0.0
C954 C 0.20455 0.37419 0.77876 0.0
H955 H 0.21299 0.4116 0.67689 0.0
H956 H 0.2264 0.41958 0.71071 0.0
H957 H 0.21461 0.33596 0.74183 0.0
H958 H 0.15456 0.31204 0.83079 0.0
H959 H 0.16823 0.31972 0.79754 0.0
C960 C 0.20026 0.87757 0.8266 0.0
C961 C 0.21014 0.8614 0.83855 0.0
C962 C 0.19941 0.87367 0.8071 0.0
C963 C 0.19809 0.82424 0.76796 0.0
H964 H 0.23485 0.90302 0.74073 0.0
C965 C 0.21556 0.83808 0.68552 0.0
C966 C 0.20852 0.85983 0.67729 0.0
C967 C 0.21518 0.83471 0.70525 0.0
C968 C 0.22428 0.88077 0.74808 0.0
H969 H 0.22529 0.82706 0.83932 0.0
H970 H 0.22379 0.82021 0.80485 0.0
H971 H 0.23509 0.90319 0.77501 0.0
H972 H 0.1937 0.89359 0.68334 0.0
H973 H 0.19279 0.88751 0.71732 0.0
H974 H 0.18703 0.80193 0.74072 0.0
C975 C 0.21676 0.83596 0.81079 0.0
C976 C 0.22444 0.88087 0.76775 0.0
C977 C 0.21762 0.83989 0.8305 0.0
C978 C 0.19973 0.87696 0.68913 0.0
C979 C 0.19934 0.87358 0.70868 0.0
C980 C 0.19789 0.82413 0.74811 0.0
C981 C 0.20847 0.85354 0.79889 0.0
C982 C 0.21067 0.85265 0.77796 0.0
C983 C 0.20784 0.85308 0.71704 0.0
C984 C 0.21031 0.85244 0.73798 0.0
H985 H 0.1938 0.89393 0.83227 0.0
H986 H 0.19216 0.88696 0.79836 0.0
H987 H 0.18737 0.80213 0.77547 0.0
H988 H 0.2224 0.82451 0.67679 0.0
H989 H 0.2218 0.81868 0.71128 0.0
C990 C 0.65653 0.78844 0.68886 0.0
C991 C 0.66539 0.81468 0.67727 0.0
C992 C 0.65385 0.79036 0.70832 0.0
C993 C 0.64755 0.83559 0.74779 0.0
H994 H 0.68786 0.79704 0.77501 0.0
C995 C 0.66915 0.84122 0.83011 0.0
C996 C 0.66414 0.81301 0.83817 0.0
C997 C 0.66669 0.84362 0.81046 0.0
C998 C 0.67626 0.8077 0.76767 0.0
H999 H 0.67652 0.8631 0.67693 0.0
H1000 H 0.67209 0.86657 0.71133 0.0
H1001 H 0.68837 0.79743 0.74077 0.0
H1002 H 0.6499 0.76456 0.83224 0.0
H1003 H 0.64526 0.76863 0.79838 0.0
H1004 H 0.63553 0.84578 0.77507 0.0
C1005 C 0.66715 0.84448 0.70518 0.0
C1006 C 0.67654 0.80791 0.74801 0.0
C1007 C 0.6697 0.84249 0.68552 0.0
C1008 C 0.65451 0.7868 0.82645 0.0
C1009 C 0.65194 0.78915 0.80701 0.0
C1010 C 0.64731 0.83541 0.76765 0.0
C1011 C 0.66019 0.81865 0.71682 0.0
C1012 C 0.66157 0.82114 0.73779 0.0
C1013 C 0.65913 0.81782 0.79868 0.0
C1014 C 0.66104 0.82075 0.77775 0.0
H1015 H 0.65246 0.76647 0.68294 0.0
H1016 H 0.64759 0.76978 0.71681 0.0
H1017 H 0.63594 0.84608 0.74029 0.0
H1018 H 0.67659 0.8618 0.83881 0.0
H1019 H 0.67227 0.866 0.80443 0.0
C1020 C 0.23102 0.91954 0.96136 0.0
C1021 C 0.25425 0.92293 0.94851 0.0
C1022 C 0.23906 0.93953 0.97707 0.0
C1023 C 0.30726 0.99742 1.00602 0.0
H1024 H 0.25414 0.03294 0.01599 0.0
C1025 C 0.34616 0.10242 0.05709 0.0
C1026 C 0.32325 0.09964 0.07001 0.0
C1027 C 0.33778 0.08169 0.04174 0.0
C1028 C 0.26915 0.02311 0.01351 0.0
H1029 H 0.30424 0.94868 0.94264 0.0
H1030 H 0.31814 0.98309 0.96979 0.0
H1031 H 0.23864 0.99245 0.99195 0.0
H1032 H 0.27338 0.074 0.07634 0.0
H1033 H 0.25892 0.0383 0.0498 0.0
H1034 H 0.33782 0.02814 0.02753 0.0
C1035 C 0.29377 0.96518 0.96793 0.0
C1036 C 0.26014 0.99971 0.99977 0.0
C1037 C 0.28575 0.94545 0.95227 0.0
C1038 C 0.29168 0.0768 0.06669 0.0
C1039 C 0.28332 0.05633 0.05137 0.0
C1040 C 0.31628 0.02083 0.01974 0.0
C1041 C 0.2705 0.96308 0.98031 0.0
C1042 C 0.2791 0.98658 0.9958 0.0
C1043 C 0.30629 0.05797 0.03891 0.0
C1044 C 0.29737 0.03403 0.02367 0.0
H1045 H 0.20654 0.90257 0.95878 0.0
H1046 H 0.22057 0.93697 0.98647 0.0
H1047 H 0.3223 0.98762 1.00352 0.0
H1048 H 0.37069 0.11962 0.0593 0.0
H1049 H 0.35604 0.08391 0.03226 0.0
C1050 C 0.75936 0.68642 0.44849 0.0
C1051 C 0.79045 0.69268 0.44662 0.0
C1052 C 0.75047 0.69804 0.46378 0.0
C1053 C 0.77414 0.73278 0.51165 0.0
H1054 H 0.7188 0.76543 0.50025 0.0
C1055 C 0.74899 0.80319 0.5666 0.0
C1056 C 0.71777 0.79653 0.56865 0.0
C1057 C 0.75781 0.79138 0.55136 0.0
C1058 C 0.73397 0.75612 0.50374 0.0
H1059 H 0.83635 0.71521 0.45982 0.0
H1060 H 0.82088 0.73582 0.48667 0.0
H1061 H 0.73451 0.74238 0.47516 0.0
H1062 H 0.67159 0.77307 0.55577 0.0
H1063 H 0.68702 0.75229 0.52899 0.0
H1064 H 0.77366 0.74663 0.54023 0.0
C1065 C 0.80327 0.72162 0.47628 0.0
C1066 C 0.74301 0.74285 0.48934 0.0
C1067 C 0.81219 0.70978 0.46092 0.0
C1068 C 0.69585 0.77881 0.55456 0.0
C1069 C 0.70472 0.76687 0.53923 0.0
C1070 C 0.76513 0.74609 0.52605 0.0
C1071 C 0.77243 0.71649 0.47766 0.0
C1072 C 0.76316 0.7309 0.49309 0.0
C1073 C 0.73569 0.77243 0.5377 0.0
C1074 C 0.74495 0.758 0.52229 0.0
H1075 H 0.74188 0.67304 0.43784 0.0
H1076 H 0.72634 0.69283 0.46459 0.0
H1077 H 0.7893 0.72346 0.51515 0.0
H1078 H 0.76665 0.81701 0.57706 0.0
H1079 H 0.78201 0.79685 0.55043 0.0
C1080 C 0.10391 0.30137 0.95615 0.0
C1081 C 0.10913 0.32871 0.94684 0.0
C1082 C 0.08245 0.28907 0.97122 0.0
C1083 C 1.01499 0.29461 0.99185 0.0
H1084 H 0.02169 0.24616 0.03282 0.0
C1085 C 0.94679 0.26864 0.06219 0.0
C1086 C 0.93119 0.2376 0.06878 0.0
C1087 C 0.96624 0.27715 0.04631 0.0
C1088 C 1.01937 0.25936 0.02132 0.0
H1089 H 0.09761 0.3656 0.94661 0.0
H1090 H 0.06225 0.34576 0.97348 0.0
H1091 H 0.06226 0.26774 0.00838 0.0
H1092 H 0.92374 0.19106 0.06397 0.0
H1093 H 0.95868 0.20619 0.03628 0.0
H1094 H 0.97288 0.28738 1.00538 0.0
C1095 C 0.07322 0.33267 0.96879 0.0
C1096 C 0.04263 0.27176 1.00726 0.0
C1097 C 0.09399 0.34446 0.95354 0.0
C1098 C 0.93503 0.21502 0.05896 0.0
C1099 C 0.95527 0.22375 0.04329 0.0
C1100 C 0.99218 0.28275 1.00607 0.0
C1101 C 0.06613 0.30414 0.97747 0.0
C1102 C 0.04102 0.28994 0.99238 0.0
C1103 C 0.9713 0.255 0.03693 0.0
C1104 C 0.99419 0.26519 0.02104 0.0
H1105 H 0.11485 0.28845 0.95104 0.0
H1106 H 0.07767 0.26701 0.97734 0.0
H1107 H 1.01203 0.30746 0.98041 0.0
H1108 H 0.94451 0.28657 0.06963 0.0
H1109 H 0.97838 0.30141 0.04181 0.0
C1110 C 0.29177 0.07285 0.44646 0.0
C1111 C 0.32281 0.09793 0.44467 0.0
C1112 C 0.28289 0.05228 0.46177 0.0
C1113 C 0.31596 0.02205 0.4973 0.0
H1114 H 0.23364 0.9873 0.5203 0.0
C1115 C 0.28169 0.94755 0.5653 0.0
C1116 C 0.25068 0.92268 0.56755 0.0
C1117 C 0.29026 0.96735 0.54964 0.0
C1118 C 0.25652 0.99637 0.51384 0.0
H1119 H 0.36861 0.12151 0.45801 0.0
H1120 H 0.353 0.0856 0.48501 0.0
H1121 H 0.24936 0.02697 0.49568 0.0
H1122 H 0.20456 0.89851 0.55464 0.0
H1123 H 0.21962 0.93309 0.52696 0.0
H1124 H 0.32314 0.99149 0.51547 0.0
C1125 C 0.33562 0.08174 0.47435 0.0
C1126 C 0.26563 0.01929 0.49976 0.0
C1127 C 0.34452 0.10254 0.45899 0.0
C1128 C 0.22866 0.91734 0.55328 0.0
C1129 C 0.23724 0.93739 0.53755 0.0
C1130 C 0.30684 0.99913 0.51137 0.0
C1131 C 0.30477 0.05605 0.47578 0.0
C1132 C 0.29551 0.03249 0.49131 0.0
C1133 C 0.26807 0.96299 0.5357 0.0
C1134 C 0.27703 0.98603 0.51989 0.0
H1135 H 0.27434 0.06851 0.43572 0.0
H1136 H 0.25907 0.03269 0.46223 0.0
H1137 H 0.33887 0.03118 0.49087 0.0
H1138 H 0.29932 0.95238 0.576 0.0
H1139 H 0.31408 0.9869 0.54887 0.0
C1140 C 0.7545 0.68139 0.06596 0.0
C1141 C 0.786 0.69008 0.06938 0.0
C1142 C 0.74629 0.6934 0.05052 0.0
C1143 C 0.77445 0.73504 1.00475 0.0
H1144 H 0.71279 0.76024 0.01488 0.0
C1145 C 0.74965 0.80704 0.95071 0.0
C1146 C 0.7181 0.79817 0.94724 0.0
C1147 C 0.75788 0.79489 0.96608 0.0
C1148 C 0.72978 0.75305 0.01173 0.0
H1149 H 0.8335 0.7172 0.05873 0.0
H1150 H 0.81921 0.73846 0.0316 0.0
H1151 H 0.72751 0.73592 0.03979 0.0
H1152 H 0.67056 0.77056 0.95778 0.0
H1153 H 0.68492 0.74919 0.98479 0.0
H1154 H 0.77676 0.75224 0.9767 0.0
C1155 C 0.80077 0.72209 0.04088 0.0
C1156 C 0.73824 0.73904 0.02602 0.0
C1157 C 0.809 0.70986 0.05638 0.0
C1158 C 0.69509 0.77805 0.96014 0.0
C1159 C 0.70336 0.76574 0.97558 0.0
C1160 C 0.76601 0.74908 0.99046 0.0
C1161 C 0.76937 0.71466 0.03806 0.0
C1162 C 0.76063 0.72975 0.02273 0.0
C1163 C 0.7348 0.77339 0.97844 0.0
C1164 C 0.74359 0.75834 0.99376 0.0
H1165 H 0.73613 0.66594 0.07561 0.0
H1166 H 0.7218 0.68641 0.04854 0.0
H1167 H 0.79144 0.72785 1.0016 0.0
H1168 H 0.76806 0.82274 0.94117 0.0
H1169 H 0.7824 0.80201 0.96809 0.0
C1170 C 0.07343 0.31816 0.5707 0.0
C1171 C 0.1018 0.31779 0.57203 0.0
C1172 C 0.05405 0.30616 0.55486 0.0
C1173 C 0.0526 0.28455 0.50462 0.0
H1174 H 0.96237 0.24143 0.51237 0.0
C1175 C 0.96746 0.26301 0.44322 0.0
C1176 C 0.93846 0.2348 0.44231 0.0
C1177 C 0.98679 0.27062 0.4591 0.0
C1178 C 0.98745 0.25306 0.50991 0.0
H1179 H 0.13215 0.3048 0.55736 0.0
H1180 H 0.09808 0.28358 0.52951 0.0
H1181 H 0.99761 0.25875 0.53952 0.0
H1182 H 0.90699 0.19267 0.45778 0.0
H1183 H 0.941 0.20594 0.48571 0.0
H1184 H 0.04243 0.27851 0.47501 0.0
C1185 C 0.091 0.29345 0.54082 0.0
C1186 C 1.00777 0.2634 0.52551 0.0
C1187 C 0.11059 0.30563 0.55678 0.0
C1188 C 0.92906 0.21463 0.45802 0.0
C1189 C 0.9486 0.22228 0.47402 0.0
C1190 C 0.03228 0.27416 0.48902 0.0
C1191 C 0.06221 0.29318 0.53977 0.0
C1192 C 0.04067 0.27985 0.5231 0.0
C1193 C 0.97796 0.25027 0.47466 0.0
C1194 C 0.9994 0.2588 0.49141 0.0
H1195 H 0.06587 0.32757 0.58203 0.0
H1196 H 0.03261 0.30723 0.55444 0.0
H1197 H 0.07769 0.29714 0.50214 0.0
H1198 H 0.97553 0.2794 0.43154 0.0
H1199 H 1.00871 0.29274 0.45918 0.0
C1200 C 0.65187 0.13312 0.10581 0.0
C1201 C 0.67858 0.16191 0.11052 0.0
C1202 C 0.62159 0.1285 0.10822 0.0
C1203 C 0.57724 0.16057 0.13313 0.0
H1204 H 0.51395 0.11484 0.09493 0.0
C1205 C 0.46246 0.16473 0.12822 0.0
C1206 C 0.43428 0.13719 0.12367 0.0
C1207 C 0.49125 0.16557 0.12764 0.0
C1208 C 0.53119 0.12728 0.10587 0.0
H1209 H 0.69412 0.20844 0.12144 0.0
H1210 H 0.64139 0.20051 0.12553 0.0
H1211 H 0.56613 0.12099 0.09181 0.0
H1212 H 0.41446 0.08876 0.11508 0.0
H1213 H 0.46502 0.09025 0.11402 0.0
H1214 H 0.54244 0.1673 0.14702 0.0
C1215 C 0.64382 0.18126 0.12024 0.0
C1216 C 0.56119 0.13084 0.10409 0.0
C1217 C 0.67413 0.18586 0.11788 0.0
C1218 C 0.43567 0.11033 0.1187 0.0
C1219 C 0.46466 0.11126 0.11798 0.0
C1220 C 0.54731 0.1571 0.13488 0.0
C1221 C 0.61709 0.15253 0.11539 0.0
C1222 C 0.58475 0.1478 0.11761 0.0
C1223 C 0.49284 0.13896 0.12241 0.0
C1224 C 0.52397 0.14068 0.12118 0.0
H1225 H 0.65432 0.11392 0.10045 0.0
H1226 H 0.60166 0.10588 0.10465 0.0
H1227 H 0.59447 0.1732 0.14404 0.0
H1228 H 0.46244 0.18593 0.13214 0.0
H1229 H 0.51242 0.18742 0.1309 0.0
C1230 C 0.73024 0.56901 0.38452 0.0
C1231 C 0.73107 0.59788 0.38345 0.0
C1232 C 0.70186 0.54076 0.38326 0.0
C1233 C 0.61759 0.50611 0.39221 0.0
H1234 H 0.61245 0.4346 0.36617 0.0
C1235 C 0.50448 0.38365 0.39358 0.0
C1236 C 0.50855 0.35754 0.3957 0.0
C1237 C 0.53019 0.41349 0.38997 0.0
C1238 C 0.61351 0.45422 0.37367 0.0
H1239 H 0.7026 0.61961 0.37975 0.0
H1240 H 0.65253 0.56984 0.37768 0.0
H1241 H 0.65948 0.48593 0.36299 0.0
H1242 H 0.54314 0.34262 0.3957 0.0
H1243 H 0.58788 0.39447 0.38953 0.0
H1244 H 0.57197 0.47426 0.40333 0.0
C1245 C 0.6741 0.5693 0.37952 0.0
C1246 C 0.64047 0.48372 0.37177 0.0
C1247 C 0.70275 0.59777 0.38055 0.0
C1248 C 0.539 0.36204 0.39388 0.0
C1249 C 0.56471 0.39187 0.39031 0.0
C1250 C 0.59061 0.47653 0.39418 0.0
C1251 C 0.67334 0.54044 0.38104 0.0
C1252 C 0.64312 0.50995 0.38129 0.0
C1253 C 0.56072 0.41807 0.38839 0.0
C1254 C 0.58843 0.45005 0.3852 0.0
H1255 H 0.75161 0.56817 0.38666 0.0
H1256 H 0.70222 0.51909 0.38471 0.0
H1257 H 0.61897 0.52572 0.39991 0.0
H1258 H 0.48131 0.38102 0.3946 0.0
H1259 H 0.52606 0.43293 0.38828 0.0
C1260 C 0.86463 0.30182 0.11966 0.0
C1261 C 0.88969 0.30061 0.12842 0.0
C1262 C 0.862 0.32861 0.1208 0.0
C1263 C 0.90742 0.41373 0.12869 0.0
H1264 H 0.82446 0.40385 0.13394 0.0
C1265 C 0.88612 0.51956 0.13081 0.0
C1266 C 0.86085 0.51653 0.11985 0.0
C1267 C 0.89032 0.49382 0.13381 0.0
C1268 C 0.84777 0.40704 0.13234 0.0
H1269 H 0.93167 0.32694 0.14538 0.0
H1270 H 0.92705 0.37414 0.14737 0.0
H1271 H 0.83088 0.35814 0.13613 0.0
H1272 H 0.81986 0.48383 0.10379 0.0
H1273 H 0.82725 0.4391 0.10888 0.0
H1274 H 0.92418 0.4627 0.12465 0.0
C1275 C 0.90951 0.35413 0.13953 0.0
C1276 C 0.85147 0.38082 0.13361 0.0
C1277 C 0.91207 0.32705 0.13847 0.0
C1278 C 0.8397 0.48706 0.11217 0.0
C1279 C 0.84378 0.46132 0.11526 0.0
C1280 C 0.90371 0.44006 0.12744 0.0
C1281 C 0.88433 0.35514 0.13073 0.0
C1282 C 0.88122 0.38369 0.13141 0.0
C1283 C 0.8692 0.46437 0.12605 0.0
C1284 C 0.87372 0.43693 0.12888 0.0
H1285 H 0.84683 0.28199 0.1118 0.0
H1286 H 0.84262 0.32867 0.11357 0.0
H1287 H 0.93062 0.41677 0.12678 0.0
H1288 H 0.90303 0.542 0.13679 0.0
H1289 H 0.91002 0.49695 0.14229 0.0
C1290 C 0.46202 0.1651 0.3854 0.0
C1291 C 0.43388 0.13818 0.39076 0.0
C1292 C 0.49076 0.16597 0.38657 0.0
C1293 C 0.52822 0.11703 0.39112 0.0
H1294 H 0.59871 0.19502 0.409 0.0
C1295 C 0.64995 0.13114 0.40991 0.0
C1296 C 0.67696 0.15943 0.4048 0.0
C1297 C 0.6199 0.12731 0.40779 0.0
C1298 C 0.57942 0.17318 0.40376 0.0
H1299 H 0.41399 0.09061 0.40105 0.0
H1300 H 0.46455 0.09222 0.40334 0.0
H1301 H 0.54715 0.19 0.40621 0.0
H1302 H 0.69323 0.20579 0.3933 0.0
H1303 H 0.64091 0.19901 0.38938 0.0
H1304 H 0.56074 0.10025 0.38885 0.0
C1305 C 0.46419 0.11263 0.39806 0.0
C1306 C 0.54974 0.17027 0.40215 0.0
C1307 C 0.43519 0.11169 0.39679 0.0
C1308 C 0.67303 0.18362 0.39728 0.0
C1309 C 0.64299 0.17984 0.39522 0.0
C1310 C 0.55801 0.11994 0.39279 0.0
C1311 C 0.49244 0.14004 0.39328 0.0
C1312 C 0.52374 0.14229 0.39562 0.0
C1313 C 0.616 0.15171 0.40057 0.0
C1314 C 0.58407 0.14817 0.39899 0.0
H1315 H 0.46198 0.18584 0.38042 0.0
H1316 H 0.51179 0.18718 0.38225 0.0
H1317 H 0.50887 0.09523 0.3859 0.0
H1318 H 0.65199 0.11181 0.41551 0.0
H1319 H 0.59973 0.10541 0.41218 0.0
C1320 C 0.53845 0.35776 0.12197 0.0
C1321 C 0.50771 0.35279 0.12136 0.0
C1322 C 0.56411 0.38766 0.12546 0.0
C1323 C 0.58815 0.47203 0.1234 0.0
H1324 H 0.66011 0.48209 0.15172 0.0
C1325 C 0.69887 0.59424 0.13687 0.0
C1326 C 0.72757 0.59562 0.13304 0.0
C1327 C 0.67084 0.56519 0.13785 0.0
C1328 C 0.64023 0.47969 0.14373 0.0
H1329 H 0.47991 0.37539 0.12463 0.0
H1330 H 0.52456 0.42739 0.13084 0.0
H1331 H 0.61362 0.43029 0.14877 0.0
H1332 H 0.74941 0.56747 0.12804 0.0
H1333 H 0.70106 0.51739 0.12984 0.0
H1334 H 0.61503 0.52149 0.11823 0.0
C1335 C 0.52894 0.40831 0.12823 0.0
C1336 C 0.61357 0.44993 0.14197 0.0
C1337 C 0.50329 0.37843 0.12468 0.0
C1338 C 0.72774 0.56737 0.13091 0.0
C1339 C 0.69997 0.53853 0.13209 0.0
C1340 C 0.61481 0.50186 0.12522 0.0
C1341 C 0.55977 0.41343 0.12852 0.0
C1342 C 0.58734 0.44555 0.1315 0.0
C1343 C 0.67106 0.53698 0.13531 0.0
C1344 C 0.64141 0.50598 0.13512 0.0
H1345 H 0.54281 0.3387 0.11921 0.0
H1346 H 0.58748 0.39069 0.12525 0.0
H1347 H 0.5686 0.46961 0.11505 0.0
H1348 H 0.69791 0.61555 0.13852 0.0
H1349 H 0.64898 0.56481 0.14049 0.0
C1350 C 0.89411 0.51983 0.38463 0.0
C1351 C 0.86827 0.51605 0.39525 0.0
C1352 C 0.89822 0.49421 0.38094 0.0
C1353 C 0.85471 0.40741 0.37949 0.0
H1354 H 0.93647 0.41505 0.38649 0.0
C1355 C 0.86826 0.30058 0.39244 0.0
C1356 C 0.89308 0.29858 0.38402 0.0
C1357 C 0.86647 0.32779 0.39105 0.0
C1358 C 0.91362 0.41266 0.38415 0.0
H1359 H 0.82621 0.48217 0.40999 0.0
H1360 H 0.83343 0.43768 0.4037 0.0
H1361 H 0.93087 0.46143 0.38944 0.0
H1362 H 0.93551 0.32391 0.36737 0.0
H1363 H 0.9325 0.37211 0.36506 0.0
H1364 H 0.83728 0.35867 0.37457 0.0
C1365 C 0.85048 0.46039 0.39811 0.0
C1366 C 0.91037 0.43922 0.38587 0.0
C1367 C 0.8465 0.48599 0.40191 0.0
C1368 C 0.91608 0.32467 0.374 0.0
C1369 C 0.91443 0.35227 0.37276 0.0
C1370 C 0.85795 0.38098 0.37776 0.0
C1371 C 0.87643 0.46415 0.38762 0.0
C1372 C 0.88071 0.43674 0.38401 0.0
C1373 C 0.88948 0.35404 0.38125 0.0
C1374 C 0.88726 0.38307 0.38053 0.0
H1375 H 0.91149 0.54272 0.37944 0.0
H1376 H 0.91836 0.49791 0.37273 0.0
H1377 H 0.83168 0.40477 0.37752 0.0
H1378 H 0.84995 0.28101 0.4002 0.0
H1379 H 0.84723 0.32843 0.39803 0.0
C1380 C 0.19507 0.66135 0.61424 0.0
C1381 C 0.17311 0.66946 0.62072 0.0
C1382 C 0.19092 0.63164 0.61784 0.0
C1383 C 0.13044 0.55021 0.62917 0.0
H1384 H 0.20301 0.54207 0.6408 0.0
C1385 C 0.1236 0.42935 0.64055 0.0
C1386 C 0.14671 0.42627 0.63069 0.0
C1387 C 0.12547 0.45868 0.64187 0.0
C1388 C 0.18248 0.5439 0.63752 0.0
H1389 H 0.1294 0.65247 0.63606 0.0
H1390 H 0.12227 0.60058 0.64247 0.0
H1391 H 0.20896 0.59398 0.6382 0.0
H1392 H 0.19023 0.45191 0.61487 0.0
H1393 H 0.19332 0.50222 0.61718 0.0
H1394 H 0.10413 0.49995 0.62813 0.0
C1395 C 0.14267 0.61725 0.63453 0.0
C1396 C 0.18592 0.57369 0.63598 0.0
C1397 C 0.14694 0.6471 0.63101 0.0
C1398 C 0.17184 0.45317 0.62251 0.0
C1399 C 0.17383 0.48226 0.62397 0.0
C1400 C 0.12699 0.5203 0.63071 0.0
C1401 C 0.16463 0.60914 0.62798 0.0
C1402 C 0.16012 0.57729 0.63135 0.0
C1403 C 0.15072 0.48549 0.63362 0.0
C1404 C 0.15316 0.51683 0.63445 0.0
H1405 H 0.21562 0.67805 0.60641 0.0
H1406 H 0.20811 0.62611 0.61237 0.0
H1407 H 0.11009 0.55212 0.6255 0.0
H1408 H 0.10394 0.40911 0.647 0.0
H1409 H 0.10732 0.46044 0.64945 0.0
C1410 C 0.31307 0.86059 0.88679 0.0
C1411 C 0.31323 0.88899 0.8845 0.0
C1412 C 0.34079 0.8595 0.88547 0.0
C1413 C 0.42634 0.90822 0.89112 0.0
H1414 H 0.42581 0.83629 0.86873 0.0
C1415 C 0.53679 0.89411 0.89044 0.0
C1416 C 0.53177 0.86415 0.89491 0.0
C1417 C 0.51138 0.89884 0.88715 0.0
C1418 C 0.42634 0.85644 0.87517 0.0
H1419 H 0.34283 0.9385 0.87859 0.0
H1420 H 0.39164 0.93662 0.8763 0.0
H1421 H 0.37958 0.84199 0.86592 0.0
H1422 H 0.49594 0.81556 0.89902 0.0
H1423 H 0.45174 0.82382 0.89354 0.0
H1424 H 0.47295 0.92234 0.90068 0.0
C1425 C 0.36984 0.9152 0.87922 0.0
C1426 C 0.39982 0.85975 0.87352 0.0
C1427 C 0.34187 0.91625 0.88038 0.0
C1428 C 0.5007 0.83899 0.89578 0.0
C1429 C 0.47533 0.84369 0.89242 0.0
C1430 C 0.45293 0.9049 0.89278 0.0
C1431 C 0.36963 0.88679 0.88189 0.0
C1432 C 0.39921 0.88534 0.88179 0.0
C1433 C 0.48029 0.87369 0.88814 0.0
C1434 C 0.45304 0.87864 0.88513 0.0
H1435 H 0.29148 0.83905 0.88988 0.0
H1436 H 0.3397 0.8373 0.88786 0.0
H1437 H 0.4266 0.92805 0.89783 0.0
H1438 H 0.56038 0.91409 0.88983 0.0
H1439 H 0.5161 0.92221 0.88375 0.0
C1440 C 0.57929 0.7211 0.62817 0.0
C1441 C 0.6076 0.723 0.62253 0.0
C1442 C 0.55097 0.69268 0.62763 0.0
C1443 C 0.51142 0.61588 0.6042 0.0
H1444 H 0.45024 0.59483 0.64418 0.0
C1445 C 0.39106 0.50008 0.60409 0.0
C1446 C 0.36463 0.50147 0.61035 0.0
C1447 C 0.42142 0.52586 0.60611 0.0
C1448 C 0.46686 0.60047 0.63277 0.0
H1449 H 0.62823 0.69611 0.61208 0.0
H1450 H 0.5784 0.64612 0.61106 0.0
H1451 H 0.50208 0.64125 0.64712 0.0
H1452 H 0.34979 0.53139 0.62375 0.0
H1453 H 0.40248 0.57649 0.62681 0.0
H1454 H 0.47599 0.57542 0.58967 0.0
C1455 C 0.57832 0.6669 0.61585 0.0
C1456 C 0.49669 0.62707 0.6345 0.0
C1457 C 0.60688 0.69548 0.61656 0.0
C1458 C 0.36946 0.52946 0.61859 0.0
C1459 C 0.39981 0.55526 0.62059 0.0
C1460 C 0.48149 0.58928 0.60243 0.0
C1461 C 0.54999 0.66522 0.62135 0.0
C1462 C 0.51924 0.63538 0.62014 0.0
C1463 C 0.42626 0.55382 0.61442 0.0
C1464 C 0.45865 0.58141 0.61659 0.0
H1465 H 0.57884 0.74173 0.63291 0.0
H1466 H 0.52964 0.69241 0.63173 0.0
H1467 H 0.52807 0.62177 0.59277 0.0
H1468 H 0.38833 0.47912 0.59743 0.0
H1469 H 0.44114 0.5237 0.60134 0.0
C1470 C 0.14832 0.651 0.88813 0.0
C1471 C 0.17677 0.67583 0.89508 0.0
C1472 C 0.14475 0.62136 0.88507 0.0
C1473 C 0.19003 0.57982 0.87983 0.0
H1474 H 0.1114 0.50676 0.89447 0.0
C1475 C 0.17839 0.45922 0.89242 0.0
C1476 C 0.15109 0.43209 0.88627 0.0
C1477 C 0.1808 0.48859 0.89132 0.0
C1478 C 0.13334 0.52687 0.89004 0.0
H1479 H 0.22386 0.68884 0.90413 0.0
H1480 H 0.21764 0.6372 0.89896 0.0
H1481 H 0.11727 0.55875 0.8968 0.0
H1482 H 0.10499 0.41481 0.87388 0.0
H1483 H 0.10913 0.46642 0.87208 0.0
H1484 H 0.20632 0.54794 0.87351 0.0
C1485 C 0.19817 0.64071 0.89555 0.0
C1486 C 0.13674 0.55675 0.89137 0.0
C1487 C 0.20177 0.67039 0.89854 0.0
C1488 C 0.12634 0.4352 0.87873 0.0
C1489 C 0.12865 0.46473 0.8778 0.0
C1490 C 0.18667 0.54999 0.87858 0.0
C1491 C 0.16952 0.61569 0.88892 0.0
C1492 C 0.16528 0.58369 0.88651 0.0
C1493 C 0.15593 0.49176 0.88414 0.0
C1494 C 0.15843 0.52316 0.88391 0.0
H1495 H 0.12874 0.65448 0.885 0.0
H1496 H 0.12256 0.60291 0.87961 0.0
H1497 H 0.21212 0.59988 0.87556 0.0
H1498 H 0.19805 0.45785 0.89823 0.0
H1499 H 0.20198 0.50878 0.89655 0.0
C1500 C 0.312 0.86175 0.63038 0.0
C1501 C 0.31117 0.88978 0.63135 0.0
C1502 C 0.34033 0.86189 0.63183 0.0
C1503 C 0.42485 0.91163 0.62356 0.0
H1504 H 0.42849 0.84391 0.64903 0.0
C1505 C 0.53652 0.89945 0.62272 0.0
C1506 C 0.5314 0.86908 0.61958 0.0
C1507 C 0.51129 0.90431 0.62632 0.0
C1508 C 0.42785 0.86289 0.64174 0.0
H1509 H 0.33961 0.94001 0.6351 0.0
H1510 H 0.38962 0.94032 0.63756 0.0
H1511 H 0.3819 0.84888 0.65225 0.0
H1512 H 0.49564 0.81997 0.61818 0.0
H1513 H 0.45174 0.82842 0.6242 0.0
H1514 H 0.47059 0.92518 0.61269 0.0
C1515 C 0.36808 0.9182 0.63561 0.0
C1516 C 0.40115 0.8658 0.64364 0.0
C1517 C 0.33946 0.91802 0.63436 0.0
C1518 C 0.50045 0.84369 0.62035 0.0
C1519 C 0.47528 0.84853 0.62403 0.0
C1520 C 0.45164 0.90871 0.62165 0.0
C1521 C 0.36882 0.8901 0.6342 0.0
C1522 C 0.39897 0.88975 0.63422 0.0
C1523 C 0.48031 0.87891 0.627 0.0
C1524 C 0.45317 0.88387 0.63038 0.0
H1525 H 0.29066 0.83951 0.62818 0.0
H1526 H 0.33996 0.83986 0.63043 0.0
H1527 H 0.42386 0.93018 0.61597 0.0
H1528 H 0.56001 0.91959 0.62205 0.0
H1529 H 0.51607 0.92799 0.62867 0.0
C1530 C 0.6061 0.69473 0.89889 0.0
C1531 C 0.60744 0.72296 0.89388 0.0
C1532 C 0.57715 0.6666 0.89956 0.0
C1533 C 0.49487 0.62986 0.88221 0.0
H1534 H 0.4752 0.57443 0.9252 0.0
C1535 C 0.36785 0.53181 0.89808 0.0
C1536 C 0.36316 0.50299 0.90488 0.0
C1537 C 0.3982 0.55767 0.8963 0.0
C1538 C 0.4804 0.5894 0.91295 0.0
H1539 H 0.57922 0.74347 0.88539 0.0
H1540 H 0.52933 0.69491 0.88657 0.0
H1541 H 0.5275 0.62053 0.92239 0.0
H1542 H 0.38705 0.47919 0.9155 0.0
H1543 H 0.43983 0.52391 0.91196 0.0
H1544 H 0.44788 0.59894 0.87276 0.0
C1545 C 0.55052 0.69429 0.88985 0.0
C1546 C 0.51045 0.61584 0.91135 0.0
C1547 C 0.57925 0.72227 0.88931 0.0
C1548 C 0.38969 0.50083 0.90995 0.0
C1549 C 0.42003 0.52666 0.90815 0.0
C1550 C 0.46491 0.60343 0.88378 0.0
C1551 C 0.549 0.66609 0.89505 0.0
C1552 C 0.51792 0.63663 0.89608 0.0
C1553 C 0.42473 0.55544 0.90126 0.0
C1554 C 0.45711 0.58301 0.89929 0.0
H1555 H 0.62733 0.69442 0.90252 0.0
H1556 H 0.57681 0.64523 0.90349 0.0
H1557 H 0.49998 0.64507 0.87009 0.0
H1558 H 0.34806 0.53434 0.89388 0.0
H1559 H 0.40083 0.57954 0.89118 0.0
loop_
_geom_bond_atom_site_label_1
_geom_bond_atom_site_label_2
_geom_bond_distance
_geom_bond_site_symmetry_2
_ccdc_geom_bond_type
Tb0 C10 2.825 . S
Tb0 O11 2.347 . S
Tb0 O14 2.366 . S
Tb0 O19 2.418 . S
Tb0 O20 2.384 . S
Tb0 O23 2.479 . S
Tb0 O24 2.471 . S
Eu1 O12 2.418 . S
Eu1 O13 2.384 . S
Eu1 O16 2.479 . S
Eu1 O17 2.471 . S
Eu1 O18 2.347 . S
Eu1 O21 2.366 . S
Eu1 C31 2.825 . S
C2 O18 1.259 . S
C2 O19 1.265 . S
C3 O20 1.255 . S
C3 O21 1.265 . S
C4 C6 1.380 . S
C4 C7 1.374 . S
C4 C10 1.507 . S
C5 C6 1.384 . S
C5 C9 1.387 . S
C5 H32 0.930 . S
C6 C4 1.380 . S
C6 C5 1.384 . S
C6 H33 0.931 . S
C7 C4 1.374 . S
C7 C8 1.390 . S
C7 H34 0.930 . S
C8 C7 1.390 . S
C8 C9 1.391 . S
C8 H35 0.930 . S
C9 C5 1.387 . S
C9 C8 1.391 . S
C10 Tb0 2.825 . S
C10 C4 1.507 . S
C10 O23 1.238 . S
C10 O24 1.247 . S
O11 Tb0 2.347 . S
O11 C15 1.259 . S
O12 Eu1 2.418 . S
O12 C15 1.265 . S
O13 Eu1 2.384 . S
O13 C22 1.255 . S
O14 Tb0 2.366 . S
O14 C22 1.265 . S
C15 O11 1.259 . S
C15 O12 1.265 . S
O16 Eu1 2.479 . S
O16 C31 1.238 . S
O17 Eu1 2.471 . S
O17 C31 1.247 . S
O18 Eu1 2.347 . S
O18 C2 1.259 . S
O19 Tb0 2.418 . S
O19 C2 1.265 . S
O20 Tb0 2.384 . S
O20 C3 1.255 . S
O21 Eu1 2.366 . S
O21 C3 1.265 . S
C22 O13 1.255 . S
C22 O14 1.265 . S
O23 Tb0 2.479 . S
O23 C10 1.238 . S
O24 Tb0 2.471 . S
O24 C10 1.247 . S
C25 C28 1.380 . S
C25 C29 1.374 . S
C25 C31 1.507 . S
C26 C27 1.387 . S
C26 C30 1.391 . S
C27 C26 1.387 . S
C27 C28 1.384 1_565 S
C27 H36 0.930 . S
C28 C25 1.380 . S
C28 C27 1.384 1_545 S
C28 H37 0.931 . S
C29 C25 1.374 . S
C29 C30 1.390 1_545 S
C29 H38 0.930 . S
C30 C26 1.391 . S
C30 C29 1.390 1_565 S
C30 H39 0.930 . S
C31 Eu1 2.825 . S
C31 O16 1.238 . S
C31 O17 1.247 . S
C31 C25 1.507 . S
H32 C5 0.930 . S
H33 C6 0.931 . S
H34 C7 0.930 . S
H35 C8 0.930 . S
H36 C27 0.930 . S
H37 C28 0.931 . S
H38 C29 0.930 . S
H39 C30 0.930 . S
Tb40 C50 2.825 . S
Tb40 O51 2.347 . S
Tb40 O54 2.366 . S
Tb40 O59 2.418 . S
Tb40 O60 2.384 . S
Tb40 O63 2.479 . S
Tb40 O64 2.471 . S
Eu41 O52 2.418 . S
Eu41 O53 2.384 . S
Eu41 O56 2.479 . S
Eu41 O57 2.471 . S
Eu41 O58 2.347 . S
Eu41 O61 2.366 . S
Eu41 C71 2.825 . S
C42 O58 1.259 . S
C42 O59 1.265 . S
C43 O60 1.255 . S
C43 O61 1.265 . S
C44 C46 1.380 . S
C44 C47 1.374 . S
C44 C50 1.507 . S
C45 C46 1.384 . S
C45 C49 1.387 . S
C45 H72 0.930 . S
C46 C44 1.380 . S
C46 C45 1.384 . S
C46 H73 0.931 . S
C47 C44 1.374 . S
C47 C48 1.390 . S
C47 H74 0.930 . S
C48 C47 1.390 . S
C48 C49 1.391 . S
C48 H75 0.930 . S
C49 C45 1.387 . S
C49 C48 1.391 . S
C50 Tb40 2.825 . S
C50 C44 1.507 . S
C50 O63 1.238 . S
C50 O64 1.247 . S
O51 Tb40 2.347 . S
O51 C55 1.259 . S
O52 Eu41 2.418 . S
O52 C55 1.265 . S
O53 Eu41 2.384 . S
O53 C62 1.255 . S
O54 Tb40 2.366 . S
O54 C62 1.265 . S
C55 O51 1.259 . S
C55 O52 1.265 . S
O56 Eu41 2.479 . S
O56 C71 1.238 . S
O57 Eu41 2.471 . S
O57 C71 1.247 . S
O58 Eu41 2.347 . S
O58 C42 1.259 . S
O59 Tb40 2.418 . S
O59 C42 1.265 . S
O60 Tb40 2.384 . S
O60 C43 1.255 . S
O61 Eu41 2.366 . S
O61 C43 1.265 . S
C62 O53 1.255 . S
C62 O54 1.265 . S
O63 Tb40 2.479 . S
O63 C50 1.238 . S
O64 Tb40 2.471 . S
O64 C50 1.247 . S
C65 C68 1.380 . S
C65 C69 1.374 . S
C65 C71 1.507 . S
C66 C67 1.387 . S
C66 C70 1.391 . S
C67 C66 1.387 . S
C67 C68 1.384 . S
C67 H76 0.930 . S
C68 C65 1.380 . S
C68 C67 1.384 . S
C68 H77 0.931 . S
C69 C65 1.374 . S
C69 C70 1.390 . S
C69 H78 0.930 . S
C70 C66 1.391 . S
C70 C69 1.390 . S
C70 H79 0.930 . S
C71 Eu41 2.825 . S
C71 O56 1.238 . S
C71 O57 1.247 . S
C71 C65 1.507 . S
H72 C45 0.930 . S
H73 C46 0.931 . S
H74 C47 0.930 . S
H75 C48 0.930 . S
H76 C67 0.930 . S
H77 C68 0.931 . S
H78 C69 0.930 . S
H79 C70 0.930 . S
Tb80 C90 2.825 . S
Tb80 O91 2.347 . S
Tb80 O94 2.366 . S
Tb80 O99 2.418 . S
Tb80 O100 2.384 . S
Tb80 O103 2.479 . S
Tb80 O104 2.471 . S
Eu81 O92 2.418 . S
Eu81 O93 2.384 . S
Eu81 O96 2.479 . S
Eu81 O97 2.471 . S
Eu81 O98 2.347 . S
Eu81 O101 2.366 . S
Eu81 C111 2.825 . S
C82 O98 1.259 . S
C82 O99 1.265 . S
C83 O100 1.255 . S
C83 O101 1.265 . S
C84 C86 1.380 . S
C84 C87 1.374 . S
C84 C90 1.507 . S
C85 C86 1.384 . S
C85 C89 1.387 . S
C85 H112 0.930 . S
C86 C84 1.380 . S
C86 C85 1.384 . S
C86 H113 0.931 . S
C87 C84 1.374 . S
C87 C88 1.390 . S
C87 H114 0.930 . S
C88 C87 1.390 . S
C88 C89 1.391 . S
C88 H115 0.930 . S
C89 C85 1.387 . S
C89 C88 1.391 . S
C90 Tb80 2.825 . S
C90 C84 1.507 . S
C90 O103 1.238 . S
C90 O104 1.247 . S
O91 Tb80 2.347 . S
O91 C95 1.259 . S
O92 Eu81 2.418 . S
O92 C95 1.265 . S
O93 Eu81 2.384 . S
O93 C102 1.255 . S
O94 Tb80 2.366 . S
O94 C102 1.265 . S
C95 O91 1.259 . S
C95 O92 1.265 . S
O96 Eu81 2.479 . S
O96 C111 1.238 . S
O97 Eu81 2.471 . S
O97 C111 1.247 . S
O98 Eu81 2.347 . S
O98 C82 1.259 . S
O99 Tb80 2.418 . S
O99 C82 1.265 . S
O100 Tb80 2.384 . S
O100 C83 1.255 . S
O101 Eu81 2.366 . S
O101 C83 1.265 . S
C102 O93 1.255 . S
C102 O94 1.265 . S
O103 Tb80 2.479 . S
O103 C90 1.238 . S
O104 Tb80 2.471 . S
O104 C90 1.247 . S
C105 C108 1.380 . S
C105 C109 1.374 . S
C105 C111 1.507 . S
C106 C107 1.387 . S
C106 C110 1.391 . S
C107 C106 1.387 . S
C107 C108 1.384 1_455 S
C107 H116 0.930 . S
C108 C105 1.380 . S
C108 C107 1.384 1_655 S
C108 H117 0.931 . S
C109 C105 1.374 . S
C109 C110 1.390 1_655 S
C109 H118 0.930 . S
C110 C106 1.391 . S
C110 C109 1.390 1_455 S
C110 H119 0.930 . S
C111 Eu81 2.825 . S
C111 O96 1.238 . S
C111 O97 1.247 . S
C111 C105 1.507 . S
H112 C85 0.930 . S
H113 C86 0.931 . S
H114 C87 0.930 . S
H115 C88 0.930 . S
H116 C107 0.930 . S
H117 C108 0.931 . S
H118 C109 0.930 . S
H119 C110 0.930 . S
Tb120 C130 2.825 . S
Tb120 O131 2.347 . S
Tb120 O134 2.366 . S
Tb120 O139 2.418 . S
Tb120 O140 2.384 . S
Tb120 O143 2.479 . S
Tb120 O144 2.471 . S
Eu121 O132 2.418 . S
Eu121 O133 2.384 . S
Eu121 O136 2.479 . S
Eu121 O137 2.471 . S
Eu121 O138 2.347 . S
Eu121 O141 2.366 . S
Eu121 C151 2.825 . S
C122 O138 1.259 . S
C122 O139 1.265 . S
C123 O140 1.255 . S
C123 O141 1.265 . S
C124 C126 1.380 . S
C124 C127 1.374 . S
C124 C130 1.507 . S
C125 C126 1.384 1_565 S
C125 C129 1.387 . S
C125 H152 0.930 . S
C126 C124 1.380 . S
C126 C125 1.384 1_545 S
C126 H153 0.931 . S
C127 C124 1.374 . S
C127 C128 1.390 1_545 S
C127 H154 0.930 . S
C128 C127 1.390 1_565 S
C128 C129 1.391 . S
C128 H155 0.930 . S
C129 C125 1.387 . S
C129 C128 1.391 . S
C130 Tb120 2.825 . S
C130 C124 1.507 . S
C130 O143 1.238 . S
C130 O144 1.247 . S
O131 Tb120 2.347 . S
O131 C135 1.259 . S
O132 Eu121 2.418 . S
O132 C135 1.265 . S
O133 Eu121 2.384 . S
O133 C142 1.255 . S
O134 Tb120 2.366 . S
O134 C142 1.265 . S
C135 O131 1.259 . S
C135 O132 1.265 . S
O136 Eu121 2.479 . S
O136 C151 1.238 . S
O137 Eu121 2.471 . S
O137 C151 1.247 . S
O138 Eu121 2.347 . S
O138 C122 1.259 . S
O139 Tb120 2.418 . S
O139 C122 1.265 . S
O140 Tb120 2.384 . S
O140 C123 1.255 . S
O141 Eu121 2.366 . S
O141 C123 1.265 . S
C142 O133 1.255 . S
C142 O134 1.265 . S
O143 Tb120 2.479 . S
O143 C130 1.238 . S
O144 Tb120 2.471 . S
O144 C130 1.247 . S
C145 C148 1.380 . S
C145 C149 1.374 . S
C145 C151 1.507 . S
C146 C147 1.387 . S
C146 C150 1.391 . S
C147 C146 1.387 . S
C147 C148 1.384 . S
C147 H156 0.930 . S
C148 C145 1.380 . S
C148 C147 1.384 . S
C148 H157 0.931 . S
C149 C145 1.374 . S
C149 C150 1.390 . S
C149 H158 0.930 . S
C150 C146 1.391 . S
C150 C149 1.390 . S
C150 H159 0.930 . S
C151 Eu121 2.825 . S
C151 O136 1.238 . S
C151 O137 1.247 . S
C151 C145 1.507 . S
H152 C125 0.930 . S
H153 C126 0.931 . S
H154 C127 0.930 . S
H155 C128 0.930 . S
H156 C147 0.930 . S
H157 C148 0.931 . S
H158 C149 0.930 . S
H159 C150 0.930 . S
Tb160 C170 2.825 . S
Tb160 O171 2.347 . S
Tb160 O174 2.366 . S
Tb160 O179 2.418 . S
Tb160 O180 2.384 . S
Tb160 O183 2.479 . S
Tb160 O184 2.471 . S
Eu161 O172 2.418 . S
Eu161 O173 2.384 . S
Eu161 O176 2.479 . S
Eu161 O177 2.471 . S
Eu161 O178 2.347 . S
Eu161 O181 2.366 . S
Eu161 C191 2.825 . S
C162 O178 1.259 . S
C162 O179 1.265 . S
C163 O180 1.255 . S
C163 O181 1.265 . S
C164 C166 1.380 . S
C164 C167 1.374 . S
C164 C170 1.507 . S
C165 C166 1.384 . S
C165 C169 1.387 . S
C165 H192 0.930 . S
C166 C164 1.380 . S
C166 C165 1.384 . S
C166 H193 0.931 . S
C167 C164 1.374 . S
C167 C168 1.390 . S
C167 H194 0.930 . S
C168 C167 1.390 . S
C168 C169 1.391 . S
C168 H195 0.930 . S
C169 C165 1.387 . S
C169 C168 1.391 . S
C170 Tb160 2.825 . S
C170 C164 1.507 . S
C170 O183 1.238 . S
C170 O184 1.247 . S
O171 Tb160 2.347 . S
O171 C175 1.259 . S
O172 Eu161 2.418 . S
O172 C175 1.265 . S
O173 Eu161 2.384 . S
O173 C182 1.255 . S
O174 Tb160 2.366 . S
O174 C182 1.265 . S
C175 O171 1.259 . S
C175 O172 1.265 . S
O176 Eu161 2.479 . S
O176 C191 1.238 . S
O177 Eu161 2.471 . S
O177 C191 1.247 . S
O178 Eu161 2.347 . S
O178 C162 1.259 . S
O179 Tb160 2.418 . S
O179 C162 1.265 . S
O180 Tb160 2.384 . S
O180 C163 1.255 . S
O181 Eu161 2.366 . S
O181 C163 1.265 . S
C182 O173 1.255 . S
C182 O174 1.265 . S
O183 Tb160 2.479 . S
O183 C170 1.238 . S
O184 Tb160 2.471 . S
O184 C170 1.247 . S
C185 C188 1.380 . S
C185 C189 1.374 . S
C185 C191 1.507 . S
C186 C187 1.387 . S
C186 C190 1.391 . S
C187 C186 1.387 . S
C187 C188 1.384 . S
C187 H196 0.930 . S
C188 C185 1.380 . S
C188 C187 1.384 . S
C188 H197 0.931 . S
C189 C185 1.374 . S
C189 C190 1.390 . S
C189 H198 0.930 . S
C190 C186 1.391 . S
C190 C189 1.390 . S
C190 H199 0.930 . S
C191 Eu161 2.825 . S
C191 O176 1.238 . S
C191 O177 1.247 . S
C191 C185 1.507 . S
H192 C165 0.930 . S
H193 C166 0.931 . S
H194 C167 0.930 . S
H195 C168 0.930 . S
H196 C187 0.930 . S
H197 C188 0.931 . S
H198 C189 0.930 . S
H199 C190 0.930 . S
Tb200 C210 2.825 . S
Tb200 O211 2.347 . S
Tb200 O214 2.366 . S
Tb200 O219 2.418 . S
Tb200 O220 2.384 . S
Tb200 O223 2.479 . S
Tb200 O224 2.471 . S
Eu201 O212 2.418 . S
Eu201 O213 2.384 . S
Eu201 O216 2.479 . S
Eu201 O217 2.471 . S
Eu201 O218 2.347 . S
Eu201 O221 2.366 . S
Eu201 C231 2.825 . S
C202 O218 1.259 . S
C202 O219 1.265 . S
C203 O220 1.255 . S
C203 O221 1.265 . S
C204 C206 1.380 . S
C204 C207 1.374 . S
C204 C210 1.507 . S
C205 C206 1.384 1_455 S
C205 C209 1.387 . S
C205 H232 0.930 . S
C206 C204 1.380 . S
C206 C205 1.384 1_655 S
C206 H233 0.931 . S
C207 C204 1.374 . S
C207 C208 1.390 1_655 S
C207 H234 0.930 . S
C208 C207 1.390 1_455 S
C208 C209 1.391 . S
C208 H235 0.930 . S
C209 C205 1.387 . S
C209 C208 1.391 . S
C210 Tb200 2.825 . S
C210 C204 1.507 . S
C210 O223 1.238 . S
C210 O224 1.247 . S
O211 Tb200 2.347 . S
O211 C215 1.259 . S
O212 Eu201 2.418 . S
O212 C215 1.265 . S
O213 Eu201 2.384 . S
O213 C222 1.255 . S
O214 Tb200 2.366 . S
O214 C222 1.265 . S
C215 O211 1.259 . S
C215 O212 1.265 . S
O216 Eu201 2.479 . S
O216 C231 1.238 . S
O217 Eu201 2.471 . S
O217 C231 1.247 . S
O218 Eu201 2.347 . S
O218 C202 1.259 . S
O219 Tb200 2.418 . S
O219 C202 1.265 . S
O220 Tb200 2.384 . S
O220 C203 1.255 . S
O221 Eu201 2.366 . S
O221 C203 1.265 . S
C222 O213 1.255 . S
C222 O214 1.265 . S
O223 Tb200 2.479 . S
O223 C210 1.238 . S
O224 Tb200 2.471 . S
O224 C210 1.247 . S
C225 C228 1.380 . S
C225 C229 1.374 . S
C225 C231 1.507 . S
C226 C227 1.387 . S
C226 C230 1.391 . S
C227 C226 1.387 . S
C227 C228 1.384 . S
C227 H236 0.930 . S
C228 C225 1.380 . S
C228 C227 1.384 . S
C228 H237 0.931 . S
C229 C225 1.374 . S
C229 C230 1.390 . S
C229 H238 0.930 . S
C230 C226 1.391 . S
C230 C229 1.390 . S
C230 H239 0.930 . S
C231 Eu201 2.825 . S
C231 O216 1.238 . S
C231 O217 1.247 . S
C231 C225 1.507 . S
H232 C205 0.930 . S
H233 C206 0.931 . S
H234 C207 0.930 . S
H235 C208 0.930 . S
H236 C227 0.930 . S
H237 C228 0.931 . S
H238 C229 0.930 . S
H239 C230 0.930 . S
Tb240 C250 2.825 . S
Tb240 O251 2.347 . S
Tb240 O254 2.366 . S
Tb240 O259 2.418 . S
Tb240 O260 2.384 . S
Tb240 O263 2.479 . S
Tb240 O264 2.471 . S
Eu241 O252 2.418 . S
Eu241 O253 2.384 . S
Eu241 O256 2.479 . S
Eu241 O257 2.471 . S
Eu241 O258 2.347 . S
Eu241 O261 2.366 . S
Eu241 C271 2.825 . S
C242 O258 1.259 . S
C242 O259 1.265 . S
C243 O260 1.255 . S
C243 O261 1.265 . S
C244 C246 1.380 . S
C244 C247 1.374 . S
C244 C250 1.507 . S
C245 C246 1.384 1_655 S
C245 C249 1.387 . S
C245 H272 0.930 . S
C246 C244 1.380 . S
C246 C245 1.384 1_455 S
C246 H273 0.931 . S
C247 C244 1.374 . S
C247 C248 1.390 1_455 S
C247 H274 0.930 . S
C248 C247 1.390 1_655 S
C248 C249 1.391 . S
C248 H275 0.930 . S
C249 C245 1.387 . S
C249 C248 1.391 . S
C250 Tb240 2.825 . S
C250 C244 1.507 . S
C250 O263 1.238 . S
C250 O264 1.247 . S
O251 Tb240 2.347 . S
O251 C255 1.259 . S
O252 Eu241 2.418 . S
O252 C255 1.265 . S
O253 Eu241 2.384 . S
O253 C262 1.255 . S
O254 Tb240 2.366 . S
O254 C262 1.265 . S
C255 O251 1.259 . S
C255 O252 1.265 . S
O256 Eu241 2.479 . S
O256 C271 1.238 . S
O257 Eu241 2.471 . S
O257 C271 1.247 . S
O258 Eu241 2.347 . S
O258 C242 1.259 . S
O259 Tb240 2.418 . S
O259 C242 1.265 . S
O260 Tb240 2.384 . S
O260 C243 1.255 . S
O261 Eu241 2.366 . S
O261 C243 1.265 . S
C262 O253 1.255 . S
C262 O254 1.265 . S
O263 Tb240 2.479 . S
O263 C250 1.238 . S
O264 Tb240 2.471 . S
O264 C250 1.247 . S
C265 C268 1.380 . S
C265 C269 1.374 . S
C265 C271 1.507 . S
C266 C267 1.387 . S
C266 C270 1.391 . S
C267 C266 1.387 . S
C267 C268 1.384 . S
C267 H276 0.930 . S
C268 C265 1.380 . S
C268 C267 1.384 . S
C268 H277 0.931 . S
C269 C265 1.374 . S
C269 C270 1.390 . S
C269 H278 0.930 . S
C270 C266 1.391 . S
C270 C269 1.390 . S
C270 H279 0.930 . S
C271 Eu241 2.825 . S
C271 O256 1.238 . S
C271 O257 1.247 . S
C271 C265 1.507 . S
H272 C245 0.930 . S
H273 C246 0.931 . S
H274 C247 0.930 . S
H275 C248 0.930 . S
H276 C267 0.930 . S
H277 C268 0.931 . S
H278 C269 0.930 . S
H279 C270 0.930 . S
Tb280 C290 2.825 . S
Tb280 O291 2.347 . S
Tb280 O294 2.366 . S
Tb280 O299 2.418 . S
Tb280 O300 2.384 . S
Tb280 O303 2.479 . S
Tb280 O304 2.471 . S
Eu281 O292 2.418 . S
Eu281 O293 2.384 . S
Eu281 O296 2.479 . S
Eu281 O297 2.471 . S
Eu281 O298 2.347 . S
Eu281 O301 2.366 . S
Eu281 C311 2.825 . S
C282 O298 1.259 . S
C282 O299 1.265 . S
C283 O300 1.255 . S
C283 O301 1.265 . S
C284 C286 1.380 . S
C284 C287 1.374 . S
C284 C290 1.507 . S
C285 C286 1.384 . S
C285 C289 1.387 . S
C285 H312 0.930 . S
C286 C284 1.380 . S
C286 C285 1.384 . S
C286 H313 0.931 . S
C287 C284 1.374 . S
C287 C288 1.390 . S
C287 H314 0.930 . S
C288 C287 1.390 . S
C288 C289 1.391 . S
C288 H315 0.930 . S
C289 C285 1.387 . S
C289 C288 1.391 . S
C290 Tb280 2.825 . S
C290 C284 1.507 . S
C290 O303 1.238 . S
C290 O304 1.247 . S
O291 Tb280 2.347 . S
O291 C295 1.259 . S
O292 Eu281 2.418 . S
O292 C295 1.265 . S
O293 Eu281 2.384 . S
O293 C302 1.255 . S
O294 Tb280 2.366 . S
O294 C302 1.265 . S
C295 O291 1.259 . S
C295 O292 1.265 . S
O296 Eu281 2.479 . S
O296 C311 1.238 . S
O297 Eu281 2.471 . S
O297 C311 1.247 . S
O298 Eu281 2.347 . S
O298 C282 1.259 . S
O299 Tb280 2.418 . S
O299 C282 1.265 . S
O300 Tb280 2.384 . S
O300 C283 1.255 . S
O301 Eu281 2.366 . S
O301 C283 1.265 . S
C302 O293 1.255 . S
C302 O294 1.265 . S
O303 Tb280 2.479 . S
O303 C290 1.238 . S
O304 Tb280 2.471 . S
O304 C290 1.247 . S
C305 C308 1.380 . S
C305 C309 1.374 . S
C305 C311 1.507 . S
C306 C307 1.387 . S
C306 C310 1.391 . S
C307 C306 1.387 . S
C307 C308 1.384 1_545 S
C307 H316 0.930 . S
C308 C305 1.380 . S
C308 C307 1.384 1_565 S
C308 H317 0.931 . S
C309 C305 1.374 . S
C309 C310 1.390 1_565 S
C309 H318 0.930 . S
C310 C306 1.391 . S
C310 C309 1.390 1_545 S
C310 H319 0.930 . S
C311 Eu281 2.825 . S
C311 O296 1.238 . S
C311 O297 1.247 . S
C311 C305 1.507 . S
H312 C285 0.930 . S
H313 C286 0.931 . S
H314 C287 0.930 . S
H315 C288 0.930 . S
H316 C307 0.930 . S
H317 C308 0.931 . S
H318 C309 0.930 . S
H319 C310 0.930 . S
Tb320 C330 2.825 . S
Tb320 O331 2.347 . S
Tb320 O334 2.366 . S
Tb320 O339 2.418 . S
Tb320 O340 2.384 . S
Tb320 O343 2.479 . S
Tb320 O344 2.471 . S
Eu321 O332 2.418 . S
Eu321 O333 2.384 . S
Eu321 O336 2.479 . S
Eu321 O337 2.471 . S
Eu321 O338 2.347 . S
Eu321 O341 2.366 . S
Eu321 C351 2.825 . S
C322 O338 1.259 . S
C322 O339 1.265 . S
C323 O340 1.255 . S
C323 O341 1.265 . S
C324 C326 1.380 . S
C324 C327 1.374 . S
C324 C330 1.507 . S
C325 C326 1.384 . S
C325 C329 1.387 . S
C325 H352 0.930 . S
C326 C324 1.380 . S
C326 C325 1.384 . S
C326 H353 0.931 . S
C327 C324 1.374 . S
C327 C328 1.390 . S
C327 H354 0.930 . S
C328 C327 1.390 . S
C328 C329 1.391 . S
C328 H355 0.930 . S
C329 C325 1.387 . S
C329 C328 1.391 . S
C330 Tb320 2.825 . S
C330 C324 1.507 . S
C330 O343 1.238 . S
C330 O344 1.247 . S
O331 Tb320 2.347 . S
O331 C335 1.259 . S
O332 Eu321 2.418 . S
O332 C335 1.265 . S
O333 Eu321 2.384 . S
O333 C342 1.255 . S
O334 Tb320 2.366 . S
O334 C342 1.265 . S
C335 O331 1.259 . S
C335 O332 1.265 . S
O336 Eu321 2.479 . S
O336 C351 1.238 . S
O337 Eu321 2.471 . S
O337 C351 1.247 . S
O338 Eu321 2.347 . S
O338 C322 1.259 . S
O339 Tb320 2.418 . S
O339 C322 1.265 . S
O340 Tb320 2.384 . S
O340 C323 1.255 . S
O341 Eu321 2.366 . S
O341 C323 1.265 . S
C342 O333 1.255 . S
C342 O334 1.265 . S
O343 Tb320 2.479 . S
O343 C330 1.238 . S
O344 Tb320 2.471 . S
O344 C330 1.247 . S
C345 C348 1.380 . S
C345 C349 1.374 . S
C345 C351 1.507 . S
C346 C347 1.387 . S
C346 C350 1.391 . S
C347 C346 1.387 . S
C347 C348 1.384 . S
C347 H356 0.930 . S
C348 C345 1.380 . S
C348 C347 1.384 . S
C348 H357 0.931 . S
C349 C345 1.374 . S
C349 C350 1.390 . S
C349 H358 0.930 . S
C350 C346 1.391 . S
C350 C349 1.390 . S
C350 H359 0.930 . S
C351 Eu321 2.825 . S
C351 O336 1.238 . S
C351 O337 1.247 . S
C351 C345 1.507 . S
H352 C325 0.930 . S
H353 C326 0.931 . S
H354 C327 0.930 . S
H355 C328 0.930 . S
H356 C347 0.930 . S
H357 C348 0.931 . S
H358 C349 0.930 . S
H359 C350 0.930 . S
Tb360 C370 2.825 . S
Tb360 O371 2.347 . S
Tb360 O374 2.366 . S
Tb360 O379 2.418 . S
Tb360 O380 2.384 . S
Tb360 O383 2.479 . S
Tb360 O384 2.471 . S
Eu361 O372 2.418 . S
Eu361 O373 2.384 . S
Eu361 O376 2.479 . S
Eu361 O377 2.471 . S
Eu361 O378 2.347 . S
Eu361 O381 2.366 . S
Eu361 C391 2.825 . S
C362 O378 1.259 . S
C362 O379 1.265 . S
C363 O380 1.255 . S
C363 O381 1.265 . S
C364 C366 1.380 . S
C364 C367 1.374 . S
C364 C370 1.507 . S
C365 C366 1.384 . S
C365 C369 1.387 . S
C365 H392 0.930 . S
C366 C364 1.380 . S
C366 C365 1.384 . S
C366 H393 0.931 . S
C367 C364 1.374 . S
C367 C368 1.390 . S
C367 H394 0.930 . S
C368 C367 1.390 . S
C368 C369 1.391 . S
C368 H395 0.930 . S
C369 C365 1.387 . S
C369 C368 1.391 . S
C370 Tb360 2.825 . S
C370 C364 1.507 . S
C370 O383 1.238 . S
C370 O384 1.247 . S
O371 Tb360 2.347 . S
O371 C375 1.259 . S
O372 Eu361 2.418 . S
O372 C375 1.265 . S
O373 Eu361 2.384 . S
O373 C382 1.255 . S
O374 Tb360 2.366 . S
O374 C382 1.265 . S
C375 O371 1.259 . S
C375 O372 1.265 . S
O376 Eu361 2.479 . S
O376 C391 1.238 . S
O377 Eu361 2.471 . S
O377 C391 1.247 . S
O378 Eu361 2.347 . S
O378 C362 1.259 . S
O379 Tb360 2.418 . S
O379 C362 1.265 . S
O380 Tb360 2.384 . S
O380 C363 1.255 . S
O381 Eu361 2.366 . S
O381 C363 1.265 . S
C382 O373 1.255 . S
C382 O374 1.265 . S
O383 Tb360 2.479 . S
O383 C370 1.238 . S
O384 Tb360 2.471 . S
O384 C370 1.247 . S
C385 C388 1.380 . S
C385 C389 1.374 . S
C385 C391 1.507 . S
C386 C387 1.387 . S
C386 C390 1.391 . S
C387 C386 1.387 . S
C387 C388 1.384 1_655 S
C387 H396 0.930 . S
C388 C385 1.380 . S
C388 C387 1.384 1_455 S
C388 H397 0.931 . S
C389 C385 1.374 . S
C389 C390 1.390 1_455 S
C389 H398 0.930 . S
C390 C386 1.391 . S
C390 C389 1.390 1_655 S
C390 H399 0.930 . S
C391 Eu361 2.825 . S
C391 O376 1.238 . S
C391 O377 1.247 . S
C391 C385 1.507 . S
H392 C365 0.930 . S
H393 C366 0.931 . S
H394 C367 0.930 . S
H395 C368 0.930 . S
H396 C387 0.930 . S
H397 C388 0.931 . S
H398 C389 0.930 . S
H399 C390 0.930 . S
Tb400 C410 2.825 . S
Tb400 O411 2.347 . S
Tb400 O414 2.366 . S
Tb400 O419 2.418 . S
Tb400 O420 2.384 . S
Tb400 O423 2.479 . S
Tb400 O424 2.471 . S
Eu401 O412 2.418 . S
Eu401 O413 2.384 . S
Eu401 O416 2.479 . S
Eu401 O417 2.471 . S
Eu401 O418 2.347 . S
Eu401 O421 2.366 . S
Eu401 C431 2.825 . S
C402 O418 1.259 . S
C402 O419 1.265 . S
C403 O420 1.255 . S
C403 O421 1.265 . S
C404 C406 1.380 . S
C404 C407 1.374 . S
C404 C410 1.507 . S
C405 C406 1.384 1_545 S
C405 C409 1.387 . S
C405 H432 0.930 . S
C406 C404 1.380 . S
C406 C405 1.384 1_565 S
C406 H433 0.931 . S
C407 C404 1.374 . S
C407 C408 1.390 1_565 S
C407 H434 0.930 . S
C408 C407 1.390 1_545 S
C408 C409 1.391 . S
C408 H435 0.930 . S
C409 C405 1.387 . S
C409 C408 1.391 . S
C410 Tb400 2.825 . S
C410 C404 1.507 . S
C410 O423 1.238 . S
C410 O424 1.247 . S
O411 Tb400 2.347 . S
O411 C415 1.259 . S
O412 Eu401 2.418 . S
O412 C415 1.265 . S
O413 Eu401 2.384 . S
O413 C422 1.255 . S
O414 Tb400 2.366 . S
O414 C422 1.265 . S
C415 O411 1.259 . S
C415 O412 1.265 . S
O416 Eu401 2.479 . S
O416 C431 1.238 . S
O417 Eu401 2.471 . S
O417 C431 1.247 . S
O418 Eu401 2.347 . S
O418 C402 1.259 . S
O419 Tb400 2.418 . S
O419 C402 1.265 . S
O420 Tb400 2.384 . S
O420 C403 1.255 . S
O421 Eu401 2.366 . S
O421 C403 1.265 . S
C422 O413 1.255 . S
C422 O414 1.265 . S
O423 Tb400 2.479 . S
O423 C410 1.238 . S
O424 Tb400 2.471 . S
O424 C410 1.247 . S
C425 C428 1.380 . S
C425 C429 1.374 . S
C425 C431 1.507 . S
C426 C427 1.387 . S
C426 C430 1.391 . S
C427 C426 1.387 . S
C427 C428 1.384 . S
C427 H436 0.930 . S
C428 C425 1.380 . S
C428 C427 1.384 . S
C428 H437 0.931 . S
C429 C425 1.374 . S
C429 C430 1.390 . S
C429 H438 0.930 . S
C430 C426 1.391 . S
C430 C429 1.390 . S
C430 H439 0.930 . S
C431 Eu401 2.825 . S
C431 O416 1.238 . S
C431 O417 1.247 . S
C431 C425 1.507 . S
H432 C405 0.930 . S
H433 C406 0.931 . S
H434 C407 0.930 . S
H435 C408 0.930 . S
H436 C427 0.930 . S
H437 C428 0.931 . S
H438 C429 0.930 . S
H439 C430 0.930 . S
Tb440 C450 2.825 . S
Tb440 O451 2.347 . S
Tb440 O454 2.366 . S
Tb440 O459 2.418 . S
Tb440 O460 2.384 . S
Tb440 O463 2.479 . S
Tb440 O464 2.471 . S
Eu441 O452 2.418 . S
Eu441 O453 2.384 . S
Eu441 O456 2.479 . S
Eu441 O457 2.471 . S
Eu441 O458 2.347 . S
Eu441 O461 2.366 . S
Eu441 C471 2.825 . S
C442 O458 1.259 . S
C442 O459 1.265 . S
C443 O460 1.255 . S
C443 O461 1.265 . S
C444 C446 1.380 . S
C444 C447 1.374 . S
C444 C450 1.507 . S
C445 C446 1.384 . S
C445 C449 1.387 . S
C445 H472 0.930 . S
C446 C444 1.380 . S
C446 C445 1.384 . S
C446 H473 0.931 . S
C447 C444 1.374 . S
C447 C448 1.390 . S
C447 H474 0.930 . S
C448 C447 1.390 . S
C448 C449 1.391 . S
C448 H475 0.930 . S
C449 C445 1.387 . S
C449 C448 1.391 . S
C450 Tb440 2.825 . S
C450 C444 1.507 . S
C450 O463 1.238 . S
C450 O464 1.247 . S
O451 Tb440 2.347 . S
O451 C455 1.259 . S
O452 Eu441 2.418 . S
O452 C455 1.265 . S
O453 Eu441 2.384 . S
O453 C462 1.255 . S
O454 Tb440 2.366 . S
O454 C462 1.265 . S
C455 O451 1.259 . S
C455 O452 1.265 . S
O456 Eu441 2.479 . S
O456 C471 1.238 . S
O457 Eu441 2.471 . S
O457 C471 1.247 . S
O458 Eu441 2.347 . S
O458 C442 1.259 . S
O459 Tb440 2.418 . S
O459 C442 1.265 . S
O460 Tb440 2.384 . S
O460 C443 1.255 . S
O461 Eu441 2.366 . S
O461 C443 1.265 . S
C462 O453 1.255 . S
C462 O454 1.265 . S
O463 Tb440 2.479 . S
O463 C450 1.238 . S
O464 Tb440 2.471 . S
O464 C450 1.247 . S
C465 C468 1.380 . S
C465 C469 1.374 . S
C465 C471 1.507 . S
C466 C467 1.387 . S
C466 C470 1.391 . S
C467 C466 1.387 . S
C467 C468 1.384 . S
C467 H476 0.930 . S
C468 C465 1.380 . S
C468 C467 1.384 . S
C468 H477 0.931 . S
C469 C465 1.374 . S
C469 C470 1.390 . S
C469 H478 0.930 . S
C470 C466 1.391 . S
C470 C469 1.390 . S
C470 H479 0.930 . S
C471 Eu441 2.825 . S
C471 O456 1.238 . S
C471 O457 1.247 . S
C471 C465 1.507 . S
H472 C445 0.930 . S
H473 C446 0.931 . S
H474 C447 0.930 . S
H475 C448 0.930 . S
H476 C467 0.930 . S
H477 C468 0.931 . S
H478 C469 0.930 . S
H479 C470 0.930 . S
C480 C481 1.349 . S
C480 C482 1.327 . S
C480 H505 0.950 . S
C481 C480 1.349 . S
C481 C497 1.349 . S
C482 C480 1.327 . S
C482 C501 1.429 . S
C482 H506 0.950 . S
C483 C500 1.574 . S
C483 C502 1.368 . S
C483 H507 0.949 . S
H484 C488 0.949 . S
C485 C486 1.349 . S
C485 C487 1.327 . S
C485 H508 0.950 . S
C486 C485 1.349 . S
C486 C498 1.349 . S
C487 C485 1.327 . S
C487 C503 1.429 . S
C487 H509 0.950 . S
C488 H484 0.949 . S
C488 C496 1.574 . S
C488 C504 1.368 . S
H489 C497 0.950 . S
H490 C495 0.950 . S
H491 C496 0.949 . S
H492 C498 0.950 . S
H493 C499 0.950 . S
H494 C500 0.949 . S
C495 H490 0.950 . S
C495 C497 1.327 . S
C495 C501 1.429 . S
C496 C488 1.574 . S
C496 H491 0.949 . S
C496 C502 1.368 . S
C497 C481 1.349 . S
C497 H489 0.950 . S
C497 C495 1.327 . S
C498 C486 1.349 . S
C498 H492 0.950 . S
C498 C499 1.327 . S
C499 H493 0.950 . S
C499 C498 1.327 . S
C499 C503 1.429 . S
C500 C483 1.574 . S
C500 H494 0.949 . S
C500 C504 1.368 . S
C501 C482 1.429 . S
C501 C495 1.429 . S
C501 C502 1.523 . S
C502 C483 1.368 . S
C502 C496 1.368 . S
C502 C501 1.523 . S
C503 C487 1.429 . S
C503 C499 1.429 . S
C503 C504 1.523 . S
C504 C488 1.368 . S
C504 C500 1.368 . S
C504 C503 1.523 . S
H505 C480 0.950 . S
H506 C482 0.950 . S
H507 C483 0.949 . S
H508 C485 0.950 . S
H509 C487 0.950 . S
C510 C511 1.349 . S
C510 C512 1.327 . S
C510 H535 0.950 . S
C511 C510 1.349 . S
C511 C527 1.349 . S
C512 C510 1.327 . S
C512 C531 1.429 . S
C512 H536 0.950 . S
C513 C530 1.574 1_455 S
C513 C532 1.368 . S
C513 H537 0.949 . S
H514 C518 0.949 . S
C515 C516 1.349 . S
C515 C517 1.327 . S
C515 H538 0.950 . S
C516 C515 1.349 . S
C516 C528 1.349 . S
C517 C515 1.327 . S
C517 C533 1.429 . S
C517 H539 0.950 . S
C518 H514 0.949 . S
C518 C526 1.574 1_655 S
C518 C534 1.368 . S
H519 C527 0.950 . S
H520 C525 0.950 . S
H521 C526 0.949 . S
H522 C528 0.950 . S
H523 C529 0.950 . S
H524 C530 0.949 . S
C525 H520 0.950 . S
C525 C527 1.327 . S
C525 C531 1.429 . S
C526 C518 1.574 1_455 S
C526 H521 0.949 . S
C526 C532 1.368 . S
C527 C511 1.349 . S
C527 H519 0.950 . S
C527 C525 1.327 . S
C528 C516 1.349 . S
C528 H522 0.950 . S
C528 C529 1.327 . S
C529 H523 0.950 . S
C529 C528 1.327 . S
C529 C533 1.429 . S
C530 C513 1.574 1_655 S
C530 H524 0.949 . S
C530 C534 1.368 . S
C531 C512 1.429 . S
C531 C525 1.429 . S
C531 C532 1.523 . S
C532 C513 1.368 . S
C532 C526 1.368 . S
C532 C531 1.523 . S
C533 C517 1.429 . S
C533 C529 1.429 . S
C533 C534 1.523 . S
C534 C518 1.368 . S
C534 C530 1.368 . S
C534 C533 1.523 . S
H535 C510 0.950 . S
H536 C512 0.950 . S
H537 C513 0.949 . S
H538 C515 0.950 . S
H539 C517 0.950 . S
C540 C541 1.349 . S
C540 C542 1.327 . S
C540 H565 0.950 . S
C541 C540 1.349 . S
C541 C557 1.349 . S
C542 C540 1.327 . S
C542 C561 1.429 . S
C542 H566 0.950 . S
C543 C560 1.574 1_545 S
C543 C562 1.368 . S
C543 H567 0.949 . S
H544 C548 0.949 . S
C545 C546 1.349 . S
C545 C547 1.327 . S
C545 H568 0.950 . S
C546 C545 1.349 . S
C546 C558 1.349 . S
C547 C545 1.327 . S
C547 C563 1.429 . S
C547 H569 0.950 . S
C548 H544 0.949 . S
C548 C556 1.574 1_565 S
C548 C564 1.368 . S
H549 C557 0.950 . S
H550 C555 0.950 . S
H551 C556 0.949 . S
H552 C558 0.950 . S
H553 C559 0.950 . S
H554 C560 0.949 . S
C555 H550 0.950 . S
C555 C557 1.327 . S
C555 C561 1.429 . S
C556 C548 1.574 1_545 S
C556 H551 0.949 . S
C556 C562 1.368 . S
C557 C541 1.349 . S
C557 H549 0.950 . S
C557 C555 1.327 . S
C558 C546 1.349 . S
C558 H552 0.950 . S
C558 C559 1.327 . S
C559 H553 0.950 . S
C559 C558 1.327 . S
C559 C563 1.429 . S
C560 C543 1.574 1_565 S
C560 H554 0.949 . S
C560 C564 1.368 . S
C561 C542 1.429 . S
C561 C555 1.429 . S
C561 C562 1.523 . S
C562 C543 1.368 . S
C562 C556 1.368 . S
C562 C561 1.523 . S
C563 C547 1.429 . S
C563 C559 1.429 . S
C563 C564 1.523 . S
C564 C548 1.368 . S
C564 C560 1.368 . S
C564 C563 1.523 . S
H565 C540 0.950 . S
H566 C542 0.950 . S
H567 C543 0.949 . S
H568 C545 0.950 . S
H569 C547 0.950 . S
C570 C571 1.349 . S
C570 C572 1.327 . S
C570 H595 0.950 . S
C571 C570 1.349 . S
C571 C587 1.349 . S
C572 C570 1.327 . S
C572 C591 1.429 . S
C572 H596 0.950 . S
C573 C590 1.574 . S
C573 C592 1.368 . S
C573 H597 0.949 . S
H574 C578 0.949 . S
C575 C576 1.349 . S
C575 C577 1.327 . S
C575 H598 0.950 . S
C576 C575 1.349 . S
C576 C588 1.349 . S
C577 C575 1.327 . S
C577 C593 1.429 . S
C577 H599 0.950 . S
C578 H574 0.949 . S
C578 C586 1.574 . S
C578 C594 1.368 . S
H579 C587 0.950 . S
H580 C585 0.950 . S
H581 C586 0.949 . S
H582 C588 0.950 . S
H583 C589 0.950 . S
H584 C590 0.949 . S
C585 H580 0.950 . S
C585 C587 1.327 . S
C585 C591 1.429 . S
C586 C578 1.574 . S
C586 H581 0.949 . S
C586 C592 1.368 . S
C587 C571 1.349 . S
C587 H579 0.950 . S
C587 C585 1.327 . S
C588 C576 1.349 . S
C588 H582 0.950 . S
C588 C589 1.327 . S
C589 H583 0.950 . S
C589 C588 1.327 . S
C589 C593 1.429 . S
C590 C573 1.574 . S
C590 H584 0.949 . S
C590 C594 1.368 . S
C591 C572 1.429 . S
C591 C585 1.429 . S
C591 C592 1.523 . S
C592 C573 1.368 . S
C592 C586 1.368 . S
C592 C591 1.523 . S
C593 C577 1.429 . S
C593 C589 1.429 . S
C593 C594 1.523 . S
C594 C578 1.368 . S
C594 C590 1.368 . S
C594 C593 1.523 . S
H595 C570 0.950 . S
H596 C572 0.950 . S
H597 C573 0.949 . S
H598 C575 0.950 . S
H599 C577 0.950 . S
C600 C601 1.349 . S
C600 C602 1.327 . S
C600 H625 0.950 . S
C601 C600 1.349 . S
C601 C617 1.349 . S
C602 C600 1.327 . S
C602 C621 1.429 . S
C602 H626 0.950 . S
C603 C620 1.574 1_455 S
C603 C622 1.368 . S
C603 H627 0.949 . S
H604 C608 0.949 . S
C605 C606 1.349 . S
C605 C607 1.327 . S
C605 H628 0.950 . S
C606 C605 1.349 . S
C606 C618 1.349 . S
C607 C605 1.327 . S
C607 C623 1.429 . S
C607 H629 0.950 . S
C608 H604 0.949 . S
C608 C616 1.574 1_655 S
C608 C624 1.368 . S
H609 C617 0.950 . S
H610 C615 0.950 . S
H611 C616 0.949 . S
H612 C618 0.950 . S
H613 C619 0.950 . S
H614 C620 0.949 . S
C615 H610 0.950 . S
C615 C617 1.327 . S
C615 C621 1.429 . S
C616 C608 1.574 1_455 S
C616 H611 0.949 . S
C616 C622 1.368 . S
C617 C601 1.349 . S
C617 H609 0.950 . S
C617 C615 1.327 . S
C618 C606 1.349 . S
C618 H612 0.950 . S
C618 C619 1.327 . S
C619 H613 0.950 . S
C619 C618 1.327 . S
C619 C623 1.429 . S
C620 C603 1.574 1_655 S
C620 H614 0.949 . S
C620 C624 1.368 . S
C621 C602 1.429 . S
C621 C615 1.429 . S
C621 C622 1.523 . S
C622 C603 1.368 . S
C622 C616 1.368 . S
C622 C621 1.523 . S
C623 C607 1.429 . S
C623 C619 1.429 . S
C623 C624 1.523 . S
C624 C608 1.368 . S
C624 C620 1.368 . S
C624 C623 1.523 . S
H625 C600 0.950 . S
H626 C602 0.950 . S
H627 C603 0.949 . S
H628 C605 0.950 . S
H629 C607 0.950 . S
C630 C631 1.349 . S
C630 C632 1.327 . S
C630 H655 0.950 . S
C631 C630 1.349 . S
C631 C647 1.349 . S
C632 C630 1.327 . S
C632 C651 1.429 . S
C632 H656 0.950 . S
C633 C650 1.574 1_565 S
C633 C652 1.368 . S
C633 H657 0.949 . S
H634 C638 0.949 . S
C635 C636 1.349 . S
C635 C637 1.327 . S
C635 H658 0.950 . S
C636 C635 1.349 . S
C636 C648 1.349 . S
C637 C635 1.327 . S
C637 C653 1.429 . S
C637 H659 0.950 . S
C638 H634 0.949 . S
C638 C646 1.574 1_545 S
C638 C654 1.368 . S
H639 C647 0.950 . S
H640 C645 0.950 . S
H641 C646 0.949 . S
H642 C648 0.950 . S
H643 C649 0.950 . S
H644 C650 0.949 . S
C645 H640 0.950 . S
C645 C647 1.327 . S
C645 C651 1.429 . S
C646 C638 1.574 1_565 S
C646 H641 0.949 . S
C646 C652 1.368 . S
C647 C631 1.349 . S
C647 H639 0.950 . S
C647 C645 1.327 . S
C648 C636 1.349 . S
C648 H642 0.950 . S
C648 C649 1.327 . S
C649 H643 0.950 . S
C649 C648 1.327 . S
C649 C653 1.429 . S
C650 C633 1.574 1_545 S
C650 H644 0.949 . S
C650 C654 1.368 . S
C651 C632 1.429 . S
C651 C645 1.429 . S
C651 C652 1.523 . S
C652 C633 1.368 . S
C652 C646 1.368 . S
C652 C651 1.523 . S
C653 C637 1.429 . S
C653 C649 1.429 . S
C653 C654 1.523 . S
C654 C638 1.368 . S
C654 C650 1.368 . S
C654 C653 1.523 . S
H655 C630 0.950 . S
H656 C632 0.950 . S
H657 C633 0.949 . S
H658 C635 0.950 . S
H659 C637 0.950 . S
C660 C661 1.349 . S
C660 C662 1.327 . S
C660 H685 0.950 . S
C661 C660 1.349 . S
C661 C677 1.349 . S
C662 C660 1.327 . S
C662 C681 1.429 . S
C662 H686 0.950 . S
C663 C680 1.574 . S
C663 C682 1.368 . S
C663 H687 0.949 . S
H664 C668 0.949 . S
C665 C666 1.349 . S
C665 C667 1.327 . S
C665 H688 0.950 . S
C666 C665 1.349 . S
C666 C678 1.349 . S
C667 C665 1.327 . S
C667 C683 1.429 . S
C667 H689 0.950 . S
C668 H664 0.949 . S
C668 C676 1.574 . S
C668 C684 1.368 . S
H669 C677 0.950 . S
H670 C675 0.950 . S
H671 C676 0.949 . S
H672 C678 0.950 . S
H673 C679 0.950 . S
H674 C680 0.949 . S
C675 H670 0.950 . S
C675 C677 1.327 . S
C675 C681 1.429 . S
C676 C668 1.574 . S
C676 H671 0.949 . S
C676 C682 1.368 . S
C677 C661 1.349 . S
C677 H669 0.950 . S
C677 C675 1.327 . S
C678 C666 1.349 . S
C678 H672 0.950 . S
C678 C679 1.327 . S
C679 H673 0.950 . S
C679 C678 1.327 . S
C679 C683 1.429 . S
C680 C663 1.574 . S
C680 H674 0.949 . S
C680 C684 1.368 . S
C681 C662 1.429 . S
C681 C675 1.429 . S
C681 C682 1.523 . S
C682 C663 1.368 . S
C682 C676 1.368 . S
C682 C681 1.523 . S
C683 C667 1.429 . S
C683 C679 1.429 . S
C683 C684 1.523 . S
C684 C668 1.368 . S
C684 C680 1.368 . S
C684 C683 1.523 . S
H685 C660 0.950 . S
H686 C662 0.950 . S
H687 C663 0.949 . S
H688 C665 0.950 . S
H689 C667 0.950 . S
C690 C691 1.349 . S
C690 C692 1.327 . S
C690 H715 0.950 . S
C691 C690 1.349 . S
C691 C707 1.349 . S
C692 C690 1.327 . S
C692 C711 1.429 . S
C692 H716 0.950 . S
C693 C710 1.569 1_455 S
C693 C712 1.370 . S
C693 H717 0.952 . S
H694 C698 0.949 . S
C695 C696 1.349 . S
C695 C697 1.327 . S
C695 H718 0.950 . S
C696 C695 1.349 . S
C696 C708 1.349 . S
C697 C695 1.327 . S
C697 C713 1.429 . S
C697 H719 0.950 . S
C698 H694 0.949 . S
C698 C706 1.574 1_655 S
C698 C714 1.368 . S
H699 C707 0.950 . S
H700 C705 0.950 . S
H701 C706 0.949 . S
H702 C708 0.950 . S
H703 C709 0.950 . S
H704 C710 0.949 . S
C705 H700 0.950 . S
C705 C707 1.327 . S
C705 C711 1.429 . S
C706 C698 1.574 1_455 S
C706 H701 0.949 . S
C706 C712 1.368 . S
C707 C691 1.349 . S
C707 H699 0.950 . S
C707 C705 1.327 . S
C708 C696 1.349 . S
C708 H702 0.950 . S
C708 C709 1.327 . S
C709 H703 0.950 . S
C709 C708 1.327 . S
C709 C713 1.429 . S
C710 C693 1.569 1_655 S
C710 H704 0.949 . S
C710 C714 1.368 . S
C711 C692 1.429 . S
C711 C705 1.429 . S
C711 C712 1.523 . S
C712 C693 1.370 . S
C712 C706 1.368 . S
C712 C711 1.523 . S
C713 C697 1.429 . S
C713 C709 1.429 . S
C713 C714 1.523 . S
C714 C698 1.368 . S
C714 C710 1.368 . S
C714 C713 1.523 . S
H715 C690 0.950 . S
H716 C692 0.950 . S
H717 C693 0.952 . S
H718 C695 0.950 . S
H719 C697 0.950 . S
C720 C721 1.349 . S
C720 C722 1.327 . S
C720 H745 0.950 . S
C721 C720 1.349 . S
C721 C737 1.349 . S
C722 C720 1.327 . S
C722 C741 1.429 . S
C722 H746 0.950 . S
C723 C740 1.574 1_565 S
C723 C742 1.368 . S
C723 H747 0.949 . S
H724 C728 0.949 . S
C725 C726 1.349 . S
C725 C727 1.327 . S
C725 H748 0.950 . S
C726 C725 1.349 . S
C726 C738 1.349 . S
C727 C725 1.327 . S
C727 C743 1.429 . S
C727 H749 0.950 . S
C728 H724 0.949 . S
C728 C736 1.574 1_545 S
C728 C744 1.368 . S
H729 C737 0.950 . S
H730 C735 0.950 . S
H731 C736 0.949 . S
H732 C738 0.950 . S
H733 C739 0.950 . S
H734 C740 0.949 . S
C735 H730 0.950 . S
C735 C737 1.327 . S
C735 C741 1.429 . S
C736 C728 1.574 1_565 S
C736 H731 0.949 . S
C736 C742 1.368 . S
C737 C721 1.349 . S
C737 H729 0.950 . S
C737 C735 1.327 . S
C738 C726 1.349 . S
C738 H732 0.950 . S
C738 C739 1.327 . S
C739 H733 0.950 . S
C739 C738 1.327 . S
C739 C743 1.429 . S
C740 C723 1.574 1_545 S
C740 H734 0.949 . S
C740 C744 1.368 . S
C741 C722 1.429 . S
C741 C735 1.429 . S
C741 C742 1.523 . S
C742 C723 1.368 . S
C742 C736 1.368 . S
C742 C741 1.523 . S
C743 C727 1.429 . S
C743 C739 1.429 . S
C743 C744 1.523 . S
C744 C728 1.368 . S
C744 C740 1.368 . S
C744 C743 1.523 . S
H745 C720 0.950 . S
H746 C722 0.950 . S
H747 C723 0.949 . S
H748 C725 0.950 . S
H749 C727 0.950 . S
C750 C751 1.349 . S
C750 C752 1.327 . S
C750 H775 0.950 . S
C751 C750 1.349 . S
C751 C767 1.349 . S
C752 C750 1.327 . S
C752 C771 1.429 . S
C752 H776 0.950 . S
C753 C770 1.574 . S
C753 C772 1.368 . S
C753 H777 0.949 . S
H754 C758 0.949 . S
C755 C756 1.349 . S
C755 C757 1.327 . S
C755 H778 0.950 . S
C756 C755 1.349 . S
C756 C768 1.349 . S
C757 C755 1.327 . S
C757 C773 1.429 . S
C757 H779 0.950 . S
C758 H754 0.949 . S
C758 C766 1.574 . S
C758 C774 1.368 . S
H759 C767 0.950 . S
H760 C765 0.950 . S
H761 C766 0.949 . S
H762 C768 0.950 . S
H763 C769 0.950 . S
H764 C770 0.949 . S
C765 H760 0.950 . S
C765 C767 1.327 . S
C765 C771 1.429 . S
C766 C758 1.574 . S
C766 H761 0.949 . S
C766 C772 1.368 . S
C767 C751 1.349 . S
C767 H759 0.950 . S
C767 C765 1.327 . S
C768 C756 1.349 . S
C768 H762 0.950 . S
C768 C769 1.327 . S
C769 H763 0.950 . S
C769 C768 1.327 . S
C769 C773 1.429 . S
C770 C753 1.574 . S
C770 H764 0.949 . S
C770 C774 1.368 . S
C771 C752 1.429 . S
C771 C765 1.429 . S
C771 C772 1.523 . S
C772 C753 1.368 . S
C772 C766 1.368 . S
C772 C771 1.523 . S
C773 C757 1.429 . S
C773 C769 1.429 . S
C773 C774 1.523 . S
C774 C758 1.368 . S
C774 C770 1.368 . S
C774 C773 1.523 . S
H775 C750 0.950 . S
H776 C752 0.950 . S
H777 C753 0.949 . S
H778 C755 0.950 . S
H779 C757 0.950 . S
C780 C781 1.349 . S
C780 C782 1.327 . S
C780 H805 0.950 . S
C781 C780 1.349 . S
C781 C797 1.349 . S
C782 C780 1.327 . S
C782 C801 1.429 . S
C782 H806 0.950 . S
C783 C800 1.574 1_455 S
C783 C802 1.368 . S
C783 H807 0.949 . S
H784 C788 0.949 . S
C785 C786 1.349 . S
C785 C787 1.327 . S
C785 H808 0.950 . S
C786 C785 1.349 . S
C786 C798 1.349 . S
C787 C785 1.327 . S
C787 C803 1.429 . S
C787 H809 0.950 . S
C788 H784 0.949 . S
C788 C796 1.574 1_655 S
C788 C804 1.368 . S
H789 C797 0.950 . S
H790 C795 0.950 . S
H791 C796 0.949 . S
H792 C798 0.950 . S
H793 C799 0.950 . S
H794 C800 0.949 . S
C795 H790 0.950 . S
C795 C797 1.327 . S
C795 C801 1.429 . S
C796 C788 1.574 1_455 S
C796 H791 0.949 . S
C796 C802 1.368 . S
C797 C781 1.349 . S
C797 H789 0.950 . S
C797 C795 1.327 . S
C798 C786 1.349 . S
C798 H792 0.950 . S
C798 C799 1.327 . S
C799 H793 0.950 . S
C799 C798 1.327 . S
C799 C803 1.429 . S
C800 C783 1.574 1_655 S
C800 H794 0.949 . S
C800 C804 1.368 . S
C801 C782 1.429 . S
C801 C795 1.429 . S
C801 C802 1.523 . S
C802 C783 1.368 . S
C802 C796 1.368 . S
C802 C801 1.523 . S
C803 C787 1.429 . S
C803 C799 1.429 . S
C803 C804 1.523 . S
C804 C788 1.368 . S
C804 C800 1.368 . S
C804 C803 1.523 . S
H805 C780 0.950 . S
H806 C782 0.950 . S
H807 C783 0.949 . S
H808 C785 0.950 . S
H809 C787 0.950 . S
C810 C811 1.349 . S
C810 C812 1.327 . S
C810 H835 0.950 . S
C811 C810 1.349 . S
C811 C827 1.349 . S
C812 C810 1.327 . S
C812 C831 1.429 . S
C812 H836 0.950 . S
C813 C830 1.574 1_545 S
C813 C832 1.368 . S
C813 H837 0.949 . S
H814 C818 0.949 . S
C815 C816 1.349 . S
C815 C817 1.327 . S
C815 H838 0.950 . S
C816 C815 1.349 . S
C816 C828 1.349 . S
C817 C815 1.327 . S
C817 C833 1.429 . S
C817 H839 0.950 . S
C818 H814 0.949 . S
C818 C826 1.574 1_565 S
C818 C834 1.368 . S
H819 C827 0.950 . S
H820 C825 0.950 . S
H821 C826 0.949 . S
H822 C828 0.950 . S
H823 C829 0.950 . S
H824 C830 0.949 . S
C825 H820 0.950 . S
C825 C827 1.327 . S
C825 C831 1.429 . S
C826 C818 1.574 1_545 S
C826 H821 0.949 . S
C826 C832 1.368 . S
C827 C811 1.349 . S
C827 H819 0.950 . S
C827 C825 1.327 . S
C828 C816 1.349 . S
C828 H822 0.950 . S
C828 C829 1.327 . S
C829 H823 0.950 . S
C829 C828 1.327 . S
C829 C833 1.429 . S
C830 C813 1.574 1_565 S
C830 H824 0.949 . S
C830 C834 1.368 . S
C831 C812 1.429 . S
C831 C825 1.429 . S
C831 C832 1.523 . S
C832 C813 1.368 . S
C832 C826 1.368 . S
C832 C831 1.523 . S
C833 C817 1.429 . S
C833 C829 1.429 . S
C833 C834 1.523 . S
C834 C818 1.368 . S
C834 C830 1.368 . S
C834 C833 1.523 . S
H835 C810 0.950 . S
H836 C812 0.950 . S
H837 C813 0.949 . S
H838 C815 0.950 . S
H839 C817 0.950 . S
C840 C841 1.349 . S
C840 C842 1.327 . S
C840 H865 0.950 . S
C841 C840 1.349 . S
C841 C857 1.349 . S
C842 C840 1.327 . S
C842 C861 1.429 . S
C842 H866 0.950 . S
C843 C860 1.574 . S
C843 C862 1.368 . S
C843 H867 0.949 . S
H844 C848 0.949 . S
C845 C846 1.349 . S
C845 C847 1.327 . S
C845 H868 0.950 . S
C846 C845 1.349 . S
C846 C858 1.349 . S
C847 C845 1.327 . S
C847 C863 1.429 . S
C847 H869 0.950 . S
C848 H844 0.949 . S
C848 C856 1.574 . S
C848 C864 1.368 . S
H849 C857 0.950 . S
H850 C855 0.950 . S
H851 C856 0.949 . S
H852 C858 0.950 . S
H853 C859 0.950 . S
H854 C860 0.949 . S
C855 H850 0.950 . S
C855 C857 1.327 . S
C855 C861 1.429 . S
C856 C848 1.574 . S
C856 H851 0.949 . S
C856 C862 1.368 . S
C857 C841 1.349 . S
C857 H849 0.950 . S
C857 C855 1.327 . S
C858 C846 1.349 . S
C858 H852 0.950 . S
C858 C859 1.327 . S
C859 H853 0.950 . S
C859 C858 1.327 . S
C859 C863 1.429 . S
C860 C843 1.574 . S
C860 H854 0.949 . S
C860 C864 1.368 . S
C861 C842 1.429 . S
C861 C855 1.429 . S
C861 C862 1.523 . S
C862 C843 1.368 . S
C862 C856 1.368 . S
C862 C861 1.523 . S
C863 C847 1.429 . S
C863 C859 1.429 . S
C863 C864 1.523 . S
C864 C848 1.368 . S
C864 C860 1.368 . S
C864 C863 1.523 . S
H865 C840 0.950 . S
H866 C842 0.950 . S
H867 C843 0.949 . S
H868 C845 0.950 . S
H869 C847 0.950 . S
C870 C871 1.349 . S
C870 C872 1.327 . S
C870 H895 0.950 . S
C871 C870 1.349 . S
C871 C887 1.349 . S
C872 C870 1.327 . S
C872 C891 1.429 . S
C872 H896 0.950 . S
C873 C890 1.574 . S
C873 C892 1.368 . S
C873 H897 0.949 . S
H874 C878 0.949 . S
C875 C876 1.349 . S
C875 C877 1.327 . S
C875 H898 0.950 . S
C876 C875 1.349 . S
C876 C888 1.349 . S
C877 C875 1.327 . S
C877 C893 1.429 . S
C877 H899 0.950 . S
C878 H874 0.949 . S
C878 C886 1.574 . S
C878 C894 1.368 . S
H879 C887 0.950 . S
H880 C885 0.950 . S
H881 C886 0.949 . S
H882 C888 0.950 . S
H883 C889 0.950 . S
H884 C890 0.949 . S
C885 H880 0.950 . S
C885 C887 1.327 . S
C885 C891 1.429 . S
C886 C878 1.574 . S
C886 H881 0.949 . S
C886 C892 1.368 . S
C887 C871 1.349 . S
C887 H879 0.950 . S
C887 C885 1.327 . S
C888 C876 1.349 . S
C888 H882 0.950 . S
C888 C889 1.327 . S
C889 H883 0.950 . S
C889 C888 1.327 . S
C889 C893 1.429 . S
C890 C873 1.574 . S
C890 H884 0.949 . S
C890 C894 1.368 . S
C891 C872 1.429 . S
C891 C885 1.429 . S
C891 C892 1.523 . S
C892 C873 1.368 . S
C892 C886 1.368 . S
C892 C891 1.523 . S
C893 C877 1.429 . S
C893 C889 1.429 . S
C893 C894 1.523 . S
C894 C878 1.368 . S
C894 C890 1.368 . S
C894 C893 1.523 . S
H895 C870 0.950 . S
H896 C872 0.950 . S
H897 C873 0.949 . S
H898 C875 0.950 . S
H899 C877 0.950 . S
C900 C901 1.349 . S
C900 C902 1.327 . S
C900 H925 0.950 . S
C901 C900 1.349 . S
C901 C917 1.349 . S
C902 C900 1.327 . S
C902 C921 1.429 . S
C902 H926 0.950 . S
C903 C920 1.574 . S
C903 C922 1.368 . S
C903 H927 0.949 . S
H904 C908 0.949 . S
C905 C906 1.349 . S
C905 C907 1.327 . S
C905 H928 0.950 . S
C906 C905 1.349 . S
C906 C918 1.349 . S
C907 C905 1.327 . S
C907 C923 1.429 . S
C907 H929 0.950 . S
C908 H904 0.949 . S
C908 C916 1.574 . S
C908 C924 1.368 . S
H909 C917 0.950 . S
H910 C915 0.950 . S
H911 C916 0.949 . S
H912 C918 0.950 . S
H913 C919 0.950 . S
H914 C920 0.949 . S
C915 H910 0.950 . S
C915 C917 1.327 . S
C915 C921 1.429 . S
C916 C908 1.574 . S
C916 H911 0.949 . S
C916 C922 1.368 . S
C917 C901 1.349 . S
C917 H909 0.950 . S
C917 C915 1.327 . S
C918 C906 1.349 . S
C918 H912 0.950 . S
C918 C919 1.327 . S
C919 H913 0.950 . S
C919 C918 1.327 . S
C919 C923 1.429 . S
C920 C903 1.574 . S
C920 H914 0.949 . S
C920 C924 1.368 . S
C921 C902 1.429 . S
C921 C915 1.429 . S
C921 C922 1.523 . S
C922 C903 1.368 . S
C922 C916 1.368 . S
C922 C921 1.523 . S
C923 C907 1.429 . S
C923 C919 1.429 . S
C923 C924 1.523 . S
C924 C908 1.368 . S
C924 C920 1.368 . S
C924 C923 1.523 . S
H925 C900 0.950 . S
H926 C902 0.950 . S
H927 C903 0.949 . S
H928 C905 0.950 . S
H929 C907 0.950 . S
C930 C931 1.349 . S
C930 C932 1.327 . S
C930 H955 0.950 . S
C931 C930 1.349 . S
C931 C947 1.349 . S
C932 C930 1.327 . S
C932 C951 1.429 . S
C932 H956 0.950 . S
C933 C950 1.574 . S
C933 C952 1.368 . S
C933 H957 0.949 . S
H934 C938 0.949 . S
C935 C936 1.349 . S
C935 C937 1.327 . S
C935 H958 0.950 . S
C936 C935 1.349 . S
C936 C948 1.349 . S
C937 C935 1.327 . S
C937 C953 1.429 . S
C937 H959 0.950 . S
C938 H934 0.949 . S
C938 C946 1.574 . S
C938 C954 1.368 . S
H939 C947 0.950 . S
H940 C945 0.950 . S
H941 C946 0.949 . S
H942 C948 0.950 . S
H943 C949 0.950 . S
H944 C950 0.949 . S
C945 H940 0.950 . S
C945 C947 1.327 . S
C945 C951 1.429 . S
C946 C938 1.574 . S
C946 H941 0.949 . S
C946 C952 1.368 . S
C947 C931 1.349 . S
C947 H939 0.950 . S
C947 C945 1.327 . S
C948 C936 1.349 . S
C948 H942 0.950 . S
C948 C949 1.327 . S
C949 H943 0.950 . S
C949 C948 1.327 . S
C949 C953 1.429 . S
C950 C933 1.574 . S
C950 H944 0.949 . S
C950 C954 1.368 . S
C951 C932 1.429 . S
C951 C945 1.429 . S
C951 C952 1.523 . S
C952 C933 1.368 . S
C952 C946 1.368 . S
C952 C951 1.523 . S
C953 C937 1.429 . S
C953 C949 1.429 . S
C953 C954 1.523 . S
C954 C938 1.368 . S
C954 C950 1.368 . S
C954 C953 1.523 . S
H955 C930 0.950 . S
H956 C932 0.950 . S
H957 C933 0.949 . S
H958 C935 0.950 . S
H959 C937 0.950 . S
C960 C961 1.349 . S
C960 C962 1.327 . S
C960 H985 0.950 . S
C961 C960 1.349 . S
C961 C977 1.349 . S
C962 C960 1.327 . S
C962 C981 1.429 . S
C962 H986 0.950 . S
C963 C980 1.574 . S
C963 C982 1.368 . S
C963 H987 0.949 . S
H964 C968 0.949 . S
C965 C966 1.349 . S
C965 C967 1.327 . S
C965 H988 0.950 . S
C966 C965 1.349 . S
C966 C978 1.349 . S
C967 C965 1.327 . S
C967 C983 1.429 . S
C967 H989 0.950 . S
C968 H964 0.949 . S
C968 C976 1.574 . S
C968 C984 1.368 . S
H969 C977 0.950 . S
H970 C975 0.950 . S
H971 C976 0.949 . S
H972 C978 0.950 . S
H973 C979 0.950 . S
H974 C980 0.949 . S
C975 H970 0.950 . S
C975 C977 1.327 . S
C975 C981 1.429 . S
C976 C968 1.574 . S
C976 H971 0.949 . S
C976 C982 1.368 . S
C977 C961 1.349 . S
C977 H969 0.950 . S
C977 C975 1.327 . S
C978 C966 1.349 . S
C978 H972 0.950 . S
C978 C979 1.327 . S
C979 H973 0.950 . S
C979 C978 1.327 . S
C979 C983 1.429 . S
C980 C963 1.574 . S
C980 H974 0.949 . S
C980 C984 1.368 . S
C981 C962 1.429 . S
C981 C975 1.429 . S
C981 C982 1.523 . S
C982 C963 1.368 . S
C982 C976 1.368 . S
C982 C981 1.523 . S
C983 C967 1.429 . S
C983 C979 1.429 . S
C983 C984 1.523 . S
C984 C968 1.368 . S
C984 C980 1.368 . S
C984 C983 1.523 . S
H985 C960 0.950 . S
H986 C962 0.950 . S
H987 C963 0.949 . S
H988 C965 0.950 . S
H989 C967 0.950 . S
C990 C991 1.349 . S
C990 C992 1.327 . S
C990 H1015 0.950 . S
C991 C990 1.349 . S
C991 C1007 1.349 . S
C992 C990 1.327 . S
C992 C1011 1.429 . S
C992 H1016 0.950 . S
C993 C1010 1.574 . S
C993 C1012 1.368 . S
C993 H1017 0.949 . S
H994 C998 0.949 . S
C995 C996 1.349 . S
C995 C997 1.327 . S
C995 H1018 0.950 . S
C996 C995 1.349 . S
C996 C1008 1.349 . S
C997 C995 1.327 . S
C997 C1013 1.429 . S
C997 H1019 0.950 . S
C998 H994 0.949 . S
C998 C1006 1.574 . S
C998 C1014 1.368 . S
H999 C1007 0.950 . S
H1000 C1005 0.950 . S
H1001 C1006 0.949 . S
H1002 C1008 0.950 . S
H1003 C1009 0.950 . S
H1004 C1010 0.949 . S
C1005 H1000 0.950 . S
C1005 C1007 1.327 . S
C1005 C1011 1.429 . S
C1006 C998 1.574 . S
C1006 H1001 0.949 . S
C1006 C1012 1.368 . S
C1007 C991 1.349 . S
C1007 H999 0.950 . S
C1007 C1005 1.327 . S
C1008 C996 1.349 . S
C1008 H1002 0.950 . S
C1008 C1009 1.327 . S
C1009 H1003 0.950 . S
C1009 C1008 1.327 . S
C1009 C1013 1.429 . S
C1010 C993 1.574 . S
C1010 H1004 0.949 . S
C1010 C1014 1.368 . S
C1011 C992 1.429 . S
C1011 C1005 1.429 . S
C1011 C1012 1.523 . S
C1012 C993 1.368 . S
C1012 C1006 1.368 . S
C1012 C1011 1.523 . S
C1013 C997 1.429 . S
C1013 C1009 1.429 . S
C1013 C1014 1.523 . S
C1014 C998 1.368 . S
C1014 C1010 1.368 . S
C1014 C1013 1.523 . S
H1015 C990 0.950 . S
H1016 C992 0.950 . S
H1017 C993 0.949 . S
H1018 C995 0.950 . S
H1019 C997 0.950 . S
C1020 C1021 1.349 . S
C1020 C1022 1.327 . S
C1020 H1045 0.950 . S
C1021 C1020 1.349 . S
C1021 C1037 1.349 . S
C1022 C1020 1.327 . S
C1022 C1041 1.429 . S
C1022 H1046 0.950 . S
C1023 C1040 1.599 . S
C1023 C1042 1.368 1_554 S
C1023 H1047 0.949 . S
H1024 C1028 0.949 . S
C1025 C1026 1.349 . S
C1025 C1027 1.327 . S
C1025 H1048 0.950 . S
C1026 C1025 1.349 . S
C1026 C1038 1.349 . S
C1027 C1025 1.327 . S
C1027 C1043 1.429 . S
C1027 H1049 0.950 . S
C1028 H1024 0.949 . S
C1028 C1036 1.600 . S
C1028 C1044 1.368 1_556 S
H1029 C1037 0.950 . S
H1030 C1035 0.950 . S
H1031 C1036 0.948 . S
H1032 C1038 0.950 . S
H1033 C1039 0.950 . S
H1034 C1040 0.948 . S
C1035 H1030 0.950 . S
C1035 C1037 1.327 . S
C1035 C1041 1.429 . S
C1036 C1028 1.600 . S
C1036 H1031 0.948 . S
C1036 C1042 1.330 1_545 S
C1037 C1021 1.349 . S
C1037 H1029 0.950 . S
C1037 C1035 1.327 . S
C1038 C1026 1.349 . S
C1038 H1032 0.950 . S
C1038 C1039 1.327 . S
C1039 H1033 0.950 . S
C1039 C1038 1.327 . S
C1039 C1043 1.429 . S
C1040 C1023 1.599 . S
C1040 H1034 0.948 . S
C1040 C1044 1.330 1_565 S
C1041 C1022 1.429 . S
C1041 C1035 1.429 . S
C1041 C1042 1.523 . S
C1042 C1023 1.368 1_556 S
C1042 C1036 1.330 1_565 S
C1042 C1041 1.523 . S
C1043 C1027 1.429 . S
C1043 C1039 1.429 . S
C1043 C1044 1.523 . S
C1044 C1028 1.368 1_554 S
C1044 C1040 1.330 1_545 S
C1044 C1043 1.523 . S
H1045 C1020 0.950 . S
H1046 C1022 0.950 . S
H1047 C1023 0.949 . S
H1048 C1025 0.950 . S
H1049 C1027 0.950 . S
C1050 C1051 1.349 . S
C1050 C1052 1.327 . S
C1050 H1075 0.950 . S
C1051 C1050 1.349 . S
C1051 C1067 1.349 . S
C1052 C1050 1.327 . S
C1052 C1071 1.429 . S
C1052 H1076 0.950 . S
C1053 C1070 1.574 . S
C1053 C1072 1.368 . S
C1053 H1077 0.949 . S
H1054 C1058 0.949 . S
C1055 C1056 1.349 . S
C1055 C1057 1.327 . S
C1055 H1078 0.950 . S
C1056 C1055 1.349 . S
C1056 C1068 1.349 . S
C1057 C1055 1.327 . S
C1057 C1073 1.429 . S
C1057 H1079 0.950 . S
C1058 H1054 0.949 . S
C1058 C1066 1.574 . S
C1058 C1074 1.368 . S
H1059 C1067 0.950 . S
H1060 C1065 0.950 . S
H1061 C1066 0.949 . S
H1062 C1068 0.950 . S
H1063 C1069 0.950 . S
H1064 C1070 0.949 . S
C1065 H1060 0.950 . S
C1065 C1067 1.327 . S
C1065 C1071 1.429 . S
C1066 C1058 1.574 . S
C1066 H1061 0.949 . S
C1066 C1072 1.368 . S
C1067 C1051 1.349 . S
C1067 H1059 0.950 . S
C1067 C1065 1.327 . S
C1068 C1056 1.349 . S
C1068 H1062 0.950 . S
C1068 C1069 1.327 . S
C1069 H1063 0.950 . S
C1069 C1068 1.327 . S
C1069 C1073 1.429 . S
C1070 C1053 1.574 . S
C1070 H1064 0.949 . S
C1070 C1074 1.368 . S
C1071 C1052 1.429 . S
C1071 C1065 1.429 . S
C1071 C1072 1.523 . S
C1072 C1053 1.368 . S
C1072 C1066 1.368 . S
C1072 C1071 1.523 . S
C1073 C1057 1.429 . S
C1073 C1069 1.429 . S
C1073 C1074 1.523 . S
C1074 C1058 1.368 . S
C1074 C1070 1.368 . S
C1074 C1073 1.523 . S
H1075 C1050 0.950 . S
H1076 C1052 0.950 . S
H1077 C1053 0.949 . S
H1078 C1055 0.950 . S
H1079 C1057 0.950 . S
C1080 C1081 1.349 . S
C1080 C1082 1.327 . S
C1080 H1105 0.950 . S
C1081 C1080 1.349 . S
C1081 C1097 1.349 . S
C1082 C1080 1.327 . S
C1082 C1101 1.429 . S
C1082 H1106 0.950 . S
C1083 C1100 1.574 1_456 S
C1083 C1102 1.368 . S
C1083 H1107 0.949 . S
H1084 C1088 0.949 . S
C1085 C1086 1.349 . S
C1085 C1087 1.327 . S
C1085 H1108 0.950 . S
C1086 C1085 1.349 . S
C1086 C1098 1.349 . S
C1087 C1085 1.327 . S
C1087 C1103 1.429 . S
C1087 H1109 0.950 . S
C1088 H1084 0.949 . S
C1088 C1096 1.574 1_654 S
C1088 C1104 1.368 . S
H1089 C1097 0.950 . S
H1090 C1095 0.950 . S
H1091 C1096 0.949 . S
H1092 C1098 0.950 . S
H1093 C1099 0.950 . S
H1094 C1100 0.949 . S
C1095 H1090 0.950 . S
C1095 C1097 1.327 . S
C1095 C1101 1.429 . S
C1096 C1088 1.574 1_456 S
C1096 H1091 0.949 . S
C1096 C1102 1.368 . S
C1097 C1081 1.349 . S
C1097 H1089 0.950 . S
C1097 C1095 1.327 . S
C1098 C1086 1.349 . S
C1098 H1092 0.950 . S
C1098 C1099 1.327 . S
C1099 H1093 0.950 . S
C1099 C1098 1.327 . S
C1099 C1103 1.429 . S
C1100 C1083 1.574 1_654 S
C1100 H1094 0.949 . S
C1100 C1104 1.368 . S
C1101 C1082 1.429 . S
C1101 C1095 1.429 . S
C1101 C1102 1.523 . S
C1102 C1083 1.368 . S
C1102 C1096 1.368 . S
C1102 C1101 1.523 . S
C1103 C1087 1.429 . S
C1103 C1099 1.429 . S
C1103 C1104 1.523 . S
C1104 C1088 1.368 . S
C1104 C1100 1.368 . S
C1104 C1103 1.523 . S
H1105 C1080 0.950 . S
H1106 C1082 0.950 . S
H1107 C1083 0.949 . S
H1108 C1085 0.950 . S
H1109 C1087 0.950 . S
C1110 C1111 1.349 . S
C1110 C1112 1.327 . S
C1110 H1135 0.950 . S
C1111 C1110 1.349 . S
C1111 C1127 1.349 . S
C1112 C1110 1.327 . S
C1112 C1131 1.429 . S
C1112 H1136 0.950 . S
C1113 C1130 1.574 . S
C1113 C1132 1.368 . S
C1113 H1137 0.949 . S
H1114 C1118 0.949 . S
C1115 C1116 1.349 . S
C1115 C1117 1.327 . S
C1115 H1138 0.950 . S
C1116 C1115 1.349 . S
C1116 C1128 1.349 . S
C1117 C1115 1.327 . S
C1117 C1133 1.429 . S
C1117 H1139 0.950 . S
C1118 H1114 0.949 . S
C1118 C1126 1.574 . S
C1118 C1134 1.368 . S
H1119 C1127 0.950 . S
H1120 C1125 0.950 . S
H1121 C1126 0.949 . S
H1122 C1128 0.950 . S
H1123 C1129 0.950 . S
H1124 C1130 0.949 . S
C1125 H1120 0.950 . S
C1125 C1127 1.327 . S
C1125 C1131 1.429 . S
C1126 C1118 1.574 . S
C1126 H1121 0.949 . S
C1126 C1132 1.368 1_565 S
C1127 C1111 1.349 . S
C1127 H1119 0.950 . S
C1127 C1125 1.327 . S
C1128 C1116 1.349 . S
C1128 H1122 0.950 . S
C1128 C1129 1.327 . S
C1129 H1123 0.950 . S
C1129 C1128 1.327 . S
C1129 C1133 1.429 . S
C1130 C1113 1.574 . S
C1130 H1124 0.949 . S
C1130 C1134 1.368 1_545 S
C1131 C1112 1.429 . S
C1131 C1125 1.429 . S
C1131 C1132 1.523 . S
C1132 C1113 1.368 . S
C1132 C1126 1.368 1_545 S
C1132 C1131 1.523 . S
C1133 C1117 1.429 . S
C1133 C1129 1.429 . S
C1133 C1134 1.523 . S
C1134 C1118 1.368 . S
C1134 C1130 1.368 1_565 S
C1134 C1133 1.523 . S
H1135 C1110 0.950 . S
H1136 C1112 0.950 . S
H1137 C1113 0.949 . S
H1138 C1115 0.950 . S
H1139 C1117 0.950 . S
C1140 C1141 1.349 . S
C1140 C1142 1.327 . S
C1140 H1165 0.950 . S
C1141 C1140 1.349 . S
C1141 C1157 1.349 . S
C1142 C1140 1.327 . S
C1142 C1161 1.429 . S
C1142 H1166 0.950 . S
C1143 C1160 1.574 1_554 S
C1143 C1162 1.368 . S
C1143 H1167 0.949 . S
H1144 C1148 0.949 . S
C1145 C1146 1.349 . S
C1145 C1147 1.327 . S
C1145 H1168 0.950 . S
C1146 C1145 1.349 . S
C1146 C1158 1.349 . S
C1147 C1145 1.327 . S
C1147 C1163 1.429 . S
C1147 H1169 0.950 . S
C1148 H1144 0.949 . S
C1148 C1156 1.574 1_556 S
C1148 C1164 1.368 . S
H1149 C1157 0.950 . S
H1150 C1155 0.950 . S
H1151 C1156 0.949 . S
H1152 C1158 0.950 . S
H1153 C1159 0.950 . S
H1154 C1160 0.949 . S
C1155 H1150 0.950 . S
C1155 C1157 1.327 . S
C1155 C1161 1.429 . S
C1156 C1148 1.574 1_554 S
C1156 H1151 0.949 . S
C1156 C1162 1.368 . S
C1157 C1141 1.349 . S
C1157 H1149 0.950 . S
C1157 C1155 1.327 . S
C1158 C1146 1.349 . S
C1158 H1152 0.950 . S
C1158 C1159 1.327 . S
C1159 H1153 0.950 . S
C1159 C1158 1.327 . S
C1159 C1163 1.429 . S
C1160 C1143 1.574 1_556 S
C1160 H1154 0.949 . S
C1160 C1164 1.368 . S
C1161 C1142 1.429 . S
C1161 C1155 1.429 . S
C1161 C1162 1.523 . S
C1162 C1143 1.368 . S
C1162 C1156 1.368 . S
C1162 C1161 1.523 . S
C1163 C1147 1.429 . S
C1163 C1159 1.429 . S
C1163 C1164 1.523 . S
C1164 C1148 1.368 . S
C1164 C1160 1.368 . S
C1164 C1163 1.523 . S
H1165 C1140 0.950 . S
H1166 C1142 0.950 . S
H1167 C1143 0.949 . S
H1168 C1145 0.950 . S
H1169 C1147 0.950 . S
C1170 C1171 1.349 . S
C1170 C1172 1.327 . S
C1170 H1195 0.950 . S
C1171 C1170 1.349 . S
C1171 C1187 1.349 . S
C1172 C1170 1.327 . S
C1172 C1191 1.429 . S
C1172 H1196 0.950 . S
C1173 C1190 1.574 . S
C1173 C1192 1.368 . S
C1173 H1197 0.949 . S
H1174 C1178 0.949 . S
C1175 C1176 1.349 . S
C1175 C1177 1.327 . S
C1175 H1198 0.950 . S
C1176 C1175 1.349 . S
C1176 C1188 1.349 . S
C1177 C1175 1.327 . S
C1177 C1193 1.429 . S
C1177 H1199 0.950 . S
C1178 H1174 0.949 . S
C1178 C1186 1.574 . S
C1178 C1194 1.368 . S
H1179 C1187 0.950 . S
H1180 C1185 0.950 . S
H1181 C1186 0.949 . S
H1182 C1188 0.950 . S
H1183 C1189 0.950 . S
H1184 C1190 0.949 . S
C1185 H1180 0.950 . S
C1185 C1187 1.327 . S
C1185 C1191 1.429 . S
C1186 C1178 1.574 . S
C1186 H1181 0.949 . S
C1186 C1192 1.368 1_655 S
C1187 C1171 1.349 . S
C1187 H1179 0.950 . S
C1187 C1185 1.327 . S
C1188 C1176 1.349 . S
C1188 H1182 0.950 . S
C1188 C1189 1.327 . S
C1189 H1183 0.950 . S
C1189 C1188 1.327 . S
C1189 C1193 1.429 . S
C1190 C1173 1.574 . S
C1190 H1184 0.949 . S
C1190 C1194 1.368 1_455 S
C1191 C1172 1.429 . S
C1191 C1185 1.429 . S
C1191 C1192 1.523 . S
C1192 C1173 1.368 . S
C1192 C1186 1.368 1_455 S
C1192 C1191 1.523 . S
C1193 C1177 1.429 . S
C1193 C1189 1.429 . S
C1193 C1194 1.523 . S
C1194 C1178 1.368 . S
C1194 C1190 1.368 1_655 S
C1194 C1193 1.523 . S
H1195 C1170 0.950 . S
H1196 C1172 0.950 . S
H1197 C1173 0.949 . S
H1198 C1175 0.950 . S
H1199 C1177 0.950 . S
C1200 C1201 1.349 . S
C1200 C1202 1.327 . S
C1200 H1225 0.950 . S
C1201 C1200 1.349 . S
C1201 C1217 1.349 . S
C1202 C1200 1.327 . S
C1202 C1221 1.429 . S
C1202 H1226 0.950 . S
C1203 C1220 1.574 . S
C1203 C1222 1.368 . S
C1203 H1227 0.949 . S
H1204 C1208 0.949 . S
C1205 C1206 1.349 . S
C1205 C1207 1.327 . S
C1205 H1228 0.950 . S
C1206 C1205 1.349 . S
C1206 C1218 1.349 . S
C1207 C1205 1.327 . S
C1207 C1223 1.429 . S
C1207 H1229 0.950 . S
C1208 H1204 0.949 . S
C1208 C1216 1.574 . S
C1208 C1224 1.368 . S
H1209 C1217 0.950 . S
H1210 C1215 0.950 . S
H1211 C1216 0.949 . S
H1212 C1218 0.950 . S
H1213 C1219 0.950 . S
H1214 C1220 0.949 . S
C1215 H1210 0.950 . S
C1215 C1217 1.327 . S
C1215 C1221 1.429 . S
C1216 C1208 1.574 . S
C1216 H1211 0.949 . S
C1216 C1222 1.368 . S
C1217 C1201 1.349 . S
C1217 H1209 0.950 . S
C1217 C1215 1.327 . S
C1218 C1206 1.349 . S
C1218 H1212 0.950 . S
C1218 C1219 1.327 . S
C1219 H1213 0.950 . S
C1219 C1218 1.327 . S
C1219 C1223 1.429 . S
C1220 C1203 1.574 . S
C1220 H1214 0.949 . S
C1220 C1224 1.368 . S
C1221 C1202 1.429 . S
C1221 C1215 1.429 . S
C1221 C1222 1.523 . S
C1222 C1203 1.368 . S
C1222 C1216 1.368 . S
C1222 C1221 1.523 . S
C1223 C1207 1.429 . S
C1223 C1219 1.429 . S
C1223 C1224 1.523 . S
C1224 C1208 1.368 . S
C1224 C1220 1.368 . S
C1224 C1223 1.523 . S
H1225 C1200 0.950 . S
H1226 C1202 0.950 . S
H1227 C1203 0.949 . S
H1228 C1205 0.950 . S
H1229 C1207 0.950 . S
C1230 C1231 1.349 . S
C1230 C1232 1.327 . S
C1230 H1255 0.950 . S
C1231 C1230 1.349 . S
C1231 C1247 1.349 . S
C1232 C1230 1.327 . S
C1232 C1251 1.429 . S
C1232 H1256 0.950 . S
C1233 C1250 1.574 . S
C1233 C1252 1.368 . S
C1233 H1257 0.949 . S
H1234 C1238 0.949 . S
C1235 C1236 1.349 . S
C1235 C1237 1.327 . S
C1235 H1258 0.950 . S
C1236 C1235 1.349 . S
C1236 C1248 1.349 . S
C1237 C1235 1.327 . S
C1237 C1253 1.429 . S
C1237 H1259 0.950 . S
C1238 H1234 0.949 . S
C1238 C1246 1.574 . S
C1238 C1254 1.368 . S
H1239 C1247 0.950 . S
H1240 C1245 0.950 . S
H1241 C1246 0.949 . S
H1242 C1248 0.950 . S
H1243 C1249 0.950 . S
H1244 C1250 0.949 . S
C1245 H1240 0.950 . S
C1245 C1247 1.327 . S
C1245 C1251 1.429 . S
C1246 C1238 1.574 . S
C1246 H1241 0.949 . S
C1246 C1252 1.368 . S
C1247 C1231 1.349 . S
C1247 H1239 0.950 . S
C1247 C1245 1.327 . S
C1248 C1236 1.349 . S
C1248 H1242 0.950 . S
C1248 C1249 1.327 . S
C1249 H1243 0.950 . S
C1249 C1248 1.327 . S
C1249 C1253 1.429 . S
C1250 C1233 1.574 . S
C1250 H1244 0.949 . S
C1250 C1254 1.368 . S
C1251 C1232 1.429 . S
C1251 C1245 1.429 . S
C1251 C1252 1.523 . S
C1252 C1233 1.368 . S
C1252 C1246 1.368 . S
C1252 C1251 1.523 . S
C1253 C1237 1.429 . S
C1253 C1249 1.429 . S
C1253 C1254 1.523 . S
C1254 C1238 1.368 . S
C1254 C1250 1.368 . S
C1254 C1253 1.523 . S
H1255 C1230 0.950 . S
H1256 C1232 0.950 . S
H1257 C1233 0.949 . S
H1258 C1235 0.950 . S
H1259 C1237 0.950 . S
C1260 C1261 1.349 . S
C1260 C1262 1.327 . S
C1260 H1285 0.950 . S
C1261 C1260 1.349 . S
C1261 C1277 1.349 . S
C1262 C1260 1.327 . S
C1262 C1281 1.429 . S
C1262 H1286 0.950 . S
C1263 C1280 1.574 . S
C1263 C1282 1.368 . S
C1263 H1287 0.949 . S
H1264 C1268 0.949 . S
C1265 C1266 1.349 . S
C1265 C1267 1.327 . S
C1265 H1288 0.950 . S
C1266 C1265 1.349 . S
C1266 C1278 1.349 . S
C1267 C1265 1.327 . S
C1267 C1283 1.429 . S
C1267 H1289 0.950 . S
C1268 H1264 0.949 . S
C1268 C1276 1.574 . S
C1268 C1284 1.368 . S
H1269 C1277 0.950 . S
H1270 C1275 0.950 . S
H1271 C1276 0.949 . S
H1272 C1278 0.950 . S
H1273 C1279 0.950 . S
H1274 C1280 0.949 . S
C1275 H1270 0.950 . S
C1275 C1277 1.327 . S
C1275 C1281 1.429 . S
C1276 C1268 1.574 . S
C1276 H1271 0.949 . S
C1276 C1282 1.368 . S
C1277 C1261 1.349 . S
C1277 H1269 0.950 . S
C1277 C1275 1.327 . S
C1278 C1266 1.349 . S
C1278 H1272 0.950 . S
C1278 C1279 1.327 . S
C1279 H1273 0.950 . S
C1279 C1278 1.327 . S
C1279 C1283 1.429 . S
C1280 C1263 1.574 . S
C1280 H1274 0.949 . S
C1280 C1284 1.368 . S
C1281 C1262 1.429 . S
C1281 C1275 1.429 . S
C1281 C1282 1.523 . S
C1282 C1263 1.368 . S
C1282 C1276 1.368 . S
C1282 C1281 1.523 . S
C1283 C1267 1.429 . S
C1283 C1279 1.429 . S
C1283 C1284 1.523 . S
C1284 C1268 1.368 . S
C1284 C1280 1.368 . S
C1284 C1283 1.523 . S
H1285 C1260 0.950 . S
H1286 C1262 0.950 . S
H1287 C1263 0.949 . S
H1288 C1265 0.950 . S
H1289 C1267 0.950 . S
C1290 C1291 1.349 . S
C1290 C1292 1.327 . S
C1290 H1315 0.950 . S
C1291 C1290 1.349 . S
C1291 C1307 1.349 . S
C1292 C1290 1.327 . S
C1292 C1311 1.429 . S
C1292 H1316 0.950 . S
C1293 C1310 1.574 . S
C1293 C1312 1.368 . S
C1293 H1317 0.949 . S
H1294 C1298 0.949 . S
C1295 C1296 1.349 . S
C1295 C1297 1.327 . S
C1295 H1318 0.950 . S
C1296 C1295 1.349 . S
C1296 C1308 1.349 . S
C1297 C1295 1.327 . S
C1297 C1313 1.429 . S
C1297 H1319 0.950 . S
C1298 H1294 0.949 . S
C1298 C1306 1.574 . S
C1298 C1314 1.368 . S
H1299 C1307 0.950 . S
H1300 C1305 0.950 . S
H1301 C1306 0.949 . S
H1302 C1308 0.950 . S
H1303 C1309 0.950 . S
H1304 C1310 0.949 . S
C1305 H1300 0.950 . S
C1305 C1307 1.327 . S
C1305 C1311 1.429 . S
C1306 C1298 1.574 . S
C1306 H1301 0.949 . S
C1306 C1312 1.368 . S
C1307 C1291 1.349 . S
C1307 H1299 0.950 . S
C1307 C1305 1.327 . S
C1308 C1296 1.349 . S
C1308 H1302 0.950 . S
C1308 C1309 1.327 . S
C1309 H1303 0.950 . S
C1309 C1308 1.327 . S
C1309 C1313 1.429 . S
C1310 C1293 1.574 . S
C1310 H1304 0.949 . S
C1310 C1314 1.368 . S
C1311 C1292 1.429 . S
C1311 C1305 1.429 . S
C1311 C1312 1.523 . S
C1312 C1293 1.368 . S
C1312 C1306 1.368 . S
C1312 C1311 1.523 . S
C1313 C1297 1.429 . S
C1313 C1309 1.429 . S
C1313 C1314 1.523 . S
C1314 C1298 1.368 . S
C1314 C1310 1.368 . S
C1314 C1313 1.523 . S
H1315 C1290 0.950 . S
H1316 C1292 0.950 . S
H1317 C1293 0.949 . S
H1318 C1295 0.950 . S
H1319 C1297 0.950 . S
C1320 C1321 1.349 . S
C1320 C1322 1.327 . S
C1320 H1345 0.950 . S
C1321 C1320 1.349 . S
C1321 C1337 1.349 . S
C1322 C1320 1.327 . S
C1322 C1341 1.429 . S
C1322 H1346 0.950 . S
C1323 C1340 1.574 . S
C1323 C1342 1.368 . S
C1323 H1347 0.949 . S
H1324 C1328 0.949 . S
C1325 C1326 1.349 . S
C1325 C1327 1.327 . S
C1325 H1348 0.950 . S
C1326 C1325 1.349 . S
C1326 C1338 1.349 . S
C1327 C1325 1.327 . S
C1327 C1343 1.429 . S
C1327 H1349 0.950 . S
C1328 H1324 0.949 . S
C1328 C1336 1.574 . S
C1328 C1344 1.368 . S
H1329 C1337 0.950 . S
H1330 C1335 0.950 . S
H1331 C1336 0.949 . S
H1332 C1338 0.950 . S
H1333 C1339 0.950 . S
H1334 C1340 0.949 . S
C1335 H1330 0.950 . S
C1335 C1337 1.327 . S
C1335 C1341 1.429 . S
C1336 C1328 1.574 . S
C1336 H1331 0.949 . S
C1336 C1342 1.368 . S
C1337 C1321 1.349 . S
C1337 H1329 0.950 . S
C1337 C1335 1.327 . S
C1338 C1326 1.349 . S
C1338 H1332 0.950 . S
C1338 C1339 1.327 . S
C1339 H1333 0.950 . S
C1339 C1338 1.327 . S
C1339 C1343 1.429 . S
C1340 C1323 1.574 . S
C1340 H1334 0.949 . S
C1340 C1344 1.368 . S
C1341 C1322 1.429 . S
C1341 C1335 1.429 . S
C1341 C1342 1.523 . S
C1342 C1323 1.368 . S
C1342 C1336 1.368 . S
C1342 C1341 1.523 . S
C1343 C1327 1.429 . S
C1343 C1339 1.429 . S
C1343 C1344 1.523 . S
C1344 C1328 1.368 . S
C1344 C1340 1.368 . S
C1344 C1343 1.523 . S
H1345 C1320 0.950 . S
H1346 C1322 0.950 . S
H1347 C1323 0.949 . S
H1348 C1325 0.950 . S
H1349 C1327 0.950 . S
C1350 C1351 1.349 . S
C1350 C1352 1.327 . S
C1350 H1375 0.950 . S
C1351 C1350 1.349 . S
C1351 C1367 1.349 . S
C1352 C1350 1.327 . S
C1352 C1371 1.429 . S
C1352 H1376 0.950 . S
C1353 C1370 1.574 . S
C1353 C1372 1.368 . S
C1353 H1377 0.949 . S
H1354 C1358 0.949 . S
C1355 C1356 1.349 . S
C1355 C1357 1.327 . S
C1355 H1378 0.950 . S
C1356 C1355 1.349 . S
C1356 C1368 1.349 . S
C1357 C1355 1.327 . S
C1357 C1373 1.429 . S
C1357 H1379 0.950 . S
C1358 H1354 0.949 . S
C1358 C1366 1.574 . S
C1358 C1374 1.368 . S
H1359 C1367 0.950 . S
H1360 C1365 0.950 . S
H1361 C1366 0.949 . S
H1362 C1368 0.950 . S
H1363 C1369 0.950 . S
H1364 C1370 0.949 . S
C1365 H1360 0.950 . S
C1365 C1367 1.327 . S
C1365 C1371 1.429 . S
C1366 C1358 1.574 . S
C1366 H1361 0.949 . S
C1366 C1372 1.368 . S
C1367 C1351 1.349 . S
C1367 H1359 0.950 . S
C1367 C1365 1.327 . S
C1368 C1356 1.349 . S
C1368 H1362 0.950 . S
C1368 C1369 1.327 . S
C1369 H1363 0.950 . S
C1369 C1368 1.327 . S
C1369 C1373 1.429 . S
C1370 C1353 1.574 . S
C1370 H1364 0.949 . S
C1370 C1374 1.368 . S
C1371 C1352 1.429 . S
C1371 C1365 1.429 . S
C1371 C1372 1.523 . S
C1372 C1353 1.368 . S
C1372 C1366 1.368 . S
C1372 C1371 1.523 . S
C1373 C1357 1.429 . S
C1373 C1369 1.429 . S
C1373 C1374 1.523 . S
C1374 C1358 1.368 . S
C1374 C1370 1.368 . S
C1374 C1373 1.523 . S
H1375 C1350 0.950 . S
H1376 C1352 0.950 . S
H1377 C1353 0.949 . S
H1378 C1355 0.950 . S
H1379 C1357 0.950 . S
C1380 C1381 1.349 . S
C1380 C1382 1.327 . S
C1380 H1405 0.950 . S
C1381 C1380 1.349 . S
C1381 C1397 1.349 . S
C1382 C1380 1.327 . S
C1382 C1401 1.429 . S
C1382 H1406 0.950 . S
C1383 C1400 1.574 . S
C1383 C1402 1.368 . S
C1383 H1407 0.949 . S
H1384 C1388 0.949 . S
C1385 C1386 1.349 . S
C1385 C1387 1.327 . S
C1385 H1408 0.950 . S
C1386 C1385 1.349 . S
C1386 C1398 1.349 . S
C1387 C1385 1.327 . S
C1387 C1403 1.429 . S
C1387 H1409 0.950 . S
C1388 H1384 0.949 . S
C1388 C1396 1.574 . S
C1388 C1404 1.368 . S
H1389 C1397 0.950 . S
H1390 C1395 0.950 . S
H1391 C1396 0.949 . S
H1392 C1398 0.950 . S
H1393 C1399 0.950 . S
H1394 C1400 0.949 . S
C1395 H1390 0.950 . S
C1395 C1397 1.327 . S
C1395 C1401 1.429 . S
C1396 C1388 1.574 . S
C1396 H1391 0.949 . S
C1396 C1402 1.368 . S
C1397 C1381 1.349 . S
C1397 H1389 0.950 . S
C1397 C1395 1.327 . S
C1398 C1386 1.349 . S
C1398 H1392 0.950 . S
C1398 C1399 1.327 . S
C1399 H1393 0.950 . S
C1399 C1398 1.327 . S
C1399 C1403 1.429 . S
C1400 C1383 1.574 . S
C1400 H1394 0.949 . S
C1400 C1404 1.368 . S
C1401 C1382 1.429 . S
C1401 C1395 1.429 . S
C1401 C1402 1.523 . S
C1402 C1383 1.368 . S
C1402 C1396 1.368 . S
C1402 C1401 1.523 . S
C1403 C1387 1.429 . S
C1403 C1399 1.429 . S
C1403 C1404 1.523 . S
C1404 C1388 1.368 . S
C1404 C1400 1.368 . S
C1404 C1403 1.523 . S
H1405 C1380 0.950 . S
H1406 C1382 0.950 . S
H1407 C1383 0.949 . S
H1408 C1385 0.950 . S
H1409 C1387 0.950 . S
C1410 C1411 1.349 . S
C1410 C1412 1.327 . S
C1410 H1435 0.950 . S
C1411 C1410 1.349 . S
C1411 C1427 1.349 . S
C1412 C1410 1.327 . S
C1412 C1431 1.429 . S
C1412 H1436 0.950 . S
C1413 C1430 1.574 . S
C1413 C1432 1.368 . S
C1413 H1437 0.949 . S
H1414 C1418 0.949 . S
C1415 C1416 1.349 . S
C1415 C1417 1.327 . S
C1415 H1438 0.950 . S
C1416 C1415 1.349 . S
C1416 C1428 1.349 . S
C1417 C1415 1.327 . S
C1417 C1433 1.429 . S
C1417 H1439 0.950 . S
C1418 H1414 0.949 . S
C1418 C1426 1.574 . S
C1418 C1434 1.368 . S
H1419 C1427 0.950 . S
H1420 C1425 0.950 . S
H1421 C1426 0.949 . S
H1422 C1428 0.950 . S
H1423 C1429 0.950 . S
H1424 C1430 0.949 . S
C1425 H1420 0.950 . S
C1425 C1427 1.327 . S
C1425 C1431 1.429 . S
C1426 C1418 1.574 . S
C1426 H1421 0.949 . S
C1426 C1432 1.368 . S
C1427 C1411 1.349 . S
C1427 H1419 0.950 . S
C1427 C1425 1.327 . S
C1428 C1416 1.349 . S
C1428 H1422 0.950 . S
C1428 C1429 1.327 . S
C1429 H1423 0.950 . S
C1429 C1428 1.327 . S
C1429 C1433 1.429 . S
C1430 C1413 1.574 . S
C1430 H1424 0.949 . S
C1430 C1434 1.368 . S
C1431 C1412 1.429 . S
C1431 C1425 1.429 . S
C1431 C1432 1.523 . S
C1432 C1413 1.368 . S
C1432 C1426 1.368 . S
C1432 C1431 1.523 . S
C1433 C1417 1.429 . S
C1433 C1429 1.429 . S
C1433 C1434 1.523 . S
C1434 C1418 1.368 . S
C1434 C1430 1.368 . S
C1434 C1433 1.523 . S
H1435 C1410 0.950 . S
H1436 C1412 0.950 . S
H1437 C1413 0.949 . S
H1438 C1415 0.950 . S
H1439 C1417 0.950 . S
C1440 C1441 1.349 . S
C1440 C1442 1.327 . S
C1440 H1465 0.950 . S
C1441 C1440 1.349 . S
C1441 C1457 1.349 . S
C1442 C1440 1.327 . S
C1442 C1461 1.429 . S
C1442 H1466 0.950 . S
C1443 C1460 1.574 . S
C1443 C1462 1.368 . S
C1443 H1467 0.949 . S
H1444 C1448 0.949 . S
C1445 C1446 1.349 . S
C1445 C1447 1.327 . S
C1445 H1468 0.950 . S
C1446 C1445 1.349 . S
C1446 C1458 1.349 . S
C1447 C1445 1.327 . S
C1447 C1463 1.429 . S
C1447 H1469 0.950 . S
C1448 H1444 0.949 . S
C1448 C1456 1.574 . S
C1448 C1464 1.368 . S
H1449 C1457 0.950 . S
H1450 C1455 0.950 . S
H1451 C1456 0.949 . S
H1452 C1458 0.950 . S
H1453 C1459 0.950 . S
H1454 C1460 0.949 . S
C1455 H1450 0.950 . S
C1455 C1457 1.327 . S
C1455 C1461 1.429 . S
C1456 C1448 1.574 . S
C1456 H1451 0.949 . S
C1456 C1462 1.368 . S
C1457 C1441 1.349 . S
C1457 H1449 0.950 . S
C1457 C1455 1.327 . S
C1458 C1446 1.349 . S
C1458 H1452 0.950 . S
C1458 C1459 1.327 . S
C1459 H1453 0.950 . S
C1459 C1458 1.327 . S
C1459 C1463 1.429 . S
C1460 C1443 1.574 . S
C1460 H1454 0.949 . S
C1460 C1464 1.368 . S
C1461 C1442 1.429 . S
C1461 C1455 1.429 . S
C1461 C1462 1.523 . S
C1462 C1443 1.368 . S
C1462 C1456 1.368 . S
C1462 C1461 1.523 . S
C1463 C1447 1.429 . S
C1463 C1459 1.429 . S
C1463 C1464 1.523 . S
C1464 C1448 1.368 . S
C1464 C1460 1.368 . S
C1464 C1463 1.523 . S
H1465 C1440 0.950 . S
H1466 C1442 0.950 . S
H1467 C1443 0.949 . S
H1468 C1445 0.950 . S
H1469 C1447 0.950 . S
C1470 C1471 1.349 . S
C1470 C1472 1.327 . S
C1470 H1495 0.950 . S
C1471 C1470 1.349 . S
C1471 C1487 1.349 . S
C1472 C1470 1.327 . S
C1472 C1491 1.429 . S
C1472 H1496 0.950 . S
C1473 C1490 1.574 . S
C1473 C1492 1.368 . S
C1473 H1497 0.949 . S
H1474 C1478 0.949 . S
C1475 C1476 1.349 . S
C1475 C1477 1.327 . S
C1475 H1498 0.950 . S
C1476 C1475 1.349 . S
C1476 C1488 1.349 . S
C1477 C1475 1.327 . S
C1477 C1493 1.429 . S
C1477 H1499 0.950 . S
C1478 H1474 0.949 . S
C1478 C1486 1.574 . S
C1478 C1494 1.368 . S
H1479 C1487 0.950 . S
H1480 C1485 0.950 . S
H1481 C1486 0.949 . S
H1482 C1488 0.950 . S
H1483 C1489 0.950 . S
H1484 C1490 0.949 . S
C1485 H1480 0.950 . S
C1485 C1487 1.327 . S
C1485 C1491 1.429 . S
C1486 C1478 1.574 . S
C1486 H1481 0.949 . S
C1486 C1492 1.368 . S
C1487 C1471 1.349 . S
C1487 H1479 0.950 . S
C1487 C1485 1.327 . S
C1488 C1476 1.349 . S
C1488 H1482 0.950 . S
C1488 C1489 1.327 . S
C1489 H1483 0.950 . S
C1489 C1488 1.327 . S
C1489 C1493 1.429 . S
C1490 C1473 1.574 . S
C1490 H1484 0.949 . S
C1490 C1494 1.368 . S
C1491 C1472 1.429 . S
C1491 C1485 1.429 . S
C1491 C1492 1.523 . S
C1492 C1473 1.368 . S
C1492 C1486 1.368 . S
C1492 C1491 1.523 . S
C1493 C1477 1.429 . S
C1493 C1489 1.429 . S
C1493 C1494 1.523 . S
C1494 C1478 1.368 . S
C1494 C1490 1.368 . S
C1494 C1493 1.523 . S
H1495 C1470 0.950 . S
H1496 C1472 0.950 . S
H1497 C1473 0.949 . S
H1498 C1475 0.950 . S
H1499 C1477 0.950 . S
C1500 C1501 1.349 . S
C1500 C1502 1.327 . S
C1500 H1525 0.950 . S
C1501 C1500 1.349 . S
C1501 C1517 1.349 . S
C1502 C1500 1.327 . S
C1502 C1521 1.429 . S
C1502 H1526 0.950 . S
C1503 C1520 1.574 . S
C1503 C1522 1.368 . S
C1503 H1527 0.949 . S
H1504 C1508 0.949 . S
C1505 C1506 1.349 . S
C1505 C1507 1.327 . S
C1505 H1528 0.950 . S
C1506 C1505 1.349 . S
C1506 C1518 1.349 . S
C1507 C1505 1.327 . S
C1507 C1523 1.429 . S
C1507 H1529 0.950 . S
C1508 H1504 0.949 . S
C1508 C1516 1.574 . S
C1508 C1524 1.368 . S
H1509 C1517 0.950 . S
H1510 C1515 0.950 . S
H1511 C1516 0.949 . S
H1512 C1518 0.950 . S
H1513 C1519 0.950 . S
H1514 C1520 0.949 . S
C1515 H1510 0.950 . S
C1515 C1517 1.327 . S
C1515 C1521 1.429 . S
C1516 C1508 1.574 . S
C1516 H1511 0.949 . S
C1516 C1522 1.368 . S
C1517 C1501 1.349 . S
C1517 H1509 0.950 . S
C1517 C1515 1.327 . S
C1518 C1506 1.349 . S
C1518 H1512 0.950 . S
C1518 C1519 1.327 . S
C1519 H1513 0.950 . S
C1519 C1518 1.327 . S
C1519 C1523 1.429 . S
C1520 C1503 1.574 . S
C1520 H1514 0.949 . S
C1520 C1524 1.368 . S
C1521 C1502 1.429 . S
C1521 C1515 1.429 . S
C1521 C1522 1.523 . S
C1522 C1503 1.368 . S
C1522 C1516 1.368 . S
C1522 C1521 1.523 . S
C1523 C1507 1.429 . S
C1523 C1519 1.429 . S
C1523 C1524 1.523 . S
C1524 C1508 1.368 . S
C1524 C1520 1.368 . S
C1524 C1523 1.523 . S
H1525 C1500 0.950 . S
H1526 C1502 0.950 . S
H1527 C1503 0.949 . S
H1528 C1505 0.950 . S
H1529 C1507 0.950 . S
C1530 C1531 1.349 . S
C1530 C1532 1.327 . S
C1530 H1555 0.950 . S
C1531 C1530 1.349 . S
C1531 C1547 1.349 . S
C1532 C1530 1.327 . S
C1532 C1551 1.429 . S
C1532 H1556 0.950 . S
C1533 C1550 1.574 . S
C1533 C1552 1.368 . S
C1533 H1557 0.949 . S
H1534 C1538 0.949 . S
C1535 C1536 1.349 . S
C1535 C1537 1.327 . S
C1535 H1558 0.950 . S
C1536 C1535 1.349 . S
C1536 C1548 1.349 . S
C1537 C1535 1.327 . S
C1537 C1553 1.429 . S
C1537 H1559 0.950 . S
C1538 H1534 0.949 . S
C1538 C1546 1.574 . S
C1538 C1554 1.368 . S
H1539 C1547 0.950 . S
H1540 C1545 0.950 . S
H1541 C1546 0.949 . S
H1542 C1548 0.950 . S
H1543 C1549 0.950 . S
H1544 C1550 0.949 . S
C1545 H1540 0.950 . S
C1545 C1547 1.327 . S
C1545 C1551 1.429 . S
C1546 C1538 1.574 . S
C1546 H1541 0.949 . S
C1546 C1552 1.368 . S
C1547 C1531 1.349 . S
C1547 H1539 0.950 . S
C1547 C1545 1.327 . S
C1548 C1536 1.349 . S
C1548 H1542 0.950 . S
C1548 C1549 1.327 . S
C1549 H1543 0.950 . S
C1549 C1548 1.327 . S
C1549 C1553 1.429 . S
C1550 C1533 1.574 . S
C1550 H1544 0.949 . S
C1550 C1554 1.368 . S
C1551 C1532 1.429 . S
C1551 C1545 1.429 . S
C1551 C1552 1.523 . S
C1552 C1533 1.368 . S
C1552 C1546 1.368 . S
C1552 C1551 1.523 . S
C1553 C1537 1.429 . S
C1553 C1549 1.429 . S
C1553 C1554 1.523 . S
C1554 C1538 1.368 . S
C1554 C1550 1.368 . S
C1554 C1553 1.523 . S
H1555 C1530 0.950 . S
H1556 C1532 0.950 . S
H1557 C1533 0.949 . S
H1558 C1535 0.950 . S
H1559 C1537 0.950 . S
C481 C106 1.211 . S
C486 C3 1.204 . S
C511 C129 1.211 . S
C516 C62 1.204 . S
C541 C83 1.204 . S
C546 C186 1.211 . S
C571 C142 1.204 . S
C576 C209 1.211 . S
C601 C26 1.211 . S
C606 C163 1.204 . S
C631 C49 1.211 . S
C636 C222 1.204 . S
C661 C409 1.211 . S
C666 C262 1.204 . S
C691 C283 1.204 . S
C696 C466 1.211 . S
C721 C342 1.204 . S
C726 C249 1.211 . S
C751 C363 1.204 . S
C756 C306 1.211 . S
C781 C422 1.204 . S
C786 C329 1.211 . S
C811 C386 1.211 . S
C816 C443 1.204 . S
C841 C122 1.789 . S
C846 C15 1.789 . S
C871 C42 1.789 . S
C876 C175 1.789 . S
C901 C95 1.789 . S
C906 C202 1.789 . S
C931 C242 1.789 . S
C936 C375 1.789 . S
C961 C295 1.789 . S
C966 C402 1.789 . S
C991 C322 1.789 . S
C996 C455 1.789 . S
C1021 C282 2.255 . S
C1026 C2 2.255 . S
C1051 C55 2.255 . S
C1056 C335 2.255 . S
C1081 C362 2.255 . S
C1086 C82 2.255 . S
C1111 C135 2.255 . S
C1116 C415 2.255 . S
C1141 C162 2.255 . S
C1146 C442 2.255 . S
C1171 C255 2.255 . S
C1176 C215 2.255 . S
C1201 C89 1.682 . S
C1206 C22 1.715 . S
C1231 C43 1.715 . S
C1236 C146 1.682 . S
C1261 C102 1.715 . S
C1266 C169 1.682 . S
C1291 C123 1.715 . S
C1296 C226 1.682 . S
C1321 C9 1.682 . S
C1326 C182 1.715 . S
C1351 C66 1.682 . S
C1356 C203 1.715 . S
C1381 C426 1.682 . S
C1386 C243 1.715 . S
C1411 C302 1.715 . S
C1416 C449 1.682 . S
C1441 C323 1.715 . S
C1446 C266 1.682 . S
C1471 C289 1.682 . S
C1476 C382 1.715 . S
C1501 C403 1.715 . S
C1506 C346 1.682 . S
C1531 C462 1.715 . S
C1536 C369 1.682 . S
