# Generated by pormake.
# Topology uop, (4)-cn, num edge types: 1
# Building blocks:
#     Node 0, Type 0, BuildingBlock: QUQFOY_clean_sbu_3, # of connection points: 4
#     Node 1, Type 0, BuildingBlock: QUQFOY_clean_sbu_3, # of connection points: 4
#     Node 2, Type 0, BuildingBlock: QUQFOY_clean_sbu_3, # of connection points: 4
#     Node 3, Type 0, BuildingBlock: QUQFOY_clean_sbu_3, # of connection points: 4
#     Node 4, Type 0, BuildingBlock: QUQFOY_clean_sbu_3, # of connection points: 4
#     Node 5, Type 0, BuildingBlock: QUQFOY_clean_sbu_3, # of connection points: 4
#     Node 6, Type 0, BuildingBlock: QUQFOY_clean_sbu_3, # of connection points: 4
#     Node 7, Type 0, BuildingBlock: QUQFOY_clean_sbu_3, # of connection points: 4
#     Node 8, Type 0, BuildingBlock: QUQFOY_clean_sbu_3, # of connection points: 4
#     Node 9, Type 0, BuildingBlock: QUQFOY_clean_sbu_3, # of connection points: 4
#     Node 10, Type 0, BuildingBlock: QUQFOY_clean_sbu_3, # of connection points: 4
#     Node 11, Type 0, BuildingBlock: QUQFOY_clean_sbu_3, # of connection points: 4
#     Edge 12, Type (0, 0), BuildingBlock: EYOCIG_clean_linker_4, # of connection points: 2
#     Edge 13, Type (0, 0), BuildingBlock: EYOCIG_clean_linker_4, # of connection points: 2
#     Edge 14, Type (0, 0), BuildingBlock: EYOCIG_clean_linker_4, # of connection points: 2
#     Edge 15, Type (0, 0), BuildingBlock: EYOCIG_clean_linker_4, # of connection points: 2
#     Edge 16, Type (0, 0), BuildingBlock: EYOCIG_clean_linker_4, # of connection points: 2
#     Edge 17, Type (0, 0), BuildingBlock: EYOCIG_clean_linker_4, # of connection points: 2
#     Edge 18, Type (0, 0), BuildingBlock: EYOCIG_clean_linker_4, # of connection points: 2
#     Edge 19, Type (0, 0), BuildingBlock: EYOCIG_clean_linker_4, # of connection points: 2
#     Edge 20, Type (0, 0), BuildingBlock: EYOCIG_clean_linker_4, # of connection points: 2
#     Edge 21, Type (0, 0), BuildingBlock: EYOCIG_clean_linker_4, # of connection points: 2
#     Edge 22, Type (0, 0), BuildingBlock: EYOCIG_clean_linker_4, # of connection points: 2
#     Edge 23, Type (0, 0), BuildingBlock: EYOCIG_clean_linker_4, # of connection points: 2
#     Edge 24, Type (0, 0), BuildingBlock: EYOCIG_clean_linker_4, # of connection points: 2
#     Edge 25, Type (0, 0), BuildingBlock: EYOCIG_clean_linker_4, # of connection points: 2
#     Edge 26, Type (0, 0), BuildingBlock: EYOCIG_clean_linker_4, # of connection points: 2
#     Edge 27, Type (0, 0), BuildingBlock: EYOCIG_clean_linker_4, # of connection points: 2
#     Edge 28, Type (0, 0), BuildingBlock: EYOCIG_clean_linker_4, # of connection points: 2
#     Edge 29, Type (0, 0), BuildingBlock: EYOCIG_clean_linker_4, # of connection points: 2
#     Edge 30, Type (0, 0), BuildingBlock: EYOCIG_clean_linker_4, # of connection points: 2
#     Edge 31, Type (0, 0), BuildingBlock: EYOCIG_clean_linker_4, # of connection points: 2
#     Edge 32, Type (0, 0), BuildingBlock: EYOCIG_clean_linker_4, # of connection points: 2
#     Edge 33, Type (0, 0), BuildingBlock: EYOCIG_clean_linker_4, # of connection points: 2
#     Edge 34, Type (0, 0), BuildingBlock: EYOCIG_clean_linker_4, # of connection points: 2
#     Edge 35, Type (0, 0), BuildingBlock: EYOCIG_clean_linker_4, # of connection points: 2
# Relax obj value: 0.156
# Max RMSD: 0.165
# Mean RMSD: 0.160
data_MOF--net-uop--node1-QUQFOY_clean_sbu_3--edge1-EYOCIG_clean_linker_4
_symmetry_space_group_name_H-M    P1
_symmetry_Int_Tables_number       1
_symmetry_cell_setting            triclinic
loop_
_symmetry_equiv_pos_as_xyz
'x, y, z'
_cell_length_a     26.205496
_cell_length_b     27.013744
_cell_length_c     39.794163
_cell_angle_alpha  89.961286
_cell_angle_beta   89.988699
_cell_angle_gamma 119.08614
loop_
_atom_site_label
_atom_site_type_symbol
_atom_site_fract_x
_atom_site_fract_y
_atom_site_fract_z
_atom_type_partial_charge
C0 C 0.10435 0.27948 0.14243 0.0
O1 O 0.12733 0.29889 0.114 0.0
Cd2 Cd 0.22395 0.37906 0.10823 0.0
O3 O 0.13171 0.30004 0.16963 0.0
Cd4 Cd 0.22642 0.36945 0.19124 0.0
C5 C 0.21307 0.47943 0.15754 0.0
O6 O 0.28379 0.36114 0.14561 0.0
O7 O 0.33 0.42702 0.18241 0.0
O8 O 0.21845 0.29398 0.22832 0.0
C9 C 0.3312 0.40246 0.1556 0.0
O10 O 0.21949 0.46233 0.12885 0.0
C11 C 0.2272 0.32212 0.25518 0.0
O12 O 0.21056 0.45253 0.18446 0.0
O13 O 0.23477 0.37214 0.25274 0.0
C14 C 0.88916 0.26589 0.57877 0.0
O15 O 0.86165 0.29256 0.58487 0.0
Cd16 Cd 0.80261 0.30593 0.54393 0.0
O17 O 0.88295 0.24045 0.55097 0.0
Cd18 Cd 0.8202 0.21879 0.50015 0.0
C19 C 0.89385 0.35061 0.47414 0.0
O20 O 0.73162 0.21734 0.52209 0.0
O21 O 0.74224 0.22287 0.46801 0.0
O22 O 0.78855 0.12222 0.51362 0.0
C23 C 0.71122 0.21869 0.49341 0.0
O24 O 0.86642 0.35896 0.49786 0.0
C25 C 0.80618 0.1103 0.48683 0.0
O26 O 0.89007 0.30244 0.4692 0.0
O27 O 0.83018 0.14889 0.46473 0.0
C28 C 0.66662 0.81708 0.80275 0.0
O29 O 0.64787 0.82224 0.7743 0.0
Cd30 Cd 0.56494 0.8376 0.76891 0.0
O31 O 0.64495 0.82315 0.82992 0.0
Cd32 Cd 0.57418 0.84944 0.85107 0.0
C33 C 0.46338 0.72763 0.81806 0.0
O34 O 0.58033 0.91317 0.80557 0.0
O35 O 0.50925 0.88675 0.84135 0.0
O36 O 0.65117 0.9191 0.88708 0.0
C37 C 0.53554 0.91532 0.81562 0.0
O38 O 0.48037 0.75083 0.78937 0.0
C39 C 0.62261 0.90152 0.91422 0.0
O40 O 0.49075 0.75182 0.84496 0.0
O41 O 0.57199 0.85852 0.91256 0.0
C42 C 0.81883 0.6696 0.14145 0.0
O43 O 0.79542 0.65048 0.11308 0.0
Cd44 Cd 0.6983 0.57107 0.10747 0.0
O45 O 0.79166 0.64919 0.16876 0.0
Cd46 Cd 0.69696 0.58036 0.19085 0.0
C47 C 0.70915 0.47017 0.15641 0.0
O48 O 0.63969 0.58942 0.14553 0.0
O49 O 0.59321 0.52342 0.18227 0.0
O50 O 0.70534 0.65554 0.22831 0.0
C51 C 0.59213 0.54829 0.15555 0.0
O52 O 0.7025 0.48746 0.12782 0.0
C53 C 0.69651 0.62705 0.25508 0.0
O54 O 0.71208 0.49698 0.18342 0.0
O55 O 0.68892 0.57706 0.25242 0.0
C56 C 0.03626 0.68657 0.57927 0.0
O57 O 0.06335 0.65951 0.58544 0.0
Cd58 Cd 0.1223 0.64534 0.54478 0.0
O59 O 0.04241 0.71168 0.55133 0.0
Cd60 Cd 0.10436 0.7317 0.50025 0.0
C61 C 0.0317 0.59942 0.47487 0.0
O62 O 0.19302 0.73365 0.5224 0.0
O63 O 0.18234 0.7274 0.46833 0.0
O64 O 0.13632 0.82867 0.51242 0.0
C65 C 0.21338 0.7319 0.49377 0.0
O66 O 0.05915 0.59146 0.49874 0.0
C67 C 0.11792 0.83961 0.48559 0.0
O68 O 0.03498 0.64736 0.46976 0.0
O69 O 0.09335 0.80026 0.46404 0.0
C70 C 0.25723 0.13313 0.80243 0.0
O71 O 0.27606 0.1278 0.77404 0.0
Cd72 Cd 0.35914 0.11264 0.76898 0.0
O73 O 0.27883 0.12724 0.82967 0.0
Cd74 Cd 0.3494 0.10109 0.85128 0.0
C75 C 0.46011 0.22298 0.8181 0.0
O76 O 0.3436 0.03737 0.80597 0.0
O77 O 0.4143 0.06354 0.84194 0.0
O78 O 0.27174 0.03167 0.88714 0.0
C79 C 0.38829 0.03517 0.81613 0.0
O80 O 0.44329 0.19963 0.78946 0.0
C81 C 0.30003 0.04908 0.91436 0.0
O82 O 0.43271 0.19882 0.84503 0.0
O83 O 0.35082 0.09188 0.91279 0.0
C84 C 0.59874 0.6853 0.39201 0.0
O85 O 0.5445 0.65906 0.38589 0.0
Cd86 Cd 0.47197 0.64567 0.42681 0.0
O87 O 0.61811 0.71034 0.41992 0.0
Cd88 Cd 0.57693 0.73154 0.47094 0.0
C89 C 0.51711 0.59944 0.49643 0.0
O90 O 0.49011 0.73392 0.44935 0.0
O91 O 0.4948 0.72668 0.50332 0.0
O92 O 0.64208 0.82853 0.45851 0.0
C93 C 0.46822 0.73179 0.47809 0.0
O94 O 0.48151 0.59168 0.4727 0.0
C95 C 0.67144 0.83964 0.48534 0.0
O96 O 0.562 0.64728 0.50148 0.0
O97 O 0.65674 0.80034 0.50695 0.0
C98 C 0.80085 0.67168 0.82892 0.0
O99 O 0.80501 0.65249 0.8573 0.0
Cd100 Cd 0.82102 0.57206 0.8627 0.0
O101 O 0.80702 0.6509 0.80166 0.0
Cd102 Cd 0.83183 0.58146 0.77978 0.0
C103 C 0.70862 0.4717 0.81393 0.0
O104 O 0.89805 0.589 0.82491 0.0
O105 O 0.87649 0.52279 0.78804 0.0
O106 O 0.90012 0.65706 0.743 0.0
C107 C 0.90307 0.54721 0.8147 0.0
O108 O 0.73266 0.48881 0.84251 0.0
C109 C 0.88041 0.62942 0.716 0.0
O110 O 0.73265 0.49857 0.78692 0.0
O111 O 0.83735 0.57962 0.71823 0.0
C112 C 0.0991 0.81566 0.16809 0.0
O113 O 0.12256 0.82114 0.19671 0.0
Cd114 Cd 0.22111 0.83745 0.20278 0.0
O115 O 0.12751 0.82221 0.14112 0.0
Cd116 Cd 0.22519 0.85001 0.12045 0.0
C117 C 0.21366 0.72805 0.15363 0.0
O118 O 0.28163 0.9133 0.16629 0.0
O119 O 0.32755 0.88827 0.13063 0.0
O120 O 0.21649 0.91938 0.08492 0.0
C121 C 0.32899 0.91605 0.15653 0.0
O122 O 0.21927 0.75103 0.18231 0.0
C123 C 0.22829 0.90289 0.05765 0.0
O124 O 0.21112 0.75244 0.12664 0.0
O125 O 0.23719 0.86068 0.05903 0.0
C126 C 0.32485 0.26446 0.39209 0.0
O127 O 0.37907 0.2912 0.38591 0.0
Cd128 Cd 0.45172 0.30524 0.42684 0.0
O129 O 0.30571 0.23934 0.42001 0.0
Cd130 Cd 0.34723 0.21845 0.47092 0.0
C131 C 0.40558 0.35036 0.4965 0.0
O132 O 0.43441 0.21698 0.44907 0.0
O133 O 0.42944 0.22306 0.50311 0.0
O134 O 0.28246 0.12182 0.45774 0.0
C135 C 0.45624 0.21866 0.47776 0.0
O136 O 0.4413 0.35861 0.47274 0.0
C137 C 0.25281 0.10995 0.48451 0.0
O138 O 0.3611 0.30222 0.50157 0.0
O139 O 0.2673 0.14861 0.5065 0.0
C140 C 0.12312 0.27856 0.8286 0.0
O141 O 0.11878 0.29744 0.85703 0.0
Cd142 Cd 0.10212 0.3774 0.86252 0.0
O143 O 0.11699 0.29957 0.80139 0.0
Cd144 Cd 0.09211 0.36925 0.77989 0.0
C145 C 0.21464 0.47901 0.81442 0.0
O146 O 0.02465 0.35983 0.82488 0.0
O147 O 0.04648 0.42693 0.78855 0.0
O148 O 0.02504 0.29459 0.74228 0.0
C149 C 0.0192 0.40147 0.81486 0.0
O150 O 0.19042 0.46148 0.84293 0.0
C151 C 0.0451 0.32315 0.71557 0.0
O152 O 0.19091 0.45236 0.78734 0.0
O153 O 0.08783 0.373 0.71834 0.0
C154 C 0.82434 0.13362 0.16863 0.0
O155 O 0.8007 0.12884 0.19713 0.0
Cd156 Cd 0.70237 0.11319 0.20286 0.0
O157 O 0.79629 0.12703 0.14151 0.0
Cd158 Cd 0.69887 0.10011 0.1206 0.0
C159 C 0.71002 0.2222 0.15313 0.0
O160 O 0.64213 0.03708 0.16657 0.0
O161 O 0.59651 0.06218 0.13075 0.0
O162 O 0.70632 0.03032 0.08483 0.0
C163 C 0.59487 0.03439 0.15671 0.0
O164 O 0.70421 0.19943 0.18192 0.0
C165 C 0.69494 0.0474 0.05764 0.0
O166 O 0.71289 0.19767 0.12631 0.0
O167 O 0.68696 0.09014 0.05916 0.0
C168 C 0.20916 0.62792 0.15412 0.0
C169 C 0.21095 0.67346 0.1523 0.0
C170 C 0.20887 0.57546 0.15736 0.0
C171 C 0.21048 0.53151 0.15907 0.0
C172 C 0.61165 0.2207 0.48722 0.0
C173 C 0.6571 0.21979 0.48998 0.0
C174 C 0.55783 0.22071 0.48405 0.0
C175 C 0.51146 0.21978 0.48126 0.0
C176 C 0.36736 0.62761 0.81797 0.0
C177 C 0.41131 0.67309 0.81956 0.0
C178 C 0.31499 0.57517 0.81495 0.0
C179 C 0.26938 0.53118 0.81324 0.0
C180 C 0.71363 0.37427 0.15604 0.0
C181 C 0.71188 0.41815 0.15772 0.0
C182 C 0.71374 0.32198 0.153 0.0
C183 C 0.71232 0.27659 0.15145 0.0
C184 C 0.36664 0.72965 0.48462 0.0
C185 C 0.41301 0.73061 0.48174 0.0
C186 C 0.31284 0.72968 0.48777 0.0
C187 C 0.26744 0.73069 0.49047 0.0
C188 C 0.55583 0.32323 0.8177 0.0
C189 C 0.51201 0.27766 0.81948 0.0
C190 C 0.60812 0.37571 0.81444 0.0
C191 C 0.65378 0.41964 0.81263 0.0
C192 C 0.49156 0.49517 0.12584 0.0
C193 C 0.54045 0.5247 0.13564 0.0
C194 C 0.43178 0.45606 0.12585 0.0
C195 C 0.38291 0.42635 0.13567 0.0
C196 C -0.02465 0.50469 0.44286 0.0
C197 C -0.00228 0.55221 0.45356 0.0
C198 C 0.95157 0.44557 0.44258 0.0
C199 C 0.92867 0.3978 0.45295 0.0
C200 C 0.44264 -0.01362 0.78893 0.0
C201 C 0.41265 0.00613 0.79796 0.0
C202 C 0.48167 0.96479 0.78875 0.0
C203 C 0.51157 0.94482 0.79755 0.0
C204 C 0.47866 0.50435 0.52808 0.0
C205 C 0.50392 0.55202 0.51757 0.0
C206 C 0.4432 0.44524 0.52813 0.0
C207 C 0.41823 0.39756 0.51767 0.0
C208 C 0.94972 0.49289 0.84385 0.0
C209 C 0.9308 0.52285 0.83422 0.0
C210 C -0.0296 0.45386 0.84387 0.0
C211 C -0.00982 0.4246 0.8343 0.0
C212 C 0.43155 0.96462 0.18445 0.0
C213 C 0.38189 0.94498 0.17521 0.0
C214 C 0.49216 -0.01406 0.1845 0.0
C215 C 0.54187 0.00553 0.17533 0.0
C216 C 0.24068 0.28258 0.31325 0.0
C217 C 0.23445 0.3003 0.28664 0.0
C218 C 0.25954 0.26874 0.34326 0.0
C219 C 0.28516 0.26398 0.3671 0.0
C220 C 0.95936 0.27082 0.62744 0.0
C221 C 0.92866 0.26581 0.6037 0.0
C222 C -0.00768 0.28461 0.65735 0.0
C223 C 0.01629 0.30205 0.68398 0.0
C224 C 0.66285 0.95838 0.97096 0.0
C225 C 0.64464 0.93254 0.94502 0.0
C226 C 0.67864 -0.00975 0.00105 0.0
C227 C 0.68612 0.01619 0.02693 0.0
C228 C 0.66361 0.67996 0.3432 0.0
C229 C 0.63816 0.68514 0.36701 0.0
C230 C 0.68253 0.66597 0.31325 0.0
C231 C 0.68896 0.64842 0.28663 0.0
C232 C -0.03303 0.68295 0.62814 0.0
C233 C -0.00274 0.68742 0.60428 0.0
C234 C 0.93411 0.66923 0.65811 0.0
C235 C 0.90986 0.65139 0.68464 0.0
C236 C 0.24364 0.9602 0.00117 0.0
C237 C 0.23657 0.93422 0.02703 0.0
C238 C 0.25925 -0.00789 0.97107 0.0
C239 C 0.27762 0.01793 0.94511 0.0
C240 C 0.93619 0.17058 0.16001 0.0
C241 C 0.88556 0.15356 0.16626 0.0
C242 C -0.00473 0.2017 0.15091 0.0
C243 C 0.04466 0.23675 0.14473 0.0
C244 C 0.78171 0.00449 0.48415 0.0
C245 C 0.7961 0.05392 0.48195 0.0
C246 C 0.75245 0.94551 0.48889 0.0
C247 C 0.71766 0.89593 0.4908 0.0
C248 C 0.76959 0.74937 0.82052 0.0
C249 C 0.78398 0.71442 0.82678 0.0
C250 C 0.74162 0.78036 0.81129 0.0
C251 C 0.70802 0.79732 0.80497 0.0
C252 C 0.92822 0.74663 0.14969 0.0
C253 C 0.87869 0.71195 0.14354 0.0
C254 C -0.01279 0.77773 0.15895 0.0
C255 C 0.03782 0.7952 0.16546 0.0
C256 C 0.14207 0.94518 0.48217 0.0
C257 C 0.12756 0.89572 0.48015 0.0
C258 C 0.17151 0.00409 0.48712 0.0
C259 C 0.20643 0.05356 0.48943 0.0
C260 C 0.15435 0.20091 0.82003 0.0
C261 C 0.13998 0.23583 0.82634 0.0
C262 C 0.18224 0.16988 0.81077 0.0
C263 C 0.21582 0.15288 0.80448 0.0
loop_
_geom_bond_atom_site_label_1
_geom_bond_atom_site_label_2
_geom_bond_distance
_geom_bond_site_symmetry_2
_ccdc_geom_bond_type
C0 O1 1.306 . S
C0 O3 1.160 . S
O1 C0 1.306 . S
O1 Cd2 2.228 . S
Cd2 O1 2.228 . S
Cd2 O6 2.273 . S
Cd2 O10 2.277 . S
O3 C0 1.160 . S
O3 Cd4 2.203 . S
Cd4 O3 2.203 . S
Cd4 O6 2.411 . S
Cd4 O7 2.333 . S
Cd4 O8 2.352 . S
Cd4 O12 2.277 . S
Cd4 O13 2.356 . S
C5 O10 1.209 . S
C5 O12 1.226 . S
O6 Cd2 2.273 . S
O6 Cd4 2.411 . S
O6 C9 1.320 . S
O7 Cd4 2.333 . S
O7 C9 1.214 . S
O8 Cd4 2.352 . S
O8 C11 1.258 . S
C9 O6 1.320 . S
C9 O7 1.214 . S
O10 Cd2 2.277 . S
O10 C5 1.209 . S
C11 O8 1.258 . S
C11 O13 1.282 . S
O12 Cd4 2.277 . S
O12 C5 1.226 . S
O13 Cd4 2.356 . S
O13 C11 1.282 . S
C14 O15 1.306 . S
C14 O17 1.160 . S
O15 C14 1.306 . S
O15 Cd16 2.228 . S
Cd16 O15 2.228 . S
Cd16 O20 2.273 . S
Cd16 O24 2.277 . S
O17 C14 1.160 . S
O17 Cd18 2.203 . S
Cd18 O17 2.203 . S
Cd18 O20 2.411 . S
Cd18 O21 2.333 . S
Cd18 O22 2.352 . S
Cd18 O26 2.277 . S
Cd18 O27 2.356 . S
C19 O24 1.209 . S
C19 O26 1.226 . S
O20 Cd16 2.273 . S
O20 Cd18 2.411 . S
O20 C23 1.320 . S
O21 Cd18 2.333 . S
O21 C23 1.214 . S
O22 Cd18 2.352 . S
O22 C25 1.258 . S
C23 O20 1.320 . S
C23 O21 1.214 . S
O24 Cd16 2.277 . S
O24 C19 1.209 . S
C25 O22 1.258 . S
C25 O27 1.282 . S
O26 Cd18 2.277 . S
O26 C19 1.226 . S
O27 Cd18 2.356 . S
O27 C25 1.282 . S
C28 O29 1.306 . S
C28 O31 1.160 . S
O29 C28 1.306 . S
O29 Cd30 2.228 . S
Cd30 O29 2.228 . S
Cd30 O34 2.273 . S
Cd30 O38 2.277 . S
O31 C28 1.160 . S
O31 Cd32 2.203 . S
Cd32 O31 2.203 . S
Cd32 O34 2.411 . S
Cd32 O35 2.333 . S
Cd32 O36 2.352 . S
Cd32 O40 2.277 . S
Cd32 O41 2.356 . S
C33 O38 1.209 . S
C33 O40 1.226 . S
O34 Cd30 2.273 . S
O34 Cd32 2.411 . S
O34 C37 1.320 . S
O35 Cd32 2.333 . S
O35 C37 1.214 . S
O36 Cd32 2.352 . S
O36 C39 1.258 . S
C37 O34 1.320 . S
C37 O35 1.214 . S
O38 Cd30 2.277 . S
O38 C33 1.209 . S
C39 O36 1.258 . S
C39 O41 1.282 . S
O40 Cd32 2.277 . S
O40 C33 1.226 . S
O41 Cd32 2.356 . S
O41 C39 1.282 . S
C42 O43 1.306 . S
C42 O45 1.160 . S
O43 C42 1.306 . S
O43 Cd44 2.228 . S
Cd44 O43 2.228 . S
Cd44 O48 2.273 . S
Cd44 O52 2.277 . S
O45 C42 1.160 . S
O45 Cd46 2.203 . S
Cd46 O45 2.203 . S
Cd46 O48 2.411 . S
Cd46 O49 2.333 . S
Cd46 O50 2.352 . S
Cd46 O54 2.277 . S
Cd46 O55 2.356 . S
C47 O52 1.209 . S
C47 O54 1.226 . S
O48 Cd44 2.273 . S
O48 Cd46 2.411 . S
O48 C51 1.320 . S
O49 Cd46 2.333 . S
O49 C51 1.214 . S
O50 Cd46 2.352 . S
O50 C53 1.258 . S
C51 O48 1.320 . S
C51 O49 1.214 . S
O52 Cd44 2.277 . S
O52 C47 1.209 . S
C53 O50 1.258 . S
C53 O55 1.282 . S
O54 Cd46 2.277 . S
O54 C47 1.226 . S
O55 Cd46 2.356 . S
O55 C53 1.282 . S
C56 O57 1.306 . S
C56 O59 1.160 . S
O57 C56 1.306 . S
O57 Cd58 2.228 . S
Cd58 O57 2.228 . S
Cd58 O62 2.273 . S
Cd58 O66 2.277 . S
O59 C56 1.160 . S
O59 Cd60 2.203 . S
Cd60 O59 2.203 . S
Cd60 O62 2.411 . S
Cd60 O63 2.333 . S
Cd60 O64 2.352 . S
Cd60 O68 2.277 . S
Cd60 O69 2.356 . S
C61 O66 1.209 . S
C61 O68 1.226 . S
O62 Cd58 2.273 . S
O62 Cd60 2.411 . S
O62 C65 1.320 . S
O63 Cd60 2.333 . S
O63 C65 1.214 . S
O64 Cd60 2.352 . S
O64 C67 1.258 . S
C65 O62 1.320 . S
C65 O63 1.214 . S
O66 Cd58 2.277 . S
O66 C61 1.209 . S
C67 O64 1.258 . S
C67 O69 1.282 . S
O68 Cd60 2.277 . S
O68 C61 1.226 . S
O69 Cd60 2.356 . S
O69 C67 1.282 . S
C70 O71 1.306 . S
C70 O73 1.160 . S
O71 C70 1.306 . S
O71 Cd72 2.228 . S
Cd72 O71 2.228 . S
Cd72 O76 2.273 . S
Cd72 O80 2.277 . S
O73 C70 1.160 . S
O73 Cd74 2.203 . S
Cd74 O73 2.203 . S
Cd74 O76 2.411 . S
Cd74 O77 2.333 . S
Cd74 O78 2.352 . S
Cd74 O82 2.277 . S
Cd74 O83 2.356 . S
C75 O80 1.209 . S
C75 O82 1.226 . S
O76 Cd72 2.273 . S
O76 Cd74 2.411 . S
O76 C79 1.320 . S
O77 Cd74 2.333 . S
O77 C79 1.214 . S
O78 Cd74 2.352 . S
O78 C81 1.258 . S
C79 O76 1.320 . S
C79 O77 1.214 . S
O80 Cd72 2.277 . S
O80 C75 1.209 . S
C81 O78 1.258 . S
C81 O83 1.282 . S
O82 Cd74 2.277 . S
O82 C75 1.226 . S
O83 Cd74 2.356 . S
O83 C81 1.282 . S
C84 O85 1.306 . S
C84 O87 1.160 . S
O85 C84 1.306 . S
O85 Cd86 2.228 . S
Cd86 O85 2.228 . S
Cd86 O90 2.273 . S
Cd86 O94 2.277 . S
O87 C84 1.160 . S
O87 Cd88 2.203 . S
Cd88 O87 2.203 . S
Cd88 O90 2.411 . S
Cd88 O91 2.333 . S
Cd88 O92 2.352 . S
Cd88 O96 2.277 . S
Cd88 O97 2.356 . S
C89 O94 1.209 . S
C89 O96 1.226 . S
O90 Cd86 2.273 . S
O90 Cd88 2.411 . S
O90 C93 1.320 . S
O91 Cd88 2.333 . S
O91 C93 1.214 . S
O92 Cd88 2.352 . S
O92 C95 1.258 . S
C93 O90 1.320 . S
C93 O91 1.214 . S
O94 Cd86 2.277 . S
O94 C89 1.209 . S
C95 O92 1.258 . S
C95 O97 1.282 . S
O96 Cd88 2.277 . S
O96 C89 1.226 . S
O97 Cd88 2.356 . S
O97 C95 1.282 . S
C98 O99 1.306 . S
C98 O101 1.160 . S
O99 C98 1.306 . S
O99 Cd100 2.228 . S
Cd100 O99 2.228 . S
Cd100 O104 2.273 . S
Cd100 O108 2.277 . S
O101 C98 1.160 . S
O101 Cd102 2.203 . S
Cd102 O101 2.203 . S
Cd102 O104 2.411 . S
Cd102 O105 2.333 . S
Cd102 O106 2.352 . S
Cd102 O110 2.277 . S
Cd102 O111 2.356 . S
C103 O108 1.209 . S
C103 O110 1.226 . S
O104 Cd100 2.273 . S
O104 Cd102 2.411 . S
O104 C107 1.320 . S
O105 Cd102 2.333 . S
O105 C107 1.214 . S
O106 Cd102 2.352 . S
O106 C109 1.258 . S
C107 O104 1.320 . S
C107 O105 1.214 . S
O108 Cd100 2.277 . S
O108 C103 1.209 . S
C109 O106 1.258 . S
C109 O111 1.282 . S
O110 Cd102 2.277 . S
O110 C103 1.226 . S
O111 Cd102 2.356 . S
O111 C109 1.282 . S
C112 O113 1.306 . S
C112 O115 1.160 . S
O113 C112 1.306 . S
O113 Cd114 2.228 . S
Cd114 O113 2.228 . S
Cd114 O118 2.273 . S
Cd114 O122 2.277 . S
O115 C112 1.160 . S
O115 Cd116 2.203 . S
Cd116 O115 2.203 . S
Cd116 O118 2.411 . S
Cd116 O119 2.333 . S
Cd116 O120 2.352 . S
Cd116 O124 2.277 . S
Cd116 O125 2.356 . S
C117 O122 1.209 . S
C117 O124 1.226 . S
O118 Cd114 2.273 . S
O118 Cd116 2.411 . S
O118 C121 1.320 . S
O119 Cd116 2.333 . S
O119 C121 1.214 . S
O120 Cd116 2.352 . S
O120 C123 1.258 . S
C121 O118 1.320 . S
C121 O119 1.214 . S
O122 Cd114 2.277 . S
O122 C117 1.209 . S
C123 O120 1.258 . S
C123 O125 1.282 . S
O124 Cd116 2.277 . S
O124 C117 1.226 . S
O125 Cd116 2.356 . S
O125 C123 1.282 . S
C126 O127 1.306 . S
C126 O129 1.160 . S
O127 C126 1.306 . S
O127 Cd128 2.228 . S
Cd128 O127 2.228 . S
Cd128 O132 2.273 . S
Cd128 O136 2.277 . S
O129 C126 1.160 . S
O129 Cd130 2.203 . S
Cd130 O129 2.203 . S
Cd130 O132 2.411 . S
Cd130 O133 2.333 . S
Cd130 O134 2.352 . S
Cd130 O138 2.277 . S
Cd130 O139 2.356 . S
C131 O136 1.209 . S
C131 O138 1.226 . S
O132 Cd128 2.273 . S
O132 Cd130 2.411 . S
O132 C135 1.320 . S
O133 Cd130 2.333 . S
O133 C135 1.214 . S
O134 Cd130 2.352 . S
O134 C137 1.258 . S
C135 O132 1.320 . S
C135 O133 1.214 . S
O136 Cd128 2.277 . S
O136 C131 1.209 . S
C137 O134 1.258 . S
C137 O139 1.282 . S
O138 Cd130 2.277 . S
O138 C131 1.226 . S
O139 Cd130 2.356 . S
O139 C137 1.282 . S
C140 O141 1.306 . S
C140 O143 1.160 . S
O141 C140 1.306 . S
O141 Cd142 2.228 . S
Cd142 O141 2.228 . S
Cd142 O146 2.273 . S
Cd142 O150 2.277 . S
O143 C140 1.160 . S
O143 Cd144 2.203 . S
Cd144 O143 2.203 . S
Cd144 O146 2.411 . S
Cd144 O147 2.333 . S
Cd144 O148 2.352 . S
Cd144 O152 2.277 . S
Cd144 O153 2.356 . S
C145 O150 1.209 . S
C145 O152 1.226 . S
O146 Cd142 2.273 . S
O146 Cd144 2.411 . S
O146 C149 1.320 . S
O147 Cd144 2.333 . S
O147 C149 1.214 . S
O148 Cd144 2.352 . S
O148 C151 1.258 . S
C149 O146 1.320 . S
C149 O147 1.214 . S
O150 Cd142 2.277 . S
O150 C145 1.209 . S
C151 O148 1.258 . S
C151 O153 1.282 . S
O152 Cd144 2.277 . S
O152 C145 1.226 . S
O153 Cd144 2.356 . S
O153 C151 1.282 . S
C154 O155 1.306 . S
C154 O157 1.160 . S
O155 C154 1.306 . S
O155 Cd156 2.228 . S
Cd156 O155 2.228 . S
Cd156 O160 2.273 . S
Cd156 O164 2.277 . S
O157 C154 1.160 . S
O157 Cd158 2.203 . S
Cd158 O157 2.203 . S
Cd158 O160 2.411 . S
Cd158 O161 2.333 . S
Cd158 O162 2.352 . S
Cd158 O166 2.277 . S
Cd158 O167 2.356 . S
C159 O164 1.209 . S
C159 O166 1.226 . S
O160 Cd156 2.273 . S
O160 Cd158 2.411 . S
O160 C163 1.320 . S
O161 Cd158 2.333 . S
O161 C163 1.214 . S
O162 Cd158 2.352 . S
O162 C165 1.258 . S
C163 O160 1.320 . S
C163 O161 1.214 . S
O164 Cd156 2.277 . S
O164 C159 1.209 . S
C165 O162 1.258 . S
C165 O167 1.282 . S
O166 Cd158 2.277 . S
O166 C159 1.226 . S
O167 Cd158 2.356 . S
O167 C165 1.282 . S
C168 C169 1.170 . S
C168 C170 1.380 . S
C169 C168 1.170 . S
C170 C168 1.380 . S
C170 C171 1.170 . S
C171 C170 1.170 . S
C172 C173 1.170 . S
C172 C174 1.380 . S
C173 C172 1.170 . S
C174 C172 1.380 . S
C174 C175 1.170 . S
C175 C174 1.170 . S
C176 C177 1.170 . S
C176 C178 1.380 . S
C177 C176 1.170 . S
C178 C176 1.380 . S
C178 C179 1.170 . S
C179 C178 1.170 . S
C180 C181 1.170 . S
C180 C182 1.380 . S
C181 C180 1.170 . S
C182 C180 1.380 . S
C182 C183 1.170 . S
C183 C182 1.170 . S
C184 C185 1.170 . S
C184 C186 1.380 . S
C185 C184 1.170 . S
C186 C184 1.380 . S
C186 C187 1.170 . S
C187 C186 1.170 . S
C188 C189 1.170 . S
C188 C190 1.380 . S
C189 C188 1.170 . S
C190 C188 1.380 . S
C190 C191 1.170 . S
C191 C190 1.170 . S
C192 C193 1.170 . S
C192 C194 1.380 . S
C193 C192 1.170 . S
C194 C192 1.380 . S
C194 C195 1.170 . S
C195 C194 1.170 . S
C196 C197 1.170 . S
C196 C198 1.380 1_455 S
C197 C196 1.170 . S
C198 C196 1.380 1_655 S
C198 C199 1.170 . S
C199 C198 1.170 . S
C200 C201 1.170 . S
C200 C202 1.380 1_545 S
C201 C200 1.170 . S
C202 C200 1.380 1_565 S
C202 C203 1.170 . S
C203 C202 1.170 . S
C204 C205 1.170 . S
C204 C206 1.380 . S
C205 C204 1.170 . S
C206 C204 1.380 . S
C206 C207 1.170 . S
C207 C206 1.170 . S
C208 C209 1.170 . S
C208 C210 1.380 1_655 S
C209 C208 1.170 . S
C210 C208 1.380 1_455 S
C210 C211 1.170 . S
C211 C210 1.170 . S
C212 C213 1.170 . S
C212 C214 1.380 1_565 S
C213 C212 1.170 . S
C214 C212 1.380 1_545 S
C214 C215 1.170 . S
C215 C214 1.170 . S
C216 C217 1.170 . S
C216 C218 1.380 . S
C217 C216 1.170 . S
C218 C216 1.380 . S
C218 C219 1.170 . S
C219 C218 1.170 . S
C220 C221 1.170 . S
C220 C222 1.380 1_655 S
C221 C220 1.170 . S
C222 C220 1.380 1_455 S
C222 C223 1.170 . S
C223 C222 1.170 . S
C224 C225 1.170 . S
C224 C226 1.380 1_566 S
C225 C224 1.170 . S
C226 C224 1.380 1_544 S
C226 C227 1.170 . S
C227 C226 1.170 . S
C228 C229 1.170 . S
C228 C230 1.380 . S
C229 C228 1.170 . S
C230 C228 1.380 . S
C230 C231 1.170 . S
C231 C230 1.170 . S
C232 C233 1.170 . S
C232 C234 1.380 1_455 S
C233 C232 1.170 . S
C234 C232 1.380 1_655 S
C234 C235 1.170 . S
C235 C234 1.170 . S
C236 C237 1.170 . S
C236 C238 1.380 1_564 S
C237 C236 1.170 . S
C238 C236 1.380 1_546 S
C238 C239 1.170 . S
C239 C238 1.170 . S
C240 C241 1.170 . S
C240 C242 1.380 1_655 S
C241 C240 1.170 . S
C242 C240 1.380 1_455 S
C242 C243 1.170 . S
C243 C242 1.170 . S
C244 C245 1.170 . S
C244 C246 1.380 1_545 S
C245 C244 1.170 . S
C246 C244 1.380 1_565 S
C246 C247 1.170 . S
C247 C246 1.170 . S
C248 C249 1.170 . S
C248 C250 1.380 . S
C249 C248 1.170 . S
C250 C248 1.380 . S
C250 C251 1.170 . S
C251 C250 1.170 . S
C252 C253 1.170 . S
C252 C254 1.380 1_655 S
C253 C252 1.170 . S
C254 C252 1.380 1_455 S
C254 C255 1.170 . S
C255 C254 1.170 . S
C256 C257 1.170 . S
C256 C258 1.380 1_565 S
C257 C256 1.170 . S
C258 C256 1.380 1_545 S
C258 C259 1.170 . S
C259 C258 1.170 . S
C260 C261 1.170 . S
C260 C262 1.380 . S
C261 C260 1.170 . S
C262 C260 1.380 . S
C262 C263 1.170 . S
C263 C262 1.170 . S
C169 C117 1.765 . S
C171 C5 1.757 . S
C173 C23 1.710 . S
C175 C135 1.710 . S
C177 C33 1.758 . S
C179 C145 1.766 . S
C181 C47 1.766 . S
C183 C159 1.758 . S
C185 C93 1.711 . S
C187 C65 1.711 . S
C189 C75 1.758 . S
C191 C103 1.766 . S
C193 C51 1.138 . S
C195 C9 1.131 . S
C197 C61 1.083 . S
C199 C19 1.131 . S
C201 C79 1.214 . S
C203 C37 1.216 . S
C205 C89 1.093 . S
C207 C131 1.114 . S
C209 C107 1.085 . S
C211 C149 1.118 . S
C213 C121 1.250 . S
C215 C163 1.248 . S
C217 C11 1.555 . S
C219 C126 1.552 . S
C221 C14 1.542 . S
C223 C151 1.546 . S
C225 C39 1.552 . S
C227 C165 1.551 . S
C229 C84 1.540 . S
C231 C53 1.544 . S
C233 C56 1.556 . S
C235 C109 1.555 . S
C237 C123 1.568 . S
C239 C81 1.569 . S
C241 C154 1.403 . S
C243 C0 1.391 . S
C245 C25 1.300 . S
C247 C95 1.327 . S
C249 C98 1.398 . S
C251 C28 1.399 . S
C253 C42 1.406 . S
C255 C112 1.364 . S
C257 C67 1.322 . S
C259 C137 1.303 . S
C261 C140 1.398 . S
C263 C70 1.399 . S
