# Generated by pormake.
# Topology zfp, (5)-cn, num edge types: 1
# Building blocks:
#     Node 0, Type 0, BuildingBlock: XOMCOT_clean_sbu_1, # of connection points: 5
#     Node 1, Type 0, BuildingBlock: XOMCOT_clean_sbu_1, # of connection points: 5
#     Node 2, Type 0, BuildingBlock: XOMCOT_clean_sbu_1, # of connection points: 5
#     Node 3, Type 0, BuildingBlock: XOMCOT_clean_sbu_1, # of connection points: 5
#     Node 4, Type 0, BuildingBlock: XOMCOT_clean_sbu_1, # of connection points: 5
#     Node 5, Type 0, BuildingBlock: XOMCOT_clean_sbu_1, # of connection points: 5
#     Node 6, Type 0, BuildingBlock: XOMCOT_clean_sbu_1, # of connection points: 5
#     Node 7, Type 0, BuildingBlock: XOMCOT_clean_sbu_1, # of connection points: 5
#     Node 8, Type 0, BuildingBlock: XOMCOT_clean_sbu_1, # of connection points: 5
#     Node 9, Type 0, BuildingBlock: XOMCOT_clean_sbu_1, # of connection points: 5
#     Node 10, Type 0, BuildingBlock: XOMCOT_clean_sbu_1, # of connection points: 5
#     Node 11, Type 0, BuildingBlock: XOMCOT_clean_sbu_1, # of connection points: 5
#     Node 12, Type 0, BuildingBlock: XOMCOT_clean_sbu_1, # of connection points: 5
#     Node 13, Type 0, BuildingBlock: XOMCOT_clean_sbu_1, # of connection points: 5
#     Node 14, Type 0, BuildingBlock: XOMCOT_clean_sbu_1, # of connection points: 5
#     Node 15, Type 0, BuildingBlock: XOMCOT_clean_sbu_1, # of connection points: 5
#     Edge 16, Type (0, 0), BuildingBlock: EZIPEK_clean_linker_0, # of connection points: 2
#     Edge 17, Type (0, 0), BuildingBlock: EZIPEK_clean_linker_0, # of connection points: 2
#     Edge 18, Type (0, 0), BuildingBlock: EZIPEK_clean_linker_0, # of connection points: 2
#     Edge 19, Type (0, 0), BuildingBlock: EZIPEK_clean_linker_0, # of connection points: 2
#     Edge 20, Type (0, 0), BuildingBlock: EZIPEK_clean_linker_0, # of connection points: 2
#     Edge 21, Type (0, 0), BuildingBlock: EZIPEK_clean_linker_0, # of connection points: 2
#     Edge 22, Type (0, 0), BuildingBlock: EZIPEK_clean_linker_0, # of connection points: 2
#     Edge 23, Type (0, 0), BuildingBlock: EZIPEK_clean_linker_0, # of connection points: 2
#     Edge 24, Type (0, 0), BuildingBlock: EZIPEK_clean_linker_0, # of connection points: 2
#     Edge 25, Type (0, 0), BuildingBlock: EZIPEK_clean_linker_0, # of connection points: 2
#     Edge 26, Type (0, 0), BuildingBlock: EZIPEK_clean_linker_0, # of connection points: 2
#     Edge 27, Type (0, 0), BuildingBlock: EZIPEK_clean_linker_0, # of connection points: 2
#     Edge 28, Type (0, 0), BuildingBlock: EZIPEK_clean_linker_0, # of connection points: 2
#     Edge 29, Type (0, 0), BuildingBlock: EZIPEK_clean_linker_0, # of connection points: 2
#     Edge 30, Type (0, 0), BuildingBlock: EZIPEK_clean_linker_0, # of connection points: 2
#     Edge 31, Type (0, 0), BuildingBlock: EZIPEK_clean_linker_0, # of connection points: 2
#     Edge 32, Type (0, 0), BuildingBlock: EZIPEK_clean_linker_0, # of connection points: 2
#     Edge 33, Type (0, 0), BuildingBlock: EZIPEK_clean_linker_0, # of connection points: 2
#     Edge 34, Type (0, 0), BuildingBlock: EZIPEK_clean_linker_0, # of connection points: 2
#     Edge 35, Type (0, 0), BuildingBlock: EZIPEK_clean_linker_0, # of connection points: 2
#     Edge 36, Type (0, 0), BuildingBlock: EZIPEK_clean_linker_0, # of connection points: 2
#     Edge 37, Type (0, 0), BuildingBlock: EZIPEK_clean_linker_0, # of connection points: 2
#     Edge 38, Type (0, 0), BuildingBlock: EZIPEK_clean_linker_0, # of connection points: 2
#     Edge 39, Type (0, 0), BuildingBlock: EZIPEK_clean_linker_0, # of connection points: 2
#     Edge 40, Type (0, 0), BuildingBlock: EZIPEK_clean_linker_0, # of connection points: 2
#     Edge 41, Type (0, 0), BuildingBlock: EZIPEK_clean_linker_0, # of connection points: 2
#     Edge 42, Type (0, 0), BuildingBlock: EZIPEK_clean_linker_0, # of connection points: 2
#     Edge 43, Type (0, 0), BuildingBlock: EZIPEK_clean_linker_0, # of connection points: 2
#     Edge 44, Type (0, 0), BuildingBlock: EZIPEK_clean_linker_0, # of connection points: 2
#     Edge 45, Type (0, 0), BuildingBlock: EZIPEK_clean_linker_0, # of connection points: 2
#     Edge 46, Type (0, 0), BuildingBlock: EZIPEK_clean_linker_0, # of connection points: 2
#     Edge 47, Type (0, 0), BuildingBlock: EZIPEK_clean_linker_0, # of connection points: 2
#     Edge 48, Type (0, 0), BuildingBlock: EZIPEK_clean_linker_0, # of connection points: 2
#     Edge 49, Type (0, 0), BuildingBlock: EZIPEK_clean_linker_0, # of connection points: 2
#     Edge 50, Type (0, 0), BuildingBlock: EZIPEK_clean_linker_0, # of connection points: 2
#     Edge 51, Type (0, 0), BuildingBlock: EZIPEK_clean_linker_0, # of connection points: 2
#     Edge 52, Type (0, 0), BuildingBlock: EZIPEK_clean_linker_0, # of connection points: 2
#     Edge 53, Type (0, 0), BuildingBlock: EZIPEK_clean_linker_0, # of connection points: 2
#     Edge 54, Type (0, 0), BuildingBlock: EZIPEK_clean_linker_0, # of connection points: 2
#     Edge 55, Type (0, 0), BuildingBlock: EZIPEK_clean_linker_0, # of connection points: 2
# Relax obj value: 0.311
# Max RMSD: 0.224
# Mean RMSD: 0.224
data_MOF--net-zfp--node1-XOMCOT_clean_sbu_1--edge1-EZIPEK_clean_linker_0
_symmetry_space_group_name_H-M    P1
_symmetry_Int_Tables_number       1
_symmetry_cell_setting            triclinic
loop_
_symmetry_equiv_pos_as_xyz
'x, y, z'
_cell_length_a     22.509242
_cell_length_b     22.652751
_cell_length_c     53.799041
_cell_angle_alpha  90.043603
_cell_angle_beta   89.866311
_cell_angle_gamma 90.07685
loop_
_atom_site_label
_atom_site_type_symbol
_atom_site_fract_x
_atom_site_fract_y
_atom_site_fract_z
_atom_type_partial_charge
C0 C 0.25874 0.28207 0.09782 0.0
C1 C 0.25801 0.26202 0.07386 0.0
N2 N 0.22309 0.21409 0.07289 0.0
N3 N 0.2246 0.24694 0.11233 0.0
C4 C 0.20336 0.20538 0.09644 0.0
H5 H 0.2803 0.32203 0.10374 0.0
Co6 Co 0.20944 0.25951 0.14665 0.0
C7 C 0.09135 0.19724 0.1488 0.0
O8 O 0.11536 0.14845 0.15729 0.0
N9 N 0.19549 0.26858 0.18108 0.0
C10 C 0.15353 0.29238 0.21717 0.0
C11 C 0.14615 0.29091 0.19189 0.0
C12 C 0.2309 0.25369 0.20042 0.0
N13 N 0.20684 0.26893 0.22266 0.0
O14 O 0.29629 0.2786 0.15127 0.0
H15 H 0.10763 0.30663 0.18196 0.0
H16 H 0.27388 0.23291 0.19825 0.0
O17 O 0.12491 0.24027 0.1427 0.0
C18 C 0.33114 0.32323 0.14865 0.0
O19 O 0.30961 0.37463 0.14204 0.0
N20 N 0.18533 0.33999 0.14019 0.0
C21 C 0.10846 0.43629 0.13783 0.0
C22 C 0.10952 0.3949 0.11878 0.0
C23 C 0.148 0.34733 0.12029 0.0
C24 C 0.18999 0.38445 0.15737 0.0
C25 C 0.15109 0.43283 0.15674 0.0
H26 H 0.14195 0.31315 0.10665 0.0
H27 H 0.21953 0.3799 0.17308 0.0
H28 H 0.17187 0.17145 0.1017 0.0
H29 H 0.27869 0.28304 0.05796 0.0
H30 H 0.12211 0.30961 0.2306 0.0
H31 H 0.07719 0.3965 0.10389 0.0
H32 H 0.15156 0.46485 0.17169 0.0
C33 C 0.77116 0.25622 0.59623 0.0
C34 C 0.78734 0.2495 0.57193 0.0
N35 N 0.81717 0.19874 0.56966 0.0
N36 N 0.79046 0.2099 0.60994 0.0
C37 C 0.81962 0.17573 0.59293 0.0
H38 H 0.74418 0.29204 0.60254 0.0
Co39 Co 0.77394 0.19515 0.64472 0.0
C40 C 0.76271 0.06256 0.64075 0.0
O41 O 0.70524 0.06474 0.64465 0.0
N42 N 0.7634 0.18243 0.67978 0.0
C43 C 0.7434 0.14519 0.71733 0.0
C44 C 0.74679 0.13335 0.69246 0.0
C45 C 0.77172 0.22319 0.69806 0.0
N46 N 0.75859 0.20171 0.7209 0.0
O47 O 0.75686 0.27967 0.64988 0.0
H48 H 0.73634 0.09106 0.68485 0.0
H49 H 0.78631 0.26804 0.69479 0.0
O50 O 0.79409 0.10996 0.64015 0.0
C51 C 0.71326 0.31466 0.64596 0.0
O52 O 0.66438 0.29497 0.63558 0.0
N53 N 0.69104 0.17912 0.63776 0.0
C54 C 0.57633 0.13125 0.62982 0.0
C55 C 0.61947 0.13311 0.61084 0.0
C56 C 0.67512 0.15744 0.615 0.0
C57 C 0.6485 0.18288 0.6559 0.0
C58 C 0.59224 0.15795 0.65262 0.0
H59 H 0.70689 0.15116 0.60043 0.0
H60 H 0.65804 0.20329 0.67357 0.0
H61 H 0.83928 0.13336 0.59715 0.0
H62 H 0.77549 0.27841 0.5567 0.0
H63 H 0.73019 0.11465 0.73181 0.0
H64 H 0.61455 0.11092 0.5933 0.0
H65 H 0.56406 0.15672 0.66882 0.0
C66 C 0.77071 0.8196 0.11014 0.0
C67 C 0.77248 0.8218 0.08474 0.0
N68 N 0.82326 0.79658 0.07717 0.0
N69 N 0.81961 0.79205 0.11882 0.0
C70 C 0.85166 0.77913 0.09808 0.0
H71 H 0.73631 0.83858 0.1217 0.0
Co72 Co 0.83106 0.7903 0.15335 0.0
C73 C 0.96428 0.82098 0.16077 0.0
O74 O 0.96094 0.82132 0.18512 0.0
N75 N 0.83776 0.79653 0.18803 0.0
C76 C 0.83759 0.84591 0.22392 0.0
C77 C 0.84375 0.85037 0.19855 0.0
C78 C 0.82531 0.76024 0.2074 0.0
N79 N 0.82582 0.78926 0.22933 0.0
O80 O 0.74564 0.76793 0.15798 0.0
H81 H 0.85081 0.89072 0.1882 0.0
H82 H 0.81478 0.71389 0.20558 0.0
O83 O 0.91704 0.81299 0.14772 0.0
C84 C 0.71661 0.72221 0.16522 0.0
O85 O 0.7449 0.67444 0.17221 0.0
N86 N 0.85663 0.70928 0.15273 0.0
C87 C 0.91818 0.60391 0.14496 0.0
C88 C 0.86736 0.6167 0.13097 0.0
C89 C 0.83731 0.67012 0.13506 0.0
C90 C 0.90246 0.69344 0.16801 0.0
C91 C 0.93387 0.64155 0.16432 0.0
H92 H 0.80002 0.68097 0.12332 0.0
H93 H 0.91843 0.72237 0.18229 0.0
H94 H 0.89487 0.75844 0.09821 0.0
H95 H 0.73957 0.84145 0.07266 0.0
H96 H 0.83975 0.88156 0.2373 0.0
H97 H 0.85313 0.58741 0.11622 0.0
H98 H 0.97223 0.63231 0.17583 0.0
C99 C 0.2794 0.77953 0.59806 0.0
C100 C 0.25941 0.77621 0.57424 0.0
N101 N 0.20498 0.7998 0.5735 0.0
N102 N 0.23829 0.80563 0.61283 0.0
C103 C 0.19217 0.81627 0.59718 0.0
H104 H 0.32332 0.76681 0.60375 0.0
Co105 Co 0.25461 0.82015 0.64716 0.0
C106 C 0.20188 0.94749 0.63384 0.0
O107 O 0.19229 0.93829 0.61019 0.0
N108 N 0.26993 0.83216 0.68116 0.0
C109 C 0.30649 0.86914 0.71618 0.0
C110 C 0.30203 0.87664 0.69109 0.0
C111 C 0.25181 0.80026 0.70107 0.0
N112 N 0.27456 0.8213 0.72268 0.0
O113 O 0.28017 0.73432 0.64998 0.0
H114 H 0.32119 0.91275 0.68071 0.0
H115 H 0.22276 0.76229 0.69969 0.0
O116 O 0.22494 0.90527 0.64659 0.0
C117 C 0.32427 0.69911 0.64635 0.0
O118 O 0.37538 0.71971 0.63842 0.0
N119 N 0.33245 0.84996 0.63833 0.0
C120 C 0.42546 0.93005 0.63318 0.0
C121 C 0.37693 0.93223 0.6173 0.0
C122 C 0.33166 0.89168 0.61995 0.0
C123 C 0.38362 0.84182 0.65169 0.0
C124 C 0.43099 0.88212 0.64952 0.0
H125 H 0.29364 0.89765 0.60825 0.0
H126 H 0.3853 0.80891 0.66622 0.0
H127 H 0.15114 0.83737 0.60271 0.0
H128 H 0.28436 0.76092 0.55825 0.0
H129 H 0.33087 0.8973 0.72885 0.0
H130 H 0.37196 0.96774 0.60396 0.0
H131 H 0.46889 0.87874 0.6618 0.0
C132 C 0.7646 0.29475 0.93983 0.0
C133 C 0.75847 0.31196 0.96407 0.0
N134 N 0.70051 0.3199 0.96884 0.0
N135 N 0.71051 0.29 0.92901 0.0
C136 C 0.67236 0.30839 0.94711 0.0
H137 H 0.80685 0.28654 0.93102 0.0
Co138 Co 0.69692 0.26604 0.89539 0.0
C139 C 0.56142 0.26176 0.90065 0.0
O140 O 0.56247 0.20415 0.90129 0.0
N141 N 0.68523 0.25067 0.86083 0.0
C142 C 0.64554 0.23267 0.82358 0.0
C143 C 0.63498 0.23489 0.84865 0.0
C144 C 0.7248 0.26097 0.84222 0.0
N145 N 0.70207 0.24884 0.8195 0.0
O146 O 0.78269 0.24361 0.89283 0.0
H147 H 0.59325 0.22358 0.85715 0.0
H148 H 0.76929 0.27751 0.84517 0.0
O149 O 0.61028 0.29106 0.89834 0.0
C150 C 0.81441 0.20118 0.88428 0.0
O151 O 0.78941 0.1579 0.87198 0.0
N152 N 0.67777 0.18376 0.90536 0.0
C153 C 0.61176 0.08311 0.91795 0.0
C154 C 0.63641 0.11841 0.93657 0.0
C155 C 0.66945 0.16847 0.92988 0.0
C156 C 0.66618 0.14105 0.88786 0.0
C157 C 0.63128 0.0918 0.89357 0.0
H158 H 0.68542 0.19524 0.94485 0.0
H159 H 0.6799 0.1455 0.86884 0.0
H160 H 0.62488 0.3116 0.94476 0.0
H161 H 0.79398 0.31753 0.97742 0.0
H162 H 0.61412 0.21995 0.80933 0.0
H163 H 0.62622 0.11024 0.95595 0.0
H164 H 0.61699 0.0626 0.87878 0.0
C165 C 0.78213 0.71856 0.44951 0.0
C166 C 0.76309 0.71603 0.47359 0.0
N167 N 0.71188 0.68584 0.47417 0.0
N168 N 0.7431 0.69033 0.43452 0.0
C169 C 0.70027 0.67052 0.4503 0.0
H170 H 0.82359 0.73771 0.44363 0.0
Co171 Co 0.75492 0.68023 0.39978 0.0
C172 C 0.68947 0.56558 0.39584 0.0
O173 O 0.64065 0.59183 0.3884 0.0
N174 N 0.76571 0.67093 0.36508 0.0
C175 C 0.78868 0.63077 0.32844 0.0
C176 C 0.78018 0.62006 0.35329 0.0
C177 C 0.76589 0.71209 0.34679 0.0
N178 N 0.77996 0.68858 0.32443 0.0
O179 O 0.77297 0.76643 0.39728 0.0
H180 H 0.78738 0.57803 0.36227 0.0
H181 H 0.75815 0.75867 0.34983 0.0
O182 O 0.73441 0.59655 0.40195 0.0
C183 C 0.81509 0.80384 0.40067 0.0
O184 O 0.86822 0.78566 0.4071 0.0
N185 N 0.83541 0.6565 0.40539 0.0
C186 C 0.94428 0.59555 0.4108 0.0
C187 C 0.89503 0.58429 0.42623 0.0
C188 C 0.84275 0.6153 0.42362 0.0
C189 C 0.88144 0.66796 0.38954 0.0
C190 C 0.93547 0.6375 0.39162 0.0
H191 H 0.8064 0.60238 0.43553 0.0
H192 H 0.87565 0.69838 0.37428 0.0
H193 H 0.66264 0.64406 0.44459 0.0
H194 H 0.78613 0.73323 0.4897 0.0
H195 H 0.80288 0.59919 0.31453 0.0
H196 H 0.8935 0.54866 0.43946 0.0
H197 H 0.96748 0.64497 0.37706 0.0
C198 C 0.26771 0.6889 0.93873 0.0
C199 C 0.26643 0.67966 0.96385 0.0
N200 N 0.31121 0.71033 0.97404 0.0
N201 N 0.31229 0.72627 0.93273 0.0
C202 C 0.33935 0.73734 0.95486 0.0
H203 H 0.23765 0.66923 0.92542 0.0
Co204 Co 0.3215 0.73865 0.89822 0.0
C205 C 0.45557 0.72838 0.88938 0.0
O206 O 0.45321 0.76228 0.86969 0.0
N207 N 0.32624 0.73936 0.86319 0.0
C208 C 0.34931 0.70446 0.82571 0.0
C209 C 0.35713 0.69767 0.85074 0.0
C210 C 0.29508 0.76719 0.8451 0.0
N211 N 0.3096 0.74787 0.82203 0.0
O212 O 0.2367 0.76163 0.89651 0.0
H213 H 0.38275 0.66302 0.85937 0.0
H214 H 0.2622 0.80062 0.84862 0.0
O215 O 0.40752 0.71492 0.90116 0.0
C216 C 0.20746 0.80968 0.89357 0.0
O217 O 0.23523 0.85967 0.88935 0.0
N218 N 0.34609 0.82136 0.90186 0.0
C219 C 0.41809 0.91859 0.91229 0.0
C220 C 0.37809 0.89762 0.93015 0.0
C221 C 0.34042 0.85044 0.9241 0.0
C222 C 0.37606 0.84974 0.88312 0.0
C223 C 0.41354 0.8973 0.88807 0.0
H224 H 0.30845 0.83633 0.93777 0.0
H225 H 0.37607 0.83372 0.86437 0.0
H226 H 0.37804 0.76522 0.95705 0.0
H227 H 0.23461 0.65304 0.97401 0.0
H228 H 0.36956 0.67789 0.81126 0.0
H229 H 0.37746 0.916 0.94874 0.0
H230 H 0.44145 0.91489 0.8734 0.0
C231 C 0.25956 0.25524 0.44837 0.0
C232 C 0.27463 0.26001 0.4729 0.0
N233 N 0.3198 0.29836 0.47481 0.0
N234 N 0.29503 0.29047 0.43443 0.0
C235 C 0.33199 0.31598 0.45128 0.0
H236 H 0.22222 0.23037 0.44166 0.0
Co237 Co 0.28905 0.3048 0.39959 0.0
C238 C 0.28709 0.43926 0.39867 0.0
O239 O 0.24025 0.4368 0.38427 0.0
N240 N 0.28866 0.31636 0.36396 0.0
C241 C 0.30386 0.35553 0.32636 0.0
C242 C 0.31167 0.36276 0.35138 0.0
C243 C 0.27184 0.27889 0.34537 0.0
N244 N 0.27875 0.30263 0.3224 0.0
O245 O 0.26802 0.21929 0.39456 0.0
H246 H 0.33523 0.39921 0.35935 0.0
H247 H 0.25453 0.23503 0.34848 0.0
O248 O 0.31287 0.39101 0.40545 0.0
C249 C 0.22088 0.18735 0.3962 0.0
O250 O 0.16978 0.2114 0.4021 0.0
N251 N 0.20662 0.32901 0.40292 0.0
C252 C 0.10666 0.40189 0.40401 0.0
C253 C 0.14292 0.39634 0.4248 0.0
C254 C 0.19201 0.35979 0.42398 0.0
C255 C 0.16642 0.32734 0.38379 0.0
C256 C 0.11566 0.36334 0.38401 0.0
H257 H 0.22158 0.36325 0.4395 0.0
H258 H 0.17428 0.30046 0.36774 0.0
H259 H 0.36512 0.34883 0.4466 0.0
H260 H 0.25219 0.23915 0.48842 0.0
H261 H 0.31743 0.38622 0.312 0.0
H262 H 0.13626 0.42395 0.44103 0.0
H263 H 0.08653 0.36428 0.36802 0.0
C264 C 0.7647 0.82789 0.94079 0.0
C265 C 0.76866 0.8367 0.96602 0.0
N266 N 0.82041 0.81395 0.97378 0.0
N267 N 0.81228 0.79701 0.93269 0.0
C268 C 0.84741 0.79311 0.95313 0.0
H269 H 0.72841 0.84215 0.92912 0.0
Co270 Co 0.82301 0.77855 0.89855 0.0
C271 C 0.95697 0.7703 0.9027 0.0
O272 O 0.95487 0.71291 0.90065 0.0
N273 N 0.83362 0.76963 0.8632 0.0
C274 C 0.87203 0.74944 0.82589 0.0
C275 C 0.88294 0.75182 0.85083 0.0
C276 C 0.79426 0.78124 0.84467 0.0
N277 N 0.81629 0.76796 0.82177 0.0
O278 O 0.73703 0.75819 0.89552 0.0
H279 H 0.924 0.73806 0.859 0.0
H280 H 0.75004 0.79834 0.84792 0.0
O281 O 0.90889 0.80068 0.9019 0.0
C282 C 0.70504 0.72554 0.90985 0.0
O283 O 0.7291 0.69898 0.92898 0.0
N284 N 0.83888 0.69379 0.90461 0.0
C285 C 0.90194 0.58879 0.90753 0.0
C286 C 0.88249 0.61622 0.92928 0.0
C287 C 0.85158 0.6694 0.92739 0.0
C288 C 0.84032 0.65616 0.88463 0.0
C289 C 0.87561 0.60568 0.88514 0.0
H290 H 0.83874 0.68949 0.94445 0.0
H291 H 0.81785 0.66622 0.86752 0.0
H292 H 0.89058 0.77242 0.95326 0.0
H293 H 0.73509 0.85603 0.97793 0.0
H294 H 0.90276 0.7344 0.81173 0.0
H295 H 0.89599 0.60007 0.94736 0.0
H296 H 0.88386 0.58148 0.86811 0.0
C297 C 0.28206 0.78115 0.45033 0.0
C298 C 0.26424 0.78249 0.47463 0.0
N299 N 0.20823 0.80259 0.47544 0.0
N300 N 0.23759 0.80075 0.43561 0.0
C301 C 0.19274 0.81345 0.4516 0.0
H302 H 0.32552 0.76808 0.44399 0.0
Co303 Co 0.2385 0.80532 0.40054 0.0
C304 C 0.22646 0.93318 0.38776 0.0
O305 O 0.26629 0.92308 0.37038 0.0
N306 N 0.23324 0.8054 0.36551 0.0
C307 C 0.19367 0.82399 0.32839 0.0
C308 C 0.18742 0.83133 0.35355 0.0
C309 C 0.26312 0.77703 0.34712 0.0
N310 N 0.2417 0.79023 0.32434 0.0
O311 O 0.26566 0.7218 0.39955 0.0
H312 H 0.15141 0.8545 0.3626 0.0
H313 H 0.29915 0.74641 0.35009 0.0
O314 O 0.20815 0.88998 0.40149 0.0
C315 C 0.31319 0.6914 0.40245 0.0
O316 O 0.36408 0.71784 0.40665 0.0
N317 N 0.31848 0.83943 0.40114 0.0
C318 C 0.41208 0.92104 0.39897 0.0
C319 C 0.36944 0.92431 0.41761 0.0
C320 C 0.32467 0.88285 0.41875 0.0
C321 C 0.36307 0.83252 0.38393 0.0
C322 C 0.41072 0.87282 0.38261 0.0
H323 H 0.29155 0.89041 0.43273 0.0
H324 H 0.36226 0.79708 0.37077 0.0
H325 H 0.15011 0.83087 0.44596 0.0
H326 H 0.29072 0.77076 0.49066 0.0
H327 H 0.16514 0.84197 0.3141 0.0
H328 H 0.36927 0.96041 0.43087 0.0
H329 H 0.44447 0.86784 0.36839 0.0
C330 C 0.21888 0.2786 0.9469 0.0
C331 C 0.2223 0.26403 0.9714 0.0
N332 N 0.20584 0.20753 0.97386 0.0
N333 N 0.19942 0.23191 0.93339 0.0
C334 C 0.1933 0.18823 0.95057 0.0
H335 H 0.22824 0.32192 0.93966 0.0
Co336 Co 0.1892 0.23678 0.89809 0.0
C337 C 0.0635 0.18626 0.91351 0.0
O338 O 0.07396 0.18512 0.9374 0.0
N339 N 0.18111 0.24193 0.86313 0.0
C340 C 0.14041 0.26728 0.82704 0.0
C341 C 0.13045 0.25943 0.85188 0.0
C342 C 0.22137 0.23845 0.84435 0.0
N343 N 0.19756 0.25458 0.82222 0.0
O344 O 0.27445 0.26284 0.89595 0.0
H345 H 0.08975 0.27074 0.86144 0.0
H346 H 0.26768 0.22732 0.84698 0.0
O347 O 0.10457 0.20593 0.89909 0.0
C348 C 0.30878 0.30771 0.8989 0.0
O349 O 0.28645 0.35956 0.90443 0.0
N350 N 0.15786 0.31494 0.90126 0.0
C351 C 0.08687 0.41497 0.90101 0.0
C352 C 0.07925 0.37228 0.91923 0.0
C353 C 0.11437 0.32246 0.91879 0.0
C354 C 0.16912 0.35907 0.88449 0.0
C355 C 0.13303 0.40927 0.88369 0.0
H356 H 0.10477 0.28903 0.93236 0.0
H357 H 0.20321 0.35374 0.87048 0.0
H358 H 0.17825 0.14399 0.94628 0.0
H359 H 0.23371 0.29341 0.98655 0.0
H360 H 0.10868 0.28355 0.81359 0.0
H361 H 0.04407 0.37592 0.93294 0.0
H362 H 0.13976 0.44217 0.86936 0.0
C363 C 0.74547 0.23875 0.44392 0.0
C364 C 0.76129 0.23413 0.46837 0.0
N365 N 0.80509 0.19434 0.47012 0.0
N366 N 0.77901 0.2019 0.4299 0.0
C367 C 0.81548 0.17538 0.44662 0.0
H368 H 0.70919 0.26517 0.43733 0.0
Co369 Co 0.7725 0.18938 0.39493 0.0
C370 C 0.76462 0.05497 0.3936 0.0
O371 O 0.71566 0.05874 0.38049 0.0
N372 N 0.77178 0.17978 0.35924 0.0
C373 C 0.78295 0.14321 0.32089 0.0
C374 C 0.78869 0.1321 0.34579 0.0
C375 C 0.76015 0.22097 0.3414 0.0
N376 N 0.76483 0.19916 0.31803 0.0
O377 O 0.75519 0.27597 0.39086 0.0
H378 H 0.80684 0.09189 0.35301 0.0
H379 H 0.748 0.26614 0.34526 0.0
O380 O 0.79255 0.10248 0.3999 0.0
C381 C 0.70923 0.30944 0.39253 0.0
O382 O 0.65692 0.28671 0.39746 0.0
N383 N 0.689 0.16869 0.39801 0.0
C384 C 0.57495 0.11531 0.40206 0.0
C385 C 0.61634 0.1144 0.42162 0.0
C386 C 0.67182 0.14028 0.41922 0.0
C387 C 0.64934 0.17199 0.37882 0.0
C388 C 0.59354 0.14453 0.38017 0.0
H389 H 0.70275 0.13103 0.43391 0.0
H390 H 0.66089 0.19366 0.36179 0.0
H391 H 0.84738 0.1415 0.44185 0.0
H392 H 0.74055 0.25649 0.48392 0.0
H393 H 0.79311 0.11293 0.30589 0.0
H394 H 0.61034 0.08882 0.43826 0.0
H395 H 0.56791 0.14379 0.36329 0.0
C396 C 0.33195 0.65902 0.11699 0.0
C397 C 0.32984 0.64598 0.09194 0.0
N398 N 0.32587 0.69713 0.07936 0.0
N399 N 0.32934 0.71804 0.12015 0.0
C400 C 0.32497 0.73987 0.09677 0.0
H401 H 0.33596 0.62754 0.132 0.0
Co402 Co 0.33311 0.75575 0.1513 0.0
C403 C 0.46183 0.75086 0.16613 0.0
O404 O 0.45604 0.80497 0.17445 0.0
N405 N 0.33414 0.78972 0.18354 0.0
C406 C 0.33488 0.84447 0.21801 0.0
C407 C 0.34563 0.84406 0.19299 0.0
C408 C 0.31744 0.75781 0.20369 0.0
N409 N 0.31694 0.79035 0.22478 0.0
O410 O 0.2491 0.78254 0.14776 0.0
H411 H 0.36278 0.88154 0.18317 0.0
H412 H 0.3051 0.71166 0.20284 0.0
O413 O 0.41652 0.72455 0.15656 0.0
C414 C 0.2149 0.81172 0.13321 0.0
O415 O 0.23584 0.83501 0.11267 0.0
N416 N 0.36539 0.82495 0.13554 0.0
C417 C 0.43732 0.91998 0.12361 0.0
C418 C 0.45376 0.86325 0.11654 0.0
C419 C 0.41619 0.81669 0.12193 0.0
C420 C 0.34374 0.88089 0.13825 0.0
C421 C 0.37956 0.92966 0.13257 0.0
H422 H 0.43087 0.77314 0.11694 0.0
H423 H 0.30232 0.88829 0.14781 0.0
H424 H 0.32287 0.7863 0.09228 0.0
H425 H 0.33197 0.60257 0.08356 0.0
H426 H 0.34052 0.88162 0.23048 0.0
H427 H 0.49717 0.85428 0.10864 0.0
H428 H 0.36491 0.97364 0.13755 0.0
C429 C 0.25175 0.27058 0.60053 0.0
C430 C 0.26943 0.27156 0.57625 0.0
N431 N 0.31465 0.30979 0.57411 0.0
N432 N 0.2855 0.30805 0.61408 0.0
C433 C 0.32419 0.33133 0.5973 0.0
H434 H 0.21433 0.24601 0.60754 0.0
Co435 Co 0.27061 0.32164 0.64833 0.0
C436 C 0.33428 0.44032 0.65218 0.0
O437 O 0.38185 0.41633 0.66201 0.0
N438 N 0.25749 0.33466 0.6828 0.0
C439 C 0.22933 0.37857 0.71804 0.0
C440 C 0.23304 0.384 0.69265 0.0
C441 C 0.27023 0.30075 0.70286 0.0
N442 N 0.25233 0.32608 0.72441 0.0
O443 O 0.24917 0.23474 0.65084 0.0
H444 H 0.21701 0.42111 0.68197 0.0
H445 H 0.29071 0.25765 0.70173 0.0
O446 O 0.29148 0.40693 0.64534 0.0
C447 C 0.2215 0.19573 0.66384 0.0
O448 O 0.19387 0.21091 0.68425 0.0
N449 N 0.19072 0.34442 0.64069 0.0
C450 C 0.08299 0.40678 0.63375 0.0
C451 C 0.13328 0.41655 0.61867 0.0
C452 C 0.18496 0.38453 0.62195 0.0
C453 C 0.14279 0.33233 0.65538 0.0
C454 C 0.08953 0.36379 0.65268 0.0
H455 H 0.2223 0.39639 0.61043 0.0
H456 H 0.14694 0.30261 0.67086 0.0
H457 H 0.35698 0.36466 0.60172 0.0
H458 H 0.24902 0.24787 0.56099 0.0
H459 H 0.20904 0.40961 0.73079 0.0
H460 H 0.13643 0.45196 0.60541 0.0
H461 H 0.05642 0.35673 0.66686 0.0
C462 C 0.76228 0.26551 0.09386 0.0
C463 C 0.75407 0.28152 0.06965 0.0
N464 N 0.70895 0.31989 0.06868 0.0
N465 N 0.72278 0.2936 0.1087 0.0
C466 C 0.69105 0.32749 0.09256 0.0
H467 H 0.79254 0.2317 0.09948 0.0
Co468 Co 0.70925 0.27614 0.14319 0.0
C469 C 0.59088 0.33638 0.14728 0.0
O470 O 0.61625 0.38432 0.15602 0.0
N471 N 0.69571 0.26131 0.17731 0.0
C472 C 0.65324 0.22844 0.21202 0.0
C473 C 0.64711 0.23435 0.18682 0.0
C474 C 0.72965 0.27375 0.19744 0.0
N475 N 0.70516 0.25307 0.21881 0.0
O476 O 0.79711 0.25854 0.1476 0.0
H477 H 0.61003 0.21828 0.17598 0.0
H478 H 0.77195 0.29642 0.19643 0.0
O479 O 0.62354 0.29362 0.14006 0.0
C480 C 0.83312 0.21528 0.14363 0.0
O481 O 0.81392 0.16607 0.13359 0.0
N482 N 0.68911 0.19633 0.13506 0.0
C483 C 0.62546 0.09217 0.1288 0.0
C484 C 0.61799 0.13884 0.11236 0.0
C485 C 0.65048 0.18992 0.11565 0.0
C486 C 0.70048 0.14903 0.15016 0.0
C487 C 0.66978 0.09579 0.14701 0.0
H488 H 0.63905 0.22639 0.104 0.0
H489 H 0.73019 0.15353 0.16582 0.0
H490 H 0.65321 0.35397 0.09791 0.0
H491 H 0.77676 0.26312 0.05365 0.0
H492 H 0.62208 0.20714 0.2245 0.0
H493 H 0.58396 0.1376 0.09814 0.0
H494 H 0.6766 0.05995 0.16001 0.0
C495 C 0.76568 0.73868 0.59712 0.0
C496 C 0.74863 0.73304 0.57289 0.0
N497 N 0.70131 0.69715 0.57205 0.0
N498 N 0.72931 0.7065 0.61199 0.0
C499 C 0.68988 0.68179 0.59593 0.0
H500 H 0.80459 0.76227 0.60301 0.0
Co501 Co 0.73622 0.69646 0.64715 0.0
C502 C 0.73898 0.56447 0.65076 0.0
O503 O 0.78643 0.56848 0.66475 0.0
N504 N 0.73775 0.68995 0.68307 0.0
C505 C 0.72568 0.65738 0.72198 0.0
C506 C 0.71859 0.64454 0.69733 0.0
C507 C 0.75172 0.73212 0.70026 0.0
N508 N 0.74633 0.71273 0.72403 0.0
O509 O 0.75629 0.78051 0.64991 0.0
H510 H 0.6979 0.60487 0.69086 0.0
H511 H 0.76555 0.77646 0.69562 0.0
O512 O 0.71239 0.61139 0.64335 0.0
C513 C 0.80165 0.81368 0.64669 0.0
O514 O 0.85383 0.7906 0.64177 0.0
N515 N 0.81896 0.67201 0.64392 0.0
C516 C 0.92018 0.60044 0.6429 0.0
C517 C 0.88281 0.60381 0.62243 0.0
C518 C 0.83307 0.63942 0.62325 0.0
C519 C 0.8596 0.67513 0.66289 0.0
C520 C 0.91082 0.6395 0.66276 0.0
H521 H 0.80283 0.63392 0.60808 0.0
H522 H 0.85139 0.70226 0.67892 0.0
H523 H 0.65504 0.65153 0.60147 0.0
H524 H 0.77088 0.7518 0.55686 0.0
H525 H 0.71438 0.62873 0.7374 0.0
H526 H 0.88926 0.57518 0.60649 0.0
H527 H 0.9403 0.6395 0.67863 0.0
C528 C 0.28822 0.28633 0.25358 0.0
C529 C 0.23116 0.26372 0.24753 0.0
C530 C 0.20708 0.25792 0.29197 0.0
C531 C 0.26492 0.27866 0.29802 0.0
N532 N 0.36625 0.28944 0.28447 0.0
N533 N 0.14665 0.20745 0.26137 0.0
C534 C 0.30748 0.28465 0.2787 0.0
C535 C 0.19422 0.24235 0.26694 0.0
N536 N 0.32222 0.31389 0.23607 0.0
N537 N 0.16291 0.25737 0.30934 0.0
H538 H 0.13785 0.19364 0.24322 0.0
H539 H 0.12067 0.18703 0.27494 0.0
H540 H 0.16879 0.27214 0.32742 0.0
H541 H 0.11881 0.24788 0.30501 0.0
H542 H 0.36178 0.33558 0.24035 0.0
H543 H 0.308 0.32095 0.21797 0.0
H544 H 0.39966 0.28983 0.27101 0.0
H545 H 0.3814 0.28601 0.30274 0.0
C546 C 0.77586 0.21049 0.78903 0.0
C547 C 0.73012 0.25089 0.79531 0.0
C548 C 0.71414 0.27202 0.75109 0.0
C549 C 0.75863 0.23025 0.74489 0.0
N550 N 0.84416 0.17514 0.75734 0.0
N551 N 0.66922 0.33275 0.78329 0.0
C552 C 0.79414 0.20544 0.76382 0.0
C553 C 0.7042 0.28627 0.77654 0.0
N554 N 0.79799 0.17318 0.80659 0.0
N555 N 0.67848 0.29454 0.73295 0.0
H556 H 0.66211 0.34376 0.80192 0.0
H557 H 0.65242 0.36327 0.77067 0.0
H558 H 0.68441 0.28499 0.71417 0.0
H559 H 0.64093 0.31991 0.73663 0.0
H560 H 0.82697 0.13867 0.80253 0.0
H561 H 0.78361 0.17357 0.82495 0.0
H562 H 0.87484 0.15958 0.77023 0.0
H563 H 0.85753 0.17104 0.73881 0.0
C564 C 0.85085 0.72326 0.29259 0.0
C565 C 0.79161 0.71898 0.3014 0.0
C566 C 0.75576 0.7672 0.26353 0.0
C567 C 0.81412 0.7655 0.25366 0.0
N568 N 0.91687 0.73909 0.25738 0.0
N569 N 0.68685 0.73085 0.29481 0.0
C570 C 0.86166 0.74271 0.26785 0.0
C571 C 0.74376 0.73976 0.28681 0.0
N572 N 0.89661 0.71024 0.30827 0.0
N573 N 0.71226 0.79597 0.25073 0.0
H574 H 0.67708 0.71105 0.31184 0.0
H575 H 0.64957 0.73927 0.28397 0.0
H576 H 0.71974 0.81502 0.23335 0.0
H577 H 0.67004 0.80407 0.2579 0.0
H578 H 0.94116 0.71705 0.30391 0.0
H579 H 0.88964 0.69719 0.32664 0.0
H580 H 0.95257 0.71764 0.26566 0.0
H581 H 0.92598 0.75455 0.23951 0.0
C582 C 0.28174 0.82682 0.79162 0.0
C583 C 0.28688 0.76628 0.79807 0.0
C584 C 0.27664 0.73957 0.75419 0.0
C585 C 0.26817 0.79991 0.74794 0.0
N586 N 0.23747 0.89558 0.76277 0.0
N587 N 0.26276 0.66631 0.78631 0.0
C588 C 0.2618 0.84165 0.76745 0.0
C589 C 0.27526 0.72301 0.7796 0.0
N590 N 0.30039 0.87028 0.80735 0.0
N591 N 0.29069 0.69862 0.73655 0.0
H592 H 0.25761 0.65398 0.80488 0.0
H593 H 0.25041 0.63409 0.77345 0.0
H594 H 0.2978 0.70901 0.71799 0.0
H595 H 0.302 0.65528 0.74102 0.0
H596 H 0.30122 0.91465 0.8022 0.0
H597 H 0.32181 0.86195 0.82408 0.0
H598 H 0.22868 0.92617 0.7768 0.0
H599 H 0.21986 0.90626 0.74541 0.0
C600 C 0.73462 0.74073 0.79211 0.0
C601 C 0.78911 0.76989 0.7973 0.0
C602 C 0.81223 0.77102 0.75266 0.0
C603 C 0.75719 0.74283 0.74747 0.0
N604 N 0.65734 0.72468 0.76159 0.0
N605 N 0.86649 0.83293 0.78155 0.0
C606 C 0.71534 0.73617 0.76704 0.0
C607 C 0.82306 0.79227 0.77712 0.0
N608 N 0.70358 0.71289 0.81047 0.0
N609 N 0.85624 0.77338 0.73521 0.0
H610 H 0.87381 0.85016 0.7993 0.0
H611 H 0.88998 0.85392 0.76735 0.0
H612 H 0.85247 0.7548 0.71764 0.0
H613 H 0.89889 0.78864 0.73917 0.0
H614 H 0.66655 0.68654 0.80692 0.0
H615 H 0.7181 0.71084 0.82873 0.0
H616 H 0.62412 0.72334 0.77513 0.0
H617 H 0.64196 0.72353 0.7433 0.0
C618 C 0.32425 0.79419 0.29355 0.0
C619 C 0.266 0.77594 0.30021 0.0
C620 C 0.24362 0.75629 0.25639 0.0
C621 C 0.30224 0.77345 0.24991 0.0
N622 N 0.40297 0.78914 0.26283 0.0
N623 N 0.17753 0.72271 0.28918 0.0
C624 C 0.3442 0.78513 0.26882 0.0
C625 C 0.22825 0.75098 0.28195 0.0
N626 N 0.35861 0.82504 0.30993 0.0
N627 N 0.20149 0.74939 0.23842 0.0
H628 H 0.16641 0.71734 0.3079 0.0
H629 H 0.15034 0.6996 0.2769 0.0
H630 H 0.21044 0.75456 0.21956 0.0
H631 H 0.1566 0.74315 0.2424 0.0
H632 H 0.39912 0.8441 0.30503 0.0
H633 H 0.3442 0.83723 0.32758 0.0
H634 H 0.43641 0.79302 0.2761 0.0
H635 H 0.4182 0.78219 0.24472 0.0
C636 C 0.20244 0.25759 0.75358 0.0
C637 C 0.24755 0.29961 0.74875 0.0
C638 C 0.26748 0.30656 0.79349 0.0
C639 C 0.22463 0.2616 0.79799 0.0
N640 N 0.16457 0.18309 0.78171 0.0
N641 N 0.33078 0.356 0.76321 0.0
C642 C 0.19737 0.23283 0.77766 0.0
C643 C 0.28308 0.32095 0.76848 0.0
N644 N 0.16059 0.24594 0.73597 0.0
N645 N 0.28965 0.33864 0.81283 0.0
H646 H 0.34202 0.36751 0.745 0.0
H647 H 0.36161 0.36917 0.77653 0.0
H648 H 0.27775 0.33074 0.83122 0.0
H649 H 0.31619 0.37592 0.81049 0.0
H650 H 0.12377 0.21906 0.7392 0.0
H651 H 0.15871 0.26937 0.71935 0.0
H652 H 0.14686 0.15776 0.76733 0.0
H653 H 0.1606 0.16434 0.79937 0.0
C654 C 0.79937 0.22295 0.27563 0.0
C655 C 0.7551 0.22784 0.29429 0.0
C656 C 0.68934 0.27293 0.26343 0.0
C657 C 0.72767 0.25413 0.24405 0.0
N658 N 0.81848 0.20459 0.23216 0.0
N659 N 0.65391 0.25317 0.30498 0.0
C660 C 0.78319 0.22832 0.2502 0.0
C661 C 0.6992 0.25278 0.28811 0.0
N662 N 0.85683 0.21264 0.28233 0.0
N663 N 0.6431 0.30959 0.25805 0.0
H664 H 0.65797 0.23613 0.3228 0.0
H665 H 0.61065 0.26543 0.30048 0.0
H666 H 0.63621 0.32598 0.24015 0.0
H667 H 0.61619 0.32854 0.27167 0.0
H668 H 0.89196 0.21307 0.26967 0.0
H669 H 0.86973 0.21037 0.30094 0.0
H670 H 0.85642 0.18 0.23607 0.0
H671 H 0.80701 0.20452 0.21349 0.0
C672 C 0.15317 0.21135 0.03778 0.0
C673 C 0.20381 0.18798 0.04984 0.0
C674 C 0.24219 0.15209 1.00991 0.0
C675 C 0.19493 0.18112 0.99778 0.0
N676 N 0.0968 0.22115 0.99963 0.0
N677 N 0.28771 0.12342 0.04917 0.0
C678 C 0.1467 0.20334 1.01177 0.0
C679 C 0.24476 0.15291 0.03639 0.0
N680 N 0.11512 0.24685 0.05068 0.0
N681 N 0.28671 0.12844 0.99586 0.0
H682 H 0.28986 0.12505 0.06856 0.0
H683 H 0.31785 0.09454 0.04096 0.0
H684 H 0.28428 0.12725 0.97648 0.0
H685 H 0.3259 0.11146 1.00315 0.0
H686 H 0.08093 0.27088 0.04255 0.0
H687 H 0.12035 0.2553 0.06953 0.0
H688 H 0.05777 0.23379 1.00858 0.0
H689 H 0.09344 0.21837 0.98037 0.0
C690 C 0.7932 0.13273 0.50715 0.0
C691 C 0.82792 0.17338 0.49351 0.0
C692 C 0.87755 0.20411 0.53188 0.0
C693 C 0.83342 0.17422 0.54579 0.0
N694 N 0.75254 0.10518 0.54733 0.0
N695 N 0.90817 0.2424 0.4915 0.0
C696 C 0.79349 0.13533 0.53361 0.0
C697 C 0.87303 0.20615 0.50547 0.0
N698 N 0.7579 0.09403 0.49452 0.0
N699 N 0.92149 0.233 0.54437 0.0
H700 H 0.90549 0.24303 0.47212 0.0
H701 H 0.93866 0.27215 0.49887 0.0
H702 H 0.92393 0.23184 0.56376 0.0
H703 H 0.95714 0.25407 0.53579 0.0
H704 H 0.7336 0.06041 0.50294 0.0
H705 H 0.75704 0.09292 0.47512 0.0
H706 H 0.71749 0.08116 0.53981 0.0
H707 H 0.7531 0.10569 0.56663 0.0
C708 C 0.86793 0.84377 1.01314 0.0
C709 C 0.83526 0.80174 0.99933 0.0
C710 C 0.81662 0.7447 0.03734 0.0
C711 C 0.84066 0.79146 0.05148 0.0
N712 N 0.89199 0.88393 0.05393 0.0
N713 N 0.77885 0.71166 0.99742 0.0
C714 C 0.86836 0.84006 0.03961 0.0
C715 C 0.81073 0.75127 1.01116 0.0
N716 N 0.8973 0.88757 1.00076 0.0
N717 N 0.79808 0.69487 0.04934 0.0
H718 H 0.7742 0.71533 0.97823 0.0
H719 H 0.75463 0.67688 1.00499 0.0
H720 H 0.8017 0.69024 0.06859 0.0
H721 H 0.78369 0.6568 0.04034 0.0
H722 H 0.92535 0.91796 1.00927 0.0
H723 H 0.89636 0.8909 0.98141 0.0
H724 H 0.90801 0.9237 0.04694 0.0
H725 H 0.89398 0.88072 0.07326 0.0
C726 C 0.19042 0.86651 0.51107 0.0
C727 C 0.17679 0.814 0.49824 0.0
C728 C 0.14782 0.76746 0.5375 0.0
C729 C 0.17617 0.81392 0.5504 0.0
N730 N 0.22295 0.9093 0.54994 0.0
N731 N 0.13444 0.71724 0.49781 0.0
C732 C 0.19476 0.86517 0.53738 0.0
C733 C 0.15099 0.7659 0.51105 0.0
N734 N 0.20336 0.91605 0.49776 0.0
N735 N 0.1219 0.72329 0.5509 0.0
H736 H 0.13621 0.71668 0.47841 0.0
H737 H 0.12021 0.67786 0.5058 0.0
H738 H 0.12104 0.72436 0.57032 0.0
H739 H 0.09819 0.68854 0.54304 0.0
H740 H 0.21027 0.95737 0.50574 0.0
H741 H 0.20157 0.91618 0.47839 0.0
H742 H 0.24373 0.94501 0.54139 0.0
H743 H 0.22853 0.90808 0.5691 0.0
C744 C 0.70481 0.38395 0.03194 0.0
C745 C 0.68088 0.3364 0.04562 0.0
C746 C 0.64681 0.28935 1.00716 0.0
C747 C 0.67724 0.33333 0.99328 0.0
N748 N 0.71735 0.43115 0.99161 0.0
N749 N 0.61126 0.25677 0.04758 0.0
C750 C 0.69936 0.38416 1.00557 0.0
C751 C 0.645 0.29397 0.03353 0.0
N752 N 0.73647 0.42619 0.04422 0.0
N753 N 0.62422 0.24082 0.99547 0.0
H754 H 0.60988 0.26055 0.06684 0.0
H755 H 0.58055 0.22713 0.04025 0.0
H756 H 0.62277 0.23662 0.97626 0.0
H757 H 0.60874 0.20359 1.00479 0.0
H758 H 0.76076 0.45926 0.03541 0.0
H759 H 0.73932 0.42659 0.0636 0.0
H760 H 0.73121 0.47122 0.9991 0.0
H761 H 0.71345 0.43097 0.97226 0.0
C762 C 0.64317 0.71708 0.53464 0.0
C763 C 0.67596 0.67645 0.54905 0.0
C764 C 0.7062 0.62379 0.51139 0.0
C765 C 0.68227 0.67031 0.49701 0.0
N766 N 0.61567 0.75172 0.49329 0.0
N767 N 0.72268 0.58206 0.55254 0.0
C768 C 0.6452 0.71302 0.50822 0.0
C769 C 0.70097 0.62586 0.53776 0.0
N770 N 0.61439 0.76192 0.54656 0.0
N771 N 0.73841 0.581 0.49967 0.0
H772 H 0.71899 0.58396 0.57184 0.0
H773 H 0.74007 0.54253 0.54592 0.0
H774 H 0.74207 0.5795 0.48035 0.0
H775 H 0.76205 0.54807 0.50876 0.0
H776 H 0.59244 0.79622 0.53764 0.0
H777 H 0.61272 0.76409 0.56595 0.0
H778 H 0.58681 0.78414 0.49972 0.0
H779 H 0.61817 0.74873 0.47394 0.0
C780 C 0.37481 0.68804 0.0382 0.0
C781 C 0.32507 0.70518 0.05275 0.0
C782 C 0.27587 0.74163 1.01526 0.0
C783 C 0.32103 0.71598 1.00043 0.0
N784 N 0.41132 0.65991 0.99738 0.0
N785 N 0.22496 0.74197 0.05499 0.0
C786 C 0.37035 0.68829 1.01178 0.0
C787 C 0.2748 0.73083 0.04126 0.0
N788 N 0.42667 0.67316 0.04969 0.0
N789 N 0.23432 0.77678 1.00428 0.0
H790 H 0.22203 0.73248 0.07392 0.0
H791 H 0.18486 0.75545 0.04723 0.0
H792 H 0.23562 0.78647 0.98533 0.0
H793 H 0.20282 0.80086 1.01421 0.0
H794 H 0.46615 0.66529 0.04012 0.0
H795 H 0.43151 0.67431 0.06896 0.0
H796 H 0.44503 0.63365 1.00463 0.0
H797 H 0.40892 0.65928 0.97803 0.0
C798 C 0.30933 0.37 0.53625 0.0
C799 C 0.33939 0.32676 0.55044 0.0
C800 C 0.37923 0.28243 0.51236 0.0
C801 C 0.34198 0.31979 0.49827 0.0
N802 N 0.28541 0.40888 0.49527 0.0
N803 N 0.41417 0.25251 0.55337 0.0
C804 C 0.31256 0.36772 0.50981 0.0
C805 C 0.37927 0.28732 0.53878 0.0
N806 N 0.27377 0.40965 0.54825 0.0
N807 N 0.41092 0.23987 0.50025 0.0
H808 H 0.41333 0.2561 0.57273 0.0
H809 H 0.44579 0.22314 0.54661 0.0
H810 H 0.41148 0.23719 0.48087 0.0
H811 H 0.43606 0.2076 0.50905 0.0
H812 H 0.24564 0.43923 0.53936 0.0
H813 H 0.27187 0.41197 0.56759 0.0
H814 H 0.26499 0.4468 0.50204 0.0
H815 H 0.28734 0.40686 0.47593 0.0
C816 C 0.05474 0.52556 0.12211 0.0
C817 C 0.05768 0.47787 0.13908 0.0
C818 C 0.96102 0.50584 0.1566 0.0
C819 C 0.95806 0.55333 0.13951 0.0
N820 N 0.99271 0.59736 0.10135 0.0
N821 N 1.00709 0.41307 0.16786 0.0
C822 C 1.00189 0.55956 0.12071 0.0
C823 C 1.00881 0.46509 0.15499 0.0
N824 N 0.10326 0.53963 0.10796 0.0
N825 N 0.91863 0.50055 0.1747 0.0
H826 H 0.04114 0.382 0.16714 0.0
H827 H 0.96987 0.39836 0.17757 0.0
H828 H 0.88081 0.52713 0.17524 0.0
H829 H 0.9222 0.47173 0.18969 0.0
H830 H 0.10606 0.57772 0.09719 0.0
H831 H 0.14285 0.51579 0.10863 0.0
H832 H 0.02029 0.59937 0.0858 0.0
H833 H 0.9547 0.62322 0.09974 0.0
C834 C 0.45766 0.02664 0.65166 0.0
C835 C 0.46545 0.98207 0.63322 0.0
C836 C 0.51512 0.05424 0.6068 0.0
C837 C 0.52161 0.09241 0.62738 0.0
N838 N 0.46086 0.13181 0.65996 0.0
N839 N 0.5051 0.95352 0.5932 0.0
C840 C 0.48209 0.08376 0.64752 0.0
C841 C 0.49566 0.99585 0.61082 0.0
N842 N 0.42686 0.01487 0.67299 0.0
N843 N 0.51735 0.07654 0.5833 0.0
H844 H 0.49219 0.90963 0.59569 0.0
H845 H 0.53048 0.96147 0.57729 0.0
H846 H 0.52182 0.12188 0.58021 0.0
H847 H 0.50732 0.05146 0.56759 0.0
H848 H 0.42527 0.04398 0.68798 0.0
H849 H 0.40662 0.97441 0.67651 0.0
H850 H 0.42715 0.12975 0.67323 0.0
H851 H 0.47213 0.1746 0.65441 0.0
C852 C 0.52659 0.93768 0.91908 0.0
C853 C 0.46741 0.95953 0.91877 0.0
C854 C 0.50456 0.05908 0.92725 0.0
C855 C 0.56372 0.03914 0.92305 0.0
N856 N 0.63215 0.9593 0.91601 0.0
N857 N 0.39945 0.04142 0.9208 0.0
C858 C 0.57505 0.97815 0.91948 0.0
C859 C 0.45612 0.02023 0.92272 0.0
N860 N 0.53617 0.87811 0.91932 0.0
N861 N 0.49438 0.11493 0.93575 0.0
H862 H 0.36272 0.01428 0.91778 0.0
H863 H 0.38927 0.08625 0.92031 0.0
H864 H 0.52819 0.14467 0.93967 0.0
H865 H 0.45283 0.12958 0.94159 0.0
H866 H 0.57785 0.85912 0.92149 0.0
H867 H 0.50163 0.84736 0.91942 0.0
H868 H 0.64334 0.91697 0.91013 0.0
H869 H 0.66874 0.98718 0.91815 0.0
C870 C 0.02435 0.45596 0.42442 0.0
C871 C 0.06344 0.45151 0.40385 0.0
C872 C 0.04456 0.55629 0.39455 0.0
C873 C 0.99879 0.55624 0.41262 0.0
N874 N 0.98972 0.52471 0.45512 0.0
N875 N 0.112 0.4996 0.36892 0.0
C876 C 1.00124 0.51151 0.43086 0.0
C877 C 0.07391 0.50226 0.38868 0.0
N878 N 1.00971 0.4073 0.43808 0.0
N879 N 0.06744 0.60891 0.38676 0.0
H880 H 0.13645 0.46228 0.36432 0.0
H881 H 0.11582 0.53341 0.3559 0.0
H882 H 0.05433 0.64861 0.39498 0.0
H883 H 0.10481 0.61273 0.37542 0.0
H884 H 0.97845 0.40887 0.45243 0.0
H885 H 0.02449 0.36503 0.43343 0.0
H886 H 0.9962 0.49453 0.4695 0.0
H887 H 0.98034 0.56791 0.46071 0.0
C888 C 0.93668 0.48662 0.89795 0.0
C889 C 0.94966 0.54348 0.90757 0.0
C890 C 0.05592 0.51839 0.90993 0.0
C891 C 0.04243 0.46249 0.89974 0.0
N892 N 0.97409 0.39653 0.87936 0.0
N893 N 0.02033 0.61076 0.92671 0.0
C894 C 0.98392 0.4476 0.89234 0.0
C895 C 1.009 0.55888 0.91458 0.0
N896 N 0.87884 0.4688 0.89567 0.0
N897 N 0.11387 0.53282 0.91476 0.0
H898 H 0.98824 0.64168 0.93114 0.0
H899 H 0.061 0.62208 0.93447 0.0
H900 H 0.14893 0.50329 0.91248 0.0
H901 H 0.12862 0.57493 0.91936 0.0
H902 H 0.86619 0.42589 0.89119 0.0
H903 H 0.84303 0.49542 0.90078 0.0
H904 H 0.93359 0.38565 0.87125 0.0
H905 H 1.00813 0.36731 0.87466 0.0
C906 C 0.51009 0.03916 0.42374 0.0
C907 C 0.51942 0.07689 0.40324 0.0
C908 C 0.45077 0.01466 0.37921 0.0
C909 C 0.45607 0.96994 0.39772 0.0
N910 N 0.49849 0.9386 0.43679 0.0
N911 N 0.46301 0.11892 0.36995 0.0
C912 C 0.48898 0.9817 0.41956 0.0
C913 C 0.48014 0.07003 0.38284 0.0
N914 N 0.51108 0.06129 0.4473 0.0
N915 N 0.41729 1.00481 0.35848 0.0
H916 H 0.47579 0.16116 0.37564 0.0
H917 H 0.43048 0.11877 0.35623 0.0
H918 H 0.39272 0.96637 0.35572 0.0
H919 H 0.41702 0.03315 0.34325 0.0
H920 H 0.49915 0.03621 0.46279 0.0
H921 H 0.51689 0.10642 0.45057 0.0
H922 H 0.52493 0.94571 0.45243 0.0
H923 H 0.48464 0.89505 0.43412 0.0
C924 C 0.50007 0.99019 0.1483 0.0
C925 C 0.48393 0.96597 0.12491 0.0
C926 C 0.5708 0.01272 0.10608 0.0
C927 C 0.58081 0.04429 0.12846 0.0
N928 N 0.54315 0.07419 0.16886 0.0
N929 N 0.49787 0.96346 0.08042 0.0
C930 C 0.54217 0.03633 0.14906 0.0
C931 C 0.51754 0.98001 0.1034 0.0
N932 N 0.47785 0.96755 0.16994 0.0
N933 N 0.61253 0.01328 0.0876 0.0
H934 H 0.4578 0.94112 0.07777 0.0
H935 H 0.51821 0.97712 0.06398 0.0
H936 H 0.65293 0.03554 0.08936 0.0
H937 H 0.60957 0.98689 0.07178 0.0
H938 H 0.49296 0.98088 0.18738 0.0
H939 H 0.44997 0.93092 0.17057 0.0
H940 H 0.51155 0.07261 0.18305 0.0
H941 H 0.57085 0.11096 0.16987 0.0
C942 C 0.98227 0.44603 0.64951 0.0
C943 C 0.0298 0.4482 0.63224 0.0
C944 C 1.00562 0.55058 0.6228 0.0
C945 C 0.96489 0.5521 0.64289 0.0
N946 N 0.91444 0.4998 0.67608 0.0
N947 N 0.04279 0.48641 0.59091 0.0
C948 C 0.95329 0.49941 0.65656 0.0
C949 C 0.02977 0.496 0.61533 0.0
N950 N 0.95787 0.3927 0.65542 0.0
N951 N 0.02023 0.60109 0.61039 0.0
H952 H 0.05097 0.44389 0.58417 0.0
H953 H 0.03794 0.51882 0.5773 0.0
H954 H 1.00391 0.64239 0.61566 0.0
H955 H 0.05268 0.60196 0.59651 0.0
H956 H 0.91923 0.38791 0.66593 0.0
H957 H 0.97151 0.35404 0.6465 0.0
H958 H 0.90898 0.46392 0.68798 0.0
H959 H 0.89165 0.53737 0.68177 0.0
C960 C 0.49227 0.30138 0.12885 0.0
C961 C 0.52418 0.32888 0.14856 0.0
C962 C 0.42866 0.34915 0.16946 0.0
C963 C 0.39748 0.31759 0.15074 0.0
N964 N 0.40311 0.24933 0.11636 0.0
N965 N 0.5215 0.36009 0.19158 0.0
C966 C 0.43046 0.28873 0.13175 0.0
C967 C 0.49205 0.34743 0.17004 0.0
N968 N 0.51967 0.29065 0.10665 0.0
N969 N 0.39798 0.38128 0.18671 0.0
H970 H 0.5672 0.35465 0.19361 0.0
H971 H 0.4997 0.36866 0.20831 0.0
H972 H 0.3517 0.38229 0.18745 0.0
H973 H 0.41863 0.41011 0.19909 0.0
H974 H 0.49718 0.27578 0.09094 0.0
H975 H 0.56321 0.30334 0.10303 0.0
H976 H 0.42619 0.22329 0.10362 0.0
H977 H 0.3587 0.23752 0.11836 0.0
C978 C 0.6746 0.41277 0.66048 0.0
C979 C 0.72019 0.3797 0.64836 0.0
C980 C 0.75782 0.47043 0.6296 0.0
C981 C 0.71873 0.50412 0.64429 0.0
N982 N 0.63505 0.50939 0.67174 0.0
N983 N 0.81407 0.38101 0.62573 0.0
C984 C 0.67523 0.47576 0.65906 0.0
C985 C 0.7646 0.40953 0.63428 0.0
N986 N 0.63136 0.38378 0.67358 0.0
N987 N 0.78673 0.49675 0.6103 0.0
H988 H 0.82366 0.33702 0.6292 0.0
H989 H 0.84969 0.40322 0.61756 0.0
H990 H 0.77693 0.53993 0.60523 0.0
H991 H 0.81265 0.47382 0.59745 0.0
H992 H 0.59358 0.40396 0.68078 0.0
H993 H 0.63284 0.33849 0.67704 0.0
H994 H 0.60625 0.49325 0.68527 0.0
H995 H 0.63048 0.55445 0.66827 0.0
C996 C 0.55594 0.7274 0.18911 0.0
C997 C 0.5234 0.72521 0.1665 0.0
C998 C 0.61737 0.71796 0.14314 0.0
C999 C 0.65001 0.72213 0.16568 0.0
N1000 N 0.65023 0.71591 0.21043 0.0
N1001 N 0.52286 0.69579 0.1235 0.0
C1002 C 0.61917 0.72187 0.18878 0.0
C1003 C 0.554 0.71353 0.14392 0.0
N1004 N 0.52603 0.73597 0.21095 0.0
N1005 N 0.64686 0.71834 0.12091 0.0
H1006 H 0.47763 0.68637 0.12423 0.0
H1007 H 0.54271 0.68271 0.10689 0.0
H1008 H 0.69307 0.71784 0.11957 0.0
H1009 H 0.62563 0.72281 0.10384 0.0
H1010 H 0.54661 0.74633 0.22771 0.0
H1011 H 0.47976 0.73431 0.21205 0.0
H1012 H 0.63032 0.7086 0.22763 0.0
H1013 H 0.69646 0.71428 0.21108 0.0
C1014 C 0.30499 0.5358 0.62988 0.0
C1015 C 0.32761 0.5069 0.65139 0.0
C1016 C 0.34526 0.60491 0.67034 0.0
C1017 C 0.31842 0.63327 0.64968 0.0
N1018 N 0.25956 0.62373 0.61257 0.0
N1019 N 0.35194 0.51571 0.695 0.0
C1020 C 0.29378 0.59799 0.63043 0.0
C1021 C 0.34289 0.54197 0.67247 0.0
N1022 N 0.29772 0.50485 0.60831 0.0
N1023 N 0.37384 0.63791 0.6879 0.0
H1024 H 0.34666 0.47052 0.69791 0.0
H1025 H 0.35764 0.53953 0.7114 0.0
H1026 H 0.37486 0.68395 0.68747 0.0
H1027 H 0.39986 0.61938 0.70185 0.0
H1028 H 0.28679 0.52458 0.59145 0.0
H1029 H 0.30918 0.46056 0.60658 0.0
H1030 H 0.2358 0.59969 0.5994 0.0
H1031 H 0.24974 0.66862 0.61268 0.0
C1032 C 0.98386 0.18673 0.8793 0.0
C1033 C 1.00003 0.17696 0.90446 0.0
C1034 C 0.89344 0.17508 0.91567 0.0
C1035 C 0.87846 0.19504 0.89144 0.0
N1036 N 0.91018 0.22298 0.85028 0.0
N1037 N 0.96696 0.12818 0.94184 0.0
C1038 C 0.92389 0.20137 0.87324 0.0
C1039 C 0.95389 0.1619 0.92152 0.0
N1040 N 0.02377 0.17454 0.8609 0.0
N1041 N 0.84982 0.16828 0.93316 0.0
H1042 H 1.0083 0.10828 0.94419 0.0
H1043 H 0.93519 0.1119 0.95415 0.0
H1044 H 0.80474 0.17272 0.92919 0.0
H1045 H 0.85845 0.16201 0.95198 0.0
H1046 H 0.01333 0.17589 0.84205 0.0
H1047 H 0.0646 0.15473 0.86458 0.0
H1048 H 0.94229 0.23473 0.8372 0.0
H1049 H 0.86699 0.23403 0.84516 0.0
C1050 C 0.75823 0.89463 0.41505 0.0
C1051 C 0.80329 0.86911 0.39985 0.0
C1052 C 0.83565 0.96941 0.38771 0.0
C1053 C 0.78571 0.99402 0.40004 0.0
N1054 N 0.69956 0.98028 0.42589 0.0
N1055 N 0.87967 0.88242 0.36882 0.0
C1056 C 0.74726 0.95649 0.41386 0.0
C1057 C 0.84096 0.90668 0.38557 0.0
N1058 N 0.7275 0.8605 0.43162 0.0
N1059 N 0.87837 1.00589 0.37824 0.0
H1060 H 0.88325 0.83702 0.36595 0.0
H1061 H 0.90386 0.90721 0.35602 0.0
H1062 H 0.87667 0.05159 0.38024 0.0
H1063 H 0.91847 0.99078 0.37097 0.0
H1064 H 0.70006 0.87752 0.44547 0.0
H1065 H 0.73234 0.81513 0.4329 0.0
H1066 H 0.66386 0.95568 0.43262 0.0
H1067 H 0.69552 0.02545 0.42865 0.0
C1068 C 0.04012 0.82569 0.88187 0.0
C1069 C 0.01724 0.79748 0.90341 0.0
C1070 C 0.11816 0.79276 0.9207 0.0
C1071 C 0.14179 0.81007 0.89736 0.0
N1072 N 0.12558 0.84295 0.85525 0.0
N1073 N 0.034 0.75451 0.94374 0.0
C1074 C 0.10285 0.82755 0.87792 0.0
C1075 C 0.0562 0.78168 0.92304 0.0
N1076 N 1.00198 0.85033 0.86512 0.0
N1077 N 0.15475 0.789 0.94088 0.0
H1078 H 0.9886 0.74916 0.94681 0.0
H1079 H 0.06048 0.73459 0.95718 0.0
H1080 H 0.19992 0.79909 0.94 0.0
H1081 H 0.13954 0.78192 0.95893 0.0
H1082 H 0.01575 0.87611 0.85017 0.0
H1083 H 0.95609 0.85017 0.86756 0.0
H1084 H 0.09973 0.84878 0.83943 0.0
H1085 H 0.17094 0.84621 0.85172 0.0
C1086 C 0.19272 0.09428 0.3731 0.0
C1087 C 0.22278 0.12169 0.39327 0.0
C1088 C 0.22978 0.02519 0.41381 0.0
C1089 C 0.2099 0.99648 0.392 0.0
N1090 N 0.17273 1.00401 0.35018 0.0
N1091 N 0.28135 0.10989 0.43048 0.0
C1092 C 0.19123 0.0313 0.37145 0.0
C1093 C 0.24483 0.08614 0.41291 0.0
N1094 N 0.16535 0.12829 0.35556 0.0
N1095 N 0.23236 0.99496 0.43565 0.0
H1096 H 0.29659 0.15318 0.42952 0.0
H1097 H 0.30237 0.08457 0.44402 0.0
H1098 H 0.21497 0.95258 0.43734 0.0
H1099 H 0.24314 0.01476 0.45255 0.0
H1100 H 0.13731 0.11121 0.34196 0.0
H1101 H 0.16771 0.17426 0.3555 0.0
H1102 H 0.16598 0.02609 0.33345 0.0
H1103 H 0.16625 0.9585 0.34912 0.0
C1104 C 0.53714 0.72075 0.92136 0.0
C1105 C 0.51606 0.70814 0.89715 0.0
C1106 C 0.61929 0.69146 0.88345 0.0
C1107 C 0.64 0.71782 0.9057 0.0
N1108 N 0.61787 0.75838 0.94633 0.0
N1109 N 0.53657 0.67335 0.85567 0.0
C1110 C 0.59878 0.73191 0.92496 0.0
C1111 C 0.55717 0.69053 0.87842 0.0
N1112 N 0.49876 0.72086 0.94101 0.0
N1113 N 0.65869 0.66468 0.86773 0.0
H1114 H 0.49158 0.6657 0.85231 0.0
H1115 H 0.56368 0.66816 0.84011 0.0
H1116 H 0.70428 0.6636 0.87109 0.0
H1117 H 0.64592 0.63894 0.85262 0.0
H1118 H 0.51219 0.72542 0.95942 0.0
H1119 H 0.45478 0.70771 0.93928 0.0
H1120 H 0.58916 0.77647 0.95949 0.0
H1121 H 0.6623 0.76701 0.9501 0.0
C1122 C 0.35084 0.52838 0.39085 0.0
C1123 C 0.30814 0.49968 0.40589 0.0
C1124 C 0.2747 0.59641 0.42162 0.0
C1125 C 0.31069 0.62526 0.4035 0.0
N1126 N 0.37997 0.61795 0.3693 0.0
N1127 N 0.23542 0.50481 0.43826 0.0
C1128 C 0.34856 0.59102 0.38788 0.0
C1129 C 0.27217 0.53353 0.42216 0.0
N1130 N 0.39452 0.49561 0.37996 0.0
N1131 N 0.2447 0.62889 0.439 0.0
H1132 H 0.24121 0.46022 0.44199 0.0
H1133 H 0.20048 0.5245 0.44787 0.0
H1134 H 0.24395 0.67465 0.43904 0.0
H1135 H 0.22313 0.611 0.45436 0.0
H1136 H 0.43005 0.51379 0.37017 0.0
H1137 H 0.39893 0.45058 0.38356 0.0
H1138 H 0.40352 0.59488 0.35575 0.0
H1139 H 0.37819 0.66327 0.36599 0.0
C1140 C 0.47491 0.31821 0.88173 0.0
C1141 C 0.50123 0.28953 0.90243 0.0
C1142 C 0.40212 0.27077 0.91998 0.0
C1143 C 0.37513 0.30039 0.89962 0.0
N1144 N 0.38701 0.36376 0.8639 0.0
N1145 N 0.49095 0.25698 0.94466 0.0
C1146 C 0.412 0.32808 0.88145 0.0
C1147 C 0.46494 0.27205 0.92265 0.0
N1148 N 0.50942 0.33369 0.86188 0.0
N1149 N 0.36824 0.23966 0.93648 0.0
H1150 H 0.5369 0.25744 0.94705 0.0
H1151 H 0.46718 0.24962 0.961 0.0
H1152 H 0.32256 0.23553 0.93486 0.0
H1153 H 0.38591 0.21301 0.95038 0.0
H1154 H 0.49222 0.34741 0.84489 0.0
H1155 H 0.55558 0.33045 0.86211 0.0
H1156 H 0.41172 0.38987 0.85175 0.0
H1157 H 0.34134 0.37058 0.86265 0.0
C1158 C 0.73879 0.40786 0.41082 0.0
C1159 C 0.71361 0.37527 0.3909 0.0
C1160 C 0.68037 0.46873 0.37216 0.0
C1161 C 0.69613 0.49974 0.39423 0.0
N1162 N 0.73083 0.4951 0.43659 0.0
N1163 N 0.65557 0.37466 0.35327 0.0
C1164 C 0.7231 0.4683 0.41408 0.0
C1165 C 0.68279 0.40577 0.37181 0.0
N1166 N 0.77798 0.38151 0.42661 0.0
N1167 N 0.6664 0.4991 0.35103 0.0
H1168 H 0.65932 0.32898 0.35147 0.0
H1169 H 0.62651 0.39387 0.34059 0.0
H1170 H 0.66723 0.54499 0.34989 0.0
H1171 H 0.66043 0.47874 0.33385 0.0
H1172 H 0.80144 0.40464 0.44017 0.0
H1173 H 0.79259 0.33835 0.42416 0.0
H1174 H 0.74517 0.47273 0.45239 0.0
H1175 H 0.71638 0.53794 0.44022 0.0
C1176 C 0.04893 0.77441 0.13613 0.0
C1177 C 0.02541 0.82374 0.14929 0.0
C1178 C 0.1252 0.8696 0.14828 0.0
C1179 C 0.14971 0.81643 0.13864 0.0
N1180 N 0.13546 0.71613 0.12502 0.0
N1181 N 0.04154 0.91915 0.16791 0.0
C1182 C 0.11165 0.76841 0.13296 0.0
C1183 C 0.06381 0.87164 0.15529 0.0
N1184 N 0.01167 0.73363 0.12596 0.0
N1185 N 0.16034 0.91858 0.15033 0.0
H1186 H 0.99622 0.92481 0.17124 0.0
H1187 H 0.06792 0.95182 0.17587 0.0
H1188 H 0.20531 0.91848 0.14577 0.0
H1189 H 0.14426 0.9604 0.15467 0.0
H1190 H 0.02603 0.70256 0.11307 0.0
H1191 H 0.96588 0.73486 0.12793 0.0
H1192 H 0.1111 0.6771 0.12379 0.0
H1193 H 0.18066 0.71047 0.12142 0.0
C1194 C 0.17462 0.11674 0.63672 0.0
C1195 C 0.21606 0.13263 0.65548 0.0
C1196 C 0.22495 0.02751 0.66631 0.0
C1197 C 0.19624 0.01047 0.64395 0.0
N1198 N 0.12952 0.04079 0.61115 0.0
N1199 N 0.28434 0.10127 0.68729 0.0
C1200 C 0.16725 0.05582 0.62995 0.0
C1201 C 0.24256 0.08736 0.66989 0.0
N1202 N 0.1389 0.15934 0.62673 0.0
N1203 N 0.22864 0.98865 0.68553 0.0
H1204 H 0.29844 0.14452 0.6905 0.0
H1205 H 0.30854 0.06918 0.69676 0.0
H1206 H 0.20548 0.94878 0.68537 0.0
H1207 H 0.24554 1.00008 0.70291 0.0
H1208 H 0.10366 0.15067 0.61479 0.0
H1209 H 0.14116 0.20356 0.63203 0.0
H1210 H 0.11588 0.07016 0.59743 0.0
H1211 H 0.11023 0.99905 0.60981 0.0
C1212 C 0.92607 0.18473 0.16651 0.0
C1213 C 0.89862 0.2202 0.14805 0.0
C1214 C 0.99647 0.23601 0.12886 0.0
C1215 C 0.02478 0.20529 0.14864 0.0
N1216 N 0.01498 0.16814 0.19065 0.0
N1217 N 0.91083 0.29239 0.11555 0.0
C1218 C 0.98919 0.18473 0.16878 0.0
C1219 C 0.93494 0.25048 0.13065 0.0
N1220 N 0.89217 0.14994 0.18165 0.0
N1221 N 0.02694 0.24757 0.10747 0.0
H1222 H 0.86641 0.30485 0.11675 0.0
H1223 H 0.93641 0.31922 0.10397 0.0
H1224 H 0.0698 0.232 0.10446 0.0
H1225 H 1.00723 0.26551 0.09168 0.0
H1226 H 0.91038 0.11872 0.19364 0.0
H1227 H 0.84589 0.14913 0.18083 0.0
H1228 H 0.99036 0.1577 0.20648 0.0
H1229 H 0.06039 0.17202 0.194 0.0
C1230 C 0.82338 0.97907 0.65826 0.0
C1231 C 0.78867 1.0028 0.6387 0.0
C1232 C 0.75805 0.90385 0.62612 0.0
C1233 C 0.79462 0.87891 0.64498 0.0
N1234 N 0.8677 0.89258 0.67732 0.0
N1235 N 0.73899 0.98831 0.59983 0.0
C1236 C 0.82966 0.91654 0.66033 0.0
C1237 C 0.76192 0.96501 0.62116 0.0
N1238 N 0.84744 0.01596 0.67564 0.0
N1239 N 0.71717 0.87047 0.61368 0.0
H1240 H 0.74089 0.03342 0.59606 0.0
H1241 H 0.72415 0.9627 0.58498 0.0
H1242 H 0.70861 0.82651 0.61753 0.0
H1243 H 0.68599 0.88829 0.60155 0.0
H1244 H 0.86615 1.00146 0.69222 0.0
H1245 H 0.84672 0.06174 0.6739 0.0
H1246 H 0.89953 0.91704 0.68686 0.0
H1247 H 0.86922 0.84752 0.68124 0.0
loop_
_geom_bond_atom_site_label_1
_geom_bond_atom_site_label_2
_geom_bond_distance
_geom_bond_site_symmetry_2
_ccdc_geom_bond_type
C0 C1 1.351 . S
C0 N3 1.368 . S
C0 H5 0.931 . S
C1 C0 1.351 . S
C1 N2 1.373 . S
C1 H29 0.930 . S
N2 C1 1.373 . S
N2 C4 1.340 . S
N3 C0 1.368 . S
N3 C4 1.321 . S
N3 Co6 2.135 . S
C4 N2 1.340 . S
C4 N3 1.321 . S
C4 H28 0.930 . S
H5 C0 0.931 . S
Co6 N3 2.135 . S
Co6 N9 2.121 . S
Co6 O14 2.055 . S
Co6 O17 2.039 . S
Co6 N20 2.140 . S
C7 O8 1.227 . S
C7 O17 1.265 1_655 S
O8 C7 1.227 . S
N9 Co6 2.121 . S
N9 C11 1.375 . S
N9 C12 1.313 . S
C10 C11 1.338 . S
C10 N13 1.377 . S
C10 H30 0.930 . S
C11 N9 1.375 . S
C11 C10 1.338 . S
C11 H15 0.931 . S
C12 N9 1.313 . S
C12 N13 1.344 . S
C12 H16 0.930 . S
N13 C10 1.377 . S
N13 C12 1.344 . S
O14 Co6 2.055 . S
O14 C18 1.253 . S
H15 C11 0.931 . S
H16 C12 0.930 . S
O17 Co6 2.039 . S
O17 C7 1.265 1_455 S
C18 O14 1.253 . S
C18 O19 1.227 . S
O19 C18 1.227 . S
N20 Co6 2.140 . S
N20 C23 1.346 . S
N20 C24 1.345 . S
C21 C22 1.387 . S
C21 C25 1.391 . S
C22 C21 1.387 . S
C22 C23 1.369 . S
C22 H31 0.929 . S
C23 N20 1.346 . S
C23 C22 1.369 . S
C23 H26 0.928 . S
C24 N20 1.345 . S
C24 C25 1.371 . S
C24 H27 0.931 . S
C25 C21 1.391 . S
C25 C24 1.371 . S
C25 H32 0.930 . S
H26 C23 0.928 . S
H27 C24 0.931 . S
H28 C4 0.930 . S
H29 C1 0.930 . S
H30 C10 0.930 . S
H31 C22 0.929 . S
H32 C25 0.930 . S
C33 C34 1.351 . S
C33 N36 1.368 . S
C33 H38 0.931 . S
C34 C33 1.351 . S
C34 N35 1.373 . S
C34 H62 0.930 . S
N35 C34 1.373 . S
N35 C37 1.340 . S
N36 C33 1.368 . S
N36 C37 1.321 . S
N36 Co39 2.135 . S
C37 N35 1.340 . S
C37 N36 1.321 . S
C37 H61 0.930 . S
H38 C33 0.931 . S
Co39 N36 2.135 . S
Co39 N42 2.121 . S
Co39 O47 2.055 . S
Co39 O50 2.039 . S
Co39 N53 2.140 . S
C40 O41 1.227 . S
C40 O50 1.265 1_565 S
O41 C40 1.227 . S
N42 Co39 2.121 . S
N42 C44 1.375 . S
N42 C45 1.313 . S
C43 C44 1.338 . S
C43 N46 1.377 . S
C43 H63 0.930 . S
C44 N42 1.375 . S
C44 C43 1.338 . S
C44 H48 0.931 . S
C45 N42 1.313 . S
C45 N46 1.344 . S
C45 H49 0.930 . S
N46 C43 1.377 . S
N46 C45 1.344 . S
O47 Co39 2.055 . S
O47 C51 1.253 . S
H48 C44 0.931 . S
H49 C45 0.930 . S
O50 Co39 2.039 . S
O50 C40 1.265 1_545 S
C51 O47 1.253 . S
C51 O52 1.227 . S
O52 C51 1.227 . S
N53 Co39 2.140 . S
N53 C56 1.346 . S
N53 C57 1.345 . S
C54 C55 1.387 . S
C54 C58 1.391 . S
C55 C54 1.387 . S
C55 C56 1.369 . S
C55 H64 0.929 . S
C56 N53 1.346 . S
C56 C55 1.369 . S
C56 H59 0.928 . S
C57 N53 1.345 . S
C57 C58 1.371 . S
C57 H60 0.931 . S
C58 C54 1.391 . S
C58 C57 1.371 . S
C58 H65 0.930 . S
H59 C56 0.928 . S
H60 C57 0.931 . S
H61 C37 0.930 . S
H62 C34 0.930 . S
H63 C43 0.930 . S
H64 C55 0.929 . S
H65 C58 0.930 . S
C66 C67 1.351 . S
C66 N69 1.368 . S
C66 H71 0.931 . S
C67 C66 1.351 . S
C67 N68 1.373 . S
C67 H95 0.930 . S
N68 C67 1.373 . S
N68 C70 1.340 . S
N69 C66 1.368 . S
N69 C70 1.321 . S
N69 Co72 2.135 . S
C70 N68 1.340 . S
C70 N69 1.321 . S
C70 H94 0.930 . S
H71 C66 0.931 . S
Co72 N69 2.135 . S
Co72 N75 2.121 . S
Co72 O80 2.055 . S
Co72 O83 2.039 . S
Co72 N86 2.140 . S
C73 O74 1.227 . S
C73 O83 1.265 1_455 S
O74 C73 1.227 . S
N75 Co72 2.121 . S
N75 C77 1.375 . S
N75 C78 1.313 . S
C76 C77 1.338 . S
C76 N79 1.377 . S
C76 H96 0.930 . S
C77 N75 1.375 . S
C77 C76 1.338 . S
C77 H81 0.931 . S
C78 N75 1.313 . S
C78 N79 1.344 . S
C78 H82 0.930 . S
N79 C76 1.377 . S
N79 C78 1.344 . S
O80 Co72 2.055 . S
O80 C84 1.253 . S
H81 C77 0.931 . S
H82 C78 0.930 . S
O83 Co72 2.039 . S
O83 C73 1.265 1_655 S
C84 O80 1.253 . S
C84 O85 1.227 . S
O85 C84 1.227 . S
N86 Co72 2.140 . S
N86 C89 1.346 . S
N86 C90 1.345 . S
C87 C88 1.387 . S
C87 C91 1.391 . S
C88 C87 1.387 . S
C88 C89 1.369 . S
C88 H97 0.929 . S
C89 N86 1.346 . S
C89 C88 1.369 . S
C89 H92 0.928 . S
C90 N86 1.345 . S
C90 C91 1.371 . S
C90 H93 0.931 . S
C91 C87 1.391 . S
C91 C90 1.371 . S
C91 H98 0.930 . S
H92 C89 0.928 . S
H93 C90 0.931 . S
H94 C70 0.930 . S
H95 C67 0.930 . S
H96 C76 0.930 . S
H97 C88 0.929 . S
H98 C91 0.930 . S
C99 C100 1.351 . S
C99 N102 1.368 . S
C99 H104 0.931 . S
C100 C99 1.351 . S
C100 N101 1.373 . S
C100 H128 0.930 . S
N101 C100 1.373 . S
N101 C103 1.340 . S
N102 C99 1.368 . S
N102 C103 1.321 . S
N102 Co105 2.135 . S
C103 N101 1.340 . S
C103 N102 1.321 . S
C103 H127 0.930 . S
H104 C99 0.931 . S
Co105 N102 2.135 . S
Co105 N108 2.121 . S
Co105 O113 2.055 . S
Co105 O116 2.039 . S
Co105 N119 2.140 . S
C106 O107 1.227 . S
C106 O116 1.265 1_545 S
O107 C106 1.227 . S
N108 Co105 2.121 . S
N108 C110 1.375 . S
N108 C111 1.313 . S
C109 C110 1.338 . S
C109 N112 1.377 . S
C109 H129 0.930 . S
C110 N108 1.375 . S
C110 C109 1.338 . S
C110 H114 0.931 . S
C111 N108 1.313 . S
C111 N112 1.344 . S
C111 H115 0.930 . S
N112 C109 1.377 . S
N112 C111 1.344 . S
O113 Co105 2.055 . S
O113 C117 1.253 . S
H114 C110 0.931 . S
H115 C111 0.930 . S
O116 Co105 2.039 . S
O116 C106 1.265 1_565 S
C117 O113 1.253 . S
C117 O118 1.227 . S
O118 C117 1.227 . S
N119 Co105 2.140 . S
N119 C122 1.346 . S
N119 C123 1.345 . S
C120 C121 1.387 . S
C120 C124 1.391 . S
C121 C120 1.387 . S
C121 C122 1.369 . S
C121 H130 0.929 . S
C122 N119 1.346 . S
C122 C121 1.369 . S
C122 H125 0.928 . S
C123 N119 1.345 . S
C123 C124 1.371 . S
C123 H126 0.931 . S
C124 C120 1.391 . S
C124 C123 1.371 . S
C124 H131 0.930 . S
H125 C122 0.928 . S
H126 C123 0.931 . S
H127 C103 0.930 . S
H128 C100 0.930 . S
H129 C109 0.930 . S
H130 C121 0.929 . S
H131 C124 0.930 . S
C132 C133 1.351 . S
C132 N135 1.368 . S
C132 H137 0.931 . S
C133 C132 1.351 . S
C133 N134 1.373 . S
C133 H161 0.930 . S
N134 C133 1.373 . S
N134 C136 1.340 . S
N135 C132 1.368 . S
N135 C136 1.321 . S
N135 Co138 2.135 . S
C136 N134 1.340 . S
C136 N135 1.321 . S
C136 H160 0.930 . S
H137 C132 0.931 . S
Co138 N135 2.135 . S
Co138 N141 2.121 . S
Co138 O146 2.055 . S
Co138 O149 2.039 . S
Co138 N152 2.140 . S
C139 O140 1.227 . S
C139 O149 1.265 . S
O140 C139 1.227 . S
N141 Co138 2.121 . S
N141 C143 1.375 . S
N141 C144 1.313 . S
C142 C143 1.338 . S
C142 N145 1.377 . S
C142 H162 0.930 . S
C143 N141 1.375 . S
C143 C142 1.338 . S
C143 H147 0.931 . S
C144 N141 1.313 . S
C144 N145 1.344 . S
C144 H148 0.930 . S
N145 C142 1.377 . S
N145 C144 1.344 . S
O146 Co138 2.055 . S
O146 C150 1.253 . S
H147 C143 0.931 . S
H148 C144 0.930 . S
O149 Co138 2.039 . S
O149 C139 1.265 . S
C150 O146 1.253 . S
C150 O151 1.227 . S
O151 C150 1.227 . S
N152 Co138 2.140 . S
N152 C155 1.346 . S
N152 C156 1.345 . S
C153 C154 1.387 . S
C153 C157 1.391 . S
C154 C153 1.387 . S
C154 C155 1.369 . S
C154 H163 0.929 . S
C155 N152 1.346 . S
C155 C154 1.369 . S
C155 H158 0.928 . S
C156 N152 1.345 . S
C156 C157 1.371 . S
C156 H159 0.931 . S
C157 C153 1.391 . S
C157 C156 1.371 . S
C157 H164 0.930 . S
H158 C155 0.928 . S
H159 C156 0.931 . S
H160 C136 0.930 . S
H161 C133 0.930 . S
H162 C142 0.930 . S
H163 C154 0.929 . S
H164 C157 0.930 . S
C165 C166 1.351 . S
C165 N168 1.368 . S
C165 H170 0.931 . S
C166 C165 1.351 . S
C166 N167 1.373 . S
C166 H194 0.930 . S
N167 C166 1.373 . S
N167 C169 1.340 . S
N168 C165 1.368 . S
N168 C169 1.321 . S
N168 Co171 2.135 . S
C169 N167 1.340 . S
C169 N168 1.321 . S
C169 H193 0.930 . S
H170 C165 0.931 . S
Co171 N168 2.135 . S
Co171 N174 2.121 . S
Co171 O179 2.055 . S
Co171 O182 2.039 . S
Co171 N185 2.140 . S
C172 O173 1.227 . S
C172 O182 1.265 . S
O173 C172 1.227 . S
N174 Co171 2.121 . S
N174 C176 1.375 . S
N174 C177 1.313 . S
C175 C176 1.338 . S
C175 N178 1.377 . S
C175 H195 0.930 . S
C176 N174 1.375 . S
C176 C175 1.338 . S
C176 H180 0.931 . S
C177 N174 1.313 . S
C177 N178 1.344 . S
C177 H181 0.930 . S
N178 C175 1.377 . S
N178 C177 1.344 . S
O179 Co171 2.055 . S
O179 C183 1.253 . S
H180 C176 0.931 . S
H181 C177 0.930 . S
O182 Co171 2.039 . S
O182 C172 1.265 . S
C183 O179 1.253 . S
C183 O184 1.227 . S
O184 C183 1.227 . S
N185 Co171 2.140 . S
N185 C188 1.346 . S
N185 C189 1.345 . S
C186 C187 1.387 . S
C186 C190 1.391 . S
C187 C186 1.387 . S
C187 C188 1.369 . S
C187 H196 0.929 . S
C188 N185 1.346 . S
C188 C187 1.369 . S
C188 H191 0.928 . S
C189 N185 1.345 . S
C189 C190 1.371 . S
C189 H192 0.931 . S
C190 C186 1.391 . S
C190 C189 1.371 . S
C190 H197 0.930 . S
H191 C188 0.928 . S
H192 C189 0.931 . S
H193 C169 0.930 . S
H194 C166 0.930 . S
H195 C175 0.930 . S
H196 C187 0.929 . S
H197 C190 0.930 . S
C198 C199 1.351 . S
C198 N201 1.368 . S
C198 H203 0.931 . S
C199 C198 1.351 . S
C199 N200 1.373 . S
C199 H227 0.930 . S
N200 C199 1.373 . S
N200 C202 1.340 . S
N201 C198 1.368 . S
N201 C202 1.321 . S
N201 Co204 2.135 . S
C202 N200 1.340 . S
C202 N201 1.321 . S
C202 H226 0.930 . S
H203 C198 0.931 . S
Co204 N201 2.135 . S
Co204 N207 2.121 . S
Co204 O212 2.055 . S
Co204 O215 2.039 . S
Co204 N218 2.140 . S
C205 O206 1.227 . S
C205 O215 1.265 . S
O206 C205 1.227 . S
N207 Co204 2.121 . S
N207 C209 1.375 . S
N207 C210 1.313 . S
C208 C209 1.338 . S
C208 N211 1.377 . S
C208 H228 0.930 . S
C209 N207 1.375 . S
C209 C208 1.338 . S
C209 H213 0.931 . S
C210 N207 1.313 . S
C210 N211 1.344 . S
C210 H214 0.930 . S
N211 C208 1.377 . S
N211 C210 1.344 . S
O212 Co204 2.055 . S
O212 C216 1.253 . S
H213 C209 0.931 . S
H214 C210 0.930 . S
O215 Co204 2.039 . S
O215 C205 1.265 . S
C216 O212 1.253 . S
C216 O217 1.227 . S
O217 C216 1.227 . S
N218 Co204 2.140 . S
N218 C221 1.346 . S
N218 C222 1.345 . S
C219 C220 1.387 . S
C219 C223 1.391 . S
C220 C219 1.387 . S
C220 C221 1.369 . S
C220 H229 0.929 . S
C221 N218 1.346 . S
C221 C220 1.369 . S
C221 H224 0.928 . S
C222 N218 1.345 . S
C222 C223 1.371 . S
C222 H225 0.931 . S
C223 C219 1.391 . S
C223 C222 1.371 . S
C223 H230 0.930 . S
H224 C221 0.928 . S
H225 C222 0.931 . S
H226 C202 0.930 . S
H227 C199 0.930 . S
H228 C208 0.930 . S
H229 C220 0.929 . S
H230 C223 0.930 . S
C231 C232 1.351 . S
C231 N234 1.368 . S
C231 H236 0.931 . S
C232 C231 1.351 . S
C232 N233 1.373 . S
C232 H260 0.930 . S
N233 C232 1.373 . S
N233 C235 1.340 . S
N234 C231 1.368 . S
N234 C235 1.321 . S
N234 Co237 2.135 . S
C235 N233 1.340 . S
C235 N234 1.321 . S
C235 H259 0.930 . S
H236 C231 0.931 . S
Co237 N234 2.135 . S
Co237 N240 2.121 . S
Co237 O245 2.055 . S
Co237 O248 2.039 . S
Co237 N251 2.140 . S
C238 O239 1.227 . S
C238 O248 1.265 . S
O239 C238 1.227 . S
N240 Co237 2.121 . S
N240 C242 1.375 . S
N240 C243 1.313 . S
C241 C242 1.338 . S
C241 N244 1.377 . S
C241 H261 0.930 . S
C242 N240 1.375 . S
C242 C241 1.338 . S
C242 H246 0.931 . S
C243 N240 1.313 . S
C243 N244 1.344 . S
C243 H247 0.930 . S
N244 C241 1.377 . S
N244 C243 1.344 . S
O245 Co237 2.055 . S
O245 C249 1.253 . S
H246 C242 0.931 . S
H247 C243 0.930 . S
O248 Co237 2.039 . S
O248 C238 1.265 . S
C249 O245 1.253 . S
C249 O250 1.227 . S
O250 C249 1.227 . S
N251 Co237 2.140 . S
N251 C254 1.346 . S
N251 C255 1.345 . S
C252 C253 1.387 . S
C252 C256 1.391 . S
C253 C252 1.387 . S
C253 C254 1.369 . S
C253 H262 0.929 . S
C254 N251 1.346 . S
C254 C253 1.369 . S
C254 H257 0.928 . S
C255 N251 1.345 . S
C255 C256 1.371 . S
C255 H258 0.931 . S
C256 C252 1.391 . S
C256 C255 1.371 . S
C256 H263 0.930 . S
H257 C254 0.928 . S
H258 C255 0.931 . S
H259 C235 0.930 . S
H260 C232 0.930 . S
H261 C241 0.930 . S
H262 C253 0.929 . S
H263 C256 0.930 . S
C264 C265 1.351 . S
C264 N267 1.368 . S
C264 H269 0.931 . S
C265 C264 1.351 . S
C265 N266 1.373 . S
C265 H293 0.930 . S
N266 C265 1.373 . S
N266 C268 1.340 . S
N267 C264 1.368 . S
N267 C268 1.321 . S
N267 Co270 2.135 . S
C268 N266 1.340 . S
C268 N267 1.321 . S
C268 H292 0.930 . S
H269 C264 0.931 . S
Co270 N267 2.135 . S
Co270 N273 2.121 . S
Co270 O278 2.055 . S
Co270 O281 2.039 . S
Co270 N284 2.140 . S
C271 O272 1.227 . S
C271 O281 1.265 1_455 S
O272 C271 1.227 . S
N273 Co270 2.121 . S
N273 C275 1.375 . S
N273 C276 1.313 . S
C274 C275 1.338 . S
C274 N277 1.377 . S
C274 H294 0.930 . S
C275 N273 1.375 . S
C275 C274 1.338 . S
C275 H279 0.931 . S
C276 N273 1.313 . S
C276 N277 1.344 . S
C276 H280 0.930 . S
N277 C274 1.377 . S
N277 C276 1.344 . S
O278 Co270 2.055 . S
O278 C282 1.253 . S
H279 C275 0.931 . S
H280 C276 0.930 . S
O281 Co270 2.039 . S
O281 C271 1.265 1_655 S
C282 O278 1.253 . S
C282 O283 1.227 . S
O283 C282 1.227 . S
N284 Co270 2.140 . S
N284 C287 1.346 . S
N284 C288 1.345 . S
C285 C286 1.387 . S
C285 C289 1.391 . S
C286 C285 1.387 . S
C286 C287 1.369 . S
C286 H295 0.929 . S
C287 N284 1.346 . S
C287 C286 1.369 . S
C287 H290 0.928 . S
C288 N284 1.345 . S
C288 C289 1.371 . S
C288 H291 0.931 . S
C289 C285 1.391 . S
C289 C288 1.371 . S
C289 H296 0.930 . S
H290 C287 0.928 . S
H291 C288 0.931 . S
H292 C268 0.930 . S
H293 C265 0.930 . S
H294 C274 0.930 . S
H295 C286 0.929 . S
H296 C289 0.930 . S
C297 C298 1.351 . S
C297 N300 1.368 . S
C297 H302 0.931 . S
C298 C297 1.351 . S
C298 N299 1.373 . S
C298 H326 0.930 . S
N299 C298 1.373 . S
N299 C301 1.340 . S
N300 C297 1.368 . S
N300 C301 1.321 . S
N300 Co303 2.135 . S
C301 N299 1.340 . S
C301 N300 1.321 . S
C301 H325 0.930 . S
H302 C297 0.931 . S
Co303 N300 2.135 . S
Co303 N306 2.121 . S
Co303 O311 2.055 . S
Co303 O314 2.039 . S
Co303 N317 2.140 . S
C304 O305 1.227 . S
C304 O314 1.265 1_545 S
O305 C304 1.227 . S
N306 Co303 2.121 . S
N306 C308 1.375 . S
N306 C309 1.313 . S
C307 C308 1.338 . S
C307 N310 1.377 . S
C307 H327 0.930 . S
C308 N306 1.375 . S
C308 C307 1.338 . S
C308 H312 0.931 . S
C309 N306 1.313 . S
C309 N310 1.344 . S
C309 H313 0.930 . S
N310 C307 1.377 . S
N310 C309 1.344 . S
O311 Co303 2.055 . S
O311 C315 1.253 . S
H312 C308 0.931 . S
H313 C309 0.930 . S
O314 Co303 2.039 . S
O314 C304 1.265 1_565 S
C315 O311 1.253 . S
C315 O316 1.227 . S
O316 C315 1.227 . S
N317 Co303 2.140 . S
N317 C320 1.346 . S
N317 C321 1.345 . S
C318 C319 1.387 . S
C318 C322 1.391 . S
C319 C318 1.387 . S
C319 C320 1.369 . S
C319 H328 0.929 . S
C320 N317 1.346 . S
C320 C319 1.369 . S
C320 H323 0.928 . S
C321 N317 1.345 . S
C321 C322 1.371 . S
C321 H324 0.931 . S
C322 C318 1.391 . S
C322 C321 1.371 . S
C322 H329 0.930 . S
H323 C320 0.928 . S
H324 C321 0.931 . S
H325 C301 0.930 . S
H326 C298 0.930 . S
H327 C307 0.930 . S
H328 C319 0.929 . S
H329 C322 0.930 . S
C330 C331 1.351 . S
C330 N333 1.368 . S
C330 H335 0.931 . S
C331 C330 1.351 . S
C331 N332 1.373 . S
C331 H359 0.930 . S
N332 C331 1.373 . S
N332 C334 1.340 . S
N333 C330 1.368 . S
N333 C334 1.321 . S
N333 Co336 2.135 . S
C334 N332 1.340 . S
C334 N333 1.321 . S
C334 H358 0.930 . S
H335 C330 0.931 . S
Co336 N333 2.135 . S
Co336 N339 2.121 . S
Co336 O344 2.055 . S
Co336 O347 2.039 . S
Co336 N350 2.140 . S
C337 O338 1.227 . S
C337 O347 1.265 1_655 S
O338 C337 1.227 . S
N339 Co336 2.121 . S
N339 C341 1.375 . S
N339 C342 1.313 . S
C340 C341 1.338 . S
C340 N343 1.377 . S
C340 H360 0.930 . S
C341 N339 1.375 . S
C341 C340 1.338 . S
C341 H345 0.931 . S
C342 N339 1.313 . S
C342 N343 1.344 . S
C342 H346 0.930 . S
N343 C340 1.377 . S
N343 C342 1.344 . S
O344 Co336 2.055 . S
O344 C348 1.253 . S
H345 C341 0.931 . S
H346 C342 0.930 . S
O347 Co336 2.039 . S
O347 C337 1.265 1_455 S
C348 O344 1.253 . S
C348 O349 1.227 . S
O349 C348 1.227 . S
N350 Co336 2.140 . S
N350 C353 1.346 . S
N350 C354 1.345 . S
C351 C352 1.387 . S
C351 C355 1.391 . S
C352 C351 1.387 . S
C352 C353 1.369 . S
C352 H361 0.929 . S
C353 N350 1.346 . S
C353 C352 1.369 . S
C353 H356 0.928 . S
C354 N350 1.345 . S
C354 C355 1.371 . S
C354 H357 0.931 . S
C355 C351 1.391 . S
C355 C354 1.371 . S
C355 H362 0.930 . S
H356 C353 0.928 . S
H357 C354 0.931 . S
H358 C334 0.930 . S
H359 C331 0.930 . S
H360 C340 0.930 . S
H361 C352 0.929 . S
H362 C355 0.930 . S
C363 C364 1.351 . S
C363 N366 1.368 . S
C363 H368 0.931 . S
C364 C363 1.351 . S
C364 N365 1.373 . S
C364 H392 0.930 . S
N365 C364 1.373 . S
N365 C367 1.340 . S
N366 C363 1.368 . S
N366 C367 1.321 . S
N366 Co369 2.135 . S
C367 N365 1.340 . S
C367 N366 1.321 . S
C367 H391 0.930 . S
H368 C363 0.931 . S
Co369 N366 2.135 . S
Co369 N372 2.121 . S
Co369 O377 2.055 . S
Co369 O380 2.039 . S
Co369 N383 2.140 . S
C370 O371 1.227 . S
C370 O380 1.265 1_565 S
O371 C370 1.227 . S
N372 Co369 2.121 . S
N372 C374 1.375 . S
N372 C375 1.313 . S
C373 C374 1.338 . S
C373 N376 1.377 . S
C373 H393 0.930 . S
C374 N372 1.375 . S
C374 C373 1.338 . S
C374 H378 0.931 . S
C375 N372 1.313 . S
C375 N376 1.344 . S
C375 H379 0.930 . S
N376 C373 1.377 . S
N376 C375 1.344 . S
O377 Co369 2.055 . S
O377 C381 1.253 . S
H378 C374 0.931 . S
H379 C375 0.930 . S
O380 Co369 2.039 . S
O380 C370 1.265 1_545 S
C381 O377 1.253 . S
C381 O382 1.227 . S
O382 C381 1.227 . S
N383 Co369 2.140 . S
N383 C386 1.346 . S
N383 C387 1.345 . S
C384 C385 1.387 . S
C384 C388 1.391 . S
C385 C384 1.387 . S
C385 C386 1.369 . S
C385 H394 0.929 . S
C386 N383 1.346 . S
C386 C385 1.369 . S
C386 H389 0.928 . S
C387 N383 1.345 . S
C387 C388 1.371 . S
C387 H390 0.931 . S
C388 C384 1.391 . S
C388 C387 1.371 . S
C388 H395 0.930 . S
H389 C386 0.928 . S
H390 C387 0.931 . S
H391 C367 0.930 . S
H392 C364 0.930 . S
H393 C373 0.930 . S
H394 C385 0.929 . S
H395 C388 0.930 . S
C396 C397 1.351 . S
C396 N399 1.368 . S
C396 H401 0.931 . S
C397 C396 1.351 . S
C397 N398 1.373 . S
C397 H425 0.930 . S
N398 C397 1.373 . S
N398 C400 1.340 . S
N399 C396 1.368 . S
N399 C400 1.321 . S
N399 Co402 2.135 . S
C400 N398 1.340 . S
C400 N399 1.321 . S
C400 H424 0.930 . S
H401 C396 0.931 . S
Co402 N399 2.135 . S
Co402 N405 2.121 . S
Co402 O410 2.055 . S
Co402 O413 2.039 . S
Co402 N416 2.140 . S
C403 O404 1.227 . S
C403 O413 1.265 . S
O404 C403 1.227 . S
N405 Co402 2.121 . S
N405 C407 1.375 . S
N405 C408 1.313 . S
C406 C407 1.338 . S
C406 N409 1.377 . S
C406 H426 0.930 . S
C407 N405 1.375 . S
C407 C406 1.338 . S
C407 H411 0.931 . S
C408 N405 1.313 . S
C408 N409 1.344 . S
C408 H412 0.930 . S
N409 C406 1.377 . S
N409 C408 1.344 . S
O410 Co402 2.055 . S
O410 C414 1.253 . S
H411 C407 0.931 . S
H412 C408 0.930 . S
O413 Co402 2.039 . S
O413 C403 1.265 . S
C414 O410 1.253 . S
C414 O415 1.227 . S
O415 C414 1.227 . S
N416 Co402 2.140 . S
N416 C419 1.346 . S
N416 C420 1.345 . S
C417 C418 1.387 . S
C417 C421 1.391 . S
C418 C417 1.387 . S
C418 C419 1.369 . S
C418 H427 0.929 . S
C419 N416 1.346 . S
C419 C418 1.369 . S
C419 H422 0.928 . S
C420 N416 1.345 . S
C420 C421 1.371 . S
C420 H423 0.931 . S
C421 C417 1.391 . S
C421 C420 1.371 . S
C421 H428 0.930 . S
H422 C419 0.928 . S
H423 C420 0.931 . S
H424 C400 0.930 . S
H425 C397 0.930 . S
H426 C406 0.930 . S
H427 C418 0.929 . S
H428 C421 0.930 . S
C429 C430 1.351 . S
C429 N432 1.368 . S
C429 H434 0.931 . S
C430 C429 1.351 . S
C430 N431 1.373 . S
C430 H458 0.930 . S
N431 C430 1.373 . S
N431 C433 1.340 . S
N432 C429 1.368 . S
N432 C433 1.321 . S
N432 Co435 2.135 . S
C433 N431 1.340 . S
C433 N432 1.321 . S
C433 H457 0.930 . S
H434 C429 0.931 . S
Co435 N432 2.135 . S
Co435 N438 2.121 . S
Co435 O443 2.055 . S
Co435 O446 2.039 . S
Co435 N449 2.140 . S
C436 O437 1.227 . S
C436 O446 1.265 . S
O437 C436 1.227 . S
N438 Co435 2.121 . S
N438 C440 1.375 . S
N438 C441 1.313 . S
C439 C440 1.338 . S
C439 N442 1.377 . S
C439 H459 0.930 . S
C440 N438 1.375 . S
C440 C439 1.338 . S
C440 H444 0.931 . S
C441 N438 1.313 . S
C441 N442 1.344 . S
C441 H445 0.930 . S
N442 C439 1.377 . S
N442 C441 1.344 . S
O443 Co435 2.055 . S
O443 C447 1.253 . S
H444 C440 0.931 . S
H445 C441 0.930 . S
O446 Co435 2.039 . S
O446 C436 1.265 . S
C447 O443 1.253 . S
C447 O448 1.227 . S
O448 C447 1.227 . S
N449 Co435 2.140 . S
N449 C452 1.346 . S
N449 C453 1.345 . S
C450 C451 1.387 . S
C450 C454 1.391 . S
C451 C450 1.387 . S
C451 C452 1.369 . S
C451 H460 0.929 . S
C452 N449 1.346 . S
C452 C451 1.369 . S
C452 H455 0.928 . S
C453 N449 1.345 . S
C453 C454 1.371 . S
C453 H456 0.931 . S
C454 C450 1.391 . S
C454 C453 1.371 . S
C454 H461 0.930 . S
H455 C452 0.928 . S
H456 C453 0.931 . S
H457 C433 0.930 . S
H458 C430 0.930 . S
H459 C439 0.930 . S
H460 C451 0.929 . S
H461 C454 0.930 . S
C462 C463 1.351 . S
C462 N465 1.368 . S
C462 H467 0.931 . S
C463 C462 1.351 . S
C463 N464 1.373 . S
C463 H491 0.930 . S
N464 C463 1.373 . S
N464 C466 1.340 . S
N465 C462 1.368 . S
N465 C466 1.321 . S
N465 Co468 2.135 . S
C466 N464 1.340 . S
C466 N465 1.321 . S
C466 H490 0.930 . S
H467 C462 0.931 . S
Co468 N465 2.135 . S
Co468 N471 2.121 . S
Co468 O476 2.055 . S
Co468 O479 2.039 . S
Co468 N482 2.140 . S
C469 O470 1.227 . S
C469 O479 1.265 . S
O470 C469 1.227 . S
N471 Co468 2.121 . S
N471 C473 1.375 . S
N471 C474 1.313 . S
C472 C473 1.338 . S
C472 N475 1.377 . S
C472 H492 0.930 . S
C473 N471 1.375 . S
C473 C472 1.338 . S
C473 H477 0.931 . S
C474 N471 1.313 . S
C474 N475 1.344 . S
C474 H478 0.930 . S
N475 C472 1.377 . S
N475 C474 1.344 . S
O476 Co468 2.055 . S
O476 C480 1.253 . S
H477 C473 0.931 . S
H478 C474 0.930 . S
O479 Co468 2.039 . S
O479 C469 1.265 . S
C480 O476 1.253 . S
C480 O481 1.227 . S
O481 C480 1.227 . S
N482 Co468 2.140 . S
N482 C485 1.346 . S
N482 C486 1.345 . S
C483 C484 1.387 . S
C483 C487 1.391 . S
C484 C483 1.387 . S
C484 C485 1.369 . S
C484 H493 0.929 . S
C485 N482 1.346 . S
C485 C484 1.369 . S
C485 H488 0.928 . S
C486 N482 1.345 . S
C486 C487 1.371 . S
C486 H489 0.931 . S
C487 C483 1.391 . S
C487 C486 1.371 . S
C487 H494 0.930 . S
H488 C485 0.928 . S
H489 C486 0.931 . S
H490 C466 0.930 . S
H491 C463 0.930 . S
H492 C472 0.930 . S
H493 C484 0.929 . S
H494 C487 0.930 . S
C495 C496 1.351 . S
C495 N498 1.368 . S
C495 H500 0.931 . S
C496 C495 1.351 . S
C496 N497 1.373 . S
C496 H524 0.930 . S
N497 C496 1.373 . S
N497 C499 1.340 . S
N498 C495 1.368 . S
N498 C499 1.321 . S
N498 Co501 2.135 . S
C499 N497 1.340 . S
C499 N498 1.321 . S
C499 H523 0.930 . S
H500 C495 0.931 . S
Co501 N498 2.135 . S
Co501 N504 2.121 . S
Co501 O509 2.055 . S
Co501 O512 2.039 . S
Co501 N515 2.140 . S
C502 O503 1.227 . S
C502 O512 1.265 . S
O503 C502 1.227 . S
N504 Co501 2.121 . S
N504 C506 1.375 . S
N504 C507 1.313 . S
C505 C506 1.338 . S
C505 N508 1.377 . S
C505 H525 0.930 . S
C506 N504 1.375 . S
C506 C505 1.338 . S
C506 H510 0.931 . S
C507 N504 1.313 . S
C507 N508 1.344 . S
C507 H511 0.930 . S
N508 C505 1.377 . S
N508 C507 1.344 . S
O509 Co501 2.055 . S
O509 C513 1.253 . S
H510 C506 0.931 . S
H511 C507 0.930 . S
O512 Co501 2.039 . S
O512 C502 1.265 . S
C513 O509 1.253 . S
C513 O514 1.227 . S
O514 C513 1.227 . S
N515 Co501 2.140 . S
N515 C518 1.346 . S
N515 C519 1.345 . S
C516 C517 1.387 . S
C516 C520 1.391 . S
C517 C516 1.387 . S
C517 C518 1.369 . S
C517 H526 0.929 . S
C518 N515 1.346 . S
C518 C517 1.369 . S
C518 H521 0.928 . S
C519 N515 1.345 . S
C519 C520 1.371 . S
C519 H522 0.931 . S
C520 C516 1.391 . S
C520 C519 1.371 . S
C520 H527 0.930 . S
H521 C518 0.928 . S
H522 C519 0.931 . S
H523 C499 0.930 . S
H524 C496 0.930 . S
H525 C505 0.930 . S
H526 C517 0.929 . S
H527 C520 0.930 . S
C528 C529 1.363 . S
C528 C534 1.379 . S
C528 N536 1.356 . S
C529 C528 1.363 . S
C529 C535 1.363 . S
C530 C531 1.363 . S
C530 C535 1.379 . S
C530 N537 1.356 . S
C531 C530 1.363 . S
C531 C534 1.363 . S
N532 C534 1.356 . S
N532 H544 0.984 . S
N532 H545 0.985 . S
N533 C535 1.356 . S
N533 H538 0.984 . S
N533 H539 0.985 . S
C534 C528 1.379 . S
C534 C531 1.363 . S
C534 N532 1.356 . S
C535 C529 1.363 . S
C535 C530 1.379 . S
C535 N533 1.356 . S
N536 C528 1.356 . S
N536 H542 0.984 . S
N536 H543 0.984 . S
N537 C530 1.356 . S
N537 H540 0.984 . S
N537 H541 0.985 . S
H538 N533 0.984 . S
H539 N533 0.985 . S
H540 N537 0.984 . S
H541 N537 0.985 . S
H542 N536 0.984 . S
H543 N536 0.984 . S
H544 N532 0.984 . S
H545 N532 0.985 . S
C546 C547 1.363 . S
C546 C552 1.379 . S
C546 N554 1.356 . S
C547 C546 1.363 . S
C547 C553 1.363 . S
C548 C549 1.363 . S
C548 C553 1.379 . S
C548 N555 1.356 . S
C549 C548 1.363 . S
C549 C552 1.363 . S
N550 C552 1.356 . S
N550 H562 0.984 . S
N550 H563 0.985 . S
N551 C553 1.356 . S
N551 H556 0.984 . S
N551 H557 0.985 . S
C552 C546 1.379 . S
C552 C549 1.363 . S
C552 N550 1.356 . S
C553 C547 1.363 . S
C553 C548 1.379 . S
C553 N551 1.356 . S
N554 C546 1.356 . S
N554 H560 0.984 . S
N554 H561 0.984 . S
N555 C548 1.356 . S
N555 H558 0.984 . S
N555 H559 0.985 . S
H556 N551 0.984 . S
H557 N551 0.985 . S
H558 N555 0.984 . S
H559 N555 0.985 . S
H560 N554 0.984 . S
H561 N554 0.984 . S
H562 N550 0.984 . S
H563 N550 0.985 . S
C564 C565 1.363 . S
C564 C570 1.379 . S
C564 N572 1.356 . S
C565 C564 1.363 . S
C565 C571 1.363 . S
C566 C567 1.363 . S
C566 C571 1.379 . S
C566 N573 1.356 . S
C567 C566 1.363 . S
C567 C570 1.363 . S
N568 C570 1.356 . S
N568 H580 0.984 . S
N568 H581 0.985 . S
N569 C571 1.356 . S
N569 H574 0.984 . S
N569 H575 0.985 . S
C570 C564 1.379 . S
C570 C567 1.363 . S
C570 N568 1.356 . S
C571 C565 1.363 . S
C571 C566 1.379 . S
C571 N569 1.356 . S
N572 C564 1.356 . S
N572 H578 0.984 . S
N572 H579 0.984 . S
N573 C566 1.356 . S
N573 H576 0.984 . S
N573 H577 0.985 . S
H574 N569 0.984 . S
H575 N569 0.985 . S
H576 N573 0.984 . S
H577 N573 0.985 . S
H578 N572 0.984 . S
H579 N572 0.984 . S
H580 N568 0.984 . S
H581 N568 0.985 . S
C582 C583 1.363 . S
C582 C588 1.379 . S
C582 N590 1.356 . S
C583 C582 1.363 . S
C583 C589 1.363 . S
C584 C585 1.363 . S
C584 C589 1.379 . S
C584 N591 1.356 . S
C585 C584 1.363 . S
C585 C588 1.363 . S
N586 C588 1.356 . S
N586 H598 0.984 . S
N586 H599 0.985 . S
N587 C589 1.356 . S
N587 H592 0.984 . S
N587 H593 0.985 . S
C588 C582 1.379 . S
C588 C585 1.363 . S
C588 N586 1.356 . S
C589 C583 1.363 . S
C589 C584 1.379 . S
C589 N587 1.356 . S
N590 C582 1.356 . S
N590 H596 0.984 . S
N590 H597 0.984 . S
N591 C584 1.356 . S
N591 H594 0.984 . S
N591 H595 0.985 . S
H592 N587 0.984 . S
H593 N587 0.985 . S
H594 N591 0.984 . S
H595 N591 0.985 . S
H596 N590 0.984 . S
H597 N590 0.984 . S
H598 N586 0.984 . S
H599 N586 0.985 . S
C600 C601 1.363 . S
C600 C606 1.379 . S
C600 N608 1.356 . S
C601 C600 1.363 . S
C601 C607 1.363 . S
C602 C603 1.363 . S
C602 C607 1.379 . S
C602 N609 1.356 . S
C603 C602 1.363 . S
C603 C606 1.363 . S
N604 C606 1.356 . S
N604 H616 0.984 . S
N604 H617 0.985 . S
N605 C607 1.356 . S
N605 H610 0.984 . S
N605 H611 0.985 . S
C606 C600 1.379 . S
C606 C603 1.363 . S
C606 N604 1.356 . S
C607 C601 1.363 . S
C607 C602 1.379 . S
C607 N605 1.356 . S
N608 C600 1.356 . S
N608 H614 0.984 . S
N608 H615 0.984 . S
N609 C602 1.356 . S
N609 H612 0.984 . S
N609 H613 0.985 . S
H610 N605 0.984 . S
H611 N605 0.985 . S
H612 N609 0.984 . S
H613 N609 0.985 . S
H614 N608 0.984 . S
H615 N608 0.984 . S
H616 N604 0.984 . S
H617 N604 0.985 . S
C618 C619 1.363 . S
C618 C624 1.379 . S
C618 N626 1.356 . S
C619 C618 1.363 . S
C619 C625 1.363 . S
C620 C621 1.363 . S
C620 C625 1.379 . S
C620 N627 1.356 . S
C621 C620 1.363 . S
C621 C624 1.363 . S
N622 C624 1.356 . S
N622 H634 0.984 . S
N622 H635 0.985 . S
N623 C625 1.356 . S
N623 H628 0.984 . S
N623 H629 0.985 . S
C624 C618 1.379 . S
C624 C621 1.363 . S
C624 N622 1.356 . S
C625 C619 1.363 . S
C625 C620 1.379 . S
C625 N623 1.356 . S
N626 C618 1.356 . S
N626 H632 0.984 . S
N626 H633 0.984 . S
N627 C620 1.356 . S
N627 H630 0.984 . S
N627 H631 0.985 . S
H628 N623 0.984 . S
H629 N623 0.985 . S
H630 N627 0.984 . S
H631 N627 0.985 . S
H632 N626 0.984 . S
H633 N626 0.984 . S
H634 N622 0.984 . S
H635 N622 0.985 . S
C636 C637 1.363 . S
C636 C642 1.379 . S
C636 N644 1.356 . S
C637 C636 1.363 . S
C637 C643 1.363 . S
C638 C639 1.363 . S
C638 C643 1.379 . S
C638 N645 1.356 . S
C639 C638 1.363 . S
C639 C642 1.363 . S
N640 C642 1.356 . S
N640 H652 0.984 . S
N640 H653 0.985 . S
N641 C643 1.356 . S
N641 H646 0.984 . S
N641 H647 0.985 . S
C642 C636 1.379 . S
C642 C639 1.363 . S
C642 N640 1.356 . S
C643 C637 1.363 . S
C643 C638 1.379 . S
C643 N641 1.356 . S
N644 C636 1.356 . S
N644 H650 0.984 . S
N644 H651 0.984 . S
N645 C638 1.356 . S
N645 H648 0.984 . S
N645 H649 0.985 . S
H646 N641 0.984 . S
H647 N641 0.985 . S
H648 N645 0.984 . S
H649 N645 0.985 . S
H650 N644 0.984 . S
H651 N644 0.984 . S
H652 N640 0.984 . S
H653 N640 0.985 . S
C654 C655 1.363 . S
C654 C660 1.379 . S
C654 N662 1.356 . S
C655 C654 1.363 . S
C655 C661 1.363 . S
C656 C657 1.363 . S
C656 C661 1.379 . S
C656 N663 1.356 . S
C657 C656 1.363 . S
C657 C660 1.363 . S
N658 C660 1.356 . S
N658 H670 0.984 . S
N658 H671 0.985 . S
N659 C661 1.356 . S
N659 H664 0.984 . S
N659 H665 0.985 . S
C660 C654 1.379 . S
C660 C657 1.363 . S
C660 N658 1.356 . S
C661 C655 1.363 . S
C661 C656 1.379 . S
C661 N659 1.356 . S
N662 C654 1.356 . S
N662 H668 0.984 . S
N662 H669 0.984 . S
N663 C656 1.356 . S
N663 H666 0.984 . S
N663 H667 0.985 . S
H664 N659 0.984 . S
H665 N659 0.985 . S
H666 N663 0.984 . S
H667 N663 0.985 . S
H668 N662 0.984 . S
H669 N662 0.984 . S
H670 N658 0.984 . S
H671 N658 0.985 . S
C672 C673 1.363 . S
C672 C678 1.379 1_554 S
C672 N680 1.356 . S
C673 C672 1.363 . S
C673 C679 1.363 . S
C674 C675 1.363 . S
C674 C679 1.379 1_556 S
C674 N681 1.356 . S
C675 C674 1.363 . S
C675 C678 1.363 . S
N676 C678 1.356 . S
N676 H688 0.984 . S
N676 H689 0.985 . S
N677 C679 1.356 . S
N677 H682 0.984 . S
N677 H683 0.985 . S
C678 C672 1.379 1_556 S
C678 C675 1.363 . S
C678 N676 1.356 . S
C679 C673 1.363 . S
C679 C674 1.379 1_554 S
C679 N677 1.356 . S
N680 C672 1.356 . S
N680 H686 0.984 . S
N680 H687 0.984 . S
N681 C674 1.356 . S
N681 H684 0.984 . S
N681 H685 0.985 . S
H682 N677 0.984 . S
H683 N677 0.985 . S
H684 N681 0.984 . S
H685 N681 0.985 . S
H686 N680 0.984 . S
H687 N680 0.984 . S
H688 N676 0.984 . S
H689 N676 0.985 . S
C690 C691 1.363 . S
C690 C696 1.379 . S
C690 N698 1.356 . S
C691 C690 1.363 . S
C691 C697 1.363 . S
C692 C693 1.363 . S
C692 C697 1.379 . S
C692 N699 1.356 . S
C693 C692 1.363 . S
C693 C696 1.363 . S
N694 C696 1.356 . S
N694 H706 0.984 1_545 S
N694 H707 0.985 . S
N695 C697 1.356 . S
N695 H700 0.984 . S
N695 H701 0.985 . S
C696 C690 1.379 . S
C696 C693 1.363 . S
C696 N694 1.356 . S
C697 C691 1.363 . S
C697 C692 1.379 . S
C697 N695 1.356 . S
N698 C690 1.356 . S
N698 H704 0.984 1_545 S
N698 H705 0.984 . S
N699 C692 1.356 . S
N699 H702 0.984 . S
N699 H703 0.985 . S
H700 N695 0.984 . S
H701 N695 0.985 . S
H702 N699 0.984 . S
H703 N699 0.985 . S
H704 N698 0.984 1_565 S
H705 N698 0.984 . S
H706 N694 0.984 1_565 S
H707 N694 0.985 . S
C708 C709 1.363 . S
C708 C714 1.379 1_556 S
C708 N716 1.356 . S
C709 C708 1.363 . S
C709 C715 1.363 . S
C710 C711 1.363 . S
C710 C715 1.379 1_554 S
C710 N717 1.356 . S
C711 C710 1.363 . S
C711 C714 1.363 . S
N712 C714 1.356 . S
N712 H724 0.984 . S
N712 H725 0.985 . S
N713 C715 1.356 . S
N713 H718 0.984 . S
N713 H719 0.985 . S
C714 C708 1.379 1_554 S
C714 C711 1.363 . S
C714 N712 1.356 . S
C715 C709 1.363 . S
C715 C710 1.379 1_556 S
C715 N713 1.356 . S
N716 C708 1.356 . S
N716 H722 0.984 . S
N716 H723 0.984 . S
N717 C710 1.356 . S
N717 H720 0.984 . S
N717 H721 0.985 . S
H718 N713 0.984 . S
H719 N713 0.985 . S
H720 N717 0.984 . S
H721 N717 0.985 . S
H722 N716 0.984 . S
H723 N716 0.984 . S
H724 N712 0.984 . S
H725 N712 0.985 . S
C726 C727 1.363 . S
C726 C732 1.379 . S
C726 N734 1.356 . S
C727 C726 1.363 . S
C727 C733 1.363 . S
C728 C729 1.363 . S
C728 C733 1.379 . S
C728 N735 1.356 . S
C729 C728 1.363 . S
C729 C732 1.363 . S
N730 C732 1.356 . S
N730 H742 0.984 1_565 S
N730 H743 0.985 . S
N731 C733 1.356 . S
N731 H736 0.984 . S
N731 H737 0.985 . S
C732 C726 1.379 . S
C732 C729 1.363 . S
C732 N730 1.356 . S
C733 C727 1.363 . S
C733 C728 1.379 . S
C733 N731 1.356 . S
N734 C726 1.356 . S
N734 H740 0.984 1_565 S
N734 H741 0.984 . S
N735 C728 1.356 . S
N735 H738 0.984 . S
N735 H739 0.985 . S
H736 N731 0.984 . S
H737 N731 0.985 . S
H738 N735 0.984 . S
H739 N735 0.985 . S
H740 N734 0.984 1_545 S
H741 N734 0.984 . S
H742 N730 0.984 1_545 S
H743 N730 0.985 . S
C744 C745 1.363 . S
C744 C750 1.379 1_554 S
C744 N752 1.356 . S
C745 C744 1.363 . S
C745 C751 1.363 . S
C746 C747 1.363 . S
C746 C751 1.379 1_556 S
C746 N753 1.356 . S
C747 C746 1.363 . S
C747 C750 1.363 . S
N748 C750 1.356 . S
N748 H760 0.984 . S
N748 H761 0.985 . S
N749 C751 1.356 . S
N749 H754 0.984 . S
N749 H755 0.985 . S
C750 C744 1.379 1_556 S
C750 C747 1.363 . S
C750 N748 1.356 . S
C751 C745 1.363 . S
C751 C746 1.379 1_554 S
C751 N749 1.356 . S
N752 C744 1.356 . S
N752 H758 0.984 . S
N752 H759 0.984 . S
N753 C746 1.356 . S
N753 H756 0.984 . S
N753 H757 0.985 . S
H754 N749 0.984 . S
H755 N749 0.985 . S
H756 N753 0.984 . S
H757 N753 0.985 . S
H758 N752 0.984 . S
H759 N752 0.984 . S
H760 N748 0.984 . S
H761 N748 0.985 . S
C762 C763 1.363 . S
C762 C768 1.379 . S
C762 N770 1.356 . S
C763 C762 1.363 . S
C763 C769 1.363 . S
C764 C765 1.363 . S
C764 C769 1.379 . S
C764 N771 1.356 . S
C765 C764 1.363 . S
C765 C768 1.363 . S
N766 C768 1.356 . S
N766 H778 0.984 . S
N766 H779 0.985 . S
N767 C769 1.356 . S
N767 H772 0.984 . S
N767 H773 0.985 . S
C768 C762 1.379 . S
C768 C765 1.363 . S
C768 N766 1.356 . S
C769 C763 1.363 . S
C769 C764 1.379 . S
C769 N767 1.356 . S
N770 C762 1.356 . S
N770 H776 0.984 . S
N770 H777 0.984 . S
N771 C764 1.356 . S
N771 H774 0.984 . S
N771 H775 0.985 . S
H772 N767 0.984 . S
H773 N767 0.985 . S
H774 N771 0.984 . S
H775 N771 0.985 . S
H776 N770 0.984 . S
H777 N770 0.984 . S
H778 N766 0.984 . S
H779 N766 0.985 . S
C780 C781 1.363 . S
C780 C786 1.379 1_554 S
C780 N788 1.356 . S
C781 C780 1.363 . S
C781 C787 1.363 . S
C782 C783 1.363 . S
C782 C787 1.379 1_556 S
C782 N789 1.356 . S
C783 C782 1.363 . S
C783 C786 1.363 . S
N784 C786 1.356 . S
N784 H796 0.984 . S
N784 H797 0.985 . S
N785 C787 1.356 . S
N785 H790 0.984 . S
N785 H791 0.985 . S
C786 C780 1.379 1_556 S
C786 C783 1.363 . S
C786 N784 1.356 . S
C787 C781 1.363 . S
C787 C782 1.379 1_554 S
C787 N785 1.356 . S
N788 C780 1.356 . S
N788 H794 0.984 . S
N788 H795 0.984 . S
N789 C782 1.356 . S
N789 H792 0.984 . S
N789 H793 0.985 . S
H790 N785 0.984 . S
H791 N785 0.985 . S
H792 N789 0.984 . S
H793 N789 0.985 . S
H794 N788 0.984 . S
H795 N788 0.984 . S
H796 N784 0.984 . S
H797 N784 0.985 . S
C798 C799 1.363 . S
C798 C804 1.379 . S
C798 N806 1.356 . S
C799 C798 1.363 . S
C799 C805 1.363 . S
C800 C801 1.363 . S
C800 C805 1.379 . S
C800 N807 1.356 . S
C801 C800 1.363 . S
C801 C804 1.363 . S
N802 C804 1.356 . S
N802 H814 0.984 . S
N802 H815 0.985 . S
N803 C805 1.356 . S
N803 H808 0.984 . S
N803 H809 0.985 . S
C804 C798 1.379 . S
C804 C801 1.363 . S
C804 N802 1.356 . S
C805 C799 1.363 . S
C805 C800 1.379 . S
C805 N803 1.356 . S
N806 C798 1.356 . S
N806 H812 0.984 . S
N806 H813 0.984 . S
N807 C800 1.356 . S
N807 H810 0.984 . S
N807 H811 0.985 . S
H808 N803 0.984 . S
H809 N803 0.985 . S
H810 N807 0.984 . S
H811 N807 0.985 . S
H812 N806 0.984 . S
H813 N806 0.984 . S
H814 N802 0.984 . S
H815 N802 0.985 . S
C816 C817 1.363 . S
C816 C822 1.379 1_455 S
C816 N824 1.356 . S
C817 C816 1.363 . S
C817 C823 1.363 . S
C818 C819 1.363 . S
C818 C823 1.379 1_655 S
C818 N825 1.356 . S
C819 C818 1.363 . S
C819 C822 1.363 . S
N820 C822 1.356 . S
N820 H832 0.984 . S
N820 H833 0.985 . S
N821 C823 1.356 . S
N821 H826 0.984 . S
N821 H827 0.985 . S
C822 C816 1.379 1_655 S
C822 C819 1.363 . S
C822 N820 1.356 . S
C823 C817 1.363 . S
C823 C818 1.379 1_455 S
C823 N821 1.356 . S
N824 C816 1.356 . S
N824 H830 0.984 . S
N824 H831 0.984 . S
N825 C818 1.356 . S
N825 H828 0.984 . S
N825 H829 0.985 . S
H826 N821 0.984 . S
H827 N821 0.985 . S
H828 N825 0.984 . S
H829 N825 0.985 . S
H830 N824 0.984 . S
H831 N824 0.984 . S
H832 N820 0.984 . S
H833 N820 0.985 . S
C834 C835 1.363 . S
C834 C840 1.379 1_565 S
C834 N842 1.356 . S
C835 C834 1.363 . S
C835 C841 1.363 . S
C836 C837 1.363 . S
C836 C841 1.379 1_545 S
C836 N843 1.356 . S
C837 C836 1.363 . S
C837 C840 1.363 . S
N838 C840 1.356 . S
N838 H850 0.984 . S
N838 H851 0.985 . S
N839 C841 1.356 . S
N839 H844 0.984 . S
N839 H845 0.985 . S
C840 C834 1.379 1_545 S
C840 C837 1.363 . S
C840 N838 1.356 . S
C841 C835 1.363 . S
C841 C836 1.379 1_565 S
C841 N839 1.356 . S
N842 C834 1.356 . S
N842 H848 0.984 . S
N842 H849 0.984 . S
N843 C836 1.356 . S
N843 H846 0.984 . S
N843 H847 0.985 . S
H844 N839 0.984 . S
H845 N839 0.985 . S
H846 N843 0.984 . S
H847 N843 0.985 . S
H848 N842 0.984 . S
H849 N842 0.984 . S
H850 N838 0.984 . S
H851 N838 0.985 . S
C852 C853 1.363 . S
C852 C858 1.379 . S
C852 N860 1.356 . S
C853 C852 1.363 . S
C853 C859 1.363 1_565 S
C854 C855 1.363 . S
C854 C859 1.379 . S
C854 N861 1.356 . S
C855 C854 1.363 . S
C855 C858 1.363 1_545 S
N856 C858 1.356 . S
N856 H868 0.984 . S
N856 H869 0.985 . S
N857 C859 1.356 . S
N857 H862 0.984 . S
N857 H863 0.985 . S
C858 C852 1.379 . S
C858 C855 1.363 1_565 S
C858 N856 1.356 . S
C859 C853 1.363 1_545 S
C859 C854 1.379 . S
C859 N857 1.356 . S
N860 C852 1.356 . S
N860 H866 0.984 . S
N860 H867 0.984 . S
N861 C854 1.356 . S
N861 H864 0.984 . S
N861 H865 0.985 . S
H862 N857 0.984 . S
H863 N857 0.985 . S
H864 N861 0.984 . S
H865 N861 0.985 . S
H866 N860 0.984 . S
H867 N860 0.984 . S
H868 N856 0.984 . S
H869 N856 0.985 . S
C870 C871 1.363 1_655 S
C870 C876 1.379 . S
C870 N878 1.356 . S
C871 C870 1.363 1_455 S
C871 C877 1.363 . S
C872 C873 1.363 1_455 S
C872 C877 1.379 . S
C872 N879 1.356 . S
C873 C872 1.363 1_655 S
C873 C876 1.363 . S
N874 C876 1.356 . S
N874 H886 0.984 . S
N874 H887 0.985 . S
N875 C877 1.356 . S
N875 H880 0.984 . S
N875 H881 0.985 . S
C876 C870 1.379 . S
C876 C873 1.363 . S
C876 N874 1.356 . S
C877 C871 1.363 . S
C877 C872 1.379 . S
C877 N875 1.356 . S
N878 C870 1.356 . S
N878 H884 0.984 . S
N878 H885 0.984 . S
N879 C872 1.356 . S
N879 H882 0.984 . S
N879 H883 0.985 . S
H880 N875 0.984 . S
H881 N875 0.985 . S
H882 N879 0.984 . S
H883 N879 0.985 . S
H884 N878 0.984 . S
H885 N878 0.984 . S
H886 N874 0.984 . S
H887 N874 0.985 . S
C888 C889 1.363 . S
C888 C894 1.379 1_655 S
C888 N896 1.356 . S
C889 C888 1.363 . S
C889 C895 1.363 . S
C890 C891 1.363 . S
C890 C895 1.379 1_455 S
C890 N897 1.356 . S
C891 C890 1.363 . S
C891 C894 1.363 . S
N892 C894 1.356 . S
N892 H904 0.984 . S
N892 H905 0.985 . S
N893 C895 1.356 . S
N893 H898 0.984 . S
N893 H899 0.985 . S
C894 C888 1.379 1_455 S
C894 C891 1.363 . S
C894 N892 1.356 . S
C895 C889 1.363 . S
C895 C890 1.379 1_655 S
C895 N893 1.356 . S
N896 C888 1.356 . S
N896 H902 0.984 . S
N896 H903 0.984 . S
N897 C890 1.356 . S
N897 H900 0.984 . S
N897 H901 0.985 . S
H898 N893 0.984 . S
H899 N893 0.985 . S
H900 N897 0.984 . S
H901 N897 0.985 . S
H902 N896 0.984 . S
H903 N896 0.984 . S
H904 N892 0.984 . S
H905 N892 0.985 . S
C906 C907 1.363 . S
C906 C912 1.379 1_545 S
C906 N914 1.356 . S
C907 C906 1.363 . S
C907 C913 1.363 . S
C908 C909 1.363 . S
C908 C913 1.379 1_565 S
C908 N915 1.356 . S
C909 C908 1.363 . S
C909 C912 1.363 . S
N910 C912 1.356 . S
N910 H922 0.984 . S
N910 H923 0.985 . S
N911 C913 1.356 . S
N911 H916 0.984 . S
N911 H917 0.985 . S
C912 C906 1.379 1_565 S
C912 C909 1.363 . S
C912 N910 1.356 . S
C913 C907 1.363 . S
C913 C908 1.379 1_545 S
C913 N911 1.356 . S
N914 C906 1.356 . S
N914 H920 0.984 . S
N914 H921 0.984 . S
N915 C908 1.356 . S
N915 H918 0.984 . S
N915 H919 0.985 . S
H916 N911 0.984 . S
H917 N911 0.985 . S
H918 N915 0.984 . S
H919 N915 0.985 . S
H920 N914 0.984 . S
H921 N914 0.984 . S
H922 N910 0.984 . S
H923 N910 0.985 . S
C924 C925 1.363 1_545 S
C924 C930 1.379 . S
C924 N932 1.356 . S
C925 C924 1.363 1_565 S
C925 C931 1.363 . S
C926 C927 1.363 1_565 S
C926 C931 1.379 . S
C926 N933 1.356 . S
C927 C926 1.363 1_545 S
C927 C930 1.363 . S
N928 C930 1.356 . S
N928 H940 0.984 . S
N928 H941 0.985 . S
N929 C931 1.356 . S
N929 H934 0.984 . S
N929 H935 0.985 . S
C930 C924 1.379 . S
C930 C927 1.363 . S
C930 N928 1.356 . S
C931 C925 1.363 . S
C931 C926 1.379 . S
C931 N929 1.356 . S
N932 C924 1.356 . S
N932 H938 0.984 . S
N932 H939 0.984 . S
N933 C926 1.356 . S
N933 H936 0.984 . S
N933 H937 0.985 . S
H934 N929 0.984 . S
H935 N929 0.985 . S
H936 N933 0.984 . S
H937 N933 0.985 . S
H938 N932 0.984 . S
H939 N932 0.984 . S
H940 N928 0.984 . S
H941 N928 0.985 . S
C942 C943 1.363 1_655 S
C942 C948 1.379 . S
C942 N950 1.356 . S
C943 C942 1.363 1_455 S
C943 C949 1.363 . S
C944 C945 1.363 1_455 S
C944 C949 1.379 . S
C944 N951 1.356 . S
C945 C944 1.363 1_655 S
C945 C948 1.363 . S
N946 C948 1.356 . S
N946 H958 0.984 . S
N946 H959 0.985 . S
N947 C949 1.356 . S
N947 H952 0.984 . S
N947 H953 0.985 . S
C948 C942 1.379 . S
C948 C945 1.363 . S
C948 N946 1.356 . S
C949 C943 1.363 . S
C949 C944 1.379 . S
C949 N947 1.356 . S
N950 C942 1.356 . S
N950 H956 0.984 . S
N950 H957 0.984 . S
N951 C944 1.356 . S
N951 H954 0.984 . S
N951 H955 0.985 . S
H952 N947 0.984 . S
H953 N947 0.985 . S
H954 N951 0.984 . S
H955 N951 0.985 . S
H956 N950 0.984 . S
H957 N950 0.984 . S
H958 N946 0.984 . S
H959 N946 0.985 . S
C960 C961 1.363 . S
C960 C966 1.379 . S
C960 N968 1.356 . S
C961 C960 1.363 . S
C961 C967 1.363 . S
C962 C963 1.363 . S
C962 C967 1.379 . S
C962 N969 1.356 . S
C963 C962 1.363 . S
C963 C966 1.363 . S
N964 C966 1.356 . S
N964 H976 0.984 . S
N964 H977 0.985 . S
N965 C967 1.356 . S
N965 H970 0.984 . S
N965 H971 0.985 . S
C966 C960 1.379 . S
C966 C963 1.363 . S
C966 N964 1.356 . S
C967 C961 1.363 . S
C967 C962 1.379 . S
C967 N965 1.356 . S
N968 C960 1.356 . S
N968 H974 0.984 . S
N968 H975 0.984 . S
N969 C962 1.356 . S
N969 H972 0.984 . S
N969 H973 0.985 . S
H970 N965 0.984 . S
H971 N965 0.985 . S
H972 N969 0.984 . S
H973 N969 0.985 . S
H974 N968 0.984 . S
H975 N968 0.984 . S
H976 N964 0.984 . S
H977 N964 0.985 . S
C978 C979 1.363 . S
C978 C984 1.379 . S
C978 N986 1.356 . S
C979 C978 1.363 . S
C979 C985 1.363 . S
C980 C981 1.363 . S
C980 C985 1.379 . S
C980 N987 1.356 . S
C981 C980 1.363 . S
C981 C984 1.363 . S
N982 C984 1.356 . S
N982 H994 0.984 . S
N982 H995 0.985 . S
N983 C985 1.356 . S
N983 H988 0.984 . S
N983 H989 0.985 . S
C984 C978 1.379 . S
C984 C981 1.363 . S
C984 N982 1.356 . S
C985 C979 1.363 . S
C985 C980 1.379 . S
C985 N983 1.356 . S
N986 C978 1.356 . S
N986 H992 0.984 . S
N986 H993 0.984 . S
N987 C980 1.356 . S
N987 H990 0.984 . S
N987 H991 0.985 . S
H988 N983 0.984 . S
H989 N983 0.985 . S
H990 N987 0.984 . S
H991 N987 0.985 . S
H992 N986 0.984 . S
H993 N986 0.984 . S
H994 N982 0.984 . S
H995 N982 0.985 . S
C996 C997 1.363 . S
C996 C1002 1.379 . S
C996 N1004 1.356 . S
C997 C996 1.363 . S
C997 C1003 1.363 . S
C998 C999 1.363 . S
C998 C1003 1.379 . S
C998 N1005 1.356 . S
C999 C998 1.363 . S
C999 C1002 1.363 . S
N1000 C1002 1.356 . S
N1000 H1012 0.984 . S
N1000 H1013 0.985 . S
N1001 C1003 1.356 . S
N1001 H1006 0.984 . S
N1001 H1007 0.985 . S
C1002 C996 1.379 . S
C1002 C999 1.363 . S
C1002 N1000 1.356 . S
C1003 C997 1.363 . S
C1003 C998 1.379 . S
C1003 N1001 1.356 . S
N1004 C996 1.356 . S
N1004 H1010 0.984 . S
N1004 H1011 0.984 . S
N1005 C998 1.356 . S
N1005 H1008 0.984 . S
N1005 H1009 0.985 . S
H1006 N1001 0.984 . S
H1007 N1001 0.985 . S
H1008 N1005 0.984 . S
H1009 N1005 0.985 . S
H1010 N1004 0.984 . S
H1011 N1004 0.984 . S
H1012 N1000 0.984 . S
H1013 N1000 0.985 . S
C1014 C1015 1.363 . S
C1014 C1020 1.379 . S
C1014 N1022 1.356 . S
C1015 C1014 1.363 . S
C1015 C1021 1.363 . S
C1016 C1017 1.363 . S
C1016 C1021 1.379 . S
C1016 N1023 1.356 . S
C1017 C1016 1.363 . S
C1017 C1020 1.363 . S
N1018 C1020 1.356 . S
N1018 H1030 0.984 . S
N1018 H1031 0.985 . S
N1019 C1021 1.356 . S
N1019 H1024 0.984 . S
N1019 H1025 0.985 . S
C1020 C1014 1.379 . S
C1020 C1017 1.363 . S
C1020 N1018 1.356 . S
C1021 C1015 1.363 . S
C1021 C1016 1.379 . S
C1021 N1019 1.356 . S
N1022 C1014 1.356 . S
N1022 H1028 0.984 . S
N1022 H1029 0.984 . S
N1023 C1016 1.356 . S
N1023 H1026 0.984 . S
N1023 H1027 0.985 . S
H1024 N1019 0.984 . S
H1025 N1019 0.985 . S
H1026 N1023 0.984 . S
H1027 N1023 0.985 . S
H1028 N1022 0.984 . S
H1029 N1022 0.984 . S
H1030 N1018 0.984 . S
H1031 N1018 0.985 . S
C1032 C1033 1.363 . S
C1032 C1038 1.379 . S
C1032 N1040 1.356 . S
C1033 C1032 1.363 . S
C1033 C1039 1.363 . S
C1034 C1035 1.363 . S
C1034 C1039 1.379 . S
C1034 N1041 1.356 . S
C1035 C1034 1.363 . S
C1035 C1038 1.363 . S
N1036 C1038 1.356 . S
N1036 H1048 0.984 . S
N1036 H1049 0.985 . S
N1037 C1039 1.356 . S
N1037 H1042 0.984 . S
N1037 H1043 0.985 . S
C1038 C1032 1.379 . S
C1038 C1035 1.363 . S
C1038 N1036 1.356 . S
C1039 C1033 1.363 . S
C1039 C1034 1.379 . S
C1039 N1037 1.356 . S
N1040 C1032 1.356 . S
N1040 H1046 0.984 . S
N1040 H1047 0.984 . S
N1041 C1034 1.356 . S
N1041 H1044 0.984 . S
N1041 H1045 0.985 . S
H1042 N1037 0.984 . S
H1043 N1037 0.985 . S
H1044 N1041 0.984 . S
H1045 N1041 0.985 . S
H1046 N1040 0.984 . S
H1047 N1040 0.984 . S
H1048 N1036 0.984 . S
H1049 N1036 0.985 . S
C1050 C1051 1.363 . S
C1050 C1056 1.379 . S
C1050 N1058 1.356 . S
C1051 C1050 1.363 . S
C1051 C1057 1.363 . S
C1052 C1053 1.363 . S
C1052 C1057 1.379 . S
C1052 N1059 1.356 . S
C1053 C1052 1.363 . S
C1053 C1056 1.363 . S
N1054 C1056 1.356 . S
N1054 H1066 0.984 . S
N1054 H1067 0.985 . S
N1055 C1057 1.356 . S
N1055 H1060 0.984 . S
N1055 H1061 0.985 . S
C1056 C1050 1.379 . S
C1056 C1053 1.363 . S
C1056 N1054 1.356 . S
C1057 C1051 1.363 . S
C1057 C1052 1.379 . S
C1057 N1055 1.356 . S
N1058 C1050 1.356 . S
N1058 H1064 0.984 . S
N1058 H1065 0.984 . S
N1059 C1052 1.356 . S
N1059 H1062 0.984 . S
N1059 H1063 0.985 . S
H1060 N1055 0.984 . S
H1061 N1055 0.985 . S
H1062 N1059 0.984 . S
H1063 N1059 0.985 . S
H1064 N1058 0.984 . S
H1065 N1058 0.984 . S
H1066 N1054 0.984 . S
H1067 N1054 0.985 . S
C1068 C1069 1.363 . S
C1068 C1074 1.379 . S
C1068 N1076 1.356 . S
C1069 C1068 1.363 . S
C1069 C1075 1.363 . S
C1070 C1071 1.363 . S
C1070 C1075 1.379 . S
C1070 N1077 1.356 . S
C1071 C1070 1.363 . S
C1071 C1074 1.363 . S
N1072 C1074 1.356 . S
N1072 H1084 0.984 . S
N1072 H1085 0.985 . S
N1073 C1075 1.356 . S
N1073 H1078 0.984 . S
N1073 H1079 0.985 . S
C1074 C1068 1.379 . S
C1074 C1071 1.363 . S
C1074 N1072 1.356 . S
C1075 C1069 1.363 . S
C1075 C1070 1.379 . S
C1075 N1073 1.356 . S
N1076 C1068 1.356 . S
N1076 H1082 0.984 . S
N1076 H1083 0.984 . S
N1077 C1070 1.356 . S
N1077 H1080 0.984 . S
N1077 H1081 0.985 . S
H1078 N1073 0.984 . S
H1079 N1073 0.985 . S
H1080 N1077 0.984 . S
H1081 N1077 0.985 . S
H1082 N1076 0.984 . S
H1083 N1076 0.984 . S
H1084 N1072 0.984 . S
H1085 N1072 0.985 . S
C1086 C1087 1.363 . S
C1086 C1092 1.379 . S
C1086 N1094 1.356 . S
C1087 C1086 1.363 . S
C1087 C1093 1.363 . S
C1088 C1089 1.363 . S
C1088 C1093 1.379 . S
C1088 N1095 1.356 . S
C1089 C1088 1.363 . S
C1089 C1092 1.363 . S
N1090 C1092 1.356 . S
N1090 H1102 0.984 . S
N1090 H1103 0.985 . S
N1091 C1093 1.356 . S
N1091 H1096 0.984 . S
N1091 H1097 0.985 . S
C1092 C1086 1.379 . S
C1092 C1089 1.363 . S
C1092 N1090 1.356 . S
C1093 C1087 1.363 . S
C1093 C1088 1.379 . S
C1093 N1091 1.356 . S
N1094 C1086 1.356 . S
N1094 H1100 0.984 . S
N1094 H1101 0.984 . S
N1095 C1088 1.356 . S
N1095 H1098 0.984 . S
N1095 H1099 0.985 . S
H1096 N1091 0.984 . S
H1097 N1091 0.985 . S
H1098 N1095 0.984 . S
H1099 N1095 0.985 . S
H1100 N1094 0.984 . S
H1101 N1094 0.984 . S
H1102 N1090 0.984 . S
H1103 N1090 0.985 . S
C1104 C1105 1.363 . S
C1104 C1110 1.379 . S
C1104 N1112 1.356 . S
C1105 C1104 1.363 . S
C1105 C1111 1.363 . S
C1106 C1107 1.363 . S
C1106 C1111 1.379 . S
C1106 N1113 1.356 . S
C1107 C1106 1.363 . S
C1107 C1110 1.363 . S
N1108 C1110 1.356 . S
N1108 H1120 0.984 . S
N1108 H1121 0.985 . S
N1109 C1111 1.356 . S
N1109 H1114 0.984 . S
N1109 H1115 0.985 . S
C1110 C1104 1.379 . S
C1110 C1107 1.363 . S
C1110 N1108 1.356 . S
C1111 C1105 1.363 . S
C1111 C1106 1.379 . S
C1111 N1109 1.356 . S
N1112 C1104 1.356 . S
N1112 H1118 0.984 . S
N1112 H1119 0.984 . S
N1113 C1106 1.356 . S
N1113 H1116 0.984 . S
N1113 H1117 0.985 . S
H1114 N1109 0.984 . S
H1115 N1109 0.985 . S
H1116 N1113 0.984 . S
H1117 N1113 0.985 . S
H1118 N1112 0.984 . S
H1119 N1112 0.984 . S
H1120 N1108 0.984 . S
H1121 N1108 0.985 . S
C1122 C1123 1.363 . S
C1122 C1128 1.379 . S
C1122 N1130 1.356 . S
C1123 C1122 1.363 . S
C1123 C1129 1.363 . S
C1124 C1125 1.363 . S
C1124 C1129 1.379 . S
C1124 N1131 1.356 . S
C1125 C1124 1.363 . S
C1125 C1128 1.363 . S
N1126 C1128 1.356 . S
N1126 H1138 0.984 . S
N1126 H1139 0.985 . S
N1127 C1129 1.356 . S
N1127 H1132 0.984 . S
N1127 H1133 0.985 . S
C1128 C1122 1.379 . S
C1128 C1125 1.363 . S
C1128 N1126 1.356 . S
C1129 C1123 1.363 . S
C1129 C1124 1.379 . S
C1129 N1127 1.356 . S
N1130 C1122 1.356 . S
N1130 H1136 0.984 . S
N1130 H1137 0.984 . S
N1131 C1124 1.356 . S
N1131 H1134 0.984 . S
N1131 H1135 0.985 . S
H1132 N1127 0.984 . S
H1133 N1127 0.985 . S
H1134 N1131 0.984 . S
H1135 N1131 0.985 . S
H1136 N1130 0.984 . S
H1137 N1130 0.984 . S
H1138 N1126 0.984 . S
H1139 N1126 0.985 . S
C1140 C1141 1.363 . S
C1140 C1146 1.379 . S
C1140 N1148 1.356 . S
C1141 C1140 1.363 . S
C1141 C1147 1.363 . S
C1142 C1143 1.363 . S
C1142 C1147 1.379 . S
C1142 N1149 1.356 . S
C1143 C1142 1.363 . S
C1143 C1146 1.363 . S
N1144 C1146 1.356 . S
N1144 H1156 0.984 . S
N1144 H1157 0.985 . S
N1145 C1147 1.356 . S
N1145 H1150 0.984 . S
N1145 H1151 0.985 . S
C1146 C1140 1.379 . S
C1146 C1143 1.363 . S
C1146 N1144 1.356 . S
C1147 C1141 1.363 . S
C1147 C1142 1.379 . S
C1147 N1145 1.356 . S
N1148 C1140 1.356 . S
N1148 H1154 0.984 . S
N1148 H1155 0.984 . S
N1149 C1142 1.356 . S
N1149 H1152 0.984 . S
N1149 H1153 0.985 . S
H1150 N1145 0.984 . S
H1151 N1145 0.985 . S
H1152 N1149 0.984 . S
H1153 N1149 0.985 . S
H1154 N1148 0.984 . S
H1155 N1148 0.984 . S
H1156 N1144 0.984 . S
H1157 N1144 0.985 . S
C1158 C1159 1.363 . S
C1158 C1164 1.379 . S
C1158 N1166 1.356 . S
C1159 C1158 1.363 . S
C1159 C1165 1.363 . S
C1160 C1161 1.363 . S
C1160 C1165 1.379 . S
C1160 N1167 1.356 . S
C1161 C1160 1.363 . S
C1161 C1164 1.363 . S
N1162 C1164 1.356 . S
N1162 H1174 0.984 . S
N1162 H1175 0.985 . S
N1163 C1165 1.356 . S
N1163 H1168 0.984 . S
N1163 H1169 0.985 . S
C1164 C1158 1.379 . S
C1164 C1161 1.363 . S
C1164 N1162 1.356 . S
C1165 C1159 1.363 . S
C1165 C1160 1.379 . S
C1165 N1163 1.356 . S
N1166 C1158 1.356 . S
N1166 H1172 0.984 . S
N1166 H1173 0.984 . S
N1167 C1160 1.356 . S
N1167 H1170 0.984 . S
N1167 H1171 0.985 . S
H1168 N1163 0.984 . S
H1169 N1163 0.985 . S
H1170 N1167 0.984 . S
H1171 N1167 0.985 . S
H1172 N1166 0.984 . S
H1173 N1166 0.984 . S
H1174 N1162 0.984 . S
H1175 N1162 0.985 . S
C1176 C1177 1.363 . S
C1176 C1182 1.379 . S
C1176 N1184 1.356 . S
C1177 C1176 1.363 . S
C1177 C1183 1.363 . S
C1178 C1179 1.363 . S
C1178 C1183 1.379 . S
C1178 N1185 1.356 . S
C1179 C1178 1.363 . S
C1179 C1182 1.363 . S
N1180 C1182 1.356 . S
N1180 H1192 0.984 . S
N1180 H1193 0.985 . S
N1181 C1183 1.356 . S
N1181 H1186 0.984 . S
N1181 H1187 0.985 . S
C1182 C1176 1.379 . S
C1182 C1179 1.363 . S
C1182 N1180 1.356 . S
C1183 C1177 1.363 . S
C1183 C1178 1.379 . S
C1183 N1181 1.356 . S
N1184 C1176 1.356 . S
N1184 H1190 0.984 . S
N1184 H1191 0.984 . S
N1185 C1178 1.356 . S
N1185 H1188 0.984 . S
N1185 H1189 0.985 . S
H1186 N1181 0.984 . S
H1187 N1181 0.985 . S
H1188 N1185 0.984 . S
H1189 N1185 0.985 . S
H1190 N1184 0.984 . S
H1191 N1184 0.984 . S
H1192 N1180 0.984 . S
H1193 N1180 0.985 . S
C1194 C1195 1.363 . S
C1194 C1200 1.379 . S
C1194 N1202 1.356 . S
C1195 C1194 1.363 . S
C1195 C1201 1.363 . S
C1196 C1197 1.363 . S
C1196 C1201 1.379 . S
C1196 N1203 1.356 . S
C1197 C1196 1.363 . S
C1197 C1200 1.363 . S
N1198 C1200 1.356 . S
N1198 H1210 0.984 . S
N1198 H1211 0.985 . S
N1199 C1201 1.356 . S
N1199 H1204 0.984 . S
N1199 H1205 0.985 . S
C1200 C1194 1.379 . S
C1200 C1197 1.363 . S
C1200 N1198 1.356 . S
C1201 C1195 1.363 . S
C1201 C1196 1.379 . S
C1201 N1199 1.356 . S
N1202 C1194 1.356 . S
N1202 H1208 0.984 . S
N1202 H1209 0.984 . S
N1203 C1196 1.356 . S
N1203 H1206 0.984 . S
N1203 H1207 0.985 . S
H1204 N1199 0.984 . S
H1205 N1199 0.985 . S
H1206 N1203 0.984 . S
H1207 N1203 0.985 . S
H1208 N1202 0.984 . S
H1209 N1202 0.984 . S
H1210 N1198 0.984 . S
H1211 N1198 0.985 . S
C1212 C1213 1.363 . S
C1212 C1218 1.379 . S
C1212 N1220 1.356 . S
C1213 C1212 1.363 . S
C1213 C1219 1.363 . S
C1214 C1215 1.363 . S
C1214 C1219 1.379 . S
C1214 N1221 1.356 . S
C1215 C1214 1.363 . S
C1215 C1218 1.363 . S
N1216 C1218 1.356 . S
N1216 H1228 0.984 . S
N1216 H1229 0.985 . S
N1217 C1219 1.356 . S
N1217 H1222 0.984 . S
N1217 H1223 0.985 . S
C1218 C1212 1.379 . S
C1218 C1215 1.363 . S
C1218 N1216 1.356 . S
C1219 C1213 1.363 . S
C1219 C1214 1.379 . S
C1219 N1217 1.356 . S
N1220 C1212 1.356 . S
N1220 H1226 0.984 . S
N1220 H1227 0.984 . S
N1221 C1214 1.356 . S
N1221 H1224 0.984 . S
N1221 H1225 0.985 . S
H1222 N1217 0.984 . S
H1223 N1217 0.985 . S
H1224 N1221 0.984 . S
H1225 N1221 0.985 . S
H1226 N1220 0.984 . S
H1227 N1220 0.984 . S
H1228 N1216 0.984 . S
H1229 N1216 0.985 . S
C1230 C1231 1.363 . S
C1230 C1236 1.379 . S
C1230 N1238 1.356 . S
C1231 C1230 1.363 . S
C1231 C1237 1.363 . S
C1232 C1233 1.363 . S
C1232 C1237 1.379 . S
C1232 N1239 1.356 . S
C1233 C1232 1.363 . S
C1233 C1236 1.363 . S
N1234 C1236 1.356 . S
N1234 H1246 0.984 . S
N1234 H1247 0.985 . S
N1235 C1237 1.356 . S
N1235 H1240 0.984 . S
N1235 H1241 0.985 . S
C1236 C1230 1.379 . S
C1236 C1233 1.363 . S
C1236 N1234 1.356 . S
C1237 C1231 1.363 . S
C1237 C1232 1.379 . S
C1237 N1235 1.356 . S
N1238 C1230 1.356 . S
N1238 H1244 0.984 . S
N1238 H1245 0.984 . S
N1239 C1232 1.356 . S
N1239 H1242 0.984 . S
N1239 H1243 0.985 . S
H1240 N1235 0.984 . S
H1241 N1235 0.985 . S
H1242 N1239 0.984 . S
H1243 N1239 0.985 . S
H1244 N1238 0.984 . S
H1245 N1238 0.984 . S
H1246 N1234 0.984 . S
H1247 N1234 0.985 . S
C529 N13 1.831 . S
C531 N244 1.831 . S
C547 N145 1.831 . S
C549 N46 1.831 . S
C565 N178 1.831 . S
C567 N79 1.831 . S
C583 N211 1.831 . S
C585 N112 1.831 . S
C601 N277 1.831 . S
C603 N508 1.831 . S
C619 N310 1.831 . S
C621 N409 1.831 . S
C637 N442 1.831 . S
C639 N343 1.831 . S
C655 N376 1.831 . S
C657 N475 1.831 . S
C673 N2 1.544 . S
C675 N332 1.544 . S
C691 N365 1.544 . S
C693 N35 1.544 . S
C709 N266 1.544 . S
C711 N68 1.544 . S
C727 N299 1.544 . S
C729 N101 1.544 . S
C745 N464 1.544 . S
C747 N134 1.544 . S
C763 N497 1.544 . S
C765 N167 1.544 . S
C781 N398 1.544 . S
C783 N200 1.544 . S
C799 N431 1.544 . S
C801 N233 1.544 . S
C817 C21 0.710 . S
C819 C87 0.710 . S
C835 C120 0.710 . S
C837 C54 0.710 . S
C853 C219 0.710 . S
C855 C153 0.710 . S
C871 C252 0.710 . S
C873 C186 0.710 . S
C889 C285 0.710 . S
C891 C351 0.710 . S
C907 C384 0.710 . S
C909 C318 0.710 . S
C925 C417 0.710 . S
C927 C483 0.710 . S
C943 C450 0.710 . S
C945 C516 0.710 . S
C961 C469 1.757 . S
C963 C18 1.930 . S
C979 C51 1.930 . S
C981 C502 1.757 . S
C997 C403 1.757 . S
C999 C84 1.930 . S
C1015 C436 1.757 . S
C1017 C117 1.930 . S
C1033 C337 1.757 . S
C1035 C150 1.930 . S
C1051 C183 1.930 . S
C1053 C370 1.757 . S
C1069 C271 1.757 . S
C1071 C216 1.930 . S
C1087 C249 1.930 . S
C1089 C304 1.757 . S
C1105 C205 1.757 . S
C1107 C282 1.930 . S
C1123 C238 1.757 . S
C1125 C315 1.930 . S
C1141 C139 1.757 . S
C1143 C348 1.930 . S
C1159 C381 1.930 . S
C1161 C172 1.757 . S
C1177 C73 1.757 . S
C1179 C414 1.930 . S
C1195 C447 1.930 . S
C1197 C106 1.757 . S
C1213 C480 1.930 . S
C1215 C7 1.757 . S
C1231 C40 1.757 . S
C1233 C513 1.930 . S
