# Generated by pormake.
# Topology fnp, (5)-cn, num edge types: 1
# Building blocks:
#     Node 0, Type 0, BuildingBlock: BEQFEK_clean_sbu_0, # of connection points: 5
#     Node 1, Type 0, BuildingBlock: BEQFEK_clean_sbu_0, # of connection points: 5
#     Node 2, Type 0, BuildingBlock: BEQFEK_clean_sbu_0, # of connection points: 5
#     Node 3, Type 0, BuildingBlock: BEQFEK_clean_sbu_0, # of connection points: 5
#     Node 4, Type 0, BuildingBlock: BEQFEK_clean_sbu_0, # of connection points: 5
#     Node 5, Type 0, BuildingBlock: BEQFEK_clean_sbu_0, # of connection points: 5
#     Node 6, Type 0, BuildingBlock: BEQFEK_clean_sbu_0, # of connection points: 5
#     Node 7, Type 0, BuildingBlock: BEQFEK_clean_sbu_0, # of connection points: 5
#     Node 8, Type 0, BuildingBlock: BEQFEK_clean_sbu_0, # of connection points: 5
#     Node 9, Type 0, BuildingBlock: BEQFEK_clean_sbu_0, # of connection points: 5
#     Node 10, Type 0, BuildingBlock: BEQFEK_clean_sbu_0, # of connection points: 5
#     Node 11, Type 0, BuildingBlock: BEQFEK_clean_sbu_0, # of connection points: 5
#     Node 12, Type 0, BuildingBlock: BEQFEK_clean_sbu_0, # of connection points: 5
#     Node 13, Type 0, BuildingBlock: BEQFEK_clean_sbu_0, # of connection points: 5
#     Node 14, Type 0, BuildingBlock: BEQFEK_clean_sbu_0, # of connection points: 5
#     Node 15, Type 0, BuildingBlock: BEQFEK_clean_sbu_0, # of connection points: 5
#     Node 16, Type 0, BuildingBlock: BEQFEK_clean_sbu_0, # of connection points: 5
#     Node 17, Type 0, BuildingBlock: BEQFEK_clean_sbu_0, # of connection points: 5
#     Node 18, Type 0, BuildingBlock: BEQFEK_clean_sbu_0, # of connection points: 5
#     Node 19, Type 0, BuildingBlock: BEQFEK_clean_sbu_0, # of connection points: 5
#     Node 20, Type 0, BuildingBlock: BEQFEK_clean_sbu_0, # of connection points: 5
#     Node 21, Type 0, BuildingBlock: BEQFEK_clean_sbu_0, # of connection points: 5
#     Node 22, Type 0, BuildingBlock: BEQFEK_clean_sbu_0, # of connection points: 5
#     Node 23, Type 0, BuildingBlock: BEQFEK_clean_sbu_0, # of connection points: 5
#     Edge 24, Type (0, 0), BuildingBlock: OJICUG_clean_linker_0, # of connection points: 2
#     Edge 25, Type (0, 0), BuildingBlock: OJICUG_clean_linker_0, # of connection points: 2
#     Edge 26, Type (0, 0), BuildingBlock: OJICUG_clean_linker_0, # of connection points: 2
#     Edge 27, Type (0, 0), BuildingBlock: OJICUG_clean_linker_0, # of connection points: 2
#     Edge 28, Type (0, 0), BuildingBlock: OJICUG_clean_linker_0, # of connection points: 2
#     Edge 29, Type (0, 0), BuildingBlock: OJICUG_clean_linker_0, # of connection points: 2
#     Edge 30, Type (0, 0), BuildingBlock: OJICUG_clean_linker_0, # of connection points: 2
#     Edge 31, Type (0, 0), BuildingBlock: OJICUG_clean_linker_0, # of connection points: 2
#     Edge 32, Type (0, 0), BuildingBlock: OJICUG_clean_linker_0, # of connection points: 2
#     Edge 33, Type (0, 0), BuildingBlock: OJICUG_clean_linker_0, # of connection points: 2
#     Edge 34, Type (0, 0), BuildingBlock: OJICUG_clean_linker_0, # of connection points: 2
#     Edge 35, Type (0, 0), BuildingBlock: OJICUG_clean_linker_0, # of connection points: 2
#     Edge 36, Type (0, 0), BuildingBlock: OJICUG_clean_linker_0, # of connection points: 2
#     Edge 37, Type (0, 0), BuildingBlock: OJICUG_clean_linker_0, # of connection points: 2
#     Edge 38, Type (0, 0), BuildingBlock: OJICUG_clean_linker_0, # of connection points: 2
#     Edge 39, Type (0, 0), BuildingBlock: OJICUG_clean_linker_0, # of connection points: 2
#     Edge 40, Type (0, 0), BuildingBlock: OJICUG_clean_linker_0, # of connection points: 2
#     Edge 41, Type (0, 0), BuildingBlock: OJICUG_clean_linker_0, # of connection points: 2
#     Edge 42, Type (0, 0), BuildingBlock: OJICUG_clean_linker_0, # of connection points: 2
#     Edge 43, Type (0, 0), BuildingBlock: OJICUG_clean_linker_0, # of connection points: 2
#     Edge 44, Type (0, 0), BuildingBlock: OJICUG_clean_linker_0, # of connection points: 2
#     Edge 45, Type (0, 0), BuildingBlock: OJICUG_clean_linker_0, # of connection points: 2
#     Edge 46, Type (0, 0), BuildingBlock: OJICUG_clean_linker_0, # of connection points: 2
#     Edge 47, Type (0, 0), BuildingBlock: OJICUG_clean_linker_0, # of connection points: 2
#     Edge 48, Type (0, 0), BuildingBlock: OJICUG_clean_linker_0, # of connection points: 2
#     Edge 49, Type (0, 0), BuildingBlock: OJICUG_clean_linker_0, # of connection points: 2
#     Edge 50, Type (0, 0), BuildingBlock: OJICUG_clean_linker_0, # of connection points: 2
#     Edge 51, Type (0, 0), BuildingBlock: OJICUG_clean_linker_0, # of connection points: 2
#     Edge 52, Type (0, 0), BuildingBlock: OJICUG_clean_linker_0, # of connection points: 2
#     Edge 53, Type (0, 0), BuildingBlock: OJICUG_clean_linker_0, # of connection points: 2
#     Edge 54, Type (0, 0), BuildingBlock: OJICUG_clean_linker_0, # of connection points: 2
#     Edge 55, Type (0, 0), BuildingBlock: OJICUG_clean_linker_0, # of connection points: 2
#     Edge 56, Type (0, 0), BuildingBlock: OJICUG_clean_linker_0, # of connection points: 2
#     Edge 57, Type (0, 0), BuildingBlock: OJICUG_clean_linker_0, # of connection points: 2
#     Edge 58, Type (0, 0), BuildingBlock: OJICUG_clean_linker_0, # of connection points: 2
#     Edge 59, Type (0, 0), BuildingBlock: OJICUG_clean_linker_0, # of connection points: 2
#     Edge 60, Type (0, 0), BuildingBlock: OJICUG_clean_linker_0, # of connection points: 2
#     Edge 61, Type (0, 0), BuildingBlock: OJICUG_clean_linker_0, # of connection points: 2
#     Edge 62, Type (0, 0), BuildingBlock: OJICUG_clean_linker_0, # of connection points: 2
#     Edge 63, Type (0, 0), BuildingBlock: OJICUG_clean_linker_0, # of connection points: 2
#     Edge 64, Type (0, 0), BuildingBlock: OJICUG_clean_linker_0, # of connection points: 2
#     Edge 65, Type (0, 0), BuildingBlock: OJICUG_clean_linker_0, # of connection points: 2
#     Edge 66, Type (0, 0), BuildingBlock: OJICUG_clean_linker_0, # of connection points: 2
#     Edge 67, Type (0, 0), BuildingBlock: OJICUG_clean_linker_0, # of connection points: 2
#     Edge 68, Type (0, 0), BuildingBlock: OJICUG_clean_linker_0, # of connection points: 2
#     Edge 69, Type (0, 0), BuildingBlock: OJICUG_clean_linker_0, # of connection points: 2
#     Edge 70, Type (0, 0), BuildingBlock: OJICUG_clean_linker_0, # of connection points: 2
#     Edge 71, Type (0, 0), BuildingBlock: OJICUG_clean_linker_0, # of connection points: 2
#     Edge 72, Type (0, 0), BuildingBlock: OJICUG_clean_linker_0, # of connection points: 2
#     Edge 73, Type (0, 0), BuildingBlock: OJICUG_clean_linker_0, # of connection points: 2
#     Edge 74, Type (0, 0), BuildingBlock: OJICUG_clean_linker_0, # of connection points: 2
#     Edge 75, Type (0, 0), BuildingBlock: OJICUG_clean_linker_0, # of connection points: 2
#     Edge 76, Type (0, 0), BuildingBlock: OJICUG_clean_linker_0, # of connection points: 2
#     Edge 77, Type (0, 0), BuildingBlock: OJICUG_clean_linker_0, # of connection points: 2
#     Edge 78, Type (0, 0), BuildingBlock: OJICUG_clean_linker_0, # of connection points: 2
#     Edge 79, Type (0, 0), BuildingBlock: OJICUG_clean_linker_0, # of connection points: 2
#     Edge 80, Type (0, 0), BuildingBlock: OJICUG_clean_linker_0, # of connection points: 2
#     Edge 81, Type (0, 0), BuildingBlock: OJICUG_clean_linker_0, # of connection points: 2
#     Edge 82, Type (0, 0), BuildingBlock: OJICUG_clean_linker_0, # of connection points: 2
#     Edge 83, Type (0, 0), BuildingBlock: OJICUG_clean_linker_0, # of connection points: 2
# Relax obj value: 0.590
# Max RMSD: 0.215
# Mean RMSD: 0.215
data_MOF--net-fnp--node1-BEQFEK_clean_sbu_0--edge1-OJICUG_clean_linker_0
_symmetry_space_group_name_H-M    P1
_symmetry_Int_Tables_number       1
_symmetry_cell_setting            triclinic
loop_
_symmetry_equiv_pos_as_xyz
'x, y, z'
_cell_length_a     41.768594
_cell_length_b     41.540037
_cell_length_c     41.954195
_cell_angle_alpha  89.380891
_cell_angle_beta   89.565294
_cell_angle_gamma 89.465999
loop_
_atom_site_label
_atom_site_type_symbol
_atom_site_fract_x
_atom_site_fract_y
_atom_site_fract_z
_atom_type_partial_charge
Co0 Co 0.25683 0.19059 0.6946 0.0
Co1 Co 0.19106 0.21624 0.68146 0.0
C2 C 0.21995 0.23803 0.74028 0.0
O3 O 0.24484 0.22216 0.73134 0.0
O4 O 0.19416 0.23546 0.72464 0.0
C5 C 0.27459 0.14337 0.73234 0.0
O6 O 0.24422 0.149 0.73887 0.0
C7 C 0.12294 0.22469 0.68351 0.0
C8 C 0.10944 0.22151 0.63285 0.0
C9 C 0.09699 0.22203 0.66354 0.0
N10 N 0.14965 0.22494 0.66562 0.0
N11 N 0.14151 0.22369 0.63528 0.0
C12 C 0.1226 0.22625 0.71918 0.0
H13 H 0.1334 0.24929 0.72646 0.0
H14 H 0.13742 0.20644 0.72932 0.0
H15 H 0.09801 0.22525 0.72925 0.0
C16 C 0.22861 0.12894 0.67431 0.0
N17 N 0.2262 0.1611 0.67855 0.0
N18 N 0.19614 0.16959 0.68042 0.0
C19 C 0.17822 0.14229 0.6799 0.0
C20 C 0.19842 0.11515 0.67661 0.0
C21 C 0.25928 0.11172 0.66615 0.0
H22 H 0.27773 0.12913 0.65809 0.0
H23 H 0.26847 0.09803 0.68698 0.0
H24 H 0.25493 0.09406 0.64702 0.0
O25 O 0.27243 0.2181 0.66074 0.0
O26 O 0.22492 0.24208 0.65572 0.0
H27 H 0.13107 0.15546 0.66509 0.0
H28 H 0.13328 0.11718 0.68595 0.0
C29 C 0.14276 0.142 0.68485 0.0
H30 H 0.13676 0.15436 0.70739 0.0
H31 H 0.15787 0.22198 0.61644 0.0
O32 O 0.2889 0.1618 0.71255 0.0
C33 C 0.25516 0.24095 0.6497 0.0
Co34 Co 0.90567 0.77307 0.21589 0.0
Co35 Co 0.88285 0.7124 0.18294 0.0
C36 C 0.84976 0.73293 0.24368 0.0
O37 O 0.86962 0.75598 0.24551 0.0
O38 O 0.85234 0.71312 0.22088 0.0
C39 C 0.94305 0.77983 0.26383 0.0
O40 O 0.93691 0.74912 0.26025 0.0
C41 C 0.87409 0.6443 0.17874 0.0
C42 C 0.88915 0.63362 0.12943 0.0
C43 C 0.88233 0.61929 0.15867 0.0
N44 N 0.87714 0.67219 0.1626 0.0
N45 N 0.88533 0.66568 0.13285 0.0
C46 C 0.86567 0.64207 0.21348 0.0
H47 H 0.84221 0.65408 0.21754 0.0
H48 H 0.88394 0.65475 0.2276 0.0
H49 H 0.86358 0.61679 0.22193 0.0
C50 C 0.96963 0.747 0.1973 0.0
N51 N 0.9374 0.74449 0.1986 0.0
N52 N 0.92896 0.71553 0.1906 0.0
C53 C 0.95625 0.69774 0.18599 0.0
C54 C 0.98339 0.71708 0.19046 0.0
C55 C 0.98672 0.77849 0.19953 0.0
H56 H 0.97038 0.79865 0.19288 0.0
H57 H 0.9949 0.78235 0.22424 0.0
H58 H 1.00806 0.77867 0.18359 0.0
O59 O 0.88387 0.79453 0.1805 0.0
O60 O 0.86687 0.7505 0.15582 0.0
H61 H 0.9527 0.65896 0.15332 0.0
H62 H 0.9794 0.65098 0.18622 0.0
C63 C 0.95647 0.66255 0.17918 0.0
H64 H 0.9368 0.65091 0.19256 0.0
H65 H 0.89101 0.68313 0.11569 0.0
O66 O 0.92984 0.8002 0.24507 0.0
C67 C 0.8682 0.78133 0.15819 0.0
Co68 Co 0.32185 0.40026 0.71054 0.0
Co69 Co 0.38827 0.37794 0.69044 0.0
C70 C 0.36328 0.3504 0.75017 0.0
O71 O 0.33729 0.3658 0.74389 0.0
O72 O 0.38792 0.35492 0.73277 0.0
C73 C 0.30131 0.44171 0.75251 0.0
O74 O 0.33249 0.43831 0.75561 0.0
C75 C 0.45703 0.37076 0.68728 0.0
C76 C 0.46694 0.37204 0.63548 0.0
C77 C 0.48163 0.37134 0.665 0.0
N78 N 0.42909 0.37101 0.6717 0.0
N79 N 0.43509 0.37119 0.64073 0.0
C80 C 0.45981 0.37464 0.72263 0.0
H81 H 0.43827 0.38685 0.73245 0.0
H82 H 0.48125 0.38881 0.72877 0.0
H83 H 0.46199 0.35048 0.734 0.0
C84 C 0.34848 0.46504 0.69355 0.0
N85 N 0.35147 0.43261 0.6957 0.0
N86 N 0.38164 0.42444 0.69266 0.0
C87 C 0.39919 0.45195 0.69064 0.0
C88 C 0.37865 0.47899 0.69178 0.0
C89 C 0.31704 0.48256 0.69082 0.0
H90 H 0.29792 0.46584 0.68356 0.0
H91 H 0.31027 0.4935 0.71389 0.0
H92 H 0.31906 0.50243 0.67303 0.0
O93 O 0.30652 0.37568 0.67496 0.0
O94 O 0.35426 0.35428 0.66398 0.0
H95 H 0.44374 0.43816 0.6691 0.0
H96 H 0.44442 0.47713 0.68787 0.0
C97 C 0.43498 0.45235 0.68968 0.0
H98 H 0.44437 0.44095 0.71173 0.0
H99 H 0.41748 0.37262 0.62325 0.0
O100 O 0.28733 0.42436 0.73223 0.0
C101 C 0.3238 0.35547 0.65989 0.0
Co102 Co 0.71059 0.82106 0.18569 0.0
Co103 Co 0.72176 0.89273 0.1915 0.0
C104 C 0.75336 0.85355 0.23914 0.0
O105 O 0.74448 0.82893 0.22311 0.0
O106 O 0.74249 0.88148 0.23202 0.0
C107 C 0.67544 0.7607 0.1993 0.0
O108 O 0.66926 0.73052 0.19282 0.0
C109 C 0.72312 0.96187 0.20448 0.0
C110 C 0.71285 0.98184 0.15651 0.0
C111 C 0.7171 0.99034 0.188 0.0
N112 N 0.72176 0.93757 0.18371 0.0
N113 N 0.71609 0.94967 0.15504 0.0
C114 C 0.73118 0.95768 0.23901 0.0
H115 H 0.75304 0.94254 0.24116 0.0
H116 H 0.71151 0.94498 0.25162 0.0
H117 H 0.73559 0.98108 0.2506 0.0
C118 C 0.64054 0.84431 0.18185 0.0
N119 N 0.6726 0.8488 0.18453 0.0
N120 N 0.67761 0.87911 0.19094 0.0
C121 C 0.64891 0.89423 0.19513 0.0
C122 C 0.62406 0.87257 0.18987 0.0
C123 C 0.62582 0.8158 0.16631 0.0
H124 H 0.64443 0.80011 0.15547 0.0
H125 H 0.6113 0.80195 0.18371 0.0
H126 H 0.60919 0.82422 0.14739 0.0
O127 O 0.73412 0.82614 0.14614 0.0
O128 O 0.75305 0.87319 0.15952 0.0
H129 H 0.64858 0.94469 0.185 0.0
H130 H 0.62161 0.93288 0.2168 0.0
C131 C 0.64544 0.92831 0.20583 0.0
H132 H 0.6642 0.9337 0.22341 0.0
H133 H 0.71322 0.93581 0.13468 0.0
O134 O 0.69767 0.77484 0.18393 0.0
C135 C 0.7553 0.84753 0.14317 0.0
Co136 Co 0.26636 0.3852 0.88242 0.0
Co137 Co 0.19467 0.37594 0.88781 0.0
C138 C 0.22664 0.34054 0.8368 0.0
O139 O 0.25321 0.34982 0.84877 0.0
O140 O 0.20042 0.35222 0.84728 0.0
C141 C 0.32489 0.41738 0.85942 0.0
O142 O 0.35581 0.42252 0.86109 0.0
C143 C 0.128 0.38521 0.87456 0.0
C144 C 0.10591 0.38566 0.92262 0.0
C145 C 0.09955 0.39127 0.89062 0.0
N146 N 0.15026 0.37704 0.89614 0.0
N147 N 0.13686 0.37657 0.92476 0.0
C148 C 0.13544 0.3919 0.84012 0.0
H149 H 0.16088 0.39875 0.83705 0.0
H150 H 0.11999 0.41148 0.83043 0.0
H151 H 0.13124 0.36976 0.82625 0.0
C152 C 0.24693 0.45635 0.88918 0.0
N153 N 0.24057 0.42447 0.886 0.0
N154 N 0.20944 0.42066 0.88552 0.0
C155 C 0.19522 0.45034 0.88585 0.0
C156 C 0.2185 0.47435 0.88714 0.0
C157 C 0.27843 0.46898 0.89998 0.0
H158 H 0.29617 0.44946 0.90324 0.0
H159 H 0.28721 0.4878 0.8832 0.0
H160 H 0.27542 0.47992 0.92378 0.0
O161 O 0.26596 0.36378 0.92327 0.0
O162 O 0.21646 0.34605 0.92065 0.0
H163 H 0.14987 0.43941 0.90723 0.0
H164 H 0.1545 0.48101 0.89696 0.0
C165 C 0.15994 0.4561 0.88918 0.0
H166 H 0.14822 0.45218 0.86598 0.0
H167 H 0.14931 0.3722 0.94586 0.0
O168 O 0.31258 0.39574 0.87713 0.0
C169 C 0.24452 0.34452 0.93267 0.0
Co170 Co 0.68267 0.77277 0.36068 0.0
Co171 Co 0.70656 0.71053 0.39185 0.0
C172 C 0.73766 0.73236 0.33052 0.0
O173 O 0.7178 0.75593 0.32957 0.0
O174 O 0.73575 0.7118 0.35313 0.0
C175 C 0.64354 0.78533 0.31387 0.0
O176 O 0.64712 0.75392 0.31618 0.0
C177 C 0.71496 0.64222 0.39557 0.0
C178 C 0.70896 0.63085 0.44678 0.0
C179 C 0.7117 0.61691 0.41699 0.0
N180 N 0.71341 0.66987 0.41172 0.0
N181 N 0.71046 0.66303 0.44243 0.0
C182 C 0.71874 0.64055 0.36006 0.0
H183 H 0.74254 0.65019 0.35329 0.0
H184 H 0.70033 0.65594 0.34834 0.0
H185 H 0.71745 0.61561 0.35112 0.0
C186 C 0.61874 0.74557 0.37795 0.0
N187 N 0.65113 0.74368 0.37747 0.0
N188 N 0.6603 0.71444 0.38502 0.0
C189 C 0.63352 0.6961 0.38861 0.0
C190 C 0.60598 0.71521 0.38358 0.0
C191 C 0.60003 0.77645 0.37525 0.0
H192 H 0.61549 0.79731 0.38039 0.0
H193 H 0.59013 0.77927 0.35094 0.0
H194 H 0.57947 0.77611 0.39218 0.0
O195 O 0.70603 0.79227 0.39586 0.0
O196 O 0.72376 0.74696 0.41898 0.0
H197 H 0.64552 0.65581 0.41836 0.0
H198 H 0.61002 0.65012 0.3947 0.0
C199 C 0.63428 0.66067 0.39493 0.0
H200 H 0.64909 0.64901 0.37632 0.0
H201 H 0.70741 0.68027 0.46014 0.0
O202 O 0.65842 0.80286 0.33347 0.0
C203 C 0.72265 0.77785 0.41718 0.0
Co204 Co 0.32777 0.1906 0.88044 0.0
Co205 Co 0.38669 0.21863 0.90852 0.0
C206 C 0.36606 0.24498 0.8461 0.0
O207 O 0.34219 0.22621 0.849 0.0
O208 O 0.38818 0.24325 0.86666 0.0
C209 C 0.32929 0.14788 0.83586 0.0
O210 O 0.35843 0.15941 0.83746 0.0
C211 C 0.45238 0.23584 0.91621 0.0
C212 C 0.46384 0.21135 0.96159 0.0
C213 C 0.47761 0.22482 0.9345 0.0
N214 N 0.42484 0.22787 0.93086 0.0
N215 N 0.43183 0.21436 0.95865 0.0
C216 C 0.45476 0.25071 0.88362 0.0
H217 H 0.43815 0.27163 0.882 0.0
H218 H 0.44815 0.23276 0.86548 0.0
H219 H 0.47941 0.25919 0.87849 0.0
C220 C 0.35496 0.12996 0.9043 0.0
N221 N 0.3567 0.16226 0.90132 0.0
N222 N 0.38595 0.17169 0.90568 0.0
C223 C 0.40466 0.14476 0.90932 0.0
C224 C 0.38557 0.11695 0.90793 0.0
C225 C 0.32387 0.11215 0.90609 0.0
H226 H 0.3043 0.12858 0.91394 0.0
H227 H 0.31745 0.10265 0.88246 0.0
H228 H 0.32587 0.09144 0.92293 0.0
O229 O 0.30298 0.21255 0.91253 0.0
O230 O 0.34619 0.23679 0.93164 0.0
H231 H 0.44663 0.14351 0.93786 0.0
H232 H 0.45132 0.12469 0.89966 0.0
C233 C 0.44019 0.14535 0.91229 0.0
H234 H 0.44949 0.16819 0.90235 0.0
H235 H 0.41495 0.2037 0.97379 0.0
O236 O 0.30703 0.16047 0.85279 0.0
C237 C 0.31558 0.23292 0.93108 0.0
Co238 Co 0.88887 0.82041 0.39765 0.0
Co239 Co 0.87246 0.89178 0.39337 0.0
C240 C 0.85001 0.85279 0.34098 0.0
O241 O 0.8592 0.82771 0.35691 0.0
O242 O 0.85753 0.88083 0.35038 0.0
C243 C 0.9281 0.76075 0.38635 0.0
O244 O 0.93568 0.73133 0.39553 0.0
C245 C 0.86868 0.96106 0.38058 0.0
C246 C 0.86737 0.97991 0.42968 0.0
C247 C 0.86901 0.98925 0.39794 0.0
N248 N 0.86757 0.9362 0.40124 0.0
N249 N 0.86629 0.94759 0.4305 0.0
C250 C 0.86775 0.95752 0.34511 0.0
H251 H 0.84538 0.94502 0.33874 0.0
H252 H 0.88798 0.94217 0.33694 0.0
H253 H 0.8682 0.9811 0.33251 0.0
C254 C 0.95638 0.84713 0.40681 0.0
N255 N 0.92419 0.8503 0.40315 0.0
N256 N 0.91727 0.88089 0.39896 0.0
C257 C 0.94497 0.89789 0.39824 0.0
C258 C 0.97102 0.87697 0.40286 0.0
C259 C 0.9732 0.81689 0.4172 0.0
H260 H 0.95632 0.80031 0.42933 0.0
H261 H 0.98442 0.80505 0.39636 0.0
H262 H 0.99279 0.8227 0.43387 0.0
O263 O 0.85944 0.82184 0.43378 0.0
O264 O 0.83948 0.86943 0.42136 0.0
H265 H 0.93463 0.94676 0.41019 0.0
H266 H 0.97163 0.94147 0.38818 0.0
C267 C 0.94662 0.93313 0.39083 0.0
H268 H 0.93373 0.93832 0.36839 0.0
H269 H 0.86594 0.93322 0.45106 0.0
O270 O 0.90607 0.77557 0.40145 0.0
C271 C 0.83701 0.84242 0.43586 0.0
Co272 Co 0.69039 0.28433 0.20515 0.0
Co273 Co 0.68695 0.21404 0.22351 0.0
C274 C 0.73735 0.24919 0.25299 0.0
O275 O 0.72347 0.27474 0.24221 0.0
O276 O 0.7287 0.22173 0.24343 0.0
C277 C 0.71324 0.34071 0.16831 0.0
O278 O 0.71046 0.37112 0.15977 0.0
C279 C 0.6987 0.1456 0.22758 0.0
C280 C 0.65007 0.12571 0.23322 0.0
C281 C 0.68194 0.11704 0.22911 0.0
N282 N 0.67764 0.17003 0.22992 0.0
N283 N 0.64866 0.1581 0.23392 0.0
C284 C 0.73418 0.15003 0.22462 0.0
H285 H 0.74309 0.16057 0.24701 0.0
H286 H 0.73959 0.16733 0.20503 0.0
H287 H 0.7472 0.12702 0.22079 0.0
C288 C 0.68523 0.25656 0.13751 0.0
N289 N 0.68822 0.25419 0.16975 0.0
N290 N 0.68828 0.22358 0.17789 0.0
C291 C 0.68784 0.20564 0.15096 0.0
C292 C 0.68663 0.22582 0.124 0.0
C293 C 0.67559 0.28681 0.12034 0.0
H294 H 0.6736 0.30729 0.13665 0.0
H295 H 0.69242 0.29187 0.10037 0.0
H296 H 0.65133 0.28388 0.11039 0.0
O297 O 0.6487 0.2861 0.22521 0.0
O298 O 0.65581 0.2403 0.25095 0.0
H299 H 0.67763 0.16075 0.12737 0.0
H300 H 0.70869 0.1588 0.15703 0.0
C301 C 0.68519 0.16972 0.15092 0.0
H302 H 0.66729 0.16193 0.1689 0.0
H303 H 0.62783 0.17205 0.23575 0.0
O304 O 0.69483 0.32964 0.18989 0.0
C305 C 0.64223 0.26793 0.24868 0.0
Co306 Co 0.80457 0.2217 0.69013 0.0
Co307 Co 0.87509 0.20661 0.70537 0.0
C308 C 0.84893 0.26479 0.73266 0.0
O309 O 0.82147 0.25595 0.72232 0.0
O310 O 0.87419 0.24967 0.72449 0.0
C311 C 0.75233 0.25854 0.66181 0.0
O312 O 0.72404 0.26263 0.64891 0.0
C313 C 0.94432 0.20702 0.70772 0.0
C314 C 0.9566 0.15626 0.69759 0.0
C315 C 0.96964 0.18656 0.70085 0.0
N316 N 0.91728 0.18987 0.7074 0.0
N317 N 0.92478 0.1594 0.70211 0.0
C318 C 0.94558 0.24248 0.71379 0.0
H319 H 0.93197 0.25581 0.69519 0.0
H320 H 0.97051 0.25137 0.71444 0.0
H321 H 0.93407 0.24755 0.73714 0.0
C322 C 0.82922 0.21367 0.62222 0.0
N323 N 0.83292 0.21348 0.65436 0.0
N324 N 0.8633 0.20887 0.66081 0.0
C325 C 0.8801 0.20773 0.63296 0.0
C326 C 0.85914 0.21067 0.6072 0.0
C327 C 0.79745 0.21313 0.60598 0.0
H328 H 0.77926 0.20166 0.62164 0.0
H329 H 0.78949 0.23794 0.60021 0.0
H330 H 0.79923 0.19968 0.58329 0.0
O331 O 0.7978 0.18351 0.71706 0.0
O332 O 0.84705 0.17994 0.73559 0.0
H333 H 0.9248 0.1827 0.63743 0.0
H334 H 0.92485 0.21376 0.60698 0.0
C335 C 0.91588 0.20713 0.63106 0.0
H336 H 0.9256 0.22448 0.64817 0.0
H337 H 0.908 0.14116 0.6996 0.0
O338 O 0.76088 0.23107 0.6723 0.0
C339 C 0.81742 0.17266 0.73758 0.0
Co340 Co 0.87341 0.32917 0.17431 0.0
Co341 Co 0.89804 0.39462 0.19653 0.0
C342 C 0.83661 0.37036 0.22428 0.0
O343 O 0.83969 0.34563 0.20667 0.0
O344 O 0.85665 0.39308 0.22142 0.0
C345 C 0.82857 0.30831 0.13351 0.0
O346 O 0.8322 0.33889 0.12635 0.0
C347 C 0.89569 0.46318 0.19691 0.0
C348 C 0.94591 0.4778 0.20333 0.0
C349 C 0.91551 0.48965 0.19657 0.0
N350 N 0.91358 0.43679 0.20251 0.0
N351 N 0.94354 0.44558 0.20691 0.0
C352 C 0.86018 0.46241 0.19205 0.0
H353 H 0.84852 0.45454 0.21462 0.0
H354 H 0.85435 0.44444 0.17364 0.0
H355 H 0.85001 0.48625 0.18547 0.0
C356 C 0.89549 0.35563 0.10989 0.0
N357 N 0.89041 0.35824 0.14184 0.0
N358 N 0.89675 0.3877 0.15053 0.0
C359 C 0.90426 0.40518 0.12388 0.0
C360 C 0.90299 0.38573 0.09685 0.0
C361 C 0.89323 0.32473 0.09196 0.0
H362 H 0.8892 0.30409 0.10834 0.0
H363 H 0.87375 0.32657 0.07416 0.0
H364 H 0.91594 0.32001 0.07899 0.0
O365 O 0.90827 0.31346 0.20237 0.0
O366 O 0.92516 0.36104 0.21951 0.0
H367 H 0.9336 0.44243 0.14241 0.0
H368 H 0.92536 0.44676 0.10063 0.0
C369 C 0.91507 0.43938 0.12402 0.0
H370 H 0.89435 0.45518 0.12953 0.0
H371 H 0.96255 0.42954 0.2107 0.0
O372 O 0.84817 0.2954 0.15307 0.0
C373 C 0.92596 0.33015 0.22056 0.0
Co374 Co 0.77711 0.39203 0.70456 0.0
Co375 Co 0.7046 0.399 0.71121 0.0
C376 C 0.73389 0.35216 0.75322 0.0
O377 O 0.76062 0.36416 0.74378 0.0
O378 O 0.70821 0.35994 0.73881 0.0
C379 C 0.8379 0.3603 0.68756 0.0
O380 O 0.86863 0.35969 0.68076 0.0
C381 C 0.6362 0.3901 0.70429 0.0
C382 C 0.61833 0.44025 0.7004 0.0
C383 C 0.60888 0.40841 0.69874 0.0
N384 N 0.66071 0.41021 0.70862 0.0
N385 N 0.64984 0.44015 0.70686 0.0
C386 C 0.63999 0.35433 0.7018 0.0
H387 H 0.66495 0.34788 0.69504 0.0
H388 H 0.62324 0.34454 0.68401 0.0
H389 H 0.63459 0.34313 0.72534 0.0
C390 C 0.75983 0.38825 0.63307 0.0
N391 N 0.75279 0.38954 0.66484 0.0
N392 N 0.72155 0.39237 0.66818 0.0
C393 C 0.70787 0.39158 0.63887 0.0
C394 C 0.73151 0.38836 0.6153 0.0
C395 C 0.79285 0.3906 0.61936 0.0
H396 H 0.81116 0.38878 0.63801 0.0
H397 H 0.79666 0.37182 0.60107 0.0
H398 H 0.79572 0.41444 0.60763 0.0
O399 O 0.77519 0.43632 0.71862 0.0
O400 O 0.72601 0.43347 0.73748 0.0
H401 H 0.66456 0.41829 0.64716 0.0
H402 H 0.6683 0.40334 0.60748 0.0
C403 C 0.67302 0.39763 0.63289 0.0
H404 H 0.65923 0.37598 0.63985 0.0
H405 H 0.66421 0.46046 0.70862 0.0
O406 O 0.8248 0.38591 0.6978 0.0
C407 C 0.75355 0.44651 0.73733 0.0
Co408 Co 0.71791 0.32185 0.39083 0.0
Co409 Co 0.70134 0.39134 0.3786 0.0
C410 C 0.75043 0.3649 0.33673 0.0
O411 O 0.74268 0.33762 0.34904 0.0
O412 O 0.73943 0.39063 0.34903 0.0
C413 C 0.75727 0.27698 0.42687 0.0
O414 O 0.76502 0.24803 0.43729 0.0
C415 C 0.70244 0.46053 0.38077 0.0
C416 C 0.65126 0.47345 0.38668 0.0
C417 C 0.68182 0.48616 0.38633 0.0
N418 N 0.68493 0.43376 0.37877 0.0
N419 N 0.65433 0.44157 0.38189 0.0
C420 C 0.73808 0.46105 0.3765 0.0
H421 H 0.7439 0.45566 0.35125 0.0
H422 H 0.74932 0.44181 0.39129 0.0
H423 H 0.74845 0.48472 0.38219 0.0
C424 C 0.71221 0.34327 0.45999 0.0
N425 N 0.71329 0.34904 0.42804 0.0
N426 N 0.71106 0.38008 0.42284 0.0
C427 C 0.71175 0.39524 0.45151 0.0
C428 C 0.71313 0.37237 0.47636 0.0
C429 C 0.70571 0.31092 0.47466 0.0
H430 H 0.70411 0.29206 0.45641 0.0
H431 H 0.72409 0.3048 0.49273 0.0
H432 H 0.68213 0.31149 0.48687 0.0
O433 O 0.67574 0.31281 0.37654 0.0
O434 O 0.66763 0.36211 0.3576 0.0
H435 H 0.68549 0.43892 0.44335 0.0
H436 H 0.70556 0.43738 0.48106 0.0
C437 C 0.70756 0.43076 0.45559 0.0
H438 H 0.72824 0.44341 0.44473 0.0
H439 H 0.63572 0.42498 0.38207 0.0
O440 O 0.73595 0.27995 0.40553 0.0
C441 C 0.65971 0.33234 0.35948 0.0
Co442 Co 0.76328 0.21718 0.90995 0.0
Co443 Co 0.69681 0.20262 0.88729 0.0
C444 C 0.72546 0.26272 0.86343 0.0
O445 O 0.75043 0.25527 0.87959 0.0
O446 O 0.70056 0.24558 0.8663 0.0
C447 C 0.78459 0.25221 0.95808 0.0
O448 O 0.75391 0.25939 0.95628 0.0
C449 C 0.62896 0.20841 0.88527 0.0
C450 C 0.6126 0.15817 0.88178 0.0
C451 C 0.60203 0.18946 0.88678 0.0
N452 N 0.65447 0.18923 0.88047 0.0
N453 N 0.64462 0.15926 0.87774 0.0
C454 C 0.63094 0.2441 0.88968 0.0
H455 H 0.63733 0.25548 0.86647 0.0
H456 H 0.65025 0.24973 0.90668 0.0
H457 H 0.60795 0.25477 0.89789 0.0
C458 C 0.73635 0.19478 0.97279 0.0
N459 N 0.73347 0.20022 0.94095 0.0
N460 N 0.70325 0.20137 0.9334 0.0
C461 C 0.68581 0.19942 0.96097 0.0
C462 C 0.70623 0.19628 0.98733 0.0
C463 C 0.76752 0.18756 0.989 0.0
H464 H 0.78765 0.18673 0.97171 0.0
H465 H 0.77197 0.20548 1.00786 0.0
H466 H 0.76642 0.16342 1.00041 0.0
O467 O 0.77741 0.18376 0.8804 0.0
O468 O 0.72879 0.17564 0.86087 0.0
H469 H 0.64084 0.18251 0.94439 0.0
H470 H 0.64134 0.19111 0.98626 0.0
C471 C 0.65013 0.19911 0.96247 0.0
H472 H 0.64101 0.22376 0.95752 0.0
H473 H 0.65988 0.13939 0.87525 0.0
O474 O 0.79694 0.2341 0.93684 0.0
C475 C 0.75927 0.17113 0.85974 0.0
Co476 Co 0.88693 0.28625 0.39153 0.0
Co477 Co 0.89579 0.21536 0.37284 0.0
C478 C 0.83821 0.24857 0.34967 0.0
O479 O 0.84781 0.27426 0.3632 0.0
O480 O 0.85364 0.2223 0.3533 0.0
C481 C 0.85181 0.31723 0.43115 0.0
O482 O 0.84328 0.28694 0.42904 0.0
C483 C 0.8882 0.14641 0.36492 0.0
C484 C 0.93752 0.12812 0.37189 0.0
C485 C 0.90623 0.11841 0.3676 0.0
N486 N 0.90781 0.17157 0.36809 0.0
N487 N 0.93735 0.16054 0.37172 0.0
C488 C 0.85302 0.14938 0.3586 0.0
H489 H 0.84943 0.16348 0.3363 0.0
H490 H 0.84107 0.16262 0.37824 0.0
H491 H 0.84164 0.12561 0.35565 0.0
C492 C 0.89861 0.25816 0.45716 0.0
N493 N 0.89802 0.25534 0.42499 0.0
N494 N 0.89569 0.22486 0.41785 0.0
C495 C 0.8924 0.20751 0.44536 0.0
C496 C 0.89348 0.22822 0.47154 0.0
C497 C 0.90586 0.2887 0.47425 0.0
H498 H 0.91619 0.30681 0.45759 0.0
H499 H 0.88387 0.29864 0.48541 0.0
H500 H 0.92304 0.28359 0.49377 0.0
O501 O 0.922 0.29314 0.36109 0.0
O502 O 0.92453 0.24272 0.34428 0.0
H503 H 0.90708 0.15868 0.43871 0.0
H504 H 0.87801 0.16401 0.47043 0.0
C505 C 0.88538 0.17227 0.44628 0.0
H506 H 0.8661 0.16699 0.42918 0.0
H507 H 0.95716 0.17512 0.37546 0.0
O508 O 0.8741 0.32695 0.41291 0.0
C509 C 0.93231 0.27235 0.34134 0.0
Co510 Co 0.82883 0.39543 0.88954 0.0
Co511 Co 0.88908 0.41982 0.86035 0.0
C512 C 0.86369 0.36015 0.83398 0.0
O513 O 0.84057 0.36458 0.85345 0.0
O514 O 0.88759 0.3788 0.83488 0.0
C515 C 0.83201 0.34915 0.92946 0.0
O516 O 0.85938 0.34981 0.9138 0.0
C517 C 0.95555 0.42247 0.84787 0.0
C518 C 0.96692 0.47425 0.84822 0.0
C519 C 0.98073 0.44377 0.84704 0.0
N520 N 0.92815 0.43938 0.8491 0.0
N521 N 0.93488 0.47041 0.84868 0.0
C522 C 0.95747 0.38681 0.85381 0.0
H523 H 0.95687 0.37425 0.83061 0.0
H524 H 0.93684 0.37871 0.86849 0.0
H525 H 0.97982 0.37975 0.86627 0.0
C526 C 0.85813 0.4166 0.94898 0.0
N527 N 0.85934 0.41414 0.91691 0.0
N528 N 0.88885 0.41596 0.90681 0.0
C529 C 0.90803 0.41727 0.93299 0.0
C530 C 0.88902 0.4173 0.96091 0.0
C531 C 0.8277 0.41616 0.96818 0.0
H532 H 0.80642 0.41545 0.9526 0.0
H533 H 0.82793 0.39537 0.985 0.0
H534 H 0.8258 0.43836 0.98249 0.0
O535 O 0.8056 0.42991 0.8688 0.0
O536 O 0.85016 0.44604 0.8438 0.0
H537 H 0.9537 0.42488 0.95537 0.0
H538 H 0.95374 0.39591 0.92357 0.0
C539 C 0.94371 0.41927 0.93164 0.0
H540 H 0.95095 0.43812 0.91421 0.0
H541 H 0.91784 0.48875 0.85118 0.0
O542 O 0.80859 0.3666 0.9198 0.0
C543 C 0.81961 0.44781 0.84817 0.0
Co544 Co 0.19609 0.7025 0.25959 0.0
Co545 Co 0.22183 0.67718 0.19868 0.0
C546 C 0.25191 0.73592 0.2223 0.0
O547 O 0.23358 0.7321 0.24648 0.0
O548 O 0.24867 0.71742 0.19868 0.0
C549 C 0.15723 0.7496 0.25699 0.0
O550 O 0.17252 0.74824 0.22954 0.0
C551 C 0.23377 0.67307 0.13169 0.0
C552 C 0.21663 0.62455 0.12024 0.0
C553 C 0.22532 0.65373 0.10658 0.0
N554 N 0.22941 0.65662 0.15905 0.0
N555 N 0.22 0.62724 0.15207 0.0
C556 C 0.24306 0.70779 0.12975 0.0
H557 H 0.26603 0.71097 0.14232 0.0
H558 H 0.22442 0.72282 0.1415 0.0
H559 H 0.24648 0.71613 0.10476 0.0
C560 C 0.13503 0.68288 0.23378 0.0
N561 N 0.16715 0.68377 0.2308 0.0
N562 N 0.17545 0.68315 0.20089 0.0
C563 C 0.14806 0.68454 0.18332 0.0
C564 C 0.12103 0.68503 0.20383 0.0
C565 C 0.11814 0.67875 0.26523 0.0
H566 H 0.13444 0.66721 0.28282 0.0
H567 H 0.11053 0.70233 0.27475 0.0
H568 H 0.09641 0.6639 0.26237 0.0
O569 O 0.21534 0.66774 0.28244 0.0
O570 O 0.23866 0.65003 0.2377 0.0
H571 H 0.15884 0.6671 0.13682 0.0
H572 H 0.12351 0.69267 0.13864 0.0
C573 C 0.14799 0.68871 0.14799 0.0
H574 H 0.16301 0.70972 0.1417 0.0
H575 H 0.21284 0.61015 0.16902 0.0
O576 O 0.16663 0.73189 0.28024 0.0
C577 C 0.23462 0.64859 0.26828 0.0
Co578 Co 0.18508 0.88011 0.32423 0.0
Co579 Co 0.20859 0.89163 0.39047 0.0
C580 C 0.22962 0.83135 0.3613 0.0
O581 O 0.21412 0.84028 0.33637 0.0
O582 O 0.2273 0.84793 0.38652 0.0
C583 C 0.13604 0.84734 0.30342 0.0
O584 O 0.13992 0.8385 0.33338 0.0
C585 C 0.21343 0.88769 0.45813 0.0
C586 C 0.20602 0.93846 0.47179 0.0
C587 C 0.20663 0.90724 0.48375 0.0
N588 N 0.2154 0.90632 0.43195 0.0
N589 N 0.21179 0.93674 0.44026 0.0
C590 C 0.21722 0.85178 0.45815 0.0
H591 H 0.19775 0.84084 0.44424 0.0
H592 H 0.21739 0.84151 0.48266 0.0
H593 H 0.24024 0.84538 0.4464 0.0
C594 C 0.12278 0.90266 0.35252 0.0
N595 N 0.15478 0.89725 0.35465 0.0
N596 N 0.16261 0.89433 0.38457 0.0
C597 C 0.1352 0.89521 0.40243 0.0
C598 C 0.1087 0.89998 0.38253 0.0
C599 C 0.10566 0.91198 0.32247 0.0
H600 H 0.12292 0.9176 0.30301 0.0
H601 H 0.08947 0.89248 0.3151 0.0
H602 H 0.09034 0.93346 0.32699 0.0
O603 O 0.21577 0.91277 0.31051 0.0
O604 O 0.23604 0.91778 0.35898 0.0
H605 H 0.14538 0.90919 0.44998 0.0
H606 H 0.10894 0.8866 0.44634 0.0
C607 C 0.13392 0.889 0.43752 0.0
H608 H 0.14737 0.86659 0.44305 0.0
H609 H 0.21043 0.95596 0.4241 0.0
O610 O 0.1568 0.86576 0.2906 0.0
C611 C 0.23722 0.92359 0.32889 0.0
Co612 Co 0.21323 0.70308 0.81885 0.0
Co613 Co 0.20172 0.71436 0.88904 0.0
C614 C 0.25529 0.74952 0.86066 0.0
O615 O 0.24543 0.73933 0.83367 0.0
O616 O 0.24283 0.7385 0.88625 0.0
C617 C 0.2432 0.66671 0.76665 0.0
O618 O 0.24525 0.65904 0.7364 0.0
C619 C 0.20799 0.70722 0.9567 0.0
C620 C 0.15771 0.70776 0.97362 0.0
C621 C 0.18894 0.70227 0.98334 0.0
N622 N 0.18883 0.71424 0.93207 0.0
N623 N 0.15884 0.71511 0.94229 0.0
C624 C 0.24378 0.70556 0.95419 0.0
H625 H 0.25294 0.73022 0.94994 0.0
H626 H 0.251 0.6909 0.93334 0.0
H627 H 0.25499 0.69583 0.97616 0.0
C628 C 0.20356 0.63273 0.8396 0.0
N629 N 0.20665 0.66475 0.84535 0.0
N630 N 0.20529 0.66932 0.87618 0.0
C631 C 0.20387 0.64001 0.89103 0.0
C632 C 0.20356 0.61546 0.86842 0.0
C633 C 0.19591 0.61921 0.80765 0.0
H634 H 0.19328 0.63841 0.78948 0.0
H635 H 0.21429 0.60115 0.8006 0.0
H636 H 0.17245 0.60709 0.80877 0.0
O637 O 0.1727 0.72501 0.81422 0.0
O638 O 0.16955 0.74218 0.86383 0.0
H639 H 0.19283 0.61 0.93221 0.0
H640 H 0.22168 0.64122 0.93855 0.0
C641 C 0.19926 0.63518 0.92614 0.0
H642 H 0.17968 0.65102 0.93472 0.0
H643 H 0.13911 0.71906 0.92761 0.0
O644 O 0.22411 0.68925 0.77479 0.0
C645 C 0.1601 0.7433 0.83486 0.0
Co646 Co 0.3819 0.68769 0.31841 0.0
Co647 Co 0.37025 0.6858 0.38895 0.0
C648 C 0.33394 0.73432 0.35614 0.0
O649 O 0.34344 0.72031 0.33044 0.0
O650 O 0.34652 0.72647 0.38266 0.0
C651 C 0.41681 0.7104 0.26175 0.0
O652 O 0.42467 0.70844 0.23145 0.0
C653 C 0.37004 0.69471 0.4573 0.0
C654 C 0.38207 0.64568 0.47475 0.0
C655 C 0.37776 0.67719 0.4844 0.0
N656 N 0.37057 0.6746 0.43252 0.0
N657 N 0.37721 0.64523 0.4431 0.0
C658 C 0.36192 0.72987 0.45479 0.0
H659 H 0.33731 0.73261 0.44531 0.0
H660 H 0.37832 0.74191 0.43763 0.0
H661 H 0.36291 0.74193 0.4782 0.0
C662 C 0.45184 0.68413 0.33954 0.0
N663 N 0.41981 0.68667 0.34482 0.0
N664 N 0.41465 0.68954 0.37546 0.0
C665 C 0.44333 0.69219 0.39033 0.0
C666 C 0.46827 0.68913 0.36797 0.0
C667 C 0.46628 0.66938 0.31025 0.0
H668 H 0.44745 0.66015 0.29438 0.0
H669 H 0.48131 0.68691 0.29717 0.0
H670 H 0.48232 0.6491 0.31731 0.0
O671 O 0.36472 0.64506 0.31947 0.0
O672 O 0.34205 0.65296 0.36614 0.0
H673 H 0.44379 0.67608 0.43883 0.0
H674 H 0.47043 0.70921 0.43049 0.0
C675 C 0.44675 0.69884 0.42509 0.0
H676 H 0.42797 0.71602 0.43278 0.0
H677 H 0.38004 0.62523 0.42846 0.0
O678 O 0.39478 0.69248 0.27276 0.0
C679 C 0.343 0.63833 0.33947 0.0
Co680 Co 0.39287 0.90414 0.83249 0.0
Co681 Co 0.41095 0.87723 0.89595 0.0
C682 C 0.35098 0.85338 0.86919 0.0
O683 O 0.35762 0.87115 0.84498 0.0
O684 O 0.36853 0.85491 0.89372 0.0
C685 C 0.35184 0.95041 0.82132 0.0
O686 O 0.34834 0.94241 0.85155 0.0
C687 C 0.40949 0.86915 0.96291 0.0
C688 C 0.46049 0.86846 0.97655 0.0
C689 C 0.42959 0.86964 0.98885 0.0
N690 N 0.42754 0.86765 0.93646 0.0
N691 N 0.45804 0.86665 0.9446 0.0
C692 C 0.37419 0.87623 0.9627 0.0
H693 H 0.36755 0.88993 0.9409 0.0
H694 H 0.36658 0.89046 0.98368 0.0
H695 H 0.36099 0.85317 0.96297 0.0
C696 C 0.41468 0.96508 0.85994 0.0
N697 N 0.41062 0.93294 0.86252 0.0
N698 N 0.41051 0.92421 0.89243 0.0
C699 C 0.41217 0.95148 0.91029 0.0
C700 C 0.41418 0.97874 0.89007 0.0
C701 C 0.42067 0.98243 0.82893 0.0
H702 H 0.4284 0.96518 0.8103 0.0
H703 H 0.39879 0.99514 0.82071 0.0
H704 H 0.43942 1.00087 0.83211 0.0
O705 O 0.42673 0.87836 0.81409 0.0
O706 O 0.43731 0.85453 0.86068 0.0
H707 H 0.42791 0.93473 0.95598 0.0
H708 H 0.41418 0.9761 0.95548 0.0
C709 C 0.41003 0.95177 0.94587 0.0
H710 H 0.38588 0.94383 0.95348 0.0
H711 H 0.47708 0.8672 0.92836 0.0
O712 O 0.37112 0.93404 0.80408 0.0
C713 C 0.44109 0.85654 0.83025 0.0
Co714 Co 0.40528 0.86696 0.27159 0.0
Co715 Co 0.3857 0.8889 0.20537 0.0
C716 C 0.35843 0.82811 0.22887 0.0
O717 O 0.37242 0.8339 0.25518 0.0
O718 O 0.36378 0.84608 0.2048 0.0
C719 C 0.44347 0.82157 0.29172 0.0
O720 O 0.44284 0.82136 0.2604 0.0
C721 C 0.38374 0.88869 0.13785 0.0
C722 C 0.38347 0.94023 0.12419 0.0
C723 C 0.38579 0.90939 0.11198 0.0
N724 N 0.38038 0.90635 0.16419 0.0
N725 N 0.37961 0.93715 0.15601 0.0
C726 C 0.39046 0.85312 0.13829 0.0
H727 H 0.40298 0.84596 0.16049 0.0
H728 H 0.40558 0.84571 0.11776 0.0
H729 H 0.36745 0.84004 0.13731 0.0
C730 C 0.4714 0.88305 0.24626 0.0
N731 N 0.4391 0.88185 0.24311 0.0
N732 N 0.43166 0.88747 0.2133 0.0
C733 C 0.45937 0.89129 0.19626 0.0
C734 C 0.48577 0.88795 0.21656 0.0
C735 C 0.48861 0.88081 0.27741 0.0
H736 H 0.47209 0.88636 0.29748 0.0
H737 H 0.4987 0.85623 0.28074 0.0
H738 H 0.50894 0.89784 0.27744 0.0
O739 O 0.37808 0.90266 0.28618 0.0
O740 O 0.35934 0.91462 0.23794 0.0
H741 H 0.44515 0.91693 0.1541 0.0
H742 H 0.48553 0.90128 0.15243 0.0
C743 C 0.46087 0.89641 0.16093 0.0
H744 H 0.45238 0.87455 0.14889 0.0
H745 H 0.37864 0.95601 0.17224 0.0
O746 O 0.42671 0.84269 0.30607 0.0
C747 C 0.35823 0.91773 0.26835 0.0
Co748 Co 0.20389 0.90193 0.76184 0.0
Co749 Co 0.18145 0.87522 0.70008 0.0
C750 C 0.24267 0.84943 0.72481 0.0
O751 O 0.23772 0.86758 0.74878 0.0
O752 O 0.22368 0.85139 0.70137 0.0
C753 C 0.24692 0.94556 0.76723 0.0
O754 O 0.24837 0.93535 0.73769 0.0
C755 C 0.18079 0.86502 0.63314 0.0
C756 C 0.13015 0.87258 0.62026 0.0
C757 C 0.1607 0.8694 0.60749 0.0
N758 N 0.16326 0.8663 0.65999 0.0
N759 N 0.13282 0.87003 0.65223 0.0
C760 C 0.2166 0.86232 0.63226 0.0
H761 H 0.22385 0.83897 0.64313 0.0
H762 H 0.22718 0.88195 0.64634 0.0
H763 H 0.22636 0.86297 0.60762 0.0
C764 C 0.1814 0.9635 0.734 0.0
N765 N 0.18495 0.93119 0.73217 0.0
N766 N 0.18278 0.92215 0.70265 0.0
C767 C 0.18001 0.94925 0.68414 0.0
C768 C 0.17951 0.97677 0.70349 0.0
C769 C 0.17825 0.98136 0.76477 0.0
H770 H 0.17144 0.96464 0.78444 0.0
H771 H 0.20115 0.9929 0.7709 0.0
H772 H 0.15992 1.00075 0.76242 0.0
O773 O 0.1703 0.87786 0.78258 0.0
O774 O 0.15583 0.85447 0.73734 0.0
H775 H 0.16206 0.93399 0.63938 0.0
H776 H 0.17985 0.97356 0.63822 0.0
C777 C 0.18159 0.94901 0.64869 0.0
H778 H 0.20482 0.93807 0.64162 0.0
H779 H 0.11431 0.87362 0.66869 0.0
O780 O 0.22832 0.93145 0.78707 0.0
C781 C 0.15386 0.85707 0.76789 0.0
Co782 Co 0.38348 0.69739 0.77068 0.0
Co783 Co 0.39899 0.718 0.70253 0.0
C784 C 0.3402 0.74524 0.73059 0.0
O785 O 0.34809 0.73098 0.75673 0.0
O786 O 0.35642 0.74 0.70541 0.0
C787 C 0.34493 0.65596 0.79607 0.0
O788 O 0.33808 0.66013 0.76573 0.0
C789 C 0.39588 0.72444 0.63423 0.0
C790 C 0.44623 0.71737 0.61928 0.0
C791 C 0.41531 0.72015 0.6078 0.0
N792 N 0.41427 0.72353 0.66029 0.0
N793 N 0.44447 0.72005 0.65124 0.0
C794 C 0.36016 0.72831 0.63487 0.0
H795 H 0.34966 0.7271 0.61072 0.0
H796 H 0.354 0.75217 0.64495 0.0
H797 H 0.34933 0.70967 0.65057 0.0
C798 C 0.39928 0.63181 0.74433 0.0
N799 N 0.3964 0.6642 0.74099 0.0
N800 N 0.39756 0.67188 0.71072 0.0
C801 C 0.39881 0.64419 0.69359 0.0
C802 C 0.3995 0.61742 0.71441 0.0
C803 C 0.40518 0.61497 0.77556 0.0
H804 H 0.4141 0.63218 0.79341 0.0
H805 H 0.38286 0.60401 0.78477 0.0
H806 H 0.42297 0.59522 0.77234 0.0
O807 O 0.42015 0.7228 0.7819 0.0
O808 O 0.42778 0.74298 0.73319 0.0
H809 H 0.41996 0.65166 0.64766 0.0
H810 H 0.39162 0.619 0.64924 0.0
C811 C 0.39693 0.6434 0.65807 0.0
H812 H 0.37782 0.66012 0.65003 0.0
H813 H 0.46358 0.71731 0.66695 0.0
O814 O 0.36598 0.67386 0.80809 0.0
C815 C 0.43398 0.74259 0.76314 0.0
C816 C 0.27338 0.32909 0.64158 0.0
C817 C 0.30704 0.32838 0.64416 0.0
H818 H 0.2302 0.30176 0.64037 0.0
C819 C 0.32308 0.29901 0.63886 0.0
H820 H 0.26014 0.35136 0.64491 0.0
C821 C 0.30577 0.27042 0.63599 0.0
C822 C 0.27206 0.27057 0.63853 0.0
H823 H 0.34894 0.29748 0.64025 0.0
H824 H 0.319 0.24789 0.63519 0.0
C825 C 0.25608 0.30051 0.6388 0.0
C826 C 0.84353 0.83529 0.14619 0.0
C827 C 0.84505 0.80197 0.14025 0.0
H828 H 0.81339 0.87692 0.15059 0.0
C829 C 0.81947 0.78792 0.12405 0.0
H830 H 0.86315 0.84726 0.15778 0.0
C831 C 0.79089 0.80521 0.1195 0.0
C832 C 0.78733 0.83664 0.13149 0.0
H833 H 0.82 0.76255 0.11833 0.0
H834 H 0.7704 0.79244 0.11051 0.0
C835 C 0.8149 0.85251 0.14183 0.0
C836 C 0.28781 0.31364 0.96041 0.0
C837 C 0.25644 0.31435 0.94814 0.0
H838 H 0.33165 0.28686 0.96474 0.0
C839 C 0.24215 0.28493 0.94069 0.0
H840 H 0.29938 0.33579 0.96708 0.0
C841 C 0.26071 0.25668 0.93957 0.0
C842 C 0.29387 0.25743 0.94577 0.0
H843 H 0.21797 0.28436 0.93157 0.0
H844 H 0.24983 0.23523 0.93018 0.0
C845 C 0.30648 0.28549 0.95896 0.0
C846 C 0.77715 0.84707 0.43448 0.0
C847 C 0.80464 0.8303 0.44485 0.0
H848 H 0.72893 0.8436 0.41817 0.0
C849 C 0.80116 0.79809 0.45517 0.0
H850 H 0.77862 0.87199 0.42679 0.0
C851 C 0.77256 0.78162 0.44998 0.0
C852 C 0.7468 0.7971 0.43455 0.0
H853 H 0.8216 0.78449 0.46389 0.0
H854 H 0.77198 0.75599 0.45494 0.0
C855 C 0.74853 0.83062 0.42936 0.0
C856 C 0.63437 0.28407 0.33563 0.0
C857 C 0.63886 0.31772 0.33503 0.0
H858 H 0.63146 0.24116 0.30803 0.0
C859 C 0.63202 0.33462 0.30673 0.0
H860 H 0.63836 0.27024 0.35731 0.0
C861 C 0.62713 0.31779 0.27845 0.0
C862 C 0.6298 0.28385 0.27799 0.0
H863 H 0.63447 0.36054 0.30545 0.0
H864 H 0.62573 0.33158 0.25643 0.0
C865 C 0.63025 0.26722 0.30727 0.0
C866 C 0.82269 0.15908 0.79602 0.0
C867 C 0.80394 0.15976 0.76828 0.0
H868 H 0.82331 0.1612 0.84698 0.0
C869 C 0.77062 0.15554 0.77177 0.0
H870 H 0.84839 0.162 0.79446 0.0
C871 C 0.7561 0.15517 0.80207 0.0
C872 C 0.77453 0.159 0.8297 0.0
H873 H 0.75531 0.15554 0.75104 0.0
H874 H 0.7302 0.15501 0.80353 0.0
C875 C 0.80817 0.15869 0.82633 0.0
C876 C 0.9513 0.31734 0.3057 0.0
C877 C 0.94454 0.28442 0.30994 0.0
H878 H 0.9517 0.35775 0.27366 0.0
C879 C 0.94099 0.26552 0.28254 0.0
H880 H 0.95464 0.33262 0.32615 0.0
C881 C 0.93901 0.28004 0.25227 0.0
C882 C 0.94083 0.31373 0.2487 0.0
H883 H 0.93608 0.24002 0.28468 0.0
H884 H 0.93284 0.26517 0.23221 0.0
C885 C 0.94959 0.33182 0.27541 0.0
C886 C 0.76602 0.45882 0.82374 0.0
C887 C 0.79941 0.46354 0.82329 0.0
H888 H 0.72421 0.45076 0.79594 0.0
C889 C 0.81362 0.47502 0.79495 0.0
H890 H 0.75395 0.45091 0.84534 0.0
C891 C 0.79631 0.47533 0.76651 0.0
C892 C 0.76469 0.46382 0.76599 0.0
H893 H 0.83906 0.47982 0.7938 0.0
H894 H 0.80909 0.48023 0.74444 0.0
C895 C 0.74876 0.45895 0.79525 0.0
C896 C 0.25613 0.63391 0.32211 0.0
C897 C 0.25792 0.63069 0.28867 0.0
H898 H 0.28237 0.63798 0.36545 0.0
C899 C 0.28611 0.61782 0.27536 0.0
H900 H 0.23444 0.64273 0.33346 0.0
C901 C 0.31355 0.61422 0.29409 0.0
C902 C 0.31337 0.62427 0.32615 0.0
H903 H 0.28819 0.61418 0.2499 0.0
H904 H 0.33586 0.60793 0.28226 0.0
C905 C 0.2837 0.63089 0.3407 0.0
C906 C 0.29621 0.93467 0.33216 0.0
C907 C 0.26792 0.93477 0.31412 0.0
H908 H 0.34731 0.92989 0.33181 0.0
C909 C 0.27073 0.9379 0.28073 0.0
H910 H 0.29518 0.93257 0.3579 0.0
C911 C 0.30083 0.93647 0.26567 0.0
C912 C 0.32885 0.9317 0.28363 0.0
H913 H 0.24956 0.93845 0.26597 0.0
H914 H 0.30172 0.93587 0.23988 0.0
C915 C 0.32629 0.93306 0.3171 0.0
C916 C 0.13282 0.77236 0.79012 0.0
C917 C 0.14245 0.77194 0.82227 0.0
H918 H 0.12827 0.80029 0.74721 0.0
C919 C 0.14453 0.80144 0.83813 0.0
H920 H 0.13021 0.75004 0.77731 0.0
C921 C 0.14316 0.83045 0.8208 0.0
C922 C 0.1399 0.83035 0.78733 0.0
H923 H 0.15139 0.80214 0.86296 0.0
H924 H 0.14865 0.85249 0.83311 0.0
C925 C 0.13169 0.80132 0.77274 0.0
C926 C 0.4519 0.80004 0.76174 0.0
C927 C 0.45027 0.77035 0.77802 0.0
H928 H 0.45146 0.85132 0.76575 0.0
C929 C 0.45617 0.76981 0.81107 0.0
H930 H 0.44793 0.80145 0.73628 0.0
C931 C 0.45804 0.79854 0.82812 0.0
C932 C 0.45405 0.82836 0.81242 0.0
H933 H 0.45579 0.74731 0.82435 0.0
H934 H 0.45884 0.79714 0.8539 0.0
C935 C 0.45384 0.82879 0.77879 0.0
C936 C 0.19612 0.3058 0.79794 0.0
C937 C 0.22544 0.31436 0.81193 0.0
H938 H 0.17126 0.27546 0.76545 0.0
C939 C 0.25278 0.29639 0.80305 0.0
H940 H 0.17429 0.31864 0.80409 0.0
C941 C 0.25101 0.27113 0.78068 0.0
C942 C 0.22172 0.26279 0.76652 0.0
H943 H 0.27553 0.30189 0.81365 0.0
H944 H 0.27269 0.25839 0.774 0.0
C945 C 0.19431 0.28064 0.77572 0.0
C946 C 0.76255 0.73161 0.27455 0.0
C947 C 0.76608 0.73123 0.30792 0.0
H948 H 0.78589 0.7313 0.22847 0.0
C949 C 0.7976 0.73077 0.31994 0.0
H950 H 0.73882 0.73218 0.26431 0.0
C951 C 0.82464 0.7315 0.29939 0.0
C952 C 0.82116 0.73135 0.26604 0.0
H953 H 0.80138 0.7308 0.34546 0.0
H954 H 0.84835 0.732 0.30965 0.0
C955 C 0.78964 0.73104 0.25399 0.0
C956 C 0.33861 0.27828 0.80283 0.0
C957 C 0.36633 0.27121 0.8206 0.0
H958 H 0.31551 0.3088 0.76786 0.0
C959 C 0.39323 0.29094 0.81502 0.0
H960 H 0.31763 0.2636 0.80617 0.0
C961 C 0.39227 0.31664 0.79255 0.0
C962 C 0.36408 0.32422 0.77555 0.0
H963 H 0.41517 0.2865 0.82797 0.0
H964 H 0.4136 0.33082 0.78868 0.0
C965 C 0.33732 0.30448 0.78107 0.0
C966 C 0.81969 0.87888 0.29569 0.0
C967 C 0.82747 0.85065 0.31297 0.0
H968 H 0.79113 0.90178 0.25999 0.0
C969 C 0.81114 0.82224 0.30484 0.0
H970 H 0.83156 0.90131 0.30066 0.0
C971 C 0.78737 0.8225 0.28073 0.0
C972 C 0.77898 0.85127 0.26444 0.0
H973 H 0.8161 0.80005 0.31767 0.0
H974 H 0.77503 0.80044 0.27543 0.0
C975 C 0.79601 0.87921 0.2722 0.0
C976 C 0.76082 0.27028 0.30462 0.0
C977 C 0.76334 0.25061 0.27749 0.0
H978 H 0.78259 0.28594 0.34837 0.0
C979 C 0.78983 0.22961 0.27539 0.0
H980 H 0.73954 0.28482 0.30831 0.0
C981 C 0.81348 0.22896 0.29902 0.0
C982 C 0.81171 0.24946 0.32559 0.0
H983 H 0.79229 0.21353 0.25534 0.0
H984 H 0.83359 0.21257 0.29615 0.0
C985 C 0.78508 0.27034 0.32799 0.0
C986 C 0.83552 0.31305 0.80879 0.0
C987 C 0.86102 0.335 0.80839 0.0
H988 H 0.81064 0.27513 0.78499 0.0
C989 C 0.88243 0.33377 0.78225 0.0
H990 H 0.81941 0.31237 0.82895 0.0
C991 C 0.87816 0.31152 0.75743 0.0
C992 C 0.85186 0.29043 0.75745 0.0
H993 H 0.90246 0.35009 0.78085 0.0
H994 H 0.89541 0.31092 0.73802 0.0
C995 C 0.83057 0.29161 0.78354 0.0
C996 C 0.79592 0.39025 0.30465 0.0
C997 C 0.77173 0.36694 0.30737 0.0
H998 H 0.83475 0.40985 0.27685 0.0
C999 C 0.76722 0.34676 0.28097 0.0
H1000 H 0.79982 0.40678 0.324 0.0
C1001 C 0.78754 0.34815 0.25386 0.0
C1002 C 0.81252 0.37072 0.25159 0.0
H1003 H 0.74731 0.33043 0.28081 0.0
H1004 H 0.78358 0.33153 0.2346 0.0
C1005 C 0.81592 0.3921 0.27734 0.0
C1006 C 0.75227 0.30962 0.83358 0.0
C1007 C 0.72666 0.28797 0.83705 0.0
H1008 H 0.77486 0.34661 0.80482 0.0
C1009 C 0.70322 0.28849 0.81293 0.0
H1010 H 0.77024 0.3106 0.85196 0.0
C1011 C 0.70578 0.30903 0.78607 0.0
C1012 C 0.73199 0.32983 0.78194 0.0
H1013 H 0.68304 0.27234 0.81433 0.0
H1014 H 0.68726 0.30821 0.76816 0.0
C1015 C 0.75498 0.33013 0.80643 0.0
C1016 C 0.32623 0.78617 0.19902 0.0
C1017 C 0.33236 0.80323 0.22723 0.0
H1018 H 0.29695 0.75143 0.17529 0.0
C1019 C 0.31105 0.79873 0.25302 0.0
H1020 H 0.3417 0.78935 0.17841 0.0
C1021 C 0.28451 0.77818 0.25061 0.0
C1022 C 0.27884 0.76018 0.22302 0.0
H1023 H 0.3142 0.81203 0.27483 0.0
H1024 H 0.26814 0.77644 0.27042 0.0
C1025 C 0.30026 0.76458 0.19713 0.0
C1026 C 0.2569 0.7824 0.3351 0.0
C1027 C 0.2547 0.80472 0.36014 0.0
H1028 H 0.2832 0.74264 0.31406 0.0
C1029 C 0.27879 0.80318 0.38356 0.0
H1030 H 0.23858 0.78232 0.31699 0.0
C1031 C 0.30429 0.78088 0.38172 0.0
C1032 C 0.30707 0.75905 0.35634 0.0
H1033 H 0.27845 0.81981 0.40326 0.0
H1034 H 0.32215 0.78097 0.40031 0.0
C1035 C 0.28266 0.75986 0.33325 0.0
C1036 C 0.28619 0.79688 0.83682 0.0
C1037 C 0.27999 0.77597 0.86273 0.0
H1038 H 0.3127 0.8376 0.81861 0.0
C1039 C 0.29632 0.78195 0.8914 0.0
H1040 H 0.27345 0.79368 0.81478 0.0
C1041 C 0.31852 0.80732 0.89374 0.0
C1042 C 0.32507 0.82803 0.8676 0.0
H1043 H 0.29216 0.76679 0.91215 0.0
H1044 H 0.33084 0.81046 0.9161 0.0
C1045 C 0.3083 0.82239 0.8392 0.0
C1046 C 0.30911 0.79194 0.75527 0.0
C1047 C 0.3142 0.7709 0.72958 0.0
H1048 H 0.28382 0.83357 0.77329 0.0
C1049 C 0.29643 0.77696 0.7016 0.0
H1050 H 0.32298 0.78885 0.77679 0.0
C1051 C 0.27378 0.80246 0.69979 0.0
C1052 C 0.26856 0.82348 0.72561 0.0
H1053 H 0.29991 0.76177 0.68102 0.0
H1054 H 0.26028 0.8056 0.67804 0.0
C1055 C 0.28694 0.81787 0.75316 0.0
C1056 C 0.93175 0.80335 0.34371 0.0
C1057 C 0.94353 0.77485 0.35773 0.0
H1058 H 0.92514 0.8301 0.30064 0.0
C1059 C 0.96786 0.75779 0.3418 0.0
H1060 H 0.91458 0.81805 0.3555 0.0
C1061 C 0.97497 0.76544 0.31014 0.0
C1062 C 0.9565 0.789 0.29427 0.0
H1063 H 0.97887 0.73659 0.35245 0.0
H1064 H 0.99009 0.74902 0.29672 0.0
C1065 C 0.9387 0.81092 0.31214 0.0
C1066 C 0.30282 0.47799 0.79646 0.0
C1067 C 0.28375 0.4572 0.77859 0.0
H1068 H 0.33591 0.47806 0.83541 0.0
C1069 C 0.26495 0.43531 0.79558 0.0
H1070 H 0.31466 0.49804 0.78477 0.0
C1071 C 0.27751 0.42285 0.82378 0.0
C1072 C 0.30524 0.43612 0.83678 0.0
H1073 H 0.2469 0.42149 0.78349 0.0
H1074 H 0.2677 0.40107 0.83299 0.0
C1075 C 0.31587 0.4659 0.82479 0.0
C1076 C 0.61539 0.77658 0.26464 0.0
C1077 C 0.63363 0.79782 0.28288 0.0
H1078 H 0.61664 0.74526 0.22434 0.0
C1079 C 0.65706 0.81601 0.26753 0.0
H1080 H 0.59565 0.76366 0.27557 0.0
C1081 C 0.67045 0.80399 0.23974 0.0
C1082 C 0.65746 0.77719 0.22475 0.0
H1083 H 0.67031 0.83399 0.28037 0.0
H1084 H 0.69244 0.81401 0.23188 0.0
C1085 C 0.62819 0.76509 0.23607 0.0
C1086 C 0.34086 0.12614 0.78286 0.0
C1087 C 0.32177 0.12557 0.81056 0.0
H1088 H 0.33924 0.13117 0.73232 0.0
C1089 C 0.29115 0.11228 0.8095 0.0
H1090 H 0.36541 0.13431 0.7834 0.0
C1091 C 0.27661 0.1092 0.78007 0.0
C1092 C 0.29258 0.1214 0.75302 0.0
H1093 H 0.27674 0.10963 0.83095 0.0
H1094 H 0.25118 0.10433 0.77963 0.0
C1095 C 0.32596 0.12407 0.7535 0.0
C1096 C 0.2981 0.97302 0.75883 0.0
C1097 C 0.2707 0.96841 0.77789 0.0
H1098 H 0.34911 0.97162 0.7593 0.0
C1099 C 0.27136 0.97685 0.81007 0.0
H1100 H 0.29768 0.96897 0.73337 0.0
C1101 C 0.30087 0.97971 0.82469 0.0
C1102 C 0.32857 0.97241 0.80688 0.0
H1103 H 0.24998 0.97564 0.82481 0.0
H1104 H 0.30141 0.98061 0.85048 0.0
C1105 C 0.32763 0.97483 0.77361 0.0
C1106 C 0.11257 0.7734 0.28835 0.0
C1107 C 0.13169 0.77329 0.26075 0.0
H1108 H 0.09004 0.80352 0.3226 0.0
C1109 C 0.13065 0.80002 0.23988 0.0
H1110 H 0.11094 0.75242 0.30381 0.0
C1111 C 0.11944 0.82926 0.25156 0.0
C1112 C 0.11236 0.83055 0.28416 0.0
H1113 H 0.14308 0.79987 0.21712 0.0
H1114 H 0.12494 0.85101 0.23819 0.0
C1115 C 0.10011 0.80265 0.29873 0.0
C1116 C 0.27925 0.62092 0.78256 0.0
C1117 C 0.26404 0.65027 0.79008 0.0
H1118 H 0.32196 0.59295 0.78863 0.0
C1119 C 0.27361 0.66604 0.81787 0.0
H1120 H 0.2713 0.60655 0.76279 0.0
C1121 C 0.30219 0.65725 0.83265 0.0
C1122 C 0.32265 0.63694 0.81566 0.0
H1123 H 0.26164 0.68713 0.82592 0.0
H1124 H 0.31167 0.67312 0.85055 0.0
C1125 C 0.30781 0.61268 0.79806 0.0
C1126 C 0.47459 0.77283 0.28934 0.0
C1127 C 0.45287 0.79142 0.30732 0.0
H1128 H 0.47767 0.73395 0.25616 0.0
C1129 C 0.42708 0.77575 0.32179 0.0
H1130 H 0.4963 0.78364 0.28002 0.0
C1131 C 0.41565 0.74821 0.30739 0.0
C1132 C 0.43251 0.73407 0.28206 0.0
H1133 H 0.41118 0.78862 0.33785 0.0
H1134 H 0.39227 0.74022 0.31379 0.0
C1135 C 0.46335 0.74516 0.27468 0.0
C1136 C 0.7907 0.2997 0.98992 0.0
C1137 C 0.80486 0.27093 0.9793 0.0
H1138 H 0.78628 0.34946 0.97673 0.0
C1139 C 0.83741 0.27148 0.97117 0.0
H1140 H 0.76699 0.29964 1.00058 0.0
C1141 C 0.84918 0.29989 0.95802 0.0
C1142 C 0.82857 0.32681 0.95611 0.0
H1143 H 0.85042 0.24928 0.96666 0.0
H1144 H 0.87167 0.29906 0.94502 0.0
C1145 C 0.80135 0.32811 0.9758 0.0
C1146 C 0.79332 0.29732 0.64283 0.0
C1147 C 0.77295 0.28586 0.66704 0.0
H1148 H 0.83156 0.32958 0.63087 0.0
C1149 C 0.77495 0.29809 0.6978 0.0
H1150 H 0.79187 0.28829 0.61885 0.0
C1151 C 0.7979 0.32092 0.7046 0.0
C1152 C 0.8178 0.33291 0.68057 0.0
H1153 H 0.76 0.28872 0.71693 0.0
H1154 H 0.80125 0.32828 0.72892 0.0
C1155 C 0.81606 0.32059 0.64971 0.0
C1156 C 0.77568 0.31324 0.10997 0.0
C1157 C 0.79579 0.29638 0.13124 0.0
H1158 H 0.73413 0.3437 0.10664 0.0
C1159 C 0.78245 0.28367 0.15933 0.0
H1160 H 0.78498 0.32196 0.08731 0.0
C1161 C 0.75359 0.29637 0.17046 0.0
C1162 C 0.73733 0.32007 0.1528 0.0
H1163 H 0.79688 0.26946 0.1757 0.0
H1164 H 0.74646 0.29083 0.19437 0.0
C1165 C 0.74708 0.32647 0.12136 0.0
C1166 C 0.78916 0.30433 0.46901 0.0
C1167 C 0.77446 0.30521 0.43889 0.0
H1168 H 0.82948 0.32045 0.49548 0.0
C1169 C 0.78154 0.33121 0.41833 0.0
H1170 H 0.78298 0.28615 0.48664 0.0
C1171 C 0.80758 0.35093 0.42469 0.0
C1172 C 0.82932 0.33925 0.4472 0.0
H1173 H 0.77012 0.33379 0.39587 0.0
H1174 H 0.81547 0.3675 0.40617 0.0
C1175 C 0.81539 0.32446 0.47423 0.0
C1176 C 0.20758 1.02971 0.71046 0.0
C1177 C 0.1838 1.01203 0.69498 0.0
H1178 H 0.22923 0.07529 0.71843 0.0
C1179 C 0.16412 1.02884 0.67305 0.0
H1180 H 0.22377 1.01785 0.72693 0.0
C1181 C 0.16826 0.06227 0.66701 0.0
C1182 C 0.19201 0.0798 0.68294 0.0
H1183 H 0.14531 1.01627 0.66084 0.0
H1184 H 0.15309 0.0743 0.6497 0.0
C1185 C 0.21123 0.06284 0.70499 0.0
C1186 C 0.0708 0.7162 0.21758 0.0
C1187 C 0.08618 0.69363 0.19774 0.0
H1188 H 1.02747 0.73881 0.23277 0.0
C1189 C 0.06731 0.67885 0.17434 0.0
H1190 H 0.0842 0.72904 0.23521 0.0
C1191 C 1.03413 0.68628 0.17145 0.0
C1192 C 1.01877 0.70824 0.19226 0.0
H1193 H 0.07798 0.66117 0.15864 0.0
H1194 H 1.02061 0.67486 0.15287 0.0
C1195 C 1.0379 0.72266 0.21549 0.0
C1196 C 0.37385 0.56373 0.72656 0.0
C1197 C 0.39528 0.58187 0.70772 0.0
H1198 H 0.35347 0.51789 0.7376 0.0
C1199 C 0.41207 0.56548 0.68333 0.0
H1200 H 0.35969 0.57519 0.74495 0.0
C1201 C 0.40725 0.53218 0.678 0.0
C1202 C 0.38583 0.51422 0.69721 0.0
H1203 H 0.42904 0.57833 0.66842 0.0
H1204 H 0.41994 0.52067 0.65857 0.0
C1205 C 0.36963 0.53066 0.72176 0.0
C1206 C 0.53808 0.90787 0.19105 0.0
C1207 C 0.52103 0.88433 0.20853 0.0
H1208 H 0.58347 0.92274 0.17113 0.0
C1209 C 0.53825 0.85703 0.21929 0.0
H1210 H 0.52587 0.92944 0.18271 0.0
C1211 C 0.57124 0.85336 0.21298 0.0
C1212 C 0.58841 0.8768 0.19557 0.0
H1213 H 0.52613 0.83824 0.23263 0.0
H1214 H 0.58349 0.83231 0.22247 0.0
C1215 C 0.57125 0.90416 0.18467 0.0
C1216 C 0.23164 0.53299 0.9013 0.0
C1217 C 0.21389 0.51065 0.88367 0.0
H1218 H 0.24286 0.58254 0.90993 0.0
C1219 C 0.19186 0.52347 0.86145 0.0
H1220 H 0.24814 0.52498 0.91939 0.0
C1221 C 0.18779 0.55699 0.85698 0.0
C1222 C 0.20614 0.57927 0.874 0.0
H1223 H 0.17779 0.50748 0.84706 0.0
H1224 H 0.16979 0.56514 0.84041 0.0
C1225 C 0.22807 0.56651 0.89633 0.0
C1226 C 0.55423 0.71748 0.35273 0.0
C1227 C 0.57125 0.70597 0.37946 0.0
H1228 H 0.5093 0.72228 0.32887 0.0
C1229 C 0.55421 0.68747 0.40219 0.0
H1230 H 0.56637 0.73126 0.33432 0.0
C1231 C 0.52111 0.68133 0.39846 0.0
C1232 C 0.504 0.69372 0.37202 0.0
H1233 H 0.56627 0.67833 0.42322 0.0
H1234 H 0.50892 0.66696 0.41638 0.0
C1235 C 0.52134 0.71173 0.34923 0.0
C1236 C 0.3782 0.06319 0.88173 0.0
C1237 C 0.39462 0.08172 0.90416 0.0
H1238 H 0.36955 1.01706 0.86183 0.0
C1239 C 0.41829 0.0658 0.92256 0.0
H1240 H 0.36087 0.07428 0.86598 0.0
C1241 C 0.42475 1.03237 0.91873 0.0
C1242 C 0.4075 1.01399 0.89663 0.0
H1243 H 0.43159 0.07904 0.94007 0.0
H1244 H 0.44348 1.02109 0.93274 0.0
C1245 C 0.38391 1.0301 0.87863 0.0
C1246 C 0.05561 0.91283 0.41089 0.0
C1247 C 0.07363 0.89413 0.38925 0.0
H1248 H 1.00924 0.92243 0.43214 0.0
C1249 C 0.05761 0.86972 0.37285 0.0
H1250 H 0.06709 0.93183 0.42392 0.0
C1251 C 1.02471 0.86432 0.37754 0.0
C1252 C 1.00643 0.88322 0.39871 0.0
H1253 H 0.07064 0.85459 0.35627 0.0
H1254 H 1.0134 0.84555 0.36403 0.0
C1255 C 1.0224 0.90756 0.41542 0.0
C1256 C 0.67177 0.23242 0.06476 0.0
C1257 C 0.68938 0.21662 0.089 0.0
H1258 H 0.66357 0.23919 1.01464 0.0
C1259 C 0.71107 0.19234 0.07926 0.0
H1260 H 0.65395 0.25038 0.07051 0.0
C1261 C 0.71535 0.18458 0.04681 0.0
C1262 C 0.6988 0.20139 1.0225 0.0
H1263 H 0.72543 0.17958 0.09676 0.0
H1264 H 0.73185 0.16536 1.04102 0.0
C1265 C 0.67668 0.22526 1.03224 0.0
C1266 C 0.86059 0.24169 0.52066 0.0
C1267 C 0.88404 0.22212 0.50593 0.0
H1268 H 0.8348 0.25381 0.56341 0.0
C1269 C 0.89829 0.19755 0.52456 0.0
H1270 H 0.84838 0.26028 0.50703 0.0
C1271 C 0.8899 0.19334 0.55708 0.0
C1272 C 0.86707 0.21361 0.57199 0.0
H1273 H 0.91633 0.18193 0.51415 0.0
H1274 H 0.90143 0.17423 0.57062 0.0
C1275 C 0.85234 0.23759 0.55304 0.0
C1276 C 0.88333 0.43151 1.01934 0.0
C1277 C 0.89782 0.41252 0.99553 0.0
H1278 H 0.87306 0.43781 0.06912 0.0
C1279 C 0.91673 0.3861 1.00558 0.0
H1280 H 0.86911 0.45241 1.01277 0.0
C1281 C 0.91961 0.37803 1.03829 0.0
C1282 C 0.90347 0.39596 0.06201 0.0
H1283 H 0.9282 0.3708 0.98806 0.0
H1284 H 0.93434 0.35753 0.04482 0.0
C1285 C 0.88591 0.42329 0.05189 0.0
C1286 C 0.6981 0.3609 0.53473 0.0
C1287 C 0.71689 0.37752 0.51197 0.0
H1288 H 0.6884 0.35057 0.58417 0.0
C1289 C 0.74053 0.39827 0.5237 0.0
H1290 H 0.67898 0.34547 0.52725 0.0
C1291 C 0.74534 0.40202 0.55681 0.0
C1292 C 0.72685 0.38493 0.57954 0.0
H1293 H 0.75567 0.41147 0.50717 0.0
H1294 H 0.76326 0.41879 0.56441 0.0
C1295 C 0.70316 0.36432 0.56774 0.0
C1296 C 0.90111 1.02793 0.36524 0.0
C1297 C 0.8759 1.02215 0.38686 0.0
H1298 H 0.93046 0.06343 0.34208 0.0
C1299 C 0.86005 0.04821 0.40111 0.0
H1300 H 0.91458 1.00814 0.35497 0.0
C1301 C 0.86928 0.07961 0.39397 0.0
C1302 C 0.89456 0.08544 0.37248 0.0
H1303 H 0.84107 1.04423 0.41843 0.0
H1304 H 0.85749 0.09927 0.40627 0.0
C1305 C 0.91045 0.05941 0.35818 0.0
C1306 C 0.05773 0.39681 0.84865 0.0
C1307 C 0.07051 0.40674 0.87773 0.0
H1308 H 1.01925 0.40191 0.81544 0.0
C1309 C 0.05546 0.43177 0.89455 0.0
H1310 H 0.06876 0.37734 0.83544 0.0
C1311 C 1.02743 0.44598 0.88295 0.0
C1312 C 1.01395 0.43506 0.8546 0.0
H1313 H 0.06511 0.44003 0.91689 0.0
H1314 H 1.0153 0.46413 0.89709 0.0
C1315 C 1.02966 0.41096 0.83711 0.0
C1316 C 0.67336 0.54491 0.37948 0.0
C1317 C 0.68988 0.51945 0.39421 0.0
H1318 H 0.66737 0.59577 0.37529 0.0
C1319 C 0.71278 0.52602 0.4176 0.0
H1320 H 0.6551 0.54031 0.36194 0.0
C1321 C 0.71989 0.55782 0.42526 0.0
C1322 C 0.70428 0.5833 0.40948 0.0
H1323 H 0.72487 0.5066 0.43022 0.0
H1324 H 0.73773 0.56252 0.44319 0.0
C1325 C 0.68053 0.57657 0.38702 0.0
C1326 C 0.56705 0.21395 0.92858 0.0
C1327 C 0.5703 0.19878 0.8989 0.0
H1328 H 0.53478 0.23413 0.96326 0.0
C1329 C 0.54306 0.19172 0.88136 0.0
H1330 H 0.58776 0.21898 0.94284 0.0
C1331 C 0.51296 0.20067 0.89284 0.0
C1332 C 0.50965 0.21644 0.92227 0.0
H1333 H 0.54508 0.1796 0.85868 0.0
H1334 H 0.4923 0.19486 0.87872 0.0
C1335 C 0.53686 0.22254 0.94031 0.0
C1336 C 0.91004 0.58019 0.19512 0.0
C1337 C 0.89108 0.58606 0.16803 0.0
H1338 H 0.93245 0.54486 0.22542 0.0
C1339 C 0.88178 0.56012 0.14934 0.0
H1340 H 0.91867 0.59981 0.20934 0.0
C1341 C 0.88992 0.5287 0.15849 0.0
C1342 C 0.90754 0.5228 0.18644 0.0
H1343 H 0.8679 0.56413 0.12792 0.0
H1344 H 0.88247 0.50906 0.14364 0.0
C1345 C 0.91821 0.54881 0.20423 0.0
C1346 C 0.56079 0.41374 0.66445 0.0
C1347 C 0.57713 0.3973 0.68888 0.0
H1348 H 0.51777 0.41768 0.63718 0.0
C1349 C 0.56272 0.37075 0.70394 0.0
H1350 H 0.57154 0.43418 0.65237 0.0
C1351 C 0.53205 0.36129 0.69521 0.0
C1352 C 0.51545 0.37824 0.67129 0.0
H1353 H 0.5747 0.35794 0.72311 0.0
H1354 H 0.52098 0.34125 0.70765 0.0
C1355 C 0.53028 0.40409 0.65551 0.0
C1356 C 0.71229 0.0805 0.19308 0.0
C1357 C 0.69349 0.08473 0.22062 0.0
H1358 H 0.73497 1.04701 0.16155 0.0
C1359 C 0.68328 0.05771 0.23806 0.0
H1360 H 0.7193 0.10091 0.17844 0.0
C1361 C 0.69201 1.02684 0.22821 0.0
C1362 C 0.71096 1.02266 0.20071 0.0
H1363 H 0.66808 0.06048 0.25892 0.0
H1364 H 0.68279 1.00628 0.24132 0.0
C1365 C 0.72099 0.04972 0.18323 0.0
C1366 C 1.02852 0.17847 0.70329 0.0
C1367 C 1.0022 0.19563 0.6913 0.0
H1368 H 0.07946 0.1736 0.70374 0.0
C1369 C 1.00704 0.22064 0.66897 0.0
H1370 H 1.02518 0.15866 0.71996 0.0
C1371 C 1.03797 0.22918 0.65966 0.0
C1372 C 0.06433 0.21293 0.67275 0.0
H1373 H 0.98691 0.23341 0.65853 0.0
H1374 H 1.04133 0.24865 0.64261 0.0
C1375 C 0.05941 0.18714 0.69415 0.0
C1376 C 0.42238 0.91562 0.06535 0.0
C1377 C 0.39605 0.90043 0.07976 0.0
H1378 H 0.45436 0.91692 1.02514 0.0
C1379 C 0.38171 0.87432 0.06473 0.0
H1380 H 0.43402 0.93554 0.07685 0.0
C1381 C 0.39381 0.86319 1.03586 0.0
C1382 C 0.42002 0.87841 1.02132 0.0
H1383 H 0.36138 0.86229 0.07555 0.0
H1384 H 0.38233 0.84305 1.02456 0.0
C1385 C 0.43441 0.90456 1.03629 0.0
C1386 C 0.19236 0.90529 0.57195 0.0
C1387 C 0.17075 0.87974 0.57544 0.0
H1388 H 0.22095 0.93369 0.54007 0.0
C1389 C 0.15986 0.86395 0.54843 0.0
H1390 H 0.2008 0.9181 0.59237 0.0
C1391 C 0.17168 0.87273 0.51839 0.0
C1392 C 0.19439 0.89744 0.51519 0.0
H1393 H 0.14286 0.8445 0.55062 0.0
H1394 H 0.16292 0.86027 0.49777 0.0
C1395 C 0.20401 0.91415 0.54209 0.0
C1396 C 0.18704 0.70439 1.0421 0.0
C1397 C 0.19844 0.68943 1.01458 0.0
H1398 H 0.18693 0.70482 0.0927 0.0
C1399 C 0.21761 0.6615 1.0172 0.0
H1400 H 0.17175 0.72556 1.04056 0.0
C1401 C 0.22617 0.64937 0.0472 0.0
C1402 C 0.21583 0.66526 0.07472 0.0
H1403 H 0.22573 0.64893 0.99614 0.0
H1404 H 0.24117 0.62802 0.0489 0.0
C1405 C 0.19577 0.69248 0.07188 0.0
C1406 C 0.38346 0.68472 0.57319 0.0
C1407 C 0.40502 0.71027 0.57606 0.0
H1408 H 0.35782 0.65433 0.54153 0.0
C1409 C 0.41761 0.72499 0.54861 0.0
H1410 H 0.37409 0.67245 0.59409 0.0
C1411 C 0.40808 0.71475 0.51857 0.0
C1412 C 0.38617 0.68946 0.51581 0.0
H1413 H 0.43472 0.74432 0.55042 0.0
H1414 H 0.41838 0.72604 0.49753 0.0
C1415 C 0.37423 0.67428 0.54326 0.0
loop_
_geom_bond_atom_site_label_1
_geom_bond_atom_site_label_2
_geom_bond_distance
_geom_bond_site_symmetry_2
_ccdc_geom_bond_type
Co0 O3 1.970 . S
Co0 N17 1.989 . S
Co0 O25 1.967 . S
Co0 O32 1.920 . S
Co1 O4 1.966 . S
Co1 N10 2.022 . S
Co1 N18 1.993 . S
Co1 O26 1.941 . S
C2 O3 1.258 . S
C2 O4 1.263 . S
O3 Co0 1.970 . S
O3 C2 1.258 . S
O4 Co1 1.966 . S
O4 C2 1.263 . S
C5 O6 1.235 . S
C5 O32 1.289 . S
O6 C5 1.235 . S
C7 C9 1.400 . S
C7 N10 1.351 . S
C7 C12 1.501 . S
C8 C9 1.387 . S
C8 N11 1.341 . S
C9 C7 1.400 . S
C9 C8 1.387 . S
N10 Co1 2.022 . S
N10 C7 1.351 . S
N10 N11 1.365 . S
N11 C8 1.341 . S
N11 N10 1.365 . S
N11 H31 0.862 . S
C12 C7 1.501 . S
C12 H13 0.961 . S
C12 H14 0.961 . S
C12 H15 0.960 . S
H13 C12 0.961 . S
H14 C12 0.961 . S
H15 C12 0.960 . S
C16 N17 1.342 . S
C16 C20 1.401 . S
C16 C21 1.499 . S
N17 Co0 1.989 . S
N17 C16 1.342 . S
N17 N18 1.388 . S
N18 Co1 1.993 . S
N18 N17 1.388 . S
N18 C19 1.346 . S
C19 N18 1.346 . S
C19 C20 1.396 . S
C19 C29 1.510 . S
C20 C16 1.401 . S
C20 C19 1.396 . S
C21 C16 1.499 . S
C21 H22 0.959 . S
C21 H23 0.960 . S
C21 H24 0.961 . S
H22 C21 0.959 . S
H23 C21 0.960 . S
H24 C21 0.961 . S
O25 Co0 1.967 . S
O25 C33 1.258 . S
O26 Co1 1.941 . S
O26 C33 1.266 . S
H27 C29 0.959 . S
H28 C29 0.961 . S
C29 C19 1.510 . S
C29 H27 0.959 . S
C29 H28 0.961 . S
C29 H30 0.960 . S
H30 C29 0.960 . S
H31 N11 0.862 . S
O32 Co0 1.920 . S
O32 C5 1.289 . S
C33 O25 1.258 . S
C33 O26 1.266 . S
Co34 O37 1.970 . S
Co34 N51 1.989 . S
Co34 O59 1.967 . S
Co34 O66 1.920 . S
Co35 O38 1.966 . S
Co35 N44 2.022 . S
Co35 N52 1.993 . S
Co35 O60 1.941 . S
C36 O37 1.258 . S
C36 O38 1.263 . S
O37 Co34 1.970 . S
O37 C36 1.258 . S
O38 Co35 1.966 . S
O38 C36 1.263 . S
C39 O40 1.235 . S
C39 O66 1.289 . S
O40 C39 1.235 . S
C41 C43 1.400 . S
C41 N44 1.351 . S
C41 C46 1.501 . S
C42 C43 1.387 . S
C42 N45 1.341 . S
C43 C41 1.400 . S
C43 C42 1.387 . S
N44 Co35 2.022 . S
N44 C41 1.351 . S
N44 N45 1.365 . S
N45 C42 1.341 . S
N45 N44 1.365 . S
N45 H65 0.862 . S
C46 C41 1.501 . S
C46 H47 0.961 . S
C46 H48 0.961 . S
C46 H49 0.960 . S
H47 C46 0.961 . S
H48 C46 0.961 . S
H49 C46 0.960 . S
C50 N51 1.342 . S
C50 C54 1.401 . S
C50 C55 1.499 . S
N51 Co34 1.989 . S
N51 C50 1.342 . S
N51 N52 1.388 . S
N52 Co35 1.993 . S
N52 N51 1.388 . S
N52 C53 1.346 . S
C53 N52 1.346 . S
C53 C54 1.396 . S
C53 C63 1.510 . S
C54 C50 1.401 . S
C54 C53 1.396 . S
C55 C50 1.499 . S
C55 H56 0.959 . S
C55 H57 0.960 . S
C55 H58 0.961 . S
H56 C55 0.959 . S
H57 C55 0.960 . S
H58 C55 0.961 . S
O59 Co34 1.967 . S
O59 C67 1.258 . S
O60 Co35 1.941 . S
O60 C67 1.266 . S
H61 C63 0.959 . S
H62 C63 0.961 . S
C63 C53 1.510 . S
C63 H61 0.959 . S
C63 H62 0.961 . S
C63 H64 0.960 . S
H64 C63 0.960 . S
H65 N45 0.862 . S
O66 Co34 1.920 . S
O66 C39 1.289 . S
C67 O59 1.258 . S
C67 O60 1.266 . S
Co68 O71 1.970 . S
Co68 N85 1.989 . S
Co68 O93 1.967 . S
Co68 O100 1.920 . S
Co69 O72 1.966 . S
Co69 N78 2.022 . S
Co69 N86 1.993 . S
Co69 O94 1.941 . S
C70 O71 1.258 . S
C70 O72 1.263 . S
O71 Co68 1.970 . S
O71 C70 1.258 . S
O72 Co69 1.966 . S
O72 C70 1.263 . S
C73 O74 1.235 . S
C73 O100 1.289 . S
O74 C73 1.235 . S
C75 C77 1.400 . S
C75 N78 1.351 . S
C75 C80 1.501 . S
C76 C77 1.387 . S
C76 N79 1.341 . S
C77 C75 1.400 . S
C77 C76 1.387 . S
N78 Co69 2.022 . S
N78 C75 1.351 . S
N78 N79 1.365 . S
N79 C76 1.341 . S
N79 N78 1.365 . S
N79 H99 0.862 . S
C80 C75 1.501 . S
C80 H81 0.961 . S
C80 H82 0.961 . S
C80 H83 0.960 . S
H81 C80 0.961 . S
H82 C80 0.961 . S
H83 C80 0.960 . S
C84 N85 1.342 . S
C84 C88 1.401 . S
C84 C89 1.499 . S
N85 Co68 1.989 . S
N85 C84 1.342 . S
N85 N86 1.388 . S
N86 Co69 1.993 . S
N86 N85 1.388 . S
N86 C87 1.346 . S
C87 N86 1.346 . S
C87 C88 1.396 . S
C87 C97 1.510 . S
C88 C84 1.401 . S
C88 C87 1.396 . S
C89 C84 1.499 . S
C89 H90 0.959 . S
C89 H91 0.960 . S
C89 H92 0.961 . S
H90 C89 0.959 . S
H91 C89 0.960 . S
H92 C89 0.961 . S
O93 Co68 1.967 . S
O93 C101 1.258 . S
O94 Co69 1.941 . S
O94 C101 1.266 . S
H95 C97 0.959 . S
H96 C97 0.961 . S
C97 C87 1.510 . S
C97 H95 0.959 . S
C97 H96 0.961 . S
C97 H98 0.960 . S
H98 C97 0.960 . S
H99 N79 0.862 . S
O100 Co68 1.920 . S
O100 C73 1.289 . S
C101 O93 1.258 . S
C101 O94 1.266 . S
Co102 O105 1.970 . S
Co102 N119 1.989 . S
Co102 O127 1.967 . S
Co102 O134 1.920 . S
Co103 O106 1.966 . S
Co103 N112 2.022 . S
Co103 N120 1.993 . S
Co103 O128 1.941 . S
C104 O105 1.258 . S
C104 O106 1.263 . S
O105 Co102 1.970 . S
O105 C104 1.258 . S
O106 Co103 1.966 . S
O106 C104 1.263 . S
C107 O108 1.235 . S
C107 O134 1.289 . S
O108 C107 1.235 . S
C109 C111 1.400 . S
C109 N112 1.351 . S
C109 C114 1.501 . S
C110 C111 1.387 . S
C110 N113 1.341 . S
C111 C109 1.400 . S
C111 C110 1.387 . S
N112 Co103 2.022 . S
N112 C109 1.351 . S
N112 N113 1.365 . S
N113 C110 1.341 . S
N113 N112 1.365 . S
N113 H133 0.862 . S
C114 C109 1.501 . S
C114 H115 0.961 . S
C114 H116 0.961 . S
C114 H117 0.960 . S
H115 C114 0.961 . S
H116 C114 0.961 . S
H117 C114 0.960 . S
C118 N119 1.342 . S
C118 C122 1.401 . S
C118 C123 1.499 . S
N119 Co102 1.989 . S
N119 C118 1.342 . S
N119 N120 1.388 . S
N120 Co103 1.993 . S
N120 N119 1.388 . S
N120 C121 1.346 . S
C121 N120 1.346 . S
C121 C122 1.396 . S
C121 C131 1.510 . S
C122 C118 1.401 . S
C122 C121 1.396 . S
C123 C118 1.499 . S
C123 H124 0.959 . S
C123 H125 0.960 . S
C123 H126 0.961 . S
H124 C123 0.959 . S
H125 C123 0.960 . S
H126 C123 0.961 . S
O127 Co102 1.967 . S
O127 C135 1.258 . S
O128 Co103 1.941 . S
O128 C135 1.266 . S
H129 C131 0.959 . S
H130 C131 0.961 . S
C131 C121 1.510 . S
C131 H129 0.959 . S
C131 H130 0.961 . S
C131 H132 0.960 . S
H132 C131 0.960 . S
H133 N113 0.862 . S
O134 Co102 1.920 . S
O134 C107 1.289 . S
C135 O127 1.258 . S
C135 O128 1.266 . S
Co136 O139 1.970 . S
Co136 N153 1.989 . S
Co136 O161 1.967 . S
Co136 O168 1.920 . S
Co137 O140 1.966 . S
Co137 N146 2.022 . S
Co137 N154 1.993 . S
Co137 O162 1.941 . S
C138 O139 1.258 . S
C138 O140 1.263 . S
O139 Co136 1.970 . S
O139 C138 1.258 . S
O140 Co137 1.966 . S
O140 C138 1.263 . S
C141 O142 1.235 . S
C141 O168 1.289 . S
O142 C141 1.235 . S
C143 C145 1.400 . S
C143 N146 1.351 . S
C143 C148 1.501 . S
C144 C145 1.387 . S
C144 N147 1.341 . S
C145 C143 1.400 . S
C145 C144 1.387 . S
N146 Co137 2.022 . S
N146 C143 1.351 . S
N146 N147 1.365 . S
N147 C144 1.341 . S
N147 N146 1.365 . S
N147 H167 0.862 . S
C148 C143 1.501 . S
C148 H149 0.961 . S
C148 H150 0.961 . S
C148 H151 0.960 . S
H149 C148 0.961 . S
H150 C148 0.961 . S
H151 C148 0.960 . S
C152 N153 1.342 . S
C152 C156 1.401 . S
C152 C157 1.499 . S
N153 Co136 1.989 . S
N153 C152 1.342 . S
N153 N154 1.388 . S
N154 Co137 1.993 . S
N154 N153 1.388 . S
N154 C155 1.346 . S
C155 N154 1.346 . S
C155 C156 1.396 . S
C155 C165 1.510 . S
C156 C152 1.401 . S
C156 C155 1.396 . S
C157 C152 1.499 . S
C157 H158 0.959 . S
C157 H159 0.960 . S
C157 H160 0.961 . S
H158 C157 0.959 . S
H159 C157 0.960 . S
H160 C157 0.961 . S
O161 Co136 1.967 . S
O161 C169 1.258 . S
O162 Co137 1.941 . S
O162 C169 1.266 . S
H163 C165 0.959 . S
H164 C165 0.961 . S
C165 C155 1.510 . S
C165 H163 0.959 . S
C165 H164 0.961 . S
C165 H166 0.960 . S
H166 C165 0.960 . S
H167 N147 0.862 . S
O168 Co136 1.920 . S
O168 C141 1.289 . S
C169 O161 1.258 . S
C169 O162 1.266 . S
Co170 O173 1.970 . S
Co170 N187 1.989 . S
Co170 O195 1.967 . S
Co170 O202 1.920 . S
Co171 O174 1.966 . S
Co171 N180 2.022 . S
Co171 N188 1.993 . S
Co171 O196 1.941 . S
C172 O173 1.258 . S
C172 O174 1.263 . S
O173 Co170 1.970 . S
O173 C172 1.258 . S
O174 Co171 1.966 . S
O174 C172 1.263 . S
C175 O176 1.235 . S
C175 O202 1.289 . S
O176 C175 1.235 . S
C177 C179 1.400 . S
C177 N180 1.351 . S
C177 C182 1.501 . S
C178 C179 1.387 . S
C178 N181 1.341 . S
C179 C177 1.400 . S
C179 C178 1.387 . S
N180 Co171 2.022 . S
N180 C177 1.351 . S
N180 N181 1.365 . S
N181 C178 1.341 . S
N181 N180 1.365 . S
N181 H201 0.862 . S
C182 C177 1.501 . S
C182 H183 0.961 . S
C182 H184 0.961 . S
C182 H185 0.960 . S
H183 C182 0.961 . S
H184 C182 0.961 . S
H185 C182 0.960 . S
C186 N187 1.342 . S
C186 C190 1.401 . S
C186 C191 1.499 . S
N187 Co170 1.989 . S
N187 C186 1.342 . S
N187 N188 1.388 . S
N188 Co171 1.993 . S
N188 N187 1.388 . S
N188 C189 1.346 . S
C189 N188 1.346 . S
C189 C190 1.396 . S
C189 C199 1.510 . S
C190 C186 1.401 . S
C190 C189 1.396 . S
C191 C186 1.499 . S
C191 H192 0.959 . S
C191 H193 0.960 . S
C191 H194 0.961 . S
H192 C191 0.959 . S
H193 C191 0.960 . S
H194 C191 0.961 . S
O195 Co170 1.967 . S
O195 C203 1.258 . S
O196 Co171 1.941 . S
O196 C203 1.266 . S
H197 C199 0.959 . S
H198 C199 0.961 . S
C199 C189 1.510 . S
C199 H197 0.959 . S
C199 H198 0.961 . S
C199 H200 0.960 . S
H200 C199 0.960 . S
H201 N181 0.862 . S
O202 Co170 1.920 . S
O202 C175 1.289 . S
C203 O195 1.258 . S
C203 O196 1.266 . S
Co204 O207 1.970 . S
Co204 N221 1.989 . S
Co204 O229 1.967 . S
Co204 O236 1.920 . S
Co205 O208 1.966 . S
Co205 N214 2.022 . S
Co205 N222 1.993 . S
Co205 O230 1.941 . S
C206 O207 1.258 . S
C206 O208 1.263 . S
O207 Co204 1.970 . S
O207 C206 1.258 . S
O208 Co205 1.966 . S
O208 C206 1.263 . S
C209 O210 1.235 . S
C209 O236 1.289 . S
O210 C209 1.235 . S
C211 C213 1.400 . S
C211 N214 1.351 . S
C211 C216 1.501 . S
C212 C213 1.387 . S
C212 N215 1.341 . S
C213 C211 1.400 . S
C213 C212 1.387 . S
N214 Co205 2.022 . S
N214 C211 1.351 . S
N214 N215 1.365 . S
N215 C212 1.341 . S
N215 N214 1.365 . S
N215 H235 0.862 . S
C216 C211 1.501 . S
C216 H217 0.961 . S
C216 H218 0.961 . S
C216 H219 0.960 . S
H217 C216 0.961 . S
H218 C216 0.961 . S
H219 C216 0.960 . S
C220 N221 1.342 . S
C220 C224 1.401 . S
C220 C225 1.499 . S
N221 Co204 1.989 . S
N221 C220 1.342 . S
N221 N222 1.388 . S
N222 Co205 1.993 . S
N222 N221 1.388 . S
N222 C223 1.346 . S
C223 N222 1.346 . S
C223 C224 1.396 . S
C223 C233 1.510 . S
C224 C220 1.401 . S
C224 C223 1.396 . S
C225 C220 1.499 . S
C225 H226 0.959 . S
C225 H227 0.960 . S
C225 H228 0.961 . S
H226 C225 0.959 . S
H227 C225 0.960 . S
H228 C225 0.961 . S
O229 Co204 1.967 . S
O229 C237 1.258 . S
O230 Co205 1.941 . S
O230 C237 1.266 . S
H231 C233 0.959 . S
H232 C233 0.961 . S
C233 C223 1.510 . S
C233 H231 0.959 . S
C233 H232 0.961 . S
C233 H234 0.960 . S
H234 C233 0.960 . S
H235 N215 0.862 . S
O236 Co204 1.920 . S
O236 C209 1.289 . S
C237 O229 1.258 . S
C237 O230 1.266 . S
Co238 O241 1.970 . S
Co238 N255 1.989 . S
Co238 O263 1.967 . S
Co238 O270 1.920 . S
Co239 O242 1.966 . S
Co239 N248 2.022 . S
Co239 N256 1.993 . S
Co239 O264 1.941 . S
C240 O241 1.258 . S
C240 O242 1.263 . S
O241 Co238 1.970 . S
O241 C240 1.258 . S
O242 Co239 1.966 . S
O242 C240 1.263 . S
C243 O244 1.235 . S
C243 O270 1.289 . S
O244 C243 1.235 . S
C245 C247 1.400 . S
C245 N248 1.351 . S
C245 C250 1.501 . S
C246 C247 1.387 . S
C246 N249 1.341 . S
C247 C245 1.400 . S
C247 C246 1.387 . S
N248 Co239 2.022 . S
N248 C245 1.351 . S
N248 N249 1.365 . S
N249 C246 1.341 . S
N249 N248 1.365 . S
N249 H269 0.862 . S
C250 C245 1.501 . S
C250 H251 0.961 . S
C250 H252 0.961 . S
C250 H253 0.960 . S
H251 C250 0.961 . S
H252 C250 0.961 . S
H253 C250 0.960 . S
C254 N255 1.342 . S
C254 C258 1.401 . S
C254 C259 1.499 . S
N255 Co238 1.989 . S
N255 C254 1.342 . S
N255 N256 1.388 . S
N256 Co239 1.993 . S
N256 N255 1.388 . S
N256 C257 1.346 . S
C257 N256 1.346 . S
C257 C258 1.396 . S
C257 C267 1.510 . S
C258 C254 1.401 . S
C258 C257 1.396 . S
C259 C254 1.499 . S
C259 H260 0.959 . S
C259 H261 0.960 . S
C259 H262 0.961 . S
H260 C259 0.959 . S
H261 C259 0.960 . S
H262 C259 0.961 . S
O263 Co238 1.967 . S
O263 C271 1.258 . S
O264 Co239 1.941 . S
O264 C271 1.266 . S
H265 C267 0.959 . S
H266 C267 0.961 . S
C267 C257 1.510 . S
C267 H265 0.959 . S
C267 H266 0.961 . S
C267 H268 0.960 . S
H268 C267 0.960 . S
H269 N249 0.862 . S
O270 Co238 1.920 . S
O270 C243 1.289 . S
C271 O263 1.258 . S
C271 O264 1.266 . S
Co272 O275 1.970 . S
Co272 N289 1.989 . S
Co272 O297 1.967 . S
Co272 O304 1.920 . S
Co273 O276 1.966 . S
Co273 N282 2.022 . S
Co273 N290 1.993 . S
Co273 O298 1.941 . S
C274 O275 1.258 . S
C274 O276 1.263 . S
O275 Co272 1.970 . S
O275 C274 1.258 . S
O276 Co273 1.966 . S
O276 C274 1.263 . S
C277 O278 1.235 . S
C277 O304 1.289 . S
O278 C277 1.235 . S
C279 C281 1.400 . S
C279 N282 1.351 . S
C279 C284 1.501 . S
C280 C281 1.387 . S
C280 N283 1.341 . S
C281 C279 1.400 . S
C281 C280 1.387 . S
N282 Co273 2.022 . S
N282 C279 1.351 . S
N282 N283 1.365 . S
N283 C280 1.341 . S
N283 N282 1.365 . S
N283 H303 0.862 . S
C284 C279 1.501 . S
C284 H285 0.961 . S
C284 H286 0.961 . S
C284 H287 0.960 . S
H285 C284 0.961 . S
H286 C284 0.961 . S
H287 C284 0.960 . S
C288 N289 1.342 . S
C288 C292 1.401 . S
C288 C293 1.499 . S
N289 Co272 1.989 . S
N289 C288 1.342 . S
N289 N290 1.388 . S
N290 Co273 1.993 . S
N290 N289 1.388 . S
N290 C291 1.346 . S
C291 N290 1.346 . S
C291 C292 1.396 . S
C291 C301 1.510 . S
C292 C288 1.401 . S
C292 C291 1.396 . S
C293 C288 1.499 . S
C293 H294 0.959 . S
C293 H295 0.960 . S
C293 H296 0.961 . S
H294 C293 0.959 . S
H295 C293 0.960 . S
H296 C293 0.961 . S
O297 Co272 1.967 . S
O297 C305 1.258 . S
O298 Co273 1.941 . S
O298 C305 1.266 . S
H299 C301 0.959 . S
H300 C301 0.961 . S
C301 C291 1.510 . S
C301 H299 0.959 . S
C301 H300 0.961 . S
C301 H302 0.960 . S
H302 C301 0.960 . S
H303 N283 0.862 . S
O304 Co272 1.920 . S
O304 C277 1.289 . S
C305 O297 1.258 . S
C305 O298 1.266 . S
Co306 O309 1.970 . S
Co306 N323 1.989 . S
Co306 O331 1.967 . S
Co306 O338 1.920 . S
Co307 O310 1.966 . S
Co307 N316 2.022 . S
Co307 N324 1.993 . S
Co307 O332 1.941 . S
C308 O309 1.258 . S
C308 O310 1.263 . S
O309 Co306 1.970 . S
O309 C308 1.258 . S
O310 Co307 1.966 . S
O310 C308 1.263 . S
C311 O312 1.235 . S
C311 O338 1.289 . S
O312 C311 1.235 . S
C313 C315 1.400 . S
C313 N316 1.351 . S
C313 C318 1.501 . S
C314 C315 1.387 . S
C314 N317 1.341 . S
C315 C313 1.400 . S
C315 C314 1.387 . S
N316 Co307 2.022 . S
N316 C313 1.351 . S
N316 N317 1.365 . S
N317 C314 1.341 . S
N317 N316 1.365 . S
N317 H337 0.862 . S
C318 C313 1.501 . S
C318 H319 0.961 . S
C318 H320 0.961 . S
C318 H321 0.960 . S
H319 C318 0.961 . S
H320 C318 0.961 . S
H321 C318 0.960 . S
C322 N323 1.342 . S
C322 C326 1.401 . S
C322 C327 1.499 . S
N323 Co306 1.989 . S
N323 C322 1.342 . S
N323 N324 1.388 . S
N324 Co307 1.993 . S
N324 N323 1.388 . S
N324 C325 1.346 . S
C325 N324 1.346 . S
C325 C326 1.396 . S
C325 C335 1.510 . S
C326 C322 1.401 . S
C326 C325 1.396 . S
C327 C322 1.499 . S
C327 H328 0.959 . S
C327 H329 0.960 . S
C327 H330 0.961 . S
H328 C327 0.959 . S
H329 C327 0.960 . S
H330 C327 0.961 . S
O331 Co306 1.967 . S
O331 C339 1.258 . S
O332 Co307 1.941 . S
O332 C339 1.266 . S
H333 C335 0.959 . S
H334 C335 0.961 . S
C335 C325 1.510 . S
C335 H333 0.959 . S
C335 H334 0.961 . S
C335 H336 0.960 . S
H336 C335 0.960 . S
H337 N317 0.862 . S
O338 Co306 1.920 . S
O338 C311 1.289 . S
C339 O331 1.258 . S
C339 O332 1.266 . S
Co340 O343 1.970 . S
Co340 N357 1.989 . S
Co340 O365 1.967 . S
Co340 O372 1.920 . S
Co341 O344 1.966 . S
Co341 N350 2.022 . S
Co341 N358 1.993 . S
Co341 O366 1.941 . S
C342 O343 1.258 . S
C342 O344 1.263 . S
O343 Co340 1.970 . S
O343 C342 1.258 . S
O344 Co341 1.966 . S
O344 C342 1.263 . S
C345 O346 1.235 . S
C345 O372 1.289 . S
O346 C345 1.235 . S
C347 C349 1.400 . S
C347 N350 1.351 . S
C347 C352 1.501 . S
C348 C349 1.387 . S
C348 N351 1.341 . S
C349 C347 1.400 . S
C349 C348 1.387 . S
N350 Co341 2.022 . S
N350 C347 1.351 . S
N350 N351 1.365 . S
N351 C348 1.341 . S
N351 N350 1.365 . S
N351 H371 0.862 . S
C352 C347 1.501 . S
C352 H353 0.961 . S
C352 H354 0.961 . S
C352 H355 0.960 . S
H353 C352 0.961 . S
H354 C352 0.961 . S
H355 C352 0.960 . S
C356 N357 1.342 . S
C356 C360 1.401 . S
C356 C361 1.499 . S
N357 Co340 1.989 . S
N357 C356 1.342 . S
N357 N358 1.388 . S
N358 Co341 1.993 . S
N358 N357 1.388 . S
N358 C359 1.346 . S
C359 N358 1.346 . S
C359 C360 1.396 . S
C359 C369 1.510 . S
C360 C356 1.401 . S
C360 C359 1.396 . S
C361 C356 1.499 . S
C361 H362 0.959 . S
C361 H363 0.960 . S
C361 H364 0.961 . S
H362 C361 0.959 . S
H363 C361 0.960 . S
H364 C361 0.961 . S
O365 Co340 1.967 . S
O365 C373 1.258 . S
O366 Co341 1.941 . S
O366 C373 1.266 . S
H367 C369 0.959 . S
H368 C369 0.961 . S
C369 C359 1.510 . S
C369 H367 0.959 . S
C369 H368 0.961 . S
C369 H370 0.960 . S
H370 C369 0.960 . S
H371 N351 0.862 . S
O372 Co340 1.920 . S
O372 C345 1.289 . S
C373 O365 1.258 . S
C373 O366 1.266 . S
Co374 O377 1.970 . S
Co374 N391 1.989 . S
Co374 O399 1.967 . S
Co374 O406 1.920 . S
Co375 O378 1.966 . S
Co375 N384 2.022 . S
Co375 N392 1.993 . S
Co375 O400 1.941 . S
C376 O377 1.258 . S
C376 O378 1.263 . S
O377 Co374 1.970 . S
O377 C376 1.258 . S
O378 Co375 1.966 . S
O378 C376 1.263 . S
C379 O380 1.235 . S
C379 O406 1.289 . S
O380 C379 1.235 . S
C381 C383 1.400 . S
C381 N384 1.351 . S
C381 C386 1.501 . S
C382 C383 1.387 . S
C382 N385 1.341 . S
C383 C381 1.400 . S
C383 C382 1.387 . S
N384 Co375 2.022 . S
N384 C381 1.351 . S
N384 N385 1.365 . S
N385 C382 1.341 . S
N385 N384 1.365 . S
N385 H405 0.862 . S
C386 C381 1.501 . S
C386 H387 0.961 . S
C386 H388 0.961 . S
C386 H389 0.960 . S
H387 C386 0.961 . S
H388 C386 0.961 . S
H389 C386 0.960 . S
C390 N391 1.342 . S
C390 C394 1.401 . S
C390 C395 1.499 . S
N391 Co374 1.989 . S
N391 C390 1.342 . S
N391 N392 1.388 . S
N392 Co375 1.993 . S
N392 N391 1.388 . S
N392 C393 1.346 . S
C393 N392 1.346 . S
C393 C394 1.396 . S
C393 C403 1.510 . S
C394 C390 1.401 . S
C394 C393 1.396 . S
C395 C390 1.499 . S
C395 H396 0.959 . S
C395 H397 0.960 . S
C395 H398 0.961 . S
H396 C395 0.959 . S
H397 C395 0.960 . S
H398 C395 0.961 . S
O399 Co374 1.967 . S
O399 C407 1.258 . S
O400 Co375 1.941 . S
O400 C407 1.266 . S
H401 C403 0.959 . S
H402 C403 0.961 . S
C403 C393 1.510 . S
C403 H401 0.959 . S
C403 H402 0.961 . S
C403 H404 0.960 . S
H404 C403 0.960 . S
H405 N385 0.862 . S
O406 Co374 1.920 . S
O406 C379 1.289 . S
C407 O399 1.258 . S
C407 O400 1.266 . S
Co408 O411 1.970 . S
Co408 N425 1.989 . S
Co408 O433 1.967 . S
Co408 O440 1.920 . S
Co409 O412 1.966 . S
Co409 N418 2.022 . S
Co409 N426 1.993 . S
Co409 O434 1.941 . S
C410 O411 1.258 . S
C410 O412 1.263 . S
O411 Co408 1.970 . S
O411 C410 1.258 . S
O412 Co409 1.966 . S
O412 C410 1.263 . S
C413 O414 1.235 . S
C413 O440 1.289 . S
O414 C413 1.235 . S
C415 C417 1.400 . S
C415 N418 1.351 . S
C415 C420 1.501 . S
C416 C417 1.387 . S
C416 N419 1.341 . S
C417 C415 1.400 . S
C417 C416 1.387 . S
N418 Co409 2.022 . S
N418 C415 1.351 . S
N418 N419 1.365 . S
N419 C416 1.341 . S
N419 N418 1.365 . S
N419 H439 0.862 . S
C420 C415 1.501 . S
C420 H421 0.961 . S
C420 H422 0.961 . S
C420 H423 0.960 . S
H421 C420 0.961 . S
H422 C420 0.961 . S
H423 C420 0.960 . S
C424 N425 1.342 . S
C424 C428 1.401 . S
C424 C429 1.499 . S
N425 Co408 1.989 . S
N425 C424 1.342 . S
N425 N426 1.388 . S
N426 Co409 1.993 . S
N426 N425 1.388 . S
N426 C427 1.346 . S
C427 N426 1.346 . S
C427 C428 1.396 . S
C427 C437 1.510 . S
C428 C424 1.401 . S
C428 C427 1.396 . S
C429 C424 1.499 . S
C429 H430 0.959 . S
C429 H431 0.960 . S
C429 H432 0.961 . S
H430 C429 0.959 . S
H431 C429 0.960 . S
H432 C429 0.961 . S
O433 Co408 1.967 . S
O433 C441 1.258 . S
O434 Co409 1.941 . S
O434 C441 1.266 . S
H435 C437 0.959 . S
H436 C437 0.961 . S
C437 C427 1.510 . S
C437 H435 0.959 . S
C437 H436 0.961 . S
C437 H438 0.960 . S
H438 C437 0.960 . S
H439 N419 0.862 . S
O440 Co408 1.920 . S
O440 C413 1.289 . S
C441 O433 1.258 . S
C441 O434 1.266 . S
Co442 O445 1.970 . S
Co442 N459 1.989 . S
Co442 O467 1.967 . S
Co442 O474 1.920 . S
Co443 O446 1.966 . S
Co443 N452 2.022 . S
Co443 N460 1.993 . S
Co443 O468 1.941 . S
C444 O445 1.258 . S
C444 O446 1.263 . S
O445 Co442 1.970 . S
O445 C444 1.258 . S
O446 Co443 1.966 . S
O446 C444 1.263 . S
C447 O448 1.235 . S
C447 O474 1.289 . S
O448 C447 1.235 . S
C449 C451 1.400 . S
C449 N452 1.351 . S
C449 C454 1.501 . S
C450 C451 1.387 . S
C450 N453 1.341 . S
C451 C449 1.400 . S
C451 C450 1.387 . S
N452 Co443 2.022 . S
N452 C449 1.351 . S
N452 N453 1.365 . S
N453 C450 1.341 . S
N453 N452 1.365 . S
N453 H473 0.862 . S
C454 C449 1.501 . S
C454 H455 0.961 . S
C454 H456 0.961 . S
C454 H457 0.960 . S
H455 C454 0.961 . S
H456 C454 0.961 . S
H457 C454 0.960 . S
C458 N459 1.342 . S
C458 C462 1.401 . S
C458 C463 1.499 . S
N459 Co442 1.989 . S
N459 C458 1.342 . S
N459 N460 1.388 . S
N460 Co443 1.993 . S
N460 N459 1.388 . S
N460 C461 1.346 . S
C461 N460 1.346 . S
C461 C462 1.396 . S
C461 C471 1.510 . S
C462 C458 1.401 . S
C462 C461 1.396 . S
C463 C458 1.499 . S
C463 H464 0.959 . S
C463 H465 0.960 . S
C463 H466 0.961 . S
H464 C463 0.959 . S
H465 C463 0.960 . S
H466 C463 0.961 . S
O467 Co442 1.967 . S
O467 C475 1.258 . S
O468 Co443 1.941 . S
O468 C475 1.266 . S
H469 C471 0.959 . S
H470 C471 0.961 . S
C471 C461 1.510 . S
C471 H469 0.959 . S
C471 H470 0.961 . S
C471 H472 0.960 . S
H472 C471 0.960 . S
H473 N453 0.862 . S
O474 Co442 1.920 . S
O474 C447 1.289 . S
C475 O467 1.258 . S
C475 O468 1.266 . S
Co476 O479 1.970 . S
Co476 N493 1.989 . S
Co476 O501 1.967 . S
Co476 O508 1.920 . S
Co477 O480 1.966 . S
Co477 N486 2.022 . S
Co477 N494 1.993 . S
Co477 O502 1.941 . S
C478 O479 1.258 . S
C478 O480 1.263 . S
O479 Co476 1.970 . S
O479 C478 1.258 . S
O480 Co477 1.966 . S
O480 C478 1.263 . S
C481 O482 1.235 . S
C481 O508 1.289 . S
O482 C481 1.235 . S
C483 C485 1.400 . S
C483 N486 1.351 . S
C483 C488 1.501 . S
C484 C485 1.387 . S
C484 N487 1.341 . S
C485 C483 1.400 . S
C485 C484 1.387 . S
N486 Co477 2.022 . S
N486 C483 1.351 . S
N486 N487 1.365 . S
N487 C484 1.341 . S
N487 N486 1.365 . S
N487 H507 0.862 . S
C488 C483 1.501 . S
C488 H489 0.961 . S
C488 H490 0.961 . S
C488 H491 0.960 . S
H489 C488 0.961 . S
H490 C488 0.961 . S
H491 C488 0.960 . S
C492 N493 1.342 . S
C492 C496 1.401 . S
C492 C497 1.499 . S
N493 Co476 1.989 . S
N493 C492 1.342 . S
N493 N494 1.388 . S
N494 Co477 1.993 . S
N494 N493 1.388 . S
N494 C495 1.346 . S
C495 N494 1.346 . S
C495 C496 1.396 . S
C495 C505 1.510 . S
C496 C492 1.401 . S
C496 C495 1.396 . S
C497 C492 1.499 . S
C497 H498 0.959 . S
C497 H499 0.960 . S
C497 H500 0.961 . S
H498 C497 0.959 . S
H499 C497 0.960 . S
H500 C497 0.961 . S
O501 Co476 1.967 . S
O501 C509 1.258 . S
O502 Co477 1.941 . S
O502 C509 1.266 . S
H503 C505 0.959 . S
H504 C505 0.961 . S
C505 C495 1.510 . S
C505 H503 0.959 . S
C505 H504 0.961 . S
C505 H506 0.960 . S
H506 C505 0.960 . S
H507 N487 0.862 . S
O508 Co476 1.920 . S
O508 C481 1.289 . S
C509 O501 1.258 . S
C509 O502 1.266 . S
Co510 O513 1.970 . S
Co510 N527 1.989 . S
Co510 O535 1.967 . S
Co510 O542 1.920 . S
Co511 O514 1.966 . S
Co511 N520 2.022 . S
Co511 N528 1.993 . S
Co511 O536 1.941 . S
C512 O513 1.258 . S
C512 O514 1.263 . S
O513 Co510 1.970 . S
O513 C512 1.258 . S
O514 Co511 1.966 . S
O514 C512 1.263 . S
C515 O516 1.235 . S
C515 O542 1.289 . S
O516 C515 1.235 . S
C517 C519 1.400 . S
C517 N520 1.351 . S
C517 C522 1.501 . S
C518 C519 1.387 . S
C518 N521 1.341 . S
C519 C517 1.400 . S
C519 C518 1.387 . S
N520 Co511 2.022 . S
N520 C517 1.351 . S
N520 N521 1.365 . S
N521 C518 1.341 . S
N521 N520 1.365 . S
N521 H541 0.862 . S
C522 C517 1.501 . S
C522 H523 0.961 . S
C522 H524 0.961 . S
C522 H525 0.960 . S
H523 C522 0.961 . S
H524 C522 0.961 . S
H525 C522 0.960 . S
C526 N527 1.342 . S
C526 C530 1.401 . S
C526 C531 1.499 . S
N527 Co510 1.989 . S
N527 C526 1.342 . S
N527 N528 1.388 . S
N528 Co511 1.993 . S
N528 N527 1.388 . S
N528 C529 1.346 . S
C529 N528 1.346 . S
C529 C530 1.396 . S
C529 C539 1.510 . S
C530 C526 1.401 . S
C530 C529 1.396 . S
C531 C526 1.499 . S
C531 H532 0.959 . S
C531 H533 0.960 . S
C531 H534 0.961 . S
H532 C531 0.959 . S
H533 C531 0.960 . S
H534 C531 0.961 . S
O535 Co510 1.967 . S
O535 C543 1.258 . S
O536 Co511 1.941 . S
O536 C543 1.266 . S
H537 C539 0.959 . S
H538 C539 0.961 . S
C539 C529 1.510 . S
C539 H537 0.959 . S
C539 H538 0.961 . S
C539 H540 0.960 . S
H540 C539 0.960 . S
H541 N521 0.862 . S
O542 Co510 1.920 . S
O542 C515 1.289 . S
C543 O535 1.258 . S
C543 O536 1.266 . S
Co544 O547 1.970 . S
Co544 N561 1.989 . S
Co544 O569 1.967 . S
Co544 O576 1.920 . S
Co545 O548 1.966 . S
Co545 N554 2.022 . S
Co545 N562 1.993 . S
Co545 O570 1.941 . S
C546 O547 1.258 . S
C546 O548 1.263 . S
O547 Co544 1.970 . S
O547 C546 1.258 . S
O548 Co545 1.966 . S
O548 C546 1.263 . S
C549 O550 1.235 . S
C549 O576 1.289 . S
O550 C549 1.235 . S
C551 C553 1.400 . S
C551 N554 1.351 . S
C551 C556 1.501 . S
C552 C553 1.387 . S
C552 N555 1.341 . S
C553 C551 1.400 . S
C553 C552 1.387 . S
N554 Co545 2.022 . S
N554 C551 1.351 . S
N554 N555 1.365 . S
N555 C552 1.341 . S
N555 N554 1.365 . S
N555 H575 0.862 . S
C556 C551 1.501 . S
C556 H557 0.961 . S
C556 H558 0.961 . S
C556 H559 0.960 . S
H557 C556 0.961 . S
H558 C556 0.961 . S
H559 C556 0.960 . S
C560 N561 1.342 . S
C560 C564 1.401 . S
C560 C565 1.499 . S
N561 Co544 1.989 . S
N561 C560 1.342 . S
N561 N562 1.388 . S
N562 Co545 1.993 . S
N562 N561 1.388 . S
N562 C563 1.346 . S
C563 N562 1.346 . S
C563 C564 1.396 . S
C563 C573 1.510 . S
C564 C560 1.401 . S
C564 C563 1.396 . S
C565 C560 1.499 . S
C565 H566 0.959 . S
C565 H567 0.960 . S
C565 H568 0.961 . S
H566 C565 0.959 . S
H567 C565 0.960 . S
H568 C565 0.961 . S
O569 Co544 1.967 . S
O569 C577 1.258 . S
O570 Co545 1.941 . S
O570 C577 1.266 . S
H571 C573 0.959 . S
H572 C573 0.961 . S
C573 C563 1.510 . S
C573 H571 0.959 . S
C573 H572 0.961 . S
C573 H574 0.960 . S
H574 C573 0.960 . S
H575 N555 0.862 . S
O576 Co544 1.920 . S
O576 C549 1.289 . S
C577 O569 1.258 . S
C577 O570 1.266 . S
Co578 O581 1.970 . S
Co578 N595 1.989 . S
Co578 O603 1.967 . S
Co578 O610 1.920 . S
Co579 O582 1.966 . S
Co579 N588 2.022 . S
Co579 N596 1.993 . S
Co579 O604 1.941 . S
C580 O581 1.258 . S
C580 O582 1.263 . S
O581 Co578 1.970 . S
O581 C580 1.258 . S
O582 Co579 1.966 . S
O582 C580 1.263 . S
C583 O584 1.235 . S
C583 O610 1.289 . S
O584 C583 1.235 . S
C585 C587 1.400 . S
C585 N588 1.351 . S
C585 C590 1.501 . S
C586 C587 1.387 . S
C586 N589 1.341 . S
C587 C585 1.400 . S
C587 C586 1.387 . S
N588 Co579 2.022 . S
N588 C585 1.351 . S
N588 N589 1.365 . S
N589 C586 1.341 . S
N589 N588 1.365 . S
N589 H609 0.862 . S
C590 C585 1.501 . S
C590 H591 0.961 . S
C590 H592 0.961 . S
C590 H593 0.960 . S
H591 C590 0.961 . S
H592 C590 0.961 . S
H593 C590 0.960 . S
C594 N595 1.342 . S
C594 C598 1.401 . S
C594 C599 1.499 . S
N595 Co578 1.989 . S
N595 C594 1.342 . S
N595 N596 1.388 . S
N596 Co579 1.993 . S
N596 N595 1.388 . S
N596 C597 1.346 . S
C597 N596 1.346 . S
C597 C598 1.396 . S
C597 C607 1.510 . S
C598 C594 1.401 . S
C598 C597 1.396 . S
C599 C594 1.499 . S
C599 H600 0.959 . S
C599 H601 0.960 . S
C599 H602 0.961 . S
H600 C599 0.959 . S
H601 C599 0.960 . S
H602 C599 0.961 . S
O603 Co578 1.967 . S
O603 C611 1.258 . S
O604 Co579 1.941 . S
O604 C611 1.266 . S
H605 C607 0.959 . S
H606 C607 0.961 . S
C607 C597 1.510 . S
C607 H605 0.959 . S
C607 H606 0.961 . S
C607 H608 0.960 . S
H608 C607 0.960 . S
H609 N589 0.862 . S
O610 Co578 1.920 . S
O610 C583 1.289 . S
C611 O603 1.258 . S
C611 O604 1.266 . S
Co612 O615 1.970 . S
Co612 N629 1.989 . S
Co612 O637 1.967 . S
Co612 O644 1.920 . S
Co613 O616 1.966 . S
Co613 N622 2.022 . S
Co613 N630 1.993 . S
Co613 O638 1.941 . S
C614 O615 1.258 . S
C614 O616 1.263 . S
O615 Co612 1.970 . S
O615 C614 1.258 . S
O616 Co613 1.966 . S
O616 C614 1.263 . S
C617 O618 1.235 . S
C617 O644 1.289 . S
O618 C617 1.235 . S
C619 C621 1.400 . S
C619 N622 1.351 . S
C619 C624 1.501 . S
C620 C621 1.387 . S
C620 N623 1.341 . S
C621 C619 1.400 . S
C621 C620 1.387 . S
N622 Co613 2.022 . S
N622 C619 1.351 . S
N622 N623 1.365 . S
N623 C620 1.341 . S
N623 N622 1.365 . S
N623 H643 0.862 . S
C624 C619 1.501 . S
C624 H625 0.961 . S
C624 H626 0.961 . S
C624 H627 0.960 . S
H625 C624 0.961 . S
H626 C624 0.961 . S
H627 C624 0.960 . S
C628 N629 1.342 . S
C628 C632 1.401 . S
C628 C633 1.499 . S
N629 Co612 1.989 . S
N629 C628 1.342 . S
N629 N630 1.388 . S
N630 Co613 1.993 . S
N630 N629 1.388 . S
N630 C631 1.346 . S
C631 N630 1.346 . S
C631 C632 1.396 . S
C631 C641 1.510 . S
C632 C628 1.401 . S
C632 C631 1.396 . S
C633 C628 1.499 . S
C633 H634 0.959 . S
C633 H635 0.960 . S
C633 H636 0.961 . S
H634 C633 0.959 . S
H635 C633 0.960 . S
H636 C633 0.961 . S
O637 Co612 1.967 . S
O637 C645 1.258 . S
O638 Co613 1.941 . S
O638 C645 1.266 . S
H639 C641 0.959 . S
H640 C641 0.961 . S
C641 C631 1.510 . S
C641 H639 0.959 . S
C641 H640 0.961 . S
C641 H642 0.960 . S
H642 C641 0.960 . S
H643 N623 0.862 . S
O644 Co612 1.920 . S
O644 C617 1.289 . S
C645 O637 1.258 . S
C645 O638 1.266 . S
Co646 O649 1.970 . S
Co646 N663 1.989 . S
Co646 O671 1.967 . S
Co646 O678 1.920 . S
Co647 O650 1.966 . S
Co647 N656 2.022 . S
Co647 N664 1.993 . S
Co647 O672 1.941 . S
C648 O649 1.258 . S
C648 O650 1.263 . S
O649 Co646 1.970 . S
O649 C648 1.258 . S
O650 Co647 1.966 . S
O650 C648 1.263 . S
C651 O652 1.235 . S
C651 O678 1.289 . S
O652 C651 1.235 . S
C653 C655 1.400 . S
C653 N656 1.351 . S
C653 C658 1.501 . S
C654 C655 1.387 . S
C654 N657 1.341 . S
C655 C653 1.400 . S
C655 C654 1.387 . S
N656 Co647 2.022 . S
N656 C653 1.351 . S
N656 N657 1.365 . S
N657 C654 1.341 . S
N657 N656 1.365 . S
N657 H677 0.862 . S
C658 C653 1.501 . S
C658 H659 0.961 . S
C658 H660 0.961 . S
C658 H661 0.960 . S
H659 C658 0.961 . S
H660 C658 0.961 . S
H661 C658 0.960 . S
C662 N663 1.342 . S
C662 C666 1.401 . S
C662 C667 1.499 . S
N663 Co646 1.989 . S
N663 C662 1.342 . S
N663 N664 1.388 . S
N664 Co647 1.993 . S
N664 N663 1.388 . S
N664 C665 1.346 . S
C665 N664 1.346 . S
C665 C666 1.396 . S
C665 C675 1.510 . S
C666 C662 1.401 . S
C666 C665 1.396 . S
C667 C662 1.499 . S
C667 H668 0.959 . S
C667 H669 0.960 . S
C667 H670 0.961 . S
H668 C667 0.959 . S
H669 C667 0.960 . S
H670 C667 0.961 . S
O671 Co646 1.967 . S
O671 C679 1.258 . S
O672 Co647 1.941 . S
O672 C679 1.266 . S
H673 C675 0.959 . S
H674 C675 0.961 . S
C675 C665 1.510 . S
C675 H673 0.959 . S
C675 H674 0.961 . S
C675 H676 0.960 . S
H676 C675 0.960 . S
H677 N657 0.862 . S
O678 Co646 1.920 . S
O678 C651 1.289 . S
C679 O671 1.258 . S
C679 O672 1.266 . S
Co680 O683 1.970 . S
Co680 N697 1.989 . S
Co680 O705 1.967 . S
Co680 O712 1.920 . S
Co681 O684 1.966 . S
Co681 N690 2.022 . S
Co681 N698 1.993 . S
Co681 O706 1.941 . S
C682 O683 1.258 . S
C682 O684 1.263 . S
O683 Co680 1.970 . S
O683 C682 1.258 . S
O684 Co681 1.966 . S
O684 C682 1.263 . S
C685 O686 1.235 . S
C685 O712 1.289 . S
O686 C685 1.235 . S
C687 C689 1.400 . S
C687 N690 1.351 . S
C687 C692 1.501 . S
C688 C689 1.387 . S
C688 N691 1.341 . S
C689 C687 1.400 . S
C689 C688 1.387 . S
N690 Co681 2.022 . S
N690 C687 1.351 . S
N690 N691 1.365 . S
N691 C688 1.341 . S
N691 N690 1.365 . S
N691 H711 0.862 . S
C692 C687 1.501 . S
C692 H693 0.961 . S
C692 H694 0.961 . S
C692 H695 0.960 . S
H693 C692 0.961 . S
H694 C692 0.961 . S
H695 C692 0.960 . S
C696 N697 1.342 . S
C696 C700 1.401 . S
C696 C701 1.499 . S
N697 Co680 1.989 . S
N697 C696 1.342 . S
N697 N698 1.388 . S
N698 Co681 1.993 . S
N698 N697 1.388 . S
N698 C699 1.346 . S
C699 N698 1.346 . S
C699 C700 1.396 . S
C699 C709 1.510 . S
C700 C696 1.401 . S
C700 C699 1.396 . S
C701 C696 1.499 . S
C701 H702 0.959 . S
C701 H703 0.960 . S
C701 H704 0.961 . S
H702 C701 0.959 . S
H703 C701 0.960 . S
H704 C701 0.961 . S
O705 Co680 1.967 . S
O705 C713 1.258 . S
O706 Co681 1.941 . S
O706 C713 1.266 . S
H707 C709 0.959 . S
H708 C709 0.961 . S
C709 C699 1.510 . S
C709 H707 0.959 . S
C709 H708 0.961 . S
C709 H710 0.960 . S
H710 C709 0.960 . S
H711 N691 0.862 . S
O712 Co680 1.920 . S
O712 C685 1.289 . S
C713 O705 1.258 . S
C713 O706 1.266 . S
Co714 O717 1.970 . S
Co714 N731 1.989 . S
Co714 O739 1.967 . S
Co714 O746 1.920 . S
Co715 O718 1.966 . S
Co715 N724 2.022 . S
Co715 N732 1.993 . S
Co715 O740 1.941 . S
C716 O717 1.258 . S
C716 O718 1.263 . S
O717 Co714 1.970 . S
O717 C716 1.258 . S
O718 Co715 1.966 . S
O718 C716 1.263 . S
C719 O720 1.235 . S
C719 O746 1.289 . S
O720 C719 1.235 . S
C721 C723 1.400 . S
C721 N724 1.351 . S
C721 C726 1.501 . S
C722 C723 1.387 . S
C722 N725 1.341 . S
C723 C721 1.400 . S
C723 C722 1.387 . S
N724 Co715 2.022 . S
N724 C721 1.351 . S
N724 N725 1.365 . S
N725 C722 1.341 . S
N725 N724 1.365 . S
N725 H745 0.862 . S
C726 C721 1.501 . S
C726 H727 0.961 . S
C726 H728 0.961 . S
C726 H729 0.960 . S
H727 C726 0.961 . S
H728 C726 0.961 . S
H729 C726 0.960 . S
C730 N731 1.342 . S
C730 C734 1.401 . S
C730 C735 1.499 . S
N731 Co714 1.989 . S
N731 C730 1.342 . S
N731 N732 1.388 . S
N732 Co715 1.993 . S
N732 N731 1.388 . S
N732 C733 1.346 . S
C733 N732 1.346 . S
C733 C734 1.396 . S
C733 C743 1.510 . S
C734 C730 1.401 . S
C734 C733 1.396 . S
C735 C730 1.499 . S
C735 H736 0.959 . S
C735 H737 0.960 . S
C735 H738 0.961 . S
H736 C735 0.959 . S
H737 C735 0.960 . S
H738 C735 0.961 . S
O739 Co714 1.967 . S
O739 C747 1.258 . S
O740 Co715 1.941 . S
O740 C747 1.266 . S
H741 C743 0.959 . S
H742 C743 0.961 . S
C743 C733 1.510 . S
C743 H741 0.959 . S
C743 H742 0.961 . S
C743 H744 0.960 . S
H744 C743 0.960 . S
H745 N725 0.862 . S
O746 Co714 1.920 . S
O746 C719 1.289 . S
C747 O739 1.258 . S
C747 O740 1.266 . S
Co748 O751 1.970 . S
Co748 N765 1.989 . S
Co748 O773 1.967 . S
Co748 O780 1.920 . S
Co749 O752 1.966 . S
Co749 N758 2.022 . S
Co749 N766 1.993 . S
Co749 O774 1.941 . S
C750 O751 1.258 . S
C750 O752 1.263 . S
O751 Co748 1.970 . S
O751 C750 1.258 . S
O752 Co749 1.966 . S
O752 C750 1.263 . S
C753 O754 1.235 . S
C753 O780 1.289 . S
O754 C753 1.235 . S
C755 C757 1.400 . S
C755 N758 1.351 . S
C755 C760 1.501 . S
C756 C757 1.387 . S
C756 N759 1.341 . S
C757 C755 1.400 . S
C757 C756 1.387 . S
N758 Co749 2.022 . S
N758 C755 1.351 . S
N758 N759 1.365 . S
N759 C756 1.341 . S
N759 N758 1.365 . S
N759 H779 0.862 . S
C760 C755 1.501 . S
C760 H761 0.961 . S
C760 H762 0.961 . S
C760 H763 0.960 . S
H761 C760 0.961 . S
H762 C760 0.961 . S
H763 C760 0.960 . S
C764 N765 1.342 . S
C764 C768 1.401 . S
C764 C769 1.499 . S
N765 Co748 1.989 . S
N765 C764 1.342 . S
N765 N766 1.388 . S
N766 Co749 1.993 . S
N766 N765 1.388 . S
N766 C767 1.346 . S
C767 N766 1.346 . S
C767 C768 1.396 . S
C767 C777 1.510 . S
C768 C764 1.401 . S
C768 C767 1.396 . S
C769 C764 1.499 . S
C769 H770 0.959 . S
C769 H771 0.960 . S
C769 H772 0.961 . S
H770 C769 0.959 . S
H771 C769 0.960 . S
H772 C769 0.961 . S
O773 Co748 1.967 . S
O773 C781 1.258 . S
O774 Co749 1.941 . S
O774 C781 1.266 . S
H775 C777 0.959 . S
H776 C777 0.961 . S
C777 C767 1.510 . S
C777 H775 0.959 . S
C777 H776 0.961 . S
C777 H778 0.960 . S
H778 C777 0.960 . S
H779 N759 0.862 . S
O780 Co748 1.920 . S
O780 C753 1.289 . S
C781 O773 1.258 . S
C781 O774 1.266 . S
Co782 O785 1.970 . S
Co782 N799 1.989 . S
Co782 O807 1.967 . S
Co782 O814 1.920 . S
Co783 O786 1.966 . S
Co783 N792 2.022 . S
Co783 N800 1.993 . S
Co783 O808 1.941 . S
C784 O785 1.258 . S
C784 O786 1.263 . S
O785 Co782 1.970 . S
O785 C784 1.258 . S
O786 Co783 1.966 . S
O786 C784 1.263 . S
C787 O788 1.235 . S
C787 O814 1.289 . S
O788 C787 1.235 . S
C789 C791 1.400 . S
C789 N792 1.351 . S
C789 C794 1.501 . S
C790 C791 1.387 . S
C790 N793 1.341 . S
C791 C789 1.400 . S
C791 C790 1.387 . S
N792 Co783 2.022 . S
N792 C789 1.351 . S
N792 N793 1.365 . S
N793 C790 1.341 . S
N793 N792 1.365 . S
N793 H813 0.862 . S
C794 C789 1.501 . S
C794 H795 0.961 . S
C794 H796 0.961 . S
C794 H797 0.960 . S
H795 C794 0.961 . S
H796 C794 0.961 . S
H797 C794 0.960 . S
C798 N799 1.342 . S
C798 C802 1.401 . S
C798 C803 1.499 . S
N799 Co782 1.989 . S
N799 C798 1.342 . S
N799 N800 1.388 . S
N800 Co783 1.993 . S
N800 N799 1.388 . S
N800 C801 1.346 . S
C801 N800 1.346 . S
C801 C802 1.396 . S
C801 C811 1.510 . S
C802 C798 1.401 . S
C802 C801 1.396 . S
C803 C798 1.499 . S
C803 H804 0.959 . S
C803 H805 0.960 . S
C803 H806 0.961 . S
H804 C803 0.959 . S
H805 C803 0.960 . S
H806 C803 0.961 . S
O807 Co782 1.967 . S
O807 C815 1.258 . S
O808 Co783 1.941 . S
O808 C815 1.266 . S
H809 C811 0.959 . S
H810 C811 0.961 . S
C811 C801 1.510 . S
C811 H809 0.959 . S
C811 H810 0.961 . S
C811 H812 0.960 . S
H812 C811 0.960 . S
H813 N793 0.862 . S
O814 Co782 1.920 . S
O814 C787 1.289 . S
C815 O807 1.258 . S
C815 O808 1.266 . S
C816 C817 1.387 . S
C816 H820 0.950 . S
C816 C825 1.390 . S
C817 C816 1.387 . S
C817 C819 1.387 . S
H818 C825 0.950 . S
C819 C817 1.387 . S
C819 C821 1.390 . S
C819 H823 0.950 . S
H820 C816 0.950 . S
C821 C819 1.390 . S
C821 C822 1.387 . S
C821 H824 0.950 . S
C822 C821 1.387 . S
C822 C825 1.387 . S
H823 C819 0.950 . S
H824 C821 0.950 . S
C825 C816 1.390 . S
C825 H818 0.950 . S
C825 C822 1.387 . S
C826 C827 1.387 . S
C826 H830 0.950 . S
C826 C835 1.390 . S
C827 C826 1.387 . S
C827 C829 1.387 . S
H828 C835 0.950 . S
C829 C827 1.387 . S
C829 C831 1.390 . S
C829 H833 0.950 . S
H830 C826 0.950 . S
C831 C829 1.390 . S
C831 C832 1.387 . S
C831 H834 0.950 . S
C832 C831 1.387 . S
C832 C835 1.387 . S
H833 C829 0.950 . S
H834 C831 0.950 . S
C835 C826 1.390 . S
C835 H828 0.950 . S
C835 C832 1.387 . S
C836 C837 1.387 . S
C836 H840 0.950 . S
C836 C845 1.390 . S
C837 C836 1.387 . S
C837 C839 1.387 . S
H838 C845 0.950 . S
C839 C837 1.387 . S
C839 C841 1.390 . S
C839 H843 0.950 . S
H840 C836 0.950 . S
C841 C839 1.390 . S
C841 C842 1.387 . S
C841 H844 0.950 . S
C842 C841 1.387 . S
C842 C845 1.387 . S
H843 C839 0.950 . S
H844 C841 0.950 . S
C845 C836 1.390 . S
C845 H838 0.950 . S
C845 C842 1.387 . S
C846 C847 1.387 . S
C846 H850 0.950 . S
C846 C855 1.390 . S
C847 C846 1.387 . S
C847 C849 1.387 . S
H848 C855 0.950 . S
C849 C847 1.387 . S
C849 C851 1.390 . S
C849 H853 0.950 . S
H850 C846 0.950 . S
C851 C849 1.390 . S
C851 C852 1.387 . S
C851 H854 0.950 . S
C852 C851 1.387 . S
C852 C855 1.387 . S
H853 C849 0.950 . S
H854 C851 0.950 . S
C855 C846 1.390 . S
C855 H848 0.950 . S
C855 C852 1.387 . S
C856 C857 1.387 . S
C856 H860 0.950 . S
C856 C865 1.390 . S
C857 C856 1.387 . S
C857 C859 1.387 . S
H858 C865 0.950 . S
C859 C857 1.387 . S
C859 C861 1.390 . S
C859 H863 0.950 . S
H860 C856 0.950 . S
C861 C859 1.390 . S
C861 C862 1.387 . S
C861 H864 0.950 . S
C862 C861 1.387 . S
C862 C865 1.387 . S
H863 C859 0.950 . S
H864 C861 0.950 . S
C865 C856 1.390 . S
C865 H858 0.950 . S
C865 C862 1.387 . S
C866 C867 1.387 . S
C866 H870 0.950 . S
C866 C875 1.390 . S
C867 C866 1.387 . S
C867 C869 1.387 . S
H868 C875 0.950 . S
C869 C867 1.387 . S
C869 C871 1.390 . S
C869 H873 0.950 . S
H870 C866 0.950 . S
C871 C869 1.390 . S
C871 C872 1.387 . S
C871 H874 0.950 . S
C872 C871 1.387 . S
C872 C875 1.387 . S
H873 C869 0.950 . S
H874 C871 0.950 . S
C875 C866 1.390 . S
C875 H868 0.950 . S
C875 C872 1.387 . S
C876 C877 1.387 . S
C876 H880 0.950 . S
C876 C885 1.390 . S
C877 C876 1.387 . S
C877 C879 1.387 . S
H878 C885 0.950 . S
C879 C877 1.387 . S
C879 C881 1.390 . S
C879 H883 0.950 . S
H880 C876 0.950 . S
C881 C879 1.390 . S
C881 C882 1.387 . S
C881 H884 0.950 . S
C882 C881 1.387 . S
C882 C885 1.387 . S
H883 C879 0.950 . S
H884 C881 0.950 . S
C885 C876 1.390 . S
C885 H878 0.950 . S
C885 C882 1.387 . S
C886 C887 1.387 . S
C886 H890 0.950 . S
C886 C895 1.390 . S
C887 C886 1.387 . S
C887 C889 1.387 . S
H888 C895 0.950 . S
C889 C887 1.387 . S
C889 C891 1.390 . S
C889 H893 0.950 . S
H890 C886 0.950 . S
C891 C889 1.390 . S
C891 C892 1.387 . S
C891 H894 0.950 . S
C892 C891 1.387 . S
C892 C895 1.387 . S
H893 C889 0.950 . S
H894 C891 0.950 . S
C895 C886 1.390 . S
C895 H888 0.950 . S
C895 C892 1.387 . S
C896 C897 1.387 . S
C896 H900 0.950 . S
C896 C905 1.390 . S
C897 C896 1.387 . S
C897 C899 1.387 . S
H898 C905 0.950 . S
C899 C897 1.387 . S
C899 C901 1.390 . S
C899 H903 0.950 . S
H900 C896 0.950 . S
C901 C899 1.390 . S
C901 C902 1.387 . S
C901 H904 0.950 . S
C902 C901 1.387 . S
C902 C905 1.387 . S
H903 C899 0.950 . S
H904 C901 0.950 . S
C905 C896 1.390 . S
C905 H898 0.950 . S
C905 C902 1.387 . S
C906 C907 1.387 . S
C906 H910 0.950 . S
C906 C915 1.390 . S
C907 C906 1.387 . S
C907 C909 1.387 . S
H908 C915 0.950 . S
C909 C907 1.387 . S
C909 C911 1.390 . S
C909 H913 0.950 . S
H910 C906 0.950 . S
C911 C909 1.390 . S
C911 C912 1.387 . S
C911 H914 0.950 . S
C912 C911 1.387 . S
C912 C915 1.387 . S
H913 C909 0.950 . S
H914 C911 0.950 . S
C915 C906 1.390 . S
C915 H908 0.950 . S
C915 C912 1.387 . S
C916 C917 1.387 . S
C916 H920 0.950 . S
C916 C925 1.390 . S
C917 C916 1.387 . S
C917 C919 1.387 . S
H918 C925 0.950 . S
C919 C917 1.387 . S
C919 C921 1.390 . S
C919 H923 0.950 . S
H920 C916 0.950 . S
C921 C919 1.390 . S
C921 C922 1.387 . S
C921 H924 0.950 . S
C922 C921 1.387 . S
C922 C925 1.387 . S
H923 C919 0.950 . S
H924 C921 0.950 . S
C925 C916 1.390 . S
C925 H918 0.950 . S
C925 C922 1.387 . S
C926 C927 1.387 . S
C926 H930 0.950 . S
C926 C935 1.390 . S
C927 C926 1.387 . S
C927 C929 1.387 . S
H928 C935 0.950 . S
C929 C927 1.387 . S
C929 C931 1.390 . S
C929 H933 0.950 . S
H930 C926 0.950 . S
C931 C929 1.390 . S
C931 C932 1.387 . S
C931 H934 0.950 . S
C932 C931 1.387 . S
C932 C935 1.387 . S
H933 C929 0.950 . S
H934 C931 0.950 . S
C935 C926 1.390 . S
C935 H928 0.950 . S
C935 C932 1.387 . S
C936 C937 1.387 . S
C936 H940 0.950 . S
C936 C945 1.390 . S
C937 C936 1.387 . S
C937 C939 1.387 . S
H938 C945 0.950 . S
C939 C937 1.387 . S
C939 C941 1.390 . S
C939 H943 0.950 . S
H940 C936 0.950 . S
C941 C939 1.390 . S
C941 C942 1.387 . S
C941 H944 0.950 . S
C942 C941 1.387 . S
C942 C945 1.387 . S
H943 C939 0.950 . S
H944 C941 0.950 . S
C945 C936 1.390 . S
C945 H938 0.950 . S
C945 C942 1.387 . S
C946 C947 1.387 . S
C946 H950 0.950 . S
C946 C955 1.390 . S
C947 C946 1.387 . S
C947 C949 1.387 . S
H948 C955 0.950 . S
C949 C947 1.387 . S
C949 C951 1.390 . S
C949 H953 0.950 . S
H950 C946 0.950 . S
C951 C949 1.390 . S
C951 C952 1.387 . S
C951 H954 0.950 . S
C952 C951 1.387 . S
C952 C955 1.387 . S
H953 C949 0.950 . S
H954 C951 0.950 . S
C955 C946 1.390 . S
C955 H948 0.950 . S
C955 C952 1.387 . S
C956 C957 1.387 . S
C956 H960 0.950 . S
C956 C965 1.390 . S
C957 C956 1.387 . S
C957 C959 1.387 . S
H958 C965 0.950 . S
C959 C957 1.387 . S
C959 C961 1.390 . S
C959 H963 0.950 . S
H960 C956 0.950 . S
C961 C959 1.390 . S
C961 C962 1.387 . S
C961 H964 0.950 . S
C962 C961 1.387 . S
C962 C965 1.387 . S
H963 C959 0.950 . S
H964 C961 0.950 . S
C965 C956 1.390 . S
C965 H958 0.950 . S
C965 C962 1.387 . S
C966 C967 1.387 . S
C966 H970 0.950 . S
C966 C975 1.390 . S
C967 C966 1.387 . S
C967 C969 1.387 . S
H968 C975 0.950 . S
C969 C967 1.387 . S
C969 C971 1.390 . S
C969 H973 0.950 . S
H970 C966 0.950 . S
C971 C969 1.390 . S
C971 C972 1.387 . S
C971 H974 0.950 . S
C972 C971 1.387 . S
C972 C975 1.387 . S
H973 C969 0.950 . S
H974 C971 0.950 . S
C975 C966 1.390 . S
C975 H968 0.950 . S
C975 C972 1.387 . S
C976 C977 1.387 . S
C976 H980 0.950 . S
C976 C985 1.390 . S
C977 C976 1.387 . S
C977 C979 1.387 . S
H978 C985 0.950 . S
C979 C977 1.387 . S
C979 C981 1.390 . S
C979 H983 0.950 . S
H980 C976 0.950 . S
C981 C979 1.390 . S
C981 C982 1.387 . S
C981 H984 0.950 . S
C982 C981 1.387 . S
C982 C985 1.387 . S
H983 C979 0.950 . S
H984 C981 0.950 . S
C985 C976 1.390 . S
C985 H978 0.950 . S
C985 C982 1.387 . S
C986 C987 1.387 . S
C986 H990 0.950 . S
C986 C995 1.390 . S
C987 C986 1.387 . S
C987 C989 1.387 . S
H988 C995 0.950 . S
C989 C987 1.387 . S
C989 C991 1.390 . S
C989 H993 0.950 . S
H990 C986 0.950 . S
C991 C989 1.390 . S
C991 C992 1.387 . S
C991 H994 0.950 . S
C992 C991 1.387 . S
C992 C995 1.387 . S
H993 C989 0.950 . S
H994 C991 0.950 . S
C995 C986 1.390 . S
C995 H988 0.950 . S
C995 C992 1.387 . S
C996 C997 1.387 . S
C996 H1000 0.950 . S
C996 C1005 1.390 . S
C997 C996 1.387 . S
C997 C999 1.387 . S
H998 C1005 0.950 . S
C999 C997 1.387 . S
C999 C1001 1.390 . S
C999 H1003 0.950 . S
H1000 C996 0.950 . S
C1001 C999 1.390 . S
C1001 C1002 1.387 . S
C1001 H1004 0.950 . S
C1002 C1001 1.387 . S
C1002 C1005 1.387 . S
H1003 C999 0.950 . S
H1004 C1001 0.950 . S
C1005 C996 1.390 . S
C1005 H998 0.950 . S
C1005 C1002 1.387 . S
C1006 C1007 1.387 . S
C1006 H1010 0.950 . S
C1006 C1015 1.390 . S
C1007 C1006 1.387 . S
C1007 C1009 1.387 . S
H1008 C1015 0.950 . S
C1009 C1007 1.387 . S
C1009 C1011 1.390 . S
C1009 H1013 0.950 . S
H1010 C1006 0.950 . S
C1011 C1009 1.390 . S
C1011 C1012 1.387 . S
C1011 H1014 0.950 . S
C1012 C1011 1.387 . S
C1012 C1015 1.387 . S
H1013 C1009 0.950 . S
H1014 C1011 0.950 . S
C1015 C1006 1.390 . S
C1015 H1008 0.950 . S
C1015 C1012 1.387 . S
C1016 C1017 1.387 . S
C1016 H1020 0.950 . S
C1016 C1025 1.390 . S
C1017 C1016 1.387 . S
C1017 C1019 1.387 . S
H1018 C1025 0.950 . S
C1019 C1017 1.387 . S
C1019 C1021 1.390 . S
C1019 H1023 0.950 . S
H1020 C1016 0.950 . S
C1021 C1019 1.390 . S
C1021 C1022 1.387 . S
C1021 H1024 0.950 . S
C1022 C1021 1.387 . S
C1022 C1025 1.387 . S
H1023 C1019 0.950 . S
H1024 C1021 0.950 . S
C1025 C1016 1.390 . S
C1025 H1018 0.950 . S
C1025 C1022 1.387 . S
C1026 C1027 1.387 . S
C1026 H1030 0.950 . S
C1026 C1035 1.390 . S
C1027 C1026 1.387 . S
C1027 C1029 1.387 . S
H1028 C1035 0.950 . S
C1029 C1027 1.387 . S
C1029 C1031 1.390 . S
C1029 H1033 0.950 . S
H1030 C1026 0.950 . S
C1031 C1029 1.390 . S
C1031 C1032 1.387 . S
C1031 H1034 0.950 . S
C1032 C1031 1.387 . S
C1032 C1035 1.387 . S
H1033 C1029 0.950 . S
H1034 C1031 0.950 . S
C1035 C1026 1.390 . S
C1035 H1028 0.950 . S
C1035 C1032 1.387 . S
C1036 C1037 1.387 . S
C1036 H1040 0.950 . S
C1036 C1045 1.390 . S
C1037 C1036 1.387 . S
C1037 C1039 1.387 . S
H1038 C1045 0.950 . S
C1039 C1037 1.387 . S
C1039 C1041 1.390 . S
C1039 H1043 0.950 . S
H1040 C1036 0.950 . S
C1041 C1039 1.390 . S
C1041 C1042 1.387 . S
C1041 H1044 0.950 . S
C1042 C1041 1.387 . S
C1042 C1045 1.387 . S
H1043 C1039 0.950 . S
H1044 C1041 0.950 . S
C1045 C1036 1.390 . S
C1045 H1038 0.950 . S
C1045 C1042 1.387 . S
C1046 C1047 1.387 . S
C1046 H1050 0.950 . S
C1046 C1055 1.390 . S
C1047 C1046 1.387 . S
C1047 C1049 1.387 . S
H1048 C1055 0.950 . S
C1049 C1047 1.387 . S
C1049 C1051 1.390 . S
C1049 H1053 0.950 . S
H1050 C1046 0.950 . S
C1051 C1049 1.390 . S
C1051 C1052 1.387 . S
C1051 H1054 0.950 . S
C1052 C1051 1.387 . S
C1052 C1055 1.387 . S
H1053 C1049 0.950 . S
H1054 C1051 0.950 . S
C1055 C1046 1.390 . S
C1055 H1048 0.950 . S
C1055 C1052 1.387 . S
C1056 C1057 1.387 . S
C1056 H1060 0.950 . S
C1056 C1065 1.390 . S
C1057 C1056 1.387 . S
C1057 C1059 1.387 . S
H1058 C1065 0.950 . S
C1059 C1057 1.387 . S
C1059 C1061 1.390 . S
C1059 H1063 0.950 . S
H1060 C1056 0.950 . S
C1061 C1059 1.390 . S
C1061 C1062 1.387 . S
C1061 H1064 0.950 . S
C1062 C1061 1.387 . S
C1062 C1065 1.387 . S
H1063 C1059 0.950 . S
H1064 C1061 0.950 . S
C1065 C1056 1.390 . S
C1065 H1058 0.950 . S
C1065 C1062 1.387 . S
C1066 C1067 1.387 . S
C1066 H1070 0.950 . S
C1066 C1075 1.390 . S
C1067 C1066 1.387 . S
C1067 C1069 1.387 . S
H1068 C1075 0.950 . S
C1069 C1067 1.387 . S
C1069 C1071 1.390 . S
C1069 H1073 0.950 . S
H1070 C1066 0.950 . S
C1071 C1069 1.390 . S
C1071 C1072 1.387 . S
C1071 H1074 0.950 . S
C1072 C1071 1.387 . S
C1072 C1075 1.387 . S
H1073 C1069 0.950 . S
H1074 C1071 0.950 . S
C1075 C1066 1.390 . S
C1075 H1068 0.950 . S
C1075 C1072 1.387 . S
C1076 C1077 1.387 . S
C1076 H1080 0.950 . S
C1076 C1085 1.390 . S
C1077 C1076 1.387 . S
C1077 C1079 1.387 . S
H1078 C1085 0.950 . S
C1079 C1077 1.387 . S
C1079 C1081 1.390 . S
C1079 H1083 0.950 . S
H1080 C1076 0.950 . S
C1081 C1079 1.390 . S
C1081 C1082 1.387 . S
C1081 H1084 0.950 . S
C1082 C1081 1.387 . S
C1082 C1085 1.387 . S
H1083 C1079 0.950 . S
H1084 C1081 0.950 . S
C1085 C1076 1.390 . S
C1085 H1078 0.950 . S
C1085 C1082 1.387 . S
C1086 C1087 1.387 . S
C1086 H1090 0.950 . S
C1086 C1095 1.390 . S
C1087 C1086 1.387 . S
C1087 C1089 1.387 . S
H1088 C1095 0.950 . S
C1089 C1087 1.387 . S
C1089 C1091 1.390 . S
C1089 H1093 0.950 . S
H1090 C1086 0.950 . S
C1091 C1089 1.390 . S
C1091 C1092 1.387 . S
C1091 H1094 0.950 . S
C1092 C1091 1.387 . S
C1092 C1095 1.387 . S
H1093 C1089 0.950 . S
H1094 C1091 0.950 . S
C1095 C1086 1.390 . S
C1095 H1088 0.950 . S
C1095 C1092 1.387 . S
C1096 C1097 1.387 . S
C1096 H1100 0.950 . S
C1096 C1105 1.390 . S
C1097 C1096 1.387 . S
C1097 C1099 1.387 . S
H1098 C1105 0.950 . S
C1099 C1097 1.387 . S
C1099 C1101 1.390 . S
C1099 H1103 0.950 . S
H1100 C1096 0.950 . S
C1101 C1099 1.390 . S
C1101 C1102 1.387 . S
C1101 H1104 0.950 . S
C1102 C1101 1.387 . S
C1102 C1105 1.387 . S
H1103 C1099 0.950 . S
H1104 C1101 0.950 . S
C1105 C1096 1.390 . S
C1105 H1098 0.950 . S
C1105 C1102 1.387 . S
C1106 C1107 1.387 . S
C1106 H1110 0.950 . S
C1106 C1115 1.390 . S
C1107 C1106 1.387 . S
C1107 C1109 1.387 . S
H1108 C1115 0.950 . S
C1109 C1107 1.387 . S
C1109 C1111 1.390 . S
C1109 H1113 0.950 . S
H1110 C1106 0.950 . S
C1111 C1109 1.390 . S
C1111 C1112 1.387 . S
C1111 H1114 0.950 . S
C1112 C1111 1.387 . S
C1112 C1115 1.387 . S
H1113 C1109 0.950 . S
H1114 C1111 0.950 . S
C1115 C1106 1.390 . S
C1115 H1108 0.950 . S
C1115 C1112 1.387 . S
C1116 C1117 1.387 . S
C1116 H1120 0.950 . S
C1116 C1125 1.390 . S
C1117 C1116 1.387 . S
C1117 C1119 1.387 . S
H1118 C1125 0.950 . S
C1119 C1117 1.387 . S
C1119 C1121 1.390 . S
C1119 H1123 0.950 . S
H1120 C1116 0.950 . S
C1121 C1119 1.390 . S
C1121 C1122 1.387 . S
C1121 H1124 0.950 . S
C1122 C1121 1.387 . S
C1122 C1125 1.387 . S
H1123 C1119 0.950 . S
H1124 C1121 0.950 . S
C1125 C1116 1.390 . S
C1125 H1118 0.950 . S
C1125 C1122 1.387 . S
C1126 C1127 1.387 . S
C1126 H1130 0.950 . S
C1126 C1135 1.390 . S
C1127 C1126 1.387 . S
C1127 C1129 1.387 . S
H1128 C1135 0.950 . S
C1129 C1127 1.387 . S
C1129 C1131 1.390 . S
C1129 H1133 0.950 . S
H1130 C1126 0.950 . S
C1131 C1129 1.390 . S
C1131 C1132 1.387 . S
C1131 H1134 0.950 . S
C1132 C1131 1.387 . S
C1132 C1135 1.387 . S
H1133 C1129 0.950 . S
H1134 C1131 0.950 . S
C1135 C1126 1.390 . S
C1135 H1128 0.950 . S
C1135 C1132 1.387 . S
C1136 C1137 1.387 . S
C1136 H1140 0.950 . S
C1136 C1145 1.390 . S
C1137 C1136 1.387 . S
C1137 C1139 1.387 . S
H1138 C1145 0.950 . S
C1139 C1137 1.387 . S
C1139 C1141 1.390 . S
C1139 H1143 0.950 . S
H1140 C1136 0.950 . S
C1141 C1139 1.390 . S
C1141 C1142 1.387 . S
C1141 H1144 0.950 . S
C1142 C1141 1.387 . S
C1142 C1145 1.387 . S
H1143 C1139 0.950 . S
H1144 C1141 0.950 . S
C1145 C1136 1.390 . S
C1145 H1138 0.950 . S
C1145 C1142 1.387 . S
C1146 C1147 1.387 . S
C1146 H1150 0.950 . S
C1146 C1155 1.390 . S
C1147 C1146 1.387 . S
C1147 C1149 1.387 . S
H1148 C1155 0.950 . S
C1149 C1147 1.387 . S
C1149 C1151 1.390 . S
C1149 H1153 0.950 . S
H1150 C1146 0.950 . S
C1151 C1149 1.390 . S
C1151 C1152 1.387 . S
C1151 H1154 0.950 . S
C1152 C1151 1.387 . S
C1152 C1155 1.387 . S
H1153 C1149 0.950 . S
H1154 C1151 0.950 . S
C1155 C1146 1.390 . S
C1155 H1148 0.950 . S
C1155 C1152 1.387 . S
C1156 C1157 1.387 . S
C1156 H1160 0.950 . S
C1156 C1165 1.390 . S
C1157 C1156 1.387 . S
C1157 C1159 1.387 . S
H1158 C1165 0.950 . S
C1159 C1157 1.387 . S
C1159 C1161 1.390 . S
C1159 H1163 0.950 . S
H1160 C1156 0.950 . S
C1161 C1159 1.390 . S
C1161 C1162 1.387 . S
C1161 H1164 0.950 . S
C1162 C1161 1.387 . S
C1162 C1165 1.387 . S
H1163 C1159 0.950 . S
H1164 C1161 0.950 . S
C1165 C1156 1.390 . S
C1165 H1158 0.950 . S
C1165 C1162 1.387 . S
C1166 C1167 1.387 . S
C1166 H1170 0.950 . S
C1166 C1175 1.390 . S
C1167 C1166 1.387 . S
C1167 C1169 1.387 . S
H1168 C1175 0.950 . S
C1169 C1167 1.387 . S
C1169 C1171 1.390 . S
C1169 H1173 0.950 . S
H1170 C1166 0.950 . S
C1171 C1169 1.390 . S
C1171 C1172 1.387 . S
C1171 H1174 0.950 . S
C1172 C1171 1.387 . S
C1172 C1175 1.387 . S
H1173 C1169 0.950 . S
H1174 C1171 0.950 . S
C1175 C1166 1.390 . S
C1175 H1168 0.950 . S
C1175 C1172 1.387 . S
C1176 C1177 1.387 . S
C1176 H1180 0.950 . S
C1176 C1185 1.390 1_565 S
C1177 C1176 1.387 . S
C1177 C1179 1.387 . S
H1178 C1185 0.950 . S
C1179 C1177 1.387 . S
C1179 C1181 1.390 1_565 S
C1179 H1183 0.950 . S
H1180 C1176 0.950 . S
C1181 C1179 1.390 1_545 S
C1181 C1182 1.387 . S
C1181 H1184 0.950 . S
C1182 C1181 1.387 . S
C1182 C1185 1.387 . S
H1183 C1179 0.950 . S
H1184 C1181 0.950 . S
C1185 C1176 1.390 1_545 S
C1185 H1178 0.950 . S
C1185 C1182 1.387 . S
C1186 C1187 1.387 . S
C1186 H1190 0.950 . S
C1186 C1195 1.390 1_455 S
C1187 C1186 1.387 . S
C1187 C1189 1.387 . S
H1188 C1195 0.950 . S
C1189 C1187 1.387 . S
C1189 C1191 1.390 1_455 S
C1189 H1193 0.950 . S
H1190 C1186 0.950 . S
C1191 C1189 1.390 1_655 S
C1191 C1192 1.387 . S
C1191 H1194 0.950 . S
C1192 C1191 1.387 . S
C1192 C1195 1.387 . S
H1193 C1189 0.950 . S
H1194 C1191 0.950 . S
C1195 C1186 1.390 1_655 S
C1195 H1188 0.950 . S
C1195 C1192 1.387 . S
C1196 C1197 1.387 . S
C1196 H1200 0.950 . S
C1196 C1205 1.390 . S
C1197 C1196 1.387 . S
C1197 C1199 1.387 . S
H1198 C1205 0.950 . S
C1199 C1197 1.387 . S
C1199 C1201 1.390 . S
C1199 H1203 0.950 . S
H1200 C1196 0.950 . S
C1201 C1199 1.390 . S
C1201 C1202 1.387 . S
C1201 H1204 0.950 . S
C1202 C1201 1.387 . S
C1202 C1205 1.387 . S
H1203 C1199 0.950 . S
H1204 C1201 0.950 . S
C1205 C1196 1.390 . S
C1205 H1198 0.950 . S
C1205 C1202 1.387 . S
C1206 C1207 1.387 . S
C1206 H1210 0.950 . S
C1206 C1215 1.390 . S
C1207 C1206 1.387 . S
C1207 C1209 1.387 . S
H1208 C1215 0.950 . S
C1209 C1207 1.387 . S
C1209 C1211 1.390 . S
C1209 H1213 0.950 . S
H1210 C1206 0.950 . S
C1211 C1209 1.390 . S
C1211 C1212 1.387 . S
C1211 H1214 0.950 . S
C1212 C1211 1.387 . S
C1212 C1215 1.387 . S
H1213 C1209 0.950 . S
H1214 C1211 0.950 . S
C1215 C1206 1.390 . S
C1215 H1208 0.950 . S
C1215 C1212 1.387 . S
C1216 C1217 1.387 . S
C1216 H1220 0.950 . S
C1216 C1225 1.390 . S
C1217 C1216 1.387 . S
C1217 C1219 1.387 . S
H1218 C1225 0.950 . S
C1219 C1217 1.387 . S
C1219 C1221 1.390 . S
C1219 H1223 0.950 . S
H1220 C1216 0.950 . S
C1221 C1219 1.390 . S
C1221 C1222 1.387 . S
C1221 H1224 0.950 . S
C1222 C1221 1.387 . S
C1222 C1225 1.387 . S
H1223 C1219 0.950 . S
H1224 C1221 0.950 . S
C1225 C1216 1.390 . S
C1225 H1218 0.950 . S
C1225 C1222 1.387 . S
C1226 C1227 1.387 . S
C1226 H1230 0.950 . S
C1226 C1235 1.390 . S
C1227 C1226 1.387 . S
C1227 C1229 1.387 . S
H1228 C1235 0.950 . S
C1229 C1227 1.387 . S
C1229 C1231 1.390 . S
C1229 H1233 0.950 . S
H1230 C1226 0.950 . S
C1231 C1229 1.390 . S
C1231 C1232 1.387 . S
C1231 H1234 0.950 . S
C1232 C1231 1.387 . S
C1232 C1235 1.387 . S
H1233 C1229 0.950 . S
H1234 C1231 0.950 . S
C1235 C1226 1.390 . S
C1235 H1228 0.950 . S
C1235 C1232 1.387 . S
C1236 C1237 1.387 . S
C1236 H1240 0.950 . S
C1236 C1245 1.390 1_545 S
C1237 C1236 1.387 . S
C1237 C1239 1.387 . S
H1238 C1245 0.950 . S
C1239 C1237 1.387 . S
C1239 C1241 1.390 1_545 S
C1239 H1243 0.950 . S
H1240 C1236 0.950 . S
C1241 C1239 1.390 1_565 S
C1241 C1242 1.387 . S
C1241 H1244 0.950 . S
C1242 C1241 1.387 . S
C1242 C1245 1.387 . S
H1243 C1239 0.950 . S
H1244 C1241 0.950 . S
C1245 C1236 1.390 1_565 S
C1245 H1238 0.950 . S
C1245 C1242 1.387 . S
C1246 C1247 1.387 . S
C1246 H1250 0.950 . S
C1246 C1255 1.390 1_455 S
C1247 C1246 1.387 . S
C1247 C1249 1.387 . S
H1248 C1255 0.950 . S
C1249 C1247 1.387 . S
C1249 C1251 1.390 1_455 S
C1249 H1253 0.950 . S
H1250 C1246 0.950 . S
C1251 C1249 1.390 1_655 S
C1251 C1252 1.387 . S
C1251 H1254 0.950 . S
C1252 C1251 1.387 . S
C1252 C1255 1.387 . S
H1253 C1249 0.950 . S
H1254 C1251 0.950 . S
C1255 C1246 1.390 1_655 S
C1255 H1248 0.950 . S
C1255 C1252 1.387 . S
C1256 C1257 1.387 . S
C1256 H1260 0.950 . S
C1256 C1265 1.390 1_554 S
C1257 C1256 1.387 . S
C1257 C1259 1.387 . S
H1258 C1265 0.950 . S
C1259 C1257 1.387 . S
C1259 C1261 1.390 1_554 S
C1259 H1263 0.950 . S
H1260 C1256 0.950 . S
C1261 C1259 1.390 1_556 S
C1261 C1262 1.387 . S
C1261 H1264 0.950 . S
C1262 C1261 1.387 . S
C1262 C1265 1.387 . S
H1263 C1259 0.950 . S
H1264 C1261 0.950 . S
C1265 C1256 1.390 1_556 S
C1265 H1258 0.950 . S
C1265 C1262 1.387 . S
C1266 C1267 1.387 . S
C1266 H1270 0.950 . S
C1266 C1275 1.390 . S
C1267 C1266 1.387 . S
C1267 C1269 1.387 . S
H1268 C1275 0.950 . S
C1269 C1267 1.387 . S
C1269 C1271 1.390 . S
C1269 H1273 0.950 . S
H1270 C1266 0.950 . S
C1271 C1269 1.390 . S
C1271 C1272 1.387 . S
C1271 H1274 0.950 . S
C1272 C1271 1.387 . S
C1272 C1275 1.387 . S
H1273 C1269 0.950 . S
H1274 C1271 0.950 . S
C1275 C1266 1.390 . S
C1275 H1268 0.950 . S
C1275 C1272 1.387 . S
C1276 C1277 1.387 . S
C1276 H1280 0.950 . S
C1276 C1285 1.390 1_556 S
C1277 C1276 1.387 . S
C1277 C1279 1.387 . S
H1278 C1285 0.950 . S
C1279 C1277 1.387 . S
C1279 C1281 1.390 1_556 S
C1279 H1283 0.950 . S
H1280 C1276 0.950 . S
C1281 C1279 1.390 1_554 S
C1281 C1282 1.387 . S
C1281 H1284 0.950 . S
C1282 C1281 1.387 . S
C1282 C1285 1.387 . S
H1283 C1279 0.950 . S
H1284 C1281 0.950 . S
C1285 C1276 1.390 1_554 S
C1285 H1278 0.950 . S
C1285 C1282 1.387 . S
C1286 C1287 1.387 . S
C1286 H1290 0.950 . S
C1286 C1295 1.390 . S
C1287 C1286 1.387 . S
C1287 C1289 1.387 . S
H1288 C1295 0.950 . S
C1289 C1287 1.387 . S
C1289 C1291 1.390 . S
C1289 H1293 0.950 . S
H1290 C1286 0.950 . S
C1291 C1289 1.390 . S
C1291 C1292 1.387 . S
C1291 H1294 0.950 . S
C1292 C1291 1.387 . S
C1292 C1295 1.387 . S
H1293 C1289 0.950 . S
H1294 C1291 0.950 . S
C1295 C1286 1.390 . S
C1295 H1288 0.950 . S
C1295 C1292 1.387 . S
C1296 C1297 1.387 . S
C1296 H1300 0.950 . S
C1296 C1305 1.390 1_565 S
C1297 C1296 1.387 . S
C1297 C1299 1.387 . S
H1298 C1305 0.950 . S
C1299 C1297 1.387 . S
C1299 C1301 1.390 1_565 S
C1299 H1303 0.950 . S
H1300 C1296 0.950 . S
C1301 C1299 1.390 1_545 S
C1301 C1302 1.387 . S
C1301 H1304 0.950 . S
C1302 C1301 1.387 . S
C1302 C1305 1.387 . S
H1303 C1299 0.950 . S
H1304 C1301 0.950 . S
C1305 C1296 1.390 1_545 S
C1305 H1298 0.950 . S
C1305 C1302 1.387 . S
C1306 C1307 1.387 . S
C1306 H1310 0.950 . S
C1306 C1315 1.390 1_455 S
C1307 C1306 1.387 . S
C1307 C1309 1.387 . S
H1308 C1315 0.950 . S
C1309 C1307 1.387 . S
C1309 C1311 1.390 1_455 S
C1309 H1313 0.950 . S
H1310 C1306 0.950 . S
C1311 C1309 1.390 1_655 S
C1311 C1312 1.387 . S
C1311 H1314 0.950 . S
C1312 C1311 1.387 . S
C1312 C1315 1.387 . S
H1313 C1309 0.950 . S
H1314 C1311 0.950 . S
C1315 C1306 1.390 1_655 S
C1315 H1308 0.950 . S
C1315 C1312 1.387 . S
C1316 C1317 1.387 . S
C1316 H1320 0.950 . S
C1316 C1325 1.390 . S
C1317 C1316 1.387 . S
C1317 C1319 1.387 . S
H1318 C1325 0.950 . S
C1319 C1317 1.387 . S
C1319 C1321 1.390 . S
C1319 H1323 0.950 . S
H1320 C1316 0.950 . S
C1321 C1319 1.390 . S
C1321 C1322 1.387 . S
C1321 H1324 0.950 . S
C1322 C1321 1.387 . S
C1322 C1325 1.387 . S
H1323 C1319 0.950 . S
H1324 C1321 0.950 . S
C1325 C1316 1.390 . S
C1325 H1318 0.950 . S
C1325 C1322 1.387 . S
C1326 C1327 1.387 . S
C1326 H1330 0.950 . S
C1326 C1335 1.390 . S
C1327 C1326 1.387 . S
C1327 C1329 1.387 . S
H1328 C1335 0.950 . S
C1329 C1327 1.387 . S
C1329 C1331 1.390 . S
C1329 H1333 0.950 . S
H1330 C1326 0.950 . S
C1331 C1329 1.390 . S
C1331 C1332 1.387 . S
C1331 H1334 0.950 . S
C1332 C1331 1.387 . S
C1332 C1335 1.387 . S
H1333 C1329 0.950 . S
H1334 C1331 0.950 . S
C1335 C1326 1.390 . S
C1335 H1328 0.950 . S
C1335 C1332 1.387 . S
C1336 C1337 1.387 . S
C1336 H1340 0.950 . S
C1336 C1345 1.390 . S
C1337 C1336 1.387 . S
C1337 C1339 1.387 . S
H1338 C1345 0.950 . S
C1339 C1337 1.387 . S
C1339 C1341 1.390 . S
C1339 H1343 0.950 . S
H1340 C1336 0.950 . S
C1341 C1339 1.390 . S
C1341 C1342 1.387 . S
C1341 H1344 0.950 . S
C1342 C1341 1.387 . S
C1342 C1345 1.387 . S
H1343 C1339 0.950 . S
H1344 C1341 0.950 . S
C1345 C1336 1.390 . S
C1345 H1338 0.950 . S
C1345 C1342 1.387 . S
C1346 C1347 1.387 . S
C1346 H1350 0.950 . S
C1346 C1355 1.390 . S
C1347 C1346 1.387 . S
C1347 C1349 1.387 . S
H1348 C1355 0.950 . S
C1349 C1347 1.387 . S
C1349 C1351 1.390 . S
C1349 H1353 0.950 . S
H1350 C1346 0.950 . S
C1351 C1349 1.390 . S
C1351 C1352 1.387 . S
C1351 H1354 0.950 . S
C1352 C1351 1.387 . S
C1352 C1355 1.387 . S
H1353 C1349 0.950 . S
H1354 C1351 0.950 . S
C1355 C1346 1.390 . S
C1355 H1348 0.950 . S
C1355 C1352 1.387 . S
C1356 C1357 1.387 . S
C1356 H1360 0.950 . S
C1356 C1365 1.390 1_545 S
C1357 C1356 1.387 . S
C1357 C1359 1.387 . S
H1358 C1365 0.950 . S
C1359 C1357 1.387 . S
C1359 C1361 1.390 1_545 S
C1359 H1363 0.950 . S
H1360 C1356 0.950 . S
C1361 C1359 1.390 1_565 S
C1361 C1362 1.387 . S
C1361 H1364 0.950 . S
C1362 C1361 1.387 . S
C1362 C1365 1.387 . S
H1363 C1359 0.950 . S
H1364 C1361 0.950 . S
C1365 C1356 1.390 1_565 S
C1365 H1358 0.950 . S
C1365 C1362 1.387 . S
C1366 C1367 1.387 . S
C1366 H1370 0.950 . S
C1366 C1375 1.390 1_655 S
C1367 C1366 1.387 . S
C1367 C1369 1.387 . S
H1368 C1375 0.950 . S
C1369 C1367 1.387 . S
C1369 C1371 1.390 1_655 S
C1369 H1373 0.950 . S
H1370 C1366 0.950 . S
C1371 C1369 1.390 1_455 S
C1371 C1372 1.387 . S
C1371 H1374 0.950 . S
C1372 C1371 1.387 . S
C1372 C1375 1.387 . S
H1373 C1369 0.950 . S
H1374 C1371 0.950 . S
C1375 C1366 1.390 1_455 S
C1375 H1368 0.950 . S
C1375 C1372 1.387 . S
C1376 C1377 1.387 . S
C1376 H1380 0.950 . S
C1376 C1385 1.390 1_554 S
C1377 C1376 1.387 . S
C1377 C1379 1.387 . S
H1378 C1385 0.950 . S
C1379 C1377 1.387 . S
C1379 C1381 1.390 1_554 S
C1379 H1383 0.950 . S
H1380 C1376 0.950 . S
C1381 C1379 1.390 1_556 S
C1381 C1382 1.387 . S
C1381 H1384 0.950 . S
C1382 C1381 1.387 . S
C1382 C1385 1.387 . S
H1383 C1379 0.950 . S
H1384 C1381 0.950 . S
C1385 C1376 1.390 1_556 S
C1385 H1378 0.950 . S
C1385 C1382 1.387 . S
C1386 C1387 1.387 . S
C1386 H1390 0.950 . S
C1386 C1395 1.390 . S
C1387 C1386 1.387 . S
C1387 C1389 1.387 . S
H1388 C1395 0.950 . S
C1389 C1387 1.387 . S
C1389 C1391 1.390 . S
C1389 H1393 0.950 . S
H1390 C1386 0.950 . S
C1391 C1389 1.390 . S
C1391 C1392 1.387 . S
C1391 H1394 0.950 . S
C1392 C1391 1.387 . S
C1392 C1395 1.387 . S
H1393 C1389 0.950 . S
H1394 C1391 0.950 . S
C1395 C1386 1.390 . S
C1395 H1388 0.950 . S
C1395 C1392 1.387 . S
C1396 C1397 1.390 . S
C1396 H1400 0.950 . S
C1396 C1405 1.388 1_556 S
C1397 C1396 1.390 . S
C1397 C1399 1.387 . S
H1398 C1405 0.950 . S
C1399 C1397 1.387 . S
C1399 C1401 1.388 1_556 S
C1399 H1403 0.950 . S
H1400 C1396 0.950 . S
C1401 C1399 1.388 1_554 S
C1401 C1402 1.390 . S
C1401 H1404 0.950 . S
C1402 C1401 1.390 . S
C1402 C1405 1.387 . S
H1403 C1399 0.950 . S
H1404 C1401 0.950 . S
C1405 C1396 1.388 1_554 S
C1405 H1398 0.950 . S
C1405 C1402 1.387 . S
C1406 C1407 1.387 . S
C1406 H1410 0.950 . S
C1406 C1415 1.390 . S
C1407 C1406 1.387 . S
C1407 C1409 1.387 . S
H1408 C1415 0.950 . S
C1409 C1407 1.387 . S
C1409 C1411 1.390 . S
C1409 H1413 0.950 . S
H1410 C1406 0.950 . S
C1411 C1409 1.390 . S
C1411 C1412 1.387 . S
C1411 H1414 0.950 . S
C1412 C1411 1.387 . S
C1412 C1415 1.387 . S
H1413 C1409 0.950 . S
H1414 C1411 0.950 . S
C1415 C1406 1.390 . S
C1415 H1408 0.950 . S
C1415 C1412 1.387 . S
C817 C101 2.039 . S
C822 C33 2.039 . S
C827 C67 2.039 . S
C832 C135 2.039 . S
C837 C169 2.039 . S
C842 C237 2.039 . S
C847 C271 2.039 . S
C852 C203 2.039 . S
C857 C441 2.039 . S
C862 C305 2.039 . S
C867 C339 2.039 . S
C872 C475 2.039 . S
C877 C509 2.039 . S
C882 C373 2.039 . S
C887 C543 2.039 . S
C892 C407 2.039 . S
C897 C577 2.039 . S
C902 C679 2.039 . S
C907 C611 2.039 . S
C912 C747 2.039 . S
C917 C645 2.039 . S
C922 C781 2.039 . S
C927 C815 2.039 . S
C932 C713 2.039 . S
C937 C138 1.805 . S
C942 C2 1.805 . S
C947 C172 1.805 . S
C952 C36 1.805 . S
C957 C206 1.805 . S
C962 C70 1.805 . S
C967 C240 1.805 . S
C972 C104 1.805 . S
C977 C274 1.805 . S
C982 C478 1.805 . S
C987 C512 1.805 . S
C992 C308 1.805 . S
C997 C410 1.805 . S
C1002 C342 1.805 . S
C1007 C444 1.805 . S
C1012 C376 1.805 . S
C1017 C716 1.805 . S
C1022 C546 1.805 . S
C1027 C580 1.805 . S
C1032 C648 1.805 . S
C1037 C614 1.805 . S
C1042 C682 1.805 . S
C1047 C784 1.805 . S
C1052 C750 1.805 . S
C1057 C243 0.867 . S
C1062 C39 0.867 . S
C1067 C73 0.857 . S
C1072 C141 0.857 . S
C1077 C175 0.857 . S
C1082 C107 0.857 . S
C1087 C209 0.857 . S
C1092 C5 0.857 . S
C1097 C753 0.857 . S
C1102 C685 0.857 . S
C1107 C549 0.867 . S
C1112 C583 0.867 . S
C1117 C617 0.857 . S
C1122 C787 0.857 . S
C1127 C719 0.857 . S
C1132 C651 0.857 . S
C1137 C447 0.857 . S
C1142 C515 0.857 . S
C1147 C311 0.857 . S
C1152 C379 0.857 . S
C1157 C345 0.857 . S
C1162 C277 0.857 . S
C1167 C413 0.857 . S
C1172 C481 0.857 . S
C1177 C768 2.319 . S
C1182 C20 2.319 . S
C1187 C564 2.319 . S
C1192 C54 2.319 . S
C1197 C802 2.319 . S
C1202 C88 2.319 . S
C1207 C734 2.318 . S
C1212 C122 2.318 . S
C1217 C156 2.319 . S
C1222 C632 2.318 . S
C1227 C190 2.319 . S
C1232 C666 2.319 . S
C1237 C224 2.319 . S
C1242 C700 2.319 . S
C1247 C598 2.318 . S
C1252 C258 2.318 . S
C1257 C292 2.319 . S
C1262 C462 2.319 . S
C1267 C496 2.319 . S
C1272 C326 2.319 . S
C1277 C530 2.319 . S
C1282 C360 2.318 . S
C1287 C428 2.319 . S
C1292 C394 2.318 . S
C1297 C247 1.677 . S
C1302 C485 1.677 . S
C1307 C145 1.679 . S
C1312 C519 1.679 . S
C1317 C417 1.678 . S
C1322 C179 1.678 . S
C1327 C451 1.677 . S
C1332 C213 1.678 . S
C1337 C43 1.677 . S
C1342 C349 1.677 . S
C1347 C383 1.679 . S
C1352 C77 1.679 . S
C1357 C281 1.679 . S
C1362 C111 1.679 . S
C1367 C315 1.677 . S
C1372 C9 1.677 . S
C1377 C723 1.679 . S
C1382 C689 1.679 . S
C1387 C757 1.677 . S
C1392 C587 1.677 . S
C1397 C621 1.678 . S
C1402 C553 1.677 . S
C1407 C791 1.679 . S
C1412 C655 1.679 . S
