# Generated by pormake.
# Topology ull, (4)-cn, num edge types: 1
# Building blocks:
#     Node 0, Type 0, BuildingBlock: QUQFOY_clean_sbu_3, # of connection points: 4
#     Node 1, Type 0, BuildingBlock: QUQFOY_clean_sbu_3, # of connection points: 4
#     Node 2, Type 0, BuildingBlock: QUQFOY_clean_sbu_3, # of connection points: 4
#     Node 3, Type 0, BuildingBlock: QUQFOY_clean_sbu_3, # of connection points: 4
#     Node 4, Type 0, BuildingBlock: QUQFOY_clean_sbu_3, # of connection points: 4
#     Node 5, Type 0, BuildingBlock: QUQFOY_clean_sbu_3, # of connection points: 4
#     Node 6, Type 0, BuildingBlock: QUQFOY_clean_sbu_3, # of connection points: 4
#     Node 7, Type 0, BuildingBlock: QUQFOY_clean_sbu_3, # of connection points: 4
#     Node 8, Type 0, BuildingBlock: QUQFOY_clean_sbu_3, # of connection points: 4
#     Node 9, Type 0, BuildingBlock: QUQFOY_clean_sbu_3, # of connection points: 4
#     Node 10, Type 0, BuildingBlock: QUQFOY_clean_sbu_3, # of connection points: 4
#     Node 11, Type 0, BuildingBlock: QUQFOY_clean_sbu_3, # of connection points: 4
#     Node 12, Type 0, BuildingBlock: QUQFOY_clean_sbu_3, # of connection points: 4
#     Node 13, Type 0, BuildingBlock: QUQFOY_clean_sbu_3, # of connection points: 4
#     Node 14, Type 0, BuildingBlock: QUQFOY_clean_sbu_3, # of connection points: 4
#     Node 15, Type 0, BuildingBlock: QUQFOY_clean_sbu_3, # of connection points: 4
#     Node 16, Type 0, BuildingBlock: QUQFOY_clean_sbu_3, # of connection points: 4
#     Node 17, Type 0, BuildingBlock: QUQFOY_clean_sbu_3, # of connection points: 4
#     Node 18, Type 0, BuildingBlock: QUQFOY_clean_sbu_3, # of connection points: 4
#     Node 19, Type 0, BuildingBlock: QUQFOY_clean_sbu_3, # of connection points: 4
#     Node 20, Type 0, BuildingBlock: QUQFOY_clean_sbu_3, # of connection points: 4
#     Node 21, Type 0, BuildingBlock: QUQFOY_clean_sbu_3, # of connection points: 4
#     Node 22, Type 0, BuildingBlock: QUQFOY_clean_sbu_3, # of connection points: 4
#     Node 23, Type 0, BuildingBlock: QUQFOY_clean_sbu_3, # of connection points: 4
#     Node 24, Type 0, BuildingBlock: QUQFOY_clean_sbu_3, # of connection points: 4
#     Node 25, Type 0, BuildingBlock: QUQFOY_clean_sbu_3, # of connection points: 4
#     Node 26, Type 0, BuildingBlock: QUQFOY_clean_sbu_3, # of connection points: 4
#     Node 27, Type 0, BuildingBlock: QUQFOY_clean_sbu_3, # of connection points: 4
#     Node 28, Type 0, BuildingBlock: QUQFOY_clean_sbu_3, # of connection points: 4
#     Node 29, Type 0, BuildingBlock: QUQFOY_clean_sbu_3, # of connection points: 4
#     Node 30, Type 0, BuildingBlock: QUQFOY_clean_sbu_3, # of connection points: 4
#     Node 31, Type 0, BuildingBlock: QUQFOY_clean_sbu_3, # of connection points: 4
#     Node 32, Type 0, BuildingBlock: QUQFOY_clean_sbu_3, # of connection points: 4
#     Node 33, Type 0, BuildingBlock: QUQFOY_clean_sbu_3, # of connection points: 4
#     Node 34, Type 0, BuildingBlock: QUQFOY_clean_sbu_3, # of connection points: 4
#     Node 35, Type 0, BuildingBlock: QUQFOY_clean_sbu_3, # of connection points: 4
#     Node 36, Type 0, BuildingBlock: QUQFOY_clean_sbu_3, # of connection points: 4
#     Node 37, Type 0, BuildingBlock: QUQFOY_clean_sbu_3, # of connection points: 4
#     Node 38, Type 0, BuildingBlock: QUQFOY_clean_sbu_3, # of connection points: 4
#     Node 39, Type 0, BuildingBlock: QUQFOY_clean_sbu_3, # of connection points: 4
#     Node 40, Type 0, BuildingBlock: QUQFOY_clean_sbu_3, # of connection points: 4
#     Node 41, Type 0, BuildingBlock: QUQFOY_clean_sbu_3, # of connection points: 4
#     Node 42, Type 0, BuildingBlock: QUQFOY_clean_sbu_3, # of connection points: 4
#     Node 43, Type 0, BuildingBlock: QUQFOY_clean_sbu_3, # of connection points: 4
#     Node 44, Type 0, BuildingBlock: QUQFOY_clean_sbu_3, # of connection points: 4
#     Node 45, Type 0, BuildingBlock: QUQFOY_clean_sbu_3, # of connection points: 4
#     Node 46, Type 0, BuildingBlock: QUQFOY_clean_sbu_3, # of connection points: 4
#     Node 47, Type 0, BuildingBlock: QUQFOY_clean_sbu_3, # of connection points: 4
#     Edge 48, Type (0, 0), BuildingBlock: UVAHIK_clean_linker_0, # of connection points: 2
#     Edge 49, Type (0, 0), BuildingBlock: UVAHIK_clean_linker_0, # of connection points: 2
#     Edge 50, Type (0, 0), BuildingBlock: UVAHIK_clean_linker_0, # of connection points: 2
#     Edge 51, Type (0, 0), BuildingBlock: UVAHIK_clean_linker_0, # of connection points: 2
#     Edge 52, Type (0, 0), BuildingBlock: UVAHIK_clean_linker_0, # of connection points: 2
#     Edge 53, Type (0, 0), BuildingBlock: UVAHIK_clean_linker_0, # of connection points: 2
#     Edge 54, Type (0, 0), BuildingBlock: UVAHIK_clean_linker_0, # of connection points: 2
#     Edge 55, Type (0, 0), BuildingBlock: UVAHIK_clean_linker_0, # of connection points: 2
#     Edge 56, Type (0, 0), BuildingBlock: UVAHIK_clean_linker_0, # of connection points: 2
#     Edge 57, Type (0, 0), BuildingBlock: UVAHIK_clean_linker_0, # of connection points: 2
#     Edge 58, Type (0, 0), BuildingBlock: UVAHIK_clean_linker_0, # of connection points: 2
#     Edge 59, Type (0, 0), BuildingBlock: UVAHIK_clean_linker_0, # of connection points: 2
#     Edge 60, Type (0, 0), BuildingBlock: UVAHIK_clean_linker_0, # of connection points: 2
#     Edge 61, Type (0, 0), BuildingBlock: UVAHIK_clean_linker_0, # of connection points: 2
#     Edge 62, Type (0, 0), BuildingBlock: UVAHIK_clean_linker_0, # of connection points: 2
#     Edge 63, Type (0, 0), BuildingBlock: UVAHIK_clean_linker_0, # of connection points: 2
#     Edge 64, Type (0, 0), BuildingBlock: UVAHIK_clean_linker_0, # of connection points: 2
#     Edge 65, Type (0, 0), BuildingBlock: UVAHIK_clean_linker_0, # of connection points: 2
#     Edge 66, Type (0, 0), BuildingBlock: UVAHIK_clean_linker_0, # of connection points: 2
#     Edge 67, Type (0, 0), BuildingBlock: UVAHIK_clean_linker_0, # of connection points: 2
#     Edge 68, Type (0, 0), BuildingBlock: UVAHIK_clean_linker_0, # of connection points: 2
#     Edge 69, Type (0, 0), BuildingBlock: UVAHIK_clean_linker_0, # of connection points: 2
#     Edge 70, Type (0, 0), BuildingBlock: UVAHIK_clean_linker_0, # of connection points: 2
#     Edge 71, Type (0, 0), BuildingBlock: UVAHIK_clean_linker_0, # of connection points: 2
#     Edge 72, Type (0, 0), BuildingBlock: UVAHIK_clean_linker_0, # of connection points: 2
#     Edge 73, Type (0, 0), BuildingBlock: UVAHIK_clean_linker_0, # of connection points: 2
#     Edge 74, Type (0, 0), BuildingBlock: UVAHIK_clean_linker_0, # of connection points: 2
#     Edge 75, Type (0, 0), BuildingBlock: UVAHIK_clean_linker_0, # of connection points: 2
#     Edge 76, Type (0, 0), BuildingBlock: UVAHIK_clean_linker_0, # of connection points: 2
#     Edge 77, Type (0, 0), BuildingBlock: UVAHIK_clean_linker_0, # of connection points: 2
#     Edge 78, Type (0, 0), BuildingBlock: UVAHIK_clean_linker_0, # of connection points: 2
#     Edge 79, Type (0, 0), BuildingBlock: UVAHIK_clean_linker_0, # of connection points: 2
#     Edge 80, Type (0, 0), BuildingBlock: UVAHIK_clean_linker_0, # of connection points: 2
#     Edge 81, Type (0, 0), BuildingBlock: UVAHIK_clean_linker_0, # of connection points: 2
#     Edge 82, Type (0, 0), BuildingBlock: UVAHIK_clean_linker_0, # of connection points: 2
#     Edge 83, Type (0, 0), BuildingBlock: UVAHIK_clean_linker_0, # of connection points: 2
#     Edge 84, Type (0, 0), BuildingBlock: UVAHIK_clean_linker_0, # of connection points: 2
#     Edge 85, Type (0, 0), BuildingBlock: UVAHIK_clean_linker_0, # of connection points: 2
#     Edge 86, Type (0, 0), BuildingBlock: UVAHIK_clean_linker_0, # of connection points: 2
#     Edge 87, Type (0, 0), BuildingBlock: UVAHIK_clean_linker_0, # of connection points: 2
#     Edge 88, Type (0, 0), BuildingBlock: UVAHIK_clean_linker_0, # of connection points: 2
#     Edge 89, Type (0, 0), BuildingBlock: UVAHIK_clean_linker_0, # of connection points: 2
#     Edge 90, Type (0, 0), BuildingBlock: UVAHIK_clean_linker_0, # of connection points: 2
#     Edge 91, Type (0, 0), BuildingBlock: UVAHIK_clean_linker_0, # of connection points: 2
#     Edge 92, Type (0, 0), BuildingBlock: UVAHIK_clean_linker_0, # of connection points: 2
#     Edge 93, Type (0, 0), BuildingBlock: UVAHIK_clean_linker_0, # of connection points: 2
#     Edge 94, Type (0, 0), BuildingBlock: UVAHIK_clean_linker_0, # of connection points: 2
#     Edge 95, Type (0, 0), BuildingBlock: UVAHIK_clean_linker_0, # of connection points: 2
#     Edge 96, Type (0, 0), BuildingBlock: UVAHIK_clean_linker_0, # of connection points: 2
#     Edge 97, Type (0, 0), BuildingBlock: UVAHIK_clean_linker_0, # of connection points: 2
#     Edge 98, Type (0, 0), BuildingBlock: UVAHIK_clean_linker_0, # of connection points: 2
#     Edge 99, Type (0, 0), BuildingBlock: UVAHIK_clean_linker_0, # of connection points: 2
#     Edge 100, Type (0, 0), BuildingBlock: UVAHIK_clean_linker_0, # of connection points: 2
#     Edge 101, Type (0, 0), BuildingBlock: UVAHIK_clean_linker_0, # of connection points: 2
#     Edge 102, Type (0, 0), BuildingBlock: UVAHIK_clean_linker_0, # of connection points: 2
#     Edge 103, Type (0, 0), BuildingBlock: UVAHIK_clean_linker_0, # of connection points: 2
#     Edge 104, Type (0, 0), BuildingBlock: UVAHIK_clean_linker_0, # of connection points: 2
#     Edge 105, Type (0, 0), BuildingBlock: UVAHIK_clean_linker_0, # of connection points: 2
#     Edge 106, Type (0, 0), BuildingBlock: UVAHIK_clean_linker_0, # of connection points: 2
#     Edge 107, Type (0, 0), BuildingBlock: UVAHIK_clean_linker_0, # of connection points: 2
#     Edge 108, Type (0, 0), BuildingBlock: UVAHIK_clean_linker_0, # of connection points: 2
#     Edge 109, Type (0, 0), BuildingBlock: UVAHIK_clean_linker_0, # of connection points: 2
#     Edge 110, Type (0, 0), BuildingBlock: UVAHIK_clean_linker_0, # of connection points: 2
#     Edge 111, Type (0, 0), BuildingBlock: UVAHIK_clean_linker_0, # of connection points: 2
#     Edge 112, Type (0, 0), BuildingBlock: UVAHIK_clean_linker_0, # of connection points: 2
#     Edge 113, Type (0, 0), BuildingBlock: UVAHIK_clean_linker_0, # of connection points: 2
#     Edge 114, Type (0, 0), BuildingBlock: UVAHIK_clean_linker_0, # of connection points: 2
#     Edge 115, Type (0, 0), BuildingBlock: UVAHIK_clean_linker_0, # of connection points: 2
#     Edge 116, Type (0, 0), BuildingBlock: UVAHIK_clean_linker_0, # of connection points: 2
#     Edge 117, Type (0, 0), BuildingBlock: UVAHIK_clean_linker_0, # of connection points: 2
#     Edge 118, Type (0, 0), BuildingBlock: UVAHIK_clean_linker_0, # of connection points: 2
#     Edge 119, Type (0, 0), BuildingBlock: UVAHIK_clean_linker_0, # of connection points: 2
#     Edge 120, Type (0, 0), BuildingBlock: UVAHIK_clean_linker_0, # of connection points: 2
#     Edge 121, Type (0, 0), BuildingBlock: UVAHIK_clean_linker_0, # of connection points: 2
#     Edge 122, Type (0, 0), BuildingBlock: UVAHIK_clean_linker_0, # of connection points: 2
#     Edge 123, Type (0, 0), BuildingBlock: UVAHIK_clean_linker_0, # of connection points: 2
#     Edge 124, Type (0, 0), BuildingBlock: UVAHIK_clean_linker_0, # of connection points: 2
#     Edge 125, Type (0, 0), BuildingBlock: UVAHIK_clean_linker_0, # of connection points: 2
#     Edge 126, Type (0, 0), BuildingBlock: UVAHIK_clean_linker_0, # of connection points: 2
#     Edge 127, Type (0, 0), BuildingBlock: UVAHIK_clean_linker_0, # of connection points: 2
#     Edge 128, Type (0, 0), BuildingBlock: UVAHIK_clean_linker_0, # of connection points: 2
#     Edge 129, Type (0, 0), BuildingBlock: UVAHIK_clean_linker_0, # of connection points: 2
#     Edge 130, Type (0, 0), BuildingBlock: UVAHIK_clean_linker_0, # of connection points: 2
#     Edge 131, Type (0, 0), BuildingBlock: UVAHIK_clean_linker_0, # of connection points: 2
#     Edge 132, Type (0, 0), BuildingBlock: UVAHIK_clean_linker_0, # of connection points: 2
#     Edge 133, Type (0, 0), BuildingBlock: UVAHIK_clean_linker_0, # of connection points: 2
#     Edge 134, Type (0, 0), BuildingBlock: UVAHIK_clean_linker_0, # of connection points: 2
#     Edge 135, Type (0, 0), BuildingBlock: UVAHIK_clean_linker_0, # of connection points: 2
#     Edge 136, Type (0, 0), BuildingBlock: UVAHIK_clean_linker_0, # of connection points: 2
#     Edge 137, Type (0, 0), BuildingBlock: UVAHIK_clean_linker_0, # of connection points: 2
#     Edge 138, Type (0, 0), BuildingBlock: UVAHIK_clean_linker_0, # of connection points: 2
#     Edge 139, Type (0, 0), BuildingBlock: UVAHIK_clean_linker_0, # of connection points: 2
#     Edge 140, Type (0, 0), BuildingBlock: UVAHIK_clean_linker_0, # of connection points: 2
#     Edge 141, Type (0, 0), BuildingBlock: UVAHIK_clean_linker_0, # of connection points: 2
#     Edge 142, Type (0, 0), BuildingBlock: UVAHIK_clean_linker_0, # of connection points: 2
#     Edge 143, Type (0, 0), BuildingBlock: UVAHIK_clean_linker_0, # of connection points: 2
# Relax obj value: 0.026
# Max RMSD: 0.091
# Mean RMSD: 0.091
data_MOF--net-ull--node1-QUQFOY_clean_sbu_3--edge1-UVAHIK_clean_linker_0
_symmetry_space_group_name_H-M    P1
_symmetry_Int_Tables_number       1
_symmetry_cell_setting            triclinic
loop_
_symmetry_equiv_pos_as_xyz
'x, y, z'
_cell_length_a     80.493391
_cell_length_b     80.361242
_cell_length_c     80.392511
_cell_angle_alpha  90.024081
_cell_angle_beta   89.990078
_cell_angle_gamma 90.031818
loop_
_atom_site_label
_atom_site_type_symbol
_atom_site_fract_x
_atom_site_fract_y
_atom_site_fract_z
_atom_type_partial_charge
C0 C 0.03494 0.32857 0.14399 0.0
O1 O 0.02979 0.31419 0.14802 0.0
Cd2 Cd 0.00872 0.30882 0.1682 0.0
O3 O 0.02914 0.34153 0.1511 0.0
Cd4 Cd 0.00877 0.34819 0.17353 0.0
C5 C 0.97712 0.33213 0.15115 0.0
O6 O 0.01647 0.32517 0.19167 0.0
O7 O -0.00555 0.33861 0.19874 0.0
O8 O 0.02826 0.36987 0.18158 0.0
C9 C 0.00504 0.3275 0.20222 0.0
O10 O 0.98289 0.31794 0.15519 0.0
C11 C 0.01729 0.38074 0.18482 0.0
O12 O 0.98465 0.34543 0.15532 0.0
O13 O 0.00228 0.37674 0.18203 0.0
C14 C 0.65327 0.03795 0.14702 0.0
O15 O 0.66791 0.0334 0.15071 0.0
Cd16 Cd 0.67398 0.01127 0.16939 0.0
O17 O 0.64075 0.03098 0.15381 0.0
Cd18 Cd 0.63568 0.00914 0.17534 0.0
C19 C 0.65195 0.97954 0.15082 0.0
O20 O 0.65823 0.01721 0.19389 0.0
O21 O 0.64739 0.99319 0.1987 0.0
O22 O 0.61357 0.0275 0.18455 0.0
C23 C 0.65707 0.00471 0.20338 0.0
O24 O 0.66595 0.98569 0.15494 0.0
C25 C 0.60328 0.01605 0.18799 0.0
O26 O 0.63848 0.98627 0.15568 0.0
O27 O 0.60778 0.00122 0.18491 0.0
C28 C 0.94766 0.6577 0.14782 0.0
O29 O 0.95246 0.67221 0.15183 0.0
Cd30 Cd 0.97404 0.67801 0.17133 0.0
O31 O 0.95404 0.64488 0.15465 0.0
Cd32 Cd 0.97509 0.63855 0.17651 0.0
C33 C 0.00559 0.65542 0.15313 0.0
O34 O 0.9674 0.66135 0.19492 0.0
O35 O 0.98981 0.64827 0.20144 0.0
O36 O 0.95616 0.61647 0.18468 0.0
C37 C 0.97913 0.65922 0.20518 0.0
O38 O -0.00044 0.66947 0.1573 0.0
C39 C 0.96738 0.60577 0.18764 0.0
O40 O -0.00139 0.64193 0.15766 0.0
O41 O 0.98228 0.61007 0.1847 0.0
C42 C 0.32845 0.9475 0.14665 0.0
O43 O 0.31389 0.95229 0.15038 0.0
Cd44 Cd 0.30775 0.97407 0.16962 0.0
O45 O 0.34111 0.95402 0.15363 0.0
Cd46 Cd 0.3469 0.97534 0.17538 0.0
C47 C 0.33034 0.00574 0.15167 0.0
O48 O 0.32391 0.96776 0.19366 0.0
O49 O 0.33695 0.9903 0.2 0.0
O50 O 0.36886 0.95654 0.18409 0.0
C51 C 0.32602 0.97963 0.2038 0.0
O52 O 0.31628 -0.00033 0.15566 0.0
C53 C 0.37943 0.96785 0.18719 0.0
O54 O 0.34376 -0.00121 0.15638 0.0
O55 O 0.37517 0.98272 0.18404 0.0
C56 C 0.0383 0.6568 0.84027 0.0
O57 O 0.03351 0.67129 0.8362 0.0
Cd58 Cd 0.01201 0.67699 0.8166 0.0
O59 O 0.03197 0.64395 0.83342 0.0
Cd60 Cd 0.0111 0.63745 0.81142 0.0
C61 C 0.98046 0.6542 0.83467 0.0
O62 O 0.01881 0.66028 0.7931 0.0
O63 O -0.00352 0.64713 0.78642 0.0
O64 O 0.03033 0.61559 0.80344 0.0
C65 C 0.00713 0.65814 0.78278 0.0
O66 O 0.9865 0.66826 0.83052 0.0
C67 C 0.01926 0.60477 0.8003 0.0
O68 O 0.98747 0.64072 0.83017 0.0
O69 O 0.00428 0.60889 0.80306 0.0
C70 C 0.32998 0.0369 0.84071 0.0
O71 O 0.31543 0.03189 0.83717 0.0
Cd72 Cd 0.30932 0.01044 0.81757 0.0
O73 O 0.34261 0.03077 0.83335 0.0
Cd74 Cd 0.34833 0.01002 0.81101 0.0
C75 C 0.33278 0.97874 0.83428 0.0
O76 O 0.32488 0.01775 0.79342 0.0
O77 O 0.33808 -0.00439 0.78614 0.0
O78 O 0.36983 0.02946 0.8025 0.0
C79 C 0.32694 0.00623 0.78288 0.0
O80 O 0.31854 0.98466 0.83069 0.0
C81 C 0.38052 0.01845 0.79885 0.0
O82 O 0.34599 0.98605 0.82951 0.0
O83 O 0.37654 0.00341 0.80159 0.0
C84 C 0.9519 0.32991 0.8409 0.0
O85 O 0.95685 0.31561 0.83634 0.0
Cd86 Cd 0.97745 0.31058 0.81561 0.0
O87 O 0.95759 0.34302 0.83399 0.0
Cd88 Cd 0.97745 0.3501 0.81122 0.0
C89 C 0.00932 0.33344 0.83282 0.0
O90 O 0.96944 0.32751 0.79267 0.0
O91 O 0.99143 0.34103 0.78563 0.0
O92 O 0.95802 0.37204 0.80381 0.0
C93 C 0.98076 0.33002 0.78203 0.0
O94 O 0.00346 0.31935 0.82852 0.0
C95 C 0.96905 0.38293 0.80078 0.0
O96 O 0.0018 0.34685 0.82901 0.0
O97 O 0.98405 0.37881 0.8034 0.0
C98 C 0.65629 0.94843 0.8397 0.0
O99 O 0.67073 0.95356 0.83593 0.0
Cd100 Cd 0.67591 0.97515 0.81622 0.0
O101 O 0.64351 0.95464 0.83268 0.0
Cd102 Cd 0.6378 0.97598 0.81098 0.0
C103 C 0.65368 0.0066 0.83439 0.0
O104 O 0.66012 0.96814 0.79204 0.0
O105 O 0.64899 0.99205 0.78745 0.0
O106 O 0.61579 0.95731 0.80208 0.0
C107 C 0.65858 0.98057 0.78252 0.0
O108 O 0.66776 0.00134 0.82945 0.0
C109 C 0.60537 0.96865 0.79868 0.0
O110 O 0.6404 -0.00118 0.83073 0.0
O111 O 0.60974 0.98353 0.80172 0.0
C112 C 0.14594 0.0384 0.33133 0.0
O113 O 0.1498 0.03358 0.31679 0.0
Cd114 Cd 0.1689 0.01169 0.31082 0.0
O115 O 0.15272 0.03185 0.34409 0.0
Cd116 Cd 0.17429 0.01045 0.35026 0.0
C117 C 0.15042 0.98027 0.33346 0.0
O118 O 0.19262 0.01798 0.32737 0.0
O119 O 0.19897 -0.00453 0.34041 0.0
O120 O 0.18272 0.02941 0.37222 0.0
C121 C 0.20275 0.00612 0.32944 0.0
O122 O 0.15457 0.98633 0.31942 0.0
C123 C 0.1858 0.01819 0.38289 0.0
O124 O 0.15513 0.98712 0.34695 0.0
O125 O 0.18277 0.00327 0.37867 0.0
C126 C 0.95071 0.14348 0.32802 0.0
O127 O 0.95627 0.14702 0.31367 0.0
Cd128 Cd 0.97747 0.16713 0.30836 0.0
O129 O 0.95614 0.15104 0.34088 0.0
Cd130 Cd 0.97631 0.17369 0.34729 0.0
C131 C 0.0086 0.15113 0.33289 0.0
O132 O 0.96921 0.19126 0.32357 0.0
O133 O 0.99084 0.19866 0.3375 0.0
O134 O 0.95629 0.18233 0.36823 0.0
C135 C 0.98054 0.2019 0.32605 0.0
O136 O 0.00323 0.15468 0.31842 0.0
C137 C 0.967 0.18584 0.37928 0.0
O138 O 0.00062 0.15562 0.34582 0.0
O139 O 0.98209 0.18296 0.37574 0.0
C140 C 0.83929 0.94896 0.33055 0.0
O141 O 0.83556 0.95362 0.31593 0.0
Cd142 Cd 0.81678 0.97579 0.31013 0.0
O143 O 0.83246 0.95576 0.34315 0.0
Cd144 Cd 0.81091 0.97741 0.34849 0.0
C145 C 0.83535 0.00724 0.3325 0.0
O146 O 0.79217 0.96998 0.32578 0.0
O147 O 0.78774 -0.00623 0.3373 0.0
O148 O 0.80139 0.9589 0.37039 0.0
C149 C 0.78288 0.98259 0.32731 0.0
O150 O 0.8312 0.0013 0.3184 0.0
C151 C 0.79838 0.97027 0.38091 0.0
O152 O 0.83055 0.0003 0.3459 0.0
O153 O 0.80183 0.98508 0.37663 0.0
C154 C 0.0341 0.84438 0.32892 0.0
O155 O 0.02855 0.84046 0.31466 0.0
Cd156 Cd 0.0076 0.82001 0.30972 0.0
O157 O 0.02882 0.837 0.34194 0.0
Cd158 Cd 0.00899 0.81417 0.34878 0.0
C159 C 0.97642 0.83615 0.33414 0.0
O160 O 0.01612 0.79627 0.32531 0.0
O161 O -0.0054 0.78895 0.33945 0.0
O162 O 0.02919 0.80594 0.3697 0.0
C163 C 0.00487 0.78559 0.328 0.0
O164 O 0.98177 0.83239 0.31971 0.0
C165 C 0.01857 0.80253 0.38086 0.0
O166 O 0.98448 0.83198 0.34711 0.0
O167 O 0.00343 0.80532 0.37739 0.0
C168 C 0.14523 0.95069 0.65573 0.0
O169 O 0.14891 0.95555 0.67031 0.0
Cd170 Cd 0.16789 0.97751 0.67645 0.0
O171 O 0.1521 0.95729 0.64304 0.0
Cd172 Cd 0.1736 0.97888 0.63716 0.0
C173 C 0.14959 0.00898 0.65385 0.0
O174 O 0.19178 0.97119 0.66012 0.0
O175 O 0.19827 -0.00622 0.64727 0.0
O176 O 0.18209 0.96013 0.61505 0.0
C177 C 0.20197 0.98302 0.65816 0.0
O178 O 0.15365 0.00292 0.6679 0.0
C179 C 0.18526 0.97144 0.6045 0.0
O180 O 0.15438 0.00214 0.64039 0.0
O181 O 0.18228 0.98633 0.60888 0.0
C182 C 0.03489 0.14614 0.65806 0.0
O183 O 0.0299 0.15053 0.67239 0.0
Cd184 Cd 0.00894 0.17088 0.67753 0.0
O185 O 0.02904 0.15301 0.64502 0.0
Cd186 Cd 0.00879 0.17546 0.63813 0.0
C187 C 0.97724 0.15331 0.65472 0.0
O188 O 0.01656 0.1941 0.66076 0.0
O189 O -0.00555 0.2008 0.64727 0.0
O190 O 0.02819 0.18314 0.61626 0.0
C191 C 0.00509 0.20457 0.65825 0.0
O192 O 0.98308 0.15762 0.6688 0.0
C193 C 0.01717 0.18617 0.60538 0.0
O194 O 0.98468 0.15729 0.64131 0.0
O195 O 0.00218 0.18341 0.60946 0.0
C196 C 0.84041 0.03839 0.65857 0.0
O197 O 0.83596 0.03348 0.6729 0.0
Cd198 Cd 0.81682 0.01136 0.67753 0.0
O199 O 0.83412 0.03191 0.64553 0.0
Cd200 Cd 0.81259 0.01056 0.63886 0.0
C201 C 0.83627 0.98037 0.65529 0.0
O202 O 0.79297 0.01752 0.66092 0.0
O203 O 0.78904 -0.00607 0.64883 0.0
O204 O 0.80379 0.02939 0.61693 0.0
C205 C 0.78376 0.00491 0.65881 0.0
O206 O 0.83155 0.98601 0.66932 0.0
C207 C 0.80126 0.01816 0.60612 0.0
O208 O 0.83203 0.98757 0.64185 0.0
O209 O 0.80471 0.00332 0.61027 0.0
C210 C 0.95157 0.84407 0.65978 0.0
O211 O 0.95722 0.84043 0.67407 0.0
Cd212 Cd 0.97843 0.82025 0.67899 0.0
O213 O 0.95687 0.83655 0.64685 0.0
Cd214 Cd 0.97683 0.81385 0.64011 0.0
C215 C 0.00933 0.83632 0.65416 0.0
O216 O 0.96998 0.79615 0.66382 0.0
O217 O 0.99144 0.78885 0.64956 0.0
O218 O 0.95647 0.80537 0.61943 0.0
C219 C 0.98127 0.78551 0.66111 0.0
O220 O 0.0041 0.83273 0.66867 0.0
C221 C 0.967 0.80184 0.60822 0.0
O222 O 0.0012 0.83189 0.64131 0.0
O223 O 0.98216 0.80466 0.61155 0.0
C224 C 0.32509 0.14167 0.03598 0.0
O225 O 0.31079 0.14552 0.03057 0.0
Cd226 Cd 0.30675 0.16563 0.00913 0.0
O227 O 0.33799 0.14907 0.03049 0.0
Cd228 Cd 0.34499 0.17198 0.01089 0.0
C229 C 0.33202 0.14928 0.97851 0.0
O230 O 0.32152 0.19009 0.01746 0.0
O231 O 0.33499 0.196 -0.00494 0.0
O232 O 0.36427 0.17975 0.03262 0.0
C233 C 0.32403 0.20013 0.00559 0.0
O234 O 0.31751 0.15295 0.98368 0.0
C235 C 0.3759 0.18436 0.02303 0.0
O236 O 0.34483 0.15372 0.98668 0.0
O237 O 0.37352 0.18258 0.00751 0.0
C238 C 0.32786 0.84321 0.94986 0.0
O239 O 0.31341 0.83987 0.95524 0.0
Cd240 Cd 0.30754 0.82007 0.9766 0.0
O241 O 0.34053 0.83561 0.95561 0.0
Cd242 Cd 0.34638 0.81315 0.97613 0.0
C243 C 0.33172 0.83603 0.00808 0.0
O244 O 0.3226 0.7957 0.9689 0.0
O245 O 0.33622 0.78843 0.99077 0.0
O246 O 0.36744 0.80421 0.9564 0.0
C247 C 0.32483 0.78518 0.9804 0.0
O248 O 0.31733 0.83258 0.00247 0.0
C249 C 0.37831 0.80066 0.96726 0.0
O250 O 0.34472 0.83142 0.00033 0.0
O251 O 0.37462 0.80365 0.98233 0.0
C252 C 0.14481 0.32855 0.94898 0.0
O253 O 0.14892 0.31414 0.95395 0.0
Cd254 Cd 0.16812 0.30914 0.97586 0.0
O255 O 0.15144 0.34148 0.95537 0.0
Cd256 Cd 0.17322 0.34763 0.97666 0.0
C257 C 0.14944 0.33175 0.00705 0.0
O258 O 0.19215 0.32526 0.96909 0.0
O259 O 0.19676 0.33668 0.99287 0.0
O260 O 0.18217 0.36957 0.95789 0.0
C261 C 0.20163 0.32688 0.98153 0.0
O262 O 0.15383 0.31761 0.00139 0.0
C263 C 0.18522 0.38019 0.96917 0.0
O264 O 0.15389 0.34509 -0.00024 0.0
O265 O 0.18202 0.37593 0.98404 0.0
C266 C 0.65979 0.14041 0.95322 0.0
O267 O 0.67392 0.14305 0.95971 0.0
Cd268 Cd 0.67921 0.1646 0.97943 0.0
O269 O 0.64729 0.14925 0.9573 0.0
Cd270 Cd 0.64188 0.17256 0.97702 0.0
C271 C 0.65403 0.15084 0.01064 0.0
O272 O 0.66599 0.1894 0.96937 0.0
O273 O 0.65332 0.19671 0.99181 0.0
O274 O 0.62144 0.18193 0.95676 0.0
C275 C 0.66402 0.20009 0.98077 0.0
O276 O 0.66875 0.15418 0.0059 0.0
C277 C 0.61056 0.18612 0.96739 0.0
O278 O 0.64162 0.1549 0.00173 0.0
O279 O 0.61396 0.18337 0.98255 0.0
C280 C 0.84459 0.65914 0.95072 0.0
O281 O 0.84067 0.67347 0.9561 0.0
Cd282 Cd 0.82041 0.67881 0.9771 0.0
O283 O 0.83732 0.64616 0.95625 0.0
Cd284 Cd 0.81471 0.63957 0.97642 0.0
C285 C 0.83679 0.65503 0.00864 0.0
O286 O 0.79679 0.66285 0.96894 0.0
O287 O 0.78951 0.64908 0.99073 0.0
O288 O 0.80639 0.618 0.95688 0.0
C289 C 0.78617 0.66039 0.98029 0.0
O290 O 0.83298 0.66937 0.00308 0.0
C291 C 0.8034 0.60706 0.96787 0.0
O292 O 0.83259 0.64192 0.00079 0.0
O293 O 0.8064 0.61099 0.98287 0.0
C294 C 0.65867 0.84341 0.03528 0.0
O295 O 0.67309 0.83996 0.02989 0.0
Cd296 Cd 0.67881 0.81988 0.00874 0.0
O297 O 0.64595 0.83574 0.0297 0.0
Cd298 Cd 0.63995 0.81299 0.00948 0.0
C299 C 0.6545 0.83565 0.97729 0.0
O300 O 0.66373 0.79561 0.01679 0.0
O301 O 0.65006 0.78815 -0.00501 0.0
O302 O 0.61897 0.80417 0.02938 0.0
C303 C 0.66145 0.78498 0.00539 0.0
O304 O 0.66891 0.83224 0.98285 0.0
C305 C 0.60804 0.80055 0.01858 0.0
O306 O 0.64153 0.83106 0.98513 0.0
O307 O 0.61166 0.80345 0.00349 0.0
C308 C 0.14172 0.6597 0.03734 0.0
O309 O 0.1456 0.67399 0.03183 0.0
Cd310 Cd 0.16572 0.67924 0.01069 0.0
O311 O 0.14898 0.64669 0.03188 0.0
Cd312 Cd 0.17153 0.64005 0.01164 0.0
C313 C 0.1492 0.65511 0.97945 0.0
O314 O 0.18944 0.66347 0.01879 0.0
O315 O 0.1965 0.64962 -0.00303 0.0
O316 O 0.18023 0.61869 0.03124 0.0
C317 C 0.19994 0.66099 0.00733 0.0
O318 O 0.15303 0.6695 0.98487 0.0
C319 C 0.18326 0.60772 0.02029 0.0
O320 O 0.15347 0.64208 0.98737 0.0
O321 O 0.18005 0.61151 0.0053 0.0
C322 C 0.8404 0.32962 0.03633 0.0
O323 O 0.83599 0.31528 0.0314 0.0
Cd324 Cd 0.81734 0.31061 0.00892 0.0
O325 O 0.83426 0.34267 0.02971 0.0
Cd326 Cd 0.81304 0.34941 0.00805 0.0
C327 C 0.83752 0.33309 0.97846 0.0
O328 O 0.79349 0.32728 0.01476 0.0
O329 O 0.78983 0.33908 0.99101 0.0
O330 O 0.80408 0.37122 0.02694 0.0
C331 C 0.78449 0.32913 0.002 0.0
O332 O 0.83272 0.31904 0.98403 0.0
C333 C 0.80156 0.3821 0.01578 0.0
O334 O 0.833 0.34654 0.9855 0.0
O335 O 0.80502 0.37801 0.00091 0.0
C336 C 0.53371 0.82852 0.64347 0.0
O337 O 0.5286 0.81417 0.64766 0.0
Cd338 Cd 0.50786 0.80882 0.66818 0.0
O339 O 0.52807 0.84152 0.65064 0.0
Cd340 Cd 0.5081 0.84824 0.67342 0.0
C341 C 0.47609 0.83219 0.65154 0.0
O342 O 0.51594 0.82522 0.69149 0.0
O343 O 0.49401 0.8387 0.69879 0.0
O344 O 0.52767 0.86991 0.68127 0.0
C345 C 0.50461 0.82755 0.70215 0.0
O346 O 0.48186 0.81799 0.65553 0.0
C347 C 0.51673 0.88081 0.68451 0.0
O348 O 0.48373 0.84548 0.65557 0.0
O349 O 0.5017 0.87683 0.68182 0.0
C350 C 0.15826 0.53676 0.64416 0.0
O351 O 0.17276 0.53169 0.64771 0.0
Cd352 Cd 0.17822 0.50994 0.66705 0.0
O353 O 0.1456 0.5305 0.65136 0.0
Cd354 Cd 0.14021 0.5093 0.67342 0.0
C355 C 0.15516 0.47843 0.64965 0.0
O356 O 0.16313 0.51703 0.69172 0.0
O357 O 0.15163 0.4934 0.6969 0.0
O358 O 0.11858 0.52819 0.68284 0.0
C359 C 0.16158 0.50474 0.70143 0.0
O360 O 0.16942 0.48408 0.65356 0.0
C361 C 0.10807 0.51694 0.68632 0.0
O362 O 0.14203 0.48591 0.6543 0.0
O363 O 0.11223 0.50204 0.68315 0.0
C364 C 0.45078 0.16052 0.64321 0.0
O365 O 0.45627 0.17475 0.64731 0.0
Cd366 Cd 0.47796 0.17901 0.66701 0.0
O367 O 0.45646 0.14741 0.6501 0.0
Cd368 Cd 0.47702 0.14061 0.67232 0.0
C369 C 0.5086 0.15507 0.64924 0.0
O370 O 0.47043 0.16346 0.69122 0.0
O371 O 0.49352 0.15078 0.69591 0.0
O372 O 0.45732 0.11959 0.6815 0.0
C373 C 0.48275 0.1612 0.70074 0.0
O374 O 0.50348 0.16945 0.65351 0.0
C375 C 0.46811 0.10849 0.68449 0.0
O376 O 0.5006 0.14207 0.65344 0.0
O377 O 0.48311 0.11205 0.68112 0.0
C378 C 0.82965 0.44857 0.64724 0.0
O379 O 0.81514 0.45317 0.65137 0.0
Cd380 Cd 0.80974 0.47559 0.66999 0.0
O381 O 0.84238 0.45557 0.65359 0.0
Cd382 Cd 0.84829 0.47753 0.67475 0.0
C383 C 0.83152 0.5068 0.65023 0.0
O384 O 0.82615 0.47034 0.69419 0.0
O385 O 0.83759 0.49429 0.69789 0.0
O386 O 0.87031 0.45905 0.68391 0.0
C387 C 0.82781 0.48315 0.70322 0.0
O388 O 0.81763 0.5008 0.65488 0.0
C389 C 0.88084 0.47043 0.68684 0.0
O390 O 0.84511 0.5001 0.65478 0.0
O391 O 0.87653 0.48524 0.68342 0.0
C392 C 0.5356 0.15654 0.34255 0.0
O393 O 0.531 0.17098 0.33813 0.0
Cd394 Cd 0.51 0.17628 0.31803 0.0
O395 O 0.52934 0.14363 0.33573 0.0
Cd396 Cd 0.50884 0.13755 0.31316 0.0
C397 C 0.47807 0.15407 0.33599 0.0
O398 O 0.51725 0.15977 0.29444 0.0
O399 O 0.49351 0.14868 0.28908 0.0
O400 O 0.52758 0.11537 0.30479 0.0
C401 C 0.50507 0.15839 0.28459 0.0
O402 O 0.48404 0.16809 0.33161 0.0
C403 C 0.51628 0.10482 0.30158 0.0
O404 O 0.48526 0.14059 0.33185 0.0
O405 O 0.50141 0.10925 0.30441 0.0
C406 C 0.82852 0.53875 0.34135 0.0
O407 O 0.81405 0.53399 0.33725 0.0
Cd408 Cd 0.80894 0.51168 0.31842 0.0
O409 O 0.84131 0.53201 0.33486 0.0
Cd410 Cd 0.84734 0.51033 0.31345 0.0
C411 C 0.83111 0.48066 0.33789 0.0
O412 O 0.8251 0.51758 0.29415 0.0
O413 O 0.83673 0.49379 0.29007 0.0
O414 O 0.86928 0.52902 0.30445 0.0
C415 C 0.82691 0.50496 0.28489 0.0
O416 O 0.8171 0.48646 0.33337 0.0
C417 C 0.87987 0.51773 0.30147 0.0
O418 O 0.84455 0.4876 0.33325 0.0
O419 O 0.87562 0.50287 0.30477 0.0
C420 C 0.45075 0.82924 0.34413 0.0
O421 O 0.45584 0.81486 0.34002 0.0
Cd422 Cd 0.4763 0.80916 0.31935 0.0
O423 O 0.45626 0.8422 0.33678 0.0
Cd424 Cd 0.476 0.84871 0.31375 0.0
C425 C 0.50816 0.83279 0.33552 0.0
O426 O 0.46796 0.82548 0.29611 0.0
O427 O 0.48962 0.83895 0.28815 0.0
O428 O 0.45653 0.87045 0.30582 0.0
C429 C 0.47909 0.82762 0.28522 0.0
O430 O 0.50235 0.81854 0.33171 0.0
C431 C 0.46756 0.88124 0.30242 0.0
O432 O 0.50052 0.84603 0.33139 0.0
O433 O 0.48257 0.87717 0.30507 0.0
C434 C 0.1567 0.45023 0.34038 0.0
O435 O 0.17107 0.45489 0.33585 0.0
Cd436 Cd 0.17598 0.4763 0.31605 0.0
O437 O 0.14376 0.45656 0.33376 0.0
Cd438 Cd 0.13751 0.47725 0.3114 0.0
C439 C 0.15374 0.50784 0.33465 0.0
O440 O 0.1596 0.46927 0.2923 0.0
O441 O 0.14831 0.49308 0.28756 0.0
O442 O 0.11563 0.45821 0.30291 0.0
C443 C 0.15793 0.4816 0.28267 0.0
O444 O 0.16774 0.50198 0.33015 0.0
C445 C 0.10506 0.4694 0.29949 0.0
O446 O 0.14029 0.50068 0.33041 0.0
O447 O 0.10926 0.48436 0.30239 0.0
C448 C 0.64671 0.53915 0.83144 0.0
O449 O 0.65046 0.53442 0.81685 0.0
Cd450 Cd 0.6695 0.51253 0.81112 0.0
O451 O 0.65362 0.53251 0.84407 0.0
Cd452 Cd 0.67543 0.51108 0.84939 0.0
C453 C 0.65134 0.48093 0.83358 0.0
O454 O 0.69393 0.51903 0.82675 0.0
O455 O 0.69883 0.49515 0.83785 0.0
O456 O 0.68461 0.52973 0.87131 0.0
C457 C 0.7035 0.50662 0.8281 0.0
O458 O 0.65543 0.48686 0.81947 0.0
C459 C 0.68818 0.51839 0.88167 0.0
O460 O 0.65606 0.48797 0.84696 0.0
O461 O 0.68512 0.50351 0.87733 0.0
C462 C 0.45092 0.64231 0.82762 0.0
O463 O 0.45652 0.64575 0.81325 0.0
Cd464 Cd 0.47754 0.66605 0.80786 0.0
O465 O 0.45622 0.65007 0.8404 0.0
Cd466 Cd 0.47615 0.67296 0.8466 0.0
C467 C 0.50875 0.65065 0.8326 0.0
O468 O 0.46903 0.69033 0.82271 0.0
O469 O 0.49057 0.69791 0.8367 0.0
O470 O 0.4561 0.68173 0.86748 0.0
C471 C 0.48029 0.70106 0.8252 0.0
O472 O 0.50345 0.65403 0.81807 0.0
C473 C 0.46681 0.68526 0.87852 0.0
O474 O 0.50061 0.65512 0.84542 0.0
O475 O 0.48191 0.68233 0.875 0.0
C476 C 0.33971 0.44761 0.83131 0.0
O477 O 0.33573 0.45226 0.81676 0.0
Cd478 Cd 0.31693 0.47446 0.81122 0.0
O479 O 0.33309 0.4544 0.84403 0.0
Cd480 Cd 0.31158 0.47599 0.84981 0.0
C481 C 0.3359 0.50577 0.83356 0.0
O482 O 0.2926 0.46875 0.82728 0.0
O483 O 0.28838 0.49252 0.83892 0.0
O484 O 0.30234 0.45727 0.87162 0.0
C485 C 0.2834 0.48142 0.8289 0.0
O486 O 0.33156 0.49984 0.81952 0.0
C487 C 0.29935 0.46853 0.88227 0.0
O488 O 0.33124 0.49886 0.84703 0.0
O489 O 0.30271 0.4834 0.8781 0.0
C490 C 0.53625 0.3446 0.82833 0.0
O491 O 0.53097 0.34098 0.8139 0.0
Cd492 Cd 0.50991 0.32078 0.80882 0.0
O493 O 0.53063 0.33701 0.84107 0.0
Cd494 Cd 0.51056 0.31406 0.84684 0.0
C495 C 0.47844 0.33667 0.83299 0.0
O496 O 0.51822 0.29625 0.82349 0.0
O497 O 0.49512 0.29021 0.83559 0.0
O498 O 0.53058 0.30513 0.86762 0.0
C499 C 0.50629 0.28614 0.82526 0.0
O500 O 0.48387 0.33307 0.81855 0.0
C501 C 0.51991 0.30107 0.87851 0.0
O502 O 0.48643 0.33229 0.84592 0.0
O503 O 0.50477 0.30373 0.87498 0.0
C504 C 0.64926 0.4513 0.15354 0.0
O505 O 0.65338 0.45569 0.16814 0.0
Cd506 Cd 0.67235 0.47761 0.17394 0.0
O507 O 0.65583 0.45827 0.14088 0.0
Cd508 Cd 0.67753 0.47986 0.13537 0.0
C509 C 0.65328 0.5093 0.15226 0.0
O510 O 0.69633 0.4715 0.15753 0.0
O511 O 0.70121 0.49557 0.14684 0.0
O512 O 0.686 0.46139 0.11304 0.0
C513 C 0.70592 0.48392 0.15635 0.0
O514 O 0.65766 0.50309 0.16616 0.0
C515 C 0.68953 0.4728 0.10273 0.0
O516 O 0.65797 0.50272 0.13864 0.0
O517 O 0.68682 0.48767 0.10731 0.0
C518 C 0.53577 0.64397 0.15931 0.0
O519 O 0.53061 0.64788 0.17372 0.0
Cd520 Cd 0.50982 0.66823 0.17948 0.0
O521 O 0.53014 0.65133 0.14643 0.0
Cd522 Cd 0.51009 0.67413 0.13999 0.0
C523 C 0.47812 0.65188 0.15568 0.0
O524 O 0.51781 0.69173 0.1634 0.0
O525 O 0.49611 0.69945 0.14981 0.0
O526 O 0.52983 0.68223 0.11859 0.0
C527 C 0.50655 0.70248 0.16119 0.0
O528 O 0.48393 0.65565 0.16993 0.0
C529 C 0.51898 0.68581 0.10772 0.0
O530 O 0.4857 0.65616 0.14245 0.0
O531 O 0.5039 0.68316 0.11156 0.0
C532 C 0.33903 0.53981 0.15801 0.0
O533 O 0.33439 0.53516 0.17237 0.0
Cd534 Cd 0.31534 0.51301 0.17716 0.0
O535 O 0.33286 0.53311 0.14502 0.0
Cd536 Cd 0.31125 0.51177 0.13847 0.0
C537 C 0.33511 0.48194 0.15516 0.0
O538 O 0.29153 0.51878 0.16044 0.0
O539 O 0.28793 0.49498 0.14864 0.0
O540 O 0.30245 0.53076 0.11672 0.0
C541 C 0.28249 0.50603 0.15846 0.0
O542 O 0.33031 0.48778 0.16909 0.0
C543 C 0.29951 0.5196 0.10595 0.0
O544 O 0.33083 0.48888 0.14158 0.0
O545 O 0.30283 0.50469 0.10998 0.0
C546 C 0.4534 0.34842 0.16354 0.0
O547 O 0.45914 0.34519 0.17788 0.0
Cd548 Cd 0.48068 0.32525 0.18219 0.0
O549 O 0.45865 0.3405 0.15084 0.0
Cd550 Cd 0.47825 0.31738 0.14464 0.0
C551 C 0.51088 0.34049 0.15593 0.0
O552 O 0.47209 0.30001 0.16886 0.0
O553 O 0.49445 0.29394 0.15539 0.0
O554 O 0.45647 0.30833 0.12598 0.0
C555 C 0.48398 0.28997 0.16647 0.0
O556 O 0.50608 0.33734 0.1707 0.0
C557 C 0.46599 0.30359 0.11434 0.0
O558 O 0.50236 0.33567 0.14349 0.0
O559 O 0.48147 0.3059 0.11641 0.0
C560 C 0.82522 0.64486 0.53649 0.0
O561 O 0.81091 0.64896 0.53127 0.0
Cd562 Cd 0.80637 0.66909 0.50998 0.0
O563 O 0.83817 0.65203 0.53081 0.0
Cd564 Cd 0.84455 0.67477 0.5107 0.0
C565 C 0.83016 0.65199 0.47884 0.0
O566 O 0.82163 0.69343 0.51774 0.0
O567 O 0.83421 0.69851 0.49464 0.0
O568 O 0.86548 0.68381 0.53055 0.0
C569 C 0.82385 0.70316 0.50555 0.0
O570 O 0.81581 0.65605 0.48414 0.0
C571 C 0.87648 0.6872 0.51976 0.0
O572 O 0.84316 0.65622 0.4868 0.0
O573 O 0.87294 0.68407 0.5047 0.0
C574 C 0.82702 0.34348 0.45274 0.0
O575 O 0.81274 0.33934 0.45799 0.0
Cd576 Cd 0.80811 0.31868 0.47868 0.0
O577 O 0.83998 0.33614 0.45817 0.0
Cd578 Cd 0.84619 0.31294 0.47789 0.0
C579 C 0.83179 0.33496 0.51028 0.0
O580 O 0.82334 0.29467 0.4699 0.0
O581 O 0.83535 0.2887 0.49306 0.0
O582 O 0.86739 0.30443 0.45807 0.0
C583 C 0.82528 0.28447 0.48172 0.0
O584 O 0.81744 0.33103 0.50489 0.0
C585 C 0.87818 0.30061 0.46891 0.0
O586 O 0.84478 0.33092 0.50221 0.0
O587 O 0.87441 0.30327 0.48401 0.0
C588 C 0.6455 0.8311 0.44953 0.0
O589 O 0.65007 0.81675 0.45428 0.0
Cd590 Cd 0.6693 0.81203 0.47619 0.0
O591 O 0.65173 0.84414 0.4561 0.0
Cd592 Cd 0.67339 0.85079 0.4774 0.0
C593 C 0.64969 0.83402 0.50736 0.0
O594 O 0.6928 0.82896 0.46966 0.0
O595 O 0.69718 0.84025 0.49354 0.0
O596 O 0.68163 0.87291 0.45856 0.0
C597 C 0.70224 0.83064 0.48212 0.0
O598 O 0.65445 0.82007 0.50153 0.0
C599 C 0.68466 0.88358 0.4698 0.0
O600 O 0.65396 0.84758 0.50037 0.0
O601 O 0.68175 0.87926 0.48471 0.0
C602 C 0.15888 0.64426 0.45041 0.0
O603 O 0.17323 0.64832 0.45555 0.0
Cd604 Cd 0.17808 0.66855 0.47662 0.0
O605 O 0.14599 0.65147 0.45616 0.0
Cd606 Cd 0.14004 0.67428 0.47642 0.0
C607 C 0.1548 0.65165 0.5082 0.0
O608 O 0.16278 0.69273 0.46849 0.0
O609 O 0.15101 0.69827 0.4919 0.0
O610 O 0.11859 0.68314 0.45705 0.0
C611 C 0.16094 0.70273 0.48051 0.0
O612 O 0.16908 0.65567 0.50269 0.0
C613 C 0.10795 0.68681 0.4681 0.0
O614 O 0.14171 0.65587 0.50039 0.0
O615 O 0.11191 0.68389 0.4831 0.0
C616 C 0.34023 0.1586 0.44969 0.0
O617 O 0.33565 0.17299 0.45431 0.0
Cd618 Cd 0.31579 0.17793 0.47564 0.0
O619 O 0.3337 0.14563 0.4561 0.0
Cd620 Cd 0.31151 0.13935 0.47694 0.0
C621 C 0.33445 0.15623 0.50745 0.0
O622 O 0.29228 0.16117 0.46861 0.0
O623 O 0.28743 0.15004 0.49247 0.0
O624 O 0.3033 0.11698 0.45831 0.0
C625 C 0.28257 0.15952 0.48087 0.0
O626 O 0.32984 0.17017 0.50149 0.0
C627 C 0.30013 0.10651 0.46969 0.0
O628 O 0.33038 0.14267 0.50036 0.0
O629 O 0.30302 0.11102 0.48455 0.0
C630 C 0.15667 0.34063 0.53641 0.0
O631 O 0.17105 0.33649 0.53144 0.0
Cd632 Cd 0.17585 0.31741 0.50928 0.0
O633 O 0.14376 0.33405 0.52996 0.0
Cd634 Cd 0.13738 0.31242 0.50858 0.0
C635 C 0.15313 0.33654 0.47843 0.0
O636 O 0.15977 0.2932 0.51555 0.0
O637 O 0.14784 0.28906 0.49194 0.0
O638 O 0.11583 0.30336 0.52769 0.0
C639 C 0.15783 0.28393 0.50297 0.0
O640 O 0.16722 0.33202 0.48404 0.0
C641 C 0.10507 0.30025 0.51659 0.0
O642 O 0.13978 0.33206 0.48565 0.0
O643 O 0.10903 0.30354 0.50166 0.0
C644 C 0.647 0.15555 0.53731 0.0
O645 O 0.65114 0.16999 0.53247 0.0
Cd646 Cd 0.66995 0.17498 0.51017 0.0
O647 O 0.65348 0.14267 0.53069 0.0
Cd648 Cd 0.67495 0.13638 0.50917 0.0
C649 C 0.65052 0.15227 0.4794 0.0
O650 O 0.69413 0.15881 0.51613 0.0
O651 O 0.69813 0.14707 0.49239 0.0
O652 O 0.68406 0.11471 0.52812 0.0
C653 C 0.70328 0.15704 0.50345 0.0
O654 O 0.65505 0.16637 0.48507 0.0
C655 C 0.68708 0.10397 0.51695 0.0
O656 O 0.65513 0.13888 0.48646 0.0
O657 O 0.68376 0.10802 0.50205 0.0
C658 C 0.33799 0.83055 0.53843 0.0
O659 O 0.33345 0.81624 0.5335 0.0
Cd660 Cd 0.31481 0.81172 0.51099 0.0
O661 O 0.33196 0.84364 0.5318 0.0
Cd662 Cd 0.31078 0.85051 0.51014 0.0
C663 C 0.33523 0.83408 0.48062 0.0
O664 O 0.29104 0.82851 0.51678 0.0
O665 O 0.28756 0.8404 0.49304 0.0
O666 O 0.30185 0.87238 0.52898 0.0
C667 C 0.28209 0.83049 0.50399 0.0
O668 O 0.33034 0.82006 0.48617 0.0
C669 C 0.29933 0.88321 0.51778 0.0
O670 O 0.33077 0.84756 0.48764 0.0
O671 O 0.30284 0.8791 0.50294 0.0
C672 C 0.08383 0.44873 0.29037 0.0
C673 C 0.08955 0.46523 0.29063 0.0
C674 C 0.07113 0.44401 0.27953 0.0
C675 C 0.05711 0.45391 0.23837 0.0
H676 H 0.02335 0.42075 0.24766 0.0
C677 C 0.0098 0.40499 0.20281 0.0
C678 C 0.02172 0.39638 0.19336 0.0
C679 C 0.01466 0.41775 0.21359 0.0
C680 C 0.03247 0.43026 0.24487 0.0
H681 H 0.08584 0.48997 0.28052 0.0
H682 H 0.06381 0.48158 0.26126 0.0
H683 H 0.03721 0.43496 0.27068 0.0
H684 H 0.04779 0.39525 0.18671 0.0
H685 H 0.05622 0.4177 0.20528 0.0
H686 H 0.05312 0.44843 0.21258 0.0
C687 C 0.06911 0.47237 0.26953 0.0
C688 C 0.04046 0.4383 0.25804 0.0
C689 C 0.08164 0.47716 0.2806 0.0
C690 C 0.03835 0.40163 0.19389 0.0
C691 C 0.04316 0.41454 0.20446 0.0
C692 C 0.04926 0.44572 0.2252 0.0
C693 C 0.06408 0.45566 0.26858 0.0
C694 C 0.05322 0.4498 0.25491 0.0
C695 C 0.03146 0.42231 0.21486 0.0
C696 C 0.03725 0.43343 0.22835 0.0
H697 H 0.08968 0.43929 0.298 0.0
H698 H 0.0676 0.43101 0.27897 0.0
H699 H 0.067 0.46263 0.23561 0.0
H700 H -0.00311 0.40119 0.20266 0.0
H701 H 0.0054 0.42361 0.22143 0.0
C702 C 0.58156 0.03618 0.19703 0.0
C703 C 0.58769 0.01984 0.19686 0.0
C704 C 0.56868 0.04061 0.20776 0.0
C705 C 0.53795 0.0459 0.22909 0.0
H706 H 0.5506 0.03609 0.27461 0.0
C707 C 0.5081 0.08056 0.28387 0.0
C708 C 0.52026 0.08898 0.29318 0.0
C709 C 0.5126 0.06749 0.27329 0.0
C710 C 0.54673 0.03871 0.26197 0.0
H711 H 0.58454 -0.00495 0.20703 0.0
H712 H 0.56215 0.00292 0.22612 0.0
H713 H 0.5645 0.02178 0.2517 0.0
H714 H 0.54635 0.08949 0.29984 0.0
H715 H 0.55415 0.06658 0.28161 0.0
H716 H 0.52089 0.06356 0.23933 0.0
C717 C 0.56728 0.01224 0.21785 0.0
C718 C 0.55459 0.03044 0.24886 0.0
C719 C 0.58002 0.00774 0.20689 0.0
C720 C 0.53673 0.08327 0.29274 0.0
C721 C 0.54118 0.07007 0.28238 0.0
C722 C 0.52997 0.05404 0.2422 0.0
C723 C 0.56182 0.02882 0.2187 0.0
C724 C 0.55076 0.03449 0.23229 0.0
C725 C 0.52927 0.06246 0.2721 0.0
C726 C 0.53479 0.05103 0.25874 0.0
H727 H 0.58721 0.04574 0.1894 0.0
H728 H 0.56484 0.05352 0.20825 0.0
H729 H 0.53472 0.04916 0.21643 0.0
H730 H 0.4953 0.08471 0.28396 0.0
H731 H 0.50318 0.06176 0.26555 0.0
C732 C 0.94682 0.58432 0.1965 0.0
C733 C 0.96332 0.58995 0.19602 0.0
C734 C 0.9423 0.57124 0.20696 0.0
C735 C 0.93669 0.54003 0.22769 0.0
H736 H 0.94835 0.5513 0.27315 0.0
C737 C 0.90352 0.50949 0.28307 0.0
C738 C 0.89552 0.52164 0.29276 0.0
C739 C 0.91628 0.514 0.27214 0.0
C740 C 0.94522 0.54781 0.26052 0.0
H741 H 0.98825 0.58565 0.20529 0.0
H742 H 0.98023 0.56292 0.2239 0.0
H743 H 0.96227 0.5654 0.25011 0.0
H744 H 0.89545 0.5477 0.29971 0.0
H745 H 0.9179 0.55551 0.28093 0.0
H746 H 0.91897 0.52314 0.23811 0.0
C747 C 0.97085 0.5686 0.21609 0.0
C748 C 0.95325 0.55578 0.24733 0.0
C749 C 0.97543 0.58155 0.2054 0.0
C750 C 0.90136 0.53809 0.29233 0.0
C751 C 0.91428 0.54254 0.28165 0.0
C752 C 0.9288 0.53192 0.24087 0.0
C753 C 0.95415 0.56367 0.21732 0.0
C754 C 0.94856 0.55246 0.23082 0.0
C755 C 0.92144 0.53066 0.27101 0.0
C756 C 0.93251 0.53624 0.2574 0.0
H757 H 0.93724 0.59054 0.18936 0.0
H758 H 0.9293 0.5678 0.20776 0.0
H759 H 0.93292 0.5372 0.21507 0.0
H760 H 0.89923 0.49671 0.28313 0.0
H761 H 0.92166 0.50461 0.2641 0.0
C762 C 0.44656 0.90214 0.29326 0.0
C763 C 0.46317 0.89685 0.29381 0.0
C764 C 0.44179 0.91496 0.28259 0.0
C765 C 0.43574 0.94586 0.26146 0.0
H766 H 0.44765 0.93432 0.21612 0.0
C767 C 0.40299 0.9761 0.20569 0.0
C768 C 0.39503 0.96392 0.19598 0.0
C769 C 0.41564 0.9716 0.21674 0.0
C770 C 0.44445 0.93788 0.22872 0.0
H771 H 0.48802 0.90152 0.28445 0.0
H772 H 0.47956 0.92378 0.26551 0.0
H773 H 0.46159 0.92054 0.23933 0.0
H774 H 0.39492 0.93783 0.18914 0.0
H775 H 0.41719 0.93005 0.20814 0.0
H776 H 0.41796 0.96254 0.25083 0.0
C777 C 0.47029 0.91802 0.27341 0.0
C778 C 0.45248 0.93009 0.242 0.0
C779 C 0.47512 0.90535 0.28429 0.0
C780 C 0.40081 0.94746 0.19652 0.0
C781 C 0.41362 0.94302 0.20733 0.0
C782 C 0.42785 0.9538 0.24818 0.0
C783 C 0.45351 0.9226 0.27211 0.0
C784 C 0.44773 0.93353 0.25847 0.0
C785 C 0.42073 0.95493 0.21798 0.0
C786 C 0.43168 0.9494 0.2317 0.0
H787 H 0.4371 0.89584 0.3005 0.0
H788 H 0.42874 0.91813 0.28175 0.0
H789 H 0.43191 0.94877 0.27405 0.0
H790 H 0.39875 0.98889 0.20555 0.0
H791 H 0.42099 0.98101 0.22478 0.0
C792 C 0.08469 0.50889 0.70517 0.0
C793 C 0.09263 0.52098 0.69534 0.0
C794 C 0.07202 0.51347 0.71616 0.0
C795 C 0.05932 0.53148 0.74734 0.0
H796 H 0.02567 0.56463 0.73777 0.0
C797 C 0.04017 0.58359 0.79167 0.0
C798 C 0.0236 0.58902 0.79193 0.0
C799 C 0.04499 0.57059 0.78122 0.0
C800 C 0.03474 0.5551 0.74064 0.0
H801 H 0.09273 0.54702 0.68831 0.0
H802 H 0.07043 0.55494 0.70723 0.0
H803 H 0.03993 0.55066 0.71487 0.0
H804 H -0.00115 0.58444 0.7823 0.0
H805 H 0.00739 0.56187 0.76372 0.0
H806 H 0.05489 0.53672 0.77311 0.0
C807 C 0.07403 0.54197 0.70655 0.0
C808 C 0.04297 0.54721 0.72754 0.0
C809 C 0.08686 0.53746 0.69579 0.0
C810 C 0.01172 0.5805 0.78236 0.0
C811 C 0.0166 0.56765 0.77168 0.0
C812 C 0.05123 0.53952 0.76045 0.0
C813 C 0.06688 0.53014 0.71724 0.0
C814 C 0.05573 0.53575 0.73078 0.0
C815 C 0.03337 0.56292 0.77066 0.0
C816 C 0.03927 0.55182 0.7572 0.0
H817 H 0.08892 0.4961 0.7051 0.0
H818 H 0.06665 0.50412 0.72425 0.0
H819 H 0.06919 0.52278 0.75019 0.0
H820 H 0.04958 0.5899 0.79897 0.0
H821 H 0.05803 0.56732 0.7806 0.0
C822 C 0.40144 0.03951 0.78989 0.0
C823 C 0.39594 0.02293 0.78998 0.0
C824 C 0.41409 0.04449 0.77912 0.0
C825 C 0.42825 0.03519 0.73789 0.0
H826 H 0.46182 0.06846 0.74755 0.0
C827 C 0.47548 0.08427 0.70255 0.0
C828 C 0.46356 0.093 0.69322 0.0
C829 C 0.47058 0.07154 0.71336 0.0
C830 C 0.45274 0.05893 0.74466 0.0
H831 H 0.39998 -0.00166 0.77963 0.0
H832 H 0.42193 0.00719 0.76048 0.0
H833 H 0.44801 0.05393 0.77042 0.0
H834 H 0.43744 0.09445 0.68685 0.0
H835 H 0.42895 0.07202 0.70543 0.0
H836 H 0.43222 0.04098 0.71216 0.0
C837 C 0.41649 0.01625 0.76884 0.0
C838 C 0.44479 0.05071 0.75774 0.0
C839 C 0.40401 0.0112 0.77984 0.0
C840 C 0.44687 0.08796 0.69394 0.0
C841 C 0.44204 0.07507 0.70451 0.0
C842 C 0.43605 0.04357 0.72482 0.0
C843 C 0.42131 0.03304 0.76807 0.0
C844 C 0.43211 0.03915 0.75447 0.0
C845 C 0.45376 0.06713 0.71473 0.0
C846 C 0.44799 0.05588 0.72811 0.0
H847 H 0.39547 0.0488 0.79761 0.0
H848 H 0.41746 0.05754 0.77869 0.0
H849 H 0.41842 0.02644 0.73502 0.0
H850 H 0.48843 0.08793 0.70226 0.0
H851 H 0.47985 0.06556 0.72108 0.0
C852 C 0.90246 0.45028 0.69606 0.0
C853 C 0.89645 0.46666 0.69567 0.0
C854 C 0.91529 0.44592 0.70686 0.0
C855 C 0.92923 0.45636 0.74787 0.0
H856 H 0.9634 0.42363 0.73866 0.0
C857 C 0.94806 0.40402 0.79207 0.0
C858 C 0.96468 0.39876 0.79257 0.0
C859 C 0.9433 0.41707 0.78167 0.0
C860 C 0.95417 0.43304 0.74144 0.0
H861 H 0.89976 0.49157 0.70551 0.0
H862 H 0.92204 0.4838 0.72475 0.0
H863 H 0.94943 0.43764 0.71562 0.0
H864 H 0.98955 0.40372 0.78344 0.0
H865 H 0.98112 0.42639 0.76497 0.0
H866 H 0.9332 0.45093 0.77367 0.0
C867 C 0.91686 0.47441 0.71659 0.0
C868 C 0.94612 0.44096 0.72825 0.0
C869 C 0.90419 0.47885 0.70554 0.0
C870 C 0.97664 0.40752 0.78331 0.0
C871 C 0.97183 0.42043 0.77269 0.0
C872 C 0.93714 0.44828 0.76106 0.0
C873 C 0.9222 0.4578 0.71766 0.0
C874 C 0.93319 0.45226 0.73134 0.0
C875 C 0.95503 0.42497 0.77141 0.0
C876 C 0.94928 0.43613 0.75794 0.0
H877 H 0.89673 0.44065 0.68856 0.0
H878 H 0.91905 0.43299 0.70754 0.0
H879 H 0.91921 0.46493 0.75061 0.0
H880 H 0.93858 0.39753 0.79911 0.0
H881 H 0.93024 0.42021 0.78083 0.0
C882 C 0.58208 0.97679 0.77979 0.0
C883 C 0.58983 0.96473 0.78979 0.0
C884 C 0.56944 0.97222 0.76876 0.0
C885 C 0.54025 0.93859 0.75733 0.0
H886 H 0.55295 0.9485 0.71184 0.0
C887 C 0.53788 0.9017 0.69339 0.0
C888 C 0.52123 0.89651 0.69292 0.0
C889 C 0.54274 0.91467 0.70385 0.0
C890 C 0.54908 0.94586 0.72447 0.0
H891 H 0.58957 0.93878 0.79711 0.0
H892 H 0.56732 0.93087 0.77813 0.0
H893 H 0.56704 0.96257 0.73482 0.0
H894 H 0.49642 0.90148 0.70221 0.0
H895 H 0.50505 0.92401 0.72081 0.0
H896 H 0.52293 0.92121 0.74702 0.0
C897 C 0.57105 0.94382 0.7787 0.0
C898 C 0.55704 0.95398 0.73762 0.0
C899 C 0.58386 0.94832 0.78951 0.0
C900 C 0.50935 0.90523 0.70232 0.0
C901 C 0.51427 0.91806 0.713 0.0
C902 C 0.53215 0.93062 0.74419 0.0
C903 C 0.56415 0.95559 0.7678 0.0
C904 C 0.55315 0.94992 0.75417 0.0
C905 C 0.53109 0.92256 0.71421 0.0
C906 C 0.53695 0.9337 0.72766 0.0
H907 H 0.58648 0.98954 0.77973 0.0
H908 H 0.56426 0.98153 0.76052 0.0
H909 H 0.53698 0.9353 0.76999 0.0
H910 H 0.54728 0.89524 0.68624 0.0
H911 H 0.55582 0.91777 0.70464 0.0
C912 C 0.19486 0.03881 0.40421 0.0
C913 C 0.1944 0.02229 0.39858 0.0
C914 C 0.20551 0.0434 0.41712 0.0
C915 C 0.24616 0.03272 0.43195 0.0
H916 H 0.23715 0.06689 0.46481 0.0
C917 C 0.28197 0.08267 0.47803 0.0
C918 C 0.29157 0.09073 0.46584 0.0
C919 C 0.27112 0.06982 0.47358 0.0
C920 C 0.23986 0.05708 0.45596 0.0
H921 H 0.20391 -0.00262 0.40268 0.0
H922 H 0.22284 0.00553 0.42509 0.0
H923 H 0.21405 0.05279 0.45101 0.0
H924 H 0.29842 0.09078 0.43977 0.0
H925 H 0.27974 0.0682 0.43206 0.0
H926 H 0.27197 0.03779 0.43612 0.0
C927 C 0.21488 0.01487 0.41955 0.0
C928 C 0.22664 0.04911 0.448 0.0
C929 C 0.204 0.01021 0.40679 0.0
C930 C 0.29112 0.08483 0.44941 0.0
C931 C 0.28049 0.07183 0.44502 0.0
C932 C 0.25938 0.04083 0.43978 0.0
C933 C 0.21607 0.0316 0.42448 0.0
C934 C 0.22968 0.03728 0.4355 0.0
C935 C 0.26994 0.06463 0.45694 0.0
C936 C 0.25634 0.0535 0.45143 0.0
H937 H 0.18756 0.04836 0.39814 0.0
H938 H 0.20627 0.05642 0.42055 0.0
H939 H 0.24887 0.02374 0.42228 0.0
H940 H 0.28205 0.08698 0.4908 0.0
H941 H 0.26316 0.0644 0.48301 0.0
C942 C 0.90172 0.28155 0.47584 0.0
C943 C 0.89347 0.29165 0.4642 0.0
C944 C 0.91413 0.27054 0.47065 0.0
C945 C 0.94212 0.25949 0.43601 0.0
H946 H 0.93022 0.21382 0.44619 0.0
C947 C 0.94546 0.19513 0.39957 0.0
C948 C 0.96218 0.19468 0.39463 0.0
C949 C 0.94035 0.20581 0.41227 0.0
C950 C 0.93386 0.22651 0.44346 0.0
H951 H 0.89259 0.29913 0.43831 0.0
H952 H 0.91447 0.28017 0.42933 0.0
H953 H 0.91615 0.23663 0.46055 0.0
H954 H 0.98684 0.20434 0.39969 0.0
H955 H 0.97778 0.22333 0.42171 0.0
H956 H 0.95927 0.24938 0.41834 0.0
C957 C 0.91129 0.28066 0.44242 0.0
C958 C 0.9259 0.23955 0.45173 0.0
C959 C 0.89871 0.29146 0.44754 0.0
C960 C 0.97387 0.20441 0.40327 0.0
C961 C 0.9687 0.21532 0.4158 0.0
C962 C 0.95024 0.24645 0.4279 0.0
C963 C 0.9187 0.26969 0.45382 0.0
C964 C 0.92954 0.25616 0.44764 0.0
C965 C 0.95182 0.21641 0.4201 0.0
C966 C 0.94575 0.22986 0.43112 0.0
H967 H 0.89791 0.28142 0.48876 0.0
H968 H 0.91972 0.26224 0.47968 0.0
H969 H 0.94517 0.2722 0.43268 0.0
H970 H 0.9362 0.18774 0.39315 0.0
H971 H 0.92724 0.20651 0.41524 0.0
C972 C 0.69333 0.90508 0.44922 0.0
C973 C 0.69307 0.89938 0.46572 0.0
C974 C 0.70383 0.9181 0.4446 0.0
C975 C 0.74449 0.93309 0.455 0.0
H976 H 0.73517 0.96575 0.42076 0.0
C977 C 0.78009 0.97877 0.40459 0.0
C978 C 0.78959 0.96648 0.39657 0.0
C979 C 0.76924 0.97443 0.41748 0.0
C980 C 0.73797 0.95696 0.43059 0.0
H981 H 0.70276 0.90348 0.49056 0.0
H982 H 0.72143 0.9261 0.48235 0.0
H983 H 0.7122 0.95202 0.43513 0.0
H984 H 0.79621 0.94035 0.39652 0.0
H985 H 0.77754 0.93284 0.41916 0.0
H986 H 0.77025 0.93723 0.44968 0.0
C987 C 0.71342 0.92052 0.47305 0.0
C988 C 0.72482 0.94904 0.43871 0.0
C989 C 0.7027 0.90765 0.47774 0.0
C990 C 0.78899 0.95006 0.40246 0.0
C991 C 0.77837 0.94578 0.41549 0.0
C992 C 0.75763 0.94087 0.44674 0.0
C993 C 0.71444 0.92552 0.45634 0.0
C994 C 0.72797 0.9366 0.45056 0.0
C995 C 0.76797 0.95781 0.42273 0.0
C996 C 0.75448 0.95244 0.43404 0.0
H997 H 0.68599 0.89897 0.43971 0.0
H998 H 0.70445 0.92158 0.43159 0.0
H999 H 0.74728 0.92345 0.464 0.0
H1000 H 0.78029 0.99154 0.40027 0.0
H1001 H 0.76138 0.98393 0.4229 0.0
C1002 C 0.04027 0.79327 0.40097 0.0
C1003 C 0.02349 0.79378 0.39622 0.0
C1004 C 0.04549 0.78254 0.41358 0.0
C1005 C 0.05234 0.76153 0.44446 0.0
H1006 H 0.04054 0.71603 0.4334 0.0
C1007 C 0.08464 0.70591 0.47566 0.0
C1008 C 0.09263 0.69591 0.46375 0.0
C1009 C 0.07222 0.71707 0.47082 0.0
C1010 C 0.04373 0.72867 0.43681 0.0
H1011 H -0.00114 0.78423 0.40157 0.0
H1012 H 0.0081 0.76518 0.42343 0.0
H1013 H 0.02635 0.73907 0.41956 0.0
H1014 H 0.09306 0.68874 0.43776 0.0
H1015 H 0.07116 0.70794 0.42939 0.0
H1016 H 0.07028 0.75112 0.46112 0.0
C1017 C 0.01714 0.77316 0.41744 0.0
C1018 C 0.03556 0.74185 0.42899 0.0
C1019 C 0.01187 0.78411 0.405 0.0
C1020 C 0.08714 0.69634 0.44719 0.0
C1021 C 0.07455 0.70727 0.44241 0.0
C1022 C 0.06035 0.74836 0.45245 0.0
C1023 C 0.03406 0.77196 0.4215 0.0
C1024 C 0.04021 0.75838 0.4323 0.0
C1025 C 0.06739 0.71815 0.45407 0.0
C1026 C 0.05653 0.73181 0.44825 0.0
H1027 H 0.04949 0.80061 0.39444 0.0
H1028 H 0.05863 0.78177 0.41637 0.0
H1029 H 0.05611 0.77417 0.44726 0.0
H1030 H 0.08866 0.70587 0.48852 0.0
H1031 H 0.06683 0.72529 0.48004 0.0
C1032 C 0.19426 0.95104 0.58296 0.0
C1033 C 0.19389 0.96749 0.5888 0.0
C1034 C 0.20493 0.94655 0.57004 0.0
C1035 C 0.24573 0.95711 0.55566 0.0
H1036 H 0.23672 0.92344 0.52229 0.0
C1037 C 0.28163 0.90737 0.50948 0.0
C1038 C 0.29085 0.89899 0.52173 0.0
C1039 C 0.27086 0.92029 0.51393 0.0
C1040 C 0.23944 0.93311 0.53128 0.0
H1041 H 0.20358 0.9924 0.58505 0.0
H1042 H 0.22256 0.98442 0.56262 0.0
H1043 H 0.21362 0.93759 0.53602 0.0
H1044 H 0.29713 0.89838 0.54794 0.0
H1045 H 0.27863 0.9211 0.55564 0.0
H1046 H 0.27153 0.95181 0.55173 0.0
C1047 C 0.2145 0.97506 0.568 0.0
C1048 C 0.22622 0.94111 0.5392 0.0
C1049 C 0.2036 0.97961 0.58077 0.0
C1050 C 0.29013 0.90459 0.53826 0.0
C1051 C 0.2796 0.91766 0.54264 0.0
C1052 C 0.25895 0.94896 0.54789 0.0
C1053 C 0.2156 0.95839 0.56287 0.0
C1054 C 0.22925 0.95275 0.55188 0.0
C1055 C 0.26942 0.92522 0.53063 0.0
C1056 C 0.2559 0.93647 0.53606 0.0
H1057 H 0.18686 0.94146 0.58889 0.0
H1058 H 0.20562 0.93357 0.56644 0.0
H1059 H 0.24843 0.96594 0.56548 0.0
H1060 H 0.28192 0.90328 0.49665 0.0
H1061 H 0.26318 0.92597 0.50444 0.0
C1062 C 0.03814 0.19494 0.58429 0.0
C1063 C 0.02154 0.19449 0.58962 0.0
C1064 C 0.04291 0.20541 0.57129 0.0
C1065 C 0.03231 0.24579 0.55561 0.0
H1066 H 0.06671 0.23643 0.52315 0.0
C1067 C 0.08152 0.28151 0.50881 0.0
C1068 C 0.08958 0.29138 0.52079 0.0
C1069 C 0.06894 0.27047 0.51356 0.0
C1070 C 0.05685 0.23922 0.5319 0.0
H1071 H -0.0033 0.20379 0.58485 0.0
H1072 H 0.00516 0.22239 0.56228 0.0
H1073 H 0.05274 0.21343 0.53732 0.0
H1074 H 0.08996 0.29849 0.54679 0.0
H1075 H 0.06779 0.27952 0.55501 0.0
H1076 H 0.03719 0.2716 0.55099 0.0
C1077 C 0.01442 0.21457 0.56814 0.0
C1078 C 0.04895 0.22607 0.54006 0.0
C1079 C 0.0096 0.20388 0.58099 0.0
C1080 C 0.08398 0.29098 0.53732 0.0
C1081 C 0.07124 0.28019 0.542 0.0
C1082 C 0.04035 0.25894 0.5476 0.0
C1083 C 0.03121 0.21578 0.56352 0.0
C1084 C 0.037 0.22925 0.55238 0.0
C1085 C 0.06402 0.2694 0.53029 0.0
C1086 C 0.05307 0.25578 0.53607 0.0
H1087 H 0.0476 0.1878 0.59069 0.0
H1088 H 0.05596 0.20619 0.56808 0.0
H1089 H 0.02323 0.24861 0.56515 0.0
H1090 H 0.08563 0.28154 0.49598 0.0
H1091 H 0.06352 0.26232 0.5043 0.0
C1092 C 0.78373 0.00978 0.58186 0.0
C1093 C 0.79285 0.02208 0.5903 0.0
C1094 C 0.77302 0.01417 0.56888 0.0
C1095 C 0.76112 0.04804 0.54014 0.0
H1096 H 0.71578 0.03593 0.55124 0.0
C1097 C 0.69628 0.08274 0.53755 0.0
C1098 C 0.69587 0.0884 0.52104 0.0
C1099 C 0.70703 0.06994 0.54216 0.0
C1100 C 0.72839 0.03918 0.54779 0.0
H1101 H 0.79902 0.04832 0.59096 0.0
H1102 H 0.78062 0.05593 0.56813 0.0
H1103 H 0.73887 0.02237 0.56555 0.0
H1104 H 0.7056 0.08449 0.49619 0.0
H1105 H 0.72474 0.06228 0.5044 0.0
H1106 H 0.75061 0.06553 0.52306 0.0
C1107 C 0.78162 0.04293 0.57157 0.0
C1108 C 0.7416 0.03135 0.55589 0.0
C1109 C 0.79209 0.0386 0.5847 0.0
C1110 C 0.70565 0.08033 0.50901 0.0
C1111 C 0.71664 0.06769 0.51369 0.0
C1112 C 0.74791 0.05571 0.53189 0.0
C1113 C 0.77154 0.03087 0.56395 0.0
C1114 C 0.75805 0.03621 0.55263 0.0
C1115 C 0.71775 0.06272 0.5304 0.0
C1116 C 0.73142 0.05184 0.53615 0.0
H1117 H 0.78405 -0.00306 0.58594 0.0
H1118 H 0.76541 0.00464 0.56315 0.0
H1119 H 0.7737 0.05195 0.53736 0.0
H1120 H 0.68884 0.08871 0.54707 0.0
H1121 H 0.70774 0.06647 0.55517 0.0
C1122 C 0.89691 0.69657 0.54113 0.0
C1123 C 0.89179 0.69616 0.52444 0.0
C1124 C 0.90956 0.70734 0.54615 0.0
C1125 C 0.94074 0.72817 0.55225 0.0
H1126 H 0.92928 0.77389 0.54177 0.0
C1127 C 0.97342 0.78318 0.58419 0.0
C1128 C 0.96193 0.79302 0.59294 0.0
C1129 C 0.968 0.77226 0.57178 0.0
C1130 C 0.93279 0.76118 0.54458 0.0
H1131 H 0.89645 0.70598 0.49975 0.0
H1132 H 0.91837 0.72514 0.50868 0.0
H1133 H 0.91487 0.75109 0.52768 0.0
H1134 H 0.93603 0.80018 0.59472 0.0
H1135 H 0.92663 0.78139 0.57282 0.0
H1136 H 0.95812 0.73826 0.56971 0.0
C1137 C 0.91265 0.71702 0.51779 0.0
C1138 C 0.92465 0.74815 0.53646 0.0
C1139 C 0.90018 0.70602 0.5127 0.0
C1140 C 0.94514 0.79269 0.58821 0.0
C1141 C 0.93978 0.782 0.57562 0.0
C1142 C 0.94906 0.7412 0.56019 0.0
C1143 C 0.91715 0.71806 0.53463 0.0
C1144 C 0.92814 0.73154 0.54066 0.0
C1145 C 0.95106 0.77127 0.5677 0.0
C1146 C 0.94474 0.75781 0.55685 0.0
H1147 H 0.89067 0.68908 0.55043 0.0
H1148 H 0.91269 0.70799 0.55925 0.0
H1149 H 0.94367 0.71547 0.55566 0.0
H1150 H 0.98643 0.78315 0.58761 0.0
H1151 H 0.97693 0.76415 0.56579 0.0
C1152 C 0.46948 0.28291 0.0913 0.0
C1153 C 0.45933 0.29407 0.10014 0.0
C1154 C 0.46241 0.27134 0.08037 0.0
C1155 C 0.42283 0.24938 0.07589 0.0
H1156 H 0.44145 0.23207 0.0349 0.0
C1157 C 0.3943 0.19194 0.0467 0.0
C1158 C 0.39045 0.19328 0.02974 0.0
C1159 C 0.40552 0.20294 0.05403 0.0
C1160 C 0.43612 0.23681 0.04632 0.0
H1161 H 0.43414 0.30304 0.10326 0.0
H1162 H 0.42189 0.28328 0.08388 0.0
H1163 H 0.45479 0.25576 0.04879 0.0
H1164 H 0.39624 0.20626 0.00683 0.0
H1165 H 0.41559 0.22583 0.01975 0.0
H1166 H 0.40401 0.23092 0.07342 0.0
C1167 C 0.43521 0.28303 0.08578 0.0
C1168 C 0.44378 0.2503 0.0543 0.0
C1169 C 0.44223 0.29442 0.0968 0.0
C1170 C 0.39901 0.20496 0.01995 0.0
C1171 C 0.41011 0.21615 0.02735 0.0
C1172 C 0.41523 0.236 0.06798 0.0
C1173 C 0.4451 0.27086 0.07804 0.0
C1174 C 0.43712 0.25679 0.06912 0.0
C1175 C 0.41291 0.21569 0.04462 0.0
C1176 C 0.42176 0.2295 0.05313 0.0
H1177 H 0.48272 0.28237 0.09366 0.0
H1178 H 0.47036 0.26213 0.0746 0.0
H1179 H 0.41755 0.25383 0.08746 0.0
H1180 H 0.38805 0.18289 0.05449 0.0
H1181 H 0.40779 0.20195 0.06728 0.0
C1182 C 0.40185 0.78171 0.97442 0.0
C1183 C 0.3936 0.79166 0.96266 0.0
C1184 C 0.41426 0.77064 0.96936 0.0
C1185 C 0.42593 0.73943 0.95071 0.0
H1186 H 0.45938 0.74889 0.91731 0.0
C1187 C 0.4453 0.69471 0.89875 0.0
C1188 C 0.46203 0.69415 0.89384 0.0
C1189 C 0.44023 0.70545 0.91142 0.0
C1190 C 0.45033 0.74606 0.92687 0.0
H1191 H 0.3927 0.79883 0.93669 0.0
H1192 H 0.41459 0.77978 0.92793 0.0
H1193 H 0.44536 0.77187 0.93147 0.0
H1194 H 0.48674 0.70366 0.89893 0.0
H1195 H 0.47776 0.72274 0.92089 0.0
H1196 H 0.43014 0.71364 0.94534 0.0
C1197 C 0.41141 0.78043 0.94101 0.0
C1198 C 0.44225 0.7592 0.93488 0.0
C1199 C 0.39882 0.79127 0.946 0.0
C1200 C 0.47376 0.70382 0.90248 0.0
C1201 C 0.46864 0.71477 0.91499 0.0
C1202 C 0.43384 0.7263 0.94254 0.0
C1203 C 0.41882 0.7696 0.95253 0.0
C1204 C 0.42964 0.75599 0.94651 0.0
C1205 C 0.45176 0.71599 0.91925 0.0
C1206 C 0.44576 0.72952 0.9302 0.0
H1207 H 0.39804 0.78173 0.98734 0.0
H1208 H 0.41985 0.76245 0.97848 0.0
H1209 H 0.41614 0.73661 0.95953 0.0
H1210 H 0.436 0.68737 0.89233 0.0
H1211 H 0.42712 0.70624 0.91437 0.0
C1212 C 0.2902 0.44808 0.90369 0.0
C1213 C 0.29062 0.46456 0.89791 0.0
C1214 C 0.27954 0.44358 0.9166 0.0
C1215 C 0.23883 0.45413 0.93123 0.0
H1216 H 0.24803 0.42039 0.96444 0.0
C1217 C 0.20323 0.40418 0.97744 0.0
C1218 C 0.19383 0.39592 0.96523 0.0
C1219 C 0.214 0.4171 0.97298 0.0
C1220 C 0.24526 0.43007 0.9555 0.0
H1221 H 0.281 0.48947 0.90174 0.0
H1222 H 0.26202 0.48146 0.92417 0.0
H1223 H 0.27105 0.4346 0.95063 0.0
H1224 H 0.18725 0.39553 0.93909 0.0
H1225 H 0.20579 0.41822 0.93136 0.0
H1226 H 0.21305 0.4488 0.9353 0.0
C1227 C 0.27004 0.4721 0.91874 0.0
C1228 C 0.25843 0.43812 0.94753 0.0
C1229 C 0.28094 0.47667 0.90598 0.0
C1230 C 0.1944 0.40163 0.94874 0.0
C1231 C 0.20494 0.4147 0.94434 0.0
C1232 C 0.22566 0.44595 0.93906 0.0
C1233 C 0.26892 0.45542 0.92384 0.0
C1234 C 0.25533 0.44977 0.9349 0.0
C1235 C 0.21528 0.42215 0.9563 0.0
C1236 C 0.22877 0.43342 0.95082 0.0
H1237 H 0.29757 0.43851 0.89772 0.0
H1238 H 0.27883 0.4306 0.92017 0.0
H1239 H 0.23608 0.46298 0.92145 0.0
H1240 H 0.20304 0.4 0.99025 0.0
H1241 H 0.2218 0.42269 0.98243 0.0
C1242 C 0.59069 0.19575 0.94561 0.0
C1243 C 0.59552 0.19534 0.96238 0.0
C1244 C 0.57811 0.20649 0.94037 0.0
C1245 C 0.54688 0.22697 0.93374 0.0
H1246 H 0.55709 0.27282 0.94497 0.0
C1247 C 0.5135 0.28161 0.9019 0.0
C1248 C 0.52489 0.29198 0.89364 0.0
C1249 C 0.51895 0.27059 0.9142 0.0
C1250 C 0.55393 0.26007 0.94194 0.0
H1251 H 0.59046 0.20521 0.98698 0.0
H1252 H 0.56865 0.22429 0.9777 0.0
H1253 H 0.57178 0.25022 0.95904 0.0
H1254 H 0.55061 0.2999 0.8926 0.0
H1255 H 0.56006 0.28093 0.91428 0.0
H1256 H 0.52959 0.23684 0.91609 0.0
C1257 C 0.57455 0.21621 0.96867 0.0
C1258 C 0.56224 0.24714 0.95004 0.0
C1259 C 0.58696 0.20525 0.97397 0.0
C1260 C 0.54157 0.29201 0.89873 0.0
C1261 C 0.54696 0.28121 0.9112 0.0
C1262 C 0.53841 0.23989 0.9258 0.0
C1263 C 0.57029 0.21719 0.95176 0.0
C1264 C 0.5592 0.2305 0.94559 0.0
C1265 C 0.53582 0.27001 0.91864 0.0
C1266 C 0.54228 0.25656 0.92942 0.0
H1267 H 0.59704 0.18822 0.93641 0.0
H1268 H 0.57518 0.2071 0.92723 0.0
H1269 H 0.54428 0.21424 0.93015 0.0
H1270 H 0.50056 0.2813 0.8982 0.0
H1271 H 0.51012 0.26211 0.91982 0.0
C1272 C 0.70754 0.51031 0.9046 0.0
C1273 C 0.6973 0.52232 0.89709 0.0
C1274 C 0.71878 0.51494 0.91704 0.0
C1275 C 0.75 0.53348 0.92871 0.0
H1276 H 0.74114 0.56606 0.96318 0.0
C1277 C 0.79406 0.58623 0.94683 0.0
C1278 C 0.79495 0.59135 0.96351 0.0
C1279 C 0.7836 0.57317 0.9422 0.0
C1280 C 0.74383 0.5567 0.95386 0.0
H1281 H 0.68976 0.5482 0.89759 0.0
H1282 H 0.70911 0.5562 0.9195 0.0
H1283 H 0.718 0.55173 0.94969 0.0
H1284 H 0.78643 0.58617 0.98858 0.0
H1285 H 0.76785 0.56349 0.98037 0.0
H1286 H 0.77577 0.53926 0.93213 0.0
C1287 C 0.70856 0.54326 0.91574 0.0
C1288 C 0.73058 0.5486 0.94608 0.0
C1289 C 0.69755 0.53871 0.90313 0.0
C1290 C 0.78599 0.58248 0.97562 0.0
C1291 C 0.77531 0.56957 0.97094 0.0
C1292 C 0.76323 0.54174 0.93635 0.0
C1293 C 0.7197 0.53156 0.92238 0.0
C1294 C 0.73353 0.53733 0.93306 0.0
C1295 C 0.77368 0.56512 0.95412 0.0
C1296 C 0.76023 0.55383 0.94859 0.0
H1297 H 0.70763 0.49759 0.90015 0.0
H1298 H 0.72721 0.50569 0.92202 0.0
H1299 H 0.75262 0.52495 0.91862 0.0
H1300 H 0.80087 0.59281 0.93725 0.0
H1301 H 0.78248 0.57012 0.92912 0.0
C1302 C 0.51197 0.70447 0.08387 0.0
C1303 C 0.52364 0.69455 0.09227 0.0
C1304 C 0.5171 0.71539 0.07134 0.0
C1305 C 0.55179 0.72651 0.0434 0.0
H1306 H 0.54116 0.77217 0.05496 0.0
C1307 C 0.58768 0.79116 0.04001 0.0
C1308 C 0.59275 0.79158 0.02331 0.0
C1309 C 0.57504 0.7804 0.04508 0.0
C1310 C 0.54402 0.75948 0.05142 0.0
H1311 H 0.54953 0.68723 0.09328 0.0
H1312 H 0.55843 0.70602 0.0712 0.0
H1313 H 0.5269 0.74932 0.06908 0.0
H1314 H 0.58801 0.78175 -0.00137 0.0
H1315 H 0.5661 0.76261 0.00761 0.0
H1316 H 0.56949 0.73667 0.02631 0.0
C1317 C 0.54536 0.70547 0.07435 0.0
C1318 C 0.5358 0.74642 0.0594 0.0
C1319 C 0.54028 0.69478 0.08705 0.0
C1320 C 0.58432 0.78171 0.01159 0.0
C1321 C 0.57186 0.77072 0.01671 0.0
C1322 C 0.55984 0.73958 0.03526 0.0
C1323 C 0.53393 0.71631 0.0668 0.0
C1324 C 0.54004 0.72982 0.05589 0.0
C1325 C 0.56742 0.76967 0.03358 0.0
C1326 C 0.55646 0.75617 0.03963 0.0
H1327 H 0.49905 0.70457 0.08766 0.0
H1328 H 0.50805 0.72357 0.06564 0.0
H1329 H 0.55524 0.71382 0.04045 0.0
H1330 H 0.59394 0.79866 0.0493 0.0
H1331 H 0.57197 0.77974 0.05818 0.0
C1332 C 0.20109 0.58349 0.01249 0.0
C1333 C 0.192 0.59218 0.02464 0.0
C1334 C 0.21203 0.5708 0.01713 0.0
C1335 C 0.24378 0.5585 0.0342 0.0
H1336 H 0.23541 0.52611 0.06895 0.0
C1337 C 0.29018 0.54021 0.08477 0.0
C1338 C 0.29062 0.52369 0.09044 0.0
C1339 C 0.27918 0.54487 0.0722 0.0
C1340 C 0.23792 0.53483 0.05899 0.0
H1341 H 0.18617 0.59357 0.05092 0.0
H1342 H 0.205 0.57123 0.05898 0.0
H1343 H 0.21206 0.5403 0.05567 0.0
H1344 H 0.28067 0.49888 0.08674 0.0
H1345 H 0.26111 0.50717 0.06494 0.0
H1346 H 0.26968 0.55384 0.03831 0.0
C1347 C 0.20378 0.57427 0.04591 0.0
C1348 C 0.22457 0.54302 0.05149 0.0
C1349 C 0.19307 0.58712 0.04131 0.0
C1350 C 0.28062 0.5117 0.08257 0.0
C1351 C 0.26938 0.51643 0.07017 0.0
C1352 C 0.25714 0.55048 0.04186 0.0
C1353 C 0.2138 0.5664 0.03394 0.0
C1354 C 0.22742 0.55531 0.03941 0.0
C1355 C 0.26824 0.53316 0.06524 0.0
C1356 C 0.25433 0.53896 0.05469 0.0
H1357 H 0.20054 0.58715 -0.00046 0.0
H1358 H 0.21957 0.56486 0.00768 0.0
H1359 H 0.24634 0.56802 0.02501 0.0
H1360 H 0.29777 0.54969 0.0906 0.0
H1361 H 0.27846 0.55788 0.06874 0.0
C1362 C 0.69798 0.45254 0.08084 0.0
C1363 C 0.69818 0.46887 0.08703 0.0
C1364 C 0.70858 0.44791 0.06793 0.0
C1365 C 0.74989 0.45722 0.05405 0.0
H1366 H 0.7399 0.42431 0.0202 0.0
C1367 C 0.78434 0.40668 0.00761 0.0
C1368 C 0.79331 0.39798 0.01983 0.0
C1369 C 0.77393 0.41987 0.0121 0.0
C1370 C 0.7429 0.43377 0.02933 0.0
H1371 H 0.70885 0.49346 0.08391 0.0
H1372 H 0.72772 0.48522 0.06146 0.0
H1373 H 0.71723 0.43916 0.03391 0.0
H1374 H 0.79949 0.39704 0.04605 0.0
H1375 H 0.78158 0.4202 0.05384 0.0
H1376 H 0.7755 0.45103 0.05023 0.0
C1377 C 0.71926 0.47607 0.06658 0.0
C1378 C 0.72993 0.44217 0.03724 0.0
C1379 C 0.70843 0.48078 0.07935 0.0
C1380 C 0.79267 0.40349 0.03638 0.0
C1381 C 0.78249 0.41681 0.04082 0.0
C1382 C 0.76285 0.44868 0.04627 0.0
C1383 C 0.71977 0.45947 0.06109 0.0
C1384 C 0.73328 0.45352 0.0501 0.0
C1385 C 0.77258 0.42475 0.02883 0.0
C1386 C 0.75944 0.43644 0.03427 0.0
H1387 H 0.69016 0.44313 0.0865 0.0
H1388 H 0.7088 0.435 0.06407 0.0
H1389 H 0.75284 0.46582 0.064 0.0
H1390 H 0.78459 0.40267 -0.00526 0.0
H1391 H 0.76645 0.42583 0.00262 0.0
C1392 C -0.00524 0.22854 0.31853 0.0
C1393 C 0.98253 0.21654 0.31515 0.0
C1394 C -0.00301 0.24209 0.30788 0.0
C1395 C 0.00624 0.26263 0.27765 0.0
H1396 H 0.96872 0.28346 0.25574 0.0
C1397 C 0.01357 0.30272 0.21888 0.0
C1398 C 0.00311 0.31654 0.21682 0.0
C1399 C 0.01129 0.29186 0.23222 0.0
C1400 C 0.97934 0.27795 0.26191 0.0
H1401 H 0.9629 0.20939 0.2981 0.0
H1402 H 0.967 0.23279 0.27935 0.0
H1403 H 0.96387 0.26241 0.27696 0.0
H1404 H 0.98239 0.33016 0.22739 0.0
H1405 H 0.97857 0.31133 0.2509 0.0
H1406 H 0.02171 0.27833 0.26276 0.0
C1407 C 0.97468 0.23195 0.29037 0.0
C1408 C 0.97656 0.26572 0.27392 0.0
C1409 C 0.97241 0.21846 0.30106 0.0
C1410 C 0.99057 0.31953 0.2286 0.0
C1411 C 0.98833 0.3087 0.24201 0.0
C1412 C 0.00902 0.27492 0.2657 0.0
C1413 C 0.98707 0.24387 0.29359 0.0
C1414 C 0.98998 0.25773 0.28174 0.0
C1415 C -0.00144 0.29464 0.24387 0.0
C1416 C -0.00439 0.28254 0.2575 0.0
H1417 H 0.00268 0.22745 0.32937 0.0
H1418 H 0.00648 0.25118 0.31084 0.0
H1419 H 0.01687 0.25664 0.28332 0.0
H1420 H 0.02333 0.30007 0.20998 0.0
H1421 H 0.01923 0.28102 0.23313 0.0
C1422 C 0.76153 0.97155 0.30763 0.0
C1423 C 0.76827 0.98501 0.31651 0.0
C1424 C 0.74812 0.97395 0.29689 0.0
C1425 C 0.72972 0.00512 0.27027 0.0
H1426 H 0.69053 0.97704 0.2707 0.0
C1427 C 0.67596 0.01679 0.2248 0.0
C1428 C 0.66805 0.00283 0.21793 0.0
C1429 C 0.68699 0.01501 0.23807 0.0
C1430 C 0.70147 0.98487 0.27026 0.0
H1431 H 0.76615 0.01149 0.32131 0.0
H1432 H 0.74292 0.01574 0.30219 0.0
H1433 H 0.71218 0.97293 0.29157 0.0
H1434 H 0.66525 0.97606 0.21964 0.0
H1435 H 0.68501 0.9728 0.24235 0.0
H1436 H 0.71959 0.01661 0.24862 0.0
C1437 C 0.74798 0.00334 0.30367 0.0
C1438 C 0.7138 0.98255 0.28227 0.0
C1439 C 0.76121 0.00089 0.31462 0.0
C1440 C 0.67114 0.98706 0.22475 0.0
C1441 C 0.6824 0.98522 0.23785 0.0
C1442 C 0.71755 0.00727 0.25811 0.0
C1443 C 0.74139 0.98991 0.29464 0.0
C1444 C 0.72803 0.99265 0.28235 0.0
C1445 C 0.69059 -0.00083 0.24459 0.0
C1446 C 0.70327 -0.00284 0.25791 0.0
H1447 H 0.76669 0.95917 0.30891 0.0
H1448 H 0.7433 0.96343 0.28996 0.0
H1449 H 0.7407 0.01291 0.26994 0.0
H1450 H 0.67365 0.02913 0.21989 0.0
H1451 H 0.69272 0.02608 0.24317 0.0
C1452 C -0.00595 0.66738 0.23124 0.0
C1453 C 0.98124 0.67022 0.21973 0.0
C1454 C -0.00355 0.67825 0.24459 0.0
C1455 C 0.00558 0.70911 0.26428 0.0
H1456 H 0.9683 0.73025 0.28633 0.0
C1457 C 0.0128 0.76885 0.30305 0.0
C1458 C 0.00287 0.77082 0.31727 0.0
C1459 C 0.01045 0.75526 0.29249 0.0
C1460 C 0.97886 0.72431 0.28048 0.0
H1461 H 0.96073 0.68649 0.21329 0.0
H1462 H 0.96513 0.70563 0.23632 0.0
H1463 H 0.96324 0.70844 0.26594 0.0
H1464 H 0.98301 0.7599 0.33188 0.0
H1465 H 0.9791 0.73598 0.31359 0.0
H1466 H 0.02121 0.72482 0.27899 0.0
C1467 C 0.97315 0.69486 0.23526 0.0
C1468 C 0.97595 0.71195 0.26863 0.0
C1469 C 0.97069 0.68395 0.22199 0.0
C1470 C 0.99077 0.75876 0.32093 0.0
C1471 C 0.98849 0.74511 0.31041 0.0
C1472 C 0.0085 0.72141 0.2762 0.0
C1473 C 0.98614 0.69222 0.24665 0.0
C1474 C 0.98926 0.70439 0.2602 0.0
C1475 C -0.00181 0.74329 0.29598 0.0
C1476 C -0.00484 0.72934 0.28425 0.0
H1477 H 0.0023 0.65682 0.22988 0.0
H1478 H 0.00642 0.67573 0.25328 0.0
H1479 H 0.01612 0.70366 0.25793 0.0
H1480 H 0.0222 0.77797 0.29988 0.0
H1481 H 0.01797 0.75439 0.28135 0.0
C1482 C 0.21937 0.01425 0.3045 0.0
C1483 C 0.21724 0.00391 0.31842 0.0
C1484 C 0.23263 0.01173 0.29362 0.0
C1485 C 0.26211 0.97937 0.28002 0.0
H1486 H 0.28351 0.01665 0.25814 0.0
C1487 C 0.31852 -0.00572 0.2302 0.0
C1488 C 0.31521 0.98175 0.21848 0.0
C1489 C 0.30793 -0.00334 0.24376 0.0
C1490 C 0.27785 0.00609 0.2643 0.0
H1491 H 0.22758 0.98313 0.33214 0.0
H1492 H 0.25097 0.97892 0.3133 0.0
H1493 H 0.26303 0.02181 0.27979 0.0
H1494 H 0.29838 0.96174 0.21183 0.0
H1495 H 0.2797 0.96613 0.23522 0.0
H1496 H 0.27714 0.96365 0.26473 0.0
C1497 C 0.24219 0.98876 0.3106 0.0
C1498 C 0.26593 0.00905 0.27656 0.0
C1499 C 0.22884 0.99122 0.32144 0.0
C1500 C 0.30128 0.97147 0.22069 0.0
C1501 C 0.29063 0.97392 0.23418 0.0
C1502 C 0.27411 0.97641 0.26784 0.0
C1503 C 0.24414 -0.00111 0.29647 0.0
C1504 C 0.25773 -0.00426 0.28438 0.0
C1505 C 0.29376 0.98662 0.24581 0.0
C1506 C 0.28193 0.98973 0.25964 0.0
H1507 H 0.21059 0.0241 0.30181 0.0
H1508 H 0.23359 0.01959 0.28272 0.0
H1509 H 0.25594 0.96882 0.28568 0.0
H1510 H 0.32925 0.00231 0.22887 0.0
H1511 H 0.31085 0.00637 0.25263 0.0
C1512 C 0.01558 0.68299 0.76617 0.0
C1513 C 0.005 0.66926 0.76833 0.0
C1514 C 0.0131 0.69403 0.75301 0.0
C1515 C 0.01022 0.71142 0.71984 0.0
H1516 H 0.96497 0.72457 0.70985 0.0
C1517 C -0.00466 0.75865 0.668 0.0
C1518 C 0.98332 0.77073 0.67179 0.0
C1519 C -0.00237 0.74494 0.67842 0.0
C1520 C 0.97768 0.72108 0.71254 0.0
H1521 H 0.98385 0.656 0.75814 0.0
H1522 H 0.97968 0.67515 0.73495 0.0
H1523 H 0.97007 0.70319 0.73067 0.0
H1524 H 0.96412 0.77785 0.68934 0.0
H1525 H 0.96835 0.75416 0.7077 0.0
H1526 H 0.01787 0.72984 0.70227 0.0
C1527 C 0.9897 0.67756 0.74362 0.0
C1528 C 0.9806 0.70866 0.72431 0.0
C1529 C 0.99213 0.66655 0.75685 0.0
C1530 C 0.97347 0.76872 0.68607 0.0
C1531 C 0.97582 0.75507 0.69653 0.0
C1532 C 0.00731 0.7239 0.70812 0.0
C1533 C 5e-05 0.69153 0.74166 0.0
C1534 C -0.00309 0.70383 0.72826 0.0
C1535 C 0.988 0.74307 0.69289 0.0
C1536 C 0.99101 0.72903 0.70449 0.0
H1537 H 0.02558 0.68543 0.77484 0.0
H1538 H 0.02115 0.70479 0.75203 0.0
H1539 H 0.02293 0.70783 0.72241 0.0
H1540 H 0.00304 0.75981 0.65701 0.0
H1541 H 0.00695 0.7358 0.67513 0.0
C1542 C 0.22815 -0.00226 0.66631 0.0
C1543 C 0.21653 0.98502 0.66915 0.0
C1544 C 0.2416 -9e-05 0.67708 0.0
C1545 C 0.26563 0.97871 0.71032 0.0
H1546 H 0.27721 0.02376 0.72316 0.0
C1547 C 0.3019 0.01474 0.76662 0.0
C1548 C 0.31588 0.00443 0.76835 0.0
C1549 C 0.29104 0.01264 0.75326 0.0
C1550 C 0.27408 0.0111 0.71976 0.0
H1551 H 0.20993 0.96448 0.68537 0.0
H1552 H 0.23312 0.9685 0.70434 0.0
H1553 H 0.25572 0.0192 0.70236 0.0
H1554 H 0.32972 0.98415 0.7572 0.0
H1555 H 0.31093 0.98069 0.73365 0.0
H1556 H 0.28343 0.97059 0.72829 0.0
C1557 C 0.23209 0.97661 0.69363 0.0
C1558 C 0.26191 0.00849 0.70766 0.0
C1559 C 0.21872 0.97437 0.68282 0.0
C1560 C 0.31897 0.9922 0.75626 0.0
C1561 C 0.30816 0.99017 0.74281 0.0
C1562 C 0.27773 0.98132 0.72249 0.0
C1563 C 0.24364 0.98946 0.69096 0.0
C1564 C 0.25739 0.99226 0.70295 0.0
C1565 C 0.29398 0.00026 0.74124 0.0
C1566 C 0.28195 -0.00246 0.7275 0.0
H1567 H 0.22683 0.00606 0.6558 0.0
H1568 H 0.25041 0.00978 0.67452 0.0
H1569 H 0.26263 0.96605 0.7068 0.0
H1570 H 0.29916 0.02425 0.77578 0.0
H1571 H 0.28011 0.02046 0.75259 0.0
C1572 C 0.01355 0.22177 0.6827 0.0
C1573 C 0.00319 0.21944 0.66885 0.0
C1574 C 0.01127 0.2354 0.69322 0.0
C1575 C 0.97939 0.26563 0.70612 0.0
H1576 H 0.01685 0.2871 0.72756 0.0
C1577 C -0.00509 0.32253 0.75535 0.0
C1578 C 0.98255 0.31929 0.76724 0.0
C1579 C -0.00291 0.31188 0.74178 0.0
C1580 C 0.00624 0.28142 0.72152 0.0
H1581 H 0.98264 0.2298 0.65483 0.0
H1582 H 0.97884 0.25379 0.67305 0.0
H1583 H 0.02176 0.26613 0.70628 0.0
H1584 H 0.96258 0.30252 0.77414 0.0
H1585 H 0.9666 0.28375 0.75075 0.0
H1586 H 0.96387 0.28108 0.72121 0.0
C1587 C 0.98852 0.24491 0.67597 0.0
C1588 C 0.00906 0.26923 0.70947 0.0
C1589 C 0.99074 0.23122 0.66549 0.0
C1590 C 0.9722 0.30537 0.76515 0.0
C1591 C 0.97443 0.29467 0.75167 0.0
C1592 C 0.97657 0.27789 0.7181 0.0
C1593 C -0.00135 0.24706 0.69006 0.0
C1594 C -0.00433 0.26099 0.70183 0.0
C1595 C 0.98699 0.29771 0.73989 0.0
C1596 C 0.98996 0.28572 0.72615 0.0
H1597 H 0.02323 0.21288 0.68564 0.0
H1598 H 0.01913 0.23651 0.7041 0.0
H1599 H 0.96878 0.25944 0.7006 0.0
H1600 H 0.003 0.33324 0.75657 0.0
H1601 H 0.00671 0.31471 0.73281 0.0
C1602 C 0.76182 0.0154 0.67812 0.0
C1603 C 0.76889 0.00216 0.66916 0.0
C1604 C 0.74825 0.01265 0.68859 0.0
C1605 C 0.7301 0.98084 0.71454 0.0
H1606 H 0.69069 0.00856 0.71457 0.0
C1607 C 0.67699 0.96859 0.76064 0.0
C1608 C 0.66918 0.98251 0.7677 0.0
C1609 C 0.68773 0.97045 0.74714 0.0
C1610 C 0.70169 0.00082 0.71487 0.0
H1611 H 0.76713 0.97575 0.66384 0.0
H1612 H 0.74361 0.9709 0.68248 0.0
H1613 H 0.71224 0.01309 0.69365 0.0
H1614 H 0.66624 0.00927 0.76608 0.0
H1615 H 0.68552 0.01266 0.74299 0.0
H1616 H 0.72016 0.96905 0.73612 0.0
C1617 C 0.74855 0.98339 0.68129 0.0
C1618 C 0.71395 0.00338 0.70283 0.0
C1619 C 0.76195 0.98618 0.67061 0.0
C1620 C 0.67206 -0.00169 0.76083 0.0
C1621 C 0.68304 0.00022 0.7475 0.0
C1622 C 0.718 0.97845 0.72672 0.0
C1623 C 0.74168 -0.00343 0.69045 0.0
C1624 C 0.72828 0.99343 0.70261 0.0
C1625 C 0.69116 0.98633 0.74059 0.0
C1626 C 0.70365 0.98845 0.72711 0.0
H1627 H 0.76689 0.02785 0.67717 0.0
H1628 H 0.74322 0.02298 0.69562 0.0
H1629 H 0.74116 0.97316 0.71476 0.0
H1630 H 0.67483 0.95624 0.76558 0.0
H1631 H 0.69342 0.95942 0.74191 0.0
C1632 C 0.22357 0.30839 0.96985 0.0
C1633 C 0.21624 0.31606 0.98371 0.0
C1634 C 0.2368 0.29737 0.9719 0.0
C1635 C 0.26775 0.2821 0.00299 0.0
H1636 H 0.26841 0.24349 0.97403 0.0
C1637 C 0.30373 0.22105 0.01629 0.0
C1638 C 0.31342 0.21487 0.00313 0.0
C1639 C 0.29321 0.23465 0.0138 0.0
C1640 C 0.26845 0.2543 0.98209 0.0
H1641 H 0.21708 0.31846 0.01054 0.0
H1642 H 0.23966 0.29867 0.01424 0.0
H1643 H 0.2474 0.26484 0.96995 0.0
H1644 H 0.3199 0.21813 0.97714 0.0
H1645 H 0.30114 0.24164 0.97271 0.0
H1646 H 0.28842 0.27091 0.01559 0.0
C1647 C 0.2356 0.30148 0.00172 0.0
C1648 C 0.25649 0.26661 0.97972 0.0
C1649 C 0.22257 0.31277 -0.00037 0.0
C1650 C 0.31257 0.22264 0.9875 0.0
C1651 C 0.30183 0.23603 0.98495 0.0
C1652 C 0.27955 0.26961 0.00554 0.0
C1653 C 0.24278 0.29349 0.98788 0.0
C1654 C 0.25594 0.28069 0.99014 0.0
C1655 C 0.29201 0.24208 -0.00195 0.0
C1656 C 0.27997 0.25561 -0.00489 0.0
H1657 H 0.21904 0.31087 0.95741 0.0
H1658 H 0.24226 0.29182 0.96091 0.0
H1659 H 0.26794 0.29287 0.01108 0.0
H1660 H 0.3042 0.21534 0.02848 0.0
H1661 H 0.28566 0.23905 0.02405 0.0
C1662 C 0.2165 0.68605 0.01528 0.0
C1663 C 0.21444 0.672 0.00509 0.0
C1664 C 0.22979 0.69691 0.01271 0.0
C1665 C 0.2633 0.7137 0.01006 0.0
H1666 H 0.27461 0.72528 0.96463 0.0
C1667 C 0.31684 0.75888 -0.00503 0.0
C1668 C 0.31369 0.77075 0.98255 0.0
C1669 C 0.30594 0.74558 -0.0026 0.0
C1670 C 0.27156 0.72224 0.97739 0.0
H1671 H 0.22492 0.65802 0.98454 0.0
H1672 H 0.24832 0.67685 0.98023 0.0
H1673 H 0.25317 0.70456 0.96988 0.0
H1674 H 0.29681 0.77791 0.96278 0.0
H1675 H 0.27762 0.75492 0.96725 0.0
H1676 H 0.28117 0.73189 0.01758 0.0
C1677 C 0.23948 0.67965 0.98999 0.0
C1678 C 0.25942 0.71019 0.9804 0.0
C1679 C 0.22613 0.66882 0.99251 0.0
C1680 C 0.29959 0.76893 0.97243 0.0
C1681 C 0.28865 0.75568 0.97493 0.0
C1682 C 0.27539 0.72579 0.00705 0.0
C1683 C 0.24138 0.6939 -3e-05 0.0
C1684 C 0.25502 0.70592 -0.00323 0.0
C1685 C 0.29163 0.74392 0.98752 0.0
C1686 C 0.27952 0.73033 0.99068 0.0
H1687 H 0.20767 0.68886 0.02505 0.0
H1688 H 0.23073 0.7079 0.02046 0.0
H1689 H 0.26037 0.71053 0.02282 0.0
H1690 H 0.32769 0.7599 0.00288 0.0
H1691 H 0.30873 0.73659 0.00704 0.0
C1692 C 0.76242 0.30996 0.01236 0.0
C1693 C 0.77002 0.31828 -0.00099 0.0
C1694 C 0.74936 0.29888 0.0095 0.0
C1695 C 0.73431 0.26987 0.97898 0.0
H1696 H 0.69292 0.27094 0.00364 0.0
C1697 C 0.68361 0.22052 0.96801 0.0
C1698 C 0.67474 0.21492 0.98195 0.0
C1699 C 0.69401 0.23439 0.96918 0.0
C1700 C 0.70449 0.27032 -0.00321 0.0
H1701 H 0.7698 0.3218 0.97227 0.0
H1702 H 0.7472 0.302 0.96725 0.0
H1703 H 0.71334 0.29306 0.00761 0.0
H1704 H 0.66974 0.21938 0.00806 0.0
H1705 H 0.68842 0.24306 0.01037 0.0
H1706 H 0.72606 0.24679 0.96878 0.0
C1707 C 0.75129 0.30423 0.9799 0.0
C1708 C 0.7161 0.28306 -0.00101 0.0
C1709 C 0.76414 0.31556 0.98278 0.0
C1710 C 0.67637 0.22349 -0.00292 0.0
C1711 C 0.687 0.23716 -0.00165 0.0
C1712 C 0.72286 0.25698 0.97699 0.0
C1713 C 0.74389 0.29572 0.99323 0.0
C1714 C 0.73113 0.28288 0.99017 0.0
C1715 C 0.69601 0.24278 0.98443 0.0
C1716 C 0.70783 0.25696 0.98596 0.0
H1717 H 0.76668 0.31188 0.025 0.0
H1718 H 0.74391 0.29236 0.01996 0.0
H1719 H 0.74593 0.26938 0.97219 0.0
H1720 H 0.68243 0.21424 0.95614 0.0
H1721 H 0.70044 0.23852 0.9581 0.0
C1722 C 0.76962 0.68533 0.97199 0.0
C1723 C 0.77161 0.67137 0.98231 0.0
C1724 C 0.7563 0.69617 0.97435 0.0
C1725 C 0.72646 0.70972 0.00634 0.0
H1726 H 0.70503 0.73115 0.96885 0.0
C1727 C 0.66937 0.75852 0.99105 0.0
C1728 C 0.67253 0.77049 0.00339 0.0
C1729 C 0.68021 0.74514 0.98877 0.0
C1730 C 0.71072 0.72512 0.97947 0.0
H1731 H 0.76098 0.65755 0.00288 0.0
H1732 H 0.73752 0.67636 0.00684 0.0
H1733 H 0.72579 0.70969 0.96392 0.0
H1734 H 0.68936 0.77774 0.02317 0.0
H1735 H 0.70843 0.75462 0.019 0.0
H1736 H 0.71122 0.72499 0.0219 0.0
C1737 C 0.74643 0.67909 -0.00287 0.0
C1738 C 0.72278 0.71297 0.97663 0.0
C1739 C 0.75982 0.66827 -0.00519 0.0
C1740 C 0.68658 0.76869 0.01358 0.0
C1741 C 0.69745 0.75537 0.01126 0.0
C1742 C 0.71435 0.72182 0.00918 0.0
C1743 C 0.74461 0.69326 0.98703 0.0
C1744 C 0.73096 0.7053 0.99003 0.0
C1745 C 0.69446 0.7435 -0.00125 0.0
C1746 C 0.7065 0.72983 -0.00423 0.0
H1747 H 0.77854 0.68807 0.96227 0.0
H1748 H 0.75541 0.70709 0.96651 0.0
H1749 H 0.73262 0.70416 0.01695 0.0
H1750 H 0.65857 0.75953 0.98307 0.0
H1751 H 0.67742 0.73609 0.97919 0.0
C1752 C 0.47216 0.71756 0.80016 0.0
C1753 C 0.48222 0.71571 0.81431 0.0
C1754 C 0.4744 0.73108 0.78949 0.0
C1755 C 0.47612 0.76493 0.77313 0.0
H1756 H 0.52125 0.77793 0.76232 0.0
C1757 C 0.49009 0.81927 0.72841 0.0
C1758 C 0.5027 0.81647 0.71666 0.0
C1759 C 0.48783 0.80829 0.74169 0.0
C1760 C 0.50857 0.77441 0.76516 0.0
H1761 H 0.5022 0.72676 0.82865 0.0
H1762 H 0.50593 0.75053 0.81017 0.0
H1763 H 0.51645 0.75607 0.78272 0.0
H1764 H 0.52301 0.80014 0.70974 0.0
H1765 H 0.51889 0.78084 0.73268 0.0
H1766 H 0.46828 0.78275 0.75503 0.0
C1767 C 0.49652 0.74137 0.80714 0.0
C1768 C 0.50581 0.76202 0.77701 0.0
C1769 C 0.49434 0.7278 0.81776 0.0
C1770 C 0.51321 0.80266 0.71862 0.0
C1771 C 0.51091 0.79165 0.73184 0.0
C1772 C 0.47889 0.77727 0.76122 0.0
C1773 C 0.48668 0.74309 0.79279 0.0
C1774 C 0.48956 0.757 0.78099 0.0
C1775 C 0.49811 0.79426 0.74345 0.0
C1776 C 0.49516 0.782 0.75695 0.0
H1777 H 0.46274 0.70842 0.79715 0.0
H1778 H 0.46677 0.73188 0.77843 0.0
H1779 H 0.46344 0.76151 0.77607 0.0
H1780 H 0.48186 0.82988 0.72728 0.0
H1781 H 0.47801 0.81078 0.75056 0.0
C1782 C 0.26232 0.50014 0.81586 0.0
C1783 C 0.26895 0.48411 0.81796 0.0
C1784 C 0.24937 0.50285 0.80462 0.0
C1785 C 0.2152 0.48287 0.7825 0.0
H1786 H 0.22311 0.51608 0.74843 0.0
C1787 C 0.17468 0.48724 0.72351 0.0
C1788 C 0.17222 0.50292 0.71623 0.0
C1789 C 0.18547 0.48543 0.737 0.0
C1790 C 0.22048 0.50699 0.75801 0.0
H1791 H 0.26687 0.45826 0.81049 0.0
H1792 H 0.24397 0.46299 0.79107 0.0
H1793 H 0.24338 0.51219 0.77052 0.0
H1794 H 0.17851 0.5291 0.71771 0.0
H1795 H 0.19677 0.52611 0.74165 0.0
H1796 H 0.19218 0.47781 0.77025 0.0
C1797 C 0.2489 0.47343 0.79803 0.0
C1798 C 0.23216 0.50474 0.77062 0.0
C1799 C 0.26203 0.47076 0.80906 0.0
C1800 C 0.18034 0.51683 0.72298 0.0
C1801 C 0.19089 0.51507 0.73664 0.0
C1802 C 0.20335 0.48531 0.77003 0.0
C1803 C 0.24264 0.48954 0.79553 0.0
C1804 C 0.22971 0.49254 0.78285 0.0
C1805 C 0.19381 0.49931 0.74367 0.0
C1806 C 0.20593 0.49727 0.75751 0.0
H1807 H 0.26741 0.51067 0.82256 0.0
H1808 H 0.24468 0.51537 0.80294 0.0
H1809 H 0.21301 0.47347 0.7919 0.0
H1810 H 0.16863 0.47629 0.71851 0.0
H1811 H 0.18758 0.47305 0.74187 0.0
C1812 C 0.51842 0.26506 0.80601 0.0
C1813 C 0.50455 0.27148 0.81439 0.0
C1814 C 0.51671 0.25156 0.7952 0.0
C1815 C 0.4871 0.21816 0.78222 0.0
H1816 H 0.5137 0.21867 0.74199 0.0
C1817 C 0.47227 0.18085 0.72239 0.0
C1818 C 0.48551 0.17184 0.71542 0.0
C1819 C 0.47501 0.19155 0.73579 0.0
C1820 C 0.50632 0.2183 0.75326 0.0
H1821 H 0.47803 0.26882 0.81822 0.0
H1822 H 0.47485 0.24579 0.79881 0.0
H1823 H 0.51765 0.24033 0.76277 0.0
H1824 H 0.51192 0.16675 0.7171 0.0
H1825 H 0.51676 0.18587 0.7403 0.0
H1826 H 0.47524 0.1965 0.77208 0.0
C1827 C 0.48718 0.25075 0.80091 0.0
C1828 C 0.50862 0.23065 0.76524 0.0
C1829 C 0.48896 0.26405 0.81196 0.0
C1830 C 0.50149 0.17354 0.72224 0.0
C1831 C 0.50428 0.18448 0.73545 0.0
C1832 C 0.4846 0.20598 0.77007 0.0
C1833 C 0.50102 0.2444 0.79229 0.0
C1834 C 0.499 0.2308 0.77987 0.0
C1835 C 0.49108 0.19364 0.74225 0.0
C1836 C 0.49417 0.20599 0.75549 0.0
H1837 H 0.53063 0.27045 0.80782 0.0
H1838 H 0.52773 0.24679 0.78912 0.0
H1839 H 0.47968 0.21765 0.79344 0.0
H1840 H 0.45982 0.17971 0.7174 0.0
H1841 H 0.46467 0.19859 0.74079 0.0
C1842 C 0.80853 0.47251 0.72511 0.0
C1843 C 0.81726 0.48586 0.71796 0.0
C1844 C 0.7979 0.4752 0.73857 0.0
C1845 C 0.77121 0.50666 0.75624 0.0
H1846 H 0.77158 0.47938 0.79602 0.0
C1847 C 0.725 0.51872 0.80933 0.0
C1848 C 0.71819 0.50478 0.81733 0.0
C1849 C 0.73845 0.51695 0.79852 0.0
C1850 C 0.77117 0.48699 0.78491 0.0
H1851 H 0.82197 0.5124 0.71942 0.0
H1852 H 0.80306 0.51712 0.74276 0.0
H1853 H 0.79263 0.47502 0.77457 0.0
H1854 H 0.7202 0.47808 0.82052 0.0
H1855 H 0.74322 0.47483 0.80114 0.0
H1856 H 0.7494 0.51814 0.766 0.0
C1857 C 0.80455 0.5046 0.73798 0.0
C1858 C 0.78328 0.48453 0.7727 0.0
C1859 C 0.81539 0.50188 0.72469 0.0
C1860 C 0.72525 0.48905 0.81455 0.0
C1861 C 0.73854 0.48723 0.80352 0.0
C1862 C 0.75895 0.50895 0.76829 0.0
C1863 C 0.79564 0.4913 0.74494 0.0
C1864 C 0.78336 0.49432 0.75826 0.0
C1865 C 0.74522 0.50114 0.79524 0.0
C1866 C 0.75872 0.4991 0.78277 0.0
H1867 H 0.80979 0.46002 0.7202 0.0
H1868 H 0.79106 0.46477 0.74368 0.0
H1869 H 0.77089 0.51421 0.74508 0.0
H1870 H 0.7199 0.53102 0.8114 0.0
H1871 H 0.74349 0.528 0.7927 0.0
C1872 C 0.51728 0.17746 0.26342 0.0
C1873 C 0.50325 0.16968 0.27027 0.0
C1874 C 0.51556 0.18907 0.25064 0.0
C1875 C 0.48507 0.20625 0.22007 0.0
H1876 H 0.5145 0.24446 0.2216 0.0
C1877 C 0.47298 0.26888 0.18647 0.0
C1878 C 0.48627 0.27514 0.17702 0.0
C1879 C 0.47521 0.25497 0.19664 0.0
C1880 C 0.5063 0.23378 0.22096 0.0
H1881 H 0.47644 0.16766 0.26898 0.0
H1882 H 0.47329 0.18846 0.2472 0.0
H1883 H 0.51806 0.22204 0.24162 0.0
H1884 H 0.51226 0.2718 0.17072 0.0
H1885 H 0.51624 0.24773 0.18892 0.0
H1886 H 0.47287 0.2186 0.19982 0.0
C1887 C 0.48571 0.18529 0.25128 0.0
C1888 C 0.50838 0.22085 0.23235 0.0
C1889 C 0.48748 0.17343 0.26386 0.0
C1890 C 0.5018 0.26722 0.17787 0.0
C1891 C 0.5041 0.25351 0.18828 0.0
C1892 C 0.48282 0.21935 0.20887 0.0
C1893 C 0.49972 0.19343 0.24465 0.0
C1894 C 0.49779 0.2069 0.23208 0.0
C1895 C 0.49083 0.2473 0.19776 0.0
C1896 C 0.49342 0.23321 0.20925 0.0
H1897 H 0.52961 0.17464 0.26803 0.0
H1898 H 0.52667 0.19472 0.24557 0.0
H1899 H 0.47686 0.19561 0.21927 0.0
H1900 H 0.46086 0.27471 0.18599 0.0
H1901 H 0.46483 0.25045 0.20394 0.0
C1902 C 0.80798 0.51604 0.26292 0.0
C1903 C 0.81664 0.50256 0.2699 0.0
C1904 C 0.79772 0.51368 0.24912 0.0
C1905 C 0.77184 0.4825 0.22968 0.0
H1906 H 0.77307 0.51108 0.19084 0.0
C1907 C 0.72733 0.47154 0.17499 0.0
C1908 C 0.72051 0.48563 0.16729 0.0
C1909 C 0.74052 0.47315 0.18614 0.0
C1910 C 0.77242 0.50311 0.20167 0.0
H1911 H 0.82157 0.47611 0.26777 0.0
H1912 H 0.8033 0.47194 0.24383 0.0
H1913 H 0.79341 0.51499 0.21305 0.0
H1914 H 0.72226 0.51244 0.16493 0.0
H1915 H 0.74482 0.51539 0.18491 0.0
H1916 H 0.75048 0.47107 0.21889 0.0
C1917 C 0.80457 0.48432 0.24902 0.0
C1918 C 0.78413 0.50531 0.21432 0.0
C1919 C 0.81504 0.48672 0.26267 0.0
C1920 C 0.72733 0.50135 0.17066 0.0
C1921 C 0.74035 0.50301 0.18204 0.0
C1922 C 0.75998 0.48046 0.21719 0.0
C1923 C 0.79575 0.49775 0.24221 0.0
C1924 C 0.78389 0.49504 0.22844 0.0
C1925 C 0.74699 0.48894 0.19008 0.0
C1926 C 0.76007 0.49076 0.20303 0.0
H1927 H 0.80904 0.5284 0.26821 0.0
H1928 H 0.79094 0.5242 0.24415 0.0
H1929 H 0.77126 0.47458 0.24057 0.0
H1930 H 0.72242 0.45924 0.17246 0.0
H1931 H 0.74556 0.46199 0.19174 0.0
C1932 C 0.51409 0.71765 0.18723 0.0
C1933 C 0.50445 0.71663 0.1727 0.0
C1934 C 0.51147 0.73045 0.19865 0.0
C1935 C 0.4942 0.75117 0.22512 0.0
H1936 H 0.48979 0.79736 0.21182 0.0
C1937 C 0.47124 0.80159 0.27022 0.0
C1938 C 0.48101 0.81605 0.2711 0.0
C1939 C 0.47375 0.79005 0.25749 0.0
C1940 C 0.49104 0.78451 0.21568 0.0
H1941 H 0.48489 0.7285 0.15845 0.0
H1942 H 0.4804 0.75102 0.17843 0.0
H1943 H 0.49553 0.77605 0.19078 0.0
H1944 H 0.50067 0.83012 0.25909 0.0
H1945 H 0.50493 0.80991 0.23672 0.0
H1946 H 0.48972 0.75954 0.24997 0.0
C1947 C 0.48995 0.74186 0.18095 0.0
C1948 C 0.4942 0.77234 0.20366 0.0
C1949 C 0.49246 0.72895 0.16958 0.0
C1950 C 0.49297 0.81901 0.25874 0.0
C1951 C 0.49538 0.80753 0.2459 0.0
C1952 C 0.49086 0.76328 0.23708 0.0
C1953 C 0.49927 0.74258 0.1957 0.0
C1954 C 0.49589 0.75557 0.2083 0.0
C1955 C 0.48596 0.79282 0.24532 0.0
C1956 C 0.48927 0.78006 0.23248 0.0
H1957 H 0.52345 0.70836 0.18996 0.0
H1958 H 0.51894 0.73084 0.20985 0.0
H1959 H 0.49529 0.7383 0.229 0.0
H1960 H 0.4619 0.79899 0.27952 0.0
H1961 H 0.46618 0.7789 0.25721 0.0
C1962 C 0.2604 0.51645 0.17763 0.0
C1963 C 0.26762 0.50321 0.16881 0.0
C1964 C 0.24684 0.51363 0.18811 0.0
C1965 C 0.2291 0.48185 0.21436 0.0
H1966 H 0.18939 0.50915 0.21423 0.0
C1967 C 0.1763 0.46955 0.26079 0.0
C1968 C 0.16842 0.48348 0.26776 0.0
C1969 C 0.18694 0.47136 0.24721 0.0
C1970 C 0.20047 0.50153 0.21457 0.0
H1971 H 0.26618 0.47673 0.16373 0.0
H1972 H 0.24269 0.47178 0.18239 0.0
H1973 H 0.21083 0.51371 0.19321 0.0
H1974 H 0.16524 0.51019 0.26589 0.0
H1975 H 0.18434 0.51351 0.24264 0.0
H1976 H 0.21934 0.47016 0.23607 0.0
C1977 C 0.24749 0.48431 0.18108 0.0
C1978 C 0.21268 0.5041 0.20247 0.0
C1979 C 0.26087 0.48717 0.1704 0.0
C1980 C 0.17111 0.49922 0.26071 0.0
C1981 C 0.18199 0.50109 0.2473 0.0
C1982 C 0.21705 0.47945 0.2266 0.0
C1983 C 0.24046 0.4975 0.19012 0.0
C1984 C 0.22711 0.49431 0.20232 0.0
C1985 C 0.19019 0.4872 0.24048 0.0
C1986 C 0.2026 0.4893 0.22692 0.0
H1987 H 0.26532 0.52895 0.17658 0.0
H1988 H 0.24169 0.52398 0.19505 0.0
H1989 H 0.24024 0.4743 0.21462 0.0
H1990 H 0.17428 0.45723 0.26588 0.0
H1991 H 0.1927 0.46033 0.24206 0.0
C1992 C 0.81237 0.72567 0.48748 0.0
C1993 C 0.81344 0.71806 0.50318 0.0
C1994 C 0.80179 0.7392 0.48501 0.0
C1995 C 0.78017 0.7732 0.50579 0.0
H1996 H 0.74776 0.76869 0.47041 0.0
C1997 C 0.72332 0.81664 0.50016 0.0
C1998 C 0.71695 0.81995 0.48425 0.0
C1999 C 0.73637 0.80536 0.50219 0.0
C2000 C 0.75692 0.77039 0.48012 0.0
H2001 H 0.80479 0.71896 0.52871 0.0
H2002 H 0.7865 0.74289 0.52441 0.0
H2003 H 0.76857 0.74714 0.4744 0.0
H2004 H 0.71974 0.81486 0.45793 0.0
H2005 H 0.74297 0.7958 0.46135 0.0
H2006 H 0.76878 0.79658 0.51139 0.0
C2007 C 0.79377 0.73827 0.51405 0.0
C2008 C 0.76878 0.75797 0.48244 0.0
C2009 C 0.80414 0.72455 0.51647 0.0
C2010 C 0.72429 0.81235 0.47036 0.0
C2011 C 0.73753 0.80133 0.47236 0.0
C2012 C 0.76847 0.7858 0.50331 0.0
C2013 C 0.79234 0.74555 0.49824 0.0
C2014 C 0.78039 0.75919 0.49538 0.0
C2015 C 0.7435 0.79739 0.48833 0.0
C2016 C 0.75657 0.78448 0.49053 0.0
H2017 H 0.8194 0.72093 0.47702 0.0
H2018 H 0.80093 0.74469 0.47273 0.0
H2019 H 0.78911 0.77445 0.51578 0.0
H2020 H 0.71783 0.82229 0.51109 0.0
H2021 H 0.74045 0.8025 0.5147 0.0
C2022 C 0.72438 0.16998 0.48465 0.0
C2023 C 0.71787 0.16779 0.50071 0.0
C2024 C 0.73746 0.18109 0.48193 0.0
C2025 C 0.7721 0.20257 0.50179 0.0
H2026 H 0.764 0.23745 0.46949 0.0
C2027 C 0.81257 0.26169 0.49862 0.0
C2028 C 0.81481 0.26948 0.48317 0.0
C2029 C 0.80187 0.24808 0.50012 0.0
C2030 C 0.76669 0.22764 0.4783 0.0
H2031 H 0.72031 0.17493 0.52662 0.0
H2032 H 0.74344 0.1941 0.52188 0.0
H2033 H 0.74366 0.21535 0.4731 0.0
H2034 H 0.80829 0.26878 0.45703 0.0
H2035 H 0.79021 0.24462 0.45945 0.0
H2036 H 0.79523 0.21461 0.50687 0.0
C2037 C 0.73831 0.18732 0.51141 0.0
C2038 C 0.75497 0.21502 0.4804 0.0
C2039 C 0.72505 0.17645 0.51409 0.0
C2040 C 0.80662 0.26311 0.46914 0.0
C2041 C 0.79617 0.24932 0.47057 0.0
C2042 C 0.78399 0.21504 0.4995 0.0
C2043 C 0.74444 0.18992 0.49528 0.0
C2044 C 0.75747 0.20252 0.4923 0.0
C2045 C 0.79343 0.24178 0.48613 0.0
C2046 C 0.78133 0.22788 0.48788 0.0
H2047 H 0.71908 0.16347 0.4741 0.0
H2048 H 0.74205 0.18287 0.46939 0.0
H2049 H 0.77433 0.19296 0.51096 0.0
H2050 H 0.81869 0.2664 0.50966 0.0
H2051 H 0.7999 0.24282 0.51236 0.0
C2052 C 0.26 0.81123 0.5142 0.0
C2053 C 0.26743 0.8199 0.50098 0.0
C2054 C 0.24675 0.80041 0.51126 0.0
C2055 C 0.2306 0.77287 0.47981 0.0
H2056 H 0.19014 0.7728 0.50601 0.0
C2057 C 0.17945 0.72431 0.46808 0.0
C2058 C 0.1713 0.71778 0.48206 0.0
C2059 C 0.18975 0.7382 0.4696 0.0
C2060 C 0.20144 0.77251 0.4987 0.0
H2061 H 0.26665 0.82435 0.47438 0.0
H2062 H 0.24369 0.80506 0.46921 0.0
H2063 H 0.21083 0.79461 0.51036 0.0
H2064 H 0.16736 0.7207 0.50857 0.0
H2065 H 0.18588 0.74448 0.51141 0.0
H2066 H 0.22182 0.75041 0.46871 0.0
C2067 C 0.24808 0.80677 0.48183 0.0
C2068 C 0.2132 0.78506 0.50115 0.0
C2069 C 0.26116 0.81782 0.48481 0.0
C2070 C 0.17345 0.72553 0.49756 0.0
C2071 C 0.18398 0.73925 0.49915 0.0
C2072 C 0.21899 0.76017 0.47755 0.0
C2073 C 0.24087 0.79788 0.49502 0.0
C2074 C 0.22791 0.78528 0.49178 0.0
C2075 C 0.19237 0.7457 0.4852 0.0
C2076 C 0.2043 0.75974 0.48705 0.0
H2077 H 0.26456 0.81265 0.5268 0.0
H2078 H 0.24146 0.79359 0.52161 0.0
H2079 H 0.24197 0.77266 0.4726 0.0
H2080 H 0.17785 0.71868 0.45593 0.0
H2081 H 0.19569 0.74302 0.45851 0.0
C2082 C 0.16993 0.26211 0.48441 0.0
C2083 C 0.16829 0.26911 0.50035 0.0
C2084 C 0.18067 0.24872 0.48177 0.0
C2085 C 0.20209 0.21425 0.50212 0.0
H2086 H 0.23576 0.2205 0.4682 0.0
C2087 C 0.26043 0.17281 0.49816 0.0
C2088 C 0.26758 0.16992 0.4825 0.0
C2089 C 0.24697 0.18365 0.49979 0.0
C2090 C 0.22626 0.21832 0.47749 0.0
H2091 H 0.17606 0.26724 0.52611 0.0
H2092 H 0.19463 0.24361 0.5215 0.0
H2093 H 0.21425 0.24142 0.47192 0.0
H2094 H 0.26582 0.17537 0.45617 0.0
H2095 H 0.24191 0.19371 0.45885 0.0
H2096 H 0.21388 0.19105 0.50759 0.0
C2097 C 0.18768 0.24857 0.51108 0.0
C2098 C 0.21399 0.23038 0.47965 0.0
C2099 C 0.17715 0.26213 0.51368 0.0
C2100 C 0.26066 0.17755 0.46842 0.0
C2101 C 0.24702 0.18815 0.47 0.0
C2102 C 0.21421 0.20203 0.49979 0.0
C2103 C 0.18972 0.24193 0.49506 0.0
C2104 C 0.20193 0.22854 0.49211 0.0
C2105 C 0.24019 0.19161 0.48574 0.0
C2106 C 0.2266 0.20402 0.48758 0.0
H2107 H 0.16325 0.26723 0.47391 0.0
H2108 H 0.182 0.24373 0.46932 0.0
H2109 H 0.19281 0.21252 0.51173 0.0
H2110 H 0.26558 0.16713 0.50924 0.0
H2111 H 0.24224 0.18618 0.51214 0.0
C2112 C 0.05298 0.34588 0.12521 0.0
C2113 C 0.04777 0.33017 0.13087 0.0
C2114 C 0.06494 0.34721 0.11265 0.0
C2115 C 0.09837 0.32354 0.09191 0.0
H2116 H 0.09086 0.35381 0.05512 0.0
C2117 C 0.13377 0.31792 0.03012 0.0
C2118 C 0.13885 0.3326 0.02208 0.0
C2119 C 0.12355 0.31862 0.04412 0.0
C2120 C 0.09327 0.34547 0.06542 0.0
H2121 H 0.05113 0.30353 0.1278 0.0
H2122 H 0.07182 0.30587 0.10593 0.0
H2123 H 0.07142 0.35337 0.07843 0.0
H2124 H 0.13722 0.35956 0.02257 0.0
H2125 H 0.11943 0.36075 0.04712 0.0
H2126 H 0.12009 0.3155 0.07887 0.0
C2127 C 0.06682 0.31717 0.1113 0.0
C2128 C 0.08214 0.34522 0.07877 0.0
C2129 C 0.05485 0.31584 0.12378 0.0
C2130 C 0.13352 0.34801 0.02844 0.0
C2131 C 0.12326 0.3487 0.04245 0.0
C2132 C 0.1095 0.3238 0.0786 0.0
C2133 C 0.07198 0.33285 0.10557 0.0
C2134 C 0.08443 0.33407 0.09203 0.0
C2135 C 0.11814 0.334 0.05043 0.0
C2136 C 0.10694 0.33459 0.06509 0.0
H2137 H 0.04778 0.35717 0.13043 0.0
H2138 H 0.06877 0.35947 0.10856 0.0
H2139 H 0.10063 0.31502 0.1021 0.0
H2140 H 0.13759 0.30583 0.02555 0.0
H2141 H 0.11962 0.30706 0.04982 0.0
C2142 C 0.6647 0.06047 0.12892 0.0
C2143 C 0.65091 0.05148 0.13475 0.0
C2144 C 0.66273 0.07301 0.11711 0.0
C2145 C 0.63556 0.08648 0.08338 0.0
H2146 H 0.66166 0.12697 0.08631 0.0
C2147 C 0.63562 0.13615 0.03119 0.0
C2148 C 0.6515 0.1417 0.02643 0.0
C2149 C 0.63351 0.1268 0.04572 0.0
C2150 C 0.65432 0.11571 0.08529 0.0
H2151 H 0.62415 0.04873 0.13285 0.0
H2152 H 0.62074 0.07069 0.11203 0.0
H2153 H 0.66155 0.10746 0.10953 0.0
H2154 H 0.67755 0.14209 0.03343 0.0
H2155 H 0.67389 0.12576 0.05856 0.0
H2156 H 0.62874 0.0945 0.05892 0.0
C2157 C 0.63308 0.06794 0.11665 0.0
C2158 C 0.65425 0.10456 0.09859 0.0
C2159 C 0.63504 0.05543 0.1286 0.0
C2160 C 0.66514 0.13802 0.03669 0.0
C2161 C 0.66303 0.12876 0.0512 0.0
C2162 C 0.63565 0.09765 0.07004 0.0
C2163 C 0.64693 0.07684 0.11078 0.0
C2164 C 0.64522 0.08963 0.0976 0.0
C2165 C 0.64723 0.12292 0.05581 0.0
C2166 C 0.64538 0.11217 0.0707 0.0
H2167 H 0.67711 0.05779 0.13339 0.0
H2168 H 0.67368 0.07946 0.11264 0.0
H2169 H 0.62858 0.07501 0.08221 0.0
H2170 H 0.62484 0.13881 0.02358 0.0
H2171 H 0.62117 0.12258 0.04903 0.0
C2172 C 0.92683 0.66991 0.12824 0.0
C2173 C 0.93463 0.65578 0.13495 0.0
C2174 C 0.91484 0.66829 0.11583 0.0
C2175 C 0.9011 0.64035 0.08257 0.0
H2176 H 0.86213 0.66872 0.08266 0.0
C2177 C 0.85169 0.63813 0.03027 0.0
C2178 C 0.84646 0.65371 0.02424 0.0
C2179 C 0.86122 0.63705 0.04477 0.0
C2180 C 0.87299 0.66077 0.08242 0.0
H2181 H 0.93578 0.62881 0.13398 0.0
H2182 H 0.91476 0.62601 0.11221 0.0
H2183 H 0.88099 0.66914 0.10638 0.0
H2184 H 0.84704 0.68033 0.02885 0.0
H2185 H 0.86373 0.67842 0.05396 0.0
H2186 H 0.89327 0.63224 0.05844 0.0
C2187 C 0.91805 0.63834 0.11655 0.0
C2188 C 0.88378 0.66101 0.096 0.0
C2189 C 0.93003 0.63995 0.12906 0.0
C2190 C 0.85081 0.66812 0.03314 0.0
C2191 C 0.86029 0.66703 0.04762 0.0
C2192 C 0.89029 0.64012 0.06896 0.0
C2193 C 0.91037 0.65251 0.10978 0.0
C2194 C 0.89811 0.65103 0.09609 0.0
C2195 C 0.86567 0.6515 0.05356 0.0
C2196 C 0.87629 0.65057 0.06861 0.0
H2197 H 0.93006 0.68229 0.13247 0.0
H2198 H 0.90934 0.67946 0.1107 0.0
H2199 H 0.91212 0.63264 0.08221 0.0
H2200 H 0.84852 0.62678 0.02374 0.0
H2201 H 0.86507 0.6249 0.04913 0.0
C2202 C 0.31889 0.85011 0.03267 0.0
C2203 C 0.33322 0.8457 0.02369 0.0
C2204 C 0.32012 0.85952 0.0472 0.0
C2205 C 0.34709 0.88942 0.06853 0.0
H2206 H 0.31812 0.88006 0.10593 0.0
C2207 C 0.34653 0.92979 0.1283 0.0
C2208 C 0.33062 0.93431 0.13397 0.0
C2209 C 0.34838 0.91765 0.11596 0.0
C2210 C 0.32625 0.88286 0.09556 0.0
H2211 H 0.36011 0.8476 0.02307 0.0
H2212 H 0.36222 0.86407 0.04855 0.0
H2213 H 0.31868 0.86108 0.08227 0.0
H2214 H 0.30422 0.92941 0.13128 0.0
H2215 H 0.30747 0.9084 0.1098 0.0
H2216 H 0.3544 0.91141 0.0817 0.0
C2217 C 0.35004 0.8603 0.04422 0.0
C2218 C 0.32657 0.872 0.08202 0.0
C2219 C 0.34883 0.85081 0.02968 0.0
C2220 C 0.31666 0.92626 0.12722 0.0
C2221 C 0.31852 0.9141 0.11498 0.0
C2222 C 0.34679 0.9003 0.0821 0.0
C2223 C 0.33568 0.86477 0.05311 0.0
C2224 C 0.33672 0.87535 0.0682 0.0
C2225 C 0.33438 0.90972 0.10915 0.0
C2226 C 0.33609 0.89731 0.09559 0.0
H2227 H 0.30666 0.84641 0.02843 0.0
H2228 H 0.3088 0.86299 0.0536 0.0
H2229 H 0.35494 0.89242 0.058 0.0
H2230 H 0.35754 0.93574 0.13326 0.0
H2231 H 0.36076 0.91444 0.11178 0.0
C2232 C 0.05583 0.63915 0.85918 0.0
C2233 C 0.05127 0.65494 0.8532 0.0
C2234 C 0.06777 0.6376 0.87173 0.0
C2235 C 0.10208 0.66036 0.89215 0.0
H2236 H 0.09255 0.63188 0.9299 0.0
C2237 C 0.13508 0.66798 0.95491 0.0
C2238 C 0.13945 0.65364 0.9639 0.0
C2239 C 0.12556 0.66676 0.94047 0.0
C2240 C 0.09554 0.63968 0.91933 0.0
H2241 H 0.05586 0.68147 0.85558 0.0
H2242 H 0.07653 0.67875 0.87741 0.0
H2243 H 0.07369 0.63211 0.90613 0.0
H2244 H 0.13738 0.62672 0.96462 0.0
H2245 H 0.12077 0.62461 0.93928 0.0
H2246 H 0.12375 0.66815 0.90543 0.0
C2247 C 0.07102 0.66755 0.87232 0.0
C2248 C 0.08473 0.63981 0.90572 0.0
C2249 C 0.05906 0.66911 0.85988 0.0
C2250 C 0.1342 0.63802 0.95801 0.0
C2251 C 0.12463 0.6368 0.94354 0.0
C2252 C 0.11287 0.66021 0.90573 0.0
C2253 C 0.07546 0.6518 0.87844 0.0
C2254 C 0.08773 0.6504 0.89213 0.0
C2255 C 0.12018 0.65118 0.93465 0.0
C2256 C 0.10955 0.65012 0.91961 0.0
H2257 H 0.05007 0.62798 0.85429 0.0
H2258 H 0.07104 0.62529 0.87612 0.0
H2259 H 0.10488 0.66841 0.88172 0.0
H2260 H 0.13887 0.68022 0.95909 0.0
H2261 H 0.12213 0.6781 0.93405 0.0
C2262 C 0.34804 0.05452 0.85918 0.0
C2263 C 0.33214 0.04998 0.8535 0.0
C2264 C 0.34989 0.06668 0.8715 0.0
C2265 C 0.32788 0.10173 0.89138 0.0
H2266 H 0.35597 0.09241 0.92944 0.0
C2267 C 0.31967 0.13518 0.95371 0.0
C2268 C 0.33382 0.13953 0.96299 0.0
C2269 C 0.32113 0.12564 0.9393 0.0
C2270 C 0.3483 0.09534 0.91876 0.0
H2271 H 0.30574 0.05484 0.85619 0.0
H2272 H 0.30898 0.07593 0.87761 0.0
H2273 H 0.35561 0.07315 0.90592 0.0
H2274 H 0.36067 0.13739 0.96426 0.0
H2275 H 0.36321 0.12071 0.93894 0.0
H2276 H 0.32032 0.12373 0.90429 0.0
C2277 C 0.32003 0.0702 0.87246 0.0
C2278 C 0.34809 0.08431 0.90531 0.0
C2279 C 0.31817 0.058 0.86026 0.0
C2280 C 0.34952 0.13424 0.95741 0.0
C2281 C 0.35097 0.12462 0.94296 0.0
C2282 C 0.32811 0.11276 0.90478 0.0
C2283 C 0.33588 0.07464 0.87825 0.0
C2284 C 0.33758 0.08721 0.89166 0.0
C2285 C 0.33678 0.1202 0.93378 0.0
C2286 C 0.33802 0.10949 0.91879 0.0
H2287 H 0.35906 0.04858 0.85421 0.0
H2288 H 0.36226 0.06993 0.87568 0.0
H2289 H 0.3199 0.10445 0.88088 0.0
H2290 H 0.30738 0.13901 0.95763 0.0
H2291 H 0.30992 0.12222 0.93267 0.0
C2292 C 0.85425 0.31882 0.95644 0.0
C2293 C 0.84879 0.33366 0.96391 0.0
C2294 C 0.86529 0.31923 0.94307 0.0
C2295 C 0.88154 0.34608 0.90973 0.0
H2296 H 0.91774 0.31425 0.90956 0.0
C2297 C 0.93457 0.34679 0.86072 0.0
C2298 C 0.93965 0.33121 0.85459 0.0
C2299 C 0.92342 0.34782 0.87403 0.0
C2300 C 0.90761 0.32312 0.90933 0.0
H2301 H 0.85051 0.3606 0.96301 0.0
H2302 H 0.8699 0.36127 0.93965 0.0
H2303 H 0.89837 0.31472 0.9328 0.0
H2304 H 0.93667 0.3045 0.85743 0.0
H2305 H 0.91718 0.30632 0.88041 0.0
H2306 H 0.89079 0.3544 0.88615 0.0
C2307 C 0.86551 0.34934 0.94411 0.0
C2308 C 0.89651 0.32338 0.92265 0.0
C2309 C 0.85446 0.34894 0.95754 0.0
C2310 C 0.93314 0.31671 0.86189 0.0
C2311 C 0.92202 0.31774 0.87515 0.0
C2312 C 0.89266 0.3458 0.89636 0.0
C2313 C 0.87115 0.33447 0.93684 0.0
C2314 C 0.88325 0.33474 0.92292 0.0
C2315 C 0.91715 0.33329 0.88149 0.0
C2316 C 0.90571 0.33419 0.89594 0.0
H2317 H 0.85008 0.30683 0.96096 0.0
H2318 H 0.86919 0.30757 0.93756 0.0
H2319 H 0.87136 0.35489 0.90953 0.0
H2320 H 0.93935 0.3582 0.85537 0.0
H2321 H 0.91997 0.35998 0.87871 0.0
C2322 C 0.6373 0.85036 0.95574 0.0
C2323 C 0.65295 0.84535 0.96172 0.0
C2324 C 0.63604 0.85999 0.94131 0.0
C2325 C 0.65956 0.87257 0.90377 0.0
H2326 H 0.63106 0.91145 0.90452 0.0
C2327 C 0.66853 0.92748 0.85915 0.0
C2328 C 0.6544 0.93522 0.85239 0.0
C2329 C 0.66691 0.91524 0.87132 0.0
C2330 C 0.63887 0.90049 0.904 0.0
H2331 H 0.6795 0.84637 0.95704 0.0
H2332 H 0.67728 0.86321 0.93207 0.0
H2333 H 0.63074 0.89215 0.92795 0.0
H2334 H 0.62746 0.93603 0.85306 0.0
H2335 H 0.62467 0.91457 0.87443 0.0
H2336 H 0.66798 0.88111 0.88002 0.0
C2337 C 0.66597 0.85955 0.9384 0.0
C2338 C 0.63869 0.88943 0.91742 0.0
C2339 C 0.66725 0.84998 0.95281 0.0
C2340 C 0.63859 0.93033 0.85802 0.0
C2341 C 0.63699 0.9181 0.8703 0.0
C2342 C 0.65976 0.88362 0.89039 0.0
C2343 C 0.65038 0.86473 0.93252 0.0
C2344 C 0.64928 0.87553 0.91759 0.0
C2345 C 0.65115 0.91045 0.87709 0.0
C2346 C 0.64967 0.89788 0.89051 0.0
H2347 H 0.62604 0.84698 0.96229 0.0
H2348 H 0.62384 0.86369 0.937 0.0
H2349 H 0.66763 0.86179 0.90339 0.0
H2350 H 0.6809 0.93094 0.85511 0.0
H2351 H 0.67807 0.90976 0.87649 0.0
C2352 C 0.12686 0.05976 0.31927 0.0
C2353 C 0.13334 0.05167 0.33334 0.0
C2354 C 0.11471 0.07201 0.32096 0.0
C2355 C 0.08162 0.08615 0.34878 0.0
H2356 H 0.08268 0.1254 0.32073 0.0
C2357 C 0.02983 0.13618 0.35025 0.0
C2358 C 0.02413 0.14141 0.33456 0.0
C2359 C 0.04424 0.12655 0.35163 0.0
C2360 C 0.08217 0.11447 0.3286 0.0
H2361 H 0.13222 0.05025 0.36027 0.0
H2362 H 0.1109 0.07172 0.3632 0.0
H2363 H 0.10607 0.10614 0.32047 0.0
H2364 H 0.02926 0.14079 0.30805 0.0
H2365 H 0.05419 0.12397 0.31046 0.0
H2366 H 0.05753 0.09429 0.35661 0.0
C2367 C 0.11523 0.06846 0.35086 0.0
C2368 C 0.09557 0.10345 0.32846 0.0
C2369 C 0.12748 0.05623 0.34918 0.0
C2370 C 0.03328 0.137 0.32034 0.0
C2371 C 0.04766 0.12745 0.32172 0.0
C2372 C 0.06819 0.09718 0.34892 0.0
C2373 C 0.10871 0.07645 0.33675 0.0
C2374 C 0.09528 0.089 0.33828 0.0
C2375 C 0.05327 0.12204 0.33736 0.0
C2376 C 0.06818 0.11127 0.33856 0.0
H2377 H 0.13107 0.05658 0.30687 0.0
H2378 H 0.10976 0.07775 0.30983 0.0
H2379 H 0.08098 0.07504 0.35638 0.0
H2380 H 0.02309 0.13938 0.36147 0.0
H2381 H 0.04833 0.12267 0.36386 0.0
C2382 C 0.931 0.12295 0.31545 0.0
C2383 C 0.9378 0.13045 0.32971 0.0
C2384 C 0.91891 0.11059 0.31689 0.0
C2385 C 0.90273 0.07903 0.34556 0.0
H2386 H 0.86542 0.07849 0.31504 0.0
C2387 C 0.85104 0.02896 0.34857 0.0
C2388 C 0.84603 0.02223 0.33322 0.0
C2389 C 0.86135 0.04297 0.34913 0.0
C2390 C 0.87583 0.0784 0.32358 0.0
H2391 H 0.93715 0.13086 0.3567 0.0
H2392 H 0.91597 0.1092 0.35918 0.0
H2393 H 0.88504 0.10158 0.3143 0.0
H2394 H 0.84788 0.02501 0.30641 0.0
H2395 H 0.86593 0.04923 0.30741 0.0
H2396 H 0.89367 0.05568 0.35463 0.0
C2397 C 0.92011 0.11287 0.3469 0.0
C2398 C 0.88705 0.09163 0.32316 0.0
C2399 C 0.93218 0.12532 0.34546 0.0
C2400 C 0.85145 0.02988 0.31846 0.0
C2401 C 0.86172 0.04385 0.31902 0.0
C2402 C 0.8915 0.06576 0.34596 0.0
C2403 C 0.91335 0.10539 0.33261 0.0
C2404 C 0.90077 0.09197 0.33397 0.0
C2405 C 0.86682 0.05055 0.33435 0.0
C2406 C 0.87807 0.06518 0.33479 0.0
H2407 H 0.93503 0.12656 0.30312 0.0
H2408 H 0.91413 0.10489 0.30566 0.0
H2409 H 0.91327 0.07886 0.35393 0.0
H2410 H 0.84706 0.0234 0.36017 0.0
H2411 H 0.86494 0.04793 0.36113 0.0
C2412 C 0.85822 0.92721 0.31893 0.0
C2413 C 0.85177 0.93563 0.33283 0.0
C2414 C 0.87029 0.91493 0.32088 0.0
C2415 C 0.90332 0.90127 0.34898 0.0
H2416 H 0.90218 0.86145 0.32172 0.0
C2417 C 0.95516 0.85133 0.3513 0.0
C2418 C 0.96082 0.8458 0.33569 0.0
C2419 C 0.94072 0.86094 0.35254 0.0
C2420 C 0.9027 0.87254 0.32937 0.0
H2421 H 0.85285 0.93759 0.35973 0.0
H2422 H 0.87405 0.91607 0.36311 0.0
H2423 H 0.87882 0.88074 0.32109 0.0
H2424 H 0.95559 0.84584 0.30919 0.0
H2425 H 0.93062 0.86263 0.31136 0.0
H2426 H 0.92741 0.89326 0.35695 0.0
C2427 C 0.86975 0.91909 0.3507 0.0
C2428 C 0.88933 0.88357 0.32902 0.0
C2429 C 0.85757 0.93135 0.34877 0.0
C2430 C 0.9516 0.84987 0.32142 0.0
C2431 C 0.93719 0.85941 0.32267 0.0
C2432 C 0.91673 0.89022 0.34932 0.0
C2433 C 0.87626 0.91078 0.33676 0.0
C2434 C 0.88965 0.89823 0.33854 0.0
C2435 C 0.93163 0.86513 0.33821 0.0
C2436 C 0.91671 0.87592 0.33925 0.0
H2437 H 0.85405 0.93017 0.30647 0.0
H2438 H 0.87524 0.90894 0.30987 0.0
H2439 H 0.90399 0.91254 0.35635 0.0
H2440 H 0.96195 0.84839 0.36254 0.0
H2441 H 0.93666 0.86506 0.3647 0.0
C2442 C 0.13402 0.95876 0.34915 0.0
C2443 C 0.13947 0.96546 0.33394 0.0
C2444 C 0.123 0.94529 0.34942 0.0
C2445 C 0.09141 0.9249 0.32342 0.0
H2446 H 0.09683 0.88749 0.35339 0.0
C2447 C 0.05306 0.86531 0.31589 0.0
C2448 C 0.04668 0.85776 0.33031 0.0
C2449 C 0.06458 0.87822 0.31704 0.0
C2450 C 0.09504 0.89795 0.34509 0.0
H2451 H 0.13796 0.96292 0.30708 0.0
H2452 H 0.1189 0.93948 0.30759 0.0
H2453 H 0.11675 0.91048 0.35419 0.0
H2454 H 0.04763 0.85774 0.35729 0.0
H2455 H 0.06767 0.8805 0.35928 0.0
H2456 H 0.06975 0.91252 0.31432 0.0
C2457 C 0.12293 0.94478 0.3193 0.0
C2458 C 0.10645 0.91109 0.34554 0.0
C2459 C 0.13394 0.95817 0.31903 0.0
C2460 C 0.05229 0.86329 0.34593 0.0
C2461 C 0.06383 0.87627 0.34708 0.0
C2462 C 0.08002 0.91183 0.323 0.0
C2463 C 0.11718 0.93832 0.33448 0.0
C2464 C 0.10484 0.92461 0.33457 0.0
C2465 C 0.06998 0.88397 0.33263 0.0
C2466 C 0.0818 0.89811 0.33368 0.0
H2467 H 0.13805 0.96406 0.36086 0.0
H2468 H 0.11871 0.94062 0.3613 0.0
H2469 H 0.08963 0.93531 0.31506 0.0
H2470 H 0.04913 0.86129 0.30364 0.0
H2471 H 0.06931 0.88367 0.30566 0.0
C2472 C 0.03032 0.85145 0.63663 0.0
C2473 C 0.02483 0.84608 0.65235 0.0
C2474 C 0.04466 0.86118 0.63514 0.0
C2475 C 0.08273 0.87353 0.65786 0.0
H2476 H 0.08078 0.91319 0.63047 0.0
C2477 C 0.12643 0.92895 0.6676 0.0
C2478 C 0.1328 0.93727 0.6536 0.0
C2479 C 0.11451 0.9165 0.6658 0.0
C2480 C 0.08163 0.90202 0.63795 0.0
H2481 H 0.03028 0.84654 0.6788 0.0
H2482 H 0.05508 0.86354 0.67621 0.0
H2483 H 0.0576 0.89359 0.63022 0.0
H2484 H 0.13169 0.93889 0.62668 0.0
H2485 H 0.11072 0.91707 0.62356 0.0
H2486 H 0.10655 0.88216 0.66591 0.0
C2487 C 0.04845 0.86009 0.665 0.0
C2488 C 0.06836 0.89079 0.63781 0.0
C2489 C 0.03413 0.85043 0.66649 0.0
C2490 C 0.12703 0.93274 0.63772 0.0
C2491 C 0.11498 0.9203 0.63593 0.0
C2492 C 0.09596 0.88475 0.65802 0.0
C2493 C 0.05383 0.86566 0.64933 0.0
C2494 C 0.06862 0.87661 0.64804 0.0
C2495 C 0.10859 0.91207 0.64997 0.0
C2496 C 0.09539 0.8993 0.64835 0.0
H2497 H 0.02346 0.84829 0.62548 0.0
H2498 H 0.04858 0.86518 0.62289 0.0
H2499 H 0.08344 0.86254 0.66562 0.0
H2500 H 0.13059 0.93211 0.68003 0.0
H2501 H 0.10964 0.91058 0.67688 0.0
C2502 C 0.1332 0.0304 0.63805 0.0
C2503 C 0.1387 0.02382 0.6533 0.0
C2504 C 0.1223 0.04395 0.63772 0.0
C2505 C 0.09121 0.06508 0.66381 0.0
H2506 H 0.09673 0.10191 0.63314 0.0
C2507 C 0.05406 0.1254 0.67105 0.0
C2508 C 0.04739 0.13269 0.65663 0.0
C2509 C 0.06538 0.11233 0.66989 0.0
C2510 C 0.09492 0.09162 0.64164 0.0
H2511 H 0.13737 0.02664 0.68013 0.0
H2512 H 0.11854 0.05024 0.67951 0.0
H2513 H 0.11631 0.07865 0.63243 0.0
H2514 H 0.04764 0.13211 0.62964 0.0
H2515 H 0.06739 0.1091 0.62764 0.0
H2516 H 0.0699 0.07794 0.67305 0.0
C2517 C 0.12243 0.04478 0.66782 0.0
C2518 C 0.10613 0.07832 0.64124 0.0
C2519 C 0.13331 0.03129 0.66816 0.0
C2520 C 0.05254 0.12677 0.641 0.0
C2521 C 0.06391 0.11364 0.63984 0.0
C2522 C 0.08004 0.07832 0.6642 0.0
C2523 C 0.11664 0.05114 0.65262 0.0
C2524 C 0.10448 0.065 0.65246 0.0
C2525 C 0.07031 0.10618 0.65429 0.0
C2526 C 0.08187 0.09184 0.65326 0.0
H2527 H 0.13712 0.02495 0.62637 0.0
H2528 H 0.11797 0.04853 0.62581 0.0
H2529 H 0.08939 0.05483 0.67237 0.0
H2530 H 0.05048 0.12971 0.6833 0.0
H2531 H 0.07033 0.10706 0.68126 0.0
C2532 C 0.95597 0.13673 0.63892 0.0
C2533 C 0.96203 0.14297 0.6541 0.0
C2534 C 0.94218 0.12612 0.63861 0.0
C2535 C 0.91959 0.09688 0.66553 0.0
H2536 H 0.88445 0.10043 0.63273 0.0
C2537 C 0.8596 0.05912 0.67157 0.0
C2538 C 0.85333 0.05144 0.65717 0.0
C2539 C 0.87236 0.0708 0.67051 0.0
C2540 C 0.89426 0.09919 0.64186 0.0
H2541 H 0.95795 0.14341 0.68081 0.0
H2542 H 0.93393 0.12511 0.68022 0.0
H2543 H 0.90769 0.12006 0.63208 0.0
H2544 H 0.85532 0.05036 0.63027 0.0
H2545 H 0.87781 0.07072 0.62844 0.0
H2546 H 0.90632 0.07604 0.67531 0.0
C2547 C 0.93999 0.12816 0.66858 0.0
C2548 C 0.90755 0.11042 0.64149 0.0
C2549 C 0.95373 0.13874 0.6689 0.0
C2550 C 0.85988 0.05603 0.64161 0.0
C2551 C 0.87271 0.06775 0.64055 0.0
C2552 C 0.90636 0.08568 0.66589 0.0
C2553 C 0.93422 0.12154 0.65348 0.0
C2554 C 0.92026 0.10947 0.65344 0.0
C2555 C 0.87923 0.07508 0.65502 0.0
C2556 C 0.89347 0.08679 0.65417 0.0
H2557 H 0.96206 0.13975 0.62729 0.0
H2558 H 0.93806 0.12113 0.62679 0.0
H2559 H 0.92938 0.09558 0.67468 0.0
H2560 H 0.85476 0.05601 0.68376 0.0
H2561 H 0.87689 0.07647 0.68186 0.0
C2562 C 0.93198 0.86459 0.67256 0.0
C2563 C 0.93872 0.85716 0.65823 0.0
C2564 C 0.91998 0.87703 0.67123 0.0
C2565 C 0.90402 0.90889 0.6428 0.0
H2566 H 0.86649 0.90924 0.67306 0.0
C2567 C 0.85233 0.9588 0.6394 0.0
C2568 C 0.847 0.96542 0.65469 0.0
C2569 C 0.8627 0.94485 0.63896 0.0
C2570 C 0.87697 0.90939 0.6646 0.0
H2571 H 0.93806 0.85697 0.63124 0.0
H2572 H 0.91703 0.87877 0.62895 0.0
H2573 H 0.88611 0.88617 0.67382 0.0
H2574 H 0.84839 0.96251 0.68151 0.0
H2575 H 0.86657 0.9384 0.68071 0.0
H2576 H 0.89504 0.93227 0.63378 0.0
C2577 C 0.92115 0.87498 0.6412 0.0
C2578 C 0.88819 0.89617 0.66503 0.0
C2579 C 0.93313 0.86245 0.64253 0.0
C2580 C 0.85219 0.95772 0.66951 0.0
C2581 C 0.86255 0.94381 0.66905 0.0
C2582 C 0.89281 0.92216 0.6424 0.0
C2583 C 0.91445 0.88238 0.65555 0.0
C2584 C 0.90196 0.89588 0.65429 0.0
C2585 C 0.86795 0.93723 0.65379 0.0
C2586 C 0.87927 0.92266 0.65345 0.0
H2587 H 0.936 0.86084 0.68486 0.0
H2588 H 0.91522 0.88266 0.68251 0.0
H2589 H 0.91461 0.9091 0.63449 0.0
H2590 H 0.84853 0.96439 0.62776 0.0
H2591 H 0.86651 0.93997 0.62699 0.0
C2592 C 0.34625 0.02763 0.13604 0.0
C2593 C 0.33097 0.02083 0.14113 0.0
C2594 C 0.34669 0.04162 0.12571 0.0
C2595 C 0.3209 0.07681 0.11109 0.0
H2596 H 0.35099 0.07705 0.07341 0.0
C2597 C 0.31249 0.12108 0.05564 0.0
C2598 C 0.32673 0.12858 0.04883 0.0
C2599 C 0.31394 0.10872 0.06774 0.0
C2600 C 0.34268 0.07728 0.084 0.0
H2601 H 0.30418 0.02351 0.13943 0.0
H2602 H 0.30498 0.04769 0.12135 0.0
H2603 H 0.35193 0.05408 0.09324 0.0
H2604 H 0.35369 0.12896 0.04944 0.0
H2605 H 0.35618 0.10733 0.07061 0.0
H2606 H 0.31145 0.09984 0.1017 0.0
C2607 C 0.31662 0.04238 0.12551 0.0
C2608 C 0.34323 0.06413 0.09537 0.0
C2609 C 0.31618 0.02843 0.1358 0.0
C2610 C 0.34246 0.12342 0.05441 0.0
C2611 C 0.34391 0.11099 0.06648 0.0
C2612 C 0.32033 0.08992 0.09972 0.0
C2613 C 0.33187 0.04911 0.12029 0.0
C2614 C 0.33217 0.06364 0.10891 0.0
C2615 C 0.32965 0.10353 0.07328 0.0
C2616 C 0.33105 0.09017 0.08593 0.0
H2617 H 0.35788 0.02211 0.13995 0.0
H2618 H 0.35864 0.04662 0.12203 0.0
H2619 H 0.31244 0.07696 0.12156 0.0
H2620 H 0.30017 0.12472 0.05162 0.0
H2621 H 0.30272 0.10304 0.07256 0.0
C2622 C 0.31925 0.95525 0.84954 0.0
C2623 C 0.33383 0.96342 0.84444 0.0
C2624 C 0.32007 0.94112 0.85956 0.0
C2625 C 0.34698 0.91986 0.88966 0.0
H2626 H 0.31602 0.8835 0.88286 0.0
C2627 C 0.34577 0.86101 0.93144 0.0
C2628 C 0.32989 0.85599 0.93675 0.0
C2629 C 0.34753 0.87319 0.91913 0.0
C2630 C 0.3247 0.89359 0.88495 0.0
H2631 H 0.36076 0.96295 0.84573 0.0
H2632 H 0.36216 0.93814 0.86322 0.0
H2633 H 0.31692 0.90635 0.86296 0.0
H2634 H 0.30342 0.85977 0.9332 0.0
H2635 H 0.30651 0.88096 0.91187 0.0
H2636 H 0.35457 0.90716 0.91182 0.0
C2637 C 0.3501 0.94282 0.85954 0.0
C2638 C 0.32521 0.90668 0.87357 0.0
C2639 C 0.34929 0.95698 0.84946 0.0
C2640 C 0.31584 0.86332 0.92942 0.0
C2641 C 0.3176 0.87539 0.91709 0.0
C2642 C 0.34649 0.90673 0.90105 0.0
C2643 C 0.33548 0.93477 0.86475 0.0
C2644 C 0.33612 0.92013 0.87597 0.0
C2645 C 0.33344 0.88048 0.91181 0.0
C2646 C 0.33511 0.89362 0.89898 0.0
H2647 H 0.30713 0.95986 0.84595 0.0
H2648 H 0.30856 0.93538 0.86357 0.0
H2649 H 0.35542 0.93012 0.89194 0.0
H2650 H 0.35685 0.8556 0.93682 0.0
H2651 H 0.3599 0.8768 0.91523 0.0
C2652 C 0.03293 0.31925 0.84717 0.0
C2653 C 0.02459 0.33405 0.84307 0.0
C2654 C 0.0466 0.31953 0.85782 0.0
C2655 C 0.07877 0.34649 0.87623 0.0
H2656 H 0.07925 0.31252 0.91048 0.0
C2657 C 0.12567 0.34581 0.93128 0.0
C2658 C 0.132 0.33016 0.93587 0.0
C2659 C 0.113 0.34704 0.91942 0.0
C2660 C 0.07942 0.32198 0.90088 0.0
H2661 H 0.02445 0.36085 0.8465 0.0
H2662 H 0.04835 0.36128 0.86524 0.0
H2663 H 0.05656 0.31329 0.89056 0.0
H2664 H 0.13039 0.3036 0.93113 0.0
H2665 H 0.10857 0.30578 0.91042 0.0
H2666 H 0.10174 0.35514 0.88665 0.0
C2667 C 0.04431 0.34949 0.86011 0.0
C2668 C 0.06641 0.32242 0.88946 0.0
C2669 C 0.03058 0.34922 0.84944 0.0
C2670 C 0.1257 0.31584 0.92804 0.0
C2671 C 0.11311 0.31708 0.91621 0.0
C2672 C 0.09186 0.34604 0.88768 0.0
C2673 C 0.05226 0.3346 0.86463 0.0
C2674 C 0.06601 0.33457 0.87691 0.0
C2675 C 0.10644 0.33265 0.91193 0.0
C2676 C 0.09239 0.33365 0.90003 0.0
H2677 H 0.02877 0.30736 0.84239 0.0
H2678 H 0.05268 0.30789 0.86082 0.0
H2679 H 0.07882 0.35595 0.86663 0.0
H2680 H 0.13027 0.35708 0.93707 0.0
H2681 H 0.10805 0.3592 0.91644 0.0
C2682 C 0.64521 0.12735 0.92894 0.0
C2683 C 0.658 0.12697 0.94082 0.0
C2684 C 0.6441 0.11494 0.91679 0.0
C2685 C 0.66938 0.08142 0.89708 0.0
H2686 H 0.62666 0.06665 0.88047 0.0
C2687 C 0.63988 0.02374 0.85639 0.0
C2688 C 0.65292 0.02157 0.845 0.0
C2689 C 0.63988 0.03729 0.8673 0.0
C2690 C 0.6387 0.07048 0.88508 0.0
H2691 H 0.67923 0.113 0.94973 0.0
H2692 H 0.67686 0.09101 0.92916 0.0
H2693 H 0.62781 0.08811 0.90175 0.0
H2694 H 0.67571 0.03227 0.83543 0.0
H2695 H 0.67532 0.05632 0.8538 0.0
H2696 H 0.68027 0.06317 0.88125 0.0
C2697 C 0.66807 0.10119 0.92868 0.0
C2698 C 0.63937 0.08302 0.89713 0.0
C2699 C 0.66936 0.11374 0.94059 0.0
C2700 C 0.66561 0.03352 0.84426 0.0
C2701 C 0.66543 0.04725 0.8549 0.0
C2702 C 0.6687 0.06872 0.88528 0.0
C2703 C 0.65558 0.10172 0.91645 0.0
C2704 C 0.65473 0.08861 0.90335 0.0
C2705 C 0.65276 0.04915 0.86682 0.0
C2706 C 0.65336 0.06304 0.8791 0.0
H2707 H 0.63632 0.13747 0.92878 0.0
H2708 H 0.63444 0.11592 0.90747 0.0
H2709 H 0.68147 0.08559 0.90126 0.0
H2710 H 0.62998 0.01465 0.85729 0.0
H2711 H 0.63004 0.03814 0.87644 0.0
C2712 C 0.95899 0.63848 0.85106 0.0
C2713 C 0.96553 0.6537 0.84542 0.0
C2714 C 0.94546 0.63821 0.86199 0.0
C2715 C 0.92472 0.66449 0.89311 0.0
H2716 H 0.88774 0.63393 0.88818 0.0
C2717 C 0.8652 0.67202 0.93134 0.0
C2718 C 0.85787 0.65764 0.93805 0.0
C2719 C 0.87805 0.67079 0.91979 0.0
C2720 C 0.89808 0.6424 0.88982 0.0
H2721 H 0.96262 0.68055 0.84643 0.0
H2722 H 0.93907 0.68004 0.86532 0.0
H2723 H 0.91071 0.63307 0.86826 0.0
H2724 H 0.85814 0.63064 0.93764 0.0
H2725 H 0.8808 0.62851 0.91752 0.0
H2726 H 0.91225 0.67381 0.91462 0.0
C2727 C 0.94454 0.66833 0.86152 0.0
C2728 C 0.91121 0.64192 0.87841 0.0
C2729 C 0.958 0.6686 0.85061 0.0
C2730 C 0.86352 0.64197 0.93272 0.0
C2731 C 0.87645 0.64074 0.92113 0.0
C2732 C 0.91167 0.66495 0.90449 0.0
C2733 C 0.93827 0.65316 0.86752 0.0
C2734 C 0.92456 0.6531 0.87985 0.0
C2735 C 0.88396 0.65516 0.91468 0.0
C2736 C 0.8981 0.65405 0.90288 0.0
H2737 H 0.96448 0.62677 0.84729 0.0
H2738 H 0.94093 0.62634 0.86647 0.0
H2739 H 0.93502 0.67302 0.89475 0.0
H2740 H 0.86107 0.6843 0.93505 0.0
H2741 H 0.88335 0.68214 0.91481 0.0
C2742 C 0.66628 0.95711 0.13469 0.0
C2743 C 0.65144 0.96456 0.1401 0.0
C2744 C 0.66592 0.94315 0.12437 0.0
C2745 C 0.63942 0.92095 0.09443 0.0
H2746 H 0.67145 0.88552 0.10103 0.0
C2747 C 0.6409 0.86141 0.05366 0.0
C2748 C 0.65674 0.85645 0.04816 0.0
C2749 C 0.63924 0.87385 0.06571 0.0
C2750 C 0.66249 0.89536 0.09897 0.0
H2751 H 0.62454 0.96306 0.13898 0.0
H2752 H 0.62394 0.93856 0.12102 0.0
H2753 H 0.67032 0.90857 0.12069 0.0
H2754 H 0.68323 0.86066 0.05111 0.0
H2755 H 0.68029 0.88233 0.07199 0.0
H2756 H 0.63174 0.90777 0.07258 0.0
C2757 C 0.63585 0.94367 0.12466 0.0
C2758 C 0.66185 0.90857 0.11023 0.0
C2759 C 0.6362 0.95765 0.13501 0.0
C2760 C 0.67084 0.86414 0.05505 0.0
C2761 C 0.66917 0.8765 0.06712 0.0
C2762 C 0.64005 0.9077 0.08317 0.0
C2763 C 0.65072 0.93628 0.11922 0.0
C2764 C 0.6505 0.92165 0.10794 0.0
C2765 C 0.65337 0.88151 0.07258 0.0
C2766 C 0.65177 0.8949 0.08518 0.0
H2767 H 0.67824 0.96212 0.13831 0.0
H2768 H 0.6776 0.93793 0.12019 0.0
H2769 H 0.63065 0.93092 0.09223 0.0
H2770 H 0.62979 0.85572 0.04861 0.0
H2771 H 0.6269 0.87739 0.06977 0.0
C2772 C 0.02709 0.63967 0.13682 0.0
C2773 C 0.0205 0.65491 0.14236 0.0
C2774 C 0.04064 0.63938 0.12592 0.0
C2775 C 0.06151 0.6655 0.09475 0.0
H2776 H 0.09843 0.63497 0.10001 0.0
C2777 C 0.12116 0.67273 0.05666 0.0
C2778 C 0.12847 0.65829 0.05004 0.0
C2779 C 0.10829 0.67159 0.0682 0.0
C2780 C 0.08811 0.64343 0.09827 0.0
H2781 H 0.02334 0.68176 0.14118 0.0
H2782 H 0.04695 0.6812 0.12235 0.0
H2783 H 0.07538 0.63425 0.11984 0.0
H2784 H 0.12813 0.63129 0.0506 0.0
H2785 H 0.10543 0.62933 0.0707 0.0
H2786 H 0.07408 0.67468 0.07323 0.0
C2787 C 0.04149 0.6695 0.1262 0.0
C2788 C 0.07493 0.64303 0.10963 0.0
C2789 C 0.028 0.6698 0.13708 0.0
C2790 C 0.12277 0.64266 0.05546 0.0
C2791 C 0.10982 0.64152 0.06703 0.0
C2792 C 0.07461 0.66588 0.08342 0.0
C2793 C 0.04782 0.65431 0.12033 0.0
C2794 C 0.06159 0.6542 0.10807 0.0
C2795 C 0.10233 0.65599 0.07339 0.0
C2796 C 0.08815 0.65499 0.08515 0.0
H2797 H 0.02162 0.62797 0.14066 0.0
H2798 H 0.04521 0.62749 0.12153 0.0
H2799 H 0.05123 0.67401 0.09301 0.0
H2800 H 0.12532 0.68498 0.05289 0.0
H2801 H 0.10301 0.68298 0.07311 0.0
C2802 C 0.9533 0.3183 0.13675 0.0
C2803 C 0.96186 0.33297 0.14091 0.0
C2804 C 0.93952 0.31881 0.12626 0.0
C2805 C 0.90746 0.34637 0.10853 0.0
H2806 H 0.90568 0.31238 0.07431 0.0
C2807 C 0.85987 0.34654 0.05403 0.0
C2808 C 0.85315 0.33102 0.04954 0.0
C2809 C 0.87264 0.34754 0.06582 0.0
C2810 C 0.90588 0.32185 0.08391 0.0
H2811 H 0.96229 0.35979 0.13769 0.0
H2812 H 0.93821 0.36063 0.11921 0.0
H2813 H 0.92877 0.31277 0.09378 0.0
H2814 H 0.85411 0.30446 0.05442 0.0
H2815 H 0.87611 0.30624 0.07499 0.0
H2816 H 0.88448 0.35543 0.09853 0.0
C2817 C 0.94217 0.34875 0.12418 0.0
C2818 C 0.91911 0.32207 0.09507 0.0
C2819 C 0.956 0.34825 0.13471 0.0
C2820 C 0.85911 0.31661 0.05743 0.0
C2821 C 0.8718 0.31761 0.06918 0.0
C2822 C 0.89416 0.34614 0.09732 0.0
C2823 C 0.93395 0.33399 0.11965 0.0
C2824 C 0.91999 0.33421 0.1076 0.0
C2825 C 0.8789 0.33303 0.07331 0.0
C2826 C 0.89316 0.33376 0.08499 0.0
H2827 H 0.95735 0.30633 0.14141 0.0
H2828 H 0.93325 0.30726 0.12326 0.0
H2829 H 0.90776 0.35583 0.11813 0.0
H2830 H 0.85554 0.35788 0.0482 0.0
H2831 H 0.87792 0.3596 0.06869 0.0
C2832 C 0.63278 0.8495 0.52859 0.0
C2833 C 0.63859 0.83434 0.52205 0.0
C2834 C 0.62171 0.84964 0.54201 0.0
C2835 C 0.59072 0.82316 0.56275 0.0
H2836 H 0.59557 0.85383 0.59969 0.0
C2837 C 0.55283 0.81565 0.62261 0.0
C2838 C 0.54616 0.83003 0.63 0.0
C2839 C 0.56422 0.81688 0.60961 0.0
C2840 C 0.59394 0.84533 0.58936 0.0
H2841 H 0.63762 0.80747 0.52477 0.0
H2842 H 0.61847 0.80777 0.54815 0.0
H2843 H 0.61541 0.85472 0.57667 0.0
H2844 H 0.54646 0.85703 0.62961 0.0
H2845 H 0.5663 0.85916 0.60669 0.0
H2846 H 0.5693 0.81376 0.57532 0.0
C2847 C 0.62227 0.81953 0.54276 0.0
C2848 C 0.60531 0.84583 0.5762 0.0
C2849 C 0.63334 0.81937 0.52941 0.0
C2850 C 0.55135 0.8457 0.6242 0.0
C2851 C 0.56278 0.84693 0.61113 0.0
C2852 C 0.57938 0.82268 0.57585 0.0
C2853 C 0.6162 0.83464 0.5491 0.0
C2854 C 0.6039 0.83462 0.56284 0.0
C2855 C 0.56922 0.83251 0.6036 0.0
C2856 C 0.58095 0.83362 0.5894 0.0
H2857 H 0.63658 0.86125 0.52322 0.0
H2858 H 0.61716 0.86148 0.54657 0.0
H2859 H 0.5891 0.8146 0.55246 0.0
H2860 H 0.54923 0.80337 0.62683 0.0
H2861 H 0.56919 0.80553 0.6043 0.0
C2862 C 0.14034 0.55489 0.62607 0.0
C2863 C 0.1562 0.55004 0.63156 0.0
C2864 C 0.13861 0.56724 0.61392 0.0
C2865 C 0.16111 0.60213 0.5942 0.0
H2866 H 0.13202 0.59396 0.55663 0.0
C2867 C 0.16793 0.63709 0.53236 0.0
C2868 C 0.15351 0.64166 0.52362 0.0
C2869 C 0.16687 0.62722 0.54659 0.0
C2870 C 0.13999 0.59657 0.56717 0.0
H2871 H 0.18266 0.55451 0.62871 0.0
H2872 H 0.17962 0.57589 0.60759 0.0
H2873 H 0.13253 0.57431 0.57977 0.0
H2874 H 0.12663 0.6396 0.52316 0.0
H2875 H 0.1248 0.6224 0.54813 0.0
H2876 H 0.16879 0.62422 0.58151 0.0
C2877 C 0.16851 0.57029 0.61275 0.0
C2878 C 0.14028 0.58531 0.58042 0.0
C2879 C 0.17025 0.55793 0.62479 0.0
C2880 C 0.13798 0.63628 0.52958 0.0
C2881 C 0.13693 0.62636 0.54383 0.0
C2882 C 0.1608 0.61339 0.58099 0.0
C2883 C 0.15269 0.57506 0.60715 0.0
C2884 C 0.1511 0.58781 0.59391 0.0
C2885 C 0.15138 0.62166 0.55244 0.0
C2886 C 0.15049 0.61056 0.56717 0.0
H2887 H 0.12926 0.54907 0.63105 0.0
H2888 H 0.12625 0.57074 0.6099 0.0
H2889 H 0.16935 0.60455 0.60458 0.0
H2890 H 0.1801 0.64098 0.52812 0.0
H2891 H 0.17826 0.62361 0.55278 0.0
C2892 C 0.35009 0.1709 0.53002 0.0
C2893 C 0.34518 0.15594 0.52241 0.0
C2894 C 0.36092 0.17078 0.54356 0.0
C2895 C 0.378 0.14431 0.57686 0.0
H2896 H 0.41372 0.17672 0.57642 0.0
C2897 C 0.43255 0.14373 0.62414 0.0
C2898 C 0.43789 0.15929 0.63013 0.0
C2899 C 0.42082 0.14277 0.61132 0.0
C2900 C 0.40371 0.16771 0.57684 0.0
H2901 H 0.3475 0.12904 0.52338 0.0
H2902 H 0.36652 0.12886 0.54704 0.0
H2903 H 0.39387 0.17608 0.55363 0.0
H2904 H 0.43472 0.186 0.62764 0.0
H2905 H 0.41423 0.18429 0.60555 0.0
H2906 H 0.3879 0.13599 0.60016 0.0
C2907 C 0.36188 0.14068 0.54254 0.0
C2908 C 0.39234 0.16735 0.56377 0.0
C2909 C 0.35105 0.1408 0.52894 0.0
C2910 C 0.43102 0.17381 0.62325 0.0
C2911 C 0.41931 0.17284 0.6105 0.0
C2912 C 0.3894 0.1447 0.58999 0.0
C2913 C 0.36709 0.15569 0.54985 0.0
C2914 C 0.37929 0.15574 0.56368 0.0
C2915 C 0.41422 0.15733 0.60425 0.0
C2916 C 0.4023 0.1565 0.59018 0.0
H2917 H 0.34574 0.18279 0.5254 0.0
H2918 H 0.36448 0.18253 0.54911 0.0
H2919 H 0.368 0.1353 0.57718 0.0
H2920 H 0.4376 0.1323 0.62917 0.0
H2921 H 0.41723 0.13063 0.60669 0.0
C2922 C 0.84886 0.35022 0.53154 0.0
C2923 C 0.83328 0.34468 0.52586 0.0
C2924 C 0.85008 0.35993 0.54593 0.0
C2925 C 0.82699 0.37194 0.58389 0.0
H2926 H 0.8543 0.41168 0.58233 0.0
C2927 C 0.8176 0.42675 0.62862 0.0
C2928 C 0.83164 0.43513 0.6348 0.0
C2929 C 0.81927 0.41442 0.61653 0.0
C2930 C 0.84683 0.40049 0.58307 0.0
H2931 H 0.8068 0.3448 0.53103 0.0
H2932 H 0.80895 0.36179 0.55596 0.0
H2933 H 0.85459 0.39231 0.55895 0.0
H2934 H 0.8585 0.43692 0.63326 0.0
H2935 H 0.86139 0.41528 0.61207 0.0
H2936 H 0.81895 0.38029 0.60785 0.0
C2937 C 0.82024 0.35848 0.54942 0.0
C2938 C 0.847 0.38939 0.56968 0.0
C2939 C 0.819 0.34883 0.53504 0.0
C2940 C 0.84743 0.43073 0.62874 0.0
C2941 C 0.84909 0.4184 0.61656 0.0
C2942 C 0.82682 0.38302 0.59726 0.0
C2943 C 0.83577 0.36423 0.55497 0.0
C2944 C 0.83683 0.37516 0.56981 0.0
C2945 C 0.835 0.41016 0.61029 0.0
C2946 C 0.83649 0.39758 0.59686 0.0
H2947 H 0.86011 0.34721 0.52479 0.0
H2948 H 0.86224 0.36405 0.54999 0.0
H2949 H 0.81926 0.36092 0.5845 0.0
H2950 H 0.80525 0.42981 0.63299 0.0
H2951 H 0.80815 0.40848 0.61178 0.0
C2952 C 0.55273 0.13916 0.36212 0.0
C2953 C 0.54805 0.15487 0.356 0.0
C2954 C 0.56401 0.13785 0.37531 0.0
C2955 C 0.58052 0.16225 0.41044 0.0
H2956 H 0.6163 0.12996 0.41057 0.0
C2957 C 0.63409 0.16639 0.4571 0.0
C2958 C 0.63938 0.1516 0.46477 0.0
C2959 C 0.62306 0.16592 0.44373 0.0
C2960 C 0.60625 0.13891 0.41078 0.0
H2961 H 0.55192 0.18149 0.35868 0.0
H2962 H 0.57158 0.17917 0.38144 0.0
H2963 H 0.59671 0.13059 0.3873 0.0
H2964 H 0.63744 0.12466 0.46415 0.0
H2965 H 0.61804 0.12389 0.44079 0.0
H2966 H 0.59001 0.17065 0.4338 0.0
C2967 C 0.56634 0.16787 0.37628 0.0
C2968 C 0.59504 0.13927 0.39748 0.0
C2969 C 0.55512 0.16919 0.36314 0.0
C2970 C 0.6336 0.13629 0.45854 0.0
C2971 C 0.62255 0.13583 0.44511 0.0
C2972 C 0.59168 0.1619 0.42369 0.0
C2973 C 0.57076 0.15222 0.38265 0.0
C2974 C 0.58219 0.1511 0.39708 0.0
C2975 C 0.61703 0.15066 0.4377 0.0
C2976 C 0.6048 0.15038 0.42391 0.0
H2977 H 0.54752 0.12788 0.35689 0.0
H2978 H 0.56713 0.12562 0.38002 0.0
H2979 H 0.57052 0.17127 0.41068 0.0
H2980 H 0.63836 0.1784 0.46148 0.0
H2981 H 0.61927 0.17755 0.43809 0.0
C2982 C 0.84615 0.55659 0.36002 0.0
C2983 C 0.83039 0.55207 0.35395 0.0
C2984 C 0.8477 0.56879 0.37235 0.0
C2985 C 0.82513 0.60371 0.39204 0.0
H2986 H 0.8531 0.59442 0.43019 0.0
C2987 C 0.81733 0.63768 0.45435 0.0
C2988 C 0.83162 0.64203 0.46341 0.0
C2989 C 0.81855 0.62796 0.44003 0.0
C2990 C 0.84545 0.59734 0.4195 0.0
H2991 H 0.80395 0.55704 0.3559 0.0
H2992 H 0.80667 0.57815 0.37735 0.0
H2993 H 0.85291 0.57522 0.40666 0.0
H2994 H 0.85847 0.63969 0.46436 0.0
H2995 H 0.86058 0.62272 0.43924 0.0
H2996 H 0.81742 0.62565 0.40498 0.0
C2997 C 0.81784 0.57241 0.3725 0.0
C2998 C 0.84534 0.58634 0.40603 0.0
C2999 C 0.81628 0.5602 0.36027 0.0
C3000 C 0.84721 0.63654 0.4577 0.0
C3001 C 0.84842 0.62676 0.44336 0.0
C3002 C 0.82524 0.61469 0.40549 0.0
C3003 C 0.83355 0.57678 0.37875 0.0
C3004 C 0.83493 0.58925 0.3923 0.0
C3005 C 0.83409 0.62233 0.4344 0.0
C3006 C 0.83516 0.61147 0.41951 0.0
H3007 H 0.85728 0.55058 0.3554 0.0
H3008 H 0.85998 0.572 0.37684 0.0
H3009 H 0.81721 0.60644 0.3815 0.0
H3010 H 0.80512 0.64166 0.45839 0.0
H3011 H 0.80725 0.62455 0.43355 0.0
C3012 C 0.35228 0.84983 0.45969 0.0
C3013 C 0.34661 0.83458 0.46615 0.0
C3014 C 0.36347 0.85015 0.44638 0.0
C3015 C 0.39491 0.82419 0.42568 0.0
H3016 H 0.38935 0.85448 0.38855 0.0
C3017 C 0.43203 0.81647 0.3654 0.0
C3018 C 0.43848 0.83082 0.35777 0.0
C3019 C 0.42085 0.81775 0.37858 0.0
C3020 C 0.39118 0.8461 0.39894 0.0
H3021 H 0.34804 0.80773 0.46345 0.0
H3022 H 0.36742 0.80834 0.44026 0.0
H3023 H 0.36966 0.85525 0.41171 0.0
H3024 H 0.43803 0.85782 0.35791 0.0
H3025 H 0.41853 0.86005 0.38112 0.0
H3026 H 0.41636 0.815 0.413 0.0
C3027 C 0.36339 0.82003 0.44562 0.0
C3028 C 0.37991 0.84653 0.41218 0.0
C3029 C 0.3522 0.8197 0.45886 0.0
C3030 C 0.43329 0.84652 0.36351 0.0
C3031 C 0.42207 0.8478 0.37675 0.0
C3032 C 0.40616 0.82378 0.4125 0.0
C3033 C 0.36926 0.83525 0.43932 0.0
C3034 C 0.38155 0.83542 0.42558 0.0
C3035 C 0.41585 0.83341 0.38452 0.0
C3036 C 0.40431 0.83457 0.39887 0.0
H3037 H 0.34821 0.86152 0.46501 0.0
H3038 H 0.36785 0.86206 0.44185 0.0
H3039 H 0.39671 0.81572 0.436 0.0
H3040 H 0.43564 0.80417 0.36125 0.0
H3041 H 0.41604 0.80643 0.38408 0.0
C3042 C 0.16949 0.43048 0.36067 0.0
C3043 C 0.15515 0.43769 0.35378 0.0
C3044 C 0.16829 0.41928 0.37384 0.0
C3045 C 0.13978 0.39098 0.39582 0.0
H3046 H 0.1717 0.39617 0.43159 0.0
C3047 C 0.13712 0.35332 0.45749 0.0
C3048 C 0.15241 0.34748 0.46363 0.0
C3049 C 0.13664 0.36417 0.44389 0.0
C3050 C 0.1628 0.39444 0.42163 0.0
H3051 H 0.12823 0.43844 0.35513 0.0
H3052 H 0.12617 0.41887 0.37833 0.0
H3053 H 0.17223 0.41534 0.4082 0.0
H3054 H 0.17914 0.34817 0.46002 0.0
H3055 H 0.17825 0.36689 0.43632 0.0
H3056 H 0.13041 0.36998 0.40934 0.0
C3057 C 0.13833 0.42187 0.3734 0.0
C3058 C 0.1631 0.40543 0.40823 0.0
C3059 C 0.13952 0.43312 0.36016 0.0
C3060 C 0.16715 0.35249 0.4557 0.0
C3061 C 0.16666 0.36332 0.44216 0.0
C3062 C 0.13948 0.37994 0.40928 0.0
C3063 C 0.15274 0.41501 0.38051 0.0
C3064 C 0.15175 0.40371 0.39506 0.0
C3065 C 0.15142 0.36942 0.43621 0.0
C3066 C 0.15113 0.38145 0.42222 0.0
H3067 H 0.18172 0.43358 0.35599 0.0
H3068 H 0.17961 0.41396 0.37883 0.0
H3069 H 0.13095 0.38927 0.3858 0.0
H3070 H 0.12553 0.3497 0.4633 0.0
H3071 H 0.12472 0.36875 0.43963 0.0
C3072 C 0.62774 0.56074 0.81966 0.0
C3073 C 0.63415 0.55242 0.83363 0.0
C3074 C 0.61563 0.57299 0.82149 0.0
C3075 C 0.58237 0.58665 0.84927 0.0
H3076 H 0.58345 0.62619 0.82163 0.0
C3077 C 0.52995 0.63602 0.85025 0.0
C3078 C 0.52441 0.64119 0.83448 0.0
C3079 C 0.54449 0.62663 0.85183 0.0
C3080 C 0.58295 0.61519 0.82939 0.0
H3081 H 0.63297 0.55061 0.86054 0.0
H3082 H 0.61167 0.57209 0.86371 0.0
H3083 H 0.60702 0.60714 0.82149 0.0
H3084 H 0.52995 0.64072 0.80805 0.0
H3085 H 0.55512 0.6243 0.81082 0.0
H3086 H 0.5581 0.59449 0.85684 0.0
C3087 C 0.61604 0.56901 0.85134 0.0
C3088 C 0.59644 0.60429 0.82932 0.0
C3089 C 0.62827 0.55677 0.84952 0.0
C3090 C 0.53384 0.63697 0.82039 0.0
C3091 C 0.54836 0.62765 0.82198 0.0
C3092 C 0.56885 0.59756 0.84933 0.0
C3093 C 0.60958 0.57722 0.83732 0.0
C3094 C 0.59614 0.58972 0.83895 0.0
C3095 C 0.55381 0.6223 0.8377 0.0
C3096 C 0.56885 0.61174 0.8391 0.0
H3097 H 0.63198 0.55772 0.80723 0.0
H3098 H 0.61072 0.5789 0.81042 0.0
H3099 H 0.58172 0.57544 0.85672 0.0
H3100 H 0.52299 0.63909 0.86137 0.0
H3101 H 0.54846 0.62278 0.86412 0.0
C3102 C 0.43142 0.62146 0.81521 0.0
C3103 C 0.43813 0.62918 0.8294 0.0
C3104 C 0.41943 0.60902 0.81676 0.0
C3105 C 0.40338 0.57767 0.84573 0.0
H3106 H 0.36601 0.57674 0.81529 0.0
C3107 C 0.35173 0.52758 0.84939 0.0
C3108 C 0.34663 0.52073 0.83412 0.0
C3109 C 0.36207 0.54157 0.84977 0.0
C3110 C 0.37644 0.57676 0.82381 0.0
H3111 H 0.43743 0.62986 0.85638 0.0
H3112 H 0.41642 0.60806 0.85906 0.0
H3113 H 0.38559 0.59986 0.81427 0.0
H3114 H 0.34838 0.52326 0.80728 0.0
H3115 H 0.36648 0.54745 0.80798 0.0
H3116 H 0.39437 0.55441 0.85507 0.0
C3117 C 0.42056 0.61163 0.84675 0.0
C3118 C 0.38764 0.59 0.82322 0.0
C3119 C 0.43253 0.62417 0.8452 0.0
C3120 C 0.35202 0.52823 0.81927 0.0
C3121 C 0.36232 0.54219 0.81966 0.0
C3122 C 0.39217 0.56438 0.84629 0.0
C3123 C 0.41388 0.60395 0.83253 0.0
C3124 C 0.40136 0.59049 0.83401 0.0
C3125 C 0.36748 0.54902 0.83491 0.0
C3126 C 0.37872 0.56367 0.83516 0.0
H3127 H 0.43545 0.62498 0.80285 0.0
H3128 H 0.4147 0.60317 0.80558 0.0
H3129 H 0.41392 0.57763 0.85409 0.0
H3130 H 0.34778 0.52213 0.86106 0.0
H3131 H 0.36571 0.54664 0.86171 0.0
C3132 C 0.35832 0.43001 0.84922 0.0
C3133 C 0.35231 0.43434 0.83338 0.0
C3134 C 0.37067 0.41788 0.85093 0.0
C3135 C 0.39071 0.38294 0.82866 0.0
H3136 H 0.42875 0.39299 0.85651 0.0
C3137 C 0.45358 0.35045 0.8204 0.0
C3138 C 0.46282 0.34625 0.83463 0.0
C3139 C 0.43905 0.35979 0.82178 0.0
C3140 C 0.4181 0.38986 0.8489 0.0
H3141 H 0.35437 0.4291 0.80695 0.0
H3142 H 0.37587 0.40814 0.80996 0.0
H3143 H 0.40497 0.41182 0.8563 0.0
H3144 H 0.46389 0.34845 0.86152 0.0
H3145 H 0.43841 0.36479 0.8639 0.0
H3146 H 0.40396 0.36119 0.82098 0.0
C3147 C 0.37095 0.41396 0.82107 0.0
C3148 C 0.40447 0.40064 0.84878 0.0
C3149 C 0.3587 0.42609 0.81935 0.0
C3150 C 0.45708 0.35149 0.85031 0.0
C3151 C 0.44254 0.36091 0.85168 0.0
C3152 C 0.40431 0.37218 0.82878 0.0
C3153 C 0.37716 0.40979 0.83686 0.0
C3154 C 0.39079 0.39747 0.83839 0.0
C3155 C 0.43339 0.36518 0.83741 0.0
C3156 C 0.4183 0.3757 0.83862 0.0
H3157 H 0.35363 0.43611 0.86028 0.0
H3158 H 0.37513 0.41483 0.86327 0.0
H3159 H 0.38021 0.38 0.82076 0.0
H3160 H 0.45763 0.34664 0.80813 0.0
H3161 H 0.43243 0.3631 0.81053 0.0
C3162 C 0.55444 0.36284 0.84605 0.0
C3163 C 0.54908 0.35768 0.83022 0.0
C3164 C 0.5665 0.37528 0.84766 0.0
C3165 C 0.59999 0.39631 0.82439 0.0
H3166 H 0.593 0.4325 0.85553 0.0
C3167 C 0.63551 0.45806 0.8196 0.0
C3168 C 0.64077 0.46586 0.83434 0.0
C3169 C 0.62529 0.44405 0.82018 0.0
C3170 C 0.59527 0.42235 0.84696 0.0
H3171 H 0.55225 0.36153 0.80367 0.0
H3172 H 0.57313 0.38319 0.80651 0.0
H3173 H 0.57336 0.40934 0.8547 0.0
H3174 H 0.6395 0.46492 0.86129 0.0
H3175 H 0.6217 0.44033 0.86229 0.0
H3176 H 0.62176 0.40936 0.81648 0.0
C3177 C 0.56816 0.37752 0.81767 0.0
C3178 C 0.58402 0.4091 0.84648 0.0
C3179 C 0.55609 0.36517 0.81606 0.0
C3180 C 0.63565 0.45924 0.8497 0.0
C3181 C 0.62539 0.4452 0.85028 0.0
C3182 C 0.61124 0.40952 0.82488 0.0
C3183 C 0.5735 0.38272 0.83347 0.0
C3184 C 0.58612 0.39609 0.83499 0.0
C3185 C 0.62008 0.43748 0.83552 0.0
C3186 C 0.60885 0.42283 0.83597 0.0
H3187 H 0.5493 0.35731 0.85721 0.0
H3188 H 0.57045 0.37898 0.86 0.0
H3189 H 0.60211 0.3863 0.81561 0.0
H3190 H 0.63917 0.46284 0.80754 0.0
H3191 H 0.62121 0.43855 0.80858 0.0
C3192 C 0.53126 0.35528 0.1374 0.0
C3193 C 0.52643 0.34999 0.15337 0.0
C3194 C 0.54577 0.36462 0.13522 0.0
C3195 C 0.58538 0.37536 0.15589 0.0
H3196 H 0.58327 0.41577 0.12962 0.0
C3197 C 0.63072 0.42933 0.16532 0.0
C3198 C 0.63664 0.43807 0.15138 0.0
C3199 C 0.61852 0.41715 0.16357 0.0
C3200 C 0.58416 0.40437 0.13675 0.0
H3201 H 0.5332 0.35022 0.17951 0.0
H3202 H 0.55832 0.3665 0.1757 0.0
H3203 H 0.55949 0.39687 0.13011 0.0
H3204 H 0.63447 0.44071 0.12461 0.0
H3205 H 0.61299 0.41934 0.12158 0.0
H3206 H 0.60984 0.38304 0.16288 0.0
C3207 C 0.55102 0.3633 0.16484 0.0
C3208 C 0.57055 0.39355 0.13703 0.0
C3209 C 0.53652 0.35407 0.16704 0.0
C3210 C 0.63016 0.43421 0.13559 0.0
C3211 C 0.61784 0.42203 0.13386 0.0
C3212 C 0.59895 0.38614 0.1556 0.0
C3213 C 0.55578 0.36874 0.14894 0.0
C3214 C 0.57087 0.37915 0.14695 0.0
C3215 C 0.61188 0.41341 0.14785 0.0
C3216 C 0.59833 0.40098 0.14638 0.0
H3217 H 0.52376 0.35234 0.1266 0.0
H3218 H 0.54919 0.36858 0.1228 0.0
H3219 H 0.58612 0.36417 0.16337 0.0
H3220 H 0.63542 0.43196 0.17767 0.0
H3221 H 0.61401 0.41092 0.17463 0.0
C3222 C 0.6365 0.5309 0.16709 0.0
C3223 C 0.6421 0.52393 0.15206 0.0
C3224 C 0.62529 0.54413 0.16704 0.0
C3225 C 0.60829 0.57792 0.14126 0.0
H3226 H 0.5718 0.57574 0.17269 0.0
C3227 C 0.55374 0.62525 0.14185 0.0
C3228 C 0.54833 0.63061 0.1576 0.0
C3229 C 0.5653 0.61232 0.14043 0.0
C3230 C 0.582 0.57663 0.16395 0.0
H3231 H 0.64056 0.5257 0.12516 0.0
H3232 H 0.62088 0.54882 0.12512 0.0
H3233 H 0.59192 0.55319 0.1716 0.0
H3234 H 0.55112 0.62681 0.1842 0.0
H3235 H 0.57132 0.60453 0.1817 0.0
H3236 H 0.59835 0.60148 0.1337 0.0
C3237 C 0.62527 0.54405 0.13693 0.0
C3238 C 0.59353 0.5637 0.16333 0.0
C3239 C 0.63649 0.53076 0.13696 0.0
C3240 C 0.5549 0.62294 0.17186 0.0
C3241 C 0.56642 0.61007 0.17044 0.0
C3242 C 0.59673 0.59091 0.1419 0.0
C3243 C 0.6194 0.55072 0.15198 0.0
C3244 C 0.6069 0.56428 0.15211 0.0
C3245 C 0.57166 0.60451 0.15472 0.0
C3246 C 0.58357 0.59048 0.1534 0.0
H3247 H 0.64062 0.52604 0.17895 0.0
H3248 H 0.62122 0.5492 0.17885 0.0
H3249 H 0.61853 0.57875 0.13255 0.0
H3250 H 0.54892 0.6309 0.13061 0.0
H3251 H 0.56902 0.60823 0.12814 0.0
C3252 C 0.45681 0.63582 0.13937 0.0
C3253 C 0.46272 0.64184 0.1547 0.0
C3254 C 0.44283 0.62547 0.13875 0.0
C3255 C 0.41927 0.59652 0.1652 0.0
H3256 H 0.38461 0.60086 0.13199 0.0
C3257 C 0.35831 0.5605 0.1709 0.0
C3258 C 0.35209 0.5527 0.15654 0.0
C3259 C 0.37131 0.5719 0.16983 0.0
C3260 C 0.39429 0.5994 0.14123 0.0
H3261 H 0.45816 0.64221 0.18133 0.0
H3262 H 0.43383 0.62438 0.1802 0.0
H3263 H 0.40832 0.61996 0.1316 0.0
H3264 H 0.35437 0.55118 0.12968 0.0
H3265 H 0.37729 0.57109 0.12784 0.0
H3266 H 0.40539 0.57604 0.17485 0.0
C3267 C 0.44016 0.62737 0.16869 0.0
C3268 C 0.40784 0.61033 0.141 0.0
C3269 C 0.45408 0.63768 0.16931 0.0
C3270 C 0.35889 0.55695 0.14099 0.0
C3271 C 0.37197 0.5684 0.13992 0.0
C3272 C 0.40578 0.58565 0.16542 0.0
C3273 C 0.43453 0.62093 0.15345 0.0
C3274 C 0.42038 0.6091 0.15313 0.0
C3275 C 0.37848 0.57578 0.15437 0.0
C3276 C 0.39304 0.58708 0.15357 0.0
H3277 H 0.46317 0.6388 0.12787 0.0
H3278 H 0.43883 0.62062 0.12683 0.0
H3279 H 0.42892 0.595 0.17447 0.0
H3280 H 0.35327 0.55766 0.18307 0.0
H3281 H 0.37583 0.57763 0.18115 0.0
C3282 C 0.43477 0.36607 0.14578 0.0
C3283 C 0.44044 0.36135 0.16163 0.0
C3284 C 0.42255 0.37832 0.14408 0.0
C3285 C 0.389 0.39927 0.16718 0.0
H3286 H 0.39492 0.43466 0.13493 0.0
C3287 C 0.35131 0.45986 0.1699 0.0
C3288 C 0.34606 0.46714 0.1549 0.0
C3289 C 0.36197 0.44618 0.1698 0.0
C3290 C 0.39294 0.42473 0.14381 0.0
H3291 H 0.43768 0.36579 0.18813 0.0
H3292 H 0.41645 0.38712 0.18513 0.0
H3293 H 0.41518 0.41211 0.13639 0.0
H3294 H 0.34776 0.46558 0.128 0.0
H3295 H 0.36627 0.44153 0.12785 0.0
H3296 H 0.36685 0.41188 0.1747 0.0
C3297 C 0.42133 0.38125 0.17403 0.0
C3298 C 0.40456 0.41183 0.14466 0.0
C3299 C 0.43359 0.3691 0.17573 0.0
C3300 C 0.3516 0.4603 0.13978 0.0
C3301 C 0.36228 0.44657 0.13969 0.0
C3302 C 0.37737 0.41212 0.1663 0.0
C3303 C 0.41569 0.386 0.1582 0.0
C3304 C 0.40283 0.3991 0.15652 0.0
C3305 C 0.36762 0.43939 0.15471 0.0
C3306 C 0.37934 0.42513 0.15478 0.0
H3307 H 0.43977 0.36034 0.13466 0.0
H3308 H 0.41834 0.38165 0.13172 0.0
H3309 H 0.38718 0.38947 0.17624 0.0
H3310 H 0.34735 0.46482 0.18178 0.0
H3311 H 0.36606 0.44113 0.1816 0.0
C3312 C 0.81674 0.52874 0.63387 0.0
C3313 C 0.83174 0.52151 0.63915 0.0
C3314 C 0.81679 0.54229 0.62304 0.0
C3315 C 0.84276 0.57648 0.60708 0.0
H3316 H 0.81081 0.57627 0.57098 0.0
C3317 C 0.84241 0.62562 0.55411 0.0
C3318 C 0.82674 0.63139 0.54896 0.0
C3319 C 0.84368 0.6124 0.56537 0.0
C3320 C 0.81969 0.57661 0.5811 0.0
H3321 H 0.8586 0.52308 0.63735 0.0
H3322 H 0.85866 0.54675 0.6183 0.0
H3323 H 0.81186 0.55286 0.59013 0.0
H3324 H 0.80013 0.62809 0.55197 0.0
H3325 H 0.80237 0.60527 0.57165 0.0
H3326 H 0.85053 0.60032 0.59801 0.0
C3327 C 0.84687 0.54195 0.62267 0.0
C3328 C 0.8203 0.56319 0.59206 0.0
C3329 C 0.84682 0.52834 0.63352 0.0
C3330 C 0.8124 0.62389 0.55555 0.0
C3331 C 0.81368 0.61073 0.56677 0.0
C3332 C 0.84214 0.58995 0.59609 0.0
C3333 C 0.83184 0.54896 0.61721 0.0
C3334 C 0.83172 0.56303 0.60527 0.0
C3335 C 0.82931 0.6047 0.57167 0.0
C3336 C 0.83048 0.59023 0.58307 0.0
H3337 H 0.80489 0.52388 0.63803 0.0
H3338 H 0.80501 0.54759 0.61928 0.0
H3339 H 0.85161 0.57676 0.61723 0.0
H3340 H 0.8537 0.63113 0.54927 0.0
H3341 H 0.8559 0.60797 0.56883 0.0
C3342 C 0.8469 0.45943 0.35449 0.0
C3343 C 0.83165 0.46601 0.34904 0.0
C3344 C 0.84727 0.44597 0.36552 0.0
C3345 C 0.82148 0.42505 0.397 0.0
H3346 H 0.85171 0.38796 0.39102 0.0
C3347 C 0.8141 0.36467 0.43404 0.0
C3348 C 0.82849 0.35709 0.44042 0.0
C3349 C 0.81528 0.37784 0.42283 0.0
C3350 C 0.84335 0.39833 0.39296 0.0
H3351 H 0.80485 0.46336 0.35065 0.0
H3352 H 0.80553 0.43991 0.36973 0.0
H3353 H 0.85235 0.41123 0.37143 0.0
H3354 H 0.85544 0.35728 0.43977 0.0
H3355 H 0.85749 0.38048 0.42021 0.0
H3356 H 0.81245 0.41226 0.41846 0.0
C3357 C 0.81719 0.44529 0.36567 0.0
C3358 C 0.8437 0.41164 0.38175 0.0
C3359 C 0.81682 0.45868 0.35465 0.0
C3360 C 0.84412 0.36285 0.4351 0.0
C3361 C 0.84529 0.37608 0.42384 0.0
C3362 C 0.82115 0.41181 0.40819 0.0
C3363 C 0.8324 0.43888 0.37136 0.0
C3364 C 0.83263 0.42504 0.38355 0.0
C3365 C 0.83087 0.38381 0.41772 0.0
C3366 C 0.83192 0.3982 0.40619 0.0
H3367 H 0.85856 0.46477 0.35041 0.0
H3368 H 0.85917 0.44136 0.36977 0.0
H3369 H 0.81304 0.43537 0.39892 0.0
H3370 H 0.80186 0.36049 0.43776 0.0
H3371 H 0.80393 0.38331 0.41809 0.0
C3372 C 0.53219 0.81919 0.34974 0.0
C3373 C 0.52354 0.83379 0.34556 0.0
C3374 C 0.54601 0.81984 0.36018 0.0
C3375 C 0.57796 0.84761 0.3778 0.0
H3376 H 0.57972 0.81387 0.41223 0.0
C3377 C 0.62578 0.848 0.43212 0.0
C3378 C 0.63254 0.83249 0.43654 0.0
C3379 C 0.6129 0.84899 0.42046 0.0
C3380 C 0.57952 0.82327 0.40258 0.0
H3381 H 0.52301 0.86062 0.34864 0.0
H3382 H 0.54715 0.8617 0.36703 0.0
H3383 H 0.55664 0.81409 0.39275 0.0
H3384 H 0.63147 0.80591 0.4317 0.0
H3385 H 0.60928 0.80768 0.41135 0.0
H3386 H 0.60094 0.85676 0.38775 0.0
C3387 C 0.54324 0.84978 0.36212 0.0
C3388 C 0.5663 0.8234 0.39141 0.0
C3389 C 0.52937 0.84914 0.35164 0.0
C3390 C 0.62646 0.81806 0.42873 0.0
C3391 C 0.61366 0.81905 0.41711 0.0
C3392 C 0.59126 0.84748 0.38902 0.0
C3393 C 0.55151 0.83509 0.36672 0.0
C3394 C 0.56544 0.83544 0.37878 0.0
C3395 C 0.60655 0.83448 0.41302 0.0
C3396 C 0.59225 0.83518 0.40141 0.0
H3397 H 0.52817 0.80717 0.34517 0.0
H3398 H 0.55232 0.80834 0.36323 0.0
H3399 H 0.57766 0.857 0.36814 0.0
H3400 H 0.6302 0.85935 0.43789 0.0
H3401 H 0.60761 0.86104 0.41761 0.0
C3402 C 0.14161 0.62508 0.43272 0.0
C3403 C 0.15729 0.63089 0.43783 0.0
C3404 C 0.14033 0.61204 0.42124 0.0
C3405 C 0.16453 0.57681 0.40454 0.0
H3406 H 0.13248 0.57742 0.36853 0.0
C3407 C 0.16813 0.53033 0.35064 0.0
C3408 C 0.15326 0.52274 0.3455 0.0
C3409 C 0.16786 0.54378 0.36161 0.0
C3410 C 0.14138 0.57702 0.37863 0.0
H3411 H 0.18389 0.62782 0.43452 0.0
H3412 H 0.18163 0.60535 0.41448 0.0
H3413 H 0.13331 0.60049 0.38839 0.0
H3414 H 0.12638 0.52364 0.34754 0.0
H3415 H 0.12595 0.54717 0.36679 0.0
H3416 H 0.17269 0.55345 0.3948 0.0
C3417 C 0.17033 0.61062 0.41955 0.0
C3418 C 0.14184 0.5902 0.39 0.0
C3419 C 0.17161 0.62359 0.43099 0.0
C3420 C 0.13807 0.52918 0.35127 0.0
C3421 C 0.1378 0.5427 0.36224 0.0
C3422 C 0.16409 0.56369 0.39319 0.0
C3423 C 0.1547 0.60456 0.41467 0.0
C3424 C 0.15356 0.59031 0.40296 0.0
C3425 C 0.15272 0.54998 0.36769 0.0
C3426 C 0.15264 0.56373 0.38001 0.0
H3427 H 0.13033 0.63044 0.43774 0.0
H3428 H 0.12811 0.60757 0.41779 0.0
H3429 H 0.17346 0.57633 0.4146 0.0
H3430 H 0.18006 0.52578 0.34638 0.0
H3431 H 0.17955 0.54932 0.36535 0.0
C3432 C 0.45502 0.16845 0.35112 0.0
C3433 C 0.46299 0.15359 0.34651 0.0
C3434 C 0.44134 0.16818 0.36175 0.0
C3435 C 0.40838 0.14124 0.3788 0.0
H3436 H 0.40741 0.1745 0.41375 0.0
C3437 C 0.35994 0.14144 0.4325 0.0
C3438 C 0.35351 0.15707 0.43704 0.0
C3439 C 0.37302 0.14027 0.42108 0.0
C3440 C 0.4074 0.16524 0.40396 0.0
H3441 H 0.46252 0.12671 0.34919 0.0
H3442 H 0.43863 0.12628 0.3679 0.0
H3443 H 0.43063 0.17384 0.39441 0.0
H3444 H 0.35548 0.18368 0.43272 0.0
H3445 H 0.37805 0.1816 0.41281 0.0
H3446 H 0.38506 0.13267 0.38844 0.0
C3447 C 0.44295 0.13813 0.36315 0.0
C3448 C 0.42071 0.16486 0.39287 0.0
C3449 C 0.45669 0.13839 0.35249 0.0
C3450 C 0.3602 0.17144 0.42965 0.0
C3451 C 0.37322 0.17027 0.41828 0.0
C3452 C 0.39502 0.14161 0.38994 0.0
C3453 C 0.43528 0.15304 0.36806 0.0
C3454 C 0.42128 0.15298 0.38007 0.0
C3455 C 0.37993 0.15471 0.41402 0.0
C3456 C 0.39432 0.15374 0.40252 0.0
H3457 H 0.45945 0.18037 0.34666 0.0
H3458 H 0.4355 0.17986 0.36506 0.0
H3459 H 0.40843 0.132 0.36899 0.0
H3460 H 0.35506 0.13013 0.43796 0.0
H3461 H 0.378 0.12811 0.41811 0.0
C3462 C 0.1384 0.45701 0.63429 0.0
C3463 C 0.15394 0.46314 0.63944 0.0
C3464 C 0.13736 0.44273 0.62439 0.0
C3465 C 0.16125 0.4056 0.61158 0.0
H3466 H 0.13234 0.40597 0.57299 0.0
C3467 C 0.16928 0.36 0.55723 0.0
C3468 C 0.15502 0.35338 0.54961 0.0
C3469 C 0.16792 0.37236 0.56934 0.0
C3470 C 0.14027 0.40556 0.58387 0.0
H3471 H 0.18056 0.45896 0.63833 0.0
H3472 H 0.17873 0.43422 0.62102 0.0
H3473 H 0.13219 0.42956 0.59212 0.0
H3474 H 0.12808 0.35443 0.54892 0.0
H3475 H 0.12573 0.37607 0.57017 0.0
H3476 H 0.16955 0.38175 0.60318 0.0
C3477 C 0.16734 0.44032 0.62477 0.0
C3478 C 0.1402 0.41907 0.59482 0.0
C3479 C 0.16838 0.45459 0.63461 0.0
C3480 C 0.13932 0.35929 0.55453 0.0
C3481 C 0.13797 0.37173 0.56663 0.0
C3482 C 0.16133 0.39211 0.60064 0.0
C3483 C 0.15183 0.43425 0.61951 0.0
C3484 C 0.1509 0.41936 0.60863 0.0
C3485 C 0.15227 0.37843 0.57412 0.0
C3486 C 0.15105 0.39207 0.58651 0.0
H3487 H 0.12702 0.46327 0.63781 0.0
H3488 H 0.12522 0.43827 0.62065 0.0
H3489 H 0.16941 0.40531 0.62229 0.0
H3490 H 0.18157 0.35577 0.55376 0.0
H3491 H 0.17919 0.37743 0.57468 0.0
C3492 C 0.62809 0.13808 0.55505 0.0
C3493 C 0.63432 0.1538 0.55054 0.0
C3494 C 0.61563 0.13667 0.5671 0.0
C3495 C 0.59562 0.15959 0.60162 0.0
H3496 H 0.55745 0.13178 0.59187 0.0
C3497 C 0.53306 0.16784 0.63486 0.0
C3498 C 0.52395 0.15356 0.6392 0.0
C3499 C 0.54741 0.16654 0.62522 0.0
C3500 C 0.56814 0.1394 0.59491 0.0
H3501 H 0.63252 0.18032 0.5554 0.0
H3502 H 0.61082 0.17784 0.57624 0.0
H3503 H 0.58123 0.13172 0.57302 0.0
H3504 H 0.52289 0.12666 0.63689 0.0
H3505 H 0.54805 0.12442 0.62006 0.0
H3506 H 0.58243 0.1675 0.62332 0.0
C3507 C 0.61565 0.16659 0.57061 0.0
C3508 C 0.58176 0.13936 0.58412 0.0
C3509 C 0.62802 0.16802 0.55855 0.0
C3510 C 0.52959 0.13792 0.63374 0.0
C3511 C 0.54396 0.13663 0.62404 0.0
C3512 C 0.58202 0.15963 0.61239 0.0
C3513 C 0.60923 0.15093 0.57495 0.0
C3514 C 0.59551 0.1497 0.5872 0.0
C3515 C 0.55301 0.15094 0.61967 0.0
C3516 C 0.568 0.14977 0.60899 0.0
H3517 H 0.63269 0.12688 0.54914 0.0
H3518 H 0.61101 0.12442 0.5703 0.0
H3519 H 0.60617 0.16746 0.60448 0.0
H3520 H 0.52907 0.18009 0.63881 0.0
H3521 H 0.55395 0.17783 0.62184 0.0
C3522 C 0.45481 0.84838 0.63539 0.0
C3523 C 0.46069 0.83309 0.64152 0.0
C3524 C 0.44082 0.84894 0.62507 0.0
C3525 C 0.41716 0.82233 0.59638 0.0
H3526 H 0.38286 0.85599 0.60025 0.0
C3527 C 0.35666 0.81738 0.55946 0.0
C3528 C 0.35079 0.83184 0.55159 0.0
C3529 C 0.36946 0.81827 0.5711 0.0
C3530 C 0.39243 0.84662 0.59893 0.0
H3531 H 0.45606 0.80647 0.64213 0.0
H3532 H 0.43169 0.80749 0.62436 0.0
H3533 H 0.40641 0.85623 0.61952 0.0
H3534 H 0.35346 0.85867 0.55017 0.0
H3535 H 0.37602 0.86019 0.57048 0.0
H3536 H 0.40335 0.81272 0.57583 0.0
C3537 C 0.43805 0.81902 0.62724 0.0
C3538 C 0.40589 0.84675 0.60995 0.0
C3539 C 0.452 0.81845 0.63751 0.0
C3540 C 0.35771 0.8473 0.556 0.0
C3541 C 0.37058 0.84818 0.56768 0.0
C3542 C 0.40376 0.8222 0.58541 0.0
C3543 C 0.43246 0.83422 0.62069 0.0
C3544 C 0.41831 0.8345 0.60887 0.0
C3545 C 0.37677 0.83363 0.57513 0.0
C3546 C 0.39116 0.83423 0.58665 0.0
H3547 H 0.46121 0.85989 0.63825 0.0
H3548 H 0.43686 0.86083 0.62014 0.0
H3549 H 0.42671 0.81295 0.59497 0.0
H3550 H 0.35152 0.80528 0.55651 0.0
H3551 H 0.37372 0.80687 0.57689 0.0
loop_
_geom_bond_atom_site_label_1
_geom_bond_atom_site_label_2
_geom_bond_distance
_geom_bond_site_symmetry_2
_ccdc_geom_bond_type
C0 O1 1.306 . S
C0 O3 1.160 . S
O1 C0 1.306 . S
O1 Cd2 2.228 . S
Cd2 O1 2.228 . S
Cd2 O6 2.273 . S
Cd2 O10 2.277 . S
O3 C0 1.160 . S
O3 Cd4 2.203 . S
Cd4 O3 2.203 . S
Cd4 O6 2.411 . S
Cd4 O7 2.333 . S
Cd4 O8 2.352 . S
Cd4 O12 2.277 . S
Cd4 O13 2.356 . S
C5 O10 1.209 . S
C5 O12 1.226 . S
O6 Cd2 2.273 . S
O6 Cd4 2.411 . S
O6 C9 1.320 . S
O7 Cd4 2.333 . S
O7 C9 1.214 . S
O8 Cd4 2.352 . S
O8 C11 1.258 . S
C9 O6 1.320 . S
C9 O7 1.214 . S
O10 Cd2 2.277 . S
O10 C5 1.209 . S
C11 O8 1.258 . S
C11 O13 1.282 . S
O12 Cd4 2.277 . S
O12 C5 1.226 . S
O13 Cd4 2.356 . S
O13 C11 1.282 . S
C14 O15 1.306 . S
C14 O17 1.160 . S
O15 C14 1.306 . S
O15 Cd16 2.228 . S
Cd16 O15 2.228 . S
Cd16 O20 2.273 . S
Cd16 O24 2.277 . S
O17 C14 1.160 . S
O17 Cd18 2.203 . S
Cd18 O17 2.203 . S
Cd18 O20 2.411 . S
Cd18 O21 2.333 . S
Cd18 O22 2.352 . S
Cd18 O26 2.277 . S
Cd18 O27 2.356 . S
C19 O24 1.209 . S
C19 O26 1.226 . S
O20 Cd16 2.273 . S
O20 Cd18 2.411 . S
O20 C23 1.320 . S
O21 Cd18 2.333 . S
O21 C23 1.214 . S
O22 Cd18 2.352 . S
O22 C25 1.258 . S
C23 O20 1.320 . S
C23 O21 1.214 . S
O24 Cd16 2.277 . S
O24 C19 1.209 . S
C25 O22 1.258 . S
C25 O27 1.282 . S
O26 Cd18 2.277 . S
O26 C19 1.226 . S
O27 Cd18 2.356 . S
O27 C25 1.282 . S
C28 O29 1.306 . S
C28 O31 1.160 . S
O29 C28 1.306 . S
O29 Cd30 2.228 . S
Cd30 O29 2.228 . S
Cd30 O34 2.273 . S
Cd30 O38 2.277 . S
O31 C28 1.160 . S
O31 Cd32 2.203 . S
Cd32 O31 2.203 . S
Cd32 O34 2.411 . S
Cd32 O35 2.333 . S
Cd32 O36 2.352 . S
Cd32 O40 2.277 . S
Cd32 O41 2.356 . S
C33 O38 1.209 . S
C33 O40 1.226 . S
O34 Cd30 2.273 . S
O34 Cd32 2.411 . S
O34 C37 1.320 . S
O35 Cd32 2.333 . S
O35 C37 1.214 . S
O36 Cd32 2.352 . S
O36 C39 1.258 . S
C37 O34 1.320 . S
C37 O35 1.214 . S
O38 Cd30 2.277 . S
O38 C33 1.209 . S
C39 O36 1.258 . S
C39 O41 1.282 . S
O40 Cd32 2.277 . S
O40 C33 1.226 . S
O41 Cd32 2.356 . S
O41 C39 1.282 . S
C42 O43 1.306 . S
C42 O45 1.160 . S
O43 C42 1.306 . S
O43 Cd44 2.228 . S
Cd44 O43 2.228 . S
Cd44 O48 2.273 . S
Cd44 O52 2.277 . S
O45 C42 1.160 . S
O45 Cd46 2.203 . S
Cd46 O45 2.203 . S
Cd46 O48 2.411 . S
Cd46 O49 2.333 . S
Cd46 O50 2.352 . S
Cd46 O54 2.277 . S
Cd46 O55 2.356 . S
C47 O52 1.209 . S
C47 O54 1.226 . S
O48 Cd44 2.273 . S
O48 Cd46 2.411 . S
O48 C51 1.320 . S
O49 Cd46 2.333 . S
O49 C51 1.214 . S
O50 Cd46 2.352 . S
O50 C53 1.258 . S
C51 O48 1.320 . S
C51 O49 1.214 . S
O52 Cd44 2.277 . S
O52 C47 1.209 . S
C53 O50 1.258 . S
C53 O55 1.282 . S
O54 Cd46 2.277 . S
O54 C47 1.226 . S
O55 Cd46 2.356 . S
O55 C53 1.282 . S
C56 O57 1.306 . S
C56 O59 1.160 . S
O57 C56 1.306 . S
O57 Cd58 2.228 . S
Cd58 O57 2.228 . S
Cd58 O62 2.273 . S
Cd58 O66 2.277 . S
O59 C56 1.160 . S
O59 Cd60 2.203 . S
Cd60 O59 2.203 . S
Cd60 O62 2.411 . S
Cd60 O63 2.333 . S
Cd60 O64 2.352 . S
Cd60 O68 2.277 . S
Cd60 O69 2.356 . S
C61 O66 1.209 . S
C61 O68 1.226 . S
O62 Cd58 2.273 . S
O62 Cd60 2.411 . S
O62 C65 1.320 . S
O63 Cd60 2.333 . S
O63 C65 1.214 . S
O64 Cd60 2.352 . S
O64 C67 1.258 . S
C65 O62 1.320 . S
C65 O63 1.214 . S
O66 Cd58 2.277 . S
O66 C61 1.209 . S
C67 O64 1.258 . S
C67 O69 1.282 . S
O68 Cd60 2.277 . S
O68 C61 1.226 . S
O69 Cd60 2.356 . S
O69 C67 1.282 . S
C70 O71 1.306 . S
C70 O73 1.160 . S
O71 C70 1.306 . S
O71 Cd72 2.228 . S
Cd72 O71 2.228 . S
Cd72 O76 2.273 . S
Cd72 O80 2.277 . S
O73 C70 1.160 . S
O73 Cd74 2.203 . S
Cd74 O73 2.203 . S
Cd74 O76 2.411 . S
Cd74 O77 2.333 . S
Cd74 O78 2.352 . S
Cd74 O82 2.277 . S
Cd74 O83 2.356 . S
C75 O80 1.209 . S
C75 O82 1.226 . S
O76 Cd72 2.273 . S
O76 Cd74 2.411 . S
O76 C79 1.320 . S
O77 Cd74 2.333 . S
O77 C79 1.214 . S
O78 Cd74 2.352 . S
O78 C81 1.258 . S
C79 O76 1.320 . S
C79 O77 1.214 . S
O80 Cd72 2.277 . S
O80 C75 1.209 . S
C81 O78 1.258 . S
C81 O83 1.282 . S
O82 Cd74 2.277 . S
O82 C75 1.226 . S
O83 Cd74 2.356 . S
O83 C81 1.282 . S
C84 O85 1.306 . S
C84 O87 1.160 . S
O85 C84 1.306 . S
O85 Cd86 2.228 . S
Cd86 O85 2.228 . S
Cd86 O90 2.273 . S
Cd86 O94 2.277 . S
O87 C84 1.160 . S
O87 Cd88 2.203 . S
Cd88 O87 2.203 . S
Cd88 O90 2.411 . S
Cd88 O91 2.333 . S
Cd88 O92 2.352 . S
Cd88 O96 2.277 . S
Cd88 O97 2.356 . S
C89 O94 1.209 . S
C89 O96 1.226 . S
O90 Cd86 2.273 . S
O90 Cd88 2.411 . S
O90 C93 1.320 . S
O91 Cd88 2.333 . S
O91 C93 1.214 . S
O92 Cd88 2.352 . S
O92 C95 1.258 . S
C93 O90 1.320 . S
C93 O91 1.214 . S
O94 Cd86 2.277 . S
O94 C89 1.209 . S
C95 O92 1.258 . S
C95 O97 1.282 . S
O96 Cd88 2.277 . S
O96 C89 1.226 . S
O97 Cd88 2.356 . S
O97 C95 1.282 . S
C98 O99 1.306 . S
C98 O101 1.160 . S
O99 C98 1.306 . S
O99 Cd100 2.228 . S
Cd100 O99 2.228 . S
Cd100 O104 2.273 . S
Cd100 O108 2.277 . S
O101 C98 1.160 . S
O101 Cd102 2.203 . S
Cd102 O101 2.203 . S
Cd102 O104 2.411 . S
Cd102 O105 2.333 . S
Cd102 O106 2.352 . S
Cd102 O110 2.277 . S
Cd102 O111 2.356 . S
C103 O108 1.209 . S
C103 O110 1.226 . S
O104 Cd100 2.273 . S
O104 Cd102 2.411 . S
O104 C107 1.320 . S
O105 Cd102 2.333 . S
O105 C107 1.214 . S
O106 Cd102 2.352 . S
O106 C109 1.258 . S
C107 O104 1.320 . S
C107 O105 1.214 . S
O108 Cd100 2.277 . S
O108 C103 1.209 . S
C109 O106 1.258 . S
C109 O111 1.282 . S
O110 Cd102 2.277 . S
O110 C103 1.226 . S
O111 Cd102 2.356 . S
O111 C109 1.282 . S
C112 O113 1.306 . S
C112 O115 1.160 . S
O113 C112 1.306 . S
O113 Cd114 2.228 . S
Cd114 O113 2.228 . S
Cd114 O118 2.273 . S
Cd114 O122 2.277 . S
O115 C112 1.160 . S
O115 Cd116 2.203 . S
Cd116 O115 2.203 . S
Cd116 O118 2.411 . S
Cd116 O119 2.333 . S
Cd116 O120 2.352 . S
Cd116 O124 2.277 . S
Cd116 O125 2.356 . S
C117 O122 1.209 . S
C117 O124 1.226 . S
O118 Cd114 2.273 . S
O118 Cd116 2.411 . S
O118 C121 1.320 . S
O119 Cd116 2.333 . S
O119 C121 1.214 . S
O120 Cd116 2.352 . S
O120 C123 1.258 . S
C121 O118 1.320 . S
C121 O119 1.214 . S
O122 Cd114 2.277 . S
O122 C117 1.209 . S
C123 O120 1.258 . S
C123 O125 1.282 . S
O124 Cd116 2.277 . S
O124 C117 1.226 . S
O125 Cd116 2.356 . S
O125 C123 1.282 . S
C126 O127 1.306 . S
C126 O129 1.160 . S
O127 C126 1.306 . S
O127 Cd128 2.228 . S
Cd128 O127 2.228 . S
Cd128 O132 2.273 . S
Cd128 O136 2.277 . S
O129 C126 1.160 . S
O129 Cd130 2.203 . S
Cd130 O129 2.203 . S
Cd130 O132 2.411 . S
Cd130 O133 2.333 . S
Cd130 O134 2.352 . S
Cd130 O138 2.277 . S
Cd130 O139 2.356 . S
C131 O136 1.209 . S
C131 O138 1.226 . S
O132 Cd128 2.273 . S
O132 Cd130 2.411 . S
O132 C135 1.320 . S
O133 Cd130 2.333 . S
O133 C135 1.214 . S
O134 Cd130 2.352 . S
O134 C137 1.258 . S
C135 O132 1.320 . S
C135 O133 1.214 . S
O136 Cd128 2.277 . S
O136 C131 1.209 . S
C137 O134 1.258 . S
C137 O139 1.282 . S
O138 Cd130 2.277 . S
O138 C131 1.226 . S
O139 Cd130 2.356 . S
O139 C137 1.282 . S
C140 O141 1.306 . S
C140 O143 1.160 . S
O141 C140 1.306 . S
O141 Cd142 2.228 . S
Cd142 O141 2.228 . S
Cd142 O146 2.273 . S
Cd142 O150 2.277 . S
O143 C140 1.160 . S
O143 Cd144 2.203 . S
Cd144 O143 2.203 . S
Cd144 O146 2.411 . S
Cd144 O147 2.333 . S
Cd144 O148 2.352 . S
Cd144 O152 2.277 . S
Cd144 O153 2.356 . S
C145 O150 1.209 . S
C145 O152 1.226 . S
O146 Cd142 2.273 . S
O146 Cd144 2.411 . S
O146 C149 1.320 . S
O147 Cd144 2.333 . S
O147 C149 1.214 . S
O148 Cd144 2.352 . S
O148 C151 1.258 . S
C149 O146 1.320 . S
C149 O147 1.214 . S
O150 Cd142 2.277 . S
O150 C145 1.209 . S
C151 O148 1.258 . S
C151 O153 1.282 . S
O152 Cd144 2.277 . S
O152 C145 1.226 . S
O153 Cd144 2.356 . S
O153 C151 1.282 . S
C154 O155 1.306 . S
C154 O157 1.160 . S
O155 C154 1.306 . S
O155 Cd156 2.228 . S
Cd156 O155 2.228 . S
Cd156 O160 2.273 . S
Cd156 O164 2.277 . S
O157 C154 1.160 . S
O157 Cd158 2.203 . S
Cd158 O157 2.203 . S
Cd158 O160 2.411 . S
Cd158 O161 2.333 . S
Cd158 O162 2.352 . S
Cd158 O166 2.277 . S
Cd158 O167 2.356 . S
C159 O164 1.209 . S
C159 O166 1.226 . S
O160 Cd156 2.273 . S
O160 Cd158 2.411 . S
O160 C163 1.320 . S
O161 Cd158 2.333 . S
O161 C163 1.214 . S
O162 Cd158 2.352 . S
O162 C165 1.258 . S
C163 O160 1.320 . S
C163 O161 1.214 . S
O164 Cd156 2.277 . S
O164 C159 1.209 . S
C165 O162 1.258 . S
C165 O167 1.282 . S
O166 Cd158 2.277 . S
O166 C159 1.226 . S
O167 Cd158 2.356 . S
O167 C165 1.282 . S
C168 O169 1.306 . S
C168 O171 1.160 . S
O169 C168 1.306 . S
O169 Cd170 2.228 . S
Cd170 O169 2.228 . S
Cd170 O174 2.273 . S
Cd170 O178 2.277 . S
O171 C168 1.160 . S
O171 Cd172 2.203 . S
Cd172 O171 2.203 . S
Cd172 O174 2.411 . S
Cd172 O175 2.333 . S
Cd172 O176 2.352 . S
Cd172 O180 2.277 . S
Cd172 O181 2.356 . S
C173 O178 1.209 . S
C173 O180 1.226 . S
O174 Cd170 2.273 . S
O174 Cd172 2.411 . S
O174 C177 1.320 . S
O175 Cd172 2.333 . S
O175 C177 1.214 . S
O176 Cd172 2.352 . S
O176 C179 1.258 . S
C177 O174 1.320 . S
C177 O175 1.214 . S
O178 Cd170 2.277 . S
O178 C173 1.209 . S
C179 O176 1.258 . S
C179 O181 1.282 . S
O180 Cd172 2.277 . S
O180 C173 1.226 . S
O181 Cd172 2.356 . S
O181 C179 1.282 . S
C182 O183 1.306 . S
C182 O185 1.160 . S
O183 C182 1.306 . S
O183 Cd184 2.228 . S
Cd184 O183 2.228 . S
Cd184 O188 2.273 . S
Cd184 O192 2.277 . S
O185 C182 1.160 . S
O185 Cd186 2.203 . S
Cd186 O185 2.203 . S
Cd186 O188 2.411 . S
Cd186 O189 2.333 . S
Cd186 O190 2.352 . S
Cd186 O194 2.277 . S
Cd186 O195 2.356 . S
C187 O192 1.209 . S
C187 O194 1.226 . S
O188 Cd184 2.273 . S
O188 Cd186 2.411 . S
O188 C191 1.320 . S
O189 Cd186 2.333 . S
O189 C191 1.214 . S
O190 Cd186 2.352 . S
O190 C193 1.258 . S
C191 O188 1.320 . S
C191 O189 1.214 . S
O192 Cd184 2.277 . S
O192 C187 1.209 . S
C193 O190 1.258 . S
C193 O195 1.282 . S
O194 Cd186 2.277 . S
O194 C187 1.226 . S
O195 Cd186 2.356 . S
O195 C193 1.282 . S
C196 O197 1.306 . S
C196 O199 1.160 . S
O197 C196 1.306 . S
O197 Cd198 2.228 . S
Cd198 O197 2.228 . S
Cd198 O202 2.273 . S
Cd198 O206 2.277 . S
O199 C196 1.160 . S
O199 Cd200 2.203 . S
Cd200 O199 2.203 . S
Cd200 O202 2.411 . S
Cd200 O203 2.333 . S
Cd200 O204 2.352 . S
Cd200 O208 2.277 . S
Cd200 O209 2.356 . S
C201 O206 1.209 . S
C201 O208 1.226 . S
O202 Cd198 2.273 . S
O202 Cd200 2.411 . S
O202 C205 1.320 . S
O203 Cd200 2.333 . S
O203 C205 1.214 . S
O204 Cd200 2.352 . S
O204 C207 1.258 . S
C205 O202 1.320 . S
C205 O203 1.214 . S
O206 Cd198 2.277 . S
O206 C201 1.209 . S
C207 O204 1.258 . S
C207 O209 1.282 . S
O208 Cd200 2.277 . S
O208 C201 1.226 . S
O209 Cd200 2.356 . S
O209 C207 1.282 . S
C210 O211 1.306 . S
C210 O213 1.160 . S
O211 C210 1.306 . S
O211 Cd212 2.228 . S
Cd212 O211 2.228 . S
Cd212 O216 2.273 . S
Cd212 O220 2.277 . S
O213 C210 1.160 . S
O213 Cd214 2.203 . S
Cd214 O213 2.203 . S
Cd214 O216 2.411 . S
Cd214 O217 2.333 . S
Cd214 O218 2.352 . S
Cd214 O222 2.277 . S
Cd214 O223 2.356 . S
C215 O220 1.209 . S
C215 O222 1.226 . S
O216 Cd212 2.273 . S
O216 Cd214 2.411 . S
O216 C219 1.320 . S
O217 Cd214 2.333 . S
O217 C219 1.214 . S
O218 Cd214 2.352 . S
O218 C221 1.258 . S
C219 O216 1.320 . S
C219 O217 1.214 . S
O220 Cd212 2.277 . S
O220 C215 1.209 . S
C221 O218 1.258 . S
C221 O223 1.282 . S
O222 Cd214 2.277 . S
O222 C215 1.226 . S
O223 Cd214 2.356 . S
O223 C221 1.282 . S
C224 O225 1.306 . S
C224 O227 1.160 . S
O225 C224 1.306 . S
O225 Cd226 2.228 . S
Cd226 O225 2.228 . S
Cd226 O230 2.273 . S
Cd226 O234 2.277 . S
O227 C224 1.160 . S
O227 Cd228 2.203 . S
Cd228 O227 2.203 . S
Cd228 O230 2.411 . S
Cd228 O231 2.333 . S
Cd228 O232 2.352 . S
Cd228 O236 2.277 . S
Cd228 O237 2.356 . S
C229 O234 1.209 . S
C229 O236 1.226 . S
O230 Cd226 2.273 . S
O230 Cd228 2.411 . S
O230 C233 1.320 . S
O231 Cd228 2.333 . S
O231 C233 1.214 . S
O232 Cd228 2.352 . S
O232 C235 1.258 . S
C233 O230 1.320 . S
C233 O231 1.214 . S
O234 Cd226 2.277 . S
O234 C229 1.209 . S
C235 O232 1.258 . S
C235 O237 1.282 . S
O236 Cd228 2.277 . S
O236 C229 1.226 . S
O237 Cd228 2.356 . S
O237 C235 1.282 . S
C238 O239 1.306 . S
C238 O241 1.160 . S
O239 C238 1.306 . S
O239 Cd240 2.228 . S
Cd240 O239 2.228 . S
Cd240 O244 2.273 . S
Cd240 O248 2.277 . S
O241 C238 1.160 . S
O241 Cd242 2.203 . S
Cd242 O241 2.203 . S
Cd242 O244 2.411 . S
Cd242 O245 2.333 . S
Cd242 O246 2.352 . S
Cd242 O250 2.277 . S
Cd242 O251 2.356 . S
C243 O248 1.209 . S
C243 O250 1.226 . S
O244 Cd240 2.273 . S
O244 Cd242 2.411 . S
O244 C247 1.320 . S
O245 Cd242 2.333 . S
O245 C247 1.214 . S
O246 Cd242 2.352 . S
O246 C249 1.258 . S
C247 O244 1.320 . S
C247 O245 1.214 . S
O248 Cd240 2.277 . S
O248 C243 1.209 . S
C249 O246 1.258 . S
C249 O251 1.282 . S
O250 Cd242 2.277 . S
O250 C243 1.226 . S
O251 Cd242 2.356 . S
O251 C249 1.282 . S
C252 O253 1.306 . S
C252 O255 1.160 . S
O253 C252 1.306 . S
O253 Cd254 2.228 . S
Cd254 O253 2.228 . S
Cd254 O258 2.273 . S
Cd254 O262 2.277 . S
O255 C252 1.160 . S
O255 Cd256 2.203 . S
Cd256 O255 2.203 . S
Cd256 O258 2.411 . S
Cd256 O259 2.333 . S
Cd256 O260 2.352 . S
Cd256 O264 2.277 . S
Cd256 O265 2.356 . S
C257 O262 1.209 . S
C257 O264 1.226 . S
O258 Cd254 2.273 . S
O258 Cd256 2.411 . S
O258 C261 1.320 . S
O259 Cd256 2.333 . S
O259 C261 1.214 . S
O260 Cd256 2.352 . S
O260 C263 1.258 . S
C261 O258 1.320 . S
C261 O259 1.214 . S
O262 Cd254 2.277 . S
O262 C257 1.209 . S
C263 O260 1.258 . S
C263 O265 1.282 . S
O264 Cd256 2.277 . S
O264 C257 1.226 . S
O265 Cd256 2.356 . S
O265 C263 1.282 . S
C266 O267 1.306 . S
C266 O269 1.160 . S
O267 C266 1.306 . S
O267 Cd268 2.228 . S
Cd268 O267 2.228 . S
Cd268 O272 2.273 . S
Cd268 O276 2.277 . S
O269 C266 1.160 . S
O269 Cd270 2.203 . S
Cd270 O269 2.203 . S
Cd270 O272 2.411 . S
Cd270 O273 2.333 . S
Cd270 O274 2.352 . S
Cd270 O278 2.277 . S
Cd270 O279 2.356 . S
C271 O276 1.209 . S
C271 O278 1.226 . S
O272 Cd268 2.273 . S
O272 Cd270 2.411 . S
O272 C275 1.320 . S
O273 Cd270 2.333 . S
O273 C275 1.214 . S
O274 Cd270 2.352 . S
O274 C277 1.258 . S
C275 O272 1.320 . S
C275 O273 1.214 . S
O276 Cd268 2.277 . S
O276 C271 1.209 . S
C277 O274 1.258 . S
C277 O279 1.282 . S
O278 Cd270 2.277 . S
O278 C271 1.226 . S
O279 Cd270 2.356 . S
O279 C277 1.282 . S
C280 O281 1.306 . S
C280 O283 1.160 . S
O281 C280 1.306 . S
O281 Cd282 2.228 . S
Cd282 O281 2.228 . S
Cd282 O286 2.273 . S
Cd282 O290 2.277 . S
O283 C280 1.160 . S
O283 Cd284 2.203 . S
Cd284 O283 2.203 . S
Cd284 O286 2.411 . S
Cd284 O287 2.333 . S
Cd284 O288 2.352 . S
Cd284 O292 2.277 . S
Cd284 O293 2.356 . S
C285 O290 1.209 . S
C285 O292 1.226 . S
O286 Cd282 2.273 . S
O286 Cd284 2.411 . S
O286 C289 1.320 . S
O287 Cd284 2.333 . S
O287 C289 1.214 . S
O288 Cd284 2.352 . S
O288 C291 1.258 . S
C289 O286 1.320 . S
C289 O287 1.214 . S
O290 Cd282 2.277 . S
O290 C285 1.209 . S
C291 O288 1.258 . S
C291 O293 1.282 . S
O292 Cd284 2.277 . S
O292 C285 1.226 . S
O293 Cd284 2.356 . S
O293 C291 1.282 . S
C294 O295 1.306 . S
C294 O297 1.160 . S
O295 C294 1.306 . S
O295 Cd296 2.228 . S
Cd296 O295 2.228 . S
Cd296 O300 2.273 . S
Cd296 O304 2.277 . S
O297 C294 1.160 . S
O297 Cd298 2.203 . S
Cd298 O297 2.203 . S
Cd298 O300 2.411 . S
Cd298 O301 2.333 . S
Cd298 O302 2.352 . S
Cd298 O306 2.277 . S
Cd298 O307 2.356 . S
C299 O304 1.209 . S
C299 O306 1.226 . S
O300 Cd296 2.273 . S
O300 Cd298 2.411 . S
O300 C303 1.320 . S
O301 Cd298 2.333 . S
O301 C303 1.214 . S
O302 Cd298 2.352 . S
O302 C305 1.258 . S
C303 O300 1.320 . S
C303 O301 1.214 . S
O304 Cd296 2.277 . S
O304 C299 1.209 . S
C305 O302 1.258 . S
C305 O307 1.282 . S
O306 Cd298 2.277 . S
O306 C299 1.226 . S
O307 Cd298 2.356 . S
O307 C305 1.282 . S
C308 O309 1.306 . S
C308 O311 1.160 . S
O309 C308 1.306 . S
O309 Cd310 2.228 . S
Cd310 O309 2.228 . S
Cd310 O314 2.273 . S
Cd310 O318 2.277 . S
O311 C308 1.160 . S
O311 Cd312 2.203 . S
Cd312 O311 2.203 . S
Cd312 O314 2.411 . S
Cd312 O315 2.333 . S
Cd312 O316 2.352 . S
Cd312 O320 2.277 . S
Cd312 O321 2.356 . S
C313 O318 1.209 . S
C313 O320 1.226 . S
O314 Cd310 2.273 . S
O314 Cd312 2.411 . S
O314 C317 1.320 . S
O315 Cd312 2.333 . S
O315 C317 1.214 . S
O316 Cd312 2.352 . S
O316 C319 1.258 . S
C317 O314 1.320 . S
C317 O315 1.214 . S
O318 Cd310 2.277 . S
O318 C313 1.209 . S
C319 O316 1.258 . S
C319 O321 1.282 . S
O320 Cd312 2.277 . S
O320 C313 1.226 . S
O321 Cd312 2.356 . S
O321 C319 1.282 . S
C322 O323 1.306 . S
C322 O325 1.160 . S
O323 C322 1.306 . S
O323 Cd324 2.228 . S
Cd324 O323 2.228 . S
Cd324 O328 2.273 . S
Cd324 O332 2.277 . S
O325 C322 1.160 . S
O325 Cd326 2.203 . S
Cd326 O325 2.203 . S
Cd326 O328 2.411 . S
Cd326 O329 2.333 . S
Cd326 O330 2.352 . S
Cd326 O334 2.277 . S
Cd326 O335 2.356 . S
C327 O332 1.209 . S
C327 O334 1.226 . S
O328 Cd324 2.273 . S
O328 Cd326 2.411 . S
O328 C331 1.320 . S
O329 Cd326 2.333 . S
O329 C331 1.214 . S
O330 Cd326 2.352 . S
O330 C333 1.258 . S
C331 O328 1.320 . S
C331 O329 1.214 . S
O332 Cd324 2.277 . S
O332 C327 1.209 . S
C333 O330 1.258 . S
C333 O335 1.282 . S
O334 Cd326 2.277 . S
O334 C327 1.226 . S
O335 Cd326 2.356 . S
O335 C333 1.282 . S
C336 O337 1.306 . S
C336 O339 1.160 . S
O337 C336 1.306 . S
O337 Cd338 2.228 . S
Cd338 O337 2.228 . S
Cd338 O342 2.273 . S
Cd338 O346 2.277 . S
O339 C336 1.160 . S
O339 Cd340 2.203 . S
Cd340 O339 2.203 . S
Cd340 O342 2.411 . S
Cd340 O343 2.333 . S
Cd340 O344 2.352 . S
Cd340 O348 2.277 . S
Cd340 O349 2.356 . S
C341 O346 1.209 . S
C341 O348 1.226 . S
O342 Cd338 2.273 . S
O342 Cd340 2.411 . S
O342 C345 1.320 . S
O343 Cd340 2.333 . S
O343 C345 1.214 . S
O344 Cd340 2.352 . S
O344 C347 1.258 . S
C345 O342 1.320 . S
C345 O343 1.214 . S
O346 Cd338 2.277 . S
O346 C341 1.209 . S
C347 O344 1.258 . S
C347 O349 1.282 . S
O348 Cd340 2.277 . S
O348 C341 1.226 . S
O349 Cd340 2.356 . S
O349 C347 1.282 . S
C350 O351 1.306 . S
C350 O353 1.160 . S
O351 C350 1.306 . S
O351 Cd352 2.228 . S
Cd352 O351 2.228 . S
Cd352 O356 2.273 . S
Cd352 O360 2.277 . S
O353 C350 1.160 . S
O353 Cd354 2.203 . S
Cd354 O353 2.203 . S
Cd354 O356 2.411 . S
Cd354 O357 2.333 . S
Cd354 O358 2.352 . S
Cd354 O362 2.277 . S
Cd354 O363 2.356 . S
C355 O360 1.209 . S
C355 O362 1.226 . S
O356 Cd352 2.273 . S
O356 Cd354 2.411 . S
O356 C359 1.320 . S
O357 Cd354 2.333 . S
O357 C359 1.214 . S
O358 Cd354 2.352 . S
O358 C361 1.258 . S
C359 O356 1.320 . S
C359 O357 1.214 . S
O360 Cd352 2.277 . S
O360 C355 1.209 . S
C361 O358 1.258 . S
C361 O363 1.282 . S
O362 Cd354 2.277 . S
O362 C355 1.226 . S
O363 Cd354 2.356 . S
O363 C361 1.282 . S
C364 O365 1.306 . S
C364 O367 1.160 . S
O365 C364 1.306 . S
O365 Cd366 2.228 . S
Cd366 O365 2.228 . S
Cd366 O370 2.273 . S
Cd366 O374 2.277 . S
O367 C364 1.160 . S
O367 Cd368 2.203 . S
Cd368 O367 2.203 . S
Cd368 O370 2.411 . S
Cd368 O371 2.333 . S
Cd368 O372 2.352 . S
Cd368 O376 2.277 . S
Cd368 O377 2.356 . S
C369 O374 1.209 . S
C369 O376 1.226 . S
O370 Cd366 2.273 . S
O370 Cd368 2.411 . S
O370 C373 1.320 . S
O371 Cd368 2.333 . S
O371 C373 1.214 . S
O372 Cd368 2.352 . S
O372 C375 1.258 . S
C373 O370 1.320 . S
C373 O371 1.214 . S
O374 Cd366 2.277 . S
O374 C369 1.209 . S
C375 O372 1.258 . S
C375 O377 1.282 . S
O376 Cd368 2.277 . S
O376 C369 1.226 . S
O377 Cd368 2.356 . S
O377 C375 1.282 . S
C378 O379 1.306 . S
C378 O381 1.160 . S
O379 C378 1.306 . S
O379 Cd380 2.228 . S
Cd380 O379 2.228 . S
Cd380 O384 2.273 . S
Cd380 O388 2.277 . S
O381 C378 1.160 . S
O381 Cd382 2.203 . S
Cd382 O381 2.203 . S
Cd382 O384 2.411 . S
Cd382 O385 2.333 . S
Cd382 O386 2.352 . S
Cd382 O390 2.277 . S
Cd382 O391 2.356 . S
C383 O388 1.209 . S
C383 O390 1.226 . S
O384 Cd380 2.273 . S
O384 Cd382 2.411 . S
O384 C387 1.320 . S
O385 Cd382 2.333 . S
O385 C387 1.214 . S
O386 Cd382 2.352 . S
O386 C389 1.258 . S
C387 O384 1.320 . S
C387 O385 1.214 . S
O388 Cd380 2.277 . S
O388 C383 1.209 . S
C389 O386 1.258 . S
C389 O391 1.282 . S
O390 Cd382 2.277 . S
O390 C383 1.226 . S
O391 Cd382 2.356 . S
O391 C389 1.282 . S
C392 O393 1.306 . S
C392 O395 1.160 . S
O393 C392 1.306 . S
O393 Cd394 2.228 . S
Cd394 O393 2.228 . S
Cd394 O398 2.273 . S
Cd394 O402 2.277 . S
O395 C392 1.160 . S
O395 Cd396 2.203 . S
Cd396 O395 2.203 . S
Cd396 O398 2.411 . S
Cd396 O399 2.333 . S
Cd396 O400 2.352 . S
Cd396 O404 2.277 . S
Cd396 O405 2.356 . S
C397 O402 1.209 . S
C397 O404 1.226 . S
O398 Cd394 2.273 . S
O398 Cd396 2.411 . S
O398 C401 1.320 . S
O399 Cd396 2.333 . S
O399 C401 1.214 . S
O400 Cd396 2.352 . S
O400 C403 1.258 . S
C401 O398 1.320 . S
C401 O399 1.214 . S
O402 Cd394 2.277 . S
O402 C397 1.209 . S
C403 O400 1.258 . S
C403 O405 1.282 . S
O404 Cd396 2.277 . S
O404 C397 1.226 . S
O405 Cd396 2.356 . S
O405 C403 1.282 . S
C406 O407 1.306 . S
C406 O409 1.160 . S
O407 C406 1.306 . S
O407 Cd408 2.228 . S
Cd408 O407 2.228 . S
Cd408 O412 2.273 . S
Cd408 O416 2.277 . S
O409 C406 1.160 . S
O409 Cd410 2.203 . S
Cd410 O409 2.203 . S
Cd410 O412 2.411 . S
Cd410 O413 2.333 . S
Cd410 O414 2.352 . S
Cd410 O418 2.277 . S
Cd410 O419 2.356 . S
C411 O416 1.209 . S
C411 O418 1.226 . S
O412 Cd408 2.273 . S
O412 Cd410 2.411 . S
O412 C415 1.320 . S
O413 Cd410 2.333 . S
O413 C415 1.214 . S
O414 Cd410 2.352 . S
O414 C417 1.258 . S
C415 O412 1.320 . S
C415 O413 1.214 . S
O416 Cd408 2.277 . S
O416 C411 1.209 . S
C417 O414 1.258 . S
C417 O419 1.282 . S
O418 Cd410 2.277 . S
O418 C411 1.226 . S
O419 Cd410 2.356 . S
O419 C417 1.282 . S
C420 O421 1.306 . S
C420 O423 1.160 . S
O421 C420 1.306 . S
O421 Cd422 2.228 . S
Cd422 O421 2.228 . S
Cd422 O426 2.273 . S
Cd422 O430 2.277 . S
O423 C420 1.160 . S
O423 Cd424 2.203 . S
Cd424 O423 2.203 . S
Cd424 O426 2.411 . S
Cd424 O427 2.333 . S
Cd424 O428 2.352 . S
Cd424 O432 2.277 . S
Cd424 O433 2.356 . S
C425 O430 1.209 . S
C425 O432 1.226 . S
O426 Cd422 2.273 . S
O426 Cd424 2.411 . S
O426 C429 1.320 . S
O427 Cd424 2.333 . S
O427 C429 1.214 . S
O428 Cd424 2.352 . S
O428 C431 1.258 . S
C429 O426 1.320 . S
C429 O427 1.214 . S
O430 Cd422 2.277 . S
O430 C425 1.209 . S
C431 O428 1.258 . S
C431 O433 1.282 . S
O432 Cd424 2.277 . S
O432 C425 1.226 . S
O433 Cd424 2.356 . S
O433 C431 1.282 . S
C434 O435 1.306 . S
C434 O437 1.160 . S
O435 C434 1.306 . S
O435 Cd436 2.228 . S
Cd436 O435 2.228 . S
Cd436 O440 2.273 . S
Cd436 O444 2.277 . S
O437 C434 1.160 . S
O437 Cd438 2.203 . S
Cd438 O437 2.203 . S
Cd438 O440 2.411 . S
Cd438 O441 2.333 . S
Cd438 O442 2.352 . S
Cd438 O446 2.277 . S
Cd438 O447 2.356 . S
C439 O444 1.209 . S
C439 O446 1.226 . S
O440 Cd436 2.273 . S
O440 Cd438 2.411 . S
O440 C443 1.320 . S
O441 Cd438 2.333 . S
O441 C443 1.214 . S
O442 Cd438 2.352 . S
O442 C445 1.258 . S
C443 O440 1.320 . S
C443 O441 1.214 . S
O444 Cd436 2.277 . S
O444 C439 1.209 . S
C445 O442 1.258 . S
C445 O447 1.282 . S
O446 Cd438 2.277 . S
O446 C439 1.226 . S
O447 Cd438 2.356 . S
O447 C445 1.282 . S
C448 O449 1.306 . S
C448 O451 1.160 . S
O449 C448 1.306 . S
O449 Cd450 2.228 . S
Cd450 O449 2.228 . S
Cd450 O454 2.273 . S
Cd450 O458 2.277 . S
O451 C448 1.160 . S
O451 Cd452 2.203 . S
Cd452 O451 2.203 . S
Cd452 O454 2.411 . S
Cd452 O455 2.333 . S
Cd452 O456 2.352 . S
Cd452 O460 2.277 . S
Cd452 O461 2.356 . S
C453 O458 1.209 . S
C453 O460 1.226 . S
O454 Cd450 2.273 . S
O454 Cd452 2.411 . S
O454 C457 1.320 . S
O455 Cd452 2.333 . S
O455 C457 1.214 . S
O456 Cd452 2.352 . S
O456 C459 1.258 . S
C457 O454 1.320 . S
C457 O455 1.214 . S
O458 Cd450 2.277 . S
O458 C453 1.209 . S
C459 O456 1.258 . S
C459 O461 1.282 . S
O460 Cd452 2.277 . S
O460 C453 1.226 . S
O461 Cd452 2.356 . S
O461 C459 1.282 . S
C462 O463 1.306 . S
C462 O465 1.160 . S
O463 C462 1.306 . S
O463 Cd464 2.228 . S
Cd464 O463 2.228 . S
Cd464 O468 2.273 . S
Cd464 O472 2.277 . S
O465 C462 1.160 . S
O465 Cd466 2.203 . S
Cd466 O465 2.203 . S
Cd466 O468 2.411 . S
Cd466 O469 2.333 . S
Cd466 O470 2.352 . S
Cd466 O474 2.277 . S
Cd466 O475 2.356 . S
C467 O472 1.209 . S
C467 O474 1.226 . S
O468 Cd464 2.273 . S
O468 Cd466 2.411 . S
O468 C471 1.320 . S
O469 Cd466 2.333 . S
O469 C471 1.214 . S
O470 Cd466 2.352 . S
O470 C473 1.258 . S
C471 O468 1.320 . S
C471 O469 1.214 . S
O472 Cd464 2.277 . S
O472 C467 1.209 . S
C473 O470 1.258 . S
C473 O475 1.282 . S
O474 Cd466 2.277 . S
O474 C467 1.226 . S
O475 Cd466 2.356 . S
O475 C473 1.282 . S
C476 O477 1.306 . S
C476 O479 1.160 . S
O477 C476 1.306 . S
O477 Cd478 2.228 . S
Cd478 O477 2.228 . S
Cd478 O482 2.273 . S
Cd478 O486 2.277 . S
O479 C476 1.160 . S
O479 Cd480 2.203 . S
Cd480 O479 2.203 . S
Cd480 O482 2.411 . S
Cd480 O483 2.333 . S
Cd480 O484 2.352 . S
Cd480 O488 2.277 . S
Cd480 O489 2.356 . S
C481 O486 1.209 . S
C481 O488 1.226 . S
O482 Cd478 2.273 . S
O482 Cd480 2.411 . S
O482 C485 1.320 . S
O483 Cd480 2.333 . S
O483 C485 1.214 . S
O484 Cd480 2.352 . S
O484 C487 1.258 . S
C485 O482 1.320 . S
C485 O483 1.214 . S
O486 Cd478 2.277 . S
O486 C481 1.209 . S
C487 O484 1.258 . S
C487 O489 1.282 . S
O488 Cd480 2.277 . S
O488 C481 1.226 . S
O489 Cd480 2.356 . S
O489 C487 1.282 . S
C490 O491 1.306 . S
C490 O493 1.160 . S
O491 C490 1.306 . S
O491 Cd492 2.228 . S
Cd492 O491 2.228 . S
Cd492 O496 2.273 . S
Cd492 O500 2.277 . S
O493 C490 1.160 . S
O493 Cd494 2.203 . S
Cd494 O493 2.203 . S
Cd494 O496 2.411 . S
Cd494 O497 2.333 . S
Cd494 O498 2.352 . S
Cd494 O502 2.277 . S
Cd494 O503 2.356 . S
C495 O500 1.209 . S
C495 O502 1.226 . S
O496 Cd492 2.273 . S
O496 Cd494 2.411 . S
O496 C499 1.320 . S
O497 Cd494 2.333 . S
O497 C499 1.214 . S
O498 Cd494 2.352 . S
O498 C501 1.258 . S
C499 O496 1.320 . S
C499 O497 1.214 . S
O500 Cd492 2.277 . S
O500 C495 1.209 . S
C501 O498 1.258 . S
C501 O503 1.282 . S
O502 Cd494 2.277 . S
O502 C495 1.226 . S
O503 Cd494 2.356 . S
O503 C501 1.282 . S
C504 O505 1.306 . S
C504 O507 1.160 . S
O505 C504 1.306 . S
O505 Cd506 2.228 . S
Cd506 O505 2.228 . S
Cd506 O510 2.273 . S
Cd506 O514 2.277 . S
O507 C504 1.160 . S
O507 Cd508 2.203 . S
Cd508 O507 2.203 . S
Cd508 O510 2.411 . S
Cd508 O511 2.333 . S
Cd508 O512 2.352 . S
Cd508 O516 2.277 . S
Cd508 O517 2.356 . S
C509 O514 1.209 . S
C509 O516 1.226 . S
O510 Cd506 2.273 . S
O510 Cd508 2.411 . S
O510 C513 1.320 . S
O511 Cd508 2.333 . S
O511 C513 1.214 . S
O512 Cd508 2.352 . S
O512 C515 1.258 . S
C513 O510 1.320 . S
C513 O511 1.214 . S
O514 Cd506 2.277 . S
O514 C509 1.209 . S
C515 O512 1.258 . S
C515 O517 1.282 . S
O516 Cd508 2.277 . S
O516 C509 1.226 . S
O517 Cd508 2.356 . S
O517 C515 1.282 . S
C518 O519 1.306 . S
C518 O521 1.160 . S
O519 C518 1.306 . S
O519 Cd520 2.228 . S
Cd520 O519 2.228 . S
Cd520 O524 2.273 . S
Cd520 O528 2.277 . S
O521 C518 1.160 . S
O521 Cd522 2.203 . S
Cd522 O521 2.203 . S
Cd522 O524 2.411 . S
Cd522 O525 2.333 . S
Cd522 O526 2.352 . S
Cd522 O530 2.277 . S
Cd522 O531 2.356 . S
C523 O528 1.209 . S
C523 O530 1.226 . S
O524 Cd520 2.273 . S
O524 Cd522 2.411 . S
O524 C527 1.320 . S
O525 Cd522 2.333 . S
O525 C527 1.214 . S
O526 Cd522 2.352 . S
O526 C529 1.258 . S
C527 O524 1.320 . S
C527 O525 1.214 . S
O528 Cd520 2.277 . S
O528 C523 1.209 . S
C529 O526 1.258 . S
C529 O531 1.282 . S
O530 Cd522 2.277 . S
O530 C523 1.226 . S
O531 Cd522 2.356 . S
O531 C529 1.282 . S
C532 O533 1.306 . S
C532 O535 1.160 . S
O533 C532 1.306 . S
O533 Cd534 2.228 . S
Cd534 O533 2.228 . S
Cd534 O538 2.273 . S
Cd534 O542 2.277 . S
O535 C532 1.160 . S
O535 Cd536 2.203 . S
Cd536 O535 2.203 . S
Cd536 O538 2.411 . S
Cd536 O539 2.333 . S
Cd536 O540 2.352 . S
Cd536 O544 2.277 . S
Cd536 O545 2.356 . S
C537 O542 1.209 . S
C537 O544 1.226 . S
O538 Cd534 2.273 . S
O538 Cd536 2.411 . S
O538 C541 1.320 . S
O539 Cd536 2.333 . S
O539 C541 1.214 . S
O540 Cd536 2.352 . S
O540 C543 1.258 . S
C541 O538 1.320 . S
C541 O539 1.214 . S
O542 Cd534 2.277 . S
O542 C537 1.209 . S
C543 O540 1.258 . S
C543 O545 1.282 . S
O544 Cd536 2.277 . S
O544 C537 1.226 . S
O545 Cd536 2.356 . S
O545 C543 1.282 . S
C546 O547 1.306 . S
C546 O549 1.160 . S
O547 C546 1.306 . S
O547 Cd548 2.228 . S
Cd548 O547 2.228 . S
Cd548 O552 2.273 . S
Cd548 O556 2.277 . S
O549 C546 1.160 . S
O549 Cd550 2.203 . S
Cd550 O549 2.203 . S
Cd550 O552 2.411 . S
Cd550 O553 2.333 . S
Cd550 O554 2.352 . S
Cd550 O558 2.277 . S
Cd550 O559 2.356 . S
C551 O556 1.209 . S
C551 O558 1.226 . S
O552 Cd548 2.273 . S
O552 Cd550 2.411 . S
O552 C555 1.320 . S
O553 Cd550 2.333 . S
O553 C555 1.214 . S
O554 Cd550 2.352 . S
O554 C557 1.258 . S
C555 O552 1.320 . S
C555 O553 1.214 . S
O556 Cd548 2.277 . S
O556 C551 1.209 . S
C557 O554 1.258 . S
C557 O559 1.282 . S
O558 Cd550 2.277 . S
O558 C551 1.226 . S
O559 Cd550 2.356 . S
O559 C557 1.282 . S
C560 O561 1.306 . S
C560 O563 1.160 . S
O561 C560 1.306 . S
O561 Cd562 2.228 . S
Cd562 O561 2.228 . S
Cd562 O566 2.273 . S
Cd562 O570 2.277 . S
O563 C560 1.160 . S
O563 Cd564 2.203 . S
Cd564 O563 2.203 . S
Cd564 O566 2.411 . S
Cd564 O567 2.333 . S
Cd564 O568 2.352 . S
Cd564 O572 2.277 . S
Cd564 O573 2.356 . S
C565 O570 1.209 . S
C565 O572 1.226 . S
O566 Cd562 2.273 . S
O566 Cd564 2.411 . S
O566 C569 1.320 . S
O567 Cd564 2.333 . S
O567 C569 1.214 . S
O568 Cd564 2.352 . S
O568 C571 1.258 . S
C569 O566 1.320 . S
C569 O567 1.214 . S
O570 Cd562 2.277 . S
O570 C565 1.209 . S
C571 O568 1.258 . S
C571 O573 1.282 . S
O572 Cd564 2.277 . S
O572 C565 1.226 . S
O573 Cd564 2.356 . S
O573 C571 1.282 . S
C574 O575 1.306 . S
C574 O577 1.160 . S
O575 C574 1.306 . S
O575 Cd576 2.228 . S
Cd576 O575 2.228 . S
Cd576 O580 2.273 . S
Cd576 O584 2.277 . S
O577 C574 1.160 . S
O577 Cd578 2.203 . S
Cd578 O577 2.203 . S
Cd578 O580 2.411 . S
Cd578 O581 2.333 . S
Cd578 O582 2.352 . S
Cd578 O586 2.277 . S
Cd578 O587 2.356 . S
C579 O584 1.209 . S
C579 O586 1.226 . S
O580 Cd576 2.273 . S
O580 Cd578 2.411 . S
O580 C583 1.320 . S
O581 Cd578 2.333 . S
O581 C583 1.214 . S
O582 Cd578 2.352 . S
O582 C585 1.258 . S
C583 O580 1.320 . S
C583 O581 1.214 . S
O584 Cd576 2.277 . S
O584 C579 1.209 . S
C585 O582 1.258 . S
C585 O587 1.282 . S
O586 Cd578 2.277 . S
O586 C579 1.226 . S
O587 Cd578 2.356 . S
O587 C585 1.282 . S
C588 O589 1.306 . S
C588 O591 1.160 . S
O589 C588 1.306 . S
O589 Cd590 2.228 . S
Cd590 O589 2.228 . S
Cd590 O594 2.273 . S
Cd590 O598 2.277 . S
O591 C588 1.160 . S
O591 Cd592 2.203 . S
Cd592 O591 2.203 . S
Cd592 O594 2.411 . S
Cd592 O595 2.333 . S
Cd592 O596 2.352 . S
Cd592 O600 2.277 . S
Cd592 O601 2.356 . S
C593 O598 1.209 . S
C593 O600 1.226 . S
O594 Cd590 2.273 . S
O594 Cd592 2.411 . S
O594 C597 1.320 . S
O595 Cd592 2.333 . S
O595 C597 1.214 . S
O596 Cd592 2.352 . S
O596 C599 1.258 . S
C597 O594 1.320 . S
C597 O595 1.214 . S
O598 Cd590 2.277 . S
O598 C593 1.209 . S
C599 O596 1.258 . S
C599 O601 1.282 . S
O600 Cd592 2.277 . S
O600 C593 1.226 . S
O601 Cd592 2.356 . S
O601 C599 1.282 . S
C602 O603 1.306 . S
C602 O605 1.160 . S
O603 C602 1.306 . S
O603 Cd604 2.228 . S
Cd604 O603 2.228 . S
Cd604 O608 2.273 . S
Cd604 O612 2.277 . S
O605 C602 1.160 . S
O605 Cd606 2.203 . S
Cd606 O605 2.203 . S
Cd606 O608 2.411 . S
Cd606 O609 2.333 . S
Cd606 O610 2.352 . S
Cd606 O614 2.277 . S
Cd606 O615 2.356 . S
C607 O612 1.209 . S
C607 O614 1.226 . S
O608 Cd604 2.273 . S
O608 Cd606 2.411 . S
O608 C611 1.320 . S
O609 Cd606 2.333 . S
O609 C611 1.214 . S
O610 Cd606 2.352 . S
O610 C613 1.258 . S
C611 O608 1.320 . S
C611 O609 1.214 . S
O612 Cd604 2.277 . S
O612 C607 1.209 . S
C613 O610 1.258 . S
C613 O615 1.282 . S
O614 Cd606 2.277 . S
O614 C607 1.226 . S
O615 Cd606 2.356 . S
O615 C613 1.282 . S
C616 O617 1.306 . S
C616 O619 1.160 . S
O617 C616 1.306 . S
O617 Cd618 2.228 . S
Cd618 O617 2.228 . S
Cd618 O622 2.273 . S
Cd618 O626 2.277 . S
O619 C616 1.160 . S
O619 Cd620 2.203 . S
Cd620 O619 2.203 . S
Cd620 O622 2.411 . S
Cd620 O623 2.333 . S
Cd620 O624 2.352 . S
Cd620 O628 2.277 . S
Cd620 O629 2.356 . S
C621 O626 1.209 . S
C621 O628 1.226 . S
O622 Cd618 2.273 . S
O622 Cd620 2.411 . S
O622 C625 1.320 . S
O623 Cd620 2.333 . S
O623 C625 1.214 . S
O624 Cd620 2.352 . S
O624 C627 1.258 . S
C625 O622 1.320 . S
C625 O623 1.214 . S
O626 Cd618 2.277 . S
O626 C621 1.209 . S
C627 O624 1.258 . S
C627 O629 1.282 . S
O628 Cd620 2.277 . S
O628 C621 1.226 . S
O629 Cd620 2.356 . S
O629 C627 1.282 . S
C630 O631 1.306 . S
C630 O633 1.160 . S
O631 C630 1.306 . S
O631 Cd632 2.228 . S
Cd632 O631 2.228 . S
Cd632 O636 2.273 . S
Cd632 O640 2.277 . S
O633 C630 1.160 . S
O633 Cd634 2.203 . S
Cd634 O633 2.203 . S
Cd634 O636 2.411 . S
Cd634 O637 2.333 . S
Cd634 O638 2.352 . S
Cd634 O642 2.277 . S
Cd634 O643 2.356 . S
C635 O640 1.209 . S
C635 O642 1.226 . S
O636 Cd632 2.273 . S
O636 Cd634 2.411 . S
O636 C639 1.320 . S
O637 Cd634 2.333 . S
O637 C639 1.214 . S
O638 Cd634 2.352 . S
O638 C641 1.258 . S
C639 O636 1.320 . S
C639 O637 1.214 . S
O640 Cd632 2.277 . S
O640 C635 1.209 . S
C641 O638 1.258 . S
C641 O643 1.282 . S
O642 Cd634 2.277 . S
O642 C635 1.226 . S
O643 Cd634 2.356 . S
O643 C641 1.282 . S
C644 O645 1.306 . S
C644 O647 1.160 . S
O645 C644 1.306 . S
O645 Cd646 2.228 . S
Cd646 O645 2.228 . S
Cd646 O650 2.273 . S
Cd646 O654 2.277 . S
O647 C644 1.160 . S
O647 Cd648 2.203 . S
Cd648 O647 2.203 . S
Cd648 O650 2.411 . S
Cd648 O651 2.333 . S
Cd648 O652 2.352 . S
Cd648 O656 2.277 . S
Cd648 O657 2.356 . S
C649 O654 1.209 . S
C649 O656 1.226 . S
O650 Cd646 2.273 . S
O650 Cd648 2.411 . S
O650 C653 1.320 . S
O651 Cd648 2.333 . S
O651 C653 1.214 . S
O652 Cd648 2.352 . S
O652 C655 1.258 . S
C653 O650 1.320 . S
C653 O651 1.214 . S
O654 Cd646 2.277 . S
O654 C649 1.209 . S
C655 O652 1.258 . S
C655 O657 1.282 . S
O656 Cd648 2.277 . S
O656 C649 1.226 . S
O657 Cd648 2.356 . S
O657 C655 1.282 . S
C658 O659 1.306 . S
C658 O661 1.160 . S
O659 C658 1.306 . S
O659 Cd660 2.228 . S
Cd660 O659 2.228 . S
Cd660 O664 2.273 . S
Cd660 O668 2.277 . S
O661 C658 1.160 . S
O661 Cd662 2.203 . S
Cd662 O661 2.203 . S
Cd662 O664 2.411 . S
Cd662 O665 2.333 . S
Cd662 O666 2.352 . S
Cd662 O670 2.277 . S
Cd662 O671 2.356 . S
C663 O668 1.209 . S
C663 O670 1.226 . S
O664 Cd660 2.273 . S
O664 Cd662 2.411 . S
O664 C667 1.320 . S
O665 Cd662 2.333 . S
O665 C667 1.214 . S
O666 Cd662 2.352 . S
O666 C669 1.258 . S
C667 O664 1.320 . S
C667 O665 1.214 . S
O668 Cd660 2.277 . S
O668 C663 1.209 . S
C669 O666 1.258 . S
C669 O671 1.282 . S
O670 Cd662 2.277 . S
O670 C663 1.226 . S
O671 Cd662 2.356 . S
O671 C669 1.282 . S
C672 C673 1.349 . S
C672 C674 1.327 . S
C672 H697 0.950 . S
C673 C672 1.349 . S
C673 C689 1.349 . S
C674 C672 1.327 . S
C674 C693 1.429 . S
C674 H698 0.950 . S
C675 C692 1.574 . S
C675 C694 1.368 . S
C675 H699 0.949 . S
H676 C680 0.949 . S
C677 C678 1.349 . S
C677 C679 1.327 . S
C677 H700 0.950 . S
C678 C677 1.349 . S
C678 C690 1.349 . S
C679 C677 1.327 . S
C679 C695 1.429 . S
C679 H701 0.950 . S
C680 H676 0.949 . S
C680 C688 1.574 . S
C680 C696 1.368 . S
H681 C689 0.950 . S
H682 C687 0.950 . S
H683 C688 0.949 . S
H684 C690 0.950 . S
H685 C691 0.950 . S
H686 C692 0.949 . S
C687 H682 0.950 . S
C687 C689 1.327 . S
C687 C693 1.429 . S
C688 C680 1.574 . S
C688 H683 0.949 . S
C688 C694 1.368 . S
C689 C673 1.349 . S
C689 H681 0.950 . S
C689 C687 1.327 . S
C690 C678 1.349 . S
C690 H684 0.950 . S
C690 C691 1.327 . S
C691 H685 0.950 . S
C691 C690 1.327 . S
C691 C695 1.429 . S
C692 C675 1.574 . S
C692 H686 0.949 . S
C692 C696 1.368 . S
C693 C674 1.429 . S
C693 C687 1.429 . S
C693 C694 1.523 . S
C694 C675 1.368 . S
C694 C688 1.368 . S
C694 C693 1.523 . S
C695 C679 1.429 . S
C695 C691 1.429 . S
C695 C696 1.523 . S
C696 C680 1.368 . S
C696 C692 1.368 . S
C696 C695 1.523 . S
H697 C672 0.950 . S
H698 C674 0.950 . S
H699 C675 0.949 . S
H700 C677 0.950 . S
H701 C679 0.950 . S
C702 C703 1.349 . S
C702 C704 1.327 . S
C702 H727 0.950 . S
C703 C702 1.349 . S
C703 C719 1.349 . S
C704 C702 1.327 . S
C704 C723 1.429 . S
C704 H728 0.950 . S
C705 C722 1.574 . S
C705 C724 1.368 . S
C705 H729 0.949 . S
H706 C710 0.949 . S
C707 C708 1.349 . S
C707 C709 1.327 . S
C707 H730 0.950 . S
C708 C707 1.349 . S
C708 C720 1.349 . S
C709 C707 1.327 . S
C709 C725 1.429 . S
C709 H731 0.950 . S
C710 H706 0.949 . S
C710 C718 1.574 . S
C710 C726 1.368 . S
H711 C719 0.950 . S
H712 C717 0.950 . S
H713 C718 0.949 . S
H714 C720 0.950 . S
H715 C721 0.950 . S
H716 C722 0.949 . S
C717 H712 0.950 . S
C717 C719 1.327 . S
C717 C723 1.429 . S
C718 C710 1.574 . S
C718 H713 0.949 . S
C718 C724 1.368 . S
C719 C703 1.349 . S
C719 H711 0.950 . S
C719 C717 1.327 . S
C720 C708 1.349 . S
C720 H714 0.950 . S
C720 C721 1.327 . S
C721 H715 0.950 . S
C721 C720 1.327 . S
C721 C725 1.429 . S
C722 C705 1.574 . S
C722 H716 0.949 . S
C722 C726 1.368 . S
C723 C704 1.429 . S
C723 C717 1.429 . S
C723 C724 1.523 . S
C724 C705 1.368 . S
C724 C718 1.368 . S
C724 C723 1.523 . S
C725 C709 1.429 . S
C725 C721 1.429 . S
C725 C726 1.523 . S
C726 C710 1.368 . S
C726 C722 1.368 . S
C726 C725 1.523 . S
H727 C702 0.950 . S
H728 C704 0.950 . S
H729 C705 0.949 . S
H730 C707 0.950 . S
H731 C709 0.950 . S
C732 C733 1.349 . S
C732 C734 1.327 . S
C732 H757 0.950 . S
C733 C732 1.349 . S
C733 C749 1.349 . S
C734 C732 1.327 . S
C734 C753 1.429 . S
C734 H758 0.950 . S
C735 C752 1.574 . S
C735 C754 1.368 . S
C735 H759 0.949 . S
H736 C740 0.949 . S
C737 C738 1.349 . S
C737 C739 1.327 . S
C737 H760 0.950 . S
C738 C737 1.349 . S
C738 C750 1.349 . S
C739 C737 1.327 . S
C739 C755 1.429 . S
C739 H761 0.950 . S
C740 H736 0.949 . S
C740 C748 1.574 . S
C740 C756 1.368 . S
H741 C749 0.950 . S
H742 C747 0.950 . S
H743 C748 0.949 . S
H744 C750 0.950 . S
H745 C751 0.950 . S
H746 C752 0.949 . S
C747 H742 0.950 . S
C747 C749 1.327 . S
C747 C753 1.429 . S
C748 C740 1.574 . S
C748 H743 0.949 . S
C748 C754 1.368 . S
C749 C733 1.349 . S
C749 H741 0.950 . S
C749 C747 1.327 . S
C750 C738 1.349 . S
C750 H744 0.950 . S
C750 C751 1.327 . S
C751 H745 0.950 . S
C751 C750 1.327 . S
C751 C755 1.429 . S
C752 C735 1.574 . S
C752 H746 0.949 . S
C752 C756 1.368 . S
C753 C734 1.429 . S
C753 C747 1.429 . S
C753 C754 1.523 . S
C754 C735 1.368 . S
C754 C748 1.368 . S
C754 C753 1.523 . S
C755 C739 1.429 . S
C755 C751 1.429 . S
C755 C756 1.523 . S
C756 C740 1.368 . S
C756 C752 1.368 . S
C756 C755 1.523 . S
H757 C732 0.950 . S
H758 C734 0.950 . S
H759 C735 0.949 . S
H760 C737 0.950 . S
H761 C739 0.950 . S
C762 C763 1.349 . S
C762 C764 1.327 . S
C762 H787 0.950 . S
C763 C762 1.349 . S
C763 C779 1.349 . S
C764 C762 1.327 . S
C764 C783 1.429 . S
C764 H788 0.950 . S
C765 C782 1.574 . S
C765 C784 1.368 . S
C765 H789 0.949 . S
H766 C770 0.949 . S
C767 C768 1.349 . S
C767 C769 1.327 . S
C767 H790 0.950 . S
C768 C767 1.349 . S
C768 C780 1.349 . S
C769 C767 1.327 . S
C769 C785 1.429 . S
C769 H791 0.950 . S
C770 H766 0.949 . S
C770 C778 1.574 . S
C770 C786 1.368 . S
H771 C779 0.950 . S
H772 C777 0.950 . S
H773 C778 0.949 . S
H774 C780 0.950 . S
H775 C781 0.950 . S
H776 C782 0.949 . S
C777 H772 0.950 . S
C777 C779 1.327 . S
C777 C783 1.429 . S
C778 C770 1.574 . S
C778 H773 0.949 . S
C778 C784 1.368 . S
C779 C763 1.349 . S
C779 H771 0.950 . S
C779 C777 1.327 . S
C780 C768 1.349 . S
C780 H774 0.950 . S
C780 C781 1.327 . S
C781 H775 0.950 . S
C781 C780 1.327 . S
C781 C785 1.429 . S
C782 C765 1.574 . S
C782 H776 0.949 . S
C782 C786 1.368 . S
C783 C764 1.429 . S
C783 C777 1.429 . S
C783 C784 1.523 . S
C784 C765 1.368 . S
C784 C778 1.368 . S
C784 C783 1.523 . S
C785 C769 1.429 . S
C785 C781 1.429 . S
C785 C786 1.523 . S
C786 C770 1.368 . S
C786 C782 1.368 . S
C786 C785 1.523 . S
H787 C762 0.950 . S
H788 C764 0.950 . S
H789 C765 0.949 . S
H790 C767 0.950 . S
H791 C769 0.950 . S
C792 C793 1.349 . S
C792 C794 1.327 . S
C792 H817 0.950 . S
C793 C792 1.349 . S
C793 C809 1.349 . S
C794 C792 1.327 . S
C794 C813 1.429 . S
C794 H818 0.950 . S
C795 C812 1.574 . S
C795 C814 1.368 . S
C795 H819 0.949 . S
H796 C800 0.949 . S
C797 C798 1.349 . S
C797 C799 1.327 . S
C797 H820 0.950 . S
C798 C797 1.349 . S
C798 C810 1.349 . S
C799 C797 1.327 . S
C799 C815 1.429 . S
C799 H821 0.950 . S
C800 H796 0.949 . S
C800 C808 1.574 . S
C800 C816 1.368 . S
H801 C809 0.950 . S
H802 C807 0.950 . S
H803 C808 0.949 . S
H804 C810 0.950 . S
H805 C811 0.950 . S
H806 C812 0.949 . S
C807 H802 0.950 . S
C807 C809 1.327 . S
C807 C813 1.429 . S
C808 C800 1.574 . S
C808 H803 0.949 . S
C808 C814 1.368 . S
C809 C793 1.349 . S
C809 H801 0.950 . S
C809 C807 1.327 . S
C810 C798 1.349 . S
C810 H804 0.950 . S
C810 C811 1.327 . S
C811 H805 0.950 . S
C811 C810 1.327 . S
C811 C815 1.429 . S
C812 C795 1.574 . S
C812 H806 0.949 . S
C812 C816 1.368 . S
C813 C794 1.429 . S
C813 C807 1.429 . S
C813 C814 1.523 . S
C814 C795 1.368 . S
C814 C808 1.368 . S
C814 C813 1.523 . S
C815 C799 1.429 . S
C815 C811 1.429 . S
C815 C816 1.523 . S
C816 C800 1.368 . S
C816 C812 1.368 . S
C816 C815 1.523 . S
H817 C792 0.950 . S
H818 C794 0.950 . S
H819 C795 0.949 . S
H820 C797 0.950 . S
H821 C799 0.950 . S
C822 C823 1.349 . S
C822 C824 1.327 . S
C822 H847 0.950 . S
C823 C822 1.349 . S
C823 C839 1.349 . S
C824 C822 1.327 . S
C824 C843 1.429 . S
C824 H848 0.950 . S
C825 C842 1.574 . S
C825 C844 1.368 . S
C825 H849 0.949 . S
H826 C830 0.949 . S
C827 C828 1.349 . S
C827 C829 1.327 . S
C827 H850 0.950 . S
C828 C827 1.349 . S
C828 C840 1.349 . S
C829 C827 1.327 . S
C829 C845 1.429 . S
C829 H851 0.950 . S
C830 H826 0.949 . S
C830 C838 1.574 . S
C830 C846 1.368 . S
H831 C839 0.950 . S
H832 C837 0.950 . S
H833 C838 0.949 . S
H834 C840 0.950 . S
H835 C841 0.950 . S
H836 C842 0.949 . S
C837 H832 0.950 . S
C837 C839 1.327 . S
C837 C843 1.429 . S
C838 C830 1.574 . S
C838 H833 0.949 . S
C838 C844 1.368 . S
C839 C823 1.349 . S
C839 H831 0.950 . S
C839 C837 1.327 . S
C840 C828 1.349 . S
C840 H834 0.950 . S
C840 C841 1.327 . S
C841 H835 0.950 . S
C841 C840 1.327 . S
C841 C845 1.429 . S
C842 C825 1.574 . S
C842 H836 0.949 . S
C842 C846 1.368 . S
C843 C824 1.429 . S
C843 C837 1.429 . S
C843 C844 1.523 . S
C844 C825 1.368 . S
C844 C838 1.368 . S
C844 C843 1.523 . S
C845 C829 1.429 . S
C845 C841 1.429 . S
C845 C846 1.523 . S
C846 C830 1.368 . S
C846 C842 1.368 . S
C846 C845 1.523 . S
H847 C822 0.950 . S
H848 C824 0.950 . S
H849 C825 0.949 . S
H850 C827 0.950 . S
H851 C829 0.950 . S
C852 C853 1.349 . S
C852 C854 1.327 . S
C852 H877 0.950 . S
C853 C852 1.349 . S
C853 C869 1.349 . S
C854 C852 1.327 . S
C854 C873 1.429 . S
C854 H878 0.950 . S
C855 C872 1.574 . S
C855 C874 1.368 . S
C855 H879 0.949 . S
H856 C860 0.949 . S
C857 C858 1.349 . S
C857 C859 1.327 . S
C857 H880 0.950 . S
C858 C857 1.349 . S
C858 C870 1.349 . S
C859 C857 1.327 . S
C859 C875 1.429 . S
C859 H881 0.950 . S
C860 H856 0.949 . S
C860 C868 1.574 . S
C860 C876 1.368 . S
H861 C869 0.950 . S
H862 C867 0.950 . S
H863 C868 0.949 . S
H864 C870 0.950 . S
H865 C871 0.950 . S
H866 C872 0.949 . S
C867 H862 0.950 . S
C867 C869 1.327 . S
C867 C873 1.429 . S
C868 C860 1.574 . S
C868 H863 0.949 . S
C868 C874 1.368 . S
C869 C853 1.349 . S
C869 H861 0.950 . S
C869 C867 1.327 . S
C870 C858 1.349 . S
C870 H864 0.950 . S
C870 C871 1.327 . S
C871 H865 0.950 . S
C871 C870 1.327 . S
C871 C875 1.429 . S
C872 C855 1.574 . S
C872 H866 0.949 . S
C872 C876 1.368 . S
C873 C854 1.429 . S
C873 C867 1.429 . S
C873 C874 1.523 . S
C874 C855 1.368 . S
C874 C868 1.368 . S
C874 C873 1.523 . S
C875 C859 1.429 . S
C875 C871 1.429 . S
C875 C876 1.523 . S
C876 C860 1.368 . S
C876 C872 1.368 . S
C876 C875 1.523 . S
H877 C852 0.950 . S
H878 C854 0.950 . S
H879 C855 0.949 . S
H880 C857 0.950 . S
H881 C859 0.950 . S
C882 C883 1.349 . S
C882 C884 1.327 . S
C882 H907 0.950 . S
C883 C882 1.349 . S
C883 C899 1.349 . S
C884 C882 1.327 . S
C884 C903 1.429 . S
C884 H908 0.950 . S
C885 C902 1.574 . S
C885 C904 1.368 . S
C885 H909 0.949 . S
H886 C890 0.949 . S
C887 C888 1.349 . S
C887 C889 1.327 . S
C887 H910 0.950 . S
C888 C887 1.349 . S
C888 C900 1.349 . S
C889 C887 1.327 . S
C889 C905 1.429 . S
C889 H911 0.950 . S
C890 H886 0.949 . S
C890 C898 1.574 . S
C890 C906 1.368 . S
H891 C899 0.950 . S
H892 C897 0.950 . S
H893 C898 0.949 . S
H894 C900 0.950 . S
H895 C901 0.950 . S
H896 C902 0.949 . S
C897 H892 0.950 . S
C897 C899 1.327 . S
C897 C903 1.429 . S
C898 C890 1.574 . S
C898 H893 0.949 . S
C898 C904 1.368 . S
C899 C883 1.349 . S
C899 H891 0.950 . S
C899 C897 1.327 . S
C900 C888 1.349 . S
C900 H894 0.950 . S
C900 C901 1.327 . S
C901 H895 0.950 . S
C901 C900 1.327 . S
C901 C905 1.429 . S
C902 C885 1.574 . S
C902 H896 0.949 . S
C902 C906 1.368 . S
C903 C884 1.429 . S
C903 C897 1.429 . S
C903 C904 1.523 . S
C904 C885 1.368 . S
C904 C898 1.368 . S
C904 C903 1.523 . S
C905 C889 1.429 . S
C905 C901 1.429 . S
C905 C906 1.523 . S
C906 C890 1.368 . S
C906 C902 1.368 . S
C906 C905 1.523 . S
H907 C882 0.950 . S
H908 C884 0.950 . S
H909 C885 0.949 . S
H910 C887 0.950 . S
H911 C889 0.950 . S
C912 C913 1.349 . S
C912 C914 1.327 . S
C912 H937 0.950 . S
C913 C912 1.349 . S
C913 C929 1.349 . S
C914 C912 1.327 . S
C914 C933 1.429 . S
C914 H938 0.950 . S
C915 C932 1.574 . S
C915 C934 1.368 . S
C915 H939 0.949 . S
H916 C920 0.949 . S
C917 C918 1.349 . S
C917 C919 1.327 . S
C917 H940 0.950 . S
C918 C917 1.349 . S
C918 C930 1.349 . S
C919 C917 1.327 . S
C919 C935 1.429 . S
C919 H941 0.950 . S
C920 H916 0.949 . S
C920 C928 1.574 . S
C920 C936 1.368 . S
H921 C929 0.950 . S
H922 C927 0.950 . S
H923 C928 0.949 . S
H924 C930 0.950 . S
H925 C931 0.950 . S
H926 C932 0.949 . S
C927 H922 0.950 . S
C927 C929 1.327 . S
C927 C933 1.429 . S
C928 C920 1.574 . S
C928 H923 0.949 . S
C928 C934 1.368 . S
C929 C913 1.349 . S
C929 H921 0.950 . S
C929 C927 1.327 . S
C930 C918 1.349 . S
C930 H924 0.950 . S
C930 C931 1.327 . S
C931 H925 0.950 . S
C931 C930 1.327 . S
C931 C935 1.429 . S
C932 C915 1.574 . S
C932 H926 0.949 . S
C932 C936 1.368 . S
C933 C914 1.429 . S
C933 C927 1.429 . S
C933 C934 1.523 . S
C934 C915 1.368 . S
C934 C928 1.368 . S
C934 C933 1.523 . S
C935 C919 1.429 . S
C935 C931 1.429 . S
C935 C936 1.523 . S
C936 C920 1.368 . S
C936 C932 1.368 . S
C936 C935 1.523 . S
H937 C912 0.950 . S
H938 C914 0.950 . S
H939 C915 0.949 . S
H940 C917 0.950 . S
H941 C919 0.950 . S
C942 C943 1.349 . S
C942 C944 1.327 . S
C942 H967 0.950 . S
C943 C942 1.349 . S
C943 C959 1.349 . S
C944 C942 1.327 . S
C944 C963 1.429 . S
C944 H968 0.950 . S
C945 C962 1.574 . S
C945 C964 1.368 . S
C945 H969 0.949 . S
H946 C950 0.949 . S
C947 C948 1.349 . S
C947 C949 1.327 . S
C947 H970 0.950 . S
C948 C947 1.349 . S
C948 C960 1.349 . S
C949 C947 1.327 . S
C949 C965 1.429 . S
C949 H971 0.950 . S
C950 H946 0.949 . S
C950 C958 1.574 . S
C950 C966 1.368 . S
H951 C959 0.950 . S
H952 C957 0.950 . S
H953 C958 0.949 . S
H954 C960 0.950 . S
H955 C961 0.950 . S
H956 C962 0.949 . S
C957 H952 0.950 . S
C957 C959 1.327 . S
C957 C963 1.429 . S
C958 C950 1.574 . S
C958 H953 0.949 . S
C958 C964 1.368 . S
C959 C943 1.349 . S
C959 H951 0.950 . S
C959 C957 1.327 . S
C960 C948 1.349 . S
C960 H954 0.950 . S
C960 C961 1.327 . S
C961 H955 0.950 . S
C961 C960 1.327 . S
C961 C965 1.429 . S
C962 C945 1.574 . S
C962 H956 0.949 . S
C962 C966 1.368 . S
C963 C944 1.429 . S
C963 C957 1.429 . S
C963 C964 1.523 . S
C964 C945 1.368 . S
C964 C958 1.368 . S
C964 C963 1.523 . S
C965 C949 1.429 . S
C965 C961 1.429 . S
C965 C966 1.523 . S
C966 C950 1.368 . S
C966 C962 1.368 . S
C966 C965 1.523 . S
H967 C942 0.950 . S
H968 C944 0.950 . S
H969 C945 0.949 . S
H970 C947 0.950 . S
H971 C949 0.950 . S
C972 C973 1.349 . S
C972 C974 1.327 . S
C972 H997 0.950 . S
C973 C972 1.349 . S
C973 C989 1.349 . S
C974 C972 1.327 . S
C974 C993 1.429 . S
C974 H998 0.950 . S
C975 C992 1.574 . S
C975 C994 1.368 . S
C975 H999 0.949 . S
H976 C980 0.949 . S
C977 C978 1.349 . S
C977 C979 1.327 . S
C977 H1000 0.950 . S
C978 C977 1.349 . S
C978 C990 1.349 . S
C979 C977 1.327 . S
C979 C995 1.429 . S
C979 H1001 0.950 . S
C980 H976 0.949 . S
C980 C988 1.574 . S
C980 C996 1.368 . S
H981 C989 0.950 . S
H982 C987 0.950 . S
H983 C988 0.949 . S
H984 C990 0.950 . S
H985 C991 0.950 . S
H986 C992 0.949 . S
C987 H982 0.950 . S
C987 C989 1.327 . S
C987 C993 1.429 . S
C988 C980 1.574 . S
C988 H983 0.949 . S
C988 C994 1.368 . S
C989 C973 1.349 . S
C989 H981 0.950 . S
C989 C987 1.327 . S
C990 C978 1.349 . S
C990 H984 0.950 . S
C990 C991 1.327 . S
C991 H985 0.950 . S
C991 C990 1.327 . S
C991 C995 1.429 . S
C992 C975 1.574 . S
C992 H986 0.949 . S
C992 C996 1.368 . S
C993 C974 1.429 . S
C993 C987 1.429 . S
C993 C994 1.523 . S
C994 C975 1.368 . S
C994 C988 1.368 . S
C994 C993 1.523 . S
C995 C979 1.429 . S
C995 C991 1.429 . S
C995 C996 1.523 . S
C996 C980 1.368 . S
C996 C992 1.368 . S
C996 C995 1.523 . S
H997 C972 0.950 . S
H998 C974 0.950 . S
H999 C975 0.949 . S
H1000 C977 0.950 . S
H1001 C979 0.950 . S
C1002 C1003 1.349 . S
C1002 C1004 1.327 . S
C1002 H1027 0.950 . S
C1003 C1002 1.349 . S
C1003 C1019 1.349 . S
C1004 C1002 1.327 . S
C1004 C1023 1.429 . S
C1004 H1028 0.950 . S
C1005 C1022 1.574 . S
C1005 C1024 1.368 . S
C1005 H1029 0.949 . S
H1006 C1010 0.949 . S
C1007 C1008 1.349 . S
C1007 C1009 1.327 . S
C1007 H1030 0.950 . S
C1008 C1007 1.349 . S
C1008 C1020 1.349 . S
C1009 C1007 1.327 . S
C1009 C1025 1.429 . S
C1009 H1031 0.950 . S
C1010 H1006 0.949 . S
C1010 C1018 1.574 . S
C1010 C1026 1.368 . S
H1011 C1019 0.950 . S
H1012 C1017 0.950 . S
H1013 C1018 0.949 . S
H1014 C1020 0.950 . S
H1015 C1021 0.950 . S
H1016 C1022 0.949 . S
C1017 H1012 0.950 . S
C1017 C1019 1.327 . S
C1017 C1023 1.429 . S
C1018 C1010 1.574 . S
C1018 H1013 0.949 . S
C1018 C1024 1.368 . S
C1019 C1003 1.349 . S
C1019 H1011 0.950 . S
C1019 C1017 1.327 . S
C1020 C1008 1.349 . S
C1020 H1014 0.950 . S
C1020 C1021 1.327 . S
C1021 H1015 0.950 . S
C1021 C1020 1.327 . S
C1021 C1025 1.429 . S
C1022 C1005 1.574 . S
C1022 H1016 0.949 . S
C1022 C1026 1.368 . S
C1023 C1004 1.429 . S
C1023 C1017 1.429 . S
C1023 C1024 1.523 . S
C1024 C1005 1.368 . S
C1024 C1018 1.368 . S
C1024 C1023 1.523 . S
C1025 C1009 1.429 . S
C1025 C1021 1.429 . S
C1025 C1026 1.523 . S
C1026 C1010 1.368 . S
C1026 C1022 1.368 . S
C1026 C1025 1.523 . S
H1027 C1002 0.950 . S
H1028 C1004 0.950 . S
H1029 C1005 0.949 . S
H1030 C1007 0.950 . S
H1031 C1009 0.950 . S
C1032 C1033 1.349 . S
C1032 C1034 1.327 . S
C1032 H1057 0.950 . S
C1033 C1032 1.349 . S
C1033 C1049 1.349 . S
C1034 C1032 1.327 . S
C1034 C1053 1.429 . S
C1034 H1058 0.950 . S
C1035 C1052 1.574 . S
C1035 C1054 1.368 . S
C1035 H1059 0.949 . S
H1036 C1040 0.949 . S
C1037 C1038 1.349 . S
C1037 C1039 1.327 . S
C1037 H1060 0.950 . S
C1038 C1037 1.349 . S
C1038 C1050 1.349 . S
C1039 C1037 1.327 . S
C1039 C1055 1.429 . S
C1039 H1061 0.950 . S
C1040 H1036 0.949 . S
C1040 C1048 1.574 . S
C1040 C1056 1.368 . S
H1041 C1049 0.950 . S
H1042 C1047 0.950 . S
H1043 C1048 0.949 . S
H1044 C1050 0.950 . S
H1045 C1051 0.950 . S
H1046 C1052 0.949 . S
C1047 H1042 0.950 . S
C1047 C1049 1.327 . S
C1047 C1053 1.429 . S
C1048 C1040 1.574 . S
C1048 H1043 0.949 . S
C1048 C1054 1.368 . S
C1049 C1033 1.349 . S
C1049 H1041 0.950 . S
C1049 C1047 1.327 . S
C1050 C1038 1.349 . S
C1050 H1044 0.950 . S
C1050 C1051 1.327 . S
C1051 H1045 0.950 . S
C1051 C1050 1.327 . S
C1051 C1055 1.429 . S
C1052 C1035 1.574 . S
C1052 H1046 0.949 . S
C1052 C1056 1.368 . S
C1053 C1034 1.429 . S
C1053 C1047 1.429 . S
C1053 C1054 1.523 . S
C1054 C1035 1.368 . S
C1054 C1048 1.368 . S
C1054 C1053 1.523 . S
C1055 C1039 1.429 . S
C1055 C1051 1.429 . S
C1055 C1056 1.523 . S
C1056 C1040 1.368 . S
C1056 C1052 1.368 . S
C1056 C1055 1.523 . S
H1057 C1032 0.950 . S
H1058 C1034 0.950 . S
H1059 C1035 0.949 . S
H1060 C1037 0.950 . S
H1061 C1039 0.950 . S
C1062 C1063 1.349 . S
C1062 C1064 1.327 . S
C1062 H1087 0.950 . S
C1063 C1062 1.349 . S
C1063 C1079 1.349 . S
C1064 C1062 1.327 . S
C1064 C1083 1.429 . S
C1064 H1088 0.950 . S
C1065 C1082 1.574 . S
C1065 C1084 1.368 . S
C1065 H1089 0.949 . S
H1066 C1070 0.949 . S
C1067 C1068 1.349 . S
C1067 C1069 1.327 . S
C1067 H1090 0.950 . S
C1068 C1067 1.349 . S
C1068 C1080 1.349 . S
C1069 C1067 1.327 . S
C1069 C1085 1.429 . S
C1069 H1091 0.950 . S
C1070 H1066 0.949 . S
C1070 C1078 1.574 . S
C1070 C1086 1.368 . S
H1071 C1079 0.950 . S
H1072 C1077 0.950 . S
H1073 C1078 0.949 . S
H1074 C1080 0.950 . S
H1075 C1081 0.950 . S
H1076 C1082 0.949 . S
C1077 H1072 0.950 . S
C1077 C1079 1.327 . S
C1077 C1083 1.429 . S
C1078 C1070 1.574 . S
C1078 H1073 0.949 . S
C1078 C1084 1.368 . S
C1079 C1063 1.349 . S
C1079 H1071 0.950 . S
C1079 C1077 1.327 . S
C1080 C1068 1.349 . S
C1080 H1074 0.950 . S
C1080 C1081 1.327 . S
C1081 H1075 0.950 . S
C1081 C1080 1.327 . S
C1081 C1085 1.429 . S
C1082 C1065 1.574 . S
C1082 H1076 0.949 . S
C1082 C1086 1.368 . S
C1083 C1064 1.429 . S
C1083 C1077 1.429 . S
C1083 C1084 1.523 . S
C1084 C1065 1.368 . S
C1084 C1078 1.368 . S
C1084 C1083 1.523 . S
C1085 C1069 1.429 . S
C1085 C1081 1.429 . S
C1085 C1086 1.523 . S
C1086 C1070 1.368 . S
C1086 C1082 1.368 . S
C1086 C1085 1.523 . S
H1087 C1062 0.950 . S
H1088 C1064 0.950 . S
H1089 C1065 0.949 . S
H1090 C1067 0.950 . S
H1091 C1069 0.950 . S
C1092 C1093 1.349 . S
C1092 C1094 1.327 . S
C1092 H1117 0.950 . S
C1093 C1092 1.349 . S
C1093 C1109 1.349 . S
C1094 C1092 1.327 . S
C1094 C1113 1.429 . S
C1094 H1118 0.950 . S
C1095 C1112 1.574 . S
C1095 C1114 1.368 . S
C1095 H1119 0.949 . S
H1096 C1100 0.949 . S
C1097 C1098 1.349 . S
C1097 C1099 1.327 . S
C1097 H1120 0.950 . S
C1098 C1097 1.349 . S
C1098 C1110 1.349 . S
C1099 C1097 1.327 . S
C1099 C1115 1.429 . S
C1099 H1121 0.950 . S
C1100 H1096 0.949 . S
C1100 C1108 1.574 . S
C1100 C1116 1.368 . S
H1101 C1109 0.950 . S
H1102 C1107 0.950 . S
H1103 C1108 0.949 . S
H1104 C1110 0.950 . S
H1105 C1111 0.950 . S
H1106 C1112 0.949 . S
C1107 H1102 0.950 . S
C1107 C1109 1.327 . S
C1107 C1113 1.429 . S
C1108 C1100 1.574 . S
C1108 H1103 0.949 . S
C1108 C1114 1.368 . S
C1109 C1093 1.349 . S
C1109 H1101 0.950 . S
C1109 C1107 1.327 . S
C1110 C1098 1.349 . S
C1110 H1104 0.950 . S
C1110 C1111 1.327 . S
C1111 H1105 0.950 . S
C1111 C1110 1.327 . S
C1111 C1115 1.429 . S
C1112 C1095 1.574 . S
C1112 H1106 0.949 . S
C1112 C1116 1.368 . S
C1113 C1094 1.429 . S
C1113 C1107 1.429 . S
C1113 C1114 1.523 . S
C1114 C1095 1.368 . S
C1114 C1108 1.368 . S
C1114 C1113 1.523 . S
C1115 C1099 1.429 . S
C1115 C1111 1.429 . S
C1115 C1116 1.523 . S
C1116 C1100 1.368 . S
C1116 C1112 1.368 . S
C1116 C1115 1.523 . S
H1117 C1092 0.950 . S
H1118 C1094 0.950 . S
H1119 C1095 0.949 . S
H1120 C1097 0.950 . S
H1121 C1099 0.950 . S
C1122 C1123 1.349 . S
C1122 C1124 1.327 . S
C1122 H1147 0.950 . S
C1123 C1122 1.349 . S
C1123 C1139 1.349 . S
C1124 C1122 1.327 . S
C1124 C1143 1.429 . S
C1124 H1148 0.950 . S
C1125 C1142 1.574 . S
C1125 C1144 1.368 . S
C1125 H1149 0.949 . S
H1126 C1130 0.949 . S
C1127 C1128 1.349 . S
C1127 C1129 1.327 . S
C1127 H1150 0.950 . S
C1128 C1127 1.349 . S
C1128 C1140 1.349 . S
C1129 C1127 1.327 . S
C1129 C1145 1.429 . S
C1129 H1151 0.950 . S
C1130 H1126 0.949 . S
C1130 C1138 1.574 . S
C1130 C1146 1.368 . S
H1131 C1139 0.950 . S
H1132 C1137 0.950 . S
H1133 C1138 0.949 . S
H1134 C1140 0.950 . S
H1135 C1141 0.950 . S
H1136 C1142 0.949 . S
C1137 H1132 0.950 . S
C1137 C1139 1.327 . S
C1137 C1143 1.429 . S
C1138 C1130 1.574 . S
C1138 H1133 0.949 . S
C1138 C1144 1.368 . S
C1139 C1123 1.349 . S
C1139 H1131 0.950 . S
C1139 C1137 1.327 . S
C1140 C1128 1.349 . S
C1140 H1134 0.950 . S
C1140 C1141 1.327 . S
C1141 H1135 0.950 . S
C1141 C1140 1.327 . S
C1141 C1145 1.429 . S
C1142 C1125 1.574 . S
C1142 H1136 0.949 . S
C1142 C1146 1.368 . S
C1143 C1124 1.429 . S
C1143 C1137 1.429 . S
C1143 C1144 1.523 . S
C1144 C1125 1.368 . S
C1144 C1138 1.368 . S
C1144 C1143 1.523 . S
C1145 C1129 1.429 . S
C1145 C1141 1.429 . S
C1145 C1146 1.523 . S
C1146 C1130 1.368 . S
C1146 C1142 1.368 . S
C1146 C1145 1.523 . S
H1147 C1122 0.950 . S
H1148 C1124 0.950 . S
H1149 C1125 0.949 . S
H1150 C1127 0.950 . S
H1151 C1129 0.950 . S
C1152 C1153 1.349 . S
C1152 C1154 1.327 . S
C1152 H1177 0.950 . S
C1153 C1152 1.349 . S
C1153 C1169 1.349 . S
C1154 C1152 1.327 . S
C1154 C1173 1.429 . S
C1154 H1178 0.950 . S
C1155 C1172 1.574 . S
C1155 C1174 1.368 . S
C1155 H1179 0.949 . S
H1156 C1160 0.949 . S
C1157 C1158 1.349 . S
C1157 C1159 1.327 . S
C1157 H1180 0.950 . S
C1158 C1157 1.349 . S
C1158 C1170 1.349 . S
C1159 C1157 1.327 . S
C1159 C1175 1.429 . S
C1159 H1181 0.950 . S
C1160 H1156 0.949 . S
C1160 C1168 1.574 . S
C1160 C1176 1.368 . S
H1161 C1169 0.950 . S
H1162 C1167 0.950 . S
H1163 C1168 0.949 . S
H1164 C1170 0.950 . S
H1165 C1171 0.950 . S
H1166 C1172 0.949 . S
C1167 H1162 0.950 . S
C1167 C1169 1.327 . S
C1167 C1173 1.429 . S
C1168 C1160 1.574 . S
C1168 H1163 0.949 . S
C1168 C1174 1.368 . S
C1169 C1153 1.349 . S
C1169 H1161 0.950 . S
C1169 C1167 1.327 . S
C1170 C1158 1.349 . S
C1170 H1164 0.950 . S
C1170 C1171 1.327 . S
C1171 H1165 0.950 . S
C1171 C1170 1.327 . S
C1171 C1175 1.429 . S
C1172 C1155 1.574 . S
C1172 H1166 0.949 . S
C1172 C1176 1.368 . S
C1173 C1154 1.429 . S
C1173 C1167 1.429 . S
C1173 C1174 1.523 . S
C1174 C1155 1.368 . S
C1174 C1168 1.368 . S
C1174 C1173 1.523 . S
C1175 C1159 1.429 . S
C1175 C1171 1.429 . S
C1175 C1176 1.523 . S
C1176 C1160 1.368 . S
C1176 C1172 1.368 . S
C1176 C1175 1.523 . S
H1177 C1152 0.950 . S
H1178 C1154 0.950 . S
H1179 C1155 0.949 . S
H1180 C1157 0.950 . S
H1181 C1159 0.950 . S
C1182 C1183 1.349 . S
C1182 C1184 1.327 . S
C1182 H1207 0.950 . S
C1183 C1182 1.349 . S
C1183 C1199 1.349 . S
C1184 C1182 1.327 . S
C1184 C1203 1.429 . S
C1184 H1208 0.950 . S
C1185 C1202 1.574 . S
C1185 C1204 1.368 . S
C1185 H1209 0.949 . S
H1186 C1190 0.949 . S
C1187 C1188 1.349 . S
C1187 C1189 1.327 . S
C1187 H1210 0.950 . S
C1188 C1187 1.349 . S
C1188 C1200 1.349 . S
C1189 C1187 1.327 . S
C1189 C1205 1.429 . S
C1189 H1211 0.950 . S
C1190 H1186 0.949 . S
C1190 C1198 1.574 . S
C1190 C1206 1.368 . S
H1191 C1199 0.950 . S
H1192 C1197 0.950 . S
H1193 C1198 0.949 . S
H1194 C1200 0.950 . S
H1195 C1201 0.950 . S
H1196 C1202 0.949 . S
C1197 H1192 0.950 . S
C1197 C1199 1.327 . S
C1197 C1203 1.429 . S
C1198 C1190 1.574 . S
C1198 H1193 0.949 . S
C1198 C1204 1.368 . S
C1199 C1183 1.349 . S
C1199 H1191 0.950 . S
C1199 C1197 1.327 . S
C1200 C1188 1.349 . S
C1200 H1194 0.950 . S
C1200 C1201 1.327 . S
C1201 H1195 0.950 . S
C1201 C1200 1.327 . S
C1201 C1205 1.429 . S
C1202 C1185 1.574 . S
C1202 H1196 0.949 . S
C1202 C1206 1.368 . S
C1203 C1184 1.429 . S
C1203 C1197 1.429 . S
C1203 C1204 1.523 . S
C1204 C1185 1.368 . S
C1204 C1198 1.368 . S
C1204 C1203 1.523 . S
C1205 C1189 1.429 . S
C1205 C1201 1.429 . S
C1205 C1206 1.523 . S
C1206 C1190 1.368 . S
C1206 C1202 1.368 . S
C1206 C1205 1.523 . S
H1207 C1182 0.950 . S
H1208 C1184 0.950 . S
H1209 C1185 0.949 . S
H1210 C1187 0.950 . S
H1211 C1189 0.950 . S
C1212 C1213 1.349 . S
C1212 C1214 1.327 . S
C1212 H1237 0.950 . S
C1213 C1212 1.349 . S
C1213 C1229 1.349 . S
C1214 C1212 1.327 . S
C1214 C1233 1.429 . S
C1214 H1238 0.950 . S
C1215 C1232 1.574 . S
C1215 C1234 1.368 . S
C1215 H1239 0.949 . S
H1216 C1220 0.949 . S
C1217 C1218 1.349 . S
C1217 C1219 1.327 . S
C1217 H1240 0.950 . S
C1218 C1217 1.349 . S
C1218 C1230 1.349 . S
C1219 C1217 1.327 . S
C1219 C1235 1.429 . S
C1219 H1241 0.950 . S
C1220 H1216 0.949 . S
C1220 C1228 1.574 . S
C1220 C1236 1.368 . S
H1221 C1229 0.950 . S
H1222 C1227 0.950 . S
H1223 C1228 0.949 . S
H1224 C1230 0.950 . S
H1225 C1231 0.950 . S
H1226 C1232 0.949 . S
C1227 H1222 0.950 . S
C1227 C1229 1.327 . S
C1227 C1233 1.429 . S
C1228 C1220 1.574 . S
C1228 H1223 0.949 . S
C1228 C1234 1.368 . S
C1229 C1213 1.349 . S
C1229 H1221 0.950 . S
C1229 C1227 1.327 . S
C1230 C1218 1.349 . S
C1230 H1224 0.950 . S
C1230 C1231 1.327 . S
C1231 H1225 0.950 . S
C1231 C1230 1.327 . S
C1231 C1235 1.429 . S
C1232 C1215 1.574 . S
C1232 H1226 0.949 . S
C1232 C1236 1.368 . S
C1233 C1214 1.429 . S
C1233 C1227 1.429 . S
C1233 C1234 1.523 . S
C1234 C1215 1.368 . S
C1234 C1228 1.368 . S
C1234 C1233 1.523 . S
C1235 C1219 1.429 . S
C1235 C1231 1.429 . S
C1235 C1236 1.523 . S
C1236 C1220 1.368 . S
C1236 C1232 1.368 . S
C1236 C1235 1.523 . S
H1237 C1212 0.950 . S
H1238 C1214 0.950 . S
H1239 C1215 0.949 . S
H1240 C1217 0.950 . S
H1241 C1219 0.950 . S
C1242 C1243 1.349 . S
C1242 C1244 1.327 . S
C1242 H1267 0.950 . S
C1243 C1242 1.349 . S
C1243 C1259 1.349 . S
C1244 C1242 1.327 . S
C1244 C1263 1.429 . S
C1244 H1268 0.950 . S
C1245 C1262 1.574 . S
C1245 C1264 1.368 . S
C1245 H1269 0.949 . S
H1246 C1250 0.949 . S
C1247 C1248 1.349 . S
C1247 C1249 1.327 . S
C1247 H1270 0.950 . S
C1248 C1247 1.349 . S
C1248 C1260 1.349 . S
C1249 C1247 1.327 . S
C1249 C1265 1.429 . S
C1249 H1271 0.950 . S
C1250 H1246 0.949 . S
C1250 C1258 1.574 . S
C1250 C1266 1.368 . S
H1251 C1259 0.950 . S
H1252 C1257 0.950 . S
H1253 C1258 0.949 . S
H1254 C1260 0.950 . S
H1255 C1261 0.950 . S
H1256 C1262 0.949 . S
C1257 H1252 0.950 . S
C1257 C1259 1.327 . S
C1257 C1263 1.429 . S
C1258 C1250 1.574 . S
C1258 H1253 0.949 . S
C1258 C1264 1.368 . S
C1259 C1243 1.349 . S
C1259 H1251 0.950 . S
C1259 C1257 1.327 . S
C1260 C1248 1.349 . S
C1260 H1254 0.950 . S
C1260 C1261 1.327 . S
C1261 H1255 0.950 . S
C1261 C1260 1.327 . S
C1261 C1265 1.429 . S
C1262 C1245 1.574 . S
C1262 H1256 0.949 . S
C1262 C1266 1.368 . S
C1263 C1244 1.429 . S
C1263 C1257 1.429 . S
C1263 C1264 1.523 . S
C1264 C1245 1.368 . S
C1264 C1258 1.368 . S
C1264 C1263 1.523 . S
C1265 C1249 1.429 . S
C1265 C1261 1.429 . S
C1265 C1266 1.523 . S
C1266 C1250 1.368 . S
C1266 C1262 1.368 . S
C1266 C1265 1.523 . S
H1267 C1242 0.950 . S
H1268 C1244 0.950 . S
H1269 C1245 0.949 . S
H1270 C1247 0.950 . S
H1271 C1249 0.950 . S
C1272 C1273 1.349 . S
C1272 C1274 1.327 . S
C1272 H1297 0.950 . S
C1273 C1272 1.349 . S
C1273 C1289 1.349 . S
C1274 C1272 1.327 . S
C1274 C1293 1.429 . S
C1274 H1298 0.950 . S
C1275 C1292 1.574 . S
C1275 C1294 1.368 . S
C1275 H1299 0.949 . S
H1276 C1280 0.949 . S
C1277 C1278 1.349 . S
C1277 C1279 1.327 . S
C1277 H1300 0.950 . S
C1278 C1277 1.349 . S
C1278 C1290 1.349 . S
C1279 C1277 1.327 . S
C1279 C1295 1.429 . S
C1279 H1301 0.950 . S
C1280 H1276 0.949 . S
C1280 C1288 1.574 . S
C1280 C1296 1.368 . S
H1281 C1289 0.950 . S
H1282 C1287 0.950 . S
H1283 C1288 0.949 . S
H1284 C1290 0.950 . S
H1285 C1291 0.950 . S
H1286 C1292 0.949 . S
C1287 H1282 0.950 . S
C1287 C1289 1.327 . S
C1287 C1293 1.429 . S
C1288 C1280 1.574 . S
C1288 H1283 0.949 . S
C1288 C1294 1.368 . S
C1289 C1273 1.349 . S
C1289 H1281 0.950 . S
C1289 C1287 1.327 . S
C1290 C1278 1.349 . S
C1290 H1284 0.950 . S
C1290 C1291 1.327 . S
C1291 H1285 0.950 . S
C1291 C1290 1.327 . S
C1291 C1295 1.429 . S
C1292 C1275 1.574 . S
C1292 H1286 0.949 . S
C1292 C1296 1.368 . S
C1293 C1274 1.429 . S
C1293 C1287 1.429 . S
C1293 C1294 1.523 . S
C1294 C1275 1.368 . S
C1294 C1288 1.368 . S
C1294 C1293 1.523 . S
C1295 C1279 1.429 . S
C1295 C1291 1.429 . S
C1295 C1296 1.523 . S
C1296 C1280 1.368 . S
C1296 C1292 1.368 . S
C1296 C1295 1.523 . S
H1297 C1272 0.950 . S
H1298 C1274 0.950 . S
H1299 C1275 0.949 . S
H1300 C1277 0.950 . S
H1301 C1279 0.950 . S
C1302 C1303 1.349 . S
C1302 C1304 1.327 . S
C1302 H1327 0.950 . S
C1303 C1302 1.349 . S
C1303 C1319 1.349 . S
C1304 C1302 1.327 . S
C1304 C1323 1.429 . S
C1304 H1328 0.950 . S
C1305 C1322 1.574 . S
C1305 C1324 1.368 . S
C1305 H1329 0.949 . S
H1306 C1310 0.949 . S
C1307 C1308 1.349 . S
C1307 C1309 1.327 . S
C1307 H1330 0.950 . S
C1308 C1307 1.349 . S
C1308 C1320 1.349 . S
C1309 C1307 1.327 . S
C1309 C1325 1.429 . S
C1309 H1331 0.950 . S
C1310 H1306 0.949 . S
C1310 C1318 1.574 . S
C1310 C1326 1.368 . S
H1311 C1319 0.950 . S
H1312 C1317 0.950 . S
H1313 C1318 0.949 . S
H1314 C1320 0.950 . S
H1315 C1321 0.950 . S
H1316 C1322 0.949 . S
C1317 H1312 0.950 . S
C1317 C1319 1.327 . S
C1317 C1323 1.429 . S
C1318 C1310 1.574 . S
C1318 H1313 0.949 . S
C1318 C1324 1.368 . S
C1319 C1303 1.349 . S
C1319 H1311 0.950 . S
C1319 C1317 1.327 . S
C1320 C1308 1.349 . S
C1320 H1314 0.950 . S
C1320 C1321 1.327 . S
C1321 H1315 0.950 . S
C1321 C1320 1.327 . S
C1321 C1325 1.429 . S
C1322 C1305 1.574 . S
C1322 H1316 0.949 . S
C1322 C1326 1.368 . S
C1323 C1304 1.429 . S
C1323 C1317 1.429 . S
C1323 C1324 1.523 . S
C1324 C1305 1.368 . S
C1324 C1318 1.368 . S
C1324 C1323 1.523 . S
C1325 C1309 1.429 . S
C1325 C1321 1.429 . S
C1325 C1326 1.523 . S
C1326 C1310 1.368 . S
C1326 C1322 1.368 . S
C1326 C1325 1.523 . S
H1327 C1302 0.950 . S
H1328 C1304 0.950 . S
H1329 C1305 0.949 . S
H1330 C1307 0.950 . S
H1331 C1309 0.950 . S
C1332 C1333 1.349 . S
C1332 C1334 1.327 . S
C1332 H1357 0.950 . S
C1333 C1332 1.349 . S
C1333 C1349 1.349 . S
C1334 C1332 1.327 . S
C1334 C1353 1.429 . S
C1334 H1358 0.950 . S
C1335 C1352 1.574 . S
C1335 C1354 1.368 . S
C1335 H1359 0.949 . S
H1336 C1340 0.949 . S
C1337 C1338 1.349 . S
C1337 C1339 1.327 . S
C1337 H1360 0.950 . S
C1338 C1337 1.349 . S
C1338 C1350 1.349 . S
C1339 C1337 1.327 . S
C1339 C1355 1.429 . S
C1339 H1361 0.950 . S
C1340 H1336 0.949 . S
C1340 C1348 1.574 . S
C1340 C1356 1.368 . S
H1341 C1349 0.950 . S
H1342 C1347 0.950 . S
H1343 C1348 0.949 . S
H1344 C1350 0.950 . S
H1345 C1351 0.950 . S
H1346 C1352 0.949 . S
C1347 H1342 0.950 . S
C1347 C1349 1.327 . S
C1347 C1353 1.429 . S
C1348 C1340 1.574 . S
C1348 H1343 0.949 . S
C1348 C1354 1.368 . S
C1349 C1333 1.349 . S
C1349 H1341 0.950 . S
C1349 C1347 1.327 . S
C1350 C1338 1.349 . S
C1350 H1344 0.950 . S
C1350 C1351 1.327 . S
C1351 H1345 0.950 . S
C1351 C1350 1.327 . S
C1351 C1355 1.429 . S
C1352 C1335 1.574 . S
C1352 H1346 0.949 . S
C1352 C1356 1.368 . S
C1353 C1334 1.429 . S
C1353 C1347 1.429 . S
C1353 C1354 1.523 . S
C1354 C1335 1.368 . S
C1354 C1348 1.368 . S
C1354 C1353 1.523 . S
C1355 C1339 1.429 . S
C1355 C1351 1.429 . S
C1355 C1356 1.523 . S
C1356 C1340 1.368 . S
C1356 C1352 1.368 . S
C1356 C1355 1.523 . S
H1357 C1332 0.950 . S
H1358 C1334 0.950 . S
H1359 C1335 0.949 . S
H1360 C1337 0.950 . S
H1361 C1339 0.950 . S
C1362 C1363 1.349 . S
C1362 C1364 1.327 . S
C1362 H1387 0.950 . S
C1363 C1362 1.349 . S
C1363 C1379 1.349 . S
C1364 C1362 1.327 . S
C1364 C1383 1.429 . S
C1364 H1388 0.950 . S
C1365 C1382 1.574 . S
C1365 C1384 1.368 . S
C1365 H1389 0.949 . S
H1366 C1370 0.949 . S
C1367 C1368 1.349 . S
C1367 C1369 1.327 . S
C1367 H1390 0.950 . S
C1368 C1367 1.349 . S
C1368 C1380 1.349 . S
C1369 C1367 1.327 . S
C1369 C1385 1.429 . S
C1369 H1391 0.950 . S
C1370 H1366 0.949 . S
C1370 C1378 1.574 . S
C1370 C1386 1.368 . S
H1371 C1379 0.950 . S
H1372 C1377 0.950 . S
H1373 C1378 0.949 . S
H1374 C1380 0.950 . S
H1375 C1381 0.950 . S
H1376 C1382 0.949 . S
C1377 H1372 0.950 . S
C1377 C1379 1.327 . S
C1377 C1383 1.429 . S
C1378 C1370 1.574 . S
C1378 H1373 0.949 . S
C1378 C1384 1.368 . S
C1379 C1363 1.349 . S
C1379 H1371 0.950 . S
C1379 C1377 1.327 . S
C1380 C1368 1.349 . S
C1380 H1374 0.950 . S
C1380 C1381 1.327 . S
C1381 H1375 0.950 . S
C1381 C1380 1.327 . S
C1381 C1385 1.429 . S
C1382 C1365 1.574 . S
C1382 H1376 0.949 . S
C1382 C1386 1.368 . S
C1383 C1364 1.429 . S
C1383 C1377 1.429 . S
C1383 C1384 1.523 . S
C1384 C1365 1.368 . S
C1384 C1378 1.368 . S
C1384 C1383 1.523 . S
C1385 C1369 1.429 . S
C1385 C1381 1.429 . S
C1385 C1386 1.523 . S
C1386 C1370 1.368 . S
C1386 C1382 1.368 . S
C1386 C1385 1.523 . S
H1387 C1362 0.950 . S
H1388 C1364 0.950 . S
H1389 C1365 0.949 . S
H1390 C1367 0.950 . S
H1391 C1369 0.950 . S
C1392 C1393 1.349 . S
C1392 C1394 1.327 . S
C1392 H1417 0.950 . S
C1393 C1392 1.349 . S
C1393 C1409 1.349 . S
C1394 C1392 1.327 . S
C1394 C1413 1.429 . S
C1394 H1418 0.950 . S
C1395 C1412 1.583 . S
C1395 C1414 1.368 . S
C1395 H1419 0.949 . S
H1396 C1400 0.949 . S
C1397 C1398 1.349 . S
C1397 C1399 1.327 . S
C1397 H1420 0.950 . S
C1398 C1397 1.349 . S
C1398 C1410 1.349 . S
C1399 C1397 1.327 . S
C1399 C1415 1.429 . S
C1399 H1421 0.950 . S
C1400 H1396 0.949 . S
C1400 C1408 1.583 . S
C1400 C1416 1.368 . S
H1401 C1409 0.950 . S
H1402 C1407 0.950 . S
H1403 C1408 0.949 . S
H1404 C1410 0.950 . S
H1405 C1411 0.950 . S
H1406 C1412 0.949 . S
C1407 H1402 0.950 . S
C1407 C1409 1.327 . S
C1407 C1413 1.429 . S
C1408 C1400 1.583 . S
C1408 H1403 0.949 . S
C1408 C1414 1.359 1_455 S
C1409 C1393 1.349 . S
C1409 H1401 0.950 . S
C1409 C1407 1.327 . S
C1410 C1398 1.349 . S
C1410 H1404 0.950 . S
C1410 C1411 1.327 . S
C1411 H1405 0.950 . S
C1411 C1410 1.327 . S
C1411 C1415 1.429 . S
C1412 C1395 1.583 . S
C1412 H1406 0.949 . S
C1412 C1416 1.359 1_655 S
C1413 C1394 1.429 . S
C1413 C1407 1.429 . S
C1413 C1414 1.523 . S
C1414 C1395 1.368 . S
C1414 C1408 1.359 1_655 S
C1414 C1413 1.523 . S
C1415 C1399 1.429 . S
C1415 C1411 1.429 . S
C1415 C1416 1.523 . S
C1416 C1400 1.368 . S
C1416 C1412 1.359 1_455 S
C1416 C1415 1.523 . S
H1417 C1392 0.950 . S
H1418 C1394 0.950 . S
H1419 C1395 0.949 . S
H1420 C1397 0.950 . S
H1421 C1399 0.950 . S
C1422 C1423 1.349 . S
C1422 C1424 1.327 . S
C1422 H1447 0.950 . S
C1423 C1422 1.349 . S
C1423 C1439 1.349 . S
C1424 C1422 1.327 . S
C1424 C1443 1.429 . S
C1424 H1448 0.950 . S
C1425 C1442 1.574 . S
C1425 C1444 1.368 1_545 S
C1425 H1449 0.949 . S
H1426 C1430 0.949 . S
C1427 C1428 1.349 . S
C1427 C1429 1.327 . S
C1427 H1450 0.950 . S
C1428 C1427 1.349 . S
C1428 C1440 1.349 . S
C1429 C1427 1.327 . S
C1429 C1445 1.429 . S
C1429 H1451 0.950 . S
C1430 H1426 0.949 . S
C1430 C1438 1.574 . S
C1430 C1446 1.368 1_565 S
H1431 C1439 0.950 . S
H1432 C1437 0.950 1_545 S
H1433 C1438 0.949 . S
H1434 C1440 0.950 . S
H1435 C1441 0.950 1_565 S
H1436 C1442 0.949 . S
C1437 H1432 0.950 1_565 S
C1437 C1439 1.327 . S
C1437 C1443 1.429 . S
C1438 C1430 1.574 . S
C1438 H1433 0.949 . S
C1438 C1444 1.368 . S
C1439 C1423 1.349 . S
C1439 H1431 0.950 . S
C1439 C1437 1.327 . S
C1440 C1428 1.349 . S
C1440 H1434 0.950 . S
C1440 C1441 1.327 . S
C1441 H1435 0.950 1_545 S
C1441 C1440 1.327 . S
C1441 C1445 1.429 . S
C1442 C1425 1.574 . S
C1442 H1436 0.949 . S
C1442 C1446 1.368 . S
C1443 C1424 1.429 . S
C1443 C1437 1.429 . S
C1443 C1444 1.523 . S
C1444 C1425 1.368 1_565 S
C1444 C1438 1.368 . S
C1444 C1443 1.523 . S
C1445 C1429 1.429 . S
C1445 C1441 1.429 . S
C1445 C1446 1.523 . S
C1446 C1430 1.368 1_545 S
C1446 C1442 1.368 . S
C1446 C1445 1.523 . S
H1447 C1422 0.950 . S
H1448 C1424 0.950 . S
H1449 C1425 0.949 . S
H1450 C1427 0.950 . S
H1451 C1429 0.950 . S
C1452 C1453 1.349 . S
C1452 C1454 1.327 . S
C1452 H1477 0.950 . S
C1453 C1452 1.349 . S
C1453 C1469 1.349 . S
C1454 C1452 1.327 . S
C1454 C1473 1.429 . S
C1454 H1478 0.950 . S
C1455 C1472 1.574 1_655 S
C1455 C1474 1.368 . S
C1455 H1479 0.949 . S
H1456 C1460 0.949 . S
C1457 C1458 1.349 . S
C1457 C1459 1.327 . S
C1457 H1480 0.950 . S
C1458 C1457 1.349 . S
C1458 C1470 1.349 . S
C1459 C1457 1.327 . S
C1459 C1475 1.429 . S
C1459 H1481 0.950 . S
C1460 H1456 0.949 . S
C1460 C1468 1.574 1_455 S
C1460 C1476 1.368 . S
H1461 C1469 0.950 . S
H1462 C1467 0.950 . S
H1463 C1468 0.949 . S
H1464 C1470 0.950 . S
H1465 C1471 0.950 . S
H1466 C1472 0.949 . S
C1467 H1462 0.950 . S
C1467 C1469 1.327 . S
C1467 C1473 1.429 . S
C1468 C1460 1.574 1_655 S
C1468 H1463 0.949 . S
C1468 C1474 1.368 . S
C1469 C1453 1.349 . S
C1469 H1461 0.950 . S
C1469 C1467 1.327 . S
C1470 C1458 1.349 . S
C1470 H1464 0.950 . S
C1470 C1471 1.327 . S
C1471 H1465 0.950 . S
C1471 C1470 1.327 . S
C1471 C1475 1.429 . S
C1472 C1455 1.574 1_455 S
C1472 H1466 0.949 . S
C1472 C1476 1.368 . S
C1473 C1454 1.429 . S
C1473 C1467 1.429 . S
C1473 C1474 1.523 . S
C1474 C1455 1.368 . S
C1474 C1468 1.368 . S
C1474 C1473 1.523 . S
C1475 C1459 1.429 . S
C1475 C1471 1.429 . S
C1475 C1476 1.523 . S
C1476 C1460 1.368 . S
C1476 C1472 1.368 . S
C1476 C1475 1.523 . S
H1477 C1452 0.950 . S
H1478 C1454 0.950 . S
H1479 C1455 0.949 . S
H1480 C1457 0.950 . S
H1481 C1459 0.950 . S
C1482 C1483 1.349 . S
C1482 C1484 1.327 . S
C1482 H1507 0.950 . S
C1483 C1482 1.349 . S
C1483 C1499 1.349 . S
C1484 C1482 1.327 . S
C1484 C1503 1.429 . S
C1484 H1508 0.950 . S
C1485 C1502 1.558 1_545 S
C1485 C1504 1.382 . S
C1485 H1509 0.954 . S
H1486 C1490 0.954 . S
C1487 C1488 1.349 . S
C1487 C1489 1.327 . S
C1487 H1510 0.950 . S
C1488 C1487 1.349 . S
C1488 C1500 1.349 . S
C1489 C1487 1.327 . S
C1489 C1505 1.429 . S
C1489 H1511 0.950 . S
C1490 H1486 0.954 . S
C1490 C1498 1.558 1_565 S
C1490 C1506 1.382 . S
H1491 C1499 0.950 . S
H1492 C1497 0.950 . S
H1493 C1498 0.949 . S
H1494 C1500 0.950 . S
H1495 C1501 0.950 . S
H1496 C1502 0.949 . S
C1497 H1492 0.950 . S
C1497 C1499 1.327 . S
C1497 C1503 1.429 . S
C1498 C1490 1.558 1_545 S
C1498 H1493 0.949 . S
C1498 C1504 1.368 . S
C1499 C1483 1.349 . S
C1499 H1491 0.950 . S
C1499 C1497 1.327 . S
C1500 C1488 1.349 . S
C1500 H1494 0.950 . S
C1500 C1501 1.327 . S
C1501 H1495 0.950 . S
C1501 C1500 1.327 . S
C1501 C1505 1.429 . S
C1502 C1485 1.558 1_565 S
C1502 H1496 0.949 . S
C1502 C1506 1.368 . S
C1503 C1484 1.429 . S
C1503 C1497 1.429 . S
C1503 C1504 1.523 . S
C1504 C1485 1.382 . S
C1504 C1498 1.368 . S
C1504 C1503 1.523 . S
C1505 C1489 1.429 . S
C1505 C1501 1.429 . S
C1505 C1506 1.523 . S
C1506 C1490 1.382 . S
C1506 C1502 1.368 . S
C1506 C1505 1.523 . S
H1507 C1482 0.950 . S
H1508 C1484 0.950 . S
H1509 C1485 0.954 . S
H1510 C1487 0.950 . S
H1511 C1489 0.950 . S
C1512 C1513 1.349 . S
C1512 C1514 1.327 . S
C1512 H1537 0.950 . S
C1513 C1512 1.349 . S
C1513 C1529 1.349 . S
C1514 C1512 1.327 . S
C1514 C1533 1.429 . S
C1514 H1538 0.950 . S
C1515 C1532 1.574 . S
C1515 C1534 1.368 1_655 S
C1515 H1539 0.949 . S
H1516 C1520 0.949 . S
C1517 C1518 1.349 . S
C1517 C1519 1.327 . S
C1517 H1540 0.950 . S
C1518 C1517 1.349 . S
C1518 C1530 1.349 . S
C1519 C1517 1.327 . S
C1519 C1535 1.429 . S
C1519 H1541 0.950 . S
C1520 H1516 0.949 . S
C1520 C1528 1.574 . S
C1520 C1536 1.368 1_455 S
H1521 C1529 0.950 . S
H1522 C1527 0.950 . S
H1523 C1528 0.949 . S
H1524 C1530 0.950 . S
H1525 C1531 0.950 . S
H1526 C1532 0.949 . S
C1527 H1522 0.950 . S
C1527 C1529 1.327 . S
C1527 C1533 1.429 . S
C1528 C1520 1.574 . S
C1528 H1523 0.949 . S
C1528 C1534 1.368 . S
C1529 C1513 1.349 . S
C1529 H1521 0.950 . S
C1529 C1527 1.327 . S
C1530 C1518 1.349 . S
C1530 H1524 0.950 . S
C1530 C1531 1.327 . S
C1531 H1525 0.950 . S
C1531 C1530 1.327 . S
C1531 C1535 1.429 . S
C1532 C1515 1.574 . S
C1532 H1526 0.949 . S
C1532 C1536 1.368 . S
C1533 C1514 1.429 . S
C1533 C1527 1.429 . S
C1533 C1534 1.523 . S
C1534 C1515 1.368 1_455 S
C1534 C1528 1.368 . S
C1534 C1533 1.523 . S
C1535 C1519 1.429 . S
C1535 C1531 1.429 . S
C1535 C1536 1.523 . S
C1536 C1520 1.368 1_655 S
C1536 C1532 1.368 . S
C1536 C1535 1.523 . S
H1537 C1512 0.950 . S
H1538 C1514 0.950 . S
H1539 C1515 0.949 . S
H1540 C1517 0.950 . S
H1541 C1519 0.950 . S
C1542 C1543 1.349 . S
C1542 C1544 1.327 . S
C1542 H1567 0.950 . S
C1543 C1542 1.349 . S
C1543 C1559 1.349 . S
C1544 C1542 1.327 . S
C1544 C1563 1.429 . S
C1544 H1568 0.950 . S
C1545 C1562 1.574 1_565 S
C1545 C1564 1.368 . S
C1545 H1569 0.949 . S
H1546 C1550 0.949 . S
C1547 C1548 1.349 . S
C1547 C1549 1.327 . S
C1547 H1570 0.950 . S
C1548 C1547 1.349 . S
C1548 C1560 1.349 . S
C1549 C1547 1.327 . S
C1549 C1565 1.429 . S
C1549 H1571 0.950 . S
C1550 H1546 0.949 . S
C1550 C1558 1.574 1_545 S
C1550 C1566 1.368 . S
H1551 C1559 0.950 . S
H1552 C1557 0.950 . S
H1553 C1558 0.949 . S
H1554 C1560 0.950 . S
H1555 C1561 0.950 . S
H1556 C1562 0.949 . S
C1557 H1552 0.950 . S
C1557 C1559 1.327 . S
C1557 C1563 1.429 . S
C1558 C1550 1.574 1_565 S
C1558 H1553 0.949 . S
C1558 C1564 1.368 . S
C1559 C1543 1.349 . S
C1559 H1551 0.950 . S
C1559 C1557 1.327 . S
C1560 C1548 1.349 . S
C1560 H1554 0.950 . S
C1560 C1561 1.327 . S
C1561 H1555 0.950 . S
C1561 C1560 1.327 . S
C1561 C1565 1.429 . S
C1562 C1545 1.574 1_545 S
C1562 H1556 0.949 . S
C1562 C1566 1.368 . S
C1563 C1544 1.429 . S
C1563 C1557 1.429 . S
C1563 C1564 1.523 . S
C1564 C1545 1.368 . S
C1564 C1558 1.368 . S
C1564 C1563 1.523 . S
C1565 C1549 1.429 . S
C1565 C1561 1.429 . S
C1565 C1566 1.523 . S
C1566 C1550 1.368 . S
C1566 C1562 1.368 . S
C1566 C1565 1.523 . S
H1567 C1542 0.950 . S
H1568 C1544 0.950 . S
H1569 C1545 0.949 . S
H1570 C1547 0.950 . S
H1571 C1549 0.950 . S
C1572 C1573 1.349 . S
C1572 C1574 1.327 . S
C1572 H1597 0.950 . S
C1573 C1572 1.349 . S
C1573 C1589 1.349 . S
C1574 C1572 1.327 . S
C1574 C1593 1.429 . S
C1574 H1598 0.950 . S
C1575 C1592 1.560 1_455 S
C1575 C1594 1.381 . S
C1575 H1599 0.953 . S
H1576 C1580 0.953 . S
C1577 C1578 1.349 . S
C1577 C1579 1.327 . S
C1577 H1600 0.950 . S
C1578 C1577 1.349 . S
C1578 C1590 1.349 . S
C1579 C1577 1.327 . S
C1579 C1595 1.429 . S
C1579 H1601 0.950 . S
C1580 H1576 0.953 . S
C1580 C1588 1.560 1_655 S
C1580 C1596 1.381 . S
H1581 C1589 0.950 . S
H1582 C1587 0.950 . S
H1583 C1588 0.949 . S
H1584 C1590 0.950 . S
H1585 C1591 0.950 . S
H1586 C1592 0.949 . S
C1587 H1582 0.950 . S
C1587 C1589 1.327 . S
C1587 C1593 1.429 . S
C1588 C1580 1.560 1_455 S
C1588 H1583 0.949 . S
C1588 C1594 1.368 . S
C1589 C1573 1.349 . S
C1589 H1581 0.950 . S
C1589 C1587 1.327 . S
C1590 C1578 1.349 . S
C1590 H1584 0.950 . S
C1590 C1591 1.327 . S
C1591 H1585 0.950 . S
C1591 C1590 1.327 . S
C1591 C1595 1.429 . S
C1592 C1575 1.560 1_655 S
C1592 H1586 0.949 . S
C1592 C1596 1.368 . S
C1593 C1574 1.429 . S
C1593 C1587 1.429 . S
C1593 C1594 1.523 . S
C1594 C1575 1.381 . S
C1594 C1588 1.368 . S
C1594 C1593 1.523 . S
C1595 C1579 1.429 . S
C1595 C1591 1.429 . S
C1595 C1596 1.523 . S
C1596 C1580 1.381 . S
C1596 C1592 1.368 . S
C1596 C1595 1.523 . S
H1597 C1572 0.950 . S
H1598 C1574 0.950 . S
H1599 C1575 0.953 . S
H1600 C1577 0.950 . S
H1601 C1579 0.950 . S
C1602 C1603 1.349 . S
C1602 C1604 1.327 . S
C1602 H1627 0.950 . S
C1603 C1602 1.349 . S
C1603 C1619 1.349 . S
C1604 C1602 1.327 . S
C1604 C1623 1.429 . S
C1604 H1628 0.950 . S
C1605 C1622 1.574 . S
C1605 C1624 1.368 1_565 S
C1605 H1629 0.949 . S
H1606 C1610 0.949 . S
C1607 C1608 1.349 . S
C1607 C1609 1.327 . S
C1607 H1630 0.950 . S
C1608 C1607 1.349 . S
C1608 C1620 1.349 . S
C1609 C1607 1.327 . S
C1609 C1625 1.429 . S
C1609 H1631 0.950 . S
C1610 H1606 0.949 . S
C1610 C1618 1.574 . S
C1610 C1626 1.368 1_545 S
H1611 C1619 0.914 1_565 S
H1612 C1617 0.908 1_565 S
H1613 C1618 0.949 . S
H1614 C1620 0.914 1_545 S
H1615 C1621 0.908 1_545 S
H1616 C1622 0.949 . S
C1617 H1612 0.908 1_545 S
C1617 C1619 1.343 . S
C1617 C1623 1.455 . S
C1618 C1610 1.574 . S
C1618 H1613 0.949 . S
C1618 C1624 1.368 . S
C1619 C1603 1.349 . S
C1619 H1611 0.914 1_545 S
C1619 C1617 1.343 . S
C1620 C1608 1.349 . S
C1620 H1614 0.914 1_565 S
C1620 C1621 1.343 . S
C1621 H1615 0.908 1_565 S
C1621 C1620 1.343 . S
C1621 C1625 1.455 . S
C1622 C1605 1.574 . S
C1622 H1616 0.949 . S
C1622 C1626 1.368 . S
C1623 C1604 1.429 . S
C1623 C1617 1.455 . S
C1623 C1624 1.523 . S
C1624 C1605 1.368 1_545 S
C1624 C1618 1.368 . S
C1624 C1623 1.523 . S
C1625 C1609 1.429 . S
C1625 C1621 1.455 . S
C1625 C1626 1.523 . S
C1626 C1610 1.368 1_565 S
C1626 C1622 1.368 . S
C1626 C1625 1.523 . S
H1627 C1602 0.950 . S
H1628 C1604 0.950 . S
H1629 C1605 0.949 . S
H1630 C1607 0.950 . S
H1631 C1609 0.950 . S
C1632 C1633 1.349 . S
C1632 C1634 1.327 . S
C1632 H1657 0.950 . S
C1633 C1632 1.349 . S
C1633 C1649 1.349 . S
C1634 C1632 1.327 . S
C1634 C1653 1.429 . S
C1634 H1658 0.950 . S
C1635 C1652 1.574 . S
C1635 C1654 1.368 1_554 S
C1635 H1659 0.949 . S
H1636 C1640 0.949 . S
C1637 C1638 1.349 . S
C1637 C1639 1.327 . S
C1637 H1660 0.950 . S
C1638 C1637 1.349 . S
C1638 C1650 1.349 . S
C1639 C1637 1.327 . S
C1639 C1655 1.429 . S
C1639 H1661 0.950 . S
C1640 H1636 0.949 . S
C1640 C1648 1.574 . S
C1640 C1656 1.368 1_556 S
H1641 C1649 0.950 1_554 S
H1642 C1647 0.950 . S
H1643 C1648 0.949 . S
H1644 C1650 0.950 1_556 S
H1645 C1651 0.950 . S
H1646 C1652 0.949 . S
C1647 H1642 0.950 . S
C1647 C1649 1.327 1_554 S
C1647 C1653 1.429 1_554 S
C1648 C1640 1.574 . S
C1648 H1643 0.949 . S
C1648 C1654 1.368 . S
C1649 C1633 1.349 . S
C1649 H1641 0.950 1_556 S
C1649 C1647 1.327 1_556 S
C1650 C1638 1.349 . S
C1650 H1644 0.950 1_554 S
C1650 C1651 1.327 1_554 S
C1651 H1645 0.950 . S
C1651 C1650 1.327 1_556 S
C1651 C1655 1.429 1_556 S
C1652 C1635 1.574 . S
C1652 H1646 0.949 . S
C1652 C1656 1.368 . S
C1653 C1634 1.429 . S
C1653 C1647 1.429 1_556 S
C1653 C1654 1.523 . S
C1654 C1635 1.368 1_556 S
C1654 C1648 1.368 . S
C1654 C1653 1.523 . S
C1655 C1639 1.429 . S
C1655 C1651 1.429 1_554 S
C1655 C1656 1.523 . S
C1656 C1640 1.368 1_554 S
C1656 C1652 1.368 . S
C1656 C1655 1.523 . S
H1657 C1632 0.950 . S
H1658 C1634 0.950 . S
H1659 C1635 0.949 . S
H1660 C1637 0.950 . S
H1661 C1639 0.950 . S
C1662 C1663 1.349 . S
C1662 C1664 1.327 . S
C1662 H1687 0.950 . S
C1663 C1662 1.349 . S
C1663 C1679 1.349 . S
C1664 C1662 1.327 . S
C1664 C1683 1.429 . S
C1664 H1688 0.950 . S
C1665 C1682 1.574 . S
C1665 C1684 1.368 1_556 S
C1665 H1689 0.949 . S
H1666 C1670 0.949 . S
C1667 C1668 1.349 . S
C1667 C1669 1.327 . S
C1667 H1690 0.950 . S
C1668 C1667 1.349 . S
C1668 C1680 1.349 . S
C1669 C1667 1.327 . S
C1669 C1685 1.429 . S
C1669 H1691 0.950 . S
C1670 H1666 0.949 . S
C1670 C1678 1.574 . S
C1670 C1686 1.368 1_554 S
H1671 C1679 0.950 . S
H1672 C1677 0.950 . S
H1673 C1678 0.949 . S
H1674 C1680 0.950 . S
H1675 C1681 0.950 . S
H1676 C1682 0.949 . S
C1677 H1672 0.950 . S
C1677 C1679 1.327 . S
C1677 C1683 1.429 . S
C1678 C1670 1.574 . S
C1678 H1673 0.949 . S
C1678 C1684 1.368 . S
C1679 C1663 1.349 . S
C1679 H1671 0.950 . S
C1679 C1677 1.327 . S
C1680 C1668 1.349 . S
C1680 H1674 0.950 . S
C1680 C1681 1.327 . S
C1681 H1675 0.950 . S
C1681 C1680 1.327 . S
C1681 C1685 1.429 . S
C1682 C1665 1.574 . S
C1682 H1676 0.949 . S
C1682 C1686 1.368 . S
C1683 C1664 1.429 . S
C1683 C1677 1.429 . S
C1683 C1684 1.523 . S
C1684 C1665 1.368 1_554 S
C1684 C1678 1.368 . S
C1684 C1683 1.523 . S
C1685 C1669 1.429 . S
C1685 C1681 1.429 . S
C1685 C1686 1.523 . S
C1686 C1670 1.368 1_556 S
C1686 C1682 1.368 . S
C1686 C1685 1.523 . S
H1687 C1662 0.950 . S
H1688 C1664 0.950 . S
H1689 C1665 0.949 . S
H1690 C1667 0.950 . S
H1691 C1669 0.950 . S
C1692 C1693 1.349 . S
C1692 C1694 1.327 . S
C1692 H1717 0.950 . S
C1693 C1692 1.349 . S
C1693 C1709 1.349 . S
C1694 C1692 1.327 . S
C1694 C1713 1.429 . S
C1694 H1718 0.950 . S
C1695 C1712 1.574 . S
C1695 C1714 1.368 1_556 S
C1695 H1719 0.949 . S
H1696 C1700 0.949 . S
C1697 C1698 1.349 . S
C1697 C1699 1.327 . S
C1697 H1720 0.950 . S
C1698 C1697 1.349 . S
C1698 C1710 1.349 . S
C1699 C1697 1.327 . S
C1699 C1715 1.429 . S
C1699 H1721 0.950 . S
C1700 H1696 0.949 . S
C1700 C1708 1.574 . S
C1700 C1716 1.368 1_554 S
H1701 C1709 0.950 . S
H1702 C1707 0.971 . S
H1703 C1708 0.949 . S
H1704 C1710 0.950 . S
H1705 C1711 0.971 . S
H1706 C1712 0.949 . S
C1707 H1702 0.971 . S
C1707 C1709 1.327 . S
C1707 C1713 1.429 . S
C1708 C1700 1.574 . S
C1708 H1703 0.949 . S
C1708 C1714 1.368 . S
C1709 C1693 1.349 . S
C1709 H1701 0.950 . S
C1709 C1707 1.327 . S
C1710 C1698 1.349 . S
C1710 H1704 0.950 . S
C1710 C1711 1.327 . S
C1711 H1705 0.971 . S
C1711 C1710 1.327 . S
C1711 C1715 1.429 . S
C1712 C1695 1.574 . S
C1712 H1706 0.949 . S
C1712 C1716 1.368 . S
C1713 C1694 1.429 . S
C1713 C1707 1.429 . S
C1713 C1714 1.523 . S
C1714 C1695 1.368 1_554 S
C1714 C1708 1.368 . S
C1714 C1713 1.523 . S
C1715 C1699 1.429 . S
C1715 C1711 1.429 . S
C1715 C1716 1.523 . S
C1716 C1700 1.368 1_556 S
C1716 C1712 1.368 . S
C1716 C1715 1.523 . S
H1717 C1692 0.950 . S
H1718 C1694 0.950 . S
H1719 C1695 0.949 . S
H1720 C1697 0.950 . S
H1721 C1699 0.950 . S
C1722 C1723 1.349 . S
C1722 C1724 1.327 . S
C1722 H1747 0.950 . S
C1723 C1722 1.349 . S
C1723 C1739 1.349 . S
C1724 C1722 1.327 . S
C1724 C1743 1.429 . S
C1724 H1748 0.950 . S
C1725 C1742 1.574 1_556 S
C1725 C1744 1.368 . S
C1725 H1749 0.949 . S
H1726 C1730 0.949 . S
C1727 C1728 1.349 . S
C1727 C1729 1.327 . S
C1727 H1750 0.950 . S
C1728 C1727 1.349 . S
C1728 C1740 1.349 . S
C1729 C1727 1.327 . S
C1729 C1745 1.429 . S
C1729 H1751 0.950 . S
C1730 H1726 0.949 . S
C1730 C1738 1.574 1_554 S
C1730 C1746 1.368 . S
H1731 C1739 0.950 . S
H1732 C1737 0.950 . S
H1733 C1738 0.949 . S
H1734 C1740 0.950 . S
H1735 C1741 0.950 . S
H1736 C1742 0.949 . S
C1737 H1732 0.950 . S
C1737 C1739 1.327 . S
C1737 C1743 1.429 . S
C1738 C1730 1.574 1_556 S
C1738 H1733 0.949 . S
C1738 C1744 1.368 . S
C1739 C1723 1.349 . S
C1739 H1731 0.950 . S
C1739 C1737 1.327 . S
C1740 C1728 1.349 . S
C1740 H1734 0.950 . S
C1740 C1741 1.327 . S
C1741 H1735 0.950 . S
C1741 C1740 1.327 . S
C1741 C1745 1.429 . S
C1742 C1725 1.574 1_554 S
C1742 H1736 0.949 . S
C1742 C1746 1.368 . S
C1743 C1724 1.429 . S
C1743 C1737 1.429 . S
C1743 C1744 1.523 . S
C1744 C1725 1.368 . S
C1744 C1738 1.368 . S
C1744 C1743 1.523 . S
C1745 C1729 1.429 . S
C1745 C1741 1.429 . S
C1745 C1746 1.523 . S
C1746 C1730 1.368 . S
C1746 C1742 1.368 . S
C1746 C1745 1.523 . S
H1747 C1722 0.950 . S
H1748 C1724 0.950 . S
H1749 C1725 0.949 . S
H1750 C1727 0.950 . S
H1751 C1729 0.950 . S
C1752 C1753 1.349 . S
C1752 C1754 1.327 . S
C1752 H1777 0.950 . S
C1753 C1752 1.349 . S
C1753 C1769 1.349 . S
C1754 C1752 1.327 . S
C1754 C1773 1.429 . S
C1754 H1778 0.950 . S
C1755 C1772 1.574 . S
C1755 C1774 1.368 . S
C1755 H1779 0.949 . S
H1756 C1760 0.949 . S
C1757 C1758 1.349 . S
C1757 C1759 1.327 . S
C1757 H1780 0.950 . S
C1758 C1757 1.349 . S
C1758 C1770 1.349 . S
C1759 C1757 1.327 . S
C1759 C1775 1.429 . S
C1759 H1781 0.950 . S
C1760 H1756 0.949 . S
C1760 C1768 1.574 . S
C1760 C1776 1.368 . S
H1761 C1769 0.950 . S
H1762 C1767 0.950 . S
H1763 C1768 0.949 . S
H1764 C1770 0.950 . S
H1765 C1771 0.950 . S
H1766 C1772 0.949 . S
C1767 H1762 0.950 . S
C1767 C1769 1.327 . S
C1767 C1773 1.429 . S
C1768 C1760 1.574 . S
C1768 H1763 0.949 . S
C1768 C1774 1.368 . S
C1769 C1753 1.349 . S
C1769 H1761 0.950 . S
C1769 C1767 1.327 . S
C1770 C1758 1.349 . S
C1770 H1764 0.950 . S
C1770 C1771 1.327 . S
C1771 H1765 0.950 . S
C1771 C1770 1.327 . S
C1771 C1775 1.429 . S
C1772 C1755 1.574 . S
C1772 H1766 0.949 . S
C1772 C1776 1.368 . S
C1773 C1754 1.429 . S
C1773 C1767 1.429 . S
C1773 C1774 1.523 . S
C1774 C1755 1.368 . S
C1774 C1768 1.368 . S
C1774 C1773 1.523 . S
C1775 C1759 1.429 . S
C1775 C1771 1.429 . S
C1775 C1776 1.523 . S
C1776 C1760 1.368 . S
C1776 C1772 1.368 . S
C1776 C1775 1.523 . S
H1777 C1752 0.950 . S
H1778 C1754 0.950 . S
H1779 C1755 0.949 . S
H1780 C1757 0.950 . S
H1781 C1759 0.950 . S
C1782 C1783 1.349 . S
C1782 C1784 1.327 . S
C1782 H1807 0.950 . S
C1783 C1782 1.349 . S
C1783 C1799 1.349 . S
C1784 C1782 1.327 . S
C1784 C1803 1.429 . S
C1784 H1808 0.950 . S
C1785 C1802 1.574 . S
C1785 C1804 1.368 . S
C1785 H1809 0.949 . S
H1786 C1790 0.949 . S
C1787 C1788 1.349 . S
C1787 C1789 1.327 . S
C1787 H1810 0.950 . S
C1788 C1787 1.349 . S
C1788 C1800 1.349 . S
C1789 C1787 1.327 . S
C1789 C1805 1.429 . S
C1789 H1811 0.950 . S
C1790 H1786 0.949 . S
C1790 C1798 1.574 . S
C1790 C1806 1.368 . S
H1791 C1799 0.950 . S
H1792 C1797 0.950 . S
H1793 C1798 0.949 . S
H1794 C1800 0.950 . S
H1795 C1801 0.950 . S
H1796 C1802 0.949 . S
C1797 H1792 0.950 . S
C1797 C1799 1.327 . S
C1797 C1803 1.429 . S
C1798 C1790 1.574 . S
C1798 H1793 0.949 . S
C1798 C1804 1.368 . S
C1799 C1783 1.349 . S
C1799 H1791 0.950 . S
C1799 C1797 1.327 . S
C1800 C1788 1.349 . S
C1800 H1794 0.950 . S
C1800 C1801 1.327 . S
C1801 H1795 0.950 . S
C1801 C1800 1.327 . S
C1801 C1805 1.429 . S
C1802 C1785 1.574 . S
C1802 H1796 0.949 . S
C1802 C1806 1.368 . S
C1803 C1784 1.429 . S
C1803 C1797 1.429 . S
C1803 C1804 1.523 . S
C1804 C1785 1.368 . S
C1804 C1798 1.368 . S
C1804 C1803 1.523 . S
C1805 C1789 1.429 . S
C1805 C1801 1.429 . S
C1805 C1806 1.523 . S
C1806 C1790 1.368 . S
C1806 C1802 1.368 . S
C1806 C1805 1.523 . S
H1807 C1782 0.950 . S
H1808 C1784 0.950 . S
H1809 C1785 0.949 . S
H1810 C1787 0.950 . S
H1811 C1789 0.950 . S
C1812 C1813 1.349 . S
C1812 C1814 1.327 . S
C1812 H1837 0.950 . S
C1813 C1812 1.349 . S
C1813 C1829 1.349 . S
C1814 C1812 1.327 . S
C1814 C1833 1.429 . S
C1814 H1838 0.950 . S
C1815 C1832 1.574 . S
C1815 C1834 1.368 . S
C1815 H1839 0.949 . S
H1816 C1820 0.949 . S
C1817 C1818 1.349 . S
C1817 C1819 1.327 . S
C1817 H1840 0.950 . S
C1818 C1817 1.349 . S
C1818 C1830 1.349 . S
C1819 C1817 1.327 . S
C1819 C1835 1.429 . S
C1819 H1841 0.950 . S
C1820 H1816 0.949 . S
C1820 C1828 1.574 . S
C1820 C1836 1.368 . S
H1821 C1829 0.950 . S
H1822 C1827 0.950 . S
H1823 C1828 0.949 . S
H1824 C1830 0.950 . S
H1825 C1831 0.950 . S
H1826 C1832 0.949 . S
C1827 H1822 0.950 . S
C1827 C1829 1.327 . S
C1827 C1833 1.429 . S
C1828 C1820 1.574 . S
C1828 H1823 0.949 . S
C1828 C1834 1.368 . S
C1829 C1813 1.349 . S
C1829 H1821 0.950 . S
C1829 C1827 1.327 . S
C1830 C1818 1.349 . S
C1830 H1824 0.950 . S
C1830 C1831 1.327 . S
C1831 H1825 0.950 . S
C1831 C1830 1.327 . S
C1831 C1835 1.429 . S
C1832 C1815 1.574 . S
C1832 H1826 0.949 . S
C1832 C1836 1.368 . S
C1833 C1814 1.429 . S
C1833 C1827 1.429 . S
C1833 C1834 1.523 . S
C1834 C1815 1.368 . S
C1834 C1828 1.368 . S
C1834 C1833 1.523 . S
C1835 C1819 1.429 . S
C1835 C1831 1.429 . S
C1835 C1836 1.523 . S
C1836 C1820 1.368 . S
C1836 C1832 1.368 . S
C1836 C1835 1.523 . S
H1837 C1812 0.950 . S
H1838 C1814 0.950 . S
H1839 C1815 0.949 . S
H1840 C1817 0.950 . S
H1841 C1819 0.950 . S
C1842 C1843 1.349 . S
C1842 C1844 1.327 . S
C1842 H1867 0.950 . S
C1843 C1842 1.349 . S
C1843 C1859 1.349 . S
C1844 C1842 1.327 . S
C1844 C1863 1.429 . S
C1844 H1868 0.950 . S
C1845 C1862 1.574 . S
C1845 C1864 1.368 . S
C1845 H1869 0.949 . S
H1846 C1850 0.949 . S
C1847 C1848 1.349 . S
C1847 C1849 1.327 . S
C1847 H1870 0.950 . S
C1848 C1847 1.349 . S
C1848 C1860 1.349 . S
C1849 C1847 1.327 . S
C1849 C1865 1.429 . S
C1849 H1871 0.950 . S
C1850 H1846 0.949 . S
C1850 C1858 1.574 . S
C1850 C1866 1.368 . S
H1851 C1859 0.950 . S
H1852 C1857 0.950 . S
H1853 C1858 0.949 . S
H1854 C1860 0.950 . S
H1855 C1861 0.950 . S
H1856 C1862 0.949 . S
C1857 H1852 0.950 . S
C1857 C1859 1.327 . S
C1857 C1863 1.429 . S
C1858 C1850 1.574 . S
C1858 H1853 0.949 . S
C1858 C1864 1.368 . S
C1859 C1843 1.349 . S
C1859 H1851 0.950 . S
C1859 C1857 1.327 . S
C1860 C1848 1.349 . S
C1860 H1854 0.950 . S
C1860 C1861 1.327 . S
C1861 H1855 0.950 . S
C1861 C1860 1.327 . S
C1861 C1865 1.429 . S
C1862 C1845 1.574 . S
C1862 H1856 0.949 . S
C1862 C1866 1.368 . S
C1863 C1844 1.429 . S
C1863 C1857 1.429 . S
C1863 C1864 1.523 . S
C1864 C1845 1.368 . S
C1864 C1858 1.368 . S
C1864 C1863 1.523 . S
C1865 C1849 1.429 . S
C1865 C1861 1.429 . S
C1865 C1866 1.523 . S
C1866 C1850 1.368 . S
C1866 C1862 1.368 . S
C1866 C1865 1.523 . S
H1867 C1842 0.950 . S
H1868 C1844 0.950 . S
H1869 C1845 0.949 . S
H1870 C1847 0.950 . S
H1871 C1849 0.950 . S
C1872 C1873 1.349 . S
C1872 C1874 1.327 . S
C1872 H1897 0.950 . S
C1873 C1872 1.349 . S
C1873 C1889 1.349 . S
C1874 C1872 1.327 . S
C1874 C1893 1.429 . S
C1874 H1898 0.950 . S
C1875 C1892 1.574 . S
C1875 C1894 1.368 . S
C1875 H1899 0.949 . S
H1876 C1880 0.949 . S
C1877 C1878 1.349 . S
C1877 C1879 1.327 . S
C1877 H1900 0.950 . S
C1878 C1877 1.349 . S
C1878 C1890 1.349 . S
C1879 C1877 1.327 . S
C1879 C1895 1.429 . S
C1879 H1901 0.950 . S
C1880 H1876 0.949 . S
C1880 C1888 1.574 . S
C1880 C1896 1.368 . S
H1881 C1889 0.950 . S
H1882 C1887 0.950 . S
H1883 C1888 0.949 . S
H1884 C1890 0.950 . S
H1885 C1891 0.950 . S
H1886 C1892 0.949 . S
C1887 H1882 0.950 . S
C1887 C1889 1.327 . S
C1887 C1893 1.429 . S
C1888 C1880 1.574 . S
C1888 H1883 0.949 . S
C1888 C1894 1.368 . S
C1889 C1873 1.349 . S
C1889 H1881 0.950 . S
C1889 C1887 1.327 . S
C1890 C1878 1.349 . S
C1890 H1884 0.950 . S
C1890 C1891 1.327 . S
C1891 H1885 0.950 . S
C1891 C1890 1.327 . S
C1891 C1895 1.429 . S
C1892 C1875 1.574 . S
C1892 H1886 0.949 . S
C1892 C1896 1.368 . S
C1893 C1874 1.429 . S
C1893 C1887 1.429 . S
C1893 C1894 1.523 . S
C1894 C1875 1.368 . S
C1894 C1888 1.368 . S
C1894 C1893 1.523 . S
C1895 C1879 1.429 . S
C1895 C1891 1.429 . S
C1895 C1896 1.523 . S
C1896 C1880 1.368 . S
C1896 C1892 1.368 . S
C1896 C1895 1.523 . S
H1897 C1872 0.950 . S
H1898 C1874 0.950 . S
H1899 C1875 0.949 . S
H1900 C1877 0.950 . S
H1901 C1879 0.950 . S
C1902 C1903 1.349 . S
C1902 C1904 1.327 . S
C1902 H1927 0.950 . S
C1903 C1902 1.349 . S
C1903 C1919 1.349 . S
C1904 C1902 1.327 . S
C1904 C1923 1.429 . S
C1904 H1928 0.950 . S
C1905 C1922 1.574 . S
C1905 C1924 1.368 . S
C1905 H1929 0.949 . S
H1906 C1910 0.949 . S
C1907 C1908 1.349 . S
C1907 C1909 1.327 . S
C1907 H1930 0.950 . S
C1908 C1907 1.349 . S
C1908 C1920 1.349 . S
C1909 C1907 1.327 . S
C1909 C1925 1.429 . S
C1909 H1931 0.950 . S
C1910 H1906 0.949 . S
C1910 C1918 1.574 . S
C1910 C1926 1.368 . S
H1911 C1919 0.950 . S
H1912 C1917 0.950 . S
H1913 C1918 0.949 . S
H1914 C1920 0.950 . S
H1915 C1921 0.950 . S
H1916 C1922 0.949 . S
C1917 H1912 0.950 . S
C1917 C1919 1.327 . S
C1917 C1923 1.429 . S
C1918 C1910 1.574 . S
C1918 H1913 0.949 . S
C1918 C1924 1.368 . S
C1919 C1903 1.349 . S
C1919 H1911 0.950 . S
C1919 C1917 1.327 . S
C1920 C1908 1.349 . S
C1920 H1914 0.950 . S
C1920 C1921 1.327 . S
C1921 H1915 0.950 . S
C1921 C1920 1.327 . S
C1921 C1925 1.429 . S
C1922 C1905 1.574 . S
C1922 H1916 0.949 . S
C1922 C1926 1.368 . S
C1923 C1904 1.429 . S
C1923 C1917 1.429 . S
C1923 C1924 1.523 . S
C1924 C1905 1.368 . S
C1924 C1918 1.368 . S
C1924 C1923 1.523 . S
C1925 C1909 1.429 . S
C1925 C1921 1.429 . S
C1925 C1926 1.523 . S
C1926 C1910 1.368 . S
C1926 C1922 1.368 . S
C1926 C1925 1.523 . S
H1927 C1902 0.950 . S
H1928 C1904 0.950 . S
H1929 C1905 0.949 . S
H1930 C1907 0.950 . S
H1931 C1909 0.950 . S
C1932 C1933 1.349 . S
C1932 C1934 1.327 . S
C1932 H1957 0.950 . S
C1933 C1932 1.349 . S
C1933 C1949 1.349 . S
C1934 C1932 1.327 . S
C1934 C1953 1.429 . S
C1934 H1958 0.950 . S
C1935 C1952 1.574 . S
C1935 C1954 1.368 . S
C1935 H1959 0.949 . S
H1936 C1940 0.949 . S
C1937 C1938 1.349 . S
C1937 C1939 1.327 . S
C1937 H1960 0.950 . S
C1938 C1937 1.349 . S
C1938 C1950 1.349 . S
C1939 C1937 1.327 . S
C1939 C1955 1.429 . S
C1939 H1961 0.950 . S
C1940 H1936 0.949 . S
C1940 C1948 1.574 . S
C1940 C1956 1.368 . S
H1941 C1949 0.950 . S
H1942 C1947 0.950 . S
H1943 C1948 0.949 . S
H1944 C1950 0.950 . S
H1945 C1951 0.950 . S
H1946 C1952 0.949 . S
C1947 H1942 0.950 . S
C1947 C1949 1.327 . S
C1947 C1953 1.429 . S
C1948 C1940 1.574 . S
C1948 H1943 0.949 . S
C1948 C1954 1.368 . S
C1949 C1933 1.349 . S
C1949 H1941 0.950 . S
C1949 C1947 1.327 . S
C1950 C1938 1.349 . S
C1950 H1944 0.950 . S
C1950 C1951 1.327 . S
C1951 H1945 0.950 . S
C1951 C1950 1.327 . S
C1951 C1955 1.429 . S
C1952 C1935 1.574 . S
C1952 H1946 0.949 . S
C1952 C1956 1.368 . S
C1953 C1934 1.429 . S
C1953 C1947 1.429 . S
C1953 C1954 1.523 . S
C1954 C1935 1.368 . S
C1954 C1948 1.368 . S
C1954 C1953 1.523 . S
C1955 C1939 1.429 . S
C1955 C1951 1.429 . S
C1955 C1956 1.523 . S
C1956 C1940 1.368 . S
C1956 C1952 1.368 . S
C1956 C1955 1.523 . S
H1957 C1932 0.950 . S
H1958 C1934 0.950 . S
H1959 C1935 0.949 . S
H1960 C1937 0.950 . S
H1961 C1939 0.950 . S
C1962 C1963 1.349 . S
C1962 C1964 1.327 . S
C1962 H1987 0.950 . S
C1963 C1962 1.349 . S
C1963 C1979 1.349 . S
C1964 C1962 1.327 . S
C1964 C1983 1.429 . S
C1964 H1988 0.950 . S
C1965 C1982 1.574 . S
C1965 C1984 1.368 . S
C1965 H1989 0.949 . S
H1966 C1970 0.949 . S
C1967 C1968 1.349 . S
C1967 C1969 1.327 . S
C1967 H1990 0.950 . S
C1968 C1967 1.349 . S
C1968 C1980 1.349 . S
C1969 C1967 1.327 . S
C1969 C1985 1.429 . S
C1969 H1991 0.950 . S
C1970 H1966 0.949 . S
C1970 C1978 1.574 . S
C1970 C1986 1.368 . S
H1971 C1979 0.950 . S
H1972 C1977 0.950 . S
H1973 C1978 0.949 . S
H1974 C1980 0.950 . S
H1975 C1981 0.950 . S
H1976 C1982 0.949 . S
C1977 H1972 0.950 . S
C1977 C1979 1.327 . S
C1977 C1983 1.429 . S
C1978 C1970 1.574 . S
C1978 H1973 0.949 . S
C1978 C1984 1.368 . S
C1979 C1963 1.349 . S
C1979 H1971 0.950 . S
C1979 C1977 1.327 . S
C1980 C1968 1.349 . S
C1980 H1974 0.950 . S
C1980 C1981 1.327 . S
C1981 H1975 0.950 . S
C1981 C1980 1.327 . S
C1981 C1985 1.429 . S
C1982 C1965 1.574 . S
C1982 H1976 0.949 . S
C1982 C1986 1.368 . S
C1983 C1964 1.429 . S
C1983 C1977 1.429 . S
C1983 C1984 1.523 . S
C1984 C1965 1.368 . S
C1984 C1978 1.368 . S
C1984 C1983 1.523 . S
C1985 C1969 1.429 . S
C1985 C1981 1.429 . S
C1985 C1986 1.523 . S
C1986 C1970 1.368 . S
C1986 C1982 1.368 . S
C1986 C1985 1.523 . S
H1987 C1962 0.950 . S
H1988 C1964 0.950 . S
H1989 C1965 0.949 . S
H1990 C1967 0.950 . S
H1991 C1969 0.950 . S
C1992 C1993 1.349 . S
C1992 C1994 1.327 . S
C1992 H2017 0.950 . S
C1993 C1992 1.349 . S
C1993 C2009 1.349 . S
C1994 C1992 1.327 . S
C1994 C2013 1.429 . S
C1994 H2018 0.950 . S
C1995 C2012 1.574 . S
C1995 C2014 1.368 . S
C1995 H2019 0.949 . S
H1996 C2000 0.949 . S
C1997 C1998 1.349 . S
C1997 C1999 1.327 . S
C1997 H2020 0.950 . S
C1998 C1997 1.349 . S
C1998 C2010 1.349 . S
C1999 C1997 1.327 . S
C1999 C2015 1.429 . S
C1999 H2021 0.950 . S
C2000 H1996 0.949 . S
C2000 C2008 1.574 . S
C2000 C2016 1.368 . S
H2001 C2009 0.950 . S
H2002 C2007 0.950 . S
H2003 C2008 0.949 . S
H2004 C2010 0.950 . S
H2005 C2011 0.950 . S
H2006 C2012 0.949 . S
C2007 H2002 0.950 . S
C2007 C2009 1.327 . S
C2007 C2013 1.429 . S
C2008 C2000 1.574 . S
C2008 H2003 0.949 . S
C2008 C2014 1.368 . S
C2009 C1993 1.349 . S
C2009 H2001 0.950 . S
C2009 C2007 1.327 . S
C2010 C1998 1.349 . S
C2010 H2004 0.950 . S
C2010 C2011 1.327 . S
C2011 H2005 0.950 . S
C2011 C2010 1.327 . S
C2011 C2015 1.429 . S
C2012 C1995 1.574 . S
C2012 H2006 0.949 . S
C2012 C2016 1.368 . S
C2013 C1994 1.429 . S
C2013 C2007 1.429 . S
C2013 C2014 1.523 . S
C2014 C1995 1.368 . S
C2014 C2008 1.368 . S
C2014 C2013 1.523 . S
C2015 C1999 1.429 . S
C2015 C2011 1.429 . S
C2015 C2016 1.523 . S
C2016 C2000 1.368 . S
C2016 C2012 1.368 . S
C2016 C2015 1.523 . S
H2017 C1992 0.950 . S
H2018 C1994 0.950 . S
H2019 C1995 0.949 . S
H2020 C1997 0.950 . S
H2021 C1999 0.950 . S
C2022 C2023 1.349 . S
C2022 C2024 1.327 . S
C2022 H2047 0.950 . S
C2023 C2022 1.349 . S
C2023 C2039 1.349 . S
C2024 C2022 1.327 . S
C2024 C2043 1.429 . S
C2024 H2048 0.950 . S
C2025 C2042 1.574 . S
C2025 C2044 1.368 . S
C2025 H2049 0.949 . S
H2026 C2030 0.949 . S
C2027 C2028 1.349 . S
C2027 C2029 1.327 . S
C2027 H2050 0.950 . S
C2028 C2027 1.349 . S
C2028 C2040 1.349 . S
C2029 C2027 1.327 . S
C2029 C2045 1.429 . S
C2029 H2051 0.950 . S
C2030 H2026 0.949 . S
C2030 C2038 1.574 . S
C2030 C2046 1.368 . S
H2031 C2039 0.950 . S
H2032 C2037 0.950 . S
H2033 C2038 0.949 . S
H2034 C2040 0.950 . S
H2035 C2041 0.950 . S
H2036 C2042 0.949 . S
C2037 H2032 0.950 . S
C2037 C2039 1.327 . S
C2037 C2043 1.429 . S
C2038 C2030 1.574 . S
C2038 H2033 0.949 . S
C2038 C2044 1.368 . S
C2039 C2023 1.349 . S
C2039 H2031 0.950 . S
C2039 C2037 1.327 . S
C2040 C2028 1.349 . S
C2040 H2034 0.950 . S
C2040 C2041 1.327 . S
C2041 H2035 0.950 . S
C2041 C2040 1.327 . S
C2041 C2045 1.429 . S
C2042 C2025 1.574 . S
C2042 H2036 0.949 . S
C2042 C2046 1.368 . S
C2043 C2024 1.429 . S
C2043 C2037 1.429 . S
C2043 C2044 1.523 . S
C2044 C2025 1.368 . S
C2044 C2038 1.368 . S
C2044 C2043 1.523 . S
C2045 C2029 1.429 . S
C2045 C2041 1.429 . S
C2045 C2046 1.523 . S
C2046 C2030 1.368 . S
C2046 C2042 1.368 . S
C2046 C2045 1.523 . S
H2047 C2022 0.950 . S
H2048 C2024 0.950 . S
H2049 C2025 0.949 . S
H2050 C2027 0.950 . S
H2051 C2029 0.950 . S
C2052 C2053 1.349 . S
C2052 C2054 1.327 . S
C2052 H2077 0.950 . S
C2053 C2052 1.349 . S
C2053 C2069 1.349 . S
C2054 C2052 1.327 . S
C2054 C2073 1.429 . S
C2054 H2078 0.950 . S
C2055 C2072 1.574 . S
C2055 C2074 1.368 . S
C2055 H2079 0.949 . S
H2056 C2060 0.949 . S
C2057 C2058 1.349 . S
C2057 C2059 1.327 . S
C2057 H2080 0.950 . S
C2058 C2057 1.349 . S
C2058 C2070 1.349 . S
C2059 C2057 1.327 . S
C2059 C2075 1.429 . S
C2059 H2081 0.950 . S
C2060 H2056 0.949 . S
C2060 C2068 1.574 . S
C2060 C2076 1.368 . S
H2061 C2069 0.950 . S
H2062 C2067 0.950 . S
H2063 C2068 0.949 . S
H2064 C2070 0.950 . S
H2065 C2071 0.950 . S
H2066 C2072 0.949 . S
C2067 H2062 0.950 . S
C2067 C2069 1.327 . S
C2067 C2073 1.429 . S
C2068 C2060 1.574 . S
C2068 H2063 0.949 . S
C2068 C2074 1.368 . S
C2069 C2053 1.349 . S
C2069 H2061 0.950 . S
C2069 C2067 1.327 . S
C2070 C2058 1.349 . S
C2070 H2064 0.950 . S
C2070 C2071 1.327 . S
C2071 H2065 0.950 . S
C2071 C2070 1.327 . S
C2071 C2075 1.429 . S
C2072 C2055 1.574 . S
C2072 H2066 0.949 . S
C2072 C2076 1.368 . S
C2073 C2054 1.429 . S
C2073 C2067 1.429 . S
C2073 C2074 1.523 . S
C2074 C2055 1.368 . S
C2074 C2068 1.368 . S
C2074 C2073 1.523 . S
C2075 C2059 1.429 . S
C2075 C2071 1.429 . S
C2075 C2076 1.523 . S
C2076 C2060 1.368 . S
C2076 C2072 1.368 . S
C2076 C2075 1.523 . S
H2077 C2052 0.950 . S
H2078 C2054 0.950 . S
H2079 C2055 0.949 . S
H2080 C2057 0.950 . S
H2081 C2059 0.950 . S
C2082 C2083 1.349 . S
C2082 C2084 1.327 . S
C2082 H2107 0.950 . S
C2083 C2082 1.349 . S
C2083 C2099 1.349 . S
C2084 C2082 1.327 . S
C2084 C2103 1.429 . S
C2084 H2108 0.950 . S
C2085 C2102 1.574 . S
C2085 C2104 1.368 . S
C2085 H2109 0.949 . S
H2086 C2090 0.949 . S
C2087 C2088 1.349 . S
C2087 C2089 1.327 . S
C2087 H2110 0.950 . S
C2088 C2087 1.349 . S
C2088 C2100 1.349 . S
C2089 C2087 1.327 . S
C2089 C2105 1.429 . S
C2089 H2111 0.950 . S
C2090 H2086 0.949 . S
C2090 C2098 1.574 . S
C2090 C2106 1.368 . S
H2091 C2099 0.950 . S
H2092 C2097 0.950 . S
H2093 C2098 0.949 . S
H2094 C2100 0.950 . S
H2095 C2101 0.950 . S
H2096 C2102 0.949 . S
C2097 H2092 0.950 . S
C2097 C2099 1.327 . S
C2097 C2103 1.429 . S
C2098 C2090 1.574 . S
C2098 H2093 0.949 . S
C2098 C2104 1.368 . S
C2099 C2083 1.349 . S
C2099 H2091 0.950 . S
C2099 C2097 1.327 . S
C2100 C2088 1.349 . S
C2100 H2094 0.950 . S
C2100 C2101 1.327 . S
C2101 H2095 0.950 . S
C2101 C2100 1.327 . S
C2101 C2105 1.429 . S
C2102 C2085 1.574 . S
C2102 H2096 0.949 . S
C2102 C2106 1.368 . S
C2103 C2084 1.429 . S
C2103 C2097 1.429 . S
C2103 C2104 1.523 . S
C2104 C2085 1.368 . S
C2104 C2098 1.368 . S
C2104 C2103 1.523 . S
C2105 C2089 1.429 . S
C2105 C2101 1.429 . S
C2105 C2106 1.523 . S
C2106 C2090 1.368 . S
C2106 C2102 1.368 . S
C2106 C2105 1.523 . S
H2107 C2082 0.950 . S
H2108 C2084 0.950 . S
H2109 C2085 0.949 . S
H2110 C2087 0.950 . S
H2111 C2089 0.950 . S
C2112 C2113 1.349 . S
C2112 C2114 1.327 . S
C2112 H2137 0.950 . S
C2113 C2112 1.349 . S
C2113 C2129 1.349 . S
C2114 C2112 1.327 . S
C2114 C2133 1.429 . S
C2114 H2138 0.950 . S
C2115 C2132 1.574 . S
C2115 C2134 1.368 . S
C2115 H2139 0.949 . S
H2116 C2120 0.949 . S
C2117 C2118 1.349 . S
C2117 C2119 1.327 . S
C2117 H2140 0.950 . S
C2118 C2117 1.349 . S
C2118 C2130 1.349 . S
C2119 C2117 1.327 . S
C2119 C2135 1.429 . S
C2119 H2141 0.950 . S
C2120 H2116 0.949 . S
C2120 C2128 1.574 . S
C2120 C2136 1.368 . S
H2121 C2129 0.950 . S
H2122 C2127 0.950 . S
H2123 C2128 0.949 . S
H2124 C2130 0.950 . S
H2125 C2131 0.950 . S
H2126 C2132 0.949 . S
C2127 H2122 0.950 . S
C2127 C2129 1.327 . S
C2127 C2133 1.429 . S
C2128 C2120 1.574 . S
C2128 H2123 0.949 . S
C2128 C2134 1.368 . S
C2129 C2113 1.349 . S
C2129 H2121 0.950 . S
C2129 C2127 1.327 . S
C2130 C2118 1.349 . S
C2130 H2124 0.950 . S
C2130 C2131 1.327 . S
C2131 H2125 0.950 . S
C2131 C2130 1.327 . S
C2131 C2135 1.429 . S
C2132 C2115 1.574 . S
C2132 H2126 0.949 . S
C2132 C2136 1.368 . S
C2133 C2114 1.429 . S
C2133 C2127 1.429 . S
C2133 C2134 1.523 . S
C2134 C2115 1.368 . S
C2134 C2128 1.368 . S
C2134 C2133 1.523 . S
C2135 C2119 1.429 . S
C2135 C2131 1.429 . S
C2135 C2136 1.523 . S
C2136 C2120 1.368 . S
C2136 C2132 1.368 . S
C2136 C2135 1.523 . S
H2137 C2112 0.950 . S
H2138 C2114 0.950 . S
H2139 C2115 0.949 . S
H2140 C2117 0.950 . S
H2141 C2119 0.950 . S
C2142 C2143 1.349 . S
C2142 C2144 1.327 . S
C2142 H2167 0.950 . S
C2143 C2142 1.349 . S
C2143 C2159 1.349 . S
C2144 C2142 1.327 . S
C2144 C2163 1.429 . S
C2144 H2168 0.950 . S
C2145 C2162 1.574 . S
C2145 C2164 1.368 . S
C2145 H2169 0.949 . S
H2146 C2150 0.949 . S
C2147 C2148 1.349 . S
C2147 C2149 1.327 . S
C2147 H2170 0.950 . S
C2148 C2147 1.349 . S
C2148 C2160 1.349 . S
C2149 C2147 1.327 . S
C2149 C2165 1.429 . S
C2149 H2171 0.950 . S
C2150 H2146 0.949 . S
C2150 C2158 1.574 . S
C2150 C2166 1.368 . S
H2151 C2159 0.950 . S
H2152 C2157 0.950 . S
H2153 C2158 0.949 . S
H2154 C2160 0.950 . S
H2155 C2161 0.950 . S
H2156 C2162 0.949 . S
C2157 H2152 0.950 . S
C2157 C2159 1.327 . S
C2157 C2163 1.429 . S
C2158 C2150 1.574 . S
C2158 H2153 0.949 . S
C2158 C2164 1.368 . S
C2159 C2143 1.349 . S
C2159 H2151 0.950 . S
C2159 C2157 1.327 . S
C2160 C2148 1.349 . S
C2160 H2154 0.950 . S
C2160 C2161 1.327 . S
C2161 H2155 0.950 . S
C2161 C2160 1.327 . S
C2161 C2165 1.429 . S
C2162 C2145 1.574 . S
C2162 H2156 0.949 . S
C2162 C2166 1.368 . S
C2163 C2144 1.429 . S
C2163 C2157 1.429 . S
C2163 C2164 1.523 . S
C2164 C2145 1.368 . S
C2164 C2158 1.368 . S
C2164 C2163 1.523 . S
C2165 C2149 1.429 . S
C2165 C2161 1.429 . S
C2165 C2166 1.523 . S
C2166 C2150 1.368 . S
C2166 C2162 1.368 . S
C2166 C2165 1.523 . S
H2167 C2142 0.950 . S
H2168 C2144 0.950 . S
H2169 C2145 0.949 . S
H2170 C2147 0.950 . S
H2171 C2149 0.950 . S
C2172 C2173 1.349 . S
C2172 C2174 1.327 . S
C2172 H2197 0.950 . S
C2173 C2172 1.349 . S
C2173 C2189 1.349 . S
C2174 C2172 1.327 . S
C2174 C2193 1.429 . S
C2174 H2198 0.950 . S
C2175 C2192 1.574 . S
C2175 C2194 1.368 . S
C2175 H2199 0.949 . S
H2176 C2180 0.949 . S
C2177 C2178 1.349 . S
C2177 C2179 1.327 . S
C2177 H2200 0.950 . S
C2178 C2177 1.349 . S
C2178 C2190 1.349 . S
C2179 C2177 1.327 . S
C2179 C2195 1.429 . S
C2179 H2201 0.950 . S
C2180 H2176 0.949 . S
C2180 C2188 1.574 . S
C2180 C2196 1.368 . S
H2181 C2189 0.950 . S
H2182 C2187 0.950 . S
H2183 C2188 0.949 . S
H2184 C2190 0.950 . S
H2185 C2191 0.950 . S
H2186 C2192 0.949 . S
C2187 H2182 0.950 . S
C2187 C2189 1.327 . S
C2187 C2193 1.429 . S
C2188 C2180 1.574 . S
C2188 H2183 0.949 . S
C2188 C2194 1.368 . S
C2189 C2173 1.349 . S
C2189 H2181 0.950 . S
C2189 C2187 1.327 . S
C2190 C2178 1.349 . S
C2190 H2184 0.950 . S
C2190 C2191 1.327 . S
C2191 H2185 0.950 . S
C2191 C2190 1.327 . S
C2191 C2195 1.429 . S
C2192 C2175 1.574 . S
C2192 H2186 0.949 . S
C2192 C2196 1.368 . S
C2193 C2174 1.429 . S
C2193 C2187 1.429 . S
C2193 C2194 1.523 . S
C2194 C2175 1.368 . S
C2194 C2188 1.368 . S
C2194 C2193 1.523 . S
C2195 C2179 1.429 . S
C2195 C2191 1.429 . S
C2195 C2196 1.523 . S
C2196 C2180 1.368 . S
C2196 C2192 1.368 . S
C2196 C2195 1.523 . S
H2197 C2172 0.950 . S
H2198 C2174 0.950 . S
H2199 C2175 0.949 . S
H2200 C2177 0.950 . S
H2201 C2179 0.950 . S
C2202 C2203 1.349 . S
C2202 C2204 1.327 . S
C2202 H2227 0.950 . S
C2203 C2202 1.349 . S
C2203 C2219 1.349 . S
C2204 C2202 1.327 . S
C2204 C2223 1.429 . S
C2204 H2228 0.950 . S
C2205 C2222 1.574 . S
C2205 C2224 1.368 . S
C2205 H2229 0.949 . S
H2206 C2210 0.949 . S
C2207 C2208 1.349 . S
C2207 C2209 1.327 . S
C2207 H2230 0.950 . S
C2208 C2207 1.349 . S
C2208 C2220 1.349 . S
C2209 C2207 1.327 . S
C2209 C2225 1.429 . S
C2209 H2231 0.950 . S
C2210 H2206 0.949 . S
C2210 C2218 1.574 . S
C2210 C2226 1.368 . S
H2211 C2219 0.930 1_556 S
H2212 C2217 0.950 . S
H2213 C2218 0.949 . S
H2214 C2220 0.950 . S
H2215 C2221 0.950 . S
H2216 C2222 0.949 . S
C2217 H2212 0.950 . S
C2217 C2219 1.327 . S
C2217 C2223 1.429 . S
C2218 C2210 1.574 . S
C2218 H2213 0.949 . S
C2218 C2224 1.368 . S
C2219 C2203 1.349 . S
C2219 H2211 0.930 1_554 S
C2219 C2217 1.327 . S
C2220 C2208 1.349 . S
C2220 H2214 0.950 . S
C2220 C2221 1.327 . S
C2221 H2215 0.950 . S
C2221 C2220 1.327 . S
C2221 C2225 1.429 . S
C2222 C2205 1.574 . S
C2222 H2216 0.949 . S
C2222 C2226 1.368 . S
C2223 C2204 1.429 . S
C2223 C2217 1.429 . S
C2223 C2224 1.523 . S
C2224 C2205 1.368 . S
C2224 C2218 1.368 . S
C2224 C2223 1.523 . S
C2225 C2209 1.429 . S
C2225 C2221 1.429 . S
C2225 C2226 1.523 . S
C2226 C2210 1.368 . S
C2226 C2222 1.368 . S
C2226 C2225 1.523 . S
H2227 C2202 0.950 . S
H2228 C2204 0.950 . S
H2229 C2205 0.949 . S
H2230 C2207 0.950 . S
H2231 C2209 0.950 . S
C2232 C2233 1.349 . S
C2232 C2234 1.327 . S
C2232 H2257 0.950 . S
C2233 C2232 1.349 . S
C2233 C2249 1.349 . S
C2234 C2232 1.327 . S
C2234 C2253 1.429 . S
C2234 H2258 0.950 . S
C2235 C2252 1.574 . S
C2235 C2254 1.368 . S
C2235 H2259 0.949 . S
H2236 C2240 0.949 . S
C2237 C2238 1.349 . S
C2237 C2239 1.327 . S
C2237 H2260 0.950 . S
C2238 C2237 1.349 . S
C2238 C2250 1.349 . S
C2239 C2237 1.327 . S
C2239 C2255 1.429 . S
C2239 H2261 0.950 . S
C2240 H2236 0.949 . S
C2240 C2248 1.574 . S
C2240 C2256 1.368 . S
H2241 C2249 0.950 . S
H2242 C2247 0.950 . S
H2243 C2248 0.949 . S
H2244 C2250 0.950 . S
H2245 C2251 0.950 . S
H2246 C2252 0.949 . S
C2247 H2242 0.950 . S
C2247 C2249 1.327 . S
C2247 C2253 1.429 . S
C2248 C2240 1.574 . S
C2248 H2243 0.949 . S
C2248 C2254 1.368 . S
C2249 C2233 1.349 . S
C2249 H2241 0.950 . S
C2249 C2247 1.327 . S
C2250 C2238 1.349 . S
C2250 H2244 0.950 . S
C2250 C2251 1.327 . S
C2251 H2245 0.950 . S
C2251 C2250 1.327 . S
C2251 C2255 1.429 . S
C2252 C2235 1.574 . S
C2252 H2246 0.949 . S
C2252 C2256 1.368 . S
C2253 C2234 1.429 . S
C2253 C2247 1.429 . S
C2253 C2254 1.523 . S
C2254 C2235 1.368 . S
C2254 C2248 1.368 . S
C2254 C2253 1.523 . S
C2255 C2239 1.429 . S
C2255 C2251 1.429 . S
C2255 C2256 1.523 . S
C2256 C2240 1.368 . S
C2256 C2252 1.368 . S
C2256 C2255 1.523 . S
H2257 C2232 0.950 . S
H2258 C2234 0.950 . S
H2259 C2235 0.949 . S
H2260 C2237 0.950 . S
H2261 C2239 0.950 . S
C2262 C2263 1.349 . S
C2262 C2264 1.327 . S
C2262 H2287 0.950 . S
C2263 C2262 1.349 . S
C2263 C2279 1.349 . S
C2264 C2262 1.327 . S
C2264 C2283 1.429 . S
C2264 H2288 0.950 . S
C2265 C2282 1.574 . S
C2265 C2284 1.368 . S
C2265 H2289 0.949 . S
H2266 C2270 0.949 . S
C2267 C2268 1.349 . S
C2267 C2269 1.327 . S
C2267 H2290 0.950 . S
C2268 C2267 1.349 . S
C2268 C2280 1.349 . S
C2269 C2267 1.327 . S
C2269 C2285 1.429 . S
C2269 H2291 0.950 . S
C2270 H2266 0.949 . S
C2270 C2278 1.574 . S
C2270 C2286 1.368 . S
H2271 C2279 0.950 . S
H2272 C2277 0.950 . S
H2273 C2278 0.949 . S
H2274 C2280 0.920 1_554 S
H2275 C2281 0.950 . S
H2276 C2282 0.949 . S
C2277 H2272 0.950 . S
C2277 C2279 1.327 . S
C2277 C2283 1.429 . S
C2278 C2270 1.574 . S
C2278 H2273 0.949 . S
C2278 C2284 1.368 . S
C2279 C2263 1.349 . S
C2279 H2271 0.950 . S
C2279 C2277 1.327 . S
C2280 C2268 1.349 . S
C2280 H2274 0.920 1_556 S
C2280 C2281 1.327 . S
C2281 H2275 0.950 . S
C2281 C2280 1.327 . S
C2281 C2285 1.429 . S
C2282 C2265 1.574 . S
C2282 H2276 0.949 . S
C2282 C2286 1.368 . S
C2283 C2264 1.429 . S
C2283 C2277 1.429 . S
C2283 C2284 1.523 . S
C2284 C2265 1.368 . S
C2284 C2278 1.368 . S
C2284 C2283 1.523 . S
C2285 C2269 1.429 . S
C2285 C2281 1.429 . S
C2285 C2286 1.523 . S
C2286 C2270 1.368 . S
C2286 C2282 1.368 . S
C2286 C2285 1.523 . S
H2287 C2262 0.950 . S
H2288 C2264 0.950 . S
H2289 C2265 0.949 . S
H2290 C2267 0.950 . S
H2291 C2269 0.950 . S
C2292 C2293 1.349 . S
C2292 C2294 1.327 . S
C2292 H2317 0.950 . S
C2293 C2292 1.349 . S
C2293 C2309 1.349 . S
C2294 C2292 1.327 . S
C2294 C2313 1.429 . S
C2294 H2318 0.950 . S
C2295 C2312 1.574 . S
C2295 C2314 1.368 . S
C2295 H2319 0.949 . S
H2296 C2300 0.949 . S
C2297 C2298 1.349 . S
C2297 C2299 1.327 . S
C2297 H2320 0.950 . S
C2298 C2297 1.349 . S
C2298 C2310 1.349 . S
C2299 C2297 1.327 . S
C2299 C2315 1.429 . S
C2299 H2321 0.950 . S
C2300 H2296 0.949 . S
C2300 C2308 1.574 . S
C2300 C2316 1.368 . S
H2301 C2309 0.950 . S
H2302 C2307 0.950 . S
H2303 C2308 0.949 . S
H2304 C2310 0.950 . S
H2305 C2311 0.950 . S
H2306 C2312 0.949 . S
C2307 H2302 0.950 . S
C2307 C2309 1.327 . S
C2307 C2313 1.429 . S
C2308 C2300 1.574 . S
C2308 H2303 0.949 . S
C2308 C2314 1.368 . S
C2309 C2293 1.349 . S
C2309 H2301 0.950 . S
C2309 C2307 1.327 . S
C2310 C2298 1.349 . S
C2310 H2304 0.950 . S
C2310 C2311 1.327 . S
C2311 H2305 0.950 . S
C2311 C2310 1.327 . S
C2311 C2315 1.429 . S
C2312 C2295 1.574 . S
C2312 H2306 0.949 . S
C2312 C2316 1.368 . S
C2313 C2294 1.429 . S
C2313 C2307 1.429 . S
C2313 C2314 1.523 . S
C2314 C2295 1.368 . S
C2314 C2308 1.368 . S
C2314 C2313 1.523 . S
C2315 C2299 1.429 . S
C2315 C2311 1.429 . S
C2315 C2316 1.523 . S
C2316 C2300 1.368 . S
C2316 C2312 1.368 . S
C2316 C2315 1.523 . S
H2317 C2292 0.950 . S
H2318 C2294 0.950 . S
H2319 C2295 0.949 . S
H2320 C2297 0.950 . S
H2321 C2299 0.950 . S
C2322 C2323 1.349 . S
C2322 C2324 1.327 . S
C2322 H2347 0.950 . S
C2323 C2322 1.349 . S
C2323 C2339 1.349 . S
C2324 C2322 1.327 . S
C2324 C2343 1.429 . S
C2324 H2348 0.950 . S
C2325 C2342 1.574 . S
C2325 C2344 1.368 . S
C2325 H2349 0.949 . S
H2326 C2330 0.949 . S
C2327 C2328 1.349 . S
C2327 C2329 1.327 . S
C2327 H2350 0.950 . S
C2328 C2327 1.349 . S
C2328 C2340 1.349 . S
C2329 C2327 1.327 . S
C2329 C2345 1.429 . S
C2329 H2351 0.950 . S
C2330 H2326 0.949 . S
C2330 C2338 1.574 . S
C2330 C2346 1.368 . S
H2331 C2339 0.950 . S
H2332 C2337 0.950 . S
H2333 C2338 0.949 . S
H2334 C2340 0.950 . S
H2335 C2341 0.950 . S
H2336 C2342 0.949 . S
C2337 H2332 0.950 . S
C2337 C2339 1.327 . S
C2337 C2343 1.429 . S
C2338 C2330 1.574 . S
C2338 H2333 0.949 . S
C2338 C2344 1.368 . S
C2339 C2323 1.349 . S
C2339 H2331 0.950 . S
C2339 C2337 1.327 . S
C2340 C2328 1.349 . S
C2340 H2334 0.950 . S
C2340 C2341 1.327 . S
C2341 H2335 0.950 . S
C2341 C2340 1.327 . S
C2341 C2345 1.429 . S
C2342 C2325 1.574 . S
C2342 H2336 0.949 . S
C2342 C2346 1.368 . S
C2343 C2324 1.429 . S
C2343 C2337 1.429 . S
C2343 C2344 1.523 . S
C2344 C2325 1.368 . S
C2344 C2338 1.368 . S
C2344 C2343 1.523 . S
C2345 C2329 1.429 . S
C2345 C2341 1.429 . S
C2345 C2346 1.523 . S
C2346 C2330 1.368 . S
C2346 C2342 1.368 . S
C2346 C2345 1.523 . S
H2347 C2322 0.950 . S
H2348 C2324 0.950 . S
H2349 C2325 0.949 . S
H2350 C2327 0.950 . S
H2351 C2329 0.950 . S
C2352 C2353 1.349 . S
C2352 C2354 1.327 . S
C2352 H2377 0.950 . S
C2353 C2352 1.349 . S
C2353 C2369 1.349 . S
C2354 C2352 1.327 . S
C2354 C2373 1.429 . S
C2354 H2378 0.950 . S
C2355 C2372 1.574 . S
C2355 C2374 1.368 . S
C2355 H2379 0.949 . S
H2356 C2360 0.949 . S
C2357 C2358 1.349 . S
C2357 C2359 1.327 . S
C2357 H2380 0.950 . S
C2358 C2357 1.349 . S
C2358 C2370 1.349 . S
C2359 C2357 1.327 . S
C2359 C2375 1.429 . S
C2359 H2381 0.950 . S
C2360 H2356 0.949 . S
C2360 C2368 1.574 . S
C2360 C2376 1.368 . S
H2361 C2369 0.950 . S
H2362 C2367 0.950 . S
H2363 C2368 0.949 . S
H2364 C2370 0.950 . S
H2365 C2371 0.950 . S
H2366 C2372 0.949 . S
C2367 H2362 0.950 . S
C2367 C2369 1.327 . S
C2367 C2373 1.429 . S
C2368 C2360 1.574 . S
C2368 H2363 0.949 . S
C2368 C2374 1.368 . S
C2369 C2353 1.349 . S
C2369 H2361 0.950 . S
C2369 C2367 1.327 . S
C2370 C2358 1.349 . S
C2370 H2364 0.950 . S
C2370 C2371 1.327 . S
C2371 H2365 0.950 . S
C2371 C2370 1.327 . S
C2371 C2375 1.429 . S
C2372 C2355 1.574 . S
C2372 H2366 0.949 . S
C2372 C2376 1.368 . S
C2373 C2354 1.429 . S
C2373 C2367 1.429 . S
C2373 C2374 1.523 . S
C2374 C2355 1.368 . S
C2374 C2368 1.368 . S
C2374 C2373 1.523 . S
C2375 C2359 1.429 . S
C2375 C2371 1.429 . S
C2375 C2376 1.523 . S
C2376 C2360 1.368 . S
C2376 C2372 1.368 . S
C2376 C2375 1.523 . S
H2377 C2352 0.950 . S
H2378 C2354 0.950 . S
H2379 C2355 0.949 . S
H2380 C2357 0.950 . S
H2381 C2359 0.950 . S
C2382 C2383 1.349 . S
C2382 C2384 1.327 . S
C2382 H2407 0.950 . S
C2383 C2382 1.349 . S
C2383 C2399 1.349 . S
C2384 C2382 1.327 . S
C2384 C2403 1.429 . S
C2384 H2408 0.950 . S
C2385 C2402 1.574 . S
C2385 C2404 1.368 . S
C2385 H2409 0.949 . S
H2386 C2390 0.949 . S
C2387 C2388 1.349 . S
C2387 C2389 1.327 . S
C2387 H2410 0.950 . S
C2388 C2387 1.349 . S
C2388 C2400 1.349 . S
C2389 C2387 1.327 . S
C2389 C2405 1.429 . S
C2389 H2411 0.950 . S
C2390 H2386 0.949 . S
C2390 C2398 1.574 . S
C2390 C2406 1.368 . S
H2391 C2399 0.950 . S
H2392 C2397 0.950 . S
H2393 C2398 0.949 . S
H2394 C2400 0.950 . S
H2395 C2401 0.950 . S
H2396 C2402 0.949 . S
C2397 H2392 0.950 . S
C2397 C2399 1.327 . S
C2397 C2403 1.429 . S
C2398 C2390 1.574 . S
C2398 H2393 0.949 . S
C2398 C2404 1.368 . S
C2399 C2383 1.349 . S
C2399 H2391 0.950 . S
C2399 C2397 1.327 . S
C2400 C2388 1.349 . S
C2400 H2394 0.950 . S
C2400 C2401 1.327 . S
C2401 H2395 0.950 . S
C2401 C2400 1.327 . S
C2401 C2405 1.429 . S
C2402 C2385 1.574 . S
C2402 H2396 0.949 . S
C2402 C2406 1.368 . S
C2403 C2384 1.429 . S
C2403 C2397 1.429 . S
C2403 C2404 1.523 . S
C2404 C2385 1.368 . S
C2404 C2398 1.368 . S
C2404 C2403 1.523 . S
C2405 C2389 1.429 . S
C2405 C2401 1.429 . S
C2405 C2406 1.523 . S
C2406 C2390 1.368 . S
C2406 C2402 1.368 . S
C2406 C2405 1.523 . S
H2407 C2382 0.950 . S
H2408 C2384 0.950 . S
H2409 C2385 0.949 . S
H2410 C2387 0.950 . S
H2411 C2389 0.950 . S
C2412 C2413 1.349 . S
C2412 C2414 1.327 . S
C2412 H2437 0.950 . S
C2413 C2412 1.349 . S
C2413 C2429 1.349 . S
C2414 C2412 1.327 . S
C2414 C2433 1.429 . S
C2414 H2438 0.950 . S
C2415 C2432 1.574 . S
C2415 C2434 1.368 . S
C2415 H2439 0.949 . S
H2416 C2420 0.949 . S
C2417 C2418 1.349 . S
C2417 C2419 1.327 . S
C2417 H2440 0.950 . S
C2418 C2417 1.349 . S
C2418 C2430 1.349 . S
C2419 C2417 1.327 . S
C2419 C2435 1.429 . S
C2419 H2441 0.950 . S
C2420 H2416 0.949 . S
C2420 C2428 1.574 . S
C2420 C2436 1.368 . S
H2421 C2429 0.950 . S
H2422 C2427 0.950 . S
H2423 C2428 0.949 . S
H2424 C2430 0.950 . S
H2425 C2431 0.950 . S
H2426 C2432 0.949 . S
C2427 H2422 0.950 . S
C2427 C2429 1.327 . S
C2427 C2433 1.429 . S
C2428 C2420 1.574 . S
C2428 H2423 0.949 . S
C2428 C2434 1.368 . S
C2429 C2413 1.349 . S
C2429 H2421 0.950 . S
C2429 C2427 1.327 . S
C2430 C2418 1.349 . S
C2430 H2424 0.950 . S
C2430 C2431 1.327 . S
C2431 H2425 0.950 . S
C2431 C2430 1.327 . S
C2431 C2435 1.429 . S
C2432 C2415 1.574 . S
C2432 H2426 0.949 . S
C2432 C2436 1.368 . S
C2433 C2414 1.429 . S
C2433 C2427 1.429 . S
C2433 C2434 1.523 . S
C2434 C2415 1.368 . S
C2434 C2428 1.368 . S
C2434 C2433 1.523 . S
C2435 C2419 1.429 . S
C2435 C2431 1.429 . S
C2435 C2436 1.523 . S
C2436 C2420 1.368 . S
C2436 C2432 1.368 . S
C2436 C2435 1.523 . S
H2437 C2412 0.950 . S
H2438 C2414 0.950 . S
H2439 C2415 0.949 . S
H2440 C2417 0.950 . S
H2441 C2419 0.950 . S
C2442 C2443 1.349 . S
C2442 C2444 1.327 . S
C2442 H2467 0.950 . S
C2443 C2442 1.349 . S
C2443 C2459 1.349 . S
C2444 C2442 1.327 . S
C2444 C2463 1.429 . S
C2444 H2468 0.950 . S
C2445 C2462 1.574 . S
C2445 C2464 1.368 . S
C2445 H2469 0.949 . S
H2446 C2450 0.949 . S
C2447 C2448 1.349 . S
C2447 C2449 1.327 . S
C2447 H2470 0.950 . S
C2448 C2447 1.349 . S
C2448 C2460 1.349 . S
C2449 C2447 1.327 . S
C2449 C2465 1.429 . S
C2449 H2471 0.950 . S
C2450 H2446 0.949 . S
C2450 C2458 1.574 . S
C2450 C2466 1.368 . S
H2451 C2459 0.950 . S
H2452 C2457 0.950 . S
H2453 C2458 0.949 . S
H2454 C2460 0.950 . S
H2455 C2461 0.950 . S
H2456 C2462 0.949 . S
C2457 H2452 0.950 . S
C2457 C2459 1.327 . S
C2457 C2463 1.429 . S
C2458 C2450 1.574 . S
C2458 H2453 0.949 . S
C2458 C2464 1.368 . S
C2459 C2443 1.349 . S
C2459 H2451 0.950 . S
C2459 C2457 1.327 . S
C2460 C2448 1.349 . S
C2460 H2454 0.950 . S
C2460 C2461 1.327 . S
C2461 H2455 0.950 . S
C2461 C2460 1.327 . S
C2461 C2465 1.429 . S
C2462 C2445 1.574 . S
C2462 H2456 0.949 . S
C2462 C2466 1.368 . S
C2463 C2444 1.429 . S
C2463 C2457 1.429 . S
C2463 C2464 1.523 . S
C2464 C2445 1.368 . S
C2464 C2458 1.368 . S
C2464 C2463 1.523 . S
C2465 C2449 1.429 . S
C2465 C2461 1.429 . S
C2465 C2466 1.523 . S
C2466 C2450 1.368 . S
C2466 C2462 1.368 . S
C2466 C2465 1.523 . S
H2467 C2442 0.950 . S
H2468 C2444 0.950 . S
H2469 C2445 0.949 . S
H2470 C2447 0.950 . S
H2471 C2449 0.950 . S
C2472 C2473 1.349 . S
C2472 C2474 1.327 . S
C2472 H2497 0.950 . S
C2473 C2472 1.349 . S
C2473 C2489 1.349 . S
C2474 C2472 1.327 . S
C2474 C2493 1.429 . S
C2474 H2498 0.950 . S
C2475 C2492 1.574 . S
C2475 C2494 1.368 . S
C2475 H2499 0.949 . S
H2476 C2480 0.949 . S
C2477 C2478 1.349 . S
C2477 C2479 1.327 . S
C2477 H2500 0.950 . S
C2478 C2477 1.349 . S
C2478 C2490 1.349 . S
C2479 C2477 1.327 . S
C2479 C2495 1.429 . S
C2479 H2501 0.950 . S
C2480 H2476 0.949 . S
C2480 C2488 1.574 . S
C2480 C2496 1.368 . S
H2481 C2489 0.950 . S
H2482 C2487 0.950 . S
H2483 C2488 0.949 . S
H2484 C2490 0.950 . S
H2485 C2491 0.950 . S
H2486 C2492 0.949 . S
C2487 H2482 0.950 . S
C2487 C2489 1.327 . S
C2487 C2493 1.429 . S
C2488 C2480 1.574 . S
C2488 H2483 0.949 . S
C2488 C2494 1.368 . S
C2489 C2473 1.349 . S
C2489 H2481 0.950 . S
C2489 C2487 1.327 . S
C2490 C2478 1.349 . S
C2490 H2484 0.950 . S
C2490 C2491 1.327 . S
C2491 H2485 0.950 . S
C2491 C2490 1.327 . S
C2491 C2495 1.429 . S
C2492 C2475 1.574 . S
C2492 H2486 0.949 . S
C2492 C2496 1.368 . S
C2493 C2474 1.429 . S
C2493 C2487 1.429 . S
C2493 C2494 1.523 . S
C2494 C2475 1.368 . S
C2494 C2488 1.368 . S
C2494 C2493 1.523 . S
C2495 C2479 1.429 . S
C2495 C2491 1.429 . S
C2495 C2496 1.523 . S
C2496 C2480 1.368 . S
C2496 C2492 1.368 . S
C2496 C2495 1.523 . S
H2497 C2472 0.950 . S
H2498 C2474 0.950 . S
H2499 C2475 0.949 . S
H2500 C2477 0.950 . S
H2501 C2479 0.950 . S
C2502 C2503 1.349 . S
C2502 C2504 1.327 . S
C2502 H2527 0.950 . S
C2503 C2502 1.349 . S
C2503 C2519 1.349 . S
C2504 C2502 1.327 . S
C2504 C2523 1.429 . S
C2504 H2528 0.950 . S
C2505 C2522 1.574 . S
C2505 C2524 1.368 . S
C2505 H2529 0.949 . S
H2506 C2510 0.949 . S
C2507 C2508 1.349 . S
C2507 C2509 1.327 . S
C2507 H2530 0.950 . S
C2508 C2507 1.349 . S
C2508 C2520 1.349 . S
C2509 C2507 1.327 . S
C2509 C2525 1.429 . S
C2509 H2531 0.950 . S
C2510 H2506 0.949 . S
C2510 C2518 1.574 . S
C2510 C2526 1.368 . S
H2511 C2519 0.950 . S
H2512 C2517 0.950 . S
H2513 C2518 0.949 . S
H2514 C2520 0.950 . S
H2515 C2521 0.950 . S
H2516 C2522 0.949 . S
C2517 H2512 0.950 . S
C2517 C2519 1.327 . S
C2517 C2523 1.429 . S
C2518 C2510 1.574 . S
C2518 H2513 0.949 . S
C2518 C2524 1.368 . S
C2519 C2503 1.349 . S
C2519 H2511 0.950 . S
C2519 C2517 1.327 . S
C2520 C2508 1.349 . S
C2520 H2514 0.950 . S
C2520 C2521 1.327 . S
C2521 H2515 0.950 . S
C2521 C2520 1.327 . S
C2521 C2525 1.429 . S
C2522 C2505 1.574 . S
C2522 H2516 0.949 . S
C2522 C2526 1.368 . S
C2523 C2504 1.429 . S
C2523 C2517 1.429 . S
C2523 C2524 1.523 . S
C2524 C2505 1.368 . S
C2524 C2518 1.368 . S
C2524 C2523 1.523 . S
C2525 C2509 1.429 . S
C2525 C2521 1.429 . S
C2525 C2526 1.523 . S
C2526 C2510 1.368 . S
C2526 C2522 1.368 . S
C2526 C2525 1.523 . S
H2527 C2502 0.950 . S
H2528 C2504 0.950 . S
H2529 C2505 0.949 . S
H2530 C2507 0.950 . S
H2531 C2509 0.950 . S
C2532 C2533 1.349 . S
C2532 C2534 1.327 . S
C2532 H2557 0.950 . S
C2533 C2532 1.349 . S
C2533 C2549 1.349 . S
C2534 C2532 1.327 . S
C2534 C2553 1.429 . S
C2534 H2558 0.950 . S
C2535 C2552 1.574 . S
C2535 C2554 1.368 . S
C2535 H2559 0.949 . S
H2536 C2540 0.949 . S
C2537 C2538 1.349 . S
C2537 C2539 1.327 . S
C2537 H2560 0.950 . S
C2538 C2537 1.349 . S
C2538 C2550 1.349 . S
C2539 C2537 1.327 . S
C2539 C2555 1.429 . S
C2539 H2561 0.950 . S
C2540 H2536 0.949 . S
C2540 C2548 1.574 . S
C2540 C2556 1.368 . S
H2541 C2549 0.950 . S
H2542 C2547 0.950 . S
H2543 C2548 0.949 . S
H2544 C2550 0.950 . S
H2545 C2551 0.950 . S
H2546 C2552 0.949 . S
C2547 H2542 0.950 . S
C2547 C2549 1.327 . S
C2547 C2553 1.429 . S
C2548 C2540 1.574 . S
C2548 H2543 0.949 . S
C2548 C2554 1.368 . S
C2549 C2533 1.349 . S
C2549 H2541 0.950 . S
C2549 C2547 1.327 . S
C2550 C2538 1.349 . S
C2550 H2544 0.950 . S
C2550 C2551 1.327 . S
C2551 H2545 0.950 . S
C2551 C2550 1.327 . S
C2551 C2555 1.429 . S
C2552 C2535 1.574 . S
C2552 H2546 0.949 . S
C2552 C2556 1.368 . S
C2553 C2534 1.429 . S
C2553 C2547 1.429 . S
C2553 C2554 1.523 . S
C2554 C2535 1.368 . S
C2554 C2548 1.368 . S
C2554 C2553 1.523 . S
C2555 C2539 1.429 . S
C2555 C2551 1.429 . S
C2555 C2556 1.523 . S
C2556 C2540 1.368 . S
C2556 C2552 1.368 . S
C2556 C2555 1.523 . S
H2557 C2532 0.950 . S
H2558 C2534 0.950 . S
H2559 C2535 0.949 . S
H2560 C2537 0.950 . S
H2561 C2539 0.950 . S
C2562 C2563 1.349 . S
C2562 C2564 1.327 . S
C2562 H2587 0.950 . S
C2563 C2562 1.349 . S
C2563 C2579 1.349 . S
C2564 C2562 1.327 . S
C2564 C2583 1.429 . S
C2564 H2588 0.950 . S
C2565 C2582 1.574 . S
C2565 C2584 1.368 . S
C2565 H2589 0.949 . S
H2566 C2570 0.949 . S
C2567 C2568 1.349 . S
C2567 C2569 1.327 . S
C2567 H2590 0.950 . S
C2568 C2567 1.349 . S
C2568 C2580 1.349 . S
C2569 C2567 1.327 . S
C2569 C2585 1.429 . S
C2569 H2591 0.950 . S
C2570 H2566 0.949 . S
C2570 C2578 1.574 . S
C2570 C2586 1.368 . S
H2571 C2579 0.950 . S
H2572 C2577 0.950 . S
H2573 C2578 0.949 . S
H2574 C2580 0.950 . S
H2575 C2581 0.950 . S
H2576 C2582 0.949 . S
C2577 H2572 0.950 . S
C2577 C2579 1.327 . S
C2577 C2583 1.429 . S
C2578 C2570 1.574 . S
C2578 H2573 0.949 . S
C2578 C2584 1.368 . S
C2579 C2563 1.349 . S
C2579 H2571 0.950 . S
C2579 C2577 1.327 . S
C2580 C2568 1.349 . S
C2580 H2574 0.950 . S
C2580 C2581 1.327 . S
C2581 H2575 0.950 . S
C2581 C2580 1.327 . S
C2581 C2585 1.429 . S
C2582 C2565 1.574 . S
C2582 H2576 0.949 . S
C2582 C2586 1.368 . S
C2583 C2564 1.429 . S
C2583 C2577 1.429 . S
C2583 C2584 1.523 . S
C2584 C2565 1.368 . S
C2584 C2578 1.368 . S
C2584 C2583 1.523 . S
C2585 C2569 1.429 . S
C2585 C2581 1.429 . S
C2585 C2586 1.523 . S
C2586 C2570 1.368 . S
C2586 C2582 1.368 . S
C2586 C2585 1.523 . S
H2587 C2562 0.950 . S
H2588 C2564 0.950 . S
H2589 C2565 0.949 . S
H2590 C2567 0.950 . S
H2591 C2569 0.950 . S
C2592 C2593 1.349 . S
C2592 C2594 1.327 . S
C2592 H2617 0.950 . S
C2593 C2592 1.349 . S
C2593 C2609 1.349 . S
C2594 C2592 1.327 . S
C2594 C2613 1.429 . S
C2594 H2618 0.950 . S
C2595 C2612 1.574 . S
C2595 C2614 1.368 . S
C2595 H2619 0.949 . S
H2596 C2600 0.949 . S
C2597 C2598 1.349 . S
C2597 C2599 1.327 . S
C2597 H2620 0.950 . S
C2598 C2597 1.349 . S
C2598 C2610 1.349 . S
C2599 C2597 1.327 . S
C2599 C2615 1.429 . S
C2599 H2621 0.950 . S
C2600 H2596 0.949 . S
C2600 C2608 1.574 . S
C2600 C2616 1.368 . S
H2601 C2609 0.950 . S
H2602 C2607 0.950 . S
H2603 C2608 0.949 . S
H2604 C2610 0.950 . S
H2605 C2611 0.950 . S
H2606 C2612 0.949 . S
C2607 H2602 0.950 . S
C2607 C2609 1.327 . S
C2607 C2613 1.429 . S
C2608 C2600 1.574 . S
C2608 H2603 0.949 . S
C2608 C2614 1.368 . S
C2609 C2593 1.349 . S
C2609 H2601 0.950 . S
C2609 C2607 1.327 . S
C2610 C2598 1.349 . S
C2610 H2604 0.950 . S
C2610 C2611 1.327 . S
C2611 H2605 0.950 . S
C2611 C2610 1.327 . S
C2611 C2615 1.429 . S
C2612 C2595 1.574 . S
C2612 H2606 0.949 . S
C2612 C2616 1.368 . S
C2613 C2594 1.429 . S
C2613 C2607 1.429 . S
C2613 C2614 1.523 . S
C2614 C2595 1.368 . S
C2614 C2608 1.368 . S
C2614 C2613 1.523 . S
C2615 C2599 1.429 . S
C2615 C2611 1.429 . S
C2615 C2616 1.523 . S
C2616 C2600 1.368 . S
C2616 C2612 1.368 . S
C2616 C2615 1.523 . S
H2617 C2592 0.950 . S
H2618 C2594 0.950 . S
H2619 C2595 0.949 . S
H2620 C2597 0.950 . S
H2621 C2599 0.950 . S
C2622 C2623 1.349 . S
C2622 C2624 1.327 . S
C2622 H2647 0.950 . S
C2623 C2622 1.349 . S
C2623 C2639 1.349 . S
C2624 C2622 1.327 . S
C2624 C2643 1.429 . S
C2624 H2648 0.950 . S
C2625 C2642 1.574 . S
C2625 C2644 1.368 . S
C2625 H2649 0.949 . S
H2626 C2630 0.949 . S
C2627 C2628 1.349 . S
C2627 C2629 1.327 . S
C2627 H2650 0.950 . S
C2628 C2627 1.349 . S
C2628 C2640 1.349 . S
C2629 C2627 1.327 . S
C2629 C2645 1.429 . S
C2629 H2651 0.950 . S
C2630 H2626 0.949 . S
C2630 C2638 1.574 . S
C2630 C2646 1.368 . S
H2631 C2639 0.924 1_545 S
H2632 C2637 0.950 . S
H2633 C2638 0.949 . S
H2634 C2640 0.950 . S
H2635 C2641 0.950 . S
H2636 C2642 0.949 . S
C2637 H2632 0.950 . S
C2637 C2639 1.327 . S
C2637 C2643 1.429 . S
C2638 C2630 1.574 . S
C2638 H2633 0.949 . S
C2638 C2644 1.368 . S
C2639 C2623 1.349 . S
C2639 H2631 0.924 1_565 S
C2639 C2637 1.327 . S
C2640 C2628 1.349 . S
C2640 H2634 0.950 . S
C2640 C2641 1.327 . S
C2641 H2635 0.950 . S
C2641 C2640 1.327 . S
C2641 C2645 1.429 . S
C2642 C2625 1.574 . S
C2642 H2636 0.949 . S
C2642 C2646 1.368 . S
C2643 C2624 1.429 . S
C2643 C2637 1.429 . S
C2643 C2644 1.523 . S
C2644 C2625 1.368 . S
C2644 C2638 1.368 . S
C2644 C2643 1.523 . S
C2645 C2629 1.429 . S
C2645 C2641 1.429 . S
C2645 C2646 1.523 . S
C2646 C2630 1.368 . S
C2646 C2642 1.368 . S
C2646 C2645 1.523 . S
H2647 C2622 0.950 . S
H2648 C2624 0.950 . S
H2649 C2625 0.949 . S
H2650 C2627 0.950 . S
H2651 C2629 0.950 . S
C2652 C2653 1.349 . S
C2652 C2654 1.327 . S
C2652 H2677 0.950 . S
C2653 C2652 1.349 . S
C2653 C2669 1.349 . S
C2654 C2652 1.327 . S
C2654 C2673 1.429 . S
C2654 H2678 0.950 . S
C2655 C2672 1.574 . S
C2655 C2674 1.368 . S
C2655 H2679 0.949 . S
H2656 C2660 0.949 . S
C2657 C2658 1.349 . S
C2657 C2659 1.327 . S
C2657 H2680 0.950 . S
C2658 C2657 1.349 . S
C2658 C2670 1.349 . S
C2659 C2657 1.327 . S
C2659 C2675 1.429 . S
C2659 H2681 0.950 . S
C2660 H2656 0.949 . S
C2660 C2668 1.574 . S
C2660 C2676 1.368 . S
H2661 C2669 0.950 . S
H2662 C2667 0.950 . S
H2663 C2668 0.949 . S
H2664 C2670 0.950 . S
H2665 C2671 0.950 . S
H2666 C2672 0.949 . S
C2667 H2662 0.950 . S
C2667 C2669 1.327 . S
C2667 C2673 1.429 . S
C2668 C2660 1.574 . S
C2668 H2663 0.949 . S
C2668 C2674 1.368 . S
C2669 C2653 1.349 . S
C2669 H2661 0.950 . S
C2669 C2667 1.327 . S
C2670 C2658 1.349 . S
C2670 H2664 0.950 . S
C2670 C2671 1.327 . S
C2671 H2665 0.950 . S
C2671 C2670 1.327 . S
C2671 C2675 1.429 . S
C2672 C2655 1.574 . S
C2672 H2666 0.949 . S
C2672 C2676 1.368 . S
C2673 C2654 1.429 . S
C2673 C2667 1.429 . S
C2673 C2674 1.523 . S
C2674 C2655 1.368 . S
C2674 C2668 1.368 . S
C2674 C2673 1.523 . S
C2675 C2659 1.429 . S
C2675 C2671 1.429 . S
C2675 C2676 1.523 . S
C2676 C2660 1.368 . S
C2676 C2672 1.368 . S
C2676 C2675 1.523 . S
H2677 C2652 0.950 . S
H2678 C2654 0.950 . S
H2679 C2655 0.949 . S
H2680 C2657 0.950 . S
H2681 C2659 0.950 . S
C2682 C2683 1.349 . S
C2682 C2684 1.327 . S
C2682 H2707 0.950 . S
C2683 C2682 1.349 . S
C2683 C2699 1.349 . S
C2684 C2682 1.327 . S
C2684 C2703 1.429 . S
C2684 H2708 0.950 . S
C2685 C2702 1.574 . S
C2685 C2704 1.368 . S
C2685 H2709 0.949 . S
H2686 C2690 0.949 . S
C2687 C2688 1.349 . S
C2687 C2689 1.327 . S
C2687 H2710 0.985 . S
C2688 C2687 1.349 . S
C2688 C2700 1.349 . S
C2689 C2687 1.327 . S
C2689 C2705 1.429 . S
C2689 H2711 0.950 . S
C2690 H2686 0.949 . S
C2690 C2698 1.574 . S
C2690 C2706 1.368 . S
H2691 C2699 0.950 . S
H2692 C2697 0.950 . S
H2693 C2698 0.949 . S
H2694 C2700 0.950 . S
H2695 C2701 0.950 . S
H2696 C2702 0.949 . S
C2697 H2692 0.950 . S
C2697 C2699 1.327 . S
C2697 C2703 1.429 . S
C2698 C2690 1.574 . S
C2698 H2693 0.949 . S
C2698 C2704 1.368 . S
C2699 C2683 1.349 . S
C2699 H2691 0.950 . S
C2699 C2697 1.327 . S
C2700 C2688 1.349 . S
C2700 H2694 0.950 . S
C2700 C2701 1.327 . S
C2701 H2695 0.950 . S
C2701 C2700 1.327 . S
C2701 C2705 1.429 . S
C2702 C2685 1.574 . S
C2702 H2696 0.949 . S
C2702 C2706 1.368 . S
C2703 C2684 1.429 . S
C2703 C2697 1.429 . S
C2703 C2704 1.523 . S
C2704 C2685 1.368 . S
C2704 C2698 1.368 . S
C2704 C2703 1.523 . S
C2705 C2689 1.429 . S
C2705 C2701 1.429 . S
C2705 C2706 1.523 . S
C2706 C2690 1.368 . S
C2706 C2702 1.368 . S
C2706 C2705 1.523 . S
H2707 C2682 0.950 . S
H2708 C2684 0.950 . S
H2709 C2685 0.949 . S
H2710 C2687 0.985 . S
H2711 C2689 0.950 . S
C2712 C2713 1.349 . S
C2712 C2714 1.327 . S
C2712 H2737 0.950 . S
C2713 C2712 1.349 . S
C2713 C2729 1.349 . S
C2714 C2712 1.327 . S
C2714 C2733 1.429 . S
C2714 H2738 0.950 . S
C2715 C2732 1.574 . S
C2715 C2734 1.368 . S
C2715 H2739 0.949 . S
H2716 C2720 0.949 . S
C2717 C2718 1.349 . S
C2717 C2719 1.327 . S
C2717 H2740 0.950 . S
C2718 C2717 1.349 . S
C2718 C2730 1.349 . S
C2719 C2717 1.327 . S
C2719 C2735 1.429 . S
C2719 H2741 0.950 . S
C2720 H2716 0.949 . S
C2720 C2728 1.574 . S
C2720 C2736 1.368 . S
H2721 C2729 0.950 . S
H2722 C2727 0.950 . S
H2723 C2728 0.949 . S
H2724 C2730 0.950 . S
H2725 C2731 0.950 . S
H2726 C2732 0.949 . S
C2727 H2722 0.950 . S
C2727 C2729 1.327 . S
C2727 C2733 1.429 . S
C2728 C2720 1.574 . S
C2728 H2723 0.949 . S
C2728 C2734 1.368 . S
C2729 C2713 1.349 . S
C2729 H2721 0.950 . S
C2729 C2727 1.327 . S
C2730 C2718 1.349 . S
C2730 H2724 0.950 . S
C2730 C2731 1.327 . S
C2731 H2725 0.950 . S
C2731 C2730 1.327 . S
C2731 C2735 1.429 . S
C2732 C2715 1.574 . S
C2732 H2726 0.949 . S
C2732 C2736 1.368 . S
C2733 C2714 1.429 . S
C2733 C2727 1.429 . S
C2733 C2734 1.523 . S
C2734 C2715 1.368 . S
C2734 C2728 1.368 . S
C2734 C2733 1.523 . S
C2735 C2719 1.429 . S
C2735 C2731 1.429 . S
C2735 C2736 1.523 . S
C2736 C2720 1.368 . S
C2736 C2732 1.368 . S
C2736 C2735 1.523 . S
H2737 C2712 0.950 . S
H2738 C2714 0.950 . S
H2739 C2715 0.949 . S
H2740 C2717 0.950 . S
H2741 C2719 0.950 . S
C2742 C2743 1.349 . S
C2742 C2744 1.327 . S
C2742 H2767 0.950 . S
C2743 C2742 1.349 . S
C2743 C2759 1.349 . S
C2744 C2742 1.327 . S
C2744 C2763 1.429 . S
C2744 H2768 0.950 . S
C2745 C2762 1.574 . S
C2745 C2764 1.368 . S
C2745 H2769 0.949 . S
H2746 C2750 0.949 . S
C2747 C2748 1.349 . S
C2747 C2749 1.327 . S
C2747 H2770 0.950 . S
C2748 C2747 1.349 . S
C2748 C2760 1.349 . S
C2749 C2747 1.327 . S
C2749 C2765 1.429 . S
C2749 H2771 0.950 . S
C2750 H2746 0.949 . S
C2750 C2758 1.574 . S
C2750 C2766 1.368 . S
H2751 C2759 0.950 . S
H2752 C2757 0.950 . S
H2753 C2758 0.949 . S
H2754 C2760 0.950 . S
H2755 C2761 0.950 . S
H2756 C2762 0.949 . S
C2757 H2752 0.950 . S
C2757 C2759 1.327 . S
C2757 C2763 1.429 . S
C2758 C2750 1.574 . S
C2758 H2753 0.949 . S
C2758 C2764 1.368 . S
C2759 C2743 1.349 . S
C2759 H2751 0.950 . S
C2759 C2757 1.327 . S
C2760 C2748 1.349 . S
C2760 H2754 0.950 . S
C2760 C2761 1.327 . S
C2761 H2755 0.950 . S
C2761 C2760 1.327 . S
C2761 C2765 1.429 . S
C2762 C2745 1.574 . S
C2762 H2756 0.949 . S
C2762 C2766 1.368 . S
C2763 C2744 1.429 . S
C2763 C2757 1.429 . S
C2763 C2764 1.523 . S
C2764 C2745 1.368 . S
C2764 C2758 1.368 . S
C2764 C2763 1.523 . S
C2765 C2749 1.429 . S
C2765 C2761 1.429 . S
C2765 C2766 1.523 . S
C2766 C2750 1.368 . S
C2766 C2762 1.368 . S
C2766 C2765 1.523 . S
H2767 C2742 0.950 . S
H2768 C2744 0.950 . S
H2769 C2745 0.949 . S
H2770 C2747 0.950 . S
H2771 C2749 0.950 . S
C2772 C2773 1.349 . S
C2772 C2774 1.327 . S
C2772 H2797 0.950 . S
C2773 C2772 1.349 . S
C2773 C2789 1.349 . S
C2774 C2772 1.327 . S
C2774 C2793 1.429 . S
C2774 H2798 0.950 . S
C2775 C2792 1.574 . S
C2775 C2794 1.368 . S
C2775 H2799 0.949 . S
H2776 C2780 0.949 . S
C2777 C2778 1.349 . S
C2777 C2779 1.327 . S
C2777 H2800 0.950 . S
C2778 C2777 1.349 . S
C2778 C2790 1.349 . S
C2779 C2777 1.327 . S
C2779 C2795 1.429 . S
C2779 H2801 0.950 . S
C2780 H2776 0.949 . S
C2780 C2788 1.574 . S
C2780 C2796 1.368 . S
H2781 C2789 0.950 . S
H2782 C2787 0.950 . S
H2783 C2788 0.949 . S
H2784 C2790 0.950 . S
H2785 C2791 0.950 . S
H2786 C2792 0.949 . S
C2787 H2782 0.950 . S
C2787 C2789 1.327 . S
C2787 C2793 1.429 . S
C2788 C2780 1.574 . S
C2788 H2783 0.949 . S
C2788 C2794 1.368 . S
C2789 C2773 1.349 . S
C2789 H2781 0.950 . S
C2789 C2787 1.327 . S
C2790 C2778 1.349 . S
C2790 H2784 0.950 . S
C2790 C2791 1.327 . S
C2791 H2785 0.950 . S
C2791 C2790 1.327 . S
C2791 C2795 1.429 . S
C2792 C2775 1.574 . S
C2792 H2786 0.949 . S
C2792 C2796 1.368 . S
C2793 C2774 1.429 . S
C2793 C2787 1.429 . S
C2793 C2794 1.523 . S
C2794 C2775 1.368 . S
C2794 C2788 1.368 . S
C2794 C2793 1.523 . S
C2795 C2779 1.429 . S
C2795 C2791 1.429 . S
C2795 C2796 1.523 . S
C2796 C2780 1.368 . S
C2796 C2792 1.368 . S
C2796 C2795 1.523 . S
H2797 C2772 0.950 . S
H2798 C2774 0.950 . S
H2799 C2775 0.949 . S
H2800 C2777 0.950 . S
H2801 C2779 0.950 . S
C2802 C2803 1.349 . S
C2802 C2804 1.327 . S
C2802 H2827 0.950 . S
C2803 C2802 1.349 . S
C2803 C2819 1.349 . S
C2804 C2802 1.327 . S
C2804 C2823 1.429 . S
C2804 H2828 0.950 . S
C2805 C2822 1.574 . S
C2805 C2824 1.368 . S
C2805 H2829 0.949 . S
H2806 C2810 0.949 . S
C2807 C2808 1.349 . S
C2807 C2809 1.327 . S
C2807 H2830 0.950 . S
C2808 C2807 1.349 . S
C2808 C2820 1.349 . S
C2809 C2807 1.327 . S
C2809 C2825 1.429 . S
C2809 H2831 0.950 . S
C2810 H2806 0.949 . S
C2810 C2818 1.574 . S
C2810 C2826 1.368 . S
H2811 C2819 0.950 . S
H2812 C2817 0.950 . S
H2813 C2818 0.949 . S
H2814 C2820 0.950 . S
H2815 C2821 0.950 . S
H2816 C2822 0.949 . S
C2817 H2812 0.950 . S
C2817 C2819 1.327 . S
C2817 C2823 1.429 . S
C2818 C2810 1.574 . S
C2818 H2813 0.949 . S
C2818 C2824 1.368 . S
C2819 C2803 1.349 . S
C2819 H2811 0.950 . S
C2819 C2817 1.327 . S
C2820 C2808 1.349 . S
C2820 H2814 0.950 . S
C2820 C2821 1.327 . S
C2821 H2815 0.950 . S
C2821 C2820 1.327 . S
C2821 C2825 1.429 . S
C2822 C2805 1.574 . S
C2822 H2816 0.949 . S
C2822 C2826 1.368 . S
C2823 C2804 1.429 . S
C2823 C2817 1.429 . S
C2823 C2824 1.523 . S
C2824 C2805 1.368 . S
C2824 C2818 1.368 . S
C2824 C2823 1.523 . S
C2825 C2809 1.429 . S
C2825 C2821 1.429 . S
C2825 C2826 1.523 . S
C2826 C2810 1.368 . S
C2826 C2822 1.368 . S
C2826 C2825 1.523 . S
H2827 C2802 0.950 . S
H2828 C2804 0.950 . S
H2829 C2805 0.949 . S
H2830 C2807 0.950 . S
H2831 C2809 0.950 . S
C2832 C2833 1.349 . S
C2832 C2834 1.327 . S
C2832 H2857 0.950 . S
C2833 C2832 1.349 . S
C2833 C2849 1.349 . S
C2834 C2832 1.327 . S
C2834 C2853 1.429 . S
C2834 H2858 0.950 . S
C2835 C2852 1.574 . S
C2835 C2854 1.368 . S
C2835 H2859 0.949 . S
H2836 C2840 0.949 . S
C2837 C2838 1.349 . S
C2837 C2839 1.327 . S
C2837 H2860 0.950 . S
C2838 C2837 1.349 . S
C2838 C2850 1.349 . S
C2839 C2837 1.327 . S
C2839 C2855 1.429 . S
C2839 H2861 0.950 . S
C2840 H2836 0.949 . S
C2840 C2848 1.574 . S
C2840 C2856 1.368 . S
H2841 C2849 0.950 . S
H2842 C2847 0.950 . S
H2843 C2848 0.949 . S
H2844 C2850 0.950 . S
H2845 C2851 0.950 . S
H2846 C2852 0.949 . S
C2847 H2842 0.950 . S
C2847 C2849 1.327 . S
C2847 C2853 1.429 . S
C2848 C2840 1.574 . S
C2848 H2843 0.949 . S
C2848 C2854 1.368 . S
C2849 C2833 1.349 . S
C2849 H2841 0.950 . S
C2849 C2847 1.327 . S
C2850 C2838 1.349 . S
C2850 H2844 0.950 . S
C2850 C2851 1.327 . S
C2851 H2845 0.950 . S
C2851 C2850 1.327 . S
C2851 C2855 1.429 . S
C2852 C2835 1.574 . S
C2852 H2846 0.949 . S
C2852 C2856 1.368 . S
C2853 C2834 1.429 . S
C2853 C2847 1.429 . S
C2853 C2854 1.523 . S
C2854 C2835 1.368 . S
C2854 C2848 1.368 . S
C2854 C2853 1.523 . S
C2855 C2839 1.429 . S
C2855 C2851 1.429 . S
C2855 C2856 1.523 . S
C2856 C2840 1.368 . S
C2856 C2852 1.368 . S
C2856 C2855 1.523 . S
H2857 C2832 0.950 . S
H2858 C2834 0.950 . S
H2859 C2835 0.949 . S
H2860 C2837 0.950 . S
H2861 C2839 0.950 . S
C2862 C2863 1.349 . S
C2862 C2864 1.327 . S
C2862 H2887 0.950 . S
C2863 C2862 1.349 . S
C2863 C2879 1.349 . S
C2864 C2862 1.327 . S
C2864 C2883 1.429 . S
C2864 H2888 0.950 . S
C2865 C2882 1.574 . S
C2865 C2884 1.368 . S
C2865 H2889 0.949 . S
H2866 C2870 0.949 . S
C2867 C2868 1.349 . S
C2867 C2869 1.327 . S
C2867 H2890 0.950 . S
C2868 C2867 1.349 . S
C2868 C2880 1.349 . S
C2869 C2867 1.327 . S
C2869 C2885 1.429 . S
C2869 H2891 0.950 . S
C2870 H2866 0.949 . S
C2870 C2878 1.574 . S
C2870 C2886 1.368 . S
H2871 C2879 0.950 . S
H2872 C2877 0.950 . S
H2873 C2878 0.949 . S
H2874 C2880 0.950 . S
H2875 C2881 0.950 . S
H2876 C2882 0.949 . S
C2877 H2872 0.950 . S
C2877 C2879 1.327 . S
C2877 C2883 1.429 . S
C2878 C2870 1.574 . S
C2878 H2873 0.949 . S
C2878 C2884 1.368 . S
C2879 C2863 1.349 . S
C2879 H2871 0.950 . S
C2879 C2877 1.327 . S
C2880 C2868 1.349 . S
C2880 H2874 0.950 . S
C2880 C2881 1.327 . S
C2881 H2875 0.950 . S
C2881 C2880 1.327 . S
C2881 C2885 1.429 . S
C2882 C2865 1.574 . S
C2882 H2876 0.949 . S
C2882 C2886 1.368 . S
C2883 C2864 1.429 . S
C2883 C2877 1.429 . S
C2883 C2884 1.523 . S
C2884 C2865 1.368 . S
C2884 C2878 1.368 . S
C2884 C2883 1.523 . S
C2885 C2869 1.429 . S
C2885 C2881 1.429 . S
C2885 C2886 1.523 . S
C2886 C2870 1.368 . S
C2886 C2882 1.368 . S
C2886 C2885 1.523 . S
H2887 C2862 0.950 . S
H2888 C2864 0.950 . S
H2889 C2865 0.949 . S
H2890 C2867 0.950 . S
H2891 C2869 0.950 . S
C2892 C2893 1.349 . S
C2892 C2894 1.327 . S
C2892 H2917 0.950 . S
C2893 C2892 1.349 . S
C2893 C2909 1.349 . S
C2894 C2892 1.327 . S
C2894 C2913 1.429 . S
C2894 H2918 0.950 . S
C2895 C2912 1.574 . S
C2895 C2914 1.368 . S
C2895 H2919 0.949 . S
H2896 C2900 0.949 . S
C2897 C2898 1.349 . S
C2897 C2899 1.327 . S
C2897 H2920 0.950 . S
C2898 C2897 1.349 . S
C2898 C2910 1.349 . S
C2899 C2897 1.327 . S
C2899 C2915 1.429 . S
C2899 H2921 0.950 . S
C2900 H2896 0.949 . S
C2900 C2908 1.574 . S
C2900 C2916 1.368 . S
H2901 C2909 0.950 . S
H2902 C2907 0.950 . S
H2903 C2908 0.949 . S
H2904 C2910 0.950 . S
H2905 C2911 0.950 . S
H2906 C2912 0.949 . S
C2907 H2902 0.950 . S
C2907 C2909 1.327 . S
C2907 C2913 1.429 . S
C2908 C2900 1.574 . S
C2908 H2903 0.949 . S
C2908 C2914 1.368 . S
C2909 C2893 1.349 . S
C2909 H2901 0.950 . S
C2909 C2907 1.327 . S
C2910 C2898 1.349 . S
C2910 H2904 0.950 . S
C2910 C2911 1.327 . S
C2911 H2905 0.950 . S
C2911 C2910 1.327 . S
C2911 C2915 1.429 . S
C2912 C2895 1.574 . S
C2912 H2906 0.949 . S
C2912 C2916 1.368 . S
C2913 C2894 1.429 . S
C2913 C2907 1.429 . S
C2913 C2914 1.523 . S
C2914 C2895 1.368 . S
C2914 C2908 1.368 . S
C2914 C2913 1.523 . S
C2915 C2899 1.429 . S
C2915 C2911 1.429 . S
C2915 C2916 1.523 . S
C2916 C2900 1.368 . S
C2916 C2912 1.368 . S
C2916 C2915 1.523 . S
H2917 C2892 0.950 . S
H2918 C2894 0.950 . S
H2919 C2895 0.949 . S
H2920 C2897 0.950 . S
H2921 C2899 0.950 . S
C2922 C2923 1.349 . S
C2922 C2924 1.327 . S
C2922 H2947 0.950 . S
C2923 C2922 1.349 . S
C2923 C2939 1.349 . S
C2924 C2922 1.327 . S
C2924 C2943 1.429 . S
C2924 H2948 0.950 . S
C2925 C2942 1.574 . S
C2925 C2944 1.368 . S
C2925 H2949 0.949 . S
H2926 C2930 0.949 . S
C2927 C2928 1.349 . S
C2927 C2929 1.327 . S
C2927 H2950 0.950 . S
C2928 C2927 1.349 . S
C2928 C2940 1.349 . S
C2929 C2927 1.327 . S
C2929 C2945 1.429 . S
C2929 H2951 0.950 . S
C2930 H2926 0.949 . S
C2930 C2938 1.574 . S
C2930 C2946 1.368 . S
H2931 C2939 0.950 . S
H2932 C2937 0.950 . S
H2933 C2938 0.949 . S
H2934 C2940 0.950 . S
H2935 C2941 0.950 . S
H2936 C2942 0.949 . S
C2937 H2932 0.950 . S
C2937 C2939 1.327 . S
C2937 C2943 1.429 . S
C2938 C2930 1.574 . S
C2938 H2933 0.949 . S
C2938 C2944 1.368 . S
C2939 C2923 1.349 . S
C2939 H2931 0.950 . S
C2939 C2937 1.327 . S
C2940 C2928 1.349 . S
C2940 H2934 0.950 . S
C2940 C2941 1.327 . S
C2941 H2935 0.950 . S
C2941 C2940 1.327 . S
C2941 C2945 1.429 . S
C2942 C2925 1.574 . S
C2942 H2936 0.949 . S
C2942 C2946 1.368 . S
C2943 C2924 1.429 . S
C2943 C2937 1.429 . S
C2943 C2944 1.523 . S
C2944 C2925 1.368 . S
C2944 C2938 1.368 . S
C2944 C2943 1.523 . S
C2945 C2929 1.429 . S
C2945 C2941 1.429 . S
C2945 C2946 1.523 . S
C2946 C2930 1.368 . S
C2946 C2942 1.368 . S
C2946 C2945 1.523 . S
H2947 C2922 0.950 . S
H2948 C2924 0.950 . S
H2949 C2925 0.949 . S
H2950 C2927 0.950 . S
H2951 C2929 0.950 . S
C2952 C2953 1.349 . S
C2952 C2954 1.327 . S
C2952 H2977 0.950 . S
C2953 C2952 1.349 . S
C2953 C2969 1.349 . S
C2954 C2952 1.327 . S
C2954 C2973 1.429 . S
C2954 H2978 0.950 . S
C2955 C2972 1.574 . S
C2955 C2974 1.368 . S
C2955 H2979 0.949 . S
H2956 C2960 0.949 . S
C2957 C2958 1.349 . S
C2957 C2959 1.327 . S
C2957 H2980 0.950 . S
C2958 C2957 1.349 . S
C2958 C2970 1.349 . S
C2959 C2957 1.327 . S
C2959 C2975 1.429 . S
C2959 H2981 0.950 . S
C2960 H2956 0.949 . S
C2960 C2968 1.574 . S
C2960 C2976 1.368 . S
H2961 C2969 0.950 . S
H2962 C2967 0.950 . S
H2963 C2968 0.949 . S
H2964 C2970 0.950 . S
H2965 C2971 0.950 . S
H2966 C2972 0.949 . S
C2967 H2962 0.950 . S
C2967 C2969 1.327 . S
C2967 C2973 1.429 . S
C2968 C2960 1.574 . S
C2968 H2963 0.949 . S
C2968 C2974 1.368 . S
C2969 C2953 1.349 . S
C2969 H2961 0.950 . S
C2969 C2967 1.327 . S
C2970 C2958 1.349 . S
C2970 H2964 0.950 . S
C2970 C2971 1.327 . S
C2971 H2965 0.950 . S
C2971 C2970 1.327 . S
C2971 C2975 1.429 . S
C2972 C2955 1.574 . S
C2972 H2966 0.949 . S
C2972 C2976 1.368 . S
C2973 C2954 1.429 . S
C2973 C2967 1.429 . S
C2973 C2974 1.523 . S
C2974 C2955 1.368 . S
C2974 C2968 1.368 . S
C2974 C2973 1.523 . S
C2975 C2959 1.429 . S
C2975 C2971 1.429 . S
C2975 C2976 1.523 . S
C2976 C2960 1.368 . S
C2976 C2972 1.368 . S
C2976 C2975 1.523 . S
H2977 C2952 0.950 . S
H2978 C2954 0.950 . S
H2979 C2955 0.949 . S
H2980 C2957 0.950 . S
H2981 C2959 0.950 . S
C2982 C2983 1.349 . S
C2982 C2984 1.327 . S
C2982 H3007 0.950 . S
C2983 C2982 1.349 . S
C2983 C2999 1.349 . S
C2984 C2982 1.327 . S
C2984 C3003 1.429 . S
C2984 H3008 0.950 . S
C2985 C3002 1.574 . S
C2985 C3004 1.368 . S
C2985 H3009 0.949 . S
H2986 C2990 0.949 . S
C2987 C2988 1.349 . S
C2987 C2989 1.327 . S
C2987 H3010 0.950 . S
C2988 C2987 1.349 . S
C2988 C3000 1.349 . S
C2989 C2987 1.327 . S
C2989 C3005 1.429 . S
C2989 H3011 0.950 . S
C2990 H2986 0.949 . S
C2990 C2998 1.574 . S
C2990 C3006 1.368 . S
H2991 C2999 0.950 . S
H2992 C2997 0.950 . S
H2993 C2998 0.949 . S
H2994 C3000 0.950 . S
H2995 C3001 0.950 . S
H2996 C3002 0.949 . S
C2997 H2992 0.950 . S
C2997 C2999 1.327 . S
C2997 C3003 1.429 . S
C2998 C2990 1.574 . S
C2998 H2993 0.949 . S
C2998 C3004 1.368 . S
C2999 C2983 1.349 . S
C2999 H2991 0.950 . S
C2999 C2997 1.327 . S
C3000 C2988 1.349 . S
C3000 H2994 0.950 . S
C3000 C3001 1.327 . S
C3001 H2995 0.950 . S
C3001 C3000 1.327 . S
C3001 C3005 1.429 . S
C3002 C2985 1.574 . S
C3002 H2996 0.949 . S
C3002 C3006 1.368 . S
C3003 C2984 1.429 . S
C3003 C2997 1.429 . S
C3003 C3004 1.523 . S
C3004 C2985 1.368 . S
C3004 C2998 1.368 . S
C3004 C3003 1.523 . S
C3005 C2989 1.429 . S
C3005 C3001 1.429 . S
C3005 C3006 1.523 . S
C3006 C2990 1.368 . S
C3006 C3002 1.368 . S
C3006 C3005 1.523 . S
H3007 C2982 0.950 . S
H3008 C2984 0.950 . S
H3009 C2985 0.949 . S
H3010 C2987 0.950 . S
H3011 C2989 0.950 . S
C3012 C3013 1.349 . S
C3012 C3014 1.327 . S
C3012 H3037 0.950 . S
C3013 C3012 1.349 . S
C3013 C3029 1.349 . S
C3014 C3012 1.327 . S
C3014 C3033 1.429 . S
C3014 H3038 0.950 . S
C3015 C3032 1.574 . S
C3015 C3034 1.368 . S
C3015 H3039 0.949 . S
H3016 C3020 0.949 . S
C3017 C3018 1.349 . S
C3017 C3019 1.327 . S
C3017 H3040 0.950 . S
C3018 C3017 1.349 . S
C3018 C3030 1.349 . S
C3019 C3017 1.327 . S
C3019 C3035 1.429 . S
C3019 H3041 0.950 . S
C3020 H3016 0.949 . S
C3020 C3028 1.574 . S
C3020 C3036 1.368 . S
H3021 C3029 0.950 . S
H3022 C3027 0.950 . S
H3023 C3028 0.949 . S
H3024 C3030 0.950 . S
H3025 C3031 0.950 . S
H3026 C3032 0.949 . S
C3027 H3022 0.950 . S
C3027 C3029 1.327 . S
C3027 C3033 1.429 . S
C3028 C3020 1.574 . S
C3028 H3023 0.949 . S
C3028 C3034 1.368 . S
C3029 C3013 1.349 . S
C3029 H3021 0.950 . S
C3029 C3027 1.327 . S
C3030 C3018 1.349 . S
C3030 H3024 0.950 . S
C3030 C3031 1.327 . S
C3031 H3025 0.950 . S
C3031 C3030 1.327 . S
C3031 C3035 1.429 . S
C3032 C3015 1.574 . S
C3032 H3026 0.949 . S
C3032 C3036 1.368 . S
C3033 C3014 1.429 . S
C3033 C3027 1.429 . S
C3033 C3034 1.523 . S
C3034 C3015 1.368 . S
C3034 C3028 1.368 . S
C3034 C3033 1.523 . S
C3035 C3019 1.429 . S
C3035 C3031 1.429 . S
C3035 C3036 1.523 . S
C3036 C3020 1.368 . S
C3036 C3032 1.368 . S
C3036 C3035 1.523 . S
H3037 C3012 0.950 . S
H3038 C3014 0.950 . S
H3039 C3015 0.949 . S
H3040 C3017 0.950 . S
H3041 C3019 0.950 . S
C3042 C3043 1.349 . S
C3042 C3044 1.327 . S
C3042 H3067 0.950 . S
C3043 C3042 1.349 . S
C3043 C3059 1.349 . S
C3044 C3042 1.327 . S
C3044 C3063 1.429 . S
C3044 H3068 0.950 . S
C3045 C3062 1.574 . S
C3045 C3064 1.368 . S
C3045 H3069 0.949 . S
H3046 C3050 0.949 . S
C3047 C3048 1.349 . S
C3047 C3049 1.327 . S
C3047 H3070 0.950 . S
C3048 C3047 1.349 . S
C3048 C3060 1.349 . S
C3049 C3047 1.327 . S
C3049 C3065 1.429 . S
C3049 H3071 0.950 . S
C3050 H3046 0.949 . S
C3050 C3058 1.574 . S
C3050 C3066 1.368 . S
H3051 C3059 0.950 . S
H3052 C3057 0.950 . S
H3053 C3058 0.949 . S
H3054 C3060 0.950 . S
H3055 C3061 0.950 . S
H3056 C3062 0.949 . S
C3057 H3052 0.950 . S
C3057 C3059 1.327 . S
C3057 C3063 1.429 . S
C3058 C3050 1.574 . S
C3058 H3053 0.949 . S
C3058 C3064 1.368 . S
C3059 C3043 1.349 . S
C3059 H3051 0.950 . S
C3059 C3057 1.327 . S
C3060 C3048 1.349 . S
C3060 H3054 0.950 . S
C3060 C3061 1.327 . S
C3061 H3055 0.950 . S
C3061 C3060 1.327 . S
C3061 C3065 1.429 . S
C3062 C3045 1.574 . S
C3062 H3056 0.949 . S
C3062 C3066 1.368 . S
C3063 C3044 1.429 . S
C3063 C3057 1.429 . S
C3063 C3064 1.523 . S
C3064 C3045 1.368 . S
C3064 C3058 1.368 . S
C3064 C3063 1.523 . S
C3065 C3049 1.429 . S
C3065 C3061 1.429 . S
C3065 C3066 1.523 . S
C3066 C3050 1.368 . S
C3066 C3062 1.368 . S
C3066 C3065 1.523 . S
H3067 C3042 0.950 . S
H3068 C3044 0.950 . S
H3069 C3045 0.949 . S
H3070 C3047 0.950 . S
H3071 C3049 0.950 . S
C3072 C3073 1.349 . S
C3072 C3074 1.327 . S
C3072 H3097 0.950 . S
C3073 C3072 1.349 . S
C3073 C3089 1.349 . S
C3074 C3072 1.327 . S
C3074 C3093 1.429 . S
C3074 H3098 0.950 . S
C3075 C3092 1.574 . S
C3075 C3094 1.368 . S
C3075 H3099 0.949 . S
H3076 C3080 0.949 . S
C3077 C3078 1.349 . S
C3077 C3079 1.327 . S
C3077 H3100 0.950 . S
C3078 C3077 1.349 . S
C3078 C3090 1.349 . S
C3079 C3077 1.327 . S
C3079 C3095 1.429 . S
C3079 H3101 0.950 . S
C3080 H3076 0.949 . S
C3080 C3088 1.574 . S
C3080 C3096 1.368 . S
H3081 C3089 0.950 . S
H3082 C3087 0.950 . S
H3083 C3088 0.949 . S
H3084 C3090 0.950 . S
H3085 C3091 0.950 . S
H3086 C3092 0.949 . S
C3087 H3082 0.950 . S
C3087 C3089 1.327 . S
C3087 C3093 1.429 . S
C3088 C3080 1.574 . S
C3088 H3083 0.949 . S
C3088 C3094 1.368 . S
C3089 C3073 1.349 . S
C3089 H3081 0.950 . S
C3089 C3087 1.327 . S
C3090 C3078 1.349 . S
C3090 H3084 0.950 . S
C3090 C3091 1.327 . S
C3091 H3085 0.950 . S
C3091 C3090 1.327 . S
C3091 C3095 1.429 . S
C3092 C3075 1.574 . S
C3092 H3086 0.949 . S
C3092 C3096 1.368 . S
C3093 C3074 1.429 . S
C3093 C3087 1.429 . S
C3093 C3094 1.523 . S
C3094 C3075 1.368 . S
C3094 C3088 1.368 . S
C3094 C3093 1.523 . S
C3095 C3079 1.429 . S
C3095 C3091 1.429 . S
C3095 C3096 1.523 . S
C3096 C3080 1.368 . S
C3096 C3092 1.368 . S
C3096 C3095 1.523 . S
H3097 C3072 0.950 . S
H3098 C3074 0.950 . S
H3099 C3075 0.949 . S
H3100 C3077 0.950 . S
H3101 C3079 0.950 . S
C3102 C3103 1.349 . S
C3102 C3104 1.327 . S
C3102 H3127 0.950 . S
C3103 C3102 1.349 . S
C3103 C3119 1.349 . S
C3104 C3102 1.327 . S
C3104 C3123 1.429 . S
C3104 H3128 0.950 . S
C3105 C3122 1.574 . S
C3105 C3124 1.368 . S
C3105 H3129 0.949 . S
H3106 C3110 0.949 . S
C3107 C3108 1.349 . S
C3107 C3109 1.327 . S
C3107 H3130 0.950 . S
C3108 C3107 1.349 . S
C3108 C3120 1.349 . S
C3109 C3107 1.327 . S
C3109 C3125 1.429 . S
C3109 H3131 0.950 . S
C3110 H3106 0.949 . S
C3110 C3118 1.574 . S
C3110 C3126 1.368 . S
H3111 C3119 0.950 . S
H3112 C3117 0.950 . S
H3113 C3118 0.949 . S
H3114 C3120 0.950 . S
H3115 C3121 0.950 . S
H3116 C3122 0.949 . S
C3117 H3112 0.950 . S
C3117 C3119 1.327 . S
C3117 C3123 1.429 . S
C3118 C3110 1.574 . S
C3118 H3113 0.949 . S
C3118 C3124 1.368 . S
C3119 C3103 1.349 . S
C3119 H3111 0.950 . S
C3119 C3117 1.327 . S
C3120 C3108 1.349 . S
C3120 H3114 0.950 . S
C3120 C3121 1.327 . S
C3121 H3115 0.950 . S
C3121 C3120 1.327 . S
C3121 C3125 1.429 . S
C3122 C3105 1.574 . S
C3122 H3116 0.949 . S
C3122 C3126 1.368 . S
C3123 C3104 1.429 . S
C3123 C3117 1.429 . S
C3123 C3124 1.523 . S
C3124 C3105 1.368 . S
C3124 C3118 1.368 . S
C3124 C3123 1.523 . S
C3125 C3109 1.429 . S
C3125 C3121 1.429 . S
C3125 C3126 1.523 . S
C3126 C3110 1.368 . S
C3126 C3122 1.368 . S
C3126 C3125 1.523 . S
H3127 C3102 0.950 . S
H3128 C3104 0.950 . S
H3129 C3105 0.949 . S
H3130 C3107 0.950 . S
H3131 C3109 0.950 . S
C3132 C3133 1.349 . S
C3132 C3134 1.327 . S
C3132 H3157 0.950 . S
C3133 C3132 1.349 . S
C3133 C3149 1.349 . S
C3134 C3132 1.327 . S
C3134 C3153 1.429 . S
C3134 H3158 0.950 . S
C3135 C3152 1.574 . S
C3135 C3154 1.368 . S
C3135 H3159 0.949 . S
H3136 C3140 0.949 . S
C3137 C3138 1.349 . S
C3137 C3139 1.327 . S
C3137 H3160 0.950 . S
C3138 C3137 1.349 . S
C3138 C3150 1.349 . S
C3139 C3137 1.327 . S
C3139 C3155 1.429 . S
C3139 H3161 0.950 . S
C3140 H3136 0.949 . S
C3140 C3148 1.574 . S
C3140 C3156 1.368 . S
H3141 C3149 0.950 . S
H3142 C3147 0.950 . S
H3143 C3148 0.949 . S
H3144 C3150 0.950 . S
H3145 C3151 0.950 . S
H3146 C3152 0.949 . S
C3147 H3142 0.950 . S
C3147 C3149 1.327 . S
C3147 C3153 1.429 . S
C3148 C3140 1.574 . S
C3148 H3143 0.949 . S
C3148 C3154 1.368 . S
C3149 C3133 1.349 . S
C3149 H3141 0.950 . S
C3149 C3147 1.327 . S
C3150 C3138 1.349 . S
C3150 H3144 0.950 . S
C3150 C3151 1.327 . S
C3151 H3145 0.950 . S
C3151 C3150 1.327 . S
C3151 C3155 1.429 . S
C3152 C3135 1.574 . S
C3152 H3146 0.949 . S
C3152 C3156 1.368 . S
C3153 C3134 1.429 . S
C3153 C3147 1.429 . S
C3153 C3154 1.523 . S
C3154 C3135 1.368 . S
C3154 C3148 1.368 . S
C3154 C3153 1.523 . S
C3155 C3139 1.429 . S
C3155 C3151 1.429 . S
C3155 C3156 1.523 . S
C3156 C3140 1.368 . S
C3156 C3152 1.368 . S
C3156 C3155 1.523 . S
H3157 C3132 0.950 . S
H3158 C3134 0.950 . S
H3159 C3135 0.949 . S
H3160 C3137 0.950 . S
H3161 C3139 0.950 . S
C3162 C3163 1.349 . S
C3162 C3164 1.327 . S
C3162 H3187 0.950 . S
C3163 C3162 1.349 . S
C3163 C3179 1.349 . S
C3164 C3162 1.327 . S
C3164 C3183 1.429 . S
C3164 H3188 0.950 . S
C3165 C3182 1.574 . S
C3165 C3184 1.368 . S
C3165 H3189 0.949 . S
H3166 C3170 0.949 . S
C3167 C3168 1.349 . S
C3167 C3169 1.327 . S
C3167 H3190 0.950 . S
C3168 C3167 1.349 . S
C3168 C3180 1.349 . S
C3169 C3167 1.327 . S
C3169 C3185 1.429 . S
C3169 H3191 0.950 . S
C3170 H3166 0.949 . S
C3170 C3178 1.574 . S
C3170 C3186 1.368 . S
H3171 C3179 0.950 . S
H3172 C3177 0.950 . S
H3173 C3178 0.949 . S
H3174 C3180 0.950 . S
H3175 C3181 0.950 . S
H3176 C3182 0.949 . S
C3177 H3172 0.950 . S
C3177 C3179 1.327 . S
C3177 C3183 1.429 . S
C3178 C3170 1.574 . S
C3178 H3173 0.949 . S
C3178 C3184 1.368 . S
C3179 C3163 1.349 . S
C3179 H3171 0.950 . S
C3179 C3177 1.327 . S
C3180 C3168 1.349 . S
C3180 H3174 0.950 . S
C3180 C3181 1.327 . S
C3181 H3175 0.950 . S
C3181 C3180 1.327 . S
C3181 C3185 1.429 . S
C3182 C3165 1.574 . S
C3182 H3176 0.949 . S
C3182 C3186 1.368 . S
C3183 C3164 1.429 . S
C3183 C3177 1.429 . S
C3183 C3184 1.523 . S
C3184 C3165 1.368 . S
C3184 C3178 1.368 . S
C3184 C3183 1.523 . S
C3185 C3169 1.429 . S
C3185 C3181 1.429 . S
C3185 C3186 1.523 . S
C3186 C3170 1.368 . S
C3186 C3182 1.368 . S
C3186 C3185 1.523 . S
H3187 C3162 0.950 . S
H3188 C3164 0.950 . S
H3189 C3165 0.949 . S
H3190 C3167 0.950 . S
H3191 C3169 0.950 . S
C3192 C3193 1.349 . S
C3192 C3194 1.327 . S
C3192 H3217 0.950 . S
C3193 C3192 1.349 . S
C3193 C3209 1.349 . S
C3194 C3192 1.327 . S
C3194 C3213 1.429 . S
C3194 H3218 0.950 . S
C3195 C3212 1.574 . S
C3195 C3214 1.368 . S
C3195 H3219 0.949 . S
H3196 C3200 0.949 . S
C3197 C3198 1.349 . S
C3197 C3199 1.327 . S
C3197 H3220 0.950 . S
C3198 C3197 1.349 . S
C3198 C3210 1.349 . S
C3199 C3197 1.327 . S
C3199 C3215 1.429 . S
C3199 H3221 0.950 . S
C3200 H3196 0.949 . S
C3200 C3208 1.574 . S
C3200 C3216 1.368 . S
H3201 C3209 0.950 . S
H3202 C3207 0.950 . S
H3203 C3208 0.949 . S
H3204 C3210 0.950 . S
H3205 C3211 0.950 . S
H3206 C3212 0.949 . S
C3207 H3202 0.950 . S
C3207 C3209 1.327 . S
C3207 C3213 1.429 . S
C3208 C3200 1.574 . S
C3208 H3203 0.949 . S
C3208 C3214 1.368 . S
C3209 C3193 1.349 . S
C3209 H3201 0.950 . S
C3209 C3207 1.327 . S
C3210 C3198 1.349 . S
C3210 H3204 0.950 . S
C3210 C3211 1.327 . S
C3211 H3205 0.950 . S
C3211 C3210 1.327 . S
C3211 C3215 1.429 . S
C3212 C3195 1.574 . S
C3212 H3206 0.949 . S
C3212 C3216 1.368 . S
C3213 C3194 1.429 . S
C3213 C3207 1.429 . S
C3213 C3214 1.523 . S
C3214 C3195 1.368 . S
C3214 C3208 1.368 . S
C3214 C3213 1.523 . S
C3215 C3199 1.429 . S
C3215 C3211 1.429 . S
C3215 C3216 1.523 . S
C3216 C3200 1.368 . S
C3216 C3212 1.368 . S
C3216 C3215 1.523 . S
H3217 C3192 0.950 . S
H3218 C3194 0.950 . S
H3219 C3195 0.949 . S
H3220 C3197 0.950 . S
H3221 C3199 0.950 . S
C3222 C3223 1.349 . S
C3222 C3224 1.327 . S
C3222 H3247 0.950 . S
C3223 C3222 1.349 . S
C3223 C3239 1.349 . S
C3224 C3222 1.327 . S
C3224 C3243 1.429 . S
C3224 H3248 0.950 . S
C3225 C3242 1.574 . S
C3225 C3244 1.368 . S
C3225 H3249 0.949 . S
H3226 C3230 0.949 . S
C3227 C3228 1.349 . S
C3227 C3229 1.327 . S
C3227 H3250 0.950 . S
C3228 C3227 1.349 . S
C3228 C3240 1.349 . S
C3229 C3227 1.327 . S
C3229 C3245 1.429 . S
C3229 H3251 0.950 . S
C3230 H3226 0.949 . S
C3230 C3238 1.574 . S
C3230 C3246 1.368 . S
H3231 C3239 0.950 . S
H3232 C3237 0.950 . S
H3233 C3238 0.949 . S
H3234 C3240 0.950 . S
H3235 C3241 0.950 . S
H3236 C3242 0.949 . S
C3237 H3232 0.950 . S
C3237 C3239 1.327 . S
C3237 C3243 1.429 . S
C3238 C3230 1.574 . S
C3238 H3233 0.949 . S
C3238 C3244 1.368 . S
C3239 C3223 1.349 . S
C3239 H3231 0.950 . S
C3239 C3237 1.327 . S
C3240 C3228 1.349 . S
C3240 H3234 0.950 . S
C3240 C3241 1.327 . S
C3241 H3235 0.950 . S
C3241 C3240 1.327 . S
C3241 C3245 1.429 . S
C3242 C3225 1.574 . S
C3242 H3236 0.949 . S
C3242 C3246 1.368 . S
C3243 C3224 1.429 . S
C3243 C3237 1.429 . S
C3243 C3244 1.523 . S
C3244 C3225 1.368 . S
C3244 C3238 1.368 . S
C3244 C3243 1.523 . S
C3245 C3229 1.429 . S
C3245 C3241 1.429 . S
C3245 C3246 1.523 . S
C3246 C3230 1.368 . S
C3246 C3242 1.368 . S
C3246 C3245 1.523 . S
H3247 C3222 0.950 . S
H3248 C3224 0.950 . S
H3249 C3225 0.949 . S
H3250 C3227 0.950 . S
H3251 C3229 0.950 . S
C3252 C3253 1.349 . S
C3252 C3254 1.327 . S
C3252 H3277 0.950 . S
C3253 C3252 1.349 . S
C3253 C3269 1.349 . S
C3254 C3252 1.327 . S
C3254 C3273 1.429 . S
C3254 H3278 0.950 . S
C3255 C3272 1.574 . S
C3255 C3274 1.368 . S
C3255 H3279 0.949 . S
H3256 C3260 0.949 . S
C3257 C3258 1.349 . S
C3257 C3259 1.327 . S
C3257 H3280 0.950 . S
C3258 C3257 1.349 . S
C3258 C3270 1.349 . S
C3259 C3257 1.327 . S
C3259 C3275 1.429 . S
C3259 H3281 0.950 . S
C3260 H3256 0.949 . S
C3260 C3268 1.574 . S
C3260 C3276 1.368 . S
H3261 C3269 0.950 . S
H3262 C3267 0.950 . S
H3263 C3268 0.949 . S
H3264 C3270 0.950 . S
H3265 C3271 0.950 . S
H3266 C3272 0.949 . S
C3267 H3262 0.950 . S
C3267 C3269 1.327 . S
C3267 C3273 1.429 . S
C3268 C3260 1.574 . S
C3268 H3263 0.949 . S
C3268 C3274 1.368 . S
C3269 C3253 1.349 . S
C3269 H3261 0.950 . S
C3269 C3267 1.327 . S
C3270 C3258 1.349 . S
C3270 H3264 0.950 . S
C3270 C3271 1.327 . S
C3271 H3265 0.950 . S
C3271 C3270 1.327 . S
C3271 C3275 1.429 . S
C3272 C3255 1.574 . S
C3272 H3266 0.949 . S
C3272 C3276 1.368 . S
C3273 C3254 1.429 . S
C3273 C3267 1.429 . S
C3273 C3274 1.523 . S
C3274 C3255 1.368 . S
C3274 C3268 1.368 . S
C3274 C3273 1.523 . S
C3275 C3259 1.429 . S
C3275 C3271 1.429 . S
C3275 C3276 1.523 . S
C3276 C3260 1.368 . S
C3276 C3272 1.368 . S
C3276 C3275 1.523 . S
H3277 C3252 0.950 . S
H3278 C3254 0.950 . S
H3279 C3255 0.949 . S
H3280 C3257 0.950 . S
H3281 C3259 0.950 . S
C3282 C3283 1.349 . S
C3282 C3284 1.327 . S
C3282 H3307 0.950 . S
C3283 C3282 1.349 . S
C3283 C3299 1.349 . S
C3284 C3282 1.327 . S
C3284 C3303 1.429 . S
C3284 H3308 0.950 . S
C3285 C3302 1.574 . S
C3285 C3304 1.368 . S
C3285 H3309 0.949 . S
H3286 C3290 0.949 . S
C3287 C3288 1.349 . S
C3287 C3289 1.327 . S
C3287 H3310 0.950 . S
C3288 C3287 1.349 . S
C3288 C3300 1.349 . S
C3289 C3287 1.327 . S
C3289 C3305 1.429 . S
C3289 H3311 0.950 . S
C3290 H3286 0.949 . S
C3290 C3298 1.574 . S
C3290 C3306 1.368 . S
H3291 C3299 0.950 . S
H3292 C3297 0.950 . S
H3293 C3298 0.949 . S
H3294 C3300 0.950 . S
H3295 C3301 0.950 . S
H3296 C3302 0.949 . S
C3297 H3292 0.950 . S
C3297 C3299 1.327 . S
C3297 C3303 1.429 . S
C3298 C3290 1.574 . S
C3298 H3293 0.949 . S
C3298 C3304 1.368 . S
C3299 C3283 1.349 . S
C3299 H3291 0.950 . S
C3299 C3297 1.327 . S
C3300 C3288 1.349 . S
C3300 H3294 0.950 . S
C3300 C3301 1.327 . S
C3301 H3295 0.950 . S
C3301 C3300 1.327 . S
C3301 C3305 1.429 . S
C3302 C3285 1.574 . S
C3302 H3296 0.949 . S
C3302 C3306 1.368 . S
C3303 C3284 1.429 . S
C3303 C3297 1.429 . S
C3303 C3304 1.523 . S
C3304 C3285 1.368 . S
C3304 C3298 1.368 . S
C3304 C3303 1.523 . S
C3305 C3289 1.429 . S
C3305 C3301 1.429 . S
C3305 C3306 1.523 . S
C3306 C3290 1.368 . S
C3306 C3302 1.368 . S
C3306 C3305 1.523 . S
H3307 C3282 0.950 . S
H3308 C3284 0.950 . S
H3309 C3285 0.949 . S
H3310 C3287 0.950 . S
H3311 C3289 0.950 . S
C3312 C3313 1.349 . S
C3312 C3314 1.327 . S
C3312 H3337 0.950 . S
C3313 C3312 1.349 . S
C3313 C3329 1.349 . S
C3314 C3312 1.327 . S
C3314 C3333 1.429 . S
C3314 H3338 0.950 . S
C3315 C3332 1.574 . S
C3315 C3334 1.368 . S
C3315 H3339 0.949 . S
H3316 C3320 0.949 . S
C3317 C3318 1.349 . S
C3317 C3319 1.327 . S
C3317 H3340 0.950 . S
C3318 C3317 1.349 . S
C3318 C3330 1.349 . S
C3319 C3317 1.327 . S
C3319 C3335 1.429 . S
C3319 H3341 0.950 . S
C3320 H3316 0.949 . S
C3320 C3328 1.574 . S
C3320 C3336 1.368 . S
H3321 C3329 0.950 . S
H3322 C3327 0.950 . S
H3323 C3328 0.949 . S
H3324 C3330 0.950 . S
H3325 C3331 0.950 . S
H3326 C3332 0.949 . S
C3327 H3322 0.950 . S
C3327 C3329 1.327 . S
C3327 C3333 1.429 . S
C3328 C3320 1.574 . S
C3328 H3323 0.949 . S
C3328 C3334 1.368 . S
C3329 C3313 1.349 . S
C3329 H3321 0.950 . S
C3329 C3327 1.327 . S
C3330 C3318 1.349 . S
C3330 H3324 0.950 . S
C3330 C3331 1.327 . S
C3331 H3325 0.950 . S
C3331 C3330 1.327 . S
C3331 C3335 1.429 . S
C3332 C3315 1.574 . S
C3332 H3326 0.949 . S
C3332 C3336 1.368 . S
C3333 C3314 1.429 . S
C3333 C3327 1.429 . S
C3333 C3334 1.523 . S
C3334 C3315 1.368 . S
C3334 C3328 1.368 . S
C3334 C3333 1.523 . S
C3335 C3319 1.429 . S
C3335 C3331 1.429 . S
C3335 C3336 1.523 . S
C3336 C3320 1.368 . S
C3336 C3332 1.368 . S
C3336 C3335 1.523 . S
H3337 C3312 0.950 . S
H3338 C3314 0.950 . S
H3339 C3315 0.949 . S
H3340 C3317 0.950 . S
H3341 C3319 0.950 . S
C3342 C3343 1.349 . S
C3342 C3344 1.327 . S
C3342 H3367 0.950 . S
C3343 C3342 1.349 . S
C3343 C3359 1.349 . S
C3344 C3342 1.327 . S
C3344 C3363 1.429 . S
C3344 H3368 0.950 . S
C3345 C3362 1.574 . S
C3345 C3364 1.368 . S
C3345 H3369 0.949 . S
H3346 C3350 0.949 . S
C3347 C3348 1.349 . S
C3347 C3349 1.327 . S
C3347 H3370 0.950 . S
C3348 C3347 1.349 . S
C3348 C3360 1.349 . S
C3349 C3347 1.327 . S
C3349 C3365 1.429 . S
C3349 H3371 0.950 . S
C3350 H3346 0.949 . S
C3350 C3358 1.574 . S
C3350 C3366 1.368 . S
H3351 C3359 0.950 . S
H3352 C3357 0.950 . S
H3353 C3358 0.949 . S
H3354 C3360 0.950 . S
H3355 C3361 0.950 . S
H3356 C3362 0.949 . S
C3357 H3352 0.950 . S
C3357 C3359 1.327 . S
C3357 C3363 1.429 . S
C3358 C3350 1.574 . S
C3358 H3353 0.949 . S
C3358 C3364 1.368 . S
C3359 C3343 1.349 . S
C3359 H3351 0.950 . S
C3359 C3357 1.327 . S
C3360 C3348 1.349 . S
C3360 H3354 0.950 . S
C3360 C3361 1.327 . S
C3361 H3355 0.950 . S
C3361 C3360 1.327 . S
C3361 C3365 1.429 . S
C3362 C3345 1.574 . S
C3362 H3356 0.949 . S
C3362 C3366 1.368 . S
C3363 C3344 1.429 . S
C3363 C3357 1.429 . S
C3363 C3364 1.523 . S
C3364 C3345 1.368 . S
C3364 C3358 1.368 . S
C3364 C3363 1.523 . S
C3365 C3349 1.429 . S
C3365 C3361 1.429 . S
C3365 C3366 1.523 . S
C3366 C3350 1.368 . S
C3366 C3362 1.368 . S
C3366 C3365 1.523 . S
H3367 C3342 0.950 . S
H3368 C3344 0.950 . S
H3369 C3345 0.949 . S
H3370 C3347 0.950 . S
H3371 C3349 0.950 . S
C3372 C3373 1.349 . S
C3372 C3374 1.327 . S
C3372 H3397 0.950 . S
C3373 C3372 1.349 . S
C3373 C3389 1.349 . S
C3374 C3372 1.327 . S
C3374 C3393 1.429 . S
C3374 H3398 0.950 . S
C3375 C3392 1.574 . S
C3375 C3394 1.368 . S
C3375 H3399 0.949 . S
H3376 C3380 0.949 . S
C3377 C3378 1.349 . S
C3377 C3379 1.327 . S
C3377 H3400 0.950 . S
C3378 C3377 1.349 . S
C3378 C3390 1.349 . S
C3379 C3377 1.327 . S
C3379 C3395 1.429 . S
C3379 H3401 0.950 . S
C3380 H3376 0.949 . S
C3380 C3388 1.574 . S
C3380 C3396 1.368 . S
H3381 C3389 0.950 . S
H3382 C3387 0.950 . S
H3383 C3388 0.949 . S
H3384 C3390 0.950 . S
H3385 C3391 0.950 . S
H3386 C3392 0.949 . S
C3387 H3382 0.950 . S
C3387 C3389 1.327 . S
C3387 C3393 1.429 . S
C3388 C3380 1.574 . S
C3388 H3383 0.949 . S
C3388 C3394 1.368 . S
C3389 C3373 1.349 . S
C3389 H3381 0.950 . S
C3389 C3387 1.327 . S
C3390 C3378 1.349 . S
C3390 H3384 0.950 . S
C3390 C3391 1.327 . S
C3391 H3385 0.950 . S
C3391 C3390 1.327 . S
C3391 C3395 1.429 . S
C3392 C3375 1.574 . S
C3392 H3386 0.949 . S
C3392 C3396 1.368 . S
C3393 C3374 1.429 . S
C3393 C3387 1.429 . S
C3393 C3394 1.523 . S
C3394 C3375 1.368 . S
C3394 C3388 1.368 . S
C3394 C3393 1.523 . S
C3395 C3379 1.429 . S
C3395 C3391 1.429 . S
C3395 C3396 1.523 . S
C3396 C3380 1.368 . S
C3396 C3392 1.368 . S
C3396 C3395 1.523 . S
H3397 C3372 0.950 . S
H3398 C3374 0.950 . S
H3399 C3375 0.949 . S
H3400 C3377 0.950 . S
H3401 C3379 0.950 . S
C3402 C3403 1.349 . S
C3402 C3404 1.327 . S
C3402 H3427 0.950 . S
C3403 C3402 1.349 . S
C3403 C3419 1.349 . S
C3404 C3402 1.327 . S
C3404 C3423 1.429 . S
C3404 H3428 0.950 . S
C3405 C3422 1.574 . S
C3405 C3424 1.368 . S
C3405 H3429 0.949 . S
H3406 C3410 0.949 . S
C3407 C3408 1.349 . S
C3407 C3409 1.327 . S
C3407 H3430 0.950 . S
C3408 C3407 1.349 . S
C3408 C3420 1.349 . S
C3409 C3407 1.327 . S
C3409 C3425 1.429 . S
C3409 H3431 0.950 . S
C3410 H3406 0.949 . S
C3410 C3418 1.574 . S
C3410 C3426 1.368 . S
H3411 C3419 0.950 . S
H3412 C3417 0.950 . S
H3413 C3418 0.949 . S
H3414 C3420 0.950 . S
H3415 C3421 0.950 . S
H3416 C3422 0.949 . S
C3417 H3412 0.950 . S
C3417 C3419 1.327 . S
C3417 C3423 1.429 . S
C3418 C3410 1.574 . S
C3418 H3413 0.949 . S
C3418 C3424 1.368 . S
C3419 C3403 1.349 . S
C3419 H3411 0.950 . S
C3419 C3417 1.327 . S
C3420 C3408 1.349 . S
C3420 H3414 0.950 . S
C3420 C3421 1.327 . S
C3421 H3415 0.950 . S
C3421 C3420 1.327 . S
C3421 C3425 1.429 . S
C3422 C3405 1.574 . S
C3422 H3416 0.949 . S
C3422 C3426 1.368 . S
C3423 C3404 1.429 . S
C3423 C3417 1.429 . S
C3423 C3424 1.523 . S
C3424 C3405 1.368 . S
C3424 C3418 1.368 . S
C3424 C3423 1.523 . S
C3425 C3409 1.429 . S
C3425 C3421 1.429 . S
C3425 C3426 1.523 . S
C3426 C3410 1.368 . S
C3426 C3422 1.368 . S
C3426 C3425 1.523 . S
H3427 C3402 0.950 . S
H3428 C3404 0.950 . S
H3429 C3405 0.949 . S
H3430 C3407 0.950 . S
H3431 C3409 0.950 . S
C3432 C3433 1.349 . S
C3432 C3434 1.327 . S
C3432 H3457 0.950 . S
C3433 C3432 1.349 . S
C3433 C3449 1.349 . S
C3434 C3432 1.327 . S
C3434 C3453 1.429 . S
C3434 H3458 0.950 . S
C3435 C3452 1.574 . S
C3435 C3454 1.368 . S
C3435 H3459 0.949 . S
H3436 C3440 0.949 . S
C3437 C3438 1.349 . S
C3437 C3439 1.327 . S
C3437 H3460 0.950 . S
C3438 C3437 1.349 . S
C3438 C3450 1.349 . S
C3439 C3437 1.327 . S
C3439 C3455 1.429 . S
C3439 H3461 0.950 . S
C3440 H3436 0.949 . S
C3440 C3448 1.574 . S
C3440 C3456 1.368 . S
H3441 C3449 0.950 . S
H3442 C3447 0.950 . S
H3443 C3448 0.949 . S
H3444 C3450 0.950 . S
H3445 C3451 0.950 . S
H3446 C3452 0.949 . S
C3447 H3442 0.950 . S
C3447 C3449 1.327 . S
C3447 C3453 1.429 . S
C3448 C3440 1.574 . S
C3448 H3443 0.949 . S
C3448 C3454 1.368 . S
C3449 C3433 1.349 . S
C3449 H3441 0.950 . S
C3449 C3447 1.327 . S
C3450 C3438 1.349 . S
C3450 H3444 0.950 . S
C3450 C3451 1.327 . S
C3451 H3445 0.950 . S
C3451 C3450 1.327 . S
C3451 C3455 1.429 . S
C3452 C3435 1.574 . S
C3452 H3446 0.949 . S
C3452 C3456 1.368 . S
C3453 C3434 1.429 . S
C3453 C3447 1.429 . S
C3453 C3454 1.523 . S
C3454 C3435 1.368 . S
C3454 C3448 1.368 . S
C3454 C3453 1.523 . S
C3455 C3439 1.429 . S
C3455 C3451 1.429 . S
C3455 C3456 1.523 . S
C3456 C3440 1.368 . S
C3456 C3452 1.368 . S
C3456 C3455 1.523 . S
H3457 C3432 0.950 . S
H3458 C3434 0.950 . S
H3459 C3435 0.949 . S
H3460 C3437 0.950 . S
H3461 C3439 0.950 . S
C3462 C3463 1.349 . S
C3462 C3464 1.327 . S
C3462 H3487 0.950 . S
C3463 C3462 1.349 . S
C3463 C3479 1.349 . S
C3464 C3462 1.327 . S
C3464 C3483 1.429 . S
C3464 H3488 0.950 . S
C3465 C3482 1.574 . S
C3465 C3484 1.368 . S
C3465 H3489 0.949 . S
H3466 C3470 0.949 . S
C3467 C3468 1.349 . S
C3467 C3469 1.327 . S
C3467 H3490 0.950 . S
C3468 C3467 1.349 . S
C3468 C3480 1.349 . S
C3469 C3467 1.327 . S
C3469 C3485 1.429 . S
C3469 H3491 0.950 . S
C3470 H3466 0.949 . S
C3470 C3478 1.574 . S
C3470 C3486 1.368 . S
H3471 C3479 0.950 . S
H3472 C3477 0.950 . S
H3473 C3478 0.949 . S
H3474 C3480 0.950 . S
H3475 C3481 0.950 . S
H3476 C3482 0.949 . S
C3477 H3472 0.950 . S
C3477 C3479 1.327 . S
C3477 C3483 1.429 . S
C3478 C3470 1.574 . S
C3478 H3473 0.949 . S
C3478 C3484 1.368 . S
C3479 C3463 1.349 . S
C3479 H3471 0.950 . S
C3479 C3477 1.327 . S
C3480 C3468 1.349 . S
C3480 H3474 0.950 . S
C3480 C3481 1.327 . S
C3481 H3475 0.950 . S
C3481 C3480 1.327 . S
C3481 C3485 1.429 . S
C3482 C3465 1.574 . S
C3482 H3476 0.949 . S
C3482 C3486 1.368 . S
C3483 C3464 1.429 . S
C3483 C3477 1.429 . S
C3483 C3484 1.523 . S
C3484 C3465 1.368 . S
C3484 C3478 1.368 . S
C3484 C3483 1.523 . S
C3485 C3469 1.429 . S
C3485 C3481 1.429 . S
C3485 C3486 1.523 . S
C3486 C3470 1.368 . S
C3486 C3482 1.368 . S
C3486 C3485 1.523 . S
H3487 C3462 0.950 . S
H3488 C3464 0.950 . S
H3489 C3465 0.949 . S
H3490 C3467 0.950 . S
H3491 C3469 0.950 . S
C3492 C3493 1.349 . S
C3492 C3494 1.327 . S
C3492 H3517 0.950 . S
C3493 C3492 1.349 . S
C3493 C3509 1.349 . S
C3494 C3492 1.327 . S
C3494 C3513 1.429 . S
C3494 H3518 0.950 . S
C3495 C3512 1.574 . S
C3495 C3514 1.368 . S
C3495 H3519 0.949 . S
H3496 C3500 0.949 . S
C3497 C3498 1.349 . S
C3497 C3499 1.327 . S
C3497 H3520 0.950 . S
C3498 C3497 1.349 . S
C3498 C3510 1.349 . S
C3499 C3497 1.327 . S
C3499 C3515 1.429 . S
C3499 H3521 0.950 . S
C3500 H3496 0.949 . S
C3500 C3508 1.574 . S
C3500 C3516 1.368 . S
H3501 C3509 0.950 . S
H3502 C3507 0.950 . S
H3503 C3508 0.949 . S
H3504 C3510 0.950 . S
H3505 C3511 0.950 . S
H3506 C3512 0.949 . S
C3507 H3502 0.950 . S
C3507 C3509 1.327 . S
C3507 C3513 1.429 . S
C3508 C3500 1.574 . S
C3508 H3503 0.949 . S
C3508 C3514 1.368 . S
C3509 C3493 1.349 . S
C3509 H3501 0.950 . S
C3509 C3507 1.327 . S
C3510 C3498 1.349 . S
C3510 H3504 0.950 . S
C3510 C3511 1.327 . S
C3511 H3505 0.950 . S
C3511 C3510 1.327 . S
C3511 C3515 1.429 . S
C3512 C3495 1.574 . S
C3512 H3506 0.949 . S
C3512 C3516 1.368 . S
C3513 C3494 1.429 . S
C3513 C3507 1.429 . S
C3513 C3514 1.523 . S
C3514 C3495 1.368 . S
C3514 C3508 1.368 . S
C3514 C3513 1.523 . S
C3515 C3499 1.429 . S
C3515 C3511 1.429 . S
C3515 C3516 1.523 . S
C3516 C3500 1.368 . S
C3516 C3512 1.368 . S
C3516 C3515 1.523 . S
H3517 C3492 0.950 . S
H3518 C3494 0.950 . S
H3519 C3495 0.949 . S
H3520 C3497 0.950 . S
H3521 C3499 0.950 . S
C3522 C3523 1.349 . S
C3522 C3524 1.327 . S
C3522 H3547 0.950 . S
C3523 C3522 1.349 . S
C3523 C3539 1.349 . S
C3524 C3522 1.327 . S
C3524 C3543 1.429 . S
C3524 H3548 0.950 . S
C3525 C3542 1.574 . S
C3525 C3544 1.368 . S
C3525 H3549 0.949 . S
H3526 C3530 0.949 . S
C3527 C3528 1.349 . S
C3527 C3529 1.327 . S
C3527 H3550 0.950 . S
C3528 C3527 1.349 . S
C3528 C3540 1.349 . S
C3529 C3527 1.327 . S
C3529 C3545 1.429 . S
C3529 H3551 0.950 . S
C3530 H3526 0.949 . S
C3530 C3538 1.574 . S
C3530 C3546 1.368 . S
H3531 C3539 0.950 . S
H3532 C3537 0.950 . S
H3533 C3538 0.949 . S
H3534 C3540 0.950 . S
H3535 C3541 0.950 . S
H3536 C3542 0.949 . S
C3537 H3532 0.950 . S
C3537 C3539 1.327 . S
C3537 C3543 1.429 . S
C3538 C3530 1.574 . S
C3538 H3533 0.949 . S
C3538 C3544 1.368 . S
C3539 C3523 1.349 . S
C3539 H3531 0.950 . S
C3539 C3537 1.327 . S
C3540 C3528 1.349 . S
C3540 H3534 0.950 . S
C3540 C3541 1.327 . S
C3541 H3535 0.950 . S
C3541 C3540 1.327 . S
C3541 C3545 1.429 . S
C3542 C3525 1.574 . S
C3542 H3536 0.949 . S
C3542 C3546 1.368 . S
C3543 C3524 1.429 . S
C3543 C3537 1.429 . S
C3543 C3544 1.523 . S
C3544 C3525 1.368 . S
C3544 C3538 1.368 . S
C3544 C3543 1.523 . S
C3545 C3529 1.429 . S
C3545 C3541 1.429 . S
C3545 C3546 1.523 . S
C3546 C3530 1.368 . S
C3546 C3542 1.368 . S
C3546 C3545 1.523 . S
H3547 C3522 0.950 . S
H3548 C3524 0.950 . S
H3549 C3525 0.949 . S
H3550 C3527 0.950 . S
H3551 C3529 0.950 . S
C673 C445 1.337 . S
C678 C11 1.337 . S
C703 C25 1.337 . S
C708 C403 1.337 . S
C733 C39 1.337 . S
C738 C417 1.337 . S
C763 C431 1.337 . S
C768 C53 1.337 . S
C793 C361 1.337 . S
C798 C67 1.337 . S
C823 C81 1.337 . S
C828 C375 1.337 . S
C853 C389 1.337 . S
C858 C95 1.337 . S
C883 C109 1.337 . S
C888 C347 1.337 . S
C913 C123 1.337 . S
C918 C627 1.337 . S
C943 C585 1.337 . S
C948 C137 1.337 . S
C973 C599 1.337 . S
C978 C151 1.337 . S
C1003 C165 1.337 . S
C1008 C613 1.337 . S
C1033 C179 1.337 . S
C1038 C669 1.337 . S
C1063 C193 1.337 . S
C1068 C641 1.337 . S
C1093 C207 1.337 . S
C1098 C655 1.337 . S
C1123 C571 1.337 . S
C1128 C221 1.337 . S
C1153 C557 1.337 . S
C1158 C235 1.337 . S
C1183 C249 1.337 . S
C1188 C473 1.337 . S
C1213 C487 1.337 . S
C1218 C263 1.337 . S
C1243 C277 1.337 . S
C1248 C501 1.337 . S
C1273 C459 1.337 . S
C1278 C291 1.337 . S
C1303 C529 1.337 . S
C1308 C305 1.337 . S
C1333 C319 1.337 . S
C1338 C543 1.337 . S
C1363 C515 1.337 . S
C1368 C333 1.337 . S
C1393 C135 1.236 . S
C1398 C9 1.236 . S
C1423 C149 1.236 . S
C1428 C23 1.236 . S
C1453 C37 1.236 . S
C1458 C163 1.236 . S
C1483 C121 1.236 . S
C1488 C51 1.236 . S
C1513 C65 1.236 . S
C1518 C219 1.236 . S
C1543 C177 1.236 . S
C1548 C79 1.236 . S
C1573 C191 1.236 . S
C1578 C93 1.236 . S
C1603 C205 1.236 . S
C1608 C107 1.236 . S
C1633 C261 1.236 . S
C1638 C233 1.236 . S
C1663 C317 1.236 . S
C1668 C247 1.236 . S
C1693 C331 1.236 . S
C1698 C275 1.236 . S
C1723 C289 1.236 . S
C1728 C303 1.236 . S
C1753 C471 1.236 . S
C1758 C345 1.236 . S
C1783 C485 1.236 . S
C1788 C359 1.236 . S
C1813 C499 1.236 . S
C1818 C373 1.236 . S
C1843 C387 1.236 . S
C1848 C457 1.236 . S
C1873 C401 1.236 . S
C1878 C555 1.236 . S
C1903 C415 1.236 . S
C1908 C513 1.236 . S
C1933 C527 1.236 . S
C1938 C429 1.236 . S
C1963 C541 1.236 . S
C1968 C443 1.236 . S
C1993 C569 1.236 . S
C1998 C597 1.236 . S
C2023 C653 1.236 . S
C2028 C583 1.236 . S
C2053 C667 1.236 . S
C2058 C611 1.236 . S
C2083 C639 1.236 . S
C2088 C625 1.236 . S
C2113 C0 1.404 . S
C2118 C257 1.403 1_554 S
C2143 C14 1.404 . S
C2148 C271 1.403 1_554 S
C2173 C28 1.404 . S
C2178 C285 1.403 1_554 S
C2203 C243 1.403 1_554 S
C2208 C42 1.404 . S
C2233 C56 1.404 . S
C2238 C313 1.403 1_556 S
C2263 C70 1.404 . S
C2268 C229 1.403 1_556 S
C2293 C327 1.403 1_556 S
C2298 C84 1.404 . S
C2323 C299 1.403 1_556 S
C2328 C98 1.404 . S
C2353 C112 1.404 . S
C2358 C131 1.403 1_455 S
C2383 C126 1.404 . S
C2388 C145 1.403 1_545 S
C2413 C140 1.404 . S
C2418 C159 1.403 1_655 S
C2443 C117 1.403 1_565 S
C2448 C154 1.404 . S
C2473 C215 1.403 1_455 S
C2478 C168 1.404 . S
C2503 C173 1.403 1_545 S
C2508 C182 1.404 . S
C2533 C187 1.403 1_655 S
C2538 C196 1.404 . S
C2563 C210 1.404 . S
C2568 C201 1.403 1_565 S
C2593 C47 1.403 1_545 S
C2598 C224 1.404 . S
C2623 C75 1.403 1_565 S
C2628 C238 1.404 . S
C2653 C89 1.403 1_455 S
C2658 C252 1.404 . S
C2683 C266 1.404 . S
C2688 C103 1.403 1_545 S
C2713 C61 1.403 1_655 S
C2718 C280 1.404 . S
C2743 C19 1.403 1_565 S
C2748 C294 1.404 . S
C2773 C33 1.403 1_455 S
C2778 C308 1.404 . S
C2803 C5 1.403 1_655 S
C2808 C322 1.404 . S
C2833 C593 1.403 . S
C2838 C336 1.404 . S
C2863 C350 1.404 . S
C2868 C607 1.403 . S
C2893 C621 1.403 . S
C2898 C364 1.404 . S
C2923 C579 1.403 . S
C2928 C378 1.404 . S
C2953 C392 1.404 . S
C2958 C649 1.403 . S
C2983 C406 1.404 . S
C2988 C565 1.403 . S
C3013 C663 1.403 . S
C3018 C420 1.404 . S
C3043 C434 1.404 . S
C3048 C635 1.403 . S
C3073 C448 1.404 . S
C3078 C467 1.403 . S
C3103 C462 1.404 . S
C3108 C481 1.403 . S
C3133 C476 1.404 . S
C3138 C495 1.403 . S
C3163 C490 1.404 . S
C3168 C453 1.403 . S
C3193 C551 1.403 . S
C3198 C504 1.404 . S
C3223 C509 1.403 . S
C3228 C518 1.404 . S
C3253 C523 1.403 . S
C3258 C532 1.404 . S
C3283 C546 1.404 . S
C3288 C537 1.403 . S
C3313 C383 1.403 . S
C3318 C560 1.404 . S
C3343 C411 1.403 . S
C3348 C574 1.404 . S
C3373 C425 1.403 . S
C3378 C588 1.404 . S
C3403 C602 1.404 . S
C3408 C439 1.403 . S
C3433 C397 1.403 . S
C3438 C616 1.404 . S
C3463 C355 1.403 . S
C3468 C630 1.404 . S
C3493 C644 1.404 . S
C3498 C369 1.403 . S
C3523 C341 1.403 . S
C3528 C658 1.404 . S
