# Generated by pormake.
# Topology smd, (6)-cn, num edge types: 1
# Building blocks:
#     Node 0, Type 0, BuildingBlock: BETFAJ_clean_sbu_0, # of connection points: 6
#     Node 1, Type 0, BuildingBlock: BETFAJ_clean_sbu_0, # of connection points: 6
#     Node 2, Type 0, BuildingBlock: BETFAJ_clean_sbu_0, # of connection points: 6
#     Node 3, Type 0, BuildingBlock: BETFAJ_clean_sbu_0, # of connection points: 6
#     Node 4, Type 0, BuildingBlock: BETFAJ_clean_sbu_0, # of connection points: 6
#     Node 5, Type 0, BuildingBlock: BETFAJ_clean_sbu_0, # of connection points: 6
#     Node 6, Type 0, BuildingBlock: BETFAJ_clean_sbu_0, # of connection points: 6
#     Node 7, Type 0, BuildingBlock: BETFAJ_clean_sbu_0, # of connection points: 6
#     Node 8, Type 0, BuildingBlock: BETFAJ_clean_sbu_0, # of connection points: 6
#     Node 9, Type 0, BuildingBlock: BETFAJ_clean_sbu_0, # of connection points: 6
#     Node 10, Type 0, BuildingBlock: BETFAJ_clean_sbu_0, # of connection points: 6
#     Node 11, Type 0, BuildingBlock: BETFAJ_clean_sbu_0, # of connection points: 6
#     Node 12, Type 0, BuildingBlock: BETFAJ_clean_sbu_0, # of connection points: 6
#     Node 13, Type 0, BuildingBlock: BETFAJ_clean_sbu_0, # of connection points: 6
#     Node 14, Type 0, BuildingBlock: BETFAJ_clean_sbu_0, # of connection points: 6
#     Node 15, Type 0, BuildingBlock: BETFAJ_clean_sbu_0, # of connection points: 6
#     Node 16, Type 0, BuildingBlock: BETFAJ_clean_sbu_0, # of connection points: 6
#     Node 17, Type 0, BuildingBlock: BETFAJ_clean_sbu_0, # of connection points: 6
#     Edge 18, Type (0, 0), BuildingBlock: OJICUG_clean_linker_0, # of connection points: 2
#     Edge 19, Type (0, 0), BuildingBlock: OJICUG_clean_linker_0, # of connection points: 2
#     Edge 20, Type (0, 0), BuildingBlock: OJICUG_clean_linker_0, # of connection points: 2
#     Edge 21, Type (0, 0), BuildingBlock: OJICUG_clean_linker_0, # of connection points: 2
#     Edge 22, Type (0, 0), BuildingBlock: OJICUG_clean_linker_0, # of connection points: 2
#     Edge 23, Type (0, 0), BuildingBlock: OJICUG_clean_linker_0, # of connection points: 2
#     Edge 24, Type (0, 0), BuildingBlock: OJICUG_clean_linker_0, # of connection points: 2
#     Edge 25, Type (0, 0), BuildingBlock: OJICUG_clean_linker_0, # of connection points: 2
#     Edge 26, Type (0, 0), BuildingBlock: OJICUG_clean_linker_0, # of connection points: 2
#     Edge 27, Type (0, 0), BuildingBlock: OJICUG_clean_linker_0, # of connection points: 2
#     Edge 28, Type (0, 0), BuildingBlock: OJICUG_clean_linker_0, # of connection points: 2
#     Edge 29, Type (0, 0), BuildingBlock: OJICUG_clean_linker_0, # of connection points: 2
#     Edge 30, Type (0, 0), BuildingBlock: OJICUG_clean_linker_0, # of connection points: 2
#     Edge 31, Type (0, 0), BuildingBlock: OJICUG_clean_linker_0, # of connection points: 2
#     Edge 32, Type (0, 0), BuildingBlock: OJICUG_clean_linker_0, # of connection points: 2
#     Edge 33, Type (0, 0), BuildingBlock: OJICUG_clean_linker_0, # of connection points: 2
#     Edge 34, Type (0, 0), BuildingBlock: OJICUG_clean_linker_0, # of connection points: 2
#     Edge 35, Type (0, 0), BuildingBlock: OJICUG_clean_linker_0, # of connection points: 2
#     Edge 36, Type (0, 0), BuildingBlock: OJICUG_clean_linker_0, # of connection points: 2
#     Edge 37, Type (0, 0), BuildingBlock: OJICUG_clean_linker_0, # of connection points: 2
#     Edge 38, Type (0, 0), BuildingBlock: OJICUG_clean_linker_0, # of connection points: 2
#     Edge 39, Type (0, 0), BuildingBlock: OJICUG_clean_linker_0, # of connection points: 2
#     Edge 40, Type (0, 0), BuildingBlock: OJICUG_clean_linker_0, # of connection points: 2
#     Edge 41, Type (0, 0), BuildingBlock: OJICUG_clean_linker_0, # of connection points: 2
#     Edge 42, Type (0, 0), BuildingBlock: OJICUG_clean_linker_0, # of connection points: 2
#     Edge 43, Type (0, 0), BuildingBlock: OJICUG_clean_linker_0, # of connection points: 2
#     Edge 44, Type (0, 0), BuildingBlock: OJICUG_clean_linker_0, # of connection points: 2
#     Edge 45, Type (0, 0), BuildingBlock: OJICUG_clean_linker_0, # of connection points: 2
#     Edge 46, Type (0, 0), BuildingBlock: OJICUG_clean_linker_0, # of connection points: 2
#     Edge 47, Type (0, 0), BuildingBlock: OJICUG_clean_linker_0, # of connection points: 2
#     Edge 48, Type (0, 0), BuildingBlock: OJICUG_clean_linker_0, # of connection points: 2
#     Edge 49, Type (0, 0), BuildingBlock: OJICUG_clean_linker_0, # of connection points: 2
#     Edge 50, Type (0, 0), BuildingBlock: OJICUG_clean_linker_0, # of connection points: 2
#     Edge 51, Type (0, 0), BuildingBlock: OJICUG_clean_linker_0, # of connection points: 2
#     Edge 52, Type (0, 0), BuildingBlock: OJICUG_clean_linker_0, # of connection points: 2
#     Edge 53, Type (0, 0), BuildingBlock: OJICUG_clean_linker_0, # of connection points: 2
#     Edge 54, Type (0, 0), BuildingBlock: OJICUG_clean_linker_0, # of connection points: 2
#     Edge 55, Type (0, 0), BuildingBlock: OJICUG_clean_linker_0, # of connection points: 2
#     Edge 56, Type (0, 0), BuildingBlock: OJICUG_clean_linker_0, # of connection points: 2
#     Edge 57, Type (0, 0), BuildingBlock: OJICUG_clean_linker_0, # of connection points: 2
#     Edge 58, Type (0, 0), BuildingBlock: OJICUG_clean_linker_0, # of connection points: 2
#     Edge 59, Type (0, 0), BuildingBlock: OJICUG_clean_linker_0, # of connection points: 2
#     Edge 60, Type (0, 0), BuildingBlock: OJICUG_clean_linker_0, # of connection points: 2
#     Edge 61, Type (0, 0), BuildingBlock: OJICUG_clean_linker_0, # of connection points: 2
#     Edge 62, Type (0, 0), BuildingBlock: OJICUG_clean_linker_0, # of connection points: 2
#     Edge 63, Type (0, 0), BuildingBlock: OJICUG_clean_linker_0, # of connection points: 2
#     Edge 64, Type (0, 0), BuildingBlock: OJICUG_clean_linker_0, # of connection points: 2
#     Edge 65, Type (0, 0), BuildingBlock: OJICUG_clean_linker_0, # of connection points: 2
#     Edge 66, Type (0, 0), BuildingBlock: OJICUG_clean_linker_0, # of connection points: 2
#     Edge 67, Type (0, 0), BuildingBlock: OJICUG_clean_linker_0, # of connection points: 2
#     Edge 68, Type (0, 0), BuildingBlock: OJICUG_clean_linker_0, # of connection points: 2
#     Edge 69, Type (0, 0), BuildingBlock: OJICUG_clean_linker_0, # of connection points: 2
#     Edge 70, Type (0, 0), BuildingBlock: OJICUG_clean_linker_0, # of connection points: 2
#     Edge 71, Type (0, 0), BuildingBlock: OJICUG_clean_linker_0, # of connection points: 2
# Relax obj value: 0.307
# Max RMSD: 0.384
# Mean RMSD: 0.353
data_MOF--net-smd--node1-BETFAJ_clean_sbu_0--edge1-OJICUG_clean_linker_0
_symmetry_space_group_name_H-M    P1
_symmetry_Int_Tables_number       1
_symmetry_cell_setting            triclinic
loop_
_symmetry_equiv_pos_as_xyz
'x, y, z'
_cell_length_a     47.331936
_cell_length_b     47.599331
_cell_length_c     20.876135
_cell_angle_alpha  93.409936
_cell_angle_beta   93.264687
_cell_angle_gamma 120.10615
loop_
_atom_site_label
_atom_site_type_symbol
_atom_site_fract_x
_atom_site_fract_y
_atom_site_fract_z
_atom_type_partial_charge
Sm0 Sm 0.03947 0.25865 0.58403 0.0
Sm1 Sm 0.99919 0.23118 0.47285 0.0
C2 C 0.0639 0.27906 0.70708 0.0
C3 C 0.05307 0.27339 0.77263 0.0
C4 C 1.02126 0.26564 0.78559 0.0
C5 C 1.01172 0.26016 0.84826 0.0
C6 C 0.03369 0.26195 0.89907 0.0
C7 C 0.06552 0.26984 0.88562 0.0
C8 C 0.07506 0.27552 0.82323 0.0
C9 C 0.07334 0.24043 0.50405 0.0
C10 C 0.9755 0.18011 0.57007 0.0
C11 C 0.96895 0.21653 0.35369 0.0
C12 C 0.9784 0.22286 0.2874 0.0
C13 C 1.00943 0.22952 0.27144 0.0
C14 C 1.01829 0.23627 0.2088 0.0
C15 C 0.9963 0.23648 0.16056 0.0
C16 C 0.96531 0.23006 0.17716 0.0
C17 C 0.95652 0.22336 0.23987 0.0
C18 C 0.97385 0.25572 0.56828 0.0
C19 C 0.06145 0.30057 0.45826 0.0
O20 O 0.05314 0.29393 0.67116 0.0
O21 O 0.06445 0.25513 0.67448 0.0
O22 O 0.04232 0.22276 0.50904 0.0
O23 O 0.08558 0.26816 0.53863 0.0
O24 O 0.9934 0.20788 0.60878 0.0
O25 O 0.97821 0.18123 0.50832 0.0
O26 O 0.97621 0.1971 0.38297 0.0
O27 O 0.97458 0.2419 0.39178 0.0
O28 O 1.002 0.2702 0.54903 0.0
O29 O 0.95761 0.22693 0.53679 0.0
O30 O 0.043 0.27118 0.42917 0.0
O31 O 0.06212 0.30439 0.52225 0.0
H32 H 1.00371 0.26355 0.74725 0.0
H33 H 0.98694 0.25386 0.85663 0.0
H34 H 0.08324 0.2719 0.92354 0.0
H35 H 0.09973 0.28153 0.81443 0.0
H36 H 0.02693 0.22972 0.30753 0.0
H37 H 0.04259 0.24172 0.19846 0.0
H38 H 0.94758 0.22969 0.14147 0.0
H39 H 0.93253 0.21854 0.25125 0.0
Sm40 Sm 0.79656 0.77384 0.48731 0.0
Sm41 Sm 0.78395 0.79876 0.59882 0.0
C42 C 0.79381 0.74326 0.37358 0.0
C43 C 0.7892 0.74839 0.30558 0.0
C44 C 0.77768 0.76936 0.28953 0.0
C45 C 0.77454 0.77515 0.22524 0.0
C46 C 0.78295 0.76019 0.17551 0.0
C47 C 0.79388 0.73867 0.19188 0.0
C48 C 0.79698 0.73287 0.25628 0.0
C49 C 0.85502 0.80721 0.56566 0.0
C50 C 0.81143 0.84988 0.49815 0.0
C51 C 0.77733 0.81799 0.71659 0.0
C52 C 0.7775 0.80845 0.78262 0.0
C53 C 0.78738 0.78605 0.7973 0.0
C54 C 0.78747 0.77742 0.86039 0.0
C55 C 0.77776 0.7911 0.91013 0.0
C56 C 0.76753 0.81325 0.89471 0.0
C57 C 0.7674 0.8218 0.83168 0.0
C58 C 0.73462 0.77925 0.49459 0.0
C59 C 0.77196 0.72672 0.61034 0.0
O60 O 0.7687 0.73471 0.40661 0.0
O61 O 0.82113 0.76528 0.40644 0.0
O62 O 0.82695 0.78821 0.58508 0.0
O63 O 0.85101 0.81277 0.50677 0.0
O64 O 0.7982 0.82261 0.45788 0.0
O65 O 0.81653 0.84748 0.55939 0.0
O66 O 0.80526 0.83091 0.69115 0.0
O67 O 0.75259 0.79728 0.67555 0.0
O68 O 0.74792 0.76378 0.51439 0.0
O69 O 0.74709 0.80666 0.53097 0.0
O70 O 0.76666 0.7493 0.63499 0.0
O71 O 0.78537 0.73052 0.55438 0.0
H72 H 0.77134 0.78145 0.32683 0.0
H73 H 0.76547 0.79137 0.21454 0.0
H74 H 0.80084 0.7269 0.15517 0.0
H75 H 0.80587 0.71656 0.26767 0.0
H76 H 0.79525 0.77541 0.76011 0.0
H77 H 0.79579 0.76053 0.87042 0.0
H78 H 0.75935 0.82386 0.9313 0.0
H79 H 0.75943 0.83892 0.82127 0.0
Sm80 Sm 0.25018 1.00145 0.57222 0.0
Sm81 Sm 0.25626 0.0346 0.46614 0.0
C82 C 0.25703 0.97725 0.68013 0.0
C83 C 0.24956 0.97874 0.74721 0.0
C84 C 0.23368 0.99561 0.76614 0.0
C85 C 0.2312 1.0014 0.8315 0.0
C86 C 0.24471 0.99058 0.87918 0.0
C87 C 0.25954 0.97261 0.8596 0.0
C88 C 0.262 0.96684 0.79418 0.0
C89 C 0.18796 0.9739 0.50915 0.0
C90 C 0.23084 0.05972 0.57543 0.0
C91 C 0.25937 0.05905 0.35391 0.0
C92 C 0.25632 0.04799 0.2849 0.0
C93 C 0.2692 0.02849 0.26383 0.0
C94 C 0.26627 0.01846 0.19821 0.0
C95 C 0.25048 0.02779 0.15219 0.0
C96 C 0.23751 0.04721 0.17359 0.0
C97 C 0.24039 0.05716 0.23926 0.0
C98 C 0.30995 0.06832 0.56415 0.0
C99 C 0.27184 0.97745 0.43708 0.0
O100 O 0.27911 1.00503 0.66253 0.0
O101 O 0.23243 0.96082 0.63577 0.0
O102 O 0.2139 0.98136 0.48085 0.0
O103 O 0.19608 0.9862 0.56892 0.0
O104 O 0.24664 0.0483 0.61049 0.0
O105 O 0.22323 0.04931 0.51421 0.0
O106 O 0.23259 0.0453 0.38309 0.0
O107 O 0.28504 0.06323 0.3895 0.0
O108 O 0.29674 0.03919 0.5398 0.0
O109 O 0.29461 0.08128 0.53663 0.0
O110 O 0.26815 0.99995 0.41215 0.0
O111 O 0.26662 0.9725 0.49879 0.0
H112 H 0.2242 1.00524 0.73049 0.0
H113 H 0.21921 1.01488 0.84475 0.0
H114 H 0.27052 0.96422 0.8949 0.0
H115 H 0.27474 0.95415 0.78047 0.0
H116 H 0.28181 0.02118 0.29785 0.0
H117 H 0.27695 1.00391 0.18345 0.0
H118 H 0.22486 0.05452 0.1396 0.0
H119 H 0.23021 0.07212 0.25444 0.0
Sm120 Sm 0.04143 0.79947 0.61065 0.0
Sm121 Sm 1.00225 0.77202 0.49713 0.0
C122 C 0.07088 0.81592 0.73054 0.0
C123 C 0.06124 0.80873 0.7962 0.0
C124 C 0.02825 0.79445 0.80859 0.0
C125 C 1.01938 0.7872 0.87096 0.0
C126 C 0.04333 0.79411 0.92228 0.0
C127 C 0.07635 0.80822 0.90931 0.0
C128 C 0.08517 0.81542 0.84687 0.0
C129 C 0.06892 0.77729 0.51598 0.0
C130 C 0.98233 0.72722 0.61847 0.0
C131 C 0.9769 0.75152 0.3747 0.0
C132 C 0.98739 0.75649 0.30917 0.0
C133 C 1.02059 0.7706 0.29829 0.0
C134 C 0.02993 0.77585 0.23554 0.0
C135 C 1.00625 0.76734 0.18274 0.0
C136 C 0.973 0.75283 0.19415 0.0
C137 C 0.96372 0.74748 0.25669 0.0
C138 C 0.96692 0.78784 0.5786 0.0
C139 C 0.06554 0.85072 0.51268 0.0
O140 O 0.06112 0.83344 0.70089 0.0
O141 O 0.06785 0.79155 0.69274 0.0
O142 O 0.04053 0.76203 0.5335 0.0
O143 O 0.08457 0.80558 0.54949 0.0
O144 O 0.99849 0.75618 0.65036 0.0
O145 O 0.98284 0.72503 0.55474 0.0
O146 O 0.98739 0.73638 0.41033 0.0
O147 O 0.97759 0.77619 0.40709 0.0
O148 O 0.99769 0.80638 0.57304 0.0
O149 O 0.95575 0.76025 0.54417 0.0
O150 O 0.04842 0.82316 0.47304 0.0
O151 O 0.06177 0.84911 0.57405 0.0
H152 H 1.00934 0.78884 0.77006 0.0
H153 H 0.99368 0.77588 0.87881 0.0
H154 H 0.0955 0.81421 0.94759 0.0
H155 H 0.11075 0.82631 0.83817 0.0
H156 H 0.03927 0.77786 0.3383 0.0
H157 H 0.05575 0.78729 0.22859 0.0
H158 H 0.95408 0.74549 0.15463 0.0
H159 H 0.93797 0.73645 0.26413 0.0
Sm160 Sm 0.25535 0.22972 0.47308 0.0
Sm161 Sm 0.24525 0.25703 0.58512 0.0
C162 C 0.2637 0.21031 0.35717 0.0
C163 C 0.26062 0.21752 0.28998 0.0
C164 C 0.23993 0.22936 0.27081 0.0
C165 C 0.23863 0.23768 0.20778 0.0
C166 C 0.25796 0.23428 0.16243 0.0
C167 C 0.27844 0.22212 0.182 0.0
C168 C 0.27979 0.21394 0.24503 0.0
C169 C 0.30817 0.25511 0.57311 0.0
C170 C 0.2619 0.29914 0.45397 0.0
C171 C 0.24953 0.28749 0.69987 0.0
C172 C 0.25073 0.28003 0.76766 0.0
C173 C 0.26982 0.2667 0.78902 0.0
C174 C 0.27116 0.26011 0.85327 0.0
C175 C 0.25326 0.26641 0.89777 0.0
C176 C 0.234 0.27956 0.87612 0.0
C177 C 0.23284 0.28636 0.81183 0.0
C178 C 0.18501 0.22094 0.51252 0.0
C179 C 0.23084 0.18107 0.57707 0.0
O180 O 0.23658 0.19437 0.3848 0.0
O181 O 0.28739 0.23412 0.39579 0.0
O182 O 0.29304 0.26847 0.55156 0.0
O183 O 0.29528 0.22639 0.5417 0.0
O184 O 0.25997 0.27306 0.42531 0.0
O185 O 0.25801 0.30031 0.51706 0.0
O186 O 0.27472 0.29303 0.66915 0.0
O187 O 0.22191 0.26968 0.66368 0.0
O188 O 0.21224 0.23963 0.49003 0.0
O189 O 0.19081 0.21719 0.57186 0.0
O190 O 0.24517 0.20909 0.61527 0.0
O191 O 0.22375 0.18204 0.51601 0.0
H192 H 0.22505 0.23254 0.3048 0.0
H193 H 0.22291 0.24735 0.19502 0.0
H194 H 0.2933 0.21865 0.14844 0.0
H195 H 0.29599 0.20493 0.25881 0.0
H196 H 0.28373 0.26129 0.75603 0.0
H197 H 0.28588 0.24958 0.86784 0.0
H198 H 0.22015 0.28502 0.9091 0.0
H199 H 0.21801 0.29668 0.79663 0.0
Sm200 Sm 0.78011 0.9965 0.59452 0.0
Sm201 Sm 0.79437 0.03278 0.49731 0.0
C202 C 0.76166 0.966 0.70042 0.0
C203 C 0.76521 0.97448 0.77037 0.0
C204 C 0.78658 1.00656 0.79795 0.0
C205 C 0.7888 1.0145 0.86435 0.0
C206 C 0.76967 0.99047 0.9043 0.0
C207 C 0.74833 0.95833 0.87623 0.0
C208 C 0.7461 0.95045 0.80981 0.0
C209 C 0.73103 0.96764 0.48669 0.0
C210 C 0.77156 0.05745 0.62422 0.0
C211 C 0.80125 0.05639 0.38312 0.0
C212 C 0.79511 0.04546 0.31383 0.0
C213 C 0.77309 1.01279 0.2904 0.0
C214 C 0.76753 1.00318 0.224 0.0
C215 C 0.78404 0.02609 0.18007 0.0
C216 C 0.80619 0.05874 0.20422 0.0
C217 C 0.8116 0.06829 0.27041 0.0
C218 C 0.84677 0.06961 0.58943 0.0
C219 C 0.81132 0.97146 0.50173 0.0
O220 O 0.78811 0.97141 0.67423 0.0
O221 O 0.74393 0.9746 0.66602 0.0
O222 O 0.74402 0.99613 0.51406 0.0
O223 O 0.74413 0.95297 0.51544 0.0
O224 O 0.7825 0.04031 0.65123 0.0
O225 O 0.7693 0.05614 0.56019 0.0
O226 O 0.77557 0.04802 0.41442 0.0
O227 O 0.82415 0.05403 0.41569 0.0
O228 O 0.83321 0.03851 0.57602 0.0
O229 O 0.82989 0.08008 0.55917 0.0
O230 O 0.80011 0.98613 0.46356 0.0
O231 O 0.813 0.97801 0.56358 0.0
H232 H 0.80147 0.02545 0.76815 0.0
H233 H 0.80576 0.03938 0.88451 0.0
H234 H 0.73296 0.93937 0.90543 0.0
H235 H 0.72923 0.92562 0.78913 0.0
H236 H 0.76021 0.99478 0.32336 0.0
H237 H 0.75009 0.97792 0.20706 0.0
H238 H 0.81977 0.0769 0.17203 0.0
H239 H 0.8288 0.09358 0.28776 0.0
Sm240 Sm 0.67403 0.5695 0.78963 0.0
Sm241 Sm 0.71533 0.5866 0.89913 0.0
C242 C 0.64983 0.56294 0.6675 0.0
C243 C 0.66106 0.56845 0.60213 0.0
C244 C 0.69252 0.5937 0.59203 0.0
C245 C 0.70227 0.5986 0.52939 0.0
C246 C 0.68087 0.57814 0.47555 0.0
C247 C 0.64943 0.55285 0.48619 0.0
C248 C 0.63968 0.54814 0.54865 0.0
C249 C 0.63931 0.52144 0.86793 0.0
C250 C 0.73614 0.55324 0.79902 0.0
C251 C 0.74641 0.60691 1.01786 0.0
C252 C 0.737 0.60243 0.08457 0.0
C253 C 0.7065 0.57656 0.09729 0.0
C254 C 0.69752 0.57305 0.16048 0.0
C255 C 0.71887 0.59531 0.2126 0.0
C256 C 0.74936 0.62135 0.1993 0.0
C257 C 0.75826 0.62486 0.13602 0.0
C258 C 0.73851 0.63302 0.80584 0.0
C259 C 0.65403 0.59367 0.92089 0.0
O260 O 0.65897 0.58868 0.70791 0.0
O261 O 0.65074 0.53947 0.69512 0.0
O262 O 0.67043 0.53391 0.8642 0.0
O263 O 0.6272 0.53438 0.83077 0.0
O264 O 0.71933 0.56282 0.7617 0.0
O265 O 0.73338 0.554 0.86068 0.0
O266 O 0.74308 0.58145 0.98314 0.0
O267 O 0.73665 0.6235 0.98504 0.0
O268 O 0.71108 0.61978 0.82776 0.0
O269 O 0.75553 0.62163 0.83276 0.0
O270 O 0.67157 0.58228 0.94594 0.0
O271 O 0.65337 0.59579 0.85748 0.0
H272 H 0.7096 0.60954 0.63249 0.0
H273 H 0.72676 0.61809 0.52327 0.0
H274 H 0.63211 0.53689 0.44605 0.0
H275 H 0.61526 0.52858 0.55518 0.0
H276 H 0.68949 0.55916 0.05827 0.0
H277 H 0.6736 0.55307 0.16829 0.0
H278 H 0.76663 0.63882 0.23789 0.0
H279 H 0.78183 0.64514 0.12727 0.0
Sm280 Sm 0.46222 0.11558 0.79834 0.0
Sm281 Sm 0.45104 0.14336 0.90932 0.0
C282 C 0.45911 0.0856 0.68361 0.0
C283 C 0.45728 0.09284 0.61566 0.0
C284 C 0.43756 0.10555 0.59463 0.0
C285 C 0.43585 0.11214 0.53037 0.0
C286 C 0.45406 0.10652 0.48551 0.0
C287 C 0.47391 0.09395 0.50686 0.0
C288 C 0.4754 0.08711 0.57109 0.0
C289 C 0.52168 0.15137 0.87347 0.0
C290 C 0.4778 0.19187 0.80561 0.0
C291 C 0.44273 0.16293 1.02528 0.0
C292 C 0.44565 0.15548 0.09256 0.0
C293 C 0.46724 0.14479 0.11242 0.0
C294 C 0.46863 0.13647 0.17549 0.0
C295 C 0.44855 0.13878 0.22045 0.0
C296 C 0.42716 0.14981 0.20021 0.0
C297 C 0.4257 0.15795 0.13708 0.0
C298 C 0.39984 0.11928 0.80628 0.0
C299 C 0.44352 0.07349 0.9298 0.0
O300 O 0.4337 0.07875 0.71466 0.0
O301 O 0.48656 0.10445 0.71963 0.0
O302 O 0.49406 0.13294 0.89494 0.0
O303 O 0.51669 0.15503 0.81368 0.0
O304 O 0.46343 0.16386 0.76741 0.0
O305 O 0.48394 0.19083 0.86707 0.0
O306 O 0.46991 0.17866 0.99771 0.0
O307 O 0.41889 0.13944 0.98632 0.0
O308 O 0.41422 0.10535 0.82889 0.0
O309 O 0.41233 0.1477 0.83884 0.0
O310 O 0.44382 0.0991 0.95653 0.0
O311 O 0.44941 0.0726 0.86773 0.0
H312 H 0.42351 0.11056 0.62791 0.0
H313 H 0.42066 0.1222 0.51613 0.0
H314 H 0.48802 0.089 0.47368 0.0
H315 H 0.49075 0.0773 0.58598 0.0
H316 H 0.48277 0.14245 0.07889 0.0
H317 H 0.48506 0.12766 0.18857 0.0
H318 H 0.41169 0.15249 0.23334 0.0
H319 H 0.40883 0.16612 0.12294 0.0
Sm320 Sm 0.93398 0.36544 0.80674 0.0
Sm321 Sm 0.91563 0.32983 0.90162 0.0
C322 C 0.94831 0.38707 0.69129 0.0
C323 C 0.94445 0.37541 0.62272 0.0
C324 C 0.93167 0.34228 0.60209 0.0
C325 C 0.92893 0.33212 0.53641 0.0
C326 C 0.93899 0.35498 0.49043 0.0
C327 C 0.95171 0.38811 0.51181 0.0
C328 C 0.95442 0.39817 0.57722 0.0
C329 C 0.92093 0.40285 0.8912 0.0
C330 C 0.85488 0.3053 0.81039 0.0
C331 C 0.90987 0.2994 1.00745 0.0
C332 C 0.91347 0.30672 0.07802 0.0
C333 C 0.92649 0.33882 0.10619 0.0
C334 C 0.93124 0.34567 0.17332 0.0
C335 C 0.9229 0.32052 0.21368 0.0
C336 C 0.90963 0.28832 0.18514 0.0
C337 C 0.90507 0.28153 0.1179 0.0
C338 C 0.93437 0.30241 0.79773 0.0
C339 C 0.98242 0.39387 0.94213 0.0
O340 O 0.96765 0.38202 0.72963 0.0
O341 O 0.92195 0.38215 0.71705 0.0
O342 O 0.9031 0.37142 0.88185 0.0
O343 O 0.94641 0.41355 0.85962 0.0
O344 O 0.87924 0.31931 0.77256 0.0
O345 O 0.86269 0.31169 0.87219 0.0
O346 O 0.88516 0.29885 0.97495 0.0
O347 O 0.93685 0.31404 0.97936 0.0
O348 O 0.95039 0.33068 0.8265 0.0
O349 O 0.90647 0.28751 0.82167 0.0
O350 O 0.95442 0.37525 0.96368 0.0
O351 O 0.98345 0.39207 0.87855 0.0
H352 H 0.92394 0.32436 0.63671 0.0
H353 H 0.9193 0.30648 0.52174 0.0
H354 H 0.95919 0.40631 0.47784 0.0
H355 H 0.96434 0.42384 0.59231 0.0
H356 H 0.93311 0.35864 0.07637 0.0
H357 H 0.94111 0.37066 0.19364 0.0
H358 H 0.90327 0.26845 0.21477 0.0
H359 H 0.89525 0.25663 0.09703 0.0
Sm360 Sm 0.70697 0.14219 0.92319 0.0
Sm361 Sm 0.66621 0.11132 0.81087 0.0
C362 C 0.73631 0.16016 0.04337 0.0
C363 C 0.72653 0.15315 0.10941 0.0
C364 C 0.69499 0.14506 0.12481 0.0
C365 C 0.68588 0.13747 0.18709 0.0
C366 C 0.70809 0.13777 0.23552 0.0
C367 C 0.73965 0.14583 0.2196 0.0
C368 C 0.74871 0.15339 0.15732 0.0
C369 C 0.73203 0.11541 0.83199 0.0
C370 C 0.64698 0.07198 0.94037 0.0
C371 C 0.64146 0.08857 0.68854 0.0
C372 C 0.65185 0.09479 0.62265 0.0
C373 C 0.68365 0.10305 0.60849 0.0
C374 C 0.69286 0.10942 0.54578 0.0
C375 C 0.67058 0.10795 0.496 0.0
C376 C 0.63873 0.09945 0.5106 0.0
C377 C 0.62953 0.09295 0.57305 0.0
C378 C 0.63268 0.13093 0.8889 0.0
C379 C 0.73009 0.18959 0.81835 0.0
O380 O 0.72633 0.17715 1.01224 0.0
O381 O 0.73417 0.13593 1.0065 0.0
O382 O 0.70402 0.10168 0.85163 0.0
O383 O 0.7486 0.14475 0.86118 0.0
O384 O 0.66374 0.10194 0.96739 0.0
O385 O 0.64642 0.06707 0.87655 0.0
O386 O 0.65439 0.07573 0.725 0.0
O387 O 0.63863 0.11127 0.72056 0.0
O388 O 0.66344 0.1486 0.88181 0.0
O389 O 0.62051 0.10237 0.85751 0.0
O390 O 0.71211 0.16109 0.78197 0.0
O391 O 0.72766 0.19026 0.88034 0.0
H392 H 0.67726 0.14431 0.08853 0.0
H393 H 0.66121 0.13089 0.19697 0.0
H394 H 0.75759 0.14673 0.25551 0.0
H395 H 0.77312 0.1594 0.14651 0.0
H396 H 0.70147 0.10489 0.64594 0.0
H397 H 0.71767 0.11616 0.53665 0.0
H398 H 0.62073 0.09757 0.47354 0.0
H399 H 0.60486 0.08657 0.58271 0.0
Sm400 Sm 0.91441 0.58741 0.90724 0.0
Sm401 Sm 0.93495 0.56924 0.80358 0.0
C402 C 0.90514 0.60842 1.02096 0.0
C403 C 0.90971 0.60427 0.08949 0.0
C404 C 0.92195 0.58423 0.10806 0.0
C405 C 0.92718 0.58132 0.17343 0.0
C406 C 0.92013 0.59828 0.22155 0.0
C407 C 0.90772 0.61823 0.20252 0.0
C408 C 0.90265 0.62125 0.13712 0.0
C409 C 0.93423 0.63296 0.8123 0.0
C410 C 0.98389 0.59531 0.93746 0.0
C411 C 0.94975 0.5597 0.68593 0.0
C412 C 0.94559 0.56675 0.61939 0.0
C413 C 0.93283 0.58694 0.60531 0.0
C414 C 0.92945 0.59352 0.54162 0.0
C415 C 0.93867 0.5799 0.49081 0.0
C416 C 0.95136 0.55962 0.50557 0.0
C417 C 0.95482 0.55319 0.56915 0.0
C418 C 0.92101 0.52117 0.88507 0.0
C419 C 0.85692 0.55314 0.80333 0.0
O420 O 0.88215 0.58298 0.98445 0.0
O421 O 0.93193 0.62418 0.99273 0.0
O422 O 0.94954 0.62009 0.83548 0.0
O423 O 0.90711 0.62201 0.83911 0.0
O424 O 0.95584 0.58453 0.96107 0.0
O425 O 0.98444 0.59687 0.87413 0.0
O426 O 0.96925 0.58467 0.72737 0.0
O427 O 0.92334 0.53858 0.71016 0.0
O428 O 0.90311 0.53409 0.87527 0.0
O429 O 0.94647 0.53451 0.85337 0.0
O430 O 0.8825 0.56332 0.7685 0.0
O431 O 0.86235 0.5535 0.86522 0.0
H432 H 0.92749 0.57085 0.07206 0.0
H433 H 0.93635 0.56542 0.18624 0.0
H434 H 0.90238 0.63192 0.23823 0.0
H435 H 0.89341 0.63702 0.12373 0.0
H436 H 0.92553 0.5976 0.64354 0.0
H437 H 0.91993 0.60952 0.5323 0.0
H438 H 0.95818 0.54824 0.46783 0.0
H439 H 0.96463 0.53747 0.57908 0.0
Sm440 Sm 0.45144 0.33682 0.91509 0.0
Sm441 Sm 0.46072 0.37323 0.81674 0.0
C442 C 0.43847 0.30718 1.02288 0.0
C443 C 0.44036 0.31579 0.09253 0.0
C444 C 0.45815 0.34841 0.11957 0.0
C445 C 0.45842 0.35621 0.18542 0.0
C446 C 0.44093 0.33152 0.22545 0.0
C447 C 0.42321 0.29886 0.19794 0.0
C448 C 0.42289 0.29112 0.13209 0.0
C449 C 0.39946 0.30619 0.81288 0.0
C450 C 0.44169 0.39695 0.95069 0.0
C451 C 0.46259 0.39649 0.70304 0.0
C452 C 0.4564 0.38573 0.63356 0.0
C453 C 0.43732 0.3526 0.61021 0.0
C454 C 0.4328 0.34306 0.54386 0.0
C455 C 0.44739 0.3665 0.49981 0.0
C456 C 0.4662 0.39967 0.52381 0.0
C457 C 0.47061 0.40914 0.58996 0.0
C458 C 0.51644 0.40949 0.90161 0.0
C459 C 0.47942 0.31302 0.81201 0.0
O460 O 0.46615 0.31757 0.99738 0.0
O461 O 0.41697 0.31023 0.98678 0.0
O462 O 0.41227 0.33485 0.83986 0.0
O463 O 0.41404 0.29238 0.83966 0.0
O464 O 0.45398 0.38018 0.97414 0.0
O465 O 0.4373 0.39579 0.88681 0.0
O466 O 0.43721 0.38534 0.73609 0.0
O467 O 0.48768 0.39713 0.73374 0.0
O468 O 0.50247 0.37847 0.8871 0.0
O469 O 0.49828 0.42016 0.87746 0.0
O470 O 0.46656 0.32749 0.77751 0.0
O471 O 0.48311 0.31902 0.87443 0.0
H472 H 0.47176 0.36784 0.08982 0.0
H473 H 0.47264 0.38157 0.20511 0.0
H474 H 0.40912 0.2793 0.2271 0.0
H475 H 0.40873 0.26582 0.1119 0.0
H476 H 0.42616 0.33415 0.64325 0.0
H477 H 0.41785 0.31736 0.52708 0.0
H478 H 0.47824 0.41835 0.49164 0.0
H479 H 0.48553 0.43481 0.60719 0.0
Sm480 Sm 0.38 0.93216 0.23995 0.0
Sm481 Sm 0.33828 0.90015 0.12789 0.0
C482 C 0.40417 0.95473 0.36269 0.0
C483 C 0.39328 0.94844 0.42834 0.0
C484 C 0.3607 0.93785 0.44051 0.0
C485 C 0.35108 0.9318 0.50308 0.0
C486 C 0.37375 0.93593 0.55498 0.0
C487 C 0.40633 0.94648 0.54214 0.0
C488 C 0.41592 0.95268 0.47977 0.0
C489 C 0.41342 0.91298 0.16094 0.0
C490 C 0.31838 0.85265 0.23217 0.0
C491 C 0.3084 0.88216 1.00805 0.0
C492 C 0.31789 0.88954 0.94182 0.0
C493 C 0.34965 0.89866 0.92606 0.0
C494 C 0.35853 0.90671 0.8638 0.0
C495 C 0.3358 0.90566 0.81559 0.0
C496 C 0.30399 0.89644 0.83172 0.0
C497 C 0.29522 0.88859 0.89409 0.0
C498 C 0.31228 0.92417 0.2225 0.0
C499 C 0.39801 0.97116 0.10972 0.0
O500 O 0.39154 0.96769 0.32579 0.0
O501 O 0.40709 0.93203 0.3309 0.0
O502 O 0.38276 0.8951 0.1684 0.0
O503 O 0.42558 0.94151 0.19253 0.0
O504 O 0.33583 0.88131 0.26831 0.0
O505 O 0.32006 0.85205 0.16991 0.0
O506 O 0.31888 0.86538 0.0385 0.0
O507 O 0.31024 0.90607 0.04557 0.0
O508 O 0.33999 0.93923 0.20155 0.0
O509 O 0.2964 0.89508 0.19209 0.0
O510 O 0.38073 0.94114 0.0829 0.0
O511 O 0.39938 0.97623 0.17373 0.0
H512 H 0.34264 0.93416 0.40169 0.0
H513 H 0.32589 0.92412 0.51074 0.0
H514 H 0.42445 0.9494 0.58007 0.0
H515 H 0.44112 0.9606 0.4716 0.0
H516 H 0.3677 0.89975 0.96202 0.0
H517 H 0.38314 0.91339 0.85322 0.0
H518 H 0.28595 0.89579 0.79638 0.0
H519 H 0.27067 0.88195 0.90519 0.0
Sm520 Sm 0.13753 0.44925 0.15853 0.0
Sm521 Sm 0.13005 0.47878 0.27138 0.0
C522 C 0.13151 0.41848 0.04321 0.0
C523 C 0.13282 0.42782 0.97636 0.0
C524 C 0.11852 0.44609 0.95699 0.0
C525 C 0.11882 0.45407 0.89348 0.0
C526 C 0.13369 0.44431 0.84752 0.0
C527 C 0.14819 0.42616 0.86723 0.0
C528 C 0.14771 0.418 0.9309 0.0
C529 C 0.19856 0.48619 0.22746 0.0
C530 C 0.15445 0.52615 0.16482 0.0
C531 C 0.12426 0.50027 0.38771 0.0
C532 C 0.12745 0.49317 0.45495 0.0
C533 C 0.1454 0.47814 0.4725 0.0
C534 C 0.14692 0.4702 0.53579 0.0
C535 C 0.13079 0.47744 0.58307 0.0
C536 C 0.11306 0.49275 0.56518 0.0
C537 C 0.11133 0.5004 0.5018 0.0
C538 C 0.07669 0.45308 0.17274 0.0
C539 C 0.11869 0.40735 0.28958 0.0
O540 O 0.10688 0.41584 0.07251 0.0
O541 O 0.15882 0.43287 0.08133 0.0
O542 O 0.17207 0.46761 0.25221 0.0
O543 O 0.19169 0.4889 0.16804 0.0
O544 O 0.13916 0.49781 0.12751 0.0
O545 O 0.16179 0.52558 0.22595 0.0
O546 O 0.15118 0.5146 0.35894 0.0
O547 O 0.09953 0.47704 0.35 0.0
O548 O 0.09131 0.43968 0.19607 0.0
O549 O 0.09044 0.48244 0.20166 0.0
O550 O 0.12315 0.43452 0.31861 0.0
O551 O 0.12213 0.4056 0.22639 0.0
H552 H 0.10678 0.45402 0.99085 0.0
H553 H 0.10686 0.46752 0.88026 0.0
H554 H 0.16025 0.41853 0.83367 0.0
H555 H 0.15893 0.40394 0.9446 0.0
H556 H 0.15812 0.47239 0.43717 0.0
H557 H 0.16105 0.45872 0.54788 0.0
H558 H 0.09999 0.49832 0.59996 0.0
H559 H 0.09715 0.51178 0.48924 0.0
Sm560 Sm 0.58444 0.67236 0.2447 0.0
Sm561 Sm 0.59566 0.71001 0.14784 0.0
C562 C 0.58125 0.64913 0.3588 0.0
C563 C 0.58617 0.65986 0.42836 0.0
C564 C 0.6092 0.69204 0.45344 0.0
C565 C 0.61318 0.70143 0.51981 0.0
C566 C 0.59406 0.67886 0.56228 0.0
C567 C 0.57097 0.64671 0.53653 0.0
C568 C 0.56713 0.63736 0.47039 0.0
C569 C 0.53091 0.63576 0.15548 0.0
C570 C 0.56488 0.73179 0.24716 0.0
C571 C 0.61164 0.74064 0.04147 0.0
C572 C 0.6077 0.73201 0.97125 0.0
C573 C 0.58449 0.70051 0.94319 0.0
C574 C 0.58254 0.69215 0.87695 0.0
C575 C 0.60372 0.71519 0.83746 0.0
C576 C 0.62672 0.74683 0.86592 0.0
C577 C 0.62872 0.75509 0.93217 0.0
C578 C 0.64644 0.73799 0.25234 0.0
C579 C 0.60401 0.64989 0.11077 0.0
O580 O 0.6072 0.66065 0.3273 0.0
O581 O 0.55621 0.64767 0.32598 0.0
O582 O 0.54404 0.66676 0.16994 0.0
O583 O 0.54834 0.62524 0.18359 0.0
O584 O 0.57764 0.71756 0.28252 0.0
O585 O 0.56223 0.72624 0.18484 0.0
O586 O 0.58527 0.73423 0.06916 0.0
O587 O 0.63071 0.73333 0.07502 0.0
O588 O 0.63341 0.7099 0.223 0.0
O589 O 0.63237 0.75275 0.22753 0.0
O590 O 0.59109 0.66628 0.08825 0.0
O591 O 0.60848 0.65072 0.1746 0.0
H592 H 0.62406 0.7099 0.42182 0.0
H593 H 0.63143 0.72629 0.53787 0.0
H594 H 0.55539 0.62881 0.56735 0.0
H595 H 0.54908 0.61247 0.45194 0.0
H596 H 0.5681 0.68229 0.97261 0.0
H597 H 0.5643 0.66769 0.85659 0.0
H598 H 0.64369 0.76504 0.83723 0.0
H599 H 0.64704 0.77944 0.9531 0.0
Sm600 Sm 0.38099 0.47378 0.27188 0.0
Sm601 Sm 0.33965 0.44734 0.15481 0.0
C602 C 0.41021 0.49108 0.39194 0.0
C603 C 0.39959 0.48354 0.45744 0.0
C604 C 0.36719 0.47333 0.47018 0.0
C605 C 0.35722 0.46541 0.53188 0.0
C606 C 0.37947 0.46767 0.58271 0.0
C607 C 0.41198 0.47797 0.56947 0.0
C608 C 0.42184 0.4857 0.50763 0.0
C609 C 0.40536 0.44989 0.17336 0.0
C610 C 0.31558 0.4044 0.28374 0.0
C611 C 0.31184 0.41859 0.03641 0.0
C612 C 0.32169 0.42561 0.97012 0.0
C613 C 0.35452 0.43816 0.9571 0.0
C614 C 0.3635 0.44424 0.89427 0.0
C615 C 0.33998 0.43832 0.84282 0.0
C616 C 0.30717 0.42598 0.85619 0.0
C617 C 0.29815 0.41962 0.919 0.0
C618 C 0.31998 0.48449 0.22527 0.0
C619 C 0.40288 0.5234 0.16915 0.0
O620 O 0.40057 0.50848 0.36113 0.0
O621 O 0.40828 0.46706 0.35447 0.0
O622 O 0.37724 0.4363 0.1924 0.0
O623 O 0.42275 0.4779 0.2076 0.0
O624 O 0.34198 0.42939 0.31397 0.0
O625 O 0.30842 0.40419 0.22053 0.0
O626 O 0.32891 0.41012 0.07315 0.0
O627 O 0.30502 0.43855 0.06797 0.0
O628 O 0.32784 0.46485 0.24872 0.0
O629 O 0.32672 0.48754 0.16592 0.0
O630 O 0.38747 0.49559 0.13021 0.0
O631 O 0.39711 0.52215 0.22987 0.0
H632 H 0.34946 0.47124 0.4322 0.0
H633 H 0.33188 0.45706 0.53938 0.0
H634 H 0.43005 0.48053 0.60711 0.0
H635 H 0.44695 0.49345 0.49902 0.0
H636 H 0.37335 0.44338 0.99556 0.0
H637 H 0.38904 0.45412 0.88623 0.0
H638 H 0.2883 0.4208 0.81786 0.0
H639 H 0.2727 0.40992 0.92763 0.0
Sm640 Sm 0.5932 0.89882 0.13983 0.0
Sm641 Sm 0.58425 0.92895 0.25237 0.0
C642 C 0.5995 0.87783 1.02341 0.0
C643 C 0.59742 0.88573 0.95622 0.0
C644 C 0.57725 0.89805 0.9362 0.0
C645 C 0.57671 0.90672 0.87318 0.0
C646 C 0.59612 0.903 0.82848 0.0
C647 C 0.61616 0.89048 0.84883 0.0
C648 C 0.61686 0.88207 0.91195 0.0
C649 C 0.64478 0.92187 0.24118 0.0
C650 C 0.60289 0.96988 0.12001 0.0
C651 C 0.58971 0.9601 0.36708 0.0
C652 C 0.59131 0.95248 0.43482 0.0
C653 C 0.60952 0.938 0.45468 0.0
C654 C 0.61076 0.93071 0.51852 0.0
C655 C 0.59355 0.93737 0.56429 0.0
C656 C 0.57539 0.95196 0.54413 0.0
C657 C 0.57434 0.95944 0.48026 0.0
C658 C 0.52429 0.89298 0.17878 0.0
C659 C 0.56657 0.85216 0.24739 0.0
O660 O 0.5722 0.8637 0.05115 0.0
O661 O 0.62423 0.90031 0.06232 0.0
O662 O 0.63099 0.93648 0.21921 0.0
O663 O 0.63138 0.89329 0.2089 0.0
O664 O 0.60223 0.94396 0.09367 0.0
O665 O 0.59712 0.97128 0.18199 0.0
O666 O 0.61458 0.96551 0.33531 0.0
O667 O 0.56182 0.94238 0.33161 0.0
O668 O 0.55177 0.911 0.15658 0.0
O669 O 0.5295 0.89024 0.23909 0.0
O670 O 0.58176 0.88049 0.2845 0.0
O671 O 0.56016 0.85251 0.18562 0.0
H672 H 0.56208 0.90121 0.96947 0.0
H673 H 0.56077 0.91599 0.85925 0.0
H674 H 0.63178 0.88768 0.81624 0.0
H675 H 0.63283 0.87289 0.92636 0.0
H676 H 0.62284 0.93223 0.42084 0.0
H677 H 0.62549 0.92006 0.532 0.0
H678 H 0.56144 0.9571 0.57737 0.0
H679 H 0.56003 0.97048 0.46621 0.0
Sm680 Sm 0.12706 0.67064 0.27331 0.0
Sm681 Sm 0.13771 0.70792 0.17323 0.0
C682 C 0.11372 0.64078 0.38075 0.0
C683 C 0.11497 0.64921 0.45019 0.0
C684 C 0.1301 0.68188 0.47647 0.0
C685 C 0.13015 0.68945 0.54229 0.0
C686 C 0.11514 0.66448 0.58304 0.0
C687 C 0.10003 0.63178 0.55629 0.0
C688 C 0.09991 0.62425 0.49043 0.0
C689 C 0.07673 0.64148 0.16845 0.0
C690 C 0.11437 0.7293 0.30301 0.0
C691 C 0.1413 0.73176 0.05983 0.0
C692 C 0.13438 0.72047 0.99066 0.0
C693 C 0.11721 0.68709 0.96885 0.0
C694 C 0.11178 0.67697 0.90268 0.0
C695 C 0.1235 0.70009 0.85733 0.0
C696 C 0.14034 0.7335 0.8798 0.0
C697 C 0.14569 0.74355 0.94581 0.0
C698 C 0.19121 0.74398 0.2635 0.0
C699 C 0.15589 0.64736 0.17028 0.0
O700 O 0.14176 0.65189 0.35639 0.0
O701 O 0.09214 0.64331 0.34376 0.0
O702 O 0.08954 0.66978 0.19653 0.0
O703 O 0.09026 0.62682 0.19579 0.0
O704 O 0.12751 0.71374 0.32897 0.0
O705 O 0.11091 0.7279 0.23904 0.0
O706 O 0.11605 0.72205 0.09296 0.0
O707 O 0.16557 0.73088 0.09052 0.0
O708 O 0.17788 0.71314 0.2478 0.0
O709 O 0.17358 0.75459 0.2367 0.0
O710 O 0.14344 0.66198 0.13511 0.0
O711 O 0.15912 0.65322 0.23273 0.0
H712 H 0.14189 0.70151 0.44618 0.0
H713 H 0.14237 0.71488 0.56142 0.0
H714 H 0.08791 0.61197 0.5861 0.0
H715 H 0.08786 0.59889 0.47082 0.0
H716 H 0.10826 0.66892 1.00294 0.0
H717 H 0.09838 0.65107 0.88705 0.0
H718 H 0.15014 0.75197 0.84646 0.0
H719 H 0.15907 0.76942 0.9619 0.0
C720 C 0.0912 0.34635 0.30671 0.0
C721 C 0.10808 0.37935 0.33163 0.0
H722 H 0.06377 0.29625 0.32629 0.0
C723 C 0.11156 0.386 0.39986 0.0
H724 H 0.08755 0.33987 0.25508 0.0
C725 C 0.09764 0.36097 0.4412 0.0
C726 C 0.07962 0.32803 0.41621 0.0
H727 H 0.12444 0.41094 0.42185 0.0
H728 H 0.10027 0.36755 0.49265 0.0
C729 C 0.07728 0.32123 0.34818 0.0
C730 C 0.70079 0.73872 0.39749 0.0
C731 C 0.71163 0.76906 0.43317 0.0
H732 H 0.67294 0.7057 0.31333 0.0
C733 C 0.70092 0.78945 0.40815 0.0
H734 H 0.708 0.72205 0.41496 0.0
C735 C 0.68014 0.77974 0.34959 0.0
C736 C 0.66955 0.74941 0.31382 0.0
H737 H 0.70866 0.81301 0.43379 0.0
H738 H 0.67229 0.79601 0.3324 0.0
C739 C 0.68043 0.72921 0.33888 0.0
C740 C 0.31329 0.98072 0.36347 0.0
C741 C 0.2846 0.96082 0.39298 0.0
H742 H 0.34411 0.98531 0.28827 0.0
C743 C 0.26521 0.92795 0.36651 0.0
H744 H 0.32841 1.00637 0.38072 0.0
C745 C 0.27406 0.91581 0.31187 0.0
C746 C 0.30248 0.93618 0.28168 0.0
H747 H 0.24232 0.91207 0.38585 0.0
H748 H 0.25822 0.8906 0.29238 0.0
C749 C 0.32212 0.96869 0.30945 0.0
C750 C 0.34374 0.11356 0.65684 0.0
C751 C 0.33382 0.08248 0.62506 0.0
H752 H 0.3721 0.14966 0.73767 0.0
C753 C 0.346 0.06411 0.65396 0.0
H754 H 0.33507 0.12862 0.6366 0.0
C755 C 0.36627 0.07569 0.71295 0.0
C756 C 0.37652 0.1068 0.74462 0.0
H757 H 0.33947 0.0403 0.63128 0.0
H758 H 0.37396 0.06004 0.73384 0.0
C759 C 0.36489 0.1256 0.71533 0.0
C760 C 0.97443 0.3102 0.714 0.0
C761 C 0.94437 0.29012 0.7392 0.0
H762 H 1.00698 0.31564 0.64139 0.0
C763 C 0.92384 0.25865 0.70655 0.0
H764 H 0.991 0.33459 0.73709 0.0
C765 C 0.9331 0.24768 0.65121 0.0
C766 C 0.96322 0.26777 0.62615 0.0
H767 H 0.90046 0.24239 0.7238 0.0
H768 H 0.91665 0.22324 0.62818 0.0
C769 C 0.98363 0.29929 0.65863 0.0
C770 C 0.73301 0.68646 0.6805 0.0
C771 C 0.76221 0.69805 0.65007 0.0
H772 H 0.70311 0.65794 0.75164 0.0
C773 C 0.78363 0.68692 0.67013 0.0
H774 H 0.71601 0.69466 0.66771 0.0
C775 C 0.77626 0.66573 0.72006 0.0
C776 C 0.74731 0.65507 0.75148 0.0
H777 H 0.80678 0.69585 0.64965 0.0
H778 H 0.79354 0.6582 0.73489 0.0
C779 C 0.72569 0.66548 0.72962 0.0
C780 C 0.93891 0.69314 0.69095 0.0
C781 C 0.96602 0.69843 0.65758 0.0
H782 H 0.90725 0.6683 0.76398 0.0
C783 C 0.98205 0.68139 0.67496 0.0
H784 H 0.92663 0.70665 0.68082 0.0
C785 C 0.97171 0.66029 0.72453 0.0
C786 C 0.94468 0.65509 0.75822 0.0
H787 H 1.00374 0.68566 0.65243 0.0
H788 H 0.98537 0.64843 0.73724 0.0
C789 C 0.92807 0.67144 0.73952 0.0
C790 C 0.343 0.24885 0.66379 0.0
C791 C 0.3322 0.26806 0.63365 0.0
H792 H 0.37222 0.24541 0.74291 0.0
C793 C 0.3439 0.29987 0.66348 0.0
H794 H 0.3347 0.22429 0.6428 0.0
C795 C 0.36498 0.31182 0.72157 0.0
C796 C 0.37577 0.29267 0.75187 0.0
H797 H 0.33667 0.31573 0.64188 0.0
H798 H 0.37301 0.33631 0.7426 0.0
C799 C 0.36447 0.26098 0.72169 0.0
C800 C 0.72074 0.06957 0.7467 0.0
C801 C 0.74173 0.10183 0.77515 0.0
H802 H 0.71327 0.03091 0.67628 0.0
C803 C 0.77155 0.12057 0.74798 0.0
H804 H 0.69766 0.05417 0.76589 0.0
C805 C 0.78037 0.10716 0.69552 0.0
C806 C 0.75946 0.07473 0.66786 0.0
H807 H 0.78845 0.14547 0.76814 0.0
H808 H 0.80416 0.12179 0.67822 0.0
C809 C 0.72951 0.05628 0.69444 0.0
C810 C 0.67644 0.91282 0.33379 0.0
C811 C 0.6677 0.93341 0.30299 0.0
H812 H 0.70287 0.90709 0.415 0.0
C813 C 0.68033 0.96524 0.33337 0.0
H814 H 0.66745 0.88821 0.31217 0.0
C815 C 0.70012 0.97586 0.39289 0.0
C816 C 0.70873 0.95533 0.42402 0.0
H817 H 0.67484 0.98215 0.31111 0.0
H818 H 0.70893 1.00046 0.41434 0.0
C819 C 0.69668 0.92363 0.39317 0.0
C820 C 0.11199 0.78575 0.43862 0.0
C821 C 0.0802 0.76653 0.4578 0.0
H822 H 0.14764 0.78944 0.37431 0.0
C823 C 0.05895 0.73665 0.42017 0.0
H824 H 0.12914 0.80885 0.46603 0.0
C825 C 0.06925 0.72608 0.3663 0.0
C826 C 0.10122 0.74488 0.34801 0.0
H827 H 0.03442 0.72092 0.43324 0.0
H828 H 0.0526 0.7023 0.34068 0.0
C829 C 0.12246 0.77487 0.3852 0.0
C830 C 0.27682 0.3443 0.30093 0.0
C831 C 0.2956 0.3773 0.3253 0.0
H832 H 0.25118 0.2944 0.32192 0.0
C833 C 0.29928 0.38439 0.39347 0.0
H834 H 0.27339 0.33749 0.24944 0.0
C835 C 0.28659 0.35959 0.43572 0.0
C836 C 0.26974 0.32654 0.4115 0.0
H837 H 0.31329 0.40943 0.41481 0.0
H838 H 0.29163 0.36637 0.4873 0.0
C839 C 0.26425 0.31949 0.34319 0.0
C840 C 1.01945 0.39269 1.03048 0.0
C841 C 1.01155 0.41158 0.99203 0.0
H842 H 0.04496 0.39048 0.11652 0.0
C843 C 0.02529 0.44493 1.01387 0.0
H844 H 1.00836 0.36671 1.01698 0.0
C845 C 0.04638 0.45877 0.07226 0.0
C846 C 0.05394 0.43953 0.1108 0.0
H847 H 1.01861 0.45996 0.98733 0.0
H848 H 0.05634 0.48438 0.08769 0.0
C849 C 0.04016 0.40632 0.08842 0.0
C850 C 0.64071 0.60154 0.03407 0.0
C851 C 0.63793 0.60539 0.96743 0.0
H852 H 0.63272 0.61217 0.13099 0.0
C853 C 0.62219 0.62236 0.94887 0.0
H854 H 0.65253 0.58855 0.05101 0.0
C855 C 0.6105 0.63569 0.99542 0.0
C856 C 0.6143 0.63277 0.06228 0.0
H857 H 0.61959 0.62606 0.89868 0.0
H858 H 0.59908 0.64907 0.97871 0.0
C859 C 0.62927 0.61508 0.0806 0.0
C860 C 0.42231 1.01371 0.95276 0.0
C861 C 0.43627 0.04693 0.97439 0.0
H862 H 0.3999 0.96442 0.97768 0.0
C863 C 0.44006 0.05503 0.04228 0.0
H864 H 0.41861 1.00607 0.90159 0.0
C865 C 0.42903 0.03113 0.08638 0.0
C866 C 0.41373 0.99784 0.06473 0.0
H867 H 0.4509 0.08021 0.06187 0.0
H868 H 0.43163 0.03877 0.13733 0.0
C869 C 0.41129 0.9897 0.99707 0.0
C870 C 0.61802 1.01212 0.96337 0.0
C871 C 0.63153 0.0452 0.98493 0.0
H872 H 0.59815 0.96328 0.98797 0.0
C873 C 0.63281 0.05316 0.05227 0.0
H874 H 0.61646 1.00468 0.91263 0.0
C875 C 0.62233 0.02918 0.09652 0.0
C876 C 0.61017 0.99624 0.07508 0.0
H877 H 0.64287 0.07832 0.07148 0.0
H878 H 0.62495 0.03667 0.14754 0.0
C879 C 0.60759 0.98826 1.00741 0.0
C880 C 0.04619 0.65076 0.07603 0.0
C881 C 0.05535 0.6301 0.10498 0.0
H882 H 1.01789 0.65649 0.99899 0.0
C883 C 0.04394 0.59895 0.07223 0.0
H884 H 0.05405 0.67475 0.09966 0.0
C885 C 0.02298 0.58843 1.01394 0.0
C886 C 1.01355 0.60906 0.98565 0.0
H887 H 0.05033 0.58227 0.09275 0.0
H888 H 1.0129 0.56358 0.99252 0.0
C889 C 0.02575 0.64046 1.0175 0.0
C890 C 0.44333 0.45746 0.08408 0.0
C891 C 0.41437 0.43774 0.11315 0.0
H892 H 0.47441 0.46066 1.0093 0.0
C893 C 0.39341 0.40575 0.08325 0.0
H894 H 0.46025 0.48215 0.10526 0.0
C895 C 0.40118 0.39376 1.02745 0.0
C896 C 0.43016 0.41321 0.99861 0.0
H897 H 0.37115 0.38948 0.10404 0.0
H898 H 0.385 0.36854 1.00822 0.0
C899 C 0.4512 0.4453 1.0281 0.0
C900 C 0.09622 0.20248 0.5174 0.0
C901 C 0.09683 0.22878 0.48865 0.0
H902 H 0.1233 0.17932 0.54703 0.0
C903 C 0.12531 0.24947 0.45919 0.0
H904 H 0.07535 0.18659 0.54229 0.0
C905 C 0.15281 0.24514 0.46117 0.0
C906 C 0.1532 0.22035 0.49419 0.0
H907 H 0.12714 0.27047 0.43792 0.0
H908 H 0.17471 0.26283 0.44116 0.0
C909 C 0.124 0.1985 0.52048 0.0
C910 C 0.79165 0.91474 0.44276 0.0
C911 C 0.81613 0.9432 0.48089 0.0
H912 H 0.77098 0.86288 0.41677 0.0
C913 C 0.84144 0.94097 0.5148 0.0
H914 H 0.77112 0.91495 0.41756 0.0
C915 C 0.84121 0.91127 0.51485 0.0
C916 C 0.8157 0.88223 0.48078 0.0
H917 H 0.86042 0.96191 0.54564 0.0
H918 H 0.86013 0.91063 0.54536 0.0
C919 C 0.7915 0.88468 0.44254 0.0
C920 C 0.0982 0.91216 0.52514 0.0
C921 C 0.09316 0.88268 0.49405 0.0
H922 H 0.13088 0.96333 0.55206 0.0
C923 C 0.11854 0.88458 0.45841 0.0
H924 H 0.07972 0.91195 0.55377 0.0
C925 C 0.14866 0.91466 0.45779 0.0
C926 C 0.15419 0.9437 0.49266 0.0
H927 H 0.11618 0.86244 0.43515 0.0
H928 H 0.16837 0.91462 0.43393 0.0
C929 C 0.12784 0.94187 0.52422 0.0
C930 C 0.20058 0.11976 0.56688 0.0
C931 C 0.22739 0.14936 0.59605 0.0
H932 H 0.18017 0.06859 0.54015 0.0
C933 C 0.25319 0.14774 0.63001 0.0
H934 H 0.18039 0.11981 0.53977 0.0
C935 C 0.25313 0.11777 0.63006 0.0
C936 C 0.2272 0.08866 0.59635 0.0
H937 H 0.27465 0.17 0.65188 0.0
H938 H 0.27459 0.11801 0.65171 0.0
C939 C 0.20044 0.09015 0.56722 0.0
C940 C 0.89432 0.12401 0.63831 0.0
C941 C 0.88318 0.09367 0.6019 0.0
H942 H 0.93231 0.17459 0.6592 0.0
C943 C 0.90536 0.09121 0.56305 0.0
H944 H 0.87769 0.12729 0.66721 0.0
C945 C 0.93648 0.11872 0.55711 0.0
C946 C 0.9469 0.14957 0.59072 0.0
H947 H 0.89755 0.06884 0.53258 0.0
H948 H 0.95168 0.1163 0.52288 0.0
C949 C 0.92578 0.15135 0.63358 0.0
C950 C 0.91286 0.77627 0.61732 0.0
C951 C 0.94248 0.79845 0.59285 0.0
H952 H 0.86268 0.76192 0.63042 0.0
C953 C 0.94419 0.82618 0.56859 0.0
H954 H 0.91026 0.75427 0.63521 0.0
C955 C 0.91648 0.83025 0.5647 0.0
C956 C 0.88624 0.80707 0.58584 0.0
H957 H 0.96604 0.84338 0.54777 0.0
H958 H 0.91815 0.85071 0.54148 0.0
C959 C 0.88538 0.78065 0.61458 0.0
C960 C 0.81944 0.57063 0.74807 0.0
C961 C 0.82354 0.54727 0.77961 0.0
H962 H 0.78809 0.59067 0.72787 0.0
C963 C 0.79596 0.52255 0.80505 0.0
H964 H 0.84029 0.59062 0.7296 0.0
C965 C 0.76628 0.52262 0.8042 0.0
C966 C 0.7628 0.54737 0.77774 0.0
H967 H 0.79815 0.50447 0.83061 0.0
H968 H 0.74673 0.50459 0.8291 0.0
C969 C 0.78938 0.57067 0.74711 0.0
C970 C 0.45681 0.25596 0.75406 0.0
C971 C 0.4833 0.28485 0.78712 0.0
H972 H 0.43431 0.20365 0.73242 0.0
C973 C 0.51013 0.28297 0.81452 0.0
H974 H 0.43521 0.25603 0.73418 0.0
C975 C 0.50948 0.25309 0.81412 0.0
C976 C 0.48205 0.2237 0.78594 0.0
H977 H 0.53067 0.30434 0.84151 0.0
H978 H 0.52964 0.25264 0.84038 0.0
C979 C 0.45624 0.22576 0.75331 0.0
C980 C 0.76417 0.25066 0.8224 0.0
C981 C 0.75771 0.21996 0.7953 0.0
H982 H 0.79919 0.30161 0.84558 0.0
C983 C 0.78211 0.21927 0.76028 0.0
H984 H 0.74641 0.25234 0.85046 0.0
C985 C 0.81299 0.24808 0.75751 0.0
C986 C 0.82013 0.27832 0.78927 0.0
H987 H 0.77854 0.19609 0.74014 0.0
H988 H 0.8322 0.24603 0.7358 0.0
C989 C 0.79461 0.27916 0.81932 0.0
C990 C 0.93183 0.48433 0.94943 0.0
C991 C 0.91052 0.48759 0.9046 0.0
H992 H 0.95067 0.45441 0.98228 0.0
C993 C 0.88704 0.45917 0.86523 0.0
H994 H 0.95097 0.50572 0.979 0.0
C995 C 0.88684 0.42927 0.86718 0.0
C996 C 0.91011 0.42694 0.90857 0.0
H997 H 0.8711 0.46086 0.82827 0.0
H998 H 0.87084 0.40908 0.83146 0.0
C999 C 0.9316 0.45465 0.95143 0.0
C1000 C 0.56443 0.46378 0.94682 0.0
C1001 C 0.553 0.43357 0.91017 0.0
H1002 H 0.60123 0.51465 0.96412 0.0
C1003 C 0.5746 0.43141 0.86876 0.0
H1004 H 0.54838 0.46687 0.9778 0.0
C1005 C 0.60537 0.45929 0.86071 0.0
C1006 C 0.6156 0.49006 0.89426 0.0
H1007 H 0.56642 0.40907 0.8379 0.0
H1008 H 0.61967 0.45741 0.82375 0.0
C1009 C 0.59501 0.49137 0.93906 0.0
C1010 C 0.58014 0.12211 0.93055 0.0
C1011 C 0.60904 0.14266 0.90213 0.0
H1012 H 0.53058 0.10912 0.94625 0.0
C1013 C 0.61034 0.16919 0.87313 0.0
H1014 H 0.57785 0.10101 0.95217 0.0
C1015 C 0.58277 0.17348 0.86862 0.0
C1016 C 0.55313 0.15172 0.89373 0.0
H1017 H 0.63162 0.18504 0.8492 0.0
H1018 H 0.58399 0.1928 0.84187 0.0
C1019 C 0.55283 0.12674 0.92712 0.0
C1020 C 0.49317 0.91707 0.12346 0.0
C1021 C 0.49286 0.89233 0.15773 0.0
H1022 H 0.46812 0.9426 0.09725 0.0
C1023 C 0.46325 0.87068 0.18294 0.0
H1024 H 0.51543 0.93457 0.1042 0.0
C1025 C 0.43568 0.87489 0.17777 0.0
C1026 C 0.43701 0.90126 0.14807 0.0
H1027 H 0.46208 0.85155 0.21032 0.0
H1028 H 0.4144 0.85917 0.20184 0.0
C1029 C 0.46586 0.92165 0.11942 0.0
C1030 C 0.13349 0.59025 0.11247 0.0
C1031 C 0.15986 0.61916 0.1458 0.0
H1032 H 0.11112 0.53796 0.09066 0.0
C1033 C 0.1866 0.61728 0.17368 0.0
H1034 H 0.11196 0.59031 0.09213 0.0
C1035 C 0.18599 0.58741 0.17341 0.0
C1036 C 0.15864 0.55798 0.14503 0.0
H1037 H 0.20706 0.63865 0.20085 0.0
H1038 H 0.20612 0.58701 0.19992 0.0
C1039 C 0.13294 0.56005 0.11191 0.0
C1040 C 0.48435 0.58155 0.10447 0.0
C1041 C 0.49475 0.61136 0.14223 0.0
H1042 H 0.44715 0.5309 0.08124 0.0
C1043 C 0.47215 0.61286 0.1812 0.0
H1044 H 0.50135 0.5791 0.07528 0.0
C1045 C 0.44128 0.58484 0.18595 0.0
C1046 C 0.43167 0.55448 0.15112 0.0
H1047 H 0.47943 0.63486 0.21252 0.0
H1048 H 0.42563 0.58651 0.22002 0.0
C1049 C 0.45319 0.55371 0.10811 0.0
C1050 C 0.53377 0.76123 0.24235 0.0
C1051 C 0.56046 0.75961 0.27128 0.0
H1052 H 0.51458 0.79138 0.21338 0.0
C1053 C 0.58671 0.7886 0.30443 0.0
H1054 H 0.51343 0.73971 0.21531 0.0
C1055 C 0.58735 0.81873 0.30346 0.0
C1056 C 0.56189 0.82055 0.2688 0.0
H1057 H 0.60818 0.78865 0.32554 0.0
H1058 H 0.60912 0.84092 0.32451 0.0
C1059 C 0.53452 0.79107 0.24092 0.0
C1060 C 0.27066 0.82557 0.30045 0.0
C1061 C 0.29068 0.82278 0.25615 0.0
H1062 H 0.2235 0.80259 0.33787 0.0
C1063 C 0.27972 0.79146 0.22438 0.0
H1064 H 0.27777 0.84921 0.32498 0.0
C1065 C 0.24885 0.76439 0.2331 0.0
C1066 C 0.22758 0.76789 0.27294 0.0
H1067 H 0.29418 0.78829 0.18934 0.0
H1068 H 0.24044 0.74152 0.20392 0.0
C1069 C 0.23944 0.79867 0.30798 0.0
C1070 C 0.28869 0.51412 0.21897 0.0
C1071 C 0.29199 0.48895 0.24385 0.0
H1072 H 0.25731 0.53331 0.19611 0.0
C1073 C 0.26536 0.46541 0.27407 0.0
H1074 H 0.30838 0.53256 0.19499 0.0
C1075 C 0.23556 0.46585 0.27473 0.0
C1076 C 0.2317 0.48985 0.24524 0.0
H1077 H 0.26663 0.4453 0.29285 0.0
H1078 H 0.21485 0.44605 0.29392 0.0
C1079 C 0.25923 0.51456 0.21965 0.0
C1080 C 0.0241 0.23079 0.06505 0.0
C1081 C 1.00554 0.24294 0.09324 0.0
H1082 H 0.04698 0.22674 0.98223 0.0
C1083 C 0.99587 0.26113 0.05637 0.0
H1084 H 0.03144 0.2161 0.09112 0.0
C1085 C 1.00468 0.26709 0.99338 0.0
C1086 C 0.02354 0.25517 0.96563 0.0
H1087 H 0.98194 0.27128 0.07652 0.0
H1088 H 0.99727 0.28161 0.96688 0.0
C1089 C 0.033 0.23684 1.00233 0.0
C1090 C 0.79065 0.79976 0.09375 0.0
C1091 C 0.78122 0.76778 0.10732 0.0
H1092 H 0.7975 0.83222 1.0218 0.0
C1093 C 0.77061 0.74342 0.05521 0.0
H1094 H 0.79959 0.81934 0.13234 0.0
C1095 C 0.76945 0.75087 0.99141 0.0
C1096 C 0.77884 0.78288 0.97798 0.0
H1097 H 0.76275 0.71843 0.06368 0.0
H1098 H 0.76072 0.7314 0.95264 0.0
C1099 C 0.78947 0.80718 1.03012 0.0
C1100 C 0.24127 0.98628 0.0604 0.0
C1101 C 0.24809 0.01782 0.08212 0.0
H1102 H 0.23421 0.95271 0.97955 0.0
C1103 C 0.2531 0.04001 0.0364 0.0
H1104 H 0.23684 0.96843 0.09418 0.0
C1105 C 0.25159 0.031 0.97075 0.0
C1106 C 0.24497 0.99954 0.94898 0.0
H1107 H 0.25898 0.06467 0.05145 0.0
H1108 H 0.25643 0.04904 0.9372 0.0
C1109 C 0.23973 0.97725 0.99464 0.0
C1110 C 0.04908 0.77493 1.03004 0.0
C1111 C 0.03394 0.7871 0.98911 0.0
H1112 H 0.05205 0.75883 0.12272 0.0
C1113 C 1.00983 0.79281 1.01272 0.0
H1114 H 0.06743 0.76982 1.01327 0.0
C1115 C 1.00098 0.78642 0.07529 0.0
C1116 C 1.01601 0.77419 0.11617 0.0
H1117 H 0.99809 0.80276 0.98319 0.0
H1118 H 0.98265 0.79158 0.092 0.0
C1119 C 0.04026 0.76861 0.09283 0.0
C1120 C 0.22711 0.23688 0.062 0.0
C1121 C 0.25684 0.24331 0.09514 0.0
H1122 H 0.20257 0.23874 0.97417 0.0
C1123 C 0.28548 0.25814 0.06307 0.0
H1124 H 0.20445 0.22511 0.08456 0.0
C1125 C 0.28435 0.26583 0.99955 0.0
C1126 C 0.25457 0.25905 0.96621 0.0
H1127 H 0.30897 0.26414 0.08724 0.0
H1128 H 0.30695 0.27741 0.97673 0.0
C1129 C 0.22601 0.24469 0.99851 0.0
C1130 C 0.77741 0.0367 0.06516 0.0
C1131 C 0.77874 0.01613 0.10943 0.0
H1132 H 0.77311 0.0446 0.96608 0.0
C1133 C 0.77601 0.98652 0.08556 0.0
H1134 H 0.77878 0.05938 0.0818 0.0
C1135 C 0.77269 0.97801 1.0191 0.0
C1136 C 0.77207 0.99894 0.97493 0.0
H1137 H 0.77735 0.97028 0.11821 0.0
H1138 H 0.77146 0.95541 1.00234 0.0
C1139 C 0.77417 0.02824 0.99878 0.0
C1140 C 0.69172 0.55979 0.30118 0.0
C1141 C 0.70947 0.59114 0.28034 0.0
H1142 H 0.66934 0.53116 0.3784 0.0
C1143 C 0.71814 0.61832 0.3249 0.0
H1144 H 0.68515 0.53826 0.26902 0.0
C1145 C 0.70918 0.6142 0.38815 0.0
C1146 C 0.69116 0.5828 0.40861 0.0
H1147 H 0.73139 0.64285 0.31067 0.0
H1148 H 0.71582 0.63565 0.42065 0.0
C1149 C 0.68267 0.55569 0.3642 0.0
C1150 C 0.48107 0.12892 0.38471 0.0
C1151 C 0.45255 0.11406 0.41708 0.0
H1152 H 0.50244 0.14892 0.29878 0.0
C1153 C 0.42261 0.10688 0.38373 0.0
H1154 H 0.50464 0.13523 0.40898 0.0
C1155 C 0.42129 0.11456 0.32017 0.0
C1156 C 0.44988 0.12985 0.28798 0.0
H1157 H 0.40003 0.09493 0.40654 0.0
H1158 H 0.39766 0.10815 0.29606 0.0
C1159 C 0.47978 0.13676 0.32124 0.0
C1160 C 0.90376 0.30801 0.32415 0.0
C1161 C 0.92788 0.32799 0.28515 0.0
H1162 H 0.88811 0.30096 0.4192 0.0
C1163 C 0.95649 0.35577 0.3148 0.0
H1164 H 0.88132 0.28656 0.30281 0.0
C1165 C 0.96045 0.36394 0.38145 0.0
C1166 C 0.93584 0.34462 0.42028 0.0
H1167 H 0.97588 0.3713 0.2864 0.0
H1168 H 0.98279 0.38556 0.40256 0.0
C1169 C 0.90768 0.31624 0.39093 0.0
C1170 C 0.67897 0.14071 0.33131 0.0
C1171 C 0.69851 0.13 0.30231 0.0
H1172 H 0.65544 0.14278 0.41462 0.0
C1173 C 0.70893 0.11201 0.33794 0.0
H1174 H 0.67095 0.15512 0.30613 0.0
C1175 C 0.70006 0.10497 0.40059 0.0
C1176 C 0.68043 0.11562 0.42939 0.0
H1177 H 0.72357 0.10288 0.31708 0.0
H1178 H 0.70814 0.09067 0.42602 0.0
C1179 C 0.67007 0.13363 0.39379 0.0
C1180 C 0.90234 0.59169 0.33394 0.0
C1181 C 0.9255 0.59495 0.29116 0.0
H1182 H 0.888 0.58395 0.42974 0.0
C1183 C 0.9536 0.59447 0.31522 0.0
H1184 H 0.88025 0.59161 0.31694 0.0
C1185 C 0.95815 0.59025 0.38003 0.0
C1186 C 0.93464 0.58624 0.42257 0.0
H1187 H 0.97225 0.59755 0.28398 0.0
H1188 H 0.98021 0.59024 0.39682 0.0
C1189 C 0.90683 0.58734 0.39876 0.0
C1190 C 0.44414 0.32056 0.34138 0.0
C1191 C 0.44133 0.33979 0.29562 0.0
H1192 H 0.44864 0.31403 0.44127 0.0
C1193 C 0.43926 0.36716 0.3175 0.0
H1194 H 0.44616 0.29953 0.3263 0.0
C1195 C 0.44053 0.3754 0.38348 0.0
C1196 C 0.444 0.35656 0.42937 0.0
H1197 H 0.43646 0.38215 0.28355 0.0
H1198 H 0.4387 0.39656 0.39853 0.0
C1199 C 0.44548 0.32885 0.4074 0.0
C1200 C 0.33228 0.90294 0.63163 0.0
C1201 C 0.36355 0.92884 0.62186 0.0
H1202 H 0.29919 0.87516 0.69942 0.0
C1203 C 0.38529 0.94748 0.67679 0.0
H1204 H 0.31494 0.88765 0.59097 0.0
C1205 C 0.37629 0.9401 0.73922 0.0
C1206 C 0.34518 0.91397 0.74887 0.0
H1207 H 0.40931 0.96806 0.67173 0.0
H1208 H 0.39367 0.95515 0.78007 0.0
C1209 C 0.32322 0.89568 0.6941 0.0
C1210 C 0.13013 0.43113 0.72682 0.0
C1211 C 0.13389 0.45302 0.77958 0.0
H1212 H 0.12591 0.42141 0.62394 0.0
C1213 C 0.1373 0.48325 0.76679 0.0
H1214 H 0.12694 0.40744 0.7344 0.0
C1215 C 0.13644 0.49112 0.70339 0.0
C1216 C 0.13238 0.46914 0.65071 0.0
H1217 H 0.14095 0.5011 0.80588 0.0
H1218 H 0.13934 0.51469 0.69568 0.0
C1219 C 0.12947 0.43911 0.6633 0.0
C1220 C 0.59746 0.67567 0.74436 0.0
C1221 C 0.60197 0.70621 0.76704 0.0
H1222 H 0.59226 0.64345 0.66274 0.0
C1223 C 0.60477 0.72806 0.72188 0.0
H1224 H 0.59586 0.65849 0.7778 0.0
C1225 C 0.60262 0.7194 0.65572 0.0
C1226 C 0.59769 0.68868 0.63294 0.0
H1227 H 0.60791 0.75164 0.73756 0.0
H1228 H 0.60405 0.73653 0.62234 0.0
C1229 C 0.59541 0.66706 0.67827 0.0
C1230 C 0.33661 0.45987 0.73643 0.0
C1231 C 0.3497 0.4453 0.77582 0.0
H1232 H 0.33606 0.47896 0.64634 0.0
C1233 C 0.37241 0.43778 0.75078 0.0
H1234 H 0.31945 0.46646 0.75422 0.0
C1235 C 0.3818 0.44472 0.68838 0.0
C1236 C 0.36896 0.45961 0.64911 0.0
H1237 H 0.38266 0.42609 0.77915 0.0
H1238 H 0.39889 0.438 0.67074 0.0
C1239 C 0.34615 0.467 0.67422 0.0
C1240 C 0.59554 0.89209 0.70834 0.0
C1241 C 0.5954 0.91192 0.76094 0.0
H1242 H 0.59429 0.88391 0.60604 0.0
C1243 C 0.59464 0.94028 0.74832 0.0
H1244 H 0.5956 0.8698 0.7159 0.0
C1245 C 0.59416 0.9486 0.68498 0.0
C1246 C 0.59423 0.92871 0.63225 0.0
H1247 H 0.59499 0.95642 0.78758 0.0
H1248 H 0.59424 0.97095 0.67755 0.0
C1249 C 0.59487 0.90028 0.64507 0.0
C1250 C 0.11055 0.69802 0.67524 0.0
C1251 C 0.11564 0.67256 0.65326 0.0
H1252 H 0.10823 0.72615 0.75652 0.0
C1253 C 0.12186 0.65527 0.69896 0.0
H1254 H 0.10509 0.71143 0.64133 0.0
C1255 C 0.12369 0.66372 0.76502 0.0
C1256 C 0.11932 0.68966 0.78705 0.0
H1257 H 0.12626 0.63576 0.68372 0.0
H1258 H 0.12956 0.65056 0.79883 0.0
C1259 C 0.11232 0.70644 0.74129 0.0
loop_
_geom_bond_atom_site_label_1
_geom_bond_atom_site_label_2
_geom_bond_distance
_geom_bond_site_symmetry_2
_ccdc_geom_bond_type
Sm0 C2 2.846 . S
Sm0 O20 2.540 1_455 S
Sm0 O21 2.450 . S
Sm0 O22 2.681 . S
Sm0 O23 2.464 . S
Sm0 O24 2.396 1_455 S
Sm0 O28 2.386 1_455 S
Sm0 O31 2.408 . S
Sm1 C11 2.846 . S
Sm1 O22 2.386 1_655 S
Sm1 O25 2.408 . S
Sm1 O26 2.543 1_655 S
Sm1 O27 2.450 . S
Sm1 O28 2.681 . S
Sm1 O29 2.464 . S
Sm1 O30 2.396 1_655 S
C2 Sm0 2.846 . S
C2 C3 1.506 . S
C2 O20 1.257 1_455 S
C2 O21 1.242 . S
C3 C2 1.506 . S
C3 C4 1.358 1_455 S
C3 C8 1.382 . S
C4 C3 1.358 1_655 S
C4 C5 1.385 . S
C4 H32 0.930 . S
C5 C4 1.385 . S
C5 C6 1.395 1_655 S
C5 H33 0.929 . S
C6 C5 1.395 1_455 S
C6 C7 1.335 . S
C7 C6 1.335 . S
C7 C8 1.398 . S
C7 H34 0.930 . S
C8 C3 1.382 . S
C8 C7 1.398 . S
C8 H35 0.929 . S
C9 O22 1.271 . S
C9 O23 1.251 . S
C10 O24 1.252 . S
C10 O25 1.272 . S
C11 Sm1 2.846 . S
C11 C12 1.506 . S
C11 O26 1.261 1_655 S
C11 O27 1.242 . S
C12 C11 1.506 . S
C12 C13 1.358 1_655 S
C12 C17 1.382 . S
C13 C12 1.358 1_455 S
C13 C14 1.385 . S
C13 H36 0.930 . S
C14 C13 1.385 . S
C14 C15 1.395 . S
C14 H37 0.929 . S
C15 C14 1.395 . S
C15 C16 1.335 1_455 S
C16 C15 1.335 1_655 S
C16 C17 1.398 . S
C16 H38 0.930 . S
C17 C12 1.382 . S
C17 C16 1.398 . S
C17 H39 0.929 . S
C18 O28 1.271 . S
C18 O29 1.251 . S
C19 O30 1.252 . S
C19 O31 1.272 . S
O20 Sm0 2.540 1_655 S
O20 C2 1.257 1_655 S
O21 Sm0 2.450 . S
O21 C2 1.242 . S
O22 Sm0 2.681 . S
O22 Sm1 2.386 1_455 S
O22 C9 1.271 . S
O23 Sm0 2.464 . S
O23 C9 1.251 . S
O24 Sm0 2.396 1_655 S
O24 C10 1.252 . S
O25 Sm1 2.408 . S
O25 C10 1.272 . S
O26 Sm1 2.543 1_455 S
O26 C11 1.261 1_455 S
O27 Sm1 2.450 . S
O27 C11 1.242 . S
O28 Sm0 2.386 1_655 S
O28 Sm1 2.681 . S
O28 C18 1.271 . S
O29 Sm1 2.464 . S
O29 C18 1.251 . S
O30 Sm1 2.396 1_455 S
O30 C19 1.252 . S
O31 Sm0 2.408 . S
O31 C19 1.272 . S
H32 C4 0.930 . S
H33 C5 0.929 . S
H34 C7 0.930 . S
H35 C8 0.929 . S
H36 C13 0.930 . S
H37 C14 0.929 . S
H38 C16 0.930 . S
H39 C17 0.929 . S
Sm40 C42 2.846 . S
Sm40 O60 2.543 . S
Sm40 O61 2.450 . S
Sm40 O62 2.681 . S
Sm40 O63 2.464 . S
Sm40 O64 2.396 . S
Sm40 O68 2.386 . S
Sm40 O71 2.408 . S
Sm41 C51 2.846 . S
Sm41 O62 2.386 . S
Sm41 O65 2.408 . S
Sm41 O66 2.543 . S
Sm41 O67 2.450 . S
Sm41 O68 2.681 . S
Sm41 O69 2.464 . S
Sm41 O70 2.396 . S
C42 Sm40 2.846 . S
C42 C43 1.506 . S
C42 O60 1.261 . S
C42 O61 1.242 . S
C43 C42 1.506 . S
C43 C44 1.358 . S
C43 C48 1.382 . S
C44 C43 1.358 . S
C44 C45 1.385 . S
C44 H72 0.930 . S
C45 C44 1.385 . S
C45 C46 1.395 . S
C45 H73 0.929 . S
C46 C45 1.395 . S
C46 C47 1.335 . S
C47 C46 1.335 . S
C47 C48 1.398 . S
C47 H74 0.930 . S
C48 C43 1.382 . S
C48 C47 1.398 . S
C48 H75 0.929 . S
C49 O62 1.271 . S
C49 O63 1.251 . S
C50 O64 1.252 . S
C50 O65 1.272 . S
C51 Sm41 2.846 . S
C51 C52 1.506 . S
C51 O66 1.261 . S
C51 O67 1.242 . S
C52 C51 1.506 . S
C52 C53 1.358 . S
C52 C57 1.382 . S
C53 C52 1.358 . S
C53 C54 1.385 . S
C53 H76 0.930 . S
C54 C53 1.385 . S
C54 C55 1.395 . S
C54 H77 0.929 . S
C55 C54 1.395 . S
C55 C56 1.335 . S
C56 C55 1.335 . S
C56 C57 1.398 . S
C56 H78 0.930 . S
C57 C52 1.382 . S
C57 C56 1.398 . S
C57 H79 0.929 . S
C58 O68 1.271 . S
C58 O69 1.251 . S
C59 O70 1.252 . S
C59 O71 1.272 . S
O60 Sm40 2.543 . S
O60 C42 1.261 . S
O61 Sm40 2.450 . S
O61 C42 1.242 . S
O62 Sm40 2.681 . S
O62 Sm41 2.386 . S
O62 C49 1.271 . S
O63 Sm40 2.464 . S
O63 C49 1.251 . S
O64 Sm40 2.396 . S
O64 C50 1.252 . S
O65 Sm41 2.408 . S
O65 C50 1.272 . S
O66 Sm41 2.543 . S
O66 C51 1.261 . S
O67 Sm41 2.450 . S
O67 C51 1.242 . S
O68 Sm40 2.386 . S
O68 Sm41 2.681 . S
O68 C58 1.271 . S
O69 Sm41 2.464 . S
O69 C58 1.251 . S
O70 Sm41 2.396 . S
O70 C59 1.252 . S
O71 Sm40 2.408 . S
O71 C59 1.272 . S
H72 C44 0.930 . S
H73 C45 0.929 . S
H74 C47 0.930 . S
H75 C48 0.929 . S
H76 C53 0.930 . S
H77 C54 0.929 . S
H78 C56 0.930 . S
H79 C57 0.929 . S
Sm80 C82 2.846 . S
Sm80 O100 2.543 1_565 S
Sm80 O101 2.450 . S
Sm80 O102 2.681 . S
Sm80 O103 2.464 . S
Sm80 O104 2.396 1_565 S
Sm80 O108 2.386 1_565 S
Sm80 O111 2.408 . S
Sm81 C91 2.846 . S
Sm81 O102 2.386 1_545 S
Sm81 O105 2.408 . S
Sm81 O106 2.543 1_545 S
Sm81 O107 2.450 . S
Sm81 O108 2.681 . S
Sm81 O109 2.464 . S
Sm81 O110 2.396 1_545 S
C82 Sm80 2.846 . S
C82 C83 1.506 1_565 S
C82 O100 1.261 1_565 S
C82 O101 1.242 . S
C83 C82 1.506 1_545 S
C83 C84 1.358 . S
C83 C88 1.382 1_545 S
C84 C83 1.358 . S
C84 C85 1.385 . S
C84 H112 0.930 . S
C85 C84 1.385 . S
C85 C86 1.395 . S
C85 H113 0.929 . S
C86 C85 1.395 . S
C86 C87 1.335 1_545 S
C87 C86 1.335 1_565 S
C87 C88 1.398 . S
C87 H114 0.930 . S
C88 C83 1.382 1_565 S
C88 C87 1.398 . S
C88 H115 0.929 . S
C89 O102 1.271 . S
C89 O103 1.251 . S
C90 O104 1.252 . S
C90 O105 1.272 . S
C91 Sm81 2.846 . S
C91 C92 1.513 . S
C91 O106 1.261 1_545 S
C91 O107 1.242 . S
C92 C91 1.513 . S
C92 C93 1.340 1_545 S
C92 C97 1.394 . S
C93 C92 1.340 1_565 S
C93 C94 1.385 . S
C93 H116 0.930 . S
C94 C93 1.385 . S
C94 C95 1.395 . S
C94 H117 0.929 . S
C95 C94 1.395 . S
C95 C96 1.335 1_565 S
C96 C95 1.335 1_545 S
C96 C97 1.398 . S
C96 H118 0.930 . S
C97 C92 1.394 . S
C97 C96 1.398 . S
C97 H119 0.929 . S
C98 O108 1.271 . S
C98 O109 1.251 . S
C99 O110 1.252 . S
C99 O111 1.272 . S
O100 Sm80 2.543 1_545 S
O100 C82 1.261 1_545 S
O101 Sm80 2.450 . S
O101 C82 1.242 . S
O102 Sm80 2.681 . S
O102 Sm81 2.386 1_565 S
O102 C89 1.271 . S
O103 Sm80 2.464 . S
O103 C89 1.251 . S
O104 Sm80 2.396 1_545 S
O104 C90 1.252 . S
O105 Sm81 2.408 . S
O105 C90 1.272 . S
O106 Sm81 2.543 1_565 S
O106 C91 1.261 1_565 S
O107 Sm81 2.450 . S
O107 C91 1.242 . S
O108 Sm80 2.386 1_545 S
O108 Sm81 2.681 . S
O108 C98 1.271 . S
O109 Sm81 2.464 . S
O109 C98 1.251 . S
O110 Sm81 2.396 1_565 S
O110 C99 1.252 . S
O111 Sm80 2.408 . S
O111 C99 1.272 . S
H112 C84 0.930 . S
H113 C85 0.929 . S
H114 C87 0.930 . S
H115 C88 0.929 . S
H116 C93 0.930 . S
H117 C94 0.929 . S
H118 C96 0.930 . S
H119 C97 0.929 . S
Sm120 C122 2.846 . S
Sm120 O140 2.543 1_455 S
Sm120 O141 2.450 . S
Sm120 O142 2.681 . S
Sm120 O143 2.464 . S
Sm120 O144 2.396 1_455 S
Sm120 O148 2.386 1_455 S
Sm120 O151 2.408 . S
Sm121 C131 2.846 . S
Sm121 O142 2.386 1_655 S
Sm121 O145 2.408 . S
Sm121 O146 2.543 1_655 S
Sm121 O147 2.450 . S
Sm121 O148 2.681 . S
Sm121 O149 2.464 . S
Sm121 O150 2.396 1_655 S
C122 Sm120 2.846 . S
C122 C123 1.506 . S
C122 O140 1.261 1_455 S
C122 O141 1.242 . S
C123 C122 1.506 . S
C123 C124 1.358 1_455 S
C123 C128 1.382 . S
C124 C123 1.358 1_655 S
C124 C125 1.385 . S
C124 H152 0.930 . S
C125 C124 1.385 . S
C125 C126 1.395 1_655 S
C125 H153 0.929 . S
C126 C125 1.395 1_455 S
C126 C127 1.335 . S
C127 C126 1.335 . S
C127 C128 1.398 . S
C127 H154 0.930 . S
C128 C123 1.382 . S
C128 C127 1.398 . S
C128 H155 0.929 . S
C129 O142 1.271 . S
C129 O143 1.251 . S
C130 O144 1.252 . S
C130 O145 1.272 . S
C131 Sm121 2.846 . S
C131 C132 1.506 . S
C131 O146 1.261 1_655 S
C131 O147 1.242 . S
C132 C131 1.506 . S
C132 C133 1.358 1_655 S
C132 C137 1.382 . S
C133 C132 1.358 1_455 S
C133 C134 1.385 . S
C133 H156 0.930 . S
C134 C133 1.385 . S
C134 C135 1.395 1_455 S
C134 H157 0.929 . S
C135 C134 1.395 1_655 S
C135 C136 1.335 . S
C136 C135 1.335 . S
C136 C137 1.398 . S
C136 H158 0.930 . S
C137 C132 1.382 . S
C137 C136 1.398 . S
C137 H159 0.929 . S
C138 O148 1.271 . S
C138 O149 1.251 . S
C139 O150 1.252 . S
C139 O151 1.272 . S
O140 Sm120 2.543 1_655 S
O140 C122 1.261 1_655 S
O141 Sm120 2.450 . S
O141 C122 1.242 . S
O142 Sm120 2.681 . S
O142 Sm121 2.386 1_455 S
O142 C129 1.271 . S
O143 Sm120 2.464 . S
O143 C129 1.251 . S
O144 Sm120 2.396 1_655 S
O144 C130 1.252 . S
O145 Sm121 2.408 . S
O145 C130 1.272 . S
O146 Sm121 2.543 1_455 S
O146 C131 1.261 1_455 S
O147 Sm121 2.450 . S
O147 C131 1.242 . S
O148 Sm120 2.386 1_655 S
O148 Sm121 2.681 . S
O148 C138 1.271 . S
O149 Sm121 2.464 . S
O149 C138 1.251 . S
O150 Sm121 2.396 1_455 S
O150 C139 1.252 . S
O151 Sm120 2.408 . S
O151 C139 1.272 . S
H152 C124 0.930 . S
H153 C125 0.929 . S
H154 C127 0.930 . S
H155 C128 0.929 . S
H156 C133 0.930 . S
H157 C134 0.929 . S
H158 C136 0.930 . S
H159 C137 0.929 . S
Sm160 C162 2.846 . S
Sm160 O180 2.543 . S
Sm160 O181 2.450 . S
Sm160 O182 2.681 . S
Sm160 O183 2.464 . S
Sm160 O184 2.396 . S
Sm160 O188 2.386 . S
Sm160 O191 2.408 . S
Sm161 C171 2.846 . S
Sm161 O182 2.386 . S
Sm161 O185 2.408 . S
Sm161 O186 2.543 . S
Sm161 O187 2.450 . S
Sm161 O188 2.681 . S
Sm161 O189 2.464 . S
Sm161 O190 2.396 . S
C162 Sm160 2.846 . S
C162 C163 1.506 . S
C162 O180 1.261 . S
C162 O181 1.242 . S
C163 C162 1.506 . S
C163 C164 1.358 . S
C163 C168 1.382 . S
C164 C163 1.358 . S
C164 C165 1.385 . S
C164 H192 0.930 . S
C165 C164 1.385 . S
C165 C166 1.395 . S
C165 H193 0.929 . S
C166 C165 1.395 . S
C166 C167 1.335 . S
C167 C166 1.335 . S
C167 C168 1.398 . S
C167 H194 0.930 . S
C168 C163 1.382 . S
C168 C167 1.398 . S
C168 H195 0.929 . S
C169 O182 1.271 . S
C169 O183 1.251 . S
C170 O184 1.252 . S
C170 O185 1.272 . S
C171 Sm161 2.846 . S
C171 C172 1.506 . S
C171 O186 1.261 . S
C171 O187 1.242 . S
C172 C171 1.506 . S
C172 C173 1.358 . S
C172 C177 1.382 . S
C173 C172 1.358 . S
C173 C174 1.385 . S
C173 H196 0.930 . S
C174 C173 1.385 . S
C174 C175 1.395 . S
C174 H197 0.929 . S
C175 C174 1.395 . S
C175 C176 1.335 . S
C176 C175 1.335 . S
C176 C177 1.398 . S
C176 H198 0.930 . S
C177 C172 1.382 . S
C177 C176 1.398 . S
C177 H199 0.929 . S
C178 O188 1.271 . S
C178 O189 1.251 . S
C179 O190 1.252 . S
C179 O191 1.272 . S
O180 Sm160 2.543 . S
O180 C162 1.261 . S
O181 Sm160 2.450 . S
O181 C162 1.242 . S
O182 Sm160 2.681 . S
O182 Sm161 2.386 . S
O182 C169 1.271 . S
O183 Sm160 2.464 . S
O183 C169 1.251 . S
O184 Sm160 2.396 . S
O184 C170 1.252 . S
O185 Sm161 2.408 . S
O185 C170 1.272 . S
O186 Sm161 2.543 . S
O186 C171 1.261 . S
O187 Sm161 2.450 . S
O187 C171 1.242 . S
O188 Sm160 2.386 . S
O188 Sm161 2.681 . S
O188 C178 1.271 . S
O189 Sm161 2.464 . S
O189 C178 1.251 . S
O190 Sm161 2.396 . S
O190 C179 1.252 . S
O191 Sm160 2.408 . S
O191 C179 1.272 . S
H192 C164 0.930 . S
H193 C165 0.929 . S
H194 C167 0.930 . S
H195 C168 0.929 . S
H196 C173 0.930 . S
H197 C174 0.929 . S
H198 C176 0.930 . S
H199 C177 0.929 . S
Sm200 C202 2.846 . S
Sm200 O220 2.543 1_565 S
Sm200 O221 2.450 . S
Sm200 O222 2.681 . S
Sm200 O223 2.464 . S
Sm200 O224 2.396 1_565 S
Sm200 O228 2.386 1_565 S
Sm200 O231 2.408 . S
Sm201 C211 2.846 . S
Sm201 O222 2.386 1_545 S
Sm201 O225 2.408 . S
Sm201 O226 2.543 1_545 S
Sm201 O227 2.450 . S
Sm201 O228 2.681 . S
Sm201 O229 2.464 . S
Sm201 O230 2.396 1_545 S
C202 Sm200 2.846 . S
C202 C203 1.506 1_565 S
C202 O220 1.261 1_565 S
C202 O221 1.242 . S
C203 C202 1.506 1_545 S
C203 C204 1.358 . S
C203 C208 1.382 1_545 S
C204 C203 1.358 . S
C204 C205 1.385 . S
C204 H232 0.930 . S
C205 C204 1.385 . S
C205 C206 1.395 . S
C205 H233 0.929 . S
C206 C205 1.395 . S
C206 C207 1.335 1_545 S
C207 C206 1.335 1_565 S
C207 C208 1.398 . S
C207 H234 0.930 . S
C208 C203 1.382 1_565 S
C208 C207 1.398 . S
C208 H235 0.929 . S
C209 O222 1.271 . S
C209 O223 1.251 . S
C210 O224 1.252 . S
C210 O225 1.272 . S
C211 Sm201 2.846 . S
C211 C212 1.506 . S
C211 O226 1.261 1_545 S
C211 O227 1.242 . S
C212 C211 1.506 . S
C212 C213 1.358 1_545 S
C212 C217 1.382 . S
C213 C212 1.358 1_565 S
C213 C214 1.385 . S
C213 H236 0.930 . S
C214 C213 1.385 . S
C214 C215 1.395 . S
C214 H237 0.929 . S
C215 C214 1.395 . S
C215 C216 1.335 1_565 S
C216 C215 1.335 1_545 S
C216 C217 1.398 . S
C216 H238 0.930 . S
C217 C212 1.382 . S
C217 C216 1.398 . S
C217 H239 0.929 . S
C218 O228 1.271 . S
C218 O229 1.251 . S
C219 O230 1.252 . S
C219 O231 1.272 . S
O220 Sm200 2.543 1_545 S
O220 C202 1.261 1_545 S
O221 Sm200 2.450 . S
O221 C202 1.242 . S
O222 Sm200 2.681 . S
O222 Sm201 2.386 1_565 S
O222 C209 1.271 . S
O223 Sm200 2.464 . S
O223 C209 1.251 . S
O224 Sm200 2.396 1_545 S
O224 C210 1.252 . S
O225 Sm201 2.408 . S
O225 C210 1.272 . S
O226 Sm201 2.543 1_565 S
O226 C211 1.261 1_565 S
O227 Sm201 2.450 . S
O227 C211 1.242 . S
O228 Sm200 2.386 1_545 S
O228 Sm201 2.681 . S
O228 C218 1.271 . S
O229 Sm201 2.464 . S
O229 C218 1.251 . S
O230 Sm201 2.396 1_565 S
O230 C219 1.252 . S
O231 Sm200 2.408 . S
O231 C219 1.272 . S
H232 C204 0.930 . S
H233 C205 0.929 . S
H234 C207 0.930 . S
H235 C208 0.929 . S
H236 C213 0.930 . S
H237 C214 0.929 . S
H238 C216 0.930 . S
H239 C217 0.929 . S
Sm240 C242 2.846 . S
Sm240 O260 2.543 . S
Sm240 O261 2.450 . S
Sm240 O262 2.681 . S
Sm240 O263 2.464 . S
Sm240 O264 2.396 . S
Sm240 O268 2.386 . S
Sm240 O271 2.408 . S
Sm241 C251 2.846 . S
Sm241 O262 2.386 . S
Sm241 O265 2.408 . S
Sm241 O266 2.543 . S
Sm241 O267 2.450 . S
Sm241 O268 2.681 . S
Sm241 O269 2.464 . S
Sm241 O270 2.396 . S
C242 Sm240 2.846 . S
C242 C243 1.506 . S
C242 O260 1.261 . S
C242 O261 1.242 . S
C243 C242 1.506 . S
C243 C244 1.358 . S
C243 C248 1.382 . S
C244 C243 1.358 . S
C244 C245 1.385 . S
C244 H272 0.930 . S
C245 C244 1.385 . S
C245 C246 1.395 . S
C245 H273 0.929 . S
C246 C245 1.395 . S
C246 C247 1.335 . S
C247 C246 1.335 . S
C247 C248 1.398 . S
C247 H274 0.930 . S
C248 C243 1.382 . S
C248 C247 1.398 . S
C248 H275 0.929 . S
C249 O262 1.271 . S
C249 O263 1.251 . S
C250 O264 1.252 . S
C250 O265 1.272 . S
C251 Sm241 2.846 . S
C251 C252 1.506 1_556 S
C251 O266 1.261 . S
C251 O267 1.242 . S
C252 C251 1.506 1_554 S
C252 C253 1.358 . S
C252 C257 1.382 . S
C253 C252 1.358 . S
C253 C254 1.385 . S
C253 H276 0.930 . S
C254 C253 1.385 . S
C254 C255 1.395 . S
C254 H277 0.929 . S
C255 C254 1.395 . S
C255 C256 1.335 . S
C256 C255 1.335 . S
C256 C257 1.398 . S
C256 H278 0.930 . S
C257 C252 1.382 . S
C257 C256 1.398 . S
C257 H279 0.929 . S
C258 O268 1.271 . S
C258 O269 1.251 . S
C259 O270 1.252 . S
C259 O271 1.272 . S
O260 Sm240 2.543 . S
O260 C242 1.261 . S
O261 Sm240 2.450 . S
O261 C242 1.242 . S
O262 Sm240 2.681 . S
O262 Sm241 2.386 . S
O262 C249 1.271 . S
O263 Sm240 2.464 . S
O263 C249 1.251 . S
O264 Sm240 2.396 . S
O264 C250 1.252 . S
O265 Sm241 2.408 . S
O265 C250 1.272 . S
O266 Sm241 2.543 . S
O266 C251 1.261 . S
O267 Sm241 2.450 . S
O267 C251 1.242 . S
O268 Sm240 2.386 . S
O268 Sm241 2.681 . S
O268 C258 1.271 . S
O269 Sm241 2.464 . S
O269 C258 1.251 . S
O270 Sm241 2.396 . S
O270 C259 1.252 . S
O271 Sm240 2.408 . S
O271 C259 1.272 . S
H272 C244 0.930 . S
H273 C245 0.929 . S
H274 C247 0.930 . S
H275 C248 0.929 . S
H276 C253 0.930 . S
H277 C254 0.929 . S
H278 C256 0.930 . S
H279 C257 0.929 . S
Sm280 C282 2.846 . S
Sm280 O300 2.543 . S
Sm280 O301 2.450 . S
Sm280 O302 2.681 . S
Sm280 O303 2.464 . S
Sm280 O304 2.396 . S
Sm280 O308 2.386 . S
Sm280 O311 2.408 . S
Sm281 C291 2.846 . S
Sm281 O302 2.386 . S
Sm281 O305 2.408 . S
Sm281 O306 2.543 . S
Sm281 O307 2.450 . S
Sm281 O308 2.681 . S
Sm281 O309 2.464 . S
Sm281 O310 2.396 . S
C282 Sm280 2.846 . S
C282 C283 1.506 . S
C282 O300 1.261 . S
C282 O301 1.242 . S
C283 C282 1.506 . S
C283 C284 1.358 . S
C283 C288 1.382 . S
C284 C283 1.358 . S
C284 C285 1.385 . S
C284 H312 0.930 . S
C285 C284 1.385 . S
C285 C286 1.395 . S
C285 H313 0.929 . S
C286 C285 1.395 . S
C286 C287 1.335 . S
C287 C286 1.335 . S
C287 C288 1.398 . S
C287 H314 0.930 . S
C288 C283 1.382 . S
C288 C287 1.398 . S
C288 H315 0.929 . S
C289 O302 1.271 . S
C289 O303 1.251 . S
C290 O304 1.252 . S
C290 O305 1.272 . S
C291 Sm281 2.846 . S
C291 C292 1.506 1_556 S
C291 O306 1.261 . S
C291 O307 1.242 . S
C292 C291 1.506 1_554 S
C292 C293 1.358 . S
C292 C297 1.382 . S
C293 C292 1.358 . S
C293 C294 1.385 . S
C293 H316 0.930 . S
C294 C293 1.385 . S
C294 C295 1.395 . S
C294 H317 0.929 . S
C295 C294 1.395 . S
C295 C296 1.335 . S
C296 C295 1.335 . S
C296 C297 1.398 . S
C296 H318 0.930 . S
C297 C292 1.382 . S
C297 C296 1.398 . S
C297 H319 0.929 . S
C298 O308 1.271 . S
C298 O309 1.251 . S
C299 O310 1.252 . S
C299 O311 1.272 . S
O300 Sm280 2.543 . S
O300 C282 1.261 . S
O301 Sm280 2.450 . S
O301 C282 1.242 . S
O302 Sm280 2.681 . S
O302 Sm281 2.386 . S
O302 C289 1.271 . S
O303 Sm280 2.464 . S
O303 C289 1.251 . S
O304 Sm280 2.396 . S
O304 C290 1.252 . S
O305 Sm281 2.408 . S
O305 C290 1.272 . S
O306 Sm281 2.543 . S
O306 C291 1.261 . S
O307 Sm281 2.450 . S
O307 C291 1.242 . S
O308 Sm280 2.386 . S
O308 Sm281 2.681 . S
O308 C298 1.271 . S
O309 Sm281 2.464 . S
O309 C298 1.251 . S
O310 Sm281 2.396 . S
O310 C299 1.252 . S
O311 Sm280 2.408 . S
O311 C299 1.272 . S
H312 C284 0.930 . S
H313 C285 0.929 . S
H314 C287 0.930 . S
H315 C288 0.929 . S
H316 C293 0.930 . S
H317 C294 0.929 . S
H318 C296 0.930 . S
H319 C297 0.929 . S
Sm320 C322 2.846 . S
Sm320 O340 2.543 . S
Sm320 O341 2.450 . S
Sm320 O342 2.681 . S
Sm320 O343 2.464 . S
Sm320 O344 2.396 . S
Sm320 O348 2.386 . S
Sm320 O351 2.408 . S
Sm321 C331 2.846 . S
Sm321 O342 2.386 . S
Sm321 O345 2.408 . S
Sm321 O346 2.543 . S
Sm321 O347 2.450 . S
Sm321 O348 2.681 . S
Sm321 O349 2.464 . S
Sm321 O350 2.396 . S
C322 Sm320 2.846 . S
C322 C323 1.506 . S
C322 O340 1.261 . S
C322 O341 1.242 . S
C323 C322 1.506 . S
C323 C324 1.358 . S
C323 C328 1.382 . S
C324 C323 1.358 . S
C324 C325 1.385 . S
C324 H352 0.930 . S
C325 C324 1.385 . S
C325 C326 1.395 . S
C325 H353 0.929 . S
C326 C325 1.395 . S
C326 C327 1.335 . S
C327 C326 1.335 . S
C327 C328 1.398 . S
C327 H354 0.930 . S
C328 C323 1.382 . S
C328 C327 1.398 . S
C328 H355 0.929 . S
C329 O342 1.271 . S
C329 O343 1.251 . S
C330 O344 1.252 . S
C330 O345 1.272 . S
C331 Sm321 2.846 . S
C331 C332 1.506 1_556 S
C331 O346 1.261 . S
C331 O347 1.242 . S
C332 C331 1.506 1_554 S
C332 C333 1.358 . S
C332 C337 1.382 . S
C333 C332 1.358 . S
C333 C334 1.385 . S
C333 H356 0.930 . S
C334 C333 1.385 . S
C334 C335 1.395 . S
C334 H357 0.929 . S
C335 C334 1.395 . S
C335 C336 1.335 . S
C336 C335 1.335 . S
C336 C337 1.398 . S
C336 H358 0.930 . S
C337 C332 1.382 . S
C337 C336 1.398 . S
C337 H359 0.929 . S
C338 O348 1.271 . S
C338 O349 1.251 . S
C339 O350 1.252 . S
C339 O351 1.272 . S
O340 Sm320 2.543 . S
O340 C322 1.261 . S
O341 Sm320 2.450 . S
O341 C322 1.242 . S
O342 Sm320 2.681 . S
O342 Sm321 2.386 . S
O342 C329 1.271 . S
O343 Sm320 2.464 . S
O343 C329 1.251 . S
O344 Sm320 2.396 . S
O344 C330 1.252 . S
O345 Sm321 2.408 . S
O345 C330 1.272 . S
O346 Sm321 2.543 . S
O346 C331 1.261 . S
O347 Sm321 2.450 . S
O347 C331 1.242 . S
O348 Sm320 2.386 . S
O348 Sm321 2.681 . S
O348 C338 1.271 . S
O349 Sm321 2.464 . S
O349 C338 1.251 . S
O350 Sm321 2.396 . S
O350 C339 1.252 . S
O351 Sm320 2.408 . S
O351 C339 1.272 . S
H352 C324 0.930 . S
H353 C325 0.929 . S
H354 C327 0.930 . S
H355 C328 0.929 . S
H356 C333 0.930 . S
H357 C334 0.929 . S
H358 C336 0.930 . S
H359 C337 0.929 . S
Sm360 C362 2.846 1_556 S
Sm360 O380 2.543 . S
Sm360 O381 2.450 . S
Sm360 O382 2.681 . S
Sm360 O383 2.464 . S
Sm360 O384 2.396 . S
Sm360 O388 2.386 . S
Sm360 O391 2.408 . S
Sm361 C371 2.846 . S
Sm361 O382 2.386 . S
Sm361 O385 2.408 . S
Sm361 O386 2.543 . S
Sm361 O387 2.450 . S
Sm361 O388 2.681 . S
Sm361 O389 2.464 . S
Sm361 O390 2.396 . S
C362 Sm360 2.846 1_554 S
C362 C363 1.506 . S
C362 O380 1.261 1_554 S
C362 O381 1.242 1_554 S
C363 C362 1.506 . S
C363 C364 1.358 . S
C363 C368 1.382 . S
C364 C363 1.358 . S
C364 C365 1.385 . S
C364 H392 0.930 . S
C365 C364 1.385 . S
C365 C366 1.395 . S
C365 H393 0.929 . S
C366 C365 1.395 . S
C366 C367 1.335 . S
C367 C366 1.335 . S
C367 C368 1.398 . S
C367 H394 0.930 . S
C368 C363 1.382 . S
C368 C367 1.398 . S
C368 H395 0.929 . S
C369 O382 1.271 . S
C369 O383 1.251 . S
C370 O384 1.252 . S
C370 O385 1.272 . S
C371 Sm361 2.846 . S
C371 C372 1.506 . S
C371 O386 1.261 . S
C371 O387 1.242 . S
C372 C371 1.506 . S
C372 C373 1.358 . S
C372 C377 1.382 . S
C373 C372 1.358 . S
C373 C374 1.385 . S
C373 H396 0.930 . S
C374 C373 1.385 . S
C374 C375 1.395 . S
C374 H397 0.929 . S
C375 C374 1.395 . S
C375 C376 1.335 . S
C376 C375 1.335 . S
C376 C377 1.398 . S
C376 H398 0.930 . S
C377 C372 1.382 . S
C377 C376 1.398 . S
C377 H399 0.929 . S
C378 O388 1.271 . S
C378 O389 1.251 . S
C379 O390 1.252 . S
C379 O391 1.272 . S
O380 Sm360 2.543 . S
O380 C362 1.261 1_556 S
O381 Sm360 2.450 . S
O381 C362 1.242 1_556 S
O382 Sm360 2.681 . S
O382 Sm361 2.386 . S
O382 C369 1.271 . S
O383 Sm360 2.464 . S
O383 C369 1.251 . S
O384 Sm360 2.396 . S
O384 C370 1.252 . S
O385 Sm361 2.408 . S
O385 C370 1.272 . S
O386 Sm361 2.543 . S
O386 C371 1.261 . S
O387 Sm361 2.450 . S
O387 C371 1.242 . S
O388 Sm360 2.386 . S
O388 Sm361 2.681 . S
O388 C378 1.271 . S
O389 Sm361 2.464 . S
O389 C378 1.251 . S
O390 Sm361 2.396 . S
O390 C379 1.252 . S
O391 Sm360 2.408 . S
O391 C379 1.272 . S
H392 C364 0.930 . S
H393 C365 0.929 . S
H394 C367 0.930 . S
H395 C368 0.929 . S
H396 C373 0.930 . S
H397 C374 0.929 . S
H398 C376 0.930 . S
H399 C377 0.929 . S
Sm400 C402 2.846 1_556 S
Sm400 O420 2.543 . S
Sm400 O421 2.450 1_556 S
Sm400 O422 2.681 . S
Sm400 O423 2.464 . S
Sm400 O424 2.396 . S
Sm400 O428 2.386 . S
Sm400 O431 2.408 . S
Sm401 C411 2.846 . S
Sm401 O422 2.386 . S
Sm401 O425 2.408 . S
Sm401 O426 2.543 . S
Sm401 O427 2.450 . S
Sm401 O428 2.681 . S
Sm401 O429 2.464 . S
Sm401 O430 2.396 . S
C402 Sm400 2.846 1_554 S
C402 C403 1.506 . S
C402 O420 1.261 1_554 S
C402 O421 1.242 . S
C403 C402 1.506 . S
C403 C404 1.358 . S
C403 C408 1.382 . S
C404 C403 1.358 . S
C404 C405 1.385 . S
C404 H432 0.930 . S
C405 C404 1.385 . S
C405 C406 1.395 . S
C405 H433 0.929 . S
C406 C405 1.395 . S
C406 C407 1.335 . S
C407 C406 1.335 . S
C407 C408 1.398 . S
C407 H434 0.930 . S
C408 C403 1.382 . S
C408 C407 1.398 . S
C408 H435 0.929 . S
C409 O422 1.271 . S
C409 O423 1.251 . S
C410 O424 1.252 . S
C410 O425 1.272 . S
C411 Sm401 2.846 . S
C411 C412 1.506 . S
C411 O426 1.261 . S
C411 O427 1.242 . S
C412 C411 1.506 . S
C412 C413 1.358 . S
C412 C417 1.382 . S
C413 C412 1.358 . S
C413 C414 1.385 . S
C413 H436 0.930 . S
C414 C413 1.385 . S
C414 C415 1.395 . S
C414 H437 0.929 . S
C415 C414 1.395 . S
C415 C416 1.335 . S
C416 C415 1.335 . S
C416 C417 1.398 . S
C416 H438 0.930 . S
C417 C412 1.382 . S
C417 C416 1.398 . S
C417 H439 0.929 . S
C418 O428 1.271 . S
C418 O429 1.251 . S
C419 O430 1.252 . S
C419 O431 1.272 . S
O420 Sm400 2.543 . S
O420 C402 1.261 1_556 S
O421 Sm400 2.450 1_554 S
O421 C402 1.242 . S
O422 Sm400 2.681 . S
O422 Sm401 2.386 . S
O422 C409 1.271 . S
O423 Sm400 2.464 . S
O423 C409 1.251 . S
O424 Sm400 2.396 . S
O424 C410 1.252 . S
O425 Sm401 2.408 . S
O425 C410 1.272 . S
O426 Sm401 2.543 . S
O426 C411 1.261 . S
O427 Sm401 2.450 . S
O427 C411 1.242 . S
O428 Sm400 2.386 . S
O428 Sm401 2.681 . S
O428 C418 1.271 . S
O429 Sm401 2.464 . S
O429 C418 1.251 . S
O430 Sm401 2.396 . S
O430 C419 1.252 . S
O431 Sm400 2.408 . S
O431 C419 1.272 . S
H432 C404 0.930 . S
H433 C405 0.929 . S
H434 C407 0.930 . S
H435 C408 0.929 . S
H436 C413 0.930 . S
H437 C414 0.929 . S
H438 C416 0.930 . S
H439 C417 0.929 . S
Sm440 C442 2.846 1_556 S
Sm440 O460 2.543 . S
Sm440 O461 2.450 . S
Sm440 O462 2.681 . S
Sm440 O463 2.464 . S
Sm440 O464 2.396 . S
Sm440 O468 2.386 . S
Sm440 O471 2.408 . S
Sm441 C451 2.846 . S
Sm441 O462 2.386 . S
Sm441 O465 2.408 . S
Sm441 O466 2.543 . S
Sm441 O467 2.450 . S
Sm441 O468 2.681 . S
Sm441 O469 2.464 . S
Sm441 O470 2.396 . S
C442 Sm440 2.846 1_554 S
C442 C443 1.506 . S
C442 O460 1.261 1_554 S
C442 O461 1.242 1_554 S
C443 C442 1.506 . S
C443 C444 1.358 . S
C443 C448 1.382 . S
C444 C443 1.358 . S
C444 C445 1.385 . S
C444 H472 0.930 . S
C445 C444 1.385 . S
C445 C446 1.395 . S
C445 H473 0.929 . S
C446 C445 1.395 . S
C446 C447 1.335 . S
C447 C446 1.335 . S
C447 C448 1.398 . S
C447 H474 0.930 . S
C448 C443 1.382 . S
C448 C447 1.398 . S
C448 H475 0.929 . S
C449 O462 1.271 . S
C449 O463 1.251 . S
C450 O464 1.252 . S
C450 O465 1.272 . S
C451 Sm441 2.846 . S
C451 C452 1.506 . S
C451 O466 1.261 . S
C451 O467 1.242 . S
C452 C451 1.506 . S
C452 C453 1.358 . S
C452 C457 1.382 . S
C453 C452 1.358 . S
C453 C454 1.385 . S
C453 H476 0.930 . S
C454 C453 1.385 . S
C454 C455 1.395 . S
C454 H477 0.929 . S
C455 C454 1.395 . S
C455 C456 1.335 . S
C456 C455 1.335 . S
C456 C457 1.398 . S
C456 H478 0.930 . S
C457 C452 1.382 . S
C457 C456 1.398 . S
C457 H479 0.929 . S
C458 O468 1.271 . S
C458 O469 1.251 . S
C459 O470 1.252 . S
C459 O471 1.272 . S
O460 Sm440 2.543 . S
O460 C442 1.261 1_556 S
O461 Sm440 2.450 . S
O461 C442 1.242 1_556 S
O462 Sm440 2.681 . S
O462 Sm441 2.386 . S
O462 C449 1.271 . S
O463 Sm440 2.464 . S
O463 C449 1.251 . S
O464 Sm440 2.396 . S
O464 C450 1.252 . S
O465 Sm441 2.408 . S
O465 C450 1.272 . S
O466 Sm441 2.543 . S
O466 C451 1.261 . S
O467 Sm441 2.450 . S
O467 C451 1.242 . S
O468 Sm440 2.386 . S
O468 Sm441 2.681 . S
O468 C458 1.271 . S
O469 Sm441 2.464 . S
O469 C458 1.251 . S
O470 Sm441 2.396 . S
O470 C459 1.252 . S
O471 Sm440 2.408 . S
O471 C459 1.272 . S
H472 C444 0.930 . S
H473 C445 0.929 . S
H474 C447 0.930 . S
H475 C448 0.929 . S
H476 C453 0.930 . S
H477 C454 0.929 . S
H478 C456 0.930 . S
H479 C457 0.929 . S
Sm480 C482 2.846 . S
Sm480 O500 2.543 . S
Sm480 O501 2.450 . S
Sm480 O502 2.681 . S
Sm480 O503 2.464 . S
Sm480 O504 2.396 . S
Sm480 O508 2.386 . S
Sm480 O511 2.408 . S
Sm481 C491 2.846 1_554 S
Sm481 O502 2.386 . S
Sm481 O505 2.408 . S
Sm481 O506 2.543 1_554 S
Sm481 O507 2.450 1_554 S
Sm481 O508 2.681 . S
Sm481 O509 2.464 . S
Sm481 O510 2.396 . S
C482 Sm480 2.846 . S
C482 C483 1.506 . S
C482 O500 1.261 . S
C482 O501 1.242 . S
C483 C482 1.506 . S
C483 C484 1.358 . S
C483 C488 1.382 . S
C484 C483 1.358 . S
C484 C485 1.385 . S
C484 H512 0.930 . S
C485 C484 1.385 . S
C485 C486 1.395 . S
C485 H513 0.929 . S
C486 C485 1.395 . S
C486 C487 1.335 . S
C487 C486 1.335 . S
C487 C488 1.398 . S
C487 H514 0.930 . S
C488 C483 1.382 . S
C488 C487 1.398 . S
C488 H515 0.929 . S
C489 O502 1.271 . S
C489 O503 1.251 . S
C490 O504 1.252 . S
C490 O505 1.272 . S
C491 Sm481 2.846 1_556 S
C491 C492 1.506 . S
C491 O506 1.261 . S
C491 O507 1.242 . S
C492 C491 1.506 . S
C492 C493 1.358 . S
C492 C497 1.382 . S
C493 C492 1.358 . S
C493 C494 1.385 . S
C493 H516 0.930 . S
C494 C493 1.385 . S
C494 C495 1.395 . S
C494 H517 0.929 . S
C495 C494 1.395 . S
C495 C496 1.335 . S
C496 C495 1.335 . S
C496 C497 1.398 . S
C496 H518 0.930 . S
C497 C492 1.382 . S
C497 C496 1.398 . S
C497 H519 0.929 . S
C498 O508 1.271 . S
C498 O509 1.251 . S
C499 O510 1.252 . S
C499 O511 1.272 . S
O500 Sm480 2.543 . S
O500 C482 1.261 . S
O501 Sm480 2.450 . S
O501 C482 1.242 . S
O502 Sm480 2.681 . S
O502 Sm481 2.386 . S
O502 C489 1.271 . S
O503 Sm480 2.464 . S
O503 C489 1.251 . S
O504 Sm480 2.396 . S
O504 C490 1.252 . S
O505 Sm481 2.408 . S
O505 C490 1.272 . S
O506 Sm481 2.543 1_556 S
O506 C491 1.261 . S
O507 Sm481 2.450 1_556 S
O507 C491 1.242 . S
O508 Sm480 2.386 . S
O508 Sm481 2.681 . S
O508 C498 1.271 . S
O509 Sm481 2.464 . S
O509 C498 1.251 . S
O510 Sm481 2.396 . S
O510 C499 1.252 . S
O511 Sm480 2.408 . S
O511 C499 1.272 . S
H512 C484 0.930 . S
H513 C485 0.929 . S
H514 C487 0.930 . S
H515 C488 0.929 . S
H516 C493 0.930 . S
H517 C494 0.929 . S
H518 C496 0.930 . S
H519 C497 0.929 . S
Sm520 C522 2.846 1_554 S
Sm520 O540 2.543 1_554 S
Sm520 O541 2.450 1_554 S
Sm520 O542 2.681 . S
Sm520 O543 2.464 . S
Sm520 O544 2.396 . S
Sm520 O548 2.386 . S
Sm520 O551 2.408 . S
Sm521 C531 2.846 . S
Sm521 O542 2.386 . S
Sm521 O545 2.408 . S
Sm521 O546 2.543 . S
Sm521 O547 2.450 . S
Sm521 O548 2.681 . S
Sm521 O549 2.464 . S
Sm521 O550 2.396 . S
C522 Sm520 2.846 1_556 S
C522 C523 1.506 . S
C522 O540 1.261 . S
C522 O541 1.242 . S
C523 C522 1.506 . S
C523 C524 1.358 . S
C523 C528 1.382 . S
C524 C523 1.358 . S
C524 C525 1.385 . S
C524 H552 0.930 . S
C525 C524 1.385 . S
C525 C526 1.395 . S
C525 H553 0.929 . S
C526 C525 1.395 . S
C526 C527 1.335 . S
C527 C526 1.335 . S
C527 C528 1.398 . S
C527 H554 0.930 . S
C528 C523 1.382 . S
C528 C527 1.398 . S
C528 H555 0.929 . S
C529 O542 1.271 . S
C529 O543 1.251 . S
C530 O544 1.252 . S
C530 O545 1.272 . S
C531 Sm521 2.846 . S
C531 C532 1.506 . S
C531 O546 1.261 . S
C531 O547 1.242 . S
C532 C531 1.506 . S
C532 C533 1.358 . S
C532 C537 1.382 . S
C533 C532 1.358 . S
C533 C534 1.385 . S
C533 H556 0.930 . S
C534 C533 1.385 . S
C534 C535 1.395 . S
C534 H557 0.929 . S
C535 C534 1.395 . S
C535 C536 1.335 . S
C536 C535 1.335 . S
C536 C537 1.398 . S
C536 H558 0.930 . S
C537 C532 1.382 . S
C537 C536 1.398 . S
C537 H559 0.929 . S
C538 O548 1.271 . S
C538 O549 1.251 . S
C539 O550 1.252 . S
C539 O551 1.272 . S
O540 Sm520 2.543 1_556 S
O540 C522 1.261 . S
O541 Sm520 2.450 1_556 S
O541 C522 1.242 . S
O542 Sm520 2.681 . S
O542 Sm521 2.386 . S
O542 C529 1.271 . S
O543 Sm520 2.464 . S
O543 C529 1.251 . S
O544 Sm520 2.396 . S
O544 C530 1.252 . S
O545 Sm521 2.408 . S
O545 C530 1.272 . S
O546 Sm521 2.543 . S
O546 C531 1.261 . S
O547 Sm521 2.450 . S
O547 C531 1.242 . S
O548 Sm520 2.386 . S
O548 Sm521 2.681 . S
O548 C538 1.271 . S
O549 Sm521 2.464 . S
O549 C538 1.251 . S
O550 Sm521 2.396 . S
O550 C539 1.252 . S
O551 Sm520 2.408 . S
O551 C539 1.272 . S
H552 C524 0.930 . S
H553 C525 0.929 . S
H554 C527 0.930 . S
H555 C528 0.929 . S
H556 C533 0.930 . S
H557 C534 0.929 . S
H558 C536 0.930 . S
H559 C537 0.929 . S
Sm560 C562 2.846 . S
Sm560 O580 2.543 . S
Sm560 O581 2.450 . S
Sm560 O582 2.681 . S
Sm560 O583 2.464 . S
Sm560 O584 2.396 . S
Sm560 O588 2.386 . S
Sm560 O591 2.408 . S
Sm561 C571 2.846 1_554 S
Sm561 O582 2.386 . S
Sm561 O585 2.408 . S
Sm561 O586 2.543 . S
Sm561 O587 2.450 . S
Sm561 O588 2.681 . S
Sm561 O589 2.464 . S
Sm561 O590 2.396 . S
C562 Sm560 2.846 . S
C562 C563 1.506 . S
C562 O580 1.261 . S
C562 O581 1.242 . S
C563 C562 1.506 . S
C563 C564 1.358 . S
C563 C568 1.382 . S
C564 C563 1.358 . S
C564 C565 1.385 . S
C564 H592 0.930 . S
C565 C564 1.385 . S
C565 C566 1.395 . S
C565 H593 0.929 . S
C566 C565 1.395 . S
C566 C567 1.335 . S
C567 C566 1.335 . S
C567 C568 1.398 . S
C567 H594 0.930 . S
C568 C563 1.382 . S
C568 C567 1.398 . S
C568 H595 0.929 . S
C569 O582 1.271 . S
C569 O583 1.251 . S
C570 O584 1.252 . S
C570 O585 1.272 . S
C571 Sm561 2.846 1_556 S
C571 C572 1.506 . S
C571 O586 1.261 1_556 S
C571 O587 1.242 1_556 S
C572 C571 1.506 . S
C572 C573 1.358 . S
C572 C577 1.382 . S
C573 C572 1.358 . S
C573 C574 1.385 . S
C573 H596 0.930 . S
C574 C573 1.385 . S
C574 C575 1.395 . S
C574 H597 0.929 . S
C575 C574 1.395 . S
C575 C576 1.335 . S
C576 C575 1.335 . S
C576 C577 1.398 . S
C576 H598 0.930 . S
C577 C572 1.382 . S
C577 C576 1.398 . S
C577 H599 0.929 . S
C578 O588 1.271 . S
C578 O589 1.251 . S
C579 O590 1.252 . S
C579 O591 1.272 . S
O580 Sm560 2.543 . S
O580 C562 1.261 . S
O581 Sm560 2.450 . S
O581 C562 1.242 . S
O582 Sm560 2.681 . S
O582 Sm561 2.386 . S
O582 C569 1.271 . S
O583 Sm560 2.464 . S
O583 C569 1.251 . S
O584 Sm560 2.396 . S
O584 C570 1.252 . S
O585 Sm561 2.408 . S
O585 C570 1.272 . S
O586 Sm561 2.543 . S
O586 C571 1.261 1_554 S
O587 Sm561 2.450 . S
O587 C571 1.242 1_554 S
O588 Sm560 2.386 . S
O588 Sm561 2.681 . S
O588 C578 1.271 . S
O589 Sm561 2.464 . S
O589 C578 1.251 . S
O590 Sm561 2.396 . S
O590 C579 1.252 . S
O591 Sm560 2.408 . S
O591 C579 1.272 . S
H592 C564 0.930 . S
H593 C565 0.929 . S
H594 C567 0.930 . S
H595 C568 0.929 . S
H596 C573 0.930 . S
H597 C574 0.929 . S
H598 C576 0.930 . S
H599 C577 0.929 . S
Sm600 C602 2.846 . S
Sm600 O620 2.543 . S
Sm600 O621 2.450 . S
Sm600 O622 2.681 . S
Sm600 O623 2.464 . S
Sm600 O624 2.396 . S
Sm600 O628 2.386 . S
Sm600 O631 2.408 . S
Sm601 C611 2.846 1_554 S
Sm601 O622 2.386 . S
Sm601 O625 2.408 . S
Sm601 O626 2.543 . S
Sm601 O627 2.450 1_554 S
Sm601 O628 2.681 . S
Sm601 O629 2.464 . S
Sm601 O630 2.396 . S
C602 Sm600 2.846 . S
C602 C603 1.506 . S
C602 O620 1.261 . S
C602 O621 1.242 . S
C603 C602 1.506 . S
C603 C604 1.358 . S
C603 C608 1.382 . S
C604 C603 1.358 . S
C604 C605 1.385 . S
C604 H632 0.930 . S
C605 C604 1.385 . S
C605 C606 1.395 . S
C605 H633 0.929 . S
C606 C605 1.395 . S
C606 C607 1.335 . S
C607 C606 1.335 . S
C607 C608 1.398 . S
C607 H634 0.930 . S
C608 C603 1.382 . S
C608 C607 1.398 . S
C608 H635 0.929 . S
C609 O622 1.271 . S
C609 O623 1.251 . S
C610 O624 1.252 . S
C610 O625 1.272 . S
C611 Sm601 2.846 1_556 S
C611 C612 1.506 . S
C611 O626 1.261 1_556 S
C611 O627 1.242 . S
C612 C611 1.506 . S
C612 C613 1.358 . S
C612 C617 1.382 . S
C613 C612 1.358 . S
C613 C614 1.385 . S
C613 H636 0.930 . S
C614 C613 1.385 . S
C614 C615 1.395 . S
C614 H637 0.929 . S
C615 C614 1.395 . S
C615 C616 1.335 . S
C616 C615 1.335 . S
C616 C617 1.398 . S
C616 H638 0.930 . S
C617 C612 1.382 . S
C617 C616 1.398 . S
C617 H639 0.929 . S
C618 O628 1.271 . S
C618 O629 1.251 . S
C619 O630 1.252 . S
C619 O631 1.272 . S
O620 Sm600 2.543 . S
O620 C602 1.261 . S
O621 Sm600 2.450 . S
O621 C602 1.242 . S
O622 Sm600 2.681 . S
O622 Sm601 2.386 . S
O622 C609 1.271 . S
O623 Sm600 2.464 . S
O623 C609 1.251 . S
O624 Sm600 2.396 . S
O624 C610 1.252 . S
O625 Sm601 2.408 . S
O625 C610 1.272 . S
O626 Sm601 2.543 . S
O626 C611 1.261 1_554 S
O627 Sm601 2.450 1_556 S
O627 C611 1.242 . S
O628 Sm600 2.386 . S
O628 Sm601 2.681 . S
O628 C618 1.271 . S
O629 Sm601 2.464 . S
O629 C618 1.251 . S
O630 Sm601 2.396 . S
O630 C619 1.252 . S
O631 Sm600 2.408 . S
O631 C619 1.272 . S
H632 C604 0.930 . S
H633 C605 0.929 . S
H634 C607 0.930 . S
H635 C608 0.929 . S
H636 C613 0.930 . S
H637 C614 0.929 . S
H638 C616 0.930 . S
H639 C617 0.929 . S
Sm640 C642 2.846 . S
Sm640 O660 2.543 . S
Sm640 O661 2.450 . S
Sm640 O662 2.681 . S
Sm640 O663 2.464 . S
Sm640 O664 2.396 . S
Sm640 O668 2.386 . S
Sm640 O671 2.408 . S
Sm641 C651 2.846 . S
Sm641 O662 2.386 . S
Sm641 O665 2.408 . S
Sm641 O666 2.543 . S
Sm641 O667 2.450 . S
Sm641 O668 2.681 . S
Sm641 O669 2.464 . S
Sm641 O670 2.396 . S
C642 Sm640 2.846 . S
C642 C643 1.506 1_554 S
C642 O660 1.261 . S
C642 O661 1.242 . S
C643 C642 1.506 1_556 S
C643 C644 1.358 . S
C643 C648 1.382 . S
C644 C643 1.358 . S
C644 C645 1.385 . S
C644 H672 0.930 . S
C645 C644 1.385 . S
C645 C646 1.395 . S
C645 H673 0.929 . S
C646 C645 1.395 . S
C646 C647 1.335 . S
C647 C646 1.335 . S
C647 C648 1.398 . S
C647 H674 0.930 . S
C648 C643 1.382 . S
C648 C647 1.398 . S
C648 H675 0.929 . S
C649 O662 1.271 . S
C649 O663 1.251 . S
C650 O664 1.252 . S
C650 O665 1.272 . S
C651 Sm641 2.846 . S
C651 C652 1.506 . S
C651 O666 1.261 . S
C651 O667 1.242 . S
C652 C651 1.506 . S
C652 C653 1.358 . S
C652 C657 1.382 . S
C653 C652 1.358 . S
C653 C654 1.385 . S
C653 H676 0.930 . S
C654 C653 1.385 . S
C654 C655 1.395 . S
C654 H677 0.929 . S
C655 C654 1.395 . S
C655 C656 1.335 . S
C656 C655 1.335 . S
C656 C657 1.398 . S
C656 H678 0.930 . S
C657 C652 1.382 . S
C657 C656 1.398 . S
C657 H679 0.929 . S
C658 O668 1.271 . S
C658 O669 1.251 . S
C659 O670 1.252 . S
C659 O671 1.272 . S
O660 Sm640 2.543 . S
O660 C642 1.261 . S
O661 Sm640 2.450 . S
O661 C642 1.242 . S
O662 Sm640 2.681 . S
O662 Sm641 2.386 . S
O662 C649 1.271 . S
O663 Sm640 2.464 . S
O663 C649 1.251 . S
O664 Sm640 2.396 . S
O664 C650 1.252 . S
O665 Sm641 2.408 . S
O665 C650 1.272 . S
O666 Sm641 2.543 . S
O666 C651 1.261 . S
O667 Sm641 2.450 . S
O667 C651 1.242 . S
O668 Sm640 2.386 . S
O668 Sm641 2.681 . S
O668 C658 1.271 . S
O669 Sm641 2.464 . S
O669 C658 1.251 . S
O670 Sm641 2.396 . S
O670 C659 1.252 . S
O671 Sm640 2.408 . S
O671 C659 1.272 . S
H672 C644 0.930 . S
H673 C645 0.929 . S
H674 C647 0.930 . S
H675 C648 0.929 . S
H676 C653 0.930 . S
H677 C654 0.929 . S
H678 C656 0.930 . S
H679 C657 0.929 . S
Sm680 C682 2.846 . S
Sm680 O700 2.543 . S
Sm680 O701 2.450 . S
Sm680 O702 2.681 . S
Sm680 O703 2.464 . S
Sm680 O704 2.396 . S
Sm680 O708 2.386 . S
Sm680 O711 2.408 . S
Sm681 C691 2.846 . S
Sm681 O702 2.386 . S
Sm681 O705 2.408 . S
Sm681 O706 2.543 . S
Sm681 O707 2.450 . S
Sm681 O708 2.681 . S
Sm681 O709 2.464 . S
Sm681 O710 2.396 . S
C682 Sm680 2.846 . S
C682 C683 1.506 . S
C682 O700 1.261 . S
C682 O701 1.242 . S
C683 C682 1.506 . S
C683 C684 1.358 . S
C683 C688 1.382 . S
C684 C683 1.358 . S
C684 C685 1.385 . S
C684 H712 0.930 . S
C685 C684 1.385 . S
C685 C686 1.395 . S
C685 H713 0.929 . S
C686 C685 1.395 . S
C686 C687 1.335 . S
C687 C686 1.335 . S
C687 C688 1.398 . S
C687 H714 0.930 . S
C688 C683 1.382 . S
C688 C687 1.398 . S
C688 H715 0.929 . S
C689 O702 1.271 . S
C689 O703 1.251 . S
C690 O704 1.252 . S
C690 O705 1.272 . S
C691 Sm681 2.846 . S
C691 C692 1.506 1_554 S
C691 O706 1.261 . S
C691 O707 1.242 . S
C692 C691 1.506 1_556 S
C692 C693 1.358 . S
C692 C697 1.382 . S
C693 C692 1.358 . S
C693 C694 1.385 . S
C693 H716 0.930 . S
C694 C693 1.385 . S
C694 C695 1.395 . S
C694 H717 0.929 . S
C695 C694 1.395 . S
C695 C696 1.335 . S
C696 C695 1.335 . S
C696 C697 1.398 . S
C696 H718 0.930 . S
C697 C692 1.382 . S
C697 C696 1.398 . S
C697 H719 0.929 . S
C698 O708 1.271 . S
C698 O709 1.251 . S
C699 O710 1.252 . S
C699 O711 1.272 . S
O700 Sm680 2.543 . S
O700 C682 1.261 . S
O701 Sm680 2.450 . S
O701 C682 1.242 . S
O702 Sm680 2.681 . S
O702 Sm681 2.386 . S
O702 C689 1.271 . S
O703 Sm680 2.464 . S
O703 C689 1.251 . S
O704 Sm680 2.396 . S
O704 C690 1.252 . S
O705 Sm681 2.408 . S
O705 C690 1.272 . S
O706 Sm681 2.543 . S
O706 C691 1.261 . S
O707 Sm681 2.450 . S
O707 C691 1.242 . S
O708 Sm680 2.386 . S
O708 Sm681 2.681 . S
O708 C698 1.271 . S
O709 Sm681 2.464 . S
O709 C698 1.251 . S
O710 Sm681 2.396 . S
O710 C699 1.252 . S
O711 Sm680 2.408 . S
O711 C699 1.272 . S
H712 C684 0.930 . S
H713 C685 0.929 . S
H714 C687 0.930 . S
H715 C688 0.929 . S
H716 C693 0.930 . S
H717 C694 0.929 . S
H718 C696 0.930 . S
H719 C697 0.929 . S
C720 C721 1.387 . S
C720 H724 0.950 . S
C720 C729 1.390 . S
C721 C720 1.387 . S
C721 C723 1.387 . S
H722 C729 0.950 . S
C723 C721 1.387 . S
C723 C725 1.390 . S
C723 H727 0.950 . S
H724 C720 0.950 . S
C725 C723 1.390 . S
C725 C726 1.387 . S
C725 H728 0.950 . S
C726 C725 1.387 . S
C726 C729 1.387 . S
H727 C723 0.950 . S
H728 C725 0.950 . S
C729 C720 1.390 . S
C729 H722 0.950 . S
C729 C726 1.387 . S
C730 C731 1.387 . S
C730 H734 0.950 . S
C730 C739 1.390 . S
C731 C730 1.387 . S
C731 C733 1.387 . S
H732 C739 0.950 . S
C733 C731 1.387 . S
C733 C735 1.390 . S
C733 H737 0.950 . S
H734 C730 0.950 . S
C735 C733 1.390 . S
C735 C736 1.387 . S
C735 H738 0.950 . S
C736 C735 1.387 . S
C736 C739 1.387 . S
H737 C733 0.950 . S
H738 C735 0.950 . S
C739 C730 1.390 . S
C739 H732 0.950 . S
C739 C736 1.387 . S
C740 C741 1.387 . S
C740 H744 0.950 . S
C740 C749 1.390 . S
C741 C740 1.387 . S
C741 C743 1.387 . S
H742 C749 0.950 . S
C743 C741 1.387 . S
C743 C745 1.390 . S
C743 H747 0.950 . S
H744 C740 0.950 . S
C745 C743 1.390 . S
C745 C746 1.387 . S
C745 H748 0.950 . S
C746 C745 1.387 . S
C746 C749 1.387 . S
H747 C743 0.950 . S
H748 C745 0.950 . S
C749 C740 1.390 . S
C749 H742 0.950 . S
C749 C746 1.387 . S
C750 C751 1.387 . S
C750 H754 0.950 . S
C750 C759 1.390 . S
C751 C750 1.387 . S
C751 C753 1.387 . S
H752 C759 0.950 . S
C753 C751 1.387 . S
C753 C755 1.390 . S
C753 H757 0.950 . S
H754 C750 0.950 . S
C755 C753 1.390 . S
C755 C756 1.387 . S
C755 H758 0.950 . S
C756 C755 1.387 . S
C756 C759 1.387 . S
H757 C753 0.950 . S
H758 C755 0.950 . S
C759 C750 1.390 . S
C759 H752 0.950 . S
C759 C756 1.387 . S
C760 C761 1.387 . S
C760 H764 0.950 . S
C760 C769 1.390 . S
C761 C760 1.387 . S
C761 C763 1.387 . S
H762 C769 0.950 . S
C763 C761 1.387 . S
C763 C765 1.390 . S
C763 H767 0.950 . S
H764 C760 0.950 . S
C765 C763 1.390 . S
C765 C766 1.387 . S
C765 H768 0.950 . S
C766 C765 1.387 . S
C766 C769 1.387 . S
H767 C763 0.950 . S
H768 C765 0.950 . S
C769 C760 1.390 . S
C769 H762 0.950 . S
C769 C766 1.387 . S
C770 C771 1.387 . S
C770 H774 0.950 . S
C770 C779 1.390 . S
C771 C770 1.387 . S
C771 C773 1.387 . S
H772 C779 0.950 . S
C773 C771 1.387 . S
C773 C775 1.390 . S
C773 H777 0.950 . S
H774 C770 0.950 . S
C775 C773 1.390 . S
C775 C776 1.387 . S
C775 H778 0.950 . S
C776 C775 1.387 . S
C776 C779 1.387 . S
H777 C773 0.950 . S
H778 C775 0.950 . S
C779 C770 1.390 . S
C779 H772 0.950 . S
C779 C776 1.387 . S
C780 C781 1.387 . S
C780 H784 0.950 . S
C780 C789 1.390 . S
C781 C780 1.387 . S
C781 C783 1.387 . S
H782 C789 0.950 . S
C783 C781 1.387 . S
C783 C785 1.390 . S
C783 H787 0.950 . S
H784 C780 0.950 . S
C785 C783 1.390 . S
C785 C786 1.387 . S
C785 H788 0.950 . S
C786 C785 1.387 . S
C786 C789 1.387 . S
H787 C783 0.950 . S
H788 C785 0.950 . S
C789 C780 1.390 . S
C789 H782 0.950 . S
C789 C786 1.387 . S
C790 C791 1.387 . S
C790 H794 0.950 . S
C790 C799 1.390 . S
C791 C790 1.387 . S
C791 C793 1.387 . S
H792 C799 0.950 . S
C793 C791 1.387 . S
C793 C795 1.390 . S
C793 H797 0.950 . S
H794 C790 0.950 . S
C795 C793 1.390 . S
C795 C796 1.387 . S
C795 H798 0.950 . S
C796 C795 1.387 . S
C796 C799 1.387 . S
H797 C793 0.950 . S
H798 C795 0.950 . S
C799 C790 1.390 . S
C799 H792 0.950 . S
C799 C796 1.387 . S
C800 C801 1.387 . S
C800 H804 0.950 . S
C800 C809 1.390 . S
C801 C800 1.387 . S
C801 C803 1.387 . S
H802 C809 0.950 . S
C803 C801 1.387 . S
C803 C805 1.390 . S
C803 H807 0.950 . S
H804 C800 0.950 . S
C805 C803 1.390 . S
C805 C806 1.387 . S
C805 H808 0.950 . S
C806 C805 1.387 . S
C806 C809 1.387 . S
H807 C803 0.950 . S
H808 C805 0.950 . S
C809 C800 1.390 . S
C809 H802 0.950 . S
C809 C806 1.387 . S
C810 C811 1.387 . S
C810 H814 0.950 . S
C810 C819 1.390 . S
C811 C810 1.387 . S
C811 C813 1.387 . S
H812 C819 0.950 . S
C813 C811 1.387 . S
C813 C815 1.390 . S
C813 H817 0.950 . S
H814 C810 0.950 . S
C815 C813 1.390 . S
C815 C816 1.387 . S
C815 H818 0.950 . S
C816 C815 1.387 . S
C816 C819 1.387 . S
H817 C813 0.950 . S
H818 C815 0.950 . S
C819 C810 1.390 . S
C819 H812 0.950 . S
C819 C816 1.387 . S
C820 C821 1.387 . S
C820 H824 0.950 . S
C820 C829 1.390 . S
C821 C820 1.387 . S
C821 C823 1.387 . S
H822 C829 0.950 . S
C823 C821 1.387 . S
C823 C825 1.390 . S
C823 H827 0.950 . S
H824 C820 0.950 . S
C825 C823 1.390 . S
C825 C826 1.387 . S
C825 H828 0.950 . S
C826 C825 1.387 . S
C826 C829 1.387 . S
H827 C823 0.950 . S
H828 C825 0.950 . S
C829 C820 1.390 . S
C829 H822 0.950 . S
C829 C826 1.387 . S
C830 C831 1.387 . S
C830 H834 0.950 . S
C830 C839 1.390 . S
C831 C830 1.387 . S
C831 C833 1.387 . S
H832 C839 0.950 . S
C833 C831 1.387 . S
C833 C835 1.390 . S
C833 H837 0.950 . S
H834 C830 0.950 . S
C835 C833 1.390 . S
C835 C836 1.387 . S
C835 H838 0.950 . S
C836 C835 1.387 . S
C836 C839 1.387 . S
H837 C833 0.950 . S
H838 C835 0.950 . S
C839 C830 1.390 . S
C839 H832 0.950 . S
C839 C836 1.387 . S
C840 C841 1.387 . S
C840 H844 0.950 . S
C840 C849 1.390 1_556 S
C841 C840 1.387 . S
C841 C843 1.387 1_655 S
H842 C849 0.950 . S
C843 C841 1.387 1_455 S
C843 C845 1.390 1_556 S
C843 H847 0.950 . S
H844 C840 0.950 . S
C845 C843 1.390 1_554 S
C845 C846 1.387 . S
C845 H848 0.950 . S
C846 C845 1.387 . S
C846 C849 1.387 1_455 S
H847 C843 0.950 . S
H848 C845 0.950 . S
C849 C840 1.390 1_554 S
C849 H842 0.950 . S
C849 C846 1.387 1_655 S
C850 C851 1.387 . S
C850 H854 0.950 . S
C850 C859 1.390 1_556 S
C851 C850 1.387 . S
C851 C853 1.387 . S
H852 C859 0.950 . S
C853 C851 1.387 . S
C853 C855 1.390 1_556 S
C853 H857 0.950 . S
H854 C850 0.950 . S
C855 C853 1.390 1_554 S
C855 C856 1.387 . S
C855 H858 0.950 . S
C856 C855 1.387 . S
C856 C859 1.387 . S
H857 C853 0.950 . S
H858 C855 0.950 . S
C859 C850 1.390 1_554 S
C859 H852 0.950 . S
C859 C856 1.387 . S
C860 C861 1.387 1_565 S
C860 H864 0.950 . S
C860 C869 1.390 . S
C861 C860 1.387 1_545 S
C861 C863 1.387 . S
H862 C869 0.950 . S
C863 C861 1.387 . S
C863 C865 1.390 1_556 S
C863 H867 0.950 . S
H864 C860 0.950 . S
C865 C863 1.390 1_554 S
C865 C866 1.387 1_545 S
C865 H868 0.950 . S
C866 C865 1.387 1_565 S
C866 C869 1.387 1_554 S
H867 C863 0.950 . S
H868 C865 0.950 . S
C869 C860 1.390 . S
C869 H862 0.950 . S
C869 C866 1.387 1_556 S
C870 C871 1.422 . S
C870 H874 0.932 1_545 S
C870 C879 1.375 1_546 S
C871 C870 1.422 . S
C871 C873 1.387 . S
H872 C879 0.950 . S
C873 C871 1.387 . S
C873 C875 1.390 1_556 S
C873 H877 0.950 . S
H874 C870 0.932 1_565 S
C875 C873 1.390 1_554 S
C875 C876 1.387 1_545 S
C875 H878 0.950 . S
C876 C875 1.387 1_565 S
C876 C879 1.387 . S
H877 C873 0.950 . S
H878 C875 0.950 . S
C879 C870 1.375 1_564 S
C879 H872 0.950 . S
C879 C876 1.387 . S
C880 C881 1.387 . S
C880 H884 0.950 . S
C880 C889 1.390 1_554 S
C881 C880 1.387 . S
C881 C883 1.387 1_455 S
H882 C889 0.950 . S
C883 C881 1.387 1_655 S
C883 C885 1.390 . S
C883 H887 0.950 . S
H884 C880 0.950 . S
C885 C883 1.390 . S
C885 C886 1.387 1_554 S
C885 H888 0.950 . S
C886 C885 1.387 1_556 S
C886 C889 1.387 1_655 S
H887 C883 0.950 . S
H888 C885 0.950 . S
C889 C880 1.390 1_556 S
C889 H882 0.950 . S
C889 C886 1.387 1_455 S
C890 C891 1.387 . S
C890 H894 0.950 . S
C890 C899 1.390 1_554 S
C891 C890 1.387 . S
C891 C893 1.387 . S
H892 C899 0.950 . S
C893 C891 1.387 . S
C893 C895 1.390 . S
C893 H897 0.950 . S
H894 C890 0.950 . S
C895 C893 1.390 . S
C895 C896 1.387 1_554 S
C895 H898 0.950 1_554 S
C896 C895 1.387 1_556 S
C896 C899 1.387 . S
H897 C893 0.950 . S
H898 C895 0.950 1_556 S
C899 C890 1.390 1_556 S
C899 H892 0.950 . S
C899 C896 1.387 . S
C900 C901 1.387 . S
C900 H904 0.950 . S
C900 C909 1.390 . S
C901 C900 1.387 . S
C901 C903 1.387 . S
H902 C909 0.950 . S
C903 C901 1.387 . S
C903 C905 1.390 . S
C903 H907 0.950 . S
H904 C900 0.950 . S
C905 C903 1.390 . S
C905 C906 1.387 . S
C905 H908 0.950 . S
C906 C905 1.387 . S
C906 C909 1.387 . S
H907 C903 0.950 . S
H908 C905 0.950 . S
C909 C900 1.390 . S
C909 H902 0.950 . S
C909 C906 1.387 . S
C910 C911 1.387 . S
C910 H914 0.950 . S
C910 C919 1.390 . S
C911 C910 1.387 . S
C911 C913 1.387 . S
H912 C919 0.950 . S
C913 C911 1.387 . S
C913 C915 1.390 . S
C913 H917 0.950 . S
H914 C910 0.950 . S
C915 C913 1.390 . S
C915 C916 1.387 . S
C915 H918 0.950 . S
C916 C915 1.387 . S
C916 C919 1.387 . S
H917 C913 0.950 . S
H918 C915 0.950 . S
C919 C910 1.390 . S
C919 H912 0.950 . S
C919 C916 1.387 . S
C920 C921 1.387 . S
C920 H924 0.950 . S
C920 C929 1.390 . S
C921 C920 1.387 . S
C921 C923 1.387 . S
H922 C929 0.950 . S
C923 C921 1.387 . S
C923 C925 1.390 . S
C923 H927 0.950 . S
H924 C920 0.950 . S
C925 C923 1.390 . S
C925 C926 1.387 . S
C925 H928 0.950 . S
C926 C925 1.387 . S
C926 C929 1.387 . S
H927 C923 0.950 . S
H928 C925 0.950 . S
C929 C920 1.390 . S
C929 H922 0.950 . S
C929 C926 1.387 . S
C930 C931 1.387 . S
C930 H934 0.950 . S
C930 C939 1.390 . S
C931 C930 1.387 . S
C931 C933 1.387 . S
H932 C939 0.950 . S
C933 C931 1.387 . S
C933 C935 1.390 . S
C933 H937 0.950 . S
H934 C930 0.950 . S
C935 C933 1.390 . S
C935 C936 1.387 . S
C935 H938 0.950 . S
C936 C935 1.387 . S
C936 C939 1.387 . S
H937 C933 0.950 . S
H938 C935 0.950 . S
C939 C930 1.390 . S
C939 H932 0.950 . S
C939 C936 1.387 . S
C940 C941 1.387 . S
C940 H944 0.950 . S
C940 C949 1.390 . S
C941 C940 1.387 . S
C941 C943 1.387 . S
H942 C949 0.950 . S
C943 C941 1.387 . S
C943 C945 1.390 . S
C943 H947 0.950 . S
H944 C940 0.950 . S
C945 C943 1.390 . S
C945 C946 1.387 . S
C945 H948 0.950 . S
C946 C945 1.387 . S
C946 C949 1.387 . S
H947 C943 0.950 . S
H948 C945 0.950 . S
C949 C940 1.390 . S
C949 H942 0.950 . S
C949 C946 1.387 . S
C950 C951 1.387 . S
C950 H954 0.950 . S
C950 C959 1.390 . S
C951 C950 1.387 . S
C951 C953 1.387 . S
H952 C959 0.950 . S
C953 C951 1.387 . S
C953 C955 1.390 . S
C953 H957 0.950 . S
H954 C950 0.950 . S
C955 C953 1.390 . S
C955 C956 1.387 . S
C955 H958 0.950 . S
C956 C955 1.387 . S
C956 C959 1.387 . S
H957 C953 0.950 . S
H958 C955 0.950 . S
C959 C950 1.390 . S
C959 H952 0.950 . S
C959 C956 1.387 . S
C960 C961 1.387 . S
C960 H964 0.950 . S
C960 C969 1.390 . S
C961 C960 1.387 . S
C961 C963 1.387 . S
H962 C969 0.950 . S
C963 C961 1.387 . S
C963 C965 1.390 . S
C963 H967 0.950 . S
H964 C960 0.950 . S
C965 C963 1.390 . S
C965 C966 1.387 . S
C965 H968 0.950 . S
C966 C965 1.387 . S
C966 C969 1.387 . S
H967 C963 0.950 . S
H968 C965 0.950 . S
C969 C960 1.390 . S
C969 H962 0.950 . S
C969 C966 1.387 . S
C970 C971 1.387 . S
C970 H974 0.950 . S
C970 C979 1.390 . S
C971 C970 1.387 . S
C971 C973 1.387 . S
H972 C979 0.950 . S
C973 C971 1.387 . S
C973 C975 1.390 . S
C973 H977 0.950 . S
H974 C970 0.950 . S
C975 C973 1.390 . S
C975 C976 1.387 . S
C975 H978 0.950 . S
C976 C975 1.387 . S
C976 C979 1.387 . S
H977 C973 0.950 . S
H978 C975 0.950 . S
C979 C970 1.390 . S
C979 H972 0.950 . S
C979 C976 1.387 . S
C980 C981 1.387 . S
C980 H984 0.950 . S
C980 C989 1.390 . S
C981 C980 1.387 . S
C981 C983 1.387 . S
H982 C989 0.950 . S
C983 C981 1.387 . S
C983 C985 1.390 . S
C983 H987 0.950 . S
H984 C980 0.950 . S
C985 C983 1.390 . S
C985 C986 1.387 . S
C985 H988 0.950 . S
C986 C985 1.387 . S
C986 C989 1.387 . S
H987 C983 0.950 . S
H988 C985 0.950 . S
C989 C980 1.390 . S
C989 H982 0.950 . S
C989 C986 1.387 . S
C990 C991 1.387 . S
C990 H994 0.950 . S
C990 C999 1.390 . S
C991 C990 1.387 . S
C991 C993 1.387 . S
H992 C999 0.950 . S
C993 C991 1.387 . S
C993 C995 1.390 . S
C993 H997 0.950 . S
H994 C990 0.950 . S
C995 C993 1.390 . S
C995 C996 1.387 . S
C995 H998 0.950 . S
C996 C995 1.387 . S
C996 C999 1.387 . S
H997 C993 0.950 . S
H998 C995 0.950 . S
C999 C990 1.390 . S
C999 H992 0.950 . S
C999 C996 1.387 . S
C1000 C1001 1.387 . S
C1000 H1004 0.950 . S
C1000 C1009 1.390 . S
C1001 C1000 1.387 . S
C1001 C1003 1.387 . S
H1002 C1009 0.950 . S
C1003 C1001 1.387 . S
C1003 C1005 1.390 . S
C1003 H1007 0.950 . S
H1004 C1000 0.950 . S
C1005 C1003 1.390 . S
C1005 C1006 1.387 . S
C1005 H1008 0.950 . S
C1006 C1005 1.387 . S
C1006 C1009 1.387 . S
H1007 C1003 0.950 . S
H1008 C1005 0.950 . S
C1009 C1000 1.390 . S
C1009 H1002 0.950 . S
C1009 C1006 1.387 . S
C1010 C1011 1.387 . S
C1010 H1014 0.950 . S
C1010 C1019 1.390 . S
C1011 C1010 1.387 . S
C1011 C1013 1.387 . S
H1012 C1019 0.950 . S
C1013 C1011 1.387 . S
C1013 C1015 1.390 . S
C1013 H1017 0.950 . S
H1014 C1010 0.950 . S
C1015 C1013 1.390 . S
C1015 C1016 1.387 . S
C1015 H1018 0.950 . S
C1016 C1015 1.387 . S
C1016 C1019 1.387 . S
H1017 C1013 0.950 . S
H1018 C1015 0.950 . S
C1019 C1010 1.390 . S
C1019 H1012 0.950 . S
C1019 C1016 1.387 . S
C1020 C1021 1.387 . S
C1020 H1024 0.950 . S
C1020 C1029 1.390 . S
C1021 C1020 1.387 . S
C1021 C1023 1.387 . S
H1022 C1029 0.950 . S
C1023 C1021 1.387 . S
C1023 C1025 1.390 . S
C1023 H1027 0.950 . S
H1024 C1020 0.950 . S
C1025 C1023 1.390 . S
C1025 C1026 1.387 . S
C1025 H1028 0.950 . S
C1026 C1025 1.387 . S
C1026 C1029 1.387 . S
H1027 C1023 0.950 . S
H1028 C1025 0.950 . S
C1029 C1020 1.390 . S
C1029 H1022 0.950 . S
C1029 C1026 1.387 . S
C1030 C1031 1.387 . S
C1030 H1034 0.950 . S
C1030 C1039 1.390 . S
C1031 C1030 1.387 . S
C1031 C1033 1.387 . S
H1032 C1039 0.950 . S
C1033 C1031 1.387 . S
C1033 C1035 1.390 . S
C1033 H1037 0.950 . S
H1034 C1030 0.950 . S
C1035 C1033 1.390 . S
C1035 C1036 1.387 . S
C1035 H1038 0.950 . S
C1036 C1035 1.387 . S
C1036 C1039 1.387 . S
H1037 C1033 0.950 . S
H1038 C1035 0.950 . S
C1039 C1030 1.390 . S
C1039 H1032 0.950 . S
C1039 C1036 1.387 . S
C1040 C1041 1.387 . S
C1040 H1044 0.950 . S
C1040 C1049 1.390 . S
C1041 C1040 1.387 . S
C1041 C1043 1.387 . S
H1042 C1049 0.950 . S
C1043 C1041 1.387 . S
C1043 C1045 1.390 . S
C1043 H1047 0.950 . S
H1044 C1040 0.950 . S
C1045 C1043 1.390 . S
C1045 C1046 1.387 . S
C1045 H1048 0.950 . S
C1046 C1045 1.387 . S
C1046 C1049 1.387 . S
H1047 C1043 0.950 . S
H1048 C1045 0.950 . S
C1049 C1040 1.390 . S
C1049 H1042 0.950 . S
C1049 C1046 1.387 . S
C1050 C1051 1.387 . S
C1050 H1054 0.950 . S
C1050 C1059 1.390 . S
C1051 C1050 1.387 . S
C1051 C1053 1.387 . S
H1052 C1059 0.950 . S
C1053 C1051 1.387 . S
C1053 C1055 1.390 . S
C1053 H1057 0.950 . S
H1054 C1050 0.950 . S
C1055 C1053 1.390 . S
C1055 C1056 1.387 . S
C1055 H1058 0.950 . S
C1056 C1055 1.387 . S
C1056 C1059 1.387 . S
H1057 C1053 0.950 . S
H1058 C1055 0.950 . S
C1059 C1050 1.390 . S
C1059 H1052 0.950 . S
C1059 C1056 1.387 . S
C1060 C1061 1.387 . S
C1060 H1064 0.950 . S
C1060 C1069 1.390 . S
C1061 C1060 1.387 . S
C1061 C1063 1.387 . S
H1062 C1069 0.950 . S
C1063 C1061 1.387 . S
C1063 C1065 1.390 . S
C1063 H1067 0.950 . S
H1064 C1060 0.950 . S
C1065 C1063 1.390 . S
C1065 C1066 1.387 . S
C1065 H1068 0.950 . S
C1066 C1065 1.387 . S
C1066 C1069 1.387 . S
H1067 C1063 0.950 . S
H1068 C1065 0.950 . S
C1069 C1060 1.390 . S
C1069 H1062 0.950 . S
C1069 C1066 1.387 . S
C1070 C1071 1.387 . S
C1070 H1074 0.950 . S
C1070 C1079 1.390 . S
C1071 C1070 1.387 . S
C1071 C1073 1.387 . S
H1072 C1079 0.950 . S
C1073 C1071 1.387 . S
C1073 C1075 1.390 . S
C1073 H1077 0.950 . S
H1074 C1070 0.950 . S
C1075 C1073 1.390 . S
C1075 C1076 1.387 . S
C1075 H1078 0.950 . S
C1076 C1075 1.387 . S
C1076 C1079 1.387 . S
H1077 C1073 0.950 . S
H1078 C1075 0.950 . S
C1079 C1070 1.390 . S
C1079 H1072 0.950 . S
C1079 C1076 1.387 . S
C1080 C1081 1.387 . S
C1080 H1084 0.950 . S
C1080 C1089 1.390 . S
C1081 C1080 1.387 . S
C1081 C1083 1.387 1_455 S
H1082 C1089 0.950 . S
C1083 C1081 1.387 1_655 S
C1083 C1085 1.390 1_554 S
C1083 H1087 0.950 . S
H1084 C1080 0.950 . S
C1085 C1083 1.390 1_556 S
C1085 C1086 1.387 1_655 S
C1085 H1088 0.950 . S
C1086 C1085 1.387 1_455 S
C1086 C1089 1.387 1_556 S
H1087 C1083 0.950 . S
H1088 C1085 0.950 . S
C1089 C1080 1.390 . S
C1089 H1082 0.950 . S
C1089 C1086 1.387 1_554 S
C1090 C1091 1.387 1_556 S
C1090 H1094 0.950 . S
C1090 C1099 1.390 . S
C1091 C1090 1.387 1_554 S
C1091 C1093 1.387 . S
H1092 C1099 0.950 . S
C1093 C1091 1.387 . S
C1093 C1095 1.390 1_554 S
C1093 H1097 0.950 . S
H1094 C1090 0.950 . S
C1095 C1093 1.390 1_556 S
C1095 C1096 1.387 . S
C1095 H1098 0.950 . S
C1096 C1095 1.387 . S
C1096 C1099 1.387 . S
H1097 C1093 0.950 . S
H1098 C1095 0.950 . S
C1099 C1090 1.390 . S
C1099 H1092 0.950 . S
C1099 C1096 1.387 . S
C1100 C1101 1.387 . S
C1100 H1104 0.950 . S
C1100 C1109 1.390 1_554 S
C1101 C1100 1.387 . S
C1101 C1103 1.387 1_565 S
H1102 C1109 0.950 . S
C1103 C1101 1.387 1_545 S
C1103 C1105 1.390 1_554 S
C1103 H1107 0.950 . S
H1104 C1100 0.950 . S
C1105 C1103 1.390 1_556 S
C1105 C1106 1.387 . S
C1105 H1108 0.950 . S
C1106 C1105 1.387 . S
C1106 C1109 1.387 1_545 S
H1107 C1103 0.950 . S
H1108 C1105 0.950 . S
C1109 C1100 1.390 1_556 S
C1109 H1102 0.950 . S
C1109 C1106 1.387 1_565 S
C1110 C1111 1.387 1_554 S
C1110 H1114 0.958 1_455 S
C1110 C1119 1.390 1_455 S
C1111 C1110 1.387 1_556 S
C1111 C1113 1.387 . S
H1112 C1119 0.950 . S
C1113 C1111 1.387 . S
C1113 C1115 1.390 1_556 S
C1113 H1117 0.950 . S
H1114 C1110 0.958 1_655 S
C1115 C1113 1.390 1_554 S
C1115 C1116 1.387 . S
C1115 H1118 0.950 . S
C1116 C1115 1.387 . S
C1116 C1119 1.387 1_455 S
H1117 C1113 0.950 . S
H1118 C1115 0.950 . S
C1119 C1110 1.390 1_655 S
C1119 H1112 0.950 . S
C1119 C1116 1.387 1_655 S
C1120 C1121 1.387 . S
C1120 H1124 0.950 . S
C1120 C1129 1.390 . S
C1121 C1120 1.387 . S
C1121 C1123 1.387 . S
H1122 C1129 0.950 . S
C1123 C1121 1.387 . S
C1123 C1125 1.390 . S
C1123 H1127 0.950 . S
H1124 C1120 0.950 . S
C1125 C1123 1.390 . S
C1125 C1126 1.387 1_554 S
C1125 H1128 0.950 1_554 S
C1126 C1125 1.387 1_556 S
C1126 C1129 1.387 1_556 S
H1127 C1123 0.950 . S
H1128 C1125 0.950 1_556 S
C1129 C1120 1.390 . S
C1129 H1122 0.950 . S
C1129 C1126 1.387 1_554 S
C1130 C1131 1.387 1_545 S
C1130 H1134 0.950 . S
C1130 C1139 1.390 . S
C1131 C1130 1.387 1_565 S
C1131 C1133 1.387 . S
H1132 C1139 0.950 . S
C1133 C1131 1.387 . S
C1133 C1135 1.390 1_554 S
C1133 H1137 0.950 . S
H1134 C1130 0.950 . S
C1135 C1133 1.390 1_556 S
C1135 C1136 1.387 1_565 S
C1135 H1138 0.950 . S
C1136 C1135 1.387 1_545 S
C1136 C1139 1.387 1_556 S
H1137 C1133 0.950 . S
H1138 C1135 0.950 . S
C1139 C1130 1.390 . S
C1139 H1132 0.950 . S
C1139 C1136 1.387 1_554 S
C1140 C1141 1.387 . S
C1140 H1144 0.950 . S
C1140 C1149 1.390 . S
C1141 C1140 1.387 . S
C1141 C1143 1.387 . S
H1142 C1149 0.950 . S
C1143 C1141 1.387 . S
C1143 C1145 1.390 . S
C1143 H1147 0.950 . S
H1144 C1140 0.950 . S
C1145 C1143 1.390 . S
C1145 C1146 1.387 . S
C1145 H1148 0.950 . S
C1146 C1145 1.387 . S
C1146 C1149 1.387 . S
H1147 C1143 0.950 . S
H1148 C1145 0.950 . S
C1149 C1140 1.390 . S
C1149 H1142 0.950 . S
C1149 C1146 1.387 . S
C1150 C1151 1.387 . S
C1150 H1154 0.950 . S
C1150 C1159 1.390 . S
C1151 C1150 1.387 . S
C1151 C1153 1.387 . S
H1152 C1159 0.950 . S
C1153 C1151 1.387 . S
C1153 C1155 1.390 . S
C1153 H1157 0.950 . S
H1154 C1150 0.950 . S
C1155 C1153 1.390 . S
C1155 C1156 1.387 . S
C1155 H1158 0.950 . S
C1156 C1155 1.387 . S
C1156 C1159 1.387 . S
H1157 C1153 0.950 . S
H1158 C1155 0.950 . S
C1159 C1150 1.390 . S
C1159 H1152 0.950 . S
C1159 C1156 1.387 . S
C1160 C1161 1.387 . S
C1160 H1164 0.950 . S
C1160 C1169 1.390 . S
C1161 C1160 1.387 . S
C1161 C1163 1.387 . S
H1162 C1169 0.950 . S
C1163 C1161 1.387 . S
C1163 C1165 1.390 . S
C1163 H1167 0.950 . S
H1164 C1160 0.950 . S
C1165 C1163 1.390 . S
C1165 C1166 1.387 . S
C1165 H1168 0.950 . S
C1166 C1165 1.387 . S
C1166 C1169 1.387 . S
H1167 C1163 0.950 . S
H1168 C1165 0.950 . S
C1169 C1160 1.390 . S
C1169 H1162 0.950 . S
C1169 C1166 1.387 . S
C1170 C1171 1.387 . S
C1170 H1174 0.950 . S
C1170 C1179 1.390 . S
C1171 C1170 1.387 . S
C1171 C1173 1.387 . S
H1172 C1179 0.950 . S
C1173 C1171 1.387 . S
C1173 C1175 1.390 . S
C1173 H1177 0.950 . S
H1174 C1170 0.950 . S
C1175 C1173 1.390 . S
C1175 C1176 1.387 . S
C1175 H1178 0.950 . S
C1176 C1175 1.387 . S
C1176 C1179 1.387 . S
H1177 C1173 0.950 . S
H1178 C1175 0.950 . S
C1179 C1170 1.390 . S
C1179 H1172 0.950 . S
C1179 C1176 1.387 . S
C1180 C1181 1.387 . S
C1180 H1184 0.950 . S
C1180 C1189 1.390 . S
C1181 C1180 1.387 . S
C1181 C1183 1.387 . S
H1182 C1189 0.950 . S
C1183 C1181 1.387 . S
C1183 C1185 1.390 . S
C1183 H1187 0.950 . S
H1184 C1180 0.950 . S
C1185 C1183 1.390 . S
C1185 C1186 1.387 . S
C1185 H1188 0.950 . S
C1186 C1185 1.387 . S
C1186 C1189 1.387 . S
H1187 C1183 0.950 . S
H1188 C1185 0.950 . S
C1189 C1180 1.390 . S
C1189 H1182 0.950 . S
C1189 C1186 1.387 . S
C1190 C1191 1.387 . S
C1190 H1194 0.950 . S
C1190 C1199 1.390 . S
C1191 C1190 1.387 . S
C1191 C1193 1.387 . S
H1192 C1199 0.950 . S
C1193 C1191 1.387 . S
C1193 C1195 1.390 . S
C1193 H1197 0.950 . S
H1194 C1190 0.950 . S
C1195 C1193 1.390 . S
C1195 C1196 1.387 . S
C1195 H1198 0.950 . S
C1196 C1195 1.387 . S
C1196 C1199 1.387 . S
H1197 C1193 0.950 . S
H1198 C1195 0.950 . S
C1199 C1190 1.390 . S
C1199 H1192 0.950 . S
C1199 C1196 1.387 . S
C1200 C1201 1.387 . S
C1200 H1204 0.950 . S
C1200 C1209 1.390 . S
C1201 C1200 1.387 . S
C1201 C1203 1.387 . S
H1202 C1209 0.950 . S
C1203 C1201 1.387 . S
C1203 C1205 1.390 . S
C1203 H1207 0.950 . S
H1204 C1200 0.950 . S
C1205 C1203 1.390 . S
C1205 C1206 1.387 . S
C1205 H1208 0.950 . S
C1206 C1205 1.387 . S
C1206 C1209 1.387 . S
H1207 C1203 0.950 . S
H1208 C1205 0.950 . S
C1209 C1200 1.390 . S
C1209 H1202 0.950 . S
C1209 C1206 1.387 . S
C1210 C1211 1.387 . S
C1210 H1214 0.950 . S
C1210 C1219 1.390 . S
C1211 C1210 1.387 . S
C1211 C1213 1.387 . S
H1212 C1219 0.950 . S
C1213 C1211 1.387 . S
C1213 C1215 1.390 . S
C1213 H1217 0.950 . S
H1214 C1210 0.950 . S
C1215 C1213 1.390 . S
C1215 C1216 1.387 . S
C1215 H1218 0.950 . S
C1216 C1215 1.387 . S
C1216 C1219 1.387 . S
H1217 C1213 0.950 . S
H1218 C1215 0.950 . S
C1219 C1210 1.390 . S
C1219 H1212 0.950 . S
C1219 C1216 1.387 . S
C1220 C1221 1.387 . S
C1220 H1224 0.950 . S
C1220 C1229 1.390 . S
C1221 C1220 1.387 . S
C1221 C1223 1.387 . S
H1222 C1229 0.950 . S
C1223 C1221 1.387 . S
C1223 C1225 1.390 . S
C1223 H1227 0.950 . S
H1224 C1220 0.950 . S
C1225 C1223 1.390 . S
C1225 C1226 1.387 . S
C1225 H1228 0.950 . S
C1226 C1225 1.387 . S
C1226 C1229 1.387 . S
H1227 C1223 0.950 . S
H1228 C1225 0.950 . S
C1229 C1220 1.390 . S
C1229 H1222 0.950 . S
C1229 C1226 1.387 . S
C1230 C1231 1.387 . S
C1230 H1234 0.950 . S
C1230 C1239 1.390 . S
C1231 C1230 1.387 . S
C1231 C1233 1.387 . S
H1232 C1239 0.950 . S
C1233 C1231 1.387 . S
C1233 C1235 1.390 . S
C1233 H1237 0.950 . S
H1234 C1230 0.950 . S
C1235 C1233 1.390 . S
C1235 C1236 1.387 . S
C1235 H1238 0.950 . S
C1236 C1235 1.387 . S
C1236 C1239 1.387 . S
H1237 C1233 0.950 . S
H1238 C1235 0.950 . S
C1239 C1230 1.390 . S
C1239 H1232 0.950 . S
C1239 C1236 1.387 . S
C1240 C1241 1.387 . S
C1240 H1244 0.950 . S
C1240 C1249 1.390 . S
C1241 C1240 1.387 . S
C1241 C1243 1.387 . S
H1242 C1249 0.950 . S
C1243 C1241 1.387 . S
C1243 C1245 1.390 . S
C1243 H1247 0.950 . S
H1244 C1240 0.950 . S
C1245 C1243 1.390 . S
C1245 C1246 1.387 . S
C1245 H1248 0.950 . S
C1246 C1245 1.387 . S
C1246 C1249 1.387 . S
H1247 C1243 0.950 . S
H1248 C1245 0.950 . S
C1249 C1240 1.390 . S
C1249 H1242 0.950 . S
C1249 C1246 1.387 . S
C1250 C1251 1.387 . S
C1250 H1254 0.950 . S
C1250 C1259 1.390 . S
C1251 C1250 1.387 . S
C1251 C1253 1.387 . S
H1252 C1259 0.950 . S
C1253 C1251 1.387 . S
C1253 C1255 1.390 . S
C1253 H1257 0.950 . S
H1254 C1250 0.950 . S
C1255 C1253 1.390 . S
C1255 C1256 1.387 . S
C1255 H1258 0.950 . S
C1256 C1255 1.387 . S
C1256 C1259 1.387 . S
H1257 C1253 0.950 . S
H1258 C1255 0.950 . S
C1259 C1250 1.390 . S
C1259 H1252 0.950 . S
C1259 C1256 1.387 . S
C721 C539 2.502 . S
C726 C19 2.514 . S
C731 C58 2.041 . S
C736 C578 2.035 . S
C741 C99 2.278 . S
C746 C498 2.320 . S
C751 C98 1.884 . S
C756 C298 1.886 . S
C761 C338 2.193 . S
C766 C18 2.186 . S
C771 C59 2.354 . S
C776 C258 2.401 . S
C781 C130 2.274 . S
C786 C409 2.294 . S
C791 C169 1.747 . S
C796 C449 1.745 . S
C801 C369 2.011 . S
C806 C210 1.963 . S
C811 C649 2.051 . S
C816 C209 2.055 . S
C821 C129 2.314 . S
C826 C690 2.283 . S
C831 C610 2.532 . S
C836 C170 2.498 . S
C841 C339 2.160 . S
C846 C538 2.209 . S
C851 C259 2.403 . S
C856 C579 2.388 . S
C861 C299 2.655 . S
C866 C499 2.684 . S
C871 C370 2.794 . S
C876 C650 2.781 . S
C881 C689 2.343 . S
C886 C410 2.322 . S
C891 C609 2.629 . S
C896 C450 2.584 . S
C901 C9 1.452 . S
C906 C178 1.454 . S
C911 C219 1.892 . S
C916 C50 1.895 . S
C921 C139 1.685 . S
C926 C89 1.531 . S
C931 C179 1.921 . S
C936 C90 1.972 . S
C941 C218 1.694 . S
C946 C10 1.735 . S
C951 C138 1.532 . S
C956 C49 1.595 . S
C961 C419 1.994 . S
C966 C250 1.983 . S
C971 C459 2.059 . S
C976 C290 2.048 . S
C981 C379 2.086 . S
C986 C330 1.974 . S
C991 C418 1.515 . S
C996 C329 1.521 . S
C1001 C458 1.444 . S
C1006 C249 1.587 . S
C1011 C378 1.470 . S
C1016 C289 1.485 . S
C1021 C658 1.593 . S
C1026 C489 1.538 . S
C1031 C699 1.972 . S
C1036 C530 1.923 . S
C1041 C569 1.699 . S
C1046 C619 1.736 . S
C1051 C570 2.088 . S
C1056 C659 2.092 . S
C1061 C490 1.845 . S
C1066 C698 1.691 . S
C1071 C618 1.574 . S
C1076 C529 1.567 . S
C1081 C15 1.397 . S
C1086 C6 1.397 . S
C1091 C46 1.536 . S
C1096 C55 1.536 . S
C1101 C95 1.405 . S
C1106 C86 1.405 . S
C1111 C126 1.507 . S
C1116 C135 1.507 1_455 S
C1121 C166 1.373 . S
C1126 C175 1.373 . S
C1131 C215 1.604 . S
C1136 C206 1.604 . S
C1141 C255 1.792 . S
C1146 C246 1.792 . S
C1151 C286 1.346 . S
C1156 C295 1.346 . S
C1161 C335 1.794 . S
C1166 C326 1.794 . S
C1171 C366 1.347 . S
C1176 C375 1.347 . S
C1181 C406 1.734 . S
C1186 C415 1.734 . S
C1191 C446 1.368 . S
C1196 C455 1.368 . S
C1201 C486 1.373 . S
C1206 C495 1.373 . S
C1211 C526 1.508 . S
C1216 C535 1.508 . S
C1221 C575 1.408 . S
C1226 C566 1.408 . S
C1231 C615 1.566 . S
C1236 C606 1.566 . S
C1241 C646 1.369 . S
C1246 C655 1.369 . S
C1251 C686 1.500 . S
C1256 C695 1.500 . S
