# Generated by pormake.
# Topology zff, (5)-cn, num edge types: 1
# Building blocks:
#     Node 0, Type 0, BuildingBlock: BEQFEK_clean_sbu_0, # of connection points: 5
#     Node 1, Type 0, BuildingBlock: BEQFEK_clean_sbu_0, # of connection points: 5
#     Node 2, Type 0, BuildingBlock: BEQFEK_clean_sbu_0, # of connection points: 5
#     Node 3, Type 0, BuildingBlock: BEQFEK_clean_sbu_0, # of connection points: 5
#     Node 4, Type 0, BuildingBlock: BEQFEK_clean_sbu_0, # of connection points: 5
#     Node 5, Type 0, BuildingBlock: BEQFEK_clean_sbu_0, # of connection points: 5
#     Node 6, Type 0, BuildingBlock: BEQFEK_clean_sbu_0, # of connection points: 5
#     Node 7, Type 0, BuildingBlock: BEQFEK_clean_sbu_0, # of connection points: 5
#     Node 8, Type 0, BuildingBlock: BEQFEK_clean_sbu_0, # of connection points: 5
#     Node 9, Type 0, BuildingBlock: BEQFEK_clean_sbu_0, # of connection points: 5
#     Node 10, Type 0, BuildingBlock: BEQFEK_clean_sbu_0, # of connection points: 5
#     Node 11, Type 0, BuildingBlock: BEQFEK_clean_sbu_0, # of connection points: 5
#     Node 12, Type 0, BuildingBlock: BEQFEK_clean_sbu_0, # of connection points: 5
#     Node 13, Type 0, BuildingBlock: BEQFEK_clean_sbu_0, # of connection points: 5
#     Node 14, Type 0, BuildingBlock: BEQFEK_clean_sbu_0, # of connection points: 5
#     Node 15, Type 0, BuildingBlock: BEQFEK_clean_sbu_0, # of connection points: 5
#     Edge 16, Type (0, 0), BuildingBlock: OJICUG_clean_linker_0, # of connection points: 2
#     Edge 17, Type (0, 0), BuildingBlock: OJICUG_clean_linker_0, # of connection points: 2
#     Edge 18, Type (0, 0), BuildingBlock: OJICUG_clean_linker_0, # of connection points: 2
#     Edge 19, Type (0, 0), BuildingBlock: OJICUG_clean_linker_0, # of connection points: 2
#     Edge 20, Type (0, 0), BuildingBlock: OJICUG_clean_linker_0, # of connection points: 2
#     Edge 21, Type (0, 0), BuildingBlock: OJICUG_clean_linker_0, # of connection points: 2
#     Edge 22, Type (0, 0), BuildingBlock: OJICUG_clean_linker_0, # of connection points: 2
#     Edge 23, Type (0, 0), BuildingBlock: OJICUG_clean_linker_0, # of connection points: 2
#     Edge 24, Type (0, 0), BuildingBlock: OJICUG_clean_linker_0, # of connection points: 2
#     Edge 25, Type (0, 0), BuildingBlock: OJICUG_clean_linker_0, # of connection points: 2
#     Edge 26, Type (0, 0), BuildingBlock: OJICUG_clean_linker_0, # of connection points: 2
#     Edge 27, Type (0, 0), BuildingBlock: OJICUG_clean_linker_0, # of connection points: 2
#     Edge 28, Type (0, 0), BuildingBlock: OJICUG_clean_linker_0, # of connection points: 2
#     Edge 29, Type (0, 0), BuildingBlock: OJICUG_clean_linker_0, # of connection points: 2
#     Edge 30, Type (0, 0), BuildingBlock: OJICUG_clean_linker_0, # of connection points: 2
#     Edge 31, Type (0, 0), BuildingBlock: OJICUG_clean_linker_0, # of connection points: 2
#     Edge 32, Type (0, 0), BuildingBlock: OJICUG_clean_linker_0, # of connection points: 2
#     Edge 33, Type (0, 0), BuildingBlock: OJICUG_clean_linker_0, # of connection points: 2
#     Edge 34, Type (0, 0), BuildingBlock: OJICUG_clean_linker_0, # of connection points: 2
#     Edge 35, Type (0, 0), BuildingBlock: OJICUG_clean_linker_0, # of connection points: 2
#     Edge 36, Type (0, 0), BuildingBlock: OJICUG_clean_linker_0, # of connection points: 2
#     Edge 37, Type (0, 0), BuildingBlock: OJICUG_clean_linker_0, # of connection points: 2
#     Edge 38, Type (0, 0), BuildingBlock: OJICUG_clean_linker_0, # of connection points: 2
#     Edge 39, Type (0, 0), BuildingBlock: OJICUG_clean_linker_0, # of connection points: 2
#     Edge 40, Type (0, 0), BuildingBlock: OJICUG_clean_linker_0, # of connection points: 2
#     Edge 41, Type (0, 0), BuildingBlock: OJICUG_clean_linker_0, # of connection points: 2
#     Edge 42, Type (0, 0), BuildingBlock: OJICUG_clean_linker_0, # of connection points: 2
#     Edge 43, Type (0, 0), BuildingBlock: OJICUG_clean_linker_0, # of connection points: 2
#     Edge 44, Type (0, 0), BuildingBlock: OJICUG_clean_linker_0, # of connection points: 2
#     Edge 45, Type (0, 0), BuildingBlock: OJICUG_clean_linker_0, # of connection points: 2
#     Edge 46, Type (0, 0), BuildingBlock: OJICUG_clean_linker_0, # of connection points: 2
#     Edge 47, Type (0, 0), BuildingBlock: OJICUG_clean_linker_0, # of connection points: 2
#     Edge 48, Type (0, 0), BuildingBlock: OJICUG_clean_linker_0, # of connection points: 2
#     Edge 49, Type (0, 0), BuildingBlock: OJICUG_clean_linker_0, # of connection points: 2
#     Edge 50, Type (0, 0), BuildingBlock: OJICUG_clean_linker_0, # of connection points: 2
#     Edge 51, Type (0, 0), BuildingBlock: OJICUG_clean_linker_0, # of connection points: 2
#     Edge 52, Type (0, 0), BuildingBlock: OJICUG_clean_linker_0, # of connection points: 2
#     Edge 53, Type (0, 0), BuildingBlock: OJICUG_clean_linker_0, # of connection points: 2
#     Edge 54, Type (0, 0), BuildingBlock: OJICUG_clean_linker_0, # of connection points: 2
#     Edge 55, Type (0, 0), BuildingBlock: OJICUG_clean_linker_0, # of connection points: 2
# Relax obj value: 0.055
# Max RMSD: 0.093
# Mean RMSD: 0.093
data_MOF--net-zff--node1-BEQFEK_clean_sbu_0--edge1-OJICUG_clean_linker_0
_symmetry_space_group_name_H-M    P1
_symmetry_Int_Tables_number       1
_symmetry_cell_setting            triclinic
loop_
_symmetry_equiv_pos_as_xyz
'x, y, z'
_cell_length_a     27.939256
_cell_length_b     27.933184
_cell_length_c     57.690454
_cell_angle_alpha  89.994135
_cell_angle_beta   90.011685
_cell_angle_gamma 89.99726
loop_
_atom_site_label
_atom_site_type_symbol
_atom_site_fract_x
_atom_site_fract_y
_atom_site_fract_z
_atom_type_partial_charge
Co0 Co 0.02401 0.24934 0.41878 0.0
Co1 Co 0.03328 0.26283 0.36468 0.0
C2 C 0.09777 0.19705 0.38973 0.0
O3 O 0.0798 0.20875 0.40931 0.0
O4 O 0.08229 0.21476 0.3709 0.0
C5 C 0.03168 0.27772 0.46812 0.0
O6 O 0.06134 0.31164 0.46163 0.0
C7 C 0.07936 0.29076 0.32075 0.0
C8 C 0.01719 0.31107 0.29924 0.0
C9 C 0.06673 0.30917 0.29924 0.0
N10 N 0.03911 0.28286 0.33301 0.0
N11 N 0.00208 0.29454 0.31992 0.0
C12 C 0.12852 0.27862 0.3293 0.0
H13 H 0.13117 0.285 0.34823 0.0
H14 H 0.1566 0.29904 0.32002 0.0
H15 H 0.135 0.23992 0.32628 0.0
C16 C 0.0102 0.35398 0.41435 0.0
N17 N 0.02609 0.31162 0.40634 0.0
N18 N 0.04038 0.31678 0.38481 0.0
C19 C 0.04013 0.36359 0.37942 0.0
C20 C 0.01954 0.3891 0.39772 0.0
C21 C 0.97633 0.35779 0.43444 0.0
H22 H 0.96154 0.32213 0.43892 0.0
H23 H -0.00471 0.37239 0.44976 0.0
H24 H 0.94615 0.38209 0.43018 0.0
O25 O 0.96654 0.22074 0.40715 0.0
O26 O 0.9678 0.2324 0.36907 0.0
H27 H 0.03687 0.38189 0.34335 0.0
H28 H 0.07528 0.42047 0.36049 0.0
C29 C 0.06283 0.38315 0.35789 0.0
H30 H 0.09435 0.36128 0.35322 0.0
H31 H 0.96648 0.29242 0.32534 0.0
O32 O 0.0151 0.24873 0.45317 0.0
C33 C 0.94696 0.21729 0.38741 0.0
Co34 Co 0.72781 0.02586 0.41922 0.0
Co35 Co 0.71364 0.03323 0.36506 0.0
C36 C 0.77881 0.09939 0.38918 0.0
O37 O 0.76749 0.08178 0.4089 0.0
O38 O 0.76117 0.08323 0.37045 0.0
C39 C 0.69906 0.03397 0.46852 0.0
O40 O 0.66423 0.06239 0.46185 0.0
C41 C 0.68271 0.07344 0.31972 0.0
C42 C 0.65811 0.00776 0.30208 0.0
C43 C 0.66032 0.05711 0.29964 0.0
N44 N 0.69226 0.03546 0.33342 0.0
N45 N 0.67833 -0.00368 0.32249 0.0
C46 C 0.69037 0.12435 0.32693 0.0
H47 H 0.69584 0.1269 0.34592 0.0
H48 H 0.65933 0.14678 0.32178 0.0
H49 H 0.72273 0.13846 0.31812 0.0
C50 C 0.62337 0.00982 0.41493 0.0
N51 N 0.66546 0.02637 0.40688 0.0
N52 N 0.66001 0.0406 0.38537 0.0
C53 C 0.6132 0.03971 0.38004 0.0
C54 C 0.58807 0.01865 0.39832 0.0
C55 C 0.62009 0.9761 0.4351 0.0
H56 H 0.65602 0.96214 0.43971 0.0
H57 H 0.60492 -0.00509 0.45032 0.0
H58 H 0.59646 0.94538 0.43086 0.0
O59 O 0.75725 0.96838 0.40824 0.0
O60 O 0.74518 0.96844 0.37021 0.0
H61 H 0.59382 0.03764 0.34408 0.0
H62 H 0.55593 0.07558 0.36175 0.0
C63 C 0.59314 0.06313 0.35881 0.0
H64 H 0.61506 0.09471 0.35425 0.0
H65 H 0.68055 0.96194 0.32948 0.0
O66 O 0.72873 0.01819 0.45368 0.0
C67 C 0.7608 0.94831 0.38864 0.0
Co68 Co 0.95247 0.72752 0.41939 0.0
Co69 Co 0.94353 0.71447 0.36528 0.0
C70 C 0.87877 0.77989 0.39038 0.0
O71 O 0.89662 0.76803 0.40996 0.0
O72 O 0.89441 0.76238 0.37154 0.0
C73 C 0.94522 0.69879 0.46872 0.0
O74 O 0.91597 0.66448 0.46227 0.0
C75 C 0.89762 0.68655 0.32132 0.0
C76 C 0.95989 0.66722 0.29969 0.0
C77 C 0.91033 0.66856 0.29974 0.0
N78 N 0.93784 0.69476 0.33356 0.0
N79 N 0.97492 0.68367 0.3204 0.0
C80 C 0.84835 0.69796 0.32995 0.0
H81 H 0.84618 0.6924 0.34896 0.0
H82 H 0.82061 0.67643 0.32103 0.0
H83 H 0.84088 0.73632 0.3265 0.0
C84 C 0.96699 0.62299 0.41474 0.0
N85 N 0.95076 0.66533 0.40684 0.0
N86 N 0.93651 0.6603 0.38529 0.0
C87 C 0.93713 0.61355 0.37978 0.0
C88 C 0.95794 0.588 0.398 0.0
C89 C 0.0009 0.6192 0.43482 0.0
H90 H 0.01541 0.65492 0.4394 0.0
H91 H 0.98206 0.60424 0.45009 0.0
H92 H 0.03126 0.59518 0.43049 0.0
O93 O 0.00985 0.75649 0.40792 0.0
O94 O 0.00892 0.74503 0.36983 0.0
H95 H 0.9404 0.59573 0.34366 0.0
H96 H 0.90241 0.55659 0.36072 0.0
C97 C 0.91452 0.59406 0.35821 0.0
H98 H 0.88278 0.61569 0.35363 0.0
H99 H 0.01053 0.68614 0.32579 0.0
O100 O 0.96134 0.728 0.45375 0.0
C101 C 0.02956 0.76013 0.38823 0.0
Co102 Co 0.24949 0.95201 0.41927 0.0
Co103 Co 0.26278 0.94355 0.3651 0.0
C104 C 0.19774 0.87816 0.39004 0.0
O105 O 0.20934 0.89595 0.40968 0.0
O106 O 0.21526 0.89404 0.37125 0.0
C107 C 0.27779 0.94445 0.46869 0.0
O108 O 0.31179 0.9148 0.4623 0.0
C109 C 0.28965 0.89835 0.32077 0.0
C110 C 0.31297 0.96068 0.30009 0.0
C111 C 0.30927 0.91123 0.29952 0.0
N112 N 0.28293 0.93832 0.33341 0.0
N113 N 0.29637 0.97547 0.3208 0.0
C114 C 0.27529 0.84934 0.3287 0.0
H115 H 0.23564 0.84724 0.32891 0.0
H116 H 0.28769 0.84314 0.34671 0.0
H117 H 0.28901 0.8209 0.31708 0.0
C118 C 0.35419 0.96613 0.41483 0.0
N119 N 0.31174 0.95054 0.40678 0.0
N120 N 0.3168 0.93664 0.38518 0.0
C121 C 0.36357 0.93684 0.37976 0.0
C122 C 0.38921 0.957 0.39813 0.0
C123 C 0.35823 -0.00048 0.4351 0.0
H124 H 0.32265 0.01431 0.43972 0.0
H125 H 0.37291 0.98015 0.45028 0.0
H126 H 0.38258 0.02973 0.43097 0.0
O127 O 0.22021 0.00928 0.40778 0.0
O128 O 0.2317 0.00866 0.3697 0.0
H129 H 0.38207 0.94097 0.34374 0.0
H130 H 0.4201 0.90162 0.36065 0.0
C131 C 0.38293 0.91456 0.35808 0.0
H132 H 0.36068 0.88348 0.35314 0.0
H133 H 0.29551 0.01084 0.32661 0.0
O134 O 0.24886 0.96088 0.45367 0.0
C135 C 0.21638 0.02907 0.38811 0.0
Co136 Co 0.02511 0.72812 0.6086 0.0
Co137 Co 0.03355 0.71478 0.66271 0.0
C138 C 0.09869 0.78014 0.63783 0.0
O139 O 0.08099 0.76843 0.61819 0.0
O140 O 0.08282 0.76259 0.65662 0.0
C141 C 0.03299 0.69946 0.55932 0.0
O142 O 0.0624 0.66536 0.56588 0.0
C143 C 0.07921 0.68722 0.70676 0.0
C144 C 0.01702 0.66576 0.72798 0.0
C145 C 0.06654 0.66829 0.72817 0.0
N146 N 0.03903 0.69476 0.6944 0.0
N147 N 0.00198 0.68242 0.70732 0.0
C148 C 0.12831 0.70012 0.69841 0.0
H149 H 0.13213 0.69135 0.67975 0.0
H150 H 0.15672 0.68218 0.70861 0.0
H151 H 0.13309 0.73939 0.70018 0.0
C152 C 0.01066 0.62355 0.61308 0.0
N153 N 0.02666 0.66588 0.62109 0.0
N154 N 0.04072 0.66075 0.64265 0.0
C155 C 0.04022 0.61396 0.64809 0.0
C156 C 0.0197 0.58846 0.62977 0.0
C157 C 0.97695 0.61981 0.59292 0.0
H158 H 0.96236 0.65552 0.58837 0.0
H159 H -0.00402 0.60505 0.57766 0.0
H160 H 0.94663 0.59567 0.59714 0.0
O161 O 0.96768 0.75715 0.62 0.0
O162 O 0.96826 0.74549 0.65808 0.0
H163 H 0.03651 0.59563 0.68415 0.0
H164 H 0.07517 0.5571 0.66712 0.0
C165 C 0.06266 0.59441 0.66969 0.0
H166 H 0.09409 0.6163 0.67448 0.0
H167 H 0.96644 0.6841 0.70177 0.0
O168 O 0.01654 0.72862 0.57422 0.0
C169 C 0.94781 0.76075 0.63966 0.0
Co170 Co 0.24961 0.02549 0.60859 0.0
Co171 Co 0.26289 0.03398 0.66276 0.0
C172 C 0.19775 0.09929 0.63781 0.0
O173 O 0.20939 0.08148 0.61819 0.0
O174 O 0.21529 0.08346 0.65662 0.0
C175 C 0.27812 0.03283 0.55919 0.0
O176 O 0.31239 0.06215 0.56561 0.0
C177 C 0.2896 0.07892 0.70721 0.0
C178 C 0.31337 0.01648 0.72769 0.0
C179 C 0.3094 0.0659 0.7284 0.0
N180 N 0.28306 0.03906 0.69446 0.0
N181 N 0.29676 0.00184 0.70695 0.0
C182 C 0.27488 0.12793 0.69943 0.0
H183 H 0.23524 0.12932 0.69853 0.0
H184 H 0.28848 0.13498 0.68169 0.0
H185 H 0.28721 0.15621 0.7115 0.0
C186 C 0.35419 0.01092 0.61316 0.0
N187 N 0.31184 0.02693 0.62113 0.0
N188 N 0.3169 0.04095 0.6427 0.0
C189 C 0.36365 0.04043 0.64819 0.0
C190 C 0.38922 0.01992 0.62989 0.0
C191 C 0.35799 0.97725 0.59299 0.0
H192 H 0.3223 0.96269 0.5884 0.0
H193 H 0.37283 -0.00371 0.57776 0.0
H194 H 0.38209 0.94689 0.59723 0.0
O195 O 0.22047 0.96816 0.62003 0.0
O196 O 0.23198 0.96881 0.65812 0.0
H197 H 0.38225 0.03635 0.6842 0.0
H198 H 0.42019 0.07571 0.66726 0.0
C199 C 0.38304 0.06275 0.66985 0.0
H200 H 0.36077 0.09381 0.67481 0.0
H201 H 0.29608 0.96654 0.70105 0.0
O202 O 0.24899 0.01668 0.57419 0.0
C203 C 0.21675 0.94835 0.6397 0.0
Co204 Co 0.95243 0.24998 0.60832 0.0
Co205 Co 0.94374 0.2634 0.66244 0.0
C206 C 0.87876 0.19797 0.63753 0.0
O207 O 0.89654 0.20963 0.61791 0.0
O208 O 0.89454 0.21557 0.65633 0.0
C209 C 0.94481 0.27847 0.55895 0.0
O210 O 0.91561 0.3128 0.56544 0.0
C211 C 0.89804 0.29115 0.70647 0.0
C212 C 0.9603 0.31197 0.7278 0.0
C213 C 0.91077 0.30979 0.72793 0.0
N214 N 0.93821 0.28343 0.69413 0.0
N215 N 0.9753 0.2954 0.70711 0.0
C216 C 0.84887 0.27863 0.69806 0.0
H217 H 0.84556 0.28627 0.67926 0.0
H218 H 0.82064 0.29777 0.70785 0.0
H219 H 0.84329 0.2396 0.70044 0.0
C220 C 0.96694 0.35457 0.61284 0.0
N221 N 0.9508 0.31225 0.6208 0.0
N222 N 0.93661 0.31737 0.64234 0.0
C223 C 0.93716 0.36413 0.6478 0.0
C224 C 0.95788 0.38963 0.62954 0.0
C225 C 0.0007 0.35832 0.59271 0.0
H226 H 0.01517 0.32258 0.58812 0.0
H227 H 0.98175 0.37324 0.57746 0.0
H228 H 0.03109 0.38233 0.59698 0.0
O229 O 0.00984 0.22101 0.6198 0.0
O230 O 0.00904 0.2327 0.65788 0.0
H231 H 0.94045 0.38232 0.68389 0.0
H232 H 0.90215 0.42104 0.66677 0.0
C233 C 0.91451 0.38367 0.66935 0.0
H234 H 0.88294 0.36186 0.67402 0.0
H235 H 0.01086 0.29349 0.7016 0.0
O236 O 0.96108 0.24932 0.57391 0.0
C237 C 0.0296 0.21744 0.63949 0.0
Co238 Co 0.72771 0.95261 0.60843 0.0
Co239 Co 0.71453 0.94424 0.66261 0.0
C240 C 0.77964 0.87888 0.63768 0.0
O241 O 0.76796 0.8966 0.61804 0.0
O242 O 0.76212 0.8948 0.65647 0.0
C243 C 0.6991 0.94551 0.55903 0.0
O244 O 0.66484 0.91615 0.56543 0.0
C245 C 0.68789 0.89921 0.70703 0.0
C246 C 0.66427 0.96159 0.72758 0.0
C247 C 0.66818 0.91216 0.72824 0.0
N248 N 0.69444 0.93911 0.69431 0.0
N249 N 0.68083 0.9763 0.70684 0.0
C250 C 0.70251 0.85021 0.69919 0.0
H251 H 0.74216 0.84866 0.69844 0.0
H252 H 0.68916 0.8434 0.68139 0.0
H253 H 0.68988 0.82186 0.71115 0.0
C254 C 0.62314 0.9673 0.61304 0.0
N255 N 0.6655 0.95123 0.62099 0.0
N256 N 0.66048 0.93721 0.64257 0.0
C257 C 0.61376 0.9378 0.64808 0.0
C258 C 0.58815 0.95835 0.6298 0.0
C259 C 0.6193 0.00098 0.59288 0.0
H260 H 0.655 0.01551 0.58827 0.0
H261 H 0.60441 0.98195 0.57765 0.0
H262 H 0.59525 0.03136 0.59712 0.0
O263 O 0.75692 0.0099 0.61986 0.0
O264 O 0.74539 0.00942 0.65794 0.0
H265 H 0.59529 0.94181 0.68411 0.0
H266 H 0.55721 0.90258 0.66717 0.0
C267 C 0.5944 0.91545 0.66974 0.0
H268 H 0.61662 0.88433 0.67467 0.0
H269 H 0.68153 0.01163 0.70097 0.0
O270 O 0.72827 0.96153 0.57404 0.0
C271 C 0.76064 0.0298 0.63951 0.0
Co272 Co 0.52492 0.74971 0.91922 0.0
Co273 Co 0.53393 0.76329 0.86512 0.0
C274 C 0.59847 0.69741 0.89006 0.0
O275 O 0.58062 0.70909 0.90966 0.0
O276 O 0.58291 0.71518 0.87125 0.0
C277 C 0.53239 0.77805 0.96858 0.0
O278 O 0.56185 0.8122 0.96215 0.0
C279 C 0.57982 0.79133 0.82115 0.0
C280 C 0.51756 0.8117 0.79971 0.0
C281 C 0.5671 0.8098 0.79966 0.0
N282 N 0.53961 0.7834 0.83344 0.0
N283 N 0.50254 0.79511 0.82039 0.0
C284 C 0.62901 0.77914 0.82964 0.0
H285 H 0.63176 0.78555 0.84857 0.0
H286 H 0.65707 0.7995 0.82032 0.0
H287 H 0.63542 0.74043 0.82664 0.0
C288 C 0.51089 0.85432 0.9148 0.0
N289 N 0.52692 0.812 0.9068 0.0
N290 N 0.54118 0.81719 0.88527 0.0
C291 C 0.54079 0.864 0.87987 0.0
C292 C 0.52013 0.88945 0.89816 0.0
C293 C 0.47697 0.85805 0.93487 0.0
H294 H 0.46231 0.82235 0.93937 0.0
H295 H 0.49584 0.87279 0.95018 0.0
H296 H 0.44671 0.88222 0.93058 0.0
O297 O 0.46742 0.72112 0.90767 0.0
O298 O 0.46845 0.73288 0.86959 0.0
H299 H 0.53747 0.88226 0.8438 0.0
H300 H 0.57575 0.92098 0.86093 0.0
C301 C 0.56342 0.88361 0.85833 0.0
H302 H 0.59501 0.86183 0.85367 0.0
H303 H 0.46695 0.79298 0.82585 0.0
O304 O 0.51607 0.749 0.95359 0.0
C305 C 0.44772 0.71772 0.88796 0.0
Co306 Co 0.22801 0.52588 0.91898 0.0
Co307 Co 0.21501 0.53373 0.86481 0.0
C308 C 0.27965 0.59964 0.8897 0.0
O309 O 0.26793 0.58208 0.90937 0.0
O310 O 0.26238 0.58342 0.87092 0.0
C311 C 0.19912 0.53356 0.96828 0.0
O312 O 0.16487 0.56279 0.96174 0.0
C313 C 0.1882 0.57874 0.82047 0.0
C314 C 0.16518 0.51637 0.79975 0.0
C315 C 0.16867 0.56584 0.79922 0.0
N316 N 0.19507 0.53876 0.83309 0.0
N317 N 0.18184 0.50158 0.82046 0.0
C318 C 0.20224 0.6278 0.82846 0.0
H319 H 0.24188 0.63017 0.82867 0.0
H320 H 0.18983 0.63381 0.84649 0.0
H321 H 0.1883 0.65621 0.81688 0.0
C322 C 0.12351 0.51075 0.91434 0.0
N323 N 0.16584 0.52683 0.90637 0.0
N324 N 0.16081 0.54064 0.88477 0.0
C325 C 0.11408 0.53993 0.87924 0.0
C326 C 0.0885 0.5195 0.89756 0.0
C327 C 0.11974 0.47726 0.93458 0.0
H328 H 0.15546 0.46282 0.93922 0.0
H329 H 0.10484 0.49642 0.94977 0.0
H330 H 0.09572 0.44681 0.93041 0.0
O331 O 0.25765 0.46866 0.90769 0.0
O332 O 0.24616 0.4687 0.8696 0.0
H333 H 0.09567 0.53568 0.84321 0.0
H334 H 0.05747 0.57492 0.86008 0.0
C335 C 0.09468 0.56211 0.85754 0.0
H336 H 0.11681 0.59328 0.8526 0.0
H337 H 0.18283 0.4662 0.82625 0.0
O338 O 0.2284 0.51734 0.95337 0.0
C339 C 0.26153 0.4486 0.88809 0.0
Co340 Co 0.4532 0.22789 0.91943 0.0
Co341 Co 0.44409 0.21433 0.86532 0.0
C342 C 0.37963 0.28024 0.89028 0.0
O343 O 0.39746 0.26855 0.9099 0.0
O344 O 0.39517 0.26246 0.87148 0.0
C345 C 0.44613 0.19943 0.9688 0.0
O346 O 0.41666 0.16527 0.9624 0.0
C347 C 0.39802 0.18632 0.82139 0.0
C348 C 0.4602 0.16619 0.79986 0.0
C349 C 0.41065 0.16798 0.79986 0.0
N350 N 0.43828 0.19429 0.83364 0.0
N351 N 0.47531 0.1827 0.82054 0.0
C352 C 0.34885 0.19837 0.82994 0.0
H353 H 0.34633 0.19228 0.8489 0.0
H354 H 0.32083 0.17765 0.82077 0.0
H355 H 0.34216 0.23698 0.82677 0.0
C356 C 0.46736 0.12328 0.91495 0.0
N357 N 0.45121 0.1656 0.90699 0.0
N358 N 0.43685 0.16044 0.88547 0.0
C359 C 0.4373 0.11365 0.88004 0.0
C360 C 0.45812 0.08819 0.89829 0.0
C361 C 0.50139 0.11954 0.93498 0.0
H362 H 0.51601 0.15526 0.93949 0.0
H363 H 0.48262 0.10472 0.9503 0.0
H364 H 0.53167 0.09544 0.93065 0.0
O365 O 0.51065 0.2565 0.90785 0.0
O366 O 0.50959 0.24471 0.86978 0.0
H367 H 0.44039 0.09549 0.84395 0.0
H368 H 0.40232 0.05666 0.86112 0.0
C369 C 0.41455 0.09405 0.85853 0.0
H370 H 0.38288 0.11578 0.85392 0.0
H371 H 0.51092 0.1849 0.82596 0.0
O372 O 0.46226 0.22856 0.9538 0.0
C373 C 0.53033 0.2599 0.88814 0.0
Co374 Co 0.74997 0.45191 0.91914 0.0
Co375 Co 0.76303 0.44381 0.86494 0.0
C376 C 0.69833 0.37806 0.88985 0.0
O377 O 0.70999 0.39574 0.9095 0.0
O378 O 0.71567 0.39415 0.87106 0.0
C379 C 0.77858 0.44433 0.96854 0.0
O380 O 0.81298 0.41521 0.96207 0.0
C381 C 0.78973 0.39892 0.82052 0.0
C382 C 0.81304 0.46136 0.79993 0.0
C383 C 0.80933 0.41192 0.7993 0.0
N384 N 0.78304 0.43881 0.83322 0.0
N385 N 0.79646 0.47604 0.82067 0.0
C386 C 0.77538 0.34986 0.82839 0.0
H387 H 0.73573 0.34793 0.82888 0.0
H388 H 0.78828 0.34336 0.8463 0.0
H389 H 0.78863 0.32152 0.81659 0.0
C390 C 0.85453 0.46687 0.91449 0.0
N391 N 0.81217 0.45082 0.90654 0.0
N392 N 0.81716 0.43692 0.88495 0.0
C393 C 0.86387 0.43756 0.87941 0.0
C394 C 0.8895 0.45805 0.8977 0.0
C395 C 0.85837 0.50033 0.93474 0.0
H396 H 0.82267 0.51474 0.93941 0.0
H397 H 0.87334 0.48114 0.9499 0.0
H398 H 0.88236 0.53079 0.93055 0.0
O399 O 0.72044 0.50914 0.90777 0.0
O400 O 0.73189 0.50884 0.86968 0.0
H401 H 0.88228 0.44157 0.84338 0.0
H402 H 0.92039 0.40232 0.8603 0.0
C403 C 0.8832 0.41521 0.85775 0.0
H404 H 0.86098 0.38409 0.85283 0.0
H405 H 0.79563 0.51137 0.82653 0.0
O406 O 0.7494 0.4605 0.95356 0.0
C407 C 0.71657 0.52908 0.88813 0.0
Co408 Co 0.52558 0.22792 0.10869 0.0
Co409 Co 0.53298 0.21395 0.16287 0.0
C410 C 0.59912 0.27898 0.13868 0.0
O411 O 0.58145 0.2676 0.11898 0.0
O412 O 0.58299 0.26144 0.15744 0.0
C413 C 0.53406 0.1992 0.05941 0.0
O414 O 0.56255 0.16444 0.0661 0.0
C415 C 0.5731 0.18315 0.20825 0.0
C416 C 0.50742 0.1584 0.22583 0.0
C417 C 0.55674 0.16072 0.22832 0.0
N418 N 0.53517 0.19262 0.19452 0.0
N419 N 0.49603 0.17861 0.20541 0.0
C420 C 0.62402 0.19092 0.2011 0.0
H421 H 0.62664 0.19642 0.18211 0.0
H422 H 0.64648 0.15991 0.20626 0.0
H423 H 0.63802 0.2233 0.20994 0.0
C424 C 0.50991 0.12343 0.113 0.0
N425 N 0.5262 0.16561 0.12106 0.0
N426 N 0.54039 0.16025 0.14259 0.0
C427 C 0.53974 0.11343 0.14792 0.0
C428 C 0.51889 0.08817 0.12962 0.0
C429 C 0.47631 0.11998 0.09279 0.0
H430 H 0.4622 0.15585 0.08816 0.0
H431 H 0.49526 0.1049 0.07759 0.0
H432 H 0.44569 0.09621 0.097 0.0
O433 O 0.46808 0.25734 0.11963 0.0
O434 O 0.46821 0.2455 0.15768 0.0
H435 H 0.53774 0.09404 0.18388 0.0
H436 H 0.57592 0.05636 0.16622 0.0
C437 C 0.56325 0.09351 0.16916 0.0
H438 H 0.59468 0.11561 0.17373 0.0
H439 H 0.46166 0.18075 0.19838 0.0
O440 O 0.51805 0.22877 0.07424 0.0
C441 C 0.44804 0.26099 0.13924 0.0
Co442 Co 0.74918 0.52394 0.10871 0.0
Co443 Co 0.76286 0.53326 0.16284 0.0
C444 C 0.69706 0.59779 0.13786 0.0
O445 O 0.70858 0.57973 0.11827 0.0
O446 O 0.71494 0.58241 0.15668 0.0
C447 C 0.77755 0.53147 0.05934 0.0
O448 O 0.81149 0.56111 0.06583 0.0
C449 C 0.78962 0.57854 0.20721 0.0
C450 C 0.81408 0.51628 0.22764 0.0
C451 C 0.80972 0.56567 0.22836 0.0
N452 N 0.7833 0.53863 0.19448 0.0
N453 N 0.79742 0.50152 0.20693 0.0
C454 C 0.77441 0.62743 0.19947 0.0
H455 H 0.73479 0.6282 0.19819 0.0
H456 H 0.78861 0.63497 0.1819 0.0
H457 H 0.7858 0.65571 0.21176 0.0
C458 C 0.85383 0.51007 0.11312 0.0
N459 N 0.81147 0.526 0.12112 0.0
N460 N 0.81665 0.5403 0.14265 0.0
C461 C 0.86344 0.54002 0.14805 0.0
C462 C 0.88894 0.5194 0.12976 0.0
C463 C 0.85761 0.47616 0.09304 0.0
H464 H 0.82194 0.4614 0.08856 0.0
H465 H 0.87224 0.49509 0.07773 0.0
H466 H 0.88187 0.44595 0.09732 0.0
O467 O 0.72062 0.46645 0.12036 0.0
O468 O 0.73231 0.46789 0.15844 0.0
H469 H 0.88232 0.53627 0.18404 0.0
H470 H 0.92001 0.57561 0.16696 0.0
C471 C 0.88291 0.56257 0.16964 0.0
H472 H 0.86056 0.59358 0.17459 0.0
H473 H 0.79697 0.46622 0.20103 0.0
O474 O 0.74851 0.51499 0.0743 0.0
C475 C 0.71718 0.44697 0.14012 0.0
Co476 Co 0.45201 0.74958 0.10849 0.0
Co477 Co 0.44353 0.76275 0.16265 0.0
C478 C 0.37807 0.6979 0.13763 0.0
O479 O 0.39587 0.70956 0.11801 0.0
O480 O 0.39402 0.71527 0.15644 0.0
C481 C 0.44437 0.77804 0.05913 0.0
O482 O 0.41486 0.81214 0.06557 0.0
C483 C 0.3979 0.79028 0.20673 0.0
C484 C 0.46018 0.81118 0.22803 0.0
C485 C 0.41065 0.80892 0.22819 0.0
N486 N 0.43805 0.78265 0.19437 0.0
N487 N 0.47515 0.79466 0.20733 0.0
C488 C 0.34873 0.77771 0.19834 0.0
H489 H 0.34508 0.78631 0.17965 0.0
H490 H 0.32044 0.79602 0.20846 0.0
H491 H 0.3436 0.73851 0.20022 0.0
C492 C 0.46646 0.85421 0.11299 0.0
N493 N 0.45067 0.81181 0.12102 0.0
N494 N 0.43674 0.81688 0.14261 0.0
C495 C 0.43715 0.86366 0.14806 0.0
C496 C 0.45746 0.88923 0.12971 0.0
C497 C 0.49989 0.85815 0.09274 0.0
H498 H 0.51456 0.82251 0.08812 0.0
H499 H 0.4806 0.87291 0.07756 0.0
H500 H 0.53017 0.88239 0.09689 0.0
O501 O 0.5092 0.72016 0.11996 0.0
O502 O 0.50863 0.73163 0.15805 0.0
H503 H 0.44107 0.88176 0.18413 0.0
H504 H 0.40242 0.92049 0.1672 0.0
C505 C 0.41486 0.88313 0.16971 0.0
H506 H 0.3834 0.86128 0.17449 0.0
H507 H 0.5107 0.79281 0.2018 0.0
O508 O 0.46079 0.74903 0.07411 0.0
C509 C 0.52901 0.71631 0.13963 0.0
Co510 Co 0.22739 0.45265 0.10818 0.0
Co511 Co 0.21424 0.44391 0.16232 0.0
C512 C 0.27967 0.37901 0.13733 0.0
O513 O 0.26795 0.39686 0.11773 0.0
O514 O 0.26204 0.39465 0.15615 0.0
C515 C 0.19878 0.44534 0.05881 0.0
O516 O 0.16454 0.41599 0.06523 0.0
C517 C 0.1877 0.39874 0.20671 0.0
C518 C 0.16394 0.46105 0.22728 0.0
C519 C 0.16795 0.41163 0.22792 0.0
N520 N 0.19418 0.43867 0.19401 0.0
N521 N 0.18049 0.47582 0.20655 0.0
C522 C 0.20241 0.34978 0.19886 0.0
H523 H 0.24206 0.34835 0.19805 0.0
H524 H 0.18896 0.34293 0.18108 0.0
H525 H 0.18994 0.32141 0.21084 0.0
C526 C 0.1228 0.46693 0.11279 0.0
N527 N 0.16519 0.4509 0.12071 0.0
N528 N 0.16021 0.43677 0.14228 0.0
C529 C 0.11349 0.43726 0.1478 0.0
C530 C 0.08785 0.45786 0.12954 0.0
C531 C 0.11889 0.5007 0.09266 0.0
H532 H 0.15456 0.5153 0.08805 0.0
H533 H 0.10398 0.48173 0.07742 0.0
H534 H 0.0948 0.53103 0.09695 0.0
O535 O 0.25627 0.5101 0.11963 0.0
O536 O 0.24484 0.50921 0.15772 0.0
H537 H 0.0951 0.44122 0.18383 0.0
H538 H 0.05695 0.40206 0.1669 0.0
C539 C 0.09416 0.41489 0.16946 0.0
H540 H 0.11637 0.38374 0.17436 0.0
H541 H 0.18113 0.51115 0.20069 0.0
O542 O 0.22793 0.46149 0.0738 0.0
C543 C 0.25993 0.52984 0.13932 0.0
C544 C 0.98296 0.51289 0.37724 0.0
C545 C 0.97359 0.53699 0.39811 0.0
H546 H -0.00328 0.44705 0.36057 0.0
C547 C 0.98025 0.51192 0.41899 0.0
H548 H 0.98126 0.53074 0.3607 0.0
C549 C -0.00235 0.46504 0.41892 0.0
C550 C 0.00423 0.44023 0.39796 0.0
H551 H 0.97233 0.52818 0.43552 0.0
H552 H 0.00555 0.44855 0.4354 0.0
C553 C -0.00499 0.46465 0.37716 0.0
C554 C 0.51286 -0.00622 0.37765 0.0
C555 C 0.53713 0.00275 0.39851 0.0
H556 H 0.44694 0.9804 0.36102 0.0
C557 C 0.51227 -0.00441 0.41941 0.0
H558 H 0.53053 -0.00416 0.36108 0.0
C559 C 0.46537 0.97824 0.41934 0.0
C560 C 0.44037 0.97215 0.39839 0.0
H561 H 0.52866 0.00314 0.43595 0.0
H562 H 0.44899 0.97003 0.4358 0.0
C563 C 0.46464 0.98174 0.3776 0.0
C564 C 0.98279 0.46481 0.65027 0.0
C565 C 0.97352 0.44065 0.62941 0.0
H566 H -0.0035 0.53068 0.66691 0.0
C567 C 0.98027 0.46566 0.60852 0.0
H568 H 0.98104 0.44704 0.66682 0.0
C569 C -0.00227 0.51251 0.60858 0.0
C570 C 0.00425 0.53738 0.62953 0.0
H571 H 0.97241 0.44936 0.59199 0.0
H572 H 0.00574 0.52894 0.5921 0.0
C573 C -0.00513 0.51304 0.65033 0.0
C574 C 0.51209 0.98049 0.60874 0.0
C575 C 0.53709 0.97387 0.62964 0.0
H576 H 0.44883 0.00583 0.59226 0.0
C577 C 0.51287 0.98316 0.65048 0.0
H578 H 0.52839 0.97257 0.59223 0.0
C579 C 0.46464 -0.00478 0.65051 0.0
C580 C 0.44031 0.00449 0.62969 0.0
H581 H 0.53059 0.98147 0.66704 0.0
H582 H 0.44701 -0.00309 0.66709 0.0
C583 C 0.46522 -0.0021 0.60876 0.0
C584 C 0.49522 0.96478 0.87756 0.0
C585 C 0.50461 0.9405 0.89837 0.0
H586 H 0.48126 0.03075 0.86103 0.0
C587 C 0.49801 0.96537 0.91931 0.0
H588 H 0.49692 0.94711 0.86098 0.0
C589 C 0.4805 0.01221 0.91935 0.0
C590 C 0.47375 0.03717 0.89844 0.0
H591 H 0.50599 0.94896 0.9358 0.0
H592 H 0.47262 0.02854 0.93586 0.0
C593 C 0.48305 0.01299 0.87759 0.0
C594 C 0.96482 0.48274 0.87701 0.0
C595 C 0.94059 0.47353 0.89785 0.0
H596 H 0.03072 0.49629 0.86039 0.0
C597 C 0.96561 0.48018 0.91875 0.0
H598 H 0.94711 0.48106 0.86044 0.0
C599 C 0.01249 0.49756 0.91871 0.0
C600 C 0.03741 0.50405 0.89778 0.0
H601 H 0.94931 0.47231 0.93527 0.0
H602 H 0.02886 0.50554 0.9352 0.0
C603 C 0.01308 0.49471 0.87697 0.0
C604 C 0.4825 0.96451 0.15028 0.0
C605 C 0.47279 0.94033 0.12948 0.0
H606 H 0.49651 0.03038 0.16684 0.0
C607 C 0.47887 0.96538 0.10854 0.0
H608 H 0.48121 0.94673 0.16684 0.0
C609 C 0.49617 0.0123 0.10849 0.0
C610 C 0.50327 0.03714 0.12941 0.0
H611 H 0.47064 0.94903 0.09207 0.0
H612 H 0.50369 0.02873 0.09197 0.0
C613 C 0.49446 0.01276 0.15026 0.0
C614 C 0.96486 0.49735 0.10858 0.0
C615 C 0.94005 0.50404 0.12953 0.0
H616 H 0.02798 0.47196 0.09201 0.0
C617 C 0.96447 0.49489 0.15034 0.0
H618 H 0.94838 0.50519 0.0921 0.0
C619 C 0.01269 0.48278 0.15027 0.0
C620 C 0.0368 0.47338 0.12942 0.0
H621 H 0.94691 0.49669 0.16693 0.0
H622 H 0.03049 0.48114 0.16682 0.0
C623 C 0.01172 0.47994 0.10853 0.0
C624 C 0.09021 0.31938 0.25777 0.0
C625 C 0.09766 0.33054 0.28121 0.0
H626 H 0.10715 0.33606 0.22243 0.0
C627 C 0.13051 0.36667 0.28702 0.0
H628 H 0.06424 0.29241 0.25287 0.0
C629 C 0.15487 0.39175 0.26965 0.0
C630 C 0.14726 0.38077 0.24619 0.0
H631 H 0.13557 0.37718 0.30493 0.0
H632 H 0.17875 0.42062 0.27452 0.0
C633 C 0.11502 0.34405 0.2404 0.0
C634 C 0.62779 0.1534 0.2554 0.0
C635 C 0.58439 0.13543 0.2466 0.0
H636 H 0.68656 0.14256 0.27881 0.0
C637 C 0.56665 0.09209 0.25547 0.0
H638 H 0.64206 0.18707 0.24923 0.0
C639 C 0.59174 0.06699 0.27246 0.0
C640 C 0.63502 0.08478 0.28137 0.0
H641 H 0.53343 0.07709 0.24905 0.0
H642 H 0.57678 0.03373 0.27885 0.0
C643 C 0.65293 0.12825 0.27262 0.0
C644 C 0.86173 0.63392 0.24092 0.0
C645 C 0.83022 0.59655 0.24667 0.0
H646 H 0.91183 0.68621 0.25343 0.0
C647 C 0.82319 0.58501 0.27011 0.0
H648 H 0.86915 0.64239 0.22295 0.0
C649 C 0.84741 0.61018 0.2875 0.0
C650 C 0.87953 0.64698 0.28172 0.0
H651 H 0.79989 0.55566 0.27495 0.0
H652 H 0.84283 0.59925 0.30538 0.0
C653 C 0.88641 0.6587 0.2583 0.0
C654 C 0.38792 0.81968 0.26974 0.0
C655 C 0.37979 0.83022 0.24627 0.0
H656 H 0.3714 0.8368 0.30508 0.0
C657 C 0.34621 0.86568 0.24045 0.0
H658 H 0.41442 0.79323 0.27464 0.0
C659 C 0.32181 0.89074 0.25782 0.0
C660 C 0.33009 0.88036 0.28129 0.0
H661 H 0.34056 0.8757 0.22252 0.0
H662 H 0.29736 0.9191 0.25294 0.0
C663 C 0.36305 0.8443 0.2871 0.0
C664 C 0.15591 0.58667 0.75757 0.0
C665 C 0.14756 0.5967 0.78106 0.0
H666 H 0.13707 0.60204 0.7223 0.0
C667 C 0.11432 0.63243 0.78697 0.0
H668 H 0.18058 0.55856 0.75261 0.0
C669 C 0.08929 0.6571 0.76968 0.0
C670 C 0.09751 0.64693 0.74619 0.0
H671 H 0.10593 0.63965 0.80497 0.0
H672 H 0.0626 0.68329 0.77465 0.0
C673 C 0.13134 0.61178 0.74027 0.0
C674 C 0.38713 0.15801 0.75838 0.0
C675 C 0.37974 0.14667 0.78181 0.0
H676 H 0.37011 0.14158 0.72301 0.0
C677 C 0.34694 0.11046 0.78757 0.0
H678 H 0.41305 0.18506 0.75351 0.0
C679 C 0.32257 0.08548 0.77016 0.0
C680 C 0.33011 0.09664 0.74672 0.0
H681 H 0.34193 0.09981 0.80546 0.0
H682 H 0.29874 0.05655 0.77499 0.0
C683 C 0.3623 0.13344 0.74098 0.0
C684 C 0.82209 0.39174 0.75757 0.0
C685 C 0.83018 0.38115 0.78104 0.0
H686 H 0.84101 0.37691 0.72227 0.0
C687 C 0.86298 0.34492 0.78683 0.0
H688 H 0.79777 0.42024 0.7527 0.0
C689 C 0.88784 0.32033 0.76945 0.0
C690 C 0.87989 0.33108 0.746 0.0
H691 H 0.87118 0.33724 0.8048 0.0
H692 H 0.91421 0.29374 0.77435 0.0
C693 C 0.8465 0.36672 0.74019 0.0
C694 C 0.63091 0.86722 0.78738 0.0
C695 C 0.59796 0.83117 0.7816 0.0
H696 H 0.6792 0.92109 0.77483 0.0
C697 C 0.59036 0.82006 0.75816 0.0
H698 H 0.6361 0.8777 0.80528 0.0
C699 C 0.61513 0.84471 0.74077 0.0
C700 C 0.64749 0.88135 0.74653 0.0
H701 H 0.56431 0.79315 0.75328 0.0
H702 H 0.60716 0.83675 0.7228 0.0
C703 C 0.65524 0.89229 0.76999 0.0
C704 C 0.15445 0.14087 0.40903 0.0
C705 C 0.13407 0.15864 0.3886 0.0
H706 H 0.1971 0.08683 0.42474 0.0
C707 C 0.14554 0.13654 0.36732 0.0
H708 H 0.14695 0.15737 0.42563 0.0
C709 C 0.17425 0.09546 0.36675 0.0
C710 C 0.19202 0.07603 0.38745 0.0
H711 H 0.13057 0.14962 0.35119 0.0
H712 H 0.18071 0.07785 0.35032 0.0
C713 C 0.18318 0.10022 0.40845 0.0
C714 C 0.87459 0.18625 0.40747 0.0
C715 C 0.89969 0.1936 0.38659 0.0
H716 H 0.81671 0.1512 0.42463 0.0
C717 C 0.88099 0.17471 0.36597 0.0
H718 H 0.8874 0.20115 0.42366 0.0
C719 C 0.83981 0.14612 0.36657 0.0
C720 C 0.81693 0.13594 0.38781 0.0
H721 H 0.89933 0.18003 0.34964 0.0
H722 H 0.82739 0.1301 0.35057 0.0
C723 C 0.83386 0.15766 0.40808 0.0
C724 C 0.82258 0.83651 0.4097 0.0
C725 C 0.84254 0.81838 0.38925 0.0
H726 H 0.78049 0.89101 0.42539 0.0
C727 C 0.83086 0.84027 0.36794 0.0
H728 H 0.83027 0.82021 0.42633 0.0
C729 C 0.80235 0.88149 0.36735 0.0
C730 C 0.78504 0.90129 0.38805 0.0
H731 H 0.84549 0.82691 0.35181 0.0
H732 H 0.79569 0.89891 0.35089 0.0
C733 C 0.79409 0.87733 0.4091 0.0
C734 C 0.09582 0.8024 0.36689 0.0
C735 C 0.07672 0.78406 0.38753 0.0
H736 H 0.14971 0.84654 0.35145 0.0
C737 C 0.10136 0.79207 0.4085 0.0
H738 H 0.07785 0.79659 0.3505 0.0
C739 C 0.14209 0.82067 0.40912 0.0
C740 C 0.15947 0.84174 0.38878 0.0
H741 H 0.08822 0.77763 0.42472 0.0
H742 H 0.15891 0.8276 0.42571 0.0
C743 C 0.13697 0.831 0.36751 0.0
C744 C 0.17458 0.88194 0.661 0.0
C745 C 0.19268 0.90126 0.64035 0.0
H746 H 0.13069 0.82784 0.67644 0.0
C747 C 0.1844 0.87684 0.61935 0.0
H748 H 0.18062 0.89974 0.67742 0.0
C749 C 0.15582 0.8361 0.61872 0.0
C750 C 0.13502 0.81849 0.63908 0.0
H751 H 0.19863 0.89014 0.60311 0.0
H752 H 0.1487 0.81944 0.60211 0.0
C753 C 0.146 0.84078 0.66037 0.0
C754 C 0.14206 0.15667 0.61866 0.0
C755 C 0.15945 0.13569 0.63903 0.0
H756 H 0.08819 0.19966 0.60301 0.0
C757 C 0.13696 0.14654 0.66029 0.0
H758 H 0.15886 0.14965 0.60208 0.0
C759 C 0.09583 0.17517 0.66087 0.0
C760 C 0.07672 0.19343 0.64021 0.0
H761 H 0.1497 0.13107 0.67636 0.0
H762 H 0.07788 0.18108 0.67726 0.0
C763 C 0.10134 0.1853 0.61925 0.0
C764 C 0.80271 0.09634 0.66075 0.0
C765 C 0.78476 0.07687 0.6401 0.0
H766 H 0.84647 0.15056 0.67617 0.0
C767 C 0.7932 0.10112 0.61907 0.0
H768 H 0.79654 0.07868 0.67719 0.0
C769 C 0.8218 0.14185 0.61841 0.0
C770 C 0.84244 0.15962 0.63878 0.0
H771 H 0.77908 0.0877 0.60283 0.0
H772 H 0.82904 0.15837 0.60178 0.0
C773 C 0.8313 0.13749 0.66009 0.0
C774 C 0.87622 0.79292 0.61929 0.0
C775 C 0.90069 0.78477 0.64029 0.0
H776 H 0.81881 0.82857 0.60201 0.0
C777 C 0.88144 0.80303 0.66091 0.0
H778 H 0.88948 0.77857 0.60307 0.0
C779 C 0.84031 0.83165 0.66025 0.0
C780 C 0.81796 0.8425 0.63896 0.0
H781 H 0.89928 0.79711 0.67733 0.0
H782 H 0.82746 0.84711 0.67631 0.0
C783 C 0.8355 0.82154 0.61862 0.0
C784 C 0.65491 0.64086 0.90927 0.0
C785 C 0.63465 0.6589 0.88886 0.0
H786 H 0.69731 0.58651 0.92488 0.0
C787 C 0.64606 0.63694 0.86754 0.0
H788 H 0.64744 0.65723 0.9259 0.0
C789 C 0.67462 0.59576 0.8669 0.0
C790 C 0.69226 0.57607 0.88757 0.0
H791 H 0.63118 0.65022 0.85144 0.0
H792 H 0.68106 0.57828 0.85044 0.0
C793 C 0.68346 0.6001 0.90862 0.0
C794 C 0.3756 0.68626 0.90811 0.0
C795 C 0.40049 0.69395 0.88719 0.0
H796 H 0.31791 0.6509 0.92529 0.0
C797 C 0.38162 0.6753 0.86656 0.0
H798 H 0.38856 0.70095 0.92432 0.0
C799 C 0.3405 0.64666 0.86716 0.0
C800 C 0.3178 0.63618 0.88841 0.0
H801 H 0.3998 0.68087 0.8502 0.0
H802 H 0.32798 0.63085 0.85113 0.0
C803 C 0.3349 0.65762 0.90873 0.0
C804 C 0.33193 0.34053 0.86769 0.0
C805 C 0.34348 0.31878 0.88905 0.0
H806 H 0.29683 0.39902 0.85048 0.0
C807 C 0.32336 0.33704 0.90943 0.0
H808 H 0.3467 0.32708 0.8516 0.0
C809 C 0.29482 0.37781 0.90872 0.0
C810 C 0.28587 0.40162 0.88762 0.0
H811 H 0.33094 0.32084 0.9261 0.0
H812 H 0.28108 0.39156 0.92497 0.0
C813 C 0.30338 0.38172 0.86698 0.0
C814 C 0.63749 0.33098 0.86733 0.0
C815 C 0.66018 0.34152 0.88858 0.0
H816 H 0.57822 0.2967 0.85037 0.0
C817 C 0.6431 0.32012 0.9089 0.0
H818 H 0.65 0.34677 0.85129 0.0
C819 C 0.60242 0.29144 0.90829 0.0
C820 C 0.57754 0.28369 0.88737 0.0
H821 H 0.66009 0.32688 0.92546 0.0
H822 H 0.58947 0.27678 0.92451 0.0
C823 C 0.59639 0.30231 0.86673 0.0
C824 C 0.65741 0.33379 0.11966 0.0
C825 C 0.63572 0.31705 0.13998 0.0
H826 H 0.70091 0.38718 0.10397 0.0
C827 C 0.64597 0.34007 0.16117 0.0
H828 H 0.6509 0.31651 0.10315 0.0
C829 C 0.6746 0.38121 0.16168 0.0
C830 C 0.69345 0.39974 0.14102 0.0
H831 H 0.62997 0.32778 0.1772 0.0
H832 H 0.67998 0.39968 0.17799 0.0
C833 C 0.68603 0.37449 0.12019 0.0
C834 C 0.59534 0.67399 0.16093 0.0
C835 C 0.57597 0.69195 0.14027 0.0
H836 H 0.64941 0.63012 0.17643 0.0
C837 C 0.60021 0.6833 0.11926 0.0
H838 H 0.57768 0.68027 0.17736 0.0
C839 C 0.64088 0.65461 0.11864 0.0
C840 C 0.65861 0.63405 0.13904 0.0
H841 H 0.58685 0.69738 0.10299 0.0
H842 H 0.65743 0.64727 0.10204 0.0
C843 C 0.63643 0.64529 0.16033 0.0
C844 C 0.30201 0.59616 0.16069 0.0
C845 C 0.28387 0.57698 0.14002 0.0
H846 H 0.34598 0.65012 0.17619 0.0
C847 C 0.29207 0.60155 0.11905 0.0
H848 H 0.29601 0.57826 0.17709 0.0
C849 C 0.32069 0.64227 0.11846 0.0
C850 C 0.34159 0.6597 0.13884 0.0
H851 H 0.27779 0.58835 0.1028 0.0
H852 H 0.3278 0.65902 0.10188 0.0
C853 C 0.33061 0.63731 0.16011 0.0
C854 C 0.34022 0.33147 0.15984 0.0
C855 C 0.31817 0.3428 0.13853 0.0
H856 H 0.39895 0.29654 0.17692 0.0
C857 C 0.33614 0.32248 0.11812 0.0
H858 H 0.32706 0.34643 0.17594 0.0
C859 C 0.37693 0.29396 0.11876 0.0
C860 C 0.40103 0.28523 0.1398 0.0
H861 H 0.3197 0.32991 0.1015 0.0
H862 H 0.39048 0.28008 0.1025 0.0
C863 C 0.38141 0.30292 0.16047 0.0
C864 C -0.0013 0.23457 0.5026 0.0
C865 C 0.01102 0.27782 0.4917 0.0
H866 H 0.96864 0.20095 0.53273 0.0
C867 C 0.00023 0.32126 0.50279 0.0
H868 H 0.00636 0.20062 0.49432 0.0
C869 C 0.97694 0.32147 0.52427 0.0
C870 C 0.96538 0.27821 0.53536 0.0
H871 H 0.00878 0.35511 0.49461 0.0
H872 H 0.96902 0.35545 0.53247 0.0
C873 C 0.97691 0.23476 0.52445 0.0
C874 C 0.65584 0.97776 0.52444 0.0
C875 C 0.69918 0.96662 0.53555 0.0
H876 H 0.62189 0.00961 0.49486 0.0
C877 C 0.7425 0.97911 0.52476 0.0
H878 H 0.62193 0.96913 0.53253 0.0
C879 C 0.74249 0.00137 0.50302 0.0
C880 C 0.69915 0.01319 0.49208 0.0
H881 H 0.77639 0.9712 0.53306 0.0
H882 H 0.77637 0.00971 0.49483 0.0
C883 C 0.65581 0.00149 0.50306 0.0
C884 C 0.0012 0.65589 0.52474 0.0
C885 C 0.01227 0.69934 0.53577 0.0
H886 H 0.9695 0.62174 0.49517 0.0
C887 C -4e-05 0.74259 0.52487 0.0
H888 H 0.00972 0.62204 0.53292 0.0
C889 C 0.97788 0.74242 0.50309 0.0
C890 C 0.96605 0.69899 0.49225 0.0
H891 H 0.00782 0.77654 0.53312 0.0
H892 H 0.96961 0.77625 0.49482 0.0
C893 C 0.97763 0.65572 0.50332 0.0
C894 C 0.32126 0.00027 0.52465 0.0
C895 C 0.27796 0.01187 0.53568 0.0
H896 H 0.35505 0.96804 0.49512 0.0
C897 C 0.23458 -5e-05 0.5248 0.0
H898 H 0.3552 0.00848 0.53282 0.0
C899 C 0.23449 0.97776 0.50305 0.0
C900 C 0.27778 0.96541 0.4922 0.0
H901 H 0.20073 0.00822 0.53304 0.0
H902 H 0.20059 0.96982 0.49478 0.0
C903 C 0.32117 0.97658 0.50326 0.0
C904 C 0.49936 0.73464 1.00296 0.0
C905 C 0.5115 0.77798 0.9921 0.0
H906 H 0.46913 0.70075 0.03298 0.0
C907 C 0.50019 0.82134 1.00316 0.0
H908 H 0.50741 0.70075 0.99469 0.0
C909 C 0.47657 0.82134 0.02456 0.0
C910 C 0.46519 0.77798 0.0356 0.0
H911 H 0.50858 0.85525 0.99501 0.0
H912 H 0.46826 0.85525 0.03273 0.0
C913 C 0.47724 0.73464 0.02473 0.0
C914 C 0.2423 0.47842 0.02448 0.0
C915 C 0.19892 0.46629 0.0353 0.0
H916 H 0.2763 0.5087 0.99451 0.0
C917 C 0.15562 0.47768 0.02421 0.0
H918 H 0.27615 0.47031 0.03276 0.0
C919 C 0.1557 0.50136 1.00282 0.0
C920 C 0.19909 0.51272 0.99181 0.0
H921 H 0.12168 0.46932 0.03234 0.0
H922 H 0.12182 0.50972 0.99463 0.0
C923 C 0.24238 0.50061 1.00272 0.0
C924 C 0.50176 0.156 0.02482 0.0
C925 C 0.51348 0.19932 0.03582 0.0
H926 H 0.46948 0.12219 0.99531 0.0
C927 C 0.50184 0.2427 0.02486 0.0
H928 H 0.50975 0.12206 0.03304 0.0
C929 C 0.47971 0.24276 1.00309 0.0
C930 C 0.46717 0.19946 0.9923 0.0
H931 H 0.5102 0.27657 0.03307 0.0
H932 H 0.47193 0.27667 0.99479 0.0
C933 C 0.47815 0.15608 1.00341 0.0
C934 C 0.82144 0.47665 1.00322 0.0
C935 C 0.77824 0.46496 0.99212 0.0
H936 H 0.85498 0.50865 0.03288 0.0
C937 C 0.73476 0.4764 1.00302 0.0
H938 H 0.85545 0.4688 0.99504 0.0
C939 C 0.7345 0.49825 0.02487 0.0
C940 C 0.77769 0.51071 0.03578 0.0
H941 H 0.70098 0.46804 0.99474 0.0
H942 H 0.70053 0.50585 0.03314 0.0
C943 C 0.82117 0.49999 0.0247 0.0
loop_
_geom_bond_atom_site_label_1
_geom_bond_atom_site_label_2
_geom_bond_distance
_geom_bond_site_symmetry_2
_ccdc_geom_bond_type
Co0 O3 1.970 . S
Co0 N17 1.989 . S
Co0 O25 1.967 1_455 S
Co0 O32 1.920 . S
Co1 O4 1.966 . S
Co1 N10 2.022 . S
Co1 N18 1.993 . S
Co1 O26 1.941 1_455 S
C2 O3 1.258 . S
C2 O4 1.263 . S
O3 Co0 1.970 . S
O3 C2 1.258 . S
O4 Co1 1.966 . S
O4 C2 1.263 . S
C5 O6 1.235 . S
C5 O32 1.289 . S
O6 C5 1.235 . S
C7 C9 1.400 . S
C7 N10 1.351 . S
C7 C12 1.501 . S
C8 C9 1.387 . S
C8 N11 1.341 . S
C9 C7 1.400 . S
C9 C8 1.387 . S
N10 Co1 2.022 . S
N10 C7 1.351 . S
N10 N11 1.365 . S
N11 C8 1.341 . S
N11 N10 1.365 . S
N11 H31 0.862 1_455 S
C12 C7 1.501 . S
C12 H13 0.961 . S
C12 H14 0.961 . S
C12 H15 0.960 . S
H13 C12 0.961 . S
H14 C12 0.961 . S
H15 C12 0.960 . S
C16 N17 1.342 . S
C16 C20 1.401 . S
C16 C21 1.499 . S
N17 Co0 1.989 . S
N17 C16 1.342 . S
N17 N18 1.388 . S
N18 Co1 1.993 . S
N18 N17 1.388 . S
N18 C19 1.346 . S
C19 N18 1.346 . S
C19 C20 1.396 . S
C19 C29 1.510 . S
C20 C16 1.401 . S
C20 C19 1.396 . S
C21 C16 1.499 . S
C21 H22 0.959 . S
C21 H23 0.960 . S
C21 H24 0.961 1_455 S
H22 C21 0.959 . S
H23 C21 0.960 . S
H24 C21 0.961 1_655 S
O25 Co0 1.967 1_655 S
O25 C33 1.258 . S
O26 Co1 1.941 1_655 S
O26 C33 1.266 . S
H27 C29 0.959 . S
H28 C29 0.961 . S
C29 C19 1.510 . S
C29 H27 0.959 . S
C29 H28 0.961 . S
C29 H30 0.960 . S
H30 C29 0.960 . S
H31 N11 0.862 1_655 S
O32 Co0 1.920 . S
O32 C5 1.289 . S
C33 O25 1.258 . S
C33 O26 1.266 . S
Co34 O37 1.970 . S
Co34 N51 1.989 . S
Co34 O59 1.967 1_545 S
Co34 O66 1.920 . S
Co35 O38 1.966 . S
Co35 N44 2.022 . S
Co35 N52 1.993 . S
Co35 O60 1.941 1_545 S
C36 O37 1.258 . S
C36 O38 1.263 . S
O37 Co34 1.970 . S
O37 C36 1.258 . S
O38 Co35 1.966 . S
O38 C36 1.263 . S
C39 O40 1.235 . S
C39 O66 1.289 . S
O40 C39 1.235 . S
C41 C43 1.400 . S
C41 N44 1.351 . S
C41 C46 1.501 . S
C42 C43 1.387 . S
C42 N45 1.341 . S
C43 C41 1.400 . S
C43 C42 1.387 . S
N44 Co35 2.022 . S
N44 C41 1.351 . S
N44 N45 1.365 . S
N45 C42 1.341 . S
N45 N44 1.365 . S
N45 H65 0.862 1_545 S
C46 C41 1.501 . S
C46 H47 0.961 . S
C46 H48 0.961 . S
C46 H49 0.960 . S
H47 C46 0.961 . S
H48 C46 0.961 . S
H49 C46 0.960 . S
C50 N51 1.342 . S
C50 C54 1.401 . S
C50 C55 1.499 . S
N51 Co34 1.989 . S
N51 C50 1.342 . S
N51 N52 1.388 . S
N52 Co35 1.993 . S
N52 N51 1.388 . S
N52 C53 1.346 . S
C53 N52 1.346 . S
C53 C54 1.396 . S
C53 C63 1.510 . S
C54 C50 1.401 . S
C54 C53 1.396 . S
C55 C50 1.499 . S
C55 H56 0.959 . S
C55 H57 0.960 . S
C55 H58 0.961 1_545 S
H56 C55 0.959 . S
H57 C55 0.960 . S
H58 C55 0.961 1_565 S
O59 Co34 1.967 1_565 S
O59 C67 1.258 . S
O60 Co35 1.941 1_565 S
O60 C67 1.266 . S
H61 C63 0.959 . S
H62 C63 0.961 . S
C63 C53 1.510 . S
C63 H61 0.959 . S
C63 H62 0.961 . S
C63 H64 0.960 . S
H64 C63 0.960 . S
H65 N45 0.862 1_565 S
O66 Co34 1.920 . S
O66 C39 1.289 . S
C67 O59 1.258 . S
C67 O60 1.266 . S
Co68 O71 1.970 . S
Co68 N85 1.989 . S
Co68 O93 1.967 1_655 S
Co68 O100 1.920 . S
Co69 O72 1.966 . S
Co69 N78 2.022 . S
Co69 N86 1.993 . S
Co69 O94 1.941 1_655 S
C70 O71 1.258 . S
C70 O72 1.263 . S
O71 Co68 1.970 . S
O71 C70 1.258 . S
O72 Co69 1.966 . S
O72 C70 1.263 . S
C73 O74 1.235 . S
C73 O100 1.289 . S
O74 C73 1.235 . S
C75 C77 1.400 . S
C75 N78 1.351 . S
C75 C80 1.501 . S
C76 C77 1.387 . S
C76 N79 1.341 . S
C77 C75 1.400 . S
C77 C76 1.387 . S
N78 Co69 2.022 . S
N78 C75 1.351 . S
N78 N79 1.365 . S
N79 C76 1.341 . S
N79 N78 1.365 . S
N79 H99 0.862 1_655 S
C80 C75 1.501 . S
C80 H81 0.961 . S
C80 H82 0.961 . S
C80 H83 0.960 . S
H81 C80 0.961 . S
H82 C80 0.961 . S
H83 C80 0.960 . S
C84 N85 1.342 . S
C84 C88 1.401 . S
C84 C89 1.499 . S
N85 Co68 1.989 . S
N85 C84 1.342 . S
N85 N86 1.388 . S
N86 Co69 1.993 . S
N86 N85 1.388 . S
N86 C87 1.346 . S
C87 N86 1.346 . S
C87 C88 1.396 . S
C87 C97 1.510 . S
C88 C84 1.401 . S
C88 C87 1.396 . S
C89 C84 1.499 . S
C89 H90 0.959 . S
C89 H91 0.960 . S
C89 H92 0.961 1_655 S
H90 C89 0.959 . S
H91 C89 0.960 . S
H92 C89 0.961 1_455 S
O93 Co68 1.967 1_455 S
O93 C101 1.258 . S
O94 Co69 1.941 1_455 S
O94 C101 1.266 . S
H95 C97 0.959 . S
H96 C97 0.961 . S
C97 C87 1.510 . S
C97 H95 0.959 . S
C97 H96 0.961 . S
C97 H98 0.960 . S
H98 C97 0.960 . S
H99 N79 0.862 1_455 S
O100 Co68 1.920 . S
O100 C73 1.289 . S
C101 O93 1.258 . S
C101 O94 1.266 . S
Co102 O105 1.970 . S
Co102 N119 1.989 . S
Co102 O127 1.967 1_565 S
Co102 O134 1.920 . S
Co103 O106 1.966 . S
Co103 N112 2.022 . S
Co103 N120 1.993 . S
Co103 O128 1.941 1_565 S
C104 O105 1.258 . S
C104 O106 1.263 . S
O105 Co102 1.970 . S
O105 C104 1.258 . S
O106 Co103 1.966 . S
O106 C104 1.263 . S
C107 O108 1.235 . S
C107 O134 1.289 . S
O108 C107 1.235 . S
C109 C111 1.400 . S
C109 N112 1.351 . S
C109 C114 1.501 . S
C110 C111 1.387 . S
C110 N113 1.341 . S
C111 C109 1.400 . S
C111 C110 1.387 . S
N112 Co103 2.022 . S
N112 C109 1.351 . S
N112 N113 1.365 . S
N113 C110 1.341 . S
N113 N112 1.365 . S
N113 H133 0.862 1_565 S
C114 C109 1.501 . S
C114 H115 0.961 . S
C114 H116 0.961 . S
C114 H117 0.960 . S
H115 C114 0.961 . S
H116 C114 0.961 . S
H117 C114 0.960 . S
C118 N119 1.342 . S
C118 C122 1.401 . S
C118 C123 1.499 . S
N119 Co102 1.989 . S
N119 C118 1.342 . S
N119 N120 1.388 . S
N120 Co103 1.993 . S
N120 N119 1.388 . S
N120 C121 1.346 . S
C121 N120 1.346 . S
C121 C122 1.396 . S
C121 C131 1.510 . S
C122 C118 1.401 . S
C122 C121 1.396 . S
C123 C118 1.499 . S
C123 H124 0.959 . S
C123 H125 0.960 . S
C123 H126 0.961 1_565 S
H124 C123 0.959 . S
H125 C123 0.960 . S
H126 C123 0.961 1_545 S
O127 Co102 1.967 1_545 S
O127 C135 1.258 . S
O128 Co103 1.941 1_545 S
O128 C135 1.266 . S
H129 C131 0.959 . S
H130 C131 0.961 . S
C131 C121 1.510 . S
C131 H129 0.959 . S
C131 H130 0.961 . S
C131 H132 0.960 . S
H132 C131 0.960 . S
H133 N113 0.862 1_545 S
O134 Co102 1.920 . S
O134 C107 1.289 . S
C135 O127 1.258 . S
C135 O128 1.266 . S
Co136 O139 1.970 . S
Co136 N153 1.989 . S
Co136 O161 1.967 1_455 S
Co136 O168 1.920 . S
Co137 O140 1.966 . S
Co137 N146 2.022 . S
Co137 N154 1.993 . S
Co137 O162 1.941 1_455 S
C138 O139 1.258 . S
C138 O140 1.263 . S
O139 Co136 1.970 . S
O139 C138 1.258 . S
O140 Co137 1.966 . S
O140 C138 1.263 . S
C141 O142 1.235 . S
C141 O168 1.289 . S
O142 C141 1.235 . S
C143 C145 1.400 . S
C143 N146 1.351 . S
C143 C148 1.501 . S
C144 C145 1.387 . S
C144 N147 1.341 . S
C145 C143 1.400 . S
C145 C144 1.387 . S
N146 Co137 2.022 . S
N146 C143 1.351 . S
N146 N147 1.365 . S
N147 C144 1.341 . S
N147 N146 1.365 . S
N147 H167 0.862 1_455 S
C148 C143 1.501 . S
C148 H149 0.961 . S
C148 H150 0.961 . S
C148 H151 0.960 . S
H149 C148 0.961 . S
H150 C148 0.961 . S
H151 C148 0.960 . S
C152 N153 1.342 . S
C152 C156 1.401 . S
C152 C157 1.499 . S
N153 Co136 1.989 . S
N153 C152 1.342 . S
N153 N154 1.388 . S
N154 Co137 1.993 . S
N154 N153 1.388 . S
N154 C155 1.346 . S
C155 N154 1.346 . S
C155 C156 1.396 . S
C155 C165 1.510 . S
C156 C152 1.401 . S
C156 C155 1.396 . S
C157 C152 1.499 . S
C157 H158 0.959 . S
C157 H159 0.960 . S
C157 H160 0.961 1_455 S
H158 C157 0.959 . S
H159 C157 0.960 . S
H160 C157 0.961 1_655 S
O161 Co136 1.967 1_655 S
O161 C169 1.258 . S
O162 Co137 1.941 1_655 S
O162 C169 1.266 . S
H163 C165 0.959 . S
H164 C165 0.961 . S
C165 C155 1.510 . S
C165 H163 0.959 . S
C165 H164 0.961 . S
C165 H166 0.960 . S
H166 C165 0.960 . S
H167 N147 0.862 1_655 S
O168 Co136 1.920 . S
O168 C141 1.289 . S
C169 O161 1.258 . S
C169 O162 1.266 . S
Co170 O173 1.970 . S
Co170 N187 1.989 . S
Co170 O195 1.967 1_545 S
Co170 O202 1.920 . S
Co171 O174 1.966 . S
Co171 N180 2.022 . S
Co171 N188 1.993 . S
Co171 O196 1.941 1_545 S
C172 O173 1.258 . S
C172 O174 1.263 . S
O173 Co170 1.970 . S
O173 C172 1.258 . S
O174 Co171 1.966 . S
O174 C172 1.263 . S
C175 O176 1.235 . S
C175 O202 1.289 . S
O176 C175 1.235 . S
C177 C179 1.400 . S
C177 N180 1.351 . S
C177 C182 1.501 . S
C178 C179 1.387 . S
C178 N181 1.341 . S
C179 C177 1.400 . S
C179 C178 1.387 . S
N180 Co171 2.022 . S
N180 C177 1.351 . S
N180 N181 1.365 . S
N181 C178 1.341 . S
N181 N180 1.365 . S
N181 H201 0.862 1_545 S
C182 C177 1.501 . S
C182 H183 0.961 . S
C182 H184 0.961 . S
C182 H185 0.960 . S
H183 C182 0.961 . S
H184 C182 0.961 . S
H185 C182 0.960 . S
C186 N187 1.342 . S
C186 C190 1.401 . S
C186 C191 1.499 . S
N187 Co170 1.989 . S
N187 C186 1.342 . S
N187 N188 1.388 . S
N188 Co171 1.993 . S
N188 N187 1.388 . S
N188 C189 1.346 . S
C189 N188 1.346 . S
C189 C190 1.396 . S
C189 C199 1.510 . S
C190 C186 1.401 . S
C190 C189 1.396 . S
C191 C186 1.499 . S
C191 H192 0.959 . S
C191 H193 0.960 . S
C191 H194 0.961 1_545 S
H192 C191 0.959 . S
H193 C191 0.960 . S
H194 C191 0.961 1_565 S
O195 Co170 1.967 1_565 S
O195 C203 1.258 . S
O196 Co171 1.941 1_565 S
O196 C203 1.266 . S
H197 C199 0.959 . S
H198 C199 0.961 . S
C199 C189 1.510 . S
C199 H197 0.959 . S
C199 H198 0.961 . S
C199 H200 0.960 . S
H200 C199 0.960 . S
H201 N181 0.862 1_565 S
O202 Co170 1.920 . S
O202 C175 1.289 . S
C203 O195 1.258 . S
C203 O196 1.266 . S
Co204 O207 1.970 . S
Co204 N221 1.989 . S
Co204 O229 1.967 1_655 S
Co204 O236 1.920 . S
Co205 O208 1.966 . S
Co205 N214 2.022 . S
Co205 N222 1.993 . S
Co205 O230 1.941 1_655 S
C206 O207 1.258 . S
C206 O208 1.263 . S
O207 Co204 1.970 . S
O207 C206 1.258 . S
O208 Co205 1.966 . S
O208 C206 1.263 . S
C209 O210 1.235 . S
C209 O236 1.289 . S
O210 C209 1.235 . S
C211 C213 1.400 . S
C211 N214 1.351 . S
C211 C216 1.501 . S
C212 C213 1.387 . S
C212 N215 1.341 . S
C213 C211 1.400 . S
C213 C212 1.387 . S
N214 Co205 2.022 . S
N214 C211 1.351 . S
N214 N215 1.365 . S
N215 C212 1.341 . S
N215 N214 1.365 . S
N215 H235 0.862 1_655 S
C216 C211 1.501 . S
C216 H217 0.961 . S
C216 H218 0.961 . S
C216 H219 0.960 . S
H217 C216 0.961 . S
H218 C216 0.961 . S
H219 C216 0.960 . S
C220 N221 1.342 . S
C220 C224 1.401 . S
C220 C225 1.499 . S
N221 Co204 1.989 . S
N221 C220 1.342 . S
N221 N222 1.388 . S
N222 Co205 1.993 . S
N222 N221 1.388 . S
N222 C223 1.346 . S
C223 N222 1.346 . S
C223 C224 1.396 . S
C223 C233 1.510 . S
C224 C220 1.401 . S
C224 C223 1.396 . S
C225 C220 1.499 . S
C225 H226 0.959 . S
C225 H227 0.960 . S
C225 H228 0.961 1_655 S
H226 C225 0.959 . S
H227 C225 0.960 . S
H228 C225 0.961 1_455 S
O229 Co204 1.967 1_455 S
O229 C237 1.258 . S
O230 Co205 1.941 1_455 S
O230 C237 1.266 . S
H231 C233 0.959 . S
H232 C233 0.961 . S
C233 C223 1.510 . S
C233 H231 0.959 . S
C233 H232 0.961 . S
C233 H234 0.960 . S
H234 C233 0.960 . S
H235 N215 0.862 1_455 S
O236 Co204 1.920 . S
O236 C209 1.289 . S
C237 O229 1.258 . S
C237 O230 1.266 . S
Co238 O241 1.970 . S
Co238 N255 1.989 . S
Co238 O263 1.967 1_565 S
Co238 O270 1.920 . S
Co239 O242 1.966 . S
Co239 N248 2.022 . S
Co239 N256 1.993 . S
Co239 O264 1.941 1_565 S
C240 O241 1.258 . S
C240 O242 1.263 . S
O241 Co238 1.970 . S
O241 C240 1.258 . S
O242 Co239 1.966 . S
O242 C240 1.263 . S
C243 O244 1.235 . S
C243 O270 1.289 . S
O244 C243 1.235 . S
C245 C247 1.400 . S
C245 N248 1.351 . S
C245 C250 1.501 . S
C246 C247 1.387 . S
C246 N249 1.341 . S
C247 C245 1.400 . S
C247 C246 1.387 . S
N248 Co239 2.022 . S
N248 C245 1.351 . S
N248 N249 1.365 . S
N249 C246 1.341 . S
N249 N248 1.365 . S
N249 H269 0.862 1_565 S
C250 C245 1.501 . S
C250 H251 0.961 . S
C250 H252 0.961 . S
C250 H253 0.960 . S
H251 C250 0.961 . S
H252 C250 0.961 . S
H253 C250 0.960 . S
C254 N255 1.342 . S
C254 C258 1.401 . S
C254 C259 1.499 . S
N255 Co238 1.989 . S
N255 C254 1.342 . S
N255 N256 1.388 . S
N256 Co239 1.993 . S
N256 N255 1.388 . S
N256 C257 1.346 . S
C257 N256 1.346 . S
C257 C258 1.396 . S
C257 C267 1.510 . S
C258 C254 1.401 . S
C258 C257 1.396 . S
C259 C254 1.499 . S
C259 H260 0.959 . S
C259 H261 0.960 . S
C259 H262 0.961 1_565 S
H260 C259 0.959 . S
H261 C259 0.960 . S
H262 C259 0.961 1_545 S
O263 Co238 1.967 1_545 S
O263 C271 1.258 . S
O264 Co239 1.941 1_545 S
O264 C271 1.266 . S
H265 C267 0.959 . S
H266 C267 0.961 . S
C267 C257 1.510 . S
C267 H265 0.959 . S
C267 H266 0.961 . S
C267 H268 0.960 . S
H268 C267 0.960 . S
H269 N249 0.862 1_545 S
O270 Co238 1.920 . S
O270 C243 1.289 . S
C271 O263 1.258 . S
C271 O264 1.266 . S
Co272 O275 1.970 . S
Co272 N289 1.989 . S
Co272 O297 1.967 . S
Co272 O304 1.920 . S
Co273 O276 1.966 . S
Co273 N282 2.022 . S
Co273 N290 1.993 . S
Co273 O298 1.941 . S
C274 O275 1.258 . S
C274 O276 1.263 . S
O275 Co272 1.970 . S
O275 C274 1.258 . S
O276 Co273 1.966 . S
O276 C274 1.263 . S
C277 O278 1.235 . S
C277 O304 1.289 . S
O278 C277 1.235 . S
C279 C281 1.400 . S
C279 N282 1.351 . S
C279 C284 1.501 . S
C280 C281 1.387 . S
C280 N283 1.341 . S
C281 C279 1.400 . S
C281 C280 1.387 . S
N282 Co273 2.022 . S
N282 C279 1.351 . S
N282 N283 1.365 . S
N283 C280 1.341 . S
N283 N282 1.365 . S
N283 H303 0.862 . S
C284 C279 1.501 . S
C284 H285 0.961 . S
C284 H286 0.961 . S
C284 H287 0.960 . S
H285 C284 0.961 . S
H286 C284 0.961 . S
H287 C284 0.960 . S
C288 N289 1.342 . S
C288 C292 1.401 . S
C288 C293 1.499 . S
N289 Co272 1.989 . S
N289 C288 1.342 . S
N289 N290 1.388 . S
N290 Co273 1.993 . S
N290 N289 1.388 . S
N290 C291 1.346 . S
C291 N290 1.346 . S
C291 C292 1.396 . S
C291 C301 1.510 . S
C292 C288 1.401 . S
C292 C291 1.396 . S
C293 C288 1.499 . S
C293 H294 0.959 . S
C293 H295 0.960 . S
C293 H296 0.961 . S
H294 C293 0.959 . S
H295 C293 0.960 . S
H296 C293 0.961 . S
O297 Co272 1.967 . S
O297 C305 1.258 . S
O298 Co273 1.941 . S
O298 C305 1.266 . S
H299 C301 0.959 . S
H300 C301 0.961 . S
C301 C291 1.510 . S
C301 H299 0.959 . S
C301 H300 0.961 . S
C301 H302 0.960 . S
H302 C301 0.960 . S
H303 N283 0.862 . S
O304 Co272 1.920 . S
O304 C277 1.289 . S
C305 O297 1.258 . S
C305 O298 1.266 . S
Co306 O309 1.970 . S
Co306 N323 1.989 . S
Co306 O331 1.967 . S
Co306 O338 1.920 . S
Co307 O310 1.966 . S
Co307 N316 2.022 . S
Co307 N324 1.993 . S
Co307 O332 1.941 . S
C308 O309 1.258 . S
C308 O310 1.263 . S
O309 Co306 1.970 . S
O309 C308 1.258 . S
O310 Co307 1.966 . S
O310 C308 1.263 . S
C311 O312 1.235 . S
C311 O338 1.289 . S
O312 C311 1.235 . S
C313 C315 1.400 . S
C313 N316 1.351 . S
C313 C318 1.501 . S
C314 C315 1.387 . S
C314 N317 1.341 . S
C315 C313 1.400 . S
C315 C314 1.387 . S
N316 Co307 2.022 . S
N316 C313 1.351 . S
N316 N317 1.365 . S
N317 C314 1.341 . S
N317 N316 1.365 . S
N317 H337 0.862 . S
C318 C313 1.501 . S
C318 H319 0.961 . S
C318 H320 0.961 . S
C318 H321 0.960 . S
H319 C318 0.961 . S
H320 C318 0.961 . S
H321 C318 0.960 . S
C322 N323 1.342 . S
C322 C326 1.401 . S
C322 C327 1.499 . S
N323 Co306 1.989 . S
N323 C322 1.342 . S
N323 N324 1.388 . S
N324 Co307 1.993 . S
N324 N323 1.388 . S
N324 C325 1.346 . S
C325 N324 1.346 . S
C325 C326 1.396 . S
C325 C335 1.510 . S
C326 C322 1.401 . S
C326 C325 1.396 . S
C327 C322 1.499 . S
C327 H328 0.959 . S
C327 H329 0.960 . S
C327 H330 0.961 . S
H328 C327 0.959 . S
H329 C327 0.960 . S
H330 C327 0.961 . S
O331 Co306 1.967 . S
O331 C339 1.258 . S
O332 Co307 1.941 . S
O332 C339 1.266 . S
H333 C335 0.959 . S
H334 C335 0.961 . S
C335 C325 1.510 . S
C335 H333 0.959 . S
C335 H334 0.961 . S
C335 H336 0.960 . S
H336 C335 0.960 . S
H337 N317 0.862 . S
O338 Co306 1.920 . S
O338 C311 1.289 . S
C339 O331 1.258 . S
C339 O332 1.266 . S
Co340 O343 1.970 . S
Co340 N357 1.989 . S
Co340 O365 1.967 . S
Co340 O372 1.920 . S
Co341 O344 1.966 . S
Co341 N350 2.022 . S
Co341 N358 1.993 . S
Co341 O366 1.941 . S
C342 O343 1.258 . S
C342 O344 1.263 . S
O343 Co340 1.970 . S
O343 C342 1.258 . S
O344 Co341 1.966 . S
O344 C342 1.263 . S
C345 O346 1.235 . S
C345 O372 1.289 . S
O346 C345 1.235 . S
C347 C349 1.400 . S
C347 N350 1.351 . S
C347 C352 1.501 . S
C348 C349 1.387 . S
C348 N351 1.341 . S
C349 C347 1.400 . S
C349 C348 1.387 . S
N350 Co341 2.022 . S
N350 C347 1.351 . S
N350 N351 1.365 . S
N351 C348 1.341 . S
N351 N350 1.365 . S
N351 H371 0.862 . S
C352 C347 1.501 . S
C352 H353 0.961 . S
C352 H354 0.961 . S
C352 H355 0.960 . S
H353 C352 0.961 . S
H354 C352 0.961 . S
H355 C352 0.960 . S
C356 N357 1.342 . S
C356 C360 1.401 . S
C356 C361 1.499 . S
N357 Co340 1.989 . S
N357 C356 1.342 . S
N357 N358 1.388 . S
N358 Co341 1.993 . S
N358 N357 1.388 . S
N358 C359 1.346 . S
C359 N358 1.346 . S
C359 C360 1.396 . S
C359 C369 1.510 . S
C360 C356 1.401 . S
C360 C359 1.396 . S
C361 C356 1.499 . S
C361 H362 0.959 . S
C361 H363 0.960 . S
C361 H364 0.961 . S
H362 C361 0.959 . S
H363 C361 0.960 . S
H364 C361 0.961 . S
O365 Co340 1.967 . S
O365 C373 1.258 . S
O366 Co341 1.941 . S
O366 C373 1.266 . S
H367 C369 0.959 . S
H368 C369 0.961 . S
C369 C359 1.510 . S
C369 H367 0.959 . S
C369 H368 0.961 . S
C369 H370 0.960 . S
H370 C369 0.960 . S
H371 N351 0.862 . S
O372 Co340 1.920 . S
O372 C345 1.289 . S
C373 O365 1.258 . S
C373 O366 1.266 . S
Co374 O377 1.970 . S
Co374 N391 1.989 . S
Co374 O399 1.967 . S
Co374 O406 1.920 . S
Co375 O378 1.966 . S
Co375 N384 2.022 . S
Co375 N392 1.993 . S
Co375 O400 1.941 . S
C376 O377 1.258 . S
C376 O378 1.263 . S
O377 Co374 1.970 . S
O377 C376 1.258 . S
O378 Co375 1.966 . S
O378 C376 1.263 . S
C379 O380 1.235 . S
C379 O406 1.289 . S
O380 C379 1.235 . S
C381 C383 1.400 . S
C381 N384 1.351 . S
C381 C386 1.501 . S
C382 C383 1.387 . S
C382 N385 1.341 . S
C383 C381 1.400 . S
C383 C382 1.387 . S
N384 Co375 2.022 . S
N384 C381 1.351 . S
N384 N385 1.365 . S
N385 C382 1.341 . S
N385 N384 1.365 . S
N385 H405 0.862 . S
C386 C381 1.501 . S
C386 H387 0.961 . S
C386 H388 0.961 . S
C386 H389 0.960 . S
H387 C386 0.961 . S
H388 C386 0.961 . S
H389 C386 0.960 . S
C390 N391 1.342 . S
C390 C394 1.401 . S
C390 C395 1.499 . S
N391 Co374 1.989 . S
N391 C390 1.342 . S
N391 N392 1.388 . S
N392 Co375 1.993 . S
N392 N391 1.388 . S
N392 C393 1.346 . S
C393 N392 1.346 . S
C393 C394 1.396 . S
C393 C403 1.510 . S
C394 C390 1.401 . S
C394 C393 1.396 . S
C395 C390 1.499 . S
C395 H396 0.959 . S
C395 H397 0.960 . S
C395 H398 0.961 . S
H396 C395 0.959 . S
H397 C395 0.960 . S
H398 C395 0.961 . S
O399 Co374 1.967 . S
O399 C407 1.258 . S
O400 Co375 1.941 . S
O400 C407 1.266 . S
H401 C403 0.959 . S
H402 C403 0.961 . S
C403 C393 1.510 . S
C403 H401 0.959 . S
C403 H402 0.961 . S
C403 H404 0.960 . S
H404 C403 0.960 . S
H405 N385 0.862 . S
O406 Co374 1.920 . S
O406 C379 1.289 . S
C407 O399 1.258 . S
C407 O400 1.266 . S
Co408 O411 1.970 . S
Co408 N425 1.989 . S
Co408 O433 1.967 . S
Co408 O440 1.920 . S
Co409 O412 1.966 . S
Co409 N418 2.022 . S
Co409 N426 1.993 . S
Co409 O434 1.941 . S
C410 O411 1.258 . S
C410 O412 1.263 . S
O411 Co408 1.970 . S
O411 C410 1.258 . S
O412 Co409 1.966 . S
O412 C410 1.263 . S
C413 O414 1.235 . S
C413 O440 1.289 . S
O414 C413 1.235 . S
C415 C417 1.400 . S
C415 N418 1.351 . S
C415 C420 1.501 . S
C416 C417 1.387 . S
C416 N419 1.341 . S
C417 C415 1.400 . S
C417 C416 1.387 . S
N418 Co409 2.022 . S
N418 C415 1.351 . S
N418 N419 1.365 . S
N419 C416 1.341 . S
N419 N418 1.365 . S
N419 H439 0.862 . S
C420 C415 1.501 . S
C420 H421 0.961 . S
C420 H422 0.961 . S
C420 H423 0.960 . S
H421 C420 0.961 . S
H422 C420 0.961 . S
H423 C420 0.960 . S
C424 N425 1.342 . S
C424 C428 1.401 . S
C424 C429 1.499 . S
N425 Co408 1.989 . S
N425 C424 1.342 . S
N425 N426 1.388 . S
N426 Co409 1.993 . S
N426 N425 1.388 . S
N426 C427 1.346 . S
C427 N426 1.346 . S
C427 C428 1.396 . S
C427 C437 1.510 . S
C428 C424 1.401 . S
C428 C427 1.396 . S
C429 C424 1.499 . S
C429 H430 0.959 . S
C429 H431 0.960 . S
C429 H432 0.961 . S
H430 C429 0.959 . S
H431 C429 0.960 . S
H432 C429 0.961 . S
O433 Co408 1.967 . S
O433 C441 1.258 . S
O434 Co409 1.941 . S
O434 C441 1.266 . S
H435 C437 0.959 . S
H436 C437 0.961 . S
C437 C427 1.510 . S
C437 H435 0.959 . S
C437 H436 0.961 . S
C437 H438 0.960 . S
H438 C437 0.960 . S
H439 N419 0.862 . S
O440 Co408 1.920 . S
O440 C413 1.289 . S
C441 O433 1.258 . S
C441 O434 1.266 . S
Co442 O445 1.970 . S
Co442 N459 1.989 . S
Co442 O467 1.967 . S
Co442 O474 1.920 . S
Co443 O446 1.966 . S
Co443 N452 2.022 . S
Co443 N460 1.993 . S
Co443 O468 1.941 . S
C444 O445 1.258 . S
C444 O446 1.263 . S
O445 Co442 1.970 . S
O445 C444 1.258 . S
O446 Co443 1.966 . S
O446 C444 1.263 . S
C447 O448 1.235 . S
C447 O474 1.289 . S
O448 C447 1.235 . S
C449 C451 1.400 . S
C449 N452 1.351 . S
C449 C454 1.501 . S
C450 C451 1.387 . S
C450 N453 1.341 . S
C451 C449 1.400 . S
C451 C450 1.387 . S
N452 Co443 2.022 . S
N452 C449 1.351 . S
N452 N453 1.365 . S
N453 C450 1.341 . S
N453 N452 1.365 . S
N453 H473 0.862 . S
C454 C449 1.501 . S
C454 H455 0.961 . S
C454 H456 0.961 . S
C454 H457 0.960 . S
H455 C454 0.961 . S
H456 C454 0.961 . S
H457 C454 0.960 . S
C458 N459 1.342 . S
C458 C462 1.401 . S
C458 C463 1.499 . S
N459 Co442 1.989 . S
N459 C458 1.342 . S
N459 N460 1.388 . S
N460 Co443 1.993 . S
N460 N459 1.388 . S
N460 C461 1.346 . S
C461 N460 1.346 . S
C461 C462 1.396 . S
C461 C471 1.510 . S
C462 C458 1.401 . S
C462 C461 1.396 . S
C463 C458 1.499 . S
C463 H464 0.959 . S
C463 H465 0.960 . S
C463 H466 0.961 . S
H464 C463 0.959 . S
H465 C463 0.960 . S
H466 C463 0.961 . S
O467 Co442 1.967 . S
O467 C475 1.258 . S
O468 Co443 1.941 . S
O468 C475 1.266 . S
H469 C471 0.959 . S
H470 C471 0.961 . S
C471 C461 1.510 . S
C471 H469 0.959 . S
C471 H470 0.961 . S
C471 H472 0.960 . S
H472 C471 0.960 . S
H473 N453 0.862 . S
O474 Co442 1.920 . S
O474 C447 1.289 . S
C475 O467 1.258 . S
C475 O468 1.266 . S
Co476 O479 1.970 . S
Co476 N493 1.989 . S
Co476 O501 1.967 . S
Co476 O508 1.920 . S
Co477 O480 1.966 . S
Co477 N486 2.022 . S
Co477 N494 1.993 . S
Co477 O502 1.941 . S
C478 O479 1.258 . S
C478 O480 1.263 . S
O479 Co476 1.970 . S
O479 C478 1.258 . S
O480 Co477 1.966 . S
O480 C478 1.263 . S
C481 O482 1.235 . S
C481 O508 1.289 . S
O482 C481 1.235 . S
C483 C485 1.400 . S
C483 N486 1.351 . S
C483 C488 1.501 . S
C484 C485 1.387 . S
C484 N487 1.341 . S
C485 C483 1.400 . S
C485 C484 1.387 . S
N486 Co477 2.022 . S
N486 C483 1.351 . S
N486 N487 1.365 . S
N487 C484 1.341 . S
N487 N486 1.365 . S
N487 H507 0.862 . S
C488 C483 1.501 . S
C488 H489 0.961 . S
C488 H490 0.961 . S
C488 H491 0.960 . S
H489 C488 0.961 . S
H490 C488 0.961 . S
H491 C488 0.960 . S
C492 N493 1.342 . S
C492 C496 1.401 . S
C492 C497 1.499 . S
N493 Co476 1.989 . S
N493 C492 1.342 . S
N493 N494 1.388 . S
N494 Co477 1.993 . S
N494 N493 1.388 . S
N494 C495 1.346 . S
C495 N494 1.346 . S
C495 C496 1.396 . S
C495 C505 1.510 . S
C496 C492 1.401 . S
C496 C495 1.396 . S
C497 C492 1.499 . S
C497 H498 0.959 . S
C497 H499 0.960 . S
C497 H500 0.961 . S
H498 C497 0.959 . S
H499 C497 0.960 . S
H500 C497 0.961 . S
O501 Co476 1.967 . S
O501 C509 1.258 . S
O502 Co477 1.941 . S
O502 C509 1.266 . S
H503 C505 0.959 . S
H504 C505 0.961 . S
C505 C495 1.510 . S
C505 H503 0.959 . S
C505 H504 0.961 . S
C505 H506 0.960 . S
H506 C505 0.960 . S
H507 N487 0.862 . S
O508 Co476 1.920 . S
O508 C481 1.289 . S
C509 O501 1.258 . S
C509 O502 1.266 . S
Co510 O513 1.970 . S
Co510 N527 1.989 . S
Co510 O535 1.967 . S
Co510 O542 1.920 . S
Co511 O514 1.966 . S
Co511 N520 2.022 . S
Co511 N528 1.993 . S
Co511 O536 1.941 . S
C512 O513 1.258 . S
C512 O514 1.263 . S
O513 Co510 1.970 . S
O513 C512 1.258 . S
O514 Co511 1.966 . S
O514 C512 1.263 . S
C515 O516 1.235 . S
C515 O542 1.289 . S
O516 C515 1.235 . S
C517 C519 1.400 . S
C517 N520 1.351 . S
C517 C522 1.501 . S
C518 C519 1.387 . S
C518 N521 1.341 . S
C519 C517 1.400 . S
C519 C518 1.387 . S
N520 Co511 2.022 . S
N520 C517 1.351 . S
N520 N521 1.365 . S
N521 C518 1.341 . S
N521 N520 1.365 . S
N521 H541 0.862 . S
C522 C517 1.501 . S
C522 H523 0.961 . S
C522 H524 0.961 . S
C522 H525 0.960 . S
H523 C522 0.961 . S
H524 C522 0.961 . S
H525 C522 0.960 . S
C526 N527 1.342 . S
C526 C530 1.401 . S
C526 C531 1.499 . S
N527 Co510 1.989 . S
N527 C526 1.342 . S
N527 N528 1.388 . S
N528 Co511 1.993 . S
N528 N527 1.388 . S
N528 C529 1.346 . S
C529 N528 1.346 . S
C529 C530 1.396 . S
C529 C539 1.510 . S
C530 C526 1.401 . S
C530 C529 1.396 . S
C531 C526 1.499 . S
C531 H532 0.959 . S
C531 H533 0.960 . S
C531 H534 0.961 . S
H532 C531 0.959 . S
H533 C531 0.960 . S
H534 C531 0.961 . S
O535 Co510 1.967 . S
O535 C543 1.258 . S
O536 Co511 1.941 . S
O536 C543 1.266 . S
H537 C539 0.959 . S
H538 C539 0.961 . S
C539 C529 1.510 . S
C539 H537 0.959 . S
C539 H538 0.961 . S
C539 H540 0.960 . S
H540 C539 0.960 . S
H541 N521 0.862 . S
O542 Co510 1.920 . S
O542 C515 1.289 . S
C543 O535 1.258 . S
C543 O536 1.266 . S
C544 C545 1.387 . S
C544 H548 0.950 . S
C544 C553 1.390 1_655 S
C545 C544 1.387 . S
C545 C547 1.387 . S
H546 C553 0.950 . S
C547 C545 1.387 . S
C547 C549 1.390 1_655 S
C547 H551 0.950 . S
H548 C544 0.950 . S
C549 C547 1.390 1_455 S
C549 C550 1.387 . S
C549 H552 0.950 . S
C550 C549 1.387 . S
C550 C553 1.387 . S
H551 C547 0.950 . S
H552 C549 0.950 . S
C553 C544 1.390 1_455 S
C553 H546 0.950 . S
C553 C550 1.387 . S
C554 C555 1.387 . S
C554 H558 0.950 . S
C554 C563 1.390 1_545 S
C555 C554 1.387 . S
C555 C557 1.387 . S
H556 C563 0.950 . S
C557 C555 1.387 . S
C557 C559 1.390 1_545 S
C557 H561 0.950 . S
H558 C554 0.950 . S
C559 C557 1.390 1_565 S
C559 C560 1.387 . S
C559 H562 0.950 . S
C560 C559 1.387 . S
C560 C563 1.387 . S
H561 C557 0.950 . S
H562 C559 0.950 . S
C563 C554 1.390 1_565 S
C563 H556 0.950 . S
C563 C560 1.387 . S
C564 C565 1.387 . S
C564 H568 0.950 . S
C564 C573 1.390 1_655 S
C565 C564 1.387 . S
C565 C567 1.387 . S
H566 C573 0.950 . S
C567 C565 1.387 . S
C567 C569 1.390 1_655 S
C567 H571 0.950 . S
H568 C564 0.950 . S
C569 C567 1.390 1_455 S
C569 C570 1.387 . S
C569 H572 0.950 . S
C570 C569 1.387 . S
C570 C573 1.387 . S
H571 C567 0.950 . S
H572 C569 0.950 . S
C573 C564 1.390 1_455 S
C573 H566 0.950 . S
C573 C570 1.387 . S
C574 C575 1.387 . S
C574 H578 0.950 . S
C574 C583 1.390 1_565 S
C575 C574 1.387 . S
C575 C577 1.387 . S
H576 C583 0.950 . S
C577 C575 1.387 . S
C577 C579 1.390 1_565 S
C577 H581 0.950 . S
H578 C574 0.950 . S
C579 C577 1.390 1_545 S
C579 C580 1.387 . S
C579 H582 0.950 . S
C580 C579 1.387 . S
C580 C583 1.387 . S
H581 C577 0.950 . S
H582 C579 0.950 . S
C583 C574 1.390 1_545 S
C583 H576 0.950 . S
C583 C580 1.387 . S
C584 C585 1.387 . S
C584 H588 0.950 . S
C584 C593 1.390 1_565 S
C585 C584 1.387 . S
C585 C587 1.387 . S
H586 C593 0.950 . S
C587 C585 1.387 . S
C587 C589 1.390 1_565 S
C587 H591 0.950 . S
H588 C584 0.950 . S
C589 C587 1.390 1_545 S
C589 C590 1.387 . S
C589 H592 0.950 . S
C590 C589 1.387 . S
C590 C593 1.387 . S
H591 C587 0.950 . S
H592 C589 0.950 . S
C593 C584 1.390 1_545 S
C593 H586 0.950 . S
C593 C590 1.387 . S
C594 C595 1.387 . S
C594 H598 0.950 . S
C594 C603 1.390 1_655 S
C595 C594 1.387 . S
C595 C597 1.387 . S
H596 C603 0.950 . S
C597 C595 1.387 . S
C597 C599 1.390 1_655 S
C597 H601 0.950 . S
H598 C594 0.950 . S
C599 C597 1.390 1_455 S
C599 C600 1.387 . S
C599 H602 0.950 . S
C600 C599 1.387 . S
C600 C603 1.387 . S
H601 C597 0.950 . S
H602 C599 0.950 . S
C603 C594 1.390 1_455 S
C603 H596 0.950 . S
C603 C600 1.387 . S
C604 C605 1.387 . S
C604 H608 0.950 . S
C604 C613 1.390 1_565 S
C605 C604 1.387 . S
C605 C607 1.387 . S
H606 C613 0.950 . S
C607 C605 1.387 . S
C607 C609 1.390 1_565 S
C607 H611 0.950 . S
H608 C604 0.950 . S
C609 C607 1.390 1_545 S
C609 C610 1.387 . S
C609 H612 0.950 . S
C610 C609 1.387 . S
C610 C613 1.387 . S
H611 C607 0.950 . S
H612 C609 0.950 . S
C613 C604 1.390 1_545 S
C613 H606 0.950 . S
C613 C610 1.387 . S
C614 C615 1.387 . S
C614 H618 0.950 . S
C614 C623 1.390 1_655 S
C615 C614 1.387 . S
C615 C617 1.387 . S
H616 C623 0.950 . S
C617 C615 1.387 . S
C617 C619 1.390 1_655 S
C617 H621 0.950 . S
H618 C614 0.950 . S
C619 C617 1.390 1_455 S
C619 C620 1.387 . S
C619 H622 0.950 . S
C620 C619 1.387 . S
C620 C623 1.387 . S
H621 C617 0.950 . S
H622 C619 0.950 . S
C623 C614 1.390 1_455 S
C623 H616 0.950 . S
C623 C620 1.387 . S
C624 C625 1.387 . S
C624 H628 0.950 . S
C624 C633 1.390 . S
C625 C624 1.387 . S
C625 C627 1.387 . S
H626 C633 0.950 . S
C627 C625 1.387 . S
C627 C629 1.390 . S
C627 H631 0.950 . S
H628 C624 0.950 . S
C629 C627 1.390 . S
C629 C630 1.387 . S
C629 H632 0.950 . S
C630 C629 1.387 . S
C630 C633 1.387 . S
H631 C627 0.950 . S
H632 C629 0.950 . S
C633 C624 1.390 . S
C633 H626 0.950 . S
C633 C630 1.387 . S
C634 C635 1.387 . S
C634 H638 0.950 . S
C634 C643 1.390 . S
C635 C634 1.387 . S
C635 C637 1.387 . S
H636 C643 0.950 . S
C637 C635 1.387 . S
C637 C639 1.390 . S
C637 H641 0.950 . S
H638 C634 0.950 . S
C639 C637 1.390 . S
C639 C640 1.387 . S
C639 H642 0.950 . S
C640 C639 1.387 . S
C640 C643 1.387 . S
H641 C637 0.950 . S
H642 C639 0.950 . S
C643 C634 1.390 . S
C643 H636 0.950 . S
C643 C640 1.387 . S
C644 C645 1.387 . S
C644 H648 0.950 . S
C644 C653 1.390 . S
C645 C644 1.387 . S
C645 C647 1.387 . S
H646 C653 0.950 . S
C647 C645 1.387 . S
C647 C649 1.390 . S
C647 H651 0.950 . S
H648 C644 0.950 . S
C649 C647 1.390 . S
C649 C650 1.387 . S
C649 H652 0.950 . S
C650 C649 1.387 . S
C650 C653 1.387 . S
H651 C647 0.950 . S
H652 C649 0.950 . S
C653 C644 1.390 . S
C653 H646 0.950 . S
C653 C650 1.387 . S
C654 C655 1.387 . S
C654 H658 0.950 . S
C654 C663 1.390 . S
C655 C654 1.387 . S
C655 C657 1.387 . S
H656 C663 0.950 . S
C657 C655 1.387 . S
C657 C659 1.390 . S
C657 H661 0.950 . S
H658 C654 0.950 . S
C659 C657 1.390 . S
C659 C660 1.387 . S
C659 H662 0.950 . S
C660 C659 1.387 . S
C660 C663 1.387 . S
H661 C657 0.950 . S
H662 C659 0.950 . S
C663 C654 1.390 . S
C663 H656 0.950 . S
C663 C660 1.387 . S
C664 C665 1.387 . S
C664 H668 0.950 . S
C664 C673 1.390 . S
C665 C664 1.387 . S
C665 C667 1.387 . S
H666 C673 0.950 . S
C667 C665 1.387 . S
C667 C669 1.390 . S
C667 H671 0.950 . S
H668 C664 0.950 . S
C669 C667 1.390 . S
C669 C670 1.387 . S
C669 H672 0.950 . S
C670 C669 1.387 . S
C670 C673 1.387 . S
H671 C667 0.950 . S
H672 C669 0.950 . S
C673 C664 1.390 . S
C673 H666 0.950 . S
C673 C670 1.387 . S
C674 C675 1.387 . S
C674 H678 0.950 . S
C674 C683 1.390 . S
C675 C674 1.387 . S
C675 C677 1.387 . S
H676 C683 0.950 . S
C677 C675 1.387 . S
C677 C679 1.390 . S
C677 H681 0.950 . S
H678 C674 0.950 . S
C679 C677 1.390 . S
C679 C680 1.387 . S
C679 H682 0.950 . S
C680 C679 1.387 . S
C680 C683 1.387 . S
H681 C677 0.950 . S
H682 C679 0.950 . S
C683 C674 1.390 . S
C683 H676 0.950 . S
C683 C680 1.387 . S
C684 C685 1.387 . S
C684 H688 0.950 . S
C684 C693 1.390 . S
C685 C684 1.387 . S
C685 C687 1.387 . S
H686 C693 0.950 . S
C687 C685 1.387 . S
C687 C689 1.390 . S
C687 H691 0.950 . S
H688 C684 0.950 . S
C689 C687 1.390 . S
C689 C690 1.387 . S
C689 H692 0.950 . S
C690 C689 1.387 . S
C690 C693 1.387 . S
H691 C687 0.950 . S
H692 C689 0.950 . S
C693 C684 1.390 . S
C693 H686 0.950 . S
C693 C690 1.387 . S
C694 C695 1.387 . S
C694 H698 0.950 . S
C694 C703 1.390 . S
C695 C694 1.387 . S
C695 C697 1.387 . S
H696 C703 0.950 . S
C697 C695 1.387 . S
C697 C699 1.390 . S
C697 H701 0.950 . S
H698 C694 0.950 . S
C699 C697 1.390 . S
C699 C700 1.387 . S
C699 H702 0.950 . S
C700 C699 1.387 . S
C700 C703 1.387 . S
H701 C697 0.950 . S
H702 C699 0.950 . S
C703 C694 1.390 . S
C703 H696 0.950 . S
C703 C700 1.387 . S
C704 C705 1.387 . S
C704 H708 0.950 . S
C704 C713 1.390 . S
C705 C704 1.387 . S
C705 C707 1.387 . S
H706 C713 0.950 . S
C707 C705 1.387 . S
C707 C709 1.390 . S
C707 H711 0.950 . S
H708 C704 0.950 . S
C709 C707 1.390 . S
C709 C710 1.387 . S
C709 H712 0.950 . S
C710 C709 1.387 . S
C710 C713 1.387 . S
H711 C707 0.950 . S
H712 C709 0.950 . S
C713 C704 1.390 . S
C713 H706 0.950 . S
C713 C710 1.387 . S
C714 C715 1.387 . S
C714 H718 0.950 . S
C714 C723 1.390 . S
C715 C714 1.387 . S
C715 C717 1.387 . S
H716 C723 0.950 . S
C717 C715 1.387 . S
C717 C719 1.390 . S
C717 H721 0.950 . S
H718 C714 0.950 . S
C719 C717 1.390 . S
C719 C720 1.387 . S
C719 H722 0.950 . S
C720 C719 1.387 . S
C720 C723 1.387 . S
H721 C717 0.950 . S
H722 C719 0.950 . S
C723 C714 1.390 . S
C723 H716 0.950 . S
C723 C720 1.387 . S
C724 C725 1.387 . S
C724 H728 0.950 . S
C724 C733 1.390 . S
C725 C724 1.387 . S
C725 C727 1.387 . S
H726 C733 0.950 . S
C727 C725 1.387 . S
C727 C729 1.390 . S
C727 H731 0.950 . S
H728 C724 0.950 . S
C729 C727 1.390 . S
C729 C730 1.387 . S
C729 H732 0.950 . S
C730 C729 1.387 . S
C730 C733 1.387 . S
H731 C727 0.950 . S
H732 C729 0.950 . S
C733 C724 1.390 . S
C733 H726 0.950 . S
C733 C730 1.387 . S
C734 C735 1.387 . S
C734 H738 0.950 . S
C734 C743 1.390 . S
C735 C734 1.387 . S
C735 C737 1.387 . S
H736 C743 0.950 . S
C737 C735 1.387 . S
C737 C739 1.390 . S
C737 H741 0.950 . S
H738 C734 0.950 . S
C739 C737 1.390 . S
C739 C740 1.387 . S
C739 H742 0.950 . S
C740 C739 1.387 . S
C740 C743 1.387 . S
H741 C737 0.950 . S
H742 C739 0.950 . S
C743 C734 1.390 . S
C743 H736 0.950 . S
C743 C740 1.387 . S
C744 C745 1.387 . S
C744 H748 0.950 . S
C744 C753 1.390 . S
C745 C744 1.387 . S
C745 C747 1.387 . S
H746 C753 0.950 . S
C747 C745 1.387 . S
C747 C749 1.390 . S
C747 H751 0.950 . S
H748 C744 0.950 . S
C749 C747 1.390 . S
C749 C750 1.387 . S
C749 H752 0.950 . S
C750 C749 1.387 . S
C750 C753 1.387 . S
H751 C747 0.950 . S
H752 C749 0.950 . S
C753 C744 1.390 . S
C753 H746 0.950 . S
C753 C750 1.387 . S
C754 C755 1.387 . S
C754 H758 0.950 . S
C754 C763 1.390 . S
C755 C754 1.387 . S
C755 C757 1.387 . S
H756 C763 0.950 . S
C757 C755 1.387 . S
C757 C759 1.390 . S
C757 H761 0.950 . S
H758 C754 0.950 . S
C759 C757 1.390 . S
C759 C760 1.387 . S
C759 H762 0.950 . S
C760 C759 1.387 . S
C760 C763 1.387 . S
H761 C757 0.950 . S
H762 C759 0.950 . S
C763 C754 1.390 . S
C763 H756 0.950 . S
C763 C760 1.387 . S
C764 C765 1.387 . S
C764 H768 0.950 . S
C764 C773 1.390 . S
C765 C764 1.387 . S
C765 C767 1.387 . S
H766 C773 0.950 . S
C767 C765 1.387 . S
C767 C769 1.390 . S
C767 H771 0.950 . S
H768 C764 0.950 . S
C769 C767 1.390 . S
C769 C770 1.387 . S
C769 H772 0.950 . S
C770 C769 1.387 . S
C770 C773 1.387 . S
H771 C767 0.950 . S
H772 C769 0.950 . S
C773 C764 1.390 . S
C773 H766 0.950 . S
C773 C770 1.387 . S
C774 C775 1.387 . S
C774 H778 0.950 . S
C774 C783 1.390 . S
C775 C774 1.387 . S
C775 C777 1.387 . S
H776 C783 0.950 . S
C777 C775 1.387 . S
C777 C779 1.390 . S
C777 H781 0.950 . S
H778 C774 0.950 . S
C779 C777 1.390 . S
C779 C780 1.387 . S
C779 H782 0.950 . S
C780 C779 1.387 . S
C780 C783 1.387 . S
H781 C777 0.950 . S
H782 C779 0.950 . S
C783 C774 1.390 . S
C783 H776 0.950 . S
C783 C780 1.387 . S
C784 C785 1.387 . S
C784 H788 0.950 . S
C784 C793 1.390 . S
C785 C784 1.387 . S
C785 C787 1.387 . S
H786 C793 0.950 . S
C787 C785 1.387 . S
C787 C789 1.390 . S
C787 H791 0.950 . S
H788 C784 0.950 . S
C789 C787 1.390 . S
C789 C790 1.387 . S
C789 H792 0.950 . S
C790 C789 1.387 . S
C790 C793 1.387 . S
H791 C787 0.950 . S
H792 C789 0.950 . S
C793 C784 1.390 . S
C793 H786 0.950 . S
C793 C790 1.387 . S
C794 C795 1.387 . S
C794 H798 0.950 . S
C794 C803 1.390 . S
C795 C794 1.387 . S
C795 C797 1.387 . S
H796 C803 0.950 . S
C797 C795 1.387 . S
C797 C799 1.390 . S
C797 H801 0.950 . S
H798 C794 0.950 . S
C799 C797 1.390 . S
C799 C800 1.387 . S
C799 H802 0.950 . S
C800 C799 1.387 . S
C800 C803 1.387 . S
H801 C797 0.950 . S
H802 C799 0.950 . S
C803 C794 1.390 . S
C803 H796 0.950 . S
C803 C800 1.387 . S
C804 C805 1.387 . S
C804 H808 0.950 . S
C804 C813 1.390 . S
C805 C804 1.387 . S
C805 C807 1.387 . S
H806 C813 0.950 . S
C807 C805 1.387 . S
C807 C809 1.390 . S
C807 H811 0.950 . S
H808 C804 0.950 . S
C809 C807 1.390 . S
C809 C810 1.387 . S
C809 H812 0.950 . S
C810 C809 1.387 . S
C810 C813 1.387 . S
H811 C807 0.950 . S
H812 C809 0.950 . S
C813 C804 1.390 . S
C813 H806 0.950 . S
C813 C810 1.387 . S
C814 C815 1.387 . S
C814 H818 0.950 . S
C814 C823 1.390 . S
C815 C814 1.387 . S
C815 C817 1.387 . S
H816 C823 0.950 . S
C817 C815 1.387 . S
C817 C819 1.390 . S
C817 H821 0.950 . S
H818 C814 0.950 . S
C819 C817 1.390 . S
C819 C820 1.387 . S
C819 H822 0.950 . S
C820 C819 1.387 . S
C820 C823 1.387 . S
H821 C817 0.950 . S
H822 C819 0.950 . S
C823 C814 1.390 . S
C823 H816 0.950 . S
C823 C820 1.387 . S
C824 C825 1.387 . S
C824 H828 0.950 . S
C824 C833 1.390 . S
C825 C824 1.387 . S
C825 C827 1.387 . S
H826 C833 0.950 . S
C827 C825 1.387 . S
C827 C829 1.390 . S
C827 H831 0.950 . S
H828 C824 0.950 . S
C829 C827 1.390 . S
C829 C830 1.387 . S
C829 H832 0.950 . S
C830 C829 1.387 . S
C830 C833 1.387 . S
H831 C827 0.950 . S
H832 C829 0.950 . S
C833 C824 1.390 . S
C833 H826 0.950 . S
C833 C830 1.387 . S
C834 C835 1.387 . S
C834 H838 0.950 . S
C834 C843 1.390 . S
C835 C834 1.387 . S
C835 C837 1.387 . S
H836 C843 0.950 . S
C837 C835 1.387 . S
C837 C839 1.390 . S
C837 H841 0.950 . S
H838 C834 0.950 . S
C839 C837 1.390 . S
C839 C840 1.387 . S
C839 H842 0.950 . S
C840 C839 1.387 . S
C840 C843 1.387 . S
H841 C837 0.950 . S
H842 C839 0.950 . S
C843 C834 1.390 . S
C843 H836 0.950 . S
C843 C840 1.387 . S
C844 C845 1.387 . S
C844 H848 0.950 . S
C844 C853 1.390 . S
C845 C844 1.387 . S
C845 C847 1.387 . S
H846 C853 0.950 . S
C847 C845 1.387 . S
C847 C849 1.390 . S
C847 H851 0.950 . S
H848 C844 0.950 . S
C849 C847 1.390 . S
C849 C850 1.387 . S
C849 H852 0.950 . S
C850 C849 1.387 . S
C850 C853 1.387 . S
H851 C847 0.950 . S
H852 C849 0.950 . S
C853 C844 1.390 . S
C853 H846 0.950 . S
C853 C850 1.387 . S
C854 C855 1.387 . S
C854 H858 0.950 . S
C854 C863 1.390 . S
C855 C854 1.387 . S
C855 C857 1.387 . S
H856 C863 0.950 . S
C857 C855 1.387 . S
C857 C859 1.390 . S
C857 H861 0.950 . S
H858 C854 0.950 . S
C859 C857 1.390 . S
C859 C860 1.387 . S
C859 H862 0.950 . S
C860 C859 1.387 . S
C860 C863 1.387 . S
H861 C857 0.950 . S
H862 C859 0.950 . S
C863 C854 1.390 . S
C863 H856 0.950 . S
C863 C860 1.387 . S
C864 C865 1.387 . S
C864 H868 0.950 . S
C864 C873 1.390 1_455 S
C865 C864 1.387 . S
C865 C867 1.387 . S
H866 C873 0.950 . S
C867 C865 1.387 . S
C867 C869 1.390 1_455 S
C867 H871 0.950 . S
H868 C864 0.950 . S
C869 C867 1.390 1_655 S
C869 C870 1.387 . S
C869 H872 0.950 . S
C870 C869 1.387 . S
C870 C873 1.387 . S
H871 C867 0.950 . S
H872 C869 0.950 . S
C873 C864 1.390 1_655 S
C873 H866 0.950 . S
C873 C870 1.387 . S
C874 C875 1.387 . S
C874 H878 0.950 . S
C874 C883 1.390 1_565 S
C875 C874 1.387 . S
C875 C877 1.387 . S
H876 C883 0.950 . S
C877 C875 1.387 . S
C877 C879 1.390 1_565 S
C877 H881 0.950 . S
H878 C874 0.950 . S
C879 C877 1.390 1_545 S
C879 C880 1.387 . S
C879 H882 0.950 . S
C880 C879 1.387 . S
C880 C883 1.387 . S
H881 C877 0.950 . S
H882 C879 0.950 . S
C883 C874 1.390 1_545 S
C883 H876 0.950 . S
C883 C880 1.387 . S
C884 C885 1.387 . S
C884 H888 0.950 . S
C884 C893 1.390 1_455 S
C885 C884 1.387 . S
C885 C887 1.387 . S
H886 C893 0.950 . S
C887 C885 1.387 . S
C887 C889 1.390 1_455 S
C887 H891 0.950 . S
H888 C884 0.950 . S
C889 C887 1.390 1_655 S
C889 C890 1.387 . S
C889 H892 0.950 . S
C890 C889 1.387 . S
C890 C893 1.387 . S
H891 C887 0.950 . S
H892 C889 0.950 . S
C893 C884 1.390 1_655 S
C893 H886 0.950 . S
C893 C890 1.387 . S
C894 C895 1.387 . S
C894 H898 0.950 . S
C894 C903 1.390 1_545 S
C895 C894 1.387 . S
C895 C897 1.387 . S
H896 C903 0.950 . S
C897 C895 1.387 . S
C897 C899 1.390 1_545 S
C897 H901 0.950 . S
H898 C894 0.950 . S
C899 C897 1.390 1_565 S
C899 C900 1.387 . S
C899 H902 0.950 . S
C900 C899 1.387 . S
C900 C903 1.387 . S
H901 C897 0.950 . S
H902 C899 0.950 . S
C903 C894 1.390 1_565 S
C903 H896 0.950 . S
C903 C900 1.387 . S
C904 C905 1.387 . S
C904 H908 0.950 . S
C904 C913 1.390 1_556 S
C905 C904 1.387 . S
C905 C907 1.387 . S
H906 C913 0.950 . S
C907 C905 1.387 . S
C907 C909 1.390 1_556 S
C907 H911 0.950 . S
H908 C904 0.950 . S
C909 C907 1.390 1_554 S
C909 C910 1.387 . S
C909 H912 0.950 . S
C910 C909 1.387 . S
C910 C913 1.387 . S
H911 C907 0.950 . S
H912 C909 0.950 . S
C913 C904 1.390 1_554 S
C913 H906 0.950 . S
C913 C910 1.387 . S
C914 C915 1.387 . S
C914 H918 0.950 . S
C914 C923 1.390 1_554 S
C915 C914 1.387 . S
C915 C917 1.387 . S
H916 C923 0.950 . S
C917 C915 1.387 . S
C917 C919 1.390 1_554 S
C917 H921 0.950 . S
H918 C914 0.950 . S
C919 C917 1.390 1_556 S
C919 C920 1.387 . S
C919 H922 0.950 . S
C920 C919 1.387 . S
C920 C923 1.387 . S
H921 C917 0.950 . S
H922 C919 0.950 . S
C923 C914 1.390 1_556 S
C923 H916 0.950 . S
C923 C920 1.387 . S
C924 C925 1.387 . S
C924 H928 0.950 . S
C924 C933 1.390 1_554 S
C925 C924 1.387 . S
C925 C927 1.387 . S
H926 C933 0.950 . S
C927 C925 1.387 . S
C927 C929 1.390 1_554 S
C927 H931 0.950 . S
H928 C924 0.950 . S
C929 C927 1.390 1_556 S
C929 C930 1.387 . S
C929 H932 0.950 . S
C930 C929 1.387 . S
C930 C933 1.387 . S
H931 C927 0.950 . S
H932 C929 0.950 . S
C933 C924 1.390 1_556 S
C933 H926 0.950 . S
C933 C930 1.387 . S
C934 C935 1.387 . S
C934 H938 0.950 . S
C934 C943 1.390 1_556 S
C935 C934 1.387 . S
C935 C937 1.387 . S
H936 C943 0.950 . S
C937 C935 1.387 . S
C937 C939 1.390 1_556 S
C937 H941 0.950 . S
H938 C934 0.950 . S
C939 C937 1.390 1_554 S
C939 C940 1.387 . S
C939 H942 0.950 . S
C940 C939 1.387 . S
C940 C943 1.387 . S
H941 C937 0.950 . S
H942 C939 0.950 . S
C943 C934 1.390 1_554 S
C943 H936 0.950 . S
C943 C940 1.387 . S
C545 C88 1.149 . S
C550 C20 1.149 . S
C555 C54 1.149 . S
C560 C122 1.149 . S
C565 C224 1.149 . S
C570 C156 1.149 . S
C575 C258 1.148 . S
C580 C190 1.148 . S
C585 C292 1.149 . S
C590 C360 1.149 . S
C595 C394 1.149 . S
C600 C326 1.149 . S
C605 C496 1.149 . S
C610 C428 1.149 . S
C615 C462 1.148 . S
C620 C530 1.148 . S
C625 C9 1.585 . S
C630 C519 1.583 . S
C635 C417 1.584 . S
C640 C43 1.584 . S
C645 C451 1.583 . S
C650 C77 1.585 . S
C655 C485 1.585 . S
C660 C111 1.583 . S
C665 C315 1.584 . S
C670 C145 1.582 . S
C675 C349 1.585 . S
C680 C179 1.583 . S
C685 C383 1.584 . S
C690 C213 1.582 . S
C695 C281 1.582 . S
C700 C247 1.584 . S
C705 C2 1.457 . S
C710 C135 1.463 . S
C715 C33 1.463 . S
C720 C36 1.458 . S
C725 C70 1.458 . S
C730 C67 1.463 . S
C735 C101 1.463 . S
C740 C104 1.456 . S
C745 C203 1.463 . S
C750 C138 1.456 . S
C755 C172 1.457 . S
C760 C237 1.463 . S
C765 C271 1.463 . S
C770 C206 1.456 . S
C775 C169 1.463 . S
C780 C240 1.457 . S
C785 C274 1.458 . S
C790 C407 1.463 . S
C795 C305 1.463 . S
C800 C308 1.458 . S
C805 C342 1.456 . S
C810 C339 1.463 . S
C815 C376 1.456 . S
C820 C373 1.463 . S
C825 C410 1.458 . S
C830 C475 1.463 . S
C835 C509 1.463 . S
C840 C444 1.456 . S
C845 C543 1.463 . S
C850 C478 1.456 . S
C855 C512 1.456 . S
C860 C441 1.463 . S
C865 C5 1.625 . S
C870 C209 1.625 . S
C875 C243 1.626 . S
C880 C39 1.626 . S
C885 C141 1.626 . S
C890 C73 1.626 . S
C895 C175 1.626 . S
C900 C107 1.626 . S
C905 C277 1.625 . S
C910 C481 1.625 . S
C915 C515 1.625 . S
C920 C311 1.625 . S
C925 C413 1.626 . S
C930 C345 1.626 . S
C935 C379 1.626 . S
C940 C447 1.626 . S
