# Generated by pormake.
# Topology afi, (4)-cn, num edge types: 1
# Building blocks:
#     Node 0, Type 0, BuildingBlock: KUFVIS_clean_sbu_0, # of connection points: 4
#     Node 1, Type 0, BuildingBlock: KUFVIS_clean_sbu_0, # of connection points: 4
#     Node 2, Type 0, BuildingBlock: KUFVIS_clean_sbu_0, # of connection points: 4
#     Node 3, Type 0, BuildingBlock: KUFVIS_clean_sbu_0, # of connection points: 4
#     Node 4, Type 0, BuildingBlock: KUFVIS_clean_sbu_0, # of connection points: 4
#     Node 5, Type 0, BuildingBlock: KUFVIS_clean_sbu_0, # of connection points: 4
#     Node 6, Type 0, BuildingBlock: KUFVIS_clean_sbu_0, # of connection points: 4
#     Node 7, Type 0, BuildingBlock: KUFVIS_clean_sbu_0, # of connection points: 4
#     Node 8, Type 0, BuildingBlock: KUFVIS_clean_sbu_0, # of connection points: 4
#     Node 9, Type 0, BuildingBlock: KUFVIS_clean_sbu_0, # of connection points: 4
#     Node 10, Type 0, BuildingBlock: KUFVIS_clean_sbu_0, # of connection points: 4
#     Node 11, Type 0, BuildingBlock: KUFVIS_clean_sbu_0, # of connection points: 4
#     Node 12, Type 0, BuildingBlock: KUFVIS_clean_sbu_0, # of connection points: 4
#     Node 13, Type 0, BuildingBlock: KUFVIS_clean_sbu_0, # of connection points: 4
#     Node 14, Type 0, BuildingBlock: KUFVIS_clean_sbu_0, # of connection points: 4
#     Node 15, Type 0, BuildingBlock: KUFVIS_clean_sbu_0, # of connection points: 4
#     Node 16, Type 0, BuildingBlock: KUFVIS_clean_sbu_0, # of connection points: 4
#     Node 17, Type 0, BuildingBlock: KUFVIS_clean_sbu_0, # of connection points: 4
#     Node 18, Type 0, BuildingBlock: KUFVIS_clean_sbu_0, # of connection points: 4
#     Node 19, Type 0, BuildingBlock: KUFVIS_clean_sbu_0, # of connection points: 4
#     Node 20, Type 0, BuildingBlock: KUFVIS_clean_sbu_0, # of connection points: 4
#     Node 21, Type 0, BuildingBlock: KUFVIS_clean_sbu_0, # of connection points: 4
#     Node 22, Type 0, BuildingBlock: KUFVIS_clean_sbu_0, # of connection points: 4
#     Node 23, Type 0, BuildingBlock: KUFVIS_clean_sbu_0, # of connection points: 4
#     Edge 24, Type (0, 0), BuildingBlock: CIFDUS_clean_linker_0, # of connection points: 2
#     Edge 25, Type (0, 0), BuildingBlock: CIFDUS_clean_linker_0, # of connection points: 2
#     Edge 26, Type (0, 0), BuildingBlock: CIFDUS_clean_linker_0, # of connection points: 2
#     Edge 27, Type (0, 0), BuildingBlock: CIFDUS_clean_linker_0, # of connection points: 2
#     Edge 28, Type (0, 0), BuildingBlock: CIFDUS_clean_linker_0, # of connection points: 2
#     Edge 29, Type (0, 0), BuildingBlock: CIFDUS_clean_linker_0, # of connection points: 2
#     Edge 30, Type (0, 0), BuildingBlock: CIFDUS_clean_linker_0, # of connection points: 2
#     Edge 31, Type (0, 0), BuildingBlock: CIFDUS_clean_linker_0, # of connection points: 2
#     Edge 32, Type (0, 0), BuildingBlock: CIFDUS_clean_linker_0, # of connection points: 2
#     Edge 33, Type (0, 0), BuildingBlock: CIFDUS_clean_linker_0, # of connection points: 2
#     Edge 34, Type (0, 0), BuildingBlock: CIFDUS_clean_linker_0, # of connection points: 2
#     Edge 35, Type (0, 0), BuildingBlock: CIFDUS_clean_linker_0, # of connection points: 2
#     Edge 36, Type (0, 0), BuildingBlock: CIFDUS_clean_linker_0, # of connection points: 2
#     Edge 37, Type (0, 0), BuildingBlock: CIFDUS_clean_linker_0, # of connection points: 2
#     Edge 38, Type (0, 0), BuildingBlock: CIFDUS_clean_linker_0, # of connection points: 2
#     Edge 39, Type (0, 0), BuildingBlock: CIFDUS_clean_linker_0, # of connection points: 2
#     Edge 40, Type (0, 0), BuildingBlock: CIFDUS_clean_linker_0, # of connection points: 2
#     Edge 41, Type (0, 0), BuildingBlock: CIFDUS_clean_linker_0, # of connection points: 2
#     Edge 42, Type (0, 0), BuildingBlock: CIFDUS_clean_linker_0, # of connection points: 2
#     Edge 43, Type (0, 0), BuildingBlock: CIFDUS_clean_linker_0, # of connection points: 2
#     Edge 44, Type (0, 0), BuildingBlock: CIFDUS_clean_linker_0, # of connection points: 2
#     Edge 45, Type (0, 0), BuildingBlock: CIFDUS_clean_linker_0, # of connection points: 2
#     Edge 46, Type (0, 0), BuildingBlock: CIFDUS_clean_linker_0, # of connection points: 2
#     Edge 47, Type (0, 0), BuildingBlock: CIFDUS_clean_linker_0, # of connection points: 2
#     Edge 48, Type (0, 0), BuildingBlock: CIFDUS_clean_linker_0, # of connection points: 2
#     Edge 49, Type (0, 0), BuildingBlock: CIFDUS_clean_linker_0, # of connection points: 2
#     Edge 50, Type (0, 0), BuildingBlock: CIFDUS_clean_linker_0, # of connection points: 2
#     Edge 51, Type (0, 0), BuildingBlock: CIFDUS_clean_linker_0, # of connection points: 2
#     Edge 52, Type (0, 0), BuildingBlock: CIFDUS_clean_linker_0, # of connection points: 2
#     Edge 53, Type (0, 0), BuildingBlock: CIFDUS_clean_linker_0, # of connection points: 2
#     Edge 54, Type (0, 0), BuildingBlock: CIFDUS_clean_linker_0, # of connection points: 2
#     Edge 55, Type (0, 0), BuildingBlock: CIFDUS_clean_linker_0, # of connection points: 2
#     Edge 56, Type (0, 0), BuildingBlock: CIFDUS_clean_linker_0, # of connection points: 2
#     Edge 57, Type (0, 0), BuildingBlock: CIFDUS_clean_linker_0, # of connection points: 2
#     Edge 58, Type (0, 0), BuildingBlock: CIFDUS_clean_linker_0, # of connection points: 2
#     Edge 59, Type (0, 0), BuildingBlock: CIFDUS_clean_linker_0, # of connection points: 2
#     Edge 60, Type (0, 0), BuildingBlock: CIFDUS_clean_linker_0, # of connection points: 2
#     Edge 61, Type (0, 0), BuildingBlock: CIFDUS_clean_linker_0, # of connection points: 2
#     Edge 62, Type (0, 0), BuildingBlock: CIFDUS_clean_linker_0, # of connection points: 2
#     Edge 63, Type (0, 0), BuildingBlock: CIFDUS_clean_linker_0, # of connection points: 2
#     Edge 64, Type (0, 0), BuildingBlock: CIFDUS_clean_linker_0, # of connection points: 2
#     Edge 65, Type (0, 0), BuildingBlock: CIFDUS_clean_linker_0, # of connection points: 2
#     Edge 66, Type (0, 0), BuildingBlock: CIFDUS_clean_linker_0, # of connection points: 2
#     Edge 67, Type (0, 0), BuildingBlock: CIFDUS_clean_linker_0, # of connection points: 2
#     Edge 68, Type (0, 0), BuildingBlock: CIFDUS_clean_linker_0, # of connection points: 2
#     Edge 69, Type (0, 0), BuildingBlock: CIFDUS_clean_linker_0, # of connection points: 2
#     Edge 70, Type (0, 0), BuildingBlock: CIFDUS_clean_linker_0, # of connection points: 2
#     Edge 71, Type (0, 0), BuildingBlock: CIFDUS_clean_linker_0, # of connection points: 2
# Relax obj value: 0.073
# Max RMSD: 0.079
# Mean RMSD: 0.079
data_MOF--net-afi--node1-KUFVIS_clean_sbu_0--edge1-CIFDUS_clean_linker_0
_symmetry_space_group_name_H-M    P1
_symmetry_Int_Tables_number       1
_symmetry_cell_setting            triclinic
loop_
_symmetry_equiv_pos_as_xyz
'x, y, z'
_cell_length_a     58.581827
_cell_length_b     58.600395
_cell_length_c     34.098976
_cell_angle_alpha  90.037728
_cell_angle_beta   89.975411
_cell_angle_gamma 119.89381
loop_
_atom_site_label
_atom_site_type_symbol
_atom_site_fract_x
_atom_site_fract_y
_atom_site_fract_z
_atom_type_partial_charge
Mn0 Mn 0.47911 0.12609 0.21906 0.0
Mn1 Mn 0.52459 0.18198 0.17481 0.0
C2 C 0.52151 0.14905 0.24471 0.0
C3 C 0.45713 0.08047 0.2287 0.0
C4 C 0.48084 0.17904 0.22563 0.0
O5 O 0.46357 0.12294 0.16414 0.0
O6 O 0.4964 0.15991 0.13698 0.0
C7 C 0.54657 0.16067 0.11643 0.0
N8 N 0.55013 0.17708 0.14701 0.0
C9 C 0.59724 0.19687 0.14274 0.0
C10 C 0.5941 0.18016 0.11121 0.0
C11 C 0.56865 0.16192 0.0981 0.0
C12 C 0.57452 0.19459 0.16 0.0
H13 H 0.52704 0.14686 0.10602 0.0
C14 C 0.47419 0.13855 0.13515 0.0
O15 O 0.4465 0.09451 0.23829 0.0
O16 O 0.47995 0.09271 0.2116 0.0
N17 N 0.55305 0.20514 0.20794 0.0
C18 C 0.55252 0.21894 0.23976 0.0
C19 C 0.57629 0.23837 0.25611 0.0
C20 C 0.60029 0.24341 0.23955 0.0
C21 C 0.60037 0.22832 0.20765 0.0
C22 C 0.57605 0.20952 0.19221 0.0
H23 H 0.53412 0.2156 0.25202 0.0
O24 O 0.50146 0.13363 0.2664 0.0
O25 O 0.51611 0.15115 0.2082 0.0
O26 O 0.47084 0.15498 0.23546 0.0
O27 O 0.5002 0.19049 0.20221 0.0
C28 C 0.62357 0.23142 0.19019 0.0
C29 C 0.622 0.21553 0.15799 0.0
H30 H 0.61107 0.1811 0.09694 0.0
H31 H 0.56607 0.14899 0.07376 0.0
H32 H 0.57611 0.24983 0.2809 0.0
H33 H 0.61845 0.25924 0.25123 0.0
H34 H 0.6427 0.24583 0.20143 0.0
H35 H 0.63995 0.21783 0.14519 0.0
Mn36 Mn 0.3651 0.48104 0.20866 0.0
Mn37 Mn 0.35703 0.52967 0.17024 0.0
C38 C 0.38724 0.52293 0.23618 0.0
C39 C 0.38726 0.45723 0.21508 0.0
C40 C 0.31597 0.4862 0.22087 0.0
O41 O 0.35071 0.46682 0.15369 0.0
O42 O 0.34743 0.50131 0.13103 0.0
C43 C 0.39797 0.54974 0.10838 0.0
N44 N 0.38713 0.55407 0.14085 0.0
C45 C 0.4172 0.60075 0.13769 0.0
C46 C 0.42871 0.59681 0.10417 0.0
C47 C 0.41911 0.57118 0.08955 0.0
C48 C 0.39624 0.57863 0.1552 0.0
H49 H 0.39047 0.53009 0.09691 0.0
C50 C 0.34513 0.47852 0.12687 0.0
O51 O 0.36284 0.44736 0.22556 0.0
O52 O 0.39817 0.48011 0.1982 0.0
N53 N 0.36565 0.55828 0.20516 0.0
C54 C 0.35355 0.55833 0.23926 0.0
C55 C 0.361 0.5823 0.25812 0.0
C56 C 0.38073 0.60589 0.24167 0.0
C57 C 0.39338 0.6053 0.20708 0.0
C58 C 0.38486 0.58084 0.18933 0.0
H59 H 0.33809 0.54025 0.25168 0.0
O60 O 0.3818 0.50211 0.25649 0.0
O61 O 0.37883 0.51865 0.2 0.0
O62 O 0.32888 0.47441 0.22768 0.0
O63 O 0.32465 0.50661 0.1995 0.0
C64 C 0.41405 0.62794 0.18947 0.0
C65 C 0.42602 0.62566 0.15488 0.0
H66 H 0.44505 0.61328 0.08962 0.0
H67 H 0.42791 0.56799 0.06373 0.0
H68 H 0.35131 0.58264 0.28496 0.0
H69 H 0.38572 0.62429 0.25572 0.0
H70 H 0.4211 0.64716 0.20253 0.0
H71 H 0.44218 0.64315 0.14197 0.0
Mn72 Mn 0.90279 0.35717 0.19109 0.0
Mn73 Mn 0.84865 0.35388 0.14961 0.0
C74 C 0.88742 0.38465 0.21256 0.0
C75 C 0.94789 0.37355 0.19964 0.0
C76 C 0.8458 0.31403 0.20794 0.0
O77 O 0.90093 0.33953 0.13828 0.0
O78 O 0.86343 0.33689 0.11566 0.0
C79 C 0.87362 0.38784 0.08036 0.0
N80 N 0.85849 0.38205 0.11322 0.0
C81 C 0.84965 0.41729 0.10039 0.0
C82 C 0.86501 0.42353 0.06628 0.0
C83 C 0.87708 0.40876 0.05629 0.0
C84 C 0.84662 0.39601 0.12297 0.0
H85 H 0.88291 0.37654 0.07252 0.0
C86 C 0.88282 0.33267 0.11246 0.0
O87 O 0.93059 0.3502 0.21133 0.0
O88 O 0.93922 0.38687 0.18052 0.0
N89 N 0.83256 0.36991 0.17902 0.0
C90 C 0.82083 0.36316 0.21492 0.0
C91 C 0.80918 0.37711 0.2305 0.0
C92 C 0.80948 0.39765 0.20885 0.0
C93 C 0.82161 0.40419 0.17192 0.0
C94 C 0.83286 0.38956 0.15786 0.0
H95 H 0.8206 0.3474 0.23167 0.0
O96 O 0.90075 0.37805 0.23575 0.0
O97 O 0.88252 0.37424 0.17764 0.0
O98 O 0.87052 0.32383 0.21195 0.0
O99 O 0.83542 0.32401 0.1862 0.0
C100 C 0.82381 0.42525 0.14915 0.0
C101 C 0.83779 0.43178 0.11339 0.0
H102 H 0.86791 0.43979 0.0478 0.0
H103 H 0.88906 0.41353 0.03012 0.0
H104 H 0.80003 0.37208 0.25915 0.0
H105 H 0.80065 0.40851 0.22103 0.0
H106 H 0.81531 0.43692 0.15927 0.0
H107 H 0.83977 0.44832 0.09651 0.0
Mn108 Mn 0.55769 0.89471 0.21447 0.0
Mn109 Mn 0.51154 0.84107 0.16636 0.0
C110 C 0.51525 0.87136 0.23995 0.0
C111 C 0.57972 0.93994 0.22796 0.0
C112 C 0.55586 0.84163 0.21286 0.0
O113 O 0.57302 0.89984 0.15911 0.0
O114 O 0.53964 0.86444 0.12928 0.0
C115 C 0.48925 0.86429 0.11202 0.0
N116 N 0.48587 0.84705 0.14122 0.0
C117 C 0.43876 0.82773 0.13856 0.0
C118 C 0.44171 0.8453 0.10845 0.0
C119 C 0.46707 0.86371 0.09522 0.0
C120 C 0.46156 0.82924 0.15415 0.0
H121 H 0.50871 0.87825 0.10152 0.0
C122 C 0.56217 0.88553 0.12892 0.0
O123 O 0.59042 0.92563 0.23531 0.0
O124 O 0.55686 0.92826 0.21099 0.0
N125 N 0.48333 0.81698 0.19908 0.0
C126 C 0.48413 0.80264 0.22992 0.0
C127 C 0.4605 0.78355 0.24709 0.0
C128 C 0.43636 0.77941 0.2323 0.0
C129 C 0.43606 0.79489 0.20116 0.0
C130 C 0.46024 0.81341 0.18497 0.0
H131 H 0.50264 0.80547 0.24096 0.0
O132 O 0.53543 0.88544 0.26227 0.0
O133 O 0.5206 0.87055 0.20296 0.0
O134 O 0.56598 0.86504 0.22603 0.0
O135 O 0.53603 0.8314 0.19015 0.0
C136 C 0.41278 0.79264 0.18543 0.0
C137 C 0.41413 0.80911 0.15424 0.0
H138 H 0.42467 0.84496 0.09548 0.0
H139 H 0.4695 0.87732 0.07199 0.0
H140 H 0.46086 0.77178 0.27127 0.0
H141 H 0.41825 0.76406 0.24484 0.0
H142 H 0.39375 0.77849 0.19733 0.0
H143 H 0.39613 0.80746 0.14278 0.0
Mn144 Mn 0.67733 0.54727 0.20982 0.0
Mn145 Mn 0.68302 0.49824 0.16733 0.0
C146 C 0.65567 0.50522 0.23705 0.0
C147 C 0.65525 0.57113 0.21861 0.0
C148 C 0.7268 0.54204 0.21445 0.0
O149 O 0.68989 0.56143 0.15429 0.0
O150 O 0.69081 0.52632 0.12848 0.0
C151 C 0.63929 0.47774 0.10998 0.0
N152 N 0.65155 0.47365 0.14084 0.0
C153 C 0.62139 0.42696 0.13925 0.0
C154 C 0.60841 0.43065 0.10741 0.0
C155 C 0.61734 0.45615 0.09283 0.0
C156 C 0.6431 0.4492 0.15516 0.0
H157 H 0.6463 0.4973 0.09849 0.0
C158 C 0.69365 0.5494 0.12589 0.0
O159 O 0.67991 0.58108 0.22785 0.0
O160 O 0.64399 0.54809 0.20227 0.0
N161 N 0.67601 0.46992 0.20197 0.0
C162 C 0.68962 0.47016 0.23448 0.0
C163 C 0.68291 0.44635 0.25328 0.0
C164 C 0.66239 0.42263 0.23835 0.0
C165 C 0.64826 0.42294 0.20534 0.0
C166 C 0.65601 0.44725 0.18767 0.0
H167 H 0.70568 0.48834 0.24566 0.0
O168 O 0.662 0.52597 0.25816 0.0
O169 O 0.66305 0.50973 0.20045 0.0
O170 O 0.71436 0.55379 0.22481 0.0
O171 O 0.71679 0.52157 0.19298 0.0
C172 C 0.62687 0.40016 0.18921 0.0
C173 C 0.61336 0.40219 0.15631 0.0
H174 H 0.59145 0.41407 0.09414 0.0
H175 H 0.6074 0.45915 0.06831 0.0
H176 H 0.69375 0.44623 0.2789 0.0
H177 H 0.65792 0.40435 0.25237 0.0
H178 H 0.62049 0.38102 0.20201 0.0
H179 H 0.59668 0.3846 0.14459 0.0
Mn180 Mn 0.13421 0.6725 0.19175 0.0
Mn181 Mn 0.18382 0.67258 0.14032 0.0
C182 C 0.15133 0.64615 0.21157 0.0
C183 C 0.0898 0.65638 0.20706 0.0
C184 C 0.19176 0.71722 0.19354 0.0
O185 O 0.13137 0.68666 0.13811 0.0
O186 O 0.16471 0.6852 0.1068 0.0
C187 C 0.1539 0.63202 0.08021 0.0
N188 N 0.1718 0.64125 0.10994 0.0
C189 C 0.18111 0.60592 0.10139 0.0
C190 C 0.16286 0.5961 0.07056 0.0
C191 C 0.14916 0.60918 0.06 0.0
C192 C 0.18532 0.62899 0.12008 0.0
H193 H 0.14336 0.64204 0.07196 0.0
C194 C 0.1456 0.68996 0.1078 0.0
O195 O 0.1077 0.68025 0.21565 0.0
O196 O 0.09742 0.64221 0.18784 0.0
N197 N 0.20343 0.66033 0.16968 0.0
C198 C 0.21789 0.67057 0.20293 0.0
C199 C 0.23135 0.65862 0.21926 0.0
C200 C 0.22991 0.6364 0.20113 0.0
C201 C 0.21486 0.62621 0.16697 0.0
C202 C 0.20193 0.63898 0.15197 0.0
H203 H 0.21894 0.68758 0.21702 0.0
O204 O 0.14015 0.65417 0.23666 0.0
O205 O 0.15321 0.6547 0.17581 0.0
O206 O 0.16802 0.70713 0.20521 0.0
O207 O 0.19951 0.70588 0.16954 0.0
C208 C 0.21146 0.60336 0.14796 0.0
C209 C 0.19467 0.59328 0.11512 0.0
H210 H 0.15893 0.57833 0.05515 0.0
H211 H 0.13491 0.60161 0.03642 0.0
H212 H 0.24275 0.66646 0.24583 0.0
H213 H 0.24015 0.62712 0.21395 0.0
H214 H 0.22123 0.59308 0.15887 0.0
H215 H 0.19182 0.57541 0.10124 0.0
Mn216 Mn 0.90239 0.55163 0.32148 0.0
Mn217 Mn 0.85111 0.50407 0.37228 0.0
C218 C 0.8824 0.50823 0.3003 0.0
C219 C 0.94736 0.5758 0.30599 0.0
C220 C 0.8466 0.54408 0.32156 0.0
O221 O 0.90703 0.56837 0.37576 0.0
O222 O 0.87251 0.53468 0.40687 0.0
C223 C 0.87828 0.48874 0.43091 0.0
N224 N 0.86071 0.48212 0.40095 0.0
C225 C 0.84821 0.43639 0.40622 0.0
C226 C 0.86614 0.44272 0.43718 0.0
C227 C 0.88123 0.46901 0.44957 0.0
C228 C 0.84577 0.45682 0.38921 0.0
H229 H 0.88991 0.50891 0.44053 0.0
C230 C 0.89288 0.55778 0.40623 0.0
O231 O 0.93156 0.58468 0.29773 0.0
O232 O 0.93737 0.55388 0.32534 0.0
N233 N 0.82952 0.4734 0.34157 0.0
C234 C 0.81518 0.4711 0.30885 0.0
C235 C 0.80007 0.44629 0.29128 0.0
C236 C 0.79986 0.42417 0.30754 0.0
C237 C 0.81496 0.42708 0.34102 0.0
C238 C 0.82947 0.45224 0.35743 0.0
H239 H 0.81539 0.48809 0.29619 0.0
O240 O 0.8943 0.52757 0.27572 0.0
O241 O 0.88113 0.5149 0.33634 0.0
O242 O 0.87031 0.55623 0.30914 0.0
O243 O 0.83788 0.52461 0.34491 0.0
C244 C 0.81668 0.40612 0.3582 0.0
C245 C 0.83324 0.41076 0.39083 0.0
H246 H 0.86871 0.42761 0.45135 0.0
H247 H 0.89514 0.47404 0.47339 0.0
H248 H 0.78865 0.44423 0.26523 0.0
H249 H 0.78823 0.40508 0.29387 0.0
H250 H 0.80568 0.38644 0.34613 0.0
H251 H 0.83473 0.39458 0.40337 0.0
Mn252 Mn 0.35693 0.88712 0.31606 0.0
Mn253 Mn 0.35472 0.83407 0.35919 0.0
C254 C 0.38084 0.8689 0.2894 0.0
C255 C 0.37472 0.93236 0.30652 0.0
C256 C 0.31016 0.83088 0.31044 0.0
O257 O 0.34368 0.88804 0.37138 0.0
O258 O 0.3441 0.85272 0.39713 0.0
C259 C 0.39689 0.85954 0.4187 0.0
N260 N 0.38624 0.84308 0.38745 0.0
C261 C 0.41842 0.82908 0.39206 0.0
C262 C 0.42976 0.84589 0.42432 0.0
C263 C 0.419 0.86124 0.43759 0.0
C264 C 0.39642 0.8282 0.37448 0.0
H265 H 0.38844 0.8711 0.42923 0.0
C266 C 0.34004 0.87223 0.39962 0.0
O267 O 0.35044 0.91568 0.29782 0.0
O268 O 0.38843 0.92297 0.32249 0.0
N269 N 0.36453 0.81432 0.32567 0.0
C270 C 0.3526 0.80098 0.29223 0.0
C271 C 0.3617 0.78557 0.27396 0.0
C272 C 0.38277 0.78391 0.29047 0.0
C273 C 0.39498 0.79812 0.32461 0.0
C274 C 0.38499 0.81307 0.34156 0.0
H275 H 0.3362 0.80202 0.27975 0.0
O276 O 0.37338 0.88232 0.268 0.0
O277 O 0.37354 0.86588 0.3261 0.0
O278 O 0.32122 0.85511 0.30113 0.0
O279 O 0.32101 0.82125 0.33188 0.0
C280 C 0.41677 0.79822 0.3423 0.0
C281 C 0.42843 0.81363 0.37608 0.0
H282 H 0.44685 0.84733 0.4389 0.0
H283 H 0.42765 0.87426 0.46246 0.0
H284 H 0.35233 0.77477 0.24746 0.0
H285 H 0.38929 0.77158 0.27675 0.0
H286 H 0.42493 0.78681 0.32984 0.0
H287 H 0.44544 0.81389 0.38905 0.0
Mn288 Mn 0.47703 0.35502 0.31122 0.0
Mn289 Mn 0.52499 0.3481 0.35529 0.0
C290 C 0.51931 0.37579 0.28478 0.0
C291 C 0.4516 0.37502 0.30015 0.0
C292 C 0.48176 0.30525 0.30661 0.0
O293 O 0.46277 0.34376 0.36712 0.0
O294 O 0.49675 0.34112 0.39351 0.0
C295 C 0.5456 0.39169 0.41303 0.0
N296 N 0.54972 0.37925 0.3824 0.0
C297 C 0.59662 0.4081 0.38604 0.0
C298 C 0.5929 0.42123 0.41765 0.0
C299 C 0.56727 0.41306 0.43108 0.0
C300 C 0.57429 0.387 0.3692 0.0
H301 H 0.52595 0.38524 0.42372 0.0
C302 C 0.47428 0.33975 0.39599 0.0
O303 O 0.44286 0.35039 0.29257 0.0
O304 O 0.4749 0.38809 0.31573 0.0
N305 N 0.55364 0.3546 0.32163 0.0
C306 C 0.55354 0.3411 0.28903 0.0
C307 C 0.57749 0.34728 0.27114 0.0
C308 C 0.60122 0.36714 0.28708 0.0
C309 C 0.60081 0.38117 0.32014 0.0
C310 C 0.57635 0.37399 0.33687 0.0
H311 H 0.53534 0.32555 0.27703 0.0
O312 O 0.49882 0.36969 0.26307 0.0
O313 O 0.51448 0.3689 0.32156 0.0
O314 O 0.47055 0.31823 0.29704 0.0
O315 O 0.50176 0.3144 0.32895 0.0
C316 C 0.62365 0.40198 0.33715 0.0
C317 C 0.62155 0.41546 0.37005 0.0
H318 H 0.60954 0.43775 0.43161 0.0
H319 H 0.56424 0.42311 0.45543 0.0
H320 H 0.57771 0.33653 0.24546 0.0
H321 H 0.61959 0.37122 0.27381 0.0
H322 H 0.64289 0.40796 0.32493 0.0
H323 H 0.63921 0.43169 0.38247 0.0
Mn324 Mn 0.13429 0.47699 0.31474 0.0
Mn325 Mn 0.18832 0.52319 0.36251 0.0
C326 C 0.15423 0.5206 0.29499 0.0
C327 C 0.08906 0.45298 0.30159 0.0
C328 C 0.18972 0.4842 0.30589 0.0
O329 O 0.1314 0.45944 0.36784 0.0
O330 O 0.1683 0.49174 0.39635 0.0
C331 C 0.16395 0.53702 0.42763 0.0
N332 N 0.18032 0.54443 0.396 0.0
C333 C 0.19385 0.59007 0.40639 0.0
C334 C 0.17722 0.58293 0.43917 0.0
C335 C 0.16219 0.55629 0.44979 0.0
C336 C 0.19517 0.57006 0.38585 0.0
H337 H 0.15235 0.51658 0.43593 0.0
C338 C 0.14729 0.46911 0.39684 0.0
O339 O 0.10475 0.44438 0.29133 0.0
O340 O 0.0993 0.47454 0.32204 0.0
N341 N 0.2088 0.5547 0.33292 0.0
C342 C 0.2214 0.55785 0.29805 0.0
C343 C 0.23586 0.58313 0.28169 0.0
C344 C 0.23729 0.60486 0.3014 0.0
C345 C 0.22406 0.6011 0.33718 0.0
C346 C 0.21005 0.57547 0.35215 0.0
H347 H 0.22021 0.54116 0.28271 0.0
O348 O 0.14102 0.50154 0.27042 0.0
O349 O 0.15668 0.5136 0.33034 0.0
O350 O 0.16532 0.47223 0.29735 0.0
O351 O 0.20017 0.50344 0.3297 0.0
C352 C 0.22355 0.62163 0.35793 0.0
C353 C 0.20852 0.61614 0.39257 0.0
H354 H 0.17557 0.5977 0.45609 0.0
H355 H 0.14922 0.55062 0.47493 0.0
H356 H 0.24582 0.58584 0.25389 0.0
H357 H 0.2483 0.6243 0.28856 0.0
H358 H 0.23423 0.64166 0.34708 0.0
H359 H 0.2079 0.63203 0.40786 0.0
Mn360 Mn 0.68006 0.13269 0.31649 0.0
Mn361 Mn 0.68329 0.18672 0.35789 0.0
C362 C 0.65536 0.15027 0.29059 0.0
C363 C 0.66244 0.08732 0.30875 0.0
C364 C 0.72584 0.1891 0.30512 0.0
O365 O 0.69504 0.13317 0.37111 0.0
O366 O 0.69593 0.16951 0.3951 0.0
C367 C 0.64354 0.16175 0.42089 0.0
N368 N 0.65281 0.17775 0.38894 0.0
C369 C 0.62003 0.19077 0.39616 0.0
C370 C 0.61013 0.17446 0.4292 0.0
C371 C 0.62187 0.15981 0.4415 0.0
C372 C 0.64161 0.19186 0.37679 0.0
H373 H 0.65272 0.15069 0.43065 0.0
C374 C 0.69991 0.15001 0.39833 0.0
O375 O 0.68639 0.10399 0.29848 0.0
O376 O 0.64901 0.09683 0.32538 0.0
N377 N 0.67164 0.20534 0.32534 0.0
C378 C 0.68228 0.21836 0.29117 0.0
C379 C 0.67222 0.23326 0.274 0.0
C380 C 0.65156 0.23474 0.29236 0.0
C381 C 0.64067 0.22088 0.32721 0.0
C382 C 0.6516 0.20648 0.34305 0.0
H383 H 0.6984 0.21751 0.27727 0.0
O384 O 0.66205 0.13621 0.26922 0.0
O385 O 0.66361 0.15406 0.32684 0.0
O386 O 0.71497 0.16448 0.2985 0.0
O387 O 0.71567 0.19924 0.32701 0.0
C388 C 0.61933 0.22063 0.34671 0.0
C389 C 0.60903 0.2056 0.3812 0.0
H390 H 0.5934 0.17287 0.44515 0.0
H391 H 0.61431 0.14713 0.4669 0.0
H392 H 0.68058 0.24382 0.24696 0.0
H393 H 0.64437 0.24672 0.27953 0.0
H394 H 0.61045 0.2316 0.33512 0.0
H395 H 0.59233 0.20519 0.39557 0.0
Mn396 Mn 0.56493 0.67469 0.31024 0.0
Mn397 Mn 0.51607 0.6774 0.35927 0.0
C398 C 0.52237 0.65366 0.28451 0.0
C399 C 0.59098 0.65565 0.29594 0.0
C400 C 0.55895 0.72363 0.31483 0.0
O401 O 0.57947 0.68433 0.36627 0.0
O402 O 0.54424 0.68266 0.39634 0.0
C403 C 0.49545 0.63092 0.41145 0.0
N404 N 0.49141 0.64471 0.38281 0.0
C405 C 0.4445 0.61567 0.38531 0.0
C406 C 0.44814 0.60111 0.41481 0.0
C407 C 0.47373 0.6087 0.42779 0.0
C408 C 0.46687 0.63755 0.37008 0.0
H409 H 0.51506 0.63699 0.42191 0.0
C410 C 0.56744 0.68567 0.39675 0.0
O411 O 0.59932 0.68041 0.28988 0.0
O412 O 0.56774 0.64196 0.31144 0.0
N413 N 0.48762 0.67248 0.32643 0.0
C414 C 0.48785 0.68765 0.29602 0.0
C415 C 0.46397 0.68225 0.27867 0.0
C416 C 0.44019 0.66147 0.29296 0.0
C417 C 0.44049 0.64577 0.32377 0.0
C418 C 0.4649 0.65217 0.33997 0.0
H419 H 0.50607 0.70391 0.28539 0.0
O420 O 0.54279 0.66116 0.262 0.0
O421 O 0.52746 0.65933 0.3216 0.0
O422 O 0.57031 0.7118 0.30054 0.0
O423 O 0.53919 0.71255 0.33756 0.0
C424 C 0.41762 0.6241 0.33914 0.0
C425 C 0.41962 0.60904 0.36986 0.0
H426 H 0.43146 0.58394 0.42746 0.0
H427 H 0.47669 0.59757 0.45056 0.0
H428 H 0.46385 0.69432 0.25475 0.0
H429 H 0.4219 0.65804 0.28021 0.0
H430 H 0.39842 0.61872 0.32741 0.0
H431 H 0.40194 0.59221 0.38104 0.0
Mn432 Mn 0.56109 0.8899 0.82327 0.0
Mn433 Mn 0.51012 0.84038 0.87227 0.0
C434 C 0.51811 0.87439 0.80235 0.0
C435 C 0.58976 0.93444 0.80911 0.0
C436 C 0.54693 0.83185 0.82 0.0
O437 O 0.57719 0.89145 0.87734 0.0
O438 O 0.54144 0.858 0.90665 0.0
C439 C 0.49993 0.87003 0.93353 0.0
N440 N 0.49123 0.85283 0.90289 0.0
C441 C 0.44704 0.84499 0.91054 0.0
C442 C 0.45552 0.86259 0.94224 0.0
C443 C 0.48208 0.87517 0.95376 0.0
C444 C 0.46563 0.84033 0.8919 0.0
H445 H 0.52031 0.87971 0.94252 0.0
C446 C 0.56549 0.87661 0.90679 0.0
O447 O 0.59574 0.91651 0.80039 0.0
O448 O 0.56796 0.9268 0.82815 0.0
N449 N 0.47862 0.82222 0.84187 0.0
C450 C 0.47436 0.80808 0.80826 0.0
C451 C 0.44915 0.79547 0.79135 0.0
C452 C 0.42861 0.79747 0.80926 0.0
C453 C 0.43353 0.81228 0.8437 0.0
C454 C 0.459 0.82428 0.85932 0.0
H455 H 0.49015 0.80657 0.79441 0.0
O456 O 0.53762 0.8852 0.77778 0.0
O457 O 0.52417 0.87161 0.83806 0.0
O458 O 0.56141 0.85572 0.80931 0.0
O459 O 0.5273 0.8243 0.84284 0.0
C460 C 0.41433 0.81618 0.86255 0.0
C461 C 0.42107 0.83248 0.896 0.0
H462 H 0.44188 0.86681 0.95767 0.0
H463 H 0.48877 0.8888 0.97816 0.0
H464 H 0.44555 0.78424 0.76459 0.0
H465 H 0.4092 0.78774 0.79617 0.0
H466 H 0.39445 0.80714 0.85113 0.0
H467 H 0.40626 0.8357 0.90981 0.0
Mn468 Mn 0.67961 0.55387 0.81513 0.0
Mn469 Mn 0.68026 0.50388 0.86366 0.0
C470 C 0.65805 0.51162 0.78823 0.0
C471 C 0.6616 0.58071 0.8003 0.0
C472 C 0.72776 0.54671 0.82122 0.0
O473 O 0.68866 0.56776 0.87155 0.0
O474 O 0.68523 0.53168 0.90136 0.0
C475 C 0.63271 0.48316 0.91363 0.0
N476 N 0.64696 0.47925 0.88559 0.0
C477 C 0.61736 0.43243 0.88634 0.0
C478 C 0.60231 0.43594 0.91521 0.0
C479 C 0.60995 0.46142 0.92876 0.0
C480 C 0.63974 0.45482 0.87226 0.0
H481 H 0.63881 0.50269 0.92454 0.0
C482 C 0.68894 0.55514 0.902 0.0
O483 O 0.68639 0.58872 0.7952 0.0
O484 O 0.64735 0.55744 0.8154 0.0
N485 N 0.6756 0.47577 0.83022 0.0
C486 C 0.69142 0.47613 0.80067 0.0
C487 C 0.68631 0.45236 0.78326 0.0
C488 C 0.66511 0.42854 0.79657 0.0
C489 C 0.64864 0.42872 0.82632 0.0
C490 C 0.65484 0.45301 0.84273 0.0
H491 H 0.70806 0.49437 0.79089 0.0
O492 O 0.66649 0.5324 0.76628 0.0
O493 O 0.66323 0.51617 0.82555 0.0
O494 O 0.71652 0.55851 0.80647 0.0
O495 O 0.71599 0.52686 0.8436 0.0
C496 C 0.62647 0.40581 0.84055 0.0
C497 C 0.61079 0.40767 0.87045 0.0
H498 H 0.58475 0.41924 0.92695 0.0
H499 H 0.59843 0.46427 0.95102 0.0
H500 H 0.69897 0.45234 0.76015 0.0
H501 H 0.662 0.4103 0.78403 0.0
H502 H 0.6212 0.38669 0.82856 0.0
H503 H 0.59359 0.38997 0.88075 0.0
Mn504 Mn 0.14072 0.67624 0.80549 0.0
Mn505 Mn 0.19318 0.67862 0.85089 0.0
C506 C 0.15886 0.65178 0.78101 0.0
C507 C 0.09552 0.65872 0.7947 0.0
C508 C 0.19832 0.72093 0.79575 0.0
O509 O 0.13929 0.69076 0.85943 0.0
O510 O 0.17667 0.69438 0.88362 0.0
C511 C 0.1637 0.64186 0.91561 0.0
N512 N 0.18115 0.64912 0.88535 0.0
C513 C 0.19108 0.61497 0.90094 0.0
C514 C 0.17332 0.60721 0.93238 0.0
C515 C 0.15946 0.62063 0.93959 0.0
C516 C 0.19438 0.6362 0.87794 0.0
H517 H 0.1532 0.65227 0.92154 0.0
C518 C 0.15677 0.69774 0.8861 0.0
O519 O 0.11249 0.68275 0.78514 0.0
O520 O 0.10461 0.64521 0.81211 0.0
N521 N 0.21155 0.66402 0.82396 0.0
C522 C 0.22666 0.67291 0.79105 0.0
C523 C 0.24132 0.66111 0.77912 0.0
C524 C 0.24056 0.6406 0.80151 0.0
C525 C 0.22474 0.63168 0.83506 0.0
C526 C 0.21065 0.64422 0.84558 0.0
H527 H 0.22765 0.68903 0.77429 0.0
O528 O 0.14561 0.65898 0.75879 0.0
O529 O 0.16145 0.65924 0.81767 0.0
O530 O 0.17365 0.71131 0.79008 0.0
O531 O 0.20799 0.70979 0.81663 0.0
C532 C 0.22231 0.61073 0.85838 0.0
C533 C 0.20544 0.60234 0.89125 0.0
H534 H 0.17004 0.59088 0.95102 0.0
H535 H 0.14566 0.61472 0.96371 0.0
H536 H 0.25346 0.66804 0.75309 0.0
H537 H 0.2523 0.63189 0.79299 0.0
H538 H 0.23302 0.60067 0.85092 0.0
H539 H 0.2034 0.58594 0.90858 0.0
Mn540 Mn 0.48165 0.13574 0.82807 0.0
Mn541 Mn 0.53294 0.18485 0.87707 0.0
C542 C 0.52461 0.15105 0.80681 0.0
C543 C 0.45271 0.0913 0.81336 0.0
C544 C 0.49641 0.19405 0.82514 0.0
O545 O 0.46564 0.13411 0.88236 0.0
O546 O 0.50148 0.16765 0.91131 0.0
C547 C 0.54222 0.1545 0.93815 0.0
N548 N 0.5513 0.17185 0.90772 0.0
C549 C 0.59518 0.1789 0.91569 0.0
C550 C 0.58631 0.16116 0.94719 0.0
C551 C 0.55971 0.1489 0.95844 0.0
C552 C 0.57693 0.18403 0.89697 0.0
H553 H 0.5218 0.14506 0.94692 0.0
C554 C 0.4774 0.1491 0.91168 0.0
O555 O 0.44688 0.10939 0.80511 0.0
O556 O 0.47449 0.0987 0.83231 0.0
N557 N 0.56463 0.20271 0.84697 0.0
C558 C 0.56926 0.21705 0.81351 0.0
C559 C 0.59456 0.22938 0.79686 0.0
C560 C 0.61479 0.22693 0.81491 0.0
C561 C 0.60949 0.21196 0.84922 0.0
C562 C 0.58395 0.20024 0.86458 0.0
H563 H 0.55372 0.21891 0.79956 0.0
O564 O 0.50505 0.14047 0.78233 0.0
O565 O 0.51864 0.15371 0.84265 0.0
O566 O 0.48154 0.17015 0.81478 0.0
O567 O 0.51627 0.20139 0.84747 0.0
C568 C 0.62835 0.2076 0.86817 0.0
C569 C 0.62121 0.19113 0.90143 0.0
H570 H 0.59967 0.15658 0.96267 0.0
H571 H 0.55271 0.13515 0.98267 0.0
H572 H 0.59846 0.24074 0.77019 0.0
H573 H 0.63426 0.23643 0.80202 0.0
H574 H 0.64827 0.21642 0.85696 0.0
H575 H 0.63576 0.18755 0.91532 0.0
Mn576 Mn 0.35947 0.47021 0.81676 0.0
Mn577 Mn 0.36098 0.52163 0.8647 0.0
C578 C 0.38164 0.51209 0.78935 0.0
C579 C 0.37659 0.44264 0.80071 0.0
C580 C 0.3136 0.48183 0.81913 0.0
O581 O 0.35043 0.45629 0.87307 0.0
O582 O 0.35052 0.49137 0.90043 0.0
C583 C 0.40487 0.53424 0.91969 0.0
N584 N 0.39369 0.54196 0.89148 0.0
C585 C 0.42694 0.5874 0.8996 0.0
C586 C 0.43879 0.57995 0.9288 0.0
C587 C 0.42778 0.55324 0.93873 0.0
C588 C 0.40421 0.56758 0.88155 0.0
H589 H 0.39626 0.51378 0.9278 0.0
C590 C 0.34741 0.46818 0.9023 0.0
O591 O 0.35181 0.43503 0.79632 0.0
O592 O 0.39119 0.46572 0.81615 0.0
N593 N 0.37107 0.55267 0.83449 0.0
C594 C 0.35842 0.55623 0.80363 0.0
C595 C 0.36759 0.58173 0.78893 0.0
C596 C 0.38941 0.60325 0.80648 0.0
C597 C 0.40228 0.59906 0.83788 0.0
C598 C 0.39224 0.57325 0.85128 0.0
H599 H 0.34132 0.53974 0.79064 0.0
O600 O 0.37238 0.4911 0.76772 0.0
O601 O 0.37717 0.50814 0.82696 0.0
O602 O 0.32296 0.46714 0.80903 0.0
O603 O 0.32644 0.50282 0.83908 0.0
C604 C 0.42473 0.61946 0.8563 0.0
C605 C 0.43704 0.61364 0.88719 0.0
H606 H 0.45646 0.59455 0.94357 0.0
H607 H 0.43683 0.54734 0.96121 0.0
H608 H 0.35764 0.58484 0.76453 0.0
H609 H 0.39608 0.62297 0.79583 0.0
H610 H 0.43291 0.63964 0.84658 0.0
H611 H 0.45455 0.62942 0.90069 0.0
Mn612 Mn 0.90275 0.35097 0.80432 0.0
Mn613 Mn 0.84904 0.34558 0.85025 0.0
C614 C 0.88274 0.37394 0.78022 0.0
C615 C 0.94818 0.36995 0.79355 0.0
C616 C 0.84723 0.3028 0.79842 0.0
O617 O 0.90501 0.33769 0.85907 0.0
O618 O 0.86953 0.33658 0.88708 0.0
C619 C 0.87363 0.38789 0.90979 0.0
N620 N 0.8568 0.37657 0.87911 0.0
C621 C 0.84046 0.40681 0.88547 0.0
C622 C 0.85762 0.41881 0.91716 0.0
C623 C 0.87435 0.40939 0.92924 0.0
C624 C 0.84068 0.38554 0.86717 0.0
H625 H 0.88626 0.38047 0.91946 0.0
C626 C 0.88984 0.33379 0.88838 0.0
O627 O 0.93179 0.34573 0.7843 0.0
O628 O 0.93842 0.38306 0.81051 0.0
N629 N 0.82761 0.35393 0.81803 0.0
C630 C 0.81373 0.34133 0.78528 0.0
C631 C 0.79643 0.34868 0.76879 0.0
C632 C 0.79354 0.36878 0.78626 0.0
C633 C 0.80853 0.38193 0.81939 0.0
C634 C 0.82526 0.37357 0.83472 0.0
H635 H 0.81558 0.32556 0.77214 0.0
O636 O 0.89662 0.36765 0.75763 0.0
O637 O 0.88037 0.36605 0.81654 0.0
O638 O 0.87138 0.31512 0.78843 0.0
O639 O 0.83729 0.3122 0.82213 0.0
C640 C 0.80751 0.40293 0.83784 0.0
C641 C 0.8235 0.4154 0.87082 0.0
H642 H 0.85825 0.4354 0.93222 0.0
H643 H 0.88767 0.41858 0.95362 0.0
H644 H 0.78504 0.33861 0.74305 0.0
H645 H 0.77953 0.37366 0.77415 0.0
H646 H 0.79471 0.40984 0.82669 0.0
H647 H 0.82286 0.43179 0.88438 0.0
Mn648 Mn 0.14154 0.47847 0.70235 0.0
Mn649 Mn 0.19558 0.5277 0.65909 0.0
C650 C 0.16173 0.52059 0.72923 0.0
C651 C 0.09584 0.45426 0.71292 0.0
C652 C 0.19758 0.48663 0.70983 0.0
O653 O 0.13931 0.46351 0.64721 0.0
O654 O 0.17716 0.497 0.62367 0.0
C655 C 0.16856 0.54082 0.59713 0.0
N656 N 0.18581 0.54846 0.62767 0.0
C657 C 0.19885 0.59398 0.61762 0.0
C658 C 0.18128 0.58663 0.58598 0.0
C659 C 0.16598 0.55992 0.57583 0.0
C660 C 0.20049 0.57406 0.63784 0.0
H661 H 0.15696 0.52034 0.58899 0.0
C662 C 0.15665 0.47427 0.62032 0.0
O663 O 0.11095 0.44464 0.72168 0.0
O664 O 0.10704 0.47704 0.69586 0.0
N665 N 0.21564 0.55899 0.68921 0.0
C666 C 0.23043 0.56255 0.72186 0.0
C667 C 0.2467 0.58814 0.73623 0.0
C668 C 0.2477 0.60973 0.71669 0.0
C669 C 0.23194 0.60553 0.6836 0.0
C670 C 0.21637 0.57965 0.67038 0.0
H671 H 0.23009 0.54601 0.73641 0.0
O672 O 0.14776 0.49986 0.75048 0.0
O673 O 0.16415 0.51617 0.69233 0.0
O674 O 0.17285 0.47293 0.7164 0.0
O675 O 0.20819 0.50792 0.69012 0.0
C676 C 0.23113 0.62601 0.66316 0.0
C677 C 0.21453 0.62023 0.63025 0.0
H678 H 0.17925 0.6013 0.56946 0.0
H679 H 0.15233 0.55408 0.55153 0.0
H680 H 0.25874 0.59126 0.76195 0.0
H681 H 0.26078 0.6295 0.72709 0.0
H682 H 0.24296 0.64623 0.67278 0.0
H683 H 0.21377 0.63609 0.61514 0.0
Mn684 Mn 0.67184 0.12353 0.70304 0.0
Mn685 Mn 0.68008 0.17828 0.65662 0.0
C686 C 0.64777 0.14325 0.7228 0.0
C687 C 0.6509 0.07797 0.71407 0.0
C688 C 0.71962 0.17896 0.71425 0.0
O689 O 0.68758 0.12166 0.6502 0.0
O690 O 0.69216 0.15882 0.62274 0.0
C691 C 0.64272 0.15436 0.59054 0.0
N692 N 0.65131 0.17056 0.62237 0.0
C693 C 0.61957 0.18451 0.61095 0.0
C694 C 0.61048 0.16807 0.57793 0.0
C695 C 0.62208 0.1529 0.56774 0.0
C696 C 0.64048 0.18546 0.63221 0.0
H697 H 0.65159 0.14269 0.58254 0.0
C698 C 0.69411 0.13799 0.62175 0.0
O699 O 0.67486 0.09363 0.72553 0.0
O700 O 0.6397 0.08851 0.69398 0.0
N701 N 0.66858 0.19848 0.68609 0.0
C702 C 0.6777 0.21101 0.72107 0.0
C703 C 0.66699 0.22578 0.73683 0.0
C704 C 0.64714 0.2276 0.71638 0.0
C705 C 0.638 0.21443 0.68052 0.0
C706 C 0.64952 0.20013 0.66614 0.0
H707 H 0.69292 0.2096 0.73689 0.0
O708 O 0.65302 0.12941 0.74707 0.0
O709 O 0.65778 0.14621 0.68776 0.0
O710 O 0.70717 0.15445 0.72208 0.0
O711 O 0.71117 0.18971 0.69037 0.0
C712 C 0.6174 0.21431 0.65903 0.0
C713 C 0.60823 0.1994 0.62424 0.0
H714 H 0.59439 0.16668 0.56047 0.0
H715 H 0.61508 0.14006 0.54243 0.0
H716 H 0.67402 0.23573 0.76467 0.0
H717 H 0.63886 0.23894 0.72863 0.0
H718 H 0.60814 0.22522 0.66942 0.0
H719 H 0.59205 0.19908 0.60838 0.0
Mn720 Mn 0.55459 0.66548 0.70201 0.0
Mn721 Mn 0.50468 0.66923 0.65878 0.0
C722 C 0.51276 0.64345 0.72934 0.0
C723 C 0.57922 0.64443 0.71271 0.0
C724 C 0.54531 0.7127 0.70918 0.0
O725 O 0.56928 0.67792 0.64696 0.0
O726 O 0.53557 0.68204 0.62342 0.0
C727 C 0.49241 0.62942 0.5966 0.0
N728 N 0.48443 0.63868 0.62722 0.0
C729 C 0.43914 0.60567 0.61696 0.0
C730 C 0.44684 0.59582 0.58522 0.0
C731 C 0.47361 0.60769 0.5751 0.0
C732 C 0.45875 0.62737 0.63727 0.0
H733 H 0.51293 0.63863 0.5885 0.0
C734 C 0.55842 0.68441 0.62016 0.0
O735 O 0.58868 0.66914 0.72126 0.0
O736 O 0.55641 0.63267 0.69574 0.0
N737 N 0.47323 0.65742 0.68883 0.0
C738 C 0.4694 0.66802 0.72202 0.0
C739 C 0.44378 0.65776 0.73698 0.0
C740 C 0.42244 0.63698 0.71737 0.0
C741 C 0.42691 0.62626 0.6835 0.0
C742 C 0.45281 0.63733 0.66989 0.0
H743 H 0.48576 0.68426 0.73675 0.0
O744 O 0.53371 0.65064 0.75032 0.0
O745 O 0.51675 0.64985 0.69224 0.0
O746 O 0.55954 0.70218 0.71557 0.0
O747 O 0.52385 0.70156 0.68989 0.0
C748 C 0.40672 0.60486 0.6629 0.0
C749 C 0.41282 0.59457 0.62965 0.0
H750 H 0.43241 0.57904 0.56861 0.0
H751 H 0.47972 0.60018 0.55068 0.0
H752 H 0.44046 0.66604 0.76328 0.0
H753 H 0.40264 0.6294 0.72839 0.0
H754 H 0.38648 0.59591 0.67274 0.0
H755 H 0.3972 0.57783 0.61445 0.0
Mn756 Mn 0.90067 0.54927 0.7125 0.0
Mn757 Mn 0.84554 0.501 0.67004 0.0
C758 C 0.88031 0.50682 0.73865 0.0
C759 C 0.94653 0.57318 0.72056 0.0
C760 C 0.84646 0.54471 0.71869 0.0
O761 O 0.90177 0.56412 0.65756 0.0
O762 O 0.86576 0.52922 0.6315 0.0
C763 C 0.86763 0.48019 0.61114 0.0
N764 N 0.85169 0.47621 0.64252 0.0
C765 C 0.83401 0.42934 0.63945 0.0
C766 C 0.85027 0.43292 0.6071 0.0
C767 C 0.86723 0.45846 0.593 0.0
C768 C 0.83536 0.45173 0.65638 0.0
H769 H 0.8804 0.49979 0.59997 0.0
C770 C 0.88584 0.55238 0.62921 0.0
O771 O 0.93177 0.58291 0.73071 0.0
O772 O 0.93484 0.55027 0.70377 0.0
N773 N 0.8242 0.47261 0.70445 0.0
C774 C 0.81109 0.4729 0.73726 0.0
C775 C 0.79348 0.44904 0.75544 0.0
C776 C 0.7895 0.42523 0.73956 0.0
C777 C 0.80375 0.42547 0.70632 0.0
C778 C 0.82084 0.44985 0.6893 0.0
H779 H 0.81372 0.49116 0.74908 0.0
O780 O 0.89503 0.52729 0.76008 0.0
O781 O 0.87721 0.51183 0.70241 0.0
O782 O 0.87055 0.55589 0.72904 0.0
O783 O 0.83572 0.52456 0.69663 0.0
C784 C 0.80157 0.40256 0.6892 0.0
C785 C 0.8168 0.40451 0.65593 0.0
H786 H 0.85002 0.41621 0.59303 0.0
H787 H 0.87982 0.46137 0.56805 0.0
H788 H 0.78266 0.44897 0.78122 0.0
H789 H 0.77518 0.40695 0.75296 0.0
H790 H 0.78839 0.38336 0.70149 0.0
H791 H 0.81526 0.3868 0.64342 0.0
Mn792 Mn 0.37106 0.90336 0.70218 0.0
Mn793 Mn 0.36379 0.8494 0.65416 0.0
C794 C 0.39578 0.88415 0.72065 0.0
C795 C 0.3915 0.94882 0.71425 0.0
C796 C 0.32419 0.84732 0.7129 0.0
O797 O 0.35481 0.90529 0.64991 0.0
O798 O 0.35079 0.86855 0.62163 0.0
C799 C 0.40039 0.87444 0.58754 0.0
N800 N 0.39244 0.85805 0.61914 0.0
C801 C 0.42463 0.84497 0.60575 0.0
C802 C 0.4331 0.86164 0.57297 0.0
C803 C 0.42094 0.87646 0.56388 0.0
C804 C 0.40378 0.84345 0.62789 0.0
H805 H 0.39107 0.88582 0.58036 0.0
C806 C 0.34826 0.88904 0.62131 0.0
O807 O 0.36765 0.93281 0.72584 0.0
O808 O 0.40279 0.9387 0.69337 0.0
N809 N 0.37614 0.82947 0.68234 0.0
C810 C 0.3675 0.81655 0.71713 0.0
C811 C 0.37878 0.80204 0.73182 0.0
C812 C 0.39869 0.80085 0.71048 0.0
C813 C 0.40729 0.81437 0.67479 0.0
C814 C 0.39524 0.82841 0.66153 0.0
H815 H 0.35222 0.81746 0.73361 0.0
O816 O 0.39038 0.89759 0.7455 0.0
O817 O 0.38566 0.88134 0.68574 0.0
O818 O 0.33609 0.8718 0.72109 0.0
O819 O 0.33297 0.83711 0.68858 0.0
C820 C 0.42788 0.81509 0.65244 0.0
C821 C 0.43651 0.83034 0.6179 0.0
H822 H 0.44911 0.86344 0.55484 0.0
H823 H 0.42741 0.88942 0.53869 0.0
H824 H 0.37214 0.7918 0.75952 0.0
H825 H 0.40742 0.78973 0.72194 0.0
H826 H 0.43755 0.80439 0.66195 0.0
H827 H 0.45266 0.8311 0.60135 0.0
Mn828 Mn 0.48354 0.3574 0.70469 0.0
Mn829 Mn 0.53356 0.35156 0.66592 0.0
C830 C 0.5252 0.3796 0.73343 0.0
C831 C 0.45898 0.37894 0.71206 0.0
C832 C 0.48966 0.30859 0.71362 0.0
O833 O 0.47024 0.34415 0.64887 0.0
O834 O 0.50565 0.34248 0.62617 0.0
C835 C 0.55399 0.39394 0.60631 0.0
N836 N 0.55807 0.38249 0.63824 0.0
C837 C 0.60478 0.41264 0.63625 0.0
C838 C 0.6011 0.42479 0.60333 0.0
C839 C 0.57559 0.41546 0.5884 0.0
C840 C 0.58252 0.39133 0.65287 0.0
H841 H 0.53444 0.38658 0.59455 0.0
C842 C 0.48266 0.33965 0.62182 0.0
O843 O 0.44927 0.35434 0.72135 0.0
O844 O 0.48212 0.39038 0.69593 0.0
N845 N 0.56177 0.3597 0.70136 0.0
C846 C 0.5615 0.34702 0.73498 0.0
C847 C 0.58528 0.35429 0.75428 0.0
C848 C 0.609 0.3744 0.73872 0.0
C849 C 0.60874 0.38759 0.70458 0.0
C850 C 0.58445 0.37928 0.68641 0.0
H851 H 0.54331 0.33128 0.74668 0.0
O852 O 0.50404 0.37335 0.75345 0.0
O853 O 0.52142 0.37198 0.69688 0.0
O854 O 0.47726 0.32079 0.72144 0.0
O855 O 0.51053 0.31837 0.69313 0.0
C856 C 0.63153 0.40862 0.68788 0.0
C857 C 0.62955 0.42116 0.65375 0.0
H858 H 0.61768 0.44142 0.58947 0.0
H859 H 0.5726 0.42475 0.56302 0.0
H860 H 0.58538 0.34418 0.78077 0.0
H861 H 0.62727 0.37928 0.75305 0.0
H862 H 0.65062 0.41551 0.70131 0.0
H863 H 0.64714 0.43758 0.64155 0.0
H864 H 0.40696 0.04796 0.25393 0.0
H865 H 0.48035 0.05009 0.23019 0.0
H866 H 0.46194 1.00517 0.25475 0.0
H867 H 0.42502 0.9652 0.28351 0.0
H868 H 0.35069 0.96185 0.3028 0.0
H869 H 0.36945 1.00733 0.28003 0.0
C870 C 0.41886 0.03853 0.25391 0.0
C871 C 0.445 0.0524 0.24024 0.0
C872 C 0.40806 1.01254 0.26776 0.0
C873 C 0.46013 0.03984 0.24029 0.0
C874 C 0.44967 0.01418 0.25459 0.0
C875 C 0.41307 0.97458 0.28312 0.0
C876 C 0.38665 0.9604 0.29536 0.0
C877 C 0.42373 1.0004 0.26866 0.0
C878 C 0.37115 0.97249 0.2938 0.0
C879 C 0.38183 0.99844 0.28064 0.0
H880 H 0.46987 0.42421 0.27058 0.0
H881 H 0.39851 0.35326 0.30181 0.0
H882 H 0.37213 0.37199 0.27727 0.0
H883 H 0.3693 0.40838 0.24622 0.0
H884 H 0.44058 0.47831 0.21104 0.0
H885 H 0.46694 0.46003 0.237 0.0
C886 C 0.44856 0.41306 0.27245 0.0
C887 C 0.43612 0.38759 0.28856 0.0
C888 C 0.43348 0.4236 0.25692 0.0
C889 C 0.4085 0.37302 0.28986 0.0
C890 C 0.39341 0.38366 0.27564 0.0
C891 C 0.39059 0.41952 0.2439 0.0
C892 C 0.4029 0.44468 0.22662 0.0
C893 C 0.40567 0.40885 0.25881 0.0
C894 C 0.43053 0.45883 0.2239 0.0
C895 C 0.44567 0.44847 0.23904 0.0
H896 H 0.97768 0.42208 0.23036 0.0
H897 H 0.97882 0.35106 0.20178 0.0
H898 H 0.02262 0.36911 0.2314 0.0
H899 H 0.06021 0.40489 0.2668 0.0
H900 H 0.05696 0.47423 0.30042 0.0
H901 H 1.01426 0.45691 0.26829 0.0
C902 C 0.98779 0.41082 0.23004 0.0
C903 C 0.97546 0.38559 0.21311 0.0
C904 C 1.01235 0.42082 0.24877 0.0
C905 C 0.98823 0.37072 0.21408 0.0
C906 C 1.01314 0.38096 0.23127 0.0
C907 C 0.05004 0.4161 0.26737 0.0
C908 C 0.0618 0.44082 0.28608 0.0
C909 C 0.02529 0.40589 0.24908 0.0
C910 C 0.04831 0.45506 0.28658 0.0
C911 C 0.02396 0.44527 0.2679 0.0
H912 H 0.63001 0.97208 0.25358 0.0
H913 H 0.55626 0.96991 0.23323 0.0
H914 H 0.57464 0.01438 0.25953 0.0
H915 H 0.61178 0.05422 0.28795 0.0
H916 H 0.68655 0.05793 0.3036 0.0
H917 H 0.66767 1.01255 0.28014 0.0
C918 C 0.61802 0.9814 0.25476 0.0
C919 C 0.5918 0.96765 0.24141 0.0
C920 C 0.62883 1.00719 0.26953 0.0
C921 C 0.57655 0.98006 0.24303 0.0
C922 C 0.58699 1.00547 0.25831 0.0
C923 C 0.62379 0.04491 0.28672 0.0
C924 C 0.65038 0.05919 0.29804 0.0
C925 C 0.61307 0.0192 0.27178 0.0
C926 C 0.66595 0.0472 0.29535 0.0
C927 C 0.6552 0.02132 0.28177 0.0
H928 H 0.57314 0.60534 0.27188 0.0
H929 H 0.64441 0.67913 0.29138 0.0
H930 H 0.67079 0.65984 0.26888 0.0
H931 H 0.6736 0.62178 0.24351 0.0
H932 H 0.60194 0.549 0.21975 0.0
H933 H 0.57585 0.56811 0.24347 0.0
C934 C 0.59446 0.6171 0.27147 0.0
C935 C 0.60683 0.64351 0.28375 0.0
C936 C 0.60946 0.60611 0.2573 0.0
C937 C 0.63444 0.65871 0.28226 0.0
C938 C 0.64953 0.6477 0.26931 0.0
C939 C 0.65228 0.61018 0.24328 0.0
C940 C 0.63981 0.58397 0.22986 0.0
C941 C 0.63727 0.62142 0.25662 0.0
C942 C 0.61212 0.56926 0.22967 0.0
C943 C 0.59713 0.58013 0.24347 0.0
H944 H 0.05841 0.6069 0.23354 0.0
H945 H 0.06098 0.68098 0.21648 0.0
H946 H 1.01701 0.66283 0.2456 0.0
H947 H 0.97782 0.62567 0.27669 0.0
H948 H 0.97778 0.55313 0.29877 0.0
H949 H 0.02072 0.57092 0.26755 0.0
C950 C 0.04917 0.61894 0.23581 0.0
C951 C 0.06263 0.64505 0.22226 0.0
C952 C 0.02444 0.60872 0.25402 0.0
C953 C 0.05082 0.66072 0.22638 0.0
C954 C 0.02575 0.65037 0.24316 0.0
C955 C 0.98733 0.61387 0.27487 0.0
C956 C 0.97454 0.58809 0.29009 0.0
C957 C 1.0124 0.62441 0.25732 0.0
C958 C 0.98719 0.57309 0.28762 0.0
C959 C 1.01172 0.58318 0.2695 0.0
H960 H 0.57116 0.96496 0.78034 0.0
H961 H 0.64322 0.96421 0.80196 0.0
H962 H 0.66874 1.0085 0.77382 0.0
H963 H 0.67039 0.04761 0.74318 0.0
H964 H 0.5977 0.04618 0.71648 0.0
H965 H 0.57261 1.00252 0.74578 0.0
C966 C 0.59248 0.97465 0.77921 0.0
C967 C 0.60538 0.96164 0.7939 0.0
C968 C 0.60686 0.99959 0.76156 0.0
C969 C 0.63293 0.97401 0.79122 0.0
C970 C 0.64748 0.99926 0.775 0.0
C971 C 0.64905 0.03761 0.74346 0.0
C972 C 0.63597 0.05021 0.72766 0.0
C973 C 0.63465 1.01224 0.75997 0.0
C974 C 0.6083 0.03692 0.72812 0.0
C975 C 0.59391 1.012 0.74518 0.0
H976 H 0.61219 0.56293 0.77286 0.0
H977 H 0.68525 0.63423 0.79591 0.0
H978 H 0.6666 0.66056 0.7705 0.0
H979 H 0.62923 0.66322 0.74141 0.0
H980 H 0.5575 0.59129 0.71415 0.0
H981 H 0.57595 0.56545 0.74091 0.0
C982 C 0.62392 0.58425 0.77263 0.0
C983 C 0.6499 0.59665 0.78675 0.0
C984 C 0.61337 0.59918 0.75675 0.0
C985 C 0.66511 0.62425 0.78542 0.0
C986 C 0.65448 0.6393 0.7708 0.0
C987 C 0.61775 0.6419 0.74106 0.0
C988 C 0.59199 0.62928 0.72575 0.0
C989 C 0.62863 0.62699 0.7562 0.0
C990 C 0.57742 0.6016 0.72548 0.0
C991 C 0.58789 0.58673 0.74104 0.0
H992 H 0.97891 0.62431 0.74299 0.0
H993 H 0.97761 0.55092 0.72328 0.0
H994 H 0.02285 0.5704 0.74671 0.0
H995 H 0.0628 0.6081 0.77362 0.0
H996 H 0.06584 0.68259 0.78843 0.0
H997 H 0.01998 0.66293 0.76656 0.0
C998 C 0.98861 0.61267 0.74358 0.0
C999 C 0.97482 0.58617 0.73141 0.0
C1000 C 1.01489 0.62414 0.75664 0.0
C1001 C 0.98775 0.57139 0.73221 0.0
C1002 C 1.01361 0.58247 0.74586 0.0
C1003 C 0.05331 0.61994 0.77238 0.0
C1004 C 0.06749 0.64663 0.7832 0.0
C1005 C 0.02731 0.60874 0.75843 0.0
C1006 C 0.05521 0.66194 0.78052 0.0
C1007 C 0.02904 0.65072 0.76791 0.0
H1008 H 0.47122 0.06116 0.78281 0.0
H1009 H 0.39918 0.06149 0.80666 0.0
H1010 H 0.3736 0.01747 0.77754 0.0
H1011 H 0.37191 0.97869 0.74536 0.0
H1012 H 0.44463 0.98077 0.71635 0.0
H1013 H 0.46972 0.02408 0.74672 0.0
C1014 C 0.44989 0.05144 0.78195 0.0
C1015 C 0.43702 0.06424 0.79757 0.0
C1016 C 0.43548 0.02669 0.76372 0.0
C1017 C 0.40946 0.05184 0.79522 0.0
C1018 C 0.39487 0.02674 0.77844 0.0
C1019 C 0.39325 0.98876 0.74537 0.0
C1020 C 0.40633 0.97643 0.72859 0.0
C1021 C 0.40767 0.01397 0.76248 0.0
C1022 C 0.43401 0.98982 0.72873 0.0
C1023 C 0.44842 0.01454 0.7464 0.0
H1024 H 0.42578 0.46043 0.77206 0.0
H1025 H 0.35268 0.38909 0.79467 0.0
H1026 H 0.37124 0.36287 0.76831 0.0
H1027 H 0.4087 0.36029 0.73938 0.0
H1028 H 0.48058 0.4322 0.71274 0.0
H1029 H 0.46198 0.45801 0.73943 0.0
C1030 C 0.41399 0.43912 0.77146 0.0
C1031 C 0.38804 0.42668 0.78589 0.0
C1032 C 0.42451 0.42426 0.75508 0.0
C1033 C 0.37278 0.39911 0.78403 0.0
C1034 C 0.38337 0.38412 0.76885 0.0
C1035 C 0.42018 0.38161 0.73905 0.0
C1036 C 0.44606 0.39422 0.72405 0.0
C1037 C 0.40924 0.39648 0.75424 0.0
C1038 C 0.4606 0.42189 0.72383 0.0
C1039 C 0.45003 0.43673 0.73938 0.0
H1040 H 0.06432 0.40393 0.73978 0.0
H1041 H 0.06457 0.4763 0.71534 0.0
H1042 H 1.0199 0.45744 0.74086 0.0
H1043 H 0.98043 0.42036 0.77024 0.0
H1044 H 0.97849 0.3468 0.78991 0.0
H1045 H 0.024 0.3661 0.76677 0.0
C1046 C 0.05452 0.41549 0.73983 0.0
C1047 C 0.06786 0.44151 0.72558 0.0
C1048 C 0.02854 0.40438 0.75416 0.0
C1049 C 0.05479 0.45618 0.72582 0.0
C1050 C 0.02924 0.44547 0.74067 0.0
C1051 C 0.99013 0.4087 0.76987 0.0
C1052 C 0.9763 0.38234 0.78231 0.0
C1053 C 1.01595 0.41964 0.75511 0.0
C1054 C 0.98884 0.36722 0.78075 0.0
C1055 C 1.01481 0.37822 0.76737 0.0
H1056 H 0.47131 0.21595 0.19404 0.0
H1057 H 0.47386 0.18102 0.30391 0.0
H1058 H 0.47214 0.21634 0.33979 0.0
H1059 H 0.47609 0.26039 0.33931 0.0
H1060 H 0.47066 0.2938 0.22954 0.0
H1061 H 0.46697 0.25576 0.19416 0.0
C1062 C 0.47069 0.21571 0.22585 0.0
C1063 C 0.47274 0.19601 0.24637 0.0
C1064 C 0.4695 0.23598 0.24623 0.0
C1065 C 0.47198 0.19584 0.28754 0.0
C1066 C 0.4713 0.21619 0.30804 0.0
C1067 C 0.47344 0.25896 0.30774 0.0
C1068 C 0.4738 0.27987 0.28698 0.0
C1069 C 0.47096 0.23684 0.28765 0.0
C1070 C 0.47025 0.27783 0.24613 0.0
C1071 C 0.46835 0.25619 0.22587 0.0
H1072 H 0.22876 0.47751 0.33648 0.0
H1073 H 0.1913 0.47701 0.2275 0.0
H1074 H 0.22622 0.47502 0.19079 0.0
H1075 H 0.27025 0.479 0.18994 0.0
H1076 H 0.30633 0.47662 0.29877 0.0
H1077 H 0.26897 0.47369 0.33544 0.0
C1078 C 0.22801 0.47636 0.30471 0.0
C1079 C 0.20765 0.47757 0.28462 0.0
C1080 C 0.24796 0.47484 0.28387 0.0
C1081 C 0.20671 0.47594 0.24352 0.0
C1082 C 0.22677 0.475 0.22256 0.0
C1083 C 0.26952 0.47713 0.22164 0.0
C1084 C 0.29095 0.47807 0.24174 0.0
C1085 C 0.24788 0.47521 0.24241 0.0
C1086 C 0.28991 0.47565 0.28274 0.0
C1087 C 0.26868 0.47425 0.30368 0.0
H1088 H 0.76505 0.23609 0.3309 0.0
H1089 H 0.74109 0.18352 0.23167 0.0
H1090 H 0.77743 0.21726 0.19282 0.0
H1091 H 0.81339 0.2635 0.18531 0.0
H1092 H 0.83813 0.3151 0.28555 0.0
H1093 H 0.80417 0.28004 0.32593 0.0
C1094 C 0.76805 0.23189 0.30095 0.0
C1095 C 0.75031 0.20746 0.28405 0.0
C1096 C 0.78899 0.25131 0.27894 0.0
C1097 C 0.75456 0.20215 0.24538 0.0
C1098 C 0.7752 0.22151 0.22307 0.0
C1099 C 0.81154 0.26675 0.21619 0.0
C1100 C 0.82805 0.29163 0.23271 0.0
C1101 C 0.79214 0.24639 0.23925 0.0
C1102 C 0.82565 0.29591 0.27257 0.0
C1103 C 0.80619 0.27596 0.29551 0.0
H1104 H 0.56495 0.83218 0.28749 0.0
H1105 H 0.56704 0.81066 0.16731 0.0
H1106 H 0.57309 0.77418 0.18861 0.0
H1107 H 0.57067 0.74433 0.24138 0.0
H1108 H 0.56371 0.76327 0.36128 0.0
H1109 H 0.56708 0.80476 0.34055 0.0
C1110 C 0.56762 0.82 0.26611 0.0
C1111 C 0.56577 0.82414 0.22597 0.0
C1112 C 0.56985 0.79828 0.27864 0.0
C1113 C 0.56855 0.80784 0.19841 0.0
C1114 C 0.57184 0.78689 0.21058 0.0
C1115 C 0.57075 0.75798 0.26295 0.0
C1116 C 0.56707 0.75086 0.30276 0.0
C1117 C 0.57151 0.7813 0.25061 0.0
C1118 C 0.56658 0.76841 0.33044 0.0
C1119 C 0.56837 0.79207 0.31859 0.0
H1120 H 0.74452 0.55081 0.28971 0.0
H1121 H 0.76908 0.55191 0.17036 0.0
H1122 H 0.81101 0.55706 0.19299 0.0
H1123 H 0.8379 0.55467 0.24688 0.0
H1124 H 0.81111 0.54907 0.36601 0.0
H1125 H 0.77337 0.55262 0.34375 0.0
C1126 C 0.75946 0.55305 0.26879 0.0
C1127 C 0.75391 0.55126 0.22849 0.0
C1128 C 0.78309 0.55482 0.2821 0.0
C1129 C 0.77308 0.55344 0.20157 0.0
C1130 C 0.79698 0.5562 0.2145 0.0
C1131 C 0.82418 0.555 0.26792 0.0
C1132 C 0.82731 0.5517 0.30799 0.0
C1133 C 0.80185 0.55598 0.25472 0.0
C1134 C 0.80908 0.5516 0.33497 0.0
C1135 C 0.78742 0.55352 0.32225 0.0
H1136 H 0.20004 0.73323 0.26953 0.0
H1137 H 0.22955 0.75811 0.15239 0.0
H1138 H 0.2673 0.79808 0.17815 0.0
H1139 H 0.29455 0.82342 0.23448 0.0
H1140 H 0.26762 0.79573 0.35168 0.0
H1141 H 0.22628 0.75977 0.32585 0.0
C1142 C 0.21446 0.74776 0.24975 0.0
C1143 C 0.21202 0.74293 0.20919 0.0
C1144 C 0.23673 0.77014 0.26492 0.0
C1145 C 0.23109 0.76153 0.18376 0.0
C1146 C 0.25269 0.78433 0.19847 0.0
C1147 C 0.27929 0.80985 0.25423 0.0
C1148 C 0.28385 0.81226 0.29482 0.0
C1149 C 0.25611 0.78852 0.23905 0.0
C1150 C 0.26433 0.79424 0.32028 0.0
C1151 C 0.24078 0.77364 0.30552 0.0
H1152 H 0.54988 0.72782 0.78522 0.0
H1153 H 0.55685 0.75607 0.66688 0.0
H1154 H 0.5617 0.79766 0.69095 0.0
H1155 H 0.55855 0.82381 0.74548 0.0
H1156 H 0.54694 0.79322 0.86315 0.0
H1157 H 0.54959 0.75514 0.84 0.0
C1158 C 0.55323 0.74345 0.76495 0.0
C1159 C 0.55345 0.73922 0.72449 0.0
C1160 C 0.55482 0.76683 0.77897 0.0
C1161 C 0.55697 0.75918 0.69824 0.0
C1162 C 0.55956 0.78286 0.71198 0.0
C1163 C 0.55721 0.80906 0.76602 0.0
C1164 C 0.55261 0.81129 0.80591 0.0
C1165 C 0.55775 0.78663 0.75224 0.0
C1166 C 0.55041 0.79184 0.83224 0.0
C1167 C 0.55188 0.77004 0.81904 0.0
H1168 H 0.75033 0.56118 0.74907 0.0
H1169 H 0.76574 0.54777 0.8679 0.0
H1170 H 0.80709 0.55068 0.84748 0.0
H1171 H 0.8354 0.55023 0.79423 0.0
H1172 H 0.81743 0.55906 0.67471 0.0
H1173 H 0.78109 0.56519 0.69667 0.0
C1174 C 0.76317 0.55971 0.77058 0.0
C1175 C 0.75505 0.55432 0.8099 0.0
C1176 C 0.78644 0.56031 0.75832 0.0
C1177 C 0.7716 0.55191 0.83742 0.0
C1178 C 0.7952 0.55346 0.82574 0.0
C1179 C 0.82402 0.55438 0.77327 0.0
C1180 C 0.82914 0.5545 0.73304 0.0
C1181 C 0.80237 0.55669 0.78605 0.0
C1182 C 0.81387 0.55913 0.70589 0.0
C1183 C 0.793 0.56245 0.71842 0.0
H1184 H 0.27785 0.80989 0.68245 0.0
H1185 H 0.31726 0.84313 0.79185 0.0
H1186 H 0.28088 0.80725 0.82795 0.0
H1187 H 0.23988 0.76399 0.82754 0.0
H1188 H 0.1989 0.73253 0.71854 0.0
H1189 H 0.23365 0.7702 0.68296 0.0
C1190 C 0.2781 0.80952 0.71425 0.0
C1191 C 0.3001 0.82901 0.73459 0.0
C1192 C 0.25697 0.78904 0.73472 0.0
C1193 C 0.30035 0.82845 0.77572 0.0
C1194 C 0.27968 0.80782 0.79628 0.0
C1195 C 0.23843 0.7657 0.79608 0.0
C1196 C 0.21707 0.74553 0.77552 0.0
C1197 C 0.2582 0.78766 0.77601 0.0
C1198 C 0.21516 0.74792 0.73488 0.0
C1199 C 0.23507 0.76936 0.71456 0.0
H1200 H 0.49365 0.29818 0.78936 0.0
H1201 H 0.46991 0.2618 0.67583 0.0
H1202 H 0.46681 0.22123 0.70139 0.0
H1203 H 0.47631 0.19816 0.75436 0.0
H1204 H 0.50422 0.23695 0.86593 0.0
H1205 H 0.50015 0.27418 0.84323 0.0
C1206 C 0.48691 0.28099 0.77072 0.0
C1207 C 0.48136 0.28261 0.73113 0.0
C1208 C 0.48647 0.25828 0.78518 0.0
C1209 C 0.47368 0.26067 0.70667 0.0
C1210 C 0.4722 0.23761 0.72119 0.0
C1211 C 0.48103 0.21457 0.77382 0.0
C1212 C 0.49072 0.21482 0.81169 0.0
C1213 C 0.47936 0.23644 0.76013 0.0
C1214 C 0.497 0.23637 0.83649 0.0
C1215 C 0.49463 0.25769 0.82357 0.0
H1216 H 0.20775 0.48124 0.78592 0.0
H1217 H 0.22872 0.47419 0.66733 0.0
H1218 H 0.2645 0.46769 0.69112 0.0
H1219 H 0.29336 0.46975 0.74537 0.0
H1220 H 0.27517 0.48171 0.86336 0.0
H1221 H 0.23483 0.48016 0.84061 0.0
C1222 C 0.21975 0.47754 0.76551 0.0
C1223 C 0.21552 0.47783 0.72504 0.0
C1224 C 0.24102 0.47495 0.77941 0.0
C1225 C 0.23157 0.47377 0.69866 0.0
C1226 C 0.2521 0.47019 0.71225 0.0
C1227 C 0.28012 0.47125 0.76611 0.0
C1228 C 0.28703 0.47559 0.80598 0.0
C1229 C 0.25752 0.47152 0.75252 0.0
C1230 C 0.27012 0.47821 0.83253 0.0
C1231 C 0.24713 0.47746 0.8195 0.0
H1232 H 0.80581 0.2592 0.83004 0.0
H1233 H 0.84675 0.29123 0.72113 0.0
H1234 H 0.8114 0.25448 0.68509 0.0
H1235 H 0.76644 0.21587 0.68406 0.0
H1236 H 0.72686 0.18208 0.79313 0.0
H1237 H 0.76409 0.21663 0.82973 0.0
C1238 C 0.80722 0.25777 0.7985 0.0
C1239 C 0.82878 0.27794 0.77822 0.0
C1240 C 0.78695 0.23638 0.77804 0.0
C1241 C 0.83047 0.27584 0.73741 0.0
C1242 C 0.81014 0.25495 0.71676 0.0
C1243 C 0.76631 0.21582 0.71587 0.0
C1244 C 0.744 0.1966 0.73597 0.0
C1245 C 0.78796 0.2355 0.73666 0.0
C1246 C 0.74395 0.19659 0.77713 0.0
C1247 C 0.76514 0.21644 0.79801 0.0
H1248 H 0.46558 0.16897 0.08527 0.0
H1249 H 0.45765 0.09218 0.09648 0.0
H1250 H 0.45189 0.08578 0.0253 0.0
H1251 H 0.45885 0.10643 0.95949 0.0
H1252 H 0.46846 0.18402 0.94972 0.0
H1253 H 0.46298 0.1855 0.02045 0.0
C1254 C 0.46159 0.15045 0.07218 0.0
C1255 C 0.46216 0.13113 0.09582 0.0
C1256 C 0.4588 0.1472 0.03135 0.0
C1257 C 0.45707 0.10723 0.07877 0.0
C1258 C 0.45407 0.10372 0.03803 0.0
C1259 C 0.45841 0.12303 0.97277 0.0
C1260 C 0.46389 0.14505 0.94961 0.0
C1261 C 0.45621 0.12412 0.01385 0.0
C1262 C 0.464 0.16679 0.96708 0.0
C1263 C 0.4612 0.16777 1.00756 0.0
H1264 H 0.31028 0.46328 0.95297 0.0
H1265 H 0.3757 0.44973 0.94105 0.0
H1266 H 0.37806 0.44677 0.0126 0.0
H1267 H 0.3671 0.45746 0.07825 0.0
H1268 H 0.30296 0.47335 0.08799 0.0
H1269 H 0.29406 0.46544 0.01803 0.0
C1270 C 0.32434 0.4586 0.96608 0.0
C1271 C 0.34277 0.45671 0.942 0.0
C1272 C 0.32605 0.45781 1.00703 0.0
C1273 C 0.36109 0.4509 0.95908 0.0
C1274 C 0.36267 0.44962 1.00003 0.0
C1275 C 0.3506 0.45817 0.06516 0.0
C1276 C 0.33578 0.46612 0.08806 0.0
C1277 C 0.34609 0.45439 0.02436 0.0
C1278 C 0.31466 0.46737 0.07081 0.0
C1279 C 0.30965 0.46298 0.03077 0.0
H1280 H 0.85763 0.29741 0.94026 0.0
H1281 H 0.93752 0.36009 0.92501 0.0
H1282 H 0.94468 0.36173 0.99607 0.0
H1283 H 0.92477 0.35164 0.06267 0.0
H1284 H 0.84409 0.29009 0.07631 0.0
H1285 H 0.84083 0.28109 1.00609 0.0
C1286 C 0.8769 0.31072 0.95246 0.0
C1287 C 0.89697 0.32868 0.92766 0.0
C1288 C 0.88059 0.31191 0.99323 0.0
C1289 C 0.92185 0.34592 0.94359 0.0
C1290 C 0.92582 0.34706 0.98428 0.0
C1291 C 0.90693 0.33549 0.0504 0.0
C1292 C 0.88465 0.32156 0.07449 0.0
C1293 C 0.9049 0.33105 1.00953 0.0
C1294 C 0.86146 0.30101 0.05824 0.0
C1295 C 0.85951 0.29603 0.01804 0.0
H1296 H 0.57443 0.85709 0.0807 0.0
H1297 H 0.577 0.93156 0.09051 0.0
H1298 H 0.58497 0.93878 0.01975 0.0
H1299 H 0.58125 0.91891 0.95415 0.0
H1300 H 0.57659 0.84338 0.94548 0.0
H1301 H 0.5804 0.84185 0.01659 0.0
C1302 C 0.57775 0.87532 0.06743 0.0
C1303 C 0.57505 0.89373 0.09038 0.0
C1304 C 0.58182 0.87902 0.02685 0.0
C1305 C 0.57922 0.91726 0.07323 0.0
C1306 C 0.58351 0.92123 0.03276 0.0
C1307 C 0.58248 0.90285 0.96783 0.0
C1308 C 0.57885 0.88135 0.94485 0.0
C1309 C 0.58354 0.90162 1.00901 0.0
C1310 C 0.5797 0.86024 0.96274 0.0
C1311 C 0.58149 0.8592 1.00342 0.0
H1312 H 0.66772 0.56568 0.07707 0.0
H1313 H 0.73775 0.55955 0.08781 0.0
H1314 H 0.74586 0.56689 0.01754 0.0
H1315 H 0.72783 0.5653 0.95231 0.0
H1316 H 0.65666 0.56896 0.93975 0.0
H1317 H 0.65429 0.5729 0.01113 0.0
C1318 C 0.68528 0.56708 0.06409 0.0
C1319 C 0.70216 0.56211 0.0873 0.0
C1320 C 0.68931 0.57041 0.02322 0.0
C1321 C 0.7246 0.56341 0.0703 0.0
C1322 C 0.72912 0.5674 0.03012 0.0
C1323 C 0.71246 0.5681 0.96523 0.0
C1324 C 0.69252 0.56697 0.94117 0.0
C1325 C 0.71089 0.56953 1.00611 0.0
C1326 C 0.67241 0.57019 0.95789 0.0
C1327 C 0.67089 0.57207 0.99871 0.0
H1328 H 0.11363 0.67669 0.93357 0.0
H1329 H 0.19369 0.74036 0.92449 0.0
H1330 H 0.19518 0.74779 0.99502 0.0
H1331 H 0.17757 0.72917 0.05962 0.0
H1332 H 0.09846 0.66418 0.07017 0.0
H1333 H 0.09238 0.66449 0.99908 0.0
C1334 C 0.13089 0.69294 0.9469 0.0
C1335 C 0.15358 0.70789 0.92407 0.0
C1336 C 0.13194 0.69646 0.98792 0.0
C1337 C 0.17604 0.72863 0.94164 0.0
C1338 C 0.17698 0.73273 0.98201 0.0
C1339 C 0.15863 0.71588 0.04643 0.0
C1340 C 0.13852 0.69667 0.06979 0.0
C1341 C 0.15563 0.71575 1.0056 0.0
C1342 C 0.1141 0.67934 0.05265 0.0
C1343 C 0.11078 0.67929 0.01193 0.0
H1344 H 0.92776 0.57051 0.57927 0.0
H1345 H 0.85078 0.56194 0.59347 0.0
H1346 H 0.84867 0.56926 0.52352 0.0
H1347 H 0.86417 0.56767 0.45754 0.0
H1348 H 0.94014 0.57437 0.44163 0.0
H1349 H 0.94764 0.57885 0.51265 0.0
C1350 C 0.91112 0.57143 0.56714 0.0
C1351 C 0.88939 0.56562 0.59119 0.0
C1352 C 0.90969 0.57484 0.52644 0.0
C1353 C 0.86768 0.56638 0.57529 0.0
C1354 C 0.86638 0.57036 0.53528 0.0
C1355 C 0.88283 0.57131 0.46962 0.0
C1356 C 0.90155 0.57067 0.44471 0.0
C1357 C 0.88659 0.5731 0.51036 0.0
C1358 C 0.9256 0.57512 0.46039 0.0
C1359 C 0.9297 0.57729 0.50105 0.0
H1360 H 0.30874 0.856 0.57442 0.0
H1361 H 0.3735 0.93546 0.58138 0.0
H1362 H 0.37346 0.93946 0.50983 0.0
H1363 H 0.36162 0.91634 0.44547 0.0
H1364 H 0.29882 0.83567 0.44049 0.0
H1365 H 0.29105 0.83618 0.51064 0.0
C1366 C 0.32205 0.87457 0.5603 0.0
C1367 C 0.34115 0.89534 0.58292 0.0
C1368 C 0.32259 0.87625 0.51926 0.0
C1369 C 0.35843 0.91929 0.56452 0.0
C1370 C 0.35868 0.9214 0.52352 0.0
C1371 C 0.3456 0.89931 0.45963 0.0
C1372 C 0.33088 0.87594 0.43811 0.0
C1373 C 0.34186 0.89946 0.5005 0.0
C1374 C 0.31041 0.85381 0.45667 0.0
C1375 C 0.30605 0.85405 0.49679 0.0
H1376 H 0.46302 0.36203 0.5713 0.0
H1377 H 0.47707 0.2969 0.58451 0.0
H1378 H 0.47022 0.28764 0.51449 0.0
H1379 H 0.4692 0.30347 0.44864 0.0
H1380 H 0.45679 0.36938 0.43336 0.0
H1381 H 0.45342 0.37268 0.50466 0.0
C1382 C 0.46353 0.34524 0.55892 0.0
C1383 C 0.47063 0.3302 0.58285 0.0
C1384 C 0.46028 0.34045 0.51812 0.0
C1385 C 0.47167 0.30873 0.56652 0.0
C1386 C 0.46792 0.30352 0.52646 0.0
C1387 C 0.46477 0.31791 0.46094 0.0
C1388 C 0.4633 0.33618 0.43599 0.0
C1389 C 0.46353 0.32003 0.50178 0.0
C1390 C 0.4577 0.35492 0.45207 0.0
C1391 C 0.45614 0.35702 0.49288 0.0
H1392 H 0.11408 0.45398 0.57123 0.0
H1393 H 0.19307 0.46733 0.58287 0.0
H1394 H 0.19504 0.46084 0.51262 0.0
H1395 H 0.17828 0.46158 0.44724 0.0
H1396 H 0.10007 0.44984 0.43396 0.0
H1397 H 0.09345 0.44483 0.50509 0.0
C1398 C 0.1312 0.45428 0.55851 0.0
C1399 C 0.15347 0.46128 0.582 0.0
C1400 C 0.13251 0.45132 0.51761 0.0
C1401 C 0.17574 0.46204 0.56521 0.0
C1402 C 0.17696 0.45853 0.525 0.0
C1403 C 0.1594 0.45681 0.45987 0.0
C1404 C 0.13976 0.45621 0.43559 0.0
C1405 C 0.15606 0.45466 0.50072 0.0
C1406 C 0.1154 0.45014 0.45211 0.0
C1407 C 0.11177 0.44766 0.49287 0.0
H1408 H 0.67924 0.10695 0.44636 0.0
H1409 H 0.7415 0.18767 0.43739 0.0
H1410 H 0.74953 0.18909 0.50772 0.0
H1411 H 0.73231 0.17076 0.57248 0.0
H1412 H 0.6686 0.09097 0.58322 0.0
H1413 H 0.66804 0.08543 0.5119 0.0
C1414 C 0.69525 0.12441 0.45969 0.0
C1415 C 0.70971 0.14723 0.4369 0.0
C1416 C 0.69918 0.12537 0.50065 0.0
C1417 C 0.73014 0.16992 0.45448 0.0
C1418 C 0.73461 0.17079 0.49473 0.0
C1419 C 0.71905 0.15183 0.55926 0.0
C1420 C 0.70045 0.13138 0.58291 0.0
C1421 C 0.71831 0.14914 0.51831 0.0
C1422 C 0.68328 0.10694 0.5656 0.0
C1423 C 0.6827 0.10391 0.52473 0.0
H1424 H 0.57568 0.7231 0.44887 0.0
H1425 H 0.58344 0.65447 0.43254 0.0
H1426 H 0.58685 0.65075 0.50372 0.0
H1427 H 0.57761 0.66164 0.57023 0.0
H1428 H 0.56706 0.72888 0.5846 0.0
H1429 H 0.5754 0.73905 0.51494 0.0
C1430 C 0.57926 0.70802 0.46095 0.0
C1431 C 0.57934 0.6891 0.43585 0.0
C1432 C 0.58027 0.70558 0.50171 0.0
C1433 C 0.58367 0.66943 0.45148 0.0
C1434 C 0.58523 0.66711 0.49219 0.0
C1435 C 0.57826 0.67909 0.55823 0.0
C1436 C 0.57167 0.69449 0.58223 0.0
C1437 C 0.58213 0.68426 0.51765 0.0
C1438 C 0.57207 0.71681 0.56647 0.0
C1439 C 0.57666 0.72251 0.52664 0.0
H1440 H 0.56269 0.15286 0.2018 0.0
H1441 H 0.53823 0.1553 0.31998 0.0
H1442 H 0.57666 0.15423 0.34504 0.0
H1443 H 0.61551 0.14934 0.33264 0.0
H1444 H 0.64596 0.15863 0.21536 0.0
H1445 H 0.6073 0.15944 0.18993 0.0
C1446 C 0.56691 0.15576 0.23278 0.0
C1447 C 0.54811 0.15557 0.25866 0.0
C1448 C 0.59012 0.15717 0.24707 0.0
C1449 C 0.55262 0.15608 0.29925 0.0
C1450 C 0.57463 0.15547 0.31367 0.0
C1451 C 0.61474 0.15353 0.30195 0.0
C1452 C 0.63432 0.15526 0.27631 0.0
C1453 C 0.5934 0.15578 0.28784 0.0
C1454 C 0.6315 0.15791 0.2359 0.0
C1455 C 0.60942 0.15841 0.22134 0.0
H1456 H 0.48393 0.61264 0.32494 0.0
H1457 H 0.50367 0.64661 0.20961 0.0
H1458 H 0.46379 0.60883 0.18343 0.0
H1459 H 0.42516 0.56426 0.19402 0.0
H1460 H 0.39963 0.53749 0.31187 0.0
H1461 H 0.4401 0.57433 0.33722 0.0
C1462 C 0.47848 0.61312 0.29483 0.0
C1463 C 0.49607 0.63338 0.26995 0.0
C1464 C 0.45456 0.59249 0.28057 0.0
C1465 C 0.49011 0.63172 0.22974 0.0
C1466 C 0.46726 0.61014 0.21475 0.0
C1467 C 0.42705 0.56776 0.22522 0.0
C1468 C 0.40844 0.54874 0.25082 0.0
C1469 C 0.44933 0.59034 0.23995 0.0
C1470 C 0.41317 0.55212 0.29141 0.0
C1471 C 0.43632 0.57328 0.30602 0.0
H1472 H 0.8774 0.48677 0.22792 0.0
H1473 H 0.88935 0.47552 0.34893 0.0
H1474 H 0.88557 0.43314 0.334 0.0
H1475 H 0.88228 0.40068 0.285 0.0
H1476 H 0.89114 0.42285 0.16348 0.0
H1477 H 0.88434 0.4598 0.17886 0.0
C1478 C 0.8786 0.47472 0.25105 0.0
C1479 C 0.88007 0.48252 0.29041 0.0
C1480 C 0.88056 0.45242 0.24138 0.0
C1481 C 0.88425 0.46802 0.31945 0.0
C1482 C 0.88325 0.44431 0.31056 0.0
C1483 C 0.88229 0.4134 0.2619 0.0
C1484 C 0.88432 0.40751 0.22258 0.0
C1485 C 0.88143 0.43628 0.2715 0.0
C1486 C 0.88668 0.42542 0.19336 0.0
C1487 C 0.88348 0.44692 0.20232 0.0
H1488 H 0.47467 0.86992 0.19837 0.0
H1489 H 0.4986 0.86424 0.31546 0.0
H1490 H 0.46035 0.86521 0.34163 0.0
H1491 H 0.42132 0.87014 0.33047 0.0
H1492 H 0.39066 0.86222 0.21362 0.0
H1493 H 0.42993 0.86321 0.18722 0.0
C1494 C 0.47028 0.86608 0.22917 0.0
C1495 C 0.48887 0.86532 0.25442 0.0
C1496 C 0.44696 0.86418 0.24397 0.0
C1497 C 0.48432 0.86404 0.29509 0.0
C1498 C 0.46236 0.86452 0.31017 0.0
C1499 C 0.42199 0.86626 0.29965 0.0
C1500 C 0.40218 0.86451 0.27449 0.0
C1501 C 0.44354 0.86459 0.28487 0.0
C1502 C 0.40519 0.8628 0.23386 0.0
C1503 C 0.42763 0.86328 0.21871 0.0
H1504 H 0.61601 0.46576 0.19497 0.0
H1505 H 0.64475 0.48898 0.31263 0.0
H1506 H 0.60442 0.45187 0.33826 0.0
H1507 H 0.55961 0.41462 0.32634 0.0
H1508 H 0.53657 0.38451 0.20927 0.0
H1509 H 0.57645 0.42226 0.18343 0.0
C1510 C 0.61479 0.46141 0.2259 0.0
C1511 C 0.6343 0.47943 0.25149 0.0
C1512 C 0.5925 0.43881 0.24041 0.0
C1513 C 0.63048 0.47507 0.29211 0.0
C1514 C 0.6074 0.45379 0.30684 0.0
C1515 C 0.5643 0.41495 0.29564 0.0
C1516 C 0.54572 0.39581 0.27022 0.0
C1517 C 0.58822 0.43558 0.28125 0.0
C1518 C 0.55083 0.39852 0.2297 0.0
C1519 C 0.57369 0.42009 0.21488 0.0
H1520 H 0.16056 0.63142 0.28291 0.0
H1521 H 0.14196 0.60569 0.16332 0.0
H1522 H 0.14804 0.56816 0.1765 0.0
H1523 H 0.1566 0.54143 0.22328 0.0
H1524 H 0.15266 0.5557 0.34585 0.0
H1525 H 0.15835 0.59903 0.33163 0.0
C1526 C 0.15835 0.61781 0.25968 0.0
C1527 C 0.15404 0.62297 0.22096 0.0
C1528 C 0.15843 0.59441 0.26867 0.0
C1529 C 0.14862 0.60387 0.19207 0.0
C1530 C 0.1513 0.58197 0.19993 0.0
C1531 C 0.15754 0.55429 0.24689 0.0
C1532 C 0.15776 0.54692 0.28604 0.0
C1533 C 0.15643 0.57714 0.23817 0.0
C1534 C 0.15641 0.56265 0.316 0.0
C1535 C 0.15849 0.58695 0.30765 0.0
H1536 H 0.49577 0.86984 0.73056 0.0
H1537 H 0.48823 0.88469 0.85184 0.0
H1538 H 0.44623 0.88236 0.8389 0.0
H1539 H 0.41265 0.87844 0.79187 0.0
H1540 H 0.43227 0.88583 0.66949 0.0
H1541 H 0.46817 0.87703 0.68267 0.0
C1542 C 0.4846 0.87204 0.75416 0.0
C1543 C 0.49322 0.87395 0.79312 0.0
C1544 C 0.46242 0.87448 0.74557 0.0
C1545 C 0.48004 0.8795 0.8227 0.0
C1546 C 0.45649 0.87912 0.815 0.0
C1547 C 0.42452 0.87763 0.76806 0.0
C1548 C 0.41786 0.87944 0.72909 0.0
C1549 C 0.44736 0.87644 0.77646 0.0
C1550 C 0.43491 0.88092 0.69901 0.0
C1551 C 0.45603 0.87685 0.70679 0.0
H1552 H 0.61607 0.47282 0.82723 0.0
H1553 H 0.65054 0.4948 0.71241 0.0
H1554 H 0.61187 0.45675 0.68442 0.0
H1555 H 0.56683 0.41864 0.69338 0.0
H1556 H 0.5392 0.39003 0.80983 0.0
H1557 H 0.57673 0.42916 0.8373 0.0
C1558 C 0.61651 0.46806 0.79678 0.0
C1559 C 0.63719 0.48588 0.77262 0.0
C1560 C 0.59532 0.44494 0.78129 0.0
C1561 C 0.63537 0.48102 0.73202 0.0
C1562 C 0.61327 0.45919 0.71595 0.0
C1563 C 0.5702 0.41956 0.72459 0.0
C1564 C 0.55087 0.40042 0.74923 0.0
C1565 C 0.59311 0.44097 0.74035 0.0
C1566 C 0.5541 0.40396 0.79004 0.0
C1567 C 0.57566 0.42633 0.80585 0.0
H1568 H 0.15903 0.61185 0.82187 0.0
H1569 H 0.16719 0.64338 0.70552 0.0
H1570 H 0.16796 0.60517 0.67848 0.0
H1571 H 0.16266 0.56104 0.68857 0.0
H1572 H 0.16735 0.53599 0.80535 0.0
H1573 H 0.16531 0.57355 0.83237 0.0
C1574 C 0.16314 0.61153 0.79105 0.0
C1575 C 0.1644 0.63122 0.76618 0.0
C1576 C 0.16572 0.59059 0.77591 0.0
C1577 C 0.16683 0.62886 0.72554 0.0
C1578 C 0.16734 0.60704 0.71001 0.0
C1579 C 0.16571 0.56496 0.71962 0.0
C1580 C 0.16664 0.54637 0.74453 0.0
C1581 C 0.16669 0.58772 0.73493 0.0
C1582 C 0.16732 0.55032 0.78532 0.0
C1583 C 0.16618 0.57182 0.80085 0.0
H1584 H 0.63044 0.14763 0.79454 0.0
H1585 H 0.61153 0.14263 0.67213 0.0
H1586 H 0.57545 0.15098 0.68622 0.0
H1587 H 0.54726 0.1568 0.73484 0.0
H1588 H 0.55447 0.14012 0.85537 0.0
H1589 H 0.59655 0.1427 0.84184 0.0
C1590 C 0.6187 0.14888 0.77094 0.0
C1591 C 0.62566 0.1479 0.73179 0.0
C1592 C 0.5957 0.14974 0.77972 0.0
C1593 C 0.60876 0.147 0.7019 0.0
C1594 C 0.58748 0.15074 0.71018 0.0
C1595 C 0.55837 0.15424 0.75817 0.0
C1596 C 0.54954 0.1516 0.79715 0.0
C1597 C 0.58075 0.1522 0.74915 0.0
C1598 C 0.5627 0.14567 0.82628 0.0
C1599 C 0.58634 0.14627 0.81824 0.0
H1600 H 0.42371 0.55158 0.82657 0.0
H1601 H 0.38806 0.5273 0.71281 0.0
H1602 H 0.42619 0.56508 0.68316 0.0
H1603 H 0.47115 0.60353 0.69059 0.0
H1604 H 0.49922 0.63471 0.80593 0.0
H1605 H 0.4625 0.59569 0.83489 0.0
C1606 C 0.42297 0.55574 0.79593 0.0
C1607 C 0.40217 0.53742 0.77257 0.0
C1608 C 0.44368 0.57869 0.77951 0.0
C1609 C 0.4034 0.5415 0.73179 0.0
C1610 C 0.42516 0.56315 0.71477 0.0
C1611 C 0.46798 0.60317 0.7218 0.0
C1612 C 0.48727 0.62291 0.74568 0.0
C1613 C 0.44543 0.58192 0.73842 0.0
C1614 C 0.48435 0.62023 0.78665 0.0
C1615 C 0.46327 0.59795 0.80335 0.0
H1616 H 0.88268 0.41294 0.82388 0.0
H1617 H 0.8745 0.38436 0.7056 0.0
H1618 H 0.87388 0.42332 0.68163 0.0
H1619 H 0.87931 0.46728 0.69499 0.0
H1620 H 0.87504 0.48956 0.81378 0.0
H1621 H 0.87677 0.45117 0.83769 0.0
C1622 C 0.87841 0.41394 0.79333 0.0
C1623 C 0.87712 0.39483 0.76702 0.0
C1624 C 0.87601 0.43537 0.77998 0.0
C1625 C 0.87481 0.39833 0.72672 0.0
C1626 C 0.8744 0.42061 0.71295 0.0
C1627 C 0.8762 0.46256 0.72582 0.0
C1628 C 0.87542 0.48063 0.75221 0.0
C1629 C 0.87507 0.43933 0.73934 0.0
C1630 C 0.87486 0.47566 0.79264 0.0
C1631 C 0.87581 0.45365 0.80639 0.0
loop_
_geom_bond_atom_site_label_1
_geom_bond_atom_site_label_2
_geom_bond_distance
_geom_bond_site_symmetry_2
_ccdc_geom_bond_type
Mn0 O5 2.095 . S
Mn0 O15 2.162 . S
Mn0 O16 2.297 . S
Mn0 O24 2.385 . S
Mn0 O25 2.209 . S
Mn0 O26 2.094 . S
Mn1 O6 2.121 . S
Mn1 N8 2.257 . S
Mn1 N17 2.282 . S
Mn1 O25 2.215 . S
Mn1 O27 2.117 . S
C2 O24 1.234 . S
C2 O25 1.283 . S
C3 O15 1.281 . S
C3 O16 1.236 . S
C4 O26 1.240 . S
C4 O27 1.264 . S
O5 Mn0 2.095 . S
O5 C14 1.250 . S
O6 Mn1 2.121 . S
O6 C14 1.258 . S
C7 N8 1.326 . S
C7 C11 1.460 . S
C7 H13 0.929 . S
N8 Mn1 2.257 . S
N8 C7 1.326 . S
N8 C12 1.362 . S
C9 C10 1.258 . S
C9 C12 1.431 . S
C9 C29 1.449 . S
C10 C9 1.258 . S
C10 C11 1.477 . S
C10 H30 0.931 . S
C11 C7 1.460 . S
C11 C10 1.477 . S
C11 H31 0.930 . S
C12 N8 1.362 . S
C12 C9 1.431 . S
C12 C22 1.476 . S
H13 C7 0.929 . S
C14 O5 1.250 . S
C14 O6 1.258 . S
O15 Mn0 2.162 . S
O15 C3 1.281 . S
O16 Mn0 2.297 . S
O16 C3 1.236 . S
N17 Mn1 2.282 . S
N17 C18 1.328 . S
N17 C22 1.318 . S
C18 N17 1.328 . S
C18 C19 1.457 . S
C18 H23 0.929 . S
C19 C18 1.457 . S
C19 C20 1.291 . S
C19 H32 0.931 . S
C20 C19 1.291 . S
C20 C21 1.373 . S
C20 H33 0.929 . S
C21 C20 1.373 . S
C21 C22 1.396 . S
C21 C28 1.403 . S
C22 C12 1.476 . S
C22 N17 1.318 . S
C22 C21 1.396 . S
H23 C18 0.929 . S
O24 Mn0 2.385 . S
O24 C2 1.234 . S
O25 Mn0 2.209 . S
O25 Mn1 2.215 . S
O25 C2 1.283 . S
O26 Mn0 2.094 . S
O26 C4 1.240 . S
O27 Mn1 2.117 . S
O27 C4 1.264 . S
C28 C21 1.403 . S
C28 C29 1.399 . S
C28 H34 0.929 . S
C29 C9 1.449 . S
C29 C28 1.399 . S
C29 H35 0.930 . S
H30 C10 0.931 . S
H31 C11 0.930 . S
H32 C19 0.931 . S
H33 C20 0.929 . S
H34 C28 0.929 . S
H35 C29 0.930 . S
Mn36 O41 2.095 . S
Mn36 O51 2.162 . S
Mn36 O52 2.297 . S
Mn36 O60 2.385 . S
Mn36 O61 2.209 . S
Mn36 O62 2.094 . S
Mn37 O42 2.121 . S
Mn37 N44 2.257 . S
Mn37 N53 2.282 . S
Mn37 O61 2.215 . S
Mn37 O63 2.117 . S
C38 O60 1.234 . S
C38 O61 1.283 . S
C39 O51 1.281 . S
C39 O52 1.236 . S
C40 O62 1.240 . S
C40 O63 1.264 . S
O41 Mn36 2.095 . S
O41 C50 1.250 . S
O42 Mn37 2.121 . S
O42 C50 1.258 . S
C43 N44 1.326 . S
C43 C47 1.460 . S
C43 H49 0.929 . S
N44 Mn37 2.257 . S
N44 C43 1.326 . S
N44 C48 1.362 . S
C45 C46 1.258 . S
C45 C48 1.431 . S
C45 C65 1.449 . S
C46 C45 1.258 . S
C46 C47 1.477 . S
C46 H66 0.931 . S
C47 C43 1.460 . S
C47 C46 1.477 . S
C47 H67 0.930 . S
C48 N44 1.362 . S
C48 C45 1.431 . S
C48 C58 1.476 . S
H49 C43 0.929 . S
C50 O41 1.250 . S
C50 O42 1.258 . S
O51 Mn36 2.162 . S
O51 C39 1.281 . S
O52 Mn36 2.297 . S
O52 C39 1.236 . S
N53 Mn37 2.282 . S
N53 C54 1.328 . S
N53 C58 1.318 . S
C54 N53 1.328 . S
C54 C55 1.457 . S
C54 H59 0.929 . S
C55 C54 1.457 . S
C55 C56 1.291 . S
C55 H68 0.931 . S
C56 C55 1.291 . S
C56 C57 1.373 . S
C56 H69 0.929 . S
C57 C56 1.373 . S
C57 C58 1.396 . S
C57 C64 1.403 . S
C58 C48 1.476 . S
C58 N53 1.318 . S
C58 C57 1.396 . S
H59 C54 0.929 . S
O60 Mn36 2.385 . S
O60 C38 1.234 . S
O61 Mn36 2.209 . S
O61 Mn37 2.215 . S
O61 C38 1.283 . S
O62 Mn36 2.094 . S
O62 C40 1.240 . S
O63 Mn37 2.117 . S
O63 C40 1.264 . S
C64 C57 1.403 . S
C64 C65 1.399 . S
C64 H70 0.929 . S
C65 C45 1.449 . S
C65 C64 1.399 . S
C65 H71 0.930 . S
H66 C46 0.931 . S
H67 C47 0.930 . S
H68 C55 0.931 . S
H69 C56 0.929 . S
H70 C64 0.929 . S
H71 C65 0.930 . S
Mn72 O77 2.095 . S
Mn72 O87 2.162 . S
Mn72 O88 2.297 . S
Mn72 O96 2.385 . S
Mn72 O97 2.209 . S
Mn72 O98 2.094 . S
Mn73 O78 2.121 . S
Mn73 N80 2.257 . S
Mn73 N89 2.282 . S
Mn73 O97 2.215 . S
Mn73 O99 2.117 . S
C74 O96 1.234 . S
C74 O97 1.283 . S
C75 O87 1.281 . S
C75 O88 1.236 . S
C76 O98 1.240 . S
C76 O99 1.264 . S
O77 Mn72 2.095 . S
O77 C86 1.250 . S
O78 Mn73 2.121 . S
O78 C86 1.258 . S
C79 N80 1.326 . S
C79 C83 1.460 . S
C79 H85 0.929 . S
N80 Mn73 2.257 . S
N80 C79 1.326 . S
N80 C84 1.362 . S
C81 C82 1.258 . S
C81 C84 1.431 . S
C81 C101 1.449 . S
C82 C81 1.258 . S
C82 C83 1.477 . S
C82 H102 0.931 . S
C83 C79 1.460 . S
C83 C82 1.477 . S
C83 H103 0.930 . S
C84 N80 1.362 . S
C84 C81 1.431 . S
C84 C94 1.476 . S
H85 C79 0.929 . S
C86 O77 1.250 . S
C86 O78 1.258 . S
O87 Mn72 2.162 . S
O87 C75 1.281 . S
O88 Mn72 2.297 . S
O88 C75 1.236 . S
N89 Mn73 2.282 . S
N89 C90 1.328 . S
N89 C94 1.318 . S
C90 N89 1.328 . S
C90 C91 1.457 . S
C90 H95 0.929 . S
C91 C90 1.457 . S
C91 C92 1.291 . S
C91 H104 0.931 . S
C92 C91 1.291 . S
C92 C93 1.373 . S
C92 H105 0.929 . S
C93 C92 1.373 . S
C93 C94 1.396 . S
C93 C100 1.403 . S
C94 C84 1.476 . S
C94 N89 1.318 . S
C94 C93 1.396 . S
H95 C90 0.929 . S
O96 Mn72 2.385 . S
O96 C74 1.234 . S
O97 Mn72 2.209 . S
O97 Mn73 2.215 . S
O97 C74 1.283 . S
O98 Mn72 2.094 . S
O98 C76 1.240 . S
O99 Mn73 2.117 . S
O99 C76 1.264 . S
C100 C93 1.403 . S
C100 C101 1.399 . S
C100 H106 0.929 . S
C101 C81 1.449 . S
C101 C100 1.399 . S
C101 H107 0.930 . S
H102 C82 0.931 . S
H103 C83 0.930 . S
H104 C91 0.931 . S
H105 C92 0.929 . S
H106 C100 0.929 . S
H107 C101 0.930 . S
Mn108 O113 2.095 . S
Mn108 O123 2.162 . S
Mn108 O124 2.297 . S
Mn108 O132 2.385 . S
Mn108 O133 2.209 . S
Mn108 O134 2.094 . S
Mn109 O114 2.121 . S
Mn109 N116 2.257 . S
Mn109 N125 2.282 . S
Mn109 O133 2.215 . S
Mn109 O135 2.117 . S
C110 O132 1.234 . S
C110 O133 1.283 . S
C111 O123 1.281 . S
C111 O124 1.236 . S
C112 O134 1.240 . S
C112 O135 1.264 . S
O113 Mn108 2.095 . S
O113 C122 1.250 . S
O114 Mn109 2.121 . S
O114 C122 1.258 . S
C115 N116 1.326 . S
C115 C119 1.460 . S
C115 H121 0.929 . S
N116 Mn109 2.257 . S
N116 C115 1.326 . S
N116 C120 1.362 . S
C117 C118 1.258 . S
C117 C120 1.431 . S
C117 C137 1.449 . S
C118 C117 1.258 . S
C118 C119 1.477 . S
C118 H138 0.931 . S
C119 C115 1.460 . S
C119 C118 1.477 . S
C119 H139 0.930 . S
C120 N116 1.362 . S
C120 C117 1.431 . S
C120 C130 1.476 . S
H121 C115 0.929 . S
C122 O113 1.250 . S
C122 O114 1.258 . S
O123 Mn108 2.162 . S
O123 C111 1.281 . S
O124 Mn108 2.297 . S
O124 C111 1.236 . S
N125 Mn109 2.282 . S
N125 C126 1.328 . S
N125 C130 1.318 . S
C126 N125 1.328 . S
C126 C127 1.457 . S
C126 H131 0.929 . S
C127 C126 1.457 . S
C127 C128 1.291 . S
C127 H140 0.931 . S
C128 C127 1.291 . S
C128 C129 1.373 . S
C128 H141 0.929 . S
C129 C128 1.373 . S
C129 C130 1.396 . S
C129 C136 1.403 . S
C130 C120 1.476 . S
C130 N125 1.318 . S
C130 C129 1.396 . S
H131 C126 0.929 . S
O132 Mn108 2.385 . S
O132 C110 1.234 . S
O133 Mn108 2.209 . S
O133 Mn109 2.215 . S
O133 C110 1.283 . S
O134 Mn108 2.094 . S
O134 C112 1.240 . S
O135 Mn109 2.117 . S
O135 C112 1.264 . S
C136 C129 1.403 . S
C136 C137 1.399 . S
C136 H142 0.929 . S
C137 C117 1.449 . S
C137 C136 1.399 . S
C137 H143 0.930 . S
H138 C118 0.931 . S
H139 C119 0.930 . S
H140 C127 0.931 . S
H141 C128 0.929 . S
H142 C136 0.929 . S
H143 C137 0.930 . S
Mn144 O149 2.095 . S
Mn144 O159 2.162 . S
Mn144 O160 2.297 . S
Mn144 O168 2.385 . S
Mn144 O169 2.209 . S
Mn144 O170 2.094 . S
Mn145 O150 2.121 . S
Mn145 N152 2.257 . S
Mn145 N161 2.282 . S
Mn145 O169 2.215 . S
Mn145 O171 2.117 . S
C146 O168 1.234 . S
C146 O169 1.283 . S
C147 O159 1.281 . S
C147 O160 1.236 . S
C148 O170 1.240 . S
C148 O171 1.264 . S
O149 Mn144 2.095 . S
O149 C158 1.250 . S
O150 Mn145 2.121 . S
O150 C158 1.258 . S
C151 N152 1.326 . S
C151 C155 1.460 . S
C151 H157 0.929 . S
N152 Mn145 2.257 . S
N152 C151 1.326 . S
N152 C156 1.362 . S
C153 C154 1.258 . S
C153 C156 1.431 . S
C153 C173 1.449 . S
C154 C153 1.258 . S
C154 C155 1.477 . S
C154 H174 0.931 . S
C155 C151 1.460 . S
C155 C154 1.477 . S
C155 H175 0.930 . S
C156 N152 1.362 . S
C156 C153 1.431 . S
C156 C166 1.476 . S
H157 C151 0.929 . S
C158 O149 1.250 . S
C158 O150 1.258 . S
O159 Mn144 2.162 . S
O159 C147 1.281 . S
O160 Mn144 2.297 . S
O160 C147 1.236 . S
N161 Mn145 2.282 . S
N161 C162 1.328 . S
N161 C166 1.318 . S
C162 N161 1.328 . S
C162 C163 1.457 . S
C162 H167 0.929 . S
C163 C162 1.457 . S
C163 C164 1.291 . S
C163 H176 0.931 . S
C164 C163 1.291 . S
C164 C165 1.373 . S
C164 H177 0.929 . S
C165 C164 1.373 . S
C165 C166 1.396 . S
C165 C172 1.403 . S
C166 C156 1.476 . S
C166 N161 1.318 . S
C166 C165 1.396 . S
H167 C162 0.929 . S
O168 Mn144 2.385 . S
O168 C146 1.234 . S
O169 Mn144 2.209 . S
O169 Mn145 2.215 . S
O169 C146 1.283 . S
O170 Mn144 2.094 . S
O170 C148 1.240 . S
O171 Mn145 2.117 . S
O171 C148 1.264 . S
C172 C165 1.403 . S
C172 C173 1.399 . S
C172 H178 0.929 . S
C173 C153 1.449 . S
C173 C172 1.399 . S
C173 H179 0.930 . S
H174 C154 0.931 . S
H175 C155 0.930 . S
H176 C163 0.931 . S
H177 C164 0.929 . S
H178 C172 0.929 . S
H179 C173 0.930 . S
Mn180 O185 2.095 . S
Mn180 O195 2.162 . S
Mn180 O196 2.297 . S
Mn180 O204 2.385 . S
Mn180 O205 2.209 . S
Mn180 O206 2.094 . S
Mn181 O186 2.121 . S
Mn181 N188 2.257 . S
Mn181 N197 2.282 . S
Mn181 O205 2.215 . S
Mn181 O207 2.117 . S
C182 O204 1.234 . S
C182 O205 1.283 . S
C183 O195 1.281 . S
C183 O196 1.236 . S
C184 O206 1.240 . S
C184 O207 1.264 . S
O185 Mn180 2.095 . S
O185 C194 1.250 . S
O186 Mn181 2.121 . S
O186 C194 1.258 . S
C187 N188 1.326 . S
C187 C191 1.460 . S
C187 H193 0.929 . S
N188 Mn181 2.257 . S
N188 C187 1.326 . S
N188 C192 1.362 . S
C189 C190 1.258 . S
C189 C192 1.431 . S
C189 C209 1.449 . S
C190 C189 1.258 . S
C190 C191 1.477 . S
C190 H210 0.931 . S
C191 C187 1.460 . S
C191 C190 1.477 . S
C191 H211 0.930 . S
C192 N188 1.362 . S
C192 C189 1.431 . S
C192 C202 1.476 . S
H193 C187 0.929 . S
C194 O185 1.250 . S
C194 O186 1.258 . S
O195 Mn180 2.162 . S
O195 C183 1.281 . S
O196 Mn180 2.297 . S
O196 C183 1.236 . S
N197 Mn181 2.282 . S
N197 C198 1.328 . S
N197 C202 1.318 . S
C198 N197 1.328 . S
C198 C199 1.457 . S
C198 H203 0.929 . S
C199 C198 1.457 . S
C199 C200 1.291 . S
C199 H212 0.931 . S
C200 C199 1.291 . S
C200 C201 1.373 . S
C200 H213 0.929 . S
C201 C200 1.373 . S
C201 C202 1.396 . S
C201 C208 1.403 . S
C202 C192 1.476 . S
C202 N197 1.318 . S
C202 C201 1.396 . S
H203 C198 0.929 . S
O204 Mn180 2.385 . S
O204 C182 1.234 . S
O205 Mn180 2.209 . S
O205 Mn181 2.215 . S
O205 C182 1.283 . S
O206 Mn180 2.094 . S
O206 C184 1.240 . S
O207 Mn181 2.117 . S
O207 C184 1.264 . S
C208 C201 1.403 . S
C208 C209 1.399 . S
C208 H214 0.929 . S
C209 C189 1.449 . S
C209 C208 1.399 . S
C209 H215 0.930 . S
H210 C190 0.931 . S
H211 C191 0.930 . S
H212 C199 0.931 . S
H213 C200 0.929 . S
H214 C208 0.929 . S
H215 C209 0.930 . S
Mn216 O221 2.095 . S
Mn216 O231 2.162 . S
Mn216 O232 2.297 . S
Mn216 O240 2.385 . S
Mn216 O241 2.209 . S
Mn216 O242 2.094 . S
Mn217 O222 2.121 . S
Mn217 N224 2.257 . S
Mn217 N233 2.282 . S
Mn217 O241 2.215 . S
Mn217 O243 2.117 . S
C218 O240 1.234 . S
C218 O241 1.283 . S
C219 O231 1.281 . S
C219 O232 1.236 . S
C220 O242 1.240 . S
C220 O243 1.264 . S
O221 Mn216 2.095 . S
O221 C230 1.250 . S
O222 Mn217 2.121 . S
O222 C230 1.258 . S
C223 N224 1.326 . S
C223 C227 1.460 . S
C223 H229 0.929 . S
N224 Mn217 2.257 . S
N224 C223 1.326 . S
N224 C228 1.362 . S
C225 C226 1.258 . S
C225 C228 1.431 . S
C225 C245 1.449 . S
C226 C225 1.258 . S
C226 C227 1.477 . S
C226 H246 0.931 . S
C227 C223 1.460 . S
C227 C226 1.477 . S
C227 H247 0.930 . S
C228 N224 1.362 . S
C228 C225 1.431 . S
C228 C238 1.476 . S
H229 C223 0.929 . S
C230 O221 1.250 . S
C230 O222 1.258 . S
O231 Mn216 2.162 . S
O231 C219 1.281 . S
O232 Mn216 2.297 . S
O232 C219 1.236 . S
N233 Mn217 2.282 . S
N233 C234 1.328 . S
N233 C238 1.318 . S
C234 N233 1.328 . S
C234 C235 1.457 . S
C234 H239 0.929 . S
C235 C234 1.457 . S
C235 C236 1.291 . S
C235 H248 0.931 . S
C236 C235 1.291 . S
C236 C237 1.373 . S
C236 H249 0.929 . S
C237 C236 1.373 . S
C237 C238 1.396 . S
C237 C244 1.403 . S
C238 C228 1.476 . S
C238 N233 1.318 . S
C238 C237 1.396 . S
H239 C234 0.929 . S
O240 Mn216 2.385 . S
O240 C218 1.234 . S
O241 Mn216 2.209 . S
O241 Mn217 2.215 . S
O241 C218 1.283 . S
O242 Mn216 2.094 . S
O242 C220 1.240 . S
O243 Mn217 2.117 . S
O243 C220 1.264 . S
C244 C237 1.403 . S
C244 C245 1.399 . S
C244 H250 0.929 . S
C245 C225 1.449 . S
C245 C244 1.399 . S
C245 H251 0.930 . S
H246 C226 0.931 . S
H247 C227 0.930 . S
H248 C235 0.931 . S
H249 C236 0.929 . S
H250 C244 0.929 . S
H251 C245 0.930 . S
Mn252 O257 2.095 . S
Mn252 O267 2.162 . S
Mn252 O268 2.297 . S
Mn252 O276 2.385 . S
Mn252 O277 2.209 . S
Mn252 O278 2.094 . S
Mn253 O258 2.121 . S
Mn253 N260 2.257 . S
Mn253 N269 2.282 . S
Mn253 O277 2.215 . S
Mn253 O279 2.117 . S
C254 O276 1.234 . S
C254 O277 1.283 . S
C255 O267 1.281 . S
C255 O268 1.236 . S
C256 O278 1.240 . S
C256 O279 1.264 . S
O257 Mn252 2.095 . S
O257 C266 1.250 . S
O258 Mn253 2.121 . S
O258 C266 1.258 . S
C259 N260 1.326 . S
C259 C263 1.460 . S
C259 H265 0.929 . S
N260 Mn253 2.257 . S
N260 C259 1.326 . S
N260 C264 1.362 . S
C261 C262 1.258 . S
C261 C264 1.431 . S
C261 C281 1.449 . S
C262 C261 1.258 . S
C262 C263 1.477 . S
C262 H282 0.931 . S
C263 C259 1.460 . S
C263 C262 1.477 . S
C263 H283 0.930 . S
C264 N260 1.362 . S
C264 C261 1.431 . S
C264 C274 1.476 . S
H265 C259 0.929 . S
C266 O257 1.250 . S
C266 O258 1.258 . S
O267 Mn252 2.162 . S
O267 C255 1.281 . S
O268 Mn252 2.297 . S
O268 C255 1.236 . S
N269 Mn253 2.282 . S
N269 C270 1.328 . S
N269 C274 1.318 . S
C270 N269 1.328 . S
C270 C271 1.457 . S
C270 H275 0.929 . S
C271 C270 1.457 . S
C271 C272 1.291 . S
C271 H284 0.931 . S
C272 C271 1.291 . S
C272 C273 1.373 . S
C272 H285 0.929 . S
C273 C272 1.373 . S
C273 C274 1.396 . S
C273 C280 1.403 . S
C274 C264 1.476 . S
C274 N269 1.318 . S
C274 C273 1.396 . S
H275 C270 0.929 . S
O276 Mn252 2.385 . S
O276 C254 1.234 . S
O277 Mn252 2.209 . S
O277 Mn253 2.215 . S
O277 C254 1.283 . S
O278 Mn252 2.094 . S
O278 C256 1.240 . S
O279 Mn253 2.117 . S
O279 C256 1.264 . S
C280 C273 1.403 . S
C280 C281 1.399 . S
C280 H286 0.929 . S
C281 C261 1.449 . S
C281 C280 1.399 . S
C281 H287 0.930 . S
H282 C262 0.931 . S
H283 C263 0.930 . S
H284 C271 0.931 . S
H285 C272 0.929 . S
H286 C280 0.929 . S
H287 C281 0.930 . S
Mn288 O293 2.095 . S
Mn288 O303 2.162 . S
Mn288 O304 2.297 . S
Mn288 O312 2.385 . S
Mn288 O313 2.209 . S
Mn288 O314 2.094 . S
Mn289 O294 2.121 . S
Mn289 N296 2.257 . S
Mn289 N305 2.282 . S
Mn289 O313 2.215 . S
Mn289 O315 2.117 . S
C290 O312 1.234 . S
C290 O313 1.283 . S
C291 O303 1.281 . S
C291 O304 1.236 . S
C292 O314 1.240 . S
C292 O315 1.264 . S
O293 Mn288 2.095 . S
O293 C302 1.250 . S
O294 Mn289 2.121 . S
O294 C302 1.258 . S
C295 N296 1.326 . S
C295 C299 1.460 . S
C295 H301 0.929 . S
N296 Mn289 2.257 . S
N296 C295 1.326 . S
N296 C300 1.362 . S
C297 C298 1.258 . S
C297 C300 1.431 . S
C297 C317 1.449 . S
C298 C297 1.258 . S
C298 C299 1.477 . S
C298 H318 0.931 . S
C299 C295 1.460 . S
C299 C298 1.477 . S
C299 H319 0.930 . S
C300 N296 1.362 . S
C300 C297 1.431 . S
C300 C310 1.476 . S
H301 C295 0.929 . S
C302 O293 1.250 . S
C302 O294 1.258 . S
O303 Mn288 2.162 . S
O303 C291 1.281 . S
O304 Mn288 2.297 . S
O304 C291 1.236 . S
N305 Mn289 2.282 . S
N305 C306 1.328 . S
N305 C310 1.318 . S
C306 N305 1.328 . S
C306 C307 1.457 . S
C306 H311 0.929 . S
C307 C306 1.457 . S
C307 C308 1.291 . S
C307 H320 0.931 . S
C308 C307 1.291 . S
C308 C309 1.373 . S
C308 H321 0.929 . S
C309 C308 1.373 . S
C309 C310 1.396 . S
C309 C316 1.403 . S
C310 C300 1.476 . S
C310 N305 1.318 . S
C310 C309 1.396 . S
H311 C306 0.929 . S
O312 Mn288 2.385 . S
O312 C290 1.234 . S
O313 Mn288 2.209 . S
O313 Mn289 2.215 . S
O313 C290 1.283 . S
O314 Mn288 2.094 . S
O314 C292 1.240 . S
O315 Mn289 2.117 . S
O315 C292 1.264 . S
C316 C309 1.403 . S
C316 C317 1.399 . S
C316 H322 0.929 . S
C317 C297 1.449 . S
C317 C316 1.399 . S
C317 H323 0.930 . S
H318 C298 0.931 . S
H319 C299 0.930 . S
H320 C307 0.931 . S
H321 C308 0.929 . S
H322 C316 0.929 . S
H323 C317 0.930 . S
Mn324 O329 2.095 . S
Mn324 O339 2.162 . S
Mn324 O340 2.297 . S
Mn324 O348 2.385 . S
Mn324 O349 2.209 . S
Mn324 O350 2.094 . S
Mn325 O330 2.121 . S
Mn325 N332 2.257 . S
Mn325 N341 2.282 . S
Mn325 O349 2.215 . S
Mn325 O351 2.117 . S
C326 O348 1.234 . S
C326 O349 1.283 . S
C327 O339 1.281 . S
C327 O340 1.236 . S
C328 O350 1.240 . S
C328 O351 1.264 . S
O329 Mn324 2.095 . S
O329 C338 1.250 . S
O330 Mn325 2.121 . S
O330 C338 1.258 . S
C331 N332 1.326 . S
C331 C335 1.460 . S
C331 H337 0.929 . S
N332 Mn325 2.257 . S
N332 C331 1.326 . S
N332 C336 1.362 . S
C333 C334 1.258 . S
C333 C336 1.431 . S
C333 C353 1.449 . S
C334 C333 1.258 . S
C334 C335 1.477 . S
C334 H354 0.931 . S
C335 C331 1.460 . S
C335 C334 1.477 . S
C335 H355 0.930 . S
C336 N332 1.362 . S
C336 C333 1.431 . S
C336 C346 1.476 . S
H337 C331 0.929 . S
C338 O329 1.250 . S
C338 O330 1.258 . S
O339 Mn324 2.162 . S
O339 C327 1.281 . S
O340 Mn324 2.297 . S
O340 C327 1.236 . S
N341 Mn325 2.282 . S
N341 C342 1.328 . S
N341 C346 1.318 . S
C342 N341 1.328 . S
C342 C343 1.457 . S
C342 H347 0.929 . S
C343 C342 1.457 . S
C343 C344 1.291 . S
C343 H356 0.931 . S
C344 C343 1.291 . S
C344 C345 1.373 . S
C344 H357 0.929 . S
C345 C344 1.373 . S
C345 C346 1.396 . S
C345 C352 1.403 . S
C346 C336 1.476 . S
C346 N341 1.318 . S
C346 C345 1.396 . S
H347 C342 0.929 . S
O348 Mn324 2.385 . S
O348 C326 1.234 . S
O349 Mn324 2.209 . S
O349 Mn325 2.215 . S
O349 C326 1.283 . S
O350 Mn324 2.094 . S
O350 C328 1.240 . S
O351 Mn325 2.117 . S
O351 C328 1.264 . S
C352 C345 1.403 . S
C352 C353 1.399 . S
C352 H358 0.929 . S
C353 C333 1.449 . S
C353 C352 1.399 . S
C353 H359 0.930 . S
H354 C334 0.931 . S
H355 C335 0.930 . S
H356 C343 0.931 . S
H357 C344 0.929 . S
H358 C352 0.929 . S
H359 C353 0.930 . S
Mn360 O365 2.095 . S
Mn360 O375 2.162 . S
Mn360 O376 2.297 . S
Mn360 O384 2.385 . S
Mn360 O385 2.209 . S
Mn360 O386 2.094 . S
Mn361 O366 2.121 . S
Mn361 N368 2.257 . S
Mn361 N377 2.282 . S
Mn361 O385 2.215 . S
Mn361 O387 2.117 . S
C362 O384 1.234 . S
C362 O385 1.283 . S
C363 O375 1.281 . S
C363 O376 1.236 . S
C364 O386 1.240 . S
C364 O387 1.264 . S
O365 Mn360 2.095 . S
O365 C374 1.250 . S
O366 Mn361 2.121 . S
O366 C374 1.258 . S
C367 N368 1.326 . S
C367 C371 1.460 . S
C367 H373 0.929 . S
N368 Mn361 2.257 . S
N368 C367 1.326 . S
N368 C372 1.362 . S
C369 C370 1.258 . S
C369 C372 1.431 . S
C369 C389 1.449 . S
C370 C369 1.258 . S
C370 C371 1.477 . S
C370 H390 0.931 . S
C371 C367 1.460 . S
C371 C370 1.477 . S
C371 H391 0.930 . S
C372 N368 1.362 . S
C372 C369 1.431 . S
C372 C382 1.476 . S
H373 C367 0.929 . S
C374 O365 1.250 . S
C374 O366 1.258 . S
O375 Mn360 2.162 . S
O375 C363 1.281 . S
O376 Mn360 2.297 . S
O376 C363 1.236 . S
N377 Mn361 2.282 . S
N377 C378 1.328 . S
N377 C382 1.318 . S
C378 N377 1.328 . S
C378 C379 1.457 . S
C378 H383 0.929 . S
C379 C378 1.457 . S
C379 C380 1.291 . S
C379 H392 0.931 . S
C380 C379 1.291 . S
C380 C381 1.373 . S
C380 H393 0.929 . S
C381 C380 1.373 . S
C381 C382 1.396 . S
C381 C388 1.403 . S
C382 C372 1.476 . S
C382 N377 1.318 . S
C382 C381 1.396 . S
H383 C378 0.929 . S
O384 Mn360 2.385 . S
O384 C362 1.234 . S
O385 Mn360 2.209 . S
O385 Mn361 2.215 . S
O385 C362 1.283 . S
O386 Mn360 2.094 . S
O386 C364 1.240 . S
O387 Mn361 2.117 . S
O387 C364 1.264 . S
C388 C381 1.403 . S
C388 C389 1.399 . S
C388 H394 0.929 . S
C389 C369 1.449 . S
C389 C388 1.399 . S
C389 H395 0.930 . S
H390 C370 0.931 . S
H391 C371 0.930 . S
H392 C379 0.931 . S
H393 C380 0.929 . S
H394 C388 0.929 . S
H395 C389 0.930 . S
Mn396 O401 2.095 . S
Mn396 O411 2.162 . S
Mn396 O412 2.297 . S
Mn396 O420 2.385 . S
Mn396 O421 2.209 . S
Mn396 O422 2.094 . S
Mn397 O402 2.121 . S
Mn397 N404 2.257 . S
Mn397 N413 2.282 . S
Mn397 O421 2.215 . S
Mn397 O423 2.117 . S
C398 O420 1.234 . S
C398 O421 1.283 . S
C399 O411 1.281 . S
C399 O412 1.236 . S
C400 O422 1.240 . S
C400 O423 1.264 . S
O401 Mn396 2.095 . S
O401 C410 1.250 . S
O402 Mn397 2.121 . S
O402 C410 1.258 . S
C403 N404 1.326 . S
C403 C407 1.460 . S
C403 H409 0.929 . S
N404 Mn397 2.257 . S
N404 C403 1.326 . S
N404 C408 1.362 . S
C405 C406 1.258 . S
C405 C408 1.431 . S
C405 C425 1.449 . S
C406 C405 1.258 . S
C406 C407 1.477 . S
C406 H426 0.931 . S
C407 C403 1.460 . S
C407 C406 1.477 . S
C407 H427 0.930 . S
C408 N404 1.362 . S
C408 C405 1.431 . S
C408 C418 1.476 . S
H409 C403 0.929 . S
C410 O401 1.250 . S
C410 O402 1.258 . S
O411 Mn396 2.162 . S
O411 C399 1.281 . S
O412 Mn396 2.297 . S
O412 C399 1.236 . S
N413 Mn397 2.282 . S
N413 C414 1.328 . S
N413 C418 1.318 . S
C414 N413 1.328 . S
C414 C415 1.457 . S
C414 H419 0.929 . S
C415 C414 1.457 . S
C415 C416 1.291 . S
C415 H428 0.931 . S
C416 C415 1.291 . S
C416 C417 1.373 . S
C416 H429 0.929 . S
C417 C416 1.373 . S
C417 C418 1.396 . S
C417 C424 1.403 . S
C418 C408 1.476 . S
C418 N413 1.318 . S
C418 C417 1.396 . S
H419 C414 0.929 . S
O420 Mn396 2.385 . S
O420 C398 1.234 . S
O421 Mn396 2.209 . S
O421 Mn397 2.215 . S
O421 C398 1.283 . S
O422 Mn396 2.094 . S
O422 C400 1.240 . S
O423 Mn397 2.117 . S
O423 C400 1.264 . S
C424 C417 1.403 . S
C424 C425 1.399 . S
C424 H430 0.929 . S
C425 C405 1.449 . S
C425 C424 1.399 . S
C425 H431 0.930 . S
H426 C406 0.931 . S
H427 C407 0.930 . S
H428 C415 0.931 . S
H429 C416 0.929 . S
H430 C424 0.929 . S
H431 C425 0.930 . S
Mn432 O437 2.095 . S
Mn432 O447 2.162 . S
Mn432 O448 2.297 . S
Mn432 O456 2.385 . S
Mn432 O457 2.209 . S
Mn432 O458 2.094 . S
Mn433 O438 2.121 . S
Mn433 N440 2.257 . S
Mn433 N449 2.282 . S
Mn433 O457 2.215 . S
Mn433 O459 2.117 . S
C434 O456 1.234 . S
C434 O457 1.283 . S
C435 O447 1.281 . S
C435 O448 1.236 . S
C436 O458 1.240 . S
C436 O459 1.264 . S
O437 Mn432 2.095 . S
O437 C446 1.250 . S
O438 Mn433 2.121 . S
O438 C446 1.258 . S
C439 N440 1.326 . S
C439 C443 1.460 . S
C439 H445 0.929 . S
N440 Mn433 2.257 . S
N440 C439 1.326 . S
N440 C444 1.362 . S
C441 C442 1.258 . S
C441 C444 1.431 . S
C441 C461 1.449 . S
C442 C441 1.258 . S
C442 C443 1.477 . S
C442 H462 0.931 . S
C443 C439 1.460 . S
C443 C442 1.477 . S
C443 H463 0.930 . S
C444 N440 1.362 . S
C444 C441 1.431 . S
C444 C454 1.476 . S
H445 C439 0.929 . S
C446 O437 1.250 . S
C446 O438 1.258 . S
O447 Mn432 2.162 . S
O447 C435 1.281 . S
O448 Mn432 2.297 . S
O448 C435 1.236 . S
N449 Mn433 2.282 . S
N449 C450 1.328 . S
N449 C454 1.318 . S
C450 N449 1.328 . S
C450 C451 1.457 . S
C450 H455 0.929 . S
C451 C450 1.457 . S
C451 C452 1.291 . S
C451 H464 0.931 . S
C452 C451 1.291 . S
C452 C453 1.373 . S
C452 H465 0.929 . S
C453 C452 1.373 . S
C453 C454 1.396 . S
C453 C460 1.403 . S
C454 C444 1.476 . S
C454 N449 1.318 . S
C454 C453 1.396 . S
H455 C450 0.929 . S
O456 Mn432 2.385 . S
O456 C434 1.234 . S
O457 Mn432 2.209 . S
O457 Mn433 2.215 . S
O457 C434 1.283 . S
O458 Mn432 2.094 . S
O458 C436 1.240 . S
O459 Mn433 2.117 . S
O459 C436 1.264 . S
C460 C453 1.403 . S
C460 C461 1.399 . S
C460 H466 0.929 . S
C461 C441 1.449 . S
C461 C460 1.399 . S
C461 H467 0.930 . S
H462 C442 0.931 . S
H463 C443 0.930 . S
H464 C451 0.931 . S
H465 C452 0.929 . S
H466 C460 0.929 . S
H467 C461 0.930 . S
Mn468 O473 2.095 . S
Mn468 O483 2.162 . S
Mn468 O484 2.297 . S
Mn468 O492 2.385 . S
Mn468 O493 2.209 . S
Mn468 O494 2.094 . S
Mn469 O474 2.121 . S
Mn469 N476 2.257 . S
Mn469 N485 2.282 . S
Mn469 O493 2.215 . S
Mn469 O495 2.117 . S
C470 O492 1.234 . S
C470 O493 1.283 . S
C471 O483 1.281 . S
C471 O484 1.236 . S
C472 O494 1.240 . S
C472 O495 1.264 . S
O473 Mn468 2.095 . S
O473 C482 1.250 . S
O474 Mn469 2.121 . S
O474 C482 1.258 . S
C475 N476 1.326 . S
C475 C479 1.460 . S
C475 H481 0.929 . S
N476 Mn469 2.257 . S
N476 C475 1.326 . S
N476 C480 1.362 . S
C477 C478 1.258 . S
C477 C480 1.431 . S
C477 C497 1.449 . S
C478 C477 1.258 . S
C478 C479 1.477 . S
C478 H498 0.931 . S
C479 C475 1.460 . S
C479 C478 1.477 . S
C479 H499 0.930 . S
C480 N476 1.362 . S
C480 C477 1.431 . S
C480 C490 1.476 . S
H481 C475 0.929 . S
C482 O473 1.250 . S
C482 O474 1.258 . S
O483 Mn468 2.162 . S
O483 C471 1.281 . S
O484 Mn468 2.297 . S
O484 C471 1.236 . S
N485 Mn469 2.282 . S
N485 C486 1.328 . S
N485 C490 1.318 . S
C486 N485 1.328 . S
C486 C487 1.457 . S
C486 H491 0.929 . S
C487 C486 1.457 . S
C487 C488 1.291 . S
C487 H500 0.931 . S
C488 C487 1.291 . S
C488 C489 1.373 . S
C488 H501 0.929 . S
C489 C488 1.373 . S
C489 C490 1.396 . S
C489 C496 1.403 . S
C490 C480 1.476 . S
C490 N485 1.318 . S
C490 C489 1.396 . S
H491 C486 0.929 . S
O492 Mn468 2.385 . S
O492 C470 1.234 . S
O493 Mn468 2.209 . S
O493 Mn469 2.215 . S
O493 C470 1.283 . S
O494 Mn468 2.094 . S
O494 C472 1.240 . S
O495 Mn469 2.117 . S
O495 C472 1.264 . S
C496 C489 1.403 . S
C496 C497 1.399 . S
C496 H502 0.929 . S
C497 C477 1.449 . S
C497 C496 1.399 . S
C497 H503 0.930 . S
H498 C478 0.931 . S
H499 C479 0.930 . S
H500 C487 0.931 . S
H501 C488 0.929 . S
H502 C496 0.929 . S
H503 C497 0.930 . S
Mn504 O509 2.095 . S
Mn504 O519 2.162 . S
Mn504 O520 2.297 . S
Mn504 O528 2.385 . S
Mn504 O529 2.209 . S
Mn504 O530 2.094 . S
Mn505 O510 2.121 . S
Mn505 N512 2.257 . S
Mn505 N521 2.282 . S
Mn505 O529 2.215 . S
Mn505 O531 2.117 . S
C506 O528 1.234 . S
C506 O529 1.283 . S
C507 O519 1.281 . S
C507 O520 1.236 . S
C508 O530 1.240 . S
C508 O531 1.264 . S
O509 Mn504 2.095 . S
O509 C518 1.250 . S
O510 Mn505 2.121 . S
O510 C518 1.258 . S
C511 N512 1.326 . S
C511 C515 1.460 . S
C511 H517 0.929 . S
N512 Mn505 2.257 . S
N512 C511 1.326 . S
N512 C516 1.362 . S
C513 C514 1.258 . S
C513 C516 1.431 . S
C513 C533 1.449 . S
C514 C513 1.258 . S
C514 C515 1.477 . S
C514 H534 0.931 . S
C515 C511 1.460 . S
C515 C514 1.477 . S
C515 H535 0.930 . S
C516 N512 1.362 . S
C516 C513 1.431 . S
C516 C526 1.476 . S
H517 C511 0.929 . S
C518 O509 1.250 . S
C518 O510 1.258 . S
O519 Mn504 2.162 . S
O519 C507 1.281 . S
O520 Mn504 2.297 . S
O520 C507 1.236 . S
N521 Mn505 2.282 . S
N521 C522 1.328 . S
N521 C526 1.318 . S
C522 N521 1.328 . S
C522 C523 1.457 . S
C522 H527 0.929 . S
C523 C522 1.457 . S
C523 C524 1.291 . S
C523 H536 0.931 . S
C524 C523 1.291 . S
C524 C525 1.373 . S
C524 H537 0.929 . S
C525 C524 1.373 . S
C525 C526 1.396 . S
C525 C532 1.403 . S
C526 C516 1.476 . S
C526 N521 1.318 . S
C526 C525 1.396 . S
H527 C522 0.929 . S
O528 Mn504 2.385 . S
O528 C506 1.234 . S
O529 Mn504 2.209 . S
O529 Mn505 2.215 . S
O529 C506 1.283 . S
O530 Mn504 2.094 . S
O530 C508 1.240 . S
O531 Mn505 2.117 . S
O531 C508 1.264 . S
C532 C525 1.403 . S
C532 C533 1.399 . S
C532 H538 0.929 . S
C533 C513 1.449 . S
C533 C532 1.399 . S
C533 H539 0.930 . S
H534 C514 0.931 . S
H535 C515 0.930 . S
H536 C523 0.931 . S
H537 C524 0.929 . S
H538 C532 0.929 . S
H539 C533 0.930 . S
Mn540 O545 2.095 . S
Mn540 O555 2.162 . S
Mn540 O556 2.297 . S
Mn540 O564 2.385 . S
Mn540 O565 2.209 . S
Mn540 O566 2.094 . S
Mn541 O546 2.121 . S
Mn541 N548 2.257 . S
Mn541 N557 2.282 . S
Mn541 O565 2.215 . S
Mn541 O567 2.117 . S
C542 O564 1.234 . S
C542 O565 1.283 . S
C543 O555 1.281 . S
C543 O556 1.236 . S
C544 O566 1.240 . S
C544 O567 1.264 . S
O545 Mn540 2.095 . S
O545 C554 1.250 . S
O546 Mn541 2.121 . S
O546 C554 1.258 . S
C547 N548 1.326 . S
C547 C551 1.460 . S
C547 H553 0.929 . S
N548 Mn541 2.257 . S
N548 C547 1.326 . S
N548 C552 1.362 . S
C549 C550 1.258 . S
C549 C552 1.431 . S
C549 C569 1.449 . S
C550 C549 1.258 . S
C550 C551 1.477 . S
C550 H570 0.931 . S
C551 C547 1.460 . S
C551 C550 1.477 . S
C551 H571 0.930 . S
C552 N548 1.362 . S
C552 C549 1.431 . S
C552 C562 1.476 . S
H553 C547 0.929 . S
C554 O545 1.250 . S
C554 O546 1.258 . S
O555 Mn540 2.162 . S
O555 C543 1.281 . S
O556 Mn540 2.297 . S
O556 C543 1.236 . S
N557 Mn541 2.282 . S
N557 C558 1.328 . S
N557 C562 1.318 . S
C558 N557 1.328 . S
C558 C559 1.457 . S
C558 H563 0.929 . S
C559 C558 1.457 . S
C559 C560 1.291 . S
C559 H572 0.931 . S
C560 C559 1.291 . S
C560 C561 1.373 . S
C560 H573 0.929 . S
C561 C560 1.373 . S
C561 C562 1.396 . S
C561 C568 1.403 . S
C562 C552 1.476 . S
C562 N557 1.318 . S
C562 C561 1.396 . S
H563 C558 0.929 . S
O564 Mn540 2.385 . S
O564 C542 1.234 . S
O565 Mn540 2.209 . S
O565 Mn541 2.215 . S
O565 C542 1.283 . S
O566 Mn540 2.094 . S
O566 C544 1.240 . S
O567 Mn541 2.117 . S
O567 C544 1.264 . S
C568 C561 1.403 . S
C568 C569 1.399 . S
C568 H574 0.929 . S
C569 C549 1.449 . S
C569 C568 1.399 . S
C569 H575 0.930 . S
H570 C550 0.931 . S
H571 C551 0.930 . S
H572 C559 0.931 . S
H573 C560 0.929 . S
H574 C568 0.929 . S
H575 C569 0.930 . S
Mn576 O581 2.095 . S
Mn576 O591 2.162 . S
Mn576 O592 2.297 . S
Mn576 O600 2.385 . S
Mn576 O601 2.209 . S
Mn576 O602 2.094 . S
Mn577 O582 2.121 . S
Mn577 N584 2.257 . S
Mn577 N593 2.282 . S
Mn577 O601 2.215 . S
Mn577 O603 2.117 . S
C578 O600 1.234 . S
C578 O601 1.283 . S
C579 O591 1.281 . S
C579 O592 1.236 . S
C580 O602 1.240 . S
C580 O603 1.264 . S
O581 Mn576 2.095 . S
O581 C590 1.250 . S
O582 Mn577 2.121 . S
O582 C590 1.258 . S
C583 N584 1.326 . S
C583 C587 1.460 . S
C583 H589 0.929 . S
N584 Mn577 2.257 . S
N584 C583 1.326 . S
N584 C588 1.362 . S
C585 C586 1.258 . S
C585 C588 1.431 . S
C585 C605 1.449 . S
C586 C585 1.258 . S
C586 C587 1.477 . S
C586 H606 0.931 . S
C587 C583 1.460 . S
C587 C586 1.477 . S
C587 H607 0.930 . S
C588 N584 1.362 . S
C588 C585 1.431 . S
C588 C598 1.476 . S
H589 C583 0.929 . S
C590 O581 1.250 . S
C590 O582 1.258 . S
O591 Mn576 2.162 . S
O591 C579 1.281 . S
O592 Mn576 2.297 . S
O592 C579 1.236 . S
N593 Mn577 2.282 . S
N593 C594 1.328 . S
N593 C598 1.318 . S
C594 N593 1.328 . S
C594 C595 1.457 . S
C594 H599 0.929 . S
C595 C594 1.457 . S
C595 C596 1.291 . S
C595 H608 0.931 . S
C596 C595 1.291 . S
C596 C597 1.373 . S
C596 H609 0.929 . S
C597 C596 1.373 . S
C597 C598 1.396 . S
C597 C604 1.403 . S
C598 C588 1.476 . S
C598 N593 1.318 . S
C598 C597 1.396 . S
H599 C594 0.929 . S
O600 Mn576 2.385 . S
O600 C578 1.234 . S
O601 Mn576 2.209 . S
O601 Mn577 2.215 . S
O601 C578 1.283 . S
O602 Mn576 2.094 . S
O602 C580 1.240 . S
O603 Mn577 2.117 . S
O603 C580 1.264 . S
C604 C597 1.403 . S
C604 C605 1.399 . S
C604 H610 0.929 . S
C605 C585 1.449 . S
C605 C604 1.399 . S
C605 H611 0.930 . S
H606 C586 0.931 . S
H607 C587 0.930 . S
H608 C595 0.931 . S
H609 C596 0.929 . S
H610 C604 0.929 . S
H611 C605 0.930 . S
Mn612 O617 2.095 . S
Mn612 O627 2.162 . S
Mn612 O628 2.297 . S
Mn612 O636 2.385 . S
Mn612 O637 2.209 . S
Mn612 O638 2.094 . S
Mn613 O618 2.121 . S
Mn613 N620 2.257 . S
Mn613 N629 2.282 . S
Mn613 O637 2.215 . S
Mn613 O639 2.117 . S
C614 O636 1.234 . S
C614 O637 1.283 . S
C615 O627 1.281 . S
C615 O628 1.236 . S
C616 O638 1.240 . S
C616 O639 1.264 . S
O617 Mn612 2.095 . S
O617 C626 1.250 . S
O618 Mn613 2.121 . S
O618 C626 1.258 . S
C619 N620 1.326 . S
C619 C623 1.460 . S
C619 H625 0.929 . S
N620 Mn613 2.257 . S
N620 C619 1.326 . S
N620 C624 1.362 . S
C621 C622 1.258 . S
C621 C624 1.431 . S
C621 C641 1.449 . S
C622 C621 1.258 . S
C622 C623 1.477 . S
C622 H642 0.931 . S
C623 C619 1.460 . S
C623 C622 1.477 . S
C623 H643 0.930 . S
C624 N620 1.362 . S
C624 C621 1.431 . S
C624 C634 1.476 . S
H625 C619 0.929 . S
C626 O617 1.250 . S
C626 O618 1.258 . S
O627 Mn612 2.162 . S
O627 C615 1.281 . S
O628 Mn612 2.297 . S
O628 C615 1.236 . S
N629 Mn613 2.282 . S
N629 C630 1.328 . S
N629 C634 1.318 . S
C630 N629 1.328 . S
C630 C631 1.457 . S
C630 H635 0.929 . S
C631 C630 1.457 . S
C631 C632 1.291 . S
C631 H644 0.931 . S
C632 C631 1.291 . S
C632 C633 1.373 . S
C632 H645 0.929 . S
C633 C632 1.373 . S
C633 C634 1.396 . S
C633 C640 1.403 . S
C634 C624 1.476 . S
C634 N629 1.318 . S
C634 C633 1.396 . S
H635 C630 0.929 . S
O636 Mn612 2.385 . S
O636 C614 1.234 . S
O637 Mn612 2.209 . S
O637 Mn613 2.215 . S
O637 C614 1.283 . S
O638 Mn612 2.094 . S
O638 C616 1.240 . S
O639 Mn613 2.117 . S
O639 C616 1.264 . S
C640 C633 1.403 . S
C640 C641 1.399 . S
C640 H646 0.929 . S
C641 C621 1.449 . S
C641 C640 1.399 . S
C641 H647 0.930 . S
H642 C622 0.931 . S
H643 C623 0.930 . S
H644 C631 0.931 . S
H645 C632 0.929 . S
H646 C640 0.929 . S
H647 C641 0.930 . S
Mn648 O653 2.095 . S
Mn648 O663 2.162 . S
Mn648 O664 2.297 . S
Mn648 O672 2.385 . S
Mn648 O673 2.209 . S
Mn648 O674 2.094 . S
Mn649 O654 2.121 . S
Mn649 N656 2.257 . S
Mn649 N665 2.282 . S
Mn649 O673 2.215 . S
Mn649 O675 2.117 . S
C650 O672 1.234 . S
C650 O673 1.283 . S
C651 O663 1.281 . S
C651 O664 1.236 . S
C652 O674 1.240 . S
C652 O675 1.264 . S
O653 Mn648 2.095 . S
O653 C662 1.250 . S
O654 Mn649 2.121 . S
O654 C662 1.258 . S
C655 N656 1.326 . S
C655 C659 1.460 . S
C655 H661 0.929 . S
N656 Mn649 2.257 . S
N656 C655 1.326 . S
N656 C660 1.362 . S
C657 C658 1.258 . S
C657 C660 1.431 . S
C657 C677 1.449 . S
C658 C657 1.258 . S
C658 C659 1.477 . S
C658 H678 0.931 . S
C659 C655 1.460 . S
C659 C658 1.477 . S
C659 H679 0.930 . S
C660 N656 1.362 . S
C660 C657 1.431 . S
C660 C670 1.476 . S
H661 C655 0.929 . S
C662 O653 1.250 . S
C662 O654 1.258 . S
O663 Mn648 2.162 . S
O663 C651 1.281 . S
O664 Mn648 2.297 . S
O664 C651 1.236 . S
N665 Mn649 2.282 . S
N665 C666 1.328 . S
N665 C670 1.318 . S
C666 N665 1.328 . S
C666 C667 1.457 . S
C666 H671 0.929 . S
C667 C666 1.457 . S
C667 C668 1.291 . S
C667 H680 0.931 . S
C668 C667 1.291 . S
C668 C669 1.373 . S
C668 H681 0.929 . S
C669 C668 1.373 . S
C669 C670 1.396 . S
C669 C676 1.403 . S
C670 C660 1.476 . S
C670 N665 1.318 . S
C670 C669 1.396 . S
H671 C666 0.929 . S
O672 Mn648 2.385 . S
O672 C650 1.234 . S
O673 Mn648 2.209 . S
O673 Mn649 2.215 . S
O673 C650 1.283 . S
O674 Mn648 2.094 . S
O674 C652 1.240 . S
O675 Mn649 2.117 . S
O675 C652 1.264 . S
C676 C669 1.403 . S
C676 C677 1.399 . S
C676 H682 0.929 . S
C677 C657 1.449 . S
C677 C676 1.399 . S
C677 H683 0.930 . S
H678 C658 0.931 . S
H679 C659 0.930 . S
H680 C667 0.931 . S
H681 C668 0.929 . S
H682 C676 0.929 . S
H683 C677 0.930 . S
Mn684 O689 2.095 . S
Mn684 O699 2.162 . S
Mn684 O700 2.297 . S
Mn684 O708 2.385 . S
Mn684 O709 2.209 . S
Mn684 O710 2.094 . S
Mn685 O690 2.121 . S
Mn685 N692 2.257 . S
Mn685 N701 2.282 . S
Mn685 O709 2.215 . S
Mn685 O711 2.117 . S
C686 O708 1.234 . S
C686 O709 1.283 . S
C687 O699 1.281 . S
C687 O700 1.236 . S
C688 O710 1.240 . S
C688 O711 1.264 . S
O689 Mn684 2.095 . S
O689 C698 1.250 . S
O690 Mn685 2.121 . S
O690 C698 1.258 . S
C691 N692 1.326 . S
C691 C695 1.460 . S
C691 H697 0.929 . S
N692 Mn685 2.257 . S
N692 C691 1.326 . S
N692 C696 1.362 . S
C693 C694 1.258 . S
C693 C696 1.431 . S
C693 C713 1.449 . S
C694 C693 1.258 . S
C694 C695 1.477 . S
C694 H714 0.931 . S
C695 C691 1.460 . S
C695 C694 1.477 . S
C695 H715 0.930 . S
C696 N692 1.362 . S
C696 C693 1.431 . S
C696 C706 1.476 . S
H697 C691 0.929 . S
C698 O689 1.250 . S
C698 O690 1.258 . S
O699 Mn684 2.162 . S
O699 C687 1.281 . S
O700 Mn684 2.297 . S
O700 C687 1.236 . S
N701 Mn685 2.282 . S
N701 C702 1.328 . S
N701 C706 1.318 . S
C702 N701 1.328 . S
C702 C703 1.457 . S
C702 H707 0.929 . S
C703 C702 1.457 . S
C703 C704 1.291 . S
C703 H716 0.931 . S
C704 C703 1.291 . S
C704 C705 1.373 . S
C704 H717 0.929 . S
C705 C704 1.373 . S
C705 C706 1.396 . S
C705 C712 1.403 . S
C706 C696 1.476 . S
C706 N701 1.318 . S
C706 C705 1.396 . S
H707 C702 0.929 . S
O708 Mn684 2.385 . S
O708 C686 1.234 . S
O709 Mn684 2.209 . S
O709 Mn685 2.215 . S
O709 C686 1.283 . S
O710 Mn684 2.094 . S
O710 C688 1.240 . S
O711 Mn685 2.117 . S
O711 C688 1.264 . S
C712 C705 1.403 . S
C712 C713 1.399 . S
C712 H718 0.929 . S
C713 C693 1.449 . S
C713 C712 1.399 . S
C713 H719 0.930 . S
H714 C694 0.931 . S
H715 C695 0.930 . S
H716 C703 0.931 . S
H717 C704 0.929 . S
H718 C712 0.929 . S
H719 C713 0.930 . S
Mn720 O725 2.095 . S
Mn720 O735 2.162 . S
Mn720 O736 2.297 . S
Mn720 O744 2.385 . S
Mn720 O745 2.209 . S
Mn720 O746 2.094 . S
Mn721 O726 2.121 . S
Mn721 N728 2.257 . S
Mn721 N737 2.282 . S
Mn721 O745 2.215 . S
Mn721 O747 2.117 . S
C722 O744 1.234 . S
C722 O745 1.283 . S
C723 O735 1.281 . S
C723 O736 1.236 . S
C724 O746 1.240 . S
C724 O747 1.264 . S
O725 Mn720 2.095 . S
O725 C734 1.250 . S
O726 Mn721 2.121 . S
O726 C734 1.258 . S
C727 N728 1.326 . S
C727 C731 1.460 . S
C727 H733 0.929 . S
N728 Mn721 2.257 . S
N728 C727 1.326 . S
N728 C732 1.362 . S
C729 C730 1.258 . S
C729 C732 1.431 . S
C729 C749 1.449 . S
C730 C729 1.258 . S
C730 C731 1.477 . S
C730 H750 0.931 . S
C731 C727 1.460 . S
C731 C730 1.477 . S
C731 H751 0.930 . S
C732 N728 1.362 . S
C732 C729 1.431 . S
C732 C742 1.476 . S
H733 C727 0.929 . S
C734 O725 1.250 . S
C734 O726 1.258 . S
O735 Mn720 2.162 . S
O735 C723 1.281 . S
O736 Mn720 2.297 . S
O736 C723 1.236 . S
N737 Mn721 2.282 . S
N737 C738 1.328 . S
N737 C742 1.318 . S
C738 N737 1.328 . S
C738 C739 1.457 . S
C738 H743 0.929 . S
C739 C738 1.457 . S
C739 C740 1.291 . S
C739 H752 0.931 . S
C740 C739 1.291 . S
C740 C741 1.373 . S
C740 H753 0.929 . S
C741 C740 1.373 . S
C741 C742 1.396 . S
C741 C748 1.403 . S
C742 C732 1.476 . S
C742 N737 1.318 . S
C742 C741 1.396 . S
H743 C738 0.929 . S
O744 Mn720 2.385 . S
O744 C722 1.234 . S
O745 Mn720 2.209 . S
O745 Mn721 2.215 . S
O745 C722 1.283 . S
O746 Mn720 2.094 . S
O746 C724 1.240 . S
O747 Mn721 2.117 . S
O747 C724 1.264 . S
C748 C741 1.403 . S
C748 C749 1.399 . S
C748 H754 0.929 . S
C749 C729 1.449 . S
C749 C748 1.399 . S
C749 H755 0.930 . S
H750 C730 0.931 . S
H751 C731 0.930 . S
H752 C739 0.931 . S
H753 C740 0.929 . S
H754 C748 0.929 . S
H755 C749 0.930 . S
Mn756 O761 2.095 . S
Mn756 O771 2.162 . S
Mn756 O772 2.297 . S
Mn756 O780 2.385 . S
Mn756 O781 2.209 . S
Mn756 O782 2.094 . S
Mn757 O762 2.121 . S
Mn757 N764 2.257 . S
Mn757 N773 2.282 . S
Mn757 O781 2.215 . S
Mn757 O783 2.117 . S
C758 O780 1.234 . S
C758 O781 1.283 . S
C759 O771 1.281 . S
C759 O772 1.236 . S
C760 O782 1.240 . S
C760 O783 1.264 . S
O761 Mn756 2.095 . S
O761 C770 1.250 . S
O762 Mn757 2.121 . S
O762 C770 1.258 . S
C763 N764 1.326 . S
C763 C767 1.460 . S
C763 H769 0.929 . S
N764 Mn757 2.257 . S
N764 C763 1.326 . S
N764 C768 1.362 . S
C765 C766 1.258 . S
C765 C768 1.431 . S
C765 C785 1.449 . S
C766 C765 1.258 . S
C766 C767 1.477 . S
C766 H786 0.931 . S
C767 C763 1.460 . S
C767 C766 1.477 . S
C767 H787 0.930 . S
C768 N764 1.362 . S
C768 C765 1.431 . S
C768 C778 1.476 . S
H769 C763 0.929 . S
C770 O761 1.250 . S
C770 O762 1.258 . S
O771 Mn756 2.162 . S
O771 C759 1.281 . S
O772 Mn756 2.297 . S
O772 C759 1.236 . S
N773 Mn757 2.282 . S
N773 C774 1.328 . S
N773 C778 1.318 . S
C774 N773 1.328 . S
C774 C775 1.457 . S
C774 H779 0.929 . S
C775 C774 1.457 . S
C775 C776 1.291 . S
C775 H788 0.931 . S
C776 C775 1.291 . S
C776 C777 1.373 . S
C776 H789 0.929 . S
C777 C776 1.373 . S
C777 C778 1.396 . S
C777 C784 1.403 . S
C778 C768 1.476 . S
C778 N773 1.318 . S
C778 C777 1.396 . S
H779 C774 0.929 . S
O780 Mn756 2.385 . S
O780 C758 1.234 . S
O781 Mn756 2.209 . S
O781 Mn757 2.215 . S
O781 C758 1.283 . S
O782 Mn756 2.094 . S
O782 C760 1.240 . S
O783 Mn757 2.117 . S
O783 C760 1.264 . S
C784 C777 1.403 . S
C784 C785 1.399 . S
C784 H790 0.929 . S
C785 C765 1.449 . S
C785 C784 1.399 . S
C785 H791 0.930 . S
H786 C766 0.931 . S
H787 C767 0.930 . S
H788 C775 0.931 . S
H789 C776 0.929 . S
H790 C784 0.929 . S
H791 C785 0.930 . S
Mn792 O797 2.095 . S
Mn792 O807 2.162 . S
Mn792 O808 2.297 . S
Mn792 O816 2.385 . S
Mn792 O817 2.209 . S
Mn792 O818 2.094 . S
Mn793 O798 2.121 . S
Mn793 N800 2.257 . S
Mn793 N809 2.282 . S
Mn793 O817 2.215 . S
Mn793 O819 2.117 . S
C794 O816 1.234 . S
C794 O817 1.283 . S
C795 O807 1.281 . S
C795 O808 1.236 . S
C796 O818 1.240 . S
C796 O819 1.264 . S
O797 Mn792 2.095 . S
O797 C806 1.250 . S
O798 Mn793 2.121 . S
O798 C806 1.258 . S
C799 N800 1.326 . S
C799 C803 1.460 . S
C799 H805 0.929 . S
N800 Mn793 2.257 . S
N800 C799 1.326 . S
N800 C804 1.362 . S
C801 C802 1.258 . S
C801 C804 1.431 . S
C801 C821 1.449 . S
C802 C801 1.258 . S
C802 C803 1.477 . S
C802 H822 0.931 . S
C803 C799 1.460 . S
C803 C802 1.477 . S
C803 H823 0.930 . S
C804 N800 1.362 . S
C804 C801 1.431 . S
C804 C814 1.476 . S
H805 C799 0.929 . S
C806 O797 1.250 . S
C806 O798 1.258 . S
O807 Mn792 2.162 . S
O807 C795 1.281 . S
O808 Mn792 2.297 . S
O808 C795 1.236 . S
N809 Mn793 2.282 . S
N809 C810 1.328 . S
N809 C814 1.318 . S
C810 N809 1.328 . S
C810 C811 1.457 . S
C810 H815 0.929 . S
C811 C810 1.457 . S
C811 C812 1.291 . S
C811 H824 0.931 . S
C812 C811 1.291 . S
C812 C813 1.373 . S
C812 H825 0.929 . S
C813 C812 1.373 . S
C813 C814 1.396 . S
C813 C820 1.403 . S
C814 C804 1.476 . S
C814 N809 1.318 . S
C814 C813 1.396 . S
H815 C810 0.929 . S
O816 Mn792 2.385 . S
O816 C794 1.234 . S
O817 Mn792 2.209 . S
O817 Mn793 2.215 . S
O817 C794 1.283 . S
O818 Mn792 2.094 . S
O818 C796 1.240 . S
O819 Mn793 2.117 . S
O819 C796 1.264 . S
C820 C813 1.403 . S
C820 C821 1.399 . S
C820 H826 0.929 . S
C821 C801 1.449 . S
C821 C820 1.399 . S
C821 H827 0.930 . S
H822 C802 0.931 . S
H823 C803 0.930 . S
H824 C811 0.931 . S
H825 C812 0.929 . S
H826 C820 0.929 . S
H827 C821 0.930 . S
Mn828 O833 2.095 . S
Mn828 O843 2.162 . S
Mn828 O844 2.297 . S
Mn828 O852 2.385 . S
Mn828 O853 2.209 . S
Mn828 O854 2.094 . S
Mn829 O834 2.121 . S
Mn829 N836 2.257 . S
Mn829 N845 2.282 . S
Mn829 O853 2.215 . S
Mn829 O855 2.117 . S
C830 O852 1.234 . S
C830 O853 1.283 . S
C831 O843 1.281 . S
C831 O844 1.236 . S
C832 O854 1.240 . S
C832 O855 1.264 . S
O833 Mn828 2.095 . S
O833 C842 1.250 . S
O834 Mn829 2.121 . S
O834 C842 1.258 . S
C835 N836 1.326 . S
C835 C839 1.460 . S
C835 H841 0.929 . S
N836 Mn829 2.257 . S
N836 C835 1.326 . S
N836 C840 1.362 . S
C837 C838 1.258 . S
C837 C840 1.431 . S
C837 C857 1.449 . S
C838 C837 1.258 . S
C838 C839 1.477 . S
C838 H858 0.931 . S
C839 C835 1.460 . S
C839 C838 1.477 . S
C839 H859 0.930 . S
C840 N836 1.362 . S
C840 C837 1.431 . S
C840 C850 1.476 . S
H841 C835 0.929 . S
C842 O833 1.250 . S
C842 O834 1.258 . S
O843 Mn828 2.162 . S
O843 C831 1.281 . S
O844 Mn828 2.297 . S
O844 C831 1.236 . S
N845 Mn829 2.282 . S
N845 C846 1.328 . S
N845 C850 1.318 . S
C846 N845 1.328 . S
C846 C847 1.457 . S
C846 H851 0.929 . S
C847 C846 1.457 . S
C847 C848 1.291 . S
C847 H860 0.931 . S
C848 C847 1.291 . S
C848 C849 1.373 . S
C848 H861 0.929 . S
C849 C848 1.373 . S
C849 C850 1.396 . S
C849 C856 1.403 . S
C850 C840 1.476 . S
C850 N845 1.318 . S
C850 C849 1.396 . S
H851 C846 0.929 . S
O852 Mn828 2.385 . S
O852 C830 1.234 . S
O853 Mn828 2.209 . S
O853 Mn829 2.215 . S
O853 C830 1.283 . S
O854 Mn828 2.094 . S
O854 C832 1.240 . S
O855 Mn829 2.117 . S
O855 C832 1.264 . S
C856 C849 1.403 . S
C856 C857 1.399 . S
C856 H862 0.929 . S
C857 C837 1.449 . S
C857 C856 1.399 . S
C857 H863 0.930 . S
H858 C838 0.931 . S
H859 C839 0.930 . S
H860 C847 0.931 . S
H861 C848 0.929 . S
H862 C856 0.929 . S
H863 C857 0.930 . S
H864 C870 0.930 . S
H865 C873 0.930 . S
H866 C874 0.930 1_565 S
H867 C875 0.930 . S
H868 C878 0.930 . S
H869 C879 0.930 1_545 S
C870 H864 0.930 . S
C870 C871 1.355 . S
C870 C872 1.415 . S
C871 C870 1.355 . S
C871 C873 1.419 . S
C872 C870 1.415 . S
C872 C877 1.425 1_545 S
C872 C879 1.409 1_545 S
C873 H865 0.930 . S
C873 C871 1.419 . S
C873 C874 1.362 . S
C874 H866 0.930 1_545 S
C874 C873 1.362 . S
C874 C877 1.409 1_545 S
C875 H867 0.930 . S
C875 C876 1.355 . S
C875 C877 1.415 . S
C876 C875 1.355 . S
C876 C878 1.419 . S
C877 C872 1.425 1_565 S
C877 C874 1.409 1_565 S
C877 C875 1.415 . S
C878 H868 0.930 . S
C878 C876 1.419 . S
C878 C879 1.362 . S
C879 H869 0.930 1_565 S
C879 C872 1.409 1_565 S
C879 C878 1.362 . S
H880 C886 0.930 . S
H881 C889 0.930 . S
H882 C890 0.930 . S
H883 C891 0.930 . S
H884 C894 0.930 . S
H885 C895 0.930 . S
C886 H880 0.930 . S
C886 C887 1.355 . S
C886 C888 1.415 . S
C887 C886 1.355 . S
C887 C889 1.419 . S
C888 C886 1.415 . S
C888 C893 1.425 . S
C888 C895 1.409 . S
C889 H881 0.930 . S
C889 C887 1.419 . S
C889 C890 1.362 . S
C890 H882 0.930 . S
C890 C889 1.362 . S
C890 C893 1.409 . S
C891 H883 0.930 . S
C891 C892 1.355 . S
C891 C893 1.415 . S
C892 C891 1.355 . S
C892 C894 1.419 . S
C893 C888 1.425 . S
C893 C890 1.409 . S
C893 C891 1.415 . S
C894 H884 0.930 . S
C894 C892 1.419 . S
C894 C895 1.362 . S
C895 H885 0.930 . S
C895 C888 1.409 . S
C895 C894 1.362 . S
H896 C902 0.930 . S
H897 C905 0.930 . S
H898 C906 0.930 1_455 S
H899 C907 0.930 . S
H900 C910 0.930 . S
H901 C911 0.930 1_655 S
C902 H896 0.930 . S
C902 C903 1.355 . S
C902 C904 1.415 . S
C903 C902 1.355 . S
C903 C905 1.419 . S
C904 C902 1.415 . S
C904 C909 1.425 1_655 S
C904 C911 1.409 1_655 S
C905 H897 0.930 . S
C905 C903 1.419 . S
C905 C906 1.362 . S
C906 H898 0.930 1_655 S
C906 C905 1.362 . S
C906 C909 1.409 1_655 S
C907 H899 0.930 . S
C907 C908 1.355 . S
C907 C909 1.415 . S
C908 C907 1.355 . S
C908 C910 1.419 . S
C909 C904 1.425 1_455 S
C909 C906 1.409 1_455 S
C909 C907 1.415 . S
C910 H900 0.930 . S
C910 C908 1.419 . S
C910 C911 1.362 . S
C911 H901 0.930 1_455 S
C911 C904 1.409 1_455 S
C911 C910 1.362 . S
H912 C918 0.930 . S
H913 C921 0.930 . S
H914 C922 0.930 . S
H915 C923 0.930 . S
H916 C926 0.930 . S
H917 C927 0.930 . S
C918 H912 0.930 . S
C918 C919 1.355 . S
C918 C920 1.415 . S
C919 C918 1.355 . S
C919 C921 1.419 . S
C920 C918 1.415 . S
C920 C925 1.425 1_565 S
C920 C927 1.409 1_565 S
C921 H913 0.930 . S
C921 C919 1.419 . S
C921 C922 1.362 . S
C922 H914 0.930 . S
C922 C921 1.362 . S
C922 C925 1.409 1_565 S
C923 H915 0.930 . S
C923 C924 1.355 . S
C923 C925 1.415 . S
C924 C923 1.355 . S
C924 C926 1.419 . S
C925 C920 1.425 1_545 S
C925 C922 1.409 1_545 S
C925 C923 1.415 . S
C926 H916 0.930 . S
C926 C924 1.419 . S
C926 C927 1.362 . S
C927 H917 0.930 . S
C927 C920 1.409 1_545 S
C927 C926 1.362 . S
H928 C934 0.930 . S
H929 C937 0.930 . S
H930 C938 0.930 . S
H931 C939 0.930 . S
H932 C942 0.930 . S
H933 C943 0.930 . S
C934 H928 0.930 . S
C934 C935 1.355 . S
C934 C936 1.415 . S
C935 C934 1.355 . S
C935 C937 1.419 . S
C936 C934 1.415 . S
C936 C941 1.425 . S
C936 C943 1.409 . S
C937 H929 0.930 . S
C937 C935 1.419 . S
C937 C938 1.362 . S
C938 H930 0.930 . S
C938 C937 1.362 . S
C938 C941 1.409 . S
C939 H931 0.930 . S
C939 C940 1.355 . S
C939 C941 1.415 . S
C940 C939 1.355 . S
C940 C942 1.419 . S
C941 C936 1.425 . S
C941 C938 1.409 . S
C941 C939 1.415 . S
C942 H932 0.930 . S
C942 C940 1.419 . S
C942 C943 1.362 . S
C943 H933 0.930 . S
C943 C936 1.409 . S
C943 C942 1.362 . S
H944 C950 0.930 . S
H945 C953 0.930 . S
H946 C954 0.956 . S
H947 C955 0.930 . S
H948 C958 0.930 . S
H949 C959 0.955 . S
C950 H944 0.930 . S
C950 C951 1.355 . S
C950 C952 1.415 . S
C951 C950 1.355 . S
C951 C953 1.419 . S
C952 C950 1.415 . S
C952 C957 1.425 1_455 S
C952 C959 1.409 1_455 S
C953 H945 0.930 . S
C953 C951 1.419 . S
C953 C954 1.362 . S
C954 H946 0.956 . S
C954 C953 1.362 . S
C954 C957 1.409 1_455 S
C955 H947 0.930 . S
C955 C956 1.355 . S
C955 C957 1.415 . S
C956 C955 1.355 . S
C956 C958 1.419 . S
C957 C952 1.425 1_655 S
C957 C954 1.409 1_655 S
C957 C955 1.415 . S
C958 H948 0.930 . S
C958 C956 1.419 . S
C958 C959 1.362 . S
C959 H949 0.955 . S
C959 C952 1.409 1_655 S
C959 C958 1.362 . S
H960 C966 0.930 . S
H961 C969 0.930 . S
H962 C970 0.930 1_545 S
H963 C971 0.930 . S
H964 C974 0.930 . S
H965 C975 0.930 1_565 S
C966 H960 0.930 . S
C966 C967 1.355 . S
C966 C968 1.415 . S
C967 C966 1.355 . S
C967 C969 1.419 . S
C968 C966 1.415 . S
C968 C973 1.425 1_565 S
C968 C975 1.409 1_565 S
C969 H961 0.930 . S
C969 C967 1.419 . S
C969 C970 1.362 . S
C970 H962 0.930 1_565 S
C970 C969 1.362 . S
C970 C973 1.409 1_565 S
C971 H963 0.930 . S
C971 C972 1.355 . S
C971 C973 1.415 . S
C972 C971 1.355 . S
C972 C974 1.419 . S
C973 C968 1.425 1_545 S
C973 C970 1.409 1_545 S
C973 C971 1.415 . S
C974 H964 0.930 . S
C974 C972 1.419 . S
C974 C975 1.362 . S
C975 H965 0.930 1_545 S
C975 C968 1.409 1_545 S
C975 C974 1.362 . S
H976 C982 0.930 . S
H977 C985 0.930 . S
H978 C986 0.930 . S
H979 C987 0.930 . S
H980 C990 0.930 . S
H981 C991 0.930 . S
C982 H976 0.930 . S
C982 C983 1.355 . S
C982 C984 1.415 . S
C983 C982 1.355 . S
C983 C985 1.419 . S
C984 C982 1.415 . S
C984 C989 1.425 . S
C984 C991 1.409 . S
C985 H977 0.930 . S
C985 C983 1.419 . S
C985 C986 1.362 . S
C986 H978 0.930 . S
C986 C985 1.362 . S
C986 C989 1.409 . S
C987 H979 0.930 . S
C987 C988 1.355 . S
C987 C989 1.415 . S
C988 C987 1.355 . S
C988 C990 1.419 . S
C989 C984 1.425 . S
C989 C986 1.409 . S
C989 C987 1.415 . S
C990 H980 0.930 . S
C990 C988 1.419 . S
C990 C991 1.362 . S
C991 H981 0.930 . S
C991 C984 1.409 . S
C991 C990 1.362 . S
H992 C998 0.930 . S
H993 C1001 0.930 . S
H994 C1002 0.930 1_455 S
H995 C1003 0.930 . S
H996 C1006 0.930 . S
H997 C1007 0.930 1_655 S
C998 H992 0.930 . S
C998 C999 1.355 . S
C998 C1000 1.415 . S
C999 C998 1.355 . S
C999 C1001 1.419 . S
C1000 C998 1.415 . S
C1000 C1005 1.425 1_655 S
C1000 C1007 1.409 1_655 S
C1001 H993 0.930 . S
C1001 C999 1.419 . S
C1001 C1002 1.362 . S
C1002 H994 0.930 1_655 S
C1002 C1001 1.362 . S
C1002 C1005 1.409 1_655 S
C1003 H995 0.930 . S
C1003 C1004 1.355 . S
C1003 C1005 1.415 . S
C1004 C1003 1.355 . S
C1004 C1006 1.419 . S
C1005 C1000 1.425 1_455 S
C1005 C1002 1.409 1_455 S
C1005 C1003 1.415 . S
C1006 H996 0.930 . S
C1006 C1004 1.419 . S
C1006 C1007 1.362 . S
C1007 H997 0.930 1_455 S
C1007 C1000 1.409 1_455 S
C1007 C1006 1.362 . S
H1008 C1014 0.930 . S
H1009 C1017 0.930 . S
H1010 C1018 0.930 . S
H1011 C1019 0.930 . S
H1012 C1022 0.930 . S
H1013 C1023 0.930 . S
C1014 H1008 0.930 . S
C1014 C1015 1.355 . S
C1014 C1016 1.415 . S
C1015 C1014 1.355 . S
C1015 C1017 1.419 . S
C1016 C1014 1.415 . S
C1016 C1021 1.425 1_545 S
C1016 C1023 1.409 1_545 S
C1017 H1009 0.930 . S
C1017 C1015 1.419 . S
C1017 C1018 1.362 . S
C1018 H1010 0.930 . S
C1018 C1017 1.362 . S
C1018 C1021 1.409 1_545 S
C1019 H1011 0.930 . S
C1019 C1020 1.355 . S
C1019 C1021 1.415 . S
C1020 C1019 1.355 . S
C1020 C1022 1.419 . S
C1021 C1016 1.425 1_565 S
C1021 C1018 1.409 1_565 S
C1021 C1019 1.415 . S
C1022 H1012 0.930 . S
C1022 C1020 1.419 . S
C1022 C1023 1.362 . S
C1023 H1013 0.930 . S
C1023 C1016 1.409 1_565 S
C1023 C1022 1.362 . S
H1024 C1030 0.930 . S
H1025 C1033 0.930 . S
H1026 C1034 0.930 . S
H1027 C1035 0.930 . S
H1028 C1038 0.930 . S
H1029 C1039 0.930 . S
C1030 H1024 0.930 . S
C1030 C1031 1.355 . S
C1030 C1032 1.415 . S
C1031 C1030 1.355 . S
C1031 C1033 1.419 . S
C1032 C1030 1.415 . S
C1032 C1037 1.425 . S
C1032 C1039 1.409 . S
C1033 H1025 0.930 . S
C1033 C1031 1.419 . S
C1033 C1034 1.362 . S
C1034 H1026 0.930 . S
C1034 C1033 1.362 . S
C1034 C1037 1.409 . S
C1035 H1027 0.930 . S
C1035 C1036 1.355 . S
C1035 C1037 1.415 . S
C1036 C1035 1.355 . S
C1036 C1038 1.419 . S
C1037 C1032 1.425 . S
C1037 C1034 1.409 . S
C1037 C1035 1.415 . S
C1038 H1028 0.930 . S
C1038 C1036 1.419 . S
C1038 C1039 1.362 . S
C1039 H1029 0.930 . S
C1039 C1032 1.409 . S
C1039 C1038 1.362 . S
H1040 C1046 0.930 . S
H1041 C1049 0.930 . S
H1042 C1050 0.930 . S
H1043 C1051 0.930 . S
H1044 C1054 0.930 . S
H1045 C1055 0.930 . S
C1046 H1040 0.930 . S
C1046 C1047 1.355 . S
C1046 C1048 1.415 . S
C1047 C1046 1.355 . S
C1047 C1049 1.419 . S
C1048 C1046 1.415 . S
C1048 C1053 1.425 1_455 S
C1048 C1055 1.409 1_455 S
C1049 H1041 0.930 . S
C1049 C1047 1.419 . S
C1049 C1050 1.362 . S
C1050 H1042 0.930 . S
C1050 C1049 1.362 . S
C1050 C1053 1.409 1_455 S
C1051 H1043 0.930 . S
C1051 C1052 1.355 . S
C1051 C1053 1.415 . S
C1052 C1051 1.355 . S
C1052 C1054 1.419 . S
C1053 C1048 1.425 1_655 S
C1053 C1050 1.409 1_655 S
C1053 C1051 1.415 . S
C1054 H1044 0.930 . S
C1054 C1052 1.419 . S
C1054 C1055 1.362 . S
C1055 H1045 0.930 . S
C1055 C1048 1.409 1_655 S
C1055 C1054 1.362 . S
H1056 C1062 0.930 . S
H1057 C1065 0.930 . S
H1058 C1066 0.930 . S
H1059 C1067 0.930 . S
H1060 C1070 0.930 . S
H1061 C1071 0.930 . S
C1062 H1056 0.930 . S
C1062 C1063 1.355 . S
C1062 C1064 1.415 . S
C1063 C1062 1.355 . S
C1063 C1065 1.419 . S
C1064 C1062 1.415 . S
C1064 C1069 1.425 . S
C1064 C1071 1.409 . S
C1065 H1057 0.930 . S
C1065 C1063 1.419 . S
C1065 C1066 1.362 . S
C1066 H1058 0.930 . S
C1066 C1065 1.362 . S
C1066 C1069 1.409 . S
C1067 H1059 0.930 . S
C1067 C1068 1.355 . S
C1067 C1069 1.415 . S
C1068 C1067 1.355 . S
C1068 C1070 1.419 . S
C1069 C1064 1.425 . S
C1069 C1066 1.409 . S
C1069 C1067 1.415 . S
C1070 H1060 0.930 . S
C1070 C1068 1.419 . S
C1070 C1071 1.362 . S
C1071 H1061 0.930 . S
C1071 C1064 1.409 . S
C1071 C1070 1.362 . S
H1072 C1078 0.930 . S
H1073 C1081 0.930 . S
H1074 C1082 0.930 . S
H1075 C1083 0.930 . S
H1076 C1086 0.930 . S
H1077 C1087 0.930 . S
C1078 H1072 0.930 . S
C1078 C1079 1.355 . S
C1078 C1080 1.415 . S
C1079 C1078 1.355 . S
C1079 C1081 1.419 . S
C1080 C1078 1.415 . S
C1080 C1085 1.425 . S
C1080 C1087 1.409 . S
C1081 H1073 0.930 . S
C1081 C1079 1.419 . S
C1081 C1082 1.362 . S
C1082 H1074 0.930 . S
C1082 C1081 1.362 . S
C1082 C1085 1.409 . S
C1083 H1075 0.930 . S
C1083 C1084 1.355 . S
C1083 C1085 1.415 . S
C1084 C1083 1.355 . S
C1084 C1086 1.419 . S
C1085 C1080 1.425 . S
C1085 C1082 1.409 . S
C1085 C1083 1.415 . S
C1086 H1076 0.930 . S
C1086 C1084 1.419 . S
C1086 C1087 1.362 . S
C1087 H1077 0.930 . S
C1087 C1080 1.409 . S
C1087 C1086 1.362 . S
H1088 C1094 0.930 . S
H1089 C1097 0.930 . S
H1090 C1098 0.930 . S
H1091 C1099 0.930 . S
H1092 C1102 0.930 . S
H1093 C1103 0.930 . S
C1094 H1088 0.930 . S
C1094 C1095 1.355 . S
C1094 C1096 1.415 . S
C1095 C1094 1.355 . S
C1095 C1097 1.419 . S
C1096 C1094 1.415 . S
C1096 C1101 1.425 . S
C1096 C1103 1.409 . S
C1097 H1089 0.930 . S
C1097 C1095 1.419 . S
C1097 C1098 1.362 . S
C1098 H1090 0.930 . S
C1098 C1097 1.362 . S
C1098 C1101 1.409 . S
C1099 H1091 0.930 . S
C1099 C1100 1.355 . S
C1099 C1101 1.415 . S
C1100 C1099 1.355 . S
C1100 C1102 1.419 . S
C1101 C1096 1.425 . S
C1101 C1098 1.409 . S
C1101 C1099 1.415 . S
C1102 H1092 0.930 . S
C1102 C1100 1.419 . S
C1102 C1103 1.362 . S
C1103 H1093 0.930 . S
C1103 C1096 1.409 . S
C1103 C1102 1.362 . S
H1104 C1110 0.930 . S
H1105 C1113 0.930 . S
H1106 C1114 0.930 . S
H1107 C1115 0.930 . S
H1108 C1118 0.930 . S
H1109 C1119 0.930 . S
C1110 H1104 0.930 . S
C1110 C1111 1.355 . S
C1110 C1112 1.415 . S
C1111 C1110 1.355 . S
C1111 C1113 1.419 . S
C1112 C1110 1.415 . S
C1112 C1117 1.425 . S
C1112 C1119 1.409 . S
C1113 H1105 0.930 . S
C1113 C1111 1.419 . S
C1113 C1114 1.362 . S
C1114 H1106 0.930 . S
C1114 C1113 1.362 . S
C1114 C1117 1.409 . S
C1115 H1107 0.930 . S
C1115 C1116 1.355 . S
C1115 C1117 1.415 . S
C1116 C1115 1.355 . S
C1116 C1118 1.419 . S
C1117 C1112 1.425 . S
C1117 C1114 1.409 . S
C1117 C1115 1.415 . S
C1118 H1108 0.930 . S
C1118 C1116 1.419 . S
C1118 C1119 1.362 . S
C1119 H1109 0.930 . S
C1119 C1112 1.409 . S
C1119 C1118 1.362 . S
H1120 C1126 0.930 . S
H1121 C1129 0.930 . S
H1122 C1130 0.930 . S
H1123 C1131 0.930 . S
H1124 C1134 0.930 . S
H1125 C1135 0.930 . S
C1126 H1120 0.930 . S
C1126 C1127 1.355 . S
C1126 C1128 1.415 . S
C1127 C1126 1.355 . S
C1127 C1129 1.419 . S
C1128 C1126 1.415 . S
C1128 C1133 1.425 . S
C1128 C1135 1.409 . S
C1129 H1121 0.930 . S
C1129 C1127 1.419 . S
C1129 C1130 1.362 . S
C1130 H1122 0.930 . S
C1130 C1129 1.362 . S
C1130 C1133 1.409 . S
C1131 H1123 0.930 . S
C1131 C1132 1.355 . S
C1131 C1133 1.415 . S
C1132 C1131 1.355 . S
C1132 C1134 1.419 . S
C1133 C1128 1.425 . S
C1133 C1130 1.409 . S
C1133 C1131 1.415 . S
C1134 H1124 0.930 . S
C1134 C1132 1.419 . S
C1134 C1135 1.362 . S
C1135 H1125 0.930 . S
C1135 C1128 1.409 . S
C1135 C1134 1.362 . S
H1136 C1142 0.930 . S
H1137 C1145 0.930 . S
H1138 C1146 0.930 . S
H1139 C1147 0.930 . S
H1140 C1150 0.930 . S
H1141 C1151 0.930 . S
C1142 H1136 0.930 . S
C1142 C1143 1.355 . S
C1142 C1144 1.415 . S
C1143 C1142 1.355 . S
C1143 C1145 1.419 . S
C1144 C1142 1.415 . S
C1144 C1149 1.425 . S
C1144 C1151 1.409 . S
C1145 H1137 0.930 . S
C1145 C1143 1.419 . S
C1145 C1146 1.362 . S
C1146 H1138 0.930 . S
C1146 C1145 1.362 . S
C1146 C1149 1.409 . S
C1147 H1139 0.930 . S
C1147 C1148 1.355 . S
C1147 C1149 1.415 . S
C1148 C1147 1.355 . S
C1148 C1150 1.419 . S
C1149 C1144 1.425 . S
C1149 C1146 1.409 . S
C1149 C1147 1.415 . S
C1150 H1140 0.930 . S
C1150 C1148 1.419 . S
C1150 C1151 1.362 . S
C1151 H1141 0.930 . S
C1151 C1144 1.409 . S
C1151 C1150 1.362 . S
H1152 C1158 0.930 . S
H1153 C1161 0.930 . S
H1154 C1162 0.930 . S
H1155 C1163 0.930 . S
H1156 C1166 0.930 . S
H1157 C1167 0.930 . S
C1158 H1152 0.930 . S
C1158 C1159 1.355 . S
C1158 C1160 1.415 . S
C1159 C1158 1.355 . S
C1159 C1161 1.419 . S
C1160 C1158 1.415 . S
C1160 C1165 1.425 . S
C1160 C1167 1.409 . S
C1161 H1153 0.930 . S
C1161 C1159 1.419 . S
C1161 C1162 1.362 . S
C1162 H1154 0.930 . S
C1162 C1161 1.362 . S
C1162 C1165 1.409 . S
C1163 H1155 0.930 . S
C1163 C1164 1.355 . S
C1163 C1165 1.415 . S
C1164 C1163 1.355 . S
C1164 C1166 1.419 . S
C1165 C1160 1.425 . S
C1165 C1162 1.409 . S
C1165 C1163 1.415 . S
C1166 H1156 0.930 . S
C1166 C1164 1.419 . S
C1166 C1167 1.362 . S
C1167 H1157 0.930 . S
C1167 C1160 1.409 . S
C1167 C1166 1.362 . S
H1168 C1174 0.930 . S
H1169 C1177 0.930 . S
H1170 C1178 0.930 . S
H1171 C1179 0.930 . S
H1172 C1182 0.930 . S
H1173 C1183 0.930 . S
C1174 H1168 0.930 . S
C1174 C1175 1.355 . S
C1174 C1176 1.415 . S
C1175 C1174 1.355 . S
C1175 C1177 1.419 . S
C1176 C1174 1.415 . S
C1176 C1181 1.425 . S
C1176 C1183 1.409 . S
C1177 H1169 0.930 . S
C1177 C1175 1.419 . S
C1177 C1178 1.362 . S
C1178 H1170 0.930 . S
C1178 C1177 1.362 . S
C1178 C1181 1.409 . S
C1179 H1171 0.930 . S
C1179 C1180 1.355 . S
C1179 C1181 1.415 . S
C1180 C1179 1.355 . S
C1180 C1182 1.419 . S
C1181 C1176 1.425 . S
C1181 C1178 1.409 . S
C1181 C1179 1.415 . S
C1182 H1172 0.930 . S
C1182 C1180 1.419 . S
C1182 C1183 1.362 . S
C1183 H1173 0.930 . S
C1183 C1176 1.409 . S
C1183 C1182 1.362 . S
H1184 C1190 0.930 . S
H1185 C1193 0.930 . S
H1186 C1194 0.930 . S
H1187 C1195 0.930 . S
H1188 C1198 0.930 . S
H1189 C1199 0.930 . S
C1190 H1184 0.930 . S
C1190 C1191 1.355 . S
C1190 C1192 1.415 . S
C1191 C1190 1.355 . S
C1191 C1193 1.419 . S
C1192 C1190 1.415 . S
C1192 C1197 1.425 . S
C1192 C1199 1.409 . S
C1193 H1185 0.930 . S
C1193 C1191 1.419 . S
C1193 C1194 1.362 . S
C1194 H1186 0.930 . S
C1194 C1193 1.362 . S
C1194 C1197 1.409 . S
C1195 H1187 0.930 . S
C1195 C1196 1.355 . S
C1195 C1197 1.415 . S
C1196 C1195 1.355 . S
C1196 C1198 1.419 . S
C1197 C1192 1.425 . S
C1197 C1194 1.409 . S
C1197 C1195 1.415 . S
C1198 H1188 0.930 . S
C1198 C1196 1.419 . S
C1198 C1199 1.362 . S
C1199 H1189 0.930 . S
C1199 C1192 1.409 . S
C1199 C1198 1.362 . S
H1200 C1206 0.930 . S
H1201 C1209 0.930 . S
H1202 C1210 0.930 . S
H1203 C1211 0.930 . S
H1204 C1214 0.930 . S
H1205 C1215 0.930 . S
C1206 H1200 0.930 . S
C1206 C1207 1.355 . S
C1206 C1208 1.415 . S
C1207 C1206 1.355 . S
C1207 C1209 1.419 . S
C1208 C1206 1.415 . S
C1208 C1213 1.425 . S
C1208 C1215 1.409 . S
C1209 H1201 0.930 . S
C1209 C1207 1.419 . S
C1209 C1210 1.362 . S
C1210 H1202 0.930 . S
C1210 C1209 1.362 . S
C1210 C1213 1.409 . S
C1211 H1203 0.930 . S
C1211 C1212 1.355 . S
C1211 C1213 1.415 . S
C1212 C1211 1.355 . S
C1212 C1214 1.419 . S
C1213 C1208 1.425 . S
C1213 C1210 1.409 . S
C1213 C1211 1.415 . S
C1214 H1204 0.930 . S
C1214 C1212 1.419 . S
C1214 C1215 1.362 . S
C1215 H1205 0.930 . S
C1215 C1208 1.409 . S
C1215 C1214 1.362 . S
H1216 C1222 0.930 . S
H1217 C1225 0.930 . S
H1218 C1226 0.930 . S
H1219 C1227 0.930 . S
H1220 C1230 0.930 . S
H1221 C1231 0.930 . S
C1222 H1216 0.930 . S
C1222 C1223 1.355 . S
C1222 C1224 1.415 . S
C1223 C1222 1.355 . S
C1223 C1225 1.419 . S
C1224 C1222 1.415 . S
C1224 C1229 1.425 . S
C1224 C1231 1.409 . S
C1225 H1217 0.930 . S
C1225 C1223 1.419 . S
C1225 C1226 1.362 . S
C1226 H1218 0.930 . S
C1226 C1225 1.362 . S
C1226 C1229 1.409 . S
C1227 H1219 0.930 . S
C1227 C1228 1.355 . S
C1227 C1229 1.415 . S
C1228 C1227 1.355 . S
C1228 C1230 1.419 . S
C1229 C1224 1.425 . S
C1229 C1226 1.409 . S
C1229 C1227 1.415 . S
C1230 H1220 0.930 . S
C1230 C1228 1.419 . S
C1230 C1231 1.362 . S
C1231 H1221 0.930 . S
C1231 C1224 1.409 . S
C1231 C1230 1.362 . S
H1232 C1238 0.930 . S
H1233 C1241 0.930 . S
H1234 C1242 0.930 . S
H1235 C1243 0.930 . S
H1236 C1246 0.930 . S
H1237 C1247 0.930 . S
C1238 H1232 0.930 . S
C1238 C1239 1.355 . S
C1238 C1240 1.415 . S
C1239 C1238 1.355 . S
C1239 C1241 1.419 . S
C1240 C1238 1.415 . S
C1240 C1245 1.425 . S
C1240 C1247 1.409 . S
C1241 H1233 0.930 . S
C1241 C1239 1.419 . S
C1241 C1242 1.362 . S
C1242 H1234 0.930 . S
C1242 C1241 1.362 . S
C1242 C1245 1.409 . S
C1243 H1235 0.930 . S
C1243 C1244 1.355 . S
C1243 C1245 1.415 . S
C1244 C1243 1.355 . S
C1244 C1246 1.419 . S
C1245 C1240 1.425 . S
C1245 C1242 1.409 . S
C1245 C1243 1.415 . S
C1246 H1236 0.930 . S
C1246 C1244 1.419 . S
C1246 C1247 1.362 . S
C1247 H1237 0.930 . S
C1247 C1240 1.409 . S
C1247 C1246 1.362 . S
H1248 C1254 0.930 . S
H1249 C1257 0.930 . S
H1250 C1258 0.930 . S
H1251 C1259 0.930 . S
H1252 C1262 0.930 . S
H1253 C1263 0.930 . S
C1254 H1248 0.930 . S
C1254 C1255 1.355 . S
C1254 C1256 1.415 . S
C1255 C1254 1.355 . S
C1255 C1257 1.419 . S
C1256 C1254 1.415 . S
C1256 C1261 1.425 1_554 S
C1256 C1263 1.409 1_554 S
C1257 H1249 0.930 . S
C1257 C1255 1.419 . S
C1257 C1258 1.362 . S
C1258 H1250 0.930 . S
C1258 C1257 1.362 . S
C1258 C1261 1.409 1_554 S
C1259 H1251 0.930 . S
C1259 C1260 1.355 . S
C1259 C1261 1.415 . S
C1260 C1259 1.355 . S
C1260 C1262 1.419 . S
C1261 C1256 1.425 1_556 S
C1261 C1258 1.409 1_556 S
C1261 C1259 1.415 . S
C1262 H1252 0.930 . S
C1262 C1260 1.419 . S
C1262 C1263 1.362 . S
C1263 H1253 0.930 . S
C1263 C1256 1.409 1_556 S
C1263 C1262 1.362 . S
H1264 C1270 0.930 . S
H1265 C1273 0.930 . S
H1266 C1274 0.930 . S
H1267 C1275 0.930 . S
H1268 C1278 0.930 . S
H1269 C1279 0.930 . S
C1270 H1264 0.930 . S
C1270 C1271 1.355 . S
C1270 C1272 1.415 . S
C1271 C1270 1.355 . S
C1271 C1273 1.419 . S
C1272 C1270 1.415 . S
C1272 C1277 1.425 1_556 S
C1272 C1279 1.409 1_556 S
C1273 H1265 0.930 . S
C1273 C1271 1.419 . S
C1273 C1274 1.362 . S
C1274 H1266 0.930 . S
C1274 C1273 1.362 . S
C1274 C1277 1.409 1_556 S
C1275 H1267 0.930 . S
C1275 C1276 1.355 . S
C1275 C1277 1.415 . S
C1276 C1275 1.355 . S
C1276 C1278 1.419 . S
C1277 C1272 1.425 1_554 S
C1277 C1274 1.409 1_554 S
C1277 C1275 1.415 . S
C1278 H1268 0.930 . S
C1278 C1276 1.419 . S
C1278 C1279 1.362 . S
C1279 H1269 0.930 . S
C1279 C1272 1.409 1_554 S
C1279 C1278 1.362 . S
H1280 C1286 0.930 . S
H1281 C1289 0.930 . S
H1282 C1290 0.930 . S
H1283 C1291 0.930 . S
H1284 C1294 0.930 . S
H1285 C1295 0.930 . S
C1286 H1280 0.930 . S
C1286 C1287 1.355 . S
C1286 C1288 1.415 . S
C1287 C1286 1.355 . S
C1287 C1289 1.419 . S
C1288 C1286 1.415 . S
C1288 C1293 1.425 1_556 S
C1288 C1295 1.409 1_556 S
C1289 H1281 0.930 . S
C1289 C1287 1.419 . S
C1289 C1290 1.362 . S
C1290 H1282 0.930 . S
C1290 C1289 1.362 . S
C1290 C1293 1.409 1_556 S
C1291 H1283 0.930 . S
C1291 C1292 1.355 . S
C1291 C1293 1.415 . S
C1292 C1291 1.355 . S
C1292 C1294 1.419 . S
C1293 C1288 1.425 1_554 S
C1293 C1290 1.409 1_554 S
C1293 C1291 1.415 . S
C1294 H1284 0.930 . S
C1294 C1292 1.419 . S
C1294 C1295 1.362 . S
C1295 H1285 0.930 . S
C1295 C1288 1.409 1_554 S
C1295 C1294 1.362 . S
H1296 C1302 0.930 . S
H1297 C1305 0.930 . S
H1298 C1306 0.930 . S
H1299 C1307 0.930 . S
H1300 C1310 0.930 . S
H1301 C1311 0.930 . S
C1302 H1296 0.930 . S
C1302 C1303 1.355 . S
C1302 C1304 1.415 . S
C1303 C1302 1.355 . S
C1303 C1305 1.419 . S
C1304 C1302 1.415 . S
C1304 C1309 1.425 1_554 S
C1304 C1311 1.409 1_554 S
C1305 H1297 0.930 . S
C1305 C1303 1.419 . S
C1305 C1306 1.362 . S
C1306 H1298 0.930 . S
C1306 C1305 1.362 . S
C1306 C1309 1.409 1_554 S
C1307 H1299 0.930 . S
C1307 C1308 1.355 . S
C1307 C1309 1.415 . S
C1308 C1307 1.355 . S
C1308 C1310 1.419 . S
C1309 C1304 1.425 1_556 S
C1309 C1306 1.409 1_556 S
C1309 C1307 1.415 . S
C1310 H1300 0.930 . S
C1310 C1308 1.419 . S
C1310 C1311 1.362 . S
C1311 H1301 0.930 . S
C1311 C1304 1.409 1_556 S
C1311 C1310 1.362 . S
H1312 C1318 0.930 . S
H1313 C1321 0.930 . S
H1314 C1322 0.930 . S
H1315 C1323 0.930 . S
H1316 C1326 0.930 . S
H1317 C1327 0.930 . S
C1318 H1312 0.930 . S
C1318 C1319 1.355 . S
C1318 C1320 1.415 . S
C1319 C1318 1.355 . S
C1319 C1321 1.419 . S
C1320 C1318 1.415 . S
C1320 C1325 1.425 1_554 S
C1320 C1327 1.409 1_554 S
C1321 H1313 0.930 . S
C1321 C1319 1.419 . S
C1321 C1322 1.362 . S
C1322 H1314 0.930 . S
C1322 C1321 1.362 . S
C1322 C1325 1.409 1_554 S
C1323 H1315 0.930 . S
C1323 C1324 1.355 . S
C1323 C1325 1.415 . S
C1324 C1323 1.355 . S
C1324 C1326 1.419 . S
C1325 C1320 1.425 1_556 S
C1325 C1322 1.409 1_556 S
C1325 C1323 1.415 . S
C1326 H1316 0.930 . S
C1326 C1324 1.419 . S
C1326 C1327 1.362 . S
C1327 H1317 0.930 . S
C1327 C1320 1.409 1_556 S
C1327 C1326 1.362 . S
H1328 C1334 0.930 . S
H1329 C1337 0.930 . S
H1330 C1338 0.930 . S
H1331 C1339 0.930 . S
H1332 C1342 0.930 . S
H1333 C1343 0.930 . S
C1334 H1328 0.930 . S
C1334 C1335 1.355 . S
C1334 C1336 1.415 . S
C1335 C1334 1.355 . S
C1335 C1337 1.419 . S
C1336 C1334 1.415 . S
C1336 C1341 1.425 1_556 S
C1336 C1343 1.409 1_556 S
C1337 H1329 0.930 . S
C1337 C1335 1.419 . S
C1337 C1338 1.362 . S
C1338 H1330 0.930 . S
C1338 C1337 1.362 . S
C1338 C1341 1.409 1_556 S
C1339 H1331 0.930 . S
C1339 C1340 1.355 . S
C1339 C1341 1.415 . S
C1340 C1339 1.355 . S
C1340 C1342 1.419 . S
C1341 C1336 1.425 1_554 S
C1341 C1338 1.409 1_554 S
C1341 C1339 1.415 . S
C1342 H1332 0.930 . S
C1342 C1340 1.419 . S
C1342 C1343 1.362 . S
C1343 H1333 0.930 . S
C1343 C1336 1.409 1_554 S
C1343 C1342 1.362 . S
H1344 C1350 0.930 . S
H1345 C1353 0.930 . S
H1346 C1354 0.930 . S
H1347 C1355 0.930 . S
H1348 C1358 0.930 . S
H1349 C1359 0.930 . S
C1350 H1344 0.930 . S
C1350 C1351 1.355 . S
C1350 C1352 1.415 . S
C1351 C1350 1.355 . S
C1351 C1353 1.419 . S
C1352 C1350 1.415 . S
C1352 C1357 1.425 . S
C1352 C1359 1.409 . S
C1353 H1345 0.930 . S
C1353 C1351 1.419 . S
C1353 C1354 1.362 . S
C1354 H1346 0.930 . S
C1354 C1353 1.362 . S
C1354 C1357 1.409 . S
C1355 H1347 0.930 . S
C1355 C1356 1.355 . S
C1355 C1357 1.415 . S
C1356 C1355 1.355 . S
C1356 C1358 1.419 . S
C1357 C1352 1.425 . S
C1357 C1354 1.409 . S
C1357 C1355 1.415 . S
C1358 H1348 0.930 . S
C1358 C1356 1.419 . S
C1358 C1359 1.362 . S
C1359 H1349 0.930 . S
C1359 C1352 1.409 . S
C1359 C1358 1.362 . S
H1360 C1366 0.930 . S
H1361 C1369 0.930 . S
H1362 C1370 0.930 . S
H1363 C1371 0.930 . S
H1364 C1374 0.930 . S
H1365 C1375 0.930 . S
C1366 H1360 0.930 . S
C1366 C1367 1.355 . S
C1366 C1368 1.415 . S
C1367 C1366 1.355 . S
C1367 C1369 1.419 . S
C1368 C1366 1.415 . S
C1368 C1373 1.425 . S
C1368 C1375 1.409 . S
C1369 H1361 0.930 . S
C1369 C1367 1.419 . S
C1369 C1370 1.362 . S
C1370 H1362 0.930 . S
C1370 C1369 1.362 . S
C1370 C1373 1.409 . S
C1371 H1363 0.930 . S
C1371 C1372 1.355 . S
C1371 C1373 1.415 . S
C1372 C1371 1.355 . S
C1372 C1374 1.419 . S
C1373 C1368 1.425 . S
C1373 C1370 1.409 . S
C1373 C1371 1.415 . S
C1374 H1364 0.930 . S
C1374 C1372 1.419 . S
C1374 C1375 1.362 . S
C1375 H1365 0.930 . S
C1375 C1368 1.409 . S
C1375 C1374 1.362 . S
H1376 C1382 0.930 . S
H1377 C1385 0.930 . S
H1378 C1386 0.930 . S
H1379 C1387 0.930 . S
H1380 C1390 0.930 . S
H1381 C1391 0.930 . S
C1382 H1376 0.930 . S
C1382 C1383 1.355 . S
C1382 C1384 1.415 . S
C1383 C1382 1.355 . S
C1383 C1385 1.419 . S
C1384 C1382 1.415 . S
C1384 C1389 1.425 . S
C1384 C1391 1.409 . S
C1385 H1377 0.930 . S
C1385 C1383 1.419 . S
C1385 C1386 1.362 . S
C1386 H1378 0.930 . S
C1386 C1385 1.362 . S
C1386 C1389 1.409 . S
C1387 H1379 0.930 . S
C1387 C1388 1.355 . S
C1387 C1389 1.415 . S
C1388 C1387 1.355 . S
C1388 C1390 1.419 . S
C1389 C1384 1.425 . S
C1389 C1386 1.409 . S
C1389 C1387 1.415 . S
C1390 H1380 0.930 . S
C1390 C1388 1.419 . S
C1390 C1391 1.362 . S
C1391 H1381 0.930 . S
C1391 C1384 1.409 . S
C1391 C1390 1.362 . S
H1392 C1398 0.930 . S
H1393 C1401 0.930 . S
H1394 C1402 0.930 . S
H1395 C1403 0.930 . S
H1396 C1406 0.930 . S
H1397 C1407 0.930 . S
C1398 H1392 0.930 . S
C1398 C1399 1.355 . S
C1398 C1400 1.415 . S
C1399 C1398 1.355 . S
C1399 C1401 1.419 . S
C1400 C1398 1.415 . S
C1400 C1405 1.425 . S
C1400 C1407 1.409 . S
C1401 H1393 0.930 . S
C1401 C1399 1.419 . S
C1401 C1402 1.362 . S
C1402 H1394 0.930 . S
C1402 C1401 1.362 . S
C1402 C1405 1.409 . S
C1403 H1395 0.930 . S
C1403 C1404 1.355 . S
C1403 C1405 1.415 . S
C1404 C1403 1.355 . S
C1404 C1406 1.419 . S
C1405 C1400 1.425 . S
C1405 C1402 1.409 . S
C1405 C1403 1.415 . S
C1406 H1396 0.930 . S
C1406 C1404 1.419 . S
C1406 C1407 1.362 . S
C1407 H1397 0.930 . S
C1407 C1400 1.409 . S
C1407 C1406 1.362 . S
H1408 C1414 0.930 . S
H1409 C1417 0.930 . S
H1410 C1418 0.930 . S
H1411 C1419 0.930 . S
H1412 C1422 0.930 . S
H1413 C1423 0.930 . S
C1414 H1408 0.930 . S
C1414 C1415 1.355 . S
C1414 C1416 1.415 . S
C1415 C1414 1.355 . S
C1415 C1417 1.419 . S
C1416 C1414 1.415 . S
C1416 C1421 1.425 . S
C1416 C1423 1.409 . S
C1417 H1409 0.930 . S
C1417 C1415 1.419 . S
C1417 C1418 1.362 . S
C1418 H1410 0.930 . S
C1418 C1417 1.362 . S
C1418 C1421 1.409 . S
C1419 H1411 0.930 . S
C1419 C1420 1.355 . S
C1419 C1421 1.415 . S
C1420 C1419 1.355 . S
C1420 C1422 1.419 . S
C1421 C1416 1.425 . S
C1421 C1418 1.409 . S
C1421 C1419 1.415 . S
C1422 H1412 0.930 . S
C1422 C1420 1.419 . S
C1422 C1423 1.362 . S
C1423 H1413 0.930 . S
C1423 C1416 1.409 . S
C1423 C1422 1.362 . S
H1424 C1430 0.930 . S
H1425 C1433 0.930 . S
H1426 C1434 0.930 . S
H1427 C1435 0.930 . S
H1428 C1438 0.930 . S
H1429 C1439 0.930 . S
C1430 H1424 0.930 . S
C1430 C1431 1.355 . S
C1430 C1432 1.415 . S
C1431 C1430 1.355 . S
C1431 C1433 1.419 . S
C1432 C1430 1.415 . S
C1432 C1437 1.425 . S
C1432 C1439 1.409 . S
C1433 H1425 0.930 . S
C1433 C1431 1.419 . S
C1433 C1434 1.362 . S
C1434 H1426 0.930 . S
C1434 C1433 1.362 . S
C1434 C1437 1.409 . S
C1435 H1427 0.930 . S
C1435 C1436 1.355 . S
C1435 C1437 1.415 . S
C1436 C1435 1.355 . S
C1436 C1438 1.419 . S
C1437 C1432 1.425 . S
C1437 C1434 1.409 . S
C1437 C1435 1.415 . S
C1438 H1428 0.930 . S
C1438 C1436 1.419 . S
C1438 C1439 1.362 . S
C1439 H1429 0.930 . S
C1439 C1432 1.409 . S
C1439 C1438 1.362 . S
H1440 C1446 0.930 . S
H1441 C1449 0.930 . S
H1442 C1450 0.930 . S
H1443 C1451 0.930 . S
H1444 C1454 0.930 . S
H1445 C1455 0.930 . S
C1446 H1440 0.930 . S
C1446 C1447 1.355 . S
C1446 C1448 1.415 . S
C1447 C1446 1.355 . S
C1447 C1449 1.419 . S
C1448 C1446 1.415 . S
C1448 C1453 1.425 . S
C1448 C1455 1.409 . S
C1449 H1441 0.930 . S
C1449 C1447 1.419 . S
C1449 C1450 1.362 . S
C1450 H1442 0.930 . S
C1450 C1449 1.362 . S
C1450 C1453 1.409 . S
C1451 H1443 0.930 . S
C1451 C1452 1.355 . S
C1451 C1453 1.415 . S
C1452 C1451 1.355 . S
C1452 C1454 1.419 . S
C1453 C1448 1.425 . S
C1453 C1450 1.409 . S
C1453 C1451 1.415 . S
C1454 H1444 0.930 . S
C1454 C1452 1.419 . S
C1454 C1455 1.362 . S
C1455 H1445 0.930 . S
C1455 C1448 1.409 . S
C1455 C1454 1.362 . S
H1456 C1462 0.930 . S
H1457 C1465 0.930 . S
H1458 C1466 0.930 . S
H1459 C1467 0.930 . S
H1460 C1470 0.930 . S
H1461 C1471 0.930 . S
C1462 H1456 0.930 . S
C1462 C1463 1.355 . S
C1462 C1464 1.415 . S
C1463 C1462 1.355 . S
C1463 C1465 1.419 . S
C1464 C1462 1.415 . S
C1464 C1469 1.425 . S
C1464 C1471 1.409 . S
C1465 H1457 0.930 . S
C1465 C1463 1.419 . S
C1465 C1466 1.362 . S
C1466 H1458 0.930 . S
C1466 C1465 1.362 . S
C1466 C1469 1.409 . S
C1467 H1459 0.930 . S
C1467 C1468 1.355 . S
C1467 C1469 1.415 . S
C1468 C1467 1.355 . S
C1468 C1470 1.419 . S
C1469 C1464 1.425 . S
C1469 C1466 1.409 . S
C1469 C1467 1.415 . S
C1470 H1460 0.930 . S
C1470 C1468 1.419 . S
C1470 C1471 1.362 . S
C1471 H1461 0.930 . S
C1471 C1464 1.409 . S
C1471 C1470 1.362 . S
H1472 C1478 0.930 . S
H1473 C1481 0.930 . S
H1474 C1482 0.930 . S
H1475 C1483 0.930 . S
H1476 C1486 0.930 . S
H1477 C1487 0.930 . S
C1478 H1472 0.930 . S
C1478 C1479 1.355 . S
C1478 C1480 1.415 . S
C1479 C1478 1.355 . S
C1479 C1481 1.419 . S
C1480 C1478 1.415 . S
C1480 C1485 1.425 . S
C1480 C1487 1.409 . S
C1481 H1473 0.930 . S
C1481 C1479 1.419 . S
C1481 C1482 1.362 . S
C1482 H1474 0.930 . S
C1482 C1481 1.362 . S
C1482 C1485 1.409 . S
C1483 H1475 0.930 . S
C1483 C1484 1.355 . S
C1483 C1485 1.415 . S
C1484 C1483 1.355 . S
C1484 C1486 1.419 . S
C1485 C1480 1.425 . S
C1485 C1482 1.409 . S
C1485 C1483 1.415 . S
C1486 H1476 0.930 . S
C1486 C1484 1.419 . S
C1486 C1487 1.362 . S
C1487 H1477 0.930 . S
C1487 C1480 1.409 . S
C1487 C1486 1.362 . S
H1488 C1494 0.930 . S
H1489 C1497 0.930 . S
H1490 C1498 0.930 . S
H1491 C1499 0.930 . S
H1492 C1502 0.930 . S
H1493 C1503 0.930 . S
C1494 H1488 0.930 . S
C1494 C1495 1.355 . S
C1494 C1496 1.415 . S
C1495 C1494 1.355 . S
C1495 C1497 1.419 . S
C1496 C1494 1.415 . S
C1496 C1501 1.425 . S
C1496 C1503 1.409 . S
C1497 H1489 0.930 . S
C1497 C1495 1.419 . S
C1497 C1498 1.362 . S
C1498 H1490 0.930 . S
C1498 C1497 1.362 . S
C1498 C1501 1.409 . S
C1499 H1491 0.930 . S
C1499 C1500 1.355 . S
C1499 C1501 1.415 . S
C1500 C1499 1.355 . S
C1500 C1502 1.419 . S
C1501 C1496 1.425 . S
C1501 C1498 1.409 . S
C1501 C1499 1.415 . S
C1502 H1492 0.930 . S
C1502 C1500 1.419 . S
C1502 C1503 1.362 . S
C1503 H1493 0.930 . S
C1503 C1496 1.409 . S
C1503 C1502 1.362 . S
H1504 C1510 0.930 . S
H1505 C1513 0.930 . S
H1506 C1514 0.930 . S
H1507 C1515 0.930 . S
H1508 C1518 0.930 . S
H1509 C1519 0.930 . S
C1510 H1504 0.930 . S
C1510 C1511 1.355 . S
C1510 C1512 1.415 . S
C1511 C1510 1.355 . S
C1511 C1513 1.419 . S
C1512 C1510 1.415 . S
C1512 C1517 1.425 . S
C1512 C1519 1.409 . S
C1513 H1505 0.930 . S
C1513 C1511 1.419 . S
C1513 C1514 1.362 . S
C1514 H1506 0.930 . S
C1514 C1513 1.362 . S
C1514 C1517 1.409 . S
C1515 H1507 0.930 . S
C1515 C1516 1.355 . S
C1515 C1517 1.415 . S
C1516 C1515 1.355 . S
C1516 C1518 1.419 . S
C1517 C1512 1.425 . S
C1517 C1514 1.409 . S
C1517 C1515 1.415 . S
C1518 H1508 0.930 . S
C1518 C1516 1.419 . S
C1518 C1519 1.362 . S
C1519 H1509 0.930 . S
C1519 C1512 1.409 . S
C1519 C1518 1.362 . S
H1520 C1526 0.930 . S
H1521 C1529 0.930 . S
H1522 C1530 0.930 . S
H1523 C1531 0.930 . S
H1524 C1534 0.930 . S
H1525 C1535 0.930 . S
C1526 H1520 0.930 . S
C1526 C1527 1.355 . S
C1526 C1528 1.415 . S
C1527 C1526 1.355 . S
C1527 C1529 1.419 . S
C1528 C1526 1.415 . S
C1528 C1533 1.425 . S
C1528 C1535 1.409 . S
C1529 H1521 0.930 . S
C1529 C1527 1.419 . S
C1529 C1530 1.362 . S
C1530 H1522 0.930 . S
C1530 C1529 1.362 . S
C1530 C1533 1.409 . S
C1531 H1523 0.930 . S
C1531 C1532 1.355 . S
C1531 C1533 1.415 . S
C1532 C1531 1.355 . S
C1532 C1534 1.419 . S
C1533 C1528 1.425 . S
C1533 C1530 1.409 . S
C1533 C1531 1.415 . S
C1534 H1524 0.930 . S
C1534 C1532 1.419 . S
C1534 C1535 1.362 . S
C1535 H1525 0.930 . S
C1535 C1528 1.409 . S
C1535 C1534 1.362 . S
H1536 C1542 0.930 . S
H1537 C1545 0.930 . S
H1538 C1546 0.930 . S
H1539 C1547 0.930 . S
H1540 C1550 0.930 . S
H1541 C1551 0.930 . S
C1542 H1536 0.930 . S
C1542 C1543 1.355 . S
C1542 C1544 1.415 . S
C1543 C1542 1.355 . S
C1543 C1545 1.419 . S
C1544 C1542 1.415 . S
C1544 C1549 1.425 . S
C1544 C1551 1.409 . S
C1545 H1537 0.930 . S
C1545 C1543 1.419 . S
C1545 C1546 1.362 . S
C1546 H1538 0.930 . S
C1546 C1545 1.362 . S
C1546 C1549 1.409 . S
C1547 H1539 0.930 . S
C1547 C1548 1.355 . S
C1547 C1549 1.415 . S
C1548 C1547 1.355 . S
C1548 C1550 1.419 . S
C1549 C1544 1.425 . S
C1549 C1546 1.409 . S
C1549 C1547 1.415 . S
C1550 H1540 0.930 . S
C1550 C1548 1.419 . S
C1550 C1551 1.362 . S
C1551 H1541 0.930 . S
C1551 C1544 1.409 . S
C1551 C1550 1.362 . S
H1552 C1558 0.930 . S
H1553 C1561 0.930 . S
H1554 C1562 0.930 . S
H1555 C1563 0.930 . S
H1556 C1566 0.930 . S
H1557 C1567 0.930 . S
C1558 H1552 0.930 . S
C1558 C1559 1.355 . S
C1558 C1560 1.415 . S
C1559 C1558 1.355 . S
C1559 C1561 1.419 . S
C1560 C1558 1.415 . S
C1560 C1565 1.425 . S
C1560 C1567 1.409 . S
C1561 H1553 0.930 . S
C1561 C1559 1.419 . S
C1561 C1562 1.362 . S
C1562 H1554 0.930 . S
C1562 C1561 1.362 . S
C1562 C1565 1.409 . S
C1563 H1555 0.930 . S
C1563 C1564 1.355 . S
C1563 C1565 1.415 . S
C1564 C1563 1.355 . S
C1564 C1566 1.419 . S
C1565 C1560 1.425 . S
C1565 C1562 1.409 . S
C1565 C1563 1.415 . S
C1566 H1556 0.930 . S
C1566 C1564 1.419 . S
C1566 C1567 1.362 . S
C1567 H1557 0.930 . S
C1567 C1560 1.409 . S
C1567 C1566 1.362 . S
H1568 C1574 0.930 . S
H1569 C1577 0.930 . S
H1570 C1578 0.930 . S
H1571 C1579 0.930 . S
H1572 C1582 0.930 . S
H1573 C1583 0.930 . S
C1574 H1568 0.930 . S
C1574 C1575 1.355 . S
C1574 C1576 1.415 . S
C1575 C1574 1.355 . S
C1575 C1577 1.419 . S
C1576 C1574 1.415 . S
C1576 C1581 1.425 . S
C1576 C1583 1.409 . S
C1577 H1569 0.930 . S
C1577 C1575 1.419 . S
C1577 C1578 1.362 . S
C1578 H1570 0.930 . S
C1578 C1577 1.362 . S
C1578 C1581 1.409 . S
C1579 H1571 0.930 . S
C1579 C1580 1.355 . S
C1579 C1581 1.415 . S
C1580 C1579 1.355 . S
C1580 C1582 1.419 . S
C1581 C1576 1.425 . S
C1581 C1578 1.409 . S
C1581 C1579 1.415 . S
C1582 H1572 0.930 . S
C1582 C1580 1.419 . S
C1582 C1583 1.362 . S
C1583 H1573 0.930 . S
C1583 C1576 1.409 . S
C1583 C1582 1.362 . S
H1584 C1590 0.930 . S
H1585 C1593 0.930 . S
H1586 C1594 0.930 . S
H1587 C1595 0.930 . S
H1588 C1598 0.930 . S
H1589 C1599 0.930 . S
C1590 H1584 0.930 . S
C1590 C1591 1.355 . S
C1590 C1592 1.415 . S
C1591 C1590 1.355 . S
C1591 C1593 1.419 . S
C1592 C1590 1.415 . S
C1592 C1597 1.425 . S
C1592 C1599 1.409 . S
C1593 H1585 0.930 . S
C1593 C1591 1.419 . S
C1593 C1594 1.362 . S
C1594 H1586 0.930 . S
C1594 C1593 1.362 . S
C1594 C1597 1.409 . S
C1595 H1587 0.930 . S
C1595 C1596 1.355 . S
C1595 C1597 1.415 . S
C1596 C1595 1.355 . S
C1596 C1598 1.419 . S
C1597 C1592 1.425 . S
C1597 C1594 1.409 . S
C1597 C1595 1.415 . S
C1598 H1588 0.930 . S
C1598 C1596 1.419 . S
C1598 C1599 1.362 . S
C1599 H1589 0.930 . S
C1599 C1592 1.409 . S
C1599 C1598 1.362 . S
H1600 C1606 0.930 . S
H1601 C1609 0.930 . S
H1602 C1610 0.930 . S
H1603 C1611 0.930 . S
H1604 C1614 0.930 . S
H1605 C1615 0.930 . S
C1606 H1600 0.930 . S
C1606 C1607 1.355 . S
C1606 C1608 1.415 . S
C1607 C1606 1.355 . S
C1607 C1609 1.419 . S
C1608 C1606 1.415 . S
C1608 C1613 1.425 . S
C1608 C1615 1.409 . S
C1609 H1601 0.930 . S
C1609 C1607 1.419 . S
C1609 C1610 1.362 . S
C1610 H1602 0.930 . S
C1610 C1609 1.362 . S
C1610 C1613 1.409 . S
C1611 H1603 0.930 . S
C1611 C1612 1.355 . S
C1611 C1613 1.415 . S
C1612 C1611 1.355 . S
C1612 C1614 1.419 . S
C1613 C1608 1.425 . S
C1613 C1610 1.409 . S
C1613 C1611 1.415 . S
C1614 H1604 0.930 . S
C1614 C1612 1.419 . S
C1614 C1615 1.362 . S
C1615 H1605 0.930 . S
C1615 C1608 1.409 . S
C1615 C1614 1.362 . S
H1616 C1622 0.930 . S
H1617 C1625 0.930 . S
H1618 C1626 0.930 . S
H1619 C1627 0.930 . S
H1620 C1630 0.930 . S
H1621 C1631 0.930 . S
C1622 H1616 0.930 . S
C1622 C1623 1.355 . S
C1622 C1624 1.415 . S
C1623 C1622 1.355 . S
C1623 C1625 1.419 . S
C1624 C1622 1.415 . S
C1624 C1629 1.425 . S
C1624 C1631 1.409 . S
C1625 H1617 0.930 . S
C1625 C1623 1.419 . S
C1625 C1626 1.362 . S
C1626 H1618 0.930 . S
C1626 C1625 1.362 . S
C1626 C1629 1.409 . S
C1627 H1619 0.930 . S
C1627 C1628 1.355 . S
C1627 C1629 1.415 . S
C1628 C1627 1.355 . S
C1628 C1630 1.419 . S
C1629 C1624 1.425 . S
C1629 C1626 1.409 . S
C1629 C1627 1.415 . S
C1630 H1620 0.930 . S
C1630 C1628 1.419 . S
C1630 C1631 1.362 . S
C1631 H1621 0.930 . S
C1631 C1624 1.409 . S
C1631 C1630 1.362 . S
C871 C3 1.502 . S
C876 C255 1.513 . S
C887 C291 1.514 . S
C892 C39 1.506 . S
C903 C75 1.514 . S
C908 C327 1.506 . S
C919 C111 1.497 . S
C924 C363 1.507 . S
C935 C399 1.514 . S
C940 C147 1.508 . S
C951 C183 1.513 . S
C956 C219 1.505 . S
C967 C435 1.512 . S
C972 C687 1.501 . S
C983 C471 1.508 . S
C988 C723 1.497 . S
C999 C759 1.510 . S
C1004 C507 1.513 . S
C1015 C543 1.505 . S
C1020 C795 1.496 . S
C1031 C579 1.498 . S
C1036 C831 1.498 . S
C1047 C651 1.503 . S
C1052 C615 1.513 . S
C1063 C4 1.359 . S
C1068 C292 1.360 . S
C1079 C328 1.359 . S
C1084 C40 1.361 . S
C1095 C364 1.374 . S
C1100 C76 1.344 . S
C1111 C112 1.349 . S
C1116 C400 1.371 . S
C1127 C148 1.374 . S
C1132 C220 1.346 . S
C1143 C184 1.365 . S
C1148 C256 1.353 . S
C1159 C724 1.347 . S
C1164 C436 1.373 . S
C1175 C472 1.364 . S
C1180 C760 1.356 . S
C1191 C796 1.344 . S
C1196 C508 1.374 . S
C1207 C832 1.368 . S
C1212 C544 1.352 . S
C1223 C652 1.345 . S
C1228 C580 1.375 . S
C1239 C616 1.353 . S
C1244 C688 1.364 . S
C1255 C14 1.498 . S
C1260 C554 1.475 . S
C1271 C590 1.516 . S
C1276 C50 1.456 . S
C1287 C626 1.493 . S
C1292 C86 1.480 . S
C1303 C122 1.519 . S
C1308 C446 1.453 . S
C1319 C158 1.450 . S
C1324 C482 1.522 . S
C1335 C518 1.517 . S
C1340 C194 1.455 . S
C1351 C770 1.513 . S
C1356 C230 1.459 . S
C1367 C806 1.499 . S
C1372 C266 1.474 . S
C1383 C842 1.477 . S
C1388 C302 1.496 . S
C1399 C662 1.514 . S
C1404 C338 1.458 . S
C1415 C374 1.451 . S
C1420 C698 1.521 . S
C1431 C410 1.501 . S
C1436 C734 1.471 . S
C1447 C2 1.429 . S
C1452 C362 1.425 . S
C1463 C398 1.441 . S
C1468 C38 1.421 . S
C1479 C218 1.430 . S
C1484 C74 1.439 . S
C1495 C110 1.423 . S
C1500 C254 1.431 . S
C1511 C146 1.438 . S
C1516 C290 1.420 . S
C1527 C182 1.436 . S
C1532 C326 1.434 . S
C1543 C434 1.432 . S
C1548 C794 1.438 . S
C1559 C470 1.431 . S
C1564 C830 1.424 . S
C1575 C506 1.424 . S
C1580 C650 1.429 . S
C1591 C686 1.438 . S
C1596 C542 1.431 . S
C1607 C578 1.442 . S
C1612 C722 1.423 . S
C1623 C614 1.420 . S
C1628 C758 1.441 . S
