# Generated by pormake.
# Topology uoc, (4)-cn, num edge types: 1
# Building blocks:
#     Node 0, Type 0, BuildingBlock: ESEHIV_clean_sbu_0, # of connection points: 4
#     Node 1, Type 0, BuildingBlock: ESEHIV_clean_sbu_0, # of connection points: 4
#     Node 2, Type 0, BuildingBlock: ESEHIV_clean_sbu_0, # of connection points: 4
#     Node 3, Type 0, BuildingBlock: ESEHIV_clean_sbu_0, # of connection points: 4
#     Node 4, Type 0, BuildingBlock: ESEHIV_clean_sbu_0, # of connection points: 4
#     Node 5, Type 0, BuildingBlock: ESEHIV_clean_sbu_0, # of connection points: 4
#     Node 6, Type 0, BuildingBlock: ESEHIV_clean_sbu_0, # of connection points: 4
#     Node 7, Type 0, BuildingBlock: ESEHIV_clean_sbu_0, # of connection points: 4
#     Edge 8, Type (0, 0), BuildingBlock: FUNLAD_clean_linker_1, # of connection points: 2
#     Edge 9, Type (0, 0), BuildingBlock: FUNLAD_clean_linker_1, # of connection points: 2
#     Edge 10, Type (0, 0), BuildingBlock: FUNLAD_clean_linker_1, # of connection points: 2
#     Edge 11, Type (0, 0), BuildingBlock: FUNLAD_clean_linker_1, # of connection points: 2
#     Edge 12, Type (0, 0), BuildingBlock: FUNLAD_clean_linker_1, # of connection points: 2
#     Edge 13, Type (0, 0), BuildingBlock: FUNLAD_clean_linker_1, # of connection points: 2
#     Edge 14, Type (0, 0), BuildingBlock: FUNLAD_clean_linker_1, # of connection points: 2
#     Edge 15, Type (0, 0), BuildingBlock: FUNLAD_clean_linker_1, # of connection points: 2
#     Edge 16, Type (0, 0), BuildingBlock: FUNLAD_clean_linker_1, # of connection points: 2
#     Edge 17, Type (0, 0), BuildingBlock: FUNLAD_clean_linker_1, # of connection points: 2
#     Edge 18, Type (0, 0), BuildingBlock: FUNLAD_clean_linker_1, # of connection points: 2
#     Edge 19, Type (0, 0), BuildingBlock: FUNLAD_clean_linker_1, # of connection points: 2
#     Edge 20, Type (0, 0), BuildingBlock: FUNLAD_clean_linker_1, # of connection points: 2
#     Edge 21, Type (0, 0), BuildingBlock: FUNLAD_clean_linker_1, # of connection points: 2
#     Edge 22, Type (0, 0), BuildingBlock: FUNLAD_clean_linker_1, # of connection points: 2
#     Edge 23, Type (0, 0), BuildingBlock: FUNLAD_clean_linker_1, # of connection points: 2
# Relax obj value: 0.053
# Max RMSD: 0.262
# Mean RMSD: 0.262
data_MOF--net-uoc--node1-ESEHIV_clean_sbu_0--edge1-FUNLAD_clean_linker_1
_symmetry_space_group_name_H-M    P1
_symmetry_Int_Tables_number       1
_symmetry_cell_setting            triclinic
loop_
_symmetry_equiv_pos_as_xyz
'x, y, z'
_cell_length_a     33.927
_cell_length_b     34.567223
_cell_length_c     54.101573
_cell_angle_alpha  89.948035
_cell_angle_beta   89.44643
_cell_angle_gamma 91.673104
loop_
_atom_site_label
_atom_site_type_symbol
_atom_site_fract_x
_atom_site_fract_y
_atom_site_fract_z
_atom_type_partial_charge
Cu0 Cu 0.09083 0.25121 0.15848 0.0
N1 N 0.05541 0.20924 0.15935 0.0
N2 N 0.03167 0.1486 0.15754 0.0
C3 C 0.06371 0.17215 0.15473 0.0
C4 C 1.00204 0.17168 0.16434 0.0
C5 C 1.01687 0.20917 0.16549 0.0
O6 O 0.13166 0.23984 0.13429 0.0
C7 C 0.13932 0.2809 0.19747 0.0
O8 O 0.15837 0.30075 0.18017 0.0
H9 H 0.09283 0.16251 0.14979 0.0
H10 H 1.0009 0.2345 0.17086 0.0
N11 N 0.06382 0.29501 0.14909 0.0
N12 N 0.04537 0.35612 0.1456 0.0
C13 C 0.07201 0.33216 0.15504 0.0
C14 C 0.03098 0.29561 0.13535 0.0
C15 C 0.01952 0.33328 0.1331 0.0
C16 C 0.12155 0.23641 0.11179 0.0
O17 O 0.08473 0.24212 0.10582 0.0
H18 H 0.09676 0.34154 0.16621 0.0
H19 H 1.01637 0.27035 0.12747 0.0
O20 O 0.11097 0.25798 0.19168 0.0
H21 H 0.97218 0.16221 0.16892 0.0
H22 H 0.99441 0.34288 0.12285 0.0
Cu23 Cu 0.80353 0.60728 0.40819 0.0
N24 N 0.75917 0.57821 0.39802 0.0
N25 N 0.69845 0.55176 0.39651 0.0
C26 C 0.72677 0.56708 0.41119 0.0
C27 C 0.71382 0.55229 0.37344 0.0
C28 C 0.75133 0.56839 0.37446 0.0
O29 O 0.79217 0.63572 0.43833 0.0
C30 C 0.79816 0.65751 0.36648 0.0
O31 O 0.76003 0.65624 0.37101 0.0
H32 H 0.7233 0.57169 0.43087 0.0
H33 H 0.77106 0.57392 0.35895 0.0
N34 N 0.84467 0.57458 0.41551 0.0
N35 N 0.90451 0.5493 0.41539 0.0
C36 C 0.87872 0.57063 0.40281 0.0
C37 C 0.84894 0.55466 0.43664 0.0
C38 C 0.88584 0.53896 0.43663 0.0
C39 C 0.75999 0.65211 0.44331 0.0
O40 O 0.73213 0.65315 0.42665 0.0
H41 H 0.88522 0.58466 0.38528 0.0
H42 H 0.82724 0.55292 0.45141 0.0
O43 O 0.82137 0.64065 0.38105 0.0
H44 H 0.69886 0.542 0.35702 0.0
H45 H 0.8981 0.52174 0.45123 0.0
Cu46 Cu 0.43048 0.25852 0.65572 0.0
N47 N 0.45945 0.30282 0.66487 0.0
N48 N 0.48314 0.36357 0.66733 0.0
C49 C 0.45792 0.33899 0.6557 0.0
C50 C 0.50107 0.34213 0.68454 0.0
C51 C 0.48636 0.30469 0.68295 0.0
O52 O 0.40773 0.26489 0.62316 0.0
C53 C 0.37331 0.27153 0.6934 0.0
O54 O 0.3783 0.30818 0.6875 0.0
H55 H 0.43852 0.3473 0.64097 0.0
H56 H 0.49432 0.2805 0.69438 0.0
N57 N 0.46498 0.21769 0.65387 0.0
N58 N 0.48803 0.15792 0.65383 0.0
C59 C 0.45586 0.17968 0.65608 0.0
C60 C 0.5042 0.22005 0.64995 0.0
C61 C 0.51858 0.18317 0.64991 0.0
C62 C 0.38153 0.28894 0.6177 0.0
O63 O 0.36664 0.31098 0.63498 0.0
H64 H 0.42619 0.16818 0.65917 0.0
H65 H 0.52109 0.24673 0.64712 0.0
O66 O 0.39161 0.24594 0.68132 0.0
H67 H 0.52242 0.35273 0.69782 0.0
H68 H 0.54896 0.17572 0.6468 0.0
Cu69 Cu 0.76948 0.9195 0.90211 0.0
N70 N 0.81585 0.9461 0.89298 0.0
N71 N 0.87824 0.96802 0.89051 0.0
C72 C 0.85232 0.94406 0.90244 0.0
C73 C 0.85735 0.98551 0.87279 0.0
C74 C 0.81894 0.97188 0.87439 0.0
O75 O 0.77422 0.89552 0.9344 0.0
C76 C 0.73026 0.85656 0.87709 0.0
O77 O 0.71413 0.84795 0.89862 0.0
H78 H 0.85984 0.92533 0.91761 0.0
H79 H 0.79485 0.97989 0.86266 0.0
N80 N 0.72997 0.95548 0.90492 0.0
N81 N 0.67054 0.98086 0.90839 0.0
C82 C 0.6908 0.9482 0.90549 0.0
C83 C 0.73465 0.99401 0.9077 0.0
C84 C 0.69798 0.00984 0.90981 0.0
C85 C 0.79721 0.86872 0.94026 0.0
O86 O 0.81987 0.85323 0.92335 0.0
H87 H 0.67738 0.91951 0.90409 0.0
H88 H 0.7628 1.00945 0.90852 0.0
O89 O 0.75546 0.8844 0.87541 0.0
H90 H 0.86899 1.00585 0.85918 0.0
H91 H 0.69223 0.04012 0.9127 0.0
Cu92 Cu 0.60285 0.76341 0.6541 0.0
N93 N 0.57186 0.71922 0.66148 0.0
N94 N 0.55003 0.65781 0.66445 0.0
C95 C 0.57937 0.68197 0.65642 0.0
C96 C 0.52315 0.68064 0.67514 0.0
C97 C 0.53671 0.71844 0.67326 0.0
O98 O 0.6276 0.75791 0.62179 0.0
C99 C 0.62662 0.77819 0.70226 0.0
O100 O 0.58826 0.77613 0.70582 0.0
H101 H 0.60577 0.67261 0.64711 0.0
H102 H 0.52211 0.74364 0.68025 0.0
N103 N 0.57003 0.80555 0.65198 0.0
N104 N 0.54851 0.86589 0.65309 0.0
C105 C 0.57889 0.8427 0.65762 0.0
C106 C 0.53296 0.80531 0.64335 0.0
C107 C 0.51951 0.8425 0.64407 0.0
C108 C 0.65457 0.73456 0.61635 0.0
O109 O 0.6695 0.71285 0.63365 0.0
H110 H 0.60723 0.85265 0.66459 0.0
H111 H 0.51712 0.77994 0.63657 0.0
O112 O 0.64038 0.77313 0.68056 0.0
H113 H 0.49604 0.67091 0.68416 0.0
H114 H 0.49109 0.85156 0.63772 0.0
Cu115 Cu 0.27625 0.10731 0.90383 0.0
N116 N 0.23469 0.07438 0.89455 0.0
N117 N 0.1745 0.04753 0.89116 0.0
C118 C 0.19617 0.0776 0.90004 0.0
C119 C 0.2003 0.02467 0.87942 0.0
C120 C 0.23746 0.04138 0.88158 0.0
O121 O 0.25871 0.14081 0.93036 0.0
C122 C 0.27305 0.15005 0.85886 0.0
O123 O 0.23459 0.14591 0.86129 0.0
H124 H 0.18427 0.10135 0.9105 0.0
H125 H 0.26468 0.03023 0.87431 0.0
N126 N 0.31723 0.07693 0.91447 0.0
N127 N 0.37768 0.05446 0.91882 0.0
C128 C 0.35609 0.08426 0.91122 0.0
C129 C 0.31413 0.04135 0.92453 0.0
C130 C 0.35144 0.0274 0.92734 0.0
C131 C 0.2519 0.1266 0.95173 0.0
O132 O 0.25741 0.08963 0.95555 0.0
H133 H 0.36826 0.11036 0.90266 0.0
H134 H 0.28659 0.02621 0.92892 0.0
O135 O 0.29538 0.13668 0.87535 0.0
H136 H 0.19296 0.99817 0.86967 0.0
H137 H 0.3584 0.99936 0.93473 0.0
Cu138 Cu 0.92777 0.74644 0.15203 0.0
N139 N 0.95699 0.79197 0.15736 0.0
N140 N 0.97689 0.85393 0.15746 0.0
C141 C 0.94925 0.82803 0.14978 0.0
C142 C 1.00287 0.83357 0.17055 0.0
C143 C 0.99042 0.79533 0.17047 0.0
O144 O 0.90086 0.74921 0.12057 0.0
C145 C 0.86436 0.71414 0.18156 0.0
O146 O 0.85371 0.69513 0.16161 0.0
H147 H 0.92382 0.83533 0.13902 0.0
H148 H 1.0044 0.77162 0.17965 0.0
N149 N 0.96307 0.70647 0.14954 0.0
N150 N 0.98848 0.64775 0.14961 0.0
C151 C 0.95672 0.66882 0.15501 0.0
C152 C 1.00001 0.7093 0.14034 0.0
C153 C 1.01588 0.67313 0.14041 0.0
C154 C 0.87341 0.77191 0.11525 0.0
O155 O 0.85862 0.79428 0.13241 0.0
H156 H 0.92908 0.65691 0.16226 0.0
H157 H 1.01411 0.73575 0.13357 0.0
O158 O 0.89383 0.73768 0.18067 0.0
H159 H 0.02828 0.84546 0.18016 0.0
H160 H 0.04494 0.66622 0.13367 0.0
Cu161 Cu 0.28882 0.42459 0.39996 0.0
N162 N 0.3426 0.43536 0.39426 0.0
N163 N 0.40551 0.45618 0.39596 0.0
C164 C 0.36821 0.46176 0.40399 0.0
C165 C 0.40311 0.42569 0.38047 0.0
C166 C 0.36448 0.41301 0.37949 0.0
O167 O 0.28209 0.39847 0.43169 0.0
C168 C 0.2388 0.37643 0.36851 0.0
O169 O 0.21115 0.37755 0.38563 0.0
H170 H 0.35999 0.48394 0.41701 0.0
H171 H 0.35307 0.38861 0.369 0.0
N172 N 0.25888 0.46924 0.40044 0.0
N173 N 0.20609 0.50632 0.40325 0.0
C174 C 0.21926 0.46988 0.40233 0.0
C175 C 0.27119 0.50664 0.4003 0.0
C176 C 0.23862 0.52957 0.40223 0.0
C177 C 0.30796 0.37637 0.44031 0.0
O178 O 0.33878 0.368 0.42667 0.0
H179 H 0.20058 0.44416 0.40402 0.0
H180 H 0.30167 0.51656 0.39925 0.0
O181 O 0.27223 0.39285 0.37208 0.0
H182 H 0.42746 0.41374 0.37023 0.0
H183 H 0.23877 0.56087 0.40302 0.0
H184 H 0.17801 0.21223 0.09906 0.0
C185 C 0.14959 0.22223 0.09304 0.0
H186 H 0.11063 0.22826 0.06322 0.0
H187 H 0.27912 0.19333 1.0041 0.0
H188 H 0.30439 0.25373 1.02137 0.0
H189 H 0.26504 0.2901 0.05153 0.0
H190 H 0.2005 0.26593 0.06496 0.0
C191 C 0.13947 0.21917 0.06911 0.0
C192 C 0.16364 0.19813 0.05064 0.0
C193 C 0.20079 0.21335 0.04242 0.0
C194 C 0.22282 0.19317 1.02423 0.0
C195 C 0.26058 0.20809 1.01719 0.0
C196 C 0.27553 0.24265 1.02706 0.0
C197 C 0.25343 0.26307 0.0441 0.0
C198 C 0.21647 0.24876 0.05174 0.0
H199 H 0.22633 0.17985 0.96696 0.0
C200 C 0.23526 0.15078 0.97153 0.0
H201 H 0.23738 0.1076 0.99904 0.0
H202 H 0.09407 0.16014 0.0629 0.0
H203 H 0.06779 0.10107 0.04453 0.0
H204 H 0.1044 0.06791 1.01155 0.0
H205 H 0.1677 0.0934 0.99697 0.0
C206 C 0.22937 0.13699 0.99458 0.0
C207 C 0.20698 0.15858 1.01367 0.0
C208 C 0.16973 0.14354 1.02179 0.0
C209 C 0.14819 0.16316 0.04039 0.0
C210 C 0.1114 0.14696 0.04847 0.0
C211 C 0.09598 0.11293 0.03815 0.0
C212 C 0.11662 0.09422 1.01963 0.0
C213 C 0.15304 0.10917 1.01148 0.0
H214 H 0.84573 0.67369 0.33998 0.0
C215 C 0.81393 0.67288 0.34276 0.0
H216 H 0.75858 0.68107 0.32619 0.0
H217 H 0.82576 0.78493 0.23787 0.0
H218 H 0.79232 0.83302 0.26234 0.0
H219 H 0.76539 0.81687 0.30371 0.0
H220 H 0.77159 0.75245 0.32087 0.0
C221 C 0.79043 0.68157 0.32377 0.0
C222 C 0.80688 0.69119 0.29875 0.0
C223 C 0.80312 0.72895 0.28899 0.0
C224 C 0.81906 0.73838 0.26522 0.0
C225 C 0.81462 0.7763 0.25592 0.0
C226 C 0.79541 0.80417 0.26974 0.0
C227 C 0.78021 0.79506 0.29303 0.0
C228 C 0.78394 0.75796 0.30264 0.0
H229 H 0.81947 0.6849 0.20556 0.0
C230 C 0.84419 0.70562 0.2054 0.0
H231 H 0.88128 0.74216 0.22689 0.0
H232 H 0.81423 0.61439 0.3102 0.0
H233 H 0.84959 0.56698 0.28646 0.0
H234 H 0.88207 0.58476 0.24691 0.0
H235 H 0.87858 0.64979 0.23061 0.0
C236 C 0.8571 0.72084 0.22686 0.0
C237 C 0.83883 0.71007 0.25121 0.0
C238 C 0.84267 0.67224 0.26099 0.0
C239 C 0.82576 0.66253 0.28447 0.0
C240 C 0.828 0.62391 0.29305 0.0
C241 C 0.84799 0.59627 0.27952 0.0
C242 C 0.86613 0.60624 0.25721 0.0
C243 C 0.86365 0.6437 0.24798 0.0
H244 H 0.38358 0.27441 0.57802 0.0
C245 C 0.37061 0.29365 0.59154 0.0
H246 H 0.33603 0.34287 0.59683 0.0
H247 H 0.37896 0.40637 0.48943 0.0
H248 H 0.41895 0.44959 0.51485 0.0
H249 H 0.42445 0.43849 0.55972 0.0
H250 H 0.38995 0.38417 0.57947 0.0
C251 C 0.34772 0.32221 0.58375 0.0
C252 C 0.34254 0.32964 0.55685 0.0
C253 C 0.36266 0.36171 0.54563 0.0
C254 C 0.35974 0.36793 0.51973 0.0
C255 C 0.38037 0.40008 0.509 0.0
C256 C 0.40338 0.42518 0.52338 0.0
C257 C 0.40645 0.41895 0.54864 0.0
C258 C 0.38644 0.38765 0.55974 0.0
H259 H 0.27952 0.3716 0.47722 0.0
C260 C 0.3055 0.36423 0.4665 0.0
H261 H 0.3628 0.34203 0.46756 0.0
H262 H 0.29732 0.26761 0.57286 0.0
H263 H 0.2574 0.22425 0.54741 0.0
H264 H 0.25361 0.23413 0.50233 0.0
H265 H 0.28948 0.28761 0.48242 0.0
C266 C 0.33587 0.34771 0.4778 0.0
C267 C 0.3365 0.34222 0.50509 0.0
C268 C 0.31563 0.31067 0.51638 0.0
C269 C 0.31846 0.3045 0.54232 0.0
C270 C 0.29683 0.27314 0.55318 0.0
C271 C 0.2737 0.24814 0.5388 0.0
C272 C 0.27151 0.25374 0.51342 0.0
C273 C 0.29219 0.28458 0.50223 0.0
H274 H 0.69287 0.81429 0.8566 0.0
C275 C 0.71546 0.83705 0.85452 0.0
H276 H 0.74755 0.87301 0.82944 0.0
H277 H 0.67946 0.73334 0.75503 0.0
H278 H 0.72515 0.69193 0.77589 0.0
H279 H 0.76297 0.71569 0.81181 0.0
H280 H 0.75497 0.78092 0.82729 0.0
C281 C 0.72635 0.84906 0.83171 0.0
C282 C 0.70539 0.83487 0.80922 0.0
C283 C 0.71108 0.79701 0.80004 0.0
C284 C 0.69002 0.78364 0.77888 0.0
C285 C 0.69529 0.74526 0.77066 0.0
C286 C 0.72135 0.72114 0.78251 0.0
C287 C 0.7426 0.7345 0.80277 0.0
C288 C 0.73764 0.77195 0.81152 0.0
H289 H 0.68458 0.79191 0.71936 0.0
C290 C 0.65314 0.78819 0.72301 0.0
H291 H 0.60727 0.7915 0.74951 0.0
H292 H 0.68828 0.90943 0.8216 0.0
H293 H 0.64414 0.95147 0.80002 0.0
H294 H 0.60892 0.92887 0.76281 0.0
H295 H 0.61751 0.86399 0.74702 0.0
C296 C 0.63883 0.79399 0.74597 0.0
C297 C 0.66386 0.80846 0.76669 0.0
C298 C 0.65899 0.84666 0.77551 0.0
C299 C 0.67972 0.85986 0.79677 0.0
C300 C 0.67368 0.89798 0.80537 0.0
C301 C 0.64834 0.92244 0.79319 0.0
C302 C 0.62846 0.90969 0.77227 0.0
C303 C 0.63359 0.87232 0.76345 0.0
H304 H 0.25553 0.35808 0.33099 0.0
C305 C 0.23093 0.35943 0.34397 0.0
H306 H 0.16929 0.35218 0.34858 0.0
H307 H 0.13754 0.3777 0.23457 0.0
H308 H 0.11138 0.43604 0.25244 0.0
H309 H 0.12001 0.45073 0.2967 0.0
H310 H 0.15458 0.40705 0.32342 0.0
C311 C 0.19459 0.34901 0.33635 0.0
C312 C 0.18755 0.33868 0.30996 0.0
C313 C 0.16726 0.36456 0.29458 0.0
C314 C 0.16274 0.35635 0.26897 0.0
C315 C 0.1422 0.38267 0.25409 0.0
C316 C 0.12697 0.41627 0.2641 0.0
C317 C 0.13179 0.42451 0.28903 0.0
C318 C 0.15169 0.39912 0.30417 0.0
H319 H 0.13252 0.26848 0.23731 0.0
C320 C 0.14849 0.28651 0.22387 0.0
H321 H 0.18853 0.33381 0.21876 0.0
H322 H 0.224 0.28086 0.33471 0.0
H323 H 0.25107 0.22295 0.31674 0.0
H324 H 0.24618 0.21033 0.27198 0.0
H325 H 0.21376 0.25526 0.24497 0.0
C326 C 0.17379 0.31426 0.23185 0.0
C327 C 0.17846 0.32226 0.25875 0.0
C328 C 0.19838 0.29614 0.27418 0.0
C329 C 0.20242 0.30408 0.29986 0.0
C330 C 0.22121 0.27685 0.31497 0.0
C331 C 0.23668 0.24339 0.30492 0.0
C332 C 0.23382 0.23623 0.27973 0.0
C333 C 0.21497 0.26219 0.26445 0.0
H334 H 0.65447 0.75046 0.57685 0.0
C335 C 0.66669 0.73066 0.59018 0.0
H336 H 0.7008 0.68114 0.595 0.0
H337 H 0.67115 0.61963 0.48644 0.0
H338 H 0.62872 0.57559 0.51019 0.0
H339 H 0.61701 0.58627 0.55471 0.0
H340 H 0.64774 0.64105 0.57576 0.0
C341 C 0.68996 0.70241 0.58213 0.0
C342 C 0.69723 0.69642 0.55517 0.0
C343 C 0.679 0.66429 0.5431 0.0
C344 C 0.68542 0.65837 0.51736 0.0
C345 C 0.66702 0.62582 0.50588 0.0
C346 C 0.64263 0.60022 0.51931 0.0
C347 C 0.63606 0.60622 0.54437 0.0
C348 C 0.65395 0.63778 0.55623 0.0
H349 H 0.77732 0.66453 0.48176 0.0
C350 C 0.75314 0.666 0.46877 0.0
H351 H 0.69272 0.67693 0.46444 0.0
H352 H 0.73848 0.75964 0.57279 0.0
H353 H 0.77896 0.80512 0.54874 0.0
H354 H 0.78747 0.79666 0.50375 0.0
H355 H 0.75598 0.74238 0.48258 0.0
C356 C 0.71768 0.67719 0.47688 0.0
C357 C 0.71018 0.68454 0.50368 0.0
C358 C 0.72792 0.71704 0.51567 0.0
C359 C 0.72189 0.72267 0.5415 0.0
C360 C 0.74114 0.75457 0.55313 0.0
C361 C 0.7646 0.78081 0.53956 0.0
C362 C 0.76949 0.77598 0.51424 0.0
C363 C 0.75142 0.74456 0.50233 0.0
H364 H 0.33114 0.28303 0.72366 0.0
C365 C 0.34907 0.26089 0.71532 0.0
H366 H 0.36876 0.20369 0.71805 0.0
H367 H 0.30747 0.24397 0.83259 0.0
H368 H 0.35843 0.29462 0.83251 0.0
H369 H 0.3982 0.30861 0.79498 0.0
H370 H 0.38651 0.27288 0.75719 0.0
C371 C 0.35114 0.22612 0.72632 0.0
C372 C 0.32905 0.2165 0.74962 0.0
C373 C 0.33783 0.23639 0.77197 0.0
C374 C 0.31669 0.22663 0.79408 0.0
C375 C 0.32407 0.24879 0.81564 0.0
C376 C 0.35302 0.27817 0.81581 0.0
C377 C 0.37527 0.28618 0.79465 0.0
C378 C 0.36797 0.2656 0.77297 0.0
H379 H 0.32301 0.16739 0.83457 0.0
C380 C 0.29106 0.16748 0.83637 0.0
H381 H 0.23766 0.18104 0.81913 0.0
H382 H 0.30402 0.17351 0.71 0.0
H383 H 0.25519 0.12089 0.7106 0.0
H384 H 0.22157 0.10127 0.74944 0.0
H385 H 0.23626 0.13433 0.78787 0.0
C386 C 0.26965 0.18186 0.81789 0.0
C387 C 0.28877 0.19523 0.79427 0.0
C388 C 0.27999 0.17539 0.77195 0.0
C389 C 0.29996 0.18619 0.74961 0.0
C390 C 0.29023 0.16614 0.72757 0.0
C391 C 0.26217 0.13592 0.72762 0.0
C392 C 0.24321 0.12491 0.74948 0.0
C393 C 0.25191 0.14424 0.77143 0.0
H394 H 0.8753 0.75621 0.07579 0.0
C395 C 0.86204 0.77563 0.08908 0.0
H396 H 0.82738 0.82482 0.09376 0.0
H397 H 0.86791 0.89109 0.98731 0.0
H398 H 0.90348 0.93668 1.01353 0.0
H399 H 0.90811 0.92542 0.05842 0.0
H400 H 0.87722 0.86852 0.07737 0.0
C401 C 0.83917 0.80392 0.08088 0.0
C402 C 0.83468 0.8111 0.05384 0.0
C403 C 0.85243 0.84487 0.04309 0.0
C404 C 0.84963 0.85147 1.01719 0.0
C405 C 0.86854 0.88493 1.0069 0.0
C406 C 0.88923 0.91128 1.02173 0.0
C407 C 0.89185 0.90492 0.047 0.0
C408 C 0.87385 0.87214 0.05764 0.0
H409 H 0.78172 0.87323 0.97978 0.0
C410 C 0.79998 0.85793 0.9666 0.0
H411 H 0.84332 0.81561 0.96231 0.0
H412 H 0.79449 0.7451 0.06863 0.0
H413 H 0.75955 0.6992 0.04225 0.0
H414 H 0.75616 0.70993 0.99725 0.0
H415 H 0.7875 0.76682 0.97834 0.0
C416 C 0.82512 0.83179 0.97503 0.0
C417 C 0.82877 0.82449 1.00208 0.0
C418 C 0.8111 0.79074 1.01279 0.0
C419 C 0.81367 0.78421 0.03872 0.0
C420 C 0.79441 0.75097 0.04899 0.0
C421 C 0.77402 0.72451 0.03408 0.0
C422 C 0.77206 0.73058 1.00874 0.0
C423 C 0.79021 0.76331 0.99812 0.0
H424 H 0.05961 0.0929 0.15433 0.0
C425 C 0.03149 0.10713 0.15572 0.0
H426 H 0.96939 0.09845 0.15677 0.0
H427 H 0.99583 0.92935 0.11055 0.0
H428 H 0.97993 0.9637 0.073 0.0
H429 H 0.97263 0.03451 0.07325 0.0
H430 H 0.98138 0.07141 0.1111 0.0
C431 C 0.99806 0.08541 0.15627 0.0
C432 C 0.99967 0.0426 0.1565 0.0
C433 C 0.99347 0.02143 0.13442 0.0
C434 C 0.99686 0.98053 0.13442 0.0
C435 C 0.99231 0.96027 0.11183 0.0
C436 C 0.98349 0.97969 0.09008 0.0
C437 C 0.97944 0.01956 0.0902 0.0
C438 C 0.9845 0.04038 0.11204 0.0
H439 H 0.94845 0.9078 0.14847 0.0
C440 C 0.97602 0.8951 0.15391 0.0
H441 H 0.03579 0.90603 0.16274 0.0
H442 H 1.01137 0.07471 0.20222 0.0
H443 H 0.02652 0.04052 0.23995 0.0
H444 H 0.03197 0.96952 0.24013 0.0
H445 H 0.02234 0.93232 0.20263 0.0
C446 C 1.00802 0.91815 0.15733 0.0
C447 C 1.00547 0.96095 0.15671 0.0
C448 C 1.01151 0.98221 0.17883 0.0
C449 C 1.00845 0.0231 0.17873 0.0
C450 C 1.01388 0.04363 0.20116 0.0
C451 C 0.02242 0.02435 0.22299 0.0
C452 C 0.02548 0.98439 0.2231 0.0
C453 C 0.01999 0.9634 0.20138 0.0
H454 H 0.16114 0.5465 0.415 0.0
C455 C 0.16609 0.51843 0.40667 0.0
H456 H 0.13985 0.4683 0.39103 0.0
H457 H 0.97561 0.46906 0.44435 0.0
H458 H 1.00335 0.41013 0.45982 0.0
H459 H 0.07265 0.3949 0.45108 0.0
H460 H 0.11448 0.43825 0.42657 0.0
C461 C 0.13495 0.49614 0.39962 0.0
C462 C 0.0933 0.50651 0.40523 0.0
C463 C 0.06934 0.48118 0.42006 0.0
C464 C 0.02964 0.49051 0.4257 0.0
C465 C 1.0062 0.46401 0.43995 0.0
C466 C 0.0217 0.42992 0.4489 0.0
C467 C 0.06067 0.42131 0.44393 0.0
C468 C 0.08434 0.44649 0.42973 0.0
H469 H 0.95135 0.54078 0.38814 0.0
C470 C 0.94423 0.54109 0.40777 0.0
H471 H 0.96594 0.53651 0.44396 0.0
H472 H 0.12812 0.55814 0.37263 0.0
H473 H 0.10184 0.61899 0.35916 0.0
H474 H 0.0363 0.6392 0.37337 0.0
H475 H 0.99617 0.59813 0.40044 0.0
C476 C 0.97293 0.53565 0.42434 0.0
C477 C 1.01405 0.52566 0.41707 0.0
C478 C 0.0382 0.55131 0.40253 0.0
C479 C 0.07726 0.54099 0.39581 0.0
C480 C 0.0993 0.56555 0.37952 0.0
C481 C 0.08442 0.60044 0.37145 0.0
C482 C 0.04744 0.61172 0.37934 0.0
C483 C 0.02451 0.58762 0.39472 0.0
H484 H 0.4647 0.4186 0.65218 0.0
C485 C 0.48696 0.40467 0.66313 0.0
H486 H 0.53905 0.41309 0.68378 0.0
H487 H 0.52568 0.57876 0.62125 0.0
H488 H 0.53665 0.54058 0.58437 0.0
H489 H 0.54026 0.4695 0.5868 0.0
H490 H 0.53238 0.43615 0.62608 0.0
C491 C 0.51663 0.42632 0.6727 0.0
C492 C 0.51738 0.46931 0.67106 0.0
C493 C 0.52341 0.48841 0.64804 0.0
C494 C 0.52288 0.52953 0.64679 0.0
C495 C 0.52713 0.54774 0.62341 0.0
C496 C 0.53323 0.52614 0.60206 0.0
C497 C 0.53515 0.48611 0.60342 0.0
C498 C 0.53035 0.46731 0.62608 0.0
H499 H 0.5766 0.60205 0.65758 0.0
C500 C 0.54956 0.61621 0.66284 0.0
H501 H 0.4897 0.60785 0.67324 0.0
H502 H 0.50516 0.44182 0.71816 0.0
H503 H 0.49683 0.48013 0.75522 0.0
H504 H 0.4984 0.55145 0.75325 0.0
H505 H 0.50808 0.58488 0.71417 0.0
C506 C 0.51694 0.59444 0.66779 0.0
C507 C 0.51774 0.55146 0.66868 0.0
C508 C 0.51243 0.53236 0.69173 0.0
C509 C 0.51217 0.49127 0.69291 0.0
C510 C 0.50619 0.47298 0.71617 0.0
C511 C 0.50127 0.49462 0.73762 0.0
C512 C 0.50209 0.53476 0.73651 0.0
C513 C 0.5076 0.55357 0.71391 0.0
H514 H 0.61105 0.95579 0.91189 0.0
C515 C 0.62834 0.98273 0.91062 0.0
H516 H 0.62564 0.04383 0.9088 0.0
H517 H 0.44705 0.02746 0.87268 0.0
H518 H 0.47985 0.03779 0.83313 0.0
H519 H 0.55245 0.03922 0.82984 0.0
H520 H 0.59267 0.02997 0.86611 0.0
C521 C 0.60964 0.01643 0.91107 0.0
C522 C 0.56603 0.0171 0.91337 0.0
C523 C 0.54304 0.02366 0.89215 0.0
C524 C 0.50123 0.02369 0.89416 0.0
C525 C 0.47893 0.02845 0.87242 0.0
C526 C 0.49739 0.0341 0.84953 0.0
C527 C 0.53826 0.03484 0.84767 0.0
C528 C 0.56098 0.02956 0.86864 0.0
H529 H 0.43668 0.0785 0.91131 0.0
C530 C 0.41989 0.05249 0.91668 0.0
H531 H 0.42326 0.99308 0.92567 0.0
H532 H 0.60174 1.0048 0.95776 0.0
H533 H 0.56908 0.99429 0.99739 0.0
H534 H 0.49654 0.99468 1.00099 0.0
H535 H 0.45624 1.00563 0.96501 0.0
C536 C 0.43902 0.01944 0.9201 0.0
C537 C 0.48264 0.01821 0.91758 0.0
C538 C 0.50569 0.01136 0.93877 0.0
C539 C 0.54747 0.01096 0.93668 0.0
C540 C 0.56986 1.00487 0.95823 0.0
C541 C 0.5515 0.99895 0.98112 0.0
C542 C 0.51066 0.99919 0.98315 0.0
C543 C 0.48788 1.00543 0.96232 0.0
H544 H 0.9643 0.59021 0.15838 0.0
C545 C 0.99033 0.60634 0.15177 0.0
H546 H 0.0484 0.60186 0.13757 0.0
H547 H 1.01307 0.42922 0.18907 0.0
H548 H 1.01655 0.46317 0.22823 0.0
H549 H 0.02333 0.5344 0.22954 0.0
H550 H 0.02623 0.5721 0.19167 0.0
C551 C 0.02238 0.58688 0.14497 0.0
C552 C 0.02151 0.54393 0.14446 0.0
C553 C 0.021 0.52235 0.16676 0.0
C554 C 1.01849 0.48124 0.16598 0.0
C555 C 1.0163 0.46043 0.18854 0.0
C556 C 1.01802 0.47957 0.21117 0.0
C557 C 0.02173 0.51968 0.21191 0.0
C558 C 0.02319 0.54098 0.19003 0.0
H559 H 0.07209 0.4118 0.15601 0.0
C560 C 0.04601 0.39753 0.14827 0.0
H561 H 0.98921 0.40563 0.13369 0.0
H562 H 0.02244 0.57682 0.09833 0.0
H563 H 0.02123 0.54286 0.05914 0.0
H564 H 1.0188 0.4715 0.05774 0.0
H565 H 1.01737 0.43369 0.09552 0.0
C566 C 1.01545 0.41898 0.14166 0.0
C567 C 1.01776 0.4619 0.14286 0.0
C568 C 1.01884 0.48351 0.12058 0.0
C569 C 0.02073 0.52459 0.12138 0.0
C570 C 0.02138 0.54551 0.09883 0.0
C571 C 0.02065 0.52639 0.07618 0.0
C572 C 0.01924 0.48623 0.07539 0.0
C573 C 1.01836 0.46488 0.09725 0.0
H574 H 0.43805 0.51044 0.4034 0.0
C575 C 0.44049 0.47939 0.40103 0.0
H576 H 0.47793 0.43219 0.39868 0.0
H577 H 0.62622 0.50654 0.34926 0.0
H578 H 0.59963 0.46685 0.3163 0.0
H579 H 0.53317 0.43645 0.31986 0.0
H580 H 0.49321 0.44522 0.35656 0.0
C581 C 0.4762 0.46335 0.40078 0.0
C582 C 0.51392 0.48631 0.39807 0.0
C583 C 0.53657 0.48195 0.3761 0.0
C584 C 0.57433 0.50058 0.3737 0.0
C585 C 0.59685 0.49418 0.35191 0.0
C586 C 0.58204 0.47122 0.33281 0.0
C587 C 0.5447 0.45403 0.33484 0.0
C588 C 0.52213 0.45919 0.35614 0.0
H589 H 0.65584 0.52156 0.42079 0.0
C590 C 0.65957 0.53808 0.40379 0.0
H591 H 0.63276 0.56194 0.37276 0.0
H592 H 0.47954 0.49903 0.44318 0.0
H593 H 0.50429 0.54202 0.47529 0.0
H594 H 0.567 0.57905 0.46959 0.0
H595 H 0.60574 0.57274 0.43199 0.0
C596 C 0.62833 0.54471 0.38941 0.0
C597 C 0.5891 0.52465 0.39295 0.0
C598 C 0.56586 0.53017 0.41459 0.0
C599 C 0.52865 0.51022 0.41739 0.0
C600 C 0.50723 0.51448 0.43974 0.0
C601 C 0.52118 0.53895 0.45836 0.0
C602 C 0.55655 0.55971 0.45518 0.0
C603 C 0.57869 0.55558 0.43357 0.0
H604 H 0.45987 0.10041 0.65451 0.0
C605 C 0.48805 0.11626 0.65437 0.0
H606 H 0.55005 0.11116 0.6556 0.0
H607 H 0.53582 0.94086 0.69996 0.0
H608 H 0.55588 0.97692 0.73635 0.0
H609 H 0.56016 0.04829 0.73572 0.0
H610 H 0.54415 0.08401 0.69867 0.0
C611 C 0.5215 0.09635 0.65454 0.0
C612 C 0.52046 0.05329 0.65448 0.0
C613 C 0.53081 0.03283 0.67607 0.0
C614 C 0.52904 0.99165 0.67629 0.0
C615 C 0.53783 0.97205 0.69848 0.0
C616 C 0.5491 0.99242 0.71959 0.0
C617 C 0.55146 0.0326 0.71924 0.0
C618 C 0.54228 0.05273 0.69784 0.0
H619 H 0.57725 0.92236 0.6589 0.0
C620 C 0.54912 0.90735 0.65578 0.0
H621 H 0.48787 0.91371 0.65114 0.0
H622 H 0.50194 0.0836 0.60934 0.0
H623 H 0.48253 0.04763 0.5728 0.0
H624 H 0.47902 0.97626 0.57321 0.0
H625 H 0.49506 0.94046 0.61012 0.0
C626 C 0.51623 0.92798 0.65439 0.0
C627 C 0.51781 0.97105 0.65467 0.0
C628 C 0.50768 0.99155 0.63303 0.0
C629 C 0.50928 0.03271 0.63287 0.0
C630 C 0.5003 0.05239 0.61072 0.0
C631 C 0.48935 0.03208 0.58953 0.0
C632 C 0.48741 0.99191 0.58975 0.0
C633 C 0.49658 0.97173 0.61113 0.0
H634 H 0.93373 0.94954 0.90612 0.0
C635 C 0.91999 0.97144 0.89492 0.0
H636 H 0.92931 0.0225 0.87391 0.0
H637 H 0.09749 0.01532 0.93543 0.0
H638 H 0.05826 0.02566 0.97244 0.0
H639 H 0.98564 0.02603 0.97055 0.0
H640 H 0.95182 0.01551 0.93173 0.0
C641 C 0.94241 1.00043 0.88518 0.0
C642 C 0.98614 1.00108 0.88673 0.0
C643 C 1.00539 1.0084 0.90948 0.0
C644 C 0.04732 0.00975 0.91039 0.0
C645 C 0.0658 0.01542 0.93352 0.0
C646 C 0.04362 0.02114 0.95494 0.0
C647 C 1.00273 0.02124 0.95389 0.0
C648 C 0.98367 0.01498 0.93149 0.0
H649 H 0.1152 0.06747 0.89862 0.0
C650 C 0.13233 0.04269 0.89321 0.0
H651 H 0.13006 0.98359 0.88324 0.0
H652 H 0.95844 0.98504 0.84031 0.0
H653 H 0.99768 0.9765 0.80315 0.0
H654 H 0.07031 0.98133 0.80443 0.0
H655 H 0.10413 0.99449 0.84288 0.0
C656 C 0.1136 1.00868 0.88868 0.0
C657 C 0.06981 1.00521 0.88838 0.0
C658 C 0.05052 0.99764 0.86569 0.0
C659 C 1.00867 0.99548 0.86488 0.0
C660 C 0.99017 0.98755 0.84197 0.0
C661 C 1.01234 0.98248 0.82048 0.0
C662 C 0.05322 0.98514 0.8212 0.0
C663 C 0.07225 0.99265 0.84346 0.0
loop_
_geom_bond_atom_site_label_1
_geom_bond_atom_site_label_2
_geom_bond_distance
_geom_bond_site_symmetry_2
_ccdc_geom_bond_type
Cu0 N1 1.999 . S
Cu0 O6 1.974 . S
Cu0 N11 1.985 . S
Cu0 O20 1.959 . S
N1 Cu0 1.999 . S
N1 C3 1.263 . S
N1 C5 1.389 . S
N2 C3 1.358 . S
N2 C4 1.400 . S
C3 N1 1.263 . S
C3 N2 1.358 . S
C3 H9 0.930 . S
C4 N2 1.400 . S
C4 C5 1.351 . S
C4 H21 0.930 . S
C5 N1 1.389 . S
C5 C4 1.351 . S
C5 H10 0.930 . S
O6 Cu0 1.974 . S
O6 C16 1.282 . S
C7 O8 1.261 . S
C7 O20 1.251 . S
O8 C7 1.261 . S
H9 C3 0.930 . S
H10 C5 0.930 . S
N11 Cu0 1.985 . S
N11 C13 1.335 . S
N11 C14 1.390 . S
N12 C13 1.345 . S
N12 C15 1.336 . S
C13 N11 1.335 . S
C13 N12 1.345 . S
C13 H18 0.930 . S
C14 N11 1.390 . S
C14 C15 1.346 . S
C14 H19 0.930 . S
C15 N12 1.336 . S
C15 C14 1.346 . S
C15 H22 0.929 . S
C16 O6 1.282 . S
C16 O17 1.216 . S
O17 C16 1.216 . S
H18 C13 0.930 . S
H19 C14 0.930 . S
O20 Cu0 1.959 . S
O20 C7 1.251 . S
H21 C4 0.930 . S
H22 C15 0.929 . S
Cu23 N24 1.999 . S
Cu23 O29 1.974 . S
Cu23 N34 1.985 . S
Cu23 O43 1.959 . S
N24 Cu23 1.999 . S
N24 C26 1.263 . S
N24 C28 1.389 . S
N25 C26 1.358 . S
N25 C27 1.400 . S
C26 N24 1.263 . S
C26 N25 1.358 . S
C26 H32 0.930 . S
C27 N25 1.400 . S
C27 C28 1.351 . S
C27 H44 0.930 . S
C28 N24 1.389 . S
C28 C27 1.351 . S
C28 H33 0.930 . S
O29 Cu23 1.974 . S
O29 C39 1.282 . S
C30 O31 1.261 . S
C30 O43 1.251 . S
O31 C30 1.261 . S
H32 C26 0.930 . S
H33 C28 0.930 . S
N34 Cu23 1.985 . S
N34 C36 1.335 . S
N34 C37 1.390 . S
N35 C36 1.345 . S
N35 C38 1.336 . S
C36 N34 1.335 . S
C36 N35 1.345 . S
C36 H41 0.930 . S
C37 N34 1.390 . S
C37 C38 1.346 . S
C37 H42 0.930 . S
C38 N35 1.336 . S
C38 C37 1.346 . S
C38 H45 0.929 . S
C39 O29 1.282 . S
C39 O40 1.216 . S
O40 C39 1.216 . S
H41 C36 0.930 . S
H42 C37 0.930 . S
O43 Cu23 1.959 . S
O43 C30 1.251 . S
H44 C27 0.930 . S
H45 C38 0.929 . S
Cu46 N47 1.999 . S
Cu46 O52 1.974 . S
Cu46 N57 1.985 . S
Cu46 O66 1.959 . S
N47 Cu46 1.999 . S
N47 C49 1.263 . S
N47 C51 1.389 . S
N48 C49 1.358 . S
N48 C50 1.400 . S
C49 N47 1.263 . S
C49 N48 1.358 . S
C49 H55 0.930 . S
C50 N48 1.400 . S
C50 C51 1.351 . S
C50 H67 0.930 . S
C51 N47 1.389 . S
C51 C50 1.351 . S
C51 H56 0.930 . S
O52 Cu46 1.974 . S
O52 C62 1.282 . S
C53 O54 1.261 . S
C53 O66 1.251 . S
O54 C53 1.261 . S
H55 C49 0.930 . S
H56 C51 0.930 . S
N57 Cu46 1.985 . S
N57 C59 1.335 . S
N57 C60 1.390 . S
N58 C59 1.345 . S
N58 C61 1.336 . S
C59 N57 1.335 . S
C59 N58 1.345 . S
C59 H64 0.930 . S
C60 N57 1.390 . S
C60 C61 1.346 . S
C60 H65 0.930 . S
C61 N58 1.336 . S
C61 C60 1.346 . S
C61 H68 0.929 . S
C62 O52 1.282 . S
C62 O63 1.216 . S
O63 C62 1.216 . S
H64 C59 0.930 . S
H65 C60 0.930 . S
O66 Cu46 1.959 . S
O66 C53 1.251 . S
H67 C50 0.930 . S
H68 C61 0.929 . S
Cu69 N70 1.999 . S
Cu69 O75 1.974 . S
Cu69 N80 1.985 . S
Cu69 O89 1.959 . S
N70 Cu69 1.999 . S
N70 C72 1.263 . S
N70 C74 1.389 . S
N71 C72 1.358 . S
N71 C73 1.400 . S
C72 N70 1.263 . S
C72 N71 1.358 . S
C72 H78 0.930 . S
C73 N71 1.400 . S
C73 C74 1.351 . S
C73 H90 0.930 . S
C74 N70 1.389 . S
C74 C73 1.351 . S
C74 H79 0.930 . S
O75 Cu69 1.974 . S
O75 C85 1.282 . S
C76 O77 1.261 . S
C76 O89 1.251 . S
O77 C76 1.261 . S
H78 C72 0.930 . S
H79 C74 0.930 . S
N80 Cu69 1.985 . S
N80 C82 1.335 . S
N80 C83 1.390 . S
N81 C82 1.345 . S
N81 C84 1.336 . S
C82 N80 1.335 . S
C82 N81 1.345 . S
C82 H87 0.930 . S
C83 N80 1.390 . S
C83 C84 1.346 . S
C83 H88 0.930 . S
C84 N81 1.336 . S
C84 C83 1.346 . S
C84 H91 0.929 . S
C85 O75 1.282 . S
C85 O86 1.216 . S
O86 C85 1.216 . S
H87 C82 0.930 . S
H88 C83 0.930 . S
O89 Cu69 1.959 . S
O89 C76 1.251 . S
H90 C73 0.930 . S
H91 C84 0.929 . S
Cu92 N93 1.999 . S
Cu92 O98 1.974 . S
Cu92 N103 1.985 . S
Cu92 O112 1.959 . S
N93 Cu92 1.999 . S
N93 C95 1.263 . S
N93 C97 1.389 . S
N94 C95 1.358 . S
N94 C96 1.400 . S
C95 N93 1.263 . S
C95 N94 1.358 . S
C95 H101 0.930 . S
C96 N94 1.400 . S
C96 C97 1.351 . S
C96 H113 0.930 . S
C97 N93 1.389 . S
C97 C96 1.351 . S
C97 H102 0.930 . S
O98 Cu92 1.974 . S
O98 C108 1.282 . S
C99 O100 1.261 . S
C99 O112 1.251 . S
O100 C99 1.261 . S
H101 C95 0.930 . S
H102 C97 0.930 . S
N103 Cu92 1.985 . S
N103 C105 1.335 . S
N103 C106 1.390 . S
N104 C105 1.345 . S
N104 C107 1.336 . S
C105 N103 1.335 . S
C105 N104 1.345 . S
C105 H110 0.930 . S
C106 N103 1.390 . S
C106 C107 1.346 . S
C106 H111 0.930 . S
C107 N104 1.336 . S
C107 C106 1.346 . S
C107 H114 0.929 . S
C108 O98 1.282 . S
C108 O109 1.216 . S
O109 C108 1.216 . S
H110 C105 0.930 . S
H111 C106 0.930 . S
O112 Cu92 1.959 . S
O112 C99 1.251 . S
H113 C96 0.930 . S
H114 C107 0.929 . S
Cu115 N116 1.999 . S
Cu115 O121 1.974 . S
Cu115 N126 1.985 . S
Cu115 O135 1.959 . S
N116 Cu115 1.999 . S
N116 C118 1.263 . S
N116 C120 1.389 . S
N117 C118 1.358 . S
N117 C119 1.400 . S
C118 N116 1.263 . S
C118 N117 1.358 . S
C118 H124 0.930 . S
C119 N117 1.400 . S
C119 C120 1.351 . S
C119 H136 0.930 . S
C120 N116 1.389 . S
C120 C119 1.351 . S
C120 H125 0.930 . S
O121 Cu115 1.974 . S
O121 C131 1.282 . S
C122 O123 1.261 . S
C122 O135 1.251 . S
O123 C122 1.261 . S
H124 C118 0.930 . S
H125 C120 0.930 . S
N126 Cu115 1.985 . S
N126 C128 1.335 . S
N126 C129 1.390 . S
N127 C128 1.345 . S
N127 C130 1.336 . S
C128 N126 1.335 . S
C128 N127 1.345 . S
C128 H133 0.930 . S
C129 N126 1.390 . S
C129 C130 1.346 . S
C129 H134 0.930 . S
C130 N127 1.336 . S
C130 C129 1.346 . S
C130 H137 0.929 . S
C131 O121 1.282 . S
C131 O132 1.216 . S
O132 C131 1.216 . S
H133 C128 0.930 . S
H134 C129 0.930 . S
O135 Cu115 1.959 . S
O135 C122 1.251 . S
H136 C119 0.930 . S
H137 C130 0.929 . S
Cu138 N139 1.999 . S
Cu138 O144 1.974 . S
Cu138 N149 1.985 . S
Cu138 O158 1.959 . S
N139 Cu138 1.999 . S
N139 C141 1.263 . S
N139 C143 1.389 . S
N140 C141 1.358 . S
N140 C142 1.400 . S
C141 N139 1.263 . S
C141 N140 1.358 . S
C141 H147 0.930 . S
C142 N140 1.400 . S
C142 C143 1.351 . S
C142 H159 0.930 . S
C143 N139 1.389 . S
C143 C142 1.351 . S
C143 H148 0.930 . S
O144 Cu138 1.974 . S
O144 C154 1.282 . S
C145 O146 1.261 . S
C145 O158 1.251 . S
O146 C145 1.261 . S
H147 C141 0.930 . S
H148 C143 0.930 . S
N149 Cu138 1.985 . S
N149 C151 1.335 . S
N149 C152 1.390 . S
N150 C151 1.345 . S
N150 C153 1.336 . S
C151 N149 1.335 . S
C151 N150 1.345 . S
C151 H156 0.930 . S
C152 N149 1.390 . S
C152 C153 1.346 . S
C152 H157 0.930 . S
C153 N150 1.336 . S
C153 C152 1.346 . S
C153 H160 0.929 . S
C154 O144 1.282 . S
C154 O155 1.216 . S
O155 C154 1.216 . S
H156 C151 0.930 . S
H157 C152 0.930 . S
O158 Cu138 1.959 . S
O158 C145 1.251 . S
H159 C142 0.930 . S
H160 C153 0.929 . S
Cu161 N162 1.999 . S
Cu161 O167 1.974 . S
Cu161 N172 1.985 . S
Cu161 O181 1.959 . S
N162 Cu161 1.999 . S
N162 C164 1.263 . S
N162 C166 1.389 . S
N163 C164 1.358 . S
N163 C165 1.400 . S
C164 N162 1.263 . S
C164 N163 1.358 . S
C164 H170 0.930 . S
C165 N163 1.400 . S
C165 C166 1.351 . S
C165 H182 0.930 . S
C166 N162 1.389 . S
C166 C165 1.351 . S
C166 H171 0.930 . S
O167 Cu161 1.974 . S
O167 C177 1.282 . S
C168 O169 1.261 . S
C168 O181 1.251 . S
O169 C168 1.261 . S
H170 C164 0.930 . S
H171 C166 0.930 . S
N172 Cu161 1.985 . S
N172 C174 1.335 . S
N172 C175 1.390 . S
N173 C174 1.345 . S
N173 C176 1.336 . S
C174 N172 1.335 . S
C174 N173 1.345 . S
C174 H179 0.930 . S
C175 N172 1.390 . S
C175 C176 1.346 . S
C175 H180 0.930 . S
C176 N173 1.336 . S
C176 C175 1.346 . S
C176 H183 0.929 . S
C177 O167 1.282 . S
C177 O178 1.216 . S
O178 C177 1.216 . S
H179 C174 0.930 . S
H180 C175 0.930 . S
O181 Cu161 1.959 . S
O181 C168 1.251 . S
H182 C165 0.930 . S
H183 C176 0.929 . S
H184 C185 0.951 . S
C185 H184 0.951 . S
C185 C191 1.265 . S
H186 C191 0.950 . S
H187 C195 0.949 . S
H188 C196 0.950 . S
H189 C197 0.951 . S
H190 C198 0.951 . S
C191 C185 1.265 . S
C191 H186 0.950 . S
C191 C192 1.478 . S
C192 C191 1.478 . S
C192 C193 1.397 . S
C192 C209 1.394 . S
C193 C192 1.397 . S
C193 C194 1.438 1_554 S
C193 C198 1.429 . S
C194 C193 1.438 1_556 S
C194 C195 1.428 . S
C194 C207 1.394 . S
C195 H187 0.949 . S
C195 C194 1.428 . S
C195 C196 1.345 . S
C196 H188 0.950 . S
C196 C195 1.345 . S
C196 C197 1.424 . S
C197 H189 0.951 . S
C197 C196 1.424 . S
C197 C198 1.347 1_556 S
C198 H190 0.951 . S
C198 C193 1.429 . S
C198 C197 1.347 1_554 S
H199 C200 0.951 . S
C200 H199 0.951 . S
C200 C206 1.265 . S
H201 C206 0.950 . S
H202 C210 0.949 . S
H203 C211 0.950 . S
H204 C212 0.951 . S
H205 C213 0.951 . S
C206 C200 1.265 . S
C206 H201 0.950 . S
C206 C207 1.478 . S
C207 C194 1.394 . S
C207 C206 1.478 . S
C207 C208 1.397 . S
C208 C207 1.397 . S
C208 C209 1.438 1_556 S
C208 C213 1.429 . S
C209 C192 1.394 . S
C209 C208 1.438 1_554 S
C209 C210 1.428 . S
C210 H202 0.949 . S
C210 C209 1.428 . S
C210 C211 1.345 . S
C211 H203 0.950 . S
C211 C210 1.345 . S
C211 C212 1.424 . S
C212 H204 0.951 . S
C212 C211 1.424 . S
C212 C213 1.347 1_554 S
C213 H205 0.951 . S
C213 C208 1.429 . S
C213 C212 1.347 1_556 S
H214 C215 0.951 . S
C215 H214 0.951 . S
C215 C221 1.265 . S
H216 C221 0.950 . S
H217 C225 0.949 . S
H218 C226 0.950 . S
H219 C227 0.951 . S
H220 C228 0.951 . S
C221 C215 1.265 . S
C221 H216 0.950 . S
C221 C222 1.478 . S
C222 C221 1.478 . S
C222 C223 1.397 . S
C222 C239 1.394 . S
C223 C222 1.397 . S
C223 C224 1.438 . S
C223 C228 1.429 . S
C224 C223 1.438 . S
C224 C225 1.428 . S
C224 C237 1.394 . S
C225 H217 0.949 . S
C225 C224 1.428 . S
C225 C226 1.345 . S
C226 H218 0.950 . S
C226 C225 1.345 . S
C226 C227 1.424 . S
C227 H219 0.951 . S
C227 C226 1.424 . S
C227 C228 1.347 . S
C228 H220 0.951 . S
C228 C223 1.429 . S
C228 C227 1.347 . S
H229 C230 0.951 . S
C230 H229 0.951 . S
C230 C236 1.265 . S
H231 C236 0.950 . S
H232 C240 0.949 . S
H233 C241 0.950 . S
H234 C242 0.951 . S
H235 C243 0.951 . S
C236 C230 1.265 . S
C236 H231 0.950 . S
C236 C237 1.478 . S
C237 C224 1.394 . S
C237 C236 1.478 . S
C237 C238 1.397 . S
C238 C237 1.397 . S
C238 C239 1.438 . S
C238 C243 1.429 . S
C239 C222 1.394 . S
C239 C238 1.438 . S
C239 C240 1.428 . S
C240 H232 0.949 . S
C240 C239 1.428 . S
C240 C241 1.345 . S
C241 H233 0.950 . S
C241 C240 1.345 . S
C241 C242 1.424 . S
C242 H234 0.951 . S
C242 C241 1.424 . S
C242 C243 1.347 . S
C243 H235 0.951 . S
C243 C238 1.429 . S
C243 C242 1.347 . S
H244 C245 0.951 . S
C245 H244 0.951 . S
C245 C251 1.265 . S
H246 C251 0.950 . S
H247 C255 0.949 . S
H248 C256 0.950 . S
H249 C257 0.951 . S
H250 C258 0.951 . S
C251 C245 1.265 . S
C251 H246 0.950 . S
C251 C252 1.478 . S
C252 C251 1.478 . S
C252 C253 1.397 . S
C252 C269 1.394 . S
C253 C252 1.397 . S
C253 C254 1.438 . S
C253 C258 1.429 . S
C254 C253 1.438 . S
C254 C255 1.428 . S
C254 C267 1.394 . S
C255 H247 0.949 . S
C255 C254 1.428 . S
C255 C256 1.345 . S
C256 H248 0.950 . S
C256 C255 1.345 . S
C256 C257 1.424 . S
C257 H249 0.951 . S
C257 C256 1.424 . S
C257 C258 1.347 . S
C258 H250 0.951 . S
C258 C253 1.429 . S
C258 C257 1.347 . S
H259 C260 0.951 . S
C260 H259 0.951 . S
C260 C266 1.265 . S
H261 C266 0.950 . S
H262 C270 0.949 . S
H263 C271 0.950 . S
H264 C272 0.951 . S
H265 C273 0.951 . S
C266 C260 1.265 . S
C266 H261 0.950 . S
C266 C267 1.478 . S
C267 C254 1.394 . S
C267 C266 1.478 . S
C267 C268 1.397 . S
C268 C267 1.397 . S
C268 C269 1.438 . S
C268 C273 1.429 . S
C269 C252 1.394 . S
C269 C268 1.438 . S
C269 C270 1.428 . S
C270 H262 0.949 . S
C270 C269 1.428 . S
C270 C271 1.345 . S
C271 H263 0.950 . S
C271 C270 1.345 . S
C271 C272 1.424 . S
C272 H264 0.951 . S
C272 C271 1.424 . S
C272 C273 1.347 . S
C273 H265 0.951 . S
C273 C268 1.429 . S
C273 C272 1.347 . S
H274 C275 0.951 . S
C275 H274 0.951 . S
C275 C281 1.265 . S
H276 C281 0.950 . S
H277 C285 0.949 . S
H278 C286 0.950 . S
H279 C287 0.951 . S
H280 C288 0.951 . S
C281 C275 1.265 . S
C281 H276 0.950 . S
C281 C282 1.478 . S
C282 C281 1.478 . S
C282 C283 1.397 . S
C282 C299 1.394 . S
C283 C282 1.397 . S
C283 C284 1.438 . S
C283 C288 1.429 . S
C284 C283 1.438 . S
C284 C285 1.428 . S
C284 C297 1.394 . S
C285 H277 0.949 . S
C285 C284 1.428 . S
C285 C286 1.345 . S
C286 H278 0.950 . S
C286 C285 1.345 . S
C286 C287 1.424 . S
C287 H279 0.951 . S
C287 C286 1.424 . S
C287 C288 1.347 . S
C288 H280 0.951 . S
C288 C283 1.429 . S
C288 C287 1.347 . S
H289 C290 0.951 . S
C290 H289 0.951 . S
C290 C296 1.265 . S
H291 C296 0.950 . S
H292 C300 0.949 . S
H293 C301 0.950 . S
H294 C302 0.951 . S
H295 C303 0.951 . S
C296 C290 1.265 . S
C296 H291 0.950 . S
C296 C297 1.478 . S
C297 C284 1.394 . S
C297 C296 1.478 . S
C297 C298 1.397 . S
C298 C297 1.397 . S
C298 C299 1.438 . S
C298 C303 1.429 . S
C299 C282 1.394 . S
C299 C298 1.438 . S
C299 C300 1.428 . S
C300 H292 0.949 . S
C300 C299 1.428 . S
C300 C301 1.345 . S
C301 H293 0.950 . S
C301 C300 1.345 . S
C301 C302 1.424 . S
C302 H294 0.951 . S
C302 C301 1.424 . S
C302 C303 1.347 . S
C303 H295 0.951 . S
C303 C298 1.429 . S
C303 C302 1.347 . S
H304 C305 0.951 . S
C305 H304 0.951 . S
C305 C311 1.265 . S
H306 C311 0.950 . S
H307 C315 0.949 . S
H308 C316 0.950 . S
H309 C317 0.951 . S
H310 C318 0.951 . S
C311 C305 1.265 . S
C311 H306 0.950 . S
C311 C312 1.478 . S
C312 C311 1.478 . S
C312 C313 1.397 . S
C312 C329 1.394 . S
C313 C312 1.397 . S
C313 C314 1.438 . S
C313 C318 1.429 . S
C314 C313 1.438 . S
C314 C315 1.428 . S
C314 C327 1.394 . S
C315 H307 0.949 . S
C315 C314 1.428 . S
C315 C316 1.345 . S
C316 H308 0.950 . S
C316 C315 1.345 . S
C316 C317 1.424 . S
C317 H309 0.951 . S
C317 C316 1.424 . S
C317 C318 1.347 . S
C318 H310 0.951 . S
C318 C313 1.429 . S
C318 C317 1.347 . S
H319 C320 0.951 . S
C320 H319 0.951 . S
C320 C326 1.265 . S
H321 C326 0.950 . S
H322 C330 0.949 . S
H323 C331 0.950 . S
H324 C332 0.951 . S
H325 C333 0.951 . S
C326 C320 1.265 . S
C326 H321 0.950 . S
C326 C327 1.478 . S
C327 C314 1.394 . S
C327 C326 1.478 . S
C327 C328 1.397 . S
C328 C327 1.397 . S
C328 C329 1.438 . S
C328 C333 1.429 . S
C329 C312 1.394 . S
C329 C328 1.438 . S
C329 C330 1.428 . S
C330 H322 0.949 . S
C330 C329 1.428 . S
C330 C331 1.345 . S
C331 H323 0.950 . S
C331 C330 1.345 . S
C331 C332 1.424 . S
C332 H324 0.951 . S
C332 C331 1.424 . S
C332 C333 1.347 . S
C333 H325 0.951 . S
C333 C328 1.429 . S
C333 C332 1.347 . S
H334 C335 0.951 . S
C335 H334 0.951 . S
C335 C341 1.265 . S
H336 C341 0.950 . S
H337 C345 0.949 . S
H338 C346 0.950 . S
H339 C347 0.951 . S
H340 C348 0.951 . S
C341 C335 1.265 . S
C341 H336 0.950 . S
C341 C342 1.478 . S
C342 C341 1.478 . S
C342 C343 1.397 . S
C342 C359 1.394 . S
C343 C342 1.397 . S
C343 C344 1.438 . S
C343 C348 1.429 . S
C344 C343 1.438 . S
C344 C345 1.428 . S
C344 C357 1.394 . S
C345 H337 0.949 . S
C345 C344 1.428 . S
C345 C346 1.345 . S
C346 H338 0.950 . S
C346 C345 1.345 . S
C346 C347 1.424 . S
C347 H339 0.951 . S
C347 C346 1.424 . S
C347 C348 1.347 . S
C348 H340 0.951 . S
C348 C343 1.429 . S
C348 C347 1.347 . S
H349 C350 0.951 . S
C350 H349 0.951 . S
C350 C356 1.265 . S
H351 C356 0.950 . S
H352 C360 0.949 . S
H353 C361 0.950 . S
H354 C362 0.951 . S
H355 C363 0.951 . S
C356 C350 1.265 . S
C356 H351 0.950 . S
C356 C357 1.478 . S
C357 C344 1.394 . S
C357 C356 1.478 . S
C357 C358 1.397 . S
C358 C357 1.397 . S
C358 C359 1.438 . S
C358 C363 1.429 . S
C359 C342 1.394 . S
C359 C358 1.438 . S
C359 C360 1.428 . S
C360 H352 0.949 . S
C360 C359 1.428 . S
C360 C361 1.345 . S
C361 H353 0.950 . S
C361 C360 1.345 . S
C361 C362 1.424 . S
C362 H354 0.951 . S
C362 C361 1.424 . S
C362 C363 1.347 . S
C363 H355 0.951 . S
C363 C358 1.429 . S
C363 C362 1.347 . S
H364 C365 0.951 . S
C365 H364 0.951 . S
C365 C371 1.265 . S
H366 C371 0.950 . S
H367 C375 0.949 . S
H368 C376 0.950 . S
H369 C377 0.951 . S
H370 C378 0.951 . S
C371 C365 1.265 . S
C371 H366 0.950 . S
C371 C372 1.478 . S
C372 C371 1.478 . S
C372 C373 1.397 . S
C372 C389 1.394 . S
C373 C372 1.397 . S
C373 C374 1.438 . S
C373 C378 1.429 . S
C374 C373 1.438 . S
C374 C375 1.428 . S
C374 C387 1.394 . S
C375 H367 0.949 . S
C375 C374 1.428 . S
C375 C376 1.345 . S
C376 H368 0.950 . S
C376 C375 1.345 . S
C376 C377 1.424 . S
C377 H369 0.951 . S
C377 C376 1.424 . S
C377 C378 1.347 . S
C378 H370 0.951 . S
C378 C373 1.429 . S
C378 C377 1.347 . S
H379 C380 0.951 . S
C380 H379 0.951 . S
C380 C386 1.265 . S
H381 C386 0.950 . S
H382 C390 0.949 . S
H383 C391 0.950 . S
H384 C392 0.951 . S
H385 C393 0.951 . S
C386 C380 1.265 . S
C386 H381 0.950 . S
C386 C387 1.478 . S
C387 C374 1.394 . S
C387 C386 1.478 . S
C387 C388 1.397 . S
C388 C387 1.397 . S
C388 C389 1.438 . S
C388 C393 1.429 . S
C389 C372 1.394 . S
C389 C388 1.438 . S
C389 C390 1.428 . S
C390 H382 0.949 . S
C390 C389 1.428 . S
C390 C391 1.345 . S
C391 H383 0.950 . S
C391 C390 1.345 . S
C391 C392 1.424 . S
C392 H384 0.951 . S
C392 C391 1.424 . S
C392 C393 1.347 . S
C393 H385 0.951 . S
C393 C388 1.429 . S
C393 C392 1.347 . S
H394 C395 0.951 . S
C395 H394 0.951 . S
C395 C401 1.265 . S
H396 C401 0.950 . S
H397 C405 0.949 . S
H398 C406 0.950 . S
H399 C407 0.951 . S
H400 C408 0.951 . S
C401 C395 1.265 . S
C401 H396 0.950 . S
C401 C402 1.478 . S
C402 C401 1.478 . S
C402 C403 1.397 . S
C402 C419 1.394 . S
C403 C402 1.397 . S
C403 C404 1.438 1_554 S
C403 C408 1.429 . S
C404 C403 1.438 1_556 S
C404 C405 1.428 . S
C404 C417 1.394 . S
C405 H397 0.949 . S
C405 C404 1.428 . S
C405 C406 1.345 1_556 S
C406 H398 0.950 . S
C406 C405 1.345 1_554 S
C406 C407 1.424 . S
C407 H399 0.951 . S
C407 C406 1.424 . S
C407 C408 1.347 . S
C408 H400 0.951 . S
C408 C403 1.429 . S
C408 C407 1.347 . S
H409 C410 0.951 . S
C410 H409 0.951 . S
C410 C416 1.265 . S
H411 C416 0.950 . S
H412 C420 0.949 . S
H413 C421 0.950 . S
H414 C422 0.951 . S
H415 C423 0.951 . S
C416 C410 1.265 . S
C416 H411 0.950 . S
C416 C417 1.478 . S
C417 C404 1.394 . S
C417 C416 1.478 . S
C417 C418 1.397 . S
C418 C417 1.397 . S
C418 C419 1.438 1_556 S
C418 C423 1.429 . S
C419 C402 1.394 . S
C419 C418 1.438 1_554 S
C419 C420 1.428 . S
C420 H412 0.949 . S
C420 C419 1.428 . S
C420 C421 1.345 1_554 S
C421 H413 0.950 . S
C421 C420 1.345 1_556 S
C421 C422 1.424 . S
C422 H414 0.951 . S
C422 C421 1.424 . S
C422 C423 1.347 . S
C423 H415 0.951 . S
C423 C418 1.429 . S
C423 C422 1.347 . S
H424 C425 0.951 . S
C425 H424 0.951 . S
C425 C431 1.265 . S
H426 C431 0.950 . S
H427 C435 0.949 . S
H428 C436 0.950 1_565 S
H429 C437 0.951 . S
H430 C438 0.951 . S
C431 C425 1.265 . S
C431 H426 0.950 . S
C431 C432 1.478 . S
C432 C431 1.478 . S
C432 C433 1.397 1_455 S
C432 C449 1.394 . S
C433 C432 1.397 1_655 S
C433 C434 1.438 1_545 S
C433 C438 1.429 . S
C434 C433 1.438 1_565 S
C434 C435 1.428 . S
C434 C447 1.394 . S
C435 H427 0.949 . S
C435 C434 1.428 . S
C435 C436 1.345 1_565 S
C436 H428 0.950 1_545 S
C436 C435 1.345 1_545 S
C436 C437 1.424 . S
C437 H429 0.951 . S
C437 C436 1.424 . S
C437 C438 1.347 . S
C438 H430 0.951 . S
C438 C433 1.429 . S
C438 C437 1.347 . S
H439 C440 0.951 . S
C440 H439 0.951 . S
C440 C446 1.265 . S
H441 C446 0.950 . S
H442 C450 0.949 . S
H443 C451 0.950 1_545 S
H444 C452 0.951 . S
H445 C453 0.951 . S
C446 C440 1.265 . S
C446 H441 0.950 . S
C446 C447 1.478 . S
C447 C434 1.394 . S
C447 C446 1.478 . S
C447 C448 1.397 1_655 S
C448 C447 1.397 1_455 S
C448 C449 1.438 1_565 S
C448 C453 1.429 . S
C449 C432 1.394 . S
C449 C448 1.438 1_545 S
C449 C450 1.428 . S
C450 H442 0.949 . S
C450 C449 1.428 . S
C450 C451 1.345 1_545 S
C451 H443 0.950 1_565 S
C451 C450 1.345 1_565 S
C451 C452 1.424 . S
C452 H444 0.951 . S
C452 C451 1.424 . S
C452 C453 1.347 . S
C453 H445 0.951 . S
C453 C448 1.429 . S
C453 C452 1.347 . S
H454 C455 0.951 . S
C455 H454 0.951 . S
C455 C461 1.265 . S
H456 C461 0.950 . S
H457 C465 0.949 . S
H458 C466 0.950 . S
H459 C467 0.951 . S
H460 C468 0.951 . S
C461 C455 1.265 . S
C461 H456 0.950 . S
C461 C462 1.478 . S
C462 C461 1.478 . S
C462 C463 1.397 . S
C462 C479 1.394 . S
C463 C462 1.397 . S
C463 C464 1.438 1_455 S
C463 C468 1.429 . S
C464 C463 1.438 1_655 S
C464 C465 1.428 . S
C464 C477 1.394 . S
C465 H457 0.949 . S
C465 C464 1.428 . S
C465 C466 1.345 . S
C466 H458 0.950 . S
C466 C465 1.345 . S
C466 C467 1.424 . S
C467 H459 0.951 . S
C467 C466 1.424 . S
C467 C468 1.347 1_655 S
C468 H460 0.951 . S
C468 C463 1.429 . S
C468 C467 1.347 1_455 S
H469 C470 0.951 . S
C470 H469 0.951 . S
C470 C476 1.265 . S
H471 C476 0.950 . S
H472 C480 0.949 . S
H473 C481 0.950 . S
H474 C482 0.951 . S
H475 C483 0.951 . S
C476 C470 1.265 . S
C476 H471 0.950 . S
C476 C477 1.478 . S
C477 C464 1.394 . S
C477 C476 1.478 . S
C477 C478 1.397 . S
C478 C477 1.397 . S
C478 C479 1.438 1_655 S
C478 C483 1.429 . S
C479 C462 1.394 . S
C479 C478 1.438 1_455 S
C479 C480 1.428 . S
C480 H472 0.949 . S
C480 C479 1.428 . S
C480 C481 1.345 . S
C481 H473 0.950 . S
C481 C480 1.345 . S
C481 C482 1.424 . S
C482 H474 0.951 . S
C482 C481 1.424 . S
C482 C483 1.347 1_455 S
C483 H475 0.951 . S
C483 C478 1.429 . S
C483 C482 1.347 1_655 S
H484 C485 0.951 . S
C485 H484 0.951 . S
C485 C491 1.265 . S
H486 C491 0.950 . S
H487 C495 0.949 . S
H488 C496 0.950 . S
H489 C497 0.951 . S
H490 C498 0.951 . S
C491 C485 1.265 . S
C491 H486 0.950 . S
C491 C492 1.478 . S
C492 C491 1.478 . S
C492 C493 1.397 . S
C492 C509 1.394 . S
C493 C492 1.397 . S
C493 C494 1.438 . S
C493 C498 1.429 . S
C494 C493 1.438 . S
C494 C495 1.428 . S
C494 C507 1.394 . S
C495 H487 0.949 . S
C495 C494 1.428 . S
C495 C496 1.345 . S
C496 H488 0.950 . S
C496 C495 1.345 . S
C496 C497 1.424 . S
C497 H489 0.951 . S
C497 C496 1.424 . S
C497 C498 1.347 . S
C498 H490 0.951 . S
C498 C493 1.429 . S
C498 C497 1.347 . S
H499 C500 0.951 . S
C500 H499 0.951 . S
C500 C506 1.265 . S
H501 C506 0.950 . S
H502 C510 0.949 . S
H503 C511 0.950 . S
H504 C512 0.951 . S
H505 C513 0.951 . S
C506 C500 1.265 . S
C506 H501 0.950 . S
C506 C507 1.478 . S
C507 C494 1.394 . S
C507 C506 1.478 . S
C507 C508 1.397 . S
C508 C507 1.397 . S
C508 C509 1.438 . S
C508 C513 1.429 . S
C509 C492 1.394 . S
C509 C508 1.438 . S
C509 C510 1.428 . S
C510 H502 0.949 . S
C510 C509 1.428 . S
C510 C511 1.345 . S
C511 H503 0.950 . S
C511 C510 1.345 . S
C511 C512 1.424 . S
C512 H504 0.951 . S
C512 C511 1.424 . S
C512 C513 1.347 . S
C513 H505 0.951 . S
C513 C508 1.429 . S
C513 C512 1.347 . S
H514 C515 0.951 . S
C515 H514 0.951 . S
C515 C521 1.265 . S
H516 C521 0.950 . S
H517 C525 0.949 . S
H518 C526 0.950 . S
H519 C527 0.951 . S
H520 C528 0.951 1_565 S
C521 C515 1.265 . S
C521 H516 0.950 . S
C521 C522 1.478 . S
C522 C521 1.478 . S
C522 C523 1.397 1_565 S
C522 C539 1.394 . S
C523 C522 1.397 1_545 S
C523 C524 1.438 . S
C523 C528 1.429 . S
C524 C523 1.438 . S
C524 C525 1.428 . S
C524 C537 1.394 . S
C525 H517 0.949 . S
C525 C524 1.428 . S
C525 C526 1.345 . S
C526 H518 0.950 . S
C526 C525 1.345 . S
C526 C527 1.424 . S
C527 H519 0.951 . S
C527 C526 1.424 . S
C527 C528 1.347 . S
C528 H520 0.951 1_545 S
C528 C523 1.429 . S
C528 C527 1.347 . S
H529 C530 0.951 . S
C530 H529 0.951 . S
C530 C536 1.265 . S
H531 C536 0.950 . S
H532 C540 0.949 . S
H533 C541 0.950 . S
H534 C542 0.951 . S
H535 C543 0.951 1_545 S
C536 C530 1.265 . S
C536 H531 0.950 . S
C536 C537 1.478 . S
C537 C524 1.394 . S
C537 C536 1.478 . S
C537 C538 1.397 1_545 S
C538 C537 1.397 1_565 S
C538 C539 1.438 . S
C538 C543 1.429 . S
C539 C522 1.394 . S
C539 C538 1.438 . S
C539 C540 1.428 . S
C540 H532 0.949 . S
C540 C539 1.428 . S
C540 C541 1.345 . S
C541 H533 0.950 . S
C541 C540 1.345 . S
C541 C542 1.424 . S
C542 H534 0.951 . S
C542 C541 1.424 . S
C542 C543 1.347 . S
C543 H535 0.951 1_565 S
C543 C538 1.429 . S
C543 C542 1.347 . S
H544 C545 0.951 . S
C545 H544 0.951 . S
C545 C551 1.265 . S
H546 C551 0.950 . S
H547 C555 0.949 . S
H548 C556 0.950 . S
H549 C557 0.951 . S
H550 C558 0.951 1_655 S
C551 C545 1.265 . S
C551 H546 0.950 . S
C551 C552 1.478 . S
C552 C551 1.478 . S
C552 C553 1.397 1_655 S
C552 C569 1.394 . S
C553 C552 1.397 1_455 S
C553 C554 1.438 . S
C553 C558 1.429 . S
C554 C553 1.438 . S
C554 C555 1.428 . S
C554 C567 1.394 . S
C555 H547 0.949 . S
C555 C554 1.428 . S
C555 C556 1.345 . S
C556 H548 0.950 . S
C556 C555 1.345 . S
C556 C557 1.424 . S
C557 H549 0.951 . S
C557 C556 1.424 . S
C557 C558 1.347 . S
C558 H550 0.951 1_455 S
C558 C553 1.429 . S
C558 C557 1.347 . S
H559 C560 0.951 . S
C560 H559 0.951 . S
C560 C566 1.265 . S
H561 C566 0.950 . S
H562 C570 0.949 . S
H563 C571 0.950 . S
H564 C572 0.951 . S
H565 C573 0.951 1_455 S
C566 C560 1.265 . S
C566 H561 0.950 . S
C566 C567 1.478 . S
C567 C554 1.394 . S
C567 C566 1.478 . S
C567 C568 1.397 1_455 S
C568 C567 1.397 1_655 S
C568 C569 1.438 . S
C568 C573 1.429 . S
C569 C552 1.394 . S
C569 C568 1.438 . S
C569 C570 1.428 . S
C570 H562 0.949 . S
C570 C569 1.428 . S
C570 C571 1.345 . S
C571 H563 0.950 . S
C571 C570 1.345 . S
C571 C572 1.424 . S
C572 H564 0.951 . S
C572 C571 1.424 . S
C572 C573 1.347 . S
C573 H565 0.951 1_655 S
C573 C568 1.429 . S
C573 C572 1.347 . S
H574 C575 0.951 . S
C575 H574 0.951 . S
C575 C581 1.265 . S
H576 C581 0.950 . S
H577 C585 0.949 . S
H578 C586 0.950 . S
H579 C587 0.951 . S
H580 C588 0.951 . S
C581 C575 1.265 . S
C581 H576 0.950 . S
C581 C582 1.478 . S
C582 C581 1.478 . S
C582 C583 1.397 . S
C582 C599 1.394 . S
C583 C582 1.397 . S
C583 C584 1.438 . S
C583 C588 1.429 . S
C584 C583 1.438 . S
C584 C585 1.428 . S
C584 C597 1.394 . S
C585 H577 0.949 . S
C585 C584 1.428 . S
C585 C586 1.345 . S
C586 H578 0.950 . S
C586 C585 1.345 . S
C586 C587 1.424 . S
C587 H579 0.951 . S
C587 C586 1.424 . S
C587 C588 1.347 . S
C588 H580 0.951 . S
C588 C583 1.429 . S
C588 C587 1.347 . S
H589 C590 0.951 . S
C590 H589 0.951 . S
C590 C596 1.265 . S
H591 C596 0.950 . S
H592 C600 0.949 . S
H593 C601 0.950 . S
H594 C602 0.951 . S
H595 C603 0.951 . S
C596 C590 1.265 . S
C596 H591 0.950 . S
C596 C597 1.478 . S
C597 C584 1.394 . S
C597 C596 1.478 . S
C597 C598 1.397 . S
C598 C597 1.397 . S
C598 C599 1.438 . S
C598 C603 1.429 . S
C599 C582 1.394 . S
C599 C598 1.438 . S
C599 C600 1.428 . S
C600 H592 0.949 . S
C600 C599 1.428 . S
C600 C601 1.345 . S
C601 H593 0.950 . S
C601 C600 1.345 . S
C601 C602 1.424 . S
C602 H594 0.951 . S
C602 C601 1.424 . S
C602 C603 1.347 . S
C603 H595 0.951 . S
C603 C598 1.429 . S
C603 C602 1.347 . S
H604 C605 0.951 . S
C605 H604 0.951 . S
C605 C611 1.265 . S
H606 C611 0.950 . S
H607 C615 0.949 . S
H608 C616 0.947 1_565 S
H609 C617 0.951 . S
H610 C618 0.951 . S
C611 C605 1.265 . S
C611 H606 0.950 . S
C611 C612 1.478 . S
C612 C611 1.478 . S
C612 C613 1.397 . S
C612 C629 1.394 . S
C613 C612 1.397 . S
C613 C614 1.438 1_545 S
C613 C618 1.429 . S
C614 C613 1.438 1_565 S
C614 C615 1.428 . S
C614 C627 1.394 . S
C615 H607 0.949 . S
C615 C614 1.428 . S
C615 C616 1.345 1_565 S
C616 H608 0.947 1_545 S
C616 C615 1.345 1_545 S
C616 C617 1.424 . S
C617 H609 0.951 . S
C617 C616 1.424 . S
C617 C618 1.347 . S
C618 H610 0.951 . S
C618 C613 1.429 . S
C618 C617 1.347 . S
H619 C620 0.951 . S
C620 H619 0.951 . S
C620 C626 1.265 . S
H621 C626 0.950 . S
H622 C630 0.949 . S
H623 C631 0.947 1_545 S
H624 C632 0.951 . S
H625 C633 0.951 . S
C626 C620 1.265 . S
C626 H621 0.950 . S
C626 C627 1.478 . S
C627 C614 1.394 . S
C627 C626 1.478 . S
C627 C628 1.397 . S
C628 C627 1.397 . S
C628 C629 1.438 1_565 S
C628 C633 1.429 . S
C629 C612 1.394 . S
C629 C628 1.438 1_545 S
C629 C630 1.428 . S
C630 H622 0.949 . S
C630 C629 1.428 . S
C630 C631 1.345 1_545 S
C631 H623 0.947 1_565 S
C631 C630 1.345 1_565 S
C631 C632 1.424 . S
C632 H624 0.951 . S
C632 C631 1.424 . S
C632 C633 1.347 . S
C633 H625 0.951 . S
C633 C628 1.429 . S
C633 C632 1.347 . S
H634 C635 0.951 . S
C635 H634 0.951 . S
C635 C641 1.265 . S
H636 C641 0.950 . S
H637 C645 0.949 . S
H638 C646 0.950 . S
H639 C647 0.951 . S
H640 C648 0.951 1_565 S
C641 C635 1.265 . S
C641 H636 0.950 . S
C641 C642 1.478 . S
C642 C641 1.478 . S
C642 C643 1.397 1_565 S
C642 C659 1.394 . S
C643 C642 1.397 1_545 S
C643 C644 1.438 1_655 S
C643 C648 1.429 . S
C644 C643 1.438 1_455 S
C644 C645 1.428 . S
C644 C657 1.394 . S
C645 H637 0.949 . S
C645 C644 1.428 . S
C645 C646 1.345 . S
C646 H638 0.950 . S
C646 C645 1.345 . S
C646 C647 1.424 1_455 S
C647 H639 0.951 . S
C647 C646 1.424 1_655 S
C647 C648 1.347 . S
C648 H640 0.951 1_545 S
C648 C643 1.429 . S
C648 C647 1.347 . S
H649 C650 0.951 . S
C650 H649 0.951 . S
C650 C656 1.265 . S
H651 C656 0.950 . S
H652 C660 0.949 . S
H653 C661 0.950 . S
H654 C662 0.951 . S
H655 C663 0.951 1_545 S
C656 C650 1.265 . S
C656 H651 0.950 . S
C656 C657 1.478 . S
C657 C644 1.394 . S
C657 C656 1.478 . S
C657 C658 1.397 1_545 S
C658 C657 1.397 1_565 S
C658 C659 1.438 1_455 S
C658 C663 1.429 . S
C659 C642 1.394 . S
C659 C658 1.438 1_655 S
C659 C660 1.428 . S
C660 H652 0.949 . S
C660 C659 1.428 . S
C660 C661 1.345 . S
C661 H653 0.950 . S
C661 C660 1.345 . S
C661 C662 1.424 1_655 S
C662 H654 0.951 . S
C662 C661 1.424 1_455 S
C662 C663 1.347 . S
C663 H655 0.951 1_565 S
C663 C658 1.429 . S
C663 C662 1.347 . S
C185 C16 1.820 . S
C200 C131 1.816 . S
C215 C30 1.900 . S
C230 C145 1.868 . S
C245 C62 1.887 . S
C260 C177 1.862 . S
C275 C76 1.869 . S
C290 C99 1.901 . S
C305 C168 1.901 . S
C320 C7 1.927 . S
C335 C108 1.888 . S
C350 C39 1.839 . S
C365 C53 1.880 . S
C380 C122 1.918 . S
C395 C154 1.886 . S
C410 C85 1.866 . S
C425 N2 1.735 . S
C440 N140 1.728 . S
C455 N173 1.781 . S
C470 N35 1.780 . S
C485 N48 1.732 . S
C500 N94 1.732 . S
C515 N81 1.840 . S
C530 N127 1.843 . S
C545 N150 1.840 . S
C560 N12 1.843 . S
C575 N163 1.610 . S
C590 N25 1.608 . S
C605 N58 1.845 . S
C620 N104 1.838 . S
C635 N71 1.730 . S
C650 N117 1.734 . S
