# Generated by pormake.
# Topology wir, (6)-cn, num edge types: 1
# Building blocks:
#     Node 0, Type 0, BuildingBlock: INOVEN_clean_sbu_0, # of connection points: 6
#     Node 1, Type 0, BuildingBlock: INOVEN_clean_sbu_0, # of connection points: 6
#     Node 2, Type 0, BuildingBlock: INOVEN_clean_sbu_0, # of connection points: 6
#     Node 3, Type 0, BuildingBlock: INOVEN_clean_sbu_0, # of connection points: 6
#     Node 4, Type 0, BuildingBlock: INOVEN_clean_sbu_0, # of connection points: 6
#     Node 5, Type 0, BuildingBlock: INOVEN_clean_sbu_0, # of connection points: 6
#     Node 6, Type 0, BuildingBlock: INOVEN_clean_sbu_0, # of connection points: 6
#     Node 7, Type 0, BuildingBlock: INOVEN_clean_sbu_0, # of connection points: 6
#     Node 8, Type 0, BuildingBlock: INOVEN_clean_sbu_0, # of connection points: 6
#     Node 9, Type 0, BuildingBlock: INOVEN_clean_sbu_0, # of connection points: 6
#     Node 10, Type 0, BuildingBlock: INOVEN_clean_sbu_0, # of connection points: 6
#     Node 11, Type 0, BuildingBlock: INOVEN_clean_sbu_0, # of connection points: 6
#     Node 12, Type 0, BuildingBlock: INOVEN_clean_sbu_0, # of connection points: 6
#     Node 13, Type 0, BuildingBlock: INOVEN_clean_sbu_0, # of connection points: 6
#     Node 14, Type 0, BuildingBlock: INOVEN_clean_sbu_0, # of connection points: 6
#     Node 15, Type 0, BuildingBlock: INOVEN_clean_sbu_0, # of connection points: 6
#     Node 16, Type 0, BuildingBlock: INOVEN_clean_sbu_0, # of connection points: 6
#     Node 17, Type 0, BuildingBlock: INOVEN_clean_sbu_0, # of connection points: 6
#     Node 18, Type 0, BuildingBlock: INOVEN_clean_sbu_0, # of connection points: 6
#     Node 19, Type 0, BuildingBlock: INOVEN_clean_sbu_0, # of connection points: 6
#     Node 20, Type 0, BuildingBlock: INOVEN_clean_sbu_0, # of connection points: 6
#     Node 21, Type 0, BuildingBlock: INOVEN_clean_sbu_0, # of connection points: 6
#     Node 22, Type 0, BuildingBlock: INOVEN_clean_sbu_0, # of connection points: 6
#     Node 23, Type 0, BuildingBlock: INOVEN_clean_sbu_0, # of connection points: 6
#     Node 24, Type 0, BuildingBlock: INOVEN_clean_sbu_0, # of connection points: 6
#     Node 25, Type 0, BuildingBlock: INOVEN_clean_sbu_0, # of connection points: 6
#     Node 26, Type 0, BuildingBlock: INOVEN_clean_sbu_0, # of connection points: 6
#     Node 27, Type 0, BuildingBlock: INOVEN_clean_sbu_0, # of connection points: 6
#     Node 28, Type 0, BuildingBlock: INOVEN_clean_sbu_0, # of connection points: 6
#     Node 29, Type 0, BuildingBlock: INOVEN_clean_sbu_0, # of connection points: 6
#     Node 30, Type 0, BuildingBlock: INOVEN_clean_sbu_0, # of connection points: 6
#     Node 31, Type 0, BuildingBlock: INOVEN_clean_sbu_0, # of connection points: 6
#     Edge 32, Type (0, 0), BuildingBlock: OJICUG_clean_linker_0, # of connection points: 2
#     Edge 33, Type (0, 0), BuildingBlock: OJICUG_clean_linker_0, # of connection points: 2
#     Edge 34, Type (0, 0), BuildingBlock: OJICUG_clean_linker_0, # of connection points: 2
#     Edge 35, Type (0, 0), BuildingBlock: OJICUG_clean_linker_0, # of connection points: 2
#     Edge 36, Type (0, 0), BuildingBlock: OJICUG_clean_linker_0, # of connection points: 2
#     Edge 37, Type (0, 0), BuildingBlock: OJICUG_clean_linker_0, # of connection points: 2
#     Edge 38, Type (0, 0), BuildingBlock: OJICUG_clean_linker_0, # of connection points: 2
#     Edge 39, Type (0, 0), BuildingBlock: OJICUG_clean_linker_0, # of connection points: 2
#     Edge 40, Type (0, 0), BuildingBlock: OJICUG_clean_linker_0, # of connection points: 2
#     Edge 41, Type (0, 0), BuildingBlock: OJICUG_clean_linker_0, # of connection points: 2
#     Edge 42, Type (0, 0), BuildingBlock: OJICUG_clean_linker_0, # of connection points: 2
#     Edge 43, Type (0, 0), BuildingBlock: OJICUG_clean_linker_0, # of connection points: 2
#     Edge 44, Type (0, 0), BuildingBlock: OJICUG_clean_linker_0, # of connection points: 2
#     Edge 45, Type (0, 0), BuildingBlock: OJICUG_clean_linker_0, # of connection points: 2
#     Edge 46, Type (0, 0), BuildingBlock: OJICUG_clean_linker_0, # of connection points: 2
#     Edge 47, Type (0, 0), BuildingBlock: OJICUG_clean_linker_0, # of connection points: 2
#     Edge 48, Type (0, 0), BuildingBlock: OJICUG_clean_linker_0, # of connection points: 2
#     Edge 49, Type (0, 0), BuildingBlock: OJICUG_clean_linker_0, # of connection points: 2
#     Edge 50, Type (0, 0), BuildingBlock: OJICUG_clean_linker_0, # of connection points: 2
#     Edge 51, Type (0, 0), BuildingBlock: OJICUG_clean_linker_0, # of connection points: 2
#     Edge 52, Type (0, 0), BuildingBlock: OJICUG_clean_linker_0, # of connection points: 2
#     Edge 53, Type (0, 0), BuildingBlock: OJICUG_clean_linker_0, # of connection points: 2
#     Edge 54, Type (0, 0), BuildingBlock: OJICUG_clean_linker_0, # of connection points: 2
#     Edge 55, Type (0, 0), BuildingBlock: OJICUG_clean_linker_0, # of connection points: 2
#     Edge 56, Type (0, 0), BuildingBlock: OJICUG_clean_linker_0, # of connection points: 2
#     Edge 57, Type (0, 0), BuildingBlock: OJICUG_clean_linker_0, # of connection points: 2
#     Edge 58, Type (0, 0), BuildingBlock: OJICUG_clean_linker_0, # of connection points: 2
#     Edge 59, Type (0, 0), BuildingBlock: OJICUG_clean_linker_0, # of connection points: 2
#     Edge 60, Type (0, 0), BuildingBlock: OJICUG_clean_linker_0, # of connection points: 2
#     Edge 61, Type (0, 0), BuildingBlock: OJICUG_clean_linker_0, # of connection points: 2
#     Edge 62, Type (0, 0), BuildingBlock: OJICUG_clean_linker_0, # of connection points: 2
#     Edge 63, Type (0, 0), BuildingBlock: OJICUG_clean_linker_0, # of connection points: 2
#     Edge 64, Type (0, 0), BuildingBlock: OJICUG_clean_linker_0, # of connection points: 2
#     Edge 65, Type (0, 0), BuildingBlock: OJICUG_clean_linker_0, # of connection points: 2
#     Edge 66, Type (0, 0), BuildingBlock: OJICUG_clean_linker_0, # of connection points: 2
#     Edge 67, Type (0, 0), BuildingBlock: OJICUG_clean_linker_0, # of connection points: 2
#     Edge 68, Type (0, 0), BuildingBlock: OJICUG_clean_linker_0, # of connection points: 2
#     Edge 69, Type (0, 0), BuildingBlock: OJICUG_clean_linker_0, # of connection points: 2
#     Edge 70, Type (0, 0), BuildingBlock: OJICUG_clean_linker_0, # of connection points: 2
#     Edge 71, Type (0, 0), BuildingBlock: OJICUG_clean_linker_0, # of connection points: 2
#     Edge 72, Type (0, 0), BuildingBlock: OJICUG_clean_linker_0, # of connection points: 2
#     Edge 73, Type (0, 0), BuildingBlock: OJICUG_clean_linker_0, # of connection points: 2
#     Edge 74, Type (0, 0), BuildingBlock: OJICUG_clean_linker_0, # of connection points: 2
#     Edge 75, Type (0, 0), BuildingBlock: OJICUG_clean_linker_0, # of connection points: 2
#     Edge 76, Type (0, 0), BuildingBlock: OJICUG_clean_linker_0, # of connection points: 2
#     Edge 77, Type (0, 0), BuildingBlock: OJICUG_clean_linker_0, # of connection points: 2
#     Edge 78, Type (0, 0), BuildingBlock: OJICUG_clean_linker_0, # of connection points: 2
#     Edge 79, Type (0, 0), BuildingBlock: OJICUG_clean_linker_0, # of connection points: 2
#     Edge 80, Type (0, 0), BuildingBlock: OJICUG_clean_linker_0, # of connection points: 2
#     Edge 81, Type (0, 0), BuildingBlock: OJICUG_clean_linker_0, # of connection points: 2
#     Edge 82, Type (0, 0), BuildingBlock: OJICUG_clean_linker_0, # of connection points: 2
#     Edge 83, Type (0, 0), BuildingBlock: OJICUG_clean_linker_0, # of connection points: 2
#     Edge 84, Type (0, 0), BuildingBlock: OJICUG_clean_linker_0, # of connection points: 2
#     Edge 85, Type (0, 0), BuildingBlock: OJICUG_clean_linker_0, # of connection points: 2
#     Edge 86, Type (0, 0), BuildingBlock: OJICUG_clean_linker_0, # of connection points: 2
#     Edge 87, Type (0, 0), BuildingBlock: OJICUG_clean_linker_0, # of connection points: 2
#     Edge 88, Type (0, 0), BuildingBlock: OJICUG_clean_linker_0, # of connection points: 2
#     Edge 89, Type (0, 0), BuildingBlock: OJICUG_clean_linker_0, # of connection points: 2
#     Edge 90, Type (0, 0), BuildingBlock: OJICUG_clean_linker_0, # of connection points: 2
#     Edge 91, Type (0, 0), BuildingBlock: OJICUG_clean_linker_0, # of connection points: 2
#     Edge 92, Type (0, 0), BuildingBlock: OJICUG_clean_linker_0, # of connection points: 2
#     Edge 93, Type (0, 0), BuildingBlock: OJICUG_clean_linker_0, # of connection points: 2
#     Edge 94, Type (0, 0), BuildingBlock: OJICUG_clean_linker_0, # of connection points: 2
#     Edge 95, Type (0, 0), BuildingBlock: OJICUG_clean_linker_0, # of connection points: 2
#     Edge 96, Type (0, 0), BuildingBlock: OJICUG_clean_linker_0, # of connection points: 2
#     Edge 97, Type (0, 0), BuildingBlock: OJICUG_clean_linker_0, # of connection points: 2
#     Edge 98, Type (0, 0), BuildingBlock: OJICUG_clean_linker_0, # of connection points: 2
#     Edge 99, Type (0, 0), BuildingBlock: OJICUG_clean_linker_0, # of connection points: 2
#     Edge 100, Type (0, 0), BuildingBlock: OJICUG_clean_linker_0, # of connection points: 2
#     Edge 101, Type (0, 0), BuildingBlock: OJICUG_clean_linker_0, # of connection points: 2
#     Edge 102, Type (0, 0), BuildingBlock: OJICUG_clean_linker_0, # of connection points: 2
#     Edge 103, Type (0, 0), BuildingBlock: OJICUG_clean_linker_0, # of connection points: 2
#     Edge 104, Type (0, 0), BuildingBlock: OJICUG_clean_linker_0, # of connection points: 2
#     Edge 105, Type (0, 0), BuildingBlock: OJICUG_clean_linker_0, # of connection points: 2
#     Edge 106, Type (0, 0), BuildingBlock: OJICUG_clean_linker_0, # of connection points: 2
#     Edge 107, Type (0, 0), BuildingBlock: OJICUG_clean_linker_0, # of connection points: 2
#     Edge 108, Type (0, 0), BuildingBlock: OJICUG_clean_linker_0, # of connection points: 2
#     Edge 109, Type (0, 0), BuildingBlock: OJICUG_clean_linker_0, # of connection points: 2
#     Edge 110, Type (0, 0), BuildingBlock: OJICUG_clean_linker_0, # of connection points: 2
#     Edge 111, Type (0, 0), BuildingBlock: OJICUG_clean_linker_0, # of connection points: 2
#     Edge 112, Type (0, 0), BuildingBlock: OJICUG_clean_linker_0, # of connection points: 2
#     Edge 113, Type (0, 0), BuildingBlock: OJICUG_clean_linker_0, # of connection points: 2
#     Edge 114, Type (0, 0), BuildingBlock: OJICUG_clean_linker_0, # of connection points: 2
#     Edge 115, Type (0, 0), BuildingBlock: OJICUG_clean_linker_0, # of connection points: 2
#     Edge 116, Type (0, 0), BuildingBlock: OJICUG_clean_linker_0, # of connection points: 2
#     Edge 117, Type (0, 0), BuildingBlock: OJICUG_clean_linker_0, # of connection points: 2
#     Edge 118, Type (0, 0), BuildingBlock: OJICUG_clean_linker_0, # of connection points: 2
#     Edge 119, Type (0, 0), BuildingBlock: OJICUG_clean_linker_0, # of connection points: 2
#     Edge 120, Type (0, 0), BuildingBlock: OJICUG_clean_linker_0, # of connection points: 2
#     Edge 121, Type (0, 0), BuildingBlock: OJICUG_clean_linker_0, # of connection points: 2
#     Edge 122, Type (0, 0), BuildingBlock: OJICUG_clean_linker_0, # of connection points: 2
#     Edge 123, Type (0, 0), BuildingBlock: OJICUG_clean_linker_0, # of connection points: 2
#     Edge 124, Type (0, 0), BuildingBlock: OJICUG_clean_linker_0, # of connection points: 2
#     Edge 125, Type (0, 0), BuildingBlock: OJICUG_clean_linker_0, # of connection points: 2
#     Edge 126, Type (0, 0), BuildingBlock: OJICUG_clean_linker_0, # of connection points: 2
#     Edge 127, Type (0, 0), BuildingBlock: OJICUG_clean_linker_0, # of connection points: 2
# Relax obj value: 0.576
# Max RMSD: 0.209
# Mean RMSD: 0.209
data_MOF--net-wir--node1-INOVEN_clean_sbu_0--edge1-OJICUG_clean_linker_0
_symmetry_space_group_name_H-M    P1
_symmetry_Int_Tables_number       1
_symmetry_cell_setting            triclinic
loop_
_symmetry_equiv_pos_as_xyz
'x, y, z'
_cell_length_a     29.374868
_cell_length_b     29.507405
_cell_length_c     80.630984
_cell_angle_alpha  90.041712
_cell_angle_beta   90.13628
_cell_angle_gamma 90.036674
loop_
_atom_site_label
_atom_site_type_symbol
_atom_site_fract_x
_atom_site_fract_y
_atom_site_fract_z
_atom_type_partial_charge
Gd0 Gd 0.27974 0.26852 0.44749 0.0
Gd1 Gd 0.24391 0.21951 0.44191 0.0
C2 C 0.22326 0.25687 0.477 0.0
C3 C 0.33078 0.33821 0.45247 0.0
C4 C 0.31663 0.38476 0.44894 0.0
C5 C 0.32658 0.41822 0.46069 0.0
C6 C 0.27853 0.39036 0.43849 0.0
C7 C 0.24985 0.44652 0.45735 0.0
C8 C 0.24473 0.42118 0.44283 0.0
C9 C 0.29325 0.45008 0.46466 0.0
C10 C 0.31725 0.19643 0.47439 0.0
C11 C 0.28478 0.27211 0.40789 0.0
C12 C 0.2228 0.13919 0.43169 0.0
C13 C 0.18576 0.12242 0.42112 0.0
C14 C 0.15961 0.08531 0.42631 0.0
C15 C 0.17475 0.14443 0.40626 0.0
C16 C 0.11662 0.08773 0.40051 0.0
C17 C 0.14071 0.12718 0.39603 0.0
C18 C 0.12503 0.06827 0.41615 0.0
C19 C 0.16174 0.27069 0.44233 0.0
O20 O 0.24037 0.29157 0.46949 0.0
O21 O 0.22542 0.21847 0.46904 0.0
O22 O 0.30698 0.31917 0.46424 0.0
O23 O 0.33526 0.31201 0.43954 0.0
O24 O 0.31283 0.20232 0.45802 0.0
O25 O 0.31176 0.20376 0.45794 0.0
O26 O 0.25342 0.24233 0.4129 0.0
O27 O 0.30614 0.28724 0.42094 0.0
O28 O 0.20965 0.15555 0.44583 0.0
O29 O 0.25423 0.16396 0.42466 0.0
O30 O 0.16699 0.22807 0.44545 0.0
O31 O 0.20313 0.28623 0.43918 0.0
H32 H 0.35604 0.41493 0.46872 0.0
H33 H 0.27051 0.36552 0.42904 0.0
H34 H 0.21175 0.41859 0.43684 0.0
H35 H 0.29798 0.47037 0.47575 0.0
H36 H 0.16672 0.06881 0.43804 0.0
H37 H 0.19348 0.17405 0.40223 0.0
H38 H 0.13589 0.14304 0.38405 0.0
H39 H 0.10666 1.03837 0.42012 0.0
Gd40 Gd 0.11261 1.02888 0.69208 0.0
Gd41 Gd 0.15312 0.9999 0.68393 0.0
C42 C 0.15186 0.96592 0.71802 0.0
C43 C 1.03726 0.06804 0.70056 0.0
C44 C 0.99258 1.04621 0.70063 0.0
C45 C 0.96268 1.0557 0.71364 0.0
C46 C 0.98735 1.0058 0.69154 0.0
C47 C 0.93623 0.97796 0.71252 0.0
C48 C 0.95938 0.97146 0.69759 0.0
C49 C 0.93401 1.02159 0.71948 0.0
C50 C 0.18432 0.06578 0.71921 0.0
C51 C 0.09752 1.03935 0.65327 0.0
C52 C 0.21444 1.01612 0.66192 0.0
C53 C 0.208 1.02439 0.64398 0.0
C54 C 0.20105 0.9886 0.63282 0.0
C55 C 0.20231 0.06922 0.63836 0.0
C56 C 0.18275 1.04245 0.61079 0.0
C57 C 0.18897 0.07806 0.62211 0.0
C58 C 0.18893 0.99753 0.61638 0.0
C59 C 0.10962 0.91371 0.68569 0.0
O60 O 0.11203 0.9831 0.71451 0.0
O61 O 0.18295 0.97062 0.70668 0.0
O62 O 0.06549 1.05037 0.71116 0.0
O63 O 1.05584 0.07351 0.6861 0.0
O64 O 0.17655 0.06473 0.70292 0.0
O65 O 0.17466 0.06308 0.70279 0.0
O66 O 0.10907 0.99918 0.65883 0.0
O67 O 0.10412 0.06672 0.66589 0.0
O68 O 0.2072 0.97528 0.6677 0.0
O69 O 0.19631 1.04736 0.67119 0.0
O70 O 0.15356 0.92155 0.68639 0.0
O71 O 0.09024 0.95399 0.68457 0.0
H72 H 0.9661 0.08672 0.72073 0.0
H73 H 1.00969 0.99818 0.68124 0.0
H74 H 0.96106 0.93814 0.69201 0.0
H75 H 0.91603 1.0271 0.73103 0.0
H76 H 0.2047 0.95372 0.63677 0.0
H77 H 0.20687 0.0977 0.64669 0.0
H78 H 0.18407 0.11298 0.6184 0.0
H79 H 0.18585 0.9691 0.60796 0.0
Gd80 Gd 0.33967 0.85893 0.9484 0.0
Gd81 Gd 0.36812 0.90042 0.94041 0.0
C82 C 0.40254 0.89815 0.97457 0.0
C83 C 0.30323 0.78254 0.95643 0.0
C84 C 0.32745 0.7398 0.95386 0.0
C85 C 0.32647 0.70669 0.96624 0.0
C86 C 0.36286 0.73939 0.94211 0.0
C87 C 0.40324 0.6846 0.95867 0.0
C88 C 0.40086 0.71203 0.94459 0.0
C89 C 0.36422 0.67863 0.96851 0.0
C90 C 0.30143 0.92789 0.97577 0.0
C91 C 0.3308 0.84436 0.90948 0.0
C92 C 0.35055 0.96146 0.91853 0.0
C93 C 0.34496 0.95598 0.90042 0.0
C94 C 0.38258 0.95027 0.88995 0.0
C95 C 0.30089 0.95028 0.89382 0.0
C96 C 0.33201 0.93417 0.8666 0.0
C97 C 0.29454 0.93875 0.87723 0.0
C98 C 0.37617 0.93977 0.87321 0.0
C99 C 0.45482 0.8584 0.942 0.0
O100 O 0.38547 0.85851 0.97094 0.0
O101 O 0.39729 0.92954 0.96339 0.0
O102 O 0.32314 0.80886 0.96715 0.0
O103 O 0.29195 0.80429 0.94301 0.0
O104 O 0.30317 0.9217 0.95942 0.0
O105 O 0.30472 0.91993 0.95929 0.0
O106 O 0.37058 0.85765 0.91513 0.0
O107 O 0.30289 0.84904 0.92205 0.0
O108 O 0.39126 0.95663 0.92499 0.0
O109 O 0.31921 0.94073 0.92707 0.0
O110 O 0.44663 0.90202 0.9428 0.0
O111 O 0.41479 0.83845 0.94073 0.0
H112 H 0.29961 0.70656 0.97543 0.0
H113 H 0.36398 0.76425 0.93225 0.0
H114 H 0.43032 0.71645 0.93672 0.0
H115 H 0.36562 0.65751 0.9795 0.0
H116 H 0.41696 0.9538 0.89467 0.0
H117 H 0.2711 0.95376 0.90162 0.0
H118 H 0.26013 0.93424 0.87267 0.0
H119 H 0.40594 0.93771 0.86536 0.0
Gd120 Gd 0.52606 0.08993 0.19345 0.0
Gd121 Gd 0.4747 0.12256 0.18628 0.0
C122 C 0.5012 0.1485 0.2218 0.0
C123 C 0.59934 1.04889 0.20239 0.0
C124 C 0.64392 0.07103 0.20187 0.0
C125 C 0.67242 0.06696 0.21572 0.0
C126 C 0.64817 0.10925 0.19152 0.0
C127 C 0.69395 0.14578 0.21244 0.0
C128 C 0.67268 0.14691 0.19695 0.0
C129 C 0.69773 0.10438 0.22095 0.0
C130 C 0.45124 1.04953 0.21852 0.0
C131 C 0.53233 0.07993 0.15383 0.0
C132 C 0.39672 0.14365 0.17355 0.0
C133 C 0.38517 0.18429 0.16407 0.0
C134 C 0.41995 0.2127 0.15821 0.0
C135 C 0.33973 0.19626 0.16152 0.0
C136 C 0.3639 0.2619 0.14538 0.0
C137 C 0.3291 0.23466 0.1522 0.0
C138 C 0.40942 0.2515 0.14914 0.0
C139 C 0.5252 0.20561 0.18754 0.0
O140 O 0.53909 0.13477 0.21535 0.0
O141 O 0.46479 0.14212 0.2129 0.0
O142 O 0.57178 0.06799 0.21294 0.0
O143 O 0.57992 1.04148 0.18807 0.0
O144 O 0.45983 1.0532 0.2023 0.0
O145 O 0.4612 1.05433 0.20223 0.0
O146 O 0.49999 0.10952 0.15795 0.0
O147 O 0.54873 0.06184 0.16739 0.0
O148 O 0.40747 0.15161 0.18888 0.0
O149 O 0.42484 0.11546 0.16648 0.0
O150 O 0.48272 0.19925 0.19088 0.0
O151 O 0.54107 0.16497 0.18402 0.0
H152 H 0.66959 1.03791 0.22386 0.0
H153 H 0.62664 0.11308 0.18068 0.0
H154 H 0.66976 0.17847 0.1902 0.0
H155 H 0.71419 0.10307 0.23299 0.0
H156 H 0.45536 0.20415 0.16021 0.0
H157 H 0.31253 0.17511 0.16625 0.0
H158 H 0.29361 0.24093 0.14936 0.0
H159 H 0.43699 0.27177 0.1442 0.0
Gd160 Gd 0.28029 0.84481 0.28951 0.0
Gd161 Gd 0.24658 0.89614 0.29583 0.0
C162 C 0.22241 0.86605 0.26049 0.0
C163 C 0.32146 0.7708 0.28215 0.0
C164 C 0.29904 0.72691 0.28479 0.0
C165 C 0.29781 0.69588 0.27166 0.0
C166 C 0.26491 0.72488 0.29705 0.0
C167 C 0.22089 0.67504 0.27956 0.0
C168 C 0.22557 0.69953 0.29429 0.0
C169 C 0.25882 0.66964 0.26912 0.0
C170 C 0.32111 0.91745 0.26361 0.0
C171 C 0.28949 0.84252 0.32916 0.0
C172 C 0.22554 0.97516 0.30744 0.0
C173 C 0.18769 0.98818 0.31814 0.0
C174 C 0.15832 0.95481 0.3244 0.0
C175 C 0.18043 1.03366 0.32209 0.0
C176 C 0.11844 1.01177 0.34046 0.0
C177 C 0.14606 1.04544 0.33319 0.0
C178 C 0.12367 0.96655 0.33536 0.0
C179 C 0.16427 0.84394 0.29517 0.0
O180 O 0.23629 0.82917 0.26754 0.0
O181 O 0.22832 0.90321 0.26892 0.0
O182 O 0.30094 0.79558 0.27102 0.0
O183 O 0.33123 0.7938 0.29553 0.0
O184 O 0.31641 0.91047 0.27989 0.0
O185 O 0.31531 0.90911 0.27998 0.0
O186 O 0.25905 0.87358 0.32453 0.0
O187 O 0.30847 0.82553 0.31589 0.0
O188 O 0.21329 0.96097 0.29287 0.0
O189 O 0.25643 0.94926 0.31418 0.0
O190 O 0.16983 0.88591 0.2911 0.0
O191 O 0.20531 0.82965 0.29921 0.0
H192 H 0.32354 0.69691 0.26206 0.0
H193 H 0.26506 0.74821 0.30742 0.0
H194 H 0.19684 0.70378 0.30253 0.0
H195 H 0.25566 0.65078 0.25763 0.0
H196 H 0.1633 0.91945 0.32133 0.0
H197 H 0.20248 0.05979 0.31714 0.0
H198 H 0.14361 0.08054 0.33703 0.0
H199 H 0.1029 0.93993 0.34068 0.0
Gd200 Gd 0.51948 1.02919 0.54745 0.0
Gd201 Gd 0.47073 0.99501 0.55406 0.0
C202 C 0.49958 0.97094 0.51867 0.0
C203 C 0.59048 0.07713 0.54057 0.0
C204 C 0.63754 0.06157 0.54113 0.0
C205 C 0.66824 0.07983 0.52974 0.0
C206 C 0.64532 1.01804 0.54763 0.0
C207 C 0.69817 1.00443 0.52544 0.0
C208 C 0.67565 0.98911 0.53964 0.0
C209 C 0.69954 1.0512 0.52209 0.0
C210 C 0.44639 0.06654 0.52093 0.0
C211 C 0.52516 1.037 0.58709 0.0
C212 C 0.38902 0.98256 0.56471 0.0
C213 C 0.34343 0.99212 0.5583 0.0
C214 C 0.30842 0.96179 0.56193 0.0
C215 C 0.33369 1.03193 0.54946 0.0
C216 C 0.25299 1.01837 0.55354 0.0
C217 C 0.28845 1.04459 0.54676 0.0
C218 C 0.2634 0.9744 0.5593 0.0
C219 C 0.52112 0.913 0.55283 0.0
O220 O 0.53657 0.98643 0.52541 0.0
O221 O 0.46251 0.97552 0.52733 0.0
O222 O 0.56626 1.05627 0.52933 0.0
O223 O 0.56974 0.07947 0.5548 0.0
O224 O 0.4531 0.06298 0.5373 0.0
O225 O 0.45465 0.06178 0.53736 0.0
O226 O 0.49721 1.00373 0.5825 0.0
O227 O 0.53751 1.05903 0.57378 0.0
O228 O 0.41396 1.01732 0.56908 0.0
O229 O 0.4116 0.95199 0.55661 0.0
O230 O 0.47825 0.91866 0.54972 0.0
O231 O 0.53731 0.95382 0.55619 0.0
H232 H 0.66308 0.11354 0.52476 0.0
H233 H 0.62223 1.0037 0.55669 0.0
H234 H 0.67481 0.95331 0.54263 0.0
H235 H 0.71779 0.06371 0.51135 0.0
H236 H 0.31561 0.92997 0.56812 0.0
H237 H 0.36064 1.05489 0.54584 0.0
H238 H 0.28157 0.07772 0.54154 0.0
H239 H 0.23738 0.95215 0.56417 0.0
Gd240 Gd 0.35457 0.26984 0.79163 0.0
Gd241 Gd 0.38928 0.22077 0.79784 0.0
C242 C 0.41138 0.25046 0.76237 0.0
C243 C 0.31085 0.34296 0.78491 0.0
C244 C 0.33164 0.38748 0.78777 0.0
C245 C 0.32907 0.41999 0.77518 0.0
C246 C 0.36777 0.38961 0.79929 0.0
C247 C 0.40653 0.44278 0.78159 0.0
C248 C 0.40555 0.4167 0.79603 0.0
C249 C 0.36641 0.44811 0.77222 0.0
C250 C 0.31408 0.19783 0.76526 0.0
C251 C 0.34647 0.27365 0.83115 0.0
C252 C 0.40393 0.13998 0.80903 0.0
C253 C 0.392 0.09307 0.80508 0.0
C254 C 0.42179 1.05888 0.81008 0.0
C255 C 0.34948 0.08155 0.79832 0.0
C256 C 0.36111 1.0035 0.80701 0.0
C257 C 0.33433 1.03666 0.79905 0.0
C258 C 0.40672 1.01425 0.81088 0.0
C259 C 0.47112 0.27303 0.79706 0.0
O260 O 0.39675 0.28695 0.76948 0.0
O261 O 0.40679 0.2132 0.77085 0.0
O262 O 0.3319 0.31941 0.77358 0.0
O263 O 0.30256 0.31915 0.7982 0.0
O264 O 0.31977 0.20385 0.78158 0.0
O265 O 0.32089 0.20531 0.78167 0.0
O266 O 0.37973 0.24582 0.82643 0.0
O267 O 0.32458 0.28704 0.81791 0.0
O268 O 0.3711 0.16601 0.81435 0.0
O269 O 0.43102 0.16028 0.79874 0.0
O270 O 0.46584 0.23084 0.79307 0.0
O271 O 0.42991 0.28734 0.80101 0.0
H272 H 0.30167 0.41891 0.76617 0.0
H273 H 0.37044 0.36509 0.80923 0.0
H274 H 0.43603 0.4124 0.80344 0.0
H275 H 0.36669 0.46824 0.76098 0.0
H276 H 0.45527 0.0672 0.81489 0.0
H277 H 0.32659 0.10758 0.79383 0.0
H278 H 0.29972 1.02924 0.79527 0.0
H279 H 0.42911 0.98993 0.81675 0.0
Gd280 Gd 0.09701 0.09639 1.04705 0.0
Gd281 Gd 0.14868 0.1294 1.05396 0.0
C282 C 0.11963 0.15496 1.01851 0.0
C283 C 1.02391 1.05362 1.03897 0.0
C284 C 0.97897 0.07487 1.03989 0.0
C285 C 0.94952 0.06971 1.02636 0.0
C286 C 0.97524 0.11379 1.04993 0.0
C287 C 0.92963 0.14915 1.02874 0.0
C288 C 0.9511 0.15129 1.04419 0.0
C289 C 0.92439 0.10691 1.02086 0.0
C290 C 0.17104 1.05647 1.02169 0.0
C291 C 0.09294 0.08655 1.0868 0.0
C292 C 0.22851 0.1502 1.06504 0.0
C293 C 0.24487 0.19139 1.07343 0.0
C294 C 0.27821 0.21845 1.06588 0.0
C295 C 0.22597 0.20532 1.08854 0.0
C296 C 0.2792 0.26858 1.08984 0.0
C297 C 0.24296 0.24338 1.09666 0.0
C298 C 0.2949 0.25701 1.07392 0.0
C299 C 0.0987 0.2127 1.05282 0.0
O300 O 0.08228 0.13998 1.02501 0.0
O301 O 0.15638 0.14957 1.02731 0.0
O302 O 1.0503 0.07299 1.02808 0.0
O303 O 1.04452 1.04703 1.05311 0.0
O304 O 0.16313 0.06018 1.03795 0.0
O305 O 0.16177 0.06129 1.03802 0.0
O306 O 0.12601 0.11521 1.08252 0.0
O307 O 0.07483 0.06962 1.07332 0.0
O308 O 0.21627 0.15604 1.04973 0.0
O309 O 0.20045 0.12402 1.07315 0.0
O310 O 0.14168 0.20646 1.05045 0.0
O311 O 0.08205 0.172 1.05577 0.0
H312 H 0.95174 1.03999 1.0185 0.0
H313 H 0.99728 0.11836 1.0606 0.0
H314 H 0.95496 0.18342 1.05052 0.0
H315 H 0.90755 0.10474 1.00891 0.0
H316 H 0.29225 0.20907 1.05394 0.0
H317 H 0.19918 0.18596 1.09443 0.0
H318 H 0.22992 0.25052 1.10893 0.0
H319 H 0.32214 0.276 1.06815 0.0
Gd320 Gd 0.87503 0.90098 0.80487 0.0
Gd321 Gd 0.84268 0.84958 0.79673 0.0
C322 C 0.82959 0.84362 0.83656 0.0
C323 C 0.87796 0.97762 0.8201 0.0
C324 C 0.84842 0.98813 0.83435 0.0
C325 C 0.8674 0.98754 0.8503 0.0
C326 C 0.80054 0.98804 0.8326 0.0
C327 C 0.79195 0.98023 0.8623 0.0
C328 C 0.77248 0.98452 0.84654 0.0
C329 C 0.83948 0.98332 0.86411 0.0
C330 C 0.95863 0.85138 0.80262 0.0
C331 C 0.9047 0.87965 0.76934 0.0
C332 C 0.80036 0.77708 0.78763 0.0
C333 C 0.81978 0.7316 0.78832 0.0
C334 C 0.80931 0.70148 0.77548 0.0
C335 C 0.86104 0.72666 0.79704 0.0
C336 C 0.88821 0.67787 0.77528 0.0
C337 C 0.89565 0.7001 0.79036 0.0
C338 C 0.84359 0.67393 0.76908 0.0
C339 C 0.80465 0.92514 0.77161 0.0
O340 O 0.85784 0.87705 0.8328 0.0
O341 O 0.81411 0.82575 0.82277 0.0
O342 O 0.90751 0.94563 0.82274 0.0
O343 O 0.85775 0.97281 0.80586 0.0
O344 O 0.95217 0.89436 0.79975 0.0
O345 O 0.91791 0.83482 0.80597 0.0
O346 O 0.88665 0.84177 0.7743 0.0
O347 O 0.90243 0.91412 0.77946 0.0
O348 O 0.82181 0.80346 0.7773 0.0
O349 O 0.79315 0.79662 0.80188 0.0
O350 O 0.80615 0.91529 0.78778 0.0
O351 O 0.80751 0.91373 0.78786 0.0
H352 H 0.904 0.98742 0.85203 0.0
H353 H 0.78473 0.98828 0.82046 0.0
H354 H 0.73586 0.98356 0.84497 0.0
H355 H 0.85515 0.98185 0.87629 0.0
H356 H 0.7776 0.70464 0.76868 0.0
H357 H 0.86953 0.74941 0.80714 0.0
H358 H 0.92977 0.70321 0.79536 0.0
H359 H 0.83732 0.6564 0.75747 0.0
Gd360 Gd 0.97801 0.12889 0.54966 0.0
Gd361 Gd 1.01861 0.09947 0.5419 0.0
C362 C 1.03238 0.08968 0.58074 0.0
C363 C 0.91596 0.11392 0.57157 0.0
C364 C 0.9215 0.10537 0.58957 0.0
C365 C 0.92655 0.14095 0.60097 0.0
C366 C 0.92709 0.06049 0.59516 0.0
C367 C 0.94187 0.08673 0.62321 0.0
C368 C 0.93799 1.05138 0.61164 0.0
C369 C 0.93631 0.13172 0.61762 0.0
C370 C 1.02173 0.21464 0.54752 0.0
C371 C 0.98136 0.16127 0.51522 0.0
C372 C 0.09491 0.06198 0.53422 0.0
C373 C 0.13787 0.08633 0.53654 0.0
C374 C 0.17057 0.08537 0.52397 0.0
C375 C 0.1388 0.12163 0.54831 0.0
C376 C 0.19296 0.16191 0.53147 0.0
C377 C 0.16629 0.15941 0.54575 0.0
C378 C 0.19859 0.12302 0.52157 0.0
C379 C 0.94987 0.06054 0.51445 0.0
O380 O 1.02121 0.12979 0.57499 0.0
O381 O 1.02627 0.06209 0.56816 0.0
O382 O 0.9242 0.15461 0.56583 0.0
O383 O 0.93355 0.08238 0.5623 0.0
O384 O 0.97781 0.20696 0.54652 0.0
O385 O 1.04091 0.17447 0.54922 0.0
O386 O 1.02064 0.14351 0.51905 0.0
O387 O 0.94968 0.15755 0.52641 0.0
O388 O 0.06848 0.08083 0.52329 0.0
O389 O 0.07308 1.05196 0.54775 0.0
O390 O 0.95507 0.06386 0.53081 0.0
O391 O 0.95685 0.06533 0.53098 0.0
H392 H 0.92294 0.17587 0.59706 0.0
H393 H 0.92401 1.03212 0.5867 0.0
H394 H 0.94268 1.01642 0.61533 0.0
H395 H 0.93787 0.15993 0.6262 0.0
H396 H 0.17032 1.05858 0.51478 0.0
H397 H 0.11436 0.12272 0.55833 0.0
H398 H 0.16243 0.18862 0.55373 0.0
H399 H 0.21921 0.12445 0.51045 0.0
Gd400 Gd 0.74405 0.22248 0.30333 0.0
Gd401 Gd 0.77662 0.27231 0.2961 0.0
C402 C 0.7869 0.27911 0.33569 0.0
C403 C 0.73377 0.14158 0.31483 0.0
C404 C 0.7438 0.09593 0.30879 0.0
C405 C 0.71406 0.06086 0.31292 0.0
C406 C 0.78333 0.08633 0.29968 0.0
C407 C 0.77019 1.00582 0.30378 0.0
C408 C 0.79617 1.04134 0.29696 0.0
C409 C 0.72679 1.01609 0.31025 0.0
C410 C 0.66064 0.27151 0.30214 0.0
C411 C 0.71767 0.24695 0.26782 0.0
C412 C 0.81732 0.34581 0.28743 0.0
C413 C 0.79472 0.38997 0.28808 0.0
C414 C 0.79911 0.419 0.27446 0.0
C415 C 0.75611 0.39365 0.29833 0.0
C416 C 0.71998 0.44053 0.2777 0.0
C417 C 0.71847 0.41843 0.29299 0.0
C418 C 0.76174 0.44464 0.26935 0.0
C419 C 0.81663 0.19928 0.27026 0.0
O420 O 0.75423 0.24997 0.3315 0.0
O421 O 0.80762 0.29216 0.32215 0.0
O422 O 0.76846 0.16732 0.31867 0.0
O423 O 0.70216 0.16298 0.30675 0.0
O424 O 0.66702 0.22896 0.29897 0.0
O425 O 0.7014 0.28809 0.30548 0.0
O426 O 0.73128 0.28489 0.27424 0.0
O427 O 0.7245 0.21091 0.27677 0.0
O428 O 0.7984 0.31836 0.27678 0.0
O429 O 0.82484 0.32632 0.30168 0.0
O430 O 0.81262 0.20667 0.28655 0.0
O431 O 0.81141 0.20814 0.28662 0.0
H432 H 0.68257 0.0679 0.31941 0.0
H433 H 0.80584 0.1133 0.29575 0.0
H434 H 0.82899 1.03459 0.29138 0.0
H435 H 0.70501 0.99007 0.31539 0.0
H436 H 0.82845 0.41657 0.26639 0.0
H437 H 0.75205 0.37169 0.30899 0.0
H438 H 0.68664 0.41529 0.29962 0.0
H439 H 0.76335 0.46171 0.25746 0.0
Gd440 Gd 0.6584 0.99131 1.0477 0.0
Gd441 Gd 0.60994 1.0271 1.0421 0.0
C442 C 0.60494 1.03187 1.08158 0.0
C443 C 0.73748 0.96898 1.05896 0.0
C444 C 0.7504 0.93209 1.07029 0.0
C445 C 0.77837 0.89666 1.06469 0.0
C446 C 0.73216 0.92998 1.08631 0.0
C447 C 0.77328 0.85979 1.09161 0.0
C448 C 0.74349 0.89445 1.09682 0.0
C449 C 0.78956 0.8607 1.07522 0.0
C450 C 0.60718 0.90956 1.04684 0.0
C451 C 0.62215 0.97192 1.01232 0.0
C452 C 0.54079 0.07897 1.03705 0.0
C453 C 0.49358 0.06611 1.04027 0.0
C454 C 0.46025 0.07935 1.02886 0.0
C455 C 0.48643 1.02705 1.04994 0.0
C456 C 0.4281 1.00409 1.03076 0.0
C457 C 0.45355 0.99571 1.04509 0.0
C458 C 0.42645 1.04843 1.02438 0.0
C459 C 0.68184 0.06566 1.01555 0.0
O460 O 0.63438 1.00026 1.07658 0.0
O461 O 0.59051 1.05356 1.06854 0.0
O462 O 0.72212 0.95559 1.04466 0.0
O463 O 0.71371 1.00244 1.06514 0.0
O464 O 0.64994 0.91496 1.0437 0.0
O465 O 0.59139 0.95068 1.05006 0.0
O466 O 0.5871 0.98866 1.0198 0.0
O467 O 0.66051 0.97385 1.02047 0.0
O468 O 0.5597 1.055 1.0253 0.0
O469 O 0.56668 0.08253 1.05015 0.0
O470 O 0.67673 0.05987 1.03188 0.0
O471 O 0.67536 1.05889 1.03196 0.0
H472 H 0.79194 0.89707 1.0522 0.0
H473 H 0.70976 0.95624 1.09092 0.0
H474 H 0.73088 0.89602 1.10941 0.0
H475 H 0.8123 0.83457 1.07074 0.0
H476 H 0.4648 0.10963 1.02145 0.0
H477 H 0.51133 1.01654 1.05909 0.0
H478 H 0.45463 0.96198 1.0504 0.0
H479 H 0.40603 1.05571 1.01348 0.0
Gd480 Gd 0.88415 0.21618 0.93641 0.0
Gd481 Gd 0.85188 0.26532 0.94298 0.0
C482 C 0.84483 0.27023 0.90346 0.0
C483 C 0.88353 0.1354 0.92417 0.0
C484 C 0.85498 0.09534 0.92708 0.0
C485 C 0.87164 1.05261 0.92286 0.0
C486 C 0.80907 0.09996 0.93168 0.0
C487 C 0.79405 1.02343 0.92227 0.0
C488 C 0.77889 0.06382 0.92963 0.0
C489 C 0.84148 1.01661 0.92066 0.0
C490 C 0.96857 0.2632 0.93672 0.0
C491 C 0.91263 0.24331 0.97139 0.0
C492 C 0.81055 0.33987 0.94999 0.0
C493 C 0.83298 0.38405 0.94902 0.0
C494 C 0.82542 0.4157 0.96164 0.0
C495 C 0.87285 0.38707 0.93943 0.0
C496 C 0.90384 0.44037 0.95909 0.0
C497 C 0.90849 0.4149 0.94459 0.0
C498 C 0.86079 0.44436 0.96654 0.0
C499 C 0.81401 0.19317 0.96972 0.0
O500 O 0.88015 0.24564 0.9084 0.0
O501 O 0.82013 0.27936 0.91653 0.0
O502 O 0.86262 0.1697 0.91731 0.0
O503 O 0.91096 0.14745 0.9361 0.0
O504 O 0.96208 0.22002 0.93876 0.0
O505 O 0.9279 0.28113 0.93461 0.0
O506 O 0.89585 0.28002 0.96502 0.0
O507 O 0.90822 0.20665 0.96254 0.0
O508 O 0.82828 0.31366 0.96127 0.0
O509 O 0.80478 0.31889 0.93591 0.0
O510 O 0.81575 0.20113 0.95343 0.0
O511 O 0.81714 0.20271 0.95338 0.0
H512 H 0.90715 1.04815 0.91963 0.0
H513 H 0.79539 0.13253 0.93516 0.0
H514 H 0.74287 0.06974 0.93151 0.0
H515 H 0.85506 0.98578 0.91534 0.0
H516 H 0.79494 0.4139 0.96915 0.0
H517 H 0.87921 0.36316 0.92949 0.0
H518 H 0.94134 0.41175 0.93864 0.0
H519 H 0.85671 0.46405 0.97779 0.0
Gd520 Gd 0.65197 0.12814 0.69252 0.0
Gd521 Gd 0.60214 0.09494 0.69888 0.0
C522 C 0.59711 0.08638 0.6594 0.0
C523 C 0.73352 0.13885 0.68119 0.0
C524 C 0.78074 0.12746 0.68538 0.0
C525 C 0.81452 0.15917 0.68168 0.0
C526 C 0.7933 0.08426 0.69106 0.0
C527 C 0.87196 0.10015 0.68361 0.0
C528 C 0.83899 0.07092 0.69047 0.0
C529 C 0.8599 0.14587 0.68099 0.0
C530 C 0.60222 0.21101 0.69303 0.0
C531 C 0.62274 0.15254 0.72783 0.0
C532 C 0.52774 1.05293 0.70549 0.0
C533 C 0.48353 0.07424 0.70221 0.0
C534 C 0.45079 0.07404 0.71478 0.0
C535 C 0.48249 0.10903 0.69023 0.0
C536 C 0.43121 0.15143 0.70757 0.0
C537 C 0.45694 0.14799 0.69308 0.0
C538 C 0.4241 0.11256 0.71733 0.0
C539 C 0.67314 1.05448 0.72561 0.0
O540 O 0.62523 0.1195 0.66405 0.0
O541 O 0.58442 0.06445 0.67267 0.0
O542 O 0.70673 0.10574 0.67658 0.0
O543 O 0.71357 0.1682 0.69072 0.0
O544 O 0.64478 0.20492 0.69664 0.0
O545 O 0.58612 0.17021 0.68958 0.0
O546 O 0.58576 0.13815 0.72084 0.0
O547 O 0.66005 0.14696 0.71937 0.0
O548 O 0.55137 0.07412 0.71682 0.0
O549 O 0.55203 1.04346 0.69242 0.0
O550 O 0.66755 1.05964 0.70926 0.0
O551 O 0.66611 0.06077 0.70916 0.0
H552 H 0.80546 0.19314 0.67777 0.0
H553 H 0.76765 0.05976 0.69462 0.0
H554 H 0.84741 1.03609 0.69338 0.0
H555 H 0.88397 0.17015 0.67608 0.0
H556 H 0.45091 1.04765 0.72412 0.0
H557 H 0.50705 0.10984 0.68024 0.0
H558 H 0.46255 0.17747 0.68535 0.0
H559 H 0.40413 0.11468 0.72859 0.0
Gd560 Gd 0.75365 0.90098 0.43265 0.0
Gd561 Gd 0.78169 0.86048 0.44131 0.0
C562 C 0.79128 0.84319 0.40248 0.0
C563 C 0.77283 0.95973 0.41011 0.0
C564 C 0.78059 0.9524 0.3922 0.0
C565 C 0.74422 0.94663 0.38112 0.0
C566 C 0.8253 0.94521 0.3865 0.0
C567 C 0.79728 0.92739 0.35892 0.0
C568 C 0.83346 0.93205 0.37019 0.0
C569 C 0.75248 0.93459 0.36465 0.0
C570 C 0.6666 0.85913 0.43456 0.0
C571 C 0.71845 0.90425 0.46643 0.0
C572 C 0.81899 0.78531 0.4508 0.0
C573 C 0.79604 0.74133 0.45084 0.0
C574 C 0.80291 0.71227 0.4643 0.0
C575 C 0.75673 0.73637 0.44098 0.0
C576 C 0.72464 0.68717 0.46172 0.0
C577 C 0.72088 0.7094 0.4465 0.0
C578 C 0.76722 0.68479 0.46967 0.0
C579 C 0.8197 0.93144 0.46806 0.0
O580 O 0.75132 0.85631 0.40787 0.0
O581 O 0.81898 0.84925 0.41512 0.0
O582 O 0.73151 0.95491 0.41595 0.0
O583 O 0.80341 0.94048 0.41946 0.0
O584 O 0.67496 0.90281 0.43458 0.0
O585 O 0.70662 0.83902 0.43395 0.0
O586 O 0.73476 0.8638 0.46351 0.0
O587 O 0.72423 0.93392 0.4547 0.0
O588 O 0.80084 0.8142 0.46098 0.0
O589 O 0.82632 0.80313 0.43632 0.0
O590 O 0.81846 0.92394 0.45177 0.0
O591 O 0.81683 0.92211 0.45164 0.0
H592 H 0.70939 0.95137 0.38514 0.0
H593 H 0.85418 0.94877 0.39478 0.0
H594 H 0.86829 0.9264 0.36635 0.0
H595 H 0.72364 0.93266 0.35629 0.0
H596 H 0.83301 0.71555 0.472 0.0
H597 H 0.75111 0.75803 0.43033 0.0
H598 H 0.68851 0.71083 0.44009 0.0
H599 H 0.77062 0.66749 0.48146 0.0
Gd600 Gd 0.96878 0.99388 0.19259 0.0
Gd601 Gd 1.01945 1.02706 0.19869 0.0
C602 C 1.02318 1.03596 0.15922 0.0
C603 C 0.88971 0.97399 0.18069 0.0
C604 C 0.8772 0.93776 0.16895 0.0
C605 C 0.85279 0.89965 0.17447 0.0
C606 C 0.89305 0.93882 0.15258 0.0
C607 C 0.85832 0.86532 0.14712 0.0
C608 C 0.88369 0.9032 0.14182 0.0
C609 C 0.84353 0.86367 0.16367 0.0
C610 C 1.01838 0.91058 0.19301 0.0
C611 C 1.00154 0.97018 0.22776 0.0
C612 C 0.09377 0.06881 0.20552 0.0
C613 C 0.13772 1.04654 0.20265 0.0
C614 C 0.16999 1.04644 0.21544 0.0
C615 C 0.13892 1.01179 0.19064 0.0
C616 C 0.19088 0.96961 0.20785 0.0
C617 C 0.16483 0.973 0.19341 0.0
C618 C 0.19694 1.00807 0.21795 0.0
C619 C 0.94679 0.0674 0.22499 0.0
O620 O 0.9927 1.00492 0.16386 0.0
O621 O 1.03894 1.05581 0.17251 0.0
O622 O 0.90392 0.95979 0.19504 0.0
O623 O 0.91438 1.00741 0.17499 0.0
O624 O 0.97598 0.917 0.19651 0.0
O625 O 1.03457 0.95132 0.18961 0.0
O626 O 1.03795 0.98384 0.22034 0.0
O627 O 0.96357 0.97603 0.21967 0.0
O628 O 0.06946 1.04871 0.21688 0.0
O629 O 0.07004 0.07795 0.19223 0.0
O630 O 0.9539 0.06309 0.20869 0.0
O631 O 0.95529 0.06196 0.20862 0.0
H632 H 0.84086 0.89771 0.18716 0.0
H633 H 0.9124 0.96736 0.14794 0.0
H634 H 0.89457 0.90676 0.12907 0.0
H635 H 0.82384 0.83519 0.16815 0.0
H636 H 0.16958 0.07266 0.22486 0.0
H637 H 0.11458 1.01102 0.18054 0.0
H638 H 0.15981 0.94372 0.1855 0.0
H639 H 0.21695 1.00583 0.22923 0.0
Gd640 Gd 0.77131 0.77273 0.9487 0.0
Gd641 Gd 0.73701 0.72287 0.94247 0.0
C642 C 0.71435 0.75227 0.97793 0.0
C643 C 0.81358 0.84674 0.95534 0.0
C644 C 0.79164 0.89039 0.95195 0.0
C645 C 0.79404 0.92487 0.96384 0.0
C646 C 0.75538 0.89029 0.94049 0.0
C647 C 0.71664 0.94659 0.95679 0.0
C648 C 0.71796 0.91839 0.9429 0.0
C649 C 0.75665 0.95347 0.96611 0.0
C650 C 0.81194 0.70146 0.97518 0.0
C651 C 0.77914 0.7757 0.9091 0.0
C652 C 0.72368 0.64164 0.93143 0.0
C653 C 0.73588 0.59503 0.93574 0.0
C654 C 0.70619 0.56035 0.93107 0.0
C655 C 0.77843 0.58414 0.94262 0.0
C656 C 0.76704 0.5054 0.93467 0.0
C657 C 0.79368 0.53924 0.94235 0.0
C658 C 0.72139 0.51573 0.9307 0.0
C659 C 0.65514 0.77475 0.94331 0.0
O660 O 0.7289 0.78895 0.97091 0.0
O661 O 0.71912 0.71511 0.96939 0.0
O662 O 0.79252 0.82329 0.96668 0.0
O663 O 0.8232 0.82239 0.94229 0.0
O664 O 0.80642 0.7072 0.95885 0.0
O665 O 0.80531 0.70863 0.95876 0.0
O666 O 0.74619 0.74755 0.91386 0.0
O667 O 0.80092 0.78961 0.92231 0.0
O668 O 0.75652 0.66787 0.92624 0.0
O669 O 0.6957 0.66205 0.94138 0.0
O670 O 0.6605 0.73258 0.9473 0.0
O671 O 0.69614 0.7892 0.93923 0.0
H672 H 0.82144 0.9254 0.97285 0.0
H673 H 0.75278 0.86424 0.93107 0.0
H674 H 0.68776 0.9132 0.93543 0.0
H675 H 0.75621 0.97529 0.97693 0.0
H676 H 0.67268 0.56817 0.92619 0.0
H677 H 0.80122 0.61058 0.94688 0.0
H678 H 0.82827 0.53218 0.94623 0.0
H679 H 0.69901 0.49093 0.92507 0.0
Gd680 Gd 0.60452 0.52264 0.1924 0.0
Gd681 Gd 0.65621 0.48956 0.18579 0.0
C682 C 0.62507 0.4642 0.22102 0.0
C683 C 0.53152 0.56484 0.20072 0.0
C684 C 0.48693 0.54272 0.20041 0.0
C685 C 0.45807 0.54868 0.21401 0.0
C686 C 0.48265 0.50337 0.19061 0.0
C687 C 0.43496 0.47004 0.21159 0.0
C688 C 0.45721 0.46675 0.19636 0.0
C689 C 0.4318 0.51232 0.21955 0.0
C690 C 0.67914 0.56226 0.21792 0.0
C691 C 0.60066 0.53264 0.15276 0.0
C692 C 0.73601 0.46814 0.17505 0.0
C693 C 0.75129 0.42684 0.16653 0.0
C694 C 0.78547 0.39989 0.17365 0.0
C695 C 0.72992 0.41229 0.15192 0.0
C696 C 0.78227 0.34851 0.15005 0.0
C697 C 0.74526 0.37371 0.14375 0.0
C698 C 0.80052 0.36077 0.16557 0.0
C699 C 0.60623 0.40629 0.18665 0.0
O700 O 0.58812 0.47843 0.21402 0.0
O701 O 0.6624 0.47016 0.21266 0.0
O702 O 0.55904 0.54672 0.21155 0.0
O703 O 0.55093 0.57082 0.18634 0.0
O704 O 0.67073 0.55888 0.20166 0.0
O705 O 0.66936 0.55775 0.20161 0.0
O706 O 0.63348 0.50374 0.15715 0.0
O707 O 0.58267 0.54986 0.16617 0.0
O708 O 0.72332 0.46195 0.19027 0.0
O709 O 0.70869 0.4952 0.16696 0.0
O710 O 0.64907 0.41257 0.18937 0.0
O711 O 0.58971 0.44697 0.18355 0.0
H712 H 0.46103 0.57856 0.22176 0.0
H713 H 0.5046 0.49801 0.18001 0.0
H714 H 0.45984 0.43442 0.19008 0.0
H715 H 0.4147 0.51522 0.2314 0.0
H716 H 0.80128 0.40969 0.18527 0.0
H717 H 0.70231 0.4315 0.14644 0.0
H718 H 0.7302 0.36607 0.13181 0.0
H719 H 0.82837 0.34177 0.17098 0.0
Gd720 Gd 0.84327 0.35682 0.44733 0.0
Gd721 Gd 0.87858 0.40505 0.44139 0.0
C722 C 0.90006 0.37212 0.47676 0.0
C723 C 0.79359 0.28643 0.45278 0.0
C724 C 0.80846 0.24 0.44953 0.0
C725 C 0.798 0.20665 0.46123 0.0
C726 C 0.84729 0.23467 0.43951 0.0
C727 C 0.8752 0.17908 0.45878 0.0
C728 C 0.88107 0.20423 0.44426 0.0
C729 C 0.83132 0.17515 0.4656 0.0
C730 C 0.80486 0.42835 0.47413 0.0
C731 C 0.83703 0.35158 0.40784 0.0
C732 C 0.89213 0.48646 0.43066 0.0
C733 C 0.8805 0.53322 0.43506 0.0
C734 C 0.91164 0.56731 0.43116 0.0
C735 C 0.83741 0.54503 0.44118 0.0
C736 C 0.85163 0.62356 0.43361 0.0
C737 C 0.82333 0.59031 0.44078 0.0
C738 C 0.89759 0.6123 0.43065 0.0
C739 C 0.96068 0.35409 0.44229 0.0
O740 O 0.88394 0.33643 0.4695 0.0
O741 O 0.8968 0.40992 0.46848 0.0
O742 O 0.81731 0.30646 0.46439 0.0
O743 O 0.78849 0.31184 0.43969 0.0
O744 O 0.81 0.4229 0.45777 0.0
O745 O 0.81109 0.42142 0.45769 0.0
O746 O 0.87043 0.37918 0.41274 0.0
O747 O 0.8143 0.3392 0.42094 0.0
O748 O 0.8591 0.46051 0.42533 0.0
O749 O 0.9201 0.46571 0.44056 0.0
O750 O 0.95527 0.39658 0.44579 0.0
O751 O 0.91941 0.3387 0.43871 0.0
H752 H 0.76796 0.20978 0.46892 0.0
H753 H 0.85565 0.25957 0.43013 0.0
H754 H 0.91443 0.20707 0.43864 0.0
H755 H 0.82602 0.15497 0.47665 0.0
H756 H 0.9456 0.55881 0.42694 0.0
H757 H 0.81343 0.51909 0.44492 0.0
H758 H 0.78843 0.59814 0.44402 0.0
H759 H 0.92131 0.63664 0.42557 0.0
Gd760 Gd 1.02018 0.5967 0.69049 0.0
Gd761 Gd 0.98109 0.62723 0.6833 0.0
C762 C 0.98868 0.65887 0.71776 0.0
C763 C 0.09422 0.553 0.6974 0.0
C764 C 0.13964 0.57281 0.69768 0.0
C765 C 0.16977 0.55939 0.71017 0.0
C766 C 0.14547 0.61515 0.68996 0.0
C767 C 0.19551 0.63704 0.71218 0.0
C768 C 0.17349 0.64753 0.6973 0.0
C769 C 0.19863 0.59154 0.71724 0.0
C770 C 0.95252 0.55877 0.71837 0.0
C771 C 1.03342 0.58783 0.65183 0.0
C772 C 0.91782 0.61407 0.6616 0.0
C773 C 0.92328 0.60493 0.64367 0.0
C774 C 0.92967 0.64015 0.63225 0.0
C775 C 0.92841 0.55982 0.63825 0.0
C776 C 0.94613 0.58517 0.61038 0.0
C777 C 0.94067 0.55016 0.62197 0.0
C778 C 0.94056 0.63038 0.61577 0.0
C779 C 1.02522 0.71265 0.68535 0.0
O780 O 1.0271 0.64034 0.71335 0.0
O781 O 0.95572 0.65591 0.70698 0.0
O782 O 0.06755 0.57004 0.70861 0.0
O783 O 0.07462 0.55108 0.68296 0.0
O784 O 0.95644 0.56261 0.70198 0.0
O785 O 0.95828 0.56404 0.70181 0.0
O786 O 1.02512 0.62802 0.65815 0.0
O787 O 1.02462 0.55981 0.66402 0.0
O788 O 0.92766 0.65452 0.66723 0.0
O789 O 0.93428 0.58216 0.67096 0.0
O790 O 0.98125 0.70526 0.68635 0.0
O791 O 1.04418 0.67219 0.68388 0.0
H792 H 0.1661 0.52666 0.71611 0.0
H793 H 0.12311 0.62566 0.67998 0.0
H794 H 0.1714 0.68231 0.69308 0.0
H795 H 0.21637 0.58286 0.72861 0.0
H796 H 0.9264 0.67522 0.63604 0.0
H797 H 0.92428 0.5317 0.64674 0.0
H798 H 0.94528 0.51505 0.61847 0.0
H799 H 0.9431 0.65843 0.60718 0.0
Gd800 Gd 0.7871 0.35793 0.79213 0.0
Gd801 Gd 0.75906 0.3994 0.80085 0.0
C802 C 0.7234 0.40041 0.76687 0.0
C803 C 0.82384 0.28249 0.78303 0.0
C804 C 0.80153 0.23873 0.78574 0.0
C805 C 0.80179 0.20666 0.77297 0.0
C806 C 0.76718 0.23682 0.79789 0.0
C807 C 0.72552 0.18385 0.78089 0.0
C808 C 0.72886 0.20985 0.79533 0.0
C809 C 0.76394 0.17872 0.77068 0.0
C810 C 0.82415 0.42928 0.76531 0.0
C811 C 0.79678 0.34104 0.83126 0.0
C812 C 0.77777 0.45944 0.82302 0.0
C813 C 0.78315 0.45427 0.84117 0.0
C814 C 0.74536 0.45097 0.8517 0.0
C815 C 0.82699 0.44752 0.84784 0.0
C816 C 0.79535 0.43507 0.87523 0.0
C817 C 0.83295 0.4374 0.86457 0.0
C818 C 0.75142 0.44174 0.86856 0.0
C819 C 0.67218 0.35686 0.79905 0.0
O820 O 0.74035 0.3603 0.76984 0.0
O821 O 0.72918 0.43065 0.77845 0.0
O822 O 0.80155 0.3086 0.77289 0.0
O823 O 0.83639 0.30403 0.79635 0.0
O824 O 0.82339 0.42162 0.7816 0.0
O825 O 0.8218 0.41982 0.78173 0.0
O826 O 0.75746 0.35728 0.82625 0.0
O827 O 0.82376 0.34393 0.81832 0.0
O828 O 0.73696 0.45549 0.81654 0.0
O829 O 0.80873 0.43799 0.81451 0.0
O830 O 0.68037 0.40054 0.79875 0.0
O831 O 0.71234 0.33703 0.80002 0.0
H832 H 0.82781 0.20769 0.76348 0.0
H833 H 0.76646 0.26111 0.80797 0.0
H834 H 0.69969 0.21398 0.80338 0.0
H835 H 0.76178 0.15873 0.75942 0.0
H836 H 0.71115 0.45552 0.84696 0.0
H837 H 0.85689 0.44932 0.84002 0.0
H838 H 0.86717 0.43221 0.86922 0.0
H839 H 0.72166 0.4414 0.87646 0.0
Gd840 Gd 1.01695 0.52894 1.04575 0.0
Gd841 Gd 0.96589 0.49562 1.05256 0.0
C842 C 0.9942 0.47108 1.01706 0.0
C843 C 0.08986 0.57043 1.03679 0.0
C844 C 0.13434 0.54812 1.03676 0.0
C845 C 0.16245 0.55383 1.02293 0.0
C846 C 0.13926 0.50907 1.04665 0.0
C847 C 0.18685 0.47567 1.02564 0.0
C848 C 0.16501 0.47261 1.04096 0.0
C849 C 0.1889 0.5176 1.01741 0.0
C850 C 0.94105 0.56853 1.02059 0.0
C851 C 1.0231 0.53861 1.08531 0.0
C852 C 0.88812 0.4729 1.065 0.0
C853 C 0.87757 0.43193 1.07446 0.0
C854 C 0.91308 0.40381 1.07993 0.0
C855 C 0.83248 0.41948 1.07744 0.0
C856 C 0.85868 0.35392 1.09326 0.0
C857 C 0.82304 0.38091 1.08685 0.0
C858 C 0.90372 0.36471 1.08898 0.0
C859 C 1.01712 0.41313 1.05133 0.0
O860 O 1.03163 0.48442 1.02399 0.0
O861 O 0.95728 0.47712 1.02567 0.0
O862 O 1.06159 0.55227 1.02622 0.0
O863 O 0.07135 0.57677 1.05131 0.0
O864 O 0.95037 0.56528 1.0368 0.0
O865 O 0.95178 0.5641 1.03684 0.0
O866 O 0.9912 0.50856 1.08101 0.0
O867 O 1.03919 0.55729 1.07183 0.0
O868 O 0.89924 0.46524 1.04971 0.0
O869 O 0.91552 0.50175 1.07216 0.0
O870 O 0.97484 0.41923 1.04756 0.0
O871 O 1.0324 0.45384 1.05516 0.0
H872 H 0.1589 0.58343 1.01509 0.0
H873 H 0.11779 0.50386 1.0574 0.0
H874 H 0.16313 0.44051 1.04742 0.0
H875 H 0.2056 0.52029 1.00548 0.0
H876 H 0.94822 0.41285 1.0777 0.0
H877 H 0.8047 0.44044 1.07303 0.0
H878 H 0.78788 0.37435 1.09007 0.0
H879 H 0.93192 0.34462 1.09354 0.0
Gd880 Gd 0.84776 0.75978 0.29162 0.0
Gd881 Gd 0.87685 0.71933 0.29931 0.0
C882 C 0.90958 0.72363 0.26488 0.0
C883 C 0.80955 0.83578 0.2843 0.0
C884 C 0.83313 0.87871 0.2872 0.0
C885 C 0.83082 0.91286 0.27523 0.0
C886 C 0.86914 0.8788 0.29877 0.0
C887 C 0.90764 0.93559 0.28261 0.0
C888 C 0.9066 0.90689 0.29636 0.0
C889 C 0.86784 0.94193 0.27314 0.0
C890 C 0.80891 0.69195 0.26395 0.0
C891 C 0.83915 0.77472 0.33032 0.0
C892 C 0.86028 0.6581 0.32128 0.0
C893 C 0.85224 0.66406 0.33927 0.0
C894 C 0.88829 0.67031 0.35049 0.0
C895 C 0.80728 0.66946 0.34498 0.0
C896 C 0.83437 0.68691 0.37273 0.0
C897 C 0.79853 0.68157 0.36136 0.0
C898 C 0.87944 0.68127 0.36705 0.0
C899 C 0.96344 0.76114 0.29739 0.0
O900 O 0.89191 0.76269 0.26883 0.0
O901 O 0.90559 0.69175 0.27597 0.0
O902 O 0.82957 0.81053 0.2733 0.0
O903 O 0.7991 0.81302 0.29755 0.0
O904 O 0.81191 0.69689 0.28032 0.0
O905 O 0.81338 0.69864 0.28048 0.0
O906 O 0.87914 0.76317 0.32443 0.0
O907 O 0.81095 0.76821 0.31792 0.0
O908 O 0.90129 0.66494 0.31543 0.0
O909 O 0.82895 0.67664 0.31208 0.0
O910 O 0.95517 0.7175 0.29652 0.0
O911 O 0.92345 0.78107 0.29886 0.0
H912 H 0.80342 0.9133 0.26621 0.0
H913 H 0.87125 0.85311 0.30832 0.0
H914 H 0.93675 0.90199 0.3039 0.0
H915 H 0.86818 0.96407 0.26241 0.0
H916 H 0.92328 0.66692 0.34648 0.0
H917 H 0.77859 0.66547 0.33664 0.0
H918 H 0.76349 0.6862 0.36512 0.0
H919 H 0.90803 0.6839 0.37549 0.0
Gd920 Gd 0.60052 0.59754 0.5458 0.0
Gd921 Gd 0.65098 0.62941 0.55331 0.0
C922 C 0.62667 0.65691 0.51788 0.0
C923 C 0.52639 0.55815 0.53664 0.0
C924 C 0.48229 0.58122 0.537 0.0
C925 C 0.45371 0.57728 0.52317 0.0
C926 C 0.47843 0.61951 0.54735 0.0
C927 C 0.43201 0.656 0.52662 0.0
C928 C 0.45375 0.65714 0.54203 0.0
C929 C 0.42827 0.61467 0.51804 0.0
C930 C 0.67478 0.55887 0.51995 0.0
C931 C 0.59383 0.58601 0.5854 0.0
C932 C 0.73237 0.63878 0.56485 0.0
C933 C 0.77818 0.6293 0.55866 0.0
C934 C 0.81281 0.66024 0.56221 0.0
C935 C 0.78851 0.58918 0.55008 0.0
C936 C 0.86913 0.60442 0.55395 0.0
C937 C 0.83395 0.57712 0.54747 0.0
C938 C 0.858 0.64829 0.55963 0.0
C939 C 0.60207 0.71273 0.55237 0.0
O940 O 0.58842 0.64359 0.5242 0.0
O941 O 0.6628 0.64968 0.52686 0.0
O942 O 0.55463 0.57659 0.52619 0.0
O943 O 0.5453 0.55041 0.55101 0.0
O944 O 0.6663 0.56143 0.53622 0.0
O945 O 0.66478 0.56272 0.53626 0.0
O946 O 0.62332 0.61848 0.58141 0.0
O947 O 0.58052 0.56594 0.57171 0.0
O948 O 0.70655 0.60403 0.56838 0.0
O949 O 0.71075 0.67087 0.55718 0.0
O950 O 0.64479 0.70625 0.54922 0.0
O951 O 0.58534 0.67216 0.55562 0.0
H952 H 0.45632 0.54821 0.51501 0.0
H953 H 0.50009 0.62327 0.55816 0.0
H954 H 0.45656 0.68863 0.54883 0.0
H955 H 0.41152 0.61337 0.50605 0.0
H956 H 0.80518 0.69219 0.56823 0.0
H957 H 0.76187 0.56569 0.54653 0.0
H958 H 0.84136 0.54393 0.5424 0.0
H959 H 0.88372 0.67117 0.56438 0.0
Gd960 Gd 0.37545 0.4008 0.30288 0.0
Gd961 Gd 0.34293 0.34984 0.29567 0.0
C962 C 0.33285 0.34368 0.33538 0.0
C963 C 0.39554 0.47866 0.31541 0.0
C964 C 0.43579 0.49134 0.32538 0.0
C965 C 0.47402 0.51124 0.31779 0.0
C966 C 0.43787 0.48046 0.34227 0.0
C967 C 0.51476 0.51121 0.34407 0.0
C968 C 0.47674 0.49021 0.35148 0.0
C969 C 0.51318 0.52093 0.32703 0.0
C970 C 0.45935 0.35182 0.30212 0.0
C971 C 0.40313 0.37362 0.26766 0.0
C972 C 0.30221 0.27681 0.28649 0.0
C973 C 0.32515 0.23277 0.28667 0.0
C974 C 0.32083 0.20471 0.27276 0.0
C975 C 0.36367 0.22834 0.297 0.0
C976 C 0.39946 0.1815 0.27629 0.0
C977 C 0.40105 0.20319 0.29168 0.0
C978 C 0.35798 0.17886 0.26762 0.0
C979 C 0.30392 0.42455 0.27021 0.0
O980 O 0.36275 0.3757 0.33124 0.0
O981 O 0.3145 0.32753 0.32178 0.0
O982 O 0.40408 0.46787 0.30012 0.0
O983 O 0.36602 0.45127 0.32222 0.0
O984 O 0.45294 0.39457 0.29967 0.0
O985 O 0.41852 0.33481 0.30475 0.0
O986 O 0.38875 0.33615 0.27414 0.0
O987 O 0.39652 0.41009 0.27639 0.0
O988 O 0.32055 0.305 0.27601 0.0
O989 O 0.29501 0.29541 0.30093 0.0
O990 O 0.30643 0.41565 0.28645 0.0
O991 O 0.30762 0.41425 0.28651 0.0
H992 H 0.4736 0.51953 0.30471 0.0
H993 H 0.40925 0.46482 0.34851 0.0
H994 H 0.47572 0.48339 0.36466 0.0
H995 H 0.54163 0.53731 0.32096 0.0
H996 H 0.29165 0.20786 0.2646 0.0
H997 H 0.36781 0.24971 0.30783 0.0
H998 H 0.43273 0.20537 0.29852 0.0
H999 H 0.35639 0.16224 0.25564 0.0
Gd1000 Gd 0.47587 0.62521 1.04701 0.0
Gd1001 Gd 0.52663 0.5923 1.04066 0.0
C1002 C 0.53076 0.5833 1.08025 0.0
C1003 C 0.39701 0.64407 1.05916 0.0
C1004 C 0.38389 0.67985 1.07097 0.0
C1005 C 0.35998 0.71824 1.06541 0.0
C1006 C 0.39801 0.67774 1.08756 0.0
C1007 C 0.36219 0.75058 1.09314 0.0
C1008 C 0.38726 0.71254 1.09849 0.0
C1009 C 0.34937 0.75339 1.07637 0.0
C1010 C 0.52556 0.70856 1.0465 0.0
C1011 C 0.50578 0.64951 1.01167 0.0
C1012 C 0.60101 0.55063 1.03389 0.0
C1013 C 0.64516 0.57231 1.03709 0.0
C1014 C 0.67731 0.57316 1.02431 0.0
C1015 C 0.64635 0.60659 1.04928 0.0
C1016 C 0.69619 0.65051 1.0319 0.0
C1017 C 0.67119 0.64607 1.04651 0.0
C1018 C 0.70332 0.61219 1.02184 0.0
C1019 C 0.45422 0.55158 1.01442 0.0
O1020 O 0.50017 0.61427 1.07568 0.0
O1021 O 0.54638 0.56363 1.06692 0.0
O1022 O 0.41067 0.65867 1.04482 0.0
O1023 O 0.42234 0.61103 1.06479 0.0
O1024 O 0.48299 0.70216 1.04318 0.0
O1025 O 0.54188 0.66785 1.0498 0.0
O1026 O 0.54281 0.63532 1.01865 0.0
O1027 O 0.46852 0.64386 1.02012 0.0
O1028 O 0.57707 0.57156 1.02259 0.0
O1029 O 0.57696 0.54102 1.04701 0.0
O1030 O 0.46108 0.55612 1.03074 0.0
O1031 O 0.46245 0.55723 1.03082 0.0
H1032 H 0.34929 0.72097 1.05258 0.0
H1033 H 0.41691 0.64893 1.09225 0.0
H1034 H 0.39669 0.70815 1.11138 0.0
H1035 H 0.33002 0.78206 1.07184 0.0
H1036 H 0.6771 0.54719 1.0148 0.0
H1037 H 0.62236 0.60662 1.05944 0.0
H1038 H 0.66553 0.67514 1.05446 0.0
H1039 H 0.72273 0.61512 1.01047 0.0
Gd1040 Gd 0.2451 0.72327 0.8057 0.0
Gd1041 Gd 0.27592 0.7616 0.79848 0.0
C1042 C 0.2837 0.7768 0.83704 0.0
C1043 C 0.25924 0.66124 0.82761 0.0
C1044 C 0.26834 0.66739 0.84554 0.0
C1045 C 0.23287 0.67302 0.85695 0.0
C1046 C 0.31353 0.67377 0.85096 0.0
C1047 C 0.28778 0.69121 0.87881 0.0
C1048 C 0.32301 0.68653 0.86722 0.0
C1049 C 0.24249 0.68438 0.87343 0.0
C1050 C 0.15955 0.76684 0.80376 0.0
C1051 C 0.21265 0.73161 0.77134 0.0
C1052 C 0.32244 0.83399 0.79184 0.0
C1053 C 0.30593 0.88047 0.79201 0.0
C1054 C 0.32426 0.91127 0.7807 0.0
C1055 C 0.26271 0.88854 0.79885 0.0
C1056 C 0.24919 0.94346 0.7774 0.0
C1057 C 0.23409 0.92029 0.79147 0.0
C1058 C 0.29597 0.94395 0.77369 0.0
C1059 C 0.31161 0.69277 0.77046 0.0
O1060 O 0.24352 0.76838 0.83058 0.0
O1061 O 0.31216 0.76714 0.82507 0.0
O1062 O 0.21844 0.67016 0.82191 0.0
O1063 O 0.29107 0.67781 0.81821 0.0
O1064 O 0.16679 0.72299 0.80307 0.0
O1065 O 0.20018 0.78601 0.8049 0.0
O1066 O 0.23177 0.76964 0.7758 0.0
O1067 O 0.21555 0.69859 0.78202 0.0
O1068 O 0.30296 0.80906 0.78058 0.0
O1069 O 0.32389 0.81387 0.80613 0.0
O1070 O 0.30912 0.69766 0.78686 0.0
O1071 O 0.30765 0.69954 0.78702 0.0
H1072 H 0.19772 0.66877 0.85317 0.0
H1073 H 0.34185 0.67024 0.84247 0.0
H1074 H 0.35817 0.69215 0.8707 0.0
H1075 H 0.21431 0.68632 0.88202 0.0
H1076 H 0.35784 0.90593 0.77552 0.0
H1077 H 0.24848 0.86551 0.80792 0.0
H1078 H 0.19832 0.9202 0.79474 0.0
H1079 H 0.30835 0.96275 0.76307 0.0
Gd1080 Gd 0.15104 0.50027 0.54771 0.0
Gd1081 Gd 0.1098 0.52996 0.54018 0.0
C1082 C 0.09742 0.5393 0.57907 0.0
C1083 C 0.21471 0.51481 0.56907 0.0
C1084 C 0.20993 0.52196 0.58712 0.0
C1085 C 0.20298 0.4856 0.59801 0.0
C1086 C 0.2054 0.56651 0.59317 0.0
C1087 C 0.18683 0.53836 0.62059 0.0
C1088 C 0.19307 0.57456 0.60956 0.0
C1089 C 0.19193 0.49371 0.61459 0.0
C1090 C 0.10667 0.41485 0.54632 0.0
C1091 C 0.14441 0.46764 0.51328 0.0
C1092 C 1.03349 0.56819 0.53286 0.0
C1093 C 0.99026 0.54466 0.53551 0.0
C1094 C 0.95668 0.54621 0.5232 0.0
C1095 C 0.98959 0.50931 0.54724 0.0
C1096 C 0.93365 0.46996 0.53076 0.0
C1097 C 0.96143 0.47192 0.54481 0.0
C1098 C 0.92791 0.50902 0.52096 0.0
C1099 C 0.17873 0.56811 0.51256 0.0
O1100 O 0.10909 0.49936 0.57327 0.0
O1101 O 0.10262 0.56703 0.56651 0.0
O1102 O 0.20676 0.47438 0.56299 0.0
O1103 O 0.19579 0.54671 0.5603 0.0
O1104 O 0.15052 0.42219 0.54483 0.0
O1105 O 0.08783 0.4552 0.54801 0.0
O1106 O 0.10558 0.48568 0.51742 0.0
O1107 O 0.17703 0.4714 0.52416 0.0
O1108 O 1.05899 0.54858 0.52183 0.0
O1109 O 1.05626 0.57826 0.54622 0.0
O1110 O 0.17326 0.56527 0.52892 0.0
O1111 O 0.17146 0.56379 0.52907 0.0
H1112 H 0.2057 0.45092 0.59372 0.0
H1113 H 0.20996 0.59542 0.58507 0.0
H1114 H 0.18888 0.60931 0.61358 0.0
H1115 H 0.18871 0.46484 0.62278 0.0
H1116 H 0.95672 0.57304 0.51404 0.0
H1117 H 1.01476 0.50775 0.55706 0.0
H1118 H 0.96556 0.44251 0.55267 0.0
H1119 H 0.90648 0.508 0.51001 0.0
Gd1120 Gd 0.38377 0.72255 0.43515 0.0
Gd1121 Gd 0.34942 0.77308 0.44166 0.0
C1122 C 0.33996 0.77624 0.40201 0.0
C1123 C 0.40738 0.64454 0.42356 0.0
C1124 C 0.44721 0.63199 0.41347 0.0
C1125 C 0.48359 0.60798 0.42065 0.0
C1126 C 0.45064 0.64621 0.39695 0.0
C1127 C 0.52405 0.60835 0.39435 0.0
C1128 C 0.48845 0.63457 0.38753 0.0
C1129 C 0.52179 0.59654 0.41122 0.0
C1130 C 0.46596 0.775 0.43601 0.0
C1131 C 0.40776 0.75217 0.4705 0.0
C1132 C 0.30678 0.84541 0.4503 0.0
C1133 C 0.32918 0.88975 0.45054 0.0
C1134 C 0.32319 0.91735 0.46449 0.0
C1135 C 0.3689 0.8946 0.44094 0.0
C1136 C 0.40234 0.94019 0.46258 0.0
C1137 C 0.40574 0.91925 0.4471 0.0
C1138 C 0.35979 0.94278 0.47047 0.0
C1139 C 0.30927 0.69886 0.46702 0.0
O1140 O 0.37043 0.7451 0.40652 0.0
O1141 O 0.32117 0.79315 0.41534 0.0
O1142 O 0.41686 0.65775 0.43853 0.0
O1143 O 0.37612 0.66965 0.41658 0.0
O1144 O 0.4607 0.73256 0.43938 0.0
O1145 O 0.42467 0.78976 0.43253 0.0
O1146 O 0.39402 0.78904 0.46342 0.0
O1147 O 0.40171 0.71507 0.46208 0.0
O1148 O 0.32443 0.81738 0.461 0.0
O1149 O 0.30132 0.82686 0.43573 0.0
O1150 O 0.31381 0.7066 0.45077 0.0
O1151 O 0.31492 0.70799 0.45071 0.0
H1152 H 0.48218 0.59744 0.43351 0.0
H1153 H 0.42365 0.66547 0.3911 0.0
H1154 H 0.48791 0.64375 0.37454 0.0
H1155 H 0.54854 0.57668 0.41694 0.0
H1156 H 0.29304 0.91393 0.47211 0.0
H1157 H 0.3743 0.87363 0.43008 0.0
H1158 H 0.43828 0.91703 0.44089 0.0
H1159 H 0.35679 0.95886 0.48251 0.0
Gd1160 Gd 0.14976 0.62693 0.19163 0.0
Gd1161 Gd 0.10098 0.59186 0.19741 0.0
C1162 C 0.09587 0.5866 0.1578 0.0
C1163 C 0.22902 0.64755 0.18019 0.0
C1164 C 0.24313 0.68408 0.1689 0.0
C1165 C 0.27079 0.71953 0.17476 0.0
C1166 C 0.22686 0.68555 0.15256 0.0
C1167 C 0.26946 0.75504 0.14755 0.0
C1168 C 0.23992 0.72045 0.14203 0.0
C1169 C 0.28365 0.75485 0.16422 0.0
C1170 C 0.09927 0.70925 0.19247 0.0
C1171 C 0.11611 0.6479 0.22705 0.0
C1172 C 1.03074 0.54132 0.20233 0.0
C1173 C 0.98397 0.555 0.19862 0.0
C1174 C 0.94992 0.54367 0.20997 0.0
C1175 C 0.97835 0.59367 0.1886 0.0
C1176 C 0.92167 0.6203 0.20767 0.0
C1177 C 0.94701 0.62671 0.19322 0.0
C1178 C 0.91748 0.57624 0.21416 0.0
C1179 C 0.1723 0.55266 0.22409 0.0
O1180 O 0.12536 0.61827 0.16276 0.0
O1181 O 0.08163 0.56504 0.17089 0.0
O1182 O 0.21432 0.66127 0.19451 0.0
O1183 O 0.20417 0.61483 0.17399 0.0
O1184 O 0.14212 0.70352 0.19543 0.0
O1185 O 0.08301 0.66822 0.18937 0.0
O1186 O 0.08046 0.63079 0.21994 0.0
O1187 O 0.15386 0.64563 0.21864 0.0
O1188 O 1.04967 0.56549 0.21407 0.0
O1189 O 1.05715 0.53659 0.18948 0.0
O1190 O 0.16732 0.55839 0.20775 0.0
O1191 O 0.16594 0.55939 0.20764 0.0
H1192 H 0.28294 0.71959 0.18746 0.0
H1193 H 0.20482 0.65922 0.14772 0.0
H1194 H 0.2289 0.71839 0.12923 0.0
H1195 H 0.30612 0.78098 0.16894 0.0
H1196 H 0.95312 0.51364 0.21761 0.0
H1197 H 1.0036 0.60267 0.17941 0.0
H1198 H 0.94975 0.66011 0.18772 0.0
H1199 H 0.89681 0.57038 0.22507 0.0
Gd1200 Gd 0.25121 0.39738 0.93586 0.0
Gd1201 Gd 0.28373 0.34679 0.94332 0.0
C1202 C 0.29489 0.34174 0.9036 0.0
C1203 C 0.24015 0.47838 0.92455 0.0
C1204 C 0.24864 0.52422 0.93079 0.0
C1205 C 0.21658 0.55784 0.92738 0.0
C1206 C 0.28892 0.53563 0.93924 0.0
C1207 C 0.27146 0.61546 0.93544 0.0
C1208 C 0.29996 0.5812 0.94182 0.0
C1209 C 0.22752 0.60315 0.92993 0.0
C1210 C 0.16833 0.34693 0.93691 0.0
C1211 C 0.22395 0.37398 0.97118 0.0
C1212 C 0.32281 0.27323 0.95294 0.0
C1213 C 0.29894 0.22964 0.9533 0.0
C1214 C 0.30207 0.20341 0.96772 0.0
C1215 C 0.26068 0.22461 0.94288 0.0
C1216 C 0.22296 0.18171 0.96426 0.0
C1217 C 0.22253 0.20103 0.94846 0.0
C1218 C 0.26406 0.17934 0.97318 0.0
C1219 C 0.32342 0.42048 0.96902 0.0
O1220 O 0.26259 0.37125 0.90769 0.0
O1221 O 0.31478 0.3275 0.91722 0.0
O1222 O 0.20838 0.45607 0.93216 0.0
O1223 O 0.27559 0.45348 0.92099 0.0
O1224 O 0.17423 0.38949 0.94022 0.0
O1225 O 0.20919 0.33113 0.93345 0.0
O1226 O 0.23665 0.33569 0.9648 0.0
O1227 O 0.23181 0.40985 0.96229 0.0
O1228 O 0.30545 0.30253 0.96321 0.0
O1229 O 0.32994 0.2907 0.93832 0.0
O1230 O 0.31994 0.41254 0.95274 0.0
O1231 O 0.31869 0.41105 0.95269 0.0
H1232 H 0.18451 0.54937 0.92146 0.0
H1233 H 0.31328 0.50974 0.9427 0.0
H1234 H 0.33324 0.58948 0.94679 0.0
H1235 H 0.20371 0.62809 0.92528 0.0
H1236 H 0.33104 0.20701 0.97596 0.0
H1237 H 0.25746 0.24449 0.93165 0.0
H1238 H 0.19122 0.20267 0.9414 0.0
H1239 H 0.2648 0.16446 0.98546 0.0
Gd1240 Gd 0.46793 0.49252 0.69087 0.0
Gd1241 Gd 0.51475 0.52841 0.69685 0.0
C1242 C 0.52109 0.53449 0.65739 0.0
C1243 C 0.38687 0.47723 0.67977 0.0
C1244 C 0.33979 0.48842 0.6839 0.0
C1245 C 0.30584 0.45748 0.67956 0.0
C1246 C 0.32767 0.53109 0.69016 0.0
C1247 C 0.24942 0.51725 0.68173 0.0
C1248 C 0.28231 0.54518 0.68937 0.0
C1249 C 0.26073 0.47153 0.6787 0.0
C1250 C 0.51928 0.41123 0.69207 0.0
C1251 C 0.50137 0.47203 0.72629 0.0
C1252 C 0.58377 0.58031 0.70233 0.0
C1253 C 0.63113 0.5674 0.69962 0.0
C1254 C 0.66387 0.58244 0.71096 0.0
C1255 C 0.63884 0.52714 0.69069 0.0
C1256 C 0.69653 0.50727 0.71057 0.0
C1257 C 0.67167 0.49671 0.69627 0.0
C1258 C 0.69764 0.55244 0.71618 0.0
C1259 C 0.44243 0.56531 0.72366 0.0
O1260 O 0.49444 0.50044 0.66227 0.0
O1261 O 0.53233 0.5577 0.67053 0.0
O1262 O 0.41257 0.51029 0.6744 0.0
O1263 O 0.40774 0.45025 0.68996 0.0
O1264 O 0.47637 0.41634 0.69514 0.0
O1265 O 0.53494 0.45241 0.6888 0.0
O1266 O 0.53674 0.48912 0.71908 0.0
O1267 O 0.46335 0.47419 0.71794 0.0
O1268 O 0.56402 0.55668 0.71397 0.0
O1269 O 0.55888 0.58338 0.68897 0.0
O1270 O 0.44776 0.56021 0.7073 0.0
O1271 O 0.44927 0.55915 0.70722 0.0
H1272 H 0.31464 0.42381 0.67524 0.0
H1273 H 0.35352 0.55486 0.69422 0.0
H1274 H 0.2744 0.5799 0.69262 0.0
H1275 H 0.23655 0.44814 0.67326 0.0
H1276 H 0.65883 0.61367 0.71779 0.0
H1277 H 0.61429 0.51532 0.68161 0.0
H1278 H 0.67102 0.46231 0.69156 0.0
H1279 H 0.71764 0.56138 0.72701 0.0
C1280 C 0.18106 0.48312 0.4699 0.0
C1281 C 0.21132 0.44672 0.46882 0.0
H1282 H 0.13218 0.51688 0.48529 0.0
C1283 C 0.20891 0.41118 0.48038 0.0
H1284 H 0.18212 0.51025 0.46088 0.0
C1285 C 0.18134 0.41509 0.49423 0.0
C1286 C 0.1551 0.45404 0.49641 0.0
H1287 H 0.23168 0.38239 0.47949 0.0
H1288 H 0.18394 0.38993 0.50398 0.0
C1289 C 0.15234 0.48647 0.48368 0.0
C1290 C 0.89113 0.91597 0.72582 0.0
C1291 C 0.93205 0.93961 0.72392 0.0
H1292 H 0.85126 0.87457 0.74213 0.0
C1293 C 0.96795 0.93249 0.73515 0.0
H1294 H 0.8633 0.92114 0.71719 0.0
C1295 C 0.96095 0.90696 0.74939 0.0
C1296 C 0.91843 0.88731 0.75225 0.0
H1297 H 0.9999 0.95051 0.73375 0.0
H1298 H 0.98715 0.90626 0.75888 0.0
C1299 C 0.88455 0.8892 0.73993 0.0
C1300 C 0.46398 0.63399 0.96952 0.0
C1301 C 0.44741 0.67774 0.96677 0.0
H1302 H 0.5015 0.5913 0.98613 0.0
C1303 C 0.46467 0.71412 0.97614 0.0
H1304 H 0.45094 0.60571 0.96237 0.0
C1305 C 0.49175 0.70572 0.99 0.0
C1306 C 0.50277 0.66111 0.99417 0.0
H1307 H 0.45187 0.74819 0.97423 0.0
H1308 H 0.49888 0.7332 0.99855 0.0
C1309 C 0.49266 0.6259 0.98304 0.0
C1310 C 0.6632 0.2237 0.24652 0.0
C1311 C 0.7059 0.24176 0.25039 0.0
H1312 H 0.62595 0.17948 0.23047 0.0
C1313 C 0.74169 0.23806 0.23895 0.0
H1314 H 0.63548 0.22573 0.25534 0.0
C1315 C 0.73688 0.21013 0.22503 0.0
C1316 C 0.69581 0.18727 0.2224 0.0
H1317 H 0.775 0.2517 0.24189 0.0
H1318 H 0.76613 0.20302 0.21731 0.0
C1319 C 0.65799 0.197 0.23241 0.0
C1320 C 0.15916 0.70827 0.26316 0.0
C1321 C 0.17574 0.67054 0.27192 0.0
H1322 H 0.12472 0.73033 0.24119 0.0
C1323 C 0.15723 0.62768 0.26884 0.0
H1324 H 0.17324 0.7417 0.2654 0.0
C1325 C 0.12757 0.62166 0.25543 0.0
C1326 C 0.11843 0.65804 0.24472 0.0
H1327 H 0.16959 0.59842 0.27557 0.0
H1328 H 0.11763 0.58758 0.25197 0.0
C1329 C 0.13111 0.70193 0.24939 0.0
C1330 C 0.73049 0.90795 0.49686 0.0
C1331 C 0.7046 0.91962 0.4828 0.0
H1332 H 0.74978 0.92703 0.5217 0.0
C1333 C 0.67361 0.95539 0.48362 0.0
H1334 H 0.75507 0.88064 0.49631 0.0
C1335 C 0.67138 0.98193 0.49775 0.0
C1336 C 0.70045 0.9734 0.51125 0.0
H1337 H 0.65332 0.96474 0.47291 0.0
H1338 H 0.64789 1.01025 0.49791 0.0
C1339 C 0.7283 0.93486 0.51115 0.0
C1340 C 0.49283 0.49788 0.75495 0.0
C1341 C 0.50008 0.46174 0.74394 0.0
H1342 H 0.45599 0.52004 0.77649 0.0
C1343 C 0.48881 0.41764 0.74873 0.0
H1344 H 0.50156 0.53216 0.75135 0.0
C1345 C 0.46437 0.41066 0.76329 0.0
C1346 C 0.44968 0.44799 0.7727 0.0
H1347 H 0.49378 0.38948 0.74029 0.0
H1348 H 0.45125 0.377 0.7658 0.0
C1349 C 0.46683 0.49114 0.76923 0.0
C1350 C 0.89182 0.21502 1.01506 0.0
C1351 C 0.93084 0.18914 1.018 0.0
H1352 H 0.85638 0.25614 0.99735 0.0
C1353 C 0.96897 0.19407 1.00767 0.0
H1354 H 0.86244 0.21182 1.02306 0.0
C1355 C 0.96546 0.21862 0.99302 0.0
C1356 C 0.92423 0.23934 0.98888 0.0
H1357 H 0.9995 0.17434 1.00988 0.0
H1358 H 0.99298 0.21695 0.98411 0.0
C1359 C 0.88868 0.24062 1.00051 0.0
C1360 C 0.92491 0.71351 0.75137 0.0
C1361 C 0.92497 0.67827 0.76307 0.0
H1362 H 0.94694 0.73508 0.72742 0.0
C1363 C 0.95623 0.64277 0.76165 0.0
H1364 H 0.90146 0.7417 0.75254 0.0
C1365 C 0.98355 0.63993 0.74748 0.0
C1366 C 0.97861 0.67208 0.73474 0.0
H1367 H 0.957 0.61583 0.77076 0.0
H1368 H 1.00442 0.61008 0.74566 0.0
C1369 C 0.95123 0.71016 0.73717 0.0
C1370 C 0.2423 0.22228 0.51984 0.0
C1371 C 0.19869 0.20581 0.52323 0.0
H1372 H 0.28406 0.2562 0.50199 0.0
C1373 C 0.16138 0.22178 0.51398 0.0
H1374 H 0.27116 0.21056 0.52701 0.0
C1375 C 0.1687 0.24658 0.49955 0.0
C1376 C 0.21318 0.25666 0.49467 0.0
H1377 H 0.12736 0.20922 0.51645 0.0
H1378 H 0.1404 0.25238 0.49116 0.0
C1379 C 0.24946 0.24841 0.50563 0.0
C1380 C 0.64309 0.41056 0.2432 0.0
C1381 C 0.62795 0.45365 0.23861 0.0
H1382 H 0.6835 0.37262 0.26031 0.0
C1383 C 0.63223 0.48999 0.24977 0.0
H1384 H 0.64058 0.38238 0.23462 0.0
C1385 C 0.65812 0.48488 0.26421 0.0
C1386 C 0.67854 0.44314 0.26761 0.0
H1387 H 0.62094 0.52361 0.24626 0.0
H1388 H 0.66601 0.51426 0.27174 0.0
C1389 C 0.66778 0.40517 0.25782 0.0
C1390 C 0.45536 0.93882 0.99254 0.0
C1391 C 0.41739 0.91064 0.99115 0.0
H1392 H 0.48832 0.99027 1.00671 0.0
C1393 C 0.3867 0.90677 1.00443 0.0
H1394 H 0.4792 0.94222 0.98237 0.0
C1395 C 0.39083 0.93562 1.01814 0.0
C1396 C 0.42611 0.96744 1.01854 0.0
H1397 H 0.35702 0.88513 1.0034 0.0
H1398 H 0.36515 0.93522 1.02775 0.0
C1399 C 0.46001 0.96669 1.00627 0.0
C1400 C 0.95627 0.40932 0.97983 0.0
C1401 C 0.94357 0.44637 0.96989 0.0
H1402 H 0.98344 0.3885 1.00329 0.0
C1403 C 0.95997 0.48965 0.97365 0.0
H1404 H 0.94348 0.37563 0.97711 0.0
C1405 C 0.98425 0.49662 0.98836 0.0
C1406 C 0.99081 0.46057 0.99947 0.0
H1407 H 0.95035 0.51843 0.96608 0.0
H1408 H 0.99293 0.53094 0.99196 0.0
C1409 C 0.9792 0.41651 0.99473 0.0
C1410 C 0.46807 0.2083 0.7251 0.0
C1411 C 0.42908 0.19517 0.71616 0.0
H1412 H 0.49278 0.2377 0.74767 0.0
C1413 C 0.38705 0.21478 0.71991 0.0
H1414 H 0.50088 0.19326 0.72236 0.0
C1415 C 0.38292 0.24197 0.73402 0.0
C1416 C 0.42041 0.24778 0.74465 0.0
H1417 H 0.35686 0.20506 0.71304 0.0
H1418 H 0.34934 0.25284 0.73785 0.0
C1419 C 0.46361 0.23386 0.73953 0.0
C1420 C 0.67449 0.71977 0.48281 0.0
C1421 C 0.68424 0.68321 0.47223 0.0
H1422 H 0.64674 0.73977 0.50621 0.0
C1423 C 0.66252 0.64158 0.47461 0.0
H1424 H 0.69113 0.75223 0.48107 0.0
C1425 C 0.63573 0.63502 0.48873 0.0
C1426 C 0.63185 0.66974 0.50057 0.0
H1427 H 0.66963 0.61329 0.46645 0.0
H1428 H 0.62293 0.60136 0.49139 0.0
C1429 C 0.64888 0.71288 0.49708 0.0
C1430 C 0.16671 0.88107 0.23861 0.0
C1431 C 0.21117 0.86899 0.24294 0.0
H1432 H 0.12536 0.92209 0.22281 0.0
C1433 C 0.24703 0.87847 0.23201 0.0
H1434 H 0.13875 0.87444 0.24702 0.0
C1435 C 0.2399 0.90757 0.21859 0.0
C1436 C 0.19644 0.92523 0.21576 0.0
H1437 H 0.28153 0.86894 0.23522 0.0
H1438 H 0.26879 0.92008 0.21164 0.0
C1439 C 0.15924 0.90857 0.22484 0.0
C1440 C 0.63085 1.00035 0.98403 0.0
C1441 C 0.62293 0.96326 0.99454 0.0
H1442 H 0.66842 1.0241 0.96288 0.0
C1443 C 0.63339 0.91951 0.98913 0.0
H1444 H 0.62263 1.03436 0.98809 0.0
C1445 C 0.65782 0.91361 0.97451 0.0
C1446 C 0.67337 0.95163 0.96565 0.0
H1447 H 0.62788 0.89061 0.99717 0.0
H1448 H 0.67034 0.88 0.97156 0.0
C1449 C 0.65694 0.99466 0.9697 0.0
C1450 C 0.45968 0.39324 0.24666 0.0
C1451 C 0.41585 0.37784 0.25032 0.0
H1452 H 0.50014 0.43408 0.23053 0.0
C1453 C 0.3808 0.3829 0.23859 0.0
H1454 H 0.48685 0.39021 0.25572 0.0
C1455 C 0.38789 0.40932 0.22445 0.0
C1456 C 0.43035 0.42952 0.22192 0.0
H1457 H 0.34659 0.37152 0.2414 0.0
H1458 H 0.35943 0.41749 0.21643 0.0
C1459 C 0.46707 0.41854 0.23236 0.0
C1460 C 0.9735 0.14226 0.48557 0.0
C1461 C 0.96923 0.17428 0.4984 0.0
H1462 H 0.94512 0.11775 0.46257 0.0
C1463 C 0.94108 0.21193 0.49632 0.0
H1464 H 0.99516 0.11286 0.4871 0.0
C1465 C 0.91346 0.21492 0.4824 0.0
C1466 C 0.91288 0.17966 0.47068 0.0
H1467 H 0.93738 0.2368 0.50613 0.0
H1468 H 0.88958 0.24282 0.48151 0.0
C1469 C 0.94475 0.14462 0.47173 0.0
C1470 C 0.22758 0.70503 0.7268 0.0
C1471 C 0.19451 0.67115 0.72534 0.0
H1472 H 0.25833 0.75349 0.74322 0.0
C1473 C 0.16031 0.66712 0.73739 0.0
H1474 H 0.25339 0.70915 0.71735 0.0
C1475 C 0.16285 0.69213 0.7519 0.0
C1476 C 0.19913 0.72196 0.75436 0.0
H1477 H 0.13355 0.64201 0.73611 0.0
H1478 H 0.13894 0.68509 0.7618 0.0
C1479 C 0.22982 0.7307 0.74138 0.0
C1480 C 0.63733 0.20773 0.74986 0.0
C1481 C 0.62567 0.16346 0.7454 0.0
H1482 H 0.67759 0.24894 0.76598 0.0
C1483 C 0.63493 0.12767 0.75635 0.0
H1484 H 0.63079 0.23565 0.74146 0.0
C1485 C 0.66367 0.13472 0.76993 0.0
C1486 C 0.68096 0.1781 0.77296 0.0
H1487 H 0.62546 0.09337 0.75306 0.0
H1488 H 0.67629 0.10589 0.77686 0.0
C1489 C 0.66427 0.21515 0.76383 0.0
C1490 C 0.1657 0.39472 0.99134 0.0
C1491 C 0.20991 0.37936 0.98834 0.0
H1492 H 0.12373 0.43713 1.00641 0.0
C1493 C 0.24408 0.3864 1.00027 0.0
H1494 H 0.1392 0.39022 0.98211 0.0
C1495 C 0.23586 0.41478 1.01383 0.0
C1496 C 0.19298 0.43466 1.01566 0.0
H1497 H 0.27847 0.37479 0.99799 0.0
H1498 H 0.26373 0.42438 1.02192 0.0
C1499 C 0.15711 0.42187 1.0051 0.0
C1500 C 0.99188 0.91499 0.25014 0.0
C1501 C 1.00039 0.95966 0.24536 0.0
H1502 H 0.95652 0.87227 0.26711 0.0
C1503 C 0.9911 0.9953 0.25638 0.0
H1504 H 0.99853 0.8872 0.24168 0.0
C1505 C 0.9656 0.98709 0.27065 0.0
C1506 C 0.95098 0.94302 0.27409 0.0
H1507 H 0.998 1.03 0.25281 0.0
H1508 H 0.95291 1.01536 0.27785 0.0
C1509 C 0.96787 0.9066 0.26468 0.0
C1510 C 0.46714 0.70932 0.50721 0.0
C1511 C 0.42899 0.69763 0.51678 0.0
H1512 H 0.49005 0.73778 0.48429 0.0
C1513 C 0.38684 0.71751 0.51338 0.0
H1514 H 0.5 0.69401 0.5097 0.0
C1515 C 0.3816 0.74395 0.49912 0.0
C1516 C 0.41821 0.74922 0.48812 0.0
H1517 H 0.35731 0.70888 0.52074 0.0
H1518 H 0.34774 0.75491 0.49559 0.0
C1519 C 0.46163 0.73456 0.49276 0.0
C1520 C 0.46092 0.13353 0.26433 0.0
C1521 C 0.44142 0.17623 0.2667 0.0
H1522 H 0.50018 0.09197 0.24791 0.0
C1523 C 0.45478 0.21274 0.25665 0.0
H1524 H 0.45091 0.1052 0.27204 0.0
C1525 C 0.48176 0.20506 0.24277 0.0
C1526 C 0.49643 0.16112 0.23915 0.0
H1527 H 0.4398 0.24599 0.25837 0.0
H1528 H 0.48649 0.2322 0.23388 0.0
C1529 C 0.48915 0.12618 0.25066 0.0
C1530 C 0.73913 0.71548 1.0201 0.0
C1531 C 0.6975 0.6947 1.02362 0.0
H1532 H 0.7761 0.75551 1.00255 0.0
C1533 C 0.65828 0.70755 1.01478 0.0
H1534 H 0.76948 0.70598 1.0269 0.0
C1535 C 0.66228 0.73414 1.0006 0.0
C1536 C 0.70521 0.74926 0.99563 0.0
H1537 H 0.62578 0.69163 1.01736 0.0
H1538 H 0.63308 0.73779 0.99246 0.0
C1539 C 0.74273 0.7437 1.00626 0.0
C1540 C 0.18113 0.97628 0.76277 0.0
C1541 C 0.2177 0.94592 0.76332 0.0
H1542 H 0.12929 1.00571 0.74736 0.0
C1543 C 0.22444 0.91526 0.75022 0.0
H1544 H 0.17472 0.99911 0.77303 0.0
C1545 C 0.19854 0.91839 0.73592 0.0
C1546 C 0.16514 0.9518 0.73459 0.0
H1547 H 0.25127 0.89008 0.75075 0.0
H1548 H 0.20687 0.89692 0.72544 0.0
C1549 C 0.15476 0.9793 0.74833 0.0
C1550 C 0.96343 0.40889 0.51339 0.0
C1551 C 0.9266 0.4262 0.52252 0.0
H1552 H 0.9834 0.37645 0.4908 0.0
C1553 C 0.88255 0.41065 0.5192 0.0
H1554 H 0.99776 0.42079 0.51578 0.0
C1555 C 0.87474 0.3834 0.5053 0.0
C1556 C 0.91063 0.37367 0.49441 0.0
H1557 H 0.85396 0.42363 0.52619 0.0
H1558 H 0.84002 0.37556 0.50179 0.0
C1559 C 0.95537 0.38337 0.49914 0.0
C1560 C 0.47966 0.91477 0.49765 0.0
C1561 C 0.49599 0.95817 0.50128 0.0
H1562 H 0.4374 0.87509 0.48165 0.0
C1563 C 0.49137 0.99298 0.48953 0.0
H1564 H 0.48232 0.88778 0.50671 0.0
C1565 C 0.46431 0.98623 0.47544 0.0
C1566 C 0.44304 0.94435 0.47301 0.0
H1567 H 0.50347 1.02685 0.49231 0.0
H1568 H 0.45654 1.01457 0.46739 0.0
C1569 C 0.45366 0.90774 0.48343 0.0
C1570 C 0.88999 0.71848 0.23517 0.0
C1571 C 0.92191 0.71184 0.24797 0.0
H1572 H 0.86399 0.69297 0.21194 0.0
C1573 C 0.95816 0.68197 0.2457 0.0
H1574 H 0.86163 0.74148 0.23684 0.0
C1575 C 0.95951 0.65496 0.23166 0.0
C1576 C 0.92402 0.65681 0.21995 0.0
H1577 H 0.98301 0.67651 0.25546 0.0
H1578 H 0.98624 0.62982 0.23062 0.0
C1579 C 0.89079 0.69052 0.22114 0.0
C1580 C 0.15872 0.13705 0.97608 0.0
C1581 C 0.18049 0.17867 0.9737 0.0
H1582 H 0.1173 0.09774 0.99254 0.0
C1583 C 0.16852 0.21607 0.98354 0.0
H1584 H 0.16753 0.10811 0.96848 0.0
C1585 C 0.14074 0.21008 0.99733 0.0
C1586 C 0.12404 0.16693 1.00109 0.0
H1587 H 0.18513 0.24854 0.98178 0.0
H1588 H 0.13714 0.23767 1.00612 0.0
C1589 C 0.12982 0.13139 0.98969 0.0
C1590 C 0.73219 0.4378 0.72307 0.0
C1591 C 0.69928 0.47206 0.72332 0.0
H1592 H 0.76462 0.38528 0.73722 0.0
C1593 C 0.66742 0.47381 0.73627 0.0
H1594 H 0.75606 0.43531 0.7129 0.0
C1595 C 0.67198 0.44561 0.74989 0.0
C1596 C 0.7079 0.41474 0.75057 0.0
H1597 H 0.64054 0.49898 0.7363 0.0
H1598 H 0.64973 0.45047 0.76045 0.0
C1599 C 0.73641 0.40889 0.73675 0.0
C1600 C 0.0696 0.26631 0.441 0.0
C1601 C 0.1107 0.29341 0.44127 0.0
H1602 H 0.99505 0.26008 0.44075 0.0
C1603 C 0.09963 0.34073 0.44154 0.0
H1604 H 0.07341 0.22983 0.44095 0.0
C1605 C 1.05289 0.35857 0.44169 0.0
C1606 C 1.01178 0.33149 0.44127 0.0
H1607 H 0.12744 0.3648 0.44201 0.0
H1608 H 1.04908 0.39502 0.4422 0.0
C1609 C 1.02286 0.28417 0.44085 0.0
C1610 C 1.02107 0.80499 0.68536 0.0
C1611 C 1.04785 0.76389 0.68516 0.0
H1612 H 1.0156 0.87918 0.6855 0.0
C1613 C 0.09557 0.77481 0.68507 0.0
H1614 H 0.98439 0.80147 0.68551 0.0
C1615 C 0.11407 0.82126 0.68521 0.0
C1616 C 0.08725 0.86236 0.68533 0.0
H1617 H 0.11954 0.747 0.68499 0.0
H1618 H 0.15074 0.8248 0.68523 0.0
C1619 C 1.03956 0.8514 0.68537 0.0
C1620 C 0.54722 0.86336 0.9403 0.0
C1621 C 0.50618 0.83666 0.94176 0.0
H1622 H 0.62168 0.8686 0.93927 0.0
C1623 C 0.51697 0.78957 0.94352 0.0
H1624 H 0.54355 0.89969 0.93905 0.0
C1625 C 0.56335 0.77132 0.94386 0.0
C1626 C 0.60442 0.79779 0.94221 0.0
H1627 H 0.48912 0.76603 0.94495 0.0
H1628 H 0.56687 0.73509 0.94551 0.0
C1629 C 0.59375 0.84499 0.94039 0.0
C1630 C 0.51933 0.29709 0.18655 0.0
C1631 C 0.54707 0.25664 0.1863 0.0
H1632 H 0.51233 0.37112 0.18655 0.0
C1633 C 0.59443 0.26817 0.18576 0.0
H1634 H 0.48276 0.29281 0.18708 0.0
C1635 C 0.61188 0.31482 0.18569 0.0
C1636 C 0.58414 0.35527 0.18585 0.0
H1637 H 0.61887 0.24082 0.18569 0.0
H1638 H 0.64847 0.31909 0.18557 0.0
C1639 C 0.53675 0.34375 0.1862 0.0
C1640 C 1.02591 0.82996 0.29607 0.0
C1641 C 1.01493 0.78278 0.29742 0.0
H1642 H 0.0761 0.88432 0.29423 0.0
C1643 C 1.05591 0.75581 0.29832 0.0
H1644 H 0.99812 0.85377 0.29516 0.0
C1645 C 0.10256 0.77395 0.29804 0.0
C1646 C 0.11344 0.8212 0.29658 0.0
H1647 H 1.0521 0.71942 0.29924 0.0
H1648 H 0.1304 0.75012 0.2987 0.0
C1649 C 0.07242 0.848 0.29553 0.0
C1650 C 0.59078 0.85085 0.5535 0.0
C1651 C 0.54337 0.8622 0.55371 0.0
H1652 H 0.64474 0.79994 0.55277 0.0
C1653 C 0.51562 0.82175 0.55382 0.0
H1654 H 0.61521 0.87831 0.55319 0.0
C1655 C 0.53304 0.77519 0.55386 0.0
C1656 C 0.58037 0.76376 0.55346 0.0
H1657 H 0.47902 0.82596 0.55382 0.0
H1658 H 0.50863 0.74781 0.55391 0.0
C1659 C 0.60817 0.80421 0.55323 0.0
C1660 C 0.60968 0.28794 0.79716 0.0
C1661 C 0.62064 0.33501 0.79909 0.0
H1662 H 0.55962 0.23353 0.79492 0.0
C1663 C 0.57952 0.36165 0.80055 0.0
H1664 H 0.6375 0.26433 0.79576 0.0
C1665 C 0.53286 0.34332 0.80028 0.0
C1666 C 0.52201 0.29615 0.7983 0.0
H1667 H 0.58321 0.39795 0.80193 0.0
H1668 H 0.50496 0.36698 0.80142 0.0
C1669 C 0.56317 0.26974 0.79667 0.0
C1670 C 1.02913 0.27504 1.05255 0.0
C1671 C 0.0765 0.26369 1.05347 0.0
H1672 H 0.97508 0.32574 1.0511 0.0
C1673 C 0.10409 0.30427 1.05403 0.0
H1674 H 1.00484 0.2476 1.05183 0.0
C1675 C 0.08651 0.35087 1.05384 0.0
C1676 C 1.03916 0.3622 1.05273 0.0
H1677 H 0.14067 0.30014 1.05458 0.0
H1678 H 0.11085 0.37835 1.05426 0.0
C1679 C 1.0116 0.32162 1.05207 0.0
C1680 C 0.09756 0.83664 0.80249 0.0
C1681 C 0.10826 0.78932 0.80389 0.0
H1682 H 1.0476 0.8914 0.80088 0.0
C1683 C 0.06697 0.7628 0.80503 0.0
H1684 H 0.12559 0.86029 0.80142 0.0
C1685 C 1.02043 0.78129 0.80492 0.0
C1686 C 1.00975 0.82861 0.80343 0.0
H1687 H 0.07045 0.7264 0.80605 0.0
H1688 H 0.9924 0.75764 0.80586 0.0
C1689 C 1.05105 0.85506 0.80217 0.0
C1690 C 1.01758 0.30688 0.54739 0.0
C1691 C 1.04427 0.26578 0.54751 0.0
H1692 H 1.0125 0.38098 0.54705 0.0
C1693 C 0.09196 0.27646 0.5472 0.0
H1694 H 0.98089 0.3035 0.54745 0.0
C1695 C 0.11068 0.32269 0.54685 0.0
C1696 C 0.08401 0.3638 0.54692 0.0
H1697 H 0.11574 0.24864 0.54704 0.0
H1698 H 0.14735 0.32604 0.54651 0.0
C1699 C 1.03629 0.35314 0.54718 0.0
C1700 C 0.56885 0.26561 0.30219 0.0
C1701 C 0.60942 0.29325 0.30303 0.0
H1702 H 0.49454 0.25862 0.30154 0.0
C1703 C 0.59789 0.34034 0.30391 0.0
H1704 H 0.57315 0.22926 0.30134 0.0
C1705 C 0.55108 0.35767 0.30377 0.0
C1706 C 0.51052 0.33001 0.30305 0.0
H1707 H 0.62537 0.36464 0.30446 0.0
H1708 H 0.54676 0.39408 0.30421 0.0
C1709 C 0.52203 0.28289 0.30234 0.0
C1710 C 0.61236 0.818 1.04774 0.0
C1711 C 0.58473 0.85858 1.04777 0.0
H1712 H 0.61937 0.74396 1.04771 0.0
C1713 C 0.53729 0.84705 1.04772 0.0
H1714 H 0.64897 0.82218 1.04761 0.0
C1715 C 0.51983 0.80031 1.0475 0.0
C1716 C 0.54751 0.75974 1.0476 0.0
H1717 H 0.51283 0.87447 1.04751 0.0
H1718 H 0.48323 0.79606 1.04717 0.0
C1719 C 0.59491 0.77132 1.04782 0.0
C1720 C 0.10681 0.27716 0.93434 0.0
C1721 C 0.11752 0.32431 0.93602 0.0
H1722 H 1.05663 0.22249 0.93339 0.0
C1723 C 0.07657 0.351 0.93761 0.0
H1724 H 0.13469 0.25359 0.93308 0.0
C1725 C 1.03013 0.33282 0.93744 0.0
C1726 C 1.01944 0.28564 0.93594 0.0
H1727 H 0.08028 0.38728 0.93909 0.0
H1728 H 1.00225 0.35639 0.93886 0.0
C1729 C 1.06036 0.25887 0.93448 0.0
C1730 C 0.58963 0.34934 0.69147 0.0
C1731 C 0.5421 0.36045 0.69134 0.0
H1732 H 0.64403 0.29882 0.69222 0.0
C1733 C 0.51475 0.31966 0.69145 0.0
H1734 H 0.61388 0.37697 0.69164 0.0
C1735 C 0.53254 0.27315 0.69152 0.0
C1736 C 0.58 0.26199 0.6918 0.0
H1737 H 0.47812 0.32353 0.69155 0.0
H1738 H 0.50827 0.24559 0.6917 0.0
C1739 C 0.60741 0.30277 0.69184 0.0
C1740 C 0.60427 0.79035 0.43663 0.0
C1741 C 0.61511 0.83732 0.43444 0.0
H1742 H 0.55434 0.73589 0.4389 0.0
C1743 C 0.57402 0.86377 0.43254 0.0
H1744 H 0.63213 0.76696 0.43835 0.0
C1745 C 0.52743 0.84532 0.43267 0.0
C1746 C 0.51671 0.79824 0.43497 0.0
H1747 H 0.57768 0.89998 0.43087 0.0
H1748 H 0.49949 0.86874 0.43109 0.0
C1749 C 0.55785 0.77202 0.43697 0.0
C1750 C 1.01238 0.81882 0.19201 0.0
C1751 C 1.04019 0.85934 0.19185 0.0
H1752 H 1.00509 0.74468 0.192 0.0
C1753 C 0.08755 0.84763 0.19157 0.0
H1754 H 0.97581 0.82315 0.19239 0.0
C1755 C 0.10484 0.80089 0.1916 0.0
C1756 C 0.07706 0.76035 0.19161 0.0
H1757 H 0.11213 0.87493 0.19166 0.0
H1758 H 0.14143 0.79661 0.19168 0.0
C1759 C 1.02966 0.77203 0.19175 0.0
C1760 C 0.3298 0.32419 0.38566 0.0
C1761 C 0.29637 0.28969 0.38909 0.0
H1762 H 0.36698 0.36724 0.36818 0.0
C1763 C 0.27541 0.27405 0.37403 0.0
H1764 H 0.34794 0.33878 0.39608 0.0
C1765 C 0.28686 0.291 0.35742 0.0
C1766 C 0.32031 0.32556 0.35402 0.0
H1767 H 0.24955 0.24803 0.37496 0.0
H1768 H 0.26881 0.27642 0.34698 0.0
C1769 C 0.34113 0.34121 0.3691 0.0
C1770 C 1.05682 0.10937 0.61234 0.0
C1771 C 1.04901 0.07686 0.59939 0.0
H1772 H 0.07659 0.12512 0.63787 0.0
C1773 C 1.0572 1.03148 0.60503 0.0
H1774 H 1.05138 0.1448 0.60952 0.0
C1775 C 0.07211 1.01983 0.62179 0.0
C1776 C 0.0802 1.05233 0.63471 0.0
H1777 H 1.05204 1.00405 0.59631 0.0
H1778 H 0.07755 0.98438 0.6246 0.0
C1779 C 0.07162 0.09771 0.62913 0.0
C1780 C 0.2734 0.81756 0.8851 0.0
C1781 C 0.31865 0.82698 0.89088 0.0
H1782 H 0.22704 0.79604 0.86534 0.0
C1783 C 0.35182 0.81956 0.87814 0.0
H1784 H 0.24553 0.82214 0.89369 0.0
C1785 C 0.3409 0.80401 0.86139 0.0
C1786 C 0.29565 0.79455 0.85561 0.0
H1787 H 0.38722 0.82583 0.8811 0.0
H1788 H 0.36877 0.79936 0.85281 0.0
C1789 C 0.26244 0.80225 0.86832 0.0
C1790 C 0.53529 0.08829 0.12017 0.0
C1791 C 0.55061 0.06739 0.13524 0.0
H1792 H 0.5383 0.09515 1.09322 0.0
C1793 C 0.5851 1.03385 0.13191 0.0
H1794 H 0.50937 0.11423 0.12105 0.0
C1795 C 0.60228 1.02236 1.11536 0.0
C1796 C 0.58699 1.04341 1.1003 0.0
H1797 H 0.59941 1.01577 0.14237 0.0
H1798 H 0.62821 0.99644 1.11445 0.0
C1799 C 0.55258 0.07695 1.10365 0.0
C1800 C 0.34721 0.77568 0.36827 0.0
C1801 C 0.32715 0.7928 0.38322 0.0
H1802 H 0.35277 0.77583 0.34123 0.0
C1803 C 0.29398 0.82738 0.37962 0.0
H1804 H 0.37279 0.74946 0.36938 0.0
C1805 C 0.28209 0.84313 0.36292 0.0
C1806 C 0.30217 0.82602 0.34796 0.0
H1807 H 0.27653 0.84296 0.38996 0.0
H1808 H 0.2565 0.86934 0.3618 0.0
C1809 C 0.33533 0.79142 0.35157 0.0
C1810 C 0.59136 0.09766 0.62584 0.0
C1811 C 0.57913 0.07402 0.64073 0.0
H1812 H 0.5861 0.10628 0.59897 0.0
C1813 C 0.54798 1.03753 0.6372 0.0
H1814 H 0.61464 0.12597 0.6269 0.0
C1815 C 0.53097 1.02582 0.62063 0.0
C1816 C 0.5432 1.04944 0.60574 0.0
H1817 H 0.53619 1.01722 0.64751 0.0
H1818 H 0.50769 0.99751 0.61958 0.0
C1819 C 0.57434 0.08596 0.60927 0.0
C1820 C 0.29792 0.32237 0.85339 0.0
C1821 C 0.33378 0.29057 0.84988 0.0
H1822 H 0.25808 0.36242 0.87102 0.0
C1823 C 0.35631 0.27659 0.86485 0.0
H1824 H 0.27846 0.33545 0.84304 0.0
C1825 C 0.34411 0.29263 0.88148 0.0
C1826 C 0.30824 0.32448 0.88497 0.0
H1827 H 0.38404 0.25264 0.86381 0.0
H1828 H 0.36352 0.27955 0.89185 0.0
C1829 C 0.28581 0.33846 0.87 0.0
C1830 C 1.0401 1.04102 1.1088 0.0
C1831 C 0.07556 0.07356 1.10547 0.0
H1832 H 0.99678 1.00393 0.12626 0.0
C1833 C 0.09261 0.09288 0.1206 0.0
H1834 H 1.02446 1.02415 1.09831 0.0
C1835 C 0.07598 0.081 0.13717 0.0
C1836 C 1.04058 1.04844 0.1405 0.0
H1837 H 0.11941 0.11795 1.11973 0.0
H1838 H 0.09157 0.09795 0.14765 0.0
C1839 C 1.02358 1.029 0.12538 0.0
C1840 C 0.827 0.82458 0.88673 0.0
C1841 C 0.79156 0.79238 0.89032 0.0
H1842 H 0.86585 0.86531 0.86903 0.0
C1843 C 0.76921 0.77776 0.87538 0.0
H1844 H 0.84627 0.83819 0.89706 0.0
C1845 C 0.78113 0.79366 0.85871 0.0
C1846 C 0.81632 0.82623 0.85517 0.0
H1847 H 0.74185 0.75338 0.87648 0.0
H1848 H 0.76196 0.78006 0.84836 0.0
C1849 C 0.83862 0.84076 0.8701 0.0
C1850 C 0.78852 0.30215 0.38572 0.0
C1851 C 0.82484 0.33362 0.38916 0.0
H1852 H 0.74853 0.26144 0.36825 0.0
C1853 C 0.84814 0.34607 0.37421 0.0
H1854 H 0.76846 0.29017 0.39608 0.0
C1855 C 0.83621 0.32896 0.35766 0.0
C1856 C 0.79986 0.29745 0.35425 0.0
H1857 H 0.87629 0.36961 0.37519 0.0
H1858 H 0.85621 0.34093 0.34729 0.0
C1859 C 0.77667 0.28499 0.36921 0.0
C1860 C 0.77906 0.32407 0.86358 0.0
C1861 C 0.80945 0.32234 0.8497 0.0
H1862 H 0.76468 0.31124 0.88973 0.0
C1863 C 0.8523 0.30226 0.85421 0.0
H1864 H 0.74564 0.3386 0.86167 0.0
C1865 C 0.86344 0.28549 0.87084 0.0
C1866 C 0.83306 0.28758 0.88475 0.0
H1867 H 0.87804 0.29919 0.84469 0.0
H1868 H 0.89684 0.27095 0.87278 0.0
C1869 C 0.79039 0.30789 0.88022 0.0
C1870 C 0.7707 0.8177 0.37116 0.0
C1871 C 0.80373 0.82519 0.38401 0.0
H1872 H 0.75401 0.79752 0.34578 0.0
C1873 C 0.84901 0.81544 0.37842 0.0
H1874 H 0.7353 0.82418 0.37398 0.0
C1875 C 0.8601 0.79982 0.36171 0.0
C1876 C 0.82705 0.79237 0.34886 0.0
H1877 H 0.87678 0.82006 0.3871 0.0
H1878 H 0.89551 0.79341 0.35887 0.0
C1879 C 0.78179 0.80206 0.35446 0.0
C1880 C 0.60025 0.52619 1.11894 0.0
C1881 C 0.58332 0.54558 0.13404 0.0
H1882 H 0.59908 0.5211 1.09188 0.0
C1883 C 0.54797 0.57818 0.13067 0.0
H1884 H 0.62696 0.50106 1.11985 0.0
C1885 C 0.53141 0.5902 1.11407 0.0
C1886 C 0.54828 0.57072 1.09897 0.0
H1887 H 0.53242 0.5951 0.14114 0.0
H1888 H 0.50469 0.61531 1.11315 0.0
C1889 C 0.58359 0.53809 1.10234 0.0
C1890 C 1.0589 0.60833 0.62046 0.0
C1891 C 1.05014 0.57545 0.63317 0.0
H1892 H 0.07898 0.62474 0.59507 0.0
C1893 C 1.0575 0.53015 0.62727 0.0
H1894 H 1.05425 0.64376 0.6235 0.0
C1895 C 0.07223 0.51889 0.61046 0.0
C1896 C 0.08085 0.55176 0.59774 0.0
H1897 H 1.05179 0.50247 0.63582 0.0
H1898 H 0.0769 0.48346 0.60744 0.0
C1899 C 0.07341 0.59706 0.60362 0.0
C1900 C 1.04359 0.54118 0.13559 0.0
C1901 C 0.0778 0.57496 0.13904 0.0
H1902 H 1.00054 0.50371 1.11808 0.0
C1903 C 0.09285 0.59625 0.12401 0.0
H1904 H 1.02948 0.52277 0.14599 0.0
C1905 C 0.07563 0.5848 1.10741 0.0
C1906 C 1.04135 0.55103 1.10398 0.0
H1907 H 0.11861 0.62237 0.12496 0.0
H1908 H 0.08977 0.60312 1.097 0.0
C1909 C 1.02629 0.52985 1.11902 0.0
C1910 C 0.5703 0.58358 0.63543 0.0
C1911 C 0.5392 0.54693 0.63875 0.0
H1912 H 0.61077 0.62408 0.61812 0.0
C1913 C 0.52717 0.52368 0.62371 0.0
H1914 H 0.58195 0.60368 0.64584 0.0
C1915 C 0.54427 0.53596 0.60721 0.0
C1916 C 0.57545 0.57261 0.60392 0.0
H1917 H 0.50391 0.49533 0.62458 0.0
H1918 H 0.53258 0.51596 0.59677 0.0
C1919 C 0.58752 0.59572 0.61897 0.0
C1920 C 0.38308 0.12716 0.48028 0.0
C1921 C 0.35096 0.16127 0.48543 0.0
H1922 H 0.43399 0.07524 0.48598 0.0
C1923 C 0.35144 0.16273 0.50357 0.0
H1924 H 0.38723 0.12176 0.46709 0.0
C1925 C 0.37936 0.13453 0.51505 0.0
C1926 C 0.41143 0.1004 0.50989 0.0
H1927 H 0.32947 0.18733 0.50932 0.0
H1928 H 0.37551 0.14023 0.52823 0.0
C1929 C 0.4111 0.09903 0.49175 0.0
C1930 C 0.27469 0.16676 0.73651 0.0
C1931 C 0.27965 0.16238 0.7545 0.0
H1932 H 0.24676 0.14646 0.71213 0.0
C1933 C 0.25182 0.12458 0.75967 0.0
H1934 H 0.29296 0.19424 0.73074 0.0
C1935 C 0.22361 0.09588 0.74834 0.0
C1936 C 0.21893 0.10024 0.73032 0.0
H1937 H 0.25152 0.1164 0.77275 0.0
H1938 H 0.20437 0.069 0.75413 0.0
C1939 C 0.24663 0.13809 0.7252 0.0
C1940 C 0.20515 1.02214 0.99286 0.0
C1941 C 0.20587 1.0221 1.01097 0.0
H1942 H 0.22855 0.99842 0.96834 0.0
C1943 C 0.23932 0.98952 1.01635 0.0
H1944 H 0.18113 1.04465 0.98698 0.0
C1945 C 0.26778 0.96152 1.00502 0.0
C1946 C 0.2671 0.96181 0.98689 0.0
H1947 H 0.24407 0.98514 1.02956 0.0
H1948 H 0.29117 0.93825 1.01089 0.0
C1949 C 0.2335 0.99419 0.98155 0.0
C1950 C 0.38617 0.98774 0.25843 0.0
C1951 C 0.35558 0.95257 0.25294 0.0
H1952 H 0.43584 1.04118 0.25328 0.0
C1953 C 0.35784 0.9506 0.23482 0.0
H1954 H 0.38874 0.99372 0.27164 0.0
C1955 C 0.38606 0.9793 0.22365 0.0
C1956 C 0.41648 1.01461 0.22914 0.0
H1957 H 0.33709 0.92526 0.2288 0.0
H1958 H 0.38371 0.97314 0.21045 0.0
C1959 C 0.41437 1.01645 0.24726 0.0
C1960 C 0.7321 0.9875 0.76587 0.0
C1961 C 0.76978 0.95958 0.76074 0.0
H1962 H 0.67641 1.03436 0.76031 0.0
C1963 C 0.77424 0.96408 0.74273 0.0
H1964 H 0.72382 0.98791 0.77894 0.0
C1965 C 0.74573 0.99214 0.73138 0.0
C1966 C 0.70811 1.02019 0.73653 0.0
H1967 H 0.80109 0.94477 0.73696 0.0
H1968 H 0.75394 0.99162 0.71831 0.0
C1969 C 0.70364 1.01563 0.75453 0.0
C1970 C 0.91797 1.02442 0.48528 0.0
C1971 C 0.91521 1.02647 0.50336 0.0
H1972 H 0.89632 0.99867 0.46076 0.0
C1973 C 0.87971 0.99589 0.50859 0.0
H1974 H 0.94363 1.0453 0.47949 0.0
C1975 C 0.85132 0.96776 0.49722 0.0
C1976 C 0.85405 0.9658 0.47914 0.0
H1977 H 0.87321 0.99328 0.52176 0.0
H1978 H 0.82613 0.94629 0.50302 0.0
C1979 C 0.88966 0.99624 0.47392 0.0
C1980 C 0.91063 0.10102 0.25385 0.0
C1981 C 0.91182 0.102 0.23571 0.0
H1982 H 0.88578 0.1244 0.27827 0.0
C1983 C 0.88043 0.13645 0.23023 0.0
H1984 H 0.93283 0.07702 0.25987 0.0
C1985 C 0.85226 0.16518 0.24143 0.0
C1986 C 0.85098 0.16409 0.25956 0.0
H1987 H 0.87727 0.14194 0.21702 0.0
H1988 H 0.83073 0.18987 0.23543 0.0
C1989 C 0.88244 0.12972 0.26504 0.0
C1990 C 0.75502 0.12716 1.00995 0.0
C1991 C 0.71744 0.09912 1.00472 0.0
H1992 H 0.8105 0.17435 1.0044 0.0
C1993 C 0.71313 0.10327 0.98672 0.0
H1994 H 0.76293 0.12805 1.02306 0.0
C1995 C 0.74184 0.13093 0.9754 0.0
C1996 C 0.77944 0.15888 0.98063 0.0
H1997 H 0.68572 0.08469 0.98096 0.0
H1998 H 0.73373 0.13029 0.9623 0.0
C1999 C 0.78372 0.1549 0.99863 0.0
C2000 C 0.85232 0.67137 1.00386 0.0
C2001 C 0.84608 0.66611 0.98595 0.0
H2002 H 0.88142 0.65154 1.02811 0.0
C2003 C 0.87211 0.6272 0.98078 0.0
H2004 H 0.83536 0.69977 1.00958 0.0
C2005 C 0.89994 0.59827 0.99204 0.0
C2006 C 0.90612 0.60344 1.00995 0.0
H2007 H 0.87115 0.61826 0.96776 0.0
H2008 H 0.91755 0.57038 0.98627 0.0
C2009 C 0.88019 0.64243 1.01512 0.0
C2010 C 0.71605 0.59419 0.24672 0.0
C2011 C 0.71406 0.59669 0.22865 0.0
H2012 H 0.7416 0.61602 0.27124 0.0
C2013 C 0.74457 0.63209 0.22335 0.0
H2014 H 0.69451 0.56927 0.25254 0.0
C2015 C 0.77283 0.66038 0.23471 0.0
C2016 C 0.77486 0.65764 0.25279 0.0
H2017 H 0.74692 0.63866 0.21018 0.0
H2018 H 0.79369 0.68602 0.22892 0.0
C2019 C 0.74423 0.62241 0.25806 0.0
C2020 C 0.74082 0.49931 0.47973 0.0
C2021 C 0.77082 0.46345 0.48502 0.0
H2022 H 0.69143 0.55279 0.48516 0.0
C2023 C 0.76795 0.46042 0.50311 0.0
H2024 H 0.73872 0.50616 0.46657 0.0
C2025 C 0.73972 0.48872 0.51442 0.0
C2026 C 0.70975 0.52457 0.50912 0.0
H2027 H 0.78813 0.43445 0.50898 0.0
H2028 H 0.74162 0.48172 0.52757 0.0
C2029 C 0.7125 0.52754 0.49104 0.0
C2030 C 0.85529 0.46519 0.73601 0.0
C2031 C 0.8581 0.46381 0.75412 0.0
H2032 H 0.87656 0.49019 0.71138 0.0
C2033 C 0.89324 0.49511 0.75921 0.0
H2034 H 0.83062 0.44298 0.73026 0.0
C2035 C 0.921 0.52342 0.74773 0.0
C2036 C 0.91808 0.5249 0.72963 0.0
H2037 H 0.89997 0.49814 0.77236 0.0
H2038 H 0.94635 0.54492 0.75345 0.0
C2039 C 0.88306 0.49348 0.72454 0.0
C2040 C 0.27436 0.46396 0.2414 0.0
C2041 C 0.26931 0.45909 0.25935 0.0
H2042 H 0.25446 0.49161 0.21696 0.0
C2043 C 0.23092 0.48611 0.2644 0.0
H2044 H 0.30173 0.44522 0.23572 0.0
C2045 C 0.20234 0.51385 0.25299 0.0
C2046 C 0.20753 0.51893 0.23505 0.0
H2047 H 0.22202 0.48591 0.27741 0.0
H2048 H 0.17432 0.53166 0.25864 0.0
C2049 C 0.24581 0.49174 0.22999 0.0
C2050 C 0.38541 0.48502 1.00912 0.0
C2051 C 0.41925 0.51703 1.00366 0.0
H2052 H 0.33328 0.4339 1.0039 0.0
C2053 C 0.4202 0.51593 0.98552 0.0
H2054 H 0.38035 0.48145 1.02234 0.0
C2055 C 0.39176 0.48745 0.9743 0.0
C2056 C 0.35787 0.45552 0.97976 0.0
H2057 H 0.44445 0.53786 0.97951 0.0
H2058 H 0.39694 0.49086 0.96108 0.0
C2059 C 0.35696 0.45652 0.9979 0.0
C2060 C 0.37089 0.62898 0.72952 0.0
C2061 C 0.40668 0.5985 0.73465 0.0
H2062 H 0.31746 0.67846 0.73527 0.0
C2063 C 0.40942 0.60024 0.75274 0.0
H2064 H 0.36433 0.63202 0.71636 0.0
C2065 C 0.38098 0.62777 0.76422 0.0
C2066 C 0.34521 0.65819 0.75914 0.0
H2067 H 0.43536 0.57971 0.75848 0.0
H2068 H 0.38793 0.6251 0.77736 0.0
C2069 C 0.34251 0.65675 0.74101 0.0
C2070 C 0.24719 0.63446 0.50695 0.0
C2071 C 0.21339 0.60224 0.50153 0.0
H2072 H 0.29907 0.6857 0.50172 0.0
C2073 C 0.21233 0.60303 0.48338 0.0
H2074 H 0.25224 0.63833 0.52017 0.0
C2075 C 0.2408 0.63145 0.47215 0.0
C2076 C 0.27475 0.66356 0.47761 0.0
H2077 H 0.18794 0.58095 0.47742 0.0
H2078 H 0.2355 0.6279 0.45893 0.0
C2079 C 0.27554 0.66284 0.49574 0.0
C2080 C 0.10184 1.01547 0.38569 0.0
C2081 C 0.09229 0.06192 0.38739 0.0
H2082 H 0.11689 0.9622 0.36887 0.0
C2083 C 0.07264 0.08491 0.37387 0.0
H2084 H 0.11589 0.99603 0.39586 0.0
C2085 C 0.07375 0.06536 0.3581 0.0
C2086 C 0.09368 1.02251 0.35594 0.0
H2087 H 1.06267 0.12011 0.375 0.0
H2088 H 0.06484 0.08598 0.34747 0.0
C2089 C 0.10246 0.99582 0.37001 0.0
C2090 C 0.15872 1.01966 0.58205 0.0
C2091 C 0.17834 1.05189 0.59277 0.0
H2092 H 0.1652 0.98566 0.55877 0.0
C2093 C 0.20487 0.08661 0.58579 0.0
H2094 H 0.13569 0.99408 0.58674 0.0
C2095 C 0.22166 0.08165 0.56979 0.0
C2096 C 0.21293 1.04135 0.56099 0.0
H2097 H 0.21905 0.11356 0.5933 0.0
H2098 H 0.24802 0.105 0.56593 0.0
C2099 C 0.17535 1.01508 0.56592 0.0
C2100 C 0.36516 0.92938 0.82209 0.0
C2101 C 0.33898 0.96632 0.81651 0.0
H2102 H 0.38318 0.88883 0.84309 0.0
C2103 C 0.29857 0.9765 0.82507 0.0
H2104 H 0.3948 0.91839 0.81521 0.0
C2105 C 0.29204 0.95983 0.84102 0.0
C2106 C 0.32534 0.93212 0.84836 0.0
H2107 H 0.27597 1.00315 0.82093 0.0
H2108 H 0.26474 0.97443 0.84826 0.0
C2109 C 0.35863 0.91258 0.8381 0.0
C2110 C 0.28749 0.31646 1.11527 0.0
C2111 C 0.30745 0.29702 1.1011 0.0
H2112 H 0.29135 0.32095 0.14172 0.0
C2113 C 0.35464 0.28906 1.10134 0.0
H2114 H 0.25189 0.32602 1.11521 0.0
C2115 C 0.37736 0.28655 1.11647 0.0
C2116 C 0.35286 0.29229 0.13128 0.0
H2117 H 0.37223 0.27627 1.09052 0.0
H2118 H 0.41122 0.2721 1.11649 0.0
C2119 C 0.31011 0.31356 0.13049 0.0
C2120 C 0.77615 0.94338 0.88912 0.0
C2121 C 0.76405 0.97627 0.87736 0.0
H2122 H 0.79385 0.93243 0.91435 0.0
C2123 C 0.73938 1.01422 0.88255 0.0
H2124 H 0.79397 0.91319 0.88528 0.0
C2125 C 0.73809 1.02488 0.8994 0.0
C2126 C 0.7634 0.99847 0.91074 0.0
H2127 H 0.72834 1.03944 0.87364 0.0
H2128 H 0.72586 1.05826 0.90274 0.0
C2129 C 0.77552 0.95434 0.90592 0.0
C2130 C 0.90114 1.04292 0.66383 0.0
C2131 C 0.91026 0.08131 0.67366 0.0
H2132 H 0.90312 1.01507 0.63962 0.0
C2133 C 0.94634 0.10979 0.66882 0.0
H2134 H 0.87541 1.01849 0.66733 0.0
C2135 C 0.96247 0.10799 0.65253 0.0
C2136 C 0.94361 0.07671 0.64128 0.0
H2137 H 0.95673 0.13789 0.67662 0.0
H2138 H 0.9854 0.13428 0.6483 0.0
C2139 C 0.91719 1.04099 0.64763 0.0
C2140 C 0.77279 0.90686 0.33005 0.0
C2141 C 0.8062 0.92434 0.34082 0.0
H2142 H 0.73623 0.91828 0.30749 0.0
C2143 C 0.8409 0.95134 0.33403 0.0
H2144 H 0.74729 0.88338 0.33453 0.0
C2145 C 0.83467 0.97096 0.31852 0.0
C2146 C 0.79323 0.96442 0.31007 0.0
H2147 H 0.86878 0.96383 0.34155 0.0
H2148 H 0.85806 0.9976 0.31498 0.0
C2149 C 0.76667 0.9266 0.31447 0.0
C2150 C 0.86503 0.8266 1.11974 0.0
C2151 C 0.84027 0.83349 0.13443 0.0
H2152 H 0.86199 0.82991 1.09343 0.0
C2153 C 0.79335 0.82408 0.13426 0.0
H2154 H 0.90172 0.83044 1.11967 0.0
C2155 C 0.77049 0.82118 1.11912 0.0
C2156 C 0.79437 0.83005 1.10436 0.0
H2157 H 0.77314 0.82666 0.14543 0.0
H2158 H 0.73361 0.82082 1.11919 0.0
C2159 C 0.84205 0.82579 1.1046 0.0
C2160 C 0.82955 0.47788 0.91672 0.0
C2161 C 0.78933 0.46777 0.92543 0.0
H2162 H 0.86273 0.47571 0.89337 0.0
C2163 C 0.76302 0.43076 0.91994 0.0
H2164 H 0.85236 0.50446 0.92081 0.0
C2165 C 0.76869 0.41441 0.90381 0.0
C2166 C 0.80192 0.43372 0.89348 0.0
H2167 H 0.73355 0.41978 0.92692 0.0
H2168 H 0.7437 0.39103 0.89885 0.0
C2169 C 0.83555 0.46129 0.90071 0.0
C2170 C 0.87613 0.32881 0.12189 0.0
C2171 C 0.84939 0.3235 1.10753 0.0
H2172 H 0.87501 0.339 0.14789 0.0
C2173 C 0.80661 0.30257 1.10908 0.0
H2174 H 0.91015 0.34282 0.1213 0.0
C2175 C 0.78625 0.29983 0.12469 0.0
C2176 C 0.80844 0.3192 0.13847 0.0
H2177 H 0.78618 0.29532 1.09819 0.0
H2178 H 0.7506 0.29059 0.12537 0.0
C2179 C 0.85565 0.32646 0.13741 0.0
C2180 C 0.79229 0.65055 0.41413 0.0
C2181 C 0.83129 0.66089 0.42359 0.0
H2182 H 0.76327 0.6497 0.39004 0.0
C2183 C 0.85909 0.69677 0.41813 0.0
H2184 H 0.76815 0.62511 0.41812 0.0
C2185 C 0.85656 0.71091 0.40161 0.0
C2186 C 0.82492 0.6906 0.3908 0.0
H2187 H 0.88751 0.70822 0.42562 0.0
H2188 H 0.88268 0.73338 0.39692 0.0
C2189 C 0.78951 0.66476 0.39771 0.0
C2190 C 0.90396 0.5428 0.57009 0.0
C2191 C 0.91062 0.58288 0.56098 0.0
H2192 H 0.90977 0.51214 0.59371 0.0
C2193 C 0.94801 0.61035 0.5653 0.0
H2194 H 0.87779 0.51866 0.56668 0.0
C2195 C 0.96674 0.60677 0.58119 0.0
C2196 C 0.94895 0.57475 0.59235 0.0
H2197 H 0.95657 0.63968 0.55785 0.0
H2198 H 0.98994 0.63291 0.58539 0.0
C2199 C 0.92256 0.53906 0.5859 0.0
C2200 C 0.56473 0.60441 0.36729 0.0
C2201 C 0.55614 0.58506 0.38292 0.0
H2202 H 0.55696 0.59425 0.3413 0.0
C2203 C 0.56129 0.53786 0.38453 0.0
H2204 H 0.56481 0.6409 0.36578 0.0
C2205 C 0.55925 0.51072 0.37038 0.0
C2206 C 0.55041 0.53111 0.35496 0.0
H2207 H 0.55798 0.52133 0.39645 0.0
H2208 H 0.55506 0.47448 0.37195 0.0
C2209 C 0.56061 0.57741 0.35315 0.0
C2210 C 0.36507 0.78741 0.12097 0.0
C2211 C 0.34221 0.78119 1.1058 0.0
H2212 H 0.3587 0.7836 0.14719 0.0
C2213 C 0.29528 0.79034 1.10515 0.0
H2214 H 0.40171 0.78362 0.12171 0.0
C2215 C 0.27052 0.79278 1.11986 0.0
C2216 C 0.29251 0.78393 0.13503 0.0
H2217 H 0.27651 0.78811 1.09361 0.0
H2218 H 0.23369 0.79317 1.1191 0.0
C2219 C 0.3402 0.78792 0.13567 0.0
C2220 C 0.33505 0.66975 0.90332 0.0
C2221 C 0.2983 0.69468 0.89683 0.0
H2222 H 0.35733 0.62662 0.92265 0.0
C2223 C 0.2658 0.71171 0.90801 0.0
H2224 H 0.36235 0.65767 0.8955 0.0
C2225 C 0.2631 0.69355 0.92398 0.0
C2226 C 0.29185 0.65731 0.92835 0.0
H2227 H 0.2388 0.73387 0.90377 0.0
H2228 H 0.23354 0.70143 0.93145 0.0
C2229 C 0.3322 0.65175 0.91921 0.0
C2230 C 0.20943 0.58126 0.64594 0.0
C2231 C 0.18294 0.54684 0.63869 0.0
H2232 H 0.24983 0.60052 0.6665 0.0
C2233 C 0.16223 0.51482 0.64915 0.0
H2234 H 0.22481 0.60771 0.63854 0.0
C2235 C 0.17675 0.51078 0.66559 0.0
C2236 C 0.21296 0.53785 0.67135 0.0
H2237 H 0.13928 0.48947 0.64419 0.0
H2238 H 0.16494 0.48213 0.67278 0.0
C2239 C 0.22391 0.57709 0.66229 0.0
loop_
_geom_bond_atom_site_label_1
_geom_bond_atom_site_label_2
_geom_bond_distance
_geom_bond_site_symmetry_2
_ccdc_geom_bond_type
Gd0 C3 2.818 . S
Gd0 O20 2.377 . S
Gd0 O22 2.448 . S
Gd0 O23 2.506 . S
Gd0 O24 2.435 . S
Gd0 O25 2.717 . S
Gd0 O27 2.395 . S
Gd0 O31 2.327 . S
Gd1 C12 2.818 . S
Gd1 O21 2.395 . S
Gd1 O25 2.327 . S
Gd1 O26 2.377 . S
Gd1 O28 2.448 . S
Gd1 O29 2.506 . S
Gd1 O30 2.435 . S
Gd1 O31 2.717 . S
C2 O20 1.240 . S
C2 O21 1.240 . S
C3 Gd0 2.818 . S
C3 C4 1.510 . S
C3 O22 1.249 . S
C3 O23 1.252 . S
C4 C3 1.510 . S
C4 C5 1.404 . S
C4 C6 1.352 . S
C5 C4 1.404 . S
C5 C9 1.389 . S
C5 H32 0.930 . S
C6 C4 1.352 . S
C6 C8 1.374 . S
C6 H33 0.931 . S
C7 C8 1.359 . S
C7 C9 1.364 . S
C8 C6 1.374 . S
C8 C7 1.359 . S
C8 H34 0.931 . S
C9 C5 1.389 . S
C9 C7 1.364 . S
C9 H35 0.931 . S
C10 O24 1.256 . S
C10 O25 1.257 . S
C11 O26 1.240 . S
C11 O27 1.240 . S
C12 Gd1 2.818 . S
C12 C13 1.510 . S
C12 O28 1.249 . S
C12 O29 1.252 . S
C13 C12 1.510 . S
C13 C14 1.404 . S
C13 C15 1.352 . S
C14 C13 1.404 . S
C14 C18 1.389 . S
C14 H36 0.930 . S
C15 C13 1.352 . S
C15 C17 1.374 . S
C15 H37 0.931 . S
C16 C17 1.359 . S
C16 C18 1.364 . S
C17 C15 1.374 . S
C17 C16 1.359 . S
C17 H38 0.931 . S
C18 C14 1.389 . S
C18 C16 1.364 . S
C18 H39 0.931 . S
C19 O30 1.256 . S
C19 O31 1.257 . S
O20 Gd0 2.377 . S
O20 C2 1.240 . S
O21 Gd1 2.395 . S
O21 C2 1.240 . S
O22 Gd0 2.448 . S
O22 C3 1.249 . S
O23 Gd0 2.506 . S
O23 C3 1.252 . S
O24 Gd0 2.435 . S
O24 C10 1.256 . S
O25 Gd0 2.717 . S
O25 Gd1 2.327 . S
O25 C10 1.257 . S
O26 Gd1 2.377 . S
O26 C11 1.240 . S
O27 Gd0 2.395 . S
O27 C11 1.240 . S
O28 Gd1 2.448 . S
O28 C12 1.249 . S
O29 Gd1 2.506 . S
O29 C12 1.252 . S
O30 Gd1 2.435 . S
O30 C19 1.256 . S
O31 Gd0 2.327 . S
O31 Gd1 2.717 . S
O31 C19 1.257 . S
H32 C5 0.930 . S
H33 C6 0.931 . S
H34 C8 0.931 . S
H35 C9 0.931 . S
H36 C14 0.930 . S
H37 C15 0.931 . S
H38 C17 0.931 . S
H39 C18 0.931 . S
Gd40 C43 2.818 . S
Gd40 O60 2.377 1_655 S
Gd40 O62 2.448 . S
Gd40 O63 2.506 . S
Gd40 O64 2.435 1_665 S
Gd40 O65 2.717 1_655 S
Gd40 O67 2.395 . S
Gd40 O71 2.327 1_655 S
Gd41 C52 2.818 . S
Gd41 O61 2.395 . S
Gd41 O65 2.327 . S
Gd41 O66 2.377 . S
Gd41 O68 2.448 . S
Gd41 O69 2.506 . S
Gd41 O70 2.435 . S
Gd41 O71 2.717 . S
C42 O60 1.240 . S
C42 O61 1.240 . S
C43 Gd40 2.818 . S
C43 C44 1.510 . S
C43 O62 1.249 . S
C43 O63 1.252 . S
C44 C43 1.510 . S
C44 C45 1.404 . S
C44 C46 1.352 . S
C45 C44 1.404 . S
C45 C49 1.389 . S
C45 H72 0.930 . S
C46 C44 1.352 . S
C46 C48 1.374 . S
C46 H73 0.931 . S
C47 C48 1.359 . S
C47 C49 1.364 . S
C48 C46 1.374 . S
C48 C47 1.359 . S
C48 H74 0.931 . S
C49 C45 1.389 . S
C49 C47 1.364 . S
C49 H75 0.931 . S
C50 O64 1.256 . S
C50 O65 1.257 1_545 S
C51 O66 1.240 . S
C51 O67 1.240 1_455 S
C52 Gd41 2.818 . S
C52 C53 1.510 . S
C52 O68 1.249 . S
C52 O69 1.252 . S
C53 C52 1.510 . S
C53 C54 1.404 . S
C53 C55 1.352 1_565 S
C54 C53 1.404 . S
C54 C58 1.389 . S
C54 H76 0.930 . S
C55 C53 1.352 1_545 S
C55 C57 1.374 . S
C55 H77 0.931 . S
C56 C57 1.359 1_565 S
C56 C58 1.364 . S
C57 C55 1.374 . S
C57 C56 1.359 1_545 S
C57 H78 0.931 . S
C58 C54 1.389 . S
C58 C56 1.364 . S
C58 H79 0.931 . S
C59 O70 1.256 . S
C59 O71 1.257 . S
O60 Gd40 2.377 1_455 S
O60 C42 1.240 . S
O61 Gd41 2.395 . S
O61 C42 1.240 . S
O62 Gd40 2.448 . S
O62 C43 1.249 . S
O63 Gd40 2.506 . S
O63 C43 1.252 . S
O64 Gd40 2.435 1_445 S
O64 C50 1.256 . S
O65 Gd40 2.717 1_455 S
O65 Gd41 2.327 . S
O65 C50 1.257 1_565 S
O66 Gd41 2.377 . S
O66 C51 1.240 . S
O67 Gd40 2.395 . S
O67 C51 1.240 1_655 S
O68 Gd41 2.448 . S
O68 C52 1.249 . S
O69 Gd41 2.506 . S
O69 C52 1.252 . S
O70 Gd41 2.435 . S
O70 C59 1.256 . S
O71 Gd40 2.327 1_455 S
O71 Gd41 2.717 . S
O71 C59 1.257 . S
H72 C45 0.930 . S
H73 C46 0.931 . S
H74 C48 0.931 . S
H75 C49 0.931 . S
H76 C54 0.930 . S
H77 C55 0.931 . S
H78 C57 0.931 . S
H79 C58 0.931 . S
Gd80 C83 2.818 . S
Gd80 O100 2.377 . S
Gd80 O102 2.448 . S
Gd80 O103 2.506 . S
Gd80 O104 2.435 . S
Gd80 O105 2.717 . S
Gd80 O107 2.395 . S
Gd80 O111 2.327 . S
Gd81 C92 2.818 . S
Gd81 O101 2.395 . S
Gd81 O105 2.327 . S
Gd81 O106 2.377 . S
Gd81 O108 2.448 . S
Gd81 O109 2.506 . S
Gd81 O110 2.435 . S
Gd81 O111 2.717 . S
C82 O100 1.240 . S
C82 O101 1.240 . S
C83 Gd80 2.818 . S
C83 C84 1.510 . S
C83 O102 1.249 . S
C83 O103 1.252 . S
C84 C83 1.510 . S
C84 C85 1.404 . S
C84 C86 1.352 . S
C85 C84 1.404 . S
C85 C89 1.389 . S
C85 H112 0.930 . S
C86 C84 1.352 . S
C86 C88 1.374 . S
C86 H113 0.931 . S
C87 C88 1.359 . S
C87 C89 1.364 . S
C88 C86 1.374 . S
C88 C87 1.359 . S
C88 H114 0.931 . S
C89 C85 1.389 . S
C89 C87 1.364 . S
C89 H115 0.931 . S
C90 O104 1.256 . S
C90 O105 1.257 . S
C91 O106 1.240 . S
C91 O107 1.240 . S
C92 Gd81 2.818 . S
C92 C93 1.510 . S
C92 O108 1.249 . S
C92 O109 1.252 . S
C93 C92 1.510 . S
C93 C94 1.404 . S
C93 C95 1.352 . S
C94 C93 1.404 . S
C94 C98 1.389 . S
C94 H116 0.930 . S
C95 C93 1.352 . S
C95 C97 1.374 . S
C95 H117 0.931 . S
C96 C97 1.359 . S
C96 C98 1.364 . S
C97 C95 1.374 . S
C97 C96 1.359 . S
C97 H118 0.931 . S
C98 C94 1.389 . S
C98 C96 1.364 . S
C98 H119 0.931 . S
C99 O110 1.256 . S
C99 O111 1.257 . S
O100 Gd80 2.377 . S
O100 C82 1.240 . S
O101 Gd81 2.395 . S
O101 C82 1.240 . S
O102 Gd80 2.448 . S
O102 C83 1.249 . S
O103 Gd80 2.506 . S
O103 C83 1.252 . S
O104 Gd80 2.435 . S
O104 C90 1.256 . S
O105 Gd80 2.717 . S
O105 Gd81 2.327 . S
O105 C90 1.257 . S
O106 Gd81 2.377 . S
O106 C91 1.240 . S
O107 Gd80 2.395 . S
O107 C91 1.240 . S
O108 Gd81 2.448 . S
O108 C92 1.249 . S
O109 Gd81 2.506 . S
O109 C92 1.252 . S
O110 Gd81 2.435 . S
O110 C99 1.256 . S
O111 Gd80 2.327 . S
O111 Gd81 2.717 . S
O111 C99 1.257 . S
H112 C85 0.930 . S
H113 C86 0.931 . S
H114 C88 0.931 . S
H115 C89 0.931 . S
H116 C94 0.930 . S
H117 C95 0.931 . S
H118 C97 0.931 . S
H119 C98 0.931 . S
Gd120 C123 2.818 . S
Gd120 O140 2.377 . S
Gd120 O142 2.448 . S
Gd120 O143 2.506 . S
Gd120 O144 2.435 1_545 S
Gd120 O145 2.717 . S
Gd120 O147 2.395 . S
Gd120 O151 2.327 . S
Gd121 C132 2.818 . S
Gd121 O141 2.395 . S
Gd121 O145 2.327 . S
Gd121 O146 2.377 . S
Gd121 O148 2.448 . S
Gd121 O149 2.506 . S
Gd121 O150 2.435 . S
Gd121 O151 2.717 . S
C122 O140 1.240 . S
C122 O141 1.240 . S
C123 Gd120 2.818 . S
C123 C124 1.510 . S
C123 O142 1.249 . S
C123 O143 1.252 . S
C124 C123 1.510 . S
C124 C125 1.404 . S
C124 C126 1.352 . S
C125 C124 1.404 . S
C125 C129 1.389 . S
C125 H152 0.930 . S
C126 C124 1.352 . S
C126 C128 1.374 . S
C126 H153 0.931 . S
C127 C128 1.359 . S
C127 C129 1.364 . S
C128 C126 1.374 . S
C128 C127 1.359 . S
C128 H154 0.931 . S
C129 C125 1.389 . S
C129 C127 1.364 . S
C129 H155 0.931 . S
C130 O144 1.256 . S
C130 O145 1.257 1_565 S
C131 O146 1.240 . S
C131 O147 1.240 . S
C132 Gd121 2.818 . S
C132 C133 1.510 . S
C132 O148 1.249 . S
C132 O149 1.252 . S
C133 C132 1.510 . S
C133 C134 1.404 . S
C133 C135 1.352 1_545 S
C134 C133 1.404 . S
C134 C138 1.389 . S
C134 H156 0.930 . S
C135 C133 1.352 1_565 S
C135 C137 1.374 . S
C135 H157 0.931 . S
C136 C137 1.359 1_545 S
C136 C138 1.364 . S
C137 C135 1.374 . S
C137 C136 1.359 1_565 S
C137 H158 0.931 . S
C138 C134 1.389 . S
C138 C136 1.364 . S
C138 H159 0.931 . S
C139 O150 1.256 . S
C139 O151 1.257 . S
O140 Gd120 2.377 . S
O140 C122 1.240 . S
O141 Gd121 2.395 . S
O141 C122 1.240 . S
O142 Gd120 2.448 . S
O142 C123 1.249 . S
O143 Gd120 2.506 . S
O143 C123 1.252 . S
O144 Gd120 2.435 1_565 S
O144 C130 1.256 . S
O145 Gd120 2.717 . S
O145 Gd121 2.327 . S
O145 C130 1.257 1_545 S
O146 Gd121 2.377 . S
O146 C131 1.240 . S
O147 Gd120 2.395 . S
O147 C131 1.240 . S
O148 Gd121 2.448 . S
O148 C132 1.249 . S
O149 Gd121 2.506 . S
O149 C132 1.252 . S
O150 Gd121 2.435 . S
O150 C139 1.256 . S
O151 Gd120 2.327 . S
O151 Gd121 2.717 . S
O151 C139 1.257 . S
H152 C125 0.930 . S
H153 C126 0.931 . S
H154 C128 0.931 . S
H155 C129 0.931 . S
H156 C134 0.930 . S
H157 C135 0.931 . S
H158 C137 0.931 . S
H159 C138 0.931 . S
Gd160 C163 2.818 . S
Gd160 O180 2.377 . S
Gd160 O182 2.448 . S
Gd160 O183 2.506 . S
Gd160 O184 2.435 . S
Gd160 O185 2.717 . S
Gd160 O187 2.395 . S
Gd160 O191 2.327 . S
Gd161 C172 2.818 . S
Gd161 O181 2.395 . S
Gd161 O185 2.327 . S
Gd161 O186 2.377 . S
Gd161 O188 2.448 . S
Gd161 O189 2.506 . S
Gd161 O190 2.435 . S
Gd161 O191 2.717 . S
C162 O180 1.240 . S
C162 O181 1.240 . S
C163 Gd160 2.818 . S
C163 C164 1.510 . S
C163 O182 1.249 . S
C163 O183 1.252 . S
C164 C163 1.510 . S
C164 C165 1.404 . S
C164 C166 1.352 . S
C165 C164 1.404 . S
C165 C169 1.389 . S
C165 H192 0.930 . S
C166 C164 1.352 . S
C166 C168 1.374 . S
C166 H193 0.931 . S
C167 C168 1.359 . S
C167 C169 1.364 . S
C168 C166 1.374 . S
C168 C167 1.359 . S
C168 H194 0.931 . S
C169 C165 1.389 . S
C169 C167 1.364 . S
C169 H195 0.931 . S
C170 O184 1.256 . S
C170 O185 1.257 . S
C171 O186 1.240 . S
C171 O187 1.240 . S
C172 Gd161 2.818 . S
C172 C173 1.510 . S
C172 O188 1.249 . S
C172 O189 1.252 . S
C173 C172 1.510 . S
C173 C174 1.404 . S
C173 C175 1.352 . S
C174 C173 1.404 . S
C174 C178 1.389 . S
C174 H196 0.930 . S
C175 C173 1.352 . S
C175 C177 1.374 . S
C175 H197 0.931 . S
C176 C177 1.359 . S
C176 C178 1.364 . S
C177 C175 1.374 . S
C177 C176 1.359 . S
C177 H198 0.931 . S
C178 C174 1.389 . S
C178 C176 1.364 . S
C178 H199 0.931 . S
C179 O190 1.256 . S
C179 O191 1.257 . S
O180 Gd160 2.377 . S
O180 C162 1.240 . S
O181 Gd161 2.395 . S
O181 C162 1.240 . S
O182 Gd160 2.448 . S
O182 C163 1.249 . S
O183 Gd160 2.506 . S
O183 C163 1.252 . S
O184 Gd160 2.435 . S
O184 C170 1.256 . S
O185 Gd160 2.717 . S
O185 Gd161 2.327 . S
O185 C170 1.257 . S
O186 Gd161 2.377 . S
O186 C171 1.240 . S
O187 Gd160 2.395 . S
O187 C171 1.240 . S
O188 Gd161 2.448 . S
O188 C172 1.249 . S
O189 Gd161 2.506 . S
O189 C172 1.252 . S
O190 Gd161 2.435 . S
O190 C179 1.256 . S
O191 Gd160 2.327 . S
O191 Gd161 2.717 . S
O191 C179 1.257 . S
H192 C165 0.930 . S
H193 C166 0.931 . S
H194 C168 0.931 . S
H195 C169 0.931 . S
H196 C174 0.930 . S
H197 C175 0.931 . S
H198 C177 0.931 . S
H199 C178 0.931 . S
Gd200 C203 2.818 . S
Gd200 O220 2.377 . S
Gd200 O222 2.448 . S
Gd200 O223 2.506 . S
Gd200 O224 2.435 1_565 S
Gd200 O225 2.717 . S
Gd200 O227 2.395 . S
Gd200 O231 2.327 . S
Gd201 C212 2.818 . S
Gd201 O221 2.395 . S
Gd201 O225 2.327 . S
Gd201 O226 2.377 . S
Gd201 O228 2.448 . S
Gd201 O229 2.506 . S
Gd201 O230 2.435 . S
Gd201 O231 2.717 . S
C202 O220 1.240 . S
C202 O221 1.240 . S
C203 Gd200 2.818 . S
C203 C204 1.510 . S
C203 O222 1.249 . S
C203 O223 1.252 . S
C204 C203 1.510 . S
C204 C205 1.404 . S
C204 C206 1.352 . S
C205 C204 1.404 . S
C205 C209 1.389 . S
C205 H232 0.930 . S
C206 C204 1.352 . S
C206 C208 1.374 . S
C206 H233 0.931 . S
C207 C208 1.359 . S
C207 C209 1.364 . S
C208 C206 1.374 . S
C208 C207 1.359 . S
C208 H234 0.931 . S
C209 C205 1.389 . S
C209 C207 1.364 . S
C209 H235 0.931 . S
C210 O224 1.256 . S
C210 O225 1.257 1_545 S
C211 O226 1.240 . S
C211 O227 1.240 . S
C212 Gd201 2.818 . S
C212 C213 1.510 . S
C212 O228 1.249 . S
C212 O229 1.252 . S
C213 C212 1.510 . S
C213 C214 1.404 . S
C213 C215 1.352 1_565 S
C214 C213 1.404 . S
C214 C218 1.389 . S
C214 H236 0.930 . S
C215 C213 1.352 1_545 S
C215 C217 1.374 . S
C215 H237 0.931 . S
C216 C217 1.359 1_565 S
C216 C218 1.364 . S
C217 C215 1.374 . S
C217 C216 1.359 1_545 S
C217 H238 0.931 . S
C218 C214 1.389 . S
C218 C216 1.364 . S
C218 H239 0.931 . S
C219 O230 1.256 . S
C219 O231 1.257 . S
O220 Gd200 2.377 . S
O220 C202 1.240 . S
O221 Gd201 2.395 . S
O221 C202 1.240 . S
O222 Gd200 2.448 . S
O222 C203 1.249 . S
O223 Gd200 2.506 . S
O223 C203 1.252 . S
O224 Gd200 2.435 1_545 S
O224 C210 1.256 . S
O225 Gd200 2.717 . S
O225 Gd201 2.327 . S
O225 C210 1.257 1_565 S
O226 Gd201 2.377 . S
O226 C211 1.240 . S
O227 Gd200 2.395 . S
O227 C211 1.240 . S
O228 Gd201 2.448 . S
O228 C212 1.249 . S
O229 Gd201 2.506 . S
O229 C212 1.252 . S
O230 Gd201 2.435 . S
O230 C219 1.256 . S
O231 Gd200 2.327 . S
O231 Gd201 2.717 . S
O231 C219 1.257 . S
H232 C205 0.930 . S
H233 C206 0.931 . S
H234 C208 0.931 . S
H235 C209 0.931 . S
H236 C214 0.930 . S
H237 C215 0.931 . S
H238 C217 0.931 . S
H239 C218 0.931 . S
Gd240 C243 2.818 . S
Gd240 O260 2.377 . S
Gd240 O262 2.448 . S
Gd240 O263 2.506 . S
Gd240 O264 2.435 . S
Gd240 O265 2.717 . S
Gd240 O267 2.395 . S
Gd240 O271 2.327 . S
Gd241 C252 2.818 . S
Gd241 O261 2.395 . S
Gd241 O265 2.327 . S
Gd241 O266 2.377 . S
Gd241 O268 2.448 . S
Gd241 O269 2.506 . S
Gd241 O270 2.435 . S
Gd241 O271 2.717 . S
C242 O260 1.240 . S
C242 O261 1.240 . S
C243 Gd240 2.818 . S
C243 C244 1.510 . S
C243 O262 1.249 . S
C243 O263 1.252 . S
C244 C243 1.510 . S
C244 C245 1.404 . S
C244 C246 1.352 . S
C245 C244 1.404 . S
C245 C249 1.389 . S
C245 H272 0.930 . S
C246 C244 1.352 . S
C246 C248 1.374 . S
C246 H273 0.931 . S
C247 C248 1.359 . S
C247 C249 1.364 . S
C248 C246 1.374 . S
C248 C247 1.359 . S
C248 H274 0.931 . S
C249 C245 1.389 . S
C249 C247 1.364 . S
C249 H275 0.931 . S
C250 O264 1.256 . S
C250 O265 1.257 . S
C251 O266 1.240 . S
C251 O267 1.240 . S
C252 Gd241 2.818 . S
C252 C253 1.510 . S
C252 O268 1.249 . S
C252 O269 1.252 . S
C253 C252 1.510 . S
C253 C254 1.404 . S
C253 C255 1.352 . S
C254 C253 1.404 . S
C254 C258 1.389 . S
C254 H276 0.930 . S
C255 C253 1.352 . S
C255 C257 1.374 . S
C255 H277 0.931 . S
C256 C257 1.359 . S
C256 C258 1.364 . S
C257 C255 1.374 . S
C257 C256 1.359 . S
C257 H278 0.931 . S
C258 C254 1.389 . S
C258 C256 1.364 . S
C258 H279 0.931 . S
C259 O270 1.256 . S
C259 O271 1.257 . S
O260 Gd240 2.377 . S
O260 C242 1.240 . S
O261 Gd241 2.395 . S
O261 C242 1.240 . S
O262 Gd240 2.448 . S
O262 C243 1.249 . S
O263 Gd240 2.506 . S
O263 C243 1.252 . S
O264 Gd240 2.435 . S
O264 C250 1.256 . S
O265 Gd240 2.717 . S
O265 Gd241 2.327 . S
O265 C250 1.257 . S
O266 Gd241 2.377 . S
O266 C251 1.240 . S
O267 Gd240 2.395 . S
O267 C251 1.240 . S
O268 Gd241 2.448 . S
O268 C252 1.249 . S
O269 Gd241 2.506 . S
O269 C252 1.252 . S
O270 Gd241 2.435 . S
O270 C259 1.256 . S
O271 Gd240 2.327 . S
O271 Gd241 2.717 . S
O271 C259 1.257 . S
H272 C245 0.930 . S
H273 C246 0.931 . S
H274 C248 0.931 . S
H275 C249 0.931 . S
H276 C254 0.930 . S
H277 C255 0.931 . S
H278 C257 0.931 . S
H279 C258 0.931 . S
Gd280 C283 2.818 . S
Gd280 O300 2.377 1_655 S
Gd280 O302 2.448 . S
Gd280 O303 2.506 . S
Gd280 O304 2.435 1_645 S
Gd280 O305 2.717 1_655 S
Gd280 O307 2.395 . S
Gd280 O311 2.327 1_655 S
Gd281 C292 2.818 . S
Gd281 O301 2.395 . S
Gd281 O305 2.327 . S
Gd281 O306 2.377 . S
Gd281 O308 2.448 . S
Gd281 O309 2.506 . S
Gd281 O310 2.435 . S
Gd281 O311 2.717 . S
C282 O300 1.240 . S
C282 O301 1.240 . S
C283 Gd280 2.818 . S
C283 C284 1.510 . S
C283 O302 1.249 . S
C283 O303 1.252 . S
C284 C283 1.510 . S
C284 C285 1.404 . S
C284 C286 1.352 . S
C285 C284 1.404 . S
C285 C289 1.389 . S
C285 H312 0.930 . S
C286 C284 1.352 . S
C286 C288 1.374 . S
C286 H313 0.931 . S
C287 C288 1.359 . S
C287 C289 1.364 . S
C288 C286 1.374 . S
C288 C287 1.359 . S
C288 H314 0.931 . S
C289 C285 1.389 . S
C289 C287 1.364 . S
C289 H315 0.931 . S
C290 O304 1.256 . S
C290 O305 1.257 1_565 S
C291 O306 1.240 . S
C291 O307 1.240 1_455 S
C292 Gd281 2.818 . S
C292 C293 1.510 . S
C292 O308 1.249 . S
C292 O309 1.252 . S
C293 C292 1.510 . S
C293 C294 1.404 . S
C293 C295 1.352 1_545 S
C294 C293 1.404 . S
C294 C298 1.389 . S
C294 H316 0.930 . S
C295 C293 1.352 1_565 S
C295 C297 1.374 . S
C295 H317 0.931 . S
C296 C297 1.359 1_545 S
C296 C298 1.364 . S
C297 C295 1.374 . S
C297 C296 1.359 1_565 S
C297 H318 0.931 . S
C298 C294 1.389 . S
C298 C296 1.364 . S
C298 H319 0.931 . S
C299 O310 1.256 . S
C299 O311 1.257 . S
O300 Gd280 2.377 1_455 S
O300 C282 1.240 . S
O301 Gd281 2.395 . S
O301 C282 1.240 . S
O302 Gd280 2.448 . S
O302 C283 1.249 . S
O303 Gd280 2.506 . S
O303 C283 1.252 . S
O304 Gd280 2.435 1_465 S
O304 C290 1.256 . S
O305 Gd280 2.717 1_455 S
O305 Gd281 2.327 . S
O305 C290 1.257 1_545 S
O306 Gd281 2.377 . S
O306 C291 1.240 . S
O307 Gd280 2.395 . S
O307 C291 1.240 1_655 S
O308 Gd281 2.448 . S
O308 C292 1.249 . S
O309 Gd281 2.506 . S
O309 C292 1.252 . S
O310 Gd281 2.435 . S
O310 C299 1.256 . S
O311 Gd280 2.327 1_455 S
O311 Gd281 2.717 . S
O311 C299 1.257 . S
H312 C285 0.930 . S
H313 C286 0.931 . S
H314 C288 0.931 . S
H315 C289 0.931 . S
H316 C294 0.930 . S
H317 C295 0.931 . S
H318 C297 0.931 . S
H319 C298 0.931 . S
Gd320 C323 2.818 . S
Gd320 O340 2.377 . S
Gd320 O342 2.448 . S
Gd320 O343 2.506 . S
Gd320 O344 2.435 . S
Gd320 O345 2.717 . S
Gd320 O347 2.395 . S
Gd320 O351 2.327 . S
Gd321 C332 2.818 . S
Gd321 O341 2.395 . S
Gd321 O345 2.327 . S
Gd321 O346 2.377 . S
Gd321 O348 2.448 . S
Gd321 O349 2.506 . S
Gd321 O350 2.435 . S
Gd321 O351 2.717 . S
C322 O340 1.240 . S
C322 O341 1.240 . S
C323 Gd320 2.818 . S
C323 C324 1.510 . S
C323 O342 1.249 . S
C323 O343 1.252 . S
C324 C323 1.510 . S
C324 C325 1.404 . S
C324 C326 1.352 . S
C325 C324 1.404 . S
C325 C329 1.389 . S
C325 H352 0.930 . S
C326 C324 1.352 . S
C326 C328 1.374 . S
C326 H353 0.931 . S
C327 C328 1.359 . S
C327 C329 1.364 . S
C328 C326 1.374 . S
C328 C327 1.359 . S
C328 H354 0.931 . S
C329 C325 1.389 . S
C329 C327 1.364 . S
C329 H355 0.931 . S
C330 O344 1.256 . S
C330 O345 1.257 . S
C331 O346 1.240 . S
C331 O347 1.240 . S
C332 Gd321 2.818 . S
C332 C333 1.510 . S
C332 O348 1.249 . S
C332 O349 1.252 . S
C333 C332 1.510 . S
C333 C334 1.404 . S
C333 C335 1.352 . S
C334 C333 1.404 . S
C334 C338 1.389 . S
C334 H356 0.930 . S
C335 C333 1.352 . S
C335 C337 1.374 . S
C335 H357 0.931 . S
C336 C337 1.359 . S
C336 C338 1.364 . S
C337 C335 1.374 . S
C337 C336 1.359 . S
C337 H358 0.931 . S
C338 C334 1.389 . S
C338 C336 1.364 . S
C338 H359 0.931 . S
C339 O350 1.256 . S
C339 O351 1.257 . S
O340 Gd320 2.377 . S
O340 C322 1.240 . S
O341 Gd321 2.395 . S
O341 C322 1.240 . S
O342 Gd320 2.448 . S
O342 C323 1.249 . S
O343 Gd320 2.506 . S
O343 C323 1.252 . S
O344 Gd320 2.435 . S
O344 C330 1.256 . S
O345 Gd320 2.717 . S
O345 Gd321 2.327 . S
O345 C330 1.257 . S
O346 Gd321 2.377 . S
O346 C331 1.240 . S
O347 Gd320 2.395 . S
O347 C331 1.240 . S
O348 Gd321 2.448 . S
O348 C332 1.249 . S
O349 Gd321 2.506 . S
O349 C332 1.252 . S
O350 Gd321 2.435 . S
O350 C339 1.256 . S
O351 Gd320 2.327 . S
O351 Gd321 2.717 . S
O351 C339 1.257 . S
H352 C325 0.930 . S
H353 C326 0.931 . S
H354 C328 0.931 . S
H355 C329 0.931 . S
H356 C334 0.930 . S
H357 C335 0.931 . S
H358 C337 0.931 . S
H359 C338 0.931 . S
Gd360 C363 2.818 . S
Gd360 O380 2.377 . S
Gd360 O382 2.448 . S
Gd360 O383 2.506 . S
Gd360 O384 2.435 . S
Gd360 O385 2.717 . S
Gd360 O387 2.395 . S
Gd360 O391 2.327 . S
Gd361 C372 2.818 . S
Gd361 O381 2.395 . S
Gd361 O385 2.327 1_455 S
Gd361 O386 2.377 1_455 S
Gd361 O388 2.448 . S
Gd361 O389 2.506 . S
Gd361 O390 2.435 1_445 S
Gd361 O391 2.717 1_455 S
C362 O380 1.240 . S
C362 O381 1.240 1_655 S
C363 Gd360 2.818 . S
C363 C364 1.510 . S
C363 O382 1.249 . S
C363 O383 1.252 . S
C364 C363 1.510 . S
C364 C365 1.404 . S
C364 C366 1.352 1_545 S
C365 C364 1.404 . S
C365 C369 1.389 . S
C365 H392 0.930 . S
C366 C364 1.352 1_565 S
C366 C368 1.374 . S
C366 H393 0.931 . S
C367 C368 1.359 1_545 S
C367 C369 1.364 . S
C368 C366 1.374 . S
C368 C367 1.359 1_565 S
C368 H394 0.931 . S
C369 C365 1.389 . S
C369 C367 1.364 . S
C369 H395 0.931 . S
C370 O384 1.256 . S
C370 O385 1.257 . S
C371 O386 1.240 . S
C371 O387 1.240 . S
C372 Gd361 2.818 . S
C372 C373 1.510 . S
C372 O388 1.249 . S
C372 O389 1.252 . S
C373 C372 1.510 . S
C373 C374 1.404 . S
C373 C375 1.352 . S
C374 C373 1.404 . S
C374 C378 1.389 . S
C374 H396 0.930 . S
C375 C373 1.352 . S
C375 C377 1.374 . S
C375 H397 0.931 . S
C376 C377 1.359 . S
C376 C378 1.364 . S
C377 C375 1.374 . S
C377 C376 1.359 . S
C377 H398 0.931 . S
C378 C374 1.389 . S
C378 C376 1.364 . S
C378 H399 0.931 . S
C379 O390 1.256 . S
C379 O391 1.257 1_565 S
O380 Gd360 2.377 . S
O380 C362 1.240 . S
O381 Gd361 2.395 . S
O381 C362 1.240 1_455 S
O382 Gd360 2.448 . S
O382 C363 1.249 . S
O383 Gd360 2.506 . S
O383 C363 1.252 . S
O384 Gd360 2.435 . S
O384 C370 1.256 . S
O385 Gd360 2.717 . S
O385 Gd361 2.327 1_655 S
O385 C370 1.257 . S
O386 Gd361 2.377 1_655 S
O386 C371 1.240 . S
O387 Gd360 2.395 . S
O387 C371 1.240 . S
O388 Gd361 2.448 . S
O388 C372 1.249 . S
O389 Gd361 2.506 . S
O389 C372 1.252 . S
O390 Gd361 2.435 1_665 S
O390 C379 1.256 . S
O391 Gd360 2.327 . S
O391 Gd361 2.717 1_655 S
O391 C379 1.257 1_545 S
H392 C365 0.930 . S
H393 C366 0.931 . S
H394 C368 0.931 . S
H395 C369 0.931 . S
H396 C374 0.930 . S
H397 C375 0.931 . S
H398 C377 0.931 . S
H399 C378 0.931 . S
Gd400 C403 2.818 . S
Gd400 O420 2.377 . S
Gd400 O422 2.448 . S
Gd400 O423 2.506 . S
Gd400 O424 2.435 . S
Gd400 O425 2.717 . S
Gd400 O427 2.395 . S
Gd400 O431 2.327 . S
Gd401 C412 2.818 . S
Gd401 O421 2.395 . S
Gd401 O425 2.327 . S
Gd401 O426 2.377 . S
Gd401 O428 2.448 . S
Gd401 O429 2.506 . S
Gd401 O430 2.435 . S
Gd401 O431 2.717 . S
C402 O420 1.240 . S
C402 O421 1.240 . S
C403 Gd400 2.818 . S
C403 C404 1.510 . S
C403 O422 1.249 . S
C403 O423 1.252 . S
C404 C403 1.510 . S
C404 C405 1.404 . S
C404 C406 1.352 . S
C405 C404 1.404 . S
C405 C409 1.389 . S
C405 H432 0.930 . S
C406 C404 1.352 . S
C406 C408 1.374 . S
C406 H433 0.931 . S
C407 C408 1.359 . S
C407 C409 1.364 . S
C408 C406 1.374 . S
C408 C407 1.359 . S
C408 H434 0.931 . S
C409 C405 1.389 . S
C409 C407 1.364 . S
C409 H435 0.931 . S
C410 O424 1.256 . S
C410 O425 1.257 . S
C411 O426 1.240 . S
C411 O427 1.240 . S
C412 Gd401 2.818 . S
C412 C413 1.510 . S
C412 O428 1.249 . S
C412 O429 1.252 . S
C413 C412 1.510 . S
C413 C414 1.404 . S
C413 C415 1.352 . S
C414 C413 1.404 . S
C414 C418 1.389 . S
C414 H436 0.930 . S
C415 C413 1.352 . S
C415 C417 1.374 . S
C415 H437 0.931 . S
C416 C417 1.359 . S
C416 C418 1.364 . S
C417 C415 1.374 . S
C417 C416 1.359 . S
C417 H438 0.931 . S
C418 C414 1.389 . S
C418 C416 1.364 . S
C418 H439 0.931 . S
C419 O430 1.256 . S
C419 O431 1.257 . S
O420 Gd400 2.377 . S
O420 C402 1.240 . S
O421 Gd401 2.395 . S
O421 C402 1.240 . S
O422 Gd400 2.448 . S
O422 C403 1.249 . S
O423 Gd400 2.506 . S
O423 C403 1.252 . S
O424 Gd400 2.435 . S
O424 C410 1.256 . S
O425 Gd400 2.717 . S
O425 Gd401 2.327 . S
O425 C410 1.257 . S
O426 Gd401 2.377 . S
O426 C411 1.240 . S
O427 Gd400 2.395 . S
O427 C411 1.240 . S
O428 Gd401 2.448 . S
O428 C412 1.249 . S
O429 Gd401 2.506 . S
O429 C412 1.252 . S
O430 Gd401 2.435 . S
O430 C419 1.256 . S
O431 Gd400 2.327 . S
O431 Gd401 2.717 . S
O431 C419 1.257 . S
H432 C405 0.930 . S
H433 C406 0.931 . S
H434 C408 0.931 . S
H435 C409 0.931 . S
H436 C414 0.930 . S
H437 C415 0.931 . S
H438 C417 0.931 . S
H439 C418 0.931 . S
Gd440 C443 2.818 . S
Gd440 O460 2.377 . S
Gd440 O462 2.448 . S
Gd440 O463 2.506 . S
Gd440 O464 2.435 . S
Gd440 O465 2.717 . S
Gd440 O467 2.395 . S
Gd440 O471 2.327 . S
Gd441 C452 2.818 . S
Gd441 O461 2.395 . S
Gd441 O465 2.327 . S
Gd441 O466 2.377 . S
Gd441 O468 2.448 . S
Gd441 O469 2.506 . S
Gd441 O470 2.435 1_565 S
Gd441 O471 2.717 . S
C442 O460 1.240 . S
C442 O461 1.240 . S
C443 Gd440 2.818 . S
C443 C444 1.510 . S
C443 O462 1.249 . S
C443 O463 1.252 . S
C444 C443 1.510 . S
C444 C445 1.404 . S
C444 C446 1.352 1_565 S
C445 C444 1.404 . S
C445 C449 1.389 . S
C445 H472 0.930 . S
C446 C444 1.352 1_545 S
C446 C448 1.374 . S
C446 H473 0.931 . S
C447 C448 1.359 1_565 S
C447 C449 1.364 . S
C448 C446 1.374 . S
C448 C447 1.359 1_545 S
C448 H474 0.931 . S
C449 C445 1.389 . S
C449 C447 1.364 . S
C449 H475 0.931 . S
C450 O464 1.256 . S
C450 O465 1.257 . S
C451 O466 1.240 . S
C451 O467 1.240 . S
C452 Gd441 2.818 . S
C452 C453 1.510 . S
C452 O468 1.249 . S
C452 O469 1.252 . S
C453 C452 1.510 . S
C453 C454 1.404 . S
C453 C455 1.352 . S
C454 C453 1.404 . S
C454 C458 1.389 . S
C454 H476 0.930 . S
C455 C453 1.352 . S
C455 C457 1.374 . S
C455 H477 0.931 . S
C456 C457 1.359 . S
C456 C458 1.364 . S
C457 C455 1.374 . S
C457 C456 1.359 . S
C457 H478 0.931 . S
C458 C454 1.389 . S
C458 C456 1.364 . S
C458 H479 0.931 . S
C459 O470 1.256 . S
C459 O471 1.257 1_545 S
O460 Gd440 2.377 . S
O460 C442 1.240 . S
O461 Gd441 2.395 . S
O461 C442 1.240 . S
O462 Gd440 2.448 . S
O462 C443 1.249 . S
O463 Gd440 2.506 . S
O463 C443 1.252 . S
O464 Gd440 2.435 . S
O464 C450 1.256 . S
O465 Gd440 2.717 . S
O465 Gd441 2.327 . S
O465 C450 1.257 . S
O466 Gd441 2.377 . S
O466 C451 1.240 . S
O467 Gd440 2.395 . S
O467 C451 1.240 . S
O468 Gd441 2.448 . S
O468 C452 1.249 . S
O469 Gd441 2.506 . S
O469 C452 1.252 . S
O470 Gd441 2.435 1_545 S
O470 C459 1.256 . S
O471 Gd440 2.327 . S
O471 Gd441 2.717 . S
O471 C459 1.257 1_565 S
H472 C445 0.930 . S
H473 C446 0.931 . S
H474 C448 0.931 . S
H475 C449 0.931 . S
H476 C454 0.930 . S
H477 C455 0.931 . S
H478 C457 0.931 . S
H479 C458 0.931 . S
Gd480 C483 2.818 . S
Gd480 O500 2.377 . S
Gd480 O502 2.448 . S
Gd480 O503 2.506 . S
Gd480 O504 2.435 . S
Gd480 O505 2.717 . S
Gd480 O507 2.395 . S
Gd480 O511 2.327 . S
Gd481 C492 2.818 . S
Gd481 O501 2.395 . S
Gd481 O505 2.327 . S
Gd481 O506 2.377 . S
Gd481 O508 2.448 . S
Gd481 O509 2.506 . S
Gd481 O510 2.435 . S
Gd481 O511 2.717 . S
C482 O500 1.240 . S
C482 O501 1.240 . S
C483 Gd480 2.818 . S
C483 C484 1.510 . S
C483 O502 1.249 . S
C483 O503 1.252 . S
C484 C483 1.510 . S
C484 C485 1.404 . S
C484 C486 1.352 . S
C485 C484 1.404 . S
C485 C489 1.389 . S
C485 H512 0.930 . S
C486 C484 1.352 . S
C486 C488 1.374 . S
C486 H513 0.931 . S
C487 C488 1.359 . S
C487 C489 1.364 . S
C488 C486 1.374 . S
C488 C487 1.359 . S
C488 H514 0.931 . S
C489 C485 1.389 . S
C489 C487 1.364 . S
C489 H515 0.931 . S
C490 O504 1.256 . S
C490 O505 1.257 . S
C491 O506 1.240 . S
C491 O507 1.240 . S
C492 Gd481 2.818 . S
C492 C493 1.510 . S
C492 O508 1.249 . S
C492 O509 1.252 . S
C493 C492 1.510 . S
C493 C494 1.404 . S
C493 C495 1.352 . S
C494 C493 1.404 . S
C494 C498 1.389 . S
C494 H516 0.930 . S
C495 C493 1.352 . S
C495 C497 1.374 . S
C495 H517 0.931 . S
C496 C497 1.359 . S
C496 C498 1.364 . S
C497 C495 1.374 . S
C497 C496 1.359 . S
C497 H518 0.931 . S
C498 C494 1.389 . S
C498 C496 1.364 . S
C498 H519 0.931 . S
C499 O510 1.256 . S
C499 O511 1.257 . S
O500 Gd480 2.377 . S
O500 C482 1.240 . S
O501 Gd481 2.395 . S
O501 C482 1.240 . S
O502 Gd480 2.448 . S
O502 C483 1.249 . S
O503 Gd480 2.506 . S
O503 C483 1.252 . S
O504 Gd480 2.435 . S
O504 C490 1.256 . S
O505 Gd480 2.717 . S
O505 Gd481 2.327 . S
O505 C490 1.257 . S
O506 Gd481 2.377 . S
O506 C491 1.240 . S
O507 Gd480 2.395 . S
O507 C491 1.240 . S
O508 Gd481 2.448 . S
O508 C492 1.249 . S
O509 Gd481 2.506 . S
O509 C492 1.252 . S
O510 Gd481 2.435 . S
O510 C499 1.256 . S
O511 Gd480 2.327 . S
O511 Gd481 2.717 . S
O511 C499 1.257 . S
H512 C485 0.930 . S
H513 C486 0.931 . S
H514 C488 0.931 . S
H515 C489 0.931 . S
H516 C494 0.930 . S
H517 C495 0.931 . S
H518 C497 0.931 . S
H519 C498 0.931 . S
Gd520 C523 2.818 . S
Gd520 O540 2.377 . S
Gd520 O542 2.448 . S
Gd520 O543 2.506 . S
Gd520 O544 2.435 . S
Gd520 O545 2.717 . S
Gd520 O547 2.395 . S
Gd520 O551 2.327 . S
Gd521 C532 2.818 . S
Gd521 O541 2.395 . S
Gd521 O545 2.327 . S
Gd521 O546 2.377 . S
Gd521 O548 2.448 . S
Gd521 O549 2.506 . S
Gd521 O550 2.435 1_545 S
Gd521 O551 2.717 . S
C522 O540 1.240 . S
C522 O541 1.240 . S
C523 Gd520 2.818 . S
C523 C524 1.510 . S
C523 O542 1.249 . S
C523 O543 1.252 . S
C524 C523 1.510 . S
C524 C525 1.404 . S
C524 C526 1.352 1_545 S
C525 C524 1.404 . S
C525 C529 1.389 . S
C525 H552 0.930 . S
C526 C524 1.352 1_565 S
C526 C528 1.374 . S
C526 H553 0.931 . S
C527 C528 1.359 1_545 S
C527 C529 1.364 . S
C528 C526 1.374 . S
C528 C527 1.359 1_565 S
C528 H554 0.931 . S
C529 C525 1.389 . S
C529 C527 1.364 . S
C529 H555 0.931 . S
C530 O544 1.256 . S
C530 O545 1.257 . S
C531 O546 1.240 . S
C531 O547 1.240 . S
C532 Gd521 2.818 . S
C532 C533 1.510 . S
C532 O548 1.249 . S
C532 O549 1.252 . S
C533 C532 1.510 . S
C533 C534 1.404 . S
C533 C535 1.352 . S
C534 C533 1.404 . S
C534 C538 1.389 . S
C534 H556 0.930 . S
C535 C533 1.352 . S
C535 C537 1.374 . S
C535 H557 0.931 . S
C536 C537 1.359 . S
C536 C538 1.364 . S
C537 C535 1.374 . S
C537 C536 1.359 . S
C537 H558 0.931 . S
C538 C534 1.389 . S
C538 C536 1.364 . S
C538 H559 0.931 . S
C539 O550 1.256 . S
C539 O551 1.257 1_565 S
O540 Gd520 2.377 . S
O540 C522 1.240 . S
O541 Gd521 2.395 . S
O541 C522 1.240 . S
O542 Gd520 2.448 . S
O542 C523 1.249 . S
O543 Gd520 2.506 . S
O543 C523 1.252 . S
O544 Gd520 2.435 . S
O544 C530 1.256 . S
O545 Gd520 2.717 . S
O545 Gd521 2.327 . S
O545 C530 1.257 . S
O546 Gd521 2.377 . S
O546 C531 1.240 . S
O547 Gd520 2.395 . S
O547 C531 1.240 . S
O548 Gd521 2.448 . S
O548 C532 1.249 . S
O549 Gd521 2.506 . S
O549 C532 1.252 . S
O550 Gd521 2.435 1_565 S
O550 C539 1.256 . S
O551 Gd520 2.327 . S
O551 Gd521 2.717 . S
O551 C539 1.257 1_545 S
H552 C525 0.930 . S
H553 C526 0.931 . S
H554 C528 0.931 . S
H555 C529 0.931 . S
H556 C534 0.930 . S
H557 C535 0.931 . S
H558 C537 0.931 . S
H559 C538 0.931 . S
Gd560 C563 2.818 . S
Gd560 O580 2.377 . S
Gd560 O582 2.448 . S
Gd560 O583 2.506 . S
Gd560 O584 2.435 . S
Gd560 O585 2.717 . S
Gd560 O587 2.395 . S
Gd560 O591 2.327 . S
Gd561 C572 2.818 . S
Gd561 O581 2.395 . S
Gd561 O585 2.327 . S
Gd561 O586 2.377 . S
Gd561 O588 2.448 . S
Gd561 O589 2.506 . S
Gd561 O590 2.435 . S
Gd561 O591 2.717 . S
C562 O580 1.240 . S
C562 O581 1.240 . S
C563 Gd560 2.818 . S
C563 C564 1.510 . S
C563 O582 1.249 . S
C563 O583 1.252 . S
C564 C563 1.510 . S
C564 C565 1.404 . S
C564 C566 1.352 . S
C565 C564 1.404 . S
C565 C569 1.389 . S
C565 H592 0.930 . S
C566 C564 1.352 . S
C566 C568 1.374 . S
C566 H593 0.931 . S
C567 C568 1.359 . S
C567 C569 1.364 . S
C568 C566 1.374 . S
C568 C567 1.359 . S
C568 H594 0.931 . S
C569 C565 1.389 . S
C569 C567 1.364 . S
C569 H595 0.931 . S
C570 O584 1.256 . S
C570 O585 1.257 . S
C571 O586 1.240 . S
C571 O587 1.240 . S
C572 Gd561 2.818 . S
C572 C573 1.510 . S
C572 O588 1.249 . S
C572 O589 1.252 . S
C573 C572 1.510 . S
C573 C574 1.404 . S
C573 C575 1.352 . S
C574 C573 1.404 . S
C574 C578 1.389 . S
C574 H596 0.930 . S
C575 C573 1.352 . S
C575 C577 1.374 . S
C575 H597 0.931 . S
C576 C577 1.359 . S
C576 C578 1.364 . S
C577 C575 1.374 . S
C577 C576 1.359 . S
C577 H598 0.931 . S
C578 C574 1.389 . S
C578 C576 1.364 . S
C578 H599 0.931 . S
C579 O590 1.256 . S
C579 O591 1.257 . S
O580 Gd560 2.377 . S
O580 C562 1.240 . S
O581 Gd561 2.395 . S
O581 C562 1.240 . S
O582 Gd560 2.448 . S
O582 C563 1.249 . S
O583 Gd560 2.506 . S
O583 C563 1.252 . S
O584 Gd560 2.435 . S
O584 C570 1.256 . S
O585 Gd560 2.717 . S
O585 Gd561 2.327 . S
O585 C570 1.257 . S
O586 Gd561 2.377 . S
O586 C571 1.240 . S
O587 Gd560 2.395 . S
O587 C571 1.240 . S
O588 Gd561 2.448 . S
O588 C572 1.249 . S
O589 Gd561 2.506 . S
O589 C572 1.252 . S
O590 Gd561 2.435 . S
O590 C579 1.256 . S
O591 Gd560 2.327 . S
O591 Gd561 2.717 . S
O591 C579 1.257 . S
H592 C565 0.930 . S
H593 C566 0.931 . S
H594 C568 0.931 . S
H595 C569 0.931 . S
H596 C574 0.930 . S
H597 C575 0.931 . S
H598 C577 0.931 . S
H599 C578 0.931 . S
Gd600 C603 2.818 . S
Gd600 O620 2.377 . S
Gd600 O622 2.448 . S
Gd600 O623 2.506 . S
Gd600 O624 2.435 . S
Gd600 O625 2.717 . S
Gd600 O627 2.395 . S
Gd600 O631 2.327 . S
Gd601 C612 2.818 . S
Gd601 O621 2.395 . S
Gd601 O625 2.327 1_455 S
Gd601 O626 2.377 1_455 S
Gd601 O628 2.448 . S
Gd601 O629 2.506 . S
Gd601 O630 2.435 1_465 S
Gd601 O631 2.717 1_455 S
C602 O620 1.240 . S
C602 O621 1.240 1_655 S
C603 Gd600 2.818 . S
C603 C604 1.510 . S
C603 O622 1.249 . S
C603 O623 1.252 . S
C604 C603 1.510 . S
C604 C605 1.404 . S
C604 C606 1.352 1_565 S
C605 C604 1.404 . S
C605 C609 1.389 . S
C605 H632 0.930 . S
C606 C604 1.352 1_545 S
C606 C608 1.374 . S
C606 H633 0.931 . S
C607 C608 1.359 1_565 S
C607 C609 1.364 . S
C608 C606 1.374 . S
C608 C607 1.359 1_545 S
C608 H634 0.931 . S
C609 C605 1.389 . S
C609 C607 1.364 . S
C609 H635 0.931 . S
C610 O624 1.256 . S
C610 O625 1.257 . S
C611 O626 1.240 . S
C611 O627 1.240 . S
C612 Gd601 2.818 . S
C612 C613 1.510 . S
C612 O628 1.249 . S
C612 O629 1.252 . S
C613 C612 1.510 . S
C613 C614 1.404 . S
C613 C615 1.352 . S
C614 C613 1.404 . S
C614 C618 1.389 . S
C614 H636 0.930 . S
C615 C613 1.352 . S
C615 C617 1.374 . S
C615 H637 0.931 . S
C616 C617 1.359 . S
C616 C618 1.364 . S
C617 C615 1.374 . S
C617 C616 1.359 . S
C617 H638 0.931 . S
C618 C614 1.389 . S
C618 C616 1.364 . S
C618 H639 0.931 . S
C619 O630 1.256 . S
C619 O631 1.257 1_545 S
O620 Gd600 2.377 . S
O620 C602 1.240 . S
O621 Gd601 2.395 . S
O621 C602 1.240 1_455 S
O622 Gd600 2.448 . S
O622 C603 1.249 . S
O623 Gd600 2.506 . S
O623 C603 1.252 . S
O624 Gd600 2.435 . S
O624 C610 1.256 . S
O625 Gd600 2.717 . S
O625 Gd601 2.327 1_655 S
O625 C610 1.257 . S
O626 Gd601 2.377 1_655 S
O626 C611 1.240 . S
O627 Gd600 2.395 . S
O627 C611 1.240 . S
O628 Gd601 2.448 . S
O628 C612 1.249 . S
O629 Gd601 2.506 . S
O629 C612 1.252 . S
O630 Gd601 2.435 1_645 S
O630 C619 1.256 . S
O631 Gd600 2.327 . S
O631 Gd601 2.717 1_655 S
O631 C619 1.257 1_565 S
H632 C605 0.930 . S
H633 C606 0.931 . S
H634 C608 0.931 . S
H635 C609 0.931 . S
H636 C614 0.930 . S
H637 C615 0.931 . S
H638 C617 0.931 . S
H639 C618 0.931 . S
Gd640 C643 2.818 . S
Gd640 O660 2.377 . S
Gd640 O662 2.448 . S
Gd640 O663 2.506 . S
Gd640 O664 2.435 . S
Gd640 O665 2.717 . S
Gd640 O667 2.395 . S
Gd640 O671 2.327 . S
Gd641 C652 2.818 . S
Gd641 O661 2.395 . S
Gd641 O665 2.327 . S
Gd641 O666 2.377 . S
Gd641 O668 2.448 . S
Gd641 O669 2.506 . S
Gd641 O670 2.435 . S
Gd641 O671 2.717 . S
C642 O660 1.240 . S
C642 O661 1.240 . S
C643 Gd640 2.818 . S
C643 C644 1.510 . S
C643 O662 1.249 . S
C643 O663 1.252 . S
C644 C643 1.510 . S
C644 C645 1.404 . S
C644 C646 1.352 . S
C645 C644 1.404 . S
C645 C649 1.389 . S
C645 H672 0.930 . S
C646 C644 1.352 . S
C646 C648 1.374 . S
C646 H673 0.931 . S
C647 C648 1.359 . S
C647 C649 1.364 . S
C648 C646 1.374 . S
C648 C647 1.359 . S
C648 H674 0.931 . S
C649 C645 1.389 . S
C649 C647 1.364 . S
C649 H675 0.931 . S
C650 O664 1.256 . S
C650 O665 1.257 . S
C651 O666 1.240 . S
C651 O667 1.240 . S
C652 Gd641 2.818 . S
C652 C653 1.510 . S
C652 O668 1.249 . S
C652 O669 1.252 . S
C653 C652 1.510 . S
C653 C654 1.404 . S
C653 C655 1.352 . S
C654 C653 1.404 . S
C654 C658 1.389 . S
C654 H676 0.930 . S
C655 C653 1.352 . S
C655 C657 1.374 . S
C655 H677 0.931 . S
C656 C657 1.359 . S
C656 C658 1.364 . S
C657 C655 1.374 . S
C657 C656 1.359 . S
C657 H678 0.931 . S
C658 C654 1.389 . S
C658 C656 1.364 . S
C658 H679 0.931 . S
C659 O670 1.256 . S
C659 O671 1.257 . S
O660 Gd640 2.377 . S
O660 C642 1.240 . S
O661 Gd641 2.395 . S
O661 C642 1.240 . S
O662 Gd640 2.448 . S
O662 C643 1.249 . S
O663 Gd640 2.506 . S
O663 C643 1.252 . S
O664 Gd640 2.435 . S
O664 C650 1.256 . S
O665 Gd640 2.717 . S
O665 Gd641 2.327 . S
O665 C650 1.257 . S
O666 Gd641 2.377 . S
O666 C651 1.240 . S
O667 Gd640 2.395 . S
O667 C651 1.240 . S
O668 Gd641 2.448 . S
O668 C652 1.249 . S
O669 Gd641 2.506 . S
O669 C652 1.252 . S
O670 Gd641 2.435 . S
O670 C659 1.256 . S
O671 Gd640 2.327 . S
O671 Gd641 2.717 . S
O671 C659 1.257 . S
H672 C645 0.930 . S
H673 C646 0.931 . S
H674 C648 0.931 . S
H675 C649 0.931 . S
H676 C654 0.930 . S
H677 C655 0.931 . S
H678 C657 0.931 . S
H679 C658 0.931 . S
Gd680 C683 2.818 . S
Gd680 O700 2.377 . S
Gd680 O702 2.448 . S
Gd680 O703 2.506 . S
Gd680 O704 2.435 . S
Gd680 O705 2.717 . S
Gd680 O707 2.395 . S
Gd680 O711 2.327 . S
Gd681 C692 2.818 . S
Gd681 O701 2.395 . S
Gd681 O705 2.327 . S
Gd681 O706 2.377 . S
Gd681 O708 2.448 . S
Gd681 O709 2.506 . S
Gd681 O710 2.435 . S
Gd681 O711 2.717 . S
C682 O700 1.240 . S
C682 O701 1.240 . S
C683 Gd680 2.818 . S
C683 C684 1.510 . S
C683 O702 1.249 . S
C683 O703 1.252 . S
C684 C683 1.510 . S
C684 C685 1.404 . S
C684 C686 1.352 . S
C685 C684 1.404 . S
C685 C689 1.389 . S
C685 H712 0.930 . S
C686 C684 1.352 . S
C686 C688 1.374 . S
C686 H713 0.931 . S
C687 C688 1.359 . S
C687 C689 1.364 . S
C688 C686 1.374 . S
C688 C687 1.359 . S
C688 H714 0.931 . S
C689 C685 1.389 . S
C689 C687 1.364 . S
C689 H715 0.931 . S
C690 O704 1.256 . S
C690 O705 1.257 . S
C691 O706 1.240 . S
C691 O707 1.240 . S
C692 Gd681 2.818 . S
C692 C693 1.510 . S
C692 O708 1.249 . S
C692 O709 1.252 . S
C693 C692 1.510 . S
C693 C694 1.404 . S
C693 C695 1.352 . S
C694 C693 1.404 . S
C694 C698 1.389 . S
C694 H716 0.930 . S
C695 C693 1.352 . S
C695 C697 1.374 . S
C695 H717 0.931 . S
C696 C697 1.359 . S
C696 C698 1.364 . S
C697 C695 1.374 . S
C697 C696 1.359 . S
C697 H718 0.931 . S
C698 C694 1.389 . S
C698 C696 1.364 . S
C698 H719 0.931 . S
C699 O710 1.256 . S
C699 O711 1.257 . S
O700 Gd680 2.377 . S
O700 C682 1.240 . S
O701 Gd681 2.395 . S
O701 C682 1.240 . S
O702 Gd680 2.448 . S
O702 C683 1.249 . S
O703 Gd680 2.506 . S
O703 C683 1.252 . S
O704 Gd680 2.435 . S
O704 C690 1.256 . S
O705 Gd680 2.717 . S
O705 Gd681 2.327 . S
O705 C690 1.257 . S
O706 Gd681 2.377 . S
O706 C691 1.240 . S
O707 Gd680 2.395 . S
O707 C691 1.240 . S
O708 Gd681 2.448 . S
O708 C692 1.249 . S
O709 Gd681 2.506 . S
O709 C692 1.252 . S
O710 Gd681 2.435 . S
O710 C699 1.256 . S
O711 Gd680 2.327 . S
O711 Gd681 2.717 . S
O711 C699 1.257 . S
H712 C685 0.930 . S
H713 C686 0.931 . S
H714 C688 0.931 . S
H715 C689 0.931 . S
H716 C694 0.930 . S
H717 C695 0.931 . S
H718 C697 0.931 . S
H719 C698 0.931 . S
Gd720 C723 2.818 . S
Gd720 O740 2.377 . S
Gd720 O742 2.448 . S
Gd720 O743 2.506 . S
Gd720 O744 2.435 . S
Gd720 O745 2.717 . S
Gd720 O747 2.395 . S
Gd720 O751 2.327 . S
Gd721 C732 2.818 . S
Gd721 O741 2.395 . S
Gd721 O745 2.327 . S
Gd721 O746 2.377 . S
Gd721 O748 2.448 . S
Gd721 O749 2.506 . S
Gd721 O750 2.435 . S
Gd721 O751 2.717 . S
C722 O740 1.240 . S
C722 O741 1.240 . S
C723 Gd720 2.818 . S
C723 C724 1.510 . S
C723 O742 1.249 . S
C723 O743 1.252 . S
C724 C723 1.510 . S
C724 C725 1.404 . S
C724 C726 1.352 . S
C725 C724 1.404 . S
C725 C729 1.389 . S
C725 H752 0.930 . S
C726 C724 1.352 . S
C726 C728 1.374 . S
C726 H753 0.931 . S
C727 C728 1.359 . S
C727 C729 1.364 . S
C728 C726 1.374 . S
C728 C727 1.359 . S
C728 H754 0.931 . S
C729 C725 1.389 . S
C729 C727 1.364 . S
C729 H755 0.931 . S
C730 O744 1.256 . S
C730 O745 1.257 . S
C731 O746 1.240 . S
C731 O747 1.240 . S
C732 Gd721 2.818 . S
C732 C733 1.510 . S
C732 O748 1.249 . S
C732 O749 1.252 . S
C733 C732 1.510 . S
C733 C734 1.404 . S
C733 C735 1.352 . S
C734 C733 1.404 . S
C734 C738 1.389 . S
C734 H756 0.930 . S
C735 C733 1.352 . S
C735 C737 1.374 . S
C735 H757 0.931 . S
C736 C737 1.359 . S
C736 C738 1.364 . S
C737 C735 1.374 . S
C737 C736 1.359 . S
C737 H758 0.931 . S
C738 C734 1.389 . S
C738 C736 1.364 . S
C738 H759 0.931 . S
C739 O750 1.256 . S
C739 O751 1.257 . S
O740 Gd720 2.377 . S
O740 C722 1.240 . S
O741 Gd721 2.395 . S
O741 C722 1.240 . S
O742 Gd720 2.448 . S
O742 C723 1.249 . S
O743 Gd720 2.506 . S
O743 C723 1.252 . S
O744 Gd720 2.435 . S
O744 C730 1.256 . S
O745 Gd720 2.717 . S
O745 Gd721 2.327 . S
O745 C730 1.257 . S
O746 Gd721 2.377 . S
O746 C731 1.240 . S
O747 Gd720 2.395 . S
O747 C731 1.240 . S
O748 Gd721 2.448 . S
O748 C732 1.249 . S
O749 Gd721 2.506 . S
O749 C732 1.252 . S
O750 Gd721 2.435 . S
O750 C739 1.256 . S
O751 Gd720 2.327 . S
O751 Gd721 2.717 . S
O751 C739 1.257 . S
H752 C725 0.930 . S
H753 C726 0.931 . S
H754 C728 0.931 . S
H755 C729 0.931 . S
H756 C734 0.930 . S
H757 C735 0.931 . S
H758 C737 0.931 . S
H759 C738 0.931 . S
Gd760 C763 2.818 . S
Gd760 O780 2.377 1_455 S
Gd760 O782 2.448 . S
Gd760 O783 2.506 . S
Gd760 O784 2.435 1_455 S
Gd760 O785 2.717 1_455 S
Gd760 O787 2.395 . S
Gd760 O791 2.327 1_455 S
Gd761 C772 2.818 . S
Gd761 O781 2.395 . S
Gd761 O785 2.327 . S
Gd761 O786 2.377 . S
Gd761 O788 2.448 . S
Gd761 O789 2.506 . S
Gd761 O790 2.435 . S
Gd761 O791 2.717 . S
C762 O780 1.240 . S
C762 O781 1.240 . S
C763 Gd760 2.818 . S
C763 C764 1.510 . S
C763 O782 1.249 . S
C763 O783 1.252 . S
C764 C763 1.510 . S
C764 C765 1.404 . S
C764 C766 1.352 . S
C765 C764 1.404 . S
C765 C769 1.389 . S
C765 H792 0.930 . S
C766 C764 1.352 . S
C766 C768 1.374 . S
C766 H793 0.931 . S
C767 C768 1.359 . S
C767 C769 1.364 . S
C768 C766 1.374 . S
C768 C767 1.359 . S
C768 H794 0.931 . S
C769 C765 1.389 . S
C769 C767 1.364 . S
C769 H795 0.931 . S
C770 O784 1.256 . S
C770 O785 1.257 . S
C771 O786 1.240 . S
C771 O787 1.240 1_655 S
C772 Gd761 2.818 . S
C772 C773 1.510 . S
C772 O788 1.249 . S
C772 O789 1.252 . S
C773 C772 1.510 . S
C773 C774 1.404 . S
C773 C775 1.352 . S
C774 C773 1.404 . S
C774 C778 1.389 . S
C774 H796 0.930 . S
C775 C773 1.352 . S
C775 C777 1.374 . S
C775 H797 0.931 . S
C776 C777 1.359 . S
C776 C778 1.364 . S
C777 C775 1.374 . S
C777 C776 1.359 . S
C777 H798 0.931 . S
C778 C774 1.389 . S
C778 C776 1.364 . S
C778 H799 0.931 . S
C779 O790 1.256 . S
C779 O791 1.257 . S
O780 Gd760 2.377 1_655 S
O780 C762 1.240 . S
O781 Gd761 2.395 . S
O781 C762 1.240 . S
O782 Gd760 2.448 . S
O782 C763 1.249 . S
O783 Gd760 2.506 . S
O783 C763 1.252 . S
O784 Gd760 2.435 1_655 S
O784 C770 1.256 . S
O785 Gd760 2.717 1_655 S
O785 Gd761 2.327 . S
O785 C770 1.257 . S
O786 Gd761 2.377 . S
O786 C771 1.240 . S
O787 Gd760 2.395 . S
O787 C771 1.240 1_455 S
O788 Gd761 2.448 . S
O788 C772 1.249 . S
O789 Gd761 2.506 . S
O789 C772 1.252 . S
O790 Gd761 2.435 . S
O790 C779 1.256 . S
O791 Gd760 2.327 1_655 S
O791 Gd761 2.717 . S
O791 C779 1.257 . S
H792 C765 0.930 . S
H793 C766 0.931 . S
H794 C768 0.931 . S
H795 C769 0.931 . S
H796 C774 0.930 . S
H797 C775 0.931 . S
H798 C777 0.931 . S
H799 C778 0.931 . S
Gd800 C803 2.818 . S
Gd800 O820 2.377 . S
Gd800 O822 2.448 . S
Gd800 O823 2.506 . S
Gd800 O824 2.435 . S
Gd800 O825 2.717 . S
Gd800 O827 2.395 . S
Gd800 O831 2.327 . S
Gd801 C812 2.818 . S
Gd801 O821 2.395 . S
Gd801 O825 2.327 . S
Gd801 O826 2.377 . S
Gd801 O828 2.448 . S
Gd801 O829 2.506 . S
Gd801 O830 2.435 . S
Gd801 O831 2.717 . S
C802 O820 1.240 . S
C802 O821 1.240 . S
C803 Gd800 2.818 . S
C803 C804 1.510 . S
C803 O822 1.249 . S
C803 O823 1.252 . S
C804 C803 1.510 . S
C804 C805 1.404 . S
C804 C806 1.352 . S
C805 C804 1.404 . S
C805 C809 1.389 . S
C805 H832 0.930 . S
C806 C804 1.352 . S
C806 C808 1.374 . S
C806 H833 0.931 . S
C807 C808 1.359 . S
C807 C809 1.364 . S
C808 C806 1.374 . S
C808 C807 1.359 . S
C808 H834 0.931 . S
C809 C805 1.389 . S
C809 C807 1.364 . S
C809 H835 0.931 . S
C810 O824 1.256 . S
C810 O825 1.257 . S
C811 O826 1.240 . S
C811 O827 1.240 . S
C812 Gd801 2.818 . S
C812 C813 1.510 . S
C812 O828 1.249 . S
C812 O829 1.252 . S
C813 C812 1.510 . S
C813 C814 1.404 . S
C813 C815 1.352 . S
C814 C813 1.404 . S
C814 C818 1.389 . S
C814 H836 0.930 . S
C815 C813 1.352 . S
C815 C817 1.374 . S
C815 H837 0.931 . S
C816 C817 1.359 . S
C816 C818 1.364 . S
C817 C815 1.374 . S
C817 C816 1.359 . S
C817 H838 0.931 . S
C818 C814 1.389 . S
C818 C816 1.364 . S
C818 H839 0.931 . S
C819 O830 1.256 . S
C819 O831 1.257 . S
O820 Gd800 2.377 . S
O820 C802 1.240 . S
O821 Gd801 2.395 . S
O821 C802 1.240 . S
O822 Gd800 2.448 . S
O822 C803 1.249 . S
O823 Gd800 2.506 . S
O823 C803 1.252 . S
O824 Gd800 2.435 . S
O824 C810 1.256 . S
O825 Gd800 2.717 . S
O825 Gd801 2.327 . S
O825 C810 1.257 . S
O826 Gd801 2.377 . S
O826 C811 1.240 . S
O827 Gd800 2.395 . S
O827 C811 1.240 . S
O828 Gd801 2.448 . S
O828 C812 1.249 . S
O829 Gd801 2.506 . S
O829 C812 1.252 . S
O830 Gd801 2.435 . S
O830 C819 1.256 . S
O831 Gd800 2.327 . S
O831 Gd801 2.717 . S
O831 C819 1.257 . S
H832 C805 0.930 . S
H833 C806 0.931 . S
H834 C808 0.931 . S
H835 C809 0.931 . S
H836 C814 0.930 . S
H837 C815 0.931 . S
H838 C817 0.931 . S
H839 C818 0.931 . S
Gd840 C843 2.818 . S
Gd840 O860 2.377 1_455 S
Gd840 O862 2.448 . S
Gd840 O863 2.506 . S
Gd840 O864 2.435 1_455 S
Gd840 O865 2.717 1_455 S
Gd840 O867 2.395 . S
Gd840 O871 2.327 1_455 S
Gd841 C852 2.818 . S
Gd841 O861 2.395 . S
Gd841 O865 2.327 . S
Gd841 O866 2.377 . S
Gd841 O868 2.448 . S
Gd841 O869 2.506 . S
Gd841 O870 2.435 . S
Gd841 O871 2.717 . S
C842 O860 1.240 . S
C842 O861 1.240 . S
C843 Gd840 2.818 . S
C843 C844 1.510 . S
C843 O862 1.249 . S
C843 O863 1.252 . S
C844 C843 1.510 . S
C844 C845 1.404 . S
C844 C846 1.352 . S
C845 C844 1.404 . S
C845 C849 1.389 . S
C845 H872 0.930 . S
C846 C844 1.352 . S
C846 C848 1.374 . S
C846 H873 0.931 . S
C847 C848 1.359 . S
C847 C849 1.364 . S
C848 C846 1.374 . S
C848 C847 1.359 . S
C848 H874 0.931 . S
C849 C845 1.389 . S
C849 C847 1.364 . S
C849 H875 0.931 . S
C850 O864 1.256 . S
C850 O865 1.257 . S
C851 O866 1.240 . S
C851 O867 1.240 1_655 S
C852 Gd841 2.818 . S
C852 C853 1.510 . S
C852 O868 1.249 . S
C852 O869 1.252 . S
C853 C852 1.510 . S
C853 C854 1.404 . S
C853 C855 1.352 . S
C854 C853 1.404 . S
C854 C858 1.389 . S
C854 H876 0.930 . S
C855 C853 1.352 . S
C855 C857 1.374 . S
C855 H877 0.931 . S
C856 C857 1.359 . S
C856 C858 1.364 . S
C857 C855 1.374 . S
C857 C856 1.359 . S
C857 H878 0.931 . S
C858 C854 1.389 . S
C858 C856 1.364 . S
C858 H879 0.931 . S
C859 O870 1.256 . S
C859 O871 1.257 . S
O860 Gd840 2.377 1_655 S
O860 C842 1.240 . S
O861 Gd841 2.395 . S
O861 C842 1.240 . S
O862 Gd840 2.448 . S
O862 C843 1.249 . S
O863 Gd840 2.506 . S
O863 C843 1.252 . S
O864 Gd840 2.435 1_655 S
O864 C850 1.256 . S
O865 Gd840 2.717 1_655 S
O865 Gd841 2.327 . S
O865 C850 1.257 . S
O866 Gd841 2.377 . S
O866 C851 1.240 . S
O867 Gd840 2.395 . S
O867 C851 1.240 1_455 S
O868 Gd841 2.448 . S
O868 C852 1.249 . S
O869 Gd841 2.506 . S
O869 C852 1.252 . S
O870 Gd841 2.435 . S
O870 C859 1.256 . S
O871 Gd840 2.327 1_655 S
O871 Gd841 2.717 . S
O871 C859 1.257 . S
H872 C845 0.930 . S
H873 C846 0.931 . S
H874 C848 0.931 . S
H875 C849 0.931 . S
H876 C854 0.930 . S
H877 C855 0.931 . S
H878 C857 0.931 . S
H879 C858 0.931 . S
Gd880 C883 2.818 . S
Gd880 O900 2.377 . S
Gd880 O902 2.448 . S
Gd880 O903 2.506 . S
Gd880 O904 2.435 . S
Gd880 O905 2.717 . S
Gd880 O907 2.395 . S
Gd880 O911 2.327 . S
Gd881 C892 2.818 . S
Gd881 O901 2.395 . S
Gd881 O905 2.327 . S
Gd881 O906 2.377 . S
Gd881 O908 2.448 . S
Gd881 O909 2.506 . S
Gd881 O910 2.435 . S
Gd881 O911 2.717 . S
C882 O900 1.240 . S
C882 O901 1.240 . S
C883 Gd880 2.818 . S
C883 C884 1.510 . S
C883 O902 1.249 . S
C883 O903 1.252 . S
C884 C883 1.510 . S
C884 C885 1.404 . S
C884 C886 1.352 . S
C885 C884 1.404 . S
C885 C889 1.389 . S
C885 H912 0.930 . S
C886 C884 1.352 . S
C886 C888 1.374 . S
C886 H913 0.931 . S
C887 C888 1.359 . S
C887 C889 1.364 . S
C888 C886 1.374 . S
C888 C887 1.359 . S
C888 H914 0.931 . S
C889 C885 1.389 . S
C889 C887 1.364 . S
C889 H915 0.931 . S
C890 O904 1.256 . S
C890 O905 1.257 . S
C891 O906 1.240 . S
C891 O907 1.240 . S
C892 Gd881 2.818 . S
C892 C893 1.510 . S
C892 O908 1.249 . S
C892 O909 1.252 . S
C893 C892 1.510 . S
C893 C894 1.404 . S
C893 C895 1.352 . S
C894 C893 1.404 . S
C894 C898 1.389 . S
C894 H916 0.930 . S
C895 C893 1.352 . S
C895 C897 1.374 . S
C895 H917 0.931 . S
C896 C897 1.359 . S
C896 C898 1.364 . S
C897 C895 1.374 . S
C897 C896 1.359 . S
C897 H918 0.931 . S
C898 C894 1.389 . S
C898 C896 1.364 . S
C898 H919 0.931 . S
C899 O910 1.256 . S
C899 O911 1.257 . S
O900 Gd880 2.377 . S
O900 C882 1.240 . S
O901 Gd881 2.395 . S
O901 C882 1.240 . S
O902 Gd880 2.448 . S
O902 C883 1.249 . S
O903 Gd880 2.506 . S
O903 C883 1.252 . S
O904 Gd880 2.435 . S
O904 C890 1.256 . S
O905 Gd880 2.717 . S
O905 Gd881 2.327 . S
O905 C890 1.257 . S
O906 Gd881 2.377 . S
O906 C891 1.240 . S
O907 Gd880 2.395 . S
O907 C891 1.240 . S
O908 Gd881 2.448 . S
O908 C892 1.249 . S
O909 Gd881 2.506 . S
O909 C892 1.252 . S
O910 Gd881 2.435 . S
O910 C899 1.256 . S
O911 Gd880 2.327 . S
O911 Gd881 2.717 . S
O911 C899 1.257 . S
H912 C885 0.930 . S
H913 C886 0.931 . S
H914 C888 0.931 . S
H915 C889 0.931 . S
H916 C894 0.930 . S
H917 C895 0.931 . S
H918 C897 0.931 . S
H919 C898 0.931 . S
Gd920 C923 2.818 . S
Gd920 O940 2.377 . S
Gd920 O942 2.448 . S
Gd920 O943 2.506 . S
Gd920 O944 2.435 . S
Gd920 O945 2.717 . S
Gd920 O947 2.395 . S
Gd920 O951 2.327 . S
Gd921 C932 2.818 . S
Gd921 O941 2.395 . S
Gd921 O945 2.327 . S
Gd921 O946 2.377 . S
Gd921 O948 2.448 . S
Gd921 O949 2.506 . S
Gd921 O950 2.435 . S
Gd921 O951 2.717 . S
C922 O940 1.240 . S
C922 O941 1.240 . S
C923 Gd920 2.818 . S
C923 C924 1.510 . S
C923 O942 1.249 . S
C923 O943 1.252 . S
C924 C923 1.510 . S
C924 C925 1.404 . S
C924 C926 1.352 . S
C925 C924 1.404 . S
C925 C929 1.389 . S
C925 H952 0.930 . S
C926 C924 1.352 . S
C926 C928 1.374 . S
C926 H953 0.931 . S
C927 C928 1.359 . S
C927 C929 1.364 . S
C928 C926 1.374 . S
C928 C927 1.359 . S
C928 H954 0.931 . S
C929 C925 1.389 . S
C929 C927 1.364 . S
C929 H955 0.931 . S
C930 O944 1.256 . S
C930 O945 1.257 . S
C931 O946 1.240 . S
C931 O947 1.240 . S
C932 Gd921 2.818 . S
C932 C933 1.510 . S
C932 O948 1.249 . S
C932 O949 1.252 . S
C933 C932 1.510 . S
C933 C934 1.404 . S
C933 C935 1.352 . S
C934 C933 1.404 . S
C934 C938 1.389 . S
C934 H956 0.930 . S
C935 C933 1.352 . S
C935 C937 1.374 . S
C935 H957 0.931 . S
C936 C937 1.359 . S
C936 C938 1.364 . S
C937 C935 1.374 . S
C937 C936 1.359 . S
C937 H958 0.931 . S
C938 C934 1.389 . S
C938 C936 1.364 . S
C938 H959 0.931 . S
C939 O950 1.256 . S
C939 O951 1.257 . S
O940 Gd920 2.377 . S
O940 C922 1.240 . S
O941 Gd921 2.395 . S
O941 C922 1.240 . S
O942 Gd920 2.448 . S
O942 C923 1.249 . S
O943 Gd920 2.506 . S
O943 C923 1.252 . S
O944 Gd920 2.435 . S
O944 C930 1.256 . S
O945 Gd920 2.717 . S
O945 Gd921 2.327 . S
O945 C930 1.257 . S
O946 Gd921 2.377 . S
O946 C931 1.240 . S
O947 Gd920 2.395 . S
O947 C931 1.240 . S
O948 Gd921 2.448 . S
O948 C932 1.249 . S
O949 Gd921 2.506 . S
O949 C932 1.252 . S
O950 Gd921 2.435 . S
O950 C939 1.256 . S
O951 Gd920 2.327 . S
O951 Gd921 2.717 . S
O951 C939 1.257 . S
H952 C925 0.930 . S
H953 C926 0.931 . S
H954 C928 0.931 . S
H955 C929 0.931 . S
H956 C934 0.930 . S
H957 C935 0.931 . S
H958 C937 0.931 . S
H959 C938 0.931 . S
Gd960 C963 2.818 . S
Gd960 O980 2.377 . S
Gd960 O982 2.448 . S
Gd960 O983 2.506 . S
Gd960 O984 2.435 . S
Gd960 O985 2.717 . S
Gd960 O987 2.395 . S
Gd960 O991 2.327 . S
Gd961 C972 2.818 . S
Gd961 O981 2.395 . S
Gd961 O985 2.327 . S
Gd961 O986 2.377 . S
Gd961 O988 2.448 . S
Gd961 O989 2.506 . S
Gd961 O990 2.435 . S
Gd961 O991 2.717 . S
C962 O980 1.240 . S
C962 O981 1.240 . S
C963 Gd960 2.818 . S
C963 C964 1.510 . S
C963 O982 1.249 . S
C963 O983 1.252 . S
C964 C963 1.510 . S
C964 C965 1.404 . S
C964 C966 1.352 . S
C965 C964 1.404 . S
C965 C969 1.389 . S
C965 H992 0.930 . S
C966 C964 1.352 . S
C966 C968 1.374 . S
C966 H993 0.931 . S
C967 C968 1.359 . S
C967 C969 1.364 . S
C968 C966 1.374 . S
C968 C967 1.359 . S
C968 H994 0.931 . S
C969 C965 1.389 . S
C969 C967 1.364 . S
C969 H995 0.931 . S
C970 O984 1.256 . S
C970 O985 1.257 . S
C971 O986 1.240 . S
C971 O987 1.240 . S
C972 Gd961 2.818 . S
C972 C973 1.510 . S
C972 O988 1.249 . S
C972 O989 1.252 . S
C973 C972 1.510 . S
C973 C974 1.404 . S
C973 C975 1.352 . S
C974 C973 1.404 . S
C974 C978 1.389 . S
C974 H996 0.930 . S
C975 C973 1.352 . S
C975 C977 1.374 . S
C975 H997 0.931 . S
C976 C977 1.359 . S
C976 C978 1.364 . S
C977 C975 1.374 . S
C977 C976 1.359 . S
C977 H998 0.931 . S
C978 C974 1.389 . S
C978 C976 1.364 . S
C978 H999 0.931 . S
C979 O990 1.256 . S
C979 O991 1.257 . S
O980 Gd960 2.377 . S
O980 C962 1.240 . S
O981 Gd961 2.395 . S
O981 C962 1.240 . S
O982 Gd960 2.448 . S
O982 C963 1.249 . S
O983 Gd960 2.506 . S
O983 C963 1.252 . S
O984 Gd960 2.435 . S
O984 C970 1.256 . S
O985 Gd960 2.717 . S
O985 Gd961 2.327 . S
O985 C970 1.257 . S
O986 Gd961 2.377 . S
O986 C971 1.240 . S
O987 Gd960 2.395 . S
O987 C971 1.240 . S
O988 Gd961 2.448 . S
O988 C972 1.249 . S
O989 Gd961 2.506 . S
O989 C972 1.252 . S
O990 Gd961 2.435 . S
O990 C979 1.256 . S
O991 Gd960 2.327 . S
O991 Gd961 2.717 . S
O991 C979 1.257 . S
H992 C965 0.930 . S
H993 C966 0.931 . S
H994 C968 0.931 . S
H995 C969 0.931 . S
H996 C974 0.930 . S
H997 C975 0.931 . S
H998 C977 0.931 . S
H999 C978 0.931 . S
Gd1000 C1003 2.818 . S
Gd1000 O1020 2.377 . S
Gd1000 O1022 2.448 . S
Gd1000 O1023 2.506 . S
Gd1000 O1024 2.435 . S
Gd1000 O1025 2.717 . S
Gd1000 O1027 2.395 . S
Gd1000 O1031 2.327 . S
Gd1001 C1012 2.818 . S
Gd1001 O1021 2.395 . S
Gd1001 O1025 2.327 . S
Gd1001 O1026 2.377 . S
Gd1001 O1028 2.448 . S
Gd1001 O1029 2.506 . S
Gd1001 O1030 2.435 . S
Gd1001 O1031 2.717 . S
C1002 O1020 1.240 . S
C1002 O1021 1.240 . S
C1003 Gd1000 2.818 . S
C1003 C1004 1.510 . S
C1003 O1022 1.249 . S
C1003 O1023 1.252 . S
C1004 C1003 1.510 . S
C1004 C1005 1.404 . S
C1004 C1006 1.352 . S
C1005 C1004 1.404 . S
C1005 C1009 1.389 . S
C1005 H1032 0.930 . S
C1006 C1004 1.352 . S
C1006 C1008 1.374 . S
C1006 H1033 0.931 . S
C1007 C1008 1.359 . S
C1007 C1009 1.364 . S
C1008 C1006 1.374 . S
C1008 C1007 1.359 . S
C1008 H1034 0.931 . S
C1009 C1005 1.389 . S
C1009 C1007 1.364 . S
C1009 H1035 0.931 . S
C1010 O1024 1.256 . S
C1010 O1025 1.257 . S
C1011 O1026 1.240 . S
C1011 O1027 1.240 . S
C1012 Gd1001 2.818 . S
C1012 C1013 1.510 . S
C1012 O1028 1.249 . S
C1012 O1029 1.252 . S
C1013 C1012 1.510 . S
C1013 C1014 1.404 . S
C1013 C1015 1.352 . S
C1014 C1013 1.404 . S
C1014 C1018 1.389 . S
C1014 H1036 0.930 . S
C1015 C1013 1.352 . S
C1015 C1017 1.374 . S
C1015 H1037 0.931 . S
C1016 C1017 1.359 . S
C1016 C1018 1.364 . S
C1017 C1015 1.374 . S
C1017 C1016 1.359 . S
C1017 H1038 0.931 . S
C1018 C1014 1.389 . S
C1018 C1016 1.364 . S
C1018 H1039 0.931 . S
C1019 O1030 1.256 . S
C1019 O1031 1.257 . S
O1020 Gd1000 2.377 . S
O1020 C1002 1.240 . S
O1021 Gd1001 2.395 . S
O1021 C1002 1.240 . S
O1022 Gd1000 2.448 . S
O1022 C1003 1.249 . S
O1023 Gd1000 2.506 . S
O1023 C1003 1.252 . S
O1024 Gd1000 2.435 . S
O1024 C1010 1.256 . S
O1025 Gd1000 2.717 . S
O1025 Gd1001 2.327 . S
O1025 C1010 1.257 . S
O1026 Gd1001 2.377 . S
O1026 C1011 1.240 . S
O1027 Gd1000 2.395 . S
O1027 C1011 1.240 . S
O1028 Gd1001 2.448 . S
O1028 C1012 1.249 . S
O1029 Gd1001 2.506 . S
O1029 C1012 1.252 . S
O1030 Gd1001 2.435 . S
O1030 C1019 1.256 . S
O1031 Gd1000 2.327 . S
O1031 Gd1001 2.717 . S
O1031 C1019 1.257 . S
H1032 C1005 0.930 . S
H1033 C1006 0.931 . S
H1034 C1008 0.931 . S
H1035 C1009 0.931 . S
H1036 C1014 0.930 . S
H1037 C1015 0.931 . S
H1038 C1017 0.931 . S
H1039 C1018 0.931 . S
Gd1040 C1043 2.818 . S
Gd1040 O1060 2.377 . S
Gd1040 O1062 2.448 . S
Gd1040 O1063 2.506 . S
Gd1040 O1064 2.435 . S
Gd1040 O1065 2.717 . S
Gd1040 O1067 2.395 . S
Gd1040 O1071 2.327 . S
Gd1041 C1052 2.818 . S
Gd1041 O1061 2.395 . S
Gd1041 O1065 2.327 . S
Gd1041 O1066 2.377 . S
Gd1041 O1068 2.448 . S
Gd1041 O1069 2.506 . S
Gd1041 O1070 2.435 . S
Gd1041 O1071 2.717 . S
C1042 O1060 1.240 . S
C1042 O1061 1.240 . S
C1043 Gd1040 2.818 . S
C1043 C1044 1.510 . S
C1043 O1062 1.249 . S
C1043 O1063 1.252 . S
C1044 C1043 1.510 . S
C1044 C1045 1.404 . S
C1044 C1046 1.352 . S
C1045 C1044 1.404 . S
C1045 C1049 1.389 . S
C1045 H1072 0.930 . S
C1046 C1044 1.352 . S
C1046 C1048 1.374 . S
C1046 H1073 0.931 . S
C1047 C1048 1.359 . S
C1047 C1049 1.364 . S
C1048 C1046 1.374 . S
C1048 C1047 1.359 . S
C1048 H1074 0.931 . S
C1049 C1045 1.389 . S
C1049 C1047 1.364 . S
C1049 H1075 0.931 . S
C1050 O1064 1.256 . S
C1050 O1065 1.257 . S
C1051 O1066 1.240 . S
C1051 O1067 1.240 . S
C1052 Gd1041 2.818 . S
C1052 C1053 1.510 . S
C1052 O1068 1.249 . S
C1052 O1069 1.252 . S
C1053 C1052 1.510 . S
C1053 C1054 1.404 . S
C1053 C1055 1.352 . S
C1054 C1053 1.404 . S
C1054 C1058 1.389 . S
C1054 H1076 0.930 . S
C1055 C1053 1.352 . S
C1055 C1057 1.374 . S
C1055 H1077 0.931 . S
C1056 C1057 1.359 . S
C1056 C1058 1.364 . S
C1057 C1055 1.374 . S
C1057 C1056 1.359 . S
C1057 H1078 0.931 . S
C1058 C1054 1.389 . S
C1058 C1056 1.364 . S
C1058 H1079 0.931 . S
C1059 O1070 1.256 . S
C1059 O1071 1.257 . S
O1060 Gd1040 2.377 . S
O1060 C1042 1.240 . S
O1061 Gd1041 2.395 . S
O1061 C1042 1.240 . S
O1062 Gd1040 2.448 . S
O1062 C1043 1.249 . S
O1063 Gd1040 2.506 . S
O1063 C1043 1.252 . S
O1064 Gd1040 2.435 . S
O1064 C1050 1.256 . S
O1065 Gd1040 2.717 . S
O1065 Gd1041 2.327 . S
O1065 C1050 1.257 . S
O1066 Gd1041 2.377 . S
O1066 C1051 1.240 . S
O1067 Gd1040 2.395 . S
O1067 C1051 1.240 . S
O1068 Gd1041 2.448 . S
O1068 C1052 1.249 . S
O1069 Gd1041 2.506 . S
O1069 C1052 1.252 . S
O1070 Gd1041 2.435 . S
O1070 C1059 1.256 . S
O1071 Gd1040 2.327 . S
O1071 Gd1041 2.717 . S
O1071 C1059 1.257 . S
H1072 C1045 0.930 . S
H1073 C1046 0.931 . S
H1074 C1048 0.931 . S
H1075 C1049 0.931 . S
H1076 C1054 0.930 . S
H1077 C1055 0.931 . S
H1078 C1057 0.931 . S
H1079 C1058 0.931 . S
Gd1080 C1083 2.818 . S
Gd1080 O1100 2.377 . S
Gd1080 O1102 2.448 . S
Gd1080 O1103 2.506 . S
Gd1080 O1104 2.435 . S
Gd1080 O1105 2.717 . S
Gd1080 O1107 2.395 . S
Gd1080 O1111 2.327 . S
Gd1081 C1092 2.818 . S
Gd1081 O1101 2.395 . S
Gd1081 O1105 2.327 1_655 S
Gd1081 O1106 2.377 1_655 S
Gd1081 O1108 2.448 . S
Gd1081 O1109 2.506 . S
Gd1081 O1110 2.435 1_655 S
Gd1081 O1111 2.717 1_655 S
C1082 O1100 1.240 . S
C1082 O1101 1.240 1_455 S
C1083 Gd1080 2.818 . S
C1083 C1084 1.510 . S
C1083 O1102 1.249 . S
C1083 O1103 1.252 . S
C1084 C1083 1.510 . S
C1084 C1085 1.404 . S
C1084 C1086 1.352 . S
C1085 C1084 1.404 . S
C1085 C1089 1.389 . S
C1085 H1112 0.930 . S
C1086 C1084 1.352 . S
C1086 C1088 1.374 . S
C1086 H1113 0.931 . S
C1087 C1088 1.359 . S
C1087 C1089 1.364 . S
C1088 C1086 1.374 . S
C1088 C1087 1.359 . S
C1088 H1114 0.931 . S
C1089 C1085 1.389 . S
C1089 C1087 1.364 . S
C1089 H1115 0.931 . S
C1090 O1104 1.256 . S
C1090 O1105 1.257 . S
C1091 O1106 1.240 . S
C1091 O1107 1.240 . S
C1092 Gd1081 2.818 . S
C1092 C1093 1.510 . S
C1092 O1108 1.249 . S
C1092 O1109 1.252 . S
C1093 C1092 1.510 . S
C1093 C1094 1.404 . S
C1093 C1095 1.352 . S
C1094 C1093 1.404 . S
C1094 C1098 1.389 . S
C1094 H1116 0.930 . S
C1095 C1093 1.352 . S
C1095 C1097 1.374 . S
C1095 H1117 0.931 . S
C1096 C1097 1.359 . S
C1096 C1098 1.364 . S
C1097 C1095 1.374 . S
C1097 C1096 1.359 . S
C1097 H1118 0.931 . S
C1098 C1094 1.389 . S
C1098 C1096 1.364 . S
C1098 H1119 0.931 . S
C1099 O1110 1.256 . S
C1099 O1111 1.257 . S
O1100 Gd1080 2.377 . S
O1100 C1082 1.240 . S
O1101 Gd1081 2.395 . S
O1101 C1082 1.240 1_655 S
O1102 Gd1080 2.448 . S
O1102 C1083 1.249 . S
O1103 Gd1080 2.506 . S
O1103 C1083 1.252 . S
O1104 Gd1080 2.435 . S
O1104 C1090 1.256 . S
O1105 Gd1080 2.717 . S
O1105 Gd1081 2.327 1_455 S
O1105 C1090 1.257 . S
O1106 Gd1081 2.377 1_455 S
O1106 C1091 1.240 . S
O1107 Gd1080 2.395 . S
O1107 C1091 1.240 . S
O1108 Gd1081 2.448 . S
O1108 C1092 1.249 . S
O1109 Gd1081 2.506 . S
O1109 C1092 1.252 . S
O1110 Gd1081 2.435 1_455 S
O1110 C1099 1.256 . S
O1111 Gd1080 2.327 . S
O1111 Gd1081 2.717 1_455 S
O1111 C1099 1.257 . S
H1112 C1085 0.930 . S
H1113 C1086 0.931 . S
H1114 C1088 0.931 . S
H1115 C1089 0.931 . S
H1116 C1094 0.930 . S
H1117 C1095 0.931 . S
H1118 C1097 0.931 . S
H1119 C1098 0.931 . S
Gd1120 C1123 2.818 . S
Gd1120 O1140 2.377 . S
Gd1120 O1142 2.448 . S
Gd1120 O1143 2.506 . S
Gd1120 O1144 2.435 . S
Gd1120 O1145 2.717 . S
Gd1120 O1147 2.395 . S
Gd1120 O1151 2.327 . S
Gd1121 C1132 2.818 . S
Gd1121 O1141 2.395 . S
Gd1121 O1145 2.327 . S
Gd1121 O1146 2.377 . S
Gd1121 O1148 2.448 . S
Gd1121 O1149 2.506 . S
Gd1121 O1150 2.435 . S
Gd1121 O1151 2.717 . S
C1122 O1140 1.240 . S
C1122 O1141 1.240 . S
C1123 Gd1120 2.818 . S
C1123 C1124 1.510 . S
C1123 O1142 1.249 . S
C1123 O1143 1.252 . S
C1124 C1123 1.510 . S
C1124 C1125 1.404 . S
C1124 C1126 1.352 . S
C1125 C1124 1.404 . S
C1125 C1129 1.389 . S
C1125 H1152 0.930 . S
C1126 C1124 1.352 . S
C1126 C1128 1.374 . S
C1126 H1153 0.931 . S
C1127 C1128 1.359 . S
C1127 C1129 1.364 . S
C1128 C1126 1.374 . S
C1128 C1127 1.359 . S
C1128 H1154 0.931 . S
C1129 C1125 1.389 . S
C1129 C1127 1.364 . S
C1129 H1155 0.931 . S
C1130 O1144 1.256 . S
C1130 O1145 1.257 . S
C1131 O1146 1.240 . S
C1131 O1147 1.240 . S
C1132 Gd1121 2.818 . S
C1132 C1133 1.510 . S
C1132 O1148 1.249 . S
C1132 O1149 1.252 . S
C1133 C1132 1.510 . S
C1133 C1134 1.404 . S
C1133 C1135 1.352 . S
C1134 C1133 1.404 . S
C1134 C1138 1.389 . S
C1134 H1156 0.930 . S
C1135 C1133 1.352 . S
C1135 C1137 1.374 . S
C1135 H1157 0.931 . S
C1136 C1137 1.359 . S
C1136 C1138 1.364 . S
C1137 C1135 1.374 . S
C1137 C1136 1.359 . S
C1137 H1158 0.931 . S
C1138 C1134 1.389 . S
C1138 C1136 1.364 . S
C1138 H1159 0.931 . S
C1139 O1150 1.256 . S
C1139 O1151 1.257 . S
O1140 Gd1120 2.377 . S
O1140 C1122 1.240 . S
O1141 Gd1121 2.395 . S
O1141 C1122 1.240 . S
O1142 Gd1120 2.448 . S
O1142 C1123 1.249 . S
O1143 Gd1120 2.506 . S
O1143 C1123 1.252 . S
O1144 Gd1120 2.435 . S
O1144 C1130 1.256 . S
O1145 Gd1120 2.717 . S
O1145 Gd1121 2.327 . S
O1145 C1130 1.257 . S
O1146 Gd1121 2.377 . S
O1146 C1131 1.240 . S
O1147 Gd1120 2.395 . S
O1147 C1131 1.240 . S
O1148 Gd1121 2.448 . S
O1148 C1132 1.249 . S
O1149 Gd1121 2.506 . S
O1149 C1132 1.252 . S
O1150 Gd1121 2.435 . S
O1150 C1139 1.256 . S
O1151 Gd1120 2.327 . S
O1151 Gd1121 2.717 . S
O1151 C1139 1.257 . S
H1152 C1125 0.930 . S
H1153 C1126 0.931 . S
H1154 C1128 0.931 . S
H1155 C1129 0.931 . S
H1156 C1134 0.930 . S
H1157 C1135 0.931 . S
H1158 C1137 0.931 . S
H1159 C1138 0.931 . S
Gd1160 C1163 2.818 . S
Gd1160 O1180 2.377 . S
Gd1160 O1182 2.448 . S
Gd1160 O1183 2.506 . S
Gd1160 O1184 2.435 . S
Gd1160 O1185 2.717 . S
Gd1160 O1187 2.395 . S
Gd1160 O1191 2.327 . S
Gd1161 C1172 2.818 . S
Gd1161 O1181 2.395 . S
Gd1161 O1185 2.327 1_655 S
Gd1161 O1186 2.377 1_655 S
Gd1161 O1188 2.448 . S
Gd1161 O1189 2.506 . S
Gd1161 O1190 2.435 1_655 S
Gd1161 O1191 2.717 1_655 S
C1162 O1180 1.240 . S
C1162 O1181 1.240 1_455 S
C1163 Gd1160 2.818 . S
C1163 C1164 1.510 . S
C1163 O1182 1.249 . S
C1163 O1183 1.252 . S
C1164 C1163 1.510 . S
C1164 C1165 1.404 . S
C1164 C1166 1.352 . S
C1165 C1164 1.404 . S
C1165 C1169 1.389 . S
C1165 H1192 0.930 . S
C1166 C1164 1.352 . S
C1166 C1168 1.374 . S
C1166 H1193 0.931 . S
C1167 C1168 1.359 . S
C1167 C1169 1.364 . S
C1168 C1166 1.374 . S
C1168 C1167 1.359 . S
C1168 H1194 0.931 . S
C1169 C1165 1.389 . S
C1169 C1167 1.364 . S
C1169 H1195 0.931 . S
C1170 O1184 1.256 . S
C1170 O1185 1.257 . S
C1171 O1186 1.240 . S
C1171 O1187 1.240 . S
C1172 Gd1161 2.818 . S
C1172 C1173 1.510 . S
C1172 O1188 1.249 . S
C1172 O1189 1.252 . S
C1173 C1172 1.510 . S
C1173 C1174 1.404 . S
C1173 C1175 1.352 . S
C1174 C1173 1.404 . S
C1174 C1178 1.389 . S
C1174 H1196 0.930 . S
C1175 C1173 1.352 . S
C1175 C1177 1.374 . S
C1175 H1197 0.931 . S
C1176 C1177 1.359 . S
C1176 C1178 1.364 . S
C1177 C1175 1.374 . S
C1177 C1176 1.359 . S
C1177 H1198 0.931 . S
C1178 C1174 1.389 . S
C1178 C1176 1.364 . S
C1178 H1199 0.931 . S
C1179 O1190 1.256 . S
C1179 O1191 1.257 . S
O1180 Gd1160 2.377 . S
O1180 C1162 1.240 . S
O1181 Gd1161 2.395 . S
O1181 C1162 1.240 1_655 S
O1182 Gd1160 2.448 . S
O1182 C1163 1.249 . S
O1183 Gd1160 2.506 . S
O1183 C1163 1.252 . S
O1184 Gd1160 2.435 . S
O1184 C1170 1.256 . S
O1185 Gd1160 2.717 . S
O1185 Gd1161 2.327 1_455 S
O1185 C1170 1.257 . S
O1186 Gd1161 2.377 1_455 S
O1186 C1171 1.240 . S
O1187 Gd1160 2.395 . S
O1187 C1171 1.240 . S
O1188 Gd1161 2.448 . S
O1188 C1172 1.249 . S
O1189 Gd1161 2.506 . S
O1189 C1172 1.252 . S
O1190 Gd1161 2.435 1_455 S
O1190 C1179 1.256 . S
O1191 Gd1160 2.327 . S
O1191 Gd1161 2.717 1_455 S
O1191 C1179 1.257 . S
H1192 C1165 0.930 . S
H1193 C1166 0.931 . S
H1194 C1168 0.931 . S
H1195 C1169 0.931 . S
H1196 C1174 0.930 . S
H1197 C1175 0.931 . S
H1198 C1177 0.931 . S
H1199 C1178 0.931 . S
Gd1200 C1203 2.818 . S
Gd1200 O1220 2.377 . S
Gd1200 O1222 2.448 . S
Gd1200 O1223 2.506 . S
Gd1200 O1224 2.435 . S
Gd1200 O1225 2.717 . S
Gd1200 O1227 2.395 . S
Gd1200 O1231 2.327 . S
Gd1201 C1212 2.818 . S
Gd1201 O1221 2.395 . S
Gd1201 O1225 2.327 . S
Gd1201 O1226 2.377 . S
Gd1201 O1228 2.448 . S
Gd1201 O1229 2.506 . S
Gd1201 O1230 2.435 . S
Gd1201 O1231 2.717 . S
C1202 O1220 1.240 . S
C1202 O1221 1.240 . S
C1203 Gd1200 2.818 . S
C1203 C1204 1.510 . S
C1203 O1222 1.249 . S
C1203 O1223 1.252 . S
C1204 C1203 1.510 . S
C1204 C1205 1.404 . S
C1204 C1206 1.352 . S
C1205 C1204 1.404 . S
C1205 C1209 1.389 . S
C1205 H1232 0.930 . S
C1206 C1204 1.352 . S
C1206 C1208 1.374 . S
C1206 H1233 0.931 . S
C1207 C1208 1.359 . S
C1207 C1209 1.364 . S
C1208 C1206 1.374 . S
C1208 C1207 1.359 . S
C1208 H1234 0.931 . S
C1209 C1205 1.389 . S
C1209 C1207 1.364 . S
C1209 H1235 0.931 . S
C1210 O1224 1.256 . S
C1210 O1225 1.257 . S
C1211 O1226 1.240 . S
C1211 O1227 1.240 . S
C1212 Gd1201 2.818 . S
C1212 C1213 1.510 . S
C1212 O1228 1.249 . S
C1212 O1229 1.252 . S
C1213 C1212 1.510 . S
C1213 C1214 1.404 . S
C1213 C1215 1.352 . S
C1214 C1213 1.404 . S
C1214 C1218 1.389 . S
C1214 H1236 0.930 . S
C1215 C1213 1.352 . S
C1215 C1217 1.374 . S
C1215 H1237 0.931 . S
C1216 C1217 1.359 . S
C1216 C1218 1.364 . S
C1217 C1215 1.374 . S
C1217 C1216 1.359 . S
C1217 H1238 0.931 . S
C1218 C1214 1.389 . S
C1218 C1216 1.364 . S
C1218 H1239 0.931 . S
C1219 O1230 1.256 . S
C1219 O1231 1.257 . S
O1220 Gd1200 2.377 . S
O1220 C1202 1.240 . S
O1221 Gd1201 2.395 . S
O1221 C1202 1.240 . S
O1222 Gd1200 2.448 . S
O1222 C1203 1.249 . S
O1223 Gd1200 2.506 . S
O1223 C1203 1.252 . S
O1224 Gd1200 2.435 . S
O1224 C1210 1.256 . S
O1225 Gd1200 2.717 . S
O1225 Gd1201 2.327 . S
O1225 C1210 1.257 . S
O1226 Gd1201 2.377 . S
O1226 C1211 1.240 . S
O1227 Gd1200 2.395 . S
O1227 C1211 1.240 . S
O1228 Gd1201 2.448 . S
O1228 C1212 1.249 . S
O1229 Gd1201 2.506 . S
O1229 C1212 1.252 . S
O1230 Gd1201 2.435 . S
O1230 C1219 1.256 . S
O1231 Gd1200 2.327 . S
O1231 Gd1201 2.717 . S
O1231 C1219 1.257 . S
H1232 C1205 0.930 . S
H1233 C1206 0.931 . S
H1234 C1208 0.931 . S
H1235 C1209 0.931 . S
H1236 C1214 0.930 . S
H1237 C1215 0.931 . S
H1238 C1217 0.931 . S
H1239 C1218 0.931 . S
Gd1240 C1243 2.818 . S
Gd1240 O1260 2.377 . S
Gd1240 O1262 2.448 . S
Gd1240 O1263 2.506 . S
Gd1240 O1264 2.435 . S
Gd1240 O1265 2.717 . S
Gd1240 O1267 2.395 . S
Gd1240 O1271 2.327 . S
Gd1241 C1252 2.818 . S
Gd1241 O1261 2.395 . S
Gd1241 O1265 2.327 . S
Gd1241 O1266 2.377 . S
Gd1241 O1268 2.448 . S
Gd1241 O1269 2.506 . S
Gd1241 O1270 2.435 . S
Gd1241 O1271 2.717 . S
C1242 O1260 1.240 . S
C1242 O1261 1.240 . S
C1243 Gd1240 2.818 . S
C1243 C1244 1.510 . S
C1243 O1262 1.249 . S
C1243 O1263 1.252 . S
C1244 C1243 1.510 . S
C1244 C1245 1.404 . S
C1244 C1246 1.352 . S
C1245 C1244 1.404 . S
C1245 C1249 1.389 . S
C1245 H1272 0.930 . S
C1246 C1244 1.352 . S
C1246 C1248 1.374 . S
C1246 H1273 0.931 . S
C1247 C1248 1.359 . S
C1247 C1249 1.364 . S
C1248 C1246 1.374 . S
C1248 C1247 1.359 . S
C1248 H1274 0.931 . S
C1249 C1245 1.389 . S
C1249 C1247 1.364 . S
C1249 H1275 0.931 . S
C1250 O1264 1.256 . S
C1250 O1265 1.257 . S
C1251 O1266 1.240 . S
C1251 O1267 1.240 . S
C1252 Gd1241 2.818 . S
C1252 C1253 1.510 . S
C1252 O1268 1.249 . S
C1252 O1269 1.252 . S
C1253 C1252 1.510 . S
C1253 C1254 1.404 . S
C1253 C1255 1.352 . S
C1254 C1253 1.404 . S
C1254 C1258 1.389 . S
C1254 H1276 0.930 . S
C1255 C1253 1.352 . S
C1255 C1257 1.374 . S
C1255 H1277 0.931 . S
C1256 C1257 1.359 . S
C1256 C1258 1.364 . S
C1257 C1255 1.374 . S
C1257 C1256 1.359 . S
C1257 H1278 0.931 . S
C1258 C1254 1.389 . S
C1258 C1256 1.364 . S
C1258 H1279 0.931 . S
C1259 O1270 1.256 . S
C1259 O1271 1.257 . S
O1260 Gd1240 2.377 . S
O1260 C1242 1.240 . S
O1261 Gd1241 2.395 . S
O1261 C1242 1.240 . S
O1262 Gd1240 2.448 . S
O1262 C1243 1.249 . S
O1263 Gd1240 2.506 . S
O1263 C1243 1.252 . S
O1264 Gd1240 2.435 . S
O1264 C1250 1.256 . S
O1265 Gd1240 2.717 . S
O1265 Gd1241 2.327 . S
O1265 C1250 1.257 . S
O1266 Gd1241 2.377 . S
O1266 C1251 1.240 . S
O1267 Gd1240 2.395 . S
O1267 C1251 1.240 . S
O1268 Gd1241 2.448 . S
O1268 C1252 1.249 . S
O1269 Gd1241 2.506 . S
O1269 C1252 1.252 . S
O1270 Gd1241 2.435 . S
O1270 C1259 1.256 . S
O1271 Gd1240 2.327 . S
O1271 Gd1241 2.717 . S
O1271 C1259 1.257 . S
H1272 C1245 0.930 . S
H1273 C1246 0.931 . S
H1274 C1248 0.931 . S
H1275 C1249 0.931 . S
H1276 C1254 0.930 . S
H1277 C1255 0.931 . S
H1278 C1257 0.931 . S
H1279 C1258 0.931 . S
C1280 C1281 1.387 . S
C1280 H1284 0.950 . S
C1280 C1289 1.390 . S
C1281 C1280 1.387 . S
C1281 C1283 1.387 . S
H1282 C1289 0.950 . S
C1283 C1281 1.387 . S
C1283 C1285 1.390 . S
C1283 H1287 0.950 . S
H1284 C1280 0.950 . S
C1285 C1283 1.390 . S
C1285 C1286 1.387 . S
C1285 H1288 0.950 . S
C1286 C1285 1.387 . S
C1286 C1289 1.387 . S
H1287 C1283 0.950 . S
H1288 C1285 0.950 . S
C1289 C1280 1.390 . S
C1289 H1282 0.950 . S
C1289 C1286 1.387 . S
C1290 C1291 1.387 . S
C1290 H1294 0.950 . S
C1290 C1299 1.390 . S
C1291 C1290 1.387 . S
C1291 C1293 1.387 . S
H1292 C1299 0.950 . S
C1293 C1291 1.387 . S
C1293 C1295 1.390 . S
C1293 H1297 0.950 . S
H1294 C1290 0.950 . S
C1295 C1293 1.390 . S
C1295 C1296 1.387 . S
C1295 H1298 0.950 . S
C1296 C1295 1.387 . S
C1296 C1299 1.387 . S
H1297 C1293 0.950 . S
H1298 C1295 0.950 . S
C1299 C1290 1.390 . S
C1299 H1292 0.950 . S
C1299 C1296 1.387 . S
C1300 C1301 1.387 . S
C1300 H1304 0.950 . S
C1300 C1309 1.390 . S
C1301 C1300 1.387 . S
C1301 C1303 1.387 . S
H1302 C1309 0.950 . S
C1303 C1301 1.387 . S
C1303 C1305 1.390 . S
C1303 H1307 0.950 . S
H1304 C1300 0.950 . S
C1305 C1303 1.390 . S
C1305 C1306 1.387 . S
C1305 H1308 0.950 . S
C1306 C1305 1.387 . S
C1306 C1309 1.387 . S
H1307 C1303 0.950 . S
H1308 C1305 0.950 . S
C1309 C1300 1.390 . S
C1309 H1302 0.950 . S
C1309 C1306 1.387 . S
C1310 C1311 1.387 . S
C1310 H1314 0.950 . S
C1310 C1319 1.390 . S
C1311 C1310 1.387 . S
C1311 C1313 1.387 . S
H1312 C1319 0.950 . S
C1313 C1311 1.387 . S
C1313 C1315 1.390 . S
C1313 H1317 0.950 . S
H1314 C1310 0.950 . S
C1315 C1313 1.390 . S
C1315 C1316 1.387 . S
C1315 H1318 0.950 . S
C1316 C1315 1.387 . S
C1316 C1319 1.387 . S
H1317 C1313 0.950 . S
H1318 C1315 0.950 . S
C1319 C1310 1.390 . S
C1319 H1312 0.950 . S
C1319 C1316 1.387 . S
C1320 C1321 1.387 . S
C1320 H1324 0.950 . S
C1320 C1329 1.390 . S
C1321 C1320 1.387 . S
C1321 C1323 1.387 . S
H1322 C1329 0.950 . S
C1323 C1321 1.387 . S
C1323 C1325 1.390 . S
C1323 H1327 0.950 . S
H1324 C1320 0.950 . S
C1325 C1323 1.390 . S
C1325 C1326 1.387 . S
C1325 H1328 0.950 . S
C1326 C1325 1.387 . S
C1326 C1329 1.387 . S
H1327 C1323 0.950 . S
H1328 C1325 0.950 . S
C1329 C1320 1.390 . S
C1329 H1322 0.950 . S
C1329 C1326 1.387 . S
C1330 C1331 1.387 . S
C1330 H1334 0.950 . S
C1330 C1339 1.390 . S
C1331 C1330 1.387 . S
C1331 C1333 1.387 . S
H1332 C1339 0.950 . S
C1333 C1331 1.387 . S
C1333 C1335 1.390 . S
C1333 H1337 0.950 . S
H1334 C1330 0.950 . S
C1335 C1333 1.390 . S
C1335 C1336 1.387 . S
C1335 H1338 0.950 . S
C1336 C1335 1.387 . S
C1336 C1339 1.387 . S
H1337 C1333 0.950 . S
H1338 C1335 0.950 . S
C1339 C1330 1.390 . S
C1339 H1332 0.950 . S
C1339 C1336 1.387 . S
C1340 C1341 1.387 . S
C1340 H1344 0.950 . S
C1340 C1349 1.390 . S
C1341 C1340 1.387 . S
C1341 C1343 1.387 . S
H1342 C1349 0.950 . S
C1343 C1341 1.387 . S
C1343 C1345 1.390 . S
C1343 H1347 0.950 . S
H1344 C1340 0.950 . S
C1345 C1343 1.390 . S
C1345 C1346 1.387 . S
C1345 H1348 0.950 . S
C1346 C1345 1.387 . S
C1346 C1349 1.387 . S
H1347 C1343 0.950 . S
H1348 C1345 0.950 . S
C1349 C1340 1.390 . S
C1349 H1342 0.950 . S
C1349 C1346 1.387 . S
C1350 C1351 1.387 . S
C1350 H1354 0.950 . S
C1350 C1359 1.390 . S
C1351 C1350 1.387 . S
C1351 C1353 1.387 . S
H1352 C1359 0.950 . S
C1353 C1351 1.387 . S
C1353 C1355 1.390 . S
C1353 H1357 0.950 . S
H1354 C1350 0.950 . S
C1355 C1353 1.390 . S
C1355 C1356 1.387 . S
C1355 H1358 0.950 . S
C1356 C1355 1.387 . S
C1356 C1359 1.387 . S
H1357 C1353 0.950 . S
H1358 C1355 0.950 . S
C1359 C1350 1.390 . S
C1359 H1352 0.950 . S
C1359 C1356 1.387 . S
C1360 C1361 1.387 . S
C1360 H1364 0.950 . S
C1360 C1369 1.390 . S
C1361 C1360 1.387 . S
C1361 C1363 1.387 . S
H1362 C1369 0.950 . S
C1363 C1361 1.387 . S
C1363 C1365 1.390 . S
C1363 H1367 0.950 . S
H1364 C1360 0.950 . S
C1365 C1363 1.390 . S
C1365 C1366 1.387 . S
C1365 H1368 0.950 . S
C1366 C1365 1.387 . S
C1366 C1369 1.387 . S
H1367 C1363 0.950 . S
H1368 C1365 0.950 . S
C1369 C1360 1.390 . S
C1369 H1362 0.950 . S
C1369 C1366 1.387 . S
C1370 C1371 1.387 . S
C1370 H1374 0.950 . S
C1370 C1379 1.390 . S
C1371 C1370 1.387 . S
C1371 C1373 1.387 . S
H1372 C1379 0.950 . S
C1373 C1371 1.387 . S
C1373 C1375 1.390 . S
C1373 H1377 0.950 . S
H1374 C1370 0.950 . S
C1375 C1373 1.390 . S
C1375 C1376 1.387 . S
C1375 H1378 0.950 . S
C1376 C1375 1.387 . S
C1376 C1379 1.387 . S
H1377 C1373 0.950 . S
H1378 C1375 0.950 . S
C1379 C1370 1.390 . S
C1379 H1372 0.950 . S
C1379 C1376 1.387 . S
C1380 C1381 1.387 . S
C1380 H1384 0.950 . S
C1380 C1389 1.390 . S
C1381 C1380 1.387 . S
C1381 C1383 1.387 . S
H1382 C1389 0.950 . S
C1383 C1381 1.387 . S
C1383 C1385 1.390 . S
C1383 H1387 0.950 . S
H1384 C1380 0.950 . S
C1385 C1383 1.390 . S
C1385 C1386 1.387 . S
C1385 H1388 0.950 . S
C1386 C1385 1.387 . S
C1386 C1389 1.387 . S
H1387 C1383 0.950 . S
H1388 C1385 0.950 . S
C1389 C1380 1.390 . S
C1389 H1382 0.950 . S
C1389 C1386 1.387 . S
C1390 C1391 1.387 . S
C1390 H1394 0.950 . S
C1390 C1399 1.390 . S
C1391 C1390 1.387 . S
C1391 C1393 1.387 . S
H1392 C1399 0.950 . S
C1393 C1391 1.387 . S
C1393 C1395 1.390 . S
C1393 H1397 0.950 . S
H1394 C1390 0.950 . S
C1395 C1393 1.390 . S
C1395 C1396 1.387 . S
C1395 H1398 0.950 . S
C1396 C1395 1.387 . S
C1396 C1399 1.387 . S
H1397 C1393 0.950 . S
H1398 C1395 0.950 . S
C1399 C1390 1.390 . S
C1399 H1392 0.950 . S
C1399 C1396 1.387 . S
C1400 C1401 1.387 . S
C1400 H1404 0.950 . S
C1400 C1409 1.390 . S
C1401 C1400 1.387 . S
C1401 C1403 1.387 . S
H1402 C1409 0.950 . S
C1403 C1401 1.387 . S
C1403 C1405 1.390 . S
C1403 H1407 0.950 . S
H1404 C1400 0.950 . S
C1405 C1403 1.390 . S
C1405 C1406 1.387 . S
C1405 H1408 0.950 . S
C1406 C1405 1.387 . S
C1406 C1409 1.387 . S
H1407 C1403 0.950 . S
H1408 C1405 0.950 . S
C1409 C1400 1.390 . S
C1409 H1402 0.950 . S
C1409 C1406 1.387 . S
C1410 C1411 1.387 . S
C1410 H1414 0.950 . S
C1410 C1419 1.390 . S
C1411 C1410 1.387 . S
C1411 C1413 1.387 . S
H1412 C1419 0.950 . S
C1413 C1411 1.387 . S
C1413 C1415 1.390 . S
C1413 H1417 0.950 . S
H1414 C1410 0.950 . S
C1415 C1413 1.390 . S
C1415 C1416 1.387 . S
C1415 H1418 0.950 . S
C1416 C1415 1.387 . S
C1416 C1419 1.387 . S
H1417 C1413 0.950 . S
H1418 C1415 0.950 . S
C1419 C1410 1.390 . S
C1419 H1412 0.950 . S
C1419 C1416 1.387 . S
C1420 C1421 1.387 . S
C1420 H1424 0.950 . S
C1420 C1429 1.390 . S
C1421 C1420 1.387 . S
C1421 C1423 1.387 . S
H1422 C1429 0.950 . S
C1423 C1421 1.387 . S
C1423 C1425 1.390 . S
C1423 H1427 0.950 . S
H1424 C1420 0.950 . S
C1425 C1423 1.390 . S
C1425 C1426 1.387 . S
C1425 H1428 0.950 . S
C1426 C1425 1.387 . S
C1426 C1429 1.387 . S
H1427 C1423 0.950 . S
H1428 C1425 0.950 . S
C1429 C1420 1.390 . S
C1429 H1422 0.950 . S
C1429 C1426 1.387 . S
C1430 C1431 1.387 . S
C1430 H1434 0.950 . S
C1430 C1439 1.390 . S
C1431 C1430 1.387 . S
C1431 C1433 1.387 . S
H1432 C1439 0.950 . S
C1433 C1431 1.387 . S
C1433 C1435 1.390 . S
C1433 H1437 0.950 . S
H1434 C1430 0.950 . S
C1435 C1433 1.390 . S
C1435 C1436 1.387 . S
C1435 H1438 0.950 . S
C1436 C1435 1.387 . S
C1436 C1439 1.387 . S
H1437 C1433 0.950 . S
H1438 C1435 0.950 . S
C1439 C1430 1.390 . S
C1439 H1432 0.950 . S
C1439 C1436 1.387 . S
C1440 C1441 1.387 . S
C1440 H1444 0.950 . S
C1440 C1449 1.390 . S
C1441 C1440 1.387 . S
C1441 C1443 1.387 . S
H1442 C1449 0.950 . S
C1443 C1441 1.387 . S
C1443 C1445 1.390 . S
C1443 H1447 0.950 . S
H1444 C1440 0.950 . S
C1445 C1443 1.390 . S
C1445 C1446 1.387 . S
C1445 H1448 0.950 . S
C1446 C1445 1.387 . S
C1446 C1449 1.387 . S
H1447 C1443 0.950 . S
H1448 C1445 0.950 . S
C1449 C1440 1.390 . S
C1449 H1442 0.950 . S
C1449 C1446 1.387 . S
C1450 C1451 1.387 . S
C1450 H1454 0.950 . S
C1450 C1459 1.390 . S
C1451 C1450 1.387 . S
C1451 C1453 1.387 . S
H1452 C1459 0.950 . S
C1453 C1451 1.387 . S
C1453 C1455 1.390 . S
C1453 H1457 0.950 . S
H1454 C1450 0.950 . S
C1455 C1453 1.390 . S
C1455 C1456 1.387 . S
C1455 H1458 0.950 . S
C1456 C1455 1.387 . S
C1456 C1459 1.387 . S
H1457 C1453 0.950 . S
H1458 C1455 0.950 . S
C1459 C1450 1.390 . S
C1459 H1452 0.950 . S
C1459 C1456 1.387 . S
C1460 C1461 1.387 . S
C1460 H1464 0.950 . S
C1460 C1469 1.390 . S
C1461 C1460 1.387 . S
C1461 C1463 1.387 . S
H1462 C1469 0.950 . S
C1463 C1461 1.387 . S
C1463 C1465 1.390 . S
C1463 H1467 0.950 . S
H1464 C1460 0.950 . S
C1465 C1463 1.390 . S
C1465 C1466 1.387 . S
C1465 H1468 0.950 . S
C1466 C1465 1.387 . S
C1466 C1469 1.387 . S
H1467 C1463 0.950 . S
H1468 C1465 0.950 . S
C1469 C1460 1.390 . S
C1469 H1462 0.950 . S
C1469 C1466 1.387 . S
C1470 C1471 1.387 . S
C1470 H1474 0.950 . S
C1470 C1479 1.390 . S
C1471 C1470 1.387 . S
C1471 C1473 1.387 . S
H1472 C1479 0.950 . S
C1473 C1471 1.387 . S
C1473 C1475 1.390 . S
C1473 H1477 0.950 . S
H1474 C1470 0.950 . S
C1475 C1473 1.390 . S
C1475 C1476 1.387 . S
C1475 H1478 0.950 . S
C1476 C1475 1.387 . S
C1476 C1479 1.387 . S
H1477 C1473 0.950 . S
H1478 C1475 0.950 . S
C1479 C1470 1.390 . S
C1479 H1472 0.950 . S
C1479 C1476 1.387 . S
C1480 C1481 1.387 . S
C1480 H1484 0.950 . S
C1480 C1489 1.390 . S
C1481 C1480 1.387 . S
C1481 C1483 1.387 . S
H1482 C1489 0.950 . S
C1483 C1481 1.387 . S
C1483 C1485 1.390 . S
C1483 H1487 0.950 . S
H1484 C1480 0.950 . S
C1485 C1483 1.390 . S
C1485 C1486 1.387 . S
C1485 H1488 0.950 . S
C1486 C1485 1.387 . S
C1486 C1489 1.387 . S
H1487 C1483 0.950 . S
H1488 C1485 0.950 . S
C1489 C1480 1.390 . S
C1489 H1482 0.950 . S
C1489 C1486 1.387 . S
C1490 C1491 1.387 . S
C1490 H1494 0.950 . S
C1490 C1499 1.390 . S
C1491 C1490 1.387 . S
C1491 C1493 1.387 . S
H1492 C1499 0.950 . S
C1493 C1491 1.387 . S
C1493 C1495 1.390 . S
C1493 H1497 0.950 . S
H1494 C1490 0.950 . S
C1495 C1493 1.390 . S
C1495 C1496 1.387 . S
C1495 H1498 0.950 . S
C1496 C1495 1.387 . S
C1496 C1499 1.387 . S
H1497 C1493 0.950 . S
H1498 C1495 0.950 . S
C1499 C1490 1.390 . S
C1499 H1492 0.950 . S
C1499 C1496 1.387 . S
C1500 C1501 1.387 . S
C1500 H1504 0.950 . S
C1500 C1509 1.390 . S
C1501 C1500 1.387 . S
C1501 C1503 1.387 . S
H1502 C1509 0.950 . S
C1503 C1501 1.387 . S
C1503 C1505 1.390 . S
C1503 H1507 0.950 . S
H1504 C1500 0.950 . S
C1505 C1503 1.390 . S
C1505 C1506 1.387 . S
C1505 H1508 0.950 . S
C1506 C1505 1.387 . S
C1506 C1509 1.387 . S
H1507 C1503 0.950 . S
H1508 C1505 0.950 . S
C1509 C1500 1.390 . S
C1509 H1502 0.950 . S
C1509 C1506 1.387 . S
C1510 C1511 1.387 . S
C1510 H1514 0.950 . S
C1510 C1519 1.390 . S
C1511 C1510 1.387 . S
C1511 C1513 1.387 . S
H1512 C1519 0.950 . S
C1513 C1511 1.387 . S
C1513 C1515 1.390 . S
C1513 H1517 0.950 . S
H1514 C1510 0.950 . S
C1515 C1513 1.390 . S
C1515 C1516 1.387 . S
C1515 H1518 0.950 . S
C1516 C1515 1.387 . S
C1516 C1519 1.387 . S
H1517 C1513 0.950 . S
H1518 C1515 0.950 . S
C1519 C1510 1.390 . S
C1519 H1512 0.950 . S
C1519 C1516 1.387 . S
C1520 C1521 1.387 . S
C1520 H1524 0.950 . S
C1520 C1529 1.390 . S
C1521 C1520 1.387 . S
C1521 C1523 1.387 . S
H1522 C1529 0.950 . S
C1523 C1521 1.387 . S
C1523 C1525 1.390 . S
C1523 H1527 0.950 . S
H1524 C1520 0.950 . S
C1525 C1523 1.390 . S
C1525 C1526 1.387 . S
C1525 H1528 0.950 . S
C1526 C1525 1.387 . S
C1526 C1529 1.387 . S
H1527 C1523 0.950 . S
H1528 C1525 0.950 . S
C1529 C1520 1.390 . S
C1529 H1522 0.950 . S
C1529 C1526 1.387 . S
C1530 C1531 1.387 . S
C1530 H1534 0.950 . S
C1530 C1539 1.390 . S
C1531 C1530 1.387 . S
C1531 C1533 1.387 . S
H1532 C1539 0.950 . S
C1533 C1531 1.387 . S
C1533 C1535 1.390 . S
C1533 H1537 0.950 . S
H1534 C1530 0.950 . S
C1535 C1533 1.390 . S
C1535 C1536 1.387 . S
C1535 H1538 0.950 . S
C1536 C1535 1.387 . S
C1536 C1539 1.387 . S
H1537 C1533 0.950 . S
H1538 C1535 0.950 . S
C1539 C1530 1.390 . S
C1539 H1532 0.950 . S
C1539 C1536 1.387 . S
C1540 C1541 1.387 . S
C1540 H1544 0.950 . S
C1540 C1549 1.390 . S
C1541 C1540 1.387 . S
C1541 C1543 1.387 . S
H1542 C1549 0.950 . S
C1543 C1541 1.387 . S
C1543 C1545 1.390 . S
C1543 H1547 0.950 . S
H1544 C1540 0.950 . S
C1545 C1543 1.390 . S
C1545 C1546 1.387 . S
C1545 H1548 0.950 . S
C1546 C1545 1.387 . S
C1546 C1549 1.387 . S
H1547 C1543 0.950 . S
H1548 C1545 0.950 . S
C1549 C1540 1.390 . S
C1549 H1542 0.950 . S
C1549 C1546 1.387 . S
C1550 C1551 1.387 . S
C1550 H1554 0.950 . S
C1550 C1559 1.390 . S
C1551 C1550 1.387 . S
C1551 C1553 1.387 . S
H1552 C1559 0.950 . S
C1553 C1551 1.387 . S
C1553 C1555 1.390 . S
C1553 H1557 0.950 . S
H1554 C1550 0.950 . S
C1555 C1553 1.390 . S
C1555 C1556 1.387 . S
C1555 H1558 0.950 . S
C1556 C1555 1.387 . S
C1556 C1559 1.387 . S
H1557 C1553 0.950 . S
H1558 C1555 0.950 . S
C1559 C1550 1.390 . S
C1559 H1552 0.950 . S
C1559 C1556 1.387 . S
C1560 C1561 1.387 . S
C1560 H1564 0.950 . S
C1560 C1569 1.390 . S
C1561 C1560 1.387 . S
C1561 C1563 1.387 . S
H1562 C1569 0.950 . S
C1563 C1561 1.387 . S
C1563 C1565 1.390 . S
C1563 H1567 0.950 . S
H1564 C1560 0.950 . S
C1565 C1563 1.390 . S
C1565 C1566 1.387 . S
C1565 H1568 0.950 . S
C1566 C1565 1.387 . S
C1566 C1569 1.387 . S
H1567 C1563 0.950 . S
H1568 C1565 0.950 . S
C1569 C1560 1.390 . S
C1569 H1562 0.950 . S
C1569 C1566 1.387 . S
C1570 C1571 1.387 . S
C1570 H1574 0.950 . S
C1570 C1579 1.390 . S
C1571 C1570 1.387 . S
C1571 C1573 1.387 . S
H1572 C1579 0.950 . S
C1573 C1571 1.387 . S
C1573 C1575 1.390 . S
C1573 H1577 0.950 . S
H1574 C1570 0.950 . S
C1575 C1573 1.390 . S
C1575 C1576 1.387 . S
C1575 H1578 0.950 . S
C1576 C1575 1.387 . S
C1576 C1579 1.387 . S
H1577 C1573 0.950 . S
H1578 C1575 0.950 . S
C1579 C1570 1.390 . S
C1579 H1572 0.950 . S
C1579 C1576 1.387 . S
C1580 C1581 1.387 . S
C1580 H1584 0.950 . S
C1580 C1589 1.390 . S
C1581 C1580 1.387 . S
C1581 C1583 1.387 . S
H1582 C1589 0.950 . S
C1583 C1581 1.387 . S
C1583 C1585 1.390 . S
C1583 H1587 0.950 . S
H1584 C1580 0.950 . S
C1585 C1583 1.390 . S
C1585 C1586 1.387 . S
C1585 H1588 0.950 . S
C1586 C1585 1.387 . S
C1586 C1589 1.387 . S
H1587 C1583 0.950 . S
H1588 C1585 0.950 . S
C1589 C1580 1.390 . S
C1589 H1582 0.950 . S
C1589 C1586 1.387 . S
C1590 C1591 1.387 . S
C1590 H1594 0.950 . S
C1590 C1599 1.390 . S
C1591 C1590 1.387 . S
C1591 C1593 1.387 . S
H1592 C1599 0.950 . S
C1593 C1591 1.387 . S
C1593 C1595 1.390 . S
C1593 H1597 0.950 . S
H1594 C1590 0.950 . S
C1595 C1593 1.390 . S
C1595 C1596 1.387 . S
C1595 H1598 0.950 . S
C1596 C1595 1.387 . S
C1596 C1599 1.387 . S
H1597 C1593 0.950 . S
H1598 C1595 0.950 . S
C1599 C1590 1.390 . S
C1599 H1592 0.950 . S
C1599 C1596 1.387 . S
C1600 C1601 1.387 . S
C1600 H1604 0.950 . S
C1600 C1609 1.390 1_455 S
C1601 C1600 1.387 . S
C1601 C1603 1.387 . S
H1602 C1609 0.950 . S
C1603 C1601 1.387 . S
C1603 C1605 1.390 1_455 S
C1603 H1607 0.950 . S
H1604 C1600 0.950 . S
C1605 C1603 1.390 1_655 S
C1605 C1606 1.387 . S
C1605 H1608 0.950 . S
C1606 C1605 1.387 . S
C1606 C1609 1.387 . S
H1607 C1603 0.950 . S
H1608 C1605 0.950 . S
C1609 C1600 1.390 1_655 S
C1609 H1602 0.950 . S
C1609 C1606 1.387 . S
C1610 C1611 1.387 . S
C1610 H1614 0.950 . S
C1610 C1619 1.390 1_455 S
C1611 C1610 1.387 . S
C1611 C1613 1.387 . S
H1612 C1619 0.950 . S
C1613 C1611 1.387 . S
C1613 C1615 1.390 1_455 S
C1613 H1617 0.950 . S
H1614 C1610 0.950 . S
C1615 C1613 1.390 1_655 S
C1615 C1616 1.387 . S
C1615 H1618 0.950 . S
C1616 C1615 1.387 . S
C1616 C1619 1.387 . S
H1617 C1613 0.950 . S
H1618 C1615 0.950 . S
C1619 C1610 1.390 1_655 S
C1619 H1612 0.950 . S
C1619 C1616 1.387 . S
C1620 C1621 1.387 . S
C1620 H1624 0.950 . S
C1620 C1629 1.390 . S
C1621 C1620 1.387 . S
C1621 C1623 1.387 . S
H1622 C1629 0.950 . S
C1623 C1621 1.387 . S
C1623 C1625 1.390 . S
C1623 H1627 0.950 . S
H1624 C1620 0.950 . S
C1625 C1623 1.390 . S
C1625 C1626 1.387 . S
C1625 H1628 0.950 . S
C1626 C1625 1.387 . S
C1626 C1629 1.387 . S
H1627 C1623 0.950 . S
H1628 C1625 0.950 . S
C1629 C1620 1.390 . S
C1629 H1622 0.950 . S
C1629 C1626 1.387 . S
C1630 C1631 1.387 . S
C1630 H1634 0.950 . S
C1630 C1639 1.390 . S
C1631 C1630 1.387 . S
C1631 C1633 1.387 . S
H1632 C1639 0.950 . S
C1633 C1631 1.387 . S
C1633 C1635 1.390 . S
C1633 H1637 0.950 . S
H1634 C1630 0.950 . S
C1635 C1633 1.390 . S
C1635 C1636 1.387 . S
C1635 H1638 0.950 . S
C1636 C1635 1.387 . S
C1636 C1639 1.387 . S
H1637 C1633 0.950 . S
H1638 C1635 0.950 . S
C1639 C1630 1.390 . S
C1639 H1632 0.950 . S
C1639 C1636 1.387 . S
C1640 C1641 1.387 . S
C1640 H1644 0.950 . S
C1640 C1649 1.390 1_655 S
C1641 C1640 1.387 . S
C1641 C1643 1.387 . S
H1642 C1649 0.950 . S
C1643 C1641 1.387 . S
C1643 C1645 1.390 1_655 S
C1643 H1647 0.950 . S
H1644 C1640 0.950 . S
C1645 C1643 1.390 1_455 S
C1645 C1646 1.387 . S
C1645 H1648 0.950 . S
C1646 C1645 1.387 . S
C1646 C1649 1.387 . S
H1647 C1643 0.950 . S
H1648 C1645 0.950 . S
C1649 C1640 1.390 1_455 S
C1649 H1642 0.950 . S
C1649 C1646 1.387 . S
C1650 C1651 1.387 . S
C1650 H1654 0.950 . S
C1650 C1659 1.390 . S
C1651 C1650 1.387 . S
C1651 C1653 1.387 . S
H1652 C1659 0.950 . S
C1653 C1651 1.387 . S
C1653 C1655 1.390 . S
C1653 H1657 0.950 . S
H1654 C1650 0.950 . S
C1655 C1653 1.390 . S
C1655 C1656 1.387 . S
C1655 H1658 0.950 . S
C1656 C1655 1.387 . S
C1656 C1659 1.387 . S
H1657 C1653 0.950 . S
H1658 C1655 0.950 . S
C1659 C1650 1.390 . S
C1659 H1652 0.950 . S
C1659 C1656 1.387 . S
C1660 C1661 1.387 . S
C1660 H1664 0.950 . S
C1660 C1669 1.390 . S
C1661 C1660 1.387 . S
C1661 C1663 1.387 . S
H1662 C1669 0.950 . S
C1663 C1661 1.387 . S
C1663 C1665 1.390 . S
C1663 H1667 0.950 . S
H1664 C1660 0.950 . S
C1665 C1663 1.390 . S
C1665 C1666 1.387 . S
C1665 H1668 0.950 . S
C1666 C1665 1.387 . S
C1666 C1669 1.387 . S
H1667 C1663 0.950 . S
H1668 C1665 0.950 . S
C1669 C1660 1.390 . S
C1669 H1662 0.950 . S
C1669 C1666 1.387 . S
C1670 C1671 1.388 . S
C1670 H1674 0.950 . S
C1670 C1679 1.389 1_655 S
C1671 C1670 1.388 . S
C1671 C1673 1.388 . S
H1672 C1679 0.950 . S
C1673 C1671 1.388 . S
C1673 C1675 1.389 1_655 S
C1673 H1677 0.950 . S
H1674 C1670 0.950 . S
C1675 C1673 1.389 1_455 S
C1675 C1676 1.388 . S
C1675 H1678 0.950 . S
C1676 C1675 1.388 . S
C1676 C1679 1.388 . S
H1677 C1673 0.950 . S
H1678 C1675 0.950 . S
C1679 C1670 1.389 1_455 S
C1679 H1672 0.950 . S
C1679 C1676 1.388 . S
C1680 C1681 1.387 . S
C1680 H1684 0.950 . S
C1680 C1689 1.390 1_455 S
C1681 C1680 1.387 . S
C1681 C1683 1.387 . S
H1682 C1689 0.950 . S
C1683 C1681 1.387 . S
C1683 C1685 1.390 1_455 S
C1683 H1687 0.950 . S
H1684 C1680 0.950 . S
C1685 C1683 1.390 1_655 S
C1685 C1686 1.387 . S
C1685 H1688 0.950 . S
C1686 C1685 1.387 . S
C1686 C1689 1.387 . S
H1687 C1683 0.950 . S
H1688 C1685 0.950 . S
C1689 C1680 1.390 1_655 S
C1689 H1682 0.950 . S
C1689 C1686 1.387 . S
C1690 C1691 1.387 . S
C1690 H1694 0.950 . S
C1690 C1699 1.390 1_455 S
C1691 C1690 1.387 . S
C1691 C1693 1.387 . S
H1692 C1699 0.950 . S
C1693 C1691 1.387 . S
C1693 C1695 1.390 1_455 S
C1693 H1697 0.950 . S
H1694 C1690 0.950 . S
C1695 C1693 1.390 1_655 S
C1695 C1696 1.387 . S
C1695 H1698 0.950 . S
C1696 C1695 1.387 . S
C1696 C1699 1.387 . S
H1697 C1693 0.950 . S
H1698 C1695 0.950 . S
C1699 C1690 1.390 1_655 S
C1699 H1692 0.950 . S
C1699 C1696 1.387 . S
C1700 C1701 1.387 . S
C1700 H1704 0.950 . S
C1700 C1709 1.390 . S
C1701 C1700 1.387 . S
C1701 C1703 1.387 . S
H1702 C1709 0.950 . S
C1703 C1701 1.387 . S
C1703 C1705 1.390 . S
C1703 H1707 0.950 . S
H1704 C1700 0.950 . S
C1705 C1703 1.390 . S
C1705 C1706 1.387 . S
C1705 H1708 0.950 . S
C1706 C1705 1.387 . S
C1706 C1709 1.387 . S
H1707 C1703 0.950 . S
H1708 C1705 0.950 . S
C1709 C1700 1.390 . S
C1709 H1702 0.950 . S
C1709 C1706 1.387 . S
C1710 C1711 1.387 . S
C1710 H1714 0.950 . S
C1710 C1719 1.390 . S
C1711 C1710 1.387 . S
C1711 C1713 1.387 . S
H1712 C1719 0.950 . S
C1713 C1711 1.387 . S
C1713 C1715 1.390 . S
C1713 H1717 0.950 . S
H1714 C1710 0.950 . S
C1715 C1713 1.390 . S
C1715 C1716 1.387 . S
C1715 H1718 0.950 . S
C1716 C1715 1.387 . S
C1716 C1719 1.387 . S
H1717 C1713 0.950 . S
H1718 C1715 0.950 . S
C1719 C1710 1.390 . S
C1719 H1712 0.950 . S
C1719 C1716 1.387 . S
C1720 C1721 1.387 . S
C1720 H1724 0.950 . S
C1720 C1729 1.390 1_455 S
C1721 C1720 1.387 . S
C1721 C1723 1.387 . S
H1722 C1729 0.950 . S
C1723 C1721 1.387 . S
C1723 C1725 1.390 1_455 S
C1723 H1727 0.950 . S
H1724 C1720 0.950 . S
C1725 C1723 1.390 1_655 S
C1725 C1726 1.387 . S
C1725 H1728 0.950 . S
C1726 C1725 1.387 . S
C1726 C1729 1.387 . S
H1727 C1723 0.950 . S
H1728 C1725 0.950 . S
C1729 C1720 1.390 1_655 S
C1729 H1722 0.950 . S
C1729 C1726 1.387 . S
C1730 C1731 1.387 . S
C1730 H1734 0.950 . S
C1730 C1739 1.390 . S
C1731 C1730 1.387 . S
C1731 C1733 1.387 . S
H1732 C1739 0.950 . S
C1733 C1731 1.387 . S
C1733 C1735 1.390 . S
C1733 H1737 0.950 . S
H1734 C1730 0.950 . S
C1735 C1733 1.390 . S
C1735 C1736 1.387 . S
C1735 H1738 0.950 . S
C1736 C1735 1.387 . S
C1736 C1739 1.387 . S
H1737 C1733 0.950 . S
H1738 C1735 0.950 . S
C1739 C1730 1.390 . S
C1739 H1732 0.950 . S
C1739 C1736 1.387 . S
C1740 C1741 1.387 . S
C1740 H1744 0.950 . S
C1740 C1749 1.390 . S
C1741 C1740 1.387 . S
C1741 C1743 1.387 . S
H1742 C1749 0.950 . S
C1743 C1741 1.387 . S
C1743 C1745 1.390 . S
C1743 H1747 0.950 . S
H1744 C1740 0.950 . S
C1745 C1743 1.390 . S
C1745 C1746 1.387 . S
C1745 H1748 0.950 . S
C1746 C1745 1.387 . S
C1746 C1749 1.387 . S
H1747 C1743 0.950 . S
H1748 C1745 0.950 . S
C1749 C1740 1.390 . S
C1749 H1742 0.950 . S
C1749 C1746 1.387 . S
C1750 C1751 1.387 . S
C1750 H1754 0.950 . S
C1750 C1759 1.390 1_455 S
C1751 C1750 1.387 . S
C1751 C1753 1.387 . S
H1752 C1759 0.950 . S
C1753 C1751 1.387 . S
C1753 C1755 1.390 1_455 S
C1753 H1757 0.950 . S
H1754 C1750 0.950 . S
C1755 C1753 1.390 1_655 S
C1755 C1756 1.387 . S
C1755 H1758 0.950 . S
C1756 C1755 1.387 . S
C1756 C1759 1.387 . S
H1757 C1753 0.950 . S
H1758 C1755 0.950 . S
C1759 C1750 1.390 1_655 S
C1759 H1752 0.950 . S
C1759 C1756 1.387 . S
C1760 C1761 1.387 . S
C1760 H1764 0.950 . S
C1760 C1769 1.390 . S
C1761 C1760 1.387 . S
C1761 C1763 1.387 . S
H1762 C1769 0.950 . S
C1763 C1761 1.387 . S
C1763 C1765 1.390 . S
C1763 H1767 0.950 . S
H1764 C1760 0.950 . S
C1765 C1763 1.390 . S
C1765 C1766 1.387 . S
C1765 H1768 0.950 . S
C1766 C1765 1.387 . S
C1766 C1769 1.387 . S
H1767 C1763 0.950 . S
H1768 C1765 0.950 . S
C1769 C1760 1.390 . S
C1769 H1762 0.950 . S
C1769 C1766 1.387 . S
C1770 C1771 1.387 1_545 S
C1770 H1774 0.950 . S
C1770 C1779 1.390 . S
C1771 C1770 1.387 1_565 S
C1771 C1773 1.387 1_655 S
H1772 C1779 0.950 . S
C1773 C1771 1.387 1_455 S
C1773 C1775 1.390 . S
C1773 H1777 0.950 . S
H1774 C1770 0.950 . S
C1775 C1773 1.390 . S
C1775 C1776 1.387 1_565 S
C1775 H1778 0.950 . S
C1776 C1775 1.387 1_545 S
C1776 C1779 1.387 1_455 S
H1777 C1773 0.950 . S
H1778 C1775 0.950 . S
C1779 C1770 1.390 . S
C1779 H1772 0.950 . S
C1779 C1776 1.387 1_655 S
C1780 C1781 1.387 . S
C1780 H1784 0.950 . S
C1780 C1789 1.390 . S
C1781 C1780 1.387 . S
C1781 C1783 1.387 . S
H1782 C1789 0.950 . S
C1783 C1781 1.387 . S
C1783 C1785 1.390 . S
C1783 H1787 0.950 . S
H1784 C1780 0.950 . S
C1785 C1783 1.390 . S
C1785 C1786 1.387 . S
C1785 H1788 0.950 . S
C1786 C1785 1.387 . S
C1786 C1789 1.387 . S
H1787 C1783 0.950 . S
H1788 C1785 0.950 . S
C1789 C1780 1.390 . S
C1789 H1782 0.950 . S
C1789 C1786 1.387 . S
C1790 C1791 1.387 1_545 S
C1790 H1794 0.950 . S
C1790 C1799 1.390 1_554 S
C1791 C1790 1.387 1_565 S
C1791 C1793 1.387 . S
H1792 C1799 0.950 . S
C1793 C1791 1.387 . S
C1793 C1795 1.390 1_554 S
C1793 H1797 0.950 . S
H1794 C1790 0.950 . S
C1795 C1793 1.390 1_556 S
C1795 C1796 1.387 1_565 S
C1795 H1798 0.950 . S
C1796 C1795 1.387 1_545 S
C1796 C1799 1.387 . S
H1797 C1793 0.950 . S
H1798 C1795 0.950 . S
C1799 C1790 1.390 1_556 S
C1799 H1792 0.950 . S
C1799 C1796 1.387 . S
C1800 C1801 1.387 . S
C1800 H1804 0.950 . S
C1800 C1809 1.390 . S
C1801 C1800 1.387 . S
C1801 C1803 1.387 . S
H1802 C1809 0.950 . S
C1803 C1801 1.387 . S
C1803 C1805 1.390 . S
C1803 H1807 0.950 . S
H1804 C1800 0.950 . S
C1805 C1803 1.390 . S
C1805 C1806 1.387 . S
C1805 H1808 0.950 . S
C1806 C1805 1.387 . S
C1806 C1809 1.387 . S
H1807 C1803 0.950 . S
H1808 C1805 0.950 . S
C1809 C1800 1.390 . S
C1809 H1802 0.950 . S
C1809 C1806 1.387 . S
C1810 C1811 1.387 1_545 S
C1810 H1814 0.950 . S
C1810 C1819 1.390 . S
C1811 C1810 1.387 1_565 S
C1811 C1813 1.387 . S
H1812 C1819 0.950 . S
C1813 C1811 1.387 . S
C1813 C1815 1.390 . S
C1813 H1817 0.950 . S
H1814 C1810 0.950 . S
C1815 C1813 1.390 . S
C1815 C1816 1.387 1_565 S
C1815 H1818 0.950 . S
C1816 C1815 1.387 1_545 S
C1816 C1819 1.387 . S
H1817 C1813 0.950 . S
H1818 C1815 0.950 . S
C1819 C1810 1.390 . S
C1819 H1812 0.950 . S
C1819 C1816 1.387 . S
C1820 C1821 1.387 . S
C1820 H1824 0.950 . S
C1820 C1829 1.390 . S
C1821 C1820 1.387 . S
C1821 C1823 1.387 . S
H1822 C1829 0.950 . S
C1823 C1821 1.387 . S
C1823 C1825 1.390 . S
C1823 H1827 0.950 . S
H1824 C1820 0.950 . S
C1825 C1823 1.390 . S
C1825 C1826 1.387 . S
C1825 H1828 0.950 . S
C1826 C1825 1.387 . S
C1826 C1829 1.387 . S
H1827 C1823 0.950 . S
H1828 C1825 0.950 . S
C1829 C1820 1.390 . S
C1829 H1822 0.950 . S
C1829 C1826 1.387 . S
C1830 C1831 1.387 1_655 S
C1830 H1834 0.950 . S
C1830 C1839 1.390 1_556 S
C1831 C1830 1.387 1_455 S
C1831 C1833 1.387 1_565 S
H1832 C1839 0.950 . S
C1833 C1831 1.387 1_545 S
C1833 C1835 1.390 1_556 S
C1833 H1837 0.950 . S
H1834 C1830 0.950 . S
C1835 C1833 1.390 1_554 S
C1835 C1836 1.387 1_455 S
C1835 H1838 0.950 . S
C1836 C1835 1.387 1_655 S
C1836 C1839 1.387 1_545 S
H1837 C1833 0.950 . S
H1838 C1835 0.950 . S
C1839 C1830 1.390 1_554 S
C1839 H1832 0.950 . S
C1839 C1836 1.387 1_565 S
C1840 C1841 1.387 . S
C1840 H1844 0.950 . S
C1840 C1849 1.390 . S
C1841 C1840 1.387 . S
C1841 C1843 1.387 . S
H1842 C1849 0.950 . S
C1843 C1841 1.387 . S
C1843 C1845 1.390 . S
C1843 H1847 0.950 . S
H1844 C1840 0.950 . S
C1845 C1843 1.390 . S
C1845 C1846 1.387 . S
C1845 H1848 0.950 . S
C1846 C1845 1.387 . S
C1846 C1849 1.387 . S
H1847 C1843 0.950 . S
H1848 C1845 0.950 . S
C1849 C1840 1.390 . S
C1849 H1842 0.950 . S
C1849 C1846 1.387 . S
C1850 C1851 1.387 . S
C1850 H1854 0.950 . S
C1850 C1859 1.390 . S
C1851 C1850 1.387 . S
C1851 C1853 1.387 . S
H1852 C1859 0.950 . S
C1853 C1851 1.387 . S
C1853 C1855 1.390 . S
C1853 H1857 0.950 . S
H1854 C1850 0.950 . S
C1855 C1853 1.390 . S
C1855 C1856 1.387 . S
C1855 H1858 0.950 . S
C1856 C1855 1.387 . S
C1856 C1859 1.387 . S
H1857 C1853 0.950 . S
H1858 C1855 0.950 . S
C1859 C1850 1.390 . S
C1859 H1852 0.950 . S
C1859 C1856 1.387 . S
C1860 C1861 1.387 . S
C1860 H1864 0.950 . S
C1860 C1869 1.390 . S
C1861 C1860 1.387 . S
C1861 C1863 1.387 . S
H1862 C1869 0.950 . S
C1863 C1861 1.387 . S
C1863 C1865 1.390 . S
C1863 H1867 0.950 . S
H1864 C1860 0.950 . S
C1865 C1863 1.390 . S
C1865 C1866 1.387 . S
C1865 H1868 0.950 . S
C1866 C1865 1.387 . S
C1866 C1869 1.387 . S
H1867 C1863 0.950 . S
H1868 C1865 0.950 . S
C1869 C1860 1.390 . S
C1869 H1862 0.950 . S
C1869 C1866 1.387 . S
C1870 C1871 1.387 . S
C1870 H1874 0.950 . S
C1870 C1879 1.390 . S
C1871 C1870 1.387 . S
C1871 C1873 1.387 . S
H1872 C1879 0.950 . S
C1873 C1871 1.387 . S
C1873 C1875 1.390 . S
C1873 H1877 0.950 . S
H1874 C1870 0.950 . S
C1875 C1873 1.390 . S
C1875 C1876 1.387 . S
C1875 H1878 0.950 . S
C1876 C1875 1.387 . S
C1876 C1879 1.387 . S
H1877 C1873 0.950 . S
H1878 C1875 0.950 . S
C1879 C1870 1.390 . S
C1879 H1872 0.950 . S
C1879 C1876 1.387 . S
C1880 C1881 1.387 . S
C1880 H1884 0.950 . S
C1880 C1889 1.390 1_554 S
C1881 C1880 1.387 . S
C1881 C1883 1.387 . S
H1882 C1889 0.950 . S
C1883 C1881 1.387 . S
C1883 C1885 1.390 1_554 S
C1883 H1887 0.950 . S
H1884 C1880 0.950 . S
C1885 C1883 1.390 1_556 S
C1885 C1886 1.387 . S
C1885 H1888 0.950 . S
C1886 C1885 1.387 . S
C1886 C1889 1.387 . S
H1887 C1883 0.950 . S
H1888 C1885 0.950 . S
C1889 C1880 1.390 1_556 S
C1889 H1882 0.950 . S
C1889 C1886 1.387 . S
C1890 C1891 1.387 1_455 S
C1890 H1894 0.950 . S
C1890 C1899 1.390 . S
C1891 C1890 1.387 1_655 S
C1891 C1893 1.387 . S
H1892 C1899 0.950 . S
C1893 C1891 1.387 . S
C1893 C1895 1.390 . S
C1893 H1897 0.950 . S
H1894 C1890 0.950 . S
C1895 C1893 1.390 . S
C1895 C1896 1.387 1_655 S
C1895 H1898 0.950 . S
C1896 C1895 1.387 1_455 S
C1896 C1899 1.387 . S
H1897 C1893 0.950 . S
H1898 C1895 0.950 . S
C1899 C1890 1.390 . S
C1899 H1892 0.950 . S
C1899 C1896 1.387 . S
C1900 C1901 1.387 1_655 S
C1900 H1904 0.950 . S
C1900 C1909 1.390 1_554 S
C1901 C1900 1.387 1_455 S
C1901 C1903 1.387 . S
H1902 C1909 0.950 . S
C1903 C1901 1.387 . S
C1903 C1905 1.390 1_554 S
C1903 H1907 0.950 . S
H1904 C1900 0.950 . S
C1905 C1903 1.390 1_556 S
C1905 C1906 1.387 1_455 S
C1905 H1908 0.950 . S
C1906 C1905 1.387 1_655 S
C1906 C1909 1.387 . S
H1907 C1903 0.950 . S
H1908 C1905 0.950 . S
C1909 C1900 1.390 1_556 S
C1909 H1902 0.950 . S
C1909 C1906 1.387 . S
C1910 C1911 1.387 . S
C1910 H1914 0.950 . S
C1910 C1919 1.390 . S
C1911 C1910 1.387 . S
C1911 C1913 1.387 . S
H1912 C1919 0.950 . S
C1913 C1911 1.387 . S
C1913 C1915 1.390 . S
C1913 H1917 0.950 . S
H1914 C1910 0.950 . S
C1915 C1913 1.390 . S
C1915 C1916 1.387 . S
C1915 H1918 0.950 . S
C1916 C1915 1.387 . S
C1916 C1919 1.387 . S
H1917 C1913 0.950 . S
H1918 C1915 0.950 . S
C1919 C1910 1.390 . S
C1919 H1912 0.950 . S
C1919 C1916 1.387 . S
C1920 C1921 1.387 . S
C1920 H1924 0.950 . S
C1920 C1929 1.390 . S
C1921 C1920 1.387 . S
C1921 C1923 1.387 . S
H1922 C1929 0.950 . S
C1923 C1921 1.387 . S
C1923 C1925 1.390 . S
C1923 H1927 0.950 . S
H1924 C1920 0.950 . S
C1925 C1923 1.390 . S
C1925 C1926 1.387 . S
C1925 H1928 0.950 . S
C1926 C1925 1.387 . S
C1926 C1929 1.387 . S
H1927 C1923 0.950 . S
H1928 C1925 0.950 . S
C1929 C1920 1.390 . S
C1929 H1922 0.950 . S
C1929 C1926 1.387 . S
C1930 C1931 1.387 . S
C1930 H1934 0.950 . S
C1930 C1939 1.390 . S
C1931 C1930 1.387 . S
C1931 C1933 1.387 . S
H1932 C1939 0.950 . S
C1933 C1931 1.387 . S
C1933 C1935 1.390 . S
C1933 H1937 0.950 . S
H1934 C1930 0.950 . S
C1935 C1933 1.390 . S
C1935 C1936 1.387 . S
C1935 H1938 0.950 . S
C1936 C1935 1.387 . S
C1936 C1939 1.387 . S
H1937 C1933 0.950 . S
H1938 C1935 0.950 . S
C1939 C1930 1.390 . S
C1939 H1932 0.950 . S
C1939 C1936 1.387 . S
C1940 C1941 1.387 . S
C1940 H1944 0.950 . S
C1940 C1949 1.390 . S
C1941 C1940 1.387 . S
C1941 C1943 1.387 . S
H1942 C1949 0.950 . S
C1943 C1941 1.387 . S
C1943 C1945 1.390 . S
C1943 H1947 0.950 . S
H1944 C1940 0.950 . S
C1945 C1943 1.390 . S
C1945 C1946 1.387 . S
C1945 H1948 0.950 . S
C1946 C1945 1.387 . S
C1946 C1949 1.387 . S
H1947 C1943 0.950 . S
H1948 C1945 0.950 . S
C1949 C1940 1.390 . S
C1949 H1942 0.950 . S
C1949 C1946 1.387 . S
C1950 C1951 1.387 . S
C1950 H1954 0.950 . S
C1950 C1959 1.390 . S
C1951 C1950 1.387 . S
C1951 C1953 1.387 . S
H1952 C1959 0.950 . S
C1953 C1951 1.387 . S
C1953 C1955 1.390 . S
C1953 H1957 0.950 . S
H1954 C1950 0.950 . S
C1955 C1953 1.390 . S
C1955 C1956 1.387 . S
C1955 H1958 0.950 . S
C1956 C1955 1.387 . S
C1956 C1959 1.387 . S
H1957 C1953 0.950 . S
H1958 C1955 0.950 . S
C1959 C1950 1.390 . S
C1959 H1952 0.950 . S
C1959 C1956 1.387 . S
C1960 C1961 1.387 . S
C1960 H1964 0.950 . S
C1960 C1969 1.390 . S
C1961 C1960 1.387 . S
C1961 C1963 1.387 . S
H1962 C1969 0.950 . S
C1963 C1961 1.387 . S
C1963 C1965 1.390 . S
C1963 H1967 0.950 . S
H1964 C1960 0.950 . S
C1965 C1963 1.390 . S
C1965 C1966 1.387 . S
C1965 H1968 0.950 . S
C1966 C1965 1.387 . S
C1966 C1969 1.387 . S
H1967 C1963 0.950 . S
H1968 C1965 0.950 . S
C1969 C1960 1.390 . S
C1969 H1962 0.950 . S
C1969 C1966 1.387 . S
C1970 C1971 1.387 . S
C1970 H1974 0.950 . S
C1970 C1979 1.390 . S
C1971 C1970 1.387 . S
C1971 C1973 1.387 . S
H1972 C1979 0.950 . S
C1973 C1971 1.387 . S
C1973 C1975 1.390 . S
C1973 H1977 0.950 . S
H1974 C1970 0.950 . S
C1975 C1973 1.390 . S
C1975 C1976 1.387 . S
C1975 H1978 0.950 . S
C1976 C1975 1.387 . S
C1976 C1979 1.387 . S
H1977 C1973 0.950 . S
H1978 C1975 0.950 . S
C1979 C1970 1.390 . S
C1979 H1972 0.950 . S
C1979 C1976 1.387 . S
C1980 C1981 1.387 . S
C1980 H1984 0.950 . S
C1980 C1989 1.390 . S
C1981 C1980 1.387 . S
C1981 C1983 1.387 . S
H1982 C1989 0.950 . S
C1983 C1981 1.387 . S
C1983 C1985 1.390 . S
C1983 H1987 0.950 . S
H1984 C1980 0.950 . S
C1985 C1983 1.390 . S
C1985 C1986 1.387 . S
C1985 H1988 0.950 . S
C1986 C1985 1.387 . S
C1986 C1989 1.387 . S
H1987 C1983 0.950 . S
H1988 C1985 0.950 . S
C1989 C1980 1.390 . S
C1989 H1982 0.950 . S
C1989 C1986 1.387 . S
C1990 C1991 1.387 . S
C1990 H1994 0.950 . S
C1990 C1999 1.390 . S
C1991 C1990 1.387 . S
C1991 C1993 1.387 . S
H1992 C1999 0.950 . S
C1993 C1991 1.387 . S
C1993 C1995 1.390 . S
C1993 H1997 0.950 . S
H1994 C1990 0.950 . S
C1995 C1993 1.390 . S
C1995 C1996 1.387 . S
C1995 H1998 0.950 . S
C1996 C1995 1.387 . S
C1996 C1999 1.387 . S
H1997 C1993 0.950 . S
H1998 C1995 0.950 . S
C1999 C1990 1.390 . S
C1999 H1992 0.950 . S
C1999 C1996 1.387 . S
C2000 C2001 1.387 . S
C2000 H2004 0.950 . S
C2000 C2009 1.390 . S
C2001 C2000 1.387 . S
C2001 C2003 1.387 . S
H2002 C2009 0.950 . S
C2003 C2001 1.387 . S
C2003 C2005 1.390 . S
C2003 H2007 0.950 . S
H2004 C2000 0.950 . S
C2005 C2003 1.390 . S
C2005 C2006 1.387 . S
C2005 H2008 0.950 . S
C2006 C2005 1.387 . S
C2006 C2009 1.387 . S
H2007 C2003 0.950 . S
H2008 C2005 0.950 . S
C2009 C2000 1.390 . S
C2009 H2002 0.950 . S
C2009 C2006 1.387 . S
C2010 C2011 1.387 . S
C2010 H2014 0.950 . S
C2010 C2019 1.390 . S
C2011 C2010 1.387 . S
C2011 C2013 1.387 . S
H2012 C2019 0.950 . S
C2013 C2011 1.387 . S
C2013 C2015 1.390 . S
C2013 H2017 0.950 . S
H2014 C2010 0.950 . S
C2015 C2013 1.390 . S
C2015 C2016 1.387 . S
C2015 H2018 0.950 . S
C2016 C2015 1.387 . S
C2016 C2019 1.387 . S
H2017 C2013 0.950 . S
H2018 C2015 0.950 . S
C2019 C2010 1.390 . S
C2019 H2012 0.950 . S
C2019 C2016 1.387 . S
C2020 C2021 1.387 . S
C2020 H2024 0.950 . S
C2020 C2029 1.390 . S
C2021 C2020 1.387 . S
C2021 C2023 1.387 . S
H2022 C2029 0.950 . S
C2023 C2021 1.387 . S
C2023 C2025 1.390 . S
C2023 H2027 0.950 . S
H2024 C2020 0.950 . S
C2025 C2023 1.390 . S
C2025 C2026 1.387 . S
C2025 H2028 0.950 . S
C2026 C2025 1.387 . S
C2026 C2029 1.387 . S
H2027 C2023 0.950 . S
H2028 C2025 0.950 . S
C2029 C2020 1.390 . S
C2029 H2022 0.950 . S
C2029 C2026 1.387 . S
C2030 C2031 1.387 . S
C2030 H2034 0.950 . S
C2030 C2039 1.390 . S
C2031 C2030 1.387 . S
C2031 C2033 1.387 . S
H2032 C2039 0.950 . S
C2033 C2031 1.387 . S
C2033 C2035 1.390 . S
C2033 H2037 0.950 . S
H2034 C2030 0.950 . S
C2035 C2033 1.390 . S
C2035 C2036 1.387 . S
C2035 H2038 0.950 . S
C2036 C2035 1.387 . S
C2036 C2039 1.387 . S
H2037 C2033 0.950 . S
H2038 C2035 0.950 . S
C2039 C2030 1.390 . S
C2039 H2032 0.950 . S
C2039 C2036 1.387 . S
C2040 C2041 1.387 . S
C2040 H2044 0.950 . S
C2040 C2049 1.390 . S
C2041 C2040 1.387 . S
C2041 C2043 1.387 . S
H2042 C2049 0.950 . S
C2043 C2041 1.387 . S
C2043 C2045 1.390 . S
C2043 H2047 0.950 . S
H2044 C2040 0.950 . S
C2045 C2043 1.390 . S
C2045 C2046 1.387 . S
C2045 H2048 0.950 . S
C2046 C2045 1.387 . S
C2046 C2049 1.387 . S
H2047 C2043 0.950 . S
H2048 C2045 0.950 . S
C2049 C2040 1.390 . S
C2049 H2042 0.950 . S
C2049 C2046 1.387 . S
C2050 C2051 1.387 . S
C2050 H2054 0.950 . S
C2050 C2059 1.390 . S
C2051 C2050 1.387 . S
C2051 C2053 1.387 . S
H2052 C2059 0.950 . S
C2053 C2051 1.387 . S
C2053 C2055 1.390 . S
C2053 H2057 0.950 . S
H2054 C2050 0.950 . S
C2055 C2053 1.390 . S
C2055 C2056 1.387 . S
C2055 H2058 0.950 . S
C2056 C2055 1.387 . S
C2056 C2059 1.387 . S
H2057 C2053 0.950 . S
H2058 C2055 0.950 . S
C2059 C2050 1.390 . S
C2059 H2052 0.950 . S
C2059 C2056 1.387 . S
C2060 C2061 1.387 . S
C2060 H2064 0.950 . S
C2060 C2069 1.390 . S
C2061 C2060 1.387 . S
C2061 C2063 1.387 . S
H2062 C2069 0.950 . S
C2063 C2061 1.387 . S
C2063 C2065 1.390 . S
C2063 H2067 0.950 . S
H2064 C2060 0.950 . S
C2065 C2063 1.390 . S
C2065 C2066 1.387 . S
C2065 H2068 0.950 . S
C2066 C2065 1.387 . S
C2066 C2069 1.387 . S
H2067 C2063 0.950 . S
H2068 C2065 0.950 . S
C2069 C2060 1.390 . S
C2069 H2062 0.950 . S
C2069 C2066 1.387 . S
C2070 C2071 1.387 . S
C2070 H2074 0.950 . S
C2070 C2079 1.390 . S
C2071 C2070 1.387 . S
C2071 C2073 1.387 . S
H2072 C2079 0.950 . S
C2073 C2071 1.387 . S
C2073 C2075 1.390 . S
C2073 H2077 0.950 . S
H2074 C2070 0.950 . S
C2075 C2073 1.390 . S
C2075 C2076 1.387 . S
C2075 H2078 0.950 . S
C2076 C2075 1.387 . S
C2076 C2079 1.387 . S
H2077 C2073 0.950 . S
H2078 C2075 0.950 . S
C2079 C2070 1.390 . S
C2079 H2072 0.950 . S
C2079 C2076 1.387 . S
C2080 C2081 1.387 . S
C2080 H2084 0.950 . S
C2080 C2089 1.390 1_545 S
C2081 C2080 1.387 . S
C2081 C2083 1.387 . S
H2082 C2089 0.950 . S
C2083 C2081 1.387 . S
C2083 C2085 1.390 1_545 S
C2083 H2087 0.950 . S
H2084 C2080 0.950 . S
C2085 C2083 1.390 1_565 S
C2085 C2086 1.387 . S
C2085 H2088 0.950 . S
C2086 C2085 1.387 . S
C2086 C2089 1.387 . S
H2087 C2083 0.950 . S
H2088 C2085 0.950 . S
C2089 C2080 1.390 1_565 S
C2089 H2082 0.950 . S
C2089 C2086 1.387 . S
C2090 C2091 1.387 . S
C2090 H2094 0.950 . S
C2090 C2099 1.390 . S
C2091 C2090 1.387 . S
C2091 C2093 1.387 1_565 S
H2092 C2099 0.950 . S
C2093 C2091 1.387 1_545 S
C2093 C2095 1.390 . S
C2093 H2097 0.950 . S
H2094 C2090 0.950 . S
C2095 C2093 1.390 . S
C2095 C2096 1.387 1_545 S
C2095 H2098 0.950 . S
C2096 C2095 1.387 1_565 S
C2096 C2099 1.387 . S
H2097 C2093 0.950 . S
H2098 C2095 0.950 . S
C2099 C2090 1.390 . S
C2099 H2092 0.950 . S
C2099 C2096 1.387 . S
C2100 C2101 1.387 . S
C2100 H2104 0.950 . S
C2100 C2109 1.390 1_545 S
C2101 C2100 1.387 . S
C2101 C2103 1.387 . S
H2102 C2109 0.950 . S
C2103 C2101 1.387 . S
C2103 C2105 1.390 1_545 S
C2103 H2107 0.950 . S
H2104 C2100 0.950 . S
C2105 C2103 1.390 1_565 S
C2105 C2106 1.387 . S
C2105 H2108 0.950 . S
C2106 C2105 1.387 . S
C2106 C2109 1.387 . S
H2107 C2103 0.950 . S
H2108 C2105 0.950 . S
C2109 C2100 1.390 1_565 S
C2109 H2102 0.950 . S
C2109 C2106 1.387 . S
C2110 C2111 1.391 . S
C2110 H2114 0.954 . S
C2110 C2119 1.384 1_556 S
C2111 C2110 1.391 . S
C2111 C2113 1.391 1_545 S
H2112 C2119 0.954 . S
C2113 C2111 1.391 1_565 S
C2113 C2115 1.384 1_556 S
C2113 H2117 0.954 . S
H2114 C2110 0.954 . S
C2115 C2113 1.384 1_554 S
C2115 C2116 1.391 1_565 S
C2115 H2118 0.954 . S
C2116 C2115 1.391 1_545 S
C2116 C2119 1.391 . S
H2117 C2113 0.954 . S
H2118 C2115 0.954 . S
C2119 C2110 1.384 1_554 S
C2119 H2112 0.954 . S
C2119 C2116 1.391 . S
C2120 C2121 1.387 . S
C2120 H2124 0.950 . S
C2120 C2129 1.390 1_565 S
C2121 C2120 1.387 . S
C2121 C2123 1.387 . S
H2122 C2129 0.950 . S
C2123 C2121 1.387 . S
C2123 C2125 1.390 1_565 S
C2123 H2127 0.950 . S
H2124 C2120 0.950 . S
C2125 C2123 1.390 1_545 S
C2125 C2126 1.387 . S
C2125 H2128 0.950 . S
C2126 C2125 1.387 . S
C2126 C2129 1.387 . S
H2127 C2123 0.950 . S
H2128 C2125 0.950 . S
C2129 C2120 1.390 1_545 S
C2129 H2122 0.950 . S
C2129 C2126 1.387 . S
C2130 C2131 1.387 1_565 S
C2130 H2134 0.950 . S
C2130 C2139 1.390 . S
C2131 C2130 1.387 1_545 S
C2131 C2133 1.387 . S
H2132 C2139 0.950 . S
C2133 C2131 1.387 . S
C2133 C2135 1.390 . S
C2133 H2137 0.950 . S
H2134 C2130 0.950 . S
C2135 C2133 1.390 . S
C2135 C2136 1.387 . S
C2135 H2138 0.950 . S
C2136 C2135 1.387 . S
C2136 C2139 1.387 1_545 S
H2137 C2133 0.950 . S
H2138 C2135 0.950 . S
C2139 C2130 1.390 . S
C2139 H2132 0.950 . S
C2139 C2136 1.387 1_565 S
C2140 C2141 1.387 . S
C2140 H2144 0.950 . S
C2140 C2149 1.390 1_565 S
C2141 C2140 1.387 . S
C2141 C2143 1.387 . S
H2142 C2149 0.950 . S
C2143 C2141 1.387 . S
C2143 C2145 1.390 1_565 S
C2143 H2147 0.950 . S
H2144 C2140 0.950 . S
C2145 C2143 1.390 1_545 S
C2145 C2146 1.387 . S
C2145 H2148 0.950 . S
C2146 C2145 1.387 . S
C2146 C2149 1.387 . S
H2147 C2143 0.950 . S
H2148 C2145 0.950 . S
C2149 C2140 1.390 1_545 S
C2149 H2142 0.950 . S
C2149 C2146 1.387 . S
C2150 C2151 1.391 1_545 S
C2150 H2154 0.953 . S
C2150 C2159 1.384 1_554 S
C2151 C2150 1.391 1_565 S
C2151 C2153 1.391 . S
H2152 C2159 0.954 . S
C2153 C2151 1.391 . S
C2153 C2155 1.384 1_554 S
C2153 H2157 0.954 . S
H2154 C2150 0.953 . S
C2155 C2153 1.384 1_556 S
C2155 C2156 1.391 . S
C2155 H2158 0.953 . S
C2156 C2155 1.391 . S
C2156 C2159 1.391 1_565 S
H2157 C2153 0.954 . S
H2158 C2155 0.953 . S
C2159 C2150 1.384 1_556 S
C2159 H2152 0.954 . S
C2159 C2156 1.391 1_545 S
C2160 C2161 1.387 . S
C2160 H2164 0.950 . S
C2160 C2169 1.390 . S
C2161 C2160 1.387 . S
C2161 C2163 1.387 . S
H2162 C2169 0.950 . S
C2163 C2161 1.387 . S
C2163 C2165 1.390 . S
C2163 H2167 0.950 . S
H2164 C2160 0.950 . S
C2165 C2163 1.390 . S
C2165 C2166 1.387 . S
C2165 H2168 0.950 . S
C2166 C2165 1.387 . S
C2166 C2169 1.387 . S
H2167 C2163 0.950 . S
H2168 C2165 0.950 . S
C2169 C2160 1.390 . S
C2169 H2162 0.950 . S
C2169 C2166 1.387 . S
C2170 C2171 1.391 . S
C2170 H2174 0.954 . S
C2170 C2179 1.384 1_556 S
C2171 C2170 1.391 . S
C2171 C2173 1.391 . S
H2172 C2179 0.954 . S
C2173 C2171 1.391 . S
C2173 C2175 1.384 1_556 S
C2173 H2177 0.954 . S
H2174 C2170 0.954 . S
C2175 C2173 1.384 1_554 S
C2175 C2176 1.391 . S
C2175 H2178 0.954 . S
C2176 C2175 1.391 . S
C2176 C2179 1.391 . S
H2177 C2173 0.954 . S
H2178 C2175 0.954 . S
C2179 C2170 1.384 1_554 S
C2179 H2172 0.954 . S
C2179 C2176 1.391 . S
C2180 C2181 1.387 . S
C2180 H2184 0.950 . S
C2180 C2189 1.390 . S
C2181 C2180 1.387 . S
C2181 C2183 1.387 . S
H2182 C2189 0.950 . S
C2183 C2181 1.387 . S
C2183 C2185 1.390 . S
C2183 H2187 0.950 . S
H2184 C2180 0.950 . S
C2185 C2183 1.390 . S
C2185 C2186 1.387 . S
C2185 H2188 0.950 . S
C2186 C2185 1.387 . S
C2186 C2189 1.387 . S
H2187 C2183 0.950 . S
H2188 C2185 0.950 . S
C2189 C2180 1.390 . S
C2189 H2182 0.950 . S
C2189 C2186 1.387 . S
C2190 C2191 1.387 . S
C2190 H2194 0.950 . S
C2190 C2199 1.390 . S
C2191 C2190 1.387 . S
C2191 C2193 1.387 . S
H2192 C2199 0.950 . S
C2193 C2191 1.387 . S
C2193 C2195 1.390 . S
C2193 H2197 0.950 . S
H2194 C2190 0.950 . S
C2195 C2193 1.390 . S
C2195 C2196 1.387 . S
C2195 H2198 0.950 . S
C2196 C2195 1.387 . S
C2196 C2199 1.387 . S
H2197 C2193 0.950 . S
H2198 C2195 0.950 . S
C2199 C2190 1.390 . S
C2199 H2192 0.950 . S
C2199 C2196 1.387 . S
C2200 C2201 1.387 . S
C2200 H2204 0.950 . S
C2200 C2209 1.390 . S
C2201 C2200 1.387 . S
C2201 C2203 1.387 . S
H2202 C2209 0.950 . S
C2203 C2201 1.387 . S
C2203 C2205 1.390 . S
C2203 H2207 0.950 . S
H2204 C2200 0.950 . S
C2205 C2203 1.390 . S
C2205 C2206 1.387 . S
C2205 H2208 0.950 . S
C2206 C2205 1.387 . S
C2206 C2209 1.387 . S
H2207 C2203 0.950 . S
H2208 C2205 0.950 . S
C2209 C2200 1.390 . S
C2209 H2202 0.950 . S
C2209 C2206 1.387 . S
C2210 C2211 1.391 . S
C2210 H2214 0.954 . S
C2210 C2219 1.384 1_556 S
C2211 C2210 1.391 . S
C2211 C2213 1.391 . S
H2212 C2219 0.954 . S
C2213 C2211 1.391 . S
C2213 C2215 1.384 1_556 S
C2213 H2217 0.954 . S
H2214 C2210 0.954 . S
C2215 C2213 1.384 1_554 S
C2215 C2216 1.391 . S
C2215 H2218 0.954 . S
C2216 C2215 1.391 . S
C2216 C2219 1.391 . S
H2217 C2213 0.954 . S
H2218 C2215 0.954 . S
C2219 C2210 1.384 1_554 S
C2219 H2212 0.954 . S
C2219 C2216 1.391 . S
C2220 C2221 1.387 . S
C2220 H2224 0.950 . S
C2220 C2229 1.390 . S
C2221 C2220 1.387 . S
C2221 C2223 1.387 . S
H2222 C2229 0.950 . S
C2223 C2221 1.387 . S
C2223 C2225 1.390 . S
C2223 H2227 0.950 . S
H2224 C2220 0.950 . S
C2225 C2223 1.390 . S
C2225 C2226 1.387 . S
C2225 H2228 0.950 . S
C2226 C2225 1.387 . S
C2226 C2229 1.387 . S
H2227 C2223 0.950 . S
H2228 C2225 0.950 . S
C2229 C2220 1.390 . S
C2229 H2222 0.950 . S
C2229 C2226 1.387 . S
C2230 C2231 1.387 . S
C2230 H2234 0.950 . S
C2230 C2239 1.390 . S
C2231 C2230 1.387 . S
C2231 C2233 1.387 . S
H2232 C2239 0.950 . S
C2233 C2231 1.387 . S
C2233 C2235 1.390 . S
C2233 H2237 0.950 . S
H2234 C2230 0.950 . S
C2235 C2233 1.390 . S
C2235 C2236 1.387 . S
C2235 H2238 0.950 . S
C2236 C2235 1.387 . S
C2236 C2239 1.387 . S
H2237 C2233 0.950 . S
H2238 C2235 0.950 . S
C2239 C2230 1.390 . S
C2239 H2232 0.950 . S
C2239 C2236 1.387 . S
C1281 C7 0.952 . S
C1286 C1091 0.935 . S
C1291 C47 0.949 . S
C1296 C331 0.932 . S
C1301 C87 0.952 . S
C1306 C1011 0.935 . S
C1311 C411 0.926 . S
C1316 C127 0.943 . S
C1321 C167 0.943 . S
C1326 C1171 0.926 . S
C1331 C571 0.935 . S
C1336 C207 0.952 . S
C1341 C1251 0.934 . S
C1346 C247 0.951 . S
C1351 C287 0.949 . S
C1356 C491 0.932 . S
C1361 C336 0.951 . S
C1366 C762 0.935 . S
C1371 C376 0.943 . S
C1376 C2 0.926 . S
C1381 C682 0.935 . S
C1386 C416 0.952 . S
C1391 C82 0.931 . S
C1396 C456 0.947 . S
C1401 C496 0.952 . S
C1406 C842 0.935 . S
C1411 C536 0.950 . S
C1416 C242 0.933 . S
C1421 C576 0.951 . S
C1426 C922 0.935 . S
C1431 C162 0.935 . S
C1436 C616 0.951 . S
C1441 C451 0.935 . S
C1446 C647 0.952 . S
C1451 C971 0.928 . S
C1456 C687 0.945 . S
C1461 C371 0.935 . S
C1466 C727 0.952 . S
C1471 C767 0.949 . S
C1476 C1051 0.932 . S
C1481 C531 0.926 . S
C1486 C807 0.943 . S
C1491 C1211 0.928 . S
C1496 C847 0.945 . S
C1501 C611 0.928 . S
C1506 C887 0.945 . S
C1511 C927 0.943 . S
C1516 C1131 0.926 . S
C1521 C976 0.943 . S
C1526 C122 0.926 . S
C1531 C1016 0.943 . S
C1536 C642 0.926 . S
C1541 C1056 0.943 . S
C1546 C42 0.926 . S
C1551 C1096 0.950 . S
C1556 C722 0.933 . S
C1561 C202 0.935 . S
C1566 C1136 0.952 . S
C1571 C882 0.927 . S
C1576 C1176 0.944 . S
C1581 C1216 0.943 . S
C1586 C282 0.926 . S
C1591 C1256 0.948 . S
C1596 C802 0.931 . S
C1601 C19 3.053 . S
C1606 C739 3.053 . S
C1611 C779 3.047 1_455 S
C1616 C59 3.047 1_655 S
C1621 C99 3.053 . S
C1626 C659 3.053 . S
C1631 C139 3.051 . S
C1636 C699 3.051 . S
C1641 C899 3.050 . S
C1646 C179 3.050 . S
C1651 C219 3.051 . S
C1656 C939 3.051 . S
C1661 C819 3.051 . S
C1666 C259 3.051 . S
C1671 C299 3.052 1_655 S
C1676 C859 3.052 1_455 S
C1681 C1050 3.050 . S
C1686 C330 3.050 . S
C1691 C370 3.047 1_455 S
C1696 C1090 3.047 1_655 S
C1701 C410 3.051 . S
C1706 C970 3.051 . S
C1711 C450 3.053 . S
C1716 C1010 3.053 . S
C1721 C1210 3.050 . S
C1726 C490 3.050 . S
C1731 C1250 3.051 . S
C1736 C530 3.051 . S
C1741 C570 3.053 . S
C1746 C1130 3.053 . S
C1751 C610 3.047 1_455 S
C1756 C1170 3.047 1_655 S
C1761 C11 3.538 . S
C1766 C962 3.538 . S
C1771 C362 3.538 1_565 S
C1776 C51 3.538 1_545 S
C1781 C91 3.538 . S
C1786 C1042 3.538 . S
C1791 C131 3.538 1_565 S
C1796 C442 3.538 1_545 S
C1801 C1122 3.538 . S
C1806 C171 3.538 . S
C1811 C522 3.538 1_565 S
C1816 C211 3.538 1_545 S
C1821 C251 3.538 . S
C1826 C1202 3.538 . S
C1831 C291 3.538 1_565 S
C1836 C602 3.538 1_545 S
C1841 C651 3.537 . S
C1846 C322 3.537 . S
C1851 C731 3.539 . S
C1856 C402 3.539 . S
C1861 C811 3.538 . S
C1866 C482 3.538 . S
C1871 C562 3.538 . S
C1876 C891 3.538 . S
C1881 C691 3.538 . S
C1886 C1002 3.538 . S
C1891 C771 3.538 . S
C1896 C1082 3.538 . S
C1901 C1162 3.538 . S
C1906 C851 3.538 . S
C1911 C1242 3.539 . S
C1916 C931 3.539 . S
C1921 C10 4.579 . S
C1926 C210 4.579 . S
C1931 C250 4.579 . S
C1936 C50 4.579 . S
C1941 C290 4.578 . S
C1946 C90 4.578 . S
C1951 C170 4.578 . S
C1956 C130 4.578 . S
C1961 C339 4.579 . S
C1966 C539 4.579 . S
C1971 C379 4.579 . S
C1976 C579 4.579 . S
C1981 C619 4.579 . S
C1986 C419 4.579 . S
C1991 C459 4.578 . S
C1996 C499 4.578 . S
C2001 C650 4.579 . S
C2006 C850 4.579 . S
C2011 C690 4.579 . S
C2016 C890 4.579 . S
C2021 C730 4.578 . S
C2026 C930 4.578 . S
C2031 C810 4.580 . S
C2036 C770 4.580 . S
C2041 C979 4.578 . S
C2046 C1179 4.578 . S
C2051 C1019 4.579 . S
C2056 C1219 4.579 . S
C2061 C1259 4.578 . S
C2066 C1059 4.578 . S
C2071 C1099 4.578 . S
C2076 C1139 4.578 . S
C2081 C16 0.704 . S
C2086 C176 0.704 . S
C2091 C56 0.704 . S
C2096 C216 0.704 . S
C2101 C256 0.704 . S
C2106 C96 0.704 . S
C2111 C296 0.704 . S
C2116 C136 0.704 . S
C2121 C327 0.714 . S
C2126 C487 0.713 . S
C2131 C527 0.704 . S
C2136 C367 0.704 . S
C2141 C567 0.713 . S
C2146 C407 0.713 . S
C2151 C607 0.704 . S
C2156 C447 0.704 . S
C2161 C656 0.713 . S
C2166 C816 0.713 . S
C2171 C856 0.704 . S
C2176 C696 0.704 . S
C2181 C736 0.714 . S
C2186 C896 0.714 . S
C2191 C936 0.713 . S
C2196 C776 0.713 . S
C2201 C1127 0.713 . S
C2206 C967 0.713 . S
C2211 C1007 0.704 . S
C2216 C1167 0.704 . S
C2221 C1047 0.704 . S
C2226 C1207 0.704 . S
C2231 C1087 0.704 . S
C2236 C1247 0.704 . S
