# Generated by pormake.
# Topology whd, (6)-cn, num edge types: 1
# Building blocks:
#     Node 0, Type 0, BuildingBlock: IZENUY_clean_sbu_0, # of connection points: 6
#     Node 1, Type 0, BuildingBlock: IZENUY_clean_sbu_0, # of connection points: 6
#     Node 2, Type 0, BuildingBlock: IZENUY_clean_sbu_0, # of connection points: 6
#     Node 3, Type 0, BuildingBlock: IZENUY_clean_sbu_0, # of connection points: 6
#     Node 4, Type 0, BuildingBlock: IZENUY_clean_sbu_0, # of connection points: 6
#     Node 5, Type 0, BuildingBlock: IZENUY_clean_sbu_0, # of connection points: 6
#     Node 6, Type 0, BuildingBlock: IZENUY_clean_sbu_0, # of connection points: 6
#     Node 7, Type 0, BuildingBlock: IZENUY_clean_sbu_0, # of connection points: 6
#     Node 8, Type 0, BuildingBlock: IZENUY_clean_sbu_0, # of connection points: 6
#     Node 9, Type 0, BuildingBlock: IZENUY_clean_sbu_0, # of connection points: 6
#     Node 10, Type 0, BuildingBlock: IZENUY_clean_sbu_0, # of connection points: 6
#     Node 11, Type 0, BuildingBlock: IZENUY_clean_sbu_0, # of connection points: 6
#     Node 12, Type 0, BuildingBlock: IZENUY_clean_sbu_0, # of connection points: 6
#     Node 13, Type 0, BuildingBlock: IZENUY_clean_sbu_0, # of connection points: 6
#     Node 14, Type 0, BuildingBlock: IZENUY_clean_sbu_0, # of connection points: 6
#     Node 15, Type 0, BuildingBlock: IZENUY_clean_sbu_0, # of connection points: 6
#     Edge 16, Type (0, 0), BuildingBlock: ZUJKAS_clean_linker_0, # of connection points: 2
#     Edge 17, Type (0, 0), BuildingBlock: ZUJKAS_clean_linker_0, # of connection points: 2
#     Edge 18, Type (0, 0), BuildingBlock: ZUJKAS_clean_linker_0, # of connection points: 2
#     Edge 19, Type (0, 0), BuildingBlock: ZUJKAS_clean_linker_0, # of connection points: 2
#     Edge 20, Type (0, 0), BuildingBlock: ZUJKAS_clean_linker_0, # of connection points: 2
#     Edge 21, Type (0, 0), BuildingBlock: ZUJKAS_clean_linker_0, # of connection points: 2
#     Edge 22, Type (0, 0), BuildingBlock: ZUJKAS_clean_linker_0, # of connection points: 2
#     Edge 23, Type (0, 0), BuildingBlock: ZUJKAS_clean_linker_0, # of connection points: 2
#     Edge 24, Type (0, 0), BuildingBlock: ZUJKAS_clean_linker_0, # of connection points: 2
#     Edge 25, Type (0, 0), BuildingBlock: ZUJKAS_clean_linker_0, # of connection points: 2
#     Edge 26, Type (0, 0), BuildingBlock: ZUJKAS_clean_linker_0, # of connection points: 2
#     Edge 27, Type (0, 0), BuildingBlock: ZUJKAS_clean_linker_0, # of connection points: 2
#     Edge 28, Type (0, 0), BuildingBlock: ZUJKAS_clean_linker_0, # of connection points: 2
#     Edge 29, Type (0, 0), BuildingBlock: ZUJKAS_clean_linker_0, # of connection points: 2
#     Edge 30, Type (0, 0), BuildingBlock: ZUJKAS_clean_linker_0, # of connection points: 2
#     Edge 31, Type (0, 0), BuildingBlock: ZUJKAS_clean_linker_0, # of connection points: 2
#     Edge 32, Type (0, 0), BuildingBlock: ZUJKAS_clean_linker_0, # of connection points: 2
#     Edge 33, Type (0, 0), BuildingBlock: ZUJKAS_clean_linker_0, # of connection points: 2
#     Edge 34, Type (0, 0), BuildingBlock: ZUJKAS_clean_linker_0, # of connection points: 2
#     Edge 35, Type (0, 0), BuildingBlock: ZUJKAS_clean_linker_0, # of connection points: 2
#     Edge 36, Type (0, 0), BuildingBlock: ZUJKAS_clean_linker_0, # of connection points: 2
#     Edge 37, Type (0, 0), BuildingBlock: ZUJKAS_clean_linker_0, # of connection points: 2
#     Edge 38, Type (0, 0), BuildingBlock: ZUJKAS_clean_linker_0, # of connection points: 2
#     Edge 39, Type (0, 0), BuildingBlock: ZUJKAS_clean_linker_0, # of connection points: 2
#     Edge 40, Type (0, 0), BuildingBlock: ZUJKAS_clean_linker_0, # of connection points: 2
#     Edge 41, Type (0, 0), BuildingBlock: ZUJKAS_clean_linker_0, # of connection points: 2
#     Edge 42, Type (0, 0), BuildingBlock: ZUJKAS_clean_linker_0, # of connection points: 2
#     Edge 43, Type (0, 0), BuildingBlock: ZUJKAS_clean_linker_0, # of connection points: 2
#     Edge 44, Type (0, 0), BuildingBlock: ZUJKAS_clean_linker_0, # of connection points: 2
#     Edge 45, Type (0, 0), BuildingBlock: ZUJKAS_clean_linker_0, # of connection points: 2
#     Edge 46, Type (0, 0), BuildingBlock: ZUJKAS_clean_linker_0, # of connection points: 2
#     Edge 47, Type (0, 0), BuildingBlock: ZUJKAS_clean_linker_0, # of connection points: 2
#     Edge 48, Type (0, 0), BuildingBlock: ZUJKAS_clean_linker_0, # of connection points: 2
#     Edge 49, Type (0, 0), BuildingBlock: ZUJKAS_clean_linker_0, # of connection points: 2
#     Edge 50, Type (0, 0), BuildingBlock: ZUJKAS_clean_linker_0, # of connection points: 2
#     Edge 51, Type (0, 0), BuildingBlock: ZUJKAS_clean_linker_0, # of connection points: 2
#     Edge 52, Type (0, 0), BuildingBlock: ZUJKAS_clean_linker_0, # of connection points: 2
#     Edge 53, Type (0, 0), BuildingBlock: ZUJKAS_clean_linker_0, # of connection points: 2
#     Edge 54, Type (0, 0), BuildingBlock: ZUJKAS_clean_linker_0, # of connection points: 2
#     Edge 55, Type (0, 0), BuildingBlock: ZUJKAS_clean_linker_0, # of connection points: 2
#     Edge 56, Type (0, 0), BuildingBlock: ZUJKAS_clean_linker_0, # of connection points: 2
#     Edge 57, Type (0, 0), BuildingBlock: ZUJKAS_clean_linker_0, # of connection points: 2
#     Edge 58, Type (0, 0), BuildingBlock: ZUJKAS_clean_linker_0, # of connection points: 2
#     Edge 59, Type (0, 0), BuildingBlock: ZUJKAS_clean_linker_0, # of connection points: 2
#     Edge 60, Type (0, 0), BuildingBlock: ZUJKAS_clean_linker_0, # of connection points: 2
#     Edge 61, Type (0, 0), BuildingBlock: ZUJKAS_clean_linker_0, # of connection points: 2
#     Edge 62, Type (0, 0), BuildingBlock: ZUJKAS_clean_linker_0, # of connection points: 2
#     Edge 63, Type (0, 0), BuildingBlock: ZUJKAS_clean_linker_0, # of connection points: 2
# Relax obj value: 0.274
# Max RMSD: 0.227
# Mean RMSD: 0.227
data_MOF--net-whd--node1-IZENUY_clean_sbu_0--edge1-ZUJKAS_clean_linker_0
_symmetry_space_group_name_H-M    P1
_symmetry_Int_Tables_number       1
_symmetry_cell_setting            triclinic
loop_
_symmetry_equiv_pos_as_xyz
'x, y, z'
_cell_length_a     65.541541
_cell_length_b     65.873233
_cell_length_c     37.231643
_cell_angle_alpha  90.010528
_cell_angle_beta   90.002728
_cell_angle_gamma 90.001399
loop_
_atom_site_label
_atom_site_type_symbol
_atom_site_fract_x
_atom_site_fract_y
_atom_site_fract_z
_atom_type_partial_charge
Fe0 Fe 0.17724 0.3681 0.32469 0.0
Fe1 Fe 0.16184 0.40905 0.35268 0.0
O2 O 0.18021 0.39473 0.3289 0.0
Fe3 Fe 0.20154 0.40706 0.30929 0.0
O4 O 0.19413 0.39856 0.26488 0.0
O5 O 0.18898 0.3667 0.28003 0.0
O6 O 0.15279 0.37086 0.30218 0.0
C7 C 0.1377 0.38009 0.31541 0.0
C8 C 0.21832 0.37034 0.33625 0.0
O9 O 0.14013 0.39282 0.34054 0.0
C10 C 0.19934 0.42693 0.37348 0.0
O11 O 0.165 0.36468 0.36868 0.0
O12 O 0.16655 0.39491 0.39342 0.0
O13 O 0.21907 0.38551 0.31535 0.0
O14 O 0.2014 0.36347 0.34684 0.0
C15 C 0.16904 0.43478 0.29685 0.0
O16 O 0.18018 0.42778 0.36943 0.0
O17 O 0.21024 0.41645 0.35256 0.0
C18 C 0.16492 0.37592 0.39627 0.0
O19 O 0.156 0.42427 0.31343 0.0
O20 O 0.18791 0.43085 0.29968 0.0
C21 C 0.19142 0.38023 0.25627 0.0
Fe22 Fe 0.36762 0.82836 0.67007 0.0
Fe23 Fe 0.40635 0.80416 0.68776 0.0
O24 O 0.39437 0.82528 0.6672 0.0
Fe25 Fe 0.40915 0.84334 0.64368 0.0
O26 O 0.39257 0.86502 0.65434 0.0
O27 O 0.37026 0.85269 0.69249 0.0
O28 O 0.36538 0.81682 0.71474 0.0
C29 C 0.37855 0.81442 0.73923 0.0
C30 C 0.37655 0.83986 0.59866 0.0
O31 O 0.3971 0.81172 0.73163 0.0
C32 C 0.42791 0.80592 0.62533 0.0
O33 O 0.36326 0.80432 0.64787 0.0
O34 O 0.3847 0.78672 0.68083 0.0
O35 O 0.39561 0.83818 0.60229 0.0
O36 O 0.36497 0.84041 0.62585 0.0
C37 C 0.43395 0.83668 0.70112 0.0
O38 O 0.41649 0.79528 0.64508 0.0
O39 O 0.42842 0.82504 0.62874 0.0
C40 C 0.36981 0.78749 0.65913 0.0
O41 O 0.43011 0.81785 0.69849 0.0
O42 O 0.42366 0.8495 0.68364 0.0
C43 C 0.37972 0.86761 0.67932 0.0
Fe44 Fe 0.80203 0.59607 0.30469 0.0
Fe45 Fe 0.82595 0.63547 0.31845 0.0
O46 O 0.82344 0.60883 0.32331 0.0
Fe47 Fe 0.8423 0.59498 0.34668 0.0
O48 O 0.84773 0.57946 0.30772 0.0
O49 O 0.81579 0.57229 0.29529 0.0
O50 O 0.80892 0.6043 0.25988 0.0
C51 C 0.81126 0.6226 0.25079 0.0
C52 C 0.80526 0.57709 0.36956 0.0
O53 O 0.81357 0.63635 0.27422 0.0
C54 C 0.83947 0.62846 0.38956 0.0
O55 O 0.7843 0.61756 0.31075 0.0
O56 O 0.80212 0.63972 0.3417 0.0
O57 O 0.82438 0.57638 0.36496 0.0
O58 O 0.79388 0.58689 0.34841 0.0
C59 C 0.86541 0.62374 0.30722 0.0
O60 O 0.83877 0.63948 0.36175 0.0
O61 O 0.83815 0.60944 0.38721 0.0
C62 C 0.78515 0.63274 0.33167 0.0
O63 O 0.85007 0.633 0.29498 0.0
O64 O 0.8636 0.61121 0.33279 0.0
C65 C 0.83468 0.56858 0.292 0.0
Fe66 Fe 0.59738 0.19459 0.68173 0.0
Fe67 Fe 0.59616 0.15737 0.63198 0.0
O68 O 0.60993 0.17397 0.66042 0.0
Fe69 Fe 0.63635 0.16985 0.66735 0.0
O70 O 0.63253 0.16659 0.71497 0.0
O71 O 0.61291 0.19337 0.72287 0.0
O72 O 0.57944 0.17778 0.70409 0.0
C73 C 0.56815 0.1651 0.68828 0.0
C74 C 0.63348 0.21277 0.66366 0.0
O75 O 0.57206 0.15952 0.65653 0.0
C76 C 0.63369 0.16222 0.59564 0.0
O77 O 0.57961 0.1993 0.64434 0.0
O78 O 0.58939 0.17797 0.60225 0.0
O79 O 0.64271 0.19674 0.67294 0.0
O80 O 0.61431 0.21303 0.66104 0.0
C81 C 0.61997 0.13005 0.66738 0.0
O82 O 0.61766 0.15215 0.60201 0.0
O83 O 0.64183 0.17288 0.61985 0.0
C84 C 0.58009 0.19385 0.61167 0.0
O85 O 0.60206 0.13563 0.65989 0.0
O86 O 0.63488 0.14208 0.6635 0.0
C87 C 0.62397 0.17925 0.73541 0.0
Fe88 Fe 0.17637 0.63617 0.66808 0.0
Fe89 Fe 0.16127 0.59527 0.63929 0.0
O90 O 0.17942 0.60954 0.6638 0.0
Fe91 Fe 0.20067 0.59731 0.684 0.0
O92 O 0.19295 0.60583 0.72821 0.0
O93 O 0.18801 0.63764 0.71285 0.0
O94 O 0.15195 0.63328 0.69034 0.0
C95 C 0.13697 0.62374 0.67739 0.0
C96 C 0.2174 0.63408 0.65695 0.0
O97 O 0.13941 0.6112 0.65192 0.0
C98 C 0.19907 0.57755 0.61943 0.0
O99 O 0.16415 0.63975 0.62418 0.0
O100 O 0.16597 0.60974 0.59888 0.0
O101 O 0.21818 0.61899 0.67808 0.0
O102 O 0.20049 0.64076 0.646 0.0
C103 C 0.16816 0.56943 0.69521 0.0
O104 O 0.17983 0.57686 0.62239 0.0
O105 O 0.20974 0.58781 0.64104 0.0
C106 C 0.16417 0.62871 0.59638 0.0
O107 O 0.15531 0.57964 0.67773 0.0
O108 O 0.18704 0.5735 0.69367 0.0
C109 C 0.19021 0.62415 0.73674 0.0
Fe110 Fe 0.59176 0.83992 0.35382 0.0
Fe111 Fe 0.63297 0.82535 0.32531 0.0
O112 O 0.6063 0.82198 0.3296 0.0
Fe113 Fe 0.59418 0.80072 0.30965 0.0
O114 O 0.57008 0.81408 0.30027 0.0
O115 O 0.57643 0.84579 0.31476 0.0
O116 O 0.60777 0.86178 0.34184 0.0
C117 C 0.62006 0.8644 0.316 0.0
C118 C 0.57432 0.80231 0.37402 0.0
O119 O 0.62971 0.8496 0.30286 0.0
C120 C 0.63133 0.78448 0.33652 0.0
O121 O 0.60611 0.83509 0.39439 0.0
O122 O 0.63631 0.83754 0.3693 0.0
O123 O 0.58487 0.7917 0.35278 0.0
O124 O 0.57318 0.82138 0.37026 0.0
C125 C 0.62097 0.81139 0.25681 0.0
O126 O 0.63791 0.80139 0.34741 0.0
O127 O 0.61615 0.78355 0.31544 0.0
C128 C 0.62518 0.83689 0.39706 0.0
O129 O 0.63454 0.81372 0.28064 0.0
O130 O 0.60258 0.80845 0.26534 0.0
C131 C 0.56608 0.83286 0.29769 0.0
Fe132 Fe 0.82692 0.36316 0.67098 0.0
Fe133 Fe 0.8389 0.40332 0.63599 0.0
O134 O 0.82246 0.38935 0.6643 0.0
Fe135 Fe 0.80169 0.40161 0.68581 0.0
O136 O 0.80277 0.38582 0.72661 0.0
O137 O 0.83004 0.36688 0.71868 0.0
O138 O 0.85481 0.36507 0.66736 0.0
C139 C 0.86664 0.38009 0.67179 0.0
C140 C 0.78377 0.36568 0.66669 0.0
O141 O 0.86078 0.39784 0.66429 0.0
C142 C 0.80215 0.41886 0.61588 0.0
O143 O 0.82413 0.35772 0.62342 0.0
O144 O 0.84473 0.38203 0.60605 0.0
O145 O 0.78328 0.3848 0.66463 0.0
O146 O 0.79992 0.35658 0.67611 0.0
C147 C 0.83085 0.43096 0.69248 0.0
O148 O 0.818 0.40947 0.6062 0.0
O149 O 0.79704 0.41961 0.64873 0.0
C150 C 0.83501 0.36585 0.5995 0.0
O151 O 0.83616 0.42733 0.66045 0.0
O152 O 0.81864 0.4193 0.70861 0.0
C153 C 0.81707 0.37497 0.73916 0.0
Fe154 Fe 0.40453 0.2002 0.30787 0.0
Fe155 Fe 0.40624 0.16184 0.35499 0.0
O156 O 0.39213 0.17923 0.32856 0.0
Fe157 Fe 0.3655 0.17552 0.32325 0.0
O158 O 0.36805 0.17348 0.27531 0.0
O159 O 0.38832 0.19986 0.26739 0.0
O160 O 0.42217 0.18386 0.28364 0.0
C161 C 0.43372 0.17096 0.29824 0.0
C162 C 0.36887 0.2182 0.3299 0.0
O163 O 0.42995 0.16436 0.32941 0.0
C164 C 0.36938 0.16598 0.39391 0.0
O165 O 0.42283 0.20403 0.34479 0.0
O166 O 0.41374 0.18168 0.38576 0.0
O167 O 0.35922 0.2025 0.32033 0.0
O168 O 0.38809 0.21839 0.33043 0.0
C169 C 0.38148 0.13559 0.31901 0.0
O170 O 0.38526 0.15602 0.38597 0.0
O171 O 0.3611 0.17743 0.37111 0.0
C172 C 0.42295 0.19775 0.37701 0.0
O173 O 0.39959 0.14087 0.32567 0.0
O174 O 0.3668 0.14765 0.32489 0.0
C175 C 0.37619 0.18652 0.25515 0.0
Fe176 Fe 0.67397 0.86632 0.82812 0.0
Fe177 Fe 0.66387 0.90785 0.85975 0.0
O178 O 0.67951 0.89249 0.83228 0.0
Fe179 Fe 0.70046 0.90326 0.80897 0.0
O180 O 0.69809 0.88646 0.76962 0.0
O181 O 0.6702 0.8689 0.7804 0.0
O182 O 0.64622 0.86933 0.83288 0.0
C183 C 0.63494 0.8846 0.82703 0.0
C184 C 0.71715 0.86721 0.83065 0.0
O185 O 0.64151 0.90232 0.83265 0.0
C186 C 0.70142 0.92264 0.8773 0.0
O187 O 0.67736 0.86221 0.87588 0.0
O188 O 0.65777 0.88766 0.89186 0.0
O189 O 0.71845 0.88631 0.83088 0.0
O190 O 0.70059 0.85852 0.82232 0.0
C191 C 0.67221 0.93341 0.80057 0.0
O192 O 0.68526 0.91427 0.88821 0.0
O193 O 0.70638 0.92199 0.84434 0.0
C194 C 0.6672 0.87146 0.89951 0.0
O195 O 0.66713 0.93095 0.83303 0.0
O196 O 0.68398 0.92098 0.78527 0.0
C197 C 0.68301 0.8761 0.75864 0.0
Fe198 Fe 0.90748 0.33976 0.13873 0.0
Fe199 Fe 0.86692 0.32804 0.17327 0.0
O200 O 0.89313 0.32305 0.16598 0.0
Fe201 Fe 0.90487 0.30149 0.18574 0.0
O202 O 0.92363 0.31704 0.20916 0.0
O203 O 0.93153 0.33605 0.1628 0.0
O204 O 0.90246 0.36102 0.1685 0.0
C205 C 0.88475 0.36713 0.1762 0.0
C206 C 0.92219 0.30324 0.11566 0.0
O207 O 0.86944 0.35578 0.17101 0.0
C208 C 0.86799 0.28523 0.16652 0.0
O209 O 0.88614 0.34648 0.10921 0.0
O210 O 0.86131 0.32617 0.12566 0.0
O211 O 0.92239 0.29695 0.14788 0.0
O212 O 0.9134 0.31964 0.10746 0.0
C213 C 0.8787 0.31659 0.24057 0.0
O214 O 0.85947 0.30135 0.17722 0.0
O215 O 0.88714 0.28424 0.16378 0.0
C216 C 0.86981 0.33703 0.10213 0.0
O217 O 0.87093 0.33018 0.22103 0.0
O218 O 0.88933 0.3024 0.22705 0.0
C219 C 0.93551 0.32941 0.19388 0.0
Fe220 Fe 0.33991 0.097 0.85589 0.0
Fe221 Fe 0.30124 0.09915 0.80928 0.0
O222 O 0.32284 0.11107 0.82883 0.0
Fe223 Fe 0.3276 0.13719 0.82151 0.0
O224 O 0.35554 0.13487 0.82328 0.0
O225 O 0.36099 0.10203 0.82558 0.0
O226 O 0.33614 0.07293 0.83233 0.0
C227 C 0.32944 0.06883 0.80135 0.0
C228 C 0.33725 0.13455 0.89221 0.0
O229 O 0.31697 0.08055 0.78598 0.0
C230 C 0.28459 0.13571 0.82856 0.0
O231 O 0.31989 0.09113 0.88756 0.0
O232 O 0.29691 0.0819 0.84754 0.0
O233 O 0.32583 0.14272 0.86915 0.0
O234 O 0.34683 0.11839 0.88495 0.0
C235 C 0.31627 0.12502 0.75426 0.0
O236 O 0.28374 0.11665 0.83101 0.0
O237 O 0.30069 0.14439 0.81792 0.0
C238 C 0.3034 0.08229 0.87968 0.0
O239 O 0.30201 0.11442 0.76774 0.0
O240 O 0.32964 0.13317 0.77385 0.0
C241 C 0.36697 0.11968 0.81771 0.0
Fe242 Fe 0.09851 0.70006 0.18176 0.0
Fe243 Fe 0.09653 0.66177 0.13463 0.0
O244 O 0.11067 0.67887 0.16148 0.0
Fe245 Fe 0.13713 0.67462 0.16776 0.0
O246 O 0.13377 0.67229 0.21558 0.0
O247 O 0.11432 0.69931 0.22271 0.0
O248 O 0.08039 0.68408 0.20547 0.0
C249 C 0.06882 0.6713 0.19065 0.0
C250 C 0.13469 0.71743 0.16158 0.0
O251 O 0.07265 0.66468 0.15952 0.0
C252 C 0.1336 0.66578 0.09668 0.0
O253 O 0.08057 0.70424 0.14436 0.0
O254 O 0.08966 0.68172 0.10368 0.0
O255 O 0.14387 0.70153 0.17162 0.0
O256 O 0.1155 0.71786 0.15965 0.0
C257 C 0.12039 0.63504 0.1712 0.0
O258 O 0.11774 0.65572 0.10434 0.0
O259 O 0.14207 0.67679 0.12 0.0
C260 C 0.08052 0.69787 0.11218 0.0
O261 O 0.10248 0.64073 0.16416 0.0
O262 O 0.13538 0.64676 0.16546 0.0
C263 C 0.12544 0.68531 0.23561 0.0
Fe264 Fe 0.66043 0.09223 0.14176 0.0
Fe265 Fe 0.70077 0.09432 0.18328 0.0
O266 O 0.67915 0.10664 0.16459 0.0
Fe267 Fe 0.67639 0.13331 0.16878 0.0
O268 O 0.65216 0.13082 0.192 0.0
O269 O 0.63884 0.10821 0.15544 0.0
O270 O 0.65541 0.07683 0.18112 0.0
C271 C 0.66876 0.06618 0.19655 0.0
C272 C 0.66273 0.12544 0.09789 0.0
O273 O 0.68752 0.07031 0.19296 0.0
C274 C 0.71733 0.13111 0.15632 0.0
O275 O 0.67869 0.07378 0.12374 0.0
O276 O 0.70893 0.08525 0.1395 0.0
O277 O 0.66371 0.1368 0.12525 0.0
O278 O 0.66412 0.10645 0.1008 0.0
C279 C 0.69116 0.12096 0.23679 0.0
O280 O 0.71817 0.11595 0.17718 0.0
O281 O 0.70035 0.13783 0.1458 0.0
C282 C 0.6978 0.07487 0.11878 0.0
O283 O 0.69378 0.10262 0.22803 0.0
O284 O 0.68855 0.13455 0.21315 0.0
C285 C 0.63688 0.12129 0.18013 0.0
Fe286 Fe 0.1353 0.33103 0.82616 0.0
Fe287 Fe 0.09696 0.30548 0.81126 0.0
O288 O 0.10896 0.32637 0.83279 0.0
Fe289 Fe 0.09469 0.34268 0.86104 0.0
O290 O 0.10025 0.3646 0.83334 0.0
O291 O 0.13322 0.35875 0.8296 0.0
O292 O 0.13153 0.33418 0.77859 0.0
C293 C 0.12329 0.32143 0.75798 0.0
C294 C 0.1322 0.33866 0.89783 0.0
O295 O 0.11278 0.30687 0.7704 0.0
C296 C 0.07913 0.30593 0.88093 0.0
O297 O 0.14225 0.30426 0.82101 0.0
O298 O 0.11409 0.28742 0.83247 0.0
O299 O 0.11593 0.34833 0.89137 0.0
O300 O 0.14068 0.32824 0.87368 0.0
C301 C 0.06725 0.3344 0.80407 0.0
O302 O 0.07898 0.3005 0.84824 0.0
O303 O 0.08821 0.3219 0.89058 0.0
C304 C 0.13329 0.28816 0.83073 0.0
O305 O 0.0789 0.32196 0.78848 0.0
O306 O 0.0708 0.34002 0.83596 0.0
C307 C 0.11801 0.37035 0.82533 0.0
Fe308 Fe 0.30235 0.90653 0.18482 0.0
Fe309 Fe 0.32753 0.86842 0.16717 0.0
O310 O 0.32293 0.89472 0.16191 0.0
Fe311 Fe 0.33911 0.90906 0.13371 0.0
O312 O 0.33701 0.93254 0.15966 0.0
O313 O 0.31928 0.92427 0.20747 0.0
O314 O 0.30449 0.89028 0.22506 0.0
C315 C 0.31937 0.87966 0.23623 0.0
C316 C 0.30213 0.92517 0.11574 0.0
O317 O 0.33177 0.87166 0.21458 0.0
C318 C 0.33378 0.87239 0.09541 0.0
O319 O 0.2838 0.88977 0.16385 0.0
O320 O 0.30075 0.86164 0.17406 0.0
O321 O 0.31799 0.9161 0.10525 0.0
O322 O 0.29688 0.92484 0.14857 0.0
C323 C 0.36722 0.88506 0.16675 0.0
O324 O 0.32358 0.86377 0.11973 0.0
O325 O 0.34406 0.88821 0.10222 0.0
C326 C 0.28451 0.87065 0.16501 0.0
O327 O 0.35532 0.87022 0.16154 0.0
O328 O 0.36131 0.90294 0.16072 0.0
C329 C 0.3317 0.93588 0.19176 0.0
Fe330 Fe 0.90333 0.69619 0.80661 0.0
Fe331 Fe 0.90524 0.65779 0.8536 0.0
O332 O 0.89117 0.67486 0.82646 0.0
Fe333 Fe 0.86478 0.67054 0.81941 0.0
O334 O 0.8686 0.6683 0.77166 0.0
O335 O 0.88771 0.69559 0.76547 0.0
O336 O 0.92159 0.68035 0.78302 0.0
C337 C 0.93316 0.66754 0.79781 0.0
C338 C 0.86698 0.7133 0.82641 0.0
O339 O 0.92918 0.66068 0.82876 0.0
C340 C 0.86781 0.66173 0.89068 0.0
O341 O 0.92111 0.70037 0.84412 0.0
O342 O 0.91203 0.67778 0.8846 0.0
O343 O 0.85798 0.69745 0.81564 0.0
O344 O 0.88615 0.71381 0.82876 0.0
C345 C 0.88153 0.63089 0.81689 0.0
O346 O 0.88389 0.65186 0.88366 0.0
O347 O 0.85941 0.67258 0.86702 0.0
C348 C 0.92108 0.69399 0.87624 0.0
O349 O 0.8994 0.63654 0.82443 0.0
O350 O 0.86653 0.64272 0.82153 0.0
C351 C 0.87693 0.68151 0.75203 0.0
H352 H 0.19333 0.46308 0.2644 0.0
H353 H 0.18326 0.49622 0.241 0.0
H354 H 0.12034 0.48313 0.26537 0.0
H355 H 0.1302 0.44981 0.28893 0.0
H356 H 0.12888 0.50246 0.19464 0.0
H357 H 0.16373 0.54226 0.31114 0.0
H358 H 0.17997 0.5243 0.28867 0.0
H359 H 0.15763 0.51552 0.31188 0.0
C360 C 0.1773 0.4671 0.26453 0.0
C361 C 0.1626 0.45384 0.27896 0.0
C362 C 0.17161 0.48609 0.25123 0.0
C363 C 0.15113 0.49219 0.25204 0.0
C364 C 0.13625 0.47869 0.26478 0.0
H365 H 0.09216 0.60573 0.18762 0.0
H366 H 0.09865 0.57083 0.20702 0.0
C367 C 0.14193 0.45968 0.27823 0.0
C368 C 0.14546 0.513 0.24089 0.0
H369 H 0.1521 0.5628 0.2632 0.0
C370 C 0.13381 0.51569 0.20966 0.0
C371 C 0.15193 0.53014 0.26068 0.0
C372 C 0.16387 0.52802 0.29514 0.0
C373 C 0.12899 0.53521 0.19702 0.0
C374 C 0.13567 0.5524 0.21662 0.0
C375 C 0.14705 0.54962 0.24817 0.0
C376 C 0.13154 0.57344 0.20452 0.0
C377 C 0.11738 0.53728 0.16222 0.0
C378 C 0.14786 0.58665 0.19761 0.0
C379 C 0.14422 0.60664 0.18689 0.0
C380 C 0.12415 0.61386 0.18289 0.0
C381 C 0.1078 0.60062 0.19013 0.0
C382 C 0.11147 0.58062 0.201 0.0
H383 H 0.11789 0.52308 0.14613 0.0
H384 H 0.10115 0.54069 0.16822 0.0
H385 H 0.12358 0.5499 0.14572 0.0
H386 H 0.16347 0.58146 0.20038 0.0
H387 H 0.15718 0.61641 0.18164 0.0
H388 H 0.46282 0.81289 0.73337 0.0
H389 H 0.49572 0.82352 0.75773 0.0
H390 H 0.48107 0.886 0.73493 0.0
H391 H 0.44802 0.87557 0.71051 0.0
H392 H 0.52519 0.84564 0.71501 0.0
H393 H 0.50347 0.88666 0.84002 0.0
H394 H 0.48678 0.8685 0.81855 0.0
H395 H 0.48988 0.89338 0.79974 0.0
C396 C 0.4664 0.82893 0.734 0.0
C397 C 0.45279 0.84336 0.71976 0.0
C398 C 0.48524 0.83497 0.74791 0.0
C399 C 0.49076 0.85553 0.74827 0.0
C400 C 0.47697 0.87007 0.73529 0.0
H401 H 0.60606 0.91328 0.80993 0.0
H402 H 0.5709 0.90731 0.78992 0.0
C403 C 0.45813 0.86405 0.72121 0.0
C404 C 0.51157 0.86147 0.75955 0.0
H405 H 0.53839 0.88686 0.82413 0.0
C406 C 0.52809 0.85465 0.73887 0.0
C407 C 0.51523 0.87344 0.7904 0.0
C408 C 0.49796 0.88086 0.81372 0.0
C409 C 0.54825 0.85935 0.74833 0.0
C410 C 0.55199 0.8708 0.77981 0.0
C411 C 0.53545 0.87803 0.80008 0.0
C412 C 0.57302 0.87458 0.79282 0.0
C413 C 0.56534 0.85216 0.72432 0.0
C414 C 0.58568 0.85818 0.80169 0.0
C415 C 0.6057 0.8615 0.81296 0.0
C416 C 0.61346 0.88134 0.81598 0.0
C417 C 0.60058 0.89781 0.80785 0.0
C418 C 0.58049 0.89444 0.79645 0.0
H419 H 0.55987 0.84906 0.69661 0.0
H420 H 0.57783 0.86354 0.72298 0.0
H421 H 0.57171 0.83783 0.73526 0.0
H422 H 0.58008 0.84274 0.79982 0.0
H423 H 0.61511 0.84845 0.81921 0.0
H424 H 0.91342 0.39683 0.18856 0.0
H425 H 0.90726 0.43193 0.20783 0.0
H426 H 0.84248 0.42056 0.20882 0.0
H427 H 0.84839 0.38562 0.19024 0.0
H428 H 0.88416 0.46247 0.1742 0.0
H429 H 0.85279 0.44408 0.30848 0.0
H430 H 0.86661 0.4258 0.28178 0.0
H431 H 0.84009 0.43077 0.27286 0.0
C432 C 0.89787 0.40179 0.19305 0.0
C433 C 0.88141 0.38836 0.18799 0.0
C434 C 0.89439 0.42184 0.20399 0.0
C435 C 0.87444 0.42872 0.21029 0.0
C436 C 0.85802 0.41543 0.20487 0.0
H437 H 0.8107 0.53799 0.26575 0.0
H438 H 0.82173 0.5048 0.24376 0.0
C439 C 0.86146 0.39546 0.19404 0.0
C440 C 0.87053 0.44989 0.22188 0.0
H441 H 0.84692 0.47777 0.28703 0.0
C442 C 0.87624 0.46588 0.19906 0.0
C443 C 0.86025 0.45425 0.25439 0.0
C444 C 0.85476 0.43784 0.28097 0.0
C445 C 0.8712 0.48609 0.20726 0.0
C446 C 0.86033 0.49033 0.23917 0.0
C447 C 0.85507 0.4744 0.26238 0.0
C448 C 0.85396 0.51115 0.24901 0.0
C449 C 0.87693 0.50272 0.1813 0.0
C450 C 0.86849 0.52576 0.25881 0.0
C451 C 0.86225 0.54476 0.27151 0.0
C452 C 0.84136 0.54942 0.27471 0.0
C453 C 0.82689 0.53494 0.26365 0.0
C454 C 0.83315 0.51594 0.25113 0.0
H455 H 0.88199 0.49657 0.15497 0.0
H456 H 0.86382 0.5131 0.17684 0.0
H457 H 0.88961 0.51178 0.19282 0.0
H458 H 0.88462 0.52224 0.25776 0.0
H459 H 0.8738 0.55556 0.27975 0.0
H460 H 0.38468 0.15564 0.79894 0.0
H461 H 0.41958 0.16146 0.77872 0.0
H462 H 0.43233 0.09746 0.78765 0.0
H463 H 0.39734 0.09141 0.80831 0.0
H464 H 0.46291 0.12348 0.818 0.0
H465 H 0.44203 0.14578 0.679 0.0
H466 H 0.4287 0.15958 0.71337 0.0
H467 H 0.42458 0.13274 0.70859 0.0
C468 C 0.39485 0.14275 0.79662 0.0
C469 C 0.38816 0.12303 0.80519 0.0
C470 C 0.41478 0.14612 0.78491 0.0
C471 C 0.42843 0.12987 0.78132 0.0
C472 C 0.42196 0.11019 0.79017 0.0
H473 H 0.54205 0.13606 0.66363 0.0
H474 H 0.50905 0.12631 0.68838 0.0
C475 C 0.40196 0.10677 0.80187 0.0
C476 C 0.44946 0.13354 0.76833 0.0
H477 H 0.4763 0.15176 0.69678 0.0
C478 C 0.46591 0.12956 0.79144 0.0
C479 C 0.45326 0.14127 0.73355 0.0
C480 C 0.43625 0.14493 0.70701 0.0
C481 C 0.4861 0.13352 0.78088 0.0
C482 C 0.48984 0.1419 0.74653 0.0
C483 C 0.47339 0.1455 0.72323 0.0
C484 C 0.51067 0.14679 0.7337 0.0
C485 C 0.50327 0.12849 0.80636 0.0
C486 C 0.52265 0.16146 0.75117 0.0
C487 C 0.54165 0.16709 0.73711 0.0
C488 C 0.54885 0.15826 0.70511 0.0
C489 C 0.53695 0.14328 0.68819 0.0
C490 C 0.51806 0.13765 0.7023 0.0
H491 H 0.49837 0.11755 0.82737 0.0
H492 H 0.5165 0.12199 0.7917 0.0
H493 H 0.50839 0.14258 0.81997 0.0
H494 H 0.51707 0.16898 0.7751 0.0
H495 H 0.5504 0.17871 0.75075 0.0
H496 H 0.18248 0.55283 0.75745 0.0
H497 H 0.17236 0.52043 0.78454 0.0
H498 H 0.12984 0.51048 0.6977 0.0
H499 H 0.13882 0.54343 0.67226 0.0
H500 H 0.11339 0.49786 0.75474 0.0
H501 H 0.1919 0.46686 0.75372 0.0
H502 H 0.18999 0.48909 0.78123 0.0
H503 H 0.18572 0.4909 0.73348 0.0
C504 C 0.17086 0.54372 0.74444 0.0
C505 C 0.16148 0.55052 0.71277 0.0
C506 C 0.16523 0.52513 0.75968 0.0
C507 C 0.15076 0.51263 0.74264 0.0
C508 C 0.14108 0.51973 0.71138 0.0
H509 H 0.14343 0.38283 0.77257 0.0
H510 H 0.14997 0.41761 0.75279 0.0
C511 C 0.14623 0.53857 0.69682 0.0
C512 C 0.14573 0.49209 0.7568 0.0
H513 H 0.16682 0.44713 0.78325 0.0
C514 C 0.12509 0.48673 0.76078 0.0
C515 C 0.16094 0.47739 0.76422 0.0
C516 C 0.18334 0.48126 0.75758 0.0
C517 C 0.11923 0.46711 0.77134 0.0
C518 C 0.13446 0.45268 0.78015 0.0
C519 C 0.15509 0.45816 0.77676 0.0
C520 C 0.12954 0.43154 0.79142 0.0
C521 C 0.09678 0.46194 0.77135 0.0
C522 C 0.11579 0.42763 0.8196 0.0
C523 C 0.1115 0.40766 0.83 0.0
C524 C 0.12153 0.39135 0.8134 0.0
C525 C 0.13554 0.39522 0.78578 0.0
C526 C 0.13931 0.41509 0.77459 0.0
H527 H 0.08806 0.47204 0.75302 0.0
H528 H 0.09412 0.44598 0.76302 0.0
H529 H 0.09056 0.4641 0.7988 0.0
H530 H 0.10858 0.43998 0.83395 0.0
H531 H 0.10086 0.405 0.85176 0.0
H532 H 0.55199 0.87168 0.28816 0.0
H533 H 0.51909 0.88206 0.26304 0.0
H534 H 0.50462 0.81956 0.24008 0.0
H535 H 0.53737 0.80895 0.26521 0.0
H536 H 0.50048 0.87398 0.19254 0.0
H537 H 0.45796 0.84043 0.30726 0.0
H538 H 0.48501 0.84554 0.309 0.0
H539 H 0.47567 0.82363 0.28546 0.0
C540 C 0.54189 0.86013 0.27751 0.0
C541 C 0.54721 0.83944 0.27912 0.0
C542 C 0.52313 0.86612 0.26312 0.0
C543 C 0.50937 0.85154 0.2503 0.0
C544 C 0.51497 0.83099 0.25039 0.0
H545 H 0.38575 0.84828 0.175 0.0
H546 H 0.42069 0.84149 0.19394 0.0
C547 C 0.53372 0.82498 0.26466 0.0
C548 C 0.48879 0.85765 0.23818 0.0
H549 H 0.4383 0.85246 0.25838 0.0
C550 C 0.48685 0.8694 0.20695 0.0
C551 C 0.47113 0.85171 0.25725 0.0
C552 C 0.47244 0.83977 0.29179 0.0
C553 C 0.46755 0.87481 0.19356 0.0
C554 C 0.44987 0.86858 0.21237 0.0
C555 C 0.45189 0.85714 0.24396 0.0
C556 C 0.42902 0.87312 0.19931 0.0
C557 C 0.46623 0.88656 0.15886 0.0
C558 C 0.42208 0.89321 0.19616 0.0
C559 C 0.40206 0.89718 0.18516 0.0
C560 C 0.38861 0.88111 0.17743 0.0
C561 C 0.39568 0.86103 0.18067 0.0
C562 C 0.41566 0.8571 0.19151 0.0
H563 H 0.48077 0.88599 0.14357 0.0
H564 H 0.45379 0.88059 0.14159 0.0
H565 H 0.46283 0.9027 0.16494 0.0
H566 H 0.43203 0.90579 0.20279 0.0
H567 H 0.39705 0.91281 0.18321 0.0
H568 H 0.84832 0.61584 0.78189 0.0
H569 H 0.84132 0.58059 0.76583 0.0
H570 H 0.89854 0.56232 0.81317 0.0
H571 H 0.90604 0.59777 0.82793 0.0
H572 H 0.89342 0.54339 0.75277 0.0
H573 H 0.82163 0.53613 0.82917 0.0
H574 H 0.82003 0.55668 0.79778 0.0
H575 H 0.83826 0.55776 0.83401 0.0
C576 C 0.85939 0.60431 0.78895 0.0
C577 C 0.87766 0.60956 0.8064 0.0
C578 C 0.85528 0.58411 0.78006 0.0
C579 C 0.8691 0.56866 0.78924 0.0
C580 C 0.88754 0.57393 0.80612 0.0
H581 H 0.83033 0.44146 0.76393 0.0
H582 H 0.84134 0.47375 0.79061 0.0
C583 C 0.89183 0.5942 0.81448 0.0
C584 C 0.86463 0.54715 0.77992 0.0
H585 H 0.8274 0.51091 0.78341 0.0
C586 C 0.87908 0.53622 0.75988 0.0
C587 C 0.84616 0.53751 0.78993 0.0
C588 C 0.83077 0.54757 0.81426 0.0
C589 C 0.8752 0.51633 0.74822 0.0
C590 C 0.85602 0.50734 0.75565 0.0
C591 C 0.84196 0.51789 0.77713 0.0
C592 C 0.84987 0.48751 0.73995 0.0
C593 C 0.89179 0.50517 0.7282 0.0
C594 C 0.85068 0.4846 0.70265 0.0
C595 C 0.84471 0.46617 0.6875 0.0
C596 C 0.83728 0.45033 0.70921 0.0
C597 C 0.83601 0.45337 0.74652 0.0
C598 C 0.84231 0.47179 0.76177 0.0
H599 H 0.90715 0.51071 0.73617 0.0
H600 H 0.89107 0.48856 0.73312 0.0
H601 H 0.89004 0.50795 0.69897 0.0
H602 H 0.85573 0.49669 0.68508 0.0
H603 H 0.84559 0.46448 0.6586 0.0
H604 H 0.60135 0.10071 0.16814 0.0
H605 H 0.56689 0.11036 0.18618 0.0
H606 H 0.59057 0.16423 0.23721 0.0
H607 H 0.62525 0.15436 0.22013 0.0
H608 H 0.56288 0.14641 0.27859 0.0
H609 H 0.53127 0.15297 0.14133 0.0
H610 H 0.54204 0.12837 0.14941 0.0
H611 H 0.55826 0.15044 0.1498 0.0
C612 C 0.59926 0.11464 0.18317 0.0
C613 C 0.61608 0.12684 0.19243 0.0
C614 C 0.57949 0.12023 0.1932 0.0
C615 C 0.57603 0.13831 0.21221 0.0
C616 C 0.59283 0.15031 0.22222 0.0
H617 H 0.45447 0.19102 0.24474 0.0
H618 H 0.4891 0.18387 0.22312 0.0
C619 C 0.61266 0.14463 0.21249 0.0
C620 C 0.55497 0.14434 0.22257 0.0
H621 H 0.50695 0.152 0.18933 0.0
C622 C 0.5507 0.14778 0.25901 0.0
C623 C 0.5391 0.14655 0.197 0.0
C624 C 0.54293 0.14461 0.15717 0.0
C625 C 0.53095 0.15272 0.2707 0.0
C626 C 0.51484 0.15368 0.24538 0.0
C627 C 0.51921 0.15093 0.2088 0.0
C628 C 0.49336 0.1573 0.25652 0.0
C629 C 0.52762 0.1571 0.31007 0.0
C630 C 0.48395 0.14433 0.28139 0.0
C631 C 0.46431 0.14845 0.29393 0.0
C632 C 0.45346 0.16546 0.28141 0.0
C633 C 0.46243 0.17781 0.25494 0.0
C634 C 0.48223 0.17378 0.24265 0.0
H635 H 0.54199 0.16197 0.32339 0.0
H636 H 0.51595 0.16911 0.31402 0.0
H637 H 0.5223 0.14307 0.32366 0.0
H638 H 0.49195 0.13115 0.2916 0.0
H639 H 0.45774 0.13845 0.31393 0.0
H640 H 0.65741 0.96791 0.83102 0.0
H641 H 0.64675 0.99899 0.80127 0.0
H642 H 0.66111 0.97267 0.6982 0.0
H643 H 0.67257 0.94147 0.72814 0.0
H644 H 0.67469 0.01044 0.70194 0.0
H645 H 0.59489 0.01016 0.74875 0.0
H646 H 0.61191 0.00858 0.78628 0.0
H647 H 0.61133 0.98836 0.75362 0.0
C648 C 0.65821 0.96861 0.80199 0.0
C649 C 0.66573 0.95216 0.78191 0.0
C650 C 0.65193 0.98638 0.78497 0.0
C651 C 0.65256 0.98799 0.74743 0.0
C652 C 0.66027 0.97168 0.72721 0.0
H653 H 0.59567 0.09688 0.65538 0.0
H654 H 0.60329 0.0614 0.6697 0.0
C655 C 0.66684 0.9539 0.74432 0.0
C656 C 0.64608 0.00715 0.72984 0.0
H657 H 0.6083 0.04279 0.73052 0.0
C658 C 0.66004 0.01737 0.70771 0.0
C659 C 0.62677 0.01601 0.73657 0.0
C660 C 0.61031 0.00506 0.75726 0.0
C661 C 0.65567 0.0367 0.69382 0.0
C662 C 0.63712 0.04634 0.70336 0.0
C663 C 0.6227 0.03562 0.72378 0.0
C664 C 0.6327 0.06778 0.69372 0.0
C665 C 0.67101 0.04652 0.66909 0.0
C666 C 0.64649 0.08322 0.70304 0.0
C667 C 0.6423 0.10342 0.69445 0.0
C668 C 0.624 0.10867 0.67713 0.0
C669 C 0.60991 0.0933 0.66873 0.0
C670 C 0.61427 0.07302 0.67683 0.0
H671 H 0.68009 0.03491 0.65447 0.0
H672 H 0.66348 0.05654 0.64911 0.0
H673 H 0.6818 0.05575 0.68523 0.0
H674 H 0.66044 0.0797 0.71729 0.0
H675 H 0.65332 0.11497 0.70175 0.0
H676 H 0.10197 0.39091 0.34791 0.0
H677 H 0.06738 0.38114 0.33125 0.0
H678 H 0.09085 0.34732 0.24106 0.0
H679 H 0.12571 0.35658 0.25817 0.0
H680 H 0.04625 0.38927 0.2723 0.0
H681 H 0.05351 0.30585 0.28614 0.0
H682 H 0.07262 0.3232 0.30276 0.0
H683 H 0.07196 0.31649 0.25591 0.0
C684 C 0.09985 0.38132 0.32457 0.0
C685 C 0.11667 0.37445 0.30447 0.0
C686 C 0.08001 0.37573 0.31512 0.0
C687 C 0.07648 0.36319 0.2853 0.0
C688 C 0.0932 0.35654 0.26477 0.0
H689 H 0.96522 0.35337 0.16522 0.0
H690 H 0.99858 0.36131 0.18995 0.0
C691 C 0.11313 0.36199 0.27441 0.0
C692 C 0.05522 0.35785 0.27502 0.0
H693 H 0.02346 0.318 0.25678 0.0
C694 C 0.04125 0.37367 0.26916 0.0
C695 C 0.04855 0.33749 0.27158 0.0
C696 C 0.06238 0.31978 0.27979 0.0
C697 C 0.02102 0.36974 0.259 0.0
C698 C 0.01465 0.34943 0.25367 0.0
C699 C 0.02841 0.33356 0.26056 0.0
C700 C 0.99413 0.34448 0.23921 0.0
C701 C 0.00662 0.38743 0.25429 0.0
C702 C 0.98062 0.33188 0.25826 0.0
C703 C 0.96141 0.3271 0.24398 0.0
C704 C 0.95546 0.33475 0.21027 0.0
C705 C 0.96914 0.3473 0.19135 0.0
C706 C 0.98826 0.35198 0.20554 0.0
H707 H 0.01166 0.40083 0.2701 0.0
H708 H 0.00632 0.39191 0.22556 0.0
H709 H 0.99086 0.38338 0.26258 0.0
H710 H 0.98493 0.32582 0.28422 0.0
H711 H 0.9513 0.31735 0.25919 0.0
H712 H 0.39133 0.90314 0.64751 0.0
H713 H 0.38224 0.93765 0.66505 0.0
H714 H 0.34703 0.91429 0.75374 0.0
H715 H 0.35566 0.87954 0.73585 0.0
H716 H 0.32692 0.94451 0.71741 0.0
H717 H 0.40598 0.96864 0.74901 0.0
H718 H 0.40308 0.95907 0.70418 0.0
H719 H 0.39918 0.94242 0.74186 0.0
C720 C 0.38171 0.90529 0.67085 0.0
C721 C 0.37432 0.88855 0.69041 0.0
C722 C 0.37659 0.92507 0.68091 0.0
C723 C 0.36425 0.92857 0.71106 0.0
C724 C 0.35665 0.91192 0.73044 0.0
H725 H 0.35209 0.0387 0.83166 0.0
H726 H 0.35967 0.00527 0.80753 0.0
C727 C 0.36163 0.89208 0.72023 0.0
C728 C 0.35925 0.94961 0.72228 0.0
H729 H 0.38076 0.99442 0.74852 0.0
C730 C 0.33867 0.95544 0.72425 0.0
C731 C 0.37461 0.96379 0.7315 0.0
C732 C 0.39694 0.95815 0.7319 0.0
C733 C 0.33302 0.97508 0.73522 0.0
C734 C 0.34841 0.98937 0.74368 0.0
C735 C 0.36898 0.98353 0.7416 0.0
C736 C 0.3436 0.00997 0.75746 0.0
C737 C 0.31065 0.98011 0.73873 0.0
C738 C 0.3322 0.02393 0.73714 0.0
C739 C 0.32767 0.0432 0.75103 0.0
C740 C 0.33464 0.04886 0.78535 0.0
C741 C 0.34641 0.03493 0.80516 0.0
C742 C 0.3508 0.01575 0.7914 0.0
H743 H 0.30104 0.96623 0.73946 0.0
H744 H 0.30772 0.98909 0.76344 0.0
H745 H 0.30583 0.98933 0.71528 0.0
H746 H 0.32687 0.01995 0.71052 0.0
H747 H 0.31869 0.0536 0.73498 0.0
H748 H 0.04776 0.69186 0.24298 0.0
H749 H 0.01323 0.68462 0.26466 0.0
H750 H 0.01091 0.6312 0.19771 0.0
H751 H 0.04506 0.63864 0.17523 0.0
H752 H 0.97754 0.65408 0.18931 0.0
H753 H 0.99238 0.64274 0.33465 0.0
H754 H 0.00123 0.6667 0.31781 0.0
H755 H 0.0126 0.64355 0.3018 0.0
C756 C 0.04 0.6784 0.23334 0.0
C757 C 0.0491 0.66585 0.20733 0.0
C758 C 0.02029 0.67425 0.24583 0.0
C759 C 0.00954 0.65727 0.23301 0.0
C760 C 0.01889 0.64441 0.20789 0.0
H761 H 0.90054 0.6026 0.31846 0.0
H762 H 0.93498 0.61152 0.29933 0.0
C763 C 0.03843 0.64867 0.19513 0.0
C764 C 0.98815 0.65335 0.24406 0.0
H765 H 0.9577 0.64406 0.31658 0.0
C766 C 0.9732 0.65186 0.21715 0.0
C767 C 0.98254 0.65032 0.28035 0.0
C768 C 0.99805 0.65071 0.31031 0.0
C769 C 0.95283 0.64726 0.22544 0.0
C770 C 0.94715 0.64462 0.26178 0.0
C771 C 0.96206 0.64624 0.28874 0.0
C772 C 0.92601 0.63924 0.27241 0.0
C773 C 0.9378 0.64462 0.19508 0.0
C774 C 0.90947 0.65184 0.26357 0.0
C775 C 0.88965 0.64663 0.2741 0.0
C776 C 0.88611 0.62892 0.29425 0.0
C777 C 0.90274 0.61639 0.30309 0.0
C778 C 0.92246 0.62148 0.29224 0.0
H779 H 0.94562 0.6417 0.1691 0.0
H780 H 0.92714 0.63188 0.20052 0.0
H781 H 0.92871 0.65873 0.1921 0.0
H782 H 0.9119 0.66584 0.24895 0.0
H783 H 0.87719 0.6567 0.26714 0.0
H784 H 0.63043 0.04967 0.20182 0.0
H785 H 0.62128 0.01606 0.22466 0.0
H786 H 0.68422 0.00483 0.25186 0.0
H787 H 0.69352 0.03841 0.2295 0.0
H788 H 0.63623 0.97906 0.19857 0.0
H789 H 0.65376 0.98836 0.34345 0.0
H790 H 0.65088 0.00968 0.31339 0.0
H791 H 0.67429 0.99546 0.31409 0.0
C792 C 0.6423 0.0402 0.21314 0.0
C793 C 0.66274 0.04677 0.21376 0.0
C794 C 0.63704 0.02096 0.22608 0.0
C795 C 0.65204 0.00802 0.24018 0.0
C796 C 0.67235 0.0147 0.24163 0.0
H797 H 0.64685 0.87663 0.26351 0.0
H798 H 0.65431 0.91143 0.24443 0.0
C799 C 0.67764 0.0339 0.22867 0.0
C800 C 0.64667 0.98712 0.25153 0.0
H801 H 0.64768 0.95467 0.323 0.0
C802 C 0.63863 0.97374 0.22581 0.0
C803 C 0.64969 0.98027 0.28713 0.0
C804 C 0.65745 0.99422 0.31624 0.0
C805 C 0.63381 0.95357 0.23462 0.0
C806 C 0.6374 0.94655 0.26996 0.0
C807 C 0.64513 0.96004 0.29582 0.0
C808 C 0.63279 0.92541 0.28095 0.0
C809 C 0.62464 0.94003 0.20618 0.0
C810 C 0.61849 0.92176 0.30818 0.0
C811 C 0.61427 0.90196 0.31927 0.0
C812 C 0.6244 0.88534 0.30351 0.0
C813 C 0.63875 0.88905 0.27617 0.0
C814 C 0.64295 0.90892 0.26509 0.0
H815 H 0.61825 0.94896 0.18349 0.0
H816 H 0.63666 0.92989 0.1953 0.0
H817 H 0.61235 0.93039 0.21762 0.0
H818 H 0.61051 0.93428 0.32082 0.0
H819 H 0.60312 0.89971 0.34036 0.0
H820 H 0.89699 0.40808 0.68386 0.0
H821 H 0.9321 0.4014 0.7032 0.0
H822 H 0.91973 0.33711 0.704 0.0
H823 H 0.8847 0.34356 0.68526 0.0
H824 H 0.93843 0.35049 0.76578 0.0
H825 H 0.97972 0.37789 0.64484 0.0
H826 H 0.96225 0.39588 0.66409 0.0
H827 H 0.95265 0.37277 0.64482 0.0
C828 C 0.90178 0.39251 0.68795 0.0
C829 C 0.88803 0.37636 0.68289 0.0
C830 C 0.92188 0.38873 0.69877 0.0
C831 C 0.92859 0.36874 0.7045 0.0
C832 C 0.91489 0.35264 0.69953 0.0
H833 H 0.05101 0.32151 0.73986 0.0
H834 H 0.01763 0.33042 0.71458 0.0
C835 C 0.89485 0.35638 0.6888 0.0
C836 C 0.94956 0.36449 0.71733 0.0
H837 H 0.99998 0.36899 0.69539 0.0
C838 C 0.95189 0.35452 0.75037 0.0
C839 C 0.96705 0.36955 0.69695 0.0
C840 C 0.96539 0.37945 0.66054 0.0
C841 C 0.97125 0.34963 0.76381 0.0
C842 C 0.98878 0.35519 0.74393 0.0
C843 C 0.98649 0.36492 0.71066 0.0
C844 C 0.00957 0.351 0.75759 0.0
C845 C 0.97278 0.33829 0.79893 0.0
C846 C 0.01624 0.36006 0.78955 0.0
C847 C 0.03518 0.35498 0.80408 0.0
C848 C 0.04791 0.3408 0.78683 0.0
C849 C 0.04154 0.33238 0.75395 0.0
C850 C 0.0225 0.33747 0.73943 0.0
H851 H 0.95815 0.33078 0.8061 0.0
H852 H 0.98496 0.32659 0.79779 0.0
H853 H 0.97664 0.34914 0.8207 0.0
H854 H 0.00663 0.37083 0.80359 0.0
H855 H 0.03968 0.36197 0.8292 0.0
H856 H 0.40863 0.10454 0.30722 0.0
H857 H 0.40088 0.06979 0.28806 0.0
H858 H 0.3367 0.0841 0.28629 0.0
H859 H 0.34421 0.11881 0.30502 0.0
H860 H 0.37514 0.04005 0.32148 0.0
H861 H 0.34825 0.06137 0.18512 0.0
H862 H 0.36276 0.07845 0.21316 0.0
H863 H 0.33597 0.07478 0.22114 0.0
C864 C 0.39286 0.10031 0.3027 0.0
C865 C 0.37705 0.11451 0.30751 0.0
C866 C 0.38848 0.08044 0.29187 0.0
C867 C 0.36825 0.07448 0.28542 0.0
C868 C 0.35244 0.08851 0.29062 0.0
H869 H 0.31847 0.9527 0.25534 0.0
H870 H 0.32804 0.98581 0.28037 0.0
C871 C 0.35678 0.10833 0.30143 0.0
C872 C 0.36362 0.05364 0.27296 0.0
H873 H 0.34312 0.02723 0.2029 0.0
C874 C 0.36819 0.03719 0.29553 0.0
C875 C 0.35471 0.05001 0.23898 0.0
C876 C 0.35028 0.06704 0.213 0.0
C877 C 0.36384 0.01714 0.28513 0.0
C878 C 0.35451 0.01357 0.25147 0.0
C879 C 0.35013 0.03003 0.22882 0.0
C880 C 0.34975 0.99286 0.23838 0.0
C881 C 0.36959 0.99993 0.30986 0.0
C882 C 0.35875 0.98591 0.20654 0.0
C883 C 0.35325 0.96716 0.19211 0.0
C884 C 0.33852 0.95496 0.20913 0.0
C885 C 0.32988 0.9617 0.24161 0.0
C886 C 0.3354 0.98057 0.25603 0.0
H887 H 0.38069 0.00482 0.33069 0.0
H888 H 0.35569 0.99431 0.32367 0.0
H889 H 0.37627 0.98711 0.29448 0.0
H890 H 0.36986 0.99516 0.19251 0.0
H891 H 0.36033 0.96242 0.1672 0.0
H892 H 0.10215 0.60217 0.66479 0.0
H893 H 0.06745 0.61051 0.68342 0.0
H894 H 0.08944 0.66488 0.73515 0.0
H895 H 0.12436 0.65628 0.71759 0.0
H896 H 0.06285 0.64582 0.77665 0.0
H897 H 0.03005 0.65202 0.64018 0.0
H898 H 0.04168 0.62775 0.64764 0.0
H899 H 0.05716 0.65034 0.648 0.0
C900 C 0.09962 0.61594 0.68005 0.0
C901 C 0.11601 0.62864 0.68947 0.0
C902 C 0.07972 0.62077 0.69043 0.0
C903 C 0.07574 0.6386 0.70987 0.0
C904 C 0.09212 0.65113 0.71987 0.0
H905 H 0.95345 0.68793 0.74437 0.0
H906 H 0.98811 0.68145 0.72258 0.0
C907 C 0.11208 0.64619 0.70985 0.0
C908 C 0.05458 0.64379 0.72078 0.0
H909 H 0.00615 0.65011 0.68869 0.0
C910 C 0.05049 0.64691 0.75737 0.0
C911 C 0.03849 0.6456 0.69557 0.0
C912 C 0.04209 0.64397 0.65564 0.0
C913 C 0.03071 0.65123 0.76956 0.0
C914 C 0.01442 0.65183 0.74458 0.0
C915 C 0.01858 0.64931 0.70788 0.0
C916 C 0.99298 0.65505 0.75612 0.0
C917 C 0.02756 0.65541 0.80904 0.0
C918 C 0.98396 0.64196 0.78125 0.0
C919 C 0.96428 0.64573 0.79396 0.0
C920 C 0.95306 0.66246 0.78131 0.0
C921 C 0.9617 0.67493 0.75468 0.0
C922 C 0.98152 0.67128 0.74227 0.0
H923 H 0.04189 0.66058 0.82212 0.0
H924 H 0.01564 0.66715 0.81335 0.0
H925 H 0.02264 0.64123 0.8226 0.0
H926 H 0.99225 0.62897 0.79145 0.0
H927 H 0.95796 0.63566 0.81409 0.0
H928 H 0.18167 0.56242 0.55921 0.0
H929 H 0.19571 0.53754 0.51773 0.0
H930 H 0.25255 0.53767 0.57611 0.0
H931 H 0.23845 0.56281 0.61831 0.0
H932 H 0.23277 0.53748 0.47379 0.0
H933 H 0.23063 0.47764 0.5798 0.0
H934 H 0.21674 0.50111 0.58513 0.0
H935 H 0.24404 0.50105 0.58811 0.0
C936 C 0.19724 0.55734 0.56315 0.0
C937 C 0.20886 0.56436 0.59232 0.0
C938 C 0.20529 0.54322 0.53925 0.0
C939 C 0.22509 0.53567 0.54404 0.0
C940 C 0.23717 0.54325 0.57216 0.0
H941 H 0.23907 0.44063 0.37689 0.0
H942 H 0.25297 0.46574 0.41936 0.0
C943 C 0.22913 0.55762 0.59611 0.0
C944 C 0.23183 0.51866 0.52096 0.0
H945 H 0.23118 0.46689 0.51989 0.0
C946 C 0.23322 0.52203 0.48382 0.0
C947 C 0.23233 0.49857 0.53429 0.0
C948 C 0.23083 0.49418 0.57398 0.0
C949 C 0.23313 0.50577 0.45944 0.0
C950 C 0.2317 0.48572 0.47273 0.0
C951 C 0.23232 0.48232 0.50991 0.0
C952 C 0.22485 0.46892 0.44928 0.0
C953 C 0.23251 0.51017 0.41969 0.0
C954 C 0.2047 0.4621 0.45274 0.0
C955 C 0.19676 0.448 0.42869 0.0
C956 C 0.20885 0.44027 0.40068 0.0
C957 C 0.22939 0.44637 0.39817 0.0
C958 C 0.23733 0.46072 0.42227 0.0
H959 H 0.23316 0.5267 0.41384 0.0
H960 H 0.24562 0.50269 0.40626 0.0
H961 H 0.21831 0.50387 0.40783 0.0
H962 H 0.19483 0.46827 0.4734 0.0
H963 H 0.18097 0.44344 0.43165 0.0
H964 H 0.42826 0.7666 0.59972 0.0
H965 H 0.4537 0.75131 0.55905 0.0
H966 H 0.48676 0.80787 0.5569 0.0
H967 H 0.4617 0.82319 0.59655 0.0
H968 H 0.46628 0.77087 0.48589 0.0
H969 H 0.52922 0.76069 0.58333 0.0
H970 H 0.50261 0.76055 0.59631 0.0
H971 H 0.51564 0.7842 0.58878 0.0
C972 C 0.44102 0.77569 0.59061 0.0
C973 C 0.44294 0.79611 0.60128 0.0
C974 C 0.45549 0.76694 0.5675 0.0
C975 C 0.47218 0.77843 0.5555 0.0
C976 C 0.47411 0.7987 0.5663 0.0
H977 H 0.55929 0.82006 0.43384 0.0
H978 H 0.53551 0.80592 0.47729 0.0
C979 C 0.45966 0.80747 0.5888 0.0
C980 C 0.48739 0.77025 0.5301 0.0
H981 H 0.53911 0.76806 0.52179 0.0
C982 C 0.48216 0.7693 0.49362 0.0
C983 C 0.50802 0.76818 0.54044 0.0
C984 C 0.51423 0.76826 0.57942 0.0
C985 C 0.49734 0.76886 0.46699 0.0
C986 C 0.51809 0.76927 0.4774 0.0
C987 C 0.52318 0.7678 0.5139 0.0
C988 C 0.53402 0.77632 0.45224 0.0
C989 C 0.4912 0.77024 0.42802 0.0
C990 C 0.54135 0.76418 0.42407 0.0
C991 C 0.55513 0.77227 0.39901 0.0
C992 C 0.56145 0.79264 0.40174 0.0
C993 C 0.55452 0.80441 0.43073 0.0
C994 C 0.54102 0.79632 0.45571 0.0
H995 H 0.4744 0.76946 0.42439 0.0
H996 H 0.4968 0.78475 0.41644 0.0
H997 H 0.49833 0.75766 0.41267 0.0
H998 H 0.53614 0.74866 0.42111 0.0
H999 H 0.56026 0.76286 0.37693 0.0
H1000 H 0.79985 0.41423 0.54334 0.0
H1001 H 0.79114 0.44045 0.49939 0.0
H1002 H 0.77534 0.48143 0.58537 0.0
H1003 H 0.78328 0.45501 0.62942 0.0
H1004 H 0.75175 0.48765 0.5227 0.0
H1005 H 0.83492 0.48433 0.49396 0.0
H1006 H 0.82168 0.4609 0.48623 0.0
H1007 H 0.82352 0.47094 0.53106 0.0
C1008 C 0.79396 0.42864 0.55279 0.0
C1009 C 0.79257 0.43273 0.58974 0.0
C1010 C 0.78902 0.4436 0.52771 0.0
C1011 C 0.78314 0.46302 0.53922 0.0
C1012 C 0.77995 0.46655 0.57596 0.0
H1013 H 0.81922 0.57264 0.437 0.0
H1014 H 0.80987 0.54624 0.47993 0.0
C1015 C 0.78453 0.45145 0.6011 0.0
C1016 C 0.78337 0.48032 0.51382 0.0
H1017 H 0.81557 0.5074 0.46024 0.0
C1018 C 0.76564 0.49199 0.50888 0.0
C1019 C 0.80165 0.48611 0.49638 0.0
C1020 C 0.82158 0.47506 0.50235 0.0
C1021 C 0.76576 0.50937 0.48687 0.0
C1022 C 0.78401 0.51495 0.4692 0.0
C1023 C 0.80158 0.50309 0.47385 0.0
C1024 C 0.78595 0.53345 0.44681 0.0
C1025 C 0.74662 0.52192 0.48354 0.0
C1026 C 0.77496 0.5356 0.41461 0.0
C1027 C 0.78007 0.55101 0.39025 0.0
C1028 C 0.79648 0.56408 0.39763 0.0
C1029 C 0.80657 0.56265 0.43074 0.0
C1030 C 0.80123 0.54759 0.45523 0.0
H1031 H 0.73545 0.51832 0.50506 0.0
H1032 H 0.75023 0.53838 0.48461 0.0
H1033 H 0.73931 0.51873 0.45726 0.0
H1034 H 0.76337 0.52464 0.40728 0.0
H1035 H 0.77225 0.55174 0.36465 0.0
H1036 H 0.43215 0.18424 0.4443 0.0
H1037 H 0.45838 0.1969 0.48433 0.0
H1038 H 0.47114 0.246 0.41094 0.0
H1039 H 0.44522 0.23284 0.36966 0.0
H1040 H 0.50481 0.22846 0.42793 0.0
H1041 H 0.46446 0.2413 0.5548 0.0
H1042 H 0.45804 0.21632 0.53976 0.0
H1043 H 0.45089 0.23806 0.51299 0.0
C1044 C 0.4402 0.19797 0.43684 0.0
C1045 C 0.43667 0.20742 0.40357 0.0
C1046 C 0.4551 0.20537 0.46008 0.0
C1047 C 0.46652 0.22267 0.4511 0.0
C1048 C 0.46242 0.23271 0.4186 0.0
H1049 H 0.55925 0.22973 0.61954 0.0
H1050 H 0.53406 0.24421 0.57823 0.0
C1051 C 0.44761 0.22516 0.39503 0.0
C1052 C 0.48441 0.22827 0.47345 0.0
H1053 H 0.49985 0.22836 0.56081 0.0
C1054 C 0.50368 0.22907 0.45698 0.0
C1055 C 0.4831 0.22984 0.51128 0.0
C1056 C 0.46293 0.23158 0.53055 0.0
C1057 C 0.52163 0.22904 0.47747 0.0
C1058 C 0.52024 0.2274 0.51529 0.0
C1059 C 0.50103 0.22901 0.53177 0.0
C1060 C 0.53786 0.22098 0.53763 0.0
C1061 C 0.54185 0.22997 0.4582 0.0
C1062 C 0.54861 0.20329 0.5284 0.0
C1063 C 0.56312 0.19515 0.55165 0.0
C1064 C 0.56688 0.20423 0.58516 0.0
C1065 C 0.55663 0.22232 0.59398 0.0
C1066 C 0.54225 0.23063 0.57039 0.0
H1067 H 0.54076 0.23988 0.43413 0.0
H1068 H 0.55419 0.23579 0.47585 0.0
H1069 H 0.54602 0.21455 0.44871 0.0
H1070 H 0.54507 0.1951 0.50396 0.0
H1071 H 0.57063 0.18115 0.54401 0.0
H1072 H 0.73807 0.06369 0.11042 0.0
H1073 H 0.75202 0.0402 0.06529 0.0
H1074 H 0.69208 0.03362 0.01889 0.0
H1075 H 0.6782 0.05692 0.06311 0.0
H1076 H 0.74052 0.99999 0.05574 0.0
H1077 H 0.72728 0.0424 0.93051 0.0
H1078 H 0.72762 0.05462 0.97398 0.0
H1079 H 0.70467 0.04271 0.95758 0.0
C1080 C 0.72798 0.05746 0.0902 0.0
C1081 C 0.70701 0.06208 0.09043 0.0
C1082 C 0.73596 0.04407 0.0645 0.0
C1083 C 0.72315 0.03547 0.03836 0.0
C1084 C 0.70235 0.04045 0.03822 0.0
H1085 H 0.69471 0.92776 0.94902 0.0
H1086 H 0.70806 0.95443 0.98735 0.0
C1087 C 0.69439 0.05363 0.06384 0.0
C1088 C 0.73056 0.01976 0.01308 0.0
H1089 H 0.72445 0.00534 0.92592 0.0
C1090 C 0.73764 0.0013 0.02715 0.0
C1091 C 0.72741 0.02159 0.97567 0.0
C1092 C 0.72155 0.04151 0.95856 0.0
C1093 C 0.73934 0.984 0.00532 0.0
C1094 C 0.73338 0.98519 0.96884 0.0
C1095 C 0.72864 0.00422 0.95403 0.0
C1096 C 0.72856 0.96683 0.94733 0.0
C1097 C 0.7466 0.96443 0.02199 0.0
C1098 C 0.7356 0.96479 0.91187 0.0
C1099 C 0.72767 0.94963 0.8895 0.0
C1100 C 0.71245 0.93637 0.90217 0.0
C1101 C 0.70635 0.93774 0.93828 0.0
C1102 C 0.7142 0.95288 0.96049 0.0
H1103 H 0.75825 0.96747 0.04301 0.0
H1104 H 0.73355 0.95674 0.03523 0.0
H1105 H 0.75323 0.95402 0.00164 0.0
H1106 H 0.74656 0.97547 0.90105 0.0
H1107 H 0.73276 0.94896 0.86185 0.0
H1108 H 0.93112 0.31689 0.04834 0.0
H1109 H 0.95687 0.30399 0.00764 0.0
H1110 H 0.96887 0.25404 0.07961 0.0
H1111 H 0.94346 0.26746 0.12163 0.0
H1112 H 0.00276 0.27086 0.06306 0.0
H1113 H 0.96226 0.26044 0.93569 0.0
H1114 H 0.95643 0.28542 0.95145 0.0
H1115 H 0.9487 0.2636 0.97753 0.0
C1116 C 0.93888 0.30291 0.05534 0.0
C1117 C 0.93533 0.29332 0.08847 0.0
C1118 C 0.95351 0.29538 0.03169 0.0
C1119 C 0.96462 0.27779 0.0401 0.0
C1120 C 0.96041 0.26756 0.07239 0.0
H1121 H 0.05752 0.27058 0.87176 0.0
H1122 H 0.03187 0.25626 0.91235 0.0
C1123 C 0.94589 0.27526 0.09638 0.0
C1124 C 0.9824 0.27209 0.01753 0.0
H1125 H 0.99795 0.27277 0.93022 0.0
C1126 C 0.00163 0.27065 0.03399 0.0
C1127 C 0.9811 0.27104 0.97963 0.0
C1128 C 0.96093 0.26996 0.96022 0.0
C1129 C 0.0196 0.27053 0.01355 0.0
C1130 C 0.0183 0.27268 0.9758 0.0
C1131 C 0.99907 0.27173 0.95922 0.0
C1132 C 0.03611 0.27895 0.95377 0.0
C1133 C 0.03978 0.26888 0.03283 0.0
C1134 C 0.04727 0.29626 0.9637 0.0
C1135 C 0.06204 0.30431 0.94085 0.0
C1136 C 0.06568 0.29552 0.90705 0.0
C1137 C 0.05502 0.27776 0.89756 0.0
C1138 C 0.04036 0.26955 0.92073 0.0
H1139 H 0.03842 0.25873 0.05653 0.0
H1140 H 0.05198 0.26296 0.01499 0.0
H1141 H 0.04433 0.28409 0.04287 0.0
H1142 H 0.04387 0.30426 0.9884 0.0
H1143 H 0.06986 0.31803 0.94904 0.0
H1144 H 0.31951 0.07028 0.94363 0.0
H1145 H 0.30623 0.04483 0.98446 0.0
H1146 H 0.2516 0.0397 0.92037 0.0
H1147 H 0.26541 0.06465 0.87792 0.0
H1148 H 0.27434 0.04035 0.02634 0.0
H1149 H 0.27064 0.98232 0.91759 0.0
H1150 H 0.28186 0.00693 0.91042 0.0
H1151 H 0.25458 0.00417 0.91224 0.0
C1152 C 0.30457 0.06394 0.93824 0.0
C1153 C 0.29368 0.06923 0.90711 0.0
C1154 C 0.29694 0.04938 0.96178 0.0
C1155 C 0.2781 0.03996 0.95512 0.0
C1156 C 0.26645 0.04628 0.92549 0.0
H1157 H 0.26693 0.94727 0.12598 0.0
H1158 H 0.25333 0.97395 0.08672 0.0
C1159 C 0.27429 0.06064 0.9014 0.0
C1160 C 0.27194 0.02256 0.97807 0.0
H1161 H 0.26736 0.97095 0.97641 0.0
C1162 C 0.27244 0.02518 0.0155 0.0
C1163 C 0.2693 0.0028 0.9638 0.0
C1164 C 0.26917 0.99875 0.92386 0.0
C1165 C 0.27257 0.00849 0.03893 0.0
C1166 C 0.27122 0.98863 0.0245 0.0
C1167 C 0.2685 0.98618 0.98734 0.0
C1168 C 0.27667 0.97044 0.04602 0.0
C1169 C 0.27604 0.01228 0.07847 0.0
C1170 C 0.29343 0.9587 0.03511 0.0
C1171 C 0.30088 0.94323 0.0569 0.0
C1172 C 0.29193 0.93926 0.09048 0.0
C1173 C 0.27435 0.95016 0.1005 0.0
C1174 C 0.26665 0.96552 0.07823 0.0
H1175 H 0.28014 0.02833 0.08415 0.0
H1176 H 0.26188 0.00874 0.09353 0.0
H1177 H 0.28844 0.00241 0.08887 0.0
H1178 H 0.30141 0.96212 0.01034 0.0
H1179 H 0.31433 0.93507 0.04807 0.0
H1180 H 0.94005 0.73111 0.87235 0.0
H1181 H 0.96595 0.74458 0.9135 0.0
H1182 H 0.95931 0.69153 0.98048 0.0
H1183 H 0.93297 0.67854 0.9408 0.0
H1184 H 0.96512 0.72421 0.02042 0.0
H1185 H 0.02289 0.72286 0.91065 0.0
H1186 H 0.00151 0.7395 0.90422 0.0
H1187 H 0.99769 0.71246 0.90486 0.0
C1188 C 0.94393 0.7225 0.89618 0.0
C1189 C 0.93468 0.70361 0.90301 0.0
C1190 C 0.95882 0.73015 0.91952 0.0
C1191 C 0.96497 0.71881 0.94957 0.0
C1192 C 0.9549 0.70054 0.95741 0.0
H1193 H 0.07031 0.68312 0.04622 0.0
H1194 H 0.04325 0.69489 0.00699 0.0
C1195 C 0.93984 0.69308 0.93455 0.0
C1196 C 0.98281 0.72474 0.97178 0.0
H1197 H 0.03478 0.72766 0.96896 0.0
C1198 C 0.98036 0.72534 0.00923 0.0
C1199 C 0.00266 0.7263 0.95699 0.0
C1200 C 0.00648 0.72512 0.91704 0.0
C1201 C 0.99725 0.72547 0.03239 0.0
C1202 C 0.01715 0.7259 0.01758 0.0
C1203 C 0.01951 0.72729 0.98018 0.0
C1204 C 0.03542 0.72104 0.03949 0.0
C1205 C 0.99356 0.72335 0.07226 0.0
C1206 C 0.04064 0.73223 0.07027 0.0
C1207 C 0.05598 0.72524 0.09337 0.0
C1208 C 0.06658 0.70719 0.08559 0.0
C1209 C 0.06237 0.69698 0.05328 0.0
C1210 C 0.0469 0.70376 0.03065 0.0
H1211 H 0.9774 0.71968 0.07851 0.0
H1212 H 0.00336 0.71124 0.08378 0.0
H1213 H 0.99738 0.73786 0.08583 0.0
H1214 H 0.03241 0.74595 0.07708 0.0
H1215 H 0.05907 0.73362 0.1178 0.0
H1216 H 0.18868 0.40496 0.19744 0.0
H1217 H 0.18399 0.39453 0.1349 0.0
H1218 H 0.18937 0.33171 0.16606 0.0
H1219 H 0.19368 0.34191 0.22867 0.0
H1220 H 0.2067 0.37023 0.08577 0.0
H1221 H 0.13199 0.33577 0.12238 0.0
H1222 H 0.14582 0.35224 0.15244 0.0
H1223 H 0.15363 0.3263 0.14675 0.0
C1224 C 0.18915 0.38894 0.19093 0.0
C1225 C 0.19123 0.37424 0.21805 0.0
C1226 C 0.18652 0.38302 0.1552 0.0
C1227 C 0.18601 0.36236 0.14608 0.0
C1228 C 0.18936 0.34771 0.17273 0.0
H1229 H 0.16748 0.32091 0.92275 0.0
H1230 H 0.18277 0.32489 0.98256 0.0
C1231 C 0.19182 0.35359 0.20846 0.0
C1232 C 0.18023 0.35618 0.10933 0.0
H1233 H 0.14178 0.33392 0.06182 0.0
C1234 C 0.19262 0.36211 0.08043 0.0
C1235 C 0.16175 0.34574 0.10265 0.0
C1236 C 0.1474 0.33976 0.13259 0.0
C1237 C 0.18676 0.35823 0.04481 0.0
C1238 C 0.16817 0.34802 0.03822 0.0
C1239 C 0.1561 0.34161 0.06715 0.0
C1240 C 0.15973 0.34578 0.00168 0.0
C1241 C 0.19996 0.36582 0.01447 0.0
C1242 C 0.14167 0.35604 0.99299 0.0
C1243 C 0.1329 0.35374 0.95922 0.0
C1244 C 0.14199 0.3411 0.93334 0.0
C1245 C 0.16017 0.33083 0.94204 0.0
C1246 C 0.16897 0.33315 0.97607 0.0
H1247 H 0.21237 0.37594 0.02411 0.0
H1248 H 0.207 0.35269 0.0005 0.0
H1249 H 0.19059 0.37422 0.99454 0.0
H1250 H 0.13432 0.36582 0.01249 0.0
H1251 H 0.1189 0.36187 0.95353 0.0
H1252 H 0.35326 0.88779 0.03694 0.0
H1253 H 0.35651 0.8726 0.97763 0.0
H1254 H 0.3214 0.82084 0.0124 0.0
H1255 H 0.3181 0.83592 0.07243 0.0
H1256 H 0.35867 0.81152 0.97394 0.0
H1257 H 0.31031 0.86737 0.90237 0.0
H1258 H 0.32933 0.87904 0.93027 0.0
H1259 H 0.30947 0.86408 0.95052 0.0
C1260 C 0.34617 0.87319 0.03212 0.0
C1261 C 0.3354 0.86307 0.05944 0.0
C1262 C 0.34796 0.86459 -0.00188 0.0
C1263 C 0.33896 0.84577 0.99063 0.0
C1264 C 0.32834 0.83546 0.01776 0.0
H1265 H 0.33959 0.81168 0.76456 0.0
H1266 H 0.32818 0.8149 0.8267 0.0
C1267 C 0.32645 0.84411 0.05193 0.0
C1268 C 0.3412 0.83693 0.95445 0.0
H1269 H 0.33356 0.84809 0.86618 0.0
C1270 C 0.3529 0.81925 0.95031 0.0
C1271 C 0.33337 0.8469 0.92384 0.0
C1272 C 0.31974 0.86529 0.9269 0.0
C1273 C 0.358 0.81196 0.91604 0.0
C1274 C 0.35146 0.82287 0.88541 0.0
C1275 C 0.33875 0.83984 0.88968 0.0
C1276 C 0.35858 0.8179 0.84874 0.0
C1277 C 0.37054 0.79284 0.91302 0.0
C1278 C 0.37949 0.81828 0.84058 0.0
C1279 C 0.38609 0.81633 0.80507 0.0
C1280 C 0.37185 0.8143 0.77709 0.0
C1281 C 0.35095 0.81334 0.78549 0.0
C1282 C 0.34439 0.81512 0.82098 0.0
H1283 H 0.36836 0.7829 0.93683 0.0
H1284 H 0.36655 0.78413 0.88847 0.0
H1285 H 0.38694 0.79694 0.91167 0.0
H1286 H 0.39068 0.82095 0.86145 0.0
H1287 H 0.40228 0.81726 0.79944 0.0
H1288 H 0.8318 0.67816 0.91503 0.0
H1289 H 0.81699 0.67469 0.97529 0.0
H1290 H 0.86735 0.63658 0.00691 0.0
H1291 H 0.88227 0.63993 0.94733 0.0
H1292 H 0.80656 0.63714 0.01464 0.0
H1293 H 0.86583 0.68382 0.08166 0.0
H1294 H 0.86129 0.68474 0.03383 0.0
H1295 H 0.87596 0.66437 0.05293 0.0
C1296 C 0.83969 0.66901 0.93482 0.0
C1297 C 0.85826 0.65938 0.92641 0.0
C1298 C 0.83119 0.66703 0.96913 0.0
C1299 C 0.84125 0.65559 0.99548 0.0
C1300 C 0.85954 0.6457 0.98698 0.0
H1301 H 0.81292 0.59737 0.19247 0.0
H1302 H 0.81646 0.60716 0.1295 0.0
C1303 C 0.86799 0.64759 0.95284 0.0
C1304 C 0.83295 0.6539 0.03219 0.0
H1305 H 0.84562 0.66258 0.11957 0.0
C1306 C 0.81487 0.64295 0.03766 0.0
C1307 C 0.84371 0.66177 0.06196 0.0
C1308 C 0.86268 0.6745 0.0574 0.0
C1309 C 0.80782 0.63874 0.07248 0.0
C1310 C 0.81936 0.64544 0.10232 0.0
C1311 C 0.83686 0.6573 0.09667 0.0
C1312 C 0.81443 0.63947 0.13963 0.0
C1313 C 0.78823 0.627 0.07698 0.0
C1314 C 0.81222 0.65438 0.16625 0.0
C1315 C 0.81049 0.64885 0.20229 0.0
C1316 C 0.81094 0.62828 0.21239 0.0
C1317 C 0.81239 0.61334 0.18555 0.0
C1318 C 0.81426 0.6189 0.14949 0.0
H1319 H 0.77813 0.62881 0.05322 0.0
H1320 H 0.79183 0.61061 0.07974 0.0
H1321 H 0.77981 0.63194 0.10134 0.0
H1322 H 0.81243 0.67033 0.15921 0.0
H1323 H 0.80931 0.66074 0.22228 0.0
H1324 H 0.66098 0.16572 0.07981 0.0
H1325 H 0.65277 0.18027 0.02098 0.0
H1326 H 0.64603 0.12007 0.97708 0.0
H1327 H 0.6542 0.10536 0.03547 0.0
H1328 H 0.67388 0.1724 0.95351 0.0
H1329 H 0.59216 0.1505 0.95024 0.0
H1330 H 0.60675 0.15172 0.99137 0.0
H1331 H 0.60913 0.13015 0.9621 0.0
C1332 C 0.65769 0.15557 0.05766 0.0
C1333 C 0.65813 0.13438 0.06238 0.0
C1334 C 0.65301 0.16392 0.02415 0.0
C1335 C 0.64849 0.15121 0.99503 0.0
C1336 C 0.64913 0.1301 -0.00049 0.0
H1337 H 0.65205 0.15567 0.7698 0.0
H1338 H 0.65777 0.15271 0.83427 0.0
C1339 C 0.65391 0.12174 0.03285 0.0
C1340 C 0.64374 0.15982 0.95942 0.0
H1341 H 0.60731 0.15971 0.89403 0.0
C1342 C 0.65923 0.16995 0.94064 0.0
C1343 C 0.62453 0.15682 0.94305 0.0
C1344 C 0.60709 0.14687 0.96281 0.0
C1345 C 0.65637 0.17609 0.90494 0.0
C1346 C 0.63762 0.17182 0.88777 0.0
C1347 C 0.62172 0.1628 0.90727 0.0
C1348 C 0.63484 0.17486 0.84881 0.0
C1349 C 0.67357 0.18665 0.88557 0.0
C1350 C 0.61983 0.18811 0.83576 0.0
C1351 C 0.6165 0.18987 0.79879 0.0
C1352 C 0.62794 0.17816 0.77444 0.0
C1353 C 0.64299 0.16493 0.78778 0.0
C1354 C 0.64639 0.16332 0.82461 0.0
H1355 H 0.68439 0.19384 0.90471 0.0
H1356 H 0.68217 0.17535 0.86946 0.0
H1357 H 0.66764 0.19846 0.86701 0.0
H1358 H 0.61064 0.19697 0.85418 0.0
H1359 H 0.60472 0.2001 0.78937 0.0
H1360 H 0.19106 0.66256 0.7643 0.0
H1361 H 0.18751 0.67261 0.82709 0.0
H1362 H 0.18458 0.60963 0.85836 0.0
H1363 H 0.18855 0.59939 0.79567 0.0
H1364 H 0.1545 0.66464 0.86714 0.0
H1365 H 0.22272 0.63255 0.93383 0.0
H1366 H 0.22088 0.63526 0.88565 0.0
H1367 H 0.20923 0.61393 0.90787 0.0
C1368 C 0.19 0.65081 0.78458 0.0
C1369 C 0.19003 0.63016 0.77499 0.0
C1370 C 0.18803 0.6566 0.82045 0.0
C1371 C 0.18605 0.64188 0.84743 0.0
C1372 C 0.18661 0.62124 0.83809 0.0
H1373 H 0.11886 0.64358 0.04073 0.0
H1374 H 0.13343 0.63986 0.98095 0.0
C1375 C 0.18872 0.61541 0.80219 0.0
C1376 C 0.18108 0.64809 0.88462 0.0
H1377 H 0.19434 0.64092 0.9724 0.0
C1378 C 0.16342 0.65973 0.8901 0.0
C1379 C 0.19284 0.64187 0.91454 0.0
C1380 C 0.21259 0.63039 0.9102 0.0
C1381 C 0.15664 0.66447 0.92474 0.0
C1382 C 0.16763 0.6571 0.95465 0.0
C1383 C 0.18585 0.64635 0.94931 0.0
C1384 C 0.15949 0.65911 0.99143 0.0
C1385 C 0.13752 0.677 0.9291 0.0
C1386 C 0.16964 0.67081 0.01733 0.0
C1387 C 0.16134 0.67299 0.05176 0.0
C1388 C 0.14289 0.66331 0.06075 0.0
C1389 C 0.13305 0.6513 0.03477 0.0
C1390 C 0.1413 0.64919 0.00051 0.0
H1391 H 0.13419 0.68605 0.9046 0.0
H1392 H 0.12438 0.66673 0.93395 0.0
H1393 H 0.13882 0.68747 0.95237 0.0
H1394 H 0.18377 0.67848 0.01073 0.0
H1395 H 0.16931 0.68232 0.0712 0.0
H1396 H 0.65947 0.80932 0.22926 0.0
H1397 H 0.66981 0.81454 0.16694 0.0
H1398 H 0.60673 0.82062 0.13579 0.0
H1399 H 0.59615 0.81503 0.19807 0.0
H1400 H 0.63114 0.7986 0.08586 0.0
H1401 H 0.66599 0.87226 0.12563 0.0
H1402 H 0.6754 0.85048 0.14945 0.0
H1403 H 0.64928 0.85818 0.15496 0.0
C1404 C 0.64776 0.81152 0.20911 0.0
C1405 C 0.62699 0.81204 0.21863 0.0
C1406 C 0.65371 0.81452 0.17355 0.0
C1407 C 0.63904 0.81833 0.14703 0.0
C1408 C 0.61826 0.81775 0.15601 0.0
H1409 H 0.64453 0.88651 0.95462 0.0
H1410 H 0.63911 0.87165 0.01365 0.0
C1411 C 0.61226 0.81459 0.19158 0.0
C1412 C 0.64536 0.82452 0.11059 0.0
H1413 H 0.66888 0.86281 0.06492 0.0
C1414 C 0.63952 0.81254 0.08117 0.0
C1415 C 0.65611 0.84285 0.10476 0.0
C1416 C 0.66194 0.85681 0.13528 0.0
C1417 C 0.64393 0.81859 0.04586 0.0
C1418 C 0.65465 0.83693 0.04011 0.0
C1419 C 0.66081 0.84868 0.06957 0.0
C1420 C 0.65798 0.84529 0.0038 0.0
C1421 C 0.63641 0.80579 0.01496 0.0
C1422 C 0.67054 0.8354 0.9788 0.0
C1423 C 0.67367 0.84386 0.94476 0.0
C1424 C 0.66433 0.86236 0.93543 0.0
C1425 C 0.65192 0.87223 0.96081 0.0
C1426 C 0.6488 0.86377 0.99461 0.0
H1427 H 0.62533 0.79406 0.02383 0.0
H1428 H 0.62906 0.81545 0.99423 0.0
H1429 H 0.64957 0.79798 0.00227 0.0
H1430 H 0.67804 0.82128 0.9857 0.0
H1431 H 0.6834 0.83595 0.92587 0.0
H1432 H 0.78924 0.38516 0.7913 0.0
H1433 H 0.79134 0.37782 0.85574 0.0
H1434 H 0.84907 0.3478 0.83931 0.0
H1435 H 0.84699 0.35467 0.77515 0.0
H1436 H 0.82276 0.3263 0.88405 0.0
H1437 H 0.82962 0.4073 0.92531 0.0
H1438 H 0.80751 0.40073 0.89921 0.0
H1439 H 0.83241 0.3993 0.87923 0.0
C1440 C 0.80237 0.37697 0.80143 0.0
C1441 C 0.81798 0.37056 0.77808 0.0
C1442 C 0.80356 0.37285 0.83824 0.0
C1443 C 0.82045 0.36244 0.85227 0.0
C1444 C 0.83588 0.35581 0.82897 0.0
H1445 H 0.88506 0.35806 0.04531 0.0
H1446 H 0.86933 0.36364 0.98699 0.0
C1447 C 0.83468 0.35982 0.79229 0.0
C1448 C 0.82262 0.35872 0.89126 0.0
H1449 H 0.83246 0.38272 0.97059 0.0
C1450 C 0.82459 0.3386 0.90317 0.0
C1451 C 0.82506 0.37485 0.91596 0.0
C1452 C 0.8237 0.39678 0.90442 0.0
C1453 C 0.8299 0.33416 0.93882 0.0
C1454 C 0.83296 0.35032 0.96323 0.0
C1455 C 0.83001 0.3704 0.95174 0.0
C1456 C 0.84178 0.34694 -0.0007 0.0
C1457 C 0.83338 0.31234 0.94953 0.0
C1458 C 0.83144 0.33571 0.02567 0.0
C1459 C 0.84048 0.33236 0.05923 0.0
C1460 C 0.85992 0.34034 0.06691 0.0
C1461 C 0.87006 0.35173 0.04042 0.0
C1462 C 0.86108 0.35499 0.00703 0.0
H1463 H 0.83361 0.302 0.92596 0.0
H1464 H 0.84804 0.31074 0.96422 0.0
H1465 H 0.82094 0.30738 0.96773 0.0
H1466 H 0.8164 0.3296 0.02033 0.0
H1467 H 0.83224 0.32359 0.07911 0.0
H1468 H 0.3685 0.12738 0.93842 0.0
H1469 H 0.37332 0.14142 -0.00168 0.0
H1470 H 0.31924 0.17801 0.98561 0.0
H1471 H 0.31442 0.16423 0.92484 0.0
H1472 H 0.35319 0.19812 0.02103 0.0
H1473 H 0.33493 0.12294 0.0798 0.0
H1474 H 0.35495 0.12196 0.04696 0.0
H1475 H 0.32959 0.12917 0.03355 0.0
C1476 C 0.35766 0.13852 0.94816 0.0
C1477 C 0.34089 0.1445 0.92713 0.0
C1478 C 0.36047 0.14652 0.98239 0.0
C1479 C 0.34643 0.16042 -0.00351 0.0
C1480 C 0.33017 0.1672 0.9751 0.0
H1481 H 0.34026 0.17396 0.22686 0.0
H1482 H 0.33113 0.17125 0.1636 0.0
C1483 C 0.32743 0.1593 0.94052 0.0
C1484 C 0.34821 0.16671 0.03441 0.0
H1485 H 0.35001 0.14717 0.11899 0.0
C1486 C 0.35229 0.1871 0.04261 0.0
C1487 C 0.34668 0.1523 0.06238 0.0
C1488 C 0.3411 0.13041 0.05534 0.0
C1489 C 0.3556 0.19333 0.07825 0.0
C1490 C 0.35517 0.17866 0.10601 0.0
C1491 C 0.35048 0.15841 0.0977 0.0
C1492 C 0.35965 0.18359 0.144 0.0
C1493 C 0.35938 0.2155 0.08581 0.0
C1494 C 0.37857 0.19187 0.15407 0.0
C1495 C 0.38373 0.19371 0.19041 0.0
C1496 C 0.37021 0.18683 0.21703 0.0
C1497 C 0.35107 0.17916 0.20686 0.0
C1498 C 0.3458 0.17768 0.17075 0.0
H1499 H 0.35299 0.22528 0.06425 0.0
H1500 H 0.35259 0.22013 0.11188 0.0
H1501 H 0.37607 0.21826 0.08701 0.0
H1502 H 0.3897 0.19607 0.13391 0.0
H1503 H 0.39862 0.19958 0.19761 0.0
H1504 H 0.66414 0.84903 0.41265 0.0
H1505 H 0.67905 0.85458 0.4722 0.0
H1506 H 0.62218 0.8372 0.52159 0.0
H1507 H 0.60709 0.83166 0.46239 0.0
H1508 H 0.66195 0.88215 0.52772 0.0
H1509 H 0.6677 0.80167 0.57089 0.0
H1510 H 0.666 0.80911 0.52425 0.0
H1511 H 0.64352 0.80879 0.55185 0.0
C1512 C 0.65483 0.8463 0.43619 0.0
C1513 C 0.63441 0.83994 0.43283 0.0
C1514 C 0.66338 0.84949 0.4701 0.0
C1515 C 0.65174 0.84608 0.50107 0.0
C1516 C 0.63144 0.83965 0.49787 0.0
H1517 H 0.65115 0.85694 0.72614 0.0
H1518 H 0.64667 0.84991 0.66246 0.0
C1519 C 0.62282 0.83661 0.46405 0.0
C1520 C 0.6604 0.84995 0.53695 0.0
H1521 H 0.6708 0.82678 0.6167 0.0
C1522 C 0.66424 0.87008 0.54713 0.0
C1523 C 0.66335 0.83409 0.56189 0.0
C1524 C 0.66011 0.81216 0.5517 0.0
C1525 C 0.66984 0.87491 0.58249 0.0
C1526 C 0.67202 0.85908 0.60787 0.0
C1527 C 0.66907 0.83887 0.59714 0.0
C1528 C 0.67543 0.86323 0.64641 0.0
C1529 C 0.67227 0.89693 0.59285 0.0
C1530 C 0.69321 0.87293 0.65849 0.0
C1531 C 0.69581 0.87711 0.69505 0.0
C1532 C 0.68074 0.87145 0.72002 0.0
C1533 C 0.66311 0.86146 0.70771 0.0
C1534 C 0.66051 0.8574 0.6713 0.0
H1535 H 0.66621 0.90733 0.57191 0.0
H1536 H 0.66431 0.90014 0.61856 0.0
H1537 H 0.6887 0.90036 0.59661 0.0
H1538 H 0.70506 0.87724 0.6397 0.0
H1539 H 0.7096 0.88475 0.7037 0.0
H1540 H 0.81938 0.32932 0.57617 0.0
H1541 H 0.82632 0.31234 0.51867 0.0
H1542 H 0.86512 0.36212 0.4872 0.0
H1543 H 0.85851 0.379 0.54401 0.0
H1544 H 0.81882 0.32663 0.44922 0.0
H1545 H 0.90117 0.31267 0.46831 0.0
H1546 H 0.88426 0.31855 0.50521 0.0
H1547 H 0.89474 0.33857 0.47791 0.0
C1548 C 0.82946 0.33657 0.55703 0.0
C1549 C 0.83852 0.35544 0.56482 0.0
C1550 C 0.83344 0.32684 0.52429 0.0
C1551 C 0.84664 0.33576 0.49915 0.0
C1552 C 0.85537 0.3547 0.50668 0.0
H1553 H 0.85705 0.34493 0.27792 0.0
H1554 H 0.84821 0.34469 0.34135 0.0
C1555 C 0.85142 0.36441 0.53914 0.0
C1556 C 0.8506 0.32618 0.46392 0.0
H1557 H 0.88964 0.31532 0.40648 0.0
C1558 C 0.83425 0.32367 0.44006 0.0
C1559 C 0.87068 0.32189 0.45224 0.0
C1560 C 0.88868 0.32285 0.47743 0.0
C1561 C 0.83764 0.31868 0.40392 0.0
C1562 C 0.85792 0.31656 0.39139 0.0
C1563 C 0.87411 0.3173 0.41597 0.0
C1564 C 0.86276 0.31589 0.35258 0.0
C1565 C 0.81952 0.3164 0.37927 0.0
C1566 C 0.87452 0.30009 0.33804 0.0
C1567 C 0.87983 0.30026 0.30163 0.0
C1568 C 0.87356 0.31633 0.27928 0.0
C1569 C 0.86199 0.33221 0.29419 0.0
C1570 C 0.85674 0.33202 0.33044 0.0
H1571 H 0.80582 0.31127 0.39431 0.0
H1572 H 0.8159 0.33135 0.36708 0.0
H1573 H 0.82268 0.30541 0.35735 0.0
H1574 H 0.87957 0.28764 0.35486 0.0
H1575 H 0.8888 0.28782 0.29102 0.0
H1576 H 0.28718 0.11603 0.70334 0.0
H1577 H 0.28863 0.12362 0.63881 0.0
H1578 H 0.34802 0.15068 0.65292 0.0
H1579 H 0.34664 0.14354 0.7169 0.0
H1580 H 0.32148 0.17414 0.61134 0.0
H1581 H 0.32464 0.09367 0.56533 0.0
H1582 H 0.30347 0.10091 0.59329 0.0
H1583 H 0.3288 0.10069 0.61161 0.0
C1584 C 0.30054 0.12358 0.69262 0.0
C1585 C 0.31678 0.12918 0.71526 0.0
C1586 C 0.30135 0.12785 0.6558 0.0
C1587 C 0.31848 0.13761 0.64117 0.0
C1588 C 0.33462 0.14323 0.66375 0.0
H1589 H 0.38375 0.14342 0.44971 0.0
H1590 H 0.36736 0.13707 0.50733 0.0
C1591 C 0.3338 0.13908 0.70035 0.0
C1592 C 0.32018 0.14189 0.60233 0.0
H1593 H 0.3295 0.11894 0.52186 0.0
C1594 C 0.32287 0.16213 0.59154 0.0
C1595 C 0.32205 0.12612 0.57679 0.0
C1596 C 0.31973 0.10409 0.58715 0.0
C1597 C 0.32856 0.16699 0.55628 0.0
C1598 C 0.33123 0.15115 0.53109 0.0
C1599 C 0.32739 0.13101 0.54135 0.0
C1600 C 0.34044 0.15487 0.49548 0.0
C1601 C 0.33296 0.18885 0.5469 0.0
C1602 C 0.33068 0.16699 0.4697 0.0
C1603 C 0.34011 0.1708 0.43667 0.0
C1604 C 0.35935 0.16239 0.42889 0.0
C1605 C 0.36893 0.15012 0.45476 0.0
C1606 C 0.35956 0.1464 0.48769 0.0
H1607 H 0.33342 0.19874 0.57106 0.0
H1608 H 0.34778 0.19015 0.53261 0.0
H1609 H 0.32085 0.19462 0.52876 0.0
H1610 H 0.3158 0.17345 0.47509 0.0
H1611 H 0.33228 0.18023 0.41722 0.0
H1612 H 0.16129 0.6691 0.57986 0.0
H1613 H 0.15317 0.68417 0.52145 0.0
H1614 H 0.14938 0.62443 0.47461 0.0
H1615 H 0.15746 0.60919 0.53266 0.0
H1616 H 0.17499 0.67845 0.45423 0.0
H1617 H 0.09441 0.65285 0.44797 0.0
H1618 H 0.10868 0.65395 0.48946 0.0
H1619 H 0.11227 0.6331 0.45896 0.0
C1620 C 0.1587 0.65916 0.55715 0.0
C1621 C 0.15989 0.63793 0.56097 0.0
C1622 C 0.15407 0.66781 0.52386 0.0
C1623 C 0.15036 0.65537 0.49403 0.0
C1624 C 0.15184 0.63423 0.49758 0.0
H1625 H 0.15486 0.66337 0.26971 0.0
H1626 H 0.16055 0.66023 0.33411 0.0
C1627 C 0.15657 0.62557 0.53073 0.0
C1628 C 0.14545 0.66435 0.45877 0.0
H1629 H 0.1094 0.66393 0.39273 0.0
C1630 C 0.16054 0.67558 0.44094 0.0
C1631 C 0.12648 0.66082 0.44185 0.0
C1632 C 0.10943 0.64968 0.46063 0.0
C1633 C 0.15757 0.68234 0.40561 0.0
C1634 C 0.13912 0.67758 0.38783 0.0
C1635 C 0.12357 0.66743 0.40644 0.0
C1636 C 0.13648 0.68108 0.34895 0.0
C1637 C 0.17436 0.69405 0.38724 0.0
C1638 C 0.1209 0.69373 0.33604 0.0
C1639 C 0.11758 0.6956 0.29906 0.0
C1640 C 0.12961 0.68457 0.27459 0.0
C1641 C 0.14531 0.67208 0.28778 0.0
C1642 C 0.1487 0.67037 0.32459 0.0
H1643 H 0.18467 0.70142 0.40703 0.0
H1644 H 0.18363 0.68346 0.37077 0.0
H1645 H 0.16799 0.70587 0.36917 0.0
H1646 H 0.11119 0.70193 0.35458 0.0
H1647 H 0.1053 0.70525 0.28971 0.0
H1648 H 0.6208 0.13885 0.53993 0.0
H1649 H 0.63631 0.13508 0.48105 0.0
H1650 H 0.68426 0.17656 0.51109 0.0
H1651 H 0.66886 0.18038 0.5709 0.0
H1652 H 0.64348 0.16772 0.43212 0.0
H1653 H 0.7141 0.12539 0.46875 0.0
H1654 H 0.69223 0.12658 0.4982 0.0
H1655 H 0.70838 0.14835 0.49306 0.0
C1656 C 0.63471 0.14714 0.53431 0.0
C1657 C 0.64361 0.15991 0.56021 0.0
C1658 C 0.64354 0.14495 0.50057 0.0
C1659 C 0.66146 0.15542 0.49191 0.0
C1660 C 0.67055 0.16815 0.51756 0.0
H1661 H 0.69426 0.15922 0.26439 0.0
H1662 H 0.69062 0.16945 0.32711 0.0
C1663 C 0.66168 0.17038 0.55157 0.0
C1664 C 0.66984 0.15336 0.45531 0.0
H1665 H 0.70791 0.13079 0.40716 0.0
C1666 C 0.65771 0.15992 0.42656 0.0
C1667 C 0.6883 0.14299 0.44844 0.0
C1668 C 0.70155 0.13527 0.47861 0.0
C1669 C 0.66316 0.15575 0.39097 0.0
C1670 C 0.68148 0.1451 0.384 0.0
C1671 C 0.69396 0.13905 0.41272 0.0
C1672 C 0.68697 0.13885 0.34715 0.0
C1673 C 0.64871 0.16188 0.36127 0.0
C1674 C 0.68711 0.11819 0.338 0.0
C1675 C 0.68936 0.11224 0.3022 0.0
C1676 C 0.69142 0.12691 0.27503 0.0
C1677 C 0.6924 0.14755 0.28463 0.0
C1678 C 0.69033 0.15345 0.32043 0.0
H1679 H 0.6334 0.16606 0.37172 0.0
H1680 H 0.65502 0.17525 0.34695 0.0
H1681 H 0.64687 0.14939 0.34149 0.0
H1682 H 0.68457 0.1067 0.35835 0.0
H1683 H 0.6886 0.09623 0.29567 0.0
H1684 H 0.1424 0.35232 0.723 0.0
H1685 H 0.1473 0.35635 0.65856 0.0
H1686 H 0.11706 0.29926 0.63949 0.0
H1687 H 0.1119 0.29498 0.70445 0.0
H1688 H 0.16145 0.31194 0.60326 0.0
H1689 H 0.0943 0.36264 0.58496 0.0
H1690 H 0.10959 0.36631 0.62464 0.0
H1691 H 0.09527 0.34331 0.61939 0.0
C1692 C 0.13685 0.3405 0.70529 0.0
C1693 C 0.12676 0.3233 0.7189 0.0
C1694 C 0.13967 0.34287 0.66848 0.0
C1695 C 0.13249 0.32812 0.64458 0.0
C1696 C 0.12267 0.31076 0.65779 0.0
H1697 H 0.15572 0.33634 0.41216 0.0
H1698 H 0.14696 0.32219 0.47096 0.0
C1699 C 0.11973 0.30839 0.69479 0.0
C1700 C 0.13514 0.33139 0.60578 0.0
H1701 H 0.1185 0.3617 0.53769 0.0
C1702 C 0.15189 0.32247 0.58851 0.0
C1703 C 0.12262 0.34523 0.58709 0.0
C1704 C 0.10433 0.3549 0.60475 0.0
C1705 C 0.15709 0.32792 0.55323 0.0
C1706 C 0.14501 0.34242 0.53498 0.0
C1707 C 0.12774 0.35062 0.55186 0.0
C1708 C 0.15084 0.35054 0.49948 0.0
C1709 C 0.17603 0.319 0.53645 0.0
C1710 C 0.15574 0.37117 0.49615 0.0
C1711 C 0.16062 0.37933 0.4627 0.0
C1712 C 0.16063 0.367 0.43189 0.0
C1713 C 0.15592 0.34624 0.43539 0.0
C1714 C 0.15099 0.33809 0.46894 0.0
H1715 H 0.18559 0.31082 0.5564 0.0
H1716 H 0.17155 0.30809 0.51517 0.0
H1717 H 0.18538 0.33109 0.52376 0.0
H1718 H 0.15571 0.38099 0.5195 0.0
H1719 H 0.16423 0.39535 0.46101 0.0
H1720 H 0.33775 0.85178 0.58183 0.0
H1721 H 0.32354 0.85781 0.52197 0.0
H1722 H 0.38116 0.84147 0.47419 0.0
H1723 H 0.39559 0.83546 0.53383 0.0
H1724 H 0.34119 0.88609 0.46755 0.0
H1725 H 0.33614 0.80576 0.42293 0.0
H1726 H 0.33724 0.81296 0.46974 0.0
H1727 H 0.36002 0.81303 0.44295 0.0
C1728 C 0.34739 0.84938 0.55859 0.0
C1729 C 0.36782 0.84315 0.56256 0.0
C1730 C 0.33924 0.85285 0.52449 0.0
C1731 C 0.35128 0.84989 0.49387 0.0
C1732 C 0.37161 0.8436 0.49764 0.0
H1733 H 0.35146 0.861 0.26866 0.0
H1734 H 0.35627 0.85425 0.3323 0.0
C1735 C 0.37983 0.84028 0.5317 0.0
C1736 C 0.34291 0.85394 0.45784 0.0
H1737 H 0.33248 0.83107 0.37783 0.0
C1738 C 0.33897 0.8741 0.44796 0.0
C1739 C 0.34002 0.83818 0.43267 0.0
C1740 C 0.34339 0.81622 0.44255 0.0
C1741 C 0.33328 0.87906 0.4127 0.0
C1742 C 0.33109 0.86333 0.38711 0.0
C1743 C 0.33419 0.84308 0.39754 0.0
C1744 C 0.32757 0.8676 0.34864 0.0
C1745 C 0.33071 0.90111 0.40267 0.0
C1746 C 0.30974 0.87729 0.3367 0.0
C1747 C 0.30695 0.88132 0.30011 0.0
C1748 C 0.32188 0.87549 0.27499 0.0
C1749 C 0.33959 0.86562 0.28719 0.0
C1750 C 0.34239 0.86172 0.3236 0.0
H1751 H 0.33681 0.91145 0.42367 0.0
H1752 H 0.33855 0.90446 0.3769 0.0
H1753 H 0.31425 0.90447 0.39917 0.0
H1754 H 0.29797 0.88164 0.35561 0.0
H1755 H 0.29311 0.88888 0.29152 0.0
H1756 H 0.85039 0.65699 0.71603 0.0
H1757 H 0.8453 0.65457 0.65137 0.0
H1758 H 0.88955 0.70204 0.63439 0.0
H1759 H 0.89488 0.70462 0.69947 0.0
H1760 H 0.83399 0.68663 0.59977 0.0
H1761 H 0.91006 0.65111 0.57597 0.0
H1762 H 0.89855 0.65186 0.62001 0.0
H1763 H 0.90909 0.67453 0.60087 0.0
C1764 C 0.859 0.66704 0.69869 0.0
C1765 C 0.87313 0.68094 0.71292 0.0
C1766 C 0.85599 0.66567 0.66174 0.0
C1767 C 0.86712 0.67805 0.63829 0.0
C1768 C 0.88092 0.69229 0.65222 0.0
H1769 H 0.8429 0.66892 0.40574 0.0
H1770 H 0.85043 0.68402 0.46445 0.0
C1771 C 0.8839 0.69375 0.68934 0.0
C1772 C 0.86473 0.67515 0.59925 0.0
H1773 H 0.88744 0.65254 0.52718 0.0
C1774 C 0.84577 0.67954 0.5836 0.0
C1775 C 0.88015 0.66575 0.57858 0.0
C1776 C 0.90062 0.66039 0.59454 0.0
C1777 C 0.84154 0.67405 0.54797 0.0
C1778 C 0.85671 0.664 0.52774 0.0
C1779 C 0.87593 0.66033 0.54294 0.0
C1780 C 0.85222 0.65524 0.49218 0.0
C1781 C 0.82058 0.67802 0.53275 0.0
C1782 C 0.85088 0.63411 0.48858 0.0
C1783 C 0.84656 0.62544 0.4553 0.0
C1784 C 0.84367 0.63778 0.4249 0.0
C1785 C 0.84506 0.659 0.42863 0.0
C1786 C 0.84931 0.66767 0.46208 0.0
H1787 H 0.80989 0.68412 0.55324 0.0
H1788 H 0.82174 0.68917 0.51051 0.0
H1789 H 0.81408 0.6638 0.52151 0.0
H1790 H 0.85306 0.62432 0.51165 0.0
H1791 H 0.84559 0.60906 0.45342 0.0
H1792 H 0.32838 0.22116 0.34481 0.0
H1793 H 0.30821 0.25192 0.35319 0.0
H1794 H 0.36227 0.28849 0.34051 0.0
H1795 H 0.3828 0.2576 0.33224 0.0
H1796 H 0.31658 0.28772 0.40647 0.0
H1797 H 0.31746 0.3054 0.25992 0.0
H1798 H 0.32153 0.27986 0.27603 0.0
H1799 H 0.34087 0.29873 0.28245 0.0
C1800 C 0.33607 0.23571 0.344 0.0
C1801 C 0.35718 0.23694 0.33752 0.0
C1802 C 0.32452 0.25326 0.34897 0.0
C1803 C 0.33377 0.27239 0.3473 0.0
C1804 C 0.35491 0.27379 0.34181 0.0
H1805 H 0.25771 0.38064 0.31957 0.0
H1806 H 0.28834 0.35985 0.32709 0.0
C1807 C 0.36658 0.25616 0.33713 0.0
C1808 C 0.32081 0.2907 0.3494 0.0
H1809 H 0.29514 0.32417 0.29616 0.0
C1810 C 0.31212 0.29598 0.38252 0.0
C1811 C 0.31519 0.30145 0.31812 0.0
C1812 C 0.32413 0.29618 0.28196 0.0
C1813 C 0.29732 0.31133 0.38496 0.0
C1814 C 0.29065 0.32118 0.35326 0.0
C1815 C 0.30018 0.31658 0.32044 0.0
C1816 C 0.27265 0.33486 0.35278 0.0
C1817 C 0.28882 0.31664 0.42142 0.0
C1818 C 0.25365 0.32781 0.36495 0.0
C1819 C 0.23615 0.33968 0.3609 0.0
C1820 C 0.2372 0.35875 0.344 0.0
C1821 C 0.25633 0.366 0.33259 0.0
C1822 C 0.27387 0.35415 0.3369 0.0
H1823 H 0.30019 0.31367 0.44292 0.0
H1824 H 0.28412 0.33281 0.42283 0.0
H1825 H 0.2753 0.30699 0.42693 0.0
H1826 H 0.25218 0.31276 0.37636 0.0
H1827 H 0.22168 0.33356 0.36985 0.0
H1828 H 0.22155 0.66592 0.61056 0.0
H1829 H 0.25065 0.68876 0.60459 0.0
H1830 H 0.28433 0.65307 0.68146 0.0
H1831 H 0.25532 0.62993 0.6874 0.0
H1832 H 0.26519 0.71076 0.66317 0.0
H1833 H 0.32693 0.66419 0.60255 0.0
H1834 H 0.30036 0.65698 0.60035 0.0
H1835 H 0.31461 0.65316 0.641 0.0
C1836 C 0.23525 0.66268 0.62578 0.0
C1837 C 0.23602 0.64618 0.64973 0.0
C1838 C 0.25189 0.67575 0.62226 0.0
C1839 C 0.26968 0.67255 0.64241 0.0
C1840 C 0.27088 0.65562 0.66518 0.0
H1841 H 0.37336 0.75002 0.69066 0.0
H1842 H 0.35007 0.72117 0.68432 0.0
C1843 C 0.25422 0.64247 0.66868 0.0
C1844 C 0.2859 0.68822 0.64255 0.0
H1845 H 0.33624 0.69689 0.62421 0.0
C1846 C 0.28069 0.70776 0.65442 0.0
C1847 C 0.30614 0.68417 0.63155 0.0
C1848 C 0.3124 0.66354 0.61785 0.0
C1849 C 0.29518 0.72336 0.65579 0.0
C1850 C 0.31537 0.71944 0.64428 0.0
C1851 C 0.3207 0.69985 0.63276 0.0
C1852 C 0.33102 0.73565 0.64442 0.0
C1853 C 0.28884 0.74383 0.67027 0.0
C1854 C 0.32842 0.753 0.62309 0.0
C1855 C 0.34158 0.76953 0.62676 0.0
C1856 C 0.3577 0.76896 0.6517 0.0
C1857 C 0.36104 0.75101 0.67136 0.0
C1858 C 0.34777 0.73449 0.66776 0.0
H1859 H 0.27449 0.74289 0.68606 0.0
H1860 H 0.30095 0.75039 0.68761 0.0
H1861 H 0.28622 0.75438 0.6475 0.0
H1862 H 0.31577 0.75402 0.60444 0.0
H1863 H 0.33873 0.783 0.61083 0.0
H1864 H 0.62671 0.74655 0.30723 0.0
H1865 H 0.64994 0.71768 0.31298 0.0
H1866 H 0.68693 0.75171 0.38748 0.0
H1867 H 0.66399 0.78071 0.38166 0.0
H1868 H 0.70823 0.73665 0.32862 0.0
H1869 H 0.66189 0.67589 0.39228 0.0
H1870 H 0.65036 0.68783 0.35392 0.0
H1871 H 0.65474 0.70236 0.39402 0.0
C1872 C 0.63956 0.74777 0.32538 0.0
C1873 C 0.6436 0.76603 0.3437 0.0
C1874 C 0.65276 0.73119 0.3288 0.0
C1875 C 0.67006 0.73251 0.35085 0.0
C1876 C 0.67361 0.75037 0.37039 0.0
H1877 H 0.78086 0.66352 0.38015 0.0
H1878 H 0.75176 0.68632 0.38713 0.0
C1879 C 0.66049 0.76695 0.36695 0.0
C1880 C 0.68572 0.7163 0.35048 0.0
H1881 H 0.69435 0.66624 0.3692 0.0
C1882 C 0.70522 0.72129 0.33774 0.0
C1883 C 0.68166 0.69623 0.36195 0.0
C1884 C 0.66108 0.69021 0.3766 0.0
C1885 C 0.72078 0.70676 0.33594 0.0
C1886 C 0.71685 0.68676 0.34788 0.0
C1887 C 0.6973 0.68164 0.36028 0.0
C1888 C 0.73307 0.67114 0.34749 0.0
C1889 C 0.74122 0.71287 0.32062 0.0
C1890 C 0.73177 0.65447 0.32415 0.0
C1891 C 0.74836 0.64129 0.3202 0.0
C1892 C 0.76652 0.64465 0.33951 0.0
C1893 C 0.76723 0.66067 0.36448 0.0
C1894 C 0.75063 0.67373 0.36851 0.0
H1895 H 0.7402 0.72711 0.30475 0.0
H1896 H 0.75213 0.71544 0.34296 0.0
H1897 H 0.74749 0.70071 0.30314 0.0
H1898 H 0.71827 0.65219 0.30783 0.0
H1899 H 0.74728 0.62905 0.30087 0.0
H1900 H 0.77984 0.3246 0.67039 0.0
H1901 H 0.74877 0.30451 0.6662 0.0
H1902 H 0.71357 0.35879 0.64806 0.0
H1903 H 0.74482 0.37934 0.65231 0.0
H1904 H 0.71102 0.31425 0.71417 0.0
H1905 H 0.69882 0.3134 0.5659 0.0
H1906 H 0.72415 0.31631 0.58433 0.0
H1907 H 0.70603 0.33651 0.58872 0.0
C1908 C 0.76557 0.33238 0.66532 0.0
C1909 C 0.76485 0.35364 0.66192 0.0
C1910 C 0.74783 0.32083 0.6629 0.0
C1911 C 0.72897 0.33019 0.65681 0.0
C1912 C 0.72807 0.35134 0.65262 0.0
H1913 H 0.61956 0.25105 0.64638 0.0
H1914 H 0.63961 0.28259 0.64399 0.0
C1915 C 0.74591 0.36301 0.65511 0.0
C1916 C 0.71038 0.31752 0.65667 0.0
H1917 H 0.67957 0.29029 0.60057 0.0
C1918 C 0.70378 0.30936 0.68944 0.0
C1919 C 0.70101 0.31128 0.62434 0.0
C1920 C 0.70774 0.31974 0.58866 0.0
C1921 C 0.6888 0.2942 0.69055 0.0
C1922 C 0.68046 0.28688 0.65803 0.0
C1923 C 0.68605 0.29597 0.62541 0.0
C1924 C 0.6682 0.26806 0.65739 0.0
C1925 C 0.68266 0.28541 0.72636 0.0
C1926 C 0.67778 0.24954 0.66494 0.0
C1927 C 0.66651 0.23163 0.6662 0.0
C1928 C 0.64534 0.23183 0.65999 0.0
C1929 C 0.63581 0.25039 0.65147 0.0
C1930 C 0.64721 0.26839 0.65005 0.0
H1931 H 0.68639 0.29587 0.74884 0.0
H1932 H 0.66606 0.28203 0.72696 0.0
H1933 H 0.69103 0.27097 0.73077 0.0
H1934 H 0.69402 0.249 0.67031 0.0
H1935 H 0.67442 0.21766 0.67261 0.0
H1936 H 0.71859 0.82619 0.83888 0.0
H1937 H 0.74851 0.80478 0.84656 0.0
H1938 H 0.78732 0.85762 0.84468 0.0
H1939 H 0.75723 0.8794 0.83666 0.0
H1940 H 0.79999 0.82591 0.79853 0.0
H1941 H 0.78467 0.79668 0.93506 0.0
H1942 H 0.76287 0.79431 0.90621 0.0
H1943 H 0.7724 0.81914 0.91746 0.0
C1944 C 0.73344 0.83337 0.84032 0.0
C1945 C 0.73549 0.85454 0.83707 0.0
C1946 C 0.75053 0.82108 0.84503 0.0
C1947 C 0.77009 0.82963 0.8468 0.0
C1948 C 0.77231 0.85076 0.84372 0.0
H1949 H 0.88071 0.75222 0.83841 0.0
H1950 H 0.85995 0.78288 0.8469 0.0
C1951 C 0.75511 0.86316 0.83916 0.0
C1952 C 0.78809 0.8161 0.84953 0.0
H1953 H 0.80647 0.77596 0.8976 0.0
C1954 C 0.80178 0.8153 0.82057 0.0
C1955 C 0.7904 0.80236 0.87842 0.0
C1956 C 0.77692 0.80328 0.91122 0.0
C1957 C 0.81676 0.80008 0.81849 0.0
C1958 C 0.81814 0.78551 0.84627 0.0
C1959 C 0.80528 0.7871 0.87625 0.0
C1960 C 0.83106 0.76719 0.84273 0.0
C1961 C 0.83014 0.79888 0.78559 0.0
C1962 C 0.82166 0.74824 0.83831 0.0
C1963 C 0.83338 0.73079 0.83343 0.0
C1964 C 0.85481 0.73189 0.83308 0.0
C1965 C 0.86424 0.75086 0.83839 0.0
C1966 C 0.85243 0.7684 0.84312 0.0
H1967 H 0.82558 0.81 0.76464 0.0
H1968 H 0.8462 0.80198 0.79328 0.0
H1969 H 0.82954 0.78338 0.77388 0.0
H1970 H 0.80517 0.74701 0.83802 0.0
H1971 H 0.82559 0.71645 0.8297 0.0
H1972 H 0.72095 0.16659 0.11833 0.0
H1973 H 0.75094 0.18842 0.11383 0.0
H1974 H 0.78621 0.1448 0.17385 0.0
H1975 H 0.75623 0.12294 0.17894 0.0
H1976 H 0.788 0.18285 0.20254 0.0
H1977 H 0.80391 0.1866 0.05669 0.0
H1978 H 0.77773 0.19195 0.06715 0.0
H1979 H 0.788 0.16715 0.07635 0.0
C1980 C 0.73516 0.16143 0.13004 0.0
C1981 C 0.7361 0.14306 0.14926 0.0
C1982 C 0.75237 0.17388 0.12718 0.0
C1983 C 0.77089 0.16815 0.14317 0.0
C1984 C 0.77209 0.14947 0.16116 0.0
H1985 H 0.87987 0.24745 0.14248 0.0
H1986 H 0.85833 0.21712 0.13564 0.0
C1987 C 0.75491 0.137 0.16405 0.0
C1988 C 0.78818 0.18266 0.14466 0.0
H1989 H 0.81817 0.21345 0.09296 0.0
C1990 C 0.79483 0.18926 0.17856 0.0
C1991 C 0.79723 0.19092 0.11339 0.0
C1992 C 0.7915 0.18364 0.07634 0.0
C1993 C 0.80949 0.20464 0.18199 0.0
C1994 C 0.81759 0.21376 0.15076 0.0
C1995 C 0.81178 0.20649 0.11685 0.0
C1996 C 0.83065 0.23201 0.1531 0.0
C1997 C 0.81583 0.21145 0.21904 0.0
C1998 C 0.82208 0.25038 0.16456 0.0
C1999 C 0.83421 0.26763 0.16835 0.0
C2000 C 0.85525 0.26689 0.16086 0.0
C2001 C 0.86376 0.24851 0.14866 0.0
C2002 C 0.8515 0.2312 0.14466 0.0
H2003 H 0.81195 0.19998 0.23982 0.0
H2004 H 0.83249 0.21447 0.22005 0.0
H2005 H 0.80777 0.22577 0.22579 0.0
H2006 H 0.80597 0.25132 0.17087 0.0
H2007 H 0.82706 0.2815 0.17763 0.0
H2008 H 0.1201 0.24875 0.83939 0.0
H2009 H 0.14131 0.21836 0.84784 0.0
H2010 H 0.19545 0.25551 0.8447 0.0
H2011 H 0.17461 0.28572 0.8365 0.0
H2012 H 0.17245 0.20418 0.80055 0.0
H2013 H 0.20359 0.22092 0.93539 0.0
H2014 H 0.18102 0.23322 0.91798 0.0
H2015 H 0.20598 0.24205 0.90528 0.0
C2016 C 0.13651 0.25044 0.84084 0.0
C2017 C 0.14565 0.26968 0.83722 0.0
C2018 C 0.14858 0.23308 0.84564 0.0
C2019 C 0.16991 0.23475 0.84746 0.0
C2020 C 0.179 0.25392 0.84412 0.0
H2021 H 0.28219 0.17695 0.83099 0.0
H2022 H 0.25192 0.19789 0.83912 0.0
C2023 C 0.16703 0.27118 0.83913 0.0
C2024 C 0.18307 0.21655 0.85069 0.0
H2025 H 0.22334 0.198 0.89859 0.0
C2026 C 0.18326 0.20247 0.82239 0.0
C2027 C 0.19707 0.21435 0.87931 0.0
C2028 C 0.1968 0.22833 0.9114 0.0
C2029 C 0.19816 0.18715 0.82062 0.0
C2030 C 0.21302 0.18584 0.84808 0.0
C2031 C 0.21199 0.19912 0.87748 0.0
C2032 C 0.23115 0.17257 0.84462 0.0
C2033 C 0.19876 0.17335 0.7883 0.0
C2034 C 0.22953 0.15133 0.84548 0.0
C2035 C 0.24691 0.13921 0.84083 0.0
C2036 C 0.26614 0.14819 0.83514 0.0
C2037 C 0.26764 0.16949 0.83502 0.0
C2038 C 0.25035 0.18152 0.83979 0.0
H2039 H 0.18758 0.17792 0.76737 0.0
H2040 H 0.21427 0.17331 0.77627 0.0
H2041 H 0.19521 0.15759 0.79676 0.0
H2042 H 0.21484 0.14416 0.84961 0.0
H2043 H 0.24523 0.12285 0.84122 0.0
H2044 H 0.17604 0.72097 0.15797 0.0
H2045 H 0.19616 0.75182 0.1509 0.0
H2046 H 0.14104 0.7873 0.14379 0.0
H2047 H 0.12058 0.75635 0.15107 0.0
H2048 H 0.19476 0.78154 0.09295 0.0
H2049 H 0.17495 0.8136 0.22718 0.0
H2050 H 0.17114 0.78711 0.21669 0.0
H2051 H 0.15449 0.80592 0.19791 0.0
C2052 C 0.16811 0.73529 0.15486 0.0
C2053 C 0.14668 0.73619 0.1554 0.0
C2054 C 0.17966 0.75291 0.1507 0.0
C2055 C 0.17008 0.77182 0.14718 0.0
C2056 C 0.1487 0.77284 0.1469 0.0
H2057 H 0.24471 0.88365 0.15819 0.0
H2058 H 0.21428 0.86243 0.14891 0.0
C2059 C 0.13706 0.75514 0.15092 0.0
C2060 C 0.18284 0.79031 0.14456 0.0
H2061 H 0.20074 0.82998 0.19448 0.0
C2062 C 0.19582 0.79237 0.11483 0.0
C2063 C 0.18404 0.80448 0.17302 0.0
C2064 C 0.17053 0.80276 0.20568 0.0
C2065 C 0.21071 0.80764 0.11364 0.0
C2066 C 0.21289 0.82092 0.14323 0.0
C2067 C 0.19903 0.81972 0.17189 0.0
C2068 C 0.23103 0.83415 0.14709 0.0
C2069 C 0.22444 0.80901 0.08122 0.0
C2070 C 0.25039 0.82522 0.14953 0.0
C2071 C 0.26764 0.83717 0.15501 0.0
C2072 C 0.26595 0.85837 0.15833 0.0
C2073 C 0.24652 0.86737 0.15566 0.0
C2074 C 0.22915 0.8553 0.15038 0.0
H2075 H 0.2169 0.80269 0.05694 0.0
H2076 H 0.22896 0.82496 0.07574 0.0
H2077 H 0.23848 0.80002 0.08623 0.0
H2078 H 0.25213 0.80889 0.1478 0.0
H2079 H 0.28233 0.82971 0.15684 0.0
loop_
_geom_bond_atom_site_label_1
_geom_bond_atom_site_label_2
_geom_bond_distance
_geom_bond_site_symmetry_2
_ccdc_geom_bond_type
Fe0 O2 1.918 . S
Fe0 O5 1.997 . S
Fe0 O6 2.002 . S
Fe0 O11 1.976 . S
Fe0 O14 1.996 . S
Fe1 O2 1.918 . S
Fe1 O9 1.997 . S
Fe1 O12 1.996 . S
Fe1 O16 1.976 . S
Fe1 O19 2.002 . S
O2 Fe0 1.918 . S
O2 Fe1 1.918 . S
O2 Fe3 1.918 . S
Fe3 O2 1.918 . S
Fe3 O4 2.002 . S
Fe3 O13 1.976 . S
Fe3 O17 1.996 . S
Fe3 O20 1.997 . S
O4 Fe3 2.002 . S
O4 C21 1.295 . S
O5 Fe0 1.997 . S
O5 C21 1.235 . S
O6 Fe0 2.002 . S
O6 C7 1.295 . S
C7 O6 1.295 . S
C7 O9 1.235 . S
C8 O13 1.287 . S
C8 O14 1.255 . S
O9 Fe1 1.997 . S
O9 C7 1.235 . S
C10 O16 1.287 . S
C10 O17 1.255 . S
O11 Fe0 1.976 . S
O11 C18 1.287 . S
O12 Fe1 1.996 . S
O12 C18 1.255 . S
O13 Fe3 1.976 . S
O13 C8 1.287 . S
O14 Fe0 1.996 . S
O14 C8 1.255 . S
C15 O19 1.295 . S
C15 O20 1.235 . S
O16 Fe1 1.976 . S
O16 C10 1.287 . S
O17 Fe3 1.996 . S
O17 C10 1.255 . S
C18 O11 1.287 . S
C18 O12 1.255 . S
O19 Fe1 2.002 . S
O19 C15 1.295 . S
O20 Fe3 1.997 . S
O20 C15 1.235 . S
C21 O4 1.295 . S
C21 O5 1.235 . S
Fe22 O24 1.918 . S
Fe22 O27 1.997 . S
Fe22 O28 2.002 . S
Fe22 O33 1.976 . S
Fe22 O36 1.996 . S
Fe23 O24 1.918 . S
Fe23 O31 1.997 . S
Fe23 O34 1.996 . S
Fe23 O38 1.976 . S
Fe23 O41 2.002 . S
O24 Fe22 1.918 . S
O24 Fe23 1.918 . S
O24 Fe25 1.918 . S
Fe25 O24 1.918 . S
Fe25 O26 2.002 . S
Fe25 O35 1.976 . S
Fe25 O39 1.996 . S
Fe25 O42 1.997 . S
O26 Fe25 2.002 . S
O26 C43 1.295 . S
O27 Fe22 1.997 . S
O27 C43 1.235 . S
O28 Fe22 2.002 . S
O28 C29 1.295 . S
C29 O28 1.295 . S
C29 O31 1.235 . S
C30 O35 1.287 . S
C30 O36 1.255 . S
O31 Fe23 1.997 . S
O31 C29 1.235 . S
C32 O38 1.287 . S
C32 O39 1.255 . S
O33 Fe22 1.976 . S
O33 C40 1.287 . S
O34 Fe23 1.996 . S
O34 C40 1.255 . S
O35 Fe25 1.976 . S
O35 C30 1.287 . S
O36 Fe22 1.996 . S
O36 C30 1.255 . S
C37 O41 1.295 . S
C37 O42 1.235 . S
O38 Fe23 1.976 . S
O38 C32 1.287 . S
O39 Fe25 1.996 . S
O39 C32 1.255 . S
C40 O33 1.287 . S
C40 O34 1.255 . S
O41 Fe23 2.002 . S
O41 C37 1.295 . S
O42 Fe25 1.997 . S
O42 C37 1.235 . S
C43 O26 1.295 . S
C43 O27 1.235 . S
Fe44 O46 1.918 . S
Fe44 O49 1.997 . S
Fe44 O50 2.002 . S
Fe44 O55 1.976 . S
Fe44 O58 1.996 . S
Fe45 O46 1.918 . S
Fe45 O53 1.997 . S
Fe45 O56 1.996 . S
Fe45 O60 1.976 . S
Fe45 O63 2.002 . S
O46 Fe44 1.918 . S
O46 Fe45 1.918 . S
O46 Fe47 1.918 . S
Fe47 O46 1.918 . S
Fe47 O48 2.002 . S
Fe47 O57 1.976 . S
Fe47 O61 1.996 . S
Fe47 O64 1.997 . S
O48 Fe47 2.002 . S
O48 C65 1.295 . S
O49 Fe44 1.997 . S
O49 C65 1.235 . S
O50 Fe44 2.002 . S
O50 C51 1.295 . S
C51 O50 1.295 . S
C51 O53 1.235 . S
C52 O57 1.287 . S
C52 O58 1.255 . S
O53 Fe45 1.997 . S
O53 C51 1.235 . S
C54 O60 1.287 . S
C54 O61 1.255 . S
O55 Fe44 1.976 . S
O55 C62 1.287 . S
O56 Fe45 1.996 . S
O56 C62 1.255 . S
O57 Fe47 1.976 . S
O57 C52 1.287 . S
O58 Fe44 1.996 . S
O58 C52 1.255 . S
C59 O63 1.295 . S
C59 O64 1.235 . S
O60 Fe45 1.976 . S
O60 C54 1.287 . S
O61 Fe47 1.996 . S
O61 C54 1.255 . S
C62 O55 1.287 . S
C62 O56 1.255 . S
O63 Fe45 2.002 . S
O63 C59 1.295 . S
O64 Fe47 1.997 . S
O64 C59 1.235 . S
C65 O48 1.295 . S
C65 O49 1.235 . S
Fe66 O68 1.918 . S
Fe66 O71 1.997 . S
Fe66 O72 2.002 . S
Fe66 O77 1.976 . S
Fe66 O80 1.996 . S
Fe67 O68 1.918 . S
Fe67 O75 1.997 . S
Fe67 O78 1.996 . S
Fe67 O82 1.976 . S
Fe67 O85 2.002 . S
O68 Fe66 1.918 . S
O68 Fe67 1.918 . S
O68 Fe69 1.918 . S
Fe69 O68 1.918 . S
Fe69 O70 2.002 . S
Fe69 O79 1.976 . S
Fe69 O83 1.996 . S
Fe69 O86 1.997 . S
O70 Fe69 2.002 . S
O70 C87 1.295 . S
O71 Fe66 1.997 . S
O71 C87 1.235 . S
O72 Fe66 2.002 . S
O72 C73 1.295 . S
C73 O72 1.295 . S
C73 O75 1.235 . S
C74 O79 1.287 . S
C74 O80 1.255 . S
O75 Fe67 1.997 . S
O75 C73 1.235 . S
C76 O82 1.287 . S
C76 O83 1.255 . S
O77 Fe66 1.976 . S
O77 C84 1.287 . S
O78 Fe67 1.996 . S
O78 C84 1.255 . S
O79 Fe69 1.976 . S
O79 C74 1.287 . S
O80 Fe66 1.996 . S
O80 C74 1.255 . S
C81 O85 1.295 . S
C81 O86 1.235 . S
O82 Fe67 1.976 . S
O82 C76 1.287 . S
O83 Fe69 1.996 . S
O83 C76 1.255 . S
C84 O77 1.287 . S
C84 O78 1.255 . S
O85 Fe67 2.002 . S
O85 C81 1.295 . S
O86 Fe69 1.997 . S
O86 C81 1.235 . S
C87 O70 1.295 . S
C87 O71 1.235 . S
Fe88 O90 1.918 . S
Fe88 O93 1.997 . S
Fe88 O94 2.002 . S
Fe88 O99 1.976 . S
Fe88 O102 1.996 . S
Fe89 O90 1.918 . S
Fe89 O97 1.997 . S
Fe89 O100 1.996 . S
Fe89 O104 1.976 . S
Fe89 O107 2.002 . S
O90 Fe88 1.918 . S
O90 Fe89 1.918 . S
O90 Fe91 1.918 . S
Fe91 O90 1.918 . S
Fe91 O92 2.002 . S
Fe91 O101 1.976 . S
Fe91 O105 1.996 . S
Fe91 O108 1.997 . S
O92 Fe91 2.002 . S
O92 C109 1.295 . S
O93 Fe88 1.997 . S
O93 C109 1.235 . S
O94 Fe88 2.002 . S
O94 C95 1.295 . S
C95 O94 1.295 . S
C95 O97 1.235 . S
C96 O101 1.287 . S
C96 O102 1.255 . S
O97 Fe89 1.997 . S
O97 C95 1.235 . S
C98 O104 1.287 . S
C98 O105 1.255 . S
O99 Fe88 1.976 . S
O99 C106 1.287 . S
O100 Fe89 1.996 . S
O100 C106 1.255 . S
O101 Fe91 1.976 . S
O101 C96 1.287 . S
O102 Fe88 1.996 . S
O102 C96 1.255 . S
C103 O107 1.295 . S
C103 O108 1.235 . S
O104 Fe89 1.976 . S
O104 C98 1.287 . S
O105 Fe91 1.996 . S
O105 C98 1.255 . S
C106 O99 1.287 . S
C106 O100 1.255 . S
O107 Fe89 2.002 . S
O107 C103 1.295 . S
O108 Fe91 1.997 . S
O108 C103 1.235 . S
C109 O92 1.295 . S
C109 O93 1.235 . S
Fe110 O112 1.918 . S
Fe110 O115 1.997 . S
Fe110 O116 2.002 . S
Fe110 O121 1.976 . S
Fe110 O124 1.996 . S
Fe111 O112 1.918 . S
Fe111 O119 1.997 . S
Fe111 O122 1.996 . S
Fe111 O126 1.976 . S
Fe111 O129 2.002 . S
O112 Fe110 1.918 . S
O112 Fe111 1.918 . S
O112 Fe113 1.918 . S
Fe113 O112 1.918 . S
Fe113 O114 2.002 . S
Fe113 O123 1.976 . S
Fe113 O127 1.996 . S
Fe113 O130 1.997 . S
O114 Fe113 2.002 . S
O114 C131 1.295 . S
O115 Fe110 1.997 . S
O115 C131 1.235 . S
O116 Fe110 2.002 . S
O116 C117 1.295 . S
C117 O116 1.295 . S
C117 O119 1.235 . S
C118 O123 1.287 . S
C118 O124 1.255 . S
O119 Fe111 1.997 . S
O119 C117 1.235 . S
C120 O126 1.287 . S
C120 O127 1.255 . S
O121 Fe110 1.976 . S
O121 C128 1.287 . S
O122 Fe111 1.996 . S
O122 C128 1.255 . S
O123 Fe113 1.976 . S
O123 C118 1.287 . S
O124 Fe110 1.996 . S
O124 C118 1.255 . S
C125 O129 1.295 . S
C125 O130 1.235 . S
O126 Fe111 1.976 . S
O126 C120 1.287 . S
O127 Fe113 1.996 . S
O127 C120 1.255 . S
C128 O121 1.287 . S
C128 O122 1.255 . S
O129 Fe111 2.002 . S
O129 C125 1.295 . S
O130 Fe113 1.997 . S
O130 C125 1.235 . S
C131 O114 1.295 . S
C131 O115 1.235 . S
Fe132 O134 1.918 . S
Fe132 O137 1.997 . S
Fe132 O138 2.002 . S
Fe132 O143 1.976 . S
Fe132 O146 1.996 . S
Fe133 O134 1.918 . S
Fe133 O141 1.997 . S
Fe133 O144 1.996 . S
Fe133 O148 1.976 . S
Fe133 O151 2.002 . S
O134 Fe132 1.918 . S
O134 Fe133 1.918 . S
O134 Fe135 1.918 . S
Fe135 O134 1.918 . S
Fe135 O136 2.002 . S
Fe135 O145 1.976 . S
Fe135 O149 1.996 . S
Fe135 O152 1.997 . S
O136 Fe135 2.002 . S
O136 C153 1.295 . S
O137 Fe132 1.997 . S
O137 C153 1.235 . S
O138 Fe132 2.002 . S
O138 C139 1.295 . S
C139 O138 1.295 . S
C139 O141 1.235 . S
C140 O145 1.287 . S
C140 O146 1.255 . S
O141 Fe133 1.997 . S
O141 C139 1.235 . S
C142 O148 1.287 . S
C142 O149 1.255 . S
O143 Fe132 1.976 . S
O143 C150 1.287 . S
O144 Fe133 1.996 . S
O144 C150 1.255 . S
O145 Fe135 1.976 . S
O145 C140 1.287 . S
O146 Fe132 1.996 . S
O146 C140 1.255 . S
C147 O151 1.295 . S
C147 O152 1.235 . S
O148 Fe133 1.976 . S
O148 C142 1.287 . S
O149 Fe135 1.996 . S
O149 C142 1.255 . S
C150 O143 1.287 . S
C150 O144 1.255 . S
O151 Fe133 2.002 . S
O151 C147 1.295 . S
O152 Fe135 1.997 . S
O152 C147 1.235 . S
C153 O136 1.295 . S
C153 O137 1.235 . S
Fe154 O156 1.918 . S
Fe154 O159 1.997 . S
Fe154 O160 2.002 . S
Fe154 O165 1.976 . S
Fe154 O168 1.996 . S
Fe155 O156 1.918 . S
Fe155 O163 1.997 . S
Fe155 O166 1.996 . S
Fe155 O170 1.976 . S
Fe155 O173 2.002 . S
O156 Fe154 1.918 . S
O156 Fe155 1.918 . S
O156 Fe157 1.918 . S
Fe157 O156 1.918 . S
Fe157 O158 2.002 . S
Fe157 O167 1.976 . S
Fe157 O171 1.996 . S
Fe157 O174 1.997 . S
O158 Fe157 2.002 . S
O158 C175 1.295 . S
O159 Fe154 1.997 . S
O159 C175 1.235 . S
O160 Fe154 2.002 . S
O160 C161 1.295 . S
C161 O160 1.295 . S
C161 O163 1.235 . S
C162 O167 1.287 . S
C162 O168 1.255 . S
O163 Fe155 1.997 . S
O163 C161 1.235 . S
C164 O170 1.287 . S
C164 O171 1.255 . S
O165 Fe154 1.976 . S
O165 C172 1.287 . S
O166 Fe155 1.996 . S
O166 C172 1.255 . S
O167 Fe157 1.976 . S
O167 C162 1.287 . S
O168 Fe154 1.996 . S
O168 C162 1.255 . S
C169 O173 1.295 . S
C169 O174 1.235 . S
O170 Fe155 1.976 . S
O170 C164 1.287 . S
O171 Fe157 1.996 . S
O171 C164 1.255 . S
C172 O165 1.287 . S
C172 O166 1.255 . S
O173 Fe155 2.002 . S
O173 C169 1.295 . S
O174 Fe157 1.997 . S
O174 C169 1.235 . S
C175 O158 1.295 . S
C175 O159 1.235 . S
Fe176 O178 1.918 . S
Fe176 O181 1.997 . S
Fe176 O182 2.002 . S
Fe176 O187 1.976 . S
Fe176 O190 1.996 . S
Fe177 O178 1.918 . S
Fe177 O185 1.997 . S
Fe177 O188 1.996 . S
Fe177 O192 1.976 . S
Fe177 O195 2.002 . S
O178 Fe176 1.918 . S
O178 Fe177 1.918 . S
O178 Fe179 1.918 . S
Fe179 O178 1.918 . S
Fe179 O180 2.002 . S
Fe179 O189 1.976 . S
Fe179 O193 1.996 . S
Fe179 O196 1.997 . S
O180 Fe179 2.002 . S
O180 C197 1.295 . S
O181 Fe176 1.997 . S
O181 C197 1.235 . S
O182 Fe176 2.002 . S
O182 C183 1.295 . S
C183 O182 1.295 . S
C183 O185 1.235 . S
C184 O189 1.287 . S
C184 O190 1.255 . S
O185 Fe177 1.997 . S
O185 C183 1.235 . S
C186 O192 1.287 . S
C186 O193 1.255 . S
O187 Fe176 1.976 . S
O187 C194 1.287 . S
O188 Fe177 1.996 . S
O188 C194 1.255 . S
O189 Fe179 1.976 . S
O189 C184 1.287 . S
O190 Fe176 1.996 . S
O190 C184 1.255 . S
C191 O195 1.295 . S
C191 O196 1.235 . S
O192 Fe177 1.976 . S
O192 C186 1.287 . S
O193 Fe179 1.996 . S
O193 C186 1.255 . S
C194 O187 1.287 . S
C194 O188 1.255 . S
O195 Fe177 2.002 . S
O195 C191 1.295 . S
O196 Fe179 1.997 . S
O196 C191 1.235 . S
C197 O180 1.295 . S
C197 O181 1.235 . S
Fe198 O200 1.918 . S
Fe198 O203 1.997 . S
Fe198 O204 2.002 . S
Fe198 O209 1.976 . S
Fe198 O212 1.996 . S
Fe199 O200 1.918 . S
Fe199 O207 1.997 . S
Fe199 O210 1.996 . S
Fe199 O214 1.976 . S
Fe199 O217 2.002 . S
O200 Fe198 1.918 . S
O200 Fe199 1.918 . S
O200 Fe201 1.918 . S
Fe201 O200 1.918 . S
Fe201 O202 2.002 . S
Fe201 O211 1.976 . S
Fe201 O215 1.996 . S
Fe201 O218 1.997 . S
O202 Fe201 2.002 . S
O202 C219 1.295 . S
O203 Fe198 1.997 . S
O203 C219 1.235 . S
O204 Fe198 2.002 . S
O204 C205 1.295 . S
C205 O204 1.295 . S
C205 O207 1.235 . S
C206 O211 1.287 . S
C206 O212 1.255 . S
O207 Fe199 1.997 . S
O207 C205 1.235 . S
C208 O214 1.287 . S
C208 O215 1.255 . S
O209 Fe198 1.976 . S
O209 C216 1.287 . S
O210 Fe199 1.996 . S
O210 C216 1.255 . S
O211 Fe201 1.976 . S
O211 C206 1.287 . S
O212 Fe198 1.996 . S
O212 C206 1.255 . S
C213 O217 1.295 . S
C213 O218 1.235 . S
O214 Fe199 1.976 . S
O214 C208 1.287 . S
O215 Fe201 1.996 . S
O215 C208 1.255 . S
C216 O209 1.287 . S
C216 O210 1.255 . S
O217 Fe199 2.002 . S
O217 C213 1.295 . S
O218 Fe201 1.997 . S
O218 C213 1.235 . S
C219 O202 1.295 . S
C219 O203 1.235 . S
Fe220 O222 1.918 . S
Fe220 O225 1.997 . S
Fe220 O226 2.002 . S
Fe220 O231 1.976 . S
Fe220 O234 1.996 . S
Fe221 O222 1.918 . S
Fe221 O229 1.997 . S
Fe221 O232 1.996 . S
Fe221 O236 1.976 . S
Fe221 O239 2.002 . S
O222 Fe220 1.918 . S
O222 Fe221 1.918 . S
O222 Fe223 1.918 . S
Fe223 O222 1.918 . S
Fe223 O224 2.002 . S
Fe223 O233 1.976 . S
Fe223 O237 1.996 . S
Fe223 O240 1.997 . S
O224 Fe223 2.002 . S
O224 C241 1.295 . S
O225 Fe220 1.997 . S
O225 C241 1.235 . S
O226 Fe220 2.002 . S
O226 C227 1.295 . S
C227 O226 1.295 . S
C227 O229 1.235 . S
C228 O233 1.287 . S
C228 O234 1.255 . S
O229 Fe221 1.997 . S
O229 C227 1.235 . S
C230 O236 1.287 . S
C230 O237 1.255 . S
O231 Fe220 1.976 . S
O231 C238 1.287 . S
O232 Fe221 1.996 . S
O232 C238 1.255 . S
O233 Fe223 1.976 . S
O233 C228 1.287 . S
O234 Fe220 1.996 . S
O234 C228 1.255 . S
C235 O239 1.295 . S
C235 O240 1.235 . S
O236 Fe221 1.976 . S
O236 C230 1.287 . S
O237 Fe223 1.996 . S
O237 C230 1.255 . S
C238 O231 1.287 . S
C238 O232 1.255 . S
O239 Fe221 2.002 . S
O239 C235 1.295 . S
O240 Fe223 1.997 . S
O240 C235 1.235 . S
C241 O224 1.295 . S
C241 O225 1.235 . S
Fe242 O244 1.918 . S
Fe242 O247 1.997 . S
Fe242 O248 2.002 . S
Fe242 O253 1.976 . S
Fe242 O256 1.996 . S
Fe243 O244 1.918 . S
Fe243 O251 1.997 . S
Fe243 O254 1.996 . S
Fe243 O258 1.976 . S
Fe243 O261 2.002 . S
O244 Fe242 1.918 . S
O244 Fe243 1.918 . S
O244 Fe245 1.918 . S
Fe245 O244 1.918 . S
Fe245 O246 2.002 . S
Fe245 O255 1.976 . S
Fe245 O259 1.996 . S
Fe245 O262 1.997 . S
O246 Fe245 2.002 . S
O246 C263 1.295 . S
O247 Fe242 1.997 . S
O247 C263 1.235 . S
O248 Fe242 2.002 . S
O248 C249 1.295 . S
C249 O248 1.295 . S
C249 O251 1.235 . S
C250 O255 1.287 . S
C250 O256 1.255 . S
O251 Fe243 1.997 . S
O251 C249 1.235 . S
C252 O258 1.287 . S
C252 O259 1.255 . S
O253 Fe242 1.976 . S
O253 C260 1.287 . S
O254 Fe243 1.996 . S
O254 C260 1.255 . S
O255 Fe245 1.976 . S
O255 C250 1.287 . S
O256 Fe242 1.996 . S
O256 C250 1.255 . S
C257 O261 1.295 . S
C257 O262 1.235 . S
O258 Fe243 1.976 . S
O258 C252 1.287 . S
O259 Fe245 1.996 . S
O259 C252 1.255 . S
C260 O253 1.287 . S
C260 O254 1.255 . S
O261 Fe243 2.002 . S
O261 C257 1.295 . S
O262 Fe245 1.997 . S
O262 C257 1.235 . S
C263 O246 1.295 . S
C263 O247 1.235 . S
Fe264 O266 1.918 . S
Fe264 O269 1.997 . S
Fe264 O270 2.002 . S
Fe264 O275 1.976 . S
Fe264 O278 1.996 . S
Fe265 O266 1.918 . S
Fe265 O273 1.997 . S
Fe265 O276 1.996 . S
Fe265 O280 1.976 . S
Fe265 O283 2.002 . S
O266 Fe264 1.918 . S
O266 Fe265 1.918 . S
O266 Fe267 1.918 . S
Fe267 O266 1.918 . S
Fe267 O268 2.002 . S
Fe267 O277 1.976 . S
Fe267 O281 1.996 . S
Fe267 O284 1.997 . S
O268 Fe267 2.002 . S
O268 C285 1.295 . S
O269 Fe264 1.997 . S
O269 C285 1.235 . S
O270 Fe264 2.002 . S
O270 C271 1.295 . S
C271 O270 1.295 . S
C271 O273 1.235 . S
C272 O277 1.287 . S
C272 O278 1.255 . S
O273 Fe265 1.997 . S
O273 C271 1.235 . S
C274 O280 1.287 . S
C274 O281 1.255 . S
O275 Fe264 1.976 . S
O275 C282 1.287 . S
O276 Fe265 1.996 . S
O276 C282 1.255 . S
O277 Fe267 1.976 . S
O277 C272 1.287 . S
O278 Fe264 1.996 . S
O278 C272 1.255 . S
C279 O283 1.295 . S
C279 O284 1.235 . S
O280 Fe265 1.976 . S
O280 C274 1.287 . S
O281 Fe267 1.996 . S
O281 C274 1.255 . S
C282 O275 1.287 . S
C282 O276 1.255 . S
O283 Fe265 2.002 . S
O283 C279 1.295 . S
O284 Fe267 1.997 . S
O284 C279 1.235 . S
C285 O268 1.295 . S
C285 O269 1.235 . S
Fe286 O288 1.918 . S
Fe286 O291 1.997 . S
Fe286 O292 2.002 . S
Fe286 O297 1.976 . S
Fe286 O300 1.996 . S
Fe287 O288 1.918 . S
Fe287 O295 1.997 . S
Fe287 O298 1.996 . S
Fe287 O302 1.976 . S
Fe287 O305 2.002 . S
O288 Fe286 1.918 . S
O288 Fe287 1.918 . S
O288 Fe289 1.918 . S
Fe289 O288 1.918 . S
Fe289 O290 2.002 . S
Fe289 O299 1.976 . S
Fe289 O303 1.996 . S
Fe289 O306 1.997 . S
O290 Fe289 2.002 . S
O290 C307 1.295 . S
O291 Fe286 1.997 . S
O291 C307 1.235 . S
O292 Fe286 2.002 . S
O292 C293 1.295 . S
C293 O292 1.295 . S
C293 O295 1.235 . S
C294 O299 1.287 . S
C294 O300 1.255 . S
O295 Fe287 1.997 . S
O295 C293 1.235 . S
C296 O302 1.287 . S
C296 O303 1.255 . S
O297 Fe286 1.976 . S
O297 C304 1.287 . S
O298 Fe287 1.996 . S
O298 C304 1.255 . S
O299 Fe289 1.976 . S
O299 C294 1.287 . S
O300 Fe286 1.996 . S
O300 C294 1.255 . S
C301 O305 1.295 . S
C301 O306 1.235 . S
O302 Fe287 1.976 . S
O302 C296 1.287 . S
O303 Fe289 1.996 . S
O303 C296 1.255 . S
C304 O297 1.287 . S
C304 O298 1.255 . S
O305 Fe287 2.002 . S
O305 C301 1.295 . S
O306 Fe289 1.997 . S
O306 C301 1.235 . S
C307 O290 1.295 . S
C307 O291 1.235 . S
Fe308 O310 1.918 . S
Fe308 O313 1.997 . S
Fe308 O314 2.002 . S
Fe308 O319 1.976 . S
Fe308 O322 1.996 . S
Fe309 O310 1.918 . S
Fe309 O317 1.997 . S
Fe309 O320 1.996 . S
Fe309 O324 1.976 . S
Fe309 O327 2.002 . S
O310 Fe308 1.918 . S
O310 Fe309 1.918 . S
O310 Fe311 1.918 . S
Fe311 O310 1.918 . S
Fe311 O312 2.002 . S
Fe311 O321 1.976 . S
Fe311 O325 1.996 . S
Fe311 O328 1.997 . S
O312 Fe311 2.002 . S
O312 C329 1.295 . S
O313 Fe308 1.997 . S
O313 C329 1.235 . S
O314 Fe308 2.002 . S
O314 C315 1.295 . S
C315 O314 1.295 . S
C315 O317 1.235 . S
C316 O321 1.287 . S
C316 O322 1.255 . S
O317 Fe309 1.997 . S
O317 C315 1.235 . S
C318 O324 1.287 . S
C318 O325 1.255 . S
O319 Fe308 1.976 . S
O319 C326 1.287 . S
O320 Fe309 1.996 . S
O320 C326 1.255 . S
O321 Fe311 1.976 . S
O321 C316 1.287 . S
O322 Fe308 1.996 . S
O322 C316 1.255 . S
C323 O327 1.295 . S
C323 O328 1.235 . S
O324 Fe309 1.976 . S
O324 C318 1.287 . S
O325 Fe311 1.996 . S
O325 C318 1.255 . S
C326 O319 1.287 . S
C326 O320 1.255 . S
O327 Fe309 2.002 . S
O327 C323 1.295 . S
O328 Fe311 1.997 . S
O328 C323 1.235 . S
C329 O312 1.295 . S
C329 O313 1.235 . S
Fe330 O332 1.918 . S
Fe330 O335 1.997 . S
Fe330 O336 2.002 . S
Fe330 O341 1.976 . S
Fe330 O344 1.996 . S
Fe331 O332 1.918 . S
Fe331 O339 1.997 . S
Fe331 O342 1.996 . S
Fe331 O346 1.976 . S
Fe331 O349 2.002 . S
O332 Fe330 1.918 . S
O332 Fe331 1.918 . S
O332 Fe333 1.918 . S
Fe333 O332 1.918 . S
Fe333 O334 2.002 . S
Fe333 O343 1.976 . S
Fe333 O347 1.996 . S
Fe333 O350 1.997 . S
O334 Fe333 2.002 . S
O334 C351 1.295 . S
O335 Fe330 1.997 . S
O335 C351 1.235 . S
O336 Fe330 2.002 . S
O336 C337 1.295 . S
C337 O336 1.295 . S
C337 O339 1.235 . S
C338 O343 1.287 . S
C338 O344 1.255 . S
O339 Fe331 1.997 . S
O339 C337 1.235 . S
C340 O346 1.287 . S
C340 O347 1.255 . S
O341 Fe330 1.976 . S
O341 C348 1.287 . S
O342 Fe331 1.996 . S
O342 C348 1.255 . S
O343 Fe333 1.976 . S
O343 C338 1.287 . S
O344 Fe330 1.996 . S
O344 C338 1.255 . S
C345 O349 1.295 . S
C345 O350 1.235 . S
O346 Fe331 1.976 . S
O346 C340 1.287 . S
O347 Fe333 1.996 . S
O347 C340 1.255 . S
C348 O341 1.287 . S
C348 O342 1.255 . S
O349 Fe331 2.002 . S
O349 C345 1.295 . S
O350 Fe333 1.997 . S
O350 C345 1.235 . S
C351 O334 1.295 . S
C351 O335 1.235 . S
H352 C360 0.929 . S
H353 C362 0.930 . S
H354 C364 0.930 . S
H355 C367 0.929 . S
H356 C370 0.930 . S
H357 C372 0.960 . S
H358 C372 0.960 . S
H359 C372 0.960 . S
C360 H352 0.929 . S
C360 C361 1.377 . S
C360 C362 1.384 . S
C361 C360 1.377 . S
C361 C367 1.390 . S
C362 H353 0.930 . S
C362 C360 1.384 . S
C362 C363 1.372 . S
C363 C362 1.372 . S
C363 C364 1.400 . S
C363 C368 1.490 . S
C364 H354 0.930 . S
C364 C363 1.400 . S
C364 C367 1.386 . S
H365 C381 0.930 . S
H366 C382 0.931 . S
C367 H355 0.929 . S
C367 C361 1.390 . S
C367 C364 1.386 . S
C368 C363 1.490 . S
C368 C370 1.395 . S
C368 C371 1.403 . S
H369 C375 0.930 . S
C370 H356 0.930 . S
C370 C368 1.395 . S
C370 C373 1.403 . S
C371 C368 1.403 . S
C371 C372 1.524 . S
C371 C375 1.400 . S
C372 H357 0.960 . S
C372 H358 0.960 . S
C372 H359 0.960 . S
C372 C371 1.524 . S
C373 C370 1.403 . S
C373 C374 1.392 . S
C373 C377 1.495 . S
C374 C373 1.392 . S
C374 C375 1.385 . S
C374 C376 1.478 . S
C375 H369 0.930 . S
C375 C371 1.400 . S
C375 C374 1.385 . S
C376 C374 1.478 . S
C376 C378 1.381 . S
C376 C382 1.383 . S
C377 C373 1.495 . S
C377 H383 0.959 . S
C377 H384 0.961 . S
C377 H385 0.960 . S
C378 C376 1.381 . S
C378 C379 1.394 . S
C378 H386 0.930 . S
C379 C378 1.394 . S
C379 C380 1.383 . S
C379 H387 0.929 . S
C380 C379 1.383 . S
C380 C381 1.377 . S
C381 H365 0.930 . S
C381 C380 1.377 . S
C381 C382 1.379 . S
C382 H366 0.931 . S
C382 C376 1.383 . S
C382 C381 1.379 . S
H383 C377 0.959 . S
H384 C377 0.961 . S
H385 C377 0.960 . S
H386 C378 0.930 . S
H387 C379 0.929 . S
H388 C396 0.929 . S
H389 C398 0.930 . S
H390 C400 0.930 . S
H391 C403 0.929 . S
H392 C406 0.930 . S
H393 C408 0.960 . S
H394 C408 0.960 . S
H395 C408 0.960 . S
C396 H388 0.929 . S
C396 C397 1.377 . S
C396 C398 1.384 . S
C397 C396 1.377 . S
C397 C403 1.390 . S
C398 H389 0.930 . S
C398 C396 1.384 . S
C398 C399 1.372 . S
C399 C398 1.372 . S
C399 C400 1.400 . S
C399 C404 1.490 . S
C400 H390 0.930 . S
C400 C399 1.400 . S
C400 C403 1.386 . S
H401 C417 0.930 . S
H402 C418 0.931 . S
C403 H391 0.929 . S
C403 C397 1.390 . S
C403 C400 1.386 . S
C404 C399 1.490 . S
C404 C406 1.395 . S
C404 C407 1.403 . S
H405 C411 0.930 . S
C406 H392 0.930 . S
C406 C404 1.395 . S
C406 C409 1.403 . S
C407 C404 1.403 . S
C407 C408 1.524 . S
C407 C411 1.400 . S
C408 H393 0.960 . S
C408 H394 0.960 . S
C408 H395 0.960 . S
C408 C407 1.524 . S
C409 C406 1.403 . S
C409 C410 1.392 . S
C409 C413 1.495 . S
C410 C409 1.392 . S
C410 C411 1.385 . S
C410 C412 1.478 . S
C411 H405 0.930 . S
C411 C407 1.400 . S
C411 C410 1.385 . S
C412 C410 1.478 . S
C412 C414 1.381 . S
C412 C418 1.383 . S
C413 C409 1.495 . S
C413 H419 0.959 . S
C413 H420 0.961 . S
C413 H421 0.960 . S
C414 C412 1.381 . S
C414 C415 1.394 . S
C414 H422 0.930 . S
C415 C414 1.394 . S
C415 C416 1.383 . S
C415 H423 0.929 . S
C416 C415 1.383 . S
C416 C417 1.377 . S
C417 H401 0.930 . S
C417 C416 1.377 . S
C417 C418 1.379 . S
C418 H402 0.931 . S
C418 C412 1.383 . S
C418 C417 1.379 . S
H419 C413 0.959 . S
H420 C413 0.961 . S
H421 C413 0.960 . S
H422 C414 0.930 . S
H423 C415 0.929 . S
H424 C432 0.929 . S
H425 C434 0.930 . S
H426 C436 0.930 . S
H427 C439 0.929 . S
H428 C442 0.930 . S
H429 C444 0.960 . S
H430 C444 0.960 . S
H431 C444 0.960 . S
C432 H424 0.929 . S
C432 C433 1.377 . S
C432 C434 1.384 . S
C433 C432 1.377 . S
C433 C439 1.390 . S
C434 H425 0.930 . S
C434 C432 1.384 . S
C434 C435 1.372 . S
C435 C434 1.372 . S
C435 C436 1.400 . S
C435 C440 1.490 . S
C436 H426 0.930 . S
C436 C435 1.400 . S
C436 C439 1.386 . S
H437 C453 0.930 . S
H438 C454 0.931 . S
C439 H427 0.929 . S
C439 C433 1.390 . S
C439 C436 1.386 . S
C440 C435 1.490 . S
C440 C442 1.395 . S
C440 C443 1.403 . S
H441 C447 0.930 . S
C442 H428 0.930 . S
C442 C440 1.395 . S
C442 C445 1.403 . S
C443 C440 1.403 . S
C443 C444 1.524 . S
C443 C447 1.400 . S
C444 H429 0.960 . S
C444 H430 0.960 . S
C444 H431 0.960 . S
C444 C443 1.524 . S
C445 C442 1.403 . S
C445 C446 1.392 . S
C445 C449 1.495 . S
C446 C445 1.392 . S
C446 C447 1.385 . S
C446 C448 1.478 . S
C447 H441 0.930 . S
C447 C443 1.400 . S
C447 C446 1.385 . S
C448 C446 1.478 . S
C448 C450 1.381 . S
C448 C454 1.383 . S
C449 C445 1.495 . S
C449 H455 0.959 . S
C449 H456 0.961 . S
C449 H457 0.960 . S
C450 C448 1.381 . S
C450 C451 1.394 . S
C450 H458 0.930 . S
C451 C450 1.394 . S
C451 C452 1.383 . S
C451 H459 0.929 . S
C452 C451 1.383 . S
C452 C453 1.377 . S
C453 H437 0.930 . S
C453 C452 1.377 . S
C453 C454 1.379 . S
C454 H438 0.931 . S
C454 C448 1.383 . S
C454 C453 1.379 . S
H455 C449 0.959 . S
H456 C449 0.961 . S
H457 C449 0.960 . S
H458 C450 0.930 . S
H459 C451 0.929 . S
H460 C468 0.929 . S
H461 C470 0.930 . S
H462 C472 0.930 . S
H463 C475 0.929 . S
H464 C478 0.930 . S
H465 C480 0.960 . S
H466 C480 0.960 . S
H467 C480 0.960 . S
C468 H460 0.929 . S
C468 C469 1.377 . S
C468 C470 1.384 . S
C469 C468 1.377 . S
C469 C475 1.390 . S
C470 H461 0.930 . S
C470 C468 1.384 . S
C470 C471 1.372 . S
C471 C470 1.372 . S
C471 C472 1.400 . S
C471 C476 1.490 . S
C472 H462 0.930 . S
C472 C471 1.400 . S
C472 C475 1.386 . S
H473 C489 0.930 . S
H474 C490 0.931 . S
C475 H463 0.929 . S
C475 C469 1.390 . S
C475 C472 1.386 . S
C476 C471 1.490 . S
C476 C478 1.395 . S
C476 C479 1.403 . S
H477 C483 0.930 . S
C478 H464 0.930 . S
C478 C476 1.395 . S
C478 C481 1.403 . S
C479 C476 1.403 . S
C479 C480 1.524 . S
C479 C483 1.400 . S
C480 H465 0.960 . S
C480 H466 0.960 . S
C480 H467 0.960 . S
C480 C479 1.524 . S
C481 C478 1.403 . S
C481 C482 1.392 . S
C481 C485 1.495 . S
C482 C481 1.392 . S
C482 C483 1.385 . S
C482 C484 1.478 . S
C483 H477 0.930 . S
C483 C479 1.400 . S
C483 C482 1.385 . S
C484 C482 1.478 . S
C484 C486 1.381 . S
C484 C490 1.383 . S
C485 C481 1.495 . S
C485 H491 0.959 . S
C485 H492 0.961 . S
C485 H493 0.960 . S
C486 C484 1.381 . S
C486 C487 1.394 . S
C486 H494 0.930 . S
C487 C486 1.394 . S
C487 C488 1.383 . S
C487 H495 0.929 . S
C488 C487 1.383 . S
C488 C489 1.377 . S
C489 H473 0.930 . S
C489 C488 1.377 . S
C489 C490 1.379 . S
C490 H474 0.931 . S
C490 C484 1.383 . S
C490 C489 1.379 . S
H491 C485 0.959 . S
H492 C485 0.961 . S
H493 C485 0.960 . S
H494 C486 0.930 . S
H495 C487 0.929 . S
H496 C504 0.929 . S
H497 C506 0.930 . S
H498 C508 0.930 . S
H499 C511 0.929 . S
H500 C514 0.930 . S
H501 C516 0.960 . S
H502 C516 0.960 . S
H503 C516 0.960 . S
C504 H496 0.929 . S
C504 C505 1.377 . S
C504 C506 1.384 . S
C505 C504 1.377 . S
C505 C511 1.390 . S
C506 H497 0.930 . S
C506 C504 1.384 . S
C506 C507 1.372 . S
C507 C506 1.372 . S
C507 C508 1.400 . S
C507 C512 1.490 . S
C508 H498 0.930 . S
C508 C507 1.400 . S
C508 C511 1.386 . S
H509 C525 0.930 . S
H510 C526 0.931 . S
C511 H499 0.929 . S
C511 C505 1.390 . S
C511 C508 1.386 . S
C512 C507 1.490 . S
C512 C514 1.395 . S
C512 C515 1.403 . S
H513 C519 0.930 . S
C514 H500 0.930 . S
C514 C512 1.395 . S
C514 C517 1.403 . S
C515 C512 1.403 . S
C515 C516 1.524 . S
C515 C519 1.400 . S
C516 H501 0.960 . S
C516 H502 0.960 . S
C516 H503 0.960 . S
C516 C515 1.524 . S
C517 C514 1.403 . S
C517 C518 1.392 . S
C517 C521 1.495 . S
C518 C517 1.392 . S
C518 C519 1.385 . S
C518 C520 1.478 . S
C519 H513 0.930 . S
C519 C515 1.400 . S
C519 C518 1.385 . S
C520 C518 1.478 . S
C520 C522 1.381 . S
C520 C526 1.383 . S
C521 C517 1.495 . S
C521 H527 0.959 . S
C521 H528 0.961 . S
C521 H529 0.960 . S
C522 C520 1.381 . S
C522 C523 1.394 . S
C522 H530 0.930 . S
C523 C522 1.394 . S
C523 C524 1.383 . S
C523 H531 0.929 . S
C524 C523 1.383 . S
C524 C525 1.377 . S
C525 H509 0.930 . S
C525 C524 1.377 . S
C525 C526 1.379 . S
C526 H510 0.931 . S
C526 C520 1.383 . S
C526 C525 1.379 . S
H527 C521 0.959 . S
H528 C521 0.961 . S
H529 C521 0.960 . S
H530 C522 0.930 . S
H531 C523 0.929 . S
H532 C540 0.929 . S
H533 C542 0.930 . S
H534 C544 0.930 . S
H535 C547 0.929 . S
H536 C550 0.930 . S
H537 C552 0.960 . S
H538 C552 0.960 . S
H539 C552 0.960 . S
C540 H532 0.929 . S
C540 C541 1.377 . S
C540 C542 1.384 . S
C541 C540 1.377 . S
C541 C547 1.390 . S
C542 H533 0.930 . S
C542 C540 1.384 . S
C542 C543 1.372 . S
C543 C542 1.372 . S
C543 C544 1.400 . S
C543 C548 1.490 . S
C544 H534 0.930 . S
C544 C543 1.400 . S
C544 C547 1.386 . S
H545 C561 0.930 . S
H546 C562 0.931 . S
C547 H535 0.929 . S
C547 C541 1.390 . S
C547 C544 1.386 . S
C548 C543 1.490 . S
C548 C550 1.395 . S
C548 C551 1.403 . S
H549 C555 0.930 . S
C550 H536 0.930 . S
C550 C548 1.395 . S
C550 C553 1.403 . S
C551 C548 1.403 . S
C551 C552 1.524 . S
C551 C555 1.400 . S
C552 H537 0.960 . S
C552 H538 0.960 . S
C552 H539 0.960 . S
C552 C551 1.524 . S
C553 C550 1.403 . S
C553 C554 1.392 . S
C553 C557 1.495 . S
C554 C553 1.392 . S
C554 C555 1.385 . S
C554 C556 1.478 . S
C555 H549 0.930 . S
C555 C551 1.400 . S
C555 C554 1.385 . S
C556 C554 1.478 . S
C556 C558 1.381 . S
C556 C562 1.383 . S
C557 C553 1.495 . S
C557 H563 0.959 . S
C557 H564 0.961 . S
C557 H565 0.960 . S
C558 C556 1.381 . S
C558 C559 1.394 . S
C558 H566 0.930 . S
C559 C558 1.394 . S
C559 C560 1.383 . S
C559 H567 0.929 . S
C560 C559 1.383 . S
C560 C561 1.377 . S
C561 H545 0.930 . S
C561 C560 1.377 . S
C561 C562 1.379 . S
C562 H546 0.931 . S
C562 C556 1.383 . S
C562 C561 1.379 . S
H563 C557 0.959 . S
H564 C557 0.961 . S
H565 C557 0.960 . S
H566 C558 0.930 . S
H567 C559 0.929 . S
H568 C576 0.929 . S
H569 C578 0.930 . S
H570 C580 0.930 . S
H571 C583 0.929 . S
H572 C586 0.930 . S
H573 C588 0.960 . S
H574 C588 0.960 . S
H575 C588 0.960 . S
C576 H568 0.929 . S
C576 C577 1.377 . S
C576 C578 1.384 . S
C577 C576 1.377 . S
C577 C583 1.390 . S
C578 H569 0.930 . S
C578 C576 1.384 . S
C578 C579 1.372 . S
C579 C578 1.372 . S
C579 C580 1.400 . S
C579 C584 1.490 . S
C580 H570 0.930 . S
C580 C579 1.400 . S
C580 C583 1.386 . S
H581 C597 0.930 . S
H582 C598 0.931 . S
C583 H571 0.929 . S
C583 C577 1.390 . S
C583 C580 1.386 . S
C584 C579 1.490 . S
C584 C586 1.395 . S
C584 C587 1.403 . S
H585 C591 0.930 . S
C586 H572 0.930 . S
C586 C584 1.395 . S
C586 C589 1.403 . S
C587 C584 1.403 . S
C587 C588 1.524 . S
C587 C591 1.400 . S
C588 H573 0.960 . S
C588 H574 0.960 . S
C588 H575 0.960 . S
C588 C587 1.524 . S
C589 C586 1.403 . S
C589 C590 1.392 . S
C589 C593 1.495 . S
C590 C589 1.392 . S
C590 C591 1.385 . S
C590 C592 1.478 . S
C591 H585 0.930 . S
C591 C587 1.400 . S
C591 C590 1.385 . S
C592 C590 1.478 . S
C592 C594 1.381 . S
C592 C598 1.383 . S
C593 C589 1.495 . S
C593 H599 0.959 . S
C593 H600 0.961 . S
C593 H601 0.960 . S
C594 C592 1.381 . S
C594 C595 1.394 . S
C594 H602 0.930 . S
C595 C594 1.394 . S
C595 C596 1.383 . S
C595 H603 0.929 . S
C596 C595 1.383 . S
C596 C597 1.377 . S
C597 H581 0.930 . S
C597 C596 1.377 . S
C597 C598 1.379 . S
C598 H582 0.931 . S
C598 C592 1.383 . S
C598 C597 1.379 . S
H599 C593 0.959 . S
H600 C593 0.961 . S
H601 C593 0.960 . S
H602 C594 0.930 . S
H603 C595 0.929 . S
H604 C612 0.929 . S
H605 C614 0.930 . S
H606 C616 0.930 . S
H607 C619 0.929 . S
H608 C622 0.930 . S
H609 C624 0.960 . S
H610 C624 0.960 . S
H611 C624 0.960 . S
C612 H604 0.929 . S
C612 C613 1.377 . S
C612 C614 1.384 . S
C613 C612 1.377 . S
C613 C619 1.390 . S
C614 H605 0.930 . S
C614 C612 1.384 . S
C614 C615 1.372 . S
C615 C614 1.372 . S
C615 C616 1.400 . S
C615 C620 1.490 . S
C616 H606 0.930 . S
C616 C615 1.400 . S
C616 C619 1.386 . S
H617 C633 0.930 . S
H618 C634 0.931 . S
C619 H607 0.929 . S
C619 C613 1.390 . S
C619 C616 1.386 . S
C620 C615 1.490 . S
C620 C622 1.395 . S
C620 C623 1.403 . S
H621 C627 0.930 . S
C622 H608 0.930 . S
C622 C620 1.395 . S
C622 C625 1.403 . S
C623 C620 1.403 . S
C623 C624 1.524 . S
C623 C627 1.400 . S
C624 H609 0.960 . S
C624 H610 0.960 . S
C624 H611 0.960 . S
C624 C623 1.524 . S
C625 C622 1.403 . S
C625 C626 1.392 . S
C625 C629 1.495 . S
C626 C625 1.392 . S
C626 C627 1.385 . S
C626 C628 1.478 . S
C627 H621 0.930 . S
C627 C623 1.400 . S
C627 C626 1.385 . S
C628 C626 1.478 . S
C628 C630 1.381 . S
C628 C634 1.383 . S
C629 C625 1.495 . S
C629 H635 0.959 . S
C629 H636 0.961 . S
C629 H637 0.960 . S
C630 C628 1.381 . S
C630 C631 1.394 . S
C630 H638 0.930 . S
C631 C630 1.394 . S
C631 C632 1.383 . S
C631 H639 0.929 . S
C632 C631 1.383 . S
C632 C633 1.377 . S
C633 H617 0.930 . S
C633 C632 1.377 . S
C633 C634 1.379 . S
C634 H618 0.931 . S
C634 C628 1.383 . S
C634 C633 1.379 . S
H635 C629 0.959 . S
H636 C629 0.961 . S
H637 C629 0.960 . S
H638 C630 0.930 . S
H639 C631 0.929 . S
H640 C648 0.929 . S
H641 C650 0.930 1_545 S
H642 C652 0.930 . S
H643 C655 0.929 . S
H644 C658 0.930 . S
H645 C660 0.960 . S
H646 C660 0.960 . S
H647 C660 0.936 1_565 S
C648 H640 0.929 . S
C648 C649 1.377 . S
C648 C650 1.384 . S
C649 C648 1.377 . S
C649 C655 1.390 . S
C650 H641 0.930 1_565 S
C650 C648 1.384 . S
C650 C651 1.371 1_565 S
C651 C650 1.371 1_545 S
C651 C652 1.397 1_545 S
C651 C656 1.494 . S
C652 H642 0.930 . S
C652 C651 1.397 1_565 S
C652 C655 1.386 . S
H653 C669 0.930 . S
H654 C670 0.931 . S
C655 H643 0.929 . S
C655 C649 1.390 . S
C655 C652 1.386 . S
C656 C651 1.494 . S
C656 C658 1.395 . S
C656 C659 1.403 . S
H657 C663 0.930 . S
C658 H644 0.930 . S
C658 C656 1.395 . S
C658 C661 1.403 . S
C659 C656 1.403 . S
C659 C660 1.524 . S
C659 C663 1.400 . S
C660 H645 0.960 . S
C660 H646 0.960 . S
C660 H647 0.936 1_545 S
C660 C659 1.524 . S
C661 C658 1.403 . S
C661 C662 1.392 . S
C661 C665 1.495 . S
C662 C661 1.392 . S
C662 C663 1.385 . S
C662 C664 1.478 . S
C663 H657 0.930 . S
C663 C659 1.400 . S
C663 C662 1.385 . S
C664 C662 1.478 . S
C664 C666 1.381 . S
C664 C670 1.383 . S
C665 C661 1.495 . S
C665 H671 0.959 . S
C665 H672 0.961 . S
C665 H673 0.960 . S
C666 C664 1.381 . S
C666 C667 1.394 . S
C666 H674 0.930 . S
C667 C666 1.394 . S
C667 C668 1.383 . S
C667 H675 0.929 . S
C668 C667 1.383 . S
C668 C669 1.377 . S
C669 H653 0.930 . S
C669 C668 1.377 . S
C669 C670 1.379 . S
C670 H654 0.931 . S
C670 C664 1.383 . S
C670 C669 1.379 . S
H671 C665 0.959 . S
H672 C665 0.961 . S
H673 C665 0.960 . S
H674 C666 0.930 . S
H675 C667 0.929 . S
H676 C684 0.929 . S
H677 C686 0.930 . S
H678 C688 0.930 . S
H679 C691 0.929 . S
H680 C694 0.930 . S
H681 C696 0.960 . S
H682 C696 0.960 . S
H683 C696 0.960 . S
C684 H676 0.929 . S
C684 C685 1.377 . S
C684 C686 1.384 . S
C685 C684 1.377 . S
C685 C691 1.390 . S
C686 H677 0.930 . S
C686 C684 1.384 . S
C686 C687 1.372 . S
C687 C686 1.372 . S
C687 C688 1.400 . S
C687 C692 1.490 . S
C688 H678 0.930 . S
C688 C687 1.400 . S
C688 C691 1.386 . S
H689 C705 0.930 . S
H690 C706 0.955 . S
C691 H679 0.929 . S
C691 C685 1.390 . S
C691 C688 1.386 . S
C692 C687 1.490 . S
C692 C694 1.395 . S
C692 C695 1.403 . S
H693 C699 0.930 . S
C694 H680 0.930 . S
C694 C692 1.395 . S
C694 C697 1.403 . S
C695 C692 1.403 . S
C695 C696 1.524 . S
C695 C699 1.400 . S
C696 H681 0.960 . S
C696 H682 0.960 . S
C696 H683 0.960 . S
C696 C695 1.524 . S
C697 C694 1.403 . S
C697 C698 1.392 . S
C697 C701 1.495 . S
C698 C697 1.392 . S
C698 C699 1.385 . S
C698 C700 1.478 1_455 S
C699 H693 0.930 . S
C699 C695 1.400 . S
C699 C698 1.385 . S
C700 C698 1.478 1_655 S
C700 C702 1.381 . S
C700 C706 1.383 . S
C701 C697 1.495 . S
C701 H707 0.959 . S
C701 H708 0.961 1_455 S
C701 H709 0.960 1_455 S
C702 C700 1.381 . S
C702 C703 1.394 . S
C702 H710 0.930 . S
C703 C702 1.394 . S
C703 C704 1.383 . S
C703 H711 0.929 . S
C704 C703 1.383 . S
C704 C705 1.377 . S
C705 H689 0.930 . S
C705 C704 1.377 . S
C705 C706 1.379 . S
C706 H690 0.955 . S
C706 C700 1.383 . S
C706 C705 1.379 . S
H707 C701 0.959 . S
H708 C701 0.961 1_655 S
H709 C701 0.960 1_655 S
H710 C702 0.930 . S
H711 C703 0.929 . S
H712 C720 0.929 . S
H713 C722 0.930 . S
H714 C724 0.930 . S
H715 C727 0.929 . S
H716 C730 0.930 . S
H717 C732 0.960 . S
H718 C732 0.960 . S
H719 C732 0.960 . S
C720 H712 0.929 . S
C720 C721 1.377 . S
C720 C722 1.384 . S
C721 C720 1.377 . S
C721 C727 1.390 . S
C722 H713 0.930 . S
C722 C720 1.384 . S
C722 C723 1.372 . S
C723 C722 1.372 . S
C723 C724 1.400 . S
C723 C728 1.490 . S
C724 H714 0.930 . S
C724 C723 1.400 . S
C724 C727 1.386 . S
H725 C741 0.930 . S
H726 C742 0.931 1_565 S
C727 H715 0.929 . S
C727 C721 1.390 . S
C727 C724 1.386 . S
C728 C723 1.490 . S
C728 C730 1.395 . S
C728 C731 1.403 . S
H729 C735 0.930 . S
C730 H716 0.930 . S
C730 C728 1.395 . S
C730 C733 1.403 . S
C731 C728 1.403 . S
C731 C732 1.524 . S
C731 C735 1.400 . S
C732 H717 0.960 . S
C732 H718 0.960 . S
C732 H719 0.960 . S
C732 C731 1.524 . S
C733 C730 1.403 . S
C733 C734 1.392 . S
C733 C737 1.495 . S
C734 C733 1.392 . S
C734 C735 1.385 . S
C734 C736 1.479 1_565 S
C735 H729 0.930 . S
C735 C731 1.400 . S
C735 C734 1.385 . S
C736 C734 1.479 1_545 S
C736 C738 1.380 . S
C736 C742 1.382 . S
C737 C733 1.495 . S
C737 H743 0.959 . S
C737 H744 0.961 . S
C737 H745 0.960 . S
C738 C736 1.380 . S
C738 C739 1.394 . S
C738 H746 0.930 . S
C739 C738 1.394 . S
C739 C740 1.383 . S
C739 H747 0.929 . S
C740 C739 1.383 . S
C740 C741 1.377 . S
C741 H725 0.930 . S
C741 C740 1.377 . S
C741 C742 1.379 . S
C742 H726 0.931 1_545 S
C742 C736 1.382 . S
C742 C741 1.379 . S
H743 C737 0.959 . S
H744 C737 0.961 . S
H745 C737 0.960 . S
H746 C738 0.930 . S
H747 C739 0.929 . S
H748 C756 0.929 . S
H749 C758 0.930 1_655 S
H750 C760 0.930 . S
H751 C763 0.929 . S
H752 C766 0.930 . S
H753 C768 0.960 . S
H754 C768 0.960 . S
H755 C768 0.923 1_455 S
C756 H748 0.929 . S
C756 C757 1.377 . S
C756 C758 1.384 . S
C757 C756 1.377 . S
C757 C763 1.390 . S
C758 H749 0.930 1_455 S
C758 C756 1.384 . S
C758 C759 1.369 1_455 S
C759 C758 1.369 1_655 S
C759 C760 1.392 1_655 S
C759 C764 1.500 . S
C760 H750 0.930 . S
C760 C759 1.392 1_455 S
C760 C763 1.386 . S
H761 C777 0.930 . S
H762 C778 0.931 . S
C763 H751 0.929 . S
C763 C757 1.390 . S
C763 C760 1.386 . S
C764 C759 1.500 . S
C764 C766 1.395 . S
C764 C767 1.403 . S
H765 C771 0.930 . S
C766 H752 0.930 . S
C766 C764 1.395 . S
C766 C769 1.403 . S
C767 C764 1.403 . S
C767 C768 1.524 . S
C767 C771 1.400 . S
C768 H753 0.960 . S
C768 H754 0.960 . S
C768 H755 0.923 1_655 S
C768 C767 1.524 . S
C769 C766 1.403 . S
C769 C770 1.392 . S
C769 C773 1.495 . S
C770 C769 1.392 . S
C770 C771 1.385 . S
C770 C772 1.478 . S
C771 H765 0.930 . S
C771 C767 1.400 . S
C771 C770 1.385 . S
C772 C770 1.478 . S
C772 C774 1.381 . S
C772 C778 1.383 . S
C773 C769 1.495 . S
C773 H779 0.959 . S
C773 H780 0.961 . S
C773 H781 0.960 . S
C774 C772 1.381 . S
C774 C775 1.394 . S
C774 H782 0.930 . S
C775 C774 1.394 . S
C775 C776 1.383 . S
C775 H783 0.929 . S
C776 C775 1.383 . S
C776 C777 1.377 . S
C777 H761 0.930 . S
C777 C776 1.377 . S
C777 C778 1.379 . S
C778 H762 0.931 . S
C778 C772 1.383 . S
C778 C777 1.379 . S
H779 C773 0.959 . S
H780 C773 0.961 . S
H781 C773 0.960 . S
H782 C774 0.930 . S
H783 C775 0.929 . S
H784 C792 0.929 . S
H785 C794 0.930 . S
H786 C796 0.930 1_565 S
H787 C799 0.929 . S
H788 C802 0.930 . S
H789 C804 0.960 . S
H790 C804 0.960 . S
H791 C804 0.960 . S
C792 H784 0.929 . S
C792 C793 1.377 . S
C792 C794 1.384 . S
C793 C792 1.377 . S
C793 C799 1.390 . S
C794 H785 0.930 . S
C794 C792 1.384 . S
C794 C795 1.393 . S
C795 C794 1.393 . S
C795 C796 1.406 . S
C795 C800 1.463 1_545 S
C796 H786 0.930 1_545 S
C796 C795 1.406 . S
C796 C799 1.386 . S
H797 C813 0.930 . S
H798 C814 0.931 . S
C799 H787 0.929 . S
C799 C793 1.390 . S
C799 C796 1.386 . S
C800 C795 1.463 1_565 S
C800 C802 1.395 . S
C800 C803 1.403 . S
H801 C807 0.930 . S
C802 H788 0.930 . S
C802 C800 1.395 . S
C802 C805 1.403 . S
C803 C800 1.403 . S
C803 C804 1.524 . S
C803 C807 1.400 . S
C804 H789 0.960 . S
C804 H790 0.960 . S
C804 H791 0.960 . S
C804 C803 1.524 . S
C805 C802 1.403 . S
C805 C806 1.392 . S
C805 C809 1.495 . S
C806 C805 1.392 . S
C806 C807 1.385 . S
C806 C808 1.478 . S
C807 H801 0.930 . S
C807 C803 1.400 . S
C807 C806 1.385 . S
C808 C806 1.478 . S
C808 C810 1.381 . S
C808 C814 1.383 . S
C809 C805 1.495 . S
C809 H815 0.959 . S
C809 H816 0.961 . S
C809 H817 0.960 . S
C810 C808 1.381 . S
C810 C811 1.394 . S
C810 H818 0.930 . S
C811 C810 1.394 . S
C811 C812 1.383 . S
C811 H819 0.929 . S
C812 C811 1.383 . S
C812 C813 1.377 . S
C813 H797 0.930 . S
C813 C812 1.377 . S
C813 C814 1.379 . S
C814 H798 0.931 . S
C814 C808 1.383 . S
C814 C813 1.379 . S
H815 C809 0.959 . S
H816 C809 0.961 . S
H817 C809 0.960 . S
H818 C810 0.930 . S
H819 C811 0.929 . S
H820 C828 0.929 . S
H821 C830 0.930 . S
H822 C832 0.930 . S
H823 C835 0.929 . S
H824 C838 0.930 . S
H825 C840 0.960 . S
H826 C840 0.960 . S
H827 C840 0.960 . S
C828 H820 0.929 . S
C828 C829 1.377 . S
C828 C830 1.384 . S
C829 C828 1.377 . S
C829 C835 1.390 . S
C830 H821 0.930 . S
C830 C828 1.384 . S
C830 C831 1.372 . S
C831 C830 1.372 . S
C831 C832 1.400 . S
C831 C836 1.490 . S
C832 H822 0.930 . S
C832 C831 1.400 . S
C832 C835 1.386 . S
H833 C849 0.930 . S
H834 C850 0.931 . S
C835 H823 0.929 . S
C835 C829 1.390 . S
C835 C832 1.386 . S
C836 C831 1.490 . S
C836 C838 1.395 . S
C836 C839 1.403 . S
H837 C843 0.930 . S
C838 H824 0.930 . S
C838 C836 1.395 . S
C838 C841 1.403 . S
C839 C836 1.403 . S
C839 C840 1.524 . S
C839 C843 1.400 . S
C840 H825 0.960 . S
C840 H826 0.960 . S
C840 H827 0.960 . S
C840 C839 1.524 . S
C841 C838 1.403 . S
C841 C842 1.392 . S
C841 C845 1.495 . S
C842 C841 1.392 . S
C842 C843 1.385 . S
C842 C844 1.478 . S
C843 H837 0.930 . S
C843 C839 1.400 . S
C843 C842 1.385 . S
C844 C842 1.478 . S
C844 C846 1.381 1_655 S
C844 C850 1.383 1_655 S
C845 C841 1.495 . S
C845 H851 0.959 . S
C845 H852 0.961 . S
C845 H853 0.960 . S
C846 C844 1.381 1_455 S
C846 C847 1.394 . S
C846 H854 0.929 . S
C847 C846 1.394 . S
C847 C848 1.383 . S
C847 H855 0.929 . S
C848 C847 1.383 . S
C848 C849 1.377 . S
C849 H833 0.930 . S
C849 C848 1.377 . S
C849 C850 1.379 . S
C850 H834 0.931 . S
C850 C844 1.383 1_455 S
C850 C849 1.379 . S
H851 C845 0.959 . S
H852 C845 0.961 . S
H853 C845 0.960 . S
H854 C846 0.929 . S
H855 C847 0.929 . S
H856 C864 0.929 . S
H857 C866 0.930 . S
H858 C868 0.930 . S
H859 C871 0.929 . S
H860 C874 0.930 . S
H861 C876 0.960 . S
H862 C876 0.960 . S
H863 C876 0.960 . S
C864 H856 0.929 . S
C864 C865 1.377 . S
C864 C866 1.384 . S
C865 C864 1.377 . S
C865 C871 1.390 . S
C866 H857 0.930 . S
C866 C864 1.384 . S
C866 C867 1.372 . S
C867 C866 1.372 . S
C867 C868 1.400 . S
C867 C872 1.490 . S
C868 H858 0.930 . S
C868 C867 1.400 . S
C868 C871 1.386 . S
H869 C885 0.930 . S
H870 C886 0.931 . S
C871 H859 0.929 . S
C871 C865 1.390 . S
C871 C868 1.386 . S
C872 C867 1.490 . S
C872 C874 1.395 . S
C872 C875 1.403 . S
H873 C879 0.930 . S
C874 H860 0.930 . S
C874 C872 1.395 . S
C874 C877 1.403 . S
C875 C872 1.403 . S
C875 C876 1.524 . S
C875 C879 1.400 . S
C876 H861 0.960 . S
C876 H862 0.960 . S
C876 H863 0.960 . S
C876 C875 1.524 . S
C877 C874 1.403 . S
C877 C878 1.392 . S
C877 C881 1.495 . S
C878 C877 1.392 . S
C878 C879 1.385 . S
C878 C880 1.478 1_545 S
C879 H873 0.930 . S
C879 C875 1.400 . S
C879 C878 1.385 . S
C880 C878 1.478 1_565 S
C880 C882 1.381 . S
C880 C886 1.383 . S
C881 C877 1.495 . S
C881 H887 0.959 . S
C881 H888 0.983 . S
C881 H889 0.960 . S
C882 C880 1.381 . S
C882 C883 1.394 . S
C882 H890 0.931 . S
C883 C882 1.394 . S
C883 C884 1.383 . S
C883 H891 0.929 . S
C884 C883 1.383 . S
C884 C885 1.377 . S
C885 H869 0.930 . S
C885 C884 1.377 . S
C885 C886 1.379 . S
C886 H870 0.931 . S
C886 C880 1.383 . S
C886 C885 1.379 . S
H887 C881 0.959 . S
H888 C881 0.983 . S
H889 C881 0.960 . S
H890 C882 0.931 . S
H891 C883 0.929 . S
H892 C900 0.929 . S
H893 C902 0.930 . S
H894 C904 0.930 . S
H895 C907 0.929 . S
H896 C910 0.930 . S
H897 C912 0.960 . S
H898 C912 0.960 . S
H899 C912 0.960 . S
C900 H892 0.929 . S
C900 C901 1.377 . S
C900 C902 1.384 . S
C901 C900 1.377 . S
C901 C907 1.390 . S
C902 H893 0.930 . S
C902 C900 1.384 . S
C902 C903 1.372 . S
C903 C902 1.372 . S
C903 C904 1.400 . S
C903 C908 1.490 . S
C904 H894 0.930 . S
C904 C903 1.400 . S
C904 C907 1.386 . S
H905 C921 0.930 . S
H906 C922 0.931 1_455 S
C907 H895 0.929 . S
C907 C901 1.390 . S
C907 C904 1.386 . S
C908 C903 1.490 . S
C908 C910 1.395 . S
C908 C911 1.403 . S
H909 C915 0.930 . S
C910 H896 0.930 . S
C910 C908 1.395 . S
C910 C913 1.403 . S
C911 C908 1.403 . S
C911 C912 1.524 . S
C911 C915 1.400 . S
C912 H897 0.960 . S
C912 H898 0.960 . S
C912 H899 0.960 . S
C912 C911 1.524 . S
C913 C910 1.403 . S
C913 C914 1.392 . S
C913 C917 1.495 . S
C914 C913 1.392 . S
C914 C915 1.385 . S
C914 C916 1.485 . S
C915 H909 0.930 . S
C915 C911 1.400 . S
C915 C914 1.385 . S
C916 C914 1.485 . S
C916 C918 1.375 1_455 S
C916 C922 1.381 1_455 S
C917 C913 1.495 . S
C917 H923 0.959 . S
C917 H924 0.961 . S
C917 H925 0.960 . S
C918 C916 1.375 1_655 S
C918 C919 1.394 . S
C918 H926 0.930 . S
C919 C918 1.394 . S
C919 C920 1.383 . S
C919 H927 0.929 . S
C920 C919 1.383 . S
C920 C921 1.377 . S
C921 H905 0.930 . S
C921 C920 1.377 . S
C921 C922 1.379 . S
C922 H906 0.931 1_655 S
C922 C916 1.381 1_655 S
C922 C921 1.379 . S
H923 C917 0.959 . S
H924 C917 0.961 . S
H925 C917 0.960 . S
H926 C918 0.930 . S
H927 C919 0.929 . S
H928 C936 0.929 . S
H929 C938 0.930 . S
H930 C940 0.930 . S
H931 C943 0.929 . S
H932 C946 0.930 . S
H933 C948 0.960 . S
H934 C948 0.960 . S
H935 C948 0.960 . S
C936 H928 0.929 . S
C936 C937 1.377 . S
C936 C938 1.384 . S
C937 C936 1.377 . S
C937 C943 1.390 . S
C938 H929 0.930 . S
C938 C936 1.384 . S
C938 C939 1.372 . S
C939 C938 1.372 . S
C939 C940 1.400 . S
C939 C944 1.490 . S
C940 H930 0.930 . S
C940 C939 1.400 . S
C940 C943 1.386 . S
H941 C957 0.930 . S
H942 C958 0.931 . S
C943 H931 0.929 . S
C943 C937 1.390 . S
C943 C940 1.386 . S
C944 C939 1.490 . S
C944 C946 1.395 . S
C944 C947 1.403 . S
H945 C951 0.930 . S
C946 H932 0.930 . S
C946 C944 1.395 . S
C946 C949 1.403 . S
C947 C944 1.403 . S
C947 C948 1.524 . S
C947 C951 1.400 . S
C948 H933 0.960 . S
C948 H934 0.960 . S
C948 H935 0.960 . S
C948 C947 1.524 . S
C949 C946 1.403 . S
C949 C950 1.392 . S
C949 C953 1.495 . S
C950 C949 1.392 . S
C950 C951 1.385 . S
C950 C952 1.478 . S
C951 H945 0.930 . S
C951 C947 1.400 . S
C951 C950 1.385 . S
C952 C950 1.478 . S
C952 C954 1.381 . S
C952 C958 1.383 . S
C953 C949 1.495 . S
C953 H959 0.959 . S
C953 H960 0.961 . S
C953 H961 0.960 . S
C954 C952 1.381 . S
C954 C955 1.394 . S
C954 H962 0.930 . S
C955 C954 1.394 . S
C955 C956 1.383 . S
C955 H963 0.929 . S
C956 C955 1.383 . S
C956 C957 1.377 . S
C957 H941 0.930 . S
C957 C956 1.377 . S
C957 C958 1.379 . S
C958 H942 0.931 . S
C958 C952 1.383 . S
C958 C957 1.379 . S
H959 C953 0.959 . S
H960 C953 0.961 . S
H961 C953 0.960 . S
H962 C954 0.930 . S
H963 C955 0.929 . S
H964 C972 0.929 . S
H965 C974 0.930 . S
H966 C976 0.930 . S
H967 C979 0.929 . S
H968 C982 0.930 . S
H969 C984 0.960 . S
H970 C984 0.960 . S
H971 C984 0.960 . S
C972 H964 0.929 . S
C972 C973 1.377 . S
C972 C974 1.384 . S
C973 C972 1.377 . S
C973 C979 1.390 . S
C974 H965 0.930 . S
C974 C972 1.384 . S
C974 C975 1.372 . S
C975 C974 1.372 . S
C975 C976 1.400 . S
C975 C980 1.490 . S
C976 H966 0.930 . S
C976 C975 1.400 . S
C976 C979 1.386 . S
H977 C993 0.930 . S
H978 C994 0.931 . S
C979 H967 0.929 . S
C979 C973 1.390 . S
C979 C976 1.386 . S
C980 C975 1.490 . S
C980 C982 1.395 . S
C980 C983 1.403 . S
H981 C987 0.930 . S
C982 H968 0.930 . S
C982 C980 1.395 . S
C982 C985 1.403 . S
C983 C980 1.403 . S
C983 C984 1.524 . S
C983 C987 1.400 . S
C984 H969 0.960 . S
C984 H970 0.960 . S
C984 H971 0.960 . S
C984 C983 1.524 . S
C985 C982 1.403 . S
C985 C986 1.392 . S
C985 C989 1.495 . S
C986 C985 1.392 . S
C986 C987 1.385 . S
C986 C988 1.478 . S
C987 H981 0.930 . S
C987 C983 1.400 . S
C987 C986 1.385 . S
C988 C986 1.478 . S
C988 C990 1.381 . S
C988 C994 1.383 . S
C989 C985 1.495 . S
C989 H995 0.959 . S
C989 H996 0.961 . S
C989 H997 0.960 . S
C990 C988 1.381 . S
C990 C991 1.394 . S
C990 H998 0.930 . S
C991 C990 1.394 . S
C991 C992 1.383 . S
C991 H999 0.929 . S
C992 C991 1.383 . S
C992 C993 1.377 . S
C993 H977 0.930 . S
C993 C992 1.377 . S
C993 C994 1.379 . S
C994 H978 0.931 . S
C994 C988 1.383 . S
C994 C993 1.379 . S
H995 C989 0.959 . S
H996 C989 0.961 . S
H997 C989 0.960 . S
H998 C990 0.930 . S
H999 C991 0.929 . S
H1000 C1008 0.929 . S
H1001 C1010 0.930 . S
H1002 C1012 0.930 . S
H1003 C1015 0.929 . S
H1004 C1018 0.930 . S
H1005 C1020 0.960 . S
H1006 C1020 0.960 . S
H1007 C1020 0.960 . S
C1008 H1000 0.929 . S
C1008 C1009 1.377 . S
C1008 C1010 1.384 . S
C1009 C1008 1.377 . S
C1009 C1015 1.390 . S
C1010 H1001 0.930 . S
C1010 C1008 1.384 . S
C1010 C1011 1.372 . S
C1011 C1010 1.372 . S
C1011 C1012 1.400 . S
C1011 C1016 1.490 . S
C1012 H1002 0.930 . S
C1012 C1011 1.400 . S
C1012 C1015 1.386 . S
H1013 C1029 0.930 . S
H1014 C1030 0.931 . S
C1015 H1003 0.929 . S
C1015 C1009 1.390 . S
C1015 C1012 1.386 . S
C1016 C1011 1.490 . S
C1016 C1018 1.395 . S
C1016 C1019 1.403 . S
H1017 C1023 0.930 . S
C1018 H1004 0.930 . S
C1018 C1016 1.395 . S
C1018 C1021 1.403 . S
C1019 C1016 1.403 . S
C1019 C1020 1.524 . S
C1019 C1023 1.400 . S
C1020 H1005 0.960 . S
C1020 H1006 0.960 . S
C1020 H1007 0.960 . S
C1020 C1019 1.524 . S
C1021 C1018 1.403 . S
C1021 C1022 1.392 . S
C1021 C1025 1.495 . S
C1022 C1021 1.392 . S
C1022 C1023 1.385 . S
C1022 C1024 1.478 . S
C1023 H1017 0.930 . S
C1023 C1019 1.400 . S
C1023 C1022 1.385 . S
C1024 C1022 1.478 . S
C1024 C1026 1.381 . S
C1024 C1030 1.383 . S
C1025 C1021 1.495 . S
C1025 H1031 0.959 . S
C1025 H1032 0.961 . S
C1025 H1033 0.960 . S
C1026 C1024 1.381 . S
C1026 C1027 1.394 . S
C1026 H1034 0.930 . S
C1027 C1026 1.394 . S
C1027 C1028 1.383 . S
C1027 H1035 0.929 . S
C1028 C1027 1.383 . S
C1028 C1029 1.377 . S
C1029 H1013 0.930 . S
C1029 C1028 1.377 . S
C1029 C1030 1.379 . S
C1030 H1014 0.931 . S
C1030 C1024 1.383 . S
C1030 C1029 1.379 . S
H1031 C1025 0.959 . S
H1032 C1025 0.961 . S
H1033 C1025 0.960 . S
H1034 C1026 0.930 . S
H1035 C1027 0.929 . S
H1036 C1044 0.929 . S
H1037 C1046 0.930 . S
H1038 C1048 0.930 . S
H1039 C1051 0.929 . S
H1040 C1054 0.930 . S
H1041 C1056 0.960 . S
H1042 C1056 0.960 . S
H1043 C1056 0.960 . S
C1044 H1036 0.929 . S
C1044 C1045 1.377 . S
C1044 C1046 1.384 . S
C1045 C1044 1.377 . S
C1045 C1051 1.390 . S
C1046 H1037 0.930 . S
C1046 C1044 1.384 . S
C1046 C1047 1.372 . S
C1047 C1046 1.372 . S
C1047 C1048 1.400 . S
C1047 C1052 1.490 . S
C1048 H1038 0.930 . S
C1048 C1047 1.400 . S
C1048 C1051 1.386 . S
H1049 C1065 0.930 . S
H1050 C1066 0.931 . S
C1051 H1039 0.929 . S
C1051 C1045 1.390 . S
C1051 C1048 1.386 . S
C1052 C1047 1.490 . S
C1052 C1054 1.395 . S
C1052 C1055 1.403 . S
H1053 C1059 0.930 . S
C1054 H1040 0.930 . S
C1054 C1052 1.395 . S
C1054 C1057 1.403 . S
C1055 C1052 1.403 . S
C1055 C1056 1.524 . S
C1055 C1059 1.400 . S
C1056 H1041 0.960 . S
C1056 H1042 0.960 . S
C1056 H1043 0.960 . S
C1056 C1055 1.524 . S
C1057 C1054 1.403 . S
C1057 C1058 1.392 . S
C1057 C1061 1.495 . S
C1058 C1057 1.392 . S
C1058 C1059 1.385 . S
C1058 C1060 1.478 . S
C1059 H1053 0.930 . S
C1059 C1055 1.400 . S
C1059 C1058 1.385 . S
C1060 C1058 1.478 . S
C1060 C1062 1.381 . S
C1060 C1066 1.383 . S
C1061 C1057 1.495 . S
C1061 H1067 0.959 . S
C1061 H1068 0.961 . S
C1061 H1069 0.960 . S
C1062 C1060 1.381 . S
C1062 C1063 1.394 . S
C1062 H1070 0.930 . S
C1063 C1062 1.394 . S
C1063 C1064 1.383 . S
C1063 H1071 0.929 . S
C1064 C1063 1.383 . S
C1064 C1065 1.377 . S
C1065 H1049 0.930 . S
C1065 C1064 1.377 . S
C1065 C1066 1.379 . S
C1066 H1050 0.931 . S
C1066 C1060 1.383 . S
C1066 C1065 1.379 . S
H1067 C1061 0.959 . S
H1068 C1061 0.961 . S
H1069 C1061 0.960 . S
H1070 C1062 0.930 . S
H1071 C1063 0.929 . S
H1072 C1080 0.929 . S
H1073 C1082 0.930 . S
H1074 C1084 0.930 . S
H1075 C1087 0.929 . S
H1076 C1090 0.930 . S
H1077 C1092 0.960 . S
H1078 C1092 0.960 . S
H1079 C1092 0.960 . S
C1080 H1072 0.929 . S
C1080 C1081 1.377 . S
C1080 C1082 1.384 . S
C1081 C1080 1.377 . S
C1081 C1087 1.390 . S
C1082 H1073 0.930 . S
C1082 C1080 1.384 . S
C1082 C1083 1.372 . S
C1083 C1082 1.372 . S
C1083 C1084 1.400 . S
C1083 C1088 1.490 . S
C1084 H1074 0.930 . S
C1084 C1083 1.400 . S
C1084 C1087 1.386 . S
H1085 C1101 0.930 . S
H1086 C1102 0.931 . S
C1087 H1075 0.929 . S
C1087 C1081 1.390 . S
C1087 C1084 1.386 . S
C1088 C1083 1.490 . S
C1088 C1090 1.395 1_545 S
C1088 C1091 1.403 1_554 S
H1089 C1095 0.930 . S
C1090 H1076 0.930 . S
C1090 C1088 1.395 1_565 S
C1090 C1093 1.403 . S
C1091 C1088 1.403 1_556 S
C1091 C1092 1.524 . S
C1091 C1095 1.400 . S
C1092 H1077 0.960 . S
C1092 H1078 0.960 . S
C1092 H1079 0.960 . S
C1092 C1091 1.524 . S
C1093 C1090 1.403 . S
C1093 C1094 1.392 1_554 S
C1093 C1097 1.495 . S
C1094 C1093 1.392 1_556 S
C1094 C1095 1.385 1_565 S
C1094 C1096 1.478 . S
C1095 H1089 0.930 . S
C1095 C1091 1.400 . S
C1095 C1094 1.385 1_545 S
C1096 C1094 1.478 . S
C1096 C1098 1.381 . S
C1096 C1102 1.383 . S
C1097 C1093 1.495 . S
C1097 H1103 0.959 . S
C1097 H1104 0.961 . S
C1097 H1105 0.960 . S
C1098 C1096 1.381 . S
C1098 C1099 1.394 . S
C1098 H1106 0.930 . S
C1099 C1098 1.394 . S
C1099 C1100 1.383 . S
C1099 H1107 0.929 . S
C1100 C1099 1.383 . S
C1100 C1101 1.377 . S
C1101 H1085 0.930 . S
C1101 C1100 1.377 . S
C1101 C1102 1.379 . S
C1102 H1086 0.931 . S
C1102 C1096 1.383 . S
C1102 C1101 1.379 . S
H1103 C1097 0.959 . S
H1104 C1097 0.961 . S
H1105 C1097 0.960 . S
H1106 C1098 0.930 . S
H1107 C1099 0.929 . S
H1108 C1116 0.929 . S
H1109 C1118 0.930 . S
H1110 C1120 0.930 . S
H1111 C1123 0.929 . S
H1112 C1126 0.930 . S
H1113 C1128 0.960 . S
H1114 C1128 0.960 . S
H1115 C1128 0.960 . S
C1116 H1108 0.929 . S
C1116 C1117 1.377 . S
C1116 C1118 1.384 . S
C1117 C1116 1.377 . S
C1117 C1123 1.390 . S
C1118 H1109 0.930 . S
C1118 C1116 1.384 . S
C1118 C1119 1.372 . S
C1119 C1118 1.372 . S
C1119 C1120 1.400 . S
C1119 C1124 1.490 . S
C1120 H1110 0.930 . S
C1120 C1119 1.400 . S
C1120 C1123 1.386 . S
H1121 C1137 0.930 . S
H1122 C1138 0.931 . S
C1123 H1111 0.929 . S
C1123 C1117 1.390 . S
C1123 C1120 1.386 . S
C1124 C1119 1.490 . S
C1124 C1126 1.395 1_655 S
C1124 C1127 1.403 1_554 S
H1125 C1131 0.930 . S
C1126 H1112 0.930 . S
C1126 C1124 1.395 1_455 S
C1126 C1129 1.403 . S
C1127 C1124 1.403 1_556 S
C1127 C1128 1.524 . S
C1127 C1131 1.400 . S
C1128 H1113 0.960 . S
C1128 H1114 0.960 . S
C1128 H1115 0.960 . S
C1128 C1127 1.524 . S
C1129 C1126 1.403 . S
C1129 C1130 1.392 1_554 S
C1129 C1133 1.495 . S
C1130 C1129 1.392 1_556 S
C1130 C1131 1.385 1_455 S
C1130 C1132 1.478 . S
C1131 H1125 0.930 . S
C1131 C1127 1.400 . S
C1131 C1130 1.385 1_655 S
C1132 C1130 1.478 . S
C1132 C1134 1.381 . S
C1132 C1138 1.383 . S
C1133 C1129 1.495 . S
C1133 H1139 0.959 . S
C1133 H1140 0.961 . S
C1133 H1141 0.960 . S
C1134 C1132 1.381 . S
C1134 C1135 1.394 . S
C1134 H1142 0.930 . S
C1135 C1134 1.394 . S
C1135 C1136 1.383 . S
C1135 H1143 0.929 . S
C1136 C1135 1.383 . S
C1136 C1137 1.377 . S
C1137 H1121 0.930 . S
C1137 C1136 1.377 . S
C1137 C1138 1.379 . S
C1138 H1122 0.931 . S
C1138 C1132 1.383 . S
C1138 C1137 1.379 . S
H1139 C1133 0.959 . S
H1140 C1133 0.961 . S
H1141 C1133 0.960 . S
H1142 C1134 0.930 . S
H1143 C1135 0.929 . S
H1144 C1152 0.929 . S
H1145 C1154 0.930 . S
H1146 C1156 0.930 . S
H1147 C1159 0.929 . S
H1148 C1162 0.930 . S
H1149 C1164 0.960 . S
H1150 C1164 0.960 . S
H1151 C1164 0.960 . S
C1152 H1144 0.929 . S
C1152 C1153 1.377 . S
C1152 C1154 1.384 . S
C1153 C1152 1.377 . S
C1153 C1159 1.390 . S
C1154 H1145 0.930 . S
C1154 C1152 1.384 . S
C1154 C1155 1.372 . S
C1155 C1154 1.372 . S
C1155 C1156 1.400 . S
C1155 C1160 1.490 . S
C1156 H1146 0.930 . S
C1156 C1155 1.400 . S
C1156 C1159 1.386 . S
H1157 C1173 0.930 . S
H1158 C1174 0.931 . S
C1159 H1147 0.929 . S
C1159 C1153 1.390 . S
C1159 C1156 1.386 . S
C1160 C1155 1.490 . S
C1160 C1162 1.395 1_556 S
C1160 C1163 1.403 1_545 S
H1161 C1167 0.932 . S
C1162 H1148 0.930 . S
C1162 C1160 1.395 1_554 S
C1162 C1165 1.403 . S
C1163 C1160 1.403 1_565 S
C1163 C1164 1.524 . S
C1163 C1167 1.416 . S
C1164 H1149 0.960 . S
C1164 H1150 0.960 . S
C1164 H1151 0.960 . S
C1164 C1163 1.524 . S
C1165 C1162 1.403 . S
C1165 C1166 1.392 1_545 S
C1165 C1169 1.495 . S
C1166 C1165 1.392 1_565 S
C1166 C1167 1.367 1_554 S
C1166 C1168 1.478 . S
C1167 H1161 0.932 . S
C1167 C1163 1.416 . S
C1167 C1166 1.367 1_556 S
C1168 C1166 1.478 . S
C1168 C1170 1.381 . S
C1168 C1174 1.383 . S
C1169 C1165 1.495 . S
C1169 H1175 0.959 . S
C1169 H1176 0.961 . S
C1169 H1177 0.960 . S
C1170 C1168 1.381 . S
C1170 C1171 1.394 . S
C1170 H1178 0.930 . S
C1171 C1170 1.394 . S
C1171 C1172 1.383 . S
C1171 H1179 0.929 . S
C1172 C1171 1.383 . S
C1172 C1173 1.377 . S
C1173 H1157 0.930 . S
C1173 C1172 1.377 . S
C1173 C1174 1.379 . S
C1174 H1158 0.931 . S
C1174 C1168 1.383 . S
C1174 C1173 1.379 . S
H1175 C1169 0.959 . S
H1176 C1169 0.961 . S
H1177 C1169 0.960 . S
H1178 C1170 0.930 . S
H1179 C1171 0.929 . S
H1180 C1188 0.929 . S
H1181 C1190 0.930 . S
H1182 C1192 0.930 . S
H1183 C1195 0.929 . S
H1184 C1198 0.930 . S
H1185 C1200 0.960 . S
H1186 C1200 0.960 . S
H1187 C1200 0.960 . S
C1188 H1180 0.929 . S
C1188 C1189 1.377 . S
C1188 C1190 1.384 . S
C1189 C1188 1.377 . S
C1189 C1195 1.390 . S
C1190 H1181 0.930 . S
C1190 C1188 1.384 . S
C1190 C1191 1.372 . S
C1191 C1190 1.372 . S
C1191 C1192 1.400 . S
C1191 C1196 1.490 . S
C1192 H1182 0.930 . S
C1192 C1191 1.400 . S
C1192 C1195 1.386 . S
H1193 C1209 0.930 . S
H1194 C1210 0.931 . S
C1195 H1183 0.929 . S
C1195 C1189 1.390 . S
C1195 C1192 1.386 . S
C1196 C1191 1.490 . S
C1196 C1198 1.395 1_556 S
C1196 C1199 1.403 1_655 S
H1197 C1203 0.930 . S
C1198 H1184 0.930 . S
C1198 C1196 1.395 1_554 S
C1198 C1201 1.403 . S
C1199 C1196 1.403 1_455 S
C1199 C1200 1.524 . S
C1199 C1203 1.400 . S
C1200 H1185 0.960 . S
C1200 H1186 0.960 . S
C1200 H1187 0.960 . S
C1200 C1199 1.524 . S
C1201 C1198 1.403 . S
C1201 C1202 1.392 1_655 S
C1201 C1205 1.495 . S
C1202 C1201 1.392 1_455 S
C1202 C1203 1.385 1_554 S
C1202 C1204 1.478 . S
C1203 H1197 0.930 . S
C1203 C1199 1.400 . S
C1203 C1202 1.385 1_556 S
C1204 C1202 1.478 . S
C1204 C1206 1.381 . S
C1204 C1210 1.383 . S
C1205 C1201 1.495 . S
C1205 H1211 0.959 . S
C1205 H1212 0.961 . S
C1205 H1213 0.960 . S
C1206 C1204 1.381 . S
C1206 C1207 1.394 . S
C1206 H1214 0.930 . S
C1207 C1206 1.394 . S
C1207 C1208 1.383 . S
C1207 H1215 0.929 . S
C1208 C1207 1.383 . S
C1208 C1209 1.377 . S
C1209 H1193 0.930 . S
C1209 C1208 1.377 . S
C1209 C1210 1.379 . S
C1210 H1194 0.931 . S
C1210 C1204 1.383 . S
C1210 C1209 1.379 . S
H1211 C1205 0.959 . S
H1212 C1205 0.961 . S
H1213 C1205 0.960 . S
H1214 C1206 0.930 . S
H1215 C1207 0.929 . S
H1216 C1224 0.929 . S
H1217 C1226 0.930 . S
H1218 C1228 0.930 . S
H1219 C1231 0.929 . S
H1220 C1234 0.930 . S
H1221 C1236 0.960 . S
H1222 C1236 0.960 . S
H1223 C1236 0.960 . S
C1224 H1216 0.929 . S
C1224 C1225 1.377 . S
C1224 C1226 1.384 . S
C1225 C1224 1.377 . S
C1225 C1231 1.390 . S
C1226 H1217 0.930 . S
C1226 C1224 1.384 . S
C1226 C1227 1.372 . S
C1227 C1226 1.372 . S
C1227 C1228 1.400 . S
C1227 C1232 1.490 . S
C1228 H1218 0.930 . S
C1228 C1227 1.400 . S
C1228 C1231 1.386 . S
H1229 C1245 0.930 . S
H1230 C1246 0.931 . S
C1231 H1219 0.929 . S
C1231 C1225 1.390 . S
C1231 C1228 1.386 . S
C1232 C1227 1.490 . S
C1232 C1234 1.395 . S
C1232 C1235 1.403 . S
H1233 C1239 0.930 . S
C1234 H1220 0.930 . S
C1234 C1232 1.395 . S
C1234 C1237 1.403 . S
C1235 C1232 1.403 . S
C1235 C1236 1.524 . S
C1235 C1239 1.400 . S
C1236 H1221 0.960 . S
C1236 H1222 0.960 . S
C1236 H1223 0.960 . S
C1236 C1235 1.524 . S
C1237 C1234 1.403 . S
C1237 C1238 1.392 . S
C1237 C1241 1.495 . S
C1238 C1237 1.392 . S
C1238 C1239 1.385 . S
C1238 C1240 1.478 1_554 S
C1239 H1233 0.930 . S
C1239 C1235 1.400 . S
C1239 C1238 1.385 . S
C1240 C1238 1.478 1_556 S
C1240 C1242 1.381 . S
C1240 C1246 1.383 . S
C1241 C1237 1.495 . S
C1241 H1247 0.959 . S
C1241 H1248 0.961 1_554 S
C1241 H1249 0.960 1_554 S
C1242 C1240 1.381 . S
C1242 C1243 1.394 . S
C1242 H1250 0.930 . S
C1243 C1242 1.394 . S
C1243 C1244 1.383 . S
C1243 H1251 0.929 . S
C1244 C1243 1.383 . S
C1244 C1245 1.377 . S
C1245 H1229 0.930 . S
C1245 C1244 1.377 . S
C1245 C1246 1.379 . S
C1246 H1230 0.931 . S
C1246 C1240 1.383 . S
C1246 C1245 1.379 . S
H1247 C1241 0.959 . S
H1248 C1241 0.961 1_556 S
H1249 C1241 0.960 1_556 S
H1250 C1242 0.930 . S
H1251 C1243 0.929 . S
H1252 C1260 0.929 . S
H1253 C1262 0.930 . S
H1254 C1264 0.930 1_556 S
H1255 C1267 0.929 . S
H1256 C1270 0.930 . S
H1257 C1272 0.960 . S
H1258 C1272 0.960 . S
H1259 C1272 0.960 . S
C1260 H1252 0.929 . S
C1260 C1261 1.377 . S
C1260 C1262 1.384 . S
C1261 C1260 1.377 . S
C1261 C1267 1.390 . S
C1262 H1253 0.930 . S
C1262 C1260 1.384 . S
C1262 C1263 1.372 . S
C1263 C1262 1.372 . S
C1263 C1264 1.400 . S
C1263 C1268 1.490 1_554 S
C1264 H1254 0.930 1_554 S
C1264 C1263 1.400 . S
C1264 C1267 1.386 . S
H1265 C1281 0.930 . S
H1266 C1282 0.931 . S
C1267 H1255 0.929 . S
C1267 C1261 1.390 . S
C1267 C1264 1.386 . S
C1268 C1263 1.490 1_556 S
C1268 C1270 1.395 . S
C1268 C1271 1.403 . S
H1269 C1275 0.930 . S
C1270 H1256 0.930 . S
C1270 C1268 1.395 . S
C1270 C1273 1.403 . S
C1271 C1268 1.403 . S
C1271 C1272 1.524 . S
C1271 C1275 1.400 . S
C1272 H1257 0.960 . S
C1272 H1258 0.960 . S
C1272 H1259 0.960 . S
C1272 C1271 1.524 . S
C1273 C1270 1.403 . S
C1273 C1274 1.392 . S
C1273 C1277 1.495 . S
C1274 C1273 1.392 . S
C1274 C1275 1.385 . S
C1274 C1276 1.478 . S
C1275 H1269 0.930 . S
C1275 C1271 1.400 . S
C1275 C1274 1.385 . S
C1276 C1274 1.478 . S
C1276 C1278 1.381 . S
C1276 C1282 1.383 . S
C1277 C1273 1.495 . S
C1277 H1283 0.959 . S
C1277 H1284 0.961 . S
C1277 H1285 0.960 . S
C1278 C1276 1.381 . S
C1278 C1279 1.394 . S
C1278 H1286 0.930 . S
C1279 C1278 1.394 . S
C1279 C1280 1.383 . S
C1279 H1287 0.929 . S
C1280 C1279 1.383 . S
C1280 C1281 1.377 . S
C1281 H1265 0.930 . S
C1281 C1280 1.377 . S
C1281 C1282 1.379 . S
C1282 H1266 0.931 . S
C1282 C1276 1.383 . S
C1282 C1281 1.379 . S
H1283 C1277 0.959 . S
H1284 C1277 0.961 . S
H1285 C1277 0.960 . S
H1286 C1278 0.930 . S
H1287 C1279 0.929 . S
H1288 C1296 0.929 . S
H1289 C1298 0.930 . S
H1290 C1300 0.930 1_554 S
H1291 C1303 0.929 . S
H1292 C1306 0.930 . S
H1293 C1308 0.960 . S
H1294 C1308 0.960 . S
H1295 C1308 0.960 . S
C1296 H1288 0.929 . S
C1296 C1297 1.377 . S
C1296 C1298 1.384 . S
C1297 C1296 1.377 . S
C1297 C1303 1.390 . S
C1298 H1289 0.930 . S
C1298 C1296 1.384 . S
C1298 C1299 1.372 . S
C1299 C1298 1.372 . S
C1299 C1300 1.400 . S
C1299 C1304 1.490 1_556 S
C1300 H1290 0.930 1_556 S
C1300 C1299 1.400 . S
C1300 C1303 1.386 . S
H1301 C1317 0.930 . S
H1302 C1318 0.931 . S
C1303 H1291 0.929 . S
C1303 C1297 1.390 . S
C1303 C1300 1.386 . S
C1304 C1299 1.490 1_554 S
C1304 C1306 1.395 . S
C1304 C1307 1.403 . S
H1305 C1311 0.930 . S
C1306 H1292 0.930 . S
C1306 C1304 1.395 . S
C1306 C1309 1.403 . S
C1307 C1304 1.403 . S
C1307 C1308 1.524 . S
C1307 C1311 1.400 . S
C1308 H1293 0.960 . S
C1308 H1294 0.960 . S
C1308 H1295 0.960 . S
C1308 C1307 1.524 . S
C1309 C1306 1.403 . S
C1309 C1310 1.392 . S
C1309 C1313 1.495 . S
C1310 C1309 1.392 . S
C1310 C1311 1.385 . S
C1310 C1312 1.478 . S
C1311 H1305 0.930 . S
C1311 C1307 1.400 . S
C1311 C1310 1.385 . S
C1312 C1310 1.478 . S
C1312 C1314 1.381 . S
C1312 C1318 1.383 . S
C1313 C1309 1.495 . S
C1313 H1319 0.959 . S
C1313 H1320 0.961 . S
C1313 H1321 0.960 . S
C1314 C1312 1.381 . S
C1314 C1315 1.394 . S
C1314 H1322 0.930 . S
C1315 C1314 1.394 . S
C1315 C1316 1.383 . S
C1315 H1323 0.929 . S
C1316 C1315 1.383 . S
C1316 C1317 1.377 . S
C1317 H1301 0.930 . S
C1317 C1316 1.377 . S
C1317 C1318 1.379 . S
C1318 H1302 0.931 . S
C1318 C1312 1.383 . S
C1318 C1317 1.379 . S
H1319 C1313 0.959 . S
H1320 C1313 0.961 . S
H1321 C1313 0.960 . S
H1322 C1314 0.930 . S
H1323 C1315 0.929 . S
H1324 C1332 0.929 . S
H1325 C1334 0.930 . S
H1326 C1336 0.930 1_556 S
H1327 C1339 0.929 . S
H1328 C1342 0.930 . S
H1329 C1344 0.960 . S
H1330 C1344 0.960 . S
H1331 C1344 0.960 . S
C1332 H1324 0.929 . S
C1332 C1333 1.377 . S
C1332 C1334 1.384 . S
C1333 C1332 1.377 . S
C1333 C1339 1.390 . S
C1334 H1325 0.930 . S
C1334 C1332 1.384 . S
C1334 C1335 1.372 . S
C1335 C1334 1.372 . S
C1335 C1336 1.400 . S
C1335 C1340 1.490 1_554 S
C1336 H1326 0.930 1_554 S
C1336 C1335 1.400 . S
C1336 C1339 1.386 . S
H1337 C1353 0.930 . S
H1338 C1354 0.931 . S
C1339 H1327 0.929 . S
C1339 C1333 1.390 . S
C1339 C1336 1.386 . S
C1340 C1335 1.490 1_556 S
C1340 C1342 1.395 . S
C1340 C1343 1.403 . S
H1341 C1347 0.930 . S
C1342 H1328 0.930 . S
C1342 C1340 1.395 . S
C1342 C1345 1.403 . S
C1343 C1340 1.403 . S
C1343 C1344 1.524 . S
C1343 C1347 1.400 . S
C1344 H1329 0.960 . S
C1344 H1330 0.960 . S
C1344 H1331 0.960 . S
C1344 C1343 1.524 . S
C1345 C1342 1.403 . S
C1345 C1346 1.392 . S
C1345 C1349 1.495 . S
C1346 C1345 1.392 . S
C1346 C1347 1.385 . S
C1346 C1348 1.478 . S
C1347 H1341 0.930 . S
C1347 C1343 1.400 . S
C1347 C1346 1.385 . S
C1348 C1346 1.478 . S
C1348 C1350 1.381 . S
C1348 C1354 1.383 . S
C1349 C1345 1.495 . S
C1349 H1355 0.959 . S
C1349 H1356 0.961 . S
C1349 H1357 0.960 . S
C1350 C1348 1.381 . S
C1350 C1351 1.394 . S
C1350 H1358 0.930 . S
C1351 C1350 1.394 . S
C1351 C1352 1.383 . S
C1351 H1359 0.929 . S
C1352 C1351 1.383 . S
C1352 C1353 1.377 . S
C1353 H1337 0.930 . S
C1353 C1352 1.377 . S
C1353 C1354 1.379 . S
C1354 H1338 0.931 . S
C1354 C1348 1.383 . S
C1354 C1353 1.379 . S
H1355 C1349 0.959 . S
H1356 C1349 0.961 . S
H1357 C1349 0.960 . S
H1358 C1350 0.930 . S
H1359 C1351 0.929 . S
H1360 C1368 0.929 . S
H1361 C1370 0.930 . S
H1362 C1372 0.930 . S
H1363 C1375 0.929 . S
H1364 C1378 0.930 . S
H1365 C1380 0.960 . S
H1366 C1380 0.960 . S
H1367 C1380 0.960 . S
C1368 H1360 0.929 . S
C1368 C1369 1.377 . S
C1368 C1370 1.384 . S
C1369 C1368 1.377 . S
C1369 C1375 1.390 . S
C1370 H1361 0.930 . S
C1370 C1368 1.384 . S
C1370 C1371 1.372 . S
C1371 C1370 1.372 . S
C1371 C1372 1.400 . S
C1371 C1376 1.490 . S
C1372 H1362 0.930 . S
C1372 C1371 1.400 . S
C1372 C1375 1.386 . S
H1373 C1389 0.930 . S
H1374 C1390 0.931 . S
C1375 H1363 0.929 . S
C1375 C1369 1.390 . S
C1375 C1372 1.386 . S
C1376 C1371 1.490 . S
C1376 C1378 1.395 . S
C1376 C1379 1.403 . S
H1377 C1383 0.930 . S
C1378 H1364 0.930 . S
C1378 C1376 1.395 . S
C1378 C1381 1.403 . S
C1379 C1376 1.403 . S
C1379 C1380 1.524 . S
C1379 C1383 1.400 . S
C1380 H1365 0.960 . S
C1380 H1366 0.960 . S
C1380 H1367 0.960 . S
C1380 C1379 1.524 . S
C1381 C1378 1.403 . S
C1381 C1382 1.392 . S
C1381 C1385 1.495 . S
C1382 C1381 1.392 . S
C1382 C1383 1.385 . S
C1382 C1384 1.491 . S
C1383 H1377 0.930 . S
C1383 C1379 1.400 . S
C1383 C1382 1.385 . S
C1384 C1382 1.491 . S
C1384 C1386 1.378 1_556 S
C1384 C1390 1.373 1_556 S
C1385 C1381 1.495 . S
C1385 H1391 0.959 . S
C1385 H1392 0.961 . S
C1385 H1393 0.960 . S
C1386 C1384 1.378 1_554 S
C1386 C1387 1.394 . S
C1386 H1394 0.930 1_554 S
C1387 C1386 1.394 . S
C1387 C1388 1.383 . S
C1387 H1395 0.929 . S
C1388 C1387 1.383 . S
C1388 C1389 1.377 . S
C1389 H1373 0.930 . S
C1389 C1388 1.377 . S
C1389 C1390 1.379 . S
C1390 H1374 0.931 . S
C1390 C1384 1.373 1_554 S
C1390 C1389 1.379 . S
H1391 C1385 0.959 . S
H1392 C1385 0.961 . S
H1393 C1385 0.960 . S
H1394 C1386 0.930 1_556 S
H1395 C1387 0.929 . S
H1396 C1404 0.929 . S
H1397 C1406 0.930 . S
H1398 C1408 0.930 . S
H1399 C1411 0.929 . S
H1400 C1414 0.930 . S
H1401 C1416 0.960 . S
H1402 C1416 0.960 . S
H1403 C1416 0.960 . S
C1404 H1396 0.929 . S
C1404 C1405 1.377 . S
C1404 C1406 1.384 . S
C1405 C1404 1.377 . S
C1405 C1411 1.390 . S
C1406 H1397 0.930 . S
C1406 C1404 1.384 . S
C1406 C1407 1.372 . S
C1407 C1406 1.372 . S
C1407 C1408 1.400 . S
C1407 C1412 1.490 . S
C1408 H1398 0.930 . S
C1408 C1407 1.400 . S
C1408 C1411 1.386 . S
H1409 C1425 0.930 . S
H1410 C1426 0.931 . S
C1411 H1399 0.929 . S
C1411 C1405 1.390 . S
C1411 C1408 1.386 . S
C1412 C1407 1.490 . S
C1412 C1414 1.395 . S
C1412 C1415 1.403 . S
H1413 C1419 0.930 . S
C1414 H1400 0.930 . S
C1414 C1412 1.395 . S
C1414 C1417 1.403 . S
C1415 C1412 1.403 . S
C1415 C1416 1.524 . S
C1415 C1419 1.400 . S
C1416 H1401 0.960 . S
C1416 H1402 0.960 . S
C1416 H1403 0.960 . S
C1416 C1415 1.524 . S
C1417 C1414 1.403 . S
C1417 C1418 1.392 . S
C1417 C1421 1.495 . S
C1418 C1417 1.392 . S
C1418 C1419 1.385 . S
C1418 C1420 1.478 1_554 S
C1419 H1413 0.930 . S
C1419 C1415 1.400 . S
C1419 C1418 1.385 . S
C1420 C1418 1.478 1_556 S
C1420 C1422 1.381 . S
C1420 C1426 1.383 . S
C1421 C1417 1.495 . S
C1421 H1427 0.959 . S
C1421 H1428 0.961 1_554 S
C1421 H1429 0.960 1_554 S
C1422 C1420 1.381 . S
C1422 C1423 1.394 . S
C1422 H1430 0.930 . S
C1423 C1422 1.394 . S
C1423 C1424 1.383 . S
C1423 H1431 0.929 . S
C1424 C1423 1.383 . S
C1424 C1425 1.377 . S
C1425 H1409 0.930 . S
C1425 C1424 1.377 . S
C1425 C1426 1.379 . S
C1426 H1410 0.931 . S
C1426 C1420 1.383 . S
C1426 C1425 1.379 . S
H1427 C1421 0.959 . S
H1428 C1421 0.961 1_556 S
H1429 C1421 0.960 1_556 S
H1430 C1422 0.930 . S
H1431 C1423 0.929 . S
H1432 C1440 0.929 . S
H1433 C1442 0.930 . S
H1434 C1444 0.930 . S
H1435 C1447 0.929 . S
H1436 C1450 0.930 . S
H1437 C1452 0.960 . S
H1438 C1452 0.960 . S
H1439 C1452 0.960 . S
C1440 H1432 0.929 . S
C1440 C1441 1.377 . S
C1440 C1442 1.384 . S
C1441 C1440 1.377 . S
C1441 C1447 1.390 . S
C1442 H1433 0.930 . S
C1442 C1440 1.384 . S
C1442 C1443 1.372 . S
C1443 C1442 1.372 . S
C1443 C1444 1.400 . S
C1443 C1448 1.490 . S
C1444 H1434 0.930 . S
C1444 C1443 1.400 . S
C1444 C1447 1.386 . S
H1445 C1461 0.930 . S
H1446 C1462 0.931 1_556 S
C1447 H1435 0.929 . S
C1447 C1441 1.390 . S
C1447 C1444 1.386 . S
C1448 C1443 1.490 . S
C1448 C1450 1.395 . S
C1448 C1451 1.403 . S
H1449 C1455 0.930 . S
C1450 H1436 0.930 . S
C1450 C1448 1.395 . S
C1450 C1453 1.403 . S
C1451 C1448 1.403 . S
C1451 C1452 1.524 . S
C1451 C1455 1.400 . S
C1452 H1437 0.960 . S
C1452 H1438 0.960 . S
C1452 H1439 0.960 . S
C1452 C1451 1.524 . S
C1453 C1450 1.403 . S
C1453 C1454 1.392 . S
C1453 C1457 1.495 . S
C1454 C1453 1.392 . S
C1454 C1455 1.385 . S
C1454 C1456 1.478 1_556 S
C1455 H1449 0.930 . S
C1455 C1451 1.400 . S
C1455 C1454 1.385 . S
C1456 C1454 1.478 1_554 S
C1456 C1458 1.381 . S
C1456 C1462 1.383 . S
C1457 C1453 1.495 . S
C1457 H1463 0.959 . S
C1457 H1464 0.961 . S
C1457 H1465 0.960 . S
C1458 C1456 1.381 . S
C1458 C1459 1.394 . S
C1458 H1466 0.930 . S
C1459 C1458 1.394 . S
C1459 C1460 1.383 . S
C1459 H1467 0.929 . S
C1460 C1459 1.383 . S
C1460 C1461 1.377 . S
C1461 H1445 0.930 . S
C1461 C1460 1.377 . S
C1461 C1462 1.379 . S
C1462 H1446 0.931 1_554 S
C1462 C1456 1.383 . S
C1462 C1461 1.379 . S
H1463 C1457 0.959 . S
H1464 C1457 0.961 . S
H1465 C1457 0.960 . S
H1466 C1458 0.930 . S
H1467 C1459 0.929 . S
H1468 C1476 0.929 . S
H1469 C1478 0.930 . S
H1470 C1480 0.930 1_554 S
H1471 C1483 0.929 . S
H1472 C1486 0.930 . S
H1473 C1488 0.960 . S
H1474 C1488 0.960 . S
H1475 C1488 0.960 . S
C1476 H1468 0.929 . S
C1476 C1477 1.377 . S
C1476 C1478 1.384 . S
C1477 C1476 1.377 . S
C1477 C1483 1.390 . S
C1478 H1469 0.930 . S
C1478 C1476 1.384 . S
C1478 C1479 1.372 . S
C1479 C1478 1.372 . S
C1479 C1480 1.400 . S
C1479 C1484 1.490 1_556 S
C1480 H1470 0.930 1_556 S
C1480 C1479 1.400 . S
C1480 C1483 1.386 . S
H1481 C1497 0.930 . S
H1482 C1498 0.931 . S
C1483 H1471 0.929 . S
C1483 C1477 1.390 . S
C1483 C1480 1.386 . S
C1484 C1479 1.490 1_554 S
C1484 C1486 1.395 . S
C1484 C1487 1.403 . S
H1485 C1491 0.930 . S
C1486 H1472 0.930 . S
C1486 C1484 1.395 . S
C1486 C1489 1.403 . S
C1487 C1484 1.403 . S
C1487 C1488 1.524 . S
C1487 C1491 1.400 . S
C1488 H1473 0.960 . S
C1488 H1474 0.960 . S
C1488 H1475 0.960 . S
C1488 C1487 1.524 . S
C1489 C1486 1.403 . S
C1489 C1490 1.392 . S
C1489 C1493 1.495 . S
C1490 C1489 1.392 . S
C1490 C1491 1.385 . S
C1490 C1492 1.478 . S
C1491 H1485 0.930 . S
C1491 C1487 1.400 . S
C1491 C1490 1.385 . S
C1492 C1490 1.478 . S
C1492 C1494 1.381 . S
C1492 C1498 1.383 . S
C1493 C1489 1.495 . S
C1493 H1499 0.959 . S
C1493 H1500 0.961 . S
C1493 H1501 0.960 . S
C1494 C1492 1.381 . S
C1494 C1495 1.394 . S
C1494 H1502 0.930 . S
C1495 C1494 1.394 . S
C1495 C1496 1.383 . S
C1495 H1503 0.929 . S
C1496 C1495 1.383 . S
C1496 C1497 1.377 . S
C1497 H1481 0.930 . S
C1497 C1496 1.377 . S
C1497 C1498 1.379 . S
C1498 H1482 0.931 . S
C1498 C1492 1.383 . S
C1498 C1497 1.379 . S
H1499 C1493 0.959 . S
H1500 C1493 0.961 . S
H1501 C1493 0.960 . S
H1502 C1494 0.930 . S
H1503 C1495 0.929 . S
H1504 C1512 0.929 . S
H1505 C1514 0.930 . S
H1506 C1516 0.930 . S
H1507 C1519 0.929 . S
H1508 C1522 0.930 . S
H1509 C1524 0.960 . S
H1510 C1524 0.960 . S
H1511 C1524 0.960 . S
C1512 H1504 0.929 . S
C1512 C1513 1.377 . S
C1512 C1514 1.384 . S
C1513 C1512 1.377 . S
C1513 C1519 1.390 . S
C1514 H1505 0.930 . S
C1514 C1512 1.384 . S
C1514 C1515 1.372 . S
C1515 C1514 1.372 . S
C1515 C1516 1.400 . S
C1515 C1520 1.490 . S
C1516 H1506 0.930 . S
C1516 C1515 1.400 . S
C1516 C1519 1.386 . S
H1517 C1533 0.930 . S
H1518 C1534 0.931 . S
C1519 H1507 0.929 . S
C1519 C1513 1.390 . S
C1519 C1516 1.386 . S
C1520 C1515 1.490 . S
C1520 C1522 1.395 . S
C1520 C1523 1.403 . S
H1521 C1527 0.930 . S
C1522 H1508 0.930 . S
C1522 C1520 1.395 . S
C1522 C1525 1.403 . S
C1523 C1520 1.403 . S
C1523 C1524 1.524 . S
C1523 C1527 1.400 . S
C1524 H1509 0.960 . S
C1524 H1510 0.960 . S
C1524 H1511 0.960 . S
C1524 C1523 1.524 . S
C1525 C1522 1.403 . S
C1525 C1526 1.392 . S
C1525 C1529 1.495 . S
C1526 C1525 1.392 . S
C1526 C1527 1.385 . S
C1526 C1528 1.478 . S
C1527 H1521 0.930 . S
C1527 C1523 1.400 . S
C1527 C1526 1.385 . S
C1528 C1526 1.478 . S
C1528 C1530 1.381 . S
C1528 C1534 1.383 . S
C1529 C1525 1.495 . S
C1529 H1535 0.959 . S
C1529 H1536 0.961 . S
C1529 H1537 0.960 . S
C1530 C1528 1.381 . S
C1530 C1531 1.394 . S
C1530 H1538 0.930 . S
C1531 C1530 1.394 . S
C1531 C1532 1.383 . S
C1531 H1539 0.929 . S
C1532 C1531 1.383 . S
C1532 C1533 1.377 . S
C1533 H1517 0.930 . S
C1533 C1532 1.377 . S
C1533 C1534 1.379 . S
C1534 H1518 0.931 . S
C1534 C1528 1.383 . S
C1534 C1533 1.379 . S
H1535 C1529 0.959 . S
H1536 C1529 0.961 . S
H1537 C1529 0.960 . S
H1538 C1530 0.930 . S
H1539 C1531 0.929 . S
H1540 C1548 0.929 . S
H1541 C1550 0.930 . S
H1542 C1552 0.930 . S
H1543 C1555 0.929 . S
H1544 C1558 0.930 . S
H1545 C1560 0.960 . S
H1546 C1560 0.960 . S
H1547 C1560 0.960 . S
C1548 H1540 0.929 . S
C1548 C1549 1.377 . S
C1548 C1550 1.384 . S
C1549 C1548 1.377 . S
C1549 C1555 1.390 . S
C1550 H1541 0.930 . S
C1550 C1548 1.384 . S
C1550 C1551 1.372 . S
C1551 C1550 1.372 . S
C1551 C1552 1.400 . S
C1551 C1556 1.490 . S
C1552 H1542 0.930 . S
C1552 C1551 1.400 . S
C1552 C1555 1.386 . S
H1553 C1569 0.930 . S
H1554 C1570 0.931 . S
C1555 H1543 0.929 . S
C1555 C1549 1.390 . S
C1555 C1552 1.386 . S
C1556 C1551 1.490 . S
C1556 C1558 1.395 . S
C1556 C1559 1.403 . S
H1557 C1563 0.930 . S
C1558 H1544 0.930 . S
C1558 C1556 1.395 . S
C1558 C1561 1.403 . S
C1559 C1556 1.403 . S
C1559 C1560 1.524 . S
C1559 C1563 1.400 . S
C1560 H1545 0.960 . S
C1560 H1546 0.960 . S
C1560 H1547 0.960 . S
C1560 C1559 1.524 . S
C1561 C1558 1.403 . S
C1561 C1562 1.392 . S
C1561 C1565 1.495 . S
C1562 C1561 1.392 . S
C1562 C1563 1.385 . S
C1562 C1564 1.478 . S
C1563 H1557 0.930 . S
C1563 C1559 1.400 . S
C1563 C1562 1.385 . S
C1564 C1562 1.478 . S
C1564 C1566 1.381 . S
C1564 C1570 1.383 . S
C1565 C1561 1.495 . S
C1565 H1571 0.959 . S
C1565 H1572 0.961 . S
C1565 H1573 0.960 . S
C1566 C1564 1.381 . S
C1566 C1567 1.394 . S
C1566 H1574 0.930 . S
C1567 C1566 1.394 . S
C1567 C1568 1.383 . S
C1567 H1575 0.929 . S
C1568 C1567 1.383 . S
C1568 C1569 1.377 . S
C1569 H1553 0.930 . S
C1569 C1568 1.377 . S
C1569 C1570 1.379 . S
C1570 H1554 0.931 . S
C1570 C1564 1.383 . S
C1570 C1569 1.379 . S
H1571 C1565 0.959 . S
H1572 C1565 0.961 . S
H1573 C1565 0.960 . S
H1574 C1566 0.930 . S
H1575 C1567 0.929 . S
H1576 C1584 0.929 . S
H1577 C1586 0.930 . S
H1578 C1588 0.930 . S
H1579 C1591 0.929 . S
H1580 C1594 0.930 . S
H1581 C1596 0.960 . S
H1582 C1596 0.960 . S
H1583 C1596 0.960 . S
C1584 H1576 0.929 . S
C1584 C1585 1.377 . S
C1584 C1586 1.384 . S
C1585 C1584 1.377 . S
C1585 C1591 1.390 . S
C1586 H1577 0.930 . S
C1586 C1584 1.384 . S
C1586 C1587 1.372 . S
C1587 C1586 1.372 . S
C1587 C1588 1.400 . S
C1587 C1592 1.490 . S
C1588 H1578 0.930 . S
C1588 C1587 1.400 . S
C1588 C1591 1.386 . S
H1589 C1605 0.930 . S
H1590 C1606 0.931 . S
C1591 H1579 0.929 . S
C1591 C1585 1.390 . S
C1591 C1588 1.386 . S
C1592 C1587 1.490 . S
C1592 C1594 1.395 . S
C1592 C1595 1.403 . S
H1593 C1599 0.930 . S
C1594 H1580 0.930 . S
C1594 C1592 1.395 . S
C1594 C1597 1.403 . S
C1595 C1592 1.403 . S
C1595 C1596 1.524 . S
C1595 C1599 1.400 . S
C1596 H1581 0.960 . S
C1596 H1582 0.960 . S
C1596 H1583 0.960 . S
C1596 C1595 1.524 . S
C1597 C1594 1.403 . S
C1597 C1598 1.392 . S
C1597 C1601 1.495 . S
C1598 C1597 1.392 . S
C1598 C1599 1.385 . S
C1598 C1600 1.478 . S
C1599 H1593 0.930 . S
C1599 C1595 1.400 . S
C1599 C1598 1.385 . S
C1600 C1598 1.478 . S
C1600 C1602 1.381 . S
C1600 C1606 1.383 . S
C1601 C1597 1.495 . S
C1601 H1607 0.959 . S
C1601 H1608 0.961 . S
C1601 H1609 0.960 . S
C1602 C1600 1.381 . S
C1602 C1603 1.394 . S
C1602 H1610 0.930 . S
C1603 C1602 1.394 . S
C1603 C1604 1.383 . S
C1603 H1611 0.929 . S
C1604 C1603 1.383 . S
C1604 C1605 1.377 . S
C1605 H1589 0.930 . S
C1605 C1604 1.377 . S
C1605 C1606 1.379 . S
C1606 H1590 0.931 . S
C1606 C1600 1.383 . S
C1606 C1605 1.379 . S
H1607 C1601 0.959 . S
H1608 C1601 0.961 . S
H1609 C1601 0.960 . S
H1610 C1602 0.930 . S
H1611 C1603 0.929 . S
H1612 C1620 0.929 . S
H1613 C1622 0.930 . S
H1614 C1624 0.930 . S
H1615 C1627 0.929 . S
H1616 C1630 0.930 . S
H1617 C1632 0.960 . S
H1618 C1632 0.960 . S
H1619 C1632 0.960 . S
C1620 H1612 0.929 . S
C1620 C1621 1.377 . S
C1620 C1622 1.384 . S
C1621 C1620 1.377 . S
C1621 C1627 1.390 . S
C1622 H1613 0.930 . S
C1622 C1620 1.384 . S
C1622 C1623 1.372 . S
C1623 C1622 1.372 . S
C1623 C1624 1.400 . S
C1623 C1628 1.490 . S
C1624 H1614 0.930 . S
C1624 C1623 1.400 . S
C1624 C1627 1.386 . S
H1625 C1641 0.930 . S
H1626 C1642 0.931 . S
C1627 H1615 0.929 . S
C1627 C1621 1.390 . S
C1627 C1624 1.386 . S
C1628 C1623 1.490 . S
C1628 C1630 1.395 . S
C1628 C1631 1.403 . S
H1629 C1635 0.930 . S
C1630 H1616 0.930 . S
C1630 C1628 1.395 . S
C1630 C1633 1.403 . S
C1631 C1628 1.403 . S
C1631 C1632 1.524 . S
C1631 C1635 1.400 . S
C1632 H1617 0.960 . S
C1632 H1618 0.960 . S
C1632 H1619 0.960 . S
C1632 C1631 1.524 . S
C1633 C1630 1.403 . S
C1633 C1634 1.392 . S
C1633 C1637 1.495 . S
C1634 C1633 1.392 . S
C1634 C1635 1.385 . S
C1634 C1636 1.478 . S
C1635 H1629 0.930 . S
C1635 C1631 1.400 . S
C1635 C1634 1.385 . S
C1636 C1634 1.478 . S
C1636 C1638 1.381 . S
C1636 C1642 1.383 . S
C1637 C1633 1.495 . S
C1637 H1643 0.959 . S
C1637 H1644 0.961 . S
C1637 H1645 0.960 . S
C1638 C1636 1.381 . S
C1638 C1639 1.394 . S
C1638 H1646 0.930 . S
C1639 C1638 1.394 . S
C1639 C1640 1.383 . S
C1639 H1647 0.929 . S
C1640 C1639 1.383 . S
C1640 C1641 1.377 . S
C1641 H1625 0.930 . S
C1641 C1640 1.377 . S
C1641 C1642 1.379 . S
C1642 H1626 0.931 . S
C1642 C1636 1.383 . S
C1642 C1641 1.379 . S
H1643 C1637 0.959 . S
H1644 C1637 0.961 . S
H1645 C1637 0.960 . S
H1646 C1638 0.930 . S
H1647 C1639 0.929 . S
H1648 C1656 0.929 . S
H1649 C1658 0.930 . S
H1650 C1660 0.930 . S
H1651 C1663 0.929 . S
H1652 C1666 0.930 . S
H1653 C1668 0.960 . S
H1654 C1668 0.960 . S
H1655 C1668 0.960 . S
C1656 H1648 0.929 . S
C1656 C1657 1.377 . S
C1656 C1658 1.384 . S
C1657 C1656 1.377 . S
C1657 C1663 1.390 . S
C1658 H1649 0.930 . S
C1658 C1656 1.384 . S
C1658 C1659 1.372 . S
C1659 C1658 1.372 . S
C1659 C1660 1.400 . S
C1659 C1664 1.490 . S
C1660 H1650 0.930 . S
C1660 C1659 1.400 . S
C1660 C1663 1.386 . S
H1661 C1677 0.930 . S
H1662 C1678 0.931 . S
C1663 H1651 0.929 . S
C1663 C1657 1.390 . S
C1663 C1660 1.386 . S
C1664 C1659 1.490 . S
C1664 C1666 1.395 . S
C1664 C1667 1.403 . S
H1665 C1671 0.930 . S
C1666 H1652 0.930 . S
C1666 C1664 1.395 . S
C1666 C1669 1.403 . S
C1667 C1664 1.403 . S
C1667 C1668 1.524 . S
C1667 C1671 1.400 . S
C1668 H1653 0.960 . S
C1668 H1654 0.960 . S
C1668 H1655 0.960 . S
C1668 C1667 1.524 . S
C1669 C1666 1.403 . S
C1669 C1670 1.392 . S
C1669 C1673 1.495 . S
C1670 C1669 1.392 . S
C1670 C1671 1.385 . S
C1670 C1672 1.478 . S
C1671 H1665 0.930 . S
C1671 C1667 1.400 . S
C1671 C1670 1.385 . S
C1672 C1670 1.478 . S
C1672 C1674 1.381 . S
C1672 C1678 1.383 . S
C1673 C1669 1.495 . S
C1673 H1679 0.959 . S
C1673 H1680 0.961 . S
C1673 H1681 0.960 . S
C1674 C1672 1.381 . S
C1674 C1675 1.394 . S
C1674 H1682 0.930 . S
C1675 C1674 1.394 . S
C1675 C1676 1.383 . S
C1675 H1683 0.929 . S
C1676 C1675 1.383 . S
C1676 C1677 1.377 . S
C1677 H1661 0.930 . S
C1677 C1676 1.377 . S
C1677 C1678 1.379 . S
C1678 H1662 0.931 . S
C1678 C1672 1.383 . S
C1678 C1677 1.379 . S
H1679 C1673 0.959 . S
H1680 C1673 0.961 . S
H1681 C1673 0.960 . S
H1682 C1674 0.930 . S
H1683 C1675 0.929 . S
H1684 C1692 0.929 . S
H1685 C1694 0.930 . S
H1686 C1696 0.930 . S
H1687 C1699 0.929 . S
H1688 C1702 0.930 . S
H1689 C1704 0.960 . S
H1690 C1704 0.960 . S
H1691 C1704 0.960 . S
C1692 H1684 0.929 . S
C1692 C1693 1.377 . S
C1692 C1694 1.384 . S
C1693 C1692 1.377 . S
C1693 C1699 1.390 . S
C1694 H1685 0.930 . S
C1694 C1692 1.384 . S
C1694 C1695 1.372 . S
C1695 C1694 1.372 . S
C1695 C1696 1.400 . S
C1695 C1700 1.490 . S
C1696 H1686 0.930 . S
C1696 C1695 1.400 . S
C1696 C1699 1.386 . S
H1697 C1713 0.930 . S
H1698 C1714 0.931 . S
C1699 H1687 0.929 . S
C1699 C1693 1.390 . S
C1699 C1696 1.386 . S
C1700 C1695 1.490 . S
C1700 C1702 1.395 . S
C1700 C1703 1.403 . S
H1701 C1707 0.930 . S
C1702 H1688 0.930 . S
C1702 C1700 1.395 . S
C1702 C1705 1.403 . S
C1703 C1700 1.403 . S
C1703 C1704 1.524 . S
C1703 C1707 1.400 . S
C1704 H1689 0.960 . S
C1704 H1690 0.960 . S
C1704 H1691 0.960 . S
C1704 C1703 1.524 . S
C1705 C1702 1.403 . S
C1705 C1706 1.392 . S
C1705 C1709 1.495 . S
C1706 C1705 1.392 . S
C1706 C1707 1.385 . S
C1706 C1708 1.478 . S
C1707 H1701 0.930 . S
C1707 C1703 1.400 . S
C1707 C1706 1.385 . S
C1708 C1706 1.478 . S
C1708 C1710 1.381 . S
C1708 C1714 1.383 . S
C1709 C1705 1.495 . S
C1709 H1715 0.959 . S
C1709 H1716 0.961 . S
C1709 H1717 0.960 . S
C1710 C1708 1.381 . S
C1710 C1711 1.394 . S
C1710 H1718 0.930 . S
C1711 C1710 1.394 . S
C1711 C1712 1.383 . S
C1711 H1719 0.929 . S
C1712 C1711 1.383 . S
C1712 C1713 1.377 . S
C1713 H1697 0.930 . S
C1713 C1712 1.377 . S
C1713 C1714 1.379 . S
C1714 H1698 0.931 . S
C1714 C1708 1.383 . S
C1714 C1713 1.379 . S
H1715 C1709 0.959 . S
H1716 C1709 0.961 . S
H1717 C1709 0.960 . S
H1718 C1710 0.930 . S
H1719 C1711 0.929 . S
H1720 C1728 0.929 . S
H1721 C1730 0.930 . S
H1722 C1732 0.930 . S
H1723 C1735 0.929 . S
H1724 C1738 0.930 . S
H1725 C1740 0.960 . S
H1726 C1740 0.960 . S
H1727 C1740 0.960 . S
C1728 H1720 0.929 . S
C1728 C1729 1.377 . S
C1728 C1730 1.384 . S
C1729 C1728 1.377 . S
C1729 C1735 1.390 . S
C1730 H1721 0.930 . S
C1730 C1728 1.384 . S
C1730 C1731 1.372 . S
C1731 C1730 1.372 . S
C1731 C1732 1.400 . S
C1731 C1736 1.490 . S
C1732 H1722 0.930 . S
C1732 C1731 1.400 . S
C1732 C1735 1.386 . S
H1733 C1749 0.930 . S
H1734 C1750 0.931 . S
C1735 H1723 0.929 . S
C1735 C1729 1.390 . S
C1735 C1732 1.386 . S
C1736 C1731 1.490 . S
C1736 C1738 1.395 . S
C1736 C1739 1.403 . S
H1737 C1743 0.930 . S
C1738 H1724 0.930 . S
C1738 C1736 1.395 . S
C1738 C1741 1.403 . S
C1739 C1736 1.403 . S
C1739 C1740 1.524 . S
C1739 C1743 1.400 . S
C1740 H1725 0.960 . S
C1740 H1726 0.960 . S
C1740 H1727 0.960 . S
C1740 C1739 1.524 . S
C1741 C1738 1.403 . S
C1741 C1742 1.392 . S
C1741 C1745 1.495 . S
C1742 C1741 1.392 . S
C1742 C1743 1.385 . S
C1742 C1744 1.478 . S
C1743 H1737 0.930 . S
C1743 C1739 1.400 . S
C1743 C1742 1.385 . S
C1744 C1742 1.478 . S
C1744 C1746 1.381 . S
C1744 C1750 1.383 . S
C1745 C1741 1.495 . S
C1745 H1751 0.959 . S
C1745 H1752 0.961 . S
C1745 H1753 0.960 . S
C1746 C1744 1.381 . S
C1746 C1747 1.394 . S
C1746 H1754 0.930 . S
C1747 C1746 1.394 . S
C1747 C1748 1.383 . S
C1747 H1755 0.929 . S
C1748 C1747 1.383 . S
C1748 C1749 1.377 . S
C1749 H1733 0.930 . S
C1749 C1748 1.377 . S
C1749 C1750 1.379 . S
C1750 H1734 0.931 . S
C1750 C1744 1.383 . S
C1750 C1749 1.379 . S
H1751 C1745 0.959 . S
H1752 C1745 0.961 . S
H1753 C1745 0.960 . S
H1754 C1746 0.930 . S
H1755 C1747 0.929 . S
H1756 C1764 0.929 . S
H1757 C1766 0.930 . S
H1758 C1768 0.930 . S
H1759 C1771 0.929 . S
H1760 C1774 0.930 . S
H1761 C1776 0.960 . S
H1762 C1776 0.960 . S
H1763 C1776 0.960 . S
C1764 H1756 0.929 . S
C1764 C1765 1.377 . S
C1764 C1766 1.384 . S
C1765 C1764 1.377 . S
C1765 C1771 1.390 . S
C1766 H1757 0.930 . S
C1766 C1764 1.384 . S
C1766 C1767 1.372 . S
C1767 C1766 1.372 . S
C1767 C1768 1.400 . S
C1767 C1772 1.490 . S
C1768 H1758 0.930 . S
C1768 C1767 1.400 . S
C1768 C1771 1.386 . S
H1769 C1785 0.930 . S
H1770 C1786 0.931 . S
C1771 H1759 0.929 . S
C1771 C1765 1.390 . S
C1771 C1768 1.386 . S
C1772 C1767 1.490 . S
C1772 C1774 1.395 . S
C1772 C1775 1.403 . S
H1773 C1779 0.930 . S
C1774 H1760 0.930 . S
C1774 C1772 1.395 . S
C1774 C1777 1.403 . S
C1775 C1772 1.403 . S
C1775 C1776 1.524 . S
C1775 C1779 1.400 . S
C1776 H1761 0.960 . S
C1776 H1762 0.960 . S
C1776 H1763 0.960 . S
C1776 C1775 1.524 . S
C1777 C1774 1.403 . S
C1777 C1778 1.392 . S
C1777 C1781 1.495 . S
C1778 C1777 1.392 . S
C1778 C1779 1.385 . S
C1778 C1780 1.478 . S
C1779 H1773 0.930 . S
C1779 C1775 1.400 . S
C1779 C1778 1.385 . S
C1780 C1778 1.478 . S
C1780 C1782 1.381 . S
C1780 C1786 1.383 . S
C1781 C1777 1.495 . S
C1781 H1787 0.959 . S
C1781 H1788 0.961 . S
C1781 H1789 0.960 . S
C1782 C1780 1.381 . S
C1782 C1783 1.394 . S
C1782 H1790 0.930 . S
C1783 C1782 1.394 . S
C1783 C1784 1.383 . S
C1783 H1791 0.929 . S
C1784 C1783 1.383 . S
C1784 C1785 1.377 . S
C1785 H1769 0.930 . S
C1785 C1784 1.377 . S
C1785 C1786 1.379 . S
C1786 H1770 0.931 . S
C1786 C1780 1.383 . S
C1786 C1785 1.379 . S
H1787 C1781 0.959 . S
H1788 C1781 0.961 . S
H1789 C1781 0.960 . S
H1790 C1782 0.930 . S
H1791 C1783 0.929 . S
H1792 C1800 0.929 . S
H1793 C1802 0.930 . S
H1794 C1804 0.930 . S
H1795 C1807 0.929 . S
H1796 C1810 0.930 . S
H1797 C1812 0.960 . S
H1798 C1812 0.960 . S
H1799 C1812 0.960 . S
C1800 H1792 0.929 . S
C1800 C1801 1.377 . S
C1800 C1802 1.384 . S
C1801 C1800 1.377 . S
C1801 C1807 1.390 . S
C1802 H1793 0.930 . S
C1802 C1800 1.384 . S
C1802 C1803 1.372 . S
C1803 C1802 1.372 . S
C1803 C1804 1.400 . S
C1803 C1808 1.490 . S
C1804 H1794 0.930 . S
C1804 C1803 1.400 . S
C1804 C1807 1.386 . S
H1805 C1821 0.930 . S
H1806 C1822 0.931 . S
C1807 H1795 0.929 . S
C1807 C1801 1.390 . S
C1807 C1804 1.386 . S
C1808 C1803 1.490 . S
C1808 C1810 1.395 . S
C1808 C1811 1.403 . S
H1809 C1815 0.930 . S
C1810 H1796 0.930 . S
C1810 C1808 1.395 . S
C1810 C1813 1.403 . S
C1811 C1808 1.403 . S
C1811 C1812 1.524 . S
C1811 C1815 1.400 . S
C1812 H1797 0.960 . S
C1812 H1798 0.960 . S
C1812 H1799 0.960 . S
C1812 C1811 1.524 . S
C1813 C1810 1.403 . S
C1813 C1814 1.392 . S
C1813 C1817 1.495 . S
C1814 C1813 1.392 . S
C1814 C1815 1.385 . S
C1814 C1816 1.478 . S
C1815 H1809 0.930 . S
C1815 C1811 1.400 . S
C1815 C1814 1.385 . S
C1816 C1814 1.478 . S
C1816 C1818 1.381 . S
C1816 C1822 1.383 . S
C1817 C1813 1.495 . S
C1817 H1823 0.959 . S
C1817 H1824 0.961 . S
C1817 H1825 0.960 . S
C1818 C1816 1.381 . S
C1818 C1819 1.394 . S
C1818 H1826 0.930 . S
C1819 C1818 1.394 . S
C1819 C1820 1.383 . S
C1819 H1827 0.929 . S
C1820 C1819 1.383 . S
C1820 C1821 1.377 . S
C1821 H1805 0.930 . S
C1821 C1820 1.377 . S
C1821 C1822 1.379 . S
C1822 H1806 0.931 . S
C1822 C1816 1.383 . S
C1822 C1821 1.379 . S
H1823 C1817 0.959 . S
H1824 C1817 0.961 . S
H1825 C1817 0.960 . S
H1826 C1818 0.930 . S
H1827 C1819 0.929 . S
H1828 C1836 0.929 . S
H1829 C1838 0.930 . S
H1830 C1840 0.930 . S
H1831 C1843 0.929 . S
H1832 C1846 0.930 . S
H1833 C1848 0.960 . S
H1834 C1848 0.960 . S
H1835 C1848 0.960 . S
C1836 H1828 0.929 . S
C1836 C1837 1.377 . S
C1836 C1838 1.384 . S
C1837 C1836 1.377 . S
C1837 C1843 1.390 . S
C1838 H1829 0.930 . S
C1838 C1836 1.384 . S
C1838 C1839 1.372 . S
C1839 C1838 1.372 . S
C1839 C1840 1.400 . S
C1839 C1844 1.490 . S
C1840 H1830 0.930 . S
C1840 C1839 1.400 . S
C1840 C1843 1.386 . S
H1841 C1857 0.930 . S
H1842 C1858 0.931 . S
C1843 H1831 0.929 . S
C1843 C1837 1.390 . S
C1843 C1840 1.386 . S
C1844 C1839 1.490 . S
C1844 C1846 1.395 . S
C1844 C1847 1.403 . S
H1845 C1851 0.930 . S
C1846 H1832 0.930 . S
C1846 C1844 1.395 . S
C1846 C1849 1.403 . S
C1847 C1844 1.403 . S
C1847 C1848 1.524 . S
C1847 C1851 1.400 . S
C1848 H1833 0.960 . S
C1848 H1834 0.960 . S
C1848 H1835 0.960 . S
C1848 C1847 1.524 . S
C1849 C1846 1.403 . S
C1849 C1850 1.392 . S
C1849 C1853 1.495 . S
C1850 C1849 1.392 . S
C1850 C1851 1.385 . S
C1850 C1852 1.478 . S
C1851 H1845 0.930 . S
C1851 C1847 1.400 . S
C1851 C1850 1.385 . S
C1852 C1850 1.478 . S
C1852 C1854 1.381 . S
C1852 C1858 1.383 . S
C1853 C1849 1.495 . S
C1853 H1859 0.959 . S
C1853 H1860 0.961 . S
C1853 H1861 0.960 . S
C1854 C1852 1.381 . S
C1854 C1855 1.394 . S
C1854 H1862 0.930 . S
C1855 C1854 1.394 . S
C1855 C1856 1.383 . S
C1855 H1863 0.929 . S
C1856 C1855 1.383 . S
C1856 C1857 1.377 . S
C1857 H1841 0.930 . S
C1857 C1856 1.377 . S
C1857 C1858 1.379 . S
C1858 H1842 0.931 . S
C1858 C1852 1.383 . S
C1858 C1857 1.379 . S
H1859 C1853 0.959 . S
H1860 C1853 0.961 . S
H1861 C1853 0.960 . S
H1862 C1854 0.930 . S
H1863 C1855 0.929 . S
H1864 C1872 0.929 . S
H1865 C1874 0.930 . S
H1866 C1876 0.930 . S
H1867 C1879 0.929 . S
H1868 C1882 0.930 . S
H1869 C1884 0.960 . S
H1870 C1884 0.960 . S
H1871 C1884 0.960 . S
C1872 H1864 0.929 . S
C1872 C1873 1.377 . S
C1872 C1874 1.384 . S
C1873 C1872 1.377 . S
C1873 C1879 1.390 . S
C1874 H1865 0.930 . S
C1874 C1872 1.384 . S
C1874 C1875 1.372 . S
C1875 C1874 1.372 . S
C1875 C1876 1.400 . S
C1875 C1880 1.490 . S
C1876 H1866 0.930 . S
C1876 C1875 1.400 . S
C1876 C1879 1.386 . S
H1877 C1893 0.930 . S
H1878 C1894 0.931 . S
C1879 H1867 0.929 . S
C1879 C1873 1.390 . S
C1879 C1876 1.386 . S
C1880 C1875 1.490 . S
C1880 C1882 1.395 . S
C1880 C1883 1.403 . S
H1881 C1887 0.930 . S
C1882 H1868 0.930 . S
C1882 C1880 1.395 . S
C1882 C1885 1.403 . S
C1883 C1880 1.403 . S
C1883 C1884 1.524 . S
C1883 C1887 1.400 . S
C1884 H1869 0.960 . S
C1884 H1870 0.960 . S
C1884 H1871 0.960 . S
C1884 C1883 1.524 . S
C1885 C1882 1.403 . S
C1885 C1886 1.392 . S
C1885 C1889 1.495 . S
C1886 C1885 1.392 . S
C1886 C1887 1.385 . S
C1886 C1888 1.478 . S
C1887 H1881 0.930 . S
C1887 C1883 1.400 . S
C1887 C1886 1.385 . S
C1888 C1886 1.478 . S
C1888 C1890 1.381 . S
C1888 C1894 1.383 . S
C1889 C1885 1.495 . S
C1889 H1895 0.959 . S
C1889 H1896 0.961 . S
C1889 H1897 0.960 . S
C1890 C1888 1.381 . S
C1890 C1891 1.394 . S
C1890 H1898 0.930 . S
C1891 C1890 1.394 . S
C1891 C1892 1.383 . S
C1891 H1899 0.929 . S
C1892 C1891 1.383 . S
C1892 C1893 1.377 . S
C1893 H1877 0.930 . S
C1893 C1892 1.377 . S
C1893 C1894 1.379 . S
C1894 H1878 0.931 . S
C1894 C1888 1.383 . S
C1894 C1893 1.379 . S
H1895 C1889 0.959 . S
H1896 C1889 0.961 . S
H1897 C1889 0.960 . S
H1898 C1890 0.930 . S
H1899 C1891 0.929 . S
H1900 C1908 0.929 . S
H1901 C1910 0.930 . S
H1902 C1912 0.930 . S
H1903 C1915 0.929 . S
H1904 C1918 0.930 . S
H1905 C1920 0.960 . S
H1906 C1920 0.960 . S
H1907 C1920 0.960 . S
C1908 H1900 0.929 . S
C1908 C1909 1.377 . S
C1908 C1910 1.384 . S
C1909 C1908 1.377 . S
C1909 C1915 1.390 . S
C1910 H1901 0.930 . S
C1910 C1908 1.384 . S
C1910 C1911 1.372 . S
C1911 C1910 1.372 . S
C1911 C1912 1.400 . S
C1911 C1916 1.490 . S
C1912 H1902 0.930 . S
C1912 C1911 1.400 . S
C1912 C1915 1.386 . S
H1913 C1929 0.930 . S
H1914 C1930 0.931 . S
C1915 H1903 0.929 . S
C1915 C1909 1.390 . S
C1915 C1912 1.386 . S
C1916 C1911 1.490 . S
C1916 C1918 1.395 . S
C1916 C1919 1.403 . S
H1917 C1923 0.930 . S
C1918 H1904 0.930 . S
C1918 C1916 1.395 . S
C1918 C1921 1.403 . S
C1919 C1916 1.403 . S
C1919 C1920 1.524 . S
C1919 C1923 1.400 . S
C1920 H1905 0.960 . S
C1920 H1906 0.960 . S
C1920 H1907 0.960 . S
C1920 C1919 1.524 . S
C1921 C1918 1.403 . S
C1921 C1922 1.392 . S
C1921 C1925 1.495 . S
C1922 C1921 1.392 . S
C1922 C1923 1.385 . S
C1922 C1924 1.478 . S
C1923 H1917 0.930 . S
C1923 C1919 1.400 . S
C1923 C1922 1.385 . S
C1924 C1922 1.478 . S
C1924 C1926 1.381 . S
C1924 C1930 1.383 . S
C1925 C1921 1.495 . S
C1925 H1931 0.959 . S
C1925 H1932 0.961 . S
C1925 H1933 0.960 . S
C1926 C1924 1.381 . S
C1926 C1927 1.394 . S
C1926 H1934 0.930 . S
C1927 C1926 1.394 . S
C1927 C1928 1.383 . S
C1927 H1935 0.929 . S
C1928 C1927 1.383 . S
C1928 C1929 1.377 . S
C1929 H1913 0.930 . S
C1929 C1928 1.377 . S
C1929 C1930 1.379 . S
C1930 H1914 0.931 . S
C1930 C1924 1.383 . S
C1930 C1929 1.379 . S
H1931 C1925 0.959 . S
H1932 C1925 0.961 . S
H1933 C1925 0.960 . S
H1934 C1926 0.930 . S
H1935 C1927 0.929 . S
H1936 C1944 0.929 . S
H1937 C1946 0.930 . S
H1938 C1948 0.930 . S
H1939 C1951 0.929 . S
H1940 C1954 0.930 . S
H1941 C1956 0.960 . S
H1942 C1956 0.960 . S
H1943 C1956 0.960 . S
C1944 H1936 0.929 . S
C1944 C1945 1.377 . S
C1944 C1946 1.384 . S
C1945 C1944 1.377 . S
C1945 C1951 1.390 . S
C1946 H1937 0.930 . S
C1946 C1944 1.384 . S
C1946 C1947 1.372 . S
C1947 C1946 1.372 . S
C1947 C1948 1.400 . S
C1947 C1952 1.490 . S
C1948 H1938 0.930 . S
C1948 C1947 1.400 . S
C1948 C1951 1.386 . S
H1949 C1965 0.930 . S
H1950 C1966 0.931 . S
C1951 H1939 0.929 . S
C1951 C1945 1.390 . S
C1951 C1948 1.386 . S
C1952 C1947 1.490 . S
C1952 C1954 1.395 . S
C1952 C1955 1.403 . S
H1953 C1959 0.930 . S
C1954 H1940 0.930 . S
C1954 C1952 1.395 . S
C1954 C1957 1.403 . S
C1955 C1952 1.403 . S
C1955 C1956 1.524 . S
C1955 C1959 1.400 . S
C1956 H1941 0.960 . S
C1956 H1942 0.960 . S
C1956 H1943 0.960 . S
C1956 C1955 1.524 . S
C1957 C1954 1.403 . S
C1957 C1958 1.392 . S
C1957 C1961 1.495 . S
C1958 C1957 1.392 . S
C1958 C1959 1.385 . S
C1958 C1960 1.478 . S
C1959 H1953 0.930 . S
C1959 C1955 1.400 . S
C1959 C1958 1.385 . S
C1960 C1958 1.478 . S
C1960 C1962 1.381 . S
C1960 C1966 1.383 . S
C1961 C1957 1.495 . S
C1961 H1967 0.959 . S
C1961 H1968 0.961 . S
C1961 H1969 0.960 . S
C1962 C1960 1.381 . S
C1962 C1963 1.394 . S
C1962 H1970 0.930 . S
C1963 C1962 1.394 . S
C1963 C1964 1.383 . S
C1963 H1971 0.929 . S
C1964 C1963 1.383 . S
C1964 C1965 1.377 . S
C1965 H1949 0.930 . S
C1965 C1964 1.377 . S
C1965 C1966 1.379 . S
C1966 H1950 0.931 . S
C1966 C1960 1.383 . S
C1966 C1965 1.379 . S
H1967 C1961 0.959 . S
H1968 C1961 0.961 . S
H1969 C1961 0.960 . S
H1970 C1962 0.930 . S
H1971 C1963 0.929 . S
H1972 C1980 0.929 . S
H1973 C1982 0.930 . S
H1974 C1984 0.930 . S
H1975 C1987 0.929 . S
H1976 C1990 0.930 . S
H1977 C1992 0.960 . S
H1978 C1992 0.960 . S
H1979 C1992 0.960 . S
C1980 H1972 0.929 . S
C1980 C1981 1.377 . S
C1980 C1982 1.384 . S
C1981 C1980 1.377 . S
C1981 C1987 1.390 . S
C1982 H1973 0.930 . S
C1982 C1980 1.384 . S
C1982 C1983 1.372 . S
C1983 C1982 1.372 . S
C1983 C1984 1.400 . S
C1983 C1988 1.490 . S
C1984 H1974 0.930 . S
C1984 C1983 1.400 . S
C1984 C1987 1.386 . S
H1985 C2001 0.930 . S
H1986 C2002 0.931 . S
C1987 H1975 0.929 . S
C1987 C1981 1.390 . S
C1987 C1984 1.386 . S
C1988 C1983 1.490 . S
C1988 C1990 1.395 . S
C1988 C1991 1.403 . S
H1989 C1995 0.930 . S
C1990 H1976 0.930 . S
C1990 C1988 1.395 . S
C1990 C1993 1.403 . S
C1991 C1988 1.403 . S
C1991 C1992 1.524 . S
C1991 C1995 1.400 . S
C1992 H1977 0.960 . S
C1992 H1978 0.960 . S
C1992 H1979 0.960 . S
C1992 C1991 1.524 . S
C1993 C1990 1.403 . S
C1993 C1994 1.392 . S
C1993 C1997 1.495 . S
C1994 C1993 1.392 . S
C1994 C1995 1.385 . S
C1994 C1996 1.478 . S
C1995 H1989 0.930 . S
C1995 C1991 1.400 . S
C1995 C1994 1.385 . S
C1996 C1994 1.478 . S
C1996 C1998 1.381 . S
C1996 C2002 1.383 . S
C1997 C1993 1.495 . S
C1997 H2003 0.959 . S
C1997 H2004 0.961 . S
C1997 H2005 0.960 . S
C1998 C1996 1.381 . S
C1998 C1999 1.394 . S
C1998 H2006 0.930 . S
C1999 C1998 1.394 . S
C1999 C2000 1.383 . S
C1999 H2007 0.929 . S
C2000 C1999 1.383 . S
C2000 C2001 1.377 . S
C2001 H1985 0.930 . S
C2001 C2000 1.377 . S
C2001 C2002 1.379 . S
C2002 H1986 0.931 . S
C2002 C1996 1.383 . S
C2002 C2001 1.379 . S
H2003 C1997 0.959 . S
H2004 C1997 0.961 . S
H2005 C1997 0.960 . S
H2006 C1998 0.930 . S
H2007 C1999 0.929 . S
H2008 C2016 0.929 . S
H2009 C2018 0.930 . S
H2010 C2020 0.930 . S
H2011 C2023 0.929 . S
H2012 C2026 0.930 . S
H2013 C2028 0.960 . S
H2014 C2028 0.960 . S
H2015 C2028 0.960 . S
C2016 H2008 0.929 . S
C2016 C2017 1.377 . S
C2016 C2018 1.384 . S
C2017 C2016 1.377 . S
C2017 C2023 1.390 . S
C2018 H2009 0.930 . S
C2018 C2016 1.384 . S
C2018 C2019 1.372 . S
C2019 C2018 1.372 . S
C2019 C2020 1.400 . S
C2019 C2024 1.490 . S
C2020 H2010 0.930 . S
C2020 C2019 1.400 . S
C2020 C2023 1.386 . S
H2021 C2037 0.930 . S
H2022 C2038 0.931 . S
C2023 H2011 0.929 . S
C2023 C2017 1.390 . S
C2023 C2020 1.386 . S
C2024 C2019 1.490 . S
C2024 C2026 1.395 . S
C2024 C2027 1.403 . S
H2025 C2031 0.930 . S
C2026 H2012 0.930 . S
C2026 C2024 1.395 . S
C2026 C2029 1.403 . S
C2027 C2024 1.403 . S
C2027 C2028 1.524 . S
C2027 C2031 1.400 . S
C2028 H2013 0.960 . S
C2028 H2014 0.960 . S
C2028 H2015 0.960 . S
C2028 C2027 1.524 . S
C2029 C2026 1.403 . S
C2029 C2030 1.392 . S
C2029 C2033 1.495 . S
C2030 C2029 1.392 . S
C2030 C2031 1.385 . S
C2030 C2032 1.478 . S
C2031 H2025 0.930 . S
C2031 C2027 1.400 . S
C2031 C2030 1.385 . S
C2032 C2030 1.478 . S
C2032 C2034 1.381 . S
C2032 C2038 1.383 . S
C2033 C2029 1.495 . S
C2033 H2039 0.959 . S
C2033 H2040 0.961 . S
C2033 H2041 0.960 . S
C2034 C2032 1.381 . S
C2034 C2035 1.394 . S
C2034 H2042 0.930 . S
C2035 C2034 1.394 . S
C2035 C2036 1.383 . S
C2035 H2043 0.929 . S
C2036 C2035 1.383 . S
C2036 C2037 1.377 . S
C2037 H2021 0.930 . S
C2037 C2036 1.377 . S
C2037 C2038 1.379 . S
C2038 H2022 0.931 . S
C2038 C2032 1.383 . S
C2038 C2037 1.379 . S
H2039 C2033 0.959 . S
H2040 C2033 0.961 . S
H2041 C2033 0.960 . S
H2042 C2034 0.930 . S
H2043 C2035 0.929 . S
H2044 C2052 0.929 . S
H2045 C2054 0.930 . S
H2046 C2056 0.930 . S
H2047 C2059 0.929 . S
H2048 C2062 0.930 . S
H2049 C2064 0.960 . S
H2050 C2064 0.960 . S
H2051 C2064 0.960 . S
C2052 H2044 0.929 . S
C2052 C2053 1.377 . S
C2052 C2054 1.384 . S
C2053 C2052 1.377 . S
C2053 C2059 1.390 . S
C2054 H2045 0.930 . S
C2054 C2052 1.384 . S
C2054 C2055 1.372 . S
C2055 C2054 1.372 . S
C2055 C2056 1.400 . S
C2055 C2060 1.490 . S
C2056 H2046 0.930 . S
C2056 C2055 1.400 . S
C2056 C2059 1.386 . S
H2057 C2073 0.930 . S
H2058 C2074 0.931 . S
C2059 H2047 0.929 . S
C2059 C2053 1.390 . S
C2059 C2056 1.386 . S
C2060 C2055 1.490 . S
C2060 C2062 1.395 . S
C2060 C2063 1.403 . S
H2061 C2067 0.930 . S
C2062 H2048 0.930 . S
C2062 C2060 1.395 . S
C2062 C2065 1.403 . S
C2063 C2060 1.403 . S
C2063 C2064 1.524 . S
C2063 C2067 1.400 . S
C2064 H2049 0.960 . S
C2064 H2050 0.960 . S
C2064 H2051 0.960 . S
C2064 C2063 1.524 . S
C2065 C2062 1.403 . S
C2065 C2066 1.392 . S
C2065 C2069 1.495 . S
C2066 C2065 1.392 . S
C2066 C2067 1.385 . S
C2066 C2068 1.478 . S
C2067 H2061 0.930 . S
C2067 C2063 1.400 . S
C2067 C2066 1.385 . S
C2068 C2066 1.478 . S
C2068 C2070 1.381 . S
C2068 C2074 1.383 . S
C2069 C2065 1.495 . S
C2069 H2075 0.959 . S
C2069 H2076 0.961 . S
C2069 H2077 0.960 . S
C2070 C2068 1.381 . S
C2070 C2071 1.394 . S
C2070 H2078 0.930 . S
C2071 C2070 1.394 . S
C2071 C2072 1.383 . S
C2071 H2079 0.929 . S
C2072 C2071 1.383 . S
C2072 C2073 1.377 . S
C2073 H2057 0.930 . S
C2073 C2072 1.377 . S
C2073 C2074 1.379 . S
C2074 H2058 0.931 . S
C2074 C2068 1.383 . S
C2074 C2073 1.379 . S
H2075 C2069 0.959 . S
H2076 C2069 0.961 . S
H2077 C2069 0.960 . S
H2078 C2070 0.930 . S
H2079 C2071 0.929 . S
C361 C15 1.411 . S
C380 C257 1.424 . S
C397 C37 1.422 . S
C416 C183 1.419 . S
C433 C205 1.429 . S
C452 C65 1.418 . S
C469 C241 1.429 . S
C488 C73 1.433 . S
C505 C103 1.413 . S
C524 C307 1.429 . S
C541 C131 1.415 . S
C560 C323 1.438 . S
C577 C345 1.427 . S
C596 C147 1.404 . S
C613 C285 1.433 . S
C632 C161 1.399 . S
C649 C191 1.408 . S
C668 C81 1.419 . S
C685 C7 1.429 . S
C704 C219 1.431 . S
C721 C43 1.428 . S
C740 C227 1.412 . S
C757 C249 1.420 . S
C776 C59 1.428 . S
C793 C271 1.414 . S
C812 C117 1.432 . S
C829 C139 1.434 . S
C848 C301 1.399 . S
C865 C169 1.428 . S
C884 C329 1.411 . S
C901 C95 1.432 . S
C920 C337 1.403 . S
C937 C98 0.857 . S
C956 C10 0.883 . S
C973 C32 0.851 . S
C992 C118 0.817 . S
C1009 C142 0.865 . S
C1028 C52 0.904 . S
C1045 C172 0.836 . S
C1064 C84 0.825 . S
C1081 C282 0.874 . S
C1100 C186 0.858 . S
C1117 C206 0.835 . S
C1136 C296 0.830 . S
C1153 C238 0.860 . S
C1172 C316 0.845 . S
C1189 C348 0.850 . S
C1208 C260 0.847 . S
C1225 C21 1.377 . S
C1244 C294 1.386 . S
C1261 C318 1.379 . S
C1280 C29 1.385 . S
C1297 C340 1.390 . S
C1316 C51 1.389 . S
C1333 C272 1.381 . S
C1352 C87 1.374 . S
C1369 C109 1.381 . S
C1388 C252 1.381 . S
C1405 C125 1.371 . S
C1424 C194 1.382 . S
C1441 C153 1.382 . S
C1460 C216 1.391 . S
C1477 C228 1.379 . S
C1496 C175 1.386 . S
C1513 C128 1.390 . S
C1532 C197 1.384 . S
C1549 C150 1.384 . S
C1568 C213 1.354 . S
C1585 C235 1.382 . S
C1604 C164 1.386 . S
C1621 C106 1.380 . S
C1640 C263 1.384 . S
C1657 C76 1.389 . S
C1676 C279 1.363 . S
C1693 C293 1.368 . S
C1712 C18 1.389 . S
C1729 C30 1.390 . S
C1748 C315 1.389 . S
C1765 C351 1.368 . S
C1784 C54 1.389 . S
C1801 C162 1.055 . S
C1820 C8 1.042 . S
C1837 C96 1.058 . S
C1856 C40 1.045 . S
C1873 C120 1.057 . S
C1892 C62 1.031 . S
C1909 C140 1.052 . S
C1928 C74 1.042 . S
C1945 C184 1.049 . S
C1964 C338 1.057 . S
C1981 C274 1.050 . S
C2000 C208 1.049 . S
C2017 C304 1.058 . S
C2036 C230 1.070 . S
C2053 C250 1.057 . S
C2072 C326 1.032 . S
