# Generated by pormake.
# Topology unn, (4)-cn, num edge types: 1
# Building blocks:
#     Node 0, Type 0, BuildingBlock: KUFVIS_clean_sbu_0, # of connection points: 4
#     Node 1, Type 0, BuildingBlock: KUFVIS_clean_sbu_0, # of connection points: 4
#     Node 2, Type 0, BuildingBlock: KUFVIS_clean_sbu_0, # of connection points: 4
#     Node 3, Type 0, BuildingBlock: KUFVIS_clean_sbu_0, # of connection points: 4
#     Node 4, Type 0, BuildingBlock: KUFVIS_clean_sbu_0, # of connection points: 4
#     Node 5, Type 0, BuildingBlock: KUFVIS_clean_sbu_0, # of connection points: 4
#     Node 6, Type 0, BuildingBlock: KUFVIS_clean_sbu_0, # of connection points: 4
#     Node 7, Type 0, BuildingBlock: KUFVIS_clean_sbu_0, # of connection points: 4
#     Node 8, Type 0, BuildingBlock: KUFVIS_clean_sbu_0, # of connection points: 4
#     Node 9, Type 0, BuildingBlock: KUFVIS_clean_sbu_0, # of connection points: 4
#     Node 10, Type 0, BuildingBlock: KUFVIS_clean_sbu_0, # of connection points: 4
#     Node 11, Type 0, BuildingBlock: KUFVIS_clean_sbu_0, # of connection points: 4
#     Node 12, Type 0, BuildingBlock: KUFVIS_clean_sbu_0, # of connection points: 4
#     Node 13, Type 0, BuildingBlock: KUFVIS_clean_sbu_0, # of connection points: 4
#     Node 14, Type 0, BuildingBlock: KUFVIS_clean_sbu_0, # of connection points: 4
#     Node 15, Type 0, BuildingBlock: KUFVIS_clean_sbu_0, # of connection points: 4
#     Node 16, Type 0, BuildingBlock: KUFVIS_clean_sbu_0, # of connection points: 4
#     Node 17, Type 0, BuildingBlock: KUFVIS_clean_sbu_0, # of connection points: 4
#     Edge 18, Type (0, 0), BuildingBlock: EZIPEK_clean_linker_0, # of connection points: 2
#     Edge 19, Type (0, 0), BuildingBlock: EZIPEK_clean_linker_0, # of connection points: 2
#     Edge 20, Type (0, 0), BuildingBlock: EZIPEK_clean_linker_0, # of connection points: 2
#     Edge 21, Type (0, 0), BuildingBlock: EZIPEK_clean_linker_0, # of connection points: 2
#     Edge 22, Type (0, 0), BuildingBlock: EZIPEK_clean_linker_0, # of connection points: 2
#     Edge 23, Type (0, 0), BuildingBlock: EZIPEK_clean_linker_0, # of connection points: 2
#     Edge 24, Type (0, 0), BuildingBlock: EZIPEK_clean_linker_0, # of connection points: 2
#     Edge 25, Type (0, 0), BuildingBlock: EZIPEK_clean_linker_0, # of connection points: 2
#     Edge 26, Type (0, 0), BuildingBlock: EZIPEK_clean_linker_0, # of connection points: 2
#     Edge 27, Type (0, 0), BuildingBlock: EZIPEK_clean_linker_0, # of connection points: 2
#     Edge 28, Type (0, 0), BuildingBlock: EZIPEK_clean_linker_0, # of connection points: 2
#     Edge 29, Type (0, 0), BuildingBlock: EZIPEK_clean_linker_0, # of connection points: 2
#     Edge 30, Type (0, 0), BuildingBlock: EZIPEK_clean_linker_0, # of connection points: 2
#     Edge 31, Type (0, 0), BuildingBlock: EZIPEK_clean_linker_0, # of connection points: 2
#     Edge 32, Type (0, 0), BuildingBlock: EZIPEK_clean_linker_0, # of connection points: 2
#     Edge 33, Type (0, 0), BuildingBlock: EZIPEK_clean_linker_0, # of connection points: 2
#     Edge 34, Type (0, 0), BuildingBlock: EZIPEK_clean_linker_0, # of connection points: 2
#     Edge 35, Type (0, 0), BuildingBlock: EZIPEK_clean_linker_0, # of connection points: 2
#     Edge 36, Type (0, 0), BuildingBlock: EZIPEK_clean_linker_0, # of connection points: 2
#     Edge 37, Type (0, 0), BuildingBlock: EZIPEK_clean_linker_0, # of connection points: 2
#     Edge 38, Type (0, 0), BuildingBlock: EZIPEK_clean_linker_0, # of connection points: 2
#     Edge 39, Type (0, 0), BuildingBlock: EZIPEK_clean_linker_0, # of connection points: 2
#     Edge 40, Type (0, 0), BuildingBlock: EZIPEK_clean_linker_0, # of connection points: 2
#     Edge 41, Type (0, 0), BuildingBlock: EZIPEK_clean_linker_0, # of connection points: 2
#     Edge 42, Type (0, 0), BuildingBlock: EZIPEK_clean_linker_0, # of connection points: 2
#     Edge 43, Type (0, 0), BuildingBlock: EZIPEK_clean_linker_0, # of connection points: 2
#     Edge 44, Type (0, 0), BuildingBlock: EZIPEK_clean_linker_0, # of connection points: 2
#     Edge 45, Type (0, 0), BuildingBlock: EZIPEK_clean_linker_0, # of connection points: 2
#     Edge 46, Type (0, 0), BuildingBlock: EZIPEK_clean_linker_0, # of connection points: 2
#     Edge 47, Type (0, 0), BuildingBlock: EZIPEK_clean_linker_0, # of connection points: 2
#     Edge 48, Type (0, 0), BuildingBlock: EZIPEK_clean_linker_0, # of connection points: 2
#     Edge 49, Type (0, 0), BuildingBlock: EZIPEK_clean_linker_0, # of connection points: 2
#     Edge 50, Type (0, 0), BuildingBlock: EZIPEK_clean_linker_0, # of connection points: 2
#     Edge 51, Type (0, 0), BuildingBlock: EZIPEK_clean_linker_0, # of connection points: 2
#     Edge 52, Type (0, 0), BuildingBlock: EZIPEK_clean_linker_0, # of connection points: 2
#     Edge 53, Type (0, 0), BuildingBlock: EZIPEK_clean_linker_0, # of connection points: 2
# Relax obj value: 0.184
# Max RMSD: 0.284
# Mean RMSD: 0.268
data_MOF--net-unn--node1-KUFVIS_clean_sbu_0--edge1-EZIPEK_clean_linker_0
_symmetry_space_group_name_H-M    P1
_symmetry_Int_Tables_number       1
_symmetry_cell_setting            triclinic
loop_
_symmetry_equiv_pos_as_xyz
'x, y, z'
_cell_length_a     32.779875
_cell_length_b     34.132249
_cell_length_c     27.686065
_cell_angle_alpha  91.066941
_cell_angle_beta   90.080405
_cell_angle_gamma 118.6826
loop_
_atom_site_label
_atom_site_type_symbol
_atom_site_fract_x
_atom_site_fract_y
_atom_site_fract_z
_atom_type_partial_charge
Mn0 Mn 0.97299 0.70557 0.2211 0.0
Mn1 Mn 0.91175 0.73055 0.29999 0.0
C2 C 0.89503 0.67999 0.20236 0.0
C3 C 0.029 0.7368 0.16209 0.0
C4 C 0.93937 0.65868 0.31592 0.0
O5 O 0.02132 0.75032 0.26733 0.0
O6 O 0.98022 0.7737 0.31226 0.0
C7 C 0.93219 0.81777 0.26037 0.0
N8 N 0.90069 0.7753 0.27207 0.0
C9 C 0.83758 0.78395 0.23949 0.0
C10 C 0.86921 0.82798 0.22751 0.0
C11 C 0.91675 0.84494 0.23798 0.0
C12 C 0.85496 0.75857 0.26195 0.0
H13 H 0.96883 0.83063 0.26774 0.0
C14 C 0.01879 0.77481 0.30084 0.0
O15 O 0.02461 0.70284 0.18666 0.0
O16 O 0.99753 0.74883 0.16873 0.0
N17 N 0.84615 0.69242 0.29381 0.0
C18 C 0.8201 0.6499 0.30931 0.0
C19 C 0.77172 0.628 0.30182 0.0
C20 C 0.75068 0.65024 0.27892 0.0
C21 C 0.77811 0.69455 0.26482 0.0
C22 C 0.82602 0.71478 0.27378 0.0
H23 H 0.83618 0.63281 0.32703 0.0
O24 O 0.91879 0.6643 0.17964 0.0
O25 O 0.91905 0.71184 0.23442 0.0
O26 O 0.95609 0.65915 0.27399 0.0
O27 O 0.92211 0.6837 0.32932 0.0
C28 C 0.75985 0.71941 0.24214 0.0
C29 C 0.7896 0.76407 0.2294 0.0
H30 H 0.85743 0.84893 0.20999 0.0
H31 H 0.94144 0.87876 0.22852 0.0
H32 H 0.75074 0.594 0.31341 0.0
H33 H 0.71341 0.63312 0.27273 0.0
H34 H 0.72304 0.70429 0.23425 0.0
H35 H 0.77552 0.78298 0.21171 0.0
Mn36 Mn 0.33843 0.28833 0.25908 0.0
Mn37 Mn 0.23172 0.2017 0.24169 0.0
C38 C 0.27565 0.2922 0.29376 0.0
C39 C 0.40792 0.32172 0.3017 0.0
C40 C 0.27791 0.27235 0.16768 0.0
O41 O 0.35331 0.24075 0.23503 0.0
O42 O 0.2812 0.18635 0.21726 0.0
C43 C 0.24097 0.14165 0.31133 0.0
N44 N 0.22007 0.16582 0.29746 0.0
C45 C 0.17158 0.14425 0.36775 0.0
C46 C 0.19323 0.11976 0.3832 0.0
C47 C 0.22768 0.11809 0.3545 0.0
C48 C 0.18602 0.16677 0.32412 0.0
H49 H 0.26718 0.1399 0.28937 0.0
C50 C 0.32574 0.20253 0.2175 0.0
O51 O 0.40591 0.33237 0.25729 0.0
O52 O 0.36971 0.29202 0.32082 0.0
N53 N 0.18104 0.21033 0.26322 0.0
C54 C 0.15932 0.23012 0.23988 0.0
C55 C 0.12249 0.23307 0.26244 0.0
C56 C 0.10741 0.21434 0.30802 0.0
C57 C 0.12847 0.19176 0.32999 0.0
C58 C 0.16515 0.19012 0.30583 0.0
H59 H 0.1705 0.24413 0.20461 0.0
O60 O 0.31468 0.3278 0.28627 0.0
O61 O 0.27461 0.25437 0.28104 0.0
O62 O 0.31696 0.29241 0.19029 0.0
O63 O 0.24188 0.23909 0.18462 0.0
C64 C 0.11419 0.17037 0.37462 0.0
C65 C 0.13575 0.14665 0.3935 0.0
H66 H 0.18314 0.10152 0.41655 0.0
H67 H 0.24372 0.09839 0.36521 0.0
H68 H 0.10584 0.24979 0.24479 0.0
H69 H 0.0791 0.21678 0.32538 0.0
H70 H 0.08627 0.17148 0.39441 0.0
H71 H 0.12408 0.12985 0.42754 0.0
Mn72 Mn 0.82987 0.1003 0.23645 0.0
Mn73 Mn 0.71409 0.03763 0.24403 0.0
C74 C 0.78878 0.05806 0.17025 0.0
C75 C 0.88506 0.17302 0.20852 0.0
C76 C 0.7804 0.00815 0.28661 0.0
O77 O 0.8165 0.12446 0.29778 0.0
O78 O 0.7387 0.08209 0.29921 0.0
C79 C 0.69275 0.11046 0.22225 0.0
N80 N 0.68786 0.0694 0.2114 0.0
C81 C 0.64225 0.06256 0.14042 0.0
C82 C 0.64633 0.10458 0.15125 0.0
C83 C 0.67175 0.12866 0.19238 0.0
C84 C 0.66356 0.04599 0.17188 0.0
H85 H 0.71286 0.12922 0.25315 0.0
C86 C 0.77749 0.11185 0.31775 0.0
O87 O 0.89858 0.15017 0.23501 0.0
O88 O 0.84125 0.15518 0.20233 0.0
N89 N 0.68591 0.99351 0.19357 0.0
C90 C 0.68626 0.95401 0.18761 0.0
C91 C 0.66352 0.92641 0.14741 0.0
C92 C 0.63995 0.93923 0.11424 0.0
C93 C 0.63937 0.97971 0.12162 0.0
C94 C 0.6623 1.00566 0.16259 0.0
H95 H 0.70438 0.94402 0.21291 0.0
O96 O 0.83305 0.07307 0.17355 0.0
O97 O 0.77 0.06831 0.20631 0.0
O98 O 0.81936 0.04234 0.27415 0.0
O99 O 0.7402 1.00361 0.27639 0.0
C100 C 0.6181 0.99596 0.0893 0.0
C101 C 0.61909 0.0371 0.09887 0.0
H102 H 0.63061 0.1189 0.12795 0.0
H103 H 0.67551 0.16132 0.2008 0.0
H104 H 0.6649 0.89576 0.14159 0.0
H105 H 0.62265 0.91782 0.08321 0.0
H106 H 0.60222 0.9779 0.0562 0.0
H107 H 0.6029 0.04931 0.07344 0.0
Mn108 Mn 0.96272 0.27482 0.76383 0.0
Mn109 Mn 0.90724 0.33144 0.73028 0.0
C110 C 0.93869 0.30811 0.8217 0.0
C111 C 0.03879 0.28634 0.78565 0.0
C112 C 0.85968 0.22964 0.72969 0.0
O113 O 0.97615 0.28308 0.6927 0.0
O114 O 0.94113 0.32399 0.67375 0.0
C115 C 0.99132 0.41809 0.71402 0.0
N116 N 0.95061 0.39374 0.7376 0.0
C117 C 0.9632 0.45761 0.78672 0.0
C118 C 1.00467 0.4836 0.76212 0.0
C119 C 0.01883 0.4637 0.72568 0.0
C120 C 0.93692 0.41245 0.77306 0.0
H121 H 1.00315 0.40259 0.68721 0.0
C122 C 0.96387 0.30329 0.66246 0.0
O123 O 1.00515 0.24655 0.7746 0.0
O124 O 0.0288 0.31797 0.78106 0.0
N125 N 0.87416 0.34129 0.78185 0.0
C126 C 0.83308 0.31175 0.80175 0.0
C127 C 0.81456 0.32608 0.83957 0.0
C128 C 0.8382 0.37074 0.85612 0.0
C129 C 0.87985 0.40084 0.83424 0.0
C130 C 0.89644 0.38467 0.7965 0.0
H131 H 0.81478 0.27745 0.78905 0.0
O132 O 0.94649 0.27559 0.83261 0.0
O133 O 0.9428 0.318 0.77635 0.0
O134 O 0.89453 0.2254 0.74561 0.0
O135 O 0.86107 0.26738 0.72332 0.0
C136 C 0.90561 0.44621 0.84846 0.0
C137 C 0.94729 0.47457 0.82476 0.0
H138 H 0.02624 0.51866 0.77139 0.0
H139 H 0.05114 0.48333 0.70701 0.0
H140 H 0.7822 0.30271 0.85602 0.0
H141 H 0.82393 0.38161 0.88547 0.0
H142 H 0.89374 0.45962 0.87768 0.0
H143 H 0.96695 0.5093 0.83624 0.0
Mn144 Mn 0.76991 0.72848 0.7346 0.0
Mn145 Mn 0.66583 0.72879 0.72333 0.0
C146 C 0.73228 0.7226 0.657 0.0
C147 C 0.81607 0.69076 0.71169 0.0
C148 C 0.7336 0.77707 0.80378 0.0
O149 O 0.72023 0.66851 0.75948 0.0
O150 O 0.65978 0.68103 0.7664 0.0
C151 C 0.61687 0.64375 0.66762 0.0
N152 N 0.63015 0.68801 0.67283 0.0
C153 C 0.5896 0.68702 0.60023 0.0
C154 C 0.57647 0.64177 0.59353 0.0
C155 C 0.58984 0.61985 0.62734 0.0
C156 C 0.6177 0.70936 0.64017 0.0
H157 H 0.62789 0.62722 0.69326 0.0
C158 C 0.68117 0.65956 0.77753 0.0
O159 O 0.81972 0.70933 0.7538 0.0
O160 O 0.78717 0.69466 0.68324 0.0
N161 N 0.66579 0.77411 0.68406 0.0
C162 C 0.68557 0.81887 0.69347 0.0
C163 C 0.67543 0.84561 0.66303 0.0
C164 C 0.64461 0.82593 0.62371 0.0
C165 C 0.62452 0.77973 0.615 0.0
C166 C 0.63599 0.75486 0.64654 0.0
H167 H 0.7084 0.8339 0.72435 0.0
O168 O 0.76146 0.7077 0.66274 0.0
O169 O 0.72444 0.73824 0.69608 0.0
O170 O 0.76153 0.76034 0.79748 0.0
O171 O 0.70078 0.77118 0.77474 0.0
C172 C 0.59367 0.75731 0.57626 0.0
C173 C 0.57688 0.71109 0.56832 0.0
H174 H 0.5576 0.62405 0.56174 0.0
H175 H 0.57993 0.58491 0.62195 0.0
H176 H 0.69087 0.8812 0.67017 0.0
H177 H 0.63676 0.84662 0.60037 0.0
H178 H 0.58359 0.77551 0.55159 0.0
H179 H 0.55448 0.69447 0.53747 0.0
Mn180 Mn 0.33066 0.09772 0.76223 0.0
Mn181 Mn 0.42117 0.09088 0.71286 0.0
C182 C 0.3982 0.11464 0.81359 0.0
C183 C 0.30319 0.02238 0.80439 0.0
C184 C 0.40871 0.17036 0.69913 0.0
O185 O 0.29791 0.06221 0.70327 0.0
O186 O 0.36244 0.06509 0.67178 0.0
C187 C 0.38072 0.99239 0.70876 0.0
N188 N 0.41559 0.03315 0.72282 0.0
C189 C 0.46352 1.00087 0.74689 0.0
C190 C 0.42632 0.95825 0.73707 0.0
C191 C 0.38497 0.95403 0.71722 0.0
C192 C 0.45658 0.03771 0.73922 0.0
H193 H 0.35048 0.98936 0.69003 0.0
C194 C 0.31897 0.05416 0.66954 0.0
O195 O 0.28547 0.04761 0.80866 0.0
O196 O 0.33719 0.03927 0.77588 0.0
N197 N 0.48023 0.11361 0.74463 0.0
C198 C 0.51181 0.15688 0.75549 0.0
C199 C 0.55641 0.16714 0.77213 0.0
C200 C 0.56822 0.13292 0.77719 0.0
C201 C 0.53517 0.08865 0.76589 0.0
C202 C 0.49148 0.08052 0.74872 0.0
H203 H 0.50317 0.18344 0.75118 0.0
O204 O 0.37214 0.13282 0.81708 0.0
O205 O 0.3871 0.08823 0.77513 0.0
O206 O 0.36848 0.15239 0.7181 0.0
O207 O 0.43384 0.15159 0.69906 0.0
C208 C 0.54327 0.05213 0.77264 0.0
C209 C 0.50734 0.00822 0.76349 0.0
H210 H 0.42983 0.92866 0.74252 0.0
H211 H 0.35729 0.92139 0.70649 0.0
H212 H 0.58169 0.20138 0.78091 0.0
H213 H 0.60252 0.14094 0.79045 0.0
H214 H 0.5767 0.05738 0.78581 0.0
H215 H 0.51376 0.98035 0.7694 0.0
Mn216 Mn 0.64301 0.04172 0.55214 0.0
Mn217 Mn 0.57628 0.0536 0.63587 0.0
C218 C 0.56422 0.0113 0.53418 0.0
C219 C 0.69822 0.08166 0.49391 0.0
C220 C 0.61277 0.98709 0.64239 0.0
O221 O 0.68828 0.08463 0.60185 0.0
O222 O 0.64319 0.10127 0.64903 0.0
C223 C 0.58607 0.14054 0.60711 0.0
N224 N 0.55854 0.09613 0.61445 0.0
C225 C 0.4904 0.09945 0.58802 0.0
C226 C 0.51803 0.14526 0.58012 0.0
C227 C 0.56603 0.16592 0.58987 0.0
C228 C 0.51227 0.07599 0.6056 0.0
H229 H 0.62308 0.15636 0.61395 0.0
C230 C 0.68336 0.10641 0.63686 0.0
O231 O 0.69761 0.04748 0.51476 0.0
O232 O 0.66435 0.08946 0.50424 0.0
N233 N 0.51201 0.0106 0.62817 0.0
C234 C 0.49062 0.96599 0.63658 0.0
C235 C 0.44279 0.94001 0.62689 0.0
C236 C 0.41739 0.96032 0.60936 0.0
C237 C 0.4399 0.00654 0.60249 0.0
C238 C 0.48762 0.03068 0.61276 0.0
H239 H 0.51002 0.95031 0.65001 0.0
O240 O 0.59064 1.00087 0.50826 0.0
O241 O 0.58605 0.04139 0.56851 0.0
O242 O 0.6298 0.9917 0.5999 0.0
O243 O 0.59316 0.00898 0.65925 0.0
C244 C 0.41702 0.0295 0.58521 0.0
C245 C 0.44228 0.07593 0.57804 0.0
H246 H 0.503 0.16483 0.56588 0.0
H247 H 0.58758 0.20121 0.58365 0.0
H248 H 0.42556 0.90442 0.63283 0.0
H249 H 0.38055 0.94014 0.60164 0.0
H250 H 0.38011 0.01171 0.57699 0.0
H251 H 0.42453 0.09318 0.56434 0.0
Mn252 Mn 0.99375 0.61658 0.59898 0.0
Mn253 Mn 0.89219 0.52512 0.57761 0.0
C254 C 0.92714 0.61776 0.62612 0.0
C255 C 0.05647 0.65263 0.65109 0.0
C256 C 0.94694 0.59237 0.50029 0.0
O257 O 1.01256 0.57059 0.57603 0.0
O258 O 0.94368 0.50768 0.5741 0.0
C259 C 0.88654 0.47676 0.66715 0.0
N260 N 0.8676 0.49449 0.63651 0.0
C261 C 0.8023 0.47469 0.68896 0.0
C262 C 0.82045 0.45492 0.72022 0.0
C263 C 0.86286 0.45619 0.70934 0.0
C264 C 0.82713 0.49414 0.64703 0.0
H265 H 0.91983 0.47916 0.65989 0.0
C266 C 0.98829 0.5286 0.56878 0.0
O267 O 0.06033 0.66408 0.60606 0.0
O268 O 0.01856 0.61828 0.66371 0.0
N269 N 0.8403 0.53638 0.57821 0.0
C270 C 0.82839 0.55842 0.54527 0.0
C271 C 0.78801 0.56225 0.55209 0.0
C272 C 0.7601 0.54314 0.59249 0.0
C273 C 0.77244 0.51969 0.62528 0.0
C274 C 0.81282 0.51653 0.61628 0.0
H275 H 0.84971 0.57327 0.51418 0.0
O276 O 0.96644 0.65382 0.62277 0.0
O277 O 0.92863 0.58074 0.6151 0.0
O278 O 0.97704 0.6224 0.52873 0.0
O279 O 0.91492 0.55551 0.51588 0.0
C280 C 0.74648 0.49967 0.66677 0.0
C281 C 0.76143 0.47722 0.69862 0.0
H282 H 0.80266 0.43953 0.75318 0.0
H283 H 0.87747 0.44183 0.73373 0.0
H284 H 0.7784 0.57984 0.52624 0.0
H285 H 0.72919 0.54651 0.59784 0.0
H286 H 0.71521 0.50171 0.67477 0.0
H287 H 0.74158 0.46256 0.73081 0.0
Mn288 Mn 0.50722 0.42261 0.57519 0.0
Mn289 Mn 0.40147 0.40693 0.53825 0.0
C290 C 0.4498 0.41702 0.63312 0.0
C291 C 0.48465 0.34253 0.60346 0.0
C292 C 0.48795 0.49627 0.53085 0.0
O293 O 0.50667 0.40308 0.50568 0.0
O294 O 0.43605 0.39519 0.48565 0.0
C295 C 0.35779 0.30962 0.51857 0.0
N296 N 0.35791 0.3448 0.54277 0.0
C297 C 0.28607 0.29627 0.58185 0.0
C298 C 0.28528 0.25954 0.55741 0.0
C299 C 0.32127 0.26634 0.52553 0.0
C300 C 0.3231 0.33877 0.57293 0.0
H301 H 0.38528 0.31449 0.49402 0.0
C302 C 0.4737 0.39409 0.47548 0.0
O303 O 0.52317 0.37596 0.60925 0.0
O304 O 0.45926 0.35319 0.58018 0.0
N305 N 0.36397 0.41576 0.58585 0.0
C306 C 0.36988 0.45448 0.60692 0.0
C307 C 0.33774 0.45343 0.64104 0.0
C308 C 0.29926 0.41253 0.65262 0.0
C309 C 0.29317 0.37311 0.62968 0.0
C310 C 0.32652 0.37628 0.5961 0.0
H311 H 0.39909 0.48573 0.59811 0.0
O312 O 0.49351 0.43721 0.64263 0.0
O313 O 0.44026 0.40116 0.5895 0.0
O314 O 0.51464 0.48248 0.54884 0.0
O315 O 0.44361 0.4721 0.53013 0.0
C316 C 0.25552 0.33073 0.63915 0.0
C317 C 0.2519 0.29235 0.61514 0.0
H318 H 0.25731 0.226 0.56292 0.0
H319 H 0.32096 0.23841 0.5062 0.0
H320 H 0.34266 0.48409 0.6584 0.0
H321 H 0.2746 0.4118 0.67908 0.0
H322 H 0.22927 0.32726 0.665 0.0
H323 H 0.22292 0.25992 0.62288 0.0
Mn324 Mn 0.63939 0.60549 0.07693 0.0
Mn325 Mn 0.58101 0.65895 0.04202 0.0
C326 C 0.60954 0.63441 0.13437 0.0
C327 C 0.71605 0.62057 0.10244 0.0
C328 C 0.53954 0.55758 0.0364 0.0
O329 O 0.6529 0.6143 0.00496 0.0
O330 O 0.62187 0.65909 0.98849 0.0
C331 C 0.66139 0.74989 0.03734 0.0
N332 N 0.61922 0.72129 0.05594 0.0
C333 C 0.62145 0.77884 0.10921 0.0
C334 C 0.66464 0.80904 0.09011 0.0
C335 C 0.68462 0.79452 0.05394 0.0
C336 C 0.5996 0.73496 0.09066 0.0
H337 H 0.67747 0.73851 0.01058 0.0
C338 C 0.64208 0.63641 0.97553 0.0
O339 O 0.68454 0.58049 0.08902 0.0
O340 O 0.70411 0.65081 0.09676 0.0
N341 N 0.54067 0.6611 0.09063 0.0
C342 C 0.49895 0.62772 0.10527 0.0
C343 C 0.47445 0.63662 0.14156 0.0
C344 C 0.49296 0.67977 0.16215 0.0
C345 C 0.53543 0.71381 0.14565 0.0
C346 C 0.55789 0.70313 0.10884 0.0
H347 H 0.48468 0.59444 0.08971 0.0
O348 O 0.62102 0.60444 0.14584 0.0
O349 O 0.61496 0.64521 0.08938 0.0
O350 O 0.57321 0.55411 0.05672 0.0
O351 O 0.54012 0.59475 0.02881 0.0
C352 C 0.55663 0.75778 0.1647 0.0
C353 C 0.59971 0.79017 0.14671 0.0
H354 H 0.68313 0.84328 0.10332 0.0
H355 H 0.71812 0.81752 0.03934 0.0
H356 H 0.44157 0.61019 0.15388 0.0
H357 H 0.47426 0.68638 0.19057 0.0
H358 H 0.54034 0.76695 0.19354 0.0
H359 H 0.6159 0.82348 0.16248 0.0
Mn360 Mn 0.40216 0.03429 0.0903 0.0
Mn361 Mn 0.33118 0.93291 0.04293 0.0
C362 C 0.36738 0.97564 0.14194 0.0
C363 C 0.39971 0.09785 0.12384 0.0
C364 C 0.43655 0.97544 0.03722 0.0
O365 O 0.39045 0.04806 0.02392 0.0
O366 O 0.34057 0.97964 -0.0056 0.0
C367 C 0.24701 0.94381 0.04192 0.0
N368 N 0.26935 0.92128 0.05698 0.0
C369 C 0.20695 0.87712 0.11058 0.0
C370 C 0.18298 0.8994 0.09508 0.0
C371 C 0.20299 0.93273 0.06041 0.0
C372 C 0.25043 0.88924 0.09044 0.0
H373 H 0.26333 0.97093 0.01712 0.0
C374 C 0.36571 0.02202 0.98999 0.0
O375 O 0.43887 0.10096 0.10904 0.0
O376 O 0.36386 0.05967 0.11812 0.0
N377 N 0.31891 0.88492 0.08518 0.0
C378 C 0.34428 0.86346 0.092 0.0
C379 C 0.32845 0.82801 0.12433 0.0
C380 C 0.28623 0.81448 0.14845 0.0
C381 C 0.25934 0.83529 0.13841 0.0
C382 C 0.27656 0.86977 0.10512 0.0
H383 H 0.37618 0.87323 0.07274 0.0
O384 O 0.40563 0.01112 0.15377 0.0
O385 O 0.35265 0.97497 0.09792 0.0
O386 O 0.44639 0.01213 0.06058 0.0
O387 O 0.39505 0.94376 0.02949 0.0
C388 C 0.21588 0.82283 0.15957 0.0
C389 C 0.1899 0.84403 0.14596 0.0
H390 H 0.14949 0.89162 0.10999 0.0
H391 H 0.18497 0.95048 0.04871 0.0
H392 H 0.34876 0.81123 0.13067 0.0
H393 H 0.27427 0.78739 0.17368 0.0
H394 H 0.20208 0.79695 0.18625 0.0
H395 H 0.1567 0.8344 0.16268 0.0
Mn396 Mn 0.99086 0.43039 0.099 0.0
Mn397 Mn 0.09362 0.4406 0.05743 0.0
C398 C 0.05339 0.44421 0.15483 0.0
C399 C 0.95883 0.34829 0.12557 0.0
C400 C 0.07116 0.51576 0.05151 0.0
O401 O 0.97292 0.40709 0.03073 0.0
O402 O 0.04255 0.41498 0.00714 0.0
C403 C 0.0632 0.34413 0.04374 0.0
N404 N 0.09389 0.38494 0.06276 0.0
C405 C 0.13964 0.35505 0.09895 0.0
C406 C 0.10909 0.31295 0.07882 0.0
C407 C 0.07059 0.30744 0.05131 0.0
C408 C 0.13115 0.39066 0.08925 0.0
H409 H 0.03335 0.33964 0.02287 0.0
C410 C 0.99961 0.40395 -0.00076 0.0
O411 O 0.93971 0.37174 0.1325 0.0
O412 O 0.99593 0.37042 0.10341 0.0
N413 N 0.14494 0.46363 0.10198 0.0
C414 C 0.16839 0.50525 0.12252 0.0
C415 C 0.20555 0.51532 0.15452 0.0
C416 C 0.2184 0.48256 0.16478 0.0
C417 C 0.19406 0.44008 0.14277 0.0
C418 C 0.15763 0.43214 0.11081 0.0
H419 H 0.15851 0.53038 0.11484 0.0
O420 O 0.02036 0.45295 0.16473 0.0
O421 O 0.04913 0.4265 0.11194 0.0
O422 O 0.03066 0.49375 0.06977 0.0
O423 O 0.09928 0.50008 0.04812 0.0
C424 C 0.20384 0.40504 0.1522 0.0
C425 C 0.1768 0.36258 0.13016 0.0
H426 H 0.11426 0.28441 0.0852 0.0
H427 H 0.04653 0.27494 0.03614 0.0
H428 H 0.2241 0.54818 0.17139 0.0
H429 H 0.24679 0.49029 0.18986 0.0
H430 H 0.23194 0.41036 0.17664 0.0
H431 H 0.18426 0.33572 0.13827 0.0
Mn432 Mn 0.30258 0.37193 0.8789 0.0
Mn433 Mn 0.25601 0.41994 0.94724 0.0
C434 C 0.22476 0.34987 0.86763 0.0
C435 C 0.34411 0.3764 0.80915 0.0
C436 C 0.26357 0.3438 0.98262 0.0
O437 O 0.35975 0.42484 0.90677 0.0
O438 O 0.32434 0.44247 0.96512 0.0
C439 C 0.31281 0.50878 0.90412 0.0
N440 N 0.2704 0.47328 0.91319 0.0
C441 C 0.2315 0.50738 0.8715 0.0
C442 C 0.27472 0.54399 0.86133 0.0
C443 C 0.31557 0.5447 0.8778 0.0
C444 C 0.2309 0.47239 0.89769 0.0
H445 H 0.3444 0.51004 0.91705 0.0
C446 C 0.3613 0.44501 0.94609 0.0
O447 O 0.34445 0.35237 0.84507 0.0
O448 O 0.31945 0.39627 0.8136 0.0
N449 N 0.19237 0.40369 0.93516 0.0
C450 C 0.15336 0.36747 0.95076 0.0
C451 C 0.10955 0.36129 0.93632 0.0
C452 C 0.10632 0.39362 0.90846 0.0
C453 C 0.14692 0.43198 0.89534 0.0
C454 C 0.18961 0.43557 0.90931 0.0
H455 H 0.15576 0.34278 0.97267 0.0
O456 O 0.24191 0.32447 0.85375 0.0
O457 O 0.25478 0.38886 0.88673 0.0
O458 O 0.29007 0.34392 0.94795 0.0
O459 O 0.23986 0.36442 0.98072 0.0
C460 C 0.14679 0.46688 0.8691 0.0
C461 C 0.18896 0.50446 0.85707 0.0
H462 H 0.27695 0.57185 0.8412 0.0
H463 H 0.34912 0.57296 0.8704 0.0
H464 H 0.07832 0.33145 0.94614 0.0
H465 H 0.07253 0.38859 0.89742 0.0
H466 H 0.11461 0.46568 0.85849 0.0
H467 H 0.18826 0.53109 0.83702 0.0
Mn468 Mn 0.64731 0.94642 0.92955 0.0
Mn469 Mn 0.55208 0.85342 0.89508 0.0
C470 C 0.5762 0.94325 0.942 0.0
C471 C 0.70122 0.98463 0.98879 0.0
C472 C 0.61642 0.92134 0.82393 0.0
O473 O 0.67173 0.90227 0.91996 0.0
O474 O 0.60628 0.83982 0.89868 0.0
C475 C 0.54101 0.80596 0.98662 0.0
N476 N 0.52302 0.82144 0.95221 0.0
C477 C 0.45389 0.80054 -0.00107 0.0
C478 C 0.47077 0.78224 0.03353 0.0
C479 C 0.51473 0.7853 0.02752 0.0
C480 C 0.48128 0.81982 0.95834 0.0
H481 H 0.5758 0.81103 0.98378 0.0
C482 C 0.65085 0.8617 0.90528 0.0
O483 O 0.71129 0.99538 0.94386 0.0
O484 O 0.66128 0.95128 -0.00139 0.0
N485 N 0.49853 0.86169 0.88874 0.0
C486 C 0.4888 0.88371 0.85383 0.0
C487 C 0.44762 0.88676 0.85636 0.0
C488 C 0.41677 0.86694 0.89457 0.0
C489 C 0.42711 0.84371 0.92957 0.0
C490 C 0.46838 0.84125 0.92477 0.0
H491 H 0.51267 0.89946 0.82467 0.0
O492 O 0.61389 0.98119 0.94016 0.0
O493 O 0.58178 0.90792 0.93544 0.0
O494 O 0.64275 0.94956 0.85604 0.0
O495 O 0.57978 0.88552 0.83498 0.0
C496 C 0.39859 0.82374 0.96958 0.0
C497 C 0.41198 0.80219 0.00425 0.0
H498 H 0.45099 0.76711 0.06562 0.0
H499 H 0.52879 0.77277 0.05492 0.0
H500 H 0.43994 0.90481 0.82926 0.0
H501 H 0.38539 0.86995 0.89681 0.0
H502 H 0.36665 0.82538 0.97445 0.0
H503 H 0.39023 0.7878 0.03538 0.0
Mn504 Mn 0.17256 0.77281 0.90286 0.0
Mn505 Mn 0.05763 0.70499 0.89969 0.0
C506 C 0.13879 0.73508 0.83205 0.0
C507 C 0.22778 0.84889 0.89111 0.0
C508 C 0.12311 0.67293 0.93662 0.0
O509 O 0.15308 0.78939 0.9655 0.0
O510 O 0.07832 0.7367 0.9633 0.0
C511 C 0.0378 0.78105 0.90132 0.0
N512 N 0.03435 0.74379 0.87875 0.0
C513 C 0.99404 0.75335 0.81115 0.0
C514 C 0.9976 0.79205 0.8335 0.0
C515 C 0.01952 0.80591 0.87891 0.0
C516 C 1.01332 0.73019 0.83516 0.0
H517 H 0.05418 0.79162 0.9362 0.0
C518 C 0.11366 0.76815 0.98475 0.0
O519 O 0.23945 0.823 0.91474 0.0
O520 O 0.18581 0.83093 0.8757 0.0
N521 N 0.03089 0.67198 0.8411 0.0
C522 C 0.02489 0.63106 0.82751 0.0
C523 C 1.00109 0.61084 0.78434 0.0
C524 C 0.9826 0.63253 0.7564 0.0
C525 C 0.98714 0.67359 0.77206 0.0
C526 C 1.01085 0.69181 0.8156 0.0
H527 H 0.03741 0.61383 0.84989 0.0
O528 O 0.18323 0.75318 0.83846 0.0
O529 O 0.11569 0.74154 0.86689 0.0
O530 O 0.16071 0.71147 0.93399 0.0
O531 O 0.08314 0.66598 0.9206 0.0
C532 C 0.96853 0.69684 0.74659 0.0
C533 C 0.97196 0.73672 0.76608 0.0
H534 H 0.98335 0.81117 0.81632 0.0
H535 H 0.02223 0.8356 0.89665 0.0
H536 H 0.99663 0.57853 0.77286 0.0
H537 H 0.96427 0.61704 0.72336 0.0
H538 H 0.95168 0.68456 0.71193 0.0
H539 H 0.95711 0.75406 0.74633 0.0
Mn540 Mn 0.2985 0.93337 0.43328 0.0
Mn541 Mn 0.24261 0.98988 0.40099 0.0
C542 C 0.27004 0.96171 0.49221 0.0
C543 C 0.37555 0.9464 0.4554 0.0
C544 C 0.19725 0.88896 0.39331 0.0
O545 O 0.31569 0.94661 0.36358 0.0
O546 O 0.28017 0.98641 0.3456 0.0
C547 C 0.32477 0.07929 0.39089 0.0
N548 N 0.28376 0.05213 0.41268 0.0
C549 C 0.2895 0.11299 0.46286 0.0
C550 C 0.33167 0.14162 0.44082 0.0
C551 C 0.34939 0.12466 0.40472 0.0
C552 C 0.26636 0.06815 0.4474 0.0
H553 H 0.33888 0.0663 0.36364 0.0
C554 C 0.3065 0.96951 0.33414 0.0
O555 O 0.3432 0.907 0.44113 0.0
O556 O 0.36302 0.97653 0.45538 0.0
N557 N 0.20578 0.99532 0.45152 0.0
C558 C 0.16497 0.96324 0.4696 0.0
C559 C 0.14326 0.97449 0.50691 0.0
C560 C 0.16349 0.01866 0.5249 0.0
C561 C 0.20512 0.05124 0.50518 0.0
C562 C 0.22513 0.03806 0.468 0.0
H563 H 0.14932 0.92925 0.45591 0.0
O564 O 0.27873 0.92939 0.50164 0.0
O565 O 0.27631 0.97449 0.44773 0.0
O566 O 0.23156 0.88405 0.40981 0.0
O567 O 0.19845 0.92669 0.3892 0.0
C568 C 0.22775 0.09619 0.52125 0.0
C569 C 0.26985 0.12702 0.50006 0.0
H570 H 0.35092 0.17657 0.45158 0.0
H571 H 0.3821 0.14649 0.38784 0.0
H572 H 0.11107 0.94914 0.52186 0.0
H573 H 0.14674 0.02718 0.55384 0.0
H574 H 0.21322 0.10736 0.55008 0.0
H575 H 0.28716 0.16126 0.51321 0.0
Mn576 Mn 0.1 0.37454 0.41176 0.0
Mn577 Mn 0.99497 0.36745 0.39258 0.0
C578 C 0.08858 0.40913 0.34523 0.0
C579 C 0.15122 0.34378 0.39427 0.0
C580 C 0.06317 0.43368 0.46265 0.0
O581 O 0.05965 0.32437 0.45559 0.0
O582 O 0.99484 0.32992 0.44687 0.0
C583 C 0.94609 0.27296 0.35908 0.0
N584 N 0.95805 0.31651 0.35228 0.0
C585 C 0.90035 0.29646 0.28934 0.0
C586 C 0.88579 0.25122 0.29733 0.0
C587 C 0.90934 0.23945 0.33177 0.0
C588 C 0.93693 0.32827 0.31797 0.0
H589 H 0.96426 0.26399 0.38542 0.0
C590 C 0.0185 0.31422 0.46799 0.0
O591 O 0.15934 0.37136 0.43065 0.0
O592 O 0.11347 0.33306 0.37093 0.0
N593 N 0.98765 0.40141 0.34249 0.0
C594 C 1.00431 0.44638 0.34097 0.0
C595 C 0.98845 0.46411 0.30462 0.0
C596 C 0.9536 0.43524 0.27201 0.0
C597 C 0.93494 0.38891 0.27613 0.0
C598 C 0.95355 0.37335 0.31182 0.0
H599 H 0.02923 0.46848 0.36761 0.0
O600 O 0.12941 0.4219 0.3635 0.0
O601 O 0.05419 0.37517 0.3661 0.0
O602 O 0.09358 0.41977 0.46081 0.0
O603 O 0.02835 0.41981 0.43416 0.0
C604 C 0.89812 0.35752 0.24677 0.0
C605 C 0.88058 0.31132 0.25363 0.0
H606 H 0.85738 0.22532 0.27643 0.0
H607 H 0.89919 0.2047 0.33722 0.0
H608 H 1.00223 0.49988 0.30248 0.0
H609 H 0.94078 0.44898 0.24461 0.0
H610 H 0.88293 0.36854 0.21893 0.0
H611 H 0.85244 0.28751 0.23071 0.0
Mn612 Mn 0.61777 0.75216 0.41008 0.0
Mn613 Mn 0.72044 0.75599 0.38515 0.0
C614 C 0.668 0.75374 0.4747 0.0
C615 C 0.56413 0.66687 0.42934 0.0
C616 C 0.70429 0.83657 0.37508 0.0
O617 O 0.61072 0.73634 0.33859 0.0
O618 O 0.67509 0.7283 0.3303 0.0
C619 C 0.6926 0.65972 0.3781 0.0
N620 N 0.7185 0.70059 0.3997 0.0
C621 C 0.7546 0.67138 0.45345 0.0
C622 C 0.72779 0.62885 0.43228 0.0
C623 C 0.69678 0.62305 0.39433 0.0
C624 C 0.74914 0.70671 0.43558 0.0
H625 H 0.6689 0.65514 0.34874 0.0
C626 C 0.63634 0.72443 0.31454 0.0
O627 O 0.55422 0.69731 0.43502 0.0
O628 O 0.6038 0.68447 0.41275 0.0
N629 N 0.7659 0.78114 0.43604 0.0
C630 C 0.78952 0.82435 0.45234 0.0
C631 C 0.82189 0.83578 0.4904 0.0
C632 C 0.82989 0.80276 0.51103 0.0
C633 C 0.80583 0.7587 0.493 0.0
C634 C 0.77423 0.74935 0.45482 0.0
H635 H 0.78342 0.84984 0.43676 0.0
O636 O 0.63634 0.76494 0.48129 0.0
O637 O 0.66974 0.74218 0.4307 0.0
O638 O 0.66342 0.81846 0.3931 0.0
O639 O 0.72724 0.8154 0.36889 0.0
C640 C 0.81169 0.72362 0.51171 0.0
C641 C 0.78621 0.68003 0.4919 0.0
H642 H 0.73078 0.60045 0.44482 0.0
H643 H 0.67626 0.59041 0.37751 0.0
H644 H 0.84039 0.8699 0.504 0.0
H645 H 0.85456 0.81161 0.54068 0.0
H646 H 0.83564 0.72981 0.54139 0.0
H647 H 0.79108 0.65342 0.50668 0.0
C648 C 0.06856 0.79487 0.09792 0.0
C649 C 0.06667 0.75964 0.12624 0.0
C650 C 0.11812 0.74956 0.07024 0.0
C651 C 0.10932 0.7754 0.03658 0.0
N652 N 0.0895 0.83302 0.02111 0.0
N653 N 0.1131 0.72686 0.1534 0.0
C654 C 0.089 0.80177 0.0515 0.0
C655 C 0.09873 0.74388 0.11688 0.0
N656 N 0.05409 0.82331 0.11681 0.0
N657 N 0.14386 0.72959 0.05698 0.0
H658 H 0.10483 0.72905 0.18936 0.0
H659 H 0.13837 0.71688 0.14961 0.0
H660 H 0.16201 0.73684 0.02466 0.0
H661 H 0.14654 0.70568 0.0775 0.0
H662 H 0.05534 0.85024 0.09864 0.0
H663 H 0.04622 0.82343 0.15321 0.0
H664 H 0.07107 0.85039 0.02677 0.0
H665 H 0.10924 0.84164 0.98969 0.0
C666 C 0.25564 0.27914 0.03259 0.0
C667 C 0.26462 0.32408 0.03006 0.0
C668 C 0.28467 0.33546 0.11688 0.0
C669 C 0.27351 0.28991 0.12015 0.0
N670 N 0.24359 0.21667 0.08216 0.0
N671 N 0.27915 0.39278 0.07299 0.0
C672 C 0.25743 0.26121 0.07832 0.0
C673 C 0.27594 0.35124 0.07315 0.0
N674 N 0.24529 0.25348 -0.00878 0.0
N675 N 0.30513 0.3647 0.15504 0.0
H676 H 0.28033 0.41033 0.04242 0.0
H677 H 0.28022 0.41059 0.10429 0.0
H678 H 0.30916 0.35562 0.18956 0.0
H679 H 0.3217 0.39928 0.15177 0.0
H680 H 0.24487 0.22282 0.98898 0.0
H681 H 0.23875 0.26357 0.95812 0.0
H682 H 0.22586 0.193 0.05498 0.0
H683 H 0.24762 0.20239 0.11345 0.0
C684 C 0.76784 1.00203 0.10298 0.0
C685 C 0.76622 0.03994 0.1229 0.0
C686 C 0.73167 0.04799 0.04781 0.0
C687 C 0.73245 0.00959 0.02888 0.0
N688 N 0.75934 0.95555 0.03214 0.0
N689 N 0.75826 0.10592 0.10997 0.0
C690 C 0.75333 0.98846 0.05455 0.0
C691 C 0.75167 0.06511 0.09403 0.0
N692 N 0.78172 0.97812 0.13117 0.0
N693 N 0.70985 0.06679 0.0225 0.0
H694 H 0.77142 0.11929 0.14409 0.0
H695 H 0.75353 0.12802 0.08824 0.0
H696 H 0.69667 0.05626 0.98757 0.0
H697 H 0.70266 0.09119 0.03687 0.0
H698 H 0.77879 0.94733 0.12121 0.0
H699 H 0.79307 0.9878 0.16654 0.0
H700 H 0.7777 0.94087 0.04714 0.0
H701 H 0.74922 0.9455 -0.00372 0.0
C702 C 0.72655 0.13739 0.42637 0.0
C703 C 0.73428 0.10918 0.45794 0.0
C704 C 0.79744 0.11588 0.40591 0.0
C705 C 0.77649 0.12749 0.3679 0.0
N706 N 0.7343 0.16519 0.34488 0.0
N707 N 0.79075 0.0892 0.48784 0.0
C708 C 0.7452 0.14356 0.37921 0.0
C709 C 0.77448 0.10424 0.45113 0.0
N710 N 0.70458 0.1604 0.4424 0.0
N711 N 0.83944 0.11744 0.39925 0.0
H712 H 0.77964 0.08813 0.52333 0.0
H713 H 0.81575 0.07894 0.48355 0.0
H714 H 0.85797 0.12804 0.36736 0.0
H715 H 0.85805 0.11216 0.42648 0.0
H716 H 0.69948 0.18267 0.42136 0.0
H717 H 0.69768 0.1623 0.47885 0.0
H718 H 0.70733 0.17296 0.34806 0.0
H719 H 0.75346 0.17558 0.31318 0.0
C720 C 0.90843 0.57655 0.41606 0.0
C721 C 0.94885 0.60039 0.44661 0.0
C722 C 0.98839 0.65138 0.3802 0.0
C723 C 0.94573 0.63255 0.35423 0.0
N724 N 0.87033 0.57075 0.33864 0.0
N725 N 0.03284 0.64726 0.44769 0.0
C726 C 0.90717 0.59321 0.3697 0.0
C727 C 0.99063 0.63389 0.4257 0.0
N728 N 0.87142 0.53778 0.43054 0.0
N729 N 0.02655 0.68698 0.36179 0.0
H730 H 0.03736 0.63401 0.47943 0.0
H731 H 0.06462 0.66797 0.43193 0.0
H732 H 0.02751 0.69732 0.32652 0.0
H733 H 0.05683 0.70703 0.38146 0.0
H734 H 0.83768 0.52597 0.41743 0.0
H735 H 0.87516 0.51488 0.45181 0.0
H736 H 0.84163 0.54001 0.34535 0.0
H737 H 0.87026 0.58169 0.30378 0.0
C738 C 0.46911 0.33646 0.41554 0.0
C739 C 0.47746 0.38071 0.42545 0.0
C740 C 0.46965 0.39117 0.33941 0.0
C741 C 0.44992 0.34467 0.33252 0.0
N742 N 0.44771 0.27656 0.35516 0.0
N743 N 0.48775 0.45136 0.39718 0.0
C744 C 0.45631 0.31874 0.36776 0.0
C745 C 0.47976 0.40893 0.3872 0.0
N746 N 0.46892 0.31041 0.45248 0.0
N747 N 0.4776 0.41774 0.30052 0.0
H748 H 0.49429 0.46487 0.43209 0.0
H749 H 0.48491 0.47198 0.37169 0.0
H750 H 0.47222 0.4049 0.26523 0.0
H751 H 0.4946 0.45249 0.30282 0.0
H752 H 0.45943 0.27673 0.4488 0.0
H753 H 0.47718 0.32253 0.48787 0.0
H754 H 0.45271 0.25531 0.37794 0.0
H755 H 0.43827 0.26416 0.31977 0.0
C756 C 0.98535 0.3829 0.86375 0.0
C757 C 0.94489 0.34008 0.86138 0.0
C758 C 0.94021 0.3401 0.94909 0.0
C759 C 0.97901 0.38356 0.95163 0.0
N760 N 0.03253 0.4503 0.9107 0.0
N761 N 0.8769 0.2843 0.9006 0.0
C762 C 0.99885 0.40662 0.90863 0.0
C763 C 0.91948 0.32154 0.90371 0.0
N764 N 0.01418 0.399 0.8251 0.0
N765 N 0.92642 0.31439 0.9891 0.0
H766 H 0.86187 0.26882 0.86756 0.0
H767 H 0.85515 0.27157 0.93021 0.0
H768 H 0.94418 0.32501 0.02199 0.0
H769 H 0.90149 0.28073 0.98794 0.0
H770 H 0.04502 0.42896 0.82565 0.0
H771 H 1.00969 0.38175 0.79271 0.0
H772 H 0.04303 0.47049 0.88053 0.0
H773 H 0.04793 0.4671 0.94294 0.0
C774 C 0.69215 0.63664 0.90537 0.0
C775 C 0.64926 0.63242 0.92258 0.0
C776 C 0.61992 0.62044 0.83854 0.0
C777 C 0.66483 0.63215 0.82208 0.0
N778 N 0.73227 0.62428 0.83806 0.0
N779 N 0.57084 0.61916 0.90366 0.0
C780 C 0.69752 0.63168 0.85498 0.0
C781 C 0.61242 0.6233 0.88869 0.0
N782 N 0.72927 0.64948 0.9361 0.0
N783 N 0.58418 0.60489 0.80566 0.0
H784 H 0.56011 0.61494 0.93932 0.0
H785 H 0.5466 0.62045 0.88032 0.0
H786 H 0.58961 0.60103 0.76913 0.0
H787 H 0.54929 0.59124 0.81487 0.0
H788 H 0.76246 0.65743 0.92429 0.0
H789 H 0.72847 0.65702 0.97258 0.0
H790 H 0.75563 0.62041 0.86042 0.0
H791 H 0.73268 0.61516 0.80199 0.0
C792 C 0.37145 0.08558 0.94277 0.0
C793 C 0.37081 0.04361 0.94273 0.0
C794 C 0.41224 0.06218 0.86629 0.0
C795 C 0.40619 0.09998 0.86236 0.0
N796 N 0.40425 0.1593 0.9085 0.0
N797 N 0.3868 0.98976 0.89962 0.0
C798 C 0.39331 0.11542 0.90451 0.0
C799 C 0.38919 0.03077 0.90268 0.0
N800 N 0.34872 0.09569 0.97811 0.0
N801 N 0.44947 0.06301 0.84456 0.0
H802 H 0.37142 0.96535 0.92546 0.0
H803 H 0.39701 0.97891 0.86871 0.0
H804 H 0.47569 0.09385 0.83365 0.0
H805 H 0.45895 0.03809 0.84813 0.0
H806 H 0.34409 0.1238 0.97759 0.0
H807 H 0.33018 0.07339 0.00522 0.0
H808 H 0.39943 0.17382 0.93989 0.0
H809 H 0.42336 0.18207 0.88196 0.0
C810 C 0.31232 0.059 0.5815 0.0
C811 C 0.29364 0.03476 0.62359 0.0
C812 C 0.24259 0.96963 0.57353 0.0
C813 C 0.27124 0.99043 0.53331 0.0
N814 N 0.34036 0.05478 0.50307 0.0
N815 N 0.23512 0.96826 0.66079 0.0
C816 C 0.30747 0.03547 0.53777 0.0
C817 C 0.25622 0.99059 0.62004 0.0
N818 N 0.33503 0.10447 0.58364 0.0
N819 N 0.20312 0.92959 0.56714 0.0
H820 H 0.24165 0.98391 0.69471 0.0
H821 H 0.21196 0.93415 0.66115 0.0
H822 H 0.19287 0.9136 0.53336 0.0
H823 H 0.17869 0.91433 0.59405 0.0
H824 H 0.34673 0.12391 0.55295 0.0
H825 H 0.33709 0.12209 0.61562 0.0
H826 H 0.3687 0.08669 0.50723 0.0
H827 H 0.34208 0.03843 0.47184 0.0
C828 C 0.94124 0.28436 0.57424 0.0
C829 C 0.97615 0.30134 0.61123 0.0
C830 C 0.03298 0.30166 0.55372 0.0
C831 C 1.00088 0.29291 0.5156 0.0
N832 N 0.9207 0.25561 0.49175 0.0
N833 N 0.05751 0.33556 0.63284 0.0
C834 C 0.95364 0.27806 0.52665 0.0
C835 C 0.02253 0.31182 0.60028 0.0
N836 N 0.89685 0.27577 0.58384 0.0
N837 N 0.07259 0.29887 0.54593 0.0
H838 H 0.05179 0.34818 0.66523 0.0
H839 H 0.09255 0.3477 0.62487 0.0
H840 H 0.07836 0.28637 0.51349 0.0
H841 H 0.09576 0.30234 0.57362 0.0
H842 H 0.87184 0.26921 0.55718 0.0
H843 H 0.8849 0.27695 0.61831 0.0
H844 H 0.88502 0.24014 0.49749 0.0
H845 H 0.9297 0.24799 0.45817 0.0
C846 C 0.68325 0.7028 0.52898 0.0
C847 C 0.69203 0.74669 0.51693 0.0
C848 C 0.73319 0.77528 0.59457 0.0
C849 C 0.71987 0.7309 0.60824 0.0
N850 N 0.69424 0.65432 0.58413 0.0
N851 N 0.72248 0.82427 0.54009 0.0
C852 C 0.69876 0.69533 0.57405 0.0
C853 C 0.71649 0.78281 0.55021 0.0
N854 N 0.65694 0.66725 0.49915 0.0
N855 N 0.76426 0.81049 0.6226 0.0
H856 H 0.71368 0.832 0.50678 0.0
H857 H 0.73393 0.85045 0.56539 0.0
H858 H 0.77888 0.80661 0.6544 0.0
H859 H 0.77937 0.84361 0.61206 0.0
H860 H 0.64118 0.63413 0.50977 0.0
H861 H 0.6505 0.67071 0.46352 0.0
H862 H 0.68642 0.62924 0.55809 0.0
H863 H 0.70081 0.64577 0.61807 0.0
C864 C 0.35797 0.3506 0.72861 0.0
C865 C 0.37215 0.38403 0.76513 0.0
C866 C 0.42515 0.4395 0.7087 0.0
C867 C 0.41618 0.4052 0.67392 0.0
N868 N 0.37714 0.32532 0.65517 0.0
N869 N 0.42543 0.45846 0.79325 0.0
C870 C 0.38324 0.35998 0.68484 0.0
C871 C 0.40748 0.428 0.75601 0.0
N872 N 0.31939 0.31015 0.73497 0.0
N873 N 0.45006 0.48331 0.69621 0.0
H874 H 0.41464 0.44999 0.82868 0.0
H875 H 0.45425 0.48996 0.78995 0.0
H876 H 0.46251 0.49302 0.66137 0.0
H877 H 0.45394 0.50971 0.71872 0.0
H878 H 0.30376 0.28651 0.70714 0.0
H879 H 0.30087 0.30151 0.76714 0.0
H880 H 0.35935 0.29201 0.66525 0.0
H881 H 0.39106 0.32943 0.6212 0.0
C882 C 0.59025 0.91873 0.69101 0.0
C883 C 0.62372 0.96218 0.67842 0.0
C884 C 0.66473 0.9724 0.75543 0.0
C885 C 0.62683 0.93143 0.77109 0.0
N886 N 0.57427 0.85641 0.74183 0.0
N887 N 0.70171 0.02209 0.68865 0.0
C888 C 0.59574 0.90142 0.73523 0.0
C889 C 0.66399 0.98638 0.70752 0.0
N890 N 0.55298 0.89437 0.66126 0.0
N891 N 0.70156 0.99767 0.78546 0.0
H892 H 0.70249 0.03082 0.65269 0.0
H893 H 0.7336 0.04004 0.70639 0.0
H894 H 0.71026 0.98471 0.81502 0.0
H895 H 0.72483 0.03119 0.77987 0.0
H896 H 0.5247 0.86436 0.67138 0.0
H897 H 0.54991 0.90548 0.62728 0.0
H898 H 0.55355 0.83322 0.71535 0.0
H899 H 0.58314 0.84234 0.77042 0.0
C900 C 0.10487 0.73852 0.75222 0.0
C901 C 0.11958 0.71537 0.78388 0.0
C902 C 0.11019 0.66198 0.71842 0.0
C903 C 0.08875 0.6809 0.6897 0.0
N904 N 0.06453 0.73665 0.67821 0.0
N905 N 0.13986 0.65717 0.7972 0.0
C906 C 0.0866 0.71959 0.70589 0.0
C907 C 0.1239 0.678 0.76672 0.0
N908 N 0.10953 0.7792 0.76593 0.0
N909 N 0.1173 0.62867 0.69891 0.0
H910 H 0.15108 0.66852 0.83246 0.0
H911 H 0.13985 0.62732 0.78897 0.0
H912 H 0.10801 0.61725 0.66324 0.0
H913 H 0.13535 0.6147 0.71605 0.0
H914 H 0.10448 0.80006 0.74254 0.0
H915 H 0.12175 0.79388 0.79992 0.0
H916 H 0.05567 0.76049 0.69078 0.0
H917 H 0.05296 0.72552 0.64302 0.0
C918 C 0.58054 0.6656 0.25573 0.0
C919 C 0.62221 0.70625 0.26474 0.0
C920 C 0.64677 0.70631 0.18126 0.0
C921 C 0.60765 0.66333 0.17358 0.0
N922 N 0.53762 0.60125 0.20218 0.0
N923 N 0.68914 0.77039 0.23387 0.0
C924 C 0.57397 0.64329 0.21013 0.0
C925 C 0.65294 0.72835 0.22654 0.0
N926 N 0.54766 0.64803 0.29082 0.0
N927 N 0.68134 0.72384 0.14775 0.0
H928 H 0.70083 0.78458 0.26803 0.0
H929 H 0.7063 0.79199 0.20587 0.0
H930 H 0.67983 0.70958 0.11401 0.0
H931 H 0.71342 0.75198 0.15376 0.0
H932 H 0.51449 0.6213 0.28507 0.0
H933 H 0.55207 0.66176 0.32549 0.0
H934 H 0.51476 0.58183 0.22864 0.0
H935 H 0.53123 0.58469 0.16871 0.0
C936 C 0.30726 0.97515 0.19646 0.0
C937 C 0.33631 0.95638 0.18384 0.0
C938 C 0.3517 0.9525 0.26982 0.0
C939 C 0.32261 0.97151 0.28267 0.0
N940 N 0.29261 0.01975 0.2549 0.0
N941 N 0.37728 0.91788 0.20827 0.0
C942 C 0.30503 0.98747 0.24523 0.0
C943 C 0.35446 0.94103 0.22076 0.0
N944 N 0.28319 0.98333 0.16158 0.0
N945 N 0.3822 0.95176 0.30304 0.0
H946 H 0.38302 0.91263 0.17231 0.0
H947 H 0.38689 0.90106 0.233 0.0
H948 H 0.38898 0.96879 0.33614 0.0
H949 H 0.40643 0.94112 0.29526 0.0
H950 H 0.2567 0.99109 0.16911 0.0
H951 H 0.2869 0.97866 0.12522 0.0
H952 H 0.28307 0.03511 0.22832 0.0
H953 H 0.3003 0.03763 0.28747 0.0
C954 C 0.09748 0.46548 0.28244 0.0
C955 C 0.0869 0.42131 0.29421 0.0
C956 C 0.08205 0.40146 0.20808 0.0
C957 C 0.08139 0.44176 0.19666 0.0
N958 N 0.10118 0.51686 0.22043 0.0
N959 N 0.08976 0.35506 0.26771 0.0
C960 C 0.09434 0.47566 0.23318 0.0
C961 C 0.08707 0.39255 0.2568 0.0
N962 N 0.11138 0.49759 0.3182 0.0
N963 N 0.07021 0.36802 0.17452 0.0
H964 H 0.08022 0.34021 0.30097 0.0
H965 H 0.10155 0.33894 0.24366 0.0
H966 H 0.05866 0.36909 0.14059 0.0
H967 H 0.06616 0.33648 0.18138 0.0
H968 H 0.12272 0.53123 0.31243 0.0
H969 H 0.11344 0.49072 0.35437 0.0
H970 H 0.10576 0.54225 0.24474 0.0
H971 H 0.10193 0.52544 0.1843 0.0
C972 C 0.14931 0.84864 0.32121 0.0
C973 C 0.15394 0.85095 0.37222 0.0
C974 C 0.06884 0.80272 0.3781 0.0
C975 C 0.06386 0.80496 0.32712 0.0
N976 N 0.0996 0.8389 0.25222 0.0
N977 N 0.11779 0.83391 0.44995 0.0
C978 C 0.10432 0.83024 0.29929 0.0
C979 C 0.11353 0.82885 0.40086 0.0
N980 N 0.18836 0.86468 0.29361 0.0
N981 N 0.03152 0.77441 0.40469 0.0
H982 H 0.15011 0.85054 0.46743 0.0
H983 H 0.08952 0.82373 0.47293 0.0
H984 H 0.99844 0.75472 0.38989 0.0
H985 H 0.03414 0.76757 0.44071 0.0
H986 H 0.18748 0.86059 0.25618 0.0
H987 H 0.22165 0.87806 0.30882 0.0
H988 H 0.12732 0.86088 0.23139 0.0
H989 H 0.06722 0.82832 0.23585 0.0
C990 C 0.22621 0.28613 0.3679 0.0
C991 C 0.23802 0.29815 0.31881 0.0
C992 C 0.20204 0.34697 0.32519 0.0
C993 C 0.18597 0.33173 0.37237 0.0
N994 N 0.17746 0.28173 0.43634 0.0
N995 N 0.22751 0.33244 0.24833 0.0
C996 C 0.19658 0.29982 0.39315 0.0
C997 C 0.22307 0.32642 0.29698 0.0
N998 N 0.24449 0.26298 0.39097 0.0
N999 N 0.19875 0.38253 0.30767 0.0
H1000 H 0.24048 0.31597 0.22643 0.0
H1001 H 0.21242 0.34825 0.22922 0.0
H1002 H 0.18568 0.39988 0.328 0.0
H1003 H 0.21374 0.39796 0.27544 0.0
H1004 H 0.24142 0.25728 0.42794 0.0
H1005 H 0.26502 0.25155 0.37339 0.0
H1006 H 0.17946 0.25481 0.45099 0.0
H1007 H 0.15702 0.29204 0.456 0.0
C1008 C 0.76151 0.92889 0.28517 0.0
C1009 C 0.77798 0.96879 0.31274 0.0
C1010 C 0.74897 0.92217 0.3854 0.0
C1011 C 0.72546 0.88312 0.35548 0.0
N1012 N 0.69608 0.85543 0.27546 0.0
N1013 N 0.78474 1.00338 0.39071 0.0
C1014 C 0.72808 0.88812 0.30486 0.0
C1015 C 0.77125 0.96538 0.36361 0.0
N1016 N 0.77803 0.92998 0.24 0.0
N1017 N 0.74974 0.91813 0.43422 0.0
H1018 H 0.80291 0.03472 0.37543 0.0
H1019 H 0.77644 1.00355 0.42699 0.0
H1020 H 0.73184 0.88734 0.45077 0.0
H1021 H 0.76987 0.94481 0.45764 0.0
H1022 H 0.76786 0.90123 0.21857 0.0
H1023 H 0.80678 0.95886 0.22827 0.0
H1024 H 0.69477 0.85931 0.23827 0.0
H1025 H 0.6678 0.82733 0.28946 0.0
C1026 C 0.9505 0.25375 0.2061 0.0
C1027 C 0.91472 0.21573 0.18248 0.0
C1028 C 0.90793 0.26413 0.12132 0.0
C1029 C 0.94252 0.30249 0.14575 0.0
N1030 N 0.98474 0.3335 0.21951 0.0
N1031 N 0.8731 0.18417 0.10778 0.0
C1032 C 0.96131 0.29722 0.1899 0.0
C1033 C 0.89785 0.22092 0.13692 0.0
N1034 N 0.97435 0.24853 0.24363 0.0
N1035 N 0.88139 0.26872 0.0862 0.0
H1036 H 0.86748 0.15247 0.1171 0.0
H1037 H 0.86315 0.18593 0.07247 0.0
H1038 H 0.88488 0.29973 0.0773 0.0
H1039 H 0.85246 0.2418 0.07028 0.0
H1040 H 1.00376 0.27479 0.25961 0.0
H1041 H 0.96764 0.21726 0.25551 0.0
H1042 H 0.99681 0.33176 0.25364 0.0
H1043 H 0.98856 0.36478 0.21142 0.0
C1044 C 0.80125 0.67553 0.11764 0.0
C1045 C 0.76221 0.63313 0.12716 0.0
C1046 C 0.81044 0.62191 0.18832 0.0
C1047 C 0.84686 0.66656 0.18332 0.0
N1048 N 0.87356 0.73809 0.14673 0.0
N1049 N 0.72781 0.57098 0.18149 0.0
C1050 C 0.84086 0.69414 0.14946 0.0
C1051 C 0.76627 0.60756 0.16516 0.0
N1052 N 0.80186 0.69703 0.07627 0.0
N1053 N 0.81807 0.59267 0.2148 0.0
H1054 H 0.69452 0.56 0.16749 0.0
H1055 H 0.7283 0.55427 0.21243 0.0
H1056 H 0.84913 0.6022 0.23351 0.0
H1057 H 0.79476 0.55856 0.21543 0.0
H1058 H 0.83086 0.7259 0.06499 0.0
H1059 H 0.77551 0.68311 0.05013 0.0
H1060 H 0.86862 0.76104 0.12669 0.0
H1061 H 0.90367 0.75254 0.16806 0.0
C1062 C 0.35634 0.18138 0.14317 0.0
C1063 C 0.3478 0.17757 0.19379 0.0
C1064 C 0.38614 0.13086 0.19968 0.0
C1065 C 0.39351 0.13365 0.149 0.0
N1066 N 0.39337 0.16692 0.07363 0.0
N1067 N 0.36481 0.15821 0.27179 0.0
C1068 C 0.38109 0.16083 0.12118 0.0
C1069 C 0.36593 0.15524 0.22253 0.0
N1070 N 0.34066 0.20472 0.11624 0.0
N1071 N 0.39702 0.1034 0.2257 0.0
H1072 H 0.34997 0.17528 0.28983 0.0
H1073 H 0.38168 0.14681 0.29492 0.0
H1074 H 0.41434 0.0873 0.21065 0.0
H1075 H 0.38738 0.09505 0.2614 0.0
H1076 H 0.34117 0.20551 0.07872 0.0
H1077 H 0.32546 0.22259 0.13162 0.0
H1078 H 0.38831 0.1882 0.051 0.0
H1079 H 0.41205 0.15267 0.05746 0.0
C1080 C 0.73113 0.14093 0.71526 0.0
C1081 C 0.72763 0.13842 0.66368 0.0
C1082 C 0.81323 0.18047 0.66074 0.0
C1083 C 0.81617 0.19008 0.71085 0.0
N1084 N 0.77684 0.18189 0.7862 0.0
N1085 N 0.76719 0.16736 0.5883 0.0
C1086 C 0.77469 0.17108 0.73824 0.0
C1087 C 0.76931 0.16138 0.63673 0.0
N1088 N 0.69414 0.11308 0.74248 0.0
N1089 N 0.85257 0.18961 0.63585 0.0
H1090 H 0.73594 0.15814 0.57 0.0
H1091 H 0.79659 0.18655 0.56787 0.0
H1092 H 0.88517 0.2032 0.6527 0.0
H1093 H 0.85186 0.17957 0.59991 0.0
H1094 H 0.6964 0.11067 0.77975 0.0
H1095 H 0.66253 0.08912 0.72767 0.0
H1096 H 0.74739 0.17341 0.80698 0.0
H1097 H 0.80839 0.20139 0.80434 0.0
C1098 C 0.86762 0.6106 0.69007 0.0
C1099 C 0.88686 0.6239 0.64324 0.0
C1100 C 0.8662 0.68444 0.64695 0.0
C1101 C 0.8445 0.66994 0.69233 0.0
N1102 N 0.8187 0.61455 0.75396 0.0
N1103 N 0.89272 0.66613 0.57262 0.0
C1104 C 0.84328 0.63144 0.71287 0.0
C1105 C 0.88166 0.65809 0.62027 0.0
N1106 N 0.87522 0.58025 0.71426 0.0
N1107 N 0.875 0.72525 0.63051 0.0
H1108 H 0.90485 0.64787 0.55228 0.0
H1109 H 0.88545 0.68754 0.5524 0.0
H1110 H 0.86652 0.74678 0.64995 0.0
H1111 H 0.89564 0.73995 0.60062 0.0
H1112 H 0.86723 0.5729 0.75047 0.0
H1113 H 0.89246 0.56445 0.69863 0.0
H1114 H 0.81131 0.58359 0.76748 0.0
H1115 H 0.80372 0.63079 0.77315 0.0
C1116 C 0.43348 0.25345 0.70123 0.0
C1117 C 0.42788 0.21484 0.67502 0.0
C1118 C 0.46565 0.26167 0.60448 0.0
C1119 C 0.46814 0.29935 0.62928 0.0
N1120 N 0.46543 0.33425 0.70467 0.0
N1121 N 0.43438 0.18159 0.59954 0.0
C1122 C 0.45492 0.29607 0.67863 0.0
C1123 C 0.44309 0.21893 0.62616 0.0
N1124 N 0.41832 0.24939 0.7478 0.0
N1125 N 0.48814 0.26742 0.56153 0.0
H1126 H 0.42039 0.14991 0.61399 0.0
H1127 H 0.43755 0.18132 0.56214 0.0
H1128 H 0.50779 0.29879 0.54666 0.0
H1129 H 0.49211 0.24243 0.54353 0.0
H1130 H 0.41516 0.27424 0.76703 0.0
H1131 H 0.40696 0.22021 0.76723 0.0
H1132 H 0.46087 0.3356 0.74169 0.0
H1133 H 0.48195 0.36582 0.68972 0.0
C1134 C 0.26867 0.97297 0.87838 0.0
C1135 C 0.28734 0.97911 0.83089 0.0
C1136 C 0.28294 0.90515 0.83515 0.0
C1137 C 0.25879 0.89654 0.87915 0.0
N1138 N 0.21866 0.91925 0.9365 0.0
N1139 N 0.28985 0.9399 0.75891 0.0
C1140 C 0.24911 0.92978 0.89925 0.0
C1141 C 0.2893 0.94251 0.80792 0.0
N1142 N 0.26963 0.00789 0.90416 0.0
N1143 N 0.29683 0.87596 0.81741 0.0
H1144 H 0.28812 0.96373 0.73745 0.0
H1145 H 0.28499 0.91112 0.74024 0.0
H1146 H 0.292 0.84795 0.83641 0.0
H1147 H 0.31682 0.8823 0.78634 0.0
H1148 H 0.2597 1.00543 0.94019 0.0
H1149 H 0.28497 0.04042 0.89185 0.0
H1150 H 0.20437 0.93946 0.94726 0.0
H1151 H 0.20553 0.88903 0.95446 0.0
C1152 C 0.12561 0.33472 0.78459 0.0
C1153 C 0.08644 0.29775 0.80471 0.0
C1154 C 0.13829 0.29573 0.86818 0.0
C1155 C 0.17591 0.33625 0.85141 0.0
N1156 N 0.2029 0.39746 0.79637 0.0
N1157 N 0.05466 0.248 0.87155 0.0
C1158 C 0.1686 0.35691 0.81076 0.0
C1159 C 0.09256 0.27933 0.848 0.0
N1160 N 0.12234 0.34702 0.73875 0.0
N1161 N 0.14613 0.2729 0.90381 0.0
H1162 H 0.02082 0.23504 0.85819 0.0
H1163 H 0.05648 0.23749 0.90619 0.0
H1164 H 0.17797 0.28528 0.92196 0.0
H1165 H 0.12175 0.24076 0.91358 0.0
H1166 H 0.15045 0.37095 0.71985 0.0
H1167 H 0.09257 0.32891 0.7176 0.0
H1168 H 0.19762 0.41637 0.77045 0.0
H1169 H 0.2354 0.41421 0.81324 0.0
C1170 C 0.74771 0.8485 0.83967 0.0
C1171 C 0.73428 0.8034 0.84742 0.0
C1172 C 0.67334 0.79895 0.90281 0.0
C1173 C 0.68142 0.842 0.8884 0.0
N1174 N 0.72323 0.90453 0.83533 0.0
N1175 N 0.69502 0.73981 0.89622 0.0
C1176 C 0.7187 0.86653 0.85574 0.0
C1177 C 0.70053 0.78016 0.88256 0.0
N1178 N 0.7872 0.87315 0.81418 0.0
N1179 N 0.63845 0.7753 0.93413 0.0
H1180 H 0.67359 0.72143 0.92398 0.0
H1181 H 0.7155 0.72681 0.88163 0.0
H1182 H 0.62194 0.78981 0.95346 0.0
H1183 H 0.6253 0.74145 0.94044 0.0
H1184 H 0.80198 0.90755 0.81021 0.0
H1185 H 0.80744 0.85916 0.80135 0.0
H1186 H 0.74651 0.92115 0.80788 0.0
H1187 H 0.70012 0.91673 0.84126 0.0
C1188 C 0.54514 0.55311 0.47073 0.0
C1189 C 0.50881 0.5409 0.50538 0.0
C1190 C 0.49991 0.60587 0.48007 0.0
C1191 C 0.5385 0.61975 0.4487 0.0
N1192 N 0.57971 0.59324 0.39778 0.0
N1193 N 0.46265 0.56491 0.55168 0.0
C1194 C 0.55623 0.58975 0.4396 0.0
C1195 C 0.48822 0.56914 0.51141 0.0
N1196 N 0.57034 0.53085 0.46742 0.0
N1197 N 0.47275 0.62611 0.47854 0.0
H1198 H 0.46175 0.5447 0.57979 0.0
H1199 H 0.44991 0.58668 0.56106 0.0
H1200 H 0.47695 0.64962 0.45288 0.0
H1201 H 0.44196 0.61488 0.49772 0.0
H1202 H 0.6015 0.54333 0.44865 0.0
H1203 H 0.5625 0.50153 0.48498 0.0
H1204 H 0.58891 0.56941 0.38595 0.0
H1205 H 0.58354 0.616 0.37126 0.0
C1206 C 0.50282 0.02259 0.49124 0.0
C1207 C 0.51467 0.9942 0.51757 0.0
C1208 C 0.43574 0.93131 0.50053 0.0
C1209 C 0.42473 0.95928 0.47182 0.0
N1210 N 0.45564 0.02773 0.42714 0.0
N1211 N 0.4961 0.91872 0.53627 0.0
C1212 C 0.46055 1.00389 0.46371 0.0
C1213 C 0.4824 0.94762 0.51826 0.0
N1214 N 0.53236 0.06756 0.49138 0.0
N1215 N 0.40156 0.89029 0.5138 0.0
H1216 H 0.52868 0.92939 0.5522 0.0
H1217 H 0.47612 0.88413 0.53273 0.0
H1218 H 0.36691 0.87721 0.50342 0.0
H1219 H 0.40685 0.87085 0.53902 0.0
H1220 H 0.52295 0.09042 0.47782 0.0
H1221 H 0.56468 0.08253 0.50879 0.0
H1222 H 0.48213 0.0586 0.41652 0.0
H1223 H 0.42746 0.01428 0.40316 0.0
C1224 C 0.03741 0.44671 0.54328 0.0
C1225 C 0.06313 0.46513 0.50084 0.0
C1226 C 0.03985 0.52334 0.50354 0.0
C1227 C 1.01336 0.50531 0.54612 0.0
N1228 N 0.98414 0.44685 0.60421 0.0
N1229 N 0.10083 0.52814 0.45023 0.0
C1230 C 1.01191 0.46642 0.5658 0.0
C1231 C 0.06874 0.50628 0.48489 0.0
N1232 N 0.03872 0.41089 0.56263 0.0
N1233 N 0.03278 0.55289 0.47716 0.0
H1234 H 0.12221 0.51566 0.43685 0.0
H1235 H 0.10952 0.56019 0.43915 0.0
H1236 H 1.00636 0.56037 0.48538 0.0
H1237 H 0.04776 0.56437 0.44365 0.0
H1238 H 0.02467 0.39771 0.5959 0.0
H1239 H 0.05804 0.39715 0.5469 0.0
H1240 H 0.9736 0.41414 0.61404 0.0
H1241 H 0.9693 0.46259 0.62437 0.0
C1242 C 0.44809 0.49833 0.94362 0.0
C1243 C 0.40812 0.4709 0.97095 0.0
C1244 C 0.45804 0.49313 0.04413 0.0
C1245 C 0.4978 0.51796 0.01575 0.0
N1246 N 0.53123 0.52767 0.93704 0.0
N1247 N 0.38108 0.42941 0.04417 0.0
C1248 C 0.49291 0.51487 0.96494 0.0
C1249 C 0.41464 0.46467 0.0206 0.0
N1250 N 0.44363 0.51128 0.89851 0.0
N1251 N 0.46147 0.49675 0.09326 0.0
H1252 H 0.3525 0.40477 0.02549 0.0
H1253 H 0.3852 0.42148 0.07939 0.0
H1254 H 0.49324 0.5157 0.11121 0.0
H1255 H 0.43247 0.48271 0.1155 0.0
H1256 H 0.47209 0.53404 0.87896 0.0
H1257 H 0.41141 0.50328 0.88317 0.0
H1258 H 0.5291 0.5228 0.89961 0.0
H1259 H 0.56426 0.539 0.95231 0.0
C1260 C 0.51976 0.97324 0.94199 0.0
C1261 C 0.53441 0.94417 0.96297 0.0
C1262 C 0.48746 0.93849 0.03473 0.0
C1263 C 0.47426 0.96876 0.01458 0.0
N1264 N 0.48382 0.02072 0.95248 0.0
N1265 N 0.53349 0.90101 0.03195 0.0
C1266 C 0.49201 0.98762 0.96904 0.0
C1267 C 0.51808 0.92689 0.00963 0.0
N1268 N 0.53172 0.98635 0.89541 0.0
N1269 N 0.47344 0.92191 0.07962 0.0
H1270 H 0.55833 0.89375 0.01731 0.0
H1271 H 0.52226 0.88782 0.0661 0.0
H1272 H 0.45325 0.93053 0.10202 0.0
H1273 H 0.45325 0.93053 0.10202 0.0
H1274 H 0.51827 1.00333 0.87575 0.0
H1275 H 0.55196 0.97657 0.87463 0.0
H1276 H 0.50038 0.04001 0.92279 0.0
H1277 H 0.4635 0.03182 0.97102 0.0
C1278 C 0.0864 0.59024 0.94643 0.0
C1279 C 0.12156 0.63297 0.96199 0.0
C1280 C 0.12481 0.59906 0.0393 0.0
C1281 C 0.08448 0.55848 0.02531 0.0
N1282 N 0.02016 0.52151 0.96879 0.0
N1283 N 0.18677 0.67229 0.01624 0.0
C1284 C 0.06321 0.55596 0.97999 0.0
C1285 C 0.14453 0.63604 0.00672 0.0
N1286 N 0.07778 0.58134 0.89829 0.0
N1287 N 0.14222 0.60302 0.085 0.0
H1288 H 0.20383 0.69723 -0.00875 0.0
H1289 H 0.20725 0.67556 0.04636 0.0
H1290 H 0.12635 0.57764 0.10993 0.0
H1291 H 0.16897 0.63239 0.09981 0.0
H1292 H 0.05504 0.54968 0.8841 0.0
H1293 H 0.09825 0.60465 0.87296 0.0
H1294 H 1.00194 0.52094 0.93761 0.0
H1295 H 1.00108 0.49552 -0.00795 0.0
loop_
_geom_bond_atom_site_label_1
_geom_bond_atom_site_label_2
_geom_bond_distance
_geom_bond_site_symmetry_2
_ccdc_geom_bond_type
Mn0 O5 2.095 . S
Mn0 O15 2.162 . S
Mn0 O16 2.297 . S
Mn0 O24 2.385 1_455 S
Mn0 O25 2.209 1_455 S
Mn0 O26 2.094 1_455 S
Mn1 O6 2.121 1_655 S
Mn1 N8 2.257 . S
Mn1 N17 2.282 . S
Mn1 O25 2.215 . S
Mn1 O27 2.117 . S
C2 O24 1.234 . S
C2 O25 1.283 . S
C3 O15 1.281 . S
C3 O16 1.236 . S
C4 O26 1.240 . S
C4 O27 1.264 . S
O5 Mn0 2.095 . S
O5 C14 1.250 . S
O6 Mn1 2.121 1_455 S
O6 C14 1.258 . S
C7 N8 1.326 . S
C7 C11 1.460 . S
C7 H13 0.929 1_655 S
N8 Mn1 2.257 . S
N8 C7 1.326 . S
N8 C12 1.362 . S
C9 C10 1.258 . S
C9 C12 1.431 . S
C9 C29 1.449 . S
C10 C9 1.258 . S
C10 C11 1.477 . S
C10 H30 0.931 . S
C11 C7 1.460 . S
C11 C10 1.477 . S
C11 H31 0.930 . S
C12 N8 1.362 . S
C12 C9 1.431 . S
C12 C22 1.476 . S
H13 C7 0.929 1_455 S
C14 O5 1.250 . S
C14 O6 1.258 . S
O15 Mn0 2.162 . S
O15 C3 1.281 . S
O16 Mn0 2.297 . S
O16 C3 1.236 . S
N17 Mn1 2.282 . S
N17 C18 1.328 . S
N17 C22 1.318 . S
C18 N17 1.328 . S
C18 C19 1.457 . S
C18 H23 0.929 . S
C19 C18 1.457 . S
C19 C20 1.291 . S
C19 H32 0.931 . S
C20 C19 1.291 . S
C20 C21 1.373 . S
C20 H33 0.929 . S
C21 C20 1.373 . S
C21 C22 1.396 . S
C21 C28 1.403 . S
C22 C12 1.476 . S
C22 N17 1.318 . S
C22 C21 1.396 . S
H23 C18 0.929 . S
O24 Mn0 2.385 1_655 S
O24 C2 1.234 . S
O25 Mn0 2.209 1_655 S
O25 Mn1 2.215 . S
O25 C2 1.283 . S
O26 Mn0 2.094 1_655 S
O26 C4 1.240 . S
O27 Mn1 2.117 . S
O27 C4 1.264 . S
C28 C21 1.403 . S
C28 C29 1.399 . S
C28 H34 0.929 . S
C29 C9 1.449 . S
C29 C28 1.399 . S
C29 H35 0.930 . S
H30 C10 0.931 . S
H31 C11 0.930 . S
H32 C19 0.931 . S
H33 C20 0.929 . S
H34 C28 0.929 . S
H35 C29 0.930 . S
Mn36 O41 2.095 . S
Mn36 O51 2.162 . S
Mn36 O52 2.297 . S
Mn36 O60 2.385 . S
Mn36 O61 2.209 . S
Mn36 O62 2.094 . S
Mn37 O42 2.121 . S
Mn37 N44 2.257 . S
Mn37 N53 2.282 . S
Mn37 O61 2.215 . S
Mn37 O63 2.117 . S
C38 O60 1.234 . S
C38 O61 1.283 . S
C39 O51 1.281 . S
C39 O52 1.236 . S
C40 O62 1.240 . S
C40 O63 1.264 . S
O41 Mn36 2.095 . S
O41 C50 1.250 . S
O42 Mn37 2.121 . S
O42 C50 1.258 . S
C43 N44 1.326 . S
C43 C47 1.460 . S
C43 H49 0.929 . S
N44 Mn37 2.257 . S
N44 C43 1.326 . S
N44 C48 1.362 . S
C45 C46 1.258 . S
C45 C48 1.431 . S
C45 C65 1.449 1_455 S
C46 C45 1.258 . S
C46 C47 1.477 . S
C46 H66 0.931 1_455 S
C47 C43 1.460 . S
C47 C46 1.477 . S
C47 H67 0.930 . S
C48 N44 1.362 . S
C48 C45 1.431 . S
C48 C58 1.476 . S
H49 C43 0.929 . S
C50 O41 1.250 . S
C50 O42 1.258 . S
O51 Mn36 2.162 . S
O51 C39 1.281 . S
O52 Mn36 2.297 . S
O52 C39 1.236 . S
N53 Mn37 2.282 . S
N53 C54 1.328 . S
N53 C58 1.318 . S
C54 N53 1.328 . S
C54 C55 1.457 . S
C54 H59 0.929 . S
C55 C54 1.457 . S
C55 C56 1.291 . S
C55 H68 0.931 . S
C56 C55 1.291 . S
C56 C57 1.373 . S
C56 H69 0.929 . S
C57 C56 1.373 . S
C57 C58 1.396 . S
C57 C64 1.403 . S
C58 C48 1.476 . S
C58 N53 1.318 . S
C58 C57 1.396 . S
H59 C54 0.929 . S
O60 Mn36 2.385 . S
O60 C38 1.234 . S
O61 Mn36 2.209 . S
O61 Mn37 2.215 . S
O61 C38 1.283 . S
O62 Mn36 2.094 . S
O62 C40 1.240 . S
O63 Mn37 2.117 . S
O63 C40 1.264 . S
C64 C57 1.403 . S
C64 C65 1.399 1_455 S
C64 H70 0.929 1_455 S
C65 C45 1.449 1_655 S
C65 C64 1.399 1_655 S
C65 H71 0.930 . S
H66 C46 0.931 1_655 S
H67 C47 0.930 . S
H68 C55 0.931 . S
H69 C56 0.929 . S
H70 C64 0.929 1_655 S
H71 C65 0.930 . S
Mn72 O77 2.095 . S
Mn72 O87 2.162 . S
Mn72 O88 2.297 . S
Mn72 O96 2.385 1_545 S
Mn72 O97 2.209 1_545 S
Mn72 O98 2.094 1_545 S
Mn73 O78 2.121 1_565 S
Mn73 N80 2.257 . S
Mn73 N89 2.282 . S
Mn73 O97 2.215 . S
Mn73 O99 2.117 . S
C74 O96 1.234 . S
C74 O97 1.283 . S
C75 O87 1.281 . S
C75 O88 1.236 . S
C76 O98 1.240 . S
C76 O99 1.264 . S
O77 Mn72 2.095 . S
O77 C86 1.250 . S
O78 Mn73 2.121 1_545 S
O78 C86 1.258 . S
C79 N80 1.326 . S
C79 C83 1.460 . S
C79 H85 0.937 . S
N80 Mn73 2.257 . S
N80 C79 1.326 . S
N80 C84 1.362 . S
C81 C82 1.258 . S
C81 C84 1.431 . S
C81 C101 1.449 . S
C82 C81 1.258 . S
C82 C83 1.477 . S
C82 H102 0.931 . S
C83 C79 1.460 . S
C83 C82 1.477 . S
C83 H103 0.930 . S
C84 N80 1.362 . S
C84 C81 1.431 . S
C84 C94 1.476 . S
H85 C79 0.937 . S
C86 O77 1.250 . S
C86 O78 1.258 . S
O87 Mn72 2.162 . S
O87 C75 1.281 . S
O88 Mn72 2.297 . S
O88 C75 1.236 . S
N89 Mn73 2.282 . S
N89 C90 1.328 . S
N89 C94 1.318 . S
C90 N89 1.328 . S
C90 C91 1.457 . S
C90 H95 0.929 . S
C91 C90 1.457 . S
C91 C92 1.291 . S
C91 H104 0.931 . S
C92 C91 1.291 . S
C92 C93 1.373 . S
C92 H105 0.929 . S
C93 C92 1.373 . S
C93 C94 1.396 . S
C93 C100 1.403 . S
C94 C84 1.476 . S
C94 N89 1.318 . S
C94 C93 1.396 . S
H95 C90 0.929 . S
O96 Mn72 2.385 1_565 S
O96 C74 1.234 . S
O97 Mn72 2.209 1_565 S
O97 Mn73 2.215 . S
O97 C74 1.283 . S
O98 Mn72 2.094 1_565 S
O98 C76 1.240 . S
O99 Mn73 2.117 . S
O99 C76 1.264 . S
C100 C93 1.403 . S
C100 C101 1.399 . S
C100 H106 0.929 . S
C101 C81 1.449 . S
C101 C100 1.399 . S
C101 H107 0.930 . S
H102 C82 0.931 . S
H103 C83 0.930 . S
H104 C91 0.931 . S
H105 C92 0.929 . S
H106 C100 0.929 . S
H107 C101 0.930 . S
Mn108 O113 2.095 . S
Mn108 O123 2.162 . S
Mn108 O124 2.297 . S
Mn108 O132 2.385 1_455 S
Mn108 O133 2.209 1_455 S
Mn108 O134 2.094 1_455 S
Mn109 O114 2.121 . S
Mn109 N116 2.257 . S
Mn109 N125 2.282 . S
Mn109 O133 2.215 . S
Mn109 O135 2.117 . S
C110 O132 1.234 . S
C110 O133 1.283 . S
C111 O123 1.281 . S
C111 O124 1.236 . S
C112 O134 1.240 . S
C112 O135 1.264 . S
O113 Mn108 2.095 . S
O113 C122 1.250 . S
O114 Mn109 2.121 . S
O114 C122 1.258 1_655 S
C115 N116 1.326 . S
C115 C119 1.460 . S
C115 H121 0.929 . S
N116 Mn109 2.257 . S
N116 C115 1.326 . S
N116 C120 1.362 . S
C117 C118 1.258 . S
C117 C120 1.431 . S
C117 C137 1.449 . S
C118 C117 1.258 . S
C118 C119 1.477 . S
C118 H138 0.931 . S
C119 C115 1.460 . S
C119 C118 1.477 . S
C119 H139 0.930 . S
C120 N116 1.362 . S
C120 C117 1.431 . S
C120 C130 1.476 . S
H121 C115 0.929 . S
C122 O113 1.250 . S
C122 O114 1.258 1_455 S
O123 Mn108 2.162 . S
O123 C111 1.281 . S
O124 Mn108 2.297 . S
O124 C111 1.236 . S
N125 Mn109 2.282 . S
N125 C126 1.328 . S
N125 C130 1.318 . S
C126 N125 1.328 . S
C126 C127 1.457 . S
C126 H131 0.929 . S
C127 C126 1.457 . S
C127 C128 1.291 . S
C127 H140 0.931 . S
C128 C127 1.291 . S
C128 C129 1.373 . S
C128 H141 0.929 . S
C129 C128 1.373 . S
C129 C130 1.396 . S
C129 C136 1.403 . S
C130 C120 1.476 . S
C130 N125 1.318 . S
C130 C129 1.396 . S
H131 C126 0.929 . S
O132 Mn108 2.385 1_655 S
O132 C110 1.234 . S
O133 Mn108 2.209 1_655 S
O133 Mn109 2.215 . S
O133 C110 1.283 . S
O134 Mn108 2.094 1_655 S
O134 C112 1.240 . S
O135 Mn109 2.117 . S
O135 C112 1.264 . S
C136 C129 1.403 . S
C136 C137 1.399 . S
C136 H142 0.929 . S
C137 C117 1.449 . S
C137 C136 1.399 . S
C137 H143 0.930 . S
H138 C118 0.931 . S
H139 C119 0.930 . S
H140 C127 0.931 . S
H141 C128 0.929 . S
H142 C136 0.929 . S
H143 C137 0.930 . S
Mn144 O149 2.095 . S
Mn144 O159 2.162 . S
Mn144 O160 2.297 . S
Mn144 O168 2.385 . S
Mn144 O169 2.209 . S
Mn144 O170 2.094 . S
Mn145 O150 2.121 . S
Mn145 N152 2.257 . S
Mn145 N161 2.282 . S
Mn145 O169 2.215 . S
Mn145 O171 2.117 . S
C146 O168 1.234 . S
C146 O169 1.283 . S
C147 O159 1.281 . S
C147 O160 1.236 . S
C148 O170 1.240 . S
C148 O171 1.264 . S
O149 Mn144 2.095 . S
O149 C158 1.250 . S
O150 Mn145 2.121 . S
O150 C158 1.258 . S
C151 N152 1.326 . S
C151 C155 1.460 . S
C151 H157 0.929 . S
N152 Mn145 2.257 . S
N152 C151 1.326 . S
N152 C156 1.362 . S
C153 C154 1.258 . S
C153 C156 1.431 . S
C153 C173 1.449 . S
C154 C153 1.258 . S
C154 C155 1.477 . S
C154 H174 0.931 . S
C155 C151 1.460 . S
C155 C154 1.477 . S
C155 H175 0.930 . S
C156 N152 1.362 . S
C156 C153 1.431 . S
C156 C166 1.476 . S
H157 C151 0.929 . S
C158 O149 1.250 . S
C158 O150 1.258 . S
O159 Mn144 2.162 . S
O159 C147 1.281 . S
O160 Mn144 2.297 . S
O160 C147 1.236 . S
N161 Mn145 2.282 . S
N161 C162 1.328 . S
N161 C166 1.318 . S
C162 N161 1.328 . S
C162 C163 1.457 . S
C162 H167 0.929 . S
C163 C162 1.457 . S
C163 C164 1.291 . S
C163 H176 0.931 . S
C164 C163 1.291 . S
C164 C165 1.373 . S
C164 H177 0.929 . S
C165 C164 1.373 . S
C165 C166 1.396 . S
C165 C172 1.403 . S
C166 C156 1.476 . S
C166 N161 1.318 . S
C166 C165 1.396 . S
H167 C162 0.929 . S
O168 Mn144 2.385 . S
O168 C146 1.234 . S
O169 Mn144 2.209 . S
O169 Mn145 2.215 . S
O169 C146 1.283 . S
O170 Mn144 2.094 . S
O170 C148 1.240 . S
O171 Mn145 2.117 . S
O171 C148 1.264 . S
C172 C165 1.403 . S
C172 C173 1.399 . S
C172 H178 0.929 . S
C173 C153 1.449 . S
C173 C172 1.399 . S
C173 H179 0.930 . S
H174 C154 0.931 . S
H175 C155 0.930 . S
H176 C163 0.931 . S
H177 C164 0.929 . S
H178 C172 0.929 . S
H179 C173 0.930 . S
Mn180 O185 2.095 1_545 S
Mn180 O195 2.162 1_545 S
Mn180 O196 2.297 1_545 S
Mn180 O204 2.385 . S
Mn180 O205 2.209 . S
Mn180 O206 2.094 . S
Mn181 O186 2.121 . S
Mn181 N188 2.257 . S
Mn181 N197 2.282 . S
Mn181 O205 2.215 . S
Mn181 O207 2.117 . S
C182 O204 1.234 . S
C182 O205 1.283 . S
C183 O195 1.281 . S
C183 O196 1.236 . S
C184 O206 1.240 . S
C184 O207 1.264 . S
O185 Mn180 2.095 1_565 S
O185 C194 1.250 . S
O186 Mn181 2.121 . S
O186 C194 1.258 1_545 S
C187 N188 1.326 . S
C187 C191 1.460 . S
C187 H193 0.929 . S
N188 Mn181 2.257 . S
N188 C187 1.326 . S
N188 C192 1.362 . S
C189 C190 1.258 . S
C189 C192 1.431 . S
C189 C209 1.449 . S
C190 C189 1.258 . S
C190 C191 1.477 . S
C190 H210 0.931 . S
C191 C187 1.460 . S
C191 C190 1.477 . S
C191 H211 0.930 . S
C192 N188 1.362 . S
C192 C189 1.431 . S
C192 C202 1.476 . S
H193 C187 0.929 . S
C194 O185 1.250 . S
C194 O186 1.258 1_565 S
O195 Mn180 2.162 1_565 S
O195 C183 1.281 . S
O196 Mn180 2.297 1_565 S
O196 C183 1.236 . S
N197 Mn181 2.282 . S
N197 C198 1.328 . S
N197 C202 1.318 . S
C198 N197 1.328 . S
C198 C199 1.457 . S
C198 H203 0.929 . S
C199 C198 1.457 . S
C199 C200 1.291 . S
C199 H212 0.931 . S
C200 C199 1.291 . S
C200 C201 1.373 . S
C200 H213 0.929 . S
C201 C200 1.373 . S
C201 C202 1.396 . S
C201 C208 1.403 . S
C202 C192 1.476 . S
C202 N197 1.318 . S
C202 C201 1.396 . S
H203 C198 0.929 . S
O204 Mn180 2.385 . S
O204 C182 1.234 . S
O205 Mn180 2.209 . S
O205 Mn181 2.215 . S
O205 C182 1.283 . S
O206 Mn180 2.094 . S
O206 C184 1.240 . S
O207 Mn181 2.117 . S
O207 C184 1.264 . S
C208 C201 1.403 . S
C208 C209 1.399 . S
C208 H214 0.929 . S
C209 C189 1.449 . S
C209 C208 1.399 . S
C209 H215 0.930 . S
H210 C190 0.931 . S
H211 C191 0.930 . S
H212 C199 0.931 . S
H213 C200 0.929 . S
H214 C208 0.929 . S
H215 C209 0.930 . S
Mn216 O221 2.095 . S
Mn216 O231 2.162 . S
Mn216 O232 2.297 . S
Mn216 O240 2.385 . S
Mn216 O241 2.209 . S
Mn216 O242 2.094 . S
Mn217 O222 2.121 . S
Mn217 N224 2.257 . S
Mn217 N233 2.282 . S
Mn217 O241 2.215 . S
Mn217 O243 2.117 . S
C218 O240 1.234 . S
C218 O241 1.283 . S
C219 O231 1.281 . S
C219 O232 1.236 . S
C220 O242 1.240 . S
C220 O243 1.264 . S
O221 Mn216 2.095 . S
O221 C230 1.250 . S
O222 Mn217 2.121 . S
O222 C230 1.258 . S
C223 N224 1.326 . S
C223 C227 1.460 . S
C223 H229 0.929 . S
N224 Mn217 2.257 . S
N224 C223 1.326 . S
N224 C228 1.362 . S
C225 C226 1.258 . S
C225 C228 1.431 . S
C225 C245 1.449 . S
C226 C225 1.258 . S
C226 C227 1.477 . S
C226 H246 0.931 . S
C227 C223 1.460 . S
C227 C226 1.477 . S
C227 H247 0.930 . S
C228 N224 1.362 . S
C228 C225 1.431 . S
C228 C238 1.476 . S
H229 C223 0.929 . S
C230 O221 1.250 . S
C230 O222 1.258 . S
O231 Mn216 2.162 . S
O231 C219 1.281 . S
O232 Mn216 2.297 . S
O232 C219 1.236 . S
N233 Mn217 2.282 . S
N233 C234 1.328 . S
N233 C238 1.318 . S
C234 N233 1.328 . S
C234 C235 1.457 . S
C234 H239 0.929 . S
C235 C234 1.457 . S
C235 C236 1.291 . S
C235 H248 0.931 . S
C236 C235 1.291 . S
C236 C237 1.373 . S
C236 H249 0.929 . S
C237 C236 1.373 . S
C237 C238 1.396 . S
C237 C244 1.403 . S
C238 C228 1.476 . S
C238 N233 1.318 . S
C238 C237 1.396 . S
H239 C234 0.929 . S
O240 Mn216 2.385 . S
O240 C218 1.234 . S
O241 Mn216 2.209 . S
O241 Mn217 2.215 . S
O241 C218 1.283 . S
O242 Mn216 2.094 . S
O242 C220 1.240 . S
O243 Mn217 2.117 . S
O243 C220 1.264 . S
C244 C237 1.403 . S
C244 C245 1.399 . S
C244 H250 0.929 . S
C245 C225 1.449 . S
C245 C244 1.399 . S
C245 H251 0.930 . S
H246 C226 0.931 . S
H247 C227 0.930 . S
H248 C235 0.931 . S
H249 C236 0.929 . S
H250 C244 0.929 . S
H251 C245 0.930 . S
Mn252 O257 2.095 . S
Mn252 O267 2.162 . S
Mn252 O268 2.297 . S
Mn252 O276 2.385 . S
Mn252 O277 2.209 . S
Mn252 O278 2.094 . S
Mn253 O258 2.121 . S
Mn253 N260 2.257 . S
Mn253 N269 2.282 . S
Mn253 O277 2.215 . S
Mn253 O279 2.117 . S
C254 O276 1.234 . S
C254 O277 1.283 . S
C255 O267 1.281 . S
C255 O268 1.236 . S
C256 O278 1.240 . S
C256 O279 1.264 . S
O257 Mn252 2.095 . S
O257 C266 1.250 . S
O258 Mn253 2.121 . S
O258 C266 1.258 . S
C259 N260 1.326 . S
C259 C263 1.460 . S
C259 H265 0.929 . S
N260 Mn253 2.257 . S
N260 C259 1.326 . S
N260 C264 1.362 . S
C261 C262 1.258 . S
C261 C264 1.431 . S
C261 C281 1.449 . S
C262 C261 1.258 . S
C262 C263 1.477 . S
C262 H282 0.931 . S
C263 C259 1.460 . S
C263 C262 1.477 . S
C263 H283 0.930 . S
C264 N260 1.362 . S
C264 C261 1.431 . S
C264 C274 1.476 . S
H265 C259 0.929 . S
C266 O257 1.250 . S
C266 O258 1.258 . S
O267 Mn252 2.162 . S
O267 C255 1.281 . S
O268 Mn252 2.297 . S
O268 C255 1.236 . S
N269 Mn253 2.282 . S
N269 C270 1.328 . S
N269 C274 1.318 . S
C270 N269 1.328 . S
C270 C271 1.457 . S
C270 H275 0.929 . S
C271 C270 1.457 . S
C271 C272 1.291 . S
C271 H284 0.931 . S
C272 C271 1.291 . S
C272 C273 1.373 . S
C272 H285 0.929 . S
C273 C272 1.373 . S
C273 C274 1.396 . S
C273 C280 1.403 . S
C274 C264 1.476 . S
C274 N269 1.318 . S
C274 C273 1.396 . S
H275 C270 0.929 . S
O276 Mn252 2.385 . S
O276 C254 1.234 . S
O277 Mn252 2.209 . S
O277 Mn253 2.215 . S
O277 C254 1.283 . S
O278 Mn252 2.094 . S
O278 C256 1.240 . S
O279 Mn253 2.117 . S
O279 C256 1.264 . S
C280 C273 1.403 . S
C280 C281 1.399 . S
C280 H286 0.929 . S
C281 C261 1.449 . S
C281 C280 1.399 . S
C281 H287 0.930 . S
H282 C262 0.931 . S
H283 C263 0.930 . S
H284 C271 0.931 . S
H285 C272 0.929 . S
H286 C280 0.929 . S
H287 C281 0.930 . S
Mn288 O293 2.095 . S
Mn288 O303 2.162 . S
Mn288 O304 2.297 . S
Mn288 O312 2.385 . S
Mn288 O313 2.209 . S
Mn288 O314 2.094 . S
Mn289 O294 2.121 . S
Mn289 N296 2.257 . S
Mn289 N305 2.282 . S
Mn289 O313 2.215 . S
Mn289 O315 2.117 . S
C290 O312 1.234 . S
C290 O313 1.283 . S
C291 O303 1.281 . S
C291 O304 1.236 . S
C292 O314 1.240 . S
C292 O315 1.264 . S
O293 Mn288 2.095 . S
O293 C302 1.250 . S
O294 Mn289 2.121 . S
O294 C302 1.258 . S
C295 N296 1.326 . S
C295 C299 1.460 . S
C295 H301 0.929 . S
N296 Mn289 2.257 . S
N296 C295 1.326 . S
N296 C300 1.362 . S
C297 C298 1.258 . S
C297 C300 1.431 . S
C297 C317 1.449 . S
C298 C297 1.258 . S
C298 C299 1.477 . S
C298 H318 0.931 . S
C299 C295 1.460 . S
C299 C298 1.477 . S
C299 H319 0.930 . S
C300 N296 1.362 . S
C300 C297 1.431 . S
C300 C310 1.476 . S
H301 C295 0.929 . S
C302 O293 1.250 . S
C302 O294 1.258 . S
O303 Mn288 2.162 . S
O303 C291 1.281 . S
O304 Mn288 2.297 . S
O304 C291 1.236 . S
N305 Mn289 2.282 . S
N305 C306 1.328 . S
N305 C310 1.318 . S
C306 N305 1.328 . S
C306 C307 1.457 . S
C306 H311 0.929 . S
C307 C306 1.457 . S
C307 C308 1.291 . S
C307 H320 0.931 . S
C308 C307 1.291 . S
C308 C309 1.373 . S
C308 H321 0.929 . S
C309 C308 1.373 . S
C309 C310 1.396 . S
C309 C316 1.403 . S
C310 C300 1.476 . S
C310 N305 1.318 . S
C310 C309 1.396 . S
H311 C306 0.929 . S
O312 Mn288 2.385 . S
O312 C290 1.234 . S
O313 Mn288 2.209 . S
O313 Mn289 2.215 . S
O313 C290 1.283 . S
O314 Mn288 2.094 . S
O314 C292 1.240 . S
O315 Mn289 2.117 . S
O315 C292 1.264 . S
C316 C309 1.403 . S
C316 C317 1.399 . S
C316 H322 0.929 . S
C317 C297 1.449 . S
C317 C316 1.399 . S
C317 H323 0.930 . S
H318 C298 0.931 . S
H319 C299 0.930 . S
H320 C307 0.931 . S
H321 C308 0.929 . S
H322 C316 0.929 . S
H323 C317 0.930 . S
Mn324 O329 2.095 . S
Mn324 O339 2.162 . S
Mn324 O340 2.297 . S
Mn324 O348 2.385 . S
Mn324 O349 2.209 . S
Mn324 O350 2.094 . S
Mn325 O330 2.121 . S
Mn325 N332 2.257 . S
Mn325 N341 2.282 . S
Mn325 O349 2.215 . S
Mn325 O351 2.117 . S
C326 O348 1.234 . S
C326 O349 1.283 . S
C327 O339 1.281 . S
C327 O340 1.236 . S
C328 O350 1.240 . S
C328 O351 1.264 . S
O329 Mn324 2.095 . S
O329 C338 1.248 1_554 S
O330 Mn325 2.121 . S
O330 C338 1.257 1_554 S
C331 N332 1.326 . S
C331 C335 1.460 . S
C331 H337 0.929 . S
N332 Mn325 2.257 . S
N332 C331 1.326 . S
N332 C336 1.362 . S
C333 C334 1.258 . S
C333 C336 1.431 . S
C333 C353 1.449 . S
C334 C333 1.258 . S
C334 C335 1.477 . S
C334 H354 0.931 . S
C335 C331 1.460 . S
C335 C334 1.477 . S
C335 H355 0.930 . S
C336 N332 1.362 . S
C336 C333 1.431 . S
C336 C346 1.476 . S
H337 C331 0.929 . S
C338 O329 1.248 1_556 S
C338 O330 1.257 1_556 S
O339 Mn324 2.162 . S
O339 C327 1.281 . S
O340 Mn324 2.297 . S
O340 C327 1.236 . S
N341 Mn325 2.282 . S
N341 C342 1.328 . S
N341 C346 1.318 . S
C342 N341 1.328 . S
C342 C343 1.457 . S
C342 H347 0.929 . S
C343 C342 1.457 . S
C343 C344 1.291 . S
C343 H356 0.931 . S
C344 C343 1.291 . S
C344 C345 1.373 . S
C344 H357 0.929 . S
C345 C344 1.373 . S
C345 C346 1.396 . S
C345 C352 1.403 . S
C346 C336 1.476 . S
C346 N341 1.318 . S
C346 C345 1.396 . S
H347 C342 0.929 . S
O348 Mn324 2.385 . S
O348 C326 1.234 . S
O349 Mn324 2.209 . S
O349 Mn325 2.215 . S
O349 C326 1.283 . S
O350 Mn324 2.094 . S
O350 C328 1.240 . S
O351 Mn325 2.117 . S
O351 C328 1.264 . S
C352 C345 1.403 . S
C352 C353 1.399 . S
C352 H358 0.929 . S
C353 C333 1.449 . S
C353 C352 1.399 . S
C353 H359 0.930 . S
H354 C334 0.931 . S
H355 C335 0.930 . S
H356 C343 0.931 . S
H357 C344 0.929 . S
H358 C352 0.929 . S
H359 C353 0.930 . S
Mn360 O365 2.095 . S
Mn360 O375 2.162 . S
Mn360 O376 2.297 . S
Mn360 O384 2.385 . S
Mn360 O385 2.209 . S
Mn360 O386 2.094 . S
Mn361 O366 2.121 1_565 S
Mn361 N368 2.257 . S
Mn361 N377 2.282 . S
Mn361 O385 2.215 1_565 S
Mn361 O387 2.117 1_565 S
C362 O384 1.234 . S
C362 O385 1.283 . S
C363 O375 1.281 . S
C363 O376 1.236 . S
C364 O386 1.240 . S
C364 O387 1.264 . S
O365 Mn360 2.095 . S
O365 C374 1.247 1_554 S
O366 Mn361 2.121 1_545 S
O366 C374 1.256 1_554 S
C367 N368 1.326 . S
C367 C371 1.460 . S
C367 H373 0.929 . S
N368 Mn361 2.257 . S
N368 C367 1.326 . S
N368 C372 1.362 . S
C369 C370 1.258 . S
C369 C372 1.431 . S
C369 C389 1.449 . S
C370 C369 1.258 . S
C370 C371 1.477 . S
C370 H390 0.931 . S
C371 C367 1.460 . S
C371 C370 1.477 . S
C371 H391 0.930 . S
C372 N368 1.362 . S
C372 C369 1.431 . S
C372 C382 1.476 . S
H373 C367 0.929 . S
C374 O365 1.247 1_556 S
C374 O366 1.256 1_556 S
O375 Mn360 2.162 . S
O375 C363 1.281 . S
O376 Mn360 2.297 . S
O376 C363 1.236 . S
N377 Mn361 2.282 . S
N377 C378 1.328 . S
N377 C382 1.318 . S
C378 N377 1.328 . S
C378 C379 1.457 . S
C378 H383 0.929 1_565 S
C379 C378 1.457 . S
C379 C380 1.291 . S
C379 H392 0.931 . S
C380 C379 1.291 . S
C380 C381 1.373 . S
C380 H393 0.929 . S
C381 C380 1.373 . S
C381 C382 1.396 . S
C381 C388 1.403 . S
C382 C372 1.476 . S
C382 N377 1.318 . S
C382 C381 1.396 . S
H383 C378 0.929 1_545 S
O384 Mn360 2.385 . S
O384 C362 1.234 . S
O385 Mn360 2.209 . S
O385 Mn361 2.215 1_545 S
O385 C362 1.283 . S
O386 Mn360 2.094 . S
O386 C364 1.240 . S
O387 Mn361 2.117 1_545 S
O387 C364 1.264 . S
C388 C381 1.403 . S
C388 C389 1.399 . S
C388 H394 0.929 . S
C389 C369 1.449 . S
C389 C388 1.399 . S
C389 H395 0.930 . S
H390 C370 0.931 . S
H391 C371 0.930 . S
H392 C379 0.931 . S
H393 C380 0.929 . S
H394 C388 0.929 . S
H395 C389 0.930 . S
Mn396 O401 2.095 . S
Mn396 O411 2.162 . S
Mn396 O412 2.297 . S
Mn396 O420 2.385 . S
Mn396 O421 2.209 . S
Mn396 O422 2.094 . S
Mn397 O402 2.121 . S
Mn397 N404 2.257 . S
Mn397 N413 2.282 . S
Mn397 O421 2.215 1_455 S
Mn397 O423 2.117 1_455 S
C398 O420 1.234 . S
C398 O421 1.283 . S
C399 O411 1.281 . S
C399 O412 1.236 . S
C400 O422 1.240 . S
C400 O423 1.264 . S
O401 Mn396 2.095 . S
O401 C410 1.250 1_554 S
O402 Mn397 2.121 . S
O402 C410 1.258 1_454 S
C403 N404 1.326 . S
C403 C407 1.460 . S
C403 H409 0.929 . S
N404 Mn397 2.257 . S
N404 C403 1.326 . S
N404 C408 1.362 . S
C405 C406 1.258 . S
C405 C408 1.431 . S
C405 C425 1.449 . S
C406 C405 1.258 . S
C406 C407 1.477 . S
C406 H426 0.931 . S
C407 C403 1.460 . S
C407 C406 1.477 . S
C407 H427 0.930 . S
C408 N404 1.362 . S
C408 C405 1.431 . S
C408 C418 1.476 . S
H409 C403 0.929 . S
C410 O401 1.250 1_556 S
C410 O402 1.258 1_656 S
O411 Mn396 2.162 . S
O411 C399 1.281 . S
O412 Mn396 2.297 . S
O412 C399 1.236 . S
N413 Mn397 2.282 . S
N413 C414 1.328 . S
N413 C418 1.318 . S
C414 N413 1.328 . S
C414 C415 1.457 . S
C414 H419 0.929 . S
C415 C414 1.457 . S
C415 C416 1.291 . S
C415 H428 0.931 . S
C416 C415 1.291 . S
C416 C417 1.373 . S
C416 H429 0.929 . S
C417 C416 1.373 . S
C417 C418 1.396 . S
C417 C424 1.403 . S
C418 C408 1.476 . S
C418 N413 1.318 . S
C418 C417 1.396 . S
H419 C414 0.929 . S
O420 Mn396 2.385 . S
O420 C398 1.234 . S
O421 Mn396 2.209 . S
O421 Mn397 2.215 1_655 S
O421 C398 1.283 . S
O422 Mn396 2.094 . S
O422 C400 1.240 . S
O423 Mn397 2.117 1_655 S
O423 C400 1.264 . S
C424 C417 1.403 . S
C424 C425 1.399 . S
C424 H430 0.929 . S
C425 C405 1.449 . S
C425 C424 1.399 . S
C425 H431 0.930 . S
H426 C406 0.931 . S
H427 C407 0.930 . S
H428 C415 0.931 . S
H429 C416 0.929 . S
H430 C424 0.929 . S
H431 C425 0.930 . S
Mn432 O437 2.095 . S
Mn432 O447 2.162 . S
Mn432 O448 2.297 . S
Mn432 O456 2.385 . S
Mn432 O457 2.209 . S
Mn432 O458 2.094 . S
Mn433 O438 2.121 . S
Mn433 N440 2.257 . S
Mn433 N449 2.282 . S
Mn433 O457 2.215 . S
Mn433 O459 2.117 1_556 S
C434 O456 1.234 . S
C434 O457 1.283 . S
C435 O447 1.281 . S
C435 O448 1.236 . S
C436 O458 1.240 1_554 S
C436 O459 1.264 . S
O437 Mn432 2.095 . S
O437 C446 1.250 . S
O438 Mn433 2.121 . S
O438 C446 1.258 . S
C439 N440 1.326 . S
C439 C443 1.460 . S
C439 H445 0.929 . S
N440 Mn433 2.257 . S
N440 C439 1.326 . S
N440 C444 1.362 . S
C441 C442 1.258 . S
C441 C444 1.431 . S
C441 C461 1.449 . S
C442 C441 1.258 . S
C442 C443 1.477 . S
C442 H462 0.931 . S
C443 C439 1.460 . S
C443 C442 1.477 . S
C443 H463 0.930 . S
C444 N440 1.362 . S
C444 C441 1.431 . S
C444 C454 1.476 . S
H445 C439 0.929 . S
C446 O437 1.250 . S
C446 O438 1.258 . S
O447 Mn432 2.162 . S
O447 C435 1.281 . S
O448 Mn432 2.297 . S
O448 C435 1.236 . S
N449 Mn433 2.282 . S
N449 C450 1.328 . S
N449 C454 1.318 . S
C450 N449 1.328 . S
C450 C451 1.457 . S
C450 H455 0.929 1_556 S
C451 C450 1.457 . S
C451 C452 1.291 . S
C451 H464 0.931 1_556 S
C452 C451 1.291 . S
C452 C453 1.373 . S
C452 H465 0.929 . S
C453 C452 1.373 . S
C453 C454 1.396 . S
C453 C460 1.403 . S
C454 C444 1.476 . S
C454 N449 1.318 . S
C454 C453 1.396 . S
H455 C450 0.929 1_554 S
O456 Mn432 2.385 . S
O456 C434 1.234 . S
O457 Mn432 2.209 . S
O457 Mn433 2.215 . S
O457 C434 1.283 . S
O458 Mn432 2.094 . S
O458 C436 1.240 1_556 S
O459 Mn433 2.117 1_554 S
O459 C436 1.264 . S
C460 C453 1.403 . S
C460 C461 1.399 . S
C460 H466 0.929 . S
C461 C441 1.449 . S
C461 C460 1.399 . S
C461 H467 0.930 . S
H462 C442 0.931 . S
H463 C443 0.930 . S
H464 C451 0.931 1_554 S
H465 C452 0.929 . S
H466 C460 0.929 . S
H467 C461 0.930 . S
Mn468 O473 2.095 . S
Mn468 O483 2.162 . S
Mn468 O484 2.297 1_556 S
Mn468 O492 2.385 . S
Mn468 O493 2.209 . S
Mn468 O494 2.094 . S
Mn469 O474 2.121 . S
Mn469 N476 2.257 . S
Mn469 N485 2.282 . S
Mn469 O493 2.215 . S
Mn469 O495 2.117 . S
C470 O492 1.234 . S
C470 O493 1.283 . S
C471 O483 1.281 1_554 S
C471 O484 1.236 . S
C472 O494 1.240 . S
C472 O495 1.264 . S
O473 Mn468 2.095 . S
O473 C482 1.250 . S
O474 Mn469 2.121 . S
O474 C482 1.258 . S
C475 N476 1.326 . S
C475 C479 1.460 . S
C475 H481 0.929 . S
N476 Mn469 2.257 . S
N476 C475 1.326 . S
N476 C480 1.362 . S
C477 C478 1.258 . S
C477 C480 1.431 . S
C477 C497 1.449 . S
C478 C477 1.258 . S
C478 C479 1.477 . S
C478 H498 0.931 . S
C479 C475 1.460 . S
C479 C478 1.477 . S
C479 H499 0.930 . S
C480 N476 1.362 . S
C480 C477 1.431 . S
C480 C490 1.476 . S
H481 C475 0.929 . S
C482 O473 1.250 . S
C482 O474 1.258 . S
O483 Mn468 2.162 . S
O483 C471 1.281 1_556 S
O484 Mn468 2.297 1_554 S
O484 C471 1.236 . S
N485 Mn469 2.282 . S
N485 C486 1.328 . S
N485 C490 1.318 . S
C486 N485 1.328 . S
C486 C487 1.457 . S
C486 H491 0.929 . S
C487 C486 1.457 . S
C487 C488 1.291 . S
C487 H500 0.931 . S
C488 C487 1.291 . S
C488 C489 1.373 . S
C488 H501 0.929 . S
C489 C488 1.373 . S
C489 C490 1.396 . S
C489 C496 1.403 . S
C490 C480 1.476 . S
C490 N485 1.318 . S
C490 C489 1.396 . S
H491 C486 0.929 . S
O492 Mn468 2.385 . S
O492 C470 1.234 . S
O493 Mn468 2.209 . S
O493 Mn469 2.215 . S
O493 C470 1.283 . S
O494 Mn468 2.094 . S
O494 C472 1.240 . S
O495 Mn469 2.117 . S
O495 C472 1.264 . S
C496 C489 1.403 . S
C496 C497 1.399 . S
C496 H502 0.929 . S
C497 C477 1.449 . S
C497 C496 1.399 . S
C497 H503 0.930 . S
H498 C478 0.931 . S
H499 C479 0.930 . S
H500 C487 0.931 . S
H501 C488 0.929 . S
H502 C496 0.929 . S
H503 C497 0.930 . S
Mn504 O509 2.095 . S
Mn504 O519 2.162 . S
Mn504 O520 2.297 . S
Mn504 O528 2.385 . S
Mn504 O529 2.209 . S
Mn504 O530 2.094 . S
Mn505 O510 2.121 . S
Mn505 N512 2.257 1_455 S
Mn505 N521 2.282 1_455 S
Mn505 O529 2.215 . S
Mn505 O531 2.117 . S
C506 O528 1.234 . S
C506 O529 1.283 . S
C507 O519 1.281 . S
C507 O520 1.236 . S
C508 O530 1.240 . S
C508 O531 1.264 . S
O509 Mn504 2.095 . S
O509 C518 1.247 1_556 S
O510 Mn505 2.121 . S
O510 C518 1.256 1_556 S
C511 N512 1.326 . S
C511 C515 1.460 . S
C511 H517 0.929 . S
N512 Mn505 2.257 1_655 S
N512 C511 1.326 . S
N512 C516 1.362 . S
C513 C514 1.258 . S
C513 C516 1.431 . S
C513 C533 1.449 . S
C514 C513 1.258 . S
C514 C515 1.477 . S
C514 H534 0.931 . S
C515 C511 1.460 . S
C515 C514 1.477 . S
C515 H535 0.930 . S
C516 N512 1.362 . S
C516 C513 1.431 . S
C516 C526 1.476 . S
H517 C511 0.929 . S
C518 O509 1.247 1_554 S
C518 O510 1.256 1_554 S
O519 Mn504 2.162 . S
O519 C507 1.281 . S
O520 Mn504 2.297 . S
O520 C507 1.236 . S
N521 Mn505 2.282 1_655 S
N521 C522 1.328 . S
N521 C526 1.318 . S
C522 N521 1.328 . S
C522 C523 1.457 . S
C522 H527 0.929 1_655 S
C523 C522 1.457 . S
C523 C524 1.291 . S
C523 H536 0.931 . S
C524 C523 1.291 . S
C524 C525 1.373 . S
C524 H537 0.929 . S
C525 C524 1.373 . S
C525 C526 1.396 . S
C525 C532 1.403 . S
C526 C516 1.476 . S
C526 N521 1.318 . S
C526 C525 1.396 . S
H527 C522 0.929 1_455 S
O528 Mn504 2.385 . S
O528 C506 1.234 . S
O529 Mn504 2.209 . S
O529 Mn505 2.215 . S
O529 C506 1.283 . S
O530 Mn504 2.094 . S
O530 C508 1.240 . S
O531 Mn505 2.117 . S
O531 C508 1.264 . S
C532 C525 1.403 . S
C532 C533 1.399 . S
C532 H538 0.929 . S
C533 C513 1.449 . S
C533 C532 1.399 . S
C533 H539 0.930 . S
H534 C514 0.931 . S
H535 C515 0.930 . S
H536 C523 0.931 . S
H537 C524 0.929 . S
H538 C532 0.929 . S
H539 C533 0.930 . S
Mn540 O545 2.095 . S
Mn540 O555 2.162 . S
Mn540 O556 2.297 . S
Mn540 O564 2.385 . S
Mn540 O565 2.209 . S
Mn540 O566 2.094 . S
Mn541 O546 2.121 . S
Mn541 N548 2.257 1_565 S
Mn541 N557 2.282 . S
Mn541 O565 2.215 . S
Mn541 O567 2.117 . S
C542 O564 1.234 . S
C542 O565 1.283 . S
C543 O555 1.281 . S
C543 O556 1.236 . S
C544 O566 1.240 . S
C544 O567 1.264 . S
O545 Mn540 2.095 . S
O545 C554 1.250 . S
O546 Mn541 2.121 . S
O546 C554 1.258 . S
C547 N548 1.326 . S
C547 C551 1.460 . S
C547 H553 0.929 . S
N548 Mn541 2.257 1_545 S
N548 C547 1.326 . S
N548 C552 1.362 . S
C549 C550 1.258 . S
C549 C552 1.431 . S
C549 C569 1.449 . S
C550 C549 1.258 . S
C550 C551 1.477 . S
C550 H570 0.931 . S
C551 C547 1.460 . S
C551 C550 1.477 . S
C551 H571 0.930 . S
C552 N548 1.362 . S
C552 C549 1.431 . S
C552 C562 1.476 1_545 S
H553 C547 0.929 . S
C554 O545 1.250 . S
C554 O546 1.258 . S
O555 Mn540 2.162 . S
O555 C543 1.281 . S
O556 Mn540 2.297 . S
O556 C543 1.236 . S
N557 Mn541 2.282 . S
N557 C558 1.328 . S
N557 C562 1.318 . S
C558 N557 1.328 . S
C558 C559 1.457 . S
C558 H563 0.929 . S
C559 C558 1.457 . S
C559 C560 1.291 . S
C559 H572 0.931 . S
C560 C559 1.291 . S
C560 C561 1.373 . S
C560 H573 0.929 . S
C561 C560 1.373 . S
C561 C562 1.396 . S
C561 C568 1.403 1_565 S
C562 C552 1.476 1_565 S
C562 N557 1.318 . S
C562 C561 1.396 . S
H563 C558 0.929 . S
O564 Mn540 2.385 . S
O564 C542 1.234 . S
O565 Mn540 2.209 . S
O565 Mn541 2.215 . S
O565 C542 1.283 . S
O566 Mn540 2.094 . S
O566 C544 1.240 . S
O567 Mn541 2.117 . S
O567 C544 1.264 . S
C568 C561 1.403 1_545 S
C568 C569 1.399 . S
C568 H574 0.929 1_545 S
C569 C549 1.449 . S
C569 C568 1.399 . S
C569 H575 0.930 . S
H570 C550 0.931 . S
H571 C551 0.930 . S
H572 C559 0.931 . S
H573 C560 0.929 . S
H574 C568 0.929 1_565 S
H575 C569 0.930 . S
Mn576 O581 2.095 . S
Mn576 O591 2.162 . S
Mn576 O592 2.297 . S
Mn576 O600 2.385 . S
Mn576 O601 2.209 . S
Mn576 O602 2.094 . S
Mn577 O582 2.121 1_655 S
Mn577 N584 2.257 . S
Mn577 N593 2.282 . S
Mn577 O601 2.215 1_655 S
Mn577 O603 2.117 1_655 S
C578 O600 1.234 . S
C578 O601 1.283 . S
C579 O591 1.281 . S
C579 O592 1.236 . S
C580 O602 1.240 . S
C580 O603 1.264 . S
O581 Mn576 2.095 . S
O581 C590 1.250 . S
O582 Mn577 2.121 1_455 S
O582 C590 1.258 . S
C583 N584 1.326 . S
C583 C587 1.460 . S
C583 H589 0.929 . S
N584 Mn577 2.257 . S
N584 C583 1.326 . S
N584 C588 1.362 . S
C585 C586 1.258 . S
C585 C588 1.431 . S
C585 C605 1.449 . S
C586 C585 1.258 . S
C586 C587 1.477 . S
C586 H606 0.931 . S
C587 C583 1.460 . S
C587 C586 1.477 . S
C587 H607 0.930 . S
C588 N584 1.362 . S
C588 C585 1.431 . S
C588 C598 1.476 . S
H589 C583 0.929 . S
C590 O581 1.250 . S
C590 O582 1.258 . S
O591 Mn576 2.162 . S
O591 C579 1.281 . S
O592 Mn576 2.297 . S
O592 C579 1.236 . S
N593 Mn577 2.282 . S
N593 C594 1.328 . S
N593 C598 1.318 . S
C594 N593 1.328 . S
C594 C595 1.457 . S
C594 H599 0.929 1_655 S
C595 C594 1.457 . S
C595 C596 1.291 . S
C595 H608 0.931 . S
C596 C595 1.291 . S
C596 C597 1.373 . S
C596 H609 0.929 . S
C597 C596 1.373 . S
C597 C598 1.396 . S
C597 C604 1.403 . S
C598 C588 1.476 . S
C598 N593 1.318 . S
C598 C597 1.396 . S
H599 C594 0.929 1_455 S
O600 Mn576 2.385 . S
O600 C578 1.234 . S
O601 Mn576 2.209 . S
O601 Mn577 2.215 1_455 S
O601 C578 1.283 . S
O602 Mn576 2.094 . S
O602 C580 1.240 . S
O603 Mn577 2.117 1_455 S
O603 C580 1.264 . S
C604 C597 1.403 . S
C604 C605 1.399 . S
C604 H610 0.929 . S
C605 C585 1.449 . S
C605 C604 1.399 . S
C605 H611 0.930 . S
H606 C586 0.931 . S
H607 C587 0.930 . S
H608 C595 0.931 . S
H609 C596 0.929 . S
H610 C604 0.929 . S
H611 C605 0.930 . S
Mn612 O617 2.095 . S
Mn612 O627 2.162 . S
Mn612 O628 2.297 . S
Mn612 O636 2.385 . S
Mn612 O637 2.209 . S
Mn612 O638 2.094 . S
Mn613 O618 2.121 . S
Mn613 N620 2.257 . S
Mn613 N629 2.282 . S
Mn613 O637 2.215 . S
Mn613 O639 2.117 . S
C614 O636 1.234 . S
C614 O637 1.283 . S
C615 O627 1.281 . S
C615 O628 1.236 . S
C616 O638 1.240 . S
C616 O639 1.264 . S
O617 Mn612 2.095 . S
O617 C626 1.250 . S
O618 Mn613 2.121 . S
O618 C626 1.258 . S
C619 N620 1.326 . S
C619 C623 1.460 . S
C619 H625 0.929 . S
N620 Mn613 2.257 . S
N620 C619 1.326 . S
N620 C624 1.362 . S
C621 C622 1.258 . S
C621 C624 1.431 . S
C621 C641 1.449 . S
C622 C621 1.258 . S
C622 C623 1.477 . S
C622 H642 0.931 . S
C623 C619 1.460 . S
C623 C622 1.477 . S
C623 H643 0.930 . S
C624 N620 1.362 . S
C624 C621 1.431 . S
C624 C634 1.476 . S
H625 C619 0.929 . S
C626 O617 1.250 . S
C626 O618 1.258 . S
O627 Mn612 2.162 . S
O627 C615 1.281 . S
O628 Mn612 2.297 . S
O628 C615 1.236 . S
N629 Mn613 2.282 . S
N629 C630 1.328 . S
N629 C634 1.318 . S
C630 N629 1.328 . S
C630 C631 1.457 . S
C630 H635 0.929 . S
C631 C630 1.457 . S
C631 C632 1.291 . S
C631 H644 0.931 . S
C632 C631 1.291 . S
C632 C633 1.373 . S
C632 H645 0.929 . S
C633 C632 1.373 . S
C633 C634 1.396 . S
C633 C640 1.403 . S
C634 C624 1.476 . S
C634 N629 1.318 . S
C634 C633 1.396 . S
H635 C630 0.929 . S
O636 Mn612 2.385 . S
O636 C614 1.234 . S
O637 Mn612 2.209 . S
O637 Mn613 2.215 . S
O637 C614 1.283 . S
O638 Mn612 2.094 . S
O638 C616 1.240 . S
O639 Mn613 2.117 . S
O639 C616 1.264 . S
C640 C633 1.403 . S
C640 C641 1.399 . S
C640 H646 0.929 . S
C641 C621 1.449 . S
C641 C640 1.399 . S
C641 H647 0.930 . S
H642 C622 0.931 . S
H643 C623 0.930 . S
H644 C631 0.931 . S
H645 C632 0.929 . S
H646 C640 0.929 . S
H647 C641 0.930 . S
C648 C649 1.363 . S
C648 C654 1.379 . S
C648 N656 1.356 . S
C649 C648 1.363 . S
C649 C655 1.363 . S
C650 C651 1.363 . S
C650 C655 1.379 . S
C650 N657 1.356 . S
C651 C650 1.363 . S
C651 C654 1.363 . S
N652 C654 1.356 1_556 S
N652 H664 0.984 . S
N652 H665 0.985 . S
N653 C655 1.356 . S
N653 H658 0.984 . S
N653 H659 0.985 . S
C654 C648 1.379 . S
C654 C651 1.363 . S
C654 N652 1.356 1_554 S
C655 C649 1.363 . S
C655 C650 1.379 . S
C655 N653 1.356 . S
N656 C648 1.356 . S
N656 H662 0.984 . S
N656 H663 0.984 . S
N657 C650 1.356 . S
N657 H660 0.984 . S
N657 H661 0.985 . S
H658 N653 0.984 . S
H659 N653 0.985 . S
H660 N657 0.984 . S
H661 N657 0.985 . S
H662 N656 0.984 . S
H663 N656 0.984 . S
H664 N652 0.984 . S
H665 N652 0.985 . S
C666 C667 1.363 . S
C666 C672 1.379 . S
C666 N674 1.356 1_554 S
C667 C666 1.363 . S
C667 C673 1.363 . S
C668 C669 1.363 . S
C668 C673 1.379 . S
C668 N675 1.356 . S
C669 C668 1.363 . S
C669 C672 1.363 . S
N670 C672 1.356 . S
N670 H682 0.984 . S
N670 H683 0.985 . S
N671 C673 1.356 . S
N671 H676 0.984 . S
N671 H677 0.985 . S
C672 C666 1.379 . S
C672 C669 1.363 . S
C672 N670 1.356 . S
C673 C667 1.363 . S
C673 C668 1.379 . S
C673 N671 1.356 . S
N674 C666 1.356 1_556 S
N674 H680 0.984 . S
N674 H681 0.984 . S
N675 C668 1.356 . S
N675 H678 0.984 . S
N675 H679 0.985 . S
H676 N671 0.984 . S
H677 N671 0.985 . S
H678 N675 0.984 . S
H679 N675 0.985 . S
H680 N674 0.984 . S
H681 N674 0.984 . S
H682 N670 0.984 . S
H683 N670 0.985 . S
C684 C685 1.363 . S
C684 C690 1.379 . S
C684 N692 1.356 . S
C685 C684 1.363 . S
C685 C691 1.363 1_565 S
C686 C687 1.363 . S
C686 C691 1.379 1_565 S
C686 N693 1.356 1_565 S
C687 C686 1.363 . S
C687 C690 1.363 . S
N688 C690 1.356 . S
N688 H700 0.984 . S
N688 H701 0.985 . S
N689 C691 1.356 . S
N689 H694 0.984 . S
N689 H695 0.985 . S
C690 C684 1.379 . S
C690 C687 1.363 . S
C690 N688 1.356 . S
C691 C685 1.363 1_545 S
C691 C686 1.379 1_545 S
C691 N689 1.356 . S
N692 C684 1.356 . S
N692 H698 0.984 . S
N692 H699 0.984 . S
N693 C686 1.356 1_545 S
N693 H696 0.984 1_545 S
N693 H697 0.985 . S
H694 N689 0.984 . S
H695 N689 0.985 . S
H696 N693 0.984 1_565 S
H697 N693 0.985 . S
H698 N692 0.984 . S
H699 N692 0.984 . S
H700 N688 0.984 . S
H701 N688 0.985 . S
C702 C703 1.363 . S
C702 C708 1.379 . S
C702 N710 1.356 . S
C703 C702 1.363 . S
C703 C709 1.363 . S
C704 C705 1.363 . S
C704 C709 1.379 . S
C704 N711 1.356 1_545 S
C705 C704 1.363 . S
C705 C708 1.363 . S
N706 C708 1.356 . S
N706 H718 0.984 . S
N706 H719 0.985 . S
N707 C709 1.356 . S
N707 H712 0.984 . S
N707 H713 1.000 . S
C708 C702 1.379 . S
C708 C705 1.363 . S
C708 N706 1.356 . S
C709 C703 1.363 . S
C709 C704 1.379 . S
C709 N707 1.356 . S
N710 C702 1.356 . S
N710 H716 0.984 . S
N710 H717 0.984 . S
N711 C704 1.356 1_565 S
N711 H714 0.984 . S
N711 H715 0.985 . S
H712 N707 0.984 . S
H713 N707 1.000 . S
H714 N711 0.984 . S
H715 N711 0.985 . S
H716 N710 0.984 . S
H717 N710 0.984 . S
H718 N706 0.984 . S
H719 N706 0.985 . S
C720 C721 1.363 . S
C720 C726 1.379 . S
C720 N728 1.356 . S
C721 C720 1.363 . S
C721 C727 1.363 . S
C722 C723 1.354 1_455 S
C722 C727 1.379 1_455 S
C722 N729 1.363 . S
C723 C722 1.354 1_655 S
C723 C726 1.363 . S
N724 C726 1.356 . S
N724 H736 0.984 . S
N724 H737 0.985 . S
N725 C727 1.356 1_455 S
N725 H730 0.984 1_455 S
N725 H731 0.985 . S
C726 C720 1.379 . S
C726 C723 1.363 . S
C726 N724 1.356 . S
C727 C721 1.363 . S
C727 C722 1.379 1_655 S
C727 N725 1.356 1_655 S
N728 C720 1.356 . S
N728 H734 0.984 . S
N728 H735 0.984 . S
N729 C722 1.363 . S
N729 H732 0.984 . S
N729 H733 0.985 . S
H730 N725 0.984 1_655 S
H731 N725 0.985 . S
H732 N729 0.984 . S
H733 N729 0.985 . S
H734 N728 0.984 . S
H735 N728 0.984 . S
H736 N724 0.984 . S
H737 N724 0.985 . S
C738 C739 1.363 . S
C738 C744 1.379 . S
C738 N746 1.356 . S
C739 C738 1.363 . S
C739 C745 1.363 . S
C740 C741 1.363 . S
C740 C745 1.379 . S
C740 N747 1.356 . S
C741 C740 1.363 . S
C741 C744 1.363 . S
N742 C744 1.356 . S
N742 H754 0.984 . S
N742 H755 0.985 . S
N743 C745 1.356 . S
N743 H748 0.984 . S
N743 H749 0.985 . S
C744 C738 1.379 . S
C744 C741 1.363 . S
C744 N742 1.356 . S
C745 C739 1.363 . S
C745 C740 1.379 . S
C745 N743 1.356 . S
N746 C738 1.356 . S
N746 H752 0.984 . S
N746 H753 0.984 . S
N747 C740 1.356 . S
N747 H750 0.984 . S
N747 H751 0.985 . S
H748 N743 0.984 . S
H749 N743 0.985 . S
H750 N747 0.984 . S
H751 N747 0.985 . S
H752 N746 0.984 . S
H753 N746 0.984 . S
H754 N742 0.984 . S
H755 N742 0.985 . S
C756 C757 1.363 1_455 S
C756 C762 1.379 . S
C756 N764 1.356 . S
C757 C756 1.363 1_655 S
C757 C763 1.363 . S
C758 C759 1.363 . S
C758 C763 1.379 . S
C758 N765 1.356 . S
C759 C758 1.363 . S
C759 C762 1.363 1_655 S
N760 C762 1.356 . S
N760 H772 0.984 . S
N760 H773 0.985 1_556 S
N761 C763 1.356 . S
N761 H766 0.984 . S
N761 H767 0.985 . S
C762 C756 1.379 . S
C762 C759 1.363 1_455 S
C762 N760 1.356 . S
C763 C757 1.363 . S
C763 C758 1.379 . S
C763 N761 1.356 . S
N764 C756 1.356 . S
N764 H770 0.984 . S
N764 H771 0.984 . S
N765 C758 1.356 . S
N765 H768 0.984 1_556 S
N765 H769 0.985 . S
H766 N761 0.984 . S
H767 N761 0.985 . S
H768 N765 0.984 1_554 S
H769 N765 0.985 . S
H770 N764 0.984 . S
H771 N764 0.984 . S
H772 N760 0.984 . S
H773 N760 0.985 1_554 S
C774 C775 1.363 . S
C774 C780 1.379 . S
C774 N782 1.356 1_556 S
C775 C774 1.363 . S
C775 C781 1.363 . S
C776 C777 1.363 . S
C776 C781 1.379 . S
C776 N783 1.356 . S
C777 C776 1.363 . S
C777 C780 1.363 . S
N778 C780 1.356 . S
N778 H790 0.984 . S
N778 H791 0.985 . S
N779 C781 1.356 . S
N779 H784 0.984 . S
N779 H785 0.985 . S
C780 C774 1.379 . S
C780 C777 1.363 . S
C780 N778 1.356 . S
C781 C775 1.363 . S
C781 C776 1.379 . S
C781 N779 1.356 . S
N782 C774 1.356 1_554 S
N782 H788 0.984 . S
N782 H789 0.984 . S
N783 C776 1.356 . S
N783 H786 0.984 . S
N783 H787 0.985 . S
H784 N779 0.984 . S
H785 N779 0.985 . S
H786 N783 0.984 . S
H787 N783 0.985 . S
H788 N782 0.984 . S
H789 N782 0.984 . S
H790 N778 0.984 . S
H791 N778 0.985 . S
C792 C793 1.363 . S
C792 C798 1.379 . S
C792 N800 1.356 . S
C793 C792 1.363 . S
C793 C799 1.363 . S
C794 C795 1.363 . S
C794 C799 1.379 . S
C794 N801 1.356 1_545 S
C795 C794 1.363 . S
C795 C798 1.363 . S
N796 C798 1.356 . S
N796 H808 0.984 . S
N796 H809 0.985 . S
N797 C799 1.356 . S
N797 H802 0.984 1_556 S
N797 H803 0.985 1_545 S
C798 C792 1.379 . S
C798 C795 1.363 . S
C798 N796 1.356 . S
C799 C793 1.363 . S
C799 C794 1.379 . S
C799 N797 1.356 . S
N800 C792 1.356 . S
N800 H806 0.984 . S
N800 H807 0.984 1_556 S
N801 C794 1.356 1_565 S
N801 H804 0.984 . S
N801 H805 0.985 . S
H802 N797 0.984 1_554 S
H803 N797 0.985 1_565 S
H804 N801 0.984 . S
H805 N801 0.985 . S
H806 N800 0.984 . S
H807 N800 0.984 1_554 S
H808 N796 0.984 . S
H809 N796 0.985 . S
C810 C811 1.363 1_545 S
C810 C816 1.379 1_545 S
C810 N818 1.356 . S
C811 C810 1.363 1_565 S
C811 C817 1.363 . S
C812 C813 1.363 . S
C812 C817 1.379 . S
C812 N819 1.356 . S
C813 C812 1.363 . S
C813 C816 1.363 . S
N814 C816 1.356 1_545 S
N814 H826 0.984 . S
N814 H827 0.985 . S
N815 C817 1.356 . S
N815 H820 0.984 . S
N815 H821 0.985 . S
C816 C810 1.379 1_565 S
C816 C813 1.363 . S
C816 N814 1.356 1_565 S
C817 C811 1.363 . S
C817 C812 1.379 . S
C817 N815 1.356 . S
N818 C810 1.356 . S
N818 H824 0.984 . S
N818 H825 0.984 . S
N819 C812 1.356 . S
N819 H822 0.984 . S
N819 H823 0.985 . S
H820 N815 0.984 . S
H821 N815 0.985 . S
H822 N819 0.984 . S
H823 N819 0.985 . S
H824 N818 0.984 . S
H825 N818 0.984 . S
H826 N814 0.984 . S
H827 N814 0.985 . S
C828 C829 1.363 . S
C828 C834 1.379 . S
C828 N836 1.356 . S
C829 C828 1.363 . S
C829 C835 1.363 . S
C830 C831 1.363 . S
C830 C835 1.379 . S
C830 N837 1.356 . S
C831 C830 1.363 . S
C831 C834 1.363 . S
N832 C834 1.356 . S
N832 H844 0.984 . S
N832 H845 0.985 . S
N833 C835 1.356 . S
N833 H838 0.984 . S
N833 H839 0.985 . S
C834 C828 1.379 . S
C834 C831 1.363 . S
C834 N832 1.356 . S
C835 C829 1.363 . S
C835 C830 1.379 . S
C835 N833 1.356 . S
N836 C828 1.356 . S
N836 H842 0.984 . S
N836 H843 0.984 . S
N837 C830 1.356 . S
N837 H840 0.984 . S
N837 H841 0.985 . S
H838 N833 0.984 . S
H839 N833 0.985 . S
H840 N837 0.984 . S
H841 N837 0.985 . S
H842 N836 0.984 . S
H843 N836 0.984 . S
H844 N832 0.984 . S
H845 N832 0.985 . S
C846 C847 1.363 . S
C846 C852 1.379 . S
C846 N854 1.356 . S
C847 C846 1.363 . S
C847 C853 1.363 . S
C848 C849 1.363 . S
C848 C853 1.379 . S
C848 N855 1.356 . S
C849 C848 1.363 . S
C849 C852 1.363 . S
N850 C852 1.356 . S
N850 H862 0.984 . S
N850 H863 0.985 . S
N851 C853 1.356 . S
N851 H856 0.984 . S
N851 H857 0.985 . S
C852 C846 1.379 . S
C852 C849 1.363 . S
C852 N850 1.356 . S
C853 C847 1.363 . S
C853 C848 1.379 . S
C853 N851 1.356 . S
N854 C846 1.356 . S
N854 H860 0.984 . S
N854 H861 0.984 . S
N855 C848 1.356 . S
N855 H858 0.984 . S
N855 H859 0.985 . S
H856 N851 0.984 . S
H857 N851 0.985 . S
H858 N855 0.984 . S
H859 N855 0.985 . S
H860 N854 0.984 . S
H861 N854 0.984 . S
H862 N850 0.984 . S
H863 N850 0.985 . S
C864 C865 1.363 . S
C864 C870 1.379 . S
C864 N872 1.356 . S
C865 C864 1.363 . S
C865 C871 1.363 . S
C866 C867 1.363 . S
C866 C871 1.379 . S
C866 N873 1.356 . S
C867 C866 1.363 . S
C867 C870 1.363 . S
N868 C870 1.356 . S
N868 H880 0.984 . S
N868 H881 0.985 . S
N869 C871 1.356 . S
N869 H874 0.984 . S
N869 H875 0.985 . S
C870 C864 1.379 . S
C870 C867 1.363 . S
C870 N868 1.356 . S
C871 C865 1.363 . S
C871 C866 1.379 . S
C871 N869 1.356 . S
N872 C864 1.356 . S
N872 H878 0.984 . S
N872 H879 0.984 . S
N873 C866 1.356 . S
N873 H876 0.984 . S
N873 H877 0.985 . S
H874 N869 0.984 . S
H875 N869 0.985 . S
H876 N873 0.984 . S
H877 N873 0.985 . S
H878 N872 0.984 . S
H879 N872 0.984 . S
H880 N868 0.984 . S
H881 N868 0.985 . S
C882 C883 1.363 1_565 S
C882 C888 1.379 . S
C882 N890 1.356 . S
C883 C882 1.363 1_545 S
C883 C889 1.363 . S
C884 C885 1.363 1_545 S
C884 C889 1.379 . S
C884 N891 1.356 . S
C885 C884 1.363 1_565 S
C885 C888 1.363 . S
N886 C888 1.356 . S
N886 H898 0.984 . S
N886 H899 0.985 . S
N887 C889 1.356 . S
N887 H892 0.984 . S
N887 H893 0.985 . S
C888 C882 1.379 . S
C888 C885 1.363 . S
C888 N886 1.356 . S
C889 C883 1.363 . S
C889 C884 1.379 . S
C889 N887 1.356 . S
N890 C882 1.356 . S
N890 H896 0.984 . S
N890 H897 0.984 1_565 S
N891 C884 1.356 . S
N891 H894 0.984 . S
N891 H895 0.985 . S
H892 N887 0.984 . S
H893 N887 0.985 . S
H894 N891 0.984 . S
H895 N891 0.985 . S
H896 N890 0.984 . S
H897 N890 0.984 1_545 S
H898 N886 0.984 . S
H899 N886 0.985 . S
C900 C901 1.363 . S
C900 C906 1.379 1_455 S
C900 N908 1.356 . S
C901 C900 1.363 . S
C901 C907 1.363 . S
C902 C903 1.363 1_455 S
C902 C907 1.379 . S
C902 N909 1.356 . S
C903 C902 1.363 1_655 S
C903 C906 1.363 . S
N904 C906 1.356 . S
N904 H916 0.984 . S
N904 H917 0.985 . S
N905 C907 1.356 . S
N905 H910 0.984 . S
N905 H911 0.985 . S
C906 C900 1.379 1_655 S
C906 C903 1.363 . S
C906 N904 1.356 . S
C907 C901 1.363 . S
C907 C902 1.379 . S
C907 N905 1.356 . S
N908 C900 1.356 . S
N908 H914 0.984 1_455 S
N908 H915 0.984 . S
N909 C902 1.356 . S
N909 H912 0.984 1_455 S
N909 H913 0.985 . S
H910 N905 0.984 . S
H911 N905 0.985 . S
H912 N909 0.984 1_655 S
H913 N909 0.985 . S
H914 N908 0.984 1_655 S
H915 N908 0.984 . S
H916 N904 0.984 . S
H917 N904 0.985 . S
C918 C919 1.363 . S
C918 C924 1.379 . S
C918 N926 1.356 . S
C919 C918 1.363 . S
C919 C925 1.363 . S
C920 C921 1.363 . S
C920 C925 1.379 . S
C920 N927 1.356 . S
C921 C920 1.363 . S
C921 C924 1.363 . S
N922 C924 1.356 . S
N922 H934 0.984 . S
N922 H935 0.985 . S
N923 C925 1.356 . S
N923 H928 0.984 . S
N923 H929 0.985 . S
C924 C918 1.379 . S
C924 C921 1.363 . S
C924 N922 1.356 . S
C925 C919 1.363 . S
C925 C920 1.379 . S
C925 N923 1.356 . S
N926 C918 1.356 . S
N926 H932 0.984 . S
N926 H933 0.984 . S
N927 C920 1.356 . S
N927 H930 0.984 . S
N927 H931 0.985 . S
H928 N923 0.984 . S
H929 N923 0.985 . S
H930 N927 0.984 . S
H931 N927 0.985 . S
H932 N926 0.984 . S
H933 N926 0.984 . S
H934 N922 0.984 . S
H935 N922 0.985 . S
C936 C937 1.363 . S
C936 C942 1.379 . S
C936 N944 1.356 . S
C937 C936 1.363 . S
C937 C943 1.363 1_545 S
C938 C939 1.363 . S
C938 C943 1.379 . S
C938 N945 1.356 . S
C939 C938 1.363 . S
C939 C942 1.363 1_565 S
N940 C942 1.356 . S
N940 H952 0.984 . S
N940 H953 0.985 . S
N941 C943 1.356 . S
N941 H946 0.984 1_565 S
N941 H947 0.985 . S
C942 C936 1.379 . S
C942 C939 1.363 1_545 S
C942 N940 1.356 . S
C943 C937 1.363 1_565 S
C943 C938 1.379 . S
C943 N941 1.356 . S
N944 C936 1.356 . S
N944 H950 0.984 . S
N944 H951 0.984 . S
N945 C938 1.356 . S
N945 H948 0.984 . S
N945 H949 0.985 . S
H946 N941 0.984 1_545 S
H947 N941 0.985 . S
H948 N945 0.984 . S
H949 N945 0.985 . S
H950 N944 0.984 . S
H951 N944 0.984 . S
H952 N940 0.984 . S
H953 N940 0.985 . S
C954 C955 1.363 . S
C954 C960 1.381 . S
C954 N962 1.356 . S
C955 C954 1.363 . S
C955 C961 1.363 . S
C956 C957 1.363 1_455 S
C956 C961 1.379 . S
C956 N963 1.356 . S
C957 C956 1.363 1_655 S
C957 C960 1.367 1_655 S
N958 C960 1.350 1_655 S
N958 H970 0.984 . S
N958 H971 0.985 . S
N959 C961 1.356 . S
N959 H964 0.984 . S
N959 H965 0.985 . S
C960 C954 1.381 . S
C960 C957 1.367 1_455 S
C960 N958 1.350 1_455 S
C961 C955 1.363 . S
C961 C956 1.379 . S
C961 N959 1.356 . S
N962 C954 1.356 . S
N962 H968 0.984 . S
N962 H969 0.984 . S
N963 C956 1.356 . S
N963 H966 0.984 1_455 S
N963 H967 0.985 . S
H964 N959 0.984 . S
H965 N959 0.985 . S
H966 N963 0.984 1_655 S
H967 N963 0.985 . S
H968 N962 0.984 . S
H969 N962 0.984 . S
H970 N958 0.984 . S
H971 N958 0.985 . S
C972 C973 1.363 . S
C972 C978 1.379 . S
C972 N980 1.356 . S
C973 C972 1.363 . S
C973 C979 1.363 . S
C974 C975 1.363 . S
C974 C979 1.379 . S
C974 N981 1.356 . S
C975 C974 1.363 . S
C975 C978 1.363 . S
N976 C978 1.356 . S
N976 H988 0.984 . S
N976 H989 0.985 . S
N977 C979 1.356 . S
N977 H982 0.984 . S
N977 H983 0.985 . S
C978 C972 1.379 . S
C978 C975 1.363 . S
C978 N976 1.356 . S
C979 C973 1.363 . S
C979 C974 1.379 . S
C979 N977 1.356 . S
N980 C972 1.356 . S
N980 H986 0.984 . S
N980 H987 0.984 . S
N981 C974 1.356 . S
N981 H984 0.984 . S
N981 H985 0.985 . S
H982 N977 0.984 . S
H983 N977 0.985 . S
H984 N981 0.984 . S
H985 N981 0.985 . S
H986 N980 0.984 . S
H987 N980 0.984 . S
H988 N976 0.984 . S
H989 N976 0.985 . S
C990 C991 1.363 . S
C990 C996 1.379 . S
C990 N998 1.356 . S
C991 C990 1.363 . S
C991 C997 1.363 . S
C992 C993 1.363 . S
C992 C997 1.379 . S
C992 N999 1.356 . S
C993 C992 1.363 . S
C993 C996 1.363 . S
N994 C996 1.356 . S
N994 H1006 0.984 . S
N994 H1007 0.985 . S
N995 C997 1.356 . S
N995 H1000 0.984 . S
N995 H1001 0.985 . S
C996 C990 1.379 . S
C996 C993 1.363 . S
C996 N994 1.356 . S
C997 C991 1.363 . S
C997 C992 1.379 . S
C997 N995 1.356 . S
N998 C990 1.356 . S
N998 H1004 0.984 . S
N998 H1005 0.984 . S
N999 C992 1.356 . S
N999 H1002 0.984 . S
N999 H1003 0.985 . S
H1000 N995 0.984 . S
H1001 N995 0.985 . S
H1002 N999 0.984 . S
H1003 N999 0.985 . S
H1004 N998 0.984 . S
H1005 N998 0.984 . S
H1006 N994 0.984 . S
H1007 N994 0.985 . S
C1008 C1009 1.363 . S
C1008 C1014 1.379 . S
C1008 N1016 1.356 . S
C1009 C1008 1.363 . S
C1009 C1015 1.363 . S
C1010 C1011 1.363 . S
C1010 C1015 1.379 . S
C1010 N1017 1.356 . S
C1011 C1010 1.363 . S
C1011 C1014 1.363 . S
N1012 C1014 1.356 . S
N1012 H1024 0.984 . S
N1012 H1025 0.985 . S
N1013 C1015 1.356 . S
N1013 H1018 0.984 . S
N1013 H1019 0.985 . S
C1014 C1008 1.379 . S
C1014 C1011 1.363 . S
C1014 N1012 1.356 . S
C1015 C1009 1.363 . S
C1015 C1010 1.379 . S
C1015 N1013 1.356 . S
N1016 C1008 1.356 . S
N1016 H1022 0.984 . S
N1016 H1023 0.984 . S
N1017 C1010 1.356 . S
N1017 H1020 0.984 . S
N1017 H1021 0.985 . S
H1018 N1013 0.984 . S
H1019 N1013 0.985 . S
H1020 N1017 0.984 . S
H1021 N1017 0.985 . S
H1022 N1016 0.984 . S
H1023 N1016 0.984 . S
H1024 N1012 0.984 . S
H1025 N1012 0.985 . S
C1026 C1027 1.363 . S
C1026 C1032 1.379 . S
C1026 N1034 1.356 . S
C1027 C1026 1.363 . S
C1027 C1033 1.363 . S
C1028 C1029 1.363 . S
C1028 C1033 1.379 . S
C1028 N1035 1.356 . S
C1029 C1028 1.363 . S
C1029 C1032 1.363 . S
N1030 C1032 1.356 . S
N1030 H1042 0.984 . S
N1030 H1043 0.985 . S
N1031 C1033 1.356 . S
N1031 H1036 0.984 . S
N1031 H1037 0.985 . S
C1032 C1026 1.379 . S
C1032 C1029 1.363 . S
C1032 N1030 1.356 . S
C1033 C1027 1.363 . S
C1033 C1028 1.379 . S
C1033 N1031 1.356 . S
N1034 C1026 1.356 . S
N1034 H1040 0.984 . S
N1034 H1041 0.984 . S
N1035 C1028 1.356 . S
N1035 H1038 0.984 . S
N1035 H1039 0.985 . S
H1036 N1031 0.984 . S
H1037 N1031 0.985 . S
H1038 N1035 0.984 . S
H1039 N1035 0.985 . S
H1040 N1034 0.984 . S
H1041 N1034 0.984 . S
H1042 N1030 0.984 . S
H1043 N1030 0.985 . S
C1044 C1045 1.363 . S
C1044 C1050 1.379 . S
C1044 N1052 1.356 . S
C1045 C1044 1.363 . S
C1045 C1051 1.363 . S
C1046 C1047 1.363 . S
C1046 C1051 1.379 . S
C1046 N1053 1.356 . S
C1047 C1046 1.363 . S
C1047 C1050 1.363 . S
N1048 C1050 1.356 . S
N1048 H1060 0.984 . S
N1048 H1061 0.985 . S
N1049 C1051 1.356 . S
N1049 H1054 0.984 . S
N1049 H1055 0.985 . S
C1050 C1044 1.379 . S
C1050 C1047 1.363 . S
C1050 N1048 1.356 . S
C1051 C1045 1.363 . S
C1051 C1046 1.379 . S
C1051 N1049 1.356 . S
N1052 C1044 1.356 . S
N1052 H1058 0.984 . S
N1052 H1059 0.984 . S
N1053 C1046 1.356 . S
N1053 H1056 0.984 . S
N1053 H1057 0.985 . S
H1054 N1049 0.984 . S
H1055 N1049 0.985 . S
H1056 N1053 0.984 . S
H1057 N1053 0.985 . S
H1058 N1052 0.984 . S
H1059 N1052 0.984 . S
H1060 N1048 0.984 . S
H1061 N1048 0.985 . S
C1062 C1063 1.363 . S
C1062 C1068 1.379 . S
C1062 N1070 1.356 . S
C1063 C1062 1.363 . S
C1063 C1069 1.363 . S
C1064 C1065 1.363 . S
C1064 C1069 1.379 . S
C1064 N1071 1.356 . S
C1065 C1064 1.363 . S
C1065 C1068 1.363 . S
N1066 C1068 1.356 . S
N1066 H1078 0.984 . S
N1066 H1079 0.985 . S
N1067 C1069 1.356 . S
N1067 H1072 0.984 . S
N1067 H1073 0.985 . S
C1068 C1062 1.379 . S
C1068 C1065 1.363 . S
C1068 N1066 1.356 . S
C1069 C1063 1.363 . S
C1069 C1064 1.379 . S
C1069 N1067 1.356 . S
N1070 C1062 1.356 . S
N1070 H1076 0.984 . S
N1070 H1077 0.984 . S
N1071 C1064 1.356 . S
N1071 H1074 0.984 . S
N1071 H1075 0.985 . S
H1072 N1067 0.984 . S
H1073 N1067 0.985 . S
H1074 N1071 0.984 . S
H1075 N1071 0.985 . S
H1076 N1070 0.984 . S
H1077 N1070 0.984 . S
H1078 N1066 0.984 . S
H1079 N1066 0.985 . S
C1080 C1081 1.363 . S
C1080 C1086 1.379 . S
C1080 N1088 1.356 . S
C1081 C1080 1.363 . S
C1081 C1087 1.363 . S
C1082 C1083 1.363 . S
C1082 C1087 1.379 . S
C1082 N1089 1.356 . S
C1083 C1082 1.363 . S
C1083 C1086 1.363 . S
N1084 C1086 1.356 . S
N1084 H1096 0.984 . S
N1084 H1097 0.985 . S
N1085 C1087 1.356 . S
N1085 H1090 0.984 . S
N1085 H1091 0.985 . S
C1086 C1080 1.379 . S
C1086 C1083 1.363 . S
C1086 N1084 1.356 . S
C1087 C1081 1.363 . S
C1087 C1082 1.379 . S
C1087 N1085 1.356 . S
N1088 C1080 1.356 . S
N1088 H1094 0.984 . S
N1088 H1095 0.984 . S
N1089 C1082 1.356 . S
N1089 H1092 0.984 . S
N1089 H1093 0.985 . S
H1090 N1085 0.984 . S
H1091 N1085 0.985 . S
H1092 N1089 0.984 . S
H1093 N1089 0.985 . S
H1094 N1088 0.984 . S
H1095 N1088 0.984 . S
H1096 N1084 0.984 . S
H1097 N1084 0.985 . S
C1098 C1099 1.363 . S
C1098 C1104 1.379 . S
C1098 N1106 1.356 . S
C1099 C1098 1.363 . S
C1099 C1105 1.363 . S
C1100 C1101 1.363 . S
C1100 C1105 1.379 . S
C1100 N1107 1.356 . S
C1101 C1100 1.363 . S
C1101 C1104 1.363 . S
N1102 C1104 1.356 . S
N1102 H1114 0.984 . S
N1102 H1115 0.985 . S
N1103 C1105 1.356 . S
N1103 H1108 0.984 . S
N1103 H1109 0.985 . S
C1104 C1098 1.379 . S
C1104 C1101 1.363 . S
C1104 N1102 1.356 . S
C1105 C1099 1.363 . S
C1105 C1100 1.379 . S
C1105 N1103 1.356 . S
N1106 C1098 1.356 . S
N1106 H1112 0.984 . S
N1106 H1113 0.984 . S
N1107 C1100 1.356 . S
N1107 H1110 0.984 . S
N1107 H1111 0.985 . S
H1108 N1103 0.984 . S
H1109 N1103 0.985 . S
H1110 N1107 0.984 . S
H1111 N1107 0.985 . S
H1112 N1106 0.984 . S
H1113 N1106 0.984 . S
H1114 N1102 0.984 . S
H1115 N1102 0.985 . S
C1116 C1117 1.363 . S
C1116 C1122 1.379 . S
C1116 N1124 1.356 . S
C1117 C1116 1.363 . S
C1117 C1123 1.363 . S
C1118 C1119 1.363 . S
C1118 C1123 1.379 . S
C1118 N1125 1.356 . S
C1119 C1118 1.363 . S
C1119 C1122 1.363 . S
N1120 C1122 1.356 . S
N1120 H1132 0.984 . S
N1120 H1133 0.985 . S
N1121 C1123 1.356 . S
N1121 H1126 0.984 . S
N1121 H1127 0.985 . S
C1122 C1116 1.379 . S
C1122 C1119 1.363 . S
C1122 N1120 1.356 . S
C1123 C1117 1.363 . S
C1123 C1118 1.379 . S
C1123 N1121 1.356 . S
N1124 C1116 1.356 . S
N1124 H1130 0.984 . S
N1124 H1131 0.984 . S
N1125 C1118 1.356 . S
N1125 H1128 0.984 . S
N1125 H1129 0.985 . S
H1126 N1121 0.984 . S
H1127 N1121 0.985 . S
H1128 N1125 0.984 . S
H1129 N1125 0.985 . S
H1130 N1124 0.984 . S
H1131 N1124 0.984 . S
H1132 N1120 0.984 . S
H1133 N1120 0.985 . S
C1134 C1135 1.363 . S
C1134 C1140 1.379 . S
C1134 N1142 1.356 . S
C1135 C1134 1.363 . S
C1135 C1141 1.363 . S
C1136 C1137 1.363 . S
C1136 C1141 1.379 . S
C1136 N1143 1.356 . S
C1137 C1136 1.363 . S
C1137 C1140 1.363 . S
N1138 C1140 1.356 . S
N1138 H1150 0.984 . S
N1138 H1151 0.985 . S
N1139 C1141 1.356 . S
N1139 H1144 0.984 . S
N1139 H1145 0.985 . S
C1140 C1134 1.379 . S
C1140 C1137 1.363 . S
C1140 N1138 1.356 . S
C1141 C1135 1.363 . S
C1141 C1136 1.379 . S
C1141 N1139 1.356 . S
N1142 C1134 1.356 . S
N1142 H1148 0.984 . S
N1142 H1149 0.984 . S
N1143 C1136 1.356 . S
N1143 H1146 0.984 . S
N1143 H1147 0.985 . S
H1144 N1139 0.984 . S
H1145 N1139 0.985 . S
H1146 N1143 0.984 . S
H1147 N1143 0.985 . S
H1148 N1142 0.984 . S
H1149 N1142 0.984 . S
H1150 N1138 0.984 . S
H1151 N1138 0.985 . S
C1152 C1153 1.363 . S
C1152 C1158 1.379 . S
C1152 N1160 1.356 . S
C1153 C1152 1.363 . S
C1153 C1159 1.363 . S
C1154 C1155 1.363 . S
C1154 C1159 1.379 . S
C1154 N1161 1.356 . S
C1155 C1154 1.363 . S
C1155 C1158 1.363 . S
N1156 C1158 1.356 . S
N1156 H1168 0.984 . S
N1156 H1169 0.985 . S
N1157 C1159 1.356 . S
N1157 H1162 0.984 . S
N1157 H1163 0.985 . S
C1158 C1152 1.379 . S
C1158 C1155 1.363 . S
C1158 N1156 1.356 . S
C1159 C1153 1.363 . S
C1159 C1154 1.379 . S
C1159 N1157 1.356 . S
N1160 C1152 1.356 . S
N1160 H1166 0.984 . S
N1160 H1167 0.984 . S
N1161 C1154 1.356 . S
N1161 H1164 0.984 . S
N1161 H1165 0.985 . S
H1162 N1157 0.984 . S
H1163 N1157 0.985 . S
H1164 N1161 0.984 . S
H1165 N1161 0.985 . S
H1166 N1160 0.984 . S
H1167 N1160 0.984 . S
H1168 N1156 0.984 . S
H1169 N1156 0.985 . S
C1170 C1171 1.363 . S
C1170 C1176 1.379 . S
C1170 N1178 1.356 . S
C1171 C1170 1.363 . S
C1171 C1177 1.363 . S
C1172 C1173 1.363 . S
C1172 C1177 1.379 . S
C1172 N1179 1.356 . S
C1173 C1172 1.363 . S
C1173 C1176 1.363 . S
N1174 C1176 1.356 . S
N1174 H1186 0.984 . S
N1174 H1187 0.985 . S
N1175 C1177 1.356 . S
N1175 H1180 0.984 . S
N1175 H1181 0.985 . S
C1176 C1170 1.379 . S
C1176 C1173 1.363 . S
C1176 N1174 1.356 . S
C1177 C1171 1.363 . S
C1177 C1172 1.379 . S
C1177 N1175 1.356 . S
N1178 C1170 1.356 . S
N1178 H1184 0.984 . S
N1178 H1185 0.984 . S
N1179 C1172 1.356 . S
N1179 H1182 0.984 . S
N1179 H1183 0.985 . S
H1180 N1175 0.984 . S
H1181 N1175 0.985 . S
H1182 N1179 0.984 . S
H1183 N1179 0.985 . S
H1184 N1178 0.984 . S
H1185 N1178 0.984 . S
H1186 N1174 0.984 . S
H1187 N1174 0.985 . S
C1188 C1189 1.363 . S
C1188 C1194 1.379 . S
C1188 N1196 1.356 . S
C1189 C1188 1.363 . S
C1189 C1195 1.363 . S
C1190 C1191 1.363 . S
C1190 C1195 1.379 . S
C1190 N1197 1.356 . S
C1191 C1190 1.363 . S
C1191 C1194 1.363 . S
N1192 C1194 1.356 . S
N1192 H1204 0.984 . S
N1192 H1205 0.985 . S
N1193 C1195 1.356 . S
N1193 H1198 0.984 . S
N1193 H1199 0.985 . S
C1194 C1188 1.379 . S
C1194 C1191 1.363 . S
C1194 N1192 1.356 . S
C1195 C1189 1.363 . S
C1195 C1190 1.379 . S
C1195 N1193 1.356 . S
N1196 C1188 1.356 . S
N1196 H1202 0.984 . S
N1196 H1203 0.984 . S
N1197 C1190 1.356 . S
N1197 H1200 0.984 . S
N1197 H1201 0.985 . S
H1198 N1193 0.984 . S
H1199 N1193 0.985 . S
H1200 N1197 0.984 . S
H1201 N1197 0.985 . S
H1202 N1196 0.984 . S
H1203 N1196 0.984 . S
H1204 N1192 0.984 . S
H1205 N1192 0.985 . S
C1206 C1207 1.363 . S
C1206 C1212 1.379 . S
C1206 N1214 1.356 . S
C1207 C1206 1.363 . S
C1207 C1213 1.363 . S
C1208 C1209 1.363 . S
C1208 C1213 1.379 1_565 S
C1208 N1215 1.356 . S
C1209 C1208 1.363 . S
C1209 C1212 1.363 1_565 S
N1210 C1212 1.356 . S
N1210 H1222 0.984 . S
N1210 H1223 0.985 1_545 S
N1211 C1213 1.356 . S
N1211 H1216 0.984 . S
N1211 H1217 0.985 . S
C1212 C1206 1.379 . S
C1212 C1209 1.363 1_545 S
C1212 N1210 1.356 . S
C1213 C1207 1.363 . S
C1213 C1208 1.379 1_545 S
C1213 N1211 1.356 . S
N1214 C1206 1.356 . S
N1214 H1220 0.984 . S
N1214 H1221 0.984 . S
N1215 C1208 1.356 . S
N1215 H1218 0.984 . S
N1215 H1219 0.985 . S
H1216 N1211 0.984 . S
H1217 N1211 0.985 . S
H1218 N1215 0.984 . S
H1219 N1215 0.985 . S
H1220 N1214 0.984 . S
H1221 N1214 0.984 . S
H1222 N1210 0.984 . S
H1223 N1210 0.985 1_565 S
C1224 C1225 1.363 . S
C1224 C1230 1.379 1_455 S
C1224 N1232 1.356 . S
C1225 C1224 1.363 . S
C1225 C1231 1.363 . S
C1226 C1227 1.363 . S
C1226 C1231 1.379 1_655 S
C1226 N1233 1.356 . S
C1227 C1226 1.363 . S
C1227 C1230 1.363 . S
N1228 C1230 1.356 . S
N1228 H1240 0.984 . S
N1228 H1241 0.985 . S
N1229 C1231 1.356 . S
N1229 H1234 0.984 . S
N1229 H1235 0.985 . S
C1230 C1224 1.379 1_655 S
C1230 C1227 1.363 . S
C1230 N1228 1.356 . S
C1231 C1225 1.363 . S
C1231 C1226 1.379 1_455 S
C1231 N1229 1.356 . S
N1232 C1224 1.356 . S
N1232 H1238 0.984 . S
N1232 H1239 0.984 . S
N1233 C1226 1.356 . S
N1233 H1236 0.984 . S
N1233 H1237 0.985 . S
H1234 N1229 0.984 . S
H1235 N1229 0.985 . S
H1236 N1233 0.984 . S
H1237 N1233 0.985 . S
H1238 N1232 0.984 . S
H1239 N1232 0.984 . S
H1240 N1228 0.984 . S
H1241 N1228 0.985 . S
C1242 C1243 1.363 . S
C1242 C1248 1.379 . S
C1242 N1250 1.356 . S
C1243 C1242 1.363 . S
C1243 C1249 1.363 1_556 S
C1244 C1245 1.363 . S
C1244 C1249 1.379 . S
C1244 N1251 1.356 . S
C1245 C1244 1.363 . S
C1245 C1248 1.363 1_554 S
N1246 C1248 1.356 . S
N1246 H1258 0.984 . S
N1246 H1259 0.985 . S
N1247 C1249 1.356 . S
N1247 H1252 0.987 . S
N1247 H1253 0.985 . S
C1248 C1242 1.379 . S
C1248 C1245 1.363 1_556 S
C1248 N1246 1.356 . S
C1249 C1243 1.363 1_554 S
C1249 C1244 1.379 . S
C1249 N1247 1.356 . S
N1250 C1242 1.356 . S
N1250 H1256 0.984 . S
N1250 H1257 0.984 . S
N1251 C1244 1.356 . S
N1251 H1254 0.984 . S
N1251 H1255 0.985 . S
H1252 N1247 0.987 . S
H1253 N1247 0.985 . S
H1254 N1251 0.984 . S
H1255 N1251 0.985 . S
H1256 N1250 0.984 . S
H1257 N1250 0.984 . S
H1258 N1246 0.984 . S
H1259 N1246 0.985 . S
C1260 C1261 1.363 1_545 S
C1260 C1266 1.379 . S
C1260 N1268 1.356 1_545 S
C1261 C1260 1.363 1_565 S
C1261 C1267 1.363 1_556 S
C1262 C1263 1.363 . S
C1262 C1267 1.379 1_545 S
C1262 N1269 1.356 . S
C1263 C1262 1.363 . S
C1263 C1266 1.363 1_554 S
N1264 C1266 1.356 . S
N1264 H1276 0.984 . S
N1264 H1277 0.985 . S
N1265 C1267 1.356 . S
N1265 H1270 0.984 . S
N1265 H1271 0.985 . S
C1266 C1260 1.379 . S
C1266 C1263 1.363 1_556 S
C1266 N1264 1.356 . S
C1267 C1261 1.363 1_554 S
C1267 C1262 1.379 1_565 S
C1267 N1265 1.356 . S
N1268 C1260 1.356 1_565 S
N1268 H1274 0.984 1_565 S
N1268 H1275 0.984 . S
N1269 C1262 1.356 . S
N1269 H1272 0.984 . S
N1269 H1273 0.985 1_545 S
H1270 N1265 0.984 . S
H1271 N1265 0.985 . S
H1272 N1269 0.984 . S
H1273 N1269 0.985 1_565 S
H1274 N1268 0.984 1_545 S
H1275 N1268 0.984 . S
H1276 N1264 0.984 . S
H1277 N1264 0.985 . S
C1278 C1279 1.363 . S
C1278 C1284 1.379 1_455 S
C1278 N1286 1.356 . S
C1279 C1278 1.363 . S
C1279 C1285 1.363 1_556 S
C1280 C1281 1.363 1_455 S
C1280 C1285 1.379 . S
C1280 N1287 1.356 1_455 S
C1281 C1280 1.363 1_655 S
C1281 C1284 1.363 1_554 S
N1282 C1284 1.356 . S
N1282 H1294 0.984 . S
N1282 H1295 0.985 . S
N1283 C1285 1.356 . S
N1283 H1288 0.984 . S
N1283 H1289 0.985 . S
C1284 C1278 1.379 1_655 S
C1284 C1281 1.363 1_556 S
C1284 N1282 1.356 . S
C1285 C1279 1.363 1_554 S
C1285 C1280 1.379 . S
C1285 N1283 1.356 . S
N1286 C1278 1.356 . S
N1286 H1292 0.984 . S
N1286 H1293 0.984 . S
N1287 C1280 1.356 1_655 S
N1287 H1290 0.984 . S
N1287 H1291 0.985 1_655 S
H1288 N1283 0.984 . S
H1289 N1283 0.985 . S
H1290 N1287 0.984 . S
H1291 N1287 0.985 1_455 S
H1292 N1286 0.984 . S
H1293 N1286 0.984 . S
H1294 N1282 0.984 . S
H1295 N1282 0.985 . S
C649 C3 1.100 . S
C651 C518 1.072 . S
C667 C436 1.123 . S
C669 C40 1.123 . S
C685 C74 1.123 . S
C687 C471 1.136 . S
C703 C219 1.091 . S
C705 C86 1.057 . S
C721 C256 1.122 . S
C723 C4 1.122 . S
C739 C302 1.070 . S
C741 C39 1.101 . S
C757 C110 1.239 . S
C759 C410 1.213 . S
C775 C338 1.196 . S
C777 C158 1.191 . S
C793 C374 1.215 . S
C795 C182 1.235 . S
C811 C194 1.213 . S
C813 C542 1.239 . S
C829 C122 1.198 . S
C831 C590 1.201 . S
C847 C614 1.270 . S
C849 C146 1.272 . S
C865 C435 1.127 . S
C867 C290 1.115 . S
C883 C220 1.138 . S
C885 C472 1.137 . S
C901 C506 1.125 . S
C903 C255 1.139 . S
C919 C626 1.231 . S
C921 C326 1.256 . S
C937 C362 1.252 . S
C939 C554 1.226 . S
C955 C578 1.276 . S
C957 C398 1.273 . S
C973 C544 1.857 . S
C975 C14 1.980 . S
C991 C38 1.724 . S
C993 C579 1.900 . S
C1009 C76 1.790 . S
C1011 C616 1.789 . S
C1027 C75 1.898 . S
C1029 C399 1.898 . S
C1045 C327 1.951 . S
C1047 C2 1.770 . S
C1063 C50 1.940 . S
C1065 C363 1.948 . S
C1081 C230 1.983 . S
C1083 C112 1.857 . S
C1099 C254 1.721 . S
C1101 C147 1.896 . S
C1117 C184 1.778 . S
C1119 C291 1.897 . S
C1135 C183 1.899 . S
C1137 C507 1.900 . S
C1153 C111 1.947 . S
C1155 C434 1.767 . S
C1171 C148 1.838 . S
C1173 C482 1.943 . S
C1189 C292 1.784 . S
C1191 C615 1.902 . S
C1207 C218 1.776 . S
C1209 C543 1.959 . S
C1225 C580 1.838 . S
C1227 C266 1.945 . S
C1243 C446 1.985 . S
C1245 C328 1.864 . S
C1261 C470 1.724 . S
C1263 C364 1.777 . S
C1279 C508 1.789 . S
C1281 C400 1.789 . S
