# Generated by pormake.
# Topology smq, (6)-cn, num edge types: 1
# Building blocks:
#     Node 0, Type 0, BuildingBlock: OJICUG_clean_sbu_0, # of connection points: 6
#     Node 1, Type 0, BuildingBlock: OJICUG_clean_sbu_0, # of connection points: 6
#     Node 2, Type 0, BuildingBlock: OJICUG_clean_sbu_0, # of connection points: 6
#     Node 3, Type 0, BuildingBlock: OJICUG_clean_sbu_0, # of connection points: 6
#     Node 4, Type 0, BuildingBlock: OJICUG_clean_sbu_0, # of connection points: 6
#     Node 5, Type 0, BuildingBlock: OJICUG_clean_sbu_0, # of connection points: 6
#     Node 6, Type 0, BuildingBlock: OJICUG_clean_sbu_0, # of connection points: 6
#     Node 7, Type 0, BuildingBlock: OJICUG_clean_sbu_0, # of connection points: 6
#     Node 8, Type 0, BuildingBlock: OJICUG_clean_sbu_0, # of connection points: 6
#     Node 9, Type 0, BuildingBlock: OJICUG_clean_sbu_0, # of connection points: 6
#     Node 10, Type 0, BuildingBlock: OJICUG_clean_sbu_0, # of connection points: 6
#     Node 11, Type 0, BuildingBlock: OJICUG_clean_sbu_0, # of connection points: 6
#     Node 12, Type 0, BuildingBlock: OJICUG_clean_sbu_0, # of connection points: 6
#     Node 13, Type 0, BuildingBlock: OJICUG_clean_sbu_0, # of connection points: 6
#     Node 14, Type 0, BuildingBlock: OJICUG_clean_sbu_0, # of connection points: 6
#     Node 15, Type 0, BuildingBlock: OJICUG_clean_sbu_0, # of connection points: 6
#     Node 16, Type 0, BuildingBlock: OJICUG_clean_sbu_0, # of connection points: 6
#     Node 17, Type 0, BuildingBlock: OJICUG_clean_sbu_0, # of connection points: 6
#     Node 18, Type 0, BuildingBlock: OJICUG_clean_sbu_0, # of connection points: 6
#     Node 19, Type 0, BuildingBlock: OJICUG_clean_sbu_0, # of connection points: 6
#     Node 20, Type 0, BuildingBlock: OJICUG_clean_sbu_0, # of connection points: 6
#     Node 21, Type 0, BuildingBlock: OJICUG_clean_sbu_0, # of connection points: 6
#     Node 22, Type 0, BuildingBlock: OJICUG_clean_sbu_0, # of connection points: 6
#     Node 23, Type 0, BuildingBlock: OJICUG_clean_sbu_0, # of connection points: 6
#     Edge 24, Type (0, 0), BuildingBlock: AJUNOK_clean_linker_0, # of connection points: 2
#     Edge 25, Type (0, 0), BuildingBlock: AJUNOK_clean_linker_0, # of connection points: 2
#     Edge 26, Type (0, 0), BuildingBlock: AJUNOK_clean_linker_0, # of connection points: 2
#     Edge 27, Type (0, 0), BuildingBlock: AJUNOK_clean_linker_0, # of connection points: 2
#     Edge 28, Type (0, 0), BuildingBlock: AJUNOK_clean_linker_0, # of connection points: 2
#     Edge 29, Type (0, 0), BuildingBlock: AJUNOK_clean_linker_0, # of connection points: 2
#     Edge 30, Type (0, 0), BuildingBlock: AJUNOK_clean_linker_0, # of connection points: 2
#     Edge 31, Type (0, 0), BuildingBlock: AJUNOK_clean_linker_0, # of connection points: 2
#     Edge 32, Type (0, 0), BuildingBlock: AJUNOK_clean_linker_0, # of connection points: 2
#     Edge 33, Type (0, 0), BuildingBlock: AJUNOK_clean_linker_0, # of connection points: 2
#     Edge 34, Type (0, 0), BuildingBlock: AJUNOK_clean_linker_0, # of connection points: 2
#     Edge 35, Type (0, 0), BuildingBlock: AJUNOK_clean_linker_0, # of connection points: 2
#     Edge 36, Type (0, 0), BuildingBlock: AJUNOK_clean_linker_0, # of connection points: 2
#     Edge 37, Type (0, 0), BuildingBlock: AJUNOK_clean_linker_0, # of connection points: 2
#     Edge 38, Type (0, 0), BuildingBlock: AJUNOK_clean_linker_0, # of connection points: 2
#     Edge 39, Type (0, 0), BuildingBlock: AJUNOK_clean_linker_0, # of connection points: 2
#     Edge 40, Type (0, 0), BuildingBlock: AJUNOK_clean_linker_0, # of connection points: 2
#     Edge 41, Type (0, 0), BuildingBlock: AJUNOK_clean_linker_0, # of connection points: 2
#     Edge 42, Type (0, 0), BuildingBlock: AJUNOK_clean_linker_0, # of connection points: 2
#     Edge 43, Type (0, 0), BuildingBlock: AJUNOK_clean_linker_0, # of connection points: 2
#     Edge 44, Type (0, 0), BuildingBlock: AJUNOK_clean_linker_0, # of connection points: 2
#     Edge 45, Type (0, 0), BuildingBlock: AJUNOK_clean_linker_0, # of connection points: 2
#     Edge 46, Type (0, 0), BuildingBlock: AJUNOK_clean_linker_0, # of connection points: 2
#     Edge 47, Type (0, 0), BuildingBlock: AJUNOK_clean_linker_0, # of connection points: 2
#     Edge 48, Type (0, 0), BuildingBlock: AJUNOK_clean_linker_0, # of connection points: 2
#     Edge 49, Type (0, 0), BuildingBlock: AJUNOK_clean_linker_0, # of connection points: 2
#     Edge 50, Type (0, 0), BuildingBlock: AJUNOK_clean_linker_0, # of connection points: 2
#     Edge 51, Type (0, 0), BuildingBlock: AJUNOK_clean_linker_0, # of connection points: 2
#     Edge 52, Type (0, 0), BuildingBlock: AJUNOK_clean_linker_0, # of connection points: 2
#     Edge 53, Type (0, 0), BuildingBlock: AJUNOK_clean_linker_0, # of connection points: 2
#     Edge 54, Type (0, 0), BuildingBlock: AJUNOK_clean_linker_0, # of connection points: 2
#     Edge 55, Type (0, 0), BuildingBlock: AJUNOK_clean_linker_0, # of connection points: 2
#     Edge 56, Type (0, 0), BuildingBlock: AJUNOK_clean_linker_0, # of connection points: 2
#     Edge 57, Type (0, 0), BuildingBlock: AJUNOK_clean_linker_0, # of connection points: 2
#     Edge 58, Type (0, 0), BuildingBlock: AJUNOK_clean_linker_0, # of connection points: 2
#     Edge 59, Type (0, 0), BuildingBlock: AJUNOK_clean_linker_0, # of connection points: 2
#     Edge 60, Type (0, 0), BuildingBlock: AJUNOK_clean_linker_0, # of connection points: 2
#     Edge 61, Type (0, 0), BuildingBlock: AJUNOK_clean_linker_0, # of connection points: 2
#     Edge 62, Type (0, 0), BuildingBlock: AJUNOK_clean_linker_0, # of connection points: 2
#     Edge 63, Type (0, 0), BuildingBlock: AJUNOK_clean_linker_0, # of connection points: 2
#     Edge 64, Type (0, 0), BuildingBlock: AJUNOK_clean_linker_0, # of connection points: 2
#     Edge 65, Type (0, 0), BuildingBlock: AJUNOK_clean_linker_0, # of connection points: 2
#     Edge 66, Type (0, 0), BuildingBlock: AJUNOK_clean_linker_0, # of connection points: 2
#     Edge 67, Type (0, 0), BuildingBlock: AJUNOK_clean_linker_0, # of connection points: 2
#     Edge 68, Type (0, 0), BuildingBlock: AJUNOK_clean_linker_0, # of connection points: 2
#     Edge 69, Type (0, 0), BuildingBlock: AJUNOK_clean_linker_0, # of connection points: 2
#     Edge 70, Type (0, 0), BuildingBlock: AJUNOK_clean_linker_0, # of connection points: 2
#     Edge 71, Type (0, 0), BuildingBlock: AJUNOK_clean_linker_0, # of connection points: 2
#     Edge 72, Type (0, 0), BuildingBlock: AJUNOK_clean_linker_0, # of connection points: 2
#     Edge 73, Type (0, 0), BuildingBlock: AJUNOK_clean_linker_0, # of connection points: 2
#     Edge 74, Type (0, 0), BuildingBlock: AJUNOK_clean_linker_0, # of connection points: 2
#     Edge 75, Type (0, 0), BuildingBlock: AJUNOK_clean_linker_0, # of connection points: 2
#     Edge 76, Type (0, 0), BuildingBlock: AJUNOK_clean_linker_0, # of connection points: 2
#     Edge 77, Type (0, 0), BuildingBlock: AJUNOK_clean_linker_0, # of connection points: 2
#     Edge 78, Type (0, 0), BuildingBlock: AJUNOK_clean_linker_0, # of connection points: 2
#     Edge 79, Type (0, 0), BuildingBlock: AJUNOK_clean_linker_0, # of connection points: 2
#     Edge 80, Type (0, 0), BuildingBlock: AJUNOK_clean_linker_0, # of connection points: 2
#     Edge 81, Type (0, 0), BuildingBlock: AJUNOK_clean_linker_0, # of connection points: 2
#     Edge 82, Type (0, 0), BuildingBlock: AJUNOK_clean_linker_0, # of connection points: 2
#     Edge 83, Type (0, 0), BuildingBlock: AJUNOK_clean_linker_0, # of connection points: 2
#     Edge 84, Type (0, 0), BuildingBlock: AJUNOK_clean_linker_0, # of connection points: 2
#     Edge 85, Type (0, 0), BuildingBlock: AJUNOK_clean_linker_0, # of connection points: 2
#     Edge 86, Type (0, 0), BuildingBlock: AJUNOK_clean_linker_0, # of connection points: 2
#     Edge 87, Type (0, 0), BuildingBlock: AJUNOK_clean_linker_0, # of connection points: 2
#     Edge 88, Type (0, 0), BuildingBlock: AJUNOK_clean_linker_0, # of connection points: 2
#     Edge 89, Type (0, 0), BuildingBlock: AJUNOK_clean_linker_0, # of connection points: 2
#     Edge 90, Type (0, 0), BuildingBlock: AJUNOK_clean_linker_0, # of connection points: 2
#     Edge 91, Type (0, 0), BuildingBlock: AJUNOK_clean_linker_0, # of connection points: 2
#     Edge 92, Type (0, 0), BuildingBlock: AJUNOK_clean_linker_0, # of connection points: 2
#     Edge 93, Type (0, 0), BuildingBlock: AJUNOK_clean_linker_0, # of connection points: 2
#     Edge 94, Type (0, 0), BuildingBlock: AJUNOK_clean_linker_0, # of connection points: 2
#     Edge 95, Type (0, 0), BuildingBlock: AJUNOK_clean_linker_0, # of connection points: 2
# Relax obj value: 0.157
# Max RMSD: 0.181
# Mean RMSD: 0.181
data_MOF--net-smq--node1-OJICUG_clean_sbu_0--edge1-AJUNOK_clean_linker_0
_symmetry_space_group_name_H-M    P1
_symmetry_Int_Tables_number       1
_symmetry_cell_setting            triclinic
loop_
_symmetry_equiv_pos_as_xyz
'x, y, z'
_cell_length_a     35.605538
_cell_length_b     35.563422
_cell_length_c     35.528329
_cell_angle_alpha  90.061058
_cell_angle_beta   90.396817
_cell_angle_gamma 89.861434
loop_
_atom_site_label
_atom_site_type_symbol
_atom_site_fract_x
_atom_site_fract_y
_atom_site_fract_z
_atom_type_partial_charge
Sc0 Sc 0.97691 0.16426 0.22174 0.0
Sc1 Sc -0.00778 0.24639 0.27182 0.0
Sc2 Sc 0.99034 0.1584 0.31782 0.0
O3 O 0.98703 0.18976 0.27069 0.0
C4 C 0.92377 0.11854 0.27528 0.0
C5 C 0.92985 0.23439 0.20753 0.0
C6 C 0.94016 0.22892 0.34114 0.0
C7 C 0.03534 0.22855 0.19908 0.0
C8 C 0.03955 0.11353 0.25864 0.0
C9 C 0.05165 0.21898 0.33467 0.0
O10 O 0.93913 0.1235 0.24368 0.0
O11 O 0.95279 0.25537 0.22542 0.0
O12 O 0.95692 0.19808 0.34815 0.0
O13 O 0.01247 0.20206 0.19225 0.0
O14 O 0.02601 0.11652 0.2916 0.0
O15 O 0.03432 0.24459 0.31633 0.0
O16 O 0.025 0.12961 0.23014 0.0
O17 O 0.03643 0.24615 0.23031 0.0
O18 O 0.04108 0.18503 0.33476 0.0
O19 O 0.92917 0.19907 0.21211 0.0
O20 O 0.93801 0.13023 0.30586 0.0
O21 O 0.94731 0.24913 0.31239 0.0
Sc22 Sc 0.32768 0.48981 0.72247 0.0
Sc23 Sc 0.23942 0.48774 0.76315 0.0
Sc24 Sc 0.32151 0.49337 0.81842 0.0
O25 O 0.29561 0.49046 0.7682 0.0
C26 C 0.37518 0.44001 0.77684 0.0
C27 C 0.27028 0.43035 0.69979 0.0
C28 C 0.2556 0.43538 0.83326 0.0
C29 C 0.25434 0.53095 0.69039 0.0
C30 C 0.36196 0.55493 0.76901 0.0
C31 C 0.25331 0.54861 0.82818 0.0
O32 O 0.37492 0.46323 0.74983 0.0
O33 O 0.24408 0.44747 0.71739 0.0
O34 O 0.28401 0.4542 0.84379 0.0
O35 O 0.28604 0.51507 0.68751 0.0
O36 O 0.36211 0.53429 0.79837 0.0
O37 O 0.23127 0.53009 0.80657 0.0
O38 O 0.34772 0.54415 0.73791 0.0
O39 O 0.23611 0.53148 0.72101 0.0
O40 O 0.28749 0.5398 0.83365 0.0
O41 O 0.30503 0.43637 0.70646 0.0
O42 O 0.35485 0.44502 0.80541 0.0
O43 O 0.237 0.44249 0.80341 0.0
Sc44 Sc 0.9845 0.82908 0.221 0.0
Sc45 Sc -0.00529 0.74316 0.26601 0.0
Sc46 Sc -0.00481 0.82749 0.31752 0.0
O47 O -0.00853 0.79964 0.26828 0.0
C48 C 0.04731 0.87338 0.2635 0.0
C49 C 0.03931 0.76339 0.1942 0.0
C50 C 0.05583 0.76509 0.32898 0.0
C51 C 0.93397 0.76248 0.20158 0.0
C52 C 0.93298 0.87425 0.27774 0.0
C53 C 0.94346 0.7574 0.33663 0.0
O54 O 0.03504 0.8582 0.23357 0.0
O55 O 0.03894 0.74405 0.22437 0.0
O56 O 0.04606 0.79929 0.33149 0.0
O57 O 0.93521 0.79788 0.2067 0.0
O58 O 0.9433 0.85657 0.30693 0.0
O59 O 0.94953 0.73908 0.30637 0.0
O60 O 0.94981 0.87153 0.24649 0.0
O61 O 0.95482 0.73963 0.21982 0.0
O62 O 0.96225 0.78627 0.34597 0.0
O63 O 0.01789 0.79138 0.18856 0.0
O64 O 0.03003 0.87178 0.29468 0.0
O65 O 0.03715 0.74088 0.31014 0.0
Sc66 Sc 0.6618 0.49083 0.8208 0.0
Sc67 Sc 0.73776 0.48942 0.75762 0.0
Sc68 Sc 0.64549 0.49667 0.72469 0.0
O69 O 0.68194 0.49244 0.76765 0.0
C70 C 0.60654 0.43714 0.7772 0.0
C71 C 0.72626 0.43116 0.82496 0.0
C72 C 0.70803 0.44147 0.6903 0.0
C73 C 0.73331 0.54376 0.82729 0.0
C74 C 0.61187 0.55372 0.78508 0.0
C75 C 0.7093 0.54624 0.69288 0.0
O76 O 0.6152 0.4544 0.80728 0.0
O77 O 0.7474 0.4487 0.80217 0.0
O78 O 0.67743 0.45987 0.68979 0.0
O79 O 0.70563 0.52638 0.84118 0.0
O80 O 0.61015 0.53676 0.75357 0.0
O81 O 0.73456 0.52789 0.71061 0.0
O82 O 0.6307 0.54161 0.81282 0.0
O83 O 0.74776 0.53588 0.79558 0.0
O84 O 0.67453 0.54329 0.70037 0.0
O85 O 0.69292 0.44117 0.83229 0.0
O86 O 0.61664 0.448 0.74483 0.0
O87 O 0.73172 0.44411 0.71725 0.0
Sc88 Sc 0.99043 0.82288 0.6643 0.0
Sc89 Sc -0.00174 0.74148 0.72101 0.0
Sc90 Sc -0.00805 0.83066 0.76089 0.0
O91 O -0.00637 0.79791 0.71522 0.0
C92 C 0.04123 0.88008 0.70669 0.0
C93 C 0.05249 0.75937 0.65293 0.0
C94 C 0.05211 0.77436 0.78703 0.0
C95 C 0.93924 0.75159 0.65313 0.0
C96 C 0.92633 0.86197 0.71132 0.0
C97 C 0.94851 0.7578 0.7903 0.0
O98 O 0.03538 0.86041 0.6776 0.0
O99 O 0.04461 0.74023 0.68209 0.0
O100 O 0.0443 0.80875 0.78076 0.0
O101 O 0.94706 0.78585 0.64742 0.0
O102 O 0.93868 0.85071 0.74293 0.0
O103 O 0.9534 0.73714 0.76152 0.0
O104 O 0.94576 0.86093 0.68136 0.0
O105 O 0.95747 0.73072 0.67613 0.0
O106 O 0.96332 0.78997 0.79371 0.0
O107 O 0.0333 0.78741 0.64181 0.0
O108 O 0.02098 0.87708 0.73571 0.0
O109 O 0.03708 0.74743 0.76842 0.0
Sc110 Sc 0.64693 0.4929 0.25792 0.0
Sc111 Sc 0.73344 0.48913 0.21466 0.0
Sc112 Sc 0.64951 0.49025 0.16168 0.0
O113 O 0.67735 0.49104 0.21115 0.0
C114 C 0.60167 0.43781 0.21038 0.0
C115 C 0.70543 0.43379 0.28081 0.0
C116 C 0.7167 0.43313 0.14743 0.0
C117 C 0.7184 0.53921 0.284 0.0
C118 C 0.61149 0.5549 0.2087 0.0
C119 C 0.71597 0.54627 0.14652 0.0
O120 O 0.59952 0.46578 0.23217 0.0
O121 O 0.7311 0.45069 0.26234 0.0
O122 O 0.68761 0.45098 0.13678 0.0
O123 O 0.68843 0.52135 0.29034 0.0
O124 O 0.60848 0.53182 0.18124 0.0
O125 O 0.73867 0.52905 0.16867 0.0
O126 O 0.62689 0.54601 0.23977 0.0
O127 O 0.73688 0.53569 0.25375 0.0
O128 O 0.68171 0.53694 0.14219 0.0
O129 O 0.67051 0.44053 0.27597 0.0
O130 O 0.61917 0.44072 0.17964 0.0
O131 O 0.73551 0.44183 0.17674 0.0
Sc132 Sc -0.00805 0.16769 0.66506 0.0
Sc133 Sc 0.98832 0.24589 0.7241 0.0
Sc134 Sc 0.98247 0.15593 0.76013 0.0
O135 O 0.98767 0.19017 0.71643 0.0
C136 C 0.9313 0.11676 0.69865 0.0
C137 C 0.93963 0.23893 0.65174 0.0
C138 C 0.92961 0.21689 0.78621 0.0
C139 C 0.05026 0.23153 0.66065 0.0
C140 C 0.0457 0.11774 0.71472 0.0
C141 C 0.03056 0.22372 0.79543 0.0
O142 O 0.93975 0.13879 0.67209 0.0
O143 O 0.94255 0.25186 0.68497 0.0
O144 O 0.93104 0.18276 0.77551 0.0
O145 O 0.04292 0.19688 0.65669 0.0
O146 O 0.03524 0.1314 0.74594 0.0
O147 O 0.03284 0.24288 0.76531 0.0
O148 O 0.02603 0.12048 0.68473 0.0
O149 O 0.02972 0.25396 0.67975 0.0
O150 O 0.0115 0.19362 0.79739 0.0
O151 O 0.96016 0.21251 0.63916 0.0
O152 O 0.95088 0.1141 0.72866 0.0
O153 O 0.9492 0.24253 0.7707 0.0
Sc154 Sc 0.32283 0.48877 0.17467 0.0
Sc155 Sc 0.2337 0.48614 0.21627 0.0
Sc156 Sc 0.31269 0.50272 0.26968 0.0
O157 O 0.28968 0.49173 0.21981 0.0
C158 C 0.36427 0.43987 0.23774 0.0
C159 C 0.26425 0.42642 0.15569 0.0
C160 C 0.24948 0.44432 0.28998 0.0
C161 C 0.25312 0.53832 0.14766 0.0
C162 C 0.35953 0.55518 0.21886 0.0
C163 C 0.24373 0.55008 0.27908 0.0
O164 O 0.36428 0.45488 0.20503 0.0
O165 O 0.23785 0.44438 0.17196 0.0
O166 O 0.27155 0.47078 0.29903 0.0
O167 O 0.28369 0.52079 0.14136 0.0
O168 O 0.35767 0.53601 0.24868 0.0
O169 O 0.22337 0.5256 0.26245 0.0
O170 O 0.3476 0.54268 0.18763 0.0
O171 O 0.23174 0.53127 0.17549 0.0
O172 O 0.27881 0.55191 0.27346 0.0
O173 O 0.29831 0.43671 0.15742 0.0
O174 O 0.34531 0.45301 0.26495 0.0
O175 O 0.23484 0.44122 0.25733 0.0
Sc176 Sc 0.20593 0.97924 0.16594 0.0
Sc177 Sc 0.25506 -0.00126 0.2477 0.0
Sc178 Sc 0.30103 -0.0036 0.16075 0.0
O179 O 0.25397 -0.00775 0.19144 0.0
C180 C 0.26287 0.92582 0.12486 0.0
C181 C 0.19284 0.93516 0.23779 0.0
C182 C 0.32504 0.94801 0.23094 0.0
C183 C 0.18085 0.0393 0.22823 0.0
C184 C 0.24026 0.03916 0.1116 0.0
C185 C 0.31462 0.05976 0.21856 0.0
O186 O 0.23074 0.94098 0.12705 0.0
O187 O 0.20973 0.95955 0.25779 0.0
O188 O 0.33385 0.96869 0.20324 0.0
O189 O 0.17498 0.01534 0.20233 0.0
O190 O 0.27336 0.02608 0.11526 0.0
O191 O 0.29915 0.04077 0.24468 0.0
O192 O 0.21245 0.02598 0.12941 0.0
O193 O 0.21219 0.04217 0.24575 0.0
O194 O 0.31293 0.05015 0.18424 0.0
O195 O 0.19772 0.93261 0.20258 0.0
O196 O 0.29257 0.94146 0.1368 0.0
O197 O 0.29566 0.95339 0.25059 0.0
Sc198 Sc 0.4911 0.79649 0.6664 0.0
Sc199 Sc 0.49009 0.76342 0.76009 0.0
Sc200 Sc 0.49999 0.70126 0.6853 0.0
O201 O 0.49339 0.75399 0.704 0.0
C202 C 0.43821 0.73332 0.63035 0.0
C203 C 0.43301 0.82509 0.72613 0.0
C204 C 0.44253 0.69093 0.75308 0.0
C205 C 0.54418 0.828 0.73217 0.0
C206 C 0.55382 0.7454 0.63052 0.0
C207 C 0.55042 0.69671 0.75567 0.0
O208 O 0.45249 0.76617 0.62995 0.0
O209 O 0.44964 0.80853 0.7533 0.0
O210 O 0.46365 0.67879 0.72716 0.0
O211 O 0.5281 0.83039 0.70015 0.0
O212 O 0.53815 0.71553 0.64161 0.0
O213 O 0.52887 0.71797 0.77474 0.0
O214 O 0.54096 0.7778 0.63786 0.0
O215 O 0.53584 0.80317 0.75667 0.0
O216 O 0.54802 0.69377 0.72022 0.0
O217 O 0.44261 0.82057 0.6921 0.0
O218 O 0.4518 0.70664 0.64988 0.0
O219 O 0.44427 0.72417 0.76625 0.0
Sc220 Sc 0.68318 -0.00762 0.15417 0.0
Sc221 Sc 0.7199 -0.00769 0.2464 0.0
Sc222 Sc 0.77918 -0.00675 0.16934 0.0
O223 O 0.72738 -0.00716 0.19016 0.0
C224 C 0.73706 0.93521 0.11512 0.0
C225 C 0.65862 0.93568 0.21881 0.0
C226 C 0.79388 0.94175 0.23748 0.0
C227 C 0.65391 0.04648 0.21578 0.0
C228 C 0.73808 0.0508 0.11688 0.0
C229 C 0.78688 0.0471 0.24151 0.0
O230 O 0.70416 0.94344 0.12582 0.0
O231 O 0.68568 0.94293 0.24122 0.0
O232 O 0.79541 0.9456 0.20202 0.0
O233 O 0.65908 0.04036 0.18104 0.0
O234 O 0.76604 0.04219 0.13737 0.0
O235 O 0.75478 0.04093 0.25567 0.0
O236 O 0.70848 0.03101 0.11477 0.0
O237 O 0.6708 0.02831 0.24185 0.0
O238 O 0.79919 0.03022 0.2126 0.0
O239 O 0.65211 0.95461 0.18914 0.0
O240 O 0.76552 0.95498 0.12409 0.0
O241 O 0.76945 0.95817 0.2577 0.0
Sc242 Sc 0.48802 0.28249 0.68103 0.0
Sc243 Sc 0.4889 0.22515 0.75893 0.0
Sc244 Sc 0.49666 0.18794 0.66816 0.0
O245 O 0.49249 0.2315 0.70315 0.0
C246 C 0.44001 0.2377 0.62503 0.0
C247 C 0.43101 0.29203 0.74043 0.0
C248 C 0.43753 0.15975 0.72829 0.0
C249 C 0.53272 0.29851 0.75722 0.0
C250 C 0.55519 0.24856 0.63915 0.0
C251 C 0.55048 0.16392 0.73323 0.0
O252 O 0.46317 0.26432 0.62896 0.0
O253 O 0.44997 0.27287 0.76437 0.0
O254 O 0.45912 0.15375 0.70054 0.0
O255 O 0.51282 0.30898 0.72942 0.0
O256 O 0.5363 0.21855 0.63302 0.0
O257 O 0.52996 0.17919 0.75848 0.0
O258 O 0.54246 0.27578 0.65846 0.0
O259 O 0.53416 0.26458 0.76853 0.0
O260 O 0.54409 0.16771 0.69824 0.0
O261 O 0.43387 0.28612 0.7054 0.0
O262 O 0.44689 0.20566 0.63876 0.0
O263 O 0.44254 0.18675 0.75144 0.0
Sc264 Sc 0.29322 -0.00205 0.81833 0.0
Sc265 Sc 0.25607 -0.00645 0.72645 0.0
Sc266 Sc 0.19954 0.9789 0.80333 0.0
O267 O 0.2498 0.9914 0.78297 0.0
C268 C 0.25095 0.93164 0.85879 0.0
C269 C 0.32216 0.94177 0.75411 0.0
C270 C 0.1913 0.93318 0.7351 0.0
C271 C 0.31707 0.05332 0.75536 0.0
C272 C 0.22643 0.04599 0.85452 0.0
C273 C 0.18223 0.0362 0.73528 0.0
O274 O 0.28114 0.94826 0.85047 0.0
O275 O 0.29545 0.94748 0.73051 0.0
O276 O 0.20066 0.93002 0.76914 0.0
O277 O 0.31119 0.04719 0.78988 0.0
O278 O 0.20023 0.02813 0.83785 0.0
O279 O 0.21571 0.03892 0.72293 0.0
O280 O 0.26079 0.03549 0.85375 0.0
O281 O 0.30234 0.03335 0.72943 0.0
O282 O 0.17256 0.01268 0.76037 0.0
O283 O 0.32731 0.96156 0.78375 0.0
O284 O 0.21906 0.94267 0.84734 0.0
O285 O 0.20853 0.95626 0.71415 0.0
Sc286 Sc 0.49928 0.70597 0.30862 0.0
Sc287 Sc 0.48613 0.76369 0.2297 0.0
Sc288 Sc 0.49111 0.80254 0.3221 0.0
O289 O 0.49194 0.75748 0.28659 0.0
C290 C 0.44072 0.74363 0.36512 0.0
C291 C 0.43655 0.69253 0.24489 0.0
C292 C 0.4312 0.82806 0.26124 0.0
C293 C 0.54469 0.69574 0.23379 0.0
C294 C 0.55667 0.75353 0.3579 0.0
C295 C 0.54374 0.82748 0.25446 0.0
O296 O 0.45725 0.71563 0.35036 0.0
O297 O 0.44189 0.72228 0.22578 0.0
O298 O 0.44453 0.82803 0.29431 0.0
O299 O 0.54068 0.69054 0.26875 0.0
O300 O 0.53896 0.7843 0.35471 0.0
O301 O 0.53101 0.80447 0.22995 0.0
O302 O 0.54504 0.72298 0.34378 0.0
O303 O 0.52589 0.7198 0.21512 0.0
O304 O 0.53053 0.83098 0.28742 0.0
O305 O 0.45573 0.6836 0.27382 0.0
O306 O 0.45052 0.77732 0.35882 0.0
O307 O 0.44423 0.8074 0.23516 0.0
Sc308 Sc 0.78675 0.98224 0.80302 0.0
Sc309 Sc 0.72322 -0.00672 0.73036 0.0
Sc310 Sc 0.69416 -0.00683 0.82443 0.0
O311 O 0.7343 0.99055 0.78553 0.0
C312 C 0.74488 0.93121 0.85807 0.0
C313 C 0.78473 0.9276 0.73769 0.0
C314 C 0.65678 0.94281 0.76074 0.0
C315 C 0.80021 0.03163 0.72974 0.0
C316 C 0.7594 0.04641 0.85389 0.0
C317 C 0.6669 0.05418 0.76742 0.0
O318 O 0.7721 0.95351 0.85383 0.0
O319 O 0.76569 0.95065 0.71754 0.0
O320 O 0.65549 0.96039 0.79183 0.0
O321 O 0.81078 0.00916 0.75536 0.0
O322 O 0.72961 0.02767 0.86067 0.0
O323 O 0.681 0.03687 0.73922 0.0
O324 O 0.78425 0.03502 0.83097 0.0
O325 O 0.76566 0.03628 0.72126 0.0
O326 O 0.67258 0.044 0.80124 0.0
O327 O 0.78697 0.93034 0.77335 0.0
O328 O 0.71219 0.94024 0.84737 0.0
O329 O 0.68136 0.94952 0.73568 0.0
Sc330 Sc 0.48998 0.17456 0.32755 0.0
Sc331 Sc 0.49007 0.22857 0.24459 0.0
Sc332 Sc 0.48958 0.27062 0.33284 0.0
O333 O 0.49018 0.22441 0.30129 0.0
C334 C 0.43605 0.21764 0.37972 0.0
C335 C 0.43257 0.16328 0.2595 0.0
C336 C 0.43574 0.2963 0.27082 0.0
C337 C 0.54339 0.15701 0.26103 0.0
C338 C 0.55002 0.22197 0.3732 0.0
C339 C 0.54065 0.29633 0.26327 0.0
O340 O 0.44172 0.18887 0.35974 0.0
O341 O 0.44105 0.193 0.24152 0.0
O342 O 0.43937 0.2891 0.30572 0.0
O343 O 0.5365 0.15648 0.29592 0.0
O344 O 0.54079 0.2532 0.35859 0.0
O345 O 0.53787 0.26635 0.24375 0.0
O346 O 0.52994 0.19247 0.37052 0.0
O347 O 0.52729 0.17967 0.23805 0.0
O348 O 0.52181 0.30148 0.29302 0.0
O349 O 0.45121 0.15139 0.28771 0.0
O350 O 0.45617 0.24698 0.37756 0.0
O351 O 0.45396 0.27836 0.24563 0.0
Sc352 Sc 0.13675 0.209 0.98607 0.0
Sc353 Sc 0.22521 0.2491 0.98757 0.0
Sc354 Sc 0.14411 0.30464 -0.00334 0.0
O355 O 0.16917 0.25454 0.99041 0.0
C356 C 0.08986 0.26633 0.94003 0.0
C357 C 0.1939 0.18926 0.92625 0.0
C358 C 0.20966 0.32139 0.93851 0.0
C359 C 0.20718 0.17638 0.03055 0.0
C360 C 0.10414 0.25091 0.05527 0.0
C361 C 0.21385 0.31335 0.05021 0.0
O362 O 0.08983 0.23744 0.9607 0.0
O363 O 0.22028 0.20453 0.94554 0.0
O364 O 0.18141 0.33125 0.95788 0.0
O365 O 0.17741 0.17283 0.0112 0.0
O366 O 0.10488 0.28251 0.03817 0.0
O367 O 0.2349 0.29193 0.03057 0.0
O368 O 0.11637 0.2208 0.04051 0.0
O369 O 0.22663 0.20633 0.03072 0.0
O370 O 0.17918 0.31817 0.04322 0.0
O371 O 0.15939 0.19641 0.93212 0.0
O372 O 0.10989 0.29458 0.94779 0.0
O373 O 0.2276 0.29079 0.94374 0.0
Sc374 Sc 0.14967 0.6898 0.99057 0.0
Sc375 Sc 0.24155 0.7248 0.99047 0.0
Sc376 Sc 0.16623 0.7845 0.00109 0.0
O377 O 0.18609 0.73262 -0.00623 0.0
C378 C 0.11655 0.7528 0.9364 0.0
C379 C 0.20811 0.66616 0.93009 0.0
C380 C 0.23612 0.80022 0.94878 0.0
C381 C 0.2164 0.65658 0.04105 0.0
C382 C 0.11353 0.73837 0.05304 0.0
C383 C 0.23284 0.78694 0.0552 0.0
O384 O 0.11164 0.72235 0.95483 0.0
O385 O 0.23514 0.68184 0.94783 0.0
O386 O 0.21152 0.81129 0.9719 0.0
O387 O 0.1848 0.6536 0.02434 0.0
O388 O 0.11772 0.76696 0.03225 0.0
O389 O 0.25319 0.76827 0.03233 0.0
O390 O 0.12472 0.70618 0.04292 0.0
O391 O 0.23942 0.68313 0.03441 0.0
O392 O 0.19723 0.78853 0.05231 0.0
O393 O 0.1741 0.66949 0.93992 0.0
O394 O 0.13722 0.7793 0.94867 0.0
O395 O 0.24636 0.76607 0.94618 0.0
Sc396 Sc 0.79908 0.64331 0.48817 0.0
Sc397 Sc 0.75879 0.73297 0.49511 0.0
Sc398 Sc 0.70286 0.65394 0.49095 0.0
O399 O 0.75387 0.67709 0.49078 0.0
C400 C 0.74296 0.61143 0.42611 0.0
C401 C 0.82508 0.70961 0.43793 0.0
C402 C 0.68874 0.72905 0.4442 0.0
C403 C 0.82331 0.70455 0.54901 0.0
C404 C 0.74709 0.60037 0.54357 0.0
C405 C 0.69044 0.71442 0.55062 0.0
O406 O 0.77278 0.60727 0.44586 0.0
O407 O 0.80638 0.73352 0.45711 0.0
O408 O 0.67738 0.70033 0.46187 0.0
O409 O 0.83028 0.67619 0.52838 0.0
O410 O 0.72016 0.60393 0.52035 0.0
O411 O 0.71076 0.73795 0.53288 0.0
O412 O 0.77933 0.61328 0.53642 0.0
O413 O 0.79573 0.72668 0.54291 0.0
O414 O 0.69079 0.67941 0.54357 0.0
O415 O 0.8221 0.67432 0.44245 0.0
O416 O 0.71467 0.62966 0.43786 0.0
O417 O 0.72167 0.74234 0.44778 0.0
Sc418 Sc 0.84204 0.30404 -0.0072 0.0
Sc419 Sc 0.75842 0.25352 0.98508 0.0
Sc420 Sc 0.84315 0.20731 0.99036 0.0
O421 O 0.81405 0.2553 0.9898 0.0
C422 C 0.89086 0.25656 0.93973 0.0
C423 C 0.77804 0.32095 0.93194 0.0
C424 C 0.7874 0.18842 0.92876 0.0
C425 C 0.77311 0.32103 0.04375 0.0
C426 C 0.87628 0.25258 0.05674 0.0
C427 C 0.76901 0.18303 0.03262 0.0
O428 O 0.87401 0.28747 0.94465 0.0
O429 O 0.75971 0.29098 0.93801 0.0
O430 O 0.82208 0.19338 0.93601 0.0
O431 O 0.8083 0.32288 0.03833 0.0
O432 O 0.86134 0.22219 0.04529 0.0
O433 O 0.75374 0.21528 0.03159 0.0
O434 O 0.88047 0.28121 0.03541 0.0
O435 O 0.75134 0.30007 0.0242 0.0
O436 O 0.7986 0.17496 0.01466 0.0
O437 O 0.8057 0.33127 0.95235 0.0
O438 O 0.89207 0.23253 0.96593 0.0
O439 O 0.76145 0.20588 0.94642 0.0
Sc440 Sc 0.18335 0.33649 0.49234 0.0
Sc441 Sc 0.23027 0.25063 0.50255 0.0
Sc442 Sc 0.27934 0.33406 0.49927 0.0
O443 O 0.23079 0.30648 0.49728 0.0
C444 C 0.23796 0.37024 0.4318 0.0
C445 C 0.16612 0.2682 0.44042 0.0
C446 C 0.30363 0.25741 0.4593 0.0
C447 C 0.16188 0.27504 0.55268 0.0
C448 C 0.22979 0.38352 0.5485 0.0
C449 C 0.29516 0.27693 0.56058 0.0
O450 O 0.20873 0.3745 0.45197 0.0
O451 O 0.18495 0.2455 0.4612 0.0
O452 O 0.3103 0.28843 0.4756 0.0
O453 O 0.15295 0.30158 0.53048 0.0
O454 O 0.25536 0.38376 0.52394 0.0
O455 O 0.27677 0.25164 0.54274 0.0
O456 O 0.19884 0.36751 0.5417 0.0
O457 O 0.19114 0.25492 0.5483 0.0
O458 O 0.29077 0.31183 0.55386 0.0
O459 O 0.16584 0.30356 0.44557 0.0
O460 O 0.26739 0.35389 0.44403 0.0
O461 O 0.27111 0.24263 0.45847 0.0
Sc462 Sc 0.84145 0.77258 0.98255 0.0
Sc463 Sc 0.75704 0.72651 0.98616 0.0
Sc464 Sc 0.84182 0.67671 -0.00634 0.0
O465 O 0.81302 0.72481 0.9881 0.0
C466 C 0.89046 0.7193 0.93614 0.0
C467 C 0.78208 0.78689 0.92364 0.0
C468 C 0.7767 0.65614 0.93545 0.0
C469 C 0.77136 0.8004 0.02886 0.0
C470 C 0.87786 0.73448 0.05179 0.0
C471 C 0.77409 0.66159 0.04719 0.0
O472 O 0.89027 0.74654 0.95897 0.0
O473 O 0.75748 0.77161 0.94468 0.0
O474 O 0.80525 0.64738 0.9554 0.0
O475 O 0.79797 0.80641 0.00617 0.0
O476 O 0.88019 0.70306 0.03426 0.0
O477 O 0.75169 0.68217 0.02792 0.0
O478 O 0.86284 0.7636 0.03743 0.0
O479 O 0.75485 0.76867 0.03057 0.0
O480 O 0.80914 0.6599 0.04083 0.0
O481 O 0.81707 0.78083 0.92821 0.0
O482 O 0.8734 0.68921 0.94371 0.0
O483 O 0.75711 0.68563 0.94123 0.0
Sc484 Sc 0.69878 0.32774 0.4963 0.0
Sc485 Sc 0.75597 0.25017 0.50118 0.0
Sc486 Sc 0.79343 0.33875 0.48554 0.0
O487 O 0.74956 0.30504 0.49335 0.0
C488 C 0.73186 0.36704 0.42726 0.0
C489 C 0.68266 0.2493 0.45644 0.0
C490 C 0.81673 0.27143 0.43771 0.0
C491 C 0.69306 0.27265 0.56093 0.0
C492 C 0.74618 0.38263 0.54262 0.0
C493 C 0.82378 0.2811 0.54647 0.0
O494 O 0.70532 0.34718 0.4402 0.0
O495 O 0.71657 0.23802 0.4566 0.0
O496 O 0.81038 0.30657 0.43823 0.0
O497 O 0.69339 0.30719 0.55201 0.0
O498 O 0.77814 0.36899 0.53535 0.0
O499 O 0.79455 0.26067 0.54653 0.0
O500 O 0.71955 0.38 0.51887 0.0
O501 O 0.71023 0.24755 0.54181 0.0
O502 O 0.82996 0.30615 0.52175 0.0
O503 O 0.67161 0.27817 0.47437 0.0
O504 O 0.76147 0.37416 0.44655 0.0
O505 O 0.80214 0.24842 0.46109 0.0
Sc506 Sc 0.27486 0.63799 0.49547 0.0
Sc507 Sc 0.23451 0.7273 0.49355 0.0
Sc508 Sc 0.17833 0.64615 0.48888 0.0
O509 O 0.22918 0.67083 0.49285 0.0
C510 C 0.22721 0.60164 0.43059 0.0
C511 C 0.30472 0.70673 0.44613 0.0
C512 C 0.16933 0.71321 0.43265 0.0
C513 C 0.29876 0.69962 0.55173 0.0
C514 C 0.21767 0.59407 0.54708 0.0
C515 C 0.16428 0.71407 0.54553 0.0
O516 O 0.25841 0.61352 0.4432 0.0
O517 O 0.27586 0.72767 0.44924 0.0
O518 O 0.16417 0.67904 0.44116 0.0
O519 O 0.29403 0.66455 0.54613 0.0
O520 O 0.18909 0.61312 0.53782 0.0
O521 O 0.19464 0.73164 0.53891 0.0
O522 O 0.24822 0.5951 0.52886 0.0
O523 O 0.28031 0.72483 0.53394 0.0
O524 O 0.15359 0.68555 0.52685 0.0
O525 O 0.30833 0.67586 0.4636 0.0
O526 O 0.19692 0.60374 0.44923 0.0
O527 O 0.19053 0.73521 0.45155 0.0
C528 C 0.07431 0.2071 0.14693 0.0
C529 C 0.06073 0.23752 0.168 0.0
C530 C 0.08827 0.21215 0.11091 0.0
C531 C 0.0897 0.24803 0.09423 0.0
H532 H 0.07207 0.17862 0.15758 0.0
H533 H 0.09706 0.1872 0.0958 0.0
S534 S 0.06452 0.33799 0.14107 0.0
N535 N 0.05382 0.30533 0.17227 0.0
N536 N 0.08139 0.3154 0.10415 0.0
C537 C 0.07911 0.27928 0.11628 0.0
C538 C 0.06451 0.27393 0.15335 0.0
C539 C 0.24746 0.52576 0.6214 0.0
C540 C 0.23755 0.54453 0.65491 0.0
C541 C 0.23814 0.54047 0.58626 0.0
C542 C 0.21797 0.57415 0.58324 0.0
H543 H 0.26409 0.50019 0.62223 0.0
H544 H 0.24842 0.52638 0.56128 0.0
S545 S 0.18094 0.63161 0.66207 0.0
N546 N 0.20323 0.59645 0.68294 0.0
N547 N 0.18507 0.62423 0.61636 0.0
C548 C 0.20496 0.59158 0.61637 0.0
C549 C 0.21484 0.57666 0.65242 0.0
C550 C 0.87405 0.76538 0.11434 0.0
C551 C 0.89035 0.73746 0.09143 0.0
C552 C 0.88607 0.77109 0.15134 0.0
C553 C 0.91488 0.74908 0.16708 0.0
H554 H 0.85219 0.78371 0.10341 0.0
H555 H 0.87386 0.79409 0.16715 0.0
S556 S 0.96468 0.67005 0.12014 0.0
N557 N 0.93481 0.68567 0.08799 0.0
N558 N 0.95788 0.69641 0.15777 0.0
C559 C 0.92989 0.71943 0.14534 0.0
C560 C 0.91756 0.71364 0.10744 0.0
C561 C 0.69208 0.42258 0.62466 0.0
C562 C 0.71803 0.42176 0.65484 0.0
C563 C 0.70193 0.41089 0.5886 0.0
C564 C 0.73811 0.3973 0.58083 0.0
H565 H 0.66388 0.43336 0.62842 0.0
H566 H 0.68073 0.4126 0.56664 0.0
S567 S 0.81553 0.38483 0.65056 0.0
N568 N 0.78093 0.40354 0.67504 0.0
N569 N 0.79935 0.38058 0.60711 0.0
C570 C 0.76406 0.39465 0.61096 0.0
C571 C 0.75401 0.40692 0.64794 0.0
C572 C 0.09256 0.79473 0.8409 0.0
C573 C 0.07286 0.76578 0.82241 0.0
C574 C 0.10584 0.79036 0.87777 0.0
C575 C 0.10009 0.75681 0.898 0.0
H576 H 0.09691 0.82155 0.82719 0.0
H577 H 0.1206 0.8138 0.8905 0.0
S578 S 0.05207 0.6713 0.86174 0.0
N579 N 0.04951 0.70158 0.82666 0.0
N580 N 0.07488 0.69322 0.89584 0.0
C581 C 0.08147 0.72708 0.87946 0.0
C582 C 0.06794 0.73153 0.84173 0.0
C583 C 0.70315 0.58777 0.33015 0.0
C584 C 0.73057 0.56443 0.31427 0.0
C585 C 0.70796 0.60303 0.36591 0.0
C586 C 0.74054 0.5957 0.38747 0.0
H587 H 0.67661 0.59239 0.31568 0.0
H588 H 0.68514 0.61976 0.37706 0.0
S589 S 0.82309 0.54026 0.35587 0.0
N590 N 0.79282 0.53718 0.32053 0.0
N591 N 0.8027 0.56674 0.3881 0.0
C592 C 0.76951 0.57452 0.37068 0.0
C593 C 0.76438 0.55877 0.33394 0.0
C594 C 0.9071 0.26265 0.8344 0.0
C595 C 0.91491 0.22523 0.82423 0.0
C596 C 0.90046 0.27266 0.87191 0.0
C597 C 0.90186 0.24574 0.90097 0.0
H598 H 0.90687 0.2846 0.81327 0.0
H599 H 0.89426 0.30184 0.87812 0.0
S600 S 0.92161 0.14372 0.88941 0.0
N601 N 0.92356 0.16096 0.8464 0.0
N602 N 0.91161 0.1798 0.9168 0.0
C603 C 0.90951 0.20812 0.89117 0.0
C604 C 0.91569 0.19783 0.85288 0.0
C605 C 0.27531 0.40282 0.33824 0.0
C606 C 0.24324 0.41661 0.31963 0.0
C607 C 0.27303 0.38738 0.37411 0.0
C608 C 0.23849 0.38512 0.39292 0.0
H609 H 0.30287 0.40633 0.32593 0.0
H610 H 0.29894 0.37858 0.38767 0.0
S611 S 0.14521 0.41075 0.35282 0.0
N612 N 0.17541 0.42288 0.31988 0.0
N613 N 0.17054 0.39285 0.38763 0.0
C614 C 0.20564 0.39599 0.37324 0.0
C615 C 0.20813 0.41186 0.33641 0.0
C616 C 0.12282 0.07166 0.20853 0.0
C617 C 0.14814 0.06277 0.23775 0.0
C618 C 0.08757 0.08675 0.21594 0.0
C619 C 0.0759 0.09399 0.25297 0.0
H620 H 0.12995 0.06594 0.17947 0.0
H621 H 0.0693 0.0927 0.19214 0.0
S622 S 0.13277 0.0778 0.33964 0.0
N623 N 0.16007 0.06328 0.3051 0.0
N624 N 0.09355 0.09275 0.31944 0.0
C625 C 0.10137 0.08622 0.28264 0.0
C626 C 0.13762 0.07063 0.27491 0.0
C627 C 0.38572 0.65449 0.74086 0.0
C628 C 0.41447 0.66419 0.76616 0.0
C629 C 0.36795 0.61962 0.7431 0.0
C630 C 0.37853 0.59303 0.77061 0.0
H631 H 0.37906 0.67273 0.71729 0.0
H632 H 0.34691 0.61289 0.72199 0.0
S633 S 0.44979 0.60717 0.846 0.0
N634 N 0.45071 0.64654 0.82138 0.0
N635 N 0.41719 0.58065 0.82609 0.0
C636 C 0.40527 0.6037 0.79795 0.0
C637 C 0.42333 0.63941 0.79557 0.0
C638 C 0.86369 0.8769 0.28527 0.0
C639 C 0.89772 0.89552 0.27778 0.0
C640 C 0.82912 0.8928 0.27427 0.0
C641 C 0.82812 0.92758 0.2557 0.0
H642 H 0.86399 0.84875 0.29692 0.0
H643 H 0.80352 0.87692 0.27815 0.0
S644 S 0.90892 0.98992 0.23575 0.0
N645 N 0.92787 0.95216 0.25521 0.0
N646 N 0.86322 0.98216 0.23479 0.0
C647 C 0.86171 0.94765 0.2511 0.0
C648 C 0.89655 0.93155 0.26212 0.0
C649 C 0.60892 0.36864 0.76553 0.0
C650 C 0.58939 0.39982 0.78009 0.0
C651 C 0.59193 0.33326 0.76322 0.0
C652 C 0.55481 0.32823 0.77507 0.0
H653 H 0.63692 0.37207 0.75426 0.0
H654 H 0.60662 0.3107 0.74896 0.0
S655 S 0.49289 0.40024 0.81782 0.0
N656 N 0.53245 0.42285 0.80936 0.0
N657 N 0.49985 0.35644 0.8039 0.0
C658 C 0.53595 0.3586 0.79193 0.0
C659 C 0.55343 0.3945 0.79474 0.0
C660 C 0.14251 0.90785 0.69066 0.0
C661 C 0.15211 0.92378 0.72553 0.0
C662 C 0.10543 0.89654 0.68314 0.0
C663 C 0.07681 0.9014 0.71007 0.0
H664 H 0.164 0.90253 0.66988 0.0
H665 H 0.09968 0.88215 0.65689 0.0
S666 S 0.0865 0.94986 0.80229 0.0
N667 N 0.12932 0.94886 0.78501 0.0
N668 N 0.05983 0.9294 0.77022 0.0
C669 C 0.08563 0.92088 0.74342 0.0
C670 C 0.12327 0.93145 0.7514 0.0
C671 C 0.60234 0.65813 0.22936 0.0
C672 C 0.56691 0.667 0.2144 0.0
C673 C 0.61763 0.62228 0.22477 0.0
C674 C 0.5979 0.59396 0.20522 0.0
H675 H 0.61671 0.67789 0.24766 0.0
H676 H 0.64406 0.61601 0.23876 0.0
S677 S 0.50665 0.60502 0.15585 0.0
N678 N 0.51447 0.64648 0.1754 0.0
N679 N 0.54351 0.57868 0.16653 0.0
C680 C 0.56436 0.60364 0.18665 0.0
C681 C 0.54876 0.6404 0.1913 0.0
C682 C 0.86651 0.03503 0.71005 0.0
C683 C 0.83078 0.0523 0.71095 0.0
C684 C 0.89893 0.05572 0.70316 0.0
C685 C 0.89685 0.0943 0.69597 0.0
H686 H 0.86984 0.00565 0.71747 0.0
H687 H 0.92599 0.04184 0.70554 0.0
S688 S 0.81034 0.15224 0.68969 0.0
N689 N 0.79509 0.10969 0.70027 0.0
N690 N 0.85648 0.14868 0.68607 0.0
C691 C 0.86127 0.11142 0.6931 0.0
C692 C 0.82801 0.09033 0.70075 0.0
C693 C 0.40364 0.35566 0.28943 0.0
C694 C 0.41522 0.33124 0.26049 0.0
C695 C 0.38875 0.39107 0.28157 0.0
C696 C 0.38428 0.40385 0.24436 0.0
H697 H 0.40675 0.34788 0.31876 0.0
H698 H 0.38048 0.40848 0.30516 0.0
S699 S 0.40788 0.35022 0.15788 0.0
N700 N 0.42007 0.32196 0.19276 0.0
N701 N 0.39118 0.38863 0.17792 0.0
C702 C 0.39515 0.37968 0.21491 0.0
C703 C 0.41064 0.34338 0.22298 0.0
C704 C 0.189 0.12048 0.06675 0.0
C705 C 0.21793 0.14343 0.05312 0.0
C706 C 0.19671 0.08634 0.08415 0.0
C707 C 0.23382 0.07355 0.08903 0.0
H708 H 0.15983 0.12882 0.06367 0.0
H709 H 0.1731 0.07007 0.09414 0.0
S710 S 0.31992 0.12334 0.05799 0.0
N711 N 0.28509 0.15134 0.04503 0.0
N712 N 0.30017 0.0869 0.07872 0.0
C713 C 0.26328 0.09635 0.07566 0.0
C714 C 0.25522 0.13145 0.0577 0.0
C715 C 0.26974 0.85939 0.9348 0.0
C716 C 0.24887 0.82838 0.92179 0.0
C717 C 0.27228 0.8924 0.91335 0.0
C718 C 0.25275 0.89563 0.87904 0.0
H719 H 0.28235 0.85884 0.96262 0.0
H720 H 0.28753 0.91622 0.92471 0.0
S721 S 0.19665 0.82137 0.83169 0.0
N722 N 0.21081 0.80191 0.87155 0.0
N723 N 0.21456 0.86417 0.83156 0.0
C724 C 0.23338 0.86412 0.86498 0.0
C725 C 0.23165 0.83037 0.88634 0.0
C726 C 0.59963 0.77311 0.41036 0.0
C727 C 0.59368 0.75331 0.3766 0.0
C728 C 0.6332 0.76858 0.43079 0.0
C729 C 0.66198 0.74511 0.41736 0.0
H730 H 0.57734 0.79006 0.42227 0.0
H731 H 0.63559 0.7813 0.45842 0.0
S732 S 0.66252 0.6923 0.3276 0.0
N733 N 0.62101 0.71309 0.32847 0.0
N734 N 0.68413 0.70512 0.36684 0.0
C735 C 0.65759 0.72788 0.3822 0.0
C736 C 0.62337 0.73189 0.36175 0.0
C737 C 0.80579 0.13708 0.88488 0.0
C738 C 0.77743 0.15552 0.90524 0.0
C739 C 0.79972 0.1018 0.86875 0.0
C740 C 0.76495 0.08343 0.87214 0.0
H741 H 0.83344 0.14942 0.88233 0.0
H742 H 0.82282 0.08868 0.85396 0.0
S743 S 0.67981 0.12152 0.91874 0.0
N744 N 0.71212 0.15408 0.92531 0.0
N745 N 0.70056 0.08786 0.89452 0.0
C746 C 0.73566 0.10231 0.89081 0.0
C747 C 0.74186 0.13838 0.90728 0.0
C748 C 0.33402 0.22214 0.40658 0.0
C749 C 0.33622 0.23845 0.44251 0.0
C750 C 0.36691 0.21243 0.38723 0.0
C751 C 0.40254 0.21912 0.40333 0.0
H752 H 0.30714 0.21936 0.3924 0.0
H753 H 0.36453 0.20226 0.35855 0.0
S754 S 0.42266 0.25333 0.49971 0.0
N755 N 0.37643 0.25453 0.49591 0.0
N756 N 0.43797 0.2375 0.45886 0.0
C757 C 0.40485 0.23222 0.44035 0.0
C758 C 0.37164 0.24151 0.46019 0.0
C759 C 0.78794 0.86083 0.0591 0.0
C760 C 0.76079 0.83268 0.05298 0.0
C761 C 0.77954 0.89379 0.07841 0.0
C762 C 0.74354 0.90037 0.09295 0.0
H763 H 0.81629 0.85761 0.04864 0.0
H764 H 0.80178 0.91425 0.08191 0.0
S765 S 0.66244 0.83489 0.08631 0.0
N766 N 0.69653 0.81292 0.0638 0.0
N767 N 0.68045 0.87511 0.10106 0.0
C768 C 0.71603 0.87219 0.08777 0.0
C769 C 0.72475 0.83826 0.06778 0.0
C770 C 0.60649 0.22563 0.59699 0.0
C771 C 0.59333 0.25216 0.62326 0.0
C772 C 0.64139 0.2301 0.5797 0.0
C773 C 0.66403 0.26142 0.5878 0.0
H774 H 0.58917 0.20205 0.58854 0.0
H775 H 0.64941 0.21036 0.55797 0.0
S776 S 0.64677 0.33426 0.66033 0.0
N777 N 0.60906 0.30737 0.6612 0.0
N778 N 0.67413 0.31589 0.62779 0.0
C779 C 0.65292 0.28616 0.6164 0.0
C780 C 0.61761 0.28159 0.63425 0.0
C781 C 0.34742 0.6859 0.60058 0.0
C782 C 0.33165 0.71121 0.57458 0.0
C783 C 0.38191 0.69328 0.61802 0.0
C784 C 0.40231 0.72627 0.61011 0.0
H785 H 0.33334 0.65972 0.60703 0.0
H786 H 0.39259 0.67272 0.63789 0.0
S787 S 0.37331 0.80185 0.54392 0.0
N788 N 0.33894 0.77088 0.54173 0.0
N789 N 0.4038 0.78477 0.57467 0.0
C790 C 0.38655 0.75224 0.58464 0.0
C791 C 0.35123 0.74476 0.56692 0.0
C792 C 0.89969 0.76286 0.88297 0.0
C793 C 0.90364 0.72633 0.89751 0.0
C794 C 0.91108 0.77153 0.84667 0.0
C795 C 0.92782 0.74433 0.82343 0.0
H796 H 0.88783 0.78526 0.89985 0.0
H797 H 0.90828 0.80042 0.83732 0.0
S798 S 0.94269 0.64386 0.84715 0.0
N799 N 0.92287 0.66188 0.88508 0.0
N800 N 0.94626 0.67877 0.81671 0.0
C801 C 0.93057 0.7072 0.83679 0.0
C802 C 0.91814 0.6981 0.87392 0.0
C803 C 0.69496 0.37387 0.36753 0.0
C804 C 0.72768 0.38214 0.3885 0.0
C805 C 0.68944 0.38821 0.33131 0.0
C806 C 0.71621 0.4116 0.31446 0.0
H807 H 0.67289 0.35669 0.37931 0.0
H808 H 0.66336 0.38187 0.31685 0.0
S809 S 0.80909 0.43762 0.35501 0.0
N810 N 0.78916 0.41194 0.38791 0.0
N811 N 0.77848 0.43942 0.31996 0.0
C812 C 0.75016 0.41819 0.33401 0.0
C813 C 0.75586 0.40348 0.37102 0.0
C814 C 0.02634 0.22861 0.86479 0.0
C815 C 0.04469 0.23915 0.83139 0.0
C816 C 0.03935 0.24039 0.8999 0.0
C817 C 0.07112 0.26336 0.90314 0.0
H818 H 0.00201 0.21038 0.86403 0.0
H819 H 0.02537 0.23004 0.92482 0.0
S820 S 0.12754 0.30153 0.82449 0.0
N821 N 0.09463 0.27615 0.80359 0.0
N822 N 0.1195 0.29833 0.87011 0.0
C823 C 0.08849 0.27612 0.87002 0.0
C824 C 0.07518 0.26397 0.83398 0.0
C825 C 0.24983 0.59994 0.3272 0.0
C826 C 0.23013 0.56847 0.31375 0.0
C827 C 0.24799 0.61056 0.36494 0.0
C828 C 0.2257 0.59064 0.39061 0.0
H829 H 0.26875 0.61503 0.30892 0.0
H830 H 0.26496 0.63411 0.37426 0.0
S831 S 0.16302 0.5107 0.36841 0.0
N832 N 0.1838 0.5203 0.32812 0.0
N833 N 0.17935 0.54155 0.39916 0.0
C834 C 0.20279 0.56162 0.37691 0.0
C835 C 0.20511 0.5503 0.33836 0.0
C836 C 0.86768 0.23154 0.12261 0.0
C837 C 0.88705 0.25441 0.09693 0.0
C838 C 0.87908 0.22879 0.16013 0.0
C839 C 0.91051 0.24861 0.17351 0.0
H840 H 0.84423 0.21442 0.11337 0.0
H841 H 0.86477 0.2089 0.17811 0.0
S842 S 0.96724 0.31687 0.11916 0.0
N843 N 0.936 0.30101 0.08851 0.0
N844 N 0.95819 0.29543 0.1593 0.0
C845 C 0.92807 0.27427 0.14908 0.0
C846 C 0.91621 0.2772 0.11066 0.0
C847 C 0.28688 0.41091 0.6346 0.0
C848 C 0.26008 0.41226 0.66353 0.0
C849 C 0.2765 0.40282 0.59746 0.0
C850 C 0.23892 0.39528 0.58757 0.0
H851 H 0.316 0.41784 0.64016 0.0
H852 H 0.29834 0.40241 0.5764 0.0
S853 S 0.15832 0.3916 0.65336 0.0
N854 N 0.19461 0.40283 0.68022 0.0
N855 N 0.17505 0.38734 0.61036 0.0
C856 C 0.21198 0.39505 0.61644 0.0
C857 C 0.22258 0.40344 0.65437 0.0
C858 C 0.07954 0.71359 0.10975 0.0
C859 C 0.09726 0.74351 0.09089 0.0
C860 C 0.06327 0.71895 0.14534 0.0
C861 C 0.06468 0.75424 0.16308 0.0
H862 H 0.07705 0.68631 0.09638 0.0
H863 H 0.04773 0.69611 0.15797 0.0
S864 S 0.11283 0.83975 0.12862 0.0
N865 N 0.11905 0.8083 0.09506 0.0
N866 N 0.08811 0.81821 0.1612 0.0
C867 C 0.08428 0.78351 0.14557 0.0
C868 C 0.10065 0.77821 0.10963 0.0
C869 C 0.69198 0.57051 0.62931 0.0
C870 C 0.71981 0.56471 0.65704 0.0
C871 C 0.70134 0.58065 0.59258 0.0
C872 C 0.73895 0.58592 0.58185 0.0
H873 H 0.6626 0.56586 0.63547 0.0
H874 H 0.67862 0.58463 0.57253 0.0
S875 S 0.8225 0.5775 0.64459 0.0
N876 N 0.78662 0.5671 0.67183 0.0
N877 N 0.80426 0.58664 0.60275 0.0
C878 C 0.76711 0.58145 0.60958 0.0
C879 C 0.75754 0.57087 0.64711 0.0
C880 C 0.82542 0.8717 0.73977 0.0
C881 C 0.81358 0.90386 0.72014 0.0
C882 C 0.86142 0.8572 0.73485 0.0
C883 C 0.88681 0.87416 0.70992 0.0
H884 H 0.80802 0.85976 0.76163 0.0
H885 H 0.8701 0.83371 0.75231 0.0
S886 S 0.86647 0.95361 0.64562 0.0
N887 N 0.82759 0.94848 0.67021 0.0
N888 N 0.89561 0.92058 0.66065 0.0
C889 C 0.87383 0.90335 0.68669 0.0
C890 C 0.83696 0.91832 0.69179 0.0
C891 C 0.56785 0.33587 0.21122 0.0
C892 C 0.56233 0.32925 0.24987 0.0
C893 C 0.58085 0.37096 0.19834 0.0
C894 C 0.5879 0.40075 0.22361 0.0
H895 H 0.56056 0.31449 0.19073 0.0
H896 H 0.58432 0.3751 0.16835 0.0
S897 S 0.58199 0.39616 0.32803 0.0
N898 N 0.56929 0.35405 0.31345 0.0
N899 N 0.59111 0.41999 0.28942 0.0
C900 C 0.58388 0.39379 0.2624 0.0
C901 C 0.5719 0.35804 0.27544 0.0
C902 C 0.12047 0.04303 0.70392 0.0
C903 C 0.15201 0.06024 0.7207 0.0
C904 C 0.0864 0.06252 0.69979 0.0
C905 C 0.0827 0.09933 0.71347 0.0
H906 H 0.12159 0.01362 0.69591 0.0
H907 H 0.06229 0.04795 0.68812 0.0
S908 S 0.15773 0.15773 0.75662 0.0
N909 N 0.17823 0.11683 0.74834 0.0
N910 N 0.11397 0.1534 0.74147 0.0
C911 C 0.11454 0.11742 0.72853 0.0
C912 C 0.14935 0.09785 0.73195 0.0
C913 C 0.39455 0.61081 0.19308 0.0
C914 C 0.37382 0.59396 0.22209 0.0
C915 C 0.41191 0.64589 0.19872 0.0
C916 C 0.40831 0.66498 0.23322 0.0
H917 H 0.39934 0.59586 0.16696 0.0
H918 H 0.43051 0.65661 0.17728 0.0
S919 S 0.35094 0.63659 0.31475 0.0
N920 N 0.34622 0.60187 0.28423 0.0
N921 N 0.37848 0.66753 0.29424 0.0
C922 C 0.38465 0.65017 0.26069 0.0
C923 C 0.36751 0.61462 0.25531 0.0
C924 C 0.8252 0.104 0.24036 0.0
C925 C 0.81361 0.07214 0.26017 0.0
C926 C 0.86024 0.12006 0.24741 0.0
C927 C 0.88496 0.10461 0.27438 0.0
H928 H 0.80849 0.11458 0.21708 0.0
H929 H 0.86893 0.14351 0.23009 0.0
S930 S 0.86617 0.02322 0.33609 0.0
N931 N 0.82791 0.02723 0.30975 0.0
N932 N 0.89418 0.0579 0.32336 0.0
C933 C 0.8725 0.0747 0.29662 0.0
C934 C 0.83662 0.05826 0.28936 0.0
C935 C 0.39679 0.33579 0.78372 0.0
C936 C 0.41866 0.32993 0.75157 0.0
C937 C 0.3847 0.37212 0.79343 0.0
C938 C 0.39478 0.40367 0.77167 0.0
H939 H 0.38795 0.31212 0.80063 0.0
H940 H 0.36605 0.37519 0.81715 0.0
S941 S 0.45864 0.40358 0.68953 0.0
N942 N 0.45417 0.35891 0.70096 0.0
N943 N 0.43279 0.42691 0.72004 0.0
C944 C 0.41929 0.39825 0.74133 0.0
C945 C 0.43083 0.36144 0.73102 0.0
C946 C 0.14908 0.88139 0.23746 0.0
C947 C 0.15966 0.91607 0.25299 0.0
C948 C 0.11293 0.86744 0.24252 0.0
C949 C 0.08587 0.88787 0.26274 0.0
H950 H 0.16828 0.86584 0.21969 0.0
H951 H 0.10581 0.84075 0.22975 0.0
S952 S 0.1004 0.97823 0.31227 0.0
N953 N 0.1412 0.96917 0.29228 0.0
N954 N 0.07278 0.9425 0.30146 0.0
C955 C 0.0967 0.92116 0.28078 0.0
C956 C 0.13379 0.93542 0.27591 0.0
C957 C 0.55398 0.64194 0.79855 0.0
C958 C 0.57246 0.66713 0.77436 0.0
C959 C 0.56771 0.60524 0.80401 0.0
C960 C 0.6003 0.59326 0.78555 0.0
H961 H 0.52698 0.64932 0.81027 0.0
H962 H 0.55155 0.58558 0.82057 0.0
S963 S 0.66279 0.65082 0.72591 0.0
N964 N 0.62764 0.67922 0.73656 0.0
N965 N 0.65386 0.61073 0.74746 0.0
C966 C 0.62102 0.61942 0.76475 0.0
C967 C 0.60706 0.65641 0.7591 0.0
C968 C 0.78994 0.88004 0.87396 0.0
C969 C 0.75261 0.89311 0.87291 0.0
C970 C 0.79881 0.84425 0.88739 0.0
C971 C 0.77079 0.82001 0.90088 0.0
H972 H 0.8128 0.89768 0.86458 0.0
H973 H 0.82821 0.83639 0.88876 0.0
S974 S 0.66806 0.83875 0.89964 0.0
N975 N 0.68691 0.8776 0.88293 0.0
N976 N 0.70358 0.81015 0.90863 0.0
C977 C 0.73304 0.83179 0.8979 0.0
C978 C 0.72397 0.86837 0.88394 0.0
C979 C 0.74037 0.1201 0.03684 0.0
C980 C 0.75272 0.153 0.05506 0.0
C981 C 0.73337 0.08727 0.05732 0.0
C982 C 0.73977 0.08637 0.09629 0.0
H983 H 0.73782 0.11932 0.00642 0.0
H984 H 0.72516 0.06198 0.04238 0.0
S985 S 0.76929 0.16601 0.15705 0.0
N986 N 0.76833 0.18367 0.11407 0.0
N987 N 0.75628 0.12163 0.15274 0.0
C988 C 0.75041 0.11961 0.11494 0.0
C989 C 0.75664 0.15314 0.09421 0.0
C990 C 0.39117 0.28386 0.60543 0.0
C991 C 0.40249 0.2461 0.60896 0.0
C992 C 0.35531 0.29338 0.5926 0.0
C993 C 0.32915 0.26558 0.58212 0.0
H994 H 0.41011 0.30656 0.61278 0.0
H995 H 0.34872 0.32298 0.58959 0.0
S996 S 0.34371 0.16227 0.58897 0.0
N997 N 0.3839 0.18053 0.60335 0.0
N998 N 0.31632 0.19837 0.57861 0.0
C999 C 0.33954 0.22757 0.58685 0.0
C1000 C 0.37622 0.21786 0.60024 0.0
C1001 C 0.22966 0.82709 0.11158 0.0
C1002 C 0.25028 0.81494 0.0803 0.0
C1003 C 0.23607 0.86231 0.12742 0.0
C1004 C 0.2636 0.8864 0.11286 0.0
H1005 H 0.20613 0.81076 0.1217 0.0
H1006 H 0.21771 0.87172 0.14978 0.0
S1007 S 0.33096 0.86446 0.0372 0.0
N1008 N 0.30364 0.82703 0.03942 0.0
N1009 N 0.31599 0.89353 0.07019 0.0
C1010 C 0.28766 0.87285 0.08495 0.0
C1011 C 0.28098 0.83684 0.06845 0.0
C1012 C 0.64704 0.70318 0.6034 0.0
C1013 C 0.66039 0.72778 0.57569 0.0
C1014 C 0.61293 0.70979 0.62123 0.0
C1015 C 0.5907 0.74135 0.61218 0.0
H1016 H 0.66227 0.6776 0.61018 0.0
H1017 H 0.60362 0.68947 0.64185 0.0
S1018 S 0.61473 0.81638 0.54422 0.0
N1019 N 0.65021 0.78647 0.54185 0.0
N1020 N 0.58587 0.79919 0.57606 0.0
C1021 C 0.6048 0.76759 0.58639 0.0
C1022 C 0.63975 0.76076 0.568 0.0
C1023 C 0.23784 0.13745 0.9086 0.0
C1024 C 0.20305 0.15569 0.90323 0.0
C1025 C 0.24481 0.10183 0.89339 0.0
C1026 C 0.21733 0.08281 0.87208 0.0
H1027 H 0.25956 0.15003 0.92596 0.0
H1028 H 0.27192 0.08899 0.89881 0.0
S1029 S 0.1227 0.11992 0.84646 0.0
N1030 N 0.1417 0.15323 0.87268 0.0
N1031 N 0.15463 0.08632 0.84406 0.0
C1032 C 0.18281 0.10132 0.86527 0.0
C1033 C 0.17579 0.13773 0.8807 0.0
C1034 C 0.36021 0.68998 0.40816 0.0
C1035 C 0.33697 0.71823 0.42303 0.0
C1036 C 0.39396 0.69865 0.39066 0.0
C1037 C 0.40611 0.73608 0.38692 0.0
H1038 H 0.35249 0.66061 0.41043 0.0
H1039 H 0.41046 0.67549 0.37976 0.0
S1040 S 0.35526 0.82076 0.42121 0.0
N1041 N 0.32813 0.78521 0.43325 0.0
N1042 N 0.39166 0.80198 0.39952 0.0
C1043 C 0.38289 0.76486 0.40134 0.0
C1044 C 0.34826 0.75585 0.4194 0.0
C1045 C 0.61775 0.23685 0.37533 0.0
C1046 C 0.58645 0.22022 0.39257 0.0
C1047 C 0.65138 0.24194 0.39518 0.0
C1048 C 0.65445 0.23089 0.4329 0.0
H1049 H 0.61557 0.24774 0.34691 0.0
H1050 H 0.67389 0.25749 0.382 0.0
S1051 S 0.58184 0.18339 0.48975 0.0
N1052 N 0.5616 0.18986 0.44824 0.0
N1053 N 0.62478 0.20047 0.48606 0.0
C1054 C 0.62428 0.21203 0.44965 0.0
C1055 C 0.59018 0.20632 0.42927 0.0
C1056 C 0.12458 0.27856 0.38458 0.0
C1057 C 0.14104 0.25336 0.41051 0.0
C1058 C 0.09677 0.26687 0.3593 0.0
C1059 C 0.08421 0.22945 0.35873 0.0
H1060 H 0.13241 0.30798 0.3844 0.0
H1061 H 0.08434 0.28774 0.3408 0.0
S1062 S 0.12128 0.15123 0.41793 0.0
N1063 N 0.14501 0.18853 0.43196 0.0
N1064 N 0.0929 0.16627 0.38425 0.0
C1065 C 0.10202 0.20336 0.38299 0.0
C1066 C 0.13039 0.21537 0.40886 0.0
C1067 C 0.25488 0.63585 0.88823 0.0
C1068 C 0.21722 0.64012 0.89897 0.0
C1069 C 0.26569 0.60727 0.86379 0.0
C1070 C 0.23936 0.58165 0.849 0.0
H1071 H 0.27663 0.65375 0.89988 0.0
H1072 H 0.29531 0.60459 0.85747 0.0
S1073 S 0.13626 0.58446 0.86291 0.0
N1074 N 0.15261 0.61936 0.88889 0.0
N1075 N 0.17335 0.56514 0.84296 0.0
C1076 C 0.20118 0.58733 0.85693 0.0
C1077 C 0.19002 0.61667 0.88193 0.0
C1078 C 0.89573 0.71041 0.35829 0.0
C1079 C 0.91254 0.74596 0.36196 0.0
C1080 C 0.8669 0.69917 0.38246 0.0
C1081 C 0.85347 0.72321 0.41095 0.0
H1082 H 0.90522 0.69084 0.33697 0.0
H1083 H 0.8552 0.67128 0.37888 0.0
S1084 S 0.88687 0.81991 0.4316 0.0
N1085 N 0.91255 0.80578 0.3958 0.0
N1086 N 0.85874 0.78444 0.44103 0.0
C1087 C 0.86944 0.75913 0.41442 0.0
C1088 C 0.89889 0.77053 0.39004 0.0
C1089 C 0.77767 0.40143 0.86214 0.0
C1090 C 0.74142 0.39943 0.84663 0.0
C1091 C 0.78973 0.37512 0.88888 0.0
C1092 C 0.76603 0.34574 0.90067 0.0
H1093 H 0.79605 0.42463 0.8552 0.0
H1094 H 0.81745 0.37853 0.90113 0.0
S1095 S 0.67027 0.32554 0.86361 0.0
N1096 N 0.68336 0.36401 0.84139 0.0
N1097 N 0.70586 0.31423 0.89142 0.0
C1098 C 0.73059 0.34207 0.88321 0.0
C1099 C 0.71831 0.36904 0.85624 0.0
C1100 C 0.1182 0.69945 0.59563 0.0
C1101 C 0.13972 0.72642 0.57638 0.0
C1102 C 0.0914 0.71017 0.62215 0.0
C1103 C 0.08469 0.74828 0.6297 0.0
H1104 H 0.12147 0.66977 0.58951 0.0
H1105 H 0.07456 0.68862 0.63537 0.0
S1106 S 0.13591 0.82967 0.58987 0.0
N1107 N 0.15472 0.79263 0.5691 0.0
N1108 N 0.10362 0.81297 0.61848 0.0
C1109 C 0.10717 0.77547 0.61203 0.0
C1110 C 0.13495 0.76449 0.5855 0.0
C1111 C 0.76881 0.58066 0.11636 0.0
C1112 C 0.73027 0.57807 0.12398 0.0
C1113 C 0.78275 0.60874 0.09281 0.0
C1114 C 0.75875 0.63553 0.07586 0.0
H1115 H 0.78835 0.56011 0.12768 0.0
H1116 H 0.81257 0.60853 0.08701 0.0
S1117 S 0.65603 0.64435 0.09153 0.0
N1118 N 0.66867 0.60706 0.11619 0.0
N1119 N 0.69483 0.65984 0.07171 0.0
C1120 C 0.72033 0.6345 0.08494 0.0
C1121 C 0.70611 0.60578 0.10897 0.0
C1122 C 0.89047 0.26952 0.56274 0.0
C1123 C 0.85312 0.27354 0.57448 0.0
C1124 C 0.91864 0.25932 0.58834 0.0
C1125 C 0.91043 0.25385 0.62656 0.0
H1126 H 0.8977 0.27289 0.53335 0.0
H1127 H 0.94694 0.25514 0.57807 0.0
S1128 S 0.81734 0.26372 0.67161 0.0
N1129 N 0.8094 0.27294 0.62667 0.0
N1130 N 0.86277 0.25474 0.67528 0.0
C1131 C 0.87346 0.25937 0.63893 0.0
C1132 C 0.84461 0.26891 0.61268 0.0
C1133 C 0.21747 0.37932 0.13319 0.0
C1134 C 0.25433 0.39333 0.13222 0.0
C1135 C 0.20556 0.35151 0.10814 0.0
C1136 C 0.22993 0.33651 0.0809 0.0
H1137 H 0.19709 0.39074 0.15263 0.0
H1138 H 0.17644 0.34279 0.10924 0.0
S1139 S 0.33078 0.35952 0.06978 0.0
N1140 N 0.31649 0.38697 0.10437 0.0
N1141 N 0.29369 0.33476 0.0569 0.0
C1142 C 0.26762 0.3481 0.08131 0.0
C1143 C 0.2799 0.37654 0.10701 0.0
C1144 C 0.35324 0.09361 0.26619 0.0
C1145 C 0.34 0.09099 0.22896 0.0
C1146 C 0.38227 0.11811 0.27574 0.0
C1147 C 0.39916 0.14124 0.24856 0.0
H1148 H 0.34246 0.07533 0.28794 0.0
H1149 H 0.39217 0.11815 0.30465 0.0
S1150 S 0.37073 0.14969 0.14837 0.0
N1151 N 0.34284 0.11699 0.16554 0.0
N1152 N 0.39777 0.1632 0.1838 0.0
C1153 C 0.38441 0.14108 0.21183 0.0
C1154 C 0.35478 0.11588 0.20195 0.0
C1155 C 0.3578 0.89965 0.71073 0.0
C1156 C 0.34852 0.91039 0.74752 0.0
C1157 C 0.38443 0.8714 0.70418 0.0
C1158 C 0.40259 0.85254 0.73418 0.0
H1159 H 0.3452 0.91387 0.68681 0.0
H1160 H 0.39125 0.86487 0.67523 0.0
S1161 S 0.38416 0.86728 0.83601 0.0
N1162 N 0.35672 0.89797 0.8144 0.0
N1163 N 0.40667 0.84486 0.80226 0.0
C1164 C 0.39215 0.86197 0.77119 0.0
C1165 C 0.3652 0.8909 0.7778 0.0
C1166 C 0.6067 0.89247 0.2 0.0
C1167 C 0.63232 0.90495 0.22777 0.0
C1168 C 0.57894 0.86613 0.20834 0.0
C1169 C 0.57564 0.85161 0.2448 0.0
H1170 H 0.60749 0.90368 0.17167 0.0
H1171 H 0.55906 0.85825 0.18651 0.0
S1172 S 0.63848 0.87078 0.32637 0.0
N1173 N 0.65463 0.89775 0.29238 0.0
N1174 N 0.60238 0.84811 0.30793 0.0
C1175 C 0.60221 0.86215 0.27233 0.0
C1176 C 0.63062 0.88881 0.26383 0.0
C1177 C 0.63324 0.09754 0.72349 0.0
C1178 C 0.64024 0.08562 0.76055 0.0
C1179 C 0.60508 0.12372 0.71542 0.0
C1180 C 0.58241 0.13916 0.74397 0.0
H1181 H 0.64893 0.08589 0.70022 0.0
H1182 H 0.60061 0.13111 0.68614 0.0
S1183 S 0.59203 0.12075 0.8464 0.0
N1184 N 0.62433 0.09392 0.8268 0.0
N1185 N 0.57108 0.143 0.81131 0.0
C1186 C 0.59032 0.12907 0.78146 0.0
C1187 C 0.61927 0.10239 0.78978 0.0
C1188 C 0.85096 0.75051 0.59412 0.0
C1189 C 0.85013 0.71378 0.57963 0.0
C1190 C 0.87897 0.76165 0.61934 0.0
C1191 C 0.90724 0.73652 0.63132 0.0
H1192 H 0.83081 0.77144 0.58477 0.0
H1193 H 0.87904 0.79067 0.62868 0.0
S1194 S 0.91451 0.63562 0.60631 0.0
N1195 N 0.87755 0.65091 0.58246 0.0
N1196 N 0.93053 0.67227 0.63 0.0
C1197 C 0.90534 0.69901 0.61925 0.0
C1198 C 0.87677 0.68757 0.59328 0.0
C1199 C 0.78136 0.36494 0.09804 0.0
C1200 C 0.75707 0.34622 0.07275 0.0
C1201 C 0.7679 0.39203 0.12311 0.0
C1202 C 0.72967 0.40166 0.1237 0.0
H1203 H 0.81128 0.35931 0.09801 0.0
H1204 H 0.78786 0.40647 0.14114 0.0
S1205 S 0.65351 0.35781 0.06689 0.0
N1206 N 0.69227 0.33697 0.05241 0.0
N1207 N 0.66698 0.38787 0.09969 0.0
C1208 C 0.70471 0.38186 0.10004 0.0
C1209 C 0.71839 0.3541 0.07459 0.0
C1210 C 0.11071 0.22092 0.6279 0.0
C1211 C 0.08203 0.24599 0.63866 0.0
C1212 C 0.13737 0.23106 0.60117 0.0
C1213 C 0.13624 0.2666 0.58403 0.0
H1214 H 0.11174 0.19262 0.63916 0.0
H1215 H 0.15796 0.21026 0.59277 0.0
S1216 S 0.07021 0.34447 0.60656 0.0
N1217 N 0.05646 0.3092 0.63326 0.0
N1218 N 0.10681 0.32861 0.58305 0.0
C1219 C 0.10931 0.29291 0.5965 0.0
C1220 C 0.08222 0.28256 0.62392 0.0
C1221 C 0.2066 0.57588 0.11035 0.0
C1222 C 0.24375 0.56957 0.12208 0.0
C1223 C 0.19807 0.60422 0.08426 0.0
C1224 C 0.22633 0.62765 0.06947 0.0
H1225 H 0.18415 0.55823 0.12065 0.0
H1226 H 0.16904 0.60769 0.07561 0.0
S1227 S 0.32775 0.62444 0.09449 0.0
N1228 N 0.30874 0.59023 0.11919 0.0
N1229 N 0.29282 0.64363 0.07045 0.0
C1230 C 0.26347 0.62234 0.08216 0.0
C1231 C 0.27214 0.59325 0.10836 0.0
C1232 C 0.8521 0.27626 0.37771 0.0
C1233 C 0.84645 0.25819 0.4124 0.0
C1234 C 0.88281 0.26713 0.35508 0.0
C1235 C 0.90921 0.23988 0.36653 0.0
H1236 H 0.83271 0.29779 0.36809 0.0
H1237 H 0.88565 0.2814 0.32832 0.0
S1238 S 0.90844 0.18674 0.45673 0.0
N1239 N 0.87036 0.21319 0.45808 0.0
N1240 N 0.9284 0.19619 0.41607 0.0
C1241 C 0.90402 0.22196 0.40156 0.0
C1242 C 0.87252 0.23101 0.42431 0.0
C1243 C 0.19516 0.36931 0.88954 0.0
C1244 C 0.222 0.34742 0.90896 0.0
C1245 C 0.2061 0.39676 0.86368 0.0
C1246 C 0.24426 0.40375 0.85717 0.0
H1247 H 0.16545 0.36555 0.89475 0.0
H1248 H 0.18466 0.41359 0.8499 0.0
S1249 S 0.32537 0.35251 0.89887 0.0
N1250 N 0.28817 0.33297 0.91819 0.0
N1251 N 0.30889 0.38523 0.87021 0.0
C1252 C 0.27133 0.38126 0.87548 0.0
C1253 C 0.26016 0.35285 0.90121 0.0
C1254 C 0.13182 0.7649 0.40402 0.0
C1255 C 0.1462 0.72826 0.4017 0.0
C1256 C 0.10364 0.77701 0.37927 0.0
C1257 C 0.0889 0.7529 0.35129 0.0
H1258 H 0.14071 0.78359 0.42646 0.0
H1259 H 0.09224 0.80497 0.38336 0.0
S1260 S 0.12307 0.65673 0.32906 0.0
N1261 N 0.14804 0.66979 0.36612 0.0
N1262 N 0.09498 0.69251 0.31943 0.0
C1263 C 0.10532 0.71719 0.34684 0.0
C1264 C 0.13403 0.70489 0.37208 0.0
C1265 C 0.78248 0.57581 0.86525 0.0
C1266 C 0.7467 0.57617 0.84879 0.0
C1267 C 0.79221 0.60254 0.89257 0.0
C1268 C 0.76645 0.63049 0.90416 0.0
H1269 H 0.80226 0.55365 0.85849 0.0
H1270 H 0.81985 0.60057 0.90536 0.0
S1271 S 0.67041 0.64517 0.86525 0.0
N1272 N 0.6865 0.60782 0.84288 0.0
N1273 N 0.70459 0.65843 0.89395 0.0
C1274 C 0.73127 0.63226 0.88593 0.0
C1275 C 0.72143 0.60492 0.85834 0.0
C1276 C 0.59327 0.87302 0.71079 0.0
C1277 C 0.57389 0.85581 0.74061 0.0
C1278 C 0.62033 0.90075 0.71749 0.0
C1279 C 0.62874 0.91274 0.75426 0.0
H1280 H 0.5875 0.86503 0.68188 0.0
H1281 H 0.63427 0.9133 0.69359 0.0
S1282 S 0.58663 0.8758 0.84233 0.0
N1283 N 0.56556 0.85209 0.80832 0.0
N1284 N 0.61634 0.90422 0.82117 0.0
C1285 C 0.60994 0.89533 0.78445 0.0
C1286 C 0.58261 0.86684 0.77757 0.0
C1287 C 0.59318 0.13443 0.21638 0.0
C1288 C 0.56996 0.12809 0.24756 0.0
C1289 C 0.62033 0.10773 0.20587 0.0
C1290 C 0.62512 0.07416 0.22643 0.0
H1291 H 0.59101 0.16044 0.20068 0.0
H1292 H 0.63822 0.11371 0.18208 0.0
S1293 S 0.56757 0.04165 0.30646 0.0
N1294 N 0.55075 0.08364 0.29601 0.0
N1295 N 0.60212 0.03435 0.27663 0.0
C1296 C 0.60114 0.06693 0.2566 0.0
C1297 C 0.57342 0.09366 0.26703 0.0
C1298 C 0.35742 0.10756 0.77449 0.0
C1299 C 0.34486 0.08284 0.74602 0.0
C1300 C 0.38688 0.13269 0.76835 0.0
C1301 C 0.40522 0.13411 0.73352 0.0
H1302 H 0.34495 0.10705 0.80221 0.0
H1303 H 0.39589 0.15048 0.79147 0.0
S1304 S 0.38079 0.0782 0.64828 0.0
N1305 N 0.35141 0.06335 0.68072 0.0
N1306 N 0.40664 0.11076 0.66897 0.0
C1307 C 0.39194 0.11073 0.7042 0.0
C1308 C 0.36177 0.08516 0.71045 0.0
C1309 C 0.38232 0.8741 0.28237 0.0
C1310 C 0.40099 0.85551 0.25267 0.0
C1311 C 0.3568 0.90337 0.27536 0.0
C1312 C 0.34951 0.91539 0.23848 0.0
H1313 H 0.388 0.86655 0.31139 0.0
H1314 H 0.34375 0.91747 0.29896 0.0
S1315 S 0.38695 0.87329 0.15056 0.0
N1316 N 0.40737 0.84925 0.18475 0.0
N1317 N 0.35973 0.90427 0.17169 0.0
C1318 C 0.36647 0.89593 0.20848 0.0
C1319 C 0.39208 0.86595 0.21553 0.0
loop_
_geom_bond_atom_site_label_1
_geom_bond_atom_site_label_2
_geom_bond_distance
_geom_bond_site_symmetry_2
_ccdc_geom_bond_type
Sc0 O3 2.025 . S
Sc0 O10 2.105 1_455 S
Sc0 O13 2.105 . S
Sc0 O16 2.105 . S
Sc0 O19 2.105 1_455 S
Sc1 O3 2.025 . S
Sc1 O11 2.105 1_455 S
Sc1 O15 2.105 . S
Sc1 O17 2.105 . S
Sc1 O21 2.105 1_455 S
Sc2 O3 2.025 . S
Sc2 O12 2.105 1_455 S
Sc2 O14 2.105 . S
Sc2 O18 2.105 . S
Sc2 O20 2.105 1_455 S
O3 Sc0 2.025 . S
O3 Sc1 2.025 . S
O3 Sc2 2.025 . S
C4 O10 1.268 . S
C4 O20 1.268 . S
C5 O11 1.268 . S
C5 O19 1.268 . S
C6 O12 1.268 . S
C6 O21 1.268 . S
C7 O13 1.268 . S
C7 O17 1.268 . S
C8 O14 1.268 . S
C8 O16 1.268 . S
C9 O15 1.268 . S
C9 O18 1.268 . S
O10 Sc0 2.105 1_655 S
O10 C4 1.268 . S
O11 Sc1 2.105 1_655 S
O11 C5 1.268 . S
O12 Sc2 2.105 1_655 S
O12 C6 1.268 . S
O13 Sc0 2.105 . S
O13 C7 1.268 . S
O14 Sc2 2.105 . S
O14 C8 1.268 . S
O15 Sc1 2.105 . S
O15 C9 1.268 . S
O16 Sc0 2.105 . S
O16 C8 1.268 . S
O17 Sc1 2.105 . S
O17 C7 1.268 . S
O18 Sc2 2.105 . S
O18 C9 1.268 . S
O19 Sc0 2.105 1_655 S
O19 C5 1.268 . S
O20 Sc2 2.105 1_655 S
O20 C4 1.268 . S
O21 Sc1 2.105 1_655 S
O21 C6 1.268 . S
Sc22 O25 2.025 . S
Sc22 O32 2.105 . S
Sc22 O35 2.105 . S
Sc22 O38 2.105 . S
Sc22 O41 2.105 . S
Sc23 O25 2.025 . S
Sc23 O33 2.105 . S
Sc23 O37 2.105 . S
Sc23 O39 2.105 . S
Sc23 O43 2.105 . S
Sc24 O25 2.025 . S
Sc24 O34 2.105 . S
Sc24 O36 2.105 . S
Sc24 O40 2.105 . S
Sc24 O42 2.105 . S
O25 Sc22 2.025 . S
O25 Sc23 2.025 . S
O25 Sc24 2.025 . S
C26 O32 1.268 . S
C26 O42 1.268 . S
C27 O33 1.268 . S
C27 O41 1.268 . S
C28 O34 1.268 . S
C28 O43 1.268 . S
C29 O35 1.268 . S
C29 O39 1.268 . S
C30 O36 1.268 . S
C30 O38 1.268 . S
C31 O37 1.268 . S
C31 O40 1.268 . S
O32 Sc22 2.105 . S
O32 C26 1.268 . S
O33 Sc23 2.105 . S
O33 C27 1.268 . S
O34 Sc24 2.105 . S
O34 C28 1.268 . S
O35 Sc22 2.105 . S
O35 C29 1.268 . S
O36 Sc24 2.105 . S
O36 C30 1.268 . S
O37 Sc23 2.105 . S
O37 C31 1.268 . S
O38 Sc22 2.105 . S
O38 C30 1.268 . S
O39 Sc23 2.105 . S
O39 C29 1.268 . S
O40 Sc24 2.105 . S
O40 C31 1.268 . S
O41 Sc22 2.105 . S
O41 C27 1.268 . S
O42 Sc24 2.105 . S
O42 C26 1.268 . S
O43 Sc23 2.105 . S
O43 C28 1.268 . S
Sc44 O47 2.025 . S
Sc44 O54 2.105 . S
Sc44 O57 2.105 1_455 S
Sc44 O60 2.105 1_455 S
Sc44 O63 2.105 . S
Sc45 O47 2.025 . S
Sc45 O55 2.105 . S
Sc45 O59 2.105 1_455 S
Sc45 O61 2.105 1_455 S
Sc45 O65 2.105 . S
Sc46 O47 2.025 . S
Sc46 O56 2.105 . S
Sc46 O58 2.105 1_455 S
Sc46 O62 2.105 1_455 S
Sc46 O64 2.105 . S
O47 Sc44 2.025 . S
O47 Sc45 2.025 . S
O47 Sc46 2.025 . S
C48 O54 1.268 . S
C48 O64 1.268 . S
C49 O55 1.268 . S
C49 O63 1.268 . S
C50 O56 1.268 . S
C50 O65 1.268 . S
C51 O57 1.268 . S
C51 O61 1.268 . S
C52 O58 1.268 . S
C52 O60 1.268 . S
C53 O59 1.268 . S
C53 O62 1.268 . S
O54 Sc44 2.105 . S
O54 C48 1.268 . S
O55 Sc45 2.105 . S
O55 C49 1.268 . S
O56 Sc46 2.105 . S
O56 C50 1.268 . S
O57 Sc44 2.105 1_655 S
O57 C51 1.268 . S
O58 Sc46 2.105 1_655 S
O58 C52 1.268 . S
O59 Sc45 2.105 1_655 S
O59 C53 1.268 . S
O60 Sc44 2.105 1_655 S
O60 C52 1.268 . S
O61 Sc45 2.105 1_655 S
O61 C51 1.268 . S
O62 Sc46 2.105 1_655 S
O62 C53 1.268 . S
O63 Sc44 2.105 . S
O63 C49 1.268 . S
O64 Sc46 2.105 . S
O64 C48 1.268 . S
O65 Sc45 2.105 . S
O65 C50 1.268 . S
Sc66 O69 2.025 . S
Sc66 O76 2.105 . S
Sc66 O79 2.105 . S
Sc66 O82 2.105 . S
Sc66 O85 2.105 . S
Sc67 O69 2.025 . S
Sc67 O77 2.105 . S
Sc67 O81 2.105 . S
Sc67 O83 2.105 . S
Sc67 O87 2.105 . S
Sc68 O69 2.025 . S
Sc68 O78 2.105 . S
Sc68 O80 2.105 . S
Sc68 O84 2.105 . S
Sc68 O86 2.105 . S
O69 Sc66 2.025 . S
O69 Sc67 2.025 . S
O69 Sc68 2.025 . S
C70 O76 1.268 . S
C70 O86 1.268 . S
C71 O77 1.268 . S
C71 O85 1.268 . S
C72 O78 1.268 . S
C72 O87 1.268 . S
C73 O79 1.268 . S
C73 O83 1.268 . S
C74 O80 1.268 . S
C74 O82 1.268 . S
C75 O81 1.268 . S
C75 O84 1.268 . S
O76 Sc66 2.105 . S
O76 C70 1.268 . S
O77 Sc67 2.105 . S
O77 C71 1.268 . S
O78 Sc68 2.105 . S
O78 C72 1.268 . S
O79 Sc66 2.105 . S
O79 C73 1.268 . S
O80 Sc68 2.105 . S
O80 C74 1.268 . S
O81 Sc67 2.105 . S
O81 C75 1.268 . S
O82 Sc66 2.105 . S
O82 C74 1.268 . S
O83 Sc67 2.105 . S
O83 C73 1.268 . S
O84 Sc68 2.105 . S
O84 C75 1.268 . S
O85 Sc66 2.105 . S
O85 C71 1.268 . S
O86 Sc68 2.105 . S
O86 C70 1.268 . S
O87 Sc67 2.105 . S
O87 C72 1.268 . S
Sc88 O91 2.025 . S
Sc88 O98 2.105 . S
Sc88 O101 2.105 1_455 S
Sc88 O104 2.105 1_455 S
Sc88 O107 2.105 . S
Sc89 O91 2.025 . S
Sc89 O99 2.105 . S
Sc89 O103 2.105 1_455 S
Sc89 O105 2.105 1_455 S
Sc89 O109 2.105 . S
Sc90 O91 2.025 . S
Sc90 O100 2.105 . S
Sc90 O102 2.105 1_455 S
Sc90 O106 2.105 1_455 S
Sc90 O108 2.105 . S
O91 Sc88 2.025 . S
O91 Sc89 2.025 . S
O91 Sc90 2.025 . S
C92 O98 1.268 . S
C92 O108 1.268 . S
C93 O99 1.268 . S
C93 O107 1.268 . S
C94 O100 1.268 . S
C94 O109 1.268 . S
C95 O101 1.268 . S
C95 O105 1.268 . S
C96 O102 1.268 . S
C96 O104 1.268 . S
C97 O103 1.268 . S
C97 O106 1.268 . S
O98 Sc88 2.105 . S
O98 C92 1.268 . S
O99 Sc89 2.105 . S
O99 C93 1.268 . S
O100 Sc90 2.105 . S
O100 C94 1.268 . S
O101 Sc88 2.105 1_655 S
O101 C95 1.268 . S
O102 Sc90 2.105 1_655 S
O102 C96 1.268 . S
O103 Sc89 2.105 1_655 S
O103 C97 1.268 . S
O104 Sc88 2.105 1_655 S
O104 C96 1.268 . S
O105 Sc89 2.105 1_655 S
O105 C95 1.268 . S
O106 Sc90 2.105 1_655 S
O106 C97 1.268 . S
O107 Sc88 2.105 . S
O107 C93 1.268 . S
O108 Sc90 2.105 . S
O108 C92 1.268 . S
O109 Sc89 2.105 . S
O109 C94 1.268 . S
Sc110 O113 2.025 . S
Sc110 O120 2.105 . S
Sc110 O123 2.105 . S
Sc110 O126 2.105 . S
Sc110 O129 2.105 . S
Sc111 O113 2.025 . S
Sc111 O121 2.105 . S
Sc111 O125 2.105 . S
Sc111 O127 2.105 . S
Sc111 O131 2.105 . S
Sc112 O113 2.025 . S
Sc112 O122 2.105 . S
Sc112 O124 2.105 . S
Sc112 O128 2.105 . S
Sc112 O130 2.105 . S
O113 Sc110 2.025 . S
O113 Sc111 2.025 . S
O113 Sc112 2.025 . S
C114 O120 1.268 . S
C114 O130 1.268 . S
C115 O121 1.268 . S
C115 O129 1.268 . S
C116 O122 1.268 . S
C116 O131 1.268 . S
C117 O123 1.268 . S
C117 O127 1.268 . S
C118 O124 1.268 . S
C118 O126 1.268 . S
C119 O125 1.268 . S
C119 O128 1.268 . S
O120 Sc110 2.105 . S
O120 C114 1.268 . S
O121 Sc111 2.105 . S
O121 C115 1.268 . S
O122 Sc112 2.105 . S
O122 C116 1.268 . S
O123 Sc110 2.105 . S
O123 C117 1.268 . S
O124 Sc112 2.105 . S
O124 C118 1.268 . S
O125 Sc111 2.105 . S
O125 C119 1.268 . S
O126 Sc110 2.105 . S
O126 C118 1.268 . S
O127 Sc111 2.105 . S
O127 C117 1.268 . S
O128 Sc112 2.105 . S
O128 C119 1.268 . S
O129 Sc110 2.105 . S
O129 C115 1.268 . S
O130 Sc112 2.105 . S
O130 C114 1.268 . S
O131 Sc111 2.105 . S
O131 C116 1.268 . S
Sc132 O135 2.025 . S
Sc132 O142 2.105 1_455 S
Sc132 O145 2.105 . S
Sc132 O148 2.105 . S
Sc132 O151 2.105 1_455 S
Sc133 O135 2.025 . S
Sc133 O143 2.105 1_455 S
Sc133 O147 2.105 . S
Sc133 O149 2.105 . S
Sc133 O153 2.105 1_455 S
Sc134 O135 2.025 . S
Sc134 O144 2.105 1_455 S
Sc134 O146 2.105 . S
Sc134 O150 2.105 . S
Sc134 O152 2.105 1_455 S
O135 Sc132 2.025 . S
O135 Sc133 2.025 . S
O135 Sc134 2.025 . S
C136 O142 1.268 . S
C136 O152 1.268 . S
C137 O143 1.268 . S
C137 O151 1.268 . S
C138 O144 1.268 . S
C138 O153 1.268 . S
C139 O145 1.268 . S
C139 O149 1.268 . S
C140 O146 1.268 . S
C140 O148 1.268 . S
C141 O147 1.268 . S
C141 O150 1.268 . S
O142 Sc132 2.105 1_655 S
O142 C136 1.268 . S
O143 Sc133 2.105 1_655 S
O143 C137 1.268 . S
O144 Sc134 2.105 1_655 S
O144 C138 1.268 . S
O145 Sc132 2.105 . S
O145 C139 1.268 . S
O146 Sc134 2.105 . S
O146 C140 1.268 . S
O147 Sc133 2.105 . S
O147 C141 1.268 . S
O148 Sc132 2.105 . S
O148 C140 1.268 . S
O149 Sc133 2.105 . S
O149 C139 1.268 . S
O150 Sc134 2.105 . S
O150 C141 1.268 . S
O151 Sc132 2.105 1_655 S
O151 C137 1.268 . S
O152 Sc134 2.105 1_655 S
O152 C136 1.268 . S
O153 Sc133 2.105 1_655 S
O153 C138 1.268 . S
Sc154 O157 2.025 . S
Sc154 O164 2.105 . S
Sc154 O167 2.105 . S
Sc154 O170 2.105 . S
Sc154 O173 2.105 . S
Sc155 O157 2.025 . S
Sc155 O165 2.105 . S
Sc155 O169 2.105 . S
Sc155 O171 2.105 . S
Sc155 O175 2.105 . S
Sc156 O157 2.025 . S
Sc156 O166 2.105 . S
Sc156 O168 2.105 . S
Sc156 O172 2.105 . S
Sc156 O174 2.105 . S
O157 Sc154 2.025 . S
O157 Sc155 2.025 . S
O157 Sc156 2.025 . S
C158 O164 1.268 . S
C158 O174 1.268 . S
C159 O165 1.268 . S
C159 O173 1.268 . S
C160 O166 1.268 . S
C160 O175 1.268 . S
C161 O167 1.268 . S
C161 O171 1.268 . S
C162 O168 1.268 . S
C162 O170 1.268 . S
C163 O169 1.268 . S
C163 O172 1.268 . S
O164 Sc154 2.105 . S
O164 C158 1.268 . S
O165 Sc155 2.105 . S
O165 C159 1.268 . S
O166 Sc156 2.105 . S
O166 C160 1.268 . S
O167 Sc154 2.105 . S
O167 C161 1.268 . S
O168 Sc156 2.105 . S
O168 C162 1.268 . S
O169 Sc155 2.105 . S
O169 C163 1.268 . S
O170 Sc154 2.105 . S
O170 C162 1.268 . S
O171 Sc155 2.105 . S
O171 C161 1.268 . S
O172 Sc156 2.105 . S
O172 C163 1.268 . S
O173 Sc154 2.105 . S
O173 C159 1.268 . S
O174 Sc156 2.105 . S
O174 C158 1.268 . S
O175 Sc155 2.105 . S
O175 C160 1.268 . S
Sc176 O179 2.025 . S
Sc176 O186 2.105 1_545 S
Sc176 O189 2.105 . S
Sc176 O192 2.105 . S
Sc176 O195 2.105 1_545 S
Sc177 O179 2.025 . S
Sc177 O187 2.105 1_545 S
Sc177 O191 2.105 . S
Sc177 O193 2.105 . S
Sc177 O197 2.105 1_545 S
Sc178 O179 2.025 . S
Sc178 O188 2.105 1_545 S
Sc178 O190 2.105 . S
Sc178 O194 2.105 . S
Sc178 O196 2.105 1_545 S
O179 Sc176 2.025 . S
O179 Sc177 2.025 . S
O179 Sc178 2.025 . S
C180 O186 1.268 . S
C180 O196 1.268 . S
C181 O187 1.268 . S
C181 O195 1.268 . S
C182 O188 1.268 . S
C182 O197 1.268 . S
C183 O189 1.268 . S
C183 O193 1.268 . S
C184 O190 1.268 . S
C184 O192 1.268 . S
C185 O191 1.268 . S
C185 O194 1.268 . S
O186 Sc176 2.105 1_565 S
O186 C180 1.268 . S
O187 Sc177 2.105 1_565 S
O187 C181 1.268 . S
O188 Sc178 2.105 1_565 S
O188 C182 1.268 . S
O189 Sc176 2.105 . S
O189 C183 1.268 . S
O190 Sc178 2.105 . S
O190 C184 1.268 . S
O191 Sc177 2.105 . S
O191 C185 1.268 . S
O192 Sc176 2.105 . S
O192 C184 1.268 . S
O193 Sc177 2.105 . S
O193 C183 1.268 . S
O194 Sc178 2.105 . S
O194 C185 1.268 . S
O195 Sc176 2.105 1_565 S
O195 C181 1.268 . S
O196 Sc178 2.105 1_565 S
O196 C180 1.268 . S
O197 Sc177 2.105 1_565 S
O197 C182 1.268 . S
Sc198 O201 2.025 . S
Sc198 O208 2.105 . S
Sc198 O211 2.105 . S
Sc198 O214 2.105 . S
Sc198 O217 2.105 . S
Sc199 O201 2.025 . S
Sc199 O209 2.105 . S
Sc199 O213 2.105 . S
Sc199 O215 2.105 . S
Sc199 O219 2.105 . S
Sc200 O201 2.025 . S
Sc200 O210 2.105 . S
Sc200 O212 2.105 . S
Sc200 O216 2.105 . S
Sc200 O218 2.105 . S
O201 Sc198 2.025 . S
O201 Sc199 2.025 . S
O201 Sc200 2.025 . S
C202 O208 1.268 . S
C202 O218 1.268 . S
C203 O209 1.268 . S
C203 O217 1.268 . S
C204 O210 1.268 . S
C204 O219 1.268 . S
C205 O211 1.268 . S
C205 O215 1.268 . S
C206 O212 1.268 . S
C206 O214 1.268 . S
C207 O213 1.268 . S
C207 O216 1.268 . S
O208 Sc198 2.105 . S
O208 C202 1.268 . S
O209 Sc199 2.105 . S
O209 C203 1.268 . S
O210 Sc200 2.105 . S
O210 C204 1.268 . S
O211 Sc198 2.105 . S
O211 C205 1.268 . S
O212 Sc200 2.105 . S
O212 C206 1.268 . S
O213 Sc199 2.105 . S
O213 C207 1.268 . S
O214 Sc198 2.105 . S
O214 C206 1.268 . S
O215 Sc199 2.105 . S
O215 C205 1.268 . S
O216 Sc200 2.105 . S
O216 C207 1.268 . S
O217 Sc198 2.105 . S
O217 C203 1.268 . S
O218 Sc200 2.105 . S
O218 C202 1.268 . S
O219 Sc199 2.105 . S
O219 C204 1.268 . S
Sc220 O223 2.025 . S
Sc220 O230 2.105 1_545 S
Sc220 O233 2.105 . S
Sc220 O236 2.105 . S
Sc220 O239 2.105 1_545 S
Sc221 O223 2.025 . S
Sc221 O231 2.105 1_545 S
Sc221 O235 2.105 . S
Sc221 O237 2.105 . S
Sc221 O241 2.105 1_545 S
Sc222 O223 2.025 . S
Sc222 O232 2.105 1_545 S
Sc222 O234 2.105 . S
Sc222 O238 2.105 . S
Sc222 O240 2.105 1_545 S
O223 Sc220 2.025 . S
O223 Sc221 2.025 . S
O223 Sc222 2.025 . S
C224 O230 1.268 . S
C224 O240 1.268 . S
C225 O231 1.268 . S
C225 O239 1.268 . S
C226 O232 1.268 . S
C226 O241 1.268 . S
C227 O233 1.268 . S
C227 O237 1.268 . S
C228 O234 1.268 . S
C228 O236 1.268 . S
C229 O235 1.268 . S
C229 O238 1.268 . S
O230 Sc220 2.105 1_565 S
O230 C224 1.268 . S
O231 Sc221 2.105 1_565 S
O231 C225 1.268 . S
O232 Sc222 2.105 1_565 S
O232 C226 1.268 . S
O233 Sc220 2.105 . S
O233 C227 1.268 . S
O234 Sc222 2.105 . S
O234 C228 1.268 . S
O235 Sc221 2.105 . S
O235 C229 1.268 . S
O236 Sc220 2.105 . S
O236 C228 1.268 . S
O237 Sc221 2.105 . S
O237 C227 1.268 . S
O238 Sc222 2.105 . S
O238 C229 1.268 . S
O239 Sc220 2.105 1_565 S
O239 C225 1.268 . S
O240 Sc222 2.105 1_565 S
O240 C224 1.268 . S
O241 Sc221 2.105 1_565 S
O241 C226 1.268 . S
Sc242 O245 2.025 . S
Sc242 O252 2.105 . S
Sc242 O255 2.105 . S
Sc242 O258 2.105 . S
Sc242 O261 2.105 . S
Sc243 O245 2.025 . S
Sc243 O253 2.105 . S
Sc243 O257 2.105 . S
Sc243 O259 2.105 . S
Sc243 O263 2.105 . S
Sc244 O245 2.025 . S
Sc244 O254 2.105 . S
Sc244 O256 2.105 . S
Sc244 O260 2.105 . S
Sc244 O262 2.105 . S
O245 Sc242 2.025 . S
O245 Sc243 2.025 . S
O245 Sc244 2.025 . S
C246 O252 1.268 . S
C246 O262 1.268 . S
C247 O253 1.268 . S
C247 O261 1.268 . S
C248 O254 1.268 . S
C248 O263 1.268 . S
C249 O255 1.268 . S
C249 O259 1.268 . S
C250 O256 1.268 . S
C250 O258 1.268 . S
C251 O257 1.268 . S
C251 O260 1.268 . S
O252 Sc242 2.105 . S
O252 C246 1.268 . S
O253 Sc243 2.105 . S
O253 C247 1.268 . S
O254 Sc244 2.105 . S
O254 C248 1.268 . S
O255 Sc242 2.105 . S
O255 C249 1.268 . S
O256 Sc244 2.105 . S
O256 C250 1.268 . S
O257 Sc243 2.105 . S
O257 C251 1.268 . S
O258 Sc242 2.105 . S
O258 C250 1.268 . S
O259 Sc243 2.105 . S
O259 C249 1.268 . S
O260 Sc244 2.105 . S
O260 C251 1.268 . S
O261 Sc242 2.105 . S
O261 C247 1.268 . S
O262 Sc244 2.105 . S
O262 C246 1.268 . S
O263 Sc243 2.105 . S
O263 C248 1.268 . S
Sc264 O267 2.025 . S
Sc264 O274 2.105 1_545 S
Sc264 O277 2.105 . S
Sc264 O280 2.105 . S
Sc264 O283 2.105 1_545 S
Sc265 O267 2.025 . S
Sc265 O275 2.105 1_545 S
Sc265 O279 2.105 . S
Sc265 O281 2.105 . S
Sc265 O285 2.105 1_545 S
Sc266 O267 2.025 . S
Sc266 O276 2.105 1_545 S
Sc266 O278 2.105 . S
Sc266 O282 2.105 . S
Sc266 O284 2.105 1_545 S
O267 Sc264 2.025 . S
O267 Sc265 2.025 . S
O267 Sc266 2.025 . S
C268 O274 1.268 . S
C268 O284 1.268 . S
C269 O275 1.268 . S
C269 O283 1.268 . S
C270 O276 1.268 . S
C270 O285 1.268 . S
C271 O277 1.268 . S
C271 O281 1.268 . S
C272 O278 1.268 . S
C272 O280 1.268 . S
C273 O279 1.268 . S
C273 O282 1.268 . S
O274 Sc264 2.105 1_565 S
O274 C268 1.268 . S
O275 Sc265 2.105 1_565 S
O275 C269 1.268 . S
O276 Sc266 2.105 1_565 S
O276 C270 1.268 . S
O277 Sc264 2.105 . S
O277 C271 1.268 . S
O278 Sc266 2.105 . S
O278 C272 1.268 . S
O279 Sc265 2.105 . S
O279 C273 1.268 . S
O280 Sc264 2.105 . S
O280 C272 1.268 . S
O281 Sc265 2.105 . S
O281 C271 1.268 . S
O282 Sc266 2.105 . S
O282 C273 1.268 . S
O283 Sc264 2.105 1_565 S
O283 C269 1.268 . S
O284 Sc266 2.105 1_565 S
O284 C268 1.268 . S
O285 Sc265 2.105 1_565 S
O285 C270 1.268 . S
Sc286 O289 2.025 . S
Sc286 O296 2.105 . S
Sc286 O299 2.105 . S
Sc286 O302 2.105 . S
Sc286 O305 2.105 . S
Sc287 O289 2.025 . S
Sc287 O297 2.105 . S
Sc287 O301 2.105 . S
Sc287 O303 2.105 . S
Sc287 O307 2.105 . S
Sc288 O289 2.025 . S
Sc288 O298 2.105 . S
Sc288 O300 2.105 . S
Sc288 O304 2.105 . S
Sc288 O306 2.105 . S
O289 Sc286 2.025 . S
O289 Sc287 2.025 . S
O289 Sc288 2.025 . S
C290 O296 1.268 . S
C290 O306 1.268 . S
C291 O297 1.268 . S
C291 O305 1.268 . S
C292 O298 1.268 . S
C292 O307 1.268 . S
C293 O299 1.268 . S
C293 O303 1.268 . S
C294 O300 1.268 . S
C294 O302 1.268 . S
C295 O301 1.268 . S
C295 O304 1.268 . S
O296 Sc286 2.105 . S
O296 C290 1.268 . S
O297 Sc287 2.105 . S
O297 C291 1.268 . S
O298 Sc288 2.105 . S
O298 C292 1.268 . S
O299 Sc286 2.105 . S
O299 C293 1.268 . S
O300 Sc288 2.105 . S
O300 C294 1.268 . S
O301 Sc287 2.105 . S
O301 C295 1.268 . S
O302 Sc286 2.105 . S
O302 C294 1.268 . S
O303 Sc287 2.105 . S
O303 C293 1.268 . S
O304 Sc288 2.105 . S
O304 C295 1.268 . S
O305 Sc286 2.105 . S
O305 C291 1.268 . S
O306 Sc288 2.105 . S
O306 C290 1.268 . S
O307 Sc287 2.105 . S
O307 C292 1.268 . S
Sc308 O311 2.025 . S
Sc308 O318 2.105 1_545 S
Sc308 O321 2.105 . S
Sc308 O324 2.105 . S
Sc308 O327 2.105 1_545 S
Sc309 O311 2.025 . S
Sc309 O319 2.105 1_545 S
Sc309 O323 2.105 . S
Sc309 O325 2.105 . S
Sc309 O329 2.105 1_545 S
Sc310 O311 2.025 . S
Sc310 O320 2.105 1_545 S
Sc310 O322 2.105 . S
Sc310 O326 2.105 . S
Sc310 O328 2.105 1_545 S
O311 Sc308 2.025 . S
O311 Sc309 2.025 . S
O311 Sc310 2.025 . S
C312 O318 1.268 . S
C312 O328 1.268 . S
C313 O319 1.268 . S
C313 O327 1.268 . S
C314 O320 1.268 . S
C314 O329 1.268 . S
C315 O321 1.268 . S
C315 O325 1.268 . S
C316 O322 1.268 . S
C316 O324 1.268 . S
C317 O323 1.268 . S
C317 O326 1.268 . S
O318 Sc308 2.105 1_565 S
O318 C312 1.268 . S
O319 Sc309 2.105 1_565 S
O319 C313 1.268 . S
O320 Sc310 2.105 1_565 S
O320 C314 1.268 . S
O321 Sc308 2.105 . S
O321 C315 1.268 . S
O322 Sc310 2.105 . S
O322 C316 1.268 . S
O323 Sc309 2.105 . S
O323 C317 1.268 . S
O324 Sc308 2.105 . S
O324 C316 1.268 . S
O325 Sc309 2.105 . S
O325 C315 1.268 . S
O326 Sc310 2.105 . S
O326 C317 1.268 . S
O327 Sc308 2.105 1_565 S
O327 C313 1.268 . S
O328 Sc310 2.105 1_565 S
O328 C312 1.268 . S
O329 Sc309 2.105 1_565 S
O329 C314 1.268 . S
Sc330 O333 2.025 . S
Sc330 O340 2.105 . S
Sc330 O343 2.105 . S
Sc330 O346 2.105 . S
Sc330 O349 2.105 . S
Sc331 O333 2.025 . S
Sc331 O341 2.105 . S
Sc331 O345 2.105 . S
Sc331 O347 2.105 . S
Sc331 O351 2.105 . S
Sc332 O333 2.025 . S
Sc332 O342 2.105 . S
Sc332 O344 2.105 . S
Sc332 O348 2.105 . S
Sc332 O350 2.105 . S
O333 Sc330 2.025 . S
O333 Sc331 2.025 . S
O333 Sc332 2.025 . S
C334 O340 1.268 . S
C334 O350 1.268 . S
C335 O341 1.268 . S
C335 O349 1.268 . S
C336 O342 1.268 . S
C336 O351 1.268 . S
C337 O343 1.268 . S
C337 O347 1.268 . S
C338 O344 1.268 . S
C338 O346 1.268 . S
C339 O345 1.268 . S
C339 O348 1.268 . S
O340 Sc330 2.105 . S
O340 C334 1.268 . S
O341 Sc331 2.105 . S
O341 C335 1.268 . S
O342 Sc332 2.105 . S
O342 C336 1.268 . S
O343 Sc330 2.105 . S
O343 C337 1.268 . S
O344 Sc332 2.105 . S
O344 C338 1.268 . S
O345 Sc331 2.105 . S
O345 C339 1.268 . S
O346 Sc330 2.105 . S
O346 C338 1.268 . S
O347 Sc331 2.105 . S
O347 C337 1.268 . S
O348 Sc332 2.105 . S
O348 C339 1.268 . S
O349 Sc330 2.105 . S
O349 C335 1.268 . S
O350 Sc332 2.105 . S
O350 C334 1.268 . S
O351 Sc331 2.105 . S
O351 C336 1.268 . S
Sc352 O355 2.025 . S
Sc352 O362 2.105 1_554 S
Sc352 O365 2.105 . S
Sc352 O368 2.105 . S
Sc352 O371 2.105 1_554 S
Sc353 O355 2.025 . S
Sc353 O363 2.105 1_554 S
Sc353 O367 2.105 . S
Sc353 O369 2.105 . S
Sc353 O373 2.105 1_554 S
Sc354 O355 2.025 . S
Sc354 O364 2.105 1_554 S
Sc354 O366 2.105 . S
Sc354 O370 2.105 . S
Sc354 O372 2.105 1_554 S
O355 Sc352 2.025 . S
O355 Sc353 2.025 . S
O355 Sc354 2.025 . S
C356 O362 1.268 . S
C356 O372 1.268 . S
C357 O363 1.268 . S
C357 O371 1.268 . S
C358 O364 1.268 . S
C358 O373 1.268 . S
C359 O365 1.268 . S
C359 O369 1.268 . S
C360 O366 1.268 . S
C360 O368 1.268 . S
C361 O367 1.268 . S
C361 O370 1.268 . S
O362 Sc352 2.105 1_556 S
O362 C356 1.268 . S
O363 Sc353 2.105 1_556 S
O363 C357 1.268 . S
O364 Sc354 2.105 1_556 S
O364 C358 1.268 . S
O365 Sc352 2.105 . S
O365 C359 1.268 . S
O366 Sc354 2.105 . S
O366 C360 1.268 . S
O367 Sc353 2.105 . S
O367 C361 1.268 . S
O368 Sc352 2.105 . S
O368 C360 1.268 . S
O369 Sc353 2.105 . S
O369 C359 1.268 . S
O370 Sc354 2.105 . S
O370 C361 1.268 . S
O371 Sc352 2.105 1_556 S
O371 C357 1.268 . S
O372 Sc354 2.105 1_556 S
O372 C356 1.268 . S
O373 Sc353 2.105 1_556 S
O373 C358 1.268 . S
Sc374 O377 2.025 . S
Sc374 O384 2.105 1_554 S
Sc374 O387 2.105 . S
Sc374 O390 2.105 . S
Sc374 O393 2.105 1_554 S
Sc375 O377 2.025 . S
Sc375 O385 2.105 1_554 S
Sc375 O389 2.105 . S
Sc375 O391 2.105 . S
Sc375 O395 2.105 1_554 S
Sc376 O377 2.025 . S
Sc376 O386 2.105 1_554 S
Sc376 O388 2.105 . S
Sc376 O392 2.105 . S
Sc376 O394 2.105 1_554 S
O377 Sc374 2.025 . S
O377 Sc375 2.025 . S
O377 Sc376 2.025 . S
C378 O384 1.268 . S
C378 O394 1.268 . S
C379 O385 1.268 . S
C379 O393 1.268 . S
C380 O386 1.268 . S
C380 O395 1.268 . S
C381 O387 1.268 . S
C381 O391 1.268 . S
C382 O388 1.268 . S
C382 O390 1.268 . S
C383 O389 1.268 . S
C383 O392 1.268 . S
O384 Sc374 2.105 1_556 S
O384 C378 1.268 . S
O385 Sc375 2.105 1_556 S
O385 C379 1.268 . S
O386 Sc376 2.105 1_556 S
O386 C380 1.268 . S
O387 Sc374 2.105 . S
O387 C381 1.268 . S
O388 Sc376 2.105 . S
O388 C382 1.268 . S
O389 Sc375 2.105 . S
O389 C383 1.268 . S
O390 Sc374 2.105 . S
O390 C382 1.268 . S
O391 Sc375 2.105 . S
O391 C381 1.268 . S
O392 Sc376 2.105 . S
O392 C383 1.268 . S
O393 Sc374 2.105 1_556 S
O393 C379 1.268 . S
O394 Sc376 2.105 1_556 S
O394 C378 1.268 . S
O395 Sc375 2.105 1_556 S
O395 C380 1.268 . S
Sc396 O399 2.025 . S
Sc396 O406 2.105 . S
Sc396 O409 2.105 . S
Sc396 O412 2.105 . S
Sc396 O415 2.105 . S
Sc397 O399 2.025 . S
Sc397 O407 2.105 . S
Sc397 O411 2.105 . S
Sc397 O413 2.105 . S
Sc397 O417 2.105 . S
Sc398 O399 2.025 . S
Sc398 O408 2.105 . S
Sc398 O410 2.105 . S
Sc398 O414 2.105 . S
Sc398 O416 2.105 . S
O399 Sc396 2.025 . S
O399 Sc397 2.025 . S
O399 Sc398 2.025 . S
C400 O406 1.268 . S
C400 O416 1.268 . S
C401 O407 1.268 . S
C401 O415 1.268 . S
C402 O408 1.268 . S
C402 O417 1.268 . S
C403 O409 1.268 . S
C403 O413 1.268 . S
C404 O410 1.268 . S
C404 O412 1.268 . S
C405 O411 1.268 . S
C405 O414 1.268 . S
O406 Sc396 2.105 . S
O406 C400 1.268 . S
O407 Sc397 2.105 . S
O407 C401 1.268 . S
O408 Sc398 2.105 . S
O408 C402 1.268 . S
O409 Sc396 2.105 . S
O409 C403 1.268 . S
O410 Sc398 2.105 . S
O410 C404 1.268 . S
O411 Sc397 2.105 . S
O411 C405 1.268 . S
O412 Sc396 2.105 . S
O412 C404 1.268 . S
O413 Sc397 2.105 . S
O413 C403 1.268 . S
O414 Sc398 2.105 . S
O414 C405 1.268 . S
O415 Sc396 2.105 . S
O415 C401 1.268 . S
O416 Sc398 2.105 . S
O416 C400 1.268 . S
O417 Sc397 2.105 . S
O417 C402 1.268 . S
Sc418 O421 2.025 . S
Sc418 O428 2.105 1_554 S
Sc418 O431 2.105 . S
Sc418 O434 2.105 . S
Sc418 O437 2.105 1_554 S
Sc419 O421 2.025 . S
Sc419 O429 2.105 1_554 S
Sc419 O433 2.105 . S
Sc419 O435 2.105 . S
Sc419 O439 2.105 1_554 S
Sc420 O421 2.025 . S
Sc420 O430 2.105 1_554 S
Sc420 O432 2.105 . S
Sc420 O436 2.105 . S
Sc420 O438 2.105 1_554 S
O421 Sc418 2.025 . S
O421 Sc419 2.025 . S
O421 Sc420 2.025 . S
C422 O428 1.268 . S
C422 O438 1.268 . S
C423 O429 1.268 . S
C423 O437 1.268 . S
C424 O430 1.268 . S
C424 O439 1.268 . S
C425 O431 1.268 . S
C425 O435 1.268 . S
C426 O432 1.268 . S
C426 O434 1.268 . S
C427 O433 1.268 . S
C427 O436 1.268 . S
O428 Sc418 2.105 1_556 S
O428 C422 1.268 . S
O429 Sc419 2.105 1_556 S
O429 C423 1.268 . S
O430 Sc420 2.105 1_556 S
O430 C424 1.268 . S
O431 Sc418 2.105 . S
O431 C425 1.268 . S
O432 Sc420 2.105 . S
O432 C426 1.268 . S
O433 Sc419 2.105 . S
O433 C427 1.268 . S
O434 Sc418 2.105 . S
O434 C426 1.268 . S
O435 Sc419 2.105 . S
O435 C425 1.268 . S
O436 Sc420 2.105 . S
O436 C427 1.268 . S
O437 Sc418 2.105 1_556 S
O437 C423 1.268 . S
O438 Sc420 2.105 1_556 S
O438 C422 1.268 . S
O439 Sc419 2.105 1_556 S
O439 C424 1.268 . S
Sc440 O443 2.025 . S
Sc440 O450 2.105 . S
Sc440 O453 2.105 . S
Sc440 O456 2.105 . S
Sc440 O459 2.105 . S
Sc441 O443 2.025 . S
Sc441 O451 2.105 . S
Sc441 O455 2.105 . S
Sc441 O457 2.105 . S
Sc441 O461 2.105 . S
Sc442 O443 2.025 . S
Sc442 O452 2.105 . S
Sc442 O454 2.105 . S
Sc442 O458 2.105 . S
Sc442 O460 2.105 . S
O443 Sc440 2.025 . S
O443 Sc441 2.025 . S
O443 Sc442 2.025 . S
C444 O450 1.268 . S
C444 O460 1.268 . S
C445 O451 1.268 . S
C445 O459 1.268 . S
C446 O452 1.268 . S
C446 O461 1.268 . S
C447 O453 1.268 . S
C447 O457 1.268 . S
C448 O454 1.268 . S
C448 O456 1.268 . S
C449 O455 1.268 . S
C449 O458 1.268 . S
O450 Sc440 2.105 . S
O450 C444 1.268 . S
O451 Sc441 2.105 . S
O451 C445 1.268 . S
O452 Sc442 2.105 . S
O452 C446 1.268 . S
O453 Sc440 2.105 . S
O453 C447 1.268 . S
O454 Sc442 2.105 . S
O454 C448 1.268 . S
O455 Sc441 2.105 . S
O455 C449 1.268 . S
O456 Sc440 2.105 . S
O456 C448 1.268 . S
O457 Sc441 2.105 . S
O457 C447 1.268 . S
O458 Sc442 2.105 . S
O458 C449 1.268 . S
O459 Sc440 2.105 . S
O459 C445 1.268 . S
O460 Sc442 2.105 . S
O460 C444 1.268 . S
O461 Sc441 2.105 . S
O461 C446 1.268 . S
Sc462 O465 2.025 . S
Sc462 O472 2.105 1_554 S
Sc462 O475 2.105 . S
Sc462 O478 2.105 . S
Sc462 O481 2.105 1_554 S
Sc463 O465 2.025 . S
Sc463 O473 2.105 1_554 S
Sc463 O477 2.105 . S
Sc463 O479 2.105 . S
Sc463 O483 2.105 1_554 S
Sc464 O465 2.025 . S
Sc464 O474 2.105 1_554 S
Sc464 O476 2.105 . S
Sc464 O480 2.105 . S
Sc464 O482 2.105 1_554 S
O465 Sc462 2.025 . S
O465 Sc463 2.025 . S
O465 Sc464 2.025 . S
C466 O472 1.268 . S
C466 O482 1.268 . S
C467 O473 1.268 . S
C467 O481 1.268 . S
C468 O474 1.268 . S
C468 O483 1.268 . S
C469 O475 1.268 . S
C469 O479 1.268 . S
C470 O476 1.268 . S
C470 O478 1.268 . S
C471 O477 1.268 . S
C471 O480 1.268 . S
O472 Sc462 2.105 1_556 S
O472 C466 1.268 . S
O473 Sc463 2.105 1_556 S
O473 C467 1.268 . S
O474 Sc464 2.105 1_556 S
O474 C468 1.268 . S
O475 Sc462 2.105 . S
O475 C469 1.268 . S
O476 Sc464 2.105 . S
O476 C470 1.268 . S
O477 Sc463 2.105 . S
O477 C471 1.268 . S
O478 Sc462 2.105 . S
O478 C470 1.268 . S
O479 Sc463 2.105 . S
O479 C469 1.268 . S
O480 Sc464 2.105 . S
O480 C471 1.268 . S
O481 Sc462 2.105 1_556 S
O481 C467 1.268 . S
O482 Sc464 2.105 1_556 S
O482 C466 1.268 . S
O483 Sc463 2.105 1_556 S
O483 C468 1.268 . S
Sc484 O487 2.025 . S
Sc484 O494 2.105 . S
Sc484 O497 2.105 . S
Sc484 O500 2.105 . S
Sc484 O503 2.105 . S
Sc485 O487 2.025 . S
Sc485 O495 2.105 . S
Sc485 O499 2.105 . S
Sc485 O501 2.105 . S
Sc485 O505 2.105 . S
Sc486 O487 2.025 . S
Sc486 O496 2.105 . S
Sc486 O498 2.105 . S
Sc486 O502 2.105 . S
Sc486 O504 2.105 . S
O487 Sc484 2.025 . S
O487 Sc485 2.025 . S
O487 Sc486 2.025 . S
C488 O494 1.268 . S
C488 O504 1.268 . S
C489 O495 1.268 . S
C489 O503 1.268 . S
C490 O496 1.268 . S
C490 O505 1.268 . S
C491 O497 1.268 . S
C491 O501 1.268 . S
C492 O498 1.268 . S
C492 O500 1.268 . S
C493 O499 1.268 . S
C493 O502 1.268 . S
O494 Sc484 2.105 . S
O494 C488 1.268 . S
O495 Sc485 2.105 . S
O495 C489 1.268 . S
O496 Sc486 2.105 . S
O496 C490 1.268 . S
O497 Sc484 2.105 . S
O497 C491 1.268 . S
O498 Sc486 2.105 . S
O498 C492 1.268 . S
O499 Sc485 2.105 . S
O499 C493 1.268 . S
O500 Sc484 2.105 . S
O500 C492 1.268 . S
O501 Sc485 2.105 . S
O501 C491 1.268 . S
O502 Sc486 2.105 . S
O502 C493 1.268 . S
O503 Sc484 2.105 . S
O503 C489 1.268 . S
O504 Sc486 2.105 . S
O504 C488 1.268 . S
O505 Sc485 2.105 . S
O505 C490 1.268 . S
Sc506 O509 2.025 . S
Sc506 O516 2.105 . S
Sc506 O519 2.105 . S
Sc506 O522 2.105 . S
Sc506 O525 2.105 . S
Sc507 O509 2.025 . S
Sc507 O517 2.105 . S
Sc507 O521 2.105 . S
Sc507 O523 2.105 . S
Sc507 O527 2.105 . S
Sc508 O509 2.025 . S
Sc508 O518 2.105 . S
Sc508 O520 2.105 . S
Sc508 O524 2.105 . S
Sc508 O526 2.105 . S
O509 Sc506 2.025 . S
O509 Sc507 2.025 . S
O509 Sc508 2.025 . S
C510 O516 1.268 . S
C510 O526 1.268 . S
C511 O517 1.268 . S
C511 O525 1.268 . S
C512 O518 1.268 . S
C512 O527 1.268 . S
C513 O519 1.268 . S
C513 O523 1.268 . S
C514 O520 1.268 . S
C514 O522 1.268 . S
C515 O521 1.268 . S
C515 O524 1.268 . S
O516 Sc506 2.105 . S
O516 C510 1.268 . S
O517 Sc507 2.105 . S
O517 C511 1.268 . S
O518 Sc508 2.105 . S
O518 C512 1.268 . S
O519 Sc506 2.105 . S
O519 C513 1.268 . S
O520 Sc508 2.105 . S
O520 C514 1.268 . S
O521 Sc507 2.105 . S
O521 C515 1.268 . S
O522 Sc506 2.105 . S
O522 C514 1.268 . S
O523 Sc507 2.105 . S
O523 C513 1.268 . S
O524 Sc508 2.105 . S
O524 C515 1.268 . S
O525 Sc506 2.105 . S
O525 C511 1.268 . S
O526 Sc508 2.105 . S
O526 C510 1.268 . S
O527 Sc507 2.105 . S
O527 C512 1.268 . S
C528 C529 1.369 . S
C528 C530 1.419 . S
C528 H532 0.930 . S
C529 C528 1.369 . S
C529 C538 1.429 . S
C530 C528 1.419 . S
C530 C531 1.363 . S
C530 H533 0.929 . S
C531 C530 1.363 . S
C531 C537 1.428 . S
H532 C528 0.930 . S
H533 C530 0.929 . S
S534 N535 1.613 . S
S534 N536 1.610 . S
N535 S534 1.613 . S
N535 C538 1.350 . S
N536 S534 1.610 . S
N536 C537 1.351 . S
C537 C531 1.428 . S
C537 N536 1.351 . S
C537 C538 1.434 . S
C538 C529 1.429 . S
C538 N535 1.350 . S
C538 C537 1.434 . S
C539 C540 1.369 . S
C539 C541 1.419 . S
C539 H543 0.930 . S
C540 C539 1.369 . S
C540 C549 1.429 . S
C541 C539 1.419 . S
C541 C542 1.363 . S
C541 H544 0.929 . S
C542 C541 1.363 . S
C542 C548 1.428 . S
H543 C539 0.930 . S
H544 C541 0.929 . S
S545 N546 1.613 . S
S545 N547 1.610 . S
N546 S545 1.613 . S
N546 C549 1.350 . S
N547 S545 1.610 . S
N547 C548 1.351 . S
C548 C542 1.428 . S
C548 N547 1.351 . S
C548 C549 1.434 . S
C549 C540 1.429 . S
C549 N546 1.350 . S
C549 C548 1.434 . S
C550 C551 1.369 . S
C550 C552 1.419 . S
C550 H554 0.930 . S
C551 C550 1.369 . S
C551 C560 1.429 . S
C552 C550 1.419 . S
C552 C553 1.363 . S
C552 H555 0.929 . S
C553 C552 1.363 . S
C553 C559 1.428 . S
H554 C550 0.930 . S
H555 C552 0.929 . S
S556 N557 1.613 . S
S556 N558 1.610 . S
N557 S556 1.613 . S
N557 C560 1.350 . S
N558 S556 1.610 . S
N558 C559 1.351 . S
C559 C553 1.428 . S
C559 N558 1.351 . S
C559 C560 1.434 . S
C560 C551 1.429 . S
C560 N557 1.350 . S
C560 C559 1.434 . S
C561 C562 1.369 . S
C561 C563 1.419 . S
C561 H565 0.930 . S
C562 C561 1.369 . S
C562 C571 1.429 . S
C563 C561 1.419 . S
C563 C564 1.363 . S
C563 H566 0.929 . S
C564 C563 1.363 . S
C564 C570 1.428 . S
H565 C561 0.930 . S
H566 C563 0.929 . S
S567 N568 1.613 . S
S567 N569 1.610 . S
N568 S567 1.613 . S
N568 C571 1.350 . S
N569 S567 1.610 . S
N569 C570 1.351 . S
C570 C564 1.428 . S
C570 N569 1.351 . S
C570 C571 1.434 . S
C571 C562 1.429 . S
C571 N568 1.350 . S
C571 C570 1.434 . S
C572 C573 1.369 . S
C572 C574 1.419 . S
C572 H576 0.930 . S
C573 C572 1.369 . S
C573 C582 1.429 . S
C574 C572 1.419 . S
C574 C575 1.363 . S
C574 H577 0.929 . S
C575 C574 1.363 . S
C575 C581 1.428 . S
H576 C572 0.930 . S
H577 C574 0.929 . S
S578 N579 1.613 . S
S578 N580 1.610 . S
N579 S578 1.613 . S
N579 C582 1.350 . S
N580 S578 1.610 . S
N580 C581 1.351 . S
C581 C575 1.428 . S
C581 N580 1.351 . S
C581 C582 1.434 . S
C582 C573 1.429 . S
C582 N579 1.350 . S
C582 C581 1.434 . S
C583 C584 1.369 . S
C583 C585 1.419 . S
C583 H587 0.930 . S
C584 C583 1.369 . S
C584 C593 1.429 . S
C585 C583 1.419 . S
C585 C586 1.363 . S
C585 H588 0.929 . S
C586 C585 1.363 . S
C586 C592 1.428 . S
H587 C583 0.930 . S
H588 C585 0.929 . S
S589 N590 1.613 . S
S589 N591 1.610 . S
N590 S589 1.613 . S
N590 C593 1.350 . S
N591 S589 1.610 . S
N591 C592 1.351 . S
C592 C586 1.428 . S
C592 N591 1.351 . S
C592 C593 1.434 . S
C593 C584 1.429 . S
C593 N590 1.350 . S
C593 C592 1.434 . S
C594 C595 1.369 . S
C594 C596 1.419 . S
C594 H598 0.930 . S
C595 C594 1.369 . S
C595 C604 1.429 . S
C596 C594 1.419 . S
C596 C597 1.363 . S
C596 H599 0.929 . S
C597 C596 1.363 . S
C597 C603 1.428 . S
H598 C594 0.930 . S
H599 C596 0.929 . S
S600 N601 1.613 . S
S600 N602 1.610 . S
N601 S600 1.613 . S
N601 C604 1.350 . S
N602 S600 1.610 . S
N602 C603 1.351 . S
C603 C597 1.428 . S
C603 N602 1.351 . S
C603 C604 1.434 . S
C604 C595 1.429 . S
C604 N601 1.350 . S
C604 C603 1.434 . S
C605 C606 1.369 . S
C605 C607 1.419 . S
C605 H609 0.930 . S
C606 C605 1.369 . S
C606 C615 1.429 . S
C607 C605 1.419 . S
C607 C608 1.363 . S
C607 H610 0.929 . S
C608 C607 1.363 . S
C608 C614 1.428 . S
H609 C605 0.930 . S
H610 C607 0.929 . S
S611 N612 1.613 . S
S611 N613 1.610 . S
N612 S611 1.613 . S
N612 C615 1.350 . S
N613 S611 1.610 . S
N613 C614 1.351 . S
C614 C608 1.428 . S
C614 N613 1.351 . S
C614 C615 1.434 . S
C615 C606 1.429 . S
C615 N612 1.350 . S
C615 C614 1.434 . S
C616 C617 1.369 . S
C616 C618 1.419 . S
C616 H620 0.930 . S
C617 C616 1.369 . S
C617 C626 1.429 . S
C618 C616 1.419 . S
C618 C619 1.363 . S
C618 H621 0.929 . S
C619 C618 1.363 . S
C619 C625 1.428 . S
H620 C616 0.930 . S
H621 C618 0.929 . S
S622 N623 1.613 . S
S622 N624 1.610 . S
N623 S622 1.613 . S
N623 C626 1.350 . S
N624 S622 1.610 . S
N624 C625 1.351 . S
C625 C619 1.428 . S
C625 N624 1.351 . S
C625 C626 1.434 . S
C626 C617 1.429 . S
C626 N623 1.350 . S
C626 C625 1.434 . S
C627 C628 1.369 . S
C627 C629 1.419 . S
C627 H631 0.930 . S
C628 C627 1.369 . S
C628 C637 1.429 . S
C629 C627 1.419 . S
C629 C630 1.363 . S
C629 H632 0.929 . S
C630 C629 1.363 . S
C630 C636 1.428 . S
H631 C627 0.930 . S
H632 C629 0.929 . S
S633 N634 1.613 . S
S633 N635 1.610 . S
N634 S633 1.613 . S
N634 C637 1.350 . S
N635 S633 1.610 . S
N635 C636 1.351 . S
C636 C630 1.428 . S
C636 N635 1.351 . S
C636 C637 1.434 . S
C637 C628 1.429 . S
C637 N634 1.350 . S
C637 C636 1.434 . S
C638 C639 1.369 . S
C638 C640 1.419 . S
C638 H642 0.930 . S
C639 C638 1.369 . S
C639 C648 1.429 . S
C640 C638 1.419 . S
C640 C641 1.363 . S
C640 H643 0.929 . S
C641 C640 1.363 . S
C641 C647 1.428 . S
H642 C638 0.930 . S
H643 C640 0.929 . S
S644 N645 1.613 . S
S644 N646 1.610 . S
N645 S644 1.613 . S
N645 C648 1.350 . S
N646 S644 1.610 . S
N646 C647 1.351 . S
C647 C641 1.428 . S
C647 N646 1.351 . S
C647 C648 1.434 . S
C648 C639 1.429 . S
C648 N645 1.350 . S
C648 C647 1.434 . S
C649 C650 1.369 . S
C649 C651 1.419 . S
C649 H653 0.930 . S
C650 C649 1.369 . S
C650 C659 1.429 . S
C651 C649 1.419 . S
C651 C652 1.363 . S
C651 H654 0.929 . S
C652 C651 1.363 . S
C652 C658 1.428 . S
H653 C649 0.930 . S
H654 C651 0.929 . S
S655 N656 1.613 . S
S655 N657 1.610 . S
N656 S655 1.613 . S
N656 C659 1.350 . S
N657 S655 1.610 . S
N657 C658 1.351 . S
C658 C652 1.428 . S
C658 N657 1.351 . S
C658 C659 1.434 . S
C659 C650 1.429 . S
C659 N656 1.350 . S
C659 C658 1.434 . S
C660 C661 1.369 . S
C660 C662 1.419 . S
C660 H664 0.930 . S
C661 C660 1.369 . S
C661 C670 1.429 . S
C662 C660 1.419 . S
C662 C663 1.363 . S
C662 H665 0.929 . S
C663 C662 1.363 . S
C663 C669 1.428 . S
H664 C660 0.930 . S
H665 C662 0.929 . S
S666 N667 1.613 . S
S666 N668 1.610 . S
N667 S666 1.613 . S
N667 C670 1.350 . S
N668 S666 1.610 . S
N668 C669 1.351 . S
C669 C663 1.428 . S
C669 N668 1.351 . S
C669 C670 1.434 . S
C670 C661 1.429 . S
C670 N667 1.350 . S
C670 C669 1.434 . S
C671 C672 1.369 . S
C671 C673 1.419 . S
C671 H675 0.930 . S
C672 C671 1.369 . S
C672 C681 1.429 . S
C673 C671 1.419 . S
C673 C674 1.363 . S
C673 H676 0.929 . S
C674 C673 1.363 . S
C674 C680 1.428 . S
H675 C671 0.930 . S
H676 C673 0.929 . S
S677 N678 1.613 . S
S677 N679 1.610 . S
N678 S677 1.613 . S
N678 C681 1.350 . S
N679 S677 1.610 . S
N679 C680 1.351 . S
C680 C674 1.428 . S
C680 N679 1.351 . S
C680 C681 1.434 . S
C681 C672 1.429 . S
C681 N678 1.350 . S
C681 C680 1.434 . S
C682 C683 1.369 . S
C682 C684 1.419 . S
C682 H686 0.930 . S
C683 C682 1.369 . S
C683 C692 1.429 . S
C684 C682 1.419 . S
C684 C685 1.363 . S
C684 H687 0.929 . S
C685 C684 1.363 . S
C685 C691 1.428 . S
H686 C682 0.930 . S
H687 C684 0.929 . S
S688 N689 1.613 . S
S688 N690 1.610 . S
N689 S688 1.613 . S
N689 C692 1.350 . S
N690 S688 1.610 . S
N690 C691 1.351 . S
C691 C685 1.428 . S
C691 N690 1.351 . S
C691 C692 1.434 . S
C692 C683 1.429 . S
C692 N689 1.350 . S
C692 C691 1.434 . S
C693 C694 1.369 . S
C693 C695 1.419 . S
C693 H697 0.930 . S
C694 C693 1.369 . S
C694 C703 1.429 . S
C695 C693 1.419 . S
C695 C696 1.363 . S
C695 H698 0.929 . S
C696 C695 1.363 . S
C696 C702 1.428 . S
H697 C693 0.930 . S
H698 C695 0.929 . S
S699 N700 1.613 . S
S699 N701 1.610 . S
N700 S699 1.613 . S
N700 C703 1.350 . S
N701 S699 1.610 . S
N701 C702 1.351 . S
C702 C696 1.428 . S
C702 N701 1.351 . S
C702 C703 1.434 . S
C703 C694 1.429 . S
C703 N700 1.350 . S
C703 C702 1.434 . S
C704 C705 1.369 . S
C704 C706 1.419 . S
C704 H708 0.930 . S
C705 C704 1.369 . S
C705 C714 1.429 . S
C706 C704 1.419 . S
C706 C707 1.363 . S
C706 H709 0.929 . S
C707 C706 1.363 . S
C707 C713 1.428 . S
H708 C704 0.930 . S
H709 C706 0.929 . S
S710 N711 1.613 . S
S710 N712 1.610 . S
N711 S710 1.613 . S
N711 C714 1.350 . S
N712 S710 1.610 . S
N712 C713 1.351 . S
C713 C707 1.428 . S
C713 N712 1.351 . S
C713 C714 1.434 . S
C714 C705 1.429 . S
C714 N711 1.350 . S
C714 C713 1.434 . S
C715 C716 1.369 . S
C715 C717 1.419 . S
C715 H719 0.930 . S
C716 C715 1.369 . S
C716 C725 1.429 . S
C717 C715 1.419 . S
C717 C718 1.363 . S
C717 H720 0.929 . S
C718 C717 1.363 . S
C718 C724 1.428 . S
H719 C715 0.930 . S
H720 C717 0.929 . S
S721 N722 1.613 . S
S721 N723 1.610 . S
N722 S721 1.613 . S
N722 C725 1.350 . S
N723 S721 1.610 . S
N723 C724 1.351 . S
C724 C718 1.428 . S
C724 N723 1.351 . S
C724 C725 1.434 . S
C725 C716 1.429 . S
C725 N722 1.350 . S
C725 C724 1.434 . S
C726 C727 1.369 . S
C726 C728 1.419 . S
C726 H730 0.930 . S
C727 C726 1.369 . S
C727 C736 1.429 . S
C728 C726 1.419 . S
C728 C729 1.363 . S
C728 H731 0.929 . S
C729 C728 1.363 . S
C729 C735 1.428 . S
H730 C726 0.930 . S
H731 C728 0.929 . S
S732 N733 1.613 . S
S732 N734 1.610 . S
N733 S732 1.613 . S
N733 C736 1.350 . S
N734 S732 1.610 . S
N734 C735 1.351 . S
C735 C729 1.428 . S
C735 N734 1.351 . S
C735 C736 1.434 . S
C736 C727 1.429 . S
C736 N733 1.350 . S
C736 C735 1.434 . S
C737 C738 1.369 . S
C737 C739 1.419 . S
C737 H741 0.930 . S
C738 C737 1.369 . S
C738 C747 1.429 . S
C739 C737 1.419 . S
C739 C740 1.363 . S
C739 H742 0.929 . S
C740 C739 1.363 . S
C740 C746 1.428 . S
H741 C737 0.930 . S
H742 C739 0.929 . S
S743 N744 1.613 . S
S743 N745 1.610 . S
N744 S743 1.613 . S
N744 C747 1.350 . S
N745 S743 1.610 . S
N745 C746 1.351 . S
C746 C740 1.428 . S
C746 N745 1.351 . S
C746 C747 1.434 . S
C747 C738 1.429 . S
C747 N744 1.350 . S
C747 C746 1.434 . S
C748 C749 1.369 . S
C748 C750 1.419 . S
C748 H752 0.930 . S
C749 C748 1.369 . S
C749 C758 1.429 . S
C750 C748 1.419 . S
C750 C751 1.363 . S
C750 H753 0.929 . S
C751 C750 1.363 . S
C751 C757 1.428 . S
H752 C748 0.930 . S
H753 C750 0.929 . S
S754 N755 1.613 . S
S754 N756 1.610 . S
N755 S754 1.613 . S
N755 C758 1.350 . S
N756 S754 1.610 . S
N756 C757 1.351 . S
C757 C751 1.428 . S
C757 N756 1.351 . S
C757 C758 1.434 . S
C758 C749 1.429 . S
C758 N755 1.350 . S
C758 C757 1.434 . S
C759 C760 1.369 . S
C759 C761 1.419 . S
C759 H763 0.930 . S
C760 C759 1.369 . S
C760 C769 1.429 . S
C761 C759 1.419 . S
C761 C762 1.363 . S
C761 H764 0.929 . S
C762 C761 1.363 . S
C762 C768 1.428 . S
H763 C759 0.930 . S
H764 C761 0.929 . S
S765 N766 1.613 . S
S765 N767 1.610 . S
N766 S765 1.613 . S
N766 C769 1.350 . S
N767 S765 1.610 . S
N767 C768 1.351 . S
C768 C762 1.428 . S
C768 N767 1.351 . S
C768 C769 1.434 . S
C769 C760 1.429 . S
C769 N766 1.350 . S
C769 C768 1.434 . S
C770 C771 1.369 . S
C770 C772 1.419 . S
C770 H774 0.930 . S
C771 C770 1.369 . S
C771 C780 1.429 . S
C772 C770 1.419 . S
C772 C773 1.363 . S
C772 H775 0.929 . S
C773 C772 1.363 . S
C773 C779 1.428 . S
H774 C770 0.930 . S
H775 C772 0.929 . S
S776 N777 1.613 . S
S776 N778 1.610 . S
N777 S776 1.613 . S
N777 C780 1.350 . S
N778 S776 1.610 . S
N778 C779 1.351 . S
C779 C773 1.428 . S
C779 N778 1.351 . S
C779 C780 1.434 . S
C780 C771 1.429 . S
C780 N777 1.350 . S
C780 C779 1.434 . S
C781 C782 1.369 . S
C781 C783 1.419 . S
C781 H785 0.930 . S
C782 C781 1.369 . S
C782 C791 1.429 . S
C783 C781 1.419 . S
C783 C784 1.363 . S
C783 H786 0.929 . S
C784 C783 1.363 . S
C784 C790 1.428 . S
H785 C781 0.930 . S
H786 C783 0.929 . S
S787 N788 1.613 . S
S787 N789 1.610 . S
N788 S787 1.613 . S
N788 C791 1.350 . S
N789 S787 1.610 . S
N789 C790 1.351 . S
C790 C784 1.428 . S
C790 N789 1.351 . S
C790 C791 1.434 . S
C791 C782 1.429 . S
C791 N788 1.350 . S
C791 C790 1.434 . S
C792 C793 1.369 . S
C792 C794 1.419 . S
C792 H796 0.930 . S
C793 C792 1.369 . S
C793 C802 1.429 . S
C794 C792 1.419 . S
C794 C795 1.363 . S
C794 H797 0.929 . S
C795 C794 1.363 . S
C795 C801 1.428 . S
H796 C792 0.930 . S
H797 C794 0.929 . S
S798 N799 1.613 . S
S798 N800 1.610 . S
N799 S798 1.613 . S
N799 C802 1.350 . S
N800 S798 1.610 . S
N800 C801 1.351 . S
C801 C795 1.428 . S
C801 N800 1.351 . S
C801 C802 1.434 . S
C802 C793 1.429 . S
C802 N799 1.350 . S
C802 C801 1.434 . S
C803 C804 1.369 . S
C803 C805 1.419 . S
C803 H807 0.930 . S
C804 C803 1.369 . S
C804 C813 1.429 . S
C805 C803 1.419 . S
C805 C806 1.363 . S
C805 H808 0.929 . S
C806 C805 1.363 . S
C806 C812 1.428 . S
H807 C803 0.930 . S
H808 C805 0.929 . S
S809 N810 1.613 . S
S809 N811 1.610 . S
N810 S809 1.613 . S
N810 C813 1.350 . S
N811 S809 1.610 . S
N811 C812 1.351 . S
C812 C806 1.428 . S
C812 N811 1.351 . S
C812 C813 1.434 . S
C813 C804 1.429 . S
C813 N810 1.350 . S
C813 C812 1.434 . S
C814 C815 1.369 . S
C814 C816 1.419 . S
C814 H818 0.930 . S
C815 C814 1.369 . S
C815 C824 1.429 . S
C816 C814 1.419 . S
C816 C817 1.363 . S
C816 H819 0.929 . S
C817 C816 1.363 . S
C817 C823 1.428 . S
H818 C814 0.930 . S
H819 C816 0.929 . S
S820 N821 1.613 . S
S820 N822 1.610 . S
N821 S820 1.613 . S
N821 C824 1.350 . S
N822 S820 1.610 . S
N822 C823 1.351 . S
C823 C817 1.428 . S
C823 N822 1.351 . S
C823 C824 1.434 . S
C824 C815 1.429 . S
C824 N821 1.350 . S
C824 C823 1.434 . S
C825 C826 1.369 . S
C825 C827 1.419 . S
C825 H829 0.930 . S
C826 C825 1.369 . S
C826 C835 1.429 . S
C827 C825 1.419 . S
C827 C828 1.363 . S
C827 H830 0.929 . S
C828 C827 1.363 . S
C828 C834 1.428 . S
H829 C825 0.930 . S
H830 C827 0.929 . S
S831 N832 1.613 . S
S831 N833 1.610 . S
N832 S831 1.613 . S
N832 C835 1.350 . S
N833 S831 1.610 . S
N833 C834 1.351 . S
C834 C828 1.428 . S
C834 N833 1.351 . S
C834 C835 1.434 . S
C835 C826 1.429 . S
C835 N832 1.350 . S
C835 C834 1.434 . S
C836 C837 1.369 . S
C836 C838 1.419 . S
C836 H840 0.930 . S
C837 C836 1.369 . S
C837 C846 1.429 . S
C838 C836 1.419 . S
C838 C839 1.363 . S
C838 H841 0.929 . S
C839 C838 1.363 . S
C839 C845 1.428 . S
H840 C836 0.930 . S
H841 C838 0.929 . S
S842 N843 1.613 . S
S842 N844 1.610 . S
N843 S842 1.613 . S
N843 C846 1.350 . S
N844 S842 1.610 . S
N844 C845 1.351 . S
C845 C839 1.428 . S
C845 N844 1.351 . S
C845 C846 1.434 . S
C846 C837 1.429 . S
C846 N843 1.350 . S
C846 C845 1.434 . S
C847 C848 1.369 . S
C847 C849 1.419 . S
C847 H851 0.930 . S
C848 C847 1.369 . S
C848 C857 1.429 . S
C849 C847 1.419 . S
C849 C850 1.363 . S
C849 H852 0.929 . S
C850 C849 1.363 . S
C850 C856 1.428 . S
H851 C847 0.930 . S
H852 C849 0.929 . S
S853 N854 1.613 . S
S853 N855 1.610 . S
N854 S853 1.613 . S
N854 C857 1.350 . S
N855 S853 1.610 . S
N855 C856 1.351 . S
C856 C850 1.428 . S
C856 N855 1.351 . S
C856 C857 1.434 . S
C857 C848 1.429 . S
C857 N854 1.350 . S
C857 C856 1.434 . S
C858 C859 1.369 . S
C858 C860 1.419 . S
C858 H862 0.930 . S
C859 C858 1.369 . S
C859 C868 1.429 . S
C860 C858 1.419 . S
C860 C861 1.363 . S
C860 H863 0.929 . S
C861 C860 1.363 . S
C861 C867 1.428 . S
H862 C858 0.930 . S
H863 C860 0.929 . S
S864 N865 1.613 . S
S864 N866 1.610 . S
N865 S864 1.613 . S
N865 C868 1.350 . S
N866 S864 1.610 . S
N866 C867 1.351 . S
C867 C861 1.428 . S
C867 N866 1.351 . S
C867 C868 1.434 . S
C868 C859 1.429 . S
C868 N865 1.350 . S
C868 C867 1.434 . S
C869 C870 1.369 . S
C869 C871 1.419 . S
C869 H873 0.930 . S
C870 C869 1.369 . S
C870 C879 1.429 . S
C871 C869 1.419 . S
C871 C872 1.363 . S
C871 H874 0.929 . S
C872 C871 1.363 . S
C872 C878 1.428 . S
H873 C869 0.930 . S
H874 C871 0.929 . S
S875 N876 1.613 . S
S875 N877 1.610 . S
N876 S875 1.613 . S
N876 C879 1.350 . S
N877 S875 1.610 . S
N877 C878 1.351 . S
C878 C872 1.428 . S
C878 N877 1.351 . S
C878 C879 1.434 . S
C879 C870 1.429 . S
C879 N876 1.350 . S
C879 C878 1.434 . S
C880 C881 1.369 . S
C880 C882 1.419 . S
C880 H884 0.930 . S
C881 C880 1.369 . S
C881 C890 1.429 . S
C882 C880 1.419 . S
C882 C883 1.363 . S
C882 H885 0.929 . S
C883 C882 1.363 . S
C883 C889 1.428 . S
H884 C880 0.930 . S
H885 C882 0.929 . S
S886 N887 1.613 . S
S886 N888 1.610 . S
N887 S886 1.613 . S
N887 C890 1.350 . S
N888 S886 1.610 . S
N888 C889 1.351 . S
C889 C883 1.428 . S
C889 N888 1.351 . S
C889 C890 1.434 . S
C890 C881 1.429 . S
C890 N887 1.350 . S
C890 C889 1.434 . S
C891 C892 1.369 . S
C891 C893 1.419 . S
C891 H895 0.930 . S
C892 C891 1.369 . S
C892 C901 1.429 . S
C893 C891 1.419 . S
C893 C894 1.363 . S
C893 H896 0.929 . S
C894 C893 1.363 . S
C894 C900 1.428 . S
H895 C891 0.930 . S
H896 C893 0.929 . S
S897 N898 1.613 . S
S897 N899 1.610 . S
N898 S897 1.613 . S
N898 C901 1.350 . S
N899 S897 1.610 . S
N899 C900 1.351 . S
C900 C894 1.428 . S
C900 N899 1.351 . S
C900 C901 1.434 . S
C901 C892 1.429 . S
C901 N898 1.350 . S
C901 C900 1.434 . S
C902 C903 1.369 . S
C902 C904 1.419 . S
C902 H906 0.930 . S
C903 C902 1.369 . S
C903 C912 1.429 . S
C904 C902 1.419 . S
C904 C905 1.363 . S
C904 H907 0.929 . S
C905 C904 1.363 . S
C905 C911 1.428 . S
H906 C902 0.930 . S
H907 C904 0.929 . S
S908 N909 1.613 . S
S908 N910 1.610 . S
N909 S908 1.613 . S
N909 C912 1.350 . S
N910 S908 1.610 . S
N910 C911 1.351 . S
C911 C905 1.428 . S
C911 N910 1.351 . S
C911 C912 1.434 . S
C912 C903 1.429 . S
C912 N909 1.350 . S
C912 C911 1.434 . S
C913 C914 1.369 . S
C913 C915 1.419 . S
C913 H917 0.930 . S
C914 C913 1.369 . S
C914 C923 1.429 . S
C915 C913 1.419 . S
C915 C916 1.363 . S
C915 H918 0.929 . S
C916 C915 1.363 . S
C916 C922 1.428 . S
H917 C913 0.930 . S
H918 C915 0.929 . S
S919 N920 1.613 . S
S919 N921 1.610 . S
N920 S919 1.613 . S
N920 C923 1.350 . S
N921 S919 1.610 . S
N921 C922 1.351 . S
C922 C916 1.428 . S
C922 N921 1.351 . S
C922 C923 1.434 . S
C923 C914 1.429 . S
C923 N920 1.350 . S
C923 C922 1.434 . S
C924 C925 1.369 . S
C924 C926 1.419 . S
C924 H928 0.930 . S
C925 C924 1.369 . S
C925 C934 1.429 . S
C926 C924 1.419 . S
C926 C927 1.363 . S
C926 H929 0.929 . S
C927 C926 1.363 . S
C927 C933 1.428 . S
H928 C924 0.930 . S
H929 C926 0.929 . S
S930 N931 1.613 . S
S930 N932 1.610 . S
N931 S930 1.613 . S
N931 C934 1.350 . S
N932 S930 1.610 . S
N932 C933 1.351 . S
C933 C927 1.428 . S
C933 N932 1.351 . S
C933 C934 1.434 . S
C934 C925 1.429 . S
C934 N931 1.350 . S
C934 C933 1.434 . S
C935 C936 1.369 . S
C935 C937 1.419 . S
C935 H939 0.930 . S
C936 C935 1.369 . S
C936 C945 1.429 . S
C937 C935 1.419 . S
C937 C938 1.363 . S
C937 H940 0.929 . S
C938 C937 1.363 . S
C938 C944 1.428 . S
H939 C935 0.930 . S
H940 C937 0.929 . S
S941 N942 1.613 . S
S941 N943 1.610 . S
N942 S941 1.613 . S
N942 C945 1.350 . S
N943 S941 1.610 . S
N943 C944 1.351 . S
C944 C938 1.428 . S
C944 N943 1.351 . S
C944 C945 1.434 . S
C945 C936 1.429 . S
C945 N942 1.350 . S
C945 C944 1.434 . S
C946 C947 1.369 . S
C946 C948 1.419 . S
C946 H950 0.930 . S
C947 C946 1.369 . S
C947 C956 1.429 . S
C948 C946 1.419 . S
C948 C949 1.363 . S
C948 H951 0.929 . S
C949 C948 1.363 . S
C949 C955 1.428 . S
H950 C946 0.930 . S
H951 C948 0.929 . S
S952 N953 1.613 . S
S952 N954 1.610 . S
N953 S952 1.613 . S
N953 C956 1.350 . S
N954 S952 1.610 . S
N954 C955 1.351 . S
C955 C949 1.428 . S
C955 N954 1.351 . S
C955 C956 1.434 . S
C956 C947 1.429 . S
C956 N953 1.350 . S
C956 C955 1.434 . S
C957 C958 1.369 . S
C957 C959 1.419 . S
C957 H961 0.930 . S
C958 C957 1.369 . S
C958 C967 1.429 . S
C959 C957 1.419 . S
C959 C960 1.363 . S
C959 H962 0.929 . S
C960 C959 1.363 . S
C960 C966 1.428 . S
H961 C957 0.930 . S
H962 C959 0.929 . S
S963 N964 1.613 . S
S963 N965 1.610 . S
N964 S963 1.613 . S
N964 C967 1.350 . S
N965 S963 1.610 . S
N965 C966 1.351 . S
C966 C960 1.428 . S
C966 N965 1.351 . S
C966 C967 1.434 . S
C967 C958 1.429 . S
C967 N964 1.350 . S
C967 C966 1.434 . S
C968 C969 1.369 . S
C968 C970 1.419 . S
C968 H972 0.930 . S
C969 C968 1.369 . S
C969 C978 1.429 . S
C970 C968 1.419 . S
C970 C971 1.363 . S
C970 H973 0.929 . S
C971 C970 1.363 . S
C971 C977 1.428 . S
H972 C968 0.930 . S
H973 C970 0.929 . S
S974 N975 1.613 . S
S974 N976 1.610 . S
N975 S974 1.613 . S
N975 C978 1.350 . S
N976 S974 1.610 . S
N976 C977 1.351 . S
C977 C971 1.428 . S
C977 N976 1.351 . S
C977 C978 1.434 . S
C978 C969 1.429 . S
C978 N975 1.350 . S
C978 C977 1.434 . S
C979 C980 1.369 . S
C979 C981 1.419 . S
C979 H983 0.930 . S
C980 C979 1.369 . S
C980 C989 1.429 . S
C981 C979 1.419 . S
C981 C982 1.363 . S
C981 H984 0.929 . S
C982 C981 1.363 . S
C982 C988 1.428 . S
H983 C979 0.930 . S
H984 C981 0.929 . S
S985 N986 1.613 . S
S985 N987 1.610 . S
N986 S985 1.613 . S
N986 C989 1.350 . S
N987 S985 1.610 . S
N987 C988 1.351 . S
C988 C982 1.428 . S
C988 N987 1.351 . S
C988 C989 1.434 . S
C989 C980 1.429 . S
C989 N986 1.350 . S
C989 C988 1.434 . S
C990 C991 1.369 . S
C990 C992 1.419 . S
C990 H994 0.930 . S
C991 C990 1.369 . S
C991 C1000 1.429 . S
C992 C990 1.419 . S
C992 C993 1.363 . S
C992 H995 0.929 . S
C993 C992 1.363 . S
C993 C999 1.428 . S
H994 C990 0.930 . S
H995 C992 0.929 . S
S996 N997 1.613 . S
S996 N998 1.610 . S
N997 S996 1.613 . S
N997 C1000 1.350 . S
N998 S996 1.610 . S
N998 C999 1.351 . S
C999 C993 1.428 . S
C999 N998 1.351 . S
C999 C1000 1.434 . S
C1000 C991 1.429 . S
C1000 N997 1.350 . S
C1000 C999 1.434 . S
C1001 C1002 1.369 . S
C1001 C1003 1.419 . S
C1001 H1005 0.930 . S
C1002 C1001 1.369 . S
C1002 C1011 1.429 . S
C1003 C1001 1.419 . S
C1003 C1004 1.363 . S
C1003 H1006 0.929 . S
C1004 C1003 1.363 . S
C1004 C1010 1.428 . S
H1005 C1001 0.930 . S
H1006 C1003 0.929 . S
S1007 N1008 1.613 . S
S1007 N1009 1.610 . S
N1008 S1007 1.613 . S
N1008 C1011 1.350 . S
N1009 S1007 1.610 . S
N1009 C1010 1.351 . S
C1010 C1004 1.428 . S
C1010 N1009 1.351 . S
C1010 C1011 1.434 . S
C1011 C1002 1.429 . S
C1011 N1008 1.350 . S
C1011 C1010 1.434 . S
C1012 C1013 1.369 . S
C1012 C1014 1.419 . S
C1012 H1016 0.930 . S
C1013 C1012 1.369 . S
C1013 C1022 1.429 . S
C1014 C1012 1.419 . S
C1014 C1015 1.363 . S
C1014 H1017 0.929 . S
C1015 C1014 1.363 . S
C1015 C1021 1.428 . S
H1016 C1012 0.930 . S
H1017 C1014 0.929 . S
S1018 N1019 1.613 . S
S1018 N1020 1.610 . S
N1019 S1018 1.613 . S
N1019 C1022 1.350 . S
N1020 S1018 1.610 . S
N1020 C1021 1.351 . S
C1021 C1015 1.428 . S
C1021 N1020 1.351 . S
C1021 C1022 1.434 . S
C1022 C1013 1.429 . S
C1022 N1019 1.350 . S
C1022 C1021 1.434 . S
C1023 C1024 1.369 . S
C1023 C1025 1.419 . S
C1023 H1027 0.930 . S
C1024 C1023 1.369 . S
C1024 C1033 1.429 . S
C1025 C1023 1.419 . S
C1025 C1026 1.363 . S
C1025 H1028 0.929 . S
C1026 C1025 1.363 . S
C1026 C1032 1.428 . S
H1027 C1023 0.930 . S
H1028 C1025 0.929 . S
S1029 N1030 1.613 . S
S1029 N1031 1.610 . S
N1030 S1029 1.613 . S
N1030 C1033 1.350 . S
N1031 S1029 1.610 . S
N1031 C1032 1.351 . S
C1032 C1026 1.428 . S
C1032 N1031 1.351 . S
C1032 C1033 1.434 . S
C1033 C1024 1.429 . S
C1033 N1030 1.350 . S
C1033 C1032 1.434 . S
C1034 C1035 1.369 . S
C1034 C1036 1.419 . S
C1034 H1038 0.930 . S
C1035 C1034 1.369 . S
C1035 C1044 1.429 . S
C1036 C1034 1.419 . S
C1036 C1037 1.363 . S
C1036 H1039 0.929 . S
C1037 C1036 1.363 . S
C1037 C1043 1.428 . S
H1038 C1034 0.930 . S
H1039 C1036 0.929 . S
S1040 N1041 1.613 . S
S1040 N1042 1.610 . S
N1041 S1040 1.613 . S
N1041 C1044 1.350 . S
N1042 S1040 1.610 . S
N1042 C1043 1.351 . S
C1043 C1037 1.428 . S
C1043 N1042 1.351 . S
C1043 C1044 1.434 . S
C1044 C1035 1.429 . S
C1044 N1041 1.350 . S
C1044 C1043 1.434 . S
C1045 C1046 1.369 . S
C1045 C1047 1.419 . S
C1045 H1049 0.930 . S
C1046 C1045 1.369 . S
C1046 C1055 1.429 . S
C1047 C1045 1.419 . S
C1047 C1048 1.363 . S
C1047 H1050 0.929 . S
C1048 C1047 1.363 . S
C1048 C1054 1.428 . S
H1049 C1045 0.930 . S
H1050 C1047 0.929 . S
S1051 N1052 1.613 . S
S1051 N1053 1.610 . S
N1052 S1051 1.613 . S
N1052 C1055 1.350 . S
N1053 S1051 1.610 . S
N1053 C1054 1.351 . S
C1054 C1048 1.428 . S
C1054 N1053 1.351 . S
C1054 C1055 1.434 . S
C1055 C1046 1.429 . S
C1055 N1052 1.350 . S
C1055 C1054 1.434 . S
C1056 C1057 1.369 . S
C1056 C1058 1.419 . S
C1056 H1060 0.930 . S
C1057 C1056 1.369 . S
C1057 C1066 1.429 . S
C1058 C1056 1.419 . S
C1058 C1059 1.363 . S
C1058 H1061 0.929 . S
C1059 C1058 1.363 . S
C1059 C1065 1.428 . S
H1060 C1056 0.930 . S
H1061 C1058 0.929 . S
S1062 N1063 1.613 . S
S1062 N1064 1.610 . S
N1063 S1062 1.613 . S
N1063 C1066 1.350 . S
N1064 S1062 1.610 . S
N1064 C1065 1.351 . S
C1065 C1059 1.428 . S
C1065 N1064 1.351 . S
C1065 C1066 1.434 . S
C1066 C1057 1.429 . S
C1066 N1063 1.350 . S
C1066 C1065 1.434 . S
C1067 C1068 1.369 . S
C1067 C1069 1.419 . S
C1067 H1071 0.930 . S
C1068 C1067 1.369 . S
C1068 C1077 1.429 . S
C1069 C1067 1.419 . S
C1069 C1070 1.363 . S
C1069 H1072 0.929 . S
C1070 C1069 1.363 . S
C1070 C1076 1.428 . S
H1071 C1067 0.930 . S
H1072 C1069 0.929 . S
S1073 N1074 1.613 . S
S1073 N1075 1.610 . S
N1074 S1073 1.613 . S
N1074 C1077 1.350 . S
N1075 S1073 1.610 . S
N1075 C1076 1.351 . S
C1076 C1070 1.428 . S
C1076 N1075 1.351 . S
C1076 C1077 1.434 . S
C1077 C1068 1.429 . S
C1077 N1074 1.350 . S
C1077 C1076 1.434 . S
C1078 C1079 1.369 . S
C1078 C1080 1.419 . S
C1078 H1082 0.930 . S
C1079 C1078 1.369 . S
C1079 C1088 1.429 . S
C1080 C1078 1.419 . S
C1080 C1081 1.363 . S
C1080 H1083 0.929 . S
C1081 C1080 1.363 . S
C1081 C1087 1.428 . S
H1082 C1078 0.930 . S
H1083 C1080 0.929 . S
S1084 N1085 1.613 . S
S1084 N1086 1.610 . S
N1085 S1084 1.613 . S
N1085 C1088 1.350 . S
N1086 S1084 1.610 . S
N1086 C1087 1.351 . S
C1087 C1081 1.428 . S
C1087 N1086 1.351 . S
C1087 C1088 1.434 . S
C1088 C1079 1.429 . S
C1088 N1085 1.350 . S
C1088 C1087 1.434 . S
C1089 C1090 1.369 . S
C1089 C1091 1.419 . S
C1089 H1093 0.930 . S
C1090 C1089 1.369 . S
C1090 C1099 1.429 . S
C1091 C1089 1.419 . S
C1091 C1092 1.363 . S
C1091 H1094 0.929 . S
C1092 C1091 1.363 . S
C1092 C1098 1.428 . S
H1093 C1089 0.930 . S
H1094 C1091 0.929 . S
S1095 N1096 1.613 . S
S1095 N1097 1.610 . S
N1096 S1095 1.613 . S
N1096 C1099 1.350 . S
N1097 S1095 1.610 . S
N1097 C1098 1.351 . S
C1098 C1092 1.428 . S
C1098 N1097 1.351 . S
C1098 C1099 1.434 . S
C1099 C1090 1.429 . S
C1099 N1096 1.350 . S
C1099 C1098 1.434 . S
C1100 C1101 1.369 . S
C1100 C1102 1.419 . S
C1100 H1104 0.930 . S
C1101 C1100 1.369 . S
C1101 C1110 1.429 . S
C1102 C1100 1.419 . S
C1102 C1103 1.363 . S
C1102 H1105 0.929 . S
C1103 C1102 1.363 . S
C1103 C1109 1.428 . S
H1104 C1100 0.930 . S
H1105 C1102 0.929 . S
S1106 N1107 1.613 . S
S1106 N1108 1.610 . S
N1107 S1106 1.613 . S
N1107 C1110 1.350 . S
N1108 S1106 1.610 . S
N1108 C1109 1.351 . S
C1109 C1103 1.428 . S
C1109 N1108 1.351 . S
C1109 C1110 1.434 . S
C1110 C1101 1.429 . S
C1110 N1107 1.350 . S
C1110 C1109 1.434 . S
C1111 C1112 1.369 . S
C1111 C1113 1.419 . S
C1111 H1115 0.930 . S
C1112 C1111 1.369 . S
C1112 C1121 1.429 . S
C1113 C1111 1.419 . S
C1113 C1114 1.363 . S
C1113 H1116 0.929 . S
C1114 C1113 1.363 . S
C1114 C1120 1.428 . S
H1115 C1111 0.930 . S
H1116 C1113 0.929 . S
S1117 N1118 1.613 . S
S1117 N1119 1.610 . S
N1118 S1117 1.613 . S
N1118 C1121 1.350 . S
N1119 S1117 1.610 . S
N1119 C1120 1.351 . S
C1120 C1114 1.428 . S
C1120 N1119 1.351 . S
C1120 C1121 1.434 . S
C1121 C1112 1.429 . S
C1121 N1118 1.350 . S
C1121 C1120 1.434 . S
C1122 C1123 1.369 . S
C1122 C1124 1.419 . S
C1122 H1126 0.930 . S
C1123 C1122 1.369 . S
C1123 C1132 1.429 . S
C1124 C1122 1.419 . S
C1124 C1125 1.363 . S
C1124 H1127 0.929 . S
C1125 C1124 1.363 . S
C1125 C1131 1.428 . S
H1126 C1122 0.930 . S
H1127 C1124 0.929 . S
S1128 N1129 1.613 . S
S1128 N1130 1.610 . S
N1129 S1128 1.613 . S
N1129 C1132 1.350 . S
N1130 S1128 1.610 . S
N1130 C1131 1.351 . S
C1131 C1125 1.428 . S
C1131 N1130 1.351 . S
C1131 C1132 1.434 . S
C1132 C1123 1.429 . S
C1132 N1129 1.350 . S
C1132 C1131 1.434 . S
C1133 C1134 1.369 . S
C1133 C1135 1.419 . S
C1133 H1137 0.930 . S
C1134 C1133 1.369 . S
C1134 C1143 1.429 . S
C1135 C1133 1.419 . S
C1135 C1136 1.363 . S
C1135 H1138 0.929 . S
C1136 C1135 1.363 . S
C1136 C1142 1.428 . S
H1137 C1133 0.930 . S
H1138 C1135 0.929 . S
S1139 N1140 1.613 . S
S1139 N1141 1.610 . S
N1140 S1139 1.613 . S
N1140 C1143 1.350 . S
N1141 S1139 1.610 . S
N1141 C1142 1.351 . S
C1142 C1136 1.428 . S
C1142 N1141 1.351 . S
C1142 C1143 1.434 . S
C1143 C1134 1.429 . S
C1143 N1140 1.350 . S
C1143 C1142 1.434 . S
C1144 C1145 1.369 . S
C1144 C1146 1.419 . S
C1144 H1148 0.930 . S
C1145 C1144 1.369 . S
C1145 C1154 1.429 . S
C1146 C1144 1.419 . S
C1146 C1147 1.363 . S
C1146 H1149 0.929 . S
C1147 C1146 1.363 . S
C1147 C1153 1.428 . S
H1148 C1144 0.930 . S
H1149 C1146 0.929 . S
S1150 N1151 1.613 . S
S1150 N1152 1.610 . S
N1151 S1150 1.613 . S
N1151 C1154 1.350 . S
N1152 S1150 1.610 . S
N1152 C1153 1.351 . S
C1153 C1147 1.428 . S
C1153 N1152 1.351 . S
C1153 C1154 1.434 . S
C1154 C1145 1.429 . S
C1154 N1151 1.350 . S
C1154 C1153 1.434 . S
C1155 C1156 1.369 . S
C1155 C1157 1.419 . S
C1155 H1159 0.930 . S
C1156 C1155 1.369 . S
C1156 C1165 1.429 . S
C1157 C1155 1.419 . S
C1157 C1158 1.363 . S
C1157 H1160 0.929 . S
C1158 C1157 1.363 . S
C1158 C1164 1.428 . S
H1159 C1155 0.930 . S
H1160 C1157 0.929 . S
S1161 N1162 1.613 . S
S1161 N1163 1.610 . S
N1162 S1161 1.613 . S
N1162 C1165 1.350 . S
N1163 S1161 1.610 . S
N1163 C1164 1.351 . S
C1164 C1158 1.428 . S
C1164 N1163 1.351 . S
C1164 C1165 1.434 . S
C1165 C1156 1.429 . S
C1165 N1162 1.350 . S
C1165 C1164 1.434 . S
C1166 C1167 1.369 . S
C1166 C1168 1.419 . S
C1166 H1170 0.930 . S
C1167 C1166 1.369 . S
C1167 C1176 1.429 . S
C1168 C1166 1.419 . S
C1168 C1169 1.363 . S
C1168 H1171 0.929 . S
C1169 C1168 1.363 . S
C1169 C1175 1.428 . S
H1170 C1166 0.930 . S
H1171 C1168 0.929 . S
S1172 N1173 1.613 . S
S1172 N1174 1.610 . S
N1173 S1172 1.613 . S
N1173 C1176 1.350 . S
N1174 S1172 1.610 . S
N1174 C1175 1.351 . S
C1175 C1169 1.428 . S
C1175 N1174 1.351 . S
C1175 C1176 1.434 . S
C1176 C1167 1.429 . S
C1176 N1173 1.350 . S
C1176 C1175 1.434 . S
C1177 C1178 1.369 . S
C1177 C1179 1.419 . S
C1177 H1181 0.930 . S
C1178 C1177 1.369 . S
C1178 C1187 1.429 . S
C1179 C1177 1.419 . S
C1179 C1180 1.363 . S
C1179 H1182 0.929 . S
C1180 C1179 1.363 . S
C1180 C1186 1.428 . S
H1181 C1177 0.930 . S
H1182 C1179 0.929 . S
S1183 N1184 1.613 . S
S1183 N1185 1.610 . S
N1184 S1183 1.613 . S
N1184 C1187 1.350 . S
N1185 S1183 1.610 . S
N1185 C1186 1.351 . S
C1186 C1180 1.428 . S
C1186 N1185 1.351 . S
C1186 C1187 1.434 . S
C1187 C1178 1.429 . S
C1187 N1184 1.350 . S
C1187 C1186 1.434 . S
C1188 C1189 1.369 . S
C1188 C1190 1.419 . S
C1188 H1192 0.930 . S
C1189 C1188 1.369 . S
C1189 C1198 1.429 . S
C1190 C1188 1.419 . S
C1190 C1191 1.363 . S
C1190 H1193 0.929 . S
C1191 C1190 1.363 . S
C1191 C1197 1.428 . S
H1192 C1188 0.930 . S
H1193 C1190 0.929 . S
S1194 N1195 1.613 . S
S1194 N1196 1.610 . S
N1195 S1194 1.613 . S
N1195 C1198 1.350 . S
N1196 S1194 1.610 . S
N1196 C1197 1.351 . S
C1197 C1191 1.428 . S
C1197 N1196 1.351 . S
C1197 C1198 1.434 . S
C1198 C1189 1.429 . S
C1198 N1195 1.350 . S
C1198 C1197 1.434 . S
C1199 C1200 1.369 . S
C1199 C1201 1.419 . S
C1199 H1203 0.930 . S
C1200 C1199 1.369 . S
C1200 C1209 1.429 . S
C1201 C1199 1.419 . S
C1201 C1202 1.363 . S
C1201 H1204 0.929 . S
C1202 C1201 1.363 . S
C1202 C1208 1.428 . S
H1203 C1199 0.930 . S
H1204 C1201 0.929 . S
S1205 N1206 1.613 . S
S1205 N1207 1.610 . S
N1206 S1205 1.613 . S
N1206 C1209 1.350 . S
N1207 S1205 1.610 . S
N1207 C1208 1.351 . S
C1208 C1202 1.428 . S
C1208 N1207 1.351 . S
C1208 C1209 1.434 . S
C1209 C1200 1.429 . S
C1209 N1206 1.350 . S
C1209 C1208 1.434 . S
C1210 C1211 1.369 . S
C1210 C1212 1.419 . S
C1210 H1214 0.930 . S
C1211 C1210 1.369 . S
C1211 C1220 1.429 . S
C1212 C1210 1.419 . S
C1212 C1213 1.363 . S
C1212 H1215 0.929 . S
C1213 C1212 1.363 . S
C1213 C1219 1.428 . S
H1214 C1210 0.930 . S
H1215 C1212 0.929 . S
S1216 N1217 1.613 . S
S1216 N1218 1.610 . S
N1217 S1216 1.613 . S
N1217 C1220 1.350 . S
N1218 S1216 1.610 . S
N1218 C1219 1.351 . S
C1219 C1213 1.428 . S
C1219 N1218 1.351 . S
C1219 C1220 1.434 . S
C1220 C1211 1.429 . S
C1220 N1217 1.350 . S
C1220 C1219 1.434 . S
C1221 C1222 1.369 . S
C1221 C1223 1.419 . S
C1221 H1225 0.930 . S
C1222 C1221 1.369 . S
C1222 C1231 1.429 . S
C1223 C1221 1.419 . S
C1223 C1224 1.363 . S
C1223 H1226 0.929 . S
C1224 C1223 1.363 . S
C1224 C1230 1.428 . S
H1225 C1221 0.930 . S
H1226 C1223 0.929 . S
S1227 N1228 1.613 . S
S1227 N1229 1.610 . S
N1228 S1227 1.613 . S
N1228 C1231 1.350 . S
N1229 S1227 1.610 . S
N1229 C1230 1.351 . S
C1230 C1224 1.428 . S
C1230 N1229 1.351 . S
C1230 C1231 1.434 . S
C1231 C1222 1.429 . S
C1231 N1228 1.350 . S
C1231 C1230 1.434 . S
C1232 C1233 1.369 . S
C1232 C1234 1.419 . S
C1232 H1236 0.930 . S
C1233 C1232 1.369 . S
C1233 C1242 1.429 . S
C1234 C1232 1.419 . S
C1234 C1235 1.363 . S
C1234 H1237 0.929 . S
C1235 C1234 1.363 . S
C1235 C1241 1.428 . S
H1236 C1232 0.930 . S
H1237 C1234 0.929 . S
S1238 N1239 1.613 . S
S1238 N1240 1.610 . S
N1239 S1238 1.613 . S
N1239 C1242 1.350 . S
N1240 S1238 1.610 . S
N1240 C1241 1.351 . S
C1241 C1235 1.428 . S
C1241 N1240 1.351 . S
C1241 C1242 1.434 . S
C1242 C1233 1.429 . S
C1242 N1239 1.350 . S
C1242 C1241 1.434 . S
C1243 C1244 1.369 . S
C1243 C1245 1.419 . S
C1243 H1247 0.930 . S
C1244 C1243 1.369 . S
C1244 C1253 1.429 . S
C1245 C1243 1.419 . S
C1245 C1246 1.363 . S
C1245 H1248 0.929 . S
C1246 C1245 1.363 . S
C1246 C1252 1.428 . S
H1247 C1243 0.930 . S
H1248 C1245 0.929 . S
S1249 N1250 1.613 . S
S1249 N1251 1.610 . S
N1250 S1249 1.613 . S
N1250 C1253 1.350 . S
N1251 S1249 1.610 . S
N1251 C1252 1.351 . S
C1252 C1246 1.428 . S
C1252 N1251 1.351 . S
C1252 C1253 1.434 . S
C1253 C1244 1.429 . S
C1253 N1250 1.350 . S
C1253 C1252 1.434 . S
C1254 C1255 1.369 . S
C1254 C1256 1.419 . S
C1254 H1258 0.930 . S
C1255 C1254 1.369 . S
C1255 C1264 1.429 . S
C1256 C1254 1.419 . S
C1256 C1257 1.363 . S
C1256 H1259 0.929 . S
C1257 C1256 1.363 . S
C1257 C1263 1.428 . S
H1258 C1254 0.930 . S
H1259 C1256 0.929 . S
S1260 N1261 1.613 . S
S1260 N1262 1.610 . S
N1261 S1260 1.613 . S
N1261 C1264 1.350 . S
N1262 S1260 1.610 . S
N1262 C1263 1.351 . S
C1263 C1257 1.428 . S
C1263 N1262 1.351 . S
C1263 C1264 1.434 . S
C1264 C1255 1.429 . S
C1264 N1261 1.350 . S
C1264 C1263 1.434 . S
C1265 C1266 1.369 . S
C1265 C1267 1.419 . S
C1265 H1269 0.930 . S
C1266 C1265 1.369 . S
C1266 C1275 1.429 . S
C1267 C1265 1.419 . S
C1267 C1268 1.363 . S
C1267 H1270 0.929 . S
C1268 C1267 1.363 . S
C1268 C1274 1.428 . S
H1269 C1265 0.930 . S
H1270 C1267 0.929 . S
S1271 N1272 1.613 . S
S1271 N1273 1.610 . S
N1272 S1271 1.613 . S
N1272 C1275 1.350 . S
N1273 S1271 1.610 . S
N1273 C1274 1.351 . S
C1274 C1268 1.428 . S
C1274 N1273 1.351 . S
C1274 C1275 1.434 . S
C1275 C1266 1.429 . S
C1275 N1272 1.350 . S
C1275 C1274 1.434 . S
C1276 C1277 1.369 . S
C1276 C1278 1.419 . S
C1276 H1280 0.930 . S
C1277 C1276 1.369 . S
C1277 C1286 1.429 . S
C1278 C1276 1.419 . S
C1278 C1279 1.363 . S
C1278 H1281 0.929 . S
C1279 C1278 1.363 . S
C1279 C1285 1.428 . S
H1280 C1276 0.930 . S
H1281 C1278 0.929 . S
S1282 N1283 1.613 . S
S1282 N1284 1.610 . S
N1283 S1282 1.613 . S
N1283 C1286 1.350 . S
N1284 S1282 1.610 . S
N1284 C1285 1.351 . S
C1285 C1279 1.428 . S
C1285 N1284 1.351 . S
C1285 C1286 1.434 . S
C1286 C1277 1.429 . S
C1286 N1283 1.350 . S
C1286 C1285 1.434 . S
C1287 C1288 1.369 . S
C1287 C1289 1.419 . S
C1287 H1291 0.930 . S
C1288 C1287 1.369 . S
C1288 C1297 1.429 . S
C1289 C1287 1.419 . S
C1289 C1290 1.363 . S
C1289 H1292 0.929 . S
C1290 C1289 1.363 . S
C1290 C1296 1.428 . S
H1291 C1287 0.930 . S
H1292 C1289 0.929 . S
S1293 N1294 1.613 . S
S1293 N1295 1.610 . S
N1294 S1293 1.613 . S
N1294 C1297 1.350 . S
N1295 S1293 1.610 . S
N1295 C1296 1.351 . S
C1296 C1290 1.428 . S
C1296 N1295 1.351 . S
C1296 C1297 1.434 . S
C1297 C1288 1.429 . S
C1297 N1294 1.350 . S
C1297 C1296 1.434 . S
C1298 C1299 1.369 . S
C1298 C1300 1.419 . S
C1298 H1302 0.930 . S
C1299 C1298 1.369 . S
C1299 C1308 1.429 . S
C1300 C1298 1.419 . S
C1300 C1301 1.363 . S
C1300 H1303 0.929 . S
C1301 C1300 1.363 . S
C1301 C1307 1.428 . S
H1302 C1298 0.930 . S
H1303 C1300 0.929 . S
S1304 N1305 1.613 . S
S1304 N1306 1.610 . S
N1305 S1304 1.613 . S
N1305 C1308 1.350 . S
N1306 S1304 1.610 . S
N1306 C1307 1.351 . S
C1307 C1301 1.428 . S
C1307 N1306 1.351 . S
C1307 C1308 1.434 . S
C1308 C1299 1.429 . S
C1308 N1305 1.350 . S
C1308 C1307 1.434 . S
C1309 C1310 1.369 . S
C1309 C1311 1.419 . S
C1309 H1313 0.930 . S
C1310 C1309 1.369 . S
C1310 C1319 1.429 . S
C1311 C1309 1.419 . S
C1311 C1312 1.363 . S
C1311 H1314 0.929 . S
C1312 C1311 1.363 . S
C1312 C1318 1.428 . S
H1313 C1309 0.930 . S
H1314 C1311 0.929 . S
S1315 N1316 1.613 . S
S1315 N1317 1.610 . S
N1316 S1315 1.613 . S
N1316 C1319 1.350 . S
N1317 S1315 1.610 . S
N1317 C1318 1.351 . S
C1318 C1312 1.428 . S
C1318 N1317 1.351 . S
C1318 C1319 1.434 . S
C1319 C1310 1.429 . S
C1319 N1316 1.350 . S
C1319 C1318 1.434 . S
C529 C7 1.326 . S
C531 C360 1.403 . S
C540 C29 1.324 . S
C542 C514 1.408 . S
C551 C470 1.408 . S
C553 C51 1.323 . S
C562 C72 1.319 . S
C564 C492 1.408 . S
C573 C94 1.324 . S
C575 C378 1.409 . S
C584 C117 1.321 . S
C586 C400 1.408 . S
C595 C138 1.318 . S
C597 C422 1.413 . S
C606 C160 1.317 . S
C608 C444 1.408 . S
C617 C183 1.321 . S
C619 C8 1.403 . S
C628 C204 1.322 . S
C630 C30 1.408 . S
C639 C52 1.408 . S
C641 C226 1.323 . S
C650 C70 1.408 . S
C652 C249 1.323 . S
C661 C270 1.317 . S
C663 C92 1.407 . S
C672 C293 1.316 . S
C674 C118 1.408 . S
C683 C315 1.328 . S
C685 C136 1.409 . S
C694 C336 1.328 . S
C696 C158 1.407 . S
C705 C359 1.324 . S
C707 C184 1.403 . S
C716 C380 1.326 . S
C718 C268 1.412 . S
C727 C294 1.408 . S
C729 C402 1.324 . S
C738 C424 1.317 . S
C740 C316 1.407 . S
C749 C446 1.317 . S
C751 C334 1.408 . S
C760 C469 1.329 . S
C762 C224 1.409 . S
C771 C250 1.407 . S
C773 C491 1.325 . S
C782 C513 1.317 . S
C784 C202 1.408 . S
C793 C466 1.408 . S
C795 C97 1.327 . S
C804 C488 1.408 . S
C806 C115 1.319 . S
C815 C141 1.328 . S
C817 C356 1.409 . S
C826 C163 1.319 . S
C828 C510 1.408 . S
C837 C426 1.408 . S
C839 C5 1.319 . S
C848 C27 1.329 . S
C850 C448 1.407 . S
C859 C382 1.408 . S
C861 C49 1.315 . S
C870 C75 1.329 . S
C872 C404 1.407 . S
C881 C313 1.318 . S
C883 C96 1.413 . S
C892 C339 1.317 . S
C894 C114 1.408 . S
C903 C273 1.329 . S
C905 C140 1.403 . S
C914 C162 1.407 . S
C916 C291 1.325 . S
C925 C229 1.324 . S
C927 C4 1.409 . S
C936 C247 1.317 . S
C938 C26 1.408 . S
C947 C181 1.318 . S
C949 C48 1.407 . S
C958 C207 1.324 . S
C960 C74 1.408 . S
C969 C312 1.408 . S
C971 C467 1.328 . S
C980 C427 1.328 . S
C982 C228 1.403 . S
C991 C246 1.407 . S
C993 C449 1.327 . S
C1002 C383 1.317 . S
C1004 C180 1.410 . S
C1013 C405 1.317 . S
C1015 C206 1.408 . S
C1024 C357 1.316 . S
C1026 C272 1.407 . S
C1035 C511 1.329 . S
C1037 C290 1.407 . S
C1046 C338 1.408 . S
C1048 C489 1.320 . S
C1057 C445 1.499 . S
C1059 C9 1.493 . S
C1068 C379 1.499 . S
C1070 C31 1.504 . S
C1079 C53 1.500 . S
C1081 C401 1.498 . S
C1090 C71 1.497 . S
C1092 C423 1.505 . S
C1101 C515 1.502 . S
C1103 C93 1.493 . S
C1112 C119 1.495 . S
C1114 C471 1.496 . S
C1123 C493 1.503 . S
C1125 C137 1.503 . S
C1134 C159 1.497 . S
C1136 C361 1.499 . S
C1145 C185 1.496 . S
C1147 C335 1.495 . S
C1156 C269 1.496 . S
C1158 C203 1.499 . S
C1167 C225 1.503 . S
C1169 C295 1.501 . S
C1178 C317 1.496 . S
C1180 C251 1.500 . S
C1189 C403 1.500 . S
C1191 C95 1.505 . S
C1200 C425 1.500 . S
C1202 C116 1.494 . S
C1211 C139 1.500 . S
C1213 C447 1.494 . S
C1222 C161 1.503 . S
C1224 C381 1.496 . S
C1233 C490 1.498 . S
C1235 C6 1.499 . S
C1244 C358 1.501 . S
C1246 C28 1.498 . S
C1255 C512 1.501 . S
C1257 C50 1.499 . S
C1266 C73 1.499 . S
C1268 C468 1.505 . S
C1277 C205 1.498 . S
C1279 C314 1.499 . S
C1288 C337 1.495 . S
C1290 C227 1.495 . S
C1299 C271 1.495 . S
C1301 C248 1.497 . S
C1310 C292 1.495 . S
C1312 C182 1.501 . S
