# Generated by pormake.
# Topology whp, (6)-cn, num edge types: 1
# Building blocks:
#     Node 0, Type 0, BuildingBlock: IZENUY_clean_sbu_0, # of connection points: 6
#     Node 1, Type 0, BuildingBlock: IZENUY_clean_sbu_0, # of connection points: 6
#     Node 2, Type 0, BuildingBlock: IZENUY_clean_sbu_0, # of connection points: 6
#     Node 3, Type 0, BuildingBlock: IZENUY_clean_sbu_0, # of connection points: 6
#     Node 4, Type 0, BuildingBlock: IZENUY_clean_sbu_0, # of connection points: 6
#     Node 5, Type 0, BuildingBlock: IZENUY_clean_sbu_0, # of connection points: 6
#     Node 6, Type 0, BuildingBlock: IZENUY_clean_sbu_0, # of connection points: 6
#     Node 7, Type 0, BuildingBlock: IZENUY_clean_sbu_0, # of connection points: 6
#     Node 8, Type 0, BuildingBlock: IZENUY_clean_sbu_0, # of connection points: 6
#     Node 9, Type 0, BuildingBlock: IZENUY_clean_sbu_0, # of connection points: 6
#     Node 10, Type 0, BuildingBlock: IZENUY_clean_sbu_0, # of connection points: 6
#     Node 11, Type 0, BuildingBlock: IZENUY_clean_sbu_0, # of connection points: 6
#     Node 12, Type 0, BuildingBlock: IZENUY_clean_sbu_0, # of connection points: 6
#     Node 13, Type 0, BuildingBlock: IZENUY_clean_sbu_0, # of connection points: 6
#     Node 14, Type 0, BuildingBlock: IZENUY_clean_sbu_0, # of connection points: 6
#     Node 15, Type 0, BuildingBlock: IZENUY_clean_sbu_0, # of connection points: 6
#     Edge 16, Type (0, 0), BuildingBlock: AJUNOK_clean_linker_0, # of connection points: 2
#     Edge 17, Type (0, 0), BuildingBlock: AJUNOK_clean_linker_0, # of connection points: 2
#     Edge 18, Type (0, 0), BuildingBlock: AJUNOK_clean_linker_0, # of connection points: 2
#     Edge 19, Type (0, 0), BuildingBlock: AJUNOK_clean_linker_0, # of connection points: 2
#     Edge 20, Type (0, 0), BuildingBlock: AJUNOK_clean_linker_0, # of connection points: 2
#     Edge 21, Type (0, 0), BuildingBlock: AJUNOK_clean_linker_0, # of connection points: 2
#     Edge 22, Type (0, 0), BuildingBlock: AJUNOK_clean_linker_0, # of connection points: 2
#     Edge 23, Type (0, 0), BuildingBlock: AJUNOK_clean_linker_0, # of connection points: 2
#     Edge 24, Type (0, 0), BuildingBlock: AJUNOK_clean_linker_0, # of connection points: 2
#     Edge 25, Type (0, 0), BuildingBlock: AJUNOK_clean_linker_0, # of connection points: 2
#     Edge 26, Type (0, 0), BuildingBlock: AJUNOK_clean_linker_0, # of connection points: 2
#     Edge 27, Type (0, 0), BuildingBlock: AJUNOK_clean_linker_0, # of connection points: 2
#     Edge 28, Type (0, 0), BuildingBlock: AJUNOK_clean_linker_0, # of connection points: 2
#     Edge 29, Type (0, 0), BuildingBlock: AJUNOK_clean_linker_0, # of connection points: 2
#     Edge 30, Type (0, 0), BuildingBlock: AJUNOK_clean_linker_0, # of connection points: 2
#     Edge 31, Type (0, 0), BuildingBlock: AJUNOK_clean_linker_0, # of connection points: 2
#     Edge 32, Type (0, 0), BuildingBlock: AJUNOK_clean_linker_0, # of connection points: 2
#     Edge 33, Type (0, 0), BuildingBlock: AJUNOK_clean_linker_0, # of connection points: 2
#     Edge 34, Type (0, 0), BuildingBlock: AJUNOK_clean_linker_0, # of connection points: 2
#     Edge 35, Type (0, 0), BuildingBlock: AJUNOK_clean_linker_0, # of connection points: 2
#     Edge 36, Type (0, 0), BuildingBlock: AJUNOK_clean_linker_0, # of connection points: 2
#     Edge 37, Type (0, 0), BuildingBlock: AJUNOK_clean_linker_0, # of connection points: 2
#     Edge 38, Type (0, 0), BuildingBlock: AJUNOK_clean_linker_0, # of connection points: 2
#     Edge 39, Type (0, 0), BuildingBlock: AJUNOK_clean_linker_0, # of connection points: 2
#     Edge 40, Type (0, 0), BuildingBlock: AJUNOK_clean_linker_0, # of connection points: 2
#     Edge 41, Type (0, 0), BuildingBlock: AJUNOK_clean_linker_0, # of connection points: 2
#     Edge 42, Type (0, 0), BuildingBlock: AJUNOK_clean_linker_0, # of connection points: 2
#     Edge 43, Type (0, 0), BuildingBlock: AJUNOK_clean_linker_0, # of connection points: 2
#     Edge 44, Type (0, 0), BuildingBlock: AJUNOK_clean_linker_0, # of connection points: 2
#     Edge 45, Type (0, 0), BuildingBlock: AJUNOK_clean_linker_0, # of connection points: 2
#     Edge 46, Type (0, 0), BuildingBlock: AJUNOK_clean_linker_0, # of connection points: 2
#     Edge 47, Type (0, 0), BuildingBlock: AJUNOK_clean_linker_0, # of connection points: 2
#     Edge 48, Type (0, 0), BuildingBlock: AJUNOK_clean_linker_0, # of connection points: 2
#     Edge 49, Type (0, 0), BuildingBlock: AJUNOK_clean_linker_0, # of connection points: 2
#     Edge 50, Type (0, 0), BuildingBlock: AJUNOK_clean_linker_0, # of connection points: 2
#     Edge 51, Type (0, 0), BuildingBlock: AJUNOK_clean_linker_0, # of connection points: 2
#     Edge 52, Type (0, 0), BuildingBlock: AJUNOK_clean_linker_0, # of connection points: 2
#     Edge 53, Type (0, 0), BuildingBlock: AJUNOK_clean_linker_0, # of connection points: 2
#     Edge 54, Type (0, 0), BuildingBlock: AJUNOK_clean_linker_0, # of connection points: 2
#     Edge 55, Type (0, 0), BuildingBlock: AJUNOK_clean_linker_0, # of connection points: 2
#     Edge 56, Type (0, 0), BuildingBlock: AJUNOK_clean_linker_0, # of connection points: 2
#     Edge 57, Type (0, 0), BuildingBlock: AJUNOK_clean_linker_0, # of connection points: 2
#     Edge 58, Type (0, 0), BuildingBlock: AJUNOK_clean_linker_0, # of connection points: 2
#     Edge 59, Type (0, 0), BuildingBlock: AJUNOK_clean_linker_0, # of connection points: 2
#     Edge 60, Type (0, 0), BuildingBlock: AJUNOK_clean_linker_0, # of connection points: 2
#     Edge 61, Type (0, 0), BuildingBlock: AJUNOK_clean_linker_0, # of connection points: 2
#     Edge 62, Type (0, 0), BuildingBlock: AJUNOK_clean_linker_0, # of connection points: 2
#     Edge 63, Type (0, 0), BuildingBlock: AJUNOK_clean_linker_0, # of connection points: 2
# Relax obj value: 0.322
# Max RMSD: 0.246
# Mean RMSD: 0.246
data_MOF--net-whp--node1-IZENUY_clean_sbu_0--edge1-AJUNOK_clean_linker_0
_symmetry_space_group_name_H-M    P1
_symmetry_Int_Tables_number       1
_symmetry_cell_setting            triclinic
loop_
_symmetry_equiv_pos_as_xyz
'x, y, z'
_cell_length_a     35.428536
_cell_length_b     35.425969
_cell_length_c     21.187394
_cell_angle_alpha  90.057804
_cell_angle_beta   89.963456
_cell_angle_gamma 90.002491
loop_
_atom_site_label
_atom_site_type_symbol
_atom_site_fract_x
_atom_site_fract_y
_atom_site_fract_z
_atom_type_partial_charge
Fe0 Fe 0.36647 0.53809 0.29971 0.0
Fe1 Fe 0.31623 0.58407 0.38877 0.0
O2 O 0.32321 0.54373 0.34094 0.0
Fe3 Fe 0.28656 0.50966 0.33552 0.0
O4 O 0.28363 0.51559 0.25187 0.0
O5 O 0.3443 0.5172 0.22818 0.0
O6 O 0.36246 0.58344 0.26047 0.0
C7 C 0.36175 0.61421 0.29006 0.0
C8 C 0.35388 0.46465 0.33752 0.0
O9 O 0.34856 0.61539 0.34542 0.0
C10 C 0.2783 0.5277 0.45878 0.0
O11 O 0.39511 0.55837 0.3648 0.0
O12 O 0.35368 0.56914 0.44078 0.0
O13 O 0.31856 0.46794 0.32812 0.0
O14 O 0.37527 0.49286 0.33533 0.0
C15 C 0.2489 0.58118 0.32848 0.0
O16 O 0.28249 0.56183 0.44315 0.0
O17 O 0.28639 0.50172 0.42045 0.0
C18 C 0.38733 0.56411 0.4228 0.0
O19 O 0.27856 0.60013 0.33806 0.0
O20 O 0.24809 0.54576 0.33995 0.0
C21 C 0.30976 0.51585 0.2118 0.0
Fe22 Fe 0.0205 0.28602 0.83302 0.0
Fe23 Fe 0.99181 0.36703 0.80401 0.0
O24 O 0.98646 0.32257 0.84145 0.0
Fe25 Fe 0.94642 0.31463 0.88957 0.0
O26 O 0.92961 0.279 0.83598 0.0
O27 O 0.98373 0.24787 0.83268 0.0
O28 O 0.01618 0.2859 0.74844 0.0
C29 C 0.01625 0.31356 0.71125 0.0
C30 C 1.00196 0.27405 0.95591 0.0
O31 O 1.01238 0.34727 0.73088 0.0
C32 C 0.96754 0.38425 0.9291 0.0
O33 O 0.06225 0.31815 0.83008 0.0
O34 O 0.03712 0.37476 0.83967 0.0
O35 O 0.96799 0.2788 0.94044 0.0
O36 O 0.02795 0.28293 0.91821 0.0
C37 C 0.91577 0.36256 0.79523 0.0
O38 O 0.97199 0.39367 0.87157 0.0
O39 O 0.96239 0.35017 0.94442 0.0
C40 C 0.06528 0.3533 0.84147 0.0
O41 O 0.94625 0.36419 0.76497 0.0
O42 O 0.9154 0.34862 0.84999 0.0
C43 C 0.94815 0.24969 0.82212 0.0
Fe44 Fe 0.24523 0.01918 0.33164 0.0
Fe45 Fe 0.16428 0.99067 0.30236 0.0
O46 O 0.20862 0.98516 0.33991 0.0
Fe47 Fe 0.21653 0.9449 0.38761 0.0
O48 O 0.25229 0.9284 0.33388 0.0
O49 O 0.28336 0.98257 0.3319 0.0
O50 O 0.24566 1.01465 0.24704 0.0
C51 C 0.21812 1.01462 0.20956 0.0
C52 C 0.25688 1.00069 0.45448 0.0
O53 O 0.18432 1.011 0.22908 0.0
C54 C 0.14697 0.96652 0.42776 0.0
O55 O 0.21329 0.06099 0.32807 0.0
O56 O 0.15661 0.03616 0.3379 0.0
O57 O 0.25219 0.96666 0.43892 0.0
O58 O 0.248 0.02668 0.41681 0.0
C59 C 0.16847 0.91446 0.29279 0.0
O60 O 0.13745 0.97107 0.3702 0.0
O61 O 0.18096 0.96052 0.4427 0.0
C62 C 0.17817 0.06427 0.33926 0.0
O63 O 0.16715 0.94515 0.26321 0.0
O64 O 0.18258 0.91364 0.34749 0.0
C65 C 0.28159 0.94711 0.32063 0.0
Fe66 Fe 0.51017 0.24846 0.82386 0.0
Fe67 Fe 0.54171 0.16749 0.80401 0.0
O68 O 0.54533 0.21358 0.83594 0.0
Fe69 Fe 0.58467 0.22476 0.88319 0.0
O70 O 0.60089 0.2583 0.82583 0.0
O71 O 0.54581 0.28771 0.82019 0.0
O72 O 0.51499 0.24562 0.73944 0.0
C73 C 0.51596 0.21658 0.70516 0.0
C74 C 0.52787 0.26559 0.94569 0.0
O75 O 0.52057 0.18373 0.72851 0.0
C76 C 0.56813 0.15669 0.93083 0.0
O77 O 0.46957 0.21474 0.8232 0.0
O78 O 0.49653 0.15968 0.84061 0.0
O79 O 0.56194 0.26216 0.92971 0.0
O80 O 0.50227 0.25423 0.90895 0.0
C81 C 0.61747 0.1734 0.79508 0.0
O82 O 0.56285 0.1442 0.87495 0.0
O83 O 0.56823 0.19168 0.94116 0.0
C84 C 0.46748 0.17997 0.83815 0.0
O85 O 0.5872 0.17075 0.76446 0.0
O86 O 0.61722 0.18973 0.84813 0.0
C87 C 0.58146 0.28653 0.80951 0.0
Fe88 Fe 0.81455 0.44449 0.15133 0.0
Fe89 Fe 0.78578 0.5187 0.20806 0.0
O90 O 0.82231 0.48461 0.19956 0.0
Fe91 Fe 0.86668 0.49011 0.2374 0.0
O92 O 0.8635 0.44479 0.27733 0.0
O93 O 0.8478 0.41323 0.19276 0.0
O94 O 0.7782 0.42791 0.20384 0.0
C95 C 0.74897 0.44654 0.21766 0.0
C96 C 0.88492 0.46444 0.11363 0.0
O97 O 0.74746 0.48218 0.20784 0.0
C98 C 0.85316 0.56337 0.19907 0.0
O99 O 0.77937 0.46644 0.09907 0.0
O100 O 0.78265 0.52631 0.12296 0.0
O101 O 0.89361 0.46961 0.17119 0.0
O102 O 0.85094 0.45982 0.09718 0.0
C103 C 0.81336 0.515 0.32979 0.0
O104 O 0.81808 0.56038 0.21122 0.0
O105 O 0.87457 0.53514 0.20058 0.0
C106 C 0.77415 0.50056 0.08443 0.0
O107 O 0.78557 0.51422 0.29283 0.0
O108 O 0.84697 0.51152 0.30974 0.0
C109 C 0.86143 0.41398 0.24785 0.0
Fe110 Fe 0.08549 0.81794 0.64558 0.0
Fe111 Fe 1.01187 0.78695 0.69997 0.0
O112 O 0.04563 0.82391 0.69501 0.0
Fe113 Fe 0.04036 0.86667 0.73793 0.0
O114 O 0.08618 0.86231 0.77533 0.0
O115 O 0.11686 0.85048 0.68837 0.0
O116 O 0.1027 0.78031 0.69482 0.0
C117 C 0.08434 0.75047 0.7059 0.0
C118 C 0.06427 0.88893 0.61421 0.0
O119 O 0.04872 0.74894 0.69549 0.0
C120 C 0.96668 0.85427 0.70015 0.0
O121 O 0.06354 0.78403 0.5914 0.0
O122 O 1.00368 0.78694 0.61517 0.0
O123 O 0.05956 0.89609 0.67275 0.0
O124 O 0.06913 0.85548 0.59507 0.0
C125 C 0.01871 0.80901 0.82462 0.0
O126 O 0.96994 0.81872 0.70727 0.0
O127 O 0.99471 0.87574 0.70447 0.0
C128 C 0.02946 0.779 0.57661 0.0
O129 O 0.01748 0.78351 0.78354 0.0
O130 O 0.02056 0.84374 0.80962 0.0
C131 C 0.11645 0.86259 0.74441 0.0
Fe132 Fe 0.72431 0.08234 0.15507 0.0
Fe133 Fe 0.74736 1.00613 0.20939 0.0
O134 O 0.7128 0.04208 0.19995 0.0
Fe135 Fe 0.66698 0.03806 0.23296 0.0
O136 O 0.67002 0.08266 0.27509 0.0
O137 O 0.69126 0.11453 0.1948 0.0
O138 O 0.75927 0.09598 0.21203 0.0
C139 C 0.7873 0.07559 0.22522 0.0
C140 C 0.65478 0.06785 0.10867 0.0
O141 O 0.78758 0.04042 0.21168 0.0
C142 C 0.67865 0.96444 0.19574 0.0
O143 O 0.75982 0.0592 0.10514 0.0
O144 O 0.75119 0.99921 0.12409 0.0
O145 O 0.6432 0.0608 0.16443 0.0
O146 O 0.68961 0.06953 0.09677 0.0
C147 C 0.71742 1.01153 0.32903 0.0
O148 O 0.71327 0.96607 0.21117 0.0
O149 O 0.65877 0.99373 0.19365 0.0
C150 C 0.76177 0.02523 0.08754 0.0
O151 O 0.74603 1.01058 0.29381 0.0
O152 O 0.68419 1.01558 0.3068 0.0
C153 C 0.67439 0.11366 0.24724 0.0
Fe154 Fe 0.51908 0.74543 0.70412 0.0
Fe155 Fe 0.49105 0.6644 0.73352 0.0
O156 O 0.48516 0.70873 0.69613 0.0
Fe157 Fe 0.44473 0.71652 0.64882 0.0
O158 O 0.42835 0.75242 0.70241 0.0
O159 O 0.48243 0.78355 0.70375 0.0
O160 O 0.51461 0.74592 0.78858 0.0
C161 C 0.51548 0.71832 0.82582 0.0
C162 C 0.50036 0.75654 0.58139 0.0
O163 O 0.51182 0.6845 0.80642 0.0
C164 C 0.46605 0.64685 0.60872 0.0
O165 O 0.56097 0.71363 0.70782 0.0
O166 O 0.53633 0.65694 0.69709 0.0
O167 O 0.46635 0.75199 0.59716 0.0
O168 O 0.52645 0.74797 0.61902 0.0
C169 C 0.41496 0.66868 0.74432 0.0
O170 O 0.47102 0.63745 0.66619 0.0
O171 O 0.46011 0.68083 0.59372 0.0
C172 C 0.56439 0.67859 0.69612 0.0
O173 O 0.44581 0.66719 0.7734 0.0
O174 O 0.41375 0.68271 0.6896 0.0
C175 C 0.44697 0.78185 0.71512 0.0
Fe176 Fe 0.74765 0.5243 0.71039 0.0
Fe177 Fe 0.66664 0.49334 0.73318 0.0
O178 O 0.71231 0.48938 0.69949 0.0
Fe179 Fe 0.72259 0.45006 0.6516 0.0
O180 O 0.7568 0.43366 0.70741 0.0
O181 O 0.78671 0.48844 0.71258 0.0
O182 O 0.74594 0.51937 0.79465 0.0
C183 C 0.71749 0.51845 0.83015 0.0
C184 C 0.76283 0.5066 0.58816 0.0
O185 O 0.68421 0.51406 0.80836 0.0
C186 C 0.65386 0.46681 0.6067 0.0
O187 O 0.71434 0.56512 0.71222 0.0
O188 O 0.65882 0.53857 0.69709 0.0
O189 O 0.75933 0.47256 0.60391 0.0
O190 O 0.75232 0.53229 0.62535 0.0
C191 C 0.67258 0.41752 0.74175 0.0
O192 O 0.64228 0.47235 0.66306 0.0
O193 O 0.68869 0.46655 0.59485 0.0
C194 C 0.67952 0.56734 0.69793 0.0
O195 O 0.66963 0.44781 0.77228 0.0
O196 O 0.68823 0.41784 0.68824 0.0
C197 C 0.78534 0.4528 0.72307 0.0
Fe198 Fe 1.01174 0.74346 0.20383 0.0
Fe199 Fe 0.03965 0.66264 0.23734 0.0
O200 O 0.04598 0.70665 0.19868 0.0
Fe201 Fe 0.08726 0.71408 0.15334 0.0
O202 O 0.10247 0.75104 0.20639 0.0
O203 O 0.04811 0.78166 0.20364 0.0
O204 O 1.01501 0.74476 0.28835 0.0
C205 C 1.01437 0.71764 0.32659 0.0
C206 C 0.03264 0.75235 0.08115 0.0
O207 O 0.01798 0.68359 0.30852 0.0
C208 C 0.06677 0.64376 0.11465 0.0
O209 O 0.9699 0.71149 0.20677 0.0
O210 O 0.99484 0.65472 0.19958 0.0
O211 O 0.06628 0.74835 0.09927 0.0
O212 O 1.00568 0.74559 0.11828 0.0
C213 C 0.11575 0.66684 0.25096 0.0
O214 O 0.06051 0.63494 0.17193 0.0
O215 O 0.07317 0.67752 0.09889 0.0
C216 C 0.96674 0.67623 0.19668 0.0
O217 O 0.08446 0.66549 0.2789 0.0
O218 O 0.11774 0.68105 0.19649 0.0
C219 C 0.08341 0.78063 0.21616 0.0
Fe220 Fe 0.78518 1.01151 0.70671 0.0
Fe221 Fe 0.86542 0.04197 0.73676 0.0
O222 O 0.82091 0.04652 0.69891 0.0
Fe223 Fe 0.81212 0.08665 0.65107 0.0
O224 O 0.77543 0.10247 0.70393 0.0
O225 O 0.74624 0.04715 0.70734 0.0
O226 O 0.78476 1.01549 0.79137 0.0
C227 C 0.81231 1.01566 0.82878 0.0
C228 C 0.77269 0.03011 0.58379 0.0
O229 O 0.84591 0.02088 0.8096 0.0
C230 C 0.88258 0.06716 0.61223 0.0
O231 O 0.81815 0.97047 0.70949 0.0
O232 O 0.87428 0.99669 0.70094 0.0
O233 O 0.77721 0.0642 0.59913 0.0
O234 O 0.78226 1.00429 0.62137 0.0
C235 C 0.85938 0.11809 0.7464 0.0
O236 O 0.89186 0.06244 0.66972 0.0
O237 O 0.84849 0.07195 0.59658 0.0
C238 C 0.85342 0.96804 0.69902 0.0
O239 O 0.86162 0.08745 0.77612 0.0
O240 O 0.84511 0.11852 0.69181 0.0
C241 C 0.74688 0.08275 0.71757 0.0
Fe242 Fe 0.48949 0.86519 0.23464 0.0
Fe243 Fe 0.44476 0.81269 0.14794 0.0
O244 O 0.48468 0.82096 0.1962 0.0
Fe245 Fe 0.51926 0.78487 0.20419 0.0
O246 O 0.51415 0.78392 0.28863 0.0
O247 O 0.51045 0.8452 0.30708 0.0
O248 O 0.44397 0.8615 0.27389 0.0
C249 C 0.41336 0.85937 0.24398 0.0
C250 C 0.56321 0.85258 0.19762 0.0
O251 O 0.41302 0.84551 0.18907 0.0
C252 C 0.50159 0.77395 0.08067 0.0
O253 O 0.46917 0.89208 0.16829 0.0
O254 O 0.45963 0.84937 0.09404 0.0
O255 O 0.56045 0.81747 0.20905 0.0
O256 O 0.53472 0.87366 0.19861 0.0
C257 C 0.44789 0.74682 0.21264 0.0
O258 O 0.46739 0.77803 0.09572 0.0
O259 O 0.52725 0.78272 0.11912 0.0
C260 C 0.46398 0.88337 0.11069 0.0
O261 O 0.4287 0.77595 0.20037 0.0
O262 O 0.48348 0.74612 0.20247 0.0
C263 C 0.51395 0.81141 0.32629 0.0
Fe264 Fe 0.1634 0.54071 0.80014 0.0
Fe265 Fe 0.21515 0.58745 0.88519 0.0
O266 O 0.20756 0.54661 0.83872 0.0
Fe267 Fe 0.24427 0.51232 0.83271 0.0
O268 O 0.24533 0.51586 0.7483 0.0
O269 O 0.18417 0.51952 0.72817 0.0
O270 O 0.16613 0.58588 0.75952 0.0
C271 C 0.16835 0.61699 0.78791 0.0
C272 C 0.1771 0.4675 0.8399 0.0
O273 O 0.18212 0.61831 0.84277 0.0
C274 C 0.25394 0.53226 0.95563 0.0
O275 O 0.13592 0.56111 0.86646 0.0
O276 O 0.17885 0.57283 0.93938 0.0
O277 O 0.21231 0.4706 0.82964 0.0
O278 O 0.15555 0.49558 0.83694 0.0
C279 C 0.28144 0.58403 0.82172 0.0
O280 O 0.24947 0.5661 0.93887 0.0
O281 O 0.24674 0.50572 0.91795 0.0
C282 C 0.14509 0.56629 0.92394 0.0
O283 O 0.25199 0.60311 0.83249 0.0
O284 O 0.28243 0.54861 0.83308 0.0
C285 C 0.21815 0.51505 0.71021 0.0
Fe286 Fe 0.94745 0.21638 0.39213 0.0
Fe287 Fe 0.02088 0.24539 0.33353 0.0
O288 O 0.98694 0.20876 0.34248 0.0
Fe289 Fe 0.99168 0.16458 0.30372 0.0
O290 O 0.94542 0.16775 0.26674 0.0
O291 O 0.91599 0.1825 0.3533 0.0
O292 O 0.92998 0.25234 0.33969 0.0
C293 C 0.94839 0.28168 0.32535 0.0
C294 C 0.96805 0.14626 0.42922 0.0
O295 O 0.98409 0.28346 0.3346 0.0
C296 C 0.06573 0.17803 0.33913 0.0
O297 O 0.96949 0.25201 0.44276 0.0
O298 O 0.0292 0.24837 0.41852 0.0
O299 O 0.97286 0.13752 0.37144 0.0
O300 O 0.96396 0.18034 0.44585 0.0
C301 C 1.01509 0.21853 0.2112 0.0
O302 O 0.06259 0.21331 0.32922 0.0
O303 O 0.03758 0.15652 0.33716 0.0
C304 C 1.00358 0.25721 0.45695 0.0
O305 O 1.0158 0.24591 0.24902 0.0
O306 O 1.01114 0.18475 0.23021 0.0
C307 C 0.91552 0.16825 0.2988 0.0
Fe308 Fe 0.36684 0.99097 0.80132 0.0
Fe309 Fe 0.31339 0.94623 0.88625 0.0
O310 O 0.32231 0.98639 0.8389 0.0
Fe311 Fe 0.28648 0.02125 0.8311 0.0
O312 O 0.28601 0.01686 0.74649 0.0
O313 O 0.34725 1.01174 0.72824 0.0
O314 O 0.36331 0.94547 0.76194 0.0
C315 C 0.36074 0.91482 0.79147 0.0
C316 C 0.35456 0.06497 0.83807 0.0
O317 O 0.34663 0.91446 0.84612 0.0
C318 C 0.27414 1.00252 0.95385 0.0
O319 O 0.39309 0.97063 0.86882 0.0
O320 O 0.34926 0.96093 0.94129 0.0
O321 O 0.31932 0.06238 0.82758 0.0
O322 O 0.37544 0.03633 0.83703 0.0
C323 C 0.24835 0.94999 0.81995 0.0
O324 O 0.27817 0.96851 0.93775 0.0
O325 O 0.28373 0.02854 0.91657 0.0
C326 C 0.38342 0.96579 0.92619 0.0
O327 O 0.27733 0.93062 0.83235 0.0
O328 O 0.2476 0.98551 0.83112 0.0
C329 C 0.31352 0.01594 0.70891 0.0
Fe330 Fe 0.51083 0.28275 0.32441 0.0
Fe331 Fe 0.54034 0.36438 0.30355 0.0
O332 O 0.54528 0.31848 0.33604 0.0
Fe333 Fe 0.58501 0.30843 0.3831 0.0
O334 O 0.60145 0.27428 0.32696 0.0
O335 O 0.54704 0.24391 0.32162 0.0
O336 O 0.51579 0.28524 0.23992 0.0
C337 C 0.51549 0.31422 0.20554 0.0
C338 C 0.52878 0.26693 0.44662 0.0
O339 O 0.5188 0.34725 0.22887 0.0
C340 C 0.56763 0.37703 0.42915 0.0
O341 O 0.46955 0.31576 0.32323 0.0
O342 O 0.4954 0.37126 0.34148 0.0
O343 O 0.56285 0.27154 0.43133 0.0
O344 O 0.50297 0.27725 0.40947 0.0
C345 C 0.61627 0.35872 0.29186 0.0
O346 O 0.56175 0.38863 0.37306 0.0
O347 O 0.56895 0.34219 0.44064 0.0
C348 C 0.46678 0.35038 0.33902 0.0
O349 O 0.58549 0.36223 0.26288 0.0
O350 O 0.61673 0.34299 0.34538 0.0
C351 C 0.58276 0.24537 0.3118 0.0
C352 C 0.41329 0.56726 0.53165 0.0
C353 C 0.41709 0.57605 0.46719 0.0
C354 C 0.43299 0.58764 0.57785 0.0
C355 C 0.45645 0.61802 0.56098 0.0
H356 H 0.39277 0.54642 0.54669 0.0
H357 H 0.42689 0.58196 0.62706 0.0
S358 S 0.48028 0.64863 0.39842 0.0
N359 N 0.44988 0.61378 0.38857 0.0
N360 N 0.48629 0.65264 0.47545 0.0
C361 C 0.46325 0.62466 0.49653 0.0
C362 C 0.44372 0.60348 0.4495 0.0
C363 C 0.90955 0.46048 1.00394 0.0
C364 C 0.91428 0.45269 0.0685 0.0
C365 C 0.9306 0.44114 0.95822 0.0
C366 C 0.95636 0.41285 0.97583 0.0
H367 H 0.88766 0.47975 0.98855 0.0
H368 H 0.92396 0.44579 0.90892 0.0
S369 S 0.98282 0.38557 0.13866 0.0
N370 N 0.95 0.41823 0.14789 0.0
N371 N 0.98885 0.38124 0.0617 0.0
C372 C 0.96379 0.40729 0.04022 0.0
C373 C 0.94288 0.42742 0.08676 0.0
C374 C 0.06649 0.91574 0.50597 0.0
C375 C 0.07592 0.91904 0.57026 0.0
C376 C 0.08703 0.93505 0.45951 0.0
C377 C 0.11816 0.95762 0.47595 0.0
H378 H 0.0451 0.89574 0.49116 0.0
H379 H 0.08084 0.92921 0.41038 0.0
S380 S 0.15038 0.98039 0.63813 0.0
N381 N 0.11491 0.95077 0.64841 0.0
N382 N 0.154 0.9865 0.56108 0.0
C383 C 0.12535 0.96417 0.54034 0.0
C384 C 0.10404 0.94501 0.58763 0.0
C385 C 0.57864 0.09552 0.99014 0.0
C386 C 0.58822 0.13343 0.97799 0.0
C387 C 0.59929 0.07402 0.03437 0.0
C388 C 0.63053 0.08975 0.06584 0.0
H389 H 0.55514 0.08259 0.96561 0.0
H390 H 0.59147 0.0449 0.04276 0.0
S391 S 0.66838 0.18688 0.04808 0.0
N392 N 0.63168 0.18514 1.00054 0.0
N393 N 0.67042 0.1448 0.08078 0.0
C394 C 0.64034 0.12738 0.05347 0.0
C395 C 0.61923 0.14922 1.0102 0.0
C396 C 0.57423 0.43573 0.4966 0.0
C397 C 0.58847 0.40117 0.47386 0.0
C398 C 0.59486 0.45719 0.54107 0.0
C399 C 0.63045 0.44486 0.56226 0.0
H400 H 0.547 0.44584 0.48073 0.0
H401 H 0.58332 0.48362 0.55806 0.0
S402 S 0.67998 0.35654 0.51571 0.0
N403 N 0.64022 0.35603 0.47551 0.0
N404 N 0.67857 0.39581 0.55732 0.0
C405 C 0.64471 0.41041 0.53925 0.0
C406 C 0.62386 0.38875 0.49531 0.0
C407 C 0.08719 0.60063 0.95654 0.0
C408 C 0.11621 0.57518 0.97165 0.0
C409 C 0.06802 0.62025 1.00424 0.0
C410 C 0.07691 0.61451 0.06825 0.0
H411 H 0.08195 0.60834 0.90784 0.0
H412 H 0.04823 0.64214 0.99086 0.0
S413 S 0.14574 0.54562 0.13197 0.0
N414 N 0.14917 0.54122 0.05455 0.0
N415 N 0.11277 0.57776 0.14429 0.0
C416 C 0.10267 0.58591 0.08393 0.0
C417 C 0.12249 0.56631 0.03543 0.0
C418 C 0.96214 0.12172 0.5387 0.0
C419 C 0.95478 0.1173 0.47392 0.0
C420 C 0.94114 0.10194 0.58393 0.0
C421 C 0.91154 0.07783 0.56565 0.0
H422 H 0.98247 0.14252 0.55459 0.0
H423 H 0.94584 0.10827 0.63336 0.0
S424 S 0.88433 0.0527 0.40209 0.0
N425 N 0.91898 0.08347 0.39372 0.0
N426 N 0.87886 0.04716 0.47893 0.0
C427 C 0.9061 0.07072 0.50111 0.0
C428 C 0.92795 0.09024 0.45507 0.0
C429 C 0.44061 0.92931 0.95559 0.0
C430 C 0.41178 0.95449 0.97323 0.0
C431 C 0.46004 0.90835 1.00124 0.0
C432 C 0.45184 0.91263 0.06578 0.0
H433 H 0.44571 0.92308 0.90624 0.0
H434 H 0.4798 0.88689 0.98575 0.0
S435 S 0.38273 0.97917 0.13622 0.0
N436 N 0.37887 0.98569 0.05932 0.0
N437 N 0.41602 0.94702 0.14529 0.0
C438 C 0.42583 0.94054 0.08417 0.0
C439 C 0.4056 0.96133 0.03772 0.0
C440 C 0.37474 0.40028 0.29951 0.0
C441 C 0.37266 0.4275 0.34805 0.0
C442 C 0.40283 0.37176 0.29997 0.0
C443 C 0.42975 0.36966 0.34891 0.0
H444 H 0.35691 0.40309 0.25827 0.0
H445 H 0.40564 0.35364 0.25903 0.0
S446 S 0.4331 0.43108 0.49072 0.0
N447 N 0.39737 0.44779 0.44925 0.0
N448 N 0.4496 0.39482 0.45015 0.0
C449 C 0.42565 0.39472 0.40004 0.0
C450 C 0.3973 0.42346 0.39957 0.0
C451 C 0.12989 0.37364 0.80493 0.0
C452 C 0.10221 0.37219 0.85274 0.0
C453 C 0.15772 0.40235 0.80442 0.0
C454 C 0.1586 0.43044 0.85163 0.0
H455 H 0.12782 0.35489 0.76467 0.0
H456 H 0.17621 0.40464 0.76387 0.0
S457 S 0.09585 0.43584 0.99144 0.0
N458 N 0.08043 0.39871 0.95192 0.0
N459 N 0.1321 0.45221 0.95077 0.0
C460 C 0.13325 0.42702 0.90234 0.0
C461 C 0.10526 0.398 0.90297 0.0
C462 C 0.15824 0.12888 0.30199 0.0
C463 C 0.15965 0.10145 0.35014 0.0
C464 C 0.13017 0.15737 0.30198 0.0
C465 C 0.10274 0.15925 0.35017 0.0
H466 H 0.1765 0.12619 0.26121 0.0
H467 H 0.12775 0.1756 0.26117 0.0
S468 S 0.09759 0.09733 0.49093 0.0
N469 N 0.13382 0.08078 0.45036 0.0
N470 N 0.08163 0.13379 0.45041 0.0
C471 C 0.10623 0.13409 0.40112 0.0
C472 C 0.13452 0.10535 0.4011 0.0
C473 C 0.40113 0.10439 0.89608 0.0
C474 C 0.37398 0.1019 0.84779 0.0
C475 C 0.42882 0.13274 0.89617 0.0
C476 C 0.43084 0.15996 0.84785 0.0
H477 H 0.40273 0.08251 0.9317 0.0
H478 H 0.45068 0.13159 0.9319 0.0
S479 S 0.36442 0.16814 0.71337 0.0
N480 N 0.34895 0.13103 0.75297 0.0
N481 N 0.4012 0.18438 0.75298 0.0
C482 C 0.40203 0.15977 0.80205 0.0
C483 C 0.37358 0.13072 0.80203 0.0
C484 C 0.90207 0.6564 0.23408 0.0
C485 C 0.92963 0.65748 0.186 0.0
C486 C 0.87367 0.62824 0.23472 0.0
C487 C 0.87198 0.60033 0.18726 0.0
H488 H 0.90461 0.67506 0.27439 0.0
H489 H 0.85535 0.62616 0.27551 0.0
S490 S 0.93416 0.59414 0.04677 0.0
N491 N 0.95058 0.63074 0.08654 0.0
N492 N 0.89766 0.57845 0.08756 0.0
C493 C 0.89724 0.60346 0.13629 0.0
C494 C 0.92593 0.63182 0.13572 0.0
C495 C 0.90169 0.87467 0.73569 0.0
C496 C 0.92979 0.87329 0.68854 0.0
C497 C 0.87358 0.90316 0.73548 0.0
C498 C 0.87285 0.93123 0.68827 0.0
H499 H 0.90347 0.8559 0.7759 0.0
H500 H 0.85463 0.90527 0.77547 0.0
S501 S 0.9371 0.93711 0.55039 0.0
N502 N 0.95241 0.90011 0.59023 0.0
N503 N 0.9003 0.95318 0.59002 0.0
C504 C 0.89884 0.92801 0.63837 0.0
C505 C 0.92709 0.8992 0.63847 0.0
C506 C 0.6025 0.89866 0.13878 0.0
C507 C 0.60014 0.87162 0.18723 0.0
C508 C 0.63094 0.9262 0.13828 0.0
C509 C 0.65835 0.92805 0.18627 0.0
H510 H 0.58044 0.90033 0.10347 0.0
H511 H 0.62974 0.94806 0.10257 0.0
S512 S 0.66712 0.86154 0.32047 0.0
N513 N 0.62968 0.8463 0.28149 0.0
N514 N 0.6833 0.89825 0.28063 0.0
C515 C 0.65837 0.89922 0.232 0.0
C516 C 0.62921 0.87096 0.23248 0.0
C517 C 0.62918 0.65948 0.73376 0.0
C518 C 0.60168 0.66025 0.68565 0.0
C519 C 0.65797 0.63173 0.7342 0.0
C520 C 0.66005 0.60397 0.68654 0.0
H521 H 0.62635 0.67802 0.77417 0.0
H522 H 0.6763 0.62982 0.77496 0.0
S523 S 0.59823 0.59742 0.54573 0.0
N524 N 0.58127 0.63365 0.58581 0.0
N525 N 0.63485 0.58207 0.58652 0.0
C526 C 0.63484 0.60689 0.63551 0.0
C527 C 0.6058 0.63486 0.63511 0.0
C528 C 0.25324 0.54623 0.06986 0.0
C529 C 0.26854 0.52521 0.01987 0.0
C530 C 0.26732 0.54286 0.1311 0.0
C531 C 0.298 0.51899 0.14496 0.0
H532 H 0.23 0.5655 0.06159 0.0
H533 H 0.25417 0.5595 0.16804 0.0
S534 S 0.34926 0.45888 0.03026 0.0
N535 N 0.31642 0.47998 0.98752 0.0
N536 N 0.34378 0.47437 0.10336 0.0
C537 C 0.31414 0.49817 0.09534 0.0
C538 C 0.2991 0.50099 0.03264 0.0
C539 C 0.04117 0.27485 0.62156 0.0
C540 C 0.01867 0.30519 0.64279 0.0
C541 C 0.03837 0.26113 0.55946 0.0
C542 C 1.01225 0.27666 0.51703 0.0
H543 H 0.06002 0.26063 0.65402 0.0
H544 H 0.05494 0.23672 0.54593 0.0
S545 S 0.94884 0.3581 0.54732 0.0
N546 N 0.97151 0.352 0.61465 0.0
N547 N 0.96541 0.32559 0.4987 0.0
C548 C 0.99093 0.30812 0.53663 0.0
C549 C 0.9944 0.3226 0.59931 0.0
C550 C 0.27123 0.03623 0.05786 0.0
C551 C 0.25516 1.01075 1.01477 0.0
C552 C 0.2576 0.03889 0.1201 0.0
C553 C 0.22678 0.01693 0.14102 0.0
H554 H 0.29591 0.05247 0.04463 0.0
H555 H 0.2722 0.05731 0.15285 0.0
S556 S 0.17262 0.9486 0.04423 0.0
N557 N 0.20542 0.96483 0.9959 0.0
N558 N 0.17916 0.97078 0.11197 0.0
C559 C 0.20899 0.99319 0.09705 0.0
C560 C 0.22339 0.98981 0.03421 0.0
C561 C 0.49267 0.26316 0.54846 0.0
C562 C 0.52034 0.24829 0.50791 0.0
C563 C 0.48976 0.25085 0.61144 0.0
C564 C 0.51368 0.22251 0.63576 0.0
H565 H 0.47487 0.28618 0.53277 0.0
H566 H 0.46966 0.26478 0.64219 0.0
S567 S 0.5879 0.17155 0.5465 0.0
N568 N 0.5702 0.20172 0.49501 0.0
N569 N 0.5639 0.178 0.61252 0.0
C570 C 0.53956 0.20555 0.5943 0.0
C571 C 0.54312 0.21863 0.53066 0.0
C572 C 0.77454 0.53986 0.41969 0.0
C573 C 0.80565 0.51844 0.39843 0.0
C574 C 0.76259 0.53854 0.48296 0.0
C575 C 0.78078 0.51504 0.52673 0.0
H576 H 0.75847 0.55673 0.38662 0.0
H577 H 0.73748 0.554 0.49661 0.0
S578 S 0.86493 0.4553 0.49652 0.0
N579 N 0.85586 0.47514 0.42766 0.0
N580 N 0.83273 0.47175 0.54582 0.0
C581 C 0.8129 0.49487 0.50685 0.0
C582 C 0.82555 0.49684 0.4429 0.0
C583 C 1.0009 0.81208 0.94064 0.0
C584 C 0.02209 0.79618 0.89102 0.0
C585 C 1.0028 0.79693 1.00232 0.0
C586 C 0.02647 0.766 1.016 0.0
H587 H 0.98239 0.83579 0.93155 0.0
H588 H 0.98649 0.81002 0.03965 0.0
S589 S 0.08801 0.71485 0.90314 0.0
N590 N 0.06755 0.74798 0.8605 0.0
N591 N 0.07135 0.72038 0.97522 0.0
C592 C 0.04779 0.75028 0.96682 0.0
C593 C 0.04558 0.76516 0.90468 0.0
C594 C 0.75262 0.98698 0.42282 0.0
C595 C 0.72445 1.01091 0.39807 0.0
C596 C 0.76651 0.99172 0.48455 0.0
C597 C 0.75355 0.02132 0.52308 0.0
H598 H 0.76516 0.9654 0.39323 0.0
H599 H 0.78911 0.97355 0.50073 0.0
S600 S 0.67852 0.09034 0.48218 0.0
N601 N 0.68249 0.06365 0.41856 0.0
N602 N 0.70922 0.0734 0.53349 0.0
C603 C 0.72429 0.04442 0.49981 0.0
C604 C 0.70953 0.03897 0.43764 0.0
C605 C 0.48784 0.72565 0.99769 0.0
C606 C 0.51054 0.75562 1.0196 0.0
C607 C 0.49189 0.71121 0.93627 0.0
C608 C 0.51817 0.72688 0.8941 0.0
H609 H 0.46593 0.71406 0.02767 0.0
H610 H 0.47262 0.68942 0.9204 0.0
S611 S 0.58606 0.80382 0.92961 0.0
N612 N 0.56202 0.79849 0.99584 0.0
N613 N 0.56885 0.77235 0.8797 0.0
C614 C 0.54217 0.75567 0.91638 0.0
C615 C 0.5386 0.76976 0.97935 0.0
C616 C 0.71283 0.48973 0.93766 0.0
C617 C 0.72492 0.51963 0.89908 0.0
C618 C 0.72802 0.48452 0.99843 0.0
C619 C 0.75528 0.50946 0.02343 0.0
H620 H 0.6935 0.46875 0.9192 0.0
H621 H 0.71912 0.46012 0.02539 0.0
S622 S 0.79398 0.5939 0.94309 0.0
N623 N 0.76435 0.57554 0.89127 0.0
N624 N 0.79179 0.5665 1.00603 0.0
C625 C 0.76581 0.54075 0.98676 0.0
C626 C 0.75096 0.54559 0.92447 0.0
C627 C 0.9902 0.758 0.41436 0.0
C628 C 1.01237 0.72714 0.39444 0.0
C629 C 0.99398 0.77327 0.47521 0.0
C630 C 0.02083 0.75882 0.5174 0.0
H631 H 0.9709 0.77144 0.3817 0.0
H632 H 0.97751 0.79792 0.48787 0.0
S633 S 0.08352 0.67643 0.49048 0.0
N634 N 0.05986 0.68091 0.42375 0.0
N635 N 0.0678 0.71024 0.53738 0.0
C636 C 0.0418 0.72685 0.49928 0.0
C637 C 0.03731 0.71077 0.43797 0.0
C638 C 0.80905 0.03903 1.00311 0.0
C639 C 0.77862 0.017 0.02503 0.0
C640 C 0.82188 0.03631 0.94052 0.0
C641 C 0.80405 1.01216 0.89715 0.0
H642 H 0.82231 0.05945 0.03411 0.0
H643 H 0.84429 0.05495 0.92506 0.0
S644 S 0.72474 0.94687 0.93182 0.0
N645 N 0.7327 0.96852 0.99961 0.0
N646 N 0.75588 0.96413 0.88146 0.0
C647 C 0.77462 0.98886 0.91919 0.0
C648 C 0.76216 0.99105 0.98329 0.0
C649 C 0.53749 0.7721 0.41598 0.0
C650 C 0.51571 0.80287 0.39462 0.0
C651 C 0.53438 0.75873 0.47816 0.0
C652 C 0.50863 0.77506 0.52051 0.0
H653 H 0.55612 0.7574 0.38367 0.0
H654 H 0.55051 0.7341 0.49195 0.0
S655 S 0.44684 0.85755 0.48964 0.0
N656 N 0.46943 0.85072 0.42235 0.0
N657 N 0.46271 0.8249 0.5385 0.0
C658 C 0.48787 0.80675 0.50067 0.0
C659 C 0.49167 0.8209 0.43791 0.0
C660 C 0.21302 0.53824 0.59952 0.0
C661 C 0.22764 0.51186 0.64246 0.0
C662 C 0.22875 0.54214 0.53904 0.0
C663 C 0.25901 0.51922 0.51899 0.0
H664 H 0.19112 0.55772 0.61417 0.0
H665 H 0.21791 0.56408 0.50838 0.0
S666 S 0.30468 0.44329 0.61138 0.0
N667 N 0.27233 0.46077 0.65945 0.0
N668 N 0.30093 0.46737 0.54494 0.0
C669 C 0.27207 0.49103 0.55985 0.0
C670 C 0.25664 0.48757 0.62187 0.0
C671 C 0.03892 0.25785 0.12144 0.0
C672 C 0.01681 0.22728 0.14279 0.0
C673 C 0.03604 0.27131 0.05922 0.0
C674 C 1.0102 0.25529 1.01673 0.0
H675 H 0.05768 0.27234 0.15377 0.0
H676 H 0.05242 0.2958 0.04553 0.0
S677 S 0.94743 0.17348 0.04759 0.0
N678 N 0.97002 0.18001 0.1149 0.0
N679 N 0.96373 0.20595 0.99877 0.0
C680 C 0.98906 0.22381 0.03661 0.0
C681 C 0.99263 0.20958 0.09941 0.0
C682 C 0.26059 0.0359 0.55683 0.0
C683 C 0.2759 1.00914 0.51511 0.0
C684 C 0.27449 0.03953 0.61869 0.0
C685 C 0.30485 0.01728 0.64043 0.0
H686 H 0.23632 0.05251 0.54287 0.0
H687 H 0.26047 0.05894 0.65053 0.0
S688 S 0.35704 0.94571 0.54704 0.0
N689 N 0.32447 0.96173 0.49816 0.0
N690 N 0.35125 0.96939 0.61356 0.0
C691 C 0.3219 0.99218 0.5977 0.0
C692 C 0.3072 0.98785 0.5353 0.0
C693 C 0.4928 0.26715 0.04868 0.0
C694 C 0.5192 0.28358 1.00749 0.0
C695 C 0.49012 0.27891 0.11203 0.0
C696 C 0.51297 0.30822 0.13614 0.0
H697 H 0.47592 0.24341 0.03309 0.0
H698 H 0.47106 0.26389 0.14314 0.0
S699 S 0.58372 0.36302 0.04556 0.0
N700 N 0.56678 0.33239 0.994 0.0
N701 N 0.56082 0.35511 0.1122 0.0
C702 C 0.53754 0.32659 0.09419 0.0
C703 C 0.54091 0.31407 0.03015 0.0
C704 C 0.21727 0.63409 0.27123 0.0
C705 C 0.21415 0.60205 0.31013 0.0
C706 C 0.18545 0.65526 0.25389 0.0
C707 C 0.1491 0.64587 0.27575 0.0
H708 H 0.24459 0.64263 0.25317 0.0
H709 H 0.18941 0.67916 0.22272 0.0
S710 S 0.12573 0.56541 0.38112 0.0
N711 N 0.17188 0.56233 0.37126 0.0
N712 N 0.11206 0.60247 0.33976 0.0
C713 C 0.14563 0.61429 0.31583 0.0
C714 C 0.17808 0.59225 0.33256 0.0
C715 C 0.91347 0.14802 0.8056 0.0
C716 C 0.88056 0.15194 0.76864 0.0
C717 C 0.93608 0.17945 0.82116 0.0
C718 C 0.92627 0.21605 0.80125 0.0
H719 H 0.92236 0.12035 0.82142 0.0
H720 H 0.96097 0.17513 0.84993 0.0
S721 S 0.8428 0.24176 0.70437 0.0
N722 N 0.8395 0.19556 0.71287 0.0
N723 N 0.88133 0.25432 0.74277 0.0
C724 C 0.89329 0.22032 0.76481 0.0
C725 C 0.87065 0.18841 0.74837 0.0
C726 C 0.35154 0.93421 0.32267 0.0
C727 C 0.31531 0.92562 0.29959 0.0
C728 C 0.38297 0.91173 0.30679 0.0
C729 C 0.37939 0.88024 0.26639 0.0
H730 H 0.35552 0.958 0.35415 0.0
H731 H 0.41038 0.91963 0.32518 0.0
S732 S 0.29053 0.84642 0.19257 0.0
N733 N 0.27769 0.88367 0.23421 0.0
N734 N 0.33643 0.84198 0.20371 0.0
C735 C 0.34324 0.87162 0.24289 0.0
C736 C 0.31135 0.89415 0.25961 0.0
C737 C 0.59476 0.35627 0.81327 0.0
C738 C 0.6027 0.32032 0.78839 0.0
C739 C 0.61823 0.38738 0.79993 0.0
C740 C 0.6502 0.38374 0.76056 0.0
H741 H 0.57093 0.36018 0.84468 0.0
H742 H 0.61091 0.41456 0.81991 0.0
S743 S 0.6825 0.29549 0.68266 0.0
N744 N 0.64438 0.28288 0.72221 0.0
N745 N 0.68802 0.34102 0.69655 0.0
C746 C 0.65804 0.3479 0.73498 0.0
C747 C 0.63444 0.31633 0.74901 0.0
C748 C 0.67856 0.43535 0.21895 0.0
C749 C 0.71509 0.42484 0.23821 0.0
C750 C 0.64685 0.41308 0.23424 0.0
C751 C 0.65037 0.37982 0.27039 0.0
H752 H 0.6745 0.46056 0.19088 0.0
H753 H 0.61928 0.42248 0.21875 0.0
S754 S 0.73982 0.34014 0.33287 0.0
N755 N 0.75285 0.3788 0.29527 0.0
N756 N 0.69356 0.33763 0.32474 0.0
C757 C 0.68677 0.36918 0.29008 0.0
C758 C 0.71898 0.39148 0.27385 0.0
C759 C 0.09395 0.67971 0.71002 0.0
C760 C 0.10603 0.7164 0.72588 0.0
C761 C 0.11511 0.64766 0.72757 0.0
C762 C 0.14875 0.65103 0.76276 0.0
H763 H 0.06814 0.67573 0.68346 0.0
H764 H 0.10442 0.61999 0.71514 0.0
S765 S 0.19253 0.7406 0.81656 0.0
N766 N 0.1542 0.75399 0.77846 0.0
N767 N 0.19312 0.69408 0.81227 0.0
C768 C 0.16111 0.68753 0.77864 0.0
C769 C 0.14003 0.72006 0.75996 0.0
C770 C 0.85438 0.09634 0.21099 0.0
C771 C 0.82138 0.09527 0.24777 0.0
C772 C 0.8844 0.12068 0.2267 0.0
C773 C 0.88247 0.14465 0.2799 0.0
H774 H 0.85645 0.07929 0.16864 0.0
H775 H 0.90925 0.12064 0.19689 0.0
S776 S 0.80201 0.15042 0.3927 0.0
N777 N 0.78852 0.11895 0.33988 0.0
N778 N 0.84446 0.16425 0.37036 0.0
C779 C 0.84953 0.14306 0.31748 0.0
C780 C 0.81916 0.11849 0.30117 0.0
C781 C 0.41376 0.88398 0.73095 0.0
C782 C 0.3811 0.88064 0.76868 0.0
C783 C 0.43571 0.85216 0.71514 0.0
C784 C 0.42543 0.81577 0.73552 0.0
H785 H 0.423 0.91147 0.71482 0.0
H786 H 0.46053 0.85602 0.68595 0.0
S787 S 0.34212 0.79159 0.83399 0.0
N788 N 0.33955 0.83782 0.82529 0.0
N789 N 0.38021 0.77832 0.79495 0.0
C790 C 0.39259 0.81207 0.7725 0.0
C791 C 0.37061 0.84437 0.78919 0.0
C792 C 0.88655 0.4174 0.73751 0.0
C793 C 0.88231 0.38435 0.77393 0.0
C794 C 0.8554 0.44061 0.72327 0.0
C795 C 0.8189 0.43125 0.74425 0.0
H796 H 0.91422 0.42586 0.72099 0.0
H797 H 0.85979 0.46548 0.69448 0.0
S798 S 0.79257 0.34761 0.8402 0.0
N799 N 0.83859 0.34356 0.83015 0.0
N800 N 0.78036 0.38669 0.80313 0.0
C801 C 0.81436 0.39822 0.78036 0.0
C802 C 0.84593 0.3749 0.79521 0.0
C803 C 0.15652 0.84468 0.29257 0.0
C804 C 0.14754 0.88076 0.26915 0.0
C805 C 0.13556 0.81266 0.27519 0.0
C806 C 0.10413 0.81542 0.23482 0.0
H807 H 0.17998 0.84108 0.32477 0.0
H808 H 0.14378 0.78551 0.29426 0.0
S809 S 0.06903 0.90296 0.159 0.0
N810 N 0.10538 0.91705 0.20172 0.0
N811 N 0.06562 0.85698 0.17038 0.0
C812 C 0.09481 0.85121 0.2108 0.0
C813 C 0.11664 0.88379 0.22747 0.0
C814 C 0.68744 0.1181 0.69345 0.0
C815 C 0.71249 0.1029 0.73818 0.0
C816 C 0.65685 0.14096 0.71204 0.0
C817 C 0.65073 0.15015 0.77598 0.0
H818 H 0.69185 0.11276 0.64368 0.0
H819 H 0.63821 0.15198 0.67599 0.0
S820 S 0.70821 0.11601 0.91136 0.0
N821 N 0.72899 0.09757 0.8487 0.0
N822 N 0.67218 0.14069 0.88416 0.0
C823 C 0.67575 0.13479 0.82107 0.0
C824 C 0.70648 0.11117 0.80204 0.0
C825 C 0.39315 0.71575 0.26615 0.0
C826 C 0.42709 0.71222 0.23193 0.0
C827 C 0.37189 0.68398 0.28356 0.0
C828 C 0.38311 0.64736 0.26609 0.0
H829 H 0.38308 0.74337 0.28036 0.0
H830 H 0.3464 0.68816 0.31098 0.0
S831 S 0.4696 0.62252 0.17601 0.0
N832 N 0.471 0.66902 0.18137 0.0
N833 N 0.43069 0.60934 0.21289 0.0
C834 C 0.4168 0.64337 0.23127 0.0
C835 C 0.4389 0.67574 0.21464 0.0
C836 C 0.34508 0.65879 0.7493 0.0
C837 C 0.38149 0.64782 0.76837 0.0
C838 C 0.31306 0.63796 0.76687 0.0
C839 C 0.31616 0.60475 0.80299 0.0
H840 H 0.34126 0.68372 0.72041 0.0
H841 H 0.28563 0.64772 0.75121 0.0
S842 S 0.40494 0.56379 0.86551 0.0
N843 N 0.41869 0.6017 0.82642 0.0
N844 N 0.35856 0.56221 0.85828 0.0
C845 C 0.35236 0.5934 0.82248 0.0
C846 C 0.38497 0.61505 0.80562 0.0
C847 C 0.91577 0.38389 0.30588 0.0
C848 C 0.88199 0.38011 0.27122 0.0
C849 C 0.93779 0.35216 0.3219 0.0
C850 C 0.92649 0.31542 0.30486 0.0
H851 H 0.92582 0.41163 0.31927 0.0
H852 H 0.96352 0.35641 0.34858 0.0
S853 S 0.84002 0.29022 0.21504 0.0
N854 N 0.83833 0.33666 0.22091 0.0
N855 N 0.87903 0.27729 0.25168 0.0
C856 C 0.89253 0.31135 0.2709 0.0
C857 C 0.87049 0.34356 0.25394 0.0
C858 C 0.18599 0.87399 0.74838 0.0
C859 C 0.14946 0.88435 0.76765 0.0
C860 C 0.21756 0.89569 0.7651 0.0
C861 C 0.21386 0.92921 0.80041 0.0
H862 H 0.19024 0.84881 0.72017 0.0
H863 H 0.24517 0.88623 0.74972 0.0
S864 S 0.12427 0.96948 0.86108 0.0
N865 N 0.1113 0.93065 0.8237 0.0
N866 N 0.17062 0.97187 0.85377 0.0
C867 C 0.17746 0.94022 0.81937 0.0
C868 C 0.1453 0.91764 0.8035 0.0
C869 C 0.61782 0.1436 0.29976 0.0
C870 C 0.65237 0.14749 0.26714 0.0
C871 C 0.59442 0.17501 0.31192 0.0
C872 C 0.60492 0.21153 0.29256 0.0
H873 H 0.60833 0.11598 0.31484 0.0
H874 H 0.5684 0.17076 0.33781 0.0
S875 S 0.6928 0.23715 0.2068 0.0
N876 N 0.69589 0.19104 0.21661 0.0
N877 N 0.65236 0.24966 0.23936 0.0
C878 C 0.63949 0.21573 0.26029 0.0
C879 C 0.66306 0.1839 0.24768 0.0
loop_
_geom_bond_atom_site_label_1
_geom_bond_atom_site_label_2
_geom_bond_distance
_geom_bond_site_symmetry_2
_ccdc_geom_bond_type
Fe0 O2 1.918 . S
Fe0 O5 1.997 . S
Fe0 O6 2.002 . S
Fe0 O11 1.976 . S
Fe0 O14 1.996 . S
Fe1 O2 1.918 . S
Fe1 O9 1.997 . S
Fe1 O12 1.996 . S
Fe1 O16 1.976 . S
Fe1 O19 2.002 . S
O2 Fe0 1.918 . S
O2 Fe1 1.918 . S
O2 Fe3 1.918 . S
Fe3 O2 1.918 . S
Fe3 O4 2.002 . S
Fe3 O13 1.976 . S
Fe3 O17 1.996 . S
Fe3 O20 1.997 . S
O4 Fe3 2.002 . S
O4 C21 1.295 . S
O5 Fe0 1.997 . S
O5 C21 1.235 . S
O6 Fe0 2.002 . S
O6 C7 1.295 . S
C7 O6 1.295 . S
C7 O9 1.235 . S
C8 O13 1.287 . S
C8 O14 1.255 . S
O9 Fe1 1.997 . S
O9 C7 1.235 . S
C10 O16 1.287 . S
C10 O17 1.255 . S
O11 Fe0 1.976 . S
O11 C18 1.287 . S
O12 Fe1 1.996 . S
O12 C18 1.255 . S
O13 Fe3 1.976 . S
O13 C8 1.287 . S
O14 Fe0 1.996 . S
O14 C8 1.255 . S
C15 O19 1.295 . S
C15 O20 1.235 . S
O16 Fe1 1.976 . S
O16 C10 1.287 . S
O17 Fe3 1.996 . S
O17 C10 1.255 . S
C18 O11 1.287 . S
C18 O12 1.255 . S
O19 Fe1 2.002 . S
O19 C15 1.295 . S
O20 Fe3 1.997 . S
O20 C15 1.235 . S
C21 O4 1.295 . S
C21 O5 1.235 . S
Fe22 O24 1.918 1_455 S
Fe22 O27 1.997 1_455 S
Fe22 O28 2.002 . S
Fe22 O33 1.976 . S
Fe22 O36 1.996 . S
Fe23 O24 1.918 . S
Fe23 O31 1.997 . S
Fe23 O34 1.996 1_655 S
Fe23 O38 1.976 . S
Fe23 O41 2.002 . S
O24 Fe22 1.918 1_655 S
O24 Fe23 1.918 . S
O24 Fe25 1.918 . S
Fe25 O24 1.918 . S
Fe25 O26 2.002 . S
Fe25 O35 1.976 . S
Fe25 O39 1.996 . S
Fe25 O42 1.997 . S
O26 Fe25 2.002 . S
O26 C43 1.295 . S
O27 Fe22 1.997 1_655 S
O27 C43 1.235 . S
O28 Fe22 2.002 . S
O28 C29 1.290 1_455 S
C29 O28 1.290 1_655 S
C29 O31 1.241 . S
C30 O35 1.287 . S
C30 O36 1.255 1_655 S
O31 Fe23 1.997 . S
O31 C29 1.241 . S
C32 O38 1.287 . S
C32 O39 1.255 . S
O33 Fe22 1.976 . S
O33 C40 1.287 . S
O34 Fe23 1.996 1_455 S
O34 C40 1.255 . S
O35 Fe25 1.976 . S
O35 C30 1.287 . S
O36 Fe22 1.996 . S
O36 C30 1.255 1_455 S
C37 O41 1.295 . S
C37 O42 1.235 . S
O38 Fe23 1.976 . S
O38 C32 1.287 . S
O39 Fe25 1.996 . S
O39 C32 1.255 . S
C40 O33 1.287 . S
C40 O34 1.255 . S
O41 Fe23 2.002 . S
O41 C37 1.295 . S
O42 Fe25 1.997 . S
O42 C37 1.235 . S
C43 O26 1.295 . S
C43 O27 1.235 . S
Fe44 O46 1.918 1_545 S
Fe44 O49 1.997 1_545 S
Fe44 O50 2.002 . S
Fe44 O55 1.976 . S
Fe44 O58 1.996 . S
Fe45 O46 1.918 . S
Fe45 O53 1.997 . S
Fe45 O56 1.996 1_565 S
Fe45 O60 1.976 . S
Fe45 O63 2.002 . S
O46 Fe44 1.918 1_565 S
O46 Fe45 1.918 . S
O46 Fe47 1.918 . S
Fe47 O46 1.918 . S
Fe47 O48 2.002 . S
Fe47 O57 1.976 . S
Fe47 O61 1.996 . S
Fe47 O64 1.997 . S
O48 Fe47 2.002 . S
O48 C65 1.295 . S
O49 Fe44 1.997 1_565 S
O49 C65 1.235 . S
O50 Fe44 2.002 . S
O50 C51 1.290 1_545 S
C51 O50 1.290 1_565 S
C51 O53 1.241 . S
C52 O57 1.287 . S
C52 O58 1.255 1_565 S
O53 Fe45 1.997 . S
O53 C51 1.241 . S
C54 O60 1.287 . S
C54 O61 1.255 . S
O55 Fe44 1.976 . S
O55 C62 1.287 . S
O56 Fe45 1.996 1_545 S
O56 C62 1.255 . S
O57 Fe47 1.976 . S
O57 C52 1.287 . S
O58 Fe44 1.996 . S
O58 C52 1.255 1_545 S
C59 O63 1.295 . S
C59 O64 1.235 . S
O60 Fe45 1.976 . S
O60 C54 1.287 . S
O61 Fe47 1.996 . S
O61 C54 1.255 . S
C62 O55 1.287 . S
C62 O56 1.255 . S
O63 Fe45 2.002 . S
O63 C59 1.295 . S
O64 Fe47 1.997 . S
O64 C59 1.235 . S
C65 O48 1.295 . S
C65 O49 1.235 . S
Fe66 O68 1.918 . S
Fe66 O71 1.997 . S
Fe66 O72 2.002 . S
Fe66 O77 1.976 . S
Fe66 O80 1.996 . S
Fe67 O68 1.918 . S
Fe67 O75 1.997 . S
Fe67 O78 1.996 . S
Fe67 O82 1.976 . S
Fe67 O85 2.002 . S
O68 Fe66 1.918 . S
O68 Fe67 1.918 . S
O68 Fe69 1.918 . S
Fe69 O68 1.918 . S
Fe69 O70 2.002 . S
Fe69 O79 1.976 . S
Fe69 O83 1.996 . S
Fe69 O86 1.997 . S
O70 Fe69 2.002 . S
O70 C87 1.295 . S
O71 Fe66 1.997 . S
O71 C87 1.235 . S
O72 Fe66 2.002 . S
O72 C73 1.295 . S
C73 O72 1.295 . S
C73 O75 1.235 . S
C74 O79 1.287 . S
C74 O80 1.255 . S
O75 Fe67 1.997 . S
O75 C73 1.235 . S
C76 O82 1.287 . S
C76 O83 1.255 . S
O77 Fe66 1.976 . S
O77 C84 1.287 . S
O78 Fe67 1.996 . S
O78 C84 1.255 . S
O79 Fe69 1.976 . S
O79 C74 1.287 . S
O80 Fe66 1.996 . S
O80 C74 1.255 . S
C81 O85 1.295 . S
C81 O86 1.235 . S
O82 Fe67 1.976 . S
O82 C76 1.287 . S
O83 Fe69 1.996 . S
O83 C76 1.255 . S
C84 O77 1.287 . S
C84 O78 1.255 . S
O85 Fe67 2.002 . S
O85 C81 1.295 . S
O86 Fe69 1.997 . S
O86 C81 1.235 . S
C87 O70 1.295 . S
C87 O71 1.235 . S
Fe88 O90 1.918 . S
Fe88 O93 1.997 . S
Fe88 O94 2.002 . S
Fe88 O99 1.976 . S
Fe88 O102 1.996 . S
Fe89 O90 1.918 . S
Fe89 O97 1.997 . S
Fe89 O100 1.996 . S
Fe89 O104 1.976 . S
Fe89 O107 2.002 . S
O90 Fe88 1.918 . S
O90 Fe89 1.918 . S
O90 Fe91 1.918 . S
Fe91 O90 1.918 . S
Fe91 O92 2.002 . S
Fe91 O101 1.976 . S
Fe91 O105 1.996 . S
Fe91 O108 1.997 . S
O92 Fe91 2.002 . S
O92 C109 1.295 . S
O93 Fe88 1.997 . S
O93 C109 1.235 . S
O94 Fe88 2.002 . S
O94 C95 1.295 . S
C95 O94 1.295 . S
C95 O97 1.235 . S
C96 O101 1.287 . S
C96 O102 1.255 . S
O97 Fe89 1.997 . S
O97 C95 1.235 . S
C98 O104 1.287 . S
C98 O105 1.255 . S
O99 Fe88 1.976 . S
O99 C106 1.287 . S
O100 Fe89 1.996 . S
O100 C106 1.255 . S
O101 Fe91 1.976 . S
O101 C96 1.287 . S
O102 Fe88 1.996 . S
O102 C96 1.255 . S
C103 O107 1.295 . S
C103 O108 1.235 . S
O104 Fe89 1.976 . S
O104 C98 1.287 . S
O105 Fe91 1.996 . S
O105 C98 1.255 . S
C106 O99 1.287 . S
C106 O100 1.255 . S
O107 Fe89 2.002 . S
O107 C103 1.295 . S
O108 Fe91 1.997 . S
O108 C103 1.235 . S
C109 O92 1.295 . S
C109 O93 1.235 . S
Fe110 O112 1.918 . S
Fe110 O115 1.997 . S
Fe110 O116 2.002 . S
Fe110 O121 1.976 . S
Fe110 O124 1.996 . S
Fe111 O112 1.918 1_655 S
Fe111 O119 1.997 1_655 S
Fe111 O122 1.996 . S
Fe111 O126 1.976 . S
Fe111 O129 2.002 . S
O112 Fe110 1.918 . S
O112 Fe111 1.918 1_455 S
O112 Fe113 1.918 . S
Fe113 O112 1.918 . S
Fe113 O114 2.002 . S
Fe113 O123 1.976 . S
Fe113 O127 1.996 1_455 S
Fe113 O130 1.997 . S
O114 Fe113 2.002 . S
O114 C131 1.295 . S
O115 Fe110 1.997 . S
O115 C131 1.235 . S
O116 Fe110 2.002 . S
O116 C117 1.295 . S
C117 O116 1.295 . S
C117 O119 1.235 . S
C118 O123 1.287 . S
C118 O124 1.255 . S
O119 Fe111 1.997 1_455 S
O119 C117 1.235 . S
C120 O126 1.287 . S
C120 O127 1.255 . S
O121 Fe110 1.976 . S
O121 C128 1.287 . S
O122 Fe111 1.996 . S
O122 C128 1.255 1_655 S
O123 Fe113 1.976 . S
O123 C118 1.287 . S
O124 Fe110 1.996 . S
O124 C118 1.255 . S
C125 O129 1.290 1_455 S
C125 O130 1.241 . S
O126 Fe111 1.976 . S
O126 C120 1.287 . S
O127 Fe113 1.996 1_655 S
O127 C120 1.255 . S
C128 O121 1.287 . S
C128 O122 1.255 1_455 S
O129 Fe111 2.002 . S
O129 C125 1.290 1_655 S
O130 Fe113 1.997 . S
O130 C125 1.241 . S
C131 O114 1.295 . S
C131 O115 1.235 . S
Fe132 O134 1.918 . S
Fe132 O137 1.997 . S
Fe132 O138 2.002 . S
Fe132 O143 1.976 . S
Fe132 O146 1.996 . S
Fe133 O134 1.918 1_565 S
Fe133 O141 1.997 1_565 S
Fe133 O144 1.996 . S
Fe133 O148 1.976 . S
Fe133 O151 2.002 . S
O134 Fe132 1.918 . S
O134 Fe133 1.918 1_545 S
O134 Fe135 1.918 . S
Fe135 O134 1.918 . S
Fe135 O136 2.002 . S
Fe135 O145 1.976 . S
Fe135 O149 1.996 1_545 S
Fe135 O152 1.997 . S
O136 Fe135 2.002 . S
O136 C153 1.295 . S
O137 Fe132 1.997 . S
O137 C153 1.235 . S
O138 Fe132 2.002 . S
O138 C139 1.295 . S
C139 O138 1.295 . S
C139 O141 1.235 . S
C140 O145 1.287 . S
C140 O146 1.255 . S
O141 Fe133 1.997 1_545 S
O141 C139 1.235 . S
C142 O148 1.287 . S
C142 O149 1.255 . S
O143 Fe132 1.976 . S
O143 C150 1.287 . S
O144 Fe133 1.996 . S
O144 C150 1.255 1_565 S
O145 Fe135 1.976 . S
O145 C140 1.287 . S
O146 Fe132 1.996 . S
O146 C140 1.255 . S
C147 O151 1.290 1_545 S
C147 O152 1.241 . S
O148 Fe133 1.976 . S
O148 C142 1.287 . S
O149 Fe135 1.996 1_565 S
O149 C142 1.255 . S
C150 O143 1.287 . S
C150 O144 1.255 1_545 S
O151 Fe133 2.002 . S
O151 C147 1.290 1_565 S
O152 Fe135 1.997 . S
O152 C147 1.241 . S
C153 O136 1.295 . S
C153 O137 1.235 . S
Fe154 O156 1.918 . S
Fe154 O159 1.997 . S
Fe154 O160 2.002 . S
Fe154 O165 1.976 . S
Fe154 O168 1.996 . S
Fe155 O156 1.918 . S
Fe155 O163 1.997 . S
Fe155 O166 1.996 . S
Fe155 O170 1.976 . S
Fe155 O173 2.002 . S
O156 Fe154 1.918 . S
O156 Fe155 1.918 . S
O156 Fe157 1.918 . S
Fe157 O156 1.918 . S
Fe157 O158 2.002 . S
Fe157 O167 1.976 . S
Fe157 O171 1.996 . S
Fe157 O174 1.997 . S
O158 Fe157 2.002 . S
O158 C175 1.295 . S
O159 Fe154 1.997 . S
O159 C175 1.235 . S
O160 Fe154 2.002 . S
O160 C161 1.295 . S
C161 O160 1.295 . S
C161 O163 1.235 . S
C162 O167 1.287 . S
C162 O168 1.255 . S
O163 Fe155 1.997 . S
O163 C161 1.235 . S
C164 O170 1.287 . S
C164 O171 1.255 . S
O165 Fe154 1.976 . S
O165 C172 1.287 . S
O166 Fe155 1.996 . S
O166 C172 1.255 . S
O167 Fe157 1.976 . S
O167 C162 1.287 . S
O168 Fe154 1.996 . S
O168 C162 1.255 . S
C169 O173 1.295 . S
C169 O174 1.235 . S
O170 Fe155 1.976 . S
O170 C164 1.287 . S
O171 Fe157 1.996 . S
O171 C164 1.255 . S
C172 O165 1.287 . S
C172 O166 1.255 . S
O173 Fe155 2.002 . S
O173 C169 1.295 . S
O174 Fe157 1.997 . S
O174 C169 1.235 . S
C175 O158 1.295 . S
C175 O159 1.235 . S
Fe176 O178 1.918 . S
Fe176 O181 1.997 . S
Fe176 O182 2.002 . S
Fe176 O187 1.976 . S
Fe176 O190 1.996 . S
Fe177 O178 1.918 . S
Fe177 O185 1.997 . S
Fe177 O188 1.996 . S
Fe177 O192 1.976 . S
Fe177 O195 2.002 . S
O178 Fe176 1.918 . S
O178 Fe177 1.918 . S
O178 Fe179 1.918 . S
Fe179 O178 1.918 . S
Fe179 O180 2.002 . S
Fe179 O189 1.976 . S
Fe179 O193 1.996 . S
Fe179 O196 1.997 . S
O180 Fe179 2.002 . S
O180 C197 1.295 . S
O181 Fe176 1.997 . S
O181 C197 1.235 . S
O182 Fe176 2.002 . S
O182 C183 1.295 . S
C183 O182 1.295 . S
C183 O185 1.235 . S
C184 O189 1.287 . S
C184 O190 1.255 . S
O185 Fe177 1.997 . S
O185 C183 1.235 . S
C186 O192 1.287 . S
C186 O193 1.255 . S
O187 Fe176 1.976 . S
O187 C194 1.287 . S
O188 Fe177 1.996 . S
O188 C194 1.255 . S
O189 Fe179 1.976 . S
O189 C184 1.287 . S
O190 Fe176 1.996 . S
O190 C184 1.255 . S
C191 O195 1.295 . S
C191 O196 1.235 . S
O192 Fe177 1.976 . S
O192 C186 1.287 . S
O193 Fe179 1.996 . S
O193 C186 1.255 . S
C194 O187 1.287 . S
C194 O188 1.255 . S
O195 Fe177 2.002 . S
O195 C191 1.295 . S
O196 Fe179 1.997 . S
O196 C191 1.235 . S
C197 O180 1.295 . S
C197 O181 1.235 . S
Fe198 O200 1.918 1_655 S
Fe198 O203 1.997 1_655 S
Fe198 O204 2.002 . S
Fe198 O209 1.976 . S
Fe198 O212 1.996 . S
Fe199 O200 1.918 . S
Fe199 O207 1.997 . S
Fe199 O210 1.996 1_455 S
Fe199 O214 1.976 . S
Fe199 O217 2.002 . S
O200 Fe198 1.918 1_455 S
O200 Fe199 1.918 . S
O200 Fe201 1.918 . S
Fe201 O200 1.918 . S
Fe201 O202 2.002 . S
Fe201 O211 1.976 . S
Fe201 O215 1.996 . S
Fe201 O218 1.997 . S
O202 Fe201 2.002 . S
O202 C219 1.295 . S
O203 Fe198 1.997 1_455 S
O203 C219 1.235 . S
O204 Fe198 2.002 . S
O204 C205 1.290 1_655 S
C205 O204 1.290 1_455 S
C205 O207 1.241 . S
C206 O211 1.287 . S
C206 O212 1.255 1_455 S
O207 Fe199 1.997 . S
O207 C205 1.241 . S
C208 O214 1.287 . S
C208 O215 1.255 . S
O209 Fe198 1.976 . S
O209 C216 1.287 . S
O210 Fe199 1.996 1_655 S
O210 C216 1.255 . S
O211 Fe201 1.976 . S
O211 C206 1.287 . S
O212 Fe198 1.996 . S
O212 C206 1.255 1_655 S
C213 O217 1.295 . S
C213 O218 1.235 . S
O214 Fe199 1.976 . S
O214 C208 1.287 . S
O215 Fe201 1.996 . S
O215 C208 1.255 . S
C216 O209 1.287 . S
C216 O210 1.255 . S
O217 Fe199 2.002 . S
O217 C213 1.295 . S
O218 Fe201 1.997 . S
O218 C213 1.235 . S
C219 O202 1.295 . S
C219 O203 1.235 . S
Fe220 O222 1.918 1_565 S
Fe220 O225 1.997 1_565 S
Fe220 O226 2.002 . S
Fe220 O231 1.976 . S
Fe220 O234 1.996 . S
Fe221 O222 1.918 . S
Fe221 O229 1.997 . S
Fe221 O232 1.996 1_545 S
Fe221 O236 1.976 . S
Fe221 O239 2.002 . S
O222 Fe220 1.918 1_545 S
O222 Fe221 1.918 . S
O222 Fe223 1.918 . S
Fe223 O222 1.918 . S
Fe223 O224 2.002 . S
Fe223 O233 1.976 . S
Fe223 O237 1.996 . S
Fe223 O240 1.997 . S
O224 Fe223 2.002 . S
O224 C241 1.295 . S
O225 Fe220 1.997 1_545 S
O225 C241 1.235 . S
O226 Fe220 2.002 . S
O226 C227 1.290 1_565 S
C227 O226 1.290 1_545 S
C227 O229 1.241 . S
C228 O233 1.287 . S
C228 O234 1.255 1_545 S
O229 Fe221 1.997 . S
O229 C227 1.241 . S
C230 O236 1.287 . S
C230 O237 1.255 . S
O231 Fe220 1.976 . S
O231 C238 1.287 . S
O232 Fe221 1.996 1_565 S
O232 C238 1.255 . S
O233 Fe223 1.976 . S
O233 C228 1.287 . S
O234 Fe220 1.996 . S
O234 C228 1.255 1_565 S
C235 O239 1.295 . S
C235 O240 1.235 . S
O236 Fe221 1.976 . S
O236 C230 1.287 . S
O237 Fe223 1.996 . S
O237 C230 1.255 . S
C238 O231 1.287 . S
C238 O232 1.255 . S
O239 Fe221 2.002 . S
O239 C235 1.295 . S
O240 Fe223 1.997 . S
O240 C235 1.235 . S
C241 O224 1.295 . S
C241 O225 1.235 . S
Fe242 O244 1.918 . S
Fe242 O247 1.997 . S
Fe242 O248 2.002 . S
Fe242 O253 1.976 . S
Fe242 O256 1.996 . S
Fe243 O244 1.918 . S
Fe243 O251 1.997 . S
Fe243 O254 1.996 . S
Fe243 O258 1.976 . S
Fe243 O261 2.002 . S
O244 Fe242 1.918 . S
O244 Fe243 1.918 . S
O244 Fe245 1.918 . S
Fe245 O244 1.918 . S
Fe245 O246 2.002 . S
Fe245 O255 1.976 . S
Fe245 O259 1.996 . S
Fe245 O262 1.997 . S
O246 Fe245 2.002 . S
O246 C263 1.295 . S
O247 Fe242 1.997 . S
O247 C263 1.235 . S
O248 Fe242 2.002 . S
O248 C249 1.295 . S
C249 O248 1.295 . S
C249 O251 1.235 . S
C250 O255 1.287 . S
C250 O256 1.255 . S
O251 Fe243 1.997 . S
O251 C249 1.235 . S
C252 O258 1.287 . S
C252 O259 1.255 . S
O253 Fe242 1.976 . S
O253 C260 1.287 . S
O254 Fe243 1.996 . S
O254 C260 1.255 . S
O255 Fe245 1.976 . S
O255 C250 1.287 . S
O256 Fe242 1.996 . S
O256 C250 1.255 . S
C257 O261 1.295 . S
C257 O262 1.235 . S
O258 Fe243 1.976 . S
O258 C252 1.287 . S
O259 Fe245 1.996 . S
O259 C252 1.255 . S
C260 O253 1.287 . S
C260 O254 1.255 . S
O261 Fe243 2.002 . S
O261 C257 1.295 . S
O262 Fe245 1.997 . S
O262 C257 1.235 . S
C263 O246 1.295 . S
C263 O247 1.235 . S
Fe264 O266 1.918 . S
Fe264 O269 1.997 . S
Fe264 O270 2.002 . S
Fe264 O275 1.976 . S
Fe264 O278 1.996 . S
Fe265 O266 1.918 . S
Fe265 O273 1.997 . S
Fe265 O276 1.996 . S
Fe265 O280 1.976 . S
Fe265 O283 2.002 . S
O266 Fe264 1.918 . S
O266 Fe265 1.918 . S
O266 Fe267 1.918 . S
Fe267 O266 1.918 . S
Fe267 O268 2.002 . S
Fe267 O277 1.976 . S
Fe267 O281 1.996 . S
Fe267 O284 1.997 . S
O268 Fe267 2.002 . S
O268 C285 1.295 . S
O269 Fe264 1.997 . S
O269 C285 1.235 . S
O270 Fe264 2.002 . S
O270 C271 1.295 . S
C271 O270 1.295 . S
C271 O273 1.235 . S
C272 O277 1.287 . S
C272 O278 1.255 . S
O273 Fe265 1.997 . S
O273 C271 1.235 . S
C274 O280 1.287 . S
C274 O281 1.255 . S
O275 Fe264 1.976 . S
O275 C282 1.287 . S
O276 Fe265 1.996 . S
O276 C282 1.255 . S
O277 Fe267 1.976 . S
O277 C272 1.287 . S
O278 Fe264 1.996 . S
O278 C272 1.255 . S
C279 O283 1.295 . S
C279 O284 1.235 . S
O280 Fe265 1.976 . S
O280 C274 1.287 . S
O281 Fe267 1.996 . S
O281 C274 1.255 . S
C282 O275 1.287 . S
C282 O276 1.255 . S
O283 Fe265 2.002 . S
O283 C279 1.295 . S
O284 Fe267 1.997 . S
O284 C279 1.235 . S
C285 O268 1.295 . S
C285 O269 1.235 . S
Fe286 O288 1.918 . S
Fe286 O291 1.997 . S
Fe286 O292 2.002 . S
Fe286 O297 1.976 . S
Fe286 O300 1.996 . S
Fe287 O288 1.918 1_455 S
Fe287 O295 1.997 1_455 S
Fe287 O298 1.996 . S
Fe287 O302 1.976 . S
Fe287 O305 2.002 . S
O288 Fe286 1.918 . S
O288 Fe287 1.918 1_655 S
O288 Fe289 1.918 . S
Fe289 O288 1.918 . S
Fe289 O290 2.002 . S
Fe289 O299 1.976 . S
Fe289 O303 1.996 1_655 S
Fe289 O306 1.997 . S
O290 Fe289 2.002 . S
O290 C307 1.295 . S
O291 Fe286 1.997 . S
O291 C307 1.235 . S
O292 Fe286 2.002 . S
O292 C293 1.295 . S
C293 O292 1.295 . S
C293 O295 1.235 . S
C294 O299 1.287 . S
C294 O300 1.255 . S
O295 Fe287 1.997 1_655 S
O295 C293 1.235 . S
C296 O302 1.287 . S
C296 O303 1.255 . S
O297 Fe286 1.976 . S
O297 C304 1.287 . S
O298 Fe287 1.996 . S
O298 C304 1.255 1_455 S
O299 Fe289 1.976 . S
O299 C294 1.287 . S
O300 Fe286 1.996 . S
O300 C294 1.255 . S
C301 O305 1.290 1_655 S
C301 O306 1.241 . S
O302 Fe287 1.976 . S
O302 C296 1.287 . S
O303 Fe289 1.996 1_455 S
O303 C296 1.255 . S
C304 O297 1.287 . S
C304 O298 1.255 1_655 S
O305 Fe287 2.002 . S
O305 C301 1.290 1_455 S
O306 Fe289 1.997 . S
O306 C301 1.241 . S
C307 O290 1.295 . S
C307 O291 1.235 . S
Fe308 O310 1.918 . S
Fe308 O313 1.997 . S
Fe308 O314 2.002 . S
Fe308 O319 1.976 . S
Fe308 O322 1.996 1_565 S
Fe309 O310 1.918 . S
Fe309 O317 1.997 . S
Fe309 O320 1.996 . S
Fe309 O324 1.976 . S
Fe309 O327 2.002 . S
O310 Fe308 1.918 . S
O310 Fe309 1.918 . S
O310 Fe311 1.918 1_565 S
Fe311 O310 1.918 1_545 S
Fe311 O312 2.002 . S
Fe311 O321 1.976 . S
Fe311 O325 1.996 . S
Fe311 O328 1.997 1_545 S
O312 Fe311 2.002 . S
O312 C329 1.290 1_545 S
O313 Fe308 1.997 . S
O313 C329 1.241 . S
O314 Fe308 2.002 . S
O314 C315 1.295 . S
C315 O314 1.295 . S
C315 O317 1.235 . S
C316 O321 1.287 . S
C316 O322 1.255 . S
O317 Fe309 1.997 . S
O317 C315 1.235 . S
C318 O324 1.287 . S
C318 O325 1.255 1_565 S
O319 Fe308 1.976 . S
O319 C326 1.287 . S
O320 Fe309 1.996 . S
O320 C326 1.255 . S
O321 Fe311 1.976 . S
O321 C316 1.287 . S
O322 Fe308 1.996 1_545 S
O322 C316 1.255 . S
C323 O327 1.295 . S
C323 O328 1.235 . S
O324 Fe309 1.976 . S
O324 C318 1.287 . S
O325 Fe311 1.996 . S
O325 C318 1.255 1_545 S
C326 O319 1.287 . S
C326 O320 1.255 . S
O327 Fe309 2.002 . S
O327 C323 1.295 . S
O328 Fe311 1.997 1_565 S
O328 C323 1.235 . S
C329 O312 1.290 1_565 S
C329 O313 1.241 . S
Fe330 O332 1.918 . S
Fe330 O335 1.997 . S
Fe330 O336 2.002 . S
Fe330 O341 1.976 . S
Fe330 O344 1.996 . S
Fe331 O332 1.918 . S
Fe331 O339 1.997 . S
Fe331 O342 1.996 . S
Fe331 O346 1.976 . S
Fe331 O349 2.002 . S
O332 Fe330 1.918 . S
O332 Fe331 1.918 . S
O332 Fe333 1.918 . S
Fe333 O332 1.918 . S
Fe333 O334 2.002 . S
Fe333 O343 1.976 . S
Fe333 O347 1.996 . S
Fe333 O350 1.997 . S
O334 Fe333 2.002 . S
O334 C351 1.295 . S
O335 Fe330 1.997 . S
O335 C351 1.235 . S
O336 Fe330 2.002 . S
O336 C337 1.295 . S
C337 O336 1.295 . S
C337 O339 1.235 . S
C338 O343 1.287 . S
C338 O344 1.255 . S
O339 Fe331 1.997 . S
O339 C337 1.235 . S
C340 O346 1.287 . S
C340 O347 1.255 . S
O341 Fe330 1.976 . S
O341 C348 1.287 . S
O342 Fe331 1.996 . S
O342 C348 1.255 . S
O343 Fe333 1.976 . S
O343 C338 1.287 . S
O344 Fe330 1.996 . S
O344 C338 1.255 . S
C345 O349 1.295 . S
C345 O350 1.235 . S
O346 Fe331 1.976 . S
O346 C340 1.287 . S
O347 Fe333 1.996 . S
O347 C340 1.255 . S
C348 O341 1.287 . S
C348 O342 1.255 . S
O349 Fe331 2.002 . S
O349 C345 1.295 . S
O350 Fe333 1.997 . S
O350 C345 1.235 . S
C351 O334 1.295 . S
C351 O335 1.235 . S
C352 C353 1.369 . S
C352 C354 1.419 . S
C352 H356 0.930 . S
C353 C352 1.369 . S
C353 C362 1.429 . S
C354 C352 1.419 . S
C354 C355 1.363 . S
C354 H357 0.929 . S
C355 C354 1.363 . S
C355 C361 1.428 . S
H356 C352 0.930 . S
H357 C354 0.929 . S
S358 N359 1.613 . S
S358 N360 1.610 . S
N359 S358 1.613 . S
N359 C362 1.350 . S
N360 S358 1.610 . S
N360 C361 1.351 . S
C361 C355 1.428 . S
C361 N360 1.351 . S
C361 C362 1.434 . S
C362 C353 1.429 . S
C362 N359 1.350 . S
C362 C361 1.434 . S
C363 C364 1.369 1_556 S
C363 C365 1.419 . S
C363 H367 0.930 . S
C364 C363 1.369 1_554 S
C364 C373 1.429 . S
C365 C363 1.419 . S
C365 C366 1.363 . S
C365 H368 0.929 . S
C366 C365 1.363 . S
C366 C372 1.428 1_556 S
H367 C363 0.930 . S
H368 C365 0.929 . S
S369 N370 1.613 . S
S369 N371 1.610 . S
N370 S369 1.613 . S
N370 C373 1.350 . S
N371 S369 1.610 . S
N371 C372 1.351 . S
C372 C366 1.428 1_554 S
C372 N371 1.351 . S
C372 C373 1.434 . S
C373 C364 1.429 . S
C373 N370 1.350 . S
C373 C372 1.434 . S
C374 C375 1.369 . S
C374 C376 1.419 . S
C374 H378 0.930 . S
C375 C374 1.369 . S
C375 C384 1.429 . S
C376 C374 1.419 . S
C376 C377 1.363 . S
C376 H379 0.929 . S
C377 C376 1.363 . S
C377 C383 1.428 . S
H378 C374 0.930 . S
H379 C376 0.929 . S
S380 N381 1.613 . S
S380 N382 1.610 . S
N381 S380 1.613 . S
N381 C384 1.350 . S
N382 S380 1.610 . S
N382 C383 1.351 . S
C383 C377 1.428 . S
C383 N382 1.351 . S
C383 C384 1.434 . S
C384 C375 1.429 . S
C384 N381 1.350 . S
C384 C383 1.434 . S
C385 C386 1.369 . S
C385 C387 1.419 1_556 S
C385 H389 0.930 . S
C386 C385 1.369 . S
C386 C395 1.429 . S
C387 C385 1.419 1_554 S
C387 C388 1.363 . S
C387 H390 0.929 . S
C388 C387 1.363 . S
C388 C394 1.428 . S
H389 C385 0.930 . S
H390 C387 0.929 . S
S391 N392 1.613 1_554 S
S391 N393 1.610 . S
N392 S391 1.613 1_556 S
N392 C395 1.350 . S
N393 S391 1.610 . S
N393 C394 1.351 . S
C394 C388 1.428 . S
C394 N393 1.351 . S
C394 C395 1.434 1_554 S
C395 C386 1.429 . S
C395 N392 1.350 . S
C395 C394 1.434 1_556 S
C396 C397 1.369 . S
C396 C398 1.419 . S
C396 H400 0.930 . S
C397 C396 1.369 . S
C397 C406 1.429 . S
C398 C396 1.419 . S
C398 C399 1.363 . S
C398 H401 0.929 . S
C399 C398 1.363 . S
C399 C405 1.428 . S
H400 C396 0.930 . S
H401 C398 0.929 . S
S402 N403 1.613 . S
S402 N404 1.610 . S
N403 S402 1.613 . S
N403 C406 1.350 . S
N404 S402 1.610 . S
N404 C405 1.351 . S
C405 C399 1.428 . S
C405 N404 1.351 . S
C405 C406 1.434 . S
C406 C397 1.429 . S
C406 N403 1.350 . S
C406 C405 1.434 . S
C407 C408 1.369 . S
C407 C409 1.419 . S
C407 H411 0.930 . S
C408 C407 1.369 . S
C408 C417 1.429 1_556 S
C409 C407 1.419 . S
C409 C410 1.363 1_556 S
C409 H412 0.929 . S
C410 C409 1.363 1_554 S
C410 C416 1.428 . S
H411 C407 0.930 . S
H412 C409 0.929 . S
S413 N414 1.613 . S
S413 N415 1.610 . S
N414 S413 1.613 . S
N414 C417 1.350 . S
N415 S413 1.610 . S
N415 C416 1.351 . S
C416 C410 1.428 . S
C416 N415 1.351 . S
C416 C417 1.434 . S
C417 C408 1.429 1_554 S
C417 N414 1.350 . S
C417 C416 1.434 . S
C418 C419 1.369 . S
C418 C420 1.419 . S
C418 H422 0.930 . S
C419 C418 1.369 . S
C419 C428 1.429 . S
C420 C418 1.419 . S
C420 C421 1.363 . S
C420 H423 0.929 . S
C421 C420 1.363 . S
C421 C427 1.428 . S
H422 C418 0.930 . S
H423 C420 0.929 . S
S424 N425 1.613 . S
S424 N426 1.610 . S
N425 S424 1.613 . S
N425 C428 1.350 . S
N426 S424 1.610 . S
N426 C427 1.351 . S
C427 C421 1.428 . S
C427 N426 1.351 . S
C427 C428 1.434 . S
C428 C419 1.429 . S
C428 N425 1.350 . S
C428 C427 1.434 . S
C429 C430 1.369 . S
C429 C431 1.419 1_556 S
C429 H433 0.930 . S
C430 C429 1.369 . S
C430 C439 1.429 . S
C431 C429 1.419 1_554 S
C431 C432 1.363 . S
C431 H434 0.929 . S
C432 C431 1.363 . S
C432 C438 1.428 . S
H433 C429 0.930 . S
H434 C431 0.929 . S
S435 N436 1.613 . S
S435 N437 1.610 . S
N436 S435 1.613 . S
N436 C439 1.350 1_554 S
N437 S435 1.610 . S
N437 C438 1.351 . S
C438 C432 1.428 . S
C438 N437 1.351 . S
C438 C439 1.434 1_554 S
C439 C430 1.429 . S
C439 N436 1.350 1_556 S
C439 C438 1.434 1_556 S
C440 C441 1.369 . S
C440 C442 1.419 . S
C440 H444 0.930 . S
C441 C440 1.369 . S
C441 C450 1.429 . S
C442 C440 1.419 . S
C442 C443 1.363 . S
C442 H445 0.929 . S
C443 C442 1.363 . S
C443 C449 1.428 . S
H444 C440 0.930 . S
H445 C442 0.929 . S
S446 N447 1.613 . S
S446 N448 1.610 . S
N447 S446 1.613 . S
N447 C450 1.350 . S
N448 S446 1.610 . S
N448 C449 1.351 . S
C449 C443 1.428 . S
C449 N448 1.351 . S
C449 C450 1.434 . S
C450 C441 1.429 . S
C450 N447 1.350 . S
C450 C449 1.434 . S
C451 C452 1.369 . S
C451 C453 1.419 . S
C451 H455 0.930 . S
C452 C451 1.369 . S
C452 C461 1.429 . S
C453 C451 1.419 . S
C453 C454 1.363 . S
C453 H456 0.929 . S
C454 C453 1.363 . S
C454 C460 1.428 . S
H455 C451 0.930 . S
H456 C453 0.929 . S
S457 N458 1.613 . S
S457 N459 1.610 . S
N458 S457 1.613 . S
N458 C461 1.350 . S
N459 S457 1.610 . S
N459 C460 1.351 . S
C460 C454 1.428 . S
C460 N459 1.351 . S
C460 C461 1.434 . S
C461 C452 1.429 . S
C461 N458 1.350 . S
C461 C460 1.434 . S
C462 C463 1.369 . S
C462 C464 1.419 . S
C462 H466 0.930 . S
C463 C462 1.369 . S
C463 C472 1.429 . S
C464 C462 1.419 . S
C464 C465 1.363 . S
C464 H467 0.929 . S
C465 C464 1.363 . S
C465 C471 1.428 . S
H466 C462 0.930 . S
H467 C464 0.929 . S
S468 N469 1.613 . S
S468 N470 1.610 . S
N469 S468 1.613 . S
N469 C472 1.350 . S
N470 S468 1.610 . S
N470 C471 1.351 . S
C471 C465 1.428 . S
C471 N470 1.351 . S
C471 C472 1.434 . S
C472 C463 1.429 . S
C472 N469 1.350 . S
C472 C471 1.434 . S
C473 C474 1.369 . S
C473 C475 1.419 . S
C473 H477 0.930 . S
C474 C473 1.369 . S
C474 C483 1.429 . S
C475 C473 1.419 . S
C475 C476 1.363 . S
C475 H478 0.929 . S
C476 C475 1.363 . S
C476 C482 1.428 . S
H477 C473 0.930 . S
H478 C475 0.929 . S
S479 N480 1.613 . S
S479 N481 1.610 . S
N480 S479 1.613 . S
N480 C483 1.350 . S
N481 S479 1.610 . S
N481 C482 1.351 . S
C482 C476 1.428 . S
C482 N481 1.351 . S
C482 C483 1.434 . S
C483 C474 1.429 . S
C483 N480 1.350 . S
C483 C482 1.434 . S
C484 C485 1.369 . S
C484 C486 1.419 . S
C484 H488 0.930 . S
C485 C484 1.369 . S
C485 C494 1.429 . S
C486 C484 1.419 . S
C486 C487 1.363 . S
C486 H489 0.929 . S
C487 C486 1.363 . S
C487 C493 1.428 . S
H488 C484 0.930 . S
H489 C486 0.929 . S
S490 N491 1.613 . S
S490 N492 1.610 . S
N491 S490 1.613 . S
N491 C494 1.350 . S
N492 S490 1.610 . S
N492 C493 1.351 . S
C493 C487 1.428 . S
C493 N492 1.351 . S
C493 C494 1.434 . S
C494 C485 1.429 . S
C494 N491 1.350 . S
C494 C493 1.434 . S
C495 C496 1.369 . S
C495 C497 1.419 . S
C495 H499 0.930 . S
C496 C495 1.369 . S
C496 C505 1.429 . S
C497 C495 1.419 . S
C497 C498 1.363 . S
C497 H500 0.929 . S
C498 C497 1.363 . S
C498 C504 1.428 . S
H499 C495 0.930 . S
H500 C497 0.929 . S
S501 N502 1.613 . S
S501 N503 1.610 . S
N502 S501 1.613 . S
N502 C505 1.350 . S
N503 S501 1.610 . S
N503 C504 1.351 . S
C504 C498 1.428 . S
C504 N503 1.351 . S
C504 C505 1.434 . S
C505 C496 1.429 . S
C505 N502 1.350 . S
C505 C504 1.434 . S
C506 C507 1.369 . S
C506 C508 1.419 . S
C506 H510 0.930 . S
C507 C506 1.369 . S
C507 C516 1.429 . S
C508 C506 1.419 . S
C508 C509 1.363 . S
C508 H511 0.929 . S
C509 C508 1.363 . S
C509 C515 1.428 . S
H510 C506 0.930 . S
H511 C508 0.929 . S
S512 N513 1.613 . S
S512 N514 1.610 . S
N513 S512 1.613 . S
N513 C516 1.350 . S
N514 S512 1.610 . S
N514 C515 1.351 . S
C515 C509 1.428 . S
C515 N514 1.351 . S
C515 C516 1.434 . S
C516 C507 1.429 . S
C516 N513 1.350 . S
C516 C515 1.434 . S
C517 C518 1.369 . S
C517 C519 1.419 . S
C517 H521 0.930 . S
C518 C517 1.369 . S
C518 C527 1.429 . S
C519 C517 1.419 . S
C519 C520 1.363 . S
C519 H522 0.929 . S
C520 C519 1.363 . S
C520 C526 1.428 . S
H521 C517 0.930 . S
H522 C519 0.929 . S
S523 N524 1.613 . S
S523 N525 1.610 . S
N524 S523 1.613 . S
N524 C527 1.350 . S
N525 S523 1.610 . S
N525 C526 1.351 . S
C526 C520 1.428 . S
C526 N525 1.351 . S
C526 C527 1.434 . S
C527 C518 1.429 . S
C527 N524 1.350 . S
C527 C526 1.434 . S
C528 C529 1.369 . S
C528 C530 1.419 . S
C528 H532 0.930 . S
C529 C528 1.369 . S
C529 C538 1.429 . S
C530 C528 1.419 . S
C530 C531 1.363 . S
C530 H533 0.929 . S
C531 C530 1.363 . S
C531 C537 1.428 . S
H532 C528 0.930 . S
H533 C530 0.929 . S
S534 N535 1.613 1_554 S
S534 N536 1.610 . S
N535 S534 1.613 1_556 S
N535 C538 1.350 1_556 S
N536 S534 1.610 . S
N536 C537 1.351 . S
C537 C531 1.428 . S
C537 N536 1.351 . S
C537 C538 1.434 . S
C538 C529 1.429 . S
C538 N535 1.350 1_554 S
C538 C537 1.434 . S
C539 C540 1.361 1_655 S
C539 C541 1.419 . S
C539 H543 0.930 . S
C540 C539 1.361 1_455 S
C540 C549 1.437 . S
C541 C539 1.419 . S
C541 C542 1.363 . S
C541 H544 0.929 . S
C542 C541 1.363 . S
C542 C548 1.428 1_655 S
H543 C539 0.930 . S
H544 C541 0.929 . S
S545 N546 1.613 . S
S545 N547 1.610 . S
N546 S545 1.613 . S
N546 C549 1.350 . S
N547 S545 1.610 . S
N547 C548 1.351 . S
C548 C542 1.428 1_455 S
C548 N547 1.351 . S
C548 C549 1.434 . S
C549 C540 1.437 . S
C549 N546 1.350 . S
C549 C548 1.434 . S
C550 C551 1.369 1_545 S
C550 C552 1.419 . S
C550 H554 0.930 . S
C551 C550 1.369 1_565 S
C551 C560 1.429 . S
C552 C550 1.419 . S
C552 C553 1.363 . S
C552 H555 0.929 . S
C553 C552 1.363 . S
C553 C559 1.429 1_545 S
H554 C550 0.930 . S
H555 C552 0.929 . S
S556 N557 1.613 1_554 S
S556 N558 1.610 . S
N557 S556 1.613 1_556 S
N557 C560 1.350 1_556 S
N558 S556 1.610 . S
N558 C559 1.351 . S
C559 C553 1.429 1_565 S
C559 N558 1.351 . S
C559 C560 1.434 . S
C560 C551 1.429 . S
C560 N557 1.350 1_554 S
C560 C559 1.434 . S
C561 C562 1.369 . S
C561 C563 1.419 . S
C561 H565 0.930 . S
C562 C561 1.369 . S
C562 C571 1.429 . S
C563 C561 1.419 . S
C563 C564 1.363 . S
C563 H566 0.929 . S
C564 C563 1.363 . S
C564 C570 1.428 . S
H565 C561 0.930 . S
H566 C563 0.929 . S
S567 N568 1.613 . S
S567 N569 1.610 . S
N568 S567 1.613 . S
N568 C571 1.350 . S
N569 S567 1.610 . S
N569 C570 1.351 . S
C570 C564 1.428 . S
C570 N569 1.351 . S
C570 C571 1.434 . S
C571 C562 1.429 . S
C571 N568 1.350 . S
C571 C570 1.434 . S
C572 C573 1.369 . S
C572 C574 1.419 . S
C572 H576 0.930 . S
C573 C572 1.369 . S
C573 C582 1.429 . S
C574 C572 1.419 . S
C574 C575 1.363 . S
C574 H577 0.929 . S
C575 C574 1.363 . S
C575 C581 1.428 . S
H576 C572 0.930 . S
H577 C574 0.929 . S
S578 N579 1.613 . S
S578 N580 1.610 . S
N579 S578 1.613 . S
N579 C582 1.350 . S
N580 S578 1.610 . S
N580 C581 1.351 . S
C581 C575 1.428 . S
C581 N580 1.351 . S
C581 C582 1.434 . S
C582 C573 1.429 . S
C582 N579 1.350 . S
C582 C581 1.434 . S
C583 C584 1.369 . S
C583 C585 1.419 . S
C583 H587 0.930 . S
C584 C583 1.369 . S
C584 C593 1.429 1_655 S
C585 C583 1.419 . S
C585 C586 1.363 1_655 S
C585 H588 0.929 1_556 S
C586 C585 1.363 1_455 S
C586 C592 1.428 . S
H587 C583 0.930 . S
H588 C585 0.929 1_554 S
S589 N590 1.613 . S
S589 N591 1.610 . S
N590 S589 1.613 . S
N590 C593 1.350 . S
N591 S589 1.610 . S
N591 C592 1.351 . S
C592 C586 1.428 . S
C592 N591 1.351 . S
C592 C593 1.434 . S
C593 C584 1.429 1_455 S
C593 N590 1.350 . S
C593 C592 1.434 . S
C594 C595 1.368 1_565 S
C594 C596 1.419 . S
C594 H598 0.930 . S
C595 C594 1.368 1_545 S
C595 C604 1.430 . S
C596 C594 1.419 . S
C596 C597 1.363 1_565 S
C596 H599 0.929 . S
C597 C596 1.363 1_545 S
C597 C603 1.428 . S
H598 C594 0.930 . S
H599 C596 0.929 . S
S600 N601 1.613 . S
S600 N602 1.610 . S
N601 S600 1.613 . S
N601 C604 1.350 . S
N602 S600 1.610 . S
N602 C603 1.351 . S
C603 C597 1.428 . S
C603 N602 1.351 . S
C603 C604 1.434 . S
C604 C595 1.430 . S
C604 N601 1.350 . S
C604 C603 1.434 . S
C605 C606 1.369 . S
C605 C607 1.419 . S
C605 H609 0.930 1_556 S
C606 C605 1.369 . S
C606 C615 1.429 . S
C607 C605 1.419 . S
C607 C608 1.363 . S
C607 H610 0.929 . S
C608 C607 1.363 . S
C608 C614 1.428 . S
H609 C605 0.930 1_554 S
H610 C607 0.929 . S
S611 N612 1.613 . S
S611 N613 1.610 . S
N612 S611 1.613 . S
N612 C615 1.350 . S
N613 S611 1.610 . S
N613 C614 1.351 . S
C614 C608 1.428 . S
C614 N613 1.351 . S
C614 C615 1.434 . S
C615 C606 1.429 . S
C615 N612 1.350 . S
C615 C614 1.434 . S
C616 C617 1.369 . S
C616 C618 1.419 . S
C616 H620 0.930 . S
C617 C616 1.369 . S
C617 C626 1.429 . S
C618 C616 1.419 . S
C618 C619 1.363 . S
C618 H621 0.929 . S
C619 C618 1.363 . S
C619 C625 1.428 . S
H620 C616 0.930 . S
H621 C618 0.929 . S
S622 N623 1.613 . S
S622 N624 1.610 . S
N623 S622 1.613 . S
N623 C626 1.350 . S
N624 S622 1.610 . S
N624 C625 1.351 . S
C625 C619 1.428 . S
C625 N624 1.351 . S
C625 C626 1.434 . S
C626 C617 1.429 . S
C626 N623 1.350 . S
C626 C625 1.434 . S
C627 C628 1.371 . S
C627 C629 1.419 . S
C627 H631 0.930 . S
C628 C627 1.371 . S
C628 C637 1.427 1_655 S
C629 C627 1.419 . S
C629 C630 1.363 1_655 S
C629 H632 0.929 . S
C630 C629 1.363 1_455 S
C630 C636 1.428 . S
H631 C627 0.930 . S
H632 C629 0.929 . S
S633 N634 1.613 . S
S633 N635 1.610 . S
N634 S633 1.613 . S
N634 C637 1.350 . S
N635 S633 1.610 . S
N635 C636 1.351 . S
C636 C630 1.428 . S
C636 N635 1.351 . S
C636 C637 1.434 . S
C637 C628 1.427 1_455 S
C637 N634 1.350 . S
C637 C636 1.434 . S
C638 C639 1.369 . S
C638 C640 1.419 . S
C638 H642 0.930 . S
C639 C638 1.369 . S
C639 C648 1.429 1_545 S
C640 C638 1.419 . S
C640 C641 1.347 1_545 S
C640 H643 0.929 . S
C641 C640 1.347 1_565 S
C641 C647 1.444 . S
H642 C638 0.930 . S
H643 C640 0.929 . S
S644 N645 1.613 . S
S644 N646 1.610 . S
N645 S644 1.613 . S
N645 C648 1.350 . S
N646 S644 1.610 . S
N646 C647 1.351 . S
C647 C641 1.444 . S
C647 N646 1.351 . S
C647 C648 1.434 . S
C648 C639 1.429 1_565 S
C648 N645 1.350 . S
C648 C647 1.434 . S
C649 C650 1.369 . S
C649 C651 1.419 . S
C649 H653 0.930 . S
C650 C649 1.369 . S
C650 C659 1.429 . S
C651 C649 1.419 . S
C651 C652 1.363 . S
C651 H654 0.929 . S
C652 C651 1.363 . S
C652 C658 1.428 . S
H653 C649 0.930 . S
H654 C651 0.929 . S
S655 N656 1.613 . S
S655 N657 1.610 . S
N656 S655 1.613 . S
N656 C659 1.350 . S
N657 S655 1.610 . S
N657 C658 1.351 . S
C658 C652 1.428 . S
C658 N657 1.351 . S
C658 C659 1.434 . S
C659 C650 1.429 . S
C659 N656 1.350 . S
C659 C658 1.434 . S
C660 C661 1.369 . S
C660 C662 1.419 . S
C660 H664 0.930 . S
C661 C660 1.369 . S
C661 C670 1.429 . S
C662 C660 1.419 . S
C662 C663 1.363 . S
C662 H665 0.929 . S
C663 C662 1.363 . S
C663 C669 1.428 . S
H664 C660 0.930 . S
H665 C662 0.929 . S
S666 N667 1.613 . S
S666 N668 1.610 . S
N667 S666 1.613 . S
N667 C670 1.350 . S
N668 S666 1.610 . S
N668 C669 1.351 . S
C669 C663 1.428 . S
C669 N668 1.351 . S
C669 C670 1.434 . S
C670 C661 1.429 . S
C670 N667 1.350 . S
C670 C669 1.434 . S
C671 C672 1.371 . S
C671 C673 1.419 . S
C671 H675 0.930 . S
C672 C671 1.371 . S
C672 C681 1.427 1_455 S
C673 C671 1.419 . S
C673 C674 1.363 1_455 S
C673 H676 0.929 . S
C674 C673 1.363 1_655 S
C674 C680 1.428 . S
H675 C671 0.930 . S
H676 C673 0.929 . S
S677 N678 1.606 1_556 S
S677 N679 1.614 . S
N678 S677 1.606 1_554 S
N678 C681 1.350 . S
N679 S677 1.614 . S
N679 C680 1.351 1_556 S
C680 C674 1.428 . S
C680 N679 1.351 1_554 S
C680 C681 1.434 . S
C681 C672 1.427 1_655 S
C681 N678 1.350 . S
C681 C680 1.434 . S
C682 C683 1.369 1_545 S
C682 C684 1.419 . S
C682 H686 0.930 . S
C683 C682 1.369 1_565 S
C683 C692 1.429 . S
C684 C682 1.419 . S
C684 C685 1.362 . S
C684 H687 0.929 . S
C685 C684 1.362 . S
C685 C691 1.430 1_545 S
H686 C682 0.930 . S
H687 C684 0.929 . S
S688 N689 1.613 . S
S688 N690 1.610 . S
N689 S688 1.613 . S
N689 C692 1.350 . S
N690 S688 1.610 . S
N690 C691 1.351 . S
C691 C685 1.430 1_565 S
C691 N690 1.351 . S
C691 C692 1.434 . S
C692 C683 1.429 . S
C692 N689 1.350 . S
C692 C691 1.434 . S
C693 C694 1.369 . S
C693 C695 1.419 . S
C693 H697 0.930 . S
C694 C693 1.369 . S
C694 C703 1.429 . S
C695 C693 1.419 . S
C695 C696 1.363 . S
C695 H698 0.929 . S
C696 C695 1.363 . S
C696 C702 1.428 . S
H697 C693 0.930 . S
H698 C695 0.929 . S
S699 N700 1.613 . S
S699 N701 1.610 . S
N700 S699 1.613 . S
N700 C703 1.350 . S
N701 S699 1.610 . S
N701 C702 1.351 . S
C702 C696 1.428 . S
C702 N701 1.351 . S
C702 C703 1.434 . S
C703 C694 1.429 . S
C703 N700 1.350 . S
C703 C702 1.434 . S
C704 C705 1.369 . S
C704 C706 1.419 . S
C704 H708 0.930 . S
C705 C704 1.369 . S
C705 C714 1.429 . S
C706 C704 1.419 . S
C706 C707 1.363 . S
C706 H709 0.929 . S
C707 C706 1.363 . S
C707 C713 1.428 . S
H708 C704 0.930 . S
H709 C706 0.929 . S
S710 N711 1.613 . S
S710 N712 1.610 . S
N711 S710 1.613 . S
N711 C714 1.350 . S
N712 S710 1.610 . S
N712 C713 1.351 . S
C713 C707 1.428 . S
C713 N712 1.351 . S
C713 C714 1.434 . S
C714 C705 1.429 . S
C714 N711 1.350 . S
C714 C713 1.434 . S
C715 C716 1.369 . S
C715 C717 1.419 . S
C715 H719 0.930 . S
C716 C715 1.369 . S
C716 C725 1.429 . S
C717 C715 1.419 . S
C717 C718 1.363 . S
C717 H720 0.929 . S
C718 C717 1.363 . S
C718 C724 1.428 . S
H719 C715 0.930 . S
H720 C717 0.929 . S
S721 N722 1.613 . S
S721 N723 1.610 . S
N722 S721 1.613 . S
N722 C725 1.350 . S
N723 S721 1.610 . S
N723 C724 1.351 . S
C724 C718 1.428 . S
C724 N723 1.351 . S
C724 C725 1.434 . S
C725 C716 1.429 . S
C725 N722 1.350 . S
C725 C724 1.434 . S
C726 C727 1.369 . S
C726 C728 1.419 . S
C726 H730 0.930 . S
C727 C726 1.369 . S
C727 C736 1.429 . S
C728 C726 1.419 . S
C728 C729 1.363 . S
C728 H731 0.929 . S
C729 C728 1.363 . S
C729 C735 1.428 . S
H730 C726 0.930 . S
H731 C728 0.929 . S
S732 N733 1.613 . S
S732 N734 1.610 . S
N733 S732 1.613 . S
N733 C736 1.350 . S
N734 S732 1.610 . S
N734 C735 1.351 . S
C735 C729 1.428 . S
C735 N734 1.351 . S
C735 C736 1.434 . S
C736 C727 1.429 . S
C736 N733 1.350 . S
C736 C735 1.434 . S
C737 C738 1.369 . S
C737 C739 1.419 . S
C737 H741 0.930 . S
C738 C737 1.369 . S
C738 C747 1.429 . S
C739 C737 1.419 . S
C739 C740 1.363 . S
C739 H742 0.929 . S
C740 C739 1.363 . S
C740 C746 1.428 . S
H741 C737 0.930 . S
H742 C739 0.929 . S
S743 N744 1.613 . S
S743 N745 1.610 . S
N744 S743 1.613 . S
N744 C747 1.350 . S
N745 S743 1.610 . S
N745 C746 1.351 . S
C746 C740 1.428 . S
C746 N745 1.351 . S
C746 C747 1.434 . S
C747 C738 1.429 . S
C747 N744 1.350 . S
C747 C746 1.434 . S
C748 C749 1.369 . S
C748 C750 1.419 . S
C748 H752 0.930 . S
C749 C748 1.369 . S
C749 C758 1.429 . S
C750 C748 1.419 . S
C750 C751 1.363 . S
C750 H753 0.929 . S
C751 C750 1.363 . S
C751 C757 1.428 . S
H752 C748 0.930 . S
H753 C750 0.929 . S
S754 N755 1.613 . S
S754 N756 1.610 . S
N755 S754 1.613 . S
N755 C758 1.350 . S
N756 S754 1.610 . S
N756 C757 1.351 . S
C757 C751 1.428 . S
C757 N756 1.351 . S
C757 C758 1.434 . S
C758 C749 1.429 . S
C758 N755 1.350 . S
C758 C757 1.434 . S
C759 C760 1.369 . S
C759 C761 1.419 . S
C759 H763 0.930 . S
C760 C759 1.369 . S
C760 C769 1.429 . S
C761 C759 1.419 . S
C761 C762 1.363 . S
C761 H764 0.929 . S
C762 C761 1.363 . S
C762 C768 1.428 . S
H763 C759 0.930 . S
H764 C761 0.929 . S
S765 N766 1.613 . S
S765 N767 1.610 . S
N766 S765 1.613 . S
N766 C769 1.350 . S
N767 S765 1.610 . S
N767 C768 1.351 . S
C768 C762 1.428 . S
C768 N767 1.351 . S
C768 C769 1.434 . S
C769 C760 1.429 . S
C769 N766 1.350 . S
C769 C768 1.434 . S
C770 C771 1.369 . S
C770 C772 1.419 . S
C770 H774 0.930 . S
C771 C770 1.369 . S
C771 C780 1.429 . S
C772 C770 1.419 . S
C772 C773 1.363 . S
C772 H775 0.929 . S
C773 C772 1.363 . S
C773 C779 1.428 . S
H774 C770 0.930 . S
H775 C772 0.929 . S
S776 N777 1.613 . S
S776 N778 1.610 . S
N777 S776 1.613 . S
N777 C780 1.350 . S
N778 S776 1.610 . S
N778 C779 1.351 . S
C779 C773 1.428 . S
C779 N778 1.351 . S
C779 C780 1.434 . S
C780 C771 1.429 . S
C780 N777 1.350 . S
C780 C779 1.434 . S
C781 C782 1.369 . S
C781 C783 1.419 . S
C781 H785 0.930 . S
C782 C781 1.369 . S
C782 C791 1.429 . S
C783 C781 1.419 . S
C783 C784 1.363 . S
C783 H786 0.929 . S
C784 C783 1.363 . S
C784 C790 1.428 . S
H785 C781 0.930 . S
H786 C783 0.929 . S
S787 N788 1.613 . S
S787 N789 1.610 . S
N788 S787 1.613 . S
N788 C791 1.350 . S
N789 S787 1.610 . S
N789 C790 1.351 . S
C790 C784 1.428 . S
C790 N789 1.351 . S
C790 C791 1.434 . S
C791 C782 1.429 . S
C791 N788 1.350 . S
C791 C790 1.434 . S
C792 C793 1.369 . S
C792 C794 1.419 . S
C792 H796 0.930 . S
C793 C792 1.369 . S
C793 C802 1.429 . S
C794 C792 1.419 . S
C794 C795 1.363 . S
C794 H797 0.929 . S
C795 C794 1.363 . S
C795 C801 1.428 . S
H796 C792 0.930 . S
H797 C794 0.929 . S
S798 N799 1.613 . S
S798 N800 1.610 . S
N799 S798 1.613 . S
N799 C802 1.350 . S
N800 S798 1.610 . S
N800 C801 1.351 . S
C801 C795 1.428 . S
C801 N800 1.351 . S
C801 C802 1.434 . S
C802 C793 1.429 . S
C802 N799 1.350 . S
C802 C801 1.434 . S
C803 C804 1.369 . S
C803 C805 1.419 . S
C803 H807 0.930 . S
C804 C803 1.369 . S
C804 C813 1.429 . S
C805 C803 1.419 . S
C805 C806 1.363 . S
C805 H808 0.929 . S
C806 C805 1.363 . S
C806 C812 1.428 . S
H807 C803 0.930 . S
H808 C805 0.929 . S
S809 N810 1.613 . S
S809 N811 1.610 . S
N810 S809 1.613 . S
N810 C813 1.350 . S
N811 S809 1.610 . S
N811 C812 1.351 . S
C812 C806 1.428 . S
C812 N811 1.351 . S
C812 C813 1.434 . S
C813 C804 1.429 . S
C813 N810 1.350 . S
C813 C812 1.434 . S
C814 C815 1.369 . S
C814 C816 1.419 . S
C814 H818 0.930 . S
C815 C814 1.369 . S
C815 C824 1.429 . S
C816 C814 1.419 . S
C816 C817 1.363 . S
C816 H819 0.929 . S
C817 C816 1.363 . S
C817 C823 1.428 . S
H818 C814 0.930 . S
H819 C816 0.929 . S
S820 N821 1.613 . S
S820 N822 1.610 . S
N821 S820 1.613 . S
N821 C824 1.350 . S
N822 S820 1.610 . S
N822 C823 1.351 . S
C823 C817 1.428 . S
C823 N822 1.351 . S
C823 C824 1.434 . S
C824 C815 1.429 . S
C824 N821 1.350 . S
C824 C823 1.434 . S
C825 C826 1.369 . S
C825 C827 1.419 . S
C825 H829 0.930 . S
C826 C825 1.369 . S
C826 C835 1.429 . S
C827 C825 1.419 . S
C827 C828 1.363 . S
C827 H830 0.929 . S
C828 C827 1.363 . S
C828 C834 1.428 . S
H829 C825 0.930 . S
H830 C827 0.929 . S
S831 N832 1.613 . S
S831 N833 1.610 . S
N832 S831 1.613 . S
N832 C835 1.350 . S
N833 S831 1.610 . S
N833 C834 1.351 . S
C834 C828 1.428 . S
C834 N833 1.351 . S
C834 C835 1.434 . S
C835 C826 1.429 . S
C835 N832 1.350 . S
C835 C834 1.434 . S
C836 C837 1.369 . S
C836 C838 1.419 . S
C836 H840 0.930 . S
C837 C836 1.369 . S
C837 C846 1.429 . S
C838 C836 1.419 . S
C838 C839 1.363 . S
C838 H841 0.929 . S
C839 C838 1.363 . S
C839 C845 1.428 . S
H840 C836 0.930 . S
H841 C838 0.929 . S
S842 N843 1.613 . S
S842 N844 1.610 . S
N843 S842 1.613 . S
N843 C846 1.350 . S
N844 S842 1.610 . S
N844 C845 1.351 . S
C845 C839 1.428 . S
C845 N844 1.351 . S
C845 C846 1.434 . S
C846 C837 1.429 . S
C846 N843 1.350 . S
C846 C845 1.434 . S
C847 C848 1.369 . S
C847 C849 1.419 . S
C847 H851 0.930 . S
C848 C847 1.369 . S
C848 C857 1.429 . S
C849 C847 1.419 . S
C849 C850 1.363 . S
C849 H852 0.929 . S
C850 C849 1.363 . S
C850 C856 1.428 . S
H851 C847 0.930 . S
H852 C849 0.929 . S
S853 N854 1.613 . S
S853 N855 1.610 . S
N854 S853 1.613 . S
N854 C857 1.350 . S
N855 S853 1.610 . S
N855 C856 1.351 . S
C856 C850 1.428 . S
C856 N855 1.351 . S
C856 C857 1.434 . S
C857 C848 1.429 . S
C857 N854 1.350 . S
C857 C856 1.434 . S
C858 C859 1.369 . S
C858 C860 1.419 . S
C858 H862 0.930 . S
C859 C858 1.369 . S
C859 C868 1.429 . S
C860 C858 1.419 . S
C860 C861 1.363 . S
C860 H863 0.929 . S
C861 C860 1.363 . S
C861 C867 1.428 . S
H862 C858 0.930 . S
H863 C860 0.929 . S
S864 N865 1.613 . S
S864 N866 1.610 . S
N865 S864 1.613 . S
N865 C868 1.350 . S
N866 S864 1.610 . S
N866 C867 1.351 . S
C867 C861 1.428 . S
C867 N866 1.351 . S
C867 C868 1.434 . S
C868 C859 1.429 . S
C868 N865 1.350 . S
C868 C867 1.434 . S
C869 C870 1.369 . S
C869 C871 1.419 . S
C869 H873 0.930 . S
C870 C869 1.369 . S
C870 C879 1.429 . S
C871 C869 1.419 . S
C871 C872 1.363 . S
C871 H874 0.929 . S
C872 C871 1.363 . S
C872 C878 1.428 . S
H873 C869 0.930 . S
H874 C871 0.929 . S
S875 N876 1.613 . S
S875 N877 1.610 . S
N876 S875 1.613 . S
N876 C879 1.350 . S
N877 S875 1.610 . S
N877 C878 1.351 . S
C878 C872 1.428 . S
C878 N877 1.351 . S
C878 C879 1.434 . S
C879 C870 1.429 . S
C879 N876 1.350 . S
C879 C878 1.434 . S
C353 C18 1.165 . S
C355 C164 1.163 . S
C364 C96 1.165 . S
C366 C32 1.163 . S
C375 C118 1.168 . S
C377 C54 1.165 . S
C386 C76 1.160 . S
C388 C140 1.161 . S
C397 C340 1.160 . S
C399 C186 1.162 . S
C408 C282 1.168 . S
C410 C208 1.168 . S
C419 C294 1.169 . S
C421 C230 1.168 . S
C430 C326 1.169 . S
C432 C260 1.168 . S
C441 C8 1.367 . S
C443 C348 1.367 . S
C452 C40 1.367 . S
C454 C272 1.367 . S
C463 C62 1.367 . S
C465 C296 1.367 . S
C474 C316 1.367 . S
C476 C84 1.367 . S
C485 C216 1.365 . S
C487 C98 1.365 . S
C496 C120 1.364 . S
C498 C238 1.364 . S
C507 C250 1.362 . S
C509 C142 1.363 . S
C518 C172 1.367 . S
C520 C194 1.367 . S
C529 C274 1.511 1_554 S
C531 C21 1.495 . S
C540 C29 1.497 1_455 S
C542 C304 1.510 . S
C551 C318 1.508 1_554 S
C553 C51 1.495 1_545 S
C562 C338 1.510 . S
C564 C73 1.496 . S
C573 C103 1.494 . S
C575 C184 1.508 . S
C584 C125 1.491 1_655 S
C586 C206 1.509 1_556 S
C595 C147 1.494 . S
C597 C228 1.508 . S
C606 C252 1.509 1_556 S
C608 C161 1.492 . S
C617 C183 1.495 . S
C619 C106 1.511 1_556 S
C628 C205 1.497 1_655 S
C630 C128 1.509 . S
C639 C150 1.511 1_556 S
C641 C227 1.495 1_565 S
C650 C263 1.493 . S
C652 C162 1.508 . S
C661 C285 1.492 . S
C663 C10 1.510 . S
C672 C301 1.497 1_455 S
C674 C30 1.509 1_554 S
C683 C52 1.507 . S
C685 C329 1.495 1_545 S
C694 C74 1.508 1_554 S
C696 C337 1.492 . S
C705 C15 1.605 . S
C707 C213 1.531 . S
C716 C235 1.540 . S
C718 C43 1.600 . S
C727 C65 1.601 . S
C729 C249 1.535 . S
C738 C87 1.599 . S
C740 C191 1.539 . S
C749 C95 1.599 . S
C751 C345 1.539 . S
C760 C117 1.601 . S
C762 C271 1.538 . S
C771 C139 1.603 . S
C773 C307 1.532 . S
C782 C315 1.540 . S
C784 C175 1.600 . S
C793 C37 1.540 . S
C795 C197 1.600 . S
C804 C59 1.532 . S
C806 C219 1.603 . S
C815 C241 1.605 . S
C817 C81 1.531 . S
C826 C257 1.600 . S
C828 C7 1.538 . S
C837 C169 1.530 . S
C839 C279 1.604 . S
C848 C109 1.540 . S
C850 C293 1.600 . S
C859 C131 1.530 . S
C861 C323 1.604 . S
C870 C153 1.534 . S
C872 C351 1.602 . S
