# Generated by pormake.
# Topology qtz-e, (6)-cn, num edge types: 1
# Building blocks:
#     Node 0, Type 0, BuildingBlock: KUMBUR_clean_sbu_0, # of connection points: 6
#     Node 1, Type 0, BuildingBlock: KUMBUR_clean_sbu_0, # of connection points: 6
#     Node 2, Type 0, BuildingBlock: KUMBUR_clean_sbu_0, # of connection points: 6
#     Node 3, Type 0, BuildingBlock: KUMBUR_clean_sbu_0, # of connection points: 6
#     Node 4, Type 0, BuildingBlock: KUMBUR_clean_sbu_0, # of connection points: 6
#     Node 5, Type 0, BuildingBlock: KUMBUR_clean_sbu_0, # of connection points: 6
#     Edge 6, Type (0, 0), None
#     Edge 7, Type (0, 0), None
#     Edge 8, Type (0, 0), None
#     Edge 9, Type (0, 0), None
#     Edge 10, Type (0, 0), None
#     Edge 11, Type (0, 0), None
#     Edge 12, Type (0, 0), None
#     Edge 13, Type (0, 0), None
#     Edge 14, Type (0, 0), None
#     Edge 15, Type (0, 0), None
#     Edge 16, Type (0, 0), None
#     Edge 17, Type (0, 0), None
#     Edge 18, Type (0, 0), None
#     Edge 19, Type (0, 0), None
#     Edge 20, Type (0, 0), None
#     Edge 21, Type (0, 0), None
#     Edge 22, Type (0, 0), None
#     Edge 23, Type (0, 0), None
# Relax obj value: 0.081
# Max RMSD: 0.176
# Mean RMSD: 0.176
data_MOF--net-qtz-e--node1-KUMBUR_clean_sbu_0--edge1-none
_symmetry_space_group_name_H-M    P1
_symmetry_Int_Tables_number       1
_symmetry_cell_setting            triclinic
loop_
_symmetry_equiv_pos_as_xyz
'x, y, z'
_cell_length_a     13.983629
_cell_length_b     13.983574
_cell_length_c     29.373746
_cell_angle_alpha  89.998908
_cell_angle_beta   90.001795
_cell_angle_gamma 119.99966
loop_
_atom_site_label
_atom_site_type_symbol
_atom_site_fract_x
_atom_site_fract_y
_atom_site_fract_z
_atom_type_partial_charge
Tb0 Tb 0.29971 0.57636 0.0593 0.0
C1 C 0.96678 0.09393 0.98676 0.0
C2 C 0.94931 0.94693 0.09294 0.0
C3 C 0.74877 0.8643 0.01691 0.0
C4 C 0.04048 0.10462 0.03055 0.0
C5 C 0.83024 0.98367 0.97782 0.0
C6 C 0.80131 0.84352 0.0729 0.0
C7 C 0.83086 0.12869 0.93275 0.0
N8 N 1.01142 0.19592 0.96943 0.0
C9 C 0.94109 0.21461 0.94343 0.0
C10 C 0.78171 1.01646 0.94601 0.0
Tb11 Tb 0.20312 0.32198 -0.00368 0.0
N12 N 0.14903 0.12141 0.02112 0.0
C13 C 0.20848 0.02652 0.05511 0.0
C14 C 1.0295 0.90451 0.1109 0.0
C15 C 0.1472 0.94001 0.09404 0.0
H16 H 0.96948 0.29601 0.92949 0.0
H17 H 0.18467 0.89232 0.10541 0.0
H18 H 0.74021 0.77476 0.09114 0.0
H19 H 0.78056 0.14634 0.91119 0.0
H20 H 0.27111 1.01108 0.04577 0.0
H21 H 0.39188 0.80939 0.90317 0.0
H22 H 1.0063 0.82162 0.11042 0.0
H23 H 0.43427 0.63584 0.15892 0.0
H24 H 0.26428 0.67427 0.95712 0.0
H25 H 0.58363 0.8041 0.19403 0.0
H26 H 0.66454 0.80688 0.00777 0.0
H27 H 0.56141 0.96442 0.92986 0.0
H28 H 0.67248 0.07325 0.0009 0.0
H29 H 0.70622 0.95494 0.93119 0.0
H30 H 0.69503 0.07674 0.08232 0.0
N31 N 0.38501 0.72247 0.01014 0.0
C32 C 0.34607 0.73134 0.96851 0.0
C33 C 0.51289 0.89871 0.9533 0.0
C34 C 0.5408 0.90265 -0.00094 0.0
C35 C 0.41514 0.8118 0.93795 0.0
C36 C 0.47767 0.8095 0.02617 0.0
H37 H 0.69065 0.97077 0.15081 0.0
N38 N 0.45526 0.71092 0.09343 0.0
C39 C 0.56596 0.80218 0.1589 0.0
C40 C 0.5084 0.80677 0.07023 0.0
C41 C 0.48202 0.70762 0.13802 0.0
C42 C 0.62257 0.8995 0.13491 0.0
C43 C 0.58941 0.90364 0.09095 0.0
O44 O 0.21552 0.54769 0.12289 0.0
O45 O 0.20887 0.39266 0.06797 0.0
O46 O 0.08156 0.4069 6e-05 0.0
O47 O 0.17572 0.59129 0.02387 0.0
O48 O 0.34681 0.4922 0.10778 0.0
O49 O 0.24035 0.68072 0.08202 0.0
O50 O 0.16711 0.29062 0.92508 0.0
O51 O 0.25585 0.49417 0.99156 0.0
O52 O 0.45931 0.5938 0.04082 0.0
O53 O 0.38859 0.40473 0.02539 0.0
O54 O 0.34691 0.43903 0.95855 0.0
O55 O 0.31655 0.31029 0.95186 0.0
C56 C 0.26297 0.39554 0.10529 0.0
C57 C 0.26179 0.71343 0.16228 0.0
C58 C 0.28783 0.7598 0.24455 0.0
C59 C 0.23343 0.68167 0.20863 0.0
C60 C 0.36816 0.86755 0.23265 0.0
C61 C 0.3429 0.82198 0.15336 0.0
C62 C 0.39419 0.89759 0.18778 0.0
C63 C 0.08702 0.51088 0.00689 0.0
C64 C 0.21224 0.63744 0.12231 0.0
C65 C 0.63437 1.00153 0.06691 0.0
C66 C 0.6224 0.99856 0.01984 0.0
C67 C 0.3262 0.51816 0.95899 0.0
C68 C 0.26488 0.21782 0.88043 0.0
C69 C 0.3504 0.24588 0.84667 0.0
C70 C 0.35394 0.1598 0.81991 0.0
C71 C 0.28464 0.05207 0.83587 0.0
C72 C 0.1809 0.1092 0.88282 0.0
C73 C 0.18895 0.02642 0.86011 0.0
C74 C 0.47692 0.51117 0.0322 0.0
C75 C 0.26116 0.29637 0.91475 0.0
H76 H 0.16814 0.59879 0.21663 0.0
H77 H 0.40839 0.93138 0.25756 0.0
H78 H 0.37055 0.84705 0.11937 0.0
H79 H 0.45344 0.98079 0.17954 0.0
H80 H 0.4068 0.33206 0.83977 0.0
H81 H 0.29773 0.98525 0.82669 0.0
H82 H 0.11731 0.08884 0.90737 0.0
H83 H 0.12566 0.9411 0.86481 0.0
Tb84 Tb 0.74946 0.28678 0.39265 0.0
C85 C 0.8998 0.95426 0.31969 0.0
C86 C 1.02743 0.93622 0.42631 0.0
C87 C 0.9108 0.73603 0.35009 0.0
C88 C 0.96205 0.0277 0.36363 0.0
C89 C 0.87355 0.81768 0.31079 0.0
C90 C 0.98325 0.78837 0.40626 0.0
C91 C 0.72868 0.81802 0.26595 0.0
N92 N 0.84211 0.99871 0.30251 0.0
C93 C 0.75292 0.92824 0.27663 0.0
C94 C 0.79195 0.76899 0.27909 0.0
Tb95 Tb 0.90736 0.19025 0.32966 0.0
N96 N 0.05393 0.13627 0.35443 0.0
C97 C 0.20765 0.19557 0.38887 0.0
C98 C 0.14968 1.01625 0.44461 0.0
C99 C 0.2322 0.13409 0.42795 0.0
H100 H 0.69962 0.95644 0.26283 0.0
H101 H 0.31715 0.17156 0.4396 0.0
H102 H 0.99103 0.72742 0.42455 0.0
H103 H 0.66044 0.76753 0.24455 0.0
H104 H 0.28571 0.25867 0.37987 0.0
H105 H 0.60861 0.3789 0.2365 0.0
H106 H 0.20933 0.99303 0.44386 0.0
H107 H 0.82424 0.42117 0.49231 0.0
H108 H 0.61606 0.25131 0.29048 0.0
H109 H 0.80545 0.57061 0.52739 0.0
H110 H 0.88402 0.6518 0.34097 0.0
H111 H 0.62341 0.54859 0.26314 0.0
H112 H 0.62577 0.65976 0.33412 0.0
H113 H 0.77776 0.69335 0.26436 0.0
H114 H 0.64499 0.68253 0.41556 0.0
N115 N 0.68874 0.37212 0.34347 0.0
C116 C 0.64087 0.33314 0.30185 0.0
C117 C 0.64057 0.50007 0.28658 0.0
C118 C 0.66459 0.52803 0.33234 0.0
C119 C 0.62956 0.40222 0.27127 0.0
C120 C 0.69453 0.46488 0.35947 0.0
H121 H 0.74636 0.678 0.48408 0.0
N122 N 0.77053 0.44237 0.42677 0.0
C123 C 0.78991 0.55306 0.49223 0.0
C124 C 0.72802 0.49564 0.40353 0.0
C125 C 0.80045 0.46906 0.47138 0.0
C126 C 0.74948 0.60986 0.4682 0.0
C127 C 0.71231 0.57678 0.42422 0.0
O128 O 0.6937 0.20226 0.45617 0.0
O129 O 0.84239 0.19603 0.40133 0.0
O130 O 0.7009 0.06858 0.33341 0.0
O131 O 0.61063 0.16274 0.35718 0.0
O132 O 0.88052 0.33383 0.44122 0.0
O133 O 0.58578 0.22763 0.41534 0.0
O134 O 0.90266 0.15445 0.2584 0.0
O135 O 0.78786 0.24295 0.32492 0.0
O136 O 0.89165 0.4464 0.37421 0.0
O137 O 1.01002 0.37576 0.35867 0.0
O138 O 0.93405 0.33404 0.29189 0.0
O139 O 1.0326 0.30369 0.28525 0.0
C140 C 0.89343 0.25005 0.4387 0.0
C141 C 0.57449 0.24885 0.49562 0.0
C142 C 0.55417 0.27479 0.57789 0.0
C143 C 0.57782 0.22037 0.54196 0.0
C144 C 0.52683 0.35519 0.56602 0.0
C145 C 0.54725 0.33012 0.48674 0.0
C146 C 0.52294 0.38137 0.52117 0.0
C147 C 0.60238 0.07404 0.34023 0.0
C148 C 0.60081 0.19929 0.45561 0.0
C149 C 0.65954 0.62186 0.40016 0.0
C150 C 0.65036 0.60969 0.35309 0.0
C151 C 0.83421 0.31331 0.29234 0.0
C152 C 0.0733 0.25211 0.21381 0.0
C153 C 0.13034 0.33724 0.17985 0.0
C154 C 0.22013 0.34089 0.15319 0.0
C155 C 0.25889 0.27198 0.16927 0.0
C156 C 0.09841 0.16849 0.21645 0.0
C157 C 0.18914 0.17648 0.19367 0.0
C158 C 0.99187 0.46405 0.36554 0.0
C159 C 0.99107 0.24847 0.24811 0.0
H160 H 0.59531 0.155 0.54993 0.0
H161 H 0.50324 0.3954 0.59094 0.0
H162 H 0.55005 0.35796 0.45277 0.0
H163 H 0.4991 0.44072 0.51296 0.0
H164 H 0.10018 0.39326 0.17279 0.0
H165 H 0.33885 0.28522 0.16008 0.0
H166 H 0.05561 0.10528 0.24122 0.0
H167 H 0.21134 0.11333 0.19844 0.0
Tb168 Tb 0.48886 0.73647 0.72597 0.0
C169 C 0.97127 0.8859 0.65348 0.0
C170 C 0.11844 1.01567 0.75961 0.0
C171 C 0.20096 0.8976 0.6836 0.0
C172 C 0.96064 0.94899 0.69725 0.0
C173 C 0.08152 0.85961 0.64454 0.0
C174 C 0.22183 0.97105 0.73956 0.0
C175 C 0.93653 0.71526 0.59945 0.0
N176 N 0.86929 0.82857 0.63613 0.0
C177 C 0.85061 0.73958 0.61012 0.0
C178 C 0.04875 0.77833 0.61271 0.0
Tb179 Tb 0.74325 0.89425 0.66299 0.0
N180 N 0.94382 0.04073 0.68779 0.0
C181 C 1.03877 0.19515 0.72172 0.0
C182 C 0.16088 0.13833 0.77752 0.0
C183 C 0.12534 0.22048 0.76063 0.0
H184 H 0.76922 0.68658 0.59617 0.0
H185 H 0.17307 0.30567 0.77196 0.0
H186 H 0.29064 0.97877 0.75778 0.0
H187 H 0.91887 0.6473 0.5779 0.0
H188 H 0.0543 0.27324 0.71232 0.0
H189 H 0.25583 0.59559 0.56983 0.0
H190 H 0.24376 0.198 0.77709 0.0
H191 H 0.42935 0.81154 0.82557 0.0
H192 H 0.39096 0.60313 0.62378 0.0
H193 H 0.26106 0.79258 0.86068 0.0
H194 H 0.25837 0.87079 0.67446 0.0
H195 H 0.10079 0.61007 0.59651 0.0
H196 H 0.99194 0.61228 0.66755 0.0
H197 H 0.11028 0.76438 0.5979 0.0
H198 H 0.98843 0.63128 0.74896 0.0
N199 N 0.34274 0.67564 0.6768 0.0
C200 C 0.33389 0.62784 0.63517 0.0
C201 C 0.1665 0.62726 0.61995 0.0
C202 C 0.16255 0.65122 0.66572 0.0
C203 C 0.25342 0.61644 0.60461 0.0
C204 C 0.2557 0.68125 0.69282 0.0
H205 H 0.09437 0.73285 0.81746 0.0
N206 N 0.35427 0.75741 0.76009 0.0
C207 C 0.26299 0.77682 0.82555 0.0
C208 C 0.25842 0.71469 0.73688 0.0
C209 C 0.35756 0.78747 0.80468 0.0
C210 C 0.16566 0.73607 0.80156 0.0
C211 C 0.16154 0.69878 0.75761 0.0
O212 O 0.51751 0.68099 0.78957 0.0
O213 O 0.67256 0.82931 0.73464 0.0
O214 O 0.65831 0.68776 0.66673 0.0
O215 O 0.47392 0.59754 0.69054 0.0
O216 O 0.57304 0.86774 0.77444 0.0
O217 O 0.38456 0.57273 0.74868 0.0
O218 O 0.7746 0.88955 0.59176 0.0
O219 O 0.57105 0.7748 0.65823 0.0
O220 O 0.47143 0.87863 0.70748 0.0
O221 O 0.66051 0.99698 0.69206 0.0
O222 O 0.6262 0.921 0.62522 0.0
O223 O 0.75494 1.01934 0.61851 0.0
C224 C 0.6697 0.88055 0.77195 0.0
C225 C 0.35178 0.56143 0.82893 0.0
C226 C 0.30537 0.5411 0.91119 0.0
C227 C 0.38353 0.56486 0.87529 0.0
C228 C 0.19761 0.51363 0.89929 0.0
C229 C 0.24322 0.53395 0.82 0.0
C230 C 0.16758 0.5096 0.85442 0.0
C231 C 0.55434 0.58926 0.67356 0.0
C232 C 0.42781 0.58793 0.78898 0.0
C233 C 0.06364 0.64583 0.73356 0.0
C234 C 0.06664 0.6369 0.68649 0.0
C235 C 0.54707 0.82116 0.62566 0.0
C236 C 0.84741 0.06009 0.54709 0.0
C237 C 0.81937 0.11754 0.51331 0.0
C238 C 0.90549 0.20717 0.48657 0.0
C239 C 1.0132 0.2456 0.50255 0.0
C240 C 0.95602 0.08472 0.54949 0.0
C241 C 1.03883 0.17555 0.52679 0.0
C242 C 0.55407 0.97886 0.69886 0.0
C243 C 0.76885 0.97785 0.5814 0.0
H244 H 0.46642 0.58251 0.8833 0.0
H245 H 0.13378 0.49004 0.9242 0.0
H246 H 0.21817 0.5365 0.78601 0.0
H247 H 0.08438 0.48562 0.84616 0.0
H248 H 0.7332 0.08775 0.50639 0.0
H249 H 0.08003 0.32551 0.49337 0.0
H250 H 0.97636 0.04147 0.57405 0.0
H251 H 0.12414 0.19756 0.5315 0.0
Tb252 Tb 0.77836 0.47569 0.05931 0.0
C253 C 0.11085 0.95854 0.98635 0.0
C254 C 0.12891 0.1042 0.09297 0.0
C255 C 0.32909 0.18776 0.01676 0.0
C256 C 1.03742 0.94735 0.03029 0.0
C257 C 0.24743 0.06888 0.97745 0.0
C258 C 0.27675 0.20787 0.07292 0.0
C259 C 0.24708 0.92369 0.93259 0.0
N260 N 0.0664 0.85641 0.96917 0.0
C261 C 0.13687 0.83771 0.94328 0.0
C262 C 0.29611 0.03598 0.94575 0.0
Tb263 Tb 0.87488 0.73013 -0.00368 0.0
N264 N 0.92885 0.93066 0.0211 0.0
C265 C 0.86955 1.02508 0.05554 0.0
C266 C 0.04887 0.14642 0.11128 0.0
C267 C 0.93104 0.1111 0.09462 0.0
H268 H 0.10867 0.75621 0.92948 0.0
H269 H 0.89357 0.15858 0.10628 0.0
H270 H 0.33771 0.2766 0.09122 0.0
H271 H 0.29757 0.90595 0.91119 0.0
H272 H 0.80646 0.04005 0.04654 0.0
H273 H 0.6862 0.24271 0.90317 0.0
H274 H 0.0721 0.22929 0.11054 0.0
H275 H 0.64406 0.41603 0.15899 0.0
H276 H 0.8138 0.37773 0.95715 0.0
H277 H 0.49468 0.24778 0.19408 0.0
H278 H 0.41332 0.24522 0.00764 0.0
H279 H 0.5165 0.08782 0.9298 0.0
H280 H 0.40533 0.97903 0.00078 0.0
H281 H 0.37175 0.09744 0.93102 0.0
H282 H 0.38259 0.97546 0.08223 0.0
N283 N 0.693 0.32962 0.01014 0.0
C284 C 0.73197 0.32072 0.96852 0.0
C285 C 0.56503 0.15351 0.95325 0.0
C286 C 0.53708 0.14957 -0.00099 0.0
C287 C 0.66288 0.24034 0.93794 0.0
C288 C 0.60024 0.24266 0.02613 0.0
H289 H 0.3872 0.08134 0.15077 0.0
N290 N 0.62279 0.34114 0.09344 0.0
C291 C 0.51216 0.24981 0.15892 0.0
C292 C 0.5695 0.24537 0.0702 0.0
C293 C 0.59614 0.34437 0.13806 0.0
C294 C 0.45532 0.1526 0.13488 0.0
C295 C 0.48837 0.14853 0.09089 0.0
O296 O 0.86291 0.50445 0.12282 0.0
O297 O 0.8691 0.65936 0.06799 0.0
O298 O 0.99657 0.64535 8e-05 0.0
O299 O 0.90238 0.46089 0.02384 0.0
O300 O 0.73131 0.55968 0.10788 0.0
O301 O 0.83753 0.37116 0.08199 0.0
O302 O 0.91068 0.76121 0.92506 0.0
O303 O 0.82218 0.55792 0.99158 0.0
O304 O 0.61873 0.45825 0.04087 0.0
O305 O 0.68936 0.64725 0.02533 0.0
O306 O 0.73109 0.61302 0.95856 0.0
O307 O 0.76145 0.74195 0.95192 0.0
C308 C 0.81508 0.65637 0.10537 0.0
C309 C 0.81636 0.33868 0.16227 0.0
C310 C 0.79041 0.29243 0.24454 0.0
C311 C 0.84482 0.3705 0.20861 0.0
C312 C 0.71003 0.18467 0.23268 0.0
C313 C 0.73511 0.23015 0.1534 0.0
C314 C 0.68388 0.15458 0.18784 0.0
C315 C 0.99111 0.54137 0.00691 0.0
C316 C 0.86589 0.41454 0.12226 0.0
C317 C 0.44326 0.05068 0.06682 0.0
C318 C 0.45541 0.05368 0.01975 0.0
C319 C 0.75183 0.53391 0.95901 0.0
C320 C 0.81306 0.83424 0.88048 0.0
C321 C 0.72797 0.80616 0.8465 0.0
C322 C 0.72431 0.89231 0.81985 0.0
C323 C 0.7932 0.99997 0.83595 0.0
C324 C 0.89666 0.94297 0.88314 0.0
C325 C 0.88868 1.02572 0.86036 0.0
C326 C 0.60108 0.54083 0.0322 0.0
C327 C 0.81667 0.75562 0.91477 0.0
H328 H 0.91016 0.45337 0.21658 0.0
H329 H 0.66983 0.12088 0.25761 0.0
H330 H 0.70726 0.20511 0.11943 0.0
H331 H 0.62454 0.07139 0.17962 0.0
H332 H 0.67199 0.71999 0.83941 0.0
H333 H 0.77996 0.06669 0.82675 0.0
H334 H 0.95984 0.96337 0.90792 0.0
H335 H 0.95181 0.11106 0.86514 0.0
Tb336 Tb 0.32878 0.76543 0.39263 0.0
C337 C 0.17924 0.09833 0.32009 0.0
C338 C 0.04976 0.11582 0.42628 0.0
C339 C 0.16765 0.31635 0.35024 0.0
C340 C 0.11626 1.02464 0.36388 0.0
C341 C 0.20553 0.23487 0.31115 0.0
C342 C 0.09433 0.26381 0.40623 0.0
C343 C 0.34991 0.23425 0.26608 0.0
N344 N 0.23659 0.05369 0.30275 0.0
C345 C 0.3256 0.12401 0.27675 0.0
C346 C 0.28683 0.28339 0.27933 0.0
Tb347 Tb 0.17097 0.86199 0.32965 0.0
N348 N 1.0245 0.91609 0.35445 0.0
C349 C 0.87017 0.85664 0.38845 0.0
C350 C 0.92714 0.03562 0.44424 0.0
C351 C 0.84494 0.91792 0.42738 0.0
H352 H 0.37862 0.09563 0.26281 0.0
H353 H 0.75978 0.88045 0.43875 0.0
H354 H 0.08669 0.32492 0.42447 0.0
H355 H 0.41787 0.28456 0.24453 0.0
H356 H 0.7921 0.794 0.37911 0.0
H357 H 0.46957 0.67322 0.23649 0.0
H358 H 0.86746 0.05883 0.44376 0.0
H359 H 0.25383 0.63094 0.49226 0.0
H360 H 0.46205 0.80082 0.29045 0.0
H361 H 0.27278 0.48161 0.52738 0.0
H362 H 0.19445 0.40057 0.3411 0.0
H363 H 0.4551 0.5037 0.26319 0.0
H364 H 0.45286 0.39263 0.33422 0.0
H365 H 0.3008 0.35888 0.26452 0.0
H366 H 0.43386 0.3701 0.41564 0.0
N367 N 0.38954 0.68009 0.34346 0.0
C368 C 0.43731 0.71902 0.30183 0.0
C369 C 0.43789 0.55221 0.28662 0.0
C370 C 0.41394 0.52431 0.33239 0.0
C371 C 0.44871 0.64995 0.27127 0.0
C372 C 0.38393 0.58744 0.35949 0.0
H373 H 0.33235 0.37453 0.48414 0.0
N374 N 0.30784 0.6099 0.42677 0.0
C375 C 0.28847 0.49924 0.49224 0.0
C376 C 0.35051 0.55674 0.40356 0.0
C377 C 0.27782 0.58317 0.47136 0.0
C378 C 0.32914 0.44261 0.46824 0.0
C379 C 0.36639 0.47574 0.42428 0.0
O380 O 0.38434 0.84966 0.45621 0.0
O381 O 0.23592 0.85625 0.4013 0.0
O382 O 0.37746 0.98357 0.33339 0.0
O383 O 0.46771 0.88941 0.3572 0.0
O384 O 0.19755 0.71833 0.44112 0.0
O385 O 0.49251 0.8248 0.41533 0.0
O386 O 0.17563 0.89802 0.25841 0.0
O387 O 0.2905 0.80934 0.32489 0.0
O388 O 0.18663 0.60583 0.37415 0.0
O389 O 0.06826 0.67653 0.35873 0.0
O390 O 0.14406 0.71811 0.29187 0.0
O391 O 0.04583 0.74859 0.28518 0.0
C392 C 0.18472 0.80217 0.43862 0.0
C393 C 0.50383 0.80342 0.4956 0.0
C394 C 0.52415 0.77738 0.57785 0.0
C395 C 0.5004 0.83177 0.54194 0.0
C396 C 0.55161 0.69708 0.56597 0.0
C397 C 0.53129 0.72232 0.48668 0.0
C398 C 0.55564 0.67105 0.52111 0.0
C399 C 0.47598 0.97812 0.34024 0.0
C400 C 0.47736 0.85294 0.45562 0.0
C401 C 0.4193 0.43076 0.40023 0.0
C402 C 0.42826 0.44271 0.35316 0.0
C403 C 0.24395 0.73898 0.29234 0.0
C404 C 1.00506 0.80029 0.21376 0.0
C405 C 0.94762 0.71482 0.17997 0.0
C406 C 0.85798 0.7113 0.15324 0.0
C407 C 0.81953 0.78056 0.16922 0.0
C408 C 0.9804 0.88425 0.21618 0.0
C409 C 0.88957 0.87622 0.19347 0.0
C410 C 0.08639 0.58821 0.36554 0.0
C411 C 0.08732 0.80398 0.24807 0.0
H412 H 0.48276 0.89703 0.54994 0.0
H413 H 0.5752 0.65686 0.59088 0.0
H414 H 0.52869 0.69465 0.4527 0.0
H415 H 0.57962 0.61182 0.51287 0.0
H416 H 0.97744 0.65847 0.17304 0.0
H417 H 0.73962 0.76747 0.16004 0.0
H418 H 1.02361 0.9478 0.24075 0.0
H419 H 0.86754 0.93951 0.19819 0.0
Tb420 Tb 0.5895 0.31577 0.72597 0.0
C421 C 0.10664 0.16534 0.65296 0.0
C422 C 0.96116 0.03798 0.75964 0.0
C423 C 0.87746 0.15443 0.6834 0.0
C424 C 0.11789 0.1032 0.69693 0.0
C425 C 0.99629 0.19158 0.64407 0.0
C426 C 0.85745 0.0821 0.73959 0.0
C427 C 0.14151 0.33649 0.59924 0.0
N428 N 0.20878 0.22305 0.6358 0.0
C429 C 0.22749 0.31226 0.60993 0.0
C430 C 1.02921 0.27321 0.61238 0.0
Tb431 Tb 0.3351 0.15786 0.66298 0.0
N432 N 0.13458 1.01131 0.68776 0.0
C433 C 0.04024 0.85768 0.72227 0.0
C434 C 0.91898 0.91578 0.77799 0.0
C435 C 0.95428 0.83322 0.76137 0.0
H436 H 0.309 0.36558 0.59614 0.0
H437 H 0.90685 0.74831 0.77306 0.0
H438 H 0.78871 0.07429 0.75789 0.0
H439 H 0.15925 0.40474 0.57785 0.0
H440 H 1.0254 0.77964 0.71333 0.0
H441 H 0.82244 0.45655 0.56983 0.0
H442 H 0.8361 0.85613 0.77722 0.0
H443 H 0.64918 0.24122 0.82567 0.0
H444 H 0.68743 0.44911 0.6238 0.0
H445 H 0.8174 0.26001 0.86076 0.0
H446 H 0.81999 0.18119 0.67428 0.0
H447 H 0.97735 0.44176 0.59647 0.0
H448 H 0.08613 0.43937 0.66745 0.0
H449 H 0.96776 0.28741 0.59766 0.0
H450 H 0.08968 0.42013 0.7489 0.0
N451 N 0.73554 0.37642 0.67679 0.0
C452 C 0.74442 0.42427 0.63517 0.0
C453 C 0.91165 0.42459 0.61991 0.0
C454 C 0.91559 0.40056 0.66567 0.0
C455 C 0.82482 0.43559 0.6046 0.0
C456 C 0.8225 0.37062 0.69279 0.0
H457 H 0.9838 0.31884 0.81742 0.0
N458 N 0.72402 0.29472 0.76012 0.0
C459 C 0.81536 0.27542 0.82559 0.0
C460 C 0.81979 0.33717 0.73686 0.0
C461 C 0.72082 0.26489 0.80474 0.0
C462 C 0.91254 0.31573 0.80154 0.0
C463 C 0.91662 0.35284 0.75756 0.0
O464 O 0.56075 0.37173 0.78945 0.0
O465 O 0.40581 0.22287 0.73467 0.0
O466 O 0.41988 0.36433 0.66673 0.0
O467 O 0.60433 0.45461 0.6905 0.0
O468 O 0.50559 0.18468 0.77454 0.0
O469 O 0.69419 0.47944 0.74864 0.0
O470 O 0.30397 0.16252 0.59172 0.0
O471 O 0.50729 0.27743 0.65823 0.0
O472 O 0.60698 0.1736 0.70753 0.0
O473 O 0.418 0.05523 0.69199 0.0
O474 O 0.45213 0.131 0.62522 0.0
O475 O 0.32327 0.03259 0.61859 0.0
C476 C 0.409 0.17198 0.77206 0.0
C477 C 0.72657 0.49078 0.82893 0.0
C478 C 0.77273 0.51101 0.91121 0.0
C479 C 0.6947 0.4874 0.87526 0.0
C480 C 0.88049 0.53838 0.89937 0.0
C481 C 0.83509 0.51802 0.82008 0.0
C482 C 0.91062 0.54232 0.85453 0.0
C483 C 0.52384 0.46285 0.67357 0.0
C484 C 0.65077 0.46452 0.78889 0.0
C485 C 1.01446 0.40557 0.73349 0.0
C486 C 1.01148 0.41478 0.68642 0.0
C487 C 0.53111 0.2309 0.62568 0.0
C488 C 0.23097 0.99185 0.54715 0.0
C489 C 0.25907 0.93483 0.51318 0.0
C490 C 0.17294 0.84502 0.48652 0.0
C491 C 0.06527 0.80624 0.50261 0.0
C492 C 0.12223 0.96669 0.5498 0.0
C493 C 0.0395 0.87596 0.52702 0.0
C494 C 0.52442 0.07338 0.69887 0.0
C495 C 0.30958 0.07411 0.58143 0.0
H496 H 0.61183 0.46989 0.88322 0.0
H497 H 0.94425 0.56192 0.9243 0.0
H498 H 0.86017 0.5152 0.78612 0.0
H499 H 0.99382 0.56617 0.84633 0.0
H500 H 0.34524 0.96502 0.5061 0.0
H501 H 0.99856 0.72627 0.49342 0.0
H502 H 0.10181 1.00945 0.57458 0.0
H503 H 0.95415 0.85373 0.53179 0.0
loop_
_geom_bond_atom_site_label_1
_geom_bond_atom_site_label_2
_geom_bond_distance
_geom_bond_site_symmetry_2
_ccdc_geom_bond_type
Tb0 N31 2.660 . S
Tb0 N38 2.600 . S
Tb0 O44 2.546 . S
Tb0 O45 2.610 . S
Tb0 O47 2.320 . S
Tb0 O48 2.552 . S
Tb0 O49 2.413 . S
Tb0 O51 2.355 1_554 S
Tb0 O52 2.421 . S
Tb0 C64 2.833 . S
C1 C4 1.432 1_655 S
C1 C5 1.414 1_545 S
C1 N8 1.359 . S
C2 C4 1.417 1_665 S
C2 C6 1.432 . S
C2 C14 1.410 1_655 S
C3 C5 1.444 . S
C3 C6 1.317 . S
C3 H26 0.929 . S
C4 C1 1.432 1_455 S
C4 C2 1.417 1_445 S
C4 N12 1.360 . S
C5 C1 1.414 1_565 S
C5 C3 1.444 . S
C5 C10 1.385 . S
C6 C2 1.432 . S
C6 C3 1.317 . S
C6 H18 0.930 . S
C7 C9 1.392 . S
C7 C10 1.370 1_546 S
C7 H19 0.931 . S
N8 C1 1.359 . S
N8 C9 1.327 1_554 S
N8 Tb11 2.600 1_654 S
C9 C7 1.392 . S
C9 N8 1.327 1_556 S
C9 H16 0.930 . S
C10 C5 1.385 . S
C10 C7 1.370 1_564 S
C10 H29 0.930 . S
Tb11 N8 2.600 1_456 S
Tb11 N12 2.660 1_556 S
Tb11 O45 2.362 1_556 S
Tb11 O46 2.421 1_556 S
Tb11 O50 2.546 . S
Tb11 O51 2.610 . S
Tb11 O53 2.320 1_556 S
Tb11 O54 2.552 . S
Tb11 O55 2.413 . S
Tb11 C75 2.833 . S
N12 C4 1.360 . S
N12 Tb11 2.660 1_554 S
N12 C13 1.305 . S
C13 N12 1.305 . S
C13 C15 1.407 . S
C13 H20 0.930 . S
C14 C2 1.410 1_455 S
C14 C15 1.345 1_565 S
C14 H22 0.930 . S
C15 C13 1.407 . S
C15 C14 1.345 1_545 S
C15 H17 0.930 . S
H16 C9 0.930 . S
H17 C15 0.930 . S
H18 C6 0.930 . S
H19 C7 0.931 . S
H20 C13 0.930 . S
H21 C35 0.930 . S
H22 C14 0.930 . S
H23 C41 0.930 . S
H24 C32 0.930 1_554 S
H25 C39 0.931 . S
H26 C3 0.929 . S
H27 C33 0.930 . S
H28 C66 0.930 1_545 S
H29 C10 0.930 . S
H30 C65 0.929 1_545 S
N31 Tb0 2.660 . S
N31 C32 1.303 1_554 S
N31 C36 1.360 . S
C32 H24 0.930 1_556 S
C32 N31 1.303 1_556 S
C32 C35 1.409 . S
C33 H27 0.930 . S
C33 C34 1.410 . S
C33 C35 1.345 . S
C34 C33 1.410 . S
C34 C36 1.417 1_556 S
C34 C66 1.432 . S
C35 H21 0.930 . S
C35 C32 1.409 . S
C35 C33 1.345 . S
C36 N31 1.360 . S
C36 C34 1.417 1_554 S
C36 C40 1.432 . S
H37 C42 0.930 . S
N38 Tb0 2.600 . S
N38 C40 1.359 . S
N38 C41 1.327 . S
C39 H25 0.931 . S
C39 C41 1.392 . S
C39 C42 1.370 . S
C40 C36 1.432 . S
C40 N38 1.359 . S
C40 C43 1.414 . S
C41 H23 0.930 . S
C41 N38 1.327 . S
C41 C39 1.392 . S
C42 H37 0.930 . S
C42 C39 1.370 . S
C42 C43 1.385 . S
C43 C40 1.414 . S
C43 C42 1.385 . S
C43 C65 1.444 . S
O44 Tb0 2.546 . S
O44 C64 1.251 . S
O45 Tb0 2.610 . S
O45 Tb11 2.362 1_554 S
O45 C56 1.283 . S
O46 Tb11 2.421 1_554 S
O46 C63 1.262 . S
O47 Tb0 2.320 . S
O47 C63 1.260 . S
O48 Tb0 2.552 . S
O48 C56 1.243 . S
O49 Tb0 2.413 . S
O49 C64 1.256 . S
O50 Tb11 2.546 . S
O50 C75 1.251 . S
O51 Tb0 2.355 1_556 S
O51 Tb11 2.610 . S
O51 C67 1.290 . S
O52 Tb0 2.421 . S
O52 C74 1.262 . S
O53 Tb11 2.320 1_554 S
O53 C74 1.260 . S
O54 Tb11 2.552 . S
O54 C67 1.243 . S
O55 Tb11 2.413 . S
O55 C75 1.256 . S
C56 O45 1.283 . S
C56 O48 1.243 . S
C57 C59 1.382 . S
C57 C61 1.393 . S
C57 C64 1.500 . S
C58 C59 1.400 . S
C58 C60 1.384 . S
C59 C57 1.382 . S
C59 C58 1.400 . S
C59 H76 0.930 . S
C60 C58 1.384 . S
C60 C62 1.392 . S
C60 H77 0.931 . S
C61 C57 1.393 . S
C61 C62 1.401 . S
C61 H78 0.930 . S
C62 C60 1.392 . S
C62 C61 1.401 . S
C62 H79 0.930 . S
C63 O46 1.262 . S
C63 O47 1.260 . S
C64 Tb0 2.833 . S
C64 O44 1.251 . S
C64 O49 1.256 . S
C64 C57 1.500 . S
C65 H30 0.929 1_565 S
C65 C43 1.444 . S
C65 C66 1.317 1_554 S
C66 H28 0.930 1_565 S
C66 C34 1.432 . S
C66 C65 1.317 1_556 S
C67 O51 1.290 . S
C67 O54 1.243 . S
C68 C69 1.382 . S
C68 C72 1.393 . S
C68 C75 1.500 . S
C69 C68 1.382 . S
C69 C70 1.400 . S
C69 H80 0.930 . S
C70 C69 1.400 . S
C70 C71 1.384 . S
C71 C70 1.384 . S
C71 C73 1.392 . S
C71 H81 0.931 1_545 S
C72 C68 1.393 . S
C72 C73 1.401 . S
C72 H82 0.930 1_455 S
C73 C71 1.392 . S
C73 C72 1.401 . S
C73 H83 0.930 1_445 S
C74 O52 1.262 . S
C74 O53 1.260 . S
C75 Tb11 2.833 . S
C75 O50 1.251 . S
C75 O55 1.256 . S
C75 C68 1.500 . S
H76 C59 0.930 . S
H77 C60 0.931 . S
H78 C61 0.930 . S
H79 C62 0.930 . S
H80 C69 0.930 . S
H81 C71 0.931 1_565 S
H82 C72 0.930 1_655 S
H83 C73 0.930 1_665 S
Tb84 N115 2.660 . S
Tb84 N122 2.600 . S
Tb84 O128 2.546 . S
Tb84 O129 2.610 . S
Tb84 O131 2.320 . S
Tb84 O132 2.552 . S
Tb84 O133 2.413 . S
Tb84 O135 2.362 . S
Tb84 O136 2.421 . S
Tb84 C148 2.833 . S
C85 C88 1.432 1_565 S
C85 C89 1.414 . S
C85 N92 1.359 . S
C86 C88 1.417 1_465 S
C86 C90 1.432 . S
C86 C98 1.410 1_565 S
C87 C89 1.444 . S
C87 C90 1.317 1_655 S
C87 H110 0.929 . S
C88 C85 1.432 1_545 S
C88 C86 1.417 1_645 S
C88 N96 1.360 . S
C89 C85 1.414 . S
C89 C87 1.444 . S
C89 C94 1.385 . S
C90 C86 1.432 . S
C90 C87 1.317 1_455 S
C90 H102 0.930 . S
C91 C93 1.392 . S
C91 C94 1.370 . S
C91 H103 0.931 . S
N92 C85 1.359 . S
N92 C93 1.327 . S
N92 Tb95 2.600 1_565 S
C93 C91 1.392 . S
C93 N92 1.327 . S
C93 H100 0.930 . S
C94 C89 1.385 . S
C94 C91 1.370 . S
C94 H113 0.930 . S
Tb95 N92 2.600 1_545 S
Tb95 N96 2.660 . S
Tb95 O129 2.362 . S
Tb95 O130 2.421 . S
Tb95 O134 2.546 . S
Tb95 O135 2.610 . S
Tb95 O137 2.320 . S
Tb95 O138 2.552 . S
Tb95 O139 2.413 1_655 S
Tb95 C159 2.833 . S
N96 C88 1.360 . S
N96 Tb95 2.660 . S
N96 C97 1.305 1_655 S
C97 N96 1.305 1_455 S
C97 C99 1.407 . S
C97 H104 0.930 . S
C98 C86 1.410 1_545 S
C98 C99 1.345 . S
C98 H106 0.930 . S
C99 C97 1.407 . S
C99 C98 1.345 . S
C99 H101 0.930 . S
H100 C93 0.930 . S
H101 C99 0.930 . S
H102 C90 0.930 . S
H103 C91 0.931 . S
H104 C97 0.930 . S
H105 C119 0.930 . S
H106 C98 0.930 . S
H107 C125 0.930 . S
H108 C116 0.930 . S
H109 C123 0.931 . S
H110 C87 0.929 . S
H111 C117 0.930 . S
H112 C150 0.930 . S
H113 C94 0.930 . S
H114 C149 0.929 . S
N115 Tb84 2.660 . S
N115 C116 1.305 . S
N115 C120 1.360 . S
C116 H108 0.930 . S
C116 N115 1.305 . S
C116 C119 1.407 . S
C117 H111 0.930 . S
C117 C118 1.410 . S
C117 C119 1.345 . S
C118 C117 1.410 . S
C118 C120 1.417 . S
C118 C150 1.432 . S
C119 H105 0.930 . S
C119 C116 1.407 . S
C119 C117 1.345 . S
C120 N115 1.360 . S
C120 C118 1.417 . S
C120 C124 1.432 . S
H121 C126 0.930 . S
N122 Tb84 2.600 . S
N122 C124 1.359 . S
N122 C125 1.327 . S
C123 H109 0.931 . S
C123 C125 1.392 . S
C123 C126 1.370 . S
C124 C120 1.432 . S
C124 N122 1.359 . S
C124 C127 1.414 . S
C125 H107 0.930 . S
C125 N122 1.327 . S
C125 C123 1.392 . S
C126 H121 0.930 . S
C126 C123 1.370 . S
C126 C127 1.385 . S
C127 C124 1.414 . S
C127 C126 1.385 . S
C127 C149 1.444 . S
O128 Tb84 2.546 . S
O128 C148 1.251 . S
O129 Tb84 2.610 . S
O129 Tb95 2.362 . S
O129 C140 1.283 . S
O130 Tb95 2.421 . S
O130 C147 1.262 . S
O131 Tb84 2.320 . S
O131 C147 1.260 . S
O132 Tb84 2.552 . S
O132 C140 1.243 . S
O133 Tb84 2.413 . S
O133 C148 1.256 . S
O134 Tb95 2.546 . S
O134 C159 1.251 . S
O135 Tb84 2.362 . S
O135 Tb95 2.610 . S
O135 C151 1.283 . S
O136 Tb84 2.421 . S
O136 C158 1.262 . S
O137 Tb95 2.320 . S
O137 C158 1.260 . S
O138 Tb95 2.552 . S
O138 C151 1.243 . S
O139 Tb95 2.413 1_455 S
O139 C159 1.256 1_455 S
C140 O129 1.283 . S
C140 O132 1.243 . S
C141 C143 1.382 . S
C141 C145 1.393 . S
C141 C148 1.500 . S
C142 C143 1.400 . S
C142 C144 1.384 . S
C143 C141 1.382 . S
C143 C142 1.400 . S
C143 H160 0.930 . S
C144 C142 1.384 . S
C144 C146 1.392 . S
C144 H161 0.931 . S
C145 C141 1.393 . S
C145 C146 1.401 . S
C145 H162 0.930 . S
C146 C144 1.392 . S
C146 C145 1.401 . S
C146 H163 0.930 . S
C147 O130 1.262 . S
C147 O131 1.260 . S
C148 Tb84 2.833 . S
C148 O128 1.251 . S
C148 O133 1.256 . S
C148 C141 1.500 . S
C149 H114 0.929 . S
C149 C127 1.444 . S
C149 C150 1.317 . S
C150 H112 0.930 . S
C150 C118 1.432 . S
C150 C149 1.317 . S
C151 O135 1.283 . S
C151 O138 1.243 . S
C152 C153 1.382 . S
C152 C156 1.393 1_455 S
C152 C159 1.500 1_455 S
C153 C152 1.382 . S
C153 C154 1.400 . S
C153 H164 0.930 . S
C154 C153 1.400 . S
C154 C155 1.384 . S
C155 C154 1.384 . S
C155 C157 1.392 . S
C155 H165 0.931 . S
C156 C152 1.393 1_655 S
C156 C157 1.401 1_655 S
C156 H166 0.930 1_545 S
C157 C155 1.392 . S
C157 C156 1.401 1_455 S
C157 H167 0.930 1_545 S
C158 O136 1.262 . S
C158 O137 1.260 . S
C159 Tb95 2.833 . S
C159 O134 1.251 . S
C159 O139 1.256 1_655 S
C159 C152 1.500 1_655 S
H160 C143 0.930 . S
H161 C144 0.931 . S
H162 C145 0.930 . S
H163 C146 0.930 . S
H164 C153 0.930 . S
H165 C155 0.931 . S
H166 C156 0.930 1_565 S
H167 C157 0.930 1_565 S
Tb168 N199 2.660 . S
Tb168 N206 2.600 . S
Tb168 O212 2.546 . S
Tb168 O213 2.610 . S
Tb168 O215 2.320 . S
Tb168 O216 2.552 . S
Tb168 O217 2.413 . S
Tb168 O219 2.362 . S
Tb168 O220 2.421 . S
Tb168 C232 2.833 . S
C169 C172 1.432 . S
C169 C173 1.414 1_655 S
C169 N176 1.359 . S
C170 C172 1.417 1_445 S
C170 C174 1.432 . S
C170 C182 1.410 . S
C171 C173 1.444 . S
C171 C174 1.317 1_565 S
C171 H194 0.929 . S
C172 C169 1.432 . S
C172 C170 1.417 1_665 S
C172 N180 1.360 . S
C173 C169 1.414 1_455 S
C173 C171 1.444 . S
C173 C178 1.385 . S
C174 C170 1.432 . S
C174 C171 1.317 1_545 S
C174 H186 0.930 . S
C175 C177 1.392 . S
C175 C178 1.370 1_655 S
C175 H187 0.931 . S
N176 C169 1.359 . S
N176 C177 1.327 . S
N176 Tb179 2.600 . S
C177 C175 1.392 . S
C177 N176 1.327 . S
C177 H184 0.930 . S
C178 C173 1.385 . S
C178 C175 1.370 1_455 S
C178 H197 0.930 . S
Tb179 N176 2.600 . S
Tb179 N180 2.660 . S
Tb179 O213 2.362 . S
Tb179 O214 2.421 . S
Tb179 O218 2.546 . S
Tb179 O219 2.610 . S
Tb179 O221 2.320 . S
Tb179 O222 2.552 . S
Tb179 O223 2.413 1_565 S
Tb179 C243 2.833 . S
N180 C172 1.360 . S
N180 Tb179 2.660 . S
N180 C181 1.305 1_565 S
C181 N180 1.305 1_545 S
C181 C183 1.407 . S
C181 H188 0.930 . S
C182 C170 1.410 . S
C182 C183 1.345 1_455 S
C182 H190 0.930 . S
C183 C181 1.407 . S
C183 C182 1.345 1_655 S
C183 H185 0.930 . S
H184 C177 0.930 . S
H185 C183 0.930 . S
H186 C174 0.930 . S
H187 C175 0.931 . S
H188 C181 0.930 . S
H189 C203 0.930 . S
H190 C182 0.930 . S
H191 C209 0.930 . S
H192 C200 0.930 . S
H193 C207 0.931 . S
H194 C171 0.929 . S
H195 C201 0.930 . S
H196 C234 0.930 1_655 S
H197 C178 0.930 . S
H198 C233 0.929 1_655 S
N199 Tb168 2.660 . S
N199 C200 1.305 . S
N199 C204 1.360 . S
C200 H192 0.930 . S
C200 N199 1.305 . S
C200 C203 1.407 . S
C201 H195 0.930 . S
C201 C202 1.410 . S
C201 C203 1.345 . S
C202 C201 1.410 . S
C202 C204 1.417 . S
C202 C234 1.432 . S
C203 H189 0.930 . S
C203 C200 1.407 . S
C203 C201 1.345 . S
C204 N199 1.360 . S
C204 C202 1.417 . S
C204 C208 1.432 . S
H205 C210 0.930 . S
N206 Tb168 2.600 . S
N206 C208 1.359 . S
N206 C209 1.327 . S
C207 H193 0.931 . S
C207 C209 1.392 . S
C207 C210 1.370 . S
C208 C204 1.432 . S
C208 N206 1.359 . S
C208 C211 1.414 . S
C209 H191 0.930 . S
C209 N206 1.327 . S
C209 C207 1.392 . S
C210 H205 0.930 . S
C210 C207 1.370 . S
C210 C211 1.385 . S
C211 C208 1.414 . S
C211 C210 1.385 . S
C211 C233 1.444 . S
O212 Tb168 2.546 . S
O212 C232 1.251 . S
O213 Tb168 2.610 . S
O213 Tb179 2.362 . S
O213 C224 1.283 . S
O214 Tb179 2.421 . S
O214 C231 1.262 . S
O215 Tb168 2.320 . S
O215 C231 1.260 . S
O216 Tb168 2.552 . S
O216 C224 1.243 . S
O217 Tb168 2.413 . S
O217 C232 1.256 . S
O218 Tb179 2.546 . S
O218 C243 1.251 . S
O219 Tb168 2.362 . S
O219 Tb179 2.610 . S
O219 C235 1.283 . S
O220 Tb168 2.421 . S
O220 C242 1.262 . S
O221 Tb179 2.320 . S
O221 C242 1.260 . S
O222 Tb179 2.552 . S
O222 C235 1.243 . S
O223 Tb179 2.413 1_545 S
O223 C243 1.256 1_545 S
C224 O213 1.283 . S
C224 O216 1.243 . S
C225 C227 1.382 . S
C225 C229 1.393 . S
C225 C232 1.500 . S
C226 C227 1.400 . S
C226 C228 1.384 . S
C227 C225 1.382 . S
C227 C226 1.400 . S
C227 H244 0.930 . S
C228 C226 1.384 . S
C228 C230 1.392 . S
C228 H245 0.931 . S
C229 C225 1.393 . S
C229 C230 1.401 . S
C229 H246 0.930 . S
C230 C228 1.392 . S
C230 C229 1.401 . S
C230 H247 0.930 . S
C231 O214 1.262 . S
C231 O215 1.260 . S
C232 Tb168 2.833 . S
C232 O212 1.251 . S
C232 O217 1.256 . S
C232 C225 1.500 . S
C233 H198 0.929 1_455 S
C233 C211 1.444 . S
C233 C234 1.317 . S
C234 H196 0.930 1_455 S
C234 C202 1.432 . S
C234 C233 1.317 . S
C235 O219 1.283 . S
C235 O222 1.243 . S
C236 C237 1.382 . S
C236 C240 1.393 1_545 S
C236 C243 1.500 1_545 S
C237 C236 1.382 . S
C237 C238 1.400 . S
C237 H248 0.930 . S
C238 C237 1.400 . S
C238 C239 1.384 . S
C239 C238 1.384 . S
C239 C241 1.392 . S
C239 H249 0.931 1_655 S
C240 C236 1.393 1_565 S
C240 C241 1.401 1_565 S
C240 H250 0.930 . S
C241 C239 1.392 . S
C241 C240 1.401 1_545 S
C241 H251 0.930 1_655 S
C242 O220 1.262 . S
C242 O221 1.260 . S
C243 Tb179 2.833 . S
C243 O218 1.251 . S
C243 O223 1.256 1_565 S
C243 C236 1.500 1_565 S
H244 C227 0.930 . S
H245 C228 0.931 . S
H246 C229 0.930 . S
H247 C230 0.930 . S
H248 C237 0.930 . S
H249 C239 0.931 1_455 S
H250 C240 0.930 . S
H251 C241 0.930 1_455 S
Tb252 N283 2.660 . S
Tb252 N290 2.600 . S
Tb252 O296 2.546 . S
Tb252 O297 2.610 . S
Tb252 O299 2.320 . S
Tb252 O300 2.552 . S
Tb252 O301 2.413 . S
Tb252 O303 2.355 1_554 S
Tb252 O304 2.421 . S
Tb252 C316 2.833 . S
C253 C256 1.432 1_455 S
C253 C257 1.414 1_565 S
C253 N260 1.359 . S
C254 C256 1.417 1_445 S
C254 C258 1.432 . S
C254 C266 1.410 1_455 S
C255 C257 1.444 . S
C255 C258 1.317 . S
C255 H278 0.929 . S
C256 C253 1.432 1_655 S
C256 C254 1.417 1_665 S
C256 N264 1.360 . S
C257 C253 1.414 1_545 S
C257 C255 1.444 . S
C257 C262 1.385 . S
C258 C254 1.432 . S
C258 C255 1.317 . S
C258 H270 0.930 . S
C259 C261 1.392 . S
C259 C262 1.370 1_566 S
C259 H271 0.931 . S
N260 C253 1.359 . S
N260 C261 1.327 1_554 S
N260 Tb263 2.600 1_454 S
C261 C259 1.392 . S
C261 N260 1.327 1_556 S
C261 H268 0.930 . S
C262 C257 1.385 . S
C262 C259 1.370 1_544 S
C262 H281 0.930 . S
Tb263 N260 2.600 1_656 S
Tb263 N264 2.660 1_556 S
Tb263 O297 2.362 1_556 S
Tb263 O298 2.421 1_556 S
Tb263 O302 2.546 . S
Tb263 O303 2.610 . S
Tb263 O305 2.320 1_556 S
Tb263 O306 2.552 . S
Tb263 O307 2.413 . S
Tb263 C327 2.833 . S
N264 C256 1.360 . S
N264 Tb263 2.660 1_554 S
N264 C265 1.305 . S
C265 N264 1.305 . S
C265 C267 1.407 . S
C265 H272 0.930 . S
C266 C254 1.410 1_655 S
C266 C267 1.345 1_545 S
C266 H274 0.930 . S
C267 C265 1.407 . S
C267 C266 1.345 1_565 S
C267 H269 0.930 . S
H268 C261 0.930 . S
H269 C267 0.930 . S
H270 C258 0.930 . S
H271 C259 0.931 . S
H272 C265 0.930 . S
H273 C287 0.930 . S
H274 C266 0.930 . S
H275 C293 0.930 . S
H276 C284 0.930 1_554 S
H277 C291 0.931 . S
H278 C255 0.929 . S
H279 C285 0.930 . S
H280 C318 0.930 1_565 S
H281 C262 0.930 . S
H282 C317 0.929 1_565 S
N283 Tb252 2.660 . S
N283 C284 1.303 1_554 S
N283 C288 1.360 . S
C284 H276 0.930 1_556 S
C284 N283 1.303 1_556 S
C284 C287 1.409 . S
C285 H279 0.930 . S
C285 C286 1.410 . S
C285 C287 1.345 . S
C286 C285 1.410 . S
C286 C288 1.417 1_556 S
C286 C318 1.432 . S
C287 H273 0.930 . S
C287 C284 1.409 . S
C287 C285 1.345 . S
C288 N283 1.360 . S
C288 C286 1.417 1_554 S
C288 C292 1.432 . S
H289 C294 0.930 . S
N290 Tb252 2.600 . S
N290 C292 1.359 . S
N290 C293 1.327 . S
C291 H277 0.931 . S
C291 C293 1.392 . S
C291 C294 1.370 . S
C292 C288 1.432 . S
C292 N290 1.359 . S
C292 C295 1.414 . S
C293 H275 0.930 . S
C293 N290 1.327 . S
C293 C291 1.392 . S
C294 H289 0.930 . S
C294 C291 1.370 . S
C294 C295 1.385 . S
C295 C292 1.414 . S
C295 C294 1.385 . S
C295 C317 1.444 . S
O296 Tb252 2.546 . S
O296 C316 1.251 . S
O297 Tb252 2.610 . S
O297 Tb263 2.362 1_554 S
O297 C308 1.283 . S
O298 Tb263 2.421 1_554 S
O298 C315 1.262 . S
O299 Tb252 2.320 . S
O299 C315 1.260 . S
O300 Tb252 2.552 . S
O300 C308 1.243 . S
O301 Tb252 2.413 . S
O301 C316 1.256 . S
O302 Tb263 2.546 . S
O302 C327 1.251 . S
O303 Tb252 2.355 1_556 S
O303 Tb263 2.610 . S
O303 C319 1.290 . S
O304 Tb252 2.421 . S
O304 C326 1.262 . S
O305 Tb263 2.320 1_554 S
O305 C326 1.260 . S
O306 Tb263 2.552 . S
O306 C319 1.243 . S
O307 Tb263 2.413 . S
O307 C327 1.256 . S
C308 O297 1.283 . S
C308 O300 1.243 . S
C309 C311 1.382 . S
C309 C313 1.393 . S
C309 C316 1.500 . S
C310 C311 1.400 . S
C310 C312 1.384 . S
C311 C309 1.382 . S
C311 C310 1.400 . S
C311 H328 0.930 . S
C312 C310 1.384 . S
C312 C314 1.392 . S
C312 H329 0.931 . S
C313 C309 1.393 . S
C313 C314 1.401 . S
C313 H330 0.930 . S
C314 C312 1.392 . S
C314 C313 1.401 . S
C314 H331 0.930 . S
C315 O298 1.262 . S
C315 O299 1.260 . S
C316 Tb252 2.833 . S
C316 O296 1.251 . S
C316 O301 1.256 . S
C316 C309 1.500 . S
C317 H282 0.929 1_545 S
C317 C295 1.444 . S
C317 C318 1.317 1_554 S
C318 H280 0.930 1_545 S
C318 C286 1.432 . S
C318 C317 1.317 1_556 S
C319 O303 1.290 . S
C319 O306 1.243 . S
C320 C321 1.382 . S
C320 C324 1.393 . S
C320 C327 1.500 . S
C321 C320 1.382 . S
C321 C322 1.400 . S
C321 H332 0.930 . S
C322 C321 1.400 . S
C322 C323 1.384 . S
C323 C322 1.384 . S
C323 C325 1.392 . S
C323 H333 0.931 1_565 S
C324 C320 1.393 . S
C324 C325 1.401 . S
C324 H334 0.930 1_655 S
C325 C323 1.392 . S
C325 C324 1.401 . S
C325 H335 0.930 1_665 S
C326 O304 1.262 . S
C326 O305 1.260 . S
C327 Tb263 2.833 . S
C327 O302 1.251 . S
C327 O307 1.256 . S
C327 C320 1.500 . S
H328 C311 0.930 . S
H329 C312 0.931 . S
H330 C313 0.930 . S
H331 C314 0.930 . S
H332 C321 0.930 . S
H333 C323 0.931 1_545 S
H334 C324 0.930 1_455 S
H335 C325 0.930 1_445 S
Tb336 N367 2.660 . S
Tb336 N374 2.600 . S
Tb336 O380 2.546 . S
Tb336 O381 2.610 . S
Tb336 O383 2.320 . S
Tb336 O384 2.552 . S
Tb336 O385 2.413 . S
Tb336 O387 2.362 . S
Tb336 O388 2.421 . S
Tb336 C400 2.833 . S
C337 C340 1.432 1_545 S
C337 C341 1.414 . S
C337 N344 1.359 . S
C338 C340 1.417 1_645 S
C338 C342 1.432 . S
C338 C350 1.410 1_545 S
C339 C341 1.444 . S
C339 C342 1.317 1_455 S
C339 H362 0.929 . S
C340 C337 1.432 1_565 S
C340 C338 1.417 1_465 S
C340 N348 1.360 . S
C341 C337 1.414 . S
C341 C339 1.444 . S
C341 C346 1.385 . S
C342 C338 1.432 . S
C342 C339 1.317 1_655 S
C342 H354 0.930 . S
C343 C345 1.392 . S
C343 C346 1.370 . S
C343 H355 0.931 . S
N344 C337 1.359 . S
N344 C345 1.327 . S
N344 Tb347 2.600 1_545 S
C345 C343 1.392 . S
C345 N344 1.327 . S
C345 H352 0.930 . S
C346 C341 1.385 . S
C346 C343 1.370 . S
C346 H365 0.930 . S
Tb347 N344 2.600 1_565 S
Tb347 N348 2.660 . S
Tb347 O381 2.362 . S
Tb347 O382 2.421 . S
Tb347 O386 2.546 . S
Tb347 O387 2.610 . S
Tb347 O389 2.320 . S
Tb347 O390 2.552 . S
Tb347 O391 2.413 1_455 S
Tb347 C411 2.833 . S
N348 C340 1.360 . S
N348 Tb347 2.660 . S
N348 C349 1.305 1_455 S
C349 N348 1.305 1_655 S
C349 C351 1.407 . S
C349 H356 0.930 . S
C350 C338 1.410 1_565 S
C350 C351 1.345 . S
C350 H358 0.930 . S
C351 C349 1.407 . S
C351 C350 1.345 . S
C351 H353 0.930 . S
H352 C345 0.930 . S
H353 C351 0.930 . S
H354 C342 0.930 . S
H355 C343 0.931 . S
H356 C349 0.930 . S
H357 C371 0.930 . S
H358 C350 0.930 . S
H359 C377 0.930 . S
H360 C368 0.930 . S
H361 C375 0.931 . S
H362 C339 0.929 . S
H363 C369 0.930 . S
H364 C402 0.930 . S
H365 C346 0.930 . S
H366 C401 0.929 . S
N367 Tb336 2.660 . S
N367 C368 1.305 . S
N367 C372 1.360 . S
C368 H360 0.930 . S
C368 N367 1.305 . S
C368 C371 1.407 . S
C369 H363 0.930 . S
C369 C370 1.410 . S
C369 C371 1.345 . S
C370 C369 1.410 . S
C370 C372 1.417 . S
C370 C402 1.432 . S
C371 H357 0.930 . S
C371 C368 1.407 . S
C371 C369 1.345 . S
C372 N367 1.360 . S
C372 C370 1.417 . S
C372 C376 1.432 . S
H373 C378 0.930 . S
N374 Tb336 2.600 . S
N374 C376 1.359 . S
N374 C377 1.327 . S
C375 H361 0.931 . S
C375 C377 1.392 . S
C375 C378 1.370 . S
C376 C372 1.432 . S
C376 N374 1.359 . S
C376 C379 1.414 . S
C377 H359 0.930 . S
C377 N374 1.327 . S
C377 C375 1.392 . S
C378 H373 0.930 . S
C378 C375 1.370 . S
C378 C379 1.385 . S
C379 C376 1.414 . S
C379 C378 1.385 . S
C379 C401 1.444 . S
O380 Tb336 2.546 . S
O380 C400 1.251 . S
O381 Tb336 2.610 . S
O381 Tb347 2.362 . S
O381 C392 1.283 . S
O382 Tb347 2.421 . S
O382 C399 1.262 . S
O383 Tb336 2.320 . S
O383 C399 1.260 . S
O384 Tb336 2.552 . S
O384 C392 1.243 . S
O385 Tb336 2.413 . S
O385 C400 1.256 . S
O386 Tb347 2.546 . S
O386 C411 1.251 . S
O387 Tb336 2.362 . S
O387 Tb347 2.610 . S
O387 C403 1.283 . S
O388 Tb336 2.421 . S
O388 C410 1.262 . S
O389 Tb347 2.320 . S
O389 C410 1.260 . S
O390 Tb347 2.552 . S
O390 C403 1.243 . S
O391 Tb347 2.413 1_655 S
O391 C411 1.256 1_655 S
C392 O381 1.283 . S
C392 O384 1.243 . S
C393 C395 1.382 . S
C393 C397 1.393 . S
C393 C400 1.500 . S
C394 C395 1.400 . S
C394 C396 1.384 . S
C395 C393 1.382 . S
C395 C394 1.400 . S
C395 H412 0.930 . S
C396 C394 1.384 . S
C396 C398 1.392 . S
C396 H413 0.931 . S
C397 C393 1.393 . S
C397 C398 1.401 . S
C397 H414 0.930 . S
C398 C396 1.392 . S
C398 C397 1.401 . S
C398 H415 0.930 . S
C399 O382 1.262 . S
C399 O383 1.260 . S
C400 Tb336 2.833 . S
C400 O380 1.251 . S
C400 O385 1.256 . S
C400 C393 1.500 . S
C401 H366 0.929 . S
C401 C379 1.444 . S
C401 C402 1.317 . S
C402 H364 0.930 . S
C402 C370 1.432 . S
C402 C401 1.317 . S
C403 O387 1.283 . S
C403 O390 1.243 . S
C404 C405 1.382 . S
C404 C408 1.393 1_655 S
C404 C411 1.500 1_655 S
C405 C404 1.382 . S
C405 C406 1.400 . S
C405 H416 0.930 . S
C406 C405 1.400 . S
C406 C407 1.384 . S
C407 C406 1.384 . S
C407 C409 1.392 . S
C407 H417 0.931 . S
C408 C404 1.393 1_455 S
C408 C409 1.401 1_455 S
C408 H418 0.930 1_565 S
C409 C407 1.392 . S
C409 C408 1.401 1_655 S
C409 H419 0.930 1_565 S
C410 O388 1.262 . S
C410 O389 1.260 . S
C411 Tb347 2.833 . S
C411 O386 1.251 . S
C411 O391 1.256 1_455 S
C411 C404 1.500 1_455 S
H412 C395 0.930 . S
H413 C396 0.931 . S
H414 C397 0.930 . S
H415 C398 0.930 . S
H416 C405 0.930 . S
H417 C407 0.931 . S
H418 C408 0.930 1_545 S
H419 C409 0.930 1_545 S
Tb420 N451 2.660 . S
Tb420 N458 2.600 . S
Tb420 O464 2.546 . S
Tb420 O465 2.610 . S
Tb420 O467 2.320 . S
Tb420 O468 2.552 . S
Tb420 O469 2.413 . S
Tb420 O471 2.362 . S
Tb420 O472 2.421 . S
Tb420 C484 2.833 . S
C421 C424 1.432 . S
C421 C425 1.414 1_455 S
C421 N428 1.359 . S
C422 C424 1.417 1_665 S
C422 C426 1.432 . S
C422 C434 1.410 . S
C423 C425 1.444 . S
C423 C426 1.317 1_545 S
C423 H446 0.929 . S
C424 C421 1.432 . S
C424 C422 1.417 1_445 S
C424 N432 1.360 . S
C425 C421 1.414 1_655 S
C425 C423 1.444 . S
C425 C430 1.385 . S
C426 C422 1.432 . S
C426 C423 1.317 1_565 S
C426 H438 0.930 . S
C427 C429 1.392 . S
C427 C430 1.370 1_455 S
C427 H439 0.931 . S
N428 C421 1.359 . S
N428 C429 1.327 . S
N428 Tb431 2.600 . S
C429 C427 1.392 . S
C429 N428 1.327 . S
C429 H436 0.930 . S
C430 C425 1.385 . S
C430 C427 1.370 1_655 S
C430 H449 0.930 . S
Tb431 N428 2.600 . S
Tb431 N432 2.660 . S
Tb431 O465 2.362 . S
Tb431 O466 2.421 . S
Tb431 O470 2.546 . S
Tb431 O471 2.610 . S
Tb431 O473 2.320 . S
Tb431 O474 2.552 . S
Tb431 O475 2.413 1_545 S
Tb431 C495 2.833 . S
N432 C424 1.360 . S
N432 Tb431 2.660 . S
N432 C433 1.305 1_545 S
C433 N432 1.305 1_565 S
C433 C435 1.407 . S
C433 H440 0.930 . S
C434 C422 1.410 . S
C434 C435 1.345 1_655 S
C434 H442 0.930 . S
C435 C433 1.407 . S
C435 C434 1.345 1_455 S
C435 H437 0.930 . S
H436 C429 0.930 . S
H437 C435 0.930 . S
H438 C426 0.930 . S
H439 C427 0.931 . S
H440 C433 0.930 . S
H441 C455 0.930 . S
H442 C434 0.930 . S
H443 C461 0.930 . S
H444 C452 0.930 . S
H445 C459 0.931 . S
H446 C423 0.929 . S
H447 C453 0.930 . S
H448 C486 0.930 1_455 S
H449 C430 0.930 . S
H450 C485 0.929 1_455 S
N451 Tb420 2.660 . S
N451 C452 1.305 . S
N451 C456 1.360 . S
C452 H444 0.930 . S
C452 N451 1.305 . S
C452 C455 1.407 . S
C453 H447 0.930 . S
C453 C454 1.410 . S
C453 C455 1.345 . S
C454 C453 1.410 . S
C454 C456 1.417 . S
C454 C486 1.432 . S
C455 H441 0.930 . S
C455 C452 1.407 . S
C455 C453 1.345 . S
C456 N451 1.360 . S
C456 C454 1.417 . S
C456 C460 1.432 . S
H457 C462 0.930 . S
N458 Tb420 2.600 . S
N458 C460 1.359 . S
N458 C461 1.327 . S
C459 H445 0.931 . S
C459 C461 1.392 . S
C459 C462 1.370 . S
C460 C456 1.432 . S
C460 N458 1.359 . S
C460 C463 1.414 . S
C461 H443 0.930 . S
C461 N458 1.327 . S
C461 C459 1.392 . S
C462 H457 0.930 . S
C462 C459 1.370 . S
C462 C463 1.385 . S
C463 C460 1.414 . S
C463 C462 1.385 . S
C463 C485 1.444 . S
O464 Tb420 2.546 . S
O464 C484 1.251 . S
O465 Tb420 2.610 . S
O465 Tb431 2.362 . S
O465 C476 1.283 . S
O466 Tb431 2.421 . S
O466 C483 1.262 . S
O467 Tb420 2.320 . S
O467 C483 1.260 . S
O468 Tb420 2.552 . S
O468 C476 1.243 . S
O469 Tb420 2.413 . S
O469 C484 1.256 . S
O470 Tb431 2.546 . S
O470 C495 1.251 . S
O471 Tb420 2.362 . S
O471 Tb431 2.610 . S
O471 C487 1.283 . S
O472 Tb420 2.421 . S
O472 C494 1.262 . S
O473 Tb431 2.320 . S
O473 C494 1.260 . S
O474 Tb431 2.552 . S
O474 C487 1.243 . S
O475 Tb431 2.413 1_565 S
O475 C495 1.256 1_565 S
C476 O465 1.283 . S
C476 O468 1.243 . S
C477 C479 1.382 . S
C477 C481 1.393 . S
C477 C484 1.500 . S
C478 C479 1.400 . S
C478 C480 1.384 . S
C479 C477 1.382 . S
C479 C478 1.400 . S
C479 H496 0.930 . S
C480 C478 1.384 . S
C480 C482 1.392 . S
C480 H497 0.931 . S
C481 C477 1.393 . S
C481 C482 1.401 . S
C481 H498 0.930 . S
C482 C480 1.392 . S
C482 C481 1.401 . S
C482 H499 0.930 . S
C483 O466 1.262 . S
C483 O467 1.260 . S
C484 Tb420 2.833 . S
C484 O464 1.251 . S
C484 O469 1.256 . S
C484 C477 1.500 . S
C485 H450 0.929 1_655 S
C485 C463 1.444 . S
C485 C486 1.317 . S
C486 H448 0.930 1_655 S
C486 C454 1.432 . S
C486 C485 1.317 . S
C487 O471 1.283 . S
C487 O474 1.243 . S
C488 C489 1.382 . S
C488 C492 1.393 1_565 S
C488 C495 1.500 1_565 S
C489 C488 1.382 . S
C489 C490 1.400 . S
C489 H500 0.930 . S
C490 C489 1.400 . S
C490 C491 1.384 . S
C491 C490 1.384 . S
C491 C493 1.392 . S
C491 H501 0.931 1_455 S
C492 C488 1.393 1_545 S
C492 C493 1.401 1_545 S
C492 H502 0.930 . S
C493 C491 1.392 . S
C493 C492 1.401 1_565 S
C493 H503 0.930 1_455 S
C494 O472 1.262 . S
C494 O473 1.260 . S
C495 Tb431 2.833 . S
C495 O470 1.251 . S
C495 O475 1.256 1_545 S
C495 C488 1.500 1_545 S
H496 C479 0.930 . S
H497 C480 0.931 . S
H498 C481 0.930 . S
H499 C482 0.930 . S
H500 C489 0.930 . S
H501 C491 0.931 1_655 S
H502 C492 0.930 . S
H503 C493 0.930 1_655 S
C403 C58 1.045 . S
C487 C142 1.045 . S
C67 C226 1.045 . S
C151 C310 1.045 . S
C235 C394 1.045 . S
C319 C478 1.045 . S
C74 C326 3.254 . S
C410 C158 3.254 1_455 S
C494 C242 3.254 1_545 S
C231 C483 2.735 . S
C63 C315 2.735 1_455 S
C399 C147 2.735 1_565 S
C476 C70 2.081 . S
C154 C56 2.082 . S
C238 C140 2.082 . S
C224 C322 2.081 . S
C406 C308 2.082 . S
C490 C392 2.082 . S
