# Generated by pormake.
# Topology snp, (6)-cn, num edge types: 1
# Building blocks:
#     Node 0, Type 0, BuildingBlock: INOVEN_clean_sbu_0, # of connection points: 6
#     Node 1, Type 0, BuildingBlock: INOVEN_clean_sbu_0, # of connection points: 6
#     Node 2, Type 0, BuildingBlock: INOVEN_clean_sbu_0, # of connection points: 6
#     Node 3, Type 0, BuildingBlock: INOVEN_clean_sbu_0, # of connection points: 6
#     Edge 4, Type (0, 0), BuildingBlock: TEMPAE_clean_linker_10, # of connection points: 2
#     Edge 5, Type (0, 0), BuildingBlock: TEMPAE_clean_linker_10, # of connection points: 2
#     Edge 6, Type (0, 0), BuildingBlock: TEMPAE_clean_linker_10, # of connection points: 2
#     Edge 7, Type (0, 0), BuildingBlock: TEMPAE_clean_linker_10, # of connection points: 2
#     Edge 8, Type (0, 0), BuildingBlock: TEMPAE_clean_linker_10, # of connection points: 2
#     Edge 9, Type (0, 0), BuildingBlock: TEMPAE_clean_linker_10, # of connection points: 2
#     Edge 10, Type (0, 0), BuildingBlock: TEMPAE_clean_linker_10, # of connection points: 2
#     Edge 11, Type (0, 0), BuildingBlock: TEMPAE_clean_linker_10, # of connection points: 2
#     Edge 12, Type (0, 0), BuildingBlock: TEMPAE_clean_linker_10, # of connection points: 2
#     Edge 13, Type (0, 0), BuildingBlock: TEMPAE_clean_linker_10, # of connection points: 2
#     Edge 14, Type (0, 0), BuildingBlock: TEMPAE_clean_linker_10, # of connection points: 2
#     Edge 15, Type (0, 0), BuildingBlock: TEMPAE_clean_linker_10, # of connection points: 2
# Relax obj value: 0.201
# Max RMSD: 0.221
# Mean RMSD: 0.213
data_MOF--net-snp--node1-INOVEN_clean_sbu_0--edge1-TEMPAE_clean_linker_10
_symmetry_space_group_name_H-M    P1
_symmetry_Int_Tables_number       1
_symmetry_cell_setting            triclinic
loop_
_symmetry_equiv_pos_as_xyz
'x, y, z'
_cell_length_a     25.855239
_cell_length_b     25.394114
_cell_length_c     36.103164
_cell_angle_alpha  86.002312
_cell_angle_beta   103.89857
_cell_angle_gamma 96.402421
loop_
_atom_site_label
_atom_site_type_symbol
_atom_site_fract_x
_atom_site_fract_y
_atom_site_fract_z
_atom_type_partial_charge
Gd0 Gd 0.2964 0.14759 0.13696 0.0
Gd1 Gd 0.25778 0.04025 0.09758 0.0
C2 C 0.26566 0.03937 0.18647 0.0
C3 C 0.30541 0.2261 0.18047 0.0
C4 C 0.29206 0.22942 0.21798 0.0
C5 C 0.32172 0.20491 0.25128 0.0
C6 C 0.24751 0.25493 0.2204 0.0
C7 C 0.26167 0.23 0.28831 0.0
C8 C 0.23235 0.25505 0.25513 0.0
C9 C 0.3068 0.20538 0.28599 0.0
C10 C 0.37265 0.09135 0.12584 0.0
C11 C 0.27533 0.15072 0.04617 0.0
C12 C 0.2537 0.9593 0.05713 0.0
C13 C 0.23344 0.94579 1.01656 0.0
C14 C 0.17869 0.93099 1.00154 0.0
C15 C 0.26912 0.94624 0.99267 0.0
C16 C 0.1958 0.91753 0.93959 0.0
C17 C 0.25051 0.93246 0.9546 0.0
C18 C 0.16012 0.91714 0.96349 0.0
C19 C 0.1773 0.09526 0.10415 0.0
O20 O 0.27416 0.09158 0.18335 0.0
O21 O 0.26464 0.00887 0.15804 0.0
O22 O 0.34552 0.19911 0.17988 0.0
O23 O 0.26478 0.21734 0.15124 0.0
O24 O 0.37549 0.14288 0.12229 0.0
O25 O 0.33136 0.07256 0.13673 0.0
O26 O 0.26845 0.09809 0.04861 0.0
O27 O 0.28372 0.17988 0.07646 0.0
O28 O 0.21789 0.96523 0.07636 0.0
O29 O 0.29576 -0.00578 0.06514 0.0
O30 O 0.17238 0.04425 0.1009 0.0
O31 O 0.2225 0.11412 0.09954 0.0
H32 H 0.3561 0.18459 0.25056 0.0
H33 H 0.22386 0.27413 0.19526 0.0
H34 H 0.19778 0.27498 0.25603 0.0
H35 H 0.33017 0.1856 0.31095 0.0
H36 H 0.15005 0.92967 1.01918 0.0
H37 H 0.31156 0.95714 1.00344 0.0
H38 H 0.279 0.93381 0.93684 0.0
H39 H 0.11791 0.90515 0.953 0.0
Gd40 Gd 0.98182 0.27766 0.72135 0.0
Gd41 Gd 0.08572 0.26984 0.69504 0.0
C42 C 0.09835 0.27451 0.78282 0.0
C43 C 0.9068 0.26159 0.75852 0.0
C44 C 0.90281 0.24782 0.79837 0.0
C45 C 0.9423 0.26697 0.82983 0.0
C46 C 0.85879 0.2143 0.80502 0.0
C47 C 0.89309 0.21957 0.87406 0.0
C48 C 0.85398 0.20028 0.84233 0.0
C49 C 0.93751 0.25298 0.86727 0.0
C50 C 0.02517 0.36974 0.69674 0.0
C51 C 0.97095 0.26646 0.63184 0.0
C52 C 0.16241 0.27467 0.65968 0.0
C53 C 0.16622 0.26797 0.62008 0.0
C54 C 0.20399 0.23623 0.61367 0.0
C55 C 0.1322 0.29182 0.58856 0.0
C56 C 0.17445 0.25276 0.54485 0.0
C57 C 0.13635 0.28437 0.55134 0.0
C58 C 0.20806 0.22864 0.5765 0.0
C59 C 0.03415 0.17787 0.71602 0.0
O60 O 0.04573 0.26264 0.7753 0.0
O61 O 0.12366 0.28808 0.75542 0.0
O62 O 0.92959 0.30871 0.75157 0.0
O63 O 0.9207 0.22448 0.74053 0.0
O64 O 0.974 0.35805 0.69287 0.0
O65 O 0.05178 0.33434 0.7165 0.0
O66 O 0.02358 0.27823 0.63931 0.0
O67 O 0.94473 0.25894 0.65956 0.0
O68 O 0.14706 0.23186 0.678 0.0
O69 O 0.14088 0.31636 0.66603 0.0
O70 O 0.0859 0.18667 0.72284 0.0
O71 O 0.01415 0.21684 0.6973 0.0
H72 H 0.97681 0.29279 0.8255 0.0
H73 H 0.82808 0.19868 0.78125 0.0
H74 H 0.81985 0.17355 0.84625 0.0
H75 H 0.9683 0.26887 0.89086 0.0
H76 H 0.23057 0.21738 0.63751 0.0
H77 H 0.10244 0.31626 0.59265 0.0
H78 H 0.10954 0.30311 0.5276 0.0
H79 H 0.23831 0.20466 0.57259 0.0
Gd80 Gd 0.8181 0.01926 0.20839 0.0
Gd81 Gd 0.82554 0.92446 0.16276 0.0
C82 C 0.81362 0.90204 0.24731 0.0
C83 C 0.80049 0.0986 0.24348 0.0
C84 C 0.81302 0.11386 0.28379 0.0
C85 C 0.8176 0.16749 0.29218 0.0
C86 C 0.8217 0.07559 0.31411 0.0
C87 C 0.83889 0.14466 0.36079 0.0
C88 C 0.83431 0.09076 0.35215 0.0
C89 C 0.83043 0.18276 0.33015 0.0
C90 C 0.91624 0.98338 0.22596 0.0
C91 C 0.83621 0.04159 0.12209 0.0
C92 C 0.84773 0.85737 0.11913 0.0
C93 C 0.86115 0.85555 0.0814 0.0
C94 C 0.82263 0.86373 0.04715 0.0
C95 C 0.91104 0.84043 0.07929 0.0
C96 C 0.88201 0.83779 1.00984 0.0
C97 C 0.92151 0.832 0.04387 0.0
C98 C 0.8329 0.85482 1.01189 0.0
C99 C 0.72551 0.94629 0.16306 0.0
O100 O 0.79276 0.94806 0.24342 0.0
O101 O 0.83712 0.8872 0.22161 0.0
O102 O 0.8415 0.09922 0.22802 0.0
O103 O 0.76549 0.05725 0.23446 0.0
O104 O 0.89173 -0.00345 0.2507 0.0
O105 O 0.88499 -0.01381 0.1933 0.0
O106 O 0.83739 -0.00995 0.12042 0.0
O107 O 0.82744 0.06283 0.15242 0.0
O108 O 0.79918 0.86767 0.11875 0.0
O109 O 0.88383 0.87957 0.1471 0.0
O110 O 0.73917 0.89843 0.16459 0.0
O111 O 0.76431 0.97937 0.16035 0.0
H112 H 0.81162 0.19775 0.26928 0.0
H113 H 0.81878 0.03393 0.30838 0.0
H114 H 0.83995 0.06013 0.37476 0.0
H115 H 0.83459 0.22464 0.33544 0.0
H116 H 0.78378 0.87551 0.0475 0.0
H117 H 0.94137 0.83347 0.10514 0.0
H118 H 0.95967 0.81873 0.04324 0.0
H119 H 0.80194 0.86038 0.98615 0.0
Gd120 Gd 0.97654 0.7591 0.59805 0.0
Gd121 Gd 0.06381 0.83561 0.57536 0.0
C122 C 0.07054 0.82225 0.66299 0.0
C123 C 0.92946 0.69355 0.63972 0.0
C124 C 0.92399 0.70618 0.67788 0.0
C125 C 0.93249 0.75942 0.68796 0.0
C126 C 0.91376 0.6667 0.70504 0.0
C127 C 0.91973 0.73418 0.75167 0.0
C128 C 0.91146 0.68059 0.74162 0.0
C129 C 0.93058 0.77326 0.72428 0.0
C130 C 0.95214 0.8604 0.58624 0.0
C131 C 0.96571 0.77876 0.5101 0.0
C132 C 0.11678 0.90804 0.54155 0.0
C133 C 0.12864 0.91568 0.50351 0.0
C134 C 0.13609 0.87238 0.4838 0.0
C135 C 0.13197 0.96686 0.48646 0.0
C136 C 0.15198 0.93177 0.43096 0.0
C137 C 0.14334 0.97486 0.45042 0.0
C138 C 0.14808 0.88043 0.44794 0.0
C139 C 0.0852 0.73345 0.58866 0.0
O140 O 0.03742 0.77907 0.65364 0.0
O141 O 0.08183 0.85685 0.63641 0.0
O142 O 0.90298 0.72195 0.61122 0.0
O143 O 0.97861 0.68984 0.63719 0.0
O144 O 0.91752 0.81939 0.57878 0.0
O145 O 0.99734 0.84522 0.60174 0.0
O146 O 0.00338 0.81839 0.52009 0.0
O147 O 0.95188 0.74326 0.53556 0.0
O148 O 0.13906 0.8698 0.56381 0.0
O149 O 0.06681 0.91031 0.54253 0.0
O150 O 0.12081 0.7731 0.59903 0.0
O151 O 0.04176 0.75001 0.57103 0.0
H152 H 0.94172 0.79052 0.66781 0.0
H153 H 0.90775 0.62533 0.69805 0.0
H154 H 0.90266 0.6494 0.76186 0.0
H155 H 0.93871 0.8147 0.73106 0.0
H156 H 0.13288 0.83239 0.49618 0.0
H157 H 0.12602 0.0007 0.50112 0.0
H158 H 0.14644 0.01488 0.43807 0.0
H159 H 0.15398 0.84652 0.43335 0.0
C160 C 0.00448 0.98373 0.21151 0.0
C161 C 0.9709 0.0075 0.22883 0.0
C162 C 0.04519 0.01465 0.19835 0.0
C163 C 0.04962 0.07067 0.20061 0.0
C164 C 0.01988 0.09385 0.22212 0.0
C165 C 0.98184 0.0614 0.23711 0.0
C166 C 0.07953 -0.01221 0.17844 0.0
C167 C 0.0236 0.15293 0.22667 0.0
C168 C 0.16313 0.13408 0.16097 0.0
C169 C 0.14279 0.12005 0.12313 0.0
C170 C 0.13175 0.12307 0.18766 0.0
C171 C 0.07763 0.10347 0.17467 0.0
C172 C 0.05397 0.1036 0.13498 0.0
C173 C 0.08747 0.10976 0.10948 0.0
C174 C 0.15854 0.12402 0.22961 0.0
C175 C 0.99474 0.0891 0.11987 0.0
H176 H 0.99608 0.94202 0.20537 0.0
H177 H 0.95593 0.0798 0.25089 0.0
H178 H 0.06186 -0.01096 0.14723 0.0
H179 H 0.12067 0.00821 0.18343 0.0
H180 H 0.08181 0.94551 0.1883 0.0
H181 H 0.04218 0.16146 0.25699 0.0
H182 H 0.04739 0.17663 0.20848 0.0
H183 H 0.98284 0.16651 0.21997 0.0
H184 H 0.20497 0.14583 0.171 0.0
H185 H 0.07118 0.10069 0.07977 0.0
H186 H 0.1608 0.08266 0.24131 0.0
H187 H 0.135 0.14407 0.24533 0.0
H188 H 0.1999 0.14392 0.2349 0.0
H189 H 0.9862 0.0453 0.11977 0.0
H190 H 0.98094 0.1051 0.09013 0.0
H191 H 0.97131 0.10442 0.13814 0.0
C192 C 0.91071 0.90119 0.62998 0.0
C193 C 0.93711 0.90746 0.60007 0.0
C194 C 0.91384 0.94268 0.65413 0.0
C195 C 0.94228 -0.00846 0.64689 0.0
C196 C 0.96287 -0.00018 0.61366 0.0
C197 C 0.96114 0.95695 0.59103 0.0
C198 C 0.89193 0.9321 0.6894 0.0
C199 C 0.99144 0.05238 0.60411 0.0
C200 C 0.95087 0.12078 0.69214 0.0
C201 C 0.00507 0.12494 0.71151 0.0
C202 C 0.927 0.07459 0.67379 0.0
C203 C 0.95789 0.03158 0.67618 0.0
C204 C 0.00951 0.03258 0.70108 0.0
C205 C 0.03291 0.07984 0.7184 0.0
C206 C 0.87176 0.07485 0.64776 0.0
C207 C 0.04251 -0.01388 0.70553 0.0
H208 H 0.89233 0.86243 0.63685 0.0
H209 H 0.98165 0.96116 0.56792 0.0
H210 H 0.92473 0.92153 0.71392 0.0
H211 H 0.87577 0.96765 0.69673 0.0
H212 H 0.85996 0.89849 0.68579 0.0
H213 H -0.00067 0.0538 0.57511 0.0
H214 H 0.96743 0.08539 0.6057 0.0
H215 H 0.03035 0.05915 0.62517 0.0
H216 H 0.92878 0.15543 0.68759 0.0
H217 H 0.07442 0.08281 0.73417 0.0
H218 H 0.84867 0.03539 0.64824 0.0
H219 H 0.87552 0.08453 0.618 0.0
H220 H 0.84888 0.10505 0.65574 0.0
H221 H 0.0788 -0.00887 0.72919 0.0
H222 H 0.0554 0.98218 0.67874 0.0
H223 H 0.01845 0.94869 0.71103 0.0
C224 C 0.62611 0.92439 0.14621 0.0
C225 C 0.67077 0.96092 0.15836 0.0
C226 C 0.57404 0.94019 0.13891 0.0
C227 C 0.56697 -0.00705 0.14559 0.0
C228 C 0.61213 0.0293 0.15905 0.0
C229 C 0.6634 0.0132 0.16412 0.0
C230 C 0.52684 0.90113 0.1229 0.0
C231 C 0.60647 0.08541 0.16787 0.0
C232 C 0.44624 0.06595 0.09966 0.0
C233 C 0.41867 0.0613 0.12877 0.0
C234 C 0.4925 0.04001 0.1035 0.0
C235 C 0.51273 0.01121 0.13806 0.0
C236 C 0.48407 0.00558 0.16718 0.0
C237 C 0.43658 0.02987 0.16178 0.0
C238 C 0.52079 0.04511 0.0712 0.0
C239 C 0.50542 0.97721 0.20504 0.0
H240 H 0.63191 0.88415 0.14108 0.0
H241 H 0.69786 0.04181 0.1725 0.0
H242 H 0.49824 0.89658 0.14165 0.0
H243 H 0.50512 0.9164 0.09453 0.0
H244 H 0.53912 0.86147 0.11968 0.0
H245 H 0.64543 0.10672 0.18185 0.0
H246 H 0.58944 0.10797 0.14113 0.0
H247 H 0.57852 0.08523 0.18691 0.0
H248 H 0.43167 0.08997 0.07402 0.0
H249 H 0.415 0.02675 0.18429 0.0
H250 H 0.5324 0.00602 0.06594 0.0
H251 H 0.55801 0.07227 0.07896 0.0
H252 H 0.49544 0.06104 0.04431 0.0
H253 H 0.51579 0.93727 0.20066 0.0
H254 H 0.47629 0.97287 0.22347 0.0
H255 H 0.54271 -0.00014 0.2204 0.0
C256 C 0.02974 0.46725 0.69869 0.0
C257 C 0.04801 0.42279 0.68706 0.0
C258 C 0.04493 0.51831 0.68526 0.0
C259 C 0.07849 0.52453 0.65917 0.0
C260 C 0.0989 0.47978 0.64872 0.0
C261 C 0.08296 0.42924 0.66266 0.0
C262 C 0.02207 0.5651 0.69692 0.0
C263 C 0.13418 0.48475 0.62061 0.0
C264 C 0.04884 0.63946 0.58808 0.0
C265 C 0.08913 0.67856 0.60378 0.0
C266 C 0.04634 0.58844 0.6051 0.0
C267 C 0.08523 0.57639 0.63862 0.0
C268 C 0.12771 0.61495 0.65351 0.0
C269 C 0.12923 0.66592 0.63577 0.0
C270 C 0.00044 0.54835 0.58826 0.0
C271 C 0.16987 0.60318 0.68913 0.0
H272 H 0.00219 0.46188 0.71736 0.0
H273 H 0.0948 0.39477 0.6523 0.0
H274 H 0.05382 0.59817 0.70509 0.0
H275 H 0.99156 0.57983 0.67236 0.0
H276 H 0.0028 0.55453 0.72118 0.0
H277 H 0.15303 0.44767 0.61998 0.0
H278 H 0.10984 0.49373 0.59154 0.0
H279 H 0.16615 0.51791 0.62771 0.0
H280 H 0.018 0.64933 0.56317 0.0
H281 H 0.16031 0.69637 0.64791 0.0
H282 H 0.97412 0.539 0.60849 0.0
H283 H 0.01572 0.51082 0.58364 0.0
H284 H 0.97583 0.563 0.56063 0.0
H285 H 0.15145 0.59821 0.71408 0.0
H286 H 0.20319 0.63539 0.69466 0.0
H287 H 0.18652 0.56544 0.68681 0.0
C288 C 0.18021 0.2902 0.47955 0.0
C289 C 0.18055 0.24629 0.50542 0.0
C290 C 0.1898 0.28563 0.44326 0.0
C291 C 0.19989 0.23589 0.43242 0.0
C292 C 0.19845 0.19099 0.45786 0.0
C293 C 0.18893 0.19675 0.49406 0.0
C294 C 0.19099 0.3345 0.41702 0.0
C295 C 0.20839 0.13713 0.44728 0.0
C296 C 0.19162 0.22008 0.32681 0.0
C297 C 0.24563 0.22986 0.3253 0.0
C298 C 0.1761 0.22085 0.36154 0.0
C299 C 0.21549 0.23187 0.39556 0.0
C300 C 0.27011 0.24091 0.39426 0.0
C301 C 0.28446 0.23979 0.35922 0.0
C302 C 0.11753 0.21052 0.36172 0.0
C303 C 0.31342 0.2527 0.42984 0.0
H304 H 0.17426 0.32869 0.48817 0.0
H305 H 0.18838 0.16244 0.51363 0.0
H306 H 0.23196 0.34434 0.41244 0.0
H307 H 0.16373 0.32694 0.38869 0.0
H308 H 0.17911 0.36943 0.4287 0.0
H309 H 0.20275 0.10563 0.4693 0.0
H310 H 0.18101 0.12615 0.41963 0.0
H311 H 0.24989 0.13838 0.44358 0.0
H312 H 0.16146 0.21153 0.30083 0.0
H313 H 0.32619 0.24785 0.35827 0.0
H314 H 0.10367 0.24621 0.37091 0.0
H315 H 0.11146 0.17758 0.38257 0.0
H316 H 0.09216 0.20029 0.33317 0.0
H317 H 0.30693 0.28983 0.44183 0.0
H318 H 0.35412 0.2572 0.42422 0.0
H319 H 0.31164 0.22038 0.45195 0.0
C320 C 0.93211 0.19169 0.94286 0.0
C321 C 0.88754 0.20389 0.91384 0.0
C322 C 0.92633 0.17222 0.97932 0.0
C323 C 0.87471 0.16444 0.98706 0.0
C324 C 0.83002 0.17912 0.95852 0.0
C325 C 0.83699 0.19879 0.92247 0.0
C326 C 0.97519 0.15759 1.00896 0.0
C327 C 0.77422 0.17137 0.96532 0.0
C328 C 0.84629 0.04956 0.05478 0.0
C329 C 0.8454 0.07483 0.08806 0.0
C330 C 0.85645 0.07827 1.0223 0.0
C331 C 0.86618 0.13417 1.02259 0.0
C332 C 0.86573 0.16027 0.05604 0.0
C333 C 0.85517 0.13031 0.08839 0.0
C334 C 0.85629 0.04847 0.98743 0.0
C335 C 0.87651 0.21976 0.05762 0.0
H336 H 0.97136 0.19522 0.93666 0.0
H337 H 0.80241 0.20929 0.9007 0.0
H338 H 0.97732 0.17641 0.03618 0.0
H339 H 0.97237 0.11403 1.01485 0.0
H340 H 0.01288 0.16992 0.99967 0.0
H341 H 0.76151 0.12831 0.96777 0.0
H342 H 0.77357 0.18865 0.99257 0.0
H343 H 0.74457 0.18964 0.94183 0.0
H344 H 0.83882 0.00676 0.05384 0.0
H345 H 0.85518 0.15022 0.11398 0.0
H346 H 0.8953 0.05725 0.97945 0.0
H347 H 0.82489 0.06163 0.96286 0.0
H348 H 0.84881 0.00483 0.99204 0.0
H349 H 0.91645 0.2327 0.05201 0.0
H350 H 0.87522 0.23411 0.08573 0.0
H351 H 0.84651 0.23895 0.035 0.0
C352 C 0.96376 0.80466 0.44247 0.0
C353 C 0.93785 0.77784 0.46927 0.0
C354 C 0.93585 0.81564 0.405 0.0
C355 C 0.88053 0.79876 0.39372 0.0
C356 C 0.85499 0.76782 0.41968 0.0
C357 C 0.88403 0.7578 0.45741 0.0
C358 C 0.96501 0.84851 0.37834 0.0
C359 C 0.7964 0.7481 0.40841 0.0
C360 C 0.81353 0.89374 0.31661 0.0
C361 C 0.8179 0.87018 0.28367 0.0
C362 C 0.8296 0.86864 0.3528 0.0
C363 C 0.84956 0.81834 0.35599 0.0
C364 C 0.84865 0.79201 0.32253 0.0
C365 C 0.83332 0.81848 0.28673 0.0
C366 C 0.83009 0.89831 0.38773 0.0
C367 C 0.86812 0.73778 0.32463 0.0
H368 H 0.00565 0.81951 0.45133 0.0
H369 H 0.86384 0.73709 0.47804 0.0
H370 H 0.95965 0.82814 0.35129 0.0
H371 H 0.948 0.88719 0.37104 0.0
H372 H 0.00861 0.85632 0.39108 0.0
H373 H 0.78543 0.71624 0.42864 0.0
H374 H 0.77201 0.78143 0.40826 0.0
H375 H 0.78575 0.73287 0.3792 0.0
H376 H 0.8013 0.9335 0.31451 0.0
H377 H 0.83592 0.7996 0.26131 0.0
H378 H 0.87207 0.91153 0.40209 0.0
H379 H 0.81275 0.87208 0.40845 0.0
H380 H 0.80744 0.9338 0.38046 0.0
H381 H 0.91253 0.74161 0.33245 0.0
H382 H 0.85444 0.71835 0.29685 0.0
H383 H 0.85399 0.71177 0.34693 0.0
C384 C 0.07314 0.80061 0.7321 0.0
C385 C 0.09038 0.83411 0.70389 0.0
C386 C 0.08849 0.81304 0.77072 0.0
C387 C 0.12267 0.8597 0.78154 0.0
C388 C 0.14094 0.89326 0.75335 0.0
C389 C 0.12446 0.88015 0.71485 0.0
C390 C 0.06755 0.7766 0.79985 0.0
C391 C 0.17795 0.94305 0.76387 0.0
C392 C 0.12829 0.91865 0.87658 0.0
C393 C 0.17617 0.90176 0.8993 0.0
C394 C 0.1098 0.90451 0.83838 0.0
C395 C 0.14015 0.87303 0.82245 0.0
C396 C 0.18798 0.85512 0.8454 0.0
C397 C 0.20539 0.86969 0.8835 0.0
C398 C 0.05864 0.92461 0.81488 0.0
C399 C 0.22083 0.82056 0.82968 0.0
H400 H 0.04704 0.76479 0.72402 0.0
H401 H 0.13803 0.90627 0.69332 0.0
H402 H 0.10124 0.76444 0.8231 0.0
H403 H 0.04182 0.79791 0.81306 0.0
H404 H 0.04375 0.74038 0.78707 0.0
H405 H 0.18524 0.96696 0.73833 0.0
H406 H 0.16094 0.96803 0.7811 0.0
H407 H 0.21696 0.93236 0.78171 0.0
H408 H 0.10572 0.94386 0.88843 0.0
H409 H 0.2418 0.85554 0.90109 0.0
H410 H 0.0327 0.89255 0.79811 0.0
H411 H 0.06854 0.95639 0.79431 0.0
H412 H 0.03557 0.9411 0.8329 0.0
H413 H 0.19588 0.78396 0.81872 0.0
H414 H 0.25649 0.80908 0.85148 0.0
H415 H 0.23449 0.84178 0.80529 0.0
C416 C 0.93768 0.84105 0.96091 0.0
C417 C 0.89042 0.8232 0.97253 0.0
C418 C 0.94517 0.82767 0.92543 0.0
C419 C 0.90493 0.79466 0.90138 0.0
C420 C 0.85753 0.77599 0.91328 0.0
C421 C 0.85075 0.79071 0.94849 0.0
C422 C 0.99596 0.84907 0.91361 0.0
C423 C 0.81378 0.74044 0.88875 0.0
C424 C 0.89419 0.7963 0.79423 0.0
C425 C 0.91697 0.74985 0.79031 0.0
C426 C 0.89149 0.81206 0.83021 0.0
C427 C 0.91145 0.78041 0.86334 0.0
C428 C 0.93503 0.73381 0.85974 0.0
C429 C 0.9376 0.71917 0.82335 0.0
C430 C 0.86645 0.86227 0.83269 0.0
C431 C 0.95694 0.69903 0.89431 0.0
H432 H 0.96839 0.86632 0.97929 0.0
H433 H 0.81448 0.77612 0.95752 0.0
H434 H 0.01975 0.8159 0.912 0.0
H435 H 0.98643 0.86894 0.88476 0.0
H436 H 0.02104 0.87783 0.93393 0.0
H437 H 0.77992 0.72831 0.90248 0.0
H438 H 0.79813 0.76119 0.8609 0.0
H439 H 0.83016 0.70422 0.88273 0.0
H440 H 0.87748 0.8201 0.769 0.0
H441 H 0.95626 0.68385 0.82086 0.0
H442 H 0.89442 0.88894 0.85315 0.0
H443 H 0.82972 0.85252 0.84357 0.0
H444 H 0.85565 0.88408 0.80458 0.0
H445 H 0.98765 0.72257 0.91531 0.0
H446 H 0.97517 0.66481 0.88688 0.0
H447 H 0.92436 0.68371 0.90854 0.0
C448 C 0.26971 0.04524 0.25574 0.0
C449 C 0.25362 0.01605 0.22261 0.0
C450 C 0.25279 0.02807 0.28906 0.0
C451 C 0.21828 0.98075 0.28925 0.0
C452 C 0.20276 0.95041 0.25617 0.0
C453 C 0.22112 0.96814 0.22331 0.0
C454 C 0.27001 0.06218 0.32337 0.0
C455 C 0.16487 0.90054 0.25498 0.0
C456 C 0.21071 0.91898 0.38702 0.0
C457 C 0.16631 0.94074 0.39347 0.0
C458 C 0.22716 0.93046 0.35274 0.0
C459 C 0.19797 0.96378 0.32398 0.0
C460 C 0.15177 0.98406 0.32985 0.0
C461 C 0.13689 0.97276 0.36467 0.0
C462 C 0.27728 0.90906 0.34804 0.0
C463 C 0.1189 0.01932 0.30015 0.0
H464 H 0.29466 0.08246 0.25542 0.0
H465 H 0.20781 0.94587 0.19762 0.0
H466 H 0.23689 0.08585 0.32455 0.0
H467 H 0.27937 0.03766 0.35035 0.0
H468 H 0.30578 0.09003 0.32184 0.0
H469 H 0.1575 0.8808 0.22743 0.0
H470 H 0.18112 0.87214 0.27853 0.0
H471 H 0.126 0.91035 0.25929 0.0
H472 H 0.23382 0.89459 0.40943 0.0
H473 H 0.10224 -0.01075 0.36947 0.0
H474 H 0.30833 0.94249 0.34642 0.0
H475 H 0.26906 0.88815 0.32096 0.0
H476 H 0.29368 0.88128 0.37207 0.0
H477 H 0.13781 0.06072 0.30288 0.0
H478 H 0.07746 0.01881 0.30396 0.0
H479 H 0.11684 0.00705 0.27095 0.0
C480 C 0.10396 0.24767 0.8515 0.0
C481 C 0.12983 0.26737 0.82267 0.0
C482 C 0.13326 0.23466 0.88836 0.0
C483 C 0.18992 0.24162 0.89671 0.0
C484 C 0.21629 0.26391 0.86834 0.0
C485 C 0.18592 0.27644 0.83159 0.0
C486 C 0.10351 0.21117 0.91785 0.0
C487 C 0.2766 0.27241 0.87631 0.0
C488 C 0.25603 0.23103 1.00252 0.0
C489 C 0.26402 0.17696 1.00748 0.0
C490 C 0.23471 0.25364 0.96616 0.0
C491 C 0.22107 0.22138 0.93414 0.0
C492 C 0.23258 0.16778 0.93862 0.0
C493 C 0.25408 0.1463 0.97518 0.0
C494 C 0.22361 0.31112 0.96244 0.0
C495 C 0.21889 0.13203 0.90517 0.0
H496 H 0.0607 0.2406 0.84502 0.0
H497 H 0.20632 0.29191 0.8096 0.0
H498 H 0.11271 0.16957 0.92543 0.0
H499 H 0.11672 0.23351 0.94436 0.0
H500 H 0.05944 0.21142 0.90751 0.0
H501 H 0.29071 0.29558 0.85275 0.0
H502 H 0.293 0.29343 0.9032 0.0
H503 H 0.29325 0.23345 0.88015 0.0
H504 H 0.26374 0.25515 1.02724 0.0
H505 H 0.26062 0.10463 0.97857 0.0
H506 H 0.17982 0.31353 0.95702 0.0
H507 H 0.23732 0.3316 0.93784 0.0
H508 H 0.24345 0.3326 0.98868 0.0
H509 H 0.17475 0.12566 0.89469 0.0
H510 H 0.23457 0.09273 0.91285 0.0
H511 H 0.23533 0.15089 0.88123 0.0
C512 C 0.8299 0.20379 0.41196 0.0
C513 C 0.85305 0.16132 0.4014 0.0
C514 C 0.84458 0.22152 0.4495 0.0
C515 C 0.88321 0.19612 0.47757 0.0
C516 C 0.90571 0.15234 0.46747 0.0
C517 C 0.89056 0.13564 0.42962 0.0
C518 C 0.81953 0.26825 0.45896 0.0
C519 C 0.94683 0.12386 0.49647 0.0
C520 C 0.96714 0.27351 0.56181 0.0
C521 C 0.94351 0.2538 0.59182 0.0
C522 C 0.9472 0.25595 0.52453 0.0
C523 C 0.90249 0.21731 0.51679 0.0
C524 C 0.87741 0.19831 0.54673 0.0
C525 C 0.89811 0.21689 0.58384 0.0
C526 C 0.97534 0.2775 0.49372 0.0
C527 C 0.83008 0.15674 0.53996 0.0
H528 H 0.80012 0.22337 0.39079 0.0
H529 H 0.90928 0.10321 0.42196 0.0
H530 H 0.80105 0.25748 0.48353 0.0
H531 H 0.85091 0.30154 0.46753 0.0
H532 H 0.78845 0.2823 0.43445 0.0
H533 H 0.95808 0.08856 0.48484 0.0
H534 H 0.98346 0.15129 0.50605 0.0
H535 H 0.93122 0.11093 0.52206 0.0
H536 H 0.00224 0.302 0.56765 0.0
H537 H 0.88017 0.20066 0.60693 0.0
H538 H 0.94606 0.29142 0.46811 0.0
H539 H 0.99515 0.24551 0.4849 0.0
H540 H 0.00618 0.31089 0.50345 0.0
H541 H 0.79903 0.1684 0.51463 0.0
H542 H 0.81181 0.15003 0.56499 0.0
H543 H 0.84312 0.11867 0.53398 0.0
loop_
_geom_bond_atom_site_label_1
_geom_bond_atom_site_label_2
_geom_bond_distance
_geom_bond_site_symmetry_2
_ccdc_geom_bond_type
Gd0 C3 2.818 . S
Gd0 O20 2.377 . S
Gd0 O22 2.448 . S
Gd0 O23 2.506 . S
Gd0 O24 2.435 . S
Gd0 O25 2.717 . S
Gd0 O27 2.395 . S
Gd0 O31 2.327 . S
Gd1 C12 2.818 1_544 S
Gd1 O21 2.395 . S
Gd1 O25 2.327 . S
Gd1 O26 2.377 . S
Gd1 O28 2.448 1_545 S
Gd1 O29 2.506 . S
Gd1 O30 2.435 . S
Gd1 O31 2.717 . S
C2 O20 1.240 . S
C2 O21 1.240 . S
C3 Gd0 2.818 . S
C3 C4 1.510 . S
C3 O22 1.249 . S
C3 O23 1.252 . S
C4 C3 1.510 . S
C4 C5 1.404 . S
C4 C6 1.352 . S
C5 C4 1.404 . S
C5 C9 1.389 . S
C5 H32 0.930 . S
C6 C4 1.352 . S
C6 C8 1.374 . S
C6 H33 0.931 . S
C7 C8 1.359 . S
C7 C9 1.364 . S
C8 C6 1.374 . S
C8 C7 1.359 . S
C8 H34 0.931 . S
C9 C5 1.389 . S
C9 C7 1.364 . S
C9 H35 0.931 . S
C10 O24 1.256 . S
C10 O25 1.257 . S
C11 O26 1.240 . S
C11 O27 1.240 . S
C12 Gd1 2.818 1_566 S
C12 C13 1.510 . S
C12 O28 1.249 1_556 S
C12 O29 1.252 1_566 S
C13 C12 1.510 . S
C13 C14 1.404 . S
C13 C15 1.352 . S
C14 C13 1.404 . S
C14 C18 1.389 . S
C14 H36 0.930 . S
C15 C13 1.352 . S
C15 C17 1.374 . S
C15 H37 0.931 1_565 S
C16 C17 1.359 . S
C16 C18 1.364 . S
C17 C15 1.374 . S
C17 C16 1.359 . S
C17 H38 0.931 . S
C18 C14 1.389 . S
C18 C16 1.364 . S
C18 H39 0.931 . S
C19 O30 1.256 . S
C19 O31 1.257 . S
O20 Gd0 2.377 . S
O20 C2 1.240 . S
O21 Gd1 2.395 . S
O21 C2 1.240 . S
O22 Gd0 2.448 . S
O22 C3 1.249 . S
O23 Gd0 2.506 . S
O23 C3 1.252 . S
O24 Gd0 2.435 . S
O24 C10 1.256 . S
O25 Gd0 2.717 . S
O25 Gd1 2.327 . S
O25 C10 1.257 . S
O26 Gd1 2.377 . S
O26 C11 1.240 . S
O27 Gd0 2.395 . S
O27 C11 1.240 . S
O28 Gd1 2.448 1_565 S
O28 C12 1.249 1_554 S
O29 Gd1 2.506 . S
O29 C12 1.252 1_544 S
O30 Gd1 2.435 . S
O30 C19 1.256 . S
O31 Gd0 2.327 . S
O31 Gd1 2.717 . S
O31 C19 1.257 . S
H32 C5 0.930 . S
H33 C6 0.931 . S
H34 C8 0.931 . S
H35 C9 0.931 . S
H36 C14 0.930 . S
H37 C15 0.931 1_545 S
H38 C17 0.931 . S
H39 C18 0.931 . S
Gd40 C43 2.818 . S
Gd40 O60 2.377 1_655 S
Gd40 O62 2.448 . S
Gd40 O63 2.506 . S
Gd40 O64 2.435 . S
Gd40 O65 2.717 1_655 S
Gd40 O67 2.395 . S
Gd40 O71 2.327 1_655 S
Gd41 C52 2.818 . S
Gd41 O61 2.395 . S
Gd41 O65 2.327 . S
Gd41 O66 2.377 . S
Gd41 O68 2.448 . S
Gd41 O69 2.506 . S
Gd41 O70 2.435 . S
Gd41 O71 2.717 . S
C42 O60 1.240 . S
C42 O61 1.240 . S
C43 Gd40 2.818 . S
C43 C44 1.510 . S
C43 O62 1.249 . S
C43 O63 1.252 . S
C44 C43 1.510 . S
C44 C45 1.404 . S
C44 C46 1.352 . S
C45 C44 1.404 . S
C45 C49 1.389 . S
C45 H72 0.930 . S
C46 C44 1.352 . S
C46 C48 1.374 . S
C46 H73 0.931 . S
C47 C48 1.359 . S
C47 C49 1.364 . S
C48 C46 1.374 . S
C48 C47 1.359 . S
C48 H74 0.931 . S
C49 C45 1.389 . S
C49 C47 1.364 . S
C49 H75 0.931 . S
C50 O64 1.256 1_455 S
C50 O65 1.257 . S
C51 O66 1.240 1_655 S
C51 O67 1.240 . S
C52 Gd41 2.818 . S
C52 C53 1.510 . S
C52 O68 1.249 . S
C52 O69 1.252 . S
C53 C52 1.510 . S
C53 C54 1.404 . S
C53 C55 1.352 . S
C54 C53 1.404 . S
C54 C58 1.389 . S
C54 H76 0.930 . S
C55 C53 1.352 . S
C55 C57 1.374 . S
C55 H77 0.931 . S
C56 C57 1.359 . S
C56 C58 1.364 . S
C57 C55 1.374 . S
C57 C56 1.359 . S
C57 H78 0.931 . S
C58 C54 1.389 . S
C58 C56 1.364 . S
C58 H79 0.931 . S
C59 O70 1.256 . S
C59 O71 1.257 . S
O60 Gd40 2.377 1_455 S
O60 C42 1.240 . S
O61 Gd41 2.395 . S
O61 C42 1.240 . S
O62 Gd40 2.448 . S
O62 C43 1.249 . S
O63 Gd40 2.506 . S
O63 C43 1.252 . S
O64 Gd40 2.435 . S
O64 C50 1.256 1_655 S
O65 Gd40 2.717 1_455 S
O65 Gd41 2.327 . S
O65 C50 1.257 . S
O66 Gd41 2.377 . S
O66 C51 1.240 1_455 S
O67 Gd40 2.395 . S
O67 C51 1.240 . S
O68 Gd41 2.448 . S
O68 C52 1.249 . S
O69 Gd41 2.506 . S
O69 C52 1.252 . S
O70 Gd41 2.435 . S
O70 C59 1.256 . S
O71 Gd40 2.327 1_455 S
O71 Gd41 2.717 . S
O71 C59 1.257 . S
H72 C45 0.930 . S
H73 C46 0.931 . S
H74 C48 0.931 . S
H75 C49 0.931 . S
H76 C54 0.930 . S
H77 C55 0.931 . S
H78 C57 0.931 . S
H79 C58 0.931 . S
Gd80 C83 2.818 . S
Gd80 O100 2.377 1_545 S
Gd80 O102 2.448 . S
Gd80 O103 2.506 . S
Gd80 O104 2.435 . S
Gd80 O105 2.717 1_545 S
Gd80 O107 2.395 . S
Gd80 O111 2.327 . S
Gd81 C92 2.818 . S
Gd81 O101 2.395 . S
Gd81 O105 2.327 . S
Gd81 O106 2.377 1_565 S
Gd81 O108 2.448 . S
Gd81 O109 2.506 . S
Gd81 O110 2.435 . S
Gd81 O111 2.717 1_565 S
C82 O100 1.240 . S
C82 O101 1.240 . S
C83 Gd80 2.818 . S
C83 C84 1.510 . S
C83 O102 1.249 . S
C83 O103 1.252 . S
C84 C83 1.510 . S
C84 C85 1.404 . S
C84 C86 1.352 . S
C85 C84 1.404 . S
C85 C89 1.389 . S
C85 H112 0.930 . S
C86 C84 1.352 . S
C86 C88 1.374 . S
C86 H113 0.931 . S
C87 C88 1.359 . S
C87 C89 1.364 . S
C88 C86 1.374 . S
C88 C87 1.359 . S
C88 H114 0.931 . S
C89 C85 1.389 . S
C89 C87 1.364 . S
C89 H115 0.931 . S
C90 O104 1.256 . S
C90 O105 1.257 1_545 S
C91 O106 1.240 . S
C91 O107 1.240 . S
C92 Gd81 2.818 . S
C92 C93 1.510 . S
C92 O108 1.249 . S
C92 O109 1.252 . S
C93 C92 1.510 . S
C93 C94 1.411 . S
C93 C95 1.352 . S
C94 C93 1.411 . S
C94 C98 1.372 1_554 S
C94 H116 0.940 . S
C95 C93 1.352 . S
C95 C97 1.374 1_554 S
C95 H117 0.931 . S
C96 C97 1.359 . S
C96 C98 1.364 . S
C97 C95 1.374 1_556 S
C97 C96 1.359 . S
C97 H118 0.931 . S
C98 C94 1.372 1_556 S
C98 C96 1.364 . S
C98 H119 0.931 . S
C99 O110 1.256 . S
C99 O111 1.257 1_565 S
O100 Gd80 2.377 1_565 S
O100 C82 1.240 . S
O101 Gd81 2.395 . S
O101 C82 1.240 . S
O102 Gd80 2.448 . S
O102 C83 1.249 . S
O103 Gd80 2.506 . S
O103 C83 1.252 . S
O104 Gd80 2.435 . S
O104 C90 1.256 . S
O105 Gd80 2.717 1_565 S
O105 Gd81 2.327 . S
O105 C90 1.257 1_565 S
O106 Gd81 2.377 1_545 S
O106 C91 1.240 . S
O107 Gd80 2.395 . S
O107 C91 1.240 . S
O108 Gd81 2.448 . S
O108 C92 1.249 . S
O109 Gd81 2.506 . S
O109 C92 1.252 . S
O110 Gd81 2.435 . S
O110 C99 1.256 . S
O111 Gd80 2.327 . S
O111 Gd81 2.717 1_545 S
O111 C99 1.257 1_545 S
H112 C85 0.930 . S
H113 C86 0.931 . S
H114 C88 0.931 . S
H115 C89 0.931 . S
H116 C94 0.940 . S
H117 C95 0.931 . S
H118 C97 0.931 . S
H119 C98 0.931 . S
Gd120 C123 2.818 . S
Gd120 O140 2.377 1_655 S
Gd120 O142 2.448 . S
Gd120 O143 2.506 . S
Gd120 O144 2.435 . S
Gd120 O145 2.717 1_655 S
Gd120 O147 2.395 . S
Gd120 O151 2.327 1_655 S
Gd121 C132 2.818 . S
Gd121 O141 2.395 . S
Gd121 O145 2.327 . S
Gd121 O146 2.377 . S
Gd121 O148 2.448 . S
Gd121 O149 2.506 . S
Gd121 O150 2.435 . S
Gd121 O151 2.717 . S
C122 O140 1.240 . S
C122 O141 1.240 . S
C123 Gd120 2.818 . S
C123 C124 1.510 . S
C123 O142 1.249 . S
C123 O143 1.252 . S
C124 C123 1.510 . S
C124 C125 1.404 . S
C124 C126 1.352 . S
C125 C124 1.404 . S
C125 C129 1.389 . S
C125 H152 0.930 . S
C126 C124 1.352 . S
C126 C128 1.374 . S
C126 H153 0.931 . S
C127 C128 1.359 . S
C127 C129 1.364 . S
C128 C126 1.374 . S
C128 C127 1.359 . S
C128 H154 0.931 . S
C129 C125 1.389 . S
C129 C127 1.364 . S
C129 H155 0.931 . S
C130 O144 1.256 1_455 S
C130 O145 1.257 . S
C131 O146 1.240 1_655 S
C131 O147 1.240 . S
C132 Gd121 2.818 . S
C132 C133 1.510 . S
C132 O148 1.249 . S
C132 O149 1.252 . S
C133 C132 1.510 . S
C133 C134 1.404 . S
C133 C135 1.352 . S
C134 C133 1.404 . S
C134 C138 1.389 . S
C134 H156 0.930 . S
C135 C133 1.352 . S
C135 C137 1.374 . S
C135 H157 0.931 . S
C136 C137 1.359 . S
C136 C138 1.364 . S
C137 C135 1.374 . S
C137 C136 1.359 . S
C137 H158 0.931 . S
C138 C134 1.389 . S
C138 C136 1.364 . S
C138 H159 0.931 . S
C139 O150 1.256 . S
C139 O151 1.257 . S
O140 Gd120 2.377 1_455 S
O140 C122 1.240 . S
O141 Gd121 2.395 . S
O141 C122 1.240 . S
O142 Gd120 2.448 . S
O142 C123 1.249 . S
O143 Gd120 2.506 . S
O143 C123 1.252 . S
O144 Gd120 2.435 . S
O144 C130 1.256 1_655 S
O145 Gd120 2.717 1_455 S
O145 Gd121 2.327 . S
O145 C130 1.257 . S
O146 Gd121 2.377 . S
O146 C131 1.240 1_455 S
O147 Gd120 2.395 . S
O147 C131 1.240 . S
O148 Gd121 2.448 . S
O148 C132 1.249 . S
O149 Gd121 2.506 . S
O149 C132 1.252 . S
O150 Gd121 2.435 . S
O150 C139 1.256 . S
O151 Gd120 2.327 1_455 S
O151 Gd121 2.717 . S
O151 C139 1.257 . S
H152 C125 0.930 . S
H153 C126 0.931 . S
H154 C128 0.931 . S
H155 C129 0.931 . S
H156 C134 0.930 . S
H157 C135 0.931 . S
H158 C137 0.931 . S
H159 C138 0.931 . S
C160 C161 1.391 1_565 S
C160 C162 1.394 . S
C160 H176 0.931 . S
C161 C160 1.391 1_545 S
C161 C165 1.376 . S
C162 C160 1.394 . S
C162 C163 1.369 1_665 S
C162 C166 1.531 1_655 S
C163 C162 1.369 1_445 S
C163 C164 1.410 1_455 S
C163 C171 1.503 . S
C164 C163 1.410 1_655 S
C164 C165 1.392 . S
C164 C167 1.511 1_655 S
C165 C161 1.376 . S
C165 C164 1.392 . S
C165 H177 0.929 . S
C166 C162 1.531 1_455 S
C166 H178 0.960 . S
C166 H179 0.962 . S
C166 H180 0.960 1_455 S
C167 C164 1.511 1_455 S
C167 H181 0.961 1_455 S
C167 H182 0.961 . S
C167 H183 0.961 1_455 S
C168 C169 1.370 . S
C168 C170 1.363 . S
C168 H184 0.931 . S
C169 C168 1.370 . S
C169 C173 1.408 . S
C170 C168 1.363 . S
C170 C171 1.370 . S
C170 C174 1.524 . S
C171 C163 1.503 . S
C171 C170 1.370 . S
C171 C172 1.403 . S
C172 C171 1.403 . S
C172 C173 1.404 . S
C172 C175 1.539 1_455 S
C173 C169 1.408 . S
C173 C172 1.404 . S
C173 H185 0.930 . S
C174 C170 1.524 . S
C174 H186 0.956 . S
C174 H187 0.961 . S
C174 H188 0.961 . S
C175 C172 1.539 1_655 S
C175 H189 0.958 . S
C175 H190 0.961 . S
C175 H191 0.960 . S
H176 C160 0.931 . S
H177 C165 0.929 . S
H178 C166 0.960 . S
H179 C166 0.962 . S
H180 C166 0.960 1_655 S
H181 C167 0.961 1_655 S
H182 C167 0.961 . S
H183 C167 0.961 1_655 S
H184 C168 0.931 . S
H185 C173 0.930 . S
H186 C174 0.956 . S
H187 C174 0.961 . S
H188 C174 0.961 . S
H189 C175 0.958 . S
H190 C175 0.961 . S
H191 C175 0.960 . S
C192 C193 1.391 . S
C192 C194 1.394 . S
C192 H208 0.931 1_455 S
C193 C192 1.391 . S
C193 C197 1.376 . S
C194 C192 1.394 . S
C194 C195 1.369 1_565 S
C194 C198 1.531 1_455 S
C195 C194 1.369 1_545 S
C195 C196 1.410 . S
C195 C203 1.503 . S
C196 C195 1.410 . S
C196 C197 1.392 1_545 S
C196 C199 1.511 . S
C197 C193 1.376 . S
C197 C196 1.392 1_565 S
C197 H209 0.929 . S
C198 C194 1.531 1_655 S
C198 H210 0.960 . S
C198 H211 0.962 . S
C198 H212 0.960 . S
C199 C196 1.511 . S
C199 H213 0.961 . S
C199 H214 0.961 . S
C199 H215 0.961 . S
C200 C201 1.370 . S
C200 C202 1.363 . S
C200 H216 0.931 1_455 S
C201 C200 1.370 . S
C201 C205 1.408 . S
C202 C200 1.363 . S
C202 C203 1.370 . S
C202 C206 1.524 1_455 S
C203 C195 1.503 . S
C203 C202 1.370 . S
C203 C204 1.403 . S
C204 C203 1.403 . S
C204 C205 1.404 . S
C204 C207 1.539 . S
C205 C201 1.408 . S
C205 C204 1.404 . S
C205 H217 0.930 . S
C206 C202 1.524 1_655 S
C206 H218 0.956 . S
C206 H219 0.961 1_655 S
C206 H220 0.961 . S
C207 C204 1.539 . S
C207 H221 0.958 1_545 S
C207 H222 0.961 . S
C207 H223 0.960 . S
H208 C192 0.931 1_655 S
H209 C197 0.929 . S
H210 C198 0.960 . S
H211 C198 0.962 . S
H212 C198 0.960 . S
H213 C199 0.961 . S
H214 C199 0.961 . S
H215 C199 0.961 . S
H216 C200 0.931 1_655 S
H217 C205 0.930 . S
H218 C206 0.956 . S
H219 C206 0.961 1_455 S
H220 C206 0.961 . S
H221 C207 0.958 1_565 S
H222 C207 0.961 . S
H223 C207 0.960 . S
C224 C225 1.391 1_565 S
C224 C226 1.394 . S
C224 H240 0.931 . S
C225 C224 1.391 1_545 S
C225 C229 1.376 . S
C226 C224 1.394 . S
C226 C227 1.369 1_565 S
C226 C230 1.531 . S
C227 C226 1.369 1_545 S
C227 C228 1.410 . S
C227 C235 1.503 . S
C228 C227 1.410 . S
C228 C229 1.392 . S
C228 C231 1.511 . S
C229 C225 1.376 . S
C229 C228 1.392 . S
C229 H241 0.929 . S
C230 C226 1.531 . S
C230 H242 0.960 . S
C230 H243 0.962 . S
C230 H244 0.960 . S
C231 C228 1.511 . S
C231 H245 0.961 . S
C231 H246 0.961 . S
C231 H247 0.961 . S
C232 C233 1.370 . S
C232 C234 1.363 . S
C232 H248 0.931 . S
C233 C232 1.370 . S
C233 C237 1.408 . S
C234 C232 1.363 . S
C234 C235 1.370 . S
C234 C238 1.524 . S
C235 C227 1.503 . S
C235 C234 1.370 . S
C235 C236 1.403 . S
C236 C235 1.403 . S
C236 C237 1.404 . S
C236 C239 1.539 . S
C237 C233 1.408 . S
C237 C236 1.404 . S
C237 H249 0.930 . S
C238 C234 1.524 . S
C238 H250 0.956 . S
C238 H251 0.961 . S
C238 H252 0.961 . S
C239 C236 1.539 . S
C239 H253 0.958 . S
C239 H254 0.961 . S
C239 H255 0.960 . S
H240 C224 0.931 . S
H241 C229 0.929 . S
H242 C230 0.960 . S
H243 C230 0.962 . S
H244 C230 0.960 . S
H245 C231 0.961 . S
H246 C231 0.961 . S
H247 C231 0.961 . S
H248 C232 0.931 . S
H249 C237 0.930 . S
H250 C238 0.956 . S
H251 C238 0.961 . S
H252 C238 0.961 . S
H253 C239 0.958 . S
H254 C239 0.961 . S
H255 C239 0.960 . S
C256 C257 1.391 . S
C256 C258 1.394 . S
C256 H272 0.931 . S
C257 C256 1.391 . S
C257 C261 1.376 . S
C258 C256 1.394 . S
C258 C259 1.369 . S
C258 C262 1.531 . S
C259 C258 1.369 . S
C259 C260 1.410 . S
C259 C267 1.503 . S
C260 C259 1.410 . S
C260 C261 1.392 . S
C260 C263 1.511 . S
C261 C257 1.376 . S
C261 C260 1.392 . S
C261 H273 0.929 . S
C262 C258 1.531 . S
C262 H274 0.960 . S
C262 H275 0.962 1_455 S
C262 H276 0.960 . S
C263 C260 1.511 . S
C263 H277 0.961 . S
C263 H278 0.961 . S
C263 H279 0.961 . S
C264 C265 1.370 1_655 S
C264 C266 1.364 . S
C264 H280 0.931 . S
C265 C264 1.370 1_455 S
C265 C269 1.408 . S
C266 C264 1.364 . S
C266 C267 1.361 1_655 S
C266 C270 1.533 . S
C267 C259 1.503 . S
C267 C266 1.361 1_455 S
C267 C268 1.403 . S
C268 C267 1.403 . S
C268 C269 1.404 . S
C268 C271 1.539 . S
C269 C265 1.408 . S
C269 C268 1.404 . S
C269 H281 0.930 . S
C270 C266 1.533 . S
C270 H282 0.956 . S
C270 H283 0.961 . S
C270 H284 0.961 . S
C271 C268 1.539 . S
C271 H285 0.958 . S
C271 H286 0.961 . S
C271 H287 0.960 . S
H272 C256 0.931 . S
H273 C261 0.929 . S
H274 C262 0.960 . S
H275 C262 0.962 1_655 S
H276 C262 0.960 . S
H277 C263 0.961 . S
H278 C263 0.961 . S
H279 C263 0.961 . S
H280 C264 0.931 . S
H281 C269 0.930 . S
H282 C270 0.956 . S
H283 C270 0.961 . S
H284 C270 0.961 . S
H285 C271 0.958 . S
H286 C271 0.961 . S
H287 C271 0.960 . S
C288 C289 1.391 . S
C288 C290 1.394 . S
C288 H304 0.931 . S
C289 C288 1.391 . S
C289 C293 1.376 . S
C290 C288 1.394 . S
C290 C291 1.369 . S
C290 C294 1.531 . S
C291 C290 1.369 . S
C291 C292 1.410 . S
C291 C299 1.503 . S
C292 C291 1.410 . S
C292 C293 1.392 . S
C292 C295 1.511 . S
C293 C289 1.376 . S
C293 C292 1.392 . S
C293 H305 0.929 . S
C294 C290 1.531 . S
C294 H306 0.960 . S
C294 H307 0.962 . S
C294 H308 0.960 . S
C295 C292 1.511 . S
C295 H309 0.961 . S
C295 H310 0.961 . S
C295 H311 0.961 . S
C296 C297 1.370 . S
C296 C298 1.363 . S
C296 H312 0.931 . S
C297 C296 1.370 . S
C297 C301 1.408 . S
C298 C296 1.363 . S
C298 C299 1.370 . S
C298 C302 1.524 . S
C299 C291 1.503 . S
C299 C298 1.370 . S
C299 C300 1.403 . S
C300 C299 1.403 . S
C300 C301 1.404 . S
C300 C303 1.539 . S
C301 C297 1.408 . S
C301 C300 1.404 . S
C301 H313 0.930 . S
C302 C298 1.524 . S
C302 H314 0.956 . S
C302 H315 0.961 . S
C302 H316 0.961 . S
C303 C300 1.539 . S
C303 H317 0.958 . S
C303 H318 0.961 . S
C303 H319 0.960 . S
H304 C288 0.931 . S
H305 C293 0.929 . S
H306 C294 0.960 . S
H307 C294 0.962 . S
H308 C294 0.960 . S
H309 C295 0.961 . S
H310 C295 0.961 . S
H311 C295 0.961 . S
H312 C296 0.931 . S
H313 C301 0.930 . S
H314 C302 0.956 . S
H315 C302 0.961 . S
H316 C302 0.961 . S
H317 C303 0.958 . S
H318 C303 0.961 . S
H319 C303 0.960 . S
C320 C321 1.391 . S
C320 C322 1.394 . S
C320 H336 0.931 . S
C321 C320 1.391 . S
C321 C325 1.376 . S
C322 C320 1.394 . S
C322 C323 1.369 . S
C322 C326 1.531 . S
C323 C322 1.369 . S
C323 C324 1.410 . S
C323 C331 1.503 . S
C324 C323 1.410 . S
C324 C325 1.392 . S
C324 C327 1.511 . S
C325 C321 1.376 . S
C325 C324 1.392 . S
C325 H337 0.929 . S
C326 C322 1.531 . S
C326 H338 0.960 . S
C326 H339 0.962 . S
C326 H340 0.960 . S
C327 C324 1.511 . S
C327 H341 0.961 . S
C327 H342 0.961 . S
C327 H343 0.961 . S
C328 C329 1.370 . S
C328 C330 1.363 1_554 S
C328 H344 0.931 . S
C329 C328 1.370 . S
C329 C333 1.408 . S
C330 C328 1.363 1_556 S
C330 C331 1.370 . S
C330 C334 1.524 . S
C331 C323 1.503 . S
C331 C330 1.370 . S
C331 C332 1.403 . S
C332 C331 1.403 . S
C332 C333 1.404 1_556 S
C332 C335 1.539 . S
C333 C329 1.408 . S
C333 C332 1.404 1_554 S
C333 H345 0.930 . S
C334 C330 1.524 . S
C334 H346 0.956 . S
C334 H347 0.961 . S
C334 H348 0.961 . S
C335 C332 1.539 . S
C335 H349 0.958 . S
C335 H350 0.961 . S
C335 H351 0.960 . S
H336 C320 0.931 . S
H337 C325 0.929 . S
H338 C326 0.960 . S
H339 C326 0.962 . S
H340 C326 0.960 . S
H341 C327 0.961 . S
H342 C327 0.961 . S
H343 C327 0.961 . S
H344 C328 0.931 . S
H345 C333 0.930 . S
H346 C334 0.956 . S
H347 C334 0.961 . S
H348 C334 0.961 . S
H349 C335 0.958 . S
H350 C335 0.961 . S
H351 C335 0.960 . S
C352 C353 1.391 . S
C352 C354 1.394 . S
C352 H368 0.931 . S
C353 C352 1.391 . S
C353 C357 1.376 . S
C354 C352 1.394 . S
C354 C355 1.369 . S
C354 C358 1.531 . S
C355 C354 1.369 . S
C355 C356 1.410 . S
C355 C363 1.503 . S
C356 C355 1.410 . S
C356 C357 1.392 . S
C356 C359 1.511 . S
C357 C353 1.376 . S
C357 C356 1.392 . S
C357 H369 0.929 . S
C358 C354 1.531 . S
C358 H370 0.960 . S
C358 H371 0.962 . S
C358 H372 0.960 . S
C359 C356 1.511 . S
C359 H373 0.961 . S
C359 H374 0.961 . S
C359 H375 0.961 . S
C360 C361 1.370 . S
C360 C362 1.363 . S
C360 H376 0.931 . S
C361 C360 1.370 . S
C361 C365 1.408 . S
C362 C360 1.363 . S
C362 C363 1.370 . S
C362 C366 1.524 . S
C363 C355 1.503 . S
C363 C362 1.370 . S
C363 C364 1.403 . S
C364 C363 1.403 . S
C364 C365 1.404 . S
C364 C367 1.539 . S
C365 C361 1.408 . S
C365 C364 1.404 . S
C365 H377 0.930 . S
C366 C362 1.524 . S
C366 H378 0.956 . S
C366 H379 0.961 . S
C366 H380 0.961 . S
C367 C364 1.539 . S
C367 H381 0.958 . S
C367 H382 0.961 . S
C367 H383 0.960 . S
H368 C352 0.931 . S
H369 C357 0.929 . S
H370 C358 0.960 . S
H371 C358 0.962 . S
H372 C358 0.960 . S
H373 C359 0.961 . S
H374 C359 0.961 . S
H375 C359 0.961 . S
H376 C360 0.931 . S
H377 C365 0.930 . S
H378 C366 0.956 . S
H379 C366 0.961 . S
H380 C366 0.961 . S
H381 C367 0.958 . S
H382 C367 0.961 . S
H383 C367 0.960 . S
C384 C385 1.391 . S
C384 C386 1.394 . S
C384 H400 0.931 . S
C385 C384 1.391 . S
C385 C389 1.376 . S
C386 C384 1.394 . S
C386 C387 1.369 . S
C386 C390 1.531 . S
C387 C386 1.369 . S
C387 C388 1.410 . S
C387 C395 1.503 . S
C388 C387 1.410 . S
C388 C389 1.392 . S
C388 C391 1.511 . S
C389 C385 1.376 . S
C389 C388 1.392 . S
C389 H401 0.929 . S
C390 C386 1.531 . S
C390 H402 0.960 . S
C390 H403 0.962 . S
C390 H404 0.960 . S
C391 C388 1.511 . S
C391 H405 0.961 . S
C391 H406 0.961 . S
C391 H407 0.961 . S
C392 C393 1.370 . S
C392 C394 1.363 . S
C392 H408 0.931 . S
C393 C392 1.370 . S
C393 C397 1.408 . S
C394 C392 1.363 . S
C394 C395 1.370 . S
C394 C398 1.524 . S
C395 C387 1.503 . S
C395 C394 1.370 . S
C395 C396 1.403 . S
C396 C395 1.403 . S
C396 C397 1.404 . S
C396 C399 1.539 . S
C397 C393 1.408 . S
C397 C396 1.404 . S
C397 H409 0.930 . S
C398 C394 1.524 . S
C398 H410 0.956 . S
C398 H411 0.961 . S
C398 H412 0.961 . S
C399 C396 1.539 . S
C399 H413 0.958 . S
C399 H414 0.961 . S
C399 H415 0.960 . S
H400 C384 0.931 . S
H401 C389 0.929 . S
H402 C390 0.960 . S
H403 C390 0.962 . S
H404 C390 0.960 . S
H405 C391 0.961 . S
H406 C391 0.961 . S
H407 C391 0.961 . S
H408 C392 0.931 . S
H409 C397 0.930 . S
H410 C398 0.956 . S
H411 C398 0.961 . S
H412 C398 0.961 . S
H413 C399 0.958 . S
H414 C399 0.961 . S
H415 C399 0.960 . S
C416 C417 1.391 . S
C416 C418 1.394 . S
C416 H432 0.931 . S
C417 C416 1.391 . S
C417 C421 1.376 . S
C418 C416 1.394 . S
C418 C419 1.369 . S
C418 C422 1.531 . S
C419 C418 1.369 . S
C419 C420 1.410 . S
C419 C427 1.503 . S
C420 C419 1.410 . S
C420 C421 1.392 . S
C420 C423 1.511 . S
C421 C417 1.376 . S
C421 C420 1.392 . S
C421 H433 0.929 . S
C422 C418 1.531 . S
C422 H434 0.960 . S
C422 H435 0.962 . S
C422 H436 0.960 . S
C423 C420 1.511 . S
C423 H437 0.961 . S
C423 H438 0.961 . S
C423 H439 0.961 . S
C424 C425 1.370 . S
C424 C426 1.363 . S
C424 H440 0.931 . S
C425 C424 1.370 . S
C425 C429 1.408 . S
C426 C424 1.363 . S
C426 C427 1.370 . S
C426 C430 1.524 . S
C427 C419 1.503 . S
C427 C426 1.370 . S
C427 C428 1.403 . S
C428 C427 1.403 . S
C428 C429 1.404 . S
C428 C431 1.539 . S
C429 C425 1.408 . S
C429 C428 1.404 . S
C429 H441 0.930 . S
C430 C426 1.524 . S
C430 H442 0.956 . S
C430 H443 0.961 . S
C430 H444 0.961 . S
C431 C428 1.539 . S
C431 H445 0.958 . S
C431 H446 0.961 . S
C431 H447 0.960 . S
H432 C416 0.931 . S
H433 C421 0.929 . S
H434 C422 0.960 . S
H435 C422 0.962 . S
H436 C422 0.960 . S
H437 C423 0.961 . S
H438 C423 0.961 . S
H439 C423 0.961 . S
H440 C424 0.931 . S
H441 C429 0.930 . S
H442 C430 0.956 . S
H443 C430 0.961 . S
H444 C430 0.961 . S
H445 C431 0.958 . S
H446 C431 0.961 . S
H447 C431 0.960 . S
C448 C449 1.391 . S
C448 C450 1.394 . S
C448 H464 0.931 . S
C449 C448 1.391 . S
C449 C453 1.376 1_545 S
C450 C448 1.394 . S
C450 C451 1.369 1_545 S
C450 C454 1.531 . S
C451 C450 1.369 1_565 S
C451 C452 1.410 . S
C451 C459 1.503 . S
C452 C451 1.410 . S
C452 C453 1.392 . S
C452 C455 1.511 . S
C453 C449 1.376 1_565 S
C453 C452 1.392 . S
C453 H465 0.929 . S
C454 C450 1.531 . S
C454 H466 0.960 . S
C454 H467 0.962 . S
C454 H468 0.960 . S
C455 C452 1.511 . S
C455 H469 0.961 . S
C455 H470 0.961 . S
C455 H471 0.961 . S
C456 C457 1.370 . S
C456 C458 1.363 . S
C456 H472 0.931 . S
C457 C456 1.370 . S
C457 C461 1.408 . S
C458 C456 1.363 . S
C458 C459 1.370 . S
C458 C462 1.524 . S
C459 C451 1.503 . S
C459 C458 1.370 . S
C459 C460 1.403 . S
C460 C459 1.403 . S
C460 C461 1.404 . S
C460 C463 1.539 . S
C461 C457 1.408 . S
C461 C460 1.404 . S
C461 H473 0.930 . S
C462 C458 1.524 . S
C462 H474 0.956 . S
C462 H475 0.961 . S
C462 H476 0.961 . S
C463 C460 1.539 . S
C463 H477 0.958 1_565 S
C463 H478 0.961 . S
C463 H479 0.960 . S
H464 C448 0.931 . S
H465 C453 0.929 . S
H466 C454 0.960 . S
H467 C454 0.962 . S
H468 C454 0.960 . S
H469 C455 0.961 . S
H470 C455 0.961 . S
H471 C455 0.961 . S
H472 C456 0.931 . S
H473 C461 0.930 . S
H474 C462 0.956 . S
H475 C462 0.961 . S
H476 C462 0.961 . S
H477 C463 0.958 1_545 S
H478 C463 0.961 . S
H479 C463 0.960 . S
C480 C481 1.391 . S
C480 C482 1.394 . S
C480 H496 0.931 . S
C481 C480 1.391 . S
C481 C485 1.376 . S
C482 C480 1.394 . S
C482 C483 1.369 . S
C482 C486 1.531 . S
C483 C482 1.369 . S
C483 C484 1.410 . S
C483 C491 1.503 . S
C484 C483 1.410 . S
C484 C485 1.392 . S
C484 C487 1.511 . S
C485 C481 1.376 . S
C485 C484 1.392 . S
C485 H497 0.929 . S
C486 C482 1.531 . S
C486 H498 0.960 . S
C486 H499 0.962 . S
C486 H500 0.960 . S
C487 C484 1.511 . S
C487 H501 0.961 . S
C487 H502 0.961 . S
C487 H503 0.961 . S
C488 C489 1.370 . S
C488 C490 1.363 . S
C488 H504 0.931 . S
C489 C488 1.370 . S
C489 C493 1.408 . S
C490 C488 1.363 . S
C490 C491 1.370 . S
C490 C494 1.524 . S
C491 C483 1.503 . S
C491 C490 1.370 . S
C491 C492 1.403 . S
C492 C491 1.403 . S
C492 C493 1.404 . S
C492 C495 1.539 . S
C493 C489 1.408 . S
C493 C492 1.404 . S
C493 H505 0.930 . S
C494 C490 1.524 . S
C494 H506 0.956 . S
C494 H507 0.961 . S
C494 H508 0.961 . S
C495 C492 1.539 . S
C495 H509 0.958 . S
C495 H510 0.961 . S
C495 H511 0.960 . S
H496 C480 0.931 . S
H497 C485 0.929 . S
H498 C486 0.960 . S
H499 C486 0.962 . S
H500 C486 0.960 . S
H501 C487 0.961 . S
H502 C487 0.961 . S
H503 C487 0.961 . S
H504 C488 0.931 . S
H505 C493 0.930 . S
H506 C494 0.956 . S
H507 C494 0.961 . S
H508 C494 0.961 . S
H509 C495 0.958 . S
H510 C495 0.961 . S
H511 C495 0.960 . S
C512 C513 1.391 . S
C512 C514 1.394 . S
C512 H528 0.931 . S
C513 C512 1.391 . S
C513 C517 1.376 . S
C514 C512 1.394 . S
C514 C515 1.369 . S
C514 C518 1.531 . S
C515 C514 1.369 . S
C515 C516 1.410 . S
C515 C523 1.503 . S
C516 C515 1.410 . S
C516 C517 1.392 . S
C516 C519 1.511 . S
C517 C513 1.376 . S
C517 C516 1.392 . S
C517 H529 0.929 . S
C518 C514 1.531 . S
C518 H530 0.960 . S
C518 H531 0.962 . S
C518 H532 0.960 . S
C519 C516 1.511 . S
C519 H533 0.961 . S
C519 H534 0.961 . S
C519 H535 0.961 . S
C520 C521 1.370 . S
C520 C522 1.363 . S
C520 H536 0.931 1_655 S
C521 C520 1.370 . S
C521 C525 1.408 . S
C522 C520 1.363 . S
C522 C523 1.370 . S
C522 C526 1.524 . S
C523 C515 1.503 . S
C523 C522 1.370 . S
C523 C524 1.403 . S
C524 C523 1.403 . S
C524 C525 1.404 . S
C524 C527 1.539 . S
C525 C521 1.408 . S
C525 C524 1.404 . S
C525 H537 0.930 . S
C526 C522 1.524 . S
C526 H538 0.956 . S
C526 H539 0.961 . S
C526 H540 0.961 1_655 S
C527 C524 1.539 . S
C527 H541 0.958 . S
C527 H542 0.961 . S
C527 H543 0.960 . S
H528 C512 0.931 . S
H529 C517 0.929 . S
H530 C518 0.960 . S
H531 C518 0.962 . S
H532 C518 0.960 . S
H533 C519 0.961 . S
H534 C519 0.961 . S
H535 C519 0.961 . S
H536 C520 0.931 1_455 S
H537 C525 0.930 . S
H538 C526 0.956 . S
H539 C526 0.961 . S
H540 C526 0.961 1_455 S
H541 C527 0.958 . S
H542 C527 0.961 . S
H543 C527 0.960 . S
C161 C90 0.466 . S
C169 C19 0.545 . S
C193 C130 0.636 . S
C201 C59 0.698 . S
C225 C99 1.139 1_545 S
C233 C10 1.101 . S
C257 C50 1.075 . S
C265 C139 1.041 . S
C289 C56 1.059 . S
C297 C7 1.058 . S
C321 C47 1.730 . S
C329 C91 1.743 . S
C353 C131 2.137 . S
C361 C82 2.087 . S
C385 C122 1.346 . S
C393 C16 1.353 . S
C417 C96 1.018 . S
C425 C127 1.056 . S
C449 C2 1.732 . S
C457 C136 1.711 . S
C481 C42 2.142 . S
C489 C11 2.104 1_556 S
C513 C87 1.361 . S
C521 C51 1.332 . S
