# Generated by pormake.
# Topology acs-a, (4)-cn, num edge types: 1
# Building blocks:
#     Node 0, Type 0, BuildingBlock: TATPOV_clean_sbu_0, # of connection points: 4
#     Node 1, Type 0, BuildingBlock: TATPOV_clean_sbu_0, # of connection points: 4
#     Node 2, Type 0, BuildingBlock: TATPOV_clean_sbu_0, # of connection points: 4
#     Node 3, Type 0, BuildingBlock: TATPOV_clean_sbu_0, # of connection points: 4
#     Node 4, Type 0, BuildingBlock: TATPOV_clean_sbu_0, # of connection points: 4
#     Node 5, Type 0, BuildingBlock: TATPOV_clean_sbu_0, # of connection points: 4
#     Node 6, Type 0, BuildingBlock: TATPOV_clean_sbu_0, # of connection points: 4
#     Node 7, Type 0, BuildingBlock: TATPOV_clean_sbu_0, # of connection points: 4
#     Node 8, Type 0, BuildingBlock: TATPOV_clean_sbu_0, # of connection points: 4
#     Node 9, Type 0, BuildingBlock: TATPOV_clean_sbu_0, # of connection points: 4
#     Node 10, Type 0, BuildingBlock: TATPOV_clean_sbu_0, # of connection points: 4
#     Node 11, Type 0, BuildingBlock: TATPOV_clean_sbu_0, # of connection points: 4
#     Edge 12, Type (0, 0), BuildingBlock: UVAHIK_clean_linker_0, # of connection points: 2
#     Edge 13, Type (0, 0), BuildingBlock: UVAHIK_clean_linker_0, # of connection points: 2
#     Edge 14, Type (0, 0), BuildingBlock: UVAHIK_clean_linker_0, # of connection points: 2
#     Edge 15, Type (0, 0), BuildingBlock: UVAHIK_clean_linker_0, # of connection points: 2
#     Edge 16, Type (0, 0), BuildingBlock: UVAHIK_clean_linker_0, # of connection points: 2
#     Edge 17, Type (0, 0), BuildingBlock: UVAHIK_clean_linker_0, # of connection points: 2
#     Edge 18, Type (0, 0), BuildingBlock: UVAHIK_clean_linker_0, # of connection points: 2
#     Edge 19, Type (0, 0), BuildingBlock: UVAHIK_clean_linker_0, # of connection points: 2
#     Edge 20, Type (0, 0), BuildingBlock: UVAHIK_clean_linker_0, # of connection points: 2
#     Edge 21, Type (0, 0), BuildingBlock: UVAHIK_clean_linker_0, # of connection points: 2
#     Edge 22, Type (0, 0), BuildingBlock: UVAHIK_clean_linker_0, # of connection points: 2
#     Edge 23, Type (0, 0), BuildingBlock: UVAHIK_clean_linker_0, # of connection points: 2
#     Edge 24, Type (0, 0), BuildingBlock: UVAHIK_clean_linker_0, # of connection points: 2
#     Edge 25, Type (0, 0), BuildingBlock: UVAHIK_clean_linker_0, # of connection points: 2
#     Edge 26, Type (0, 0), BuildingBlock: UVAHIK_clean_linker_0, # of connection points: 2
#     Edge 27, Type (0, 0), BuildingBlock: UVAHIK_clean_linker_0, # of connection points: 2
#     Edge 28, Type (0, 0), BuildingBlock: UVAHIK_clean_linker_0, # of connection points: 2
#     Edge 29, Type (0, 0), BuildingBlock: UVAHIK_clean_linker_0, # of connection points: 2
#     Edge 30, Type (0, 0), BuildingBlock: UVAHIK_clean_linker_0, # of connection points: 2
#     Edge 31, Type (0, 0), BuildingBlock: UVAHIK_clean_linker_0, # of connection points: 2
#     Edge 32, Type (0, 0), BuildingBlock: UVAHIK_clean_linker_0, # of connection points: 2
#     Edge 33, Type (0, 0), BuildingBlock: UVAHIK_clean_linker_0, # of connection points: 2
#     Edge 34, Type (0, 0), BuildingBlock: UVAHIK_clean_linker_0, # of connection points: 2
#     Edge 35, Type (0, 0), BuildingBlock: UVAHIK_clean_linker_0, # of connection points: 2
# Relax obj value: 0.372
# Max RMSD: 0.174
# Mean RMSD: 0.170
data_MOF--net-acs-a--node1-TATPOV_clean_sbu_0--edge1-UVAHIK_clean_linker_0
_symmetry_space_group_name_H-M    P1
_symmetry_Int_Tables_number       1
_symmetry_cell_setting            triclinic
loop_
_symmetry_equiv_pos_as_xyz
'x, y, z'
_cell_length_a     59.649799
_cell_length_b     59.672931
_cell_length_c     59.059854
_cell_angle_alpha  90.188741
_cell_angle_beta   89.959343
_cell_angle_gamma 115.28447
loop_
_atom_site_label
_atom_site_type_symbol
_atom_site_fract_x
_atom_site_fract_y
_atom_site_fract_z
_atom_type_partial_charge
Zn0 Zn 0.65922 0.15821 0.12534 0.0
Zn1 Zn 0.61785 0.12838 0.10517 0.0
O2 O 0.64614 0.13258 0.08245 0.0
O3 O 0.68062 0.15492 0.1008 0.0
O4 O 0.58828 0.10252 0.08942 0.0
O5 O 0.65205 0.13638 0.15255 0.0
O6 O 0.61622 0.11276 0.1368 0.0
C7 C 0.66976 0.14302 0.08328 0.0
C8 C 0.62493 0.18044 0.11551 0.0
O9 O 0.61105 0.15914 0.10749 0.0
O10 O 0.64606 0.18458 0.12357 0.0
C11 C 0.58317 0.10561 0.06913 0.0
O12 O 0.59652 0.12675 0.05904 0.0
C13 C 0.63121 0.11783 0.15344 0.0
Zn14 Zn 0.36586 0.54261 0.64061 0.0
Zn15 Zn 0.40649 0.5582 0.61512 0.0
O16 O 0.40757 0.59195 0.62392 0.0
O17 O 0.37409 0.57924 0.64524 0.0
O18 O 0.43675 0.56479 0.59641 0.0
O19 O 0.3784 0.52445 0.66184 0.0
O20 O 0.41236 0.53837 0.64131 0.0
C21 C 0.39256 0.59676 0.63619 0.0
C22 C 0.35468 0.52694 0.59485 0.0
O23 O 0.37795 0.53986 0.59267 0.0
O24 O 0.34467 0.52415 0.61417 0.0
C25 C 0.43968 0.57194 0.57595 0.0
O26 O 0.42301 0.57777 0.5664 0.0
C27 C 0.39985 0.52591 0.6581 0.0
Zn28 Zn 0.82137 0.33315 0.0865 0.0
Zn29 Zn 0.85877 0.36715 0.06321 0.0
O30 O 0.83237 0.3805 0.06264 0.0
O31 O 0.80088 0.35244 0.08103 0.0
O32 O 0.88693 0.39424 0.04728 0.0
O33 O 0.84294 0.33961 0.11405 0.0
O34 O 0.87365 0.36794 0.09497 0.0
C35 C 0.81036 0.37267 0.07022 0.0
C36 C 0.83481 0.31335 0.04691 0.0
O37 O 0.85028 0.33573 0.04344 0.0
O38 O 0.82094 0.30768 0.06417 0.0
C39 C 0.88351 0.40329 0.02888 0.0
O40 O 0.86145 0.39355 0.01941 0.0
C41 C 0.86513 0.35591 0.11319 0.0
Zn42 Zn 0.32669 0.84584 0.64558 0.0
Zn43 Zn 0.3593 0.86589 0.61131 0.0
O44 O 0.32552 0.85782 0.59685 0.0
O45 O 0.29849 0.84226 0.62439 0.0
O46 O 0.3833 0.88338 0.58649 0.0
O47 O 0.3444 0.87733 0.66411 0.0
O48 O 0.37115 0.89219 0.63629 0.0
C49 C 0.30322 0.84874 0.60388 0.0
C50 C 0.3556 0.81827 0.63304 0.0
O51 O 0.36521 0.83532 0.61835 0.0
O52 O 0.3391 0.81862 0.64644 0.0
C53 C 0.3808 0.90129 0.57708 0.0
O54 O 0.36241 0.90647 0.58342 0.0
C55 C 0.36371 0.89455 0.65596 0.0
Zn56 Zn 0.61508 0.44636 0.1548 0.0
Zn57 Zn 0.58932 0.44362 0.11754 0.0
O58 O 0.5791 0.4068 0.12267 0.0
O59 O 0.59742 0.40844 0.15543 0.0
O60 O 0.57045 0.44571 0.09019 0.0
O61 O 0.60135 0.46741 0.171 0.0
O62 O 0.57645 0.46037 0.14174 0.0
C63 C 0.58389 0.39588 0.13919 0.0
C64 C 0.64643 0.46601 0.11658 0.0
O65 O 0.62564 0.4603 0.10682 0.0
O66 O 0.64714 0.4624 0.13763 0.0
C67 C 0.54718 0.4389 0.09128 0.0
O68 O 0.53541 0.42879 0.11005 0.0
C69 C 0.58344 0.46951 0.16138 0.0
Zn70 Zn 0.19437 0.63682 0.56072 0.0
Zn71 Zn 0.14877 0.60414 0.54906 0.0
O72 O 0.17155 0.58905 0.53624 0.0
O73 O 0.20915 0.61593 0.54578 0.0
O74 O 0.11516 0.57955 0.53901 0.0
O75 O 0.18315 0.63157 0.59364 0.0
O76 O 0.14631 0.60327 0.58364 0.0
C77 C 0.19492 0.59586 0.53623 0.0
C78 C 0.16919 0.65828 0.53346 0.0
O79 O 0.15121 0.63689 0.53517 0.0
O80 O 0.18995 0.66284 0.54239 0.0
C81 C 0.11133 0.57606 0.51787 0.0
O82 O 0.12933 0.58868 0.50376 0.0
C83 C 0.16158 0.61577 0.59897 0.0
Zn84 Zn 0.81231 0.33746 0.36621 0.0
Zn85 Zn 0.8493 0.37203 0.38756 0.0
O86 O 0.8434 0.34029 0.40546 0.0
O87 O 0.81737 0.31093 0.38348 0.0
O88 O 0.87859 0.39799 0.40335 0.0
O89 O 0.82902 0.34954 0.33624 0.0
O90 O 0.86237 0.37444 0.35485 0.0
C91 C 0.83099 0.31738 0.40093 0.0
C92 C 0.79849 0.37269 0.38795 0.0
O93 O 0.82175 0.38397 0.3915 0.0
O94 O 0.78941 0.3515 0.37868 0.0
C95 C 0.87982 0.40061 0.42473 0.0
O96 O 0.86096 0.38617 0.43721 0.0
C97 C 0.85149 0.36521 0.33626 0.0
Zn98 Zn 0.44432 0.85519 0.83774 0.0
Zn99 Zn 0.44726 0.87696 0.8773 0.0
O100 O 0.46563 0.85453 0.88213 0.0
O101 O 0.46363 0.83713 0.84885 0.0
O102 O 0.45315 0.89638 0.90629 0.0
O103 O 0.46191 0.8875 0.82158 0.0
O104 O 0.45954 0.90521 0.85364 0.0
C105 C 0.4705 0.83992 0.86933 0.0
C106 C 0.39653 0.84311 0.85974 0.0
O107 O 0.40977 0.85679 0.87568 0.0
O108 O 0.40675 0.84 0.8419 0.0
C109 C 0.47512 0.90646 0.91403 0.0
O110 O 0.49269 0.90289 0.9034 0.0
C111 C 0.4652 0.90677 0.83273 0.0
Zn112 Zn 0.53704 0.38545 0.3689 0.0
Zn113 Zn 0.54149 0.41819 0.40121 0.0
O114 O 0.5779 0.4253 0.39757 0.0
O115 O 0.57491 0.39931 0.3699 0.0
O116 O 0.54124 0.44407 0.42286 0.0
O117 O 0.52024 0.39896 0.34712 0.0
O118 O 0.52618 0.42722 0.37323 0.0
C119 C 0.58806 0.41587 0.38392 0.0
C120 C 0.51385 0.36229 0.41032 0.0
O121 O 0.52265 0.38463 0.41742 0.0
O122 O 0.51652 0.35768 0.38982 0.0
C123 C 0.54619 0.44644 0.44388 0.0
O124 O 0.55266 0.43053 0.45403 0.0
C125 C 0.5185 0.41836 0.3536 0.0
Zn126 Zn 0.18439 0.62798 0.84404 0.0
Zn127 Zn 0.11382 0.61102 0.8834 0.0
O128 O 0.13716 0.64864 0.88627 0.0
O129 O 0.15918 0.6362 0.86469 0.0
O130 O 0.08256 0.60151 0.90122 0.0
O131 O 0.14511 0.61453 0.84836 0.0
O132 O 0.10522 0.6019 0.8495 0.0
C133 C 0.157 0.65408 0.87501 0.0
C134 C 0.15205 0.59528 0.88672 0.0
O135 O 0.13179 0.59095 0.89674 0.0
O136 O 0.15742 0.60996 0.86974 0.0
C137 C 0.08411 0.60209 0.92268 0.0
O138 O 0.10618 0.61124 0.93213 0.0
C139 C 0.12439 0.60585 0.83774 0.0
Zn140 Zn 0.62399 0.18708 0.41698 0.0
Zn141 Zn 0.59434 0.1427 0.43266 0.0
O142 O 0.577 0.16477 0.44239 0.0
O143 O 0.60373 0.20225 0.43249 0.0
O144 O 0.57125 0.10934 0.4444 0.0
O145 O 0.61634 0.17386 0.38499 0.0
O146 O 0.59455 0.13642 0.39838 0.0
C147 C 0.58352 0.18808 0.44178 0.0
C148 C 0.64899 0.16704 0.44638 0.0
O149 O 0.62749 0.14935 0.44862 0.0
O150 O 0.65249 0.18502 0.43337 0.0
C151 C 0.56958 0.10537 0.46558 0.0
O152 O 0.58322 0.12331 0.47941 0.0
C153 C 0.60376 0.15086 0.38163 0.0
Zn154 Zn 0.38948 0.56248 0.86348 0.0
Zn155 Zn 0.40404 0.54934 0.90171 0.0
O156 O 0.36691 0.5395 0.90812 0.0
O157 O 0.35507 0.5501 0.87612 0.0
O158 O 0.41625 0.53776 0.92889 0.0
O159 O 0.39802 0.53921 0.84506 0.0
O160 O 0.41272 0.53028 0.87623 0.0
C161 C 0.35006 0.54103 0.89582 0.0
C162 C 0.42736 0.6036 0.88734 0.0
O163 O 0.42479 0.58707 0.90199 0.0
O164 O 0.41497 0.59776 0.8691 0.0
C165 C 0.43889 0.54157 0.92826 0.0
O166 O 0.45251 0.55363 0.91094 0.0
C167 C 0.40864 0.52769 0.85501 0.0
C168 C 0.61157 0.15714 0.3401 0.0
C169 C 0.60142 0.14084 0.35832 0.0
C170 C 0.61197 0.14804 0.31843 0.0
C171 C 0.62813 0.12458 0.28065 0.0
H172 H 0.57196 0.07413 0.24947 0.0
C173 C 0.64087 0.10341 0.18999 0.0
C174 C 0.62319 0.10517 0.17535 0.0
C175 C 0.63572 0.09893 0.21301 0.0
C176 C 0.58784 0.08812 0.25804 0.0
H177 H 0.58254 0.10208 0.36778 0.0
H178 H 0.58325 0.08615 0.32958 0.0
H179 H 0.56728 0.08548 0.28861 0.0
H180 H 0.58546 0.10114 0.17268 0.0
H181 H 0.57668 0.09426 0.21304 0.0
H182 H 0.64851 0.12836 0.25023 0.0
C183 C 0.59093 0.10599 0.33228 0.0
C184 C 0.58518 0.0945 0.28044 0.0
C185 C 0.59058 0.11514 0.35411 0.0
C186 C 0.59938 0.09979 0.18364 0.0
C187 C 0.59437 0.09583 0.20681 0.0
C188 C 0.63081 0.11822 0.25845 0.0
C189 C 0.60223 0.12241 0.31437 0.0
C190 C 0.60517 0.11331 0.29168 0.0
C191 C 0.61303 0.09684 0.22193 0.0
C192 C 0.6106 0.10029 0.24664 0.0
H193 H 0.61982 0.17703 0.34262 0.0
H194 H 0.62032 0.16114 0.30484 0.0
H195 H 0.64398 0.13886 0.28902 0.0
H196 H 0.6593 0.10722 0.18392 0.0
H197 H 0.65022 0.09901 0.22407 0.0
C198 C 0.39499 0.49575 0.68885 0.0
C199 C 0.41065 0.51429 0.67419 0.0
C200 C 0.4048 0.48757 0.70669 0.0
C201 C 0.45578 0.51534 0.74521 0.0
H202 H 0.41805 0.45345 0.77634 0.0
C203 C 0.44261 0.5192 0.83849 0.0
C204 C 0.41717 0.51238 0.84121 0.0
C205 C 0.45106 0.51045 0.81981 0.0
C206 C 0.4293 0.47069 0.76784 0.0
H207 H 0.44898 0.53722 0.66541 0.0
H208 H 0.46625 0.52317 0.69704 0.0
H209 H 0.41642 0.45496 0.73511 0.0
H210 H 0.38048 0.48918 0.82859 0.0
H211 H 0.39489 0.4735 0.79648 0.0
H212 H 0.46684 0.53163 0.77788 0.0
C213 C 0.44634 0.515 0.69468 0.0
C214 C 0.4283 0.47158 0.74423 0.0
C215 C 0.43646 0.52304 0.67659 0.0
C216 C 0.40019 0.49456 0.82678 0.0
C217 C 0.40854 0.48548 0.80844 0.0
C218 C 0.45684 0.51442 0.76878 0.0
C219 C 0.43054 0.49788 0.71044 0.0
C220 C 0.43982 0.49439 0.7329 0.0
C221 C 0.43407 0.49459 0.80389 0.0
C222 C 0.4419 0.49257 0.78039 0.0
H223 H 0.37502 0.4884 0.68723 0.0
H224 H 0.39199 0.47461 0.71858 0.0
H225 H 0.46504 0.5332 0.73707 0.0
H226 H 0.45599 0.53313 0.84941 0.0
H227 H 0.47082 0.5177 0.81677 0.0
C228 C 0.89703 0.38668 0.13877 0.0
C229 C 0.88003 0.36215 0.13415 0.0
C230 C 0.90679 0.39343 0.16061 0.0
C231 C 0.89818 0.40169 0.2103 0.0
H232 H 0.91039 0.3584 0.25244 0.0
C233 C 0.85107 0.37348 0.29517 0.0
C234 C 0.86456 0.37305 0.31448 0.0
C235 C 0.86261 0.3795 0.27413 0.0
C236 C 0.90766 0.3711 0.24091 0.0
H237 H 0.8619 0.32504 0.14783 0.0
H238 H 0.8791 0.33664 0.18565 0.0
H239 H 0.91588 0.35441 0.21178 0.0
H240 H 0.90076 0.37898 0.32714 0.0
H241 H 0.92089 0.38851 0.28971 0.0
H242 H 0.88789 0.41689 0.23925 0.0
C243 C 0.88487 0.35075 0.17264 0.0
C244 C 0.91066 0.36873 0.21766 0.0
C245 C 0.87482 0.34411 0.15102 0.0
C246 C 0.89001 0.37925 0.31245 0.0
C247 C 0.90149 0.38469 0.29116 0.0
C248 C 0.89494 0.40387 0.23347 0.0
C249 C 0.90006 0.37564 0.17795 0.0
C250 C 0.90469 0.38314 0.20209 0.0
C251 C 0.88779 0.38476 0.27184 0.0
C252 C 0.89843 0.38773 0.24883 0.0
H253 H 0.90133 0.40094 0.12604 0.0
H254 H 0.91851 0.41274 0.16426 0.0
H255 H 0.89329 0.41296 0.19875 0.0
H256 H 0.83147 0.36894 0.29628 0.0
H257 H 0.85155 0.37906 0.25944 0.0
C258 C 0.4518 0.93847 0.82008 0.0
C259 C 0.46992 0.92941 0.81994 0.0
C260 C 0.44982 0.95235 0.80184 0.0
C261 C 0.44183 0.97414 0.7587 0.0
H262 H 0.45473 0.94132 0.70698 0.0
C263 C 0.40374 0.93151 0.66378 0.0
C264 C 0.37941 0.91579 0.67044 0.0
C265 C 0.42053 0.94763 0.67941 0.0
C266 C 0.4514 0.95128 0.72099 0.0
H267 H 0.50271 0.93102 0.80303 0.0
H268 H 0.50098 0.95745 0.77237 0.0
H269 H 0.47719 0.9449 0.74143 0.0
H270 H 0.35277 0.90696 0.69782 0.0
H271 H 0.38205 0.93494 0.72505 0.0
H272 H 0.41374 0.97769 0.7383 0.0
C273 C 0.48704 0.95242 0.78551 0.0
C274 C 0.46449 0.95349 0.74103 0.0
C275 C 0.48839 0.93764 0.80329 0.0
C276 C 0.37148 0.91855 0.69225 0.0
C277 C 0.38822 0.93482 0.70781 0.0
C278 C 0.42828 0.97138 0.7387 0.0
C279 C 0.46635 0.95789 0.78339 0.0
C280 C 0.45881 0.96351 0.76069 0.0
C281 C 0.41324 0.94849 0.7019 0.0
C282 C 0.43206 0.9587 0.72009 0.0
H283 H 0.43729 0.93224 0.83277 0.0
H284 H 0.43365 0.95616 0.80127 0.0
H285 H 0.4376 0.98297 0.77306 0.0
H286 H 0.41039 0.93009 0.647 0.0
H287 H 0.43967 0.95812 0.67436 0.0
C288 C 0.4985 0.42079 0.3172 0.0
C289 C 0.51099 0.43243 0.3371 0.0
C290 C 0.49724 0.43488 0.29886 0.0
C291 C 0.54054 0.49067 0.27455 0.0
H292 H 0.49382 0.47044 0.22471 0.0
C293 C 0.58003 0.50064 0.18753 0.0
C294 C 0.56847 0.47891 0.1747 0.0
C295 C 0.56717 0.50585 0.20502 0.0
C296 C 0.50717 0.47639 0.2384 0.0
H297 H 0.52926 0.46775 0.35445 0.0
H298 H 0.52753 0.49244 0.32212 0.0
H299 H 0.4791 0.45764 0.2632 0.0
H300 H 0.53404 0.44674 0.16841 0.0
H301 H 0.51215 0.45448 0.19979 0.0
H302 H 0.56899 0.50683 0.25024 0.0
C303 C 0.51871 0.47241 0.32076 0.0
C304 C 0.49863 0.46928 0.26049 0.0
C305 C 0.5197 0.45826 0.33925 0.0
C306 C 0.54327 0.46366 0.17813 0.0
C307 C 0.53068 0.4683 0.19618 0.0
C308 C 0.54914 0.4973 0.25254 0.0
C309 C 0.50872 0.4609 0.29999 0.0
C310 C 0.51547 0.47515 0.27858 0.0
C311 C 0.54296 0.48867 0.2108 0.0
C312 C 0.5328 0.48888 0.23394 0.0
H313 H 0.4913 0.40087 0.31518 0.0
H314 H 0.48951 0.42543 0.28309 0.0
H315 H 0.55406 0.49543 0.28809 0.0
H316 H 0.59943 0.51283 0.1849 0.0
H317 H 0.57696 0.52237 0.21508 0.0
C318 C 0.16647 0.63124 0.63885 0.0
C319 C 0.1541 0.6123 0.62304 0.0
C320 C 0.15939 0.62823 0.66158 0.0
C321 C 0.13363 0.58259 0.70532 0.0
H322 H 0.1208 0.63305 0.73692 0.0
C323 C 0.14283 0.59936 0.80186 0.0
C324 C 0.12339 0.6022 0.81299 0.0
C325 C 0.14288 0.5974 0.77831 0.0
C326 C 0.12407 0.6187 0.72825 0.0
H327 H 0.12476 0.57528 0.61866 0.0
H328 H 0.11294 0.56975 0.65877 0.0
H329 H 0.12809 0.63637 0.69598 0.0
H330 H 0.08857 0.60488 0.80835 0.0
H331 H 0.0891 0.60224 0.76688 0.0
H332 H 0.13079 0.56556 0.73779 0.0
C333 C 0.12786 0.587 0.65335 0.0
C334 C 0.12837 0.62067 0.70492 0.0
C335 C 0.13459 0.59021 0.63047 0.0
C336 C 0.10375 0.60263 0.80017 0.0
C337 C 0.10407 0.6012 0.77652 0.0
C338 C 0.12981 0.58087 0.72873 0.0
C339 C 0.14014 0.60606 0.66905 0.0
C340 C 0.13347 0.60279 0.69332 0.0
C341 C 0.12373 0.59872 0.76541 0.0
C342 C 0.12527 0.59906 0.74042 0.0
H343 H 0.18149 0.64852 0.63363 0.0
H344 H 0.16927 0.6431 0.67343 0.0
H345 H 0.13765 0.56865 0.69673 0.0
H346 H 0.15813 0.59884 0.81136 0.0
H347 H 0.15834 0.5957 0.77012 0.0
C348 C 0.55235 0.06117 0.06639 0.0
C349 C 0.56482 0.08449 0.05615 0.0
C350 C 0.53762 0.04044 0.05347 0.0
C351 C 0.50694 0.02012 -0.00233 0.0
H352 H 0.52157 0.96343 0.00711 0.0
C353 C 0.46405 0.93174 0.94211 0.0
C354 C 0.48133 0.92359 0.9336 0.0
C355 C 0.47076 0.94953 0.95937 0.0
C356 C 0.51723 0.97908 0.00432 0.0
H357 H 0.57042 0.1046 0.02455 0.0
H358 H 0.54486 0.06841 0.00199 0.0
H359 H 0.53882 -0.00124 0.03281 0.0
H360 H 0.51888 0.92704 0.93704 0.0
H361 H 0.53051 0.95793 0.96712 0.0
H362 H 0.48614 0.00074 0.9686 0.0
C363 C 0.54636 0.06616 0.02003 0.0
C364 C 0.52689 -0.00078 0.01918 0.0
C365 C 0.56113 0.08689 0.03295 0.0
C366 C 0.50515 0.93296 0.94319 0.0
C367 C 0.51177 0.95055 0.96053 0.0
C368 C 0.49718 -0.0001 0.98285 0.0
C369 C 0.53498 0.0426 0.03004 0.0
C370 C 0.52227 0.02017 0.01576 0.0
C371 C 0.49478 0.95929 0.9686 0.0
C372 C 0.50268 0.97941 0.98575 0.0
H373 H 0.55462 0.0587 0.08427 0.0
H374 H 0.52876 0.02259 0.06172 0.0
H375 H 0.50289 0.03592 -0.00527 0.0
H376 H 0.44554 0.92486 0.93507 0.0
H377 H 0.45723 0.95578 0.96539 0.0
C378 C 0.46095 0.57413 0.53881 0.0
C379 C 0.45903 0.56909 0.56213 0.0
C380 C 0.47619 0.5673 0.52514 0.0
C381 C 0.52441 0.54275 0.52636 0.0
H382 H 0.49071 0.50861 0.47185 0.0
C383 C 0.54422 0.46698 0.48059 0.0
C384 C 0.54278 0.46605 0.45683 0.0
C385 C 0.53857 0.48415 0.49267 0.0
C386 C 0.50064 0.51843 0.48679 0.0
H387 H 0.47308 0.55464 0.58964 0.0
H388 H 0.49903 0.54227 0.56587 0.0
H389 H 0.47331 0.5316 0.49404 0.0
H390 H 0.53574 0.48339 0.42709 0.0
H391 H 0.52606 0.51323 0.44811 0.0
H392 H 0.5512 0.5285 0.5194 0.0
C393 C 0.48906 0.55171 0.55805 0.0
C394 C 0.49069 0.53173 0.49951 0.0
C395 C 0.47398 0.55867 0.57171 0.0
C396 C 0.53672 0.48337 0.4454 0.0
C397 C 0.53111 0.50046 0.45744 0.0
C398 C 0.5343 0.52927 0.51366 0.0
C399 C 0.48971 0.55516 0.53449 0.0
C400 C 0.50221 0.54375 0.51965 0.0
C401 C 0.53139 0.50067 0.48121 0.0
C402 C 0.52231 0.51668 0.4939 0.0
H403 H 0.4499 0.58238 0.53093 0.0
H404 H 0.4767 0.57076 0.50712 0.0
H405 H 0.53394 0.55206 0.54163 0.0
H406 H 0.54889 0.45395 0.4899 0.0
H407 H 0.53879 0.48376 0.511 0.0
C408 C 0.06394 0.58464 0.9597 0.0
C409 C 0.06173 0.58836 0.93648 0.0
C410 C 0.04364 0.56794 0.97188 0.0
C411 C 0.97565 0.53033 0.97062 0.0
H412 H 0.99145 0.48271 0.00341 0.0
C413 C 0.90069 0.43495 -0.00184 0.0
C414 C 0.90365 0.42564 0.01921 0.0
C415 C 0.9195 0.45654 0.98943 0.0
C416 C 0.9867 0.49602 -0.00532 0.0
H417 H 0.03597 0.57905 0.90828 0.0
H418 H 0.00058 0.5499 0.92955 0.0
H419 H 0.02464 0.51889 0.98682 0.0
H420 H 0.92854 0.43186 0.04774 0.0
H421 H 0.96108 0.46964 0.03272 0.0
H422 H 0.93762 0.50726 0.97834 0.0
C423 C 0.01801 0.55984 0.93833 0.0
C424 C 0.00576 0.51681 0.98519 0.0
C425 C 0.03834 0.57647 0.92612 0.0
C426 C 0.92576 0.4384 0.03137 0.0
C427 C 0.94447 0.46005 0.02272 0.0
C428 C 0.95654 0.50956 0.98025 0.0
C429 C 0.02069 0.55476 0.96112 0.0
C430 C 0.00044 0.53405 0.97287 0.0
C431 C 0.9416 0.46936 0.00162 0.0
C432 C 0.96184 0.49203 0.99219 0.0
H433 H 0.08164 0.59367 0.96825 0.0
H434 H 0.04611 0.56469 0.98954 0.0
H435 H 0.97103 0.54342 0.96134 0.0
H436 H 0.88387 0.42553 0.98837 0.0
H437 H 0.91684 0.46298 0.97296 0.0
C438 C 0.53669 0.06223 0.45976 0.0
C439 C 0.55189 0.08114 0.47453 0.0
C440 C 0.51919 0.03975 0.4683 0.0
C441 C 0.50158 0.0009 0.51984 0.0
H442 H 0.43523 0.9757 0.49468 0.0
C443 C 0.42123 0.91452 0.55655 0.0
C444 C 0.39953 0.91758 0.56091 0.0
C445 C 0.44 0.93154 0.54304 0.0
C446 C 0.45368 0.98248 0.50184 0.0
H447 H 0.56104 0.09108 0.50981 0.0
H448 H 0.53035 0.052 0.52469 0.0
H449 H 0.46858 0.01149 0.47739 0.0
H450 H 0.38002 0.94021 0.55368 0.0
H451 H 0.41274 0.9699 0.53033 0.0
H452 H 0.48645 0.97257 0.54489 0.0
C453 C 0.53214 0.05442 0.5065 0.0
C454 C 0.47284 0.00282 0.49181 0.0
C455 C 0.54961 0.0769 0.49798 0.0
C456 C 0.39654 0.93737 0.55072 0.0
C457 C 0.41523 0.9543 0.53718 0.0
C458 C 0.48243 0.98053 0.52985 0.0
C459 C 0.51657 0.03569 0.49177 0.0
C460 C 0.49689 0.01257 0.50099 0.0
C461 C 0.43736 0.95185 0.53354 0.0
C462 C 0.45817 0.97144 0.52124 0.0
H463 H 0.53808 0.06487 0.44159 0.0
H464 H 0.50765 0.02556 0.45653 0.0
H465 H 0.51999 0.00779 0.52711 0.0
H466 H 0.42405 0.89939 0.56408 0.0
H467 H 0.45673 0.92901 0.54031 0.0
C468 C 0.43475 0.51709 0.96374 0.0
C469 C 0.44941 0.53117 0.94575 0.0
C470 C 0.44456 0.5063 0.97955 0.0
C471 C 0.50407 0.51069 0.00214 0.0
H472 H 0.46478 0.44319 0.02193 0.0
C473 C 0.5474 0.45798 0.05359 0.0
C474 C 0.53427 0.44545 0.07289 0.0
C475 C 0.53612 0.4669 0.03751 0.0
C476 C 0.47589 0.46211 0.01668 0.0
H477 H 0.4859 0.54512 0.93036 0.0
H478 H 0.50286 0.52617 0.95773 0.0
H479 H 0.44691 0.46267 -0.00437 0.0
H480 H 0.49861 0.43139 0.08986 0.0
H481 H 0.47896 0.44706 0.06175 0.0
H482 H 0.53305 0.51017 0.02307 0.0
C483 C 0.4839 0.5237 0.95983 0.0
C484 C 0.46565 0.47329 0.00168 0.0
C485 C 0.47413 0.53447 0.94407 0.0
C486 C 0.50926 0.44101 0.0752 0.0
C487 C 0.49796 0.44992 0.05907 0.0
C488 C 0.51431 0.49951 0.01704 0.0
C489 C 0.46922 0.5094 0.9777 0.0
C490 C 0.47969 0.49768 0.99417 0.0
C491 C 0.51147 0.46346 0.04033 0.0
C492 C 0.50039 0.47506 0.02439 0.0
H493 H 0.41564 0.51422 0.96551 0.0
H494 H 0.43288 0.49564 0.9933 0.0
H495 H 0.51522 0.52965 -0.00299 0.0
H496 H 0.56663 0.46155 0.05119 0.0
H497 H 0.54686 0.47685 0.02301 0.0
C498 C 0.90503 0.4215 0.45901 0.0
C499 C 0.90279 0.41901 0.43534 0.0
C500 C 0.9272 0.43828 0.46887 0.0
C501 C 0.99392 0.47181 0.45662 0.0
H502 H 0.99431 0.51415 0.50672 0.0
C503 C 0.08306 0.55399 0.48584 0.0
C504 C 0.08709 0.55789 0.50924 0.0
C505 C 0.06031 0.53666 0.4776 0.0
C506 C 0.99448 0.50223 0.49291 0.0
H507 H 0.92188 0.43255 0.40346 0.0
H508 H 0.96031 0.46183 0.42064 0.0
H509 H 0.95482 0.48454 0.49099 0.0
H510 H 0.07034 0.54673 0.54238 0.0
H511 H 0.03061 0.51629 0.52795 0.0
H512 H 0.03349 0.48946 0.45843 0.0
C513 C 0.94511 0.45058 0.43159 0.0
C514 C 0.97188 0.48529 0.48392 0.0
C515 C 0.92301 0.43389 0.42175 0.0
C516 C 0.06781 0.54418 0.52424 0.0
C517 C 0.04501 0.52684 0.51599 0.0
C518 C 0.01646 0.48869 0.4656 0.0
C519 C 0.94754 0.45281 0.45525 0.0
C520 C 0.97139 0.4701 0.46552 0.0
C521 C 0.04106 0.52283 0.49258 0.0
C522 C 0.01701 0.50427 0.48369 0.0
H523 H 0.88979 0.41029 0.46993 0.0
H524 H 0.92859 0.43949 0.48716 0.0
H525 H 0.99413 0.45999 0.44274 0.0
H526 H 0.09749 0.56431 0.47382 0.0
H527 H 0.05771 0.53427 0.45946 0.0
C528 C 0.59116 0.19505 0.11319 0.0
C529 C 0.61627 0.20028 0.11647 0.0
C530 C 0.58297 0.21367 0.11603 0.0
C531 C 0.60185 0.27463 0.14419 0.0
H532 H 0.55354 0.28187 0.10466 0.0
C533 C 0.57709 0.35588 0.15771 0.0
C534 C 0.57689 0.36896 0.13806 0.0
C535 C 0.57564 0.33193 0.1562 0.0
C536 C 0.56707 0.28013 0.11585 0.0
H537 H 0.65262 0.22941 0.1242 0.0
H538 H 0.63855 0.26177 0.12855 0.0
H539 H 0.56488 0.24748 0.09876 0.0
H540 H 0.57321 0.36656 0.10151 0.0
H541 H 0.57163 0.32524 0.09875 0.0
H542 H 0.60528 0.3078 0.16052 0.0
C543 C 0.62498 0.2432 0.1245 0.0
C544 C 0.57339 0.26026 0.11259 0.0
C545 C 0.6331 0.22464 0.12183 0.0
C546 C 0.57338 0.35693 0.11698 0.0
C547 C 0.57239 0.33313 0.11542 0.0
C548 C 0.59571 0.29449 0.14734 0.0
C549 C 0.59975 0.23788 0.12211 0.0
C550 C 0.59127 0.25761 0.12644 0.0
C551 C 0.57451 0.32072 0.13495 0.0
C552 C 0.57854 0.29779 0.13301 0.0
H553 H 0.57772 0.17644 0.10906 0.0
H554 H 0.5634 0.20894 0.11412 0.0
H555 H 0.61528 0.27287 0.15551 0.0
H556 H 0.57943 0.36456 0.17423 0.0
H557 H 0.57652 0.32265 0.17167 0.0
C558 C 0.34333 0.53541 0.55643 0.0
C559 C 0.33845 0.51918 0.5748 0.0
C560 C 0.3244 0.53284 0.54127 0.0
C561 C 0.25673 0.5094 0.5459 0.0
H562 H 0.26695 0.54852 0.4914 0.0
C563 C 0.19179 0.55372 0.52644 0.0
C564 C 0.20563 0.57957 0.52693 0.0
C565 C 0.20356 0.53822 0.52235 0.0
C566 C 0.26361 0.53713 0.50639 0.0
H567 H 0.31148 0.48534 0.58977 0.0
H568 H 0.27895 0.47969 0.56237 0.0
H569 H 0.29724 0.53295 0.50206 0.0
H570 H 0.24191 0.60954 0.52105 0.0
H571 H 0.26234 0.58265 0.51379 0.0
H572 H 0.22372 0.51442 0.55072 0.0
C573 C 0.29682 0.49532 0.56034 0.0
C574 C 0.28106 0.52836 0.51264 0.0
C575 C 0.31552 0.49835 0.57591 0.0
C576 C 0.23085 0.58966 0.52105 0.0
C577 C 0.2425 0.57422 0.51664 0.0
C578 C 0.23916 0.51779 0.53945 0.0
C579 C 0.30038 0.51363 0.54394 0.0
C580 C 0.27867 0.51578 0.53329 0.0
C581 C 0.22925 0.54837 0.51831 0.0
C582 C 0.24319 0.53301 0.52041 0.0
H583 H 0.36089 0.55165 0.55519 0.0
H584 H 0.32813 0.5474 0.52897 0.0
H585 H 0.25402 0.49998 0.56198 0.0
H586 H 0.17229 0.54545 0.53083 0.0
H587 H 0.1929 0.51834 0.52367 0.0
C588 C 0.81968 0.29325 0.00963 0.0
C589 C 0.83101 0.29352 0.0305 0.0
C590 C 0.80617 0.27068 -0.00154 0.0
C591 C 0.78365 0.20166 0.00562 0.0
H592 H 0.71988 0.2042 0.00741 0.0
C593 C 0.6771 0.14774 0.04148 0.0
C594 C 0.68496 0.14448 0.06313 0.0
C595 C 0.69435 0.15712 0.02385 0.0
C596 C 0.73731 0.20274 0.00606 0.0
H597 H 0.84015 0.27153 0.05458 0.0
H598 H 0.81714 0.23252 0.03529 0.0
H599 H 0.75653 0.24124 -0.00118 0.0
H600 H 0.71591 0.14498 0.08257 0.0
H601 H 0.74576 0.16105 0.05219 0.0
H602 H 0.76436 0.16353 0.01515 0.0
C603 C 0.8184 0.24928 0.02722 0.0
C604 C 0.75856 0.22419 0.00107 0.0
C605 C 0.83163 0.2717 0.03841 0.0
C606 C 0.70945 0.14761 0.06608 0.0
C607 C 0.72655 0.15665 0.0485 0.0
C608 C 0.76235 0.18016 0.01065 0.0
C609 C 0.80387 0.24823 0.00811 0.0
C610 C 0.78218 0.22441 0.00278 0.0
C611 C 0.71959 0.1631 0.02762 0.0
C612 C 0.73926 0.18108 0.01286 0.0
H613 H 0.81882 0.3099 0.00334 0.0
H614 H 0.79553 0.27057 0.98357 0.0
H615 H 0.80151 0.20103 0.00637 0.0
H616 H 0.65826 0.14539 0.03874 0.0
H617 H 0.68834 0.16159 0.00788 0.0
C618 C 0.35282 0.77886 0.65046 0.0
C619 C 0.36353 0.79786 0.63443 0.0
C620 C 0.35992 0.7594 0.6516 0.0
C621 C 0.388 0.72613 0.61747 0.0
H622 H 0.39253 0.69813 0.67551 0.0
C623 C 0.38022 0.62793 0.65403 0.0
C624 C 0.39523 0.62255 0.63859 0.0
C625 C 0.38041 0.6514 0.65465 0.0
C626 C 0.39128 0.7057 0.65916 0.0
H627 H 0.39039 0.81137 0.60718 0.0
H628 H 0.40289 0.77745 0.60929 0.0
H629 H 0.38498 0.73518 0.67422 0.0
H630 H 0.42293 0.63802 0.61226 0.0
H631 H 0.42328 0.67916 0.6134 0.0
H632 H 0.39386 0.69637 0.60242 0.0
C633 C 0.38878 0.7775 0.62082 0.0
C634 C 0.38689 0.7269 0.65842 0.0
C635 C 0.38169 0.79701 0.61969 0.0
C636 C 0.41115 0.64154 0.62436 0.0
C637 C 0.41122 0.66505 0.62489 0.0
C638 C 0.39244 0.70493 0.61822 0.0
C639 C 0.37793 0.7584 0.63675 0.0
C640 C 0.38472 0.73712 0.63756 0.0
C641 C 0.39554 0.67011 0.6398 0.0
C642 C 0.39366 0.69419 0.63907 0.0
H643 H 0.33875 0.77886 0.66206 0.0
H644 H 0.35087 0.74482 0.66384 0.0
H645 H 0.38619 0.73333 0.60111 0.0
H646 H 0.36776 0.61378 0.66527 0.0
H647 H 0.36791 0.65455 0.66619 0.0
C648 C 0.66733 0.4667 0.07964 0.0
C649 C 0.6691 0.47187 0.10299 0.0
C650 C 0.68682 0.46436 0.06828 0.0
C651 C 0.7509 0.46844 0.07575 0.0
H652 H 0.72166 0.40313 0.04817 0.0
C653 C 0.77087 0.37758 0.07296 0.0
C654 C 0.79602 0.38743 0.0669 0.0
C655 C 0.75752 0.39178 0.07087 0.0
C656 C 0.73016 0.42148 0.05565 0.0
H657 H 0.69392 0.48218 0.1319 0.0
H658 H 0.72755 0.47786 0.11231 0.0
H659 H 0.69595 0.42477 0.05555 0.0
H660 H 0.82677 0.41981 0.05341 0.0
H661 H 0.80336 0.44476 0.04998 0.0
H662 H 0.78474 0.46417 0.07729 0.0
C663 C 0.71125 0.47547 0.10265 0.0
C664 C 0.71551 0.4341 0.0596 0.0
C665 C 0.69182 0.4778 0.11399 0.0
C666 C 0.80741 0.41169 0.05826 0.0
C667 C 0.79406 0.426 0.05634 0.0
C668 C 0.76559 0.45578 0.07178 0.0
C669 C 0.70838 0.46723 0.08005 0.0
C670 C 0.72543 0.45726 0.0706 0.0
C671 C 0.769 0.41623 0.06276 0.0
C672 C 0.75506 0.43171 0.0626 0.0
H673 H 0.65018 0.4623 0.07058 0.0
H674 H 0.68428 0.45856 0.0507 0.0
H675 H 0.75917 0.48639 0.08398 0.0
H676 H 0.76151 0.35897 0.07962 0.0
H677 H 0.73835 0.38385 0.07632 0.0
C678 C 0.15593 0.69165 0.53881 0.0
C679 C 0.16557 0.67929 0.52437 0.0
C680 C 0.16227 0.71682 0.53567 0.0
C681 C 0.21883 0.76733 0.51494 0.0
H682 H 0.19368 0.80462 0.55276 0.0
C683 C 0.25795 0.82942 0.59451 0.0
C684 C 0.28265 0.84276 0.58749 0.0
C685 C 0.23907 0.8186 0.57857 0.0
C686 C 0.20092 0.79465 0.54183 0.0
H687 H 0.18603 0.68195 0.49353 0.0
H688 H 0.19555 0.72542 0.48689 0.0
H689 H 0.16483 0.76549 0.5359 0.0
H690 H 0.30636 0.85807 0.55829 0.0
H691 H 0.27332 0.8392 0.53049 0.0
H692 H 0.25488 0.79549 0.52182 0.0
C693 C 0.18416 0.71626 0.50132 0.0
C694 C 0.18439 0.77215 0.53222 0.0
C695 C 0.17843 0.69125 0.50487 0.0
C696 C 0.28759 0.84746 0.56427 0.0
C697 C 0.26866 0.83667 0.54831 0.0
C698 C 0.23522 0.78985 0.52428 0.0
C699 C 0.17821 0.72992 0.51787 0.0
C700 C 0.19336 0.75725 0.52015 0.0
C701 C 0.24446 0.82092 0.55527 0.0
C702 C 0.22664 0.80284 0.53919 0.0
H703 H 0.14616 0.68275 0.55409 0.0
H704 H 0.15709 0.72637 0.54882 0.0
H705 H 0.22679 0.75673 0.50579 0.0
H706 H 0.25343 0.82575 0.61228 0.0
H707 H 0.22069 0.80652 0.58461 0.0
C708 C 0.78997 0.41018 0.39251 0.0
C709 C 0.78181 0.38436 0.39371 0.0
C710 C 0.77305 0.42061 0.39509 0.0
C711 C 0.71116 0.40872 0.4168 0.0
H712 H 0.70488 0.44419 0.36405 0.0
C713 C 0.62714 0.41643 0.36797 0.0
C714 C 0.61489 0.42242 0.38567 0.0
C715 C 0.65146 0.41926 0.37076 0.0
C716 C 0.70663 0.43463 0.37903 0.0
H717 H 0.75008 0.34939 0.39984 0.0
H718 H 0.72083 0.36761 0.40496 0.0
H719 H 0.7408 0.43467 0.36767 0.0
H720 H 0.61896 0.43728 0.41977 0.0
H721 H 0.66139 0.44174 0.42478 0.0
H722 H 0.67649 0.40765 0.4277 0.0
C723 C 0.74014 0.37978 0.40181 0.0
C724 C 0.72723 0.42935 0.38118 0.0
C725 C 0.75684 0.36934 0.39874 0.0
C726 C 0.6279 0.4325 0.40582 0.0
C727 C 0.65214 0.43498 0.40873 0.0
C728 C 0.69076 0.4143 0.41482 0.0
C729 C 0.74793 0.40543 0.3995 0.0
C730 C 0.72919 0.41555 0.39968 0.0
C731 C 0.66393 0.42785 0.3914 0.0
C732 C 0.68785 0.42652 0.39552 0.0
H733 H 0.80911 0.42214 0.38855 0.0
H734 H 0.77947 0.44045 0.39322 0.0
H735 H 0.7123 0.39812 0.43125 0.0
H736 H 0.61765 0.40874 0.35221 0.0
H737 H 0.65999 0.4134 0.35718 0.0
C738 C 0.35742 0.83169 0.88232 0.0
C739 C 0.36923 0.83012 0.86214 0.0
C740 C 0.33178 0.8181 0.88487 0.0
C741 C 0.27394 0.78197 0.85231 0.0
H742 H 0.25222 0.74344 0.90737 0.0
C743 C 0.19346 0.68603 0.85558 0.0
C744 C 0.17707 0.67935 0.87402 0.0
C745 C 0.21383 0.70905 0.85506 0.0
C746 C 0.25785 0.75448 0.89211 0.0
H747 H 0.3632 0.8136 0.82859 0.0
H748 H 0.31886 0.78978 0.83314 0.0
H749 H 0.29447 0.77589 0.90481 0.0
H750 H 0.16864 0.69165 0.90613 0.0
H751 H 0.20499 0.73206 0.90551 0.0
H752 H 0.23774 0.75949 0.83917 0.0
C753 C 0.32922 0.80174 0.84691 0.0
C754 C 0.28206 0.77308 0.89062 0.0
C755 C 0.35476 0.81526 0.84438 0.0
C756 C 0.18102 0.69643 0.8917 0.0
C757 C 0.20178 0.71943 0.89138 0.0
C758 C 0.24984 0.76329 0.85375 0.0
C759 C 0.31744 0.80275 0.86726 0.0
C760 C 0.29064 0.7864 0.87038 0.0
C761 C 0.21847 0.72581 0.87312 0.0
C762 C 0.24186 0.74879 0.87336 0.0
H763 H 0.36802 0.84306 0.89631 0.0
H764 H 0.32323 0.81943 0.90068 0.0
H765 H 0.27979 0.7923 0.83668 0.0
H766 H 0.19075 0.67328 0.84164 0.0
H767 H 0.22654 0.71332 0.84091 0.0
C768 C 0.57745 0.22343 0.45854 0.0
C769 C 0.5671 0.19888 0.45056 0.0
C770 C 0.56235 0.23536 0.46336 0.0
C771 C 0.50887 0.23806 0.43995 0.0
H772 H 0.51823 0.28608 0.4876 0.0
C773 C 0.48651 0.31849 0.41999 0.0
C774 C 0.50539 0.34146 0.42635 0.0
C775 C 0.48413 0.29679 0.43081 0.0
C776 C 0.51538 0.27284 0.4741 0.0
H777 H 0.53279 0.16706 0.44257 0.0
H778 H 0.50631 0.18838 0.45022 0.0
H779 H 0.53416 0.25489 0.49246 0.0
H780 H 0.53502 0.36021 0.45028 0.0
H781 H 0.53203 0.32262 0.46824 0.0
H782 H 0.49257 0.25707 0.42048 0.0
C783 C 0.52609 0.19815 0.4531 0.0
C784 C 0.52431 0.25481 0.47703 0.0
C785 C 0.54121 0.18598 0.44875 0.0
C786 C 0.52018 0.3427 0.44517 0.0
C787 C 0.51837 0.32095 0.45551 0.0
C788 C 0.50044 0.25634 0.4368 0.0
C789 C 0.53663 0.22316 0.45986 0.0
C790 C 0.52196 0.23788 0.4596 0.0
C791 C 0.5013 0.29755 0.44752 0.0
C792 C 0.50453 0.27472 0.45342 0.0
H793 H 0.59736 0.23374 0.46021 0.0
H794 H 0.57101 0.25472 0.46829 0.0
H795 H 0.50703 0.22541 0.42613 0.0
H796 H 0.47475 0.31713 0.40559 0.0
H797 H 0.47001 0.27929 0.42481 0.0
C798 C 0.19418 0.59632 0.88834 0.0
C799 C 0.16914 0.58501 0.89474 0.0
C800 C 0.21068 0.58714 0.8961 0.0
C801 C 0.21501 0.5313 0.91226 0.0
H802 H 0.28031 0.57697 0.93323 0.0
C803 C 0.32148 0.54106 0.92682 0.0
C804 C 0.32495 0.53444 0.9047 0.0
C805 C 0.29876 0.54093 0.93305 0.0
C806 C 0.262 0.56376 0.92798 0.0
H807 H 0.14163 0.55517 0.91423 0.0
H808 H 0.17059 0.5385 0.92725 0.0
H809 H 0.24764 0.59104 0.92981 0.0
H810 H 0.30697 0.52004 0.87259 0.0
H811 H 0.26737 0.51931 0.88351 0.0
H812 H 0.22993 0.5045 0.90892 0.0
C813 C 0.17736 0.55471 0.91649 0.0
C814 C 0.2434 0.57191 0.92581 0.0
C815 C 0.16087 0.56423 0.90904 0.0
C816 C 0.30475 0.52533 0.88972 0.0
C817 C 0.282 0.52476 0.89605 0.0
C818 C 0.23375 0.52319 0.91418 0.0
C819 C 0.20244 0.56622 0.91017 0.0
C820 C 0.22007 0.55606 0.91707 0.0
C821 C 0.27914 0.53372 0.91737 0.0
C822 C 0.25771 0.53967 0.92119 0.0
H823 H 0.20112 0.61246 0.87748 0.0
H824 H 0.22986 0.59613 0.89073 0.0
H825 H 0.19716 0.51873 0.90547 0.0
H826 H 0.33685 0.54825 0.93862 0.0
H827 H 0.29698 0.54783 0.94962 0.0
C828 C 0.68816 0.16279 0.44449 0.0
C829 C 0.67066 0.16668 0.45772 0.0
C830 C 0.71259 0.17122 0.45193 0.0
C831 C 0.7528 0.226 0.48235 0.0
H832 H 0.80159 0.20988 0.45187 0.0
C833 C 0.8204 0.27338 0.41022 0.0
C834 C 0.82917 0.29811 0.41742 0.0
C835 C 0.81143 0.25413 0.42589 0.0
C836 C 0.78841 0.21463 0.46093 0.0
H837 H 0.66383 0.17987 0.48994 0.0
H838 H 0.70663 0.19437 0.50332 0.0
H839 H 0.76166 0.17674 0.46243 0.0
H840 H 0.83862 0.3223 0.44678 0.0
H841 H 0.82266 0.28854 0.47428 0.0
H842 H 0.77843 0.26387 0.47916 0.0
C843 C 0.70164 0.185 0.4871 0.0
C844 C 0.76549 0.19563 0.46695 0.0
C845 C 0.67711 0.17655 0.47958 0.0
C846 C 0.83172 0.30336 0.44074 0.0
C847 C 0.82252 0.28403 0.45648 0.0
C848 C 0.77569 0.24492 0.47643 0.0
C849 C 0.72003 0.18404 0.47266 0.0
C850 C 0.74665 0.20135 0.47587 0.0
C851 C 0.81082 0.25921 0.4491 0.0
C852 C 0.79285 0.23958 0.46387 0.0
H853 H 0.68353 0.15543 0.42746 0.0
H854 H 0.72606 0.17018 0.44018 0.0
H855 H 0.73897 0.23128 0.48936 0.0
H856 H 0.81858 0.2688 0.39234 0.0
H857 H 0.80256 0.23533 0.41946 0.0
C858 C 0.45322 0.64648 0.87375 0.0
C859 C 0.44368 0.62995 0.89188 0.0
C860 C 0.46611 0.67187 0.87771 0.0
C861 C 0.4998 0.72488 0.89137 0.0
H862 H 0.45754 0.74939 0.92259 0.0
C863 C 0.47958 0.81795 0.90179 0.0
C864 C 0.48122 0.82363 0.87859 0.0
C865 C 0.4842 0.79811 0.90947 0.0
C866 C 0.47011 0.74313 0.91442 0.0
H867 H 0.44102 0.62686 0.92845 0.0
H868 H 0.46301 0.67163 0.93536 0.0
H869 H 0.44863 0.70574 0.92509 0.0
H870 H 0.49155 0.8148 0.84569 0.0
H871 H 0.4992 0.78038 0.85883 0.0
H872 H 0.52071 0.76204 0.87991 0.0
C873 C 0.46073 0.66476 0.91811 0.0
C874 C 0.46492 0.71802 0.91581 0.0
C875 C 0.44823 0.63921 0.91415 0.0
C876 C 0.48984 0.81071 0.86364 0.0
C877 C 0.49448 0.79103 0.87127 0.0
C878 C 0.5052 0.75006 0.89019 0.0
C879 C 0.46939 0.68134 0.89988 0.0
C880 C 0.47895 0.70846 0.90336 0.0
C881 C 0.49064 0.78374 0.8941 0.0
C882 C 0.48958 0.75922 0.90066 0.0
H883 H 0.45011 0.63985 0.85641 0.0
H884 H 0.47229 0.68422 0.86331 0.0
H885 H 0.51112 0.71801 0.88186 0.0
H886 H 0.4731 0.82767 0.91375 0.0
H887 H 0.48148 0.79325 0.92724 0.0
loop_
_geom_bond_atom_site_label_1
_geom_bond_atom_site_label_2
_geom_bond_distance
_geom_bond_site_symmetry_2
_ccdc_geom_bond_type
Zn0 O3 2.031 . S
Zn0 O5 2.049 . S
Zn0 O10 2.067 . S
Zn1 O2 1.962 . S
Zn1 O4 1.986 . S
Zn1 O6 1.996 . S
Zn1 O9 1.943 . S
O2 Zn1 1.962 . S
O2 C7 1.254 . S
O3 Zn0 2.031 . S
O3 C7 1.269 . S
O4 Zn1 1.986 . S
O4 C11 1.262 . S
O5 Zn0 2.049 . S
O5 C13 1.260 . S
O6 Zn1 1.996 . S
O6 C13 1.257 . S
C7 O2 1.254 . S
C7 O3 1.269 . S
C8 O9 1.249 . S
C8 O10 1.270 . S
O9 Zn1 1.943 . S
O9 C8 1.249 . S
O10 Zn0 2.067 . S
O10 C8 1.270 . S
C11 O4 1.262 . S
C11 O12 1.232 . S
O12 C11 1.232 . S
C13 O5 1.260 . S
C13 O6 1.257 . S
Zn14 O17 2.031 . S
Zn14 O19 2.049 . S
Zn14 O24 2.067 . S
Zn15 O16 1.962 . S
Zn15 O18 1.986 . S
Zn15 O20 1.996 . S
Zn15 O23 1.943 . S
O16 Zn15 1.962 . S
O16 C21 1.254 . S
O17 Zn14 2.031 . S
O17 C21 1.269 . S
O18 Zn15 1.986 . S
O18 C25 1.262 . S
O19 Zn14 2.049 . S
O19 C27 1.260 . S
O20 Zn15 1.996 . S
O20 C27 1.257 . S
C21 O16 1.254 . S
C21 O17 1.269 . S
C22 O23 1.249 . S
C22 O24 1.270 . S
O23 Zn15 1.943 . S
O23 C22 1.249 . S
O24 Zn14 2.067 . S
O24 C22 1.270 . S
C25 O18 1.262 . S
C25 O26 1.232 . S
O26 C25 1.232 . S
C27 O19 1.260 . S
C27 O20 1.257 . S
Zn28 O31 2.031 . S
Zn28 O33 2.049 . S
Zn28 O38 2.067 . S
Zn29 O30 1.962 . S
Zn29 O32 1.986 . S
Zn29 O34 1.996 . S
Zn29 O37 1.943 . S
O30 Zn29 1.962 . S
O30 C35 1.254 . S
O31 Zn28 2.031 . S
O31 C35 1.269 . S
O32 Zn29 1.986 . S
O32 C39 1.262 . S
O33 Zn28 2.049 . S
O33 C41 1.260 . S
O34 Zn29 1.996 . S
O34 C41 1.257 . S
C35 O30 1.254 . S
C35 O31 1.269 . S
C36 O37 1.249 . S
C36 O38 1.270 . S
O37 Zn29 1.943 . S
O37 C36 1.249 . S
O38 Zn28 2.067 . S
O38 C36 1.270 . S
C39 O32 1.262 . S
C39 O40 1.232 . S
O40 C39 1.232 . S
C41 O33 1.260 . S
C41 O34 1.257 . S
Zn42 O45 2.031 . S
Zn42 O47 2.049 . S
Zn42 O52 2.067 . S
Zn43 O44 1.962 . S
Zn43 O46 1.986 . S
Zn43 O48 1.996 . S
Zn43 O51 1.943 . S
O44 Zn43 1.962 . S
O44 C49 1.254 . S
O45 Zn42 2.031 . S
O45 C49 1.269 . S
O46 Zn43 1.986 . S
O46 C53 1.262 . S
O47 Zn42 2.049 . S
O47 C55 1.260 . S
O48 Zn43 1.996 . S
O48 C55 1.257 . S
C49 O44 1.254 . S
C49 O45 1.269 . S
C50 O51 1.249 . S
C50 O52 1.270 . S
O51 Zn43 1.943 . S
O51 C50 1.249 . S
O52 Zn42 2.067 . S
O52 C50 1.270 . S
C53 O46 1.262 . S
C53 O54 1.232 . S
O54 C53 1.232 . S
C55 O47 1.260 . S
C55 O48 1.257 . S
Zn56 O59 2.031 . S
Zn56 O61 2.049 . S
Zn56 O66 2.067 . S
Zn57 O58 1.962 . S
Zn57 O60 1.986 . S
Zn57 O62 1.996 . S
Zn57 O65 1.943 . S
O58 Zn57 1.962 . S
O58 C63 1.254 . S
O59 Zn56 2.031 . S
O59 C63 1.269 . S
O60 Zn57 1.986 . S
O60 C67 1.262 . S
O61 Zn56 2.049 . S
O61 C69 1.260 . S
O62 Zn57 1.996 . S
O62 C69 1.257 . S
C63 O58 1.254 . S
C63 O59 1.269 . S
C64 O65 1.249 . S
C64 O66 1.270 . S
O65 Zn57 1.943 . S
O65 C64 1.249 . S
O66 Zn56 2.067 . S
O66 C64 1.270 . S
C67 O60 1.262 . S
C67 O68 1.232 . S
O68 C67 1.232 . S
C69 O61 1.260 . S
C69 O62 1.257 . S
Zn70 O73 2.031 . S
Zn70 O75 2.049 . S
Zn70 O80 2.067 . S
Zn71 O72 1.962 . S
Zn71 O74 1.986 . S
Zn71 O76 1.996 . S
Zn71 O79 1.943 . S
O72 Zn71 1.962 . S
O72 C77 1.254 . S
O73 Zn70 2.031 . S
O73 C77 1.269 . S
O74 Zn71 1.986 . S
O74 C81 1.262 . S
O75 Zn70 2.049 . S
O75 C83 1.260 . S
O76 Zn71 1.996 . S
O76 C83 1.257 . S
C77 O72 1.254 . S
C77 O73 1.269 . S
C78 O79 1.249 . S
C78 O80 1.270 . S
O79 Zn71 1.943 . S
O79 C78 1.249 . S
O80 Zn70 2.067 . S
O80 C78 1.270 . S
C81 O74 1.262 . S
C81 O82 1.232 . S
O82 C81 1.232 . S
C83 O75 1.260 . S
C83 O76 1.257 . S
Zn84 O87 2.031 . S
Zn84 O89 2.049 . S
Zn84 O94 2.067 . S
Zn85 O86 1.962 . S
Zn85 O88 1.986 . S
Zn85 O90 1.996 . S
Zn85 O93 1.943 . S
O86 Zn85 1.962 . S
O86 C91 1.254 . S
O87 Zn84 2.031 . S
O87 C91 1.269 . S
O88 Zn85 1.986 . S
O88 C95 1.262 . S
O89 Zn84 2.049 . S
O89 C97 1.260 . S
O90 Zn85 1.996 . S
O90 C97 1.257 . S
C91 O86 1.254 . S
C91 O87 1.269 . S
C92 O93 1.249 . S
C92 O94 1.270 . S
O93 Zn85 1.943 . S
O93 C92 1.249 . S
O94 Zn84 2.067 . S
O94 C92 1.270 . S
C95 O88 1.262 . S
C95 O96 1.232 . S
O96 C95 1.232 . S
C97 O89 1.260 . S
C97 O90 1.257 . S
Zn98 O101 2.031 . S
Zn98 O103 2.049 . S
Zn98 O108 2.067 . S
Zn99 O100 1.962 . S
Zn99 O102 1.986 . S
Zn99 O104 1.996 . S
Zn99 O107 1.943 . S
O100 Zn99 1.962 . S
O100 C105 1.254 . S
O101 Zn98 2.031 . S
O101 C105 1.269 . S
O102 Zn99 1.986 . S
O102 C109 1.262 . S
O103 Zn98 2.049 . S
O103 C111 1.260 . S
O104 Zn99 1.996 . S
O104 C111 1.257 . S
C105 O100 1.254 . S
C105 O101 1.269 . S
C106 O107 1.249 . S
C106 O108 1.270 . S
O107 Zn99 1.943 . S
O107 C106 1.249 . S
O108 Zn98 2.067 . S
O108 C106 1.270 . S
C109 O102 1.262 . S
C109 O110 1.232 . S
O110 C109 1.232 . S
C111 O103 1.260 . S
C111 O104 1.257 . S
Zn112 O115 2.031 . S
Zn112 O117 2.049 . S
Zn112 O122 2.067 . S
Zn113 O114 1.962 . S
Zn113 O116 1.986 . S
Zn113 O118 1.996 . S
Zn113 O121 1.943 . S
O114 Zn113 1.962 . S
O114 C119 1.254 . S
O115 Zn112 2.031 . S
O115 C119 1.269 . S
O116 Zn113 1.986 . S
O116 C123 1.262 . S
O117 Zn112 2.049 . S
O117 C125 1.260 . S
O118 Zn113 1.996 . S
O118 C125 1.257 . S
C119 O114 1.254 . S
C119 O115 1.269 . S
C120 O121 1.249 . S
C120 O122 1.270 . S
O121 Zn113 1.943 . S
O121 C120 1.249 . S
O122 Zn112 2.067 . S
O122 C120 1.270 . S
C123 O116 1.262 . S
C123 O124 1.232 . S
O124 C123 1.232 . S
C125 O117 1.260 . S
C125 O118 1.257 . S
Zn126 O129 2.031 . S
Zn126 O131 2.049 . S
Zn126 O136 2.067 . S
Zn127 O128 1.962 . S
Zn127 O130 1.986 . S
Zn127 O132 1.996 . S
Zn127 O135 1.943 . S
O128 Zn127 1.962 . S
O128 C133 1.254 . S
O129 Zn126 2.031 . S
O129 C133 1.269 . S
O130 Zn127 1.986 . S
O130 C137 1.262 . S
O131 Zn126 2.049 . S
O131 C139 1.260 . S
O132 Zn127 1.996 . S
O132 C139 1.257 . S
C133 O128 1.254 . S
C133 O129 1.269 . S
C134 O135 1.249 . S
C134 O136 1.270 . S
O135 Zn127 1.943 . S
O135 C134 1.249 . S
O136 Zn126 2.067 . S
O136 C134 1.270 . S
C137 O130 1.262 . S
C137 O138 1.232 . S
O138 C137 1.232 . S
C139 O131 1.260 . S
C139 O132 1.257 . S
Zn140 O143 2.031 . S
Zn140 O145 2.049 . S
Zn140 O150 2.067 . S
Zn141 O142 1.962 . S
Zn141 O144 1.986 . S
Zn141 O146 1.996 . S
Zn141 O149 1.943 . S
O142 Zn141 1.962 . S
O142 C147 1.254 . S
O143 Zn140 2.031 . S
O143 C147 1.269 . S
O144 Zn141 1.986 . S
O144 C151 1.262 . S
O145 Zn140 2.049 . S
O145 C153 1.260 . S
O146 Zn141 1.996 . S
O146 C153 1.257 . S
C147 O142 1.254 . S
C147 O143 1.269 . S
C148 O149 1.249 . S
C148 O150 1.270 . S
O149 Zn141 1.943 . S
O149 C148 1.249 . S
O150 Zn140 2.067 . S
O150 C148 1.270 . S
C151 O144 1.262 . S
C151 O152 1.232 . S
O152 C151 1.232 . S
C153 O145 1.260 . S
C153 O146 1.257 . S
Zn154 O157 2.031 . S
Zn154 O159 2.049 . S
Zn154 O164 2.067 . S
Zn155 O156 1.962 . S
Zn155 O158 1.986 . S
Zn155 O160 1.996 . S
Zn155 O163 1.943 . S
O156 Zn155 1.962 . S
O156 C161 1.254 . S
O157 Zn154 2.031 . S
O157 C161 1.269 . S
O158 Zn155 1.986 . S
O158 C165 1.262 . S
O159 Zn154 2.049 . S
O159 C167 1.260 . S
O160 Zn155 1.996 . S
O160 C167 1.257 . S
C161 O156 1.254 . S
C161 O157 1.269 . S
C162 O163 1.249 . S
C162 O164 1.270 . S
O163 Zn155 1.943 . S
O163 C162 1.249 . S
O164 Zn154 2.067 . S
O164 C162 1.270 . S
C165 O158 1.262 . S
C165 O166 1.232 . S
O166 C165 1.232 . S
C167 O159 1.260 . S
C167 O160 1.257 . S
C168 C169 1.349 . S
C168 C170 1.327 . S
C168 H193 0.950 . S
C169 C168 1.349 . S
C169 C185 1.349 . S
C170 C168 1.327 . S
C170 C189 1.429 . S
C170 H194 0.950 . S
C171 C188 1.574 . S
C171 C190 1.368 . S
C171 H195 0.949 . S
H172 C176 0.949 . S
C173 C174 1.349 . S
C173 C175 1.327 . S
C173 H196 0.950 . S
C174 C173 1.349 . S
C174 C186 1.349 . S
C175 C173 1.327 . S
C175 C191 1.429 . S
C175 H197 0.950 . S
C176 H172 0.949 . S
C176 C184 1.574 . S
C176 C192 1.368 . S
H177 C185 0.950 . S
H178 C183 0.950 . S
H179 C184 0.949 . S
H180 C186 0.950 . S
H181 C187 0.950 . S
H182 C188 0.949 . S
C183 H178 0.950 . S
C183 C185 1.327 . S
C183 C189 1.429 . S
C184 C176 1.574 . S
C184 H179 0.949 . S
C184 C190 1.368 . S
C185 C169 1.349 . S
C185 H177 0.950 . S
C185 C183 1.327 . S
C186 C174 1.349 . S
C186 H180 0.950 . S
C186 C187 1.327 . S
C187 H181 0.950 . S
C187 C186 1.327 . S
C187 C191 1.429 . S
C188 C171 1.574 . S
C188 H182 0.949 . S
C188 C192 1.368 . S
C189 C170 1.429 . S
C189 C183 1.429 . S
C189 C190 1.523 . S
C190 C171 1.368 . S
C190 C184 1.368 . S
C190 C189 1.523 . S
C191 C175 1.429 . S
C191 C187 1.429 . S
C191 C192 1.523 . S
C192 C176 1.368 . S
C192 C188 1.368 . S
C192 C191 1.523 . S
H193 C168 0.950 . S
H194 C170 0.950 . S
H195 C171 0.949 . S
H196 C173 0.950 . S
H197 C175 0.950 . S
C198 C199 1.349 . S
C198 C200 1.327 . S
C198 H223 0.950 . S
C199 C198 1.349 . S
C199 C215 1.349 . S
C200 C198 1.327 . S
C200 C219 1.429 . S
C200 H224 0.950 . S
C201 C218 1.574 . S
C201 C220 1.368 . S
C201 H225 0.949 . S
H202 C206 0.949 . S
C203 C204 1.349 . S
C203 C205 1.327 . S
C203 H226 0.950 . S
C204 C203 1.349 . S
C204 C216 1.349 . S
C205 C203 1.327 . S
C205 C221 1.429 . S
C205 H227 0.950 . S
C206 H202 0.949 . S
C206 C214 1.574 . S
C206 C222 1.368 . S
H207 C215 0.950 . S
H208 C213 0.950 . S
H209 C214 0.949 . S
H210 C216 0.950 . S
H211 C217 0.950 . S
H212 C218 0.949 . S
C213 H208 0.950 . S
C213 C215 1.327 . S
C213 C219 1.429 . S
C214 C206 1.574 . S
C214 H209 0.949 . S
C214 C220 1.368 . S
C215 C199 1.349 . S
C215 H207 0.950 . S
C215 C213 1.327 . S
C216 C204 1.349 . S
C216 H210 0.950 . S
C216 C217 1.327 . S
C217 H211 0.950 . S
C217 C216 1.327 . S
C217 C221 1.429 . S
C218 C201 1.574 . S
C218 H212 0.949 . S
C218 C222 1.368 . S
C219 C200 1.429 . S
C219 C213 1.429 . S
C219 C220 1.523 . S
C220 C201 1.368 . S
C220 C214 1.368 . S
C220 C219 1.523 . S
C221 C205 1.429 . S
C221 C217 1.429 . S
C221 C222 1.523 . S
C222 C206 1.368 . S
C222 C218 1.368 . S
C222 C221 1.523 . S
H223 C198 0.950 . S
H224 C200 0.950 . S
H225 C201 0.949 . S
H226 C203 0.950 . S
H227 C205 0.950 . S
C228 C229 1.349 . S
C228 C230 1.327 . S
C228 H253 0.950 . S
C229 C228 1.349 . S
C229 C245 1.349 . S
C230 C228 1.327 . S
C230 C249 1.429 . S
C230 H254 0.950 . S
C231 C248 1.574 . S
C231 C250 1.368 . S
C231 H255 0.949 . S
H232 C236 0.949 . S
C233 C234 1.349 . S
C233 C235 1.327 . S
C233 H256 0.950 . S
C234 C233 1.349 . S
C234 C246 1.349 . S
C235 C233 1.327 . S
C235 C251 1.429 . S
C235 H257 0.950 . S
C236 H232 0.949 . S
C236 C244 1.574 . S
C236 C252 1.368 . S
H237 C245 0.950 . S
H238 C243 0.950 . S
H239 C244 0.949 . S
H240 C246 0.950 . S
H241 C247 0.950 . S
H242 C248 0.949 . S
C243 H238 0.950 . S
C243 C245 1.327 . S
C243 C249 1.429 . S
C244 C236 1.574 . S
C244 H239 0.949 . S
C244 C250 1.368 . S
C245 C229 1.349 . S
C245 H237 0.950 . S
C245 C243 1.327 . S
C246 C234 1.349 . S
C246 H240 0.950 . S
C246 C247 1.327 . S
C247 H241 0.950 . S
C247 C246 1.327 . S
C247 C251 1.429 . S
C248 C231 1.574 . S
C248 H242 0.949 . S
C248 C252 1.368 . S
C249 C230 1.429 . S
C249 C243 1.429 . S
C249 C250 1.523 . S
C250 C231 1.368 . S
C250 C244 1.368 . S
C250 C249 1.523 . S
C251 C235 1.429 . S
C251 C247 1.429 . S
C251 C252 1.523 . S
C252 C236 1.368 . S
C252 C248 1.368 . S
C252 C251 1.523 . S
H253 C228 0.950 . S
H254 C230 0.950 . S
H255 C231 0.949 . S
H256 C233 0.950 . S
H257 C235 0.950 . S
C258 C259 1.349 . S
C258 C260 1.327 . S
C258 H283 0.950 . S
C259 C258 1.349 . S
C259 C275 1.349 . S
C260 C258 1.327 . S
C260 C279 1.429 . S
C260 H284 0.950 . S
C261 C278 1.574 . S
C261 C280 1.368 . S
C261 H285 0.949 . S
H262 C266 0.949 . S
C263 C264 1.349 . S
C263 C265 1.327 . S
C263 H286 0.950 . S
C264 C263 1.349 . S
C264 C276 1.349 . S
C265 C263 1.327 . S
C265 C281 1.429 . S
C265 H287 0.950 . S
C266 H262 0.949 . S
C266 C274 1.574 . S
C266 C282 1.368 . S
H267 C275 0.950 . S
H268 C273 0.950 . S
H269 C274 0.949 . S
H270 C276 0.950 . S
H271 C277 0.950 . S
H272 C278 0.949 . S
C273 H268 0.950 . S
C273 C275 1.327 . S
C273 C279 1.429 . S
C274 C266 1.574 . S
C274 H269 0.949 . S
C274 C280 1.368 . S
C275 C259 1.349 . S
C275 H267 0.950 . S
C275 C273 1.327 . S
C276 C264 1.349 . S
C276 H270 0.950 . S
C276 C277 1.327 . S
C277 H271 0.950 . S
C277 C276 1.327 . S
C277 C281 1.429 . S
C278 C261 1.574 . S
C278 H272 0.949 . S
C278 C282 1.368 . S
C279 C260 1.429 . S
C279 C273 1.429 . S
C279 C280 1.523 . S
C280 C261 1.368 . S
C280 C274 1.368 . S
C280 C279 1.523 . S
C281 C265 1.429 . S
C281 C277 1.429 . S
C281 C282 1.523 . S
C282 C266 1.368 . S
C282 C278 1.368 . S
C282 C281 1.523 . S
H283 C258 0.950 . S
H284 C260 0.950 . S
H285 C261 0.949 . S
H286 C263 0.950 . S
H287 C265 0.950 . S
C288 C289 1.349 . S
C288 C290 1.327 . S
C288 H313 0.950 . S
C289 C288 1.349 . S
C289 C305 1.349 . S
C290 C288 1.327 . S
C290 C309 1.429 . S
C290 H314 0.950 . S
C291 C308 1.574 . S
C291 C310 1.368 . S
C291 H315 0.949 . S
H292 C296 0.949 . S
C293 C294 1.349 . S
C293 C295 1.327 . S
C293 H316 0.950 . S
C294 C293 1.349 . S
C294 C306 1.349 . S
C295 C293 1.327 . S
C295 C311 1.429 . S
C295 H317 0.950 . S
C296 H292 0.949 . S
C296 C304 1.574 . S
C296 C312 1.368 . S
H297 C305 0.950 . S
H298 C303 0.950 . S
H299 C304 0.949 . S
H300 C306 0.950 . S
H301 C307 0.950 . S
H302 C308 0.949 . S
C303 H298 0.950 . S
C303 C305 1.327 . S
C303 C309 1.429 . S
C304 C296 1.574 . S
C304 H299 0.949 . S
C304 C310 1.368 . S
C305 C289 1.349 . S
C305 H297 0.950 . S
C305 C303 1.327 . S
C306 C294 1.349 . S
C306 H300 0.950 . S
C306 C307 1.327 . S
C307 H301 0.950 . S
C307 C306 1.327 . S
C307 C311 1.429 . S
C308 C291 1.574 . S
C308 H302 0.949 . S
C308 C312 1.368 . S
C309 C290 1.429 . S
C309 C303 1.429 . S
C309 C310 1.523 . S
C310 C291 1.368 . S
C310 C304 1.368 . S
C310 C309 1.523 . S
C311 C295 1.429 . S
C311 C307 1.429 . S
C311 C312 1.523 . S
C312 C296 1.368 . S
C312 C308 1.368 . S
C312 C311 1.523 . S
H313 C288 0.950 . S
H314 C290 0.950 . S
H315 C291 0.949 . S
H316 C293 0.950 . S
H317 C295 0.950 . S
C318 C319 1.349 . S
C318 C320 1.327 . S
C318 H343 0.950 . S
C319 C318 1.349 . S
C319 C335 1.349 . S
C320 C318 1.327 . S
C320 C339 1.429 . S
C320 H344 0.950 . S
C321 C338 1.574 . S
C321 C340 1.368 . S
C321 H345 0.949 . S
H322 C326 0.949 . S
C323 C324 1.349 . S
C323 C325 1.327 . S
C323 H346 0.950 . S
C324 C323 1.349 . S
C324 C336 1.349 . S
C325 C323 1.327 . S
C325 C341 1.429 . S
C325 H347 0.950 . S
C326 H322 0.949 . S
C326 C334 1.574 . S
C326 C342 1.368 . S
H327 C335 0.950 . S
H328 C333 0.950 . S
H329 C334 0.949 . S
H330 C336 0.950 . S
H331 C337 0.950 . S
H332 C338 0.949 . S
C333 H328 0.950 . S
C333 C335 1.327 . S
C333 C339 1.429 . S
C334 C326 1.574 . S
C334 H329 0.949 . S
C334 C340 1.368 . S
C335 C319 1.349 . S
C335 H327 0.950 . S
C335 C333 1.327 . S
C336 C324 1.349 . S
C336 H330 0.950 . S
C336 C337 1.327 . S
C337 H331 0.950 . S
C337 C336 1.327 . S
C337 C341 1.429 . S
C338 C321 1.574 . S
C338 H332 0.949 . S
C338 C342 1.368 . S
C339 C320 1.429 . S
C339 C333 1.429 . S
C339 C340 1.523 . S
C340 C321 1.368 . S
C340 C334 1.368 . S
C340 C339 1.523 . S
C341 C325 1.429 . S
C341 C337 1.429 . S
C341 C342 1.523 . S
C342 C326 1.368 . S
C342 C338 1.368 . S
C342 C341 1.523 . S
H343 C318 0.950 . S
H344 C320 0.950 . S
H345 C321 0.949 . S
H346 C323 0.950 . S
H347 C325 0.950 . S
C348 C349 1.349 . S
C348 C350 1.327 . S
C348 H373 0.950 . S
C349 C348 1.349 . S
C349 C365 1.349 . S
C350 C348 1.327 . S
C350 C369 1.429 . S
C350 H374 0.950 . S
C351 C368 1.550 1_545 S
C351 C370 1.368 1_556 S
C351 H375 0.949 . S
H352 C356 0.949 . S
C353 C354 1.349 . S
C353 C355 1.327 . S
C353 H376 0.950 . S
C354 C353 1.349 . S
C354 C366 1.349 . S
C355 C353 1.327 . S
C355 C371 1.429 . S
C355 H377 0.950 . S
C356 H352 0.949 . S
C356 C364 1.574 . S
C356 C372 1.368 1_554 S
H357 C365 0.950 . S
H358 C363 0.904 1_556 S
H359 C364 0.949 . S
H360 C366 0.950 . S
H361 C367 0.950 1_554 S
H362 C368 0.949 . S
C363 H358 0.904 1_554 S
C363 C365 1.327 . S
C363 C369 1.429 . S
C364 C356 1.574 . S
C364 H359 0.949 . S
C364 C370 1.368 1_565 S
C365 C349 1.349 . S
C365 H357 0.950 . S
C365 C363 1.327 . S
C366 C354 1.349 . S
C366 H360 0.950 . S
C366 C367 1.327 . S
C367 H361 0.950 1_556 S
C367 C366 1.327 . S
C367 C371 1.429 . S
C368 C351 1.550 1_565 S
C368 H362 0.949 . S
C368 C372 1.395 . S
C369 C350 1.429 . S
C369 C363 1.429 . S
C369 C370 1.523 . S
C370 C351 1.368 1_554 S
C370 C364 1.368 1_545 S
C370 C369 1.523 . S
C371 C355 1.429 . S
C371 C367 1.429 . S
C371 C372 1.523 . S
C372 C356 1.368 1_556 S
C372 C368 1.395 . S
C372 C371 1.523 . S
H373 C348 0.950 . S
H374 C350 0.950 . S
H375 C351 0.949 . S
H376 C353 0.950 . S
H377 C355 0.950 . S
C378 C379 1.349 . S
C378 C380 1.327 . S
C378 H403 0.950 . S
C379 C378 1.349 . S
C379 C395 1.349 . S
C380 C378 1.327 . S
C380 C399 1.429 . S
C380 H404 0.950 . S
C381 C398 1.574 . S
C381 C400 1.368 . S
C381 H405 0.949 . S
H382 C386 0.949 . S
C383 C384 1.349 . S
C383 C385 1.327 . S
C383 H406 0.950 . S
C384 C383 1.349 . S
C384 C396 1.349 . S
C385 C383 1.327 . S
C385 C401 1.429 . S
C385 H407 0.950 . S
C386 H382 0.949 . S
C386 C394 1.574 . S
C386 C402 1.368 . S
H387 C395 0.950 . S
H388 C393 0.950 . S
H389 C394 0.949 . S
H390 C396 0.950 . S
H391 C397 0.950 . S
H392 C398 0.949 . S
C393 H388 0.950 . S
C393 C395 1.327 . S
C393 C399 1.429 . S
C394 C386 1.574 . S
C394 H389 0.949 . S
C394 C400 1.368 . S
C395 C379 1.349 . S
C395 H387 0.950 . S
C395 C393 1.327 . S
C396 C384 1.349 . S
C396 H390 0.950 . S
C396 C397 1.327 . S
C397 H391 0.950 . S
C397 C396 1.327 . S
C397 C401 1.429 . S
C398 C381 1.574 . S
C398 H392 0.949 . S
C398 C402 1.368 . S
C399 C380 1.429 . S
C399 C393 1.429 . S
C399 C400 1.523 . S
C400 C381 1.368 . S
C400 C394 1.368 . S
C400 C399 1.523 . S
C401 C385 1.429 . S
C401 C397 1.429 . S
C401 C402 1.523 . S
C402 C386 1.368 . S
C402 C398 1.368 . S
C402 C401 1.523 . S
H403 C378 0.950 . S
H404 C380 0.950 . S
H405 C381 0.949 . S
H406 C383 0.950 . S
H407 C385 0.950 . S
C408 C409 1.349 . S
C408 C410 1.327 . S
C408 H433 0.950 . S
C409 C408 1.349 . S
C409 C425 1.349 . S
C410 C408 1.327 . S
C410 C429 1.429 . S
C410 H434 0.950 . S
C411 C428 1.574 1_455 S
C411 C430 1.368 1_554 S
C411 H435 0.949 . S
H412 C416 0.949 . S
C413 C414 1.349 . S
C413 C415 1.327 . S
C413 H436 0.950 . S
C414 C413 1.349 . S
C414 C426 1.349 . S
C415 C413 1.327 . S
C415 C431 1.429 . S
C415 H437 0.950 . S
C416 H412 0.949 . S
C416 C424 1.574 1_655 S
C416 C432 1.368 1_556 S
H417 C425 0.950 . S
H418 C423 0.950 . S
H419 C424 0.949 . S
H420 C426 0.950 . S
H421 C427 0.950 . S
H422 C428 0.949 . S
C423 H418 0.950 . S
C423 C425 1.327 . S
C423 C429 1.429 . S
C424 C416 1.574 1_455 S
C424 H419 0.949 . S
C424 C430 1.368 . S
C425 C409 1.349 . S
C425 H417 0.950 . S
C425 C423 1.327 . S
C426 C414 1.349 . S
C426 H420 0.950 . S
C426 C427 1.327 . S
C427 H421 0.950 . S
C427 C426 1.327 . S
C427 C431 1.429 . S
C428 C411 1.574 1_655 S
C428 H422 0.949 . S
C428 C432 1.368 . S
C429 C410 1.429 . S
C429 C423 1.429 . S
C429 C430 1.523 . S
C430 C411 1.368 1_556 S
C430 C424 1.368 . S
C430 C429 1.523 . S
C431 C415 1.429 . S
C431 C427 1.429 . S
C431 C432 1.523 . S
C432 C416 1.368 1_554 S
C432 C428 1.368 . S
C432 C431 1.523 . S
H433 C408 0.950 . S
H434 C410 0.950 . S
H435 C411 0.949 . S
H436 C413 0.950 . S
H437 C415 0.950 . S
C438 C439 1.349 . S
C438 C440 1.327 . S
C438 H463 0.950 . S
C439 C438 1.349 . S
C439 C455 1.349 . S
C440 C438 1.327 . S
C440 C459 1.429 . S
C440 H464 0.950 . S
C441 C458 1.585 . S
C441 C460 1.368 . S
C441 H465 0.949 . S
H442 C446 0.949 . S
C443 C444 1.349 . S
C443 C445 1.327 . S
C443 H466 0.950 . S
C444 C443 1.349 . S
C444 C456 1.349 . S
C445 C443 1.327 . S
C445 C461 1.429 . S
C445 H467 0.950 . S
C446 H442 0.949 . S
C446 C454 1.574 1_565 S
C446 C462 1.368 . S
H447 C455 0.950 . S
H448 C453 0.950 . S
H449 C454 0.949 . S
H450 C456 0.950 . S
H451 C457 0.950 . S
H452 C458 0.947 1_565 S
C453 H448 0.950 . S
C453 C455 1.327 . S
C453 C459 1.429 . S
C454 C446 1.574 1_545 S
C454 H449 0.949 . S
C454 C460 1.368 . S
C455 C439 1.349 . S
C455 H447 0.950 . S
C455 C453 1.327 . S
C456 C444 1.349 . S
C456 H450 0.950 . S
C456 C457 1.327 . S
C457 H451 0.950 . S
C457 C456 1.327 . S
C457 C461 1.429 . S
C458 C441 1.585 . S
C458 H452 0.947 1_545 S
C458 C462 1.358 1_545 S
C459 C440 1.429 . S
C459 C453 1.429 . S
C459 C460 1.523 . S
C460 C441 1.368 . S
C460 C454 1.368 . S
C460 C459 1.523 . S
C461 C445 1.429 . S
C461 C457 1.429 . S
C461 C462 1.523 . S
C462 C446 1.368 . S
C462 C458 1.358 1_565 S
C462 C461 1.523 . S
H463 C438 0.950 . S
H464 C440 0.950 . S
H465 C441 0.949 . S
H466 C443 0.950 . S
H467 C445 0.950 . S
C468 C469 1.349 . S
C468 C470 1.327 . S
C468 H493 0.950 . S
C469 C468 1.349 . S
C469 C485 1.349 . S
C470 C468 1.327 . S
C470 C489 1.429 . S
C470 H494 0.950 . S
C471 C488 1.574 . S
C471 C490 1.368 1_554 S
C471 H495 0.949 . S
H472 C476 0.949 . S
C473 C474 1.349 . S
C473 C475 1.327 . S
C473 H496 0.950 . S
C474 C473 1.349 . S
C474 C486 1.349 . S
C475 C473 1.327 . S
C475 C491 1.429 . S
C475 H497 0.950 . S
C476 H472 0.949 . S
C476 C484 1.574 . S
C476 C492 1.368 1_556 S
H477 C485 0.950 . S
H478 C483 0.950 . S
H479 C484 0.949 . S
H480 C486 0.950 . S
H481 C487 0.950 . S
H482 C488 0.949 . S
C483 H478 0.950 . S
C483 C485 1.327 . S
C483 C489 1.429 . S
C484 C476 1.574 . S
C484 H479 0.949 . S
C484 C490 1.368 . S
C485 C469 1.349 . S
C485 H477 0.950 . S
C485 C483 1.327 . S
C486 C474 1.349 . S
C486 H480 0.950 . S
C486 C487 1.327 . S
C487 H481 0.950 . S
C487 C486 1.327 . S
C487 C491 1.429 . S
C488 C471 1.574 . S
C488 H482 0.949 . S
C488 C492 1.368 . S
C489 C470 1.429 . S
C489 C483 1.429 . S
C489 C490 1.523 . S
C490 C471 1.368 1_556 S
C490 C484 1.368 . S
C490 C489 1.523 . S
C491 C475 1.429 . S
C491 C487 1.429 . S
C491 C492 1.523 . S
C492 C476 1.368 1_554 S
C492 C488 1.368 . S
C492 C491 1.523 . S
H493 C468 0.950 . S
H494 C470 0.950 . S
H495 C471 0.949 . S
H496 C473 0.950 . S
H497 C475 0.950 . S
C498 C499 1.349 . S
C498 C500 1.327 . S
C498 H523 0.950 . S
C499 C498 1.349 . S
C499 C515 1.349 . S
C500 C498 1.327 . S
C500 C519 1.429 . S
C500 H524 0.950 . S
C501 C518 1.574 1_655 S
C501 C520 1.368 . S
C501 H525 0.949 . S
H502 C506 0.949 . S
C503 C504 1.349 . S
C503 C505 1.327 . S
C503 H526 0.950 . S
C504 C503 1.349 . S
C504 C516 1.349 . S
C505 C503 1.327 . S
C505 C521 1.429 . S
C505 H527 0.950 . S
C506 H502 0.949 . S
C506 C514 1.574 1_455 S
C506 C522 1.368 . S
H507 C515 0.950 . S
H508 C513 0.950 . S
H509 C514 0.949 . S
H510 C516 0.950 . S
H511 C517 0.950 . S
H512 C518 0.949 . S
C513 H508 0.950 . S
C513 C515 1.327 . S
C513 C519 1.429 . S
C514 C506 1.574 1_655 S
C514 H509 0.949 . S
C514 C520 1.368 . S
C515 C499 1.349 . S
C515 H507 0.950 . S
C515 C513 1.327 . S
C516 C504 1.349 . S
C516 H510 0.950 . S
C516 C517 1.327 . S
C517 H511 0.950 . S
C517 C516 1.327 . S
C517 C521 1.429 . S
C518 C501 1.574 1_455 S
C518 H512 0.949 . S
C518 C522 1.368 . S
C519 C500 1.429 . S
C519 C513 1.429 . S
C519 C520 1.523 . S
C520 C501 1.368 . S
C520 C514 1.368 . S
C520 C519 1.523 . S
C521 C505 1.429 . S
C521 C517 1.429 . S
C521 C522 1.523 . S
C522 C506 1.368 . S
C522 C518 1.368 . S
C522 C521 1.523 . S
H523 C498 0.950 . S
H524 C500 0.950 . S
H525 C501 0.949 . S
H526 C503 0.950 . S
H527 C505 0.950 . S
C528 C529 1.349 . S
C528 C530 1.327 . S
C528 H553 0.950 . S
C529 C528 1.349 . S
C529 C545 1.349 . S
C530 C528 1.327 . S
C530 C549 1.429 . S
C530 H554 0.950 . S
C531 C548 1.574 . S
C531 C550 1.368 . S
C531 H555 0.949 . S
H532 C536 0.949 . S
C533 C534 1.349 . S
C533 C535 1.327 . S
C533 H556 0.950 . S
C534 C533 1.349 . S
C534 C546 1.349 . S
C535 C533 1.327 . S
C535 C551 1.429 . S
C535 H557 0.950 . S
C536 H532 0.949 . S
C536 C544 1.574 . S
C536 C552 1.368 . S
H537 C545 0.950 . S
H538 C543 0.950 . S
H539 C544 0.949 . S
H540 C546 0.950 . S
H541 C547 0.950 . S
H542 C548 0.949 . S
C543 H538 0.950 . S
C543 C545 1.327 . S
C543 C549 1.429 . S
C544 C536 1.574 . S
C544 H539 0.949 . S
C544 C550 1.368 . S
C545 C529 1.349 . S
C545 H537 0.950 . S
C545 C543 1.327 . S
C546 C534 1.349 . S
C546 H540 0.950 . S
C546 C547 1.327 . S
C547 H541 0.950 . S
C547 C546 1.327 . S
C547 C551 1.429 . S
C548 C531 1.574 . S
C548 H542 0.949 . S
C548 C552 1.368 . S
C549 C530 1.429 . S
C549 C543 1.429 . S
C549 C550 1.523 . S
C550 C531 1.368 . S
C550 C544 1.368 . S
C550 C549 1.523 . S
C551 C535 1.429 . S
C551 C547 1.429 . S
C551 C552 1.523 . S
C552 C536 1.368 . S
C552 C548 1.368 . S
C552 C551 1.523 . S
H553 C528 0.950 . S
H554 C530 0.950 . S
H555 C531 0.949 . S
H556 C533 0.950 . S
H557 C535 0.950 . S
C558 C559 1.349 . S
C558 C560 1.327 . S
C558 H583 0.950 . S
C559 C558 1.349 . S
C559 C575 1.349 . S
C560 C558 1.327 . S
C560 C579 1.429 . S
C560 H584 0.950 . S
C561 C578 1.574 . S
C561 C580 1.368 . S
C561 H585 0.949 . S
H562 C566 0.949 . S
C563 C564 1.349 . S
C563 C565 1.327 . S
C563 H586 0.950 . S
C564 C563 1.349 . S
C564 C576 1.349 . S
C565 C563 1.327 . S
C565 C581 1.429 . S
C565 H587 0.950 . S
C566 H562 0.949 . S
C566 C574 1.574 . S
C566 C582 1.368 . S
H567 C575 0.950 . S
H568 C573 0.950 . S
H569 C574 0.949 . S
H570 C576 0.950 . S
H571 C577 0.950 . S
H572 C578 0.949 . S
C573 H568 0.950 . S
C573 C575 1.327 . S
C573 C579 1.429 . S
C574 C566 1.574 . S
C574 H569 0.949 . S
C574 C580 1.368 . S
C575 C559 1.349 . S
C575 H567 0.950 . S
C575 C573 1.327 . S
C576 C564 1.349 . S
C576 H570 0.950 . S
C576 C577 1.327 . S
C577 H571 0.950 . S
C577 C576 1.327 . S
C577 C581 1.429 . S
C578 C561 1.574 . S
C578 H572 0.949 . S
C578 C582 1.368 . S
C579 C560 1.429 . S
C579 C573 1.429 . S
C579 C580 1.523 . S
C580 C561 1.368 . S
C580 C574 1.368 . S
C580 C579 1.523 . S
C581 C565 1.429 . S
C581 C577 1.429 . S
C581 C582 1.523 . S
C582 C566 1.368 . S
C582 C578 1.368 . S
C582 C581 1.523 . S
H583 C558 0.950 . S
H584 C560 0.950 . S
H585 C561 0.949 . S
H586 C563 0.950 . S
H587 C565 0.950 . S
C588 C589 1.349 . S
C588 C590 1.327 . S
C588 H613 0.950 . S
C589 C588 1.349 . S
C589 C605 1.349 . S
C590 C588 1.327 . S
C590 C609 1.429 . S
C590 H614 0.950 . S
C591 C608 1.574 . S
C591 C610 1.368 . S
C591 H615 0.949 . S
H592 C596 0.949 . S
C593 C594 1.349 . S
C593 C595 1.327 . S
C593 H616 0.950 . S
C594 C593 1.349 . S
C594 C606 1.349 . S
C595 C593 1.327 . S
C595 C611 1.429 . S
C595 H617 0.950 . S
C596 H592 0.949 . S
C596 C604 1.574 . S
C596 C612 1.368 . S
H597 C605 0.950 . S
H598 C603 0.950 . S
H599 C604 0.949 . S
H600 C606 0.950 . S
H601 C607 0.950 . S
H602 C608 0.949 . S
C603 H598 0.950 . S
C603 C605 1.327 . S
C603 C609 1.429 . S
C604 C596 1.574 . S
C604 H599 0.949 . S
C604 C610 1.368 . S
C605 C589 1.349 . S
C605 H597 0.950 . S
C605 C603 1.327 . S
C606 C594 1.349 . S
C606 H600 0.950 . S
C606 C607 1.327 . S
C607 H601 0.950 . S
C607 C606 1.327 . S
C607 C611 1.429 . S
C608 C591 1.574 . S
C608 H602 0.949 . S
C608 C612 1.368 . S
C609 C590 1.429 . S
C609 C603 1.429 . S
C609 C610 1.523 . S
C610 C591 1.368 . S
C610 C604 1.368 . S
C610 C609 1.523 . S
C611 C595 1.429 . S
C611 C607 1.429 . S
C611 C612 1.523 . S
C612 C596 1.368 . S
C612 C608 1.368 . S
C612 C611 1.523 . S
H613 C588 0.950 . S
H614 C590 0.950 . S
H615 C591 0.949 . S
H616 C593 0.950 . S
H617 C595 0.950 . S
C618 C619 1.349 . S
C618 C620 1.327 . S
C618 H643 0.950 . S
C619 C618 1.349 . S
C619 C635 1.349 . S
C620 C618 1.327 . S
C620 C639 1.429 . S
C620 H644 0.950 . S
C621 C638 1.574 . S
C621 C640 1.368 . S
C621 H645 0.949 . S
H622 C626 0.949 . S
C623 C624 1.349 . S
C623 C625 1.327 . S
C623 H646 0.950 . S
C624 C623 1.349 . S
C624 C636 1.349 . S
C625 C623 1.327 . S
C625 C641 1.429 . S
C625 H647 0.950 . S
C626 H622 0.949 . S
C626 C634 1.574 . S
C626 C642 1.368 . S
H627 C635 0.950 . S
H628 C633 0.950 . S
H629 C634 0.949 . S
H630 C636 0.950 . S
H631 C637 0.950 . S
H632 C638 0.949 . S
C633 H628 0.950 . S
C633 C635 1.327 . S
C633 C639 1.429 . S
C634 C626 1.574 . S
C634 H629 0.949 . S
C634 C640 1.368 . S
C635 C619 1.349 . S
C635 H627 0.950 . S
C635 C633 1.327 . S
C636 C624 1.349 . S
C636 H630 0.950 . S
C636 C637 1.327 . S
C637 H631 0.950 . S
C637 C636 1.327 . S
C637 C641 1.429 . S
C638 C621 1.574 . S
C638 H632 0.949 . S
C638 C642 1.368 . S
C639 C620 1.429 . S
C639 C633 1.429 . S
C639 C640 1.523 . S
C640 C621 1.368 . S
C640 C634 1.368 . S
C640 C639 1.523 . S
C641 C625 1.429 . S
C641 C637 1.429 . S
C641 C642 1.523 . S
C642 C626 1.368 . S
C642 C638 1.368 . S
C642 C641 1.523 . S
H643 C618 0.950 . S
H644 C620 0.950 . S
H645 C621 0.949 . S
H646 C623 0.950 . S
H647 C625 0.950 . S
C648 C649 1.349 . S
C648 C650 1.327 . S
C648 H673 0.950 . S
C649 C648 1.349 . S
C649 C665 1.349 . S
C650 C648 1.327 . S
C650 C669 1.429 . S
C650 H674 0.950 . S
C651 C668 1.574 . S
C651 C670 1.368 . S
C651 H675 0.949 . S
H652 C656 0.949 . S
C653 C654 1.349 . S
C653 C655 1.327 . S
C653 H676 0.950 . S
C654 C653 1.349 . S
C654 C666 1.349 . S
C655 C653 1.327 . S
C655 C671 1.429 . S
C655 H677 0.950 . S
C656 H652 0.949 . S
C656 C664 1.574 . S
C656 C672 1.368 . S
H657 C665 0.950 . S
H658 C663 0.950 . S
H659 C664 0.949 . S
H660 C666 0.950 . S
H661 C667 0.950 . S
H662 C668 0.949 . S
C663 H658 0.950 . S
C663 C665 1.327 . S
C663 C669 1.429 . S
C664 C656 1.574 . S
C664 H659 0.949 . S
C664 C670 1.368 . S
C665 C649 1.349 . S
C665 H657 0.950 . S
C665 C663 1.327 . S
C666 C654 1.349 . S
C666 H660 0.950 . S
C666 C667 1.327 . S
C667 H661 0.950 . S
C667 C666 1.327 . S
C667 C671 1.429 . S
C668 C651 1.574 . S
C668 H662 0.949 . S
C668 C672 1.368 . S
C669 C650 1.429 . S
C669 C663 1.429 . S
C669 C670 1.523 . S
C670 C651 1.368 . S
C670 C664 1.368 . S
C670 C669 1.523 . S
C671 C655 1.429 . S
C671 C667 1.429 . S
C671 C672 1.523 . S
C672 C656 1.368 . S
C672 C668 1.368 . S
C672 C671 1.523 . S
H673 C648 0.950 . S
H674 C650 0.950 . S
H675 C651 0.949 . S
H676 C653 0.950 . S
H677 C655 0.950 . S
C678 C679 1.349 . S
C678 C680 1.327 . S
C678 H703 0.950 . S
C679 C678 1.349 . S
C679 C695 1.349 . S
C680 C678 1.327 . S
C680 C699 1.429 . S
C680 H704 0.950 . S
C681 C698 1.574 . S
C681 C700 1.368 . S
C681 H705 0.949 . S
H682 C686 0.949 . S
C683 C684 1.349 . S
C683 C685 1.327 . S
C683 H706 0.950 . S
C684 C683 1.349 . S
C684 C696 1.349 . S
C685 C683 1.327 . S
C685 C701 1.429 . S
C685 H707 0.950 . S
C686 H682 0.949 . S
C686 C694 1.574 . S
C686 C702 1.368 . S
H687 C695 0.950 . S
H688 C693 0.950 . S
H689 C694 0.949 . S
H690 C696 0.950 . S
H691 C697 0.950 . S
H692 C698 0.949 . S
C693 H688 0.950 . S
C693 C695 1.327 . S
C693 C699 1.429 . S
C694 C686 1.574 . S
C694 H689 0.949 . S
C694 C700 1.368 . S
C695 C679 1.349 . S
C695 H687 0.950 . S
C695 C693 1.327 . S
C696 C684 1.349 . S
C696 H690 0.950 . S
C696 C697 1.327 . S
C697 H691 0.950 . S
C697 C696 1.327 . S
C697 C701 1.429 . S
C698 C681 1.574 . S
C698 H692 0.949 . S
C698 C702 1.368 . S
C699 C680 1.429 . S
C699 C693 1.429 . S
C699 C700 1.523 . S
C700 C681 1.368 . S
C700 C694 1.368 . S
C700 C699 1.523 . S
C701 C685 1.429 . S
C701 C697 1.429 . S
C701 C702 1.523 . S
C702 C686 1.368 . S
C702 C698 1.368 . S
C702 C701 1.523 . S
H703 C678 0.950 . S
H704 C680 0.950 . S
H705 C681 0.949 . S
H706 C683 0.950 . S
H707 C685 0.950 . S
C708 C709 1.349 . S
C708 C710 1.327 . S
C708 H733 0.950 . S
C709 C708 1.349 . S
C709 C725 1.349 . S
C710 C708 1.327 . S
C710 C729 1.429 . S
C710 H734 0.950 . S
C711 C728 1.574 . S
C711 C730 1.368 . S
C711 H735 0.949 . S
H712 C716 0.949 . S
C713 C714 1.349 . S
C713 C715 1.327 . S
C713 H736 0.950 . S
C714 C713 1.349 . S
C714 C726 1.349 . S
C715 C713 1.327 . S
C715 C731 1.429 . S
C715 H737 0.950 . S
C716 H712 0.949 . S
C716 C724 1.574 . S
C716 C732 1.368 . S
H717 C725 0.950 . S
H718 C723 0.950 . S
H719 C724 0.949 . S
H720 C726 0.950 . S
H721 C727 0.950 . S
H722 C728 0.949 . S
C723 H718 0.950 . S
C723 C725 1.327 . S
C723 C729 1.429 . S
C724 C716 1.574 . S
C724 H719 0.949 . S
C724 C730 1.368 . S
C725 C709 1.349 . S
C725 H717 0.950 . S
C725 C723 1.327 . S
C726 C714 1.349 . S
C726 H720 0.950 . S
C726 C727 1.327 . S
C727 H721 0.950 . S
C727 C726 1.327 . S
C727 C731 1.429 . S
C728 C711 1.574 . S
C728 H722 0.949 . S
C728 C732 1.368 . S
C729 C710 1.429 . S
C729 C723 1.429 . S
C729 C730 1.523 . S
C730 C711 1.368 . S
C730 C724 1.368 . S
C730 C729 1.523 . S
C731 C715 1.429 . S
C731 C727 1.429 . S
C731 C732 1.523 . S
C732 C716 1.368 . S
C732 C728 1.368 . S
C732 C731 1.523 . S
H733 C708 0.950 . S
H734 C710 0.950 . S
H735 C711 0.949 . S
H736 C713 0.950 . S
H737 C715 0.950 . S
C738 C739 1.349 . S
C738 C740 1.327 . S
C738 H763 0.950 . S
C739 C738 1.349 . S
C739 C755 1.349 . S
C740 C738 1.327 . S
C740 C759 1.429 . S
C740 H764 0.950 . S
C741 C758 1.574 . S
C741 C760 1.368 . S
C741 H765 0.949 . S
H742 C746 0.949 . S
C743 C744 1.349 . S
C743 C745 1.327 . S
C743 H766 0.950 . S
C744 C743 1.349 . S
C744 C756 1.349 . S
C745 C743 1.327 . S
C745 C761 1.429 . S
C745 H767 0.950 . S
C746 H742 0.949 . S
C746 C754 1.574 . S
C746 C762 1.368 . S
H747 C755 0.950 . S
H748 C753 0.950 . S
H749 C754 0.949 . S
H750 C756 0.950 . S
H751 C757 0.950 . S
H752 C758 0.949 . S
C753 H748 0.950 . S
C753 C755 1.327 . S
C753 C759 1.429 . S
C754 C746 1.574 . S
C754 H749 0.949 . S
C754 C760 1.368 . S
C755 C739 1.349 . S
C755 H747 0.950 . S
C755 C753 1.327 . S
C756 C744 1.349 . S
C756 H750 0.950 . S
C756 C757 1.327 . S
C757 H751 0.950 . S
C757 C756 1.327 . S
C757 C761 1.429 . S
C758 C741 1.574 . S
C758 H752 0.949 . S
C758 C762 1.368 . S
C759 C740 1.429 . S
C759 C753 1.429 . S
C759 C760 1.523 . S
C760 C741 1.368 . S
C760 C754 1.368 . S
C760 C759 1.523 . S
C761 C745 1.429 . S
C761 C757 1.429 . S
C761 C762 1.523 . S
C762 C746 1.368 . S
C762 C758 1.368 . S
C762 C761 1.523 . S
H763 C738 0.950 . S
H764 C740 0.950 . S
H765 C741 0.949 . S
H766 C743 0.950 . S
H767 C745 0.950 . S
C768 C769 1.349 . S
C768 C770 1.327 . S
C768 H793 0.950 . S
C769 C768 1.349 . S
C769 C785 1.349 . S
C770 C768 1.327 . S
C770 C789 1.429 . S
C770 H794 0.950 . S
C771 C788 1.574 . S
C771 C790 1.368 . S
C771 H795 0.949 . S
H772 C776 0.949 . S
C773 C774 1.349 . S
C773 C775 1.327 . S
C773 H796 0.950 . S
C774 C773 1.349 . S
C774 C786 1.349 . S
C775 C773 1.327 . S
C775 C791 1.429 . S
C775 H797 0.950 . S
C776 H772 0.949 . S
C776 C784 1.574 . S
C776 C792 1.368 . S
H777 C785 0.950 . S
H778 C783 0.950 . S
H779 C784 0.949 . S
H780 C786 0.950 . S
H781 C787 0.950 . S
H782 C788 0.949 . S
C783 H778 0.950 . S
C783 C785 1.327 . S
C783 C789 1.429 . S
C784 C776 1.574 . S
C784 H779 0.949 . S
C784 C790 1.368 . S
C785 C769 1.349 . S
C785 H777 0.950 . S
C785 C783 1.327 . S
C786 C774 1.349 . S
C786 H780 0.950 . S
C786 C787 1.327 . S
C787 H781 0.950 . S
C787 C786 1.327 . S
C787 C791 1.429 . S
C788 C771 1.574 . S
C788 H782 0.949 . S
C788 C792 1.368 . S
C789 C770 1.429 . S
C789 C783 1.429 . S
C789 C790 1.523 . S
C790 C771 1.368 . S
C790 C784 1.368 . S
C790 C789 1.523 . S
C791 C775 1.429 . S
C791 C787 1.429 . S
C791 C792 1.523 . S
C792 C776 1.368 . S
C792 C788 1.368 . S
C792 C791 1.523 . S
H793 C768 0.950 . S
H794 C770 0.950 . S
H795 C771 0.949 . S
H796 C773 0.950 . S
H797 C775 0.950 . S
C798 C799 1.349 . S
C798 C800 1.327 . S
C798 H823 0.950 . S
C799 C798 1.349 . S
C799 C815 1.349 . S
C800 C798 1.327 . S
C800 C819 1.429 . S
C800 H824 0.950 . S
C801 C818 1.574 . S
C801 C820 1.368 . S
C801 H825 0.949 . S
H802 C806 0.949 . S
C803 C804 1.349 . S
C803 C805 1.327 . S
C803 H826 0.950 . S
C804 C803 1.349 . S
C804 C816 1.349 . S
C805 C803 1.327 . S
C805 C821 1.429 . S
C805 H827 0.950 . S
C806 H802 0.949 . S
C806 C814 1.574 . S
C806 C822 1.368 . S
H807 C815 0.950 . S
H808 C813 0.950 . S
H809 C814 0.949 . S
H810 C816 0.950 . S
H811 C817 0.950 . S
H812 C818 0.949 . S
C813 H808 0.950 . S
C813 C815 1.327 . S
C813 C819 1.429 . S
C814 C806 1.574 . S
C814 H809 0.949 . S
C814 C820 1.368 . S
C815 C799 1.349 . S
C815 H807 0.950 . S
C815 C813 1.327 . S
C816 C804 1.349 . S
C816 H810 0.950 . S
C816 C817 1.327 . S
C817 H811 0.950 . S
C817 C816 1.327 . S
C817 C821 1.429 . S
C818 C801 1.574 . S
C818 H812 0.949 . S
C818 C822 1.368 . S
C819 C800 1.429 . S
C819 C813 1.429 . S
C819 C820 1.523 . S
C820 C801 1.368 . S
C820 C814 1.368 . S
C820 C819 1.523 . S
C821 C805 1.429 . S
C821 C817 1.429 . S
C821 C822 1.523 . S
C822 C806 1.368 . S
C822 C818 1.368 . S
C822 C821 1.523 . S
H823 C798 0.950 . S
H824 C800 0.950 . S
H825 C801 0.949 . S
H826 C803 0.950 . S
H827 C805 0.950 . S
C828 C829 1.349 . S
C828 C830 1.327 . S
C828 H853 0.950 . S
C829 C828 1.349 . S
C829 C845 1.349 . S
C830 C828 1.327 . S
C830 C849 1.429 . S
C830 H854 0.950 . S
C831 C848 1.574 . S
C831 C850 1.368 . S
C831 H855 0.949 . S
H832 C836 0.949 . S
C833 C834 1.349 . S
C833 C835 1.327 . S
C833 H856 0.950 . S
C834 C833 1.349 . S
C834 C846 1.349 . S
C835 C833 1.327 . S
C835 C851 1.429 . S
C835 H857 0.950 . S
C836 H832 0.949 . S
C836 C844 1.574 . S
C836 C852 1.368 . S
H837 C845 0.950 . S
H838 C843 0.950 . S
H839 C844 0.949 . S
H840 C846 0.950 . S
H841 C847 0.950 . S
H842 C848 0.949 . S
C843 H838 0.950 . S
C843 C845 1.327 . S
C843 C849 1.429 . S
C844 C836 1.574 . S
C844 H839 0.949 . S
C844 C850 1.368 . S
C845 C829 1.349 . S
C845 H837 0.950 . S
C845 C843 1.327 . S
C846 C834 1.349 . S
C846 H840 0.950 . S
C846 C847 1.327 . S
C847 H841 0.950 . S
C847 C846 1.327 . S
C847 C851 1.429 . S
C848 C831 1.574 . S
C848 H842 0.949 . S
C848 C852 1.368 . S
C849 C830 1.429 . S
C849 C843 1.429 . S
C849 C850 1.523 . S
C850 C831 1.368 . S
C850 C844 1.368 . S
C850 C849 1.523 . S
C851 C835 1.429 . S
C851 C847 1.429 . S
C851 C852 1.523 . S
C852 C836 1.368 . S
C852 C848 1.368 . S
C852 C851 1.523 . S
H853 C828 0.950 . S
H854 C830 0.950 . S
H855 C831 0.949 . S
H856 C833 0.950 . S
H857 C835 0.950 . S
C858 C859 1.349 . S
C858 C860 1.327 . S
C858 H883 0.950 . S
C859 C858 1.349 . S
C859 C875 1.349 . S
C860 C858 1.327 . S
C860 C879 1.429 . S
C860 H884 0.950 . S
C861 C878 1.574 . S
C861 C880 1.368 . S
C861 H885 0.949 . S
H862 C866 0.949 . S
C863 C864 1.349 . S
C863 C865 1.327 . S
C863 H886 0.950 . S
C864 C863 1.349 . S
C864 C876 1.349 . S
C865 C863 1.327 . S
C865 C881 1.429 . S
C865 H887 0.950 . S
C866 H862 0.949 . S
C866 C874 1.574 . S
C866 C882 1.368 . S
H867 C875 0.950 . S
H868 C873 0.950 . S
H869 C874 0.949 . S
H870 C876 0.950 . S
H871 C877 0.950 . S
H872 C878 0.949 . S
C873 H868 0.950 . S
C873 C875 1.327 . S
C873 C879 1.429 . S
C874 C866 1.574 . S
C874 H869 0.949 . S
C874 C880 1.368 . S
C875 C859 1.349 . S
C875 H867 0.950 . S
C875 C873 1.327 . S
C876 C864 1.349 . S
C876 H870 0.950 . S
C876 C877 1.327 . S
C877 H871 0.950 . S
C877 C876 1.327 . S
C877 C881 1.429 . S
C878 C861 1.574 . S
C878 H872 0.949 . S
C878 C882 1.368 . S
C879 C860 1.429 . S
C879 C873 1.429 . S
C879 C880 1.523 . S
C880 C861 1.368 . S
C880 C874 1.368 . S
C880 C879 1.523 . S
C881 C865 1.429 . S
C881 C877 1.429 . S
C881 C882 1.523 . S
C882 C866 1.368 . S
C882 C878 1.368 . S
C882 C881 1.523 . S
H883 C858 0.950 . S
H884 C860 0.950 . S
H885 C861 0.949 . S
H886 C863 0.950 . S
H887 C865 0.950 . S
C169 C153 1.272 . S
C174 C13 1.276 . S
C199 C27 1.170 . S
C204 C167 1.170 . S
C229 C41 1.271 . S
C234 C97 1.276 . S
C259 C111 1.272 . S
C264 C55 1.276 . S
C289 C125 1.170 . S
C294 C69 1.170 . S
C319 C83 1.272 . S
C324 C139 1.276 . S
C349 C11 0.698 . S
C354 C109 0.700 . S
C379 C25 0.614 . S
C384 C123 0.614 . S
C409 C137 0.698 . S
C414 C39 0.700 . S
C439 C151 0.700 . S
C444 C53 0.698 . S
C469 C165 0.613 . S
C474 C67 0.613 . S
C499 C95 0.698 . S
C504 C81 0.700 . S
C529 C8 0.750 . S
C534 C63 0.750 . S
C559 C22 0.724 . S
C564 C77 0.722 . S
C589 C36 0.698 . S
C594 C7 0.697 . S
C619 C50 0.749 . S
C624 C21 0.749 . S
C649 C64 0.724 . S
C654 C35 0.722 . S
C679 C78 0.698 . S
C684 C49 0.697 . S
C709 C92 0.749 . S
C714 C119 0.749 . S
C739 C106 0.698 . S
C744 C133 0.697 . S
C769 C147 0.722 . S
C774 C120 0.724 . S
C799 C134 0.750 . S
C804 C161 0.750 . S
C829 C148 0.698 . S
C834 C91 0.697 . S
C859 C162 0.724 . S
C864 C105 0.722 . S
