# Generated by pormake.
# Topology sxa, (6)-cn, num edge types: 1
# Building blocks:
#     Node 0, Type 0, BuildingBlock: UKALOJ_clean_sbu_0, # of connection points: 6
#     Node 1, Type 0, BuildingBlock: UKALOJ_clean_sbu_0, # of connection points: 6
#     Node 2, Type 0, BuildingBlock: UKALOJ_clean_sbu_0, # of connection points: 6
#     Node 3, Type 0, BuildingBlock: UKALOJ_clean_sbu_0, # of connection points: 6
#     Edge 4, Type (0, 0), BuildingBlock: EZIPEK_clean_linker_0, # of connection points: 2
#     Edge 5, Type (0, 0), BuildingBlock: EZIPEK_clean_linker_0, # of connection points: 2
#     Edge 6, Type (0, 0), BuildingBlock: EZIPEK_clean_linker_0, # of connection points: 2
#     Edge 7, Type (0, 0), BuildingBlock: EZIPEK_clean_linker_0, # of connection points: 2
#     Edge 8, Type (0, 0), BuildingBlock: EZIPEK_clean_linker_0, # of connection points: 2
#     Edge 9, Type (0, 0), BuildingBlock: EZIPEK_clean_linker_0, # of connection points: 2
#     Edge 10, Type (0, 0), BuildingBlock: EZIPEK_clean_linker_0, # of connection points: 2
#     Edge 11, Type (0, 0), BuildingBlock: EZIPEK_clean_linker_0, # of connection points: 2
#     Edge 12, Type (0, 0), BuildingBlock: EZIPEK_clean_linker_0, # of connection points: 2
#     Edge 13, Type (0, 0), BuildingBlock: EZIPEK_clean_linker_0, # of connection points: 2
#     Edge 14, Type (0, 0), BuildingBlock: EZIPEK_clean_linker_0, # of connection points: 2
#     Edge 15, Type (0, 0), BuildingBlock: EZIPEK_clean_linker_0, # of connection points: 2
# Relax obj value: 0.115
# Max RMSD: 0.185
# Mean RMSD: 0.185
data_MOF--net-sxa--node1-UKALOJ_clean_sbu_0--edge1-EZIPEK_clean_linker_0
_symmetry_space_group_name_H-M    P1
_symmetry_Int_Tables_number       1
_symmetry_cell_setting            triclinic
loop_
_symmetry_equiv_pos_as_xyz
'x, y, z'
_cell_length_a     17.60668
_cell_length_b     30.34991
_cell_length_c     11.354185
_cell_angle_alpha  88.995267
_cell_angle_beta   89.992254
_cell_angle_gamma 89.500296
loop_
_atom_site_label
_atom_site_type_symbol
_atom_site_fract_x
_atom_site_fract_y
_atom_site_fract_z
_atom_type_partial_charge
Zn0 Zn 0.94626 0.83736 0.22653 0.0
O1 O 0.05223 0.84306 0.31011 0.0
C2 C 0.0165 0.81185 1.00342 0.0
Zn3 Zn 0.96023 0.76398 0.21596 0.0
C4 C 0.09463 0.8091 0.32251 0.0
O5 O 0.07082 0.77165 0.29051 0.0
C6 C 0.81286 0.79403 0.12404 0.0
O7 O 0.91118 0.75532 0.38473 0.0
O8 O 0.88804 0.82676 0.38911 0.0
N9 N 0.98073 0.69672 0.19858 0.0
C10 C 0.96849 0.66886 0.10871 0.0
C11 C 0.03265 0.63334 0.23855 0.0
N12 N 0.0207 0.6744 0.27886 0.0
N13 N 0.00043 0.62893 0.13176 0.0
C14 C 0.96559 0.93875 0.18087 0.0
C15 C 0.85351 0.96282 0.21191 0.0
N16 N 0.92562 0.90485 0.22774 0.0
N17 N 0.85619 0.9202 0.24801 0.0
N18 N 0.92148 0.97515 0.16877 0.0
H19 H 0.07974 0.96018 0.20012 0.0
H20 H 0.05339 0.94845 0.05292 0.0
H21 H 0.07255 0.90358 0.15722 0.0
C22 C 0.04746 0.93686 0.14546 0.0
C23 C 0.92494 0.68021 0.99872 0.0
H24 H 0.87199 0.66069 0.99819 0.0
H25 H 0.9573 0.67095 0.91934 0.0
H26 H 0.91134 0.71572 0.99183 0.0
O27 O 0.84994 0.75878 0.14602 0.0
O28 O 0.84374 0.83032 0.14661 0.0
C29 C 0.87744 0.78801 0.43106 0.0
O30 O -0.00213 0.84541 0.062 0.0
O31 O 0.00562 0.77387 0.04841 0.0
Zn32 Zn 0.51316 0.26635 0.2191 0.0
O33 O 0.40473 0.25865 0.29128 0.0
C34 C 0.44716 0.30176 1.00056 0.0
Zn35 Zn 0.51033 0.34025 0.21688 0.0
C36 C 0.37019 0.29411 0.31808 0.0
O37 O 0.40211 0.33122 0.30115 0.0
C38 C 0.65178 0.31212 0.12146 0.0
O39 O 0.57127 0.33944 0.38075 0.0
O40 O 0.56257 0.26704 0.38856 0.0
N41 N 0.49188 0.40812 0.2134 0.0
C42 C 0.50086 0.43836 0.12529 0.0
C43 C 0.43649 0.4693 0.25996 0.0
N44 N 0.45186 0.42762 0.29678 0.0
N45 N 0.46655 0.47695 0.15237 0.0
C46 C 0.4909 0.16607 0.16193 0.0
C47 C 0.60572 0.14334 0.16838 0.0
N48 N 0.53295 0.19919 0.20494 0.0
N49 N 0.60397 0.18458 0.20976 0.0
N50 N 0.53558 0.13082 0.13679 0.0
H51 H 0.38923 0.20055 0.10662 0.0
H52 H 0.37897 0.16557 0.23313 0.0
H53 H 0.38565 0.14127 0.09004 0.0
C54 C 0.40649 0.16834 0.14544 0.0
C55 C 0.54336 0.43061 0.01272 0.0
H56 H 0.51319 0.44526 0.93595 0.0
H57 H 0.55265 0.39527 0.99624 0.0
H58 H 0.59889 0.44741 0.0178 0.0
O59 O 0.61573 0.34765 0.1382 0.0
O60 O 0.61962 0.27624 0.14844 0.0
C61 C 0.59027 0.30242 0.42812 0.0
O62 O 0.46823 0.26627 0.05127 0.0
O63 O 0.45643 0.33791 0.05307 0.0
Zn64 Zn 0.01489 0.33726 0.79082 0.0
O65 O 0.90874 0.33971 0.70352 0.0
C66 C 0.94764 0.30548 0.01125 0.0
Zn67 Zn 0.01051 0.26364 0.79843 0.0
C68 C 0.87068 0.30439 0.69467 0.0
O69 O 0.89963 0.26736 0.7267 0.0
C70 C 0.1519 0.29832 0.89453 0.0
O71 O 0.05851 0.25899 0.62932 0.0
O72 O 0.07795 0.3305 0.63016 0.0
N73 N 0.01094 0.1954 0.81862 0.0
C74 C 0.96185 0.16657 0.8684 0.0
C75 C 0.0676 0.13271 0.85064 0.0
N76 N 0.07627 0.1739 0.80683 0.0
N77 N -0.0037 0.12727 0.89048 0.0
C78 C -0.01223 0.43812 0.83628 0.0
C79 C 0.10026 0.46177 0.81122 0.0
N80 N 0.02883 0.40498 0.78898 0.0
N81 N 0.09831 0.4202 0.77198 0.0
N82 N 0.03182 0.4739 0.85347 0.0
H83 H 0.87531 0.41371 0.80513 0.0
H84 H 0.87859 0.46838 0.86724 0.0
H85 H 0.89917 0.4205 0.95692 0.0
C86 C 0.90531 0.43512 0.86769 0.0
C87 C 0.88071 0.17659 0.89614 0.0
H88 H 0.87018 0.2125 0.90048 0.0
H89 H 0.86425 0.15985 0.97974 0.0
H90 H 0.8446 0.16322 0.82536 0.0
O91 O 0.11969 0.26284 0.86743 0.0
O92 O 0.11649 0.33398 0.87612 0.0
C93 C 0.09113 0.29278 0.58612 0.0
O94 O 0.95911 0.3408 0.95243 0.0
O95 O 0.96669 0.26893 0.96705 0.0
Zn96 Zn 0.45915 0.84144 0.78817 0.0
O97 O 0.41108 0.84795 0.61852 0.0
C98 C 0.31174 0.81428 0.88275 0.0
Zn99 Zn 0.44658 0.76825 0.7853 0.0
C100 C 0.37742 0.81488 0.57592 0.0
O101 O 0.3876 0.77672 0.62258 0.0
C102 C 0.51697 0.79649 1.00479 0.0
O103 O 0.55236 0.76017 0.70058 0.0
O104 O 0.57026 0.83165 0.71551 0.0
N105 N 0.42503 0.70124 0.79392 0.0
C106 C 0.46505 0.6674 0.84323 0.0
C107 C 0.35036 0.64635 0.82873 0.0
N108 N 0.35403 0.6877 0.78404 0.0
N109 N 0.41918 0.6328 0.86749 0.0
C110 C 0.46708 0.93725 0.88634 0.0
C111 C 0.53109 0.97088 0.75394 0.0
N112 N 0.47908 0.90847 0.79837 0.0
N113 N 0.51886 0.92959 0.71633 0.0
N114 N 0.49913 0.97653 0.86055 0.0
H115 H 0.37131 0.94776 0.99754 0.0
H116 H 0.45701 0.93704 0.07579 0.0
H117 H 0.40989 0.89228 0.00713 0.0
C118 C 0.42402 0.92747 0.99757 0.0
C119 C 0.54905 0.66768 0.86552 0.0
H120 H 0.57332 0.7009 0.85345 0.0
H121 H 0.57701 0.64515 0.80265 0.0
H122 H 0.56243 0.65493 0.95507 0.0
O123 O 0.49941 0.76222 0.94916 0.0
O124 O 0.50432 0.83389 0.95697 0.0
C125 C 0.59449 0.79373 0.68593 0.0
O126 O 0.34805 0.84898 0.85607 0.0
O127 O 0.34394 0.77761 0.86604 0.0
C128 C -0.00621 0.51024 0.04029 0.0
C129 C 0.01771 0.51327 0.92093 0.0
C130 C 0.04114 0.59196 0.94786 0.0
C131 C 0.00434 0.59023 0.05888 0.0
N132 N 0.93305 0.54799 0.20148 0.0
N133 N 0.0521 0.55954 0.75531 0.0
C134 C 0.97639 0.54942 0.10198 0.0
C135 C 0.03745 0.55503 0.87282 0.0
N136 N -0.00575 0.47055 0.09836 0.0
N137 N 0.08389 0.6276 0.91733 0.0
H138 H 0.04723 0.53334 0.69758 0.0
H139 H 0.06121 0.59005 0.71436 0.0
H140 H 0.09111 0.65397 0.97377 0.0
H141 H 0.1177 0.62874 0.84197 0.0
H142 H -0.01605 0.46748 0.18854 0.0
H143 H 0.01449 0.44179 0.06009 0.0
H144 H 0.9064 0.51932 0.23116 0.0
H145 H 0.91776 0.57633 0.24681 0.0
C146 C 0.41642 0.51428 0.97113 0.0
C147 C 0.45563 0.51633 0.07998 0.0
C148 C 0.45756 0.59664 0.05717 0.0
C149 C 0.43357 0.59345 0.93833 0.0
N150 N 0.39858 0.54728 0.77739 0.0
N151 N 0.52281 0.56024 0.2198 0.0
C152 C 0.4156 0.55158 0.89376 0.0
C153 C 0.47919 0.55781 0.12097 0.0
N154 N 0.37576 0.47779 0.94496 0.0
N155 N 0.45399 0.63614 0.11208 0.0
H156 H 0.54119 0.53226 0.26663 0.0
H157 H 0.54639 0.58969 0.24773 0.0
H158 H 0.43233 0.66445 0.07042 0.0
H159 H 0.46421 0.63938 0.20195 0.0
H160 H 0.33944 0.47678 0.87259 0.0
H161 H 0.37237 0.45073 1.00259 0.0
H162 H 0.39098 0.51672 0.73871 0.0
H163 H 0.39947 0.57391 0.71806 0.0
C164 C 0.47577 0.0562 0.89075 0.0
C165 C 0.50476 1.01523 0.93256 0.0
C166 C 0.54125 1.04988 0.11724 0.0
C167 C 0.51971 0.09166 0.07052 0.0
N168 N 0.49153 0.13501 0.89596 0.0
N169 N 0.58695 0.97701 0.0701 0.0
C170 C 0.49343 0.09508 0.95252 0.0
C171 C 0.54359 1.01306 0.04187 0.0
N172 N 0.4312 0.05802 0.79255 0.0
N173 N 0.55927 1.04538 0.23367 0.0
H174 H 0.59279 0.95057 0.01332 0.0
H175 H 0.62253 0.97561 0.14347 0.0
H176 H 0.55622 0.07175 0.29131 0.0
H177 H 0.56974 1.01485 0.27426 0.0
H178 H 0.40368 0.08684 0.76404 0.0
H179 H 0.41611 1.02986 0.74696 0.0
H180 H 0.47965 0.1386 0.80633 0.0
H181 H 0.51092 0.16354 0.9353 0.0
C182 C 0.96559 0.05218 0.15461 0.0
C183 C 0.93663 1.01445 0.09929 0.0
C184 C 0.9429 0.05238 0.9062 0.0
C185 C 0.97081 0.09035 0.96173 0.0
N186 N 0.00346 0.129 0.13724 0.0
N187 N 0.89116 0.97848 0.92647 0.0
C188 C 0.98031 0.09101 0.0859 0.0
C189 C 0.92324 1.01459 0.97592 0.0
N190 N -0.01907 1.04998 0.27252 0.0
N191 N 0.93715 0.05256 0.7862 0.0
H192 H 0.87828 0.95003 0.97505 0.0
H193 H 0.87403 0.97697 0.83903 0.0
H194 H 0.94886 0.08049 0.73462 0.0
H195 H 0.9237 1.02514 0.73697 0.0
H196 H 0.00796 0.0746 0.31883 0.0
H197 H 0.96939 1.02199 0.32394 0.0
H198 H 0.00578 0.13359 0.22769 0.0
H199 H 0.01716 0.15725 0.08847 0.0
C200 C 0.24572 0.8437 0.53877 0.0
C201 C 0.31153 0.82167 0.4953 0.0
C202 C 0.23722 0.7978 0.32503 0.0
C203 C 0.16973 0.81307 0.3805 0.0
N204 N 0.10912 0.84179 0.55406 0.0
N205 N 0.37 0.77663 0.34758 0.0
C206 C 0.17382 0.83378 0.49092 0.0
C207 C 0.30726 0.79834 0.3883 0.0
N208 N 0.25086 0.87435 0.62509 0.0
N209 N 0.23495 0.78433 0.21093 0.0
H210 H 0.42311 0.77909 0.38763 0.0
H211 H 0.36862 0.75493 0.27756 0.0
H212 H 0.18504 0.7843 0.16149 0.0
H213 H 0.28341 0.77706 0.16214 0.0
H214 H 0.20481 0.89369 0.65104 0.0
H215 H 0.30171 0.88501 0.66036 0.0
H216 H 0.10983 0.85252 0.64065 0.0
H217 H 0.05511 0.833 0.52567 0.0
C218 C 0.22314 0.26369 0.5477 0.0
C219 C 0.15757 0.28727 0.50594 0.0
C220 C 0.22954 0.31044 0.32998 0.0
C221 C 0.29656 0.29191 0.38073 0.0
N222 N 0.36022 0.25933 0.54899 0.0
N223 N 0.09858 0.33422 0.35846 0.0
C224 C 0.29411 0.2707 0.49225 0.0
C225 C 0.16091 0.31104 0.39716 0.0
N226 N 0.21874 0.23417 0.63965 0.0
N227 N 0.23111 0.32627 0.21662 0.0
H228 H 0.04612 0.33262 0.40108 0.0
H229 H 0.09951 0.35628 0.28723 0.0
H230 H 0.2805 0.32649 0.16588 0.0
H231 H 0.18273 0.33599 0.16997 0.0
H232 H 0.2631 0.2128 0.66294 0.0
H233 H 0.16948 0.22694 0.68533 0.0
H234 H 0.36218 0.24877 0.6366 0.0
H235 H 0.414 0.26478 0.51339 0.0
C236 C 0.79658 0.28592 0.51812 0.0
C237 C 0.79793 0.30506 0.63003 0.0
C238 C 0.66159 0.32275 0.61344 0.0
C239 C 0.65901 0.29976 0.50539 0.0
N240 N 0.72386 0.24956 0.37206 0.0
N241 N 0.73211 0.3378 0.79287 0.0
C242 C 0.72614 0.27827 0.46315 0.0
C243 C 0.7305 0.32255 0.68037 0.0
N244 N 0.86326 0.27656 0.46126 0.0
N245 N 0.59825 0.34444 0.6521 0.0
H246 H 0.78197 0.3387 0.84245 0.0
H247 H 0.68381 0.34691 0.83969 0.0
H248 H 0.5459 0.34262 0.60946 0.0
H249 H 0.59812 0.36559 0.72331 0.0
H250 H 0.86574 0.26766 0.37325 0.0
H251 H 0.9167 0.28219 0.4974 0.0
H252 H 0.76925 0.22891 0.35083 0.0
H253 H 0.67574 0.2424 0.3247 0.0
C254 C 0.74606 0.7592 0.46733 0.0
C255 C 0.81157 0.78075 0.51152 0.0
C256 C 0.73703 0.80383 0.68342 0.0
C257 C 0.66974 0.78892 0.62801 0.0
N258 N 0.60915 0.76063 0.45478 0.0
N259 N 0.86965 0.82421 0.66168 0.0
C260 C 0.674 0.76859 0.51699 0.0
C261 C 0.80706 0.80325 0.61993 0.0
N262 N 0.75156 0.72961 0.37826 0.0
N263 N 0.73445 0.81717 0.79766 0.0
H264 H 0.92283 0.82155 0.6217 0.0
H265 H 0.86821 0.84547 0.73269 0.0
H266 H 0.68447 0.81734 0.84696 0.0
H267 H 0.78264 0.82431 0.84667 0.0
H268 H 0.70615 0.71027 0.35209 0.0
H269 H 0.80227 0.71987 0.33977 0.0
H270 H 0.60953 0.75046 0.36772 0.0
H271 H 0.55495 0.76881 0.48469 0.0
C272 C 0.18626 0.77532 0.89677 0.0
C273 C 0.22817 0.81534 0.90579 0.0
C274 C 0.1079 0.85647 0.89333 0.0
C275 C 0.06933 0.81645 0.90287 0.0
N276 N 0.06793 0.74279 0.83442 0.0
N277 N 0.22299 0.89389 0.94247 0.0
C278 C 0.10792 0.77789 0.87294 0.0
C279 C 0.18766 0.85632 0.90931 0.0
N280 N 0.21781 0.73541 0.92664 0.0
N281 N 0.0673 0.89417 0.87259 0.0
H282 H 0.27691 0.89321 0.97946 0.0
H283 H 0.19478 0.92393 0.95197 0.0
H284 H 0.00827 0.89338 0.86297 0.0
H285 H 0.09258 0.92443 0.85393 0.0
H286 H 0.1877 0.70607 0.92398 0.0
H287 H 0.26847 0.73231 0.97361 0.0
H288 H 0.09413 0.71415 0.80453 0.0
H289 H 0.0092 0.74511 0.82182 0.0
C290 C 0.2746 0.33984 0.90379 0.0
C291 C 0.23492 0.29908 0.91665 0.0
C292 C 0.3549 0.2597 0.89221 0.0
C293 C 0.39297 0.29974 0.9018 0.0
N294 N 0.39129 0.37477 0.83878 0.0
N295 N 0.24405 0.2202 0.95549 0.0
C296 C 0.35285 0.33866 0.87756 0.0
C297 C 0.27665 0.25863 0.91809 0.0
N298 N 0.24084 0.37906 0.9308 0.0
N299 N 0.39502 0.22295 0.86397 0.0
H300 H 0.1909 0.21932 0.99594 0.0
H301 H 0.27395 0.19049 0.96251 0.0
H302 H 0.45287 0.22508 0.84428 0.0
H303 H 0.36939 0.19282 0.84783 0.0
H304 H 0.26881 0.40905 0.92452 0.0
H305 H 0.19007 0.38108 0.9776 0.0
H306 H 0.36379 0.4033 0.80849 0.0
H307 H 0.44998 0.37337 0.82509 0.0
C308 C 0.77255 0.26966 0.09517 0.0
C309 C 0.73501 0.3115 0.0984 0.0
C310 C 0.85794 0.34601 0.13276 0.0
C311 C 0.89315 0.30558 0.11002 0.0
N312 N 0.88593 0.22845 0.15105 0.0
N313 N 0.74852 0.39119 0.08898 0.0
C314 C 0.85045 0.26718 0.12222 0.0
C315 C 0.77907 0.35046 0.11137 0.0
N316 N 0.73607 0.23331 0.05533 0.0
N317 N 0.90139 0.38015 0.16829 0.0
H318 H 0.69661 0.39543 0.0466 0.0
H319 H 0.77961 0.42016 0.09302 0.0
H320 H 0.95992 0.37604 0.18034 0.0
H321 H 0.87855 0.4101 0.19539 0.0
H322 H 0.7613 0.20222 0.05253 0.0
H323 H 0.68446 0.23548 0.01036 0.0
H324 H 0.85647 0.19945 0.169 0.0
H325 H 0.94423 0.2274 0.1684 0.0
C326 C 0.68985 0.75283 0.09687 0.0
C327 C 0.7297 0.79354 0.09947 0.0
C328 C 0.60893 0.83194 0.13027 0.0
C329 C 0.57101 0.79311 0.10414 0.0
N330 N 0.57113 0.71582 0.1404 0.0
N331 N 0.7193 0.87343 0.07812 0.0
C332 C 0.61058 0.75313 0.11557 0.0
C333 C 0.68744 0.83386 0.10737 0.0
N334 N 0.72517 0.71506 0.06251 0.0
N335 N 0.56831 0.86749 0.16688 0.0
H336 H 0.77055 0.87592 0.0326 0.0
H337 H 0.68953 0.90314 0.08088 0.0
H338 H 0.50963 0.86548 0.17969 0.0
H339 H 0.59397 0.89614 0.19589 0.0
H340 H 0.69712 0.68519 0.0541 0.0
H341 H 0.77837 0.71552 0.0231 0.0
H342 H 0.59719 0.68549 0.15864 0.0
H343 H 0.51266 0.71755 0.1554 0.0
loop_
_geom_bond_atom_site_label_1
_geom_bond_atom_site_label_2
_geom_bond_distance
_geom_bond_site_symmetry_2
_ccdc_geom_bond_type
Zn0 O1 2.055 1_655 S
Zn0 O8 2.046 . S
Zn0 N16 2.036 . S
Zn0 O28 2.053 . S
Zn0 O30 2.066 1_655 S
O1 Zn0 2.055 1_455 S
O1 C4 1.259 . S
C2 O30 1.256 . S
C2 O31 1.244 . S
Zn3 O5 2.046 . S
Zn3 O7 2.055 1_455 S
Zn3 N9 2.036 . S
Zn3 O27 2.066 1_455 S
Zn3 O31 2.053 . S
C4 O1 1.259 . S
C4 O5 1.254 . S
O5 Zn3 2.046 . S
O5 C4 1.254 . S
C6 O27 1.256 . S
C6 O28 1.244 . S
O7 Zn3 2.055 1_655 S
O7 C29 1.259 . S
O8 Zn0 2.046 . S
O8 C29 1.254 . S
N9 Zn3 2.036 . S
N9 C10 1.298 1_455 S
N9 N12 1.398 . S
C10 N9 1.298 1_655 S
C10 N13 1.367 . S
C10 C23 1.481 . S
C11 N12 1.299 . S
C11 N13 1.379 1_455 S
N12 N9 1.398 . S
N12 C11 1.299 . S
N13 C10 1.367 . S
N13 C11 1.379 1_655 S
C14 N16 1.298 1_455 S
C14 N18 1.367 . S
C14 C22 1.481 . S
C15 N17 1.299 . S
C15 N18 1.379 1_655 S
N16 Zn0 2.036 . S
N16 C14 1.298 1_655 S
N16 N17 1.398 . S
N17 C15 1.299 . S
N17 N16 1.398 . S
N18 C14 1.367 . S
N18 C15 1.379 1_455 S
H19 C22 0.980 . S
H20 C22 0.981 . S
H21 C22 0.981 . S
C22 C14 1.481 . S
C22 H19 0.980 . S
C22 H20 0.981 . S
C22 H21 0.981 . S
C23 C10 1.481 . S
C23 H24 0.980 . S
C23 H25 0.981 . S
C23 H26 0.981 . S
H24 C23 0.980 . S
H25 C23 0.981 . S
H26 C23 0.981 . S
O27 Zn3 2.066 1_655 S
O27 C6 1.256 . S
O28 Zn0 2.053 . S
O28 C6 1.244 . S
C29 O7 1.259 . S
C29 O8 1.254 . S
O30 Zn0 2.066 1_455 S
O30 C2 1.256 . S
O31 C2 1.244 . S
O31 Zn3 2.053 . S
Zn32 O33 2.055 . S
Zn32 O40 2.046 . S
Zn32 N48 2.036 . S
Zn32 O60 2.053 . S
Zn32 O62 2.066 . S
O33 Zn32 2.055 . S
O33 C36 1.259 . S
C34 O62 1.256 . S
C34 O63 1.244 . S
Zn35 O37 2.046 . S
Zn35 O39 2.055 . S
Zn35 N41 2.036 . S
Zn35 O59 2.066 . S
Zn35 O63 2.053 . S
C36 O33 1.259 . S
C36 O37 1.254 . S
O37 Zn35 2.046 . S
O37 C36 1.254 . S
C38 O59 1.256 . S
C38 O60 1.244 . S
O39 Zn35 2.055 . S
O39 C61 1.259 . S
O40 Zn32 2.046 . S
O40 C61 1.254 . S
N41 Zn35 2.036 . S
N41 C42 1.298 . S
N41 N44 1.398 . S
C42 N41 1.298 . S
C42 N45 1.367 . S
C42 C55 1.481 . S
C43 N44 1.299 . S
C43 N45 1.379 . S
N44 N41 1.398 . S
N44 C43 1.299 . S
N45 C42 1.367 . S
N45 C43 1.379 . S
C46 N48 1.298 . S
C46 N50 1.367 . S
C46 C54 1.481 . S
C47 N49 1.299 . S
C47 N50 1.379 . S
N48 Zn32 2.036 . S
N48 C46 1.298 . S
N48 N49 1.398 . S
N49 C47 1.299 . S
N49 N48 1.398 . S
N50 C46 1.367 . S
N50 C47 1.379 . S
H51 C54 0.980 . S
H52 C54 0.981 . S
H53 C54 0.981 . S
C54 C46 1.481 . S
C54 H51 0.980 . S
C54 H52 0.981 . S
C54 H53 0.981 . S
C55 C42 1.481 . S
C55 H56 0.980 . S
C55 H57 0.981 . S
C55 H58 0.981 . S
H56 C55 0.980 . S
H57 C55 0.981 . S
H58 C55 0.981 . S
O59 Zn35 2.066 . S
O59 C38 1.256 . S
O60 Zn32 2.053 . S
O60 C38 1.244 . S
C61 O39 1.259 . S
C61 O40 1.254 . S
O62 Zn32 2.066 . S
O62 C34 1.256 . S
O63 C34 1.244 . S
O63 Zn35 2.053 . S
Zn64 O65 2.055 1_455 S
Zn64 O72 2.046 . S
Zn64 N80 2.036 . S
Zn64 O92 2.053 . S
Zn64 O94 2.066 1_455 S
O65 Zn64 2.055 1_655 S
O65 C68 1.259 . S
C66 O94 1.256 . S
C66 O95 1.244 . S
Zn67 O69 2.046 . S
Zn67 O71 2.055 1_655 S
Zn67 N73 2.036 . S
Zn67 O91 2.066 1_655 S
Zn67 O95 2.053 . S
C68 O65 1.259 . S
C68 O69 1.254 . S
O69 Zn67 2.046 . S
O69 C68 1.254 . S
C70 O91 1.256 . S
C70 O92 1.244 . S
O71 Zn67 2.055 1_455 S
O71 C93 1.259 . S
O72 Zn64 2.046 . S
O72 C93 1.254 . S
N73 Zn67 2.036 . S
N73 C74 1.298 1_655 S
N73 N76 1.398 . S
C74 N73 1.298 1_455 S
C74 N77 1.367 . S
C74 C87 1.481 . S
C75 N76 1.299 . S
C75 N77 1.379 1_655 S
N76 N73 1.398 . S
N76 C75 1.299 . S
N77 C74 1.367 . S
N77 C75 1.379 1_455 S
C78 N80 1.298 1_655 S
C78 N82 1.367 . S
C78 C86 1.481 . S
C79 N81 1.299 . S
C79 N82 1.379 1_455 S
N80 Zn64 2.036 . S
N80 C78 1.298 1_455 S
N80 N81 1.398 . S
N81 C79 1.299 . S
N81 N80 1.398 . S
N82 C78 1.367 . S
N82 C79 1.379 1_655 S
H83 C86 0.980 . S
H84 C86 0.981 . S
H85 C86 0.981 . S
C86 C78 1.481 . S
C86 H83 0.980 . S
C86 H84 0.981 . S
C86 H85 0.981 . S
C87 C74 1.481 . S
C87 H88 0.980 . S
C87 H89 0.981 . S
C87 H90 0.981 . S
H88 C87 0.980 . S
H89 C87 0.981 . S
H90 C87 0.981 . S
O91 Zn67 2.066 1_455 S
O91 C70 1.256 . S
O92 Zn64 2.053 . S
O92 C70 1.244 . S
C93 O71 1.259 . S
C93 O72 1.254 . S
O94 Zn64 2.066 1_655 S
O94 C66 1.256 . S
O95 C66 1.244 . S
O95 Zn67 2.053 . S
Zn96 O97 2.055 . S
Zn96 O104 2.046 . S
Zn96 N112 2.036 . S
Zn96 O124 2.053 . S
Zn96 O126 2.066 . S
O97 Zn96 2.055 . S
O97 C100 1.259 . S
C98 O126 1.256 . S
C98 O127 1.244 . S
Zn99 O101 2.046 . S
Zn99 O103 2.055 . S
Zn99 N105 2.036 . S
Zn99 O123 2.066 . S
Zn99 O127 2.053 . S
C100 O97 1.259 . S
C100 O101 1.254 . S
O101 Zn99 2.046 . S
O101 C100 1.254 . S
C102 O123 1.256 . S
C102 O124 1.244 . S
O103 Zn99 2.055 . S
O103 C125 1.259 . S
O104 Zn96 2.046 . S
O104 C125 1.254 . S
N105 Zn99 2.036 . S
N105 C106 1.298 . S
N105 N108 1.398 . S
C106 N105 1.298 . S
C106 N109 1.367 . S
C106 C119 1.481 . S
C107 N108 1.299 . S
C107 N109 1.379 . S
N108 N105 1.398 . S
N108 C107 1.299 . S
N109 C106 1.367 . S
N109 C107 1.379 . S
C110 N112 1.298 . S
C110 N114 1.367 . S
C110 C118 1.481 . S
C111 N113 1.299 . S
C111 N114 1.379 . S
N112 Zn96 2.036 . S
N112 C110 1.298 . S
N112 N113 1.398 . S
N113 C111 1.299 . S
N113 N112 1.398 . S
N114 C110 1.367 . S
N114 C111 1.379 . S
H115 C118 0.980 . S
H116 C118 0.981 . S
H117 C118 0.981 . S
C118 C110 1.481 . S
C118 H115 0.980 . S
C118 H116 0.981 . S
C118 H117 0.981 . S
C119 C106 1.481 . S
C119 H120 0.980 . S
C119 H121 0.981 . S
C119 H122 0.981 . S
H120 C119 0.980 . S
H121 C119 0.981 . S
H122 C119 0.981 . S
O123 Zn99 2.066 . S
O123 C102 1.256 . S
O124 Zn96 2.053 . S
O124 C102 1.244 . S
C125 O103 1.259 . S
C125 O104 1.254 . S
O126 Zn96 2.066 . S
O126 C98 1.256 . S
O127 C98 1.244 . S
O127 Zn99 2.053 . S
C128 C129 1.363 1_554 S
C128 C134 1.379 . S
C128 N136 1.356 . S
C129 C128 1.363 1_556 S
C129 C135 1.363 1_655 S
C130 C131 1.363 1_456 S
C130 C135 1.379 . S
C130 N137 1.356 . S
C131 C130 1.363 1_654 S
C131 C134 1.363 . S
N132 C134 1.356 . S
N132 H144 0.984 . S
N132 H145 0.985 . S
N133 C135 1.356 . S
N133 H138 0.984 . S
N133 H139 0.985 . S
C134 C128 1.379 . S
C134 C131 1.363 . S
C134 N132 1.356 . S
C135 C129 1.363 1_455 S
C135 C130 1.379 . S
C135 N133 1.356 . S
N136 C128 1.356 . S
N136 H142 0.984 . S
N136 H143 0.984 1_554 S
N137 C130 1.356 . S
N137 H140 0.984 1_556 S
N137 H141 0.985 . S
H138 N133 0.984 . S
H139 N133 0.985 . S
H140 N137 0.984 1_554 S
H141 N137 0.985 . S
H142 N136 0.984 . S
H143 N136 0.984 1_556 S
H144 N132 0.984 . S
H145 N132 0.985 . S
C146 C147 1.363 1_556 S
C146 C152 1.379 . S
C146 N154 1.356 . S
C147 C146 1.363 1_554 S
C147 C153 1.363 . S
C148 C149 1.363 1_554 S
C148 C153 1.379 . S
C148 N155 1.356 . S
C149 C148 1.363 1_556 S
C149 C152 1.363 . S
N150 C152 1.356 . S
N150 H162 0.984 . S
N150 H163 0.985 . S
N151 C153 1.356 . S
N151 H156 0.984 . S
N151 H157 0.985 . S
C152 C146 1.379 . S
C152 C149 1.363 . S
C152 N150 1.356 . S
C153 C147 1.363 . S
C153 C148 1.379 . S
C153 N151 1.356 . S
N154 C146 1.356 . S
N154 H160 0.984 . S
N154 H161 0.984 1_556 S
N155 C148 1.356 . S
N155 H158 0.984 1_554 S
N155 H159 0.985 . S
H156 N151 0.984 . S
H157 N151 0.985 . S
H158 N155 0.984 1_556 S
H159 N155 0.985 . S
H160 N154 0.984 . S
H161 N154 0.984 1_554 S
H162 N150 0.984 . S
H163 N150 0.985 . S
C164 C165 1.363 1_545 S
C164 C170 1.379 . S
C164 N172 1.356 1_545 S
C165 C164 1.363 1_565 S
C165 C171 1.363 1_556 S
C166 C167 1.363 1_565 S
C166 C171 1.379 . S
C166 N173 1.356 1_565 S
C167 C166 1.363 1_545 S
C167 C170 1.363 1_554 S
N168 C170 1.356 . S
N168 H180 0.984 . S
N168 H181 0.985 1_556 S
N169 C171 1.356 . S
N169 H174 0.984 1_554 S
N169 H175 0.985 . S
C170 C164 1.379 . S
C170 C167 1.363 1_556 S
C170 N168 1.356 . S
C171 C165 1.363 1_554 S
C171 C166 1.379 . S
C171 N169 1.356 . S
N172 C164 1.356 1_565 S
N172 H178 0.984 1_565 S
N172 H179 0.984 . S
N173 C166 1.356 1_545 S
N173 H176 0.984 . S
N173 H177 0.985 1_545 S
H174 N169 0.984 1_556 S
H175 N169 0.985 . S
H176 N173 0.984 . S
H177 N173 0.985 1_565 S
H178 N172 0.984 1_545 S
H179 N172 0.984 . S
H180 N168 0.984 . S
H181 N168 0.985 1_554 S
C182 C183 1.363 1_655 S
C182 C188 1.379 1_564 S
C182 N190 1.356 . S
C183 C182 1.363 1_455 S
C183 C189 1.363 . S
C184 C185 1.363 . S
C184 C189 1.379 1_546 S
C184 N191 1.356 . S
C185 C184 1.363 . S
C185 C188 1.363 1_455 S
N186 C188 1.356 . S
N186 H198 0.984 . S
N186 H199 0.985 . S
N187 C189 1.356 . S
N187 H192 0.984 . S
N187 H193 0.985 . S
C188 C182 1.379 1_546 S
C188 C185 1.363 1_655 S
C188 N186 1.356 . S
C189 C183 1.363 . S
C189 C184 1.379 1_564 S
C189 N187 1.356 . S
N190 C182 1.356 . S
N190 H196 0.984 . S
N190 H197 0.984 . S
N191 C184 1.356 . S
N191 H194 0.984 . S
N191 H195 0.985 . S
H192 N187 0.984 . S
H193 N187 0.985 . S
H194 N191 0.984 . S
H195 N191 0.985 . S
H196 N190 0.984 . S
H197 N190 0.984 . S
H198 N186 0.984 . S
H199 N186 0.985 . S
C200 C201 1.363 . S
C200 C206 1.379 . S
C200 N208 1.356 . S
C201 C200 1.363 . S
C201 C207 1.363 . S
C202 C203 1.363 . S
C202 C207 1.379 . S
C202 N209 1.356 . S
C203 C202 1.363 . S
C203 C206 1.363 . S
N204 C206 1.356 . S
N204 H216 0.984 . S
N204 H217 0.985 . S
N205 C207 1.356 . S
N205 H210 0.984 . S
N205 H211 0.985 . S
C206 C200 1.379 . S
C206 C203 1.363 . S
C206 N204 1.356 . S
C207 C201 1.363 . S
C207 C202 1.379 . S
C207 N205 1.356 . S
N208 C200 1.356 . S
N208 H214 0.984 . S
N208 H215 0.984 . S
N209 C202 1.356 . S
N209 H212 0.984 . S
N209 H213 0.985 . S
H210 N205 0.984 . S
H211 N205 0.985 . S
H212 N209 0.984 . S
H213 N209 0.985 . S
H214 N208 0.984 . S
H215 N208 0.984 . S
H216 N204 0.984 . S
H217 N204 0.985 . S
C218 C219 1.363 . S
C218 C224 1.379 . S
C218 N226 1.356 . S
C219 C218 1.363 . S
C219 C225 1.363 . S
C220 C221 1.363 . S
C220 C225 1.379 . S
C220 N227 1.356 . S
C221 C220 1.363 . S
C221 C224 1.363 . S
N222 C224 1.356 . S
N222 H234 0.984 . S
N222 H235 0.985 . S
N223 C225 1.356 . S
N223 H228 0.984 . S
N223 H229 0.985 . S
C224 C218 1.379 . S
C224 C221 1.363 . S
C224 N222 1.356 . S
C225 C219 1.363 . S
C225 C220 1.379 . S
C225 N223 1.356 . S
N226 C218 1.356 . S
N226 H232 0.984 . S
N226 H233 0.984 . S
N227 C220 1.356 . S
N227 H230 0.984 . S
N227 H231 0.985 . S
H228 N223 0.984 . S
H229 N223 0.985 . S
H230 N227 0.984 . S
H231 N227 0.985 . S
H232 N226 0.984 . S
H233 N226 0.984 . S
H234 N222 0.984 . S
H235 N222 0.985 . S
C236 C237 1.363 . S
C236 C242 1.379 . S
C236 N244 1.356 . S
C237 C236 1.363 . S
C237 C243 1.363 . S
C238 C239 1.363 . S
C238 C243 1.379 . S
C238 N245 1.356 . S
C239 C238 1.363 . S
C239 C242 1.363 . S
N240 C242 1.356 . S
N240 H252 0.984 . S
N240 H253 0.985 . S
N241 C243 1.356 . S
N241 H246 0.984 . S
N241 H247 0.985 . S
C242 C236 1.379 . S
C242 C239 1.363 . S
C242 N240 1.356 . S
C243 C237 1.363 . S
C243 C238 1.379 . S
C243 N241 1.356 . S
N244 C236 1.356 . S
N244 H250 0.984 . S
N244 H251 0.984 . S
N245 C238 1.356 . S
N245 H248 0.984 . S
N245 H249 0.985 . S
H246 N241 0.984 . S
H247 N241 0.985 . S
H248 N245 0.984 . S
H249 N245 0.985 . S
H250 N244 0.984 . S
H251 N244 0.984 . S
H252 N240 0.984 . S
H253 N240 0.985 . S
C254 C255 1.363 . S
C254 C260 1.379 . S
C254 N262 1.356 . S
C255 C254 1.363 . S
C255 C261 1.363 . S
C256 C257 1.363 . S
C256 C261 1.379 . S
C256 N263 1.356 . S
C257 C256 1.363 . S
C257 C260 1.363 . S
N258 C260 1.356 . S
N258 H270 0.984 . S
N258 H271 0.985 . S
N259 C261 1.356 . S
N259 H264 0.984 . S
N259 H265 0.985 . S
C260 C254 1.379 . S
C260 C257 1.363 . S
C260 N258 1.356 . S
C261 C255 1.363 . S
C261 C256 1.379 . S
C261 N259 1.356 . S
N262 C254 1.356 . S
N262 H268 0.984 . S
N262 H269 0.984 . S
N263 C256 1.356 . S
N263 H266 0.984 . S
N263 H267 0.985 . S
H264 N259 0.984 . S
H265 N259 0.985 . S
H266 N263 0.984 . S
H267 N263 0.985 . S
H268 N262 0.984 . S
H269 N262 0.984 . S
H270 N258 0.984 . S
H271 N258 0.985 . S
C272 C273 1.363 . S
C272 C278 1.379 . S
C272 N280 1.356 . S
C273 C272 1.363 . S
C273 C279 1.363 1_556 S
C274 C275 1.363 . S
C274 C279 1.379 . S
C274 N281 1.356 . S
C275 C274 1.363 . S
C275 C278 1.363 1_554 S
N276 C278 1.356 . S
N276 H288 0.984 . S
N276 H289 0.985 . S
N277 C279 1.356 . S
N277 H282 0.984 . S
N277 H283 0.985 . S
C278 C272 1.379 . S
C278 C275 1.363 1_556 S
C278 N276 1.356 . S
C279 C273 1.363 1_554 S
C279 C274 1.379 . S
C279 N277 1.356 . S
N280 C272 1.356 . S
N280 H286 0.984 . S
N280 H287 0.984 . S
N281 C274 1.356 . S
N281 H284 0.984 . S
N281 H285 0.985 . S
H282 N277 0.984 . S
H283 N277 0.985 . S
H284 N281 0.984 . S
H285 N281 0.985 . S
H286 N280 0.984 . S
H287 N280 0.984 . S
H288 N276 0.984 . S
H289 N276 0.985 . S
C290 C291 1.363 . S
C290 C296 1.379 . S
C290 N298 1.356 . S
C291 C290 1.363 . S
C291 C297 1.363 1_556 S
C292 C293 1.363 . S
C292 C297 1.379 . S
C292 N299 1.356 . S
C293 C292 1.363 . S
C293 C296 1.363 1_554 S
N294 C296 1.356 . S
N294 H306 0.984 . S
N294 H307 0.985 . S
N295 C297 1.356 . S
N295 H300 0.984 . S
N295 H301 0.985 . S
C296 C290 1.379 . S
C296 C293 1.363 1_556 S
C296 N294 1.356 . S
C297 C291 1.363 1_554 S
C297 C292 1.379 . S
C297 N295 1.356 . S
N298 C290 1.356 . S
N298 H304 0.984 . S
N298 H305 0.984 . S
N299 C292 1.356 . S
N299 H302 0.984 . S
N299 H303 0.985 . S
H300 N295 0.984 . S
H301 N295 0.985 . S
H302 N299 0.984 . S
H303 N299 0.985 . S
H304 N298 0.984 . S
H305 N298 0.984 . S
H306 N294 0.984 . S
H307 N294 0.985 . S
C308 C309 1.363 . S
C308 C314 1.379 . S
C308 N316 1.356 . S
C309 C308 1.363 . S
C309 C315 1.363 1_554 S
C310 C311 1.363 . S
C310 C315 1.379 . S
C310 N317 1.356 . S
C311 C310 1.363 . S
C311 C314 1.363 1_556 S
N312 C314 1.356 . S
N312 H324 0.984 . S
N312 H325 0.985 . S
N313 C315 1.356 . S
N313 H318 0.984 . S
N313 H319 0.985 . S
C314 C308 1.379 . S
C314 C311 1.363 1_554 S
C314 N312 1.356 . S
C315 C309 1.363 1_556 S
C315 C310 1.379 . S
C315 N313 1.356 . S
N316 C308 1.356 . S
N316 H322 0.984 . S
N316 H323 0.984 . S
N317 C310 1.356 . S
N317 H320 0.984 . S
N317 H321 0.985 . S
H318 N313 0.984 . S
H319 N313 0.985 . S
H320 N317 0.984 . S
H321 N317 0.985 . S
H322 N316 0.984 . S
H323 N316 0.984 . S
H324 N312 0.984 . S
H325 N312 0.985 . S
C326 C327 1.363 1_556 S
C326 C332 1.379 . S
C326 N334 1.356 . S
C327 C326 1.363 1_554 S
C327 C333 1.363 . S
C328 C329 1.363 1_554 S
C328 C333 1.379 . S
C328 N335 1.356 . S
C329 C328 1.363 1_556 S
C329 C332 1.363 . S
N330 C332 1.356 . S
N330 H342 0.984 . S
N330 H343 0.985 . S
N331 C333 1.356 . S
N331 H336 0.984 . S
N331 H337 0.985 . S
C332 C326 1.379 . S
C332 C329 1.363 . S
C332 N330 1.356 . S
C333 C327 1.363 . S
C333 C328 1.379 . S
C333 N331 1.356 . S
N334 C326 1.356 . S
N334 H340 0.984 . S
N334 H341 0.984 . S
N335 C328 1.356 . S
N335 H338 0.984 . S
N335 H339 0.985 . S
H336 N331 0.984 . S
H337 N331 0.985 . S
H338 N335 0.984 . S
H339 N335 0.985 . S
H340 N334 0.984 . S
H341 N334 0.984 . S
H342 N330 0.984 . S
H343 N330 0.985 . S
C129 N82 1.853 . S
C131 N13 1.853 . S
C147 N45 1.853 . S
C149 N109 1.853 . S
C165 N114 1.853 . S
C167 N50 1.853 . S
C183 N18 1.853 . S
C185 N77 1.853 . S
C201 C100 1.526 . S
C203 C4 1.525 . S
C219 C93 1.526 . S
C221 C36 1.525 . S
C237 C68 1.526 . S
C239 C61 1.527 . S
C255 C29 1.526 . S
C257 C125 1.527 . S
C273 C98 1.085 . S
C275 C2 1.084 . S
C291 C70 1.085 . S
C293 C34 1.084 . S
C309 C38 1.085 . S
C311 C66 1.087 . S
C327 C6 1.085 . S
C329 C102 1.086 . S
