# Generated by pormake.
# Topology whw, (6)-cn, num edge types: 1
# Building blocks:
#     Node 0, Type 0, BuildingBlock: BETDEL_clean_sbu_0, # of connection points: 6
#     Node 1, Type 0, BuildingBlock: BETDEL_clean_sbu_0, # of connection points: 6
#     Node 2, Type 0, BuildingBlock: BETDEL_clean_sbu_0, # of connection points: 6
#     Node 3, Type 0, BuildingBlock: BETDEL_clean_sbu_0, # of connection points: 6
#     Node 4, Type 0, BuildingBlock: BETDEL_clean_sbu_0, # of connection points: 6
#     Node 5, Type 0, BuildingBlock: BETDEL_clean_sbu_0, # of connection points: 6
#     Node 6, Type 0, BuildingBlock: BETDEL_clean_sbu_0, # of connection points: 6
#     Node 7, Type 0, BuildingBlock: BETDEL_clean_sbu_0, # of connection points: 6
#     Node 8, Type 0, BuildingBlock: BETDEL_clean_sbu_0, # of connection points: 6
#     Node 9, Type 0, BuildingBlock: BETDEL_clean_sbu_0, # of connection points: 6
#     Node 10, Type 0, BuildingBlock: BETDEL_clean_sbu_0, # of connection points: 6
#     Node 11, Type 0, BuildingBlock: BETDEL_clean_sbu_0, # of connection points: 6
#     Node 12, Type 0, BuildingBlock: BETDEL_clean_sbu_0, # of connection points: 6
#     Node 13, Type 0, BuildingBlock: BETDEL_clean_sbu_0, # of connection points: 6
#     Node 14, Type 0, BuildingBlock: BETDEL_clean_sbu_0, # of connection points: 6
#     Node 15, Type 0, BuildingBlock: BETDEL_clean_sbu_0, # of connection points: 6
#     Edge 16, Type (0, 0), BuildingBlock: OJICUG_clean_linker_0, # of connection points: 2
#     Edge 17, Type (0, 0), BuildingBlock: OJICUG_clean_linker_0, # of connection points: 2
#     Edge 18, Type (0, 0), BuildingBlock: OJICUG_clean_linker_0, # of connection points: 2
#     Edge 19, Type (0, 0), BuildingBlock: OJICUG_clean_linker_0, # of connection points: 2
#     Edge 20, Type (0, 0), BuildingBlock: OJICUG_clean_linker_0, # of connection points: 2
#     Edge 21, Type (0, 0), BuildingBlock: OJICUG_clean_linker_0, # of connection points: 2
#     Edge 22, Type (0, 0), BuildingBlock: OJICUG_clean_linker_0, # of connection points: 2
#     Edge 23, Type (0, 0), BuildingBlock: OJICUG_clean_linker_0, # of connection points: 2
#     Edge 24, Type (0, 0), BuildingBlock: OJICUG_clean_linker_0, # of connection points: 2
#     Edge 25, Type (0, 0), BuildingBlock: OJICUG_clean_linker_0, # of connection points: 2
#     Edge 26, Type (0, 0), BuildingBlock: OJICUG_clean_linker_0, # of connection points: 2
#     Edge 27, Type (0, 0), BuildingBlock: OJICUG_clean_linker_0, # of connection points: 2
#     Edge 28, Type (0, 0), BuildingBlock: OJICUG_clean_linker_0, # of connection points: 2
#     Edge 29, Type (0, 0), BuildingBlock: OJICUG_clean_linker_0, # of connection points: 2
#     Edge 30, Type (0, 0), BuildingBlock: OJICUG_clean_linker_0, # of connection points: 2
#     Edge 31, Type (0, 0), BuildingBlock: OJICUG_clean_linker_0, # of connection points: 2
#     Edge 32, Type (0, 0), BuildingBlock: OJICUG_clean_linker_0, # of connection points: 2
#     Edge 33, Type (0, 0), BuildingBlock: OJICUG_clean_linker_0, # of connection points: 2
#     Edge 34, Type (0, 0), BuildingBlock: OJICUG_clean_linker_0, # of connection points: 2
#     Edge 35, Type (0, 0), BuildingBlock: OJICUG_clean_linker_0, # of connection points: 2
#     Edge 36, Type (0, 0), BuildingBlock: OJICUG_clean_linker_0, # of connection points: 2
#     Edge 37, Type (0, 0), BuildingBlock: OJICUG_clean_linker_0, # of connection points: 2
#     Edge 38, Type (0, 0), BuildingBlock: OJICUG_clean_linker_0, # of connection points: 2
#     Edge 39, Type (0, 0), BuildingBlock: OJICUG_clean_linker_0, # of connection points: 2
#     Edge 40, Type (0, 0), BuildingBlock: OJICUG_clean_linker_0, # of connection points: 2
#     Edge 41, Type (0, 0), BuildingBlock: OJICUG_clean_linker_0, # of connection points: 2
#     Edge 42, Type (0, 0), BuildingBlock: OJICUG_clean_linker_0, # of connection points: 2
#     Edge 43, Type (0, 0), BuildingBlock: OJICUG_clean_linker_0, # of connection points: 2
#     Edge 44, Type (0, 0), BuildingBlock: OJICUG_clean_linker_0, # of connection points: 2
#     Edge 45, Type (0, 0), BuildingBlock: OJICUG_clean_linker_0, # of connection points: 2
#     Edge 46, Type (0, 0), BuildingBlock: OJICUG_clean_linker_0, # of connection points: 2
#     Edge 47, Type (0, 0), BuildingBlock: OJICUG_clean_linker_0, # of connection points: 2
#     Edge 48, Type (0, 0), BuildingBlock: OJICUG_clean_linker_0, # of connection points: 2
#     Edge 49, Type (0, 0), BuildingBlock: OJICUG_clean_linker_0, # of connection points: 2
#     Edge 50, Type (0, 0), BuildingBlock: OJICUG_clean_linker_0, # of connection points: 2
#     Edge 51, Type (0, 0), BuildingBlock: OJICUG_clean_linker_0, # of connection points: 2
#     Edge 52, Type (0, 0), BuildingBlock: OJICUG_clean_linker_0, # of connection points: 2
#     Edge 53, Type (0, 0), BuildingBlock: OJICUG_clean_linker_0, # of connection points: 2
#     Edge 54, Type (0, 0), BuildingBlock: OJICUG_clean_linker_0, # of connection points: 2
#     Edge 55, Type (0, 0), BuildingBlock: OJICUG_clean_linker_0, # of connection points: 2
#     Edge 56, Type (0, 0), BuildingBlock: OJICUG_clean_linker_0, # of connection points: 2
#     Edge 57, Type (0, 0), BuildingBlock: OJICUG_clean_linker_0, # of connection points: 2
#     Edge 58, Type (0, 0), BuildingBlock: OJICUG_clean_linker_0, # of connection points: 2
#     Edge 59, Type (0, 0), BuildingBlock: OJICUG_clean_linker_0, # of connection points: 2
#     Edge 60, Type (0, 0), BuildingBlock: OJICUG_clean_linker_0, # of connection points: 2
#     Edge 61, Type (0, 0), BuildingBlock: OJICUG_clean_linker_0, # of connection points: 2
#     Edge 62, Type (0, 0), BuildingBlock: OJICUG_clean_linker_0, # of connection points: 2
#     Edge 63, Type (0, 0), BuildingBlock: OJICUG_clean_linker_0, # of connection points: 2
# Relax obj value: 0.433
# Max RMSD: 0.210
# Mean RMSD: 0.200
data_MOF--net-whw--node1-BETDEL_clean_sbu_0--edge1-OJICUG_clean_linker_0
_symmetry_space_group_name_H-M    P1
_symmetry_Int_Tables_number       1
_symmetry_cell_setting            triclinic
loop_
_symmetry_equiv_pos_as_xyz
'x, y, z'
_cell_length_a     34.684921
_cell_length_b     35.222376
_cell_length_c     19.534423
_cell_angle_alpha  87.361327
_cell_angle_beta   89.884564
_cell_angle_gamma 92.049951
loop_
_atom_site_label
_atom_site_type_symbol
_atom_site_fract_x
_atom_site_fract_y
_atom_site_fract_z
_atom_type_partial_charge
Dy0 Dy 0.0451 0.09752 0.19046 0.0
C1 C 0.91999 0.05715 1.01111 0.0
C2 C 0.0951 0.11598 0.29204 0.0
Dy3 Dy 0.9715 0.08127 0.10679 0.0
O4 O 0.07308 0.08547 0.29201 0.0
O5 O 0.09056 0.13615 0.23539 0.0
O6 O 0.07529 0.05117 0.14141 0.0
O7 O 0.01488 0.04606 0.15528 0.0
C8 C 0.04381 0.0319 0.12809 0.0
C9 C 0.97364 0.14753 0.16471 0.0
O10 O 0.9498 0.06127 0.21217 0.0
O11 O -0.00234 0.09463 0.26949 0.0
O12 O 0.91118 0.07203 0.0683 0.0
O13 O 0.95712 0.05449 1.00741 0.0
O14 O 0.94135 0.13128 0.14645 0.0
O15 O 0.00158 0.13091 0.14076 0.0
O16 O 0.06334 0.13038 0.0929 0.0
O17 O 0.01313 0.10771 1.02511 0.0
C18 C 0.96363 0.07623 0.26893 0.0
C19 C 0.04654 0.12727 1.03198 0.0
Dy20 Dy 0.11725 0.7018 0.47082 0.0
C21 C 0.12213 0.5704 0.30857 0.0
C22 C 0.13062 0.75371 0.56611 0.0
Dy23 Dy 0.10491 0.62613 0.39505 0.0
O24 O 0.14651 0.72101 0.56482 0.0
O25 O 0.10659 0.75821 0.51523 0.0
O26 O 0.17282 0.71242 0.41698 0.0
O27 O 0.15396 0.65583 0.44018 0.0
C28 C 0.17923 0.67694 0.4087 0.0
C29 C 0.04167 0.6549 0.4404 0.0
O30 O 0.10153 0.60318 0.507 0.0
O31 O 0.09132 0.6616 0.55407 0.0
O32 O 0.09123 0.57074 0.34629 0.0
O33 O 0.14368 0.60024 0.31998 0.0
O34 O 0.04142 0.61985 0.42153 0.0
O35 O 0.07225 0.67164 0.42095 0.0
O36 O 0.0944 0.72824 0.37027 0.0
O37 O 0.09727 0.67324 0.30769 0.0
C38 C 0.09072 0.62382 0.55936 0.0
C39 C 0.0916 0.71097 0.31047 0.0
Dy40 Dy 0.42756 0.85132 0.76119 0.0
C41 C 0.54815 0.90507 0.57394 0.0
C42 C 0.37585 0.82461 0.85947 0.0
Dy43 Dy 0.50016 0.87366 0.67407 0.0
O44 O 0.39539 0.85671 0.86057 0.0
O45 O 0.38441 0.8073 0.8044 0.0
O46 O 0.39697 0.89994 0.71123 0.0
O47 O 0.45692 0.90469 0.72621 0.0
C48 C 0.42832 0.92037 0.6989 0.0
C49 C 0.49903 0.80339 0.73016 0.0
O50 O 0.52351 0.88834 0.77684 0.0
O51 O 0.47676 0.85192 0.83828 0.0
O52 O 0.55776 0.88034 0.62159 0.0
O53 O 0.51245 0.91378 0.58298 0.0
O54 O 0.5308 0.82228 0.71328 0.0
O55 O 0.4707 0.82127 0.70768 0.0
O56 O 0.40726 0.82616 0.66148 0.0
O57 O 0.45867 0.85052 0.59406 0.0
C58 C 0.51086 0.87061 0.83454 0.0
C59 C 0.42459 0.83172 0.60051 0.0
Dy60 Dy 0.34735 0.23555 0.96519 0.0
C61 C 0.3656 0.37264 0.79818 0.0
C62 C 0.33005 0.18265 0.06801 0.0
Dy63 Dy 0.3744 0.31067 0.8841 0.0
O64 O 0.32062 0.21792 0.06635 0.0
O65 O 0.34853 0.1757 1.01206 0.0
O66 O 0.29141 0.23495 0.90948 0.0
O67 O 0.32022 0.28726 0.92733 0.0
C68 C 0.29214 0.27145 0.89737 0.0
C69 C 0.42835 0.2732 0.94838 0.0
O70 O 0.37708 0.3329 0.99163 0.0
O71 O 0.37125 0.27348 1.04948 0.0
O72 O 0.39856 0.3594 0.81796 0.0
O73 O 0.33761 0.35189 0.82604 0.0
O74 O 0.43359 0.30949 0.93241 0.0
O75 O 0.39883 0.25996 0.92042 0.0
O76 O 0.37154 0.2095 0.86805 0.0
O77 O 0.37863 0.26597 0.80048 0.0
C78 C 0.37919 0.31096 1.04913 0.0
C79 C 0.3794 0.22772 0.80713 0.0
Dy80 Dy 0.05042 0.83467 0.90419 0.0
C81 C 0.92171 0.8851 1.04986 0.0
C82 C 0.10611 0.82777 0.80809 0.0
Dy83 Dy 0.97204 0.84848 0.97141 0.0
O84 O 0.08029 0.85342 0.80701 0.0
O85 O 0.10242 0.80613 0.86382 0.0
O86 O 0.07791 0.88089 0.96199 0.0
O87 O 0.01978 0.88517 0.93161 0.0
C88 C 0.04691 0.90011 0.96567 0.0
C89 C 0.97635 0.78251 0.9165 0.0
O90 O 0.95652 0.86223 0.85871 0.0
O91 O 0.00843 0.83149 0.81472 0.0
O92 O 0.91201 0.85758 1.0105 0.0
O93 O 0.95871 0.89103 1.04807 0.0
O94 O 0.94281 0.79692 0.92687 0.0
O95 O 0.00262 0.8009 0.94541 0.0
O96 O 0.06058 0.79963 1.00355 0.0
O97 O 0.00634 0.81937 0.06155 0.0
C98 C 0.97394 0.84648 0.80631 0.0
C99 C 0.03968 0.8006 0.06125 0.0
Dy100 Dy 0.35405 0.71038 0.24399 0.0
C101 C 0.39081 0.61044 1.02491 0.0
C102 C 0.36899 0.75211 0.35892 0.0
Dy103 Dy 0.35735 0.64547 0.13247 0.0
O104 O 0.39405 0.73655 0.32065 0.0
O105 O 0.33435 0.74496 0.33429 0.0
O106 O 0.39844 0.74214 0.1814 0.0
O107 O 0.39761 0.68225 0.18553 0.0
C108 C 0.41276 0.71202 0.15723 0.0
C109 C 0.2927 0.64725 0.20612 0.0
O110 O 0.3773 0.61269 0.2245 0.0
O111 O 0.35536 0.65445 0.3046 0.0
O112 O 0.3538 0.61531 1.03146 0.0
O113 O 0.40857 0.62381 0.07759 0.0
O114 O 0.30361 0.61596 0.17917 0.0
O115 O 0.31432 0.67503 0.18635 0.0
O116 O 0.32707 0.74256 0.15544 0.0
O117 O 0.34396 0.69949 0.07237 0.0
C118 C 0.36887 0.62119 0.28799 0.0
C119 C 0.33109 0.73291 0.09038 0.0
Dy120 Dy 0.42849 0.10736 0.41722 0.0
C121 C 0.56627 0.07129 0.56584 0.0
C122 C 0.37215 0.11395 0.32071 0.0
Dy123 Dy 0.50752 0.10002 0.49049 0.0
O124 O 0.39922 0.08952 0.32153 0.0
O125 O 0.37508 0.13451 0.37438 0.0
O126 O 0.40076 0.06185 0.4848 0.0
O127 O 0.46039 0.06043 0.46438 0.0
C128 C 0.43292 0.04634 0.50132 0.0
C129 C 0.50004 0.16189 0.41201 0.0
O130 O 0.52717 0.08803 0.38244 0.0
O131 O 0.47108 0.106 0.32662 0.0
O132 O 0.5586 0.10715 0.55874 0.0
O133 O 0.5412 0.05101 0.53274 0.0
O134 O 0.53409 0.14941 0.42687 0.0
O135 O 0.47452 0.14454 0.44774 0.0
O136 O 0.41753 0.14401 0.50939 0.0
O137 O 0.46935 0.1233 0.57585 0.0
C138 C 0.50808 0.0967 0.32486 0.0
C139 C 0.43643 0.14234 0.56945 0.0
Dy140 Dy 0.12372 0.24087 0.63428 0.0
C141 C 0.09215 0.3632 0.81087 0.0
C142 C 0.13376 0.19028 0.53507 0.0
Dy143 Dy 0.09759 0.30734 0.71911 0.0
O144 O 0.14985 0.22406 0.53562 0.0
O145 O 0.11254 0.18379 0.5896 0.0
O146 O 0.18106 0.24092 0.68438 0.0
O147 O 0.15187 0.29255 0.67243 0.0
C148 C 0.18059 0.27641 0.69918 0.0
C149 C 0.04205 0.26875 0.65635 0.0
O150 O 0.09914 0.3376 0.61506 0.0
O151 O 0.09955 0.28235 0.5544 0.0
O152 O 0.06423 0.35033 0.77345 0.0
O153 O 0.12344 0.34561 0.7979 0.0
O154 O 0.03894 0.30417 0.67077 0.0
O155 O 0.07144 0.25541 0.68378 0.0
O156 O 0.10641 0.2073 0.7325 0.0
O157 O 0.09917 0.25912 0.80102 0.0
C158 C 0.09434 0.31947 0.55725 0.0
C159 C 0.10052 0.22169 0.79364 0.0
Dy160 Dy 0.84191 0.21014 0.73312 0.0
C161 C 0.87673 0.11037 0.51218 0.0
C162 C 0.85731 0.25151 0.84855 0.0
Dy163 Dy 0.84407 0.14567 0.62067 0.0
O164 O 0.88218 0.23585 0.81 0.0
O165 O 0.82263 0.24468 0.82388 0.0
O166 O 0.88702 0.24109 0.67094 0.0
O167 O 0.88512 0.18123 0.67488 0.0
C168 C 0.9011 0.21077 0.64712 0.0
C169 C 0.77917 0.14874 0.6934 0.0
O170 O 0.86306 0.11217 0.7125 0.0
O171 O 0.84187 0.15399 0.79314 0.0
O172 O 0.83988 0.11607 0.51892 0.0
O173 O 0.89473 0.12311 0.56515 0.0
O174 O 0.78946 0.11725 0.6664 0.0
O175 O 0.80155 0.17605 0.67437 0.0
O176 O 0.81515 0.24303 0.64534 0.0
O177 O 0.83175 0.20026 0.56156 0.0
C178 C 0.85482 0.12058 0.77612 0.0
C179 C 0.81903 0.23363 0.58013 0.0
Dy180 Dy 0.63305 0.74315 0.14206 0.0
C181 C 0.60076 0.86534 0.31884 0.0
C182 C 0.64402 0.69293 1.04256 0.0
Dy183 Dy 0.60697 0.80959 0.22706 0.0
O184 O 0.62206 0.68634 0.09615 0.0
O185 O 0.66023 0.72663 1.0441 0.0
O186 O 0.68962 0.742 0.19399 0.0
O187 O 0.66155 0.79437 0.18176 0.0
C188 C 0.68939 0.77735 0.20973 0.0
C189 C 0.55175 0.77143 0.16269 0.0
O190 O 0.60937 0.8402 0.12338 0.0
O191 O 0.60976 0.78517 0.0621 0.0
O192 O 0.57285 0.85161 0.28237 0.0
O193 O 0.63247 0.84861 0.30505 0.0
O194 O 0.54866 0.80685 0.17712 0.0
O195 O 0.58083 0.75797 0.19084 0.0
O196 O 0.61485 0.70947 0.23971 0.0
O197 O 0.60867 0.76125 0.30875 0.0
C198 C 0.60478 0.82231 0.06527 0.0
C199 C 0.60938 0.7238 0.30104 0.0
Dy200 Dy 0.6144 0.21855 0.96522 0.0
C201 C 0.60213 0.08086 0.82284 0.0
C202 C 0.63359 0.27194 0.05653 0.0
Dy203 Dy 0.59126 0.1425 0.89854 0.0
O204 O 0.64604 0.23768 0.05737 0.0
O205 O 0.61084 0.2776 1.00426 0.0
O206 O 0.66725 0.22426 0.90128 0.0
O207 O 0.64505 0.16963 0.93124 0.0
C208 C 0.66982 0.18807 0.89405 0.0
C209 C 0.53544 0.17529 0.96077 0.0
O210 O 0.5907 0.12059 1.01049 0.0
O211 O 0.59418 0.1802 0.05772 0.0
O212 O 0.5688 0.0946 0.83677 0.0
O213 O 0.6293 0.10091 0.85105 0.0
O214 O 0.53291 0.13893 0.95008 0.0
O215 O 0.56324 0.19119 0.92857 0.0
O216 O 0.58784 0.24348 0.86579 0.0
O217 O 0.58486 0.18686 0.80762 0.0
C218 C 0.58801 0.14254 0.06434 0.0
C219 C 0.58163 0.22489 0.80793 0.0
Dy220 Dy 0.86246 0.73263 0.45729 0.0
C221 C 0.87049 0.87401 0.30151 0.0
C222 C 0.84547 0.67729 0.55471 0.0
Dy223 Dy 0.88378 0.81132 0.38387 0.0
O224 O 0.82881 0.70956 0.54783 0.0
O225 O 0.87155 0.6747 0.50698 0.0
O226 O 0.80612 0.73259 0.40343 0.0
O227 O 0.83226 0.78466 0.43089 0.0
C228 C 0.80402 0.7693 0.40039 0.0
C229 C 0.94248 0.77263 0.42792 0.0
O230 O 0.8878 0.8285 0.49584 0.0
O231 O 0.89086 0.76654 0.54152 0.0
O232 O 0.90301 0.86679 0.33172 0.0
O233 O 0.84534 0.847 0.31778 0.0
O234 O 0.94682 0.80909 0.41333 0.0
O235 O 0.91053 0.7607 0.40744 0.0
O236 O 0.88212 0.70929 0.35603 0.0
O237 O 0.88806 0.76811 0.29504 0.0
C238 C 0.89532 0.80398 0.54823 0.0
C239 C 0.88878 0.72951 0.29688 0.0
Dy240 Dy 0.55808 0.59956 0.69898 0.0
C241 C 0.43037 0.5582 0.52643 0.0
C242 C 0.60946 0.61798 0.79856 0.0
Dy243 Dy 0.48273 0.58368 0.61916 0.0
O244 O 0.58874 0.58663 0.79773 0.0
O245 O 0.60304 0.63887 0.74345 0.0
O246 O 0.58571 0.5525 0.64591 0.0
O247 O 0.52611 0.54892 0.6673 0.0
C248 C 0.55329 0.53367 0.63735 0.0
C249 C 0.48633 0.64981 0.67748 0.0
O250 O 0.46274 0.56313 0.72477 0.0
O251 O 0.51153 0.59641 0.7801 0.0
O252 O 0.42274 0.57826 0.57849 0.0
O253 O 0.46681 0.55084 0.52668 0.0
O254 O 0.45363 0.6334 0.66162 0.0
O255 O 0.51385 0.63326 0.65167 0.0
O256 O 0.57509 0.63191 0.60039 0.0
O257 O 0.52322 0.61006 0.53537 0.0
C258 C 0.47745 0.57794 0.78092 0.0
C259 C 0.55705 0.62919 0.5405 0.0
Dy260 Dy 0.91671 0.3494 0.2521 0.0
C261 C 0.03852 0.40134 0.06612 0.0
C262 C 0.86412 0.32417 0.34968 0.0
Dy263 Dy -0.01015 0.3704 0.16557 0.0
O264 O 0.88441 0.35581 0.35083 0.0
O265 O 0.87255 0.30638 0.29507 0.0
O266 O 0.88755 0.39929 0.20342 0.0
O267 O 0.94758 0.40207 0.21876 0.0
C268 C 0.91952 0.41889 0.19213 0.0
C269 C -0.01293 0.30012 0.22134 0.0
O270 O 0.01321 0.38462 0.26853 0.0
O271 O 0.9658 0.34884 0.3296 0.0
O272 O 0.04774 0.37653 0.11394 0.0
O273 O 0.00284 0.41027 0.07448 0.0
O274 O 0.01927 0.31835 0.20484 0.0
O275 O 0.95921 0.3186 0.19859 0.0
O276 O 0.89594 0.32507 0.15185 0.0
O277 O 0.9481 0.34819 0.08506 0.0
C278 C 0.00019 0.36704 0.32612 0.0
C279 C 0.91359 0.33017 0.09108 0.0
Dy280 Dy 0.53706 0.34291 0.39581 0.0
C281 C 0.4018 0.38458 0.53868 0.0
C282 C 0.5941 0.33633 0.30184 0.0
Dy283 Dy 0.45943 0.35478 0.46622 0.0
O284 O 0.5694 0.36306 0.30152 0.0
O285 O 0.58824 0.31311 0.35507 0.0
O286 O 0.56754 0.38471 0.45901 0.0
O287 O 0.50885 0.39245 0.43532 0.0
C288 C 0.53727 0.40381 0.47086 0.0
C289 C 0.46231 0.29259 0.39742 0.0
O290 O 0.44073 0.36792 0.35601 0.0
O291 O 0.49569 0.34664 0.30405 0.0
O292 O 0.40943 0.3487 0.53862 0.0
O293 O 0.42619 0.40426 0.4998 0.0
O294 O 0.42944 0.30758 0.41019 0.0
O295 O 0.48899 0.30773 0.43091 0.0
O296 O 0.54637 0.30584 0.49366 0.0
O297 O 0.49601 0.32995 0.55588 0.0
C298 C 0.45942 0.35797 0.30015 0.0
C299 C 0.52766 0.30901 0.55326 0.0
Dy300 Dy 0.93235 0.60579 0.91028 0.0
C301 C 0.06878 0.56482 0.05611 0.0
C302 C 0.87623 0.61192 0.81413 0.0
Dy303 Dy 0.0104 0.59375 0.98027 0.0
O304 O 0.89859 0.58346 0.82299 0.0
O305 O 0.88362 0.63693 0.85998 0.0
O306 O 0.90165 0.56674 0.98587 0.0
O307 O 0.95973 0.55714 0.96163 0.0
C308 C 0.93189 0.54774 1.0017 0.0
C309 C 0.00905 0.65238 0.89223 0.0
O310 O 0.02617 0.57397 0.87438 0.0
O311 O 0.97219 0.59695 0.81895 0.0
O312 O 0.06261 0.60084 1.04593 0.0
O313 O 0.04236 0.54452 1.02637 0.0
O314 O 0.04131 0.63659 0.90857 0.0
O315 O -0.0177 0.64045 0.93182 0.0
O316 O 0.92461 0.64586 0.99796 0.0
O317 O 0.97524 0.62251 0.06414 0.0
C318 C 0.00746 0.58313 0.81664 0.0
C319 C 0.94393 0.644 0.05736 0.0
C320 C 0.08526 0.18351 0.97882 0.0
C321 C 0.06324 0.1496 0.97077 0.0
H322 H 0.11376 0.23287 0.92993 0.0
C323 C 0.05561 0.1386 0.90351 0.0
H324 H 0.09151 0.19317 1.02959 0.0
C325 C 0.0693 0.16096 0.84617 0.0
C326 C 0.0901 0.19556 0.85432 0.0
H327 H 0.03874 0.11277 0.89511 0.0
H328 H 0.06224 0.15186 0.79534 0.0
C329 C 0.09798 0.20639 0.92154 0.0
C330 C 0.05509 0.76592 0.25146 0.0
C331 C 0.07831 0.73384 0.24647 0.0
H332 H 0.02413 0.81096 0.19944 0.0
C333 C 0.08811 0.72399 0.17945 0.0
H334 H 0.04637 0.77462 0.30147 0.0
C335 C 0.0761 0.74569 0.1205 0.0
C336 C 0.05266 0.77762 0.12542 0.0
H337 H 0.10571 0.69968 0.1724 0.0
H338 H 0.08488 0.737 0.07053 0.0
C339 C 0.04208 0.78691 0.19241 0.0
C340 C 0.35602 0.7796 0.47628 0.0
C341 C 0.38049 0.77474 0.41982 0.0
H342 H 0.35049 0.80067 0.57798 0.0
C343 C 0.41851 0.78998 0.42305 0.0
H344 H 0.32667 0.76805 0.47603 0.0
C345 C 0.43191 0.80911 0.48039 0.0
C346 C 0.40814 0.8132 0.53798 0.0
H347 H 0.43834 0.78691 0.38091 0.0
H348 H 0.46155 0.81988 0.48 0.0
C349 C 0.3698 0.79821 0.53492 0.0
C350 C 0.38674 0.21774 0.67728 0.0
C351 C 0.39296 0.2052 0.74618 0.0
H352 H 0.394 0.20814 0.56948 0.0
C353 C 0.4137 0.17143 0.75573 0.0
H354 H 0.37122 0.24348 0.66664 0.0
C355 C 0.42799 0.15161 0.69941 0.0
C356 C 0.4212 0.16379 0.6305 0.0
H357 H 0.41976 0.16062 0.80723 0.0
H358 H 0.44413 0.12627 0.71006 0.0
C359 C 0.3999 0.19721 0.62097 0.0
C360 C 0.84645 0.88108 0.18379 0.0
C361 C 0.86918 0.89609 0.23632 0.0
H362 H 0.84655 0.86514 0.07942 0.0
C363 C 0.90057 0.92082 0.21907 0.0
H364 H 0.82131 0.8628 0.19573 0.0
C365 C 0.91465 0.92264 0.15218 0.0
C366 C 0.89735 0.89947 0.10342 0.0
H367 H 0.91782 0.93359 0.25871 0.0
H368 H 0.94212 0.93744 0.14176 0.0
C369 C 0.86098 0.8822 0.1171 0.0
C370 C 0.89493 0.06942 0.82689 0.0
C371 C 0.8635 0.09314 0.83231 0.0
H372 H 0.93765 0.038 0.88164 0.0
C373 C 0.84464 0.09507 0.8956 0.0
H374 H 0.90967 0.0671 0.77839 0.0
C375 C 0.86023 0.07787 0.95439 0.0
C376 C 0.89522 0.05928 0.95043 0.0
H377 H 0.8197 0.11243 0.90062 0.0
H378 H 0.8473 0.08291 1.00353 0.0
C379 C 0.91085 0.05263 0.88592 0.0
C380 C 0.57972 0.03416 0.74051 0.0
C381 C 0.60805 0.06078 0.76021 0.0
H382 H 0.54583 0.01434 0.65749 0.0
C383 C 0.63246 0.0788 0.7103 0.0
H384 H 0.56088 0.01973 0.77846 0.0
C385 C 0.62242 0.07746 0.64143 0.0
C386 C 0.58931 0.05653 0.62283 0.0
H387 H 0.6548 0.09924 0.72451 0.0
H388 H 0.63715 0.09678 0.60443 0.0
C389 C 0.571 0.03131 0.67125 0.0
C390 C 0.60501 0.89408 0.50065 0.0
C391 C 0.56821 0.90899 0.50736 0.0
H392 H 0.64493 0.86909 0.43359 0.0
C393 C 0.54704 0.91821 0.44812 0.0
H394 H 0.62196 0.88691 0.54562 0.0
C395 C 0.55983 0.90736 0.38432 0.0
C396 C 0.5943 0.88798 0.37895 0.0
H397 H 0.51866 0.92988 0.45179 0.0
H398 H 0.54117 0.91118 0.34031 0.0
C399 C 0.61814 0.88385 0.43655 0.0
C400 C 0.57755 0.6634 0.35401 0.0
C401 C 0.59905 0.69765 0.36177 0.0
H402 H 0.54686 0.61544 0.4036 0.0
C403 C 0.60795 0.70811 0.42881 0.0
H404 H 0.5697 0.65461 0.30333 0.0
C405 C 0.59563 0.68519 0.48628 0.0
C406 C 0.573 0.6516 0.47872 0.0
H407 H 0.62429 0.7343 0.43693 0.0
H408 H 0.60275 0.69455 0.53691 0.0
C409 C 0.56424 0.641 0.41163 0.0
C410 C 0.54776 0.2807 0.74528 0.0
C411 C 0.56835 0.24678 0.74257 0.0
H412 H 0.51834 0.32583 0.69041 0.0
C413 C 0.57529 0.2338 0.67626 0.0
H414 H 0.54128 0.29189 0.79454 0.0
C415 C 0.5629 0.25404 0.61582 0.0
C416 C 0.54182 0.28767 0.61856 0.0
H417 H 0.59085 0.20799 0.67083 0.0
H418 H 0.56934 0.24281 0.56657 0.0
C419 C 0.53433 0.30029 0.68493 0.0
C420 C 0.85843 0.29752 1.02482 0.0
C421 C 0.89698 0.31191 1.02832 0.0
H422 H 0.815 0.26807 0.96543 0.0
C423 C 0.92082 0.30739 0.97096 0.0
H424 H 0.83904 0.30029 0.06766 0.0
C425 C 0.90729 0.28848 0.91346 0.0
C426 C 0.86905 0.27386 0.90975 0.0
H427 H 0.95063 0.31767 0.97089 0.0
H428 H 0.92719 0.2851 0.87153 0.0
C429 C 0.84453 0.27913 0.96599 0.0
C430 C 0.92117 0.67313 0.24318 0.0
C431 C 0.90251 0.70821 0.23435 0.0
H432 H 0.94939 0.62674 0.19736 0.0
C433 C 0.89816 0.72207 0.16568 0.0
H434 H 0.92565 0.66106 0.2944 0.0
C435 C 0.91094 0.70139 0.10902 0.0
C436 C 0.93 0.6665 0.11819 0.0
H437 H 0.88425 0.74877 0.15546 0.0
H438 H 0.90633 0.71315 0.05762 0.0
C439 C 0.93511 0.65322 0.18687 0.0
C440 C 0.34572 0.38149 0.61575 0.0
C441 C 0.38038 0.40003 0.59466 0.0
H442 H 0.31169 0.36076 0.70132 0.0
C443 C 0.40112 0.42231 0.64065 0.0
H444 H 0.32926 0.36437 0.58065 0.0
C445 C 0.39224 0.41873 0.71033 0.0
C446 C 0.36173 0.39414 0.73295 0.0
H447 H 0.42782 0.43712 0.62508 0.0
H448 H 0.4123 0.43069 0.74669 0.0
C449 C 0.33579 0.37941 0.68498 0.0
C450 C 0.42385 0.55345 0.40062 0.0
C451 C 0.40677 0.55964 0.4642 0.0
H452 H 0.42476 0.56858 0.29317 0.0
C453 C 0.37144 0.57777 0.46601 0.0
H454 H 0.45097 0.53924 0.39791 0.0
C455 C 0.35687 0.59508 0.40649 0.0
C456 C 0.37711 0.59375 0.34445 0.0
H457 H 0.35739 0.58238 0.51437 0.0
H458 H 0.33155 0.61205 0.4101 0.0
C459 C 0.40898 0.57044 0.34075 0.0
C460 C 0.09258 0.52599 0.2278 0.0
C461 C 0.12262 0.55204 0.24276 0.0
H462 H 0.05197 0.50874 0.15203 0.0
C463 C 0.14358 0.57065 0.18868 0.0
H464 H 0.0765 0.51077 0.26869 0.0
C465 C 0.12864 0.57068 0.12258 0.0
C466 C 0.09406 0.5505 0.11024 0.0
H467 H 0.16752 0.59021 0.19874 0.0
H468 H 0.14136 0.59007 0.08344 0.0
C469 C 0.07846 0.52496 0.16103 0.0
C470 C 0.10907 0.38034 0.92948 0.0
C471 C 0.08573 0.38548 0.87144 0.0
H472 H 0.11217 0.38216 1.03879 0.0
C473 C 0.05159 0.4054 0.87668 0.0
H474 H 0.13561 0.36517 0.9266 0.0
C475 C 0.03852 0.41575 0.94062 0.0
C476 C 0.05909 0.40551 1.00006 0.0
H477 H 0.03333 0.40999 0.83235 0.0
H478 H 0.01035 0.42788 0.94404 0.0
C479 C 0.09566 0.3901 0.99366 0.0
C480 C 0.01749 0.23803 0.22453 0.0
C481 C -0.01574 0.25899 0.23106 0.0
H482 H 0.03981 0.18541 0.1963 0.0
C483 C 0.94771 0.24059 0.23116 0.0
H484 H 0.04598 0.25165 0.22545 0.0
C485 C 0.9442 0.20271 0.21465 0.0
C486 C 0.97726 0.18336 0.19828 0.0
H487 H 0.92175 0.25629 0.23739 0.0
H488 H 0.91567 0.18965 0.20937 0.0
C489 C 0.01395 0.20026 0.2076 0.0
C490 C 0.97862 0.72571 0.37358 0.0
C491 C 0.9729 0.74636 0.43197 0.0
H492 H 0.00084 0.67585 0.33331 0.0
C493 C -0.01499 0.73257 0.49618 0.0
H494 H 0.96881 0.73604 0.32372 0.0
C495 C 0.00351 0.69823 0.50166 0.0
C496 C 0.00848 0.67736 0.44318 0.0
H497 H 0.97976 0.74797 0.54164 0.0
H498 H 0.01561 0.68897 0.55048 0.0
C499 C -0.00487 0.69072 0.37949 0.0
C500 C 0.52707 0.70373 0.7152 0.0
C501 C 0.49042 0.68611 0.70956 0.0
H502 H 0.55876 0.75581 0.7292 0.0
C503 C 0.45752 0.70514 0.72806 0.0
H504 H 0.55284 0.68918 0.70212 0.0
C505 C 0.46087 0.74323 0.74329 0.0
C506 C 0.49711 0.76221 0.73998 0.0
H507 H 0.42905 0.69158 0.72556 0.0
H508 H 0.43485 0.75856 0.75134 0.0
C509 C 0.53046 0.74173 0.73095 0.0
C510 C 0.51877 0.23487 1.01008 0.0
C511 C 0.50882 0.19658 0.99954 0.0
H512 H 0.49921 0.29171 0.99971 0.0
C513 C 0.47051 0.18377 1.00388 0.0
H514 H 0.54852 0.24452 1.01094 0.0
C515 C 0.44235 0.21058 0.99909 0.0
C516 C 0.45315 0.24932 0.98968 0.0
H517 H 0.46241 0.15405 0.99851 0.0
H518 H 0.41312 0.20069 0.99092 0.0
C519 C 0.49068 0.26179 1.00381 0.0
C520 C 0.02336 0.74581 0.85646 0.0
C521 C -0.01544 0.7529 0.87025 0.0
H522 H 0.0634 0.70294 0.83977 0.0
C523 C 0.95548 0.72805 0.84791 0.0
H524 H 0.04608 0.76551 0.87007 0.0
C525 C 0.966 0.6925 0.82775 0.0
C526 C 0.0042 0.68202 0.83915 0.0
H527 H 0.92527 0.73401 0.85391 0.0
H528 H 0.94363 0.67104 0.82045 0.0
C529 C 0.0333 0.71016 0.83724 0.0
C530 C 0.49395 0.76649 0.09085 0.0
C531 C 0.52164 0.7485 0.13142 0.0
H532 H 0.43487 0.76533 0.06146 0.0
C533 C 0.51599 0.71015 0.15314 0.0
H534 H 0.49857 0.79564 0.07156 0.0
C535 C 0.47943 0.69293 0.14789 0.0
C536 C 0.44941 0.71456 0.12126 0.0
H537 H 0.53775 0.69549 0.1828 0.0
H538 H 0.47343 0.66591 0.17534 0.0
C539 C 0.45783 0.74891 0.08421 0.0
C540 C 0.4521 0.19773 0.34804 0.0
C541 C 0.49118 0.1908 0.35985 0.0
H542 H 0.41022 0.24053 0.35016 0.0
C543 C 0.51912 0.21888 0.3419 0.0
H544 H 0.43048 0.1755 0.35686 0.0
C545 C 0.50734 0.25603 0.33414 0.0
C546 C 0.46882 0.26358 0.34883 0.0
H547 H 0.54961 0.21358 0.34658 0.0
H548 H 0.52902 0.27862 0.33197 0.0
C549 C 0.44048 0.23497 0.34326 0.0
C550 C -0.01544 0.26369 0.58383 0.0
C551 C 0.01152 0.24581 0.62617 0.0
H552 H 0.92588 0.26312 0.55194 0.0
C553 C 0.0048 0.20796 0.65012 0.0
H554 H -0.01005 0.29245 0.56311 0.0
C555 C 0.96801 0.19126 0.64417 0.0
C556 C 0.93875 0.21283 0.61449 0.0
H557 H 0.02593 0.19343 0.68151 0.0
H558 H 0.96118 0.16474 0.6727 0.0
C559 C 0.94822 0.24666 0.57661 0.0
C560 C 0.07765 -0.02133 0.07966 0.0
C561 C 0.04325 -0.00243 0.08825 0.0
H562 H 0.10525 0.93252 1.03558 0.0
C563 C 0.0097 -0.01536 1.05535 0.0
H564 H 0.10399 -0.01196 0.10459 0.0
C565 C 0.01113 0.9545 1.0113 0.0
C566 C 0.04515 0.93457 1.00523 0.0
H567 H -0.01734 -0.00198 0.06292 0.0
H568 H -0.01442 0.94663 0.98276 0.0
C569 C 0.07843 0.94705 1.03969 0.0
C570 C 0.21646 0.69387 0.30382 0.0
C571 C 0.20565 0.66595 0.35447 0.0
H572 H 0.25196 0.7093 0.21729 0.0
C573 C 0.22168 0.62988 0.35324 0.0
H574 H 0.2044 0.72186 0.30279 0.0
C575 C 0.2489 0.62242 0.3025 0.0
C576 C 0.26052 0.65124 0.25382 0.0
H577 H 0.21395 0.60802 0.39216 0.0
H578 H 0.26206 0.59497 0.3032 0.0
C579 C 0.24361 0.68668 0.25445 0.0
C580 C 0.46329 0.00921 0.59801 0.0
C581 C 0.43429 0.01273 0.54851 0.0
H582 H 0.4844 -0.0234 0.68493 0.0
C583 C 0.40335 -0.01404 0.54932 0.0
H584 H 0.48565 0.03103 0.60155 0.0
C585 C 0.40157 0.95598 0.59842 0.0
C586 C 0.43081 0.95214 0.64749 0.0
H587 H 0.38021 -0.0115 0.51239 0.0
H588 H 0.37731 0.93576 0.59784 0.0
C589 C 0.46192 -0.02126 0.64668 0.0
C590 C 0.27615 0.29222 0.77886 0.0
C591 C 0.26579 0.28946 0.84834 0.0
H592 H 0.25603 0.29189 0.6753 0.0
C593 C 0.22691 0.29185 0.86688 0.0
H594 H 0.30582 0.28899 0.76341 0.0
C595 C 0.19838 0.29339 0.81646 0.0
C596 C 0.20851 0.29253 0.74702 0.0
H597 H 0.21826 0.2884 0.92021 0.0
H598 H 0.16848 0.29051 0.83224 0.0
C599 C 0.24765 0.29382 0.72847 0.0
C600 C 0.70107 0.19796 0.78133 0.0
C601 C 0.69288 0.17339 0.83843 0.0
H602 H 0.7345 0.20875 0.6904 0.0
C603 C 0.70983 0.1377 0.84334 0.0
H604 H 0.6881 0.22547 0.77578 0.0
C605 C 0.73628 0.12777 0.79308 0.0
C606 C 0.74607 0.15376 0.73854 0.0
H607 H 0.70422 0.11852 0.88745 0.0
H608 H 0.75082 0.10112 0.79919 0.0
C609 C 0.72747 0.18834 0.73221 0.0
C610 C 0.74016 0.79469 0.37244 0.0
C611 C 0.77804 0.78826 0.35187 0.0
H612 H 0.68112 0.79705 0.3413 0.0
C613 C 0.78679 0.78812 0.2818 0.0
H614 H 0.73259 0.79346 0.42637 0.0
C615 C 0.75757 0.79114 0.23317 0.0
C616 C 0.71909 0.79349 0.25402 0.0
H617 H 0.81547 0.78177 0.26481 0.0
H618 H 0.7645 0.78705 0.17994 0.0
C619 C 0.71072 0.79718 0.32367 0.0
C620 C 0.58009 0.48883 0.55681 0.0
C621 C 0.54852 0.50101 0.59374 0.0
H622 H 0.60084 0.44865 0.48821 0.0
C623 C 0.51251 0.48194 0.58811 0.0
H624 H 0.60817 0.5031 0.56018 0.0
C625 C 0.50827 0.45101 0.54614 0.0
C626 C 0.53983 0.4386 0.50971 0.0
H627 H 0.48779 0.4906 0.61673 0.0
H628 H 0.48089 0.43599 0.5446 0.0
C629 C 0.57582 0.45779 0.51543 0.0
C630 C 0.96085 0.50513 0.09206 0.0
C631 C 0.92988 0.51426 1.04923 0.0
H632 H 0.98188 0.46755 0.17192 0.0
C633 C 0.89516 0.4927 1.05546 0.0
H634 H -0.01315 0.52271 0.09117 0.0
C635 C 0.89176 0.46191 0.10265 0.0
C636 C 0.92303 0.45225 0.14453 0.0
H637 H 0.8706 0.49957 1.0236 0.0
H638 H 0.86476 0.44547 0.10584 0.0
C639 C 0.95758 0.47415 0.13924 0.0
C640 C 0.1045 0.11264 0.41816 0.0
C641 C 0.11353 0.13031 0.35388 0.0
H642 H 0.10393 0.11815 0.52693 0.0
C643 C 0.13499 0.16484 0.35053 0.0
H644 H 0.08795 0.08596 0.42208 0.0
C645 C 0.1446 0.18295 0.41059 0.0
C646 C 0.13229 0.16701 0.47454 0.0
H647 H 0.14232 0.17893 0.30152 0.0
H648 H 0.15917 0.21069 0.40654 0.0
C649 C 0.11355 0.13104 0.47814 0.0
C650 C 0.11733 0.8138 0.62191 0.0
C651 C 0.13427 0.77833 0.62418 0.0
H652 H 0.09693 0.85883 0.68002 0.0
C653 C 0.15042 0.76411 0.68568 0.0
H654 H 0.10525 0.82549 0.57472 0.0
C655 C 0.14519 0.78278 0.74616 0.0
C656 C 0.12434 0.81609 0.74519 0.0
H657 H 0.16412 0.73691 0.68832 0.0
H658 H 0.15442 0.76944 0.79416 0.0
C659 C 0.11286 0.8329 0.68212 0.0
C660 C 0.32114 0.74989 0.96734 0.0
C661 C 0.32886 0.76195 1.03373 0.0
H662 H 0.33007 0.76058 0.85966 0.0
C663 C 0.34493 0.79868 1.04144 0.0
H664 H 0.30867 0.72173 0.95991 0.0
C665 C 0.35732 0.82098 0.98368 0.0
C666 C 0.35376 0.80672 0.91781 0.0
H667 H 0.35166 0.80853 0.09191 0.0
H668 H 0.37263 0.84782 0.99108 0.0
C669 C 0.33363 0.772 0.90991 0.0
C670 C 0.35885 0.10692 0.19697 0.0
C671 C 0.3507 0.12455 0.25827 0.0
H672 H 0.35833 0.11172 0.08723 0.0
C673 C 0.32824 0.15686 0.25611 0.0
H674 H 0.37597 0.08178 0.1973 0.0
C675 C 0.3178 0.1737 0.19309 0.0
C676 C 0.33007 0.15863 0.1316 0.0
H677 H 0.32145 0.17085 0.30266 0.0
H678 H 0.30304 0.20031 0.19266 0.0
C679 C 0.34876 0.12399 0.13391 0.0
C680 C 0.90906 0.85294 0.6425 0.0
C681 C 0.91404 0.817 0.61447 0.0
H682 H 0.92225 0.89036 0.72549 0.0
C683 C 0.9383 0.79205 0.65112 0.0
H684 H 0.89059 0.87314 0.61667 0.0
C685 C 0.95778 0.80259 0.71086 0.0
C686 C 0.95249 0.83788 0.7402 0.0
H687 H 0.94289 0.76399 0.63316 0.0
H688 H 0.97685 0.78235 0.73479 0.0
C689 C 0.92726 0.86286 0.70526 0.0
C690 C 0.8779 0.08827 0.38946 0.0
C691 C 0.89696 0.0958 0.45134 0.0
H692 H 0.88378 0.07541 0.28298 0.0
C693 C 0.93717 0.09213 0.45379 0.0
H694 H 0.84696 0.09091 0.38568 0.0
C695 C 0.95806 0.08327 0.39558 0.0
C696 C 0.93957 0.07754 0.33261 0.0
H697 H 0.95292 0.0975 0.5004 0.0
H698 H -0.01082 0.08231 0.39939 0.0
C699 C 0.89899 0.07912 0.33069 0.0
C700 C 0.58593 0.13519 0.19532 0.0
C701 C 0.57032 0.12621 0.13117 0.0
H702 H 0.57983 0.13168 0.30535 0.0
C703 C 0.53464 0.10548 0.13182 0.0
H704 H 0.61278 0.15175 0.19744 0.0
C705 C 0.5148 0.09521 0.19399 0.0
C706 C 0.5306 0.10389 0.25821 0.0
H707 H 0.521 0.09879 0.08382 0.0
H708 H 0.48676 0.08079 0.19171 0.0
C709 C 0.56689 0.12355 0.25754 0.0
C710 C 0.52724 0.87173 0.96054 0.0
C711 C 0.53817 0.86503 0.89292 0.0
H712 H 0.5409 0.86537 0.06772 0.0
C713 C 0.57358 0.84779 0.88233 0.0
H714 H 0.49988 0.88434 0.97049 0.0
C715 C 0.59639 0.83559 0.93813 0.0
C716 C 0.58521 0.84174 1.00588 0.0
H717 H 0.58246 0.84151 0.83099 0.0
H718 H 0.62219 0.82021 0.9284 0.0
C719 C 0.55089 0.86099 1.0162 0.0
C720 C 0.61805 0.61459 0.92487 0.0
C721 C 0.6273 0.63245 0.86082 0.0
H722 H 0.61602 0.62018 1.03359 0.0
C723 C 0.64783 0.66751 0.8581 0.0
H724 H 0.60212 0.58754 0.92831 0.0
C725 C 0.65628 0.68586 0.91842 0.0
C726 C 0.64365 0.66967 0.982 0.0
H727 H 0.65525 0.68179 0.8093 0.0
H728 H 0.67016 0.71393 0.91477 0.0
C729 C 0.62585 0.63326 0.98508 0.0
C730 C 0.60728 0.34607 0.17747 0.0
C731 C 0.61556 0.3271 0.24037 0.0
H732 H 0.60667 0.34304 0.06821 0.0
C733 C 0.6379 0.29476 0.24112 0.0
H734 H 0.59028 0.37131 0.1756 0.0
C735 C 0.64793 0.27908 0.17956 0.0
C736 C 0.63501 0.29521 0.1169 0.0
H737 H 0.64483 0.27984 0.28902 0.0
H738 H 0.6625 0.25236 0.18156 0.0
C739 C 0.61662 0.32997 0.11595 0.0
C740 C 0.8206 0.27275 0.40016 0.0
C741 C 0.84153 0.30703 0.40789 0.0
H742 H 0.79502 0.2229 0.4505 0.0
C743 C 0.84557 0.32134 0.47363 0.0
H744 H 0.81664 0.26136 0.34996 0.0
C745 C 0.83309 0.29927 0.53152 0.0
C746 C 0.81646 0.26278 0.52394 0.0
H747 H 0.86146 0.34789 0.48081 0.0
H748 H 0.84031 0.30897 0.58189 0.0
C749 C 0.80799 0.25088 0.45774 0.0
C750 C 0.8339 0.65218 0.74155 0.0
C751 C 0.85755 0.62089 0.74849 0.0
H752 H 0.8102 0.69393 0.67279 0.0
C753 C 0.87009 0.6033 0.6896 0.0
H754 H 0.82387 0.66605 0.78629 0.0
C755 C 0.86333 0.61985 0.62469 0.0
C756 C 0.84308 0.65348 0.61822 0.0
H757 H 0.88842 0.57904 0.69372 0.0
H758 H 0.87635 0.60801 0.58033 0.0
C759 C 0.82623 0.66809 0.67658 0.0
C760 C 0.39982 0.33266 0.23807 0.0
C761 C 0.43686 0.35082 0.23497 0.0
H762 H 0.35325 0.30513 0.18359 0.0
C763 C 0.45354 0.35734 0.16931 0.0
H764 H 0.38619 0.32615 0.28734 0.0
C765 C 0.43383 0.34648 0.10928 0.0
C766 C 0.39737 0.32722 0.11269 0.0
H767 H 0.48219 0.37046 0.16434 0.0
H768 H 0.44806 0.35158 0.06015 0.0
C769 C 0.38084 0.32039 0.17831 0.0
C770 C 0.45177 0.59451 0.96582 0.0
C771 C 0.41135 0.59635 0.96419 0.0
H772 H 0.5039 0.5866 0.9104 0.0
C773 C 0.39219 0.58758 0.90308 0.0
H774 H 0.46758 0.60092 1.0119 0.0
C775 C 0.41328 0.57894 0.84415 0.0
C776 C 0.45396 0.57917 0.84513 0.0
H777 H 0.36108 0.58881 0.90001 0.0
H778 H 0.39788 0.57412 0.79699 0.0
C779 C 0.47269 0.58618 0.90736 0.0
C780 C 0.02967 0.60497 0.62504 0.0
C781 C 0.0703 0.6055 0.62176 0.0
H782 H 0.97835 0.59706 0.68675 0.0
C783 C 0.09005 0.59512 0.68247 0.0
H784 H 0.01334 0.61358 0.58008 0.0
C785 C 0.06979 0.58537 0.74452 0.0
C786 C 0.02904 0.58621 0.74836 0.0
H787 H 0.12129 0.59615 0.6828 0.0
H788 H 0.0863 0.5791 0.79038 0.0
C789 C 0.00948 0.59552 0.6868 0.0
C790 C 0.0628 0.34414 0.37423 0.0
C791 C 0.02733 0.36128 0.38471 0.0
H792 H 0.11157 0.31694 0.42045 0.0
C793 C 0.0164 0.36813 0.45226 0.0
H794 H 0.07171 0.3378 0.32294 0.0
C795 C 0.04014 0.35768 0.50798 0.0
C796 C 0.07456 0.33857 0.49777 0.0
H797 H -0.01098 0.38073 0.46212 0.0
H798 H 0.03019 0.36221 0.55946 0.0
C799 C 0.0857 0.33222 0.43008 0.0
loop_
_geom_bond_atom_site_label_1
_geom_bond_atom_site_label_2
_geom_bond_distance
_geom_bond_site_symmetry_2
_ccdc_geom_bond_type
Dy0 O4 2.398 . S
Dy0 O5 2.491 . S
Dy0 O6 2.403 . S
Dy0 O7 2.664 1_455 S
Dy0 O11 2.326 1_455 S
Dy0 O15 2.310 . S
Dy0 O16 2.351 . S
C1 O12 1.185 . S
C1 O13 1.355 . S
C2 O4 1.185 . S
C2 O5 1.355 . S
Dy3 O7 2.310 . S
Dy3 O10 2.351 . S
Dy3 O12 2.398 1_554 S
Dy3 O13 2.491 1_554 S
Dy3 O14 2.403 . S
Dy3 O15 2.664 1_655 S
Dy3 O17 2.326 1_654 S
O4 Dy0 2.398 . S
O4 C2 1.185 . S
O5 Dy0 2.491 . S
O5 C2 1.355 . S
O6 Dy0 2.403 . S
O6 C8 1.254 . S
O7 Dy0 2.664 1_655 S
O7 Dy3 2.310 . S
O7 C8 1.268 1_655 S
C8 O6 1.254 . S
C8 O7 1.268 1_455 S
C9 O14 1.254 . S
C9 O15 1.268 1_655 S
O10 Dy3 2.351 . S
O10 C18 1.249 . S
O11 Dy0 2.326 1_655 S
O11 C18 1.267 . S
O12 C1 1.185 . S
O12 Dy3 2.398 1_556 S
O13 C1 1.355 . S
O13 Dy3 2.491 1_556 S
O14 Dy3 2.403 . S
O14 C9 1.254 . S
O15 Dy0 2.310 . S
O15 Dy3 2.664 1_455 S
O15 C9 1.268 1_455 S
O16 Dy0 2.351 . S
O16 C19 1.249 1_554 S
O17 Dy3 2.326 1_456 S
O17 C19 1.267 . S
C18 O10 1.249 . S
C18 O11 1.267 . S
C19 O16 1.249 1_556 S
C19 O17 1.267 . S
Dy20 O24 2.398 . S
Dy20 O25 2.491 . S
Dy20 O26 2.403 . S
Dy20 O27 2.664 . S
Dy20 O31 2.326 . S
Dy20 O35 2.310 . S
Dy20 O36 2.351 . S
C21 O32 1.185 . S
C21 O33 1.355 . S
C22 O24 1.185 . S
C22 O25 1.355 . S
Dy23 O27 2.310 . S
Dy23 O30 2.351 . S
Dy23 O32 2.398 . S
Dy23 O33 2.491 . S
Dy23 O34 2.403 . S
Dy23 O35 2.664 . S
Dy23 O37 2.326 . S
O24 Dy20 2.398 . S
O24 C22 1.185 . S
O25 Dy20 2.491 . S
O25 C22 1.355 . S
O26 Dy20 2.403 . S
O26 C28 1.254 . S
O27 Dy20 2.664 . S
O27 Dy23 2.310 . S
O27 C28 1.268 . S
C28 O26 1.254 . S
C28 O27 1.268 . S
C29 O34 1.254 . S
C29 O35 1.268 . S
O30 Dy23 2.351 . S
O30 C38 1.249 . S
O31 Dy20 2.326 . S
O31 C38 1.267 . S
O32 C21 1.185 . S
O32 Dy23 2.398 . S
O33 C21 1.355 . S
O33 Dy23 2.491 . S
O34 Dy23 2.403 . S
O34 C29 1.254 . S
O35 Dy20 2.310 . S
O35 Dy23 2.664 . S
O35 C29 1.268 . S
O36 Dy20 2.351 . S
O36 C39 1.249 . S
O37 Dy23 2.326 . S
O37 C39 1.267 . S
C38 O30 1.249 . S
C38 O31 1.267 . S
C39 O36 1.249 . S
C39 O37 1.267 . S
Dy40 O44 2.398 . S
Dy40 O45 2.491 . S
Dy40 O46 2.403 . S
Dy40 O47 2.664 . S
Dy40 O51 2.326 . S
Dy40 O55 2.310 . S
Dy40 O56 2.351 . S
C41 O52 1.185 . S
C41 O53 1.355 . S
C42 O44 1.185 . S
C42 O45 1.355 . S
Dy43 O47 2.310 . S
Dy43 O50 2.351 . S
Dy43 O52 2.398 . S
Dy43 O53 2.491 . S
Dy43 O54 2.403 . S
Dy43 O55 2.664 . S
Dy43 O57 2.326 . S
O44 Dy40 2.398 . S
O44 C42 1.185 . S
O45 Dy40 2.491 . S
O45 C42 1.355 . S
O46 Dy40 2.403 . S
O46 C48 1.254 . S
O47 Dy40 2.664 . S
O47 Dy43 2.310 . S
O47 C48 1.268 . S
C48 O46 1.254 . S
C48 O47 1.268 . S
C49 O54 1.254 . S
C49 O55 1.268 . S
O50 Dy43 2.351 . S
O50 C58 1.249 . S
O51 Dy40 2.326 . S
O51 C58 1.267 . S
O52 C41 1.185 . S
O52 Dy43 2.398 . S
O53 C41 1.355 . S
O53 Dy43 2.491 . S
O54 Dy43 2.403 . S
O54 C49 1.254 . S
O55 Dy40 2.310 . S
O55 Dy43 2.664 . S
O55 C49 1.268 . S
O56 Dy40 2.351 . S
O56 C59 1.249 . S
O57 Dy43 2.326 . S
O57 C59 1.267 . S
C58 O50 1.249 . S
C58 O51 1.267 . S
C59 O56 1.249 . S
C59 O57 1.267 . S
Dy60 O64 2.398 1_556 S
Dy60 O65 2.491 1_556 S
Dy60 O66 2.403 . S
Dy60 O67 2.664 . S
Dy60 O71 2.326 . S
Dy60 O75 2.310 . S
Dy60 O76 2.351 . S
C61 O72 1.185 . S
C61 O73 1.355 . S
C62 O64 1.185 . S
C62 O65 1.355 . S
Dy63 O67 2.310 . S
Dy63 O70 2.351 . S
Dy63 O72 2.398 . S
Dy63 O73 2.491 . S
Dy63 O74 2.403 . S
Dy63 O75 2.664 . S
Dy63 O77 2.326 . S
O64 Dy60 2.398 1_554 S
O64 C62 1.185 . S
O65 Dy60 2.491 1_554 S
O65 C62 1.355 . S
O66 Dy60 2.403 . S
O66 C68 1.254 . S
O67 Dy60 2.664 . S
O67 Dy63 2.310 . S
O67 C68 1.268 . S
C68 O66 1.254 . S
C68 O67 1.268 . S
C69 O74 1.254 . S
C69 O75 1.268 . S
O70 Dy63 2.351 . S
O70 C78 1.249 . S
O71 Dy60 2.326 . S
O71 C78 1.267 . S
O72 C61 1.185 . S
O72 Dy63 2.398 . S
O73 C61 1.355 . S
O73 Dy63 2.491 . S
O74 Dy63 2.403 . S
O74 C69 1.254 . S
O75 Dy60 2.310 . S
O75 Dy63 2.664 . S
O75 C69 1.268 . S
O76 Dy60 2.351 . S
O76 C79 1.249 . S
O77 Dy63 2.326 . S
O77 C79 1.267 . S
C78 O70 1.249 . S
C78 O71 1.267 . S
C79 O76 1.249 . S
C79 O77 1.267 . S
Dy80 O84 2.398 . S
Dy80 O85 2.491 . S
Dy80 O86 2.403 . S
Dy80 O87 2.662 1_455 S
Dy80 O91 2.307 1_455 S
Dy80 O95 2.310 . S
Dy80 O96 2.351 . S
C81 O92 1.185 . S
C81 O93 1.355 . S
C82 O84 1.185 . S
C82 O85 1.355 . S
Dy83 O87 2.311 . S
Dy83 O90 2.351 . S
Dy83 O92 2.398 1_556 S
Dy83 O93 2.491 1_556 S
Dy83 O94 2.403 . S
Dy83 O95 2.664 1_655 S
Dy83 O97 2.326 1_655 S
O84 Dy80 2.398 . S
O84 C82 1.185 . S
O85 Dy80 2.491 . S
O85 C82 1.355 . S
O86 Dy80 2.403 . S
O86 C88 1.254 . S
O87 Dy80 2.662 1_655 S
O87 Dy83 2.311 . S
O87 C88 1.267 1_655 S
C88 O86 1.254 . S
C88 O87 1.267 1_455 S
C89 O94 1.254 . S
C89 O95 1.268 1_655 S
O90 Dy83 2.351 . S
O90 C98 1.249 . S
O91 Dy80 2.307 1_655 S
O91 C98 1.289 . S
O92 C81 1.185 . S
O92 Dy83 2.398 1_554 S
O93 C81 1.355 . S
O93 Dy83 2.491 1_554 S
O94 Dy83 2.403 . S
O94 C89 1.254 . S
O95 Dy80 2.310 . S
O95 Dy83 2.664 1_455 S
O95 C89 1.268 1_455 S
O96 Dy80 2.351 . S
O96 C99 1.249 . S
O97 Dy83 2.326 1_455 S
O97 C99 1.267 . S
C98 O90 1.249 . S
C98 O91 1.289 . S
C99 O96 1.249 . S
C99 O97 1.267 . S
Dy100 O104 2.398 . S
Dy100 O105 2.491 . S
Dy100 O106 2.403 . S
Dy100 O107 2.664 . S
Dy100 O111 2.326 . S
Dy100 O115 2.310 . S
Dy100 O116 2.351 . S
C101 O112 1.185 . S
C101 O113 1.355 . S
C102 O104 1.185 . S
C102 O105 1.355 . S
Dy103 O107 2.310 . S
Dy103 O110 2.351 . S
Dy103 O112 2.398 1_554 S
Dy103 O113 2.491 1_554 S
Dy103 O114 2.403 . S
Dy103 O115 2.664 . S
Dy103 O117 2.326 . S
O104 Dy100 2.398 . S
O104 C102 1.185 . S
O105 Dy100 2.491 . S
O105 C102 1.355 . S
O106 Dy100 2.403 . S
O106 C108 1.254 . S
O107 Dy100 2.664 . S
O107 Dy103 2.310 . S
O107 C108 1.268 . S
C108 O106 1.254 . S
C108 O107 1.268 . S
C109 O114 1.254 . S
C109 O115 1.268 . S
O110 Dy103 2.351 . S
O110 C118 1.249 . S
O111 Dy100 2.326 . S
O111 C118 1.267 . S
O112 C101 1.185 . S
O112 Dy103 2.398 1_556 S
O113 C101 1.355 . S
O113 Dy103 2.491 1_556 S
O114 Dy103 2.403 . S
O114 C109 1.254 . S
O115 Dy100 2.310 . S
O115 Dy103 2.664 . S
O115 C109 1.268 . S
O116 Dy100 2.351 . S
O116 C119 1.249 . S
O117 Dy103 2.326 . S
O117 C119 1.267 . S
C118 O110 1.249 . S
C118 O111 1.267 . S
C119 O116 1.249 . S
C119 O117 1.267 . S
Dy120 O124 2.398 . S
Dy120 O125 2.491 . S
Dy120 O126 2.403 . S
Dy120 O127 2.664 . S
Dy120 O131 2.326 . S
Dy120 O135 2.310 . S
Dy120 O136 2.351 . S
C121 O132 1.185 . S
C121 O133 1.355 . S
C122 O124 1.185 . S
C122 O125 1.355 . S
Dy123 O127 2.310 . S
Dy123 O130 2.351 . S
Dy123 O132 2.398 . S
Dy123 O133 2.491 . S
Dy123 O134 2.403 . S
Dy123 O135 2.664 . S
Dy123 O137 2.326 . S
O124 Dy120 2.398 . S
O124 C122 1.185 . S
O125 Dy120 2.491 . S
O125 C122 1.355 . S
O126 Dy120 2.403 . S
O126 C128 1.254 . S
O127 Dy120 2.664 . S
O127 Dy123 2.310 . S
O127 C128 1.268 . S
C128 O126 1.254 . S
C128 O127 1.268 . S
C129 O134 1.254 . S
C129 O135 1.268 . S
O130 Dy123 2.351 . S
O130 C138 1.249 . S
O131 Dy120 2.326 . S
O131 C138 1.267 . S
O132 C121 1.185 . S
O132 Dy123 2.398 . S
O133 C121 1.355 . S
O133 Dy123 2.491 . S
O134 Dy123 2.403 . S
O134 C129 1.254 . S
O135 Dy120 2.310 . S
O135 Dy123 2.664 . S
O135 C129 1.268 . S
O136 Dy120 2.351 . S
O136 C139 1.249 . S
O137 Dy123 2.326 . S
O137 C139 1.267 . S
C138 O130 1.249 . S
C138 O131 1.267 . S
C139 O136 1.249 . S
C139 O137 1.267 . S
Dy140 O144 2.398 . S
Dy140 O145 2.491 . S
Dy140 O146 2.403 . S
Dy140 O147 2.664 . S
Dy140 O151 2.326 . S
Dy140 O155 2.310 . S
Dy140 O156 2.351 . S
C141 O152 1.185 . S
C141 O153 1.355 . S
C142 O144 1.185 . S
C142 O145 1.355 . S
Dy143 O147 2.310 . S
Dy143 O150 2.351 . S
Dy143 O152 2.398 . S
Dy143 O153 2.491 . S
Dy143 O154 2.403 . S
Dy143 O155 2.664 . S
Dy143 O157 2.326 . S
O144 Dy140 2.398 . S
O144 C142 1.185 . S
O145 Dy140 2.491 . S
O145 C142 1.355 . S
O146 Dy140 2.403 . S
O146 C148 1.254 . S
O147 Dy140 2.664 . S
O147 Dy143 2.310 . S
O147 C148 1.268 . S
C148 O146 1.254 . S
C148 O147 1.268 . S
C149 O154 1.254 . S
C149 O155 1.268 . S
O150 Dy143 2.351 . S
O150 C158 1.249 . S
O151 Dy140 2.326 . S
O151 C158 1.267 . S
O152 C141 1.185 . S
O152 Dy143 2.398 . S
O153 C141 1.355 . S
O153 Dy143 2.491 . S
O154 Dy143 2.403 . S
O154 C149 1.254 . S
O155 Dy140 2.310 . S
O155 Dy143 2.664 . S
O155 C149 1.268 . S
O156 Dy140 2.351 . S
O156 C159 1.249 . S
O157 Dy143 2.326 . S
O157 C159 1.267 . S
C158 O150 1.249 . S
C158 O151 1.267 . S
C159 O156 1.249 . S
C159 O157 1.267 . S
Dy160 O164 2.398 . S
Dy160 O165 2.491 . S
Dy160 O166 2.403 . S
Dy160 O167 2.664 . S
Dy160 O171 2.326 . S
Dy160 O175 2.310 . S
Dy160 O176 2.351 . S
C161 O172 1.185 . S
C161 O173 1.355 . S
C162 O164 1.185 . S
C162 O165 1.355 . S
Dy163 O167 2.310 . S
Dy163 O170 2.351 . S
Dy163 O172 2.398 . S
Dy163 O173 2.491 . S
Dy163 O174 2.403 . S
Dy163 O175 2.664 . S
Dy163 O177 2.326 . S
O164 Dy160 2.398 . S
O164 C162 1.185 . S
O165 Dy160 2.491 . S
O165 C162 1.355 . S
O166 Dy160 2.403 . S
O166 C168 1.254 . S
O167 Dy160 2.664 . S
O167 Dy163 2.310 . S
O167 C168 1.268 . S
C168 O166 1.254 . S
C168 O167 1.268 . S
C169 O174 1.254 . S
C169 O175 1.268 . S
O170 Dy163 2.351 . S
O170 C178 1.249 . S
O171 Dy160 2.326 . S
O171 C178 1.267 . S
O172 C161 1.185 . S
O172 Dy163 2.398 . S
O173 C161 1.355 . S
O173 Dy163 2.491 . S
O174 Dy163 2.403 . S
O174 C169 1.254 . S
O175 Dy160 2.310 . S
O175 Dy163 2.664 . S
O175 C169 1.268 . S
O176 Dy160 2.351 . S
O176 C179 1.249 . S
O177 Dy163 2.326 . S
O177 C179 1.267 . S
C178 O170 1.249 . S
C178 O171 1.267 . S
C179 O176 1.249 . S
C179 O177 1.267 . S
Dy180 O184 2.398 1_554 S
Dy180 O185 2.491 1_554 S
Dy180 O186 2.403 . S
Dy180 O187 2.664 . S
Dy180 O191 2.326 . S
Dy180 O195 2.310 . S
Dy180 O196 2.351 . S
C181 O192 1.185 . S
C181 O193 1.355 . S
C182 O184 1.185 . S
C182 O185 1.355 . S
Dy183 O187 2.310 . S
Dy183 O190 2.351 . S
Dy183 O192 2.398 . S
Dy183 O193 2.491 . S
Dy183 O194 2.403 . S
Dy183 O195 2.664 . S
Dy183 O197 2.326 . S
O184 Dy180 2.398 1_556 S
O184 C182 1.185 . S
O185 Dy180 2.491 1_556 S
O185 C182 1.355 . S
O186 Dy180 2.403 . S
O186 C188 1.254 . S
O187 Dy180 2.664 . S
O187 Dy183 2.310 . S
O187 C188 1.268 . S
C188 O186 1.254 . S
C188 O187 1.268 . S
C189 O194 1.254 . S
C189 O195 1.268 . S
O190 Dy183 2.351 . S
O190 C198 1.249 . S
O191 Dy180 2.326 . S
O191 C198 1.267 . S
O192 C181 1.185 . S
O192 Dy183 2.398 . S
O193 C181 1.355 . S
O193 Dy183 2.491 . S
O194 Dy183 2.403 . S
O194 C189 1.254 . S
O195 Dy180 2.310 . S
O195 Dy183 2.664 . S
O195 C189 1.268 . S
O196 Dy180 2.351 . S
O196 C199 1.249 . S
O197 Dy183 2.326 . S
O197 C199 1.267 . S
C198 O190 1.249 . S
C198 O191 1.267 . S
C199 O196 1.249 . S
C199 O197 1.267 . S
Dy200 O204 2.393 1_556 S
Dy200 O205 2.491 1_556 S
Dy200 O206 2.403 . S
Dy200 O207 2.664 . S
Dy200 O211 2.326 . S
Dy200 O215 2.310 . S
Dy200 O216 2.351 . S
C201 O212 1.185 . S
C201 O213 1.355 . S
C202 O204 1.188 . S
C202 O205 1.355 . S
Dy203 O207 2.310 . S
Dy203 O210 2.351 . S
Dy203 O212 2.398 . S
Dy203 O213 2.491 . S
Dy203 O214 2.403 . S
Dy203 O215 2.664 . S
Dy203 O217 2.326 . S
O204 Dy200 2.393 1_554 S
O204 C202 1.188 . S
O205 Dy200 2.491 1_554 S
O205 C202 1.355 . S
O206 Dy200 2.403 . S
O206 C208 1.254 . S
O207 Dy200 2.664 . S
O207 Dy203 2.310 . S
O207 C208 1.268 . S
C208 O206 1.254 . S
C208 O207 1.268 . S
C209 O214 1.254 . S
C209 O215 1.268 . S
O210 Dy203 2.351 . S
O210 C218 1.249 . S
O211 Dy200 2.326 . S
O211 C218 1.267 . S
O212 C201 1.185 . S
O212 Dy203 2.398 . S
O213 C201 1.355 . S
O213 Dy203 2.491 . S
O214 Dy203 2.403 . S
O214 C209 1.254 . S
O215 Dy200 2.310 . S
O215 Dy203 2.664 . S
O215 C209 1.268 . S
O216 Dy200 2.351 . S
O216 C219 1.249 . S
O217 Dy203 2.326 . S
O217 C219 1.267 . S
C218 O210 1.249 . S
C218 O211 1.267 . S
C219 O216 1.249 . S
C219 O217 1.267 . S
Dy220 O224 2.398 . S
Dy220 O225 2.491 . S
Dy220 O226 2.403 . S
Dy220 O227 2.664 . S
Dy220 O231 2.326 . S
Dy220 O235 2.310 . S
Dy220 O236 2.351 . S
C221 O232 1.185 . S
C221 O233 1.355 . S
C222 O224 1.185 . S
C222 O225 1.355 . S
Dy223 O227 2.310 . S
Dy223 O230 2.351 . S
Dy223 O232 2.398 . S
Dy223 O233 2.491 . S
Dy223 O234 2.403 . S
Dy223 O235 2.664 . S
Dy223 O237 2.326 . S
O224 Dy220 2.398 . S
O224 C222 1.185 . S
O225 Dy220 2.491 . S
O225 C222 1.355 . S
O226 Dy220 2.403 . S
O226 C228 1.254 . S
O227 Dy220 2.664 . S
O227 Dy223 2.310 . S
O227 C228 1.268 . S
C228 O226 1.254 . S
C228 O227 1.268 . S
C229 O234 1.254 . S
C229 O235 1.268 . S
O230 Dy223 2.351 . S
O230 C238 1.249 . S
O231 Dy220 2.326 . S
O231 C238 1.267 . S
O232 C221 1.185 . S
O232 Dy223 2.398 . S
O233 C221 1.355 . S
O233 Dy223 2.491 . S
O234 Dy223 2.403 . S
O234 C229 1.254 . S
O235 Dy220 2.310 . S
O235 Dy223 2.664 . S
O235 C229 1.268 . S
O236 Dy220 2.351 . S
O236 C239 1.249 . S
O237 Dy223 2.326 . S
O237 C239 1.267 . S
C238 O230 1.249 . S
C238 O231 1.267 . S
C239 O236 1.249 . S
C239 O237 1.267 . S
Dy240 O244 2.398 . S
Dy240 O245 2.491 . S
Dy240 O246 2.403 . S
Dy240 O247 2.664 . S
Dy240 O251 2.326 . S
Dy240 O255 2.310 . S
Dy240 O256 2.351 . S
C241 O252 1.185 . S
C241 O253 1.355 . S
C242 O244 1.185 . S
C242 O245 1.355 . S
Dy243 O247 2.310 . S
Dy243 O250 2.351 . S
Dy243 O252 2.398 . S
Dy243 O253 2.491 . S
Dy243 O254 2.403 . S
Dy243 O255 2.664 . S
Dy243 O257 2.326 . S
O244 Dy240 2.398 . S
O244 C242 1.185 . S
O245 Dy240 2.491 . S
O245 C242 1.355 . S
O246 Dy240 2.403 . S
O246 C248 1.254 . S
O247 Dy240 2.664 . S
O247 Dy243 2.310 . S
O247 C248 1.268 . S
C248 O246 1.254 . S
C248 O247 1.268 . S
C249 O254 1.254 . S
C249 O255 1.268 . S
O250 Dy243 2.351 . S
O250 C258 1.249 . S
O251 Dy240 2.326 . S
O251 C258 1.267 . S
O252 C241 1.185 . S
O252 Dy243 2.398 . S
O253 C241 1.355 . S
O253 Dy243 2.491 . S
O254 Dy243 2.403 . S
O254 C249 1.254 . S
O255 Dy240 2.310 . S
O255 Dy243 2.664 . S
O255 C249 1.268 . S
O256 Dy240 2.351 . S
O256 C259 1.249 . S
O257 Dy243 2.326 . S
O257 C259 1.267 . S
C258 O250 1.249 . S
C258 O251 1.267 . S
C259 O256 1.249 . S
C259 O257 1.267 . S
Dy260 O264 2.398 . S
Dy260 O265 2.491 . S
Dy260 O266 2.403 . S
Dy260 O267 2.664 1_655 S
Dy260 O271 2.326 1_655 S
Dy260 O275 2.310 . S
Dy260 O276 2.351 . S
C261 O272 1.185 1_556 S
C261 O273 1.355 . S
C262 O264 1.185 . S
C262 O265 1.355 . S
Dy263 O267 2.310 . S
Dy263 O270 2.351 . S
Dy263 O272 2.398 . S
Dy263 O273 2.491 1_554 S
Dy263 O274 2.403 . S
Dy263 O275 2.664 1_455 S
Dy263 O277 2.326 1_455 S
O264 Dy260 2.398 . S
O264 C262 1.185 . S
O265 Dy260 2.491 . S
O265 C262 1.355 . S
O266 Dy260 2.403 . S
O266 C268 1.254 . S
O267 Dy260 2.664 1_455 S
O267 Dy263 2.310 . S
O267 C268 1.268 1_455 S
C268 O266 1.254 . S
C268 O267 1.268 1_655 S
C269 O274 1.254 . S
C269 O275 1.268 1_455 S
O270 Dy263 2.351 . S
O270 C278 1.249 . S
O271 Dy260 2.326 1_455 S
O271 C278 1.267 . S
O272 C261 1.185 1_554 S
O272 Dy263 2.398 . S
O273 C261 1.355 . S
O273 Dy263 2.491 1_556 S
O274 Dy263 2.403 . S
O274 C269 1.254 . S
O275 Dy260 2.310 . S
O275 Dy263 2.664 1_655 S
O275 C269 1.268 1_655 S
O276 Dy260 2.351 . S
O276 C279 1.249 . S
O277 Dy263 2.326 1_655 S
O277 C279 1.267 . S
C278 O270 1.249 . S
C278 O271 1.267 . S
C279 O276 1.249 . S
C279 O277 1.267 . S
Dy280 O284 2.398 . S
Dy280 O285 2.491 . S
Dy280 O286 2.403 . S
Dy280 O287 2.664 . S
Dy280 O291 2.326 . S
Dy280 O295 2.310 . S
Dy280 O296 2.351 . S
C281 O292 1.185 . S
C281 O293 1.355 . S
C282 O284 1.185 . S
C282 O285 1.355 . S
Dy283 O287 2.310 . S
Dy283 O290 2.351 . S
Dy283 O292 2.398 . S
Dy283 O293 2.491 . S
Dy283 O294 2.403 . S
Dy283 O295 2.664 . S
Dy283 O297 2.326 . S
O284 Dy280 2.398 . S
O284 C282 1.185 . S
O285 Dy280 2.491 . S
O285 C282 1.355 . S
O286 Dy280 2.403 . S
O286 C288 1.254 . S
O287 Dy280 2.664 . S
O287 Dy283 2.310 . S
O287 C288 1.268 . S
C288 O286 1.254 . S
C288 O287 1.268 . S
C289 O294 1.254 . S
C289 O295 1.268 . S
O290 Dy283 2.351 . S
O290 C298 1.249 . S
O291 Dy280 2.326 . S
O291 C298 1.267 . S
O292 C281 1.185 . S
O292 Dy283 2.398 . S
O293 C281 1.355 . S
O293 Dy283 2.491 . S
O294 Dy283 2.403 . S
O294 C289 1.254 . S
O295 Dy280 2.310 . S
O295 Dy283 2.664 . S
O295 C289 1.268 . S
O296 Dy280 2.351 . S
O296 C299 1.249 . S
O297 Dy283 2.326 . S
O297 C299 1.267 . S
C298 O290 1.249 . S
C298 O291 1.267 . S
C299 O296 1.249 . S
C299 O297 1.267 . S
Dy300 O304 2.398 . S
Dy300 O305 2.491 . S
Dy300 O306 2.403 . S
Dy300 O307 2.664 1_655 S
Dy300 O311 2.326 1_655 S
Dy300 O315 2.310 . S
Dy300 O316 2.351 . S
C301 O312 1.185 . S
C301 O313 1.355 . S
C302 O304 1.185 . S
C302 O305 1.355 . S
Dy303 O307 2.310 . S
Dy303 O310 2.351 . S
Dy303 O312 2.398 1_556 S
Dy303 O313 2.491 1_556 S
Dy303 O314 2.403 . S
Dy303 O315 2.664 1_455 S
Dy303 O317 2.326 1_455 S
O304 Dy300 2.398 . S
O304 C302 1.185 . S
O305 Dy300 2.491 . S
O305 C302 1.355 . S
O306 Dy300 2.403 . S
O306 C308 1.254 . S
O307 Dy300 2.664 1_455 S
O307 Dy303 2.310 . S
O307 C308 1.268 1_455 S
C308 O306 1.254 . S
C308 O307 1.268 1_655 S
C309 O314 1.254 . S
C309 O315 1.268 1_455 S
O310 Dy303 2.351 . S
O310 C318 1.249 . S
O311 Dy300 2.326 1_455 S
O311 C318 1.267 . S
O312 C301 1.185 . S
O312 Dy303 2.398 1_554 S
O313 C301 1.355 . S
O313 Dy303 2.491 1_554 S
O314 Dy303 2.403 . S
O314 C309 1.254 . S
O315 Dy300 2.310 . S
O315 Dy303 2.664 1_655 S
O315 C309 1.268 1_655 S
O316 Dy300 2.351 . S
O316 C319 1.249 . S
O317 Dy303 2.326 1_655 S
O317 C319 1.267 . S
C318 O310 1.249 . S
C318 O311 1.267 . S
C319 O316 1.249 . S
C319 O317 1.267 . S
C320 C321 1.387 . S
C320 H324 0.950 . S
C320 C329 1.390 . S
C321 C320 1.387 . S
C321 C323 1.387 . S
H322 C329 0.950 . S
C323 C321 1.387 . S
C323 C325 1.390 . S
C323 H327 0.950 . S
H324 C320 0.950 . S
C325 C323 1.390 . S
C325 C326 1.387 . S
C325 H328 0.950 . S
C326 C325 1.387 . S
C326 C329 1.387 . S
H327 C323 0.950 . S
H328 C325 0.950 . S
C329 C320 1.390 . S
C329 H322 0.950 . S
C329 C326 1.387 . S
C330 C331 1.387 . S
C330 H334 0.950 . S
C330 C339 1.390 . S
C331 C330 1.387 . S
C331 C333 1.387 . S
H332 C339 0.950 . S
C333 C331 1.387 . S
C333 C335 1.390 . S
C333 H337 0.950 . S
H334 C330 0.950 . S
C335 C333 1.390 . S
C335 C336 1.387 . S
C335 H338 0.950 . S
C336 C335 1.387 . S
C336 C339 1.387 . S
H337 C333 0.950 . S
H338 C335 0.950 . S
C339 C330 1.390 . S
C339 H332 0.950 . S
C339 C336 1.387 . S
C340 C341 1.387 . S
C340 H344 0.950 . S
C340 C349 1.390 . S
C341 C340 1.387 . S
C341 C343 1.387 . S
H342 C349 0.950 . S
C343 C341 1.387 . S
C343 C345 1.390 . S
C343 H347 0.950 . S
H344 C340 0.950 . S
C345 C343 1.390 . S
C345 C346 1.387 . S
C345 H348 0.950 . S
C346 C345 1.387 . S
C346 C349 1.387 . S
H347 C343 0.950 . S
H348 C345 0.950 . S
C349 C340 1.390 . S
C349 H342 0.950 . S
C349 C346 1.387 . S
C350 C351 1.387 . S
C350 H354 0.950 . S
C350 C359 1.390 . S
C351 C350 1.387 . S
C351 C353 1.387 . S
H352 C359 0.950 . S
C353 C351 1.387 . S
C353 C355 1.390 . S
C353 H357 0.950 . S
H354 C350 0.950 . S
C355 C353 1.390 . S
C355 C356 1.387 . S
C355 H358 0.950 . S
C356 C355 1.387 . S
C356 C359 1.387 . S
H357 C353 0.950 . S
H358 C355 0.950 . S
C359 C350 1.390 . S
C359 H352 0.950 . S
C359 C356 1.387 . S
C360 C361 1.387 . S
C360 H364 0.950 . S
C360 C369 1.390 . S
C361 C360 1.387 . S
C361 C363 1.387 . S
H362 C369 0.950 . S
C363 C361 1.387 . S
C363 C365 1.390 . S
C363 H367 0.950 . S
H364 C360 0.950 . S
C365 C363 1.390 . S
C365 C366 1.387 . S
C365 H368 0.950 . S
C366 C365 1.387 . S
C366 C369 1.387 . S
H367 C363 0.950 . S
H368 C365 0.950 . S
C369 C360 1.390 . S
C369 H362 0.950 . S
C369 C366 1.387 . S
C370 C371 1.387 . S
C370 H374 0.950 . S
C370 C379 1.390 . S
C371 C370 1.387 . S
C371 C373 1.387 . S
H372 C379 0.950 . S
C373 C371 1.387 . S
C373 C375 1.390 . S
C373 H377 0.950 . S
H374 C370 0.950 . S
C375 C373 1.390 . S
C375 C376 1.387 . S
C375 H378 0.950 . S
C376 C375 1.387 . S
C376 C379 1.387 . S
H377 C373 0.950 . S
H378 C375 0.950 . S
C379 C370 1.390 . S
C379 H372 0.950 . S
C379 C376 1.387 . S
C380 C381 1.387 . S
C380 H384 0.950 . S
C380 C389 1.390 . S
C381 C380 1.387 . S
C381 C383 1.387 . S
H382 C389 0.950 . S
C383 C381 1.387 . S
C383 C385 1.390 . S
C383 H387 0.950 . S
H384 C380 0.950 . S
C385 C383 1.390 . S
C385 C386 1.387 . S
C385 H388 0.950 . S
C386 C385 1.387 . S
C386 C389 1.387 . S
H387 C383 0.950 . S
H388 C385 0.950 . S
C389 C380 1.390 . S
C389 H382 0.950 . S
C389 C386 1.387 . S
C390 C391 1.387 . S
C390 H394 0.950 . S
C390 C399 1.390 . S
C391 C390 1.387 . S
C391 C393 1.387 . S
H392 C399 0.950 . S
C393 C391 1.387 . S
C393 C395 1.390 . S
C393 H397 0.950 . S
H394 C390 0.950 . S
C395 C393 1.390 . S
C395 C396 1.387 . S
C395 H398 0.950 . S
C396 C395 1.387 . S
C396 C399 1.387 . S
H397 C393 0.950 . S
H398 C395 0.950 . S
C399 C390 1.390 . S
C399 H392 0.950 . S
C399 C396 1.387 . S
C400 C401 1.387 . S
C400 H404 0.950 . S
C400 C409 1.390 . S
C401 C400 1.387 . S
C401 C403 1.387 . S
H402 C409 0.950 . S
C403 C401 1.387 . S
C403 C405 1.390 . S
C403 H407 0.950 . S
H404 C400 0.950 . S
C405 C403 1.390 . S
C405 C406 1.387 . S
C405 H408 0.950 . S
C406 C405 1.387 . S
C406 C409 1.387 . S
H407 C403 0.950 . S
H408 C405 0.950 . S
C409 C400 1.390 . S
C409 H402 0.950 . S
C409 C406 1.387 . S
C410 C411 1.387 . S
C410 H414 0.950 . S
C410 C419 1.390 . S
C411 C410 1.387 . S
C411 C413 1.387 . S
H412 C419 0.950 . S
C413 C411 1.387 . S
C413 C415 1.390 . S
C413 H417 0.950 . S
H414 C410 0.950 . S
C415 C413 1.390 . S
C415 C416 1.387 . S
C415 H418 0.950 . S
C416 C415 1.387 . S
C416 C419 1.387 . S
H417 C413 0.950 . S
H418 C415 0.950 . S
C419 C410 1.390 . S
C419 H412 0.950 . S
C419 C416 1.387 . S
C420 C421 1.387 . S
C420 H424 0.950 . S
C420 C429 1.390 . S
C421 C420 1.387 . S
C421 C423 1.387 . S
H422 C429 0.950 . S
C423 C421 1.387 . S
C423 C425 1.390 . S
C423 H427 0.950 . S
H424 C420 0.950 . S
C425 C423 1.390 . S
C425 C426 1.387 . S
C425 H428 0.950 . S
C426 C425 1.387 . S
C426 C429 1.387 . S
H427 C423 0.950 . S
H428 C425 0.950 . S
C429 C420 1.390 . S
C429 H422 0.950 . S
C429 C426 1.387 . S
C430 C431 1.387 . S
C430 H434 0.950 . S
C430 C439 1.390 . S
C431 C430 1.387 . S
C431 C433 1.387 . S
H432 C439 0.950 . S
C433 C431 1.387 . S
C433 C435 1.390 . S
C433 H437 0.950 . S
H434 C430 0.950 . S
C435 C433 1.390 . S
C435 C436 1.387 . S
C435 H438 0.950 . S
C436 C435 1.387 . S
C436 C439 1.387 . S
H437 C433 0.950 . S
H438 C435 0.950 . S
C439 C430 1.390 . S
C439 H432 0.950 . S
C439 C436 1.387 . S
C440 C441 1.387 . S
C440 H444 0.950 . S
C440 C449 1.390 . S
C441 C440 1.387 . S
C441 C443 1.387 . S
H442 C449 0.950 . S
C443 C441 1.387 . S
C443 C445 1.390 . S
C443 H447 0.950 . S
H444 C440 0.950 . S
C445 C443 1.390 . S
C445 C446 1.387 . S
C445 H448 0.950 . S
C446 C445 1.387 . S
C446 C449 1.387 . S
H447 C443 0.950 . S
H448 C445 0.950 . S
C449 C440 1.390 . S
C449 H442 0.950 . S
C449 C446 1.387 . S
C450 C451 1.387 . S
C450 H454 0.950 . S
C450 C459 1.390 . S
C451 C450 1.387 . S
C451 C453 1.387 . S
H452 C459 0.950 . S
C453 C451 1.387 . S
C453 C455 1.390 . S
C453 H457 0.950 . S
H454 C450 0.950 . S
C455 C453 1.390 . S
C455 C456 1.387 . S
C455 H458 0.950 . S
C456 C455 1.387 . S
C456 C459 1.387 . S
H457 C453 0.950 . S
H458 C455 0.950 . S
C459 C450 1.390 . S
C459 H452 0.950 . S
C459 C456 1.387 . S
C460 C461 1.387 . S
C460 H464 0.950 . S
C460 C469 1.390 . S
C461 C460 1.387 . S
C461 C463 1.387 . S
H462 C469 0.950 . S
C463 C461 1.387 . S
C463 C465 1.390 . S
C463 H467 0.950 . S
H464 C460 0.950 . S
C465 C463 1.390 . S
C465 C466 1.387 . S
C465 H468 0.950 . S
C466 C465 1.387 . S
C466 C469 1.387 . S
H467 C463 0.950 . S
H468 C465 0.950 . S
C469 C460 1.390 . S
C469 H462 0.950 . S
C469 C466 1.387 . S
C470 C471 1.387 . S
C470 H474 0.950 . S
C470 C479 1.390 . S
C471 C470 1.387 . S
C471 C473 1.387 . S
H472 C479 0.950 . S
C473 C471 1.387 . S
C473 C475 1.390 . S
C473 H477 0.950 . S
H474 C470 0.950 . S
C475 C473 1.390 . S
C475 C476 1.387 . S
C475 H478 0.950 . S
C476 C475 1.387 . S
C476 C479 1.387 . S
H477 C473 0.950 . S
H478 C475 0.950 . S
C479 C470 1.390 . S
C479 H472 0.950 . S
C479 C476 1.387 . S
C480 C481 1.387 . S
C480 H484 0.950 . S
C480 C489 1.390 . S
C481 C480 1.387 . S
C481 C483 1.387 1_455 S
H482 C489 0.950 . S
C483 C481 1.387 1_655 S
C483 C485 1.390 . S
C483 H487 0.950 . S
H484 C480 0.950 . S
C485 C483 1.390 . S
C485 C486 1.387 1_655 S
C485 H488 0.950 . S
C486 C485 1.387 1_455 S
C486 C489 1.387 . S
H487 C483 0.950 . S
H488 C485 0.950 . S
C489 C480 1.390 . S
C489 H482 0.950 . S
C489 C486 1.387 . S
C490 C491 1.387 . S
C490 H494 0.950 . S
C490 C499 1.390 1_655 S
C491 C490 1.387 . S
C491 C493 1.387 . S
H492 C499 0.950 . S
C493 C491 1.387 . S
C493 C495 1.390 1_655 S
C493 H497 0.950 . S
H494 C490 0.950 . S
C495 C493 1.390 1_455 S
C495 C496 1.387 . S
C495 H498 0.950 . S
C496 C495 1.387 . S
C496 C499 1.387 . S
H497 C493 0.950 . S
H498 C495 0.950 . S
C499 C490 1.390 1_455 S
C499 H492 0.950 . S
C499 C496 1.387 . S
C500 C501 1.387 . S
C500 H504 0.950 . S
C500 C509 1.390 . S
C501 C500 1.387 . S
C501 C503 1.387 . S
H502 C509 0.950 . S
C503 C501 1.387 . S
C503 C505 1.390 . S
C503 H507 0.950 . S
H504 C500 0.950 . S
C505 C503 1.390 . S
C505 C506 1.387 . S
C505 H508 0.950 . S
C506 C505 1.387 . S
C506 C509 1.387 . S
H507 C503 0.950 . S
H508 C505 0.950 . S
C509 C500 1.390 . S
C509 H502 0.950 . S
C509 C506 1.387 . S
C510 C511 1.387 . S
C510 H514 0.950 . S
C510 C519 1.390 . S
C511 C510 1.387 . S
C511 C513 1.387 . S
H512 C519 0.950 . S
C513 C511 1.387 . S
C513 C515 1.390 . S
C513 H517 0.950 . S
H514 C510 0.950 . S
C515 C513 1.390 . S
C515 C516 1.387 . S
C515 H518 0.950 . S
C516 C515 1.387 . S
C516 C519 1.387 . S
H517 C513 0.950 . S
H518 C515 0.950 . S
C519 C510 1.390 . S
C519 H512 0.950 . S
C519 C516 1.387 . S
C520 C521 1.387 . S
C520 H524 0.950 . S
C520 C529 1.390 . S
C521 C520 1.387 . S
C521 C523 1.387 1_455 S
H522 C529 0.950 . S
C523 C521 1.387 1_655 S
C523 C525 1.390 . S
C523 H527 0.950 . S
H524 C520 0.950 . S
C525 C523 1.390 . S
C525 C526 1.387 1_655 S
C525 H528 0.950 . S
C526 C525 1.387 1_455 S
C526 C529 1.387 . S
H527 C523 0.950 . S
H528 C525 0.950 . S
C529 C520 1.390 . S
C529 H522 0.950 . S
C529 C526 1.387 . S
C530 C531 1.387 . S
C530 H534 0.950 . S
C530 C539 1.390 . S
C531 C530 1.387 . S
C531 C533 1.387 . S
H532 C539 0.950 . S
C533 C531 1.387 . S
C533 C535 1.390 . S
C533 H537 0.950 . S
H534 C530 0.950 . S
C535 C533 1.390 . S
C535 C536 1.387 . S
C535 H538 0.950 . S
C536 C535 1.387 . S
C536 C539 1.387 . S
H537 C533 0.950 . S
H538 C535 0.950 . S
C539 C530 1.390 . S
C539 H532 0.950 . S
C539 C536 1.387 . S
C540 C541 1.387 . S
C540 H544 0.950 . S
C540 C549 1.390 . S
C541 C540 1.387 . S
C541 C543 1.387 . S
H542 C549 0.950 . S
C543 C541 1.387 . S
C543 C545 1.390 . S
C543 H547 0.950 . S
H544 C540 0.950 . S
C545 C543 1.390 . S
C545 C546 1.387 . S
C545 H548 0.950 . S
C546 C545 1.387 . S
C546 C549 1.387 . S
H547 C543 0.950 . S
H548 C545 0.950 . S
C549 C540 1.390 . S
C549 H542 0.950 . S
C549 C546 1.387 . S
C550 C551 1.387 . S
C550 H554 0.950 . S
C550 C559 1.390 1_455 S
C551 C550 1.387 . S
C551 C553 1.387 . S
H552 C559 0.950 . S
C553 C551 1.387 . S
C553 C555 1.390 1_455 S
C553 H557 0.950 . S
H554 C550 0.950 . S
C555 C553 1.390 1_655 S
C555 C556 1.387 . S
C555 H558 0.950 . S
C556 C555 1.387 . S
C556 C559 1.387 . S
H557 C553 0.950 . S
H558 C555 0.950 . S
C559 C550 1.390 1_655 S
C559 H552 0.950 . S
C559 C556 1.387 . S
C560 C561 1.387 . S
C560 H564 0.950 . S
C560 C569 1.390 1_544 S
C561 C560 1.387 . S
C561 C563 1.387 1_455 S
H562 C569 0.950 . S
C563 C561 1.387 1_655 S
C563 C565 1.390 1_544 S
C563 H567 0.950 . S
H564 C560 0.950 . S
C565 C563 1.390 1_566 S
C565 C566 1.387 1_655 S
C565 H568 0.950 . S
C566 C565 1.387 1_455 S
C566 C569 1.387 . S
H567 C563 0.950 . S
H568 C565 0.950 . S
C569 C560 1.390 1_566 S
C569 H562 0.950 . S
C569 C566 1.387 . S
C570 C571 1.387 . S
C570 H574 0.950 . S
C570 C579 1.390 . S
C571 C570 1.387 . S
C571 C573 1.387 . S
H572 C579 0.950 . S
C573 C571 1.387 . S
C573 C575 1.390 . S
C573 H577 0.950 . S
H574 C570 0.950 . S
C575 C573 1.390 . S
C575 C576 1.387 . S
C575 H578 0.950 . S
C576 C575 1.387 . S
C576 C579 1.387 . S
H577 C573 0.950 . S
H578 C575 0.950 . S
C579 C570 1.390 . S
C579 H572 0.950 . S
C579 C576 1.387 . S
C580 C581 1.387 . S
C580 H584 0.950 . S
C580 C589 1.390 1_545 S
C581 C580 1.387 . S
C581 C583 1.387 . S
H582 C589 0.950 . S
C583 C581 1.387 . S
C583 C585 1.390 1_545 S
C583 H587 0.950 . S
H584 C580 0.950 . S
C585 C583 1.390 1_565 S
C585 C586 1.387 . S
C585 H588 0.950 . S
C586 C585 1.387 . S
C586 C589 1.387 . S
H587 C583 0.950 . S
H588 C585 0.950 . S
C589 C580 1.390 1_565 S
C589 H582 0.950 . S
C589 C586 1.387 . S
C590 C591 1.387 . S
C590 H594 0.950 . S
C590 C599 1.390 . S
C591 C590 1.387 . S
C591 C593 1.387 . S
H592 C599 0.950 . S
C593 C591 1.387 . S
C593 C595 1.390 . S
C593 H597 0.950 . S
H594 C590 0.950 . S
C595 C593 1.390 . S
C595 C596 1.387 . S
C595 H598 0.950 . S
C596 C595 1.387 . S
C596 C599 1.387 . S
H597 C593 0.950 . S
H598 C595 0.950 . S
C599 C590 1.390 . S
C599 H592 0.950 . S
C599 C596 1.387 . S
C600 C601 1.387 . S
C600 H604 0.950 . S
C600 C609 1.390 . S
C601 C600 1.387 . S
C601 C603 1.387 . S
H602 C609 0.950 . S
C603 C601 1.387 . S
C603 C605 1.390 . S
C603 H607 0.950 . S
H604 C600 0.950 . S
C605 C603 1.390 . S
C605 C606 1.387 . S
C605 H608 0.950 . S
C606 C605 1.387 . S
C606 C609 1.387 . S
H607 C603 0.950 . S
H608 C605 0.950 . S
C609 C600 1.390 . S
C609 H602 0.950 . S
C609 C606 1.387 . S
C610 C611 1.387 . S
C610 H614 0.950 . S
C610 C619 1.390 . S
C611 C610 1.387 . S
C611 C613 1.387 . S
H612 C619 0.950 . S
C613 C611 1.387 . S
C613 C615 1.390 . S
C613 H617 0.950 . S
H614 C610 0.950 . S
C615 C613 1.390 . S
C615 C616 1.387 . S
C615 H618 0.950 . S
C616 C615 1.387 . S
C616 C619 1.387 . S
H617 C613 0.950 . S
H618 C615 0.950 . S
C619 C610 1.390 . S
C619 H612 0.950 . S
C619 C616 1.387 . S
C620 C621 1.387 . S
C620 H624 0.950 . S
C620 C629 1.390 . S
C621 C620 1.387 . S
C621 C623 1.387 . S
H622 C629 0.950 . S
C623 C621 1.387 . S
C623 C625 1.390 . S
C623 H627 0.950 . S
H624 C620 0.950 . S
C625 C623 1.390 . S
C625 C626 1.387 . S
C625 H628 0.950 . S
C626 C625 1.387 . S
C626 C629 1.387 . S
H627 C623 0.950 . S
H628 C625 0.950 . S
C629 C620 1.390 . S
C629 H622 0.950 . S
C629 C626 1.387 . S
C630 C631 1.387 . S
C630 H634 0.950 . S
C630 C639 1.390 1_556 S
C631 C630 1.387 . S
C631 C633 1.391 1_455 S
H632 C639 0.950 . S
C633 C631 1.391 1_655 S
C633 C635 1.385 1_556 S
C633 H637 0.951 . S
H634 C630 0.950 . S
C635 C633 1.385 1_554 S
C635 C636 1.387 1_655 S
C635 H638 0.950 . S
C636 C635 1.387 1_455 S
C636 C639 1.387 . S
H637 C633 0.951 . S
H638 C635 0.950 . S
C639 C630 1.390 1_554 S
C639 H632 0.950 . S
C639 C636 1.387 . S
C640 C641 1.387 . S
C640 H644 0.950 . S
C640 C649 1.390 . S
C641 C640 1.387 . S
C641 C643 1.387 . S
H642 C649 0.950 . S
C643 C641 1.387 . S
C643 C645 1.390 . S
C643 H647 0.950 . S
H644 C640 0.950 . S
C645 C643 1.390 . S
C645 C646 1.387 . S
C645 H648 0.950 . S
C646 C645 1.387 . S
C646 C649 1.387 . S
H647 C643 0.950 . S
H648 C645 0.950 . S
C649 C640 1.390 . S
C649 H642 0.950 . S
C649 C646 1.387 . S
C650 C651 1.387 . S
C650 H654 0.950 . S
C650 C659 1.390 . S
C651 C650 1.387 . S
C651 C653 1.387 . S
H652 C659 0.950 . S
C653 C651 1.387 . S
C653 C655 1.390 . S
C653 H657 0.950 . S
H654 C650 0.950 . S
C655 C653 1.390 . S
C655 C656 1.387 . S
C655 H658 0.950 . S
C656 C655 1.387 . S
C656 C659 1.387 . S
H657 C653 0.950 . S
H658 C655 0.950 . S
C659 C650 1.390 . S
C659 H652 0.950 . S
C659 C656 1.387 . S
C660 C661 1.387 . S
C660 H664 0.950 . S
C660 C669 1.390 . S
C661 C660 1.387 . S
C661 C663 1.387 . S
H662 C669 0.950 . S
C663 C661 1.387 . S
C663 C665 1.390 . S
C663 H667 0.950 . S
H664 C660 0.950 . S
C665 C663 1.390 . S
C665 C666 1.387 . S
C665 H668 0.950 . S
C666 C665 1.387 . S
C666 C669 1.387 . S
H667 C663 0.950 . S
H668 C665 0.950 . S
C669 C660 1.390 . S
C669 H662 0.950 . S
C669 C666 1.387 . S
C670 C671 1.387 . S
C670 H674 0.950 . S
C670 C679 1.390 . S
C671 C670 1.387 . S
C671 C673 1.387 . S
H672 C679 0.950 . S
C673 C671 1.387 . S
C673 C675 1.390 . S
C673 H677 0.950 . S
H674 C670 0.950 . S
C675 C673 1.390 . S
C675 C676 1.387 . S
C675 H678 0.950 . S
C676 C675 1.387 . S
C676 C679 1.387 . S
H677 C673 0.950 . S
H678 C675 0.950 . S
C679 C670 1.390 . S
C679 H672 0.950 . S
C679 C676 1.387 . S
C680 C681 1.387 . S
C680 H684 0.950 . S
C680 C689 1.390 . S
C681 C680 1.387 . S
C681 C683 1.387 . S
H682 C689 0.950 . S
C683 C681 1.387 . S
C683 C685 1.390 . S
C683 H687 0.950 . S
H684 C680 0.950 . S
C685 C683 1.390 . S
C685 C686 1.387 . S
C685 H688 0.950 . S
C686 C685 1.387 . S
C686 C689 1.387 . S
H687 C683 0.950 . S
H688 C685 0.950 . S
C689 C680 1.390 . S
C689 H682 0.950 . S
C689 C686 1.387 . S
C690 C691 1.387 . S
C690 H694 0.950 . S
C690 C699 1.390 . S
C691 C690 1.387 . S
C691 C693 1.387 . S
H692 C699 0.950 . S
C693 C691 1.387 . S
C693 C695 1.390 . S
C693 H697 0.950 . S
H694 C690 0.950 . S
C695 C693 1.390 . S
C695 C696 1.387 . S
C695 H698 0.950 . S
C696 C695 1.387 . S
C696 C699 1.387 . S
H697 C693 0.950 . S
H698 C695 0.950 . S
C699 C690 1.390 . S
C699 H692 0.950 . S
C699 C696 1.387 . S
C700 C701 1.387 . S
C700 H704 0.950 . S
C700 C709 1.390 . S
C701 C700 1.387 . S
C701 C703 1.387 . S
H702 C709 0.950 . S
C703 C701 1.387 . S
C703 C705 1.390 . S
C703 H707 0.950 . S
H704 C700 0.950 . S
C705 C703 1.390 . S
C705 C706 1.387 . S
C705 H708 0.950 . S
C706 C705 1.387 . S
C706 C709 1.387 . S
H707 C703 0.950 . S
H708 C705 0.950 . S
C709 C700 1.390 . S
C709 H702 0.950 . S
C709 C706 1.387 . S
C710 C711 1.387 . S
C710 H714 0.950 . S
C710 C719 1.390 . S
C711 C710 1.387 . S
C711 C713 1.387 . S
H712 C719 0.950 . S
C713 C711 1.387 . S
C713 C715 1.390 . S
C713 H717 0.950 . S
H714 C710 0.950 . S
C715 C713 1.390 . S
C715 C716 1.387 . S
C715 H718 0.950 . S
C716 C715 1.387 . S
C716 C719 1.387 . S
H717 C713 0.950 . S
H718 C715 0.950 . S
C719 C710 1.390 . S
C719 H712 0.950 . S
C719 C716 1.387 . S
C720 C721 1.387 . S
C720 H724 0.950 . S
C720 C729 1.390 . S
C721 C720 1.387 . S
C721 C723 1.387 . S
H722 C729 0.950 . S
C723 C721 1.387 . S
C723 C725 1.390 . S
C723 H727 0.950 . S
H724 C720 0.950 . S
C725 C723 1.390 . S
C725 C726 1.387 . S
C725 H728 0.950 . S
C726 C725 1.387 . S
C726 C729 1.387 . S
H727 C723 0.950 . S
H728 C725 0.950 . S
C729 C720 1.390 . S
C729 H722 0.950 . S
C729 C726 1.387 . S
C730 C731 1.387 . S
C730 H734 0.950 . S
C730 C739 1.390 . S
C731 C730 1.387 . S
C731 C733 1.387 . S
H732 C739 0.950 . S
C733 C731 1.387 . S
C733 C735 1.390 . S
C733 H737 0.950 . S
H734 C730 0.950 . S
C735 C733 1.390 . S
C735 C736 1.387 . S
C735 H738 0.950 . S
C736 C735 1.387 . S
C736 C739 1.387 . S
H737 C733 0.950 . S
H738 C735 0.950 . S
C739 C730 1.390 . S
C739 H732 0.950 . S
C739 C736 1.387 . S
C740 C741 1.387 . S
C740 H744 0.950 . S
C740 C749 1.390 . S
C741 C740 1.387 . S
C741 C743 1.387 . S
H742 C749 0.950 . S
C743 C741 1.387 . S
C743 C745 1.390 . S
C743 H747 0.950 . S
H744 C740 0.950 . S
C745 C743 1.390 . S
C745 C746 1.387 . S
C745 H748 0.950 . S
C746 C745 1.387 . S
C746 C749 1.387 . S
H747 C743 0.950 . S
H748 C745 0.950 . S
C749 C740 1.390 . S
C749 H742 0.950 . S
C749 C746 1.387 . S
C750 C751 1.387 . S
C750 H754 0.950 . S
C750 C759 1.390 . S
C751 C750 1.387 . S
C751 C753 1.387 . S
H752 C759 0.950 . S
C753 C751 1.387 . S
C753 C755 1.390 . S
C753 H757 0.950 . S
H754 C750 0.950 . S
C755 C753 1.390 . S
C755 C756 1.387 . S
C755 H758 0.950 . S
C756 C755 1.387 . S
C756 C759 1.387 . S
H757 C753 0.950 . S
H758 C755 0.950 . S
C759 C750 1.390 . S
C759 H752 0.950 . S
C759 C756 1.387 . S
C760 C761 1.387 . S
C760 H764 0.950 . S
C760 C769 1.390 . S
C761 C760 1.387 . S
C761 C763 1.387 . S
H762 C769 0.950 . S
C763 C761 1.387 . S
C763 C765 1.390 . S
C763 H767 0.950 . S
H764 C760 0.950 . S
C765 C763 1.390 . S
C765 C766 1.387 . S
C765 H768 0.950 . S
C766 C765 1.387 . S
C766 C769 1.387 . S
H767 C763 0.950 . S
H768 C765 0.950 . S
C769 C760 1.390 . S
C769 H762 0.950 . S
C769 C766 1.387 . S
C770 C771 1.387 . S
C770 H774 0.950 . S
C770 C779 1.390 . S
C771 C770 1.387 . S
C771 C773 1.387 . S
H772 C779 0.950 . S
C773 C771 1.387 . S
C773 C775 1.390 . S
C773 H777 0.950 . S
H774 C770 0.950 . S
C775 C773 1.390 . S
C775 C776 1.387 . S
C775 H778 0.950 . S
C776 C775 1.387 . S
C776 C779 1.387 . S
H777 C773 0.950 . S
H778 C775 0.950 . S
C779 C770 1.390 . S
C779 H772 0.950 . S
C779 C776 1.387 . S
C780 C781 1.387 . S
C780 H784 0.950 . S
C780 C789 1.390 . S
C781 C780 1.387 . S
C781 C783 1.387 . S
H782 C789 0.950 . S
C783 C781 1.387 . S
C783 C785 1.390 . S
C783 H787 0.950 . S
H784 C780 0.950 . S
C785 C783 1.390 . S
C785 C786 1.387 . S
C785 H788 0.950 . S
C786 C785 1.387 . S
C786 C789 1.387 . S
H787 C783 0.950 . S
H788 C785 0.950 . S
C789 C780 1.390 . S
C789 H782 0.950 . S
C789 C786 1.387 . S
C790 C791 1.387 . S
C790 H794 0.950 . S
C790 C799 1.390 . S
C791 C790 1.387 . S
C791 C793 1.387 . S
H792 C799 0.950 . S
C793 C791 1.387 . S
C793 C795 1.390 . S
C793 H797 0.950 . S
H794 C790 0.950 . S
C795 C793 1.390 . S
C795 C796 1.387 . S
C795 H798 0.950 . S
C796 C795 1.387 . S
C796 C799 1.387 . S
H797 C793 0.950 . S
H798 C795 0.950 . S
C799 C790 1.390 . S
C799 H792 0.950 . S
C799 C796 1.387 . S
C321 C19 1.756 . S
C326 C159 1.736 . S
C331 C39 2.090 . S
C336 C99 2.091 1_554 S
C341 C102 1.560 . S
C346 C59 1.556 . S
C351 C79 2.086 . S
C356 C139 2.085 . S
C361 C221 0.555 . S
C366 C81 0.555 . S
C371 C178 0.908 . S
C376 C1 0.903 . S
C381 C201 0.554 . S
C386 C121 0.554 . S
C391 C41 0.777 . S
C396 C181 0.776 . S
C401 C199 1.734 . S
C406 C259 1.757 . S
C411 C219 2.090 . S
C416 C299 2.091 . S
C421 C279 1.556 1_556 S
C426 C162 1.557 . S
C431 C239 2.084 . S
C436 C319 2.086 1_554 S
C441 C281 0.561 . S
C446 C61 0.559 . S
C451 C241 0.901 . S
C456 C118 0.903 . S
C461 C21 0.554 . S
C466 C301 0.553 . S
C471 C141 0.774 . S
C476 C261 0.775 . S
C481 C269 0.630 . S
C486 C9 0.468 1_455 S
C491 C229 0.441 . S
C496 C29 0.444 . S
C501 C249 0.467 . S
C506 C49 0.630 . S
C511 C209 0.444 . S
C516 C69 0.441 . S
C521 C89 0.441 1_455 S
C526 C309 0.433 . S
C531 C189 0.377 . S
C536 C108 0.500 . S
C541 C129 0.442 . S
C546 C289 0.439 . S
C551 C149 0.377 . S
C556 C168 0.500 . S
C561 C8 1.528 . S
C566 C88 1.527 . S
C571 C28 1.602 . S
C576 C109 1.608 . S
C581 C128 1.659 . S
C586 C48 1.645 . S
C591 C68 1.594 . S
C596 C148 1.579 . S
C601 C208 1.602 . S
C606 C169 1.607 . S
C611 C228 1.597 . S
C616 C188 1.582 . S
C621 C248 1.528 . S
C626 C288 1.528 . S
C631 C308 1.659 1_455 S
C636 C268 1.645 1_455 S
C641 C2 1.290 . S
C646 C142 1.296 . S
C651 C22 1.060 . S
C656 C82 1.058 . S
C661 C119 1.518 1_556 S
C666 C42 1.466 . S
C671 C122 1.052 . S
C676 C62 1.052 . S
C681 C238 2.572 . S
C686 C98 2.573 . S
C691 C161 2.032 . S
C696 C18 2.082 . S
C701 C218 2.562 1_554 S
C706 C138 2.561 . S
C711 C58 2.274 . S
C716 C198 2.262 1_556 S
C721 C242 1.291 . S
C726 C182 1.297 . S
C731 C282 1.061 . S
C736 C202 1.061 . S
C741 C262 1.466 . S
C746 C179 1.518 . S
C751 C302 1.049 . S
C756 C222 1.048 . S
C761 C298 2.573 . S
C766 C78 2.573 1_554 S
C771 C101 2.034 . S
C776 C258 2.082 . S
C781 C38 2.561 . S
C786 C318 2.562 . S
C791 C278 2.274 . S
C796 C158 2.263 . S
