# Generated by pormake.
# Topology nov, (5)-cn, num edge types: 1
# Building blocks:
#     Node 0, Type 0, BuildingBlock: BEQFEK_clean_sbu_0, # of connection points: 5
#     Node 1, Type 0, BuildingBlock: BEQFEK_clean_sbu_0, # of connection points: 5
#     Node 2, Type 0, BuildingBlock: BEQFEK_clean_sbu_0, # of connection points: 5
#     Node 3, Type 0, BuildingBlock: BEQFEK_clean_sbu_0, # of connection points: 5
#     Node 4, Type 0, BuildingBlock: BEQFEK_clean_sbu_0, # of connection points: 5
#     Node 5, Type 0, BuildingBlock: BEQFEK_clean_sbu_0, # of connection points: 5
#     Node 6, Type 0, BuildingBlock: BEQFEK_clean_sbu_0, # of connection points: 5
#     Node 7, Type 0, BuildingBlock: BEQFEK_clean_sbu_0, # of connection points: 5
#     Edge 8, Type (0, 0), BuildingBlock: AJUNOK_clean_linker_0, # of connection points: 2
#     Edge 9, Type (0, 0), BuildingBlock: AJUNOK_clean_linker_0, # of connection points: 2
#     Edge 10, Type (0, 0), BuildingBlock: AJUNOK_clean_linker_0, # of connection points: 2
#     Edge 11, Type (0, 0), BuildingBlock: AJUNOK_clean_linker_0, # of connection points: 2
#     Edge 12, Type (0, 0), BuildingBlock: AJUNOK_clean_linker_0, # of connection points: 2
#     Edge 13, Type (0, 0), BuildingBlock: AJUNOK_clean_linker_0, # of connection points: 2
#     Edge 14, Type (0, 0), BuildingBlock: AJUNOK_clean_linker_0, # of connection points: 2
#     Edge 15, Type (0, 0), BuildingBlock: AJUNOK_clean_linker_0, # of connection points: 2
#     Edge 16, Type (0, 0), BuildingBlock: AJUNOK_clean_linker_0, # of connection points: 2
#     Edge 17, Type (0, 0), BuildingBlock: AJUNOK_clean_linker_0, # of connection points: 2
#     Edge 18, Type (0, 0), BuildingBlock: AJUNOK_clean_linker_0, # of connection points: 2
#     Edge 19, Type (0, 0), BuildingBlock: AJUNOK_clean_linker_0, # of connection points: 2
#     Edge 20, Type (0, 0), BuildingBlock: AJUNOK_clean_linker_0, # of connection points: 2
#     Edge 21, Type (0, 0), BuildingBlock: AJUNOK_clean_linker_0, # of connection points: 2
#     Edge 22, Type (0, 0), BuildingBlock: AJUNOK_clean_linker_0, # of connection points: 2
#     Edge 23, Type (0, 0), BuildingBlock: AJUNOK_clean_linker_0, # of connection points: 2
#     Edge 24, Type (0, 0), BuildingBlock: AJUNOK_clean_linker_0, # of connection points: 2
#     Edge 25, Type (0, 0), BuildingBlock: AJUNOK_clean_linker_0, # of connection points: 2
#     Edge 26, Type (0, 0), BuildingBlock: AJUNOK_clean_linker_0, # of connection points: 2
#     Edge 27, Type (0, 0), BuildingBlock: AJUNOK_clean_linker_0, # of connection points: 2
# Relax obj value: 0.078
# Max RMSD: 0.098
# Mean RMSD: 0.098
data_MOF--net-nov--node1-BEQFEK_clean_sbu_0--edge1-AJUNOK_clean_linker_0
_symmetry_space_group_name_H-M    P1
_symmetry_Int_Tables_number       1
_symmetry_cell_setting            triclinic
loop_
_symmetry_equiv_pos_as_xyz
'x, y, z'
_cell_length_a     30.247219
_cell_length_b     30.724265
_cell_length_c     19.364885
_cell_angle_alpha  89.98944
_cell_angle_beta   90.213255
_cell_angle_gamma 90.014395
loop_
_atom_site_label
_atom_site_type_symbol
_atom_site_fract_x
_atom_site_fract_y
_atom_site_fract_z
_atom_type_partial_charge
Co0 Co 0.97175 0.14168 0.16515 0.0
Co1 Co 0.07516 0.1266 0.16011 0.0
C2 C 0.0157 0.06189 0.0997 0.0
O3 O 0.98176 0.08478 0.11442 0.0
O4 O 0.0542 0.07373 0.11807 0.0
C5 C 0.88812 0.12542 0.23501 0.0
O6 O 0.91271 0.10224 0.27726 0.0
C7 C 0.16667 0.09596 0.18917 0.0
C8 C 0.20441 0.15449 0.15925 0.0
C9 C 0.20907 0.11313 0.18645 0.0
N10 N 0.13822 0.12615 0.16517 0.0
N11 N 0.16121 0.1607 0.14625 0.0
C12 C 0.15359 0.05137 0.21247 0.0
H13 H 0.11727 0.04933 0.21985 0.0
H14 H 0.17109 0.04255 0.2609 0.0
H15 H 0.1635 0.02748 0.17244 0.0
C16 C 0.99837 0.16787 0.30868 0.0
N17 N 1.0066 0.14773 0.24803 0.0
N18 N 0.04874 0.13684 0.24663 0.0
C19 C 0.06774 0.1473 0.30732 0.0
C20 C 0.03692 0.16817 0.34809 0.0
C21 C 0.95729 0.19334 0.32338 0.0
H22 H 0.93951 0.20122 0.2748 0.0
H23 H 0.93539 0.1738 0.35716 0.0
H24 H 0.9654 0.22396 0.35109 0.0
O25 O 0.98875 0.18939 0.1012 0.0
O26 O 0.06066 0.17483 0.09682 0.0
H27 H 0.1368 0.15952 0.29279 0.0
H28 H 0.12208 0.14592 0.38054 0.0
C29 C 0.1151 0.139 0.32533 0.0
H30 H 0.1227 0.10437 0.31558 0.0
H31 H 0.14725 0.18917 0.12656 0.0
O32 O 0.90633 0.14507 0.18461 0.0
C33 C 0.02735 0.19721 0.078 0.0
Co34 Co 0.61442 0.84537 0.6692 0.0
Co35 Co 0.51008 0.85428 0.66281 0.0
C36 C 0.56844 0.92293 0.60504 0.0
O37 O 0.60367 0.90252 0.62137 0.0
O38 O 0.53047 0.90779 0.6195 0.0
C39 C 0.70201 0.87509 0.70406 0.0
O40 O 0.68282 0.91331 0.69895 0.0
C41 C 0.41883 0.88375 0.69465 0.0
C42 C 0.38073 0.82628 0.66044 0.0
C43 C 0.37637 0.86673 0.69095 0.0
N44 N 0.44702 0.85433 0.66809 0.0
N45 N 0.42383 0.82041 0.64671 0.0
C46 C 0.43225 0.9276 0.72096 0.0
H47 H 0.46865 0.92933 0.72799 0.0
H48 H 0.41534 0.93515 0.7702 0.0
H49 H 0.42194 0.95263 0.68285 0.0
C50 C 0.59057 0.81915 0.81189 0.0
N51 N 0.58002 0.8381 0.75117 0.0
N52 N 0.53707 0.84504 0.74944 0.0
C53 C 0.51932 0.83227 0.80973 0.0
C54 C 0.55225 0.81442 0.85075 0.0
C55 C 0.63496 0.79972 0.82688 0.0
H56 H 0.64594 0.78022 0.78186 0.0
H57 H 0.65928 0.82634 0.83455 0.0
H58 H 0.6345 0.77883 0.87357 0.0
O59 O 0.59838 0.79884 0.60239 0.0
O60 O 0.52503 0.80515 0.60194 0.0
H61 H 0.45213 0.81352 0.79047 0.0
H62 H 0.46436 0.82441 0.88036 0.0
C63 C 0.47113 0.83453 0.82642 0.0
H64 H 0.4599 0.86852 0.82027 0.0
H65 H 0.43758 0.7926 0.6247 0.0
O66 O 0.67904 0.84105 0.69295 0.0
C67 C 0.56025 0.78654 0.58189 0.0
Co68 Co 0.97301 0.84284 0.83124 0.0
Co69 Co 0.07696 0.85124 0.84417 0.0
C70 C 0.01702 0.91802 0.90408 0.0
O71 O 0.9822 0.89884 0.88264 0.0
O72 O 0.05528 0.90327 0.89039 0.0
C73 C 0.88984 0.87192 0.77786 0.0
O74 O 0.91313 0.90741 0.76741 0.0
C75 C 0.16867 0.88149 0.81889 0.0
C76 C 0.20623 0.82474 0.85731 0.0
C77 C 0.21115 0.86515 0.82677 0.0
N78 N 0.13997 0.85177 0.84324 0.0
N79 N 0.16279 0.81827 0.86706 0.0
C80 C 0.15561 0.92509 0.79112 0.0
H81 H 0.11913 0.92743 0.78581 0.0
H82 H 0.17146 0.93105 0.74048 0.0
H83 H 0.16745 0.95072 0.82709 0.0
C84 C 1.00023 0.81857 0.68931 0.0
N85 N 1.00935 0.83688 0.75104 0.0
N86 N 0.05227 0.84357 0.75555 0.0
C87 C 0.07152 0.83121 0.69615 0.0
C88 C 0.03947 0.814 0.65272 0.0
C89 C 0.95627 0.79914 0.67135 0.0
H90 H 0.94271 0.78177 0.71683 0.0
H91 H 0.93298 0.8257 0.6577 0.0
H92 H 0.95854 0.77626 0.62722 0.0
O93 O 0.98742 0.79566 0.89767 0.0
O94 O 0.0608 0.8012 0.90215 0.0
H95 H 0.13775 0.81127 0.7203 0.0
H96 H 0.12841 0.82231 0.62961 0.0
C97 C 0.12026 0.8326 0.68297 0.0
H98 H 0.13218 0.86632 0.6898 0.0
H99 H 0.14863 0.79038 0.88832 0.0
O100 O 0.90892 0.83916 0.80498 0.0
C101 C 0.02495 0.78291 0.92002 0.0
Co102 Co 0.61187 0.14319 0.33858 0.0
Co103 Co 0.5083 0.12983 0.34343 0.0
C104 C 0.56629 0.06684 0.41093 0.0
O105 O 0.60085 0.08826 0.39428 0.0
O106 O 0.5282 0.078 0.38981 0.0
C107 C 0.69685 0.12493 0.27217 0.0
O108 O 0.6733 0.10095 0.2296 0.0
C109 C 0.41652 0.09946 0.3172 0.0
C110 C 0.37927 0.15826 0.34719 0.0
C111 C 0.3742 0.1165 0.32173 0.0
N112 N 0.44536 0.13001 0.3387 0.0
N113 N 0.42271 0.1648 0.35749 0.0
C114 C 0.42911 0.05453 0.295 0.0
H115 H 0.46556 0.05152 0.29049 0.0
H116 H 0.41314 0.04646 0.24496 0.0
H117 H 0.41695 0.03081 0.33376 0.0
C118 C 0.58642 0.16568 0.19305 0.0
N119 N 0.57741 0.14731 0.25483 0.0
N120 N 0.535 0.1376 0.25654 0.0
C121 C 0.51639 0.14715 0.19515 0.0
C122 C 0.54802 0.16583 0.153 0.0
C123 C 0.62792 0.19058 0.17834 0.0
H124 H 0.64429 0.20053 0.22718 0.0
H125 H 0.6509 0.16967 0.14863 0.0
H126 H 0.62072 0.21995 0.14688 0.0
O127 O 0.59544 0.19264 0.39962 0.0
O128 O 0.5234 0.17895 0.40443 0.0
H129 H 0.44843 0.16452 0.20916 0.0
H130 H 0.46147 0.14628 0.1228 0.0
C131 C 0.46839 0.14128 0.17853 0.0
H132 H 0.45838 0.10776 0.19185 0.0
H133 H 0.43699 0.19347 0.37588 0.0
O134 O 0.67744 0.14571 0.32025 0.0
C135 C 0.55695 0.20119 0.42255 0.0
Co136 Co 0.4729 0.63928 0.16966 0.0
Co137 Co 0.57711 0.63075 0.16318 0.0
C138 C 0.51945 0.56257 0.10327 0.0
O139 O 0.48445 0.58279 0.12098 0.0
O140 O 0.55756 0.57721 0.11865 0.0
C141 C 0.38644 0.60792 0.2071 0.0
O142 O 0.40688 0.57023 0.20494 0.0
C143 C 0.66854 0.60152 0.19293 0.0
C144 C 0.70597 0.66022 0.16279 0.0
C145 C 0.71081 0.61892 0.19021 0.0
N146 N 0.63999 0.63149 0.16873 0.0
N147 N 0.66275 0.66617 0.14975 0.0
C148 C 0.65552 0.55691 0.21628 0.0
H149 H 0.61963 0.55567 0.22792 0.0
H150 H 0.6751 0.54679 0.26205 0.0
H151 H 0.66255 0.53346 0.17415 0.0
C152 C 0.49701 0.66476 0.3127 0.0
N153 N 0.50747 0.64648 0.2516 0.0
N154 N 0.55037 0.6394 0.25 0.0
C155 C 0.56821 0.65121 0.31093 0.0
C156 C 0.53533 0.66843 0.35249 0.0
C157 C 0.45299 0.68513 0.32689 0.0
H158 H 0.43989 0.70045 0.27915 0.0
H159 H 0.42944 0.65938 0.34295 0.0
H160 H 0.45508 0.71008 0.36814 0.0
O161 O 0.48815 0.68585 0.10279 0.0
O162 O 0.56152 0.67959 0.10178 0.0
H163 H 0.63518 0.67143 0.29495 0.0
H164 H 0.62316 0.65557 0.38296 0.0
C165 C 0.61642 0.64839 0.32779 0.0
H166 H 0.62796 0.61496 0.31726 0.0
H167 H 0.64861 0.69451 0.12978 0.0
O168 O 0.4082 0.64229 0.19314 0.0
C169 C 0.52609 0.69791 0.08157 0.0
Co170 Co 0.11371 0.34617 0.6696 0.0
Co171 Co 1.00936 0.34636 0.65643 0.0
C172 C 0.06675 0.41599 0.59288 0.0
O173 O 0.10294 0.40044 0.61592 0.0
O174 O 0.02986 0.39845 0.60742 0.0
C175 C 0.19954 0.37748 0.7115 0.0
O176 O 0.17838 0.41482 0.71194 0.0
C177 C 0.91964 0.37407 0.69649 0.0
C178 C 0.87885 0.32568 0.64087 0.0
C179 C 0.87627 0.36038 0.6863 0.0
N180 N 0.9464 0.34802 0.65968 0.0
N181 N 0.92174 0.31962 0.62577 0.0
C182 C 0.93559 0.41235 0.73734 0.0
H183 H 0.96166 0.42969 0.70797 0.0
H184 H 0.95082 0.40102 0.78628 0.0
H185 H 0.90803 0.43499 0.74916 0.0
C186 C 0.08902 0.33019 0.81598 0.0
N187 N 0.07798 0.3422 0.75119 0.0
N188 N 0.03477 0.33934 0.74429 0.0
C189 C 0.01729 0.323 0.80263 0.0
C190 C 0.05091 0.31752 0.85084 0.0
C191 C 0.13562 0.32704 0.8417 0.0
H192 H 0.153 0.30058 0.81377 0.0
H193 H 0.15306 0.35802 0.83103 0.0
H194 H 0.13691 0.32064 0.89806 0.0
O195 O 0.09923 0.29667 0.60487 0.0
O196 O 0.02558 0.29659 0.60075 0.0
H197 H 0.96188 0.29117 0.7539 0.0
H198 H 0.97175 0.27423 0.84126 0.0
C199 C 0.97228 0.30253 0.80572 0.0
H200 H 0.94814 0.32673 0.82471 0.0
H201 H 0.93427 0.29536 0.59368 0.0
O202 O 0.1783 0.34326 0.69471 0.0
C203 C 0.06262 0.28083 0.58309 0.0
Co204 Co 0.47238 0.3454 0.83448 0.0
Co205 Co 0.57662 0.34761 0.8488 0.0
C206 C 0.51835 0.41664 0.91087 0.0
O207 O 0.48279 0.39927 0.88883 0.0
O208 O 0.55589 0.40022 0.89685 0.0
C209 C 0.38503 0.37713 0.80002 0.0
O210 O 0.40405 0.415 0.8106 0.0
C211 C 0.66774 0.37402 0.81247 0.0
C212 C 0.70634 0.32633 0.87317 0.0
C213 C 0.71063 0.36059 0.82719 0.0
N214 N 0.6396 0.34858 0.84793 0.0
N215 N 0.66297 0.32053 0.88467 0.0
C216 C 0.65363 0.41155 0.76835 0.0
H217 H 0.6202 0.42282 0.78365 0.0
H218 H 0.65223 0.4014 0.71351 0.0
H219 H 0.67783 0.43859 0.77281 0.0
C220 C 0.49767 0.3314 0.68835 0.0
N221 N 0.50861 0.34276 0.75339 0.0
N222 N 0.55188 0.34052 0.76021 0.0
C223 C 0.56954 0.32508 0.70131 0.0
C224 C 0.53586 0.31952 0.65308 0.0
C225 C 0.45104 0.32813 0.66273 0.0
H226 H 0.43451 0.30011 0.68799 0.0
H227 H 0.43278 0.3581 0.67673 0.0
H228 H 0.44976 0.32393 0.60584 0.0
O229 O 0.48646 0.29509 0.89788 0.0
O230 O 0.55994 0.29763 0.90383 0.0
H231 H 0.62601 0.29443 0.74905 0.0
H232 H 0.61555 0.2771 0.662 0.0
C233 C 0.61491 0.30547 0.6974 0.0
H234 H 0.63853 0.32998 0.6776 0.0
H235 H 0.64928 0.29679 0.91667 0.0
O236 O 0.40797 0.34269 0.80776 0.0
C237 C 0.52339 0.28015 0.91981 0.0
Co238 Co 0.11496 0.63677 0.33302 0.0
Co239 Co 1.01083 0.63091 0.34362 0.0
C240 C 0.06835 0.56073 0.39934 0.0
O241 O 0.10401 0.57965 0.38102 0.0
O242 O 0.03075 0.57733 0.38659 0.0
C243 C 0.19882 0.60763 0.28086 0.0
O244 O 0.17607 0.57181 0.27009 0.0
C245 C 0.91895 0.60216 0.31674 0.0
C246 C 0.88198 0.65895 0.35589 0.0
C247 C 0.87668 0.61873 0.32484 0.0
N248 N 0.94795 0.6315 0.34158 0.0
N249 N 0.92551 0.66506 0.3658 0.0
C250 C 0.93146 0.55867 0.28811 0.0
H251 H 0.96792 0.55579 0.28351 0.0
H252 H 0.91577 0.55357 0.23693 0.0
H253 H 0.91895 0.53282 0.32298 0.0
C254 C 0.08874 0.66272 0.19046 0.0
N255 N 0.07902 0.64478 0.25217 0.0
N256 N 0.03592 0.63916 0.25589 0.0
C257 C 0.01713 0.65182 0.19611 0.0
C258 C 0.0497 0.66811 0.15313 0.0
C259 C 0.13329 0.68069 0.17278 0.0
H260 H 0.14727 0.6981 0.21806 0.0
H261 H 0.15581 0.65334 0.16019 0.0
H262 H 0.13177 0.70317 0.12802 0.0
O263 O 0.10141 0.68337 0.40099 0.0
O264 O 0.02792 0.67967 0.4036 0.0
H265 H 0.95122 0.6729 0.21918 0.0
H266 H 0.96057 0.66189 0.12857 0.0
C267 C 0.9684 0.65136 0.18202 0.0
H268 H 0.95584 0.61784 0.18846 0.0
H269 H 0.93998 0.69266 0.38762 0.0
O270 O 0.17926 0.6401 0.30779 0.0
C271 C 0.06412 0.69684 0.42282 0.0
C272 C 0.05181 0.96594 0.99204 0.0
C273 C 1.01401 0.95494 0.95327 0.0
C274 C 0.05094 -0.00105 0.04123 0.0
C275 C 1.01237 0.02327 0.0538 0.0
H276 H 0.08271 0.94869 0.98499 0.0
H277 H 0.08141 0.00586 0.06872 0.0
S278 S 0.90362 0.00686 0.96793 0.0
N279 N 0.93611 0.97 0.93235 0.0
N280 N 0.93466 0.03324 0.02447 0.0
C281 C 0.97384 0.01227 0.01651 0.0
C282 C 0.97464 0.97797 0.96632 0.0
C283 C 0.60606 0.00501 0.47016 0.0
C284 C 0.56866 0.03189 0.46349 0.0
C285 C 0.60695 0.97087 0.51865 0.0
C286 C 0.57063 0.96291 0.56235 0.0
H287 H 0.63415 0.00951 0.43636 0.0
H288 H 0.63551 0.94963 0.52001 0.0
S289 S 0.46816 0.02902 0.57347 0.0
N290 N 0.49673 0.05149 0.51046 0.0
N291 N 0.49869 0.98812 0.60126 0.0
C292 C 0.53433 -0.00863 0.5589 0.0
C293 C 0.53325 0.02563 0.50955 0.0
C294 C 0.55628 0.5034 0.03684 0.0
C295 C 0.51683 0.52382 0.05752 0.0
C296 C 0.55619 0.46964 0.98865 0.0
C297 C 0.51662 0.4543 0.95893 0.0
H298 H 0.58794 0.51385 0.05727 0.0
H299 H 0.58772 0.45537 0.975 0.0
S300 S 0.40379 0.49574 0.99636 0.0
N301 N 0.43671 0.52578 0.04506 0.0
N302 N 0.43648 0.46176 0.95469 0.0
C303 C 0.47668 0.47395 0.9796 0.0
C304 C 0.47679 0.50869 0.02886 0.0
C305 C 0.10539 0.47826 0.53397 0.0
C306 C 0.06739 0.45227 0.54225 0.0
C307 C 0.10649 0.51213 0.4852 0.0
C308 C 0.06969 0.52106 0.44278 0.0
H309 H 0.13426 0.47289 0.56611 0.0
H310 H 0.1358 0.53231 0.48239 0.0
S311 S 0.96413 0.45929 0.43779 0.0
N312 N 0.99332 0.4358 0.49946 0.0
N313 N 0.99571 0.49876 0.40805 0.0
C314 C 0.03226 0.49414 0.44855 0.0
C315 C 0.03098 0.46001 0.49825 0.0
C316 C 0.33015 0.09569 0.21851 0.0
C317 C 0.33282 0.10051 0.2906 0.0
C318 C 0.28902 0.09515 0.18478 0.0
C319 C 0.24949 0.0986 0.22225 0.0
H320 H 0.35986 0.09667 0.18748 0.0
H321 H 0.28823 0.0954 0.12883 0.0
S322 S 0.23906 0.10774 0.41232 0.0
N323 N 0.29288 0.10557 0.39864 0.0
N324 N 0.21559 0.10381 0.33545 0.0
C325 C 0.25179 0.09978 0.29467 0.0
C326 C 0.29357 0.10096 0.32884 0.0
C327 C 0.29626 0.88421 0.68929 0.0
C328 C 0.33593 0.88071 0.72688 0.0
C329 C 0.25526 0.88411 0.7229 0.0
C330 C 0.25276 0.87994 0.7951 0.0
H331 H 0.29684 0.88381 0.63335 0.0
H332 H 0.2255 0.88306 0.69167 0.0
S333 S 0.34695 0.87199 0.91709 0.0
N334 N 0.37015 0.87519 0.84022 0.0
N335 N 0.29312 0.87495 0.90326 0.0
C336 C 0.2922 0.87919 0.8334 0.0
C337 C 0.33387 0.87963 0.7993 0.0
C338 C 0.8213 0.90922 0.73538 0.0
C339 C 0.84202 0.87087 0.75875 0.0
C340 C 0.7763 0.91 0.71785 0.0
C341 C 0.74985 0.8724 0.72226 0.0
H342 H 0.83986 0.93923 0.73092 0.0
H343 H 0.76224 0.94052 0.70039 0.0
S344 S 0.78757 0.76331 0.78032 0.0
N345 N 0.83228 0.79402 0.78531 0.0
N346 N 0.74776 0.7955 0.75191 0.0
C347 C 0.77006 0.83364 0.74505 0.0
C348 C 0.81602 0.83289 0.76342 0.0
C349 C 0.76449 0.12577 0.19761 0.0
C350 C 0.74561 0.12744 0.26394 0.0
C351 C 0.8106 0.12662 0.18849 0.0
C352 C 0.83958 0.1278 0.24547 0.0
H353 H 0.74344 0.12392 0.15231 0.0
H354 H 0.82365 0.12503 0.13653 0.0
S355 S 0.80709 0.13313 0.42983 0.0
N356 N 0.75963 0.13167 0.38741 0.0
N357 N 0.8461 0.13152 0.37042 0.0
C358 C 0.82115 0.12967 0.312 0.0
C359 C 0.77424 0.12999 0.32119 0.0
C360 C 0.83206 0.60139 0.22052 0.0
C361 C 0.83498 0.60429 0.29285 0.0
C362 C 0.79086 0.60169 0.18713 0.0
C363 C 0.75146 0.60424 0.22509 0.0
H364 H 0.86163 0.60316 0.18927 0.0
H365 H 0.78989 0.60318 0.13123 0.0
S366 S 0.74161 0.60901 0.41566 0.0
N367 N 0.79538 0.60687 0.40144 0.0
N368 N 0.7179 0.60709 0.33877 0.0
C369 C 0.75396 0.60385 0.29751 0.0
C370 C 0.79584 0.60401 0.33141 0.0
C371 C 0.79541 0.37485 0.68659 0.0
C372 C 0.83548 0.37247 0.72351 0.0
C373 C 0.75465 0.37512 0.7208 0.0
C374 C 0.7526 0.37257 0.79319 0.0
H375 H 0.79551 0.37385 0.63065 0.0
H376 H 0.72478 0.3736 0.68997 0.0
S377 S 0.84782 0.36889 0.91413 0.0
N378 N 0.87043 0.37003 0.83672 0.0
N379 N 0.7939 0.37094 0.90093 0.0
C380 C 0.7924 0.37296 0.83083 0.0
C381 C 0.83389 0.37288 0.79603 0.0
C382 C 0.31199 0.41347 0.77975 0.0
C383 C 0.33777 0.37534 0.77778 0.0
C384 C 0.26767 0.4136 0.75826 0.0
C385 C 0.24686 0.37562 0.7336 0.0
H386 H 0.32605 0.44374 0.79827 0.0
H387 H 0.24962 0.44398 0.76125 0.0
S388 S 0.29972 0.26701 0.71647 0.0
N389 N 0.33919 0.29839 0.74821 0.0
N390 N 0.25589 0.2986 0.70785 0.0
C391 C 0.27218 0.33711 0.73123 0.0
C392 C 0.31751 0.33698 0.75328 0.0
C393 C 0.26842 0.5711 0.2416 0.0
C394 C 0.24659 0.60946 0.26198 0.0
C395 C 0.31336 0.57116 0.22404 0.0
C396 C 0.33862 0.60965 0.22534 0.0
H397 H 0.2508 0.54044 0.23956 0.0
H398 H 0.32833 0.54059 0.20896 0.0
S399 S 0.29761 0.71922 0.2746 0.0
N400 N 0.25395 0.68732 0.28224 0.0
N401 N 0.33833 0.68743 0.24878 0.0
C402 C 0.31727 0.64843 0.24513 0.0
C403 C 0.27139 0.64832 0.26359 0.0
C404 C 0.07474 0.25394 0.9217 0.0
C405 C 0.04779 0.29084 0.91431 0.0
C406 C 0.06843 0.22472 0.97605 0.0
C407 C 0.03417 0.23062 0.02419 0.0
H408 H 0.09977 0.24649 0.88367 0.0
H409 H 0.08959 0.19631 0.97868 0.0
S410 S 0.95595 0.32344 0.02953 0.0
N411 N 0.98729 0.33331 0.96161 0.0
N412 N 0.97414 0.2772 0.0627 0.0
C413 C 1.00742 0.26781 0.0182 0.0
C414 C 1.01455 0.29819 0.96353 0.0
C415 C 0.58248 0.7563 0.46864 0.0
C416 C 0.55632 0.75308 0.52801 0.0
C417 C 0.57517 0.72886 0.41217 0.0
C418 C 0.54246 0.69624 0.41398 0.0
H419 H 0.60736 0.78155 0.46449 0.0
H420 H 0.59473 0.7339 0.36613 0.0
S421 S 0.46716 0.67279 0.55971 0.0
N422 N 0.49702 0.71462 0.58644 0.0
N423 N 0.48512 0.66104 0.48141 0.0
C424 C 0.51696 0.69185 0.47394 0.0
C425 C 0.52355 0.72068 0.5308 0.0
C426 C 0.05626 0.71541 0.97236 0.0
C427 C 0.02728 0.75112 0.97638 0.0
C428 C 0.06323 0.68821 0.02964 0.0
C429 C 0.04233 0.69675 0.09285 0.0
H430 H 0.07387 0.70879 0.92489 0.0
H431 H 0.08534 0.66065 0.02477 0.0
S432 S 0.96817 0.78973 0.13176 0.0
N433 N 0.97967 0.79504 0.04891 0.0
N434 N 0.99491 0.74581 0.1577 0.0
C435 C 1.01442 0.73322 0.09781 0.0
C436 C 1.00628 0.75993 0.03916 0.0
C437 C 0.51162 0.25648 0.58141 0.0
C438 C 0.53883 0.29318 0.58918 0.0
C439 C 0.51708 0.22796 0.52597 0.0
C440 C 0.55073 0.23433 0.47696 0.0
H441 H 0.48699 0.24863 0.61987 0.0
H442 H 0.49577 0.19965 0.5232 0.0
S443 S 0.62941 0.32678 0.47222 0.0
N444 N 0.59899 0.33595 0.5414 0.0
N445 N 0.61059 0.28103 0.4382 0.0
C446 C 0.57783 0.27125 0.4834 0.0
C447 C 0.57155 0.30096 0.53928 0.0
C448 C 0.56716 0.79195 0.97304 0.0
C449 C 0.54511 0.78496 0.91008 0.0
C450 C 0.55991 0.76432 0.02965 0.0
C451 C 0.52953 0.72972 0.02527 0.0
H452 H 0.59024 0.81872 0.97833 0.0
H453 H 0.57825 0.76986 0.07701 0.0
S454 S 0.46685 0.69527 0.87009 0.0
N455 N 0.49492 0.7385 0.84487 0.0
N456 N 0.47931 0.68847 0.95246 0.0
C457 C 0.50744 0.72241 0.96266 0.0
C458 C 0.51579 0.74955 0.90465 0.0
C459 C 0.02823 0.21598 0.52785 0.0
C460 C 0.06191 0.24765 0.52833 0.0
C461 C 0.02077 0.18973 0.46974 0.0
C462 C 0.04636 0.19479 0.41003 0.0
H463 H 1.00666 0.21236 0.57204 0.0
H464 H 0.99436 0.16592 0.47104 0.0
S465 S 0.13615 0.27539 0.38318 0.0
N466 N 0.12026 0.28324 0.46369 0.0
N467 N 0.10493 0.23549 0.3533 0.0
C468 C 0.08004 0.22641 0.4098 0.0
C469 C 0.08827 0.25237 0.46942 0.0
C470 C 0.49709 0.248 0.02985 0.0
C471 C 0.52489 0.24549 0.9722 0.0
C472 C 0.50462 0.22177 0.08783 0.0
C473 C 0.5394 0.19127 0.08936 0.0
H474 H 0.47118 0.27232 0.03203 0.0
H475 H 0.48398 0.2266 0.13275 0.0
S476 S 0.61888 0.16946 0.94861 0.0
N477 N 0.58725 0.20901 0.91846 0.0
N478 N 0.59989 0.15808 0.02643 0.0
C479 C 0.56612 0.18708 0.03077 0.0
C480 C 0.55908 0.21445 0.97229 0.0
C481 C 0.03282 0.76466 0.47338 0.0
C482 C 0.06218 0.72928 0.47832 0.0
C483 C 0.02603 0.79255 0.52974 0.0
C484 C 0.04754 0.78511 0.59302 0.0
H485 H 1.01466 0.77045 0.42592 0.0
H486 H 1.00342 0.81968 0.52419 0.0
S487 S 0.12344 0.69369 0.63418 0.0
N488 N 0.11119 0.68707 0.55169 0.0
N489 N 0.09636 0.73761 0.65892 0.0
C490 C 0.07611 0.74914 0.59885 0.0
C491 C 0.08401 0.72169 0.54105 0.0
loop_
_geom_bond_atom_site_label_1
_geom_bond_atom_site_label_2
_geom_bond_distance
_geom_bond_site_symmetry_2
_ccdc_geom_bond_type
Co0 O3 1.970 . S
Co0 N17 1.989 . S
Co0 O25 1.967 . S
Co0 O32 1.920 . S
Co1 O4 1.966 . S
Co1 N10 2.022 . S
Co1 N18 1.993 . S
Co1 O26 1.941 . S
C2 O3 1.258 1_455 S
C2 O4 1.263 . S
O3 Co0 1.970 . S
O3 C2 1.258 1_655 S
O4 Co1 1.966 . S
O4 C2 1.263 . S
C5 O6 1.235 . S
C5 O32 1.289 . S
O6 C5 1.235 . S
C7 C9 1.400 . S
C7 N10 1.351 . S
C7 C12 1.501 . S
C8 C9 1.387 . S
C8 N11 1.341 . S
C9 C7 1.400 . S
C9 C8 1.387 . S
N10 Co1 2.022 . S
N10 C7 1.351 . S
N10 N11 1.365 . S
N11 C8 1.341 . S
N11 N10 1.365 . S
N11 H31 0.862 . S
C12 C7 1.501 . S
C12 H13 0.961 . S
C12 H14 0.961 . S
C12 H15 0.960 . S
H13 C12 0.961 . S
H14 C12 0.961 . S
H15 C12 0.960 . S
C16 N17 1.342 . S
C16 C20 1.401 1_655 S
C16 C21 1.499 . S
N17 Co0 1.989 . S
N17 C16 1.342 . S
N17 N18 1.388 1_655 S
N18 Co1 1.993 . S
N18 N17 1.388 1_455 S
N18 C19 1.346 . S
C19 N18 1.346 . S
C19 C20 1.396 . S
C19 C29 1.510 . S
C20 C16 1.401 1_455 S
C20 C19 1.396 . S
C21 C16 1.499 . S
C21 H22 0.959 . S
C21 H23 0.960 . S
C21 H24 0.961 . S
H22 C21 0.959 . S
H23 C21 0.960 . S
H24 C21 0.961 . S
O25 Co0 1.967 . S
O25 C33 1.258 1_655 S
O26 Co1 1.941 . S
O26 C33 1.266 . S
H27 C29 0.959 . S
H28 C29 0.961 . S
C29 C19 1.510 . S
C29 H27 0.959 . S
C29 H28 0.961 . S
C29 H30 0.960 . S
H30 C29 0.960 . S
H31 N11 0.862 . S
O32 Co0 1.920 . S
O32 C5 1.289 . S
C33 O25 1.258 1_455 S
C33 O26 1.266 . S
Co34 O37 1.970 . S
Co34 N51 1.989 . S
Co34 O59 1.967 . S
Co34 O66 1.920 . S
Co35 O38 1.966 . S
Co35 N44 2.022 . S
Co35 N52 1.993 . S
Co35 O60 1.941 . S
C36 O37 1.258 . S
C36 O38 1.263 . S
O37 Co34 1.970 . S
O37 C36 1.258 . S
O38 Co35 1.966 . S
O38 C36 1.263 . S
C39 O40 1.235 . S
C39 O66 1.289 . S
O40 C39 1.235 . S
C41 C43 1.400 . S
C41 N44 1.351 . S
C41 C46 1.501 . S
C42 C43 1.387 . S
C42 N45 1.341 . S
C43 C41 1.400 . S
C43 C42 1.387 . S
N44 Co35 2.022 . S
N44 C41 1.351 . S
N44 N45 1.365 . S
N45 C42 1.341 . S
N45 N44 1.365 . S
N45 H65 0.862 . S
C46 C41 1.501 . S
C46 H47 0.961 . S
C46 H48 0.961 . S
C46 H49 0.960 . S
H47 C46 0.961 . S
H48 C46 0.961 . S
H49 C46 0.960 . S
C50 N51 1.342 . S
C50 C54 1.401 . S
C50 C55 1.499 . S
N51 Co34 1.989 . S
N51 C50 1.342 . S
N51 N52 1.388 . S
N52 Co35 1.993 . S
N52 N51 1.388 . S
N52 C53 1.346 . S
C53 N52 1.346 . S
C53 C54 1.396 . S
C53 C63 1.510 . S
C54 C50 1.401 . S
C54 C53 1.396 . S
C55 C50 1.499 . S
C55 H56 0.959 . S
C55 H57 0.960 . S
C55 H58 0.961 . S
H56 C55 0.959 . S
H57 C55 0.960 . S
H58 C55 0.961 . S
O59 Co34 1.967 . S
O59 C67 1.258 . S
O60 Co35 1.941 . S
O60 C67 1.266 . S
H61 C63 0.959 . S
H62 C63 0.961 . S
C63 C53 1.510 . S
C63 H61 0.959 . S
C63 H62 0.961 . S
C63 H64 0.960 . S
H64 C63 0.960 . S
H65 N45 0.862 . S
O66 Co34 1.920 . S
O66 C39 1.289 . S
C67 O59 1.258 . S
C67 O60 1.266 . S
Co68 O71 1.970 . S
Co68 N85 1.989 . S
Co68 O93 1.967 . S
Co68 O100 1.920 . S
Co69 O72 1.966 . S
Co69 N78 2.022 . S
Co69 N86 1.993 . S
Co69 O94 1.941 . S
C70 O71 1.258 1_455 S
C70 O72 1.263 . S
O71 Co68 1.970 . S
O71 C70 1.258 1_655 S
O72 Co69 1.966 . S
O72 C70 1.263 . S
C73 O74 1.235 . S
C73 O100 1.289 . S
O74 C73 1.235 . S
C75 C77 1.400 . S
C75 N78 1.351 . S
C75 C80 1.501 . S
C76 C77 1.387 . S
C76 N79 1.341 . S
C77 C75 1.400 . S
C77 C76 1.387 . S
N78 Co69 2.022 . S
N78 C75 1.351 . S
N78 N79 1.365 . S
N79 C76 1.341 . S
N79 N78 1.365 . S
N79 H99 0.862 . S
C80 C75 1.501 . S
C80 H81 0.961 . S
C80 H82 0.961 . S
C80 H83 0.960 . S
H81 C80 0.961 . S
H82 C80 0.961 . S
H83 C80 0.960 . S
C84 N85 1.342 . S
C84 C88 1.401 1_655 S
C84 C89 1.499 . S
N85 Co68 1.989 . S
N85 C84 1.342 . S
N85 N86 1.388 1_655 S
N86 Co69 1.993 . S
N86 N85 1.388 1_455 S
N86 C87 1.346 . S
C87 N86 1.346 . S
C87 C88 1.396 . S
C87 C97 1.510 . S
C88 C84 1.401 1_455 S
C88 C87 1.396 . S
C89 C84 1.499 . S
C89 H90 0.959 . S
C89 H91 0.960 . S
C89 H92 0.961 . S
H90 C89 0.959 . S
H91 C89 0.960 . S
H92 C89 0.961 . S
O93 Co68 1.967 . S
O93 C101 1.258 1_655 S
O94 Co69 1.941 . S
O94 C101 1.266 . S
H95 C97 0.959 . S
H96 C97 0.961 . S
C97 C87 1.510 . S
C97 H95 0.959 . S
C97 H96 0.961 . S
C97 H98 0.960 . S
H98 C97 0.960 . S
H99 N79 0.862 . S
O100 Co68 1.920 . S
O100 C73 1.289 . S
C101 O93 1.258 1_455 S
C101 O94 1.266 . S
Co102 O105 1.970 . S
Co102 N119 1.989 . S
Co102 O127 1.967 . S
Co102 O134 1.920 . S
Co103 O106 1.966 . S
Co103 N112 2.022 . S
Co103 N120 1.993 . S
Co103 O128 1.941 . S
C104 O105 1.258 . S
C104 O106 1.263 . S
O105 Co102 1.970 . S
O105 C104 1.258 . S
O106 Co103 1.966 . S
O106 C104 1.263 . S
C107 O108 1.235 . S
C107 O134 1.289 . S
O108 C107 1.235 . S
C109 C111 1.400 . S
C109 N112 1.351 . S
C109 C114 1.501 . S
C110 C111 1.387 . S
C110 N113 1.341 . S
C111 C109 1.400 . S
C111 C110 1.387 . S
N112 Co103 2.022 . S
N112 C109 1.351 . S
N112 N113 1.365 . S
N113 C110 1.341 . S
N113 N112 1.365 . S
N113 H133 0.862 . S
C114 C109 1.501 . S
C114 H115 0.961 . S
C114 H116 0.961 . S
C114 H117 0.960 . S
H115 C114 0.961 . S
H116 C114 0.961 . S
H117 C114 0.960 . S
C118 N119 1.342 . S
C118 C122 1.401 . S
C118 C123 1.499 . S
N119 Co102 1.989 . S
N119 C118 1.342 . S
N119 N120 1.388 . S
N120 Co103 1.993 . S
N120 N119 1.388 . S
N120 C121 1.346 . S
C121 N120 1.346 . S
C121 C122 1.396 . S
C121 C131 1.510 . S
C122 C118 1.401 . S
C122 C121 1.396 . S
C123 C118 1.499 . S
C123 H124 0.959 . S
C123 H125 0.960 . S
C123 H126 0.961 . S
H124 C123 0.959 . S
H125 C123 0.960 . S
H126 C123 0.961 . S
O127 Co102 1.967 . S
O127 C135 1.258 . S
O128 Co103 1.941 . S
O128 C135 1.266 . S
H129 C131 0.959 . S
H130 C131 0.961 . S
C131 C121 1.510 . S
C131 H129 0.959 . S
C131 H130 0.961 . S
C131 H132 0.960 . S
H132 C131 0.960 . S
H133 N113 0.862 . S
O134 Co102 1.920 . S
O134 C107 1.289 . S
C135 O127 1.258 . S
C135 O128 1.266 . S
Co136 O139 1.970 . S
Co136 N153 1.989 . S
Co136 O161 1.967 . S
Co136 O168 1.920 . S
Co137 O140 1.966 . S
Co137 N146 2.022 . S
Co137 N154 1.993 . S
Co137 O162 1.941 . S
C138 O139 1.258 . S
C138 O140 1.263 . S
O139 Co136 1.970 . S
O139 C138 1.258 . S
O140 Co137 1.966 . S
O140 C138 1.263 . S
C141 O142 1.235 . S
C141 O168 1.289 . S
O142 C141 1.235 . S
C143 C145 1.400 . S
C143 N146 1.351 . S
C143 C148 1.501 . S
C144 C145 1.387 . S
C144 N147 1.341 . S
C145 C143 1.400 . S
C145 C144 1.387 . S
N146 Co137 2.022 . S
N146 C143 1.351 . S
N146 N147 1.365 . S
N147 C144 1.341 . S
N147 N146 1.365 . S
N147 H167 0.862 . S
C148 C143 1.501 . S
C148 H149 0.961 . S
C148 H150 0.961 . S
C148 H151 0.960 . S
H149 C148 0.961 . S
H150 C148 0.961 . S
H151 C148 0.960 . S
C152 N153 1.342 . S
C152 C156 1.401 . S
C152 C157 1.499 . S
N153 Co136 1.989 . S
N153 C152 1.342 . S
N153 N154 1.388 . S
N154 Co137 1.993 . S
N154 N153 1.388 . S
N154 C155 1.346 . S
C155 N154 1.346 . S
C155 C156 1.396 . S
C155 C165 1.510 . S
C156 C152 1.401 . S
C156 C155 1.396 . S
C157 C152 1.499 . S
C157 H158 0.959 . S
C157 H159 0.960 . S
C157 H160 0.961 . S
H158 C157 0.959 . S
H159 C157 0.960 . S
H160 C157 0.961 . S
O161 Co136 1.967 . S
O161 C169 1.258 . S
O162 Co137 1.941 . S
O162 C169 1.266 . S
H163 C165 0.959 . S
H164 C165 0.961 . S
C165 C155 1.510 . S
C165 H163 0.959 . S
C165 H164 0.961 . S
C165 H166 0.960 . S
H166 C165 0.960 . S
H167 N147 0.862 . S
O168 Co136 1.920 . S
O168 C141 1.289 . S
C169 O161 1.258 . S
C169 O162 1.266 . S
Co170 O173 1.970 . S
Co170 N187 1.989 . S
Co170 O195 1.967 . S
Co170 O202 1.920 . S
Co171 O174 1.966 1_655 S
Co171 N180 2.022 . S
Co171 N188 1.993 1_655 S
Co171 O196 1.941 1_655 S
C172 O173 1.258 . S
C172 O174 1.263 . S
O173 Co170 1.970 . S
O173 C172 1.258 . S
O174 Co171 1.966 1_455 S
O174 C172 1.263 . S
C175 O176 1.235 . S
C175 O202 1.289 . S
O176 C175 1.235 . S
C177 C179 1.400 . S
C177 N180 1.351 . S
C177 C182 1.501 . S
C178 C179 1.387 . S
C178 N181 1.341 . S
C179 C177 1.400 . S
C179 C178 1.387 . S
N180 Co171 2.022 . S
N180 C177 1.351 . S
N180 N181 1.365 . S
N181 C178 1.341 . S
N181 N180 1.365 . S
N181 H201 0.862 . S
C182 C177 1.501 . S
C182 H183 0.961 . S
C182 H184 0.961 . S
C182 H185 0.960 . S
H183 C182 0.961 . S
H184 C182 0.961 . S
H185 C182 0.960 . S
C186 N187 1.342 . S
C186 C190 1.401 . S
C186 C191 1.499 . S
N187 Co170 1.989 . S
N187 C186 1.342 . S
N187 N188 1.388 . S
N188 Co171 1.993 1_455 S
N188 N187 1.388 . S
N188 C189 1.346 . S
C189 N188 1.346 . S
C189 C190 1.396 . S
C189 C199 1.510 1_455 S
C190 C186 1.401 . S
C190 C189 1.396 . S
C191 C186 1.499 . S
C191 H192 0.959 . S
C191 H193 0.960 . S
C191 H194 0.961 . S
H192 C191 0.959 . S
H193 C191 0.960 . S
H194 C191 0.961 . S
O195 Co170 1.967 . S
O195 C203 1.258 . S
O196 Co171 1.941 1_455 S
O196 C203 1.266 . S
H197 C199 0.959 . S
H198 C199 0.961 . S
C199 C189 1.510 1_655 S
C199 H197 0.959 . S
C199 H198 0.961 . S
C199 H200 0.960 . S
H200 C199 0.960 . S
H201 N181 0.862 . S
O202 Co170 1.920 . S
O202 C175 1.289 . S
C203 O195 1.258 . S
C203 O196 1.266 . S
Co204 O207 1.970 . S
Co204 N221 1.989 . S
Co204 O229 1.967 . S
Co204 O236 1.920 . S
Co205 O208 1.966 . S
Co205 N214 2.022 . S
Co205 N222 1.993 . S
Co205 O230 1.941 . S
C206 O207 1.258 . S
C206 O208 1.263 . S
O207 Co204 1.970 . S
O207 C206 1.258 . S
O208 Co205 1.966 . S
O208 C206 1.263 . S
C209 O210 1.235 . S
C209 O236 1.289 . S
O210 C209 1.235 . S
C211 C213 1.400 . S
C211 N214 1.351 . S
C211 C216 1.501 . S
C212 C213 1.387 . S
C212 N215 1.341 . S
C213 C211 1.400 . S
C213 C212 1.387 . S
N214 Co205 2.022 . S
N214 C211 1.351 . S
N214 N215 1.365 . S
N215 C212 1.341 . S
N215 N214 1.365 . S
N215 H235 0.862 . S
C216 C211 1.501 . S
C216 H217 0.961 . S
C216 H218 0.961 . S
C216 H219 0.960 . S
H217 C216 0.961 . S
H218 C216 0.961 . S
H219 C216 0.960 . S
C220 N221 1.342 . S
C220 C224 1.401 . S
C220 C225 1.499 . S
N221 Co204 1.989 . S
N221 C220 1.342 . S
N221 N222 1.388 . S
N222 Co205 1.993 . S
N222 N221 1.388 . S
N222 C223 1.346 . S
C223 N222 1.346 . S
C223 C224 1.396 . S
C223 C233 1.510 . S
C224 C220 1.401 . S
C224 C223 1.396 . S
C225 C220 1.499 . S
C225 H226 0.959 . S
C225 H227 0.960 . S
C225 H228 0.961 . S
H226 C225 0.959 . S
H227 C225 0.960 . S
H228 C225 0.961 . S
O229 Co204 1.967 . S
O229 C237 1.258 . S
O230 Co205 1.941 . S
O230 C237 1.266 . S
H231 C233 0.959 . S
H232 C233 0.961 . S
C233 C223 1.510 . S
C233 H231 0.959 . S
C233 H232 0.961 . S
C233 H234 0.960 . S
H234 C233 0.960 . S
H235 N215 0.862 . S
O236 Co204 1.920 . S
O236 C209 1.289 . S
C237 O229 1.258 . S
C237 O230 1.266 . S
Co238 O241 1.970 . S
Co238 N255 1.989 . S
Co238 O263 1.967 . S
Co238 O270 1.920 . S
Co239 O242 1.966 1_655 S
Co239 N248 2.022 . S
Co239 N256 1.993 1_655 S
Co239 O264 1.941 1_655 S
C240 O241 1.258 . S
C240 O242 1.263 . S
O241 Co238 1.970 . S
O241 C240 1.258 . S
O242 Co239 1.966 1_455 S
O242 C240 1.263 . S
C243 O244 1.235 . S
C243 O270 1.289 . S
O244 C243 1.235 . S
C245 C247 1.400 . S
C245 N248 1.351 . S
C245 C250 1.501 . S
C246 C247 1.387 . S
C246 N249 1.341 . S
C247 C245 1.400 . S
C247 C246 1.387 . S
N248 Co239 2.022 . S
N248 C245 1.351 . S
N248 N249 1.365 . S
N249 C246 1.341 . S
N249 N248 1.365 . S
N249 H269 0.862 . S
C250 C245 1.501 . S
C250 H251 0.961 . S
C250 H252 0.961 . S
C250 H253 0.960 . S
H251 C250 0.961 . S
H252 C250 0.961 . S
H253 C250 0.960 . S
C254 N255 1.342 . S
C254 C258 1.401 . S
C254 C259 1.499 . S
N255 Co238 1.989 . S
N255 C254 1.342 . S
N255 N256 1.388 . S
N256 Co239 1.993 1_455 S
N256 N255 1.388 . S
N256 C257 1.346 . S
C257 N256 1.346 . S
C257 C258 1.396 . S
C257 C267 1.510 1_455 S
C258 C254 1.401 . S
C258 C257 1.396 . S
C259 C254 1.499 . S
C259 H260 0.959 . S
C259 H261 0.960 . S
C259 H262 0.961 . S
H260 C259 0.959 . S
H261 C259 0.960 . S
H262 C259 0.961 . S
O263 Co238 1.967 . S
O263 C271 1.258 . S
O264 Co239 1.941 1_455 S
O264 C271 1.266 . S
H265 C267 0.959 . S
H266 C267 0.961 . S
C267 C257 1.510 1_655 S
C267 H265 0.959 . S
C267 H266 0.961 . S
C267 H268 0.960 . S
H268 C267 0.960 . S
H269 N249 0.862 . S
O270 Co238 1.920 . S
O270 C243 1.289 . S
C271 O263 1.258 . S
C271 O264 1.266 . S
C272 C273 1.384 . S
C272 C274 1.404 1_556 S
C272 H276 0.929 1_556 S
C273 C272 1.384 . S
C273 C282 1.429 1_565 S
C274 C272 1.404 1_554 S
C274 C275 1.363 1_565 S
C274 H277 0.929 . S
C275 C274 1.363 1_545 S
C275 C281 1.428 1_554 S
H276 C272 0.929 1_554 S
H277 C274 0.929 . S
S278 N279 1.613 . S
S278 N280 1.610 . S
N279 S278 1.613 . S
N279 C282 1.350 . S
N280 S278 1.610 . S
N280 C281 1.351 . S
C281 C275 1.428 1_556 S
C281 N280 1.351 . S
C281 C282 1.434 . S
C282 C273 1.429 1_545 S
C282 N279 1.350 . S
C282 C281 1.434 . S
C283 C284 1.369 . S
C283 C285 1.419 1_545 S
C283 H287 0.930 . S
C284 C283 1.369 . S
C284 C293 1.429 . S
C285 C283 1.419 1_565 S
C285 C286 1.363 . S
C285 H288 0.929 . S
C286 C285 1.363 . S
C286 C292 1.428 . S
H287 C283 0.930 . S
H288 C285 0.929 . S
S289 N290 1.613 . S
S289 N291 1.610 1_545 S
N290 S289 1.613 . S
N290 C293 1.350 . S
N291 S289 1.610 1_565 S
N291 C292 1.351 . S
C292 C286 1.428 . S
C292 N291 1.351 . S
C292 C293 1.434 1_565 S
C293 C284 1.429 . S
C293 N290 1.350 . S
C293 C292 1.434 1_545 S
C294 C295 1.369 . S
C294 C296 1.419 1_554 S
C294 H298 0.930 . S
C295 C294 1.369 . S
C295 C304 1.429 . S
C296 C294 1.419 1_556 S
C296 C297 1.363 . S
C296 H299 0.929 . S
C297 C296 1.363 . S
C297 C303 1.428 . S
H298 C294 0.930 . S
H299 C296 0.929 . S
S300 N301 1.613 1_556 S
S300 N302 1.610 . S
N301 S300 1.613 1_554 S
N301 C304 1.350 . S
N302 S300 1.610 . S
N302 C303 1.351 . S
C303 C297 1.428 . S
C303 N302 1.351 . S
C303 C304 1.434 1_556 S
C304 C295 1.429 . S
C304 N301 1.350 . S
C304 C303 1.434 1_554 S
C305 C306 1.369 . S
C305 C307 1.419 . S
C305 H309 0.930 . S
C306 C305 1.369 . S
C306 C315 1.429 . S
C307 C305 1.419 . S
C307 C308 1.363 . S
C307 H310 0.929 . S
C308 C307 1.363 . S
C308 C314 1.428 . S
H309 C305 0.930 . S
H310 C307 0.929 . S
S311 N312 1.613 . S
S311 N313 1.610 . S
N312 S311 1.613 . S
N312 C315 1.350 . S
N313 S311 1.610 . S
N313 C314 1.351 . S
C314 C308 1.428 . S
C314 N313 1.351 . S
C314 C315 1.434 . S
C315 C306 1.429 . S
C315 N312 1.350 . S
C315 C314 1.434 . S
C316 C317 1.369 . S
C316 C318 1.419 . S
C316 H320 0.930 . S
C317 C316 1.369 . S
C317 C326 1.429 . S
C318 C316 1.419 . S
C318 C319 1.363 . S
C318 H321 0.929 . S
C319 C318 1.363 . S
C319 C325 1.428 . S
H320 C316 0.930 . S
H321 C318 0.929 . S
S322 N323 1.613 . S
S322 N324 1.610 . S
N323 S322 1.613 . S
N323 C326 1.350 . S
N324 S322 1.610 . S
N324 C325 1.351 . S
C325 C319 1.428 . S
C325 N324 1.351 . S
C325 C326 1.434 . S
C326 C317 1.429 . S
C326 N323 1.350 . S
C326 C325 1.434 . S
C327 C328 1.369 . S
C327 C329 1.419 . S
C327 H331 0.930 . S
C328 C327 1.369 . S
C328 C337 1.429 . S
C329 C327 1.419 . S
C329 C330 1.363 . S
C329 H332 0.929 . S
C330 C329 1.363 . S
C330 C336 1.428 . S
H331 C327 0.930 . S
H332 C329 0.929 . S
S333 N334 1.613 . S
S333 N335 1.610 . S
N334 S333 1.613 . S
N334 C337 1.350 . S
N335 S333 1.610 . S
N335 C336 1.351 . S
C336 C330 1.428 . S
C336 N335 1.351 . S
C336 C337 1.434 . S
C337 C328 1.429 . S
C337 N334 1.350 . S
C337 C336 1.434 . S
C338 C339 1.369 . S
C338 C340 1.419 . S
C338 H342 0.930 . S
C339 C338 1.369 . S
C339 C348 1.429 . S
C340 C338 1.419 . S
C340 C341 1.363 . S
C340 H343 0.929 . S
C341 C340 1.363 . S
C341 C347 1.428 . S
H342 C338 0.930 . S
H343 C340 0.929 . S
S344 N345 1.613 . S
S344 N346 1.610 . S
N345 S344 1.613 . S
N345 C348 1.350 . S
N346 S344 1.610 . S
N346 C347 1.351 . S
C347 C341 1.428 . S
C347 N346 1.351 . S
C347 C348 1.434 . S
C348 C339 1.429 . S
C348 N345 1.350 . S
C348 C347 1.434 . S
C349 C350 1.369 . S
C349 C351 1.419 . S
C349 H353 0.930 . S
C350 C349 1.369 . S
C350 C359 1.429 . S
C351 C349 1.419 . S
C351 C352 1.363 . S
C351 H354 0.929 . S
C352 C351 1.363 . S
C352 C358 1.428 . S
H353 C349 0.930 . S
H354 C351 0.929 . S
S355 N356 1.613 . S
S355 N357 1.610 . S
N356 S355 1.613 . S
N356 C359 1.350 . S
N357 S355 1.610 . S
N357 C358 1.351 . S
C358 C352 1.428 . S
C358 N357 1.351 . S
C358 C359 1.434 . S
C359 C350 1.429 . S
C359 N356 1.350 . S
C359 C358 1.434 . S
C360 C361 1.369 . S
C360 C362 1.419 . S
C360 H364 0.930 . S
C361 C360 1.369 . S
C361 C370 1.429 . S
C362 C360 1.419 . S
C362 C363 1.363 . S
C362 H365 0.929 . S
C363 C362 1.363 . S
C363 C369 1.428 . S
H364 C360 0.930 . S
H365 C362 0.929 . S
S366 N367 1.613 . S
S366 N368 1.610 . S
N367 S366 1.613 . S
N367 C370 1.350 . S
N368 S366 1.610 . S
N368 C369 1.351 . S
C369 C363 1.428 . S
C369 N368 1.351 . S
C369 C370 1.434 . S
C370 C361 1.429 . S
C370 N367 1.350 . S
C370 C369 1.434 . S
C371 C372 1.369 . S
C371 C373 1.419 . S
C371 H375 0.930 . S
C372 C371 1.369 . S
C372 C381 1.429 . S
C373 C371 1.419 . S
C373 C374 1.363 . S
C373 H376 0.929 . S
C374 C373 1.363 . S
C374 C380 1.428 . S
H375 C371 0.930 . S
H376 C373 0.929 . S
S377 N378 1.613 . S
S377 N379 1.610 . S
N378 S377 1.613 . S
N378 C381 1.350 . S
N379 S377 1.610 . S
N379 C380 1.351 . S
C380 C374 1.428 . S
C380 N379 1.351 . S
C380 C381 1.434 . S
C381 C372 1.429 . S
C381 N378 1.350 . S
C381 C380 1.434 . S
C382 C383 1.369 . S
C382 C384 1.419 . S
C382 H386 0.930 . S
C383 C382 1.369 . S
C383 C392 1.429 . S
C384 C382 1.419 . S
C384 C385 1.363 . S
C384 H387 0.929 . S
C385 C384 1.363 . S
C385 C391 1.428 . S
H386 C382 0.930 . S
H387 C384 0.929 . S
S388 N389 1.613 . S
S388 N390 1.610 . S
N389 S388 1.613 . S
N389 C392 1.350 . S
N390 S388 1.610 . S
N390 C391 1.351 . S
C391 C385 1.428 . S
C391 N390 1.351 . S
C391 C392 1.434 . S
C392 C383 1.429 . S
C392 N389 1.350 . S
C392 C391 1.434 . S
C393 C394 1.369 . S
C393 C395 1.419 . S
C393 H397 0.930 . S
C394 C393 1.369 . S
C394 C403 1.429 . S
C395 C393 1.419 . S
C395 C396 1.363 . S
C395 H398 0.929 . S
C396 C395 1.363 . S
C396 C402 1.428 . S
H397 C393 0.930 . S
H398 C395 0.929 . S
S399 N400 1.613 . S
S399 N401 1.610 . S
N400 S399 1.613 . S
N400 C403 1.350 . S
N401 S399 1.610 . S
N401 C402 1.351 . S
C402 C396 1.428 . S
C402 N401 1.351 . S
C402 C403 1.434 . S
C403 C394 1.429 . S
C403 N400 1.350 . S
C403 C402 1.434 . S
C404 C405 1.369 . S
C404 C406 1.419 . S
C404 H408 0.930 . S
C405 C404 1.369 . S
C405 C414 1.429 . S
C406 C404 1.419 . S
C406 C407 1.363 1_556 S
C406 H409 0.929 . S
C407 C406 1.363 1_554 S
C407 C413 1.428 . S
H408 C404 0.930 . S
H409 C406 0.929 . S
S410 N411 1.613 . S
S410 N412 1.610 . S
N411 S410 1.613 . S
N411 C414 1.350 1_554 S
N412 S410 1.610 . S
N412 C413 1.351 . S
C413 C407 1.428 . S
C413 N412 1.351 . S
C413 C414 1.434 1_554 S
C414 C405 1.429 . S
C414 N411 1.350 1_556 S
C414 C413 1.434 1_556 S
C415 C416 1.369 . S
C415 C417 1.419 . S
C415 H419 0.930 . S
C416 C415 1.369 . S
C416 C425 1.429 . S
C417 C415 1.419 . S
C417 C418 1.363 . S
C417 H420 0.929 . S
C418 C417 1.363 . S
C418 C424 1.428 . S
H419 C415 0.930 . S
H420 C417 0.929 . S
S421 N422 1.613 . S
S421 N423 1.610 . S
N422 S421 1.613 . S
N422 C425 1.350 . S
N423 S421 1.610 . S
N423 C424 1.351 . S
C424 C418 1.428 . S
C424 N423 1.351 . S
C424 C425 1.434 . S
C425 C416 1.429 . S
C425 N422 1.350 . S
C425 C424 1.434 . S
C426 C427 1.369 . S
C426 C428 1.419 1_556 S
C426 H430 0.930 . S
C427 C426 1.369 . S
C427 C436 1.429 1_556 S
C428 C426 1.419 1_554 S
C428 C429 1.363 . S
C428 H431 0.929 . S
C429 C428 1.363 . S
C429 C435 1.428 . S
H430 C426 0.930 . S
H431 C428 0.929 . S
S432 N433 1.613 . S
S432 N434 1.610 1_655 S
N433 S432 1.613 . S
N433 C436 1.350 1_655 S
N434 S432 1.610 1_455 S
N434 C435 1.351 . S
C435 C429 1.428 . S
C435 N434 1.351 . S
C435 C436 1.434 . S
C436 C427 1.429 1_554 S
C436 N433 1.350 1_455 S
C436 C435 1.434 . S
C437 C438 1.369 . S
C437 C439 1.419 . S
C437 H441 0.930 . S
C438 C437 1.369 . S
C438 C447 1.429 . S
C439 C437 1.419 . S
C439 C440 1.363 . S
C439 H442 0.929 . S
C440 C439 1.363 . S
C440 C446 1.428 . S
H441 C437 0.930 . S
H442 C439 0.929 . S
S443 N444 1.613 . S
S443 N445 1.610 . S
N444 S443 1.613 . S
N444 C447 1.350 . S
N445 S443 1.610 . S
N445 C446 1.351 . S
C446 C440 1.428 . S
C446 N445 1.351 . S
C446 C447 1.434 . S
C447 C438 1.429 . S
C447 N444 1.350 . S
C447 C446 1.434 . S
C448 C449 1.369 . S
C448 C450 1.419 1_556 S
C448 H452 0.930 . S
C449 C448 1.369 . S
C449 C458 1.429 . S
C450 C448 1.419 1_554 S
C450 C451 1.363 . S
C450 H453 0.929 . S
C451 C450 1.363 . S
C451 C457 1.428 1_554 S
H452 C448 0.930 . S
H453 C450 0.929 . S
S454 N455 1.613 . S
S454 N456 1.610 . S
N455 S454 1.613 . S
N455 C458 1.350 . S
N456 S454 1.610 . S
N456 C457 1.351 . S
C457 C451 1.428 1_556 S
C457 N456 1.351 . S
C457 C458 1.434 . S
C458 C449 1.429 . S
C458 N455 1.350 . S
C458 C457 1.434 . S
C459 C460 1.369 . S
C459 C461 1.419 . S
C459 H463 0.930 . S
C460 C459 1.369 . S
C460 C469 1.429 . S
C461 C459 1.419 . S
C461 C462 1.363 . S
C461 H464 0.929 . S
C462 C461 1.363 . S
C462 C468 1.428 . S
H463 C459 0.930 . S
H464 C461 0.929 . S
S465 N466 1.613 . S
S465 N467 1.610 . S
N466 S465 1.613 . S
N466 C469 1.350 . S
N467 S465 1.610 . S
N467 C468 1.351 . S
C468 C462 1.428 . S
C468 N467 1.351 . S
C468 C469 1.434 . S
C469 C460 1.429 . S
C469 N466 1.350 . S
C469 C468 1.434 . S
C470 C471 1.369 1_554 S
C470 C472 1.419 . S
C470 H474 0.930 . S
C471 C470 1.369 1_556 S
C471 C480 1.429 . S
C472 C470 1.419 . S
C472 C473 1.363 . S
C472 H475 0.929 . S
C473 C472 1.363 . S
C473 C479 1.428 . S
H474 C470 0.930 . S
H475 C472 0.929 . S
S476 N477 1.613 . S
S476 N478 1.610 1_556 S
N477 S476 1.613 . S
N477 C480 1.350 . S
N478 S476 1.610 1_554 S
N478 C479 1.351 . S
C479 C473 1.428 . S
C479 N478 1.351 . S
C479 C480 1.434 1_554 S
C480 C471 1.429 . S
C480 N477 1.350 . S
C480 C479 1.434 1_556 S
C481 C482 1.364 1_655 S
C481 C483 1.419 . S
C481 H485 0.934 . S
C482 C481 1.364 1_455 S
C482 C491 1.429 . S
C483 C481 1.419 . S
C483 C484 1.363 1_655 S
C483 H486 0.929 . S
C484 C483 1.363 1_455 S
C484 C490 1.428 . S
H485 C481 0.934 . S
H486 C483 0.929 . S
S487 N488 1.613 . S
S487 N489 1.610 . S
N488 S487 1.613 . S
N488 C491 1.350 . S
N489 S487 1.610 . S
N489 C490 1.351 . S
C490 C484 1.428 . S
C490 N489 1.351 . S
C490 C491 1.434 . S
C491 C482 1.429 . S
C491 N488 1.350 . S
C491 C490 1.434 . S
C273 C70 1.684 . S
C275 C2 1.678 . S
C284 C104 1.679 . S
C286 C36 1.682 . S
C295 C138 1.680 . S
C297 C206 1.681 . S
C306 C172 1.677 . S
C308 C240 1.684 . S
C317 C111 1.202 . S
C319 C9 1.200 . S
C328 C43 1.189 . S
C330 C77 1.191 . S
C339 C73 1.840 . S
C341 C39 1.837 . S
C350 C107 1.840 . S
C352 C5 1.836 . S
C361 C247 1.189 . S
C363 C145 1.192 . S
C372 C179 1.195 . S
C374 C213 1.192 . S
C383 C209 1.835 . S
C385 C175 1.840 . S
C394 C243 1.839 . S
C396 C141 1.837 . S
C405 C190 1.374 . S
C407 C33 1.367 . S
C416 C67 1.365 . S
C418 C156 1.372 . S
C427 C101 1.369 . S
C429 C258 1.369 . S
C438 C224 1.374 . S
C440 C135 1.366 . S
C449 C54 1.369 . S
C451 C169 1.370 . S
C460 C203 1.368 . S
C462 C20 1.369 . S
C471 C237 1.365 . S
C473 C122 1.373 . S
C482 C271 1.371 . S
C484 C88 1.370 . S
