# Generated by pormake.
# Topology unm, (4)-cn, num edge types: 1
# Building blocks:
#     Node 0, Type 0, BuildingBlock: TATPOV_clean_sbu_0, # of connection points: 4
#     Node 1, Type 0, BuildingBlock: TATPOV_clean_sbu_0, # of connection points: 4
#     Node 2, Type 0, BuildingBlock: TATPOV_clean_sbu_0, # of connection points: 4
#     Node 3, Type 0, BuildingBlock: TATPOV_clean_sbu_0, # of connection points: 4
#     Node 4, Type 0, BuildingBlock: TATPOV_clean_sbu_0, # of connection points: 4
#     Node 5, Type 0, BuildingBlock: TATPOV_clean_sbu_0, # of connection points: 4
#     Node 6, Type 0, BuildingBlock: TATPOV_clean_sbu_0, # of connection points: 4
#     Node 7, Type 0, BuildingBlock: TATPOV_clean_sbu_0, # of connection points: 4
#     Edge 8, Type (0, 0), BuildingBlock: UKIBIB_clean_linker_0, # of connection points: 2
#     Edge 9, Type (0, 0), BuildingBlock: UKIBIB_clean_linker_0, # of connection points: 2
#     Edge 10, Type (0, 0), BuildingBlock: UKIBIB_clean_linker_0, # of connection points: 2
#     Edge 11, Type (0, 0), BuildingBlock: UKIBIB_clean_linker_0, # of connection points: 2
#     Edge 12, Type (0, 0), BuildingBlock: UKIBIB_clean_linker_0, # of connection points: 2
#     Edge 13, Type (0, 0), BuildingBlock: UKIBIB_clean_linker_0, # of connection points: 2
#     Edge 14, Type (0, 0), BuildingBlock: UKIBIB_clean_linker_0, # of connection points: 2
#     Edge 15, Type (0, 0), BuildingBlock: UKIBIB_clean_linker_0, # of connection points: 2
#     Edge 16, Type (0, 0), BuildingBlock: UKIBIB_clean_linker_0, # of connection points: 2
#     Edge 17, Type (0, 0), BuildingBlock: UKIBIB_clean_linker_0, # of connection points: 2
#     Edge 18, Type (0, 0), BuildingBlock: UKIBIB_clean_linker_0, # of connection points: 2
#     Edge 19, Type (0, 0), BuildingBlock: UKIBIB_clean_linker_0, # of connection points: 2
#     Edge 20, Type (0, 0), BuildingBlock: UKIBIB_clean_linker_0, # of connection points: 2
#     Edge 21, Type (0, 0), BuildingBlock: UKIBIB_clean_linker_0, # of connection points: 2
#     Edge 22, Type (0, 0), BuildingBlock: UKIBIB_clean_linker_0, # of connection points: 2
#     Edge 23, Type (0, 0), BuildingBlock: UKIBIB_clean_linker_0, # of connection points: 2
# Relax obj value: 0.135
# Max RMSD: 0.141
# Mean RMSD: 0.141
data_MOF--net-unm--node1-TATPOV_clean_sbu_0--edge1-UKIBIB_clean_linker_0
_symmetry_space_group_name_H-M    P1
_symmetry_Int_Tables_number       1
_symmetry_cell_setting            triclinic
loop_
_symmetry_equiv_pos_as_xyz
'x, y, z'
_cell_length_a     35.972015
_cell_length_b     36.01749
_cell_length_c     61.073344
_cell_angle_alpha  89.726079
_cell_angle_beta   89.803813
_cell_angle_gamma 89.642278
loop_
_atom_site_label
_atom_site_type_symbol
_atom_site_fract_x
_atom_site_fract_y
_atom_site_fract_z
_atom_type_partial_charge
Zn0 Zn 0.01713 0.23974 0.11077 0.0
Zn1 Zn 0.09319 0.22098 0.13887 0.0
O2 O 0.04962 0.19991 0.15793 0.0
O3 O 0.01545 0.2444 0.1436 0.0
O4 O 0.1456 0.21553 0.15253 0.0
O5 O 0.05269 0.22286 0.08839 0.0
O6 O 0.10041 0.20253 0.10811 0.0
C7 C 0.01927 0.21857 0.15733 0.0
C8 C 0.06882 0.29777 0.12387 0.0
O9 O 0.08563 0.27576 0.13687 0.0
O10 O 0.04441 0.28712 0.11035 0.0
C11 C 0.15222 0.23413 0.16973 0.0
O12 O 0.12463 0.2527 0.17868 0.0
C13 C 0.08469 0.20867 0.08984 0.0
Zn14 Zn 0.23503 0.51146 0.60889 0.0
Zn15 Zn 0.24107 0.59504 0.64009 0.0
O16 O 0.25964 0.5502 0.65959 0.0
O17 O 0.21992 0.51814 0.64075 0.0
O18 O 0.25175 0.64612 0.65309 0.0
O19 O 0.23435 0.55371 0.58765 0.0
O20 O 0.25971 0.59782 0.60842 0.0
C21 C 0.24363 0.51928 0.65592 0.0
C22 C 0.17119 0.56837 0.62772 0.0
O23 O 0.18491 0.59454 0.63874 0.0
O24 O 0.19237 0.54384 0.61962 0.0
C25 C 0.23257 0.65264 0.67016 0.0
O26 O 0.21325 0.62521 0.67857 0.0
C27 C 0.24955 0.58511 0.5899 0.0
Zn28 Zn 0.9453 0.71116 0.11231 0.0
Zn29 Zn 0.87079 0.74087 0.13992 0.0
O30 O 0.9167 0.76105 0.15694 0.0
O31 O 0.95238 0.71498 0.14497 0.0
O32 O 0.82067 0.75126 0.15466 0.0
O33 O 0.91366 0.73952 0.09032 0.0
O34 O 0.86396 0.75919 0.10857 0.0
C35 C 0.94697 0.74207 0.15766 0.0
C36 C 0.88786 0.66786 0.12344 0.0
O37 O 0.8762 0.68517 0.14015 0.0
O38 O 0.89661 0.68622 0.1066 0.0
C39 C 0.81258 0.73061 0.17089 0.0
O40 O 0.83827 0.70823 0.17871 0.0
C41 C 0.88225 0.75575 0.09079 0.0
Zn42 Zn 0.74266 0.44617 0.60867 0.0
Zn43 Zn 0.72326 0.37273 0.63853 0.0
O44 O 0.70607 0.41493 0.65906 0.0
O45 O 0.7273 0.4617 0.63882 0.0
O46 O 0.71732 0.32086 0.65251 0.0
O47 O 0.72175 0.41247 0.58694 0.0
O48 O 0.70388 0.36514 0.60785 0.0
C49 C 0.71467 0.44912 0.65668 0.0
C50 C 0.80029 0.39743 0.62487 0.0
O51 O 0.77786 0.37886 0.63662 0.0
O52 O 0.79041 0.42341 0.61214 0.0
C53 C 0.73527 0.31249 0.66977 0.0
O54 O 0.75402 0.33849 0.67976 0.0
C55 C 0.70833 0.38042 0.58922 0.0
Zn56 Zn 0.52096 0.22723 0.34427 0.0
Zn57 Zn 0.59246 0.24336 0.3181 0.0
O58 O 0.54881 0.26356 0.29871 0.0
O59 O 0.51276 0.2198 0.31229 0.0
O60 O 0.64522 0.24785 0.30458 0.0
O61 O 0.56256 0.22425 0.36638 0.0
O62 O 0.59758 0.26466 0.34872 0.0
C63 C 0.51889 0.24443 0.29805 0.0
C64 C 0.57101 0.16768 0.33413 0.0
O65 O 0.58461 0.18861 0.31944 0.0
O66 O 0.5526 0.18096 0.35017 0.0
C67 C 0.65219 0.2298 0.28716 0.0
O68 O 0.62482 0.21205 0.27776 0.0
C69 C 0.58754 0.24881 0.36642 0.0
Zn70 Zn 0.25477 0.01681 0.84633 0.0
Zn71 Zn 0.22402 0.09323 0.81758 0.0
O72 O 0.20685 0.05043 0.79736 0.0
O73 O 0.2337 0.00489 0.81649 0.0
O74 O 0.218 0.14515 0.8043 0.0
O75 O 0.23416 0.05534 0.86727 0.0
O76 O 0.20281 0.09805 0.84844 0.0
C77 C 0.21681 0.01637 0.79959 0.0
C78 C 0.29852 0.07632 0.83402 0.0
O79 O 0.27857 0.08655 0.81811 0.0
O80 O 0.28325 0.06443 0.85128 0.0
C81 C 0.23561 0.1526 0.78676 0.0
O82 O 0.25323 0.12574 0.77656 0.0
C83 C 0.21308 0.0837 0.86656 0.0
Zn84 Zn 0.44552 0.7548 0.34783 0.0
Zn85 Zn 0.37043 0.72555 0.31746 0.0
O86 O 0.41462 0.70771 0.29818 0.0
O87 O 0.45939 0.7338 0.31797 0.0
O88 O 0.31864 0.71761 0.30467 0.0
O89 O 0.40812 0.73214 0.36911 0.0
O90 O 0.36617 0.70416 0.34822 0.0
C91 C 0.44868 0.71694 0.30095 0.0
C92 C 0.38785 0.79794 0.33325 0.0
O93 O 0.37575 0.78074 0.31682 0.0
O94 O 0.39529 0.77968 0.35033 0.0
C95 C 0.31222 0.73406 0.28664 0.0
O96 O 0.33981 0.7511 0.27681 0.0
C97 C 0.38014 0.71123 0.36684 0.0
Zn98 Zn 0.71629 0.94609 0.84383 0.0
Zn99 Zn 0.74389 0.87066 0.81697 0.0
O100 O 0.7659 0.91575 0.79875 0.0
O101 O 0.71627 0.94371 0.81097 0.0
O102 O 0.75165 0.81941 0.80259 0.0
O103 O 0.73958 0.91268 0.86655 0.0
O104 O 0.76158 0.86409 0.84833 0.0
C105 C 0.74496 0.94458 0.79923 0.0
C106 C 0.66825 0.88895 0.8343 0.0
O107 O 0.68794 0.87739 0.81836 0.0
O108 O 0.68377 0.902 0.85118 0.0
C109 C 0.73117 0.81208 0.78624 0.0
O110 O 0.7102 0.83879 0.77822 0.0
C111 C 0.75594 0.88143 0.86619 0.0
C112 C 0.1223 0.16682 0.06675 0.0
C113 C 0.10443 0.20098 0.06959 0.0
C114 C 0.13613 0.15725 0.04619 0.0
C115 C 0.18908 0.1373 0.88877 0.0
C116 C 0.20222 0.10052 0.88753 0.0
C117 C 0.17901 0.15231 0.90906 0.0
H118 H 0.09011 0.25392 0.05452 0.0
H119 H 0.11536 0.23729 0.01848 0.0
H120 H 0.21689 0.05137 0.90654 0.0
H121 H 0.19887 0.07758 0.94162 0.0
C122 C 0.10315 0.22694 0.05234 0.0
C123 C 0.11751 0.21759 0.0319 0.0
C124 C 0.20635 0.07961 0.90689 0.0
C125 C 0.19615 0.09449 0.92698 0.0
C126 C 0.13283 0.18225 0.02865 0.0
C127 C 0.14316 0.17103 0.00704 0.0
C128 C 0.1515 0.16267 -0.01133 0.0
C129 C 0.18205 0.13061 0.92809 0.0
C130 C 0.17024 0.14455 0.94891 0.0
C131 C 0.16121 0.15344 0.9671 0.0
H132 H 0.12364 0.14682 0.08004 0.0
H133 H 0.14821 0.12994 0.04383 0.0
H134 H 0.1866 0.15433 0.87417 0.0
H135 H 0.16851 0.18054 0.90985 0.0
C136 C 0.28564 0.58155 0.55611 0.0
C137 C 0.26288 0.60259 0.56997 0.0
C138 C 0.29635 0.59563 0.53589 0.0
C139 C 0.339 0.72464 0.39831 0.0
C140 C 0.36093 0.69919 0.38655 0.0
C141 C 0.32514 0.71497 0.41893 0.0
H142 H 0.23316 0.65458 0.57426 0.0
H143 H 0.25211 0.67964 0.53819 0.0
H144 H 0.38531 0.64428 0.38622 0.0
H145 H 0.36112 0.62724 0.42257 0.0
C146 C 0.2512 0.6383 0.56372 0.0
C147 C 0.26178 0.65238 0.54325 0.0
C148 C 0.36804 0.66385 0.39512 0.0
C149 C 0.35445 0.65431 0.41579 0.0
C150 C 0.28407 0.63079 0.52926 0.0
C151 C 0.29357 0.64372 0.50775 0.0
C152 C 0.30253 0.65284 0.48953 0.0
C153 C 0.33353 0.68002 0.42786 0.0
C154 C 0.32214 0.67096 0.44976 0.0
C155 C 0.31293 0.66267 0.46807 0.0
H156 H 0.29471 0.55389 0.56085 0.0
H157 H 0.31361 0.57874 0.52526 0.0
H158 H 0.33361 0.75223 0.39183 0.0
H159 H 0.30891 0.73504 0.42812 0.0
C160 C 0.83539 0.79043 0.06824 0.0
C161 C 0.86422 0.76414 0.06974 0.0
C162 C 0.82029 0.79953 0.04782 0.0
C163 C 0.78867 0.83295 0.88854 0.0
C164 C 0.76414 0.86333 0.88729 0.0
C165 C 0.79806 0.81783 0.90893 0.0
H166 H 0.89622 0.72289 0.05165 0.0
H167 H 0.8698 0.73906 0.01609 0.0
H168 H 0.72634 0.89853 0.90598 0.0
H169 H 0.74312 0.87211 0.94146 0.0
C170 C 0.87529 0.74463 0.05084 0.0
C171 C 0.86001 0.7535 0.03056 0.0
C172 C 0.74664 0.87619 0.9065 0.0
C173 C 0.7559 0.86097 0.92677 0.0
C174 C 0.83349 0.78186 0.02889 0.0
C175 C 0.82176 0.79402 0.00759 0.0
C176 C 0.8133 0.80264 -0.01078 0.0
C177 C 0.78253 0.83266 0.92808 0.0
C178 C 0.79503 0.8205 0.94922 0.0
C179 C 0.80392 0.81196 0.96753 0.0
H180 H 0.82556 0.80489 0.08268 0.0
H181 H 0.79924 0.82109 0.04673 0.0
H182 H 0.80157 0.8218 0.87392 0.0
H183 H 0.81824 0.79542 0.90977 0.0
C184 C 0.63994 0.27168 0.38927 0.0
C185 C 0.60283 0.26036 0.3875 0.0
C186 C 0.65393 0.28264 0.40955 0.0
C187 C 0.66575 0.3445 0.5661 0.0
C188 C 0.70083 0.35969 0.56942 0.0
C189 C 0.65646 0.3309 0.54553 0.0
H190 H 0.55107 0.25174 0.40513 0.0
H191 H 0.57551 0.2716 0.44046 0.0
H192 H 0.75552 0.36927 0.55534 0.0
H193 H 0.73935 0.34427 0.51929 0.0
C194 C 0.57989 0.26015 0.40616 0.0
C195 C 0.59371 0.27155 0.42628 0.0
C196 C 0.72789 0.35824 0.55276 0.0
C197 C 0.71877 0.34408 0.5323 0.0
C198 C 0.6307 0.28278 0.42803 0.0
C199 C 0.6444 0.29425 0.44893 0.0
C200 C 0.65364 0.30342 0.46699 0.0
C201 C 0.68261 0.33163 0.52848 0.0
C202 C 0.67181 0.32155 0.50678 0.0
C203 C 0.66337 0.31323 0.48845 0.0
H204 H 0.6581 0.27165 0.37508 0.0
H205 H 0.68269 0.29109 0.41079 0.0
H206 H 0.64492 0.34533 0.57895 0.0
H207 H 0.62849 0.32108 0.54273 0.0
C208 C 0.19156 0.23962 0.20317 0.0
C209 C 0.18952 0.23426 0.18042 0.0
C210 C 0.22587 0.24089 0.21391 0.0
C211 C 0.48837 0.24806 0.26115 0.0
C212 C 0.48677 0.25293 0.28388 0.0
C213 C 0.45533 0.24588 0.24893 0.0
H214 H 0.22254 0.22709 0.15092 0.0
H215 H 0.28306 0.22993 0.16988 0.0
H216 H 0.44962 0.25886 0.31173 0.0
H217 H 0.39234 0.25571 0.29038 0.0
C218 C 0.22304 0.23065 0.16852 0.0
C219 C 0.25763 0.23244 0.17934 0.0
C220 C 0.45166 0.25624 0.29408 0.0
C221 C 0.41885 0.25392 0.28194 0.0
C222 C 0.25923 0.2374 0.20218 0.0
C223 C 0.29464 0.23899 0.21382 0.0
C224 C 0.32333 0.24052 0.22433 0.0
C225 C 0.42036 0.2484 0.25926 0.0
C226 C 0.38608 0.24529 0.24671 0.0
C227 C 0.35707 0.24279 0.23662 0.0
H228 H 0.1664 0.24253 0.21281 0.0
H229 H 0.22626 0.24472 0.23149 0.0
H230 H 0.51488 0.24388 0.25304 0.0
H231 H 0.45707 0.24133 0.23144 0.0
C232 C 0.25306 0.71983 0.67351 0.0
C233 C 0.23048 0.69011 0.68039 0.0
C234 C 0.25146 0.75419 0.68444 0.0
C235 C 0.18846 0.95738 0.78814 0.0
C236 C 0.21081 -0.01207 0.78269 0.0
C237 C 0.19138 0.92399 0.77655 0.0
H238 H 0.18686 0.67432 0.70318 0.0
H239 H 0.18433 0.7338 0.72201 0.0
H240 H 0.25536 0.0067 0.76151 0.0
H241 H 0.25947 0.94853 0.74051 0.0
C242 C 0.20524 0.6962 0.6977 0.0
C243 C 0.20364 0.73035 0.7085 0.0
C244 C 0.23624 -0.01561 0.76525 0.0
C245 C 0.23918 0.95087 0.7536 0.0
C246 C 0.2271 0.75945 0.70226 0.0
C247 C 0.22636 0.79418 0.71445 0.0
C248 C 0.22492 0.82272 0.72503 0.0
C249 C 0.21692 0.92031 0.75927 0.0
C250 C 0.21996 0.88541 0.74736 0.0
C251 C 0.22263 0.85635 0.73735 0.0
H252 H 0.27239 0.71636 0.66002 0.0
H253 H 0.26959 0.77643 0.67918 0.0
H254 H 0.1701 0.95871 0.80223 0.0
H255 H 0.17424 0.90074 0.78143 0.0
C256 C 0.49668 0.68186 0.27943 0.0
C257 C 0.47656 0.71471 0.28325 0.0
C258 C 0.53023 0.68284 0.26753 0.0
C259 C 0.75281 0.76175 0.18269 0.0
C260 C 0.77449 0.72943 0.18022 0.0
C261 C 0.71857 0.76033 0.19385 0.0
H262 H 0.47591 0.77427 0.27812 0.0
H263 H 0.53389 0.77577 0.25697 0.0
H264 H 0.77608 0.66997 0.18575 0.0
H265 H 0.71595 0.66746 0.20467 0.0
C266 C 0.49021 0.74834 0.27468 0.0
C267 C 0.52363 0.74932 0.2629 0.0
C268 C 0.76029 0.69544 0.18786 0.0
C269 C 0.72592 0.69395 0.19865 0.0
C270 C 0.54414 0.71667 0.25943 0.0
C271 C 0.57934 0.71815 0.24764 0.0
C272 C 0.6086 0.72032 0.23774 0.0
C273 C 0.70521 0.72648 0.20221 0.0
C274 C 0.6709 0.72504 0.21488 0.0
C275 C 0.64236 0.72302 0.22551 0.0
H276 H 0.48757 0.65591 0.28663 0.0
H277 H 0.5458 0.65732 0.26515 0.0
H278 H 0.763 0.78825 0.17684 0.0
H279 H 0.70289 0.78575 0.1963 0.0
C280 C 0.75858 0.24658 0.67225 0.0
C281 C 0.73405 0.27464 0.6794 0.0
C282 C 0.76055 0.21233 0.68341 0.0
C283 C 0.72581 0.00935 0.7906 0.0
C284 C 0.74924 0.97878 0.7856 0.0
C285 C 0.72561 0.04146 0.77782 0.0
H286 H 0.69241 0.28896 0.70351 0.0
H287 H 0.6953 0.22887 0.7228 0.0
H288 H 0.79172 0.95913 0.76325 0.0
H289 H 0.79186 0.0166 0.74076 0.0
C290 C 0.71117 0.26759 0.69758 0.0
C291 C 0.71299 0.23333 0.70865 0.0
C292 C 0.77342 0.98194 0.76759 0.0
C293 C 0.77332 0.01469 0.75471 0.0
C294 C 0.73803 0.20555 0.70184 0.0
C295 C 0.74099 0.17058 0.71398 0.0
C296 C 0.74279 0.14175 0.72445 0.0
C297 C 0.74917 0.04453 0.75972 0.0
C298 C 0.74804 0.07849 0.7466 0.0
C299 C 0.74559 0.10757 0.73644 0.0
H300 H 0.77696 0.2515 0.65846 0.0
H301 H 0.78012 0.19138 0.67788 0.0
H302 H 0.7069 0.00857 0.80445 0.0
H303 H 0.70682 0.06393 0.78212 0.0
C304 C 0.69165 0.23123 0.2535 0.0
C305 C 0.68952 0.2301 0.27647 0.0
C306 C 0.72602 0.22993 0.24265 0.0
C307 C -0.01169 0.20983 0.1942 0.0
C308 C -0.01369 0.21183 0.1713 0.0
C309 C 0.95554 0.21185 0.20689 0.0
H310 H 0.72218 0.22574 0.30618 0.0
H311 H 0.78274 0.22271 0.28699 0.0
H312 H 0.94869 0.21773 0.14373 0.0
H313 H 0.8921 0.22055 0.1658 0.0
C314 C 0.72288 0.2273 0.28846 0.0
C315 C 0.75746 0.22538 0.2775 0.0
C316 C 0.95107 0.21531 0.16139 0.0
C317 C 0.91862 0.2173 0.17397 0.0
C318 C 0.75923 0.22677 0.25447 0.0
C319 C 0.79469 0.22477 0.24278 0.0
C320 C 0.82365 0.22318 0.23242 0.0
C321 C 0.92051 0.21587 0.19684 0.0
C322 C 0.88645 0.2186 0.20978 0.0
C323 C 0.85759 0.22095 0.22017 0.0
H324 H 0.66653 0.23334 0.24384 0.0
H325 H 0.72656 0.23112 0.22493 0.0
H326 H 0.01506 0.20849 0.20226 0.0
H327 H 0.9576 0.21096 0.22457 0.0
C328 C 0.2244 0.45473 0.66526 0.0
C329 C 0.24687 0.48561 0.67022 0.0
C330 C 0.22495 0.42266 0.67815 0.0
C331 C 0.25827 0.21841 0.78427 0.0
C332 C 0.23457 0.19019 0.7769 0.0
C333 C 0.25999 0.25262 0.77305 0.0
H334 H 0.28852 0.5059 0.69266 0.0
H335 H 0.28966 0.44881 0.71539 0.0
H336 H 0.19405 0.17545 0.7525 0.0
H337 H 0.19645 0.2354 0.73317 0.0
C338 C 0.27068 0.48294 0.68841 0.0
C339 C 0.27131 0.45031 0.70139 0.0
C340 C 0.21226 0.19693 0.75852 0.0
C341 C 0.21376 0.23111 0.74745 0.0
C342 C 0.24821 0.42004 0.69638 0.0
C343 C 0.24767 0.38624 0.7097 0.0
C344 C 0.24574 0.35727 0.72002 0.0
C345 C 0.23794 0.25911 0.75441 0.0
C346 C 0.24058 0.29395 0.74215 0.0
C347 C 0.24289 0.32306 0.73199 0.0
H348 H 0.20577 0.45523 0.65136 0.0
H349 H 0.20692 0.39984 0.67386 0.0
H350 H 0.27613 0.21366 0.79827 0.0
H351 H 0.27892 0.27375 0.77873 0.0
C352 C 0.27299 0.73059 0.25327 0.0
C353 C 0.27506 0.7335 0.27614 0.0
C354 C 0.23871 0.73212 0.24252 0.0
C355 C 0.97733 0.75554 0.19403 0.0
C356 C 0.97953 0.75137 0.17124 0.0
C357 C 0.00999 0.75424 0.20674 0.0
H358 H 0.24265 0.74111 0.30581 0.0
H359 H 0.1822 0.74447 0.28677 0.0
H360 H 0.01744 0.74348 0.14387 0.0
H361 H 0.07368 0.74142 0.16595 0.0
C362 C 0.24187 0.73816 0.28817 0.0
C363 C 0.20739 0.74029 0.27729 0.0
C364 C 0.01488 0.7473 0.16142 0.0
C365 C 0.04714 0.74574 0.17403 0.0
C366 C 0.20563 0.73721 0.25434 0.0
C367 C 0.17029 0.73941 0.24272 0.0
C368 C 0.14145 0.74109 0.23238 0.0
C369 C 0.04503 0.74874 0.19682 0.0
C370 C 0.07888 0.74591 0.2098 0.0
C371 C 0.10764 0.74344 0.22016 0.0
H372 H 0.29809 0.72703 0.24363 0.0
H373 H 0.23814 0.72961 0.22486 0.0
H374 H 0.95052 0.75767 0.20206 0.0
H375 H 0.00779 0.75654 0.22437 0.0
C376 C 0.74324 0.48378 0.68742 0.0
C377 C 0.71182 0.47638 0.67443 0.0
C378 C 0.74586 0.51737 0.69896 0.0
C379 C 0.69894 0.76473 0.76329 0.0
C380 C 0.72953 0.77424 0.77642 0.0
C381 C 0.69767 0.73053 0.75248 0.0
H382 H 0.66021 0.49895 0.66223 0.0
H383 H 0.66415 0.55705 0.68282 0.0
H384 H 0.78194 0.75403 0.7894 0.0
H385 H 0.77985 0.69407 0.77012 0.0
C386 C 0.68351 0.50313 0.67313 0.0
C387 C 0.68618 0.53664 0.68453 0.0
C388 C 0.75817 0.74781 0.77924 0.0
C389 C 0.75701 0.71355 0.7682 0.0
C390 C 0.71737 0.54417 0.69746 0.0
C391 C 0.71986 0.57917 0.70924 0.0
C392 C 0.72228 0.60828 0.71916 0.0
C393 C 0.72698 0.70493 0.75446 0.0
C394 C 0.72624 0.6704 0.74204 0.0
C395 C 0.72465 0.6419 0.73144 0.0
H396 H 0.76658 0.46458 0.68765 0.0
H397 H 0.77047 0.52279 0.7086 0.0
H398 H 0.676 0.784 0.76111 0.0
H399 H 0.67399 0.7244 0.74222 0.0
C400 C 0.89416 0.60755 0.14305 0.0
C401 C 0.90654 0.63225 0.12683 0.0
C402 C 0.9113 0.57301 0.14532 0.0
C403 C 0.07492 0.36368 0.11604 0.0
C404 C 0.06426 0.33546 0.13044 0.0
C405 C 0.05655 0.39766 0.11684 0.0
H406 H 0.94857 0.64205 0.10167 0.0
H407 H 0.97822 0.58165 0.10584 0.0
H408 H 0.02749 0.31929 0.15703 0.0
H409 H -0.00485 0.37898 0.15827 0.0
C410 C 0.93767 0.62305 0.11387 0.0
C411 C 0.95484 0.5888 0.11629 0.0
C412 C 0.03689 0.34163 0.14643 0.0
C413 C 0.01795 0.37511 0.14683 0.0
C414 C 0.94101 0.56362 0.1316 0.0
C415 C 0.95645 0.52754 0.13234 0.0
C416 C 0.97095 0.49784 0.13191 0.0
C417 C 0.02741 0.40267 0.13177 0.0
C418 C 0.00678 0.43602 0.13152 0.0
C419 C -0.01056 0.46414 0.13128 0.0
H420 H 0.8707 0.61449 0.15346 0.0
H421 H 0.90088 0.5534 0.15735 0.0
H422 H 0.09512 0.35844 0.1032 0.0
H423 H 0.06377 0.41923 0.10517 0.0
C424 C 0.86393 0.39482 0.6132 0.0
C425 C 0.83857 0.39833 0.63046 0.0
C426 C 0.89682 0.41456 0.61375 0.0
C427 C 0.11012 0.56542 0.6463 0.0
C428 C 0.13174 0.56045 0.62741 0.0
C429 C 0.07569 0.54815 0.64792 0.0
H430 H 0.8267 0.42375 0.66187 0.0
H431 H 0.88559 0.45715 0.66325 0.0
H432 H 0.13477 0.53501 0.59525 0.0
H433 H 0.07414 0.50539 0.5981 0.0
C434 C 0.84711 0.41933 0.649 0.0
C435 C 0.87987 0.43927 0.64946 0.0
C436 C 0.1181 0.53955 0.60984 0.0
C437 C 0.08393 0.52232 0.61151 0.0
C438 C 0.90424 0.43719 0.6317 0.0
C439 C 0.93743 0.45768 0.63212 0.0
C440 C 0.96563 0.47462 0.63199 0.0
C441 C 0.06304 0.52638 0.63061 0.0
C442 C 0.02824 0.5086 0.6321 0.0
C443 C -0.00073 0.49294 0.63231 0.0
H444 H 0.85651 0.38005 0.59842 0.0
H445 H 0.91571 0.41322 0.5999 0.0
H446 H 0.12073 0.58056 0.6602 0.0
H447 H 0.05936 0.55112 0.66276 0.0
C448 C 0.53518 0.12471 0.3121 0.0
C449 C 0.56262 0.12999 0.32806 0.0
C450 C 0.51721 0.09086 0.31077 0.0
C451 C 0.43883 0.84124 0.34201 0.0
C452 C 0.40726 0.83283 0.3295 0.0
C453 C 0.45593 0.87538 0.33964 0.0
H454 H 0.59524 0.10472 0.35381 0.0
H455 H 0.5648 0.04398 0.35066 0.0
H456 H 0.37059 0.85172 0.30358 0.0
H457 H 0.40056 0.91256 0.29979 0.0
C458 C 0.5743 0.10057 0.34137 0.0
C459 C 0.55674 0.06641 0.33974 0.0
C460 C 0.39446 0.85806 0.31363 0.0
C461 C 0.41145 0.89251 0.31144 0.0
C462 C 0.5274 0.06219 0.32499 0.0
C463 C 0.50683 0.02884 0.32495 0.0
C464 C 0.48994 0.00053 0.32523 0.0
C465 C 0.44155 0.90125 0.32483 0.0
C466 C 0.45696 0.9373 0.32423 0.0
C467 C 0.47143 0.96691 0.32472 0.0
H468 H 0.52557 0.14753 0.30191 0.0
H469 H 0.49448 0.08756 0.29933 0.0
H470 H 0.44993 0.82186 0.35395 0.0
H471 H 0.47963 0.88198 0.34981 0.0
C472 C 0.33534 0.02125 0.8245 0.0
C473 C 0.33366 0.05964 0.82827 0.0
C474 C 0.36962 0.0038 0.82253 0.0
C475 C 0.62996 0.94444 0.82773 0.0
C476 C 0.6328 0.90553 0.8286 0.0
C477 C 0.59548 0.96127 0.82547 0.0
H478 H 0.36448 0.11071 0.83086 0.0
H479 H 0.42535 0.07978 0.82732 0.0
H480 H 0.60357 0.8535 0.82584 0.0
H481 H 0.5421 0.88346 0.82218 0.0
C482 C 0.36585 0.081 0.82825 0.0
C483 C 0.4002 0.06349 0.82628 0.0
C484 C 0.60145 0.88351 0.82549 0.0
C485 C 0.56674 0.90047 0.82342 0.0
C486 C 0.40189 0.02489 0.8242 0.0
C487 C 0.43667 0.00661 0.82521 0.0
C488 C 0.46565 -0.00934 0.82602 0.0
C489 C 0.56391 0.9392 0.82416 0.0
C490 C 0.52857 0.95643 0.82512 0.0
C491 C 0.49938 0.972 0.82597 0.0
H492 H 0.31034 0.00466 0.82404 0.0
H493 H 0.37097 0.97389 0.82065 0.0
H494 H 0.65408 0.96188 0.82978 0.0
H495 H 0.59333 -0.00868 0.82578 0.0
loop_
_geom_bond_atom_site_label_1
_geom_bond_atom_site_label_2
_geom_bond_distance
_geom_bond_site_symmetry_2
_ccdc_geom_bond_type
Zn0 O3 2.031 . S
Zn0 O5 2.049 . S
Zn0 O10 2.067 . S
Zn1 O2 1.962 . S
Zn1 O4 1.986 . S
Zn1 O6 1.996 . S
Zn1 O9 1.943 . S
O2 Zn1 1.962 . S
O2 C7 1.254 . S
O3 Zn0 2.031 . S
O3 C7 1.269 . S
O4 Zn1 1.986 . S
O4 C11 1.262 . S
O5 Zn0 2.049 . S
O5 C13 1.260 . S
O6 Zn1 1.996 . S
O6 C13 1.257 . S
C7 O2 1.254 . S
C7 O3 1.269 . S
C8 O9 1.249 . S
C8 O10 1.270 . S
O9 Zn1 1.943 . S
O9 C8 1.249 . S
O10 Zn0 2.067 . S
O10 C8 1.270 . S
C11 O4 1.262 . S
C11 O12 1.232 . S
O12 C11 1.232 . S
C13 O5 1.260 . S
C13 O6 1.257 . S
Zn14 O17 2.031 . S
Zn14 O19 2.049 . S
Zn14 O24 2.067 . S
Zn15 O16 1.962 . S
Zn15 O18 1.986 . S
Zn15 O20 1.996 . S
Zn15 O23 1.943 . S
O16 Zn15 1.962 . S
O16 C21 1.254 . S
O17 Zn14 2.031 . S
O17 C21 1.269 . S
O18 Zn15 1.986 . S
O18 C25 1.262 . S
O19 Zn14 2.049 . S
O19 C27 1.260 . S
O20 Zn15 1.996 . S
O20 C27 1.257 . S
C21 O16 1.254 . S
C21 O17 1.269 . S
C22 O23 1.249 . S
C22 O24 1.270 . S
O23 Zn15 1.943 . S
O23 C22 1.249 . S
O24 Zn14 2.067 . S
O24 C22 1.270 . S
C25 O18 1.262 . S
C25 O26 1.232 . S
O26 C25 1.232 . S
C27 O19 1.260 . S
C27 O20 1.257 . S
Zn28 O31 2.031 . S
Zn28 O33 2.049 . S
Zn28 O38 2.067 . S
Zn29 O30 1.962 . S
Zn29 O32 1.986 . S
Zn29 O34 1.996 . S
Zn29 O37 1.943 . S
O30 Zn29 1.962 . S
O30 C35 1.254 . S
O31 Zn28 2.031 . S
O31 C35 1.269 . S
O32 Zn29 1.986 . S
O32 C39 1.262 . S
O33 Zn28 2.049 . S
O33 C41 1.260 . S
O34 Zn29 1.996 . S
O34 C41 1.257 . S
C35 O30 1.254 . S
C35 O31 1.269 . S
C36 O37 1.249 . S
C36 O38 1.270 . S
O37 Zn29 1.943 . S
O37 C36 1.249 . S
O38 Zn28 2.067 . S
O38 C36 1.270 . S
C39 O32 1.262 . S
C39 O40 1.232 . S
O40 C39 1.232 . S
C41 O33 1.260 . S
C41 O34 1.257 . S
Zn42 O45 2.031 . S
Zn42 O47 2.049 . S
Zn42 O52 2.067 . S
Zn43 O44 1.962 . S
Zn43 O46 1.986 . S
Zn43 O48 1.996 . S
Zn43 O51 1.943 . S
O44 Zn43 1.962 . S
O44 C49 1.254 . S
O45 Zn42 2.031 . S
O45 C49 1.269 . S
O46 Zn43 1.986 . S
O46 C53 1.262 . S
O47 Zn42 2.049 . S
O47 C55 1.260 . S
O48 Zn43 1.996 . S
O48 C55 1.257 . S
C49 O44 1.254 . S
C49 O45 1.269 . S
C50 O51 1.249 . S
C50 O52 1.270 . S
O51 Zn43 1.943 . S
O51 C50 1.249 . S
O52 Zn42 2.067 . S
O52 C50 1.270 . S
C53 O46 1.262 . S
C53 O54 1.232 . S
O54 C53 1.232 . S
C55 O47 1.260 . S
C55 O48 1.257 . S
Zn56 O59 2.031 . S
Zn56 O61 2.049 . S
Zn56 O66 2.067 . S
Zn57 O58 1.962 . S
Zn57 O60 1.986 . S
Zn57 O62 1.996 . S
Zn57 O65 1.943 . S
O58 Zn57 1.962 . S
O58 C63 1.254 . S
O59 Zn56 2.031 . S
O59 C63 1.269 . S
O60 Zn57 1.986 . S
O60 C67 1.262 . S
O61 Zn56 2.049 . S
O61 C69 1.260 . S
O62 Zn57 1.996 . S
O62 C69 1.257 . S
C63 O58 1.254 . S
C63 O59 1.269 . S
C64 O65 1.249 . S
C64 O66 1.270 . S
O65 Zn57 1.943 . S
O65 C64 1.249 . S
O66 Zn56 2.067 . S
O66 C64 1.270 . S
C67 O60 1.262 . S
C67 O68 1.232 . S
O68 C67 1.232 . S
C69 O61 1.260 . S
C69 O62 1.257 . S
Zn70 O73 2.031 . S
Zn70 O75 2.049 . S
Zn70 O80 2.067 . S
Zn71 O72 1.962 . S
Zn71 O74 1.986 . S
Zn71 O76 1.996 . S
Zn71 O79 1.943 . S
O72 Zn71 1.962 . S
O72 C77 1.254 . S
O73 Zn70 2.031 . S
O73 C77 1.269 . S
O74 Zn71 1.986 . S
O74 C81 1.262 . S
O75 Zn70 2.049 . S
O75 C83 1.260 . S
O76 Zn71 1.996 . S
O76 C83 1.257 . S
C77 O72 1.254 . S
C77 O73 1.269 . S
C78 O79 1.249 . S
C78 O80 1.270 . S
O79 Zn71 1.943 . S
O79 C78 1.249 . S
O80 Zn70 2.067 . S
O80 C78 1.270 . S
C81 O74 1.262 . S
C81 O82 1.232 . S
O82 C81 1.232 . S
C83 O75 1.260 . S
C83 O76 1.257 . S
Zn84 O87 2.031 . S
Zn84 O89 2.049 . S
Zn84 O94 2.067 . S
Zn85 O86 1.962 . S
Zn85 O88 1.986 . S
Zn85 O90 1.996 . S
Zn85 O93 1.943 . S
O86 Zn85 1.962 . S
O86 C91 1.254 . S
O87 Zn84 2.031 . S
O87 C91 1.269 . S
O88 Zn85 1.986 . S
O88 C95 1.262 . S
O89 Zn84 2.049 . S
O89 C97 1.260 . S
O90 Zn85 1.996 . S
O90 C97 1.257 . S
C91 O86 1.254 . S
C91 O87 1.269 . S
C92 O93 1.249 . S
C92 O94 1.270 . S
O93 Zn85 1.943 . S
O93 C92 1.249 . S
O94 Zn84 2.067 . S
O94 C92 1.270 . S
C95 O88 1.262 . S
C95 O96 1.232 . S
O96 C95 1.232 . S
C97 O89 1.260 . S
C97 O90 1.257 . S
Zn98 O101 2.031 . S
Zn98 O103 2.049 . S
Zn98 O108 2.067 . S
Zn99 O100 1.962 . S
Zn99 O102 1.986 . S
Zn99 O104 1.996 . S
Zn99 O107 1.943 . S
O100 Zn99 1.962 . S
O100 C105 1.254 . S
O101 Zn98 2.031 . S
O101 C105 1.269 . S
O102 Zn99 1.986 . S
O102 C109 1.262 . S
O103 Zn98 2.049 . S
O103 C111 1.260 . S
O104 Zn99 1.996 . S
O104 C111 1.257 . S
C105 O100 1.254 . S
C105 O101 1.269 . S
C106 O107 1.249 . S
C106 O108 1.270 . S
O107 Zn99 1.943 . S
O107 C106 1.249 . S
O108 Zn98 2.067 . S
O108 C106 1.270 . S
C109 O102 1.262 . S
C109 O110 1.232 . S
O110 C109 1.232 . S
C111 O103 1.260 . S
C111 O104 1.257 . S
C112 C113 1.332 . S
C112 C114 1.345 . S
C112 H132 0.932 . S
C113 C112 1.332 . S
C113 C122 1.332 . S
C114 C112 1.345 . S
C114 C126 1.334 . S
C114 H133 0.928 . S
C115 C116 1.332 . S
C115 C117 1.345 . S
C115 H134 0.932 . S
C116 C115 1.332 . S
C116 C124 1.332 . S
C117 C115 1.345 . S
C117 C129 1.334 . S
C117 H135 0.928 . S
H118 C122 0.932 . S
H119 C123 0.928 . S
H120 C124 0.932 . S
H121 C125 0.928 . S
C122 C113 1.332 . S
C122 H118 0.932 . S
C122 C123 1.345 . S
C123 H119 0.928 . S
C123 C122 1.345 . S
C123 C126 1.334 . S
C124 C116 1.332 . S
C124 H120 0.932 . S
C124 C125 1.345 . S
C125 H121 0.928 . S
C125 C124 1.345 . S
C125 C129 1.334 . S
C126 C114 1.334 . S
C126 C123 1.334 . S
C126 C127 1.487 . S
C127 C126 1.487 . S
C127 C128 1.185 . S
C128 C127 1.185 . S
C128 C131 1.482 1_554 S
C129 C117 1.334 . S
C129 C125 1.334 . S
C129 C130 1.487 . S
C130 C129 1.487 . S
C130 C131 1.185 . S
C131 C128 1.482 1_556 S
C131 C130 1.185 . S
H132 C112 0.932 . S
H133 C114 0.928 . S
H134 C115 0.932 . S
H135 C117 0.928 . S
C136 C137 1.332 . S
C136 C138 1.345 . S
C136 H156 0.932 . S
C137 C136 1.332 . S
C137 C146 1.332 . S
C138 C136 1.345 . S
C138 C150 1.334 . S
C138 H157 0.928 . S
C139 C140 1.332 . S
C139 C141 1.345 . S
C139 H158 0.932 . S
C140 C139 1.332 . S
C140 C148 1.332 . S
C141 C139 1.345 . S
C141 C153 1.334 . S
C141 H159 0.928 . S
H142 C146 0.932 . S
H143 C147 0.928 . S
H144 C148 0.932 . S
H145 C149 0.928 . S
C146 C137 1.332 . S
C146 H142 0.932 . S
C146 C147 1.345 . S
C147 H143 0.928 . S
C147 C146 1.345 . S
C147 C150 1.334 . S
C148 C140 1.332 . S
C148 H144 0.932 . S
C148 C149 1.345 . S
C149 H145 0.928 . S
C149 C148 1.345 . S
C149 C153 1.334 . S
C150 C138 1.334 . S
C150 C147 1.334 . S
C150 C151 1.487 . S
C151 C150 1.487 . S
C151 C152 1.185 . S
C152 C151 1.185 . S
C152 C155 1.482 . S
C153 C141 1.334 . S
C153 C149 1.334 . S
C153 C154 1.487 . S
C154 C153 1.487 . S
C154 C155 1.185 . S
C155 C152 1.482 . S
C155 C154 1.185 . S
H156 C136 0.932 . S
H157 C138 0.928 . S
H158 C139 0.932 . S
H159 C141 0.928 . S
C160 C161 1.332 . S
C160 C162 1.345 . S
C160 H180 0.932 . S
C161 C160 1.332 . S
C161 C170 1.332 . S
C162 C160 1.345 . S
C162 C174 1.334 . S
C162 H181 0.928 . S
C163 C164 1.332 . S
C163 C165 1.345 . S
C163 H182 0.932 . S
C164 C163 1.332 . S
C164 C172 1.332 . S
C165 C163 1.345 . S
C165 C177 1.334 . S
C165 H183 0.928 . S
H166 C170 0.932 . S
H167 C171 0.928 . S
H168 C172 0.932 . S
H169 C173 0.928 . S
C170 C161 1.332 . S
C170 H166 0.932 . S
C170 C171 1.345 . S
C171 H167 0.928 . S
C171 C170 1.345 . S
C171 C174 1.334 . S
C172 C164 1.332 . S
C172 H168 0.932 . S
C172 C173 1.345 . S
C173 H169 0.928 . S
C173 C172 1.345 . S
C173 C177 1.334 . S
C174 C162 1.334 . S
C174 C171 1.334 . S
C174 C175 1.487 . S
C175 C174 1.487 . S
C175 C176 1.185 . S
C176 C175 1.185 . S
C176 C179 1.482 1_554 S
C177 C165 1.334 . S
C177 C173 1.334 . S
C177 C178 1.487 . S
C178 C177 1.487 . S
C178 C179 1.185 . S
C179 C176 1.482 1_556 S
C179 C178 1.185 . S
H180 C160 0.932 . S
H181 C162 0.928 . S
H182 C163 0.932 . S
H183 C165 0.928 . S
C184 C185 1.332 . S
C184 C186 1.345 . S
C184 H204 0.932 . S
C185 C184 1.332 . S
C185 C194 1.332 . S
C186 C184 1.345 . S
C186 C198 1.334 . S
C186 H205 0.928 . S
C187 C188 1.332 . S
C187 C189 1.345 . S
C187 H206 0.932 . S
C188 C187 1.332 . S
C188 C196 1.332 . S
C189 C187 1.345 . S
C189 C201 1.334 . S
C189 H207 0.928 . S
H190 C194 0.932 . S
H191 C195 0.928 . S
H192 C196 0.932 . S
H193 C197 0.928 . S
C194 C185 1.332 . S
C194 H190 0.932 . S
C194 C195 1.345 . S
C195 H191 0.928 . S
C195 C194 1.345 . S
C195 C198 1.334 . S
C196 C188 1.332 . S
C196 H192 0.932 . S
C196 C197 1.345 . S
C197 H193 0.928 . S
C197 C196 1.345 . S
C197 C201 1.334 . S
C198 C186 1.334 . S
C198 C195 1.334 . S
C198 C199 1.487 . S
C199 C198 1.487 . S
C199 C200 1.185 . S
C200 C199 1.185 . S
C200 C203 1.482 . S
C201 C189 1.334 . S
C201 C197 1.334 . S
C201 C202 1.487 . S
C202 C201 1.487 . S
C202 C203 1.185 . S
C203 C200 1.482 . S
C203 C202 1.185 . S
H204 C184 0.932 . S
H205 C186 0.928 . S
H206 C187 0.932 . S
H207 C189 0.928 . S
C208 C209 1.332 . S
C208 C210 1.345 . S
C208 H228 0.932 . S
C209 C208 1.332 . S
C209 C218 1.332 . S
C210 C208 1.345 . S
C210 C222 1.334 . S
C210 H229 0.928 . S
C211 C212 1.332 . S
C211 C213 1.345 . S
C211 H230 0.932 . S
C212 C211 1.332 . S
C212 C220 1.332 . S
C213 C211 1.345 . S
C213 C225 1.334 . S
C213 H231 0.928 . S
H214 C218 0.932 . S
H215 C219 0.928 . S
H216 C220 0.932 . S
H217 C221 0.928 . S
C218 C209 1.332 . S
C218 H214 0.932 . S
C218 C219 1.345 . S
C219 H215 0.928 . S
C219 C218 1.345 . S
C219 C222 1.334 . S
C220 C212 1.332 . S
C220 H216 0.932 . S
C220 C221 1.345 . S
C221 H217 0.928 . S
C221 C220 1.345 . S
C221 C225 1.334 . S
C222 C210 1.334 . S
C222 C219 1.334 . S
C222 C223 1.487 . S
C223 C222 1.487 . S
C223 C224 1.185 . S
C224 C223 1.185 . S
C224 C227 1.482 . S
C225 C213 1.334 . S
C225 C221 1.334 . S
C225 C226 1.487 . S
C226 C225 1.487 . S
C226 C227 1.185 . S
C227 C224 1.482 . S
C227 C226 1.185 . S
H228 C208 0.932 . S
H229 C210 0.928 . S
H230 C211 0.932 . S
H231 C213 0.928 . S
C232 C233 1.332 . S
C232 C234 1.345 . S
C232 H252 0.932 . S
C233 C232 1.332 . S
C233 C242 1.332 . S
C234 C232 1.345 . S
C234 C246 1.334 . S
C234 H253 0.928 . S
C235 C236 1.332 1_565 S
C235 C237 1.345 . S
C235 H254 0.932 . S
C236 C235 1.332 1_545 S
C236 C244 1.332 . S
C237 C235 1.345 . S
C237 C249 1.334 . S
C237 H255 0.928 . S
H238 C242 0.932 . S
H239 C243 0.928 . S
H240 C244 0.932 . S
H241 C245 0.928 . S
C242 C233 1.332 . S
C242 H238 0.932 . S
C242 C243 1.345 . S
C243 H239 0.928 . S
C243 C242 1.345 . S
C243 C246 1.334 . S
C244 C236 1.332 . S
C244 H240 0.932 . S
C244 C245 1.345 1_545 S
C245 H241 0.928 . S
C245 C244 1.345 1_565 S
C245 C249 1.334 . S
C246 C234 1.334 . S
C246 C243 1.334 . S
C246 C247 1.487 . S
C247 C246 1.487 . S
C247 C248 1.185 . S
C248 C247 1.185 . S
C248 C251 1.482 . S
C249 C237 1.334 . S
C249 C245 1.334 . S
C249 C250 1.487 . S
C250 C249 1.487 . S
C250 C251 1.185 . S
C251 C248 1.482 . S
C251 C250 1.185 . S
H252 C232 0.932 . S
H253 C234 0.928 . S
H254 C235 0.932 . S
H255 C237 0.928 . S
C256 C257 1.332 . S
C256 C258 1.345 . S
C256 H276 0.932 . S
C257 C256 1.332 . S
C257 C266 1.332 . S
C258 C256 1.345 . S
C258 C270 1.334 . S
C258 H277 0.928 . S
C259 C260 1.332 . S
C259 C261 1.345 . S
C259 H278 0.932 . S
C260 C259 1.332 . S
C260 C268 1.332 . S
C261 C259 1.345 . S
C261 C273 1.334 . S
C261 H279 0.928 . S
H262 C266 0.932 . S
H263 C267 0.928 . S
H264 C268 0.932 . S
H265 C269 0.928 . S
C266 C257 1.332 . S
C266 H262 0.932 . S
C266 C267 1.345 . S
C267 H263 0.928 . S
C267 C266 1.345 . S
C267 C270 1.334 . S
C268 C260 1.332 . S
C268 H264 0.932 . S
C268 C269 1.345 . S
C269 H265 0.928 . S
C269 C268 1.345 . S
C269 C273 1.334 . S
C270 C258 1.334 . S
C270 C267 1.334 . S
C270 C271 1.487 . S
C271 C270 1.487 . S
C271 C272 1.185 . S
C272 C271 1.185 . S
C272 C275 1.482 . S
C273 C261 1.334 . S
C273 C269 1.334 . S
C273 C274 1.487 . S
C274 C273 1.487 . S
C274 C275 1.185 . S
C275 C272 1.482 . S
C275 C274 1.185 . S
H276 C256 0.932 . S
H277 C258 0.928 . S
H278 C259 0.932 . S
H279 C261 0.928 . S
C280 C281 1.332 . S
C280 C282 1.345 . S
C280 H300 0.932 . S
C281 C280 1.332 . S
C281 C290 1.332 . S
C282 C280 1.345 . S
C282 C294 1.334 . S
C282 H301 0.928 . S
C283 C284 1.332 1_545 S
C283 C285 1.345 . S
C283 H302 0.932 . S
C284 C283 1.332 1_565 S
C284 C292 1.332 . S
C285 C283 1.345 . S
C285 C297 1.334 . S
C285 H303 0.928 . S
H286 C290 0.932 . S
H287 C291 0.928 . S
H288 C292 0.932 . S
H289 C293 0.928 . S
C290 C281 1.332 . S
C290 H286 0.932 . S
C290 C291 1.345 . S
C291 H287 0.928 . S
C291 C290 1.345 . S
C291 C294 1.334 . S
C292 C284 1.332 . S
C292 H288 0.932 . S
C292 C293 1.345 1_565 S
C293 H289 0.928 . S
C293 C292 1.345 1_545 S
C293 C297 1.334 . S
C294 C282 1.334 . S
C294 C291 1.334 . S
C294 C295 1.487 . S
C295 C294 1.487 . S
C295 C296 1.185 . S
C296 C295 1.185 . S
C296 C299 1.482 . S
C297 C285 1.334 . S
C297 C293 1.334 . S
C297 C298 1.487 . S
C298 C297 1.487 . S
C298 C299 1.185 . S
C299 C296 1.482 . S
C299 C298 1.185 . S
H300 C280 0.932 . S
H301 C282 0.928 . S
H302 C283 0.932 . S
H303 C285 0.928 . S
C304 C305 1.332 . S
C304 C306 1.345 . S
C304 H324 0.932 . S
C305 C304 1.332 . S
C305 C314 1.332 . S
C306 C304 1.345 . S
C306 C318 1.334 . S
C306 H325 0.928 . S
C307 C308 1.332 . S
C307 C309 1.345 1_455 S
C307 H326 0.932 . S
C308 C307 1.332 . S
C308 C316 1.332 1_455 S
C309 C307 1.345 1_655 S
C309 C321 1.334 . S
C309 H327 0.928 . S
H310 C314 0.932 . S
H311 C315 0.928 . S
H312 C316 0.932 . S
H313 C317 0.928 . S
C314 C305 1.332 . S
C314 H310 0.932 . S
C314 C315 1.345 . S
C315 H311 0.928 . S
C315 C314 1.345 . S
C315 C318 1.334 . S
C316 C308 1.332 1_655 S
C316 H312 0.932 . S
C316 C317 1.345 . S
C317 H313 0.928 . S
C317 C316 1.345 . S
C317 C321 1.334 . S
C318 C306 1.334 . S
C318 C315 1.334 . S
C318 C319 1.487 . S
C319 C318 1.487 . S
C319 C320 1.185 . S
C320 C319 1.185 . S
C320 C323 1.482 . S
C321 C309 1.334 . S
C321 C317 1.334 . S
C321 C322 1.487 . S
C322 C321 1.487 . S
C322 C323 1.185 . S
C323 C320 1.482 . S
C323 C322 1.185 . S
H324 C304 0.932 . S
H325 C306 0.928 . S
H326 C307 0.932 . S
H327 C309 0.928 . S
C328 C329 1.332 . S
C328 C330 1.345 . S
C328 H348 0.932 . S
C329 C328 1.332 . S
C329 C338 1.332 . S
C330 C328 1.345 . S
C330 C342 1.334 . S
C330 H349 0.928 . S
C331 C332 1.332 . S
C331 C333 1.345 . S
C331 H350 0.932 . S
C332 C331 1.332 . S
C332 C340 1.332 . S
C333 C331 1.345 . S
C333 C345 1.334 . S
C333 H351 0.928 . S
H334 C338 0.932 . S
H335 C339 0.928 . S
H336 C340 0.932 . S
H337 C341 0.928 . S
C338 C329 1.332 . S
C338 H334 0.932 . S
C338 C339 1.345 . S
C339 H335 0.928 . S
C339 C338 1.345 . S
C339 C342 1.334 . S
C340 C332 1.332 . S
C340 H336 0.932 . S
C340 C341 1.345 . S
C341 H337 0.928 . S
C341 C340 1.345 . S
C341 C345 1.334 . S
C342 C330 1.334 . S
C342 C339 1.334 . S
C342 C343 1.487 . S
C343 C342 1.487 . S
C343 C344 1.185 . S
C344 C343 1.185 . S
C344 C347 1.482 . S
C345 C333 1.334 . S
C345 C341 1.334 . S
C345 C346 1.487 . S
C346 C345 1.487 . S
C346 C347 1.185 . S
C347 C344 1.482 . S
C347 C346 1.185 . S
H348 C328 0.932 . S
H349 C330 0.928 . S
H350 C331 0.932 . S
H351 C333 0.928 . S
C352 C353 1.332 . S
C352 C354 1.345 . S
C352 H372 0.932 . S
C353 C352 1.332 . S
C353 C362 1.332 . S
C354 C352 1.345 . S
C354 C366 1.334 . S
C354 H373 0.928 . S
C355 C356 1.332 . S
C355 C357 1.345 1_655 S
C355 H374 0.932 . S
C356 C355 1.332 . S
C356 C364 1.332 1_655 S
C357 C355 1.345 1_455 S
C357 C369 1.334 . S
C357 H375 0.928 . S
H358 C362 0.932 . S
H359 C363 0.928 . S
H360 C364 0.932 . S
H361 C365 0.928 . S
C362 C353 1.332 . S
C362 H358 0.932 . S
C362 C363 1.345 . S
C363 H359 0.928 . S
C363 C362 1.345 . S
C363 C366 1.334 . S
C364 C356 1.332 1_455 S
C364 H360 0.932 . S
C364 C365 1.345 . S
C365 H361 0.928 . S
C365 C364 1.345 . S
C365 C369 1.334 . S
C366 C354 1.334 . S
C366 C363 1.334 . S
C366 C367 1.487 . S
C367 C366 1.487 . S
C367 C368 1.185 . S
C368 C367 1.185 . S
C368 C371 1.482 . S
C369 C357 1.334 . S
C369 C365 1.334 . S
C369 C370 1.487 . S
C370 C369 1.487 . S
C370 C371 1.185 . S
C371 C368 1.482 . S
C371 C370 1.185 . S
H372 C352 0.932 . S
H373 C354 0.928 . S
H374 C355 0.932 . S
H375 C357 0.928 . S
C376 C377 1.332 . S
C376 C378 1.345 . S
C376 H396 0.932 . S
C377 C376 1.332 . S
C377 C386 1.332 . S
C378 C376 1.345 . S
C378 C390 1.334 . S
C378 H397 0.928 . S
C379 C380 1.332 . S
C379 C381 1.345 . S
C379 H398 0.932 . S
C380 C379 1.332 . S
C380 C388 1.332 . S
C381 C379 1.345 . S
C381 C393 1.334 . S
C381 H399 0.928 . S
H382 C386 0.932 . S
H383 C387 0.928 . S
H384 C388 0.932 . S
H385 C389 0.928 . S
C386 C377 1.332 . S
C386 H382 0.932 . S
C386 C387 1.345 . S
C387 H383 0.928 . S
C387 C386 1.345 . S
C387 C390 1.334 . S
C388 C380 1.332 . S
C388 H384 0.932 . S
C388 C389 1.345 . S
C389 H385 0.928 . S
C389 C388 1.345 . S
C389 C393 1.334 . S
C390 C378 1.334 . S
C390 C387 1.334 . S
C390 C391 1.487 . S
C391 C390 1.487 . S
C391 C392 1.185 . S
C392 C391 1.185 . S
C392 C395 1.482 . S
C393 C381 1.334 . S
C393 C389 1.334 . S
C393 C394 1.487 . S
C394 C393 1.487 . S
C394 C395 1.185 . S
C395 C392 1.482 . S
C395 C394 1.185 . S
H396 C376 0.932 . S
H397 C378 0.928 . S
H398 C379 0.932 . S
H399 C381 0.928 . S
C400 C401 1.332 . S
C400 C402 1.345 . S
C400 H420 0.932 . S
C401 C400 1.332 . S
C401 C410 1.332 . S
C402 C400 1.345 . S
C402 C414 1.334 . S
C402 H421 0.928 . S
C403 C404 1.332 . S
C403 C405 1.345 . S
C403 H422 0.932 . S
C404 C403 1.332 . S
C404 C412 1.332 . S
C405 C403 1.345 . S
C405 C417 1.334 . S
C405 H423 0.928 . S
H406 C410 0.932 . S
H407 C411 0.928 . S
H408 C412 0.932 . S
H409 C413 0.928 . S
C410 C401 1.332 . S
C410 H406 0.932 . S
C410 C411 1.345 . S
C411 H407 0.928 . S
C411 C410 1.345 . S
C411 C414 1.334 . S
C412 C404 1.332 . S
C412 H408 0.932 . S
C412 C413 1.345 . S
C413 H409 0.928 . S
C413 C412 1.345 . S
C413 C417 1.334 . S
C414 C402 1.334 . S
C414 C411 1.334 . S
C414 C415 1.487 . S
C415 C414 1.487 . S
C415 C416 1.185 . S
C416 C415 1.185 . S
C416 C419 1.482 1_655 S
C417 C405 1.334 . S
C417 C413 1.334 . S
C417 C418 1.487 . S
C418 C417 1.487 . S
C418 C419 1.185 . S
C419 C416 1.482 1_455 S
C419 C418 1.185 . S
H420 C400 0.932 . S
H421 C402 0.928 . S
H422 C403 0.932 . S
H423 C405 0.928 . S
C424 C425 1.332 . S
C424 C426 1.345 . S
C424 H444 0.932 . S
C425 C424 1.332 . S
C425 C434 1.332 . S
C426 C424 1.345 . S
C426 C438 1.334 . S
C426 H445 0.928 . S
C427 C428 1.332 . S
C427 C429 1.345 . S
C427 H446 0.932 . S
C428 C427 1.332 . S
C428 C436 1.332 . S
C429 C427 1.345 . S
C429 C441 1.334 . S
C429 H447 0.928 . S
H430 C434 0.932 . S
H431 C435 0.928 . S
H432 C436 0.932 . S
H433 C437 0.928 . S
C434 C425 1.332 . S
C434 H430 0.932 . S
C434 C435 1.345 . S
C435 H431 0.928 . S
C435 C434 1.345 . S
C435 C438 1.334 . S
C436 C428 1.332 . S
C436 H432 0.932 . S
C436 C437 1.345 . S
C437 H433 0.928 . S
C437 C436 1.345 . S
C437 C441 1.334 . S
C438 C426 1.334 . S
C438 C435 1.334 . S
C438 C439 1.487 . S
C439 C438 1.487 . S
C439 C440 1.185 . S
C440 C439 1.185 . S
C440 C443 1.482 1_655 S
C441 C429 1.334 . S
C441 C437 1.334 . S
C441 C442 1.487 . S
C442 C441 1.487 . S
C442 C443 1.185 . S
C443 C440 1.482 1_455 S
C443 C442 1.185 . S
H444 C424 0.932 . S
H445 C426 0.928 . S
H446 C427 0.932 . S
H447 C429 0.928 . S
C448 C449 1.332 . S
C448 C450 1.345 . S
C448 H468 0.932 . S
C449 C448 1.332 . S
C449 C458 1.332 . S
C450 C448 1.345 . S
C450 C462 1.334 . S
C450 H469 0.928 . S
C451 C452 1.332 . S
C451 C453 1.345 . S
C451 H470 0.932 . S
C452 C451 1.332 . S
C452 C460 1.332 . S
C453 C451 1.345 . S
C453 C465 1.334 . S
C453 H471 0.928 . S
H454 C458 0.932 . S
H455 C459 0.928 . S
H456 C460 0.932 . S
H457 C461 0.928 . S
C458 C449 1.332 . S
C458 H454 0.932 . S
C458 C459 1.345 . S
C459 H455 0.928 . S
C459 C458 1.345 . S
C459 C462 1.334 . S
C460 C452 1.332 . S
C460 H456 0.932 . S
C460 C461 1.345 . S
C461 H457 0.928 . S
C461 C460 1.345 . S
C461 C465 1.334 . S
C462 C450 1.334 . S
C462 C459 1.334 . S
C462 C463 1.487 . S
C463 C462 1.487 . S
C463 C464 1.185 . S
C464 C463 1.185 . S
C464 C467 1.482 1_545 S
C465 C453 1.334 . S
C465 C461 1.334 . S
C465 C466 1.487 . S
C466 C465 1.487 . S
C466 C467 1.185 . S
C467 C464 1.482 1_565 S
C467 C466 1.185 . S
H468 C448 0.932 . S
H469 C450 0.928 . S
H470 C451 0.932 . S
H471 C453 0.928 . S
C472 C473 1.332 . S
C472 C474 1.345 . S
C472 H492 0.932 . S
C473 C472 1.332 . S
C473 C482 1.332 . S
C474 C472 1.345 . S
C474 C486 1.334 . S
C474 H493 0.928 1_545 S
C475 C476 1.332 . S
C475 C477 1.345 . S
C475 H494 0.932 . S
C476 C475 1.332 . S
C476 C484 1.332 . S
C477 C475 1.345 . S
C477 C489 1.334 . S
C477 H495 0.928 1_565 S
H478 C482 0.932 . S
H479 C483 0.928 . S
H480 C484 0.932 . S
H481 C485 0.928 . S
C482 C473 1.332 . S
C482 H478 0.932 . S
C482 C483 1.345 . S
C483 H479 0.928 . S
C483 C482 1.345 . S
C483 C486 1.334 . S
C484 C476 1.332 . S
C484 H480 0.932 . S
C484 C485 1.345 . S
C485 H481 0.928 . S
C485 C484 1.345 . S
C485 C489 1.334 . S
C486 C474 1.334 . S
C486 C483 1.334 . S
C486 C487 1.487 . S
C487 C486 1.487 . S
C487 C488 1.185 . S
C488 C487 1.185 . S
C488 C491 1.482 1_545 S
C489 C477 1.334 . S
C489 C485 1.334 . S
C489 C490 1.487 . S
C490 C489 1.487 . S
C490 C491 1.185 . S
C491 C488 1.482 1_565 S
C491 C490 1.185 . S
H492 C472 0.932 . S
H493 C474 0.928 1_565 S
H494 C475 0.932 . S
H495 C477 0.928 1_545 S
C113 C13 1.260 . S
C116 C83 1.260 . S
C137 C27 1.260 . S
C140 C97 1.260 . S
C161 C41 1.260 . S
C164 C111 1.260 . S
C185 C69 1.260 . S
C188 C55 1.260 . S
C209 C11 1.411 . S
C212 C63 1.386 . S
C233 C25 1.411 . S
C236 C77 1.386 . S
C257 C91 1.386 . S
C260 C39 1.411 . S
C281 C53 1.411 . S
C284 C105 1.386 . S
C305 C67 1.411 . S
C308 C7 1.386 . S
C329 C21 1.386 . S
C332 C81 1.411 . S
C353 C95 1.411 . S
C356 C35 1.386 . S
C377 C49 1.386 . S
C380 C109 1.411 . S
C401 C36 0.575 . S
C404 C8 0.575 . S
C425 C50 0.575 . S
C428 C22 0.575 . S
C449 C64 0.575 . S
C452 C92 0.575 . S
C473 C78 0.575 . S
C476 C106 0.575 . S
