# Generated by pormake.
# Topology bcu, (8)-cn, num edge types: 1
# Building blocks:
#     Node 0, Type 0, BuildingBlock: TAGTUT_clean_sbu_1, # of connection points: 8
#     Node 1, Type 0, BuildingBlock: TAGTUT_clean_sbu_1, # of connection points: 8
#     Edge 2, Type (0, 0), BuildingBlock: TEMPAE_clean_linker_10, # of connection points: 2
#     Edge 3, Type (0, 0), BuildingBlock: TEMPAE_clean_linker_10, # of connection points: 2
#     Edge 4, Type (0, 0), BuildingBlock: TEMPAE_clean_linker_10, # of connection points: 2
#     Edge 5, Type (0, 0), BuildingBlock: TEMPAE_clean_linker_10, # of connection points: 2
#     Edge 6, Type (0, 0), BuildingBlock: TEMPAE_clean_linker_10, # of connection points: 2
#     Edge 7, Type (0, 0), BuildingBlock: TEMPAE_clean_linker_10, # of connection points: 2
#     Edge 8, Type (0, 0), BuildingBlock: TEMPAE_clean_linker_10, # of connection points: 2
#     Edge 9, Type (0, 0), BuildingBlock: TEMPAE_clean_linker_10, # of connection points: 2
# Relax obj value: 0.017
# Max RMSD: 0.077
# Mean RMSD: 0.077
data_MOF--net-bcu--node1-TAGTUT_clean_sbu_1--edge1-TEMPAE_clean_linker_10
_symmetry_space_group_name_H-M    P1
_symmetry_Int_Tables_number       1
_symmetry_cell_setting            triclinic
loop_
_symmetry_equiv_pos_as_xyz
'x, y, z'
_cell_length_a     20.208207
_cell_length_b     18.776289
_cell_length_c     21.232029
_cell_angle_alpha  89.60864
_cell_angle_beta   94.181836
_cell_angle_gamma 109.80394
loop_
_atom_site_label
_atom_site_type_symbol
_atom_site_fract_x
_atom_site_fract_y
_atom_site_fract_z
_atom_type_partial_charge
C0 C 0.8611 0.16543 0.05764 0.0
C1 C 0.96871 0.20723 0.89027 0.0
C2 C 0.89876 0.90015 0.87976 0.0
Mg3 Mg 0.01066 0.17346 0.02538 0.0
O4 O 0.95897 0.06985 0.01541 0.0
Mg5 Mg 0.87536 0.03884 0.95253 0.0
Mg6 Mg 0.00841 0.00146 0.98953 0.0
O7 O 0.05674 0.9324 0.96402 0.0
Mg8 Mg 1.00115 0.82948 0.95944 0.0
Mg9 Mg 0.14178 0.96244 0.0249 0.0
C10 C 0.11637 0.10156 0.10115 0.0
C11 C 0.15736 0.10659 0.93494 0.0
O12 O 0.83229 0.11098 0.01712 0.0
O13 O 0.9279 0.1962 0.06893 0.0
O14 O 0.9197 0.14303 0.89144 0.0
O15 O 0.0161 0.23049 0.93586 0.0
O16 O 0.098 0.15918 0.08605 0.0
O17 O 0.08595 0.03556 0.0759 0.0
C18 C 0.85931 0.89522 0.04277 0.0
O19 O 0.92591 0.90754 0.04366 0.0
O20 O 0.83075 0.93712 0.01201 0.0
O21 O 0.18034 0.88695 0.95734 0.0
O22 O 0.07894 0.80398 0.91247 0.0
O23 O 0.09957 0.8597 0.08786 0.0
C24 C 0.14631 0.83293 0.91749 0.0
O25 O 0.9996 0.77308 0.04919 0.0
O26 O 0.91329 0.84142 0.89859 0.0
C27 C 0.05006 0.79648 0.09215 0.0
O28 O 0.93162 0.96681 0.90277 0.0
O29 O 0.09104 0.09551 0.93522 0.0
O30 O 0.18551 0.06359 0.9646 0.0
C31 C 0.3459 0.6391 0.56413 0.0
C32 C 0.34494 0.57926 0.36811 0.0
C33 C 0.397 0.33019 0.4718 0.0
Mg34 Mg 0.46174 0.65188 0.47264 0.0
O35 O 0.45068 0.55873 0.51061 0.0
Mg36 Mg 0.3552 0.47944 0.50085 0.0
Mg37 Mg 0.5112 0.49987 0.48954 0.0
O38 O 0.57154 0.44089 0.46863 0.0
Mg39 Mg 0.55952 0.34872 0.50831 0.0
Mg40 Mg 0.66735 0.51964 0.4784 0.0
C41 C 0.62497 0.66971 0.5074 0.0
C42 C 0.58256 0.56457 0.35852 0.0
O43 O 0.31981 0.56747 0.55206 0.0
O44 O 0.40048 0.68284 0.53892 0.0
O45 O 0.32419 0.52294 0.40476 0.0
O46 O 0.4023 0.63416 0.38151 0.0
O47 O 0.57686 0.6971 0.48761 0.0
O48 O 0.61088 0.59881 0.51882 0.0
C49 C 0.43964 0.43391 0.62037 0.0
O50 O 0.49682 0.45143 0.59186 0.0
O51 O 0.38317 0.44008 0.59441 0.0
O52 O 0.70409 0.43002 0.42926 0.0
O53 O 0.61986 0.31679 0.44238 0.0
O54 O 0.69746 0.47795 0.57519 0.0
C55 C 0.67582 0.35835 0.41782 0.0
O56 O 0.61889 0.36755 0.59948 0.0
O57 O 0.44462 0.30286 0.49295 0.0
C58 C 0.67628 0.42251 0.61257 0.0
O59 O 0.41157 0.40098 0.45976 0.0
O60 O 0.52581 0.54822 0.38754 0.0
O61 O 0.63901 0.55767 0.38402 0.0
C62 C 0.11587 0.07352 0.21382 0.0
C63 C 0.15455 0.10687 0.16273 0.0
C64 C 0.1426 0.09592 0.27593 0.0
C65 C 0.2103 0.15118 0.28648 0.0
C66 C 0.25197 0.17975 0.23488 0.0
C67 C 0.22271 0.1585 0.17322 0.0
C68 C 0.09546 0.06565 0.32896 0.0
C69 C 0.32574 0.23656 0.24449 0.0
C70 C 0.27976 0.30156 0.41221 0.0
C71 C 0.32976 0.27559 0.44468 0.0
C72 C 0.23226 0.2562 0.36521 0.0
C73 C 0.23658 0.18464 0.35011 0.0
C74 C 0.27869 0.15369 0.38963 0.0
C75 C 0.32395 0.19924 0.43765 0.0
C76 C 0.18394 0.28871 0.32662 0.0
C77 C 0.28377 0.07701 0.37579 0.0
H78 H 0.06217 0.03486 0.20502 0.0
H79 H 0.25167 0.18472 0.13325 0.0
H80 H 0.05632 0.00881 0.31661 0.0
H81 H 0.12587 0.06196 0.37374 0.0
H82 H 0.066 0.10455 0.33739 0.0
H83 H 0.35392 0.24526 0.20053 0.0
H84 H 0.32324 0.29185 0.26 0.0
H85 H 0.35699 0.21766 0.28195 0.0
H86 H 0.28209 0.35955 0.41901 0.0
H87 H 0.36065 0.17753 0.46422 0.0
H88 H 0.13186 0.24449 0.31489 0.0
H89 H 0.20737 0.31011 0.28159 0.0
H90 H 0.17603 0.33648 0.35192 0.0
H91 H 0.2313 0.03519 0.36111 0.0
H92 H 0.30699 0.05507 0.41737 0.0
H93 H 0.31801 0.08199 0.33624 0.0
C94 C 0.80803 0.25544 0.09831 0.0
C95 C 0.81748 0.18513 0.10154 0.0
C96 C 0.78058 0.28198 0.14843 0.0
C97 C 0.76535 0.23819 0.20357 0.0
C98 C 0.77326 0.16612 0.20601 0.0
C99 C 0.79857 0.14008 0.15443 0.0
C100 C 0.77046 0.35795 0.14337 0.0
C101 C 0.75909 0.11856 0.26445 0.0
C102 C 0.77221 0.34458 0.35676 0.0
C103 C 0.70043 0.32493 0.36586 0.0
C104 C 0.79431 0.31549 0.30454 0.0
C105 C 0.74311 0.26849 0.25949 0.0
C106 C 0.67056 0.24967 0.26817 0.0
C107 C 0.65016 0.27706 0.32188 0.0
C108 C 0.87226 0.33485 0.29762 0.0
C109 C 0.61448 0.20207 0.22006 0.0
H110 H 0.82423 0.29053 0.05759 0.0
H111 H 0.80793 0.0865 0.15704 0.0
H112 H 0.71708 0.35339 0.15663 0.0
H113 H 0.80929 0.39916 0.17669 0.0
H114 H 0.77729 0.38074 0.09494 0.0
H115 H 0.76576 0.06279 0.2578 0.0
H116 H 0.79581 0.14921 0.30455 0.0
H117 H 0.70475 0.10874 0.27788 0.0
H118 H 0.81084 0.38197 0.39071 0.0
H119 H 0.59447 0.26331 0.32825 0.0
H120 H 0.88698 0.3673 0.25393 0.0
H121 H 0.88503 0.28217 0.29314 0.0
H122 H 0.90509 0.36892 0.33838 0.0
H123 H 0.6217 0.22902 0.1732 0.0
H124 H 0.5603 0.19448 0.23314 0.0
H125 H 0.61947 0.14541 0.21492 0.0
C126 C 0.83687 0.80997 0.1362 0.0
C127 C 0.81253 0.83327 0.07905 0.0
C128 C 0.78934 0.76009 0.1752 0.0
C129 C 0.71618 0.73216 0.15587 0.0
C130 C 0.69217 0.75211 0.09646 0.0
C131 C 0.74051 0.80274 0.05902 0.0
C132 C 0.81701 0.73986 0.23829 0.0
C133 C 0.6151 0.7221 0.07337 0.0
C134 C 0.61205 0.5634 0.24856 0.0
C135 C 0.58888 0.59875 0.29601 0.0
C136 C 0.64943 0.60532 0.1997 0.0
C137 C 0.66472 0.68463 0.19907 0.0
C138 C 0.63561 0.71934 0.24359 0.0
C139 C 0.59761 0.67569 0.29158 0.0
C140 C 0.67805 0.56569 0.15247 0.0
C141 C 0.65037 0.80372 0.24434 0.0
H142 H 0.89237 0.83355 0.15185 0.0
H143 H 0.72152 0.81984 0.01435 0.0
H144 H 0.7941 0.76128 0.27684 0.0
H145 H 0.80065 0.67747 0.24251 0.0
H146 H 0.87544 0.76403 0.24533 0.0
H147 H 0.60596 0.73778 0.02377 0.0
H148 H 0.59419 0.65951 0.07663 0.0
H149 H 0.58437 0.74498 0.10379 0.0
H150 H 0.6065 0.50408 0.25294 0.0
H151 H 0.58132 0.70326 0.32929 0.0
H152 H 0.73549 0.5791 0.16385 0.0
H153 H 0.67082 0.58562 0.10399 0.0
H154 H 0.6522 0.50321 0.15304 0.0
H155 H 0.7069 0.83344 0.25903 0.0
H156 H 0.61796 0.8206 0.27746 0.0
H157 H 0.63996 0.82323 0.19642 0.0
C158 C 0.06744 0.67406 0.11547 0.0
C159 C 0.06473 0.74305 0.13797 0.0
C160 C 0.10623 0.63513 0.14999 0.0
C161 C 0.14151 0.66496 0.20916 0.0
C162 C 0.13277 0.73053 0.23475 0.0
C163 C 0.09555 0.76946 0.19839 0.0
C164 C 0.11487 0.56634 0.12025 0.0
C165 C 0.16713 0.76285 0.29864 0.0
C166 C 0.22086 0.55246 0.3227 0.0
C167 C 0.2936 0.5891 0.31776 0.0
C168 C 0.17041 0.57424 0.28594 0.0
C169 C 0.19292 0.63271 0.24176 0.0
C170 C 0.2659 0.66529 0.23269 0.0
C171 C 0.31538 0.64393 0.27137 0.0
C172 C 0.09348 0.53862 0.29798 0.0
C173 C 0.29211 0.72575 0.18434 0.0
H174 H 0.04522 0.65438 0.06811 0.0
H175 H 0.09429 0.82323 0.21556 0.0
H176 H 0.16842 0.58218 0.10299 0.0
H177 H 0.10998 0.52105 0.15522 0.0
H178 H 0.07552 0.54328 0.07966 0.0
H179 H 0.14752 0.80749 0.31534 0.0
H180 H 0.15731 0.71748 0.33412 0.0
H181 H 0.22504 0.78801 0.2959 0.0
H182 H 0.20316 0.5103 0.35859 0.0
H183 H 0.37127 0.67228 0.26691 0.0
H184 H 0.0602 0.52291 0.25294 0.0
H185 H 0.07631 0.58031 0.323 0.0
H186 H 0.08359 0.48736 0.32734 0.0
H187 H 0.2613 0.70805 0.13824 0.0
H188 H 0.3489 0.73831 0.17744 0.0
H189 H 0.28471 0.77867 0.19988 0.0
C190 C 0.25497 0.81662 0.87729 0.0
C191 C 0.18319 0.80781 0.86924 0.0
C192 C 0.2877 0.79186 0.82974 0.0
C193 C 0.24773 0.75923 0.77298 0.0
C194 C 0.1758 0.75182 0.76438 0.0
C195 C 0.14453 0.77571 0.81256 0.0
C196 C 0.36446 0.79955 0.8404 0.0
C197 C 0.13143 0.71828 0.70428 0.0
C198 C 0.32883 0.74752 0.61993 0.0
C199 C 0.31908 0.6701 0.61631 0.0
C200 C 0.30859 0.77829 0.67218 0.0
C201 C 0.27932 0.7306 0.72233 0.0
C202 C 0.27135 0.65283 0.7197 0.0
C203 C 0.29056 0.62334 0.66636 0.0
C204 C 0.31629 0.86114 0.67274 0.0
C205 C 0.24105 0.60037 0.7726 0.0
H206 H 0.28502 0.84165 0.92083 0.0
H207 H 0.0893 0.76999 0.80511 0.0
H208 H 0.36994 0.74277 0.83864 0.0
H209 H 0.39464 0.8331 0.80223 0.0
H210 H 0.38844 0.82724 0.8866 0.0
H211 H 0.07691 0.71975 0.70418 0.0
H212 H 0.15622 0.74958 0.66277 0.0
H213 H 0.12818 0.65853 0.69818 0.0
H214 H 0.35164 0.78388 0.58157 0.0
H215 H 0.28476 0.5638 0.66457 0.0
H216 H 0.34439 0.88892 0.71763 0.0
H217 H 0.26328 0.86689 0.66979 0.0
H218 H 0.34535 0.89174 0.63272 0.0
H219 H 0.26812 0.62513 0.81874 0.0
H220 H 0.2459 0.54365 0.76654 0.0
H221 H 0.18438 0.59299 0.77439 0.0
C222 C 0.42289 0.32311 0.68796 0.0
C223 C 0.43295 0.40032 0.68313 0.0
C224 C 0.38357 0.2801 0.73559 0.0
C225 C 0.35428 0.31566 0.77932 0.0
C226 C 0.37063 0.39512 0.77828 0.0
C227 C 0.40954 0.43643 0.72992 0.0
C228 C 0.36775 0.19556 0.73529 0.0
C229 C 0.3417 0.43563 0.82454 0.0
C230 C 0.18084 0.19194 0.84145 0.0
C231 C 0.20449 0.16862 0.89891 0.0
C232 C 0.22898 0.24143 0.80261 0.0
C233 C 0.30205 0.26894 0.82241 0.0
C234 C 0.32531 0.24911 0.88217 0.0
C235 C 0.27639 0.19889 0.91942 0.0
C236 C 0.20207 0.26156 0.73917 0.0
C237 C 0.40222 0.27866 0.9058 0.0
H238 H 0.43923 0.2949 0.65072 0.0
H239 H 0.41591 0.49592 0.72515 0.0
H240 H 0.37744 0.17615 0.78343 0.0
H241 H 0.3112 0.16648 0.72028 0.0
H242 H 0.40009 0.17784 0.70265 0.0
H243 H 0.3674 0.49808 0.82319 0.0
H244 H 0.28426 0.42189 0.81292 0.0
H245 H 0.34882 0.41664 0.87336 0.0
H246 H 0.12543 0.16855 0.82542 0.0
H247 H 0.29485 0.18177 0.96431 0.0
H248 H 0.22483 0.23929 0.70102 0.0
H249 H 0.21921 0.32395 0.73453 0.0
H250 H 0.14363 0.23812 0.73188 0.0
H251 H 0.43295 0.25504 0.87598 0.0
H252 H 0.41075 0.26336 0.95563 0.0
H253 H 0.42365 0.34119 0.90213 0.0
C254 C 0.95168 0.32988 0.86806 0.0
C255 C 0.95564 0.26177 0.8448 0.0
C256 C 0.91335 0.36911 0.83341 0.0
C257 C 0.87994 0.34053 0.77338 0.0
C258 C 0.8904 0.2763 0.74701 0.0
C259 C 0.92713 0.23699 0.78346 0.0
C260 C 0.90291 0.43654 0.86389 0.0
C261 C 0.85806 0.24547 0.68221 0.0
C262 C 0.70547 0.35808 0.70948 0.0
C263 C 0.72718 0.41375 0.66375 0.0
C264 C 0.75507 0.33756 0.74863 0.0
C265 C 0.82815 0.37208 0.74078 0.0
C266 C 0.85048 0.43168 0.6976 0.0
C267 C 0.79983 0.45244 0.66026 0.0
C268 C 0.72902 0.2758 0.79595 0.0
C269 C 0.92758 0.46956 0.68708 0.0
H270 H 0.97223 0.34837 0.91605 0.0
H271 H 0.9295 0.18397 0.76564 0.0
H272 H 0.9072 0.48233 0.82952 0.0
H273 H 0.84913 0.41906 0.88083 0.0
H274 H 0.94173 0.45954 0.90486 0.0
H275 H 0.87911 0.20215 0.66516 0.0
H276 H 0.80008 0.21905 0.68366 0.0
H277 H 0.86804 0.29186 0.64766 0.0
H278 H 0.64962 0.32826 0.71291 0.0
H279 H 0.81752 0.49546 0.62503 0.0
H280 H 0.75879 0.29312 0.84256 0.0
H281 H 0.738 0.2239 0.77996 0.0
H282 H 0.67187 0.26165 0.80201 0.0
H283 H 0.95994 0.48412 0.73267 0.0
H284 H 0.93701 0.52189 0.65917 0.0
H285 H 0.94626 0.42976 0.66112 0.0
C286 C 0.74247 0.69832 0.56656 0.0
C287 C 0.69258 0.7243 0.53387 0.0
C288 C 0.78982 0.74373 0.61365 0.0
C289 C 0.78543 0.81529 0.62858 0.0
C290 C 0.74383 0.84639 0.58856 0.0
C291 C 0.69877 0.8008 0.54045 0.0
C292 C 0.83785 0.71121 0.65261 0.0
C293 C 0.73884 0.92318 0.60208 0.0
C294 C 0.79491 0.84101 0.80537 0.0
C295 C 0.86252 0.89347 0.81708 0.0
C296 C 0.76742 0.8193 0.74333 0.0
C297 C 0.81034 0.84827 0.69259 0.0
C298 C 0.87761 0.90402 0.70429 0.0
C299 C 0.9025 0.92689 0.76672 0.0
C300 C 0.69408 0.76186 0.73249 0.0
C301 C 0.92617 0.9346 0.65229 0.0
H302 H 0.74 0.64025 0.56004 0.0
H303 H 0.66232 0.82259 0.51356 0.0
H304 H 0.8897 0.75553 0.66504 0.0
H305 H 0.81378 0.68923 0.69727 0.0
H306 H 0.84636 0.66381 0.62726 0.0
H307 H 0.71579 0.94503 0.56036 0.0
H308 H 0.70452 0.91844 0.64154 0.0
H309 H 0.79134 0.96494 0.61678 0.0
H310 H 0.7649 0.81475 0.84478 0.0
H311 H 0.95581 0.96614 0.77643 0.0
H312 H 0.6975 0.70686 0.71731 0.0
H313 H 0.66337 0.78047 0.69438 0.0
H314 H 0.66479 0.75268 0.77582 0.0
H315 H 0.95695 0.89658 0.64556 0.0
H316 H 0.96413 0.992 0.66482 0.0
H317 H 0.89686 0.93717 0.6066 0.0
loop_
_geom_bond_atom_site_label_1
_geom_bond_atom_site_label_2
_geom_bond_distance
_geom_bond_site_symmetry_2
_ccdc_geom_bond_type
C0 O12 1.241 . S
C0 O13 1.280 . S
C1 O14 1.277 . S
C1 O15 1.245 . S
C2 O26 1.247 . S
C2 O28 1.289 . S
Mg3 O4 1.926 . S
Mg3 O13 1.984 . S
Mg3 O15 1.988 1_554 S
Mg3 O16 2.061 1_655 S
O4 Mg3 1.926 . S
O4 Mg5 1.986 1_554 S
O4 Mg6 1.917 1_655 S
Mg5 O4 1.986 1_556 S
Mg5 O12 2.042 1_556 S
Mg5 O14 2.041 . S
Mg5 O20 2.038 1_546 S
Mg5 O28 2.238 1_545 S
Mg6 O4 1.917 1_455 S
Mg6 O7 1.917 1_544 S
Mg6 O17 2.106 . S
Mg6 O19 2.079 1_445 S
Mg6 O28 2.106 1_444 S
Mg6 O29 2.079 1_554 S
O7 Mg6 1.917 1_566 S
O7 Mg8 1.926 . S
O7 Mg9 1.986 1_556 S
Mg8 O7 1.926 . S
Mg8 O22 1.984 . S
Mg8 O25 1.988 1_556 S
Mg8 O26 2.061 1_455 S
Mg9 O7 1.986 1_554 S
Mg9 O17 2.238 1_565 S
Mg9 O21 2.042 1_554 S
Mg9 O23 2.041 . S
Mg9 O30 2.038 1_564 S
C10 O16 1.247 . S
C10 O17 1.289 . S
C11 O29 1.245 . S
C11 O30 1.274 . S
O12 C0 1.241 . S
O12 Mg5 2.042 1_554 S
O13 C0 1.280 . S
O13 Mg3 1.984 . S
O14 C1 1.277 . S
O14 Mg5 2.041 . S
O15 C1 1.245 . S
O15 Mg3 1.988 1_556 S
O16 Mg3 2.061 1_455 S
O16 C10 1.247 . S
O17 Mg6 2.106 . S
O17 Mg9 2.238 1_545 S
O17 C10 1.289 . S
C18 O19 1.245 . S
C18 O20 1.274 . S
O19 Mg6 2.079 1_665 S
O19 C18 1.245 . S
O20 Mg5 2.038 1_564 S
O20 C18 1.274 . S
O21 Mg9 2.042 1_556 S
O21 C24 1.241 . S
O22 Mg8 1.984 . S
O22 C24 1.280 . S
O23 Mg9 2.041 . S
O23 C27 1.277 . S
C24 O21 1.241 . S
C24 O22 1.280 . S
O25 Mg8 1.988 1_554 S
O25 C27 1.245 . S
O26 C2 1.247 . S
O26 Mg8 2.061 1_655 S
C27 O23 1.277 . S
C27 O25 1.245 . S
O28 C2 1.289 . S
O28 Mg5 2.238 1_565 S
O28 Mg6 2.106 1_666 S
O29 Mg6 2.079 1_556 S
O29 C11 1.245 . S
O30 Mg9 2.038 1_546 S
O30 C11 1.274 . S
C31 O43 1.241 . S
C31 O44 1.280 . S
C32 O45 1.277 . S
C32 O46 1.245 . S
C33 O57 1.247 . S
C33 O59 1.289 . S
Mg34 O35 1.926 . S
Mg34 O44 1.984 . S
Mg34 O46 1.988 . S
Mg34 O47 2.061 . S
O35 Mg34 1.926 . S
O35 Mg36 1.986 . S
O35 Mg37 1.917 . S
Mg36 O35 1.986 . S
Mg36 O43 2.042 . S
Mg36 O45 2.041 . S
Mg36 O51 2.038 . S
Mg36 O59 2.238 . S
Mg37 O35 1.917 . S
Mg37 O38 1.917 . S
Mg37 O48 2.106 . S
Mg37 O50 2.079 . S
Mg37 O59 2.106 . S
Mg37 O60 2.079 . S
O38 Mg37 1.917 . S
O38 Mg39 1.926 . S
O38 Mg40 1.986 . S
Mg39 O38 1.926 . S
Mg39 O53 1.984 . S
Mg39 O56 1.988 . S
Mg39 O57 2.061 . S
Mg40 O38 1.986 . S
Mg40 O48 2.238 . S
Mg40 O52 2.042 . S
Mg40 O54 2.041 . S
Mg40 O61 2.038 . S
C41 O47 1.247 . S
C41 O48 1.289 . S
C42 O60 1.245 . S
C42 O61 1.274 . S
O43 C31 1.241 . S
O43 Mg36 2.042 . S
O44 C31 1.280 . S
O44 Mg34 1.984 . S
O45 C32 1.277 . S
O45 Mg36 2.041 . S
O46 C32 1.245 . S
O46 Mg34 1.988 . S
O47 Mg34 2.061 . S
O47 C41 1.247 . S
O48 Mg37 2.106 . S
O48 Mg40 2.238 . S
O48 C41 1.289 . S
C49 O50 1.245 . S
C49 O51 1.274 . S
O50 Mg37 2.079 . S
O50 C49 1.245 . S
O51 Mg36 2.038 . S
O51 C49 1.274 . S
O52 Mg40 2.042 . S
O52 C55 1.241 . S
O53 Mg39 1.984 . S
O53 C55 1.280 . S
O54 Mg40 2.041 . S
O54 C58 1.277 . S
C55 O52 1.241 . S
C55 O53 1.280 . S
O56 Mg39 1.988 . S
O56 C58 1.245 . S
O57 C33 1.247 . S
O57 Mg39 2.061 . S
C58 O54 1.277 . S
C58 O56 1.245 . S
O59 C33 1.289 . S
O59 Mg36 2.238 . S
O59 Mg37 2.106 . S
O60 Mg37 2.079 . S
O60 C42 1.245 . S
O61 Mg40 2.038 . S
O61 C42 1.274 . S
C62 C63 1.391 . S
C62 C64 1.394 . S
C62 H78 0.931 . S
C63 C62 1.391 . S
C63 C67 1.376 . S
C64 C62 1.394 . S
C64 C65 1.369 . S
C64 C68 1.531 . S
C65 C64 1.369 . S
C65 C66 1.410 . S
C65 C73 1.503 . S
C66 C65 1.410 . S
C66 C67 1.392 . S
C66 C69 1.511 . S
C67 C63 1.376 . S
C67 C66 1.392 . S
C67 H79 0.929 . S
C68 C64 1.531 . S
C68 H80 0.960 . S
C68 H81 0.962 . S
C68 H82 0.960 . S
C69 C66 1.511 . S
C69 H83 0.961 . S
C69 H84 0.961 . S
C69 H85 0.961 . S
C70 C71 1.370 . S
C70 C72 1.363 . S
C70 H86 0.931 . S
C71 C70 1.370 . S
C71 C75 1.408 . S
C72 C70 1.363 . S
C72 C73 1.370 . S
C72 C76 1.524 . S
C73 C65 1.503 . S
C73 C72 1.370 . S
C73 C74 1.403 . S
C74 C73 1.403 . S
C74 C75 1.404 . S
C74 C77 1.539 . S
C75 C71 1.408 . S
C75 C74 1.404 . S
C75 H87 0.930 . S
C76 C72 1.524 . S
C76 H88 0.956 . S
C76 H89 0.961 . S
C76 H90 0.961 . S
C77 C74 1.539 . S
C77 H91 0.958 . S
C77 H92 0.961 . S
C77 H93 0.960 . S
H78 C62 0.931 . S
H79 C67 0.929 . S
H80 C68 0.960 . S
H81 C68 0.962 . S
H82 C68 0.960 . S
H83 C69 0.961 . S
H84 C69 0.961 . S
H85 C69 0.961 . S
H86 C70 0.931 . S
H87 C75 0.930 . S
H88 C76 0.956 . S
H89 C76 0.961 . S
H90 C76 0.961 . S
H91 C77 0.958 . S
H92 C77 0.961 . S
H93 C77 0.960 . S
C94 C95 1.391 . S
C94 C96 1.394 . S
C94 H110 0.931 . S
C95 C94 1.391 . S
C95 C99 1.376 . S
C96 C94 1.394 . S
C96 C97 1.369 . S
C96 C100 1.531 . S
C97 C96 1.369 . S
C97 C98 1.410 . S
C97 C105 1.503 . S
C98 C97 1.410 . S
C98 C99 1.392 . S
C98 C101 1.511 . S
C99 C95 1.376 . S
C99 C98 1.392 . S
C99 H111 0.929 . S
C100 C96 1.531 . S
C100 H112 0.960 . S
C100 H113 0.962 . S
C100 H114 0.960 . S
C101 C98 1.511 . S
C101 H115 0.961 . S
C101 H116 0.961 . S
C101 H117 0.961 . S
C102 C103 1.370 . S
C102 C104 1.363 . S
C102 H118 0.931 . S
C103 C102 1.370 . S
C103 C107 1.408 . S
C104 C102 1.363 . S
C104 C105 1.370 . S
C104 C108 1.524 . S
C105 C97 1.503 . S
C105 C104 1.370 . S
C105 C106 1.403 . S
C106 C105 1.403 . S
C106 C107 1.404 . S
C106 C109 1.539 . S
C107 C103 1.408 . S
C107 C106 1.404 . S
C107 H119 0.930 . S
C108 C104 1.524 . S
C108 H120 0.956 . S
C108 H121 0.961 . S
C108 H122 0.961 . S
C109 C106 1.539 . S
C109 H123 0.958 . S
C109 H124 0.961 . S
C109 H125 0.960 . S
H110 C94 0.931 . S
H111 C99 0.929 . S
H112 C100 0.960 . S
H113 C100 0.962 . S
H114 C100 0.960 . S
H115 C101 0.961 . S
H116 C101 0.961 . S
H117 C101 0.961 . S
H118 C102 0.931 . S
H119 C107 0.930 . S
H120 C108 0.956 . S
H121 C108 0.961 . S
H122 C108 0.961 . S
H123 C109 0.958 . S
H124 C109 0.961 . S
H125 C109 0.960 . S
C126 C127 1.391 . S
C126 C128 1.394 . S
C126 H142 0.931 . S
C127 C126 1.391 . S
C127 C131 1.376 . S
C128 C126 1.394 . S
C128 C129 1.369 . S
C128 C132 1.531 . S
C129 C128 1.369 . S
C129 C130 1.410 . S
C129 C137 1.503 . S
C130 C129 1.410 . S
C130 C131 1.392 . S
C130 C133 1.511 . S
C131 C127 1.376 . S
C131 C130 1.392 . S
C131 H143 0.929 . S
C132 C128 1.531 . S
C132 H144 0.960 . S
C132 H145 0.962 . S
C132 H146 0.960 . S
C133 C130 1.511 . S
C133 H147 0.961 . S
C133 H148 0.961 . S
C133 H149 0.961 . S
C134 C135 1.370 . S
C134 C136 1.363 . S
C134 H150 0.931 . S
C135 C134 1.370 . S
C135 C139 1.408 . S
C136 C134 1.363 . S
C136 C137 1.370 . S
C136 C140 1.524 . S
C137 C129 1.503 . S
C137 C136 1.370 . S
C137 C138 1.403 . S
C138 C137 1.403 . S
C138 C139 1.404 . S
C138 C141 1.539 . S
C139 C135 1.408 . S
C139 C138 1.404 . S
C139 H151 0.930 . S
C140 C136 1.524 . S
C140 H152 0.956 . S
C140 H153 0.961 . S
C140 H154 0.961 . S
C141 C138 1.539 . S
C141 H155 0.958 . S
C141 H156 0.961 . S
C141 H157 0.960 . S
H142 C126 0.931 . S
H143 C131 0.929 . S
H144 C132 0.960 . S
H145 C132 0.962 . S
H146 C132 0.960 . S
H147 C133 0.961 . S
H148 C133 0.961 . S
H149 C133 0.961 . S
H150 C134 0.931 . S
H151 C139 0.930 . S
H152 C140 0.956 . S
H153 C140 0.961 . S
H154 C140 0.961 . S
H155 C141 0.958 . S
H156 C141 0.961 . S
H157 C141 0.960 . S
C158 C159 1.391 . S
C158 C160 1.394 . S
C158 H174 0.931 . S
C159 C158 1.391 . S
C159 C163 1.376 . S
C160 C158 1.394 . S
C160 C161 1.369 . S
C160 C164 1.531 . S
C161 C160 1.369 . S
C161 C162 1.410 . S
C161 C169 1.503 . S
C162 C161 1.410 . S
C162 C163 1.392 . S
C162 C165 1.511 . S
C163 C159 1.376 . S
C163 C162 1.392 . S
C163 H175 0.929 . S
C164 C160 1.531 . S
C164 H176 0.960 . S
C164 H177 0.962 . S
C164 H178 0.960 . S
C165 C162 1.511 . S
C165 H179 0.961 . S
C165 H180 0.961 . S
C165 H181 0.961 . S
C166 C167 1.370 . S
C166 C168 1.363 . S
C166 H182 0.931 . S
C167 C166 1.370 . S
C167 C171 1.408 . S
C168 C166 1.363 . S
C168 C169 1.370 . S
C168 C172 1.524 . S
C169 C161 1.503 . S
C169 C168 1.370 . S
C169 C170 1.403 . S
C170 C169 1.403 . S
C170 C171 1.404 . S
C170 C173 1.539 . S
C171 C167 1.408 . S
C171 C170 1.404 . S
C171 H183 0.930 . S
C172 C168 1.524 . S
C172 H184 0.956 . S
C172 H185 0.961 . S
C172 H186 0.961 . S
C173 C170 1.539 . S
C173 H187 0.958 . S
C173 H188 0.961 . S
C173 H189 0.960 . S
H174 C158 0.931 . S
H175 C163 0.929 . S
H176 C164 0.960 . S
H177 C164 0.962 . S
H178 C164 0.960 . S
H179 C165 0.961 . S
H180 C165 0.961 . S
H181 C165 0.961 . S
H182 C166 0.931 . S
H183 C171 0.930 . S
H184 C172 0.956 . S
H185 C172 0.961 . S
H186 C172 0.961 . S
H187 C173 0.958 . S
H188 C173 0.961 . S
H189 C173 0.960 . S
C190 C191 1.391 . S
C190 C192 1.394 . S
C190 H206 0.931 . S
C191 C190 1.391 . S
C191 C195 1.376 . S
C192 C190 1.394 . S
C192 C193 1.369 . S
C192 C196 1.531 . S
C193 C192 1.369 . S
C193 C194 1.410 . S
C193 C201 1.503 . S
C194 C193 1.410 . S
C194 C195 1.392 . S
C194 C197 1.511 . S
C195 C191 1.376 . S
C195 C194 1.392 . S
C195 H207 0.929 . S
C196 C192 1.531 . S
C196 H208 0.960 . S
C196 H209 0.962 . S
C196 H210 0.960 . S
C197 C194 1.511 . S
C197 H211 0.961 . S
C197 H212 0.961 . S
C197 H213 0.961 . S
C198 C199 1.370 . S
C198 C200 1.363 . S
C198 H214 0.931 . S
C199 C198 1.370 . S
C199 C203 1.408 . S
C200 C198 1.363 . S
C200 C201 1.370 . S
C200 C204 1.524 . S
C201 C193 1.503 . S
C201 C200 1.370 . S
C201 C202 1.403 . S
C202 C201 1.403 . S
C202 C203 1.404 . S
C202 C205 1.539 . S
C203 C199 1.408 . S
C203 C202 1.404 . S
C203 H215 0.930 . S
C204 C200 1.524 . S
C204 H216 0.956 . S
C204 H217 0.961 . S
C204 H218 0.961 . S
C205 C202 1.539 . S
C205 H219 0.958 . S
C205 H220 0.961 . S
C205 H221 0.960 . S
H206 C190 0.931 . S
H207 C195 0.929 . S
H208 C196 0.960 . S
H209 C196 0.962 . S
H210 C196 0.960 . S
H211 C197 0.961 . S
H212 C197 0.961 . S
H213 C197 0.961 . S
H214 C198 0.931 . S
H215 C203 0.930 . S
H216 C204 0.956 . S
H217 C204 0.961 . S
H218 C204 0.961 . S
H219 C205 0.958 . S
H220 C205 0.961 . S
H221 C205 0.960 . S
C222 C223 1.391 . S
C222 C224 1.394 . S
C222 H238 0.931 . S
C223 C222 1.391 . S
C223 C227 1.376 . S
C224 C222 1.394 . S
C224 C225 1.369 . S
C224 C228 1.531 . S
C225 C224 1.369 . S
C225 C226 1.410 . S
C225 C233 1.503 . S
C226 C225 1.410 . S
C226 C227 1.392 . S
C226 C229 1.511 . S
C227 C223 1.376 . S
C227 C226 1.392 . S
C227 H239 0.929 . S
C228 C224 1.531 . S
C228 H240 0.960 . S
C228 H241 0.962 . S
C228 H242 0.960 . S
C229 C226 1.511 . S
C229 H243 0.961 . S
C229 H244 0.961 . S
C229 H245 0.961 . S
C230 C231 1.370 . S
C230 C232 1.363 . S
C230 H246 0.931 . S
C231 C230 1.370 . S
C231 C235 1.408 . S
C232 C230 1.363 . S
C232 C233 1.370 . S
C232 C236 1.524 . S
C233 C225 1.503 . S
C233 C232 1.370 . S
C233 C234 1.403 . S
C234 C233 1.403 . S
C234 C235 1.404 . S
C234 C237 1.539 . S
C235 C231 1.408 . S
C235 C234 1.404 . S
C235 H247 0.930 . S
C236 C232 1.524 . S
C236 H248 0.956 . S
C236 H249 0.961 . S
C236 H250 0.961 . S
C237 C234 1.539 . S
C237 H251 0.958 . S
C237 H252 0.961 . S
C237 H253 0.960 . S
H238 C222 0.931 . S
H239 C227 0.929 . S
H240 C228 0.960 . S
H241 C228 0.962 . S
H242 C228 0.960 . S
H243 C229 0.961 . S
H244 C229 0.961 . S
H245 C229 0.961 . S
H246 C230 0.931 . S
H247 C235 0.930 . S
H248 C236 0.956 . S
H249 C236 0.961 . S
H250 C236 0.961 . S
H251 C237 0.958 . S
H252 C237 0.961 . S
H253 C237 0.960 . S
C254 C255 1.391 . S
C254 C256 1.394 . S
C254 H270 0.931 . S
C255 C254 1.391 . S
C255 C259 1.376 . S
C256 C254 1.394 . S
C256 C257 1.369 . S
C256 C260 1.531 . S
C257 C256 1.369 . S
C257 C258 1.410 . S
C257 C265 1.503 . S
C258 C257 1.410 . S
C258 C259 1.392 . S
C258 C261 1.511 . S
C259 C255 1.376 . S
C259 C258 1.392 . S
C259 H271 0.929 . S
C260 C256 1.531 . S
C260 H272 0.960 . S
C260 H273 0.962 . S
C260 H274 0.960 . S
C261 C258 1.511 . S
C261 H275 0.961 . S
C261 H276 0.961 . S
C261 H277 0.961 . S
C262 C263 1.370 . S
C262 C264 1.363 . S
C262 H278 0.931 . S
C263 C262 1.370 . S
C263 C267 1.408 . S
C264 C262 1.363 . S
C264 C265 1.370 . S
C264 C268 1.524 . S
C265 C257 1.503 . S
C265 C264 1.370 . S
C265 C266 1.403 . S
C266 C265 1.403 . S
C266 C267 1.404 . S
C266 C269 1.539 . S
C267 C263 1.408 . S
C267 C266 1.404 . S
C267 H279 0.930 . S
C268 C264 1.524 . S
C268 H280 0.956 . S
C268 H281 0.961 . S
C268 H282 0.961 . S
C269 C266 1.539 . S
C269 H283 0.958 . S
C269 H284 0.961 . S
C269 H285 0.960 . S
H270 C254 0.931 . S
H271 C259 0.929 . S
H272 C260 0.960 . S
H273 C260 0.962 . S
H274 C260 0.960 . S
H275 C261 0.961 . S
H276 C261 0.961 . S
H277 C261 0.961 . S
H278 C262 0.931 . S
H279 C267 0.930 . S
H280 C268 0.956 . S
H281 C268 0.961 . S
H282 C268 0.961 . S
H283 C269 0.958 . S
H284 C269 0.961 . S
H285 C269 0.960 . S
C286 C287 1.391 . S
C286 C288 1.394 . S
C286 H302 0.931 . S
C287 C286 1.391 . S
C287 C291 1.376 . S
C288 C286 1.394 . S
C288 C289 1.369 . S
C288 C292 1.531 . S
C289 C288 1.369 . S
C289 C290 1.410 . S
C289 C297 1.503 . S
C290 C289 1.410 . S
C290 C291 1.392 . S
C290 C293 1.511 . S
C291 C287 1.376 . S
C291 C290 1.392 . S
C291 H303 0.929 . S
C292 C288 1.531 . S
C292 H304 0.960 . S
C292 H305 0.962 . S
C292 H306 0.960 . S
C293 C290 1.511 . S
C293 H307 0.961 . S
C293 H308 0.961 . S
C293 H309 0.961 . S
C294 C295 1.370 . S
C294 C296 1.363 . S
C294 H310 0.931 . S
C295 C294 1.370 . S
C295 C299 1.408 . S
C296 C294 1.363 . S
C296 C297 1.370 . S
C296 C300 1.524 . S
C297 C289 1.503 . S
C297 C296 1.370 . S
C297 C298 1.403 . S
C298 C297 1.403 . S
C298 C299 1.404 . S
C298 C301 1.539 . S
C299 C295 1.408 . S
C299 C298 1.404 . S
C299 H311 0.930 . S
C300 C296 1.524 . S
C300 H312 0.956 . S
C300 H313 0.961 . S
C300 H314 0.961 . S
C301 C298 1.539 . S
C301 H315 0.958 . S
C301 H316 0.961 . S
C301 H317 0.960 . S
H302 C286 0.931 . S
H303 C291 0.929 . S
H304 C292 0.960 . S
H305 C292 0.962 . S
H306 C292 0.960 . S
H307 C293 0.961 . S
H308 C293 0.961 . S
H309 C293 0.961 . S
H310 C294 0.931 . S
H311 C299 0.930 . S
H312 C300 0.956 . S
H313 C300 0.961 . S
H314 C300 0.961 . S
H315 C301 0.958 . S
H316 C301 0.961 . S
H317 C301 0.960 . S
C63 C10 0.940 . S
C71 C33 0.871 . S
C95 C0 1.547 . S
C103 C55 1.574 . S
C127 C18 1.518 . S
C135 C42 1.555 . S
C159 C27 1.699 . S
C167 C32 1.736 . S
C191 C24 1.539 . S
C199 C31 1.582 . S
C223 C49 1.572 . S
C231 C11 1.532 . S
C255 C1 1.710 . S
C263 C58 1.733 . S
C287 C41 0.853 . S
C295 C2 0.915 . S
