# Generated by pormake.
# Topology vby, (6)-cn, num edge types: 1
# Building blocks:
#     Node 0, Type 0, BuildingBlock: PAMTUU_clean_sbu_0, # of connection points: 6
#     Node 1, Type 0, BuildingBlock: PAMTUU_clean_sbu_0, # of connection points: 6
#     Node 2, Type 0, BuildingBlock: PAMTUU_clean_sbu_0, # of connection points: 6
#     Node 3, Type 0, BuildingBlock: PAMTUU_clean_sbu_0, # of connection points: 6
#     Node 4, Type 0, BuildingBlock: PAMTUU_clean_sbu_0, # of connection points: 6
#     Node 5, Type 0, BuildingBlock: PAMTUU_clean_sbu_0, # of connection points: 6
#     Node 6, Type 0, BuildingBlock: PAMTUU_clean_sbu_0, # of connection points: 6
#     Node 7, Type 0, BuildingBlock: PAMTUU_clean_sbu_0, # of connection points: 6
#     Edge 8, Type (0, 0), BuildingBlock: XIVTED_clean_linker_0, # of connection points: 2
#     Edge 9, Type (0, 0), BuildingBlock: XIVTED_clean_linker_0, # of connection points: 2
#     Edge 10, Type (0, 0), BuildingBlock: XIVTED_clean_linker_0, # of connection points: 2
#     Edge 11, Type (0, 0), BuildingBlock: XIVTED_clean_linker_0, # of connection points: 2
#     Edge 12, Type (0, 0), BuildingBlock: XIVTED_clean_linker_0, # of connection points: 2
#     Edge 13, Type (0, 0), BuildingBlock: XIVTED_clean_linker_0, # of connection points: 2
#     Edge 14, Type (0, 0), BuildingBlock: XIVTED_clean_linker_0, # of connection points: 2
#     Edge 15, Type (0, 0), BuildingBlock: XIVTED_clean_linker_0, # of connection points: 2
#     Edge 16, Type (0, 0), BuildingBlock: XIVTED_clean_linker_0, # of connection points: 2
#     Edge 17, Type (0, 0), BuildingBlock: XIVTED_clean_linker_0, # of connection points: 2
#     Edge 18, Type (0, 0), BuildingBlock: XIVTED_clean_linker_0, # of connection points: 2
#     Edge 19, Type (0, 0), BuildingBlock: XIVTED_clean_linker_0, # of connection points: 2
#     Edge 20, Type (0, 0), BuildingBlock: XIVTED_clean_linker_0, # of connection points: 2
#     Edge 21, Type (0, 0), BuildingBlock: XIVTED_clean_linker_0, # of connection points: 2
#     Edge 22, Type (0, 0), BuildingBlock: XIVTED_clean_linker_0, # of connection points: 2
#     Edge 23, Type (0, 0), BuildingBlock: XIVTED_clean_linker_0, # of connection points: 2
#     Edge 24, Type (0, 0), BuildingBlock: XIVTED_clean_linker_0, # of connection points: 2
#     Edge 25, Type (0, 0), BuildingBlock: XIVTED_clean_linker_0, # of connection points: 2
#     Edge 26, Type (0, 0), BuildingBlock: XIVTED_clean_linker_0, # of connection points: 2
#     Edge 27, Type (0, 0), BuildingBlock: XIVTED_clean_linker_0, # of connection points: 2
#     Edge 28, Type (0, 0), BuildingBlock: XIVTED_clean_linker_0, # of connection points: 2
#     Edge 29, Type (0, 0), BuildingBlock: XIVTED_clean_linker_0, # of connection points: 2
#     Edge 30, Type (0, 0), BuildingBlock: XIVTED_clean_linker_0, # of connection points: 2
#     Edge 31, Type (0, 0), BuildingBlock: XIVTED_clean_linker_0, # of connection points: 2
# Relax obj value: 0.142
# Max RMSD: 0.181
# Mean RMSD: 0.181
data_MOF--net-vby--node1-PAMTUU_clean_sbu_0--edge1-XIVTED_clean_linker_0
_symmetry_space_group_name_H-M    P1
_symmetry_Int_Tables_number       1
_symmetry_cell_setting            triclinic
loop_
_symmetry_equiv_pos_as_xyz
'x, y, z'
_cell_length_a     15.413143
_cell_length_b     105.06559
_cell_length_c     29.981109
_cell_angle_alpha  89.909734
_cell_angle_beta   82.330283
_cell_angle_gamma 90.02656
loop_
_atom_site_label
_atom_site_type_symbol
_atom_site_fract_x
_atom_site_fract_y
_atom_site_fract_z
_atom_type_partial_charge
Tb0 Tb 0.10661 0.37173 0.02261 0.0
Tb1 Tb 0.11493 0.4033 0.02845 0.0
C2 C 0.10723 0.38909 0.93819 0.0
C3 C 0.14725 0.33565 0.01277 0.0
C4 C 0.213 0.3105 0.00908 0.0
C5 C 0.1506 0.31428 0.98149 0.0
C6 C 0.11796 0.32671 0.98345 0.0
C7 C 0.21334 0.33213 0.03848 0.0
C8 C 0.24586 0.31968 0.03662 0.0
C9 C 0.09813 0.34768 0.02113 0.0
O10 O 0.2401 0.37619 0.03311 0.0
O11 O 0.24741 0.39678 0.00681 0.0
O12 O 0.14034 0.39497 0.0915 0.0
O13 O 0.05096 0.37791 0.08925 0.0
O14 O 0.16465 0.42068 0.0014 0.0
O15 O 0.08808 0.41975 0.06742 0.0
O16 O 0.97483 0.39901 0.03859 0.0
O17 O 0.97502 0.3779 0.01612 0.0
O18 O 0.14434 0.37921 0.95499 0.0
O19 O 0.07733 0.39872 0.96347 0.0
C20 C 0.28511 0.38641 0.01932 0.0
O21 O 0.11123 0.35434 0.05627 0.0
O22 O 0.08723 0.35488 0.98685 0.0
C23 C 0.08925 0.38629 0.11227 0.0
C24 C 0.09256 0.43982 0.02922 0.0
C25 C 0.05277 0.46601 0.02438 0.0
C26 C 1.01576 0.45862 0.06121 0.0
C27 C 0.03565 0.44568 0.06368 0.0
C28 C 0.12578 0.44705 0.99127 0.0
C29 C 0.10583 0.45999 0.98878 0.0
C30 C 0.12956 0.4271 0.03648 0.0
C31 C 0.93412 0.3886 0.02794 0.0
H32 H 0.12324 0.30745 0.96018 0.0
H33 H 0.06633 0.32914 0.9637 0.0
H34 H 0.23727 0.33881 0.06146 0.0
H35 H 0.29501 0.31714 0.05772 0.0
H36 H 0.97354 0.46292 0.08887 0.0
H37 H 1.00972 0.44043 0.09365 0.0
H38 H 0.17103 0.44289 0.9645 0.0
H39 H 0.13616 0.46542 0.96012 0.0
Tb40 Tb 0.94893 0.62428 0.01767 0.0
Tb41 Tb 0.95744 0.65592 0.0237 0.0
C42 C 0.97278 0.64133 0.93391 0.0
C43 C 0.9713 0.58775 0.01632 0.0
C44 C 1.01086 0.56155 0.02098 0.0
C45 C 0.04768 0.56895 0.98412 0.0
C46 C 1.02788 0.58189 0.98173 0.0
C47 C 0.93825 0.58051 0.05429 0.0
C48 C 0.95809 0.56757 0.05668 0.0
C49 C 0.93444 0.60048 0.00917 0.0
O50 O 0.08896 0.62863 0.00739 0.0
O51 O 0.08885 0.64971 0.03022 0.0
O52 O 0.92311 0.64855 0.0918 0.0
O53 O 0.98544 0.62865 0.08293 0.0
O54 O 0.95878 0.67327 0.98933 0.0
O55 O 0.97179 0.67281 0.06017 0.0
O56 O 0.82365 0.6515 0.01366 0.0
O57 O 0.81649 0.63083 0.03933 0.0
O58 O 0.92275 0.63256 0.95484 0.0
O59 O 1.01081 0.64984 0.95653 0.0
C60 C 0.1297 0.63902 0.01817 0.0
O61 O 0.89892 0.60686 0.04426 0.0
O62 O 0.97631 0.60787 0.97849 0.0
C63 C 0.95735 0.63837 0.10829 0.0
C64 C 0.91684 0.69199 0.03125 0.0
C65 C 0.85028 0.71705 0.03123 0.0
C66 C 0.91088 0.71361 0.06029 0.0
C67 C 0.9439 0.70123 0.06018 0.0
C68 C 0.8525 0.69517 0.00403 0.0
C69 C 0.81956 0.70758 0.00405 0.0
C70 C 0.96656 0.67997 0.02509 0.0
C71 C 0.77874 0.64124 0.02716 0.0
H72 H 0.08967 0.56464 0.95638 0.0
H73 H 0.05364 0.58714 0.95175 0.0
H74 H 0.89324 0.58467 0.08115 0.0
H75 H 0.92791 0.56214 0.08537 0.0
H76 H 0.93661 0.72066 0.08136 0.0
H77 H 0.99414 0.69904 0.08109 0.0
H78 H 0.83032 0.68824 0.98134 0.0
H79 H 0.7718 0.70986 0.98184 0.0
Tb80 Tb 0.1089 0.62296 0.51423 0.0
Tb81 Tb 0.10178 0.65472 0.50814 0.0
C82 C 0.08506 0.64018 0.59805 0.0
C83 C 0.08847 0.58615 0.51714 0.0
C84 C 0.05928 0.55965 0.51136 0.0
C85 C 0.04562 0.56591 0.5531 0.0
C86 C 0.06014 0.57898 0.55594 0.0
C87 C 0.09752 0.58005 0.47501 0.0
C88 C 0.08247 0.56692 0.47215 0.0
C89 C 0.12307 0.59913 0.52256 0.0
O90 O 0.96927 0.62746 0.52453 0.0
O91 O 0.97045 0.64851 0.50096 0.0
O92 O 0.13937 0.64732 0.44062 0.0
O93 O 0.07343 0.62766 0.44876 0.0
O94 O 0.10078 0.67204 0.54245 0.0
O95 O 0.08846 0.67166 0.47154 0.0
O96 O 0.23479 0.65019 0.51917 0.0
O97 O 0.24198 0.62948 0.49385 0.0
O98 O 0.13323 0.63112 0.57771 0.0
O99 O 0.04744 0.64863 0.575 0.0
C100 C 0.92909 0.63786 0.51334 0.0
O101 O 0.15643 0.60549 0.48693 0.0
O102 O 0.08192 0.60647 0.55348 0.0
C103 C 0.10315 0.6374 0.4237 0.0
C104 C 0.14407 0.69082 0.5006 0.0
C105 C 0.20863 0.71605 0.49939 0.0
C106 C 0.15774 0.71189 0.46659 0.0
C107 C 0.1256 0.69944 0.46732 0.0
C108 C 0.19915 0.69472 0.53184 0.0
C109 C 0.23114 0.70719 0.53119 0.0
C110 C 0.09386 0.67879 0.50662 0.0
C111 C 0.27959 0.6399 0.50608 0.0
H112 H 1.02648 0.5606 0.58386 0.0
H113 H 0.05361 0.58337 0.5889 0.0
H114 H 0.12031 0.58526 0.4445 0.0
H115 H 0.09384 0.56237 0.43951 0.0
H116 H 0.14054 0.71838 0.44108 0.0
H117 H 0.08282 0.69671 0.44306 0.0
H118 H 0.21416 0.68834 0.55818 0.0
H119 H 0.26962 0.71006 0.55716 0.0
Tb120 Tb 0.96115 0.36991 0.53299 0.0
Tb121 Tb 0.95369 0.40161 0.54061 0.0
C122 C 0.96101 0.38434 0.62299 0.0
C123 C 0.91928 0.33421 0.51982 0.0
C124 C 0.85151 0.30973 0.50517 0.0
C125 C 0.84307 0.31499 0.54865 0.0
C126 C 0.87666 0.32705 0.55586 0.0
C127 C 0.92534 0.32917 0.47608 0.0
C128 C 0.89155 0.31708 0.46882 0.0
C129 C 0.9677 0.34588 0.52926 0.0
O130 O 0.8231 0.37437 0.55139 0.0
O131 O 0.82408 0.39544 0.52991 0.0
O132 O 1.00486 0.39671 0.47183 0.0
O133 O 0.93363 0.37761 0.46928 0.0
O134 O 0.97368 0.41831 0.57669 0.0
O135 O 0.91165 0.41896 0.5161 0.0
O136 O 0.09055 0.39703 0.54291 0.0
O137 O 0.09664 0.3761 0.51829 0.0
O138 O 1.00036 0.37564 0.59648 0.0
O139 O 0.91552 0.39339 0.60688 0.0
C140 C 0.78244 0.3848 0.5416 0.0
O141 O 0.99733 0.35333 0.49575 0.0
O142 O 0.93832 0.3523 0.56534 0.0
C143 C 0.97441 0.38743 0.44899 0.0
C144 C 0.97948 0.43816 0.53716 0.0
C145 C 1.02444 0.4641 0.52174 0.0
C146 C 1.00702 0.45622 0.48603 0.0
C147 C 0.98457 0.44339 0.49366 0.0
C148 C 1.00032 0.44589 0.57237 0.0
C149 C 1.02265 0.45867 0.5648 0.0
C150 C 0.93947 0.42554 0.54822 0.0
C151 C 0.1345 0.38665 0.52954 0.0
H152 H 0.81413 0.30956 0.5776 0.0
H153 H 0.87245 0.33052 0.59009 0.0
H154 H 0.95875 0.33437 0.44761 0.0
H155 H 0.89829 0.31339 0.43483 0.0
H156 H 1.00893 0.46002 0.45232 0.0
H157 H 0.96817 0.43773 0.46581 0.0
H158 H 0.99532 0.44219 0.60639 0.0
H159 H 0.03424 0.46444 0.5933 0.0
Tb160 Tb 0.603 0.87121 0.01112 0.0
Tb161 Tb 0.60788 0.90293 0.01645 0.0
C162 C 0.60252 0.88846 0.92619 0.0
C163 C 0.64657 0.83519 0.00338 0.0
C164 C 0.71354 0.81014 0.00282 0.0
C165 C 0.65236 0.81359 0.97409 0.0
C166 C 0.61912 0.82596 0.9745 0.0
C167 C 0.7116 0.832 0.03018 0.0
C168 C 0.74475 0.81959 0.02987 0.0
C169 C 0.59634 0.84715 0.01018 0.0
O170 O 0.73606 0.876 0.02139 0.0
O171 O 0.74112 0.89664 -0.00457 0.0
O172 O 0.63378 0.89489 0.07984 0.0
O173 O 0.54852 0.8773 0.07797 0.0
O174 O 0.65619 0.92038 0.98933 0.0
O175 O 0.57844 0.91942 0.05501 0.0
O176 O 0.46844 0.89827 0.02664 0.0
O177 O 0.47096 0.87712 0.00446 0.0
O178 O 0.63893 0.87855 0.9432 0.0
O179 O 0.57244 0.89816 0.95114 0.0
C180 C 0.77986 0.88634 0.00781 0.0
O181 O 0.60602 0.85393 0.04553 0.0
O182 O 0.58797 0.85423 0.97526 0.0
C183 C 0.58567 0.88588 0.10064 0.0
C184 C 0.58353 0.93954 0.01703 0.0
C185 C 0.54655 0.96583 0.01128 0.0
C186 C 0.51522 0.95884 0.05015 0.0
C187 C 0.53379 0.94586 0.05304 0.0
C188 C 0.61084 0.94637 0.97726 0.0
C189 C 0.5923 0.95936 0.97437 0.0
C190 C 0.62021 0.92679 0.02424 0.0
C191 C 0.42894 0.88774 0.01618 0.0
H192 H 0.62628 0.80655 0.95311 0.0
H193 H 0.56834 0.82815 0.95392 0.0
H194 H 0.73409 0.83891 0.05285 0.0
H195 H 0.79296 0.81731 0.05182 0.0
H196 H 0.48062 0.96353 0.0794 0.0
H197 H 0.51317 0.94095 0.08447 0.0
H198 H 0.6502 0.94185 0.94906 0.0
H199 H 0.61621 0.96442 0.94367 0.0
Tb200 Tb 0.44931 0.12438 0.0154 0.0
Tb201 Tb 0.45711 0.15608 0.02225 0.0
C202 C 0.47366 0.1417 0.93201 0.0
C203 C 0.47128 0.08778 0.01355 0.0
C204 C 0.50779 0.06147 0.0192 0.0
C205 C 0.53891 0.06846 0.98028 0.0
C206 C 0.52056 0.08144 0.97744 0.0
C207 C 0.44408 0.08095 0.05335 0.0
C208 C 0.46238 0.06796 0.05618 0.0
C209 C 0.43524 0.10058 0.00649 0.0
O210 O 0.58919 0.12878 0.00571 0.0
O211 O 0.58877 0.14988 0.02838 0.0
O212 O 0.42173 0.14857 0.09003 0.0
O213 O 0.48498 0.12874 0.08094 0.0
O214 O 0.45464 0.1735 0.9886 0.0
O215 O 0.47417 0.1729 0.05862 0.0
O216 O 0.3235 0.15162 0.01205 0.0
O217 O 0.31658 0.13084 0.03674 0.0
O218 O 0.42432 0.13277 0.95242 0.0
O219 O 0.51119 0.15016 0.95508 0.0
C220 C 0.62971 0.13919 0.01648 0.0
O221 O 0.399 0.10693 0.04149 0.0
O222 O 0.47798 0.10799 0.97617 0.0
C223 C 0.4564 0.13841 0.10643 0.0
C224 C 0.41615 0.19216 0.03174 0.0
C225 C 0.35014 0.21729 0.03446 0.0
C226 C 0.41132 0.21356 0.06281 0.0
C227 C 0.44407 0.20114 0.06133 0.0
C228 C 0.35134 0.19564 0.00517 0.0
C229 C 0.31868 0.20808 0.00655 0.0
C230 C 0.46552 0.18013 0.02411 0.0
C231 C 0.27878 0.1413 0.02503 0.0
H232 H 0.57323 0.06376 0.95098 0.0
H233 H 0.54107 0.08635 0.946 0.0
H234 H 0.40509 0.08549 0.08163 0.0
H235 H 0.43863 0.0629 0.08691 0.0
H236 H 0.43765 0.22041 0.0844 0.0
H237 H 0.49474 0.19874 0.08173 0.0
H238 H 0.32851 0.18893 0.98194 0.0
H239 H 0.27048 0.21059 0.98485 0.0
Tb240 Tb 0.61106 0.12346 0.51206 0.0
Tb241 Tb 0.60371 0.15517 0.50627 0.0
C242 C 0.58739 0.14052 0.59608 0.0
C243 C 0.58856 0.08681 0.51381 0.0
C244 C 0.55286 0.06046 0.50873 0.0
C245 C 0.52439 0.06735 0.54813 0.0
C246 C 0.54231 0.08036 0.55067 0.0
C247 C 0.613 0.08007 0.47361 0.0
C248 C 0.59507 0.06705 0.47106 0.0
C249 C 0.6248 0.09963 0.52036 0.0
O250 O 0.47134 0.12793 0.52239 0.0
O251 O 0.47219 0.14902 0.49934 0.0
O252 O 0.63984 0.14783 0.43848 0.0
O253 O 0.57492 0.1281 0.44671 0.0
O254 O 0.60232 0.17248 0.54078 0.0
O255 O 0.5912 0.17212 0.4698 0.0
O256 O 0.73686 0.15063 0.51702 0.0
O257 O 0.74397 0.12999 0.4912 0.0
O258 O 0.63614 0.13158 0.5754 0.0
O259 O 0.54983 0.14904 0.57329 0.0
C260 C 0.43098 0.13834 0.51148 0.0
O261 O 0.65977 0.10603 0.48512 0.0
O262 O 0.58323 0.10699 0.55111 0.0
C263 C 0.60387 0.13787 0.42164 0.0
C264 C 0.64724 0.19125 0.49933 0.0
C265 C 0.71011 0.21657 0.49336 0.0
C266 C 0.6911 0.21016 0.45468 0.0
C267 C 0.65935 0.19765 0.4577 0.0
C268 C 0.67116 0.19745 0.5374 0.0
C269 C 0.70231 0.20994 0.53443 0.0
C270 C 0.59634 0.17925 0.50491 0.0
C271 C 0.78168 0.14037 0.50359 0.0
H272 H 0.49262 0.06258 0.57796 0.0
H273 H 0.52404 0.0852 0.58242 0.0
H274 H 0.64964 0.0847 0.44473 0.0
H275 H 0.61668 0.06207 0.43996 0.0
H276 H 0.69601 0.21505 0.42262 0.0
H277 H 0.64029 0.19322 0.42788 0.0
H278 H 0.66183 0.19288 0.57011 0.0
H279 H 0.71761 0.21457 0.56468 0.0
Tb280 Tb 0.4559 0.8702 0.52709 0.0
Tb281 Tb 0.44851 0.90189 0.51941 0.0
C282 C 0.45671 0.88804 0.61073 0.0
C283 C 0.41412 0.8341 0.53447 0.0
C284 C 0.3499 0.80888 0.53369 0.0
C285 C 0.39847 0.81293 0.5676 0.0
C286 C 0.43041 0.82538 0.56787 0.0
C287 C 0.36131 0.83031 0.50204 0.0
C288 C 0.32944 0.81783 0.50172 0.0
C289 C 0.46425 0.84614 0.52995 0.0
O290 O 0.32276 0.87463 0.51595 0.0
O291 O 0.31581 0.89535 0.54091 0.0
O292 O 0.42285 0.89347 0.45674 0.0
O293 O 0.50937 0.87606 0.45966 0.0
O294 O 0.39847 0.91939 0.54492 0.0
O295 O 0.47742 0.91822 0.47963 0.0
O296 O 0.58826 0.89737 0.50935 0.0
O297 O 0.58712 0.87644 0.53416 0.0
O298 O 0.4219 0.87786 0.59468 0.0
O299 O 0.4847 0.89772 0.58501 0.0
C300 C 0.27799 0.88492 0.52895 0.0
O301 O 0.46283 0.85275 0.4933 0.0
O302 O 0.46372 0.8534 0.56519 0.0
C303 C 0.47191 0.88451 0.43647 0.0
C304 C 0.47065 0.93852 0.51615 0.0
C305 C 0.50637 0.96487 0.52126 0.0
C306 C 0.53412 0.958 0.48171 0.0
C307 C 0.51617 0.945 0.47915 0.0
C308 C 0.4469 0.94523 0.55648 0.0
C309 C 0.46482 0.95825 0.55903 0.0
C310 C 0.43469 0.92568 0.50968 0.0
C311 C 0.62849 0.88704 0.52115 0.0
H312 H 0.41401 0.80636 0.59326 0.0
H313 H 0.47139 0.82803 0.59306 0.0
H314 H 0.34799 0.83678 0.47563 0.0
H315 H 0.2927 0.81504 0.47495 0.0
H316 H 0.56535 0.96279 0.4518 0.0
H317 H 0.53389 0.94017 0.44733 0.0
H318 H 0.41088 0.94058 0.58549 0.0
H319 H 0.44376 0.96321 0.59024 0.0
H320 H 0.3928 0.36633 0.03239 0.0
H321 H 0.82318 0.40925 0.03066 0.0
H322 H 0.39641 0.40684 0.00738 0.0
H323 H 0.82559 0.36816 0.02603 0.0
H324 H 0.66465 0.40881 0.02831 0.0
H325 H 0.55029 0.36704 0.03564 0.0
C326 C 0.42664 0.37537 0.02744 0.0
C327 C 0.38118 0.38653 0.01948 0.0
C328 C 0.70014 0.39991 0.02782 0.0
C329 C 0.56152 0.38743 0.02358 0.0
C330 C 0.79048 0.40015 0.02938 0.0
C331 C 0.83792 0.38874 0.02839 0.0
C332 C 0.65701 0.38817 0.02572 0.0
C333 C 0.79205 0.37722 0.02655 0.0
C334 C 0.51663 0.37577 0.0293 0.0
C335 C 0.4287 0.39797 0.01336 0.0
N336 N 0.70439 0.37724 0.02535 0.0
N337 N 0.51615 0.39813 0.01572 0.0
H338 H 0.24082 0.61838 0.01504 0.0
H339 H 0.6709 0.66132 0.01436 0.0
H340 H 0.2382 0.65946 0.02031 0.0
H341 H 0.66754 0.62079 0.03867 0.0
H342 H 0.51348 0.66061 0.01089 0.0
H343 H 0.39937 0.61882 0.01741 0.0
C344 C 0.27347 0.62747 0.01646 0.0
C345 C 0.22595 0.63888 0.01765 0.0
C346 C 0.54718 0.65187 0.01713 0.0
C347 C 0.40689 0.63946 0.02035 0.0
C348 C 0.63713 0.65228 0.01912 0.0
C349 C 0.68266 0.64111 0.02696 0.0
C350 C 0.50237 0.6402 0.02259 0.0
C351 C 0.63521 0.62966 0.0328 0.0
C352 C 0.36383 0.62772 0.01803 0.0
C353 C 0.27178 0.6504 0.01965 0.0
N354 N 0.54779 0.62949 0.03032 0.0
N355 N 0.35944 0.65038 0.02087 0.0
H356 H 0.81751 0.61725 0.51812 0.0
H357 H 0.3875 0.66005 0.51802 0.0
H358 H 0.82105 0.6583 0.50971 0.0
H359 H 0.39065 0.61945 0.49557 0.0
H360 H 0.54512 0.65941 0.521 0.0
H361 H 0.65888 0.61767 0.51638 0.0
C362 C 0.78505 0.62634 0.5161 0.0
C363 C 0.83285 0.63775 0.51388 0.0
C364 C 0.5113 0.65065 0.51529 0.0
C365 C 0.65172 0.63829 0.51195 0.0
C366 C 0.42124 0.65101 0.5136 0.0
C367 C 0.37563 0.6398 0.50638 0.0
C368 C 0.5561 0.63898 0.51016 0.0
C369 C 0.42304 0.62835 0.50095 0.0
C370 C 0.69462 0.62657 0.51492 0.0
C371 C 0.78723 0.64924 0.51118 0.0
N372 N 0.51056 0.62823 0.50311 0.0
N373 N 0.69942 0.64921 0.51037 0.0
H374 H 0.6714 0.36416 0.545 0.0
H375 H 0.24246 0.40689 0.54003 0.0
H376 H 0.67416 0.40523 0.53828 0.0
H377 H 0.24583 0.36619 0.51962 0.0
H378 H 0.39953 0.40629 0.5441 0.0
H379 H 0.5134 0.36452 0.54134 0.0
C380 C 0.63886 0.37324 0.54303 0.0
C381 C 0.68628 0.38467 0.54182 0.0
C382 C 0.36595 0.3975 0.53856 0.0
C383 C 0.50589 0.38515 0.53754 0.0
C384 C 0.27617 0.39783 0.5362 0.0
C385 C 0.23066 0.38658 0.52939 0.0
C386 C 0.41069 0.38582 0.53448 0.0
C387 C 0.27811 0.37512 0.5247 0.0
C388 C 0.5488 0.37344 0.5407 0.0
C389 C 0.6406 0.39616 0.53906 0.0
N390 N 0.36541 0.37503 0.52754 0.0
N391 N 0.55317 0.3961 0.53706 0.0
H392 H 0.88923 0.90697 -0.00511 0.0
H393 H 0.32254 0.86703 0.0151 0.0
H394 H 0.88966 0.86656 0.02148 0.0
H395 H 0.31584 0.90812 0.01815 0.0
H396 H 0.16544 0.86672 0.01283 0.0
H397 H 0.04664 0.90754 -0.00191 0.0
C398 C 0.92236 0.89819 0.00117 0.0
C399 C 0.87592 0.88668 0.00786 0.0
C400 C 0.1981 0.87581 0.01414 0.0
C401 C 0.0564 0.88731 0.01168 0.0
C402 C 0.28808 0.87602 0.01532 0.0
C403 C 0.33275 0.88764 0.01669 0.0
C404 C 0.15197 0.8873 0.01393 0.0
C405 C 0.28413 0.89895 0.01723 0.0
C406 C 1.01226 0.89855 0.00322 0.0
C407 C 0.92256 0.87564 0.01613 0.0
N408 N 0.19631 0.8985 0.01559 0.0
N409 N 1.0102 0.87624 0.0177 0.0
H410 H 0.17084 0.16144 0.01313 0.0
H411 H 0.74084 0.11856 0.01294 0.0
H412 H 0.16766 0.12083 0.03586 0.0
H413 H 0.7381 0.15962 0.01923 0.0
H414 H 0.89935 0.11897 0.01525 0.0
H415 H 1.01335 0.16077 0.00989 0.0
C416 C 0.1371 0.15239 0.01759 0.0
C417 C 0.1827 0.14119 0.0249 0.0
C418 C 0.8638 0.12788 0.01611 0.0
C419 C 1.00234 0.14033 0.02082 0.0
C420 C 0.77346 0.12764 0.01459 0.0
C421 C 0.72591 0.13906 0.01605 0.0
C422 C 0.90684 0.13961 0.01868 0.0
C423 C 0.7717 0.15056 0.01833 0.0
C424 C 0.04711 0.15201 0.01573 0.0
C425 C 0.13529 0.12973 0.03038 0.0
N426 N 0.85938 0.15054 0.01951 0.0
N427 N 0.04783 0.12959 0.02805 0.0
H428 H 0.31971 0.11771 0.51553 0.0
H429 H 0.88945 0.16049 0.51605 0.0
H430 H 0.32267 0.15877 0.50849 0.0
H431 H 0.89287 0.11994 0.49251 0.0
H432 H 0.04697 0.15984 0.51921 0.0
H433 H 0.16112 0.1181 0.51356 0.0
C434 C 0.28712 0.12679 0.51378 0.0
C435 C 0.33475 0.13821 0.512 0.0
C436 C 1.01325 0.15109 0.51322 0.0
C437 C 0.15369 0.13873 0.50979 0.0
C438 C 0.92325 0.15146 0.51142 0.0
C439 C 0.87773 0.14027 0.50386 0.0
C440 C 0.05813 0.13943 0.50784 0.0
C441 C 0.92521 0.12883 0.49816 0.0
C442 C 0.19673 0.12701 0.51245 0.0
C443 C 0.28899 0.14971 0.50962 0.0
N444 N 1.0127 0.1287 0.50044 0.0
N445 N 0.20123 0.14967 0.50866 0.0
H446 H 0.74028 0.90764 0.5159 0.0
H447 H 0.16978 0.86478 0.51737 0.0
H448 H 0.73638 0.86661 0.52529 0.0
H449 H 0.16714 0.90541 0.53915 0.0
H450 H 1.01221 0.86545 0.51423 0.0
H451 H 0.89892 0.90722 0.51784 0.0
C452 C 0.77267 0.89856 0.51816 0.0
C453 C 0.72476 0.88716 0.52061 0.0
C454 C 0.04612 0.87421 0.51984 0.0
C455 C 0.90587 0.88661 0.52277 0.0
C456 C 0.13615 0.87383 0.52162 0.0
C457 C 0.18191 0.88504 0.52869 0.0
C458 C 1.00146 0.88589 0.52471 0.0
C459 C 0.13463 0.8965 0.5339 0.0
C460 C 0.86309 0.89833 0.51947 0.0
C461 C 0.77027 0.87566 0.52364 0.0
N462 N 0.04714 0.89664 0.53164 0.0
N463 N 0.85805 0.87569 0.52456 0.0
H464 H 1.00692 0.54525 0.95004 0.0
H465 H 0.05636 0.48231 0.09531 0.0
H466 H 0.03673 0.5457 0.09117 0.0
H467 H 1.02724 0.48185 0.95411 0.0
H468 H 0.04729 0.50549 0.09464 0.0
H469 H 1.016 0.52208 0.95069 0.0
C470 C 1.01652 0.5405 0.98108 0.0
C471 C 1.02147 0.54747 0.0206 0.0
C472 C 0.04256 0.50033 0.06382 0.0
C473 C 1.03016 0.52084 0.02173 0.0
C474 C 0.0469 0.48707 0.06425 0.0
C475 C 0.04214 0.48008 0.02472 0.0
C476 C 0.03346 0.50672 0.02355 0.0
C477 C 0.03196 0.48683 0.98528 0.0
C478 C 1.02088 0.52723 0.9815 0.0
C479 C 0.03184 0.54073 0.06001 0.0
N480 N 1.028 0.49976 0.9857 0.0
N481 N 0.0358 0.5278 0.05957 0.0
H482 H 0.13806 0.47958 0.55985 0.0
H483 H 0.98351 0.54435 0.4526 0.0
H484 H 0.94309 0.48058 0.46902 0.0
H485 H 0.13005 0.54272 0.56543 0.0
H486 H 0.98094 0.52097 0.45109 0.0
H487 H 0.14957 0.50271 0.55489 0.0
C488 C 0.09771 0.48464 0.53877 0.0
C489 C 0.03888 0.47806 0.51517 0.0
C490 C 1.01355 0.52575 0.47616 0.0
C491 C 0.0524 0.50466 0.50902 0.0
C492 C 1.01523 0.53908 0.47695 0.0
C493 C 0.05621 0.5455 0.5095 0.0
C494 C 0.0542 0.51881 0.50775 0.0
C495 C 0.09626 0.53819 0.54028 0.0
C496 C 0.10449 0.49787 0.53588 0.0
C497 C 0.98987 0.48518 0.48757 0.0
N498 N 0.09432 0.52528 0.5386 0.0
N499 N 0.9974 0.49809 0.48544 0.0
H500 H 0.40488 0.98042 0.04535 0.0
H501 H 0.64933 0.04688 0.985 0.0
H502 H 0.6688 0.98346 0.97686 0.0
H503 H 0.38564 0.04385 0.05379 0.0
H504 H 0.65786 0.02365 0.98182 0.0
H505 H 0.39634 1.00365 0.04857 0.0
C506 C 0.46099 0.98596 0.03091 0.0
C507 C 0.53761 0.97994 0.01073 0.0
C508 C 0.59823 0.02807 -0.00223 0.0
C509 C 0.52829 1.00658 0.01426 0.0
C510 C 0.59327 0.04134 -0.00049 0.0
C511 C 0.51671 0.04736 0.01976 0.0
C512 C 0.52602 0.02072 0.01627 0.0
C513 C 0.4465 0.03966 0.03845 0.0
C514 C 0.45602 0.99924 0.03268 0.0
C515 C 0.60788 0.98765 0.99214 0.0
N516 N 0.45277 0.02677 0.03612 0.0
N517 N 0.6016 1.00054 -0.00552 0.0
H518 H 0.67336 0.04304 0.47103 0.0
H519 H 0.38636 0.98227 0.55947 0.0
H520 H 0.41489 0.04558 0.54628 0.0
H521 H 0.64406 0.97974 0.4834 0.0
H522 H 0.39671 1.00544 0.55609 0.0
H523 H 0.66309 0.01988 0.4745 0.0
C524 C 0.61389 0.03875 0.48781 0.0
C525 C 0.54472 0.04633 0.50827 0.0
C526 C 0.45115 0.99983 0.54025 0.0
C527 C 0.53333 0.0197 0.51316 0.0
C528 C 0.44568 0.98657 0.54254 0.0
C529 C 0.5146 0.97899 0.52181 0.0
C530 C 0.52608 1.00562 0.51703 0.0
C531 C 0.58895 0.98516 0.49949 0.0
C532 C 0.60845 0.02549 0.49014 0.0
C533 C 0.4702 0.04016 0.5304 0.0
N534 N 0.59265 0.99809 0.49767 0.0
N535 N 0.46655 0.02723 0.53228 0.0
H536 H 0.24643 0.29322 0.94006 0.0
H537 H 0.3141 0.23454 0.10337 0.0
H538 H 0.23492 0.29659 0.08418 0.0
H539 H 0.32988 0.2312 0.95904 0.0
H540 H 0.28352 0.25726 0.09705 0.0
H541 H 0.27675 0.27048 0.94624 0.0
C542 C 0.25045 0.28919 0.97299 0.0
C543 C 0.23818 0.29687 0.01164 0.0
C544 C 0.29338 0.25155 0.06676 0.0
C545 C 0.27285 0.2708 0.019 0.0
C546 C 0.311 0.23857 0.07035 0.0
C547 C 0.32462 0.23091 0.0317 0.0
C548 C 0.28952 0.25696 0.02418 0.0
C549 C 0.31865 0.23666 0.98985 0.0
C550 C 0.26791 0.2762 0.9765 0.0
C551 C 0.24515 0.29112 0.05338 0.0
N552 N 0.30188 0.24933 0.98721 0.0
N553 N 0.26167 0.27845 0.05594 0.0
H554 H 0.7329 0.79694 0.07978 0.0
H555 H 0.83175 0.73025 0.95414 0.0
H556 H 0.74991 0.79229 0.93585 0.0
H557 H 0.81294 0.73489 0.09813 0.0
H558 H 0.80006 0.75286 0.94687 0.0
H559 H 0.76452 0.77433 0.08698 0.0
C560 C 0.74444 0.79121 0.04958 0.0
C561 C 0.73894 0.79657 0.00709 0.0
C562 C 0.80253 0.74894 0.98009 0.0
C563 C 0.77355 0.77053 0.01526 0.0
C564 C 0.81981 0.73598 0.98433 0.0
C565 C 0.82485 0.73061 0.02687 0.0
C566 C 0.79017 0.75665 0.01863 0.0
C567 C 0.81061 0.73861 0.06464 0.0
C568 C 0.76168 0.77825 0.05379 0.0
C569 C 0.75265 0.78856 0.96932 0.0
N570 N 0.79406 0.75121 0.05962 0.0
N571 N 0.76921 0.77596 0.9743 0.0
H572 H 0.36275 0.72638 0.51994 0.0
H573 H 0.19729 0.79862 0.5109 0.0
H574 H 0.1084 0.737 0.48682 0.0
H575 H 0.44947 0.78792 0.54665 0.0
H576 H 0.164 0.77611 0.50112 0.0
H577 H 0.3963 0.7489 0.52911 0.0
C578 C 0.31394 0.73343 0.51455 0.0
C579 C 0.23263 0.72974 0.50248 0.0
C580 C 0.22652 0.77869 0.51125 0.0
C581 C 0.2708 0.7556 0.5128 0.0
C582 C 0.24567 0.79156 0.51672 0.0
C583 C 0.32623 0.79521 0.52979 0.0
C584 C 0.28843 0.76937 0.51872 0.0
C585 C 0.38595 0.78558 0.53729 0.0
C586 C 0.33325 0.7463 0.51968 0.0
C587 C 0.17246 0.73935 0.49543 0.0
N588 N 0.36593 0.77314 0.53156 0.0
N589 N 0.19267 0.75181 0.5008 0.0
H590 H 0.70606 0.29734 0.54722 0.0
H591 H 0.82398 0.22976 0.43119 0.0
H592 H 0.93346 0.2915 0.4486 0.0
H593 H 0.64136 0.23489 0.55196 0.0
H594 H 0.85428 0.25274 0.43023 0.0
H595 H 0.66992 0.27483 0.54213 0.0
C596 C 0.7484 0.29135 0.52441 0.0
C597 C 0.8235 0.29636 0.49866 0.0
C598 C 0.80768 0.24881 0.45693 0.0
C599 C 0.78181 0.2705 0.49235 0.0
C600 C 0.79025 0.23572 0.45742 0.0
C601 C 0.73075 0.23039 0.49196 0.0
C602 C 0.7643 0.25661 0.49086 0.0
C603 C 0.68888 0.23855 0.52515 0.0
C604 C 0.72756 0.27848 0.52145 0.0
C605 C 0.87456 0.28813 0.46888 0.0
N606 N 0.70632 0.25122 0.52372 0.0
N607 N 0.85304 0.2756 0.46671 0.0
H608 H 0.99049 0.36938 0.16696 0.0
H609 H 0.06285 0.40539 0.39413 0.0
H610 H 0.14873 0.40321 0.17052 0.0
H611 H 0.91912 0.37018 0.39062 0.0
H612 H 0.09059 0.4052 0.31202 0.0
H613 H 0.96026 0.36986 0.24893 0.0
C614 C 1.01904 0.37689 0.18497 0.0
C615 C 0.07228 0.38626 0.16186 0.0
C616 C 0.05288 0.39753 0.32925 0.0
C617 C 0.03766 0.3869 0.25567 0.0
C618 C 0.03683 0.39765 0.37614 0.0
C619 C 0.98873 0.38777 0.39933 0.0
C620 C 1.0205 0.38748 0.30539 0.0
C621 C 0.95666 0.37798 0.37421 0.0
C622 C 1.00169 0.37717 0.23179 0.0
C623 C 0.10745 0.39577 0.18695 0.0
N624 N 0.97324 0.37808 0.32861 0.0
N625 N 0.08941 0.39586 0.23252 0.0
H626 H 0.98624 0.61758 0.15879 0.0
H627 H 0.11022 0.65789 0.36659 0.0
H628 H 0.96252 0.65849 0.16605 0.0
H629 H 0.0596 0.61745 0.37276 0.0
H630 H 0.0708 0.65825 0.29015 0.0
H631 H 1.02439 0.61734 0.23514 0.0
C632 C 0.9884 0.62652 0.1766 0.0
C633 C 0.97112 0.63808 0.15605 0.0
C634 C 0.06857 0.64931 0.30828 0.0
C635 C 1.01608 0.63788 0.24328 0.0
C636 C 0.09183 0.64906 0.35172 0.0
C637 C 0.08821 0.63761 0.37608 0.0
C638 C 0.04245 0.638 0.28897 0.0
C639 C 0.0631 0.6265 0.35527 0.0
C640 C 1.01027 0.62637 0.22018 0.0
C641 C 0.97478 0.64936 0.18075 0.0
N642 N 0.04128 0.62697 0.31292 0.0
N643 N 0.99762 0.64899 0.22302 0.0
H644 H 0.95617 0.6213 0.87815 0.0
H645 H 0.0388 0.66079 0.65126 0.0
H646 H 1.02672 0.66108 0.87734 0.0
H647 H 0.09963 0.62077 0.65712 0.0
H648 H 1.0127 0.66129 0.73372 0.0
H649 H 0.98608 0.62112 0.79598 0.0
C650 C 0.97752 0.63001 0.86063 0.0
C651 C 0.98904 0.64123 0.88443 0.0
C652 C 0.03212 0.65244 0.71682 0.0
C653 C 1.02265 0.64108 0.79077 0.0
C654 C 0.04661 0.65212 0.66993 0.0
C655 C 0.07136 0.64071 0.64752 0.0
C656 C 0.04064 0.64121 0.74123 0.0
C657 C 0.08103 0.62976 0.67318 0.0
C658 C 0.99507 0.62987 0.81386 0.0
C659 C 1.01743 0.65223 0.86015 0.0
N660 N 0.06482 0.63025 0.71877 0.0
N661 N 0.0327 0.65191 0.81447 0.0
H662 H 0.04202 0.36627 0.66809 0.0
H663 H 1.03073 0.40759 0.89237 0.0
H664 H 0.91805 0.4031 0.68582 0.0
H665 H 0.14548 0.37011 0.87588 0.0
H666 H 0.99221 0.40637 0.81626 0.0
H667 H 0.08044 0.36758 0.74411 0.0
C668 C 1.02229 0.37461 0.68808 0.0
C669 C 0.97682 0.38461 0.67049 0.0
C670 C 1.02608 0.39843 0.82921 0.0
C671 C 1.02149 0.3862 0.75764 0.0
C672 C 0.04853 0.39913 0.87266 0.0
C673 C 0.09139 0.38891 0.89065 0.0
C674 C 0.04655 0.38743 0.80347 0.0
C675 C 0.11259 0.37821 0.86344 0.0
C676 C 0.04454 0.37536 0.73151 0.0
C677 C 0.95292 0.39516 0.69804 0.0
N678 N 0.08968 0.37774 0.82126 0.0
N679 N 0.97592 0.3957 0.74023 0.0
H680 H 0.60133 0.90558 0.15807 0.0
H681 H 0.52355 0.86434 0.38178 0.0
H682 H 0.53732 0.8656 0.15559 0.0
H683 H 0.45747 0.90423 0.37887 0.0
H684 H 0.55245 0.86446 0.29928 0.0
H685 H 0.57342 0.90511 0.24034 0.0
C686 C 0.58189 0.89669 0.17487 0.0
C687 C 0.57134 0.88562 0.15014 0.0
C688 C 0.53136 0.87315 0.31686 0.0
C689 C 0.54016 0.88501 0.24384 0.0
C690 C 0.51521 0.87311 0.36377 0.0
C691 C 0.48791 0.88429 0.387 0.0
C692 C 0.52192 0.88451 0.29333 0.0
C693 C 0.47782 0.89539 0.36217 0.0
C694 C 0.56554 0.89645 0.2217 0.0
C695 C 0.54562 0.87437 0.17351 0.0
N696 N 0.49555 0.89525 0.31661 0.0
N697 N 0.53136 0.87432 0.21921 0.0
H698 H 0.48754 0.11769 0.15684 0.0
H699 H 0.60886 0.15834 0.3645 0.0
H700 H 0.45996 0.15855 0.16424 0.0
H701 H 0.56175 0.11782 0.37078 0.0
H702 H 0.56904 0.15859 0.28812 0.0
H703 H 0.52608 0.11756 0.23315 0.0
C704 C 0.48892 0.12664 0.17467 0.0
C705 C 0.47042 0.13816 0.15417 0.0
C706 C 0.56768 0.14965 0.30625 0.0
C707 C 0.51587 0.13808 0.24133 0.0
C708 C 0.59116 0.14948 0.34966 0.0
C709 C 0.58865 0.13804 0.37404 0.0
C710 C 0.54245 0.13828 0.28699 0.0
C711 C 0.56438 0.12686 0.35328 0.0
C712 C 0.51102 0.12655 0.21822 0.0
C713 C 0.47316 0.14945 0.1789 0.0
N714 N 0.54234 0.12727 0.31096 0.0
N715 N 0.49625 0.14914 0.22111 0.0
H716 H 0.52504 0.1619 0.87713 0.0
H717 H 0.60331 0.1208 0.65364 0.0
H718 H 0.45917 0.12199 0.87454 0.0
H719 H 0.53815 0.16073 0.65094 0.0
H720 H 0.57517 0.12122 0.73591 0.0
H721 H 0.55363 0.16182 0.79463 0.0
C722 C 0.51669 0.15313 0.85919 0.0
C723 C 0.48955 0.14194 0.88251 0.0
C724 C 0.56708 0.12987 0.71722 0.0
C725 C 0.5232 0.14176 0.78882 0.0
C726 C 0.58356 0.12967 0.67039 0.0
C727 C 0.5728 0.14075 0.64559 0.0
C728 C 0.54136 0.14129 0.73931 0.0
C729 C 0.54665 0.15197 0.66891 0.0
C730 C 0.53265 0.15311 0.81227 0.0
C731 C 0.47943 0.13084 0.85776 0.0
N732 N 0.5323 0.15198 0.71462 0.0
N733 N 0.49699 0.131 0.81219 0.0
H734 H 0.49 0.90875 0.66059 0.0
H735 H 0.60817 0.86801 0.86915 0.0
H736 H 0.45964 0.86793 0.66886 0.0
H737 H 0.56198 0.90854 0.87496 0.0
H738 H 0.56956 0.86782 0.79251 0.0
H739 H 0.52887 0.90886 0.73686 0.0
C740 C 0.49086 0.89981 0.67859 0.0
C741 C 0.4714 0.88831 0.65837 0.0
C742 C 0.56816 0.87675 0.8106 0.0
C743 C 0.51721 0.88836 0.74545 0.0
C744 C 0.59095 0.87689 0.85414 0.0
C745 C 0.58824 0.88831 0.87847 0.0
C746 C 0.54347 0.88813 0.79116 0.0
C747 C 0.56466 0.89951 0.85751 0.0
C748 C 0.51316 0.89989 0.72211 0.0
C749 C 0.47356 0.87702 0.6833 0.0
N750 N 0.54328 0.89914 0.81506 0.0
N751 N 0.4968 0.87731 0.72547 0.0
loop_
_geom_bond_atom_site_label_1
_geom_bond_atom_site_label_2
_geom_bond_distance
_geom_bond_site_symmetry_2
_ccdc_geom_bond_type
Tb0 C9 2.764 . S
Tb0 O10 2.325 . S
Tb0 O13 2.303 . S
Tb0 O17 2.322 1_455 S
Tb0 O18 2.349 1_554 S
Tb0 O21 2.415 . S
Tb0 O22 2.399 1_554 S
Tb1 O11 2.322 . S
Tb1 O12 2.349 . S
Tb1 O14 2.415 1_554 S
Tb1 O15 2.399 . S
Tb1 O16 2.325 1_455 S
Tb1 O19 2.303 1_554 S
Tb1 C30 2.761 1_455 S
C2 O18 1.261 . S
C2 O19 1.257 . S
C3 C6 1.358 1_554 S
C3 C7 1.332 . S
C3 C9 1.504 . S
C4 C5 1.373 . S
C4 C8 1.308 . S
C5 C4 1.373 . S
C5 C6 1.429 1_554 S
C5 H32 0.932 1_554 S
C6 C3 1.358 1_556 S
C6 C5 1.429 1_556 S
C6 H33 0.930 . S
C7 C3 1.332 . S
C7 C8 1.394 . S
C7 H34 0.932 . S
C8 C4 1.308 . S
C8 C7 1.394 . S
C8 H35 0.929 . S
C9 Tb0 2.764 . S
C9 C3 1.504 . S
C9 O21 1.239 . S
C9 O22 1.263 1_554 S
O10 Tb0 2.325 . S
O10 C20 1.236 . S
O11 Tb1 2.322 . S
O11 C20 1.257 . S
O12 Tb1 2.349 . S
O12 C23 1.261 . S
O13 Tb0 2.303 . S
O13 C23 1.257 . S
O14 Tb1 2.415 1_556 S
O14 C30 1.238 1_456 S
O15 Tb1 2.399 . S
O15 C30 1.260 1_455 S
O16 Tb1 2.325 1_655 S
O16 C31 1.236 . S
O17 Tb0 2.322 1_655 S
O17 C31 1.257 . S
O18 Tb0 2.349 1_556 S
O18 C2 1.261 . S
O19 Tb1 2.303 1_556 S
O19 C2 1.257 . S
C20 O10 1.236 . S
C20 O11 1.257 . S
O21 Tb0 2.415 . S
O21 C9 1.239 . S
O22 Tb0 2.399 1_556 S
O22 C9 1.263 1_556 S
C23 O12 1.261 . S
C23 O13 1.257 . S
C24 C27 1.358 . S
C24 C28 1.332 1_554 S
C24 C30 1.507 . S
C25 C26 1.373 . S
C25 C29 1.308 1_554 S
C26 C25 1.373 . S
C26 C27 1.429 . S
C26 H36 0.932 . S
C27 C24 1.358 . S
C27 C26 1.429 . S
C27 H37 0.930 . S
C28 C24 1.332 1_556 S
C28 C29 1.394 . S
C28 H38 0.932 . S
C29 C25 1.308 1_556 S
C29 C28 1.394 . S
C29 H39 0.929 . S
C30 Tb1 2.761 1_655 S
C30 O14 1.238 1_654 S
C30 O15 1.260 1_655 S
C30 C24 1.507 . S
C31 O16 1.236 . S
C31 O17 1.257 . S
H32 C5 0.932 1_556 S
H33 C6 0.930 . S
H34 C7 0.932 . S
H35 C8 0.929 . S
H36 C26 0.932 . S
H37 C27 0.930 . S
H38 C28 0.932 . S
H39 C29 0.929 . S
Tb40 C49 2.760 1_655 S
Tb40 O50 2.325 1_655 S
Tb40 O53 2.303 . S
Tb40 O57 2.322 . S
Tb40 O58 2.349 1_554 S
Tb40 O61 2.415 . S
Tb40 O62 2.399 1_554 S
Tb41 O51 2.322 1_655 S
Tb41 O52 2.349 . S
Tb41 O54 2.415 1_554 S
Tb41 O55 2.399 . S
Tb41 O56 2.325 . S
Tb41 O59 2.303 1_554 S
Tb41 C70 2.764 . S
C42 O58 1.261 . S
C42 O59 1.257 . S
C43 C46 1.361 . S
C43 C47 1.332 . S
C43 C49 1.508 . S
C44 C45 1.373 . S
C44 C48 1.308 . S
C45 C44 1.373 . S
C45 C46 1.430 . S
C45 H72 0.932 1_554 S
C46 C43 1.361 . S
C46 C45 1.430 . S
C46 H73 0.926 1_554 S
C47 C43 1.332 . S
C47 C48 1.394 . S
C47 H74 0.932 . S
C48 C44 1.308 . S
C48 C47 1.394 . S
C48 H75 0.929 . S
C49 Tb40 2.760 1_455 S
C49 C43 1.508 . S
C49 O61 1.238 1_455 S
C49 O62 1.259 1_454 S
O50 Tb40 2.325 1_455 S
O50 C60 1.236 . S
O51 Tb41 2.322 1_455 S
O51 C60 1.257 . S
O52 Tb41 2.349 . S
O52 C63 1.261 . S
O53 Tb40 2.303 . S
O53 C63 1.257 . S
O54 Tb41 2.415 1_556 S
O54 C70 1.239 1_556 S
O55 Tb41 2.399 . S
O55 C70 1.263 . S
O56 Tb41 2.325 . S
O56 C71 1.236 . S
O57 Tb40 2.322 . S
O57 C71 1.257 . S
O58 Tb40 2.349 1_556 S
O58 C42 1.261 . S
O59 Tb41 2.303 1_556 S
O59 C42 1.257 . S
C60 O50 1.236 . S
C60 O51 1.257 . S
O61 Tb40 2.415 . S
O61 C49 1.238 1_655 S
O62 Tb40 2.399 1_556 S
O62 C49 1.259 1_656 S
C63 O52 1.261 . S
C63 O53 1.257 . S
C64 C67 1.358 . S
C64 C68 1.332 1_554 S
C64 C70 1.504 . S
C65 C66 1.373 . S
C65 C69 1.308 1_554 S
C66 C65 1.373 . S
C66 C67 1.429 . S
C66 H76 0.932 . S
C67 C64 1.358 . S
C67 C66 1.429 . S
C67 H77 0.930 . S
C68 C64 1.332 1_556 S
C68 C69 1.394 . S
C68 H78 0.932 . S
C69 C65 1.308 1_556 S
C69 C68 1.394 . S
C69 H79 0.929 . S
C70 Tb41 2.764 . S
C70 O54 1.239 1_554 S
C70 O55 1.263 . S
C70 C64 1.504 . S
C71 O56 1.236 . S
C71 O57 1.257 . S
H72 C45 0.932 1_556 S
H73 C46 0.926 1_556 S
H74 C47 0.932 . S
H75 C48 0.929 . S
H76 C66 0.932 . S
H77 C67 0.930 . S
H78 C68 0.932 . S
H79 C69 0.929 . S
Tb80 C89 2.761 1_455 S
Tb80 O90 2.325 1_455 S
Tb80 O93 2.303 . S
Tb80 O97 2.322 . S
Tb80 O98 2.349 . S
Tb80 O101 2.415 . S
Tb80 O102 2.399 . S
Tb81 O91 2.322 1_455 S
Tb81 O92 2.349 . S
Tb81 O94 2.415 . S
Tb81 O95 2.399 . S
Tb81 O96 2.325 . S
Tb81 O99 2.303 . S
Tb81 C110 2.764 . S
C82 O98 1.261 . S
C82 O99 1.257 . S
C83 C86 1.358 . S
C83 C87 1.332 . S
C83 C89 1.506 . S
C84 C85 1.373 . S
C84 C88 1.308 . S
C85 C84 1.373 . S
C85 C86 1.429 . S
C85 H112 0.932 . S
C86 C83 1.358 . S
C86 C85 1.429 . S
C86 H113 0.930 . S
C87 C83 1.332 . S
C87 C88 1.394 . S
C87 H114 0.932 . S
C88 C84 1.308 . S
C88 C87 1.394 . S
C88 H115 0.929 . S
C89 Tb80 2.761 1_655 S
C89 C83 1.506 . S
C89 O101 1.238 1_655 S
C89 O102 1.261 1_655 S
O90 Tb80 2.325 1_655 S
O90 C100 1.236 . S
O91 Tb81 2.322 1_655 S
O91 C100 1.257 . S
O92 Tb81 2.349 . S
O92 C103 1.261 . S
O93 Tb80 2.303 . S
O93 C103 1.257 . S
O94 Tb81 2.415 . S
O94 C110 1.239 . S
O95 Tb81 2.399 . S
O95 C110 1.263 . S
O96 Tb81 2.325 . S
O96 C111 1.236 . S
O97 Tb80 2.322 . S
O97 C111 1.257 . S
O98 Tb80 2.349 . S
O98 C82 1.261 . S
O99 Tb81 2.303 . S
O99 C82 1.257 . S
C100 O90 1.236 . S
C100 O91 1.257 . S
O101 Tb80 2.415 . S
O101 C89 1.238 1_455 S
O102 Tb80 2.399 . S
O102 C89 1.261 1_455 S
C103 O92 1.261 . S
C103 O93 1.257 . S
C104 C107 1.358 . S
C104 C108 1.332 . S
C104 C110 1.504 . S
C105 C106 1.373 . S
C105 C109 1.308 . S
C106 C105 1.373 . S
C106 C107 1.429 . S
C106 H116 0.932 . S
C107 C104 1.358 . S
C107 C106 1.429 . S
C107 H117 0.930 . S
C108 C104 1.332 . S
C108 C109 1.394 . S
C108 H118 0.932 . S
C109 C105 1.308 . S
C109 C108 1.394 . S
C109 H119 0.929 . S
C110 Tb81 2.764 . S
C110 O94 1.239 . S
C110 O95 1.263 . S
C110 C104 1.504 . S
C111 O96 1.236 . S
C111 O97 1.257 . S
H112 C85 0.932 . S
H113 C86 0.930 . S
H114 C87 0.932 . S
H115 C88 0.929 . S
H116 C106 0.932 . S
H117 C107 0.930 . S
H118 C108 0.932 . S
H119 C109 0.929 . S
Tb120 C129 2.764 . S
Tb120 O130 2.325 . S
Tb120 O133 2.303 . S
Tb120 O137 2.322 1_655 S
Tb120 O138 2.349 . S
Tb120 O141 2.415 . S
Tb120 O142 2.399 . S
Tb121 O131 2.322 . S
Tb121 O132 2.349 . S
Tb121 O134 2.415 . S
Tb121 O135 2.399 . S
Tb121 O136 2.325 1_655 S
Tb121 O139 2.303 . S
Tb121 C150 2.762 1_655 S
C122 O138 1.261 . S
C122 O139 1.257 . S
C123 C126 1.358 . S
C123 C127 1.332 . S
C123 C129 1.504 . S
C124 C125 1.373 . S
C124 C128 1.308 . S
C125 C124 1.373 . S
C125 C126 1.429 . S
C125 H152 0.932 . S
C126 C123 1.358 . S
C126 C125 1.429 . S
C126 H153 0.930 . S
C127 C123 1.332 . S
C127 C128 1.394 . S
C127 H154 0.932 . S
C128 C124 1.308 . S
C128 C127 1.394 . S
C128 H155 0.929 . S
C129 Tb120 2.764 . S
C129 C123 1.504 . S
C129 O141 1.239 . S
C129 O142 1.263 . S
O130 Tb120 2.325 . S
O130 C140 1.236 . S
O131 Tb121 2.322 . S
O131 C140 1.257 . S
O132 Tb121 2.349 . S
O132 C143 1.261 . S
O133 Tb120 2.303 . S
O133 C143 1.257 . S
O134 Tb121 2.415 . S
O134 C150 1.238 1_655 S
O135 Tb121 2.399 . S
O135 C150 1.262 1_655 S
O136 Tb121 2.325 1_455 S
O136 C151 1.236 . S
O137 Tb120 2.322 1_455 S
O137 C151 1.257 . S
O138 Tb120 2.349 . S
O138 C122 1.261 . S
O139 Tb121 2.303 . S
O139 C122 1.257 . S
C140 O130 1.236 . S
C140 O131 1.257 . S
O141 Tb120 2.415 . S
O141 C129 1.239 . S
O142 Tb120 2.399 . S
O142 C129 1.263 . S
C143 O132 1.261 . S
C143 O133 1.257 . S
C144 C147 1.358 . S
C144 C148 1.332 . S
C144 C150 1.505 . S
C145 C146 1.373 . S
C145 C149 1.308 . S
C146 C145 1.373 . S
C146 C147 1.429 . S
C146 H156 0.932 . S
C147 C144 1.358 . S
C147 C146 1.429 . S
C147 H157 0.930 . S
C148 C144 1.332 . S
C148 C149 1.394 . S
C148 H158 0.932 . S
C149 C145 1.308 . S
C149 C148 1.394 . S
C149 H159 0.929 . S
C150 Tb121 2.762 1_455 S
C150 O134 1.238 1_455 S
C150 O135 1.262 1_455 S
C150 C144 1.505 . S
C151 O136 1.236 . S
C151 O137 1.257 . S
H152 C125 0.932 . S
H153 C126 0.930 . S
H154 C127 0.932 . S
H155 C128 0.929 . S
H156 C146 0.932 . S
H157 C147 0.930 . S
H158 C148 0.932 . S
H159 C149 0.929 . S
Tb160 C169 2.764 . S
Tb160 O170 2.325 . S
Tb160 O173 2.303 . S
Tb160 O177 2.322 . S
Tb160 O178 2.349 1_554 S
Tb160 O181 2.415 . S
Tb160 O182 2.399 1_554 S
Tb161 O171 2.322 . S
Tb161 O172 2.349 . S
Tb161 O174 2.415 1_554 S
Tb161 O175 2.399 . S
Tb161 O176 2.325 . S
Tb161 O179 2.303 1_554 S
Tb161 C190 2.764 . S
C162 O178 1.261 . S
C162 O179 1.257 . S
C163 C166 1.358 1_554 S
C163 C167 1.332 . S
C163 C169 1.504 . S
C164 C165 1.373 . S
C164 C168 1.308 . S
C165 C164 1.373 . S
C165 C166 1.429 1_554 S
C165 H192 0.932 1_554 S
C166 C163 1.358 1_556 S
C166 C165 1.429 1_556 S
C166 H193 0.930 . S
C167 C163 1.332 . S
C167 C168 1.394 . S
C167 H194 0.932 . S
C168 C164 1.308 . S
C168 C167 1.394 . S
C168 H195 0.929 . S
C169 Tb160 2.764 . S
C169 C163 1.504 . S
C169 O181 1.239 . S
C169 O182 1.263 1_554 S
O170 Tb160 2.325 . S
O170 C180 1.236 . S
O171 Tb161 2.322 . S
O171 C180 1.257 . S
O172 Tb161 2.349 . S
O172 C183 1.261 . S
O173 Tb160 2.303 . S
O173 C183 1.257 . S
O174 Tb161 2.415 1_556 S
O174 C190 1.239 1_556 S
O175 Tb161 2.399 . S
O175 C190 1.263 . S
O176 Tb161 2.325 . S
O176 C191 1.236 . S
O177 Tb160 2.322 . S
O177 C191 1.257 . S
O178 Tb160 2.349 1_556 S
O178 C162 1.261 . S
O179 Tb161 2.303 1_556 S
O179 C162 1.257 . S
C180 O170 1.236 . S
C180 O171 1.257 . S
O181 Tb160 2.415 . S
O181 C169 1.239 . S
O182 Tb160 2.399 1_556 S
O182 C169 1.263 1_556 S
C183 O172 1.261 . S
C183 O173 1.257 . S
C184 C187 1.358 . S
C184 C188 1.332 1_554 S
C184 C190 1.504 . S
C185 C186 1.373 . S
C185 C189 1.308 1_554 S
C186 C185 1.373 . S
C186 C187 1.429 . S
C186 H196 0.932 . S
C187 C184 1.358 . S
C187 C186 1.429 . S
C187 H197 0.930 . S
C188 C184 1.332 1_556 S
C188 C189 1.394 . S
C188 H198 0.932 . S
C189 C185 1.308 1_556 S
C189 C188 1.394 . S
C189 H199 0.929 . S
C190 Tb161 2.764 . S
C190 O174 1.239 1_554 S
C190 O175 1.263 . S
C190 C184 1.504 . S
C191 O176 1.236 . S
C191 O177 1.257 . S
H192 C165 0.932 1_556 S
H193 C166 0.930 . S
H194 C167 0.932 . S
H195 C168 0.929 . S
H196 C186 0.932 . S
H197 C187 0.930 . S
H198 C188 0.932 . S
H199 C189 0.929 . S
Tb200 C209 2.764 . S
Tb200 O210 2.325 . S
Tb200 O213 2.303 . S
Tb200 O217 2.322 . S
Tb200 O218 2.349 1_554 S
Tb200 O221 2.415 . S
Tb200 O222 2.399 1_554 S
Tb201 O211 2.322 . S
Tb201 O212 2.349 . S
Tb201 O214 2.415 1_554 S
Tb201 O215 2.399 . S
Tb201 O216 2.325 . S
Tb201 O219 2.303 1_554 S
Tb201 C230 2.764 . S
C202 O218 1.261 . S
C202 O219 1.257 . S
C203 C206 1.362 . S
C203 C207 1.332 . S
C203 C209 1.504 . S
C204 C205 1.373 . S
C204 C208 1.308 . S
C205 C204 1.373 . S
C205 C206 1.430 . S
C205 H232 0.932 1_554 S
C206 C203 1.362 . S
C206 C205 1.430 . S
C206 H233 0.925 1_554 S
C207 C203 1.332 . S
C207 C208 1.394 . S
C207 H234 0.932 . S
C208 C204 1.308 . S
C208 C207 1.394 . S
C208 H235 0.929 . S
C209 Tb200 2.764 . S
C209 C203 1.504 . S
C209 O221 1.239 . S
C209 O222 1.263 1_554 S
O210 Tb200 2.325 . S
O210 C220 1.236 . S
O211 Tb201 2.322 . S
O211 C220 1.257 . S
O212 Tb201 2.349 . S
O212 C223 1.261 . S
O213 Tb200 2.303 . S
O213 C223 1.257 . S
O214 Tb201 2.415 1_556 S
O214 C230 1.239 1_556 S
O215 Tb201 2.399 . S
O215 C230 1.263 . S
O216 Tb201 2.325 . S
O216 C231 1.236 . S
O217 Tb200 2.322 . S
O217 C231 1.257 . S
O218 Tb200 2.349 1_556 S
O218 C202 1.261 . S
O219 Tb201 2.303 1_556 S
O219 C202 1.257 . S
C220 O210 1.236 . S
C220 O211 1.257 . S
O221 Tb200 2.415 . S
O221 C209 1.239 . S
O222 Tb200 2.399 1_556 S
O222 C209 1.263 1_556 S
C223 O212 1.261 . S
C223 O213 1.257 . S
C224 C227 1.358 . S
C224 C228 1.332 1_554 S
C224 C230 1.504 . S
C225 C226 1.373 . S
C225 C229 1.308 1_554 S
C226 C225 1.373 . S
C226 C227 1.429 . S
C226 H236 0.932 . S
C227 C224 1.358 . S
C227 C226 1.429 . S
C227 H237 0.930 . S
C228 C224 1.332 1_556 S
C228 C229 1.394 . S
C228 H238 0.932 . S
C229 C225 1.308 1_556 S
C229 C228 1.394 . S
C229 H239 0.929 . S
C230 Tb201 2.764 . S
C230 O214 1.239 1_554 S
C230 O215 1.263 . S
C230 C224 1.504 . S
C231 O216 1.236 . S
C231 O217 1.257 . S
H232 C205 0.932 1_556 S
H233 C206 0.925 1_556 S
H234 C207 0.932 . S
H235 C208 0.929 . S
H236 C226 0.932 . S
H237 C227 0.930 . S
H238 C228 0.932 . S
H239 C229 0.929 . S
Tb240 C249 2.764 . S
Tb240 O250 2.325 . S
Tb240 O253 2.303 . S
Tb240 O257 2.322 . S
Tb240 O258 2.349 . S
Tb240 O261 2.415 . S
Tb240 O262 2.399 . S
Tb241 O251 2.322 . S
Tb241 O252 2.349 . S
Tb241 O254 2.415 . S
Tb241 O255 2.399 . S
Tb241 O256 2.325 . S
Tb241 O259 2.303 . S
Tb241 C270 2.764 . S
C242 O258 1.261 . S
C242 O259 1.257 . S
C243 C246 1.358 . S
C243 C247 1.332 . S
C243 C249 1.504 . S
C244 C245 1.373 . S
C244 C248 1.308 . S
C245 C244 1.373 . S
C245 C246 1.429 . S
C245 H272 0.932 . S
C246 C243 1.358 . S
C246 C245 1.429 . S
C246 H273 0.930 . S
C247 C243 1.332 . S
C247 C248 1.394 . S
C247 H274 0.932 . S
C248 C244 1.308 . S
C248 C247 1.394 . S
C248 H275 0.929 . S
C249 Tb240 2.764 . S
C249 C243 1.504 . S
C249 O261 1.239 . S
C249 O262 1.263 . S
O250 Tb240 2.325 . S
O250 C260 1.236 . S
O251 Tb241 2.322 . S
O251 C260 1.257 . S
O252 Tb241 2.349 . S
O252 C263 1.261 . S
O253 Tb240 2.303 . S
O253 C263 1.257 . S
O254 Tb241 2.415 . S
O254 C270 1.239 . S
O255 Tb241 2.399 . S
O255 C270 1.263 . S
O256 Tb241 2.325 . S
O256 C271 1.236 . S
O257 Tb240 2.322 . S
O257 C271 1.257 . S
O258 Tb240 2.349 . S
O258 C242 1.261 . S
O259 Tb241 2.303 . S
O259 C242 1.257 . S
C260 O250 1.236 . S
C260 O251 1.257 . S
O261 Tb240 2.415 . S
O261 C249 1.239 . S
O262 Tb240 2.399 . S
O262 C249 1.263 . S
C263 O252 1.261 . S
C263 O253 1.257 . S
C264 C267 1.358 . S
C264 C268 1.332 . S
C264 C270 1.504 . S
C265 C266 1.373 . S
C265 C269 1.308 . S
C266 C265 1.373 . S
C266 C267 1.429 . S
C266 H276 0.932 . S
C267 C264 1.358 . S
C267 C266 1.429 . S
C267 H277 0.930 . S
C268 C264 1.332 . S
C268 C269 1.394 . S
C268 H278 0.932 . S
C269 C265 1.308 . S
C269 C268 1.394 . S
C269 H279 0.929 . S
C270 Tb241 2.764 . S
C270 O254 1.239 . S
C270 O255 1.263 . S
C270 C264 1.504 . S
C271 O256 1.236 . S
C271 O257 1.257 . S
H272 C245 0.932 . S
H273 C246 0.930 . S
H274 C247 0.932 . S
H275 C248 0.929 . S
H276 C266 0.932 . S
H277 C267 0.930 . S
H278 C268 0.932 . S
H279 C269 0.929 . S
Tb280 C289 2.764 . S
Tb280 O290 2.325 . S
Tb280 O293 2.303 . S
Tb280 O297 2.322 . S
Tb280 O298 2.349 . S
Tb280 O301 2.415 . S
Tb280 O302 2.399 . S
Tb281 O291 2.322 . S
Tb281 O292 2.349 . S
Tb281 O294 2.415 . S
Tb281 O295 2.399 . S
Tb281 O296 2.325 . S
Tb281 O299 2.303 . S
Tb281 C310 2.764 . S
C282 O298 1.261 . S
C282 O299 1.257 . S
C283 C286 1.358 . S
C283 C287 1.332 . S
C283 C289 1.504 . S
C284 C285 1.373 . S
C284 C288 1.308 . S
C285 C284 1.373 . S
C285 C286 1.429 . S
C285 H312 0.932 . S
C286 C283 1.358 . S
C286 C285 1.429 . S
C286 H313 0.930 . S
C287 C283 1.332 . S
C287 C288 1.394 . S
C287 H314 0.932 . S
C288 C284 1.308 . S
C288 C287 1.394 . S
C288 H315 0.929 . S
C289 Tb280 2.764 . S
C289 C283 1.504 . S
C289 O301 1.239 . S
C289 O302 1.263 . S
O290 Tb280 2.325 . S
O290 C300 1.236 . S
O291 Tb281 2.322 . S
O291 C300 1.257 . S
O292 Tb281 2.349 . S
O292 C303 1.261 . S
O293 Tb280 2.303 . S
O293 C303 1.257 . S
O294 Tb281 2.415 . S
O294 C310 1.239 . S
O295 Tb281 2.399 . S
O295 C310 1.263 . S
O296 Tb281 2.325 . S
O296 C311 1.236 . S
O297 Tb280 2.322 . S
O297 C311 1.257 . S
O298 Tb280 2.349 . S
O298 C282 1.261 . S
O299 Tb281 2.303 . S
O299 C282 1.257 . S
C300 O290 1.236 . S
C300 O291 1.257 . S
O301 Tb280 2.415 . S
O301 C289 1.239 . S
O302 Tb280 2.399 . S
O302 C289 1.263 . S
C303 O292 1.261 . S
C303 O293 1.257 . S
C304 C307 1.358 . S
C304 C308 1.332 . S
C304 C310 1.504 . S
C305 C306 1.373 . S
C305 C309 1.308 . S
C306 C305 1.373 . S
C306 C307 1.429 . S
C306 H316 0.932 . S
C307 C304 1.358 . S
C307 C306 1.429 . S
C307 H317 0.930 . S
C308 C304 1.332 . S
C308 C309 1.394 . S
C308 H318 0.932 . S
C309 C305 1.308 . S
C309 C308 1.394 . S
C309 H319 0.929 . S
C310 Tb281 2.764 . S
C310 O294 1.239 . S
C310 O295 1.263 . S
C310 C304 1.504 . S
C311 O296 1.236 . S
C311 O297 1.257 . S
H312 C285 0.932 . S
H313 C286 0.930 . S
H314 C287 0.932 . S
H315 C288 0.929 . S
H316 C306 0.932 . S
H317 C307 0.930 . S
H318 C308 0.932 . S
H319 C309 0.929 . S
H320 C326 0.930 . S
H321 C330 0.930 . S
H322 C335 0.929 . S
H323 C333 0.929 . S
H324 C328 0.929 . S
H325 C334 0.929 . S
C326 H320 0.930 . S
C326 C327 1.367 . S
C326 C334 1.378 . S
C327 C326 1.367 . S
C327 C335 1.433 1_554 S
C328 H324 0.929 . S
C328 C330 1.378 . S
C328 C332 1.350 1_556 S
C329 C332 1.463 . S
C329 C334 1.350 . S
C329 N337 1.427 1_554 S
C330 H321 0.930 . S
C330 C328 1.378 . S
C330 C331 1.367 1_556 S
C331 C330 1.367 1_554 S
C331 C333 1.433 . S
C332 C328 1.350 1_554 S
C332 C329 1.463 . S
C332 N336 1.427 . S
C333 H323 0.929 . S
C333 C331 1.433 . S
C333 N336 1.384 . S
C334 H325 0.929 . S
C334 C326 1.378 . S
C334 C329 1.350 . S
C335 H322 0.929 . S
C335 C327 1.433 1_556 S
C335 N337 1.384 . S
N336 C332 1.427 . S
N336 C333 1.384 . S
N337 C329 1.427 1_556 S
N337 C335 1.384 . S
H338 C344 0.930 . S
H339 C348 0.930 . S
H340 C353 0.929 . S
H341 C351 0.929 . S
H342 C346 0.929 . S
H343 C352 0.929 . S
C344 H338 0.930 . S
C344 C345 1.367 1_556 S
C344 C352 1.378 . S
C345 C344 1.367 1_554 S
C345 C353 1.433 . S
C346 H342 0.929 . S
C346 C348 1.378 . S
C346 C350 1.350 . S
C347 C350 1.463 . S
C347 C352 1.350 1_554 S
C347 N355 1.427 . S
C348 H339 0.930 . S
C348 C346 1.378 . S
C348 C349 1.367 . S
C349 C348 1.367 . S
C349 C351 1.433 1_554 S
C350 C346 1.350 . S
C350 C347 1.463 . S
C350 N354 1.427 1_554 S
C351 H341 0.929 . S
C351 C349 1.433 1_556 S
C351 N354 1.384 . S
C352 H343 0.929 . S
C352 C344 1.378 . S
C352 C347 1.350 1_556 S
C353 H340 0.929 . S
C353 C345 1.433 . S
C353 N355 1.384 . S
N354 C350 1.427 1_556 S
N354 C351 1.384 . S
N355 C347 1.427 . S
N355 C353 1.384 . S
H356 C362 0.930 . S
H357 C366 0.930 . S
H358 C371 0.929 . S
H359 C369 0.929 . S
H360 C364 0.929 . S
H361 C370 0.929 . S
C362 H356 0.930 . S
C362 C363 1.367 . S
C362 C370 1.378 . S
C363 C362 1.367 . S
C363 C371 1.433 . S
C364 H360 0.929 . S
C364 C366 1.378 . S
C364 C368 1.350 . S
C365 C368 1.463 . S
C365 C370 1.350 . S
C365 N373 1.427 . S
C366 H357 0.930 . S
C366 C364 1.378 . S
C366 C367 1.367 . S
C367 C366 1.367 . S
C367 C369 1.433 . S
C368 C364 1.350 . S
C368 C365 1.463 . S
C368 N372 1.427 . S
C369 H359 0.929 . S
C369 C367 1.433 . S
C369 N372 1.384 . S
C370 H361 0.929 . S
C370 C362 1.378 . S
C370 C365 1.350 . S
C371 H358 0.929 . S
C371 C363 1.433 . S
C371 N373 1.384 . S
N372 C368 1.427 . S
N372 C369 1.384 . S
N373 C365 1.427 . S
N373 C371 1.384 . S
H374 C380 0.930 . S
H375 C384 0.930 . S
H376 C389 0.929 . S
H377 C387 0.929 . S
H378 C382 0.929 . S
H379 C388 0.929 . S
C380 H374 0.930 . S
C380 C381 1.367 . S
C380 C388 1.378 . S
C381 C380 1.367 . S
C381 C389 1.433 . S
C382 H378 0.929 . S
C382 C384 1.378 . S
C382 C386 1.350 . S
C383 C386 1.463 . S
C383 C388 1.350 . S
C383 N391 1.427 . S
C384 H375 0.930 . S
C384 C382 1.378 . S
C384 C385 1.367 . S
C385 C384 1.367 . S
C385 C387 1.433 . S
C386 C382 1.350 . S
C386 C383 1.463 . S
C386 N390 1.427 . S
C387 H377 0.929 . S
C387 C385 1.433 . S
C387 N390 1.384 . S
C388 H379 0.929 . S
C388 C380 1.378 . S
C388 C383 1.350 . S
C389 H376 0.929 . S
C389 C381 1.433 . S
C389 N391 1.384 . S
N390 C386 1.427 . S
N390 C387 1.384 . S
N391 C383 1.427 . S
N391 C389 1.384 . S
H392 C398 0.930 . S
H393 C402 0.930 . S
H394 C407 0.929 . S
H395 C405 0.929 . S
H396 C400 0.929 . S
H397 C406 0.929 . S
C398 H392 0.930 . S
C398 C399 1.367 . S
C398 C406 1.378 . S
C399 C398 1.367 . S
C399 C407 1.433 1_554 S
C400 H396 0.929 . S
C400 C402 1.378 . S
C400 C404 1.350 1_556 S
C401 C404 1.463 . S
C401 C406 1.350 1_455 S
C401 N409 1.427 1_454 S
C402 H393 0.930 . S
C402 C400 1.378 . S
C402 C403 1.367 1_556 S
C403 C402 1.367 1_554 S
C403 C405 1.433 . S
C404 C400 1.350 1_554 S
C404 C401 1.463 . S
C404 N408 1.427 . S
C405 H395 0.929 . S
C405 C403 1.433 . S
C405 N408 1.384 . S
C406 H397 0.929 . S
C406 C398 1.378 . S
C406 C401 1.350 1_655 S
C407 H394 0.929 . S
C407 C399 1.433 1_556 S
C407 N409 1.384 . S
N408 C404 1.427 . S
N408 C405 1.384 . S
N409 C401 1.427 1_656 S
N409 C407 1.384 . S
H410 C416 0.930 . S
H411 C420 0.930 . S
H412 C425 0.929 . S
H413 C423 0.929 . S
H414 C418 0.929 . S
H415 C424 0.929 . S
C416 H410 0.930 . S
C416 C417 1.367 1_556 S
C416 C424 1.378 . S
C417 C416 1.367 1_554 S
C417 C425 1.433 . S
C418 H414 0.929 . S
C418 C420 1.378 . S
C418 C422 1.350 . S
C419 C422 1.463 . S
C419 C424 1.350 1_654 S
C419 N427 1.427 1_655 S
C420 H411 0.930 . S
C420 C418 1.378 . S
C420 C421 1.367 . S
C421 C420 1.367 . S
C421 C423 1.433 1_554 S
C422 C418 1.350 . S
C422 C419 1.463 . S
C422 N426 1.427 1_554 S
C423 H413 0.929 . S
C423 C421 1.433 1_556 S
C423 N426 1.384 . S
C424 H415 0.929 . S
C424 C416 1.378 . S
C424 C419 1.350 1_456 S
C425 H412 0.929 . S
C425 C417 1.433 . S
C425 N427 1.384 . S
N426 C422 1.427 1_556 S
N426 C423 1.384 . S
N427 C419 1.427 1_455 S
N427 C425 1.384 . S
H428 C434 0.930 . S
H429 C438 0.930 . S
H430 C443 0.929 . S
H431 C441 0.929 . S
H432 C436 0.929 1_455 S
H433 C442 0.929 . S
C434 H428 0.930 . S
C434 C435 1.367 . S
C434 C442 1.378 . S
C435 C434 1.367 . S
C435 C443 1.433 . S
C436 H432 0.929 1_655 S
C436 C438 1.378 . S
C436 C440 1.350 1_655 S
C437 C440 1.463 . S
C437 C442 1.350 . S
C437 N445 1.427 . S
C438 H429 0.930 . S
C438 C436 1.378 . S
C438 C439 1.367 . S
C439 C438 1.367 . S
C439 C441 1.433 . S
C440 C436 1.350 1_455 S
C440 C437 1.463 . S
C440 N444 1.427 1_455 S
C441 H431 0.929 . S
C441 C439 1.433 . S
C441 N444 1.384 . S
C442 H433 0.929 . S
C442 C434 1.378 . S
C442 C437 1.350 . S
C443 H430 0.929 . S
C443 C435 1.433 . S
C443 N445 1.384 . S
N444 C440 1.427 1_655 S
N444 C441 1.384 . S
N445 C437 1.427 . S
N445 C443 1.384 . S
H446 C452 0.930 . S
H447 C456 0.930 . S
H448 C461 0.929 . S
H449 C459 0.929 . S
H450 C454 0.929 1_655 S
H451 C460 0.929 . S
C452 H446 0.930 . S
C452 C453 1.367 . S
C452 C460 1.378 . S
C453 C452 1.367 . S
C453 C461 1.433 . S
C454 H450 0.929 1_455 S
C454 C456 1.378 . S
C454 C458 1.350 1_455 S
C455 C458 1.463 . S
C455 C460 1.350 . S
C455 N463 1.427 . S
C456 H447 0.930 . S
C456 C454 1.378 . S
C456 C457 1.367 . S
C457 C456 1.367 . S
C457 C459 1.433 . S
C458 C454 1.350 1_655 S
C458 C455 1.463 . S
C458 N462 1.427 1_655 S
C459 H449 0.929 . S
C459 C457 1.433 . S
C459 N462 1.384 . S
C460 H451 0.929 . S
C460 C452 1.378 . S
C460 C455 1.350 . S
C461 H448 0.929 . S
C461 C453 1.433 . S
C461 N463 1.384 . S
N462 C458 1.427 1_455 S
N462 C459 1.384 . S
N463 C455 1.427 . S
N463 C461 1.384 . S
H464 C470 0.924 1_655 S
H465 C474 0.926 1_455 S
H466 C479 0.929 . S
H467 C477 0.929 . S
H468 C472 0.929 . S
H469 C478 0.929 . S
C470 H464 0.924 1_455 S
C470 C471 1.377 . S
C470 C478 1.373 1_455 S
C471 C470 1.377 . S
C471 C479 1.433 . S
C472 H468 0.929 . S
C472 C474 1.374 1_455 S
C472 C476 1.350 1_455 S
C473 C476 1.463 1_455 S
C473 C478 1.350 1_455 S
C473 N481 1.427 . S
C474 H465 0.926 1_655 S
C474 C472 1.374 1_655 S
C474 C475 1.375 . S
C475 C474 1.375 . S
C475 C477 1.433 . S
C476 C472 1.350 1_655 S
C476 C473 1.463 1_655 S
C476 N480 1.427 . S
C477 H467 0.929 . S
C477 C475 1.433 . S
C477 N480 1.384 . S
C478 H469 0.929 . S
C478 C470 1.373 1_655 S
C478 C473 1.350 1_655 S
C479 H466 0.929 . S
C479 C471 1.433 . S
C479 N481 1.384 . S
N480 C476 1.427 . S
N480 C477 1.384 . S
N481 C473 1.427 . S
N481 C479 1.384 . S
H482 C488 0.930 . S
H483 C492 0.930 . S
H484 C497 0.924 1_655 S
H485 C495 0.922 1_455 S
H486 C490 0.929 . S
H487 C496 0.929 . S
C488 H482 0.930 . S
C488 C489 1.367 . S
C488 C496 1.378 . S
C489 C488 1.367 . S
C489 C497 1.443 . S
C490 H486 0.929 . S
C490 C492 1.378 . S
C490 C494 1.350 . S
C491 C494 1.463 1_455 S
C491 C496 1.350 . S
C491 N499 1.427 1_455 S
C492 H483 0.930 . S
C492 C490 1.378 . S
C492 C493 1.367 . S
C493 C492 1.367 . S
C493 C495 1.445 . S
C494 C490 1.350 . S
C494 C491 1.463 1_655 S
C494 N498 1.427 1_655 S
C495 H485 0.922 1_655 S
C495 C493 1.445 . S
C495 N498 1.379 1_655 S
C496 H487 0.929 . S
C496 C488 1.378 . S
C496 C491 1.350 . S
C497 H484 0.924 1_455 S
C497 C489 1.443 . S
C497 N499 1.380 1_455 S
N498 C494 1.427 1_455 S
N498 C495 1.379 1_455 S
N499 C491 1.427 1_655 S
N499 C497 1.380 1_655 S
H500 C506 0.930 . S
H501 C510 0.930 . S
H502 C515 0.929 . S
H503 C513 0.929 . S
H504 C508 0.929 . S
H505 C514 0.929 . S
C506 H500 0.930 . S
C506 C507 1.367 . S
C506 C514 1.378 . S
C507 C506 1.367 . S
C507 C515 1.433 1_554 S
C508 H504 0.929 . S
C508 C510 1.378 . S
C508 C512 1.350 1_556 S
C509 C512 1.463 1_565 S
C509 C514 1.350 . S
C509 N517 1.427 1_554 S
C510 H501 0.930 . S
C510 C508 1.378 . S
C510 C511 1.367 1_556 S
C511 C510 1.367 1_554 S
C511 C513 1.433 . S
C512 C508 1.350 1_554 S
C512 C509 1.463 1_545 S
C512 N516 1.427 . S
C513 H503 0.929 . S
C513 C511 1.433 . S
C513 N516 1.384 . S
C514 H505 0.929 . S
C514 C506 1.378 . S
C514 C509 1.350 . S
C515 H502 0.929 . S
C515 C507 1.433 1_556 S
C515 N517 1.384 . S
N516 C512 1.427 . S
N516 C513 1.384 . S
N517 C509 1.427 1_556 S
N517 C515 1.384 . S
H518 C524 0.930 . S
H519 C528 0.930 . S
H520 C533 0.929 . S
H521 C531 0.929 . S
H522 C526 0.929 . S
H523 C532 0.929 . S
C524 H518 0.930 . S
C524 C525 1.367 . S
C524 C532 1.378 . S
C525 C524 1.367 . S
C525 C533 1.433 . S
C526 H522 0.929 . S
C526 C528 1.378 . S
C526 C530 1.350 . S
C527 C530 1.463 1_545 S
C527 C532 1.350 . S
C527 N535 1.427 . S
C528 H519 0.930 . S
C528 C526 1.378 . S
C528 C529 1.367 . S
C529 C528 1.367 . S
C529 C531 1.433 . S
C530 C526 1.350 . S
C530 C527 1.463 1_565 S
C530 N534 1.427 . S
C531 H521 0.929 . S
C531 C529 1.433 . S
C531 N534 1.384 . S
C532 H523 0.929 . S
C532 C524 1.378 . S
C532 C527 1.350 . S
C533 H520 0.929 . S
C533 C525 1.433 . S
C533 N535 1.384 . S
N534 C530 1.427 . S
N534 C531 1.384 . S
N535 C527 1.427 . S
N535 C533 1.384 . S
H536 C542 0.930 . S
H537 C546 0.930 . S
H538 C551 0.929 . S
H539 C549 0.929 . S
H540 C544 0.929 . S
H541 C550 0.929 . S
C542 H536 0.930 . S
C542 C543 1.367 1_556 S
C542 C550 1.378 . S
C543 C542 1.367 1_554 S
C543 C551 1.433 . S
C544 H540 0.929 . S
C544 C546 1.378 . S
C544 C548 1.350 . S
C545 C548 1.463 . S
C545 C550 1.350 1_554 S
C545 N553 1.427 . S
C546 H537 0.930 . S
C546 C544 1.378 . S
C546 C547 1.367 . S
C547 C546 1.367 . S
C547 C549 1.433 1_554 S
C548 C544 1.350 . S
C548 C545 1.463 . S
C548 N552 1.427 1_554 S
C549 H539 0.929 . S
C549 C547 1.433 1_556 S
C549 N552 1.384 . S
C550 H541 0.929 . S
C550 C542 1.378 . S
C550 C545 1.350 1_556 S
C551 H538 0.929 . S
C551 C543 1.433 . S
C551 N553 1.384 . S
N552 C548 1.427 1_556 S
N552 C549 1.384 . S
N553 C545 1.427 . S
N553 C551 1.384 . S
H554 C560 0.930 . S
H555 C564 0.930 . S
H556 C569 0.929 1_556 S
H557 C567 0.929 . S
H558 C562 0.929 . S
H559 C568 0.929 . S
C560 H554 0.930 . S
C560 C561 1.367 . S
C560 C568 1.378 . S
C561 C560 1.367 . S
C561 C569 1.433 . S
C562 H558 0.929 . S
C562 C564 1.378 . S
C562 C566 1.350 1_556 S
C563 C566 1.463 . S
C563 C568 1.350 . S
C563 N571 1.418 1_554 S
C564 H555 0.930 . S
C564 C562 1.378 . S
C564 C565 1.367 1_556 S
C565 C564 1.367 1_554 S
C565 C567 1.433 . S
C566 C562 1.350 1_554 S
C566 C563 1.463 . S
C566 N570 1.427 . S
C567 H557 0.929 . S
C567 C565 1.433 . S
C567 N570 1.384 . S
C568 H559 0.929 . S
C568 C560 1.378 . S
C568 C563 1.350 . S
C569 H556 0.929 1_554 S
C569 C561 1.433 . S
C569 N571 1.382 1_554 S
N570 C566 1.427 . S
N570 C567 1.384 . S
N571 C563 1.418 1_556 S
N571 C569 1.382 1_556 S
H572 C578 0.930 . S
H573 C582 0.930 . S
H574 C587 0.929 . S
H575 C585 0.929 . S
H576 C580 0.929 . S
H577 C586 0.929 . S
C578 H572 0.930 . S
C578 C579 1.367 . S
C578 C586 1.378 . S
C579 C578 1.367 . S
C579 C587 1.433 . S
C580 H576 0.929 . S
C580 C582 1.378 . S
C580 C584 1.350 . S
C581 C584 1.463 . S
C581 C586 1.350 . S
C581 N589 1.427 . S
C582 H573 0.930 . S
C582 C580 1.378 . S
C582 C583 1.367 . S
C583 C582 1.367 . S
C583 C585 1.433 . S
C584 C580 1.350 . S
C584 C581 1.463 . S
C584 N588 1.427 . S
C585 H575 0.929 . S
C585 C583 1.433 . S
C585 N588 1.384 . S
C586 H577 0.929 . S
C586 C578 1.378 . S
C586 C581 1.350 . S
C587 H574 0.929 . S
C587 C579 1.433 . S
C587 N589 1.384 . S
N588 C584 1.427 . S
N588 C585 1.384 . S
N589 C581 1.427 . S
N589 C587 1.384 . S
H590 C596 0.930 . S
H591 C600 0.930 . S
H592 C605 0.929 . S
H593 C603 0.929 . S
H594 C598 0.929 . S
H595 C604 0.929 . S
C596 H590 0.930 . S
C596 C597 1.367 . S
C596 C604 1.378 . S
C597 C596 1.367 . S
C597 C605 1.433 . S
C598 H594 0.929 . S
C598 C600 1.378 . S
C598 C602 1.350 . S
C599 C602 1.463 . S
C599 C604 1.350 . S
C599 N607 1.427 . S
C600 H591 0.930 . S
C600 C598 1.378 . S
C600 C601 1.367 . S
C601 C600 1.367 . S
C601 C603 1.433 . S
C602 C598 1.350 . S
C602 C599 1.463 . S
C602 N606 1.427 . S
C603 H593 0.929 . S
C603 C601 1.433 . S
C603 N606 1.384 . S
C604 H595 0.929 . S
C604 C596 1.378 . S
C604 C599 1.350 . S
C605 H592 0.929 . S
C605 C597 1.433 . S
C605 N607 1.384 . S
N606 C602 1.427 . S
N606 C603 1.384 . S
N607 C599 1.427 . S
N607 C605 1.384 . S
H608 C614 0.930 . S
H609 C618 0.930 . S
H610 C623 0.928 1_655 S
H611 C621 0.929 1_455 S
H612 C616 0.929 . S
H613 C622 0.929 . S
C614 H608 0.930 . S
C614 C615 1.367 . S
C614 C622 1.378 . S
C615 C614 1.367 . S
C615 C623 1.433 . S
C616 H612 0.929 . S
C616 C618 1.378 . S
C616 C620 1.350 . S
C617 C620 1.463 1_455 S
C617 C622 1.350 . S
C617 N625 1.427 1_455 S
C618 H609 0.930 . S
C618 C616 1.378 . S
C618 C619 1.367 . S
C619 C618 1.367 . S
C619 C621 1.433 . S
C620 C616 1.350 . S
C620 C617 1.463 1_655 S
C620 N624 1.427 1_655 S
C621 H611 0.929 1_655 S
C621 C619 1.433 . S
C621 N624 1.384 1_655 S
C622 H613 0.929 . S
C622 C614 1.378 . S
C622 C617 1.350 . S
C623 H610 0.928 1_455 S
C623 C615 1.433 . S
C623 N625 1.384 1_455 S
N624 C620 1.427 1_455 S
N624 C621 1.384 1_455 S
N625 C617 1.427 1_655 S
N625 C623 1.384 1_655 S
H626 C632 0.932 . S
H627 C636 0.932 . S
H628 C641 0.929 . S
H629 C639 0.929 . S
H630 C634 0.929 . S
H631 C640 0.929 . S
C632 H626 0.932 . S
C632 C633 1.361 1_455 S
C632 C640 1.381 . S
C633 C632 1.361 1_655 S
C633 C641 1.433 . S
C634 H630 0.929 . S
C634 C636 1.380 . S
C634 C638 1.350 1_655 S
C635 C638 1.463 1_655 S
C635 C640 1.350 1_655 S
C635 N643 1.427 . S
C636 H627 0.932 . S
C636 C634 1.380 . S
C636 C637 1.364 1_655 S
C637 C636 1.364 1_455 S
C637 C639 1.433 . S
C638 C634 1.350 1_455 S
C638 C635 1.463 1_455 S
C638 N642 1.427 . S
C639 H629 0.929 . S
C639 C637 1.433 . S
C639 N642 1.384 . S
C640 H631 0.929 . S
C640 C632 1.381 . S
C640 C635 1.350 1_455 S
C641 H628 0.929 . S
C641 C633 1.433 . S
C641 N643 1.384 . S
N642 C638 1.427 . S
N642 C639 1.384 . S
N643 C635 1.427 . S
N643 C641 1.384 . S
H644 C650 0.930 . S
H645 C654 0.930 . S
H646 C659 0.929 1_455 S
H647 C657 0.929 1_655 S
H648 C652 0.929 . S
H649 C658 0.929 . S
C650 H644 0.930 . S
C650 C651 1.367 . S
C650 C658 1.378 . S
C651 C650 1.367 . S
C651 C659 1.433 . S
C652 H648 0.929 . S
C652 C654 1.378 . S
C652 C656 1.350 . S
C653 C656 1.463 1_655 S
C653 C658 1.350 . S
C653 N661 1.427 1_655 S
C654 H645 0.930 . S
C654 C652 1.378 . S
C654 C655 1.367 . S
C655 C654 1.367 . S
C655 C657 1.433 . S
C656 C652 1.350 . S
C656 C653 1.463 1_455 S
C656 N660 1.427 1_455 S
C657 H647 0.929 1_455 S
C657 C655 1.433 . S
C657 N660 1.384 1_455 S
C658 H649 0.929 . S
C658 C650 1.378 . S
C658 C653 1.350 . S
C659 H646 0.929 1_655 S
C659 C651 1.433 . S
C659 N661 1.384 1_655 S
N660 C656 1.427 1_655 S
N660 C657 1.384 1_655 S
N661 C653 1.427 1_455 S
N661 C659 1.384 1_455 S
H662 C668 0.930 . S
H663 C672 0.930 . S
H664 C677 0.929 . S
H665 C675 0.929 . S
H666 C670 0.929 . S
H667 C676 0.929 . S
C668 H662 0.930 . S
C668 C669 1.367 1_455 S
C668 C676 1.378 . S
C669 C668 1.367 1_655 S
C669 C677 1.433 . S
C670 H666 0.929 . S
C670 C672 1.378 . S
C670 C674 1.350 1_655 S
C671 C674 1.463 1_655 S
C671 C676 1.350 1_655 S
C671 N679 1.427 . S
C672 H663 0.930 . S
C672 C670 1.378 . S
C672 C673 1.367 1_655 S
C673 C672 1.367 1_455 S
C673 C675 1.433 . S
C674 C670 1.350 1_455 S
C674 C671 1.463 1_455 S
C674 N678 1.427 . S
C675 H665 0.929 . S
C675 C673 1.433 . S
C675 N678 1.384 . S
C676 H667 0.929 . S
C676 C668 1.378 . S
C676 C671 1.350 1_455 S
C677 H664 0.929 . S
C677 C669 1.433 . S
C677 N679 1.384 . S
N678 C674 1.427 . S
N678 C675 1.384 . S
N679 C671 1.427 . S
N679 C677 1.384 . S
H680 C686 0.930 . S
H681 C690 0.930 . S
H682 C695 0.929 . S
H683 C693 0.929 . S
H684 C688 0.929 . S
H685 C694 0.929 . S
C686 H680 0.930 . S
C686 C687 1.367 . S
C686 C694 1.378 . S
C687 C686 1.367 . S
C687 C695 1.433 . S
C688 H684 0.929 . S
C688 C690 1.378 . S
C688 C692 1.350 . S
C689 C692 1.463 . S
C689 C694 1.350 . S
C689 N697 1.427 . S
C690 H681 0.930 . S
C690 C688 1.378 . S
C690 C691 1.367 . S
C691 C690 1.367 . S
C691 C693 1.433 . S
C692 C688 1.350 . S
C692 C689 1.463 . S
C692 N696 1.427 . S
C693 H683 0.929 . S
C693 C691 1.433 . S
C693 N696 1.384 . S
C694 H685 0.929 . S
C694 C686 1.378 . S
C694 C689 1.350 . S
C695 H682 0.929 . S
C695 C687 1.433 . S
C695 N697 1.384 . S
N696 C692 1.427 . S
N696 C693 1.384 . S
N697 C689 1.427 . S
N697 C695 1.384 . S
H698 C704 0.930 . S
H699 C708 0.930 . S
H700 C713 0.929 . S
H701 C711 0.929 . S
H702 C706 0.929 . S
H703 C712 0.929 . S
C704 H698 0.930 . S
C704 C705 1.367 . S
C704 C712 1.378 . S
C705 C704 1.367 . S
C705 C713 1.433 . S
C706 H702 0.929 . S
C706 C708 1.378 . S
C706 C710 1.350 . S
C707 C710 1.463 . S
C707 C712 1.350 . S
C707 N715 1.427 . S
C708 H699 0.930 . S
C708 C706 1.378 . S
C708 C709 1.367 . S
C709 C708 1.367 . S
C709 C711 1.433 . S
C710 C706 1.350 . S
C710 C707 1.463 . S
C710 N714 1.427 . S
C711 H701 0.929 . S
C711 C709 1.433 . S
C711 N714 1.384 . S
C712 H703 0.929 . S
C712 C704 1.378 . S
C712 C707 1.350 . S
C713 H700 0.929 . S
C713 C705 1.433 . S
C713 N715 1.384 . S
N714 C710 1.427 . S
N714 C711 1.384 . S
N715 C707 1.427 . S
N715 C713 1.384 . S
H716 C722 0.930 . S
H717 C726 0.930 . S
H718 C731 0.929 . S
H719 C729 0.929 . S
H720 C724 0.929 . S
H721 C730 0.929 . S
C722 H716 0.930 . S
C722 C723 1.367 . S
C722 C730 1.378 . S
C723 C722 1.367 . S
C723 C731 1.433 . S
C724 H720 0.929 . S
C724 C726 1.378 . S
C724 C728 1.350 . S
C725 C728 1.463 . S
C725 C730 1.350 . S
C725 N733 1.427 . S
C726 H717 0.930 . S
C726 C724 1.378 . S
C726 C727 1.367 . S
C727 C726 1.367 . S
C727 C729 1.433 . S
C728 C724 1.350 . S
C728 C725 1.463 . S
C728 N732 1.427 . S
C729 H719 0.929 . S
C729 C727 1.433 . S
C729 N732 1.384 . S
C730 H721 0.929 . S
C730 C722 1.378 . S
C730 C725 1.350 . S
C731 H718 0.929 . S
C731 C723 1.433 . S
C731 N733 1.384 . S
N732 C728 1.427 . S
N732 C729 1.384 . S
N733 C725 1.427 . S
N733 C731 1.384 . S
H734 C740 0.930 . S
H735 C744 0.930 . S
H736 C749 0.929 . S
H737 C747 0.929 . S
H738 C742 0.929 . S
H739 C748 0.929 . S
C740 H734 0.930 . S
C740 C741 1.367 . S
C740 C748 1.378 . S
C741 C740 1.367 . S
C741 C749 1.433 . S
C742 H738 0.929 . S
C742 C744 1.378 . S
C742 C746 1.350 . S
C743 C746 1.463 . S
C743 C748 1.350 . S
C743 N751 1.427 . S
C744 H735 0.930 . S
C744 C742 1.378 . S
C744 C745 1.367 . S
C745 C744 1.367 . S
C745 C747 1.433 . S
C746 C742 1.350 . S
C746 C743 1.463 . S
C746 N750 1.427 . S
C747 H737 0.929 . S
C747 C745 1.433 . S
C747 N750 1.384 . S
C748 H739 0.929 . S
C748 C740 1.378 . S
C748 C743 1.350 . S
C749 H736 0.929 . S
C749 C741 1.433 . S
C749 N751 1.384 . S
N750 C746 1.427 . S
N750 C747 1.384 . S
N751 C743 1.427 . S
N751 C749 1.384 . S
C327 C20 2.115 . S
C331 C31 2.115 . S
C345 C60 2.113 . S
C349 C71 2.113 . S
C363 C100 2.116 . S
C367 C111 2.116 . S
C381 C140 2.116 . S
C385 C151 2.116 . S
C399 C180 2.113 . S
C403 C191 2.113 . S
C417 C231 2.115 . S
C421 C220 2.115 . S
C435 C260 2.116 . S
C439 C271 2.116 . S
C453 C311 2.116 . S
C457 C300 2.116 . S
C471 C44 2.394 . S
C475 C25 2.394 . S
C489 C145 2.405 . S
C493 C84 2.405 . S
C507 C185 2.401 . S
C511 C204 2.401 . S
C525 C244 2.397 . S
C529 C305 2.397 . S
C543 C4 1.726 . S
C547 C225 1.726 . S
C561 C164 1.728 . S
C565 C65 1.728 . S
C579 C105 1.732 . S
C583 C284 1.732 . S
C597 C124 1.731 . S
C601 C265 1.731 . S
C615 C23 1.427 . S
C619 C143 1.414 . S
C633 C63 1.671 . S
C637 C103 1.661 . S
C651 C42 1.414 . S
C655 C82 1.426 . S
C669 C122 1.662 . S
C673 C2 1.670 . S
C687 C183 1.411 . S
C691 C303 1.425 . S
C705 C223 1.668 . S
C709 C263 1.663 . S
C723 C202 1.425 . S
C727 C242 1.411 . S
C741 C282 1.675 . S
C745 C162 1.664 . S
